# Generated by pormake.
# Topology rtl, (3,6)-cn, num edge types: 1
# Building blocks:
#     Node 0, Type 0, BuildingBlock: QEWDON_clean_linker_0, # of connection points: 3
#     Node 1, Type 0, BuildingBlock: QEWDON_clean_linker_0, # of connection points: 3
#     Node 2, Type 0, BuildingBlock: QEWDON_clean_linker_0, # of connection points: 3
#     Node 3, Type 0, BuildingBlock: QEWDON_clean_linker_0, # of connection points: 3
#     Node 4, Type 1, BuildingBlock: LEVNOQ01_clean_sbu_1, # of connection points: 6
#     Node 5, Type 1, BuildingBlock: LEVNOQ01_clean_sbu_1, # of connection points: 6
#     Edge 6, Type (0, 1), BuildingBlock: XUDNAN_clean_linker_2, # of connection points: 2
#     Edge 7, Type (0, 1), BuildingBlock: XUDNAN_clean_linker_2, # of connection points: 2
#     Edge 8, Type (0, 1), BuildingBlock: XUDNAN_clean_linker_2, # of connection points: 2
#     Edge 9, Type (0, 1), BuildingBlock: XUDNAN_clean_linker_2, # of connection points: 2
#     Edge 10, Type (0, 1), BuildingBlock: XUDNAN_clean_linker_2, # of connection points: 2
#     Edge 11, Type (0, 1), BuildingBlock: XUDNAN_clean_linker_2, # of connection points: 2
#     Edge 12, Type (0, 1), BuildingBlock: XUDNAN_clean_linker_2, # of connection points: 2
#     Edge 13, Type (0, 1), BuildingBlock: XUDNAN_clean_linker_2, # of connection points: 2
#     Edge 14, Type (0, 1), BuildingBlock: XUDNAN_clean_linker_2, # of connection points: 2
#     Edge 15, Type (0, 1), BuildingBlock: XUDNAN_clean_linker_2, # of connection points: 2
#     Edge 16, Type (0, 1), BuildingBlock: XUDNAN_clean_linker_2, # of connection points: 2
#     Edge 17, Type (0, 1), BuildingBlock: XUDNAN_clean_linker_2, # of connection points: 2
# Relax obj value: 0.038
# Max RMSD: 0.175
# Mean RMSD: 0.137
data_MOF--net-rtl--node1-LEVNOQ01_clean_sbu_1--node2-QEWDON_clean_linker_0--edge1-XUDNAN_clean_linker_2
_symmetry_space_group_name_H-M    P1
_symmetry_Int_Tables_number       1
_symmetry_cell_setting            triclinic
loop_
_symmetry_equiv_pos_as_xyz
'x, y, z'
_cell_length_a     38.095119
_cell_length_b     37.798004
_cell_length_c     21.882577
_cell_angle_alpha  91.370574
_cell_angle_beta   99.414244
_cell_angle_gamma 90.305335
loop_
_atom_site_label
_atom_site_type_symbol
_atom_site_fract_x
_atom_site_fract_y
_atom_site_fract_z
_atom_type_partial_charge
H0 H 0.23544 0.8713 0.18981 0.0
C1 C 0.21995 0.87157 0.14367 0.0
C2 C 0.18583 0.88653 0.13392 0.0
C3 C 0.23548 0.85841 0.09416 0.0
H4 H 0.14244 0.90194 0.06458 0.0
C5 C 0.16807 0.88944 0.07231 0.0
C6 C 0.18353 0.87739 0.02102 0.0
C7 C 0.217 0.86057 0.03341 0.0
C8 C 0.2735 0.8485 0.10594 0.0
H9 H 0.22974 0.85024 0.99616 0.0
C10 C 0.28455 0.81292 0.10966 0.0
C11 C 0.32104 0.80489 0.12644 0.0
C12 C 0.29903 0.87575 0.11766 0.0
H13 H 0.29099 0.90321 0.11528 0.0
C14 C 0.33501 0.86793 0.13314 0.0
H15 H 0.26488 0.79179 0.10127 0.0
C16 C 0.34598 0.83285 0.13775 0.0
H17 H 0.37417 0.82757 0.14945 0.0
H18 H 0.3545 0.88916 0.14194 0.0
H19 H 0.72048 0.70528 0.51413 0.0
C20 C 0.70821 0.69688 0.55277 0.0
C21 C 0.67302 0.68358 0.54212 0.0
C22 C 0.72806 0.69777 0.613 0.0
H23 H 0.63146 0.65965 0.58359 0.0
C24 C 0.65794 0.67129 0.59232 0.0
C25 C 0.67767 0.67131 0.65258 0.0
C26 C 0.71252 0.68508 0.66236 0.0
C27 C 0.76648 0.70731 0.62458 0.0
H28 H 0.72807 0.68536 0.70853 0.0
C29 C 0.77886 0.74193 0.61648 0.0
C30 C 0.8153 0.75065 0.63482 0.0
C31 C 0.79094 0.68146 0.64862 0.0
H32 H 0.78204 0.65473 0.65513 0.0
C33 C 0.82694 0.6898 0.66515 0.0
H34 H 0.76017 0.76217 0.5986 0.0
C35 C 0.83903 0.72414 0.65879 0.0
H36 H 0.86715 0.72998 0.67232 0.0
H37 H 0.84552 0.66964 0.68362 0.0
H38 H 0.76696 0.19672 0.0741 0.0
C39 C 0.77954 0.18431 0.03832 0.0
C40 C 0.81283 0.16732 0.05339 0.0
C41 C 0.76127 0.184 0.97696 0.0
H42 H 0.85251 0.13716 0.01394 0.0
C43 C 0.82786 0.15158 0.00442 0.0
C44 C 0.8104 0.15234 0.94265 0.0
C45 C 0.77702 0.16827 0.92962 0.0
C46 C 0.72364 0.19519 0.96226 0.0
H47 H 0.76294 0.16823 0.88234 0.0
C48 C 0.71344 0.23097 0.96515 0.0
C49 C 0.67762 0.24057 0.94494 0.0
C50 C 0.69775 0.16921 0.94096 0.0
H51 H 0.70504 0.1416 0.93833 0.0
C52 C 0.66236 0.17848 0.92247 0.0
H53 H 0.73336 0.25119 0.98085 0.0
C54 C 0.65235 0.21382 0.92416 0.0
H55 H 0.62458 0.2202 0.90974 0.0
H56 H 0.64263 0.15819 0.90636 0.0
H57 H 0.3328 0.28843 0.57666 0.0
C58 C 0.33331 0.30785 0.54119 0.0
C59 C 0.3465 0.34248 0.5577 0.0
C60 C 0.3238 0.29744 0.47828 0.0
H61 H 0.35884 0.39326 0.52177 0.0
C62 C 0.34858 0.36672 0.51025 0.0
C63 C 0.33988 0.35639 0.4477 0.0
C64 C 0.32689 0.3221 0.43229 0.0
C65 C 0.31663 0.2598 0.45821 0.0
H66 H 0.3208 0.31396 0.3838 0.0
C67 C 0.28741 0.24015 0.47253 0.0
C68 C 0.27883 0.20613 0.44449 0.0
C69 C 0.33818 0.24457 0.41858 0.0
H70 H 0.36099 0.25886 0.40751 0.0
C71 C 0.32995 0.21155 0.39078 0.0
H72 H 0.27132 0.25174 0.50404 0.0
C73 C 0.30028 0.19292 0.40232 0.0
H74 H 0.29406 0.16827 0.37666 0.0
H75 H 0.3462 0.20067 0.35882 0.0
O76 O 0.99373 0.09085 0.66629 0.0
Mg77 Mg 0.04081 0.07149 0.64426 0.0
O78 O 0.96382 0.04955 0.60608 0.0
Mg79 Mg 0.00145 0.02641 0.53662 0.0
O80 O 0.04567 0.07121 0.55277 0.0
O81 O 0.07559 0.10866 0.62409 0.0
O82 O 0.03944 0.00269 0.47001 0.0
O83 O 0.96973 0.06603 0.4621 0.0
Mg84 Mg 0.96262 0.99083 0.42889 0.0
O85 O 0.95848 0.97903 0.5198 0.0
O86 O 0.00684 0.97491 0.39068 0.0
O87 O 0.93595 0.03423 0.38929 0.0
O88 O 0.92872 0.95093 0.43504 0.0
C89 C 0.05361 0.99434 0.66546 0.0
C90 C 0.96509 0.07403 0.64803 0.0
C91 C 0.06939 0.09636 0.56781 0.0
C92 C 0.03688 0.98477 0.4192 0.0
C93 C 0.94638 0.06394 0.41276 0.0
C94 C 0.93554 0.95478 0.49454 0.0
O95 O 0.06107 0.0251 0.68833 0.0
O96 O 0.03337 0.98969 0.61299 0.0
O97 O 0.56747 0.53175 0.19161 0.0
Mg98 Mg 0.54233 0.48715 0.14765 0.0
O99 O 0.53017 0.5629 0.12715 0.0
Mg100 Mg 0.50059 0.52157 0.04931 0.0
O101 O 0.54606 0.47667 0.05647 0.0
O102 O 0.57922 0.45131 0.13819 0.0
O103 O 0.47156 0.47941 0.97325 0.0
O104 O 0.53575 0.54824 0.98108 0.0
Mg105 Mg 0.45777 0.55306 0.94879 0.0
O106 O 0.4548 0.5659 0.0402 0.0
O107 O 0.43453 0.50768 0.9039 0.0
O108 O 0.4987 0.57627 0.91128 0.0
O109 O 0.41986 0.58812 0.95722 0.0
C110 C 0.46966 0.47435 0.16198 0.0
C111 C 0.55506 0.56132 0.17411 0.0
C112 C 0.57077 0.45433 0.07908 0.0
C113 C 0.44773 0.4791 0.92471 0.0
C114 C 0.53014 0.56816 0.93397 0.0
C115 C 0.42932 0.58714 0.01646 0.0
O116 O 0.5005 0.4638 0.18319 0.0
O117 O 0.46505 0.49587 0.11723 0.0
H118 H 0.21545 0.22821 0.483 0.0
H119 H 0.27084 0.13318 0.43739 0.0
H120 H 0.21798 0.09771 0.4438 0.0
H121 H 0.17809 0.18516 0.60227 0.0
H122 H 0.13742 0.21006 0.58969 0.0
H123 H 0.17785 0.22913 0.57206 0.0
H124 H 0.14603 0.2399 0.46008 0.0
H125 H 0.10575 0.21998 0.47713 0.0
H126 H 0.12561 0.20314 0.41313 0.0
H127 H 0.15878 0.07138 0.45404 0.0
H128 H 0.10455 0.05443 0.49551 0.0
H129 H 0.09108 0.16371 0.55081 0.0
C130 C 0.21682 0.20002 0.47437 0.0
C131 C 0.24743 0.18434 0.45622 0.0
C132 C 0.24747 0.14688 0.44718 0.0
C133 C 0.21744 0.12611 0.45121 0.0
C134 C 0.18751 0.14259 0.4667 0.0
C135 C 0.1874 0.17846 0.4805 0.0
C136 C 0.15358 0.18861 0.50464 0.0
C137 C 0.16226 0.20414 0.57111 0.0
C138 C 0.13144 0.21444 0.46113 0.0
C139 C 0.13513 0.15276 0.5029 0.0
C140 C 0.15459 0.12679 0.4787 0.0
C141 C 0.14327 0.09147 0.47314 0.0
C142 C 0.11221 0.0821 0.49606 0.0
C143 C 0.09354 0.10781 0.52565 0.0
C144 C 0.10461 0.14369 0.5274 0.0
H145 H 0.30372 0.74971 0.04301 0.0
H146 H 0.36924 0.77697 0.21909 0.0
H147 H 0.39893 0.71905 0.21838 0.0
H148 H 0.29667 0.65177 0.06992 0.0
H149 H 0.29925 0.64118 0.99003 0.0
H150 H 0.27891 0.68187 0.01018 0.0
H151 H 0.32201 0.71733 0.954 0.0
H152 H 0.34249 0.67692 0.93398 0.0
H153 H 0.36934 0.71179 0.97602 0.0
H154 H 0.42782 0.66167 0.19042 0.0
H155 H 0.45255 0.61122 0.13694 0.0
H156 H 0.36726 0.62155 0.98091 0.0
C157 C 0.32335 0.74291 0.08249 0.0
C158 C 0.33405 0.76779 0.13116 0.0
C159 C 0.36066 0.75832 0.18118 0.0
C160 C 0.37757 0.72538 0.18136 0.0
C161 C 0.36739 0.7019 0.13148 0.0
C162 C 0.34057 0.71014 0.08327 0.0
C163 C 0.33709 0.68209 0.03211 0.0
C164 C 0.30082 0.6631 0.02518 0.0
C165 C 0.34311 0.69799 0.97044 0.0
C166 C 0.36706 0.65768 0.05772 0.0
C167 C 0.38395 0.66905 0.11555 0.0
C168 C 0.41432 0.65212 0.14565 0.0
C169 C 0.42819 0.62342 0.11509 0.0
C170 C 0.41188 0.61235 0.05485 0.0
C171 C 0.38034 0.62918 0.0271 0.0
H172 H 0.8087 0.7917 0.53192 0.0
H173 H 0.8558 0.79048 0.72592 0.0
H174 H 0.88786 0.84642 0.71462 0.0
H175 H 0.88475 0.81908 0.47862 0.0
H176 H 0.86264 0.84674 0.41845 0.0
H177 H 0.83925 0.80989 0.44397 0.0
H178 H 0.78947 0.85174 0.46866 0.0
H179 H 0.8126 0.88877 0.44265 0.0
H180 H 0.80095 0.88985 0.51925 0.0
H181 H 0.92007 0.89954 0.6788 0.0
H182 H 0.94872 0.94433 0.62128 0.0
H183 H 0.88066 0.90964 0.45137 0.0
C184 C 0.82482 0.8039 0.57238 0.0
C185 C 0.8295 0.78702 0.6299 0.0
C186 C 0.85174 0.80316 0.68147 0.0
C187 C 0.87001 0.83494 0.67552 0.0
C188 C 0.86579 0.85041 0.61764 0.0
C189 C 0.84351 0.8355 0.56707 0.0
C190 C 0.84595 0.85553 0.50884 0.0
C191 C 0.85893 0.83137 0.4596 0.0
C192 C 0.81011 0.87248 0.48337 0.0
C193 C 0.87365 0.88337 0.53415 0.0
C194 C 0.88458 0.8804 0.59709 0.0
C195 C 0.91135 0.90236 0.62957 0.0
C196 C 0.92752 0.92773 0.59662 0.0
C197 C 0.91707 0.93059 0.53182 0.0
C198 C 0.88939 0.90833 0.50089 0.0
H199 H 0.69276 0.29026 0.03929 0.0
H200 H 0.6339 0.27477 0.85356 0.0
H201 H 0.60535 0.33284 0.8615 0.0
H202 H 0.62457 0.32539 0.10352 0.0
H203 H 0.65088 0.3572 0.15444 0.0
H204 H 0.67118 0.31765 0.13006 0.0
H205 H 0.71827 0.35536 0.08716 0.0
H206 H 0.69815 0.39516 0.11179 0.0
H207 H 0.70395 0.38918 0.03209 0.0
H208 H 0.57639 0.38878 0.89606 0.0
H209 H 0.551 0.43683 0.95431 0.0
H210 H 0.63021 0.41591 0.11536 0.0
C211 C 0.67488 0.29969 0.99951 0.0
C212 C 0.66562 0.278 0.94585 0.0
C213 C 0.64127 0.29089 0.89533 0.0
C214 C 0.62504 0.32395 0.89925 0.0
C215 C 0.63367 0.34415 0.95377 0.0
C216 C 0.6584 0.33265 0.00271 0.0
C217 C 0.66053 0.3576 0.0583 0.0
C218 C 0.65122 0.3383 0.11487 0.0
C219 C 0.69742 0.37538 0.07319 0.0
C220 C 0.63219 0.384 0.03395 0.0
C221 C 0.61723 0.37627 0.97331 0.0
C222 C 0.58843 0.39551 0.94321 0.0
C223 C 0.57417 0.42281 0.97651 0.0
C224 C 0.58857 0.43026 0.03932 0.0
C225 C 0.61857 0.41111 0.0673 0.0
H226 H 0.13808 0.94193 0.13832 0.0
H227 H 0.19568 0.86197 0.25363 0.0
H228 H 0.17065 0.88508 0.34289 0.0
H229 H 0.13963 0.01214 0.25412 0.0
H230 H 0.09436 0.02494 0.22688 0.0
H231 H 0.12073 0.00577 0.1735 0.0
H232 H 0.07281 0.9569 0.14126 0.0
H233 H 0.04613 0.97626 0.19371 0.0
H234 H 0.05846 0.93035 0.20011 0.0
H235 H 0.13783 0.91603 0.42042 0.0
H236 H 0.09244 0.94509 0.47353 0.0
H237 H 0.05078 0.99845 0.30442 0.0
C238 C 0.14547 0.92881 0.18184 0.0
C239 C 0.16971 0.90026 0.18809 0.0
C240 C 0.17838 0.88464 0.2471 0.0
C241 C 0.16408 0.89747 0.29845 0.0
C242 C 0.14047 0.92559 0.29037 0.0
C243 C 0.13065 0.94054 0.23318 0.0
C244 C 0.10177 0.96776 0.23504 0.0
C245 C 0.11492 0.00485 0.22159 0.0
C246 C 0.06778 0.95717 0.18988 0.0
C247 C 0.09644 0.96531 0.30193 0.0
C248 C 0.11976 0.94162 0.33368 0.0
C249 C 0.11951 0.93468 0.39603 0.0
C250 C 0.0939 0.95145 0.42599 0.0
C251 C 0.06855 0.97409 0.39302 0.0
C252 C 0.07027 0.98152 0.33067 0.0
H253 H 0.60944 0.67566 0.67833 0.0
H254 H 0.71205 0.62867 0.74327 0.0
H255 H 0.68691 0.59935 0.8263 0.0
H256 H 0.58355 0.69026 0.82934 0.0
H257 H 0.53751 0.67923 0.80172 0.0
H258 H 0.56435 0.69806 0.74996 0.0
H259 H 0.54878 0.6447 0.67347 0.0
H260 H 0.52189 0.62575 0.72493 0.0
H261 H 0.55736 0.60042 0.70064 0.0
H262 H 0.64896 0.57263 0.9005 0.0
H263 H 0.60176 0.55136 0.957 0.0
H264 H 0.52489 0.61565 0.84115 0.0
C265 C 0.6267 0.65926 0.71 0.0
C266 C 0.66283 0.65476 0.7043 0.0
C267 C 0.68445 0.63317 0.74719 0.0
C268 C 0.67036 0.61619 0.7944 0.0
C269 C 0.63456 0.62103 0.79838 0.0
C270 C 0.61309 0.64213 0.75729 0.0
C271 C 0.57527 0.64231 0.77008 0.0
C272 C 0.56456 0.67969 0.78891 0.0
C273 C 0.54931 0.6274 0.71395 0.0
C274 C 0.57863 0.61762 0.82414 0.0
C275 C 0.61299 0.60569 0.84029 0.0
C276 C 0.62198 0.58199 0.88836 0.0
C277 C 0.59504 0.57006 0.92027 0.0
C278 C 0.55957 0.58173 0.90368 0.0
C279 C 0.55166 0.60607 0.85526 0.0
H280 H 0.88486 0.15791 0.09996 0.0
H281 H 0.78161 0.16589 0.15962 0.0
H282 H 0.80967 0.15372 0.26575 0.0
H283 H 0.90772 0.08169 0.18084 0.0
H284 H 0.95461 0.0919 0.1988 0.0
H285 H 0.92827 0.10979 0.13111 0.0
H286 H 0.94883 0.17305 0.16997 0.0
H287 H 0.97486 0.15523 0.23846 0.0
H288 H 0.94186 0.1884 0.24566 0.0
H289 H 0.84683 0.13256 0.36324 0.0
H290 H 0.88746 0.09725 0.43747 0.0
H291 H 0.96464 0.09635 0.31287 0.0
C292 C 0.86779 0.15736 0.13483 0.0
C293 C 0.83061 0.16341 0.11982 0.0
C294 C 0.81015 0.16267 0.16863 0.0
C295 C 0.8259 0.1555 0.2297 0.0
C296 C 0.86225 0.14865 0.24202 0.0
C297 C 0.88286 0.14913 0.19568 0.0
C298 C 0.91999 0.13549 0.2186 0.0
C299 C 0.92809 0.10278 0.18008 0.0
C300 C 0.94804 0.1648 0.21814 0.0
C301 C 0.91663 0.12594 0.2844 0.0
C302 C 0.88347 0.13488 0.29768 0.0
C303 C 0.87311 0.12615 0.3538 0.0
C304 C 0.89649 0.10642 0.39609 0.0
C305 C 0.92964 0.09528 0.38183 0.0
C306 C 0.94014 0.106 0.32603 0.0
H307 H 0.4065 0.38214 0.59987 0.0
H308 H 0.32001 0.32689 0.6646 0.0
H309 H 0.34266 0.34864 0.7717 0.0
H310 H 0.47453 0.37164 0.73766 0.0
H311 H 0.49231 0.41551 0.73204 0.0
H312 H 0.47223 0.39141 0.66295 0.0
H313 H 0.4288 0.44316 0.63345 0.0
H314 H 0.44902 0.46748 0.70185 0.0
H315 H 0.40174 0.45902 0.68846 0.0
H316 H 0.3717 0.3826 0.87061 0.0
H317 H 0.40152 0.42715 0.94754 0.0
H318 H 0.46697 0.4608 0.81536 0.0
C319 C 0.3922 0.37442 0.63637 0.0
C320 C 0.36116 0.35296 0.62338 0.0
C321 C 0.34393 0.34306 0.6732 0.0
C322 C 0.35664 0.35534 0.73424 0.0
C323 C 0.38682 0.37725 0.74491 0.0
C324 C 0.40431 0.38659 0.69704 0.0
C325 C 0.43415 0.41284 0.71875 0.0
C326 C 0.47045 0.39688 0.71248 0.0
C327 C 0.42804 0.44768 0.68357 0.0
C328 C 0.43021 0.4178 0.7861 0.0
C329 C 0.40325 0.39661 0.80095 0.0
C330 C 0.39329 0.39872 0.85967 0.0
C331 C 0.41052 0.42384 0.90331 0.0
C332 C 0.43719 0.4465 0.88775 0.0
C333 C 0.44751 0.44286 0.82895 0.0
H334 H 0.69277 0.64466 0.44717 0.0
H335 H 0.60689 0.70843 0.49549 0.0
H336 H 0.56975 0.69194 0.39483 0.0
H337 H 0.675 0.65739 0.27518 0.0
H338 H 0.68542 0.6119 0.25982 0.0
H339 H 0.70737 0.63451 0.32923 0.0
H340 H 0.68653 0.58522 0.39584 0.0
H341 H 0.66466 0.56254 0.32689 0.0
H342 H 0.63977 0.57454 0.38748 0.0
H343 H 0.53946 0.66236 0.29349 0.0
H344 H 0.51797 0.61897 0.20837 0.0
H345 H 0.623 0.57291 0.23004 0.0
C346 C 0.66666 0.65623 0.43533 0.0
C347 C 0.65295 0.6785 0.47823 0.0
C348 C 0.61804 0.69184 0.4626 0.0
C349 C 0.59683 0.68266 0.40549 0.0
C350 C 0.6108 0.65988 0.3646 0.0
C351 C 0.64498 0.6468 0.37906 0.0
C352 C 0.65216 0.61906 0.33171 0.0
C353 C 0.68174 0.63147 0.29692 0.0
C354 C 0.66129 0.58324 0.36231 0.0
C355 C 0.61643 0.61766 0.28946 0.0
C356 C 0.59308 0.64195 0.30803 0.0
C357 C 0.55774 0.64364 0.27805 0.0
C358 C 0.54576 0.61908 0.22943 0.0
C359 C 0.5689 0.59284 0.21232 0.0
C360 C 0.60485 0.59301 0.24165 0.0
H361 H 0.87871 0.1605 0.92214 0.0
H362 H 0.77907 0.10771 0.8477 0.0
H363 H 0.80663 0.08184 0.76194 0.0
H364 H 0.90245 0.18278 0.77621 0.0
H365 H 0.94931 0.17578 0.80125 0.0
H366 H 0.92158 0.1892 0.85671 0.0
H367 H 0.94178 0.13464 0.92276 0.0
H368 H 0.96972 0.12119 0.86768 0.0
H369 H 0.93672 0.091 0.88719 0.0
H370 H 0.84713 0.0606 0.68428 0.0
H371 H 0.89552 0.04804 0.62321 0.0
H372 H 0.96619 0.11725 0.74932 0.0
C373 C 0.86277 0.14325 0.8881 0.0
C374 C 0.82683 0.13601 0.89169 0.0
C375 C 0.80666 0.11376 0.84561 0.0
C376 C 0.82211 0.09887 0.79686 0.0
C377 C 0.85769 0.10672 0.79455 0.0
C378 C 0.8776 0.12855 0.83902 0.0
C379 C 0.915 0.13356 0.82607 0.0
C380 C 0.9225 0.17265 0.81435 0.0
C381 C 0.94241 0.11923 0.87906 0.0
C382 C 0.91321 0.11107 0.76758 0.0
C383 C 0.88014 0.09553 0.74985 0.0
C384 C 0.87307 0.07287 0.69767 0.0
C385 C 0.90064 0.0659 0.66317 0.0
C386 C 0.93465 0.0818 0.68087 0.0
C387 C 0.94053 0.10479 0.73366 0.0
H388 H 0.3837 0.33935 0.36598 0.0
H389 H 0.32016 0.42521 0.42183 0.0
H390 H 0.34073 0.46356 0.34369 0.0
H391 H 0.45757 0.39159 0.35322 0.0
H392 H 0.46963 0.36673 0.28856 0.0
H393 H 0.44579 0.34535 0.34201 0.0
H394 H 0.39649 0.32587 0.25105 0.0
H395 H 0.42018 0.34737 0.19722 0.0
H396 H 0.37458 0.35871 0.20018 0.0
H397 H 0.37135 0.49313 0.26121 0.0
H398 H 0.41391 0.51276 0.19374 0.0
H399 H 0.45956 0.40796 0.19949 0.0
C400 C 0.37341 0.36596 0.3606 0.0
C401 C 0.34978 0.3792 0.39878 0.0
C402 C 0.33793 0.41455 0.39229 0.0
C403 C 0.34936 0.43637 0.34791 0.0
C404 C 0.37293 0.42249 0.31104 0.0
C405 C 0.38502 0.38812 0.3176 0.0
C406 C 0.4131 0.3804 0.27776 0.0
C407 C 0.44861 0.37046 0.31778 0.0
C408 C 0.40031 0.35137 0.22863 0.0
C409 C 0.41555 0.41593 0.24842 0.0
C410 C 0.39165 0.43975 0.26678 0.0
C411 C 0.38999 0.47458 0.24638 0.0
C412 C 0.41405 0.48548 0.20781 0.0
C413 C 0.43982 0.4618 0.19146 0.0
C414 C 0.43996 0.42652 0.21114 0.0
H415 H 0.11182 0.89132 0.97414 0.0
H416 H 0.21569 0.88341 0.91611 0.0
H417 H 0.18913 0.90069 0.81228 0.0
H418 H 0.05509 0.86902 0.8252 0.0
H419 H 0.02339 0.90295 0.83571 0.0
H420 H 0.04806 0.88182 0.90214 0.0
H421 H 0.07094 0.94294 0.94883 0.0
H422 H 0.04607 0.96418 0.88305 0.0
H423 H 0.09329 0.97212 0.90337 0.0
H424 H 0.15338 0.92523 0.71649 0.0
H425 H 0.11371 0.96225 0.64355 0.0
H426 H 0.03595 0.96275 0.76729 0.0
C427 C 0.12947 0.89301 0.94039 0.0
C428 C 0.16632 0.88507 0.95531 0.0
C429 C 0.18731 0.88762 0.90735 0.0
C430 C 0.17245 0.89784 0.84746 0.0
C431 C 0.1365 0.90629 0.83545 0.0
C432 C 0.1154 0.90452 0.8809 0.0
C433 C 0.079 0.92018 0.85901 0.0
C434 C 0.04965 0.89179 0.8553 0.0
C435 C 0.07194 0.95173 0.90104 0.0
C436 C 0.08337 0.93203 0.79486 0.0
C437 C 0.11636 0.92266 0.78138 0.0
C438 C 0.1273 0.93225 0.72618 0.0
C439 C 0.10454 0.95303 0.68478 0.0
C440 C 0.07153 0.96444 0.69922 0.0
C441 C 0.06058 0.9533 0.7544 0.0
loop_
_geom_bond_atom_site_label_1
_geom_bond_atom_site_label_2
_geom_bond_distance
_geom_bond_site_symmetry_2
_ccdc_geom_bond_type
H0 C1 0.949 . S
C1 H0 0.949 . S
C1 C2 1.395 . S
C1 C3 1.391 . S
C2 C1 1.395 . S
C2 C5 1.390 . S
C3 C1 1.391 . S
C3 C7 1.387 . S
C3 C8 1.491 . S
H4 C5 0.950 . S
C5 C2 1.390 . S
C5 H4 0.950 . S
C5 C6 1.378 . S
C6 C5 1.378 . S
C6 C7 1.409 . S
C7 C3 1.387 . S
C7 C6 1.409 . S
C7 H9 0.951 1_554 S
C8 C3 1.491 . S
C8 C10 1.382 . S
C8 C12 1.404 . S
H9 C7 0.951 1_556 S
C10 C8 1.382 . S
C10 C11 1.390 . S
C10 H15 0.949 . S
C11 C10 1.390 . S
C11 C16 1.399 . S
C12 C8 1.404 . S
C12 H13 0.950 1_554 S
C12 C14 1.375 . S
H13 C12 0.950 1_556 S
C14 C12 1.375 . S
C14 C16 1.382 . S
C14 H18 0.950 1_554 S
H15 C10 0.949 . S
C16 C11 1.399 . S
C16 C14 1.382 . S
C16 H17 0.952 . S
H17 C16 0.952 . S
H18 C14 0.950 1_556 S
H19 C20 0.949 . S
C20 H19 0.949 . S
C20 C21 1.395 . S
C20 C22 1.391 . S
C21 C20 1.395 . S
C21 C24 1.390 . S
C22 C20 1.391 . S
C22 C26 1.387 . S
C22 C27 1.491 . S
H23 C24 0.950 . S
C24 C21 1.390 . S
C24 H23 0.950 . S
C24 C25 1.378 . S
C25 C24 1.378 . S
C25 C26 1.409 . S
C26 C22 1.387 . S
C26 C25 1.409 . S
C26 H28 0.951 . S
C27 C22 1.491 . S
C27 C29 1.382 . S
C27 C31 1.404 . S
H28 C26 0.951 . S
C29 C27 1.382 . S
C29 C30 1.390 . S
C29 H34 0.949 . S
C30 C29 1.390 . S
C30 C35 1.399 . S
C31 C27 1.404 . S
C31 H32 0.950 . S
C31 C33 1.375 . S
H32 C31 0.950 . S
C33 C31 1.375 . S
C33 C35 1.382 . S
C33 H37 0.950 . S
H34 C29 0.949 . S
C35 C30 1.399 . S
C35 C33 1.382 . S
C35 H36 0.952 . S
H36 C35 0.952 . S
H37 C33 0.950 . S
H38 C39 0.949 . S
C39 H38 0.949 . S
C39 C40 1.395 . S
C39 C41 1.391 1_554 S
C40 C39 1.395 . S
C40 C43 1.395 . S
C41 C39 1.391 1_556 S
C41 C45 1.387 . S
C41 C46 1.491 . S
H42 C43 0.950 . S
C43 C40 1.395 . S
C43 H42 0.950 . S
C43 C44 1.372 1_554 S
C44 C43 1.372 1_556 S
C44 C45 1.409 . S
C45 C41 1.387 . S
C45 C44 1.409 . S
C45 H47 0.951 . S
C46 C41 1.491 . S
C46 C48 1.389 . S
C46 C50 1.404 . S
H47 C45 0.951 . S
C48 C46 1.389 . S
C48 C49 1.390 . S
C48 H53 0.941 1_556 S
C49 C48 1.390 . S
C49 C54 1.399 . S
C50 C46 1.404 . S
C50 H51 0.950 . S
C50 C52 1.375 . S
H51 C50 0.950 . S
C52 C50 1.375 . S
C52 C54 1.382 . S
C52 H56 0.950 . S
H53 C48 0.941 1_554 S
C54 C49 1.399 . S
C54 C52 1.382 . S
C54 H55 0.952 . S
H55 C54 0.952 . S
H56 C52 0.950 . S
H57 C58 0.949 . S
C58 H57 0.949 . S
C58 C59 1.395 . S
C58 C60 1.391 . S
C59 C58 1.395 . S
C59 C62 1.390 . S
C60 C58 1.391 . S
C60 C64 1.387 . S
C60 C65 1.491 . S
H61 C62 0.950 . S
C62 C59 1.390 . S
C62 H61 0.950 . S
C62 C63 1.378 . S
C63 C62 1.378 . S
C63 C64 1.409 . S
C64 C60 1.387 . S
C64 C63 1.409 . S
C64 H66 0.951 . S
C65 C60 1.491 . S
C65 C67 1.382 . S
C65 C69 1.404 . S
H66 C64 0.951 . S
C67 C65 1.382 . S
C67 C68 1.390 . S
C67 H72 0.949 . S
C68 C67 1.390 . S
C68 C73 1.399 . S
C69 C65 1.404 . S
C69 H70 0.950 . S
C69 C71 1.375 . S
H70 C69 0.950 . S
C71 C69 1.375 . S
C71 C73 1.382 . S
C71 H75 0.950 . S
H72 C67 0.949 . S
C73 C68 1.399 . S
C73 C71 1.382 . S
C73 H74 0.952 . S
H74 C73 0.952 . S
H75 C71 0.950 . S
O76 Mg77 1.990 . S
O76 C90 1.253 1_455 S
Mg77 O76 1.990 . S
Mg77 O80 2.180 . S
Mg77 O81 2.117 . S
Mg77 O95 2.030 . S
O78 Mg79 2.072 1_655 S
O78 C90 1.260 . S
Mg79 O78 2.072 1_455 S
Mg79 O80 2.099 . S
Mg79 O82 2.079 1_545 S
Mg79 O83 2.072 1_455 S
Mg79 O85 2.099 1_445 S
Mg79 O96 2.079 1_545 S
O80 Mg77 2.180 . S
O80 Mg79 2.099 . S
O80 C91 1.279 . S
O81 Mg77 2.117 . S
O81 C91 1.250 . S
O82 Mg79 2.079 1_565 S
O82 C92 1.264 . S
O83 Mg79 2.072 1_655 S
O83 C93 1.260 . S
Mg84 O85 2.180 . S
Mg84 O86 2.030 1_655 S
Mg84 O87 1.990 1_565 S
Mg84 O88 2.117 . S
O85 Mg79 2.099 1_665 S
O85 Mg84 2.180 . S
O85 C94 1.279 . S
O86 Mg84 2.030 1_455 S
O86 C92 1.248 . S
O87 Mg84 1.990 1_545 S
O87 C93 1.253 . S
O88 Mg84 2.117 . S
O88 C94 1.250 . S
C89 O95 1.248 1_565 S
C89 O96 1.264 . S
C90 O76 1.253 1_655 S
C90 O78 1.260 . S
C91 O80 1.279 . S
C91 O81 1.250 . S
C92 O82 1.264 . S
C92 O86 1.248 . S
C93 O83 1.260 . S
C93 O87 1.253 . S
C94 O85 1.279 . S
C94 O88 1.250 . S
O95 Mg77 2.030 . S
O95 C89 1.248 1_545 S
O96 Mg79 2.079 1_565 S
O96 C89 1.264 . S
O97 Mg98 1.990 . S
O97 C111 1.253 . S
Mg98 O97 1.990 . S
Mg98 O101 2.180 . S
Mg98 O102 2.117 . S
Mg98 O116 2.030 . S
O99 Mg100 2.072 . S
O99 C111 1.260 . S
Mg100 O99 2.072 . S
Mg100 O101 2.099 . S
Mg100 O103 2.079 1_554 S
Mg100 O104 2.072 1_554 S
Mg100 O106 2.099 . S
Mg100 O117 2.079 . S
O101 Mg98 2.180 . S
O101 Mg100 2.099 . S
O101 C112 1.279 . S
O102 Mg98 2.117 . S
O102 C112 1.250 . S
O103 Mg100 2.079 1_556 S
O103 C113 1.264 . S
O104 Mg100 2.072 1_556 S
O104 C114 1.260 . S
Mg105 O106 2.180 1_556 S
Mg105 O107 2.030 . S
Mg105 O108 1.990 . S
Mg105 O109 2.117 . S
O106 Mg100 2.099 . S
O106 Mg105 2.180 1_554 S
O106 C115 1.279 . S
O107 Mg105 2.030 . S
O107 C113 1.248 . S
O108 Mg105 1.990 . S
O108 C114 1.253 . S
O109 Mg105 2.117 . S
O109 C115 1.250 1_556 S
C110 O116 1.248 . S
C110 O117 1.264 . S
C111 O97 1.253 . S
C111 O99 1.260 . S
C112 O101 1.279 . S
C112 O102 1.250 . S
C113 O103 1.264 . S
C113 O107 1.248 . S
C114 O104 1.260 . S
C114 O108 1.253 . S
C115 O106 1.279 . S
C115 O109 1.250 1_554 S
O116 Mg98 2.030 . S
O116 C110 1.248 . S
O117 Mg100 2.079 . S
O117 C110 1.264 . S
H118 C130 0.930 . S
H119 C132 0.930 . S
H120 C133 0.930 . S
H121 C137 0.959 . S
H122 C137 0.959 . S
H123 C137 0.961 . S
H124 C138 0.960 . S
H125 C138 0.961 . S
H126 C138 0.959 . S
H127 C141 0.929 . S
H128 C142 0.931 . S
H129 C144 0.930 . S
C130 H118 0.930 . S
C130 C131 1.399 . S
C130 C135 1.399 . S
C131 C130 1.399 . S
C131 C132 1.376 . S
C132 H119 0.930 . S
C132 C131 1.376 . S
C132 C133 1.388 . S
C133 H120 0.930 . S
C133 C132 1.388 . S
C133 C134 1.390 . S
C134 C133 1.390 . S
C134 C135 1.394 . S
C134 C140 1.465 . S
C135 C130 1.399 . S
C135 C134 1.394 . S
C135 C136 1.516 . S
C136 C135 1.516 . S
C136 C137 1.502 . S
C136 C138 1.561 . S
C136 C139 1.526 . S
C137 H121 0.959 . S
C137 H122 0.959 . S
C137 H123 0.961 . S
C137 C136 1.502 . S
C138 H124 0.960 . S
C138 H125 0.961 . S
C138 H126 0.959 . S
C138 C136 1.561 . S
C139 C136 1.526 . S
C139 C140 1.396 . S
C139 C144 1.390 . S
C140 C134 1.465 . S
C140 C139 1.396 . S
C140 C141 1.399 . S
C141 H127 0.929 . S
C141 C140 1.399 . S
C141 C142 1.385 . S
C142 H128 0.931 . S
C142 C141 1.385 . S
C142 C143 1.389 . S
C143 C142 1.389 . S
C143 C144 1.387 . S
C144 H129 0.930 . S
C144 C139 1.390 . S
C144 C143 1.387 . S
H145 C157 0.930 . S
H146 C159 0.930 . S
H147 C160 0.930 . S
H148 C164 0.959 . S
H149 C164 0.959 . S
H150 C164 0.961 . S
H151 C165 0.960 . S
H152 C165 0.961 . S
H153 C165 0.959 . S
H154 C168 0.929 . S
H155 C169 0.931 . S
H156 C171 0.930 . S
C157 H145 0.930 . S
C157 C158 1.399 . S
C157 C162 1.399 . S
C158 C157 1.399 . S
C158 C159 1.376 . S
C159 H146 0.930 . S
C159 C158 1.376 . S
C159 C160 1.388 . S
C160 H147 0.930 . S
C160 C159 1.388 . S
C160 C161 1.390 . S
C161 C160 1.390 . S
C161 C162 1.394 . S
C161 C167 1.465 . S
C162 C157 1.399 . S
C162 C161 1.394 . S
C162 C163 1.516 . S
C163 C162 1.516 . S
C163 C164 1.502 . S
C163 C165 1.561 . S
C163 C166 1.526 . S
C164 H148 0.959 . S
C164 H149 0.959 . S
C164 H150 0.961 . S
C164 C163 1.502 . S
C165 H151 0.960 . S
C165 H152 0.961 . S
C165 H153 0.959 . S
C165 C163 1.561 . S
C166 C163 1.526 . S
C166 C167 1.396 . S
C166 C171 1.390 . S
C167 C161 1.465 . S
C167 C166 1.396 . S
C167 C168 1.399 . S
C168 H154 0.929 . S
C168 C167 1.399 . S
C168 C169 1.385 . S
C169 H155 0.931 . S
C169 C168 1.385 . S
C169 C170 1.389 . S
C170 C169 1.389 . S
C170 C171 1.387 . S
C171 H156 0.930 . S
C171 C166 1.390 . S
C171 C170 1.387 . S
H172 C184 0.930 . S
H173 C186 0.930 . S
H174 C187 0.930 . S
H175 C191 0.959 . S
H176 C191 0.959 . S
H177 C191 0.961 . S
H178 C192 0.960 . S
H179 C192 0.961 . S
H180 C192 0.959 . S
H181 C195 0.929 . S
H182 C196 0.931 . S
H183 C198 0.930 . S
C184 H172 0.930 . S
C184 C185 1.399 . S
C184 C189 1.399 . S
C185 C184 1.399 . S
C185 C186 1.376 . S
C186 H173 0.930 . S
C186 C185 1.376 . S
C186 C187 1.388 . S
C187 H174 0.930 . S
C187 C186 1.388 . S
C187 C188 1.390 . S
C188 C187 1.390 . S
C188 C189 1.394 . S
C188 C194 1.465 . S
C189 C184 1.399 . S
C189 C188 1.394 . S
C189 C190 1.516 . S
C190 C189 1.516 . S
C190 C191 1.502 . S
C190 C192 1.561 . S
C190 C193 1.526 . S
C191 H175 0.959 . S
C191 H176 0.959 . S
C191 H177 0.961 . S
C191 C190 1.502 . S
C192 H178 0.960 . S
C192 H179 0.961 . S
C192 H180 0.959 . S
C192 C190 1.561 . S
C193 C190 1.526 . S
C193 C194 1.396 . S
C193 C198 1.390 . S
C194 C188 1.465 . S
C194 C193 1.396 . S
C194 C195 1.399 . S
C195 H181 0.929 . S
C195 C194 1.399 . S
C195 C196 1.385 . S
C196 H182 0.931 . S
C196 C195 1.385 . S
C196 C197 1.389 . S
C197 C196 1.389 . S
C197 C198 1.387 . S
C198 H183 0.930 . S
C198 C193 1.390 . S
C198 C197 1.387 . S
H199 C211 0.930 . S
H200 C213 0.930 . S
H201 C214 0.930 . S
H202 C218 0.959 . S
H203 C218 0.959 . S
H204 C218 0.961 . S
H205 C219 0.960 . S
H206 C219 0.961 . S
H207 C219 0.959 . S
H208 C222 0.929 . S
H209 C223 0.931 . S
H210 C225 0.930 . S
C211 H199 0.930 . S
C211 C212 1.399 . S
C211 C216 1.399 . S
C212 C211 1.399 . S
C212 C213 1.376 1_554 S
C213 H200 0.930 . S
C213 C212 1.376 1_556 S
C213 C214 1.388 . S
C214 H201 0.930 . S
C214 C213 1.388 . S
C214 C215 1.390 . S
C215 C214 1.390 . S
C215 C216 1.394 1_556 S
C215 C221 1.465 . S
C216 C211 1.399 . S
C216 C215 1.394 1_554 S
C216 C217 1.516 . S
C217 C216 1.516 . S
C217 C218 1.502 . S
C217 C219 1.561 . S
C217 C220 1.526 . S
C218 H202 0.959 . S
C218 H203 0.959 . S
C218 H204 0.961 . S
C218 C217 1.502 . S
C219 H205 0.960 . S
C219 H206 0.961 . S
C219 H207 0.959 . S
C219 C217 1.561 . S
C220 C217 1.526 . S
C220 C221 1.396 1_554 S
C220 C225 1.390 . S
C221 C215 1.465 . S
C221 C220 1.396 1_556 S
C221 C222 1.399 . S
C222 H208 0.929 . S
C222 C221 1.399 . S
C222 C223 1.385 . S
C223 H209 0.931 . S
C223 C222 1.385 . S
C223 C224 1.389 1_556 S
C224 C223 1.389 1_554 S
C224 C225 1.387 . S
C225 H210 0.930 . S
C225 C220 1.390 . S
C225 C224 1.387 . S
H226 C238 0.930 . S
H227 C240 0.930 . S
H228 C241 0.930 . S
H229 C245 0.959 . S
H230 C245 0.959 1_545 S
H231 C245 0.961 . S
H232 C246 0.960 . S
H233 C246 0.961 . S
H234 C246 0.959 . S
H235 C249 0.929 . S
H236 C250 0.931 . S
H237 C252 0.930 . S
C238 H226 0.930 . S
C238 C239 1.399 . S
C238 C243 1.399 . S
C239 C238 1.399 . S
C239 C240 1.376 . S
C240 H227 0.930 . S
C240 C239 1.376 . S
C240 C241 1.388 . S
C241 H228 0.930 . S
C241 C240 1.388 . S
C241 C242 1.390 . S
C242 C241 1.390 . S
C242 C243 1.394 . S
C242 C248 1.465 . S
C243 C238 1.399 . S
C243 C242 1.394 . S
C243 C244 1.516 . S
C244 C243 1.516 . S
C244 C245 1.502 . S
C244 C246 1.561 . S
C244 C247 1.526 . S
C245 H229 0.959 . S
C245 H230 0.959 1_565 S
C245 H231 0.961 . S
C245 C244 1.502 . S
C246 H232 0.960 . S
C246 H233 0.961 . S
C246 H234 0.959 . S
C246 C244 1.561 . S
C247 C244 1.526 . S
C247 C248 1.396 . S
C247 C252 1.390 . S
C248 C242 1.465 . S
C248 C247 1.396 . S
C248 C249 1.399 . S
C249 H235 0.929 . S
C249 C248 1.399 . S
C249 C250 1.385 . S
C250 H236 0.931 . S
C250 C249 1.385 . S
C250 C251 1.389 . S
C251 C250 1.389 . S
C251 C252 1.387 . S
C252 H237 0.930 . S
C252 C247 1.390 . S
C252 C251 1.387 . S
H253 C265 0.930 . S
H254 C267 0.930 . S
H255 C268 0.930 . S
H256 C272 0.959 . S
H257 C272 0.959 . S
H258 C272 0.961 . S
H259 C273 0.960 . S
H260 C273 0.961 . S
H261 C273 0.959 . S
H262 C276 0.929 . S
H263 C277 0.931 . S
H264 C279 0.930 . S
C265 H253 0.930 . S
C265 C266 1.399 . S
C265 C270 1.399 . S
C266 C265 1.399 . S
C266 C267 1.376 . S
C267 H254 0.930 . S
C267 C266 1.376 . S
C267 C268 1.388 . S
C268 H255 0.930 . S
C268 C267 1.388 . S
C268 C269 1.390 . S
C269 C268 1.390 . S
C269 C270 1.394 . S
C269 C275 1.465 . S
C270 C265 1.399 . S
C270 C269 1.394 . S
C270 C271 1.516 . S
C271 C270 1.516 . S
C271 C272 1.502 . S
C271 C273 1.561 . S
C271 C274 1.526 . S
C272 H256 0.959 . S
C272 H257 0.959 . S
C272 H258 0.961 . S
C272 C271 1.502 . S
C273 H259 0.960 . S
C273 H260 0.961 . S
C273 H261 0.959 . S
C273 C271 1.561 . S
C274 C271 1.526 . S
C274 C275 1.396 . S
C274 C279 1.390 . S
C275 C269 1.465 . S
C275 C274 1.396 . S
C275 C276 1.399 . S
C276 H262 0.929 . S
C276 C275 1.399 . S
C276 C277 1.385 . S
C277 H263 0.931 . S
C277 C276 1.385 . S
C277 C278 1.389 . S
C278 C277 1.389 . S
C278 C279 1.387 . S
C279 H264 0.930 . S
C279 C274 1.390 . S
C279 C278 1.387 . S
H280 C292 0.930 . S
H281 C294 0.930 . S
H282 C295 0.930 . S
H283 C299 0.959 . S
H284 C299 0.959 . S
H285 C299 0.961 . S
H286 C300 0.960 . S
H287 C300 0.961 . S
H288 C300 0.959 . S
H289 C303 0.929 . S
H290 C304 0.931 . S
H291 C306 0.930 . S
C292 H280 0.930 . S
C292 C293 1.399 . S
C292 C297 1.399 . S
C293 C292 1.399 . S
C293 C294 1.376 . S
C294 H281 0.930 . S
C294 C293 1.376 . S
C294 C295 1.388 . S
C295 H282 0.930 . S
C295 C294 1.388 . S
C295 C296 1.390 . S
C296 C295 1.390 . S
C296 C297 1.394 . S
C296 C302 1.465 . S
C297 C292 1.399 . S
C297 C296 1.394 . S
C297 C298 1.516 . S
C298 C297 1.516 . S
C298 C299 1.502 . S
C298 C300 1.561 . S
C298 C301 1.526 . S
C299 H283 0.959 . S
C299 H284 0.959 . S
C299 H285 0.961 . S
C299 C298 1.502 . S
C300 H286 0.960 . S
C300 H287 0.961 . S
C300 H288 0.959 . S
C300 C298 1.561 . S
C301 C298 1.526 . S
C301 C302 1.396 . S
C301 C306 1.390 . S
C302 C296 1.465 . S
C302 C301 1.396 . S
C302 C303 1.399 . S
C303 H289 0.929 . S
C303 C302 1.399 . S
C303 C304 1.385 . S
C304 H290 0.931 . S
C304 C303 1.385 . S
C304 C305 1.389 . S
C305 C304 1.389 . S
C305 C306 1.387 . S
C306 H291 0.930 . S
C306 C301 1.390 . S
C306 C305 1.387 . S
H307 C319 0.930 . S
H308 C321 0.930 . S
H309 C322 0.930 . S
H310 C326 0.959 . S
H311 C326 0.959 . S
H312 C326 0.961 . S
H313 C327 0.960 . S
H314 C327 0.961 . S
H315 C327 0.959 . S
H316 C330 0.929 . S
H317 C331 0.931 . S
H318 C333 0.930 . S
C319 H307 0.930 . S
C319 C320 1.399 . S
C319 C324 1.399 . S
C320 C319 1.399 . S
C320 C321 1.376 . S
C321 H308 0.930 . S
C321 C320 1.376 . S
C321 C322 1.388 . S
C322 H309 0.930 . S
C322 C321 1.388 . S
C322 C323 1.390 . S
C323 C322 1.390 . S
C323 C324 1.394 . S
C323 C329 1.465 . S
C324 C319 1.399 . S
C324 C323 1.394 . S
C324 C325 1.516 . S
C325 C324 1.516 . S
C325 C326 1.502 . S
C325 C327 1.561 . S
C325 C328 1.526 . S
C326 H310 0.959 . S
C326 H311 0.959 . S
C326 H312 0.961 . S
C326 C325 1.502 . S
C327 H313 0.960 . S
C327 H314 0.961 . S
C327 H315 0.959 . S
C327 C325 1.561 . S
C328 C325 1.526 . S
C328 C329 1.396 . S
C328 C333 1.390 . S
C329 C323 1.465 . S
C329 C328 1.396 . S
C329 C330 1.399 . S
C330 H316 0.929 . S
C330 C329 1.399 . S
C330 C331 1.385 . S
C331 H317 0.931 . S
C331 C330 1.385 . S
C331 C332 1.389 . S
C332 C331 1.389 . S
C332 C333 1.387 . S
C333 H318 0.930 . S
C333 C328 1.390 . S
C333 C332 1.387 . S
H334 C346 0.930 . S
H335 C348 0.930 . S
H336 C349 0.930 . S
H337 C353 0.959 . S
H338 C353 0.959 . S
H339 C353 0.961 . S
H340 C354 0.960 . S
H341 C354 0.961 . S
H342 C354 0.959 . S
H343 C357 0.929 . S
H344 C358 0.931 . S
H345 C360 0.930 . S
C346 H334 0.930 . S
C346 C347 1.399 . S
C346 C351 1.399 . S
C347 C346 1.399 . S
C347 C348 1.376 . S
C348 H335 0.930 . S
C348 C347 1.376 . S
C348 C349 1.388 . S
C349 H336 0.930 . S
C349 C348 1.388 . S
C349 C350 1.390 . S
C350 C349 1.390 . S
C350 C351 1.394 . S
C350 C356 1.465 . S
C351 C346 1.399 . S
C351 C350 1.394 . S
C351 C352 1.516 . S
C352 C351 1.516 . S
C352 C353 1.502 . S
C352 C354 1.561 . S
C352 C355 1.526 . S
C353 H337 0.959 . S
C353 H338 0.959 . S
C353 H339 0.961 . S
C353 C352 1.502 . S
C354 H340 0.960 . S
C354 H341 0.961 . S
C354 H342 0.959 . S
C354 C352 1.561 . S
C355 C352 1.526 . S
C355 C356 1.396 . S
C355 C360 1.390 . S
C356 C350 1.465 . S
C356 C355 1.396 . S
C356 C357 1.399 . S
C357 H343 0.929 . S
C357 C356 1.399 . S
C357 C358 1.385 . S
C358 H344 0.931 . S
C358 C357 1.385 . S
C358 C359 1.389 . S
C359 C358 1.389 . S
C359 C360 1.387 . S
C360 H345 0.930 . S
C360 C355 1.390 . S
C360 C359 1.387 . S
H361 C373 0.930 . S
H362 C375 0.930 . S
H363 C376 0.930 . S
H364 C380 0.959 . S
H365 C380 0.959 . S
H366 C380 0.961 . S
H367 C381 0.960 . S
H368 C381 0.961 . S
H369 C381 0.959 . S
H370 C384 0.929 . S
H371 C385 0.931 . S
H372 C387 0.930 . S
C373 H361 0.930 . S
C373 C374 1.399 . S
C373 C378 1.399 . S
C374 C373 1.399 . S
C374 C375 1.376 . S
C375 H362 0.930 . S
C375 C374 1.376 . S
C375 C376 1.388 . S
C376 H363 0.930 . S
C376 C375 1.388 . S
C376 C377 1.390 . S
C377 C376 1.390 . S
C377 C378 1.394 . S
C377 C383 1.465 . S
C378 C373 1.399 . S
C378 C377 1.394 . S
C378 C379 1.516 . S
C379 C378 1.516 . S
C379 C380 1.502 . S
C379 C381 1.561 . S
C379 C382 1.526 . S
C380 H364 0.959 . S
C380 H365 0.959 . S
C380 H366 0.961 . S
C380 C379 1.502 . S
C381 H367 0.960 . S
C381 H368 0.961 . S
C381 H369 0.959 . S
C381 C379 1.561 . S
C382 C379 1.526 . S
C382 C383 1.396 . S
C382 C387 1.390 . S
C383 C377 1.465 . S
C383 C382 1.396 . S
C383 C384 1.399 . S
C384 H370 0.929 . S
C384 C383 1.399 . S
C384 C385 1.385 . S
C385 H371 0.931 . S
C385 C384 1.385 . S
C385 C386 1.389 . S
C386 C385 1.389 . S
C386 C387 1.387 . S
C387 H372 0.930 . S
C387 C382 1.390 . S
C387 C386 1.387 . S
H388 C400 0.930 . S
H389 C402 0.930 . S
H390 C403 0.930 . S
H391 C407 0.959 . S
H392 C407 0.959 . S
H393 C407 0.961 . S
H394 C408 0.960 . S
H395 C408 0.961 . S
H396 C408 0.959 . S
H397 C411 0.929 . S
H398 C412 0.931 . S
H399 C414 0.930 . S
C400 H388 0.930 . S
C400 C401 1.399 . S
C400 C405 1.399 . S
C401 C400 1.399 . S
C401 C402 1.376 . S
C402 H389 0.930 . S
C402 C401 1.376 . S
C402 C403 1.388 . S
C403 H390 0.930 . S
C403 C402 1.388 . S
C403 C404 1.390 . S
C404 C403 1.390 . S
C404 C405 1.394 . S
C404 C410 1.465 . S
C405 C400 1.399 . S
C405 C404 1.394 . S
C405 C406 1.516 . S
C406 C405 1.516 . S
C406 C407 1.502 . S
C406 C408 1.561 . S
C406 C409 1.526 . S
C407 H391 0.959 . S
C407 H392 0.959 . S
C407 H393 0.961 . S
C407 C406 1.502 . S
C408 H394 0.960 . S
C408 H395 0.961 . S
C408 H396 0.959 . S
C408 C406 1.561 . S
C409 C406 1.526 . S
C409 C410 1.396 . S
C409 C414 1.390 . S
C410 C404 1.465 . S
C410 C409 1.396 . S
C410 C411 1.399 . S
C411 H397 0.929 . S
C411 C410 1.399 . S
C411 C412 1.385 . S
C412 H398 0.931 . S
C412 C411 1.385 . S
C412 C413 1.389 . S
C413 C412 1.389 . S
C413 C414 1.387 . S
C414 H399 0.930 . S
C414 C409 1.390 . S
C414 C413 1.387 . S
H415 C427 0.930 . S
H416 C429 0.930 . S
H417 C430 0.930 . S
H418 C434 0.959 . S
H419 C434 0.959 . S
H420 C434 0.961 . S
H421 C435 0.960 . S
H422 C435 0.961 . S
H423 C435 0.959 . S
H424 C438 0.929 . S
H425 C439 0.931 . S
H426 C441 0.930 . S
C427 H415 0.930 . S
C427 C428 1.399 . S
C427 C432 1.399 . S
C428 C427 1.399 . S
C428 C429 1.376 . S
C429 H416 0.930 . S
C429 C428 1.376 . S
C429 C430 1.388 . S
C430 H417 0.930 . S
C430 C429 1.388 . S
C430 C431 1.390 . S
C431 C430 1.390 . S
C431 C432 1.394 . S
C431 C437 1.465 . S
C432 C427 1.399 . S
C432 C431 1.394 . S
C432 C433 1.516 . S
C433 C432 1.516 . S
C433 C434 1.502 . S
C433 C435 1.561 . S
C433 C436 1.526 . S
C434 H418 0.959 . S
C434 H419 0.959 . S
C434 H420 0.961 . S
C434 C433 1.502 . S
C435 H421 0.960 . S
C435 H422 0.961 . S
C435 H423 0.959 . S
C435 C433 1.561 . S
C436 C433 1.526 . S
C436 C437 1.396 . S
C436 C441 1.390 . S
C437 C431 1.465 . S
C437 C436 1.396 . S
C437 C438 1.399 . S
C438 H424 0.929 . S
C438 C437 1.399 . S
C438 C439 1.385 . S
C439 H425 0.931 . S
C439 C438 1.385 . S
C439 C440 1.389 . S
C440 C439 1.389 . S
C440 C441 1.387 . S
C441 H426 0.930 . S
C441 C436 1.390 . S
C441 C440 1.387 . S
C143 C91 1.301 . S
C131 C68 1.335 . S
C158 C11 1.306 . S
C170 C115 1.291 . S
C185 C30 1.560 . S
C197 C94 1.470 . S
C212 C49 1.521 1_554 S
C224 C112 1.467 . S
C251 C92 1.543 . S
C239 C2 1.554 . S
C278 C114 1.578 . S
C266 C25 1.655 . S
C293 C40 1.633 . S
C305 C93 1.564 . S
C320 C59 1.518 . S
C332 C113 1.478 . S
C359 C111 1.528 . S
C347 C21 1.516 . S
C386 C90 1.519 . S
C374 C44 1.559 . S
C413 C110 1.475 . S
C401 C63 1.486 . S
C428 C6 1.486 1_556 S
C440 C89 1.402 . S
