# Generated by pormake.
# Topology anh, (6,3)-cn, num edge types: 1
# Building blocks:
#     Node 0, Type 0, BuildingBlock: INOVEN_clean_sbu_0, # of connection points: 6
#     Node 1, Type 0, BuildingBlock: INOVEN_clean_sbu_0, # of connection points: 6
#     Node 2, Type 0, BuildingBlock: INOVEN_clean_sbu_0, # of connection points: 6
#     Node 3, Type 1, BuildingBlock: ESEHIV_clean_linker_0, # of connection points: 3
#     Node 4, Type 1, BuildingBlock: ESEHIV_clean_linker_0, # of connection points: 3
#     Node 5, Type 1, BuildingBlock: ESEHIV_clean_linker_0, # of connection points: 3
#     Node 6, Type 1, BuildingBlock: ESEHIV_clean_linker_0, # of connection points: 3
#     Node 7, Type 1, BuildingBlock: ESEHIV_clean_linker_0, # of connection points: 3
#     Node 8, Type 1, BuildingBlock: ESEHIV_clean_linker_0, # of connection points: 3
#     Edge 9, Type (0, 1), BuildingBlock: CIFDUS_clean_linker_0, # of connection points: 2
#     Edge 10, Type (0, 1), BuildingBlock: CIFDUS_clean_linker_0, # of connection points: 2
#     Edge 11, Type (0, 1), BuildingBlock: CIFDUS_clean_linker_0, # of connection points: 2
#     Edge 12, Type (0, 1), BuildingBlock: CIFDUS_clean_linker_0, # of connection points: 2
#     Edge 13, Type (0, 1), BuildingBlock: CIFDUS_clean_linker_0, # of connection points: 2
#     Edge 14, Type (0, 1), BuildingBlock: CIFDUS_clean_linker_0, # of connection points: 2
#     Edge 15, Type (0, 1), BuildingBlock: CIFDUS_clean_linker_0, # of connection points: 2
#     Edge 16, Type (0, 1), BuildingBlock: CIFDUS_clean_linker_0, # of connection points: 2
#     Edge 17, Type (0, 1), BuildingBlock: CIFDUS_clean_linker_0, # of connection points: 2
#     Edge 18, Type (0, 1), BuildingBlock: CIFDUS_clean_linker_0, # of connection points: 2
#     Edge 19, Type (0, 1), BuildingBlock: CIFDUS_clean_linker_0, # of connection points: 2
#     Edge 20, Type (0, 1), BuildingBlock: CIFDUS_clean_linker_0, # of connection points: 2
#     Edge 21, Type (0, 1), BuildingBlock: CIFDUS_clean_linker_0, # of connection points: 2
#     Edge 22, Type (0, 1), BuildingBlock: CIFDUS_clean_linker_0, # of connection points: 2
#     Edge 23, Type (0, 1), BuildingBlock: CIFDUS_clean_linker_0, # of connection points: 2
#     Edge 24, Type (0, 1), BuildingBlock: CIFDUS_clean_linker_0, # of connection points: 2
#     Edge 25, Type (0, 1), BuildingBlock: CIFDUS_clean_linker_0, # of connection points: 2
#     Edge 26, Type (0, 1), BuildingBlock: CIFDUS_clean_linker_0, # of connection points: 2
# Relax obj value: 0.235
# Max RMSD: 0.242
# Mean RMSD: 0.173
data_MOF--net-anh--node1-INOVEN_clean_sbu_0--node2-ESEHIV_clean_linker_0--edge1-CIFDUS_clean_linker_0
_symmetry_space_group_name_H-M    P1
_symmetry_Int_Tables_number       1
_symmetry_cell_setting            triclinic
loop_
_symmetry_equiv_pos_as_xyz
'x, y, z'
_cell_length_a     26.479562
_cell_length_b     31.242504
_cell_length_c     45.264285
_cell_angle_alpha  92.348924
_cell_angle_beta   89.775006
_cell_angle_gamma 131.45597
loop_
_atom_site_label
_atom_site_type_symbol
_atom_site_fract_x
_atom_site_fract_y
_atom_site_fract_z
_atom_type_partial_charge
Gd0 Gd 0.16978 0.56102 0.15198 0.0
Gd1 Gd 0.07687 0.58102 0.16059 0.0
C2 C 0.23514 0.69441 0.15663 0.0
C3 C 0.25998 0.55606 0.13789 0.0
C4 C 0.32892 0.58959 0.1276 0.0
C5 C 0.37339 0.5902 0.14455 0.0
C6 C 0.34877 0.61465 0.10009 0.0
C7 C 0.44979 0.62724 0.10368 0.0
C8 C 0.40944 0.6341 0.08836 0.0
C9 C 0.43321 0.60889 0.13283 0.0
C10 C 0.13074 0.5518 0.20832 0.0
C11 C 1.01201 0.44987 0.1561 0.0
C12 C 1.00139 0.59709 0.18376 0.0
C13 C 0.93143 0.55274 0.19287 0.0
C14 C 0.88302 0.55643 0.18597 0.0
C15 C 0.91069 0.50202 0.20419 0.0
C16 C 0.794 0.4556 0.19524 0.0
C17 C 0.84238 0.45363 0.20515 0.0
C18 C 0.81456 0.50819 0.1874 0.0
C19 C 0.08431 0.55627 0.10302 0.0
O20 O 0.24699 0.65922 0.15407 0.0
O21 O 0.17251 0.67389 0.15817 0.0
O22 O 0.25418 0.56927 0.16468 0.0
O23 O 0.2126 0.54153 0.11915 0.0
O24 O 0.13499 0.51669 0.19531 0.0
O25 O 0.14723 0.58928 0.19093 0.0
O26 O 1.00759 0.4861 0.16881 0.0
O27 O 0.06873 0.46999 0.1432 0.0
O28 O 1.01066 0.5987 0.15522 0.0
O29 O 1.04602 0.60093 0.19909 0.0
O30 O 1.02884 0.53699 0.11544 0.0
O31 O 0.13308 0.58879 0.12138 0.0
H32 H 0.35928 0.57166 0.16602 0.0
H33 H 0.31573 0.61587 0.0869 0.0
H34 H 0.42166 0.64986 0.06629 0.0
H35 H 0.46199 0.60256 0.14567 0.0
H36 H 0.89793 0.59504 0.17727 0.0
H37 H 0.94709 0.49821 0.2101 0.0
H38 H 0.8276 0.41352 0.2111 0.0
H39 H 0.77801 0.51046 0.17923 0.0
Gd40 Gd 0.67992 0.05008 0.46717 0.0
Gd41 Gd 0.59597 0.0781 0.45959 0.0
C42 C 0.51817 0.94568 0.4567 0.0
C43 C 0.73403 1.00925 0.48298 0.0
C44 C 0.71324 0.95743 0.49621 0.0
C45 C 0.72026 0.92239 0.4801 0.0
C46 C 0.68824 0.94314 0.52493 0.0
C47 C 0.67891 0.8601 0.52132 0.0
C48 C 0.6714 0.89505 0.53736 0.0
C49 C 0.70301 0.87411 0.49243 0.0
C50 C 0.67783 0.07585 0.41121 0.0
C51 C 0.76148 0.18378 0.46667 0.0
C52 C 0.54238 0.12081 0.44702 0.0
C53 C 0.54279 0.16327 0.46285 0.0
C54 C 0.53518 0.16218 0.49363 0.0
C55 C 0.55299 0.20639 0.44744 0.0
C56 C 0.54674 0.24612 0.49329 0.0
C57 C 0.55526 0.24769 0.46255 0.0
C58 C 0.53669 0.20294 0.50864 0.0
C59 C 0.60458 0.05878 0.51664 0.0
O60 O 0.57378 0.96345 0.47028 0.0
O61 O 0.51725 0.98358 0.4454 0.0
O62 O 0.71137 1.00271 0.45606 0.0
O63 O 0.73399 0.04416 0.49994 0.0
O64 O 0.7307 0.09123 0.42505 0.0
O65 O 0.62654 0.04509 0.42707 0.0
O66 O 0.70224 0.16777 0.45964 0.0
O67 O 0.76525 0.1452 0.4734 0.0
O68 O 0.50975 0.07205 0.45939 0.0
O69 O 0.59997 0.14016 0.43669 0.0
O70 O 0.55145 0.04499 0.50426 0.0
O71 O 0.65246 0.0862 0.49906 0.0
H72 H 0.73943 0.93251 0.45792 0.0
H73 H 0.6823 0.96935 0.53796 0.0
H74 H 0.65377 0.88595 0.55977 0.0
H75 H 0.70833 0.84764 0.47926 0.0
H76 H 0.5284 0.12999 0.50619 0.0
H77 H 0.55946 0.20823 0.42374 0.0
H78 H 0.56288 0.28044 0.45019 0.0
H79 H 0.53104 0.20123 0.53239 0.0
Gd80 Gd 0.60316 0.574 0.85708 0.0
Gd81 Gd 0.50602 0.44985 0.84734 0.0
C82 C 0.43365 0.50779 0.85666 0.0
C83 C 0.67109 0.68153 0.84906 0.0
C84 C 0.65859 0.71846 0.83832 0.0
C85 C 0.65184 0.74992 0.85835 0.0
C86 C 0.657 0.72509 0.80783 0.0
C87 C 0.64244 0.79381 0.81767 0.0
C88 C 0.64892 0.76207 0.79768 0.0
C89 C 0.6437 0.78697 0.84817 0.0
C90 C 0.56755 0.51571 0.90592 0.0
C91 C 0.67701 0.51777 0.8556 0.0
C92 C 0.44601 0.34271 0.8483 0.0
C93 C 0.46426 0.31018 0.83537 0.0
C94 C 0.48605 0.31793 0.80615 0.0
C95 C 0.4632 0.27315 0.85255 0.0
C96 C 0.50625 0.25278 0.81158 0.0
C97 C 0.48392 0.24472 0.84081 0.0
C98 C 0.50627 0.28939 0.79439 0.0
C99 C 0.54227 0.50449 0.79661 0.0
O100 O 0.49945 0.55623 0.85577 0.0
O101 O 0.42271 0.45867 0.85585 0.0
O102 O 0.64773 0.65892 0.87476 0.0
O103 O 0.66482 0.64626 0.8294 0.0
O104 O 0.62913 0.56247 0.90165 0.0
O105 O 0.52848 0.50467 0.8852 0.0
O106 O 0.61166 0.46873 0.85084 0.0
O107 O 0.68656 0.56596 0.85855 0.0
O108 O 0.4294 0.3627 0.82957 0.0
O109 O 0.48515 0.3797 0.8701 0.0
O110 O 0.48194 0.45782 0.80174 0.0
O111 O 0.58159 0.51875 0.81819 0.0
H112 H 0.65343 0.74633 0.88196 0.0
H113 H 0.66299 0.70231 0.79166 0.0
H114 H 0.64946 0.7668 0.77409 0.0
H115 H 0.63821 0.81015 0.86427 0.0
H116 H 0.48807 0.3465 0.79233 0.0
H117 H 0.44725 0.26684 0.87523 0.0
H118 H 0.48379 0.21743 0.85486 0.0
H119 H 0.52175 0.296 0.77165 0.0
H120 H 0.53858 0.98419 0.23034 0.0
H121 H 0.71152 0.16406 0.23609 0.0
H122 H 0.62809 0.07519 0.15052 0.0
C123 C 0.57645 0.02374 0.21954 0.0
C124 C 0.57641 0.02283 0.18852 0.0
C125 C 0.62499 0.07396 0.23688 0.0
C126 C 0.67498 0.12483 0.22276 0.0
C127 C 0.67749 0.12659 0.19171 0.0
C128 C 0.62787 0.07476 0.17443 0.0
H129 H 0.62663 0.62354 0.62548 0.0
H130 H 0.58587 0.46591 0.61554 0.0
H131 H 0.64865 0.57049 0.54077 0.0
C132 C 0.62472 0.59326 0.61168 0.0
C133 C 0.64086 0.60328 0.58172 0.0
C134 C 0.60435 0.54355 0.62376 0.0
C135 C 0.60103 0.50397 0.60589 0.0
C136 C 0.61772 0.51348 0.57592 0.0
C137 C 0.63786 0.56351 0.56406 0.0
H138 H 0.97998 0.52291 0.92079 0.0
H139 H 0.13717 0.51713 0.9234 0.0
H140 H 1.04529 0.49841 0.83873 0.0
C141 C 1.01205 0.51921 0.90833 0.0
C142 C 1.00306 0.5118 0.87737 0.0
C143 C 1.05768 0.51915 0.92453 0.0
C144 C 0.10335 0.51688 0.90984 0.0
C145 C 0.10388 0.51013 0.87874 0.0
C146 C 1.04983 0.50551 0.86252 0.0
H147 H 1.03628 0.46367 0.39092 0.0
H148 H 0.21346 0.6409 0.38582 0.0
H149 H 0.11905 0.57539 0.46973 0.0
C150 C 0.07481 0.50548 0.40182 0.0
C151 C 0.07166 0.51283 0.43236 0.0
C152 C 0.12477 0.55137 0.38489 0.0
C153 C 0.17427 0.60561 0.39891 0.0
C154 C 0.17381 0.61542 0.42944 0.0
C155 C 0.12106 0.56865 0.44625 0.0
H156 H 0.56181 0.08202 0.70112 0.0
H157 H 0.59412 0.96487 0.68945 0.0
H158 H 0.57132 1.00902 0.77714 0.0
C159 C 0.56936 0.05527 0.71066 0.0
C160 C 0.56752 0.05077 0.74149 0.0
C161 C 0.57859 0.02429 0.69182 0.0
C162 C 0.58709 0.98878 0.70409 0.0
C163 C 0.5841 0.98238 0.73493 0.0
C164 C 0.57451 1.01389 0.75347 0.0
H165 H 0.57578 0.46905 0.03018 0.0
H166 H 0.52585 0.31737 0.06086 0.0
H167 H 0.54862 0.43947 0.12243 0.0
C168 C 0.56336 0.44217 0.04835 0.0
C169 C 0.56077 0.4589 0.07685 0.0
C170 C 0.54938 0.39089 0.0425 0.0
C171 C 0.53538 0.35645 0.06568 0.0
C172 C 0.53678 0.37429 0.0951 0.0
C173 C 0.54782 0.42499 0.10018 0.0
H174 H 0.56398 0.6513 0.12488 0.0
H175 H 0.4392 0.59248 0.04557 0.0
H176 H 0.47496 0.54255 0.02782 0.0
H177 H 0.51163 0.49241 0.04144 0.0
H178 H 0.62625 0.54071 0.1229 0.0
H179 H 0.62021 0.61446 0.13409 0.0
C180 C 0.54538 0.62829 0.10347 0.0
C181 C 0.49573 0.62311 0.08757 0.0
C182 C 0.56118 0.59496 0.0945 0.0
C183 C 0.47608 0.59654 0.05893 0.0
C184 C 0.49546 0.56669 0.04888 0.0
C185 C 0.53746 0.5202 0.06119 0.0
C186 C 0.56792 0.51002 0.08165 0.0
C187 C 0.53319 0.56181 0.0676 0.0
C188 C 0.60047 0.54634 0.10724 0.0
C189 C 0.59767 0.58892 0.11349 0.0
H190 H 0.78203 0.28388 0.46543 0.0
H191 H 0.88877 0.22335 0.46297 0.0
H192 H 0.99428 0.31978 0.45584 0.0
H193 H 1.05661 0.42087 0.44609 0.0
H194 H 0.95366 0.48422 0.44971 0.0
H195 H 0.84815 0.3888 0.46105 0.0
C196 C 0.82843 0.29182 0.46364 0.0
C197 C 0.8263 0.24529 0.46465 0.0
C198 C 0.89048 0.3486 0.4599 0.0
C199 C 0.88776 0.2574 0.4624 0.0
C200 C 0.94869 0.31296 0.45824 0.0
C201 C 1.01164 0.41429 0.45043 0.0
C202 C 1.01396 0.46048 0.44778 0.0
C203 C 0.95077 0.35887 0.45657 0.0
C204 C 0.95426 0.45029 0.45248 0.0
C205 C 0.89345 0.39524 0.45852 0.0
H206 H 0.57116 0.78033 0.76893 0.0
H207 H 0.69988 0.90022 0.84153 0.0
H208 H 0.69204 0.96808 0.82309 0.0
H209 H 0.65135 0.99502 0.78536 0.0
H210 H 0.52358 0.87488 0.71266 0.0
H211 H 0.5298 0.8066 0.73172 0.0
C212 C 0.59801 0.82144 0.78066 0.0
C213 C 0.63608 0.83477 0.80667 0.0
C214 C 0.59395 0.86073 0.76973 0.0
C215 C 0.66938 0.88811 0.82173 0.0
C216 C 0.66535 0.92728 0.81105 0.0
C217 C 0.62445 0.95374 0.7738 0.0
C218 C 0.58756 0.94063 0.74738 0.0
C219 C 0.62799 0.91421 0.78499 0.0
C220 C 0.55349 0.88689 0.73267 0.0
C221 C 0.55661 0.84749 0.74368 0.0
H222 H 0.67033 0.41651 0.21021 0.0
H223 H 0.77021 0.37915 0.15426 0.0
H224 H 0.67564 0.32557 0.11898 0.0
H225 H 0.59192 0.32528 0.09708 0.0
H226 H 0.49024 0.36256 0.15185 0.0
H227 H 0.55668 0.37834 0.19491 0.0
C228 C 0.66931 0.39373 0.19113 0.0
C229 C 0.72736 0.40272 0.18435 0.0
C230 C 0.61571 0.36483 0.17024 0.0
C231 C 0.72585 0.37275 0.15986 0.0
C232 C 0.67213 0.3428 0.13937 0.0
C233 C 0.58114 0.33374 0.11856 0.0
C234 C 0.54101 0.34825 0.12076 0.0
C235 C 0.62032 0.34369 0.14308 0.0
C236 C 0.52514 0.35572 0.14919 0.0
C237 C 0.56318 0.36484 0.17389 0.0
H238 H 0.37996 0.88541 0.45703 0.0
H239 H 0.5224 0.86165 0.44862 0.0
H240 H 0.4301 0.75842 0.44212 0.0
H241 H 0.30825 0.67387 0.43633 0.0
H242 H 0.16402 0.69463 0.4475 0.0
H243 H 0.25624 0.79845 0.45591 0.0
C244 C 0.39074 0.85762 0.45376 0.0
C245 C 0.45884 0.88211 0.45296 0.0
C246 C 0.33658 0.79709 0.45088 0.0
C247 C 0.47113 0.84473 0.44924 0.0
C248 C 0.41808 0.78532 0.44555 0.0
C249 C 0.29696 0.70092 0.44149 0.0
C250 C 0.22878 0.67582 0.44191 0.0
C251 C 0.35056 0.76085 0.4462 0.0
C252 C 0.21556 0.71214 0.44782 0.0
C253 C 0.26859 0.77185 0.45222 0.0
H254 H 0.45648 0.144 0.81992 0.0
H255 H 0.61143 0.29722 0.77477 0.0
H256 H 0.64561 0.24934 0.75043 0.0
H257 H 0.62848 0.16275 0.73981 0.0
H258 H 0.4764 1.00999 0.78554 0.0
H259 H 0.44576 0.05933 0.81238 0.0
C260 C 0.49838 0.16729 0.80512 0.0
C261 C 0.53021 0.22405 0.79886 0.0
C262 C 0.5186 0.13957 0.79129 0.0
C263 C 0.58441 0.25312 0.77946 0.0
C264 C 0.60451 0.22589 0.76564 0.0
C265 C 0.58888 0.14036 0.7558 0.0
C266 C 0.5545 0.08261 0.76049 0.0
C267 C 0.57129 0.16888 0.77098 0.0
C268 C 0.50398 0.0545 0.78161 0.0
C269 C 0.48609 0.08261 0.7968 0.0
H270 H 0.74777 0.8234 0.51657 0.0
H271 H 0.57327 0.7834 0.55647 0.0
H272 H 0.54763 0.70178 0.57935 0.0
H273 H 0.57364 0.64082 0.58743 0.0
H274 H 0.74541 0.6785 0.5461 0.0
H275 H 0.77241 0.76135 0.52378 0.0
C276 C 0.70362 0.79647 0.52996 0.0
C277 C 0.66264 0.80973 0.5348 0.0
C278 C 0.68858 0.74911 0.54272 0.0
C279 C 0.60633 0.77483 0.5527 0.0
C280 C 0.59135 0.72789 0.56566 0.0
C281 C 0.61732 0.66753 0.57374 0.0
C282 C 0.65776 0.6539 0.56853 0.0
C283 C 0.63216 0.7147 0.56085 0.0
C284 C 0.71345 0.68812 0.55031 0.0
C285 C 0.72896 0.7355 0.53763 0.0
H286 H 0.71162 0.44587 0.83355 0.0
H287 H 0.79813 0.59831 0.8877 0.0
H288 H 0.89796 0.61083 0.89732 0.0
H289 H 0.96679 0.58062 0.8926 0.0
H290 H 0.88824 0.4326 0.83651 0.0
H291 H 0.78667 0.41874 0.82605 0.0
C292 C 0.75171 0.48232 0.84757 0.0
C293 C 0.74162 0.52079 0.8598 0.0
C294 C 0.81416 0.49103 0.85283 0.0
C295 C 0.79905 0.56693 0.87743 0.0
C296 C 0.85827 0.57444 0.88313 0.0
C297 C 0.92872 0.54525 0.87751 0.0
C298 C 0.94141 0.5087 0.86537 0.0
C299 C 0.86767 0.53722 0.87118 0.0
C300 C 0.88623 0.46361 0.84631 0.0
C301 C 0.82571 0.45506 0.84044 0.0
H302 H 0.37196 0.76009 0.14484 0.0
H303 H 0.22944 0.77499 0.1757 0.0
H304 H 0.3202 0.87755 0.18469 0.0
H305 H 0.44146 0.96313 0.18788 0.0
H306 H 0.58585 0.95165 0.15649 0.0
H307 H 0.4941 0.84934 0.14321 0.0
C308 C 0.36059 0.78578 0.15328 0.0
C309 C 0.29288 0.75862 0.15968 0.0
C310 C 0.41386 0.84612 0.1582 0.0
C311 C 0.28015 0.79359 0.17045 0.0
C312 C 0.33241 0.85277 0.17569 0.0
C313 C 0.45274 0.93869 0.17721 0.0
C314 C 0.52089 0.96588 0.17266 0.0
C315 C 0.39956 0.87953 0.17005 0.0
C316 C 0.53421 0.93272 0.15955 0.0
C317 C 0.48152 0.87375 0.15237 0.0
H318 H 0.63915 0.36175 0.48946 0.0
H319 H 0.45846 0.22704 0.53387 0.0
H320 H 0.46356 0.29769 0.56274 0.0
H321 H 0.52004 0.39744 0.57587 0.0
H322 H 0.7036 0.5329 0.53316 0.0
H323 H 0.6958 0.46227 0.50263 0.0
C324 C 0.60059 0.34798 0.50524 0.0
C325 C 0.54857 0.28933 0.50958 0.0
C326 C 0.60426 0.3889 0.52202 0.0
C327 C 0.49933 0.272 0.53036 0.0
C328 C 0.50212 0.31233 0.5468 0.0
C329 C 0.55882 0.41165 0.56012 0.0
C330 C 0.61251 0.47051 0.55698 0.0
C331 C 0.55468 0.37088 0.54301 0.0
C332 C 0.66134 0.48793 0.53589 0.0
C333 C 0.65716 0.44755 0.51853 0.0
H334 H 0.28877 0.44048 0.83354 0.0
H335 H 0.43895 0.58689 0.89119 0.0
H336 H 0.35997 0.60079 0.90176 0.0
H337 H 0.24525 0.57343 0.89675 0.0
H338 H 0.09585 0.43315 0.83624 0.0
H339 H 0.17398 0.4173 0.82548 0.0
C340 C 0.30549 0.47576 0.84862 0.0
C341 C 0.37466 0.51183 0.86162 0.0
C342 C 0.25773 0.48562 0.85431 0.0
C343 C 0.38953 0.55705 0.88041 0.0
C344 C 0.34281 0.5654 0.88665 0.0
C345 C 0.22844 0.53932 0.88071 0.0
C346 C 0.16005 0.50546 0.86751 0.0
C347 C 0.27618 0.5304 0.87398 0.0
C348 C 0.14524 0.46199 0.84708 0.0
C349 C 0.19135 0.45229 0.84097 0.0
H350 H 0.88053 0.39294 0.17109 0.0
H351 H 1.01049 0.36144 0.14497 0.0
H352 H 0.91824 0.25877 0.15064 0.0
H353 H 0.80097 0.177 0.16645 0.0
H354 H 0.67225 0.21003 0.19187 0.0
H355 H 0.76249 0.31137 0.18348 0.0
C356 C 0.88888 0.36377 0.16648 0.0
C357 C 0.95351 0.38599 0.15776 0.0
C358 C 0.83497 0.30416 0.1696 0.0
C359 C 0.96202 0.34649 0.15168 0.0
C360 C 0.90892 0.28735 0.15498 0.0
C361 C 0.79197 0.20609 0.1691 0.0
C362 C 0.72856 0.18496 0.17914 0.0
C363 C 0.84507 0.26543 0.1642 0.0
C364 C 0.71934 0.22426 0.18345 0.0
C365 C 0.77144 0.28268 0.17881 0.0
H366 H 0.98424 0.49196 0.06049 0.0
H367 H 0.20055 0.6128 0.07213 0.0
H368 H 0.21246 0.61152 0.01844 0.0
H369 H 0.16096 0.57873 0.96751 0.0
H370 H 0.94402 0.45502 0.95698 0.0
H371 H 0.93321 0.45516 0.01035 0.0
C372 C 1.03402 0.51787 0.0513 0.0
C373 C 0.09135 0.55278 0.07043 0.0
C374 C 1.04051 0.5168 0.02034 0.0
C375 C 0.15545 0.5857 0.05802 0.0
C376 C 0.16231 0.58503 0.02723 0.0
C377 C 0.11133 0.55142 0.97687 0.0
C378 C 1.05345 0.51784 0.95781 0.0
C379 C 0.10517 0.55113 0.00804 0.0
C380 C 0.98966 0.48264 0.97073 0.0
C381 C 0.98326 0.48232 0.00142 0.0
H382 H 0.56961 0.03067 0.37379 0.0
H383 H 0.78637 0.1409 0.37697 0.0
H384 H 0.78963 0.15212 0.32392 0.0
H385 H 0.7312 0.12679 0.27603 0.0
H386 H 0.51465 0.01771 0.27201 0.0
H387 H 0.5111 1.00961 0.32559 0.0
C388 C 0.61744 0.05739 0.36283 0.0
C389 C 0.67755 0.08444 0.37929 0.0
C390 C 0.61909 0.06356 0.33203 0.0
C391 C 0.73924 0.11915 0.36481 0.0
C392 C 0.74126 0.12567 0.33442 0.0
C393 C 0.68327 0.10198 0.28688 0.0
C394 C 0.62335 0.07261 0.26985 0.0
C395 C 0.68153 0.09755 0.31772 0.0
C396 C 0.56161 0.04003 0.28442 0.0
C397 C 0.5595 0.03556 0.31513 0.0
H398 H 0.46746 0.45146 0.74625 0.0
H399 H 0.66692 0.59911 0.77887 0.0
H400 H 0.7032 0.62655 0.72799 0.0
H401 H 0.67865 0.60568 0.67388 0.0
H402 H 0.48135 0.45319 0.64233 0.0
H403 H 0.44356 0.43009 0.69317 0.0
C404 C 0.51882 0.48989 0.74229 0.0
C405 C 0.56437 0.52349 0.76626 0.0
C406 C 0.53967 0.50414 0.71314 0.0
C407 C 0.63083 0.57283 0.76076 0.0
C408 C 0.65161 0.58834 0.73168 0.0
C409 C 0.62741 0.56763 0.67833 0.0
C410 C 0.58261 0.53104 0.65465 0.0
C411 C 0.60659 0.55396 0.70767 0.0
C412 C 0.5165 0.4816 0.66038 0.0
C413 C 0.49495 0.46852 0.68936 0.0
H414 H 0.51206 0.02404 0.55799 0.0
H415 H 0.71137 0.08388 0.54729 0.0
H416 H 0.72006 0.07559 0.60033 0.0
H417 H 0.67114 0.05311 0.65036 0.0
H418 H 0.47447 0.99911 0.66042 0.0
H419 H 0.46451 1.00336 0.60721 0.0
C420 C 0.55744 0.03523 0.56723 0.0
C421 C 0.61088 0.05428 0.54869 0.0
C422 C 0.56251 0.0315 0.59775 0.0
C423 C 0.66942 0.06888 0.56106 0.0
C424 C 0.6744 0.0642 0.59141 0.0
C425 C 0.62611 0.04204 0.64075 0.0
C426 C 0.57356 0.02581 0.65923 0.0
C427 C 0.6213 0.04574 0.61005 0.0
C428 C 0.51566 1.01201 0.64663 0.0
C429 C 0.50991 0.01437 0.61622 0.0
H430 H 0.64973 0.50382 0.93163 0.0
H431 H 0.44282 0.42929 0.92477 0.0
H432 H 0.41116 0.36059 0.96147 0.0
H433 H 0.44777 0.33777 0.00267 0.0
H434 H 0.65584 0.41837 0.01267 0.0
H435 H 0.68096 0.46478 0.96603 0.0
C436 C 0.59774 0.47226 0.93813 0.0
C437 C 0.54899 0.47273 0.92663 0.0
C438 C 0.57997 0.43292 0.95918 0.0
C439 C 0.48134 0.43048 0.93416 0.0
C440 C 0.46313 0.39089 0.95485 0.0
C441 C 0.49756 0.36255 0.99355 0.0
C442 C 0.55047 0.37672 0.01135 0.0
C443 C 0.51256 0.3934 0.96842 0.0
C444 C 0.61458 0.40774 -0.00062 0.0
C445 C 0.62937 0.43584 0.97322 0.0
H446 H 0.10992 0.48134 0.24981 0.0
H447 H 0.14461 0.63558 0.23936 0.0
H448 H 0.14566 0.64892 0.29292 0.0
H449 H 0.13935 0.61812 0.34285 0.0
H450 H 0.1064 0.46483 0.35372 0.0
H451 H 0.10208 0.44975 0.3 0.0
C452 C 0.11732 0.51765 0.2593 0.0
C453 C 0.12694 0.55729 0.24066 0.0
C454 C 0.11866 0.52545 0.29021 0.0
C455 C 0.13653 0.60419 0.25322 0.0
C456 C 0.13755 0.61206 0.28387 0.0
C457 C 0.13187 0.58172 0.33345 0.0
C458 C 0.12366 0.54288 0.35225 0.0
C459 C 0.12932 0.57329 0.30259 0.0
C460 C 0.11261 0.49524 0.33972 0.0
C461 C 0.11026 0.48665 0.30901 0.0
loop_
_geom_bond_atom_site_label_1
_geom_bond_atom_site_label_2
_geom_bond_distance
_geom_bond_site_symmetry_2
_ccdc_geom_bond_type
Gd0 C3 2.818 . S
Gd0 O20 2.377 . S
Gd0 O22 2.448 . S
Gd0 O23 2.506 . S
Gd0 O24 2.435 . S
Gd0 O25 2.717 . S
Gd0 O27 2.395 1_455 S
Gd0 O31 2.327 . S
Gd1 C12 2.818 . S
Gd1 O21 2.395 1_655 S
Gd1 O25 2.327 1_655 S
Gd1 O26 2.377 . S
Gd1 O28 2.448 . S
Gd1 O29 2.506 . S
Gd1 O30 2.435 1_655 S
Gd1 O31 2.717 1_655 S
C2 O20 1.240 . S
C2 O21 1.240 . S
C3 Gd0 2.818 . S
C3 C4 1.510 . S
C3 O22 1.249 . S
C3 O23 1.252 . S
C4 C3 1.510 . S
C4 C5 1.404 . S
C4 C6 1.352 . S
C5 C4 1.404 . S
C5 C9 1.389 . S
C5 H32 0.930 . S
C6 C4 1.352 . S
C6 C8 1.374 . S
C6 H33 0.931 . S
C7 C8 1.359 . S
C7 C9 1.364 . S
C8 C6 1.374 . S
C8 C7 1.359 . S
C8 H34 0.931 . S
C9 C5 1.389 . S
C9 C7 1.364 . S
C9 H35 0.931 . S
C10 O24 1.256 . S
C10 O25 1.257 . S
C11 O26 1.240 . S
C11 O27 1.240 . S
C12 Gd1 2.818 . S
C12 C13 1.510 . S
C12 O28 1.249 . S
C12 O29 1.252 . S
C13 C12 1.510 . S
C13 C14 1.404 . S
C13 C15 1.352 . S
C14 C13 1.404 . S
C14 C18 1.389 . S
C14 H36 0.930 . S
C15 C13 1.352 . S
C15 C17 1.374 . S
C15 H37 0.931 . S
C16 C17 1.359 . S
C16 C18 1.364 . S
C17 C15 1.374 . S
C17 C16 1.359 . S
C17 H38 0.931 . S
C18 C14 1.389 . S
C18 C16 1.364 . S
C18 H39 0.931 . S
C19 O30 1.256 . S
C19 O31 1.257 . S
O20 Gd0 2.377 . S
O20 C2 1.240 . S
O21 Gd1 2.395 1_455 S
O21 C2 1.240 . S
O22 Gd0 2.448 . S
O22 C3 1.249 . S
O23 Gd0 2.506 . S
O23 C3 1.252 . S
O24 Gd0 2.435 . S
O24 C10 1.256 . S
O25 Gd0 2.717 . S
O25 Gd1 2.327 1_455 S
O25 C10 1.257 . S
O26 Gd1 2.377 . S
O26 C11 1.240 . S
O27 Gd0 2.395 1_655 S
O27 C11 1.240 . S
O28 Gd1 2.448 . S
O28 C12 1.249 . S
O29 Gd1 2.506 . S
O29 C12 1.252 . S
O30 Gd1 2.435 1_455 S
O30 C19 1.256 . S
O31 Gd0 2.327 . S
O31 Gd1 2.717 1_455 S
O31 C19 1.257 . S
H32 C5 0.930 . S
H33 C6 0.931 . S
H34 C8 0.931 . S
H35 C9 0.931 . S
H36 C14 0.930 . S
H37 C15 0.931 . S
H38 C17 0.931 . S
H39 C18 0.931 . S
Gd40 C43 2.818 . S
Gd40 O60 2.377 . S
Gd40 O62 2.448 . S
Gd40 O63 2.506 . S
Gd40 O64 2.435 . S
Gd40 O65 2.717 1_565 S
Gd40 O67 2.395 1_565 S
Gd40 O71 2.327 1_565 S
Gd41 C52 2.818 . S
Gd41 O61 2.395 1_545 S
Gd41 O65 2.327 . S
Gd41 O66 2.377 . S
Gd41 O68 2.448 . S
Gd41 O69 2.506 . S
Gd41 O70 2.435 . S
Gd41 O71 2.717 . S
C42 O60 1.240 . S
C42 O61 1.240 . S
C43 Gd40 2.818 . S
C43 C44 1.510 . S
C43 O62 1.249 . S
C43 O63 1.252 . S
C44 C43 1.510 . S
C44 C45 1.404 . S
C44 C46 1.352 . S
C45 C44 1.404 . S
C45 C49 1.389 . S
C45 H72 0.930 . S
C46 C44 1.352 . S
C46 C48 1.374 . S
C46 H73 0.931 . S
C47 C48 1.359 . S
C47 C49 1.364 . S
C48 C46 1.374 . S
C48 C47 1.359 . S
C48 H74 0.931 . S
C49 C45 1.389 . S
C49 C47 1.364 . S
C49 H75 0.931 . S
C50 O64 1.256 1_545 S
C50 O65 1.257 . S
C51 O66 1.240 . S
C51 O67 1.240 . S
C52 Gd41 2.818 . S
C52 C53 1.510 . S
C52 O68 1.249 . S
C52 O69 1.252 . S
C53 C52 1.510 . S
C53 C54 1.404 . S
C53 C55 1.352 . S
C54 C53 1.404 . S
C54 C58 1.389 . S
C54 H76 0.930 . S
C55 C53 1.352 . S
C55 C57 1.374 . S
C55 H77 0.931 . S
C56 C57 1.359 . S
C56 C58 1.364 . S
C57 C55 1.374 . S
C57 C56 1.359 . S
C57 H78 0.931 . S
C58 C54 1.389 . S
C58 C56 1.364 . S
C58 H79 0.931 . S
C59 O70 1.256 . S
C59 O71 1.257 . S
O60 Gd40 2.377 . S
O60 C42 1.240 . S
O61 Gd41 2.395 1_565 S
O61 C42 1.240 . S
O62 Gd40 2.448 . S
O62 C43 1.249 . S
O63 Gd40 2.506 . S
O63 C43 1.252 . S
O64 Gd40 2.435 . S
O64 C50 1.256 1_565 S
O65 Gd40 2.717 1_545 S
O65 Gd41 2.327 . S
O65 C50 1.257 . S
O66 Gd41 2.377 . S
O66 C51 1.240 . S
O67 Gd40 2.395 1_545 S
O67 C51 1.240 . S
O68 Gd41 2.448 . S
O68 C52 1.249 . S
O69 Gd41 2.506 . S
O69 C52 1.252 . S
O70 Gd41 2.435 . S
O70 C59 1.256 . S
O71 Gd40 2.327 1_545 S
O71 Gd41 2.717 . S
O71 C59 1.257 . S
H72 C45 0.930 . S
H73 C46 0.931 . S
H74 C48 0.931 . S
H75 C49 0.931 . S
H76 C54 0.930 . S
H77 C55 0.931 . S
H78 C57 0.931 . S
H79 C58 0.931 . S
Gd80 C83 2.818 . S
Gd80 O100 2.377 . S
Gd80 O102 2.448 . S
Gd80 O103 2.506 . S
Gd80 O104 2.435 . S
Gd80 O105 2.717 . S
Gd80 O107 2.395 . S
Gd80 O111 2.327 . S
Gd81 C92 2.818 . S
Gd81 O101 2.395 . S
Gd81 O105 2.327 . S
Gd81 O106 2.377 . S
Gd81 O108 2.448 . S
Gd81 O109 2.506 . S
Gd81 O110 2.435 . S
Gd81 O111 2.717 . S
C82 O100 1.240 . S
C82 O101 1.240 . S
C83 Gd80 2.818 . S
C83 C84 1.510 . S
C83 O102 1.249 . S
C83 O103 1.252 . S
C84 C83 1.510 . S
C84 C85 1.404 . S
C84 C86 1.352 . S
C85 C84 1.404 . S
C85 C89 1.389 . S
C85 H112 0.930 . S
C86 C84 1.352 . S
C86 C88 1.374 . S
C86 H113 0.931 . S
C87 C88 1.359 . S
C87 C89 1.364 . S
C88 C86 1.374 . S
C88 C87 1.359 . S
C88 H114 0.931 . S
C89 C85 1.389 . S
C89 C87 1.364 . S
C89 H115 0.931 . S
C90 O104 1.256 . S
C90 O105 1.257 . S
C91 O106 1.240 . S
C91 O107 1.240 . S
C92 Gd81 2.818 . S
C92 C93 1.510 . S
C92 O108 1.249 . S
C92 O109 1.252 . S
C93 C92 1.510 . S
C93 C94 1.404 . S
C93 C95 1.352 . S
C94 C93 1.404 . S
C94 C98 1.389 . S
C94 H116 0.930 . S
C95 C93 1.352 . S
C95 C97 1.374 . S
C95 H117 0.931 . S
C96 C97 1.359 . S
C96 C98 1.364 . S
C97 C95 1.374 . S
C97 C96 1.359 . S
C97 H118 0.931 . S
C98 C94 1.389 . S
C98 C96 1.364 . S
C98 H119 0.931 . S
C99 O110 1.256 . S
C99 O111 1.257 . S
O100 Gd80 2.377 . S
O100 C82 1.240 . S
O101 Gd81 2.395 . S
O101 C82 1.240 . S
O102 Gd80 2.448 . S
O102 C83 1.249 . S
O103 Gd80 2.506 . S
O103 C83 1.252 . S
O104 Gd80 2.435 . S
O104 C90 1.256 . S
O105 Gd80 2.717 . S
O105 Gd81 2.327 . S
O105 C90 1.257 . S
O106 Gd81 2.377 . S
O106 C91 1.240 . S
O107 Gd80 2.395 . S
O107 C91 1.240 . S
O108 Gd81 2.448 . S
O108 C92 1.249 . S
O109 Gd81 2.506 . S
O109 C92 1.252 . S
O110 Gd81 2.435 . S
O110 C99 1.256 . S
O111 Gd80 2.327 . S
O111 Gd81 2.717 . S
O111 C99 1.257 . S
H112 C85 0.930 . S
H113 C86 0.931 . S
H114 C88 0.931 . S
H115 C89 0.931 . S
H116 C94 0.930 . S
H117 C95 0.931 . S
H118 C97 0.931 . S
H119 C98 0.931 . S
H120 C123 0.931 . S
H121 C126 0.928 . S
H122 C128 0.930 . S
C123 H120 0.931 . S
C123 C124 1.413 . S
C123 C125 1.360 1_565 S
C124 C123 1.413 . S
C124 C128 1.429 1_565 S
C125 C123 1.360 1_545 S
C125 C126 1.372 . S
C126 H121 0.928 . S
C126 C125 1.372 . S
C126 C127 1.404 . S
C127 C126 1.404 . S
C127 C128 1.391 . S
C128 H122 0.930 . S
C128 C124 1.429 1_545 S
C128 C127 1.391 . S
H129 C132 0.931 . S
H130 C135 0.928 . S
H131 C137 0.930 . S
C132 H129 0.931 . S
C132 C133 1.413 . S
C132 C134 1.360 . S
C133 C132 1.413 . S
C133 C137 1.429 . S
C134 C132 1.360 . S
C134 C135 1.372 . S
C135 H130 0.928 . S
C135 C134 1.372 . S
C135 C136 1.404 . S
C136 C135 1.404 . S
C136 C137 1.391 . S
C137 H131 0.930 . S
C137 C133 1.429 . S
C137 C136 1.391 . S
H138 C141 0.931 . S
H139 C144 0.928 . S
H140 C146 0.930 . S
C141 H138 0.931 . S
C141 C142 1.413 . S
C141 C143 1.360 . S
C142 C141 1.413 . S
C142 C146 1.429 . S
C143 C141 1.360 . S
C143 C144 1.372 . S
C144 H139 0.928 . S
C144 C143 1.372 . S
C144 C145 1.404 . S
C145 C144 1.404 . S
C145 C146 1.391 . S
C146 H140 0.930 . S
C146 C142 1.429 . S
C146 C145 1.391 . S
H147 C150 0.931 . S
H148 C153 0.928 . S
H149 C155 0.930 . S
C150 H147 0.931 . S
C150 C151 1.413 . S
C150 C152 1.360 1_655 S
C151 C150 1.413 . S
C151 C155 1.429 1_655 S
C152 C150 1.360 1_455 S
C152 C153 1.372 . S
C153 H148 0.928 . S
C153 C152 1.372 . S
C153 C154 1.404 . S
C154 C153 1.404 . S
C154 C155 1.391 . S
C155 H149 0.930 . S
C155 C151 1.429 1_455 S
C155 C154 1.391 . S
H156 C159 0.931 . S
H157 C162 0.928 . S
H158 C164 0.930 . S
C159 H156 0.931 . S
C159 C160 1.413 . S
C159 C161 1.360 1_545 S
C160 C159 1.413 . S
C160 C164 1.429 . S
C161 C159 1.360 1_565 S
C161 C162 1.372 . S
C162 H157 0.928 . S
C162 C161 1.372 . S
C162 C163 1.404 . S
C163 C162 1.404 . S
C163 C164 1.391 1_565 S
C164 H158 0.930 . S
C164 C160 1.429 . S
C164 C163 1.391 1_545 S
H165 C168 0.931 . S
H166 C171 0.928 . S
H167 C173 0.930 . S
C168 H165 0.931 . S
C168 C169 1.413 . S
C168 C170 1.360 . S
C169 C168 1.413 . S
C169 C173 1.429 . S
C170 C168 1.360 . S
C170 C171 1.372 . S
C171 H166 0.928 . S
C171 C170 1.372 . S
C171 C172 1.404 . S
C172 C171 1.404 . S
C172 C173 1.391 . S
C173 H167 0.930 . S
C173 C169 1.429 . S
C173 C172 1.391 . S
H174 C180 0.930 . S
H175 C183 0.930 . S
H176 C184 0.930 . S
H177 C185 0.930 . S
H178 C188 0.930 . S
H179 C189 0.930 . S
C180 H174 0.930 . S
C180 C181 1.355 . S
C180 C182 1.415 . S
C181 C180 1.355 . S
C181 C183 1.419 . S
C182 C180 1.415 . S
C182 C187 1.425 . S
C182 C189 1.409 . S
C183 H175 0.930 . S
C183 C181 1.419 . S
C183 C184 1.362 . S
C184 H176 0.930 . S
C184 C183 1.362 . S
C184 C187 1.409 . S
C185 H177 0.930 . S
C185 C186 1.355 . S
C185 C187 1.415 . S
C186 C185 1.355 . S
C186 C188 1.419 . S
C187 C182 1.425 . S
C187 C184 1.409 . S
C187 C185 1.415 . S
C188 H178 0.930 . S
C188 C186 1.419 . S
C188 C189 1.362 . S
C189 H179 0.930 . S
C189 C182 1.409 . S
C189 C188 1.362 . S
H190 C196 0.930 . S
H191 C199 0.930 . S
H192 C200 0.930 . S
H193 C201 0.930 . S
H194 C204 0.930 . S
H195 C205 0.930 . S
C196 H190 0.930 . S
C196 C197 1.355 . S
C196 C198 1.415 . S
C197 C196 1.355 . S
C197 C199 1.419 . S
C198 C196 1.415 . S
C198 C203 1.425 . S
C198 C205 1.409 . S
C199 H191 0.930 . S
C199 C197 1.419 . S
C199 C200 1.362 . S
C200 H192 0.930 . S
C200 C199 1.362 . S
C200 C203 1.409 . S
C201 H193 0.930 . S
C201 C202 1.355 . S
C201 C203 1.415 . S
C202 C201 1.355 . S
C202 C204 1.419 . S
C203 C198 1.425 . S
C203 C200 1.409 . S
C203 C201 1.415 . S
C204 H194 0.930 . S
C204 C202 1.419 . S
C204 C205 1.362 . S
C205 H195 0.930 . S
C205 C198 1.409 . S
C205 C204 1.362 . S
H206 C212 0.930 . S
H207 C215 0.930 . S
H208 C216 0.930 . S
H209 C217 0.930 . S
H210 C220 0.930 . S
H211 C221 0.930 . S
C212 H206 0.930 . S
C212 C213 1.355 . S
C212 C214 1.415 . S
C213 C212 1.355 . S
C213 C215 1.419 . S
C214 C212 1.415 . S
C214 C219 1.425 . S
C214 C221 1.409 . S
C215 H207 0.930 . S
C215 C213 1.419 . S
C215 C216 1.362 . S
C216 H208 0.930 . S
C216 C215 1.362 . S
C216 C219 1.409 . S
C217 H209 0.930 . S
C217 C218 1.355 . S
C217 C219 1.415 . S
C218 C217 1.355 . S
C218 C220 1.419 . S
C219 C214 1.425 . S
C219 C216 1.409 . S
C219 C217 1.415 . S
C220 H210 0.930 . S
C220 C218 1.419 . S
C220 C221 1.362 . S
C221 H211 0.930 . S
C221 C214 1.409 . S
C221 C220 1.362 . S
H222 C228 0.930 . S
H223 C231 0.930 . S
H224 C232 0.930 . S
H225 C233 0.930 . S
H226 C236 0.930 . S
H227 C237 0.930 . S
C228 H222 0.930 . S
C228 C229 1.355 . S
C228 C230 1.415 . S
C229 C228 1.355 . S
C229 C231 1.419 . S
C230 C228 1.415 . S
C230 C235 1.425 . S
C230 C237 1.409 . S
C231 H223 0.930 . S
C231 C229 1.419 . S
C231 C232 1.362 . S
C232 H224 0.930 . S
C232 C231 1.362 . S
C232 C235 1.409 . S
C233 H225 0.930 . S
C233 C234 1.355 . S
C233 C235 1.415 . S
C234 C233 1.355 . S
C234 C236 1.419 . S
C235 C230 1.425 . S
C235 C232 1.409 . S
C235 C233 1.415 . S
C236 H226 0.930 . S
C236 C234 1.419 . S
C236 C237 1.362 . S
C237 H227 0.930 . S
C237 C230 1.409 . S
C237 C236 1.362 . S
H238 C244 0.930 . S
H239 C247 0.930 . S
H240 C248 0.930 . S
H241 C249 0.930 . S
H242 C252 0.930 . S
H243 C253 0.930 . S
C244 H238 0.930 . S
C244 C245 1.355 . S
C244 C246 1.415 . S
C245 C244 1.355 . S
C245 C247 1.419 . S
C246 C244 1.415 . S
C246 C251 1.425 . S
C246 C253 1.409 . S
C247 H239 0.930 . S
C247 C245 1.419 . S
C247 C248 1.362 . S
C248 H240 0.930 . S
C248 C247 1.362 . S
C248 C251 1.409 . S
C249 H241 0.930 . S
C249 C250 1.355 . S
C249 C251 1.415 . S
C250 C249 1.355 . S
C250 C252 1.419 . S
C251 C246 1.425 . S
C251 C248 1.409 . S
C251 C249 1.415 . S
C252 H242 0.930 . S
C252 C250 1.419 . S
C252 C253 1.362 . S
C253 H243 0.930 . S
C253 C246 1.409 . S
C253 C252 1.362 . S
H254 C260 0.930 . S
H255 C263 0.930 . S
H256 C264 0.930 . S
H257 C265 0.930 . S
H258 C268 0.930 . S
H259 C269 0.930 . S
C260 H254 0.930 . S
C260 C261 1.355 . S
C260 C262 1.415 . S
C261 C260 1.355 . S
C261 C263 1.419 . S
C262 C260 1.415 . S
C262 C267 1.425 . S
C262 C269 1.409 . S
C263 H255 0.930 . S
C263 C261 1.419 . S
C263 C264 1.362 . S
C264 H256 0.930 . S
C264 C263 1.362 . S
C264 C267 1.409 . S
C265 H257 0.930 . S
C265 C266 1.355 . S
C265 C267 1.415 . S
C266 C265 1.355 . S
C266 C268 1.419 . S
C267 C262 1.425 . S
C267 C264 1.409 . S
C267 C265 1.415 . S
C268 H258 0.930 . S
C268 C266 1.419 . S
C268 C269 1.362 . S
C269 H259 0.930 . S
C269 C262 1.409 . S
C269 C268 1.362 . S
H270 C276 0.930 . S
H271 C279 0.930 . S
H272 C280 0.930 . S
H273 C281 0.930 . S
H274 C284 0.930 . S
H275 C285 0.930 . S
C276 H270 0.930 . S
C276 C277 1.355 . S
C276 C278 1.415 . S
C277 C276 1.355 . S
C277 C279 1.419 . S
C278 C276 1.415 . S
C278 C283 1.425 . S
C278 C285 1.409 . S
C279 H271 0.930 . S
C279 C277 1.419 . S
C279 C280 1.362 . S
C280 H272 0.930 . S
C280 C279 1.362 . S
C280 C283 1.409 . S
C281 H273 0.930 . S
C281 C282 1.355 . S
C281 C283 1.415 . S
C282 C281 1.355 . S
C282 C284 1.419 . S
C283 C278 1.425 . S
C283 C280 1.409 . S
C283 C281 1.415 . S
C284 H274 0.930 . S
C284 C282 1.419 . S
C284 C285 1.362 . S
C285 H275 0.930 . S
C285 C278 1.409 . S
C285 C284 1.362 . S
H286 C292 0.930 . S
H287 C295 0.930 . S
H288 C296 0.930 . S
H289 C297 0.930 . S
H290 C300 0.930 . S
H291 C301 0.930 . S
C292 H286 0.930 . S
C292 C293 1.355 . S
C292 C294 1.415 . S
C293 C292 1.355 . S
C293 C295 1.419 . S
C294 C292 1.415 . S
C294 C299 1.425 . S
C294 C301 1.409 . S
C295 H287 0.930 . S
C295 C293 1.419 . S
C295 C296 1.362 . S
C296 H288 0.930 . S
C296 C295 1.362 . S
C296 C299 1.409 . S
C297 H289 0.930 . S
C297 C298 1.355 . S
C297 C299 1.415 . S
C298 C297 1.355 . S
C298 C300 1.419 . S
C299 C294 1.425 . S
C299 C296 1.409 . S
C299 C297 1.415 . S
C300 H290 0.930 . S
C300 C298 1.419 . S
C300 C301 1.362 . S
C301 H291 0.930 . S
C301 C294 1.409 . S
C301 C300 1.362 . S
H302 C308 0.930 . S
H303 C311 0.930 . S
H304 C312 0.930 . S
H305 C313 0.930 . S
H306 C316 0.930 . S
H307 C317 0.930 . S
C308 H302 0.930 . S
C308 C309 1.355 . S
C308 C310 1.415 . S
C309 C308 1.355 . S
C309 C311 1.419 . S
C310 C308 1.415 . S
C310 C315 1.425 . S
C310 C317 1.409 . S
C311 H303 0.930 . S
C311 C309 1.419 . S
C311 C312 1.362 . S
C312 H304 0.930 . S
C312 C311 1.362 . S
C312 C315 1.409 . S
C313 H305 0.930 . S
C313 C314 1.355 . S
C313 C315 1.415 . S
C314 C313 1.355 . S
C314 C316 1.419 . S
C315 C310 1.425 . S
C315 C312 1.409 . S
C315 C313 1.415 . S
C316 H306 0.930 . S
C316 C314 1.419 . S
C316 C317 1.362 . S
C317 H307 0.930 . S
C317 C310 1.409 . S
C317 C316 1.362 . S
H318 C324 0.930 . S
H319 C327 0.930 . S
H320 C328 0.930 . S
H321 C329 0.930 . S
H322 C332 0.930 . S
H323 C333 0.930 . S
C324 H318 0.930 . S
C324 C325 1.355 . S
C324 C326 1.415 . S
C325 C324 1.355 . S
C325 C327 1.419 . S
C326 C324 1.415 . S
C326 C331 1.425 . S
C326 C333 1.409 . S
C327 H319 0.930 . S
C327 C325 1.419 . S
C327 C328 1.362 . S
C328 H320 0.930 . S
C328 C327 1.362 . S
C328 C331 1.409 . S
C329 H321 0.930 . S
C329 C330 1.355 . S
C329 C331 1.415 . S
C330 C329 1.355 . S
C330 C332 1.419 . S
C331 C326 1.425 . S
C331 C328 1.409 . S
C331 C329 1.415 . S
C332 H322 0.930 . S
C332 C330 1.419 . S
C332 C333 1.362 . S
C333 H323 0.930 . S
C333 C326 1.409 . S
C333 C332 1.362 . S
H334 C340 0.930 . S
H335 C343 0.930 . S
H336 C344 0.930 . S
H337 C345 0.930 . S
H338 C348 0.930 . S
H339 C349 0.930 . S
C340 H334 0.930 . S
C340 C341 1.355 . S
C340 C342 1.415 . S
C341 C340 1.355 . S
C341 C343 1.419 . S
C342 C340 1.415 . S
C342 C347 1.425 . S
C342 C349 1.409 . S
C343 H335 0.930 . S
C343 C341 1.419 . S
C343 C344 1.362 . S
C344 H336 0.930 . S
C344 C343 1.362 . S
C344 C347 1.409 . S
C345 H337 0.930 . S
C345 C346 1.355 . S
C345 C347 1.415 . S
C346 C345 1.355 . S
C346 C348 1.419 . S
C347 C342 1.425 . S
C347 C344 1.409 . S
C347 C345 1.415 . S
C348 H338 0.930 . S
C348 C346 1.419 . S
C348 C349 1.362 . S
C349 H339 0.930 . S
C349 C342 1.409 . S
C349 C348 1.362 . S
H350 C356 0.930 . S
H351 C359 0.930 . S
H352 C360 0.930 . S
H353 C361 0.930 . S
H354 C364 0.930 . S
H355 C365 0.930 . S
C356 H350 0.930 . S
C356 C357 1.355 . S
C356 C358 1.415 . S
C357 C356 1.355 . S
C357 C359 1.419 . S
C358 C356 1.415 . S
C358 C363 1.425 . S
C358 C365 1.409 . S
C359 H351 0.930 . S
C359 C357 1.419 . S
C359 C360 1.362 . S
C360 H352 0.930 . S
C360 C359 1.362 . S
C360 C363 1.409 . S
C361 H353 0.930 . S
C361 C362 1.355 . S
C361 C363 1.415 . S
C362 C361 1.355 . S
C362 C364 1.419 . S
C363 C358 1.425 . S
C363 C360 1.409 . S
C363 C361 1.415 . S
C364 H354 0.930 . S
C364 C362 1.419 . S
C364 C365 1.362 . S
C365 H355 0.930 . S
C365 C358 1.409 . S
C365 C364 1.362 . S
H366 C372 0.930 1_655 S
H367 C375 0.930 . S
H368 C376 0.930 . S
H369 C377 0.930 . S
H370 C380 0.930 . S
H371 C381 0.930 . S
C372 H366 0.930 1_455 S
C372 C373 1.355 . S
C372 C374 1.415 . S
C373 C372 1.355 . S
C373 C375 1.419 . S
C374 C372 1.415 . S
C374 C379 1.425 . S
C374 C381 1.409 1_455 S
C375 H367 0.930 . S
C375 C373 1.419 . S
C375 C376 1.362 . S
C376 H368 0.930 . S
C376 C375 1.362 . S
C376 C379 1.409 . S
C377 H369 0.930 . S
C377 C378 1.355 . S
C377 C379 1.415 1_556 S
C378 C377 1.355 . S
C378 C380 1.419 1_455 S
C379 C374 1.425 . S
C379 C376 1.409 . S
C379 C377 1.415 1_554 S
C380 H370 0.930 . S
C380 C378 1.419 1_655 S
C380 C381 1.362 1_556 S
C381 H371 0.930 . S
C381 C374 1.409 1_655 S
C381 C380 1.362 1_554 S
H382 C388 0.933 1_565 S
H383 C391 0.930 . S
H384 C392 0.930 . S
H385 C393 0.930 . S
H386 C396 0.930 . S
H387 C397 0.930 . S
C388 H382 0.933 1_545 S
C388 C389 1.351 . S
C388 C390 1.416 . S
C389 C388 1.351 . S
C389 C391 1.419 . S
C390 C388 1.416 . S
C390 C395 1.425 . S
C390 C397 1.409 1_545 S
C391 H383 0.930 . S
C391 C389 1.419 . S
C391 C392 1.362 . S
C392 H384 0.930 . S
C392 C391 1.362 . S
C392 C395 1.409 . S
C393 H385 0.930 . S
C393 C394 1.355 . S
C393 C395 1.415 . S
C394 C393 1.355 . S
C394 C396 1.419 1_545 S
C395 C390 1.425 . S
C395 C392 1.409 . S
C395 C393 1.415 . S
C396 H386 0.930 . S
C396 C394 1.419 1_565 S
C396 C397 1.362 . S
C397 H387 0.930 . S
C397 C390 1.409 1_565 S
C397 C396 1.362 . S
H398 C404 0.930 . S
H399 C407 0.930 . S
H400 C408 0.930 . S
H401 C409 0.930 . S
H402 C412 0.930 . S
H403 C413 0.930 . S
C404 H398 0.930 . S
C404 C405 1.355 . S
C404 C406 1.415 . S
C405 C404 1.355 . S
C405 C407 1.419 . S
C406 C404 1.415 . S
C406 C411 1.425 . S
C406 C413 1.409 . S
C407 H399 0.930 . S
C407 C405 1.419 . S
C407 C408 1.362 . S
C408 H400 0.930 . S
C408 C407 1.362 . S
C408 C411 1.409 . S
C409 H401 0.930 . S
C409 C410 1.355 . S
C409 C411 1.415 . S
C410 C409 1.355 . S
C410 C412 1.419 . S
C411 C406 1.425 . S
C411 C408 1.409 . S
C411 C409 1.415 . S
C412 H402 0.930 . S
C412 C410 1.419 . S
C412 C413 1.362 . S
C413 H403 0.930 . S
C413 C406 1.409 . S
C413 C412 1.362 . S
H414 C420 0.930 . S
H415 C423 0.930 . S
H416 C424 0.930 . S
H417 C425 0.930 . S
H418 C428 0.930 . S
H419 C429 0.930 . S
C420 H414 0.930 . S
C420 C421 1.355 . S
C420 C422 1.415 . S
C421 C420 1.355 . S
C421 C423 1.419 1_545 S
C422 C420 1.415 . S
C422 C427 1.425 1_545 S
C422 C429 1.409 . S
C423 H415 0.930 . S
C423 C421 1.419 1_565 S
C423 C424 1.362 . S
C424 H416 0.930 . S
C424 C423 1.362 . S
C424 C427 1.409 . S
C425 H417 0.930 . S
C425 C426 1.355 . S
C425 C427 1.415 . S
C426 C425 1.355 . S
C426 C428 1.419 1_565 S
C427 C422 1.425 1_565 S
C427 C424 1.409 . S
C427 C425 1.415 . S
C428 H418 0.930 . S
C428 C426 1.419 1_545 S
C428 C429 1.362 . S
C429 H419 0.930 . S
C429 C422 1.409 . S
C429 C428 1.362 . S
H430 C436 0.930 . S
H431 C439 0.930 . S
H432 C440 0.930 . S
H433 C441 0.930 . S
H434 C444 0.930 . S
H435 C445 0.931 . S
C436 H430 0.930 . S
C436 C437 1.355 . S
C436 C438 1.415 . S
C437 C436 1.355 . S
C437 C439 1.419 . S
C438 C436 1.415 . S
C438 C443 1.425 . S
C438 C445 1.442 . S
C439 H431 0.930 . S
C439 C437 1.419 . S
C439 C440 1.362 . S
C440 H432 0.930 . S
C440 C439 1.362 . S
C440 C443 1.409 . S
C441 H433 0.930 . S
C441 C442 1.355 1_556 S
C441 C443 1.415 . S
C442 C441 1.355 1_554 S
C442 C444 1.419 . S
C443 C438 1.425 . S
C443 C440 1.409 . S
C443 C441 1.415 . S
C444 H434 0.930 . S
C444 C442 1.419 . S
C444 C445 1.328 1_554 S
C445 H435 0.931 . S
C445 C438 1.442 . S
C445 C444 1.328 1_556 S
H446 C452 0.930 . S
H447 C455 0.930 . S
H448 C456 0.930 . S
H449 C457 0.930 . S
H450 C460 0.930 . S
H451 C461 0.930 . S
C452 H446 0.930 . S
C452 C453 1.355 . S
C452 C454 1.415 . S
C453 C452 1.355 . S
C453 C455 1.419 1_455 S
C454 C452 1.415 . S
C454 C459 1.425 1_455 S
C454 C461 1.409 . S
C455 H447 0.930 . S
C455 C453 1.419 1_655 S
C455 C456 1.362 . S
C456 H448 0.930 . S
C456 C455 1.362 . S
C456 C459 1.409 . S
C457 H449 0.930 . S
C457 C458 1.355 1_655 S
C457 C459 1.415 . S
C458 C457 1.355 1_455 S
C458 C460 1.419 . S
C459 C454 1.425 1_655 S
C459 C456 1.409 . S
C459 C457 1.415 . S
C460 H450 0.930 . S
C460 C458 1.419 . S
C460 C461 1.362 . S
C461 H451 0.930 . S
C461 C454 1.409 . S
C461 C460 1.362 . S
C181 C7 0.846 . S
C186 C169 0.962 . S
C197 C51 1.828 . S
C202 C151 1.822 . S
C213 C87 1.464 . S
C218 C163 1.520 . S
C229 C16 0.691 . S
C234 C172 0.738 . S
C250 C154 1.829 . S
C245 C42 1.886 . S
C266 C160 1.475 . S
C261 C96 1.396 . S
C277 C47 1.348 . S
C282 C133 1.394 . S
C293 C91 3.003 . S
C298 C142 2.968 1_655 S
C309 C2 1.895 . S
C314 C124 1.933 . S
C330 C136 1.495 . S
C325 C56 1.395 . S
C346 C145 2.913 . S
C341 C82 2.913 . S
C357 C11 1.820 . S
C362 C127 1.829 . S
C378 C143 1.793 . S
C373 C19 1.752 . S
C389 C50 1.274 . S
C394 C125 1.350 . S
C405 C99 1.441 . S
C410 C134 1.504 . S
C426 C161 1.470 . S
C421 C59 1.456 . S
C442 C170 1.028 . S
C437 C90 1.068 . S
C453 C10 1.315 . S
C458 C152 1.324 . S
