# Generated by pormake.
# Topology apo, (3,6)-cn, num edge types: 1
# Building blocks:
#     Node 0, Type 0, BuildingBlock: MIDCAF_clean_linker_0, # of connection points: 3
#     Node 1, Type 0, BuildingBlock: MIDCAF_clean_linker_0, # of connection points: 3
#     Node 2, Type 0, BuildingBlock: MIDCAF_clean_linker_0, # of connection points: 3
#     Node 3, Type 0, BuildingBlock: MIDCAF_clean_linker_0, # of connection points: 3
#     Node 4, Type 0, BuildingBlock: MIDCAF_clean_linker_0, # of connection points: 3
#     Node 5, Type 0, BuildingBlock: MIDCAF_clean_linker_0, # of connection points: 3
#     Node 6, Type 0, BuildingBlock: MIDCAF_clean_linker_0, # of connection points: 3
#     Node 7, Type 0, BuildingBlock: MIDCAF_clean_linker_0, # of connection points: 3
#     Node 8, Type 1, BuildingBlock: MIDCAF_clean_sbu_0, # of connection points: 6
#     Node 9, Type 1, BuildingBlock: MIDCAF_clean_sbu_0, # of connection points: 6
#     Node 10, Type 1, BuildingBlock: MIDCAF_clean_sbu_0, # of connection points: 6
#     Node 11, Type 1, BuildingBlock: MIDCAF_clean_sbu_0, # of connection points: 6
#     Edge 12, Type (0, 1), BuildingBlock: ZUJKAS_clean_linker_0, # of connection points: 2
#     Edge 13, Type (0, 1), BuildingBlock: ZUJKAS_clean_linker_0, # of connection points: 2
#     Edge 14, Type (0, 1), BuildingBlock: ZUJKAS_clean_linker_0, # of connection points: 2
#     Edge 15, Type (0, 1), BuildingBlock: ZUJKAS_clean_linker_0, # of connection points: 2
#     Edge 16, Type (0, 1), BuildingBlock: ZUJKAS_clean_linker_0, # of connection points: 2
#     Edge 17, Type (0, 1), BuildingBlock: ZUJKAS_clean_linker_0, # of connection points: 2
#     Edge 18, Type (0, 1), BuildingBlock: ZUJKAS_clean_linker_0, # of connection points: 2
#     Edge 19, Type (0, 1), BuildingBlock: ZUJKAS_clean_linker_0, # of connection points: 2
#     Edge 20, Type (0, 1), BuildingBlock: ZUJKAS_clean_linker_0, # of connection points: 2
#     Edge 21, Type (0, 1), BuildingBlock: ZUJKAS_clean_linker_0, # of connection points: 2
#     Edge 22, Type (0, 1), BuildingBlock: ZUJKAS_clean_linker_0, # of connection points: 2
#     Edge 23, Type (0, 1), BuildingBlock: ZUJKAS_clean_linker_0, # of connection points: 2
#     Edge 24, Type (0, 1), BuildingBlock: ZUJKAS_clean_linker_0, # of connection points: 2
#     Edge 25, Type (0, 1), BuildingBlock: ZUJKAS_clean_linker_0, # of connection points: 2
#     Edge 26, Type (0, 1), BuildingBlock: ZUJKAS_clean_linker_0, # of connection points: 2
#     Edge 27, Type (0, 1), BuildingBlock: ZUJKAS_clean_linker_0, # of connection points: 2
#     Edge 28, Type (0, 1), BuildingBlock: ZUJKAS_clean_linker_0, # of connection points: 2
#     Edge 29, Type (0, 1), BuildingBlock: ZUJKAS_clean_linker_0, # of connection points: 2
#     Edge 30, Type (0, 1), BuildingBlock: ZUJKAS_clean_linker_0, # of connection points: 2
#     Edge 31, Type (0, 1), BuildingBlock: ZUJKAS_clean_linker_0, # of connection points: 2
#     Edge 32, Type (0, 1), BuildingBlock: ZUJKAS_clean_linker_0, # of connection points: 2
#     Edge 33, Type (0, 1), BuildingBlock: ZUJKAS_clean_linker_0, # of connection points: 2
#     Edge 34, Type (0, 1), BuildingBlock: ZUJKAS_clean_linker_0, # of connection points: 2
#     Edge 35, Type (0, 1), BuildingBlock: ZUJKAS_clean_linker_0, # of connection points: 2
# Relax obj value: 0.088
# Max RMSD: 0.101
# Mean RMSD: 0.091
data_MOF--net-apo--node1-MIDCAF_clean_sbu_0--node2-MIDCAF_clean_linker_0--edge1-ZUJKAS_clean_linker_0
_symmetry_space_group_name_H-M    P1
_symmetry_Int_Tables_number       1
_symmetry_cell_setting            triclinic
loop_
_symmetry_equiv_pos_as_xyz
'x, y, z'
_cell_length_a     52.472716
_cell_length_b     62.507901
_cell_length_c     56.35102
_cell_angle_alpha  89.929131
_cell_angle_beta   90.12514
_cell_angle_gamma 90.222721
loop_
_atom_site_label
_atom_site_type_symbol
_atom_site_fract_x
_atom_site_fract_y
_atom_site_fract_z
_atom_type_partial_charge
C0 C 0.35393 0.35163 0.47003 0.0
C1 C 0.34407 0.33454 0.48346 0.0
C2 C 0.32641 0.3206 0.4727 0.0
C3 C 0.31916 0.32347 0.44896 0.0
H4 H 0.26651 0.30399 0.39736 0.0
H5 H 0.23403 0.28183 0.37862 0.0
H6 H 0.25597 0.30642 0.30989 0.0
H7 H 0.28789 0.32909 0.32868 0.0
H8 H 0.3245 0.36945 0.32576 0.0
H9 H 0.34288 0.39929 0.30354 0.0
H10 H 0.37562 0.42435 0.36817 0.0
H11 H 0.35724 0.39474 0.39046 0.0
H12 H 0.3549 0.36782 0.43667 0.0
H13 H 0.36721 0.36292 0.47785 0.0
H14 H 0.31858 0.30718 0.48248 0.0
H15 H 0.30576 0.31227 0.44118 0.0
N16 N 0.30513 0.33008 0.39939 0.0
N17 N 0.31029 0.34856 0.36341 0.0
N18 N 0.33335 0.35919 0.39706 0.0
C19 C 0.29899 0.33262 0.37607 0.0
C20 C 0.32745 0.36195 0.37376 0.0
C21 C 0.32238 0.34328 0.41001 0.0
C22 C 0.27982 0.31843 0.36459 0.0
C23 C 0.2645 0.30464 0.37824 0.0
C24 C 0.24591 0.29181 0.36745 0.0
C25 C 0.24229 0.29229 0.34269 0.0
C26 C 0.25788 0.30587 0.32902 0.0
C27 C 0.27633 0.31881 0.33982 0.0
C28 C 0.33925 0.37968 0.35998 0.0
C29 C 0.33564 0.38129 0.33527 0.0
C30 C 0.34629 0.39832 0.32247 0.0
C31 C 0.36057 0.41423 0.33412 0.0
C32 C 0.36441 0.4125 0.35874 0.0
C33 C 0.35397 0.39542 0.37149 0.0
C34 C 0.32938 0.34039 0.43542 0.0
C35 C 0.34673 0.3545 0.44636 0.0
C36 C 0.12587 0.17434 0.97242 0.0
C37 C 0.1435 0.18579 0.98629 0.0
C38 C 0.16658 0.19239 0.97595 0.0
C39 C 0.1718 0.18776 0.95211 0.0
H40 H 0.21071 0.21101 0.89087 0.0
H41 H 0.24379 0.2293 0.8683 0.0
H42 H 0.23501 0.18331 0.81165 0.0
H43 H 0.2015 0.16539 0.83383 0.0
H44 H 0.1516 0.13632 0.83304 0.0
H45 H 0.12928 0.10599 0.81521 0.0
H46 H 0.09501 0.0912 0.88287 0.0
H47 H 0.11731 0.12132 0.90082 0.0
H48 H 0.11714 0.16051 0.93874 0.0
H49 H 0.10805 0.16881 0.97997 0.0
H50 H 0.18048 0.2013 0.98623 0.0
H51 H 0.18974 0.19304 0.94462 0.0
N52 N 0.17824 0.18081 0.90085 0.0
N53 N 0.16937 0.15954 0.8675 0.0
N54 N 0.14617 0.1546 0.90252 0.0
C55 C 0.18313 0.17546 0.87788 0.0
C56 C 0.15087 0.14902 0.87968 0.0
C57 C 0.1597 0.17045 0.91326 0.0
C58 C 0.20337 0.18669 0.86424 0.0
C59 C 0.21579 0.20479 0.87359 0.0
C60 C 0.23488 0.21523 0.86067 0.0
C61 C 0.24215 0.20778 0.83813 0.0
C62 C 0.22967 0.18972 0.82877 0.0
C63 C 0.21051 0.17934 0.84162 0.0
C64 C 0.13642 0.13124 0.86844 0.0
C65 C 0.13923 0.12668 0.84413 0.0
C66 C 0.12632 0.10938 0.83384 0.0
C67 C 0.1105 0.09617 0.84767 0.0
C68 C 0.10732 0.10095 0.87183 0.0
C69 C 0.12004 0.1183 0.88208 0.0
C70 C 0.15419 0.1761 0.9383 0.0
C71 C 0.13119 0.16947 0.94879 0.0
C72 C 0.8914 0.16413 0.53705 0.0
C73 C 0.8773 0.17872 0.52339 0.0
C74 C 0.85716 0.18981 0.53423 0.0
C75 C 0.8515 0.18651 0.5583 0.0
H76 H 0.80134 0.20321 0.61393 0.0
H77 H 0.76772 0.22208 0.63517 0.0
H78 H 0.79386 0.19472 0.70122 0.0
H79 H 0.82753 0.17605 0.68022 0.0
H80 H 0.865 0.13711 0.67967 0.0
H81 H 0.88628 0.10748 0.69958 0.0
H82 H 0.92365 0.09084 0.63394 0.0
H83 H 0.90301 0.12065 0.61419 0.0
H84 H 0.89714 0.14936 0.57072 0.0
H85 H 0.90672 0.15501 0.52918 0.0
H86 H 0.84599 0.20122 0.5242 0.0
H87 H 0.83595 0.19536 0.56615 0.0
N88 N 0.84197 0.17955 0.60909 0.0
N89 N 0.85038 0.16033 0.64408 0.0
N90 N 0.87304 0.15267 0.60946 0.0
C91 C 0.83709 0.17579 0.63248 0.0
C92 C 0.86836 0.14867 0.63271 0.0
C93 C 0.86006 0.16805 0.59747 0.0
C94 C 0.81715 0.18801 0.64529 0.0
C95 C 0.80004 0.2013 0.633 0.0
C96 C 0.78067 0.21203 0.64515 0.0
C97 C 0.77809 0.20986 0.66988 0.0
C98 C 0.79547 0.1969 0.68221 0.0
C99 C 0.8147 0.18607 0.67008 0.0
C100 C 0.88215 0.13128 0.64525 0.0
C101 C 0.8779 0.12724 0.6695 0.0
C102 C 0.89002 0.11018 0.68092 0.0
C103 C 0.90666 0.09673 0.66838 0.0
C104 C 0.91129 0.10104 0.64427 0.0
C105 C 0.89924 0.1181 0.63287 0.0
C106 C 0.86575 0.17193 0.57196 0.0
C107 C 0.88573 0.16078 0.56094 0.0
C108 C 0.64459 0.35445 0.01742 0.0
C109 C 0.65703 0.33675 0.00741 0.0
C110 C 0.67322 0.32448 0.02191 0.0
C111 C 0.67713 0.32999 0.04575 0.0
H112 H 0.71136 0.30987 0.1085 0.0
H113 H 0.74086 0.2898 0.13318 0.0
H114 H 0.7378 0.33934 0.1865 0.0
H115 H 0.70765 0.35917 0.16211 0.0
H116 H 0.66284 0.39381 0.15808 0.0
H117 H 0.64225 0.42595 0.17312 0.0
H118 H 0.6103 0.43799 0.10372 0.0
H119 H 0.63105 0.40611 0.08852 0.0
H120 H 0.63852 0.37373 0.04811 0.0
H121 H 0.63159 0.36402 0.00693 0.0
H122 H 0.68321 0.31082 0.01473 0.0
H123 H 0.68991 0.32029 0.05633 0.0
N124 N 0.68512 0.34266 0.09502 0.0
N125 N 0.67751 0.3663 0.12656 0.0
N126 N 0.65756 0.37172 0.08981 0.0
C127 C 0.68938 0.34864 0.11792 0.0
C128 C 0.66152 0.37792 0.11262 0.0
C129 C 0.66923 0.35414 0.08082 0.0
C130 C 0.70712 0.33622 0.13321 0.0
C131 C 0.7169 0.31652 0.12549 0.0
C132 C 0.73399 0.30504 0.13963 0.0
C133 C 0.74192 0.31299 0.16182 0.0
C134 C 0.73193 0.33259 0.16966 0.0
C135 C 0.7147 0.34403 0.15557 0.0
C136 C 0.64872 0.39731 0.12203 0.0
C137 C 0.65143 0.40328 0.14598 0.0
C138 C 0.6395 0.42165 0.15467 0.0
C139 C 0.62467 0.43457 0.13961 0.0
C140 C 0.62186 0.42856 0.11572 0.0
C141 C 0.63368 0.41016 0.10705 0.0
C142 C 0.66487 0.34786 0.05567 0.0
C143 C 0.64845 0.35994 0.04117 0.0
C144 C 0.67208 0.64227 0.52001 0.0
C145 C 0.67807 0.66178 0.50896 0.0
C146 C 0.68679 0.67892 0.52299 0.0
C147 C 0.68919 0.67661 0.54767 0.0
H148 H 0.7337 0.69496 0.60896 0.0
H149 H 0.76387 0.71442 0.63392 0.0
H150 H 0.73436 0.68211 0.69588 0.0
H151 H 0.70453 0.66239 0.67105 0.0
H152 H 0.6649 0.6252 0.66605 0.0
H153 H 0.63841 0.5971 0.68336 0.0
H154 H 0.60382 0.58566 0.61489 0.0
H155 H 0.63051 0.61331 0.59747 0.0
H156 H 0.66875 0.6249 0.55253 0.0
H157 H 0.66503 0.62886 0.50971 0.0
H158 H 0.69155 0.69414 0.5149 0.0
H159 H 0.69561 0.69014 0.5581 0.0
N160 N 0.6985 0.66708 0.59871 0.0
N161 N 0.68304 0.64972 0.63281 0.0
N162 N 0.6672 0.64034 0.5954 0.0
C163 C 0.69882 0.66445 0.62273 0.0
C164 C 0.66708 0.63767 0.61929 0.0
C165 C 0.68275 0.65495 0.58494 0.0
C166 C 0.71665 0.677 0.63789 0.0
C167 C 0.73356 0.69201 0.62791 0.0
C168 C 0.7508 0.70327 0.64225 0.0
C169 C 0.75159 0.69979 0.66692 0.0
C170 C 0.73453 0.68496 0.67692 0.0
C171 C 0.71728 0.67373 0.66262 0.0
C172 C 0.65008 0.62142 0.63028 0.0
C173 C 0.65157 0.61677 0.65469 0.0
C174 C 0.63626 0.60074 0.66467 0.0
C175 C 0.61912 0.58904 0.65047 0.0
C176 C 0.61715 0.59411 0.62624 0.0
C177 C 0.63245 0.61006 0.61627 0.0
C178 C 0.68235 0.65726 0.55875 0.0
C179 C 0.67402 0.64008 0.5446 0.0
C180 C 0.84736 0.83564 0.02475 0.0
C181 C 0.84351 0.81535 0.01469 0.0
C182 C 0.83643 0.7982 0.02944 0.0
C183 C 0.83324 0.80133 0.05387 0.0
H184 H 0.7844 0.78467 0.11155 0.0
H185 H 0.75253 0.76542 0.13453 0.0
H186 H 0.77728 0.79821 0.19801 0.0
H187 H 0.80884 0.81787 0.17499 0.0
H188 H 0.84588 0.8575 0.17076 0.0
H189 H 0.86987 0.88671 0.18895 0.0
H190 H 0.90735 0.89903 0.12214 0.0
H191 H 0.88376 0.86976 0.10399 0.0
H192 H 0.84822 0.85445 0.05644 0.0
H193 H 0.85307 0.84907 0.01378 0.0
H194 H 0.83338 0.7824 0.02206 0.0
H195 H 0.82788 0.78783 0.06487 0.0
N196 N 0.81975 0.81247 0.10325 0.0
N197 N 0.83152 0.83156 0.13744 0.0
N198 N 0.84941 0.84054 0.10068 0.0
C199 C 0.81749 0.8158 0.12703 0.0
C200 C 0.84762 0.84395 0.12442 0.0
C201 C 0.83563 0.82483 0.08998 0.0
C202 C 0.79917 0.80298 0.14132 0.0
C203 C 0.78322 0.78773 0.13043 0.0
C204 C 0.765 0.77655 0.14366 0.0
C205 C 0.76227 0.78028 0.16814 0.0
C206 C 0.7786 0.79516 0.17914 0.0
C207 C 0.79682 0.80637 0.16591 0.0
C208 C 0.86274 0.86127 0.13584 0.0
C209 C 0.85934 0.86633 0.15995 0.0
C210 C 0.87303 0.88313 0.17039 0.0
C211 C 0.89055 0.89519 0.15701 0.0
C212 C 0.89428 0.88988 0.13305 0.0
C213 C 0.88054 0.87317 0.12258 0.0
C214 C 0.83774 0.82154 0.06403 0.0
C215 C 0.84476 0.83866 0.04919 0.0
C216 C 0.15743 0.86077 0.5015 0.0
C217 C 0.16411 0.84042 0.51002 0.0
C218 C 0.17352 0.82518 0.49401 0.0
C219 C 0.1763 0.83024 0.46995 0.0
H220 H 0.21717 0.81326 0.41017 0.0
H221 H 0.24887 0.7947 0.38663 0.0
H222 H 0.23734 0.83949 0.3292 0.0
H223 H 0.20509 0.85786 0.35254 0.0
H224 H 0.15519 0.88791 0.35585 0.0
H225 H 0.13131 0.91765 0.33896 0.0
H226 H 0.10856 0.93709 0.40926 0.0
H227 H 0.13254 0.90747 0.42629 0.0
H228 H 0.1543 0.88152 0.47141 0.0
H229 H 0.14987 0.87275 0.51342 0.0
H230 H 0.17886 0.80939 0.50014 0.0
H231 H 0.18361 0.81814 0.45806 0.0
N232 N 0.18763 0.84432 0.4217 0.0
N233 N 0.17673 0.8657 0.38902 0.0
N234 N 0.15846 0.87233 0.42622 0.0
C235 C 0.19032 0.84921 0.39832 0.0
C236 C 0.16068 0.8773 0.40282 0.0
C237 C 0.17179 0.85582 0.43578 0.0
C238 C 0.20864 0.8372 0.38338 0.0
C239 C 0.22125 0.81916 0.3925 0.0
C240 C 0.23957 0.80855 0.37902 0.0
C241 C 0.24589 0.81574 0.35611 0.0
C242 C 0.23282 0.83343 0.34671 0.0
C243 C 0.21439 0.84403 0.36018 0.0
C244 C 0.14589 0.89527 0.39247 0.0
C245 C 0.14512 0.89849 0.36776 0.0
C246 C 0.13127 0.91546 0.35803 0.0
C247 C 0.11804 0.92971 0.37277 0.0
C248 C 0.11875 0.92649 0.39745 0.0
C249 C 0.13242 0.90943 0.40719 0.0
C250 C 0.16928 0.85053 0.46134 0.0
C251 C 0.15979 0.86573 0.4774 0.0
C252 C 0.36627 0.62854 0.98425 0.0
C253 C 0.34955 0.63853 1.00013 0.0
C254 C 0.3279 0.64895 0.99099 0.0
C255 C 0.32332 0.64956 0.96643 0.0
H256 H 0.28006 0.6799 0.91101 0.0
H257 H 0.24715 0.70117 0.89137 0.0
H258 H 0.26755 0.67327 0.82401 0.0
H259 H 0.29989 0.65188 0.84342 0.0
H260 H 0.34179 0.61782 0.83912 0.0
H261 H 0.36739 0.59356 0.81519 0.0
H262 H 0.41505 0.5803 0.87599 0.0
H263 H 0.38978 0.60464 0.89988 0.0
H264 H 0.37514 0.62109 0.94835 0.0
H265 H 0.38291 0.62011 0.99068 0.0
H266 H 0.31474 0.65693 1.00279 0.0
H267 H 0.30656 0.65777 0.95993 0.0
N268 N 0.31678 0.65154 0.91438 0.0
N269 N 0.32839 0.63878 0.87672 0.0
N270 N 0.35075 0.6275 0.91033 0.0
C271 C 0.31308 0.65118 0.8904 0.0
C272 C 0.34728 0.62693 0.88651 0.0
C273 C 0.33569 0.63966 0.92446 0.0
C274 C 0.29272 0.66411 0.87889 0.0
C275 C 0.27747 0.67824 0.89203 0.0
C276 C 0.25868 0.69053 0.88075 0.0
C277 C 0.25465 0.6889 0.8561 0.0
C278 C 0.26984 0.67471 0.84305 0.0
C279 C 0.28858 0.66251 0.85425 0.0
C280 C 0.36358 0.61311 0.87151 0.0
C281 C 0.35785 0.60989 0.84737 0.0
C282 C 0.37245 0.59593 0.83365 0.0
C283 C 0.39321 0.585 0.8437 0.0
C284 C 0.39936 0.58867 0.86764 0.0
C285 C 0.3847 0.60251 0.88139 0.0
C286 C 0.34019 0.63957 0.95056 0.0
C287 C 0.36167 0.62903 0.95987 0.0
Zn288 Zn 0.02456 0.1492 0.31273 0.0
Zn289 Zn 0.96121 0.14913 0.20033 0.0
Zn290 Zn 0.98334 0.14964 0.23898 0.0
C291 C 0.00879 0.16951 0.19297 0.0
C292 C 0.96692 0.10624 0.213 0.0
O293 O 0.96112 0.1651 0.26713 0.0
O294 O 0.99453 0.15686 0.28819 0.0
C295 C 0.03171 0.16607 0.25888 0.0
O296 O 0.01102 0.16563 0.21531 0.0
O297 O 0.98862 0.16414 0.18217 0.0
O298 O 0.9572 0.11766 0.19688 0.0
O299 O 0.97828 0.11514 0.23073 0.0
O300 O 0.0203 0.15617 0.2757 0.0
O301 O 0.02041 0.16622 0.23871 0.0
O302 O 0.99047 0.11735 0.2528 0.0
O303 O 0.00716 0.13524 0.28212 0.0
C304 C 0.00208 0.11705 0.27282 0.0
O305 O 0.94784 0.16805 0.2455 0.0
O306 O 0.93068 0.16546 0.20983 0.0
C307 C 0.97215 0.16494 0.28744 0.0
C308 C 0.92958 0.17219 0.23092 0.0
Zn309 Zn 0.52902 0.34312 0.703 0.0
Zn310 Zn 0.48733 0.34636 0.78304 0.0
Zn311 Zn 0.50732 0.34471 0.74404 0.0
C312 C 0.48361 0.38674 0.76753 0.0
C313 C 0.45985 0.31619 0.75973 0.0
O314 O 0.54321 0.32548 0.74732 0.0
O315 O 0.55443 0.32096 0.70984 0.0
C316 C 0.52897 0.38586 0.71615 0.0
O317 O 0.50068 0.37867 0.75382 0.0
O318 O 0.47039 0.37465 0.7806 0.0
O319 O 0.46636 0.32007 0.78084 0.0
O320 O 0.47103 0.32602 0.7425 0.0
O321 O 0.53997 0.3737 0.70156 0.0
O322 O 0.51469 0.37794 0.73255 0.0
O323 O 0.47883 0.33037 0.71922 0.0
O324 O 0.49867 0.33403 0.68481 0.0
C325 C 0.47909 0.3287 0.69639 0.0
O326 O 0.535 0.33085 0.76988 0.0
O327 O 0.51889 0.34528 0.80224 0.0
C328 C 0.55774 0.31689 0.73154 0.0
C329 C 0.53677 0.33547 0.79212 0.0
Zn330 Zn 0.02328 0.84906 0.80614 0.0
Zn331 Zn 0.989 0.84565 0.71829 0.0
Zn332 Zn 0.00619 0.84651 0.76208 0.0
C333 C 0.99316 0.8884 0.72965 0.0
C334 C 0.95213 0.82556 0.74587 0.0
O335 O 0.04344 0.82942 0.76354 0.0
O336 O 0.05649 0.83527 0.80034 0.0
C337 C 0.01821 0.89076 0.79101 0.0
O338 O 0.99968 0.87979 0.74957 0.0
O339 O 0.98878 0.87682 0.71176 0.0
O340 O 0.95587 0.832 0.72494 0.0
O341 O 0.96903 0.82896 0.76212 0.0
O342 O 0.02294 0.88061 0.80987 0.0
O343 O 0.01185 0.88061 0.77196 0.0
O344 O 0.97786 0.83057 0.78554 0.0
O345 O 0.99599 0.8317 0.82102 0.0
C346 C 0.97762 0.82611 0.80788 0.0
O347 O 0.03525 0.83045 0.73968 0.0
O348 O 0.01656 0.82815 0.70456 0.0
C349 C 0.06025 0.82725 0.7801 0.0
C350 C 0.03553 0.82455 0.71776 0.0
Zn351 Zn 0.49556 0.67138 0.23052 0.0
Zn352 Zn 0.47544 0.65001 0.30678 0.0
Zn353 Zn 0.49026 0.65622 0.26689 0.0
C354 C 0.52804 0.65912 0.3099 0.0
C355 C 0.46879 0.61112 0.2806 0.0
O356 O 0.46608 0.63767 0.24187 0.0
O357 O 0.45742 0.66852 0.22492 0.0
C358 C 0.53226 0.68888 0.25427 0.0
O359 O 0.52602 0.65808 0.28722 0.0
O360 O 0.5084 0.65726 0.32269 0.0
O361 O 0.46691 0.61897 0.30121 0.0
O362 O 0.47678 0.62293 0.26334 0.0
O363 O 0.51443 0.6973 0.24236 0.0
O364 O 0.52858 0.67028 0.26346 0.0
O365 O 0.49355 0.62835 0.24325 0.0
O366 O 0.5178 0.64619 0.21839 0.0
C367 C 0.51052 0.62833 0.22668 0.0
O368 O 0.46244 0.68123 0.27031 0.0
O369 O 0.44843 0.67259 0.30576 0.0
C370 C 0.45141 0.64914 0.22861 0.0
C371 C 0.44736 0.68451 0.28763 0.0
H372 H 0.08633 0.92985 0.33408 0.0
H373 H 0.06412 0.96058 0.31656 0.0
H374 H 0.09568 0.00168 0.37057 0.0
H375 H 0.11802 0.97115 0.38814 0.0
H376 H 0.02904 0.99348 0.34531 0.0
H377 H 0.11524 0.02558 0.29983 0.0
H378 H 0.11161 0.99753 0.30695 0.0
H379 H 0.11866 0.01641 0.32999 0.0
C380 C 0.08857 0.94545 0.34219 0.0
C381 C 0.10396 0.9481 0.36247 0.0
C382 C 0.07576 0.96291 0.33225 0.0
C383 C 0.07836 0.98331 0.3423 0.0
C384 C 0.09349 0.98601 0.36262 0.0
H385 H 0.04026 0.11235 0.30502 0.0
H386 H 0.05659 0.0792 0.32203 0.0
C387 C 0.10612 0.96855 0.37267 0.0
C388 C 0.0658 0.00199 0.33129 0.0
H389 H 0.07822 0.04675 0.2986 0.0
C390 C 0.03965 0.00511 0.33495 0.0
C391 C 0.07982 0.01703 0.31789 0.0
C392 C 0.10789 0.01406 0.31322 0.0
C393 C 0.02725 0.02338 0.3261 0.0
C394 C 0.04134 0.03858 0.31281 0.0
C395 C 0.06743 0.03513 0.30882 0.0
C396 C 0.02985 0.05863 0.30357 0.0
C397 C 0.99944 0.02656 0.33181 0.0
C398 C 0.00911 0.05818 0.28775 0.0
C399 C 0.99943 0.07724 0.27833 0.0
C400 C 0.01069 0.09698 0.2841 0.0
C401 C 0.03112 0.0974 0.30025 0.0
C402 C 0.04059 0.07843 0.30986 0.0
H403 H 0.99337 0.01668 0.34721 0.0
H404 H 0.99537 0.04361 0.33576 0.0
H405 H 0.98774 0.02172 0.31627 0.0
H406 H 1.00069 0.04311 0.28235 0.0
H407 H 0.98317 0.07655 0.26653 0.0
H408 H 0.44489 0.5788 0.84216 0.0
H409 H 0.46776 0.54975 0.82241 0.0
H410 H 0.39658 0.52535 0.79492 0.0
H411 H 0.37375 0.55434 0.81435 0.0
H412 H 0.4621 0.50831 0.83196 0.0
H413 H 0.44074 0.52068 0.73702 0.0
H414 H 0.43548 0.54121 0.75898 0.0
H415 H 0.41202 0.52051 0.75419 0.0
C416 C 0.43419 0.56738 0.83163 0.0
C417 C 0.40751 0.56887 0.82979 0.0
C418 C 0.44728 0.55087 0.82027 0.0
C419 C 0.43396 0.53557 0.80682 0.0
C420 C 0.4074 0.53732 0.80455 0.0
H421 H 0.43836 0.40714 0.76902 0.0
H422 H 0.43093 0.44532 0.77556 0.0
C423 C 0.39433 0.55387 0.81577 0.0
C424 C 0.4472 0.51642 0.79746 0.0
H425 H 0.45127 0.48425 0.74867 0.0
C426 C 0.46032 0.50331 0.8136 0.0
C427 C 0.44498 0.50994 0.77348 0.0
C428 C 0.43277 0.52397 0.7549 0.0
C429 C 0.46964 0.48323 0.80681 0.0
C430 C 0.46583 0.47617 0.78326 0.0
C431 C 0.45403 0.48973 0.76675 0.0
C432 C 0.47093 0.45378 0.77647 0.0
C433 C 0.48206 0.4691 0.82519 0.0
C434 C 0.49591 0.44605 0.77443 0.0
C435 C 0.50018 0.42421 0.77064 0.0
C436 C 0.4795 0.40997 0.76877 0.0
C437 C 0.45457 0.41788 0.77026 0.0
C438 C 0.45032 0.43963 0.77389 0.0
H439 H 0.48178 0.47634 0.84318 0.0
H440 H 0.47221 0.45335 0.82592 0.0
H441 H 0.50218 0.46617 0.82016 0.0
H442 H 0.51204 0.45678 0.77637 0.0
H443 H 0.51957 0.41836 0.76986 0.0
H444 H 0.61038 0.55002 0.63041 0.0
H445 H 0.58699 0.51981 0.64697 0.0
H446 H 0.57114 0.55626 0.71013 0.0
H447 H 0.59458 0.58684 0.69352 0.0
H448 H 0.5889 0.51632 0.72024 0.0
H449 H 0.51104 0.51003 0.65464 0.0
H450 H 0.54141 0.511 0.64015 0.0
H451 H 0.53084 0.53363 0.65724 0.0
C452 C 0.6015 0.55183 0.64762 0.0
C453 C 0.60417 0.57094 0.66054 0.0
C454 C 0.58807 0.53453 0.65705 0.0
C455 C 0.5768 0.53594 0.67955 0.0
C456 C 0.57947 0.55492 0.69262 0.0
H457 H 0.49381 0.41791 0.71855 0.0
H458 H 0.50177 0.45659 0.7146 0.0
C459 C 0.59298 0.57231 0.68317 0.0
C460 C 0.56396 0.51689 0.68981 0.0
H461 H 0.52179 0.47722 0.67557 0.0
C462 C 0.57383 0.508 0.71077 0.0
C463 C 0.54385 0.50628 0.67782 0.0
C464 C 0.53098 0.51588 0.65637 0.0
C465 C 0.56561 0.4879 0.71889 0.0
C466 C 0.54749 0.47628 0.70542 0.0
C467 C 0.53604 0.48598 0.68565 0.0
C468 C 0.54249 0.45328 0.70981 0.0
C469 C 0.57697 0.47898 0.74141 0.0
C470 C 0.56265 0.43866 0.70813 0.0
C471 C 0.55814 0.41677 0.71045 0.0
C472 C 0.53341 0.40907 0.71456 0.0
C473 C 0.51314 0.4236 0.71602 0.0
C474 C 0.51764 0.4456 0.71364 0.0
H475 H 0.58316 0.49202 0.75354 0.0
H476 H 0.56317 0.46853 0.75089 0.0
H477 H 0.59403 0.46936 0.73696 0.0
H478 H 0.58184 0.44416 0.70446 0.0
H479 H 0.57401 0.40581 0.70896 0.0
H480 H 0.87087 0.92588 0.1862 0.0
H481 H 0.89162 0.95872 0.19989 0.0
H482 H 0.96122 0.93993 0.16529 0.0
H483 H 0.9406 0.90696 0.15153 0.0
H484 H 0.93712 0.968 0.22659 0.0
H485 H 0.94173 0.99689 0.13314 0.0
H486 H 0.92273 0.97407 0.14174 0.0
H487 H 0.9567 0.97164 0.13913 0.0
C488 C 0.89074 0.9285 0.1819 0.0
C489 C 0.904 0.91391 0.16754 0.0
C490 C 0.90257 0.94729 0.18972 0.0
C491 C 0.92784 0.95187 0.18334 0.0
C492 C 0.94157 0.93685 0.17008 0.0
H493 H 1.00076 0.07472 0.22585 0.0
H494 H 0.99504 0.0358 0.22082 0.0
C495 C 0.92973 0.91807 0.16218 0.0
C496 C 0.93887 0.97318 0.18885 0.0
H497 H 0.95571 0.02045 0.16275 0.0
C498 C 0.94158 0.9794 0.21268 0.0
C499 C 0.94449 0.98803 0.17061 0.0
C500 C 0.94114 0.98249 0.1447 0.0
C501 C 0.94904 0.00035 0.21872 0.0
C502 C 0.95388 0.0153 0.20045 0.0
C503 C 0.95211 0.00884 0.17668 0.0
C504 C 0.95739 0.03839 0.20532 0.0
C505 C 0.95045 0.00673 0.24449 0.0
C506 C 0.93817 0.05257 0.19831 0.0
C507 C 0.94132 0.07453 0.2013 0.0
C508 C 0.96375 0.08281 0.21143 0.0
C509 C 0.98303 0.06865 0.2186 0.0
C510 C 0.97983 0.0465 0.21563 0.0
H511 H 0.94421 0.99364 0.25653 0.0
H512 H 0.97036 0.01119 0.24907 0.0
H513 H 0.93835 0.02097 0.24769 0.0
H514 H 0.92075 0.04662 0.19028 0.0
H515 H 0.92616 0.08508 0.19557 0.0
H516 H 0.95511 0.08105 0.66301 0.0
H517 H 0.97207 0.04729 0.6782 0.0
H518 H 0.90181 0.03574 0.71569 0.0
H519 H 0.88429 0.069 0.69985 0.0
H520 H 0.97925 0.02988 0.72423 0.0
H521 H 0.90813 0.98404 0.67133 0.0
H522 H 0.91388 0.01222 0.66678 0.0
H523 H 0.89464 0.0033 0.69126 0.0
C524 C 0.94324 0.07133 0.67448 0.0
C525 C 0.91819 0.07762 0.67992 0.0
C526 C 0.95307 0.05215 0.68333 0.0
C527 C 0.93805 0.03888 0.69776 0.0
C528 C 0.91357 0.04562 0.70428 0.0
H529 H 0.97361 0.91562 0.76281 0.0
H530 H 0.96287 0.95354 0.75731 0.0
C531 C 0.90368 0.06476 0.69538 0.0
C532 C 0.94729 0.01733 0.70453 0.0
H533 H 0.93514 0.96413 0.69645 0.0
C534 C 0.96951 0.01549 0.71835 0.0
C535 C 0.93482 0.9986 0.6964 0.0
C536 C 0.91168 0.99953 0.68044 0.0
C537 C 0.97942 0.99533 0.72442 0.0
C538 C 0.96674 0.97671 0.71645 0.0
C539 C 0.94461 0.97854 0.70267 0.0
C540 C 0.97661 0.95503 0.72118 0.0
C541 C 0.00384 0.99392 0.73846 0.0
C542 C 0.98806 0.94352 0.70276 0.0
C543 C 0.99436 0.92203 0.70591 0.0
C544 C 0.98929 0.91169 0.72754 0.0
C545 C 0.97826 0.92337 0.74616 0.0
C546 C 0.97206 0.94495 0.74303 0.0
H547 H 0.01017 0.00976 0.74524 0.0
H548 H 0.0014 0.98284 0.75365 0.0
H549 H 0.01905 0.98723 0.72702 0.0
H550 H 0.99143 0.95103 0.6857 0.0
H551 H 0.00266 0.91335 0.69122 0.0
H552 H 0.62197 0.47369 0.11794 0.0
H553 H 0.60146 0.50615 0.13263 0.0
H554 H 0.57933 0.47291 0.19646 0.0
H555 H 0.5994 0.44018 0.18168 0.0
H556 H 0.53956 0.4977 0.17413 0.0
H557 H 0.62878 0.54441 0.18709 0.0
H558 H 0.62517 0.53251 0.15827 0.0
H559 H 0.62854 0.51567 0.18393 0.0
C560 C 0.61261 0.47323 0.13504 0.0
C561 C 0.61236 0.45434 0.14866 0.0
C562 C 0.6011 0.49185 0.1435 0.0
C563 C 0.58916 0.49199 0.16574 0.0
C564 C 0.5886 0.47315 0.1793 0.0
H565 H 0.50609 0.58829 0.24569 0.0
H566 H 0.52391 0.55498 0.23064 0.0
C567 C 0.60021 0.45452 0.1709 0.0
C568 C 0.57704 0.51178 0.17471 0.0
H569 H 0.58997 0.5632 0.1913 0.0
C570 C 0.55054 0.51202 0.178 0.0
C571 C 0.59145 0.53041 0.17968 0.0
C572 C 0.62009 0.5308 0.17728 0.0
C573 C 0.53795 0.53059 0.18563 0.0
C574 C 0.55237 0.54926 0.19057 0.0
C575 C 0.57891 0.54893 0.1874 0.0
C576 C 0.54046 0.56932 0.19922 0.0
C577 C 0.50928 0.53015 0.18772 0.0
C578 C 0.54422 0.58861 0.18687 0.0
C579 C 0.53418 0.60775 0.19557 0.0
C580 C 0.52015 0.60797 0.21679 0.0
C581 C 0.51631 0.58862 0.22905 0.0
C582 C 0.52647 0.56951 0.22042 0.0
H583 H 0.50074 0.51716 0.17683 0.0
H584 H 0.50398 0.5272 0.2065 0.0
H585 H 0.50085 0.54563 0.18211 0.0
H586 H 0.55507 0.58887 0.17054 0.0
H587 H 0.53755 0.62239 0.18574 0.0
H588 H 0.35941 0.45624 0.347 0.0
H589 H 0.37816 0.4868 0.32631 0.0
H590 H 0.40409 0.44516 0.27047 0.0
H591 H 0.38556 0.41429 0.29135 0.0
H592 H 0.44203 0.47303 0.28837 0.0
H593 H 0.3545 0.5176 0.26567 0.0
H594 H 0.3551 0.50961 0.29626 0.0
H595 H 0.35413 0.48952 0.27341 0.0
C596 C 0.36906 0.45356 0.3303 0.0
C597 C 0.37107 0.43284 0.32084 0.0
C598 C 0.37951 0.47108 0.31835 0.0
C599 C 0.39214 0.46831 0.29665 0.0
C600 C 0.39416 0.44767 0.28706 0.0
H601 H 0.4494 0.59189 0.24042 0.0
H602 H 0.43288 0.55501 0.2372 0.0
C603 C 0.38351 0.43009 0.29896 0.0
C604 C 0.40467 0.48693 0.28515 0.0
H605 H 0.3933 0.53863 0.26884 0.0
C606 C 0.43136 0.4872 0.2835 0.0
C607 C 0.39074 0.50528 0.27835 0.0
C608 C 0.36201 0.50545 0.27826 0.0
C609 C 0.44453 0.50599 0.27732 0.0
C610 C 0.43065 0.52493 0.27291 0.0
C611 C 0.40394 0.52413 0.27242 0.0
C612 C 0.4432 0.5462 0.2731 0.0
C613 C 0.47326 0.50575 0.27673 0.0
C614 C 0.45446 0.55332 0.29424 0.0
C615 C 0.46344 0.57423 0.2962 0.0
C616 C 0.46152 0.58849 0.27701 0.0
C617 C 0.45117 0.58118 0.25545 0.0
C618 C 0.44175 0.56019 0.2536 0.0
H619 H 0.48057 0.48946 0.27292 0.0
H620 H 0.48073 0.51704 0.26317 0.0
H621 H 0.48074 0.51071 0.29433 0.0
H622 H 0.45538 0.54293 0.30962 0.0
H623 H 0.47145 0.57937 0.313 0.0
H624 H 0.10827 0.05606 0.86649 0.0
H625 H 0.08846 0.02413 0.84934 0.0
H626 H 0.06516 0.06061 0.78813 0.0
H627 H 0.08498 0.09284 0.80524 0.0
H628 H 0.02595 0.02982 0.81662 0.0
H629 H 0.11636 0.99488 0.78327 0.0
H630 H 0.11729 0.00675 0.81237 0.0
H631 H 0.11191 0.02336 0.78688 0.0
C632 C 0.09874 0.05737 0.84948 0.0
C633 C 0.09811 0.07697 0.83723 0.0
C634 C 0.08757 0.03911 0.83968 0.0
C635 C 0.07546 0.04011 0.81752 0.0
C636 C 0.0745 0.05962 0.80526 0.0
H637 H 0.03673 0.91587 0.75525 0.0
H638 H 0.04625 0.95429 0.75687 0.0
C639 C 0.0859 0.07792 0.81499 0.0
C640 C 0.06409 0.02049 0.80738 0.0
H641 H 0.08065 0.97162 0.78577 0.0
C642 C 0.03775 0.01718 0.80944 0.0
C643 C 0.07955 0.00424 0.79782 0.0
C644 C 0.10786 0.0074 0.79473 0.0
C645 C 0.02664 0.99742 0.80346 0.0
C646 C 0.04241 0.98058 0.79544 0.0
C647 C 0.06853 0.98446 0.79196 0.0
C648 C 0.03302 0.95827 0.79296 0.0
C649 C 0.99824 0.99473 0.8065 0.0
C650 C 0.02221 0.9478 0.81258 0.0
C651 C 0.01648 0.926 0.81156 0.0
C652 C 0.02154 0.91421 0.79092 0.0
C653 C 0.03205 0.92471 0.77115 0.0
C654 C 0.03763 0.9466 0.77213 0.0
H655 H 0.98818 0.00989 0.80231 0.0
H656 H 0.99035 0.98183 0.79511 0.0
H657 H 0.99415 0.99073 0.82531 0.0
H658 H 0.01915 0.95628 0.82907 0.0
H659 H 0.00869 0.91822 0.82714 0.0
H660 H 0.09938 0.20171 0.00433 0.0
H661 H 0.08763 0.2055 0.046 0.0
H662 H 0.16227 0.18393 0.06716 0.0
H663 H 0.17413 0.17992 0.02522 0.0
H664 H 0.12203 0.16136 0.08823 0.0
H665 H 0.10711 0.24828 0.09805 0.0
H666 H 0.09142 0.23789 0.07217 0.0
H667 H 0.12565 0.237 0.07417 0.0
C668 C 0.11341 0.19804 0.01784 0.0
C669 C 0.13763 0.19044 0.01153 0.0
C670 C 0.10678 0.20044 0.04166 0.0
C671 C 0.1242 0.19532 0.05971 0.0
C672 C 0.14865 0.18822 0.0535 0.0
H673 H 0.06037 0.16846 0.20232 0.0
H674 H 0.09477 0.17795 0.17459 0.0
C675 C 0.15541 0.18599 0.02958 0.0
C676 C 0.11554 0.19517 0.08477 0.0
H677 H 0.08306 0.22545 0.12487 0.0
C678 C 0.11416 0.17546 0.09664 0.0
C679 C 0.10544 0.21362 0.09571 0.0
C680 C 0.10771 0.23543 0.08445 0.0
C681 C 0.10078 0.17331 0.11809 0.0
C682 C 0.0889 0.19148 0.1281 0.0
C683 C 0.09211 0.21152 0.11718 0.0
C684 C 0.06938 0.18929 0.147 0.0
C685 C 0.09768 0.1513 0.12879 0.0
C686 C 0.04392 0.19362 0.14122 0.0
C687 C 0.02444 0.1884 0.15697 0.0
C688 C 0.02994 0.17879 0.17894 0.0
C689 C 0.05556 0.17588 0.18554 0.0
C690 C 0.07519 0.1811 0.16963 0.0
H691 H 0.1055 0.13855 0.1172 0.0
H692 H 0.10783 0.15064 0.14606 0.0
H693 H 0.07723 0.14779 0.1321 0.0
H694 H 0.03896 0.19999 0.12393 0.0
H695 H 0.00491 0.19104 0.15145 0.0
H696 H 0.39235 0.3385 0.50121 0.0
H697 H 0.40645 0.33456 0.54226 0.0
H698 H 0.32973 0.31889 0.5635 0.0
H699 H 0.3153 0.32303 0.52228 0.0
H700 H 0.38828 0.35815 0.58164 0.0
H701 H 0.37376 0.27045 0.59301 0.0
H702 H 0.37516 0.28295 0.56412 0.0
H703 H 0.34721 0.28576 0.5821 0.0
C704 C 0.37839 0.33432 0.51458 0.0
C705 C 0.35264 0.33122 0.50843 0.0
C706 C 0.38652 0.33196 0.53803 0.0
C707 C 0.36919 0.32631 0.55591 0.0
C708 C 0.3435 0.32294 0.54992 0.0
H709 H 0.43079 0.34436 0.70009 0.0
H710 H 0.39731 0.34163 0.66968 0.0
C711 C 0.3353 0.32531 0.52635 0.0
C712 C 0.37826 0.32478 0.58084 0.0
H713 H 0.392 0.28916 0.62507 0.0
C714 C 0.38875 0.34315 0.59133 0.0
C715 C 0.37887 0.30515 0.59334 0.0
C716 C 0.36832 0.28486 0.58263 0.0
C717 C 0.40088 0.34229 0.61353 0.0
C718 C 0.40214 0.32254 0.62584 0.0
C719 C 0.39073 0.30431 0.61575 0.0
C720 C 0.41852 0.32003 0.6472 0.0
C721 C 0.41366 0.36228 0.62288 0.0
C722 C 0.44064 0.3076 0.6455 0.0
C723 C 0.45943 0.30883 0.66301 0.0
C724 C 0.45635 0.32235 0.68268 0.0
C725 C 0.43329 0.33335 0.68546 0.0
C726 C 0.41437 0.33208 0.66789 0.0
H727 H 0.41457 0.37518 0.60932 0.0
H728 H 0.40277 0.36841 0.63828 0.0
H729 H 0.43335 0.35876 0.62895 0.0
H730 H 0.44427 0.29818 0.62974 0.0
H731 H 0.47718 0.30037 0.66036 0.0
H732 H 0.65034 0.297 0.98742 0.0
H733 H 0.64063 0.28863 0.94585 0.0
H734 H 0.64362 0.35585 0.92865 0.0
H735 H 0.6542 0.36421 0.96971 0.0
H736 H 0.59911 0.30098 0.92182 0.0
H737 H 0.68333 0.3315 0.87422 0.0
H738 H 0.68347 0.32698 0.90589 0.0
H739 H 0.6712 0.3516 0.89377 0.0
C740 C 0.64953 0.30994 0.97465 0.0
C741 C 0.65295 0.33129 0.98194 0.0
C742 C 0.64389 0.30513 0.95091 0.0
C743 C 0.64183 0.32156 0.93398 0.0
C744 C 0.64575 0.34282 0.94117 0.0
H745 H 0.56345 0.36307 0.81882 0.0
H746 H 0.59434 0.35455 0.84979 0.0
C747 C 0.65139 0.34762 0.9648 0.0
C748 C 0.63293 0.31702 0.9094 0.0
H749 H 0.64338 0.3314 0.85172 0.0
C750 C 0.60914 0.30702 0.90637 0.0
C751 C 0.64611 0.32471 0.88919 0.0
C752 C 0.67257 0.33407 0.89093 0.0
C753 C 0.59714 0.30633 0.88407 0.0
C754 C 0.60937 0.31574 0.86426 0.0
C755 C 0.634 0.32423 0.86693 0.0
C756 C 0.59495 0.32063 0.84227 0.0
C757 C 0.57058 0.29712 0.8822 0.0
C758 C 0.58589 0.30447 0.82702 0.0
C759 C 0.56831 0.30941 0.80901 0.0
C760 C 0.55958 0.33049 0.80631 0.0
C761 C 0.56999 0.34671 0.82057 0.0
C762 C 0.58763 0.34186 0.83824 0.0
H763 H 0.5631 0.29171 0.89965 0.0
H764 H 0.55736 0.30925 0.87475 0.0
H765 H 0.57067 0.28323 0.86997 0.0
H766 H 0.59145 0.28799 0.82979 0.0
H767 H 0.56033 0.29665 0.79831 0.0
H768 H 0.92461 0.18257 0.50374 0.0
H769 H 0.93565 0.18385 0.4617 0.0
H770 H 0.85593 0.18358 0.44308 0.0
H771 H 0.84462 0.18205 0.48532 0.0
H772 H 0.91955 0.15085 0.42911 0.0
H773 H 0.88815 0.23207 0.401 0.0
H774 H 0.89453 0.22549 0.43168 0.0
H775 H 0.86598 0.21594 0.41765 0.0
C776 C 0.90937 0.18288 0.49074 0.0
C777 C 0.88372 0.18198 0.4979 0.0
C778 C 0.91573 0.18374 0.46672 0.0
C779 C 0.89663 0.1839 0.44928 0.0
C780 C 0.87096 0.18378 0.45628 0.0
H781 H 0.92094 0.17116 0.29496 0.0
H782 H 0.89985 0.17696 0.33338 0.0
C783 C 0.86454 0.18291 0.48041 0.0
C784 C 0.90393 0.1823 0.42393 0.0
H785 H 0.90674 0.21013 0.37169 0.0
C786 C 0.91659 0.16376 0.41653 0.0
C787 C 0.8998 0.19907 0.4075 0.0
C788 C 0.8865 0.21937 0.41473 0.0
C789 C 0.9258 0.16172 0.39332 0.0
C790 C 0.92269 0.17883 0.37715 0.0
C791 C 0.90918 0.19709 0.3842 0.0
C792 C 0.93499 0.17833 0.35349 0.0
C793 C 0.93908 0.14129 0.38635 0.0
C794 C 0.96165 0.17804 0.35203 0.0
C795 C 0.97364 0.17471 0.33029 0.0
C796 C 0.95923 0.1717 0.3095 0.0
C797 C 0.93253 0.17337 0.3107 0.0
C798 C 0.92047 0.17666 0.3326 0.0
H799 H 0.93408 0.12786 0.39842 0.0
H800 H 0.93414 0.13666 0.36788 0.0
H801 H 0.96001 0.14379 0.38732 0.0
H802 H 0.97319 0.17966 0.36789 0.0
H803 H 0.99424 0.17394 0.32992 0.0
H804 H 0.87487 0.78612 0.99424 0.0
H805 H 0.8874 0.78409 0.95245 0.0
H806 H 0.83461 0.83464 0.93546 0.0
H807 H 0.82299 0.83737 0.97747 0.0
H808 H 0.86507 0.77662 0.91042 0.0
H809 H 0.89967 0.86077 0.91298 0.0
H810 H 0.88952 0.84678 0.93927 0.0
H811 H 0.86635 0.85787 0.91916 0.0
C812 C 0.86575 0.7966 0.9815 0.0
C813 C 0.84824 0.81208 0.98904 0.0
C814 C 0.87288 0.79543 0.95763 0.0
C815 C 0.86241 0.80957 0.94085 0.0
C816 C 0.84355 0.82402 0.94815 0.0
H817 H 0.92772 0.83655 0.80092 0.0
H818 H 0.89287 0.8294 0.82893 0.0
C819 C 0.83681 0.82549 0.9721 0.0
C820 C 0.8727 0.81012 0.91627 0.0
H821 H 0.90467 0.84228 0.87724 0.0
C822 C 0.87347 0.79105 0.90307 0.0
C823 C 0.88374 0.82894 0.9066 0.0
C824 C 0.88504 0.8497 0.92028 0.0
C825 C 0.88569 0.79016 0.8809 0.0
C826 C 0.89729 0.80881 0.87168 0.0
C827 C 0.89542 0.82807 0.88426 0.0
C828 C 0.91501 0.80824 0.85126 0.0
C829 C 0.88676 0.76919 0.86776 0.0
C830 C 0.93861 0.79809 0.85407 0.0
C831 C 0.9585 0.80237 0.83835 0.0
C832 C 0.95504 0.81668 0.81941 0.0
C833 C 0.93073 0.82524 0.81523 0.0
C834 C 0.91087 0.82123 0.83125 0.0
H835 H 0.87132 0.75814 0.87351 0.0
H836 H 0.88525 0.77176 0.8483 0.0
H837 H 0.9053 0.76137 0.87146 0.0
H838 H 0.94236 0.78832 0.86957 0.0
H839 H 0.97713 0.79569 0.842 0.0
H840 H 0.69255 0.6351 0.47306 0.0
H841 H 0.67944 0.63667 0.43136 0.0
H842 H 0.63857 0.69509 0.44529 0.0
H843 H 0.65232 0.69388 0.4867 0.0
H844 H 0.63304 0.63296 0.4166 0.0
H845 H 0.66825 0.71023 0.38267 0.0
H846 H 0.67978 0.69888 0.41012 0.0
H847 H 0.65082 0.71434 0.40956 0.0
C848 C 0.68127 0.64853 0.46703 0.0
C849 C 0.67347 0.66439 0.4831 0.0
C850 C 0.67381 0.64944 0.4432 0.0
C851 C 0.65827 0.66615 0.43497 0.0
C852 C 0.65121 0.68239 0.45089 0.0
H853 H 0.53584 0.68496 0.34737 0.0
H854 H 0.57359 0.68707 0.37258 0.0
C855 C 0.65895 0.68163 0.47464 0.0
C856 C 0.64661 0.66514 0.41086 0.0
H857 H 0.6299 0.69608 0.3633 0.0
C858 C 0.63303 0.64655 0.40461 0.0
C859 C 0.64661 0.68279 0.39507 0.0
C860 C 0.66242 0.70257 0.39962 0.0
C861 C 0.61791 0.64575 0.38405 0.0
C862 C 0.61635 0.66399 0.36929 0.0
C863 C 0.63114 0.68211 0.37467 0.0
C864 C 0.59611 0.66571 0.35104 0.0
C865 C 0.6022 0.62596 0.37914 0.0
C866 C 0.59663 0.65362 0.33001 0.0
C867 C 0.57498 0.65255 0.31533 0.0
C868 C 0.55261 0.66331 0.32182 0.0
C869 C 0.55281 0.67639 0.34207 0.0
C870 C 0.57439 0.67769 0.35643 0.0
H871 H 0.60462 0.61352 0.39306 0.0
H872 H 0.58169 0.63018 0.37798 0.0
H873 H 0.60786 0.61904 0.36182 0.0
H874 H 0.61328 0.64426 0.32558 0.0
H875 H 0.5752 0.64228 0.29986 0.0
H876 H 0.3165 0.63092 0.03705 0.0
H877 H 0.32667 0.62937 0.07965 0.0
H878 H 0.40543 0.64322 0.0641 0.0
H879 H 0.39544 0.64515 0.02182 0.0
H880 H 0.36471 0.60216 0.10405 0.0
H881 H 0.38361 0.68912 0.1134 0.0
H882 H 0.366 0.67806 0.0887 0.0
H883 H 0.40022 0.67681 0.08918 0.0
C884 C 0.33592 0.63383 0.04277 0.0
C885 C 0.35516 0.63817 0.02605 0.0
C886 C 0.34173 0.63276 0.06706 0.0
C887 C 0.36678 0.63626 0.075 0.0
C888 C 0.38595 0.64059 0.05836 0.0
H889 H 0.45518 0.61422 0.20002 0.0
H890 H 0.42931 0.60799 0.16443 0.0
C891 C 0.38022 0.64157 0.03418 0.0
C892 C 0.37316 0.63577 0.10067 0.0
H893 H 0.39827 0.66674 0.14467 0.0
C894 C 0.37173 0.61631 0.11311 0.0
C895 C 0.38202 0.65428 0.11249 0.0
C896 C 0.38287 0.67581 0.10036 0.0
C897 C 0.37995 0.61474 0.13687 0.0
C898 C 0.39008 0.63306 0.1483 0.0
C899 C 0.39055 0.65264 0.13601 0.0
C900 C 0.40155 0.63249 0.17249 0.0
C901 C 0.37777 0.59351 0.14945 0.0
C902 C 0.39411 0.64773 0.18939 0.0
C903 C 0.40907 0.65147 0.20949 0.0
C904 C 0.43154 0.63983 0.21327 0.0
C905 C 0.43761 0.62307 0.19775 0.0
C906 C 0.42283 0.61954 0.17735 0.0
H907 H 0.36248 0.58343 0.14153 0.0
H908 H 0.39602 0.58476 0.14766 0.0
H909 H 0.37376 0.59567 0.16863 0.0
H910 H 0.3778 0.65789 0.1861 0.0
H911 H 0.40419 0.66464 0.2211 0.0
H912 H 0.17919 0.86348 0.54876 0.0
H913 H 0.1697 0.85609 0.59051 0.0
H914 H 0.12996 0.79838 0.57009 0.0
H915 H 0.14023 0.80536 0.52851 0.0
H916 H 0.12492 0.85566 0.609 0.0
H917 H 0.16637 0.77635 0.62693 0.0
H918 H 0.1745 0.79167 0.60082 0.0
H919 H 0.14616 0.77526 0.6013 0.0
C920 C 0.16882 0.84903 0.55329 0.0
C921 C 0.16043 0.83499 0.53543 0.0
C922 C 0.16348 0.84477 0.57714 0.0
C923 C 0.14946 0.82647 0.58361 0.0
C924 C 0.14153 0.81221 0.56576 0.0
H925 H 0.03902 0.79585 0.68195 0.0
H926 H 0.07395 0.7937 0.65354 0.0
C927 C 0.14721 0.8163 0.54194 0.0
C928 C 0.14029 0.82377 0.60843 0.0
H929 H 0.13099 0.78676 0.65238 0.0
C930 C 0.12688 0.84078 0.61873 0.0
C931 C 0.14279 0.80435 0.62122 0.0
C932 C 0.15849 0.78598 0.61206 0.0
C933 C 0.11458 0.8385 0.64065 0.0
C934 C 0.11582 0.81869 0.65276 0.0
C935 C 0.13016 0.80195 0.64308 0.0
C936 C 0.09914 0.81447 0.67344 0.0
C937 C 0.09895 0.8569 0.64997 0.0
C938 C 0.1025 0.8256 0.69488 0.0
C939 C 0.08253 0.82673 0.7113 0.0
C940 C 0.05902 0.81686 0.70627 0.0
C941 C 0.05692 0.80367 0.68618 0.0
C942 C 0.07688 0.80242 0.66994 0.0
H943 H 0.0977 0.87033 0.6371 0.0
H944 H 0.07932 0.85143 0.65425 0.0
H945 H 0.10773 0.86305 0.66656 0.0
H946 H 0.11965 0.83491 0.69792 0.0
H947 H 0.0846 0.8371 0.72657 0.0
H948 H 0.22752 0.25136 0.35414 0.0
H949 H 0.19299 0.23026 0.33657 0.0
H950 H 0.17707 0.28141 0.28747 0.0
H951 H 0.21102 0.30299 0.30536 0.0
H952 H 0.13923 0.24587 0.33287 0.0
H953 H 0.1832 0.22479 0.24617 0.0
H954 H 0.20208 0.23191 0.27186 0.0
H955 H 0.18528 0.25222 0.25576 0.0
C956 C 0.21663 0.25823 0.3397 0.0
C957 C 0.22208 0.27895 0.33125 0.0
C958 C 0.19704 0.24605 0.32956 0.0
C959 C 0.18271 0.25421 0.31059 0.0
C960 C 0.18822 0.27472 0.30186 0.0
H961 H 0.05193 0.19989 0.23402 0.0
H962 H 0.08908 0.22176 0.24529 0.0
C963 C 0.2077 0.28699 0.31209 0.0
C964 C 0.16101 0.24172 0.30093 0.0
H965 H 0.14089 0.2132 0.25266 0.0
C966 C 0.13956 0.23872 0.31534 0.0
C967 C 0.16144 0.23269 0.27795 0.0
C968 C 0.18424 0.23539 0.26196 0.0
C969 C 0.11848 0.22683 0.30743 0.0
C970 C 0.11918 0.21714 0.28473 0.0
C971 C 0.14045 0.22052 0.27009 0.0
C972 C 0.09828 0.20292 0.27639 0.0
C973 C 0.09549 0.22501 0.32339 0.0
C974 C 0.0918 0.18464 0.28955 0.0
C975 C 0.07066 0.1723 0.28326 0.0
C976 C 0.05574 0.17777 0.26344 0.0
C977 C 0.0631 0.19531 0.24938 0.0
C978 C 0.08424 0.20783 0.25583 0.0
H979 H 0.09482 0.23831 0.33644 0.0
H980 H 0.07752 0.22504 0.31295 0.0
H981 H 0.09651 0.20979 0.33348 0.0
H982 H 0.10281 0.18019 0.30506 0.0
H983 H 0.06577 0.15862 0.29416 0.0
H984 H 0.24473 0.21541 0.79011 0.0
H985 H 0.27941 0.23261 0.76805 0.0
H986 H 0.32088 0.24217 0.8333 0.0
H987 H 0.28675 0.22457 0.85544 0.0
H988 H 0.31528 0.27967 0.80163 0.0
H989 H 0.353 0.20686 0.75705 0.0
H990 H 0.31921 0.21175 0.75573 0.0
H991 H 0.33385 0.20532 0.7836 0.0
C992 C 0.26135 0.22094 0.79976 0.0
C993 C 0.26292 0.21857 0.82459 0.0
C994 C 0.2811 0.23082 0.78711 0.0
C995 C 0.30272 0.23851 0.79905 0.0
C996 C 0.30429 0.23634 0.82379 0.0
H997 H 0.45297 0.2776 0.78014 0.0
H998 H 0.41287 0.25782 0.78332 0.0
C999 C 0.28467 0.2264 0.83642 0.0
C1000 C 0.32375 0.24914 0.78605 0.0
H1001 H 0.37545 0.23908 0.75112 0.0
C1002 C 0.32822 0.27093 0.79024 0.0
C1003 C 0.34055 0.23759 0.7713 0.0
C1004 C 0.33665 0.21405 0.76662 0.0
C1005 C 0.34966 0.28136 0.78079 0.0
C1006 C 0.36693 0.26967 0.7666 0.0
C1007 C 0.36198 0.24803 0.76174 0.0
C1008 C 0.39197 0.27888 0.7599 0.0
C1009 C 0.35445 0.30447 0.78722 0.0
C1010 C 0.39382 0.29666 0.74469 0.0
C1011 C 0.41687 0.30793 0.74275 0.0
C1012 C 0.43822 0.3015 0.75595 0.0
C1013 C 0.43677 0.28277 0.76966 0.0
C1014 C 0.41389 0.27147 0.77149 0.0
H1015 H 0.341 0.31032 0.80093 0.0
H1016 H 0.37422 0.30662 0.79391 0.0
H1017 H 0.35223 0.31458 0.77116 0.0
H1018 H 0.3771 0.30258 0.73554 0.0
H1019 H 0.41734 0.32263 0.73265 0.0
H1020 H 0.72808 0.21244 0.65663 0.0
H1021 H 0.6931 0.22953 0.67801 0.0
H1022 H 0.74495 0.24812 0.73378 0.0
H1023 H 0.78022 0.23122 0.71236 0.0
H1024 H 0.67808 0.22035 0.72959 0.0
H1025 H 0.70683 0.30453 0.70995 0.0
H1026 H 0.71701 0.2826 0.69146 0.0
H1027 H 0.73045 0.28592 0.72049 0.0
C1028 C 0.73212 0.22034 0.67332 0.0
C1029 C 0.75696 0.22057 0.68273 0.0
C1030 C 0.71208 0.22993 0.6856 0.0
C1031 C 0.7165 0.24009 0.70741 0.0
C1032 C 0.74121 0.24039 0.71692 0.0
H1033 H 0.59601 0.32291 0.76415 0.0
H1034 H 0.63593 0.30236 0.76638 0.0
C1035 C 0.76128 0.23066 0.70472 0.0
C1036 C 0.69506 0.25051 0.71987 0.0
H1037 H 0.6671 0.29912 0.72795 0.0
C1038 C 0.67583 0.2376 0.72963 0.0
C1039 C 0.69242 0.27299 0.72024 0.0
C1040 C 0.71266 0.28746 0.70995 0.0
C1041 C 0.65336 0.24657 0.73866 0.0
C1042 C 0.6498 0.26897 0.73731 0.0
C1043 C 0.66982 0.28196 0.72902 0.0
C1044 C 0.6243 0.27883 0.74029 0.0
C1045 C 0.63333 0.23189 0.74891 0.0
C1046 C 0.60435 0.27213 0.7254 0.0
C1047 C 0.58179 0.28374 0.72419 0.0
C1048 C 0.57862 0.30228 0.73785 0.0
C1049 C 0.59784 0.30837 0.75386 0.0
C1050 C 0.62067 0.29676 0.75497 0.0
H1051 H 0.64221 0.21762 0.75726 0.0
H1052 H 0.62149 0.24017 0.76235 0.0
H1053 H 0.62071 0.22613 0.73442 0.0
H1054 H 0.60684 0.25876 0.71344 0.0
H1055 H 0.56733 0.2789 0.71151 0.0
H1056 H 0.7839 0.29121 0.14644 0.0
H1057 H 0.814 0.27044 0.16992 0.0
H1058 H 0.77426 0.28774 0.23394 0.0
H1059 H 0.74316 0.30782 0.21039 0.0
H1060 H 0.84659 0.28267 0.20548 0.0
H1061 H 0.77639 0.22289 0.23897 0.0
H1062 H 0.76888 0.24126 0.21528 0.0
H1063 H 0.76985 0.25047 0.24545 0.0
C1064 C 0.78126 0.2904 0.16548 0.0
C1065 C 0.76083 0.301 0.17644 0.0
C1066 C 0.7987 0.27868 0.17893 0.0
C1067 C 0.79625 0.27729 0.20368 0.0
C1068 C 0.77629 0.28827 0.21483 0.0
H1069 H 0.92808 0.20603 0.26225 0.0
H1070 H 0.89442 0.23336 0.26413 0.0
C1071 C 0.75869 0.29994 0.20134 0.0
C1072 C 0.81456 0.26398 0.21734 0.0
H1073 H 0.81939 0.21689 0.24781 0.0
C1074 C 0.84068 0.26847 0.21513 0.0
C1075 C 0.80675 0.24552 0.23 0.0
C1076 C 0.77898 0.23956 0.23252 0.0
C1077 C 0.85924 0.25429 0.22374 0.0
C1078 C 0.85143 0.23527 0.23538 0.0
C1079 C 0.82532 0.23155 0.23907 0.0
C1080 C 0.86943 0.21727 0.23916 0.0
C1081 C 0.88693 0.25897 0.2186 0.0
C1082 C 0.86577 0.19856 0.22588 0.0
C1083 C 0.88469 0.18305 0.22497 0.0
C1084 C 0.90772 0.18581 0.23736 0.0
C1085 C 0.91052 0.20354 0.25248 0.0
C1086 C 0.89143 0.21924 0.25336 0.0
H1087 H 0.88942 0.27302 0.20672 0.0
H1088 H 0.89709 0.26234 0.23548 0.0
H1089 H 0.8961 0.24492 0.21017 0.0
H1090 H 0.84895 0.19658 0.21489 0.0
H1091 H 0.88188 0.16942 0.21337 0.0
H1092 H 0.76564 0.74199 0.66444 0.0
H1093 H 0.79757 0.76068 0.68847 0.0
H1094 H 0.81129 0.70292 0.72831 0.0
H1095 H 0.77986 0.68391 0.70393 0.0
H1096 H 0.8004 0.76633 0.73929 0.0
H1097 H 0.88241 0.72033 0.70322 0.0
H1098 H 0.85159 0.72038 0.68895 0.0
H1099 H 0.85645 0.70514 0.71558 0.0
C1100 C 0.77556 0.7332 0.6782 0.0
C1101 C 0.77032 0.7114 0.68212 0.0
C1102 C 0.79363 0.74396 0.69206 0.0
C1103 C 0.80694 0.73314 0.71003 0.0
C1104 C 0.80142 0.71151 0.71437 0.0
H1105 H 0.94555 0.78937 0.77289 0.0
H1106 H 0.9081 0.76548 0.77197 0.0
C1107 C 0.7833 0.70073 0.70053 0.0
C1108 C 0.82714 0.7445 0.72356 0.0
H1109 H 0.89177 0.74852 0.72915 0.0
C1110 C 0.82037 0.76226 0.73738 0.0
C1111 C 0.85315 0.739 0.7213 0.0
C1112 C 0.86151 0.72027 0.70637 0.0
C1113 C 0.83902 0.77525 0.74809 0.0
C1114 C 0.86508 0.77057 0.74451 0.0
C1115 C 0.87178 0.75204 0.73197 0.0
C1116 C 0.88546 0.78642 0.74978 0.0
C1117 C 0.83065 0.79423 0.76257 0.0
C1118 C 0.88489 0.80626 0.73818 0.0
C1119 C 0.90611 0.8197 0.73858 0.0
C1120 C 0.92838 0.81364 0.75064 0.0
C1121 C 0.92848 0.79448 0.76369 0.0
C1122 C 0.90718 0.78082 0.76307 0.0
H1123 H 0.81184 0.79119 0.77097 0.0
H1124 H 0.84475 0.79818 0.77664 0.0
H1125 H 0.82859 0.80832 0.75073 0.0
H1126 H 0.86866 0.81076 0.72739 0.0
H1127 H 0.9056 0.83437 0.72832 0.0
H1128 H 0.74641 0.73848 0.16485 0.0
H1129 H 0.7101 0.72164 0.18482 0.0
H1130 H 0.69552 0.78026 0.22253 0.0
H1131 H 0.73149 0.79736 0.20242 0.0
H1132 H 0.69102 0.74054 0.25074 0.0
H1133 H 0.63614 0.73981 0.16611 0.0
H1134 H 0.66715 0.72772 0.16514 0.0
H1135 H 0.66439 0.75597 0.17017 0.0
C1136 C 0.73551 0.74781 0.1774 0.0
C1137 C 0.74175 0.76935 0.18185 0.0
C1138 C 0.71486 0.73811 0.18888 0.0
C1139 C 0.70004 0.74978 0.20498 0.0
C1140 C 0.7068 0.77098 0.21022 0.0
H1141 H 0.54378 0.72999 0.24239 0.0
H1142 H 0.58587 0.74481 0.23402 0.0
C1143 C 0.72742 0.7807 0.19873 0.0
C1144 C 0.6764 0.74044 0.21501 0.0
H1145 H 0.61649 0.72426 0.19945 0.0
C1146 C 0.67472 0.73688 0.23958 0.0
C1147 C 0.65513 0.73593 0.20038 0.0
C1148 C 0.65556 0.74017 0.174 0.0
C1149 C 0.65222 0.72881 0.24989 0.0
C1150 C 0.63104 0.72424 0.2352 0.0
C1151 C 0.63281 0.72777 0.21066 0.0
C1152 C 0.60637 0.71642 0.24468 0.0
C1153 C 0.651 0.72569 0.2764 0.0
C1154 C 0.60399 0.69576 0.25425 0.0
C1155 C 0.57983 0.68719 0.25913 0.0
C1156 C 0.55774 0.69914 0.2543 0.0
C1157 C 0.56038 0.72031 0.24617 0.0
C1158 C 0.58444 0.72883 0.24137 0.0
H1159 H 0.66726 0.73352 0.28565 0.0
H1160 H 0.63291 0.73219 0.28355 0.0
H1161 H 0.65147 0.70833 0.28048 0.0
H1162 H 0.62066 0.68582 0.25666 0.0
H1163 H 0.57841 0.67079 0.26519 0.0
H1164 H 0.2475 0.8065 0.30836 0.0
H1165 H 0.28196 0.78891 0.28653 0.0
H1166 H 0.32522 0.78327 0.35137 0.0
H1167 H 0.29153 0.80146 0.37304 0.0
H1168 H 0.35426 0.79746 0.31293 0.0
H1169 H 0.29757 0.72474 0.28989 0.0
H1170 H 0.28486 0.75017 0.28088 0.0
H1171 H 0.28698 0.74369 0.31186 0.0
C1172 C 0.26446 0.80168 0.31791 0.0
C1173 C 0.26663 0.80519 0.34252 0.0
C1174 C 0.28402 0.79146 0.30544 0.0
C1175 C 0.306 0.78453 0.31739 0.0
C1176 C 0.30838 0.7884 0.34181 0.0
H1177 H 0.42856 0.70537 0.32565 0.0
H1178 H 0.39535 0.73245 0.3265 0.0
C1179 C 0.28895 0.79861 0.35423 0.0
C1180 C 0.32662 0.77291 0.30496 0.0
H1181 H 0.34128 0.72411 0.28153 0.0
C1182 C 0.35133 0.7816 0.30559 0.0
C1183 C 0.32275 0.75227 0.29524 0.0
C1184 C 0.29668 0.74201 0.29447 0.0
C1185 C 0.37245 0.76968 0.29818 0.0
C1186 C 0.36875 0.74855 0.29004 0.0
C1187 C 0.34394 0.7404 0.2877 0.0
C1188 C 0.39032 0.73348 0.28842 0.0
C1189 C 0.39876 0.77927 0.30035 0.0
C1190 C 0.39854 0.72514 0.26662 0.0
C1191 C 0.41791 0.7097 0.26603 0.0
C1192 C 0.42871 0.70215 0.28731 0.0
C1193 C 0.42052 0.7108 0.30898 0.0
C1194 C 0.40163 0.72635 0.3095 0.0
H1195 H 0.39811 0.79703 0.30087 0.0
H1196 H 0.40771 0.77358 0.31705 0.0
H1197 H 0.41099 0.7742 0.28533 0.0
H1198 H 0.38981 0.73038 0.25019 0.0
H1199 H 0.42378 0.70317 0.24912 0.0
H1200 H 0.24317 0.73114 0.86342 0.0
H1201 H 0.21141 0.75283 0.84261 0.0
H1202 H 0.19056 0.69848 0.79963 0.0
H1203 H 0.22175 0.67651 0.82076 0.0
H1204 H 0.20788 0.76155 0.79267 0.0
H1205 H 0.12206 0.71902 0.82687 0.0
H1206 H 0.15306 0.71618 0.84042 0.0
H1207 H 0.14591 0.70265 0.81311 0.0
C1208 C 0.2316 0.72371 0.84977 0.0
C1209 C 0.23496 0.70205 0.84385 0.0
C1210 C 0.21362 0.73618 0.83774 0.0
C1211 C 0.1985 0.72723 0.81969 0.0
C1212 C 0.20181 0.70565 0.81367 0.0
H1213 H 0.06621 0.79049 0.75403 0.0
H1214 H 0.10193 0.76522 0.75725 0.0
C1215 C 0.21981 0.69317 0.82566 0.0
C1216 C 0.17927 0.74057 0.80727 0.0
H1217 H 0.11515 0.7478 0.80086 0.0
C1218 C 0.1876 0.75845 0.79427 0.0
C1219 C 0.15284 0.73634 0.80911 0.0
C1220 C 0.14279 0.71761 0.82324 0.0
C1221 C 0.17018 0.77257 0.78368 0.0
C1222 C 0.14373 0.76894 0.78653 0.0
C1223 C 0.13542 0.75051 0.79857 0.0
C1224 C 0.12451 0.78546 0.78038 0.0
C1225 C 0.18026 0.79145 0.76985 0.0
C1226 C 0.12567 0.80538 0.79175 0.0
C1227 C 0.10542 0.81966 0.78999 0.0
C1228 C 0.08353 0.81436 0.77682 0.0
C1229 C 0.08299 0.79506 0.76408 0.0
C1230 C 0.10329 0.78059 0.76604 0.0
H1231 H 0.19924 0.78793 0.76211 0.0
H1232 H 0.16703 0.79608 0.75534 0.0
H1233 H 0.18256 0.8053 0.78199 0.0
H1234 H 0.14153 0.80936 0.80328 0.0
H1235 H 0.10632 0.83442 0.80003 0.0
loop_
_geom_bond_atom_site_label_1
_geom_bond_atom_site_label_2
_geom_bond_distance
_geom_bond_site_symmetry_2
_ccdc_geom_bond_type
C0 C1 1.384 . S
C0 H13 0.947 . S
C0 C35 1.382 . S
C1 C0 1.384 . S
C1 C2 1.378 . S
C2 C1 1.378 . S
C2 C3 1.378 . S
C2 H14 0.952 . S
C3 C2 1.378 . S
C3 H15 0.950 . S
C3 C34 1.383 . S
H4 C23 0.947 . S
H5 C24 0.946 . S
H6 C26 0.953 . S
H7 C27 0.945 . S
H8 C29 0.952 . S
H9 C30 0.949 . S
H10 C32 0.950 . S
H11 C33 0.948 . S
H12 C35 0.951 . S
H13 C0 0.947 . S
H14 C2 0.952 . S
H15 C3 0.950 . S
N16 C19 1.382 . S
N16 C21 1.363 . S
N17 C19 1.371 . S
N17 C20 1.372 . S
N18 C20 1.361 . S
N18 C21 1.377 . S
C19 N16 1.382 . S
C19 N17 1.371 . S
C19 C22 1.480 . S
C20 N17 1.372 . S
C20 N18 1.361 . S
C20 C28 1.457 . S
C21 N16 1.363 . S
C21 N18 1.377 . S
C21 C34 1.479 . S
C22 C19 1.480 . S
C22 C23 1.383 . S
C22 C27 1.385 . S
C23 H4 0.947 . S
C23 C22 1.383 . S
C23 C24 1.388 . S
C24 H5 0.946 . S
C24 C23 1.388 . S
C24 C25 1.384 . S
C25 C24 1.384 . S
C25 C26 1.377 . S
C26 H6 0.953 . S
C26 C25 1.377 . S
C26 C27 1.369 . S
C27 H7 0.945 . S
C27 C22 1.385 . S
C27 C26 1.369 . S
C28 C20 1.457 . S
C28 C29 1.372 . S
C28 C33 1.364 . S
C29 H8 0.952 . S
C29 C28 1.372 . S
C29 C30 1.389 . S
C30 H9 0.949 . S
C30 C29 1.389 . S
C30 C31 1.387 . S
C31 C30 1.387 . S
C31 C32 1.372 . S
C32 H10 0.950 . S
C32 C31 1.372 . S
C32 C33 1.379 . S
C33 H11 0.948 . S
C33 C28 1.364 . S
C33 C32 1.379 . S
C34 C3 1.383 . S
C34 C21 1.479 . S
C34 C35 1.398 . S
C35 C0 1.382 . S
C35 H12 0.951 . S
C35 C34 1.398 . S
C36 C37 1.384 . S
C36 H49 0.947 . S
C36 C71 1.382 . S
C37 C36 1.384 . S
C37 C38 1.378 . S
C38 C37 1.378 . S
C38 C39 1.378 . S
C38 H50 0.952 . S
C39 C38 1.378 . S
C39 H51 0.950 . S
C39 C70 1.383 . S
H40 C59 0.947 . S
H41 C60 0.946 . S
H42 C62 0.953 . S
H43 C63 0.945 . S
H44 C65 0.952 . S
H45 C66 0.949 . S
H46 C68 0.950 . S
H47 C69 0.948 . S
H48 C71 0.951 . S
H49 C36 0.947 . S
H50 C38 0.952 . S
H51 C39 0.950 . S
N52 C55 1.382 . S
N52 C57 1.363 . S
N53 C55 1.371 . S
N53 C56 1.372 . S
N54 C56 1.361 . S
N54 C57 1.377 . S
C55 N52 1.382 . S
C55 N53 1.371 . S
C55 C58 1.480 . S
C56 N53 1.372 . S
C56 N54 1.361 . S
C56 C64 1.457 . S
C57 N52 1.363 . S
C57 N54 1.377 . S
C57 C70 1.479 . S
C58 C55 1.480 . S
C58 C59 1.383 . S
C58 C63 1.385 . S
C59 H40 0.947 . S
C59 C58 1.383 . S
C59 C60 1.388 . S
C60 H41 0.946 . S
C60 C59 1.388 . S
C60 C61 1.384 . S
C61 C60 1.384 . S
C61 C62 1.377 . S
C62 H42 0.953 . S
C62 C61 1.377 . S
C62 C63 1.369 . S
C63 H43 0.945 . S
C63 C58 1.385 . S
C63 C62 1.369 . S
C64 C56 1.457 . S
C64 C65 1.372 . S
C64 C69 1.364 . S
C65 H44 0.952 . S
C65 C64 1.372 . S
C65 C66 1.389 . S
C66 H45 0.949 . S
C66 C65 1.389 . S
C66 C67 1.387 . S
C67 C66 1.387 . S
C67 C68 1.372 . S
C68 H46 0.950 . S
C68 C67 1.372 . S
C68 C69 1.379 . S
C69 H47 0.948 . S
C69 C64 1.364 . S
C69 C68 1.379 . S
C70 C39 1.383 . S
C70 C57 1.479 . S
C70 C71 1.398 . S
C71 C36 1.382 . S
C71 H48 0.951 . S
C71 C70 1.398 . S
C72 C73 1.384 . S
C72 H85 0.947 . S
C72 C107 1.382 . S
C73 C72 1.384 . S
C73 C74 1.378 . S
C74 C73 1.378 . S
C74 C75 1.378 . S
C74 H86 0.952 . S
C75 C74 1.378 . S
C75 H87 0.950 . S
C75 C106 1.383 . S
H76 C95 0.947 . S
H77 C96 0.946 . S
H78 C98 0.953 . S
H79 C99 0.945 . S
H80 C101 0.952 . S
H81 C102 0.949 . S
H82 C104 0.950 . S
H83 C105 0.948 . S
H84 C107 0.951 . S
H85 C72 0.947 . S
H86 C74 0.952 . S
H87 C75 0.950 . S
N88 C91 1.382 . S
N88 C93 1.363 . S
N89 C91 1.371 . S
N89 C92 1.372 . S
N90 C92 1.361 . S
N90 C93 1.377 . S
C91 N88 1.382 . S
C91 N89 1.371 . S
C91 C94 1.480 . S
C92 N89 1.372 . S
C92 N90 1.361 . S
C92 C100 1.457 . S
C93 N88 1.363 . S
C93 N90 1.377 . S
C93 C106 1.479 . S
C94 C91 1.480 . S
C94 C95 1.383 . S
C94 C99 1.385 . S
C95 H76 0.947 . S
C95 C94 1.383 . S
C95 C96 1.388 . S
C96 H77 0.946 . S
C96 C95 1.388 . S
C96 C97 1.384 . S
C97 C96 1.384 . S
C97 C98 1.377 . S
C98 H78 0.953 . S
C98 C97 1.377 . S
C98 C99 1.369 . S
C99 H79 0.945 . S
C99 C94 1.385 . S
C99 C98 1.369 . S
C100 C92 1.457 . S
C100 C101 1.372 . S
C100 C105 1.364 . S
C101 H80 0.952 . S
C101 C100 1.372 . S
C101 C102 1.389 . S
C102 H81 0.949 . S
C102 C101 1.389 . S
C102 C103 1.387 . S
C103 C102 1.387 . S
C103 C104 1.372 . S
C104 H82 0.950 . S
C104 C103 1.372 . S
C104 C105 1.379 . S
C105 H83 0.948 . S
C105 C100 1.364 . S
C105 C104 1.379 . S
C106 C75 1.383 . S
C106 C93 1.479 . S
C106 C107 1.398 . S
C107 C72 1.382 . S
C107 H84 0.951 . S
C107 C106 1.398 . S
C108 C109 1.384 . S
C108 H121 0.947 . S
C108 C143 1.382 . S
C109 C108 1.384 . S
C109 C110 1.378 . S
C110 C109 1.378 . S
C110 C111 1.378 . S
C110 H122 0.952 . S
C111 C110 1.378 . S
C111 H123 0.950 . S
C111 C142 1.383 . S
H112 C131 0.947 . S
H113 C132 0.946 . S
H114 C134 0.953 . S
H115 C135 0.945 . S
H116 C137 0.952 . S
H117 C138 0.949 . S
H118 C140 0.950 . S
H119 C141 0.948 . S
H120 C143 0.951 . S
H121 C108 0.947 . S
H122 C110 0.952 . S
H123 C111 0.950 . S
N124 C127 1.382 . S
N124 C129 1.363 . S
N125 C127 1.371 . S
N125 C128 1.372 . S
N126 C128 1.361 . S
N126 C129 1.377 . S
C127 N124 1.382 . S
C127 N125 1.371 . S
C127 C130 1.480 . S
C128 N125 1.372 . S
C128 N126 1.361 . S
C128 C136 1.457 . S
C129 N124 1.363 . S
C129 N126 1.377 . S
C129 C142 1.479 . S
C130 C127 1.480 . S
C130 C131 1.383 . S
C130 C135 1.385 . S
C131 H112 0.947 . S
C131 C130 1.383 . S
C131 C132 1.388 . S
C132 H113 0.946 . S
C132 C131 1.388 . S
C132 C133 1.384 . S
C133 C132 1.384 . S
C133 C134 1.377 . S
C134 H114 0.953 . S
C134 C133 1.377 . S
C134 C135 1.369 . S
C135 H115 0.945 . S
C135 C130 1.385 . S
C135 C134 1.369 . S
C136 C128 1.457 . S
C136 C137 1.372 . S
C136 C141 1.364 . S
C137 H116 0.952 . S
C137 C136 1.372 . S
C137 C138 1.389 . S
C138 H117 0.949 . S
C138 C137 1.389 . S
C138 C139 1.387 . S
C139 C138 1.387 . S
C139 C140 1.372 . S
C140 H118 0.950 . S
C140 C139 1.372 . S
C140 C141 1.379 . S
C141 H119 0.948 . S
C141 C136 1.364 . S
C141 C140 1.379 . S
C142 C111 1.383 . S
C142 C129 1.479 . S
C142 C143 1.398 . S
C143 C108 1.382 . S
C143 H120 0.951 . S
C143 C142 1.398 . S
C144 C145 1.384 . S
C144 H157 0.947 . S
C144 C179 1.382 . S
C145 C144 1.384 . S
C145 C146 1.378 . S
C146 C145 1.378 . S
C146 C147 1.378 . S
C146 H158 0.952 . S
C147 C146 1.378 . S
C147 H159 0.950 . S
C147 C178 1.383 . S
H148 C167 0.947 . S
H149 C168 0.946 . S
H150 C170 0.953 . S
H151 C171 0.945 . S
H152 C173 0.952 . S
H153 C174 0.949 . S
H154 C176 0.950 . S
H155 C177 0.948 . S
H156 C179 0.951 . S
H157 C144 0.947 . S
H158 C146 0.952 . S
H159 C147 0.950 . S
N160 C163 1.382 . S
N160 C165 1.363 . S
N161 C163 1.371 . S
N161 C164 1.372 . S
N162 C164 1.361 . S
N162 C165 1.377 . S
C163 N160 1.382 . S
C163 N161 1.371 . S
C163 C166 1.480 . S
C164 N161 1.372 . S
C164 N162 1.361 . S
C164 C172 1.457 . S
C165 N160 1.363 . S
C165 N162 1.377 . S
C165 C178 1.479 . S
C166 C163 1.480 . S
C166 C167 1.383 . S
C166 C171 1.385 . S
C167 H148 0.947 . S
C167 C166 1.383 . S
C167 C168 1.388 . S
C168 H149 0.946 . S
C168 C167 1.388 . S
C168 C169 1.384 . S
C169 C168 1.384 . S
C169 C170 1.377 . S
C170 H150 0.953 . S
C170 C169 1.377 . S
C170 C171 1.369 . S
C171 H151 0.945 . S
C171 C166 1.385 . S
C171 C170 1.369 . S
C172 C164 1.457 . S
C172 C173 1.372 . S
C172 C177 1.364 . S
C173 H152 0.952 . S
C173 C172 1.372 . S
C173 C174 1.389 . S
C174 H153 0.949 . S
C174 C173 1.389 . S
C174 C175 1.387 . S
C175 C174 1.387 . S
C175 C176 1.372 . S
C176 H154 0.950 . S
C176 C175 1.372 . S
C176 C177 1.379 . S
C177 H155 0.948 . S
C177 C172 1.364 . S
C177 C176 1.379 . S
C178 C147 1.383 . S
C178 C165 1.479 . S
C178 C179 1.398 . S
C179 C144 1.382 . S
C179 H156 0.951 . S
C179 C178 1.398 . S
C180 C181 1.384 . S
C180 H193 0.947 . S
C180 C215 1.382 . S
C181 C180 1.384 . S
C181 C182 1.378 . S
C182 C181 1.378 . S
C182 C183 1.378 . S
C182 H194 0.952 . S
C183 C182 1.378 . S
C183 H195 0.950 . S
C183 C214 1.383 . S
H184 C203 0.947 . S
H185 C204 0.946 . S
H186 C206 0.953 . S
H187 C207 0.945 . S
H188 C209 0.952 . S
H189 C210 0.949 . S
H190 C212 0.950 . S
H191 C213 0.948 . S
H192 C215 0.951 . S
H193 C180 0.947 . S
H194 C182 0.952 . S
H195 C183 0.950 . S
N196 C199 1.382 . S
N196 C201 1.363 . S
N197 C199 1.371 . S
N197 C200 1.372 . S
N198 C200 1.361 . S
N198 C201 1.377 . S
C199 N196 1.382 . S
C199 N197 1.371 . S
C199 C202 1.480 . S
C200 N197 1.372 . S
C200 N198 1.361 . S
C200 C208 1.457 . S
C201 N196 1.363 . S
C201 N198 1.377 . S
C201 C214 1.479 . S
C202 C199 1.480 . S
C202 C203 1.383 . S
C202 C207 1.385 . S
C203 H184 0.947 . S
C203 C202 1.383 . S
C203 C204 1.388 . S
C204 H185 0.946 . S
C204 C203 1.388 . S
C204 C205 1.384 . S
C205 C204 1.384 . S
C205 C206 1.377 . S
C206 H186 0.953 . S
C206 C205 1.377 . S
C206 C207 1.369 . S
C207 H187 0.945 . S
C207 C202 1.385 . S
C207 C206 1.369 . S
C208 C200 1.457 . S
C208 C209 1.372 . S
C208 C213 1.364 . S
C209 H188 0.952 . S
C209 C208 1.372 . S
C209 C210 1.389 . S
C210 H189 0.949 . S
C210 C209 1.389 . S
C210 C211 1.387 . S
C211 C210 1.387 . S
C211 C212 1.372 . S
C212 H190 0.950 . S
C212 C211 1.372 . S
C212 C213 1.379 . S
C213 H191 0.948 . S
C213 C208 1.364 . S
C213 C212 1.379 . S
C214 C183 1.383 . S
C214 C201 1.479 . S
C214 C215 1.398 . S
C215 C180 1.382 . S
C215 H192 0.951 . S
C215 C214 1.398 . S
C216 C217 1.384 . S
C216 H229 0.947 . S
C216 C251 1.382 . S
C217 C216 1.384 . S
C217 C218 1.378 . S
C218 C217 1.378 . S
C218 C219 1.378 . S
C218 H230 0.952 . S
C219 C218 1.378 . S
C219 H231 0.950 . S
C219 C250 1.383 . S
H220 C239 0.947 . S
H221 C240 0.946 . S
H222 C242 0.953 . S
H223 C243 0.945 . S
H224 C245 0.952 . S
H225 C246 0.949 . S
H226 C248 0.950 . S
H227 C249 0.948 . S
H228 C251 0.951 . S
H229 C216 0.947 . S
H230 C218 0.952 . S
H231 C219 0.950 . S
N232 C235 1.382 . S
N232 C237 1.363 . S
N233 C235 1.371 . S
N233 C236 1.372 . S
N234 C236 1.361 . S
N234 C237 1.377 . S
C235 N232 1.382 . S
C235 N233 1.371 . S
C235 C238 1.480 . S
C236 N233 1.372 . S
C236 N234 1.361 . S
C236 C244 1.457 . S
C237 N232 1.363 . S
C237 N234 1.377 . S
C237 C250 1.479 . S
C238 C235 1.480 . S
C238 C239 1.383 . S
C238 C243 1.385 . S
C239 H220 0.947 . S
C239 C238 1.383 . S
C239 C240 1.388 . S
C240 H221 0.946 . S
C240 C239 1.388 . S
C240 C241 1.384 . S
C241 C240 1.384 . S
C241 C242 1.377 . S
C242 H222 0.953 . S
C242 C241 1.377 . S
C242 C243 1.369 . S
C243 H223 0.945 . S
C243 C238 1.385 . S
C243 C242 1.369 . S
C244 C236 1.457 . S
C244 C245 1.372 . S
C244 C249 1.364 . S
C245 H224 0.952 . S
C245 C244 1.372 . S
C245 C246 1.389 . S
C246 H225 0.949 . S
C246 C245 1.389 . S
C246 C247 1.387 . S
C247 C246 1.387 . S
C247 C248 1.372 . S
C248 H226 0.950 . S
C248 C247 1.372 . S
C248 C249 1.379 . S
C249 H227 0.948 . S
C249 C244 1.364 . S
C249 C248 1.379 . S
C250 C219 1.383 . S
C250 C237 1.479 . S
C250 C251 1.398 . S
C251 C216 1.382 . S
C251 H228 0.951 . S
C251 C250 1.398 . S
C252 C253 1.384 . S
C252 H265 0.947 . S
C252 C287 1.382 . S
C253 C252 1.384 . S
C253 C254 1.378 . S
C254 C253 1.378 . S
C254 C255 1.378 . S
C254 H266 0.952 . S
C255 C254 1.378 . S
C255 H267 0.950 . S
C255 C286 1.383 . S
H256 C275 0.947 . S
H257 C276 0.946 . S
H258 C278 0.953 . S
H259 C279 0.945 . S
H260 C281 0.952 . S
H261 C282 0.949 . S
H262 C284 0.950 . S
H263 C285 0.948 . S
H264 C287 0.951 . S
H265 C252 0.947 . S
H266 C254 0.952 . S
H267 C255 0.950 . S
N268 C271 1.382 . S
N268 C273 1.363 . S
N269 C271 1.371 . S
N269 C272 1.372 . S
N270 C272 1.361 . S
N270 C273 1.377 . S
C271 N268 1.382 . S
C271 N269 1.371 . S
C271 C274 1.480 . S
C272 N269 1.372 . S
C272 N270 1.361 . S
C272 C280 1.457 . S
C273 N268 1.363 . S
C273 N270 1.377 . S
C273 C286 1.479 . S
C274 C271 1.480 . S
C274 C275 1.383 . S
C274 C279 1.385 . S
C275 H256 0.947 . S
C275 C274 1.383 . S
C275 C276 1.388 . S
C276 H257 0.946 . S
C276 C275 1.388 . S
C276 C277 1.384 . S
C277 C276 1.384 . S
C277 C278 1.377 . S
C278 H258 0.953 . S
C278 C277 1.377 . S
C278 C279 1.369 . S
C279 H259 0.945 . S
C279 C274 1.385 . S
C279 C278 1.369 . S
C280 C272 1.457 . S
C280 C281 1.372 . S
C280 C285 1.364 . S
C281 H260 0.952 . S
C281 C280 1.372 . S
C281 C282 1.389 . S
C282 H261 0.949 . S
C282 C281 1.389 . S
C282 C283 1.387 . S
C283 C282 1.387 . S
C283 C284 1.372 . S
C284 H262 0.950 . S
C284 C283 1.372 . S
C284 C285 1.379 . S
C285 H263 0.948 . S
C285 C280 1.364 . S
C285 C284 1.379 . S
C286 C255 1.383 . S
C286 C273 1.479 . S
C286 C287 1.398 . S
C287 C252 1.382 . S
C287 H264 0.951 . S
C287 C286 1.398 . S
Zn288 O294 1.920 1_455 S
Zn288 O300 1.898 . S
Zn288 O303 1.905 . S
Zn289 O297 1.905 1_655 S
Zn289 O298 1.898 . S
Zn289 O306 1.920 . S
Zn290 O293 2.061 1_455 S
Zn290 O296 2.134 . S
Zn290 O299 2.093 1_455 S
Zn290 O301 2.143 . S
Zn290 O302 2.141 . S
Zn290 O305 2.057 1_455 S
C291 O296 1.166 . S
C291 O297 1.182 . S
C292 O298 1.167 . S
C292 O299 1.299 . S
O293 Zn290 2.061 1_655 S
O293 C307 1.305 . S
O294 Zn288 1.920 1_655 S
O294 C307 1.234 . S
C295 O300 1.167 . S
C295 O301 1.299 . S
O296 Zn290 2.134 . S
O296 C291 1.166 . S
O297 Zn289 1.905 1_455 S
O297 C291 1.182 . S
O298 Zn289 1.898 . S
O298 C292 1.167 . S
O299 Zn290 2.093 1_655 S
O299 C292 1.299 . S
O300 Zn288 1.898 . S
O300 C295 1.167 . S
O301 Zn290 2.143 . S
O301 C295 1.299 . S
O302 Zn290 2.141 . S
O302 C304 1.166 . S
O303 Zn288 1.905 . S
O303 C304 1.182 . S
C304 O302 1.166 . S
C304 O303 1.182 . S
O305 Zn290 2.057 1_655 S
O305 C308 1.305 . S
O306 Zn289 1.920 . S
O306 C308 1.234 . S
C307 O293 1.305 . S
C307 O294 1.234 . S
C308 O305 1.305 . S
C308 O306 1.234 . S
Zn309 O315 1.920 . S
Zn309 O321 1.898 . S
Zn309 O324 1.905 . S
Zn310 O318 1.905 . S
Zn310 O319 1.898 . S
Zn310 O327 1.920 . S
Zn311 O314 2.080 . S
Zn311 O317 2.114 . S
Zn311 O320 2.120 . S
Zn311 O322 2.120 . S
Zn311 O323 2.114 . S
Zn311 O326 2.080 . S
C312 O317 1.166 . S
C312 O318 1.182 . S
C313 O319 1.167 . S
C313 O320 1.299 . S
O314 Zn311 2.080 . S
O314 C328 1.305 . S
O315 Zn309 1.920 . S
O315 C328 1.234 . S
C316 O321 1.167 . S
C316 O322 1.299 . S
O317 Zn311 2.114 . S
O317 C312 1.166 . S
O318 Zn310 1.905 . S
O318 C312 1.182 . S
O319 Zn310 1.898 . S
O319 C313 1.167 . S
O320 Zn311 2.120 . S
O320 C313 1.299 . S
O321 Zn309 1.898 . S
O321 C316 1.167 . S
O322 Zn311 2.120 . S
O322 C316 1.299 . S
O323 Zn311 2.114 . S
O323 C325 1.166 . S
O324 Zn309 1.905 . S
O324 C325 1.182 . S
C325 O323 1.166 . S
C325 O324 1.182 . S
O326 Zn311 2.080 . S
O326 C329 1.305 . S
O327 Zn310 1.920 . S
O327 C329 1.234 . S
C328 O314 1.305 . S
C328 O315 1.234 . S
C329 O326 1.305 . S
C329 O327 1.234 . S
Zn330 O336 1.920 . S
Zn330 O342 1.898 . S
Zn330 O345 1.905 1_455 S
Zn331 O339 1.905 . S
Zn331 O340 1.898 . S
Zn331 O348 1.920 1_655 S
Zn332 O335 2.080 . S
Zn332 O338 2.114 1_455 S
Zn332 O341 2.120 1_455 S
Zn332 O343 2.120 . S
Zn332 O344 2.114 1_455 S
Zn332 O347 2.080 . S
C333 O338 1.166 . S
C333 O339 1.182 . S
C334 O340 1.167 . S
C334 O341 1.299 . S
O335 Zn332 2.080 . S
O335 C349 1.305 . S
O336 Zn330 1.920 . S
O336 C349 1.234 . S
C337 O342 1.167 . S
C337 O343 1.299 . S
O338 Zn332 2.114 1_655 S
O338 C333 1.166 . S
O339 Zn331 1.905 . S
O339 C333 1.182 . S
O340 Zn331 1.898 . S
O340 C334 1.167 . S
O341 Zn332 2.120 1_655 S
O341 C334 1.299 . S
O342 Zn330 1.898 . S
O342 C337 1.167 . S
O343 Zn332 2.120 . S
O343 C337 1.299 . S
O344 Zn332 2.114 1_655 S
O344 C346 1.166 . S
O345 Zn330 1.905 1_655 S
O345 C346 1.182 . S
C346 O344 1.166 . S
C346 O345 1.182 . S
O347 Zn332 2.080 . S
O347 C350 1.305 . S
O348 Zn331 1.920 1_455 S
O348 C350 1.234 . S
C349 O335 1.305 . S
C349 O336 1.234 . S
C350 O347 1.305 . S
C350 O348 1.234 . S
Zn351 O357 1.920 . S
Zn351 O363 1.898 . S
Zn351 O366 1.905 . S
Zn352 O360 1.905 . S
Zn352 O361 1.898 . S
Zn352 O369 1.920 . S
Zn353 O356 2.080 . S
Zn353 O359 2.114 . S
Zn353 O362 2.120 . S
Zn353 O364 2.120 . S
Zn353 O365 2.114 . S
Zn353 O368 2.080 . S
C354 O359 1.166 . S
C354 O360 1.182 . S
C355 O361 1.167 . S
C355 O362 1.299 . S
O356 Zn353 2.080 . S
O356 C370 1.305 . S
O357 Zn351 1.920 . S
O357 C370 1.234 . S
C358 O363 1.167 . S
C358 O364 1.299 . S
O359 Zn353 2.114 . S
O359 C354 1.166 . S
O360 Zn352 1.905 . S
O360 C354 1.182 . S
O361 Zn352 1.898 . S
O361 C355 1.167 . S
O362 Zn353 2.120 . S
O362 C355 1.299 . S
O363 Zn351 1.898 . S
O363 C358 1.167 . S
O364 Zn353 2.120 . S
O364 C358 1.299 . S
O365 Zn353 2.114 . S
O365 C367 1.166 . S
O366 Zn351 1.905 . S
O366 C367 1.182 . S
C367 O365 1.166 . S
C367 O366 1.182 . S
O368 Zn353 2.080 . S
O368 C371 1.305 . S
O369 Zn352 1.920 . S
O369 C371 1.234 . S
C370 O356 1.305 . S
C370 O357 1.234 . S
C371 O368 1.305 . S
C371 O369 1.234 . S
H372 C380 0.929 . S
H373 C382 0.930 . S
H374 C384 0.930 . S
H375 C387 0.929 . S
H376 C390 0.930 . S
H377 C392 0.960 . S
H378 C392 0.960 1_565 S
H379 C392 0.960 . S
C380 H372 0.929 . S
C380 C381 1.377 . S
C380 C382 1.384 . S
C381 C380 1.377 . S
C381 C387 1.390 . S
C382 H373 0.930 . S
C382 C380 1.384 . S
C382 C383 1.372 . S
C383 C382 1.372 . S
C383 C384 1.400 . S
C383 C388 1.490 . S
C384 H374 0.930 . S
C384 C383 1.400 . S
C384 C387 1.386 . S
H385 C401 0.930 . S
H386 C402 0.931 . S
C387 H375 0.929 . S
C387 C381 1.390 . S
C387 C384 1.386 . S
C388 C383 1.490 . S
C388 C390 1.395 . S
C388 C391 1.403 1_565 S
H389 C395 0.930 . S
C390 H376 0.930 . S
C390 C388 1.395 . S
C390 C393 1.403 1_565 S
C391 C388 1.403 1_545 S
C391 C392 1.524 . S
C391 C395 1.400 . S
C392 H377 0.960 . S
C392 H378 0.960 1_545 S
C392 H379 0.960 . S
C392 C391 1.524 . S
C393 C390 1.403 1_545 S
C393 C394 1.392 . S
C393 C397 1.495 . S
C394 C393 1.392 . S
C394 C395 1.385 . S
C394 C396 1.478 . S
C395 H389 0.930 . S
C395 C391 1.400 . S
C395 C394 1.385 . S
C396 C394 1.478 . S
C396 C398 1.381 . S
C396 C402 1.383 . S
C397 C393 1.495 . S
C397 H403 0.959 . S
C397 H404 0.961 . S
C397 H405 0.960 . S
C398 C396 1.381 . S
C398 C399 1.394 . S
C398 H406 0.930 . S
C399 C398 1.394 . S
C399 C400 1.383 . S
C399 H407 0.929 . S
C400 C399 1.383 . S
C400 C401 1.377 . S
C401 H385 0.930 . S
C401 C400 1.377 . S
C401 C402 1.379 . S
C402 H386 0.931 . S
C402 C396 1.383 . S
C402 C401 1.379 . S
H403 C397 0.959 . S
H404 C397 0.961 . S
H405 C397 0.960 . S
H406 C398 0.930 . S
H407 C399 0.929 . S
H408 C416 0.929 . S
H409 C418 0.930 . S
H410 C420 0.930 . S
H411 C423 0.929 . S
H412 C426 0.930 . S
H413 C428 0.960 . S
H414 C428 0.960 . S
H415 C428 0.960 . S
C416 H408 0.929 . S
C416 C417 1.377 . S
C416 C418 1.384 . S
C417 C416 1.377 . S
C417 C423 1.390 . S
C418 H409 0.930 . S
C418 C416 1.384 . S
C418 C419 1.372 . S
C419 C418 1.372 . S
C419 C420 1.400 . S
C419 C424 1.490 . S
C420 H410 0.930 . S
C420 C419 1.400 . S
C420 C423 1.386 . S
H421 C437 0.930 . S
H422 C438 0.931 . S
C423 H411 0.929 . S
C423 C417 1.390 . S
C423 C420 1.386 . S
C424 C419 1.490 . S
C424 C426 1.395 . S
C424 C427 1.403 . S
H425 C431 0.930 . S
C426 H412 0.930 . S
C426 C424 1.395 . S
C426 C429 1.403 . S
C427 C424 1.403 . S
C427 C428 1.524 . S
C427 C431 1.400 . S
C428 H413 0.960 . S
C428 H414 0.960 . S
C428 H415 0.960 . S
C428 C427 1.524 . S
C429 C426 1.403 . S
C429 C430 1.392 . S
C429 C433 1.495 . S
C430 C429 1.392 . S
C430 C431 1.385 . S
C430 C432 1.478 . S
C431 H425 0.930 . S
C431 C427 1.400 . S
C431 C430 1.385 . S
C432 C430 1.478 . S
C432 C434 1.381 . S
C432 C438 1.383 . S
C433 C429 1.495 . S
C433 H439 0.959 . S
C433 H440 0.961 . S
C433 H441 0.960 . S
C434 C432 1.381 . S
C434 C435 1.394 . S
C434 H442 0.930 . S
C435 C434 1.394 . S
C435 C436 1.383 . S
C435 H443 0.929 . S
C436 C435 1.383 . S
C436 C437 1.377 . S
C437 H421 0.930 . S
C437 C436 1.377 . S
C437 C438 1.379 . S
C438 H422 0.931 . S
C438 C432 1.383 . S
C438 C437 1.379 . S
H439 C433 0.959 . S
H440 C433 0.961 . S
H441 C433 0.960 . S
H442 C434 0.930 . S
H443 C435 0.929 . S
H444 C452 0.929 . S
H445 C454 0.930 . S
H446 C456 0.930 . S
H447 C459 0.929 . S
H448 C462 0.930 . S
H449 C464 0.960 . S
H450 C464 0.960 . S
H451 C464 0.960 . S
C452 H444 0.929 . S
C452 C453 1.377 . S
C452 C454 1.384 . S
C453 C452 1.377 . S
C453 C459 1.390 . S
C454 H445 0.930 . S
C454 C452 1.384 . S
C454 C455 1.372 . S
C455 C454 1.372 . S
C455 C456 1.400 . S
C455 C460 1.490 . S
C456 H446 0.930 . S
C456 C455 1.400 . S
C456 C459 1.386 . S
H457 C473 0.930 . S
H458 C474 0.931 . S
C459 H447 0.929 . S
C459 C453 1.390 . S
C459 C456 1.386 . S
C460 C455 1.490 . S
C460 C462 1.395 . S
C460 C463 1.403 . S
H461 C467 0.930 . S
C462 H448 0.930 . S
C462 C460 1.395 . S
C462 C465 1.403 . S
C463 C460 1.403 . S
C463 C464 1.524 . S
C463 C467 1.400 . S
C464 H449 0.960 . S
C464 H450 0.960 . S
C464 H451 0.960 . S
C464 C463 1.524 . S
C465 C462 1.403 . S
C465 C466 1.392 . S
C465 C469 1.495 . S
C466 C465 1.392 . S
C466 C467 1.385 . S
C466 C468 1.478 . S
C467 H461 0.930 . S
C467 C463 1.400 . S
C467 C466 1.385 . S
C468 C466 1.478 . S
C468 C470 1.381 . S
C468 C474 1.383 . S
C469 C465 1.495 . S
C469 H475 0.959 . S
C469 H476 0.961 . S
C469 H477 0.960 . S
C470 C468 1.381 . S
C470 C471 1.394 . S
C470 H478 0.930 . S
C471 C470 1.394 . S
C471 C472 1.383 . S
C471 H479 0.929 . S
C472 C471 1.383 . S
C472 C473 1.377 . S
C473 H457 0.930 . S
C473 C472 1.377 . S
C473 C474 1.379 . S
C474 H458 0.931 . S
C474 C468 1.383 . S
C474 C473 1.379 . S
H475 C469 0.959 . S
H476 C469 0.961 . S
H477 C469 0.960 . S
H478 C470 0.930 . S
H479 C471 0.929 . S
H480 C488 0.929 . S
H481 C490 0.930 . S
H482 C492 0.930 . S
H483 C495 0.929 . S
H484 C498 0.918 1_565 S
H485 C500 0.960 . S
H486 C500 0.960 . S
H487 C500 0.960 . S
C488 H480 0.929 . S
C488 C489 1.377 . S
C488 C490 1.384 . S
C489 C488 1.377 . S
C489 C495 1.390 . S
C490 H481 0.930 . S
C490 C488 1.384 . S
C490 C491 1.372 . S
C491 C490 1.372 . S
C491 C492 1.400 . S
C491 C496 1.490 . S
C492 H482 0.930 . S
C492 C491 1.400 . S
C492 C495 1.386 . S
H493 C509 0.930 . S
H494 C510 0.931 . S
C495 H483 0.929 . S
C495 C489 1.390 . S
C495 C492 1.386 . S
C496 C491 1.490 . S
C496 C498 1.395 1_565 S
C496 C499 1.403 1_565 S
H497 C503 0.930 . S
C498 H484 0.918 1_545 S
C498 C496 1.395 1_545 S
C498 C501 1.403 . S
C499 C496 1.403 1_545 S
C499 C500 1.524 1_545 S
C499 C503 1.400 . S
C500 H485 0.960 . S
C500 H486 0.960 . S
C500 H487 0.960 . S
C500 C499 1.524 1_565 S
C501 C498 1.403 . S
C501 C502 1.392 . S
C501 C505 1.495 . S
C502 C501 1.392 . S
C502 C503 1.385 . S
C502 C504 1.478 . S
C503 H497 0.930 . S
C503 C499 1.400 . S
C503 C502 1.385 . S
C504 C502 1.478 . S
C504 C506 1.381 . S
C504 C510 1.383 . S
C505 C501 1.495 . S
C505 H511 0.959 . S
C505 H512 0.961 . S
C505 H513 0.960 . S
C506 C504 1.381 . S
C506 C507 1.394 . S
C506 H514 0.930 . S
C507 C506 1.394 . S
C507 C508 1.383 . S
C507 H515 0.929 . S
C508 C507 1.383 . S
C508 C509 1.377 . S
C509 H493 0.930 . S
C509 C508 1.377 . S
C509 C510 1.379 . S
C510 H494 0.931 . S
C510 C504 1.383 . S
C510 C509 1.379 . S
H511 C505 0.959 . S
H512 C505 0.961 . S
H513 C505 0.960 . S
H514 C506 0.930 . S
H515 C507 0.929 . S
H516 C524 0.929 . S
H517 C526 0.930 . S
H518 C528 0.930 . S
H519 C531 0.929 . S
H520 C534 0.930 . S
H521 C536 0.960 . S
H522 C536 0.960 . S
H523 C536 0.960 . S
C524 H516 0.929 . S
C524 C525 1.377 . S
C524 C526 1.384 . S
C525 C524 1.377 . S
C525 C531 1.390 . S
C526 H517 0.930 . S
C526 C524 1.384 . S
C526 C527 1.372 . S
C527 C526 1.372 . S
C527 C528 1.400 . S
C527 C532 1.490 . S
C528 H518 0.930 . S
C528 C527 1.400 . S
C528 C531 1.386 . S
H529 C545 0.930 . S
H530 C546 0.931 . S
C531 H519 0.929 . S
C531 C525 1.390 . S
C531 C528 1.386 . S
C532 C527 1.490 . S
C532 C534 1.395 . S
C532 C535 1.403 1_545 S
H533 C539 0.930 . S
C534 H520 0.930 . S
C534 C532 1.395 . S
C534 C537 1.403 1_545 S
C535 C532 1.403 1_565 S
C535 C536 1.524 . S
C535 C539 1.400 . S
C536 H521 0.960 . S
C536 H522 0.960 . S
C536 H523 0.960 . S
C536 C535 1.524 . S
C537 C534 1.403 1_565 S
C537 C538 1.392 . S
C537 C541 1.495 . S
C538 C537 1.392 . S
C538 C539 1.385 . S
C538 C540 1.478 . S
C539 H533 0.930 . S
C539 C535 1.400 . S
C539 C538 1.385 . S
C540 C538 1.478 . S
C540 C542 1.381 . S
C540 C546 1.383 . S
C541 C537 1.495 . S
C541 H547 0.959 1_565 S
C541 H548 0.961 . S
C541 H549 0.960 . S
C542 C540 1.381 . S
C542 C543 1.394 . S
C542 H550 0.930 . S
C543 C542 1.394 . S
C543 C544 1.383 . S
C543 H551 0.929 . S
C544 C543 1.383 . S
C544 C545 1.377 . S
C545 H529 0.930 . S
C545 C544 1.377 . S
C545 C546 1.379 . S
C546 H530 0.931 . S
C546 C540 1.383 . S
C546 C545 1.379 . S
H547 C541 0.959 1_545 S
H548 C541 0.961 . S
H549 C541 0.960 . S
H550 C542 0.930 . S
H551 C543 0.929 . S
H552 C560 0.929 . S
H553 C562 0.930 . S
H554 C564 0.930 . S
H555 C567 0.929 . S
H556 C570 0.930 . S
H557 C572 0.960 . S
H558 C572 0.960 . S
H559 C572 0.960 . S
C560 H552 0.929 . S
C560 C561 1.377 . S
C560 C562 1.384 . S
C561 C560 1.377 . S
C561 C567 1.390 . S
C562 H553 0.930 . S
C562 C560 1.384 . S
C562 C563 1.372 . S
C563 C562 1.372 . S
C563 C564 1.400 . S
C563 C568 1.490 . S
C564 H554 0.930 . S
C564 C563 1.400 . S
C564 C567 1.386 . S
H565 C581 0.930 . S
H566 C582 0.931 . S
C567 H555 0.929 . S
C567 C561 1.390 . S
C567 C564 1.386 . S
C568 C563 1.490 . S
C568 C570 1.395 . S
C568 C571 1.403 . S
H569 C575 0.930 . S
C570 H556 0.930 . S
C570 C568 1.395 . S
C570 C573 1.403 . S
C571 C568 1.403 . S
C571 C572 1.524 . S
C571 C575 1.400 . S
C572 H557 0.960 . S
C572 H558 0.960 . S
C572 H559 0.960 . S
C572 C571 1.524 . S
C573 C570 1.403 . S
C573 C574 1.392 . S
C573 C577 1.495 . S
C574 C573 1.392 . S
C574 C575 1.385 . S
C574 C576 1.478 . S
C575 H569 0.930 . S
C575 C571 1.400 . S
C575 C574 1.385 . S
C576 C574 1.478 . S
C576 C578 1.381 . S
C576 C582 1.383 . S
C577 C573 1.495 . S
C577 H583 0.959 . S
C577 H584 0.961 . S
C577 H585 0.960 . S
C578 C576 1.381 . S
C578 C579 1.394 . S
C578 H586 0.930 . S
C579 C578 1.394 . S
C579 C580 1.383 . S
C579 H587 0.929 . S
C580 C579 1.383 . S
C580 C581 1.377 . S
C581 H565 0.930 . S
C581 C580 1.377 . S
C581 C582 1.379 . S
C582 H566 0.931 . S
C582 C576 1.383 . S
C582 C581 1.379 . S
H583 C577 0.959 . S
H584 C577 0.961 . S
H585 C577 0.960 . S
H586 C578 0.930 . S
H587 C579 0.929 . S
H588 C596 0.929 . S
H589 C598 0.930 . S
H590 C600 0.930 . S
H591 C603 0.929 . S
H592 C606 0.930 . S
H593 C608 0.960 . S
H594 C608 0.960 . S
H595 C608 0.960 . S
C596 H588 0.929 . S
C596 C597 1.377 . S
C596 C598 1.384 . S
C597 C596 1.377 . S
C597 C603 1.390 . S
C598 H589 0.930 . S
C598 C596 1.384 . S
C598 C599 1.372 . S
C599 C598 1.372 . S
C599 C600 1.400 . S
C599 C604 1.490 . S
C600 H590 0.930 . S
C600 C599 1.400 . S
C600 C603 1.386 . S
H601 C617 0.930 . S
H602 C618 0.931 . S
C603 H591 0.929 . S
C603 C597 1.390 . S
C603 C600 1.386 . S
C604 C599 1.490 . S
C604 C606 1.395 . S
C604 C607 1.403 . S
H605 C611 0.930 . S
C606 H592 0.930 . S
C606 C604 1.395 . S
C606 C609 1.403 . S
C607 C604 1.403 . S
C607 C608 1.524 . S
C607 C611 1.400 . S
C608 H593 0.960 . S
C608 H594 0.960 . S
C608 H595 0.960 . S
C608 C607 1.524 . S
C609 C606 1.403 . S
C609 C610 1.392 . S
C609 C613 1.495 . S
C610 C609 1.392 . S
C610 C611 1.385 . S
C610 C612 1.478 . S
C611 H605 0.930 . S
C611 C607 1.400 . S
C611 C610 1.385 . S
C612 C610 1.478 . S
C612 C614 1.381 . S
C612 C618 1.383 . S
C613 C609 1.495 . S
C613 H619 0.959 . S
C613 H620 0.961 . S
C613 H621 0.960 . S
C614 C612 1.381 . S
C614 C615 1.394 . S
C614 H622 0.930 . S
C615 C614 1.394 . S
C615 C616 1.383 . S
C615 H623 0.929 . S
C616 C615 1.383 . S
C616 C617 1.377 . S
C617 H601 0.930 . S
C617 C616 1.377 . S
C617 C618 1.379 . S
C618 H602 0.931 . S
C618 C612 1.383 . S
C618 C617 1.379 . S
H619 C613 0.959 . S
H620 C613 0.961 . S
H621 C613 0.960 . S
H622 C614 0.930 . S
H623 C615 0.929 . S
H624 C632 0.929 . S
H625 C634 0.930 . S
H626 C636 0.930 . S
H627 C639 0.929 . S
H628 C642 0.930 1_545 S
H629 C644 0.960 1_565 S
H630 C644 0.960 . S
H631 C644 0.960 . S
C632 H624 0.929 . S
C632 C633 1.377 . S
C632 C634 1.384 . S
C633 C632 1.377 . S
C633 C639 1.390 . S
C634 H625 0.930 . S
C634 C632 1.384 . S
C634 C635 1.372 . S
C635 C634 1.372 . S
C635 C636 1.400 . S
C635 C640 1.490 . S
C636 H626 0.930 . S
C636 C635 1.400 . S
C636 C639 1.386 . S
H637 C653 0.930 . S
H638 C654 0.931 . S
C639 H627 0.929 . S
C639 C633 1.390 . S
C639 C636 1.386 . S
C640 C635 1.490 . S
C640 C642 1.395 1_545 S
C640 C643 1.403 1_545 S
H641 C647 0.930 . S
C642 H628 0.930 1_565 S
C642 C640 1.395 1_565 S
C642 C645 1.403 . S
C643 C640 1.403 1_565 S
C643 C644 1.524 1_565 S
C643 C647 1.400 . S
C644 H629 0.960 1_545 S
C644 H630 0.960 . S
C644 H631 0.960 . S
C644 C643 1.524 1_545 S
C645 C642 1.403 . S
C645 C646 1.392 . S
C645 C649 1.495 . S
C646 C645 1.392 . S
C646 C647 1.385 . S
C646 C648 1.478 . S
C647 H641 0.930 . S
C647 C643 1.400 . S
C647 C646 1.385 . S
C648 C646 1.478 . S
C648 C650 1.381 . S
C648 C654 1.383 . S
C649 C645 1.495 . S
C649 H655 0.959 . S
C649 H656 0.961 . S
C649 H657 0.960 . S
C650 C648 1.381 . S
C650 C651 1.394 . S
C650 H658 0.930 . S
C651 C650 1.394 . S
C651 C652 1.383 . S
C651 H659 0.929 . S
C652 C651 1.383 . S
C652 C653 1.377 . S
C653 H637 0.930 . S
C653 C652 1.377 . S
C653 C654 1.379 . S
C654 H638 0.931 . S
C654 C648 1.383 . S
C654 C653 1.379 . S
H655 C649 0.959 . S
H656 C649 0.961 . S
H657 C649 0.960 . S
H658 C650 0.930 . S
H659 C651 0.929 . S
H660 C668 0.929 1_556 S
H661 C670 0.930 . S
H662 C672 0.930 . S
H663 C675 0.929 . S
H664 C678 0.930 . S
H665 C680 0.960 . S
H666 C680 0.960 . S
H667 C680 0.960 . S
C668 H660 0.929 1_554 S
C668 C669 1.377 . S
C668 C670 1.384 . S
C669 C668 1.377 . S
C669 C675 1.390 . S
C670 H661 0.930 . S
C670 C668 1.384 . S
C670 C671 1.372 . S
C671 C670 1.372 . S
C671 C672 1.400 . S
C671 C676 1.490 . S
C672 H662 0.930 . S
C672 C671 1.400 . S
C672 C675 1.386 . S
H673 C689 0.930 . S
H674 C690 0.931 . S
C675 H663 0.929 . S
C675 C669 1.390 . S
C675 C672 1.386 . S
C676 C671 1.490 . S
C676 C678 1.395 . S
C676 C679 1.403 . S
H677 C683 0.930 . S
C678 H664 0.930 . S
C678 C676 1.395 . S
C678 C681 1.403 . S
C679 C676 1.403 . S
C679 C680 1.524 . S
C679 C683 1.400 . S
C680 H665 0.960 . S
C680 H666 0.960 . S
C680 H667 0.960 . S
C680 C679 1.524 . S
C681 C678 1.403 . S
C681 C682 1.392 . S
C681 C685 1.495 . S
C682 C681 1.392 . S
C682 C683 1.385 . S
C682 C684 1.478 . S
C683 H677 0.930 . S
C683 C679 1.400 . S
C683 C682 1.385 . S
C684 C682 1.478 . S
C684 C686 1.381 . S
C684 C690 1.383 . S
C685 C681 1.495 . S
C685 H691 0.959 . S
C685 H692 0.961 . S
C685 H693 0.960 . S
C686 C684 1.381 . S
C686 C687 1.394 . S
C686 H694 0.930 . S
C687 C686 1.394 . S
C687 C688 1.383 . S
C687 H695 0.929 . S
C688 C687 1.383 . S
C688 C689 1.377 . S
C689 H673 0.930 . S
C689 C688 1.377 . S
C689 C690 1.379 . S
C690 H674 0.931 . S
C690 C684 1.383 . S
C690 C689 1.379 . S
H691 C685 0.959 . S
H692 C685 0.961 . S
H693 C685 0.960 . S
H694 C686 0.930 . S
H695 C687 0.929 . S
H696 C704 0.929 . S
H697 C706 0.930 . S
H698 C708 0.930 . S
H699 C711 0.929 . S
H700 C714 0.930 . S
H701 C716 0.960 . S
H702 C716 0.960 . S
H703 C716 0.960 . S
C704 H696 0.929 . S
C704 C705 1.377 . S
C704 C706 1.384 . S
C705 C704 1.377 . S
C705 C711 1.390 . S
C706 H697 0.930 . S
C706 C704 1.384 . S
C706 C707 1.372 . S
C707 C706 1.372 . S
C707 C708 1.400 . S
C707 C712 1.490 . S
C708 H698 0.930 . S
C708 C707 1.400 . S
C708 C711 1.386 . S
H709 C725 0.930 . S
H710 C726 0.931 . S
C711 H699 0.929 . S
C711 C705 1.390 . S
C711 C708 1.386 . S
C712 C707 1.490 . S
C712 C714 1.395 . S
C712 C715 1.403 . S
H713 C719 0.930 . S
C714 H700 0.930 . S
C714 C712 1.395 . S
C714 C717 1.403 . S
C715 C712 1.403 . S
C715 C716 1.524 . S
C715 C719 1.400 . S
C716 H701 0.960 . S
C716 H702 0.960 . S
C716 H703 0.960 . S
C716 C715 1.524 . S
C717 C714 1.403 . S
C717 C718 1.392 . S
C717 C721 1.495 . S
C718 C717 1.392 . S
C718 C719 1.385 . S
C718 C720 1.478 . S
C719 H713 0.930 . S
C719 C715 1.400 . S
C719 C718 1.385 . S
C720 C718 1.478 . S
C720 C722 1.381 . S
C720 C726 1.383 . S
C721 C717 1.495 . S
C721 H727 0.959 . S
C721 H728 0.961 . S
C721 H729 0.960 . S
C722 C720 1.381 . S
C722 C723 1.394 . S
C722 H730 0.930 . S
C723 C722 1.394 . S
C723 C724 1.383 . S
C723 H731 0.929 . S
C724 C723 1.383 . S
C724 C725 1.377 . S
C725 H709 0.930 . S
C725 C724 1.377 . S
C725 C726 1.379 . S
C726 H710 0.931 . S
C726 C720 1.383 . S
C726 C725 1.379 . S
H727 C721 0.959 . S
H728 C721 0.961 . S
H729 C721 0.960 . S
H730 C722 0.930 . S
H731 C723 0.929 . S
H732 C740 0.929 . S
H733 C742 0.930 . S
H734 C744 0.930 . S
H735 C747 0.929 . S
H736 C750 0.930 . S
H737 C752 0.960 . S
H738 C752 0.960 . S
H739 C752 0.960 . S
C740 H732 0.929 . S
C740 C741 1.377 . S
C740 C742 1.384 . S
C741 C740 1.377 . S
C741 C747 1.390 . S
C742 H733 0.930 . S
C742 C740 1.384 . S
C742 C743 1.372 . S
C743 C742 1.372 . S
C743 C744 1.400 . S
C743 C748 1.490 . S
C744 H734 0.930 . S
C744 C743 1.400 . S
C744 C747 1.386 . S
H745 C761 0.930 . S
H746 C762 0.931 . S
C747 H735 0.929 . S
C747 C741 1.390 . S
C747 C744 1.386 . S
C748 C743 1.490 . S
C748 C750 1.395 . S
C748 C751 1.403 . S
H749 C755 0.930 . S
C750 H736 0.930 . S
C750 C748 1.395 . S
C750 C753 1.403 . S
C751 C748 1.403 . S
C751 C752 1.524 . S
C751 C755 1.400 . S
C752 H737 0.960 . S
C752 H738 0.960 . S
C752 H739 0.960 . S
C752 C751 1.524 . S
C753 C750 1.403 . S
C753 C754 1.392 . S
C753 C757 1.495 . S
C754 C753 1.392 . S
C754 C755 1.385 . S
C754 C756 1.478 . S
C755 H749 0.930 . S
C755 C751 1.400 . S
C755 C754 1.385 . S
C756 C754 1.478 . S
C756 C758 1.381 . S
C756 C762 1.383 . S
C757 C753 1.495 . S
C757 H763 0.959 . S
C757 H764 0.961 . S
C757 H765 0.960 . S
C758 C756 1.381 . S
C758 C759 1.394 . S
C758 H766 0.930 . S
C759 C758 1.394 . S
C759 C760 1.383 . S
C759 H767 0.929 . S
C760 C759 1.383 . S
C760 C761 1.377 . S
C761 H745 0.930 . S
C761 C760 1.377 . S
C761 C762 1.379 . S
C762 H746 0.931 . S
C762 C756 1.383 . S
C762 C761 1.379 . S
H763 C757 0.959 . S
H764 C757 0.961 . S
H765 C757 0.960 . S
H766 C758 0.930 . S
H767 C759 0.929 . S
H768 C776 0.929 . S
H769 C778 0.930 . S
H770 C780 0.930 . S
H771 C783 0.929 . S
H772 C786 0.930 . S
H773 C788 0.960 . S
H774 C788 0.960 . S
H775 C788 0.960 . S
C776 H768 0.929 . S
C776 C777 1.377 . S
C776 C778 1.384 . S
C777 C776 1.377 . S
C777 C783 1.390 . S
C778 H769 0.930 . S
C778 C776 1.384 . S
C778 C779 1.372 . S
C779 C778 1.372 . S
C779 C780 1.400 . S
C779 C784 1.490 . S
C780 H770 0.930 . S
C780 C779 1.400 . S
C780 C783 1.386 . S
H781 C797 0.930 . S
H782 C798 0.931 . S
C783 H771 0.929 . S
C783 C777 1.390 . S
C783 C780 1.386 . S
C784 C779 1.490 . S
C784 C786 1.395 . S
C784 C787 1.403 . S
H785 C791 0.930 . S
C786 H772 0.930 . S
C786 C784 1.395 . S
C786 C789 1.403 . S
C787 C784 1.403 . S
C787 C788 1.524 . S
C787 C791 1.400 . S
C788 H773 0.960 . S
C788 H774 0.960 . S
C788 H775 0.960 . S
C788 C787 1.524 . S
C789 C786 1.403 . S
C789 C790 1.392 . S
C789 C793 1.495 . S
C790 C789 1.392 . S
C790 C791 1.385 . S
C790 C792 1.478 . S
C791 H785 0.930 . S
C791 C787 1.400 . S
C791 C790 1.385 . S
C792 C790 1.478 . S
C792 C794 1.381 . S
C792 C798 1.383 . S
C793 C789 1.495 . S
C793 H799 0.959 . S
C793 H800 0.961 . S
C793 H801 0.960 . S
C794 C792 1.381 . S
C794 C795 1.394 . S
C794 H802 0.930 . S
C795 C794 1.394 . S
C795 C796 1.383 . S
C795 H803 0.929 . S
C796 C795 1.383 . S
C796 C797 1.377 . S
C797 H781 0.930 . S
C797 C796 1.377 . S
C797 C798 1.379 . S
C798 H782 0.931 . S
C798 C792 1.383 . S
C798 C797 1.379 . S
H799 C793 0.959 . S
H800 C793 0.961 . S
H801 C793 0.960 . S
H802 C794 0.930 . S
H803 C795 0.929 . S
H804 C812 0.932 . S
H805 C814 0.930 . S
H806 C816 0.930 . S
H807 C819 0.929 . S
H808 C822 0.930 . S
H809 C824 0.960 . S
H810 C824 0.960 . S
H811 C824 0.960 . S
C812 H804 0.932 . S
C812 C813 1.377 . S
C812 C814 1.384 . S
C813 C812 1.377 . S
C813 C819 1.390 . S
C814 H805 0.930 . S
C814 C812 1.384 . S
C814 C815 1.372 . S
C815 C814 1.372 . S
C815 C816 1.400 . S
C815 C820 1.490 . S
C816 H806 0.930 . S
C816 C815 1.400 . S
C816 C819 1.386 . S
H817 C833 0.930 . S
H818 C834 0.931 . S
C819 H807 0.929 . S
C819 C813 1.390 . S
C819 C816 1.386 . S
C820 C815 1.490 . S
C820 C822 1.395 . S
C820 C823 1.403 . S
H821 C827 0.930 . S
C822 H808 0.930 . S
C822 C820 1.395 . S
C822 C825 1.403 . S
C823 C820 1.403 . S
C823 C824 1.524 . S
C823 C827 1.400 . S
C824 H809 0.960 . S
C824 H810 0.960 . S
C824 H811 0.960 . S
C824 C823 1.524 . S
C825 C822 1.403 . S
C825 C826 1.392 . S
C825 C829 1.495 . S
C826 C825 1.392 . S
C826 C827 1.385 . S
C826 C828 1.478 . S
C827 H821 0.930 . S
C827 C823 1.400 . S
C827 C826 1.385 . S
C828 C826 1.478 . S
C828 C830 1.381 . S
C828 C834 1.383 . S
C829 C825 1.495 . S
C829 H835 0.959 . S
C829 H836 0.961 . S
C829 H837 0.960 . S
C830 C828 1.381 . S
C830 C831 1.394 . S
C830 H838 0.930 . S
C831 C830 1.394 . S
C831 C832 1.383 . S
C831 H839 0.929 . S
C832 C831 1.383 . S
C832 C833 1.377 . S
C833 H817 0.930 . S
C833 C832 1.377 . S
C833 C834 1.379 . S
C834 H818 0.931 . S
C834 C828 1.383 . S
C834 C833 1.379 . S
H835 C829 0.959 . S
H836 C829 0.961 . S
H837 C829 0.960 . S
H838 C830 0.930 . S
H839 C831 0.929 . S
H840 C848 0.929 . S
H841 C850 0.930 . S
H842 C852 0.930 . S
H843 C855 0.929 . S
H844 C858 0.930 . S
H845 C860 0.960 . S
H846 C860 0.960 . S
H847 C860 0.960 . S
C848 H840 0.929 . S
C848 C849 1.377 . S
C848 C850 1.384 . S
C849 C848 1.377 . S
C849 C855 1.390 . S
C850 H841 0.930 . S
C850 C848 1.384 . S
C850 C851 1.372 . S
C851 C850 1.372 . S
C851 C852 1.400 . S
C851 C856 1.490 . S
C852 H842 0.930 . S
C852 C851 1.400 . S
C852 C855 1.386 . S
H853 C869 0.930 . S
H854 C870 0.931 . S
C855 H843 0.929 . S
C855 C849 1.390 . S
C855 C852 1.386 . S
C856 C851 1.490 . S
C856 C858 1.395 . S
C856 C859 1.403 . S
H857 C863 0.930 . S
C858 H844 0.930 . S
C858 C856 1.395 . S
C858 C861 1.403 . S
C859 C856 1.403 . S
C859 C860 1.524 . S
C859 C863 1.400 . S
C860 H845 0.960 . S
C860 H846 0.960 . S
C860 H847 0.960 . S
C860 C859 1.524 . S
C861 C858 1.403 . S
C861 C862 1.392 . S
C861 C865 1.495 . S
C862 C861 1.392 . S
C862 C863 1.385 . S
C862 C864 1.478 . S
C863 H857 0.930 . S
C863 C859 1.400 . S
C863 C862 1.385 . S
C864 C862 1.478 . S
C864 C866 1.381 . S
C864 C870 1.383 . S
C865 C861 1.495 . S
C865 H871 0.959 . S
C865 H872 0.961 . S
C865 H873 0.960 . S
C866 C864 1.381 . S
C866 C867 1.394 . S
C866 H874 0.930 . S
C867 C866 1.394 . S
C867 C868 1.383 . S
C867 H875 0.929 . S
C868 C867 1.383 . S
C868 C869 1.377 . S
C869 H853 0.930 . S
C869 C868 1.377 . S
C869 C870 1.379 . S
C870 H854 0.931 . S
C870 C864 1.383 . S
C870 C869 1.379 . S
H871 C865 0.959 . S
H872 C865 0.961 . S
H873 C865 0.960 . S
H874 C866 0.930 . S
H875 C867 0.929 . S
H876 C884 0.929 . S
H877 C886 0.930 . S
H878 C888 0.930 . S
H879 C891 0.929 1_556 S
H880 C894 0.930 . S
H881 C896 0.960 . S
H882 C896 0.960 . S
H883 C896 0.960 . S
C884 H876 0.929 . S
C884 C885 1.377 . S
C884 C886 1.384 . S
C885 C884 1.377 . S
C885 C891 1.390 . S
C886 H877 0.930 . S
C886 C884 1.384 . S
C886 C887 1.372 . S
C887 C886 1.372 . S
C887 C888 1.400 . S
C887 C892 1.490 . S
C888 H878 0.930 . S
C888 C887 1.400 . S
C888 C891 1.386 . S
H889 C905 0.930 . S
H890 C906 0.931 . S
C891 H879 0.929 1_554 S
C891 C885 1.390 . S
C891 C888 1.386 . S
C892 C887 1.490 . S
C892 C894 1.395 . S
C892 C895 1.403 . S
H893 C899 0.930 . S
C894 H880 0.930 . S
C894 C892 1.395 . S
C894 C897 1.403 . S
C895 C892 1.403 . S
C895 C896 1.524 . S
C895 C899 1.400 . S
C896 H881 0.960 . S
C896 H882 0.960 . S
C896 H883 0.960 . S
C896 C895 1.524 . S
C897 C894 1.403 . S
C897 C898 1.392 . S
C897 C901 1.495 . S
C898 C897 1.392 . S
C898 C899 1.385 . S
C898 C900 1.478 . S
C899 H893 0.930 . S
C899 C895 1.400 . S
C899 C898 1.385 . S
C900 C898 1.478 . S
C900 C902 1.381 . S
C900 C906 1.383 . S
C901 C897 1.495 . S
C901 H907 0.959 . S
C901 H908 0.961 . S
C901 H909 0.960 . S
C902 C900 1.381 . S
C902 C903 1.394 . S
C902 H910 0.930 . S
C903 C902 1.394 . S
C903 C904 1.383 . S
C903 H911 0.929 . S
C904 C903 1.383 . S
C904 C905 1.377 . S
C905 H889 0.930 . S
C905 C904 1.377 . S
C905 C906 1.379 . S
C906 H890 0.931 . S
C906 C900 1.383 . S
C906 C905 1.379 . S
H907 C901 0.959 . S
H908 C901 0.961 . S
H909 C901 0.960 . S
H910 C902 0.930 . S
H911 C903 0.929 . S
H912 C920 0.929 . S
H913 C922 0.930 . S
H914 C924 0.930 . S
H915 C927 0.929 . S
H916 C930 0.930 . S
H917 C932 0.960 . S
H918 C932 0.960 . S
H919 C932 0.960 . S
C920 H912 0.929 . S
C920 C921 1.377 . S
C920 C922 1.384 . S
C921 C920 1.377 . S
C921 C927 1.390 . S
C922 H913 0.930 . S
C922 C920 1.384 . S
C922 C923 1.372 . S
C923 C922 1.372 . S
C923 C924 1.400 . S
C923 C928 1.490 . S
C924 H914 0.930 . S
C924 C923 1.400 . S
C924 C927 1.386 . S
H925 C941 0.930 . S
H926 C942 0.931 . S
C927 H915 0.929 . S
C927 C921 1.390 . S
C927 C924 1.386 . S
C928 C923 1.490 . S
C928 C930 1.395 . S
C928 C931 1.403 . S
H929 C935 0.930 . S
C930 H916 0.930 . S
C930 C928 1.395 . S
C930 C933 1.403 . S
C931 C928 1.403 . S
C931 C932 1.524 . S
C931 C935 1.400 . S
C932 H917 0.960 . S
C932 H918 0.960 . S
C932 H919 0.960 . S
C932 C931 1.524 . S
C933 C930 1.403 . S
C933 C934 1.392 . S
C933 C937 1.495 . S
C934 C933 1.392 . S
C934 C935 1.385 . S
C934 C936 1.478 . S
C935 H929 0.930 . S
C935 C931 1.400 . S
C935 C934 1.385 . S
C936 C934 1.478 . S
C936 C938 1.381 . S
C936 C942 1.383 . S
C937 C933 1.495 . S
C937 H943 0.959 . S
C937 H944 0.961 . S
C937 H945 0.960 . S
C938 C936 1.381 . S
C938 C939 1.394 . S
C938 H946 0.930 . S
C939 C938 1.394 . S
C939 C940 1.383 . S
C939 H947 0.929 . S
C940 C939 1.383 . S
C940 C941 1.377 . S
C941 H925 0.930 . S
C941 C940 1.377 . S
C941 C942 1.379 . S
C942 H926 0.931 . S
C942 C936 1.383 . S
C942 C941 1.379 . S
H943 C937 0.959 . S
H944 C937 0.961 . S
H945 C937 0.960 . S
H946 C938 0.930 . S
H947 C939 0.929 . S
H948 C956 0.929 . S
H949 C958 0.930 . S
H950 C960 0.930 . S
H951 C963 0.929 . S
H952 C966 0.930 . S
H953 C968 0.960 . S
H954 C968 0.960 . S
H955 C968 0.960 . S
C956 H948 0.929 . S
C956 C957 1.377 . S
C956 C958 1.384 . S
C957 C956 1.377 . S
C957 C963 1.390 . S
C958 H949 0.930 . S
C958 C956 1.384 . S
C958 C959 1.372 . S
C959 C958 1.372 . S
C959 C960 1.400 . S
C959 C964 1.490 . S
C960 H950 0.930 . S
C960 C959 1.400 . S
C960 C963 1.386 . S
H961 C977 0.930 . S
H962 C978 0.931 . S
C963 H951 0.929 . S
C963 C957 1.390 . S
C963 C960 1.386 . S
C964 C959 1.490 . S
C964 C966 1.395 . S
C964 C967 1.403 . S
H965 C971 0.930 . S
C966 H952 0.930 . S
C966 C964 1.395 . S
C966 C969 1.403 . S
C967 C964 1.403 . S
C967 C968 1.524 . S
C967 C971 1.400 . S
C968 H953 0.960 . S
C968 H954 0.960 . S
C968 H955 0.960 . S
C968 C967 1.524 . S
C969 C966 1.403 . S
C969 C970 1.392 . S
C969 C973 1.495 . S
C970 C969 1.392 . S
C970 C971 1.385 . S
C970 C972 1.478 . S
C971 H965 0.930 . S
C971 C967 1.400 . S
C971 C970 1.385 . S
C972 C970 1.478 . S
C972 C974 1.381 . S
C972 C978 1.383 . S
C973 C969 1.495 . S
C973 H979 0.959 . S
C973 H980 0.961 . S
C973 H981 0.960 . S
C974 C972 1.381 . S
C974 C975 1.394 . S
C974 H982 0.930 . S
C975 C974 1.394 . S
C975 C976 1.383 . S
C975 H983 0.929 . S
C976 C975 1.383 . S
C976 C977 1.377 . S
C977 H961 0.930 . S
C977 C976 1.377 . S
C977 C978 1.379 . S
C978 H962 0.931 . S
C978 C972 1.383 . S
C978 C977 1.379 . S
H979 C973 0.959 . S
H980 C973 0.961 . S
H981 C973 0.960 . S
H982 C974 0.930 . S
H983 C975 0.929 . S
H984 C992 0.929 . S
H985 C994 0.930 . S
H986 C996 0.930 . S
H987 C999 0.929 . S
H988 C1002 0.930 . S
H989 C1004 0.960 . S
H990 C1004 0.960 . S
H991 C1004 0.960 . S
C992 H984 0.929 . S
C992 C993 1.377 . S
C992 C994 1.384 . S
C993 C992 1.377 . S
C993 C999 1.390 . S
C994 H985 0.930 . S
C994 C992 1.384 . S
C994 C995 1.372 . S
C995 C994 1.372 . S
C995 C996 1.400 . S
C995 C1000 1.490 . S
C996 H986 0.930 . S
C996 C995 1.400 . S
C996 C999 1.386 . S
H997 C1013 0.930 . S
H998 C1014 0.931 . S
C999 H987 0.929 . S
C999 C993 1.390 . S
C999 C996 1.386 . S
C1000 C995 1.490 . S
C1000 C1002 1.395 . S
C1000 C1003 1.403 . S
H1001 C1007 0.930 . S
C1002 H988 0.930 . S
C1002 C1000 1.395 . S
C1002 C1005 1.403 . S
C1003 C1000 1.403 . S
C1003 C1004 1.524 . S
C1003 C1007 1.400 . S
C1004 H989 0.960 . S
C1004 H990 0.960 . S
C1004 H991 0.960 . S
C1004 C1003 1.524 . S
C1005 C1002 1.403 . S
C1005 C1006 1.392 . S
C1005 C1009 1.495 . S
C1006 C1005 1.392 . S
C1006 C1007 1.385 . S
C1006 C1008 1.478 . S
C1007 H1001 0.930 . S
C1007 C1003 1.400 . S
C1007 C1006 1.385 . S
C1008 C1006 1.478 . S
C1008 C1010 1.381 . S
C1008 C1014 1.383 . S
C1009 C1005 1.495 . S
C1009 H1015 0.959 . S
C1009 H1016 0.961 . S
C1009 H1017 0.960 . S
C1010 C1008 1.381 . S
C1010 C1011 1.394 . S
C1010 H1018 0.930 . S
C1011 C1010 1.394 . S
C1011 C1012 1.383 . S
C1011 H1019 0.929 . S
C1012 C1011 1.383 . S
C1012 C1013 1.377 . S
C1013 H997 0.930 . S
C1013 C1012 1.377 . S
C1013 C1014 1.379 . S
C1014 H998 0.931 . S
C1014 C1008 1.383 . S
C1014 C1013 1.379 . S
H1015 C1009 0.959 . S
H1016 C1009 0.961 . S
H1017 C1009 0.960 . S
H1018 C1010 0.930 . S
H1019 C1011 0.929 . S
H1020 C1028 0.929 . S
H1021 C1030 0.930 . S
H1022 C1032 0.930 . S
H1023 C1035 0.929 . S
H1024 C1038 0.930 . S
H1025 C1040 0.960 . S
H1026 C1040 0.960 . S
H1027 C1040 0.960 . S
C1028 H1020 0.929 . S
C1028 C1029 1.377 . S
C1028 C1030 1.384 . S
C1029 C1028 1.377 . S
C1029 C1035 1.390 . S
C1030 H1021 0.930 . S
C1030 C1028 1.384 . S
C1030 C1031 1.372 . S
C1031 C1030 1.372 . S
C1031 C1032 1.400 . S
C1031 C1036 1.490 . S
C1032 H1022 0.930 . S
C1032 C1031 1.400 . S
C1032 C1035 1.386 . S
H1033 C1049 0.930 . S
H1034 C1050 0.931 . S
C1035 H1023 0.929 . S
C1035 C1029 1.390 . S
C1035 C1032 1.386 . S
C1036 C1031 1.490 . S
C1036 C1038 1.395 . S
C1036 C1039 1.403 . S
H1037 C1043 0.930 . S
C1038 H1024 0.930 . S
C1038 C1036 1.395 . S
C1038 C1041 1.403 . S
C1039 C1036 1.403 . S
C1039 C1040 1.524 . S
C1039 C1043 1.400 . S
C1040 H1025 0.960 . S
C1040 H1026 0.960 . S
C1040 H1027 0.960 . S
C1040 C1039 1.524 . S
C1041 C1038 1.403 . S
C1041 C1042 1.392 . S
C1041 C1045 1.495 . S
C1042 C1041 1.392 . S
C1042 C1043 1.385 . S
C1042 C1044 1.478 . S
C1043 H1037 0.930 . S
C1043 C1039 1.400 . S
C1043 C1042 1.385 . S
C1044 C1042 1.478 . S
C1044 C1046 1.381 . S
C1044 C1050 1.383 . S
C1045 C1041 1.495 . S
C1045 H1051 0.959 . S
C1045 H1052 0.961 . S
C1045 H1053 0.960 . S
C1046 C1044 1.381 . S
C1046 C1047 1.394 . S
C1046 H1054 0.930 . S
C1047 C1046 1.394 . S
C1047 C1048 1.383 . S
C1047 H1055 0.929 . S
C1048 C1047 1.383 . S
C1048 C1049 1.377 . S
C1049 H1033 0.930 . S
C1049 C1048 1.377 . S
C1049 C1050 1.379 . S
C1050 H1034 0.931 . S
C1050 C1044 1.383 . S
C1050 C1049 1.379 . S
H1051 C1045 0.959 . S
H1052 C1045 0.961 . S
H1053 C1045 0.960 . S
H1054 C1046 0.930 . S
H1055 C1047 0.929 . S
H1056 C1064 0.929 . S
H1057 C1066 0.930 . S
H1058 C1068 0.930 . S
H1059 C1071 0.929 . S
H1060 C1074 0.930 . S
H1061 C1076 0.960 . S
H1062 C1076 0.960 . S
H1063 C1076 0.960 . S
C1064 H1056 0.929 . S
C1064 C1065 1.377 . S
C1064 C1066 1.384 . S
C1065 C1064 1.377 . S
C1065 C1071 1.390 . S
C1066 H1057 0.930 . S
C1066 C1064 1.384 . S
C1066 C1067 1.372 . S
C1067 C1066 1.372 . S
C1067 C1068 1.400 . S
C1067 C1072 1.490 . S
C1068 H1058 0.930 . S
C1068 C1067 1.400 . S
C1068 C1071 1.386 . S
H1069 C1085 0.930 . S
H1070 C1086 0.931 . S
C1071 H1059 0.929 . S
C1071 C1065 1.390 . S
C1071 C1068 1.386 . S
C1072 C1067 1.490 . S
C1072 C1074 1.395 . S
C1072 C1075 1.403 . S
H1073 C1079 0.930 . S
C1074 H1060 0.930 . S
C1074 C1072 1.395 . S
C1074 C1077 1.403 . S
C1075 C1072 1.403 . S
C1075 C1076 1.524 . S
C1075 C1079 1.400 . S
C1076 H1061 0.960 . S
C1076 H1062 0.960 . S
C1076 H1063 0.960 . S
C1076 C1075 1.524 . S
C1077 C1074 1.403 . S
C1077 C1078 1.392 . S
C1077 C1081 1.495 . S
C1078 C1077 1.392 . S
C1078 C1079 1.385 . S
C1078 C1080 1.478 . S
C1079 H1073 0.930 . S
C1079 C1075 1.400 . S
C1079 C1078 1.385 . S
C1080 C1078 1.478 . S
C1080 C1082 1.381 . S
C1080 C1086 1.383 . S
C1081 C1077 1.495 . S
C1081 H1087 0.959 . S
C1081 H1088 0.961 . S
C1081 H1089 0.960 . S
C1082 C1080 1.381 . S
C1082 C1083 1.394 . S
C1082 H1090 0.930 . S
C1083 C1082 1.394 . S
C1083 C1084 1.383 . S
C1083 H1091 0.929 . S
C1084 C1083 1.383 . S
C1084 C1085 1.377 . S
C1085 H1069 0.930 . S
C1085 C1084 1.377 . S
C1085 C1086 1.379 . S
C1086 H1070 0.931 . S
C1086 C1080 1.383 . S
C1086 C1085 1.379 . S
H1087 C1081 0.959 . S
H1088 C1081 0.961 . S
H1089 C1081 0.960 . S
H1090 C1082 0.930 . S
H1091 C1083 0.929 . S
H1092 C1100 0.929 . S
H1093 C1102 0.930 . S
H1094 C1104 0.930 . S
H1095 C1107 0.929 . S
H1096 C1110 0.930 . S
H1097 C1112 0.960 . S
H1098 C1112 0.960 . S
H1099 C1112 0.960 . S
C1100 H1092 0.929 . S
C1100 C1101 1.377 . S
C1100 C1102 1.384 . S
C1101 C1100 1.377 . S
C1101 C1107 1.390 . S
C1102 H1093 0.930 . S
C1102 C1100 1.384 . S
C1102 C1103 1.372 . S
C1103 C1102 1.372 . S
C1103 C1104 1.400 . S
C1103 C1108 1.490 . S
C1104 H1094 0.930 . S
C1104 C1103 1.400 . S
C1104 C1107 1.386 . S
H1105 C1121 0.930 . S
H1106 C1122 0.931 . S
C1107 H1095 0.929 . S
C1107 C1101 1.390 . S
C1107 C1104 1.386 . S
C1108 C1103 1.490 . S
C1108 C1110 1.395 . S
C1108 C1111 1.403 . S
H1109 C1115 0.930 . S
C1110 H1096 0.930 . S
C1110 C1108 1.395 . S
C1110 C1113 1.403 . S
C1111 C1108 1.403 . S
C1111 C1112 1.524 . S
C1111 C1115 1.400 . S
C1112 H1097 0.960 . S
C1112 H1098 0.960 . S
C1112 H1099 0.960 . S
C1112 C1111 1.524 . S
C1113 C1110 1.403 . S
C1113 C1114 1.392 . S
C1113 C1117 1.495 . S
C1114 C1113 1.392 . S
C1114 C1115 1.385 . S
C1114 C1116 1.478 . S
C1115 H1109 0.930 . S
C1115 C1111 1.400 . S
C1115 C1114 1.385 . S
C1116 C1114 1.478 . S
C1116 C1118 1.381 . S
C1116 C1122 1.383 . S
C1117 C1113 1.495 . S
C1117 H1123 0.959 . S
C1117 H1124 0.961 . S
C1117 H1125 0.960 . S
C1118 C1116 1.381 . S
C1118 C1119 1.394 . S
C1118 H1126 0.930 . S
C1119 C1118 1.394 . S
C1119 C1120 1.383 . S
C1119 H1127 0.929 . S
C1120 C1119 1.383 . S
C1120 C1121 1.377 . S
C1121 H1105 0.930 . S
C1121 C1120 1.377 . S
C1121 C1122 1.379 . S
C1122 H1106 0.931 . S
C1122 C1116 1.383 . S
C1122 C1121 1.379 . S
H1123 C1117 0.959 . S
H1124 C1117 0.961 . S
H1125 C1117 0.960 . S
H1126 C1118 0.930 . S
H1127 C1119 0.929 . S
H1128 C1136 0.929 . S
H1129 C1138 0.930 . S
H1130 C1140 0.930 . S
H1131 C1143 0.929 . S
H1132 C1146 0.930 . S
H1133 C1148 0.960 . S
H1134 C1148 0.960 . S
H1135 C1148 0.960 . S
C1136 H1128 0.929 . S
C1136 C1137 1.377 . S
C1136 C1138 1.384 . S
C1137 C1136 1.377 . S
C1137 C1143 1.390 . S
C1138 H1129 0.930 . S
C1138 C1136 1.384 . S
C1138 C1139 1.372 . S
C1139 C1138 1.372 . S
C1139 C1140 1.400 . S
C1139 C1144 1.490 . S
C1140 H1130 0.930 . S
C1140 C1139 1.400 . S
C1140 C1143 1.386 . S
H1141 C1157 0.930 . S
H1142 C1158 0.931 . S
C1143 H1131 0.929 . S
C1143 C1137 1.390 . S
C1143 C1140 1.386 . S
C1144 C1139 1.490 . S
C1144 C1146 1.395 . S
C1144 C1147 1.403 . S
H1145 C1151 0.930 . S
C1146 H1132 0.930 . S
C1146 C1144 1.395 . S
C1146 C1149 1.403 . S
C1147 C1144 1.403 . S
C1147 C1148 1.524 . S
C1147 C1151 1.400 . S
C1148 H1133 0.960 . S
C1148 H1134 0.960 . S
C1148 H1135 0.960 . S
C1148 C1147 1.524 . S
C1149 C1146 1.403 . S
C1149 C1150 1.392 . S
C1149 C1153 1.495 . S
C1150 C1149 1.392 . S
C1150 C1151 1.385 . S
C1150 C1152 1.478 . S
C1151 H1145 0.930 . S
C1151 C1147 1.400 . S
C1151 C1150 1.385 . S
C1152 C1150 1.478 . S
C1152 C1154 1.381 . S
C1152 C1158 1.383 . S
C1153 C1149 1.495 . S
C1153 H1159 0.959 . S
C1153 H1160 0.961 . S
C1153 H1161 0.960 . S
C1154 C1152 1.381 . S
C1154 C1155 1.394 . S
C1154 H1162 0.930 . S
C1155 C1154 1.394 . S
C1155 C1156 1.383 . S
C1155 H1163 0.929 . S
C1156 C1155 1.383 . S
C1156 C1157 1.377 . S
C1157 H1141 0.930 . S
C1157 C1156 1.377 . S
C1157 C1158 1.379 . S
C1158 H1142 0.931 . S
C1158 C1152 1.383 . S
C1158 C1157 1.379 . S
H1159 C1153 0.959 . S
H1160 C1153 0.961 . S
H1161 C1153 0.960 . S
H1162 C1154 0.930 . S
H1163 C1155 0.929 . S
H1164 C1172 0.929 . S
H1165 C1174 0.930 . S
H1166 C1176 0.930 . S
H1167 C1179 0.929 . S
H1168 C1182 0.930 . S
H1169 C1184 0.960 . S
H1170 C1184 0.960 . S
H1171 C1184 0.960 . S
C1172 H1164 0.929 . S
C1172 C1173 1.377 . S
C1172 C1174 1.384 . S
C1173 C1172 1.377 . S
C1173 C1179 1.390 . S
C1174 H1165 0.930 . S
C1174 C1172 1.384 . S
C1174 C1175 1.372 . S
C1175 C1174 1.372 . S
C1175 C1176 1.400 . S
C1175 C1180 1.490 . S
C1176 H1166 0.930 . S
C1176 C1175 1.400 . S
C1176 C1179 1.386 . S
H1177 C1193 0.930 . S
H1178 C1194 0.931 . S
C1179 H1167 0.929 . S
C1179 C1173 1.390 . S
C1179 C1176 1.386 . S
C1180 C1175 1.490 . S
C1180 C1182 1.395 . S
C1180 C1183 1.403 . S
H1181 C1187 0.930 . S
C1182 H1168 0.930 . S
C1182 C1180 1.395 . S
C1182 C1185 1.403 . S
C1183 C1180 1.403 . S
C1183 C1184 1.524 . S
C1183 C1187 1.400 . S
C1184 H1169 0.960 . S
C1184 H1170 0.960 . S
C1184 H1171 0.960 . S
C1184 C1183 1.524 . S
C1185 C1182 1.403 . S
C1185 C1186 1.392 . S
C1185 C1189 1.495 . S
C1186 C1185 1.392 . S
C1186 C1187 1.385 . S
C1186 C1188 1.478 . S
C1187 H1181 0.930 . S
C1187 C1183 1.400 . S
C1187 C1186 1.385 . S
C1188 C1186 1.478 . S
C1188 C1190 1.381 . S
C1188 C1194 1.383 . S
C1189 C1185 1.495 . S
C1189 H1195 0.959 . S
C1189 H1196 0.961 . S
C1189 H1197 0.960 . S
C1190 C1188 1.381 . S
C1190 C1191 1.394 . S
C1190 H1198 0.930 . S
C1191 C1190 1.394 . S
C1191 C1192 1.383 . S
C1191 H1199 0.929 . S
C1192 C1191 1.383 . S
C1192 C1193 1.377 . S
C1193 H1177 0.930 . S
C1193 C1192 1.377 . S
C1193 C1194 1.379 . S
C1194 H1178 0.931 . S
C1194 C1188 1.383 . S
C1194 C1193 1.379 . S
H1195 C1189 0.959 . S
H1196 C1189 0.961 . S
H1197 C1189 0.960 . S
H1198 C1190 0.930 . S
H1199 C1191 0.929 . S
H1200 C1208 0.929 . S
H1201 C1210 0.930 . S
H1202 C1212 0.930 . S
H1203 C1215 0.929 . S
H1204 C1218 0.930 . S
H1205 C1220 0.960 . S
H1206 C1220 0.960 . S
H1207 C1220 0.960 . S
C1208 H1200 0.929 . S
C1208 C1209 1.377 . S
C1208 C1210 1.384 . S
C1209 C1208 1.377 . S
C1209 C1215 1.390 . S
C1210 H1201 0.930 . S
C1210 C1208 1.384 . S
C1210 C1211 1.372 . S
C1211 C1210 1.372 . S
C1211 C1212 1.400 . S
C1211 C1216 1.490 . S
C1212 H1202 0.930 . S
C1212 C1211 1.400 . S
C1212 C1215 1.386 . S
H1213 C1229 0.930 . S
H1214 C1230 0.931 . S
C1215 H1203 0.929 . S
C1215 C1209 1.390 . S
C1215 C1212 1.386 . S
C1216 C1211 1.490 . S
C1216 C1218 1.395 . S
C1216 C1219 1.403 . S
H1217 C1223 0.930 . S
C1218 H1204 0.930 . S
C1218 C1216 1.395 . S
C1218 C1221 1.403 . S
C1219 C1216 1.403 . S
C1219 C1220 1.524 . S
C1219 C1223 1.400 . S
C1220 H1205 0.960 . S
C1220 H1206 0.960 . S
C1220 H1207 0.960 . S
C1220 C1219 1.524 . S
C1221 C1218 1.403 . S
C1221 C1222 1.392 . S
C1221 C1225 1.495 . S
C1222 C1221 1.392 . S
C1222 C1223 1.385 . S
C1222 C1224 1.478 . S
C1223 H1217 0.930 . S
C1223 C1219 1.400 . S
C1223 C1222 1.385 . S
C1224 C1222 1.478 . S
C1224 C1226 1.381 . S
C1224 C1230 1.383 . S
C1225 C1221 1.495 . S
C1225 H1231 0.959 . S
C1225 H1232 0.961 . S
C1225 H1233 0.960 . S
C1226 C1224 1.381 . S
C1226 C1227 1.394 . S
C1226 H1234 0.930 . S
C1227 C1226 1.394 . S
C1227 C1228 1.383 . S
C1227 H1235 0.929 . S
C1228 C1227 1.383 . S
C1228 C1229 1.377 . S
C1229 H1213 0.930 . S
C1229 C1228 1.377 . S
C1229 C1230 1.379 . S
C1230 H1214 0.931 . S
C1230 C1224 1.383 . S
C1230 C1229 1.379 . S
H1231 C1225 0.959 . S
H1232 C1225 0.961 . S
H1233 C1225 0.960 . S
H1234 C1226 0.930 . S
H1235 C1227 0.929 . S
C381 C247 1.355 . S
C400 C304 1.306 . S
C436 C312 1.268 . S
C417 C283 1.353 . S
C472 C316 1.294 . S
C453 C175 1.335 . S
C489 C211 1.335 . S
C508 C292 1.296 . S
C544 C333 1.337 . S
C525 C103 1.357 . S
C580 C367 1.317 . S
C561 C139 1.359 . S
C597 C31 1.350 . S
C616 C355 1.299 . S
C633 C67 1.353 . S
C652 C337 1.266 . S
C688 C291 1.220 . S
C669 C37 1.419 1_554 S
C724 C325 1.263 . S
C705 C1 1.418 . S
C760 C329 1.234 . S
C741 C109 1.424 1_556 S
C796 C307 1.222 . S
C777 C73 1.423 . S
C832 C346 1.298 . S
C813 C181 1.412 1_556 S
C849 C145 1.408 . S
C868 C354 1.222 . S
C904 C370 1.283 . S
C885 C253 1.418 1_554 S
C921 C217 1.415 . S
C940 C350 1.227 . S
C976 C295 1.266 . S
C957 C25 1.491 . S
C1012 C313 1.293 . S
C993 C61 1.490 . S
C1029 C97 1.477 . S
C1048 C328 1.300 . S
C1084 C308 1.287 . S
C1065 C133 1.476 . S
C1120 C334 1.354 . S
C1101 C169 1.484 . S
C1137 C205 1.482 . S
C1156 C358 1.334 . S
C1173 C241 1.470 . S
C1192 C371 1.334 . S
C1209 C277 1.469 . S
C1228 C349 1.338 . S
