# Generated by pormake.
# Topology dag, (6,3)-cn, num edge types: 1
# Building blocks:
#     Node 0, Type 0, BuildingBlock: OJICUG_clean_sbu_0, # of connection points: 6
#     Node 1, Type 0, BuildingBlock: OJICUG_clean_sbu_0, # of connection points: 6
#     Node 2, Type 0, BuildingBlock: OJICUG_clean_sbu_0, # of connection points: 6
#     Node 3, Type 0, BuildingBlock: OJICUG_clean_sbu_0, # of connection points: 6
#     Node 4, Type 1, BuildingBlock: PAMTOO_clean_linker_0, # of connection points: 3
#     Node 5, Type 1, BuildingBlock: PAMTOO_clean_linker_0, # of connection points: 3
#     Node 6, Type 1, BuildingBlock: PAMTOO_clean_linker_0, # of connection points: 3
#     Node 7, Type 1, BuildingBlock: PAMTOO_clean_linker_0, # of connection points: 3
#     Node 8, Type 1, BuildingBlock: PAMTOO_clean_linker_0, # of connection points: 3
#     Node 9, Type 1, BuildingBlock: PAMTOO_clean_linker_0, # of connection points: 3
#     Node 10, Type 1, BuildingBlock: PAMTOO_clean_linker_0, # of connection points: 3
#     Node 11, Type 1, BuildingBlock: PAMTOO_clean_linker_0, # of connection points: 3
#     Edge 12, Type (0, 1), BuildingBlock: OJICUG_clean_linker_0, # of connection points: 2
#     Edge 13, Type (0, 1), BuildingBlock: OJICUG_clean_linker_0, # of connection points: 2
#     Edge 14, Type (0, 1), BuildingBlock: OJICUG_clean_linker_0, # of connection points: 2
#     Edge 15, Type (0, 1), BuildingBlock: OJICUG_clean_linker_0, # of connection points: 2
#     Edge 16, Type (0, 1), BuildingBlock: OJICUG_clean_linker_0, # of connection points: 2
#     Edge 17, Type (0, 1), BuildingBlock: OJICUG_clean_linker_0, # of connection points: 2
#     Edge 18, Type (0, 1), BuildingBlock: OJICUG_clean_linker_0, # of connection points: 2
#     Edge 19, Type (0, 1), BuildingBlock: OJICUG_clean_linker_0, # of connection points: 2
#     Edge 20, Type (0, 1), BuildingBlock: OJICUG_clean_linker_0, # of connection points: 2
#     Edge 21, Type (0, 1), BuildingBlock: OJICUG_clean_linker_0, # of connection points: 2
#     Edge 22, Type (0, 1), BuildingBlock: OJICUG_clean_linker_0, # of connection points: 2
#     Edge 23, Type (0, 1), BuildingBlock: OJICUG_clean_linker_0, # of connection points: 2
#     Edge 24, Type (0, 1), BuildingBlock: OJICUG_clean_linker_0, # of connection points: 2
#     Edge 25, Type (0, 1), BuildingBlock: OJICUG_clean_linker_0, # of connection points: 2
#     Edge 26, Type (0, 1), BuildingBlock: OJICUG_clean_linker_0, # of connection points: 2
#     Edge 27, Type (0, 1), BuildingBlock: OJICUG_clean_linker_0, # of connection points: 2
#     Edge 28, Type (0, 1), BuildingBlock: OJICUG_clean_linker_0, # of connection points: 2
#     Edge 29, Type (0, 1), BuildingBlock: OJICUG_clean_linker_0, # of connection points: 2
#     Edge 30, Type (0, 1), BuildingBlock: OJICUG_clean_linker_0, # of connection points: 2
#     Edge 31, Type (0, 1), BuildingBlock: OJICUG_clean_linker_0, # of connection points: 2
#     Edge 32, Type (0, 1), BuildingBlock: OJICUG_clean_linker_0, # of connection points: 2
#     Edge 33, Type (0, 1), BuildingBlock: OJICUG_clean_linker_0, # of connection points: 2
#     Edge 34, Type (0, 1), BuildingBlock: OJICUG_clean_linker_0, # of connection points: 2
#     Edge 35, Type (0, 1), BuildingBlock: OJICUG_clean_linker_0, # of connection points: 2
# Relax obj value: 0.094
# Max RMSD: 0.122
# Mean RMSD: 0.099
data_MOF--net-dag--node1-OJICUG_clean_sbu_0--node2-PAMTOO_clean_linker_0--edge1-OJICUG_clean_linker_0
_symmetry_space_group_name_H-M    P1
_symmetry_Int_Tables_number       1
_symmetry_cell_setting            triclinic
loop_
_symmetry_equiv_pos_as_xyz
'x, y, z'
_cell_length_a     27.376616
_cell_length_b     28.284308
_cell_length_c     28.823013
_cell_angle_alpha  89.967416
_cell_angle_beta   94.73005
_cell_angle_gamma 89.928509
loop_
_atom_site_label
_atom_site_type_symbol
_atom_site_fract_x
_atom_site_fract_y
_atom_site_fract_z
_atom_type_partial_charge
Sc0 Sc 0.12026 0.90999 0.99819 0.0
Sc1 Sc 0.12893 0.78917 0.97441 0.0
Sc2 Sc 0.23599 0.85577 0.01101 0.0
O3 O 0.16192 0.85147 0.99455 0.0
C4 C 0.21571 0.95399 0.95896 0.0
C5 C 0.07115 0.86305 0.90584 0.0
C6 C 0.22682 0.78929 0.92086 0.0
C7 C 0.05103 0.83144 0.03866 0.0
C8 C 0.19293 0.91792 0.09033 0.0
C9 C 0.21091 0.75433 0.05244 0.0
O10 O 0.17049 0.95386 0.96524 0.0
O11 O 0.0827 0.82092 0.91783 0.0
O12 O 0.25049 0.81805 0.94835 0.0
O13 O 0.06448 0.87359 0.0317 0.0
O14 O 0.22775 0.89368 0.07563 0.0
O15 O 0.17061 0.7493 0.02771 0.0
O16 O 0.15295 0.92632 0.0662 0.0
O17 O 0.07127 0.79586 0.02122 0.0
O18 O 0.23776 0.79076 0.05016 0.0
O19 O 0.08369 0.89874 0.93069 0.0
O20 O 0.24511 0.92161 0.9739 0.0
O21 O 0.18319 0.77605 0.92615 0.0
Sc22 Sc 0.71013 0.64998 0.50123 0.0
Sc23 Sc 0.61635 0.73267 0.46553 0.0
Sc24 Sc 0.58763 0.62804 0.52004 0.0
O25 O 0.63834 0.66998 0.49514 0.0
C26 C 0.65433 0.55503 0.46883 0.0
C27 C 0.70355 0.70354 0.40379 0.0
C28 C 0.53157 0.66763 0.42525 0.0
C29 C 0.7097 0.75817 0.53473 0.0
C30 C 0.67657 0.60973 0.59644 0.0
C31 C 0.54551 0.72517 0.54799 0.0
O32 O 0.69326 0.57994 0.47372 0.0
O33 O 0.66773 0.72943 0.41302 0.0
O34 O 0.53519 0.64274 0.46214 0.0
O35 O 0.7307 0.71825 0.53033 0.0
O36 O 0.63183 0.60897 0.58148 0.0
O37 O 0.55911 0.74551 0.51192 0.0
O38 O 0.71015 0.6237 0.57188 0.0
O39 O 0.66801 0.7686 0.51405 0.0
O40 O 0.55927 0.68384 0.55993 0.0
O41 O 0.7215 0.67203 0.43154 0.0
O42 O 0.61354 0.56854 0.4827 0.0
O43 O 0.56263 0.69929 0.41668 0.0
Sc44 Sc 0.86933 0.21105 0.06748 0.0
Sc45 Sc 0.76357 0.14324 0.02942 0.0
Sc46 Sc 0.87946 0.08987 0.04584 0.0
O47 O 0.83727 0.14816 0.04783 0.0
C48 C 0.94951 0.1679 0.0062 0.0
C49 C 0.7915 0.24191 0.98412 0.0
C50 C 0.80909 0.08009 0.9525 0.0
C51 C 0.76918 0.21247 0.1175 0.0
C52 C 0.92638 0.13866 0.13826 0.0
C53 C 0.78305 0.04656 0.08411 0.0
O54 O 0.92887 0.20355 0.02301 0.0
O55 O 0.764 0.20607 0.98731 0.0
O56 O 0.84881 0.07262 0.97734 0.0
O57 O 0.8131 0.22562 0.11352 0.0
O58 O 0.91474 0.10254 0.11365 0.0
O59 O 0.75372 0.07874 0.06849 0.0
O60 O 0.91398 0.18053 0.12587 0.0
O61 O 0.7467 0.18304 0.08995 0.0
O62 O 0.82836 0.04649 0.07816 0.0
O63 O 0.83006 0.24857 0.011 0.0
O64 O 0.93588 0.12582 0.01307 0.0
O65 O 0.77345 0.10357 0.96642 0.0
Sc66 Sc 0.40646 0.37422 0.52482 0.0
Sc67 Sc 0.2836 0.34807 0.53837 0.0
Sc68 Sc 0.37848 0.26677 0.57686 0.0
O69 O 0.35603 0.32953 0.54674 0.0
C70 C 0.4526 0.27537 0.49831 0.0
C71 C 0.32249 0.38628 0.44336 0.0
C72 C 0.28438 0.23881 0.50881 0.0
C73 C 0.33222 0.44603 0.56886 0.0
C74 C 0.45677 0.33939 0.62294 0.0
C75 C 0.29074 0.29637 0.6375 0.0
O76 O 0.44653 0.31956 0.49373 0.0
O77 O 0.28784 0.37637 0.4686 0.0
O78 O 0.32448 0.22881 0.5325 0.0
O79 O 0.37253 0.43463 0.55307 0.0
O80 O 0.4347 0.29981 0.62365 0.0
O81 O 0.26969 0.32379 0.6071 0.0
O82 O 0.45006 0.36889 0.58977 0.0
O83 O 0.2957 0.41812 0.56792 0.0
O84 O 0.32969 0.27385 0.63094 0.0
O85 O 0.36732 0.38424 0.45835 0.0
O86 O 0.4316 0.25077 0.52759 0.0
O87 O 0.26521 0.27996 0.50786 0.0
H88 H 0.09211 0.03365 0.20153 0.0
H89 H 0.10799 0.13815 0.30995 0.0
H90 H 0.22617 0.04156 0.29007 0.0
H91 H 0.21191 0.06074 0.39099 0.0
C92 C 0.1931 0.09551 0.38627 0.0
O93 O 0.19626 0.11109 0.34125 0.0
H94 H 0.15405 0.09063 0.3934 0.0
C95 C 0.11345 0.04919 0.23106 0.0
C96 C 0.16105 0.03256 0.24321 0.0
C97 C 0.09392 0.08726 0.2546 0.0
C98 C 0.12243 0.10863 0.2914 0.0
C99 C 0.16964 0.09136 0.30481 0.0
C100 C 0.18931 0.05396 0.28019 0.0
H101 H 0.37676 0.65801 0.57857 0.0
H102 H 0.28146 0.63323 0.68746 0.0
H103 H 0.35888 0.76484 0.68158 0.0
H104 H 0.36232 0.71847 0.76939 0.0
C105 C 0.32393 0.70548 0.76954 0.0
O106 O 0.29827 0.71539 0.72745 0.0
H107 H 0.32521 0.66657 0.77527 0.0
C108 C 0.35808 0.6709 0.60786 0.0
C109 C 0.37001 0.71568 0.62621 0.0
C110 C 0.32711 0.64033 0.63014 0.0
C111 C 0.30447 0.65666 0.66901 0.0
C112 C 0.31544 0.70189 0.68699 0.0
C113 C 0.34829 0.73124 0.66575 0.0
H114 H 0.8513 0.88227 0.09509 0.0
H115 H 0.76011 0.84158 0.20273 0.0
H116 H 0.88855 0.75998 0.17944 0.0
H117 H 0.80699 0.69744 0.21631 0.0
C118 C 0.78443 0.72825 0.22547 0.0
O119 O 0.81355 0.76795 0.22971 0.0
H120 H 0.75442 0.73278 0.19725 0.0
C121 C 0.84231 0.85733 0.12172 0.0
C122 C 0.87464 0.82005 0.1339 0.0
C123 C 0.8009 0.86536 0.1461 0.0
C124 C 0.79091 0.83476 0.18236 0.0
C125 C 0.82179 0.79593 0.19329 0.0
C126 C 0.86355 0.78852 0.16905 0.0
H127 H 0.60821 0.47083 0.69242 0.0
H128 H 0.6343 0.36003 0.79395 0.0
H129 H 0.73691 0.47471 0.78807 0.0
H130 H 0.78768 0.38596 0.81807 0.0
C131 C 0.75424 0.36546 0.82447 0.0
O132 O 0.71647 0.3963 0.83116 0.0
H133 H 0.74506 0.34265 0.79345 0.0
C134 C 0.62996 0.45564 0.72193 0.0
C135 C 0.67353 0.47808 0.73842 0.0
C136 C 0.61517 0.41308 0.74146 0.0
C137 C 0.64489 0.3929 0.77829 0.0
C138 C 0.68849 0.41542 0.79526 0.0
C139 C 0.70299 0.45781 0.77514 0.0
H140 H 0.60998 0.343 0.45585 0.0
H141 H 0.63127 0.2357 0.35408 0.0
H142 H 0.70325 0.37008 0.34583 0.0
H143 H 0.66284 0.33464 0.25861 0.0
C144 C 0.66513 0.2958 0.26465 0.0
O145 O 0.69006 0.28678 0.30729 0.0
H146 H 0.62709 0.28176 0.26406 0.0
C147 C 0.62855 0.33066 0.42627 0.0
C148 C 0.65801 0.36207 0.40336 0.0
C149 C 0.61865 0.28514 0.40885 0.0
C150 C 0.64033 0.27 0.36913 0.0
C151 C 0.67179 0.30034 0.34723 0.0
C152 C 0.68101 0.34615 0.36453 0.0
H153 H 0.15071 0.11909 0.95012 0.0
H154 H 0.10959 0.23935 0.86436 0.0
H155 H 0.23842 0.15907 0.83953 0.0
H156 H 0.23967 0.27111 0.84451 0.0
C157 C 0.20978 0.27313 0.81588 0.0
O158 O 0.18326 0.23173 0.81263 0.0
H159 H 0.18517 0.30284 0.82381 0.0
C160 C 0.15879 0.14377 0.92293 0.0
C161 C 0.1995 0.13568 0.89761 0.0
C162 C 0.12567 0.18038 0.91077 0.0
C163 C 0.13532 0.2114 0.87478 0.0
C164 C 0.17653 0.20422 0.84977 0.0
C165 C 0.20821 0.16593 0.86063 0.0
H166 H 0.382 0.53609 0.35553 0.0
H167 H 0.34931 0.64808 0.25682 0.0
H168 H 0.26109 0.52185 0.25153 0.0
H169 H 0.26722 0.56327 0.15489 0.0
C170 C 0.28451 0.59698 0.1674 0.0
O171 O 0.27461 0.60452 0.21293 0.0
H172 H 0.32473 0.59372 0.16447 0.0
C173 C 0.36022 0.54999 0.32538 0.0
C174 C 0.32116 0.52323 0.30501 0.0
C175 C 0.37039 0.59518 0.30879 0.0
C176 C 0.34209 0.61309 0.26998 0.0
C177 C 0.30288 0.58643 0.24921 0.0
C178 C 0.29198 0.5418 0.26711 0.0
H179 H 0.91179 0.9705 0.83792 0.0
H180 H 0.89727 0.87045 0.72545 0.0
H181 H 0.78052 0.96878 0.74527 0.0
H182 H 0.74291 0.88013 0.71277 0.0
C183 C 0.77595 0.86463 0.69857 0.0
O184 O 0.80986 0.89976 0.69333 0.0
H185 H 0.79116 0.8375 0.72387 0.0
C186 C 0.89122 0.95672 0.80706 0.0
C187 C 0.84437 0.97468 0.79416 0.0
C188 C 0.91072 0.91923 0.78275 0.0
C189 C 0.883 0.89983 0.74434 0.0
C190 C 0.83645 0.91839 0.73036 0.0
C191 C 0.81696 0.9555 0.75551 0.0
C192 C 0.16021 0.92555 0.16702 0.0
C193 C 0.19693 0.93712 0.13782 0.0
H194 H 0.12118 0.9464 0.22495 0.0
C195 C 0.22883 0.97478 0.14992 0.0
H196 H 0.135 0.89683 0.15803 0.0
C197 C 0.22065 0.00353 0.1882 0.0
C198 C 0.18053 0.99472 0.21444 0.0
H199 H 0.25687 0.98467 0.12735 0.0
H200 H 0.24261 0.03508 0.19444 0.0
C201 C 0.15226 0.95392 0.20518 0.0
C202 C 0.45992 0.75372 0.54341 0.0
C203 C 0.50361 0.74405 0.57083 0.0
H204 H 0.38139 0.75221 0.54023 0.0
C205 C 0.50234 0.73863 0.61911 0.0
H206 H 0.45999 0.75734 0.50598 0.0
C207 C 0.45747 0.7369 0.6388 0.0
C208 C 0.41349 0.73937 0.61019 0.0
H209 H 0.5356 0.73077 0.64078 0.0
H210 H 0.45715 0.72756 0.67525 0.0
C211 C 0.41494 0.75073 0.56292 0.0
C212 C 0.7472 0.9669 0.07743 0.0
C213 C 0.76478 0.00415 0.10623 0.0
H214 H 0.74444 0.89169 0.06838 0.0
C215 C 0.78115 0.99468 0.15273 0.0
H216 H 0.73551 0.9734 0.04114 0.0
C217 C 0.78553 0.94801 0.16854 0.0
C218 C 0.77458 0.91047 0.13763 0.0
H219 H 0.79586 0.02288 0.17515 0.0
H220 H 0.80347 0.9413 0.20285 0.0
C221 C 0.7524 0.92018 0.09296 0.0
C222 C 0.53055 0.32377 0.67845 0.0
C223 C 0.49164 0.35338 0.66212 0.0
H224 H 0.60114 0.31977 0.71688 0.0
C225 C 0.48995 0.39989 0.67873 0.0
H226 H 0.53259 0.2878 0.66586 0.0
C227 C 0.52829 0.4178 0.70824 0.0
C228 C 0.56975 0.38991 0.72098 0.0
H229 H 0.45998 0.42321 0.66697 0.0
H230 H 0.52689 0.45452 0.71878 0.0
C231 C 0.56961 0.34204 0.70765 0.0
C232 C 0.70106 0.48544 0.43971 0.0
C233 C 0.65625 0.50719 0.44798 0.0
H234 H 0.73695 0.42199 0.41902 0.0
C235 C 0.61256 0.48172 0.43834 0.0
H236 H 0.73539 0.50413 0.44662 0.0
C237 C 0.6136 0.43522 0.4228 0.0
C238 C 0.65831 0.41272 0.41651 0.0
H239 H 0.57728 0.49735 0.44353 0.0
H240 H 0.57918 0.41657 0.41616 0.0
C241 C 0.70205 0.43853 0.42394 0.0
C242 C 0.0181 0.21711 0.97785 0.0
C243 C 0.99183 0.17433 0.97801 0.0
H244 H 0.08181 0.25281 0.95598 0.0
C245 C 0.00777 0.1358 0.95239 0.0
H246 H 0.00654 0.24749 0.99702 0.0
C247 C 0.05023 0.13892 0.92937 0.0
C248 C 0.07795 0.1806 0.9312 0.0
H249 H 0.98802 0.1026 0.95084 0.0
H250 H 0.06209 0.10818 0.91083 0.0
C251 C 0.06098 0.22024 0.95443 0.0
C252 C 0.34739 0.40851 0.36522 0.0
C253 C 0.31149 0.40893 0.39741 0.0
H254 H 0.37776 0.44478 0.30911 0.0
C255 C 0.27139 0.43992 0.38995 0.0
H256 H 0.37845 0.38468 0.36978 0.0
C257 C 0.27099 0.4743 0.35488 0.0
C258 C 0.31045 0.47765 0.32688 0.0
H259 H 0.24325 0.44113 0.41425 0.0
H260 H 0.24275 0.50127 0.35305 0.0
C261 C 0.34693 0.4427 0.33032 0.0
C262 C 0.03715 0.91646 0.84255 0.0
C263 C 0.03759 0.87173 0.86382 0.0
H264 H 0.99661 0.96607 0.79851 0.0
C265 C 0.00084 0.83896 0.84937 0.0
H266 H 0.0654 0.9422 0.85243 0.0
C267 C 0.96128 0.85278 0.81827 0.0
C268 C 0.95838 0.89932 0.8012 0.0
H269 H 0.00031 0.80422 0.86515 0.0
H270 H 0.93097 0.82858 0.81105 0.0
C271 C 0.99798 0.93007 0.81148 0.0
C272 C 0.84438 0.07616 0.8768 0.0
C273 C 0.80701 0.0626 0.90447 0.0
H274 H 0.88428 0.05943 0.81824 0.0
C275 C 0.77496 0.02603 0.88939 0.0
H276 H 0.86951 0.1043 0.88798 0.0
C277 C 0.78363 5e-05 0.84943 0.0
C278 C 0.82429 0.01069 0.8245 0.0
H279 H 0.74625 0.01483 0.91064 0.0
H280 H 0.76156 0.96904 0.84072 0.0
C281 C 0.85275 0.05063 0.83694 0.0
C282 C 0.48887 0.25996 0.42426 0.0
C283 C 0.49143 0.25463 0.47277 0.0
H284 H 0.5293 0.27136 0.36482 0.0
C285 C 0.53675 0.24485 0.49724 0.0
H286 H 0.45425 0.26821 0.40495 0.0
C287 C 0.57981 0.24772 0.47449 0.0
C288 C 0.57756 0.2594 0.42701 0.0
H289 H 0.53949 0.24148 0.53483 0.0
H290 H 0.6148 0.24649 0.49496 0.0
C291 C 0.5318 0.26168 0.40133 0.0
C292 C 0.21731 0.00627 0.89052 0.0
C293 C 0.23384 0.99654 0.93693 0.0
H294 H 0.19568 0.05996 0.84055 0.0
C295 C 0.25234 0.03348 0.96565 0.0
H296 H 0.20197 0.97831 0.86815 0.0
C297 C 0.248 0.08028 0.95013 0.0
C298 C 0.22567 0.09038 0.90559 0.0
H299 H 0.26423 0.02679 0.00186 0.0
H300 H 0.25666 0.10864 0.9747 0.0
C301 C 0.21378 0.05299 0.87473 0.0
C302 C 0.44383 0.64749 0.4115 0.0
C303 C 0.48801 0.65904 0.39275 0.0
H304 H 0.37164 0.61931 0.39899 0.0
C305 C 0.4907 0.6566 0.3443 0.0
H306 H 0.4405 0.6498 0.44865 0.0
C307 C 0.45085 0.63884 0.31564 0.0
C308 C 0.40819 0.6238 0.33535 0.0
H309 H 0.52444 0.66532 0.32912 0.0
H310 H 0.4545 0.63405 0.27881 0.0
C311 C 0.40437 0.6302 0.38314 0.0
C312 C 0.37261 0.51967 0.59923 0.0
C313 C 0.32905 0.49428 0.58848 0.0
H314 H 0.40573 0.58488 0.62122 0.0
C315 C 0.28393 0.51646 0.59458 0.0
H316 H 0.40812 0.50361 0.59597 0.0
C317 C 0.28266 0.56385 0.6092 0.0
C318 C 0.32647 0.5895 0.61761 0.0
H319 H 0.24975 0.49775 0.58677 0.0
H320 H 0.24764 0.5808 0.61255 0.0
C321 C 0.37132 0.56646 0.6136 0.0
C322 C 0.98195 0.78258 0.06672 0.0
C323 C 0.00908 0.82491 0.06738 0.0
H324 H 0.91742 0.74761 0.0877 0.0
C325 C 0.99395 0.86313 0.0939 0.0
H326 H 0.99282 0.75245 0.0468 0.0
C327 C 0.95137 0.86031 0.11684 0.0
C328 C 0.92272 0.81921 0.11406 0.0
H329 H 0.01435 0.89597 0.09607 0.0
H330 H 0.94006 0.8909 0.13592 0.0
C331 C 0.93897 0.77974 0.09005 0.0
C332 C 0.72558 0.55306 0.64782 0.0
C333 C 0.68887 0.58783 0.64229 0.0
H334 H 0.74976 0.49 0.68449 0.0
C335 C 0.65581 0.59293 0.67671 0.0
H336 H 0.75121 0.54825 0.62151 0.0
C337 C 0.6552 0.56 0.71261 0.0
C338 C 0.68758 0.52148 0.71453 0.0
H339 H 0.62731 0.61964 0.67328 0.0
H340 H 0.62614 0.5618 0.73591 0.0
C341 C 0.7248 0.51979 0.68382 0.0
C342 C 0.99755 0.16489 0.19253 0.0
C343 C 0.96141 0.13102 0.17947 0.0
H344 H 0.06873 0.17733 0.22751 0.0
C345 C 0.96479 0.08602 0.2002 0.0
H346 H 0.99594 0.19984 0.17708 0.0
C347 C 0.00612 0.07334 0.22899 0.0
C348 C 0.04492 0.10537 0.23761 0.0
H349 H 0.93717 0.05937 0.19135 0.0
H350 H 0.00951 0.03726 0.24155 0.0
C351 C 0.03919 0.15207 0.22142 0.0
C352 C 0.27411 0.718 0.10987 0.0
C353 C 0.22852 0.715 0.0836 0.0
H354 H 0.32729 0.68287 0.15679 0.0
C355 C 0.20089 0.67324 0.086 0.0
H356 H 0.2963 0.74961 0.10913 0.0
C357 C 0.21889 0.63511 0.11317 0.0
C358 C 0.26499 0.63782 0.13814 0.0
H359 H 0.16554 0.66971 0.06649 0.0
H360 H 0.19702 0.60331 0.11432 0.0
C361 C 0.29204 0.67982 0.13699 0.0
C362 C 0.77574 0.77932 0.59678 0.0
C363 C 0.73143 0.79095 0.57094 0.0
H364 H 0.82433 0.79369 0.65738 0.0
C365 C 0.70483 0.83054 0.58454 0.0
H366 H 0.79748 0.74939 0.5872 0.0
C367 C 0.72023 0.85557 0.62492 0.0
C368 C 0.76235 0.84141 0.65247 0.0
H369 H 0.67073 0.84078 0.56543 0.0
H370 H 0.69813 0.88475 0.63569 0.0
C371 C 0.79108 0.80443 0.63709 0.0
C372 C 0.76375 0.27023 0.18285 0.0
C373 C 0.74283 0.233 0.15562 0.0
H374 H 0.75517 0.3192 0.23842 0.0
C375 C 0.69632 0.21604 0.16488 0.0
H376 H 0.79947 0.28422 0.17675 0.0
C377 C 0.67123 0.23606 0.20032 0.0
C378 C 0.69201 0.2736 0.22692 0.0
H379 H 0.67921 0.18728 0.14479 0.0
H380 H 0.63548 0.22239 0.20677 0.0
C381 C 0.73851 0.29036 0.21809 0.0
C382 C 0.29368 0.26236 0.718 0.0
C383 C 0.26985 0.29095 0.68306 0.0
H384 H 0.29327 0.23474 0.78725 0.0
C385 C 0.22643 0.31449 0.69244 0.0
H386 H 0.3271 0.24357 0.71209 0.0
C387 C 0.20734 0.30944 0.7357 0.0
C388 C 0.2316 0.28125 0.77049 0.0
H389 H 0.20703 0.33665 0.66635 0.0
H390 H 0.1735 0.32735 0.74194 0.0
C391 C 0.27461 0.25744 0.76116 0.0
C392 C 0.70328 0.74207 0.32533 0.0
C393 C 0.72435 0.70966 0.35827 0.0
H394 H 0.7058 0.77289 0.25754 0.0
C395 C 0.76499 0.68276 0.34691 0.0
H396 H 0.67204 0.76346 0.33281 0.0
C397 C 0.78405 0.68819 0.3037 0.0
C398 C 0.76251 0.72018 0.27085 0.0
H399 H 0.78228 0.65761 0.37143 0.0
H400 H 0.81573 0.66755 0.29599 0.0
C401 C 0.7223 0.74735 0.28214 0.0
C402 C 0.7399 0.26741 0.91244 0.0
C403 C 0.77995 0.27559 0.94531 0.0
H404 H 0.70078 0.28951 0.84852 0.0
C405 C 0.81052 0.31468 0.93903 0.0
H406 H 0.71545 0.23782 0.91617 0.0
C407 C 0.80204 0.34401 0.90017 0.0
C408 C 0.76314 0.33462 0.8667 0.0
H409 H 0.84155 0.32222 0.96369 0.0
H410 H 0.82631 0.37364 0.89591 0.0
C411 C 0.73155 0.29674 0.8736 0.0
C412 C 0.28299 0.15727 0.4742 0.0
C413 C 0.25995 0.20128 0.47936 0.0
H414 H 0.28011 0.08958 0.44058 0.0
C415 C 0.2143 0.2097 0.45453 0.0
H416 H 0.31825 0.14958 0.4925 0.0
C417 C 0.19255 0.17517 0.42496 0.0
C418 C 0.2159 0.13158 0.41961 0.0
H419 H 0.1955 0.24313 0.45753 0.0
H420 H 0.15764 0.18262 0.40584 0.0
C421 C 0.26127 0.12287 0.44445 0.0
C422 C 0.22838 0.73326 0.85371 0.0
C423 C 0.25135 0.76914 0.88142 0.0
H424 H 0.23373 0.68511 0.79691 0.0
C425 C 0.29817 0.7847 0.87153 0.0
H426 H 0.19235 0.72034 0.86024 0.0
C427 C 0.3216 0.76448 0.83508 0.0
C428 C 0.29879 0.7282 0.8081 0.0
H429 H 0.31684 0.81235 0.89199 0.0
H430 H 0.35771 0.77694 0.82822 0.0
C431 C 0.25194 0.71296 0.8175 0.0
loop_
_geom_bond_atom_site_label_1
_geom_bond_atom_site_label_2
_geom_bond_distance
_geom_bond_site_symmetry_2
_ccdc_geom_bond_type
Sc0 O3 2.025 . S
Sc0 O10 2.105 1_554 S
Sc0 O13 2.105 . S
Sc0 O16 2.105 . S
Sc0 O19 2.105 1_554 S
Sc1 O3 2.025 1_556 S
Sc1 O11 2.105 . S
Sc1 O15 2.105 1_556 S
Sc1 O17 2.105 1_556 S
Sc1 O21 2.105 . S
Sc2 O3 2.025 . S
Sc2 O12 2.105 1_554 S
Sc2 O14 2.105 . S
Sc2 O18 2.105 . S
Sc2 O20 2.105 1_554 S
O3 Sc0 2.025 . S
O3 Sc1 2.025 1_554 S
O3 Sc2 2.025 . S
C4 O10 1.268 . S
C4 O20 1.268 . S
C5 O11 1.268 . S
C5 O19 1.268 . S
C6 O12 1.268 . S
C6 O21 1.268 . S
C7 O13 1.268 . S
C7 O17 1.268 . S
C8 O14 1.268 . S
C8 O16 1.268 . S
C9 O15 1.268 . S
C9 O18 1.268 . S
O10 Sc0 2.105 1_556 S
O10 C4 1.268 . S
O11 Sc1 2.105 . S
O11 C5 1.268 . S
O12 Sc2 2.105 1_556 S
O12 C6 1.268 . S
O13 Sc0 2.105 . S
O13 C7 1.268 . S
O14 Sc2 2.105 . S
O14 C8 1.268 . S
O15 Sc1 2.105 1_554 S
O15 C9 1.268 . S
O16 Sc0 2.105 . S
O16 C8 1.268 . S
O17 Sc1 2.105 1_554 S
O17 C7 1.268 . S
O18 Sc2 2.105 . S
O18 C9 1.268 . S
O19 Sc0 2.105 1_556 S
O19 C5 1.268 . S
O20 Sc2 2.105 1_556 S
O20 C4 1.268 . S
O21 Sc1 2.105 . S
O21 C6 1.268 . S
Sc22 O25 2.025 . S
Sc22 O32 2.105 . S
Sc22 O35 2.105 . S
Sc22 O38 2.105 . S
Sc22 O41 2.105 . S
Sc23 O25 2.025 . S
Sc23 O33 2.105 . S
Sc23 O37 2.105 . S
Sc23 O39 2.105 . S
Sc23 O43 2.105 . S
Sc24 O25 2.025 . S
Sc24 O34 2.105 . S
Sc24 O36 2.105 . S
Sc24 O40 2.105 . S
Sc24 O42 2.105 . S
O25 Sc22 2.025 . S
O25 Sc23 2.025 . S
O25 Sc24 2.025 . S
C26 O32 1.268 . S
C26 O42 1.268 . S
C27 O33 1.268 . S
C27 O41 1.268 . S
C28 O34 1.268 . S
C28 O43 1.268 . S
C29 O35 1.268 . S
C29 O39 1.268 . S
C30 O36 1.268 . S
C30 O38 1.268 . S
C31 O37 1.268 . S
C31 O40 1.268 . S
O32 Sc22 2.105 . S
O32 C26 1.268 . S
O33 Sc23 2.105 . S
O33 C27 1.268 . S
O34 Sc24 2.105 . S
O34 C28 1.268 . S
O35 Sc22 2.105 . S
O35 C29 1.268 . S
O36 Sc24 2.105 . S
O36 C30 1.268 . S
O37 Sc23 2.105 . S
O37 C31 1.268 . S
O38 Sc22 2.105 . S
O38 C30 1.268 . S
O39 Sc23 2.105 . S
O39 C29 1.268 . S
O40 Sc24 2.105 . S
O40 C31 1.268 . S
O41 Sc22 2.105 . S
O41 C27 1.268 . S
O42 Sc24 2.105 . S
O42 C26 1.268 . S
O43 Sc23 2.105 . S
O43 C28 1.268 . S
Sc44 O47 2.025 . S
Sc44 O54 2.105 . S
Sc44 O57 2.105 . S
Sc44 O60 2.105 . S
Sc44 O63 2.105 . S
Sc45 O47 2.025 . S
Sc45 O55 2.105 1_554 S
Sc45 O59 2.105 . S
Sc45 O61 2.105 . S
Sc45 O65 2.105 1_554 S
Sc46 O47 2.025 . S
Sc46 O56 2.105 1_554 S
Sc46 O58 2.105 . S
Sc46 O62 2.105 . S
Sc46 O64 2.105 1_554 S
O47 Sc44 2.025 . S
O47 Sc45 2.025 . S
O47 Sc46 2.025 . S
C48 O54 1.268 1_556 S
C48 O64 1.268 . S
C49 O55 1.268 . S
C49 O63 1.268 1_556 S
C50 O56 1.268 . S
C50 O65 1.268 . S
C51 O57 1.268 . S
C51 O61 1.268 . S
C52 O58 1.268 . S
C52 O60 1.268 . S
C53 O59 1.268 . S
C53 O62 1.268 . S
O54 Sc44 2.105 . S
O54 C48 1.268 1_554 S
O55 Sc45 2.105 1_556 S
O55 C49 1.268 . S
O56 Sc46 2.105 1_556 S
O56 C50 1.268 . S
O57 Sc44 2.105 . S
O57 C51 1.268 . S
O58 Sc46 2.105 . S
O58 C52 1.268 . S
O59 Sc45 2.105 . S
O59 C53 1.268 . S
O60 Sc44 2.105 . S
O60 C52 1.268 . S
O61 Sc45 2.105 . S
O61 C51 1.268 . S
O62 Sc46 2.105 . S
O62 C53 1.268 . S
O63 Sc44 2.105 . S
O63 C49 1.268 1_554 S
O64 Sc46 2.105 1_556 S
O64 C48 1.268 . S
O65 Sc45 2.105 1_556 S
O65 C50 1.268 . S
Sc66 O69 2.025 . S
Sc66 O76 2.105 . S
Sc66 O79 2.105 . S
Sc66 O82 2.105 . S
Sc66 O85 2.105 . S
Sc67 O69 2.025 . S
Sc67 O77 2.105 . S
Sc67 O81 2.105 . S
Sc67 O83 2.105 . S
Sc67 O87 2.105 . S
Sc68 O69 2.025 . S
Sc68 O78 2.105 . S
Sc68 O80 2.105 . S
Sc68 O84 2.105 . S
Sc68 O86 2.105 . S
O69 Sc66 2.025 . S
O69 Sc67 2.025 . S
O69 Sc68 2.025 . S
C70 O76 1.268 . S
C70 O86 1.268 . S
C71 O77 1.268 . S
C71 O85 1.268 . S
C72 O78 1.268 . S
C72 O87 1.268 . S
C73 O79 1.268 . S
C73 O83 1.268 . S
C74 O80 1.268 . S
C74 O82 1.268 . S
C75 O81 1.268 . S
C75 O84 1.268 . S
O76 Sc66 2.105 . S
O76 C70 1.268 . S
O77 Sc67 2.105 . S
O77 C71 1.268 . S
O78 Sc68 2.105 . S
O78 C72 1.268 . S
O79 Sc66 2.105 . S
O79 C73 1.268 . S
O80 Sc68 2.105 . S
O80 C74 1.268 . S
O81 Sc67 2.105 . S
O81 C75 1.268 . S
O82 Sc66 2.105 . S
O82 C74 1.268 . S
O83 Sc67 2.105 . S
O83 C73 1.268 . S
O84 Sc68 2.105 . S
O84 C75 1.268 . S
O85 Sc66 2.105 . S
O85 C71 1.268 . S
O86 Sc68 2.105 . S
O86 C70 1.268 . S
O87 Sc67 2.105 . S
O87 C72 1.268 . S
H88 C95 0.929 . S
H89 C98 0.930 . S
H90 C100 0.929 . S
H91 C92 0.969 . S
C92 H91 0.969 . S
C92 O93 1.550 . S
C92 H94 0.973 . S
O93 C92 1.550 . S
O93 C99 1.412 . S
H94 C92 0.973 . S
C95 H88 0.929 . S
C95 C96 1.400 . S
C95 C97 1.364 . S
C96 C95 1.400 . S
C96 C100 1.377 . S
C97 C95 1.364 . S
C97 C98 1.374 . S
C98 H89 0.930 . S
C98 C97 1.374 . S
C98 C99 1.383 . S
C99 O93 1.412 . S
C99 C98 1.383 . S
C99 C100 1.394 . S
C100 H90 0.929 . S
C100 C96 1.377 . S
C100 C99 1.394 . S
H101 C108 0.929 . S
H102 C111 0.930 . S
H103 C113 0.929 . S
H104 C105 0.969 . S
C105 H104 0.969 . S
C105 O106 1.550 . S
C105 H107 0.973 . S
O106 C105 1.550 . S
O106 C112 1.412 . S
H107 C105 0.973 . S
C108 H101 0.929 . S
C108 C109 1.400 . S
C108 C110 1.364 . S
C109 C108 1.400 . S
C109 C113 1.377 . S
C110 C108 1.364 . S
C110 C111 1.374 . S
C111 H102 0.930 . S
C111 C110 1.374 . S
C111 C112 1.383 . S
C112 O106 1.412 . S
C112 C111 1.383 . S
C112 C113 1.394 . S
C113 H103 0.929 . S
C113 C109 1.377 . S
C113 C112 1.394 . S
H114 C121 0.929 . S
H115 C124 0.930 . S
H116 C126 0.929 . S
H117 C118 0.969 . S
C118 H117 0.969 . S
C118 O119 1.550 . S
C118 H120 0.973 . S
O119 C118 1.550 . S
O119 C125 1.412 . S
H120 C118 0.973 . S
C121 H114 0.929 . S
C121 C122 1.400 . S
C121 C123 1.364 . S
C122 C121 1.400 . S
C122 C126 1.377 . S
C123 C121 1.364 . S
C123 C124 1.374 . S
C124 H115 0.930 . S
C124 C123 1.374 . S
C124 C125 1.383 . S
C125 O119 1.412 . S
C125 C124 1.383 . S
C125 C126 1.394 . S
C126 H116 0.929 . S
C126 C122 1.377 . S
C126 C125 1.394 . S
H127 C134 0.929 . S
H128 C137 0.930 . S
H129 C139 0.929 . S
H130 C131 0.969 . S
C131 H130 0.969 . S
C131 O132 1.550 . S
C131 H133 0.973 . S
O132 C131 1.550 . S
O132 C138 1.412 . S
H133 C131 0.973 . S
C134 H127 0.929 . S
C134 C135 1.400 . S
C134 C136 1.364 . S
C135 C134 1.400 . S
C135 C139 1.377 . S
C136 C134 1.364 . S
C136 C137 1.374 . S
C137 H128 0.930 . S
C137 C136 1.374 . S
C137 C138 1.383 . S
C138 O132 1.412 . S
C138 C137 1.383 . S
C138 C139 1.394 . S
C139 H129 0.929 . S
C139 C135 1.377 . S
C139 C138 1.394 . S
H140 C147 0.929 . S
H141 C150 0.930 . S
H142 C152 0.929 . S
H143 C144 0.969 . S
C144 H143 0.969 . S
C144 O145 1.550 . S
C144 H146 0.973 . S
O145 C144 1.550 . S
O145 C151 1.412 . S
H146 C144 0.973 . S
C147 H140 0.929 . S
C147 C148 1.400 . S
C147 C149 1.364 . S
C148 C147 1.400 . S
C148 C152 1.377 . S
C149 C147 1.364 . S
C149 C150 1.374 . S
C150 H141 0.930 . S
C150 C149 1.374 . S
C150 C151 1.383 . S
C151 O145 1.412 . S
C151 C150 1.383 . S
C151 C152 1.394 . S
C152 H142 0.929 . S
C152 C148 1.377 . S
C152 C151 1.394 . S
H153 C160 0.929 . S
H154 C163 0.930 . S
H155 C165 0.929 . S
H156 C157 0.969 . S
C157 H156 0.969 . S
C157 O158 1.550 . S
C157 H159 0.973 . S
O158 C157 1.550 . S
O158 C164 1.412 . S
H159 C157 0.973 . S
C160 H153 0.929 . S
C160 C161 1.400 . S
C160 C162 1.364 . S
C161 C160 1.400 . S
C161 C165 1.377 . S
C162 C160 1.364 . S
C162 C163 1.374 . S
C163 H154 0.930 . S
C163 C162 1.374 . S
C163 C164 1.383 . S
C164 O158 1.412 . S
C164 C163 1.383 . S
C164 C165 1.394 . S
C165 H155 0.929 . S
C165 C161 1.377 . S
C165 C164 1.394 . S
H166 C173 0.929 . S
H167 C176 0.930 . S
H168 C178 0.929 . S
H169 C170 0.969 . S
C170 H169 0.969 . S
C170 O171 1.550 . S
C170 H172 0.973 . S
O171 C170 1.550 . S
O171 C177 1.412 . S
H172 C170 0.973 . S
C173 H166 0.929 . S
C173 C174 1.400 . S
C173 C175 1.364 . S
C174 C173 1.400 . S
C174 C178 1.377 . S
C175 C173 1.364 . S
C175 C176 1.374 . S
C176 H167 0.930 . S
C176 C175 1.374 . S
C176 C177 1.383 . S
C177 O171 1.412 . S
C177 C176 1.383 . S
C177 C178 1.394 . S
C178 H168 0.929 . S
C178 C174 1.377 . S
C178 C177 1.394 . S
H179 C186 0.929 . S
H180 C189 0.930 . S
H181 C191 0.929 . S
H182 C183 0.969 . S
C183 H182 0.969 . S
C183 O184 1.550 . S
C183 H185 0.973 . S
O184 C183 1.550 . S
O184 C190 1.412 . S
H185 C183 0.973 . S
C186 H179 0.929 . S
C186 C187 1.400 . S
C186 C188 1.364 . S
C187 C186 1.400 . S
C187 C191 1.377 . S
C188 C186 1.364 . S
C188 C189 1.374 . S
C189 H180 0.930 . S
C189 C188 1.374 . S
C189 C190 1.383 . S
C190 O184 1.412 . S
C190 C189 1.383 . S
C190 C191 1.394 . S
C191 H181 0.929 . S
C191 C187 1.377 . S
C191 C190 1.394 . S
C192 C193 1.387 . S
C192 H196 0.950 . S
C192 C201 1.390 . S
C193 C192 1.387 . S
C193 C195 1.387 . S
H194 C201 0.950 . S
C195 C193 1.387 . S
C195 C197 1.390 1_565 S
C195 H199 0.951 . S
H196 C192 0.950 . S
C197 C195 1.390 1_545 S
C197 C198 1.387 1_545 S
C197 H200 0.950 . S
C198 C197 1.387 1_565 S
C198 C201 1.387 . S
H199 C195 0.951 . S
H200 C197 0.950 . S
C201 C192 1.390 . S
C201 H194 0.950 . S
C201 C198 1.387 . S
C202 C203 1.387 . S
C202 H206 0.950 . S
C202 C211 1.390 . S
C203 C202 1.387 . S
C203 C205 1.387 . S
H204 C211 0.950 . S
C205 C203 1.387 . S
C205 C207 1.390 . S
C205 H209 0.950 . S
H206 C202 0.950 . S
C207 C205 1.390 . S
C207 C208 1.387 . S
C207 H210 0.950 . S
C208 C207 1.387 . S
C208 C211 1.387 . S
H209 C205 0.950 . S
H210 C207 0.950 . S
C211 C202 1.390 . S
C211 H204 0.950 . S
C211 C208 1.387 . S
C212 C213 1.387 . S
C212 H216 0.950 . S
C212 C221 1.390 . S
C213 C212 1.387 . S
C213 C215 1.387 . S
H214 C221 0.950 . S
C215 C213 1.387 . S
C215 C217 1.390 . S
C215 H219 0.954 . S
H216 C212 0.950 . S
C217 C215 1.390 . S
C217 C218 1.387 . S
C217 H220 0.950 . S
C218 C217 1.387 . S
C218 C221 1.387 . S
H219 C215 0.954 . S
H220 C217 0.950 . S
C221 C212 1.390 . S
C221 H214 0.950 . S
C221 C218 1.387 . S
C222 C223 1.387 . S
C222 H226 0.950 . S
C222 C231 1.390 . S
C223 C222 1.387 . S
C223 C225 1.387 . S
H224 C231 0.950 . S
C225 C223 1.387 . S
C225 C227 1.390 . S
C225 H229 0.950 . S
H226 C222 0.950 . S
C227 C225 1.390 . S
C227 C228 1.387 . S
C227 H230 0.950 . S
C228 C227 1.387 . S
C228 C231 1.387 . S
H229 C225 0.950 . S
H230 C227 0.950 . S
C231 C222 1.390 . S
C231 H224 0.950 . S
C231 C228 1.387 . S
C232 C233 1.387 . S
C232 H236 0.950 . S
C232 C241 1.390 . S
C233 C232 1.387 . S
C233 C235 1.387 . S
H234 C241 0.950 . S
C235 C233 1.387 . S
C235 C237 1.390 . S
C235 H239 0.950 . S
H236 C232 0.950 . S
C237 C235 1.390 . S
C237 C238 1.387 . S
C237 H240 0.950 . S
C238 C237 1.387 . S
C238 C241 1.387 . S
H239 C235 0.950 . S
H240 C237 0.950 . S
C241 C232 1.390 . S
C241 H234 0.950 . S
C241 C238 1.387 . S
C242 C243 1.387 . S
C242 H246 0.950 . S
C242 C251 1.390 . S
C243 C242 1.387 . S
C243 C245 1.387 . S
H244 C251 0.950 . S
C245 C243 1.387 . S
C245 C247 1.390 . S
C245 H249 0.950 . S
H246 C242 0.950 . S
C247 C245 1.390 . S
C247 C248 1.387 . S
C247 H250 0.950 . S
C248 C247 1.387 . S
C248 C251 1.387 . S
H249 C245 0.950 . S
H250 C247 0.950 . S
C251 C242 1.390 . S
C251 H244 0.950 . S
C251 C248 1.387 . S
C252 C253 1.387 . S
C252 H256 0.950 . S
C252 C261 1.390 . S
C253 C252 1.387 . S
C253 C255 1.387 . S
H254 C261 0.950 . S
C255 C253 1.387 . S
C255 C257 1.390 . S
C255 H259 0.950 . S
H256 C252 0.950 . S
C257 C255 1.390 . S
C257 C258 1.387 . S
C257 H260 0.950 . S
C258 C257 1.387 . S
C258 C261 1.387 . S
H259 C255 0.950 . S
H260 C257 0.950 . S
C261 C252 1.390 . S
C261 H254 0.950 . S
C261 C258 1.387 . S
C262 C263 1.387 1_655 S
C262 H266 0.953 . S
C262 C271 1.390 . S
C263 C262 1.387 1_455 S
C263 C265 1.387 1_455 S
H264 C271 0.950 . S
C265 C263 1.387 1_655 S
C265 C267 1.390 . S
C265 H269 0.950 1_655 S
H266 C262 0.953 . S
C267 C265 1.390 . S
C267 C268 1.387 . S
C267 H270 0.950 . S
C268 C267 1.387 . S
C268 C271 1.387 . S
H269 C265 0.950 1_455 S
H270 C267 0.950 . S
C271 C262 1.390 . S
C271 H264 0.950 . S
C271 C268 1.387 . S
C272 C273 1.387 . S
C272 H276 0.950 . S
C272 C281 1.390 . S
C273 C272 1.387 . S
C273 C275 1.387 . S
H274 C281 0.950 . S
C275 C273 1.387 . S
C275 C277 1.390 . S
C275 H279 0.950 . S
H276 C272 0.950 . S
C277 C275 1.390 . S
C277 C278 1.388 . S
C277 H280 0.950 1_545 S
C278 C277 1.388 . S
C278 C281 1.389 . S
H279 C275 0.950 . S
H280 C277 0.950 1_565 S
C281 C272 1.390 . S
C281 H274 0.950 . S
C281 C278 1.389 . S
C282 C283 1.387 . S
C282 H286 0.950 . S
C282 C291 1.390 . S
C283 C282 1.387 . S
C283 C285 1.387 . S
H284 C291 0.950 . S
C285 C283 1.387 . S
C285 C287 1.390 . S
C285 H289 0.950 . S
H286 C282 0.950 . S
C287 C285 1.390 . S
C287 C288 1.387 . S
C287 H290 0.950 . S
C288 C287 1.387 . S
C288 C291 1.387 . S
H289 C285 0.950 . S
H290 C287 0.950 . S
C291 C282 1.390 . S
C291 H284 0.950 . S
C291 C288 1.387 . S
C292 C293 1.387 1_545 S
C292 H296 0.950 1_545 S
C292 C301 1.390 . S
C293 C292 1.387 1_565 S
C293 C295 1.387 1_565 S
H294 C301 0.950 . S
C295 C293 1.387 1_545 S
C295 C297 1.390 . S
C295 H299 0.950 . S
H296 C292 0.950 1_565 S
C297 C295 1.390 . S
C297 C298 1.387 . S
C297 H300 0.950 . S
C298 C297 1.387 . S
C298 C301 1.387 . S
H299 C295 0.950 . S
H300 C297 0.950 . S
C301 C292 1.390 . S
C301 H294 0.950 . S
C301 C298 1.387 . S
C302 C303 1.387 . S
C302 H306 0.950 . S
C302 C311 1.390 . S
C303 C302 1.387 . S
C303 C305 1.387 . S
H304 C311 0.950 . S
C305 C303 1.387 . S
C305 C307 1.390 . S
C305 H309 0.950 . S
H306 C302 0.950 . S
C307 C305 1.390 . S
C307 C308 1.387 . S
C307 H310 0.950 . S
C308 C307 1.387 . S
C308 C311 1.387 . S
H309 C305 0.950 . S
H310 C307 0.950 . S
C311 C302 1.390 . S
C311 H304 0.950 . S
C311 C308 1.387 . S
C312 C313 1.387 . S
C312 H316 0.950 . S
C312 C321 1.390 . S
C313 C312 1.387 . S
C313 C315 1.387 . S
H314 C321 0.950 . S
C315 C313 1.387 . S
C315 C317 1.390 . S
C315 H319 0.950 . S
H316 C312 0.950 . S
C317 C315 1.390 . S
C317 C318 1.387 . S
C317 H320 0.950 . S
C318 C317 1.387 . S
C318 C321 1.387 . S
H319 C315 0.950 . S
H320 C317 0.950 . S
C321 C312 1.390 . S
C321 H314 0.950 . S
C321 C318 1.387 . S
C322 C323 1.387 1_655 S
C322 H326 0.950 . S
C322 C331 1.390 . S
C323 C322 1.387 1_455 S
C323 C325 1.387 1_455 S
H324 C331 0.950 . S
C325 C323 1.387 1_655 S
C325 C327 1.390 . S
C325 H329 0.960 . S
H326 C322 0.950 . S
C327 C325 1.390 . S
C327 C328 1.387 . S
C327 H330 0.950 . S
C328 C327 1.387 . S
C328 C331 1.387 . S
H329 C325 0.960 . S
H330 C327 0.950 . S
C331 C322 1.390 . S
C331 H324 0.950 . S
C331 C328 1.387 . S
C332 C333 1.387 . S
C332 H336 0.950 . S
C332 C341 1.390 . S
C333 C332 1.387 . S
C333 C335 1.387 . S
H334 C341 0.950 . S
C335 C333 1.387 . S
C335 C337 1.390 . S
C335 H339 0.950 . S
H336 C332 0.950 . S
C337 C335 1.390 . S
C337 C338 1.387 . S
C337 H340 0.950 . S
C338 C337 1.387 . S
C338 C341 1.387 . S
H339 C335 0.950 . S
H340 C337 0.950 . S
C341 C332 1.390 . S
C341 H334 0.950 . S
C341 C338 1.387 . S
C342 C343 1.387 1_455 S
C342 H346 0.950 1_455 S
C342 C351 1.390 . S
C343 C342 1.387 1_655 S
C343 C345 1.387 1_655 S
H344 C351 0.950 . S
C345 C343 1.387 1_455 S
C345 C347 1.390 . S
C345 H349 0.950 . S
H346 C342 0.950 1_655 S
C347 C345 1.390 . S
C347 C348 1.387 . S
C347 H350 0.950 . S
C348 C347 1.387 . S
C348 C351 1.387 . S
H349 C345 0.950 . S
H350 C347 0.950 . S
C351 C342 1.390 . S
C351 H344 0.950 . S
C351 C348 1.387 . S
C352 C353 1.387 . S
C352 H356 0.950 . S
C352 C361 1.390 . S
C353 C352 1.387 . S
C353 C355 1.387 . S
H354 C361 0.950 . S
C355 C353 1.387 . S
C355 C357 1.390 . S
C355 H359 0.950 . S
H356 C352 0.950 . S
C357 C355 1.390 . S
C357 C358 1.387 . S
C357 H360 0.950 . S
C358 C357 1.387 . S
C358 C361 1.387 . S
H359 C355 0.950 . S
H360 C357 0.950 . S
C361 C352 1.390 . S
C361 H354 0.950 . S
C361 C358 1.387 . S
C362 C363 1.387 . S
C362 H366 0.950 . S
C362 C371 1.390 . S
C363 C362 1.387 . S
C363 C365 1.387 . S
H364 C371 0.950 . S
C365 C363 1.387 . S
C365 C367 1.390 . S
C365 H369 0.950 . S
H366 C362 0.950 . S
C367 C365 1.390 . S
C367 C368 1.387 . S
C367 H370 0.950 . S
C368 C367 1.387 . S
C368 C371 1.387 . S
H369 C365 0.950 . S
H370 C367 0.950 . S
C371 C362 1.390 . S
C371 H364 0.950 . S
C371 C368 1.387 . S
C372 C373 1.387 . S
C372 H376 0.950 . S
C372 C381 1.390 . S
C373 C372 1.387 . S
C373 C375 1.387 . S
H374 C381 0.950 . S
C375 C373 1.387 . S
C375 C377 1.390 . S
C375 H379 0.950 . S
H376 C372 0.950 . S
C377 C375 1.390 . S
C377 C378 1.387 . S
C377 H380 0.950 . S
C378 C377 1.387 . S
C378 C381 1.387 . S
H379 C375 0.950 . S
H380 C377 0.950 . S
C381 C372 1.390 . S
C381 H374 0.950 . S
C381 C378 1.387 . S
C382 C383 1.387 . S
C382 H386 0.950 . S
C382 C391 1.390 . S
C383 C382 1.387 . S
C383 C385 1.387 . S
H384 C391 0.950 . S
C385 C383 1.387 . S
C385 C387 1.390 . S
C385 H389 0.950 . S
H386 C382 0.950 . S
C387 C385 1.390 . S
C387 C388 1.387 . S
C387 H390 0.950 . S
C388 C387 1.387 . S
C388 C391 1.387 . S
H389 C385 0.950 . S
H390 C387 0.950 . S
C391 C382 1.390 . S
C391 H384 0.950 . S
C391 C388 1.387 . S
C392 C393 1.387 . S
C392 H396 0.950 . S
C392 C401 1.390 . S
C393 C392 1.387 . S
C393 C395 1.387 . S
H394 C401 0.950 . S
C395 C393 1.387 . S
C395 C397 1.390 . S
C395 H399 0.950 . S
H396 C392 0.950 . S
C397 C395 1.390 . S
C397 C398 1.387 . S
C397 H400 0.950 . S
C398 C397 1.387 . S
C398 C401 1.387 . S
H399 C395 0.950 . S
H400 C397 0.950 . S
C401 C392 1.390 . S
C401 H394 0.950 . S
C401 C398 1.387 . S
C402 C403 1.387 . S
C402 H406 0.950 . S
C402 C411 1.390 . S
C403 C402 1.387 . S
C403 C405 1.387 . S
H404 C411 0.950 . S
C405 C403 1.387 . S
C405 C407 1.390 . S
C405 H409 0.950 . S
H406 C402 0.950 . S
C407 C405 1.390 . S
C407 C408 1.387 . S
C407 H410 0.950 . S
C408 C407 1.387 . S
C408 C411 1.387 . S
H409 C405 0.950 . S
H410 C407 0.950 . S
C411 C402 1.390 . S
C411 H404 0.950 . S
C411 C408 1.387 . S
C412 C413 1.387 . S
C412 H416 0.950 . S
C412 C421 1.390 . S
C413 C412 1.387 . S
C413 C415 1.387 . S
H414 C421 0.950 . S
C415 C413 1.387 . S
C415 C417 1.390 . S
C415 H419 0.950 . S
H416 C412 0.950 . S
C417 C415 1.390 . S
C417 C418 1.387 . S
C417 H420 0.950 . S
C418 C417 1.387 . S
C418 C421 1.387 . S
H419 C415 0.950 . S
H420 C417 0.950 . S
C421 C412 1.390 . S
C421 H414 0.950 . S
C421 C418 1.387 . S
C422 C423 1.387 . S
C422 H426 0.950 . S
C422 C431 1.390 . S
C423 C422 1.387 . S
C423 C425 1.387 . S
H424 C431 0.950 . S
C425 C423 1.387 . S
C425 C427 1.390 . S
C425 H429 0.950 . S
H426 C422 0.950 . S
C427 C425 1.390 . S
C427 C428 1.387 . S
C427 H430 0.950 . S
C428 C427 1.387 . S
C428 C431 1.387 . S
H429 C425 0.950 . S
H430 C427 0.950 . S
C431 C422 1.390 . S
C431 H424 0.950 . S
C431 C428 1.387 . S
C193 C8 1.406 . S
C198 C96 1.352 1_565 S
C203 C31 1.287 . S
C208 C109 1.266 . S
C213 C53 1.468 1_565 S
C218 C123 1.449 . S
C228 C136 1.396 . S
C223 C74 1.432 . S
C238 C148 1.327 . S
C233 C26 1.312 . S
C243 C48 1.485 1_455 S
C248 C162 1.414 . S
C253 C71 1.368 . S
C258 C174 1.318 . S
C263 C5 1.432 . S
C268 C188 1.402 . S
C273 C50 1.370 . S
C278 C187 1.304 1_545 S
C288 C149 1.412 . S
C283 C70 1.485 . S
C298 C161 1.331 . S
C293 C4 1.311 . S
C303 C28 1.433 . S
C308 C175 1.403 . S
C318 C110 1.448 . S
C313 C73 1.468 . S
C323 C7 1.284 . S
C328 C122 1.272 . S
C338 C135 1.347 . S
C333 C30 1.404 . S
C348 C97 1.402 . S
C343 C52 1.430 . S
C358 C170 1.360 . S
C353 C9 1.397 . S
C368 C183 1.309 . S
C363 C29 1.398 . S
C373 C51 1.476 . S
C378 C144 1.406 . S
C388 C157 1.465 . S
C383 C75 1.475 . S
C398 C118 1.383 . S
C393 C27 1.420 . S
C403 C49 1.437 . S
C408 C131 1.340 . S
C418 C92 1.393 . S
C413 C72 1.437 . S
C428 C105 1.322 . S
C423 C6 1.420 . S
