# Generated by pormake.
# Topology pth, (4,4)-cn, num edge types: 1
# Building blocks:
#     Node 0, Type 0, BuildingBlock: GALJAG_clean_sbu_0, # of connection points: 4
#     Node 1, Type 0, BuildingBlock: GALJAG_clean_sbu_0, # of connection points: 4
#     Node 2, Type 0, BuildingBlock: GALJAG_clean_sbu_0, # of connection points: 4
#     Node 3, Type 1, BuildingBlock: NAWXER_clean_linker_0, # of connection points: 4
#     Node 4, Type 1, BuildingBlock: NAWXER_clean_linker_0, # of connection points: 4
#     Node 5, Type 1, BuildingBlock: NAWXER_clean_linker_0, # of connection points: 4
#     Edge 6, Type (0, 1), BuildingBlock: ZUJKAS_clean_linker_0, # of connection points: 2
#     Edge 7, Type (0, 1), BuildingBlock: ZUJKAS_clean_linker_0, # of connection points: 2
#     Edge 8, Type (0, 1), BuildingBlock: ZUJKAS_clean_linker_0, # of connection points: 2
#     Edge 9, Type (0, 1), BuildingBlock: ZUJKAS_clean_linker_0, # of connection points: 2
#     Edge 10, Type (0, 1), BuildingBlock: ZUJKAS_clean_linker_0, # of connection points: 2
#     Edge 11, Type (0, 1), BuildingBlock: ZUJKAS_clean_linker_0, # of connection points: 2
#     Edge 12, Type (0, 1), BuildingBlock: ZUJKAS_clean_linker_0, # of connection points: 2
#     Edge 13, Type (0, 1), BuildingBlock: ZUJKAS_clean_linker_0, # of connection points: 2
#     Edge 14, Type (0, 1), BuildingBlock: ZUJKAS_clean_linker_0, # of connection points: 2
#     Edge 15, Type (0, 1), BuildingBlock: ZUJKAS_clean_linker_0, # of connection points: 2
#     Edge 16, Type (0, 1), BuildingBlock: ZUJKAS_clean_linker_0, # of connection points: 2
#     Edge 17, Type (0, 1), BuildingBlock: ZUJKAS_clean_linker_0, # of connection points: 2
# Relax obj value: 0.002
# Max RMSD: 0.036
# Mean RMSD: 0.021
data_MOF--net-pth--node1-GALJAG_clean_sbu_0--node2-NAWXER_clean_linker_0--edge1-ZUJKAS_clean_linker_0
_symmetry_space_group_name_H-M    P1
_symmetry_Int_Tables_number       1
_symmetry_cell_setting            triclinic
loop_
_symmetry_equiv_pos_as_xyz
'x, y, z'
_cell_length_a     36.861981
_cell_length_b     36.867255
_cell_length_c     79.848461
_cell_angle_alpha  90.141753
_cell_angle_beta   90.133742
_cell_angle_gamma 120.02652
loop_
_atom_site_label
_atom_site_type_symbol
_atom_site_fract_x
_atom_site_fract_y
_atom_site_fract_z
_atom_type_partial_charge
In0 In 0.00276 0.0025 0.04568 0.0
O1 O 0.96573 0.03038 0.0577 0.0
O2 O 0.02849 0.05339 0.06572 0.0
C3 C 0.94535 0.94849 0.02369 0.0
C4 C 0.06277 0.05515 0.02435 0.0
C5 C 0.00656 0.94891 0.06757 0.0
O6 O 0.94056 0.97559 0.03153 0.0
O7 O 0.9791 0.94891 0.02688 0.0
O8 O 0.03831 0.97589 0.0597 0.0
O9 O 0.97315 0.94924 0.06447 0.0
C10 C 0.99544 0.05531 0.06711 0.0
O11 O 0.06771 0.03053 0.03379 0.0
O12 O 0.02768 0.05301 0.02566 0.0
In13 In 0.99548 0.00021 0.37891 0.0
O14 O 0.02725 0.06915 0.37116 0.0
O15 O 0.9739 0.02508 0.35734 0.0
C16 C 0.05761 0.00554 0.39846 0.0
C17 C 0.93342 0.98927 0.4 0.0
C18 C 0.99262 0.94253 0.35733 0.0
O19 O 0.06056 0.03686 0.3908 0.0
O20 O 0.02344 0.97186 0.39626 0.0
O21 O 0.96589 0.93335 0.3688 0.0
O22 O 0.02046 0.98073 0.35672 0.0
C23 C 0.00212 0.06276 0.35926 0.0
O24 O 0.9262 0.96999 0.38623 0.0
O25 O 0.97164 0.01356 0.40312 0.0
In26 In -0.0018 0.00144 0.71246 0.0
O27 O 0.96898 0.93717 0.72492 0.0
O28 O 0.94581 0.97768 0.73164 0.0
C29 C 0.05359 0.99715 0.69162 0.0
C30 C 0.94439 0.00589 0.69073 0.0
C31 C 0.05045 0.06034 0.73443 0.0
O32 O 0.02798 0.96632 0.70027 0.0
O33 O 0.05098 0.02973 0.69343 0.0
O34 O 0.02907 0.06717 0.72385 0.0
O35 O 0.04522 0.02383 0.73397 0.0
C36 C 0.94345 0.94261 0.73358 0.0
O37 O 0.96836 0.03613 0.70013 0.0
O38 O 0.94788 0.97372 0.69221 0.0
C39 C 0.97404 0.367 0.24123 0.0
C40 C 0.00779 0.37852 0.25236 0.0
C41 C 0.97255 0.3969 0.23098 0.0
C42 C 0.00484 0.43886 0.23162 0.0
C43 C 0.03999 0.42067 0.25296 0.0
C44 C 0.03833 0.45056 0.24279 0.0
C45 C 0.00312 0.47113 0.22127 0.0
C46 C 0.02111 0.38683 0.18563 0.0
C47 C 0.98855 0.36626 0.17387 0.0
C48 C 0.02377 0.41954 0.19543 0.0
C49 C 0.99359 0.43196 0.19382 0.0
C50 C 0.95861 0.37905 0.17219 0.0
C51 C 0.96125 0.4117 0.18202 0.0
C52 C 0.99661 0.46734 0.20375 0.0
C53 C 0.03535 0.63993 0.18456 0.0
C54 C 0.00307 0.6314 0.17303 0.0
C55 C 0.03387 0.60804 0.19444 0.0
C56 C 0.00013 0.56693 0.19301 0.0
C57 C 0.96948 0.59 0.17155 0.0
C58 C 0.96826 0.55803 0.18134 0.0
C59 C -0.00127 0.53305 0.20333 0.0
C60 C 0.97455 0.61378 0.23824 0.0
C61 C 0.00468 0.63359 0.25094 0.0
C62 C 0.97444 0.58236 0.2284 0.0
C63 C 0.00485 0.57055 0.23088 0.0
C64 C 0.03479 0.62137 0.25355 0.0
C65 C 0.03475 0.59003 0.24365 0.0
C66 C 0.00411 0.53627 0.2209 0.0
H67 H 0.94828 0.33502 0.24067 0.0
H68 H 0.94585 0.38736 0.22275 0.0
H69 H 0.06671 0.43058 0.2612 0.0
H70 H 0.06347 0.48285 0.24352 0.0
H71 H 0.04515 0.37833 0.18699 0.0
H72 H 0.04983 0.43558 0.20405 0.0
H73 H 0.93297 0.36364 0.16334 0.0
H74 H 0.93781 0.42098 0.18047 0.0
H75 H 0.06217 0.67116 0.18578 0.0
H76 H 0.05937 0.61541 0.20308 0.0
H77 H 0.94382 0.58232 0.16297 0.0
H78 H 0.94205 0.52644 0.17999 0.0
H79 H 0.95041 0.62186 0.23615 0.0
H80 H 0.95005 0.56678 0.21906 0.0
H81 H 0.05858 0.63624 0.26317 0.0
H82 H 0.05826 0.58115 0.24591 0.0
N83 N 0.00659 0.50542 0.22916 0.0
N84 N 0.99469 0.4985 0.19545 0.0
C85 C 0.6327 0.02487 0.51785 0.0
C86 C 0.62083 0.99187 0.5063 0.0
C87 C 0.6027 0.02699 0.52782 0.0
C88 C 0.5603 0.996 0.52651 0.0
C89 C 0.57823 0.96112 0.50496 0.0
C90 C 0.54827 0.96337 0.51488 0.0
C91 C 0.52802 0.99811 0.53673 0.0
C92 C 0.60902 0.97487 0.57204 0.0
C93 C 0.62933 0.00604 0.58437 0.0
C94 C 0.57683 0.9736 0.56232 0.0
C95 C 0.56484 0.00396 0.56449 0.0
C96 C 0.61657 0.03582 0.58675 0.0
C97 C 0.58458 0.0347 0.57694 0.0
C98 C 0.53071 0.00304 0.55434 0.0
C99 C 0.35897 0.97076 0.57206 0.0
C100 C 0.3687 0.00074 0.58476 0.0
C101 C 0.39057 0.97191 0.56207 0.0
C102 C 0.43252 0.00326 0.56449 0.0
C103 C 0.41075 0.03196 0.58723 0.0
C104 C 0.44239 0.03299 0.57727 0.0
C105 C 0.46632 0.00373 0.55436 0.0
C106 C 0.39345 0.03631 0.51821 0.0
C107 C 0.37121 0.00528 0.50602 0.0
C108 C 0.4232 0.0342 0.5284 0.0
C109 C 0.43135 0.00107 0.52659 0.0
C110 C 0.37948 0.97208 0.50431 0.0
C111 C 0.40955 0.97026 0.51438 0.0
C112 C 0.46417 -0.00033 0.53675 0.0
H113 H 0.66509 0.04952 0.51897 0.0
H114 H 0.61256 0.05307 0.53641 0.0
H115 H 0.56803 0.93503 0.49635 0.0
H116 H 0.51567 0.93928 0.51362 0.0
H117 H 0.61814 0.95156 0.5698 0.0
H118 H 0.56121 0.94871 0.55318 0.0
H119 H 0.63088 0.05972 0.59635 0.0
H120 H 0.57541 0.05805 0.57901 0.0
H121 H 0.32686 0.94644 0.56979 0.0
H122 H 0.38224 0.9479 0.5526 0.0
H123 H 0.4193 0.05512 0.59708 0.0
H124 H 0.47461 0.05712 0.5795 0.0
H125 H 0.38858 0.06277 0.51967 0.0
H126 H 0.44044 0.05892 0.53746 0.0
H127 H 0.36254 0.94727 0.49526 0.0
H128 H 0.41555 0.94454 0.51274 0.0
N129 N 0.49483 0.99657 0.52863 0.0
N130 N 0.49974 0.00571 0.56247 0.0
C131 C 0.39153 0.36199 0.85125 0.0
C132 C 0.36846 0.37308 0.84047 0.0
C133 C 0.42418 0.39247 0.86099 0.0
C134 C 0.43427 0.43454 0.86012 0.0
C135 C 0.3789 0.41528 0.83954 0.0
C136 C 0.41174 0.44577 0.84918 0.0
C137 C 0.46903 0.46725 0.87018 0.0
C138 C 0.36797 0.38537 0.90635 0.0
C139 C 0.38008 0.36489 0.91803 0.0
C140 C 0.39789 0.41766 0.89646 0.0
C141 C 0.44045 0.42969 0.89786 0.0
C142 C 0.42279 0.37742 0.91957 0.0
C143 C 0.45267 0.40963 0.90963 0.0
C144 C 0.4726 0.46434 0.88769 0.0
C145 C 0.60823 0.63726 0.90596 0.0
C146 C 0.63207 0.62896 0.91749 0.0
C147 C 0.57747 0.60512 0.89616 0.0
C148 C 0.56984 0.56397 0.89768 0.0
C149 C 0.62412 0.58756 0.91902 0.0
C150 C 0.59303 0.55533 0.90931 0.0
C151 C 0.53659 0.52972 0.88761 0.0
C152 C 0.63969 0.60752 0.85172 0.0
C153 C 0.62914 0.62827 0.83957 0.0
C154 C 0.60872 0.57656 0.86173 0.0
C155 C 0.56662 0.56592 0.85989 0.0
C156 C 0.58694 0.61741 0.83769 0.0
C157 C 0.55594 0.58629 0.84767 0.0
C158 C 0.53347 0.53217 0.87006 0.0
H159 H 0.3841 0.3297 0.85226 0.0
H160 H 0.44172 0.38323 0.8691 0.0
H161 H 0.36208 0.42482 0.83116 0.0
H162 H 0.41932 0.47812 0.84821 0.0
H163 H 0.33545 0.37707 0.90511 0.0
H164 H 0.38778 0.43359 0.88788 0.0
H165 H 0.43309 0.36209 0.92837 0.0
H166 H 0.48537 0.41865 0.91103 0.0
H167 H 0.61274 0.66849 0.9047 0.0
H168 H 0.55918 0.61231 0.88757 0.0
H169 H 0.64216 0.58004 0.9276 0.0
H170 H 0.58744 0.52372 0.91072 0.0
H171 H 0.67193 0.61532 0.85352 0.0
H172 H 0.61764 0.56054 0.87077 0.0
H173 H 0.57778 0.63243 0.82828 0.0
H174 H 0.5236 0.57821 0.8459 0.0
N175 N 0.49958 0.50106 0.86204 0.0
N176 N 0.5063 0.49571 0.89573 0.0
H177 H 0.05542 0.11069 0.08847 0.0
H178 H 0.05117 0.16108 0.10714 0.0
H179 H 0.92479 0.11823 0.0903 0.0
H180 H 0.9286 0.06725 0.0717 0.0
H181 H 0.03702 0.22569 0.09809 0.0
H182 H 0.91425 0.11482 0.14155 0.0
H183 H 0.942 0.09891 0.12745 0.0
H184 H 0.90012 0.106 0.11976 0.0
C185 C 0.0266 0.11177 0.08882 0.0
C186 C 0.99228 0.08497 0.07865 0.0
C187 C 0.02425 0.1406 0.09948 0.0
C188 C 0.98752 0.14304 0.10024 0.0
C189 C 0.95315 0.11629 0.09013 0.0
H190 H 0.97035 0.35337 0.14039 0.0
H191 H 0.96857 0.29845 0.12256 0.0
C192 C 0.95546 0.08737 0.07945 0.0
C193 C 0.98601 0.17478 0.11117 0.0
H194 H 0.93547 0.1868 0.14467 0.0
C195 C 0.01484 0.21722 0.10828 0.0
C196 C 0.95732 0.16354 0.12455 0.0
C197 C 0.92687 0.11834 0.12866 0.0
C198 C 0.01555 0.24881 0.11834 0.0
C199 C 0.98623 0.23765 0.13147 0.0
C200 C 0.95765 0.1952 0.13448 0.0
C201 C 0.98535 0.26968 0.14241 0.0
C202 C 0.04821 0.29384 0.11503 0.0
C203 C 0.99422 0.27093 0.15957 0.0
C204 C 0.99492 0.30206 0.16982 0.0
C205 C 0.98646 0.33232 0.16311 0.0
C206 C 0.97669 0.33036 0.14597 0.0
C207 C 0.97606 0.29927 0.13573 0.0
H208 H 0.0743 0.29631 0.10725 0.0
H209 H 0.03348 0.30938 0.10821 0.0
H210 H 0.0614 0.31112 0.12695 0.0
H211 H 0.00121 0.24818 0.16497 0.0
H212 H 0.00194 0.30235 0.18302 0.0
H213 H 0.94234 0.01871 0.4319 0.0
H214 H 0.88776 0.0149 0.45036 0.0
H215 H 0.79493 0.94845 0.412 0.0
H216 H 0.84931 0.95103 0.39365 0.0
H217 H 0.83903 0.04862 0.44542 0.0
H218 H 0.73858 0.87659 0.45222 0.0
H219 H 0.79055 0.90045 0.44345 0.0
H220 H 0.74698 0.89341 0.43081 0.0
C221 C 0.91021 0.00285 0.42747 0.0
C222 C 0.90001 0.98504 0.41136 0.0
C223 C 0.87908 0.00072 0.43803 0.0
C224 C 0.83716 0.9809 0.43266 0.0
C225 C 0.82687 0.96296 0.41658 0.0
H226 H 0.61362 0.96907 0.47322 0.0
H227 H 0.66609 0.96575 0.45561 0.0
C228 C 0.85799 0.96469 0.40606 0.0
C229 C 0.80485 0.98125 0.44358 0.0
H230 H 0.71059 0.91838 0.46237 0.0
C231 C 0.8111 0.0201 0.44922 0.0
C232 C 0.76837 0.94401 0.4485 0.0
C233 C 0.76083 0.90123 0.44357 0.0
C234 C 0.78166 0.02278 0.45945 0.0
C235 C 0.74514 0.98563 0.46423 0.0
C236 C 0.73869 0.94677 0.45861 0.0
C237 C 0.71323 0.98663 0.47509 0.0
C238 C 0.78942 0.06534 0.46487 0.0
C239 C 0.72234 -0.00102 0.49191 0.0
C240 C 0.69232 0.00053 0.50207 0.0
C241 C 0.65264 0.98975 0.49557 0.0
C242 C 0.64362 0.97704 0.4787 0.0
C243 C 0.67359 0.97531 0.46859 0.0
H244 H 0.81493 0.09102 0.45757 0.0
H245 H 0.76049 0.06733 0.46346 0.0
H246 H 0.79854 0.0703 0.4783 0.0
H247 H 0.75264 0.00729 0.49718 0.0
H248 H 0.70007 0.00973 0.51506 0.0
H249 H 0.88336 0.94654 0.75199 0.0
H250 H 0.83124 0.89263 0.7703 0.0
H251 H 0.8812 0.81175 0.75895 0.0
H252 H 0.93365 0.86566 0.74063 0.0
H253 H 0.77036 0.80866 0.76072 0.0
H254 H 0.87759 0.8136 0.81092 0.0
H255 H 0.89276 0.85539 0.79596 0.0
H256 H 0.89152 0.80783 0.78992 0.0
C257 C 0.88342 0.91738 0.75346 0.0
C258 C 0.91264 0.91033 0.74491 0.0
C259 C 0.85362 0.88663 0.7639 0.0
C260 C 0.85271 0.84847 0.7661 0.0
C261 C 0.88185 0.8413 0.75761 0.0
H262 H 0.69362 0.62544 0.82396 0.0
H263 H 0.74741 0.67861 0.8059 0.0
C264 C 0.91163 0.87201 0.7471 0.0
C265 C 0.82034 0.81572 0.77687 0.0
H266 H 0.80642 0.76069 0.8129 0.0
C267 C 0.77816 0.79819 0.77216 0.0
C268 C 0.83076 0.80211 0.79171 0.0
C269 C 0.87557 0.82084 0.79757 0.0
C270 C 0.746 0.76694 0.78181 0.0
C271 C 0.75634 0.75362 0.79678 0.0
C272 C 0.79859 0.77103 0.80144 0.0
C273 C 0.72378 0.72166 0.80778 0.0
C274 C 0.70134 0.74788 0.77571 0.0
C275 C 0.69304 0.72851 0.81502 0.0
C276 C 0.66225 0.69818 0.82531 0.0
C277 C 0.66197 0.66064 0.82873 0.0
C278 C 0.69323 0.65419 0.82168 0.0
C279 C 0.72387 0.68444 0.81132 0.0
H280 H 0.69983 0.75288 0.76207 0.0
H281 H 0.6834 0.71371 0.77824 0.0
H282 H 0.68583 0.76286 0.78237 0.0
H283 H 0.69302 0.75746 0.81279 0.0
H284 H 0.63901 0.70434 0.83079 0.0
H285 H 0.94054 0.88094 0.08179 0.0
H286 H 0.94257 0.82959 0.10045 0.0
H287 H 0.07768 0.89743 0.09865 0.0
H288 H 0.07577 0.94826 0.07949 0.0
H289 H 0.04757 0.8155 0.09476 0.0
H290 H 0.97072 0.84058 0.14945 0.0
H291 H 0.93906 0.82785 0.13091 0.0
H292 H 0.98884 0.87571 0.13182 0.0
C293 C 0.97069 0.88507 0.08546 0.0
C294 C 0.00802 0.91869 0.07925 0.0
C295 C 0.97182 0.85585 0.09622 0.0
C296 C 0.0103 0.86012 0.10124 0.0
C297 C 0.04764 0.89367 0.09503 0.0
H298 H 0.03065 0.71299 0.18209 0.0
H299 H 0.03532 0.76937 0.1646 0.0
C300 C 0.04652 0.92269 0.0841 0.0
C301 C 0.01146 0.82861 0.11241 0.0
H302 H 0.97585 0.77839 0.14974 0.0
C303 C 0.03219 0.80763 0.10685 0.0
C304 C 0.99198 0.81882 0.1283 0.0
C305 C 0.9718 0.84225 0.13556 0.0
C306 C 0.03309 0.7764 0.11655 0.0
C307 C 0.01161 0.76499 0.13202 0.0
C308 C 0.9918 0.78672 0.13777 0.0
C309 C 0.00937 0.73071 0.14247 0.0
C310 C 0.05761 0.75647 0.11021 0.0
C311 C 0.99277 0.69007 0.13592 0.0
C312 C 0.9908 0.6579 0.14579 0.0
C313 C 0.00471 0.66552 0.16254 0.0
C314 C 0.02046 0.70612 0.16916 0.0
C315 C 0.02281 0.73835 0.15922 0.0
H316 H 0.08231 0.77722 0.10125 0.0
H317 H 0.07265 0.74899 0.12067 0.0
H318 H 0.03607 0.72695 0.10352 0.0
H319 H 0.9812 0.68315 0.12316 0.0
H320 H 0.97881 0.62718 0.14021 0.0
H321 H 0.12707 0.07569 0.41022 0.0
H322 H 0.18171 0.07879 0.4287 0.0
H323 H 0.11923 0.94372 0.429 0.0
H324 H 0.06387 0.94046 0.41108 0.0
H325 H 0.14209 0.97426 0.45968 0.0
H326 H 0.27706 0.06018 0.41702 0.0
H327 H 0.24945 0.08774 0.42126 0.0
H328 H 0.22354 0.03864 0.41011 0.0
C329 C 0.12517 0.04671 0.41418 0.0
C330 C 0.09132 0.00784 0.4092 0.0
C331 C 0.15653 0.04851 0.42464 0.0
C332 C 0.15497 0.01149 0.43 0.0
C333 C 0.12115 0.97269 0.42499 0.0
H334 H 0.35574 0.98478 0.47271 0.0
H335 H 0.30283 0.98661 0.4549 0.0
C336 C 0.08957 0.97087 0.41474 0.0
C337 C 0.18769 0.0128 0.44126 0.0
H338 H 0.29285 0.05017 0.44489 0.0
C339 C 0.17506 0.9908 0.45643 0.0
C340 C 0.23064 0.034 0.43691 0.0
C341 C 0.24601 0.05613 0.42037 0.0
C342 C 0.20409 0.98924 0.46735 0.0
C343 C 0.24717 0.01144 0.46325 0.0
C344 C 0.25985 0.03351 0.44809 0.0
C345 C 0.27944 0.01084 0.47419 0.0
C346 C 0.18806 0.96271 0.48291 0.0
C347 C 0.28424 0.02431 0.49092 0.0
C348 C 0.31388 0.02241 0.50126 0.0
C349 C 0.33986 0.00771 0.495 0.0
C350 C 0.33567 0.99535 0.47809 0.0
C351 C 0.30573 0.99681 0.46782 0.0
H352 H 0.15432 0.93875 0.48175 0.0
H353 H 0.20596 0.9465 0.48558 0.0
H354 H 0.19157 0.98308 0.49376 0.0
H355 H 0.26498 0.03618 0.496 0.0
H356 H 0.31597 0.03195 0.51423 0.0
H357 H 0.09588 0.05102 0.7593 0.0
H358 H 0.14703 0.10522 0.77804 0.0
H359 H 0.12366 0.19698 0.75471 0.0
H360 H 0.07238 0.14289 0.73587 0.0
H361 H 0.21062 0.22012 0.7578 0.0
H362 H 0.12413 0.16432 0.81776 0.0
H363 H 0.12786 0.12512 0.80568 0.0
H364 H 0.09862 0.14823 0.79757 0.0
C365 C 0.10139 0.08267 0.75824 0.0
C366 C 0.0801 0.09275 0.74615 0.0
C367 C 0.13046 0.11352 0.769 0.0
C368 C 0.1387 0.15492 0.76786 0.0
C369 C 0.11748 0.1651 0.75582 0.0
H370 H 0.29052 0.36283 0.83536 0.0
H371 H 0.23424 0.31057 0.81754 0.0
C372 C 0.08822 0.1342 0.7451 0.0
C373 C 0.17086 0.1879 0.77875 0.0
H374 H 0.19555 0.2181 0.81959 0.0
C375 C 0.20728 0.21986 0.7713 0.0
C376 C 0.16616 0.18753 0.79632 0.0
C377 C 0.12696 0.1547 0.80486 0.0
C378 C 0.23968 0.25099 0.78104 0.0
C379 C 0.23551 0.24988 0.79865 0.0
C380 C 0.19868 0.21855 0.80608 0.0
C381 C 0.26928 0.28097 0.80955 0.0
C382 C 0.27811 0.28494 0.77247 0.0
C383 C 0.30727 0.28113 0.81107 0.0
C384 C 0.33936 0.3108 0.82124 0.0
C385 C 0.334 0.34088 0.83002 0.0
C386 C 0.29569 0.34033 0.82859 0.0
C387 C 0.2635 0.31044 0.81851 0.0
H388 H 0.27293 0.28619 0.75882 0.0
H389 H 0.2876 0.31602 0.7781 0.0
H390 H 0.30443 0.27878 0.77417 0.0
H391 H 0.31208 0.25832 0.80435 0.0
H392 H 0.36863 0.31065 0.82202 0.0
H393 H 0.9357 0.07347 0.68322 0.0
H394 H 0.88328 0.07502 0.66468 0.0
H395 H 0.83152 0.94356 0.65395 0.0
H396 H 0.88387 0.94172 0.6723 0.0
H397 H 0.86542 0.0437 0.62782 0.0
H398 H 0.73284 0.96282 0.67242 0.0
H399 H 0.78688 0.99102 0.67926 0.0
H400 H 0.76626 0.94073 0.66939 0.0
C401 C 0.91323 0.04494 0.67686 0.0
C402 C 0.91378 0.00744 0.67923 0.0
C403 C 0.88342 0.04591 0.66629 0.0
C404 C 0.85352 0.00933 0.6581 0.0
C405 C 0.85426 0.972 0.66028 0.0
H406 H 0.63351 0.93971 0.59762 0.0
H407 H 0.68946 0.94169 0.61475 0.0
C408 C 0.88421 0.97106 0.67073 0.0
C409 C 0.82121 0.00995 0.64734 0.0
H410 H 0.7167 0.97653 0.64541 0.0
C411 C 0.8329 0.02923 0.63163 0.0
C412 C 0.77895 0.99078 0.65241 0.0
C413 C 0.76523 0.97031 0.66932 0.0
C414 C 0.80305 0.02913 0.62064 0.0
C415 C 0.76068 0.01014 0.62574 0.0
C416 C 0.74917 0.99106 0.64153 0.0
C417 C 0.7276 0.0093 0.61487 0.0
C418 C 0.817 0.04825 0.60351 0.0
C419 C 0.73032 0.04667 0.60933 0.0
C420 C 0.69866 0.04564 0.59932 0.0
C421 C 0.66334 0.00719 0.59484 0.0
C422 C 0.66057 0.96983 0.60057 0.0
C423 C 0.69237 0.9709 0.61048 0.0
H424 H 0.84712 0.05049 0.59986 0.0
H425 H 0.79305 0.02971 0.59384 0.0
H426 H 0.82172 0.08043 0.60363 0.0
H427 H 0.75677 0.0767 0.61286 0.0
H428 H 0.70201 0.075 0.59503 0.0
H429 H 0.94349 0.88032 0.00953 0.0
H430 H 0.89025 0.82867 0.99072 0.0
H431 H 0.82293 0.89643 0.99224 0.0
H432 H 0.87552 0.94757 0.01155 0.0
H433 H 0.77104 0.81454 0.99597 0.0
H434 H 0.87362 0.83899 0.94165 0.0
H435 H 0.89238 0.82655 0.96027 0.0
H436 H 0.89045 0.87436 0.95933 0.0
C437 C 0.91748 0.88436 0.00577 0.0
C438 C 0.91372 0.91806 0.01194 0.0
C439 C 0.88722 0.85498 0.99492 0.0
C440 C 0.85305 0.85915 0.98978 0.0
C441 C 0.84919 0.89276 0.99596 0.0
H442 H 0.68618 0.71037 0.90848 0.0
H443 H 0.73782 0.76715 0.92606 0.0
C444 C 0.87924 0.92195 0.00697 0.0
C445 C 0.82049 0.82746 0.97851 0.0
H446 H 0.80633 0.77667 0.94117 0.0
C447 C 0.7787 0.80651 0.98392 0.0
C448 C 0.83037 0.81745 0.96266 0.0
C449 C 0.87408 0.84084 0.95555 0.0
C450 C 0.74668 0.77508 0.97413 0.0
C451 C 0.75694 0.76344 0.95872 0.0
C452 C 0.79856 0.78517 0.9531 0.0
C453 C 0.72503 0.72891 0.94819 0.0
C454 C 0.70213 0.75516 0.98031 0.0
C455 C 0.70101 0.68838 0.95471 0.0
C456 C 0.67087 0.65599 0.94479 0.0
C457 C 0.66462 0.66327 0.92802 0.0
C458 C 0.68949 0.70375 0.92142 0.0
C459 C 0.71931 0.73621 0.93142 0.0
H460 H 0.69805 0.77602 0.98923 0.0
H461 H 0.6797 0.74745 0.96978 0.0
H462 H 0.69412 0.72576 0.98702 0.0
H463 H 0.7056 0.68173 0.9675 0.0
H464 H 0.65213 0.62537 0.95035 0.0
H465 H 0.04452 0.95619 0.33091 0.0
H466 H 0.04515 0.90397 0.31215 0.0
H467 H 0.94145 0.80553 0.33911 0.0
H468 H 0.94011 0.85771 0.35774 0.0
H469 H 0.05829 0.83936 0.32028 0.0
H470 H 0.90203 0.77846 0.29065 0.0
H471 H 0.92704 0.82645 0.30267 0.0
H472 H 0.90068 0.77667 0.31311 0.0
C473 C 0.02162 0.92344 0.33276 0.0
C474 C 0.99215 0.91101 0.34574 0.0
C475 C 0.02206 0.89367 0.32205 0.0
C476 C 0.99301 0.85094 0.3241 0.0
C477 C 0.96356 0.83841 0.33708 0.0
H478 H 0.01518 0.6431 0.2849 0.0
H479 H 0.01317 0.69642 0.30253 0.0
C480 C 0.96299 0.86822 0.34776 0.0
C481 C 0.99471 0.8195 0.31304 0.0
H482 H 0.93731 0.74046 0.28528 0.0
C483 C 0.0319 0.81782 0.31258 0.0
C484 C 0.9604 0.7918 0.30286 0.0
C485 C 0.9204 0.79358 0.30218 0.0
C486 C 0.03555 0.78876 0.30239 0.0
C487 C 0.00077 0.76014 0.29264 0.0
C488 C 0.96378 0.76222 0.2929 0.0
C489 C 0.00224 0.72798 0.28198 0.0
C490 C 0.07682 0.78946 0.30194 0.0
C491 C 0.99588 0.72752 0.26463 0.0
C492 C 0.99689 0.69703 0.25453 0.0
C493 C 0.00416 0.66634 0.26162 0.0
C494 C 0.01029 0.66677 0.27903 0.0
C495 C 0.00914 0.6972 0.28912 0.0
H496 H 0.10306 0.81987 0.30647 0.0
H497 H 0.07498 0.76443 0.3102 0.0
H498 H 0.08408 0.78363 0.28906 0.0
H499 H 0.99042 0.75097 0.25889 0.0
H500 H 0.99241 0.69774 0.24115 0.0
H501 H 0.06323 0.92986 0.68436 0.0
H502 H 0.1163 0.92868 0.66622 0.0
H503 H 0.1671 0.0599 0.6556 0.0
H504 H 0.1144 0.06141 0.67365 0.0
H505 H 0.13272 0.95287 0.63092 0.0
H506 H 0.26871 0.04967 0.67257 0.0
H507 H 0.21526 0.02364 0.67993 0.0
H508 H 0.23552 0.07127 0.66815 0.0
C509 C 0.08573 0.95843 0.67815 0.0
C510 C 0.08481 0.99577 0.68047 0.0
C511 C 0.11594 0.95769 0.6678 0.0
C512 C 0.14586 0.99433 0.65977 0.0
C513 C 0.14464 0.03147 0.6619 0.0
H514 H 0.3584 0.06593 0.59493 0.0
H515 H 0.30324 0.06297 0.61288 0.0
C516 C 0.11441 0.03221 0.67216 0.0
C517 C 0.17825 0.99387 0.64902 0.0
H518 H 0.2839 0.03513 0.64538 0.0
C519 C 0.16578 0.97059 0.63409 0.0
C520 C 0.22126 0.01717 0.65323 0.0
C521 C 0.23615 0.04163 0.6694 0.0
C522 C 0.1954 0.97085 0.62299 0.0
C523 C 0.2385 0.99431 0.62717 0.0
C524 C 0.25086 0.01727 0.64219 0.0
C525 C 0.2714 0.99571 0.6161 0.0
C526 C 0.18037 0.94702 0.60669 0.0
C527 C 0.27205 0.95895 0.61212 0.0
C528 C 0.30349 0.96056 0.60187 0.0
C529 C 0.33514 -0.00096 0.59555 0.0
C530 C 0.33465 0.03587 0.59971 0.0
C531 C 0.30308 0.03421 0.6099 0.0
H532 H 0.14828 0.94032 0.6034 0.0
H533 H 0.20181 0.96472 0.59626 0.0
H534 H 0.17951 0.91662 0.60788 0.0
H535 H 0.24853 0.92906 0.61712 0.0
H536 H 0.30345 0.93175 0.59914 0.0
H537 H 0.05787 0.10982 0.00288 0.0
H538 H 0.11248 0.16008 0.98431 0.0
H539 H 0.19657 0.11846 0.00153 0.0
H540 H 0.14181 0.06762 0.02002 0.0
H541 H 0.19113 0.22528 0.99354 0.0
H542 H 0.20399 0.11398 0.95031 0.0
H543 H 0.1602 0.09812 0.96429 0.0
H544 H 0.20926 0.1057 0.97213 0.0
C545 C 0.08789 0.11115 0.00263 0.0
C546 C 0.09556 0.08473 0.01286 0.0
C547 C 0.11905 0.1399 0.99203 0.0
C548 C 0.15837 0.14264 0.99141 0.0
C549 C 0.16616 0.11629 0.00159 0.0
H550 H 0.38577 0.35261 0.9515 0.0
H551 H 0.33274 0.29799 0.96931 0.0
C552 C 0.13495 0.08744 0.01221 0.0
C553 C 0.1916 0.17428 0.98054 0.0
H554 H 0.25446 0.186 0.94723 0.0
C555 C 0.20499 0.21673 0.98341 0.0
C556 C 0.20925 0.16292 0.96724 0.0
C557 C 0.19477 0.1177 0.96316 0.0
C558 C 0.23585 0.24822 0.9734 0.0
C559 C 0.25419 0.23694 0.96034 0.0
C560 C 0.24055 0.19449 0.95736 0.0
C561 C 0.28699 0.26885 0.94944 0.0
C562 C 0.24802 0.29325 0.97668 0.0
C563 C 0.27918 0.26983 0.93229 0.0
C564 C 0.30951 0.3008 0.92206 0.0
C565 C 0.34832 0.33118 0.92878 0.0
C566 C 0.35633 0.32951 0.94591 0.0
C567 C 0.32594 0.29858 0.95614 0.0
H568 H 0.22444 0.29576 0.98448 0.0
H569 H 0.27844 0.30916 0.98346 0.0
H570 H 0.25182 0.31017 0.96474 0.0
H571 H 0.24937 0.24696 0.92689 0.0
H572 H 0.30264 0.30089 0.90887 0.0
H573 H 0.95988 0.05417 0.33019 0.0
H574 H 0.96428 0.10967 0.31217 0.0
H575 H 0.05417 0.2029 0.34604 0.0
H576 H 0.05093 0.14737 0.36386 0.0
H577 H 0.9447 0.16881 0.319 0.0
H578 H 0.11282 0.24478 0.30192 0.0
H579 H 0.08575 0.19447 0.31209 0.0
H580 H 0.10413 0.24191 0.32409 0.0
C581 C 0.98082 0.08651 0.33374 0.0
C582 C 0.00523 0.0965 0.34838 0.0
C583 C 0.98328 0.11818 0.32344 0.0
C584 C 0.01003 0.16045 0.3276 0.0
C585 C 0.03414 0.17053 0.34233 0.0
H586 H 0.03393 0.38815 0.28509 0.0
H587 H 0.03552 0.33578 0.30335 0.0
C588 C 0.03205 0.1388 0.35256 0.0
C589 C 0.01129 0.19372 0.31679 0.0
H590 H 0.07644 0.28007 0.29376 0.0
C591 C 0.97351 0.19301 0.31344 0.0
C592 C 0.04891 0.22529 0.30952 0.0
C593 C 0.09014 0.22654 0.31194 0.0
C594 C 0.97236 0.22309 0.30309 0.0
C595 C 0.00992 0.25465 0.29595 0.0
C596 C 0.04777 0.25574 0.29935 0.0
C597 C 0.01022 0.28651 0.28471 0.0
C598 C 0.93113 0.22125 0.29987 0.0
C599 C 0.99586 0.27601 0.26818 0.0
C600 C 0.99537 0.30593 0.25762 0.0
C601 C 0.00908 0.34685 0.26347 0.0
C602 C 0.02372 0.35718 0.28008 0.0
C603 C 0.02445 0.32729 0.29058 0.0
H604 H 0.90567 0.19788 0.30794 0.0
H605 H 0.93433 0.25248 0.30206 0.0
H606 H 0.92191 0.21265 0.28657 0.0
H607 H 0.98503 0.24465 0.26345 0.0
H608 H 0.98457 0.29708 0.24484 0.0
loop_
_geom_bond_atom_site_label_1
_geom_bond_atom_site_label_2
_geom_bond_distance
_geom_bond_site_symmetry_2
_ccdc_geom_bond_type
In0 O1 2.294 1_455 S
In0 O2 2.326 . S
In0 O6 2.266 1_445 S
In0 O7 2.326 1_445 S
In0 O8 2.266 1_545 S
In0 O9 2.326 1_445 S
In0 O11 2.294 . S
In0 O12 2.326 . S
O1 In0 2.294 1_655 S
O1 C10 1.240 1_655 S
O2 In0 2.326 . S
O2 C10 1.252 . S
C3 O6 1.252 . S
C3 O7 1.260 . S
C4 O11 1.240 . S
C4 O12 1.252 . S
C5 O8 1.248 1_655 S
C5 O9 1.266 . S
O6 In0 2.266 1_665 S
O6 C3 1.252 . S
O7 In0 2.326 1_665 S
O7 C3 1.260 . S
O8 In0 2.266 1_565 S
O8 C5 1.248 1_455 S
O9 In0 2.326 1_665 S
O9 C5 1.266 . S
C10 O1 1.240 1_455 S
C10 O2 1.252 . S
O11 In0 2.294 . S
O11 C4 1.240 . S
O12 In0 2.326 . S
O12 C4 1.252 . S
In13 O14 2.292 . S
In13 O15 2.306 1_455 S
In13 O19 2.290 . S
In13 O20 2.342 1_545 S
In13 O21 2.269 1_445 S
In13 O22 2.346 1_545 S
In13 O24 2.270 1_445 S
In13 O25 2.309 1_455 S
O14 In13 2.292 . S
O14 C23 1.240 1_455 S
O15 In13 2.306 1_655 S
O15 C23 1.252 . S
C16 O19 1.245 1_565 S
C16 O20 1.263 . S
C17 O24 1.240 1_545 S
C17 O25 1.252 . S
C18 O21 1.252 1_455 S
C18 O22 1.260 . S
O19 In13 2.290 . S
O19 C16 1.245 1_545 S
O20 In13 2.342 1_565 S
O20 C16 1.263 . S
O21 In13 2.269 1_665 S
O21 C18 1.252 1_655 S
O22 In13 2.346 1_565 S
O22 C18 1.260 . S
C23 O14 1.240 1_655 S
C23 O15 1.252 . S
O24 In13 2.270 1_665 S
O24 C17 1.240 1_565 S
O25 In13 2.309 1_655 S
O25 C17 1.252 . S
In26 O27 2.274 1_445 S
In26 O28 2.306 1_445 S
In26 O32 2.276 1_545 S
In26 O33 2.347 . S
In26 O34 2.287 . S
In26 O35 2.346 . S
In26 O37 2.284 1_455 S
In26 O38 2.304 1_445 S
O27 In26 2.274 1_665 S
O27 C36 1.240 . S
O28 In26 2.306 1_665 S
O28 C36 1.252 . S
C29 O32 1.252 1_545 S
C29 O33 1.260 . S
C30 O37 1.240 1_565 S
C30 O38 1.252 . S
C31 O34 1.252 . S
C31 O35 1.260 . S
O32 In26 2.276 1_565 S
O32 C29 1.252 1_565 S
O33 In26 2.347 . S
O33 C29 1.260 . S
O34 In26 2.287 . S
O34 C31 1.252 . S
O35 In26 2.346 . S
O35 C31 1.260 . S
C36 O27 1.240 . S
C36 O28 1.252 . S
O37 In26 2.284 1_655 S
O37 C30 1.240 1_545 S
O38 In26 2.304 1_665 S
O38 C30 1.252 . S
C39 C40 1.384 1_655 S
C39 C41 1.384 . S
C39 H67 0.931 . S
C40 C39 1.384 1_455 S
C40 C43 1.382 . S
C41 C39 1.384 . S
C41 C42 1.381 1_655 S
C41 H68 0.930 . S
C42 C41 1.381 1_455 S
C42 C44 1.381 . S
C42 C45 1.487 . S
C43 C40 1.382 . S
C43 C44 1.387 . S
C43 H69 0.930 . S
C44 C42 1.381 . S
C44 C43 1.387 . S
C44 H70 0.931 . S
C45 C42 1.487 . S
C45 C52 1.400 . S
C45 N83 1.343 . S
C46 C47 1.384 . S
C46 C48 1.384 . S
C46 H71 0.931 . S
C47 C46 1.384 . S
C47 C50 1.382 1_455 S
C48 C46 1.384 . S
C48 C49 1.384 . S
C48 H72 0.930 . S
C49 C48 1.384 . S
C49 C51 1.380 1_455 S
C49 C52 1.494 . S
C50 C47 1.382 1_655 S
C50 C51 1.387 . S
C50 H73 0.930 . S
C51 C49 1.380 1_655 S
C51 C50 1.387 . S
C51 H74 0.931 . S
C52 C45 1.400 . S
C52 C49 1.494 . S
C52 N84 1.333 1_455 S
C53 C54 1.384 . S
C53 C55 1.384 . S
C53 H75 0.931 . S
C54 C53 1.384 . S
C54 C57 1.382 1_455 S
C55 C53 1.384 . S
C55 C56 1.382 . S
C55 H76 0.930 . S
C56 C55 1.382 . S
C56 C58 1.380 1_455 S
C56 C59 1.480 . S
C57 C54 1.382 1_655 S
C57 C58 1.387 . S
C57 H77 0.930 . S
C58 C56 1.380 1_655 S
C58 C57 1.387 . S
C58 H78 0.931 . S
C59 C56 1.480 . S
C59 C66 1.400 . S
C59 N84 1.351 1_455 S
C60 C61 1.384 1_655 S
C60 C62 1.384 . S
C60 H79 0.931 . S
C61 C60 1.384 1_455 S
C61 C64 1.382 . S
C62 C60 1.384 . S
C62 C63 1.381 1_655 S
C62 H80 0.930 . S
C63 C62 1.381 1_455 S
C63 C65 1.381 . S
C63 C66 1.487 . S
C64 C61 1.382 . S
C64 C65 1.387 . S
C64 H81 0.930 . S
C65 C63 1.381 . S
C65 C64 1.387 . S
C65 H82 0.931 . S
C66 C59 1.400 . S
C66 C63 1.487 . S
C66 N83 1.343 . S
H67 C39 0.931 . S
H68 C41 0.930 . S
H69 C43 0.930 . S
H70 C44 0.931 . S
H71 C46 0.931 . S
H72 C48 0.930 . S
H73 C50 0.930 . S
H74 C51 0.931 . S
H75 C53 0.931 . S
H76 C55 0.930 . S
H77 C57 0.930 . S
H78 C58 0.931 . S
H79 C60 0.931 . S
H80 C62 0.930 . S
H81 C64 0.930 . S
H82 C65 0.931 . S
N83 C45 1.343 . S
N83 C66 1.343 . S
N84 C52 1.333 1_655 S
N84 C59 1.351 1_655 S
C85 C86 1.384 . S
C85 C87 1.384 . S
C85 H113 0.931 . S
C86 C85 1.384 . S
C86 C89 1.382 1_545 S
C87 C85 1.384 . S
C87 C88 1.382 . S
C87 H114 0.930 . S
C88 C87 1.382 . S
C88 C90 1.381 1_545 S
C88 C91 1.480 . S
C89 C86 1.382 1_565 S
C89 C90 1.387 . S
C89 H115 0.930 . S
C90 C88 1.381 1_565 S
C90 C89 1.387 . S
C90 H116 0.931 . S
C91 C88 1.480 . S
C91 C98 1.400 . S
C91 N129 1.350 1_545 S
C92 C93 1.384 1_565 S
C92 C94 1.384 . S
C92 H117 0.931 . S
C93 C92 1.384 1_545 S
C93 C96 1.382 . S
C94 C92 1.384 . S
C94 C95 1.381 1_565 S
C94 H118 0.930 . S
C95 C94 1.381 1_545 S
C95 C97 1.381 . S
C95 C98 1.487 . S
C96 C93 1.382 . S
C96 C97 1.387 . S
C96 H119 0.930 . S
C97 C95 1.381 . S
C97 C96 1.387 . S
C97 H120 0.931 . S
C98 C91 1.400 . S
C98 C95 1.487 . S
C98 N130 1.343 . S
C99 C100 1.384 1_565 S
C99 C101 1.384 . S
C99 H121 0.931 . S
C100 C99 1.384 1_545 S
C100 C103 1.382 . S
C101 C99 1.384 . S
C101 C102 1.381 1_565 S
C101 H122 0.930 . S
C102 C101 1.381 1_545 S
C102 C104 1.381 . S
C102 C105 1.487 . S
C103 C100 1.382 . S
C103 C104 1.387 . S
C103 H123 0.930 . S
C104 C102 1.381 . S
C104 C103 1.387 . S
C104 H124 0.931 . S
C105 C102 1.487 . S
C105 C112 1.400 . S
C105 N130 1.343 . S
C106 C107 1.384 . S
C106 C108 1.384 . S
C106 H125 0.931 . S
C107 C106 1.384 . S
C107 C110 1.382 1_545 S
C108 C106 1.384 . S
C108 C109 1.382 . S
C108 H126 0.930 . S
C109 C108 1.382 . S
C109 C111 1.381 1_545 S
C109 C112 1.494 . S
C110 C107 1.382 1_565 S
C110 C111 1.387 . S
C110 H127 0.930 . S
C111 C109 1.381 1_565 S
C111 C110 1.387 . S
C111 H128 0.931 . S
C112 C105 1.400 . S
C112 C109 1.494 . S
C112 N129 1.334 1_545 S
H113 C85 0.931 . S
H114 C87 0.930 . S
H115 C89 0.930 . S
H116 C90 0.931 . S
H117 C92 0.931 . S
H118 C94 0.930 . S
H119 C96 0.930 . S
H120 C97 0.931 . S
H121 C99 0.931 . S
H122 C101 0.930 . S
H123 C103 0.930 . S
H124 C104 0.931 . S
H125 C106 0.931 . S
H126 C108 0.930 . S
H127 C110 0.930 . S
H128 C111 0.931 . S
N129 C91 1.350 1_565 S
N129 C112 1.334 1_565 S
N130 C98 1.343 . S
N130 C105 1.343 . S
C131 C132 1.384 . S
C131 C133 1.384 . S
C131 H159 0.931 . S
C132 C131 1.384 . S
C132 C135 1.382 . S
C133 C131 1.384 . S
C133 C134 1.381 . S
C133 H160 0.930 . S
C134 C133 1.381 . S
C134 C136 1.381 . S
C134 C137 1.487 . S
C135 C132 1.382 . S
C135 C136 1.387 . S
C135 H161 0.930 . S
C136 C134 1.381 . S
C136 C135 1.387 . S
C136 H162 0.931 . S
C137 C134 1.487 . S
C137 C144 1.399 . S
C137 N175 1.343 . S
C138 C139 1.384 . S
C138 C140 1.384 . S
C138 H163 0.931 . S
C139 C138 1.384 . S
C139 C142 1.382 . S
C140 C138 1.384 . S
C140 C141 1.381 . S
C140 H164 0.930 . S
C141 C140 1.381 . S
C141 C143 1.381 . S
C141 C144 1.487 . S
C142 C139 1.382 . S
C142 C143 1.387 . S
C142 H165 0.930 . S
C143 C141 1.381 . S
C143 C142 1.387 . S
C143 H166 0.931 . S
C144 C137 1.399 . S
C144 C141 1.487 . S
C144 N176 1.343 . S
C145 C146 1.384 . S
C145 C147 1.384 . S
C145 H167 0.931 . S
C146 C145 1.384 . S
C146 C149 1.382 . S
C147 C145 1.384 . S
C147 C148 1.381 . S
C147 H168 0.930 . S
C148 C147 1.381 . S
C148 C150 1.381 . S
C148 C151 1.487 . S
C149 C146 1.382 . S
C149 C150 1.387 . S
C149 H169 0.930 . S
C150 C148 1.381 . S
C150 C149 1.387 . S
C150 H170 0.931 . S
C151 C148 1.487 . S
C151 C158 1.399 . S
C151 N176 1.343 . S
C152 C153 1.384 . S
C152 C154 1.384 . S
C152 H171 0.931 . S
C153 C152 1.384 . S
C153 C156 1.382 . S
C154 C152 1.384 . S
C154 C155 1.381 . S
C154 H172 0.930 . S
C155 C154 1.381 . S
C155 C157 1.381 . S
C155 C158 1.487 . S
C156 C153 1.382 . S
C156 C157 1.387 . S
C156 H173 0.930 . S
C157 C155 1.381 . S
C157 C156 1.387 . S
C157 H174 0.931 . S
C158 C151 1.399 . S
C158 C155 1.487 . S
C158 N175 1.343 . S
H159 C131 0.931 . S
H160 C133 0.930 . S
H161 C135 0.930 . S
H162 C136 0.931 . S
H163 C138 0.931 . S
H164 C140 0.930 . S
H165 C142 0.930 . S
H166 C143 0.931 . S
H167 C145 0.931 . S
H168 C147 0.930 . S
H169 C149 0.930 . S
H170 C150 0.931 . S
H171 C152 0.931 . S
H172 C154 0.930 . S
H173 C156 0.930 . S
H174 C157 0.931 . S
N175 C137 1.343 . S
N175 C158 1.343 . S
N176 C144 1.343 . S
N176 C151 1.343 . S
H177 C185 0.929 . S
H178 C187 0.930 . S
H179 C189 0.930 . S
H180 C192 0.929 . S
H181 C195 0.930 . S
H182 C197 0.960 . S
H183 C197 0.960 . S
H184 C197 0.960 . S
C185 H177 0.929 . S
C185 C186 1.377 . S
C185 C187 1.384 . S
C186 C185 1.377 . S
C186 C192 1.390 1_455 S
C187 H178 0.930 . S
C187 C185 1.384 . S
C187 C188 1.372 . S
C188 C187 1.372 . S
C188 C189 1.400 1_455 S
C188 C193 1.490 . S
C189 H179 0.930 . S
C189 C188 1.400 1_655 S
C189 C192 1.386 . S
H190 C206 0.930 . S
H191 C207 0.931 . S
C192 H180 0.929 . S
C192 C186 1.390 1_655 S
C192 C189 1.386 . S
C193 C188 1.490 . S
C193 C195 1.395 . S
C193 C196 1.403 1_455 S
H194 C200 0.930 . S
C195 H181 0.930 . S
C195 C193 1.395 . S
C195 C198 1.403 . S
C196 C193 1.403 1_655 S
C196 C197 1.524 . S
C196 C200 1.400 . S
C197 H182 0.960 . S
C197 H183 0.960 . S
C197 H184 0.960 . S
C197 C196 1.524 . S
C198 C195 1.403 . S
C198 C199 1.392 . S
C198 C202 1.495 . S
C199 C198 1.392 . S
C199 C200 1.385 1_455 S
C199 C201 1.478 . S
C200 H194 0.930 . S
C200 C196 1.400 . S
C200 C199 1.385 1_655 S
C201 C199 1.478 . S
C201 C203 1.381 . S
C201 C207 1.383 1_455 S
C202 C198 1.495 . S
C202 H208 0.959 . S
C202 H209 0.961 . S
C202 H210 0.960 . S
C203 C201 1.381 . S
C203 C204 1.394 . S
C203 H211 0.930 . S
C204 C203 1.394 . S
C204 C205 1.383 . S
C204 H212 0.929 . S
C205 C204 1.383 . S
C205 C206 1.377 1_455 S
C206 H190 0.930 . S
C206 C205 1.377 1_655 S
C206 C207 1.379 . S
C207 H191 0.931 . S
C207 C201 1.383 1_655 S
C207 C206 1.379 . S
H208 C202 0.959 . S
H209 C202 0.961 . S
H210 C202 0.960 . S
H211 C203 0.930 . S
H212 C204 0.929 . S
H213 C221 0.929 . S
H214 C223 0.930 . S
H215 C225 0.930 . S
H216 C228 0.929 . S
H217 C231 0.930 . S
H218 C233 0.960 . S
H219 C233 0.960 . S
H220 C233 0.960 . S
C221 H213 0.929 . S
C221 C222 1.377 1_565 S
C221 C223 1.384 . S
C222 C221 1.377 1_545 S
C222 C228 1.390 . S
C223 H214 0.930 . S
C223 C221 1.384 . S
C223 C224 1.372 1_565 S
C224 C223 1.372 1_545 S
C224 C225 1.400 . S
C224 C229 1.490 . S
C225 H215 0.930 . S
C225 C224 1.400 . S
C225 C228 1.386 . S
H226 C242 0.930 . S
H227 C243 0.931 . S
C228 H216 0.929 . S
C228 C222 1.390 . S
C228 C225 1.386 . S
C229 C224 1.490 . S
C229 C231 1.395 . S
C229 C232 1.403 1_545 S
H230 C236 0.930 . S
C231 H217 0.930 . S
C231 C229 1.395 . S
C231 C234 1.403 . S
C232 C229 1.403 1_565 S
C232 C233 1.524 . S
C232 C236 1.400 . S
C233 H218 0.960 . S
C233 H219 0.960 . S
C233 H220 0.960 . S
C233 C232 1.524 . S
C234 C231 1.403 . S
C234 C235 1.392 . S
C234 C238 1.495 . S
C235 C234 1.392 . S
C235 C236 1.385 1_545 S
C235 C237 1.478 . S
C236 H230 0.930 . S
C236 C232 1.400 . S
C236 C235 1.385 1_565 S
C237 C235 1.478 . S
C237 C239 1.381 1_545 S
C237 C243 1.383 . S
C238 C234 1.495 . S
C238 H244 0.959 . S
C238 H245 0.961 . S
C238 H246 0.960 . S
C239 C237 1.381 1_565 S
C239 C240 1.394 . S
C239 H247 0.930 . S
C240 C239 1.394 . S
C240 C241 1.383 1_565 S
C240 H248 0.929 . S
C241 C240 1.383 1_545 S
C241 C242 1.377 . S
C242 H226 0.930 . S
C242 C241 1.377 . S
C242 C243 1.379 . S
C243 H227 0.931 . S
C243 C237 1.383 . S
C243 C242 1.379 . S
H244 C238 0.959 . S
H245 C238 0.961 . S
H246 C238 0.960 . S
H247 C239 0.930 . S
H248 C240 0.929 . S
H249 C257 0.929 . S
H250 C259 0.930 . S
H251 C261 0.930 . S
H252 C264 0.929 . S
H253 C267 0.930 . S
H254 C269 0.960 . S
H255 C269 0.960 . S
H256 C269 0.960 . S
C257 H249 0.929 . S
C257 C258 1.377 . S
C257 C259 1.384 . S
C258 C257 1.377 . S
C258 C264 1.390 . S
C259 H250 0.930 . S
C259 C257 1.384 . S
C259 C260 1.372 . S
C260 C259 1.372 . S
C260 C261 1.400 . S
C260 C265 1.490 . S
C261 H251 0.930 . S
C261 C260 1.400 . S
C261 C264 1.386 . S
H262 C278 0.930 . S
H263 C279 0.931 . S
C264 H252 0.929 . S
C264 C258 1.390 . S
C264 C261 1.386 . S
C265 C260 1.490 . S
C265 C267 1.395 . S
C265 C268 1.403 . S
H266 C272 0.930 . S
C267 H253 0.930 . S
C267 C265 1.395 . S
C267 C270 1.403 . S
C268 C265 1.403 . S
C268 C269 1.524 . S
C268 C272 1.400 . S
C269 H254 0.960 . S
C269 H255 0.960 . S
C269 H256 0.960 . S
C269 C268 1.524 . S
C270 C267 1.403 . S
C270 C271 1.392 . S
C270 C274 1.495 . S
C271 C270 1.392 . S
C271 C272 1.385 . S
C271 C273 1.478 . S
C272 H266 0.930 . S
C272 C268 1.400 . S
C272 C271 1.385 . S
C273 C271 1.478 . S
C273 C275 1.381 . S
C273 C279 1.383 . S
C274 C270 1.495 . S
C274 H280 0.959 . S
C274 H281 0.961 . S
C274 H282 0.960 . S
C275 C273 1.381 . S
C275 C276 1.394 . S
C275 H283 0.930 . S
C276 C275 1.394 . S
C276 C277 1.383 . S
C276 H284 0.929 . S
C277 C276 1.383 . S
C277 C278 1.377 . S
C278 H262 0.930 . S
C278 C277 1.377 . S
C278 C279 1.379 . S
C279 H263 0.931 . S
C279 C273 1.383 . S
C279 C278 1.379 . S
H280 C274 0.959 . S
H281 C274 0.961 . S
H282 C274 0.960 . S
H283 C275 0.930 . S
H284 C276 0.929 . S
H285 C293 0.929 . S
H286 C295 0.930 . S
H287 C297 0.930 . S
H288 C300 0.929 . S
H289 C303 0.930 . S
H290 C305 0.960 . S
H291 C305 0.960 . S
H292 C305 0.960 . S
C293 H285 0.929 . S
C293 C294 1.380 . S
C293 C295 1.384 . S
C294 C293 1.380 . S
C294 C300 1.379 1_655 S
C295 H286 0.930 . S
C295 C293 1.384 . S
C295 C296 1.372 . S
C296 C295 1.372 . S
C296 C297 1.400 1_655 S
C296 C301 1.496 . S
C297 H287 0.930 . S
C297 C296 1.400 1_455 S
C297 C300 1.386 . S
H298 C314 0.930 . S
H299 C315 0.931 . S
C300 H288 0.929 . S
C300 C294 1.379 1_455 S
C300 C297 1.386 . S
C301 C296 1.496 . S
C301 C303 1.386 1_655 S
C301 C304 1.406 . S
H302 C308 0.930 . S
C303 H289 0.930 . S
C303 C301 1.386 1_455 S
C303 C306 1.403 . S
C304 C301 1.406 . S
C304 C305 1.524 . S
C304 C308 1.400 . S
C305 H290 0.960 . S
C305 H291 0.960 . S
C305 H292 0.960 . S
C305 C304 1.524 . S
C306 C303 1.403 . S
C306 C307 1.392 . S
C306 C310 1.495 . S
C307 C306 1.392 . S
C307 C308 1.385 1_455 S
C307 C309 1.478 . S
C308 H302 0.930 . S
C308 C304 1.400 . S
C308 C307 1.385 1_655 S
C309 C307 1.478 . S
C309 C311 1.381 1_455 S
C309 C315 1.383 . S
C310 C306 1.495 . S
C310 H316 0.959 . S
C310 H317 0.961 . S
C310 H318 0.960 . S
C311 C309 1.381 1_655 S
C311 C312 1.394 . S
C311 H319 0.930 . S
C312 C311 1.394 . S
C312 C313 1.383 1_655 S
C312 H320 0.929 . S
C313 C312 1.383 1_455 S
C313 C314 1.377 . S
C314 H298 0.930 . S
C314 C313 1.377 . S
C314 C315 1.379 . S
C315 H299 0.931 . S
C315 C309 1.383 . S
C315 C314 1.379 . S
H316 C310 0.959 . S
H317 C310 0.961 . S
H318 C310 0.960 . S
H319 C311 0.930 . S
H320 C312 0.929 . S
H321 C329 0.929 . S
H322 C331 0.930 . S
H323 C333 0.930 . S
H324 C336 0.929 . S
H325 C339 0.930 . S
H326 C341 0.960 . S
H327 C341 0.960 . S
H328 C341 0.960 . S
C329 H321 0.929 . S
C329 C330 1.387 . S
C329 C331 1.384 . S
C330 C329 1.387 . S
C330 C336 1.373 1_545 S
C331 H322 0.930 . S
C331 C329 1.384 . S
C331 C332 1.372 . S
C332 C331 1.372 . S
C332 C333 1.400 1_545 S
C332 C337 1.490 . S
C333 H323 0.930 . S
C333 C332 1.400 1_565 S
C333 C336 1.386 . S
H334 C350 0.930 . S
H335 C351 0.931 . S
C336 H324 0.929 . S
C336 C330 1.373 1_565 S
C336 C333 1.386 . S
C337 C332 1.490 . S
C337 C339 1.395 1_545 S
C337 C340 1.403 . S
H338 C344 0.930 . S
C339 H325 0.930 . S
C339 C337 1.395 1_565 S
C339 C342 1.403 . S
C340 C337 1.403 . S
C340 C341 1.524 . S
C340 C344 1.400 . S
C341 H326 0.960 . S
C341 H327 0.960 . S
C341 H328 0.960 . S
C341 C340 1.524 . S
C342 C339 1.403 . S
C342 C343 1.394 1_565 S
C342 C346 1.495 . S
C343 C342 1.394 1_545 S
C343 C344 1.386 . S
C343 C345 1.468 1_545 S
C344 H338 0.930 . S
C344 C340 1.400 . S
C344 C343 1.386 . S
C345 C343 1.468 1_565 S
C345 C347 1.373 1_565 S
C345 C351 1.397 . S
C346 C342 1.495 . S
C346 H352 0.959 . S
C346 H353 0.961 . S
C346 H354 0.960 . S
C347 C345 1.373 1_545 S
C347 C348 1.394 . S
C347 H355 0.930 . S
C348 C347 1.394 . S
C348 C349 1.383 . S
C348 H356 0.929 . S
C349 C348 1.383 . S
C349 C350 1.377 1_545 S
C350 H334 0.930 . S
C350 C349 1.377 1_565 S
C350 C351 1.379 . S
C351 H335 0.931 . S
C351 C345 1.397 . S
C351 C350 1.379 . S
H352 C346 0.959 . S
H353 C346 0.961 . S
H354 C346 0.960 . S
H355 C347 0.930 . S
H356 C348 0.929 . S
H357 C365 0.929 . S
H358 C367 0.930 . S
H359 C369 0.930 . S
H360 C372 0.929 . S
H361 C375 0.930 . S
H362 C377 0.960 . S
H363 C377 0.960 . S
H364 C377 0.960 . S
C365 H357 0.929 . S
C365 C366 1.377 . S
C365 C367 1.384 . S
C366 C365 1.377 . S
C366 C372 1.390 . S
C367 H358 0.930 . S
C367 C365 1.384 . S
C367 C368 1.372 . S
C368 C367 1.372 . S
C368 C369 1.400 . S
C368 C373 1.490 . S
C369 H359 0.930 . S
C369 C368 1.400 . S
C369 C372 1.386 . S
H370 C386 0.930 . S
H371 C387 0.931 . S
C372 H360 0.929 . S
C372 C366 1.390 . S
C372 C369 1.386 . S
C373 C368 1.490 . S
C373 C375 1.395 . S
C373 C376 1.403 . S
H374 C380 0.930 . S
C375 H361 0.930 . S
C375 C373 1.395 . S
C375 C378 1.403 . S
C376 C373 1.403 . S
C376 C377 1.524 . S
C376 C380 1.400 . S
C377 H362 0.960 . S
C377 H363 0.960 . S
C377 H364 0.960 . S
C377 C376 1.524 . S
C378 C375 1.403 . S
C378 C379 1.392 . S
C378 C382 1.495 . S
C379 C378 1.392 . S
C379 C380 1.385 . S
C379 C381 1.478 . S
C380 H374 0.930 . S
C380 C376 1.400 . S
C380 C379 1.385 . S
C381 C379 1.478 . S
C381 C383 1.381 . S
C381 C387 1.383 . S
C382 C378 1.495 . S
C382 H388 0.959 . S
C382 H389 0.961 . S
C382 H390 0.960 . S
C383 C381 1.381 . S
C383 C384 1.394 . S
C383 H391 0.930 . S
C384 C383 1.394 . S
C384 C385 1.383 . S
C384 H392 0.929 . S
C385 C384 1.383 . S
C385 C386 1.377 . S
C386 H370 0.930 . S
C386 C385 1.377 . S
C386 C387 1.379 . S
C387 H371 0.931 . S
C387 C381 1.383 . S
C387 C386 1.379 . S
H388 C382 0.959 . S
H389 C382 0.961 . S
H390 C382 0.960 . S
H391 C383 0.930 . S
H392 C384 0.929 . S
H393 C401 0.929 . S
H394 C403 0.930 . S
H395 C405 0.930 . S
H396 C408 0.929 . S
H397 C411 0.930 . S
H398 C413 0.960 . S
H399 C413 0.960 1_545 S
H400 C413 0.960 . S
C401 H393 0.929 . S
C401 C402 1.377 1_545 S
C401 C403 1.384 . S
C402 C401 1.377 1_565 S
C402 C408 1.390 . S
C403 H394 0.930 . S
C403 C401 1.384 . S
C403 C404 1.384 . S
C404 C403 1.384 . S
C404 C405 1.376 1_545 S
C404 C409 1.501 . S
C405 H395 0.930 . S
C405 C404 1.376 1_565 S
C405 C408 1.386 . S
H406 C422 0.930 . S
H407 C423 0.931 . S
C408 H396 0.929 . S
C408 C402 1.390 . S
C408 C405 1.386 . S
C409 C404 1.501 . S
C409 C411 1.395 . S
C409 C412 1.403 1_545 S
H410 C416 0.930 . S
C411 H397 0.930 . S
C411 C409 1.395 . S
C411 C414 1.403 . S
C412 C409 1.403 1_565 S
C412 C413 1.524 . S
C412 C416 1.400 . S
C413 H398 0.960 . S
C413 H399 0.960 1_565 S
C413 H400 0.960 . S
C413 C412 1.524 . S
C414 C411 1.403 . S
C414 C415 1.392 . S
C414 C418 1.495 . S
C415 C414 1.392 . S
C415 C416 1.385 1_545 S
C415 C417 1.478 . S
C416 H410 0.930 . S
C416 C412 1.400 . S
C416 C415 1.385 1_565 S
C417 C415 1.478 . S
C417 C419 1.381 . S
C417 C423 1.383 1_545 S
C418 C414 1.495 . S
C418 H424 0.959 . S
C418 H425 0.961 . S
C418 H426 0.960 . S
C419 C417 1.381 . S
C419 C420 1.394 . S
C419 H427 0.930 . S
C420 C419 1.394 . S
C420 C421 1.383 . S
C420 H428 0.929 . S
C421 C420 1.383 . S
C421 C422 1.377 1_545 S
C422 H406 0.930 . S
C422 C421 1.377 1_565 S
C422 C423 1.379 . S
C423 H407 0.931 . S
C423 C417 1.383 1_565 S
C423 C422 1.379 . S
H424 C418 0.959 . S
H425 C418 0.961 . S
H426 C418 0.960 . S
H427 C419 0.930 . S
H428 C420 0.929 . S
H429 C437 0.929 . S
H430 C439 0.930 . S
H431 C441 0.930 . S
H432 C444 0.918 1_556 S
H433 C447 0.930 1_554 S
H434 C449 0.960 . S
H435 C449 0.960 . S
H436 C449 0.960 . S
C437 H429 0.929 . S
C437 C438 1.377 . S
C437 C439 1.384 . S
C438 C437 1.377 . S
C438 C444 1.390 . S
C439 H430 0.930 . S
C439 C437 1.384 . S
C439 C440 1.372 1_554 S
C440 C439 1.372 1_556 S
C440 C441 1.400 . S
C440 C445 1.490 . S
C441 H431 0.930 . S
C441 C440 1.400 . S
C441 C444 1.386 1_556 S
H442 C458 0.930 . S
H443 C459 0.931 . S
C444 H432 0.918 1_554 S
C444 C438 1.390 . S
C444 C441 1.386 1_554 S
C445 C440 1.490 . S
C445 C447 1.395 . S
C445 C448 1.403 . S
H446 C452 0.930 . S
C447 H433 0.930 1_556 S
C447 C445 1.395 . S
C447 C450 1.403 . S
C448 C445 1.403 . S
C448 C449 1.524 . S
C448 C452 1.400 . S
C449 H434 0.960 . S
C449 H435 0.960 . S
C449 H436 0.960 . S
C449 C448 1.524 . S
C450 C447 1.403 . S
C450 C451 1.392 . S
C450 C454 1.495 . S
C451 C450 1.392 . S
C451 C452 1.385 . S
C451 C453 1.478 . S
C452 H446 0.930 . S
C452 C448 1.400 . S
C452 C451 1.385 . S
C453 C451 1.478 . S
C453 C455 1.381 . S
C453 C459 1.383 . S
C454 C450 1.495 . S
C454 H460 0.959 1_556 S
C454 H461 0.961 . S
C454 H462 0.960 . S
C455 C453 1.381 . S
C455 C456 1.394 . S
C455 H463 0.930 . S
C456 C455 1.394 . S
C456 C457 1.383 . S
C456 H464 0.929 . S
C457 C456 1.383 . S
C457 C458 1.377 . S
C458 H442 0.930 . S
C458 C457 1.377 . S
C458 C459 1.379 . S
C459 H443 0.931 . S
C459 C453 1.383 . S
C459 C458 1.379 . S
H460 C454 0.959 1_554 S
H461 C454 0.961 . S
H462 C454 0.960 . S
H463 C455 0.930 . S
H464 C456 0.929 . S
H465 C473 0.929 . S
H466 C475 0.930 . S
H467 C477 0.930 1_655 S
H468 C480 0.929 . S
H469 C483 0.930 . S
H470 C485 0.960 . S
H471 C485 0.960 . S
H472 C485 0.960 . S
C473 H465 0.929 . S
C473 C474 1.377 . S
C473 C475 1.384 . S
C474 C473 1.377 . S
C474 C480 1.390 . S
C475 H466 0.930 . S
C475 C473 1.384 . S
C475 C476 1.372 . S
C476 C475 1.372 . S
C476 C477 1.400 . S
C476 C481 1.490 . S
C477 H467 0.930 1_455 S
C477 C476 1.400 . S
C477 C480 1.386 . S
H478 C494 0.930 . S
H479 C495 0.931 . S
C480 H468 0.929 . S
C480 C474 1.390 . S
C480 C477 1.386 . S
C481 C476 1.490 . S
C481 C483 1.395 . S
C481 C484 1.403 1_455 S
H482 C488 0.930 . S
C483 H469 0.930 . S
C483 C481 1.395 . S
C483 C486 1.403 . S
C484 C481 1.403 1_655 S
C484 C485 1.524 . S
C484 C488 1.400 . S
C485 H470 0.960 . S
C485 H471 0.960 . S
C485 H472 0.960 . S
C485 C484 1.524 . S
C486 C483 1.403 . S
C486 C487 1.392 . S
C486 C490 1.495 . S
C487 C486 1.392 . S
C487 C488 1.385 1_455 S
C487 C489 1.478 . S
C488 H482 0.930 . S
C488 C484 1.400 . S
C488 C487 1.385 1_655 S
C489 C487 1.478 . S
C489 C491 1.381 . S
C489 C495 1.383 . S
C490 C486 1.495 . S
C490 H496 0.959 . S
C490 H497 0.961 . S
C490 H498 0.960 . S
C491 C489 1.381 . S
C491 C492 1.394 . S
C491 H499 0.930 . S
C492 C491 1.394 . S
C492 C493 1.383 . S
C492 H500 0.929 . S
C493 C492 1.383 . S
C493 C494 1.377 . S
C494 H478 0.930 . S
C494 C493 1.377 . S
C494 C495 1.379 . S
C495 H479 0.931 . S
C495 C489 1.383 . S
C495 C494 1.379 . S
H496 C490 0.959 . S
H497 C490 0.961 . S
H498 C490 0.960 . S
H499 C491 0.930 . S
H500 C492 0.929 . S
H501 C509 0.929 . S
H502 C511 0.930 . S
H503 C513 0.930 . S
H504 C516 0.929 . S
H505 C519 0.930 . S
H506 C521 0.960 . S
H507 C521 0.960 1_565 S
H508 C521 0.960 . S
C509 H501 0.929 . S
C509 C510 1.377 1_565 S
C509 C511 1.384 . S
C510 C509 1.377 1_545 S
C510 C516 1.390 . S
C511 H502 0.930 . S
C511 C509 1.384 . S
C511 C512 1.372 1_565 S
C512 C511 1.372 1_545 S
C512 C513 1.400 . S
C512 C517 1.504 . S
C513 H503 0.930 . S
C513 C512 1.400 . S
C513 C516 1.386 . S
H514 C530 0.930 . S
H515 C531 0.931 . S
C516 H504 0.929 . S
C516 C510 1.390 . S
C516 C513 1.386 . S
C517 C512 1.504 . S
C517 C519 1.390 1_545 S
C517 C520 1.394 . S
H518 C524 0.930 . S
C519 H505 0.930 . S
C519 C517 1.390 1_565 S
C519 C522 1.403 . S
C520 C517 1.394 . S
C520 C521 1.524 . S
C520 C524 1.400 . S
C521 H506 0.960 . S
C521 H507 0.960 1_545 S
C521 H508 0.960 . S
C521 C520 1.524 . S
C522 C519 1.403 . S
C522 C523 1.390 . S
C522 C526 1.495 . S
C523 C522 1.390 . S
C523 C524 1.384 1_565 S
C523 C525 1.485 1_565 S
C524 H518 0.930 . S
C524 C520 1.400 . S
C524 C523 1.384 1_545 S
C525 C523 1.485 1_545 S
C525 C527 1.371 1_545 S
C525 C531 1.388 . S
C526 C522 1.495 . S
C526 H532 0.959 . S
C526 H533 0.961 1_565 S
C526 H534 0.960 . S
C527 C525 1.371 1_565 S
C527 C528 1.394 . S
C527 H535 0.930 . S
C528 C527 1.394 . S
C528 C529 1.383 1_565 S
C528 H536 0.929 . S
C529 C528 1.383 1_545 S
C529 C530 1.377 . S
C530 H514 0.930 . S
C530 C529 1.377 . S
C530 C531 1.379 . S
C531 H515 0.931 . S
C531 C525 1.388 . S
C531 C530 1.379 . S
H532 C526 0.959 . S
H533 C526 0.961 1_545 S
H534 C526 0.960 . S
H535 C527 0.930 . S
H536 C528 0.929 . S
H537 C545 0.929 1_556 S
H538 C547 0.930 . S
H539 C549 0.930 . S
H540 C552 0.929 . S
H541 C555 0.930 . S
H542 C557 0.960 . S
H543 C557 0.960 . S
H544 C557 0.960 . S
C545 H537 0.929 1_554 S
C545 C546 1.377 . S
C545 C547 1.384 1_554 S
C546 C545 1.377 . S
C546 C552 1.390 . S
C547 H538 0.930 . S
C547 C545 1.384 1_556 S
C547 C548 1.372 . S
C548 C547 1.372 . S
C548 C549 1.400 1_556 S
C548 C553 1.490 . S
C549 H539 0.930 . S
C549 C548 1.400 1_554 S
C549 C552 1.386 . S
H550 C566 0.930 . S
H551 C567 0.931 . S
C552 H540 0.929 . S
C552 C546 1.390 . S
C552 C549 1.386 . S
C553 C548 1.490 . S
C553 C555 1.395 . S
C553 C556 1.403 . S
H554 C560 0.930 . S
C555 H541 0.930 . S
C555 C553 1.395 . S
C555 C558 1.403 . S
C556 C553 1.403 . S
C556 C557 1.524 . S
C556 C560 1.400 . S
C557 H542 0.960 . S
C557 H543 0.960 . S
C557 H544 0.960 . S
C557 C556 1.524 . S
C558 C555 1.403 . S
C558 C559 1.392 . S
C558 C562 1.495 . S
C559 C558 1.392 . S
C559 C560 1.385 . S
C559 C561 1.478 . S
C560 H554 0.930 . S
C560 C556 1.400 . S
C560 C559 1.385 . S
C561 C559 1.478 . S
C561 C563 1.381 . S
C561 C567 1.383 . S
C562 C558 1.495 . S
C562 H568 0.959 . S
C562 H569 0.961 . S
C562 H570 0.960 . S
C563 C561 1.381 . S
C563 C564 1.394 . S
C563 H571 0.930 . S
C564 C563 1.394 . S
C564 C565 1.383 . S
C564 H572 0.929 . S
C565 C564 1.383 . S
C565 C566 1.377 . S
C566 H550 0.930 . S
C566 C565 1.377 . S
C566 C567 1.379 . S
C567 H551 0.931 . S
C567 C561 1.383 . S
C567 C566 1.379 . S
H568 C562 0.959 . S
H569 C562 0.961 . S
H570 C562 0.960 . S
H571 C563 0.930 . S
H572 C564 0.929 . S
H573 C581 0.929 . S
H574 C583 0.930 . S
H575 C585 0.930 . S
H576 C588 0.929 . S
H577 C591 0.930 . S
H578 C593 0.960 . S
H579 C593 0.960 . S
H580 C593 0.960 . S
C581 H573 0.929 . S
C581 C582 1.377 . S
C581 C583 1.384 . S
C582 C581 1.377 . S
C582 C588 1.390 1_655 S
C583 H574 0.930 . S
C583 C581 1.384 . S
C583 C584 1.372 . S
C584 C583 1.372 . S
C584 C585 1.400 1_655 S
C584 C589 1.490 . S
C585 H575 0.930 . S
C585 C584 1.400 1_455 S
C585 C588 1.386 . S
H586 C602 0.930 . S
H587 C603 0.931 . S
C588 H576 0.929 . S
C588 C582 1.390 1_455 S
C588 C585 1.386 . S
C589 C584 1.490 . S
C589 C591 1.395 . S
C589 C592 1.403 1_655 S
H590 C596 0.930 . S
C591 H577 0.930 . S
C591 C589 1.395 . S
C591 C594 1.403 . S
C592 C589 1.403 1_455 S
C592 C593 1.524 . S
C592 C596 1.400 . S
C593 H578 0.960 . S
C593 H579 0.960 . S
C593 H580 0.960 . S
C593 C592 1.524 . S
C594 C591 1.403 . S
C594 C595 1.392 . S
C594 C598 1.495 . S
C595 C594 1.392 . S
C595 C596 1.385 1_655 S
C595 C597 1.478 . S
C596 H590 0.930 . S
C596 C592 1.400 . S
C596 C595 1.385 1_455 S
C597 C595 1.478 . S
C597 C599 1.381 . S
C597 C603 1.383 1_655 S
C598 C594 1.495 . S
C598 H604 0.959 . S
C598 H605 0.961 . S
C598 H606 0.960 . S
C599 C597 1.381 . S
C599 C600 1.394 . S
C599 H607 0.930 . S
C600 C599 1.394 . S
C600 C601 1.383 . S
C600 H608 0.929 . S
C601 C600 1.383 . S
C601 C602 1.377 1_655 S
C602 H586 0.930 . S
C602 C601 1.377 1_455 S
C602 C603 1.379 . S
C603 H587 0.931 . S
C603 C597 1.383 1_455 S
C603 C602 1.379 . S
H604 C598 0.959 . S
H605 C598 0.961 . S
H606 C598 0.960 . S
H607 C599 0.930 . S
H608 C600 0.929 . S
C205 C47 1.524 . S
C186 C10 1.526 . S
C222 C17 1.525 . S
C241 C86 1.519 . S
C258 C36 1.527 . S
C277 C153 1.522 . S
C294 C5 1.533 . S
C313 C54 1.527 . S
C349 C107 1.518 . S
C330 C16 1.539 1_545 S
C366 C31 1.527 . S
C385 C132 1.525 . S
C421 C93 1.517 . S
C402 C30 1.525 . S
C438 C3 1.527 . S
C457 C146 1.526 . S
C493 C61 1.519 . S
C474 C18 1.528 . S
C529 C100 1.519 . S
C510 C29 1.527 . S
C565 C139 1.524 . S
C546 C4 1.526 . S
C582 C23 1.526 . S
C601 C40 1.524 1_655 S
