# Generated by pormake.
# Topology ant, (3,6)-cn, num edge types: 1
# Building blocks:
#     Node 0, Type 0, BuildingBlock: KAKCAD_clean_linker_0, # of connection points: 3
#     Node 1, Type 0, BuildingBlock: KAKCAD_clean_linker_0, # of connection points: 3
#     Node 2, Type 0, BuildingBlock: KAKCAD_clean_linker_0, # of connection points: 3
#     Node 3, Type 0, BuildingBlock: KAKCAD_clean_linker_0, # of connection points: 3
#     Node 4, Type 0, BuildingBlock: KAKCAD_clean_linker_0, # of connection points: 3
#     Node 5, Type 0, BuildingBlock: KAKCAD_clean_linker_0, # of connection points: 3
#     Node 6, Type 0, BuildingBlock: KAKCAD_clean_linker_0, # of connection points: 3
#     Node 7, Type 0, BuildingBlock: KAKCAD_clean_linker_0, # of connection points: 3
#     Node 8, Type 1, BuildingBlock: MIDCAF_clean_sbu_0, # of connection points: 6
#     Node 9, Type 1, BuildingBlock: MIDCAF_clean_sbu_0, # of connection points: 6
#     Node 10, Type 1, BuildingBlock: MIDCAF_clean_sbu_0, # of connection points: 6
#     Node 11, Type 1, BuildingBlock: MIDCAF_clean_sbu_0, # of connection points: 6
#     Edge 12, Type (0, 1), BuildingBlock: EZIPEK_clean_linker_0, # of connection points: 2
#     Edge 13, Type (0, 1), BuildingBlock: EZIPEK_clean_linker_0, # of connection points: 2
#     Edge 14, Type (0, 1), BuildingBlock: EZIPEK_clean_linker_0, # of connection points: 2
#     Edge 15, Type (0, 1), BuildingBlock: EZIPEK_clean_linker_0, # of connection points: 2
#     Edge 16, Type (0, 1), BuildingBlock: EZIPEK_clean_linker_0, # of connection points: 2
#     Edge 17, Type (0, 1), BuildingBlock: EZIPEK_clean_linker_0, # of connection points: 2
#     Edge 18, Type (0, 1), BuildingBlock: EZIPEK_clean_linker_0, # of connection points: 2
#     Edge 19, Type (0, 1), BuildingBlock: EZIPEK_clean_linker_0, # of connection points: 2
#     Edge 20, Type (0, 1), BuildingBlock: EZIPEK_clean_linker_0, # of connection points: 2
#     Edge 21, Type (0, 1), BuildingBlock: EZIPEK_clean_linker_0, # of connection points: 2
#     Edge 22, Type (0, 1), BuildingBlock: EZIPEK_clean_linker_0, # of connection points: 2
#     Edge 23, Type (0, 1), BuildingBlock: EZIPEK_clean_linker_0, # of connection points: 2
#     Edge 24, Type (0, 1), BuildingBlock: EZIPEK_clean_linker_0, # of connection points: 2
#     Edge 25, Type (0, 1), BuildingBlock: EZIPEK_clean_linker_0, # of connection points: 2
#     Edge 26, Type (0, 1), BuildingBlock: EZIPEK_clean_linker_0, # of connection points: 2
#     Edge 27, Type (0, 1), BuildingBlock: EZIPEK_clean_linker_0, # of connection points: 2
#     Edge 28, Type (0, 1), BuildingBlock: EZIPEK_clean_linker_0, # of connection points: 2
#     Edge 29, Type (0, 1), BuildingBlock: EZIPEK_clean_linker_0, # of connection points: 2
#     Edge 30, Type (0, 1), BuildingBlock: EZIPEK_clean_linker_0, # of connection points: 2
#     Edge 31, Type (0, 1), BuildingBlock: EZIPEK_clean_linker_0, # of connection points: 2
#     Edge 32, Type (0, 1), BuildingBlock: EZIPEK_clean_linker_0, # of connection points: 2
#     Edge 33, Type (0, 1), BuildingBlock: EZIPEK_clean_linker_0, # of connection points: 2
#     Edge 34, Type (0, 1), BuildingBlock: EZIPEK_clean_linker_0, # of connection points: 2
#     Edge 35, Type (0, 1), BuildingBlock: EZIPEK_clean_linker_0, # of connection points: 2
# Relax obj value: 0.103
# Max RMSD: 0.160
# Mean RMSD: 0.105
data_MOF--net-ant--node1-MIDCAF_clean_sbu_0--node2-KAKCAD_clean_linker_0--edge1-EZIPEK_clean_linker_0
_symmetry_space_group_name_H-M    P1
_symmetry_Int_Tables_number       1
_symmetry_cell_setting            triclinic
loop_
_symmetry_equiv_pos_as_xyz
'x, y, z'
_cell_length_a     26.660789
_cell_length_b     26.644391
_cell_length_c     73.183892
_cell_angle_alpha  90.413111
_cell_angle_beta   93.738227
_cell_angle_gamma 90.019705
loop_
_atom_site_label
_atom_site_type_symbol
_atom_site_fract_x
_atom_site_fract_y
_atom_site_fract_z
_atom_type_partial_charge
C0 C 0.10913 0.15371 -0.00035 0.0
C1 C 0.12055 0.18233 0.98448 0.0
C2 C 0.12972 0.16663 0.01714 0.0
C3 C 0.16218 0.20826 0.01969 0.0
C4 C 0.17367 0.23646 0.00436 0.0
C5 C 0.15303 0.22359 0.98694 0.0
C6 C 0.18464 0.22176 0.03823 0.0
C7 C 0.20235 0.18403 0.05018 0.0
C8 C 0.22371 0.19566 0.06773 0.0
C9 C 0.22801 0.2462 0.07333 0.0
C10 C 0.20978 0.28491 0.06158 0.0
C11 C 0.18859 0.2721 0.04402 0.0
C12 C 0.21125 0.33859 0.06766 0.0
C13 C 0.1703 0.37066 0.06316 0.0
C14 C 0.25336 0.35838 0.07788 0.0
C15 C 0.25432 0.4088 0.08351 0.0
C16 C 0.21322 0.44034 0.07906 0.0
C17 C 0.23963 0.1537 0.07999 0.0
C18 C 0.28951 0.1493 0.08734 0.0
C19 C 0.20579 0.11427 0.08242 0.0
C20 C 0.22201 0.07012 0.09098 0.0
C21 C 0.27242 0.06431 0.09729 0.0
C22 C 0.3059 0.10469 0.09596 0.0
C23 C 0.17134 0.42098 0.06877 0.0
H24 H 0.0839 0.1219 -0.00204 0.0
H25 H 0.11968 0.14444 0.02869 0.0
H26 H 0.19908 0.26817 0.00579 0.0
H27 H 0.1622 0.24604 0.97533 0.0
H28 H 0.20026 0.14513 0.04573 0.0
H29 H 0.17478 0.30143 0.03483 0.0
H30 H 0.24364 0.25508 0.08701 0.0
H31 H 0.1369 0.35665 0.05558 0.0
H32 H 0.28571 0.335 0.08142 0.0
H33 H 0.28691 0.4231 0.09152 0.0
H34 H 0.31632 0.17913 0.08554 0.0
H35 H 0.16708 0.11687 0.077 0.0
H36 H 0.1391 0.44465 0.06536 0.0
H37 H 0.34493 0.10084 0.10084 0.0
H38 H 0.19558 0.03952 0.09201 0.0
C39 C 0.10636 0.73842 0.23746 0.0
C40 C 0.07489 0.76403 0.22462 0.0
C41 C 0.09927 0.74282 0.25607 0.0
C42 C 0.06077 0.77336 0.26225 0.0
C43 C 0.02771 0.79727 0.24927 0.0
C44 C 0.03462 0.79245 0.23053 0.0
C45 C 0.05678 0.78116 0.28221 0.0
C46 C 0.10047 0.78755 0.29371 0.0
C47 C 0.09836 0.79197 0.31275 0.0
C48 C 0.0512 0.79182 0.32034 0.0
C49 C 0.00675 0.78552 0.30896 0.0
C50 C 0.01005 0.78059 0.28991 0.0
C51 C 0.95677 0.78211 0.31677 0.0
C52 C 0.92188 0.7453 0.3103 0.0
C53 C 0.94305 0.81604 0.33036 0.0
C54 C 0.89531 0.81348 0.3372 0.0
C55 C 0.86075 0.7768 0.33064 0.0
C56 C 0.14633 0.79377 0.3243 0.0
C57 C 0.18453 0.75928 0.32084 0.0
C58 C 0.15614 0.83152 0.3376 0.0
C59 C 0.20417 0.83594 0.34662 0.0
C60 C 0.24259 0.80239 0.34249 0.0
C61 C 0.23206 0.76361 0.3298 0.0
C62 C 0.87432 0.74263 0.31721 0.0
H63 H 0.13728 0.7159 0.23308 0.0
H64 H 0.1245 0.7228 0.26566 0.0
H65 H 0.9977 0.82102 0.25362 0.0
H66 H 0.00985 0.81221 0.22071 0.0
H67 H 0.1367 0.78902 0.28781 0.0
H68 H 0.97617 0.77549 0.28108 0.0
H69 H 0.04929 0.79434 0.33507 0.0
H70 H 0.93157 0.71816 0.30003 0.0
H71 H 0.96893 0.84496 0.3355 0.0
H72 H 0.88537 0.8399 0.34769 0.0
H73 H 0.1779 0.72942 0.31084 0.0
H74 H 0.12741 0.85866 0.34047 0.0
H75 H 0.84818 0.71381 0.31216 0.0
H76 H 0.26113 0.73719 0.32655 0.0
H77 H 0.21171 0.86603 0.35644 0.0
C78 C 0.616 0.64939 0.5021 0.0
C79 C 0.62788 0.6806 0.48769 0.0
C80 C 0.63442 0.66057 0.52 0.0
C81 C 0.66547 0.70279 0.5237 0.0
C82 C 0.67689 0.73399 0.50915 0.0
C83 C 0.65823 0.72297 0.49132 0.0
C84 C 0.68756 0.71311 0.54253 0.0
C85 C 0.7052 0.67327 0.55357 0.0
C86 C 0.7265 0.68179 0.57135 0.0
C87 C 0.73068 0.73113 0.57812 0.0
C88 C 0.7133 0.77172 0.56723 0.0
C89 C 0.69197 0.76242 0.54945 0.0
C90 C 0.71652 0.82371 0.57461 0.0
C91 C 0.69845 0.83487 0.59167 0.0
C92 C 0.73586 0.86284 0.56448 0.0
C93 C 0.74109 0.91117 0.57203 0.0
C94 C 0.72945 0.92152 0.59031 0.0
C95 C 0.74352 0.63823 0.58257 0.0
C96 C 0.79277 0.6355 0.59069 0.0
C97 C 0.71138 0.5968 0.58371 0.0
C98 C 0.72873 0.55261 0.59192 0.0
C99 C 0.77854 0.54884 0.59915 0.0
C100 C 0.81031 0.59084 0.59892 0.0
C101 C 0.70291 0.88329 0.59902 0.0
H102 H 0.59261 0.61654 0.49948 0.0
H103 H 0.62435 0.63613 0.53094 0.0
H104 H 0.70126 0.76626 0.51144 0.0
H105 H 0.66791 0.74727 0.48027 0.0
H106 H 0.7034 0.63525 0.54818 0.0
H107 H 0.67763 0.79352 0.5412 0.0
H108 H 0.74708 0.73788 0.59186 0.0
H109 H 0.67979 0.80624 0.5992 0.0
H110 H 0.74754 0.856 0.55078 0.0
H111 H 0.75399 0.94016 0.56323 0.0
H112 H 0.81826 0.66696 0.5899 0.0
H113 H 0.67313 0.59813 0.57774 0.0
H114 H 0.68404 0.88969 0.61138 0.0
H115 H 0.84886 0.58844 0.60449 0.0
H116 H 0.70366 0.5206 0.59209 0.0
C117 C 0.60753 0.25827 0.73901 0.0
C118 C 0.57366 0.27737 0.72538 0.0
C119 C 0.60003 0.2667 0.75743 0.0
C120 C 0.55855 0.29474 0.76263 0.0
C121 C 0.52366 0.31261 0.74891 0.0
C122 C 0.53112 0.30387 0.73037 0.0
C123 C 0.55248 0.30506 0.78236 0.0
C124 C 0.59468 0.31682 0.7941 0.0
C125 C 0.59071 0.32186 0.81301 0.0
C126 C 0.54363 0.31639 0.8203 0.0
C127 C 0.50049 0.30619 0.80867 0.0
C128 C 0.50538 0.30058 0.78973 0.0
C129 C 0.45045 0.30011 0.81624 0.0
C130 C 0.41806 0.26091 0.81004 0.0
C131 C 0.43436 0.33383 0.82952 0.0
C132 C 0.38688 0.32859 0.83636 0.0
C133 C 0.35488 0.28942 0.83014 0.0
C134 C 0.63735 0.32763 0.82489 0.0
C135 C 0.6657 0.37203 0.8245 0.0
C136 C 0.65812 0.28555 0.83395 0.0
C137 C 0.70784 0.28659 0.84131 0.0
C138 C 0.73737 0.32987 0.83986 0.0
C139 C 0.71517 0.37343 0.83223 0.0
C140 C 0.37072 0.25556 0.81696 0.0
H141 H 0.64034 0.2374 0.73536 0.0
H142 H 0.62688 0.25125 0.76762 0.0
H143 H 0.49136 0.33434 0.75248 0.0
H144 H 0.50457 0.31872 0.71995 0.0
H145 H 0.63129 0.32065 0.78861 0.0
H146 H 0.47259 0.29177 0.78074 0.0
H147 H 0.54085 0.31908 0.83498 0.0
H148 H 0.4296 0.23394 0.8 0.0
H149 H 0.45822 0.36463 0.83443 0.0
H150 H 0.37517 0.35492 0.8466 0.0
H151 H 0.65045 0.40471 0.81739 0.0
H152 H 0.63707 0.25079 0.83419 0.0
H153 H 0.34661 0.22486 0.81215 0.0
H154 H 0.73728 0.40723 0.83107 0.0
H155 H 0.7242 0.25268 0.84721 0.0
C156 C 0.10773 0.72725 0.00144 0.0
C157 C 0.14069 0.68676 0.00455 0.0
C158 C 0.0873 0.73735 0.98382 0.0
C159 C 0.0995 0.70706 0.96896 0.0
C160 C 0.13267 0.66638 0.97216 0.0
C161 C 0.15304 0.65623 0.98985 0.0
C162 C 0.07677 0.71714 0.95028 0.0
C163 C 0.07154 0.76645 0.94369 0.0
C164 C 0.05039 0.77556 0.92592 0.0
C165 C 0.03375 0.73477 0.91476 0.0
C166 C 0.03866 0.68544 0.92122 0.0
C167 C 0.05998 0.67709 0.93896 0.0
C168 C 0.02248 0.64174 0.90968 0.0
C169 C 0.97326 0.63811 0.90157 0.0
C170 C 0.05539 0.601 0.90824 0.0
C171 C 0.03879 0.55653 0.89978 0.0
C172 C 0.98898 0.55179 0.89261 0.0
C173 C 0.04713 0.82748 0.91876 0.0
C174 C 0.02736 0.86664 0.92896 0.0
C175 C 0.06585 0.83859 0.90186 0.0
C176 C 0.06151 0.88692 0.8947 0.0
C177 C 0.0344 0.92509 0.9034 0.0
C178 C 0.02225 0.91491 0.92158 0.0
C179 C 0.95648 0.59317 0.8931 0.0
H180 H 0.09789 0.75113 0.01271 0.0
H181 H 0.06137 0.76844 0.98188 0.0
H182 H 0.14328 0.64269 0.96097 0.0
H183 H 0.17866 0.625 0.99206 0.0
H184 H 0.08536 0.79769 0.95215 0.0
H185 H 0.06264 0.63904 0.9441 0.0
H186 H 0.01749 0.74137 0.90103 0.0
H187 H 0.9472 0.66902 0.90258 0.0
H188 H 0.09363 0.60304 0.9142 0.0
H189 H 0.06439 0.525 0.89942 0.0
H190 H 0.01531 0.85988 0.94258 0.0
H191 H 0.08493 0.81001 0.89432 0.0
H192 H 0.9179 0.59 0.8876 0.0
H193 H 0.00919 0.94392 0.93047 0.0
H194 H 0.0808 0.89337 0.88246 0.0
C195 C 0.73052 0.78663 0.26193 0.0
C196 C 0.69201 0.75427 0.2667 0.0
C197 C 0.73943 0.79373 0.24346 0.0
C198 C 0.70988 0.76853 0.22963 0.0
C199 C 0.67359 0.73384 0.23466 0.0
C200 C 0.66465 0.72695 0.25301 0.0
C201 C 0.71379 0.78078 0.21001 0.0
C202 C 0.76059 0.78537 0.20249 0.0
C203 C 0.76385 0.79639 0.18379 0.0
C204 C 0.71902 0.80293 0.17263 0.0
C205 C 0.67184 0.79779 0.18 0.0
C206 C 0.66987 0.78749 0.1987 0.0
C207 C 0.62386 0.80152 0.16849 0.0
C208 C 0.61377 0.84219 0.15664 0.0
C209 C 0.58596 0.76563 0.17052 0.0
C210 C 0.53845 0.77137 0.16166 0.0
C211 C 0.52766 0.81295 0.1505 0.0
C212 C 0.81412 0.79887 0.17597 0.0
C213 C 0.85583 0.81957 0.18623 0.0
C214 C 0.82139 0.77861 0.15852 0.0
C215 C 0.86905 0.77883 0.15158 0.0
C216 C 0.91045 0.79906 0.16195 0.0
C217 C 0.90356 0.81934 0.17933 0.0
C218 C 0.56583 0.84795 0.14771 0.0
H219 H 0.75185 0.80808 0.27239 0.0
H220 H 0.76759 0.82072 0.23998 0.0
H221 H 0.65099 0.71309 0.22434 0.0
H222 H 0.63492 0.70171 0.25651 0.0
H223 H 0.79443 0.77859 0.21113 0.0
H224 H 0.63362 0.78513 0.20455 0.0
H225 H 0.72069 0.81128 0.15822 0.0
H226 H 0.6422 0.87048 0.15487 0.0
H227 H 0.59278 0.7335 0.17932 0.0
H228 H 0.5096 0.74379 0.16384 0.0
H229 H 0.85164 0.83611 0.1996 0.0
H230 H 0.79053 0.76155 0.15037 0.0
H231 H 0.5581 0.88022 0.13906 0.0
H232 H 0.93511 0.83516 0.18751 0.0
H233 H 0.87376 0.76285 0.13815 0.0
C234 C 0.61738 0.2152 0.50456 0.0
C235 C 0.64969 0.17395 0.50707 0.0
C236 C 0.59714 0.22754 0.4871 0.0
C237 C 0.60889 0.19882 0.47177 0.0
C238 C 0.64142 0.15738 0.47438 0.0
C239 C 0.66156 0.14495 0.49191 0.0
C240 C 0.58602 0.21121 0.45325 0.0
C241 C 0.5806 0.26128 0.44751 0.0
C242 C 0.55789 0.27301 0.43013 0.0
C243 C 0.54062 0.23346 0.41839 0.0
C244 C 0.5466 0.18323 0.42388 0.0
C245 C 0.56885 0.17268 0.44133 0.0
C246 C 0.53068 0.14058 0.4117 0.0
C247 C 0.56445 0.10098 0.40935 0.0
C248 C 0.48093 0.13608 0.40417 0.0
C249 C 0.46462 0.09127 0.39544 0.0
C250 C 0.49802 0.05079 0.39417 0.0
C251 C 0.55351 0.3265 0.42427 0.0
C252 C 0.54112 0.36433 0.43677 0.0
C253 C 0.56324 0.34049 0.40633 0.0
C254 C 0.56093 0.39091 0.40108 0.0
C255 C 0.54876 0.42837 0.41362 0.0
C256 C 0.53889 0.41475 0.43151 0.0
C257 C 0.54828 0.05662 0.40069 0.0
H258 H 0.60786 0.23794 0.51617 0.0
H259 H 0.57166 0.25912 0.48565 0.0
H260 H 0.6517 0.1348 0.46284 0.0
H261 H 0.68667 0.11315 0.49364 0.0
H262 H 0.5953 0.29117 0.45644 0.0
H263 H 0.57185 0.134 0.44577 0.0
H264 H 0.52299 0.24159 0.40498 0.0
H265 H 0.60309 0.10366 0.41487 0.0
H266 H 0.45417 0.16605 0.40588 0.0
H267 H 0.42571 0.08741 0.39038 0.0
H268 H 0.53281 0.35495 0.45063 0.0
H269 H 0.5736 0.31259 0.39643 0.0
H270 H 0.57466 0.02592 0.3997 0.0
H271 H 0.52928 0.44315 0.44135 0.0
H272 H 0.56876 0.40078 0.38721 0.0
C273 C 0.23317 0.29765 0.7615 0.0
C274 C 0.1983 0.26185 0.76669 0.0
C275 C 0.24239 0.30315 0.743 0.0
C276 C 0.21646 0.27316 0.72959 0.0
C277 C 0.18412 0.23529 0.73507 0.0
C278 C 0.17518 0.22968 0.75347 0.0
C279 C 0.21929 0.28384 0.70987 0.0
C280 C 0.26562 0.28902 0.70213 0.0
C281 C 0.2679 0.29817 0.68327 0.0
C282 C 0.22265 0.30278 0.67223 0.0
C283 C 0.17593 0.29727 0.67988 0.0
C284 C 0.17484 0.28826 0.69871 0.0
C285 C 0.12763 0.29948 0.66856 0.0
C286 C 0.11661 0.3392 0.65637 0.0
C287 C 0.09039 0.26327 0.6711 0.0
C288 C 0.04254 0.2679 0.66244 0.0
C289 C 0.0308 0.30866 0.65097 0.0
C290 C 0.31765 0.30013 0.67517 0.0
C291 C 0.3593 0.32279 0.68481 0.0
C292 C 0.32463 0.27688 0.6582 0.0
C293 C 0.37211 0.27581 0.65117 0.0
C294 C 0.41351 0.29778 0.66098 0.0
C295 C 0.40686 0.32134 0.67784 0.0
C296 C 0.06834 0.34383 0.64763 0.0
H297 H 0.25103 0.32293 0.7716 0.0
H298 H 0.26745 0.33262 0.73908 0.0
H299 H 0.16428 0.21124 0.72501 0.0
H300 H 0.1481 0.20195 0.7573 0.0
H301 H 0.29986 0.28397 0.71074 0.0
H302 H 0.13896 0.28518 0.7048 0.0
H303 H 0.22369 0.30979 0.6577 0.0
H304 H 0.14455 0.36769 0.6542 0.0
H305 H 0.09797 0.23184 0.68018 0.0
H306 H 0.01412 0.24022 0.66505 0.0
H307 H 0.35521 0.34157 0.6978 0.0
H308 H 0.29372 0.25829 0.65056 0.0
H309 H 0.05982 0.37546 0.63875 0.0
H310 H 0.43848 0.33852 0.68556 0.0
H311 H 0.37672 0.25734 0.63815 0.0
Zn312 Zn 0.25906 0.69452 0.14408 0.0
Zn313 Zn 0.15298 0.81554 0.09611 0.0
Zn314 Zn 0.20969 0.75573 0.11877 0.0
C315 C 0.17998 0.7282 0.07696 0.0
C316 C 0.24211 0.86715 0.10834 0.0
O317 O 0.16714 0.75111 0.14316 0.0
O318 O 0.21394 0.7099 0.16423 0.0
C319 C 0.22894 0.63703 0.11246 0.0
O320 O 0.19858 0.71461 0.09281 0.0
O321 O 0.15976 0.77072 0.07466 0.0
O322 O 0.19973 0.87317 0.0999 0.0
O323 O 0.25446 0.8246 0.11556 0.0
O324 O 0.24632 0.63261 0.12886 0.0
O325 O 0.21603 0.68042 0.10604 0.0
O326 O 0.2845 0.78947 0.12513 0.0
O327 O 0.32367 0.73214 0.14267 0.0
C328 C 0.32435 0.77299 0.13402 0.0
O329 O 0.13636 0.7748 0.12996 0.0
O330 O 0.0895 0.81597 0.10895 0.0
C331 C 0.17478 0.73454 0.15957 0.0
C332 C 0.09445 0.79574 0.1245 0.0
Zn333 Zn 0.50858 0.67776 0.34825 0.0
Zn334 Zn 0.61713 0.80186 0.39498 0.0
Zn335 Zn 0.56012 0.74091 0.37288 0.0
C336 C 0.52917 0.85375 0.38286 0.0
C337 C 0.67532 0.77769 0.36677 0.0
O338 O 0.55223 0.66688 0.38608 0.0
O339 O 0.51863 0.61724 0.36406 0.0
C340 C 0.4452 0.75853 0.35826 0.0
O341 O 0.51626 0.81053 0.3761 0.0
O342 O 0.57196 0.86035 0.39096 0.0
O343 O 0.68052 0.79868 0.38228 0.0
O344 O 0.63313 0.75735 0.3612 0.0
O345 O 0.44499 0.7172 0.34968 0.0
O346 O 0.48553 0.77495 0.36696 0.0
O347 O 0.60076 0.73527 0.34794 0.0
O348 O 0.55335 0.69072 0.32778 0.0
C349 C 0.59241 0.71639 0.3318 0.0
O350 O 0.57326 0.70124 0.3989 0.0
O351 O 0.61089 0.75942 0.41678 0.0
C352 C 0.53714 0.62325 0.38027 0.0
C353 C 0.59191 0.7162 0.41465 0.0
Zn354 Zn 0.6596 0.30084 0.59658 0.0
Zn355 Zn 0.7612 0.19262 0.64869 0.0
Zn356 Zn 0.7133 0.24314 0.62075 0.0
C357 C 0.82746 0.26554 0.63717 0.0
C358 C 0.73624 0.12573 0.61858 0.0
O359 O 0.63909 0.26462 0.63046 0.0
O360 O 0.59442 0.30329 0.6082 0.0
C361 C 0.74743 0.35286 0.60881 0.0
O362 O 0.78828 0.2777 0.62691 0.0
O363 O 0.82629 0.22877 0.64792 0.0
O364 O 0.75273 0.1278 0.63517 0.0
O365 O 0.72149 0.16588 0.61011 0.0
O366 O 0.70574 0.35899 0.59992 0.0
O367 O 0.75844 0.3108 0.61662 0.0
O368 O 0.70418 0.19743 0.59563 0.0
O369 O 0.66909 0.25304 0.57633 0.0
C370 C 0.68785 0.21018 0.57939 0.0
O371 O 0.66812 0.24386 0.6448 0.0
O372 O 0.71416 0.21041 0.66787 0.0
C373 C 0.59782 0.28519 0.62411 0.0
C374 C 0.67455 0.23225 0.66183 0.0
Zn375 Zn 1.00394 0.19078 0.84374 0.0
Zn376 Zn 0.10858 0.30295 0.89384 0.0
Zn377 Zn 0.05305 0.24417 0.8705 0.0
C378 C 0.07899 0.2154 0.91209 0.0
C379 C 0.02128 0.35552 0.88182 0.0
O380 O 0.09751 0.2415 0.84636 0.0
O381 O 0.05028 0.20464 0.82413 0.0
C382 C 0.02783 0.12713 0.87415 0.0
O383 O 0.06197 0.20117 0.89602 0.0
O384 O 0.09854 0.25822 0.9147 0.0
O385 O 0.06374 0.36188 0.89019 0.0
O386 O 0.00904 0.31288 0.87443 0.0
O387 O 0.01046 0.12736 0.85766 0.0
O388 O 0.04381 0.16809 0.88201 0.0
O389 O 0.97898 0.28039 0.86362 0.0
O390 O 0.93999 0.22856 0.84359 0.0
C391 C 0.93969 0.26762 0.85344 0.0
O392 O 0.12797 0.26224 0.86037 0.0
O393 O 0.17399 0.30165 0.88233 0.0
C394 C 0.09037 0.22676 0.82961 0.0
C395 C 0.16988 0.28212 0.86656 0.0
C396 C 0.24066 0.53085 0.07762 0.0
C397 C 0.21289 0.49298 0.0861 0.0
C398 C 0.18475 0.55503 0.1081 0.0
C399 C 0.2188 0.59052 0.10155 0.0
N400 N 0.28069 0.61277 0.08046 0.0
N401 N 0.16152 0.46757 0.11039 0.0
C402 C 0.24672 0.5789 0.08623 0.0
C403 C 0.18536 0.50478 0.10152 0.0
N404 N 0.26061 0.52096 0.06124 0.0
N405 N 0.151 0.56986 0.12036 0.0
H406 H 0.16074 0.43025 0.10599 0.0
H407 H 0.14586 0.47287 0.12293 0.0
H408 H 0.14889 0.60674 0.12515 0.0
H409 H 0.12187 0.54714 0.12431 0.0
H410 H 0.27684 0.54825 0.0534 0.0
H411 H 0.25719 0.48605 0.05473 0.0
H412 H 0.30618 0.60466 0.07067 0.0
H413 H 0.28551 0.6484 0.0863 0.0
C414 C 0.80613 0.74268 0.35424 0.0
C415 C 0.81105 0.77278 0.33854 0.0
C416 C 0.72453 0.80299 0.34019 0.0
C417 C 0.71971 0.7727 0.35583 0.0
N418 N 0.75017 0.7048 0.37506 0.0
N419 N 0.77278 0.82292 0.31416 0.0
C420 C 0.75883 0.73977 0.36203 0.0
C421 C 0.76942 0.80016 0.33072 0.0
N422 N 0.8471 0.71807 0.362 0.0
N423 N 0.68705 0.8358 0.33487 0.0
H424 H 0.80544 0.82227 0.30705 0.0
H425 H 0.74226 0.839 0.30678 0.0
H426 H 0.6532 0.83783 0.34124 0.0
H427 H 0.69029 0.86279 0.32481 0.0
H428 H 0.84754 0.70056 0.37468 0.0
H429 H 0.88197 0.71774 0.35631 0.0
H430 H 0.77531 0.67626 0.37885 0.0
H431 H 0.7157 0.70137 0.38093 0.0
C432 C 0.78207 0.48289 0.62304 0.0
C433 C 0.79636 0.49905 0.60576 0.0
C434 C 0.80731 0.41185 0.59615 0.0
C435 C 0.78073 0.39686 0.61123 0.0
N436 N 0.75103 0.41407 0.64089 0.0
N437 N 0.83138 0.48081 0.57699 0.0
C438 C 0.77217 0.43105 0.62559 0.0
C439 C 0.81332 0.46396 0.59287 0.0
N440 N 0.77605 0.51768 0.6365 0.0
N441 N 0.82467 0.37594 0.58476 0.0
H442 H 0.83738 0.51886 0.57465 0.0
H443 H 0.83963 0.45767 0.56608 0.0
H444 H 0.81996 0.33774 0.5873 0.0
H445 H 0.8467 0.38344 0.57388 0.0
H446 H 0.76771 0.50888 0.64979 0.0
H447 H 0.78325 0.55573 0.63455 0.0
H448 H 0.73902 0.43716 0.65125 0.0
H449 H 0.74498 0.37592 0.64303 0.0
C450 C 0.81084 0.3184 0.86287 0.0
C451 C 0.79261 0.32698 0.84448 0.0
C452 C 0.87836 0.31832 0.83468 0.0
C453 C 0.89384 0.29908 0.85208 0.0
N454 N 0.87591 0.28096 0.88318 0.0
N455 N 0.80896 0.33096 0.81234 0.0
C456 C 0.86074 0.30016 0.86647 0.0
C457 C 0.8265 0.32691 0.83025 0.0
N458 N 0.78028 0.32759 0.87678 0.0
N459 N 0.91345 0.32759 0.82233 0.0
H460 H 0.77114 0.33556 0.80821 0.0
H461 H 0.83149 0.32535 0.8014 0.0
H462 H 0.95179 0.32168 0.82542 0.0
H463 H 0.90522 0.34587 0.80997 0.0
H464 H 0.79255 0.32625 0.89057 0.0
H465 H 0.74371 0.34114 0.87444 0.0
H466 H 0.85178 0.27527 0.8936 0.0
H467 H 0.91243 0.26827 0.88632 0.0
C468 C 0.95633 0.4665 0.89909 0.0
C469 C 0.9717 0.50148 0.88604 0.0
C470 C 0.99384 0.43316 0.86561 0.0
C471 C 0.98761 0.39932 0.8801 0.0
N472 N 0.94826 0.37862 0.90752 0.0
N473 N 0.9899 0.51987 0.85515 0.0
C474 C 0.963 0.41441 0.89572 0.0
C475 C 0.98457 0.48512 0.86851 0.0
N476 N 0.93912 0.48362 0.91518 0.0
N477 N 0.01174 0.41556 0.84971 0.0
H478 H 0.98285 0.55792 0.85733 0.0
H479 H 0.99817 0.51123 0.8418 0.0
H480 H 0.01713 0.37728 0.8474 0.0
H481 H 0.02101 0.43806 0.83889 0.0
H482 H 0.93168 0.4608 0.92614 0.0
H483 H 0.93265 0.52163 0.91759 0.0
H484 H 0.92796 0.386 0.91889 0.0
H485 H 0.95371 0.34044 0.90501 0.0
C486 C 0.9825 0.84423 0.1486 0.0
C487 C 0.96102 0.79881 0.15445 0.0
C488 C 0.02899 0.75079 0.14157 0.0
C489 C 0.05145 0.79638 0.13637 0.0
N490 N 0.05724 0.88635 0.13934 0.0
N491 N 0.97039 0.71055 0.16081 0.0
C492 C 0.03056 0.84311 0.14128 0.0
C493 C 0.98646 0.75257 0.15232 0.0
N494 N 0.95608 0.8881 0.14921 0.0
N495 N 0.04638 0.70586 0.13544 0.0
H496 H 0.93964 0.71072 0.16892 0.0
H497 H 0.99033 0.67693 0.16125 0.0
H498 H 0.07706 0.70273 0.12738 0.0
H499 H 0.02798 0.67189 0.13714 0.0
H500 H 0.96752 0.9212 0.14323 0.0
H501 H 0.9206 0.89061 0.15436 0.0
H502 H 0.04615 0.92101 0.14436 0.0
H503 H 0.09308 0.88669 0.13439 0.0
C504 C 0.49867 0.50486 0.40374 0.0
C505 C 0.54609 0.48189 0.40783 0.0
C506 C 0.5888 0.55575 0.39628 0.0
C507 C 0.54138 0.57872 0.39231 0.0
N508 N 0.45268 0.58158 0.39643 0.0
N509 N 0.63609 0.4898 0.41232 0.0
C510 C 0.49677 0.55526 0.39743 0.0
C511 C 0.59115 0.50886 0.40551 0.0
N512 N 0.4555 0.47776 0.40502 0.0
N513 N 0.63126 0.57727 0.39031 0.0
H514 H 0.63903 0.45547 0.41908 0.0
H515 H 0.66966 0.50988 0.41275 0.0
H516 H 0.63112 0.61185 0.38372 0.0
H517 H 0.66611 0.55954 0.39087 0.0
H518 H 0.42017 0.49047 0.40022 0.0
H519 H 0.45523 0.44089 0.40969 0.0
H520 H 0.41965 0.56848 0.40157 0.0
H521 H 0.45044 0.61874 0.39202 0.0
C522 C 0.94276 0.33729 0.65455 0.0
C523 C 0.97798 0.31435 0.64343 0.0
C524 C 0.90911 0.27989 0.62331 0.0
C525 C 0.8752 0.29359 0.6366 0.0
N526 N 0.85647 0.34018 0.66351 0.0
N527 N 0.9963 0.26836 0.61628 0.0
C528 C 0.89094 0.3248 0.65163 0.0
C529 C 0.96152 0.28799 0.62724 0.0
N530 N 0.95936 0.37 0.66809 0.0
N531 N 0.89102 0.25814 0.60725 0.0
H532 H 0.0347 0.2756 0.61853 0.0
H533 H 0.98765 0.24392 0.60538 0.0
H534 H 0.85275 0.25167 0.60425 0.0
H535 H 0.91295 0.25027 0.59633 0.0
H536 H 0.93579 0.39079 0.67602 0.0
H537 H 0.99725 0.37932 0.67047 0.0
H538 H 0.86555 0.35854 0.67587 0.0
H539 H 0.81806 0.33324 0.66108 0.0
C540 C 0.48524 0.33942 0.64629 0.0
C541 C 0.46393 0.29562 0.65351 0.0
C542 C 0.53175 0.24453 0.64212 0.0
C543 C 0.55416 0.28867 0.63556 0.0
N544 N 0.56001 0.37898 0.63594 0.0
N545 N 0.47348 0.2092 0.66262 0.0
C546 C 0.53328 0.33645 0.63906 0.0
C547 C 0.48939 0.24898 0.65282 0.0
N548 N 0.45875 0.38336 0.64558 0.0
N549 N 0.54905 0.19829 0.63732 0.0
H550 H 0.44277 0.21138 0.67073 0.0
H551 H 0.49357 0.1758 0.66413 0.0
H552 H 0.57943 0.19317 0.62924 0.0
H553 H 0.53073 0.16495 0.64011 0.0
H554 H 0.47011 0.41488 0.63859 0.0
H555 H 0.42332 0.38718 0.65068 0.0
H556 H 0.54882 0.41465 0.63994 0.0
H557 H 0.59597 0.37813 0.63111 0.0
C558 C 0.4393 0.84193 0.1535 0.0
C559 C 0.47525 0.81943 0.14255 0.0
C560 C 0.40745 0.78748 0.12135 0.0
C561 C 0.3725 0.80071 0.13431 0.0
N562 N 0.35202 0.8455 0.16139 0.0
N563 N 0.49518 0.77523 0.1152 0.0
C564 C 0.38741 0.83052 0.14981 0.0
C565 C 0.45974 0.7945 0.12595 0.0
N566 N 0.45523 0.87323 0.16757 0.0
N567 N 0.3903 0.76741 0.10488 0.0
H568 H 0.53356 0.78167 0.11793 0.0
H569 H 0.48702 0.75181 0.10396 0.0
H570 H 0.35204 0.76218 0.1014 0.0
H571 H 0.41306 0.75987 0.09417 0.0
H572 H 0.43124 0.89365 0.17545 0.0
H573 H 0.49311 0.88176 0.1705 0.0
H574 H 0.36026 0.86279 0.17402 0.0
H575 H 0.31367 0.83936 0.15841 0.0
C576 C 0.30091 0.25048 0.85305 0.0
C577 C 0.30534 0.28308 0.83799 0.0
C578 C 0.21916 0.31294 0.84078 0.0
C579 C 0.21456 0.27975 0.85564 0.0
N580 N 0.24561 0.20889 0.87321 0.0
N581 N 0.26614 0.33666 0.81486 0.0
C582 C 0.25383 0.24598 0.86093 0.0
C583 C 0.26354 0.31159 0.831 0.0
N584 N 0.34219 0.2252 0.86021 0.0
N585 N 0.18199 0.34701 0.83651 0.0
H586 H 0.29828 0.33665 0.80745 0.0
H587 H 0.23531 0.35375 0.80801 0.0
H588 H 0.14853 0.34828 0.84314 0.0
H589 H 0.18534 0.37584 0.82714 0.0
H590 H 0.34293 0.20563 0.87249 0.0
H591 H 0.37703 0.22645 0.85452 0.0
H592 H 0.27085 0.17986 0.87624 0.0
H593 H 0.21143 0.20449 0.87921 0.0
C594 C 0.33129 0.83109 0.3403 0.0
C595 C 0.29494 0.80746 0.35066 0.0
C596 C 0.36213 0.77198 0.37107 0.0
C597 C 0.39733 0.78651 0.35844 0.0
N598 N 0.41851 0.83432 0.33235 0.0
N599 N 0.27425 0.7594 0.37683 0.0
C600 C 0.38296 0.81847 0.34365 0.0
C601 C 0.30999 0.78004 0.36663 0.0
N602 N 0.31589 0.86466 0.32707 0.0
N603 N 0.37891 0.74973 0.38709 0.0
H604 H 0.23595 0.76643 0.37423 0.0
H605 H 0.2821 0.73423 0.38744 0.0
H606 H 0.41709 0.74375 0.39047 0.0
H607 H 0.35597 0.74117 0.3976 0.0
H608 H 0.34026 0.88594 0.31973 0.0
H609 H 0.27815 0.87416 0.32444 0.0
H610 H 0.41045 0.85331 0.32014 0.0
H611 H 0.45673 0.82709 0.33508 0.0
C612 C 0.76981 0.01011 0.59105 0.0
C613 C 0.74013 0.97294 0.59923 0.0
C614 C 0.70869 0.037 0.61953 0.0
C615 C 0.73244 0.07521 0.60987 0.0
N616 N 0.78603 0.09839 0.58597 0.0
N617 N 0.72338 0.95374 0.63039 0.0
C618 C 0.76284 0.06193 0.59536 0.0
C619 C 0.72044 0.98638 0.61611 0.0
N620 N 0.81078 0.9955 0.5821 0.0
N621 N 0.67552 0.04879 0.63234 0.0
H622 H 0.74385 0.92042 0.62981 0.0
H623 H 0.71312 0.96359 0.64346 0.0
H624 H 0.66461 0.08564 0.63497 0.0
H625 H 0.6555 0.02127 0.63889 0.0
H626 H 0.83675 0.02043 0.57721 0.0
H627 H 0.8228 0.95822 0.58209 0.0
H628 H 0.80349 0.09128 0.57389 0.0
H629 H 0.78488 0.13623 0.58956 0.0
C630 C 0.27535 0.99849 0.12142 0.0
C631 C 0.28897 0.01396 0.10394 0.0
C632 C 0.30081 0.92617 0.09503 0.0
C633 C 0.27514 0.91159 0.11038 0.0
N634 N 0.24588 0.93026 0.13996 0.0
N635 N 0.32182 0.99401 0.07488 0.0
C636 C 0.2663 0.94663 0.12443 0.0
C637 C 0.30547 0.97817 0.09118 0.0
N638 N 0.26946 0.03387 0.13469 0.0
N639 N 0.3187 0.88986 0.08392 0.0
H640 H 0.32687 0.03187 0.07198 0.0
H641 H 0.3292 0.97009 0.06408 0.0
H642 H 0.31496 0.85177 0.08684 0.0
H643 H 0.34048 0.89712 0.07294 0.0
H644 H 0.26181 0.0256 0.1481 0.0
H645 H 0.27612 0.0719 0.13247 0.0
H646 H 0.23357 0.95381 0.15014 0.0
H647 H 0.24069 0.89213 0.14244 0.0
C648 C 0.46438 0.96484 0.39979 0.0
C649 C 0.48156 1.00041 0.38725 0.0
C650 C 0.50567 0.93278 0.36683 0.0
C651 C 0.49615 0.89804 0.38072 0.0
N652 N 0.45087 0.87664 0.4067 0.0
N653 N 0.50263 0.01976 0.35673 0.0
C654 C 0.46942 0.91278 0.39586 0.0
C655 C 0.49617 0.98464 0.36987 0.0
N656 N 0.44703 0.98097 0.41597 0.0
N657 N 0.52707 0.91617 0.35145 0.0
H658 H 0.49565 0.05779 0.359 0.0
H659 H 0.51106 0.01124 0.34339 0.0
H660 H 0.53268 0.878 0.34894 0.0
H661 H 0.53977 0.93955 0.34141 0.0
H662 H 0.43908 0.95724 0.42664 0.0
H663 H 0.44169 0.01888 0.41891 0.0
H664 H 0.42834 0.88406 0.41749 0.0
H665 H 0.45486 0.83849 0.40372 0.0
C666 C 0.04256 0.98813 0.87735 0.0
C667 C 0.02388 0.97619 0.89448 0.0
C668 C 1.00271 0.06581 0.89816 0.0
C669 C 0.0321 0.07754 0.88327 0.0
N670 N 0.08731 0.04864 0.86049 0.0
N671 N 0.95459 1.00112 0.91204 0.0
C672 C 0.05477 0.03829 0.87362 0.0
C673 C 0.99531 0.0144 0.90277 0.0
N674 N 0.03848 0.95441 0.86324 0.0
N675 N 0.98081 0.10332 0.90762 0.0
H676 H 0.94166 0.96415 0.91208 0.0
H677 H 0.92945 0.02685 0.91709 0.0
H678 H 0.98247 0.14088 0.90387 0.0
H679 H 0.96407 0.09738 0.9199 0.0
H680 H 0.04788 0.96321 0.85002 0.0
H681 H 0.01824 0.92106 0.8642 0.0
H682 H 0.10655 0.02036 0.85391 0.0
H683 H 0.09857 0.08514 0.85763 0.0
C684 C 0.05193 0.19454 0.95992 0.0
C685 C 0.09784 0.17112 0.96585 0.0
C686 C 0.11628 0.15349 0.93412 0.0
C687 C 0.07489 0.18389 0.92837 0.0
N688 N 0.99483 0.21905 0.93418 0.0
N689 N 0.16564 0.11552 0.95958 0.0
C690 C 0.03936 0.1988 0.94083 0.0
C691 C 0.12704 0.14566 0.95319 0.0
N692 N 0.02253 0.21563 0.97252 0.0
N693 N 0.14674 0.13535 0.9213 0.0
H694 H 0.17364 0.10958 0.97355 0.0
H695 H 0.18742 0.09391 0.95125 0.0
H696 H 0.13775 0.13961 0.9073 0.0
H697 H 0.18047 0.11669 0.92436 0.0
H698 H 0.99122 0.23783 0.9692 0.0
H699 H 0.03032 0.21176 0.9866 0.0
H700 H 0.96544 0.22844 0.94223 0.0
H701 H 0.98609 0.22287 0.92014 0.0
C702 C 0.07965 0.71673 0.1953 0.0
C703 C 0.08705 0.76233 0.20516 0.0
C704 C 0.13745 0.79498 0.18109 0.0
C705 C 0.13845 0.74604 0.17338 0.0
N706 N 0.10836 0.6608 0.17181 0.0
N707 N 0.12246 0.84564 0.20779 0.0
C708 C 0.10833 0.70713 0.17996 0.0
C709 C 0.11473 0.80223 0.19792 0.0
N710 N 0.04529 0.68287 0.20079 0.0
N711 N 0.15909 0.83419 0.17256 0.0
H712 H 0.10573 0.8529 0.22001 0.0
H713 H 0.14771 0.87341 0.20446 0.0
H714 H 0.17823 0.83 0.16068 0.0
H715 H 0.15462 0.87155 0.17639 0.0
H716 H 0.03503 0.65034 0.19353 0.0
H717 H 0.02364 0.68977 0.21192 0.0
H718 H 0.09163 0.6292 0.17706 0.0
H719 H 0.12685 0.65352 0.15993 0.0
C720 C 0.6453 0.65124 0.45637 0.0
C721 C 0.61007 0.66941 0.46849 0.0
C722 C 0.5518 0.68996 0.44245 0.0
C723 C 0.59178 0.68405 0.43089 0.0
N724 N 0.67438 0.6537 0.42561 0.0
N725 N 0.52754 0.70135 0.4736 0.0
C726 C 0.63748 0.66159 0.43741 0.0
C727 C 0.56193 0.68604 0.46168 0.0
N728 N 0.68658 0.62549 0.4632 0.0
N729 N 0.50496 0.70114 0.43492 0.0
H730 H 0.5336 0.69786 0.48775 0.0
H731 H 0.49394 0.71917 0.46957 0.0
H732 H 0.49761 0.70416 0.42078 0.0
H733 H 0.47303 0.70288 0.44236 0.0
H734 H 0.7122 0.60822 0.45506 0.0
H735 H 0.69266 0.6178 0.47714 0.0
H736 H 0.71078 0.64254 0.42968 0.0
H737 H 0.66857 0.66012 0.41158 0.0
C738 C 0.57925 0.22231 0.69788 0.0
C739 C 0.58521 0.27056 0.70596 0.0
C740 C 0.63409 0.29766 0.6806 0.0
C741 C 0.63676 0.24688 0.67478 0.0
N742 N 0.60911 0.16112 0.67634 0.0
N743 N 0.61641 0.35537 0.70512 0.0
C744 C 0.60786 0.20933 0.68282 0.0
C745 C 0.61098 0.30903 0.69708 0.0
N746 N 0.54635 0.18919 0.70479 0.0
N747 N 0.65456 0.33474 0.67062 0.0
H748 H 0.59888 0.36551 0.71692 0.0
H749 H 0.64023 0.38307 0.70069 0.0
H750 H 0.6738 0.32767 0.65893 0.0
H751 H 0.64905 0.37283 0.67301 0.0
H752 H 0.53705 0.1546 0.69882 0.0
H753 H 0.52488 0.19847 0.71576 0.0
H754 H 0.59342 0.13069 0.68274 0.0
H755 H 0.6275 0.15125 0.66468 0.0
C756 C 0.13286 0.65426 0.03613 0.0
C757 C 0.16262 0.67811 0.02338 0.0
C758 C 0.21988 0.70914 0.04834 0.0
C759 C 0.18362 0.69603 0.06069 0.0
N760 N 0.11157 0.64819 0.06794 0.0
N761 N 0.23802 0.72223 0.01665 0.0
C762 C 0.14253 0.66483 0.05511 0.0
C763 C 0.20816 0.70251 0.02928 0.0
N764 N 0.09478 0.62301 0.02989 0.0
N765 N 0.26448 0.72945 0.05503 0.0
H766 H 0.23092 0.71658 0.0026 0.0
H767 H 0.26891 0.74519 0.01993 0.0
H768 H 0.27288 0.73446 0.06907 0.0
H769 H 0.29434 0.73734 0.04704 0.0
H770 H 0.07266 0.60246 0.03833 0.0
H771 H 0.0876 0.61504 0.01598 0.0
H772 H 0.07813 0.62889 0.06492 0.0
H773 H 0.11983 0.65433 0.08193 0.0
C774 C 0.69385 0.71428 0.29773 0.0
C775 C 0.67553 0.75241 0.28564 0.0
C776 C 0.60795 0.77213 0.30561 0.0
C777 C 0.62424 0.73181 0.31707 0.0
N778 N 0.68849 0.67292 0.32708 0.0
N779 N 0.62458 0.82601 0.28008 0.0
C780 C 0.66931 0.70564 0.31414 0.0
C781 C 0.63566 0.78422 0.29031 0.0
N782 N 0.73346 0.68535 0.2931 0.0
N783 N 0.56511 0.79782 0.3091 0.0
H784 H 0.6439 0.83554 0.26866 0.0
H785 H 0.59925 0.85353 0.28364 0.0
H786 H 0.54544 0.79198 0.32077 0.0
H787 H 0.54756 0.82347 0.30014 0.0
H788 H 0.74564 0.65346 0.30021 0.0
H789 H 0.75341 0.69255 0.2816 0.0
H790 H 0.72361 0.65606 0.32672 0.0
H791 H 0.67076 0.66558 0.33908 0.0
C792 C 0.64116 0.13855 0.53826 0.0
C793 C 0.67146 0.16295 0.5258 0.0
C794 C 0.7292 0.19075 0.55118 0.0
C795 C 0.69264 0.17719 0.56337 0.0
N796 N 0.61972 0.13 0.56998 0.0
N797 N 0.74804 0.20575 0.51964 0.0
C798 C 0.65107 0.14712 0.55737 0.0
C799 C 0.71756 0.18578 0.53203 0.0
N800 N 0.60233 0.10877 0.53162 0.0
N801 N 0.77377 0.21054 0.55813 0.0
H802 H 0.74089 0.20138 0.50554 0.0
H803 H 0.77964 0.2275 0.52317 0.0
H804 H 0.78177 0.21501 0.57221 0.0
H805 H 0.80384 0.21891 0.5503 0.0
H806 H 0.57963 0.08801 0.53979 0.0
H807 H 0.595 0.10227 0.51762 0.0
H808 H 0.58592 0.11153 0.56673 0.0
H809 H 0.62814 0.13487 0.58402 0.0
C810 C 0.19842 0.22629 0.79826 0.0
C811 C 0.17964 0.26199 0.78529 0.0
C812 C 0.11227 0.28449 0.80495 0.0
C813 C 0.12546 0.24263 0.81604 0.0
N814 N 0.18257 0.17595 0.82491 0.0
N815 N 0.11984 0.32642 0.77603 0.0
C816 C 0.16955 0.21458 0.81337 0.0
C817 C 0.13745 0.29224 0.78875 0.0
N818 N 0.24365 0.20382 0.79596 0.0
N819 N 0.07601 0.31706 0.8101 0.0
H820 H 0.13838 0.33468 0.7643 0.0
H821 H 0.08554 0.34484 0.77656 0.0
H822 H 0.0569 0.31234 0.82197 0.0
H823 H 0.0681 0.3511 0.80365 0.0
H824 H 0.26161 0.17993 0.80547 0.0
H825 H 0.26527 0.21236 0.78501 0.0
H826 H 0.21158 0.15083 0.8229 0.0
H827 H 0.16296 0.16799 0.83643 0.0
loop_
_geom_bond_atom_site_label_1
_geom_bond_atom_site_label_2
_geom_bond_distance
_geom_bond_site_symmetry_2
_ccdc_geom_bond_type
C0 C1 1.414 . S
C0 C2 1.342 1_556 S
C0 H24 0.959 . S
C1 C0 1.414 . S
C1 C5 1.397 1_556 S
C2 C0 1.342 1_554 S
C2 C3 1.384 . S
C2 H25 0.930 . S
C3 C2 1.384 . S
C3 C4 1.377 . S
C3 C6 1.481 . S
C4 C3 1.377 . S
C4 C5 1.389 . S
C4 H26 0.929 . S
C5 C1 1.397 1_554 S
C5 C4 1.389 . S
C5 H27 0.931 1_554 S
C6 C3 1.481 . S
C6 C7 1.387 . S
C6 C11 1.390 . S
C7 C6 1.387 . S
C7 C8 1.401 . S
C7 H28 0.930 . S
C8 C7 1.401 . S
C8 C9 1.376 . S
C8 C17 1.511 . S
C9 C8 1.376 . S
C9 C10 1.392 . S
C9 H30 0.931 . S
C10 C9 1.392 . S
C10 C11 1.361 . S
C10 C12 1.500 . S
C11 C6 1.390 . S
C11 C10 1.361 . S
C11 H29 0.931 . S
C12 C10 1.500 . S
C12 C13 1.371 . S
C12 C14 1.365 . S
C13 C12 1.371 . S
C13 C23 1.386 . S
C13 H31 0.931 . S
C14 C12 1.365 . S
C14 C15 1.409 . S
C14 H32 0.929 . S
C15 C14 1.409 . S
C15 C16 1.380 . S
C15 H33 0.930 . S
C16 C15 1.380 . S
C16 C23 1.357 . S
C17 C8 1.511 . S
C17 C18 1.341 . S
C17 C19 1.371 . S
C18 C17 1.341 . S
C18 C22 1.394 . S
C18 H34 0.930 . S
C19 C17 1.371 . S
C19 C20 1.392 . S
C19 H35 0.931 . S
C20 C19 1.392 . S
C20 C21 1.331 . S
C20 H38 0.932 . S
C21 C20 1.331 . S
C21 C22 1.336 . S
C22 C18 1.394 . S
C22 C21 1.336 . S
C22 H37 0.929 . S
C23 C13 1.386 . S
C23 C16 1.357 . S
C23 H36 0.928 . S
H24 C0 0.959 . S
H25 C2 0.930 . S
H26 C4 0.929 . S
H27 C5 0.931 1_556 S
H28 C7 0.930 . S
H29 C11 0.931 . S
H30 C9 0.931 . S
H31 C13 0.931 . S
H32 C14 0.929 . S
H33 C15 0.930 . S
H34 C18 0.930 . S
H35 C19 0.931 . S
H36 C23 0.928 . S
H37 C22 0.929 . S
H38 C20 0.932 . S
C39 C40 1.386 . S
C39 C41 1.397 . S
C39 H63 0.931 . S
C40 C39 1.386 . S
C40 C44 1.397 . S
C41 C39 1.397 . S
C41 C42 1.384 . S
C41 H64 0.930 . S
C42 C41 1.384 . S
C42 C43 1.377 . S
C42 C45 1.481 . S
C43 C42 1.377 . S
C43 C44 1.389 . S
C43 H65 0.929 . S
C44 C40 1.397 . S
C44 C43 1.389 . S
C44 H66 0.931 . S
C45 C42 1.481 . S
C45 C46 1.387 . S
C45 C50 1.390 . S
C46 C45 1.387 . S
C46 C47 1.401 . S
C46 H67 0.930 . S
C47 C46 1.401 . S
C47 C48 1.376 . S
C47 C56 1.511 . S
C48 C47 1.376 . S
C48 C49 1.392 . S
C48 H69 0.931 . S
C49 C48 1.392 . S
C49 C50 1.361 . S
C49 C51 1.500 . S
C50 C45 1.390 . S
C50 C49 1.361 . S
C50 H68 0.931 . S
C51 C49 1.500 . S
C51 C52 1.371 . S
C51 C53 1.365 1_455 S
C52 C51 1.371 . S
C52 C62 1.386 1_455 S
C52 H70 0.931 . S
C53 C51 1.365 1_655 S
C53 C54 1.409 . S
C53 H71 0.929 . S
C54 C53 1.409 . S
C54 C55 1.380 . S
C54 H72 0.930 . S
C55 C54 1.380 . S
C55 C62 1.357 . S
C56 C47 1.511 . S
C56 C57 1.341 . S
C56 C58 1.371 . S
C57 C56 1.341 . S
C57 C61 1.394 . S
C57 H73 0.930 . S
C58 C56 1.371 . S
C58 C59 1.392 . S
C58 H74 0.931 . S
C59 C58 1.392 . S
C59 C60 1.331 . S
C59 H77 0.932 . S
C60 C59 1.331 . S
C60 C61 1.336 . S
C61 C57 1.394 . S
C61 C60 1.336 . S
C61 H76 0.929 . S
C62 C52 1.386 1_655 S
C62 C55 1.357 . S
C62 H75 0.928 . S
H63 C39 0.931 . S
H64 C41 0.930 . S
H65 C43 0.929 . S
H66 C44 0.931 . S
H67 C46 0.930 . S
H68 C50 0.931 . S
H69 C48 0.931 . S
H70 C52 0.931 . S
H71 C53 0.929 . S
H72 C54 0.930 . S
H73 C57 0.930 . S
H74 C58 0.931 . S
H75 C62 0.928 . S
H76 C61 0.929 . S
H77 C59 0.932 . S
C78 C79 1.386 . S
C78 C80 1.397 . S
C78 H102 0.931 . S
C79 C78 1.386 . S
C79 C83 1.397 . S
C80 C78 1.397 . S
C80 C81 1.384 . S
C80 H103 0.930 . S
C81 C80 1.384 . S
C81 C82 1.377 . S
C81 C84 1.481 . S
C82 C81 1.377 . S
C82 C83 1.389 . S
C82 H104 0.929 . S
C83 C79 1.397 . S
C83 C82 1.389 . S
C83 H105 0.931 . S
C84 C81 1.481 . S
C84 C85 1.387 . S
C84 C89 1.390 . S
C85 C84 1.387 . S
C85 C86 1.401 . S
C85 H106 0.930 . S
C86 C85 1.401 . S
C86 C87 1.376 . S
C86 C95 1.511 . S
C87 C86 1.376 . S
C87 C88 1.392 . S
C87 H108 0.931 . S
C88 C87 1.392 . S
C88 C89 1.361 . S
C88 C90 1.500 . S
C89 C84 1.390 . S
C89 C88 1.361 . S
C89 H107 0.931 . S
C90 C88 1.500 . S
C90 C91 1.371 . S
C90 C92 1.365 . S
C91 C90 1.371 . S
C91 C101 1.386 . S
C91 H109 0.931 . S
C92 C90 1.365 . S
C92 C93 1.409 . S
C92 H110 0.929 . S
C93 C92 1.409 . S
C93 C94 1.380 . S
C93 H111 0.930 . S
C94 C93 1.380 . S
C94 C101 1.357 . S
C95 C86 1.511 . S
C95 C96 1.341 . S
C95 C97 1.371 . S
C96 C95 1.341 . S
C96 C100 1.394 . S
C96 H112 0.930 . S
C97 C95 1.371 . S
C97 C98 1.392 . S
C97 H113 0.931 . S
C98 C97 1.392 . S
C98 C99 1.331 . S
C98 H116 0.932 . S
C99 C98 1.331 . S
C99 C100 1.336 . S
C100 C96 1.394 . S
C100 C99 1.336 . S
C100 H115 0.929 . S
C101 C91 1.386 . S
C101 C94 1.357 . S
C101 H114 0.928 . S
H102 C78 0.931 . S
H103 C80 0.930 . S
H104 C82 0.929 . S
H105 C83 0.931 . S
H106 C85 0.930 . S
H107 C89 0.931 . S
H108 C87 0.931 . S
H109 C91 0.931 . S
H110 C92 0.929 . S
H111 C93 0.930 . S
H112 C96 0.930 . S
H113 C97 0.931 . S
H114 C101 0.928 . S
H115 C100 0.929 . S
H116 C98 0.932 . S
C117 C118 1.386 . S
C117 C119 1.397 . S
C117 H141 0.931 . S
C118 C117 1.386 . S
C118 C122 1.397 . S
C119 C117 1.397 . S
C119 C120 1.384 . S
C119 H142 0.930 . S
C120 C119 1.384 . S
C120 C121 1.377 . S
C120 C123 1.481 . S
C121 C120 1.377 . S
C121 C122 1.389 . S
C121 H143 0.929 . S
C122 C118 1.397 . S
C122 C121 1.389 . S
C122 H144 0.931 . S
C123 C120 1.481 . S
C123 C124 1.387 . S
C123 C128 1.390 . S
C124 C123 1.387 . S
C124 C125 1.401 . S
C124 H145 0.930 . S
C125 C124 1.401 . S
C125 C126 1.376 . S
C125 C134 1.511 . S
C126 C125 1.376 . S
C126 C127 1.392 . S
C126 H147 0.931 . S
C127 C126 1.392 . S
C127 C128 1.361 . S
C127 C129 1.500 . S
C128 C123 1.390 . S
C128 C127 1.361 . S
C128 H146 0.931 . S
C129 C127 1.500 . S
C129 C130 1.371 . S
C129 C131 1.365 . S
C130 C129 1.371 . S
C130 C140 1.386 . S
C130 H148 0.931 . S
C131 C129 1.365 . S
C131 C132 1.409 . S
C131 H149 0.929 . S
C132 C131 1.409 . S
C132 C133 1.380 . S
C132 H150 0.930 . S
C133 C132 1.380 . S
C133 C140 1.357 . S
C134 C125 1.511 . S
C134 C135 1.341 . S
C134 C136 1.371 . S
C135 C134 1.341 . S
C135 C139 1.394 . S
C135 H151 0.930 . S
C136 C134 1.371 . S
C136 C137 1.392 . S
C136 H152 0.931 . S
C137 C136 1.392 . S
C137 C138 1.331 . S
C137 H155 0.932 . S
C138 C137 1.331 . S
C138 C139 1.336 . S
C139 C135 1.394 . S
C139 C138 1.336 . S
C139 H154 0.929 . S
C140 C130 1.386 . S
C140 C133 1.357 . S
C140 H153 0.928 . S
H141 C117 0.931 . S
H142 C119 0.930 . S
H143 C121 0.929 . S
H144 C122 0.931 . S
H145 C124 0.930 . S
H146 C128 0.931 . S
H147 C126 0.931 . S
H148 C130 0.931 . S
H149 C131 0.929 . S
H150 C132 0.930 . S
H151 C135 0.930 . S
H152 C136 0.931 . S
H153 C140 0.928 . S
H154 C139 0.929 . S
H155 C137 0.932 . S
C156 C157 1.386 1_556 S
C156 C158 1.397 . S
C156 H180 0.931 1_456 S
C157 C156 1.386 1_554 S
C157 C161 1.397 1_554 S
C158 C156 1.397 . S
C158 C159 1.384 . S
C158 H181 0.930 1_455 S
C159 C158 1.384 . S
C159 C160 1.377 . S
C159 C162 1.481 . S
C160 C159 1.377 . S
C160 C161 1.389 . S
C160 H182 0.929 . S
C161 C157 1.397 1_556 S
C161 C160 1.389 . S
C161 H183 0.931 1_556 S
C162 C159 1.481 . S
C162 C163 1.387 . S
C162 C167 1.390 . S
C163 C162 1.387 . S
C163 C164 1.401 . S
C163 H184 0.930 . S
C164 C163 1.401 . S
C164 C165 1.376 . S
C164 C173 1.511 . S
C165 C164 1.376 . S
C165 C166 1.392 . S
C165 H186 0.931 . S
C166 C165 1.392 . S
C166 C167 1.361 . S
C166 C168 1.500 . S
C167 C162 1.390 . S
C167 C166 1.361 . S
C167 H185 0.931 . S
C168 C166 1.500 . S
C168 C169 1.371 . S
C168 C170 1.365 . S
C169 C168 1.371 . S
C169 C179 1.386 . S
C169 H187 0.931 . S
C170 C168 1.365 . S
C170 C171 1.409 . S
C170 H188 0.929 . S
C171 C170 1.409 . S
C171 C172 1.380 . S
C171 H189 0.930 . S
C172 C171 1.380 . S
C172 C179 1.357 . S
C173 C164 1.511 . S
C173 C174 1.341 . S
C173 C175 1.371 . S
C174 C173 1.341 . S
C174 C178 1.394 . S
C174 H190 0.930 . S
C175 C173 1.371 . S
C175 C176 1.392 . S
C175 H191 0.931 . S
C176 C175 1.392 . S
C176 C177 1.331 . S
C176 H194 0.932 . S
C177 C176 1.331 . S
C177 C178 1.336 . S
C178 C174 1.394 . S
C178 C177 1.336 . S
C178 H193 0.929 . S
C179 C169 1.386 . S
C179 C172 1.357 . S
C179 H192 0.928 . S
H180 C156 0.931 1_654 S
H181 C158 0.930 1_655 S
H182 C160 0.929 . S
H183 C161 0.931 1_554 S
H184 C163 0.930 . S
H185 C167 0.931 . S
H186 C165 0.931 . S
H187 C169 0.931 . S
H188 C170 0.929 . S
H189 C171 0.930 . S
H190 C174 0.930 . S
H191 C175 0.931 . S
H192 C179 0.928 . S
H193 C178 0.929 . S
H194 C176 0.932 . S
C195 C196 1.386 . S
C195 C197 1.397 . S
C195 H219 0.931 . S
C196 C195 1.386 . S
C196 C200 1.397 . S
C197 C195 1.397 . S
C197 C198 1.384 . S
C197 H220 0.930 . S
C198 C197 1.384 . S
C198 C199 1.377 . S
C198 C201 1.481 . S
C199 C198 1.377 . S
C199 C200 1.389 . S
C199 H221 0.929 . S
C200 C196 1.397 . S
C200 C199 1.389 . S
C200 H222 0.931 . S
C201 C198 1.481 . S
C201 C202 1.387 . S
C201 C206 1.390 . S
C202 C201 1.387 . S
C202 C203 1.401 . S
C202 H223 0.930 . S
C203 C202 1.401 . S
C203 C204 1.376 . S
C203 C212 1.511 . S
C204 C203 1.376 . S
C204 C205 1.392 . S
C204 H225 0.931 . S
C205 C204 1.392 . S
C205 C206 1.361 . S
C205 C207 1.500 . S
C206 C201 1.390 . S
C206 C205 1.361 . S
C206 H224 0.931 . S
C207 C205 1.500 . S
C207 C208 1.371 . S
C207 C209 1.365 . S
C208 C207 1.371 . S
C208 C218 1.386 . S
C208 H226 0.931 . S
C209 C207 1.365 . S
C209 C210 1.409 . S
C209 H227 0.929 . S
C210 C209 1.409 . S
C210 C211 1.380 . S
C210 H228 0.930 . S
C211 C210 1.380 . S
C211 C218 1.357 . S
C212 C203 1.511 . S
C212 C213 1.341 . S
C212 C214 1.371 . S
C213 C212 1.341 . S
C213 C217 1.394 . S
C213 H229 0.930 . S
C214 C212 1.371 . S
C214 C215 1.392 . S
C214 H230 0.931 . S
C215 C214 1.392 . S
C215 C216 1.331 . S
C215 H233 0.932 . S
C216 C215 1.331 . S
C216 C217 1.336 . S
C217 C213 1.394 . S
C217 C216 1.336 . S
C217 H232 0.929 . S
C218 C208 1.386 . S
C218 C211 1.357 . S
C218 H231 0.928 . S
H219 C195 0.931 . S
H220 C197 0.930 . S
H221 C199 0.929 . S
H222 C200 0.931 . S
H223 C202 0.930 . S
H224 C206 0.931 . S
H225 C204 0.931 . S
H226 C208 0.931 . S
H227 C209 0.929 . S
H228 C210 0.930 . S
H229 C213 0.930 . S
H230 C214 0.931 . S
H231 C218 0.928 . S
H232 C217 0.929 . S
H233 C215 0.932 . S
C234 C235 1.386 . S
C234 C236 1.397 . S
C234 H258 0.931 . S
C235 C234 1.386 . S
C235 C239 1.397 . S
C236 C234 1.397 . S
C236 C237 1.384 . S
C236 H259 0.930 . S
C237 C236 1.384 . S
C237 C238 1.377 . S
C237 C240 1.481 . S
C238 C237 1.377 . S
C238 C239 1.389 . S
C238 H260 0.929 . S
C239 C235 1.397 . S
C239 C238 1.389 . S
C239 H261 0.931 . S
C240 C237 1.481 . S
C240 C241 1.387 . S
C240 C245 1.390 . S
C241 C240 1.387 . S
C241 C242 1.401 . S
C241 H262 0.930 . S
C242 C241 1.401 . S
C242 C243 1.376 . S
C242 C251 1.511 . S
C243 C242 1.376 . S
C243 C244 1.392 . S
C243 H264 0.931 . S
C244 C243 1.392 . S
C244 C245 1.361 . S
C244 C246 1.500 . S
C245 C240 1.390 . S
C245 C244 1.361 . S
C245 H263 0.931 . S
C246 C244 1.500 . S
C246 C247 1.371 . S
C246 C248 1.365 . S
C247 C246 1.371 . S
C247 C257 1.386 . S
C247 H265 0.931 . S
C248 C246 1.365 . S
C248 C249 1.409 . S
C248 H266 0.929 . S
C249 C248 1.409 . S
C249 C250 1.380 . S
C249 H267 0.930 . S
C250 C249 1.380 . S
C250 C257 1.357 . S
C251 C242 1.511 . S
C251 C252 1.341 . S
C251 C253 1.371 . S
C252 C251 1.341 . S
C252 C256 1.394 . S
C252 H268 0.930 . S
C253 C251 1.371 . S
C253 C254 1.392 . S
C253 H269 0.931 . S
C254 C253 1.392 . S
C254 C255 1.331 . S
C254 H272 0.932 . S
C255 C254 1.331 . S
C255 C256 1.336 . S
C256 C252 1.394 . S
C256 C255 1.336 . S
C256 H271 0.929 . S
C257 C247 1.386 . S
C257 C250 1.357 . S
C257 H270 0.928 . S
H258 C234 0.931 . S
H259 C236 0.930 . S
H260 C238 0.929 . S
H261 C239 0.931 . S
H262 C241 0.930 . S
H263 C245 0.931 . S
H264 C243 0.931 . S
H265 C247 0.931 . S
H266 C248 0.929 . S
H267 C249 0.930 . S
H268 C252 0.930 . S
H269 C253 0.931 . S
H270 C257 0.928 . S
H271 C256 0.929 . S
H272 C254 0.932 . S
C273 C274 1.386 . S
C273 C275 1.397 . S
C273 H297 0.931 . S
C274 C273 1.386 . S
C274 C278 1.397 . S
C275 C273 1.397 . S
C275 C276 1.384 . S
C275 H298 0.930 . S
C276 C275 1.384 . S
C276 C277 1.377 . S
C276 C279 1.481 . S
C277 C276 1.377 . S
C277 C278 1.389 . S
C277 H299 0.929 . S
C278 C274 1.397 . S
C278 C277 1.389 . S
C278 H300 0.931 . S
C279 C276 1.481 . S
C279 C280 1.387 . S
C279 C284 1.390 . S
C280 C279 1.387 . S
C280 C281 1.401 . S
C280 H301 0.930 . S
C281 C280 1.401 . S
C281 C282 1.376 . S
C281 C290 1.511 . S
C282 C281 1.376 . S
C282 C283 1.392 . S
C282 H303 0.931 . S
C283 C282 1.392 . S
C283 C284 1.361 . S
C283 C285 1.500 . S
C284 C279 1.390 . S
C284 C283 1.361 . S
C284 H302 0.931 . S
C285 C283 1.500 . S
C285 C286 1.371 . S
C285 C287 1.365 . S
C286 C285 1.371 . S
C286 C296 1.386 1_455 S
C286 H304 0.931 . S
C287 C285 1.365 . S
C287 C288 1.409 1_455 S
C287 H305 0.929 . S
C288 C287 1.409 1_655 S
C288 C289 1.380 . S
C288 H306 0.930 . S
C289 C288 1.380 . S
C289 C296 1.357 . S
C290 C281 1.511 . S
C290 C291 1.341 . S
C290 C292 1.371 . S
C291 C290 1.341 . S
C291 C295 1.394 . S
C291 H307 0.930 . S
C292 C290 1.371 . S
C292 C293 1.392 . S
C292 H308 0.931 . S
C293 C292 1.392 . S
C293 C294 1.331 . S
C293 H311 0.932 . S
C294 C293 1.331 . S
C294 C295 1.336 . S
C295 C291 1.394 . S
C295 C294 1.336 . S
C295 H310 0.929 . S
C296 C286 1.386 1_655 S
C296 C289 1.357 . S
C296 H309 0.928 . S
H297 C273 0.931 . S
H298 C275 0.930 . S
H299 C277 0.929 . S
H300 C278 0.931 . S
H301 C280 0.930 . S
H302 C284 0.931 . S
H303 C282 0.931 . S
H304 C286 0.931 . S
H305 C287 0.929 . S
H306 C288 0.930 . S
H307 C291 0.930 . S
H308 C292 0.931 . S
H309 C296 0.928 . S
H310 C295 0.929 . S
H311 C293 0.932 . S
Zn312 O318 1.920 . S
Zn312 O324 1.898 . S
Zn312 O327 1.905 . S
Zn313 O321 1.905 . S
Zn313 O322 1.898 . S
Zn313 O330 1.920 . S
Zn314 O317 2.080 . S
Zn314 O320 2.114 . S
Zn314 O323 2.120 . S
Zn314 O325 2.120 . S
Zn314 O326 2.114 . S
Zn314 O329 2.080 . S
C315 O320 1.166 . S
C315 O321 1.182 . S
C316 O322 1.167 . S
C316 O323 1.299 . S
O317 Zn314 2.080 . S
O317 C331 1.305 . S
O318 Zn312 1.920 . S
O318 C331 1.234 . S
C319 O324 1.167 . S
C319 O325 1.299 . S
O320 Zn314 2.114 . S
O320 C315 1.166 . S
O321 Zn313 1.905 . S
O321 C315 1.182 . S
O322 Zn313 1.898 . S
O322 C316 1.167 . S
O323 Zn314 2.120 . S
O323 C316 1.299 . S
O324 Zn312 1.898 . S
O324 C319 1.167 . S
O325 Zn314 2.120 . S
O325 C319 1.299 . S
O326 Zn314 2.114 . S
O326 C328 1.166 . S
O327 Zn312 1.905 . S
O327 C328 1.182 . S
C328 O326 1.166 . S
C328 O327 1.182 . S
O329 Zn314 2.080 . S
O329 C332 1.305 . S
O330 Zn313 1.920 . S
O330 C332 1.234 . S
C331 O317 1.305 . S
C331 O318 1.234 . S
C332 O329 1.305 . S
C332 O330 1.234 . S
Zn333 O339 1.920 . S
Zn333 O345 1.898 . S
Zn333 O348 1.905 . S
Zn334 O342 1.905 . S
Zn334 O343 1.898 . S
Zn334 O351 1.920 . S
Zn335 O338 2.080 . S
Zn335 O341 2.114 . S
Zn335 O344 2.120 . S
Zn335 O346 2.120 . S
Zn335 O347 2.114 . S
Zn335 O350 2.080 . S
C336 O341 1.166 . S
C336 O342 1.182 . S
C337 O343 1.167 . S
C337 O344 1.299 . S
O338 Zn335 2.080 . S
O338 C352 1.305 . S
O339 Zn333 1.920 . S
O339 C352 1.234 . S
C340 O345 1.167 . S
C340 O346 1.299 . S
O341 Zn335 2.114 . S
O341 C336 1.166 . S
O342 Zn334 1.905 . S
O342 C336 1.182 . S
O343 Zn334 1.898 . S
O343 C337 1.167 . S
O344 Zn335 2.120 . S
O344 C337 1.299 . S
O345 Zn333 1.898 . S
O345 C340 1.167 . S
O346 Zn335 2.120 . S
O346 C340 1.299 . S
O347 Zn335 2.114 . S
O347 C349 1.166 . S
O348 Zn333 1.905 . S
O348 C349 1.182 . S
C349 O347 1.166 . S
C349 O348 1.182 . S
O350 Zn335 2.080 . S
O350 C353 1.305 . S
O351 Zn334 1.920 . S
O351 C353 1.234 . S
C352 O338 1.305 . S
C352 O339 1.234 . S
C353 O350 1.305 . S
C353 O351 1.234 . S
Zn354 O360 1.920 . S
Zn354 O366 1.898 . S
Zn354 O369 1.905 . S
Zn355 O363 1.905 . S
Zn355 O364 1.898 . S
Zn355 O372 1.920 . S
Zn356 O359 2.080 . S
Zn356 O362 2.114 . S
Zn356 O365 2.120 . S
Zn356 O367 2.120 . S
Zn356 O368 2.114 . S
Zn356 O371 2.080 . S
C357 O362 1.166 . S
C357 O363 1.182 . S
C358 O364 1.167 . S
C358 O365 1.299 . S
O359 Zn356 2.080 . S
O359 C373 1.305 . S
O360 Zn354 1.920 . S
O360 C373 1.234 . S
C361 O366 1.167 . S
C361 O367 1.299 . S
O362 Zn356 2.114 . S
O362 C357 1.166 . S
O363 Zn355 1.905 . S
O363 C357 1.182 . S
O364 Zn355 1.898 . S
O364 C358 1.167 . S
O365 Zn356 2.120 . S
O365 C358 1.299 . S
O366 Zn354 1.898 . S
O366 C361 1.167 . S
O367 Zn356 2.120 . S
O367 C361 1.299 . S
O368 Zn356 2.114 . S
O368 C370 1.166 . S
O369 Zn354 1.905 . S
O369 C370 1.182 . S
C370 O368 1.166 . S
C370 O369 1.182 . S
O371 Zn356 2.080 . S
O371 C374 1.305 . S
O372 Zn355 1.920 . S
O372 C374 1.234 . S
C373 O359 1.305 . S
C373 O360 1.234 . S
C374 O371 1.305 . S
C374 O372 1.234 . S
Zn375 O381 1.920 . S
Zn375 O387 1.898 . S
Zn375 O390 1.901 1_455 S
Zn376 O384 1.905 . S
Zn376 O385 1.898 . S
Zn376 O393 1.920 . S
Zn377 O380 2.080 . S
Zn377 O383 2.114 . S
Zn377 O386 2.120 . S
Zn377 O388 2.120 . S
Zn377 O389 2.114 . S
Zn377 O392 2.080 . S
C378 O383 1.166 . S
C378 O384 1.182 . S
C379 O385 1.167 . S
C379 O386 1.299 . S
O380 Zn377 2.080 . S
O380 C394 1.305 . S
O381 Zn375 1.920 . S
O381 C394 1.234 . S
C382 O387 1.167 . S
C382 O388 1.299 . S
O383 Zn377 2.114 . S
O383 C378 1.166 . S
O384 Zn376 1.905 . S
O384 C378 1.182 . S
O385 Zn376 1.898 . S
O385 C379 1.167 . S
O386 Zn377 2.120 . S
O386 C379 1.299 . S
O387 Zn375 1.898 . S
O387 C382 1.167 . S
O388 Zn377 2.120 . S
O388 C382 1.299 . S
O389 Zn377 2.114 . S
O389 C391 1.166 . S
O390 Zn375 1.901 1_655 S
O390 C391 1.181 1_655 S
C391 O389 1.166 . S
C391 O390 1.181 1_455 S
O392 Zn377 2.080 . S
O392 C395 1.305 . S
O393 Zn376 1.920 . S
O393 C395 1.234 . S
C394 O380 1.305 . S
C394 O381 1.234 . S
C395 O392 1.305 . S
C395 O393 1.234 . S
C396 C397 1.363 . S
C396 C402 1.379 . S
C396 N404 1.356 . S
C397 C396 1.363 . S
C397 C403 1.363 . S
C398 C399 1.363 . S
C398 C403 1.379 . S
C398 N405 1.356 . S
C399 C398 1.363 . S
C399 C402 1.363 . S
N400 C402 1.356 . S
N400 H412 0.984 . S
N400 H413 0.985 . S
N401 C403 1.356 . S
N401 H406 0.984 . S
N401 H407 0.985 . S
C402 C396 1.379 . S
C402 C399 1.363 . S
C402 N400 1.356 . S
C403 C397 1.363 . S
C403 C398 1.379 . S
C403 N401 1.356 . S
N404 C396 1.356 . S
N404 H410 0.984 . S
N404 H411 0.984 . S
N405 C398 1.356 . S
N405 H408 0.984 . S
N405 H409 0.985 . S
H406 N401 0.984 . S
H407 N401 0.985 . S
H408 N405 0.984 . S
H409 N405 0.985 . S
H410 N404 0.984 . S
H411 N404 0.984 . S
H412 N400 0.984 . S
H413 N400 0.985 . S
C414 C415 1.363 . S
C414 C420 1.379 . S
C414 N422 1.356 . S
C415 C414 1.363 . S
C415 C421 1.363 . S
C416 C417 1.363 . S
C416 C421 1.379 . S
C416 N423 1.356 . S
C417 C416 1.363 . S
C417 C420 1.363 . S
N418 C420 1.356 . S
N418 H430 0.984 . S
N418 H431 0.985 . S
N419 C421 1.356 . S
N419 H424 0.984 . S
N419 H425 0.985 . S
C420 C414 1.379 . S
C420 C417 1.363 . S
C420 N418 1.356 . S
C421 C415 1.363 . S
C421 C416 1.379 . S
C421 N419 1.356 . S
N422 C414 1.356 . S
N422 H428 0.984 . S
N422 H429 0.984 . S
N423 C416 1.356 . S
N423 H426 0.984 . S
N423 H427 0.985 . S
H424 N419 0.984 . S
H425 N419 0.985 . S
H426 N423 0.984 . S
H427 N423 0.985 . S
H428 N422 0.984 . S
H429 N422 0.984 . S
H430 N418 0.984 . S
H431 N418 0.985 . S
C432 C433 1.363 . S
C432 C438 1.379 . S
C432 N440 1.356 . S
C433 C432 1.363 . S
C433 C439 1.363 . S
C434 C435 1.363 . S
C434 C439 1.379 . S
C434 N441 1.356 . S
C435 C434 1.363 . S
C435 C438 1.363 . S
N436 C438 1.356 . S
N436 H448 0.984 . S
N436 H449 0.985 . S
N437 C439 1.356 . S
N437 H442 0.984 . S
N437 H443 0.985 . S
C438 C432 1.379 . S
C438 C435 1.363 . S
C438 N436 1.356 . S
C439 C433 1.363 . S
C439 C434 1.379 . S
C439 N437 1.356 . S
N440 C432 1.356 . S
N440 H446 0.984 . S
N440 H447 0.984 . S
N441 C434 1.356 . S
N441 H444 0.984 . S
N441 H445 0.985 . S
H442 N437 0.984 . S
H443 N437 0.985 . S
H444 N441 0.984 . S
H445 N441 0.985 . S
H446 N440 0.984 . S
H447 N440 0.984 . S
H448 N436 0.984 . S
H449 N436 0.985 . S
C450 C451 1.363 . S
C450 C456 1.379 . S
C450 N458 1.356 . S
C451 C450 1.363 . S
C451 C457 1.363 . S
C452 C453 1.363 . S
C452 C457 1.379 . S
C452 N459 1.356 . S
C453 C452 1.363 . S
C453 C456 1.363 . S
N454 C456 1.356 . S
N454 H466 0.984 . S
N454 H467 0.985 1_655 S
N455 C457 1.356 . S
N455 H460 0.984 . S
N455 H461 0.985 . S
C456 C450 1.379 . S
C456 C453 1.363 . S
C456 N454 1.356 . S
C457 C451 1.363 . S
C457 C452 1.379 . S
C457 N455 1.356 . S
N458 C450 1.356 . S
N458 H464 0.984 . S
N458 H465 0.984 . S
N459 C452 1.356 . S
N459 H462 0.984 1_655 S
N459 H463 0.985 . S
H460 N455 0.984 . S
H461 N455 0.985 . S
H462 N459 0.984 1_455 S
H463 N459 0.985 . S
H464 N458 0.984 . S
H465 N458 0.984 . S
H466 N454 0.984 . S
H467 N454 0.985 1_455 S
C468 C469 1.363 . S
C468 C474 1.379 . S
C468 N476 1.356 . S
C469 C468 1.363 . S
C469 C475 1.363 . S
C470 C471 1.363 . S
C470 C475 1.379 . S
C470 N477 1.356 . S
C471 C470 1.363 . S
C471 C474 1.363 . S
N472 C474 1.356 . S
N472 H484 0.984 . S
N472 H485 0.985 . S
N473 C475 1.356 . S
N473 H478 0.984 . S
N473 H479 0.985 . S
C474 C468 1.379 . S
C474 C471 1.363 . S
C474 N472 1.356 . S
C475 C469 1.363 . S
C475 C470 1.379 . S
C475 N473 1.356 . S
N476 C468 1.356 . S
N476 H482 0.984 . S
N476 H483 0.984 . S
N477 C470 1.356 . S
N477 H480 0.984 . S
N477 H481 0.985 . S
H478 N473 0.984 . S
H479 N473 0.985 . S
H480 N477 0.984 . S
H481 N477 0.985 . S
H482 N476 0.984 . S
H483 N476 0.984 . S
H484 N472 0.984 . S
H485 N472 0.985 . S
C486 C487 1.363 . S
C486 C492 1.379 . S
C486 N494 1.356 . S
C487 C486 1.363 . S
C487 C493 1.363 . S
C488 C489 1.363 . S
C488 C493 1.379 . S
C488 N495 1.356 . S
C489 C488 1.363 . S
C489 C492 1.363 . S
N490 C492 1.356 . S
N490 H502 0.984 . S
N490 H503 0.985 1_655 S
N491 C493 1.356 . S
N491 H496 0.984 . S
N491 H497 0.985 . S
C492 C486 1.379 . S
C492 C489 1.363 . S
C492 N490 1.356 . S
C493 C487 1.363 . S
C493 C488 1.379 . S
C493 N491 1.356 . S
N494 C486 1.356 . S
N494 H500 0.984 . S
N494 H501 0.984 . S
N495 C488 1.356 . S
N495 H498 0.984 1_655 S
N495 H499 0.985 . S
H496 N491 0.984 . S
H497 N491 0.985 . S
H498 N495 0.984 1_455 S
H499 N495 0.985 . S
H500 N494 0.984 . S
H501 N494 0.984 . S
H502 N490 0.984 . S
H503 N490 0.985 1_455 S
C504 C505 1.363 . S
C504 C510 1.379 . S
C504 N512 1.356 . S
C505 C504 1.363 . S
C505 C511 1.363 . S
C506 C507 1.363 . S
C506 C511 1.379 . S
C506 N513 1.356 . S
C507 C506 1.363 . S
C507 C510 1.363 . S
N508 C510 1.356 . S
N508 H520 0.984 . S
N508 H521 0.985 . S
N509 C511 1.356 . S
N509 H514 0.984 . S
N509 H515 0.985 . S
C510 C504 1.379 . S
C510 C507 1.363 . S
C510 N508 1.356 . S
C511 C505 1.363 . S
C511 C506 1.379 . S
C511 N509 1.356 . S
N512 C504 1.356 . S
N512 H518 0.984 . S
N512 H519 0.984 . S
N513 C506 1.356 . S
N513 H516 0.984 . S
N513 H517 0.985 . S
H514 N509 0.984 . S
H515 N509 0.985 . S
H516 N513 0.984 . S
H517 N513 0.985 . S
H518 N512 0.984 . S
H519 N512 0.984 . S
H520 N508 0.984 . S
H521 N508 0.985 . S
C522 C523 1.363 . S
C522 C528 1.379 . S
C522 N530 1.356 . S
C523 C522 1.363 . S
C523 C529 1.363 . S
C524 C525 1.363 . S
C524 C529 1.379 . S
C524 N531 1.356 . S
C525 C524 1.363 . S
C525 C528 1.363 . S
N526 C528 1.356 . S
N526 H538 0.984 . S
N526 H539 0.985 . S
N527 C529 1.356 . S
N527 H532 0.984 . S
N527 H533 0.985 . S
C528 C522 1.379 . S
C528 C525 1.363 . S
C528 N526 1.356 . S
C529 C523 1.363 . S
C529 C524 1.379 . S
C529 N527 1.356 . S
N530 C522 1.356 . S
N530 H536 0.984 . S
N530 H537 0.984 . S
N531 C524 1.356 . S
N531 H534 0.984 . S
N531 H535 0.985 . S
H532 N527 0.984 . S
H533 N527 0.985 . S
H534 N531 0.984 . S
H535 N531 0.985 . S
H536 N530 0.984 . S
H537 N530 0.984 . S
H538 N526 0.984 . S
H539 N526 0.985 . S
C540 C541 1.363 . S
C540 C546 1.379 . S
C540 N548 1.356 . S
C541 C540 1.363 . S
C541 C547 1.363 . S
C542 C543 1.363 . S
C542 C547 1.379 . S
C542 N549 1.356 . S
C543 C542 1.363 . S
C543 C546 1.363 . S
N544 C546 1.356 . S
N544 H556 0.984 . S
N544 H557 0.985 . S
N545 C547 1.356 . S
N545 H550 0.984 . S
N545 H551 0.985 . S
C546 C540 1.379 . S
C546 C543 1.363 . S
C546 N544 1.356 . S
C547 C541 1.363 . S
C547 C542 1.379 . S
C547 N545 1.356 . S
N548 C540 1.356 . S
N548 H554 0.984 . S
N548 H555 0.984 . S
N549 C542 1.356 . S
N549 H552 0.984 . S
N549 H553 0.985 . S
H550 N545 0.984 . S
H551 N545 0.985 . S
H552 N549 0.984 . S
H553 N549 0.985 . S
H554 N548 0.984 . S
H555 N548 0.984 . S
H556 N544 0.984 . S
H557 N544 0.985 . S
C558 C559 1.363 . S
C558 C564 1.379 . S
C558 N566 1.356 . S
C559 C558 1.363 . S
C559 C565 1.363 . S
C560 C561 1.363 . S
C560 C565 1.379 . S
C560 N567 1.356 . S
C561 C560 1.363 . S
C561 C564 1.363 . S
N562 C564 1.356 . S
N562 H574 0.984 . S
N562 H575 0.985 . S
N563 C565 1.356 . S
N563 H568 0.984 . S
N563 H569 0.985 . S
C564 C558 1.379 . S
C564 C561 1.363 . S
C564 N562 1.356 . S
C565 C559 1.363 . S
C565 C560 1.379 . S
C565 N563 1.356 . S
N566 C558 1.356 . S
N566 H572 0.984 . S
N566 H573 0.984 . S
N567 C560 1.356 . S
N567 H570 0.984 . S
N567 H571 0.985 . S
H568 N563 0.984 . S
H569 N563 0.985 . S
H570 N567 0.984 . S
H571 N567 0.985 . S
H572 N566 0.984 . S
H573 N566 0.984 . S
H574 N562 0.984 . S
H575 N562 0.985 . S
C576 C577 1.363 . S
C576 C582 1.379 . S
C576 N584 1.356 . S
C577 C576 1.363 . S
C577 C583 1.363 . S
C578 C579 1.363 . S
C578 C583 1.379 . S
C578 N585 1.356 . S
C579 C578 1.363 . S
C579 C582 1.363 . S
N580 C582 1.356 . S
N580 H592 0.984 . S
N580 H593 0.985 . S
N581 C583 1.356 . S
N581 H586 0.984 . S
N581 H587 0.985 . S
C582 C576 1.379 . S
C582 C579 1.363 . S
C582 N580 1.356 . S
C583 C577 1.363 . S
C583 C578 1.379 . S
C583 N581 1.356 . S
N584 C576 1.356 . S
N584 H590 0.984 . S
N584 H591 0.984 . S
N585 C578 1.356 . S
N585 H588 0.984 . S
N585 H589 0.985 . S
H586 N581 0.984 . S
H587 N581 0.985 . S
H588 N585 0.984 . S
H589 N585 0.985 . S
H590 N584 0.984 . S
H591 N584 0.984 . S
H592 N580 0.984 . S
H593 N580 0.985 . S
C594 C595 1.363 . S
C594 C600 1.379 . S
C594 N602 1.356 . S
C595 C594 1.363 . S
C595 C601 1.363 . S
C596 C597 1.363 . S
C596 C601 1.379 . S
C596 N603 1.356 . S
C597 C596 1.363 . S
C597 C600 1.363 . S
N598 C600 1.356 . S
N598 H610 0.984 . S
N598 H611 0.985 . S
N599 C601 1.356 . S
N599 H604 0.984 . S
N599 H605 0.985 . S
C600 C594 1.379 . S
C600 C597 1.363 . S
C600 N598 1.356 . S
C601 C595 1.363 . S
C601 C596 1.379 . S
C601 N599 1.356 . S
N602 C594 1.356 . S
N602 H608 0.984 . S
N602 H609 0.984 . S
N603 C596 1.356 . S
N603 H606 0.984 . S
N603 H607 0.985 . S
H604 N599 0.984 . S
H605 N599 0.985 . S
H606 N603 0.984 . S
H607 N603 0.985 . S
H608 N602 0.984 . S
H609 N602 0.984 . S
H610 N598 0.984 . S
H611 N598 0.985 . S
C612 C613 1.363 1_545 S
C612 C618 1.379 . S
C612 N620 1.356 1_545 S
C613 C612 1.363 1_565 S
C613 C619 1.363 . S
C614 C615 1.363 . S
C614 C619 1.379 1_545 S
C614 N621 1.356 . S
C615 C614 1.363 . S
C615 C618 1.363 . S
N616 C618 1.356 . S
N616 H628 0.984 . S
N616 H629 0.985 . S
N617 C619 1.356 . S
N617 H622 0.984 . S
N617 H623 0.985 . S
C618 C612 1.379 . S
C618 C615 1.363 . S
C618 N616 1.356 . S
C619 C613 1.363 . S
C619 C614 1.379 1_565 S
C619 N617 1.356 . S
N620 C612 1.356 1_565 S
N620 H626 0.984 1_565 S
N620 H627 0.984 . S
N621 C614 1.356 . S
N621 H624 0.984 . S
N621 H625 0.985 . S
H622 N617 0.984 . S
H623 N617 0.985 . S
H624 N621 0.984 . S
H625 N621 0.985 . S
H626 N620 0.984 1_545 S
H627 N620 0.984 . S
H628 N616 0.984 . S
H629 N616 0.985 . S
C630 C631 1.363 1_565 S
C630 C636 1.379 . S
C630 N638 1.356 . S
C631 C630 1.363 1_545 S
C631 C637 1.363 1_545 S
C632 C633 1.363 . S
C632 C637 1.379 . S
C632 N639 1.356 . S
C633 C632 1.363 . S
C633 C636 1.363 . S
N634 C636 1.356 . S
N634 H646 0.984 . S
N634 H647 0.985 . S
N635 C637 1.356 1_545 S
N635 H640 0.984 . S
N635 H641 0.985 . S
C636 C630 1.379 . S
C636 C633 1.363 . S
C636 N634 1.356 . S
C637 C631 1.363 1_565 S
C637 C632 1.379 . S
C637 N635 1.356 1_565 S
N638 C630 1.356 . S
N638 H644 0.984 . S
N638 H645 0.984 1_565 S
N639 C632 1.356 . S
N639 H642 0.984 . S
N639 H643 0.985 . S
H640 N635 0.984 . S
H641 N635 0.985 . S
H642 N639 0.984 . S
H643 N639 0.985 . S
H644 N638 0.984 . S
H645 N638 0.984 1_545 S
H646 N634 0.984 . S
H647 N634 0.985 . S
C648 C649 1.363 . S
C648 C654 1.379 . S
C648 N656 1.356 1_565 S
C649 C648 1.363 . S
C649 C655 1.363 . S
C650 C651 1.363 . S
C650 C655 1.379 . S
C650 N657 1.356 . S
C651 C650 1.363 . S
C651 C654 1.363 . S
N652 C654 1.356 . S
N652 H664 0.984 . S
N652 H665 0.985 . S
N653 C655 1.354 1_545 S
N653 H658 0.987 . S
N653 H659 0.984 1_545 S
C654 C648 1.379 . S
C654 C651 1.363 . S
C654 N652 1.356 . S
C655 C649 1.363 . S
C655 C650 1.379 . S
C655 N653 1.354 1_565 S
N656 C648 1.356 1_545 S
N656 H662 0.984 . S
N656 H663 0.984 . S
N657 C650 1.356 . S
N657 H660 0.984 . S
N657 H661 0.985 . S
H658 N653 0.987 . S
H659 N653 0.984 1_565 S
H660 N657 0.984 . S
H661 N657 0.985 . S
H662 N656 0.984 . S
H663 N656 0.984 . S
H664 N652 0.984 . S
H665 N652 0.985 . S
C666 C667 1.363 . S
C666 C672 1.379 1_565 S
C666 N674 1.356 . S
C667 C666 1.363 . S
C667 C673 1.363 1_565 S
C668 C669 1.363 . S
C668 C673 1.379 . S
C668 N675 1.356 . S
C669 C668 1.363 . S
C669 C672 1.363 . S
N670 C672 1.356 . S
N670 H682 0.984 . S
N670 H683 0.985 . S
N671 C673 1.356 1_565 S
N671 H676 0.984 . S
N671 H677 0.985 1_465 S
C672 C666 1.379 1_545 S
C672 C669 1.363 . S
C672 N670 1.356 . S
C673 C667 1.363 1_545 S
C673 C668 1.379 . S
C673 N671 1.356 1_545 S
N674 C666 1.356 . S
N674 H680 0.984 . S
N674 H681 0.984 . S
N675 C668 1.356 . S
N675 H678 0.984 . S
N675 H679 0.985 . S
H676 N671 0.984 . S
H677 N671 0.985 1_645 S
H678 N675 0.984 . S
H679 N675 0.985 . S
H680 N674 0.984 . S
H681 N674 0.984 . S
H682 N670 0.984 . S
H683 N670 0.985 . S
C684 C685 1.363 . S
C684 C690 1.379 . S
C684 N692 1.356 . S
C685 C684 1.363 . S
C685 C691 1.363 . S
C686 C687 1.363 . S
C686 C691 1.379 . S
C686 N693 1.356 . S
C687 C686 1.363 . S
C687 C690 1.363 . S
N688 C690 1.356 . S
N688 H700 0.984 . S
N688 H701 0.985 . S
N689 C691 1.356 . S
N689 H694 0.984 . S
N689 H695 0.985 . S
C690 C684 1.379 . S
C690 C687 1.363 . S
C690 N688 1.356 . S
C691 C685 1.363 . S
C691 C686 1.379 . S
C691 N689 1.356 . S
N692 C684 1.356 . S
N692 H698 0.984 . S
N692 H699 0.984 . S
N693 C686 1.356 . S
N693 H696 0.984 . S
N693 H697 0.985 . S
H694 N689 0.984 . S
H695 N689 0.985 . S
H696 N693 0.984 . S
H697 N693 0.985 . S
H698 N692 0.984 . S
H699 N692 0.984 . S
H700 N688 0.984 . S
H701 N688 0.985 . S
C702 C703 1.363 . S
C702 C708 1.379 . S
C702 N710 1.356 . S
C703 C702 1.363 . S
C703 C709 1.363 . S
C704 C705 1.363 . S
C704 C709 1.379 . S
C704 N711 1.356 . S
C705 C704 1.363 . S
C705 C708 1.363 . S
N706 C708 1.356 . S
N706 H718 0.984 . S
N706 H719 0.985 . S
N707 C709 1.356 . S
N707 H712 0.984 . S
N707 H713 0.985 . S
C708 C702 1.379 . S
C708 C705 1.363 . S
C708 N706 1.356 . S
C709 C703 1.363 . S
C709 C704 1.379 . S
C709 N707 1.356 . S
N710 C702 1.356 . S
N710 H716 0.984 . S
N710 H717 0.984 . S
N711 C704 1.356 . S
N711 H714 0.984 . S
N711 H715 0.985 . S
H712 N707 0.984 . S
H713 N707 0.985 . S
H714 N711 0.984 . S
H715 N711 0.985 . S
H716 N710 0.984 . S
H717 N710 0.984 . S
H718 N706 0.984 . S
H719 N706 0.985 . S
C720 C721 1.363 . S
C720 C726 1.379 . S
C720 N728 1.356 . S
C721 C720 1.363 . S
C721 C727 1.363 . S
C722 C723 1.363 . S
C722 C727 1.379 . S
C722 N729 1.356 . S
C723 C722 1.363 . S
C723 C726 1.363 . S
N724 C726 1.356 . S
N724 H736 0.984 . S
N724 H737 0.985 . S
N725 C727 1.356 . S
N725 H730 0.984 . S
N725 H731 0.985 . S
C726 C720 1.379 . S
C726 C723 1.363 . S
C726 N724 1.356 . S
C727 C721 1.363 . S
C727 C722 1.379 . S
C727 N725 1.356 . S
N728 C720 1.356 . S
N728 H734 0.984 . S
N728 H735 0.984 . S
N729 C722 1.356 . S
N729 H732 0.984 . S
N729 H733 0.985 . S
H730 N725 0.984 . S
H731 N725 0.985 . S
H732 N729 0.984 . S
H733 N729 0.985 . S
H734 N728 0.984 . S
H735 N728 0.984 . S
H736 N724 0.984 . S
H737 N724 0.985 . S
C738 C739 1.363 . S
C738 C744 1.379 . S
C738 N746 1.356 . S
C739 C738 1.363 . S
C739 C745 1.363 . S
C740 C741 1.363 . S
C740 C745 1.379 . S
C740 N747 1.356 . S
C741 C740 1.363 . S
C741 C744 1.363 . S
N742 C744 1.356 . S
N742 H754 0.984 . S
N742 H755 0.985 . S
N743 C745 1.356 . S
N743 H748 0.984 . S
N743 H749 0.985 . S
C744 C738 1.379 . S
C744 C741 1.363 . S
C744 N742 1.356 . S
C745 C739 1.363 . S
C745 C740 1.379 . S
C745 N743 1.356 . S
N746 C738 1.356 . S
N746 H752 0.984 . S
N746 H753 0.984 . S
N747 C740 1.356 . S
N747 H750 0.984 . S
N747 H751 0.985 . S
H748 N743 0.984 . S
H749 N743 0.985 . S
H750 N747 0.984 . S
H751 N747 0.985 . S
H752 N746 0.984 . S
H753 N746 0.984 . S
H754 N742 0.984 . S
H755 N742 0.985 . S
C756 C757 1.363 . S
C756 C762 1.379 . S
C756 N764 1.356 . S
C757 C756 1.363 . S
C757 C763 1.363 . S
C758 C759 1.363 . S
C758 C763 1.379 . S
C758 N765 1.356 . S
C759 C758 1.363 . S
C759 C762 1.363 . S
N760 C762 1.356 . S
N760 H772 0.984 . S
N760 H773 0.985 . S
N761 C763 1.356 . S
N761 H766 0.984 . S
N761 H767 0.985 . S
C762 C756 1.379 . S
C762 C759 1.363 . S
C762 N760 1.356 . S
C763 C757 1.363 . S
C763 C758 1.379 . S
C763 N761 1.356 . S
N764 C756 1.356 . S
N764 H770 0.984 . S
N764 H771 0.984 . S
N765 C758 1.356 . S
N765 H768 0.984 . S
N765 H769 0.985 . S
H766 N761 0.984 . S
H767 N761 0.985 . S
H768 N765 0.984 . S
H769 N765 0.985 . S
H770 N764 0.984 . S
H771 N764 0.984 . S
H772 N760 0.984 . S
H773 N760 0.985 . S
C774 C775 1.363 . S
C774 C780 1.379 . S
C774 N782 1.356 . S
C775 C774 1.363 . S
C775 C781 1.363 . S
C776 C777 1.363 . S
C776 C781 1.379 . S
C776 N783 1.356 . S
C777 C776 1.363 . S
C777 C780 1.363 . S
N778 C780 1.356 . S
N778 H790 0.984 . S
N778 H791 0.985 . S
N779 C781 1.356 . S
N779 H784 0.984 . S
N779 H785 0.985 . S
C780 C774 1.379 . S
C780 C777 1.363 . S
C780 N778 1.356 . S
C781 C775 1.363 . S
C781 C776 1.379 . S
C781 N779 1.356 . S
N782 C774 1.356 . S
N782 H788 0.984 . S
N782 H789 0.984 . S
N783 C776 1.356 . S
N783 H786 0.984 . S
N783 H787 0.985 . S
H784 N779 0.984 . S
H785 N779 0.985 . S
H786 N783 0.984 . S
H787 N783 0.985 . S
H788 N782 0.984 . S
H789 N782 0.984 . S
H790 N778 0.984 . S
H791 N778 0.985 . S
C792 C793 1.363 . S
C792 C798 1.379 . S
C792 N800 1.356 . S
C793 C792 1.363 . S
C793 C799 1.363 . S
C794 C795 1.363 . S
C794 C799 1.379 . S
C794 N801 1.356 . S
C795 C794 1.363 . S
C795 C798 1.363 . S
N796 C798 1.356 . S
N796 H808 0.984 . S
N796 H809 0.985 . S
N797 C799 1.356 . S
N797 H802 0.984 . S
N797 H803 0.985 . S
C798 C792 1.379 . S
C798 C795 1.363 . S
C798 N796 1.356 . S
C799 C793 1.363 . S
C799 C794 1.379 . S
C799 N797 1.356 . S
N800 C792 1.356 . S
N800 H806 0.984 . S
N800 H807 0.984 . S
N801 C794 1.356 . S
N801 H804 0.984 . S
N801 H805 0.985 . S
H802 N797 0.984 . S
H803 N797 0.985 . S
H804 N801 0.984 . S
H805 N801 0.985 . S
H806 N800 0.984 . S
H807 N800 0.984 . S
H808 N796 0.984 . S
H809 N796 0.985 . S
C810 C811 1.363 . S
C810 C816 1.379 . S
C810 N818 1.356 . S
C811 C810 1.363 . S
C811 C817 1.363 . S
C812 C813 1.363 . S
C812 C817 1.379 . S
C812 N819 1.356 . S
C813 C812 1.363 . S
C813 C816 1.363 . S
N814 C816 1.356 . S
N814 H826 0.984 . S
N814 H827 0.985 . S
N815 C817 1.356 . S
N815 H820 0.984 . S
N815 H821 0.985 . S
C816 C810 1.379 . S
C816 C813 1.363 . S
C816 N814 1.356 . S
C817 C811 1.363 . S
C817 C812 1.379 . S
C817 N815 1.356 . S
N818 C810 1.356 . S
N818 H824 0.984 . S
N818 H825 0.984 . S
N819 C812 1.356 . S
N819 H822 0.984 . S
N819 H823 0.985 . S
H820 N815 0.984 . S
H821 N815 0.985 . S
H822 N819 0.984 . S
H823 N819 0.985 . S
H824 N818 0.984 . S
H825 N818 0.984 . S
H826 N814 0.984 . S
H827 N814 0.985 . S
C399 C319 1.497 . S
C397 C16 1.675 . S
C417 C337 1.341 . S
C415 C55 1.455 . S
C433 C99 1.476 . S
C435 C361 1.456 . S
C453 C391 1.409 1_655 S
C451 C138 1.511 . S
C471 C379 1.453 . S
C469 C172 1.477 . S
C487 C216 1.455 . S
C489 C332 1.351 1_655 S
C505 C255 1.679 . S
C507 C352 1.504 . S
C523 C289 1.519 . S
C525 C357 1.414 . S
C541 C294 1.449 . S
C543 C373 1.343 . S
C559 C211 1.520 . S
C561 C328 1.406 . S
C579 C395 1.357 . S
C577 C133 1.460 . S
C597 C340 1.399 . S
C595 C60 1.505 . S
C613 C94 1.672 . S
C615 C358 1.494 . S
C631 C21 1.484 . S
C633 C316 1.463 . S
C651 C336 1.449 . S
C649 C250 1.471 1_565 S
C669 C382 1.504 . S
C667 C177 1.689 . S
C687 C378 1.331 . S
C685 C1 1.528 . S
C705 C331 1.424 . S
C703 C40 1.490 . S
C721 C79 1.512 . S
C723 C353 1.309 . S
C739 C118 1.504 . S
C741 C374 1.431 . S
C759 C315 1.331 . S
C757 C157 1.536 . S
C775 C196 1.522 . S
C777 C349 1.436 . S
C795 C370 1.341 . S
C793 C235 1.548 . S
C813 C394 1.417 . S
C811 C274 1.503 . S
