# Generated by pormake.
# Topology ptr, (4,4)-cn, num edge types: 1
# Building blocks:
#     Node 0, Type 0, BuildingBlock: KUFVIS_clean_sbu_0, # of connection points: 4
#     Node 1, Type 0, BuildingBlock: KUFVIS_clean_sbu_0, # of connection points: 4
#     Node 2, Type 0, BuildingBlock: KUFVIS_clean_sbu_0, # of connection points: 4
#     Node 3, Type 0, BuildingBlock: KUFVIS_clean_sbu_0, # of connection points: 4
#     Node 4, Type 0, BuildingBlock: KUFVIS_clean_sbu_0, # of connection points: 4
#     Node 5, Type 0, BuildingBlock: KUFVIS_clean_sbu_0, # of connection points: 4
#     Node 6, Type 0, BuildingBlock: KUFVIS_clean_sbu_0, # of connection points: 4
#     Node 7, Type 0, BuildingBlock: KUFVIS_clean_sbu_0, # of connection points: 4
#     Node 8, Type 0, BuildingBlock: KUFVIS_clean_sbu_0, # of connection points: 4
#     Node 9, Type 0, BuildingBlock: KUFVIS_clean_sbu_0, # of connection points: 4
#     Node 10, Type 0, BuildingBlock: KUFVIS_clean_sbu_0, # of connection points: 4
#     Node 11, Type 0, BuildingBlock: KUFVIS_clean_sbu_0, # of connection points: 4
#     Node 12, Type 0, BuildingBlock: KUFVIS_clean_sbu_0, # of connection points: 4
#     Node 13, Type 0, BuildingBlock: KUFVIS_clean_sbu_0, # of connection points: 4
#     Node 14, Type 0, BuildingBlock: KUFVIS_clean_sbu_0, # of connection points: 4
#     Node 15, Type 0, BuildingBlock: KUFVIS_clean_sbu_0, # of connection points: 4
#     Node 16, Type 0, BuildingBlock: KUFVIS_clean_sbu_0, # of connection points: 4
#     Node 17, Type 0, BuildingBlock: KUFVIS_clean_sbu_0, # of connection points: 4
#     Node 18, Type 1, BuildingBlock: GIZVER_clean_linker_0, # of connection points: 4
#     Node 19, Type 1, BuildingBlock: GIZVER_clean_linker_0, # of connection points: 4
#     Node 20, Type 1, BuildingBlock: GIZVER_clean_linker_0, # of connection points: 4
#     Node 21, Type 1, BuildingBlock: GIZVER_clean_linker_0, # of connection points: 4
#     Node 22, Type 1, BuildingBlock: GIZVER_clean_linker_0, # of connection points: 4
#     Node 23, Type 1, BuildingBlock: GIZVER_clean_linker_0, # of connection points: 4
#     Node 24, Type 1, BuildingBlock: GIZVER_clean_linker_0, # of connection points: 4
#     Node 25, Type 1, BuildingBlock: GIZVER_clean_linker_0, # of connection points: 4
#     Node 26, Type 1, BuildingBlock: GIZVER_clean_linker_0, # of connection points: 4
#     Node 27, Type 1, BuildingBlock: GIZVER_clean_linker_0, # of connection points: 4
#     Node 28, Type 1, BuildingBlock: GIZVER_clean_linker_0, # of connection points: 4
#     Node 29, Type 1, BuildingBlock: GIZVER_clean_linker_0, # of connection points: 4
#     Node 30, Type 1, BuildingBlock: GIZVER_clean_linker_0, # of connection points: 4
#     Node 31, Type 1, BuildingBlock: GIZVER_clean_linker_0, # of connection points: 4
#     Node 32, Type 1, BuildingBlock: GIZVER_clean_linker_0, # of connection points: 4
#     Node 33, Type 1, BuildingBlock: GIZVER_clean_linker_0, # of connection points: 4
#     Node 34, Type 1, BuildingBlock: GIZVER_clean_linker_0, # of connection points: 4
#     Node 35, Type 1, BuildingBlock: GIZVER_clean_linker_0, # of connection points: 4
#     Edge 36, Type (0, 1), BuildingBlock: TEMPAE_clean_linker_10, # of connection points: 2
#     Edge 37, Type (0, 1), BuildingBlock: TEMPAE_clean_linker_10, # of connection points: 2
#     Edge 38, Type (0, 1), BuildingBlock: TEMPAE_clean_linker_10, # of connection points: 2
#     Edge 39, Type (0, 1), BuildingBlock: TEMPAE_clean_linker_10, # of connection points: 2
#     Edge 40, Type (0, 1), BuildingBlock: TEMPAE_clean_linker_10, # of connection points: 2
#     Edge 41, Type (0, 1), BuildingBlock: TEMPAE_clean_linker_10, # of connection points: 2
#     Edge 42, Type (0, 1), BuildingBlock: TEMPAE_clean_linker_10, # of connection points: 2
#     Edge 43, Type (0, 1), BuildingBlock: TEMPAE_clean_linker_10, # of connection points: 2
#     Edge 44, Type (0, 1), BuildingBlock: TEMPAE_clean_linker_10, # of connection points: 2
#     Edge 45, Type (0, 1), BuildingBlock: TEMPAE_clean_linker_10, # of connection points: 2
#     Edge 46, Type (0, 1), BuildingBlock: TEMPAE_clean_linker_10, # of connection points: 2
#     Edge 47, Type (0, 1), BuildingBlock: TEMPAE_clean_linker_10, # of connection points: 2
#     Edge 48, Type (0, 1), BuildingBlock: TEMPAE_clean_linker_10, # of connection points: 2
#     Edge 49, Type (0, 1), BuildingBlock: TEMPAE_clean_linker_10, # of connection points: 2
#     Edge 50, Type (0, 1), BuildingBlock: TEMPAE_clean_linker_10, # of connection points: 2
#     Edge 51, Type (0, 1), BuildingBlock: TEMPAE_clean_linker_10, # of connection points: 2
#     Edge 52, Type (0, 1), BuildingBlock: TEMPAE_clean_linker_10, # of connection points: 2
#     Edge 53, Type (0, 1), BuildingBlock: TEMPAE_clean_linker_10, # of connection points: 2
#     Edge 54, Type (0, 1), BuildingBlock: TEMPAE_clean_linker_10, # of connection points: 2
#     Edge 55, Type (0, 1), BuildingBlock: TEMPAE_clean_linker_10, # of connection points: 2
#     Edge 56, Type (0, 1), BuildingBlock: TEMPAE_clean_linker_10, # of connection points: 2
#     Edge 57, Type (0, 1), BuildingBlock: TEMPAE_clean_linker_10, # of connection points: 2
#     Edge 58, Type (0, 1), BuildingBlock: TEMPAE_clean_linker_10, # of connection points: 2
#     Edge 59, Type (0, 1), BuildingBlock: TEMPAE_clean_linker_10, # of connection points: 2
#     Edge 60, Type (0, 1), BuildingBlock: TEMPAE_clean_linker_10, # of connection points: 2
#     Edge 61, Type (0, 1), BuildingBlock: TEMPAE_clean_linker_10, # of connection points: 2
#     Edge 62, Type (0, 1), BuildingBlock: TEMPAE_clean_linker_10, # of connection points: 2
#     Edge 63, Type (0, 1), BuildingBlock: TEMPAE_clean_linker_10, # of connection points: 2
#     Edge 64, Type (0, 1), BuildingBlock: TEMPAE_clean_linker_10, # of connection points: 2
#     Edge 65, Type (0, 1), BuildingBlock: TEMPAE_clean_linker_10, # of connection points: 2
#     Edge 66, Type (0, 1), BuildingBlock: TEMPAE_clean_linker_10, # of connection points: 2
#     Edge 67, Type (0, 1), BuildingBlock: TEMPAE_clean_linker_10, # of connection points: 2
#     Edge 68, Type (0, 1), BuildingBlock: TEMPAE_clean_linker_10, # of connection points: 2
#     Edge 69, Type (0, 1), BuildingBlock: TEMPAE_clean_linker_10, # of connection points: 2
#     Edge 70, Type (0, 1), BuildingBlock: TEMPAE_clean_linker_10, # of connection points: 2
#     Edge 71, Type (0, 1), BuildingBlock: TEMPAE_clean_linker_10, # of connection points: 2
#     Edge 72, Type (0, 1), BuildingBlock: TEMPAE_clean_linker_10, # of connection points: 2
#     Edge 73, Type (0, 1), BuildingBlock: TEMPAE_clean_linker_10, # of connection points: 2
#     Edge 74, Type (0, 1), BuildingBlock: TEMPAE_clean_linker_10, # of connection points: 2
#     Edge 75, Type (0, 1), BuildingBlock: TEMPAE_clean_linker_10, # of connection points: 2
#     Edge 76, Type (0, 1), BuildingBlock: TEMPAE_clean_linker_10, # of connection points: 2
#     Edge 77, Type (0, 1), BuildingBlock: TEMPAE_clean_linker_10, # of connection points: 2
#     Edge 78, Type (0, 1), BuildingBlock: TEMPAE_clean_linker_10, # of connection points: 2
#     Edge 79, Type (0, 1), BuildingBlock: TEMPAE_clean_linker_10, # of connection points: 2
#     Edge 80, Type (0, 1), BuildingBlock: TEMPAE_clean_linker_10, # of connection points: 2
#     Edge 81, Type (0, 1), BuildingBlock: TEMPAE_clean_linker_10, # of connection points: 2
#     Edge 82, Type (0, 1), BuildingBlock: TEMPAE_clean_linker_10, # of connection points: 2
#     Edge 83, Type (0, 1), BuildingBlock: TEMPAE_clean_linker_10, # of connection points: 2
#     Edge 84, Type (0, 1), BuildingBlock: TEMPAE_clean_linker_10, # of connection points: 2
#     Edge 85, Type (0, 1), BuildingBlock: TEMPAE_clean_linker_10, # of connection points: 2
#     Edge 86, Type (0, 1), BuildingBlock: TEMPAE_clean_linker_10, # of connection points: 2
#     Edge 87, Type (0, 1), BuildingBlock: TEMPAE_clean_linker_10, # of connection points: 2
#     Edge 88, Type (0, 1), BuildingBlock: TEMPAE_clean_linker_10, # of connection points: 2
#     Edge 89, Type (0, 1), BuildingBlock: TEMPAE_clean_linker_10, # of connection points: 2
#     Edge 90, Type (0, 1), BuildingBlock: TEMPAE_clean_linker_10, # of connection points: 2
#     Edge 91, Type (0, 1), BuildingBlock: TEMPAE_clean_linker_10, # of connection points: 2
#     Edge 92, Type (0, 1), BuildingBlock: TEMPAE_clean_linker_10, # of connection points: 2
#     Edge 93, Type (0, 1), BuildingBlock: TEMPAE_clean_linker_10, # of connection points: 2
#     Edge 94, Type (0, 1), BuildingBlock: TEMPAE_clean_linker_10, # of connection points: 2
#     Edge 95, Type (0, 1), BuildingBlock: TEMPAE_clean_linker_10, # of connection points: 2
#     Edge 96, Type (0, 1), BuildingBlock: TEMPAE_clean_linker_10, # of connection points: 2
#     Edge 97, Type (0, 1), BuildingBlock: TEMPAE_clean_linker_10, # of connection points: 2
#     Edge 98, Type (0, 1), BuildingBlock: TEMPAE_clean_linker_10, # of connection points: 2
#     Edge 99, Type (0, 1), BuildingBlock: TEMPAE_clean_linker_10, # of connection points: 2
#     Edge 100, Type (0, 1), BuildingBlock: TEMPAE_clean_linker_10, # of connection points: 2
#     Edge 101, Type (0, 1), BuildingBlock: TEMPAE_clean_linker_10, # of connection points: 2
#     Edge 102, Type (0, 1), BuildingBlock: TEMPAE_clean_linker_10, # of connection points: 2
#     Edge 103, Type (0, 1), BuildingBlock: TEMPAE_clean_linker_10, # of connection points: 2
#     Edge 104, Type (0, 1), BuildingBlock: TEMPAE_clean_linker_10, # of connection points: 2
#     Edge 105, Type (0, 1), BuildingBlock: TEMPAE_clean_linker_10, # of connection points: 2
#     Edge 106, Type (0, 1), BuildingBlock: TEMPAE_clean_linker_10, # of connection points: 2
#     Edge 107, Type (0, 1), BuildingBlock: TEMPAE_clean_linker_10, # of connection points: 2
# Relax obj value: 0.051
# Max RMSD: 0.133
# Mean RMSD: 0.084
data_MOF--net-ptr--node1-KUFVIS_clean_sbu_0--node2-GIZVER_clean_linker_0--edge1-TEMPAE_clean_linker_10
_symmetry_space_group_name_H-M    P1
_symmetry_Int_Tables_number       1
_symmetry_cell_setting            triclinic
loop_
_symmetry_equiv_pos_as_xyz
'x, y, z'
_cell_length_a     80.45475
_cell_length_b     80.036851
_cell_length_c     49.352025
_cell_angle_alpha  89.900784
_cell_angle_beta   91.09405
_cell_angle_gamma 119.52059
loop_
_atom_site_label
_atom_site_type_symbol
_atom_site_fract_x
_atom_site_fract_y
_atom_site_fract_z
_atom_type_partial_charge
Mn0 Mn 1.00258 0.38288 0.9858 0.0
Mn1 Mn 0.04264 0.42156 0.96386 0.0
C2 C 1.0002 0.40451 0.95694 0.0
C3 C 0.97894 0.35065 0.98214 0.0
C4 C 0.02658 0.41934 0.01964 0.0
O5 O 0.02333 0.37601 0.99486 0.0
O6 O 0.04864 0.40172 0.97731 0.0
C7 C 0.04977 0.4032 0.91682 0.0
N8 N 0.04723 0.41749 0.92729 0.0
C9 C 0.05388 0.4337 0.88449 0.0
C10 C 0.05667 0.41921 0.87323 0.0
C11 C 0.05446 0.40382 0.88944 0.0
C12 C 0.04891 0.43213 0.91176 0.0
H13 H 0.04829 0.39146 0.92931 0.0
C14 C 0.04098 0.38536 0.9889 0.0
O15 O 0.98307 0.35984 0.0051 0.0
O16 O 0.98898 0.36003 0.96148 0.0
N17 N 0.03952 0.44215 0.94991 0.0
C18 C 0.03557 0.4545 0.96361 0.0
C19 C 0.03722 0.47078 0.95041 0.0
C20 C 0.04321 0.47434 0.92345 0.0
C21 C 0.04692 0.46127 0.90962 0.0
C22 C 0.04509 0.44535 0.92385 0.0
H23 H 0.03147 0.45212 0.98458 0.0
O24 O 0.98596 0.39307 0.97177 0.0
O25 O 0.01538 0.40264 0.95877 0.0
O26 O 0.01215 0.40261 0.01664 0.0
O27 O 0.03908 0.42753 0.00145 0.0
C28 C 0.05255 0.46352 0.88238 0.0
C29 C 0.05582 0.44963 0.86973 0.0
H30 H 0.06043 0.41972 0.85217 0.0
H31 H 0.05653 0.39255 0.88089 0.0
H32 H 0.03423 0.48075 0.96114 0.0
H33 H 0.04491 0.48717 0.91359 0.0
H34 H 0.05429 0.4758 0.87089 0.0
H35 H 0.05982 0.45134 0.84865 0.0
Mn36 Mn 0.63018 0.63136 0.01598 0.0
Mn37 Mn 0.63379 0.59342 0.03934 0.0
C38 C 0.60814 0.61031 0.04649 0.0
C39 C 0.63813 0.66366 0.01858 0.0
C40 C 0.6165 0.59388 0.98442 0.0
O41 O 0.65709 0.63794 0.00488 0.0
O42 O 0.6583 0.61287 0.02361 0.0
C43 C 0.66135 0.61417 0.08421 0.0
N44 N 0.64455 0.59907 0.07523 0.0
C45 C 0.63796 0.58495 0.11953 0.0
C46 C 0.65534 0.6002 0.12919 0.0
C47 C 0.66701 0.61496 0.11149 0.0
C48 C 0.63295 0.58513 0.09226 0.0
H49 H 0.6703 0.62553 0.07067 0.0
C50 C 0.66585 0.62873 0.0108 0.0
O51 O 0.632 0.65392 0.9961 0.0
O52 O 0.64032 0.65482 0.03925 0.0
N53 N 0.61162 0.5731 0.05553 0.0
C54 C 0.59513 0.55966 0.04315 0.0
C55 C 0.58199 0.54373 0.05786 0.0
C56 C 0.5861 0.54159 0.08498 0.0
C57 C 0.60305 0.55568 0.09744 0.0
C58 C 0.61567 0.57117 0.08168 0.0
H59 H 0.5922 0.56085 0.02206 0.0
O60 O 0.60439 0.62151 0.03175 0.0
O61 O 0.62508 0.61224 0.0439 0.0
O62 O 0.61865 0.6107 0.98636 0.0
O63 O 0.62191 0.5861 0.0026 0.0
C64 C 0.60806 0.55485 0.12473 0.0
C65 C 0.62538 0.56962 0.13587 0.0
H66 H 0.6598 0.60078 0.15017 0.0
H67 H 0.68036 0.62687 0.11883 0.0
H68 H 0.5689 0.53291 0.04815 0.0
H69 H 0.57617 0.52899 0.09601 0.0
H70 H 0.59864 0.54301 0.13741 0.0
H71 H 0.62893 0.56899 0.157 0.0
Mn72 Mn 0.37183 0.99328 0.01555 0.0
Mn73 Mn 0.41379 0.0345 0.02483 0.0
C74 C 0.39508 0.994 0.04459 0.0
C75 C 0.33998 0.97222 0.02618 0.0
C76 C 0.40519 0.00855 0.97609 0.0
O77 O 0.36568 0.01359 0.00101 0.0
O78 O 0.39441 0.04002 0.00794 0.0
C79 C 0.40106 0.0522 0.06633 0.0
N80 N 0.41334 0.04613 0.05838 0.0
C81 C 0.43189 0.05778 0.09976 0.0
C82 C 0.4195 0.06425 0.10835 0.0
C83 C 0.40397 0.06136 0.09162 0.0
C84 C 0.42818 0.04862 0.07446 0.0
H85 H 0.38917 0.0501 0.05346 0.0
C86 C 0.37693 0.03168 -0.00013 0.0
O87 O 0.34659 0.97203 0.00247 0.0
O88 O 0.35167 0.98515 0.04334 0.0
N89 N 0.43407 0.03177 0.04112 0.0
C90 C 0.44408 0.02381 0.03042 0.0
C91 C 0.4599 0.02515 0.04484 0.0
C92 C 0.46544 0.0349 0.06986 0.0
C93 C 0.4549 0.04295 0.08049 0.0
C94 C 0.43928 0.04118 0.06519 0.0
H95 H 0.44005 0.01655 0.011 0.0
O96 O 0.38188 0.97791 0.03416 0.0
O97 O 0.39417 0.00933 0.03812 0.0
O98 O 0.38827 0.99613 0.98265 0.0
O99 O 0.41591 0.02355 0.99017 0.0
C100 C 0.45925 0.05263 0.10567 0.0
C101 C 0.44768 0.05992 0.11538 0.0
H102 H 0.42173 0.07136 0.12782 0.0
H103 H 0.39431 0.06625 0.09815 0.0
H104 H 0.46793 0.01884 0.03657 0.0
H105 H 0.47782 0.03612 0.08072 0.0
H106 H 0.47134 0.05438 0.11787 0.0
H107 H 0.45098 0.06705 0.13497 0.0
Mn108 Mn 0.00814 0.62926 0.99561 0.0
Mn109 Mn 0.05187 0.63698 0.97838 0.0
C110 C 0.01095 0.60867 0.9654 0.0
C111 C 0.98244 0.63496 0.98962 0.0
C112 C 0.03295 0.61841 0.03116 0.0
O113 O 0.02582 0.65671 0.00885 0.0
O114 O 0.05384 0.66083 0.99367 0.0
C115 C 0.05849 0.66412 0.9336 0.0
N116 N 0.05775 0.64775 0.94295 0.0
C117 C 0.06819 0.64212 0.90031 0.0
C118 C 0.06933 0.65905 0.89032 0.0
C119 C 0.0643 0.67001 0.90697 0.0
C120 C 0.06206 0.63684 0.92688 0.0
H121 H 0.05464 0.67255 0.94636 0.0
C122 C 0.0437 0.66698 0.00502 0.0
O123 O 0.98575 0.62913 0.01261 0.0
O124 O 0.9943 0.63788 0.97033 0.0
N125 N 0.0527 0.61551 0.96292 0.0
C126 C 0.04983 0.59905 0.97515 0.0
C127 C 0.05385 0.58627 0.96107 0.0
C128 C 0.06113 0.59073 0.9348 0.0
C129 C 0.06394 0.60774 0.92259 0.0
C130 C 0.05962 0.61988 0.93758 0.0
H131 H 0.04465 0.59575 0.99557 0.0
O132 O 0.99512 0.60332 0.978 0.0
O133 O 0.02451 0.62618 0.97004 0.0
O134 O 0.01751 0.61888 0.02666 0.0
O135 O 0.04691 0.62532 0.01486 0.0
C136 C 0.07094 0.61318 0.89621 0.0
C137 C 0.07282 0.63022 0.88494 0.0
H138 H 0.0739 0.6637 0.86983 0.0
H139 H 0.06498 0.68302 0.89935 0.0
H140 H 0.0516 0.57314 0.97058 0.0
H141 H 0.06454 0.581 0.9242 0.0
H142 H 0.07481 0.60431 0.8843 0.0
H143 H 0.07784 0.63404 0.86444 0.0
Mn144 Mn 0.3718 0.37302 0.01968 0.0
Mn145 Mn 0.4099 0.36893 0.04053 0.0
C146 C 0.39409 0.39542 0.04989 0.0
C147 C 0.33971 0.36482 0.02425 0.0
C148 C 0.40753 0.38548 0.98602 0.0
O149 O 0.36458 0.3458 0.00764 0.0
O150 O 0.38945 0.34393 0.026 0.0
C151 C 0.39159 0.34278 0.08649 0.0
N152 N 0.40614 0.35933 0.07665 0.0
C153 C 0.4227 0.36719 0.11982 0.0
C154 C 0.408 0.35011 0.13038 0.0
C155 C 0.39229 0.33793 0.11369 0.0
C156 C 0.42103 0.3714 0.09271 0.0
H157 H 0.37955 0.33338 0.07367 0.0
C158 C 0.37334 0.33657 0.01337 0.0
O159 O 0.34838 0.37085 0.00141 0.0
O160 O 0.34955 0.36312 0.04413 0.0
N161 N 0.43111 0.39163 0.05542 0.0
C162 C 0.4437 0.40789 0.04239 0.0
C163 C 0.46028 0.42157 0.05616 0.0
C164 C 0.46392 0.41822 0.08298 0.0
C165 C 0.45068 0.40149 0.0961 0.0
C166 C 0.43443 0.38836 0.08133 0.0
H167 H 0.44124 0.4103 0.02153 0.0
O168 O 0.38242 0.39916 0.03618 0.0
O169 O 0.39185 0.3783 0.0465 0.0
O170 O 0.39122 0.38418 0.98927 0.0
O171 O 0.41534 0.37949 0.00342 0.0
C172 C 0.45305 0.3972 0.12313 0.0
C173 C 0.43893 0.3802 0.13511 0.0
H174 H 0.40857 0.34625 0.15129 0.0
H175 H 0.38083 0.32478 0.12172 0.0
H176 H 0.47041 0.43451 0.04597 0.0
H177 H 0.47697 0.4286 0.09329 0.0
H178 H 0.46559 0.40694 0.13499 0.0
H179 H 0.44073 0.37725 0.15606 0.0
Mn180 Mn 0.62752 0.01831 0.00858 0.0
Mn181 Mn 0.5882 0.97518 0.99656 0.0
C182 C 0.60332 0.01595 0.97983 0.0
C183 C 0.65877 0.042 -0.00034 0.0
C184 C 0.5939 0.99859 0.0471 0.0
O185 O 0.63632 0.99957 0.02125 0.0
O186 O 0.60904 0.97187 0.01301 0.0
C187 C 0.6045 0.96185 0.95393 0.0
N188 N 0.59057 0.9655 0.96236 0.0
C189 C 0.5724 0.95263 0.92096 0.0
C190 C 0.58651 0.94866 0.91183 0.0
C191 C 0.60269 0.95341 0.92833 0.0
C192 C 0.57516 0.96136 0.94643 0.0
H193 H 0.61684 0.96528 0.96669 0.0
C194 C 0.62641 0.98129 0.02138 0.0
O195 O 0.65134 0.04062 0.02322 0.0
O196 O 0.64818 0.02932 0.98142 0.0
N197 N 0.56659 0.97555 0.98051 0.0
C198 C 0.55465 0.98092 0.99197 0.0
C199 C 0.53766 0.97701 0.97824 0.0
C200 C 0.53298 0.96734 0.95316 0.0
C201 C 0.54561 0.96217 0.9416 0.0
C202 C 0.5623 0.96641 0.95624 0.0
H203 H 0.55793 0.98788 0.0116 0.0
O204 O 0.61522 0.03217 0.99138 0.0
O205 O 0.60607 1.00152 0.98501 0.0
O206 O 0.61042 0.01231 0.04154 0.0
O207 O 0.58419 0.98403 0.03178 0.0
C208 C 0.5422 0.95277 0.91629 0.0
C209 C 0.5557 0.94823 0.90582 0.0
H210 H 0.58508 0.942 0.8922 0.0
H211 H 0.61366 0.95043 0.92142 0.0
H212 H 0.52802 0.98113 0.9872 0.0
H213 H 0.51963 0.96394 0.94297 0.0
H214 H 0.52929 0.94906 0.90461 0.0
H215 H 0.55307 0.9413 0.88615 0.0
Mn216 Mn 0.67409 0.71752 0.3198 0.0
Mn217 Mn 0.71665 0.75434 0.30075 0.0
C218 C 0.67518 0.74075 0.29059 0.0
C219 C 0.6486 0.68616 0.31487 0.0
C220 C 0.6991 0.75301 0.35505 0.0
O221 O 0.69276 0.70815 0.33051 0.0
O222 O 0.71984 0.73296 0.31505 0.0
C223 C 0.72319 0.73462 0.25486 0.0
N224 N 0.72196 0.74983 0.26479 0.0
C225 C 0.73153 0.76635 0.22233 0.0
C226 C 0.73307 0.75095 0.21168 0.0
C227 C 0.72872 0.73494 0.22796 0.0
C228 C 0.72562 0.76506 0.24911 0.0
H229 H 0.72 0.72237 0.26738 0.0
C230 C 0.71063 0.71643 0.3259 0.0
O231 O 0.65267 0.69525 0.3379 0.0
O232 O 0.65967 0.69511 0.29482 0.0
N233 N 0.71628 0.77627 0.28606 0.0
C234 C 0.71323 0.7895 0.29904 0.0
C235 C 0.71679 0.80636 0.28554 0.0
C236 C 0.72383 0.80962 0.2591 0.0
C237 C 0.72673 0.79574 0.24608 0.0
C238 C 0.72288 0.7792 0.26051 0.0
H239 H 0.70832 0.7873 0.31963 0.0
O240 O 0.65994 0.73008 0.30424 0.0
O241 O 0.68922 0.73719 0.29372 0.0
O242 O 0.68403 0.73688 0.35109 0.0
O243 O 0.7124 0.76068 0.3378 0.0
C244 C 0.73348 0.79773 0.21946 0.0
C245 C 0.73562 0.78293 0.20746 0.0
H246 H 0.73749 0.75122 0.19101 0.0
H247 H 0.72978 0.72295 0.21985 0.0
H248 H 0.71444 0.81698 0.29566 0.0
H249 H 0.72695 0.82284 0.249 0.0
H250 H 0.73696 0.81052 0.20793 0.0
H251 H 0.74045 0.78447 0.1868 0.0
Mn252 Mn 0.29488 0.96529 0.35802 0.0
Mn253 Mn 0.29959 0.92798 0.38132 0.0
C254 C 0.27299 0.94384 0.3883 0.0
C255 C 0.30221 0.99738 0.36032 0.0
C256 C 0.28243 0.92819 0.32625 0.0
O257 O 0.32196 0.97248 0.34702 0.0
O258 O 0.32403 0.94802 0.36621 0.0
C259 C 0.32646 0.94879 0.42684 0.0
N260 N 0.30992 0.93354 0.41744 0.0
C261 C 0.3032 0.91892 0.46141 0.0
C262 C 0.32028 0.93436 0.47153 0.0
C263 C 0.33188 0.94944 0.45421 0.0
C264 C 0.2984 0.91925 0.43409 0.0
H265 H 0.33539 0.96037 0.41356 0.0
C266 C 0.3312 0.96381 0.35324 0.0
O267 O 0.29625 0.98754 0.33792 0.0
O268 O 0.30451 0.98875 0.38118 0.0
N269 N 0.27752 0.90714 0.39688 0.0
C270 C 0.26133 0.89354 0.38406 0.0
C271 C 0.24837 0.87724 0.3983 0.0
C272 C 0.25234 0.87493 0.42543 0.0
C273 C 0.26894 0.88923 0.43836 0.0
C274 C 0.28141 0.90507 0.42305 0.0
H275 H 0.25851 0.8949 0.36296 0.0
O276 O 0.26898 0.9549 0.37362 0.0
O277 O 0.29011 0.94622 0.38587 0.0
O278 O 0.28382 0.94468 0.32845 0.0
O279 O 0.28824 0.92069 0.34431 0.0
C280 C 0.27375 0.88827 0.46572 0.0
C281 C 0.29075 0.90323 0.47733 0.0
H282 H 0.32458 0.93482 0.49257 0.0
H283 H 0.34502 0.96147 0.4619 0.0
H284 H 0.23553 0.86629 0.38824 0.0
H285 H 0.24258 0.86205 0.43608 0.0
H286 H 0.26442 0.87616 0.47807 0.0
H287 H 0.29414 0.90248 0.49849 0.0
Mn288 Mn 0.03558 0.32449 0.34266 0.0
Mn289 Mn 0.07676 0.36558 0.35644 0.0
C290 C 0.05871 0.32421 0.37109 0.0
C291 C 0.00372 0.30188 0.35154 0.0
C292 C 0.07027 0.34257 0.30517 0.0
O293 O 0.02876 0.34491 0.33114 0.0
O294 O 0.05759 0.37104 0.33859 0.0
C295 C 0.06106 0.38038 0.39799 0.0
N296 N 0.07431 0.37549 0.39044 0.0
C297 C 0.09112 0.38622 0.43328 0.0
C298 C 0.07771 0.39145 0.44148 0.0
C299 C 0.06256 0.38843 0.4238 0.0
C300 C 0.08876 0.37806 0.40745 0.0
H301 H 0.04948 0.3782 0.38441 0.0
C302 C 0.04013 0.36298 0.33045 0.0
O303 O 0.01078 0.30341 0.32764 0.0
O304 O 0.01494 0.31398 0.36991 0.0
N305 N 0.09697 0.36327 0.37381 0.0
C306 C 0.10824 0.35673 0.36323 0.0
C307 C 0.12424 0.35894 0.37815 0.0
C308 C 0.12857 0.36802 0.40365 0.0
C309 C 0.11657 0.3743 0.41438 0.0
C310 C 0.10096 0.3719 0.39844 0.0
H311 H 0.10506 0.34989 0.34357 0.0
O312 O 0.04613 0.3087 0.35866 0.0
O313 O 0.05732 0.33957 0.36694 0.0
O314 O 0.05281 0.3303 0.30952 0.0
O315 O 0.08073 0.35615 0.3217 0.0
C316 C 0.11951 0.3829 0.44021 0.0
C317 C 0.1067 0.38871 0.44975 0.0
H318 H 0.07887 0.39775 0.46132 0.0
H319 H 0.05212 0.39238 0.43 0.0
H320 H 0.13332 0.35386 0.36989 0.0
H321 H 0.14119 0.37011 0.41479 0.0
H322 H 0.13145 0.38492 0.45303 0.0
H323 H 0.10895 0.39505 0.46979 0.0
Mn324 Mn 0.66737 0.95405 0.32789 0.0
Mn325 Mn 0.70786 0.9557 0.30672 0.0
C326 C 0.66549 0.93099 0.29762 0.0
C327 C 0.64416 0.96349 0.32388 0.0
C328 C 0.69053 0.94027 0.36155 0.0
O329 O 0.68814 0.98099 0.33929 0.0
O330 O 0.71374 0.98131 0.32097 0.0
C331 C 0.71575 0.982 0.26044 0.0
N332 N 0.71313 0.96504 0.2705 0.0
C333 C 0.72037 0.95618 0.22759 0.0
C334 C 0.72337 0.97365 0.21683 0.0
C335 C 0.72089 0.98655 0.23328 0.0
C336 C 0.71503 0.95234 0.25469 0.0
H337 H 0.71391 0.99194 0.27307 0.0
C338 C 0.70583 0.98945 0.33351 0.0
O339 O 0.64749 0.95748 0.34671 0.0
O340 O 0.65473 0.96456 0.30367 0.0
N341 N 0.70485 0.93224 0.2921 0.0
C342 C 0.70027 0.91554 0.30514 0.0
C343 C 0.70165 0.90094 0.29142 0.0
C344 C 0.70802 0.90378 0.26463 0.0
C345 C 0.71245 0.921 0.25152 0.0
C346 C 0.71083 0.93503 0.26623 0.0
H347 H 0.6958 0.91346 0.32594 0.0
O348 O 0.65089 0.92798 0.31184 0.0
O349 O 0.68071 0.94775 0.30083 0.0
O350 O 0.67594 0.94243 0.35827 0.0
O351 O 0.70359 0.9454 0.34398 0.0
C352 C 0.71851 0.92484 0.22449 0.0
C353 C 0.72229 0.94234 0.21245 0.0
H354 H 0.72741 0.97725 0.19591 0.0
H355 H 0.72305 1.00001 0.22507 0.0
H356 H 0.69811 0.88765 0.30161 0.0
H357 H 0.70943 0.89263 0.25434 0.0
H358 H 0.72014 0.91437 0.21266 0.0
H359 H 0.72656 0.94496 0.1915 0.0
Mn360 Mn 0.03964 0.70552 0.35552 0.0
Mn361 Mn 0.07818 0.70094 0.37219 0.0
C362 C 0.06254 0.72691 0.38592 0.0
C363 C 0.00778 0.69752 0.36192 0.0
C364 C 0.07523 0.7198 0.32043 0.0
O365 O 0.03175 0.67852 0.34189 0.0
O366 O 0.05801 0.67702 0.35462 0.0
C367 C 0.05966 0.67148 0.41444 0.0
N368 N 0.07408 0.68889 0.40673 0.0
C369 C 0.08967 0.69429 0.45046 0.0
C370 C 0.07504 0.67637 0.45886 0.0
C371 C 0.05991 0.66497 0.44081 0.0
C372 C 0.08849 0.70013 0.42409 0.0
H373 H 0.04808 0.66262 0.40056 0.0
C374 C 0.04129 0.66973 0.34387 0.0
O375 O 0.01607 0.70406 0.33896 0.0
O376 O 0.01787 0.69525 0.38089 0.0
N377 N 0.09919 0.7226 0.38946 0.0
C378 C 0.11205 0.73959 0.37825 0.0
C379 C 0.1283 0.75248 0.39339 0.0
C380 C 0.13133 0.74764 0.41967 0.0
C381 C 0.11784 0.73016 0.43088 0.0
C382 C 0.10198 0.71783 0.41476 0.0
H383 H 0.11004 0.74317 0.35779 0.0
O384 O 0.05084 0.73122 0.37345 0.0
O385 O 0.0601 0.70983 0.38109 0.0
O386 O 0.05852 0.71736 0.3244 0.0
O387 O 0.08373 0.71396 0.33684 0.0
C388 C 0.1196 0.72436 0.45726 0.0
C389 C 0.10541 0.70655 0.46717 0.0
H390 H 0.07526 0.67125 0.47912 0.0
H391 H 0.04853 0.65115 0.44716 0.0
H392 H 0.13864 0.76598 0.38467 0.0
H393 H 0.14415 0.75741 0.43099 0.0
H394 H 0.13177 0.73353 0.47018 0.0
H395 H 0.10679 0.70237 0.48761 0.0
Mn396 Mn 0.29448 0.3504 0.33298 0.0
Mn397 Mn 0.25608 0.30744 0.31692 0.0
C398 C 0.27105 0.34876 0.30321 0.0
C399 C 0.32593 0.37475 0.3264 0.0
C400 C 0.25948 0.32876 0.36902 0.0
O401 O 0.30323 0.33152 0.34526 0.0
O402 O 0.27659 0.30394 0.33407 0.0
C403 C 0.27432 0.29642 0.27424 0.0
N404 N 0.25983 0.29929 0.28235 0.0
C405 C 0.24308 0.28771 0.23966 0.0
C406 C 0.25779 0.28456 0.23083 0.0
C407 C 0.27354 0.28906 0.24814 0.0
C408 C 0.24484 0.29542 0.26566 0.0
H409 H 0.28633 0.29965 0.28762 0.0
C410 C 0.29357 0.31324 0.34395 0.0
O411 O 0.31774 0.37246 0.34957 0.0
O412 O 0.316 0.36259 0.30725 0.0
N413 N 0.2347 0.30787 0.30016 0.0
C414 C 0.22195 0.31213 0.31163 0.0
C415 C 0.20511 0.30803 0.29731 0.0
C416 C 0.20142 0.2993 0.27159 0.0
C417 C 0.21489 0.29533 0.25999 0.0
C418 C 0.23134 0.29963 0.2753 0.0
H419 H 0.22445 0.31829 0.33176 0.0
O420 O 0.28245 0.3646 0.31602 0.0
O421 O 0.2739 0.3343 0.30765 0.0
O422 O 0.27611 0.34288 0.36483 0.0
O423 O 0.25071 0.31477 0.35237 0.0
C424 C 0.21251 0.28702 0.23405 0.0
C425 C 0.22672 0.28345 0.22374 0.0
H426 H 0.25714 0.27871 0.21081 0.0
H427 H 0.28496 0.2867 0.24147 0.0
H428 H 0.19482 0.31122 0.3063 0.0
H429 H 0.18816 0.29568 0.26096 0.0
H430 H 0.19988 0.28342 0.22176 0.0
H431 H 0.22487 0.27732 0.20361 0.0
Mn432 Mn 0.34052 0.04831 0.65591 0.0
Mn433 Mn 0.38252 0.08557 0.63594 0.0
C434 C 0.34078 0.07112 0.62654 0.0
C435 C 0.31542 0.01663 0.65161 0.0
C436 C 0.36523 0.08437 0.69038 0.0
O437 O 0.35974 0.0396 0.66653 0.0
O438 O 0.38636 0.0647 0.65063 0.0
C439 C 0.38914 0.06569 0.59034 0.0
N440 N 0.38766 0.08082 0.60001 0.0
C441 C 0.39668 0.09694 0.55721 0.0
C442 C 0.39841 0.08159 0.54679 0.0
C443 C 0.39447 0.06582 0.56338 0.0
C444 C 0.39093 0.0958 0.58405 0.0
H445 H 0.38631 0.05365 0.60314 0.0
C446 C 0.3776 0.04824 0.6618 0.0
O447 O 0.31955 0.02589 0.6745 0.0
O448 O 0.32622 0.0256 0.63133 0.0
N449 N 0.38166 0.10715 0.62092 0.0
C450 C 0.37876 0.1205 0.63387 0.0
C451 C 0.38236 0.13734 0.62028 0.0
C452 C 0.38924 0.14043 0.59377 0.0
C453 C 0.39188 0.12639 0.58071 0.0
C454 C 0.38809 0.10993 0.59528 0.0
H455 H 0.37404 0.11846 0.65455 0.0
O456 O 0.32575 0.06025 0.64045 0.0
O457 O 0.3551 0.06797 0.62943 0.0
O458 O 0.35039 0.06798 0.6869 0.0
O459 O 0.37833 0.0921 0.67287 0.0
C460 C 0.39837 0.12819 0.55396 0.0
C461 C 0.4005 0.11335 0.54208 0.0
H462 H 0.40271 0.08174 0.52609 0.0
H463 H 0.39572 0.05389 0.55547 0.0
H464 H 0.3802 0.14808 0.63041 0.0
H465 H 0.39249 0.15368 0.58365 0.0
H466 H 0.40167 0.14087 0.54226 0.0
H467 H 0.40517 0.11475 0.52136 0.0
Mn468 Mn 0.96174 0.2935 0.68542 0.0
Mn469 Mn 0.96255 0.25388 0.70745 0.0
C470 C 0.93854 0.27261 0.7147 0.0
C471 C 0.97136 0.32618 0.68905 0.0
C472 C 0.94694 0.25641 0.65212 0.0
O473 O 0.98853 0.29905 0.67554 0.0
O474 O 0.98775 0.27274 0.6931 0.0
C475 C 0.98972 0.27207 0.75361 0.0
N476 N 0.97253 0.25807 0.74374 0.0
C477 C 0.96437 0.24256 0.78705 0.0
C478 C 0.98202 0.25675 0.7977 0.0
C479 C 0.99469 0.27165 0.78094 0.0
C480 C 0.96007 0.24394 0.75982 0.0
H481 H 0.99955 0.28342 0.74071 0.0
C482 C 0.99641 0.28896 0.68124 0.0
O483 O 0.96534 0.31696 0.66616 0.0
O484 O 0.97236 0.31654 0.70961 0.0
N485 N 0.93944 0.23402 0.72221 0.0
C486 C 0.9228 0.22176 0.70895 0.0
C487 C 0.90874 0.2058 0.72261 0.0
C488 C 0.91206 0.20244 0.74958 0.0
C489 C 0.92914 0.21541 0.76298 0.0
C490 C 0.94267 0.231 0.74827 0.0
H491 H 0.92042 0.22396 0.68796 0.0
O492 O 0.93579 0.28455 0.70009 0.0
O493 O 0.95514 0.27366 0.71259 0.0
O494 O 0.95001 0.27356 0.65484 0.0
O495 O 0.95157 0.24793 0.67023 0.0
C496 C 0.93341 0.21336 0.7902 0.0
C497 C 0.9509 0.22707 0.80234 0.0
H498 H 0.98598 0.25637 0.8187 0.0
H499 H 0.00832 0.28268 0.78902 0.0
H500 H 0.89553 0.1959 0.71223 0.0
H501 H 0.90138 0.18982 0.75979 0.0
H502 H 0.9233 0.20137 0.80207 0.0
H503 H 0.95388 0.22551 0.8234 0.0
Mn504 Mn 0.70307 0.65805 0.68268 0.0
Mn505 Mn 0.74441 0.699 0.69621 0.0
C506 C 0.72597 0.65769 0.71148 0.0
C507 C 0.67116 0.63574 0.69152 0.0
C508 C 0.73791 0.67552 0.64544 0.0
O509 O 0.69653 0.67854 0.67057 0.0
O510 O 0.72545 0.70454 0.67784 0.0
C511 C 0.72881 0.71435 0.7371 0.0
N512 N 0.74197 0.70925 0.72991 0.0
C513 C 0.75871 0.72025 0.77276 0.0
C514 C 0.74538 0.7257 0.78059 0.0
C515 C 0.73031 0.72264 0.76273 0.0
C516 C 0.75634 0.71184 0.74711 0.0
H517 H 0.71728 0.71215 0.72337 0.0
C518 C 0.70803 0.69657 0.66959 0.0
O519 O 0.67825 0.63703 0.6677 0.0
O520 O 0.68237 0.64793 0.7098 0.0
N521 N 0.76445 0.69661 0.714 0.0
C522 C 0.77565 0.68987 0.70377 0.0
C523 C 0.7916 0.69214 0.71886 0.0
C524 C 0.79596 0.70146 0.74418 0.0
C525 C 0.784 0.70791 0.75458 0.0
C526 C 0.76845 0.70546 0.73847 0.0
H527 H 0.77247 0.68287 0.68421 0.0
O528 O 0.71332 0.64217 0.69917 0.0
O529 O 0.72478 0.67313 0.70701 0.0
O530 O 0.72038 0.66343 0.64974 0.0
O531 O 0.74838 0.68919 0.66181 0.0
C532 C 0.78695 0.71675 0.78023 0.0
C533 C 0.77421 0.72276 0.78942 0.0
H534 H 0.74655 0.73219 0.80028 0.0
H535 H 0.71994 0.72676 0.76865 0.0
H536 H 0.80065 0.68693 0.71085 0.0
H537 H 0.80855 0.70362 0.75542 0.0
H538 H 0.79884 0.71879 0.79319 0.0
H539 H 0.77647 0.72929 0.80933 0.0
Mn540 Mn 0.33227 0.29013 0.66517 0.0
Mn541 Mn 0.3727 0.29125 0.64492 0.0
C542 C 0.33038 0.26712 0.6348 0.0
C543 C 0.3095 0.30008 0.66056 0.0
C544 C 0.35457 0.27562 0.69929 0.0
O545 O 0.35319 0.31685 0.67713 0.0
O546 O 0.37876 0.3169 0.65918 0.0
C547 C 0.38147 0.31779 0.59875 0.0
N548 N 0.37852 0.30072 0.60882 0.0
C549 C 0.3863 0.29194 0.56628 0.0
C550 C 0.38964 0.30953 0.5555 0.0
C551 C 0.38705 0.32244 0.57174 0.0
C552 C 0.3805 0.288 0.59319 0.0
H553 H 0.37955 0.32774 0.61123 0.0
C554 C 0.3709 0.32514 0.67159 0.0
O555 O 0.31238 0.29383 0.68348 0.0
O556 O 0.32027 0.30112 0.64065 0.0
N557 N 0.36954 0.26773 0.63034 0.0
C558 C 0.36461 0.25094 0.64335 0.0
C559 C 0.36611 0.23634 0.62984 0.0
C560 C 0.37294 0.23926 0.6033 0.0
C561 C 0.3777 0.25656 0.59019 0.0
C562 C 0.37594 0.2706 0.60469 0.0
H563 H 0.35981 0.2488 0.66399 0.0
O564 O 0.31566 0.26424 0.64864 0.0
O565 O 0.34572 0.28373 0.63841 0.0
O566 O 0.34015 0.27801 0.69569 0.0
O567 O 0.36786 0.28078 0.68209 0.0
C568 C 0.38422 0.2605 0.56338 0.0
C569 C 0.38834 0.27809 0.55135 0.0
H570 H 0.39405 0.3132 0.53472 0.0
H571 H 0.38947 0.33598 0.56352 0.0
H572 H 0.36231 0.22297 0.64001 0.0
H573 H 0.37445 0.22811 0.59319 0.0
H574 H 0.38597 0.25003 0.55173 0.0
H575 H 0.39297 0.28079 0.53055 0.0
Mn576 Mn 0.70604 0.03947 0.68359 0.0
Mn577 Mn 0.7449 0.03539 0.70003 0.0
C578 C 0.729 0.06112 0.71373 0.0
C579 C 0.67409 0.03096 0.69078 0.0
C580 C 0.74132 0.0537 0.64794 0.0
O581 O 0.69841 0.0125 0.67005 0.0
O582 O 0.72461 0.0111 0.68348 0.0
C583 C 0.7272 0.00658 0.7433 0.0
N584 N 0.74141 0.02391 0.73492 0.0
C585 C 0.75776 0.03 0.77814 0.0
C586 C 0.74337 0.01218 0.78721 0.0
C587 C 0.72796 1.00047 0.76976 0.0
C588 C 0.75606 0.03545 0.75172 0.0
H589 H 0.71541 0.99749 0.72988 0.0
C590 C 0.70791 0.00369 0.67265 0.0
O591 O 0.68207 0.03756 0.66764 0.0
O592 O 0.68456 0.02897 0.70941 0.0
N593 N 0.76599 0.05745 0.71648 0.0
C594 C 0.77846 0.07439 0.70477 0.0
C595 C 0.79483 0.08765 0.71939 0.0
C596 C 0.79838 0.0832 0.74564 0.0
C597 C 0.7853 0.06574 0.75734 0.0
C598 C 0.76926 0.05308 0.74179 0.0
H599 H 0.77604 0.07767 0.68435 0.0
O600 O 0.71708 0.06521 0.70142 0.0
O601 O 0.72672 0.04413 0.70888 0.0
O602 O 0.72468 0.05139 0.65216 0.0
O603 O 0.74988 0.04786 0.66426 0.0
C604 C 0.78763 0.06029 0.7837 0.0
C605 C 0.77374 0.04256 0.79423 0.0
H606 H 0.74398 0.00735 0.80754 0.0
H607 H 0.71676 0.98671 0.77662 0.0
H608 H 0.80484 0.10113 0.71028 0.0
H609 H 0.81126 0.09327 0.75658 0.0
H610 H 0.8 0.06967 0.79613 0.0
H611 H 0.77555 0.03867 0.81467 0.0
Mn612 Mn 0.96045 0.67817 0.66809 0.0
Mn613 Mn 0.91994 0.63801 0.64829 0.0
C614 C 0.93801 0.68037 0.64005 0.0
C615 C 0.99256 0.70122 0.66245 0.0
C616 C 0.92544 0.6566 0.70353 0.0
O617 O 0.96687 0.65694 0.67684 0.0
O618 O 0.93948 0.63165 0.66167 0.0
C619 C 0.93598 0.62815 0.60134 0.0
N620 N 0.92237 0.63149 0.61193 0.0
C621 C 0.90439 0.62276 0.56988 0.0
C622 C 0.91813 0.61907 0.55854 0.0
C623 C 0.93408 0.62194 0.57428 0.0
C624 C 0.90729 0.62932 0.59674 0.0
H625 H 0.94816 0.63018 0.61346 0.0
C626 C 0.95636 0.639 0.67191 0.0
O627 O 0.98461 0.69813 0.68592 0.0
O628 O 0.98204 0.69043 0.64245 0.0
N629 N 0.89937 0.64123 0.6344 0.0
C630 C 0.88772 0.64592 0.64817 0.0
C631 C 0.87086 0.64346 0.63561 0.0
C632 C 0.866 0.63589 0.60919 0.0
C633 C 0.87839 0.63152 0.59516 0.0
C634 C 0.89492 0.63415 0.60881 0.0
H635 H 0.89101 0.65104 0.66881 0.0
O636 O 0.95031 0.69501 0.65433 0.0
O637 O 0.93936 0.66486 0.64206 0.0
O638 O 0.94241 0.67022 0.70018 0.0
O639 O 0.91575 0.64375 0.68568 0.0
C640 C 0.87482 0.62432 0.56837 0.0
C641 C 0.88795 0.62019 0.55561 0.0
H642 H 0.9166 0.61409 0.53777 0.0
H643 H 0.94479 0.61921 0.56565 0.0
H644 H 0.86142 0.64697 0.64649 0.0
H645 H 0.8527 0.6335 0.5999 0.0
H646 H 0.86209 0.622 0.55732 0.0
H647 H 0.88522 0.61497 0.53487 0.0
H648 H 0.14733 0.32874 0.13761 0.0
H649 H 0.14798 0.34488 0.05396 0.0
H650 H 0.11359 0.35389 0.11106 0.0
H651 H 0.1578 0.31471 0.09964 0.0
H652 H 0.16117 0.32469 0.06651 0.0
H653 H 0.17893 0.34392 0.13809 0.0
H654 H 0.23743 0.365 0.11806 0.0
H655 H 0.19389 0.33953 0.05605 0.0
C656 C 0.14315 0.33541 0.12184 0.0
C657 C 0.13064 0.34237 0.12798 0.0
C658 C 0.1501 0.33686 0.09534 0.0
C659 C 0.14338 0.34433 0.07461 0.0
C660 C 0.13028 0.35057 0.08038 0.0
C661 C 0.12418 0.34963 0.10696 0.0
C662 C 0.16279 0.3284 0.08848 0.0
C663 C 0.18383 0.34125 0.09586 0.0
C664 C 0.18953 0.34702 0.12297 0.0
C665 C 0.20882 0.3556 0.13128 0.0
C666 C 0.22262 0.35929 0.11176 0.0
C667 C 0.21745 0.3538 0.08459 0.0
C668 C 0.198 0.34461 0.07675 0.0
H669 H 0.67086 0.82882 0.12738 0.0
H670 H 0.65285 0.80813 0.04573 0.0
H671 H 0.64574 0.76876 0.10942 0.0
H672 H 0.68335 0.84966 0.083 0.0
H673 H 0.6676 0.84145 0.05415 0.0
H674 H 0.64961 0.83793 0.12672 0.0
H675 H 0.64469 0.88827 0.11908 0.0
H676 H 0.66607 0.87062 0.05251 0.0
C677 C 0.66349 0.81697 0.11325 0.0
C678 C 0.65684 0.79812 0.12224 0.0
C679 C 0.66062 0.82068 0.08614 0.0
C680 C 0.65359 0.80539 0.06711 0.0
C681 C 0.64845 0.78669 0.07553 0.0
C682 C 0.64945 0.78315 0.10311 0.0
C683 C 0.66805 0.84123 0.07669 0.0
C684 C 0.65831 0.85208 0.08758 0.0
C685 C 0.65117 0.84955 0.11416 0.0
C686 C 0.64656 0.86272 0.12573 0.0
C687 C 0.64796 0.8779 0.11009 0.0
C688 C 0.6549 0.88082 0.08374 0.0
C689 C 0.65993 0.86784 0.07248 0.0
H690 H 0.17137 0.80098 0.16406 0.0
H691 H 0.16403 0.79784 0.07716 0.0
H692 H 0.11519 0.77066 0.12798 0.0
H693 H 0.1975 0.80534 0.1318 0.0
H694 H 0.19498 0.80854 0.09658 0.0
H695 H 0.19843 0.83079 0.16529 0.0
H696 H 0.2348 0.88784 0.13646 0.0
H697 H 0.21036 0.84054 0.08019 0.0
C698 C 0.16215 0.79726 0.14623 0.0
C699 C 0.1423 0.7858 0.14908 0.0
C700 C 0.17018 0.8023 0.12027 0.0
C701 C 0.15801 0.79537 0.0972 0.0
C702 C 0.13815 0.78397 0.09996 0.0
C703 C 0.13046 0.77997 0.12587 0.0
C704 C 0.19164 0.81174 0.11706 0.0
C705 C 0.20196 0.83325 0.12193 0.0
C706 C 0.20463 0.84054 0.14855 0.0
C707 C 0.21632 0.86024 0.15393 0.0
C708 C 0.22498 0.87276 0.13232 0.0
C709 C 0.22297 0.86581 0.10576 0.0
C710 C 0.21136 0.84604 0.10057 0.0
H711 H 0.37386 0.19913 0.8645 0.0
H712 H 0.3706 0.20607 0.9505 0.0
H713 H 0.34936 0.23228 0.8942 0.0
H714 H 0.39737 0.19803 0.90295 0.0
H715 H 0.38767 0.19106 0.93567 0.0
H716 H 0.38162 0.17581 0.8625 0.0
H717 H 0.35809 0.11654 0.88245 0.0
H718 H 0.36754 0.15765 0.94527 0.0
C719 C 0.3687 0.20376 0.88135 0.0
C720 C 0.36073 0.21564 0.87625 0.0
C721 C 0.37176 0.19957 0.90817 0.0
C722 C 0.36697 0.20781 0.92982 0.0
C723 C 0.35876 0.2195 0.92478 0.0
C724 C 0.35509 0.22272 0.89806 0.0
C725 C 0.38367 0.18992 0.91377 0.0
C726 C 0.37434 0.16907 0.90466 0.0
C727 C 0.37513 0.16453 0.8773 0.0
C728 C 0.36915 0.14557 0.86934 0.0
C729 C 0.36208 0.13105 0.88872 0.0
C730 C 0.36148 0.13513 0.91617 0.0
C731 C 0.36743 0.15422 0.92402 0.0
H732 H 0.83967 0.18925 0.87009 0.0
H733 H 0.85334 0.20626 0.95395 0.0
H734 H 0.87784 0.24799 0.89122 0.0
H735 H 0.84207 0.16759 0.91205 0.0
H736 H 0.83581 0.17313 0.9437 0.0
H737 H 0.81927 0.15905 0.87136 0.0
H738 H 0.76037 0.12716 0.89285 0.0
H739 H 0.80277 0.16071 0.95335 0.0
C740 C 0.84634 0.20023 0.88545 0.0
C741 C 0.85844 0.21921 0.87723 0.0
C742 C 0.84405 0.19526 0.91308 0.0
C743 C 0.85402 0.20986 0.93267 0.0
C744 C 0.86577 0.22898 0.92473 0.0
C745 C 0.86765 0.23348 0.89714 0.0
C746 C 0.8343 0.1743 0.92143 0.0
C747 C 0.81339 0.16259 0.91281 0.0
C748 C 0.80827 0.1556 0.88598 0.0
C749 C 0.78907 0.14335 0.87823 0.0
C750 C 0.77505 0.13765 0.89797 0.0
C751 C 0.77987 0.1437 0.92498 0.0
C752 C 0.799 0.1564 0.93232 0.0
H753 H 0.83209 0.63216 0.86853 0.0
H754 H 0.84311 0.62651 0.95292 0.0
H755 H 0.88951 0.65468 0.89809 0.0
H756 H 0.80825 0.60411 0.90264 0.0
H757 H 0.81099 0.61116 0.93724 0.0
H758 H 0.80196 0.62377 0.86664 0.0
H759 H 0.76652 0.64576 0.89473 0.0
H760 H 0.7956 0.62844 0.95254 0.0
C761 C 0.84187 0.63553 0.88553 0.0
C762 C 0.86154 0.64494 0.88055 0.0
C763 C 0.83492 0.62945 0.91181 0.0
C764 C 0.84816 0.63232 0.93301 0.0
C765 C 0.86789 0.64165 0.92814 0.0
C766 C 0.87439 0.64839 0.90212 0.0
C767 C 0.8136 0.61686 0.91625 0.0
C768 C 0.80175 0.62656 0.91036 0.0
C769 C 0.79701 0.62871 0.88339 0.0
C770 C 0.78461 0.63593 0.87784 0.0
C771 C 0.77662 0.64079 0.89917 0.0
C772 C 0.7804 0.63804 0.92607 0.0
C773 C 0.79311 0.63109 0.93171 0.0
H774 H 0.81588 0.6604 0.47973 0.0
H775 H 0.81503 0.67453 0.39541 0.0
H776 H 0.77979 0.68265 0.45199 0.0
H777 H 0.8276 0.64703 0.44268 0.0
H778 H 0.82975 0.65585 0.40893 0.0
H779 H 0.84756 0.68007 0.478 0.0
H780 H 0.90614 0.7005 0.45895 0.0
H781 H 0.86247 0.67037 0.39851 0.0
C782 C 0.81099 0.66623 0.46363 0.0
C783 C 0.79791 0.67254 0.46943 0.0
C784 C 0.81786 0.66754 0.43709 0.0
C785 C 0.81043 0.67405 0.41604 0.0
C786 C 0.79674 0.67953 0.42153 0.0
C787 C 0.79073 0.67883 0.44809 0.0
C788 C 0.83151 0.66018 0.43066 0.0
C789 C 0.85242 0.67434 0.4371 0.0
C790 C 0.85816 0.68217 0.46338 0.0
C791 C 0.87749 0.69152 0.4717 0.0
C792 C 0.89128 0.69421 0.45262 0.0
C793 C 0.88609 0.68704 0.42607 0.0
C794 C 0.8666 0.67685 0.41852 0.0
H795 H 0.33566 0.16174 0.46769 0.0
H796 H 0.31861 0.14272 0.38523 0.0
H797 H 0.30899 0.10186 0.44776 0.0
H798 H 0.34967 0.18333 0.42539 0.0
H799 H 0.33584 0.17602 0.39466 0.0
H800 H 0.31704 0.17397 0.46648 0.0
H801 H 0.31043 0.22301 0.45384 0.0
H802 H 0.33208 0.20346 0.38977 0.0
C803 C 0.32813 0.15019 0.45317 0.0
C804 C 0.32085 0.13111 0.46157 0.0
C805 C 0.32609 0.15455 0.42603 0.0
C806 C 0.31877 0.13955 0.40656 0.0
C807 C 0.31272 0.12056 0.41447 0.0
C808 C 0.31318 0.11647 0.44195 0.0
C809 C 0.3348 0.17536 0.41712 0.0
C810 C 0.3248 0.18636 0.42628 0.0
C811 C 0.31795 0.18483 0.45285 0.0
C812 C 0.313 0.19812 0.46299 0.0
C813 C 0.31395 0.21252 0.44596 0.0
C814 C 0.3208 0.21457 0.41961 0.0
C815 C 0.32604 0.20138 0.40975 0.0
H816 H 0.83626 0.13192 0.48846 0.0
H817 H 0.82954 0.12212 0.40211 0.0
H818 H 0.78046 0.09714 0.4525 0.0
H819 H 0.86253 0.13342 0.45733 0.0
H820 H 0.86049 0.13597 0.42191 0.0
H821 H 0.86668 0.15977 0.48958 0.0
H822 H 0.90119 0.21604 0.45697 0.0
H823 H 0.8733 0.16747 0.40316 0.0
C824 C 0.82713 0.12657 0.47054 0.0
C825 C 0.80733 0.11452 0.47353 0.0
C826 C 0.83533 0.13001 0.44464 0.0
C827 C 0.82336 0.12099 0.42182 0.0
C828 C 0.80357 0.10922 0.42468 0.0
C829 C 0.79568 0.10677 0.45032 0.0
C830 C 0.85686 0.13958 0.44191 0.0
C831 C 0.86727 0.16122 0.4458 0.0
C832 C 0.87165 0.16913 0.4722 0.0
C833 C 0.88411 0.18886 0.47629 0.0
C834 C 0.8913 0.20085 0.45381 0.0
C835 C 0.8876 0.19331 0.42745 0.0
C836 C 0.8755 0.17346 0.42344 0.0
H837 H 0.0478 0.53735 0.1964 0.0
H838 H 0.0331 0.53716 0.28003 0.0
H839 H 0.02169 0.57003 0.22117 0.0
H840 H 0.06455 0.53046 0.23705 0.0
H841 H 0.05288 0.52411 0.26864 0.0
H842 H 0.04621 0.50902 0.19462 0.0
H843 H 0.02219 0.44967 0.21405 0.0
H844 H 0.03416 0.49092 0.27775 0.0
C845 C 0.04076 0.54093 0.21192 0.0
C846 C 0.03406 0.5537 0.20558 0.0
C847 C 0.03997 0.53431 0.23865 0.0
C848 C 0.03269 0.54111 0.25911 0.0
C849 C 0.02607 0.55404 0.25293 0.0
C850 C 0.02631 0.5597 0.22601 0.0
C851 C 0.05021 0.52327 0.24635 0.0
C852 C 0.04003 0.50241 0.23708 0.0
C853 C 0.03996 0.4978 0.20951 0.0
C854 C 0.03344 0.4788 0.20127 0.0
C855 C 0.02662 0.46423 0.22059 0.0
C856 C 0.02683 0.46833 0.24823 0.0
C857 C 0.0334 0.4875 0.25637 0.0
H858 H 0.50926 0.52576 0.20174 0.0
H859 H 0.51963 0.5437 0.28552 0.0
H860 H 0.54642 0.58472 0.22243 0.0
H861 H 0.50832 0.50402 0.24425 0.0
H862 H 0.50268 0.51045 0.27573 0.0
H863 H 0.48539 0.49748 0.20302 0.0
H864 H 0.42687 0.46482 0.22558 0.0
H865 H 0.46983 0.49702 0.28613 0.0
C866 C 0.51509 0.53691 0.21694 0.0
C867 C 0.5274 0.55583 0.20867 0.0
C868 C 0.51157 0.53228 0.2446 0.0
C869 C 0.52106 0.54708 0.26412 0.0
C870 C 0.53334 0.56608 0.25605 0.0
C871 C 0.53602 0.5703 0.22842 0.0
C872 C 0.50111 0.51138 0.25342 0.0
C873 C 0.48006 0.50015 0.24508 0.0
C874 C 0.47462 0.49376 0.21806 0.0
C875 C 0.45538 0.48147 0.21056 0.0
C876 C 0.44156 0.47531 0.23064 0.0
C877 C 0.44663 0.48072 0.25781 0.0
C878 C 0.46586 0.49331 0.26498 0.0
H879 H 0.5 0.97679 0.20961 0.0
H880 H 0.50944 0.96408 0.29151 0.0
H881 H 0.55676 0.99546 0.23925 0.0
H882 H 0.47596 0.94485 0.24086 0.0
H883 H 0.47761 0.95099 0.27567 0.0
H884 H 0.46915 0.96406 0.20529 0.0
H885 H 0.43235 0.9846 0.23301 0.0
H886 H 0.46176 0.96782 0.29102 0.0
C887 C 0.50945 0.97846 0.2264 0.0
C888 C 0.52917 0.98772 0.22181 0.0
C889 C 0.50203 0.97029 0.25173 0.0
C890 C 0.51487 0.97137 0.2725 0.0
C891 C 0.53467 0.9808 0.2682 0.0
C892 C 0.54163 0.9893 0.24308 0.0
C893 C 0.48065 0.95725 0.25501 0.0
C894 C 0.46849 0.96657 0.24897 0.0
C895 C 0.46388 0.96877 0.22195 0.0
C896 C 0.45124 0.97567 0.21623 0.0
C897 C 0.44272 0.97997 0.2375 0.0
C898 C 0.44631 0.97703 0.2644 0.0
C899 C 0.45941 0.9706 0.2702 0.0
H900 H 0.47847 0.98419 0.81054 0.0
H901 H 0.48181 0.00517 0.72908 0.0
H902 H 0.44656 0.01209 0.78699 0.0
H903 H 0.49171 0.97371 0.77264 0.0
H904 H 0.49476 0.98435 0.73994 0.0
H905 H 0.51122 0.00455 0.81127 0.0
H906 H 0.57034 0.02696 0.79324 0.0
H907 H 0.52771 0.9991 0.73067 0.0
C908 C 0.47483 0.99185 0.79559 0.0
C909 C 0.46175 0.99801 0.80213 0.0
C910 C 0.48277 0.99503 0.76951 0.0
C911 C 0.4766 0.00352 0.74955 0.0
C912 C 0.46336 0.00945 0.75587 0.0
C913 C 0.45657 0.00719 0.78223 0.0
C914 C 0.49612 0.98751 0.76207 0.0
C915 C 0.51694 1.00104 0.76978 0.0
C916 C 0.52216 0.00755 0.79672 0.0
C917 C 0.54139 0.01696 0.80553 0.0
C918 C 0.55555 0.02062 0.78656 0.0
C919 C 0.55084 0.01458 0.75947 0.0
C920 C 0.53147 0.00457 0.75125 0.0
H921 H 0.98638 0.48821 0.79611 0.0
H922 H 0.9929 0.47228 0.71514 0.0
H923 H 0.96945 0.42991 0.77726 0.0
H924 H 0.01744 0.50884 0.75427 0.0
H925 H 0.0039 0.5053 0.72409 0.0
H926 H 0.00733 0.51865 0.7982 0.0
H927 H 0.98352 0.55549 0.78452 0.0
H928 H 0.98724 0.52291 0.71824 0.0
C929 C 0.98447 0.47765 0.78116 0.0
C930 C 0.97726 0.45865 0.78984 0.0
C931 C 0.99039 0.483 0.75429 0.0
C932 C 0.98781 0.4685 0.73563 0.0
C933 C 0.97946 0.4492 0.74366 0.0
C934 C 0.97426 0.4445 0.7707 0.0
C935 C 1.0027 0.50403 0.74651 0.0
C936 C 0.99654 0.51787 0.75742 0.0
C937 C 1.00008 0.52384 0.78483 0.0
C938 C 0.9942 0.5364 0.7951 0.0
C939 C 0.98671 0.54465 0.77711 0.0
C940 C 0.98455 0.54024 0.74941 0.0
C941 C 0.98904 0.52647 0.73966 0.0
H942 H 0.50469 0.46261 0.82718 0.0
H943 H 0.49685 0.4562 0.74041 0.0
H944 H 0.44852 0.42889 0.79204 0.0
H945 H 0.53105 0.46693 0.7949 0.0
H946 H 0.52819 0.46942 0.75958 0.0
H947 H 0.5313 0.49248 0.82758 0.0
H948 H 0.56595 0.54929 0.79685 0.0
H949 H 0.54245 0.50109 0.74215 0.0
C950 C 0.49535 0.45789 0.80943 0.0
C951 C 0.47564 0.44571 0.8127 0.0
C952 C 0.50319 0.46242 0.78329 0.0
C953 C 0.49094 0.45417 0.76048 0.0
C954 C 0.47122 0.44214 0.76368 0.0
C955 C 0.46369 0.43863 0.78966 0.0
C956 C 0.5247 0.4727 0.77991 0.0
C957 C 0.53436 0.49429 0.78409 0.0
C958 C 0.53705 0.50198 0.81049 0.0
C959 C 0.54826 0.52184 0.81521 0.0
C960 C 0.55646 0.53407 0.79319 0.0
C961 C 0.55455 0.52675 0.76688 0.0
C962 C 0.54337 0.50684 0.76233 0.0
H963 H 0.71061 0.86604 0.53058 0.0
H964 H 0.70172 0.87098 0.61543 0.0
H965 H 0.68502 0.89914 0.55553 0.0
H966 H 0.73133 0.8635 0.5718 0.0
H967 H 0.71992 0.85649 0.60348 0.0
H968 H 0.71601 0.84168 0.53005 0.0
H969 H 0.69178 0.78228 0.54934 0.0
H970 H 0.70042 0.82306 0.61231 0.0
C971 C 0.70452 0.87039 0.54652 0.0
C972 C 0.69699 0.88244 0.53995 0.0
C973 C 0.7058 0.86559 0.57372 0.0
C974 C 0.69968 0.87344 0.59433 0.0
C975 C 0.69211 0.88553 0.58786 0.0
C976 C 0.69031 0.88938 0.56062 0.0
C977 C 0.71707 0.85555 0.58123 0.0
C978 C 0.70791 0.83474 0.57192 0.0
C979 C 0.70917 0.83033 0.54466 0.0
C980 C 0.70315 0.81141 0.53651 0.0
C981 C 0.6958 0.79677 0.55571 0.0
C982 C 0.69484 0.8007 0.58314 0.0
C983 C 0.70068 0.81976 0.59109 0.0
H984 H 0.17414 0.85552 0.54179 0.0
H985 H 0.1876 0.87267 0.62569 0.0
H986 H 0.21144 0.91439 0.56275 0.0
H987 H 0.17626 0.83392 0.58406 0.0
H988 H 0.16998 0.83952 0.61562 0.0
H989 H 0.15318 0.82576 0.54296 0.0
H990 H 0.09465 0.79181 0.56498 0.0
H991 H 0.13691 0.82506 0.6258 0.0
C992 C 0.18046 0.86649 0.5572 0.0
C993 C 0.19231 0.88553 0.54899 0.0
C994 C 0.17808 0.86155 0.58487 0.0
C995 C 0.18813 0.87623 0.60441 0.0
C996 C 0.19982 0.89539 0.5964 0.0
C997 C 0.20142 0.89985 0.56882 0.0
C998 C 0.16838 0.84056 0.59334 0.0
C999 C 0.14742 0.82847 0.58486 0.0
C1000 C 0.14227 0.82183 0.55786 0.0
C1001 C 0.12315 0.80914 0.55023 0.0
C1002 C 0.10922 0.80259 0.57017 0.0
C1003 C 0.11406 0.80805 0.59734 0.0
C1004 C 0.13312 0.82121 0.60465 0.0
H1005 H 0.16806 0.30247 0.53242 0.0
H1006 H 0.1742 0.29706 0.61835 0.0
H1007 H 0.22374 0.3283 0.56977 0.0
H1008 H 0.14348 0.27407 0.56297 0.0
H1009 H 0.14366 0.27912 0.59799 0.0
H1010 H 0.13749 0.29429 0.5277 0.0
H1011 H 0.0949 0.3077 0.55353 0.0
H1012 H 0.12596 0.29403 0.6129 0.0
C1013 C 0.17684 0.30661 0.55067 0.0
C1014 C 0.19679 0.31676 0.5483 0.0
C1015 C 0.16839 0.3 0.57606 0.0
C1016 C 0.18036 0.30339 0.59909 0.0
C1017 C 0.20036 0.31363 0.59689 0.0
C1018 C 0.20833 0.32093 0.57168 0.0
C1019 C 0.14714 0.28595 0.5777 0.0
C1020 C 0.1344 0.29453 0.57127 0.0
C1021 C 0.13054 0.29723 0.54408 0.0
C1022 C 0.11644 0.30214 0.53773 0.0
C1023 C 0.10617 0.3044 0.55852 0.0
C1024 C 0.10948 0.30149 0.58555 0.0
C1025 C 0.12388 0.29696 0.59204 0.0
C1026 C 0.04411 0.44861 0.04944 0.0
C1027 C 0.0286 0.43002 0.04518 0.0
C1028 C 0.04607 0.45883 0.0735 0.0
C1029 C 0.03219 0.4503 0.09376 0.0
C1030 C 0.01636 0.43172 0.08942 0.0
C1031 C 0.01477 0.42181 0.06525 0.0
C1032 C 0.06317 0.47859 0.07747 0.0
C1033 C 1.00124 0.42212 0.11057 0.0
C1034 C 0.04435 0.46319 0.1679 0.0
C1035 C 0.03529 0.47397 0.17295 0.0
C1036 C 0.04424 0.4562 0.14189 0.0
C1037 C 0.03478 0.46006 0.12037 0.0
C1038 C 0.02651 0.47185 0.12502 0.0
C1039 C 0.02693 0.47875 0.15136 0.0
C1040 C 0.05341 0.44388 0.13777 0.0
C1041 C 0.01637 0.47633 0.10254 0.0
H1042 H 0.05483 0.45517 0.03404 0.0
H1043 H 1.00266 0.40755 0.06219 0.0
H1044 H 0.05847 0.48906 0.08282 0.0
H1045 H 0.07222 0.47841 0.09458 0.0
H1046 H 0.07203 0.4837 0.05909 0.0
H1047 H 0.98932 0.40805 0.1035 0.0
H1048 H 0.00772 0.41978 0.12923 0.0
H1049 H 0.9953 0.43152 0.11614 0.0
H1050 H 0.05111 0.45977 0.18458 0.0
H1051 H 0.01996 0.48712 0.15531 0.0
H1052 H 0.06322 0.44919 0.12042 0.0
H1053 H 0.04222 0.42894 0.13287 0.0
H1054 H 0.06157 0.44362 0.15604 0.0
H1055 H 0.02531 0.48126 0.08427 0.0
H1056 H 0.01277 0.4875 0.10865 0.0
H1057 H 0.00295 0.46309 0.09679 0.0
C1058 C 0.60096 0.59992 0.09439 0.0
C1059 C 0.59465 0.59854 0.06748 0.0
C1060 C 0.58795 0.59061 0.11516 0.0
C1061 C 0.5681 0.5802 0.10891 0.0
C1062 C 0.56169 0.57858 0.08162 0.0
C1063 C 0.57507 0.58789 0.06122 0.0
C1064 C 0.59543 0.59244 0.14391 0.0
C1065 C 0.5407 0.56761 0.0741 0.0
C1066 C 0.5385 0.54799 0.16587 0.0
C1067 C 0.53394 0.56026 0.18018 0.0
C1068 C 0.5483 0.55367 0.14143 0.0
C1069 C 0.55417 0.57228 0.13131 0.0
C1070 C 0.54833 0.58416 0.14453 0.0
C1071 C 0.53815 0.57794 0.16867 0.0
C1072 C 0.55361 0.54023 0.12781 0.0
C1073 C 0.55389 0.60395 0.13417 0.0
H1074 H 0.61604 0.60876 0.0993 0.0
H1075 H 0.57022 0.58713 0.04038 0.0
H1076 H 0.59022 0.60034 0.15644 0.0
H1077 H 0.58998 0.57798 0.15286 0.0
H1078 H 0.61129 0.60012 0.14514 0.0
H1079 H 0.53817 0.5664 0.0518 0.0
H1080 H 0.53402 0.55296 0.08273 0.0
H1081 H 0.53338 0.57496 0.08284 0.0
H1082 H 0.53555 0.53437 0.17456 0.0
H1083 H 0.53428 0.58735 0.17925 0.0
H1084 H 0.56828 0.54406 0.13453 0.0
H1085 H 0.55329 0.54143 0.10545 0.0
H1086 H 0.54391 0.52505 0.13342 0.0
H1087 H 0.56953 0.61344 0.13693 0.0
H1088 H 0.5465 0.61052 0.14498 0.0
H1089 H 0.55052 0.60337 0.11218 0.0
C1090 C 0.41525 0.98143 0.06488 0.0
C1091 C 0.40736 0.99354 0.06676 0.0
C1092 C 0.42462 0.97863 0.08727 0.0
C1093 C 0.42606 0.98817 0.11206 0.0
C1094 C 0.41861 1.0009 0.11372 0.0
C1095 C 0.40896 0.00307 0.09121 0.0
C1096 C 0.43199 0.96464 0.08482 0.0
C1097 C 0.4201 0.01158 0.13964 0.0
C1098 C 0.42631 0.96623 0.17997 0.0
C1099 C 0.44552 0.97706 0.1881 0.0
C1100 C 0.42003 0.96899 0.15455 0.0
C1101 C 0.43325 0.98324 0.13713 0.0
C1102 C 0.45285 0.99359 0.14483 0.0
C1103 C 0.45879 0.99029 0.17026 0.0
C1104 C 0.3991 0.95717 0.14684 0.0
C1105 C 0.46739 0.00897 0.12708 0.0
H1106 H 0.41361 0.97373 0.04607 0.0
H1107 H 0.40212 0.01177 0.093 0.0
H1108 H 0.44693 0.97119 0.09262 0.0
H1109 H 0.42324 0.95183 0.09735 0.0
H1110 H 0.43144 0.95984 0.06355 0.0
H1111 H 0.4149 0.02203 0.13696 0.0
H1112 H 0.41157 1.00126 0.15556 0.0
H1113 H 0.43517 0.0194 0.14707 0.0
H1114 H 0.41612 0.95589 0.19384 0.0
H1115 H 0.47364 0.99868 0.17675 0.0
H1116 H 0.39738 0.95091 0.12625 0.0
H1117 H 0.39251 0.96651 0.14637 0.0
H1118 H 0.39116 0.94535 0.16133 0.0
H1119 H 0.48224 0.01297 0.13331 0.0
H1120 H 0.46582 0.02193 0.12866 0.0
H1121 H 0.46505 0.00431 0.10554 0.0
C1122 C 0.41009 0.98667 0.9453 0.0
C1123 C 0.41329 0.00512 0.95149 0.0
C1124 C 0.41859 0.98345 0.92275 0.0
C1125 C 0.42998 0.99894 0.90552 0.0
C1126 C 0.43316 0.01759 0.91171 0.0
C1127 C 0.42505 0.0205 0.93489 0.0
C1128 C 0.41539 0.96351 0.91735 0.0
C1129 C 0.44474 0.0344 0.89346 0.0
C1130 C 0.46404 0.9987 0.85319 0.0
C1131 C 0.45298 0.99489 0.82931 0.0
C1132 C 0.45638 0.99887 0.87854 0.0
C1133 C 0.43739 0.99555 0.87988 0.0
C1134 C 0.42587 0.99057 0.85603 0.0
C1135 C 0.43368 0.98993 0.83121 0.0
C1136 C 0.46891 0.00354 0.90368 0.0
C1137 C 0.40565 0.98715 0.85636 0.0
H1138 H 0.40129 0.97483 0.95848 0.0
H1139 H 0.42755 0.03478 0.93975 0.0
H1140 H 0.40713 0.95777 0.89812 0.0
H1141 H 0.4293 0.96398 0.91495 0.0
H1142 H 0.40752 0.95341 0.93389 0.0
H1143 H 0.44588 0.04797 0.90117 0.0
H1144 H 0.45935 0.03649 0.89145 0.0
H1145 H 0.43806 0.03142 0.87287 0.0
H1146 H 0.47892 0.00245 0.85196 0.0
H1147 H 0.42483 0.98632 0.81296 0.0
H1148 H 0.46093 0.9937 0.92038 0.0
H1149 H 0.47335 0.01837 0.91057 0.0
H1150 H 0.48197 0.00254 0.89996 0.0
H1151 H 0.39713 0.976 0.87137 0.0
H1152 H 0.39833 0.98258 0.83624 0.0
H1153 H 0.40582 1.00056 0.86259 0.0
C1154 C 1.00252 0.41511 0.90915 0.0
C1155 C 0.99721 0.4158 0.93574 0.0
C1156 C 0.99811 0.42416 0.88811 0.0
C1157 C 0.98733 0.43338 0.89362 0.0
C1158 C 0.98173 0.43393 0.92046 0.0
C1159 C 0.98676 0.42513 0.94126 0.0
C1160 C 0.00466 0.4235 0.85986 0.0
C1161 C 0.97005 0.4434 0.92706 0.0
C1162 C 0.99115 0.46671 0.83692 0.0
C1163 C 0.97642 0.45408 0.81926 0.0
C1164 C 0.99366 0.46083 0.86268 0.0
C1165 C 0.98148 0.4417 0.8708 0.0
C1166 C 0.96531 0.42959 0.85442 0.0
C1167 C 0.96291 0.43596 0.82887 0.0
C1168 C 0.01061 0.47474 0.87963 0.0
C1169 C 0.95142 0.40935 0.86282 0.0
H1170 H 0.00974 0.40707 0.90469 0.0
H1171 H 0.98226 0.42523 0.96179 0.0
H1172 H 0.9921 0.41548 0.84609 0.0
H1173 H 0.01302 0.43829 0.85189 0.0
H1174 H 0.01363 0.4165 0.85924 0.0
H1175 H 0.9672 0.44296 0.94906 0.0
H1176 H 0.97757 0.45859 0.92052 0.0
H1177 H 0.95619 0.4361 0.91575 0.0
H1178 H 1.00176 0.48076 0.82999 0.0
H1179 H 0.9511 0.4263 0.81574 0.0
H1180 H 0.0234 0.47439 0.87248 0.0
H1181 H 0.00882 0.47122 0.90147 0.0
H1182 H 0.01325 0.48964 0.87703 0.0
H1183 H 0.95806 0.40017 0.86021 0.0
H1184 H 0.93797 0.40309 0.85048 0.0
H1185 H 0.9479 0.40893 0.88453 0.0
C1186 C 0.58596 0.56931 0.96347 0.0
C1187 C 0.60552 0.5821 0.96101 0.0
C1188 C 0.57493 0.55827 0.94122 0.0
C1189 C 0.58373 0.56023 0.91596 0.0
C1190 C 0.60356 0.57319 0.91348 0.0
C1191 C 0.61424 0.58406 0.93612 0.0
C1192 C 0.55384 0.54471 0.94464 0.0
C1193 C 0.61345 0.57568 0.88687 0.0
C1194 C 0.56135 0.52153 0.86147 0.0
C1195 C 0.55409 0.52984 0.84309 0.0
C1196 C 0.57038 0.53091 0.88584 0.0
C1197 C 0.5722 0.54903 0.89193 0.0
C1198 C 0.56393 0.55696 0.87417 0.0
C1199 C 0.55498 0.54726 0.84996 0.0
C1200 C 0.57892 0.52194 0.90434 0.0
C1201 C 0.56539 0.57615 0.88007 0.0
H1202 H 0.57924 0.56816 0.98273 0.0
H1203 H 0.62938 0.59412 0.93439 0.0
H1204 H 0.54545 0.54901 0.93112 0.0
H1205 H 0.55022 0.52993 0.93865 0.0
H1206 H 0.54933 0.54449 0.96584 0.0
H1207 H 0.629 0.58608 0.88847 0.0
H1208 H 0.61149 0.56167 0.87974 0.0
H1209 H 0.60696 0.58079 0.87122 0.0
H1210 H 0.56095 0.5082 0.85612 0.0
H1211 H 0.54927 0.55366 0.83586 0.0
H1212 H 0.57432 0.52164 0.92547 0.0
H1213 H 0.59473 0.53075 0.90437 0.0
H1214 H 0.5748 0.50707 0.89796 0.0
H1215 H 0.56042 0.57637 0.90081 0.0
H1216 H 0.55687 0.57956 0.86538 0.0
H1217 H 0.58054 0.58764 0.8792 0.0
C1218 C 0.00461 0.57684 0.94789 0.0
C1219 C 0.01162 0.59647 0.94366 0.0
C1220 C 0.00301 0.56461 0.92638 0.0
C1221 C 0.00817 0.57222 0.90001 0.0
C1222 C 0.01585 0.5922 0.89594 0.0
C1223 C 0.01719 0.60402 0.91776 0.0
C1224 C 0.99489 0.54346 0.93164 0.0
C1225 C 0.02174 0.60096 0.86824 0.0
C1226 C 0.01344 0.54672 0.83871 0.0
C1227 C 0.99651 0.54196 0.82424 0.0
C1228 C 0.01683 0.55511 0.86466 0.0
C1229 C 0.00321 0.55925 0.876 0.0
C1230 C 0.98545 0.55299 0.8624 0.0
C1231 C 0.98225 0.54424 0.83685 0.0
C1232 C 0.03555 0.5607 0.87892 0.0
C1233 C 0.97031 0.55674 0.8739 0.0
H1234 H 1.00006 0.57101 0.96796 0.0
H1235 H 0.02203 0.6191 0.91439 0.0
H1236 H 0.98 0.53549 0.92356 0.0
H1237 H 0.00321 0.53785 0.9211 0.0
H1238 H 0.99476 0.5404 0.95363 0.0
H1239 H 0.02878 0.61688 0.86891 0.0
H1240 H 0.03172 0.59678 0.8593 0.0
H1241 H 0.00898 0.59545 0.85457 0.0
H1242 H 0.0245 0.54491 0.82925 0.0
H1243 H 0.96885 0.53998 0.82613 0.0
H1244 H 0.04203 0.55214 0.87149 0.0
H1245 H 0.03376 0.55883 0.90112 0.0
H1246 H 0.04556 0.576 0.87483 0.0
H1247 H 0.95662 0.54927 0.86215 0.0
H1248 H 0.9754 0.57239 0.87366 0.0
H1249 H 0.96757 0.55201 0.89527 0.0
C1250 C 0.41068 0.40222 0.94169 0.0
C1251 C 0.41841 0.39516 0.96137 0.0
C1252 C 0.42097 0.41168 0.91859 0.0
C1253 C 0.43947 0.41416 0.91499 0.0
C1254 C 0.4475 0.40734 0.93491 0.0
C1255 C 0.43689 0.39792 0.9578 0.0
C1256 C 0.41189 0.41869 0.89775 0.0
C1257 C 0.46716 0.40964 0.93178 0.0
C1258 C 0.45562 0.41808 0.84249 0.0
C1259 C 0.46754 0.43795 0.83964 0.0
C1260 C 0.44666 0.41021 0.86697 0.0
C1261 C 0.44975 0.42248 0.88937 0.0
C1262 C 0.46225 0.44252 0.88695 0.0
C1263 C 0.47108 0.45005 0.86207 0.0
C1264 C 0.4336 0.38876 0.86868 0.0
C1265 C 0.46593 0.45603 0.91045 0.0
H1266 H 0.39649 0.40031 0.94423 0.0
H1267 H 0.44314 0.39269 0.9729 0.0
H1268 H 0.42148 0.43415 0.89373 0.0
H1269 H 0.40972 0.41083 0.87834 0.0
H1270 H 0.39787 0.41664 0.90426 0.0
H1271 H 0.47185 0.40464 0.94987 0.0
H1272 H 0.4672 0.40132 0.91385 0.0
H1273 H 0.47776 0.42492 0.92822 0.0
H1274 H 0.45318 0.40862 0.82536 0.0
H1275 H 0.48032 0.46539 0.85992 0.0
H1276 H 0.4189 0.38561 0.87328 0.0
H1277 H 0.43844 0.3828 0.88542 0.0
H1278 H 0.43308 0.38119 0.84957 0.0
H1279 H 0.45242 0.45559 0.91598 0.0
H1280 H 0.47667 0.47108 0.90571 0.0
H1281 H 0.47102 0.45141 0.92848 0.0
C1282 C 0.59029 0.00705 0.93287 0.0
C1283 C 0.59063 0.01562 0.95767 0.0
C1284 C 0.57985 0.00815 0.91057 0.0
C1285 C 0.57008 0.01874 0.91283 0.0
C1286 C 0.57032 0.0274 0.93794 0.0
C1287 C 0.5807 0.02581 0.96009 0.0
C1288 C 0.57972 0.99839 0.88433 0.0
C1289 C 0.56007 0.03877 0.94116 0.0
C1290 C 0.56449 0.03569 0.84353 0.0
C1291 C 0.54671 0.02041 0.83497 0.0
C1292 C 0.57172 0.03625 0.86983 0.0
C1293 C 0.56069 0.02149 0.88825 0.0
C1294 C 0.54176 0.0076 0.88087 0.0
C1295 C 0.53513 0.00697 0.85423 0.0
C1296 C 0.59179 0.05173 0.87707 0.0
C1297 C 0.52893 0.99218 0.90003 0.0
H1298 H 0.59863 0.99987 0.93072 0.0
H1299 H 0.5813 0.03275 0.97921 0.0
H1300 H 0.56478 0.98854 0.87751 0.0
H1301 H 0.58663 0.00929 0.86831 0.0
H1302 H 0.58733 0.99003 0.88632 0.0
H1303 H 0.56037 0.04329 0.96252 0.0
H1304 H 0.56688 0.05178 0.92839 0.0
H1305 H 0.54498 0.03016 0.93411 0.0
H1306 H 0.57327 0.04665 0.82922 0.0
H1307 H 0.52135 0.99505 0.84824 0.0
H1308 H 0.60142 0.04548 0.87722 0.0
H1309 H 0.59242 0.05759 0.89764 0.0
H1310 H 0.59729 0.06371 0.86236 0.0
H1311 H 0.53064 0.97944 0.89681 0.0
H1312 H 0.51369 0.98779 0.89585 0.0
H1313 H 0.53243 0.99687 0.92149 0.0
C1314 C 0.58706 0.99106 0.09567 0.0
C1315 C 0.58514 0.99978 0.07221 0.0
C1316 C 0.57765 0.99094 0.11936 0.0
C1317 C 0.56599 0.99966 0.11934 0.0
C1318 C 0.5643 0.00876 0.09564 0.0
C1319 C 0.57393 0.00869 0.07225 0.0
C1320 C 0.57983 0.9811 0.14423 0.0
C1321 C 0.55199 0.01815 0.09482 0.0
C1322 C 0.52787 0.9796 0.17263 0.0
C1323 C 0.53673 0.99282 0.19396 0.0
C1324 C 0.53677 0.98224 0.1476 0.0
C1325 C 0.55501 0.99845 0.14386 0.0
C1326 C 0.56345 0.0125 0.16466 0.0
C1327 C 0.55419 0.00952 0.18947 0.0
C1328 C 0.52723 0.967 0.12585 0.0
C1329 C 0.58281 0.03005 0.16136 0.0
H1330 H 0.59571 0.98411 0.09532 0.0
H1331 H 0.57244 0.01529 0.05383 0.0
H1332 H 0.58499 0.99121 0.16173 0.0
H1333 H 0.56574 0.96885 0.1496 0.0
H1334 H 0.58995 0.97563 0.14117 0.0
H1335 H 0.55301 0.02548 0.07529 0.0
H1336 H 0.53684 0.00716 0.09784 0.0
H1337 H 0.55621 0.0288 0.11156 0.0
H1338 H 0.51452 0.96652 0.176 0.0
H1339 H 0.561 0.01989 0.2058 0.0
H1340 H 0.53527 0.95914 0.12352 0.0
H1341 H 0.52735 0.97363 0.10605 0.0
H1342 H 0.51222 0.95646 0.13072 0.0
H1343 H 0.59394 0.02569 0.1611 0.0
H1344 H 0.58636 0.04065 0.17805 0.0
H1345 H 0.58341 0.03714 0.14178 0.0
C1346 C 0.05033 0.60616 0.06082 0.0
C1347 C 0.03439 0.6086 0.05598 0.0
C1348 C 0.05154 0.59643 0.08385 0.0
C1349 C 0.03649 0.58899 0.10255 0.0
C1350 C 0.02031 0.59126 0.09771 0.0
C1351 C 0.01946 0.60101 0.07455 0.0
C1352 C 0.06903 0.59432 0.08836 0.0
C1353 C 0.00398 0.5836 0.11723 0.0
C1354 C 0.02996 0.55131 0.15488 0.0
C1355 C 0.03679 0.56259 0.17845 0.0
C1356 C 0.03046 0.55976 0.12966 0.0
C1357 C 0.03806 0.57993 0.12814 0.0
C1358 C 0.04591 0.59141 0.15171 0.0
C1359 C 0.04519 0.58261 0.17653 0.0
C1360 C 0.02203 0.54705 0.10493 0.0
C1361 C 0.05431 0.61295 0.15099 0.0
H1362 H 0.0619 0.61181 0.04657 0.0
H1363 H 0.00703 0.60271 0.07106 0.0
H1364 H 0.07672 0.60209 0.10716 0.0
H1365 H 0.06478 0.57898 0.09117 0.0
H1366 H 0.07903 0.60004 0.07123 0.0
H1367 H 0.99208 0.58584 0.10997 0.0
H1368 H 0.99835 0.56801 0.12038 0.0
H1369 H 0.00915 0.59083 0.13723 0.0
H1370 H 0.02351 0.53584 0.15637 0.0
H1371 H 0.05081 0.59139 0.1947 0.0
H1372 H 0.03205 0.55273 0.08784 0.0
H1373 H 0.00871 0.54696 0.09842 0.0
H1374 H 0.01862 0.53203 0.10886 0.0
H1375 H 0.06513 0.61922 0.13495 0.0
H1376 H 0.06112 0.61992 0.17066 0.0
H1377 H 0.04289 0.61648 0.14598 0.0
C1378 C 0.40634 0.40323 0.09749 0.0
C1379 C 0.40684 0.40917 0.07072 0.0
C1380 C 0.41658 0.41657 0.11823 0.0
C1381 C 0.42713 0.4364 0.11211 0.0
C1382 C 0.42795 0.44241 0.08493 0.0
C1383 C 0.41764 0.42871 0.06458 0.0
C1384 C 0.41551 0.4095 0.14686 0.0
C1385 C 0.43909 0.46335 0.07749 0.0
C1386 C 0.43187 0.46872 0.17137 0.0
C1387 C 0.44968 0.47297 0.18275 0.0
C1388 C 0.4247 0.4575 0.1477 0.0
C1389 C 0.43582 0.45079 0.13458 0.0
C1390 C 0.45449 0.45655 0.14455 0.0
C1391 C 0.46107 0.46724 0.16872 0.0
C1392 C 0.40479 0.45197 0.13761 0.0
C1393 C 0.46717 0.45046 0.13076 0.0
H1394 H 0.39744 0.38819 0.10234 0.0
H1395 H 0.41773 0.43329 0.04386 0.0
H1396 H 0.40825 0.41521 0.15974 0.0
H1397 H 0.40761 0.39357 0.14796 0.0
H1398 H 0.43011 0.41484 0.15549 0.0
H1399 H 0.4401 0.46543 0.0552 0.0
H1400 H 0.43203 0.47107 0.08589 0.0
H1401 H 0.45374 0.47007 0.08645 0.0
H1402 H 0.42316 0.47354 0.18157 0.0
H1403 H 0.47477 0.4702 0.17725 0.0
H1404 H 0.39531 0.43628 0.14 0.0
H1405 H 0.4049 0.45518 0.11572 0.0
H1406 H 0.3986 0.45958 0.1488 0.0
H1407 H 0.46247 0.43538 0.13617 0.0
H1408 H 0.48238 0.45939 0.13723 0.0
H1409 H 0.46607 0.45131 0.10843 0.0
C1410 C 0.68657 0.75563 0.39999 0.0
C1411 C 0.70097 0.76359 0.38064 0.0
C1412 C 0.68796 0.76542 0.42419 0.0
C1413 C 0.70415 0.78363 0.42931 0.0
C1414 C 0.71861 0.79192 0.40979 0.0
C1415 C 0.71686 0.78181 0.38568 0.0
C1416 C 0.67222 0.75607 0.44454 0.0
C1417 C 0.73608 0.81131 0.41459 0.0
C1418 C 0.69836 0.81217 0.48626 0.0
C1419 C 0.70573 0.80675 0.5084 0.0
C1420 C 0.69853 0.8055 0.45999 0.0
C1421 C 0.70636 0.79326 0.45594 0.0
C1422 C 0.71484 0.78873 0.47806 0.0
C1423 C 0.71442 0.79554 0.504 0.0
C1424 C 0.68943 0.8107 0.43687 0.0
C1425 C 0.7235 0.77588 0.47462 0.0
H1426 H 0.67418 0.74164 0.39634 0.0
H1427 H 0.72801 0.78819 0.37084 0.0
H1428 H 0.67799 0.7533 0.46357 0.0
H1429 H 0.66661 0.76583 0.44964 0.0
H1430 H 0.66017 0.74225 0.43694 0.0
H1431 H 0.74548 0.81628 0.39674 0.0
H1432 H 0.73179 0.82216 0.4195 0.0
H1433 H 0.74445 0.8106 0.43225 0.0
H1434 H 0.69167 0.82087 0.48969 0.0
H1435 H 0.72045 0.79165 0.52109 0.0
H1436 H 0.67592 0.79781 0.43038 0.0
H1437 H 0.69892 0.81556 0.41915 0.0
H1438 H 0.68616 0.82217 0.44265 0.0
H1439 H 0.71208 0.76114 0.4692 0.0
H1440 H 0.73098 0.77515 0.49335 0.0
H1441 H 0.73379 0.78106 0.45784 0.0
C1442 C 0.26539 0.93269 0.43588 0.0
C1443 C 0.25938 0.93156 0.40886 0.0
C1444 C 0.25221 0.92279 0.45623 0.0
C1445 C 0.23244 0.91207 0.44947 0.0
C1446 C 0.22633 0.91078 0.42208 0.0
C1447 C 0.2399 0.92063 0.4021 0.0
C1448 C 0.25939 0.92428 0.48509 0.0
C1449 C 0.20545 0.89954 0.41404 0.0
C1450 C 0.20297 0.87844 0.50528 0.0
C1451 C 0.19818 0.89026 0.52029 0.0
C1452 C 0.21274 0.8847 0.48088 0.0
C1453 C 0.21828 0.9034 0.47149 0.0
C1454 C 0.212 0.91473 0.48526 0.0
C1455 C 0.20191 0.90797 0.50939 0.0
C1456 C 0.2185 0.8718 0.4667 0.0
C1457 C 0.21711 0.93457 0.47561 0.0
H1458 H 0.28037 0.94175 0.44121 0.0
H1459 H 0.23525 0.92008 0.38119 0.0
H1460 H 0.25374 0.9317 0.4978 0.0
H1461 H 0.25415 0.90971 0.49354 0.0
H1462 H 0.27524 0.93228 0.48672 0.0
H1463 H 0.20317 0.8988 0.3917 0.0
H1464 H 0.199 0.88471 0.42197 0.0
H1465 H 0.19771 0.90635 0.42312 0.0
H1466 H 0.20034 0.86479 0.51347 0.0
H1467 H 0.19787 0.91702 0.52055 0.0
H1468 H 0.2087 0.85644 0.47127 0.0
H1469 H 0.233 0.87545 0.47407 0.0
H1470 H 0.21877 0.8737 0.44444 0.0
H1471 H 0.20919 0.94052 0.48651 0.0
H1472 H 0.21405 0.93433 0.45356 0.0
H1473 H 0.23265 0.9444 0.47894 0.0
C1474 C 0.07978 0.31173 0.38837 0.0
C1475 C 0.07104 0.3229 0.3925 0.0
C1476 C 0.0897 0.30847 0.40962 0.0
C1477 C 0.09071 0.31646 0.43558 0.0
C1478 C 0.08231 0.32819 0.43955 0.0
C1479 C 0.07225 0.33094 0.41809 0.0
C1480 C 0.09829 0.29575 0.40462 0.0
C1481 C 0.08329 0.33723 0.46678 0.0
C1482 C 0.09214 0.29193 0.50045 0.0
C1483 C 0.11107 0.3036 0.50942 0.0
C1484 C 0.08569 0.29523 0.47553 0.0
C1485 C 0.09843 0.3108 0.4594 0.0
C1486 C 0.11789 0.32184 0.46765 0.0
C1487 C 0.12401 0.31806 0.49262 0.0
C1488 C 0.06496 0.28273 0.46725 0.0
C1489 C 0.132 0.33856 0.45132 0.0
H1490 H 0.07854 0.30524 0.36863 0.0
H1491 H 0.06486 0.33897 0.42151 0.0
H1492 H 0.11338 0.30289 0.41196 0.0
H1493 H 0.09039 0.28225 0.41617 0.0
H1494 H 0.09777 0.29206 0.38282 0.0
H1495 H 0.07743 0.34722 0.46591 0.0
H1496 H 0.07506 0.32587 0.48171 0.0
H1497 H 0.09831 0.34523 0.47434 0.0
H1498 H 0.0822 0.28063 0.51349 0.0
H1499 H 0.13863 0.32712 0.49972 0.0
H1500 H 0.06374 0.27775 0.44596 0.0
H1501 H 0.05745 0.29118 0.46842 0.0
H1502 H 0.05755 0.26997 0.48045 0.0
H1503 H 0.12936 0.33555 0.42927 0.0
H1504 H 0.14696 0.34225 0.45632 0.0
H1505 H 0.13042 0.35122 0.45617 0.0
C1506 C 0.09917 0.34885 0.27923 0.0
C1507 C 0.07924 0.34084 0.2801 0.0
C1508 C 0.10809 0.34762 0.25578 0.0
C1509 C 0.09691 0.33875 0.23222 0.0
C1510 C 0.07677 0.33044 0.23296 0.0
C1511 C 0.06814 0.33136 0.25703 0.0
C1512 C 0.12955 0.35627 0.25606 0.0
C1513 C 0.0644 0.32127 0.20804 0.0
C1514 C 0.12118 0.35709 0.16506 0.0
C1515 C 0.12362 0.34184 0.1559 0.0
C1516 C 0.11239 0.35614 0.18966 0.0
C1517 C 0.10646 0.3398 0.2062 0.0
C1518 C 0.10974 0.32475 0.19788 0.0
C1519 C 0.11812 0.32585 0.17267 0.0
C1520 C 0.10908 0.37247 0.19764 0.0
C1521 C 0.10411 0.30737 0.21539 0.0
H1522 H 0.10791 0.35614 0.29692 0.0
H1523 H 0.05276 0.32519 0.2575 0.0
H1524 H 0.13352 0.34586 0.24779 0.0
H1525 H 0.13599 0.3691 0.24293 0.0
H1526 H 0.13591 0.36064 0.27678 0.0
H1527 H 0.04892 0.31465 0.21228 0.0
H1528 H 0.06798 0.33226 0.19211 0.0
H1529 H 0.06723 0.31007 0.19972 0.0
H1530 H 0.12585 0.36976 0.15264 0.0
H1531 H 0.11985 0.31396 0.16579 0.0
H1532 H 0.11667 0.37899 0.21707 0.0
H1533 H 0.09363 0.36698 0.20081 0.0
H1534 H 0.11406 0.3839 0.18208 0.0
H1535 H 0.11042 0.3119 0.23608 0.0
H1536 H 0.10881 0.29756 0.20691 0.0
H1537 H 0.08837 0.2993 0.21739 0.0
C1538 C 0.66659 0.76499 0.27395 0.0
C1539 C 0.6746 0.75324 0.26914 0.0
C1540 C 0.66408 0.77537 0.25278 0.0
C1541 C 0.66949 0.77366 0.22625 0.0
C1542 C 0.67804 0.76214 0.22156 0.0
C1543 C 0.68016 0.7518 0.24299 0.0
C1544 C 0.65493 0.78749 0.2586 0.0
C1545 C 0.68426 0.76012 0.19365 0.0
C1546 C 0.64441 0.77679 0.16263 0.0
C1547 C 0.65863 0.79381 0.15115 0.0
C1548 C 0.64723 0.77069 0.18806 0.0
C1549 C 0.66451 0.7821 0.20269 0.0
C1550 C 0.67795 0.80027 0.19255 0.0
C1551 C 0.67503 0.80578 0.16669 0.0
C1552 C 0.63226 0.75139 0.19836 0.0
C1553 C 0.6961 0.8134 0.2079 0.0
H1554 H 0.66201 0.76582 0.29419 0.0
H1555 H 0.68569 0.74214 0.23915 0.0
H1556 H 0.66317 0.80187 0.24936 0.0
H1557 H 0.64034 0.78058 0.24941 0.0
H1558 H 0.65387 0.78931 0.28069 0.0
H1559 H 0.69173 0.75157 0.19378 0.0
H1560 H 0.67161 0.75299 0.17979 0.0
H1561 H 0.69396 0.77451 0.18529 0.0
H1562 H 0.63134 0.76779 0.1512 0.0
H1563 H 0.68612 0.819 0.1582 0.0
H1564 H 0.62913 0.75253 0.21985 0.0
H1565 H 0.63774 0.74111 0.19738 0.0
H1566 H 0.61873 0.7454 0.18626 0.0
H1567 H 0.69403 0.81208 0.23009 0.0
H1568 H 0.70161 0.82863 0.20217 0.0
H1569 H 0.70703 0.80944 0.2027 0.0
C1570 C 0.28108 0.91839 0.2782 0.0
C1571 C 0.27186 0.91646 0.30263 0.0
C1572 C 0.27072 0.90802 0.25508 0.0
C1573 C 0.25071 0.89559 0.25664 0.0
C1574 C 0.24144 0.89352 0.28151 0.0
C1575 C 0.25217 0.90407 0.30426 0.0
C1576 C 0.2811 0.9106 0.2289 0.0
C1577 C 0.22017 0.88047 0.28396 0.0
C1578 C 0.22352 0.88523 0.18958 0.0
C1579 C 0.22201 0.86764 0.18208 0.0
C1580 C 0.23219 0.89416 0.21432 0.0
C1581 C 0.23948 0.88524 0.23197 0.0
C1582 C 0.23704 0.86698 0.22521 0.0
C1583 C 0.22834 0.85839 0.20031 0.0
C1584 C 0.23436 0.91356 0.22094 0.0
C1585 C 0.24454 0.85698 0.24359 0.0
H1586 H 0.29633 0.92816 0.27714 0.0
H1587 H 0.24511 0.90293 0.32322 0.0
H1588 H 0.27859 0.8965 0.22127 0.0
H1589 H 0.27544 0.91655 0.21324 0.0
H1590 H 0.29674 0.92037 0.23131 0.0
H1591 H 0.21532 0.87984 0.30505 0.0
H1592 H 0.21241 0.8856 0.27057 0.0
H1593 H 0.21613 0.86572 0.27717 0.0
H1594 H 0.21851 0.89234 0.17561 0.0
H1595 H 0.22745 0.84492 0.19448 0.0
H1596 H 0.24971 0.9246 0.22104 0.0
H1597 H 0.22895 0.91349 0.24147 0.0
H1598 H 0.22662 0.91784 0.20608 0.0
H1599 H 0.26039 0.86521 0.24429 0.0
H1600 H 0.23994 0.84211 0.23662 0.0
H1601 H 0.23961 0.85644 0.26457 0.0
C1602 C 0.66889 0.92405 0.24958 0.0
C1603 C 0.66299 0.91735 0.27575 0.0
C1604 C 0.66492 0.91124 0.22789 0.0
C1605 C 0.65393 0.89119 0.23225 0.0
C1606 C 0.64774 0.88432 0.25868 0.0
C1607 C 0.65238 0.89752 0.28016 0.0
C1608 C 0.67205 0.91922 0.20011 0.0
C1609 C 0.63563 0.86313 0.26404 0.0
C1610 C 0.6307 0.8681 0.16533 0.0
C1611 C 0.64405 0.86332 0.15539 0.0
C1612 C 0.63248 0.87524 0.19181 0.0
C1613 C 0.64808 0.8778 0.20855 0.0
C1614 C 0.65994 0.87049 0.19981 0.0
C1615 C 0.65781 0.86337 0.17328 0.0
C1616 C 0.61879 0.88182 0.20081 0.0
C1617 C 0.6763 0.87202 0.21698 0.0
H1618 H 0.67621 0.93937 0.24592 0.0
H1619 H 0.64737 0.89236 0.30035 0.0
H1620 H 0.68021 0.91263 0.19174 0.0
H1621 H 0.65978 0.9156 0.18609 0.0
H1622 H 0.68135 0.93507 0.20048 0.0
H1623 H 0.63286 0.86006 0.28595 0.0
H1624 H 0.62174 0.85745 0.25298 0.0
H1625 H 0.6427 0.85522 0.25637 0.0
H1626 H 0.61976 0.86768 0.15172 0.0
H1627 H 0.66815 0.8596 0.16584 0.0
H1628 H 0.62571 0.89766 0.1991 0.0
H1629 H 0.61498 0.87809 0.22231 0.0
H1630 H 0.60548 0.87535 0.18814 0.0
H1631 H 0.67832 0.85943 0.2135 0.0
H1632 H 0.67423 0.8731 0.2389 0.0
H1633 H 0.68955 0.88498 0.21083 0.0
C1634 C 0.1041 0.7334 0.29115 0.0
C1635 C 0.08573 0.73053 0.29609 0.0
C1636 C 0.11434 0.74363 0.26847 0.0
C1637 C 0.10607 0.75124 0.25019 0.0
C1638 C 0.08771 0.74873 0.25524 0.0
C1639 C 0.07775 0.73839 0.27808 0.0
C1640 C 0.13383 0.74588 0.26372 0.0
C1641 C 0.07842 0.75663 0.23619 0.0
C1642 C 0.13773 0.78865 0.1989 0.0
C1643 C 0.13386 0.77729 0.17555 0.0
C1644 C 0.12881 0.78042 0.22347 0.0
C1645 C 0.11593 0.76038 0.22463 0.0
C1646 C 0.1124 0.74885 0.20123 0.0
C1647 C 0.12141 0.75742 0.17707 0.0
C1648 C 0.13293 0.79315 0.24806 0.0
C1649 C 0.09896 0.72742 0.2016 0.0
H1650 H 0.11052 0.72753 0.30494 0.0
H1651 H 0.06366 0.73642 0.28174 0.0
H1652 H 0.13343 0.73817 0.24485 0.0
H1653 H 0.14448 0.76125 0.26094 0.0
H1654 H 0.13876 0.74018 0.28072 0.0
H1655 H 0.06465 0.75456 0.24389 0.0
H1656 H 0.08812 0.77219 0.233 0.0
H1657 H 0.07571 0.7494 0.21614 0.0
H1658 H 0.14736 0.80399 0.19776 0.0
H1659 H 0.11871 0.74851 0.15919 0.0
H1660 H 0.1384 0.78799 0.26504 0.0
H1661 H 0.11953 0.79245 0.25484 0.0
H1662 H 0.14355 0.80836 0.24398 0.0
H1663 H 0.10389 0.72066 0.21707 0.0
H1664 H 0.09788 0.72049 0.18166 0.0
H1665 H 0.08447 0.72439 0.2073 0.0
C1666 C 0.25879 0.34148 0.25565 0.0
C1667 C 0.25858 0.34899 0.28111 0.0
C1668 C 0.24852 0.3432 0.23358 0.0
C1669 C 0.23837 0.35335 0.23683 0.0
C1670 C 0.23812 0.36098 0.26258 0.0
C1671 C 0.24832 0.35876 0.28445 0.0
C1672 C 0.24891 0.33455 0.2066 0.0
C1673 C 0.22749 0.37186 0.26685 0.0
C1674 C 0.23234 0.37271 0.16955 0.0
C1675 C 0.21446 0.3578 0.16058 0.0
C1676 C 0.23978 0.37222 0.19532 0.0
C1677 C 0.22895 0.35666 0.21273 0.0
C1678 C 0.21005 0.34288 0.20499 0.0
C1679 C 0.20315 0.34343 0.17892 0.0
C1680 C 0.25981 0.38758 0.20303 0.0
C1681 C 0.19756 0.32642 0.22298 0.0
H1682 H 0.2674 0.33465 0.25284 0.0
H1683 H 0.24849 0.36489 0.3041 0.0
H1684 H 0.2341 0.32473 0.19921 0.0
H1685 H 0.25584 0.34606 0.19139 0.0
H1686 H 0.25676 0.32638 0.2078 0.0
H1687 H 0.22794 0.37609 0.2884 0.0
H1688 H 0.23382 0.38502 0.25433 0.0
H1689 H 0.21235 0.36299 0.26015 0.0
H1690 H 0.24097 0.38424 0.15586 0.0
H1691 H 0.18937 0.33172 0.17243 0.0
H1692 H 0.26954 0.38147 0.20227 0.0
H1693 H 0.26037 0.39272 0.22406 0.0
H1694 H 0.26524 0.40004 0.18916 0.0
H1695 H 0.20003 0.31429 0.21845 0.0
H1696 H 0.18219 0.32148 0.2189 0.0
H1697 H 0.20078 0.3303 0.24473 0.0
C1698 C 0.23196 0.31241 0.40037 0.0
C1699 C 0.24963 0.32846 0.39432 0.0
C1700 C 0.22265 0.31154 0.42449 0.0
C1701 C 0.23111 0.32712 0.44305 0.0
C1702 C 0.2486 0.34362 0.43675 0.0
C1703 C 0.25769 0.34408 0.41251 0.0
C1704 C 0.20409 0.29361 0.43056 0.0
C1705 C 0.258 0.36056 0.45601 0.0
C1706 C 0.20018 0.328 0.49997 0.0
C1707 C 0.20573 0.32013 0.52133 0.0
C1708 C 0.20855 0.33074 0.47439 0.0
C1709 C 0.22261 0.32528 0.47015 0.0
C1710 C 0.22818 0.31729 0.49167 0.0
C1711 C 0.21967 0.31479 0.5169 0.0
C1712 C 0.20231 0.33936 0.4519 0.0
C1713 C 0.24292 0.31102 0.48794 0.0
H1714 H 0.2255 0.30028 0.38647 0.0
H1715 H 0.27122 0.35662 0.40796 0.0
H1716 H 0.2062 0.28625 0.44829 0.0
H1717 H 0.193 0.29736 0.43592 0.0
H1718 H 0.19869 0.28337 0.41317 0.0
H1719 H 0.27063 0.37296 0.44707 0.0
H1720 H 0.24764 0.3652 0.46189 0.0
H1721 H 0.26268 0.3563 0.47481 0.0
H1722 H 0.18939 0.33209 0.50334 0.0
H1723 H 0.22368 0.30824 0.53313 0.0
H1724 H 0.19604 0.32901 0.43476 0.0
H1725 H 0.21486 0.35238 0.44408 0.0
H1726 H 0.19159 0.3433 0.45867 0.0
H1727 H 0.23783 0.29956 0.47221 0.0
H1728 H 0.24598 0.30549 0.50695 0.0
H1729 H 0.25646 0.32323 0.4808 0.0
C1730 C 0.67758 0.92394 0.40578 0.0
C1731 C 0.69211 0.93076 0.3866 0.0
C1732 C 0.67879 0.91483 0.42946 0.0
C1733 C 0.69494 0.91251 0.43421 0.0
C1734 C 0.70951 0.91904 0.41479 0.0
C1735 C 0.70791 0.92806 0.39122 0.0
C1736 C 0.66295 0.90806 0.44969 0.0
C1737 C 0.72698 0.91689 0.4192 0.0
C1738 C 0.70617 0.90974 0.50835 0.0
C1739 C 0.6981 0.8899 0.51213 0.0
C1740 C 0.70583 0.91728 0.48287 0.0
C1741 C 0.69721 0.90467 0.46053 0.0
C1742 C 0.6898 0.88465 0.46391 0.0
C1743 C 0.6904 0.87748 0.48976 0.0
C1744 C 0.7141 0.93872 0.48012 0.0
C1745 C 0.68056 0.87077 0.44053 0.0
H1746 H 0.66523 0.92578 0.40241 0.0
H1747 H 0.71917 0.93313 0.3765 0.0
H1748 H 0.65749 0.89268 0.45433 0.0
H1749 H 0.66857 0.91624 0.46896 0.0
H1750 H 0.65084 0.9099 0.44225 0.0
H1751 H 0.73638 0.92151 0.40134 0.0
H1752 H 0.73535 0.92564 0.43701 0.0
H1753 H 0.7227 0.90172 0.42367 0.0
H1754 H 0.71249 0.9194 0.52556 0.0
H1755 H 0.68422 0.86214 0.49269 0.0
H1756 H 0.70253 0.94197 0.4748 0.0
H1757 H 0.72452 0.94422 0.4635 0.0
H1758 H 0.72136 0.94663 0.49908 0.0
H1759 H 0.66706 0.87042 0.43436 0.0
H1760 H 0.67728 0.85597 0.44583 0.0
H1761 H 0.68999 0.87555 0.42274 0.0
C1762 C 0.08649 0.75956 0.40242 0.0
C1763 C 0.07544 0.73986 0.40734 0.0
C1764 C 0.09689 0.77254 0.4235 0.0
C1765 C 0.09581 0.76564 0.45022 0.0
C1766 C 0.08505 0.74563 0.45507 0.0
C1767 C 0.07481 0.73301 0.43359 0.0
C1768 C 0.10833 0.79368 0.41736 0.0
C1769 C 0.08362 0.73762 0.48316 0.0
C1770 C 0.12913 0.7952 0.50831 0.0
C1771 C 0.11765 0.80082 0.52232 0.0
C1772 C 0.12272 0.78478 0.48388 0.0
C1773 C 0.10419 0.77932 0.47355 0.0
C1774 C 0.09295 0.78583 0.48681 0.0
C1775 C 0.09992 0.7967 0.51078 0.0
C1776 C 0.13545 0.77879 0.46999 0.0
C1777 C 0.07316 0.78051 0.47644 0.0
H1778 H 0.08671 0.76485 0.3821 0.0
H1779 H 0.06578 0.71783 0.4375 0.0
H1780 H 0.1012 0.80124 0.42607 0.0
H1781 H 0.12281 0.80002 0.42683 0.0
H1782 H 0.10977 0.79643 0.39522 0.0
H1783 H 0.0758 0.72167 0.48318 0.0
H1784 H 0.0981 0.74275 0.49211 0.0
H1785 H 0.0761 0.74281 0.49645 0.0
H1786 H 0.14276 0.79811 0.51701 0.0
H1787 H 0.09114 0.8014 0.52105 0.0
H1788 H 0.15045 0.78685 0.47773 0.0
H1789 H 0.1353 0.781 0.44782 0.0
H1790 H 0.13 0.76331 0.47361 0.0
H1791 H 0.06671 0.78763 0.48819 0.0
H1792 H 0.06371 0.76473 0.47771 0.0
H1793 H 0.07358 0.78449 0.45483 0.0
C1794 C 0.3824 0.11394 0.71971 0.0
C1795 C 0.367 0.09527 0.71561 0.0
C1796 C 0.38401 0.12446 0.74332 0.0
C1797 C 0.36992 0.11612 0.76334 0.0
C1798 C 0.35423 0.09742 0.75921 0.0
C1799 C 0.35297 0.08724 0.73545 0.0
C1800 C 0.40094 0.14436 0.74706 0.0
C1801 C 0.33892 0.088 0.78013 0.0
C1802 C 0.38113 0.13016 0.83731 0.0
C1803 C 0.37172 0.14072 0.84136 0.0
C1804 C 0.38145 0.12288 0.81168 0.0
C1805 C 0.37211 0.12625 0.78952 0.0
C1806 C 0.36353 0.13788 0.79315 0.0
C1807 C 0.36349 0.14505 0.81913 0.0
C1808 C 0.3909 0.11072 0.80868 0.0
C1809 C 0.35352 0.14185 0.76995 0.0
H1810 H 0.39326 0.12038 0.70447 0.0
H1811 H 0.34096 0.0729 0.73252 0.0
H1812 H 0.39602 0.15478 0.75152 0.0
H1813 H 0.40982 0.14455 0.76466 0.0
H1814 H 0.41003 0.14925 0.72889 0.0
H1815 H 0.32721 0.07374 0.77329 0.0
H1816 H 0.34528 0.08609 0.79923 0.0
H1817 H 0.33273 0.09732 0.78486 0.0
H1818 H 0.38777 0.12708 0.85449 0.0
H1819 H 0.35623 0.15324 0.82231 0.0
H1820 H 0.40089 0.11585 0.79153 0.0
H1821 H 0.37989 0.09565 0.80409 0.0
H1822 H 0.39893 0.11087 0.82734 0.0
H1823 H 0.36268 0.14665 0.75189 0.0
H1824 H 0.34963 0.15295 0.77529 0.0
H1825 H 0.34027 0.12843 0.76421 0.0
C1826 C 0.93066 0.26174 0.76229 0.0
C1827 C 0.92458 0.26125 0.73545 0.0
C1828 C 0.91742 0.25275 0.78288 0.0
C1829 C 0.89758 0.24365 0.77658 0.0
C1830 C 0.89137 0.24304 0.74938 0.0
C1831 C 0.90498 0.25195 0.72913 0.0
C1832 C 0.92468 0.25347 0.81153 0.0
C1833 C 0.8704 0.23348 0.74183 0.0
C1834 C 0.8675 0.21115 0.83278 0.0
C1835 C 0.86421 0.22382 0.84842 0.0
C1836 C 0.87679 0.21682 0.80797 0.0
C1837 C 0.88358 0.23583 0.79889 0.0
C1838 C 0.87888 0.24814 0.81335 0.0
C1839 C 0.86905 0.24191 0.83777 0.0
C1840 C 0.88069 0.20284 0.79293 0.0
C1841 C 0.88539 0.26838 0.80407 0.0
H1842 H 0.9458 0.26961 0.76731 0.0
H1843 H 0.90031 0.25191 0.70836 0.0
H1844 H 0.92012 0.26164 0.82469 0.0
H1845 H 0.91844 0.23871 0.81972 0.0
H1846 H 0.9405 0.26032 0.81282 0.0
H1847 H 0.86792 0.23316 0.71956 0.0
H1848 H 0.8629 0.21854 0.74944 0.0
H1849 H 0.86385 0.24127 0.75154 0.0
H1850 H 0.86404 0.19718 0.84064 0.0
H1851 H 0.86606 0.25163 0.84925 0.0
H1852 H 0.89479 0.20501 0.79982 0.0
H1853 H 0.88093 0.20506 0.77074 0.0
H1854 H 0.86983 0.18775 0.79728 0.0
H1855 H 0.90111 0.27719 0.80701 0.0
H1856 H 0.87855 0.27525 0.81551 0.0
H1857 H 0.88215 0.26853 0.78215 0.0
C1858 C 0.73955 0.66465 0.75848 0.0
C1859 C 0.73816 0.65633 0.73305 0.0
C1860 C 0.74945 0.66183 0.78009 0.0
C1861 C 0.75744 0.6497 0.77647 0.0
C1862 C 0.75617 0.64134 0.7507 0.0
C1863 C 0.74649 0.64474 0.72928 0.0
C1864 C 0.75078 0.6713 0.80709 0.0
C1865 C 0.76431 0.62818 0.7461 0.0
C1866 C 0.79138 0.65138 0.83256 0.0
C1867 C 0.77862 0.63725 0.84989 0.0
C1868 C 0.78492 0.65508 0.80783 0.0
C1869 C 0.76529 0.64427 0.80037 0.0
C1870 C 0.75265 0.62909 0.81715 0.0
C1871 C 0.75945 0.62591 0.84188 0.0
C1872 C 0.79891 0.67149 0.79095 0.0
C1873 C 0.73174 0.61682 0.80966 0.0
H1874 H 0.73244 0.67298 0.76165 0.0
H1875 H 0.74508 0.63801 0.70968 0.0
H1876 H 0.74256 0.6602 0.82234 0.0
H1877 H 0.76587 0.67921 0.81439 0.0
H1878 H 0.74513 0.68146 0.80597 0.0
H1879 H 0.76325 0.62386 0.72448 0.0
H1880 H 0.77953 0.6353 0.75278 0.0
H1881 H 0.75651 0.61505 0.75844 0.0
H1882 H 0.80618 0.66023 0.83902 0.0
H1883 H 0.74964 0.61496 0.85546 0.0
H1884 H 0.81386 0.6749 0.79532 0.0
H1885 H 0.79775 0.68438 0.79595 0.0
H1886 H 0.7958 0.66835 0.76899 0.0
H1887 H 0.72436 0.60434 0.82334 0.0
H1888 H 0.73005 0.61144 0.78851 0.0
H1889 H 0.72455 0.62557 0.81079 0.0
C1890 C 0.76689 0.68161 0.61989 0.0
C1891 C 0.74694 0.67342 0.62069 0.0
C1892 C 0.77587 0.68002 0.59675 0.0
C1893 C 0.76472 0.67054 0.57342 0.0
C1894 C 0.74455 0.66201 0.57413 0.0
C1895 C 0.73588 0.66335 0.59789 0.0
C1896 C 0.79736 0.68895 0.59705 0.0
C1897 C 0.7322 0.65216 0.54944 0.0
C1898 C 0.78849 0.68777 0.50574 0.0
C1899 C 0.79119 0.67253 0.49736 0.0
C1900 C 0.77984 0.6872 0.53032 0.0
C1901 C 0.77428 0.67127 0.54756 0.0
C1902 C 0.77788 0.65628 0.54003 0.0
C1903 C 0.78617 0.657 0.51486 0.0
C1904 C 0.77621 0.70347 0.53747 0.0
C1905 C 0.77264 0.63933 0.55829 0.0
H1906 H 0.77561 0.68935 0.63738 0.0
H1907 H 0.72047 0.65701 0.59831 0.0
H1908 H 0.80155 0.67856 0.58937 0.0
H1909 H 0.80361 0.70154 0.58344 0.0
H1910 H 0.80372 0.69379 0.61769 0.0
H1911 H 0.71672 0.64537 0.55369 0.0
H1912 H 0.73555 0.66278 0.53302 0.0
H1913 H 0.73529 0.64098 0.54176 0.0
H1914 H 0.7928 0.70009 0.49271 0.0
H1915 H 0.78815 0.64515 0.50856 0.0
H1916 H 0.78374 0.71038 0.55677 0.0
H1917 H 0.76072 0.69781 0.54052 0.0
H1918 H 0.78105 0.71461 0.52151 0.0
H1919 H 0.77894 0.64436 0.57888 0.0
H1920 H 0.77762 0.62959 0.55041 0.0
H1921 H 0.75691 0.63102 0.56037 0.0
C1922 C 0.33164 0.09522 0.61105 0.0
C1923 C 0.3398 0.08369 0.6055 0.0
C1924 C 0.3288 0.10573 0.5904 0.0
C1925 C 0.33401 0.10438 0.56358 0.0
C1926 C 0.34264 0.09304 0.5581 0.0
C1927 C 0.34513 0.08258 0.57907 0.0
C1928 C 0.31962 0.11768 0.59708 0.0
C1929 C 0.34865 0.09139 0.52988 0.0
C1930 C 0.30851 0.10896 0.50127 0.0
C1931 C 0.32269 0.1262 0.4902 0.0
C1932 C 0.31154 0.10222 0.52608 0.0
C1933 C 0.32895 0.11325 0.54062 0.0
C1934 C 0.34235 0.13162 0.53101 0.0
C1935 C 0.33926 0.13773 0.50571 0.0
C1936 C 0.29662 0.08271 0.53579 0.0
C1937 C 0.36065 0.14436 0.54629 0.0
H1938 H 0.32725 0.09579 0.63151 0.0
H1939 H 0.3508 0.07311 0.57466 0.0
H1940 H 0.30509 0.11103 0.58772 0.0
H1941 H 0.31842 0.11896 0.61928 0.0
H1942 H 0.32794 0.13229 0.58854 0.0
H1943 H 0.35614 0.08288 0.52935 0.0
H1944 H 0.33589 0.08443 0.51618 0.0
H1945 H 0.35826 0.1059 0.52179 0.0
H1946 H 0.29532 0.10025 0.48993 0.0
H1947 H 0.35038 0.15107 0.49755 0.0
H1948 H 0.29358 0.0834 0.55745 0.0
H1949 H 0.3021 0.07247 0.534 0.0
H1950 H 0.28303 0.07695 0.52385 0.0
H1951 H 0.35864 0.14279 0.56848 0.0
H1952 H 0.36637 0.1597 0.54101 0.0
H1953 H 0.37137 0.14021 0.54062 0.0
C1954 C 0.93033 0.25372 0.60745 0.0
C1955 C 0.93678 0.24547 0.6272 0.0
C1956 C 0.92041 0.24343 0.58405 0.0
C1957 C 0.9169 0.22443 0.58018 0.0
C1958 C 0.92309 0.21588 0.60015 0.0
C1959 C 0.93294 0.22649 0.62341 0.0
C1960 C 0.91405 0.25304 0.56317 0.0
C1961 C 0.9197 0.19569 0.59666 0.0
C1962 C 0.88028 0.19381 0.52564 0.0
C1963 C 0.8921 0.19681 0.50358 0.0
C1964 C 0.88812 0.20246 0.55097 0.0
C1965 C 0.90821 0.21417 0.55418 0.0
C1966 C 0.92017 0.21666 0.53214 0.0
C1967 C 0.91198 0.20794 0.50719 0.0
C1968 C 0.87494 0.19948 0.57407 0.0
C1969 C 0.94164 0.22885 0.53472 0.0
H1970 H 0.93305 0.26829 0.61019 0.0
H1971 H 0.93771 0.21987 0.63856 0.0
H1972 H 0.92171 0.25475 0.54402 0.0
H1973 H 0.89856 0.24397 0.55855 0.0
H1974 H 0.9168 0.26742 0.57 0.0
H1975 H 0.92427 0.19068 0.61485 0.0
H1976 H 0.90433 0.18562 0.59244 0.0
H1977 H 0.9277 0.19504 0.579 0.0
H1978 H 0.86492 0.18515 0.52287 0.0
H1979 H 0.92118 0.20993 0.49029 0.0
H1980 H 0.87607 0.2134 0.57985 0.0
H1981 H 0.87924 0.19413 0.59213 0.0
H1982 H 0.85979 0.18915 0.56874 0.0
H1983 H 0.94559 0.2439 0.5396 0.0
H1984 H 0.94893 0.22879 0.51586 0.0
H1985 H 0.94713 0.22361 0.55159 0.0
C1986 C 0.31697 0.23372 0.61691 0.0
C1987 C 0.32795 0.25357 0.61285 0.0
C1988 C 0.31248 0.22066 0.5953 0.0
C1989 C 0.31923 0.22767 0.56911 0.0
C1990 C 0.33055 0.24774 0.5651 0.0
C1991 C 0.33435 0.26042 0.58689 0.0
C1992 C 0.30003 0.19946 0.60026 0.0
C1993 C 0.33828 0.25585 0.5376 0.0
C1994 C 0.32392 0.19971 0.51102 0.0
C1995 C 0.31047 0.19963 0.49248 0.0
C1996 C 0.32566 0.20693 0.5374 0.0
C1997 C 0.31378 0.21443 0.54532 0.0
C1998 C 0.29857 0.21203 0.52786 0.0
C1999 C 0.29713 0.20472 0.50157 0.0
C2000 C 0.3416 0.20826 0.55534 0.0
C2001 C 0.28488 0.21883 0.53599 0.0
H2002 H 0.31159 0.22846 0.63692 0.0
H2003 H 0.34195 0.27577 0.58348 0.0
H2004 H 0.28653 0.19392 0.5882 0.0
H2005 H 0.30727 0.19151 0.59345 0.0
H2006 H 0.29648 0.19628 0.62197 0.0
H2007 H 0.34767 0.27169 0.53823 0.0
H2008 H 0.3465 0.2492 0.52967 0.0
H2009 H 0.32631 0.25241 0.52307 0.0
H2010 H 0.33427 0.19574 0.50429 0.0
H2011 H 0.28638 0.20423 0.4875 0.0
H2012 H 0.3392 0.20947 0.57709 0.0
H2013 H 0.35507 0.22107 0.54943 0.0
H2014 H 0.34345 0.19552 0.55238 0.0
H2015 H 0.28055 0.21503 0.55733 0.0
H2016 H 0.27185 0.21257 0.52273 0.0
H2017 H 0.29202 0.23469 0.53442 0.0
C2018 C 0.74322 0.07101 0.60441 0.0
C2019 C 0.75168 0.06422 0.62335 0.0
C2020 C 0.75299 0.0809 0.58116 0.0
C2021 C 0.77166 0.08408 0.57667 0.0
C2022 C 0.78046 0.07769 0.596 0.0
C2023 C 0.7704 0.06786 0.61902 0.0
C2024 C 0.7431 0.08745 0.56098 0.0
C2025 C 0.80032 0.08073 0.59197 0.0
C2026 C 0.78704 0.08736 0.50385 0.0
C2027 C 0.79892 0.1072 0.50051 0.0
C2028 C 0.77812 0.07978 0.52845 0.0
C2029 C 0.78123 0.09228 0.55054 0.0
C2030 C 0.79354 0.11233 0.54758 0.0
C2031 C 0.80233 0.11957 0.52256 0.0
C2032 C 0.7653 0.05831 0.53072 0.0
C2033 C 0.79724 0.12608 0.57074 0.0
H2034 H 0.72886 0.06845 0.60757 0.0
H2035 H 0.77723 0.06288 0.63354 0.0
H2036 H 0.75237 0.10289 0.55643 0.0
H2037 H 0.74045 0.07937 0.54167 0.0
H2038 H 0.72922 0.08527 0.56842 0.0
H2039 H 0.80575 0.07631 0.60989 0.0
H2040 H 0.80026 0.07228 0.57413 0.0
H2041 H 0.81041 0.09605 0.58778 0.0
H2042 H 0.78472 0.07767 0.48708 0.0
H2043 H 0.81155 0.13489 0.52006 0.0
H2044 H 0.7507 0.05503 0.53623 0.0
H2045 H 0.77074 0.05263 0.54707 0.0
H2046 H 0.76433 0.05059 0.51155 0.0
H2047 H 0.78361 0.12513 0.57691 0.0
H2048 H 0.80741 0.14119 0.56535 0.0
H2049 H 0.8031 0.1221 0.58859 0.0
C2050 C 0.91785 0.69427 0.62377 0.0
C2051 C 0.92641 0.68302 0.61881 0.0
C2052 C 0.90831 0.69838 0.60283 0.0
C2053 C 0.90735 0.69099 0.57645 0.0
C2054 C 0.91597 0.67955 0.5715 0.0
C2055 C 0.92574 0.6761 0.59261 0.0
C2056 C 0.89948 0.71075 0.6088 0.0
C2057 C 0.9151 0.67115 0.54378 0.0
C2058 C 0.87143 0.68229 0.52063 0.0
C2059 C 0.88315 0.69528 0.50104 0.0
C2060 C 0.8784 0.6824 0.54687 0.0
C2061 C 0.89778 0.69529 0.55349 0.0
C2062 C 0.90892 0.71002 0.5351 0.0
C2063 C 0.9014 0.70997 0.50916 0.0
C2064 C 0.86522 0.6673 0.5661 0.0
C2065 C 0.92938 0.72475 0.54181 0.0
H2066 H 0.91878 0.7 0.64398 0.0
H2067 H 0.9332 0.66824 0.5885 0.0
H2068 H 0.90566 0.72353 0.59554 0.0
H2069 H 0.88389 0.70264 0.60428 0.0
H2070 H 0.90174 0.71564 0.63028 0.0
H2071 H 0.92189 0.66197 0.54362 0.0
H2072 H 0.9 0.66241 0.5368 0.0
H2073 H 0.92246 0.68285 0.52896 0.0
H2074 H 0.85723 0.6709 0.51515 0.0
H2075 H 0.91033 0.72071 0.49468 0.0
H2076 H 0.87068 0.67006 0.58731 0.0
H2077 H 0.86312 0.65321 0.55921 0.0
H2078 H 0.85097 0.66635 0.56542 0.0
H2079 H 0.93089 0.72981 0.56311 0.0
H2080 H 0.9347 0.73733 0.52817 0.0
H2081 H 0.93857 0.71813 0.53955 0.0
C2082 C 0.90239 0.66222 0.72908 0.0
C2083 C 0.91603 0.65619 0.72888 0.0
C2084 C 0.8928 0.66147 0.75288 0.0
C2085 C 0.89696 0.65446 0.77693 0.0
C2086 C 0.91095 0.64856 0.7768 0.0
C2087 C 0.92041 0.64959 0.7527 0.0
C2088 C 0.87816 0.66808 0.75227 0.0
C2089 C 0.91572 0.64093 0.80202 0.0
C2090 C 0.88524 0.66588 0.84625 0.0
C2091 C 0.8688 0.64861 0.8525 0.0
C2092 C 0.89417 0.66828 0.82127 0.0
C2093 C 0.88653 0.65299 0.80218 0.0
C2094 C 0.86944 0.63585 0.80787 0.0
C2095 C 0.86075 0.63388 0.83295 0.0
C2096 C 0.91223 0.68686 0.81581 0.0
C2097 C 0.86085 0.61922 0.78803 0.0
H2098 H 0.89932 0.66763 0.71063 0.0
H2099 H 0.93102 0.64499 0.75234 0.0
H2100 H 0.86398 0.65604 0.75776 0.0
H2101 H 0.88207 0.67967 0.7675 0.0
H2102 H 0.87686 0.67348 0.73204 0.0
H2103 H 0.92702 0.63707 0.79856 0.0
H2104 H 0.92062 0.65181 0.81853 0.0
H2105 H 0.90275 0.628 0.80911 0.0
H2106 H 0.89143 0.67732 0.86129 0.0
H2107 H 0.84822 0.6204 0.83783 0.0
H2108 H 0.91108 0.69268 0.79588 0.0
H2109 H 0.92448 0.68416 0.81493 0.0
H2110 H 0.91539 0.6979 0.8317 0.0
H2111 H 0.85891 0.62411 0.76777 0.0
H2112 H 0.84682 0.60745 0.79468 0.0
H2113 H 0.87072 0.61339 0.78573 0.0
C2114 C 0.37125 0.26272 0.72907 0.0
C2115 C 0.35565 0.26571 0.72421 0.0
C2116 C 0.37237 0.25326 0.75245 0.0
C2117 C 0.35753 0.24659 0.77145 0.0
C2118 C 0.34157 0.24919 0.76644 0.0
C2119 C 0.34083 0.25873 0.74295 0.0
C2120 C 0.38966 0.25084 0.75715 0.0
C2121 C 0.32546 0.24228 0.78624 0.0
C2122 C 0.35293 0.211 0.82624 0.0
C2123 C 0.36084 0.22323 0.84876 0.0
C2124 C 0.35205 0.21839 0.80066 0.0
C2125 C 0.35942 0.23843 0.79769 0.0
C2126 C 0.36806 0.25084 0.82022 0.0
C2127 C 0.36868 0.24309 0.84541 0.0
C2128 C 0.34279 0.20473 0.77704 0.0
C2129 C 0.37628 0.27231 0.81792 0.0
H2130 H 0.38272 0.26789 0.71469 0.0
H2131 H 0.32863 0.26078 0.73938 0.0
H2132 H 0.39786 0.25934 0.77522 0.0
H2133 H 0.38518 0.23559 0.76132 0.0
H2134 H 0.39929 0.25559 0.73954 0.0
H2135 H 0.31349 0.24427 0.77854 0.0
H2136 H 0.31986 0.22685 0.79063 0.0
H2137 H 0.33085 0.25027 0.80569 0.0
H2138 H 0.34695 0.19565 0.8288 0.0
H2139 H 0.37522 0.25264 0.86268 0.0
H2140 H 0.35246 0.20942 0.75953 0.0
H2141 H 0.32958 0.20487 0.77051 0.0
H2142 H 0.33901 0.18977 0.7822 0.0
H2143 H 0.38701 0.27802 0.8017 0.0
H2144 H 0.38319 0.28001 0.83715 0.0
H2145 H 0.36478 0.27557 0.81222 0.0
C2146 C 0.74128 0.06721 0.76134 0.0
C2147 C 0.74184 0.07411 0.73514 0.0
C2148 C 0.75143 0.07981 0.78286 0.0
C2149 C 0.76205 0.09984 0.77809 0.0
C2150 C 0.7631 0.10678 0.7514 0.0
C2151 C 0.75276 0.09383 0.73028 0.0
C2152 C 0.75003 0.07175 0.81092 0.0
C2153 C 0.77445 0.12795 0.74534 0.0
C2154 C 0.76588 0.13073 0.83869 0.0
C2155 C 0.78355 0.1348 0.85042 0.0
C2156 C 0.759 0.11988 0.81468 0.0
C2157 C 0.77031 0.11346 0.80148 0.0
C2158 C 0.78881 0.11891 0.81194 0.0
C2159 C 0.79507 0.12918 0.83649 0.0
C2160 C 0.73922 0.11453 0.8042 0.0
C2161 C 0.80167 0.11313 0.79798 0.0
H2162 H 0.73234 0.05201 0.76518 0.0
H2163 H 0.75293 0.09913 0.71 0.0
H2164 H 0.74248 0.07688 0.82425 0.0
H2165 H 0.74225 0.0558 0.81088 0.0
H2166 H 0.76452 0.07692 0.81985 0.0
H2167 H 0.7761 0.1307 0.72321 0.0
H2168 H 0.76711 0.13537 0.75375 0.0
H2169 H 0.78885 0.13441 0.75511 0.0
H2170 H 0.75708 0.1355 0.84876 0.0
H2171 H 0.80866 0.13202 0.84527 0.0
H2172 H 0.72984 0.09873 0.80519 0.0
H2173 H 0.73972 0.11869 0.78266 0.0
H2174 H 0.73264 0.12149 0.81603 0.0
H2175 H 0.79619 0.09761 0.80118 0.0
H2176 H 0.81661 0.1211 0.80598 0.0
H2177 H 0.80169 0.11563 0.77588 0.0
C2178 C 0.07107 0.38397 0.98308 0.0
C2179 C 0.05375 0.37759 0.99651 0.0
C2180 C 0.08451 0.37873 0.99199 0.0
C2181 C 0.08071 0.3671 0.01518 0.0
C2182 C 0.06284 0.35978 0.02796 0.0
C2183 C 0.04949 0.365 0.01833 0.0
C2184 C 0.10319 0.38648 0.97745 0.0
C2185 C 0.05827 0.34738 0.05283 0.0
C2186 C 0.11046 0.34439 0.03804 0.0
C2187 C 0.12147 0.35693 0.05909 0.0
C2188 C 0.09781 0.34801 0.02234 0.0
C2189 C 0.09615 0.36447 0.02807 0.0
C2190 C 0.10834 0.37788 0.04794 0.0
C2191 C 0.1209 0.37397 0.0631 0.0
C2192 C 0.08533 0.33358 0.00097 0.0
C2193 C 0.10716 0.39567 0.05462 0.0
H2194 H 0.07435 0.39348 0.96591 0.0
H2195 H 0.03615 0.36001 0.02877 0.0
H2196 H 0.11485 0.39772 0.99015 0.0
H2197 H 0.1068 0.37495 0.97403 0.0
H2198 H 0.1028 0.39287 0.95761 0.0
H2199 H 0.04324 0.3416 0.05906 0.0
H2200 H 0.06084 0.33519 0.04909 0.0
H2201 H 0.06786 0.35596 0.06991 0.0
H2202 H 0.11076 0.33112 0.03511 0.0
H2203 H 0.12946 0.38367 0.07939 0.0
H2204 H 0.08472 0.34093 0.9822 0.0
H2205 H 0.07055 0.32519 0.00845 0.0
H2206 H 0.0905 0.32343 0.9959 0.0
H2207 H 0.10834 0.40389 0.03596 0.0
H2208 H 0.11854 0.40526 0.06928 0.0
H2209 H 0.09307 0.39146 0.06349 0.0
C2210 C 0.64867 0.69388 0.04531 0.0
C2211 C 0.64102 0.6834 0.0212 0.0
C2212 C 0.64976 0.71176 0.04929 0.0
C2213 C 0.64291 0.71936 0.02872 0.0
C2214 C 0.63578 0.70917 0.00395 0.0
C2215 C 0.63496 0.69133 0.00045 0.0
C2216 C 0.65767 0.72223 0.07594 0.0
C2217 C 0.62832 0.71675 0.98158 0.0
C2218 C 0.62784 0.75315 0.05896 0.0
C2219 C 0.64446 0.77094 0.05623 0.0
C2220 C 0.62648 0.73635 0.04797 0.0
C2221 C 0.64224 0.73736 0.03418 0.0
C2222 C 0.65835 0.75554 0.02924 0.0
C2223 C 0.65924 0.77217 0.04029 0.0
C2224 C 0.6089 0.71734 0.05336 0.0
C2225 C 0.67542 0.75731 0.0146 0.0
H2226 H 0.65346 0.68791 0.06139 0.0
H2227 H 0.629 0.68331 0.98176 0.0
H2228 H 0.66925 0.73711 0.0723 0.0
H2229 H 0.64626 0.7232 0.08692 0.0
H2230 H 0.66342 0.71494 0.08919 0.0
H2231 H 0.62499 0.70811 0.96264 0.0
H2232 H 0.61512 0.71653 0.98822 0.0
H2233 H 0.63889 0.73189 0.9771 0.0
H2234 H 0.61647 0.7522 0.07148 0.0
H2235 H 0.67222 0.78588 0.03852 0.0
H2236 H 0.61236 0.70949 0.06901 0.0
H2237 H 0.60408 0.70828 0.03476 0.0
H2238 H 0.59693 0.7192 0.06069 0.0
H2239 H 0.68352 0.75271 0.02824 0.0
H2240 H 0.68519 0.77231 0.00828 0.0
H2241 H 0.67088 0.74783 0.99642 0.0
C2242 C 0.30687 0.94573 0.01447 0.0
C2243 C 0.32059 0.95729 0.03411 0.0
C2244 C 0.28902 0.93046 0.02201 0.0
C2245 C 0.28502 0.92638 0.04982 0.0
C2246 C 0.29872 0.93826 0.06969 0.0
C2247 C 0.31622 0.95367 0.0616 0.0
C2248 C 0.27461 0.91849 0.00024 0.0
C2249 C 0.29518 0.93429 0.09958 0.0
C2250 C 0.23593 0.89633 0.07969 0.0
C2251 C 0.23588 0.87911 0.08512 0.0
C2252 C 0.25116 0.91137 0.06609 0.0
C2253 C 0.26694 0.9093 0.05848 0.0
C2254 C 0.26632 0.89144 0.06237 0.0
C2255 C 0.25069 0.8765 0.07545 0.0
C2256 C 0.25096 0.92993 0.06167 0.0
C2257 C 0.28292 0.88866 0.05494 0.0
H2258 H 0.31013 0.94851 0.99318 0.0
H2259 H 0.32679 0.96246 0.07689 0.0
H2260 H 0.27246 0.90369 0.00044 0.0
H2261 H 0.26059 0.91741 0.00424 0.0
H2262 H 0.27921 0.92454 0.97971 0.0
H2263 H 0.30725 0.94492 0.11245 0.0
H2264 H 0.28202 0.93453 0.10525 0.0
H2265 H 0.29292 0.91975 0.10418 0.0
H2266 H 0.22452 0.89839 0.08738 0.0
H2267 H 0.25081 0.8633 0.08008 0.0
H2268 H 0.25591 0.93552 0.04106 0.0
H2269 H 0.2609 0.94089 0.07646 0.0
H2270 H 0.23649 0.92815 0.06431 0.0
H2271 H 0.28744 0.89355 0.03397 0.0
H2272 H 0.27941 0.87343 0.0566 0.0
H2273 H 0.29528 0.89749 0.06869 0.0
C2274 C 0.35629 0.04682 0.00262 0.0
C2275 C 0.36985 0.04414 0.98876 0.0
C2276 C 0.35186 0.06108 0.99449 0.0
C2277 C 0.36098 0.07259 0.97174 0.0
C2278 C 0.37411 0.06929 0.95712 0.0
C2279 C 0.3786 0.05532 0.96609 0.0
C2280 C 0.33814 0.06441 0.01097 0.0
C2281 C 0.38385 0.08087 0.93236 0.0
C2282 C 0.34323 0.10071 0.93037 0.0
C2283 C 0.3575 0.11967 0.93617 0.0
C2284 C 0.34318 0.08509 0.94342 0.0
C2285 C 0.35747 0.08852 0.96325 0.0
C2286 C 0.3704 0.10764 0.97157 0.0
C2287 C 0.37036 0.12302 0.95779 0.0
C2288 C 0.32909 0.065 0.93388 0.0
C2289 C 0.38548 0.11193 0.99325 0.0
H2290 H 0.34987 0.03839 0.02054 0.0
H2291 H 0.38921 0.05329 0.95561 0.0
H2292 H 0.34609 0.07842 0.02175 0.0
H2293 H 0.32727 0.06514 0.99762 0.0
H2294 H 0.33073 0.05299 0.0262 0.0
H2295 H 0.39268 0.07564 0.92229 0.0
H2296 H 0.37305 0.08027 0.91747 0.0
H2297 H 0.39321 0.09615 0.93819 0.0
H2298 H 0.33299 0.09803 0.91402 0.0
H2299 H 0.38144 0.13758 0.96247 0.0
H2300 H 0.32319 0.05513 0.95127 0.0
H2301 H 0.33654 0.05952 0.92097 0.0
H2302 H 0.31708 0.06457 0.92182 0.0
H2303 H 0.392 0.12696 0.0008 0.0
H2304 H 0.39696 0.10973 0.98484 0.0
H2305 H 0.37936 0.10204 0.0106 0.0
C2306 C 0.95868 0.32124 0.95415 0.0
C2307 C 0.96261 0.33086 0.97916 0.0
C2308 C 0.94221 0.30334 0.95009 0.0
C2309 C 0.92926 0.29483 0.97154 0.0
C2310 C 0.93351 0.30409 0.99716 0.0
C2311 C 0.95016 0.32201 0.00068 0.0
C2312 C 0.93831 0.29387 0.92248 0.0
C2313 C 0.92011 0.29548 0.02051 0.0
C2314 C 0.87934 0.26193 0.944 0.0
C2315 C 0.87877 0.24416 0.94405 0.0
C2316 C 0.8951 0.27836 0.95505 0.0
C2317 C 0.91073 0.27697 0.96619 0.0
C2318 C 0.90941 0.25871 0.96852 0.0
C2319 C 0.89338 0.24246 0.95742 0.0
C2320 C 0.89575 0.29747 0.95247 0.0
C2321 C 0.92567 0.25656 0.9804 0.0
H2322 H 0.96826 0.32793 0.93746 0.0
H2323 H 0.95309 0.32934 0.0201 0.0
H2324 H 0.93567 0.27895 0.92436 0.0
H2325 H 0.92524 0.29308 0.91327 0.0
H2326 H 0.95033 0.30178 0.90847 0.0
H2327 H 0.92643 0.30337 0.03984 0.0
H2328 H 0.9067 0.2958 0.01606 0.0
H2329 H 0.91621 0.28022 0.02321 0.0
H2330 H 0.86806 0.26323 0.93353 0.0
H2331 H 0.89306 0.22875 0.95715 0.0
H2332 H 0.90598 0.30605 0.93655 0.0
H2333 H 0.90084 0.30575 0.97173 0.0
H2334 H 0.88156 0.29578 0.94689 0.0
H2335 H 0.93737 0.26175 0.9656 0.0
H2336 H 0.92117 0.24136 0.98517 0.0
H2337 H 0.93155 0.26536 -0.00089 0.0
C2338 C 0.68909 0.63715 0.97366 0.0
C2339 C 0.68547 0.63578 0.00141 0.0
C2340 C 0.70651 0.63957 0.96418 0.0
C2341 C 0.72079 0.64115 0.98302 0.0
C2342 C 0.71764 0.64115 0.01113 0.0
C2343 C 0.69987 0.63808 0.01998 0.0
C2344 C 0.70913 0.63915 0.93402 0.0
C2345 C 0.73267 0.64345 0.03187 0.0
C2346 C 0.75306 0.62282 0.95698 0.0
C2347 C 0.76835 0.63964 0.94701 0.0
C2348 C 0.73783 0.62323 0.96982 0.0
C2349 C 0.73813 0.64097 0.97321 0.0
C2350 C 0.75434 0.6582 0.96512 0.0
C2351 C 0.76914 0.65729 0.95168 0.0
C2352 C 0.72075 0.60449 0.97779 0.0
C2353 C 0.75554 0.67745 0.96911 0.0
H2354 H 0.67781 0.63504 0.95933 0.0
H2355 H 0.69705 0.63696 0.04147 0.0
H2356 H 0.72259 0.65193 0.92793 0.0
H2357 H 0.71024 0.62627 0.92869 0.0
H2358 H 0.69709 0.63876 0.92209 0.0
H2359 H 0.72914 0.64596 0.05259 0.0
H2360 H 0.73397 0.63028 0.03217 0.0
H2361 H 0.74681 0.6556 0.02649 0.0
H2362 H 0.75227 0.60915 0.95277 0.0
H2363 H 0.78085 0.67026 0.94354 0.0
H2364 H 0.70815 0.60192 0.96509 0.0
H2365 H 0.71715 0.60512 -0.0008 0.0
H2366 H 0.72321 0.59209 0.97524 0.0
H2367 H 0.74568 0.67889 0.95451 0.0
H2368 H 0.77021 0.68952 0.96592 0.0
H2369 H 0.75107 0.67868 0.98981 0.0
C2370 C 0.9595 0.63862 0.95869 0.0
C2371 C 0.9654 0.63728 0.98513 0.0
C2372 C 0.94281 0.63969 0.95379 0.0
C2373 C 0.93185 0.63978 0.9759 0.0
C2374 C 0.93797 0.6389 0.0027 0.0
C2375 C 0.95458 0.63748 0.00699 0.0
C2376 C 0.93671 0.64038 0.92485 0.0
C2377 C 0.92692 0.63937 0.02678 0.0
C2378 C 0.89866 0.65858 0.95445 0.0
C2379 C 0.88186 0.64147 0.94799 0.0
C2380 C 0.91462 0.65828 0.96596 0.0
C2381 C 0.91386 0.64044 0.97051 0.0
C2382 C 0.89639 0.62315 0.96605 0.0
C2383 C 0.88054 0.6239 0.95501 0.0
C2384 C 0.93277 0.67705 0.97102 0.0
C2385 C 0.89495 0.60381 0.97038 0.0
H2386 H 0.96772 0.63839 0.94169 0.0
H2387 H 0.9591 0.63653 0.02749 0.0
H2388 H 0.92225 0.62803 0.9207 0.0
H2389 H 0.93588 0.65367 0.92159 0.0
H2390 H 0.9467 0.63999 0.90996 0.0
H2391 H 0.93405 0.63949 0.04634 0.0
H2392 H 0.9252 0.65229 0.02595 0.0
H2393 H 0.91239 0.62665 0.02623 0.0
H2394 H 0.89972 0.67217 0.94882 0.0
H2395 H 0.86766 0.61066 0.9496 0.0
H2396 H 0.94303 0.67936 0.9548 0.0
H2397 H 0.93961 0.67677 0.99062 0.0
H2398 H 0.93011 0.68942 0.97117 0.0
H2399 H 0.90292 0.60122 0.95433 0.0
H2400 H 0.8799 0.59195 0.96961 0.0
H2401 H 0.90151 0.60342 0.99017 0.0
C2402 C 0.36293 0.31259 0.97587 0.0
C2403 C 0.36547 0.31664 0.00368 0.0
C2404 C 0.35961 0.29474 0.96587 0.0
C2405 C 0.35825 0.28048 0.98424 0.0
C2406 C 0.35935 0.28407 0.01248 0.0
C2407 C 0.36336 0.30227 0.02184 0.0
C2408 C 0.35893 0.29169 0.93559 0.0
C2409 C 0.35726 0.26906 0.03276 0.0
C2410 C 0.34055 0.23156 0.95119 0.0
C2411 C 0.35783 0.23199 0.94605 0.0
C2412 C 0.34028 0.24663 0.96544 0.0
C2413 C 0.35778 0.26278 0.97376 0.0
C2414 C 0.37517 0.26274 0.96983 0.0
C2415 C 0.37494 0.24722 0.9563 0.0
C2416 C 0.3214 0.24577 0.97011 0.0
C2417 C 0.39418 0.27978 0.97791 0.0
H2418 H 0.36486 0.32384 0.96187 0.0
H2419 H 0.36535 0.30544 0.04338 0.0
H2420 H 0.37135 0.29013 0.92965 0.0
H2421 H 0.34583 0.27825 0.92955 0.0
H2422 H 0.35926 0.30379 0.9241 0.0
H2423 H 0.35535 0.27291 0.05364 0.0
H2424 H 0.34488 0.25489 0.02717 0.0
H2425 H 0.37021 0.26749 0.03275 0.0
H2426 H 0.32734 0.21988 0.9429 0.0
H2427 H 0.38832 0.24773 0.95177 0.0
H2428 H 0.31965 0.25554 0.95585 0.0
H2429 H 0.32091 0.25061 0.99099 0.0
H2430 H 0.30917 0.23104 0.9669 0.0
H2431 H 0.39656 0.29245 0.96581 0.0
H2432 H 0.40629 0.27708 0.97468 0.0
H2433 H 0.39425 0.28351 -0.00045 0.0
C2434 C 0.68657 0.058 0.96889 0.0
C2435 C 0.67811 0.05786 0.9935 0.0
C2436 C 0.70435 0.0735 0.96198 0.0
C2437 C 0.71384 0.08937 0.98 0.0
C2438 C 0.70557 0.08914 0.00515 0.0
C2439 C 0.68783 0.07334 0.01165 0.0
C2440 C 0.71277 0.07307 0.93506 0.0
C2441 C 0.71518 0.10583 0.02479 0.0
C2442 C 0.76605 0.12122 0.96346 0.0
C2443 C 0.76486 0.13409 0.94535 0.0
C2444 C 0.74973 0.10731 0.97663 0.0
C2445 C 0.73192 0.10647 0.97162 0.0
C2446 C 0.73112 0.12068 0.95539 0.0
C2447 C 0.7476 0.13425 0.94227 0.0
C2448 C 0.75122 0.09246 0.99377 0.0
C2449 C 0.71253 0.12053 0.94988 0.0
H2450 H 0.6792 0.04605 0.95483 0.0
H2451 H 0.68135 0.07336 0.0307 0.0
H2452 H 0.71382 0.08488 0.92212 0.0
H2453 H 0.72746 0.07538 0.93817 0.0
H2454 H 0.70408 0.05926 0.924 0.0
H2455 H 0.70757 0.10287 0.04427 0.0
H2456 H 0.73014 0.10929 0.02902 0.0
H2457 H 0.71572 0.11875 0.01563 0.0
H2458 H 0.77935 0.12092 0.96551 0.0
H2459 H 0.7467 0.14415 0.92809 0.0
H2460 H 0.745 0.0787 0.98231 0.0
H2461 H 0.74301 0.08977 0.01262 0.0
H2462 H 0.76629 0.09687 -0.00073 0.0
H2463 H 0.70336 0.10837 0.93606 0.0
H2464 H 0.7148 0.13405 0.9403 0.0
H2465 H 0.70464 0.11841 0.96892 0.0
C2466 C 0.62435 0.95375 0.04697 0.0
C2467 C 0.63511 0.96982 0.03091 0.0
C2468 C 0.63092 0.94095 0.05354 0.0
C2469 C 0.64851 0.94403 0.04319 0.0
C2470 C 0.65965 0.96047 0.02732 0.0
C2471 C 0.65288 0.97334 0.02157 0.0
C2472 C 0.6188 0.92392 0.07117 0.0
C2473 C 0.67828 0.96404 0.01556 0.0
C2474 C 0.66682 0.91605 0.08319 0.0
C2475 C 0.65778 0.89833 0.06939 0.0
C2476 C 0.66537 0.93177 0.0736 0.0
C2477 C 0.65488 0.92981 0.04936 0.0
C2478 C 0.64761 0.91266 0.03377 0.0
C2479 C 0.64907 0.89701 0.04407 0.0
C2480 C 0.67334 0.94971 0.09094 0.0
C2481 C 0.63678 0.91021 0.00744 0.0
H2482 H 0.6106 0.95106 0.05416 0.0
H2483 H 0.66102 0.98562 0.00873 0.0
H2484 H 0.61406 0.9104 0.05957 0.0
H2485 H 0.62732 0.92367 0.08896 0.0
H2486 H 0.60595 0.92413 0.07857 0.0
H2487 H 0.68604 0.9783 0.00574 0.0
H2488 H 0.68767 0.96311 0.03153 0.0
H2489 H 0.67542 0.95277 0.00021 0.0
H2490 H 0.67392 0.91719 0.10256 0.0
H2491 H 0.64218 0.88338 0.0333 0.0
H2492 H 0.66143 0.95014 0.1013 0.0
H2493 H 0.68055 0.96277 0.07835 0.0
H2494 H 0.68364 0.95016 0.10663 0.0
H2495 H 0.62231 0.90787 0.01179 0.0
H2496 H 0.63519 0.89774 0.99549 0.0
H2497 H 0.6441 0.92333 0.99497 0.0
C2498 C 0.05584 0.69027 0.04332 0.0
C2499 C 0.05394 0.68684 0.01538 0.0
C2500 C 0.06908 0.70843 0.05385 0.0
C2501 C 0.08027 0.72354 0.03587 0.0
C2502 C 0.07722 0.72045 0.00756 0.0
C2503 C 0.06433 0.702 0.99764 0.0
C2504 C 0.07208 0.71102 0.08419 0.0
C2505 C 0.08832 0.73632 0.98774 0.0
C2506 C 0.10814 0.77168 0.07192 0.0
C2507 C 0.12563 0.7723 0.07714 0.0
C2508 C 0.09364 0.75665 0.05647 0.0
C2509 C 0.09657 0.74168 0.04681 0.0
C2510 C 0.11473 0.74304 0.05038 0.0
C2511 C 0.12911 0.75848 0.06526 0.0
C2512 C 0.07476 0.75612 0.05222 0.0
C2513 C 0.11844 0.72731 0.04069 0.0
H2514 H 0.04795 0.67842 0.05696 0.0
H2515 H 0.06281 0.69929 0.97598 0.0
H2516 H 0.08664 0.71374 0.08977 0.0
H2517 H 0.07104 0.72366 0.09098 0.0
H2518 H 0.06152 0.69821 0.09536 0.0
H2519 H 0.08192 0.7326 0.96697 0.0
H2520 H 0.08897 0.74988 0.99435 0.0
H2521 H 0.1032 0.73901 0.98694 0.0
H2522 H 0.10542 0.78232 0.08129 0.0
H2523 H 0.14251 0.75878 0.06969 0.0
H2524 H 0.06416 0.74564 0.06631 0.0
H2525 H 0.06915 0.75138 0.03127 0.0
H2526 H 0.076 0.77036 0.05606 0.0
H2527 H 0.10957 0.71401 0.05225 0.0
H2528 H 0.13368 0.73121 0.04335 0.0
H2529 H 0.11433 0.72399 0.01898 0.0
C2530 C 0.30974 0.36416 0.00704 0.0
C2531 C 0.31991 0.36113 0.02811 0.0
C2532 C 0.29162 0.36224 0.01135 0.0
C2533 C 0.28353 0.35726 0.03738 0.0
C2534 C 0.29348 0.35356 0.05844 0.0
C2535 C 0.31148 0.35551 0.05354 0.0
C2536 C 0.28144 0.36616 0.98834 0.0
C2537 C 0.28541 0.3482 0.08651 0.0
C2538 C 0.24987 0.37311 0.06518 0.0
C2539 C 0.23262 0.35568 0.06606 0.0
C2540 C 0.26625 0.37411 0.05406 0.0
C2541 C 0.26541 0.35725 0.04351 0.0
C2542 C 0.24762 0.33997 0.04224 0.0
C2543 C 0.2314 0.33938 0.05356 0.0
C2544 C 0.28483 0.39288 0.0557 0.0
C2545 C 0.24602 0.32173 0.03092 0.0
H2546 H 0.31611 0.36846 0.98729 0.0
H2547 H 0.31917 0.35307 0.06993 0.0
H2548 H 0.26647 0.3543 0.98625 0.0
H2549 H 0.2809 0.37947 0.99273 0.0
H2550 H 0.28865 0.36793 0.96872 0.0
H2551 H 0.29446 0.34486 0.10026 0.0
H2552 H 0.28417 0.36023 0.09552 0.0
H2553 H 0.27085 0.33553 0.08545 0.0
H2554 H 0.25082 0.38574 0.07477 0.0
H2555 H 0.21816 0.32584 0.05441 0.0
H2556 H 0.29218 0.39609 0.03603 0.0
H2557 H 0.29445 0.39177 0.07113 0.0
H2558 H 0.28265 0.40508 0.06137 0.0
H2559 H 0.25388 0.32456 0.01171 0.0
H2560 H 0.23091 0.31053 0.02715 0.0
H2561 H 0.25257 0.316 0.04555 0.0
C2562 C 0.71682 0.69489 0.35638 0.0
C2563 C 0.72192 0.70714 0.33405 0.0
C2564 C 0.72931 0.68879 0.36682 0.0
C2565 C 0.74711 0.69489 0.35435 0.0
C2566 C 0.75158 0.70595 0.33052 0.0
C2567 C 0.739 0.71206 0.32078 0.0
C2568 C 0.72404 0.67696 0.3923 0.0
C2569 C 0.77022 0.71245 0.31632 0.0
C2570 C 0.7871 0.70237 0.40306 0.0
C2571 C 0.78751 0.68519 0.40003 0.0
C2572 C 0.7745 0.70598 0.38751 0.0
C2573 C 0.76206 0.69206 0.36835 0.0
C2574 C 0.76338 0.67527 0.36384 0.0
C2575 C 0.77613 0.672 0.37985 0.0
C2576 C 0.77372 0.72417 0.39279 0.0
C2577 C 0.75055 0.66026 0.34332 0.0
H2578 H 0.70363 0.69102 0.36665 0.0
H2579 H 0.74291 0.72128 0.30321 0.0
H2580 H 0.72632 0.66447 0.38983 0.0
H2581 H 0.73343 0.68582 0.40936 0.0
H2582 H 0.70894 0.67168 0.39782 0.0
H2583 H 0.77019 0.7183 0.29589 0.0
H2584 H 0.78208 0.72383 0.32859 0.0
H2585 H 0.77321 0.70039 0.31419 0.0
H2586 H 0.79592 0.71252 0.41877 0.0
H2587 H 0.7763 0.6586 0.37779 0.0
H2588 H 0.75961 0.7205 0.40107 0.0
H2589 H 0.77533 0.73201 0.3736 0.0
H2590 H 0.78504 0.73392 0.4074 0.0
H2591 H 0.73575 0.65256 0.35093 0.0
H2592 H 0.75525 0.64958 0.33942 0.0
H2593 H 0.75014 0.66704 0.32388 0.0
C2594 C 0.31202 0.02759 0.38671 0.0
C2595 C 0.30496 0.01708 0.36251 0.0
C2596 C 0.31311 0.04552 0.39005 0.0
C2597 C 0.30688 0.05313 0.36871 0.0
C2598 C 0.3003 0.04288 0.3439 0.0
C2599 C 0.29945 0.02498 0.34107 0.0
C2600 C 0.3204 0.05605 0.41679 0.0
C2601 C 0.29352 0.05049 0.32071 0.0
C2602 C 0.29178 0.08743 0.39676 0.0
C2603 C 0.30871 0.10503 0.39477 0.0
C2604 C 0.29035 0.07053 0.38605 0.0
C2605 C 0.30633 0.07127 0.37332 0.0
C2606 C 0.32276 0.0893 0.36889 0.0
C2607 C 0.32373 0.10603 0.37965 0.0
C2608 C 0.27244 0.05168 0.39084 0.0
C2609 C 0.34007 0.09077 0.35531 0.0
H2610 H 0.31638 0.02163 0.40333 0.0
H2611 H 0.29395 0.01695 0.32229 0.0
H2612 H 0.33223 0.07084 0.41339 0.0
H2613 H 0.30881 0.05727 0.42681 0.0
H2614 H 0.32561 0.04867 0.4308 0.0
H2615 H 0.29055 0.04174 0.30194 0.0
H2616 H 0.28025 0.05048 0.32642 0.0
H2617 H 0.30434 0.06556 0.31633 0.0
H2618 H 0.28023 0.08666 0.40866 0.0
H2619 H 0.33694 0.11959 0.37845 0.0
H2620 H 0.27528 0.04377 0.40711 0.0
H2621 H 0.26803 0.04256 0.37231 0.0
H2622 H 0.26039 0.05378 0.3971 0.0
H2623 H 0.34775 0.08612 0.36966 0.0
H2624 H 0.3501 0.10571 0.34902 0.0
H2625 H 0.33583 0.0812 0.33726 0.0
C2626 C 0.97945 0.2815 0.38542 0.0
C2627 C 0.98437 0.2861 0.35825 0.0
C2628 C 0.96196 0.26558 0.3924 0.0
C2629 C 0.94879 0.25411 0.37172 0.0
C2630 C 0.95338 0.25906 0.34422 0.0
C2631 C 0.97121 0.27488 0.3378 0.0
C2632 C 0.9578 0.26074 0.42199 0.0
C2633 C 0.93958 0.24751 0.32162 0.0
C2634 C 0.91456 0.20375 0.39586 0.0
C2635 C 0.89963 0.20613 0.4057 0.0
C2636 C 0.93012 0.21887 0.38286 0.0
C2637 C 0.93058 0.23668 0.37928 0.0
C2638 C 0.91458 0.23843 0.38677 0.0
C2639 C 0.89941 0.22322 0.40023 0.0
C2640 C 0.94689 0.21637 0.37549 0.0
C2641 C 0.91421 0.25693 0.38273 0.0
H2642 H 0.98956 0.29001 0.40136 0.0
H2643 H 0.97489 0.27838 0.31675 0.0
H2644 H 0.94448 0.26072 0.4274 0.0
H2645 H 0.95554 0.2461 0.42587 0.0
H2646 H 0.96956 0.27104 0.43559 0.0
H2647 H 0.94465 0.25404 0.30145 0.0
H2648 H 0.93753 0.23276 0.32137 0.0
H2649 H 0.9254 0.24622 0.32506 0.0
H2650 H 0.91492 0.19069 0.40055 0.0
H2651 H 0.88797 0.22514 0.40812 0.0
H2652 H 0.95892 0.2247 0.38999 0.0
H2653 H 0.95191 0.222 0.35495 0.0
H2654 H 0.94333 0.20109 0.37616 0.0
H2655 H 0.92371 0.26766 0.39811 0.0
H2656 H 0.89959 0.25487 0.38484 0.0
H2657 H 0.91956 0.26297 0.36245 0.0
C2658 C 0.04187 0.38655 0.29654 0.0
C2659 C 0.03334 0.37573 0.31957 0.0
C2660 C 0.03782 0.40086 0.28774 0.0
C2661 C 0.02535 0.40485 0.30286 0.0
C2662 C 0.01641 0.39368 0.32597 0.0
C2663 C 0.02042 0.3791 0.33396 0.0
C2664 C 0.04735 0.41208 0.26264 0.0
C2665 C 0.00335 0.39771 0.34292 0.0
C2666 C 0.03607 0.45576 0.28904 0.0
C2667 C 0.02292 0.45273 0.26796 0.0
C2668 C 0.03586 0.44017 0.30257 0.0
C2669 C 0.02236 0.42115 0.29456 0.0
C2670 C 0.00789 0.41808 0.27525 0.0
C2671 C 0.00821 0.43392 0.26243 0.0
C2672 C 0.05121 0.44409 0.32367 0.0
C2673 C 0.9932 0.39811 0.26605 0.0
H2674 H 0.05201 0.384 0.28566 0.0
H2675 H 0.01417 0.37095 0.35215 0.0
H2676 H 0.03648 0.41175 0.24814 0.0
H2677 H 0.05719 0.42733 0.26816 0.0
H2678 H 0.05566 0.40636 0.25225 0.0
H2679 H 0.99601 0.38653 0.3585 0.0
H2680 H 0.01181 0.4118 0.35332 0.0
H2681 H 0.99242 0.39862 0.32994 0.0
H2682 H 0.0475 0.4702 0.29349 0.0
H2683 H 0.99776 0.43148 0.24651 0.0
H2684 H 0.06219 0.44132 0.31478 0.0
H2685 H 0.04515 0.43439 0.34121 0.0
H2686 H 0.05833 0.45921 0.33104 0.0
H2687 H 1.00012 0.39219 0.25286 0.0
H2688 H 0.98122 0.39804 0.25438 0.0
H2689 H 0.98732 0.38838 0.28358 0.0
C2690 C 0.62754 0.65725 0.2863 0.0
C2691 C 0.63144 0.66692 0.31125 0.0
C2692 C 0.61063 0.63974 0.28186 0.0
C2693 C 0.5972 0.63171 0.30285 0.0
C2694 C 0.60129 0.64112 0.32836 0.0
C2695 C 0.61838 0.6586 0.33227 0.0
C2696 C 0.6069 0.63011 0.25439 0.0
C2697 C 0.58736 0.63305 0.35121 0.0
C2698 C 0.54732 0.59935 0.27439 0.0
C2699 C 0.54622 0.58134 0.27541 0.0
C2700 C 0.56324 0.61574 0.28529 0.0
C2701 C 0.57848 0.61406 0.29728 0.0
C2702 C 0.57662 0.59561 0.30052 0.0
C2703 C 0.56044 0.57942 0.28957 0.0
C2704 C 0.56446 0.63505 0.28172 0.0
C2705 C 0.59246 0.59315 0.31328 0.0
H2706 H 0.63757 0.66352 0.26999 0.0
H2707 H 0.62126 0.66598 0.35164 0.0
H2708 H 0.60384 0.61506 0.25665 0.0
H2709 H 0.59414 0.62963 0.24463 0.0
H2710 H 0.61918 0.63769 0.2407 0.0
H2711 H 0.59331 0.64124 0.37043 0.0
H2712 H 0.57412 0.63343 0.34567 0.0
H2713 H 0.58324 0.61781 0.3547 0.0
H2714 H 0.53637 0.60083 0.26326 0.0
H2715 H 0.55974 0.56554 0.29001 0.0
H2716 H 0.57496 0.64319 0.26586 0.0
H2717 H 0.56953 0.6436 0.30076 0.0
H2718 H 0.55048 0.63366 0.27556 0.0
H2719 H 0.60438 0.59804 0.29891 0.0
H2720 H 0.58759 0.57792 0.3184 0.0
H2721 H 0.59817 0.60204 0.33195 0.0
C2722 C 0.36499 0.97189 0.36149 0.0
C2723 C 0.35089 0.97134 0.34376 0.0
C2724 C 0.38279 0.97557 0.35192 0.0
C2725 C 0.38627 0.97796 0.3238 0.0
C2726 C 0.37236 0.97824 0.30597 0.0
C2727 C 0.35491 0.97521 0.31627 0.0
C2728 C 0.39746 0.97587 0.37174 0.0
C2729 C 0.3753 0.98034 0.27577 0.0
C2730 C 0.43491 0.99509 0.29263 0.0
C2731 C 0.43363 0.97761 0.28517 0.0
C2732 C 0.4201 0.99549 0.3068 0.0
C2733 C 0.40339 0.978 0.31263 0.0
C2734 C 0.40246 0.96032 0.30603 0.0
C2735 C 0.41771 0.96037 0.29263 0.0
C2736 C 0.42193 0.01461 0.31427 0.0
C2737 C 0.38481 0.94134 0.31141 0.0
H2738 H 0.36188 0.96891 0.38278 0.0
H2739 H 0.3439 0.97451 0.30253 0.0
H2740 H 0.39833 0.96255 0.36938 0.0
H2741 H 0.41182 0.98817 0.36764 0.0
H2742 H 0.39384 0.97687 0.39308 0.0
H2743 H 0.36366 0.98142 0.26489 0.0
H2744 H 0.3891 0.99327 0.27128 0.0
H2745 H 0.37591 0.96772 0.26766 0.0
H2746 H 0.44712 0.00841 0.28636 0.0
H2747 H 0.41659 0.94689 0.28623 0.0
H2748 H 0.41734 0.01441 0.33538 0.0
H2749 H 0.41249 0.01752 0.30077 0.0
H2750 H 0.43682 0.02657 0.31229 0.0
H2751 H 0.38116 0.94023 0.33313 0.0
H2752 H 0.38664 0.9289 0.30586 0.0
H2753 H 0.37251 0.94039 0.29955 0.0
C2754 C 0.61797 0.96821 0.34285 0.0
C2755 C 0.62824 0.96771 0.32046 0.0
C2756 C 0.60212 0.97104 0.33945 0.0
C2757 C 0.59625 0.97313 0.31302 0.0
C2758 C 0.60675 0.9729 0.29042 0.0
C2759 C 0.62265 0.97033 0.29444 0.0
C2760 C 0.59152 0.97155 0.36405 0.0
C2761 C 0.60094 0.97496 0.26185 0.0
C2762 C 0.54573 0.96077 0.29281 0.0
C2763 C 0.54818 0.979 0.28724 0.0
C2764 C 0.56095 0.95863 0.30324 0.0
C2765 C 0.57893 0.97515 0.3085 0.0
C2766 C 0.58084 0.99361 0.30545 0.0
C2767 C 0.56548 0.99532 0.29461 0.0
C2768 C 0.55828 0.93867 0.30608 0.0
C2769 C 0.59959 0.0116 0.31133 0.0
H2770 H 0.62224 0.96625 0.36304 0.0
H2771 H 0.63045 0.9699 0.27703 0.0
H2772 H 0.59048 0.98488 0.36416 0.0
H2773 H 0.57672 0.95927 0.36329 0.0
H2774 H 0.59855 0.97087 0.38327 0.0
H2775 H 0.61061 0.97447 0.2465 0.0
H2776 H 0.58619 0.96326 0.25726 0.0
H2777 H 0.60092 0.98875 0.25982 0.0
H2778 H 0.53246 0.94813 0.28677 0.0
H2779 H 0.56739 0.00943 0.29022 0.0
H2780 H 0.56453 0.93724 0.32557 0.0
H2781 H 0.56584 0.93597 0.28954 0.0
H2782 H 0.54296 0.92746 0.30494 0.0
H2783 H 0.60615 0.01024 0.3306 0.0
H2784 H 0.59783 0.0245 0.31263 0.0
H2785 H 0.60969 0.01384 0.2949 0.0
C2786 C 0.02219 0.63412 0.34744 0.0
C2787 C 0.03345 0.65042 0.33202 0.0
C2788 C 0.01755 0.6157 0.33804 0.0
C2789 C 0.02456 0.61372 0.31281 0.0
C2790 C 0.03538 0.63021 0.29682 0.0
C2791 C 0.03976 0.64837 0.30672 0.0
C2792 C 0.00595 0.59853 0.35561 0.0
C2793 C 0.04308 0.62879 0.26975 0.0
C2794 C 0.03616 0.57478 0.29441 0.0
C2795 C 0.02221 0.56468 0.2743 0.0
C2796 C 0.03612 0.58979 0.30907 0.0
C2797 C 0.02177 0.59477 0.30345 0.0
C2798 C 0.0065 0.58323 0.28534 0.0
C2799 C 0.0069 0.5683 0.27099 0.0
C2800 C 0.05253 0.60154 0.32849 0.0
C2801 C 0.99076 0.58781 0.27906 0.0
H2802 H 0.01764 0.63587 0.36728 0.0
H2803 H 0.04874 0.6611 0.29511 0.0
H2804 H 0.99444 0.58668 0.34347 0.0
H2805 H 0.01529 0.59314 0.36407 0.0
H2806 H 0.99943 0.60209 0.37272 0.0
H2807 H 0.05041 0.64283 0.25927 0.0
H2808 H 0.0534 0.6235 0.27267 0.0
H2809 H 0.03131 0.61833 0.25637 0.0
H2810 H 0.04809 0.57215 0.29698 0.0
H2811 H 0.99598 0.5604 0.25562 0.0
H2812 H 0.0473 0.60467 0.3474 0.0
H2813 H 0.06237 0.61549 0.31904 0.0
H2814 H 0.06075 0.59415 0.33379 0.0
H2815 H 0.98586 0.5915 0.29783 0.0
H2816 H 0.97832 0.57563 0.2687 0.0
H2817 H 0.99628 0.60047 0.26558 0.0
C2818 C 0.35422 0.39248 0.29686 0.0
C2819 C 0.34533 0.39107 0.32156 0.0
C2820 C 0.37195 0.40849 0.29108 0.0
C2821 C 0.38101 0.42359 0.31041 0.0
C2822 C 0.37236 0.42203 0.33569 0.0
C2823 C 0.35463 0.40577 0.34099 0.0
C2824 C 0.38075 0.40946 0.26394 0.0
C2825 C 0.38153 0.43781 0.35676 0.0
C2826 C 0.43321 0.45695 0.295 0.0
C2827 C 0.43181 0.47037 0.27824 0.0
C2828 C 0.41696 0.44235 0.30751 0.0
C2829 C 0.399 0.44131 0.30322 0.0
C2830 C 0.39798 0.45601 0.28853 0.0
C2831 C 0.41439 0.47031 0.27608 0.0
C2832 C 0.41873 0.42704 0.32308 0.0
C2833 C 0.37922 0.45566 0.28376 0.0
H2834 H 0.34719 0.38117 0.28178 0.0
H2835 H 0.34785 0.40481 0.36014 0.0
H2836 H 0.3817 0.42174 0.25223 0.0
H2837 H 0.39551 0.41193 0.26686 0.0
H2838 H 0.37237 0.39614 0.25172 0.0
H2839 H 0.37378 0.43377 0.37617 0.0
H2840 H 0.39657 0.44148 0.36075 0.0
H2841 H 0.38176 0.45096 0.34908 0.0
H2842 H 0.44661 0.45681 0.29634 0.0
H2843 H 0.4133 0.48062 0.26294 0.0
H2844 H 0.41293 0.41382 0.31043 0.0
H2845 H 0.41031 0.42332 0.34185 0.0
H2846 H 0.43383 0.43159 0.32858 0.0
H2847 H 0.3703 0.44404 0.26904 0.0
H2848 H 0.38127 0.46946 0.27554 0.0
H2849 H 0.37119 0.45256 0.30285 0.0
C2850 C 0.31978 0.3049 0.34707 0.0
C2851 C 0.30175 0.30162 0.35475 0.0
C2852 C 0.32626 0.29208 0.35471 0.0
C2853 C 0.31456 0.27596 0.37083 0.0
C2854 C 0.29662 0.27308 0.37932 0.0
C2855 C 0.29036 0.28578 0.37086 0.0
C2856 C 0.34527 0.29538 0.34481 0.0
C2857 C 0.28389 0.25643 0.39716 0.0
C2858 C 0.31549 0.22928 0.37764 0.0
C2859 C 0.32347 0.23149 0.40374 0.0
C2860 C 0.31419 0.24447 0.36528 0.0
C2861 C 0.32084 0.26207 0.37956 0.0
C2862 C 0.33055 0.26488 0.40477 0.0
C2863 C 0.33191 0.24961 0.4164 0.0
C2864 C 0.30423 0.24111 0.338 0.0
C2865 C 0.33779 0.2833 0.42081 0.0
H2866 H 0.32842 0.317 0.33421 0.0
H2867 H 0.2764 0.28329 0.37677 0.0
H2868 H 0.35428 0.29528 0.36203 0.0
H2869 H 0.34294 0.28353 0.33086 0.0
H2870 H 0.35319 0.30921 0.33394 0.0
H2871 H 0.27071 0.25669 0.40278 0.0
H2872 H 0.27966 0.24266 0.38653 0.0
H2873 H 0.29175 0.25669 0.41602 0.0
H2874 H 0.30911 0.21536 0.3677 0.0
H2875 H 0.33854 0.2515 0.43633 0.0
H2876 H 0.31184 0.25387 0.32492 0.0
H2877 H 0.28955 0.23868 0.34075 0.0
H2878 H 0.3032 0.22838 0.32742 0.0
H2879 H 0.34549 0.29598 0.40764 0.0
H2880 H 0.34748 0.2843 0.43784 0.0
H2881 H 0.32547 0.28398 0.42933 0.0
C2882 C 0.71794 0.01471 0.36967 0.0
C2883 C 0.71839 0.00945 0.34278 0.0
C2884 C 0.73194 0.03267 0.37996 0.0
C2885 C 0.7463 0.04589 0.36264 0.0
C2886 C 0.74595 0.04109 0.33498 0.0
C2887 C 0.73225 0.02276 0.32552 0.0
C2888 C 0.73205 0.037 0.40975 0.0
C2889 C 0.76049 0.05501 0.3156 0.0
C2890 C 0.77536 0.09618 0.39277 0.0
C2891 C 0.79146 0.09569 0.40305 0.0
C2892 C 0.76108 0.08057 0.37784 0.0
C2893 C 0.76263 0.06384 0.37417 0.0
C2894 C 0.77932 0.06369 0.38354 0.0
C2895 C 0.79364 0.07973 0.39756 0.0
C2896 C 0.74388 0.08161 0.36731 0.0
C2897 C 0.78144 0.04605 0.38064 0.0
H2898 H 0.70735 0.00434 0.38307 0.0
H2899 H 0.73257 0.01873 0.30466 0.0
H2900 H 0.74528 0.03863 0.41966 0.0
H2901 H 0.73209 0.05076 0.41254 0.0
H2902 H 0.71953 0.02552 0.42026 0.0
H2903 H 0.75658 0.05024 0.29415 0.0
H2904 H 0.76196 0.06947 0.31792 0.0
H2905 H 0.77466 0.0564 0.32025 0.0
H2906 H 0.77356 0.10843 0.39744 0.0
H2907 H 0.80589 0.07921 0.40612 0.0
H2908 H 0.73141 0.07262 0.38003 0.0
H2909 H 0.74015 0.07591 0.34626 0.0
H2910 H 0.74634 0.09654 0.36765 0.0
H2911 H 0.77021 0.0341 0.39236 0.0
H2912 H 0.79562 0.04855 0.38802 0.0
H2913 H 0.77946 0.04133 0.35915 0.0
C2914 C 0.97729 0.6964 0.34632 0.0
C2915 C 0.98809 0.69381 0.3669 0.0
C2916 C 0.95924 0.69434 0.35155 0.0
C2917 C 0.95188 0.68975 0.37803 0.0
C2918 C 0.96248 0.68655 0.39863 0.0
C2919 C 0.98039 0.68855 0.3928 0.0
C2920 C 0.94831 0.69768 0.32898 0.0
C2921 C 0.95522 0.68167 0.42718 0.0
C2922 C 0.91851 0.70584 0.40632 0.0
C2923 C 0.90134 0.6884 0.40805 0.0
C2924 C 0.93477 0.70668 0.39501 0.0
C2925 C 0.93385 0.68966 0.38502 0.0
C2926 C 0.91614 0.67229 0.38473 0.0
C2927 C 0.90007 0.67186 0.39631 0.0
C2928 C 0.95329 0.72554 0.39565 0.0
C2929 C 0.91448 0.65389 0.37397 0.0
H2930 H 0.9831 0.70039 0.32621 0.0
H2931 H 0.98858 0.68648 0.40882 0.0
H2932 H 0.9334 0.68562 0.32772 0.0
H2933 H 0.94763 0.71092 0.33328 0.0
H2934 H 0.95504 0.69923 0.309 0.0
H2935 H 0.96474 0.67872 0.44053 0.0
H2936 H 0.95407 0.69378 0.43607 0.0
H2937 H 0.94073 0.66889 0.42701 0.0
H2938 H 0.91949 0.71869 0.41519 0.0
H2939 H 0.88688 0.65831 0.39777 0.0
H2940 H 0.9601 0.72851 0.37558 0.0
H2941 H 0.96337 0.72471 0.41054 0.0
H2942 H 0.95118 0.73776 0.40144 0.0
H2943 H 0.92177 0.65635 0.35432 0.0
H2944 H 0.89934 0.64247 0.3712 0.0
H2945 H 0.9216 0.64866 0.38842 0.0
C2946 C 0.40704 0.04555 0.65778 0.0
C2947 C 0.38943 0.03956 0.67019 0.0
C2948 C 0.41988 0.03979 0.66762 0.0
C2949 C 0.41509 0.02789 0.69062 0.0
C2950 C 0.39688 0.02086 0.70229 0.0
C2951 C 0.38419 0.02671 0.69182 0.0
C2952 C 0.43899 0.04737 0.65434 0.0
C2953 C 0.39125 0.00807 0.72683 0.0
C2954 C 0.44395 0.00424 0.71353 0.0
C2955 C 0.45477 0.01636 0.73505 0.0
C2956 C 0.43146 0.00817 0.698 0.0
C2957 C 0.42984 0.02457 0.70429 0.0
C2958 C 0.44177 0.03752 0.7248 0.0
C2959 C 0.4541 0.03324 0.73991 0.0
C2960 C 0.41915 0.99416 0.67609 0.0
C2961 C 0.44068 0.05529 0.73195 0.0
H2962 H 0.4111 0.05525 0.64074 0.0
H2963 H 0.37062 0.02201 0.70146 0.0
H2964 H 0.4504 0.0581 0.66794 0.0
H2965 H 0.44227 0.03561 0.65092 0.0
H2966 H 0.43951 0.05434 0.63465 0.0
H2967 H 0.37603 0.00242 0.73194 0.0
H2968 H 0.39372 0.99579 0.72336 0.0
H2969 H 0.40029 0.0163 0.74453 0.0
H2970 H 0.44428 0.99103 0.71003 0.0
H2971 H 0.46245 0.04256 0.75664 0.0
H2972 H 0.41929 1.00186 0.6573 0.0
H2973 H 0.40415 0.98615 0.68283 0.0
H2974 H 0.42391 0.98364 0.67127 0.0
H2975 H 0.44247 0.06398 0.71357 0.0
H2976 H 0.45174 0.06444 0.74728 0.0
H2977 H 0.42641 0.05108 0.74012 0.0
C2978 C 0.97282 0.35602 0.67017 0.0
C2979 C 0.97542 0.34629 0.69212 0.0
C2980 C 0.97457 0.37427 0.67365 0.0
C2981 C 0.97895 0.38295 0.6997 0.0
C2982 C 0.98241 0.37355 0.72165 0.0
C2983 C 0.98062 0.35538 0.71758 0.0
C2984 C 0.97094 0.38388 0.64971 0.0
C2985 C 0.98717 0.3823 0.74977 0.0
C2986 C 0.99505 0.43537 0.71486 0.0
C2987 C 0.97838 0.43386 0.72564 0.0
C2988 C 0.99521 0.41909 0.70443 0.0
C2989 C 0.9783 0.40098 0.70487 0.0
C2990 C 0.96109 0.3998 0.7136 0.0
C2991 C 0.96135 0.41625 0.72389 0.0
C2992 C 0.01381 0.42102 0.69504 0.0
C2993 C 0.94269 0.38085 0.71423 0.0
H2994 H 0.96886 0.34914 0.65039 0.0
H2995 H 0.98274 0.34802 0.73463 0.0
H2996 H 0.95733 0.38397 0.65243 0.0
H2997 H 0.98245 0.39906 0.64833 0.0
H2998 H 0.96999 0.37643 0.63029 0.0
H2999 H 0.99063 0.37375 0.76424 0.0
H3000 H 0.99951 0.39709 0.74919 0.0
H3001 H 0.97485 0.38332 0.75758 0.0
H3002 H 0.00828 0.44893 0.71646 0.0
H3003 H 0.94846 0.4151 0.73224 0.0
H3004 H 0.01158 0.41268 0.67608 0.0
H3005 H 0.01954 0.41513 0.71069 0.0
H3006 H 0.02468 0.43624 0.69152 0.0
H3007 H 0.94004 0.37311 0.69463 0.0
H3008 H 0.9302 0.38272 0.71857 0.0
H3009 H 0.94382 0.37166 0.73019 0.0
C3010 C 0.63873 0.60857 0.67796 0.0
C3011 C 0.65181 0.62005 0.69833 0.0
C3012 C 0.62094 0.59276 0.68452 0.0
C3013 C 0.61633 0.58808 0.71206 0.0
C3014 C 0.62939 0.59982 0.73266 0.0
C3015 C 0.64683 0.61573 0.72554 0.0
C3016 C 0.60724 0.5809 0.66201 0.0
C3017 C 0.62518 0.59527 0.7623 0.0
C3018 C 0.56686 0.55696 0.74017 0.0
C3019 C 0.56722 0.53998 0.74594 0.0
C3020 C 0.58207 0.57222 0.72684 0.0
C3021 C 0.59822 0.57061 0.71978 0.0
C3022 C 0.59796 0.55294 0.72379 0.0
C3023 C 0.58236 0.53777 0.73664 0.0
C3024 C 0.58149 0.59058 0.72232 0.0
C3025 C 0.61491 0.55062 0.71689 0.0
H3026 H 0.64245 0.61186 0.65688 0.0
H3027 H 0.65688 0.62444 0.7414 0.0
H3028 H 0.6054 0.56622 0.66208 0.0
H3029 H 0.59297 0.57943 0.66527 0.0
H3030 H 0.61228 0.58728 0.64175 0.0
H3031 H 0.63684 0.60581 0.77582 0.0
H3032 H 0.61175 0.59511 0.76743 0.0
H3033 H 0.62312 0.58076 0.76659 0.0
H3034 H 0.5552 0.55872 0.74754 0.0
H3035 H 0.5828 0.52477 0.74151 0.0
H3036 H 0.58683 0.59645 0.70197 0.0
H3037 H 0.59092 0.60149 0.73755 0.0
H3038 H 0.56682 0.5884 0.72427 0.0
H3039 H 0.61991 0.556 0.69624 0.0
H3040 H 0.61157 0.53542 0.71807 0.0
H3041 H 0.62689 0.55928 0.73131 0.0
C3042 C 0.71087 0.72074 0.63594 0.0
C3043 C 0.70142 0.70934 0.65813 0.0
C3044 C 0.70666 0.73479 0.62645 0.0
C3045 C 0.69307 0.73795 0.64006 0.0
C3046 C 0.68328 0.72624 0.66235 0.0
C3047 C 0.68745 0.71189 0.67099 0.0
C3048 C 0.71712 0.74657 0.60219 0.0
C3049 C 0.66906 0.72943 0.67779 0.0
C3050 C 0.70272 0.78839 0.62548 0.0
C3051 C 0.69045 0.78511 0.6031 0.0
C3052 C 0.7024 0.77297 0.63966 0.0
C3053 C 0.68973 0.75387 0.63096 0.0
C3054 C 0.67601 0.7505 0.61024 0.0
C3055 C 0.67637 0.76616 0.59683 0.0
C3056 C 0.71686 0.77721 0.66228 0.0
C3057 C 0.66224 0.73043 0.60023 0.0
H3058 H 0.72178 0.71879 0.6262 0.0
H3059 H 0.68045 0.70327 0.68852 0.0
H3060 H 0.70676 0.74603 0.58657 0.0
H3061 H 0.72627 0.76181 0.60835 0.0
H3062 H 0.7263 0.74146 0.59288 0.0
H3063 H 0.66127 0.71794 0.69279 0.0
H3064 H 0.67666 0.7434 0.68872 0.0
H3065 H 0.65852 0.73014 0.66371 0.0
H3066 H 0.71364 0.80294 0.63057 0.0
H3067 H 0.66655 0.76351 0.57993 0.0
H3068 H 0.72863 0.77514 0.65475 0.0
H3069 H 0.71026 0.76721 0.67938 0.0
H3070 H 0.72308 0.7922 0.66992 0.0
H3071 H 0.6701 0.72504 0.58804 0.0
H3072 H 0.65057 0.73001 0.58733 0.0
H3073 H 0.65584 0.72048 0.61742 0.0
C3074 C 0.28607 0.9885 0.67006 0.0
C3075 C 0.29847 0.99717 0.64842 0.0
C3076 C 0.26914 0.97079 0.66666 0.0
C3077 C 0.2645 0.96152 0.64101 0.0
C3078 C 0.27728 0.96993 0.61935 0.0
C3079 C 0.29407 0.98763 0.62331 0.0
C3080 C 0.25595 0.9623 0.69026 0.0
C3081 C 0.27295 0.96049 0.59168 0.0
C3082 C 0.22805 0.90902 0.62805 0.0
C3083 C 0.21318 0.91066 0.61542 0.0
C3084 C 0.24441 0.92534 0.63839 0.0
C3085 C 0.24582 0.94365 0.63605 0.0
C3086 C 0.23002 0.94504 0.62561 0.0
C3087 C 0.21392 0.92853 0.61536 0.0
C3088 C 0.26083 0.92318 0.64954 0.0
C3089 C 0.23076 0.96419 0.623 0.0
H3090 H 0.28935 0.99575 0.68957 0.0
H3091 H 0.30357 0.99417 0.6065 0.0
H3092 H 0.2424 0.96237 0.6859 0.0
H3093 H 0.25227 0.94713 0.69322 0.0
H3094 H 0.26235 0.97041 0.70942 0.0
H3095 H 0.28476 0.96838 0.57736 0.0
H3096 H 0.27028 0.94555 0.59335 0.0
H3097 H 0.25977 0.95975 0.58299 0.0
H3098 H 0.22764 0.89527 0.62775 0.0
H3099 H 0.20247 0.92981 0.60541 0.0
H3100 H 0.267 0.93198 0.66819 0.0
H3101 H 0.2723 0.92837 0.63437 0.0
H3102 H 0.2564 0.90798 0.65421 0.0
H3103 H 0.23622 0.97262 0.64209 0.0
H3104 H 0.21652 0.96255 0.61793 0.0
H3105 H 0.24073 0.97258 0.60673 0.0
C3106 C 0.02388 0.30727 0.65017 0.0
C3107 C 0.01624 0.29542 0.67273 0.0
C3108 C 0.04123 0.31049 0.63923 0.0
C3109 C 0.05121 0.30181 0.65133 0.0
C3110 C 0.04434 0.29121 0.67543 0.0
C3111 C 0.02692 0.28806 0.68574 0.0
C3112 C 0.0481 0.32194 0.61353 0.0
C3113 C 0.05463 0.28194 0.68922 0.0
C3114 C 0.07659 0.28584 0.60266 0.0
C3115 C 0.09563 0.3004 0.60567 0.0
C3116 C 0.06216 0.28601 0.61783 0.0
C3117 C 0.06687 0.30117 0.63655 0.0
C3118 C 0.08624 0.31555 0.6405 0.0
C3119 C 0.10047 0.31502 0.62487 0.0
C3120 C 0.04175 0.27031 0.61304 0.0
C3121 C 0.09181 0.33182 0.6604 0.0
H3122 H 0.01576 0.31306 0.64006 0.0
H3123 H 0.02129 0.27916 0.70349 0.0
H3124 H 0.06361 0.33238 0.61519 0.0
H3125 H 0.04595 0.31209 0.59635 0.0
H3126 H 0.0403 0.32984 0.60873 0.0
H3127 H 0.0492 0.27685 0.70986 0.0
H3128 H 0.05261 0.26944 0.67697 0.0
H3129 H 0.0702 0.29214 0.69078 0.0
H3130 H 0.07293 0.27464 0.58759 0.0
H3131 H 0.11519 0.32641 0.62684 0.0
H3132 H 0.03301 0.27661 0.60535 0.0
H3133 H 0.03549 0.26302 0.63237 0.0
H3134 H 0.0406 0.25935 0.5982 0.0
H3135 H 0.08617 0.34121 0.65309 0.0
H3136 H 0.10756 0.34068 0.66311 0.0
H3137 H 0.08543 0.3262 0.6804 0.0
C3138 C 0.28814 0.30656 0.63033 0.0
C3139 C 0.29374 0.30447 0.65661 0.0
C3140 C 0.27219 0.30898 0.62578 0.0
C3141 C 0.26171 0.30967 0.6481 0.0
C3142 C 0.2677 0.3083 0.67478 0.0
C3143 C 0.28355 0.30552 0.67872 0.0
C3144 C 0.26624 0.31022 0.59694 0.0
C3145 C 0.25716 0.30939 0.69908 0.0
C3146 C 0.23009 0.32997 0.62564 0.0
C3147 C 0.21323 0.31314 0.61839 0.0
C3148 C 0.24551 0.32914 0.63812 0.0
C3149 C 0.24409 0.31103 0.64294 0.0
C3150 C 0.22639 0.29407 0.63816 0.0
C3151 C 0.21111 0.29535 0.6261 0.0
C3152 C 0.2639 0.34759 0.64359 0.0
C3153 C 0.22422 0.27445 0.64286 0.0
H3154 H 0.29588 0.30571 0.61314 0.0
H3155 H 0.28785 0.304 0.69911 0.0
H3156 H 0.25156 0.29827 0.59269 0.0
H3157 H 0.26598 0.32384 0.59404 0.0
H3158 H 0.27598 0.30953 0.58188 0.0
H3159 H 0.26469 0.30998 0.71846 0.0
H3160 H 0.25536 0.32226 0.69783 0.0
H3161 H 0.24266 0.29664 0.69934 0.0
H3162 H 0.23175 0.34375 0.61964 0.0
H3163 H 0.19818 0.2823 0.62021 0.0
H3164 H 0.27411 0.34987 0.6273 0.0
H3165 H 0.27061 0.3469 0.6631 0.0
H3166 H 0.26158 0.36017 0.64411 0.0
H3167 H 0.2319 0.27136 0.62692 0.0
H3168 H 0.209 0.26298 0.64217 0.0
H3169 H 0.23063 0.27393 0.66271 0.0
C3170 C 0.69107 0.96836 0.67942 0.0
C3171 C 0.69987 0.98404 0.66199 0.0
C3172 C 0.68668 0.94986 0.67084 0.0
C3173 C 0.69158 0.94717 0.64441 0.0
C3174 C 0.69984 0.96296 0.62646 0.0
C3175 C 0.70389 0.98122 0.63551 0.0
C3176 C 0.67767 0.93341 0.69045 0.0
C3177 C 0.70533 0.96078 0.59812 0.0
C3178 C 0.70476 0.90932 0.62586 0.0
C3179 C 0.68939 0.89728 0.60871 0.0
C3180 C 0.70502 0.92487 0.63941 0.0
C3181 C 0.68946 0.92835 0.63582 0.0
C3182 C 0.67308 0.91507 0.62076 0.0
C3183 C 0.67327 0.89972 0.6073 0.0
C3184 C 0.72273 0.93859 0.65542 0.0
C3185 C 0.65605 0.918 0.61687 0.0
H3186 H 0.68827 0.97071 0.70007 0.0
H3187 H 0.71102 0.9935 0.6223 0.0
H3188 H 0.6656 0.92068 0.68051 0.0
H3189 H 0.68836 0.92922 0.69704 0.0
H3190 H 0.67238 0.93727 0.70872 0.0
H3191 H 0.71074 0.97423 0.5863 0.0
H3192 H 0.71662 0.95664 0.59914 0.0
H3193 H 0.69286 0.94917 0.58705 0.0
H3194 H 0.71733 0.90763 0.62682 0.0
H3195 H 0.66132 0.89038 0.59411 0.0
H3196 H 0.71888 0.9422 0.67517 0.0
H3197 H 0.73064 0.95217 0.64403 0.0
H3198 H 0.73242 0.93261 0.65921 0.0
H3199 H 0.65233 0.92225 0.63623 0.0
H3200 H 0.64334 0.90485 0.60887 0.0
H3201 H 0.65959 0.92978 0.60225 0.0
C3202 C 0.021 0.71923 0.63322 0.0
C3203 C 0.01223 0.71724 0.65819 0.0
C3204 C 0.03887 0.73522 0.62794 0.0
C3205 C 0.04818 0.74973 0.64802 0.0
C3206 C 0.03966 0.74755 0.67356 0.0
C3207 C 0.02182 0.73129 0.67839 0.0
C3208 C 0.04755 0.73683 0.60051 0.0
C3209 C 0.04904 0.76272 0.69542 0.0
C3210 C 0.10048 0.78329 0.63319 0.0
C3211 C 0.09924 0.79729 0.61759 0.0
C3212 C 0.08415 0.76836 0.64509 0.0
C3213 C 0.06626 0.76756 0.64138 0.0
C3214 C 0.06539 0.78276 0.62788 0.0
C3215 C 0.08187 0.79737 0.61596 0.0
C3216 C 0.08576 0.75249 0.65931 0.0
C3217 C 0.04672 0.7827 0.62383 0.0
H3218 H 0.01374 0.70841 0.61755 0.0
H3219 H 0.01511 0.72991 0.69773 0.0
H3220 H 0.04852 0.74942 0.58964 0.0
H3221 H 0.06228 0.73916 0.60294 0.0
H3222 H 0.03906 0.72382 0.58772 0.0
H3223 H 0.04142 0.75816 0.7149 0.0
H3224 H 0.06408 0.76621 0.6989 0.0
H3225 H 0.04931 0.77611 0.68882 0.0
H3226 H 0.11383 0.78303 0.63403 0.0
H3227 H 0.08089 0.80808 0.60361 0.0
H3228 H 0.07981 0.73965 0.64586 0.0
H3229 H 0.07738 0.74829 0.67814 0.0
H3230 H 0.10084 0.75674 0.66449 0.0
H3231 H 0.03771 0.77153 0.60861 0.0
H3232 H 0.04889 0.79677 0.61657 0.0
H3233 H 0.03872 0.77913 0.64298 0.0
C3234 C 0.97653 0.62904 0.69963 0.0
C3235 C 0.96339 0.62543 0.67835 0.0
C3236 C 0.98093 0.61481 0.70802 0.0
C3237 C 0.97217 0.59673 0.69453 0.0
C3238 C 0.9599 0.59354 0.67191 0.0
C3239 C 0.95558 0.60785 0.66423 0.0
C3240 C 0.99408 0.61873 0.73228 0.0
C3241 C 0.9505 0.57463 0.65669 0.0
C3242 C 0.99145 0.56278 0.7107 0.0
C3243 C 0.97916 0.55163 0.73121 0.0
C3244 C 0.98907 0.5772 0.69787 0.0
C3245 C 0.97409 0.58049 0.70588 0.0
C3246 C 0.96099 0.56846 0.72545 0.0
C3247 C 0.96366 0.55415 0.73779 0.0
C3248 C 0.00314 0.58955 0.67682 0.0
C3249 C 0.94469 0.5713 0.73438 0.0
H3250 H 0.98261 0.64257 0.7106 0.0
H3251 H 0.9456 0.60502 0.64749 0.0
H3252 H 0.9858 0.60957 0.74938 0.0
H3253 H 0.00529 0.615 0.72758 0.0
H3254 H 1.00108 0.63399 0.73896 0.0
H3255 H 0.94333 0.57531 0.63759 0.0
H3256 H 0.96117 0.57019 0.65177 0.0
H3257 H 0.93964 0.56331 0.66963 0.0
H3258 H 0.00359 0.56102 0.70586 0.0
H3259 H 0.95416 0.54551 0.75366 0.0
H3260 H 0.01217 0.60429 0.68506 0.0
H3261 H 0.99553 0.59067 0.65854 0.0
H3262 H 0.01261 0.58382 0.67071 0.0
H3263 H 0.95045 0.58568 0.74399 0.0
H3264 H 0.93539 0.56027 0.74909 0.0
H3265 H 0.9358 0.57078 0.71661 0.0
C3266 C 0.38416 0.34977 0.70848 0.0
C3267 C 0.38359 0.34502 0.68108 0.0
C3268 C 0.39854 0.36753 0.71876 0.0
C3269 C 0.41224 0.38106 0.70098 0.0
C3270 C 0.41081 0.3768 0.67293 0.0
C3271 C 0.39675 0.35865 0.66341 0.0
C3272 C 0.3998 0.37129 0.74891 0.0
C3273 C 0.4246 0.39107 0.65315 0.0
C3274 C 0.4425 0.43048 0.73306 0.0
C3275 C 0.45875 0.42957 0.74151 0.0
C3276 C 0.42776 0.41538 0.71797 0.0
C3277 C 0.42905 0.39871 0.71225 0.0
C3278 C 0.44593 0.39823 0.71959 0.0
C3279 C 0.46068 0.4138 0.73384 0.0
C3280 C 0.41036 0.41678 0.70962 0.0
C3281 C 0.4478 0.38064 0.71443 0.0
H3282 H 0.3741 0.33912 0.72215 0.0
H3283 H 0.39627 0.35498 0.64218 0.0
H3284 H 0.41333 0.37268 0.7573 0.0
H3285 H 0.40004 0.38502 0.75306 0.0
H3286 H 0.38767 0.35963 0.75982 0.0
H3287 H 0.41979 0.38679 0.63178 0.0
H3288 H 0.42636 0.40553 0.65687 0.0
H3289 H 0.43884 0.39223 0.65599 0.0
H3290 H 0.44092 0.44258 0.73941 0.0
H3291 H 0.47307 0.41294 0.74097 0.0
H3292 H 0.39835 0.40766 0.72299 0.0
H3293 H 0.40581 0.41148 0.68853 0.0
H3294 H 0.41302 0.43176 0.71109 0.0
H3295 H 0.43702 0.36843 0.7263 0.0
H3296 H 0.46221 0.38295 0.72016 0.0
H3297 H 0.44496 0.37642 0.69273 0.0
C3298 C 0.64666 0.02038 0.72208 0.0
C3299 C 0.65432 0.02677 0.69637 0.0
C3300 C 0.6286 0.0177 0.72862 0.0
C3301 C 0.6178 0.02144 0.70897 0.0
C3302 C 0.62515 0.02727 0.68267 0.0
C3303 C 0.64334 0.02991 0.67669 0.0
C3304 C 0.62136 0.01148 0.75693 0.0
C3305 C 0.61405 0.03128 0.66111 0.0
C3306 C 0.5657 1.00142 0.72766 0.0
C3307 C 0.56647 0.01718 0.74125 0.0
C3308 C 0.58203 0.00288 0.71542 0.0
C3309 C 0.59951 0.02048 0.71686 0.0
C3310 C 0.59993 0.03676 0.72883 0.0
C3311 C 0.58343 0.03491 0.74082 0.0
C3312 C 0.5809 0.98522 0.70265 0.0
C3313 C 0.61816 0.05584 0.73072 0.0
H3314 H 0.65497 0.01785 0.73741 0.0
H3315 H 0.64911 0.0348 0.65674 0.0
H3316 H 0.61988 0.02298 0.76722 0.0
H3317 H 0.60701 0.9985 0.75608 0.0
H3318 H 0.63105 0.00826 0.76943 0.0
H3319 H 0.62089 0.03398 0.64103 0.0
H3320 H 0.59928 0.01902 0.65915 0.0
H3321 H 0.61295 0.04406 0.66703 0.0
H3322 H 0.55269 0.98765 0.72809 0.0
H3323 H 0.58403 0.04716 0.75112 0.0
H3324 H 0.58834 0.97972 0.71603 0.0
H3325 H 0.58818 0.98875 0.6829 0.0
H3326 H 0.56589 0.97361 0.69945 0.0
H3327 H 0.62836 0.05468 0.745 0.0
H3328 H 0.61565 0.06753 0.73798 0.0
H3329 H 0.62503 0.05988 0.7107 0.0
loop_
_geom_bond_atom_site_label_1
_geom_bond_atom_site_label_2
_geom_bond_distance
_geom_bond_site_symmetry_2
_ccdc_geom_bond_type
Mn0 O5 2.095 1_655 S
Mn0 O15 2.162 . S
Mn0 O16 2.297 1_554 S
Mn0 O24 2.385 1_554 S
Mn0 O25 2.209 1_654 S
Mn0 O26 2.094 . S
Mn1 O6 2.121 . S
Mn1 N8 2.257 1_554 S
Mn1 N17 2.282 1_554 S
Mn1 O25 2.215 1_554 S
Mn1 O27 2.117 . S
C2 O24 1.234 1_455 S
C2 O25 1.283 . S
C3 O15 1.281 1_556 S
C3 O16 1.236 . S
C4 O26 1.224 1_455 S
C4 O27 1.306 . S
O5 Mn0 2.095 1_455 S
O5 C14 1.250 . S
O6 Mn1 2.121 . S
O6 C14 1.258 . S
C7 N8 1.326 . S
C7 C11 1.460 . S
C7 H13 0.929 . S
N8 Mn1 2.257 1_556 S
N8 C7 1.326 . S
N8 C12 1.362 . S
C9 C10 1.258 . S
C9 C12 1.431 . S
C9 C29 1.449 . S
C10 C9 1.258 . S
C10 C11 1.477 . S
C10 H30 0.931 . S
C11 C7 1.460 . S
C11 C10 1.477 . S
C11 H31 0.930 . S
C12 N8 1.362 . S
C12 C9 1.431 . S
C12 C22 1.476 . S
H13 C7 0.929 . S
C14 O5 1.250 . S
C14 O6 1.258 . S
O15 Mn0 2.162 . S
O15 C3 1.281 1_554 S
O16 Mn0 2.297 1_556 S
O16 C3 1.236 . S
N17 Mn1 2.282 1_556 S
N17 C18 1.328 1_556 S
N17 C22 1.318 . S
C18 N17 1.328 1_554 S
C18 C19 1.457 1_554 S
C18 H23 0.929 . S
C19 C18 1.457 1_556 S
C19 C20 1.291 . S
C19 H32 0.931 . S
C20 C19 1.291 . S
C20 C21 1.373 . S
C20 H33 0.929 . S
C21 C20 1.373 . S
C21 C22 1.396 . S
C21 C28 1.403 . S
C22 C12 1.476 . S
C22 N17 1.318 . S
C22 C21 1.396 . S
H23 C18 0.929 . S
O24 Mn0 2.385 1_556 S
O24 C2 1.234 1_655 S
O25 Mn0 2.209 1_456 S
O25 Mn1 2.215 1_556 S
O25 C2 1.283 . S
O26 Mn0 2.094 . S
O26 C4 1.224 1_655 S
O27 Mn1 2.117 . S
O27 C4 1.306 . S
C28 C21 1.403 . S
C28 C29 1.399 . S
C28 H34 0.929 . S
C29 C9 1.449 . S
C29 C28 1.399 . S
C29 H35 0.930 . S
H30 C10 0.931 . S
H31 C11 0.930 . S
H32 C19 0.931 . S
H33 C20 0.929 . S
H34 C28 0.929 . S
H35 C29 0.930 . S
Mn36 O41 2.095 1_554 S
Mn36 O51 2.162 . S
Mn36 O52 2.297 . S
Mn36 O60 2.385 . S
Mn36 O61 2.209 . S
Mn36 O62 2.094 1_554 S
Mn37 O42 2.121 . S
Mn37 N44 2.257 1_556 S
Mn37 N53 2.282 1_556 S
Mn37 O61 2.215 1_556 S
Mn37 O63 2.117 . S
C38 O60 1.234 . S
C38 O61 1.283 . S
C39 O51 1.281 . S
C39 O52 1.236 . S
C40 O62 1.240 . S
C40 O63 1.264 . S
O41 Mn36 2.095 1_556 S
O41 C50 1.250 . S
O42 Mn37 2.121 . S
O42 C50 1.258 . S
C43 N44 1.326 . S
C43 C47 1.460 . S
C43 H49 0.929 . S
N44 Mn37 2.257 1_554 S
N44 C43 1.326 . S
N44 C48 1.362 . S
C45 C46 1.258 . S
C45 C48 1.431 . S
C45 C65 1.449 . S
C46 C45 1.258 . S
C46 C47 1.477 . S
C46 H66 0.931 . S
C47 C43 1.460 . S
C47 C46 1.477 . S
C47 H67 0.930 . S
C48 N44 1.362 . S
C48 C45 1.431 . S
C48 C58 1.476 . S
H49 C43 0.929 . S
C50 O41 1.250 . S
C50 O42 1.258 . S
O51 Mn36 2.162 . S
O51 C39 1.281 . S
O52 Mn36 2.297 . S
O52 C39 1.236 . S
N53 Mn37 2.282 1_554 S
N53 C54 1.328 . S
N53 C58 1.318 . S
C54 N53 1.328 . S
C54 C55 1.457 . S
C54 H59 0.929 1_554 S
C55 C54 1.457 . S
C55 C56 1.291 . S
C55 H68 0.931 . S
C56 C55 1.291 . S
C56 C57 1.373 . S
C56 H69 0.929 . S
C57 C56 1.373 . S
C57 C58 1.396 . S
C57 C64 1.403 . S
C58 C48 1.476 . S
C58 N53 1.318 . S
C58 C57 1.396 . S
H59 C54 0.929 1_556 S
O60 Mn36 2.385 . S
O60 C38 1.234 . S
O61 Mn36 2.209 . S
O61 Mn37 2.215 1_554 S
O61 C38 1.283 . S
O62 Mn36 2.094 1_556 S
O62 C40 1.240 . S
O63 Mn37 2.117 . S
O63 C40 1.264 . S
C64 C57 1.403 . S
C64 C65 1.399 . S
C64 H70 0.929 . S
C65 C45 1.449 . S
C65 C64 1.399 . S
C65 H71 0.930 . S
H66 C46 0.931 . S
H67 C47 0.930 . S
H68 C55 0.931 . S
H69 C56 0.929 . S
H70 C64 0.929 . S
H71 C65 0.930 . S
Mn72 O77 2.095 1_564 S
Mn72 O87 2.162 . S
Mn72 O88 2.297 . S
Mn72 O96 2.385 . S
Mn72 O97 2.209 1_565 S
Mn72 O98 2.094 1_554 S
Mn73 O78 2.121 1_554 S
Mn73 N80 2.257 . S
Mn73 N89 2.282 . S
Mn73 O97 2.215 . S
Mn73 O99 2.117 1_554 S
C74 O96 1.204 1_545 S
C74 O97 1.315 . S
C75 O87 1.281 . S
C75 O88 1.236 . S
C76 O98 1.251 . S
C76 O99 1.240 1_565 S
O77 Mn72 2.095 1_546 S
O77 C86 1.250 . S
O78 Mn73 2.121 1_556 S
O78 C86 1.258 . S
C79 N80 1.326 . S
C79 C83 1.460 . S
C79 H85 0.929 . S
N80 Mn73 2.257 . S
N80 C79 1.326 . S
N80 C84 1.362 . S
C81 C82 1.258 . S
C81 C84 1.431 . S
C81 C101 1.449 . S
C82 C81 1.258 . S
C82 C83 1.477 . S
C82 H102 0.931 . S
C83 C79 1.460 . S
C83 C82 1.477 . S
C83 H103 0.930 . S
C84 N80 1.362 . S
C84 C81 1.431 . S
C84 C94 1.476 . S
H85 C79 0.929 . S
C86 O77 1.250 . S
C86 O78 1.258 . S
O87 Mn72 2.162 . S
O87 C75 1.281 . S
O88 Mn72 2.297 . S
O88 C75 1.236 . S
N89 Mn73 2.282 . S
N89 C90 1.328 . S
N89 C94 1.318 . S
C90 N89 1.328 . S
C90 C91 1.457 . S
C90 H95 0.929 . S
C91 C90 1.457 . S
C91 C92 1.291 . S
C91 H104 0.931 . S
C92 C91 1.291 . S
C92 C93 1.373 . S
C92 H105 0.929 . S
C93 C92 1.373 . S
C93 C94 1.396 . S
C93 C100 1.403 . S
C94 C84 1.476 . S
C94 N89 1.318 . S
C94 C93 1.396 . S
H95 C90 0.929 . S
O96 Mn72 2.385 . S
O96 C74 1.204 1_565 S
O97 Mn72 2.209 1_545 S
O97 Mn73 2.215 . S
O97 C74 1.315 . S
O98 Mn72 2.094 1_556 S
O98 C76 1.251 . S
O99 Mn73 2.117 1_556 S
O99 C76 1.240 1_545 S
C100 C93 1.403 . S
C100 C101 1.399 . S
C100 H106 0.929 . S
C101 C81 1.449 . S
C101 C100 1.399 . S
C101 H107 0.930 . S
H102 C82 0.931 . S
H103 C83 0.930 . S
H104 C91 0.931 . S
H105 C92 0.929 . S
H106 C100 0.929 . S
H107 C101 0.930 . S
Mn108 O113 2.095 1_655 S
Mn108 O123 2.162 . S
Mn108 O124 2.297 1_554 S
Mn108 O132 2.385 1_554 S
Mn108 O133 2.209 1_654 S
Mn108 O134 2.094 . S
Mn109 O114 2.121 . S
Mn109 N116 2.257 1_554 S
Mn109 N125 2.282 1_554 S
Mn109 O133 2.215 1_554 S
Mn109 O135 2.117 . S
C110 O132 1.186 1_455 S
C110 O133 1.304 . S
C111 O123 1.281 1_556 S
C111 O124 1.236 . S
C112 O134 1.224 1_455 S
C112 O135 1.279 . S
O113 Mn108 2.095 1_455 S
O113 C122 1.250 . S
O114 Mn109 2.121 . S
O114 C122 1.258 . S
C115 N116 1.326 . S
C115 C119 1.460 . S
C115 H121 0.929 . S
N116 Mn109 2.257 1_556 S
N116 C115 1.326 . S
N116 C120 1.362 . S
C117 C118 1.258 . S
C117 C120 1.431 . S
C117 C137 1.449 . S
C118 C117 1.258 . S
C118 C119 1.477 . S
C118 H138 0.931 . S
C119 C115 1.460 . S
C119 C118 1.477 . S
C119 H139 0.930 . S
C120 N116 1.362 . S
C120 C117 1.431 . S
C120 C130 1.476 . S
H121 C115 0.929 . S
C122 O113 1.250 . S
C122 O114 1.258 . S
O123 Mn108 2.162 . S
O123 C111 1.281 1_554 S
O124 Mn108 2.297 1_556 S
O124 C111 1.236 . S
N125 Mn109 2.282 1_556 S
N125 C126 1.328 1_556 S
N125 C130 1.318 . S
C126 N125 1.328 1_554 S
C126 C127 1.457 1_554 S
C126 H131 0.929 . S
C127 C126 1.457 1_556 S
C127 C128 1.291 . S
C127 H140 0.931 . S
C128 C127 1.291 . S
C128 C129 1.373 . S
C128 H141 0.929 . S
C129 C128 1.373 . S
C129 C130 1.396 . S
C129 C136 1.403 . S
C130 C120 1.476 . S
C130 N125 1.318 . S
C130 C129 1.396 . S
H131 C126 0.929 . S
O132 Mn108 2.385 1_556 S
O132 C110 1.186 1_655 S
O133 Mn108 2.209 1_456 S
O133 Mn109 2.215 1_556 S
O133 C110 1.304 . S
O134 Mn108 2.094 . S
O134 C112 1.224 1_655 S
O135 Mn109 2.117 . S
O135 C112 1.279 . S
C136 C129 1.403 . S
C136 C137 1.399 . S
C136 H142 0.929 . S
C137 C117 1.449 . S
C137 C136 1.399 . S
C137 H143 0.930 . S
H138 C118 0.931 . S
H139 C119 0.930 . S
H140 C127 0.931 . S
H141 C128 0.929 . S
H142 C136 0.929 . S
H143 C137 0.930 . S
Mn144 O149 2.095 1_554 S
Mn144 O159 2.162 . S
Mn144 O160 2.297 . S
Mn144 O168 2.385 . S
Mn144 O169 2.209 . S
Mn144 O170 2.094 1_554 S
Mn145 O150 2.117 1_554 S
Mn145 N152 2.282 . S
Mn145 N161 2.295 . S
Mn145 O169 2.241 . S
Mn145 O171 2.093 1_554 S
C146 O168 1.234 . S
C146 O169 1.283 . S
C147 O159 1.281 . S
C147 O160 1.236 . S
C148 O170 1.240 . S
C148 O171 1.264 . S
O149 Mn144 2.095 1_556 S
O149 C158 1.250 . S
O150 Mn145 2.117 1_556 S
O150 C158 1.258 . S
C151 N152 1.326 . S
C151 C155 1.460 . S
C151 H157 0.929 . S
N152 Mn145 2.282 . S
N152 C151 1.326 . S
N152 C156 1.362 . S
C153 C154 1.258 . S
C153 C156 1.431 . S
C153 C173 1.449 . S
C154 C153 1.258 . S
C154 C155 1.477 . S
C154 H174 0.931 . S
C155 C151 1.460 . S
C155 C154 1.477 . S
C155 H175 0.930 . S
C156 N152 1.362 . S
C156 C153 1.431 . S
C156 C166 1.476 . S
H157 C151 0.929 . S
C158 O149 1.250 . S
C158 O150 1.258 . S
O159 Mn144 2.162 . S
O159 C147 1.281 . S
O160 Mn144 2.297 . S
O160 C147 1.236 . S
N161 Mn145 2.295 . S
N161 C162 1.328 . S
N161 C166 1.318 . S
C162 N161 1.328 . S
C162 C163 1.457 . S
C162 H167 0.929 1_554 S
C163 C162 1.457 . S
C163 C164 1.291 . S
C163 H176 0.931 . S
C164 C163 1.291 . S
C164 C165 1.373 . S
C164 H177 0.929 . S
C165 C164 1.373 . S
C165 C166 1.396 . S
C165 C172 1.403 . S
C166 C156 1.476 . S
C166 N161 1.318 . S
C166 C165 1.396 . S
H167 C162 0.929 1_556 S
O168 Mn144 2.385 . S
O168 C146 1.234 . S
O169 Mn144 2.209 . S
O169 Mn145 2.241 . S
O169 C146 1.283 . S
O170 Mn144 2.094 1_556 S
O170 C148 1.240 . S
O171 Mn145 2.093 1_556 S
O171 C148 1.264 . S
C172 C165 1.403 . S
C172 C173 1.399 . S
C172 H178 0.929 . S
C173 C153 1.449 . S
C173 C172 1.399 . S
C173 H179 0.930 . S
H174 C154 0.931 . S
H175 C155 0.930 . S
H176 C163 0.931 . S
H177 C164 0.929 . S
H178 C172 0.929 . S
H179 C173 0.930 . S
Mn180 O185 2.095 1_545 S
Mn180 O195 2.162 . S
Mn180 O196 2.297 1_554 S
Mn180 O204 2.385 1_554 S
Mn180 O205 2.209 1_544 S
Mn180 O206 2.094 . S
Mn181 O186 2.121 . S
Mn181 N188 2.257 1_554 S
Mn181 N197 2.282 1_554 S
Mn181 O205 2.215 1_554 S
Mn181 O207 2.117 . S
C182 O204 1.294 . S
C182 O205 1.222 1_545 S
C183 O195 1.281 1_556 S
C183 O196 1.236 . S
C184 O206 1.240 . S
C184 O207 1.264 1_545 S
O185 Mn180 2.095 1_565 S
O185 C194 1.250 . S
O186 Mn181 2.121 . S
O186 C194 1.258 . S
C187 N188 1.326 . S
C187 C191 1.460 . S
C187 H193 0.929 . S
N188 Mn181 2.257 1_556 S
N188 C187 1.326 . S
N188 C192 1.362 . S
C189 C190 1.258 . S
C189 C192 1.431 . S
C189 C209 1.449 . S
C190 C189 1.258 . S
C190 C191 1.477 . S
C190 H210 0.931 . S
C191 C187 1.460 . S
C191 C190 1.477 . S
C191 H211 0.930 . S
C192 N188 1.362 . S
C192 C189 1.431 . S
C192 C202 1.476 . S
H193 C187 0.929 . S
C194 O185 1.250 . S
C194 O186 1.258 . S
O195 Mn180 2.162 . S
O195 C183 1.281 1_554 S
O196 Mn180 2.297 1_556 S
O196 C183 1.236 . S
N197 Mn181 2.282 1_556 S
N197 C198 1.328 1_556 S
N197 C202 1.318 . S
C198 N197 1.328 1_554 S
C198 C199 1.457 1_554 S
C198 H203 0.929 . S
C199 C198 1.457 1_556 S
C199 C200 1.291 . S
C199 H212 0.931 . S
C200 C199 1.291 . S
C200 C201 1.373 . S
C200 H213 0.929 . S
C201 C200 1.373 . S
C201 C202 1.396 . S
C201 C208 1.403 . S
C202 C192 1.476 . S
C202 N197 1.318 . S
C202 C201 1.396 . S
H203 C198 0.929 . S
O204 Mn180 2.385 1_556 S
O204 C182 1.294 . S
O205 Mn180 2.209 1_566 S
O205 Mn181 2.215 1_556 S
O205 C182 1.222 1_565 S
O206 Mn180 2.094 . S
O206 C184 1.240 . S
O207 Mn181 2.117 . S
O207 C184 1.264 1_565 S
C208 C201 1.403 . S
C208 C209 1.399 . S
C208 H214 0.929 . S
C209 C189 1.449 . S
C209 C208 1.399 . S
C209 H215 0.930 . S
H210 C190 0.931 . S
H211 C191 0.930 . S
H212 C199 0.931 . S
H213 C200 0.929 . S
H214 C208 0.929 . S
H215 C209 0.930 . S
Mn216 O221 2.095 . S
Mn216 O231 2.162 . S
Mn216 O232 2.297 . S
Mn216 O240 2.385 . S
Mn216 O241 2.209 . S
Mn216 O242 2.094 . S
Mn217 O222 2.121 . S
Mn217 N224 2.257 . S
Mn217 N233 2.282 . S
Mn217 O241 2.215 . S
Mn217 O243 2.117 . S
C218 O240 1.234 . S
C218 O241 1.283 . S
C219 O231 1.281 . S
C219 O232 1.236 . S
C220 O242 1.240 . S
C220 O243 1.264 . S
O221 Mn216 2.095 . S
O221 C230 1.250 . S
O222 Mn217 2.121 . S
O222 C230 1.258 . S
C223 N224 1.326 . S
C223 C227 1.460 . S
C223 H229 0.929 . S
N224 Mn217 2.257 . S
N224 C223 1.326 . S
N224 C228 1.362 . S
C225 C226 1.258 . S
C225 C228 1.431 . S
C225 C245 1.449 . S
C226 C225 1.258 . S
C226 C227 1.477 . S
C226 H246 0.931 . S
C227 C223 1.460 . S
C227 C226 1.477 . S
C227 H247 0.930 . S
C228 N224 1.362 . S
C228 C225 1.431 . S
C228 C238 1.476 . S
H229 C223 0.929 . S
C230 O221 1.250 . S
C230 O222 1.258 . S
O231 Mn216 2.162 . S
O231 C219 1.281 . S
O232 Mn216 2.297 . S
O232 C219 1.236 . S
N233 Mn217 2.282 . S
N233 C234 1.328 . S
N233 C238 1.318 . S
C234 N233 1.328 . S
C234 C235 1.457 . S
C234 H239 0.929 . S
C235 C234 1.457 . S
C235 C236 1.291 . S
C235 H248 0.931 . S
C236 C235 1.291 . S
C236 C237 1.373 . S
C236 H249 0.929 . S
C237 C236 1.373 . S
C237 C238 1.396 . S
C237 C244 1.403 . S
C238 C228 1.476 . S
C238 N233 1.318 . S
C238 C237 1.396 . S
H239 C234 0.929 . S
O240 Mn216 2.385 . S
O240 C218 1.234 . S
O241 Mn216 2.209 . S
O241 Mn217 2.215 . S
O241 C218 1.283 . S
O242 Mn216 2.094 . S
O242 C220 1.240 . S
O243 Mn217 2.117 . S
O243 C220 1.264 . S
C244 C237 1.403 . S
C244 C245 1.399 . S
C244 H250 0.929 . S
C245 C225 1.449 . S
C245 C244 1.399 . S
C245 H251 0.930 . S
H246 C226 0.931 . S
H247 C227 0.930 . S
H248 C235 0.931 . S
H249 C236 0.929 . S
H250 C244 0.929 . S
H251 C245 0.930 . S
Mn252 O257 2.095 . S
Mn252 O267 2.162 1_565 S
Mn252 O268 2.297 1_565 S
Mn252 O276 2.385 . S
Mn252 O277 2.209 . S
Mn252 O278 2.094 . S
Mn253 O258 2.121 . S
Mn253 N260 2.257 . S
Mn253 N269 2.282 . S
Mn253 O277 2.215 . S
Mn253 O279 2.117 . S
C254 O276 1.234 . S
C254 O277 1.283 . S
C255 O267 1.281 . S
C255 O268 1.236 . S
C256 O278 1.240 . S
C256 O279 1.264 . S
O257 Mn252 2.095 . S
O257 C266 1.250 . S
O258 Mn253 2.121 . S
O258 C266 1.258 . S
C259 N260 1.326 . S
C259 C263 1.460 . S
C259 H265 0.929 . S
N260 Mn253 2.257 . S
N260 C259 1.326 . S
N260 C264 1.362 . S
C261 C262 1.258 . S
C261 C264 1.431 . S
C261 C281 1.449 . S
C262 C261 1.258 . S
C262 C263 1.477 . S
C262 H282 0.931 . S
C263 C259 1.460 . S
C263 C262 1.477 . S
C263 H283 0.930 . S
C264 N260 1.362 . S
C264 C261 1.431 . S
C264 C274 1.476 . S
H265 C259 0.929 . S
C266 O257 1.250 . S
C266 O258 1.258 . S
O267 Mn252 2.162 1_545 S
O267 C255 1.281 . S
O268 Mn252 2.297 1_545 S
O268 C255 1.236 . S
N269 Mn253 2.282 . S
N269 C270 1.328 . S
N269 C274 1.318 . S
C270 N269 1.328 . S
C270 C271 1.457 . S
C270 H275 0.929 . S
C271 C270 1.457 . S
C271 C272 1.291 . S
C271 H284 0.931 . S
C272 C271 1.291 . S
C272 C273 1.373 . S
C272 H285 0.929 . S
C273 C272 1.373 . S
C273 C274 1.396 . S
C273 C280 1.403 . S
C274 C264 1.476 . S
C274 N269 1.318 . S
C274 C273 1.396 . S
H275 C270 0.929 . S
O276 Mn252 2.385 . S
O276 C254 1.234 . S
O277 Mn252 2.209 . S
O277 Mn253 2.215 . S
O277 C254 1.283 . S
O278 Mn252 2.094 . S
O278 C256 1.240 . S
O279 Mn253 2.117 . S
O279 C256 1.264 . S
C280 C273 1.403 . S
C280 C281 1.399 . S
C280 H286 0.929 . S
C281 C261 1.449 . S
C281 C280 1.399 . S
C281 H287 0.930 . S
H282 C262 0.931 . S
H283 C263 0.930 . S
H284 C271 0.931 . S
H285 C272 0.929 . S
H286 C280 0.929 . S
H287 C281 0.930 . S
Mn288 O293 2.095 . S
Mn288 O303 2.162 1_455 S
Mn288 O304 2.297 1_455 S
Mn288 O312 2.385 . S
Mn288 O313 2.209 . S
Mn288 O314 2.094 . S
Mn289 O294 2.121 . S
Mn289 N296 2.257 . S
Mn289 N305 2.282 . S
Mn289 O313 2.215 . S
Mn289 O315 2.117 . S
C290 O312 1.234 . S
C290 O313 1.283 . S
C291 O303 1.281 . S
C291 O304 1.236 . S
C292 O314 1.240 . S
C292 O315 1.264 . S
O293 Mn288 2.095 . S
O293 C302 1.250 . S
O294 Mn289 2.121 . S
O294 C302 1.258 . S
C295 N296 1.326 . S
C295 C299 1.460 . S
C295 H301 0.929 . S
N296 Mn289 2.257 . S
N296 C295 1.326 . S
N296 C300 1.362 . S
C297 C298 1.258 . S
C297 C300 1.431 . S
C297 C317 1.449 . S
C298 C297 1.258 . S
C298 C299 1.477 . S
C298 H318 0.931 . S
C299 C295 1.460 . S
C299 C298 1.477 . S
C299 H319 0.930 . S
C300 N296 1.362 . S
C300 C297 1.431 . S
C300 C310 1.476 . S
H301 C295 0.929 . S
C302 O293 1.250 . S
C302 O294 1.258 . S
O303 Mn288 2.162 1_655 S
O303 C291 1.281 . S
O304 Mn288 2.297 1_655 S
O304 C291 1.236 . S
N305 Mn289 2.282 . S
N305 C306 1.328 . S
N305 C310 1.318 . S
C306 N305 1.328 . S
C306 C307 1.457 . S
C306 H311 0.929 . S
C307 C306 1.457 . S
C307 C308 1.291 . S
C307 H320 0.931 . S
C308 C307 1.291 . S
C308 C309 1.373 . S
C308 H321 0.929 . S
C309 C308 1.373 . S
C309 C310 1.396 . S
C309 C316 1.403 . S
C310 C300 1.476 . S
C310 N305 1.318 . S
C310 C309 1.396 . S
H311 C306 0.929 . S
O312 Mn288 2.385 . S
O312 C290 1.234 . S
O313 Mn288 2.209 . S
O313 Mn289 2.215 . S
O313 C290 1.283 . S
O314 Mn288 2.094 . S
O314 C292 1.240 . S
O315 Mn289 2.117 . S
O315 C292 1.264 . S
C316 C309 1.403 . S
C316 C317 1.399 . S
C316 H322 0.929 . S
C317 C297 1.449 . S
C317 C316 1.399 . S
C317 H323 0.930 . S
H318 C298 0.931 . S
H319 C299 0.930 . S
H320 C307 0.931 . S
H321 C308 0.929 . S
H322 C316 0.929 . S
H323 C317 0.930 . S
Mn324 O329 2.095 1_565 S
Mn324 O339 2.162 . S
Mn324 O340 2.297 . S
Mn324 O348 2.385 . S
Mn324 O349 2.209 . S
Mn324 O350 2.094 . S
Mn325 O330 2.121 1_565 S
Mn325 N332 2.257 . S
Mn325 N341 2.282 . S
Mn325 O349 2.215 . S
Mn325 O351 2.117 . S
C326 O348 1.234 . S
C326 O349 1.283 . S
C327 O339 1.281 . S
C327 O340 1.236 . S
C328 O350 1.240 . S
C328 O351 1.264 . S
O329 Mn324 2.095 1_545 S
O329 C338 1.250 . S
O330 Mn325 2.121 1_545 S
O330 C338 1.258 . S
C331 N332 1.326 1_545 S
C331 C335 1.460 . S
C331 H337 0.929 . S
N332 Mn325 2.257 . S
N332 C331 1.326 1_565 S
N332 C336 1.362 . S
C333 C334 1.258 . S
C333 C336 1.431 . S
C333 C353 1.449 . S
C334 C333 1.258 . S
C334 C335 1.477 1_565 S
C334 H354 0.930 1_565 S
C335 C331 1.460 . S
C335 C334 1.477 1_545 S
C335 H355 0.930 . S
C336 N332 1.362 . S
C336 C333 1.431 . S
C336 C346 1.476 . S
H337 C331 0.929 . S
C338 O329 1.250 . S
C338 O330 1.258 . S
O339 Mn324 2.162 . S
O339 C327 1.281 . S
O340 Mn324 2.297 . S
O340 C327 1.236 . S
N341 Mn325 2.282 . S
N341 C342 1.328 . S
N341 C346 1.318 . S
C342 N341 1.328 . S
C342 C343 1.457 . S
C342 H347 0.929 . S
C343 C342 1.457 . S
C343 C344 1.291 . S
C343 H356 0.931 . S
C344 C343 1.291 . S
C344 C345 1.373 . S
C344 H357 0.929 . S
C345 C344 1.373 . S
C345 C346 1.396 . S
C345 C352 1.403 . S
C346 C336 1.476 . S
C346 N341 1.318 . S
C346 C345 1.396 . S
H347 C342 0.929 . S
O348 Mn324 2.385 . S
O348 C326 1.234 . S
O349 Mn324 2.209 . S
O349 Mn325 2.215 . S
O349 C326 1.283 . S
O350 Mn324 2.094 . S
O350 C328 1.240 . S
O351 Mn325 2.117 . S
O351 C328 1.264 . S
C352 C345 1.403 . S
C352 C353 1.399 . S
C352 H358 0.929 . S
C353 C333 1.449 . S
C353 C352 1.399 . S
C353 H359 0.930 . S
H354 C334 0.930 1_545 S
H355 C335 0.930 . S
H356 C343 0.931 . S
H357 C344 0.929 . S
H358 C352 0.929 . S
H359 C353 0.930 . S
Mn360 O365 2.095 . S
Mn360 O375 2.162 1_455 S
Mn360 O376 2.297 1_455 S
Mn360 O384 2.385 . S
Mn360 O385 2.209 . S
Mn360 O386 2.094 . S
Mn361 O366 2.121 . S
Mn361 N368 2.257 . S
Mn361 N377 2.282 . S
Mn361 O385 2.215 . S
Mn361 O387 2.117 . S
C362 O384 1.234 . S
C362 O385 1.283 . S
C363 O375 1.281 . S
C363 O376 1.236 . S
C364 O386 1.240 . S
C364 O387 1.264 . S
O365 Mn360 2.095 . S
O365 C374 1.250 . S
O366 Mn361 2.121 . S
O366 C374 1.258 . S
C367 N368 1.326 . S
C367 C371 1.460 . S
C367 H373 0.929 . S
N368 Mn361 2.257 . S
N368 C367 1.326 . S
N368 C372 1.362 . S
C369 C370 1.258 . S
C369 C372 1.431 . S
C369 C389 1.449 . S
C370 C369 1.258 . S
C370 C371 1.477 . S
C370 H390 0.931 . S
C371 C367 1.460 . S
C371 C370 1.477 . S
C371 H391 0.930 . S
C372 N368 1.362 . S
C372 C369 1.431 . S
C372 C382 1.476 . S
H373 C367 0.929 . S
C374 O365 1.250 . S
C374 O366 1.258 . S
O375 Mn360 2.162 1_655 S
O375 C363 1.281 . S
O376 Mn360 2.297 1_655 S
O376 C363 1.236 . S
N377 Mn361 2.282 . S
N377 C378 1.328 . S
N377 C382 1.318 . S
C378 N377 1.328 . S
C378 C379 1.457 . S
C378 H383 0.929 . S
C379 C378 1.457 . S
C379 C380 1.291 . S
C379 H392 0.931 . S
C380 C379 1.291 . S
C380 C381 1.373 . S
C380 H393 0.929 . S
C381 C380 1.373 . S
C381 C382 1.396 . S
C381 C388 1.403 . S
C382 C372 1.476 . S
C382 N377 1.318 . S
C382 C381 1.396 . S
H383 C378 0.929 . S
O384 Mn360 2.385 . S
O384 C362 1.234 . S
O385 Mn360 2.209 . S
O385 Mn361 2.215 . S
O385 C362 1.283 . S
O386 Mn360 2.094 . S
O386 C364 1.240 . S
O387 Mn361 2.117 . S
O387 C364 1.264 . S
C388 C381 1.403 . S
C388 C389 1.399 . S
C388 H394 0.929 . S
C389 C369 1.449 . S
C389 C388 1.399 . S
C389 H395 0.930 . S
H390 C370 0.931 . S
H391 C371 0.930 . S
H392 C379 0.931 . S
H393 C380 0.929 . S
H394 C388 0.929 . S
H395 C389 0.930 . S
Mn396 O401 2.095 . S
Mn396 O411 2.162 . S
Mn396 O412 2.297 . S
Mn396 O420 2.385 . S
Mn396 O421 2.209 . S
Mn396 O422 2.094 . S
Mn397 O402 2.121 . S
Mn397 N404 2.257 . S
Mn397 N413 2.282 . S
Mn397 O421 2.215 . S
Mn397 O423 2.117 . S
C398 O420 1.234 . S
C398 O421 1.283 . S
C399 O411 1.281 . S
C399 O412 1.236 . S
C400 O422 1.240 . S
C400 O423 1.264 . S
O401 Mn396 2.095 . S
O401 C410 1.250 . S
O402 Mn397 2.121 . S
O402 C410 1.258 . S
C403 N404 1.326 . S
C403 C407 1.460 . S
C403 H409 0.929 . S
N404 Mn397 2.257 . S
N404 C403 1.326 . S
N404 C408 1.362 . S
C405 C406 1.258 . S
C405 C408 1.431 . S
C405 C425 1.449 . S
C406 C405 1.258 . S
C406 C407 1.477 . S
C406 H426 0.931 . S
C407 C403 1.460 . S
C407 C406 1.477 . S
C407 H427 0.930 . S
C408 N404 1.362 . S
C408 C405 1.431 . S
C408 C418 1.476 . S
H409 C403 0.929 . S
C410 O401 1.250 . S
C410 O402 1.258 . S
O411 Mn396 2.162 . S
O411 C399 1.281 . S
O412 Mn396 2.297 . S
O412 C399 1.236 . S
N413 Mn397 2.282 . S
N413 C414 1.328 . S
N413 C418 1.318 . S
C414 N413 1.328 . S
C414 C415 1.457 . S
C414 H419 0.929 . S
C415 C414 1.457 . S
C415 C416 1.291 . S
C415 H428 0.931 . S
C416 C415 1.291 . S
C416 C417 1.373 . S
C416 H429 0.929 . S
C417 C416 1.373 . S
C417 C418 1.396 . S
C417 C424 1.403 . S
C418 C408 1.476 . S
C418 N413 1.318 . S
C418 C417 1.396 . S
H419 C414 0.929 . S
O420 Mn396 2.385 . S
O420 C398 1.234 . S
O421 Mn396 2.209 . S
O421 Mn397 2.215 . S
O421 C398 1.283 . S
O422 Mn396 2.094 . S
O422 C400 1.240 . S
O423 Mn397 2.117 . S
O423 C400 1.264 . S
C424 C417 1.403 . S
C424 C425 1.399 . S
C424 H430 0.929 . S
C425 C405 1.449 . S
C425 C424 1.399 . S
C425 H431 0.930 . S
H426 C406 0.931 . S
H427 C407 0.930 . S
H428 C415 0.931 . S
H429 C416 0.929 . S
H430 C424 0.929 . S
H431 C425 0.930 . S
Mn432 O437 2.095 . S
Mn432 O447 2.162 1_545 S
Mn432 O448 2.297 1_545 S
Mn432 O456 2.385 . S
Mn432 O457 2.209 . S
Mn432 O458 2.094 . S
Mn433 O438 2.121 . S
Mn433 N440 2.257 . S
Mn433 N449 2.282 . S
Mn433 O457 2.215 . S
Mn433 O459 2.117 . S
C434 O456 1.234 . S
C434 O457 1.283 . S
C435 O447 1.281 . S
C435 O448 1.236 . S
C436 O458 1.240 . S
C436 O459 1.264 . S
O437 Mn432 2.095 . S
O437 C446 1.250 . S
O438 Mn433 2.121 . S
O438 C446 1.258 . S
C439 N440 1.326 . S
C439 C443 1.460 . S
C439 H445 0.929 . S
N440 Mn433 2.257 . S
N440 C439 1.326 . S
N440 C444 1.362 . S
C441 C442 1.258 . S
C441 C444 1.431 . S
C441 C461 1.449 . S
C442 C441 1.258 . S
C442 C443 1.477 . S
C442 H462 0.931 . S
C443 C439 1.460 . S
C443 C442 1.477 . S
C443 H463 0.930 . S
C444 N440 1.362 . S
C444 C441 1.431 . S
C444 C454 1.476 . S
H445 C439 0.929 . S
C446 O437 1.250 . S
C446 O438 1.258 . S
O447 Mn432 2.162 1_565 S
O447 C435 1.281 . S
O448 Mn432 2.297 1_565 S
O448 C435 1.236 . S
N449 Mn433 2.282 . S
N449 C450 1.328 . S
N449 C454 1.318 . S
C450 N449 1.328 . S
C450 C451 1.457 . S
C450 H455 0.929 . S
C451 C450 1.457 . S
C451 C452 1.291 . S
C451 H464 0.931 . S
C452 C451 1.291 . S
C452 C453 1.373 . S
C452 H465 0.929 . S
C453 C452 1.373 . S
C453 C454 1.396 . S
C453 C460 1.403 . S
C454 C444 1.476 . S
C454 N449 1.318 . S
C454 C453 1.396 . S
H455 C450 0.929 . S
O456 Mn432 2.385 . S
O456 C434 1.234 . S
O457 Mn432 2.209 . S
O457 Mn433 2.215 . S
O457 C434 1.283 . S
O458 Mn432 2.094 . S
O458 C436 1.240 . S
O459 Mn433 2.117 . S
O459 C436 1.264 . S
C460 C453 1.403 . S
C460 C461 1.399 . S
C460 H466 0.929 . S
C461 C441 1.449 . S
C461 C460 1.399 . S
C461 H467 0.930 . S
H462 C442 0.931 . S
H463 C443 0.930 . S
H464 C451 0.931 . S
H465 C452 0.929 . S
H466 C460 0.929 . S
H467 C461 0.930 . S
Mn468 O473 2.152 . S
Mn468 O483 2.162 . S
Mn468 O484 2.297 . S
Mn468 O492 2.385 . S
Mn468 O493 2.209 . S
Mn468 O494 2.094 . S
Mn469 O474 2.121 1_655 S
Mn469 N476 2.257 . S
Mn469 N485 2.282 . S
Mn469 O493 2.215 . S
Mn469 O495 2.117 . S
C470 O492 1.234 . S
C470 O493 1.283 . S
C471 O483 1.281 . S
C471 O484 1.236 . S
C472 O494 1.240 . S
C472 O495 1.264 . S
O473 Mn468 2.152 . S
O473 C482 1.187 1_655 S
O474 Mn469 2.121 1_455 S
O474 C482 1.258 . S
C475 N476 1.326 1_455 S
C475 C479 1.460 . S
C475 H481 0.929 . S
N476 Mn469 2.257 . S
N476 C475 1.326 1_655 S
N476 C480 1.362 . S
C477 C478 1.258 . S
C477 C480 1.431 . S
C477 C497 1.449 . S
C478 C477 1.258 . S
C478 C479 1.477 1_655 S
C478 H498 0.931 1_655 S
C479 C475 1.460 . S
C479 C478 1.477 1_455 S
C479 H499 0.930 . S
C480 N476 1.362 . S
C480 C477 1.431 . S
C480 C490 1.476 . S
H481 C475 0.929 . S
C482 O473 1.187 1_455 S
C482 O474 1.258 . S
O483 Mn468 2.162 . S
O483 C471 1.281 . S
O484 Mn468 2.297 . S
O484 C471 1.236 . S
N485 Mn469 2.282 . S
N485 C486 1.328 . S
N485 C490 1.318 . S
C486 N485 1.328 . S
C486 C487 1.457 . S
C486 H491 0.929 . S
C487 C486 1.457 . S
C487 C488 1.291 . S
C487 H500 0.931 . S
C488 C487 1.291 . S
C488 C489 1.373 . S
C488 H501 0.929 . S
C489 C488 1.373 . S
C489 C490 1.396 . S
C489 C496 1.403 . S
C490 C480 1.476 . S
C490 N485 1.318 . S
C490 C489 1.396 . S
H491 C486 0.929 . S
O492 Mn468 2.385 . S
O492 C470 1.234 . S
O493 Mn468 2.209 . S
O493 Mn469 2.215 . S
O493 C470 1.283 . S
O494 Mn468 2.094 . S
O494 C472 1.240 . S
O495 Mn469 2.117 . S
O495 C472 1.264 . S
C496 C489 1.403 . S
C496 C497 1.399 . S
C496 H502 0.929 . S
C497 C477 1.449 . S
C497 C496 1.399 . S
C497 H503 0.930 . S
H498 C478 0.931 1_455 S
H499 C479 0.930 . S
H500 C487 0.931 . S
H501 C488 0.929 . S
H502 C496 0.929 . S
H503 C497 0.930 . S
Mn504 O509 2.095 . S
Mn504 O519 2.162 . S
Mn504 O520 2.297 . S
Mn504 O528 2.385 . S
Mn504 O529 2.209 . S
Mn504 O530 2.094 . S
Mn505 O510 2.121 . S
Mn505 N512 2.257 . S
Mn505 N521 2.282 . S
Mn505 O529 2.215 . S
Mn505 O531 2.117 . S
C506 O528 1.234 . S
C506 O529 1.283 . S
C507 O519 1.281 . S
C507 O520 1.236 . S
C508 O530 1.240 . S
C508 O531 1.264 . S
O509 Mn504 2.095 . S
O509 C518 1.250 . S
O510 Mn505 2.121 . S
O510 C518 1.258 . S
C511 N512 1.326 . S
C511 C515 1.460 . S
C511 H517 0.929 . S
N512 Mn505 2.257 . S
N512 C511 1.326 . S
N512 C516 1.362 . S
C513 C514 1.258 . S
C513 C516 1.431 . S
C513 C533 1.449 . S
C514 C513 1.258 . S
C514 C515 1.477 . S
C514 H534 0.931 . S
C515 C511 1.460 . S
C515 C514 1.477 . S
C515 H535 0.930 . S
C516 N512 1.362 . S
C516 C513 1.431 . S
C516 C526 1.476 . S
H517 C511 0.929 . S
C518 O509 1.250 . S
C518 O510 1.258 . S
O519 Mn504 2.162 . S
O519 C507 1.281 . S
O520 Mn504 2.297 . S
O520 C507 1.236 . S
N521 Mn505 2.282 . S
N521 C522 1.328 . S
N521 C526 1.318 . S
C522 N521 1.328 . S
C522 C523 1.457 . S
C522 H527 0.929 . S
C523 C522 1.457 . S
C523 C524 1.291 . S
C523 H536 0.931 . S
C524 C523 1.291 . S
C524 C525 1.373 . S
C524 H537 0.929 . S
C525 C524 1.373 . S
C525 C526 1.396 . S
C525 C532 1.403 . S
C526 C516 1.476 . S
C526 N521 1.318 . S
C526 C525 1.396 . S
H527 C522 0.929 . S
O528 Mn504 2.385 . S
O528 C506 1.234 . S
O529 Mn504 2.209 . S
O529 Mn505 2.215 . S
O529 C506 1.283 . S
O530 Mn504 2.094 . S
O530 C508 1.240 . S
O531 Mn505 2.117 . S
O531 C508 1.264 . S
C532 C525 1.403 . S
C532 C533 1.399 . S
C532 H538 0.929 . S
C533 C513 1.449 . S
C533 C532 1.399 . S
C533 H539 0.930 . S
H534 C514 0.931 . S
H535 C515 0.930 . S
H536 C523 0.931 . S
H537 C524 0.929 . S
H538 C532 0.929 . S
H539 C533 0.930 . S
Mn540 O545 2.095 . S
Mn540 O555 2.162 . S
Mn540 O556 2.297 . S
Mn540 O564 2.385 . S
Mn540 O565 2.209 . S
Mn540 O566 2.094 . S
Mn541 O546 2.121 . S
Mn541 N548 2.257 . S
Mn541 N557 2.282 . S
Mn541 O565 2.215 . S
Mn541 O567 2.117 . S
C542 O564 1.234 . S
C542 O565 1.283 . S
C543 O555 1.281 . S
C543 O556 1.236 . S
C544 O566 1.240 . S
C544 O567 1.264 . S
O545 Mn540 2.095 . S
O545 C554 1.250 . S
O546 Mn541 2.121 . S
O546 C554 1.258 . S
C547 N548 1.326 . S
C547 C551 1.460 . S
C547 H553 0.929 . S
N548 Mn541 2.257 . S
N548 C547 1.326 . S
N548 C552 1.362 . S
C549 C550 1.258 . S
C549 C552 1.431 . S
C549 C569 1.449 . S
C550 C549 1.258 . S
C550 C551 1.477 . S
C550 H570 0.931 . S
C551 C547 1.460 . S
C551 C550 1.477 . S
C551 H571 0.930 . S
C552 N548 1.362 . S
C552 C549 1.431 . S
C552 C562 1.476 . S
H553 C547 0.929 . S
C554 O545 1.250 . S
C554 O546 1.258 . S
O555 Mn540 2.162 . S
O555 C543 1.281 . S
O556 Mn540 2.297 . S
O556 C543 1.236 . S
N557 Mn541 2.282 . S
N557 C558 1.328 . S
N557 C562 1.318 . S
C558 N557 1.328 . S
C558 C559 1.457 . S
C558 H563 0.929 . S
C559 C558 1.457 . S
C559 C560 1.291 . S
C559 H572 0.931 . S
C560 C559 1.291 . S
C560 C561 1.373 . S
C560 H573 0.929 . S
C561 C560 1.373 . S
C561 C562 1.396 . S
C561 C568 1.403 . S
C562 C552 1.476 . S
C562 N557 1.318 . S
C562 C561 1.396 . S
H563 C558 0.929 . S
O564 Mn540 2.385 . S
O564 C542 1.234 . S
O565 Mn540 2.209 . S
O565 Mn541 2.215 . S
O565 C542 1.283 . S
O566 Mn540 2.094 . S
O566 C544 1.240 . S
O567 Mn541 2.117 . S
O567 C544 1.264 . S
C568 C561 1.403 . S
C568 C569 1.399 . S
C568 H574 0.929 . S
C569 C549 1.449 . S
C569 C568 1.399 . S
C569 H575 0.930 . S
H570 C550 0.931 . S
H571 C551 0.930 . S
H572 C559 0.931 . S
H573 C560 0.929 . S
H574 C568 0.929 . S
H575 C569 0.930 . S
Mn576 O581 2.095 1_545 S
Mn576 O591 2.162 . S
Mn576 O592 2.297 . S
Mn576 O600 2.385 . S
Mn576 O601 2.209 . S
Mn576 O602 2.094 . S
Mn577 O582 2.121 1_545 S
Mn577 N584 2.257 . S
Mn577 N593 2.282 . S
Mn577 O601 2.215 . S
Mn577 O603 2.117 . S
C578 O600 1.234 . S
C578 O601 1.283 . S
C579 O591 1.281 . S
C579 O592 1.236 . S
C580 O602 1.240 . S
C580 O603 1.264 . S
O581 Mn576 2.095 1_565 S
O581 C590 1.250 . S
O582 Mn577 2.121 1_565 S
O582 C590 1.258 . S
C583 N584 1.326 1_565 S
C583 C587 1.460 . S
C583 H589 0.929 . S
N584 Mn577 2.257 . S
N584 C583 1.326 1_545 S
N584 C588 1.362 . S
C585 C586 1.258 . S
C585 C588 1.431 . S
C585 C605 1.449 . S
C586 C585 1.258 . S
C586 C587 1.477 1_545 S
C586 H606 0.924 1_545 S
C587 C583 1.460 . S
C587 C586 1.477 1_565 S
C587 H607 0.930 . S
C588 N584 1.362 . S
C588 C585 1.431 . S
C588 C598 1.476 . S
H589 C583 0.929 . S
C590 O581 1.250 . S
C590 O582 1.258 . S
O591 Mn576 2.162 . S
O591 C579 1.281 . S
O592 Mn576 2.297 . S
O592 C579 1.236 . S
N593 Mn577 2.282 . S
N593 C594 1.328 . S
N593 C598 1.318 . S
C594 N593 1.328 . S
C594 C595 1.457 . S
C594 H599 0.929 . S
C595 C594 1.457 . S
C595 C596 1.291 . S
C595 H608 0.931 . S
C596 C595 1.291 . S
C596 C597 1.373 . S
C596 H609 0.929 . S
C597 C596 1.373 . S
C597 C598 1.396 . S
C597 C604 1.403 . S
C598 C588 1.476 . S
C598 N593 1.318 . S
C598 C597 1.396 . S
H599 C594 0.929 . S
O600 Mn576 2.385 . S
O600 C578 1.234 . S
O601 Mn576 2.209 . S
O601 Mn577 2.215 . S
O601 C578 1.283 . S
O602 Mn576 2.094 . S
O602 C580 1.240 . S
O603 Mn577 2.117 . S
O603 C580 1.264 . S
C604 C597 1.403 . S
C604 C605 1.399 . S
C604 H610 0.929 . S
C605 C585 1.449 . S
C605 C604 1.399 . S
C605 H611 0.930 . S
H606 C586 0.924 1_565 S
H607 C587 0.930 . S
H608 C595 0.931 . S
H609 C596 0.929 . S
H610 C604 0.929 . S
H611 C605 0.930 . S
Mn612 O617 2.095 . S
Mn612 O627 2.162 1_655 S
Mn612 O628 2.297 1_655 S
Mn612 O636 2.385 . S
Mn612 O637 2.209 . S
Mn612 O638 2.094 . S
Mn613 O618 2.121 . S
Mn613 N620 2.257 . S
Mn613 N629 2.282 . S
Mn613 O637 2.215 . S
Mn613 O639 2.117 . S
C614 O636 1.234 . S
C614 O637 1.283 . S
C615 O627 1.281 . S
C615 O628 1.236 . S
C616 O638 1.240 . S
C616 O639 1.264 . S
O617 Mn612 2.095 . S
O617 C626 1.250 . S
O618 Mn613 2.121 . S
O618 C626 1.258 . S
C619 N620 1.326 . S
C619 C623 1.460 . S
C619 H625 0.929 . S
N620 Mn613 2.257 . S
N620 C619 1.326 . S
N620 C624 1.362 . S
C621 C622 1.258 . S
C621 C624 1.431 . S
C621 C641 1.449 . S
C622 C621 1.258 . S
C622 C623 1.477 . S
C622 H642 0.931 . S
C623 C619 1.460 . S
C623 C622 1.477 . S
C623 H643 0.930 . S
C624 N620 1.362 . S
C624 C621 1.431 . S
C624 C634 1.476 . S
H625 C619 0.929 . S
C626 O617 1.250 . S
C626 O618 1.258 . S
O627 Mn612 2.162 1_455 S
O627 C615 1.281 . S
O628 Mn612 2.297 1_455 S
O628 C615 1.236 . S
N629 Mn613 2.282 . S
N629 C630 1.328 . S
N629 C634 1.318 . S
C630 N629 1.328 . S
C630 C631 1.457 . S
C630 H635 0.929 . S
C631 C630 1.457 . S
C631 C632 1.291 . S
C631 H644 0.931 . S
C632 C631 1.291 . S
C632 C633 1.373 . S
C632 H645 0.929 . S
C633 C632 1.373 . S
C633 C634 1.396 . S
C633 C640 1.403 . S
C634 C624 1.476 . S
C634 N629 1.318 . S
C634 C633 1.396 . S
H635 C630 0.929 . S
O636 Mn612 2.385 . S
O636 C614 1.234 . S
O637 Mn612 2.209 . S
O637 Mn613 2.215 . S
O637 C614 1.283 . S
O638 Mn612 2.094 . S
O638 C616 1.240 . S
O639 Mn613 2.117 . S
O639 C616 1.264 . S
C640 C633 1.403 . S
C640 C641 1.399 . S
C640 H646 0.929 . S
C641 C621 1.449 . S
C641 C640 1.399 . S
C641 H647 0.930 . S
H642 C622 0.931 . S
H643 C623 0.930 . S
H644 C631 0.931 . S
H645 C632 0.929 . S
H646 C640 0.929 . S
H647 C641 0.930 . S
H648 C656 0.930 . S
H649 C659 0.930 . S
H650 C661 0.930 . S
H651 C662 0.970 . S
H652 C662 0.970 . S
H653 C664 0.930 . S
H654 C666 0.930 . S
H655 C668 0.930 . S
C656 H648 0.930 . S
C656 C657 1.382 . S
C656 C658 1.426 . S
C657 C656 1.382 . S
C657 C661 1.389 . S
C658 C656 1.426 . S
C658 C659 1.375 . S
C658 C662 1.532 . S
C659 H649 0.930 . S
C659 C658 1.375 . S
C659 C660 1.416 . S
C660 C659 1.416 . S
C660 C661 1.371 . S
C661 H650 0.930 . S
C661 C657 1.389 . S
C661 C660 1.371 . S
C662 H651 0.970 . S
C662 H652 0.970 . S
C662 C658 1.532 . S
C662 C663 1.499 . S
C663 C662 1.499 . S
C663 C664 1.370 . S
C663 C668 1.415 . S
C664 H653 0.930 . S
C664 C663 1.370 . S
C664 C665 1.407 . S
C665 C664 1.407 . S
C665 C666 1.365 . S
C666 H654 0.930 . S
C666 C665 1.365 . S
C666 C667 1.393 . S
C667 C666 1.393 . S
C667 C668 1.387 . S
C668 H655 0.930 . S
C668 C663 1.415 . S
C668 C667 1.387 . S
H669 C677 0.930 . S
H670 C680 0.930 . S
H671 C682 0.930 . S
H672 C683 0.970 . S
H673 C683 0.970 . S
H674 C685 0.930 . S
H675 C687 0.930 . S
H676 C689 0.930 . S
C677 H669 0.930 . S
C677 C678 1.382 . S
C677 C679 1.426 . S
C678 C677 1.382 . S
C678 C682 1.389 . S
C679 C677 1.426 . S
C679 C680 1.375 . S
C679 C683 1.532 . S
C680 H670 0.930 . S
C680 C679 1.375 . S
C680 C681 1.416 . S
C681 C680 1.416 . S
C681 C682 1.371 . S
C682 H671 0.930 . S
C682 C678 1.389 . S
C682 C681 1.371 . S
C683 H672 0.970 . S
C683 H673 0.970 . S
C683 C679 1.532 . S
C683 C684 1.499 . S
C684 C683 1.499 . S
C684 C685 1.370 . S
C684 C689 1.415 . S
C685 H674 0.930 . S
C685 C684 1.370 . S
C685 C686 1.407 . S
C686 C685 1.407 . S
C686 C687 1.365 . S
C687 H675 0.930 . S
C687 C686 1.365 . S
C687 C688 1.393 . S
C688 C687 1.393 . S
C688 C689 1.387 . S
C689 H676 0.930 . S
C689 C684 1.415 . S
C689 C688 1.387 . S
H690 C698 0.930 . S
H691 C701 0.930 . S
H692 C703 0.930 . S
H693 C704 0.970 . S
H694 C704 0.970 . S
H695 C706 0.930 . S
H696 C708 0.930 . S
H697 C710 0.930 . S
C698 H690 0.930 . S
C698 C699 1.382 . S
C698 C700 1.426 . S
C699 C698 1.382 . S
C699 C703 1.389 . S
C700 C698 1.426 . S
C700 C701 1.375 . S
C700 C704 1.532 . S
C701 H691 0.930 . S
C701 C700 1.375 . S
C701 C702 1.416 . S
C702 C701 1.416 . S
C702 C703 1.371 . S
C703 H692 0.930 . S
C703 C699 1.389 . S
C703 C702 1.371 . S
C704 H693 0.970 . S
C704 H694 0.970 . S
C704 C700 1.532 . S
C704 C705 1.499 . S
C705 C704 1.499 . S
C705 C706 1.370 . S
C705 C710 1.415 . S
C706 H695 0.930 . S
C706 C705 1.370 . S
C706 C707 1.407 . S
C707 C706 1.407 . S
C707 C708 1.365 . S
C708 H696 0.930 . S
C708 C707 1.365 . S
C708 C709 1.393 . S
C709 C708 1.393 . S
C709 C710 1.387 . S
C710 H697 0.930 . S
C710 C705 1.415 . S
C710 C709 1.387 . S
H711 C719 0.930 . S
H712 C722 0.930 . S
H713 C724 0.930 . S
H714 C725 0.970 . S
H715 C725 0.970 . S
H716 C727 0.930 . S
H717 C729 0.930 . S
H718 C731 0.930 . S
C719 H711 0.930 . S
C719 C720 1.382 . S
C719 C721 1.426 . S
C720 C719 1.382 . S
C720 C724 1.389 . S
C721 C719 1.426 . S
C721 C722 1.375 . S
C721 C725 1.532 . S
C722 H712 0.930 . S
C722 C721 1.375 . S
C722 C723 1.416 . S
C723 C722 1.416 . S
C723 C724 1.371 . S
C724 H713 0.930 . S
C724 C720 1.389 . S
C724 C723 1.371 . S
C725 H714 0.970 . S
C725 H715 0.970 . S
C725 C721 1.532 . S
C725 C726 1.499 . S
C726 C725 1.499 . S
C726 C727 1.370 . S
C726 C731 1.415 . S
C727 H716 0.930 . S
C727 C726 1.370 . S
C727 C728 1.407 . S
C728 C727 1.407 . S
C728 C729 1.365 . S
C729 H717 0.930 . S
C729 C728 1.365 . S
C729 C730 1.393 . S
C730 C729 1.393 . S
C730 C731 1.387 . S
C731 H718 0.930 . S
C731 C726 1.415 . S
C731 C730 1.387 . S
H732 C740 0.930 . S
H733 C743 0.930 . S
H734 C745 0.930 . S
H735 C746 0.970 . S
H736 C746 0.970 . S
H737 C748 0.930 . S
H738 C750 0.930 . S
H739 C752 0.930 . S
C740 H732 0.930 . S
C740 C741 1.382 . S
C740 C742 1.426 . S
C741 C740 1.382 . S
C741 C745 1.389 . S
C742 C740 1.426 . S
C742 C743 1.375 . S
C742 C746 1.532 . S
C743 H733 0.930 . S
C743 C742 1.375 . S
C743 C744 1.416 . S
C744 C743 1.416 . S
C744 C745 1.371 . S
C745 H734 0.930 . S
C745 C741 1.389 . S
C745 C744 1.371 . S
C746 H735 0.970 . S
C746 H736 0.970 . S
C746 C742 1.532 . S
C746 C747 1.499 . S
C747 C746 1.499 . S
C747 C748 1.370 . S
C747 C752 1.415 . S
C748 H737 0.930 . S
C748 C747 1.370 . S
C748 C749 1.407 . S
C749 C748 1.407 . S
C749 C750 1.365 . S
C750 H738 0.930 . S
C750 C749 1.365 . S
C750 C751 1.393 . S
C751 C750 1.393 . S
C751 C752 1.387 . S
C752 H739 0.930 . S
C752 C747 1.415 . S
C752 C751 1.387 . S
H753 C761 0.930 . S
H754 C764 0.930 . S
H755 C766 0.930 . S
H756 C767 0.970 . S
H757 C767 0.970 . S
H758 C769 0.930 . S
H759 C771 0.930 . S
H760 C773 0.930 . S
C761 H753 0.930 . S
C761 C762 1.382 . S
C761 C763 1.426 . S
C762 C761 1.382 . S
C762 C766 1.389 . S
C763 C761 1.426 . S
C763 C764 1.375 . S
C763 C767 1.532 . S
C764 H754 0.930 . S
C764 C763 1.375 . S
C764 C765 1.416 . S
C765 C764 1.416 . S
C765 C766 1.371 . S
C766 H755 0.930 . S
C766 C762 1.389 . S
C766 C765 1.371 . S
C767 H756 0.970 . S
C767 H757 0.970 . S
C767 C763 1.532 . S
C767 C768 1.499 . S
C768 C767 1.499 . S
C768 C769 1.370 . S
C768 C773 1.415 . S
C769 H758 0.930 . S
C769 C768 1.370 . S
C769 C770 1.407 . S
C770 C769 1.407 . S
C770 C771 1.365 . S
C771 H759 0.930 . S
C771 C770 1.365 . S
C771 C772 1.393 . S
C772 C771 1.393 . S
C772 C773 1.387 . S
C773 H760 0.930 . S
C773 C768 1.415 . S
C773 C772 1.387 . S
H774 C782 0.930 . S
H775 C785 0.930 . S
H776 C787 0.930 . S
H777 C788 0.970 . S
H778 C788 0.970 . S
H779 C790 0.930 . S
H780 C792 0.930 . S
H781 C794 0.930 . S
C782 H774 0.930 . S
C782 C783 1.382 . S
C782 C784 1.426 . S
C783 C782 1.382 . S
C783 C787 1.389 . S
C784 C782 1.426 . S
C784 C785 1.375 . S
C784 C788 1.532 . S
C785 H775 0.930 . S
C785 C784 1.375 . S
C785 C786 1.416 . S
C786 C785 1.416 . S
C786 C787 1.371 . S
C787 H776 0.930 . S
C787 C783 1.389 . S
C787 C786 1.371 . S
C788 H777 0.970 . S
C788 H778 0.970 . S
C788 C784 1.532 . S
C788 C789 1.499 . S
C789 C788 1.499 . S
C789 C790 1.370 . S
C789 C794 1.415 . S
C790 H779 0.930 . S
C790 C789 1.370 . S
C790 C791 1.407 . S
C791 C790 1.407 . S
C791 C792 1.365 . S
C792 H780 0.930 . S
C792 C791 1.365 . S
C792 C793 1.393 . S
C793 C792 1.393 . S
C793 C794 1.387 . S
C794 H781 0.930 . S
C794 C789 1.415 . S
C794 C793 1.387 . S
H795 C803 0.930 . S
H796 C806 0.930 . S
H797 C808 0.930 . S
H798 C809 0.970 . S
H799 C809 0.970 . S
H800 C811 0.930 . S
H801 C813 0.930 . S
H802 C815 0.930 . S
C803 H795 0.930 . S
C803 C804 1.382 . S
C803 C805 1.426 . S
C804 C803 1.382 . S
C804 C808 1.389 . S
C805 C803 1.426 . S
C805 C806 1.375 . S
C805 C809 1.532 . S
C806 H796 0.930 . S
C806 C805 1.375 . S
C806 C807 1.416 . S
C807 C806 1.416 . S
C807 C808 1.371 . S
C808 H797 0.930 . S
C808 C804 1.389 . S
C808 C807 1.371 . S
C809 H798 0.970 . S
C809 H799 0.970 . S
C809 C805 1.532 . S
C809 C810 1.499 . S
C810 C809 1.499 . S
C810 C811 1.370 . S
C810 C815 1.415 . S
C811 H800 0.930 . S
C811 C810 1.370 . S
C811 C812 1.407 . S
C812 C811 1.407 . S
C812 C813 1.365 . S
C813 H801 0.930 . S
C813 C812 1.365 . S
C813 C814 1.393 . S
C814 C813 1.393 . S
C814 C815 1.387 . S
C815 H802 0.930 . S
C815 C810 1.415 . S
C815 C814 1.387 . S
H816 C824 0.930 . S
H817 C827 0.930 . S
H818 C829 0.930 . S
H819 C830 0.970 . S
H820 C830 0.970 . S
H821 C832 0.930 . S
H822 C834 0.930 . S
H823 C836 0.930 . S
C824 H816 0.930 . S
C824 C825 1.382 . S
C824 C826 1.426 . S
C825 C824 1.382 . S
C825 C829 1.389 . S
C826 C824 1.426 . S
C826 C827 1.375 . S
C826 C830 1.532 . S
C827 H817 0.930 . S
C827 C826 1.375 . S
C827 C828 1.416 . S
C828 C827 1.416 . S
C828 C829 1.371 . S
C829 H818 0.930 . S
C829 C825 1.389 . S
C829 C828 1.371 . S
C830 H819 0.970 . S
C830 H820 0.970 . S
C830 C826 1.532 . S
C830 C831 1.499 . S
C831 C830 1.499 . S
C831 C832 1.370 . S
C831 C836 1.415 . S
C832 H821 0.930 . S
C832 C831 1.370 . S
C832 C833 1.407 . S
C833 C832 1.407 . S
C833 C834 1.365 . S
C834 H822 0.930 . S
C834 C833 1.365 . S
C834 C835 1.393 . S
C835 C834 1.393 . S
C835 C836 1.387 . S
C836 H823 0.930 . S
C836 C831 1.415 . S
C836 C835 1.387 . S
H837 C845 0.930 . S
H838 C848 0.930 . S
H839 C850 0.930 . S
H840 C851 0.970 . S
H841 C851 0.970 . S
H842 C853 0.930 . S
H843 C855 0.930 . S
H844 C857 0.930 . S
C845 H837 0.930 . S
C845 C846 1.382 . S
C845 C847 1.426 . S
C846 C845 1.382 . S
C846 C850 1.389 1_455 S
C847 C845 1.426 . S
C847 C848 1.375 . S
C847 C851 1.532 . S
C848 H838 0.930 . S
C848 C847 1.375 . S
C848 C849 1.416 . S
C849 C848 1.416 . S
C849 C850 1.371 1_455 S
C850 H839 0.930 . S
C850 C846 1.389 1_655 S
C850 C849 1.371 1_655 S
C851 H840 0.970 . S
C851 H841 0.970 . S
C851 C847 1.532 . S
C851 C852 1.499 . S
C852 C851 1.499 . S
C852 C853 1.370 . S
C852 C857 1.415 . S
C853 H842 0.930 . S
C853 C852 1.370 . S
C853 C854 1.411 . S
C854 C853 1.411 . S
C854 C855 1.367 1_455 S
C855 H843 0.930 . S
C855 C854 1.367 1_655 S
C855 C856 1.393 1_655 S
C856 C855 1.393 1_455 S
C856 C857 1.387 . S
C857 H844 0.930 . S
C857 C852 1.415 . S
C857 C856 1.387 . S
H858 C866 0.930 . S
H859 C869 0.930 . S
H860 C871 0.930 . S
H861 C872 0.970 . S
H862 C872 0.970 . S
H863 C874 0.930 . S
H864 C876 0.930 . S
H865 C878 0.930 . S
C866 H858 0.930 . S
C866 C867 1.382 . S
C866 C868 1.426 . S
C867 C866 1.382 . S
C867 C871 1.389 . S
C868 C866 1.426 . S
C868 C869 1.375 . S
C868 C872 1.532 . S
C869 H859 0.930 . S
C869 C868 1.375 . S
C869 C870 1.416 . S
C870 C869 1.416 . S
C870 C871 1.371 . S
C871 H860 0.930 . S
C871 C867 1.389 . S
C871 C870 1.371 . S
C872 H861 0.970 . S
C872 H862 0.970 . S
C872 C868 1.532 . S
C872 C873 1.499 . S
C873 C872 1.499 . S
C873 C874 1.370 . S
C873 C878 1.415 . S
C874 H863 0.930 . S
C874 C873 1.370 . S
C874 C875 1.407 . S
C875 C874 1.407 . S
C875 C876 1.365 . S
C876 H864 0.930 . S
C876 C875 1.365 . S
C876 C877 1.393 . S
C877 C876 1.393 . S
C877 C878 1.387 . S
C878 H865 0.930 . S
C878 C873 1.415 . S
C878 C877 1.387 . S
H879 C887 0.930 . S
H880 C890 0.930 . S
H881 C892 0.930 . S
H882 C893 0.970 . S
H883 C893 0.970 . S
H884 C895 0.930 . S
H885 C897 0.930 . S
H886 C899 0.930 . S
C887 H879 0.930 . S
C887 C888 1.382 . S
C887 C889 1.426 . S
C888 C887 1.382 . S
C888 C892 1.389 1_565 S
C889 C887 1.426 . S
C889 C890 1.375 . S
C889 C893 1.532 . S
C890 H880 0.930 . S
C890 C889 1.375 . S
C890 C891 1.416 . S
C891 C890 1.416 . S
C891 C892 1.371 1_565 S
C892 H881 0.930 . S
C892 C888 1.389 1_545 S
C892 C891 1.371 1_545 S
C893 H882 0.970 . S
C893 H883 0.970 . S
C893 C889 1.532 . S
C893 C894 1.499 . S
C894 C893 1.499 . S
C894 C895 1.370 . S
C894 C899 1.415 . S
C895 H884 0.930 . S
C895 C894 1.370 . S
C895 C896 1.448 . S
C896 C895 1.448 . S
C896 C897 1.349 1_565 S
C897 H885 0.930 . S
C897 C896 1.349 1_545 S
C897 C898 1.393 1_545 S
C898 C897 1.393 1_565 S
C898 C899 1.387 . S
C899 H886 0.930 . S
C899 C894 1.415 . S
C899 C898 1.387 . S
H900 C908 0.930 . S
H901 C911 0.930 . S
H902 C913 0.930 . S
H903 C914 0.970 . S
H904 C914 0.970 . S
H905 C916 0.930 . S
H906 C918 0.930 . S
H907 C920 0.930 . S
C908 H900 0.930 . S
C908 C909 1.382 . S
C908 C910 1.426 . S
C909 C908 1.382 . S
C909 C913 1.389 1_565 S
C910 C908 1.426 . S
C910 C911 1.375 . S
C910 C914 1.532 . S
C911 H901 0.930 . S
C911 C910 1.375 . S
C911 C912 1.416 . S
C912 C911 1.416 . S
C912 C913 1.371 1_565 S
C913 H902 0.930 . S
C913 C909 1.389 1_545 S
C913 C912 1.371 1_545 S
C914 H903 0.970 . S
C914 H904 0.970 . S
C914 C910 1.532 . S
C914 C915 1.499 . S
C915 C914 1.499 . S
C915 C916 1.370 . S
C915 C920 1.415 . S
C916 H905 0.930 . S
C916 C915 1.370 . S
C916 C917 1.407 . S
C917 C916 1.407 . S
C917 C918 1.365 1_565 S
C918 H906 0.930 . S
C918 C917 1.365 1_545 S
C918 C919 1.393 1_545 S
C919 C918 1.393 1_565 S
C919 C920 1.387 . S
C920 H907 0.930 . S
C920 C915 1.415 . S
C920 C919 1.387 . S
H921 C929 0.930 . S
H922 C932 0.930 . S
H923 C934 0.930 . S
H924 C935 0.970 . S
H925 C935 0.970 . S
H926 C937 0.930 . S
H927 C939 0.930 . S
H928 C941 0.930 . S
C929 H921 0.930 . S
C929 C930 1.382 . S
C929 C931 1.426 . S
C930 C929 1.382 . S
C930 C934 1.389 1_455 S
C931 C929 1.426 . S
C931 C932 1.375 . S
C931 C935 1.532 . S
C932 H922 0.930 . S
C932 C931 1.375 . S
C932 C933 1.416 . S
C933 C932 1.416 . S
C933 C934 1.371 1_455 S
C934 H923 0.930 . S
C934 C930 1.389 1_655 S
C934 C933 1.371 1_655 S
C935 H924 0.970 . S
C935 H925 0.970 . S
C935 C931 1.532 . S
C935 C936 1.499 . S
C936 C935 1.499 . S
C936 C937 1.370 . S
C936 C941 1.415 . S
C937 H926 0.930 . S
C937 C936 1.370 . S
C937 C938 1.407 . S
C938 C937 1.407 . S
C938 C939 1.365 1_455 S
C939 H927 0.930 . S
C939 C938 1.365 1_655 S
C939 C940 1.393 1_655 S
C940 C939 1.393 1_455 S
C940 C941 1.387 . S
C941 H928 0.930 . S
C941 C936 1.415 . S
C941 C940 1.387 . S
H942 C950 0.930 . S
H943 C953 0.930 . S
H944 C955 0.930 . S
H945 C956 0.970 . S
H946 C956 0.970 . S
H947 C958 0.930 . S
H948 C960 0.930 . S
H949 C962 0.930 . S
C950 H942 0.930 . S
C950 C951 1.382 . S
C950 C952 1.426 . S
C951 C950 1.382 . S
C951 C955 1.389 . S
C952 C950 1.426 . S
C952 C953 1.375 . S
C952 C956 1.532 . S
C953 H943 0.930 . S
C953 C952 1.375 . S
C953 C954 1.416 . S
C954 C953 1.416 . S
C954 C955 1.371 . S
C955 H944 0.930 . S
C955 C951 1.389 . S
C955 C954 1.371 . S
C956 H945 0.970 . S
C956 H946 0.970 . S
C956 C952 1.532 . S
C956 C957 1.499 . S
C957 C956 1.499 . S
C957 C958 1.370 . S
C957 C962 1.415 . S
C958 H947 0.930 . S
C958 C957 1.370 . S
C958 C959 1.407 . S
C959 C958 1.407 . S
C959 C960 1.365 . S
C960 H948 0.930 . S
C960 C959 1.365 . S
C960 C961 1.393 . S
C961 C960 1.393 . S
C961 C962 1.387 . S
C962 H949 0.930 . S
C962 C957 1.415 . S
C962 C961 1.387 . S
H963 C971 0.930 . S
H964 C974 0.930 . S
H965 C976 0.930 . S
H966 C977 0.970 . S
H967 C977 0.970 . S
H968 C979 0.930 . S
H969 C981 0.930 . S
H970 C983 0.930 . S
C971 H963 0.930 . S
C971 C972 1.382 . S
C971 C973 1.426 . S
C972 C971 1.382 . S
C972 C976 1.389 . S
C973 C971 1.426 . S
C973 C974 1.375 . S
C973 C977 1.532 . S
C974 H964 0.930 . S
C974 C973 1.375 . S
C974 C975 1.416 . S
C975 C974 1.416 . S
C975 C976 1.371 . S
C976 H965 0.930 . S
C976 C972 1.389 . S
C976 C975 1.371 . S
C977 H966 0.970 . S
C977 H967 0.970 . S
C977 C973 1.532 . S
C977 C978 1.499 . S
C978 C977 1.499 . S
C978 C979 1.370 . S
C978 C983 1.415 . S
C979 H968 0.930 . S
C979 C978 1.370 . S
C979 C980 1.407 . S
C980 C979 1.407 . S
C980 C981 1.365 . S
C981 H969 0.930 . S
C981 C980 1.365 . S
C981 C982 1.393 . S
C982 C981 1.393 . S
C982 C983 1.387 . S
C983 H970 0.930 . S
C983 C978 1.415 . S
C983 C982 1.387 . S
H984 C992 0.930 . S
H985 C995 0.930 . S
H986 C997 0.930 . S
H987 C998 0.970 . S
H988 C998 0.970 . S
H989 C1000 0.930 . S
H990 C1002 0.930 . S
H991 C1004 0.930 . S
C992 H984 0.930 . S
C992 C993 1.382 . S
C992 C994 1.426 . S
C993 C992 1.382 . S
C993 C997 1.389 . S
C994 C992 1.426 . S
C994 C995 1.375 . S
C994 C998 1.532 . S
C995 H985 0.930 . S
C995 C994 1.375 . S
C995 C996 1.416 . S
C996 C995 1.416 . S
C996 C997 1.371 . S
C997 H986 0.930 . S
C997 C993 1.389 . S
C997 C996 1.371 . S
C998 H987 0.970 . S
C998 H988 0.970 . S
C998 C994 1.532 . S
C998 C999 1.499 . S
C999 C998 1.499 . S
C999 C1000 1.370 . S
C999 C1004 1.415 . S
C1000 H989 0.930 . S
C1000 C999 1.370 . S
C1000 C1001 1.407 . S
C1001 C1000 1.407 . S
C1001 C1002 1.365 . S
C1002 H990 0.930 . S
C1002 C1001 1.365 . S
C1002 C1003 1.393 . S
C1003 C1002 1.393 . S
C1003 C1004 1.387 . S
C1004 H991 0.930 . S
C1004 C999 1.415 . S
C1004 C1003 1.387 . S
H1005 C1013 0.930 . S
H1006 C1016 0.930 . S
H1007 C1018 0.930 . S
H1008 C1019 0.970 . S
H1009 C1019 0.970 . S
H1010 C1021 0.930 . S
H1011 C1023 0.930 . S
H1012 C1025 0.930 . S
C1013 H1005 0.930 . S
C1013 C1014 1.382 . S
C1013 C1015 1.426 . S
C1014 C1013 1.382 . S
C1014 C1018 1.389 . S
C1015 C1013 1.426 . S
C1015 C1016 1.375 . S
C1015 C1019 1.532 . S
C1016 H1006 0.930 . S
C1016 C1015 1.375 . S
C1016 C1017 1.416 . S
C1017 C1016 1.416 . S
C1017 C1018 1.371 . S
C1018 H1007 0.930 . S
C1018 C1014 1.389 . S
C1018 C1017 1.371 . S
C1019 H1008 0.970 . S
C1019 H1009 0.970 . S
C1019 C1015 1.532 . S
C1019 C1020 1.499 . S
C1020 C1019 1.499 . S
C1020 C1021 1.370 . S
C1020 C1025 1.415 . S
C1021 H1010 0.930 . S
C1021 C1020 1.370 . S
C1021 C1022 1.407 . S
C1022 C1021 1.407 . S
C1022 C1023 1.365 . S
C1023 H1011 0.930 . S
C1023 C1022 1.365 . S
C1023 C1024 1.393 . S
C1024 C1023 1.393 . S
C1024 C1025 1.387 . S
C1025 H1012 0.930 . S
C1025 C1020 1.415 . S
C1025 C1024 1.387 . S
C1026 C1027 1.391 1_455 S
C1026 C1028 1.394 . S
C1026 H1042 0.931 . S
C1027 C1026 1.391 1_655 S
C1027 C1031 1.376 . S
C1028 C1026 1.394 . S
C1028 C1029 1.369 1_455 S
C1028 C1032 1.531 . S
C1029 C1028 1.369 1_655 S
C1029 C1030 1.410 . S
C1029 C1037 1.503 . S
C1030 C1029 1.410 . S
C1030 C1031 1.392 . S
C1030 C1033 1.511 . S
C1031 C1027 1.376 . S
C1031 C1030 1.392 . S
C1031 H1043 0.929 . S
C1032 C1028 1.531 . S
C1032 H1044 0.960 . S
C1032 H1045 0.962 . S
C1032 H1046 0.960 . S
C1033 C1030 1.511 . S
C1033 H1047 0.961 . S
C1033 H1048 0.961 . S
C1033 H1049 0.961 . S
C1034 C1035 1.395 . S
C1034 C1036 1.364 . S
C1034 H1050 0.922 1_655 S
C1035 C1034 1.395 . S
C1035 C1039 1.408 . S
C1036 C1034 1.364 . S
C1036 C1037 1.380 . S
C1036 C1040 1.499 1_655 S
C1037 C1029 1.503 . S
C1037 C1036 1.380 . S
C1037 C1038 1.403 . S
C1038 C1037 1.403 . S
C1038 C1039 1.404 . S
C1038 C1041 1.539 . S
C1039 C1035 1.408 . S
C1039 C1038 1.404 . S
C1039 H1051 0.930 . S
C1040 C1036 1.499 1_455 S
C1040 H1052 0.956 . S
C1040 H1053 0.961 1_455 S
C1040 H1054 0.961 . S
C1041 C1038 1.539 . S
C1041 H1055 0.958 1_655 S
C1041 H1056 0.961 . S
C1041 H1057 0.960 . S
H1042 C1026 0.931 . S
H1043 C1031 0.929 . S
H1044 C1032 0.960 . S
H1045 C1032 0.962 . S
H1046 C1032 0.960 . S
H1047 C1033 0.961 . S
H1048 C1033 0.961 . S
H1049 C1033 0.961 . S
H1050 C1034 0.922 1_455 S
H1051 C1039 0.930 . S
H1052 C1040 0.956 . S
H1053 C1040 0.961 1_655 S
H1054 C1040 0.961 . S
H1055 C1041 0.958 1_455 S
H1056 C1041 0.961 . S
H1057 C1041 0.960 . S
C1058 C1059 1.391 . S
C1058 C1060 1.394 . S
C1058 H1074 0.931 . S
C1059 C1058 1.391 . S
C1059 C1063 1.376 . S
C1060 C1058 1.394 . S
C1060 C1061 1.369 . S
C1060 C1064 1.531 . S
C1061 C1060 1.369 . S
C1061 C1062 1.410 . S
C1061 C1069 1.503 . S
C1062 C1061 1.410 . S
C1062 C1063 1.392 . S
C1062 C1065 1.511 . S
C1063 C1059 1.376 . S
C1063 C1062 1.392 . S
C1063 H1075 0.929 . S
C1064 C1060 1.531 . S
C1064 H1076 0.960 . S
C1064 H1077 0.962 . S
C1064 H1078 0.960 . S
C1065 C1062 1.511 . S
C1065 H1079 0.961 . S
C1065 H1080 0.961 . S
C1065 H1081 0.961 . S
C1066 C1067 1.370 . S
C1066 C1068 1.363 . S
C1066 H1082 0.931 . S
C1067 C1066 1.370 . S
C1067 C1071 1.408 . S
C1068 C1066 1.363 . S
C1068 C1069 1.370 . S
C1068 C1072 1.524 . S
C1069 C1061 1.503 . S
C1069 C1068 1.370 . S
C1069 C1070 1.403 . S
C1070 C1069 1.403 . S
C1070 C1071 1.404 . S
C1070 C1073 1.539 . S
C1071 C1067 1.408 . S
C1071 C1070 1.404 . S
C1071 H1083 0.930 . S
C1072 C1068 1.524 . S
C1072 H1084 0.956 . S
C1072 H1085 0.961 . S
C1072 H1086 0.961 . S
C1073 C1070 1.539 . S
C1073 H1087 0.958 . S
C1073 H1088 0.961 . S
C1073 H1089 0.960 . S
H1074 C1058 0.931 . S
H1075 C1063 0.929 . S
H1076 C1064 0.960 . S
H1077 C1064 0.962 . S
H1078 C1064 0.960 . S
H1079 C1065 0.961 . S
H1080 C1065 0.961 . S
H1081 C1065 0.961 . S
H1082 C1066 0.931 . S
H1083 C1071 0.930 . S
H1084 C1072 0.956 . S
H1085 C1072 0.961 . S
H1086 C1072 0.961 . S
H1087 C1073 0.958 . S
H1088 C1073 0.961 . S
H1089 C1073 0.960 . S
C1090 C1091 1.391 1_565 S
C1090 C1092 1.394 . S
C1090 H1106 0.931 . S
C1091 C1090 1.391 1_545 S
C1091 C1095 1.376 . S
C1092 C1090 1.394 . S
C1092 C1093 1.369 1_565 S
C1092 C1096 1.531 . S
C1093 C1092 1.369 1_545 S
C1093 C1094 1.410 . S
C1093 C1101 1.503 . S
C1094 C1093 1.410 . S
C1094 C1095 1.392 . S
C1094 C1097 1.511 . S
C1095 C1091 1.376 . S
C1095 C1094 1.392 . S
C1095 H1107 0.929 . S
C1096 C1092 1.531 . S
C1096 H1108 0.960 . S
C1096 H1109 0.962 . S
C1096 H1110 0.960 . S
C1097 C1094 1.511 . S
C1097 H1111 0.961 . S
C1097 H1112 0.961 . S
C1097 H1113 0.961 . S
C1098 C1099 1.370 . S
C1098 C1100 1.363 . S
C1098 H1114 0.931 . S
C1099 C1098 1.370 . S
C1099 C1103 1.408 . S
C1100 C1098 1.363 . S
C1100 C1101 1.370 . S
C1100 C1104 1.524 . S
C1101 C1093 1.503 . S
C1101 C1100 1.370 . S
C1101 C1102 1.403 . S
C1102 C1101 1.403 . S
C1102 C1103 1.404 . S
C1102 C1105 1.545 . S
C1103 C1099 1.408 . S
C1103 C1102 1.404 . S
C1103 H1115 0.957 . S
C1104 C1100 1.524 . S
C1104 H1116 0.956 1_545 S
C1104 H1117 0.961 . S
C1104 H1118 0.961 . S
C1105 C1102 1.545 . S
C1105 H1119 0.928 1_545 S
C1105 H1120 0.961 . S
C1105 H1121 0.985 . S
H1106 C1090 0.931 . S
H1107 C1095 0.929 . S
H1108 C1096 0.960 . S
H1109 C1096 0.962 . S
H1110 C1096 0.960 . S
H1111 C1097 0.961 . S
H1112 C1097 0.961 . S
H1113 C1097 0.961 . S
H1114 C1098 0.931 . S
H1115 C1103 0.957 . S
H1116 C1104 0.956 1_565 S
H1117 C1104 0.961 . S
H1118 C1104 0.961 . S
H1119 C1105 0.928 1_565 S
H1120 C1105 0.961 . S
H1121 C1105 0.985 . S
C1122 C1123 1.391 . S
C1122 C1124 1.394 . S
C1122 H1138 0.931 . S
C1123 C1122 1.391 . S
C1123 C1127 1.376 . S
C1124 C1122 1.394 . S
C1124 C1125 1.369 . S
C1124 C1128 1.531 . S
C1125 C1124 1.369 . S
C1125 C1126 1.410 . S
C1125 C1133 1.503 . S
C1126 C1125 1.410 . S
C1126 C1127 1.392 . S
C1126 C1129 1.511 . S
C1127 C1123 1.376 . S
C1127 C1126 1.392 . S
C1127 H1139 0.929 . S
C1128 C1124 1.531 . S
C1128 H1140 0.960 . S
C1128 H1141 0.962 1_565 S
C1128 H1142 0.960 . S
C1129 C1126 1.511 . S
C1129 H1143 0.935 1_565 S
C1129 H1144 0.962 . S
C1129 H1145 0.961 . S
C1130 C1131 1.370 1_545 S
C1130 C1132 1.363 . S
C1130 H1146 0.931 . S
C1131 C1130 1.370 1_565 S
C1131 C1135 1.408 . S
C1132 C1130 1.363 . S
C1132 C1133 1.370 1_545 S
C1132 C1136 1.524 . S
C1133 C1125 1.503 . S
C1133 C1132 1.370 1_565 S
C1133 C1134 1.403 . S
C1134 C1133 1.403 . S
C1134 C1135 1.404 . S
C1134 C1137 1.539 . S
C1135 C1131 1.408 . S
C1135 C1134 1.404 . S
C1135 H1147 0.930 . S
C1136 C1132 1.524 . S
C1136 H1148 0.956 . S
C1136 H1149 0.961 . S
C1136 H1150 0.961 . S
C1137 C1134 1.539 . S
C1137 H1151 0.958 . S
C1137 H1152 0.961 . S
C1137 H1153 0.960 . S
H1138 C1122 0.931 . S
H1139 C1127 0.929 . S
H1140 C1128 0.960 . S
H1141 C1128 0.962 1_545 S
H1142 C1128 0.960 . S
H1143 C1129 0.935 1_545 S
H1144 C1129 0.962 . S
H1145 C1129 0.961 . S
H1146 C1130 0.931 . S
H1147 C1135 0.930 . S
H1148 C1136 0.956 . S
H1149 C1136 0.961 . S
H1150 C1136 0.961 . S
H1151 C1137 0.958 . S
H1152 C1137 0.961 . S
H1153 C1137 0.960 . S
C1154 C1155 1.391 . S
C1154 C1156 1.394 . S
C1154 H1170 0.931 . S
C1155 C1154 1.391 . S
C1155 C1159 1.376 1_455 S
C1156 C1154 1.394 . S
C1156 C1157 1.369 . S
C1156 C1160 1.531 . S
C1157 C1156 1.369 . S
C1157 C1158 1.410 1_455 S
C1157 C1165 1.503 . S
C1158 C1157 1.410 1_655 S
C1158 C1159 1.392 . S
C1158 C1161 1.511 . S
C1159 C1155 1.376 1_655 S
C1159 C1158 1.392 . S
C1159 H1171 0.929 . S
C1160 C1156 1.531 . S
C1160 H1172 0.960 . S
C1160 H1173 0.962 . S
C1160 H1174 0.960 . S
C1161 C1158 1.511 . S
C1161 H1175 0.961 . S
C1161 H1176 0.961 . S
C1161 H1177 0.961 . S
C1162 C1163 1.370 . S
C1162 C1164 1.363 . S
C1162 H1178 0.931 . S
C1163 C1162 1.370 . S
C1163 C1167 1.408 . S
C1164 C1162 1.363 . S
C1164 C1165 1.370 . S
C1164 C1168 1.524 . S
C1165 C1157 1.503 . S
C1165 C1164 1.370 . S
C1165 C1166 1.403 . S
C1166 C1165 1.403 . S
C1166 C1167 1.404 . S
C1166 C1169 1.539 . S
C1167 C1163 1.408 . S
C1167 C1166 1.404 . S
C1167 H1179 0.930 . S
C1168 C1164 1.524 . S
C1168 H1180 0.956 . S
C1168 H1181 0.961 1_455 S
C1168 H1182 0.996 . S
C1169 C1166 1.539 . S
C1169 H1183 0.958 . S
C1169 H1184 0.961 1_455 S
C1169 H1185 0.957 1_455 S
H1170 C1154 0.931 . S
H1171 C1159 0.929 . S
H1172 C1160 0.960 . S
H1173 C1160 0.962 . S
H1174 C1160 0.960 . S
H1175 C1161 0.961 . S
H1176 C1161 0.961 . S
H1177 C1161 0.961 . S
H1178 C1162 0.931 . S
H1179 C1167 0.930 . S
H1180 C1168 0.956 . S
H1181 C1168 0.961 1_655 S
H1182 C1168 0.996 . S
H1183 C1169 0.958 . S
H1184 C1169 0.961 1_655 S
H1185 C1169 0.957 1_655 S
C1186 C1187 1.391 . S
C1186 C1188 1.394 . S
C1186 H1202 0.931 . S
C1187 C1186 1.391 . S
C1187 C1191 1.376 . S
C1188 C1186 1.394 . S
C1188 C1189 1.369 . S
C1188 C1192 1.531 . S
C1189 C1188 1.369 . S
C1189 C1190 1.410 . S
C1189 C1197 1.503 . S
C1190 C1189 1.410 . S
C1190 C1191 1.392 . S
C1190 C1193 1.511 . S
C1191 C1187 1.376 . S
C1191 C1190 1.392 . S
C1191 H1203 0.929 . S
C1192 C1188 1.531 . S
C1192 H1204 0.960 . S
C1192 H1205 0.962 . S
C1192 H1206 0.960 . S
C1193 C1190 1.511 . S
C1193 H1207 0.961 . S
C1193 H1208 0.961 . S
C1193 H1209 0.961 . S
C1194 C1195 1.370 . S
C1194 C1196 1.363 . S
C1194 H1210 0.931 . S
C1195 C1194 1.370 . S
C1195 C1199 1.408 . S
C1196 C1194 1.363 . S
C1196 C1197 1.370 . S
C1196 C1200 1.524 . S
C1197 C1189 1.503 . S
C1197 C1196 1.370 . S
C1197 C1198 1.403 . S
C1198 C1197 1.403 . S
C1198 C1199 1.404 . S
C1198 C1201 1.539 . S
C1199 C1195 1.408 . S
C1199 C1198 1.404 . S
C1199 H1211 0.930 . S
C1200 C1196 1.524 . S
C1200 H1212 0.956 . S
C1200 H1213 0.961 . S
C1200 H1214 0.961 . S
C1201 C1198 1.539 . S
C1201 H1215 0.958 . S
C1201 H1216 0.961 . S
C1201 H1217 0.960 . S
H1202 C1186 0.931 . S
H1203 C1191 0.929 . S
H1204 C1192 0.960 . S
H1205 C1192 0.962 . S
H1206 C1192 0.960 . S
H1207 C1193 0.961 . S
H1208 C1193 0.961 . S
H1209 C1193 0.961 . S
H1210 C1194 0.931 . S
H1211 C1199 0.930 . S
H1212 C1200 0.956 . S
H1213 C1200 0.961 . S
H1214 C1200 0.961 . S
H1215 C1201 0.958 . S
H1216 C1201 0.961 . S
H1217 C1201 0.960 . S
C1218 C1219 1.391 1_655 S
C1218 C1220 1.394 . S
C1218 H1234 0.931 . S
C1219 C1218 1.391 1_455 S
C1219 C1223 1.376 . S
C1220 C1218 1.394 . S
C1220 C1221 1.369 1_655 S
C1220 C1224 1.531 . S
C1221 C1220 1.369 1_455 S
C1221 C1222 1.410 . S
C1221 C1229 1.503 . S
C1222 C1221 1.410 . S
C1222 C1223 1.392 . S
C1222 C1225 1.511 . S
C1223 C1219 1.376 . S
C1223 C1222 1.392 . S
C1223 H1235 0.929 . S
C1224 C1220 1.531 . S
C1224 H1236 0.960 . S
C1224 H1237 0.962 . S
C1224 H1238 0.960 . S
C1225 C1222 1.511 . S
C1225 H1239 0.961 . S
C1225 H1240 0.961 . S
C1225 H1241 0.961 . S
C1226 C1227 1.366 1_655 S
C1226 C1228 1.383 1_655 S
C1226 H1242 0.915 . S
C1227 C1226 1.366 1_455 S
C1227 C1231 1.408 . S
C1228 C1226 1.383 1_455 S
C1228 C1229 1.373 . S
C1228 C1232 1.525 1_455 S
C1229 C1221 1.503 . S
C1229 C1228 1.373 . S
C1229 C1230 1.403 . S
C1230 C1229 1.403 . S
C1230 C1231 1.404 . S
C1230 C1233 1.539 . S
C1231 C1227 1.408 . S
C1231 C1230 1.404 . S
C1231 H1243 0.930 . S
C1232 C1228 1.525 1_655 S
C1232 H1244 0.956 . S
C1232 H1245 0.961 1_655 S
C1232 H1246 0.961 . S
C1233 C1230 1.539 . S
C1233 H1247 0.958 1_455 S
C1233 H1248 0.961 . S
C1233 H1249 0.960 . S
H1234 C1218 0.931 . S
H1235 C1223 0.929 . S
H1236 C1224 0.960 . S
H1237 C1224 0.962 . S
H1238 C1224 0.960 . S
H1239 C1225 0.961 . S
H1240 C1225 0.961 . S
H1241 C1225 0.961 . S
H1242 C1226 0.915 . S
H1243 C1231 0.930 . S
H1244 C1232 0.956 . S
H1245 C1232 0.961 1_455 S
H1246 C1232 0.961 . S
H1247 C1233 0.958 1_655 S
H1248 C1233 0.961 . S
H1249 C1233 0.960 . S
C1250 C1251 1.391 . S
C1250 C1252 1.394 . S
C1250 H1266 0.931 . S
C1251 C1250 1.391 . S
C1251 C1255 1.376 . S
C1252 C1250 1.394 . S
C1252 C1253 1.369 . S
C1252 C1256 1.531 . S
C1253 C1252 1.369 . S
C1253 C1254 1.410 . S
C1253 C1261 1.503 . S
C1254 C1253 1.410 . S
C1254 C1255 1.392 . S
C1254 C1257 1.511 . S
C1255 C1251 1.376 . S
C1255 C1254 1.392 . S
C1255 H1267 0.929 . S
C1256 C1252 1.531 . S
C1256 H1268 0.960 . S
C1256 H1269 0.962 . S
C1256 H1270 0.960 . S
C1257 C1254 1.511 . S
C1257 H1271 0.961 . S
C1257 H1272 0.961 . S
C1257 H1273 0.961 . S
C1258 C1259 1.370 . S
C1258 C1260 1.363 . S
C1258 H1274 0.931 . S
C1259 C1258 1.370 . S
C1259 C1263 1.408 . S
C1260 C1258 1.363 . S
C1260 C1261 1.370 . S
C1260 C1264 1.524 . S
C1261 C1253 1.503 . S
C1261 C1260 1.370 . S
C1261 C1262 1.403 . S
C1262 C1261 1.403 . S
C1262 C1263 1.404 . S
C1262 C1265 1.539 . S
C1263 C1259 1.408 . S
C1263 C1262 1.404 . S
C1263 H1275 0.930 . S
C1264 C1260 1.524 . S
C1264 H1276 0.956 . S
C1264 H1277 0.961 . S
C1264 H1278 0.961 . S
C1265 C1262 1.539 . S
C1265 H1279 0.958 . S
C1265 H1280 0.961 . S
C1265 H1281 0.960 . S
H1266 C1250 0.931 . S
H1267 C1255 0.929 . S
H1268 C1256 0.960 . S
H1269 C1256 0.962 . S
H1270 C1256 0.960 . S
H1271 C1257 0.961 . S
H1272 C1257 0.961 . S
H1273 C1257 0.961 . S
H1274 C1258 0.931 . S
H1275 C1263 0.930 . S
H1276 C1264 0.956 . S
H1277 C1264 0.961 . S
H1278 C1264 0.961 . S
H1279 C1265 0.958 . S
H1280 C1265 0.961 . S
H1281 C1265 0.960 . S
C1282 C1283 1.391 . S
C1282 C1284 1.394 . S
C1282 H1298 0.931 . S
C1283 C1282 1.391 . S
C1283 C1287 1.376 1_565 S
C1284 C1282 1.394 . S
C1284 C1285 1.369 . S
C1284 C1288 1.531 . S
C1285 C1284 1.369 . S
C1285 C1286 1.410 1_565 S
C1285 C1293 1.503 . S
C1286 C1285 1.410 1_545 S
C1286 C1287 1.392 . S
C1286 C1289 1.511 . S
C1287 C1283 1.376 1_545 S
C1287 C1286 1.392 . S
C1287 H1299 0.929 . S
C1288 C1284 1.531 . S
C1288 H1300 0.960 . S
C1288 H1301 0.962 . S
C1288 H1302 0.960 . S
C1289 C1286 1.511 . S
C1289 H1303 0.961 . S
C1289 H1304 0.961 . S
C1289 H1305 0.961 . S
C1290 C1291 1.369 1_545 S
C1290 C1292 1.363 . S
C1290 H1306 0.931 . S
C1291 C1290 1.369 1_565 S
C1291 C1295 1.440 . S
C1292 C1290 1.363 . S
C1292 C1293 1.370 1_545 S
C1292 C1296 1.524 . S
C1293 C1285 1.503 . S
C1293 C1292 1.370 1_565 S
C1293 C1294 1.403 . S
C1294 C1293 1.403 . S
C1294 C1295 1.404 . S
C1294 C1297 1.539 . S
C1295 C1291 1.440 . S
C1295 C1294 1.404 . S
C1295 H1307 0.930 . S
C1296 C1292 1.524 . S
C1296 H1308 0.956 . S
C1296 H1309 0.961 . S
C1296 H1310 0.961 . S
C1297 C1294 1.539 . S
C1297 H1311 0.958 . S
C1297 H1312 0.961 . S
C1297 H1313 0.960 . S
H1298 C1282 0.931 . S
H1299 C1287 0.929 . S
H1300 C1288 0.960 . S
H1301 C1288 0.962 . S
H1302 C1288 0.960 . S
H1303 C1289 0.961 . S
H1304 C1289 0.961 . S
H1305 C1289 0.961 . S
H1306 C1290 0.931 . S
H1307 C1295 0.930 . S
H1308 C1296 0.956 . S
H1309 C1296 0.961 . S
H1310 C1296 0.961 . S
H1311 C1297 0.958 . S
H1312 C1297 0.961 . S
H1313 C1297 0.960 . S
C1314 C1315 1.391 1_565 S
C1314 C1316 1.394 . S
C1314 H1330 0.931 . S
C1315 C1314 1.391 1_545 S
C1315 C1319 1.376 . S
C1316 C1314 1.394 . S
C1316 C1317 1.369 1_565 S
C1316 C1320 1.531 . S
C1317 C1316 1.369 1_545 S
C1317 C1318 1.410 . S
C1317 C1325 1.503 . S
C1318 C1317 1.410 . S
C1318 C1319 1.392 . S
C1318 C1321 1.511 . S
C1319 C1315 1.376 . S
C1319 C1318 1.392 . S
C1319 H1331 0.929 . S
C1320 C1316 1.531 . S
C1320 H1332 0.960 . S
C1320 H1333 0.962 . S
C1320 H1334 0.960 . S
C1321 C1318 1.511 . S
C1321 H1335 0.961 . S
C1321 H1336 0.961 . S
C1321 H1337 0.961 . S
C1322 C1323 1.370 1_565 S
C1322 C1324 1.363 . S
C1322 H1338 0.931 . S
C1323 C1322 1.370 1_545 S
C1323 C1327 1.408 . S
C1324 C1322 1.363 . S
C1324 C1325 1.370 1_565 S
C1324 C1328 1.524 . S
C1325 C1317 1.503 . S
C1325 C1324 1.370 1_545 S
C1325 C1326 1.403 . S
C1326 C1325 1.403 . S
C1326 C1327 1.404 . S
C1326 C1329 1.539 . S
C1327 C1323 1.408 . S
C1327 C1326 1.404 . S
C1327 H1339 0.930 . S
C1328 C1324 1.524 . S
C1328 H1340 0.956 . S
C1328 H1341 0.961 . S
C1328 H1342 0.961 . S
C1329 C1326 1.539 . S
C1329 H1343 0.958 . S
C1329 H1344 0.961 . S
C1329 H1345 0.960 . S
H1330 C1314 0.931 . S
H1331 C1319 0.929 . S
H1332 C1320 0.960 . S
H1333 C1320 0.962 . S
H1334 C1320 0.960 . S
H1335 C1321 0.961 . S
H1336 C1321 0.961 . S
H1337 C1321 0.961 . S
H1338 C1322 0.931 . S
H1339 C1327 0.930 . S
H1340 C1328 0.956 . S
H1341 C1328 0.961 . S
H1342 C1328 0.961 . S
H1343 C1329 0.958 . S
H1344 C1329 0.961 . S
H1345 C1329 0.960 . S
C1346 C1347 1.366 1_455 S
C1346 C1348 1.394 . S
C1346 H1362 0.931 . S
C1347 C1346 1.366 1_655 S
C1347 C1351 1.391 . S
C1348 C1346 1.394 . S
C1348 C1349 1.369 . S
C1348 C1352 1.531 . S
C1349 C1348 1.369 . S
C1349 C1350 1.410 1_455 S
C1349 C1357 1.503 . S
C1350 C1349 1.410 1_655 S
C1350 C1351 1.392 . S
C1350 C1353 1.511 . S
C1351 C1347 1.391 . S
C1351 C1350 1.392 . S
C1351 H1363 0.929 . S
C1352 C1348 1.531 . S
C1352 H1364 0.960 . S
C1352 H1365 0.962 . S
C1352 H1366 0.960 . S
C1353 C1350 1.511 . S
C1353 H1367 0.961 . S
C1353 H1368 0.961 . S
C1353 H1369 0.961 . S
C1354 C1355 1.374 1_655 S
C1354 C1356 1.363 . S
C1354 H1370 0.931 . S
C1355 C1354 1.374 1_455 S
C1355 C1359 1.407 . S
C1356 C1354 1.363 . S
C1356 C1357 1.370 1_655 S
C1356 C1360 1.524 . S
C1357 C1349 1.503 . S
C1357 C1356 1.370 1_455 S
C1357 C1358 1.403 . S
C1358 C1357 1.403 . S
C1358 C1359 1.404 . S
C1358 C1361 1.539 . S
C1359 C1355 1.407 . S
C1359 C1358 1.404 . S
C1359 H1371 0.930 . S
C1360 C1356 1.524 . S
C1360 H1372 0.956 . S
C1360 H1373 0.961 . S
C1360 H1374 0.961 . S
C1361 C1358 1.539 . S
C1361 H1375 0.958 . S
C1361 H1376 0.961 . S
C1361 H1377 0.960 . S
H1362 C1346 0.931 . S
H1363 C1351 0.929 . S
H1364 C1352 0.960 . S
H1365 C1352 0.962 . S
H1366 C1352 0.960 . S
H1367 C1353 0.961 . S
H1368 C1353 0.961 . S
H1369 C1353 0.961 . S
H1370 C1354 0.931 . S
H1371 C1359 0.930 . S
H1372 C1360 0.956 . S
H1373 C1360 0.961 . S
H1374 C1360 0.961 . S
H1375 C1361 0.958 . S
H1376 C1361 0.961 . S
H1377 C1361 0.960 . S
C1378 C1379 1.391 . S
C1378 C1380 1.394 . S
C1378 H1394 0.931 . S
C1379 C1378 1.391 . S
C1379 C1383 1.376 . S
C1380 C1378 1.394 . S
C1380 C1381 1.369 . S
C1380 C1384 1.531 . S
C1381 C1380 1.369 . S
C1381 C1382 1.410 . S
C1381 C1389 1.503 . S
C1382 C1381 1.410 . S
C1382 C1383 1.392 . S
C1382 C1385 1.511 . S
C1383 C1379 1.376 . S
C1383 C1382 1.392 . S
C1383 H1395 0.929 . S
C1384 C1380 1.531 . S
C1384 H1396 0.960 . S
C1384 H1397 0.962 . S
C1384 H1398 0.960 . S
C1385 C1382 1.511 . S
C1385 H1399 0.961 . S
C1385 H1400 0.961 . S
C1385 H1401 0.961 . S
C1386 C1387 1.370 . S
C1386 C1388 1.363 . S
C1386 H1402 0.931 . S
C1387 C1386 1.370 . S
C1387 C1391 1.408 . S
C1388 C1386 1.363 . S
C1388 C1389 1.370 . S
C1388 C1392 1.524 . S
C1389 C1381 1.503 . S
C1389 C1388 1.370 . S
C1389 C1390 1.403 . S
C1390 C1389 1.403 . S
C1390 C1391 1.404 . S
C1390 C1393 1.539 . S
C1391 C1387 1.408 . S
C1391 C1390 1.404 . S
C1391 H1403 0.930 . S
C1392 C1388 1.524 . S
C1392 H1404 0.956 . S
C1392 H1405 0.961 . S
C1392 H1406 0.961 . S
C1393 C1390 1.539 . S
C1393 H1407 0.958 . S
C1393 H1408 0.961 . S
C1393 H1409 0.960 . S
H1394 C1378 0.931 . S
H1395 C1383 0.929 . S
H1396 C1384 0.960 . S
H1397 C1384 0.962 . S
H1398 C1384 0.960 . S
H1399 C1385 0.961 . S
H1400 C1385 0.961 . S
H1401 C1385 0.961 . S
H1402 C1386 0.931 . S
H1403 C1391 0.930 . S
H1404 C1392 0.956 . S
H1405 C1392 0.961 . S
H1406 C1392 0.961 . S
H1407 C1393 0.958 . S
H1408 C1393 0.961 . S
H1409 C1393 0.960 . S
C1410 C1411 1.391 . S
C1410 C1412 1.394 . S
C1410 H1426 0.931 . S
C1411 C1410 1.391 . S
C1411 C1415 1.376 . S
C1412 C1410 1.394 . S
C1412 C1413 1.369 . S
C1412 C1416 1.531 . S
C1413 C1412 1.369 . S
C1413 C1414 1.410 . S
C1413 C1421 1.503 . S
C1414 C1413 1.410 . S
C1414 C1415 1.392 . S
C1414 C1417 1.511 . S
C1415 C1411 1.376 . S
C1415 C1414 1.392 . S
C1415 H1427 0.929 . S
C1416 C1412 1.531 . S
C1416 H1428 0.960 . S
C1416 H1429 0.962 . S
C1416 H1430 0.960 . S
C1417 C1414 1.511 . S
C1417 H1431 0.961 . S
C1417 H1432 0.961 . S
C1417 H1433 0.961 . S
C1418 C1419 1.370 . S
C1418 C1420 1.363 . S
C1418 H1434 0.931 . S
C1419 C1418 1.370 . S
C1419 C1423 1.408 . S
C1420 C1418 1.363 . S
C1420 C1421 1.370 . S
C1420 C1424 1.524 . S
C1421 C1413 1.503 . S
C1421 C1420 1.370 . S
C1421 C1422 1.403 . S
C1422 C1421 1.403 . S
C1422 C1423 1.404 . S
C1422 C1425 1.539 . S
C1423 C1419 1.408 . S
C1423 C1422 1.404 . S
C1423 H1435 0.930 . S
C1424 C1420 1.524 . S
C1424 H1436 0.956 . S
C1424 H1437 0.961 . S
C1424 H1438 0.961 . S
C1425 C1422 1.539 . S
C1425 H1439 0.958 . S
C1425 H1440 0.961 . S
C1425 H1441 0.960 . S
H1426 C1410 0.931 . S
H1427 C1415 0.929 . S
H1428 C1416 0.960 . S
H1429 C1416 0.962 . S
H1430 C1416 0.960 . S
H1431 C1417 0.961 . S
H1432 C1417 0.961 . S
H1433 C1417 0.961 . S
H1434 C1418 0.931 . S
H1435 C1423 0.930 . S
H1436 C1424 0.956 . S
H1437 C1424 0.961 . S
H1438 C1424 0.961 . S
H1439 C1425 0.958 . S
H1440 C1425 0.961 . S
H1441 C1425 0.960 . S
C1442 C1443 1.391 . S
C1442 C1444 1.394 . S
C1442 H1458 0.931 . S
C1443 C1442 1.391 . S
C1443 C1447 1.376 . S
C1444 C1442 1.394 . S
C1444 C1445 1.369 . S
C1444 C1448 1.531 . S
C1445 C1444 1.369 . S
C1445 C1446 1.410 . S
C1445 C1453 1.503 . S
C1446 C1445 1.410 . S
C1446 C1447 1.392 . S
C1446 C1449 1.511 . S
C1447 C1443 1.376 . S
C1447 C1446 1.392 . S
C1447 H1459 0.929 . S
C1448 C1444 1.531 . S
C1448 H1460 0.960 . S
C1448 H1461 0.962 . S
C1448 H1462 0.960 . S
C1449 C1446 1.511 . S
C1449 H1463 0.961 . S
C1449 H1464 0.961 . S
C1449 H1465 0.961 . S
C1450 C1451 1.370 . S
C1450 C1452 1.363 . S
C1450 H1466 0.931 . S
C1451 C1450 1.370 . S
C1451 C1455 1.408 . S
C1452 C1450 1.363 . S
C1452 C1453 1.370 . S
C1452 C1456 1.524 . S
C1453 C1445 1.503 . S
C1453 C1452 1.370 . S
C1453 C1454 1.403 . S
C1454 C1453 1.403 . S
C1454 C1455 1.404 . S
C1454 C1457 1.539 . S
C1455 C1451 1.408 . S
C1455 C1454 1.404 . S
C1455 H1467 0.930 . S
C1456 C1452 1.524 . S
C1456 H1468 0.956 . S
C1456 H1469 0.961 . S
C1456 H1470 0.961 . S
C1457 C1454 1.539 . S
C1457 H1471 0.958 . S
C1457 H1472 0.961 . S
C1457 H1473 0.960 . S
H1458 C1442 0.931 . S
H1459 C1447 0.929 . S
H1460 C1448 0.960 . S
H1461 C1448 0.962 . S
H1462 C1448 0.960 . S
H1463 C1449 0.961 . S
H1464 C1449 0.961 . S
H1465 C1449 0.961 . S
H1466 C1450 0.931 . S
H1467 C1455 0.930 . S
H1468 C1456 0.956 . S
H1469 C1456 0.961 . S
H1470 C1456 0.961 . S
H1471 C1457 0.958 . S
H1472 C1457 0.961 . S
H1473 C1457 0.960 . S
C1474 C1475 1.391 . S
C1474 C1476 1.394 . S
C1474 H1490 0.931 . S
C1475 C1474 1.391 . S
C1475 C1479 1.376 . S
C1476 C1474 1.394 . S
C1476 C1477 1.369 . S
C1476 C1480 1.531 . S
C1477 C1476 1.369 . S
C1477 C1478 1.410 . S
C1477 C1485 1.503 . S
C1478 C1477 1.410 . S
C1478 C1479 1.392 . S
C1478 C1481 1.511 . S
C1479 C1475 1.376 . S
C1479 C1478 1.392 . S
C1479 H1491 0.929 . S
C1480 C1476 1.531 . S
C1480 H1492 0.960 . S
C1480 H1493 0.962 . S
C1480 H1494 0.960 . S
C1481 C1478 1.511 . S
C1481 H1495 0.961 . S
C1481 H1496 0.961 . S
C1481 H1497 0.961 . S
C1482 C1483 1.370 . S
C1482 C1484 1.363 . S
C1482 H1498 0.931 . S
C1483 C1482 1.370 . S
C1483 C1487 1.408 . S
C1484 C1482 1.363 . S
C1484 C1485 1.370 . S
C1484 C1488 1.524 . S
C1485 C1477 1.503 . S
C1485 C1484 1.370 . S
C1485 C1486 1.403 . S
C1486 C1485 1.403 . S
C1486 C1487 1.404 . S
C1486 C1489 1.539 . S
C1487 C1483 1.408 . S
C1487 C1486 1.404 . S
C1487 H1499 0.930 . S
C1488 C1484 1.524 . S
C1488 H1500 0.956 . S
C1488 H1501 0.961 . S
C1488 H1502 0.961 . S
C1489 C1486 1.539 . S
C1489 H1503 0.958 . S
C1489 H1504 0.961 . S
C1489 H1505 0.960 . S
H1490 C1474 0.931 . S
H1491 C1479 0.929 . S
H1492 C1480 0.960 . S
H1493 C1480 0.962 . S
H1494 C1480 0.960 . S
H1495 C1481 0.961 . S
H1496 C1481 0.961 . S
H1497 C1481 0.961 . S
H1498 C1482 0.931 . S
H1499 C1487 0.930 . S
H1500 C1488 0.956 . S
H1501 C1488 0.961 . S
H1502 C1488 0.961 . S
H1503 C1489 0.958 . S
H1504 C1489 0.961 . S
H1505 C1489 0.960 . S
C1506 C1507 1.391 . S
C1506 C1508 1.394 . S
C1506 H1522 0.931 . S
C1507 C1506 1.391 . S
C1507 C1511 1.376 . S
C1508 C1506 1.394 . S
C1508 C1509 1.369 . S
C1508 C1512 1.531 . S
C1509 C1508 1.369 . S
C1509 C1510 1.410 . S
C1509 C1517 1.503 . S
C1510 C1509 1.410 . S
C1510 C1511 1.392 . S
C1510 C1513 1.511 . S
C1511 C1507 1.376 . S
C1511 C1510 1.392 . S
C1511 H1523 0.929 . S
C1512 C1508 1.531 . S
C1512 H1524 0.960 . S
C1512 H1525 0.962 . S
C1512 H1526 0.960 . S
C1513 C1510 1.511 . S
C1513 H1527 0.961 . S
C1513 H1528 0.961 . S
C1513 H1529 0.961 . S
C1514 C1515 1.370 . S
C1514 C1516 1.363 . S
C1514 H1530 0.931 . S
C1515 C1514 1.370 . S
C1515 C1519 1.408 . S
C1516 C1514 1.363 . S
C1516 C1517 1.370 . S
C1516 C1520 1.524 . S
C1517 C1509 1.503 . S
C1517 C1516 1.370 . S
C1517 C1518 1.403 . S
C1518 C1517 1.403 . S
C1518 C1519 1.404 . S
C1518 C1521 1.539 . S
C1519 C1515 1.408 . S
C1519 C1518 1.404 . S
C1519 H1531 0.930 . S
C1520 C1516 1.524 . S
C1520 H1532 0.956 . S
C1520 H1533 0.961 . S
C1520 H1534 0.961 . S
C1521 C1518 1.539 . S
C1521 H1535 0.958 . S
C1521 H1536 0.961 . S
C1521 H1537 0.960 . S
H1522 C1506 0.931 . S
H1523 C1511 0.929 . S
H1524 C1512 0.960 . S
H1525 C1512 0.962 . S
H1526 C1512 0.960 . S
H1527 C1513 0.961 . S
H1528 C1513 0.961 . S
H1529 C1513 0.961 . S
H1530 C1514 0.931 . S
H1531 C1519 0.930 . S
H1532 C1520 0.956 . S
H1533 C1520 0.961 . S
H1534 C1520 0.961 . S
H1535 C1521 0.958 . S
H1536 C1521 0.961 . S
H1537 C1521 0.960 . S
C1538 C1539 1.391 . S
C1538 C1540 1.394 . S
C1538 H1554 0.931 . S
C1539 C1538 1.391 . S
C1539 C1543 1.376 . S
C1540 C1538 1.394 . S
C1540 C1541 1.369 . S
C1540 C1544 1.531 . S
C1541 C1540 1.369 . S
C1541 C1542 1.410 . S
C1541 C1549 1.503 . S
C1542 C1541 1.410 . S
C1542 C1543 1.392 . S
C1542 C1545 1.511 . S
C1543 C1539 1.376 . S
C1543 C1542 1.392 . S
C1543 H1555 0.929 . S
C1544 C1540 1.531 . S
C1544 H1556 0.960 . S
C1544 H1557 0.962 . S
C1544 H1558 0.960 . S
C1545 C1542 1.511 . S
C1545 H1559 0.961 . S
C1545 H1560 0.961 . S
C1545 H1561 0.961 . S
C1546 C1547 1.370 . S
C1546 C1548 1.363 . S
C1546 H1562 0.931 . S
C1547 C1546 1.370 . S
C1547 C1551 1.408 . S
C1548 C1546 1.363 . S
C1548 C1549 1.370 . S
C1548 C1552 1.524 . S
C1549 C1541 1.503 . S
C1549 C1548 1.370 . S
C1549 C1550 1.403 . S
C1550 C1549 1.403 . S
C1550 C1551 1.404 . S
C1550 C1553 1.539 . S
C1551 C1547 1.408 . S
C1551 C1550 1.404 . S
C1551 H1563 0.930 . S
C1552 C1548 1.524 . S
C1552 H1564 0.956 . S
C1552 H1565 0.961 . S
C1552 H1566 0.961 . S
C1553 C1550 1.539 . S
C1553 H1567 0.958 . S
C1553 H1568 0.961 . S
C1553 H1569 0.960 . S
H1554 C1538 0.931 . S
H1555 C1543 0.929 . S
H1556 C1544 0.960 . S
H1557 C1544 0.962 . S
H1558 C1544 0.960 . S
H1559 C1545 0.961 . S
H1560 C1545 0.961 . S
H1561 C1545 0.961 . S
H1562 C1546 0.931 . S
H1563 C1551 0.930 . S
H1564 C1552 0.956 . S
H1565 C1552 0.961 . S
H1566 C1552 0.961 . S
H1567 C1553 0.958 . S
H1568 C1553 0.961 . S
H1569 C1553 0.960 . S
C1570 C1571 1.391 . S
C1570 C1572 1.394 . S
C1570 H1586 0.931 . S
C1571 C1570 1.391 . S
C1571 C1575 1.376 . S
C1572 C1570 1.394 . S
C1572 C1573 1.369 . S
C1572 C1576 1.531 . S
C1573 C1572 1.369 . S
C1573 C1574 1.410 . S
C1573 C1581 1.503 . S
C1574 C1573 1.410 . S
C1574 C1575 1.392 . S
C1574 C1577 1.511 . S
C1575 C1571 1.376 . S
C1575 C1574 1.392 . S
C1575 H1587 0.929 . S
C1576 C1572 1.531 . S
C1576 H1588 0.960 . S
C1576 H1589 0.962 . S
C1576 H1590 0.960 . S
C1577 C1574 1.511 . S
C1577 H1591 0.961 . S
C1577 H1592 0.961 . S
C1577 H1593 0.961 . S
C1578 C1579 1.370 . S
C1578 C1580 1.363 . S
C1578 H1594 0.931 . S
C1579 C1578 1.370 . S
C1579 C1583 1.408 . S
C1580 C1578 1.363 . S
C1580 C1581 1.370 . S
C1580 C1584 1.524 . S
C1581 C1573 1.503 . S
C1581 C1580 1.370 . S
C1581 C1582 1.403 . S
C1582 C1581 1.403 . S
C1582 C1583 1.404 . S
C1582 C1585 1.539 . S
C1583 C1579 1.408 . S
C1583 C1582 1.404 . S
C1583 H1595 0.930 . S
C1584 C1580 1.524 . S
C1584 H1596 0.956 . S
C1584 H1597 0.961 . S
C1584 H1598 0.961 . S
C1585 C1582 1.539 . S
C1585 H1599 0.958 . S
C1585 H1600 0.961 . S
C1585 H1601 0.960 . S
H1586 C1570 0.931 . S
H1587 C1575 0.929 . S
H1588 C1576 0.960 . S
H1589 C1576 0.962 . S
H1590 C1576 0.960 . S
H1591 C1577 0.961 . S
H1592 C1577 0.961 . S
H1593 C1577 0.961 . S
H1594 C1578 0.931 . S
H1595 C1583 0.930 . S
H1596 C1584 0.956 . S
H1597 C1584 0.961 . S
H1598 C1584 0.961 . S
H1599 C1585 0.958 . S
H1600 C1585 0.961 . S
H1601 C1585 0.960 . S
C1602 C1603 1.391 . S
C1602 C1604 1.394 . S
C1602 H1618 0.931 . S
C1603 C1602 1.391 . S
C1603 C1607 1.376 . S
C1604 C1602 1.394 . S
C1604 C1605 1.369 . S
C1604 C1608 1.531 . S
C1605 C1604 1.369 . S
C1605 C1606 1.410 . S
C1605 C1613 1.503 . S
C1606 C1605 1.410 . S
C1606 C1607 1.392 . S
C1606 C1609 1.511 . S
C1607 C1603 1.376 . S
C1607 C1606 1.392 . S
C1607 H1619 0.929 . S
C1608 C1604 1.531 . S
C1608 H1620 0.960 . S
C1608 H1621 0.962 . S
C1608 H1622 0.960 . S
C1609 C1606 1.511 . S
C1609 H1623 0.961 . S
C1609 H1624 0.961 . S
C1609 H1625 0.961 . S
C1610 C1611 1.370 . S
C1610 C1612 1.363 . S
C1610 H1626 0.931 . S
C1611 C1610 1.370 . S
C1611 C1615 1.408 . S
C1612 C1610 1.363 . S
C1612 C1613 1.370 . S
C1612 C1616 1.524 . S
C1613 C1605 1.503 . S
C1613 C1612 1.370 . S
C1613 C1614 1.403 . S
C1614 C1613 1.403 . S
C1614 C1615 1.404 . S
C1614 C1617 1.539 . S
C1615 C1611 1.408 . S
C1615 C1614 1.404 . S
C1615 H1627 0.930 . S
C1616 C1612 1.524 . S
C1616 H1628 0.956 . S
C1616 H1629 0.961 . S
C1616 H1630 0.961 . S
C1617 C1614 1.539 . S
C1617 H1631 0.958 . S
C1617 H1632 0.961 . S
C1617 H1633 0.960 . S
H1618 C1602 0.931 . S
H1619 C1607 0.929 . S
H1620 C1608 0.960 . S
H1621 C1608 0.962 . S
H1622 C1608 0.960 . S
H1623 C1609 0.961 . S
H1624 C1609 0.961 . S
H1625 C1609 0.961 . S
H1626 C1610 0.931 . S
H1627 C1615 0.930 . S
H1628 C1616 0.956 . S
H1629 C1616 0.961 . S
H1630 C1616 0.961 . S
H1631 C1617 0.958 . S
H1632 C1617 0.961 . S
H1633 C1617 0.960 . S
C1634 C1635 1.391 . S
C1634 C1636 1.394 . S
C1634 H1650 0.931 . S
C1635 C1634 1.391 . S
C1635 C1639 1.376 . S
C1636 C1634 1.394 . S
C1636 C1637 1.369 . S
C1636 C1640 1.531 . S
C1637 C1636 1.369 . S
C1637 C1638 1.410 . S
C1637 C1645 1.503 . S
C1638 C1637 1.410 . S
C1638 C1639 1.392 . S
C1638 C1641 1.511 . S
C1639 C1635 1.376 . S
C1639 C1638 1.392 . S
C1639 H1651 0.929 . S
C1640 C1636 1.531 . S
C1640 H1652 0.960 . S
C1640 H1653 0.962 . S
C1640 H1654 0.960 . S
C1641 C1638 1.511 . S
C1641 H1655 0.961 . S
C1641 H1656 0.961 . S
C1641 H1657 0.961 . S
C1642 C1643 1.370 . S
C1642 C1644 1.363 . S
C1642 H1658 0.931 . S
C1643 C1642 1.370 . S
C1643 C1647 1.408 . S
C1644 C1642 1.363 . S
C1644 C1645 1.370 . S
C1644 C1648 1.524 . S
C1645 C1637 1.503 . S
C1645 C1644 1.370 . S
C1645 C1646 1.403 . S
C1646 C1645 1.403 . S
C1646 C1647 1.404 . S
C1646 C1649 1.539 . S
C1647 C1643 1.408 . S
C1647 C1646 1.404 . S
C1647 H1659 0.930 . S
C1648 C1644 1.524 . S
C1648 H1660 0.956 . S
C1648 H1661 0.961 . S
C1648 H1662 0.961 . S
C1649 C1646 1.539 . S
C1649 H1663 0.958 . S
C1649 H1664 0.961 . S
C1649 H1665 0.960 . S
H1650 C1634 0.931 . S
H1651 C1639 0.929 . S
H1652 C1640 0.960 . S
H1653 C1640 0.962 . S
H1654 C1640 0.960 . S
H1655 C1641 0.961 . S
H1656 C1641 0.961 . S
H1657 C1641 0.961 . S
H1658 C1642 0.931 . S
H1659 C1647 0.930 . S
H1660 C1648 0.956 . S
H1661 C1648 0.961 . S
H1662 C1648 0.961 . S
H1663 C1649 0.958 . S
H1664 C1649 0.961 . S
H1665 C1649 0.960 . S
C1666 C1667 1.391 . S
C1666 C1668 1.394 . S
C1666 H1682 0.931 . S
C1667 C1666 1.391 . S
C1667 C1671 1.376 . S
C1668 C1666 1.394 . S
C1668 C1669 1.369 . S
C1668 C1672 1.531 . S
C1669 C1668 1.369 . S
C1669 C1670 1.410 . S
C1669 C1677 1.503 . S
C1670 C1669 1.410 . S
C1670 C1671 1.392 . S
C1670 C1673 1.511 . S
C1671 C1667 1.376 . S
C1671 C1670 1.392 . S
C1671 H1683 0.929 . S
C1672 C1668 1.531 . S
C1672 H1684 0.960 . S
C1672 H1685 0.962 . S
C1672 H1686 0.960 . S
C1673 C1670 1.511 . S
C1673 H1687 0.961 . S
C1673 H1688 0.961 . S
C1673 H1689 0.961 . S
C1674 C1675 1.370 . S
C1674 C1676 1.363 . S
C1674 H1690 0.931 . S
C1675 C1674 1.370 . S
C1675 C1679 1.408 . S
C1676 C1674 1.363 . S
C1676 C1677 1.370 . S
C1676 C1680 1.524 . S
C1677 C1669 1.503 . S
C1677 C1676 1.370 . S
C1677 C1678 1.403 . S
C1678 C1677 1.403 . S
C1678 C1679 1.404 . S
C1678 C1681 1.539 . S
C1679 C1675 1.408 . S
C1679 C1678 1.404 . S
C1679 H1691 0.930 . S
C1680 C1676 1.524 . S
C1680 H1692 0.956 . S
C1680 H1693 0.961 . S
C1680 H1694 0.961 . S
C1681 C1678 1.539 . S
C1681 H1695 0.958 . S
C1681 H1696 0.961 . S
C1681 H1697 0.960 . S
H1682 C1666 0.931 . S
H1683 C1671 0.929 . S
H1684 C1672 0.960 . S
H1685 C1672 0.962 . S
H1686 C1672 0.960 . S
H1687 C1673 0.961 . S
H1688 C1673 0.961 . S
H1689 C1673 0.961 . S
H1690 C1674 0.931 . S
H1691 C1679 0.930 . S
H1692 C1680 0.956 . S
H1693 C1680 0.961 . S
H1694 C1680 0.961 . S
H1695 C1681 0.958 . S
H1696 C1681 0.961 . S
H1697 C1681 0.960 . S
C1698 C1699 1.391 . S
C1698 C1700 1.394 . S
C1698 H1714 0.931 . S
C1699 C1698 1.391 . S
C1699 C1703 1.376 . S
C1700 C1698 1.394 . S
C1700 C1701 1.369 . S
C1700 C1704 1.531 . S
C1701 C1700 1.369 . S
C1701 C1702 1.410 . S
C1701 C1709 1.503 . S
C1702 C1701 1.410 . S
C1702 C1703 1.392 . S
C1702 C1705 1.511 . S
C1703 C1699 1.376 . S
C1703 C1702 1.392 . S
C1703 H1715 0.929 . S
C1704 C1700 1.531 . S
C1704 H1716 0.960 . S
C1704 H1717 0.962 . S
C1704 H1718 0.960 . S
C1705 C1702 1.511 . S
C1705 H1719 0.961 . S
C1705 H1720 0.961 . S
C1705 H1721 0.961 . S
C1706 C1707 1.370 . S
C1706 C1708 1.363 . S
C1706 H1722 0.931 . S
C1707 C1706 1.370 . S
C1707 C1711 1.408 . S
C1708 C1706 1.363 . S
C1708 C1709 1.370 . S
C1708 C1712 1.524 . S
C1709 C1701 1.503 . S
C1709 C1708 1.370 . S
C1709 C1710 1.403 . S
C1710 C1709 1.403 . S
C1710 C1711 1.404 . S
C1710 C1713 1.539 . S
C1711 C1707 1.408 . S
C1711 C1710 1.404 . S
C1711 H1723 0.930 . S
C1712 C1708 1.524 . S
C1712 H1724 0.956 . S
C1712 H1725 0.961 . S
C1712 H1726 0.961 . S
C1713 C1710 1.539 . S
C1713 H1727 0.958 . S
C1713 H1728 0.961 . S
C1713 H1729 0.960 . S
H1714 C1698 0.931 . S
H1715 C1703 0.929 . S
H1716 C1704 0.960 . S
H1717 C1704 0.962 . S
H1718 C1704 0.960 . S
H1719 C1705 0.961 . S
H1720 C1705 0.961 . S
H1721 C1705 0.961 . S
H1722 C1706 0.931 . S
H1723 C1711 0.930 . S
H1724 C1712 0.956 . S
H1725 C1712 0.961 . S
H1726 C1712 0.961 . S
H1727 C1713 0.958 . S
H1728 C1713 0.961 . S
H1729 C1713 0.960 . S
C1730 C1731 1.391 . S
C1730 C1732 1.394 . S
C1730 H1746 0.931 . S
C1731 C1730 1.391 . S
C1731 C1735 1.376 . S
C1732 C1730 1.394 . S
C1732 C1733 1.369 . S
C1732 C1736 1.531 . S
C1733 C1732 1.369 . S
C1733 C1734 1.410 . S
C1733 C1741 1.503 . S
C1734 C1733 1.410 . S
C1734 C1735 1.392 . S
C1734 C1737 1.511 . S
C1735 C1731 1.376 . S
C1735 C1734 1.392 . S
C1735 H1747 0.929 . S
C1736 C1732 1.531 . S
C1736 H1748 0.960 . S
C1736 H1749 0.962 . S
C1736 H1750 0.960 . S
C1737 C1734 1.511 . S
C1737 H1751 0.961 . S
C1737 H1752 0.961 . S
C1737 H1753 0.961 . S
C1738 C1739 1.370 . S
C1738 C1740 1.363 . S
C1738 H1754 0.931 . S
C1739 C1738 1.370 . S
C1739 C1743 1.408 . S
C1740 C1738 1.363 . S
C1740 C1741 1.370 . S
C1740 C1744 1.524 . S
C1741 C1733 1.503 . S
C1741 C1740 1.370 . S
C1741 C1742 1.403 . S
C1742 C1741 1.403 . S
C1742 C1743 1.404 . S
C1742 C1745 1.539 . S
C1743 C1739 1.408 . S
C1743 C1742 1.404 . S
C1743 H1755 0.930 . S
C1744 C1740 1.524 . S
C1744 H1756 0.956 . S
C1744 H1757 0.961 . S
C1744 H1758 0.961 . S
C1745 C1742 1.539 . S
C1745 H1759 0.958 . S
C1745 H1760 0.961 . S
C1745 H1761 0.960 . S
H1746 C1730 0.931 . S
H1747 C1735 0.929 . S
H1748 C1736 0.960 . S
H1749 C1736 0.962 . S
H1750 C1736 0.960 . S
H1751 C1737 0.961 . S
H1752 C1737 0.961 . S
H1753 C1737 0.961 . S
H1754 C1738 0.931 . S
H1755 C1743 0.930 . S
H1756 C1744 0.956 . S
H1757 C1744 0.961 . S
H1758 C1744 0.961 . S
H1759 C1745 0.958 . S
H1760 C1745 0.961 . S
H1761 C1745 0.960 . S
C1762 C1763 1.391 . S
C1762 C1764 1.394 . S
C1762 H1778 0.931 . S
C1763 C1762 1.391 . S
C1763 C1767 1.376 . S
C1764 C1762 1.394 . S
C1764 C1765 1.369 . S
C1764 C1768 1.531 . S
C1765 C1764 1.369 . S
C1765 C1766 1.410 . S
C1765 C1773 1.503 . S
C1766 C1765 1.410 . S
C1766 C1767 1.392 . S
C1766 C1769 1.511 . S
C1767 C1763 1.376 . S
C1767 C1766 1.392 . S
C1767 H1779 0.929 . S
C1768 C1764 1.531 . S
C1768 H1780 0.960 . S
C1768 H1781 0.962 . S
C1768 H1782 0.960 . S
C1769 C1766 1.511 . S
C1769 H1783 0.961 . S
C1769 H1784 0.961 . S
C1769 H1785 0.961 . S
C1770 C1771 1.370 . S
C1770 C1772 1.363 . S
C1770 H1786 0.931 . S
C1771 C1770 1.370 . S
C1771 C1775 1.408 . S
C1772 C1770 1.363 . S
C1772 C1773 1.370 . S
C1772 C1776 1.524 . S
C1773 C1765 1.503 . S
C1773 C1772 1.370 . S
C1773 C1774 1.403 . S
C1774 C1773 1.403 . S
C1774 C1775 1.404 . S
C1774 C1777 1.539 . S
C1775 C1771 1.408 . S
C1775 C1774 1.404 . S
C1775 H1787 0.930 . S
C1776 C1772 1.524 . S
C1776 H1788 0.956 . S
C1776 H1789 0.961 . S
C1776 H1790 0.961 . S
C1777 C1774 1.539 . S
C1777 H1791 0.958 . S
C1777 H1792 0.961 . S
C1777 H1793 0.960 . S
H1778 C1762 0.931 . S
H1779 C1767 0.929 . S
H1780 C1768 0.960 . S
H1781 C1768 0.962 . S
H1782 C1768 0.960 . S
H1783 C1769 0.961 . S
H1784 C1769 0.961 . S
H1785 C1769 0.961 . S
H1786 C1770 0.931 . S
H1787 C1775 0.930 . S
H1788 C1776 0.956 . S
H1789 C1776 0.961 . S
H1790 C1776 0.961 . S
H1791 C1777 0.958 . S
H1792 C1777 0.961 . S
H1793 C1777 0.960 . S
C1794 C1795 1.391 . S
C1794 C1796 1.394 . S
C1794 H1810 0.931 . S
C1795 C1794 1.391 . S
C1795 C1799 1.376 . S
C1796 C1794 1.394 . S
C1796 C1797 1.369 . S
C1796 C1800 1.531 . S
C1797 C1796 1.369 . S
C1797 C1798 1.410 . S
C1797 C1805 1.503 . S
C1798 C1797 1.410 . S
C1798 C1799 1.392 . S
C1798 C1801 1.511 . S
C1799 C1795 1.376 . S
C1799 C1798 1.392 . S
C1799 H1811 0.929 . S
C1800 C1796 1.531 . S
C1800 H1812 0.960 . S
C1800 H1813 0.962 . S
C1800 H1814 0.960 . S
C1801 C1798 1.511 . S
C1801 H1815 0.961 . S
C1801 H1816 0.961 . S
C1801 H1817 0.961 . S
C1802 C1803 1.370 . S
C1802 C1804 1.363 . S
C1802 H1818 0.931 . S
C1803 C1802 1.370 . S
C1803 C1807 1.408 . S
C1804 C1802 1.363 . S
C1804 C1805 1.370 . S
C1804 C1808 1.524 . S
C1805 C1797 1.503 . S
C1805 C1804 1.370 . S
C1805 C1806 1.403 . S
C1806 C1805 1.403 . S
C1806 C1807 1.404 . S
C1806 C1809 1.539 . S
C1807 C1803 1.408 . S
C1807 C1806 1.404 . S
C1807 H1819 0.930 . S
C1808 C1804 1.524 . S
C1808 H1820 0.956 . S
C1808 H1821 0.961 . S
C1808 H1822 0.961 . S
C1809 C1806 1.539 . S
C1809 H1823 0.958 . S
C1809 H1824 0.961 . S
C1809 H1825 0.960 . S
H1810 C1794 0.931 . S
H1811 C1799 0.929 . S
H1812 C1800 0.960 . S
H1813 C1800 0.962 . S
H1814 C1800 0.960 . S
H1815 C1801 0.961 . S
H1816 C1801 0.961 . S
H1817 C1801 0.961 . S
H1818 C1802 0.931 . S
H1819 C1807 0.930 . S
H1820 C1808 0.956 . S
H1821 C1808 0.961 . S
H1822 C1808 0.961 . S
H1823 C1809 0.958 . S
H1824 C1809 0.961 . S
H1825 C1809 0.960 . S
C1826 C1827 1.391 . S
C1826 C1828 1.394 . S
C1826 H1842 0.931 . S
C1827 C1826 1.391 . S
C1827 C1831 1.376 . S
C1828 C1826 1.394 . S
C1828 C1829 1.369 . S
C1828 C1832 1.531 . S
C1829 C1828 1.369 . S
C1829 C1830 1.410 . S
C1829 C1837 1.503 . S
C1830 C1829 1.410 . S
C1830 C1831 1.392 . S
C1830 C1833 1.511 . S
C1831 C1827 1.376 . S
C1831 C1830 1.392 . S
C1831 H1843 0.929 . S
C1832 C1828 1.531 . S
C1832 H1844 0.960 . S
C1832 H1845 0.962 . S
C1832 H1846 0.960 . S
C1833 C1830 1.511 . S
C1833 H1847 0.961 . S
C1833 H1848 0.961 . S
C1833 H1849 0.961 . S
C1834 C1835 1.370 . S
C1834 C1836 1.363 . S
C1834 H1850 0.931 . S
C1835 C1834 1.370 . S
C1835 C1839 1.408 . S
C1836 C1834 1.363 . S
C1836 C1837 1.370 . S
C1836 C1840 1.524 . S
C1837 C1829 1.503 . S
C1837 C1836 1.370 . S
C1837 C1838 1.403 . S
C1838 C1837 1.403 . S
C1838 C1839 1.404 . S
C1838 C1841 1.539 . S
C1839 C1835 1.408 . S
C1839 C1838 1.404 . S
C1839 H1851 0.930 . S
C1840 C1836 1.524 . S
C1840 H1852 0.956 . S
C1840 H1853 0.961 . S
C1840 H1854 0.961 . S
C1841 C1838 1.539 . S
C1841 H1855 0.958 . S
C1841 H1856 0.961 . S
C1841 H1857 0.960 . S
H1842 C1826 0.931 . S
H1843 C1831 0.929 . S
H1844 C1832 0.960 . S
H1845 C1832 0.962 . S
H1846 C1832 0.960 . S
H1847 C1833 0.961 . S
H1848 C1833 0.961 . S
H1849 C1833 0.961 . S
H1850 C1834 0.931 . S
H1851 C1839 0.930 . S
H1852 C1840 0.956 . S
H1853 C1840 0.961 . S
H1854 C1840 0.961 . S
H1855 C1841 0.958 . S
H1856 C1841 0.961 . S
H1857 C1841 0.960 . S
C1858 C1859 1.391 . S
C1858 C1860 1.394 . S
C1858 H1874 0.931 . S
C1859 C1858 1.391 . S
C1859 C1863 1.376 . S
C1860 C1858 1.394 . S
C1860 C1861 1.369 . S
C1860 C1864 1.531 . S
C1861 C1860 1.369 . S
C1861 C1862 1.410 . S
C1861 C1869 1.503 . S
C1862 C1861 1.410 . S
C1862 C1863 1.392 . S
C1862 C1865 1.511 . S
C1863 C1859 1.376 . S
C1863 C1862 1.392 . S
C1863 H1875 0.929 . S
C1864 C1860 1.531 . S
C1864 H1876 0.960 . S
C1864 H1877 0.962 . S
C1864 H1878 0.960 . S
C1865 C1862 1.511 . S
C1865 H1879 0.961 . S
C1865 H1880 0.961 . S
C1865 H1881 0.961 . S
C1866 C1867 1.370 . S
C1866 C1868 1.363 . S
C1866 H1882 0.931 . S
C1867 C1866 1.370 . S
C1867 C1871 1.408 . S
C1868 C1866 1.363 . S
C1868 C1869 1.370 . S
C1868 C1872 1.524 . S
C1869 C1861 1.503 . S
C1869 C1868 1.370 . S
C1869 C1870 1.403 . S
C1870 C1869 1.403 . S
C1870 C1871 1.404 . S
C1870 C1873 1.539 . S
C1871 C1867 1.408 . S
C1871 C1870 1.404 . S
C1871 H1883 0.930 . S
C1872 C1868 1.524 . S
C1872 H1884 0.956 . S
C1872 H1885 0.961 . S
C1872 H1886 0.961 . S
C1873 C1870 1.539 . S
C1873 H1887 0.958 . S
C1873 H1888 0.961 . S
C1873 H1889 0.960 . S
H1874 C1858 0.931 . S
H1875 C1863 0.929 . S
H1876 C1864 0.960 . S
H1877 C1864 0.962 . S
H1878 C1864 0.960 . S
H1879 C1865 0.961 . S
H1880 C1865 0.961 . S
H1881 C1865 0.961 . S
H1882 C1866 0.931 . S
H1883 C1871 0.930 . S
H1884 C1872 0.956 . S
H1885 C1872 0.961 . S
H1886 C1872 0.961 . S
H1887 C1873 0.958 . S
H1888 C1873 0.961 . S
H1889 C1873 0.960 . S
C1890 C1891 1.391 . S
C1890 C1892 1.394 . S
C1890 H1906 0.931 . S
C1891 C1890 1.391 . S
C1891 C1895 1.376 . S
C1892 C1890 1.394 . S
C1892 C1893 1.369 . S
C1892 C1896 1.531 . S
C1893 C1892 1.369 . S
C1893 C1894 1.410 . S
C1893 C1901 1.503 . S
C1894 C1893 1.410 . S
C1894 C1895 1.392 . S
C1894 C1897 1.511 . S
C1895 C1891 1.376 . S
C1895 C1894 1.392 . S
C1895 H1907 0.929 . S
C1896 C1892 1.531 . S
C1896 H1908 0.960 . S
C1896 H1909 0.962 . S
C1896 H1910 0.960 . S
C1897 C1894 1.511 . S
C1897 H1911 0.961 . S
C1897 H1912 0.961 . S
C1897 H1913 0.961 . S
C1898 C1899 1.370 . S
C1898 C1900 1.363 . S
C1898 H1914 0.931 . S
C1899 C1898 1.370 . S
C1899 C1903 1.408 . S
C1900 C1898 1.363 . S
C1900 C1901 1.370 . S
C1900 C1904 1.524 . S
C1901 C1893 1.503 . S
C1901 C1900 1.370 . S
C1901 C1902 1.403 . S
C1902 C1901 1.403 . S
C1902 C1903 1.404 . S
C1902 C1905 1.539 . S
C1903 C1899 1.408 . S
C1903 C1902 1.404 . S
C1903 H1915 0.930 . S
C1904 C1900 1.524 . S
C1904 H1916 0.956 . S
C1904 H1917 0.961 . S
C1904 H1918 0.961 . S
C1905 C1902 1.539 . S
C1905 H1919 0.958 . S
C1905 H1920 0.961 . S
C1905 H1921 0.960 . S
H1906 C1890 0.931 . S
H1907 C1895 0.929 . S
H1908 C1896 0.960 . S
H1909 C1896 0.962 . S
H1910 C1896 0.960 . S
H1911 C1897 0.961 . S
H1912 C1897 0.961 . S
H1913 C1897 0.961 . S
H1914 C1898 0.931 . S
H1915 C1903 0.930 . S
H1916 C1904 0.956 . S
H1917 C1904 0.961 . S
H1918 C1904 0.961 . S
H1919 C1905 0.958 . S
H1920 C1905 0.961 . S
H1921 C1905 0.960 . S
C1922 C1923 1.391 . S
C1922 C1924 1.394 . S
C1922 H1938 0.931 . S
C1923 C1922 1.391 . S
C1923 C1927 1.376 . S
C1924 C1922 1.394 . S
C1924 C1925 1.369 . S
C1924 C1928 1.531 . S
C1925 C1924 1.369 . S
C1925 C1926 1.410 . S
C1925 C1933 1.503 . S
C1926 C1925 1.410 . S
C1926 C1927 1.392 . S
C1926 C1929 1.511 . S
C1927 C1923 1.376 . S
C1927 C1926 1.392 . S
C1927 H1939 0.929 . S
C1928 C1924 1.531 . S
C1928 H1940 0.960 . S
C1928 H1941 0.962 . S
C1928 H1942 0.960 . S
C1929 C1926 1.511 . S
C1929 H1943 0.961 . S
C1929 H1944 0.961 . S
C1929 H1945 0.961 . S
C1930 C1931 1.370 . S
C1930 C1932 1.363 . S
C1930 H1946 0.931 . S
C1931 C1930 1.370 . S
C1931 C1935 1.408 . S
C1932 C1930 1.363 . S
C1932 C1933 1.370 . S
C1932 C1936 1.524 . S
C1933 C1925 1.503 . S
C1933 C1932 1.370 . S
C1933 C1934 1.403 . S
C1934 C1933 1.403 . S
C1934 C1935 1.404 . S
C1934 C1937 1.539 . S
C1935 C1931 1.408 . S
C1935 C1934 1.404 . S
C1935 H1947 0.930 . S
C1936 C1932 1.524 . S
C1936 H1948 0.956 . S
C1936 H1949 0.961 . S
C1936 H1950 0.961 . S
C1937 C1934 1.539 . S
C1937 H1951 0.958 . S
C1937 H1952 0.961 . S
C1937 H1953 0.960 . S
H1938 C1922 0.931 . S
H1939 C1927 0.929 . S
H1940 C1928 0.960 . S
H1941 C1928 0.962 . S
H1942 C1928 0.960 . S
H1943 C1929 0.961 . S
H1944 C1929 0.961 . S
H1945 C1929 0.961 . S
H1946 C1930 0.931 . S
H1947 C1935 0.930 . S
H1948 C1936 0.956 . S
H1949 C1936 0.961 . S
H1950 C1936 0.961 . S
H1951 C1937 0.958 . S
H1952 C1937 0.961 . S
H1953 C1937 0.960 . S
C1954 C1955 1.391 . S
C1954 C1956 1.394 . S
C1954 H1970 0.931 . S
C1955 C1954 1.391 . S
C1955 C1959 1.376 . S
C1956 C1954 1.394 . S
C1956 C1957 1.369 . S
C1956 C1960 1.531 . S
C1957 C1956 1.369 . S
C1957 C1958 1.410 . S
C1957 C1965 1.503 . S
C1958 C1957 1.410 . S
C1958 C1959 1.392 . S
C1958 C1961 1.511 . S
C1959 C1955 1.376 . S
C1959 C1958 1.392 . S
C1959 H1971 0.929 . S
C1960 C1956 1.531 . S
C1960 H1972 0.960 . S
C1960 H1973 0.962 . S
C1960 H1974 0.960 . S
C1961 C1958 1.511 . S
C1961 H1975 0.961 . S
C1961 H1976 0.961 . S
C1961 H1977 0.961 . S
C1962 C1963 1.370 . S
C1962 C1964 1.363 . S
C1962 H1978 0.931 . S
C1963 C1962 1.370 . S
C1963 C1967 1.408 . S
C1964 C1962 1.363 . S
C1964 C1965 1.370 . S
C1964 C1968 1.524 . S
C1965 C1957 1.503 . S
C1965 C1964 1.370 . S
C1965 C1966 1.403 . S
C1966 C1965 1.403 . S
C1966 C1967 1.404 . S
C1966 C1969 1.539 . S
C1967 C1963 1.408 . S
C1967 C1966 1.404 . S
C1967 H1979 0.930 . S
C1968 C1964 1.524 . S
C1968 H1980 0.956 . S
C1968 H1981 0.961 . S
C1968 H1982 0.961 . S
C1969 C1966 1.539 . S
C1969 H1983 0.958 . S
C1969 H1984 0.961 . S
C1969 H1985 0.960 . S
H1970 C1954 0.931 . S
H1971 C1959 0.929 . S
H1972 C1960 0.960 . S
H1973 C1960 0.962 . S
H1974 C1960 0.960 . S
H1975 C1961 0.961 . S
H1976 C1961 0.961 . S
H1977 C1961 0.961 . S
H1978 C1962 0.931 . S
H1979 C1967 0.930 . S
H1980 C1968 0.956 . S
H1981 C1968 0.961 . S
H1982 C1968 0.961 . S
H1983 C1969 0.958 . S
H1984 C1969 0.961 . S
H1985 C1969 0.960 . S
C1986 C1987 1.391 . S
C1986 C1988 1.394 . S
C1986 H2002 0.931 . S
C1987 C1986 1.391 . S
C1987 C1991 1.376 . S
C1988 C1986 1.394 . S
C1988 C1989 1.369 . S
C1988 C1992 1.531 . S
C1989 C1988 1.369 . S
C1989 C1990 1.410 . S
C1989 C1997 1.503 . S
C1990 C1989 1.410 . S
C1990 C1991 1.392 . S
C1990 C1993 1.511 . S
C1991 C1987 1.376 . S
C1991 C1990 1.392 . S
C1991 H2003 0.929 . S
C1992 C1988 1.531 . S
C1992 H2004 0.960 . S
C1992 H2005 0.962 . S
C1992 H2006 0.960 . S
C1993 C1990 1.511 . S
C1993 H2007 0.961 . S
C1993 H2008 0.961 . S
C1993 H2009 0.961 . S
C1994 C1995 1.370 . S
C1994 C1996 1.363 . S
C1994 H2010 0.931 . S
C1995 C1994 1.370 . S
C1995 C1999 1.408 . S
C1996 C1994 1.363 . S
C1996 C1997 1.370 . S
C1996 C2000 1.524 . S
C1997 C1989 1.503 . S
C1997 C1996 1.370 . S
C1997 C1998 1.403 . S
C1998 C1997 1.403 . S
C1998 C1999 1.404 . S
C1998 C2001 1.539 . S
C1999 C1995 1.408 . S
C1999 C1998 1.404 . S
C1999 H2011 0.930 . S
C2000 C1996 1.524 . S
C2000 H2012 0.956 . S
C2000 H2013 0.961 . S
C2000 H2014 0.961 . S
C2001 C1998 1.539 . S
C2001 H2015 0.958 . S
C2001 H2016 0.961 . S
C2001 H2017 0.960 . S
H2002 C1986 0.931 . S
H2003 C1991 0.929 . S
H2004 C1992 0.960 . S
H2005 C1992 0.962 . S
H2006 C1992 0.960 . S
H2007 C1993 0.961 . S
H2008 C1993 0.961 . S
H2009 C1993 0.961 . S
H2010 C1994 0.931 . S
H2011 C1999 0.930 . S
H2012 C2000 0.956 . S
H2013 C2000 0.961 . S
H2014 C2000 0.961 . S
H2015 C2001 0.958 . S
H2016 C2001 0.961 . S
H2017 C2001 0.960 . S
C2018 C2019 1.391 . S
C2018 C2020 1.394 . S
C2018 H2034 0.931 . S
C2019 C2018 1.391 . S
C2019 C2023 1.376 . S
C2020 C2018 1.394 . S
C2020 C2021 1.369 . S
C2020 C2024 1.531 . S
C2021 C2020 1.369 . S
C2021 C2022 1.410 . S
C2021 C2029 1.503 . S
C2022 C2021 1.410 . S
C2022 C2023 1.392 . S
C2022 C2025 1.511 . S
C2023 C2019 1.376 . S
C2023 C2022 1.392 . S
C2023 H2035 0.929 . S
C2024 C2020 1.531 . S
C2024 H2036 0.960 . S
C2024 H2037 0.962 . S
C2024 H2038 0.960 . S
C2025 C2022 1.511 . S
C2025 H2039 0.961 . S
C2025 H2040 0.961 . S
C2025 H2041 0.961 . S
C2026 C2027 1.370 . S
C2026 C2028 1.363 . S
C2026 H2042 0.931 . S
C2027 C2026 1.370 . S
C2027 C2031 1.408 . S
C2028 C2026 1.363 . S
C2028 C2029 1.370 . S
C2028 C2032 1.524 . S
C2029 C2021 1.503 . S
C2029 C2028 1.370 . S
C2029 C2030 1.403 . S
C2030 C2029 1.403 . S
C2030 C2031 1.404 . S
C2030 C2033 1.539 . S
C2031 C2027 1.408 . S
C2031 C2030 1.404 . S
C2031 H2043 0.930 . S
C2032 C2028 1.524 . S
C2032 H2044 0.956 . S
C2032 H2045 0.961 . S
C2032 H2046 0.961 . S
C2033 C2030 1.539 . S
C2033 H2047 0.958 . S
C2033 H2048 0.961 . S
C2033 H2049 0.960 . S
H2034 C2018 0.931 . S
H2035 C2023 0.929 . S
H2036 C2024 0.960 . S
H2037 C2024 0.962 . S
H2038 C2024 0.960 . S
H2039 C2025 0.961 . S
H2040 C2025 0.961 . S
H2041 C2025 0.961 . S
H2042 C2026 0.931 . S
H2043 C2031 0.930 . S
H2044 C2032 0.956 . S
H2045 C2032 0.961 . S
H2046 C2032 0.961 . S
H2047 C2033 0.958 . S
H2048 C2033 0.961 . S
H2049 C2033 0.960 . S
C2050 C2051 1.391 . S
C2050 C2052 1.394 . S
C2050 H2066 0.931 . S
C2051 C2050 1.391 . S
C2051 C2055 1.376 . S
C2052 C2050 1.394 . S
C2052 C2053 1.369 . S
C2052 C2056 1.531 . S
C2053 C2052 1.369 . S
C2053 C2054 1.410 . S
C2053 C2061 1.503 . S
C2054 C2053 1.410 . S
C2054 C2055 1.392 . S
C2054 C2057 1.511 . S
C2055 C2051 1.376 . S
C2055 C2054 1.392 . S
C2055 H2067 0.929 . S
C2056 C2052 1.531 . S
C2056 H2068 0.960 . S
C2056 H2069 0.962 . S
C2056 H2070 0.960 . S
C2057 C2054 1.511 . S
C2057 H2071 0.961 . S
C2057 H2072 0.961 . S
C2057 H2073 0.961 . S
C2058 C2059 1.370 . S
C2058 C2060 1.363 . S
C2058 H2074 0.931 . S
C2059 C2058 1.370 . S
C2059 C2063 1.408 . S
C2060 C2058 1.363 . S
C2060 C2061 1.370 . S
C2060 C2064 1.524 . S
C2061 C2053 1.503 . S
C2061 C2060 1.370 . S
C2061 C2062 1.403 . S
C2062 C2061 1.403 . S
C2062 C2063 1.404 . S
C2062 C2065 1.539 . S
C2063 C2059 1.408 . S
C2063 C2062 1.404 . S
C2063 H2075 0.930 . S
C2064 C2060 1.524 . S
C2064 H2076 0.956 . S
C2064 H2077 0.961 . S
C2064 H2078 0.961 . S
C2065 C2062 1.539 . S
C2065 H2079 0.958 . S
C2065 H2080 0.961 . S
C2065 H2081 0.960 . S
H2066 C2050 0.931 . S
H2067 C2055 0.929 . S
H2068 C2056 0.960 . S
H2069 C2056 0.962 . S
H2070 C2056 0.960 . S
H2071 C2057 0.961 . S
H2072 C2057 0.961 . S
H2073 C2057 0.961 . S
H2074 C2058 0.931 . S
H2075 C2063 0.930 . S
H2076 C2064 0.956 . S
H2077 C2064 0.961 . S
H2078 C2064 0.961 . S
H2079 C2065 0.958 . S
H2080 C2065 0.961 . S
H2081 C2065 0.960 . S
C2082 C2083 1.391 . S
C2082 C2084 1.394 . S
C2082 H2098 0.931 . S
C2083 C2082 1.391 . S
C2083 C2087 1.376 . S
C2084 C2082 1.394 . S
C2084 C2085 1.369 . S
C2084 C2088 1.531 . S
C2085 C2084 1.369 . S
C2085 C2086 1.410 . S
C2085 C2093 1.503 . S
C2086 C2085 1.410 . S
C2086 C2087 1.392 . S
C2086 C2089 1.511 . S
C2087 C2083 1.376 . S
C2087 C2086 1.392 . S
C2087 H2099 0.929 . S
C2088 C2084 1.531 . S
C2088 H2100 0.960 . S
C2088 H2101 0.962 . S
C2088 H2102 0.960 . S
C2089 C2086 1.511 . S
C2089 H2103 0.961 . S
C2089 H2104 0.961 . S
C2089 H2105 0.961 . S
C2090 C2091 1.370 . S
C2090 C2092 1.363 . S
C2090 H2106 0.931 . S
C2091 C2090 1.370 . S
C2091 C2095 1.408 . S
C2092 C2090 1.363 . S
C2092 C2093 1.370 . S
C2092 C2096 1.524 . S
C2093 C2085 1.503 . S
C2093 C2092 1.370 . S
C2093 C2094 1.403 . S
C2094 C2093 1.403 . S
C2094 C2095 1.404 . S
C2094 C2097 1.539 . S
C2095 C2091 1.408 . S
C2095 C2094 1.404 . S
C2095 H2107 0.930 . S
C2096 C2092 1.524 . S
C2096 H2108 0.956 . S
C2096 H2109 0.961 . S
C2096 H2110 0.961 . S
C2097 C2094 1.539 . S
C2097 H2111 0.958 . S
C2097 H2112 0.961 . S
C2097 H2113 0.960 . S
H2098 C2082 0.931 . S
H2099 C2087 0.929 . S
H2100 C2088 0.960 . S
H2101 C2088 0.962 . S
H2102 C2088 0.960 . S
H2103 C2089 0.961 . S
H2104 C2089 0.961 . S
H2105 C2089 0.961 . S
H2106 C2090 0.931 . S
H2107 C2095 0.930 . S
H2108 C2096 0.956 . S
H2109 C2096 0.961 . S
H2110 C2096 0.961 . S
H2111 C2097 0.958 . S
H2112 C2097 0.961 . S
H2113 C2097 0.960 . S
C2114 C2115 1.391 . S
C2114 C2116 1.394 . S
C2114 H2130 0.931 . S
C2115 C2114 1.391 . S
C2115 C2119 1.376 . S
C2116 C2114 1.394 . S
C2116 C2117 1.369 . S
C2116 C2120 1.531 . S
C2117 C2116 1.369 . S
C2117 C2118 1.410 . S
C2117 C2125 1.503 . S
C2118 C2117 1.410 . S
C2118 C2119 1.392 . S
C2118 C2121 1.511 . S
C2119 C2115 1.376 . S
C2119 C2118 1.392 . S
C2119 H2131 0.929 . S
C2120 C2116 1.531 . S
C2120 H2132 0.960 . S
C2120 H2133 0.962 . S
C2120 H2134 0.960 . S
C2121 C2118 1.511 . S
C2121 H2135 0.961 . S
C2121 H2136 0.961 . S
C2121 H2137 0.961 . S
C2122 C2123 1.370 . S
C2122 C2124 1.363 . S
C2122 H2138 0.931 . S
C2123 C2122 1.370 . S
C2123 C2127 1.408 . S
C2124 C2122 1.363 . S
C2124 C2125 1.370 . S
C2124 C2128 1.524 . S
C2125 C2117 1.503 . S
C2125 C2124 1.370 . S
C2125 C2126 1.403 . S
C2126 C2125 1.403 . S
C2126 C2127 1.404 . S
C2126 C2129 1.539 . S
C2127 C2123 1.408 . S
C2127 C2126 1.404 . S
C2127 H2139 0.930 . S
C2128 C2124 1.524 . S
C2128 H2140 0.956 . S
C2128 H2141 0.961 . S
C2128 H2142 0.961 . S
C2129 C2126 1.539 . S
C2129 H2143 0.958 . S
C2129 H2144 0.961 . S
C2129 H2145 0.960 . S
H2130 C2114 0.931 . S
H2131 C2119 0.929 . S
H2132 C2120 0.960 . S
H2133 C2120 0.962 . S
H2134 C2120 0.960 . S
H2135 C2121 0.961 . S
H2136 C2121 0.961 . S
H2137 C2121 0.961 . S
H2138 C2122 0.931 . S
H2139 C2127 0.930 . S
H2140 C2128 0.956 . S
H2141 C2128 0.961 . S
H2142 C2128 0.961 . S
H2143 C2129 0.958 . S
H2144 C2129 0.961 . S
H2145 C2129 0.960 . S
C2146 C2147 1.391 . S
C2146 C2148 1.394 . S
C2146 H2162 0.931 . S
C2147 C2146 1.391 . S
C2147 C2151 1.376 . S
C2148 C2146 1.394 . S
C2148 C2149 1.369 . S
C2148 C2152 1.531 . S
C2149 C2148 1.369 . S
C2149 C2150 1.410 . S
C2149 C2157 1.503 . S
C2150 C2149 1.410 . S
C2150 C2151 1.392 . S
C2150 C2153 1.511 . S
C2151 C2147 1.376 . S
C2151 C2150 1.392 . S
C2151 H2163 0.929 . S
C2152 C2148 1.531 . S
C2152 H2164 0.960 . S
C2152 H2165 0.962 . S
C2152 H2166 0.960 . S
C2153 C2150 1.511 . S
C2153 H2167 0.961 . S
C2153 H2168 0.961 . S
C2153 H2169 0.961 . S
C2154 C2155 1.370 . S
C2154 C2156 1.363 . S
C2154 H2170 0.931 . S
C2155 C2154 1.370 . S
C2155 C2159 1.408 . S
C2156 C2154 1.363 . S
C2156 C2157 1.370 . S
C2156 C2160 1.524 . S
C2157 C2149 1.503 . S
C2157 C2156 1.370 . S
C2157 C2158 1.403 . S
C2158 C2157 1.403 . S
C2158 C2159 1.404 . S
C2158 C2161 1.539 . S
C2159 C2155 1.408 . S
C2159 C2158 1.404 . S
C2159 H2171 0.930 . S
C2160 C2156 1.524 . S
C2160 H2172 0.956 . S
C2160 H2173 0.961 . S
C2160 H2174 0.961 . S
C2161 C2158 1.539 . S
C2161 H2175 0.958 . S
C2161 H2176 0.961 . S
C2161 H2177 0.960 . S
H2162 C2146 0.931 . S
H2163 C2151 0.929 . S
H2164 C2152 0.960 . S
H2165 C2152 0.962 . S
H2166 C2152 0.960 . S
H2167 C2153 0.961 . S
H2168 C2153 0.961 . S
H2169 C2153 0.961 . S
H2170 C2154 0.931 . S
H2171 C2159 0.930 . S
H2172 C2160 0.956 . S
H2173 C2160 0.961 . S
H2174 C2160 0.961 . S
H2175 C2161 0.958 . S
H2176 C2161 0.961 . S
H2177 C2161 0.960 . S
C2178 C2179 1.391 . S
C2178 C2180 1.394 . S
C2178 H2194 0.931 . S
C2179 C2178 1.391 . S
C2179 C2183 1.376 . S
C2180 C2178 1.394 . S
C2180 C2181 1.369 . S
C2180 C2184 1.531 . S
C2181 C2180 1.369 . S
C2181 C2182 1.410 . S
C2181 C2189 1.503 . S
C2182 C2181 1.410 . S
C2182 C2183 1.392 . S
C2182 C2185 1.511 . S
C2183 C2179 1.376 . S
C2183 C2182 1.392 . S
C2183 H2195 0.929 . S
C2184 C2180 1.531 . S
C2184 H2196 0.960 . S
C2184 H2197 0.962 . S
C2184 H2198 0.945 1_554 S
C2185 C2182 1.511 . S
C2185 H2199 0.961 . S
C2185 H2200 0.961 . S
C2185 H2201 0.961 . S
C2186 C2187 1.370 . S
C2186 C2188 1.363 . S
C2186 H2202 0.931 . S
C2187 C2186 1.370 . S
C2187 C2191 1.408 . S
C2188 C2186 1.363 . S
C2188 C2189 1.370 . S
C2188 C2192 1.524 . S
C2189 C2181 1.503 . S
C2189 C2188 1.370 . S
C2189 C2190 1.403 . S
C2190 C2189 1.403 . S
C2190 C2191 1.404 . S
C2190 C2193 1.539 . S
C2191 C2187 1.408 . S
C2191 C2190 1.404 . S
C2191 H2203 0.930 . S
C2192 C2188 1.524 . S
C2192 H2204 0.956 . S
C2192 H2205 0.961 . S
C2192 H2206 0.961 . S
C2193 C2190 1.539 . S
C2193 H2207 0.958 . S
C2193 H2208 0.961 . S
C2193 H2209 0.960 . S
H2194 C2178 0.931 . S
H2195 C2183 0.929 . S
H2196 C2184 0.960 . S
H2197 C2184 0.962 . S
H2198 C2184 0.945 1_556 S
H2199 C2185 0.961 . S
H2200 C2185 0.961 . S
H2201 C2185 0.961 . S
H2202 C2186 0.931 . S
H2203 C2191 0.930 . S
H2204 C2192 0.956 . S
H2205 C2192 0.961 . S
H2206 C2192 0.961 . S
H2207 C2193 0.958 . S
H2208 C2193 0.961 . S
H2209 C2193 0.960 . S
C2210 C2211 1.391 . S
C2210 C2212 1.394 . S
C2210 H2226 0.931 . S
C2211 C2210 1.391 . S
C2211 C2215 1.376 . S
C2212 C2210 1.394 . S
C2212 C2213 1.369 . S
C2212 C2216 1.531 . S
C2213 C2212 1.369 . S
C2213 C2214 1.410 . S
C2213 C2221 1.503 . S
C2214 C2213 1.410 . S
C2214 C2215 1.392 . S
C2214 C2217 1.511 . S
C2215 C2211 1.376 . S
C2215 C2214 1.392 . S
C2215 H2227 0.929 . S
C2216 C2212 1.531 . S
C2216 H2228 0.960 . S
C2216 H2229 0.962 . S
C2216 H2230 0.960 . S
C2217 C2214 1.511 . S
C2217 H2231 0.961 . S
C2217 H2232 0.961 . S
C2217 H2233 0.961 . S
C2218 C2219 1.370 . S
C2218 C2220 1.363 . S
C2218 H2234 0.931 . S
C2219 C2218 1.370 . S
C2219 C2223 1.408 . S
C2220 C2218 1.363 . S
C2220 C2221 1.370 . S
C2220 C2224 1.524 . S
C2221 C2213 1.503 . S
C2221 C2220 1.370 . S
C2221 C2222 1.403 . S
C2222 C2221 1.403 . S
C2222 C2223 1.404 . S
C2222 C2225 1.539 . S
C2223 C2219 1.408 . S
C2223 C2222 1.404 . S
C2223 H2235 0.930 . S
C2224 C2220 1.524 . S
C2224 H2236 0.956 . S
C2224 H2237 0.961 . S
C2224 H2238 0.961 . S
C2225 C2222 1.539 . S
C2225 H2239 0.958 . S
C2225 H2240 0.961 . S
C2225 H2241 0.960 . S
H2226 C2210 0.931 . S
H2227 C2215 0.929 . S
H2228 C2216 0.960 . S
H2229 C2216 0.962 . S
H2230 C2216 0.960 . S
H2231 C2217 0.961 . S
H2232 C2217 0.961 . S
H2233 C2217 0.961 . S
H2234 C2218 0.931 . S
H2235 C2223 0.930 . S
H2236 C2224 0.956 . S
H2237 C2224 0.961 . S
H2238 C2224 0.961 . S
H2239 C2225 0.958 . S
H2240 C2225 0.961 . S
H2241 C2225 0.960 . S
C2242 C2243 1.391 . S
C2242 C2244 1.394 . S
C2242 H2258 0.931 . S
C2243 C2242 1.391 . S
C2243 C2247 1.376 . S
C2244 C2242 1.394 . S
C2244 C2245 1.369 . S
C2244 C2248 1.531 . S
C2245 C2244 1.369 . S
C2245 C2246 1.410 . S
C2245 C2253 1.503 . S
C2246 C2245 1.410 . S
C2246 C2247 1.392 . S
C2246 C2249 1.511 . S
C2247 C2243 1.376 . S
C2247 C2246 1.392 . S
C2247 H2259 0.929 . S
C2248 C2244 1.531 . S
C2248 H2260 0.960 . S
C2248 H2261 0.962 . S
C2248 H2262 0.960 1_554 S
C2249 C2246 1.511 . S
C2249 H2263 0.961 . S
C2249 H2264 0.961 . S
C2249 H2265 0.961 . S
C2250 C2251 1.370 . S
C2250 C2252 1.363 . S
C2250 H2266 0.931 . S
C2251 C2250 1.370 . S
C2251 C2255 1.408 . S
C2252 C2250 1.363 . S
C2252 C2253 1.370 . S
C2252 C2256 1.524 . S
C2253 C2245 1.503 . S
C2253 C2252 1.370 . S
C2253 C2254 1.403 . S
C2254 C2253 1.403 . S
C2254 C2255 1.404 . S
C2254 C2257 1.539 . S
C2255 C2251 1.408 . S
C2255 C2254 1.404 . S
C2255 H2267 0.930 . S
C2256 C2252 1.524 . S
C2256 H2268 0.956 . S
C2256 H2269 0.961 . S
C2256 H2270 0.961 . S
C2257 C2254 1.539 . S
C2257 H2271 0.958 . S
C2257 H2272 0.961 . S
C2257 H2273 0.960 . S
H2258 C2242 0.931 . S
H2259 C2247 0.929 . S
H2260 C2248 0.960 . S
H2261 C2248 0.962 . S
H2262 C2248 0.960 1_556 S
H2263 C2249 0.961 . S
H2264 C2249 0.961 . S
H2265 C2249 0.961 . S
H2266 C2250 0.931 . S
H2267 C2255 0.930 . S
H2268 C2256 0.956 . S
H2269 C2256 0.961 . S
H2270 C2256 0.961 . S
H2271 C2257 0.958 . S
H2272 C2257 0.961 . S
H2273 C2257 0.960 . S
C2274 C2275 1.391 . S
C2274 C2276 1.394 . S
C2274 H2290 0.931 . S
C2275 C2274 1.391 . S
C2275 C2279 1.376 . S
C2276 C2274 1.394 . S
C2276 C2277 1.369 . S
C2276 C2280 1.531 . S
C2277 C2276 1.369 . S
C2277 C2278 1.410 . S
C2277 C2285 1.503 . S
C2278 C2277 1.410 . S
C2278 C2279 1.392 . S
C2278 C2281 1.511 . S
C2279 C2275 1.376 . S
C2279 C2278 1.392 . S
C2279 H2291 0.929 . S
C2280 C2276 1.531 . S
C2280 H2292 0.960 . S
C2280 H2293 0.962 . S
C2280 H2294 0.960 . S
C2281 C2278 1.511 . S
C2281 H2295 0.961 . S
C2281 H2296 0.961 . S
C2281 H2297 0.961 . S
C2282 C2283 1.370 . S
C2282 C2284 1.363 . S
C2282 H2298 0.931 . S
C2283 C2282 1.370 . S
C2283 C2287 1.408 . S
C2284 C2282 1.363 . S
C2284 C2285 1.370 . S
C2284 C2288 1.524 . S
C2285 C2277 1.503 . S
C2285 C2284 1.370 . S
C2285 C2286 1.403 . S
C2286 C2285 1.403 . S
C2286 C2287 1.404 . S
C2286 C2289 1.539 . S
C2287 C2283 1.408 . S
C2287 C2286 1.404 . S
C2287 H2299 0.930 . S
C2288 C2284 1.524 . S
C2288 H2300 0.966 . S
C2288 H2301 0.961 . S
C2288 H2302 0.961 1_556 S
C2289 C2286 1.539 . S
C2289 H2303 0.958 . S
C2289 H2304 0.961 . S
C2289 H2305 0.960 . S
H2290 C2274 0.931 . S
H2291 C2279 0.929 . S
H2292 C2280 0.960 . S
H2293 C2280 0.962 . S
H2294 C2280 0.960 . S
H2295 C2281 0.961 . S
H2296 C2281 0.961 . S
H2297 C2281 0.961 . S
H2298 C2282 0.931 . S
H2299 C2287 0.930 . S
H2300 C2288 0.966 . S
H2301 C2288 0.961 . S
H2302 C2288 0.961 1_554 S
H2303 C2289 0.958 . S
H2304 C2289 0.961 . S
H2305 C2289 0.960 . S
C2306 C2307 1.391 . S
C2306 C2308 1.394 . S
C2306 H2322 0.931 . S
C2307 C2306 1.391 . S
C2307 C2311 1.376 . S
C2308 C2306 1.394 . S
C2308 C2309 1.369 . S
C2308 C2312 1.531 . S
C2309 C2308 1.369 . S
C2309 C2310 1.410 . S
C2309 C2317 1.503 . S
C2310 C2309 1.410 . S
C2310 C2311 1.392 . S
C2310 C2313 1.511 . S
C2311 C2307 1.376 . S
C2311 C2310 1.392 . S
C2311 H2323 0.929 . S
C2312 C2308 1.531 . S
C2312 H2324 0.960 . S
C2312 H2325 0.962 . S
C2312 H2326 0.960 . S
C2313 C2310 1.511 . S
C2313 H2327 0.961 . S
C2313 H2328 0.961 . S
C2313 H2329 0.961 . S
C2314 C2315 1.370 . S
C2314 C2316 1.363 . S
C2314 H2330 0.931 . S
C2315 C2314 1.370 . S
C2315 C2319 1.408 . S
C2316 C2314 1.363 . S
C2316 C2317 1.370 . S
C2316 C2320 1.524 . S
C2317 C2309 1.503 . S
C2317 C2316 1.370 . S
C2317 C2318 1.403 . S
C2318 C2317 1.403 . S
C2318 C2319 1.404 . S
C2318 C2321 1.539 . S
C2319 C2315 1.408 . S
C2319 C2318 1.404 . S
C2319 H2331 0.930 . S
C2320 C2316 1.524 . S
C2320 H2332 0.956 . S
C2320 H2333 0.961 . S
C2320 H2334 0.961 . S
C2321 C2318 1.539 . S
C2321 H2335 0.958 . S
C2321 H2336 0.961 . S
C2321 H2337 0.960 . S
H2322 C2306 0.931 . S
H2323 C2311 0.929 . S
H2324 C2312 0.960 . S
H2325 C2312 0.962 . S
H2326 C2312 0.960 . S
H2327 C2313 0.961 . S
H2328 C2313 0.961 . S
H2329 C2313 0.961 . S
H2330 C2314 0.931 . S
H2331 C2319 0.930 . S
H2332 C2320 0.956 . S
H2333 C2320 0.961 . S
H2334 C2320 0.961 . S
H2335 C2321 0.958 . S
H2336 C2321 0.961 . S
H2337 C2321 0.960 . S
C2338 C2339 1.391 . S
C2338 C2340 1.394 . S
C2338 H2354 0.931 . S
C2339 C2338 1.391 . S
C2339 C2343 1.376 . S
C2340 C2338 1.394 . S
C2340 C2341 1.369 . S
C2340 C2344 1.531 . S
C2341 C2340 1.369 . S
C2341 C2342 1.410 . S
C2341 C2349 1.503 . S
C2342 C2341 1.410 . S
C2342 C2343 1.392 . S
C2342 C2345 1.511 . S
C2343 C2339 1.376 . S
C2343 C2342 1.392 . S
C2343 H2355 0.929 1_556 S
C2344 C2340 1.531 . S
C2344 H2356 0.960 . S
C2344 H2357 0.962 . S
C2344 H2358 0.960 . S
C2345 C2342 1.511 . S
C2345 H2359 0.961 1_556 S
C2345 H2360 0.961 . S
C2345 H2361 0.961 . S
C2346 C2347 1.370 . S
C2346 C2348 1.363 . S
C2346 H2362 0.931 . S
C2347 C2346 1.370 . S
C2347 C2351 1.408 . S
C2348 C2346 1.363 . S
C2348 C2349 1.370 . S
C2348 C2352 1.524 . S
C2349 C2341 1.503 . S
C2349 C2348 1.370 . S
C2349 C2350 1.403 . S
C2350 C2349 1.403 . S
C2350 C2351 1.404 . S
C2350 C2353 1.539 . S
C2351 C2347 1.408 . S
C2351 C2350 1.404 . S
C2351 H2363 0.930 . S
C2352 C2348 1.524 . S
C2352 H2364 0.956 . S
C2352 H2365 0.961 . S
C2352 H2366 0.961 . S
C2353 C2350 1.539 . S
C2353 H2367 0.958 . S
C2353 H2368 0.961 . S
C2353 H2369 0.960 . S
H2354 C2338 0.931 . S
H2355 C2343 0.929 1_554 S
H2356 C2344 0.960 . S
H2357 C2344 0.962 . S
H2358 C2344 0.960 . S
H2359 C2345 0.961 1_554 S
H2360 C2345 0.961 . S
H2361 C2345 0.961 . S
H2362 C2346 0.931 . S
H2363 C2351 0.930 . S
H2364 C2352 0.956 . S
H2365 C2352 0.961 . S
H2366 C2352 0.961 . S
H2367 C2353 0.958 . S
H2368 C2353 0.961 . S
H2369 C2353 0.960 . S
C2370 C2371 1.391 . S
C2370 C2372 1.394 . S
C2370 H2386 0.931 . S
C2371 C2370 1.391 . S
C2371 C2375 1.376 . S
C2372 C2370 1.394 . S
C2372 C2373 1.369 . S
C2372 C2376 1.531 . S
C2373 C2372 1.369 . S
C2373 C2374 1.410 . S
C2373 C2381 1.503 . S
C2374 C2373 1.410 . S
C2374 C2375 1.392 . S
C2374 C2377 1.511 . S
C2375 C2371 1.376 . S
C2375 C2374 1.392 . S
C2375 H2387 0.929 1_556 S
C2376 C2372 1.531 . S
C2376 H2388 0.960 . S
C2376 H2389 0.962 . S
C2376 H2390 0.960 . S
C2377 C2374 1.511 . S
C2377 H2391 0.961 1_556 S
C2377 H2392 0.961 . S
C2377 H2393 0.961 . S
C2378 C2379 1.370 . S
C2378 C2380 1.363 . S
C2378 H2394 0.931 . S
C2379 C2378 1.370 . S
C2379 C2383 1.408 . S
C2380 C2378 1.363 . S
C2380 C2381 1.370 . S
C2380 C2384 1.524 . S
C2381 C2373 1.503 . S
C2381 C2380 1.370 . S
C2381 C2382 1.403 . S
C2382 C2381 1.403 . S
C2382 C2383 1.404 . S
C2382 C2385 1.539 . S
C2383 C2379 1.408 . S
C2383 C2382 1.404 . S
C2383 H2395 0.930 . S
C2384 C2380 1.524 . S
C2384 H2396 0.956 . S
C2384 H2397 0.961 . S
C2384 H2398 0.961 . S
C2385 C2382 1.539 . S
C2385 H2399 0.958 . S
C2385 H2400 0.961 . S
C2385 H2401 0.960 . S
H2386 C2370 0.931 . S
H2387 C2375 0.929 1_554 S
H2388 C2376 0.960 . S
H2389 C2376 0.962 . S
H2390 C2376 0.960 . S
H2391 C2377 0.961 1_554 S
H2392 C2377 0.961 . S
H2393 C2377 0.961 . S
H2394 C2378 0.931 . S
H2395 C2383 0.930 . S
H2396 C2384 0.956 . S
H2397 C2384 0.961 . S
H2398 C2384 0.961 . S
H2399 C2385 0.958 . S
H2400 C2385 0.961 . S
H2401 C2385 0.960 . S
C2402 C2403 1.391 . S
C2402 C2404 1.394 . S
C2402 H2418 0.931 . S
C2403 C2402 1.391 . S
C2403 C2407 1.376 . S
C2404 C2402 1.394 . S
C2404 C2405 1.369 . S
C2404 C2408 1.531 . S
C2405 C2404 1.369 . S
C2405 C2406 1.410 . S
C2405 C2413 1.503 . S
C2406 C2405 1.410 . S
C2406 C2407 1.392 . S
C2406 C2409 1.511 . S
C2407 C2403 1.376 . S
C2407 C2406 1.392 . S
C2407 H2419 0.929 . S
C2408 C2404 1.531 . S
C2408 H2420 0.960 . S
C2408 H2421 0.962 . S
C2408 H2422 0.960 . S
C2409 C2406 1.511 . S
C2409 H2423 0.961 . S
C2409 H2424 0.961 . S
C2409 H2425 0.961 . S
C2410 C2411 1.370 . S
C2410 C2412 1.363 . S
C2410 H2426 0.931 . S
C2411 C2410 1.370 . S
C2411 C2415 1.408 . S
C2412 C2410 1.363 . S
C2412 C2413 1.370 . S
C2412 C2416 1.524 . S
C2413 C2405 1.503 . S
C2413 C2412 1.370 . S
C2413 C2414 1.403 . S
C2414 C2413 1.403 . S
C2414 C2415 1.404 . S
C2414 C2417 1.539 . S
C2415 C2411 1.408 . S
C2415 C2414 1.404 . S
C2415 H2427 0.930 . S
C2416 C2412 1.524 . S
C2416 H2428 0.956 . S
C2416 H2429 0.961 . S
C2416 H2430 0.961 . S
C2417 C2414 1.539 . S
C2417 H2431 0.958 . S
C2417 H2432 0.961 . S
C2417 H2433 0.960 . S
H2418 C2402 0.931 . S
H2419 C2407 0.929 . S
H2420 C2408 0.960 . S
H2421 C2408 0.962 . S
H2422 C2408 0.960 . S
H2423 C2409 0.961 . S
H2424 C2409 0.961 . S
H2425 C2409 0.961 . S
H2426 C2410 0.931 . S
H2427 C2415 0.930 . S
H2428 C2416 0.956 . S
H2429 C2416 0.961 . S
H2430 C2416 0.961 . S
H2431 C2417 0.958 . S
H2432 C2417 0.961 . S
H2433 C2417 0.960 . S
C2434 C2435 1.391 . S
C2434 C2436 1.394 . S
C2434 H2450 0.931 . S
C2435 C2434 1.391 . S
C2435 C2439 1.376 . S
C2436 C2434 1.394 . S
C2436 C2437 1.369 . S
C2436 C2440 1.531 . S
C2437 C2436 1.369 . S
C2437 C2438 1.410 . S
C2437 C2445 1.503 . S
C2438 C2437 1.410 . S
C2438 C2439 1.392 . S
C2438 C2441 1.511 . S
C2439 C2435 1.376 . S
C2439 C2438 1.392 . S
C2439 H2451 0.929 . S
C2440 C2436 1.531 . S
C2440 H2452 0.960 . S
C2440 H2453 0.962 . S
C2440 H2454 0.960 . S
C2441 C2438 1.511 . S
C2441 H2455 0.961 . S
C2441 H2456 0.961 . S
C2441 H2457 0.961 . S
C2442 C2443 1.370 . S
C2442 C2444 1.363 . S
C2442 H2458 0.931 . S
C2443 C2442 1.370 . S
C2443 C2447 1.408 . S
C2444 C2442 1.363 . S
C2444 C2445 1.370 . S
C2444 C2448 1.524 . S
C2445 C2437 1.503 . S
C2445 C2444 1.370 . S
C2445 C2446 1.403 . S
C2446 C2445 1.403 . S
C2446 C2447 1.404 . S
C2446 C2449 1.539 . S
C2447 C2443 1.408 . S
C2447 C2446 1.404 . S
C2447 H2459 0.930 . S
C2448 C2444 1.524 . S
C2448 H2460 0.956 . S
C2448 H2461 0.961 . S
C2448 H2462 0.961 . S
C2449 C2446 1.539 . S
C2449 H2463 0.958 . S
C2449 H2464 0.961 . S
C2449 H2465 0.960 . S
H2450 C2434 0.931 . S
H2451 C2439 0.929 . S
H2452 C2440 0.960 . S
H2453 C2440 0.962 . S
H2454 C2440 0.960 . S
H2455 C2441 0.961 . S
H2456 C2441 0.961 . S
H2457 C2441 0.961 . S
H2458 C2442 0.931 . S
H2459 C2447 0.930 . S
H2460 C2448 0.956 . S
H2461 C2448 0.961 . S
H2462 C2448 0.961 . S
H2463 C2449 0.958 . S
H2464 C2449 0.961 . S
H2465 C2449 0.960 . S
C2466 C2467 1.391 . S
C2466 C2468 1.394 . S
C2466 H2482 0.931 . S
C2467 C2466 1.391 . S
C2467 C2471 1.376 . S
C2468 C2466 1.394 . S
C2468 C2469 1.369 . S
C2468 C2472 1.531 . S
C2469 C2468 1.369 . S
C2469 C2470 1.410 . S
C2469 C2477 1.503 . S
C2470 C2469 1.410 . S
C2470 C2471 1.392 . S
C2470 C2473 1.511 . S
C2471 C2467 1.376 . S
C2471 C2470 1.392 . S
C2471 H2483 0.929 . S
C2472 C2468 1.531 . S
C2472 H2484 0.960 . S
C2472 H2485 0.962 . S
C2472 H2486 0.960 . S
C2473 C2470 1.511 . S
C2473 H2487 0.961 . S
C2473 H2488 0.961 . S
C2473 H2489 0.961 . S
C2474 C2475 1.370 . S
C2474 C2476 1.363 . S
C2474 H2490 0.931 . S
C2475 C2474 1.370 . S
C2475 C2479 1.408 . S
C2476 C2474 1.363 . S
C2476 C2477 1.370 . S
C2476 C2480 1.524 . S
C2477 C2469 1.503 . S
C2477 C2476 1.370 . S
C2477 C2478 1.403 . S
C2478 C2477 1.403 . S
C2478 C2479 1.404 . S
C2478 C2481 1.539 . S
C2479 C2475 1.408 . S
C2479 C2478 1.404 . S
C2479 H2491 0.930 . S
C2480 C2476 1.524 . S
C2480 H2492 0.956 . S
C2480 H2493 0.961 . S
C2480 H2494 0.961 . S
C2481 C2478 1.539 . S
C2481 H2495 0.958 . S
C2481 H2496 0.961 . S
C2481 H2497 0.960 . S
H2482 C2466 0.931 . S
H2483 C2471 0.929 . S
H2484 C2472 0.960 . S
H2485 C2472 0.962 . S
H2486 C2472 0.960 . S
H2487 C2473 0.961 . S
H2488 C2473 0.961 . S
H2489 C2473 0.961 . S
H2490 C2474 0.931 . S
H2491 C2479 0.930 . S
H2492 C2480 0.956 . S
H2493 C2480 0.961 . S
H2494 C2480 0.961 . S
H2495 C2481 0.958 . S
H2496 C2481 0.961 . S
H2497 C2481 0.960 . S
C2498 C2499 1.391 . S
C2498 C2500 1.394 . S
C2498 H2514 0.931 . S
C2499 C2498 1.391 . S
C2499 C2503 1.376 . S
C2500 C2498 1.394 . S
C2500 C2501 1.369 . S
C2500 C2504 1.531 . S
C2501 C2500 1.369 . S
C2501 C2502 1.410 . S
C2501 C2509 1.503 . S
C2502 C2501 1.410 . S
C2502 C2503 1.392 . S
C2502 C2505 1.511 . S
C2503 C2499 1.376 . S
C2503 C2502 1.392 . S
C2503 H2515 0.929 . S
C2504 C2500 1.531 . S
C2504 H2516 0.960 . S
C2504 H2517 0.962 . S
C2504 H2518 0.960 . S
C2505 C2502 1.511 . S
C2505 H2519 0.961 . S
C2505 H2520 0.961 . S
C2505 H2521 0.961 . S
C2506 C2507 1.370 . S
C2506 C2508 1.363 . S
C2506 H2522 0.931 . S
C2507 C2506 1.370 . S
C2507 C2511 1.408 . S
C2508 C2506 1.363 . S
C2508 C2509 1.370 . S
C2508 C2512 1.524 . S
C2509 C2501 1.503 . S
C2509 C2508 1.370 . S
C2509 C2510 1.403 . S
C2510 C2509 1.403 . S
C2510 C2511 1.404 . S
C2510 C2513 1.539 . S
C2511 C2507 1.408 . S
C2511 C2510 1.404 . S
C2511 H2523 0.930 . S
C2512 C2508 1.524 . S
C2512 H2524 0.956 . S
C2512 H2525 0.961 . S
C2512 H2526 0.961 . S
C2513 C2510 1.539 . S
C2513 H2527 0.958 . S
C2513 H2528 0.961 . S
C2513 H2529 0.960 . S
H2514 C2498 0.931 . S
H2515 C2503 0.929 . S
H2516 C2504 0.960 . S
H2517 C2504 0.962 . S
H2518 C2504 0.960 . S
H2519 C2505 0.961 . S
H2520 C2505 0.961 . S
H2521 C2505 0.961 . S
H2522 C2506 0.931 . S
H2523 C2511 0.930 . S
H2524 C2512 0.956 . S
H2525 C2512 0.961 . S
H2526 C2512 0.961 . S
H2527 C2513 0.958 . S
H2528 C2513 0.961 . S
H2529 C2513 0.960 . S
C2530 C2531 1.391 . S
C2530 C2532 1.394 . S
C2530 H2546 0.931 . S
C2531 C2530 1.391 . S
C2531 C2535 1.376 . S
C2532 C2530 1.394 . S
C2532 C2533 1.369 . S
C2532 C2536 1.531 . S
C2533 C2532 1.369 . S
C2533 C2534 1.410 . S
C2533 C2541 1.503 . S
C2534 C2533 1.410 . S
C2534 C2535 1.392 . S
C2534 C2537 1.511 . S
C2535 C2531 1.376 . S
C2535 C2534 1.392 . S
C2535 H2547 0.929 . S
C2536 C2532 1.531 . S
C2536 H2548 0.960 . S
C2536 H2549 0.962 . S
C2536 H2550 0.960 . S
C2537 C2534 1.511 . S
C2537 H2551 0.961 . S
C2537 H2552 0.961 . S
C2537 H2553 0.961 . S
C2538 C2539 1.370 . S
C2538 C2540 1.363 . S
C2538 H2554 0.931 . S
C2539 C2538 1.370 . S
C2539 C2543 1.408 . S
C2540 C2538 1.363 . S
C2540 C2541 1.370 . S
C2540 C2544 1.524 . S
C2541 C2533 1.503 . S
C2541 C2540 1.370 . S
C2541 C2542 1.403 . S
C2542 C2541 1.403 . S
C2542 C2543 1.404 . S
C2542 C2545 1.539 . S
C2543 C2539 1.408 . S
C2543 C2542 1.404 . S
C2543 H2555 0.930 . S
C2544 C2540 1.524 . S
C2544 H2556 0.956 . S
C2544 H2557 0.961 . S
C2544 H2558 0.961 . S
C2545 C2542 1.539 . S
C2545 H2559 0.958 . S
C2545 H2560 0.961 . S
C2545 H2561 0.960 . S
H2546 C2530 0.931 . S
H2547 C2535 0.929 . S
H2548 C2536 0.960 . S
H2549 C2536 0.962 . S
H2550 C2536 0.960 . S
H2551 C2537 0.961 . S
H2552 C2537 0.961 . S
H2553 C2537 0.961 . S
H2554 C2538 0.931 . S
H2555 C2543 0.930 . S
H2556 C2544 0.956 . S
H2557 C2544 0.961 . S
H2558 C2544 0.961 . S
H2559 C2545 0.958 . S
H2560 C2545 0.961 . S
H2561 C2545 0.960 . S
C2562 C2563 1.391 . S
C2562 C2564 1.394 . S
C2562 H2578 0.931 . S
C2563 C2562 1.391 . S
C2563 C2567 1.376 . S
C2564 C2562 1.394 . S
C2564 C2565 1.369 . S
C2564 C2568 1.531 . S
C2565 C2564 1.369 . S
C2565 C2566 1.410 . S
C2565 C2573 1.503 . S
C2566 C2565 1.410 . S
C2566 C2567 1.392 . S
C2566 C2569 1.511 . S
C2567 C2563 1.376 . S
C2567 C2566 1.392 . S
C2567 H2579 0.929 . S
C2568 C2564 1.531 . S
C2568 H2580 0.960 . S
C2568 H2581 0.962 . S
C2568 H2582 0.960 . S
C2569 C2566 1.511 . S
C2569 H2583 0.961 . S
C2569 H2584 0.961 . S
C2569 H2585 0.961 . S
C2570 C2571 1.370 . S
C2570 C2572 1.363 . S
C2570 H2586 0.931 . S
C2571 C2570 1.370 . S
C2571 C2575 1.408 . S
C2572 C2570 1.363 . S
C2572 C2573 1.370 . S
C2572 C2576 1.524 . S
C2573 C2565 1.503 . S
C2573 C2572 1.370 . S
C2573 C2574 1.403 . S
C2574 C2573 1.403 . S
C2574 C2575 1.404 . S
C2574 C2577 1.539 . S
C2575 C2571 1.408 . S
C2575 C2574 1.404 . S
C2575 H2587 0.930 . S
C2576 C2572 1.524 . S
C2576 H2588 0.956 . S
C2576 H2589 0.961 . S
C2576 H2590 0.961 . S
C2577 C2574 1.539 . S
C2577 H2591 0.958 . S
C2577 H2592 0.961 . S
C2577 H2593 0.960 . S
H2578 C2562 0.931 . S
H2579 C2567 0.929 . S
H2580 C2568 0.960 . S
H2581 C2568 0.962 . S
H2582 C2568 0.960 . S
H2583 C2569 0.961 . S
H2584 C2569 0.961 . S
H2585 C2569 0.961 . S
H2586 C2570 0.931 . S
H2587 C2575 0.930 . S
H2588 C2576 0.956 . S
H2589 C2576 0.961 . S
H2590 C2576 0.961 . S
H2591 C2577 0.958 . S
H2592 C2577 0.961 . S
H2593 C2577 0.960 . S
C2594 C2595 1.391 . S
C2594 C2596 1.394 . S
C2594 H2610 0.931 . S
C2595 C2594 1.391 . S
C2595 C2599 1.376 . S
C2596 C2594 1.394 . S
C2596 C2597 1.369 . S
C2596 C2600 1.531 . S
C2597 C2596 1.369 . S
C2597 C2598 1.410 . S
C2597 C2605 1.503 . S
C2598 C2597 1.410 . S
C2598 C2599 1.392 . S
C2598 C2601 1.511 . S
C2599 C2595 1.376 . S
C2599 C2598 1.392 . S
C2599 H2611 0.929 . S
C2600 C2596 1.531 . S
C2600 H2612 0.960 . S
C2600 H2613 0.962 . S
C2600 H2614 0.960 . S
C2601 C2598 1.511 . S
C2601 H2615 0.961 . S
C2601 H2616 0.961 . S
C2601 H2617 0.961 . S
C2602 C2603 1.370 . S
C2602 C2604 1.363 . S
C2602 H2618 0.931 . S
C2603 C2602 1.370 . S
C2603 C2607 1.408 . S
C2604 C2602 1.363 . S
C2604 C2605 1.370 . S
C2604 C2608 1.524 . S
C2605 C2597 1.503 . S
C2605 C2604 1.370 . S
C2605 C2606 1.403 . S
C2606 C2605 1.403 . S
C2606 C2607 1.404 . S
C2606 C2609 1.539 . S
C2607 C2603 1.408 . S
C2607 C2606 1.404 . S
C2607 H2619 0.930 . S
C2608 C2604 1.524 . S
C2608 H2620 0.956 . S
C2608 H2621 0.961 . S
C2608 H2622 0.961 . S
C2609 C2606 1.539 . S
C2609 H2623 0.958 . S
C2609 H2624 0.961 . S
C2609 H2625 0.960 . S
H2610 C2594 0.931 . S
H2611 C2599 0.929 . S
H2612 C2600 0.960 . S
H2613 C2600 0.962 . S
H2614 C2600 0.960 . S
H2615 C2601 0.961 . S
H2616 C2601 0.961 . S
H2617 C2601 0.961 . S
H2618 C2602 0.931 . S
H2619 C2607 0.930 . S
H2620 C2608 0.956 . S
H2621 C2608 0.961 . S
H2622 C2608 0.961 . S
H2623 C2609 0.958 . S
H2624 C2609 0.961 . S
H2625 C2609 0.960 . S
C2626 C2627 1.391 . S
C2626 C2628 1.394 . S
C2626 H2642 0.931 . S
C2627 C2626 1.391 . S
C2627 C2631 1.376 . S
C2628 C2626 1.394 . S
C2628 C2629 1.369 . S
C2628 C2632 1.531 . S
C2629 C2628 1.369 . S
C2629 C2630 1.410 . S
C2629 C2637 1.503 . S
C2630 C2629 1.410 . S
C2630 C2631 1.392 . S
C2630 C2633 1.511 . S
C2631 C2627 1.376 . S
C2631 C2630 1.392 . S
C2631 H2643 0.929 . S
C2632 C2628 1.531 . S
C2632 H2644 0.960 . S
C2632 H2645 0.962 . S
C2632 H2646 0.960 . S
C2633 C2630 1.511 . S
C2633 H2647 0.961 . S
C2633 H2648 0.961 . S
C2633 H2649 0.961 . S
C2634 C2635 1.370 . S
C2634 C2636 1.363 . S
C2634 H2650 0.931 . S
C2635 C2634 1.370 . S
C2635 C2639 1.408 . S
C2636 C2634 1.363 . S
C2636 C2637 1.370 . S
C2636 C2640 1.524 . S
C2637 C2629 1.503 . S
C2637 C2636 1.370 . S
C2637 C2638 1.403 . S
C2638 C2637 1.403 . S
C2638 C2639 1.404 . S
C2638 C2641 1.539 . S
C2639 C2635 1.408 . S
C2639 C2638 1.404 . S
C2639 H2651 0.930 . S
C2640 C2636 1.524 . S
C2640 H2652 0.956 . S
C2640 H2653 0.961 . S
C2640 H2654 0.961 . S
C2641 C2638 1.539 . S
C2641 H2655 0.958 . S
C2641 H2656 0.961 . S
C2641 H2657 0.960 . S
H2642 C2626 0.931 . S
H2643 C2631 0.929 . S
H2644 C2632 0.960 . S
H2645 C2632 0.962 . S
H2646 C2632 0.960 . S
H2647 C2633 0.961 . S
H2648 C2633 0.961 . S
H2649 C2633 0.961 . S
H2650 C2634 0.931 . S
H2651 C2639 0.930 . S
H2652 C2640 0.956 . S
H2653 C2640 0.961 . S
H2654 C2640 0.961 . S
H2655 C2641 0.958 . S
H2656 C2641 0.961 . S
H2657 C2641 0.960 . S
C2658 C2659 1.391 . S
C2658 C2660 1.394 . S
C2658 H2674 0.931 . S
C2659 C2658 1.391 . S
C2659 C2663 1.376 1_455 S
C2660 C2658 1.394 . S
C2660 C2661 1.369 . S
C2660 C2664 1.531 . S
C2661 C2660 1.369 . S
C2661 C2662 1.410 1_455 S
C2661 C2669 1.503 . S
C2662 C2661 1.410 1_655 S
C2662 C2663 1.392 . S
C2662 C2665 1.511 . S
C2663 C2659 1.376 1_655 S
C2663 C2662 1.392 . S
C2663 H2675 0.929 . S
C2664 C2660 1.531 . S
C2664 H2676 0.960 . S
C2664 H2677 0.962 . S
C2664 H2678 0.960 . S
C2665 C2662 1.511 . S
C2665 H2679 0.961 . S
C2665 H2680 0.961 . S
C2665 H2681 0.961 . S
C2666 C2667 1.370 . S
C2666 C2668 1.363 . S
C2666 H2682 0.931 . S
C2667 C2666 1.370 . S
C2667 C2671 1.408 1_455 S
C2668 C2666 1.363 . S
C2668 C2669 1.370 . S
C2668 C2672 1.524 . S
C2669 C2661 1.503 . S
C2669 C2668 1.370 . S
C2669 C2670 1.403 1_455 S
C2670 C2669 1.403 1_655 S
C2670 C2671 1.404 . S
C2670 C2673 1.539 . S
C2671 C2667 1.408 1_655 S
C2671 C2670 1.404 . S
C2671 H2683 0.930 . S
C2672 C2668 1.524 . S
C2672 H2684 0.956 . S
C2672 H2685 0.961 . S
C2672 H2686 0.961 . S
C2673 C2670 1.539 . S
C2673 H2687 0.958 . S
C2673 H2688 0.961 . S
C2673 H2689 0.960 . S
H2674 C2658 0.931 . S
H2675 C2663 0.929 . S
H2676 C2664 0.960 . S
H2677 C2664 0.962 . S
H2678 C2664 0.960 . S
H2679 C2665 0.961 . S
H2680 C2665 0.961 . S
H2681 C2665 0.961 . S
H2682 C2666 0.931 . S
H2683 C2671 0.930 . S
H2684 C2672 0.956 . S
H2685 C2672 0.961 . S
H2686 C2672 0.961 . S
H2687 C2673 0.958 . S
H2688 C2673 0.961 . S
H2689 C2673 0.960 . S
C2690 C2691 1.391 . S
C2690 C2692 1.394 . S
C2690 H2706 0.931 . S
C2691 C2690 1.391 . S
C2691 C2695 1.376 . S
C2692 C2690 1.394 . S
C2692 C2693 1.369 . S
C2692 C2696 1.531 . S
C2693 C2692 1.369 . S
C2693 C2694 1.410 . S
C2693 C2701 1.503 . S
C2694 C2693 1.410 . S
C2694 C2695 1.392 . S
C2694 C2697 1.511 . S
C2695 C2691 1.376 . S
C2695 C2694 1.392 . S
C2695 H2707 0.929 . S
C2696 C2692 1.531 . S
C2696 H2708 0.960 . S
C2696 H2709 0.962 . S
C2696 H2710 0.960 . S
C2697 C2694 1.511 . S
C2697 H2711 0.961 . S
C2697 H2712 0.961 . S
C2697 H2713 0.961 . S
C2698 C2699 1.370 . S
C2698 C2700 1.363 . S
C2698 H2714 0.931 . S
C2699 C2698 1.370 . S
C2699 C2703 1.408 . S
C2700 C2698 1.363 . S
C2700 C2701 1.370 . S
C2700 C2704 1.524 . S
C2701 C2693 1.503 . S
C2701 C2700 1.370 . S
C2701 C2702 1.403 . S
C2702 C2701 1.403 . S
C2702 C2703 1.404 . S
C2702 C2705 1.539 . S
C2703 C2699 1.408 . S
C2703 C2702 1.404 . S
C2703 H2715 0.930 . S
C2704 C2700 1.524 . S
C2704 H2716 0.956 . S
C2704 H2717 0.961 . S
C2704 H2718 0.961 . S
C2705 C2702 1.539 . S
C2705 H2719 0.958 . S
C2705 H2720 0.961 . S
C2705 H2721 0.960 . S
H2706 C2690 0.931 . S
H2707 C2695 0.929 . S
H2708 C2696 0.960 . S
H2709 C2696 0.962 . S
H2710 C2696 0.960 . S
H2711 C2697 0.961 . S
H2712 C2697 0.961 . S
H2713 C2697 0.961 . S
H2714 C2698 0.931 . S
H2715 C2703 0.930 . S
H2716 C2704 0.956 . S
H2717 C2704 0.961 . S
H2718 C2704 0.961 . S
H2719 C2705 0.958 . S
H2720 C2705 0.961 . S
H2721 C2705 0.960 . S
C2722 C2723 1.391 . S
C2722 C2724 1.394 . S
C2722 H2738 0.931 . S
C2723 C2722 1.391 . S
C2723 C2727 1.361 1_565 S
C2724 C2722 1.394 . S
C2724 C2725 1.369 . S
C2724 C2728 1.531 . S
C2725 C2724 1.369 . S
C2725 C2726 1.368 1_565 S
C2725 C2733 1.503 . S
C2726 C2725 1.368 1_545 S
C2726 C2727 1.398 . S
C2726 C2729 1.534 . S
C2727 C2723 1.361 1_545 S
C2727 C2726 1.398 . S
C2727 H2739 0.959 . S
C2728 C2724 1.531 . S
C2728 H2740 0.960 . S
C2728 H2741 0.962 . S
C2728 H2742 0.960 . S
C2729 C2726 1.534 . S
C2729 H2743 0.961 . S
C2729 H2744 0.961 . S
C2729 H2745 0.961 . S
C2730 C2731 1.370 1_545 S
C2730 C2732 1.363 . S
C2730 H2746 0.931 . S
C2731 C2730 1.370 1_565 S
C2731 C2735 1.408 . S
C2732 C2730 1.363 . S
C2732 C2733 1.370 1_545 S
C2732 C2736 1.524 . S
C2733 C2725 1.503 . S
C2733 C2732 1.370 1_565 S
C2733 C2734 1.403 . S
C2734 C2733 1.403 . S
C2734 C2735 1.404 . S
C2734 C2737 1.539 . S
C2735 C2731 1.408 . S
C2735 C2734 1.404 . S
C2735 H2747 0.930 . S
C2736 C2732 1.524 . S
C2736 H2748 0.956 . S
C2736 H2749 0.961 . S
C2736 H2750 0.961 . S
C2737 C2734 1.539 . S
C2737 H2751 0.958 . S
C2737 H2752 0.961 . S
C2737 H2753 0.960 . S
H2738 C2722 0.931 . S
H2739 C2727 0.959 . S
H2740 C2728 0.960 . S
H2741 C2728 0.962 . S
H2742 C2728 0.960 . S
H2743 C2729 0.961 . S
H2744 C2729 0.961 . S
H2745 C2729 0.961 . S
H2746 C2730 0.931 . S
H2747 C2735 0.930 . S
H2748 C2736 0.956 . S
H2749 C2736 0.961 . S
H2750 C2736 0.961 . S
H2751 C2737 0.958 . S
H2752 C2737 0.961 . S
H2753 C2737 0.960 . S
C2754 C2755 1.391 . S
C2754 C2756 1.384 1_565 S
C2754 H2770 0.934 . S
C2755 C2754 1.391 . S
C2755 C2759 1.376 . S
C2756 C2754 1.384 1_545 S
C2756 C2757 1.369 1_545 S
C2756 C2760 1.541 . S
C2757 C2756 1.369 1_565 S
C2757 C2758 1.410 . S
C2757 C2765 1.503 . S
C2758 C2757 1.410 . S
C2758 C2759 1.392 . S
C2758 C2761 1.511 . S
C2759 C2755 1.376 . S
C2759 C2758 1.392 . S
C2759 H2771 0.929 . S
C2760 C2756 1.541 . S
C2760 H2772 0.960 . S
C2760 H2773 0.962 1_545 S
C2760 H2774 0.960 . S
C2761 C2758 1.511 . S
C2761 H2775 0.961 . S
C2761 H2776 0.961 . S
C2761 H2777 0.961 1_565 S
C2762 C2763 1.411 . S
C2762 C2764 1.363 . S
C2762 H2778 0.931 . S
C2763 C2762 1.411 . S
C2763 C2767 1.387 1_565 S
C2764 C2762 1.363 . S
C2764 C2765 1.370 . S
C2764 C2768 1.524 . S
C2765 C2757 1.503 . S
C2765 C2764 1.370 . S
C2765 C2766 1.403 1_565 S
C2766 C2765 1.403 1_545 S
C2766 C2767 1.404 . S
C2766 C2769 1.539 . S
C2767 C2763 1.387 1_545 S
C2767 C2766 1.404 . S
C2767 H2779 0.930 . S
C2768 C2764 1.524 . S
C2768 H2780 0.956 . S
C2768 H2781 0.961 . S
C2768 H2782 0.961 . S
C2769 C2766 1.539 . S
C2769 H2783 0.958 . S
C2769 H2784 0.961 . S
C2769 H2785 0.960 . S
H2770 C2754 0.934 . S
H2771 C2759 0.929 . S
H2772 C2760 0.960 . S
H2773 C2760 0.962 1_565 S
H2774 C2760 0.960 . S
H2775 C2761 0.961 . S
H2776 C2761 0.961 . S
H2777 C2761 0.961 1_545 S
H2778 C2762 0.931 . S
H2779 C2767 0.930 . S
H2780 C2768 0.956 . S
H2781 C2768 0.961 . S
H2782 C2768 0.961 . S
H2783 C2769 0.958 . S
H2784 C2769 0.961 . S
H2785 C2769 0.960 . S
C2786 C2787 1.391 . S
C2786 C2788 1.376 . S
C2786 H2802 0.931 . S
C2787 C2786 1.391 . S
C2787 C2791 1.376 . S
C2788 C2786 1.376 . S
C2788 C2789 1.383 . S
C2788 C2792 1.537 1_455 S
C2789 C2788 1.383 . S
C2789 C2790 1.410 . S
C2789 C2797 1.503 . S
C2790 C2789 1.410 . S
C2790 C2791 1.392 . S
C2790 C2793 1.511 . S
C2791 C2787 1.376 . S
C2791 C2790 1.392 . S
C2791 H2803 0.929 . S
C2792 C2788 1.537 1_655 S
C2792 H2804 0.960 . S
C2792 H2805 0.962 1_655 S
C2792 H2806 0.960 . S
C2793 C2790 1.511 . S
C2793 H2807 0.961 . S
C2793 H2808 0.961 . S
C2793 H2809 0.942 1_455 S
C2794 C2795 1.408 . S
C2794 C2796 1.363 . S
C2794 H2810 0.931 . S
C2795 C2794 1.408 . S
C2795 C2799 1.341 1_455 S
C2796 C2794 1.363 . S
C2796 C2797 1.370 . S
C2796 C2800 1.524 . S
C2797 C2789 1.503 . S
C2797 C2796 1.370 . S
C2797 C2798 1.403 1_455 S
C2798 C2797 1.403 1_655 S
C2798 C2799 1.404 . S
C2798 C2801 1.539 . S
C2799 C2795 1.341 1_655 S
C2799 C2798 1.404 . S
C2799 H2811 0.930 . S
C2800 C2796 1.524 . S
C2800 H2812 0.956 . S
C2800 H2813 0.961 . S
C2800 H2814 0.961 . S
C2801 C2798 1.539 . S
C2801 H2815 0.958 . S
C2801 H2816 0.961 . S
C2801 H2817 0.960 . S
H2802 C2786 0.931 . S
H2803 C2791 0.929 . S
H2804 C2792 0.960 . S
H2805 C2792 0.962 1_455 S
H2806 C2792 0.960 . S
H2807 C2793 0.961 . S
H2808 C2793 0.961 . S
H2809 C2793 0.942 1_655 S
H2810 C2794 0.931 . S
H2811 C2799 0.930 . S
H2812 C2800 0.956 . S
H2813 C2800 0.961 . S
H2814 C2800 0.961 . S
H2815 C2801 0.958 . S
H2816 C2801 0.961 . S
H2817 C2801 0.960 . S
C2818 C2819 1.391 . S
C2818 C2820 1.394 . S
C2818 H2834 0.931 . S
C2819 C2818 1.391 . S
C2819 C2823 1.376 . S
C2820 C2818 1.394 . S
C2820 C2821 1.369 . S
C2820 C2824 1.531 . S
C2821 C2820 1.369 . S
C2821 C2822 1.410 . S
C2821 C2829 1.503 . S
C2822 C2821 1.410 . S
C2822 C2823 1.392 . S
C2822 C2825 1.511 . S
C2823 C2819 1.376 . S
C2823 C2822 1.392 . S
C2823 H2835 0.929 . S
C2824 C2820 1.531 . S
C2824 H2836 0.960 . S
C2824 H2837 0.962 . S
C2824 H2838 0.960 . S
C2825 C2822 1.511 . S
C2825 H2839 0.961 . S
C2825 H2840 0.961 . S
C2825 H2841 0.961 . S
C2826 C2827 1.370 . S
C2826 C2828 1.363 . S
C2826 H2842 0.931 . S
C2827 C2826 1.370 . S
C2827 C2831 1.408 . S
C2828 C2826 1.363 . S
C2828 C2829 1.370 . S
C2828 C2832 1.524 . S
C2829 C2821 1.503 . S
C2829 C2828 1.370 . S
C2829 C2830 1.403 . S
C2830 C2829 1.403 . S
C2830 C2831 1.404 . S
C2830 C2833 1.539 . S
C2831 C2827 1.408 . S
C2831 C2830 1.404 . S
C2831 H2843 0.930 . S
C2832 C2828 1.524 . S
C2832 H2844 0.956 . S
C2832 H2845 0.961 . S
C2832 H2846 0.961 . S
C2833 C2830 1.539 . S
C2833 H2847 0.958 . S
C2833 H2848 0.961 . S
C2833 H2849 0.960 . S
H2834 C2818 0.931 . S
H2835 C2823 0.929 . S
H2836 C2824 0.960 . S
H2837 C2824 0.962 . S
H2838 C2824 0.960 . S
H2839 C2825 0.961 . S
H2840 C2825 0.961 . S
H2841 C2825 0.961 . S
H2842 C2826 0.931 . S
H2843 C2831 0.930 . S
H2844 C2832 0.956 . S
H2845 C2832 0.961 . S
H2846 C2832 0.961 . S
H2847 C2833 0.958 . S
H2848 C2833 0.961 . S
H2849 C2833 0.960 . S
C2850 C2851 1.391 . S
C2850 C2852 1.394 . S
C2850 H2866 0.931 . S
C2851 C2850 1.391 . S
C2851 C2855 1.376 . S
C2852 C2850 1.394 . S
C2852 C2853 1.369 . S
C2852 C2856 1.531 . S
C2853 C2852 1.369 . S
C2853 C2854 1.410 . S
C2853 C2861 1.503 . S
C2854 C2853 1.410 . S
C2854 C2855 1.392 . S
C2854 C2857 1.511 . S
C2855 C2851 1.376 . S
C2855 C2854 1.392 . S
C2855 H2867 0.929 . S
C2856 C2852 1.531 . S
C2856 H2868 0.960 . S
C2856 H2869 0.962 . S
C2856 H2870 0.960 . S
C2857 C2854 1.511 . S
C2857 H2871 0.961 . S
C2857 H2872 0.961 . S
C2857 H2873 0.961 . S
C2858 C2859 1.370 . S
C2858 C2860 1.363 . S
C2858 H2874 0.931 . S
C2859 C2858 1.370 . S
C2859 C2863 1.408 . S
C2860 C2858 1.363 . S
C2860 C2861 1.370 . S
C2860 C2864 1.524 . S
C2861 C2853 1.503 . S
C2861 C2860 1.370 . S
C2861 C2862 1.403 . S
C2862 C2861 1.403 . S
C2862 C2863 1.404 . S
C2862 C2865 1.539 . S
C2863 C2859 1.408 . S
C2863 C2862 1.404 . S
C2863 H2875 0.930 . S
C2864 C2860 1.524 . S
C2864 H2876 0.956 . S
C2864 H2877 0.961 . S
C2864 H2878 0.961 . S
C2865 C2862 1.539 . S
C2865 H2879 0.958 . S
C2865 H2880 0.961 . S
C2865 H2881 0.960 . S
H2866 C2850 0.931 . S
H2867 C2855 0.929 . S
H2868 C2856 0.960 . S
H2869 C2856 0.962 . S
H2870 C2856 0.960 . S
H2871 C2857 0.961 . S
H2872 C2857 0.961 . S
H2873 C2857 0.961 . S
H2874 C2858 0.931 . S
H2875 C2863 0.930 . S
H2876 C2864 0.956 . S
H2877 C2864 0.961 . S
H2878 C2864 0.961 . S
H2879 C2865 0.958 . S
H2880 C2865 0.961 . S
H2881 C2865 0.960 . S
C2882 C2883 1.391 . S
C2882 C2884 1.394 . S
C2882 H2898 0.931 . S
C2883 C2882 1.391 . S
C2883 C2887 1.376 . S
C2884 C2882 1.394 . S
C2884 C2885 1.369 . S
C2884 C2888 1.531 . S
C2885 C2884 1.369 . S
C2885 C2886 1.410 . S
C2885 C2893 1.503 . S
C2886 C2885 1.410 . S
C2886 C2887 1.392 . S
C2886 C2889 1.511 . S
C2887 C2883 1.376 . S
C2887 C2886 1.392 . S
C2887 H2899 0.929 . S
C2888 C2884 1.531 . S
C2888 H2900 0.960 . S
C2888 H2901 0.962 . S
C2888 H2902 0.960 . S
C2889 C2886 1.511 . S
C2889 H2903 0.961 . S
C2889 H2904 0.961 . S
C2889 H2905 0.961 . S
C2890 C2891 1.370 . S
C2890 C2892 1.363 . S
C2890 H2906 0.931 . S
C2891 C2890 1.370 . S
C2891 C2895 1.408 . S
C2892 C2890 1.363 . S
C2892 C2893 1.370 . S
C2892 C2896 1.524 . S
C2893 C2885 1.503 . S
C2893 C2892 1.370 . S
C2893 C2894 1.403 . S
C2894 C2893 1.403 . S
C2894 C2895 1.404 . S
C2894 C2897 1.539 . S
C2895 C2891 1.408 . S
C2895 C2894 1.404 . S
C2895 H2907 0.930 . S
C2896 C2892 1.524 . S
C2896 H2908 0.956 . S
C2896 H2909 0.961 . S
C2896 H2910 0.961 . S
C2897 C2894 1.539 . S
C2897 H2911 0.958 . S
C2897 H2912 0.961 . S
C2897 H2913 0.960 . S
H2898 C2882 0.931 . S
H2899 C2887 0.929 . S
H2900 C2888 0.960 . S
H2901 C2888 0.962 . S
H2902 C2888 0.960 . S
H2903 C2889 0.961 . S
H2904 C2889 0.961 . S
H2905 C2889 0.961 . S
H2906 C2890 0.931 . S
H2907 C2895 0.930 . S
H2908 C2896 0.956 . S
H2909 C2896 0.961 . S
H2910 C2896 0.961 . S
H2911 C2897 0.958 . S
H2912 C2897 0.961 . S
H2913 C2897 0.960 . S
C2914 C2915 1.391 . S
C2914 C2916 1.394 . S
C2914 H2930 0.931 . S
C2915 C2914 1.391 . S
C2915 C2919 1.376 . S
C2916 C2914 1.394 . S
C2916 C2917 1.369 . S
C2916 C2920 1.531 . S
C2917 C2916 1.369 . S
C2917 C2918 1.410 . S
C2917 C2925 1.503 . S
C2918 C2917 1.410 . S
C2918 C2919 1.392 . S
C2918 C2921 1.511 . S
C2919 C2915 1.376 . S
C2919 C2918 1.392 . S
C2919 H2931 0.929 . S
C2920 C2916 1.531 . S
C2920 H2932 0.960 . S
C2920 H2933 0.962 . S
C2920 H2934 0.960 . S
C2921 C2918 1.511 . S
C2921 H2935 0.961 . S
C2921 H2936 0.961 . S
C2921 H2937 0.961 . S
C2922 C2923 1.370 . S
C2922 C2924 1.363 . S
C2922 H2938 0.931 . S
C2923 C2922 1.370 . S
C2923 C2927 1.408 . S
C2924 C2922 1.363 . S
C2924 C2925 1.370 . S
C2924 C2928 1.524 . S
C2925 C2917 1.503 . S
C2925 C2924 1.370 . S
C2925 C2926 1.403 . S
C2926 C2925 1.403 . S
C2926 C2927 1.404 . S
C2926 C2929 1.539 . S
C2927 C2923 1.408 . S
C2927 C2926 1.404 . S
C2927 H2939 0.930 . S
C2928 C2924 1.524 . S
C2928 H2940 0.956 . S
C2928 H2941 0.961 . S
C2928 H2942 0.961 . S
C2929 C2926 1.539 . S
C2929 H2943 0.958 . S
C2929 H2944 0.961 . S
C2929 H2945 0.960 . S
H2930 C2914 0.931 . S
H2931 C2919 0.929 . S
H2932 C2920 0.960 . S
H2933 C2920 0.962 . S
H2934 C2920 0.960 . S
H2935 C2921 0.961 . S
H2936 C2921 0.961 . S
H2937 C2921 0.961 . S
H2938 C2922 0.931 . S
H2939 C2927 0.930 . S
H2940 C2928 0.956 . S
H2941 C2928 0.961 . S
H2942 C2928 0.961 . S
H2943 C2929 0.958 . S
H2944 C2929 0.961 . S
H2945 C2929 0.960 . S
C2946 C2947 1.391 1_565 S
C2946 C2948 1.394 . S
C2946 H2962 0.931 . S
C2947 C2946 1.391 1_545 S
C2947 C2951 1.376 . S
C2948 C2946 1.394 . S
C2948 C2949 1.369 1_565 S
C2948 C2952 1.531 . S
C2949 C2948 1.369 1_545 S
C2949 C2950 1.410 . S
C2949 C2957 1.503 . S
C2950 C2949 1.410 . S
C2950 C2951 1.392 . S
C2950 C2953 1.511 . S
C2951 C2947 1.376 . S
C2951 C2950 1.392 . S
C2951 H2963 0.929 . S
C2952 C2948 1.531 . S
C2952 H2964 0.960 . S
C2952 H2965 0.962 . S
C2952 H2966 0.960 . S
C2953 C2950 1.511 . S
C2953 H2967 0.961 . S
C2953 H2968 0.961 . S
C2953 H2969 0.961 . S
C2954 C2955 1.370 . S
C2954 C2956 1.363 . S
C2954 H2970 0.931 . S
C2955 C2954 1.370 . S
C2955 C2959 1.408 . S
C2956 C2954 1.363 . S
C2956 C2957 1.370 . S
C2956 C2960 1.524 . S
C2957 C2949 1.503 . S
C2957 C2956 1.370 . S
C2957 C2958 1.403 . S
C2958 C2957 1.403 . S
C2958 C2959 1.404 . S
C2958 C2961 1.539 . S
C2959 C2955 1.408 . S
C2959 C2958 1.404 . S
C2959 H2971 0.930 . S
C2960 C2956 1.524 . S
C2960 H2972 0.956 1_545 S
C2960 H2973 0.961 . S
C2960 H2974 0.961 . S
C2961 C2958 1.539 . S
C2961 H2975 0.958 1_545 S
C2961 H2976 0.961 . S
C2961 H2977 0.960 . S
H2962 C2946 0.931 . S
H2963 C2951 0.929 . S
H2964 C2952 0.960 . S
H2965 C2952 0.962 . S
H2966 C2952 0.960 . S
H2967 C2953 0.961 . S
H2968 C2953 0.961 . S
H2969 C2953 0.961 . S
H2970 C2954 0.931 . S
H2971 C2959 0.930 . S
H2972 C2960 0.956 1_565 S
H2973 C2960 0.961 . S
H2974 C2960 0.961 . S
H2975 C2961 0.958 1_565 S
H2976 C2961 0.961 . S
H2977 C2961 0.960 . S
C2978 C2979 1.382 1_455 S
C2978 C2980 1.411 . S
C2978 H2994 0.954 . S
C2979 C2978 1.382 1_655 S
C2979 C2983 1.376 . S
C2980 C2978 1.411 . S
C2980 C2981 1.319 1_455 S
C2980 C2984 1.552 . S
C2981 C2980 1.319 1_655 S
C2981 C2982 1.410 . S
C2981 C2989 1.503 . S
C2982 C2981 1.410 . S
C2982 C2983 1.392 . S
C2982 C2985 1.511 . S
C2983 C2979 1.376 . S
C2983 C2982 1.392 . S
C2983 H2995 0.929 . S
C2984 C2980 1.552 . S
C2984 H2996 0.960 . S
C2984 H2997 0.962 . S
C2984 H2998 0.960 . S
C2985 C2982 1.511 . S
C2985 H2999 0.961 . S
C2985 H3000 0.961 . S
C2985 H3001 0.961 . S
C2986 C2987 1.370 1_455 S
C2986 C2988 1.363 . S
C2986 H3002 0.931 . S
C2987 C2986 1.370 1_655 S
C2987 C2991 1.408 . S
C2988 C2986 1.363 . S
C2988 C2989 1.370 1_455 S
C2988 C2992 1.524 . S
C2989 C2981 1.503 . S
C2989 C2988 1.370 1_655 S
C2989 C2990 1.403 . S
C2990 C2989 1.403 . S
C2990 C2991 1.404 . S
C2990 C2993 1.539 . S
C2991 C2987 1.408 . S
C2991 C2990 1.404 . S
C2991 H3003 0.930 . S
C2992 C2988 1.524 . S
C2992 H3004 0.956 . S
C2992 H3005 0.961 . S
C2992 H3006 0.961 . S
C2993 C2990 1.539 . S
C2993 H3007 0.958 . S
C2993 H3008 0.961 . S
C2993 H3009 0.960 . S
H2994 C2978 0.954 . S
H2995 C2983 0.929 . S
H2996 C2984 0.960 . S
H2997 C2984 0.962 . S
H2998 C2984 0.960 . S
H2999 C2985 0.961 . S
H3000 C2985 0.961 . S
H3001 C2985 0.961 . S
H3002 C2986 0.931 . S
H3003 C2991 0.930 . S
H3004 C2992 0.956 . S
H3005 C2992 0.961 . S
H3006 C2992 0.961 . S
H3007 C2993 0.958 . S
H3008 C2993 0.961 . S
H3009 C2993 0.960 . S
C3010 C3011 1.391 . S
C3010 C3012 1.394 . S
C3010 H3026 0.931 . S
C3011 C3010 1.391 . S
C3011 C3015 1.376 . S
C3012 C3010 1.394 . S
C3012 C3013 1.369 . S
C3012 C3016 1.531 . S
C3013 C3012 1.369 . S
C3013 C3014 1.410 . S
C3013 C3021 1.503 . S
C3014 C3013 1.410 . S
C3014 C3015 1.392 . S
C3014 C3017 1.511 . S
C3015 C3011 1.376 . S
C3015 C3014 1.392 . S
C3015 H3027 0.929 . S
C3016 C3012 1.531 . S
C3016 H3028 0.960 . S
C3016 H3029 0.962 . S
C3016 H3030 0.960 . S
C3017 C3014 1.511 . S
C3017 H3031 0.961 . S
C3017 H3032 0.961 . S
C3017 H3033 0.961 . S
C3018 C3019 1.370 . S
C3018 C3020 1.363 . S
C3018 H3034 0.931 . S
C3019 C3018 1.370 . S
C3019 C3023 1.408 . S
C3020 C3018 1.363 . S
C3020 C3021 1.370 . S
C3020 C3024 1.524 . S
C3021 C3013 1.503 . S
C3021 C3020 1.370 . S
C3021 C3022 1.403 . S
C3022 C3021 1.403 . S
C3022 C3023 1.404 . S
C3022 C3025 1.539 . S
C3023 C3019 1.408 . S
C3023 C3022 1.404 . S
C3023 H3035 0.930 . S
C3024 C3020 1.524 . S
C3024 H3036 0.956 . S
C3024 H3037 0.961 . S
C3024 H3038 0.961 . S
C3025 C3022 1.539 . S
C3025 H3039 0.958 . S
C3025 H3040 0.961 . S
C3025 H3041 0.960 . S
H3026 C3010 0.931 . S
H3027 C3015 0.929 . S
H3028 C3016 0.960 . S
H3029 C3016 0.962 . S
H3030 C3016 0.960 . S
H3031 C3017 0.961 . S
H3032 C3017 0.961 . S
H3033 C3017 0.961 . S
H3034 C3018 0.931 . S
H3035 C3023 0.930 . S
H3036 C3024 0.956 . S
H3037 C3024 0.961 . S
H3038 C3024 0.961 . S
H3039 C3025 0.958 . S
H3040 C3025 0.961 . S
H3041 C3025 0.960 . S
C3042 C3043 1.391 . S
C3042 C3044 1.394 . S
C3042 H3058 0.931 . S
C3043 C3042 1.391 . S
C3043 C3047 1.376 . S
C3044 C3042 1.394 . S
C3044 C3045 1.369 . S
C3044 C3048 1.531 . S
C3045 C3044 1.369 . S
C3045 C3046 1.410 . S
C3045 C3053 1.503 . S
C3046 C3045 1.410 . S
C3046 C3047 1.392 . S
C3046 C3049 1.511 . S
C3047 C3043 1.376 . S
C3047 C3046 1.392 . S
C3047 H3059 0.929 . S
C3048 C3044 1.531 . S
C3048 H3060 0.960 . S
C3048 H3061 0.962 . S
C3048 H3062 0.960 . S
C3049 C3046 1.511 . S
C3049 H3063 0.961 . S
C3049 H3064 0.961 . S
C3049 H3065 0.961 . S
C3050 C3051 1.370 . S
C3050 C3052 1.363 . S
C3050 H3066 0.931 . S
C3051 C3050 1.370 . S
C3051 C3055 1.408 . S
C3052 C3050 1.363 . S
C3052 C3053 1.370 . S
C3052 C3056 1.524 . S
C3053 C3045 1.503 . S
C3053 C3052 1.370 . S
C3053 C3054 1.403 . S
C3054 C3053 1.403 . S
C3054 C3055 1.404 . S
C3054 C3057 1.539 . S
C3055 C3051 1.408 . S
C3055 C3054 1.404 . S
C3055 H3067 0.930 . S
C3056 C3052 1.524 . S
C3056 H3068 0.956 . S
C3056 H3069 0.961 . S
C3056 H3070 0.961 . S
C3057 C3054 1.539 . S
C3057 H3071 0.958 . S
C3057 H3072 0.961 . S
C3057 H3073 0.960 . S
H3058 C3042 0.931 . S
H3059 C3047 0.929 . S
H3060 C3048 0.960 . S
H3061 C3048 0.962 . S
H3062 C3048 0.960 . S
H3063 C3049 0.961 . S
H3064 C3049 0.961 . S
H3065 C3049 0.961 . S
H3066 C3050 0.931 . S
H3067 C3055 0.930 . S
H3068 C3056 0.956 . S
H3069 C3056 0.961 . S
H3070 C3056 0.961 . S
H3071 C3057 0.958 . S
H3072 C3057 0.961 . S
H3073 C3057 0.960 . S
C3074 C3075 1.391 . S
C3074 C3076 1.394 . S
C3074 H3090 0.931 . S
C3075 C3074 1.391 . S
C3075 C3079 1.376 . S
C3076 C3074 1.394 . S
C3076 C3077 1.369 . S
C3076 C3080 1.531 . S
C3077 C3076 1.369 . S
C3077 C3078 1.410 . S
C3077 C3085 1.503 . S
C3078 C3077 1.410 . S
C3078 C3079 1.392 . S
C3078 C3081 1.511 . S
C3079 C3075 1.376 . S
C3079 C3078 1.392 . S
C3079 H3091 0.929 . S
C3080 C3076 1.531 . S
C3080 H3092 0.960 . S
C3080 H3093 0.962 . S
C3080 H3094 0.960 . S
C3081 C3078 1.511 . S
C3081 H3095 0.961 . S
C3081 H3096 0.961 . S
C3081 H3097 0.961 . S
C3082 C3083 1.370 . S
C3082 C3084 1.363 . S
C3082 H3098 0.931 . S
C3083 C3082 1.370 . S
C3083 C3087 1.408 . S
C3084 C3082 1.363 . S
C3084 C3085 1.370 . S
C3084 C3088 1.524 . S
C3085 C3077 1.503 . S
C3085 C3084 1.370 . S
C3085 C3086 1.403 . S
C3086 C3085 1.403 . S
C3086 C3087 1.404 . S
C3086 C3089 1.539 . S
C3087 C3083 1.408 . S
C3087 C3086 1.404 . S
C3087 H3099 0.930 . S
C3088 C3084 1.524 . S
C3088 H3100 0.956 . S
C3088 H3101 0.961 . S
C3088 H3102 0.961 . S
C3089 C3086 1.539 . S
C3089 H3103 0.958 . S
C3089 H3104 0.961 . S
C3089 H3105 0.960 . S
H3090 C3074 0.931 . S
H3091 C3079 0.929 . S
H3092 C3080 0.960 . S
H3093 C3080 0.962 . S
H3094 C3080 0.960 . S
H3095 C3081 0.961 . S
H3096 C3081 0.961 . S
H3097 C3081 0.961 . S
H3098 C3082 0.931 . S
H3099 C3087 0.930 . S
H3100 C3088 0.956 . S
H3101 C3088 0.961 . S
H3102 C3088 0.961 . S
H3103 C3089 0.958 . S
H3104 C3089 0.961 . S
H3105 C3089 0.960 . S
C3106 C3107 1.391 . S
C3106 C3108 1.394 . S
C3106 H3122 0.931 . S
C3107 C3106 1.391 . S
C3107 C3111 1.376 . S
C3108 C3106 1.394 . S
C3108 C3109 1.369 . S
C3108 C3112 1.531 . S
C3109 C3108 1.369 . S
C3109 C3110 1.410 . S
C3109 C3117 1.503 . S
C3110 C3109 1.410 . S
C3110 C3111 1.392 . S
C3110 C3113 1.511 . S
C3111 C3107 1.376 . S
C3111 C3110 1.392 . S
C3111 H3123 0.929 . S
C3112 C3108 1.531 . S
C3112 H3124 0.960 . S
C3112 H3125 0.962 . S
C3112 H3126 0.960 . S
C3113 C3110 1.511 . S
C3113 H3127 0.961 . S
C3113 H3128 0.961 . S
C3113 H3129 0.961 . S
C3114 C3115 1.370 . S
C3114 C3116 1.363 . S
C3114 H3130 0.931 . S
C3115 C3114 1.370 . S
C3115 C3119 1.408 . S
C3116 C3114 1.363 . S
C3116 C3117 1.370 . S
C3116 C3120 1.524 . S
C3117 C3109 1.503 . S
C3117 C3116 1.370 . S
C3117 C3118 1.403 . S
C3118 C3117 1.403 . S
C3118 C3119 1.404 . S
C3118 C3121 1.539 . S
C3119 C3115 1.408 . S
C3119 C3118 1.404 . S
C3119 H3131 0.930 . S
C3120 C3116 1.524 . S
C3120 H3132 0.956 . S
C3120 H3133 0.961 . S
C3120 H3134 0.961 . S
C3121 C3118 1.539 . S
C3121 H3135 0.958 . S
C3121 H3136 0.961 . S
C3121 H3137 0.960 . S
H3122 C3106 0.931 . S
H3123 C3111 0.929 . S
H3124 C3112 0.960 . S
H3125 C3112 0.962 . S
H3126 C3112 0.960 . S
H3127 C3113 0.961 . S
H3128 C3113 0.961 . S
H3129 C3113 0.961 . S
H3130 C3114 0.931 . S
H3131 C3119 0.930 . S
H3132 C3120 0.956 . S
H3133 C3120 0.961 . S
H3134 C3120 0.961 . S
H3135 C3121 0.958 . S
H3136 C3121 0.961 . S
H3137 C3121 0.960 . S
C3138 C3139 1.391 . S
C3138 C3140 1.394 . S
C3138 H3154 0.931 . S
C3139 C3138 1.391 . S
C3139 C3143 1.376 . S
C3140 C3138 1.394 . S
C3140 C3141 1.369 . S
C3140 C3144 1.531 . S
C3141 C3140 1.369 . S
C3141 C3142 1.410 . S
C3141 C3149 1.503 . S
C3142 C3141 1.410 . S
C3142 C3143 1.392 . S
C3142 C3145 1.511 . S
C3143 C3139 1.376 . S
C3143 C3142 1.392 . S
C3143 H3155 0.929 . S
C3144 C3140 1.531 . S
C3144 H3156 0.960 . S
C3144 H3157 0.962 . S
C3144 H3158 0.960 . S
C3145 C3142 1.511 . S
C3145 H3159 0.961 . S
C3145 H3160 0.961 . S
C3145 H3161 0.961 . S
C3146 C3147 1.370 . S
C3146 C3148 1.363 . S
C3146 H3162 0.931 . S
C3147 C3146 1.370 . S
C3147 C3151 1.408 . S
C3148 C3146 1.363 . S
C3148 C3149 1.370 . S
C3148 C3152 1.524 . S
C3149 C3141 1.503 . S
C3149 C3148 1.370 . S
C3149 C3150 1.403 . S
C3150 C3149 1.403 . S
C3150 C3151 1.404 . S
C3150 C3153 1.539 . S
C3151 C3147 1.408 . S
C3151 C3150 1.404 . S
C3151 H3163 0.930 . S
C3152 C3148 1.524 . S
C3152 H3164 0.956 . S
C3152 H3165 0.961 . S
C3152 H3166 0.961 . S
C3153 C3150 1.539 . S
C3153 H3167 0.958 . S
C3153 H3168 0.961 . S
C3153 H3169 0.960 . S
H3154 C3138 0.931 . S
H3155 C3143 0.929 . S
H3156 C3144 0.960 . S
H3157 C3144 0.962 . S
H3158 C3144 0.960 . S
H3159 C3145 0.961 . S
H3160 C3145 0.961 . S
H3161 C3145 0.961 . S
H3162 C3146 0.931 . S
H3163 C3151 0.930 . S
H3164 C3152 0.956 . S
H3165 C3152 0.961 . S
H3166 C3152 0.961 . S
H3167 C3153 0.958 . S
H3168 C3153 0.961 . S
H3169 C3153 0.960 . S
C3170 C3171 1.391 . S
C3170 C3172 1.394 . S
C3170 H3186 0.931 . S
C3171 C3170 1.391 . S
C3171 C3175 1.376 . S
C3172 C3170 1.394 . S
C3172 C3173 1.369 . S
C3172 C3176 1.531 . S
C3173 C3172 1.369 . S
C3173 C3174 1.410 . S
C3173 C3181 1.503 . S
C3174 C3173 1.410 . S
C3174 C3175 1.392 . S
C3174 C3177 1.511 . S
C3175 C3171 1.376 . S
C3175 C3174 1.392 . S
C3175 H3187 0.929 . S
C3176 C3172 1.531 . S
C3176 H3188 0.960 . S
C3176 H3189 0.962 . S
C3176 H3190 0.960 . S
C3177 C3174 1.511 . S
C3177 H3191 0.961 . S
C3177 H3192 0.961 . S
C3177 H3193 0.961 . S
C3178 C3179 1.370 . S
C3178 C3180 1.363 . S
C3178 H3194 0.931 . S
C3179 C3178 1.370 . S
C3179 C3183 1.408 . S
C3180 C3178 1.363 . S
C3180 C3181 1.370 . S
C3180 C3184 1.524 . S
C3181 C3173 1.503 . S
C3181 C3180 1.370 . S
C3181 C3182 1.403 . S
C3182 C3181 1.403 . S
C3182 C3183 1.404 . S
C3182 C3185 1.539 . S
C3183 C3179 1.408 . S
C3183 C3182 1.404 . S
C3183 H3195 0.930 . S
C3184 C3180 1.524 . S
C3184 H3196 0.956 . S
C3184 H3197 0.961 . S
C3184 H3198 0.961 . S
C3185 C3182 1.539 . S
C3185 H3199 0.958 . S
C3185 H3200 0.961 . S
C3185 H3201 0.960 . S
H3186 C3170 0.931 . S
H3187 C3175 0.929 . S
H3188 C3176 0.960 . S
H3189 C3176 0.962 . S
H3190 C3176 0.960 . S
H3191 C3177 0.961 . S
H3192 C3177 0.961 . S
H3193 C3177 0.961 . S
H3194 C3178 0.931 . S
H3195 C3183 0.930 . S
H3196 C3184 0.956 . S
H3197 C3184 0.961 . S
H3198 C3184 0.961 . S
H3199 C3185 0.958 . S
H3200 C3185 0.961 . S
H3201 C3185 0.960 . S
C3202 C3203 1.391 . S
C3202 C3204 1.394 . S
C3202 H3218 0.931 . S
C3203 C3202 1.391 . S
C3203 C3207 1.376 . S
C3204 C3202 1.394 . S
C3204 C3205 1.369 . S
C3204 C3208 1.531 . S
C3205 C3204 1.369 . S
C3205 C3206 1.410 . S
C3205 C3213 1.503 . S
C3206 C3205 1.410 . S
C3206 C3207 1.392 . S
C3206 C3209 1.511 . S
C3207 C3203 1.376 . S
C3207 C3206 1.392 . S
C3207 H3219 0.929 . S
C3208 C3204 1.531 . S
C3208 H3220 0.960 . S
C3208 H3221 0.962 . S
C3208 H3222 0.960 . S
C3209 C3206 1.511 . S
C3209 H3223 0.961 . S
C3209 H3224 0.961 . S
C3209 H3225 0.961 . S
C3210 C3211 1.370 . S
C3210 C3212 1.363 . S
C3210 H3226 0.931 . S
C3211 C3210 1.370 . S
C3211 C3215 1.408 . S
C3212 C3210 1.363 . S
C3212 C3213 1.370 . S
C3212 C3216 1.524 . S
C3213 C3205 1.503 . S
C3213 C3212 1.370 . S
C3213 C3214 1.403 . S
C3214 C3213 1.403 . S
C3214 C3215 1.404 . S
C3214 C3217 1.539 . S
C3215 C3211 1.408 . S
C3215 C3214 1.404 . S
C3215 H3227 0.930 . S
C3216 C3212 1.524 . S
C3216 H3228 0.956 . S
C3216 H3229 0.961 . S
C3216 H3230 0.961 . S
C3217 C3214 1.539 . S
C3217 H3231 0.958 . S
C3217 H3232 0.961 . S
C3217 H3233 0.960 . S
H3218 C3202 0.931 . S
H3219 C3207 0.929 . S
H3220 C3208 0.960 . S
H3221 C3208 0.962 . S
H3222 C3208 0.960 . S
H3223 C3209 0.961 . S
H3224 C3209 0.961 . S
H3225 C3209 0.961 . S
H3226 C3210 0.931 . S
H3227 C3215 0.930 . S
H3228 C3216 0.956 . S
H3229 C3216 0.961 . S
H3230 C3216 0.961 . S
H3231 C3217 0.958 . S
H3232 C3217 0.961 . S
H3233 C3217 0.960 . S
C3234 C3235 1.357 1_455 S
C3234 C3236 1.423 . S
C3234 H3250 0.939 . S
C3235 C3234 1.357 1_655 S
C3235 C3239 1.376 . S
C3236 C3234 1.423 . S
C3236 C3237 1.369 1_455 S
C3236 C3240 1.531 . S
C3237 C3236 1.369 1_655 S
C3237 C3238 1.410 . S
C3237 C3245 1.503 . S
C3238 C3237 1.410 . S
C3238 C3239 1.392 . S
C3238 C3241 1.511 . S
C3239 C3235 1.376 . S
C3239 C3238 1.392 . S
C3239 H3251 0.929 . S
C3240 C3236 1.531 . S
C3240 H3252 0.960 . S
C3240 H3253 0.962 . S
C3240 H3254 0.960 . S
C3241 C3238 1.511 . S
C3241 H3255 0.961 . S
C3241 H3256 0.961 . S
C3241 H3257 0.961 . S
C3242 C3243 1.370 1_455 S
C3242 C3244 1.363 . S
C3242 H3258 0.931 . S
C3243 C3242 1.370 1_655 S
C3243 C3247 1.408 . S
C3244 C3242 1.363 . S
C3244 C3245 1.370 1_455 S
C3244 C3248 1.524 . S
C3245 C3237 1.503 . S
C3245 C3244 1.370 1_655 S
C3245 C3246 1.403 . S
C3246 C3245 1.403 . S
C3246 C3247 1.404 . S
C3246 C3249 1.539 . S
C3247 C3243 1.408 . S
C3247 C3246 1.404 . S
C3247 H3259 0.930 . S
C3248 C3244 1.524 . S
C3248 H3260 0.956 . S
C3248 H3261 0.961 . S
C3248 H3262 0.961 . S
C3249 C3246 1.539 . S
C3249 H3263 0.958 . S
C3249 H3264 0.961 . S
C3249 H3265 0.960 . S
H3250 C3234 0.939 . S
H3251 C3239 0.929 . S
H3252 C3240 0.960 . S
H3253 C3240 0.962 . S
H3254 C3240 0.960 . S
H3255 C3241 0.961 . S
H3256 C3241 0.961 . S
H3257 C3241 0.961 . S
H3258 C3242 0.931 . S
H3259 C3247 0.930 . S
H3260 C3248 0.956 . S
H3261 C3248 0.961 . S
H3262 C3248 0.961 . S
H3263 C3249 0.958 . S
H3264 C3249 0.961 . S
H3265 C3249 0.960 . S
C3266 C3267 1.391 . S
C3266 C3268 1.394 . S
C3266 H3282 0.931 . S
C3267 C3266 1.391 . S
C3267 C3271 1.376 . S
C3268 C3266 1.394 . S
C3268 C3269 1.369 . S
C3268 C3272 1.531 . S
C3269 C3268 1.369 . S
C3269 C3270 1.410 . S
C3269 C3277 1.503 . S
C3270 C3269 1.410 . S
C3270 C3271 1.392 . S
C3270 C3273 1.511 . S
C3271 C3267 1.376 . S
C3271 C3270 1.392 . S
C3271 H3283 0.929 . S
C3272 C3268 1.531 . S
C3272 H3284 0.960 . S
C3272 H3285 0.962 . S
C3272 H3286 0.960 . S
C3273 C3270 1.511 . S
C3273 H3287 0.961 . S
C3273 H3288 0.961 . S
C3273 H3289 0.961 . S
C3274 C3275 1.370 . S
C3274 C3276 1.363 . S
C3274 H3290 0.931 . S
C3275 C3274 1.370 . S
C3275 C3279 1.408 . S
C3276 C3274 1.363 . S
C3276 C3277 1.370 . S
C3276 C3280 1.524 . S
C3277 C3269 1.503 . S
C3277 C3276 1.370 . S
C3277 C3278 1.403 . S
C3278 C3277 1.403 . S
C3278 C3279 1.404 . S
C3278 C3281 1.539 . S
C3279 C3275 1.408 . S
C3279 C3278 1.404 . S
C3279 H3291 0.930 . S
C3280 C3276 1.524 . S
C3280 H3292 0.956 . S
C3280 H3293 0.961 . S
C3280 H3294 0.961 . S
C3281 C3278 1.539 . S
C3281 H3295 0.958 . S
C3281 H3296 0.961 . S
C3281 H3297 0.960 . S
H3282 C3266 0.931 . S
H3283 C3271 0.929 . S
H3284 C3272 0.960 . S
H3285 C3272 0.962 . S
H3286 C3272 0.960 . S
H3287 C3273 0.961 . S
H3288 C3273 0.961 . S
H3289 C3273 0.961 . S
H3290 C3274 0.931 . S
H3291 C3279 0.930 . S
H3292 C3280 0.956 . S
H3293 C3280 0.961 . S
H3294 C3280 0.961 . S
H3295 C3281 0.958 . S
H3296 C3281 0.961 . S
H3297 C3281 0.960 . S
C3298 C3299 1.391 . S
C3298 C3300 1.394 . S
C3298 H3314 0.931 . S
C3299 C3298 1.391 . S
C3299 C3303 1.378 . S
C3300 C3298 1.394 . S
C3300 C3301 1.369 . S
C3300 C3304 1.531 . S
C3301 C3300 1.369 . S
C3301 C3302 1.407 . S
C3301 C3309 1.503 . S
C3302 C3301 1.407 . S
C3302 C3303 1.407 . S
C3302 C3305 1.512 1_545 S
C3303 C3299 1.378 . S
C3303 C3302 1.407 . S
C3303 H3315 0.914 1_545 S
C3304 C3300 1.531 . S
C3304 H3316 0.960 . S
C3304 H3317 0.962 . S
C3304 H3318 0.960 . S
C3305 C3302 1.512 1_565 S
C3305 H3319 0.961 . S
C3305 H3320 0.961 . S
C3305 H3321 0.961 . S
C3306 C3307 1.370 1_565 S
C3306 C3308 1.363 . S
C3306 H3322 0.931 . S
C3307 C3306 1.370 1_545 S
C3307 C3311 1.408 . S
C3308 C3306 1.363 . S
C3308 C3309 1.370 1_565 S
C3308 C3312 1.524 . S
C3309 C3301 1.503 . S
C3309 C3308 1.370 1_545 S
C3309 C3310 1.403 . S
C3310 C3309 1.403 . S
C3310 C3311 1.404 . S
C3310 C3313 1.539 . S
C3311 C3307 1.408 . S
C3311 C3310 1.404 . S
C3311 H3323 0.930 . S
C3312 C3308 1.524 . S
C3312 H3324 0.956 . S
C3312 H3325 0.961 . S
C3312 H3326 0.961 . S
C3313 C3310 1.539 . S
C3313 H3327 0.958 . S
C3313 H3328 0.961 . S
C3313 H3329 0.960 . S
H3314 C3298 0.931 . S
H3315 C3303 0.914 1_565 S
H3316 C3304 0.960 . S
H3317 C3304 0.962 . S
H3318 C3304 0.960 . S
H3319 C3305 0.961 . S
H3320 C3305 0.961 . S
H3321 C3305 0.961 . S
H3322 C3306 0.931 . S
H3323 C3311 0.930 . S
H3324 C3312 0.956 . S
H3325 C3312 0.961 . S
H3326 C3312 0.961 . S
H3327 C3313 0.958 . S
H3328 C3313 0.961 . S
H3329 C3313 0.960 . S
C1027 C4 1.465 1_655 S
C1035 C854 1.483 1_655 S
C1059 C38 1.669 . S
C1067 C867 1.649 . S
C1099 C896 1.462 1_545 S
C1091 C74 1.481 . S
C1123 C76 1.511 . S
C1131 C909 1.453 . S
C1155 C2 1.621 . S
C1163 C930 1.584 . S
C1187 C40 1.522 . S
C1195 C959 1.465 . S
C1219 C110 1.622 . S
C1227 C938 1.534 . S
C1259 C951 1.451 . S
C1251 C148 1.478 . S
C1291 C917 1.531 . S
C1283 C182 1.570 1_565 S
C1315 C184 1.545 . S
C1323 C888 1.497 1_545 S
C1355 C846 1.434 . S
C1347 C112 1.493 1_655 S
C1379 C146 1.576 . S
C1387 C875 1.586 . S
C1411 C220 1.591 . S
C1419 C980 1.497 . S
C1443 C254 1.693 . S
C1451 C993 1.696 . S
C1483 C1022 1.530 . S
C1475 C290 1.597 . S
C1507 C292 1.524 . S
C1515 C657 1.504 . S
C1539 C218 1.656 . S
C1547 C678 1.649 . S
C1571 C256 1.513 . S
C1579 C707 1.452 . S
C1603 C326 1.642 . S
C1611 C686 1.609 . S
C1635 C364 1.542 . S
C1643 C699 1.468 . S
C1675 C665 1.602 . S
C1667 C398 1.618 . S
C1707 C1014 1.524 . S
C1699 C400 1.597 . S
C1739 C972 1.451 . S
C1731 C328 1.472 . S
C1771 C1001 1.601 . S
C1763 C362 1.650 . S
C1795 C436 1.535 . S
C1803 C728 1.497 . S
C1827 C470 1.693 . S
C1835 C741 1.677 . S
C1859 C506 1.579 . S
C1867 C770 1.512 . S
C1891 C508 1.550 . S
C1899 C783 1.535 . S
C1931 C804 1.638 . S
C1923 C434 1.677 . S
C1963 C833 1.468 . S
C1955 C472 1.560 . S
C1995 C812 1.654 . S
C1987 C542 1.652 . S
C2027 C825 1.476 . S
C2019 C580 1.513 . S
C2051 C614 1.599 . S
C2059 C791 1.584 . S
C2091 C762 1.485 . S
C2083 C616 1.538 . S
C2115 C544 1.510 . S
C2123 C720 1.443 . S
C2155 C749 1.602 . S
C2147 C578 1.592 . S
C2187 C660 1.435 . S
C2179 C14 1.460 . S
C2211 C39 1.480 . S
C2219 C681 1.361 . S
C2251 C709 1.338 . S
C2243 C75 1.463 . S
C2283 C730 1.273 . S
C2275 C86 1.336 . S
C2315 C744 1.390 . S
C2307 C3 1.503 . S
C2347 C772 1.373 . S
C2339 C50 1.452 . S
C2371 C111 1.524 . S
C2379 C765 1.339 . S
C2403 C158 1.388 . S
C2411 C723 1.264 . S
C2435 C183 1.578 . S
C2443 C751 1.494 . S
C2467 C194 1.494 . S
C2475 C688 1.466 . S
C2507 C702 1.270 . S
C2499 C122 1.389 . S
C2531 C147 1.435 . S
C2539 C667 1.349 . S
C2571 C786 1.407 . S
C2563 C230 1.499 . S
C2595 C255 1.545 . S
C2603 C807 1.420 . S
C2627 C291 1.480 . S
C2635 C835 1.383 . S
C2667 C856 1.273 . S
C2659 C302 1.330 . S
C2691 C219 1.504 . S
C2699 C870 1.386 . S
C2723 C266 1.360 . S
C2731 C898 1.359 . S
C2755 C327 1.419 . S
C2763 C891 1.277 . S
C2787 C374 1.401 . S
C2795 C849 1.330 . S
C2827 C877 1.493 . S
C2819 C399 1.570 . S
C2851 C410 1.475 . S
C2859 C814 1.431 . S
C2883 C338 1.458 . S
C2891 C828 1.324 . S
C2923 C793 1.414 . S
C2915 C363 1.492 . S
C2955 C912 1.371 1_545 S
C2947 C446 1.411 . S
C2979 C471 1.441 . S
C2987 C933 1.357 1_655 S
C3011 C507 1.445 . S
C3019 C961 1.314 . S
C3051 C982 1.294 . S
C3043 C518 1.382 . S
C3083 C996 1.463 . S
C3075 C435 1.544 . S
C3107 C482 1.500 . S
C3115 C1024 1.447 . S
C3139 C543 1.491 . S
C3147 C1017 1.308 . S
C3171 C590 1.491 . S
C3179 C975 1.360 . S
C3211 C1003 1.514 . S
C3203 C615 1.604 . S
C3243 C940 1.374 1_655 S
C3235 C626 1.360 . S
C3275 C954 1.299 . S
C3267 C554 1.413 . S
C3299 C579 1.400 . S
C3307 C919 1.344 1_545 S
