# Generated by pormake.
# Topology eea, (3,6)-cn, num edge types: 1
# Building blocks:
#     Node 0, Type 0, BuildingBlock: BETDAH_clean_linker_0, # of connection points: 3
#     Node 1, Type 0, BuildingBlock: BETDAH_clean_linker_0, # of connection points: 3
#     Node 2, Type 0, BuildingBlock: BETDAH_clean_linker_0, # of connection points: 3
#     Node 3, Type 0, BuildingBlock: BETDAH_clean_linker_0, # of connection points: 3
#     Node 4, Type 0, BuildingBlock: BETDAH_clean_linker_0, # of connection points: 3
#     Node 5, Type 0, BuildingBlock: BETDAH_clean_linker_0, # of connection points: 3
#     Node 6, Type 0, BuildingBlock: BETDAH_clean_linker_0, # of connection points: 3
#     Node 7, Type 0, BuildingBlock: BETDAH_clean_linker_0, # of connection points: 3
#     Node 8, Type 0, BuildingBlock: BETDAH_clean_linker_0, # of connection points: 3
#     Node 9, Type 0, BuildingBlock: BETDAH_clean_linker_0, # of connection points: 3
#     Node 10, Type 0, BuildingBlock: BETDAH_clean_linker_0, # of connection points: 3
#     Node 11, Type 0, BuildingBlock: BETDAH_clean_linker_0, # of connection points: 3
#     Node 12, Type 0, BuildingBlock: BETDAH_clean_linker_0, # of connection points: 3
#     Node 13, Type 0, BuildingBlock: BETDAH_clean_linker_0, # of connection points: 3
#     Node 14, Type 0, BuildingBlock: BETDAH_clean_linker_0, # of connection points: 3
#     Node 15, Type 0, BuildingBlock: BETDAH_clean_linker_0, # of connection points: 3
#     Node 16, Type 0, BuildingBlock: BETDAH_clean_linker_0, # of connection points: 3
#     Node 17, Type 0, BuildingBlock: BETDAH_clean_linker_0, # of connection points: 3
#     Node 18, Type 1, BuildingBlock: KUMBOL_clean_sbu_0, # of connection points: 6
#     Node 19, Type 1, BuildingBlock: KUMBOL_clean_sbu_0, # of connection points: 6
#     Node 20, Type 1, BuildingBlock: KUMBOL_clean_sbu_0, # of connection points: 6
#     Node 21, Type 1, BuildingBlock: KUMBOL_clean_sbu_0, # of connection points: 6
#     Node 22, Type 1, BuildingBlock: KUMBOL_clean_sbu_0, # of connection points: 6
#     Node 23, Type 1, BuildingBlock: KUMBOL_clean_sbu_0, # of connection points: 6
#     Node 24, Type 1, BuildingBlock: KUMBOL_clean_sbu_0, # of connection points: 6
#     Node 25, Type 1, BuildingBlock: KUMBOL_clean_sbu_0, # of connection points: 6
#     Node 26, Type 1, BuildingBlock: KUMBOL_clean_sbu_0, # of connection points: 6
#     Edge 27, Type (0, 1), BuildingBlock: OJICUG_clean_linker_0, # of connection points: 2
#     Edge 28, Type (0, 1), BuildingBlock: OJICUG_clean_linker_0, # of connection points: 2
#     Edge 29, Type (0, 1), BuildingBlock: OJICUG_clean_linker_0, # of connection points: 2
#     Edge 30, Type (0, 1), BuildingBlock: OJICUG_clean_linker_0, # of connection points: 2
#     Edge 31, Type (0, 1), BuildingBlock: OJICUG_clean_linker_0, # of connection points: 2
#     Edge 32, Type (0, 1), BuildingBlock: OJICUG_clean_linker_0, # of connection points: 2
#     Edge 33, Type (0, 1), BuildingBlock: OJICUG_clean_linker_0, # of connection points: 2
#     Edge 34, Type (0, 1), BuildingBlock: OJICUG_clean_linker_0, # of connection points: 2
#     Edge 35, Type (0, 1), BuildingBlock: OJICUG_clean_linker_0, # of connection points: 2
#     Edge 36, Type (0, 1), BuildingBlock: OJICUG_clean_linker_0, # of connection points: 2
#     Edge 37, Type (0, 1), BuildingBlock: OJICUG_clean_linker_0, # of connection points: 2
#     Edge 38, Type (0, 1), BuildingBlock: OJICUG_clean_linker_0, # of connection points: 2
#     Edge 39, Type (0, 1), BuildingBlock: OJICUG_clean_linker_0, # of connection points: 2
#     Edge 40, Type (0, 1), BuildingBlock: OJICUG_clean_linker_0, # of connection points: 2
#     Edge 41, Type (0, 1), BuildingBlock: OJICUG_clean_linker_0, # of connection points: 2
#     Edge 42, Type (0, 1), BuildingBlock: OJICUG_clean_linker_0, # of connection points: 2
#     Edge 43, Type (0, 1), BuildingBlock: OJICUG_clean_linker_0, # of connection points: 2
#     Edge 44, Type (0, 1), BuildingBlock: OJICUG_clean_linker_0, # of connection points: 2
#     Edge 45, Type (0, 1), BuildingBlock: OJICUG_clean_linker_0, # of connection points: 2
#     Edge 46, Type (0, 1), BuildingBlock: OJICUG_clean_linker_0, # of connection points: 2
#     Edge 47, Type (0, 1), BuildingBlock: OJICUG_clean_linker_0, # of connection points: 2
#     Edge 48, Type (0, 1), BuildingBlock: OJICUG_clean_linker_0, # of connection points: 2
#     Edge 49, Type (0, 1), BuildingBlock: OJICUG_clean_linker_0, # of connection points: 2
#     Edge 50, Type (0, 1), BuildingBlock: OJICUG_clean_linker_0, # of connection points: 2
#     Edge 51, Type (0, 1), BuildingBlock: OJICUG_clean_linker_0, # of connection points: 2
#     Edge 52, Type (0, 1), BuildingBlock: OJICUG_clean_linker_0, # of connection points: 2
#     Edge 53, Type (0, 1), BuildingBlock: OJICUG_clean_linker_0, # of connection points: 2
#     Edge 54, Type (0, 1), BuildingBlock: OJICUG_clean_linker_0, # of connection points: 2
#     Edge 55, Type (0, 1), BuildingBlock: OJICUG_clean_linker_0, # of connection points: 2
#     Edge 56, Type (0, 1), BuildingBlock: OJICUG_clean_linker_0, # of connection points: 2
#     Edge 57, Type (0, 1), BuildingBlock: OJICUG_clean_linker_0, # of connection points: 2
#     Edge 58, Type (0, 1), BuildingBlock: OJICUG_clean_linker_0, # of connection points: 2
#     Edge 59, Type (0, 1), BuildingBlock: OJICUG_clean_linker_0, # of connection points: 2
#     Edge 60, Type (0, 1), BuildingBlock: OJICUG_clean_linker_0, # of connection points: 2
#     Edge 61, Type (0, 1), BuildingBlock: OJICUG_clean_linker_0, # of connection points: 2
#     Edge 62, Type (0, 1), BuildingBlock: OJICUG_clean_linker_0, # of connection points: 2
#     Edge 63, Type (0, 1), BuildingBlock: OJICUG_clean_linker_0, # of connection points: 2
#     Edge 64, Type (0, 1), BuildingBlock: OJICUG_clean_linker_0, # of connection points: 2
#     Edge 65, Type (0, 1), BuildingBlock: OJICUG_clean_linker_0, # of connection points: 2
#     Edge 66, Type (0, 1), BuildingBlock: OJICUG_clean_linker_0, # of connection points: 2
#     Edge 67, Type (0, 1), BuildingBlock: OJICUG_clean_linker_0, # of connection points: 2
#     Edge 68, Type (0, 1), BuildingBlock: OJICUG_clean_linker_0, # of connection points: 2
#     Edge 69, Type (0, 1), BuildingBlock: OJICUG_clean_linker_0, # of connection points: 2
#     Edge 70, Type (0, 1), BuildingBlock: OJICUG_clean_linker_0, # of connection points: 2
#     Edge 71, Type (0, 1), BuildingBlock: OJICUG_clean_linker_0, # of connection points: 2
#     Edge 72, Type (0, 1), BuildingBlock: OJICUG_clean_linker_0, # of connection points: 2
#     Edge 73, Type (0, 1), BuildingBlock: OJICUG_clean_linker_0, # of connection points: 2
#     Edge 74, Type (0, 1), BuildingBlock: OJICUG_clean_linker_0, # of connection points: 2
#     Edge 75, Type (0, 1), BuildingBlock: OJICUG_clean_linker_0, # of connection points: 2
#     Edge 76, Type (0, 1), BuildingBlock: OJICUG_clean_linker_0, # of connection points: 2
#     Edge 77, Type (0, 1), BuildingBlock: OJICUG_clean_linker_0, # of connection points: 2
#     Edge 78, Type (0, 1), BuildingBlock: OJICUG_clean_linker_0, # of connection points: 2
#     Edge 79, Type (0, 1), BuildingBlock: OJICUG_clean_linker_0, # of connection points: 2
#     Edge 80, Type (0, 1), BuildingBlock: OJICUG_clean_linker_0, # of connection points: 2
# Relax obj value: 0.024
# Max RMSD: 0.184
# Mean RMSD: 0.130
data_MOF--net-eea--node1-KUMBOL_clean_sbu_0--node2-BETDAH_clean_linker_0--edge1-OJICUG_clean_linker_0
_symmetry_space_group_name_H-M    P1
_symmetry_Int_Tables_number       1
_symmetry_cell_setting            triclinic
loop_
_symmetry_equiv_pos_as_xyz
'x, y, z'
_cell_length_a     39.303809
_cell_length_b     40.589171
_cell_length_c     51.555112
_cell_angle_alpha  89.860208
_cell_angle_beta   89.828649
_cell_angle_gamma 119.79488
loop_
_atom_site_label
_atom_site_type_symbol
_atom_site_fract_x
_atom_site_fract_y
_atom_site_fract_z
_atom_type_partial_charge
H0 H 0.27091 0.06149 0.43875 0.0
H1 H 0.28802 0.17333 0.42421 0.0
H2 H 0.23851 0.08852 0.36529 0.0
C3 C 0.26744 0.0811 0.42626 0.0
C4 C 0.25211 0.06968 0.40114 0.0
C5 C 0.28049 0.1184 0.4349 0.0
C6 C 0.27768 0.14437 0.4181 0.0
C7 C 0.2629 0.13332 0.39295 0.0
C8 C 0.25027 0.09635 0.38469 0.0
N9 N 0.26348 0.15966 0.37472 0.0
C10 C 0.24684 0.18224 0.37934 0.0
H11 H 0.95337 0.2084 0.43844 0.0
H12 H 0.86694 0.0893 0.43696 0.0
H13 H 0.95822 0.13581 0.37953 0.0
C14 C 0.94145 0.18068 0.42959 0.0
C15 C 0.95989 0.17622 0.40741 0.0
C16 C 0.90783 0.14954 0.44053 0.0
C17 C 0.89236 0.11368 0.42865 0.0
C18 C 0.91096 0.10889 0.40682 0.0
C19 C 0.94457 0.13998 0.39655 0.0
N20 N 0.89802 0.07297 0.39525 0.0
C21 C 0.85952 0.04328 0.39496 0.0
H22 H 0.808 0.75622 0.44045 0.0
H23 H 0.9247 0.77356 0.42949 0.0
H24 H 0.87452 0.81464 0.37258 0.0
C25 C 0.8348 0.76753 0.42913 0.0
C26 C 0.83735 0.78595 0.40546 0.0
C27 C 0.86609 0.76305 0.43825 0.0
C28 C 0.90051 0.777 0.42289 0.0
C29 C 0.9037 0.79599 0.3992 0.0
C30 C 0.87217 0.8005 0.39092 0.0
N31 N 0.93762 0.81112 0.38287 0.0
C32 C 0.97139 0.80827 0.38591 0.0
H33 H 0.0611 0.25169 0.60103 0.0
H34 H 0.15721 0.22979 0.61042 0.0
H35 H 0.06647 0.19186 0.6684 0.0
C36 C 0.07572 0.23959 0.61202 0.0
C37 C 0.05921 0.22121 0.6358 0.0
C38 C 0.11101 0.24284 0.6024 0.0
C39 C 0.1302 0.2277 0.6174 0.0
C40 C 0.11407 0.20921 0.64122 0.0
C41 C 0.07854 0.20581 0.64998 0.0
N42 N 0.13218 0.19348 0.65712 0.0
C43 C 0.16884 0.19639 0.6535 0.0
H44 H 0.73965 0.80167 0.60105 0.0
H45 H 0.73802 0.90555 0.61589 0.0
H46 H 0.78144 0.86038 0.67357 0.0
C47 C 0.74638 0.82569 0.61339 0.0
C48 C 0.76262 0.82779 0.63811 0.0
C49 C 0.7371 0.85346 0.60501 0.0
C50 C 0.74473 0.88379 0.62179 0.0
C51 C 0.75988 0.88542 0.64666 0.0
C52 C 0.76878 0.85774 0.65452 0.0
N53 N 0.76441 0.91313 0.66504 0.0
C54 C 0.776 0.95059 0.65915 0.0
H55 H 0.19873 0.94387 0.59875 0.0
H56 H 0.08413 0.84531 0.60858 0.0
H57 H 0.12751 0.93468 0.66483 0.0
C58 C 0.17155 0.92863 0.60958 0.0
C59 C 0.16716 0.94372 0.63306 0.0
C60 C 0.14175 0.89333 0.60033 0.0
C61 C 0.10721 0.87254 0.61532 0.0
C62 C 0.10246 0.88777 0.63875 0.0
C63 C 0.13216 0.92313 0.6471 0.0
N64 N 0.06851 0.86939 0.65476 0.0
C65 C 0.03623 0.83339 0.65172 0.0
H66 H 0.92994 0.39357 0.77625 0.0
H67 H 0.94913 0.50565 0.75915 0.0
H68 H 0.90523 0.42028 0.70027 0.0
C69 C 0.92838 0.41346 0.76295 0.0
C70 C 0.91465 0.40176 0.73756 0.0
C71 C 0.94147 0.45105 0.77097 0.0
C72 C 0.93916 0.4766 0.75345 0.0
C73 C 0.92568 0.46511 0.72807 0.0
C74 C 0.91416 0.42817 0.72022 0.0
N75 N 0.92664 0.49099 0.70926 0.0
C76 C 0.91084 0.51446 0.71328 0.0
H77 H 0.6197 0.5411 0.77158 0.0
H78 H 0.53396 0.42186 0.76928 0.0
H79 H 0.62533 0.46984 0.71196 0.0
C80 C 0.608 0.51355 0.76251 0.0
C81 C 0.62661 0.50962 0.74024 0.0
C82 C 0.57448 0.48211 0.77326 0.0
C83 C 0.55931 0.44646 0.76112 0.0
C84 C 0.57808 0.4422 0.73917 0.0
C85 C 0.61156 0.4736 0.72908 0.0
N86 N 0.56537 0.40654 0.72726 0.0
C87 C 0.52706 0.3765 0.72721 0.0
H88 H 0.47162 0.08332 0.77124 0.0
H89 H 0.58997 0.10355 0.76449 0.0
H90 H 0.54467 0.15008 0.70793 0.0
C91 C 0.49935 0.0956 0.76092 0.0
C92 C 0.50409 0.11682 0.73826 0.0
C93 C 0.52986 0.09043 0.77073 0.0
C94 C 0.56631 0.10747 0.7574 0.0
C95 C 0.57163 0.12909 0.73462 0.0
C96 C 0.54056 0.13381 0.72553 0.0
N97 N 0.6073 0.14688 0.71998 0.0
C98 C 0.64013 0.1423 0.72236 0.0
H99 H 0.72607 0.58601 0.93495 0.0
H100 H 0.82292 0.56526 0.94472 0.0
H101 H 0.73203 0.52698 1.00261 0.0
C102 C 0.74088 0.57419 0.94603 0.0
C103 C 0.72442 0.55586 0.96986 0.0
C104 C 0.77636 0.57775 0.93651 0.0
C105 C 0.79577 0.56296 0.95163 0.0
C106 C 0.77974 0.54458 0.97549 0.0
C107 C 0.74404 0.54087 0.98416 0.0
N108 N 0.79815 0.5293 0.99153 0.0
C109 C 0.83488 0.53231 0.98793 0.0
H110 H 0.41033 0.13575 0.93365 0.0
H111 H 0.40835 0.2394 0.94874 0.0
H112 H 0.45219 0.19431 1.00618 0.0
C113 C 0.41702 0.15972 0.94601 0.0
C114 C 0.43332 0.16181 0.9707 0.0
C115 C 0.40762 0.18745 0.93772 0.0
C116 C 0.41517 0.21769 0.95457 0.0
C117 C 0.4304 0.21927 0.97941 0.0
C118 C 0.43946 0.19168 0.98717 0.0
N119 N 0.43494 0.24687 0.99789 0.0
C120 C 0.44564 0.28413 0.99207 0.0
H121 H 0.86849 0.27899 0.93303 0.0
H122 H 0.75474 0.17912 0.94236 0.0
H123 H 0.79615 0.268 0.99888 0.0
C124 C 0.84126 0.26329 0.94375 0.0
C125 C 0.83628 0.27799 0.96722 0.0
C126 C 0.81199 0.22783 0.93436 0.0
C127 C 0.77741 0.2065 0.9492 0.0
C128 C 0.77212 0.22129 0.97264 0.0
C129 C 0.80127 0.25681 0.98114 0.0
N130 N 0.73819 0.20223 0.98859 0.0
C131 C 0.70605 0.16631 0.98503 0.0
H132 H 0.604 0.72808 0.10598 0.0
H133 H 0.62272 0.84045 0.09122 0.0
H134 H 0.57218 0.75553 0.03245 0.0
C135 C 0.60085 0.74784 0.09345 0.0
C136 C 0.58543 0.73647 0.06834 0.0
C137 C 0.61437 0.78524 0.10203 0.0
C138 C 0.61201 0.8114 0.08517 0.0
C139 C 0.59713 0.8004 0.06004 0.0
C140 C 0.58399 0.7633 0.05184 0.0
N141 N 0.59813 0.82687 0.04176 0.0
C142 C 0.58131 0.84933 0.0462 0.0
H143 H 0.28948 0.87901 0.10421 0.0
H144 H 0.19417 0.76401 0.09674 0.0
H145 H 0.28385 0.81235 0.03802 0.0
C146 C 0.27469 0.85267 0.09346 0.0
C147 C 0.2911 0.84933 0.06999 0.0
C148 C 0.23984 0.82199 0.10349 0.0
C149 C 0.2213 0.7876 0.08954 0.0
C150 C 0.23728 0.7844 0.0658 0.0
C151 C 0.27202 0.81509 0.05641 0.0
N152 N 0.21927 0.75145 0.05011 0.0
C153 C 0.18612 0.71703 0.05604 0.0
H154 H 0.13475 0.41395 0.104 0.0
H155 H 0.25354 0.43521 0.09778 0.0
H156 H 0.20824 0.48154 0.0411 0.0
C157 C 0.16256 0.4264 0.09377 0.0
C158 C 0.16739 0.44778 0.07117 0.0
C159 C 0.19318 0.4215 0.10373 0.0
C160 C 0.22978 0.43887 0.09057 0.0
C161 C 0.23517 0.46059 0.06782 0.0
C162 C 0.20402 0.46508 0.05862 0.0
N163 N 0.27106 0.47892 0.05344 0.0
C164 C 0.30395 0.4744 0.05571 0.0
H165 H 0.39415 0.92205 0.26879 0.0
H166 H 0.48968 0.89885 0.27504 0.0
H167 H 0.39888 0.85722 0.33333 0.0
C168 C 0.40891 0.90957 0.27922 0.0
C169 C 0.39215 0.88944 0.30243 0.0
C170 C 0.44388 0.91299 0.26891 0.0
C171 C 0.46257 0.89607 0.28248 0.0
C172 C 0.44636 0.87603 0.30586 0.0
C173 C 0.41107 0.87251 0.31533 0.0
N174 N 0.46398 0.8587 0.32063 0.0
C175 C 0.50124 0.86282 0.31742 0.0
H176 H 0.07252 0.46769 0.26799 0.0
H177 H 0.07347 0.57264 0.28355 0.0
H178 H 0.1159 0.5256 0.34057 0.0
C179 C 0.07979 0.49172 0.28045 0.0
C180 C 0.09611 0.49332 0.30505 0.0
C181 C 0.07121 0.52007 0.27235 0.0
C182 C 0.07959 0.55043 0.28928 0.0
C183 C 0.09488 0.55157 0.31404 0.0
C184 C 0.10308 0.52333 0.32163 0.0
N185 N 0.10066 0.57959 0.33251 0.0
C186 C 0.11141 0.61683 0.32657 0.0
H187 H 0.53177 0.61089 0.26608 0.0
H188 H 0.41738 0.51201 0.27567 0.0
H189 H 0.46 0.60131 0.33195 0.0
C190 C 0.50455 0.59555 0.27685 0.0
C191 C 0.49991 0.61058 0.30029 0.0
C192 C 0.47492 0.5602 0.26756 0.0
C193 C 0.44032 0.53929 0.28246 0.0
C194 C 0.43533 0.55441 0.30585 0.0
C195 C 0.46485 0.58985 0.31425 0.0
N196 N 0.40129 0.53583 0.32176 0.0
C197 C 0.36917 0.49979 0.31853 0.0
Gd198 Gd 0.51449 0.02403 0.05221 0.0
Gd199 Gd 0.48506 0.97901 0.98698 0.0
C200 C 0.36656 0.87204 0.9756 0.0
C201 C 0.38573 0.82507 0.96536 0.0
C202 C 0.43535 0.89065 0.97335 0.0
C203 C 0.40645 0.89994 0.97771 0.0
C204 C 0.42539 0.85335 0.96645 0.0
C205 C 0.35635 0.83439 0.97 0.0
C206 C 0.33821 0.88305 0.97847 0.0
C207 C 0.35001 0.92128 0.98232 0.0
N208 N 0.41738 0.93666 0.98277 0.0
C209 C 0.38996 0.94795 0.98402 0.0
H210 H 0.39859 0.97734 0.98711 0.0
C211 C 0.50279 0.9121 0.96692 0.0
N212 N 0.47331 0.91867 0.97445 0.0
C213 C 0.49442 0.87554 0.96 0.0
C214 C 0.45558 0.84589 0.96011 0.0
H215 H 0.53286 0.93494 0.96697 0.0
H216 H 0.32587 0.81249 0.96853 0.0
H217 H 0.60153 0.02648 0.0507 0.0
H218 H 0.30725 0.86247 0.9771 0.0
H219 H 0.32835 0.93023 0.98406 0.0
H220 H 0.37746 0.79614 0.96036 0.0
H221 H 0.46778 0.06698 0.07604 0.0
H222 H 0.6928 0.14085 0.06196 0.0
H223 H 0.67158 0.07333 0.05387 0.0
H224 H 0.62266 0.20637 0.08162 0.0
H225 H 0.51791 0.87023 0.95465 0.0
H226 H 0.44916 0.81761 0.95469 0.0
H227 H 0.67424 0.19053 0.0719 0.0
H228 H 0.48255 0.13113 0.08948 0.0
N229 N 0.58248 0.06677 0.05629 0.0
C230 C 0.66182 0.12031 0.06061 0.0
C231 C 0.64996 0.08223 0.05613 0.0
C232 C 0.6335 0.13118 0.06416 0.0
C233 C 0.59358 0.1033 0.06207 0.0
C234 C 0.60998 0.05563 0.0544 0.0
N235 N 0.52701 0.08396 0.06677 0.0
C236 C 0.56481 0.11223 0.06743 0.0
C237 C 0.50599 0.12629 0.08317 0.0
C238 C 0.54465 0.15621 0.08261 0.0
C239 C 0.49773 0.09001 0.07555 0.0
C240 C 0.57476 0.14924 0.07515 0.0
H241 H 0.55104 0.18425 0.08867 0.0
O242 O 0.48138 0.00666 0.08853 0.0
O243 O 0.46822 0.9777 0.02855 0.0
O244 O 0.46748 0.02389 0.99247 0.0
O245 O 0.50278 0.06332 0.02733 0.0
O246 O 0.45016 0.0042 0.05489 0.0
O247 O 0.53276 0.00116 0.08415 0.0
O248 O 0.51973 0.99625 0.95145 0.0
O249 O 0.53019 0.02591 1.01052 0.0
O250 O 0.53395 0.98063 0.0445 0.0
O251 O 0.4921 0.93851 0.0133 0.0
O252 O 0.55028 0.00129 0.98413 0.0
O253 O 0.46482 0.99614 0.95282 0.0
C254 C 0.43833 0.97741 0.03803 0.0
C255 C 0.61439 0.17765 0.07601 0.0
C256 C 0.64374 0.16862 0.07049 0.0
C257 C 0.50509 0.99756 0.09988 0.0
C258 C 0.51697 0.01168 0.12666 0.0
C259 C 0.54522 0.04978 0.13069 0.0
C260 C 0.49966 0.98744 0.14838 0.0
C261 C 0.51015 0.0016 0.17394 0.0
C262 C 0.55598 0.06376 0.1558 0.0
C263 C 0.53859 0.04003 0.17721 0.0
C264 C 0.48064 0.05535 1.0063 0.0
C265 C 0.56083 0.02823 1.00079 0.0
C266 C 0.4947 0.00185 0.93845 0.0
C267 C 0.48641 0.98661 0.91173 0.0
C268 C 0.46697 0.94728 0.90786 0.0
C269 C 0.49898 0.01125 0.88992 0.0
C270 C 0.49181 0.99646 0.86439 0.0
C271 C 0.46045 0.93253 0.88284 0.0
C272 C 0.47279 0.95675 0.86134 0.0
C273 C 0.51759 0.94747 0.03241 0.0
H274 H 0.55891 0.06877 0.1144 0.0
H275 H 0.47758 0.95802 0.1454 0.0
H276 H 0.57785 0.09323 0.15869 0.0
H277 H 0.54761 0.05176 0.19646 0.0
H278 H 0.45705 0.92793 0.92417 0.0
H279 H 0.51364 0.04168 0.89286 0.0
H280 H 0.44573 0.9021 0.88007 0.0
H281 H 0.46749 0.94424 0.84221 0.0
Gd282 Gd 0.98189 0.48774 0.05349 0.0
Gd283 Gd 0.03177 0.50515 0.98987 0.0
C284 C 0.144 0.49911 0.98048 0.0
C285 C 0.19256 0.56519 0.97243 0.0
C286 C 0.124 0.54669 0.97856 0.0
C287 C 0.11462 0.50934 0.98216 0.0
C288 C 0.16292 0.57495 0.97315 0.0
C289 C 0.18312 0.52734 0.97611 0.0
C290 C 0.13304 0.46073 0.9827 0.0
C291 C 0.09349 0.43358 0.98566 0.0
N292 N 0.07651 0.48278 0.98627 0.0
C293 C 0.0654 0.44512 0.98708 0.0
H294 H 0.03501 0.42382 0.98956 0.0
C295 C 0.10167 0.59071 0.97309 0.0
N296 N 0.09465 0.55511 0.97931 0.0
C297 C 0.13986 0.61978 0.96776 0.0
C298 C 0.17071 0.61197 0.96808 0.0
H299 H 0.07791 0.59688 0.97305 0.0
H300 H 0.20615 0.52008 0.97501 0.0
H301 H 0.98023 0.56997 0.0523 0.0
H302 H 0.15473 0.45171 0.98164 0.0
H303 H 0.08463 0.40376 0.98698 0.0
H304 H 0.22273 0.58655 0.96853 0.0
H305 H 0.93574 0.39929 0.07653 0.0
H306 H 0.86156 0.54496 0.06076 0.0
H307 H 0.93192 0.59155 0.05465 0.0
H308 H 0.7918 0.41114 0.07795 0.0
H309 H 0.14549 0.64817 0.96347 0.0
H310 H 0.20025 0.63452 0.96389 0.0
H311 H 0.80924 0.47731 0.06887 0.0
H312 H 0.86849 0.34971 0.08855 0.0
N313 N 0.93785 0.51131 0.05635 0.0
C314 C 0.8827 0.53524 0.05975 0.0
C315 C 0.92239 0.56162 0.05638 0.0
C316 C 0.87096 0.49677 0.06265 0.0
C317 C 0.89966 0.48564 0.06105 0.0
C318 C 0.94976 0.54917 0.05505 0.0
N319 N 0.91891 0.43987 0.06619 0.0
C320 C 0.88981 0.44857 0.066 0.0
C321 C 0.874 0.37732 0.08207 0.0
C322 C 0.84323 0.38511 0.08043 0.0
C323 C 0.91202 0.40544 0.07529 0.0
C324 C 0.85106 0.42138 0.07288 0.0
H325 H 0.81385 0.3634 0.08586 0.0
O326 O 0.99586 0.47154 0.09048 0.0
O327 O 0.03165 0.49 0.03134 0.0
O328 O 0.98584 0.44306 0.99462 0.0
O329 O 0.94266 0.43791 0.02799 0.0
O330 O 1.00441 0.44644 0.05777 0.0
O331 O 1.00146 0.52695 0.08595 0.0
O332 O 0.02028 0.52342 0.95293 0.0
O333 O 0.98121 0.50128 1.0118 0.0
O334 O 0.02817 0.55025 0.04707 0.0
O335 O 0.07269 0.54936 0.01762 0.0
O336 O 0.00739 0.54528 0.98567 0.0
O337 O 0.01463 0.46765 0.95657 0.0
C338 C 0.03284 0.46208 0.04129 0.0
C339 C 0.82186 0.43173 0.07304 0.0
C340 C 0.83179 0.4694 0.06791 0.0
C341 C 1.00302 0.50284 0.10196 0.0
C342 C 0.98431 0.49846 0.12749 0.0
C343 C 0.94434 0.48685 0.12931 0.0
C344 C 0.0064 0.50526 0.15028 0.0
C345 C 0.98859 0.50027 0.1749 0.0
C346 C 0.92642 0.48159 0.1535 0.0
C347 C 0.94821 0.48804 0.17613 0.0
C348 C 0.95217 0.42446 1.00744 0.0
C349 C 0.97859 0.52831 1.00176 0.0
C350 C 0.01337 0.49242 0.94099 0.0
C351 C 0.03198 0.49748 0.9154 0.0
C352 C 0.07242 0.51143 0.9132 0.0
C353 C 0.0091 0.48894 0.89285 0.0
C354 C 0.02655 0.49456 0.8681 0.0
C355 C 0.08991 0.51702 0.8888 0.0
C356 C 0.06725 0.50873 0.86639 0.0
C357 C 0.06356 0.56584 0.0363 0.0
H358 H 0.92696 0.48177 0.11206 0.0
H359 H 0.03744 0.51479 0.14875 0.0
H360 H 0.89543 0.47227 0.15474 0.0
H361 H 0.93321 0.48296 0.19461 0.0
H362 H 0.09043 0.51802 0.9303 0.0
H363 H 0.97788 0.47843 0.89461 0.0
H364 H 0.12114 0.52773 0.88723 0.0
H365 H 0.08153 0.51282 0.84771 0.0
Gd366 Gd 0.49997 0.52035 0.98705 0.0
Gd367 Gd 0.52834 0.50307 0.05176 0.0
C368 C 0.64569 0.50805 0.06411 0.0
C369 C 0.62534 0.44225 0.0742 0.0
C370 C 0.5766 0.46118 0.06588 0.0
C371 C 0.606 0.49821 0.06174 0.0
C372 C 0.58586 0.43292 0.07271 0.0
C373 C 0.6552 0.47974 0.06986 0.0
C374 C 0.67457 0.54616 0.06117 0.0
C375 C 0.6635 0.57349 0.05684 0.0
N376 N 0.59577 0.52487 0.05636 0.0
C377 C 0.62373 0.56236 0.05483 0.0
H378 H 0.61569 0.5838 0.05134 0.0
C379 C 0.50879 0.41807 0.07115 0.0
N380 N 0.5388 0.45315 0.06433 0.0
C381 C 0.51649 0.38903 0.07793 0.0
C382 C 0.55517 0.39635 0.07841 0.0
H383 H 0.47884 0.41227 0.07064 0.0
H384 H 0.68553 0.48669 0.07153 0.0
H385 H 0.41259 0.43933 0.98807 0.0
H386 H 0.70539 0.55487 0.06272 0.0
H387 H 0.68557 0.60313 0.05496 0.0
H388 H 0.63307 0.42086 0.07919 0.0
H389 H 0.54758 0.60857 0.96348 0.0
H390 H 0.32211 0.46702 0.97667 0.0
H391 H 0.34268 0.41938 0.98469 0.0
H392 H 0.39333 0.60025 0.95744 0.0
H393 H 0.4926 0.36103 0.08273 0.0
H394 H 0.56106 0.37383 0.08372 0.0
H395 H 0.3413 0.53482 0.96691 0.0
H396 H 0.53342 0.65902 0.95005 0.0
N397 N 0.43214 0.49817 0.98279 0.0
C398 C 0.35301 0.47603 0.97814 0.0
C399 C 0.36451 0.44906 0.9826 0.0
C400 C 0.3816 0.51414 0.97477 0.0
C401 C 0.42141 0.52434 0.97702 0.0
C402 C 0.40439 0.4606 0.98448 0.0
N403 N 0.48818 0.56881 0.97255 0.0
C404 C 0.45046 0.56096 0.97176 0.0
C405 C 0.50979 0.63163 0.95626 0.0
C406 C 0.47122 0.62462 0.95671 0.0
C407 C 0.51771 0.60302 0.96386 0.0
C408 C 0.44086 0.58868 0.96404 0.0
H409 H 0.4651 0.64673 0.95066 0.0
O410 O 0.53195 0.5356 0.95038 0.0
O411 O 0.54614 0.5174 1.0103 0.0
O412 O 0.54721 0.56518 0.04619 0.0
O413 O 0.51153 0.57073 1.01167 0.0
O414 O 0.56498 0.56125 0.98401 0.0
O415 O 0.48121 0.47998 0.95531 0.0
O416 O 0.49394 0.48672 0.0873 0.0
O417 O 0.48299 0.50752 0.02867 0.0
O418 O 0.47996 0.45788 0.99461 0.0
O419 O 0.52295 0.45706 0.02525 0.0
O420 O 0.46288 0.4627 0.05436 0.0
O421 O 0.54931 0.53931 0.08588 0.0
C422 C 0.57657 0.54523 1.00064 0.0
C423 C 0.40133 0.57926 0.96305 0.0
C424 C 0.37172 0.54201 0.96844 0.0
C425 C 0.5081 0.50354 0.93931 0.0
C426 C 0.49516 0.50592 0.9129 0.0
C427 C 0.46442 0.51353 0.90916 0.0
C428 C 0.51355 0.5003 0.8912 0.0
C429 C 0.50098 0.5018 0.8658 0.0
C430 C 0.452 0.51531 0.88413 0.0
C431 C 0.46999 0.50942 0.86261 0.0
C432 C 0.53407 0.58412 0.03244 0.0
C433 C 0.45218 0.48005 0.03819 0.0
C434 C 0.51939 0.5162 0.10023 0.0
C435 C 0.52745 0.50864 0.12685 0.0
C436 C 0.54861 0.48975 0.13115 0.0
C437 C 0.51217 0.51881 0.14822 0.0
C438 C 0.51757 0.50975 0.1738 0.0
C439 C 0.55415 0.48076 0.15636 0.0
C440 C 0.5387 0.49052 0.17752 0.0
C441 C 0.49731 0.44108 1.00635 0.0
H442 H 0.44997 0.51797 0.92556 0.0
H443 H 0.53714 0.49416 0.89412 0.0
H444 H 0.42829 0.52128 0.88139 0.0
H445 H 0.45996 0.51134 0.84342 0.0
H446 H 0.56061 0.48173 0.11506 0.0
H447 H 0.49554 0.53317 0.14487 0.0
H448 H 0.57053 0.46615 0.15953 0.0
H449 H 0.54395 0.48362 0.19687 0.0
Gd450 Gd 0.17767 0.35551 0.38554 0.0
Gd451 Gd 0.14902 0.31081 0.32025 0.0
C452 C 0.03164 0.20224 0.30985 0.0
C453 C 0.05205 0.15626 0.29933 0.0
C454 C 0.10074 0.2223 0.30686 0.0
C455 C 0.07133 0.23078 0.31158 0.0
C456 C 0.09149 0.18517 0.30002 0.0
C457 C 0.02217 0.16477 0.30431 0.0
C458 C 1.00271 0.21243 0.31302 0.0
C459 C 0.01373 0.2505 0.31676 0.0
N460 N 0.08154 0.26735 0.31654 0.0
C461 C 0.05352 0.27783 0.31807 0.0
H462 H 0.06156 0.3071 0.32109 0.0
C463 C 0.16831 0.2451 0.29976 0.0
N464 N 0.13845 0.25091 0.30759 0.0
C465 C 0.16065 0.20873 0.29288 0.0
C466 C 0.12211 0.17851 0.29335 0.0
H467 H 0.19815 0.26838 0.29954 0.0
H468 H 0.99185 0.14238 0.30314 0.0
H469 H 0.2653 0.35899 0.38416 0.0
H470 H 0.97188 0.19134 0.31194 0.0
H471 H 0.99161 0.25882 0.3187 0.0
H472 H 0.04433 0.12745 0.29438 0.0
H473 H 0.13005 0.39752 0.40933 0.0
H474 H 0.35556 0.47362 0.39586 0.0
H475 H 0.33511 0.40633 0.38755 0.0
H476 H 0.28408 0.53781 0.41555 0.0
H477 H 0.18445 0.20402 0.28728 0.0
H478 H 0.11623 0.15038 0.28797 0.0
H479 H 0.33622 0.52271 0.40589 0.0
H480 H 0.14403 0.46138 0.42294 0.0
N481 N 0.24553 0.39874 0.38983 0.0
C482 C 0.32467 0.45286 0.39441 0.0
C483 C 0.31324 0.4149 0.38981 0.0
C484 C 0.29602 0.4633 0.39795 0.0
C485 C 0.25622 0.43515 0.39572 0.0
C486 C 0.27337 0.38802 0.38795 0.0
N487 N 0.18948 0.41515 0.40024 0.0
C488 C 0.22714 0.44366 0.40105 0.0
C489 C 0.16771 0.45688 0.41668 0.0
C490 C 0.20623 0.48706 0.41627 0.0
C491 C 0.1599 0.42077 0.40898 0.0
C492 C 0.23665 0.48052 0.40886 0.0
H493 H 0.21228 0.51497 0.42239 0.0
O494 O 0.14502 0.33894 0.42205 0.0
O495 O 0.13208 0.3088 0.36183 0.0
O496 O 0.13025 0.35482 0.32584 0.0
O497 O 0.16512 0.39429 0.36077 0.0
O498 O 0.11297 0.33441 0.38805 0.0
O499 O 0.19528 0.33166 0.41719 0.0
O500 O 0.18354 0.32884 0.28466 0.0
O501 O 0.19364 0.35811 0.34384 0.0
O502 O 0.19818 0.31284 0.37785 0.0
O503 O 0.15719 0.27078 0.34629 0.0
O504 O 0.21441 0.33409 0.31743 0.0
O505 O 0.12776 0.32694 0.28611 0.0
C506 C 0.10172 0.30754 0.3713 0.0
C507 C 0.27616 0.5092 0.40986 0.0
C508 C 0.30583 0.5006 0.40438 0.0
C509 C 0.16814 0.32884 0.43312 0.0
C510 C 0.18067 0.34251 0.45989 0.0
C511 C 0.20939 0.38038 0.46408 0.0
C512 C 0.16419 0.31774 0.48143 0.0
C513 C 0.17677 0.33076 0.50701 0.0
C514 C 0.22167 0.39351 0.48919 0.0
C515 C 0.20562 0.36906 0.51043 0.0
C516 C 0.14288 0.38612 0.33978 0.0
C517 C 0.22451 0.36091 0.33414 0.0
C518 C 0.15787 0.33351 0.2717 0.0
C519 C 0.14989 0.31821 0.24498 0.0
C520 C 0.1308 0.27888 0.24115 0.0
C521 C 0.16236 0.34281 0.22314 0.0
C522 C 0.15543 0.32796 0.19762 0.0
C523 C 0.12452 0.26409 0.21615 0.0
C524 C 0.13675 0.28826 0.19462 0.0
C525 C 0.18249 0.27988 0.36553 0.0
H526 H 0.22237 0.3998 0.44791 0.0
H527 H 0.14214 0.28838 0.47821 0.0
H528 H 0.24375 0.42287 0.49222 0.0
H529 H 0.21549 0.38042 0.52966 0.0
H530 H 0.12095 0.25957 0.25749 0.0
H531 H 0.17675 0.37323 0.22604 0.0
H532 H 0.11007 0.23367 0.21342 0.0
H533 H 0.13164 0.27571 0.17551 0.0
Gd534 Gd 0.64891 0.82056 0.38557 0.0
Gd535 Gd 0.69865 0.83691 0.32175 0.0
C536 C 0.80715 0.82314 0.3169 0.0
C537 C 0.85852 0.88738 0.30675 0.0
C538 C 0.7909 0.87295 0.31146 0.0
C539 C 0.77939 0.83556 0.31696 0.0
C540 C 0.83035 0.89901 0.30535 0.0
C541 C 0.84693 0.84948 0.31258 0.0
C542 C 0.79392 0.78444 0.32038 0.0
C543 C 0.75379 0.75907 0.3227 0.0
N544 N 0.74067 0.81087 0.32077 0.0
C545 C 0.72739 0.77275 0.32247 0.0
H546 H 0.69656 0.75268 0.3245 0.0
C547 C 0.77147 0.91741 0.29966 0.0
N548 N 0.76285 0.88299 0.30987 0.0
C549 C 0.81023 0.94445 0.2936 0.0
C550 C 0.83996 0.93546 0.29694 0.0
H551 H 0.74845 0.92434 0.29709 0.0
H552 H 0.86875 0.84058 0.31283 0.0
H553 H 0.64933 0.90385 0.38286 0.0
H554 H 0.8143 0.77377 0.32059 0.0
H555 H 0.74315 0.72896 0.32482 0.0
H556 H 0.88908 0.90711 0.30249 0.0
H557 H 0.60102 0.73251 0.40924 0.0
H558 H 0.53145 0.88135 0.39077 0.0
H559 H 0.60209 0.92676 0.38451 0.0
H560 H 0.45918 0.74798 0.40923 0.0
H561 H 0.81713 0.97214 0.28635 0.0
H562 H 0.86992 0.95633 0.29205 0.0
H563 H 0.47811 0.81432 0.39939 0.0
H564 H 0.53324 0.68417 0.42137 0.0
N565 N 0.60608 0.84557 0.38757 0.0
C566 C 0.55212 0.87104 0.39011 0.0
C567 C 0.59197 0.89675 0.38665 0.0
C568 C 0.53959 0.83247 0.39349 0.0
C569 C 0.5677 0.82054 0.39233 0.0
C570 C 0.61874 0.88354 0.38575 0.0
N571 N 0.58544 0.77372 0.39815 0.0
C572 C 0.55698 0.78329 0.39764 0.0
C573 C 0.53943 0.71185 0.41454 0.0
C574 C 0.50927 0.72046 0.4125 0.0
C575 C 0.57772 0.73924 0.40772 0.0
C576 C 0.51798 0.75683 0.40453 0.0
H577 H 0.47967 0.6993 0.41797 0.0
O578 O 0.66172 0.80326 0.42256 0.0
O579 O 0.69985 0.82421 0.36382 0.0
O580 O 0.65098 0.7754 0.32648 0.0
O581 O 0.60917 0.77023 0.36073 0.0
O582 O 0.67141 0.77949 0.38958 0.0
O583 O 0.66711 0.85867 0.41861 0.0
O584 O 0.68767 0.85462 0.28437 0.0
O585 O 0.64827 0.83338 0.34369 0.0
O586 O 0.69624 0.8826 0.38073 0.0
O587 O 0.73719 0.88791 0.34586 0.0
O588 O 0.67364 0.87626 0.31657 0.0
O589 O 0.68098 0.7987 0.28881 0.0
C590 C 0.7009 0.79628 0.37397 0.0
C591 C 0.48941 0.768 0.40431 0.0
C592 C 0.5002 0.80578 0.39876 0.0
C593 C 0.6686 0.83426 0.43438 0.0
C594 C 0.64975 0.82934 0.45992 0.0
C595 C 0.60964 0.81712 0.46176 0.0
C596 C 0.67194 0.83648 0.48272 0.0
C597 C 0.65408 0.83123 0.50737 0.0
C598 C 0.59166 0.8115 0.48597 0.0
C599 C 0.61355 0.8183 0.50859 0.0
C600 C 0.61789 0.75674 0.33989 0.0
C601 C 0.64528 0.85993 0.33308 0.0
C602 C 0.68058 0.82339 0.27278 0.0
C603 C 0.70002 0.82785 0.24756 0.0
C604 C 0.74016 0.83997 0.24614 0.0
C605 C 0.67826 0.8204 0.22458 0.0
C606 C 0.69657 0.82538 0.2002 0.0
C607 C 0.75852 0.84507 0.22209 0.0
C608 C 0.73698 0.83793 0.19925 0.0
C609 C 0.72858 0.90158 0.36657 0.0
H610 H 0.5922 0.81188 0.44454 0.0
H611 H 0.70308 0.84653 0.48119 0.0
H612 H 0.56057 0.8017 0.48722 0.0
H613 H 0.59851 0.81298 0.52707 0.0
H614 H 0.75728 0.84542 0.26355 0.0
H615 H 0.64723 0.81114 0.2257 0.0
H616 H 0.78953 0.85442 0.22114 0.0
H617 H 0.75184 0.84155 0.18085 0.0
Gd618 Gd 0.16795 0.85381 0.31961 0.0
Gd619 Gd 0.19583 0.83643 0.38451 0.0
C620 C 0.31288 0.84091 0.39714 0.0
C621 C 0.29223 0.77503 0.40717 0.0
C622 C 0.24372 0.79422 0.39875 0.0
C623 C 0.27325 0.83121 0.39467 0.0
C624 C 0.25281 0.76585 0.40561 0.0
C625 C 0.32222 0.81248 0.4029 0.0
C626 C 0.34188 0.87901 0.39433 0.0
C627 C 0.33096 0.90646 0.39004 0.0
N628 N 0.26318 0.858 0.38931 0.0
C629 C 0.29124 0.89546 0.38792 0.0
H630 H 0.28332 0.91699 0.38447 0.0
C631 C 0.17585 0.75133 0.40395 0.0
N632 N 0.20599 0.78635 0.39714 0.0
C633 C 0.18337 0.72218 0.41075 0.0
C634 C 0.22199 0.72933 0.41128 0.0
H635 H 0.14595 0.74565 0.4034 0.0
H636 H 0.3525 0.81933 0.40466 0.0
H637 H 0.08008 0.77355 0.32028 0.0
H638 H 0.37266 0.88761 0.39598 0.0
H639 H 0.35312 0.93609 0.38827 0.0
H640 H 0.29983 0.75355 0.41219 0.0
H641 H 0.21669 0.94193 0.29584 0.0
H642 H 0.99073 0.80283 0.30888 0.0
H643 H 0.01036 0.75445 0.31673 0.0
H644 H 0.06361 0.93612 0.29005 0.0
H645 H 0.15938 0.69422 0.41553 0.0
H646 H 0.22774 0.70672 0.41662 0.0
H647 H 0.0109 0.87094 0.2994 0.0
H648 H 0.20349 0.99301 0.28241 0.0
N649 N 0.10036 0.83256 0.31529 0.0
C650 C 0.02152 0.81145 0.31044 0.0
C651 C 0.0325 0.78406 0.31479 0.0
C652 C 0.05051 0.84945 0.30725 0.0
C653 C 0.09016 0.85914 0.3096 0.0
C654 C 0.07225 0.79509 0.31678 0.0
N655 N 0.15716 0.90291 0.30514 0.0
C656 C 0.11961 0.89562 0.30441 0.0
C657 C 0.17961 0.96582 0.28871 0.0
C658 C 0.14126 0.95942 0.28927 0.0
C659 C 0.18698 0.93685 0.29631 0.0
C660 C 0.11055 0.92371 0.29667 0.0
H661 H 0.13556 0.9818 0.2832 0.0
O662 O 0.2005 0.86802 0.28317 0.0
O663 O 0.21381 0.85059 0.34306 0.0
O664 O 0.21493 0.8986 0.37886 0.0
O665 O 0.17963 0.90432 0.34414 0.0
O666 O 0.23304 0.89434 0.31663 0.0
O667 O 0.14779 0.81381 0.28756 0.0
O668 O 0.16122 0.82013 0.41997 0.0
O669 O 0.1508 0.84106 0.3612 0.0
O670 O 0.14745 0.79125 0.32734 0.0
O671 O 0.1903 0.79034 0.35805 0.0
O672 O 0.1303 0.79638 0.38706 0.0
O673 O 0.21669 0.87263 0.41867 0.0
C674 C 0.24436 0.87834 0.33346 0.0
C675 C 0.07118 0.91483 0.29567 0.0
C676 C 0.04118 0.87773 0.30098 0.0
C677 C 0.17544 0.83676 0.27175 0.0
C678 C 0.16321 0.84095 0.24548 0.0
C679 C 0.1345 0.85149 0.24229 0.0
C680 C 0.18099 0.83534 0.22339 0.0
C681 C 0.17054 0.84093 0.19824 0.0
C682 C 0.12383 0.85675 0.2175 0.0
C683 C 0.14176 0.85168 0.19564 0.0
C684 C 0.202 0.91764 0.365 0.0
C685 C 0.11987 0.81377 0.37073 0.0
C686 C 0.18665 0.84957 0.43294 0.0
C687 C 0.19451 0.84192 0.45961 0.0
C688 C 0.21561 0.82298 0.46397 0.0
C689 C 0.17909 0.85203 0.48093 0.0
C690 C 0.1843 0.84287 0.50653 0.0
C691 C 0.22097 0.8139 0.4892 0.0
C692 C 0.20538 0.8236 0.51031 0.0
C693 C 0.16459 0.77434 0.3392 0.0
H694 H 0.12037 0.85574 0.25894 0.0
H695 H 0.20343 0.82748 0.22579 0.0
H696 H 0.10164 0.86491 0.21521 0.0
H697 H 0.13285 0.85587 0.17662 0.0
H698 H 0.22771 0.81501 0.44791 0.0
H699 H 0.16251 0.86643 0.47754 0.0
H700 H 0.2373 0.79927 0.49241 0.0
H701 H 0.2105 0.81664 0.52967 0.0
Gd702 Gd 0.84405 0.68972 0.71936 0.0
Gd703 Gd 0.81556 0.64585 0.65386 0.0
C704 C 0.69835 0.53744 0.64234 0.0
C705 C 0.71896 0.49192 0.63087 0.0
C706 C 0.76749 0.55777 0.63919 0.0
C707 C 0.738 0.566 0.64429 0.0
C708 C 0.75837 0.52087 0.6318 0.0
C709 C 0.689 0.50018 0.63619 0.0
C710 C 0.66933 0.54744 0.64589 0.0
C711 C 0.68025 0.58536 0.65023 0.0
N712 N 0.74811 0.60237 0.64985 0.0
C713 C 0.72001 0.61271 0.65175 0.0
H714 H 0.72796 0.64185 0.65523 0.0
C715 C 0.83513 0.58087 0.63218 0.0
N716 N 0.80517 0.58641 0.64018 0.0
C717 C 0.82759 0.54474 0.62475 0.0
C718 C 0.78908 0.51447 0.62489 0.0
H719 H 0.86495 0.60417 0.63221 0.0
H720 H 0.6587 0.47778 0.63483 0.0
H721 H 0.93119 0.69224 0.71806 0.0
H722 H 0.63853 0.52633 0.64466 0.0
H723 H 0.65807 0.59355 0.65248 0.0
H724 H 0.71134 0.46328 0.62548 0.0
H725 H 0.79705 0.73236 0.74311 0.0
H726 H 0.02224 0.80653 0.72987 0.0
H727 H 1.00118 0.73911 0.72151 0.0
H728 H 0.95183 0.87176 0.7496 0.0
H729 H 0.85148 0.54025 0.619 0.0
H730 H 0.7833 0.48653 0.61909 0.0
H731 H 1.00353 0.85605 0.73995 0.0
H732 H 0.81165 0.79639 0.75683 0.0
N733 N 0.912 0.73242 0.72374 0.0
C734 C 0.99129 0.78598 0.7284 0.0
C735 C 0.97951 0.74795 0.72376 0.0
C736 C 0.9629 0.79677 0.73193 0.0
C737 C 0.92302 0.76889 0.72966 0.0
C738 C 0.93956 0.72134 0.72186 0.0
N739 N 0.85638 0.7495 0.73409 0.0
C740 C 0.89417 0.77776 0.73496 0.0
C741 C 0.83516 0.79163 0.75057 0.0
C742 C 0.87383 0.82156 0.75022 0.0
C743 C 0.827 0.75543 0.74282 0.0
C744 C 0.90402 0.81468 0.74282 0.0
H745 H 0.88014 0.84954 0.75638 0.0
O746 O 0.81121 0.67323 0.7558 0.0
O747 O 0.79855 0.64335 0.69545 0.0
O748 O 0.7966 0.68962 0.65992 0.0
O749 O 0.83204 0.72903 0.6947 0.0
O750 O 0.77934 0.6687 0.72182 0.0
O751 O 0.86145 0.66588 0.75115 0.0
O752 O 0.85061 0.66555 0.61857 0.0
O753 O 0.86031 0.69269 0.67771 0.0
O754 O 0.86385 0.64645 0.71163 0.0
O755 O 0.82359 0.60527 0.67937 0.0
O756 O 0.88082 0.66851 0.65123 0.0
O757 O 0.79425 0.6625 0.62001 0.0
C758 C 0.76817 0.64197 0.70496 0.0
C759 C 0.94364 0.84309 0.74387 0.0
C760 C 0.97306 0.83415 0.7384 0.0
C761 C 0.83424 0.66311 0.76698 0.0
C762 C 0.84661 0.67684 0.79378 0.0
C763 C 0.87535 0.7147 0.79795 0.0
C764 C 0.82994 0.65215 0.81535 0.0
C765 C 0.84236 0.66528 0.84094 0.0
C766 C 0.88745 0.72794 0.82306 0.0
C767 C 0.87122 0.70359 0.84433 0.0
C768 C 0.8097 0.72104 0.67377 0.0
C769 C 0.89111 0.69521 0.66807 0.0
C770 C 0.82489 0.67032 0.60577 0.0
C771 C 0.81805 0.6568 0.57864 0.0
C772 C 0.79875 0.61782 0.57339 0.0
C773 C 0.83257 0.68302 0.55777 0.0
C774 C 0.82835 0.67029 0.53181 0.0
C775 C 0.79428 0.60504 0.54786 0.0
C776 C 0.80902 0.63092 0.52726 0.0
C777 C 0.84845 0.61383 0.69884 0.0
H778 H 0.88848 0.73405 0.78177 0.0
H779 H 0.80788 0.62279 0.81215 0.0
H780 H 0.90954 0.7573 0.82607 0.0
H781 H 0.88097 0.71503 0.86356 0.0
H782 H 0.78736 0.59727 0.58904 0.0
H783 H 0.84772 0.7132 0.56179 0.0
H784 H 0.77931 0.57486 0.54399 0.0
H785 H 0.80463 0.62004 0.50767 0.0
Gd786 Gd 0.31709 0.15307 0.71861 0.0
Gd787 Gd 0.36617 0.16991 0.65448 0.0
C788 C 0.47511 0.15696 0.64899 0.0
C789 C 0.52618 0.22144 0.63911 0.0
C790 C 0.45844 0.20655 0.64399 0.0
C791 C 0.44718 0.16917 0.64929 0.0
C792 C 0.49783 0.23285 0.63789 0.0
C793 C 0.51483 0.18353 0.64471 0.0
C794 C 0.46208 0.11824 0.6521 0.0
C795 C 0.42198 0.09266 0.65426 0.0
N796 N 0.40849 0.14425 0.653 0.0
C797 C 0.39541 0.10614 0.6543 0.0
H798 H 0.3646 0.08592 0.65621 0.0
C799 C 0.43856 0.25076 0.63245 0.0
N800 N 0.43021 0.21635 0.64253 0.0
C801 C 0.47725 0.27803 0.62641 0.0
C802 C 0.50716 0.26928 0.62963 0.0
H803 H 0.41539 0.25751 0.62998 0.0
H804 H 0.53678 0.17479 0.64478 0.0
H805 H 0.31754 0.23644 0.71674 0.0
H806 H 0.48259 0.10772 0.65209 0.0
H807 H 0.41149 0.06254 0.65607 0.0
H808 H 0.5567 0.24135 0.63486 0.0
H809 H 0.2694 0.06479 0.74186 0.0
H810 H 0.19986 0.214 0.72587 0.0
H811 H 0.27041 0.2594 0.71925 0.0
H812 H 0.12769 0.08043 0.74363 0.0
H813 H 0.48394 0.30571 0.61926 0.0
H814 H 0.53707 0.29033 0.62475 0.0
H815 H 0.14657 0.1469 0.73434 0.0
H816 H 0.20177 0.01637 0.75422 0.0
N817 N 0.27431 0.17811 0.72132 0.0
C818 C 0.22048 0.20366 0.72483 0.0
C819 C 0.26028 0.22936 0.72116 0.0
C820 C 0.20794 0.16504 0.72791 0.0
C821 C 0.23599 0.15307 0.72626 0.0
C822 C 0.28699 0.21611 0.71977 0.0
N823 N 0.25373 0.10615 0.73137 0.0
C824 C 0.2253 0.11575 0.73127 0.0
C825 C 0.2079 0.04413 0.74761 0.0
C826 C 0.17774 0.05279 0.746 0.0
C827 C 0.2461 0.07156 0.74065 0.0
C828 C 0.18638 0.08926 0.73833 0.0
H829 H 0.14821 0.0316 0.75158 0.0
O830 O 0.33 0.1354 0.75541 0.0
O831 O 0.36778 0.15683 0.69644 0.0
O832 O 0.31869 0.10831 0.6592 0.0
O833 O 0.27709 0.10301 0.69363 0.0
O834 O 0.33951 0.1119 0.72206 0.0
O835 O 0.33623 0.19117 0.75166 0.0
O836 O 0.35464 0.1877 0.61731 0.0
O837 O 0.31605 0.16618 0.67685 0.0
O838 O 0.36424 0.21516 0.71379 0.0
O839 O 0.40484 0.22078 0.67864 0.0
O840 O 0.34089 0.20911 0.64973 0.0
O841 O 0.34841 0.13192 0.62141 0.0
C842 C 0.3688 0.12873 0.70631 0.0
C843 C 0.15785 0.10048 0.73857 0.0
C844 C 0.16862 0.13833 0.73334 0.0
C845 C 0.33746 0.16652 0.76731 0.0
C846 C 0.31892 0.16184 0.79295 0.0
C847 C 0.2788 0.14952 0.79498 0.0
C848 C 0.34141 0.1694 0.81564 0.0
C849 C 0.32385 0.16443 0.84036 0.0
C850 C 0.26111 0.14418 0.81926 0.0
C851 C 0.2833 0.15137 0.84178 0.0
C852 C 0.28567 0.08961 0.67268 0.0
C853 C 0.31283 0.19271 0.66644 0.0
C854 C 0.34767 0.15662 0.60556 0.0
C855 C 0.36697 0.16141 0.58024 0.0
C856 C 0.4072 0.17401 0.57865 0.0
C857 C 0.34498 0.15379 0.55735 0.0
C858 C 0.36316 0.15911 0.53289 0.0
C859 C 0.42543 0.17944 0.55452 0.0
C860 C 0.40368 0.17215 0.53177 0.0
C861 C 0.39639 0.23428 0.6995 0.0
H862 H 0.26114 0.14397 0.77784 0.0
H863 H 0.37256 0.17955 0.81396 0.0
H864 H 0.23002 0.13429 0.82065 0.0
H865 H 0.26847 0.14626 0.86032 0.0
H866 H 0.4245 0.1796 0.59599 0.0
H867 H 0.31388 0.14415 0.5586 0.0
H868 H 0.45652 0.18917 0.55344 0.0
H869 H 0.41844 0.17603 0.51331 0.0
Gd870 Gd 0.83579 0.18878 0.65469 0.0
Gd871 Gd 0.86501 0.17046 0.71869 0.0
C872 C 0.97987 0.16997 0.73028 0.0
C873 C 0.95686 0.10365 0.74044 0.0
C874 C 0.91019 0.12532 0.73252 0.0
C875 C 0.94065 0.16176 0.72818 0.0
C876 C 0.91789 0.09597 0.73922 0.0
C877 C 0.9878 0.14059 0.73593 0.0
C878 C 0.0099 0.2076 0.72718 0.0
C879 C 1.0004 0.23606 0.72297 0.0
N880 N 0.93191 0.18948 0.72291 0.0
C881 C 0.96104 0.22652 0.72124 0.0
H882 H 0.95423 0.24882 0.71785 0.0
C883 C 0.84201 0.08442 0.73813 0.0
N884 N 0.87294 0.11893 0.73123 0.0
C885 C 0.84814 0.05435 0.74479 0.0
C886 C 0.88622 0.06002 0.74504 0.0
H887 H 0.81249 0.0798 0.73783 0.0
H888 H 0.01774 0.14628 0.7374 0.0
H889 H 0.74769 0.10888 0.65451 0.0
H890 H 0.04041 0.21507 0.72852 0.0
H891 H 0.02338 0.26535 0.72097 0.0
H892 H 0.96339 0.08141 0.74533 0.0
H893 H 0.88618 0.27971 0.63611 0.0
H894 H 0.65922 0.13925 0.6427 0.0
H895 H 0.67818 0.09035 0.65036 0.0
H896 H 0.73315 0.27343 0.62719 0.0
H897 H 0.8235 0.02683 0.74966 0.0
H898 H 0.8909 0.0367 0.75026 0.0
H899 H 0.68001 0.20775 0.63435 0.0
H900 H 0.87349 0.33163 0.6243 0.0
N901 N 0.76847 0.16804 0.6499 0.0
C902 C 0.68993 0.14761 0.64449 0.0
C903 C 0.70052 0.11994 0.64875 0.0
C904 C 0.71917 0.18564 0.6419 0.0
C905 C 0.75869 0.195 0.64453 0.0
C906 C 0.74014 0.13064 0.65107 0.0
N907 N 0.82596 0.23919 0.64206 0.0
C908 C 0.78842 0.2318 0.6405 0.0
C909 C 0.84928 0.30371 0.62889 0.0
C910 C 0.81081 0.29695 0.62829 0.0
C911 C 0.85635 0.27422 0.63551 0.0
C912 C 0.77974 0.26051 0.63376 0.0
H913 H 0.80538 0.3198 0.62307 0.0
O914 O 0.86692 0.20514 0.61774 0.0
O915 O 0.882 0.18473 0.6771 0.0
O916 O 0.88663 0.23306 0.71183 0.0
O917 O 0.84416 0.23601 0.68163 0.0
O918 O 0.90096 0.22901 0.65117 0.0
O919 O 0.81655 0.14906 0.62256 0.0
O920 O 0.83127 0.15682 0.75445 0.0
O921 O 0.8194 0.17506 0.69615 0.0
O922 O 0.81483 0.12592 0.66169 0.0
O923 O 0.85768 0.12389 0.69201 0.0
O924 O 0.7993 0.13095 0.72227 0.0
O925 O 0.88823 0.20744 0.75234 0.0
C926 C 0.91245 0.21231 0.66729 0.0
C927 C 0.74044 0.25171 0.63213 0.0
C928 C 0.71019 0.21433 0.6362 0.0
C929 C 0.84321 0.17306 0.60658 0.0
C930 C 0.83009 0.17542 0.58022 0.0
C931 C 0.79952 0.18328 0.57656 0.0
C932 C 0.84816 0.16947 0.55847 0.0
C933 C 0.83544 0.17087 0.5331 0.0
C934 C 0.78691 0.18494 0.55156 0.0
C935 C 0.80459 0.17871 0.52999 0.0
C936 C 0.86996 0.2509 0.70066 0.0
C937 C 0.78855 0.14798 0.70587 0.0
C938 C 0.85809 0.18584 0.76702 0.0
C939 C 0.86595 0.17792 0.79359 0.0
C940 C 0.88692 0.15881 0.79778 0.0
C941 C 0.85055 0.18787 0.815 0.0
C942 C 0.85571 0.17844 0.84053 0.0
C943 C 0.89223 0.14946 0.82294 0.0
C944 C 0.87671 0.15905 0.84415 0.0
C945 C 0.83165 0.10842 0.67325 0.0
H946 H 0.78534 0.18802 0.593 0.0
H947 H 0.87164 0.16314 0.56134 0.0
H948 H 0.76332 0.19109 0.54886 0.0
H949 H 0.79442 0.18054 0.51083 0.0
H950 H 0.89894 0.15092 0.78163 0.0
H951 H 0.83401 0.20233 0.81173 0.0
H952 H 0.90847 0.13471 0.82603 0.0
H953 H 0.88178 0.15187 0.86346 0.0
C954 C 0.3583 0.87594 0.04993 0.0
C955 C 0.32791 0.88158 0.05942 0.0
H956 H 0.4175 0.90196 0.03566 0.0
C957 C 0.33308 0.91836 0.059 0.0
H958 H 0.35518 0.84789 0.05006 0.0
C959 C 0.36831 0.949 0.05025 0.0
C960 C 0.39924 0.94365 0.04178 0.0
H961 H 0.31002 0.92352 0.06575 0.0
H962 H 0.37192 0.97725 0.05093 0.0
C963 C 0.39383 0.90678 0.04145 0.0
C964 C 0.09584 0.41965 0.06028 0.0
C965 C 0.13381 0.45144 0.06077 0.0
H966 H 0.03469 0.39827 0.0532 0.0
C967 C 0.13883 0.48666 0.05234 0.0
H968 H 0.09086 0.39198 0.06622 0.0
C969 C 0.10641 0.49023 0.04483 0.0
C970 C 0.06838 0.45849 0.04505 0.0
H971 H 0.16759 0.5118 0.05258 0.0
H972 H 0.11098 0.51803 0.03978 0.0
C973 C 0.06365 0.42317 0.05261 0.0
C974 C 0.57637 0.69024 0.03278 0.0
C975 C 0.57177 0.69709 0.05902 0.0
H976 H 0.56771 0.64906 1.00383 0.0
C977 C 0.55392 0.66595 0.07618 0.0
H978 H 0.59096 0.71339 0.01906 0.0
C979 C 0.54151 0.62917 0.0674 0.0
C980 C 0.54573 0.62265 0.04119 0.0
H981 H 0.5492 0.66983 0.09637 0.0
H982 H 0.52823 0.60571 0.08104 0.0
C983 C 0.56307 0.65336 0.02393 0.0
C984 C 0.8899 0.3459 0.9606 0.0
C985 C 0.86723 0.31533 0.97745 0.0
H986 H 0.93453 0.40432 0.95701 0.0
C987 C 0.87369 0.32097 1.00436 0.0
H988 H 0.88553 0.34291 0.93982 0.0
C989 C 0.90113 0.35641 0.01416 0.0
C990 C 0.92325 0.38687 0.99732 0.0
H991 H 0.85773 0.29792 0.01797 0.0
H992 H 0.90563 0.35964 0.03485 0.0
C993 C 0.91782 0.38118 0.97044 0.0
C994 C 0.65652 0.51897 0.99023 0.0
C995 C 0.68729 0.55321 0.98002 0.0
H996 H 0.59711 0.4891 1.00454 0.0
C997 C 0.68207 0.58504 0.97914 0.0
H998 H 0.65944 0.49384 0.99115 0.0
C999 C 0.64684 0.58251 0.98737 0.0
C1000 C 0.61557 0.54807 0.99666 0.0
H1001 H 0.70522 0.61199 0.97183 0.0
H1002 H 0.64361 0.60744 0.98577 0.0
C1003 C 0.62087 0.51629 0.99814 0.0
C1004 C 0.45962 0.1174 0.96219 0.0
C1005 C 0.44414 0.13322 0.97963 0.0
H1006 H 0.48332 0.08027 0.95714 0.0
C1007 C 0.4406 0.12269 1.00603 0.0
H1008 H 0.4633 0.12508 0.94183 0.0
C1009 C 0.45336 0.09811 0.01484 0.0
C1010 C 0.46902 0.08276 0.99741 0.0
H1011 H 0.42767 0.13317 0.01999 0.0
H1012 H 0.44985 0.09026 0.03514 0.0
C1013 C 0.47152 0.09209 0.97097 0.0
C1014 C 0.63548 0.13268 0.99422 0.0
C1015 C 0.66927 0.13131 0.98728 0.0
H1016 H 0.57444 0.10101 1.00405 0.0
C1017 C 0.66756 0.09614 0.98512 0.0
H1018 H 0.63646 0.15971 0.99628 0.0
C1019 C 0.63221 0.06256 0.98988 0.0
C1020 C 0.59842 0.06385 0.99732 0.0
H1021 H 0.69354 0.09465 0.9801 0.0
H1022 H 0.63132 0.03556 0.98804 0.0
C1023 C 0.60022 0.0992 0.99903 0.0
C1024 C 0.87009 0.49679 0.99514 0.0
C1025 C 0.87126 0.53116 0.98935 0.0
H1026 H 0.90297 0.46879 1.00359 0.0
C1027 C 0.90778 0.56444 0.98728 0.0
H1028 H 0.84221 0.47077 0.99705 0.0
C1029 C 0.94261 0.56338 0.99126 0.0
C1030 C 0.94148 0.52918 0.99792 0.0
H1031 H 0.9094 0.59133 0.98302 0.0
H1032 H 0.97045 0.58948 0.98969 0.0
C1033 C 0.90484 0.49573 0.99921 0.0
C1034 C 0.49684 0.34802 1.00328 0.0
C1035 C 0.46053 0.32438 0.99177 0.0
H1036 H 0.53727 0.40379 0.01657 0.0
C1037 C 0.43745 0.33956 0.98308 0.0
H1038 H 0.51486 0.33656 1.01024 0.0
C1039 C 0.45013 0.37812 0.98675 0.0
C1040 C 0.48575 0.40161 0.99948 0.0
H1041 H 0.40913 0.32143 0.97434 0.0
H1042 H 0.43131 0.38908 0.98062 0.0
C1043 C 0.50943 0.38636 1.00707 0.0
C1044 C 0.16399 0.65108 0.04542 0.0
C1045 C 0.15514 0.67801 0.05531 0.0
H1046 H 0.14198 0.59449 0.03188 0.0
C1047 C 0.11607 0.66744 0.06093 0.0
H1048 H 0.19399 0.65887 0.04073 0.0
C1049 C 0.08593 0.63027 0.05589 0.0
C1050 C 0.0947 0.60371 0.04475 0.0
H1051 H 0.10876 0.68815 0.0683 0.0
H1052 H 0.05581 0.62287 0.05959 0.0
C1053 C 0.13414 0.61434 0.04017 0.0
C1054 C 0.37478 0.51009 0.04506 0.0
C1055 C 0.34149 0.47582 0.05242 0.0
H1056 H 0.43592 0.53853 0.03473 0.0
C1057 C 0.3446 0.44297 0.05453 0.0
H1058 H 0.37299 0.53577 0.04302 0.0
C1059 C 0.38051 0.44446 0.04948 0.0
C1060 C 0.41384 0.47867 0.04181 0.0
H1061 H 0.31926 0.41614 0.05989 0.0
H1062 H 0.38219 0.41873 0.0514 0.0
C1063 C 0.41066 0.5116 0.03998 0.0
C1064 C 0.52732 0.85928 0.03284 0.0
C1065 C 0.56268 0.87213 0.04612 0.0
H1066 H 0.48461 0.87277 0.01863 0.0
C1067 C 0.58158 0.90855 0.05681 0.0
H1068 H 0.51243 0.83113 0.02442 0.0
C1069 C 0.56596 0.93258 0.05334 0.0
C1070 C 0.53146 0.92057 0.03886 0.0
H1071 H 0.60905 0.91888 0.06704 0.0
H1072 H 0.58178 0.96099 0.06118 0.0
C1073 C 0.51168 0.88324 0.02933 0.0
C1074 C 0.99766 0.24481 0.39372 0.0
C1075 C 0.99518 0.20914 0.39559 0.0
H1076 H 0.03321 0.30364 0.38379 0.0
C1077 C 0.02686 0.20533 0.38633 0.0
H1078 H 0.97359 0.24865 0.40009 0.0
C1079 C 0.06085 0.23682 0.37663 0.0
C1080 C 0.06372 0.27267 0.37582 0.0
H1081 H 0.02613 0.17835 0.3876 0.0
H1082 H 0.08549 0.23343 0.37098 0.0
C1083 C 0.03157 0.27619 0.38404 0.0
C1084 C 0.76532 0.7568 0.39622 0.0
C1085 C 0.80308 0.78883 0.3957 0.0
H1086 H 0.70399 0.73415 0.38915 0.0
C1087 C 0.80743 0.82341 0.38639 0.0
H1088 H 0.76093 0.72966 0.40298 0.0
C1089 C 0.77455 0.82605 0.37862 0.0
C1090 C 0.73683 0.7939 0.37929 0.0
H1091 H 0.83608 0.84868 0.38587 0.0
H1092 H 0.77856 0.85333 0.37258 0.0
C1093 C 0.73272 0.75932 0.38814 0.0
C1094 C 0.24367 0.02372 0.36552 0.0
C1095 C 0.2389 0.0304 0.39177 0.0
H1096 H 0.23546 0.98275 0.33651 0.0
C1097 C 0.22127 -0.00081 0.40888 0.0
H1098 H 0.25811 0.04694 0.35183 0.0
C1099 C 0.20918 0.9625 0.40004 0.0
C1100 C 0.21353 0.95612 0.37383 0.0
H1101 H 0.21644 0.00294 0.42908 0.0
H1102 H 0.19601 0.93899 0.41365 0.0
C1103 C 0.23072 0.98691 0.35662 0.0
C1104 C 0.53793 0.65368 0.33727 0.0
C1105 C 0.5313 0.64783 0.31038 0.0
H1106 H 0.57052 0.6924 0.36759 0.0
C1107 C 0.55432 0.67811 0.2934 0.0
H1108 H 0.52167 0.63086 0.35098 0.0
C1109 C 0.58278 0.71328 0.30308 0.0
C1110 C 0.58846 0.71919 0.32994 0.0
H1111 H 0.54984 0.675 0.27264 0.0
H1112 H 0.59973 0.73618 0.28953 0.0
C1113 C 0.56593 0.68902 0.3469 0.0
C1114 C 0.32423 0.85213 0.32283 0.0
C1115 C 0.35525 0.88669 0.3132 0.0
H1116 H 0.26458 0.82195 0.33672 0.0
C1117 C 0.35029 0.9187 0.31312 0.0
H1118 H 0.32691 0.82684 0.32314 0.0
C1119 C 0.31498 0.91599 0.32132 0.0
C1120 C 0.28342 0.88124 0.32987 0.0
H1121 H 0.37363 0.9459 0.30633 0.0
H1122 H 0.31189 0.94104 0.32019 0.0
C1123 C 0.28855 0.84933 0.33082 0.0
C1124 C 0.12147 0.4483 0.29606 0.0
C1125 C 0.10632 0.46421 0.31369 0.0
H1126 H 0.14489 0.41099 0.29067 0.0
C1127 C 0.10274 0.45339 0.34002 0.0
H1128 H 0.12515 0.45618 0.27574 0.0
C1129 C 0.11528 0.42855 0.34861 0.0
C1130 C 0.1308 0.41325 0.33102 0.0
H1131 H 0.09006 0.46397 0.35411 0.0
H1132 H 0.11184 0.42057 0.36888 0.0
C1133 C 0.13318 0.42275 0.30462 0.0
C1134 C 0.2986 0.46564 0.32798 0.0
C1135 C 0.33255 0.46461 0.32093 0.0
H1136 H 0.23756 0.4335 0.33781 0.0
C1137 C 0.33113 0.42959 0.31866 0.0
H1138 H 0.29934 0.49255 0.33014 0.0
C1139 C 0.29593 0.39583 0.32337 0.0
C1140 C 0.26197 0.39676 0.33086 0.0
H1141 H 0.35722 0.42834 0.31354 0.0
H1142 H 0.29529 0.36896 0.3214 0.0
C1143 C 0.26348 0.43197 0.33274 0.0
C1144 C 0.53668 0.82785 0.32602 0.0
C1145 C 0.53775 0.86198 0.31951 0.0
H1146 H 0.56968 0.80028 0.33542 0.0
C1147 C 0.57421 0.89529 0.31732 0.0
H1148 H 0.50885 0.80182 0.32803 0.0
C1149 C 0.60907 0.89448 0.32179 0.0
C1150 C 0.60805 0.86053 0.32909 0.0
H1151 H 0.57576 0.922 0.31252 0.0
H1152 H 0.63687 0.92059 0.32003 0.0
C1153 C 0.57147 0.82706 0.33058 0.0
C1154 C 0.10346 0.67232 0.31721 0.0
C1155 C 0.12653 0.65711 0.32587 0.0
H1156 H 0.09774 0.72206 0.31438 0.0
C1157 C 0.16323 0.68085 0.33684 0.0
H1158 H 0.07485 0.65412 0.30887 0.0
C1159 C 0.17624 0.71935 0.34017 0.0
C1160 C 0.1526 0.73467 0.33264 0.0
H1161 H 0.18126 0.66938 0.34376 0.0
H1162 H 0.20438 0.73688 0.34929 0.0
C1163 C 0.11656 0.71105 0.32042 0.0
C1164 C 0.80934 0.00371 0.3636 0.0
C1165 C 0.82243 0.01012 0.38929 0.0
H1166 H 0.76825 0.96447 0.33648 0.0
C1167 C 0.80205 0.98211 0.40817 0.0
H1168 H 0.82482 0.02504 0.34876 0.0
C1169 C 0.76972 0.94725 0.40108 0.0
C1170 C 0.75806 0.94001 0.37499 0.0
H1171 H 0.81205 0.98654 0.42808 0.0
H1172 H 0.75527 0.92528 0.41567 0.0
C1173 C 0.77738 0.96894 0.35651 0.0
C1174 C 0.01201 0.77692 0.38573 0.0
C1175 C 0.00911 0.80986 0.38352 0.0
H1176 H 0.0495 0.7525 0.38316 0.0
C1177 C 0.04272 0.84423 0.37677 0.0
H1178 H 0.98642 0.75002 0.39064 0.0
C1179 C 0.0787 0.84566 0.37226 0.0
C1180 C 0.08161 0.81258 0.37405 0.0
H1181 H 0.04108 0.86997 0.37467 0.0
H1182 H 0.1042 0.87262 0.36738 0.0
C1183 C 0.048 0.77834 0.38125 0.0
C1184 C 0.24697 0.24146 0.38992 0.0
C1185 C 0.22814 0.20499 0.37929 0.0
H1186 H 0.24693 0.29381 0.39423 0.0
C1187 C 0.19274 0.19199 0.36603 0.0
H1188 H 0.27448 0.2519 0.40012 0.0
C1189 C 0.17698 0.21584 0.3625 0.0
C1190 C 0.19664 0.2532 0.37199 0.0
H1191 H 0.17791 0.16383 0.35765 0.0
H1192 H 0.14988 0.20526 0.35181 0.0
C1193 C 0.2312 0.26538 0.38643 0.0
C1194 C 0.66416 0.57852 0.72723 0.0
C1195 C 0.66183 0.54288 0.72865 0.0
H1196 H 0.69954 0.63758 0.71787 0.0
C1197 C 0.69362 0.53941 0.71919 0.0
H1198 H 0.63999 0.58211 0.73376 0.0
C1199 C 0.72754 0.57116 0.70971 0.0
C1200 C 0.73026 0.60697 0.70936 0.0
H1201 H 0.69301 0.51248 0.72012 0.0
H1202 H 0.75223 0.56799 0.70387 0.0
C1203 C 0.69802 0.61018 0.71779 0.0
C1204 C 0.475 0.15518 0.71922 0.0
C1205 C 0.47037 0.12014 0.72779 0.0
H1206 H 0.44653 0.18575 0.70591 0.0
C1207 C 0.43262 0.08805 0.72721 0.0
H1208 H 0.50359 0.18051 0.71953 0.0
C1209 C 0.40029 0.09101 0.71915 0.0
C1210 C 0.40464 0.12604 0.71123 0.0
H1211 H 0.42797 0.06053 0.73327 0.0
H1212 H 0.37154 0.06581 0.7195 0.0
C1213 C 0.44238 0.15818 0.71131 0.0
C1214 C 0.8702 0.34328 0.71198 0.0
C1215 C 0.90252 0.36264 0.7286 0.0
H1216 H 0.83451 0.29292 0.69014 0.0
C1217 C 0.92387 0.34482 0.73591 0.0
H1218 H 0.85278 0.35597 0.70624 0.0
C1219 C 0.91328 0.30862 0.72679 0.0
C1220 C 0.8812 0.28942 0.71 0.0
H1221 H 0.94931 0.35911 0.74828 0.0
H1222 H 0.93057 0.2959 0.73276 0.0
C1223 C 0.85971 0.30712 0.70274 0.0
C1224 C 0.20559 0.98661 0.67 0.0
C1225 C 0.19874 0.98088 0.64312 0.0
H1226 H 0.23848 0.02517 0.70031 0.0
C1227 C 0.2217 0.01119 0.62616 0.0
H1228 H 0.18939 0.96374 0.68369 0.0
C1229 C 0.25029 0.0463 0.63584 0.0
C1230 C 0.25616 0.05211 0.66269 0.0
H1231 H 0.21706 0.00815 0.60541 0.0
H1232 H 0.26717 0.06924 0.62231 0.0
C1233 C 0.23373 0.02188 0.67964 0.0
C1234 C 0.99134 0.18484 0.65623 0.0
C1235 C 0.02232 0.21896 0.64607 0.0
H1236 H 0.932 0.1555 0.6707 0.0
C1237 C 0.01758 0.25107 0.64531 0.0
H1238 H 0.9939 0.1595 0.65705 0.0
C1239 C 0.98259 0.24894 0.65366 0.0
C1240 C 0.95112 0.21465 0.66295 0.0
H1241 H 0.04092 0.27793 0.63803 0.0
H1242 H 0.97972 0.27409 0.65219 0.0
C1243 C 0.95593 0.18257 0.66427 0.0
C1244 C 0.76998 0.78874 0.67352 0.0
C1245 C 0.77338 0.79915 0.64709 0.0
H1246 H 0.77923 0.75632 0.70265 0.0
C1247 C 0.78864 0.78311 0.62965 0.0
H1248 H 0.75725 0.79939 0.6875 0.0
C1249 C 0.80042 0.75771 0.63844 0.0
C1250 C 0.79804 0.74846 0.6649 0.0
H1251 H 0.79224 0.79068 0.60928 0.0
H1252 H 0.81207 0.74576 0.6246 0.0
C1253 C 0.78263 0.76406 0.68234 0.0
C1254 C 0.96581 0.79975 0.66168 0.0
C1255 C 0.9995 0.79838 0.65443 0.0
H1256 H 0.90485 0.76805 0.67182 0.0
C1257 C 0.99776 0.76321 0.65224 0.0
H1258 H 0.96681 0.82678 0.66379 0.0
C1259 C 0.96247 0.72964 0.65717 0.0
C1260 C 0.92874 0.7309 0.66478 0.0
H1261 H 0.02366 0.76169 0.64698 0.0
H1262 H 0.96157 0.70264 0.65521 0.0
C1263 C 0.93059 0.76626 0.66665 0.0
C1264 C 0.2417 0.22851 0.65241 0.0
C1265 C 0.20523 0.19526 0.65483 0.0
H1266 H 0.30439 0.2536 0.65433 0.0
C1267 C 0.20417 0.16098 0.6608 0.0
H1268 H 0.24323 0.25532 0.64799 0.0
C1269 C 0.239 0.16 0.66467 0.0
C1270 C 0.2756 0.19344 0.66304 0.0
H1271 H 0.17633 0.13498 0.66294 0.0
H1272 H 0.23724 0.13313 0.66914 0.0
C1273 C 0.27658 0.22753 0.65621 0.0
C1274 C 0.82848 0.01408 0.67 0.0
C1275 C 0.79181 0.991 0.65877 0.0
H1276 H 0.87015 0.06959 0.68304 0.0
C1277 C 0.76934 0.00697 0.65027 0.0
H1278 H 0.84604 0.00203 0.67682 0.0
C1279 C 0.78301 0.04575 0.65388 0.0
C1280 C 0.81902 0.06869 0.66634 0.0
H1281 H 0.74074 0.9893 0.64175 0.0
H1282 H 0.76465 0.05731 0.64793 0.0
C1283 C 0.84205 0.05262 0.67373 0.0
C1284 C 0.4704 0.31496 0.74072 0.0
C1285 C 0.49004 0.34311 0.7218 0.0
H1286 H 0.42425 0.25789 0.74838 0.0
C1287 C 0.47626 0.33671 0.69627 0.0
H1288 H 0.48095 0.3194 0.7605 0.0
C1289 C 0.44435 0.30182 0.68935 0.0
C1290 C 0.42578 0.27276 0.70784 0.0
H1291 H 0.49116 0.35816 0.68141 0.0
H1292 H 0.43466 0.29735 0.66943 0.0
C1293 C 0.43812 0.27996 0.7338 0.0
C1294 C 0.71112 0.178 0.71227 0.0
C1295 C 0.67765 0.14363 0.71922 0.0
H1296 H 0.77242 0.20656 0.70258 0.0
C1297 C 0.68062 0.11068 0.72108 0.0
H1298 H 0.70945 0.20376 0.71043 0.0
C1299 C 0.71659 0.11218 0.71624 0.0
C1300 C 0.75012 0.14651 0.70902 0.0
H1301 H 0.65514 0.08377 0.72612 0.0
H1302 H 0.7182 0.08639 0.71802 0.0
C1303 C 0.74705 0.17952 0.70741 0.0
C1304 C 0.8581 0.52556 0.69876 0.0
C1305 C 0.8928 0.53781 0.71273 0.0
H1306 H 0.81625 0.53973 0.68389 0.0
C1307 C 0.91142 0.57397 0.72386 0.0
H1308 H 0.84341 0.49765 0.69 0.0
C1309 C 0.89613 0.59828 0.72024 0.0
C1310 C 0.86223 0.58681 0.70519 0.0
H1311 H 0.93838 0.58384 0.73463 0.0
H1312 H 0.91167 0.62644 0.72849 0.0
C1313 C 0.84282 0.54979 0.69509 0.0
C1314 C 0.47414 0.92108 0.22402 0.0
C1315 C 0.46082 0.93511 0.24431 0.0
H1316 H 0.49928 0.9305 0.18563 0.0
C1317 C 0.46281 0.97041 0.24072 0.0
H1318 H 0.47272 0.89385 0.22601 0.0
C1319 C 0.47803 0.99128 0.21778 0.0
C1320 C 0.49143 0.97744 0.19748 0.0
H1321 H 0.45307 0.98226 0.2559 0.0
H1322 H 0.47937 0.01849 0.21592 0.0
C1323 C 0.48893 0.94184 0.20077 0.0
C1324 C 0.02287 0.52754 0.24451 0.0
C1325 C 0.05178 0.51692 0.24686 0.0
H1326 H 0.98134 0.53173 0.22012 0.0
C1327 C 0.06091 0.50217 0.22489 0.0
H1328 H 0.01455 0.53855 0.26098 0.0
C1329 C 0.04099 0.49733 0.20146 0.0
C1330 C 0.01156 0.5073 0.19932 0.0
H1331 H 0.08338 0.49417 0.22579 0.0
H1332 H 0.04806 0.48488 0.18524 0.0
C1333 C 1.00326 0.52303 0.22108 0.0
C1334 C 0.47449 0.50825 0.24052 0.0
C1335 C 0.48127 0.54556 0.24252 0.0
H1336 H 0.48047 0.46763 0.21727 0.0
C1337 C 0.49713 0.56993 0.22093 0.0
H1338 H 0.46246 0.48882 0.25679 0.0
C1339 C 0.50742 0.55784 0.1983 0.0
C1340 C 0.50245 0.52115 0.19673 0.0
H1341 H 0.50235 0.59875 0.22174 0.0
H1342 H 0.52076 0.5778 0.18242 0.0
C1343 C 0.48516 0.49626 0.21795 0.0
C1344 C 0.996 0.49873 0.79883 0.0
C1345 C 0.96068 0.46411 0.79671 0.0
H1346 H 0.04418 0.53562 0.82298 0.0
C1347 C 0.94577 0.44082 0.81886 0.0
H1348 H 0.00855 0.51721 0.78213 0.0
C1349 C 0.96643 0.45126 0.84227 0.0
C1350 C 1.0026 0.48512 0.84404 0.0
H1351 H 0.91845 0.41414 0.81796 0.0
H1352 H 0.95478 0.43209 0.8587 0.0
C1353 C 0.01671 0.50907 0.82218 0.0
C1354 C 0.51465 0.46896 0.79936 0.0
C1355 C 0.55568 0.48645 0.79727 0.0
H1356 H 0.46534 0.4598 0.82253 0.0
C1357 C 0.57859 0.50818 0.81828 0.0
H1358 H 0.4961 0.45219 0.78354 0.0
C1359 C 0.56093 0.51256 0.84069 0.0
C1360 C 0.51991 0.49562 0.84257 0.0
H1361 H 0.61026 0.52166 0.81747 0.0
H1362 H 0.57946 0.52991 0.85633 0.0
C1363 C 0.49702 0.47359 0.82166 0.0
C1364 C 0.54845 0.07747 0.81541 0.0
C1365 C 0.52206 0.06616 0.79448 0.0
H1366 H 0.55964 0.06486 0.85406 0.0
C1367 C 0.48619 0.03203 0.79693 0.0
H1368 H 0.5762 0.10373 0.81429 0.0
C1369 C 0.47659 0.01019 0.8196 0.0
C1370 C 0.50258 0.0214 0.8407 0.0
H1371 H 0.4652 0.02214 0.78123 0.0
H1372 H 0.44832 0.98449 0.82064 0.0
C1373 C 0.53872 0.05546 0.83833 0.0
C1374 C 0.1038 0.25905 0.55583 0.0
C1375 C 0.12806 0.26297 0.5771 0.0
H1376 H 0.09983 0.27688 0.5172 0.0
C1377 C 0.16869 0.28743 0.57425 0.0
H1378 H 0.07244 0.24006 0.55704 0.0
C1379 C 0.18439 0.30826 0.55129 0.0
C1380 C 0.16004 0.30536 0.53036 0.0
H1381 H 0.18841 0.29149 0.59009 0.0
H1382 H 0.21578 0.32713 0.55008 0.0
C1383 C 0.11956 0.27985 0.53278 0.0
C1384 C 0.68808 0.85951 0.57694 0.0
C1385 C 0.71755 0.84966 0.57945 0.0
H1386 H 0.64604 0.86255 0.5524 0.0
C1387 C 0.72713 0.83506 0.55759 0.0
H1388 H 0.67939 0.87035 0.59331 0.0
C1389 C 0.70714 0.82966 0.53411 0.0
C1390 C 0.67716 0.83887 0.53181 0.0
H1391 H 0.75001 0.82762 0.55861 0.0
H1392 H 0.7146 0.81739 0.51796 0.0
C1393 C 0.66839 0.85442 0.55347 0.0
C1394 C 0.16375 0.903 0.55366 0.0
C1395 C 0.1479 0.87863 0.57525 0.0
H1396 H 0.18741 0.9109 0.51515 0.0
C1397 C 0.14108 0.84131 0.57323 0.0
H1398 H 0.16902 0.93183 0.55448 0.0
C1399 C 0.15174 0.82932 0.55065 0.0
C1400 C 0.16907 0.85422 0.52943 0.0
H1401 H 0.12905 0.82188 0.5895 0.0
H1402 H 0.14703 0.80069 0.54997 0.0
C1403 C 0.17404 0.89092 0.53102 0.0
C1404 C 0.66913 0.83141 0.13044 0.0
C1405 C 0.63341 0.79729 0.12785 0.0
H1406 H 0.71689 0.86712 0.15531 0.0
C1407 C 0.61742 0.77364 0.14973 0.0
H1408 H 0.68241 0.8501 0.11393 0.0
C1409 C 0.63726 0.78334 0.17344 0.0
C1410 C 0.6737 0.81675 0.17574 0.0
H1411 H 0.58979 0.74732 0.14841 0.0
H1412 H 0.62471 0.76399 0.18971 0.0
C1413 C 0.68909 0.84096 0.15408 0.0
C1414 C 0.20913 0.79886 0.14777 0.0
C1415 C 0.22252 0.82665 0.12807 0.0
H1416 H 0.18284 0.78185 0.18564 0.0
C1417 C 0.21955 0.85939 0.13202 0.0
H1418 H 0.21128 0.77345 0.1454 0.0
C1419 C 0.20319 0.86407 0.15488 0.0
C1420 C 0.1897 0.83634 0.17458 0.0
H1421 H 0.22934 0.88123 0.11719 0.0
H1422 H 0.20111 0.88954 0.15716 0.0
C1423 C 0.19321 0.80382 0.17089 0.0
C1424 C 0.21175 0.40892 0.14854 0.0
C1425 C 0.18543 0.39736 0.12755 0.0
H1426 H 0.22295 0.39662 0.18727 0.0
C1427 C 0.14969 0.3631 0.13002 0.0
H1428 H 0.23939 0.43529 0.14742 0.0
C1429 C 0.14016 0.34136 0.15274 0.0
C1430 C 0.16609 0.35281 0.17389 0.0
H1431 H 0.12876 0.35302 0.11428 0.0
H1432 H 0.112 0.31554 0.15378 0.0
C1433 C 0.20208 0.38702 0.17151 0.0
C1434 C 0.76923 0.59379 0.88984 0.0
C1435 C 0.79343 0.59785 0.91118 0.0
H1436 H 0.76536 0.61137 0.85111 0.0
C1437 C 0.83406 0.62236 0.90836 0.0
H1438 H 0.73787 0.57476 0.89102 0.0
C1439 C 0.84981 0.64304 0.88535 0.0
C1440 C 0.82553 0.63999 0.86434 0.0
H1441 H 0.85375 0.62655 0.92424 0.0
H1442 H 0.8812 0.66192 0.88418 0.0
C1443 C 0.78505 0.61447 0.86675 0.0
C1444 C 0.3975 0.16899 0.89033 0.0
C1445 C 0.388 0.18362 0.9122 0.0
H1446 H 0.38469 0.15104 0.85077 0.0
C1447 C 0.35845 0.19339 0.90974 0.0
H1448 H 0.42045 0.16164 0.89129 0.0
C1449 C 0.33858 0.18811 0.88633 0.0
C1450 C 0.34721 0.17243 0.86469 0.0
H1451 H 0.34982 0.20427 0.92612 0.0
H1452 H 0.31615 0.19615 0.88531 0.0
C1453 C 0.37732 0.16338 0.86691 0.0
C1454 C 0.83466 0.23803 0.88782 0.0
C1455 C 0.81871 0.21347 0.90931 0.0
H1456 H 0.85863 0.24632 0.84939 0.0
C1457 C 0.81216 0.17625 0.9072 0.0
H1458 H 0.83971 0.26679 0.8887 0.0
C1459 C 0.82308 0.16452 0.88462 0.0
C1460 C 0.84045 0.18959 0.8635 0.0
H1461 H 0.80006 0.15668 0.92339 0.0
H1462 H 0.8185 0.13593 0.88386 0.0
C1463 C 0.84523 0.22621 0.86518 0.0
C1464 C 0.28393 0.10679 0.48256 0.0
C1465 C 0.29956 0.13057 0.46071 0.0
H1466 H 0.29165 0.09718 0.52248 0.0
C1467 C 0.335 0.16496 0.46329 0.0
H1468 H 0.25652 0.08026 0.48125 0.0
C1469 C 0.35508 0.17465 0.48688 0.0
C1470 C 0.34009 0.15032 0.50851 0.0
H1471 H 0.34801 0.18377 0.4468 0.0
H1472 H 0.38268 0.20103 0.4881 0.0
C1473 C 0.30389 0.11663 0.50623 0.0
C1474 C 0.91245 0.17628 0.4854 0.0
C1475 C 0.8893 0.15441 0.46451 0.0
H1476 H 0.91378 0.19847 0.52336 0.0
C1477 C 0.8483 0.1372 0.46673 0.0
H1478 H 0.9441 0.18956 0.4845 0.0
C1479 C 0.83095 0.14222 0.48902 0.0
C1480 C 0.85408 0.16436 0.50983 0.0
H1481 H 0.82957 0.12032 0.45101 0.0
H1482 H 0.79928 0.12863 0.49 0.0
C1483 C 0.89506 0.18105 0.50782 0.0
C1484 C 0.84443 0.74998 0.48518 0.0
C1485 C 0.86143 0.74262 0.46343 0.0
H1486 H 0.82109 0.73345 0.52374 0.0
C1487 C 0.87078 0.71347 0.46537 0.0
H1488 H 0.8372 0.77248 0.48449 0.0
C1489 C 0.86139 0.69099 0.48789 0.0
C1490 C 0.84281 0.69729 0.50922 0.0
H1491 H 0.88374 0.70689 0.44905 0.0
H1492 H 0.86795 0.66805 0.4884 0.0
C1493 C 0.83544 0.72779 0.5078 0.0
loop_
_geom_bond_atom_site_label_1
_geom_bond_atom_site_label_2
_geom_bond_distance
_geom_bond_site_symmetry_2
_ccdc_geom_bond_type
H0 C3 0.929 . S
H1 C6 0.929 . S
H2 C8 0.930 . S
C3 H0 0.929 . S
C3 C4 1.398 . S
C3 C5 1.396 . S
C4 C3 1.398 . S
C4 C8 1.407 . S
C5 C3 1.396 . S
C5 C6 1.394 . S
C6 H1 0.929 . S
C6 C5 1.394 . S
C6 C7 1.382 . S
C7 C6 1.382 . S
C7 C8 1.392 . S
C7 N9 1.420 . S
C8 H2 0.930 . S
C8 C4 1.407 . S
C8 C7 1.392 . S
N9 C7 1.420 . S
N9 C10 1.244 . S
C10 N9 1.244 . S
H11 C14 0.929 . S
H12 C17 0.929 . S
H13 C19 0.930 . S
C14 H11 0.929 . S
C14 C15 1.398 . S
C14 C16 1.396 . S
C15 C14 1.398 . S
C15 C19 1.407 . S
C16 C14 1.396 . S
C16 C17 1.394 . S
C17 H12 0.929 . S
C17 C16 1.394 . S
C17 C18 1.382 . S
C18 C17 1.382 . S
C18 C19 1.392 . S
C18 N20 1.420 . S
C19 H13 0.930 . S
C19 C15 1.407 . S
C19 C18 1.392 . S
N20 C18 1.420 . S
N20 C21 1.244 . S
C21 N20 1.244 . S
H22 C25 0.929 . S
H23 C28 0.929 . S
H24 C30 0.930 . S
C25 H22 0.929 . S
C25 C26 1.398 . S
C25 C27 1.396 . S
C26 C25 1.398 . S
C26 C30 1.407 . S
C27 C25 1.396 . S
C27 C28 1.394 . S
C28 H23 0.929 . S
C28 C27 1.394 . S
C28 C29 1.382 . S
C29 C28 1.382 . S
C29 C30 1.392 . S
C29 N31 1.420 . S
C30 H24 0.930 . S
C30 C26 1.407 . S
C30 C29 1.392 . S
N31 C29 1.420 . S
N31 C32 1.244 . S
C32 N31 1.244 . S
H33 C36 0.929 . S
H34 C39 0.929 . S
H35 C41 0.930 . S
C36 H33 0.929 . S
C36 C37 1.398 . S
C36 C38 1.396 . S
C37 C36 1.398 . S
C37 C41 1.407 . S
C38 C36 1.396 . S
C38 C39 1.394 . S
C39 H34 0.929 . S
C39 C38 1.394 . S
C39 C40 1.382 . S
C40 C39 1.382 . S
C40 C41 1.392 . S
C40 N42 1.420 . S
C41 H35 0.930 . S
C41 C37 1.407 . S
C41 C40 1.392 . S
N42 C40 1.420 . S
N42 C43 1.244 . S
C43 N42 1.244 . S
H44 C47 0.929 . S
H45 C50 0.929 . S
H46 C52 0.930 . S
C47 H44 0.929 . S
C47 C48 1.398 . S
C47 C49 1.396 . S
C48 C47 1.398 . S
C48 C52 1.407 . S
C49 C47 1.396 . S
C49 C50 1.394 . S
C50 H45 0.929 . S
C50 C49 1.394 . S
C50 C51 1.382 . S
C51 C50 1.382 . S
C51 C52 1.392 . S
C51 N53 1.420 . S
C52 H46 0.930 . S
C52 C48 1.407 . S
C52 C51 1.392 . S
N53 C51 1.420 . S
N53 C54 1.244 . S
C54 N53 1.244 . S
H55 C58 0.929 . S
H56 C61 0.929 . S
H57 C63 0.930 . S
C58 H55 0.929 . S
C58 C59 1.398 . S
C58 C60 1.396 . S
C59 C58 1.398 . S
C59 C63 1.407 . S
C60 C58 1.396 . S
C60 C61 1.394 . S
C61 H56 0.929 . S
C61 C60 1.394 . S
C61 C62 1.382 . S
C62 C61 1.382 . S
C62 C63 1.392 . S
C62 N64 1.420 . S
C63 H57 0.930 . S
C63 C59 1.407 . S
C63 C62 1.392 . S
N64 C62 1.420 . S
N64 C65 1.244 . S
C65 N64 1.244 . S
H66 C69 0.929 . S
H67 C72 0.929 . S
H68 C74 0.930 . S
C69 H66 0.929 . S
C69 C70 1.398 . S
C69 C71 1.396 . S
C70 C69 1.398 . S
C70 C74 1.407 . S
C71 C69 1.396 . S
C71 C72 1.394 . S
C72 H67 0.929 . S
C72 C71 1.394 . S
C72 C73 1.382 . S
C73 C72 1.382 . S
C73 C74 1.392 . S
C73 N75 1.420 . S
C74 H68 0.930 . S
C74 C70 1.407 . S
C74 C73 1.392 . S
N75 C73 1.420 . S
N75 C76 1.244 . S
C76 N75 1.244 . S
H77 C80 0.929 . S
H78 C83 0.929 . S
H79 C85 0.930 . S
C80 H77 0.929 . S
C80 C81 1.398 . S
C80 C82 1.396 . S
C81 C80 1.398 . S
C81 C85 1.407 . S
C82 C80 1.396 . S
C82 C83 1.394 . S
C83 H78 0.929 . S
C83 C82 1.394 . S
C83 C84 1.382 . S
C84 C83 1.382 . S
C84 C85 1.392 . S
C84 N86 1.420 . S
C85 H79 0.930 . S
C85 C81 1.407 . S
C85 C84 1.392 . S
N86 C84 1.420 . S
N86 C87 1.244 . S
C87 N86 1.244 . S
H88 C91 0.929 . S
H89 C94 0.929 . S
H90 C96 0.930 . S
C91 H88 0.929 . S
C91 C92 1.398 . S
C91 C93 1.396 . S
C92 C91 1.398 . S
C92 C96 1.407 . S
C93 C91 1.396 . S
C93 C94 1.394 . S
C94 H89 0.929 . S
C94 C93 1.394 . S
C94 C95 1.382 . S
C95 C94 1.382 . S
C95 C96 1.392 . S
C95 N97 1.420 . S
C96 H90 0.930 . S
C96 C92 1.407 . S
C96 C95 1.392 . S
N97 C95 1.420 . S
N97 C98 1.244 . S
C98 N97 1.244 . S
H99 C102 0.929 . S
H100 C105 0.929 . S
H101 C107 0.930 . S
C102 H99 0.929 . S
C102 C103 1.398 . S
C102 C104 1.396 . S
C103 C102 1.398 . S
C103 C107 1.407 . S
C104 C102 1.396 . S
C104 C105 1.394 . S
C105 H100 0.929 . S
C105 C104 1.394 . S
C105 C106 1.382 . S
C106 C105 1.382 . S
C106 C107 1.392 . S
C106 N108 1.420 . S
C107 H101 0.930 . S
C107 C103 1.407 . S
C107 C106 1.392 . S
N108 C106 1.420 . S
N108 C109 1.244 . S
C109 N108 1.244 . S
H110 C113 0.929 . S
H111 C116 0.929 . S
H112 C118 0.930 . S
C113 H110 0.929 . S
C113 C114 1.398 . S
C113 C115 1.396 . S
C114 C113 1.398 . S
C114 C118 1.407 . S
C115 C113 1.396 . S
C115 C116 1.394 . S
C116 H111 0.929 . S
C116 C115 1.394 . S
C116 C117 1.382 . S
C117 C116 1.382 . S
C117 C118 1.392 . S
C117 N119 1.420 . S
C118 H112 0.930 . S
C118 C114 1.407 . S
C118 C117 1.392 . S
N119 C117 1.420 . S
N119 C120 1.244 . S
C120 N119 1.244 . S
H121 C124 0.929 . S
H122 C127 0.929 . S
H123 C129 0.930 . S
C124 H121 0.929 . S
C124 C125 1.398 . S
C124 C126 1.396 . S
C125 C124 1.398 . S
C125 C129 1.407 . S
C126 C124 1.396 . S
C126 C127 1.394 . S
C127 H122 0.929 . S
C127 C126 1.394 . S
C127 C128 1.382 . S
C128 C127 1.382 . S
C128 C129 1.392 . S
C128 N130 1.420 . S
C129 H123 0.930 . S
C129 C125 1.407 . S
C129 C128 1.392 . S
N130 C128 1.420 . S
N130 C131 1.244 . S
C131 N130 1.244 . S
H132 C135 0.929 . S
H133 C138 0.929 . S
H134 C140 0.930 . S
C135 H132 0.929 . S
C135 C136 1.398 . S
C135 C137 1.396 . S
C136 C135 1.398 . S
C136 C140 1.407 . S
C137 C135 1.396 . S
C137 C138 1.394 . S
C138 H133 0.929 . S
C138 C137 1.394 . S
C138 C139 1.382 . S
C139 C138 1.382 . S
C139 C140 1.392 . S
C139 N141 1.420 . S
C140 H134 0.930 . S
C140 C136 1.407 . S
C140 C139 1.392 . S
N141 C139 1.420 . S
N141 C142 1.244 . S
C142 N141 1.244 . S
H143 C146 0.929 . S
H144 C149 0.929 . S
H145 C151 0.930 . S
C146 H143 0.929 . S
C146 C147 1.398 . S
C146 C148 1.396 . S
C147 C146 1.398 . S
C147 C151 1.407 . S
C148 C146 1.396 . S
C148 C149 1.394 . S
C149 H144 0.929 . S
C149 C148 1.394 . S
C149 C150 1.382 . S
C150 C149 1.382 . S
C150 C151 1.392 . S
C150 N152 1.420 . S
C151 H145 0.930 . S
C151 C147 1.407 . S
C151 C150 1.392 . S
N152 C150 1.420 . S
N152 C153 1.244 . S
C153 N152 1.244 . S
H154 C157 0.929 . S
H155 C160 0.929 . S
H156 C162 0.930 . S
C157 H154 0.929 . S
C157 C158 1.398 . S
C157 C159 1.396 . S
C158 C157 1.398 . S
C158 C162 1.407 . S
C159 C157 1.396 . S
C159 C160 1.394 . S
C160 H155 0.929 . S
C160 C159 1.394 . S
C160 C161 1.382 . S
C161 C160 1.382 . S
C161 C162 1.392 . S
C161 N163 1.420 . S
C162 H156 0.930 . S
C162 C158 1.407 . S
C162 C161 1.392 . S
N163 C161 1.420 . S
N163 C164 1.244 . S
C164 N163 1.244 . S
H165 C168 0.929 . S
H166 C171 0.929 . S
H167 C173 0.930 . S
C168 H165 0.929 . S
C168 C169 1.398 . S
C168 C170 1.396 . S
C169 C168 1.398 . S
C169 C173 1.407 . S
C170 C168 1.396 . S
C170 C171 1.394 . S
C171 H166 0.929 . S
C171 C170 1.394 . S
C171 C172 1.382 . S
C172 C171 1.382 . S
C172 C173 1.392 . S
C172 N174 1.420 . S
C173 H167 0.930 . S
C173 C169 1.407 . S
C173 C172 1.392 . S
N174 C172 1.420 . S
N174 C175 1.244 . S
C175 N174 1.244 . S
H176 C179 0.929 . S
H177 C182 0.929 . S
H178 C184 0.930 . S
C179 H176 0.929 . S
C179 C180 1.398 . S
C179 C181 1.396 . S
C180 C179 1.398 . S
C180 C184 1.407 . S
C181 C179 1.396 . S
C181 C182 1.394 . S
C182 H177 0.929 . S
C182 C181 1.394 . S
C182 C183 1.382 . S
C183 C182 1.382 . S
C183 C184 1.392 . S
C183 N185 1.420 . S
C184 H178 0.930 . S
C184 C180 1.407 . S
C184 C183 1.392 . S
N185 C183 1.420 . S
N185 C186 1.244 . S
C186 N185 1.244 . S
H187 C190 0.929 . S
H188 C193 0.929 . S
H189 C195 0.930 . S
C190 H187 0.929 . S
C190 C191 1.398 . S
C190 C192 1.396 . S
C191 C190 1.398 . S
C191 C195 1.407 . S
C192 C190 1.396 . S
C192 C193 1.394 . S
C193 H188 0.929 . S
C193 C192 1.394 . S
C193 C194 1.382 . S
C194 C193 1.382 . S
C194 C195 1.392 . S
C194 N196 1.420 . S
C195 H189 0.930 . S
C195 C191 1.407 . S
C195 C194 1.392 . S
N196 C194 1.420 . S
N196 C197 1.244 . S
C197 N196 1.244 . S
Gd198 N229 2.661 . S
Gd198 N235 2.601 . S
Gd198 O242 2.545 . S
Gd198 O243 2.606 1_545 S
Gd198 O245 2.429 . S
Gd198 O246 2.545 1_545 S
Gd198 O247 2.412 1_545 S
Gd198 O249 2.362 . S
Gd198 O250 2.324 1_545 S
Gd198 C257 2.828 . S
Gd199 N208 2.661 . S
Gd199 N212 2.601 . S
Gd199 O243 2.362 1_556 S
Gd199 O244 2.324 1_565 S
Gd199 O248 2.545 . S
Gd199 O249 2.606 1_566 S
Gd199 O251 2.429 . S
Gd199 O252 2.545 1_565 S
Gd199 O253 2.412 1_565 S
Gd199 C266 2.828 . S
C200 C203 1.417 . S
C200 C205 1.431 . S
C200 C206 1.412 . S
C201 C204 1.437 . S
C201 C205 1.317 . S
C201 H220 0.929 . S
C202 C203 1.426 . S
C202 C204 1.413 . S
C202 N212 1.359 . S
C203 C200 1.417 . S
C203 C202 1.426 . S
C203 N208 1.350 . S
C204 C201 1.437 . S
C204 C202 1.413 . S
C204 C214 1.391 . S
C205 C200 1.431 . S
C205 C201 1.317 . S
C205 H216 0.930 . S
C206 C200 1.412 . S
C206 C207 1.355 . S
C206 H218 0.930 . S
C207 C206 1.355 . S
C207 C209 1.402 . S
C207 H219 0.930 . S
N208 Gd199 2.661 . S
N208 C203 1.350 . S
N208 C209 1.307 . S
C209 C207 1.402 . S
C209 N208 1.307 . S
C209 H210 0.930 . S
H210 C209 0.930 . S
C211 N212 1.334 . S
C211 C213 1.394 . S
C211 H215 0.930 . S
N212 Gd199 2.601 . S
N212 C202 1.359 . S
N212 C211 1.334 . S
C213 C211 1.394 . S
C213 C214 1.359 . S
C213 H225 0.930 . S
C214 C204 1.391 . S
C214 C213 1.359 . S
C214 H226 0.929 . S
H215 C211 0.930 . S
H216 C205 0.930 . S
H217 C234 0.930 . S
H218 C206 0.930 . S
H219 C207 0.930 . S
H220 C201 0.929 . S
H221 C239 0.930 . S
H222 C230 0.930 . S
H223 C231 0.930 . S
H224 C255 0.929 . S
H225 C213 0.930 . S
H226 C214 0.929 . S
H227 C256 0.930 . S
H228 C237 0.930 . S
N229 Gd198 2.661 . S
N229 C233 1.350 . S
N229 C234 1.307 . S
C230 H222 0.930 . S
C230 C231 1.355 . S
C230 C232 1.412 . S
C231 H223 0.930 . S
C231 C230 1.355 . S
C231 C234 1.402 . S
C232 C230 1.412 . S
C232 C233 1.417 . S
C232 C256 1.431 . S
C233 N229 1.350 . S
C233 C232 1.417 . S
C233 C236 1.426 . S
C234 H217 0.930 . S
C234 N229 1.307 . S
C234 C231 1.402 . S
N235 Gd198 2.601 . S
N235 C236 1.359 . S
N235 C239 1.334 . S
C236 C233 1.426 . S
C236 N235 1.359 . S
C236 C240 1.413 . S
C237 H228 0.930 . S
C237 C238 1.359 . S
C237 C239 1.394 . S
C238 C237 1.359 . S
C238 C240 1.391 . S
C238 H241 0.929 . S
C239 H221 0.930 . S
C239 N235 1.334 . S
C239 C237 1.394 . S
C240 C236 1.413 . S
C240 C238 1.391 . S
C240 C255 1.437 . S
H241 C238 0.929 . S
O242 Gd198 2.545 . S
O242 C257 1.258 . S
O243 Gd198 2.606 1_565 S
O243 Gd199 2.362 1_554 S
O243 C254 1.284 . S
O244 Gd199 2.324 1_545 S
O244 C264 1.254 . S
O245 Gd198 2.429 . S
O245 C264 1.268 1_554 S
O246 Gd198 2.545 1_565 S
O246 C254 1.250 . S
O247 Gd198 2.412 1_565 S
O247 C257 1.252 1_565 S
O248 Gd199 2.545 . S
O248 C266 1.258 . S
O249 Gd198 2.362 . S
O249 Gd199 2.606 1_544 S
O249 C265 1.284 1_554 S
O250 Gd198 2.324 1_565 S
O250 C273 1.254 . S
O251 Gd199 2.429 . S
O251 C273 1.268 1_556 S
O252 Gd199 2.545 1_545 S
O252 C265 1.250 . S
O253 Gd199 2.412 1_545 S
O253 C266 1.252 1_545 S
C254 O243 1.284 . S
C254 O246 1.250 . S
C255 H224 0.929 . S
C255 C240 1.437 . S
C255 C256 1.317 . S
C256 H227 0.930 . S
C256 C232 1.431 . S
C256 C255 1.317 . S
C257 Gd198 2.828 . S
C257 O242 1.258 . S
C257 O247 1.252 1_545 S
C257 C258 1.497 . S
C258 C257 1.497 . S
C258 C259 1.395 . S
C258 C260 1.380 1_545 S
C259 C258 1.395 . S
C259 C262 1.398 . S
C259 H274 0.930 . S
C260 C258 1.380 1_565 S
C260 C261 1.391 . S
C260 H275 0.930 . S
C261 C260 1.391 . S
C261 C263 1.387 . S
C262 C259 1.398 . S
C262 C263 1.380 1_545 S
C262 H276 0.930 . S
C263 C261 1.387 . S
C263 C262 1.380 1_565 S
C263 H277 0.930 . S
C264 O244 1.254 . S
C264 O245 1.268 1_556 S
C265 O249 1.284 1_556 S
C265 O252 1.250 . S
C266 Gd199 2.828 . S
C266 O248 1.258 . S
C266 O253 1.252 1_565 S
C266 C267 1.497 1_565 S
C267 C266 1.497 1_545 S
C267 C268 1.395 1_545 S
C267 C269 1.380 . S
C268 C267 1.395 1_565 S
C268 C271 1.398 . S
C268 H278 0.930 . S
C269 C267 1.380 . S
C269 C270 1.391 . S
C269 H279 0.930 . S
C270 C269 1.391 . S
C270 C272 1.387 . S
C271 C268 1.398 . S
C271 C272 1.380 1_565 S
C271 H280 0.930 . S
C272 C270 1.387 . S
C272 C271 1.380 1_545 S
C272 H281 0.930 . S
C273 O250 1.254 . S
C273 O251 1.268 1_554 S
H274 C259 0.930 . S
H275 C260 0.930 . S
H276 C262 0.930 . S
H277 C263 0.930 . S
H278 C268 0.930 . S
H279 C269 0.930 . S
H280 C271 0.930 . S
H281 C272 0.930 . S
Gd282 N313 2.661 . S
Gd282 N319 2.601 . S
Gd282 O326 2.545 . S
Gd282 O327 2.606 1_655 S
Gd282 O329 2.429 . S
Gd282 O330 2.545 1_655 S
Gd282 O331 2.412 1_655 S
Gd282 O333 2.362 . S
Gd282 O334 2.324 1_655 S
Gd282 C341 2.828 . S
Gd283 N292 2.661 . S
Gd283 N296 2.601 . S
Gd283 O327 2.362 1_556 S
Gd283 O328 2.324 1_455 S
Gd283 O332 2.545 . S
Gd283 O333 2.606 1_456 S
Gd283 O335 2.429 . S
Gd283 O336 2.545 1_455 S
Gd283 O337 2.412 1_455 S
Gd283 C350 2.828 . S
C284 C287 1.417 . S
C284 C289 1.431 . S
C284 C290 1.412 . S
C285 C288 1.437 . S
C285 C289 1.317 . S
C285 H304 0.929 . S
C286 C287 1.426 . S
C286 C288 1.413 . S
C286 N296 1.359 . S
C287 C284 1.417 . S
C287 C286 1.426 . S
C287 N292 1.350 . S
C288 C285 1.437 . S
C288 C286 1.413 . S
C288 C298 1.391 . S
C289 C284 1.431 . S
C289 C285 1.317 . S
C289 H300 0.930 . S
C290 C284 1.412 . S
C290 C291 1.355 . S
C290 H302 0.930 . S
C291 C290 1.355 . S
C291 C293 1.402 . S
C291 H303 0.930 . S
N292 Gd283 2.661 . S
N292 C287 1.350 . S
N292 C293 1.307 . S
C293 C291 1.402 . S
C293 N292 1.307 . S
C293 H294 0.930 . S
H294 C293 0.930 . S
C295 N296 1.334 . S
C295 C297 1.394 . S
C295 H299 0.930 . S
N296 Gd283 2.601 . S
N296 C286 1.359 . S
N296 C295 1.334 . S
C297 C295 1.394 . S
C297 C298 1.359 . S
C297 H309 0.930 . S
C298 C288 1.391 . S
C298 C297 1.359 . S
C298 H310 0.929 . S
H299 C295 0.930 . S
H300 C289 0.930 . S
H301 C318 0.930 . S
H302 C290 0.930 . S
H303 C291 0.930 . S
H304 C285 0.929 . S
H305 C323 0.930 . S
H306 C314 0.930 . S
H307 C315 0.930 . S
H308 C339 0.929 . S
H309 C297 0.930 . S
H310 C298 0.929 . S
H311 C340 0.930 . S
H312 C321 0.930 . S
N313 Gd282 2.661 . S
N313 C317 1.350 . S
N313 C318 1.307 . S
C314 H306 0.930 . S
C314 C315 1.355 . S
C314 C316 1.412 . S
C315 H307 0.930 . S
C315 C314 1.355 . S
C315 C318 1.402 . S
C316 C314 1.412 . S
C316 C317 1.417 . S
C316 C340 1.431 . S
C317 N313 1.350 . S
C317 C316 1.417 . S
C317 C320 1.426 . S
C318 H301 0.930 . S
C318 N313 1.307 . S
C318 C315 1.402 . S
N319 Gd282 2.601 . S
N319 C320 1.359 . S
N319 C323 1.334 . S
C320 C317 1.426 . S
C320 N319 1.359 . S
C320 C324 1.413 . S
C321 H312 0.930 . S
C321 C322 1.359 . S
C321 C323 1.394 . S
C322 C321 1.359 . S
C322 C324 1.391 . S
C322 H325 0.929 . S
C323 H305 0.930 . S
C323 N319 1.334 . S
C323 C321 1.394 . S
C324 C320 1.413 . S
C324 C322 1.391 . S
C324 C339 1.437 . S
H325 C322 0.929 . S
O326 Gd282 2.545 . S
O326 C341 1.258 . S
O327 Gd282 2.606 1_455 S
O327 Gd283 2.362 1_554 S
O327 C338 1.284 . S
O328 Gd283 2.324 1_655 S
O328 C348 1.254 . S
O329 Gd282 2.429 . S
O329 C348 1.268 1_554 S
O330 Gd282 2.545 1_455 S
O330 C338 1.250 . S
O331 Gd282 2.412 1_455 S
O331 C341 1.252 1_455 S
O332 Gd283 2.545 . S
O332 C350 1.258 . S
O333 Gd282 2.362 . S
O333 Gd283 2.606 1_654 S
O333 C349 1.284 1_554 S
O334 Gd282 2.324 1_455 S
O334 C357 1.254 . S
O335 Gd283 2.429 . S
O335 C357 1.268 1_556 S
O336 Gd283 2.545 1_655 S
O336 C349 1.250 . S
O337 Gd283 2.412 1_655 S
O337 C350 1.252 1_655 S
C338 O327 1.284 . S
C338 O330 1.250 . S
C339 H308 0.929 . S
C339 C324 1.437 . S
C339 C340 1.317 . S
C340 H311 0.930 . S
C340 C316 1.431 . S
C340 C339 1.317 . S
C341 Gd282 2.828 . S
C341 O326 1.258 . S
C341 O331 1.252 1_655 S
C341 C342 1.491 1_655 S
C342 C341 1.491 1_455 S
C342 C343 1.386 1_455 S
C342 C344 1.398 . S
C343 C342 1.386 1_655 S
C343 C346 1.398 . S
C343 H358 0.930 . S
C344 C342 1.398 . S
C344 C345 1.391 . S
C344 H359 0.930 . S
C345 C344 1.391 . S
C345 C347 1.387 . S
C346 C343 1.398 . S
C346 C347 1.380 1_655 S
C346 H360 0.930 . S
C347 C345 1.387 . S
C347 C346 1.380 1_455 S
C347 H361 0.930 . S
C348 O328 1.254 . S
C348 O329 1.268 1_556 S
C349 O333 1.284 1_556 S
C349 O336 1.250 . S
C350 Gd283 2.828 . S
C350 O332 1.258 . S
C350 O337 1.252 1_455 S
C350 C351 1.497 . S
C351 C350 1.497 . S
C351 C352 1.395 . S
C351 C353 1.380 1_455 S
C352 C351 1.395 . S
C352 C355 1.398 . S
C352 H362 0.930 . S
C353 C351 1.380 1_655 S
C353 C354 1.391 . S
C353 H363 0.930 . S
C354 C353 1.391 . S
C354 C356 1.387 . S
C355 C352 1.398 . S
C355 C356 1.380 1_455 S
C355 H364 0.930 . S
C356 C354 1.387 . S
C356 C355 1.380 1_655 S
C356 H365 0.930 . S
C357 O334 1.254 . S
C357 O335 1.268 1_554 S
H358 C343 0.930 . S
H359 C344 0.930 . S
H360 C346 0.930 . S
H361 C347 0.930 . S
H362 C352 0.930 . S
H363 C353 0.930 . S
H364 C355 0.930 . S
H365 C356 0.930 . S
Gd366 N397 2.661 . S
Gd366 N403 2.601 . S
Gd366 O410 2.545 . S
Gd366 O411 2.606 1_556 S
Gd366 O413 2.429 . S
Gd366 O414 2.545 . S
Gd366 O415 2.412 . S
Gd366 O417 2.362 1_556 S
Gd366 O418 2.324 . S
Gd366 C425 2.828 . S
Gd367 N376 2.661 . S
Gd367 N380 2.601 . S
Gd367 O411 2.362 . S
Gd367 O412 2.324 . S
Gd367 O416 2.545 . S
Gd367 O417 2.606 . S
Gd367 O419 2.429 . S
Gd367 O420 2.545 . S
Gd367 O421 2.412 . S
Gd367 C434 2.828 . S
C368 C371 1.417 . S
C368 C373 1.431 . S
C368 C374 1.412 . S
C369 C372 1.437 . S
C369 C373 1.317 . S
C369 H388 0.929 . S
C370 C371 1.426 . S
C370 C372 1.413 . S
C370 N380 1.359 . S
C371 C368 1.417 . S
C371 C370 1.426 . S
C371 N376 1.350 . S
C372 C369 1.437 . S
C372 C370 1.413 . S
C372 C382 1.391 . S
C373 C368 1.431 . S
C373 C369 1.317 . S
C373 H384 0.930 . S
C374 C368 1.412 . S
C374 C375 1.355 . S
C374 H386 0.930 . S
C375 C374 1.355 . S
C375 C377 1.402 . S
C375 H387 0.930 . S
N376 Gd367 2.661 . S
N376 C371 1.350 . S
N376 C377 1.307 . S
C377 C375 1.402 . S
C377 N376 1.307 . S
C377 H378 0.930 . S
H378 C377 0.930 . S
C379 N380 1.334 . S
C379 C381 1.394 . S
C379 H383 0.930 . S
N380 Gd367 2.601 . S
N380 C370 1.359 . S
N380 C379 1.334 . S
C381 C379 1.394 . S
C381 C382 1.359 . S
C381 H393 0.930 . S
C382 C372 1.391 . S
C382 C381 1.359 . S
C382 H394 0.929 . S
H383 C379 0.930 . S
H384 C373 0.930 . S
H385 C402 0.930 . S
H386 C374 0.930 . S
H387 C375 0.930 . S
H388 C369 0.929 . S
H389 C407 0.930 . S
H390 C398 0.930 . S
H391 C399 0.930 . S
H392 C423 0.929 . S
H393 C381 0.930 . S
H394 C382 0.929 . S
H395 C424 0.930 . S
H396 C405 0.930 . S
N397 Gd366 2.661 . S
N397 C401 1.350 . S
N397 C402 1.307 . S
C398 H390 0.930 . S
C398 C399 1.355 . S
C398 C400 1.412 . S
C399 H391 0.930 . S
C399 C398 1.355 . S
C399 C402 1.402 . S
C400 C398 1.412 . S
C400 C401 1.417 . S
C400 C424 1.431 . S
C401 N397 1.350 . S
C401 C400 1.417 . S
C401 C404 1.426 . S
C402 H385 0.930 . S
C402 N397 1.307 . S
C402 C399 1.402 . S
N403 Gd366 2.601 . S
N403 C404 1.359 . S
N403 C407 1.334 . S
C404 C401 1.426 . S
C404 N403 1.359 . S
C404 C408 1.413 . S
C405 H396 0.930 . S
C405 C406 1.359 . S
C405 C407 1.394 . S
C406 C405 1.359 . S
C406 C408 1.391 . S
C406 H409 0.929 . S
C407 H389 0.930 . S
C407 N403 1.334 . S
C407 C405 1.394 . S
C408 C404 1.413 . S
C408 C406 1.391 . S
C408 C423 1.437 . S
H409 C406 0.929 . S
O410 Gd366 2.545 . S
O410 C425 1.258 . S
O411 Gd366 2.606 1_554 S
O411 Gd367 2.362 . S
O411 C422 1.284 1_554 S
O412 Gd367 2.324 . S
O412 C432 1.254 . S
O413 Gd366 2.429 . S
O413 C432 1.268 1_556 S
O414 Gd366 2.545 . S
O414 C422 1.250 . S
O415 Gd366 2.412 . S
O415 C425 1.252 . S
O416 Gd367 2.545 . S
O416 C434 1.258 . S
O417 Gd366 2.362 1_554 S
O417 Gd367 2.606 . S
O417 C433 1.284 . S
O418 Gd366 2.324 . S
O418 C441 1.254 . S
O419 Gd367 2.429 . S
O419 C441 1.268 1_554 S
O420 Gd367 2.545 . S
O420 C433 1.250 . S
O421 Gd367 2.412 . S
O421 C434 1.252 . S
C422 O411 1.284 1_556 S
C422 O414 1.250 . S
C423 H392 0.929 . S
C423 C408 1.437 . S
C423 C424 1.317 . S
C424 H395 0.930 . S
C424 C400 1.431 . S
C424 C423 1.317 . S
C425 Gd366 2.828 . S
C425 O410 1.258 . S
C425 O415 1.252 . S
C425 C426 1.497 . S
C426 C425 1.497 . S
C426 C427 1.395 . S
C426 C428 1.380 . S
C427 C426 1.395 . S
C427 C430 1.398 . S
C427 H442 0.930 . S
C428 C426 1.380 . S
C428 C429 1.391 . S
C428 H443 0.930 . S
C429 C428 1.391 . S
C429 C431 1.387 . S
C430 C427 1.398 . S
C430 C431 1.380 . S
C430 H444 0.930 . S
C431 C429 1.387 . S
C431 C430 1.380 . S
C431 H445 0.930 . S
C432 O412 1.254 . S
C432 O413 1.268 1_554 S
C433 O417 1.284 . S
C433 O420 1.250 . S
C434 Gd367 2.828 . S
C434 O416 1.258 . S
C434 O421 1.252 . S
C434 C435 1.497 . S
C435 C434 1.497 . S
C435 C436 1.395 . S
C435 C437 1.380 . S
C436 C435 1.395 . S
C436 C439 1.398 . S
C436 H446 0.930 . S
C437 C435 1.380 . S
C437 C438 1.391 . S
C437 H447 0.930 . S
C438 C437 1.391 . S
C438 C440 1.387 . S
C439 C436 1.398 . S
C439 C440 1.380 . S
C439 H448 0.930 . S
C440 C438 1.387 . S
C440 C439 1.380 . S
C440 H449 0.930 . S
C441 O418 1.254 . S
C441 O419 1.268 1_556 S
H442 C427 0.930 . S
H443 C428 0.930 . S
H444 C430 0.930 . S
H445 C431 0.930 . S
H446 C436 0.930 . S
H447 C437 0.930 . S
H448 C439 0.930 . S
H449 C440 0.930 . S
Gd450 N481 2.661 . S
Gd450 N487 2.601 . S
Gd450 O494 2.545 . S
Gd450 O495 2.606 . S
Gd450 O497 2.429 . S
Gd450 O498 2.545 . S
Gd450 O499 2.412 . S
Gd450 O501 2.362 . S
Gd450 O502 2.324 . S
Gd450 C509 2.828 . S
Gd451 N460 2.661 . S
Gd451 N464 2.601 . S
Gd451 O495 2.362 . S
Gd451 O496 2.324 . S
Gd451 O500 2.545 . S
Gd451 O501 2.606 . S
Gd451 O503 2.429 . S
Gd451 O504 2.545 . S
Gd451 O505 2.412 . S
Gd451 C518 2.828 . S
C452 C455 1.417 1_655 S
C452 C457 1.431 . S
C452 C458 1.412 . S
C453 C456 1.437 1_655 S
C453 C457 1.317 . S
C453 H472 0.929 . S
C454 C455 1.426 . S
C454 C456 1.413 . S
C454 N464 1.359 . S
C455 C452 1.417 1_455 S
C455 C454 1.426 . S
C455 N460 1.350 . S
C456 C453 1.437 1_455 S
C456 C454 1.413 . S
C456 C466 1.391 . S
C457 C452 1.431 . S
C457 C453 1.317 . S
C457 H468 0.930 . S
C458 C452 1.412 . S
C458 C459 1.355 . S
C458 H470 0.930 . S
C459 C458 1.355 . S
C459 C461 1.402 1_655 S
C459 H471 0.930 . S
N460 Gd451 2.661 . S
N460 C455 1.350 . S
N460 C461 1.307 . S
C461 C459 1.402 1_455 S
C461 N460 1.307 . S
C461 H462 0.930 . S
H462 C461 0.930 . S
C463 N464 1.334 . S
C463 C465 1.394 . S
C463 H467 0.930 . S
N464 Gd451 2.601 . S
N464 C454 1.359 . S
N464 C463 1.334 . S
C465 C463 1.394 . S
C465 C466 1.359 . S
C465 H477 0.930 . S
C466 C456 1.391 . S
C466 C465 1.359 . S
C466 H478 0.929 . S
H467 C463 0.930 . S
H468 C457 0.930 . S
H469 C486 0.930 . S
H470 C458 0.930 . S
H471 C459 0.930 . S
H472 C453 0.929 . S
H473 C491 0.930 . S
H474 C482 0.930 . S
H475 C483 0.930 . S
H476 C507 0.929 . S
H477 C465 0.930 . S
H478 C466 0.929 . S
H479 C508 0.930 . S
H480 C489 0.930 . S
N481 Gd450 2.661 . S
N481 C485 1.350 . S
N481 C486 1.307 . S
C482 H474 0.930 . S
C482 C483 1.355 . S
C482 C484 1.412 . S
C483 H475 0.930 . S
C483 C482 1.355 . S
C483 C486 1.402 . S
C484 C482 1.412 . S
C484 C485 1.417 . S
C484 C508 1.431 . S
C485 N481 1.350 . S
C485 C484 1.417 . S
C485 C488 1.426 . S
C486 H469 0.930 . S
C486 N481 1.307 . S
C486 C483 1.402 . S
N487 Gd450 2.601 . S
N487 C488 1.359 . S
N487 C491 1.334 . S
C488 C485 1.426 . S
C488 N487 1.359 . S
C488 C492 1.413 . S
C489 H480 0.930 . S
C489 C490 1.359 . S
C489 C491 1.394 . S
C490 C489 1.359 . S
C490 C492 1.391 . S
C490 H493 0.929 . S
C491 H473 0.930 . S
C491 N487 1.334 . S
C491 C489 1.394 . S
C492 C488 1.413 . S
C492 C490 1.391 . S
C492 C507 1.437 . S
H493 C490 0.929 . S
O494 Gd450 2.545 . S
O494 C509 1.258 . S
O495 Gd450 2.606 . S
O495 Gd451 2.362 . S
O495 C506 1.284 . S
O496 Gd451 2.324 . S
O496 C516 1.254 . S
O497 Gd450 2.429 . S
O497 C516 1.268 . S
O498 Gd450 2.545 . S
O498 C506 1.250 . S
O499 Gd450 2.412 . S
O499 C509 1.252 . S
O500 Gd451 2.545 . S
O500 C518 1.258 . S
O501 Gd450 2.362 . S
O501 Gd451 2.606 . S
O501 C517 1.284 . S
O502 Gd450 2.324 . S
O502 C525 1.254 . S
O503 Gd451 2.429 . S
O503 C525 1.268 . S
O504 Gd451 2.545 . S
O504 C517 1.250 . S
O505 Gd451 2.412 . S
O505 C518 1.252 . S
C506 O495 1.284 . S
C506 O498 1.250 . S
C507 H476 0.929 . S
C507 C492 1.437 . S
C507 C508 1.317 . S
C508 H479 0.930 . S
C508 C484 1.431 . S
C508 C507 1.317 . S
C509 Gd450 2.828 . S
C509 O494 1.258 . S
C509 O499 1.252 . S
C509 C510 1.497 . S
C510 C509 1.497 . S
C510 C511 1.395 . S
C510 C512 1.380 . S
C511 C510 1.395 . S
C511 C514 1.398 . S
C511 H526 0.930 . S
C512 C510 1.380 . S
C512 C513 1.391 . S
C512 H527 0.930 . S
C513 C512 1.391 . S
C513 C515 1.387 . S
C514 C511 1.398 . S
C514 C515 1.380 . S
C514 H528 0.930 . S
C515 C513 1.387 . S
C515 C514 1.380 . S
C515 H529 0.930 . S
C516 O496 1.254 . S
C516 O497 1.268 . S
C517 O501 1.284 . S
C517 O504 1.250 . S
C518 Gd451 2.828 . S
C518 O500 1.258 . S
C518 O505 1.252 . S
C518 C519 1.497 . S
C519 C518 1.497 . S
C519 C520 1.395 . S
C519 C521 1.380 . S
C520 C519 1.395 . S
C520 C523 1.398 . S
C520 H530 0.930 . S
C521 C519 1.380 . S
C521 C522 1.391 . S
C521 H531 0.930 . S
C522 C521 1.391 . S
C522 C524 1.387 . S
C523 C520 1.398 . S
C523 C524 1.380 . S
C523 H532 0.930 . S
C524 C522 1.387 . S
C524 C523 1.380 . S
C524 H533 0.930 . S
C525 O502 1.254 . S
C525 O503 1.268 . S
H526 C511 0.930 . S
H527 C512 0.930 . S
H528 C514 0.930 . S
H529 C515 0.930 . S
H530 C520 0.930 . S
H531 C521 0.930 . S
H532 C523 0.930 . S
H533 C524 0.930 . S
Gd534 N565 2.661 . S
Gd534 N571 2.601 . S
Gd534 O578 2.545 . S
Gd534 O579 2.606 . S
Gd534 O581 2.429 . S
Gd534 O582 2.545 . S
Gd534 O583 2.412 . S
Gd534 O585 2.362 . S
Gd534 O586 2.324 . S
Gd534 C593 2.828 . S
Gd535 N544 2.661 . S
Gd535 N548 2.601 . S
Gd535 O579 2.362 . S
Gd535 O580 2.324 . S
Gd535 O584 2.545 . S
Gd535 O585 2.606 . S
Gd535 O587 2.429 . S
Gd535 O588 2.545 . S
Gd535 O589 2.412 . S
Gd535 C602 2.828 . S
C536 C539 1.417 . S
C536 C541 1.431 . S
C536 C542 1.412 . S
C537 C540 1.437 . S
C537 C541 1.317 . S
C537 H556 0.929 . S
C538 C539 1.426 . S
C538 C540 1.413 . S
C538 N548 1.359 . S
C539 C536 1.417 . S
C539 C538 1.426 . S
C539 N544 1.350 . S
C540 C537 1.437 . S
C540 C538 1.413 . S
C540 C550 1.391 . S
C541 C536 1.431 . S
C541 C537 1.317 . S
C541 H552 0.930 . S
C542 C536 1.412 . S
C542 C543 1.355 . S
C542 H554 0.930 . S
C543 C542 1.355 . S
C543 C545 1.402 . S
C543 H555 0.930 . S
N544 Gd535 2.661 . S
N544 C539 1.350 . S
N544 C545 1.307 . S
C545 C543 1.402 . S
C545 N544 1.307 . S
C545 H546 0.930 . S
H546 C545 0.930 . S
C547 N548 1.334 . S
C547 C549 1.394 . S
C547 H551 0.930 . S
N548 Gd535 2.601 . S
N548 C538 1.359 . S
N548 C547 1.334 . S
C549 C547 1.394 . S
C549 C550 1.359 . S
C549 H561 0.930 . S
C550 C540 1.391 . S
C550 C549 1.359 . S
C550 H562 0.929 . S
H551 C547 0.930 . S
H552 C541 0.930 . S
H553 C570 0.930 . S
H554 C542 0.930 . S
H555 C543 0.930 . S
H556 C537 0.929 . S
H557 C575 0.930 . S
H558 C566 0.930 . S
H559 C567 0.930 . S
H560 C591 0.929 . S
H561 C549 0.930 . S
H562 C550 0.929 . S
H563 C592 0.930 . S
H564 C573 0.930 . S
N565 Gd534 2.661 . S
N565 C569 1.350 . S
N565 C570 1.307 . S
C566 H558 0.930 . S
C566 C567 1.355 . S
C566 C568 1.412 . S
C567 H559 0.930 . S
C567 C566 1.355 . S
C567 C570 1.402 . S
C568 C566 1.412 . S
C568 C569 1.417 . S
C568 C592 1.431 . S
C569 N565 1.350 . S
C569 C568 1.417 . S
C569 C572 1.426 . S
C570 H553 0.930 . S
C570 N565 1.307 . S
C570 C567 1.402 . S
N571 Gd534 2.601 . S
N571 C572 1.359 . S
N571 C575 1.334 . S
C572 C569 1.426 . S
C572 N571 1.359 . S
C572 C576 1.413 . S
C573 H564 0.930 . S
C573 C574 1.359 . S
C573 C575 1.394 . S
C574 C573 1.359 . S
C574 C576 1.391 . S
C574 H577 0.929 . S
C575 H557 0.930 . S
C575 N571 1.334 . S
C575 C573 1.394 . S
C576 C572 1.413 . S
C576 C574 1.391 . S
C576 C591 1.437 . S
H577 C574 0.929 . S
O578 Gd534 2.545 . S
O578 C593 1.258 . S
O579 Gd534 2.606 . S
O579 Gd535 2.362 . S
O579 C590 1.284 . S
O580 Gd535 2.324 . S
O580 C600 1.254 . S
O581 Gd534 2.429 . S
O581 C600 1.268 . S
O582 Gd534 2.545 . S
O582 C590 1.250 . S
O583 Gd534 2.412 . S
O583 C593 1.252 . S
O584 Gd535 2.545 . S
O584 C602 1.258 . S
O585 Gd534 2.362 . S
O585 Gd535 2.606 . S
O585 C601 1.284 . S
O586 Gd534 2.324 . S
O586 C609 1.254 . S
O587 Gd535 2.429 . S
O587 C609 1.268 . S
O588 Gd535 2.545 . S
O588 C601 1.250 . S
O589 Gd535 2.412 . S
O589 C602 1.252 . S
C590 O579 1.284 . S
C590 O582 1.250 . S
C591 H560 0.929 . S
C591 C576 1.437 . S
C591 C592 1.317 . S
C592 H563 0.930 . S
C592 C568 1.431 . S
C592 C591 1.317 . S
C593 Gd534 2.828 . S
C593 O578 1.258 . S
C593 O583 1.252 . S
C593 C594 1.497 . S
C594 C593 1.497 . S
C594 C595 1.395 . S
C594 C596 1.380 . S
C595 C594 1.395 . S
C595 C598 1.398 . S
C595 H610 0.930 . S
C596 C594 1.380 . S
C596 C597 1.391 . S
C596 H611 0.930 . S
C597 C596 1.391 . S
C597 C599 1.387 . S
C598 C595 1.398 . S
C598 C599 1.380 . S
C598 H612 0.930 . S
C599 C597 1.387 . S
C599 C598 1.380 . S
C599 H613 0.930 . S
C600 O580 1.254 . S
C600 O581 1.268 . S
C601 O585 1.284 . S
C601 O588 1.250 . S
C602 Gd535 2.828 . S
C602 O584 1.258 . S
C602 O589 1.252 . S
C602 C603 1.497 . S
C603 C602 1.497 . S
C603 C604 1.395 . S
C603 C605 1.380 . S
C604 C603 1.395 . S
C604 C607 1.398 . S
C604 H614 0.930 . S
C605 C603 1.380 . S
C605 C606 1.391 . S
C605 H615 0.930 . S
C606 C605 1.391 . S
C606 C608 1.387 . S
C607 C604 1.398 . S
C607 C608 1.380 . S
C607 H616 0.930 . S
C608 C606 1.387 . S
C608 C607 1.380 . S
C608 H617 0.930 . S
C609 O586 1.254 . S
C609 O587 1.268 . S
H610 C595 0.930 . S
H611 C596 0.930 . S
H612 C598 0.930 . S
H613 C599 0.930 . S
H614 C604 0.930 . S
H615 C605 0.930 . S
H616 C607 0.930 . S
H617 C608 0.930 . S
Gd618 N649 2.661 . S
Gd618 N655 2.601 . S
Gd618 O662 2.545 . S
Gd618 O663 2.606 . S
Gd618 O665 2.429 . S
Gd618 O666 2.545 . S
Gd618 O667 2.412 . S
Gd618 O669 2.362 . S
Gd618 O670 2.324 . S
Gd618 C677 2.828 . S
Gd619 N628 2.661 . S
Gd619 N632 2.601 . S
Gd619 O663 2.362 . S
Gd619 O664 2.324 . S
Gd619 O668 2.545 . S
Gd619 O669 2.606 . S
Gd619 O671 2.429 . S
Gd619 O672 2.545 . S
Gd619 O673 2.412 . S
Gd619 C686 2.828 . S
C620 C623 1.417 . S
C620 C625 1.431 . S
C620 C626 1.412 . S
C621 C624 1.437 . S
C621 C625 1.317 . S
C621 H640 0.929 . S
C622 C623 1.426 . S
C622 C624 1.413 . S
C622 N632 1.359 . S
C623 C620 1.417 . S
C623 C622 1.426 . S
C623 N628 1.350 . S
C624 C621 1.437 . S
C624 C622 1.413 . S
C624 C634 1.391 . S
C625 C620 1.431 . S
C625 C621 1.317 . S
C625 H636 0.930 . S
C626 C620 1.412 . S
C626 C627 1.355 . S
C626 H638 0.930 . S
C627 C626 1.355 . S
C627 C629 1.402 . S
C627 H639 0.930 . S
N628 Gd619 2.661 . S
N628 C623 1.350 . S
N628 C629 1.307 . S
C629 C627 1.402 . S
C629 N628 1.307 . S
C629 H630 0.930 . S
H630 C629 0.930 . S
C631 N632 1.334 . S
C631 C633 1.394 . S
C631 H635 0.930 . S
N632 Gd619 2.601 . S
N632 C622 1.359 . S
N632 C631 1.334 . S
C633 C631 1.394 . S
C633 C634 1.359 . S
C633 H645 0.930 . S
C634 C624 1.391 . S
C634 C633 1.359 . S
C634 H646 0.929 . S
H635 C631 0.930 . S
H636 C625 0.930 . S
H637 C654 0.930 . S
H638 C626 0.930 . S
H639 C627 0.930 . S
H640 C621 0.929 . S
H641 C659 0.930 . S
H642 C650 0.930 . S
H643 C651 0.930 . S
H644 C675 0.929 . S
H645 C633 0.930 . S
H646 C634 0.929 . S
H647 C676 0.930 . S
H648 C657 0.930 . S
N649 Gd618 2.661 . S
N649 C653 1.350 . S
N649 C654 1.307 . S
C650 H642 0.930 . S
C650 C651 1.355 . S
C650 C652 1.412 . S
C651 H643 0.930 . S
C651 C650 1.355 . S
C651 C654 1.402 . S
C652 C650 1.412 . S
C652 C653 1.417 . S
C652 C676 1.431 . S
C653 N649 1.350 . S
C653 C652 1.417 . S
C653 C656 1.426 . S
C654 H637 0.930 . S
C654 N649 1.307 . S
C654 C651 1.402 . S
N655 Gd618 2.601 . S
N655 C656 1.359 . S
N655 C659 1.334 . S
C656 C653 1.426 . S
C656 N655 1.359 . S
C656 C660 1.413 . S
C657 H648 0.930 . S
C657 C658 1.359 . S
C657 C659 1.394 . S
C658 C657 1.359 . S
C658 C660 1.391 . S
C658 H661 0.929 . S
C659 H641 0.930 . S
C659 N655 1.334 . S
C659 C657 1.394 . S
C660 C656 1.413 . S
C660 C658 1.391 . S
C660 C675 1.437 . S
H661 C658 0.929 . S
O662 Gd618 2.545 . S
O662 C677 1.258 . S
O663 Gd618 2.606 . S
O663 Gd619 2.362 . S
O663 C674 1.284 . S
O664 Gd619 2.324 . S
O664 C684 1.254 . S
O665 Gd618 2.429 . S
O665 C684 1.268 . S
O666 Gd618 2.545 . S
O666 C674 1.250 . S
O667 Gd618 2.412 . S
O667 C677 1.252 . S
O668 Gd619 2.545 . S
O668 C686 1.258 . S
O669 Gd618 2.362 . S
O669 Gd619 2.606 . S
O669 C685 1.284 . S
O670 Gd618 2.324 . S
O670 C693 1.254 . S
O671 Gd619 2.429 . S
O671 C693 1.268 . S
O672 Gd619 2.545 . S
O672 C685 1.250 . S
O673 Gd619 2.412 . S
O673 C686 1.252 . S
C674 O663 1.284 . S
C674 O666 1.250 . S
C675 H644 0.929 . S
C675 C660 1.437 . S
C675 C676 1.317 . S
C676 H647 0.930 . S
C676 C652 1.431 . S
C676 C675 1.317 . S
C677 Gd618 2.828 . S
C677 O662 1.258 . S
C677 O667 1.252 . S
C677 C678 1.497 . S
C678 C677 1.497 . S
C678 C679 1.395 . S
C678 C680 1.380 . S
C679 C678 1.395 . S
C679 C682 1.398 . S
C679 H694 0.930 . S
C680 C678 1.380 . S
C680 C681 1.391 . S
C680 H695 0.930 . S
C681 C680 1.391 . S
C681 C683 1.387 . S
C682 C679 1.398 . S
C682 C683 1.380 . S
C682 H696 0.930 . S
C683 C681 1.387 . S
C683 C682 1.380 . S
C683 H697 0.930 . S
C684 O664 1.254 . S
C684 O665 1.268 . S
C685 O669 1.284 . S
C685 O672 1.250 . S
C686 Gd619 2.828 . S
C686 O668 1.258 . S
C686 O673 1.252 . S
C686 C687 1.497 . S
C687 C686 1.497 . S
C687 C688 1.395 . S
C687 C689 1.380 . S
C688 C687 1.395 . S
C688 C691 1.398 . S
C688 H698 0.930 . S
C689 C687 1.380 . S
C689 C690 1.391 . S
C689 H699 0.930 . S
C690 C689 1.391 . S
C690 C692 1.387 . S
C691 C688 1.398 . S
C691 C692 1.380 . S
C691 H700 0.930 . S
C692 C690 1.387 . S
C692 C691 1.380 . S
C692 H701 0.930 . S
C693 O670 1.254 . S
C693 O671 1.268 . S
H694 C679 0.930 . S
H695 C680 0.930 . S
H696 C682 0.930 . S
H697 C683 0.930 . S
H698 C688 0.930 . S
H699 C689 0.930 . S
H700 C691 0.930 . S
H701 C692 0.930 . S
Gd702 N733 2.661 . S
Gd702 N739 2.601 . S
Gd702 O746 2.545 . S
Gd702 O747 2.606 . S
Gd702 O749 2.429 . S
Gd702 O750 2.545 . S
Gd702 O751 2.412 . S
Gd702 O753 2.362 . S
Gd702 O754 2.324 . S
Gd702 C761 2.828 . S
Gd703 N712 2.661 . S
Gd703 N716 2.601 . S
Gd703 O747 2.362 . S
Gd703 O748 2.324 . S
Gd703 O752 2.545 . S
Gd703 O753 2.606 . S
Gd703 O755 2.429 . S
Gd703 O756 2.545 . S
Gd703 O757 2.412 . S
Gd703 C770 2.828 . S
C704 C707 1.417 . S
C704 C709 1.431 . S
C704 C710 1.412 . S
C705 C708 1.437 . S
C705 C709 1.317 . S
C705 H724 0.929 . S
C706 C707 1.426 . S
C706 C708 1.413 . S
C706 N716 1.359 . S
C707 C704 1.417 . S
C707 C706 1.426 . S
C707 N712 1.350 . S
C708 C705 1.437 . S
C708 C706 1.413 . S
C708 C718 1.391 . S
C709 C704 1.431 . S
C709 C705 1.317 . S
C709 H720 0.930 . S
C710 C704 1.412 . S
C710 C711 1.355 . S
C710 H722 0.930 . S
C711 C710 1.355 . S
C711 C713 1.402 . S
C711 H723 0.930 . S
N712 Gd703 2.661 . S
N712 C707 1.350 . S
N712 C713 1.307 . S
C713 C711 1.402 . S
C713 N712 1.307 . S
C713 H714 0.930 . S
H714 C713 0.930 . S
C715 N716 1.334 . S
C715 C717 1.394 . S
C715 H719 0.930 . S
N716 Gd703 2.601 . S
N716 C706 1.359 . S
N716 C715 1.334 . S
C717 C715 1.394 . S
C717 C718 1.359 . S
C717 H729 0.930 . S
C718 C708 1.391 . S
C718 C717 1.359 . S
C718 H730 0.929 . S
H719 C715 0.930 . S
H720 C709 0.930 . S
H721 C738 0.930 . S
H722 C710 0.930 . S
H723 C711 0.930 . S
H724 C705 0.929 . S
H725 C743 0.930 . S
H726 C734 0.930 . S
H727 C735 0.930 . S
H728 C759 0.929 . S
H729 C717 0.930 . S
H730 C718 0.929 . S
H731 C760 0.930 . S
H732 C741 0.930 . S
N733 Gd702 2.661 . S
N733 C737 1.350 . S
N733 C738 1.307 . S
C734 H726 0.930 . S
C734 C735 1.355 . S
C734 C736 1.412 . S
C735 H727 0.930 . S
C735 C734 1.355 . S
C735 C738 1.402 . S
C736 C734 1.412 . S
C736 C737 1.417 . S
C736 C760 1.431 . S
C737 N733 1.350 . S
C737 C736 1.417 . S
C737 C740 1.426 . S
C738 H721 0.930 . S
C738 N733 1.307 . S
C738 C735 1.402 . S
N739 Gd702 2.601 . S
N739 C740 1.359 . S
N739 C743 1.334 . S
C740 C737 1.426 . S
C740 N739 1.359 . S
C740 C744 1.413 . S
C741 H732 0.930 . S
C741 C742 1.359 . S
C741 C743 1.394 . S
C742 C741 1.359 . S
C742 C744 1.391 . S
C742 H745 0.929 . S
C743 H725 0.930 . S
C743 N739 1.334 . S
C743 C741 1.394 . S
C744 C740 1.413 . S
C744 C742 1.391 . S
C744 C759 1.437 . S
H745 C742 0.929 . S
O746 Gd702 2.545 . S
O746 C761 1.258 . S
O747 Gd702 2.606 . S
O747 Gd703 2.362 . S
O747 C758 1.284 . S
O748 Gd703 2.324 . S
O748 C768 1.254 . S
O749 Gd702 2.429 . S
O749 C768 1.268 . S
O750 Gd702 2.545 . S
O750 C758 1.250 . S
O751 Gd702 2.412 . S
O751 C761 1.252 . S
O752 Gd703 2.545 . S
O752 C770 1.258 . S
O753 Gd702 2.362 . S
O753 Gd703 2.606 . S
O753 C769 1.284 . S
O754 Gd702 2.324 . S
O754 C777 1.254 . S
O755 Gd703 2.429 . S
O755 C777 1.268 . S
O756 Gd703 2.545 . S
O756 C769 1.250 . S
O757 Gd703 2.412 . S
O757 C770 1.252 . S
C758 O747 1.284 . S
C758 O750 1.250 . S
C759 H728 0.929 . S
C759 C744 1.437 . S
C759 C760 1.317 . S
C760 H731 0.930 . S
C760 C736 1.431 . S
C760 C759 1.317 . S
C761 Gd702 2.828 . S
C761 O746 1.258 . S
C761 O751 1.252 . S
C761 C762 1.497 . S
C762 C761 1.497 . S
C762 C763 1.395 . S
C762 C764 1.380 . S
C763 C762 1.395 . S
C763 C766 1.398 . S
C763 H778 0.930 . S
C764 C762 1.380 . S
C764 C765 1.391 . S
C764 H779 0.930 . S
C765 C764 1.391 . S
C765 C767 1.387 . S
C766 C763 1.398 . S
C766 C767 1.380 . S
C766 H780 0.930 . S
C767 C765 1.387 . S
C767 C766 1.380 . S
C767 H781 0.930 . S
C768 O748 1.254 . S
C768 O749 1.268 . S
C769 O753 1.284 . S
C769 O756 1.250 . S
C770 Gd703 2.828 . S
C770 O752 1.258 . S
C770 O757 1.252 . S
C770 C771 1.497 . S
C771 C770 1.497 . S
C771 C772 1.395 . S
C771 C773 1.380 . S
C772 C771 1.395 . S
C772 C775 1.398 . S
C772 H782 0.930 . S
C773 C771 1.380 . S
C773 C774 1.391 . S
C773 H783 0.930 . S
C774 C773 1.391 . S
C774 C776 1.387 . S
C775 C772 1.398 . S
C775 C776 1.380 . S
C775 H784 0.930 . S
C776 C774 1.387 . S
C776 C775 1.380 . S
C776 H785 0.930 . S
C777 O754 1.254 . S
C777 O755 1.268 . S
H778 C763 0.930 . S
H779 C764 0.930 . S
H780 C766 0.930 . S
H781 C767 0.930 . S
H782 C772 0.930 . S
H783 C773 0.930 . S
H784 C775 0.930 . S
H785 C776 0.930 . S
Gd786 N817 2.661 . S
Gd786 N823 2.601 . S
Gd786 O830 2.545 . S
Gd786 O831 2.606 . S
Gd786 O833 2.429 . S
Gd786 O834 2.545 . S
Gd786 O835 2.412 . S
Gd786 O837 2.362 . S
Gd786 O838 2.324 . S
Gd786 C845 2.828 . S
Gd787 N796 2.661 . S
Gd787 N800 2.601 . S
Gd787 O831 2.362 . S
Gd787 O832 2.324 . S
Gd787 O836 2.545 . S
Gd787 O837 2.606 . S
Gd787 O839 2.429 . S
Gd787 O840 2.545 . S
Gd787 O841 2.412 . S
Gd787 C854 2.828 . S
C788 C791 1.417 . S
C788 C793 1.431 . S
C788 C794 1.412 . S
C789 C792 1.437 . S
C789 C793 1.317 . S
C789 H808 0.929 . S
C790 C791 1.426 . S
C790 C792 1.413 . S
C790 N800 1.359 . S
C791 C788 1.417 . S
C791 C790 1.426 . S
C791 N796 1.350 . S
C792 C789 1.437 . S
C792 C790 1.413 . S
C792 C802 1.391 . S
C793 C788 1.431 . S
C793 C789 1.317 . S
C793 H804 0.930 . S
C794 C788 1.412 . S
C794 C795 1.355 . S
C794 H806 0.930 . S
C795 C794 1.355 . S
C795 C797 1.402 . S
C795 H807 0.930 . S
N796 Gd787 2.661 . S
N796 C791 1.350 . S
N796 C797 1.307 . S
C797 C795 1.402 . S
C797 N796 1.307 . S
C797 H798 0.930 . S
H798 C797 0.930 . S
C799 N800 1.334 . S
C799 C801 1.394 . S
C799 H803 0.930 . S
N800 Gd787 2.601 . S
N800 C790 1.359 . S
N800 C799 1.334 . S
C801 C799 1.394 . S
C801 C802 1.359 . S
C801 H813 0.930 . S
C802 C792 1.391 . S
C802 C801 1.359 . S
C802 H814 0.929 . S
H803 C799 0.930 . S
H804 C793 0.930 . S
H805 C822 0.930 . S
H806 C794 0.930 . S
H807 C795 0.930 . S
H808 C789 0.929 . S
H809 C827 0.930 . S
H810 C818 0.930 . S
H811 C819 0.930 . S
H812 C843 0.929 . S
H813 C801 0.930 . S
H814 C802 0.929 . S
H815 C844 0.930 . S
H816 C825 0.930 . S
N817 Gd786 2.661 . S
N817 C821 1.350 . S
N817 C822 1.307 . S
C818 H810 0.930 . S
C818 C819 1.355 . S
C818 C820 1.412 . S
C819 H811 0.930 . S
C819 C818 1.355 . S
C819 C822 1.402 . S
C820 C818 1.412 . S
C820 C821 1.417 . S
C820 C844 1.431 . S
C821 N817 1.350 . S
C821 C820 1.417 . S
C821 C824 1.426 . S
C822 H805 0.930 . S
C822 N817 1.307 . S
C822 C819 1.402 . S
N823 Gd786 2.601 . S
N823 C824 1.359 . S
N823 C827 1.334 . S
C824 C821 1.426 . S
C824 N823 1.359 . S
C824 C828 1.413 . S
C825 H816 0.930 . S
C825 C826 1.359 . S
C825 C827 1.394 . S
C826 C825 1.359 . S
C826 C828 1.391 . S
C826 H829 0.929 . S
C827 H809 0.930 . S
C827 N823 1.334 . S
C827 C825 1.394 . S
C828 C824 1.413 . S
C828 C826 1.391 . S
C828 C843 1.437 . S
H829 C826 0.929 . S
O830 Gd786 2.545 . S
O830 C845 1.258 . S
O831 Gd786 2.606 . S
O831 Gd787 2.362 . S
O831 C842 1.284 . S
O832 Gd787 2.324 . S
O832 C852 1.254 . S
O833 Gd786 2.429 . S
O833 C852 1.268 . S
O834 Gd786 2.545 . S
O834 C842 1.250 . S
O835 Gd786 2.412 . S
O835 C845 1.252 . S
O836 Gd787 2.545 . S
O836 C854 1.258 . S
O837 Gd786 2.362 . S
O837 Gd787 2.606 . S
O837 C853 1.284 . S
O838 Gd786 2.324 . S
O838 C861 1.254 . S
O839 Gd787 2.429 . S
O839 C861 1.268 . S
O840 Gd787 2.545 . S
O840 C853 1.250 . S
O841 Gd787 2.412 . S
O841 C854 1.252 . S
C842 O831 1.284 . S
C842 O834 1.250 . S
C843 H812 0.929 . S
C843 C828 1.437 . S
C843 C844 1.317 . S
C844 H815 0.930 . S
C844 C820 1.431 . S
C844 C843 1.317 . S
C845 Gd786 2.828 . S
C845 O830 1.258 . S
C845 O835 1.252 . S
C845 C846 1.497 . S
C846 C845 1.497 . S
C846 C847 1.395 . S
C846 C848 1.380 . S
C847 C846 1.395 . S
C847 C850 1.398 . S
C847 H862 0.930 . S
C848 C846 1.380 . S
C848 C849 1.391 . S
C848 H863 0.930 . S
C849 C848 1.391 . S
C849 C851 1.387 . S
C850 C847 1.398 . S
C850 C851 1.380 . S
C850 H864 0.930 . S
C851 C849 1.387 . S
C851 C850 1.380 . S
C851 H865 0.930 . S
C852 O832 1.254 . S
C852 O833 1.268 . S
C853 O837 1.284 . S
C853 O840 1.250 . S
C854 Gd787 2.828 . S
C854 O836 1.258 . S
C854 O841 1.252 . S
C854 C855 1.497 . S
C855 C854 1.497 . S
C855 C856 1.395 . S
C855 C857 1.380 . S
C856 C855 1.395 . S
C856 C859 1.398 . S
C856 H866 0.930 . S
C857 C855 1.380 . S
C857 C858 1.391 . S
C857 H867 0.930 . S
C858 C857 1.391 . S
C858 C860 1.387 . S
C859 C856 1.398 . S
C859 C860 1.380 . S
C859 H868 0.930 . S
C860 C858 1.387 . S
C860 C859 1.380 . S
C860 H869 0.930 . S
C861 O838 1.254 . S
C861 O839 1.268 . S
H862 C847 0.930 . S
H863 C848 0.930 . S
H864 C850 0.930 . S
H865 C851 0.930 . S
H866 C856 0.930 . S
H867 C857 0.930 . S
H868 C859 0.930 . S
H869 C860 0.930 . S
Gd870 N901 2.661 . S
Gd870 N907 2.601 . S
Gd870 O914 2.545 . S
Gd870 O915 2.606 . S
Gd870 O917 2.429 . S
Gd870 O918 2.545 . S
Gd870 O919 2.412 . S
Gd870 O921 2.362 . S
Gd870 O922 2.324 . S
Gd870 C929 2.828 . S
Gd871 N880 2.661 . S
Gd871 N884 2.601 . S
Gd871 O915 2.362 . S
Gd871 O916 2.324 . S
Gd871 O920 2.545 . S
Gd871 O921 2.606 . S
Gd871 O923 2.429 . S
Gd871 O924 2.545 . S
Gd871 O925 2.412 . S
Gd871 C938 2.828 . S
C872 C875 1.417 1_455 S
C872 C877 1.431 . S
C872 C878 1.412 . S
C873 C876 1.437 1_455 S
C873 C877 1.317 . S
C873 H892 0.929 . S
C874 C875 1.426 . S
C874 C876 1.413 . S
C874 N884 1.359 . S
C875 C872 1.417 1_655 S
C875 C874 1.426 . S
C875 N880 1.350 . S
C876 C873 1.437 1_655 S
C876 C874 1.413 . S
C876 C886 1.391 . S
C877 C872 1.431 . S
C877 C873 1.317 . S
C877 H888 0.930 . S
C878 C872 1.412 . S
C878 C879 1.355 . S
C878 H890 0.930 . S
C879 C878 1.355 . S
C879 C881 1.402 1_455 S
C879 H891 0.930 . S
N880 Gd871 2.661 . S
N880 C875 1.350 . S
N880 C881 1.307 . S
C881 C879 1.402 1_655 S
C881 N880 1.307 . S
C881 H882 0.930 . S
H882 C881 0.930 . S
C883 N884 1.334 . S
C883 C885 1.394 . S
C883 H887 0.930 . S
N884 Gd871 2.601 . S
N884 C874 1.359 . S
N884 C883 1.334 . S
C885 C883 1.394 . S
C885 C886 1.359 . S
C885 H897 0.930 . S
C886 C876 1.391 . S
C886 C885 1.359 . S
C886 H898 0.929 . S
H887 C883 0.930 . S
H888 C877 0.930 . S
H889 C906 0.930 . S
H890 C878 0.930 . S
H891 C879 0.930 . S
H892 C873 0.929 . S
H893 C911 0.930 . S
H894 C902 0.930 . S
H895 C903 0.930 . S
H896 C927 0.929 . S
H897 C885 0.930 . S
H898 C886 0.929 . S
H899 C928 0.930 . S
H900 C909 0.930 . S
N901 Gd870 2.661 . S
N901 C905 1.350 . S
N901 C906 1.307 . S
C902 H894 0.930 . S
C902 C903 1.355 . S
C902 C904 1.412 . S
C903 H895 0.930 . S
C903 C902 1.355 . S
C903 C906 1.402 . S
C904 C902 1.412 . S
C904 C905 1.417 . S
C904 C928 1.431 . S
C905 N901 1.350 . S
C905 C904 1.417 . S
C905 C908 1.426 . S
C906 H889 0.930 . S
C906 N901 1.307 . S
C906 C903 1.402 . S
N907 Gd870 2.601 . S
N907 C908 1.359 . S
N907 C911 1.334 . S
C908 C905 1.426 . S
C908 N907 1.359 . S
C908 C912 1.413 . S
C909 H900 0.930 . S
C909 C910 1.359 . S
C909 C911 1.394 . S
C910 C909 1.359 . S
C910 C912 1.391 . S
C910 H913 0.929 . S
C911 H893 0.930 . S
C911 N907 1.334 . S
C911 C909 1.394 . S
C912 C908 1.413 . S
C912 C910 1.391 . S
C912 C927 1.437 . S
H913 C910 0.929 . S
O914 Gd870 2.545 . S
O914 C929 1.258 . S
O915 Gd870 2.606 . S
O915 Gd871 2.362 . S
O915 C926 1.284 . S
O916 Gd871 2.324 . S
O916 C936 1.254 . S
O917 Gd870 2.429 . S
O917 C936 1.268 . S
O918 Gd870 2.545 . S
O918 C926 1.250 . S
O919 Gd870 2.412 . S
O919 C929 1.252 . S
O920 Gd871 2.545 . S
O920 C938 1.258 . S
O921 Gd870 2.362 . S
O921 Gd871 2.606 . S
O921 C937 1.284 . S
O922 Gd870 2.324 . S
O922 C945 1.254 . S
O923 Gd871 2.429 . S
O923 C945 1.268 . S
O924 Gd871 2.545 . S
O924 C937 1.250 . S
O925 Gd871 2.412 . S
O925 C938 1.252 . S
C926 O915 1.284 . S
C926 O918 1.250 . S
C927 H896 0.929 . S
C927 C912 1.437 . S
C927 C928 1.317 . S
C928 H899 0.930 . S
C928 C904 1.431 . S
C928 C927 1.317 . S
C929 Gd870 2.828 . S
C929 O914 1.258 . S
C929 O919 1.252 . S
C929 C930 1.497 . S
C930 C929 1.497 . S
C930 C931 1.395 . S
C930 C932 1.380 . S
C931 C930 1.395 . S
C931 C934 1.398 . S
C931 H946 0.930 . S
C932 C930 1.380 . S
C932 C933 1.391 . S
C932 H947 0.930 . S
C933 C932 1.391 . S
C933 C935 1.387 . S
C934 C931 1.398 . S
C934 C935 1.380 . S
C934 H948 0.930 . S
C935 C933 1.387 . S
C935 C934 1.380 . S
C935 H949 0.930 . S
C936 O916 1.254 . S
C936 O917 1.268 . S
C937 O921 1.284 . S
C937 O924 1.250 . S
C938 Gd871 2.828 . S
C938 O920 1.258 . S
C938 O925 1.252 . S
C938 C939 1.497 . S
C939 C938 1.497 . S
C939 C940 1.395 . S
C939 C941 1.380 . S
C940 C939 1.395 . S
C940 C943 1.398 . S
C940 H950 0.930 . S
C941 C939 1.380 . S
C941 C942 1.391 . S
C941 H951 0.930 . S
C942 C941 1.391 . S
C942 C944 1.387 . S
C943 C940 1.398 . S
C943 C944 1.380 . S
C943 H952 0.930 . S
C944 C942 1.387 . S
C944 C943 1.380 . S
C944 H953 0.930 . S
C945 O922 1.254 . S
C945 O923 1.268 . S
H946 C931 0.930 . S
H947 C932 0.930 . S
H948 C934 0.930 . S
H949 C935 0.930 . S
H950 C940 0.930 . S
H951 C941 0.930 . S
H952 C943 0.930 . S
H953 C944 0.930 . S
C954 C955 1.387 . S
C954 H958 0.950 . S
C954 C963 1.390 . S
C955 C954 1.387 . S
C955 C957 1.387 . S
H956 C963 0.950 1_556 S
C957 C955 1.387 . S
C957 C959 1.390 . S
C957 H961 0.950 . S
H958 C954 0.950 . S
C959 C957 1.390 . S
C959 C960 1.387 . S
C959 H962 0.950 . S
C960 C959 1.387 . S
C960 C963 1.387 . S
H961 C957 0.950 . S
H962 C959 0.950 . S
C963 C954 1.390 . S
C963 H956 0.950 1_554 S
C963 C960 1.387 . S
C964 C965 1.387 . S
C964 H968 0.950 . S
C964 C973 1.390 . S
C965 C964 1.387 . S
C965 C967 1.387 . S
H966 C973 0.950 . S
C967 C965 1.387 . S
C967 C969 1.390 . S
C967 H971 0.950 . S
H968 C964 0.950 . S
C969 C967 1.390 . S
C969 C970 1.387 . S
C969 H972 0.950 . S
C970 C969 1.387 . S
C970 C973 1.387 . S
H971 C967 0.950 . S
H972 C969 0.950 . S
C973 C964 1.390 . S
C973 H966 0.950 . S
C973 C970 1.387 . S
C974 C975 1.387 . S
C974 H978 0.950 . S
C974 C983 1.390 . S
C975 C974 1.387 . S
C975 C977 1.387 . S
H976 C983 0.950 1_556 S
C977 C975 1.387 . S
C977 C979 1.390 . S
C977 H981 0.950 . S
H978 C974 0.950 . S
C979 C977 1.390 . S
C979 C980 1.387 . S
C979 H982 0.950 . S
C980 C979 1.387 . S
C980 C983 1.387 . S
H981 C977 0.950 . S
H982 C979 0.950 . S
C983 C974 1.390 . S
C983 H976 0.950 1_554 S
C983 C980 1.387 . S
C984 C985 1.387 . S
C984 H988 0.950 . S
C984 C993 1.390 . S
C985 C984 1.387 . S
C985 C987 1.387 . S
H986 C993 0.950 . S
C987 C985 1.387 . S
C987 C989 1.390 1_556 S
C987 H991 0.950 1_556 S
H988 C984 0.950 . S
C989 C987 1.390 1_554 S
C989 C990 1.387 1_554 S
C989 H992 0.950 . S
C990 C989 1.387 1_556 S
C990 C993 1.387 . S
H991 C987 0.950 1_554 S
H992 C989 0.950 . S
C993 C984 1.390 . S
C993 H986 0.950 . S
C993 C990 1.387 . S
C994 C995 1.387 . S
C994 H998 0.950 . S
C994 C1003 1.390 . S
C995 C994 1.387 . S
C995 C997 1.387 . S
H996 C1003 0.950 . S
C997 C995 1.387 . S
C997 C999 1.390 . S
C997 H1001 0.950 . S
H998 C994 0.950 . S
C999 C997 1.390 . S
C999 C1000 1.387 . S
C999 H1002 0.950 . S
C1000 C999 1.387 . S
C1000 C1003 1.387 . S
H1001 C997 0.950 . S
H1002 C999 0.950 . S
C1003 C994 1.390 . S
C1003 H996 0.950 . S
C1003 C1000 1.387 . S
C1004 C1005 1.387 . S
C1004 H1008 0.950 . S
C1004 C1013 1.390 . S
C1005 C1004 1.387 . S
C1005 C1007 1.387 . S
H1006 C1013 0.950 . S
C1007 C1005 1.387 . S
C1007 C1009 1.390 1_556 S
C1007 H1011 0.950 1_556 S
H1008 C1004 0.950 . S
C1009 C1007 1.390 1_554 S
C1009 C1010 1.387 1_554 S
C1009 H1012 0.950 . S
C1010 C1009 1.387 1_556 S
C1010 C1013 1.387 . S
H1011 C1007 0.950 1_554 S
H1012 C1009 0.950 . S
C1013 C1004 1.390 . S
C1013 H1006 0.950 . S
C1013 C1010 1.387 . S
C1014 C1015 1.387 1_554 S
C1014 H1018 0.950 . S
C1014 C1023 1.390 . S
C1015 C1014 1.387 1_556 S
C1015 C1017 1.387 . S
H1016 C1023 0.950 . S
C1017 C1015 1.387 . S
C1017 C1019 1.390 . S
C1017 H1021 0.950 . S
H1018 C1014 0.950 . S
C1019 C1017 1.390 . S
C1019 C1020 1.387 . S
C1019 H1022 0.950 . S
C1020 C1019 1.387 . S
C1020 C1023 1.387 1_556 S
H1021 C1017 0.950 . S
H1022 C1019 0.950 . S
C1023 C1014 1.390 . S
C1023 H1016 0.950 . S
C1023 C1020 1.387 1_554 S
C1024 C1025 1.387 . S
C1024 H1028 0.950 1_556 S
C1024 C1033 1.390 . S
C1025 C1024 1.387 . S
C1025 C1027 1.387 . S
H1026 C1033 0.950 1_554 S
C1027 C1025 1.387 . S
C1027 C1029 1.390 . S
C1027 H1031 0.950 . S
H1028 C1024 0.950 1_554 S
C1029 C1027 1.390 . S
C1029 C1030 1.387 . S
C1029 H1032 0.950 . S
C1030 C1029 1.387 . S
C1030 C1033 1.387 . S
H1031 C1027 0.950 . S
H1032 C1029 0.950 . S
C1033 C1024 1.390 . S
C1033 H1026 0.950 1_556 S
C1033 C1030 1.387 . S
C1034 C1035 1.387 1_554 S
C1034 H1038 0.950 . S
C1034 C1043 1.390 . S
C1035 C1034 1.387 1_556 S
C1035 C1037 1.387 . S
H1036 C1043 0.950 . S
C1037 C1035 1.387 . S
C1037 C1039 1.390 . S
C1037 H1041 0.950 . S
H1038 C1034 0.950 . S
C1039 C1037 1.390 . S
C1039 C1040 1.387 . S
C1039 H1042 0.950 . S
C1040 C1039 1.387 . S
C1040 C1043 1.387 1_556 S
H1041 C1037 0.950 . S
H1042 C1039 0.950 . S
C1043 C1034 1.390 . S
C1043 H1036 0.950 . S
C1043 C1040 1.387 1_554 S
C1044 C1045 1.387 . S
C1044 H1048 0.950 . S
C1044 C1053 1.390 . S
C1045 C1044 1.387 . S
C1045 C1047 1.387 . S
H1046 C1053 0.950 1_556 S
C1047 C1045 1.387 . S
C1047 C1049 1.390 . S
C1047 H1051 0.950 . S
H1048 C1044 0.950 . S
C1049 C1047 1.390 . S
C1049 C1050 1.387 . S
C1049 H1052 0.950 . S
C1050 C1049 1.387 . S
C1050 C1053 1.387 . S
H1051 C1047 0.950 . S
H1052 C1049 0.950 . S
C1053 C1044 1.390 . S
C1053 H1046 0.950 1_554 S
C1053 C1050 1.387 . S
C1054 C1055 1.387 . S
C1054 H1058 0.950 . S
C1054 C1063 1.390 . S
C1055 C1054 1.387 . S
C1055 C1057 1.387 . S
H1056 C1063 0.950 . S
C1057 C1055 1.387 . S
C1057 C1059 1.390 . S
C1057 H1061 0.950 . S
H1058 C1054 0.950 . S
C1059 C1057 1.390 . S
C1059 C1060 1.387 . S
C1059 H1062 0.950 1_554 S
C1060 C1059 1.387 . S
C1060 C1063 1.387 . S
H1061 C1057 0.950 . S
H1062 C1059 0.950 1_556 S
C1063 C1054 1.390 . S
C1063 H1056 0.950 . S
C1063 C1060 1.387 . S
C1064 C1065 1.387 . S
C1064 H1068 0.950 1_554 S
C1064 C1073 1.390 . S
C1065 C1064 1.387 . S
C1065 C1067 1.387 . S
H1066 C1073 0.950 1_556 S
C1067 C1065 1.387 . S
C1067 C1069 1.390 . S
C1067 H1071 0.950 . S
H1068 C1064 0.950 1_556 S
C1069 C1067 1.390 . S
C1069 C1070 1.387 . S
C1069 H1072 0.950 . S
C1070 C1069 1.387 . S
C1070 C1073 1.387 . S
H1071 C1067 0.950 . S
H1072 C1069 0.950 . S
C1073 C1064 1.390 . S
C1073 H1066 0.950 1_554 S
C1073 C1070 1.387 . S
C1074 C1075 1.387 . S
C1074 H1078 0.950 . S
C1074 C1083 1.390 1_655 S
C1075 C1074 1.387 . S
C1075 C1077 1.387 . S
H1076 C1083 0.950 . S
C1077 C1075 1.387 . S
C1077 C1079 1.390 1_655 S
C1077 H1081 0.950 . S
H1078 C1074 0.950 . S
C1079 C1077 1.390 1_455 S
C1079 C1080 1.387 . S
C1079 H1082 0.950 . S
C1080 C1079 1.387 . S
C1080 C1083 1.387 . S
H1081 C1077 0.950 . S
H1082 C1079 0.950 . S
C1083 C1074 1.390 1_455 S
C1083 H1076 0.950 . S
C1083 C1080 1.387 . S
C1084 C1085 1.387 . S
C1084 H1088 0.950 . S
C1084 C1093 1.390 . S
C1085 C1084 1.387 . S
C1085 C1087 1.387 . S
H1086 C1093 0.950 . S
C1087 C1085 1.387 . S
C1087 C1089 1.390 . S
C1087 H1091 0.950 . S
H1088 C1084 0.950 . S
C1089 C1087 1.390 . S
C1089 C1090 1.387 . S
C1089 H1092 0.950 . S
C1090 C1089 1.387 . S
C1090 C1093 1.387 . S
H1091 C1087 0.950 . S
H1092 C1089 0.950 . S
C1093 C1084 1.390 . S
C1093 H1086 0.950 . S
C1093 C1090 1.387 . S
C1094 C1095 1.387 . S
C1094 H1098 0.950 . S
C1094 C1103 1.390 . S
C1095 C1094 1.387 . S
C1095 C1097 1.387 . S
H1096 C1103 0.950 . S
C1097 C1095 1.387 . S
C1097 C1099 1.390 1_545 S
C1097 H1101 0.950 . S
H1098 C1094 0.950 . S
C1099 C1097 1.390 1_565 S
C1099 C1100 1.387 . S
C1099 H1102 0.950 . S
C1100 C1099 1.387 . S
C1100 C1103 1.387 1_565 S
H1101 C1097 0.950 . S
H1102 C1099 0.950 . S
C1103 C1094 1.390 . S
C1103 H1096 0.950 . S
C1103 C1100 1.387 1_545 S
C1104 C1105 1.387 . S
C1104 H1108 0.950 . S
C1104 C1113 1.390 . S
C1105 C1104 1.387 . S
C1105 C1107 1.387 . S
H1106 C1113 0.950 . S
C1107 C1105 1.387 . S
C1107 C1109 1.390 . S
C1107 H1111 0.950 . S
H1108 C1104 0.950 . S
C1109 C1107 1.390 . S
C1109 C1110 1.387 . S
C1109 H1112 0.950 . S
C1110 C1109 1.387 . S
C1110 C1113 1.387 . S
H1111 C1107 0.950 . S
H1112 C1109 0.950 . S
C1113 C1104 1.390 . S
C1113 H1106 0.950 . S
C1113 C1110 1.387 . S
C1114 C1115 1.387 . S
C1114 H1118 0.950 . S
C1114 C1123 1.390 . S
C1115 C1114 1.387 . S
C1115 C1117 1.387 . S
H1116 C1123 0.950 . S
C1117 C1115 1.387 . S
C1117 C1119 1.390 . S
C1117 H1121 0.950 . S
H1118 C1114 0.950 . S
C1119 C1117 1.390 . S
C1119 C1120 1.387 . S
C1119 H1122 0.950 . S
C1120 C1119 1.387 . S
C1120 C1123 1.387 . S
H1121 C1117 0.950 . S
H1122 C1119 0.950 . S
C1123 C1114 1.390 . S
C1123 H1116 0.950 . S
C1123 C1120 1.387 . S
C1124 C1125 1.387 . S
C1124 H1128 0.950 . S
C1124 C1133 1.390 . S
C1125 C1124 1.387 . S
C1125 C1127 1.387 . S
H1126 C1133 0.950 . S
C1127 C1125 1.387 . S
C1127 C1129 1.390 . S
C1127 H1131 0.950 . S
H1128 C1124 0.950 . S
C1129 C1127 1.390 . S
C1129 C1130 1.387 . S
C1129 H1132 0.950 . S
C1130 C1129 1.387 . S
C1130 C1133 1.387 . S
H1131 C1127 0.950 . S
H1132 C1129 0.950 . S
C1133 C1124 1.390 . S
C1133 H1126 0.950 . S
C1133 C1130 1.387 . S
C1134 C1135 1.387 . S
C1134 H1138 0.950 . S
C1134 C1143 1.390 . S
C1135 C1134 1.387 . S
C1135 C1137 1.387 . S
H1136 C1143 0.950 . S
C1137 C1135 1.387 . S
C1137 C1139 1.390 . S
C1137 H1141 0.950 . S
H1138 C1134 0.950 . S
C1139 C1137 1.390 . S
C1139 C1140 1.387 . S
C1139 H1142 0.950 . S
C1140 C1139 1.387 . S
C1140 C1143 1.387 . S
H1141 C1137 0.950 . S
H1142 C1139 0.950 . S
C1143 C1134 1.390 . S
C1143 H1136 0.950 . S
C1143 C1140 1.387 . S
C1144 C1145 1.387 . S
C1144 H1148 0.950 . S
C1144 C1153 1.390 . S
C1145 C1144 1.387 . S
C1145 C1147 1.387 . S
H1146 C1153 0.950 . S
C1147 C1145 1.387 . S
C1147 C1149 1.390 . S
C1147 H1151 0.950 . S
H1148 C1144 0.950 . S
C1149 C1147 1.390 . S
C1149 C1150 1.387 . S
C1149 H1152 0.950 . S
C1150 C1149 1.387 . S
C1150 C1153 1.387 . S
H1151 C1147 0.950 . S
H1152 C1149 0.950 . S
C1153 C1144 1.390 . S
C1153 H1146 0.950 . S
C1153 C1150 1.387 . S
C1154 C1155 1.387 . S
C1154 H1158 0.950 . S
C1154 C1163 1.390 . S
C1155 C1154 1.387 . S
C1155 C1157 1.387 . S
H1156 C1163 0.950 . S
C1157 C1155 1.387 . S
C1157 C1159 1.390 . S
C1157 H1161 0.950 . S
H1158 C1154 0.950 . S
C1159 C1157 1.390 . S
C1159 C1160 1.387 . S
C1159 H1162 0.950 . S
C1160 C1159 1.387 . S
C1160 C1163 1.387 . S
H1161 C1157 0.950 . S
H1162 C1159 0.950 . S
C1163 C1154 1.390 . S
C1163 H1156 0.950 . S
C1163 C1160 1.387 . S
C1164 C1165 1.387 . S
C1164 H1168 0.950 . S
C1164 C1173 1.390 . S
C1165 C1164 1.387 . S
C1165 C1167 1.387 . S
H1166 C1173 0.950 . S
C1167 C1165 1.387 . S
C1167 C1169 1.390 . S
C1167 H1171 0.950 . S
H1168 C1164 0.950 . S
C1169 C1167 1.390 . S
C1169 C1170 1.387 . S
C1169 H1172 0.950 . S
C1170 C1169 1.387 . S
C1170 C1173 1.387 . S
H1171 C1167 0.950 . S
H1172 C1169 0.950 . S
C1173 C1164 1.390 . S
C1173 H1166 0.950 . S
C1173 C1170 1.387 . S
C1174 C1175 1.387 . S
C1174 H1178 0.950 . S
C1174 C1183 1.390 . S
C1175 C1174 1.387 . S
C1175 C1177 1.387 . S
H1176 C1183 0.950 . S
C1177 C1175 1.387 . S
C1177 C1179 1.390 . S
C1177 H1181 0.950 . S
H1178 C1174 0.950 . S
C1179 C1177 1.390 . S
C1179 C1180 1.387 . S
C1179 H1182 0.950 . S
C1180 C1179 1.387 . S
C1180 C1183 1.387 . S
H1181 C1177 0.950 . S
H1182 C1179 0.950 . S
C1183 C1174 1.390 . S
C1183 H1176 0.950 . S
C1183 C1180 1.387 . S
C1184 C1185 1.387 . S
C1184 H1188 0.950 . S
C1184 C1193 1.390 . S
C1185 C1184 1.387 . S
C1185 C1187 1.387 . S
H1186 C1193 0.950 . S
C1187 C1185 1.387 . S
C1187 C1189 1.390 . S
C1187 H1191 0.950 . S
H1188 C1184 0.950 . S
C1189 C1187 1.390 . S
C1189 C1190 1.387 . S
C1189 H1192 0.950 . S
C1190 C1189 1.387 . S
C1190 C1193 1.387 . S
H1191 C1187 0.950 . S
H1192 C1189 0.950 . S
C1193 C1184 1.390 . S
C1193 H1186 0.950 . S
C1193 C1190 1.387 . S
C1194 C1195 1.387 . S
C1194 H1198 0.950 . S
C1194 C1203 1.390 . S
C1195 C1194 1.387 . S
C1195 C1197 1.387 . S
H1196 C1203 0.950 . S
C1197 C1195 1.387 . S
C1197 C1199 1.390 . S
C1197 H1201 0.950 . S
H1198 C1194 0.950 . S
C1199 C1197 1.390 . S
C1199 C1200 1.387 . S
C1199 H1202 0.950 . S
C1200 C1199 1.387 . S
C1200 C1203 1.387 . S
H1201 C1197 0.950 . S
H1202 C1199 0.950 . S
C1203 C1194 1.390 . S
C1203 H1196 0.950 . S
C1203 C1200 1.387 . S
C1204 C1205 1.387 . S
C1204 H1208 0.950 . S
C1204 C1213 1.390 . S
C1205 C1204 1.387 . S
C1205 C1207 1.387 . S
H1206 C1213 0.950 . S
C1207 C1205 1.387 . S
C1207 C1209 1.390 . S
C1207 H1211 0.950 . S
H1208 C1204 0.950 . S
C1209 C1207 1.390 . S
C1209 C1210 1.387 . S
C1209 H1212 0.950 . S
C1210 C1209 1.387 . S
C1210 C1213 1.387 . S
H1211 C1207 0.950 . S
H1212 C1209 0.950 . S
C1213 C1204 1.390 . S
C1213 H1206 0.950 . S
C1213 C1210 1.387 . S
C1214 C1215 1.387 . S
C1214 H1218 0.950 . S
C1214 C1223 1.390 . S
C1215 C1214 1.387 . S
C1215 C1217 1.387 . S
H1216 C1223 0.950 . S
C1217 C1215 1.387 . S
C1217 C1219 1.390 . S
C1217 H1221 0.950 . S
H1218 C1214 0.950 . S
C1219 C1217 1.390 . S
C1219 C1220 1.387 . S
C1219 H1222 0.950 . S
C1220 C1219 1.387 . S
C1220 C1223 1.387 . S
H1221 C1217 0.950 . S
H1222 C1219 0.950 . S
C1223 C1214 1.390 . S
C1223 H1216 0.950 . S
C1223 C1220 1.387 . S
C1224 C1225 1.387 . S
C1224 H1228 0.950 . S
C1224 C1233 1.390 1_565 S
C1225 C1224 1.387 . S
C1225 C1227 1.387 . S
H1226 C1233 0.954 . S
C1227 C1225 1.387 . S
C1227 C1229 1.390 1_565 S
C1227 H1231 0.950 . S
H1228 C1224 0.950 . S
C1229 C1227 1.390 1_545 S
C1229 C1230 1.387 . S
C1229 H1232 0.950 . S
C1230 C1229 1.387 . S
C1230 C1233 1.387 . S
H1231 C1227 0.950 . S
H1232 C1229 0.950 . S
C1233 C1224 1.390 1_545 S
C1233 H1226 0.954 . S
C1233 C1230 1.387 . S
C1234 C1235 1.387 1_655 S
C1234 H1238 0.950 . S
C1234 C1243 1.390 . S
C1235 C1234 1.387 1_455 S
C1235 C1237 1.387 . S
H1236 C1243 0.950 . S
C1237 C1235 1.387 . S
C1237 C1239 1.390 . S
C1237 H1241 0.950 . S
H1238 C1234 0.950 . S
C1239 C1237 1.390 . S
C1239 C1240 1.387 1_455 S
C1239 H1242 0.950 . S
C1240 C1239 1.387 1_655 S
C1240 C1243 1.387 . S
H1241 C1237 0.950 . S
H1242 C1239 0.950 . S
C1243 C1234 1.390 . S
C1243 H1236 0.950 . S
C1243 C1240 1.387 . S
C1244 C1245 1.387 . S
C1244 H1248 0.950 . S
C1244 C1253 1.390 . S
C1245 C1244 1.387 . S
C1245 C1247 1.387 . S
H1246 C1253 0.950 . S
C1247 C1245 1.387 . S
C1247 C1249 1.390 . S
C1247 H1251 0.950 . S
H1248 C1244 0.950 . S
C1249 C1247 1.390 . S
C1249 C1250 1.387 . S
C1249 H1252 0.950 . S
C1250 C1249 1.387 . S
C1250 C1253 1.387 . S
H1251 C1247 0.950 . S
H1252 C1249 0.950 . S
C1253 C1244 1.390 . S
C1253 H1246 0.950 . S
C1253 C1250 1.387 . S
C1254 C1255 1.387 . S
C1254 H1258 0.950 . S
C1254 C1263 1.390 . S
C1255 C1254 1.387 . S
C1255 C1257 1.387 . S
H1256 C1263 0.950 . S
C1257 C1255 1.387 . S
C1257 C1259 1.390 . S
C1257 H1261 0.950 . S
H1258 C1254 0.950 . S
C1259 C1257 1.390 . S
C1259 C1260 1.387 . S
C1259 H1262 0.950 . S
C1260 C1259 1.387 . S
C1260 C1263 1.387 . S
H1261 C1257 0.950 . S
H1262 C1259 0.950 . S
C1263 C1254 1.390 . S
C1263 H1256 0.950 . S
C1263 C1260 1.387 . S
C1264 C1265 1.387 . S
C1264 H1268 0.950 . S
C1264 C1273 1.390 . S
C1265 C1264 1.387 . S
C1265 C1267 1.387 . S
H1266 C1273 0.950 . S
C1267 C1265 1.387 . S
C1267 C1269 1.390 . S
C1267 H1271 0.950 . S
H1268 C1264 0.950 . S
C1269 C1267 1.390 . S
C1269 C1270 1.387 . S
C1269 H1272 0.950 . S
C1270 C1269 1.387 . S
C1270 C1273 1.387 . S
H1271 C1267 0.950 . S
H1272 C1269 0.950 . S
C1273 C1264 1.390 . S
C1273 H1266 0.950 . S
C1273 C1270 1.387 . S
C1274 C1275 1.387 . S
C1274 H1278 0.950 . S
C1274 C1283 1.390 . S
C1275 C1274 1.387 . S
C1275 C1277 1.387 . S
H1276 C1283 0.950 . S
C1277 C1275 1.387 . S
C1277 C1279 1.390 . S
C1277 H1281 0.950 . S
H1278 C1274 0.950 . S
C1279 C1277 1.390 . S
C1279 C1280 1.387 . S
C1279 H1282 0.950 . S
C1280 C1279 1.387 . S
C1280 C1283 1.387 . S
H1281 C1277 0.950 . S
H1282 C1279 0.950 . S
C1283 C1274 1.390 . S
C1283 H1276 0.950 . S
C1283 C1280 1.387 . S
C1284 C1285 1.387 . S
C1284 H1288 0.950 . S
C1284 C1293 1.390 . S
C1285 C1284 1.387 . S
C1285 C1287 1.387 . S
H1286 C1293 0.950 . S
C1287 C1285 1.387 . S
C1287 C1289 1.390 . S
C1287 H1291 0.950 . S
H1288 C1284 0.950 . S
C1289 C1287 1.390 . S
C1289 C1290 1.387 . S
C1289 H1292 0.950 . S
C1290 C1289 1.387 . S
C1290 C1293 1.387 . S
H1291 C1287 0.950 . S
H1292 C1289 0.950 . S
C1293 C1284 1.390 . S
C1293 H1286 0.950 . S
C1293 C1290 1.387 . S
C1294 C1295 1.387 . S
C1294 H1298 0.950 . S
C1294 C1303 1.390 . S
C1295 C1294 1.387 . S
C1295 C1297 1.387 . S
H1296 C1303 0.950 . S
C1297 C1295 1.387 . S
C1297 C1299 1.390 . S
C1297 H1301 0.950 . S
H1298 C1294 0.950 . S
C1299 C1297 1.390 . S
C1299 C1300 1.387 . S
C1299 H1302 0.950 . S
C1300 C1299 1.387 . S
C1300 C1303 1.387 . S
H1301 C1297 0.950 . S
H1302 C1299 0.950 . S
C1303 C1294 1.390 . S
C1303 H1296 0.950 . S
C1303 C1300 1.387 . S
C1304 C1305 1.387 . S
C1304 H1308 0.950 . S
C1304 C1313 1.390 . S
C1305 C1304 1.387 . S
C1305 C1307 1.387 . S
H1306 C1313 0.950 . S
C1307 C1305 1.387 . S
C1307 C1309 1.390 . S
C1307 H1311 0.950 . S
H1308 C1304 0.950 . S
C1309 C1307 1.390 . S
C1309 C1310 1.387 . S
C1309 H1312 0.950 . S
C1310 C1309 1.387 . S
C1310 C1313 1.387 . S
H1311 C1307 0.950 . S
H1312 C1309 0.950 . S
C1313 C1304 1.390 . S
C1313 H1306 0.950 . S
C1313 C1310 1.387 . S
C1314 C1315 1.387 . S
C1314 H1318 0.950 . S
C1314 C1323 1.390 . S
C1315 C1314 1.387 . S
C1315 C1317 1.387 . S
H1316 C1323 0.950 . S
C1317 C1315 1.387 . S
C1317 C1319 1.390 . S
C1317 H1321 0.950 . S
H1318 C1314 0.950 . S
C1319 C1317 1.390 . S
C1319 C1320 1.387 . S
C1319 H1322 0.950 . S
C1320 C1319 1.387 . S
C1320 C1323 1.387 . S
H1321 C1317 0.950 . S
H1322 C1319 0.950 . S
C1323 C1314 1.390 . S
C1323 H1316 0.950 . S
C1323 C1320 1.387 . S
C1324 C1325 1.387 . S
C1324 H1328 0.950 . S
C1324 C1333 1.390 . S
C1325 C1324 1.387 . S
C1325 C1327 1.387 . S
H1326 C1333 0.950 . S
C1327 C1325 1.387 . S
C1327 C1329 1.390 . S
C1327 H1331 0.950 . S
H1328 C1324 0.950 . S
C1329 C1327 1.390 . S
C1329 C1330 1.387 . S
C1329 H1332 0.950 . S
C1330 C1329 1.387 . S
C1330 C1333 1.387 . S
H1331 C1327 0.950 . S
H1332 C1329 0.950 . S
C1333 C1324 1.390 . S
C1333 H1326 0.950 . S
C1333 C1330 1.387 . S
C1334 C1335 1.387 . S
C1334 H1338 0.950 . S
C1334 C1343 1.390 . S
C1335 C1334 1.387 . S
C1335 C1337 1.387 . S
H1336 C1343 0.950 . S
C1337 C1335 1.387 . S
C1337 C1339 1.390 . S
C1337 H1341 0.950 . S
H1338 C1334 0.950 . S
C1339 C1337 1.390 . S
C1339 C1340 1.387 . S
C1339 H1342 0.950 . S
C1340 C1339 1.387 . S
C1340 C1343 1.387 . S
H1341 C1337 0.950 . S
H1342 C1339 0.950 . S
C1343 C1334 1.390 . S
C1343 H1336 0.950 . S
C1343 C1340 1.387 . S
C1344 C1345 1.387 . S
C1344 H1348 0.950 . S
C1344 C1353 1.390 . S
C1345 C1344 1.387 . S
C1345 C1347 1.387 . S
H1346 C1353 0.950 . S
C1347 C1345 1.387 . S
C1347 C1349 1.390 . S
C1347 H1351 0.950 . S
H1348 C1344 0.950 . S
C1349 C1347 1.390 . S
C1349 C1350 1.387 . S
C1349 H1352 0.950 . S
C1350 C1349 1.387 . S
C1350 C1353 1.387 . S
H1351 C1347 0.950 . S
H1352 C1349 0.950 . S
C1353 C1344 1.390 . S
C1353 H1346 0.950 . S
C1353 C1350 1.387 . S
C1354 C1355 1.387 . S
C1354 H1358 0.950 . S
C1354 C1363 1.390 . S
C1355 C1354 1.387 . S
C1355 C1357 1.387 . S
H1356 C1363 0.950 . S
C1357 C1355 1.387 . S
C1357 C1359 1.390 . S
C1357 H1361 0.950 . S
H1358 C1354 0.950 . S
C1359 C1357 1.390 . S
C1359 C1360 1.387 . S
C1359 H1362 0.950 . S
C1360 C1359 1.387 . S
C1360 C1363 1.387 . S
H1361 C1357 0.950 . S
H1362 C1359 0.950 . S
C1363 C1354 1.390 . S
C1363 H1356 0.950 . S
C1363 C1360 1.387 . S
C1364 C1365 1.387 . S
C1364 H1368 0.950 . S
C1364 C1373 1.390 . S
C1365 C1364 1.387 . S
C1365 C1367 1.387 . S
H1366 C1373 0.950 . S
C1367 C1365 1.387 . S
C1367 C1369 1.390 . S
C1367 H1371 0.950 . S
H1368 C1364 0.950 . S
C1369 C1367 1.390 . S
C1369 C1370 1.387 . S
C1369 H1372 0.950 . S
C1370 C1369 1.387 . S
C1370 C1373 1.387 . S
H1371 C1367 0.950 . S
H1372 C1369 0.950 . S
C1373 C1364 1.390 . S
C1373 H1366 0.950 . S
C1373 C1370 1.387 . S
C1374 C1375 1.387 . S
C1374 H1378 0.950 . S
C1374 C1383 1.390 . S
C1375 C1374 1.387 . S
C1375 C1377 1.387 . S
H1376 C1383 0.950 . S
C1377 C1375 1.387 . S
C1377 C1379 1.390 . S
C1377 H1381 0.950 . S
H1378 C1374 0.950 . S
C1379 C1377 1.390 . S
C1379 C1380 1.387 . S
C1379 H1382 0.950 . S
C1380 C1379 1.387 . S
C1380 C1383 1.387 . S
H1381 C1377 0.950 . S
H1382 C1379 0.950 . S
C1383 C1374 1.390 . S
C1383 H1376 0.950 . S
C1383 C1380 1.387 . S
C1384 C1385 1.387 . S
C1384 H1388 0.950 . S
C1384 C1393 1.390 . S
C1385 C1384 1.387 . S
C1385 C1387 1.387 . S
H1386 C1393 0.950 . S
C1387 C1385 1.387 . S
C1387 C1389 1.390 . S
C1387 H1391 0.950 . S
H1388 C1384 0.950 . S
C1389 C1387 1.390 . S
C1389 C1390 1.387 . S
C1389 H1392 0.950 . S
C1390 C1389 1.387 . S
C1390 C1393 1.387 . S
H1391 C1387 0.950 . S
H1392 C1389 0.950 . S
C1393 C1384 1.390 . S
C1393 H1386 0.950 . S
C1393 C1390 1.387 . S
C1394 C1395 1.387 . S
C1394 H1398 0.950 . S
C1394 C1403 1.390 . S
C1395 C1394 1.387 . S
C1395 C1397 1.387 . S
H1396 C1403 0.950 . S
C1397 C1395 1.387 . S
C1397 C1399 1.390 . S
C1397 H1401 0.950 . S
H1398 C1394 0.950 . S
C1399 C1397 1.390 . S
C1399 C1400 1.387 . S
C1399 H1402 0.950 . S
C1400 C1399 1.387 . S
C1400 C1403 1.387 . S
H1401 C1397 0.950 . S
H1402 C1399 0.950 . S
C1403 C1394 1.390 . S
C1403 H1396 0.950 . S
C1403 C1400 1.387 . S
C1404 C1405 1.387 . S
C1404 H1408 0.950 . S
C1404 C1413 1.390 . S
C1405 C1404 1.387 . S
C1405 C1407 1.387 . S
H1406 C1413 0.950 . S
C1407 C1405 1.387 . S
C1407 C1409 1.390 . S
C1407 H1411 0.950 . S
H1408 C1404 0.950 . S
C1409 C1407 1.390 . S
C1409 C1410 1.387 . S
C1409 H1412 0.950 . S
C1410 C1409 1.387 . S
C1410 C1413 1.387 . S
H1411 C1407 0.950 . S
H1412 C1409 0.950 . S
C1413 C1404 1.390 . S
C1413 H1406 0.950 . S
C1413 C1410 1.387 . S
C1414 C1415 1.387 . S
C1414 H1418 0.950 . S
C1414 C1423 1.390 . S
C1415 C1414 1.387 . S
C1415 C1417 1.387 . S
H1416 C1423 0.950 . S
C1417 C1415 1.387 . S
C1417 C1419 1.390 . S
C1417 H1421 0.950 . S
H1418 C1414 0.950 . S
C1419 C1417 1.390 . S
C1419 C1420 1.387 . S
C1419 H1422 0.950 . S
C1420 C1419 1.387 . S
C1420 C1423 1.387 . S
H1421 C1417 0.950 . S
H1422 C1419 0.950 . S
C1423 C1414 1.390 . S
C1423 H1416 0.950 . S
C1423 C1420 1.387 . S
C1424 C1425 1.387 . S
C1424 H1428 0.950 . S
C1424 C1433 1.390 . S
C1425 C1424 1.387 . S
C1425 C1427 1.387 . S
H1426 C1433 0.950 . S
C1427 C1425 1.387 . S
C1427 C1429 1.390 . S
C1427 H1431 0.950 . S
H1428 C1424 0.950 . S
C1429 C1427 1.390 . S
C1429 C1430 1.387 . S
C1429 H1432 0.950 . S
C1430 C1429 1.387 . S
C1430 C1433 1.387 . S
H1431 C1427 0.950 . S
H1432 C1429 0.950 . S
C1433 C1424 1.390 . S
C1433 H1426 0.950 . S
C1433 C1430 1.387 . S
C1434 C1435 1.387 . S
C1434 H1438 0.950 . S
C1434 C1443 1.390 . S
C1435 C1434 1.387 . S
C1435 C1437 1.387 . S
H1436 C1443 0.950 . S
C1437 C1435 1.387 . S
C1437 C1439 1.390 . S
C1437 H1441 0.950 . S
H1438 C1434 0.950 . S
C1439 C1437 1.390 . S
C1439 C1440 1.387 . S
C1439 H1442 0.950 . S
C1440 C1439 1.387 . S
C1440 C1443 1.387 . S
H1441 C1437 0.950 . S
H1442 C1439 0.950 . S
C1443 C1434 1.390 . S
C1443 H1436 0.950 . S
C1443 C1440 1.387 . S
C1444 C1445 1.387 . S
C1444 H1448 0.950 . S
C1444 C1453 1.390 . S
C1445 C1444 1.387 . S
C1445 C1447 1.387 . S
H1446 C1453 0.950 . S
C1447 C1445 1.387 . S
C1447 C1449 1.390 . S
C1447 H1451 0.950 . S
H1448 C1444 0.950 . S
C1449 C1447 1.390 . S
C1449 C1450 1.387 . S
C1449 H1452 0.950 . S
C1450 C1449 1.387 . S
C1450 C1453 1.387 . S
H1451 C1447 0.950 . S
H1452 C1449 0.950 . S
C1453 C1444 1.390 . S
C1453 H1446 0.950 . S
C1453 C1450 1.387 . S
C1454 C1455 1.387 . S
C1454 H1458 0.950 . S
C1454 C1463 1.390 . S
C1455 C1454 1.387 . S
C1455 C1457 1.387 . S
H1456 C1463 0.950 . S
C1457 C1455 1.387 . S
C1457 C1459 1.390 . S
C1457 H1461 0.950 . S
H1458 C1454 0.950 . S
C1459 C1457 1.390 . S
C1459 C1460 1.387 . S
C1459 H1462 0.950 . S
C1460 C1459 1.387 . S
C1460 C1463 1.387 . S
H1461 C1457 0.950 . S
H1462 C1459 0.950 . S
C1463 C1454 1.390 . S
C1463 H1456 0.950 . S
C1463 C1460 1.387 . S
C1464 C1465 1.387 . S
C1464 H1468 0.950 . S
C1464 C1473 1.390 . S
C1465 C1464 1.387 . S
C1465 C1467 1.387 . S
H1466 C1473 0.950 . S
C1467 C1465 1.387 . S
C1467 C1469 1.390 . S
C1467 H1471 0.950 . S
H1468 C1464 0.950 . S
C1469 C1467 1.390 . S
C1469 C1470 1.387 . S
C1469 H1472 0.950 . S
C1470 C1469 1.387 . S
C1470 C1473 1.387 . S
H1471 C1467 0.950 . S
H1472 C1469 0.950 . S
C1473 C1464 1.390 . S
C1473 H1466 0.950 . S
C1473 C1470 1.387 . S
C1474 C1475 1.387 . S
C1474 H1478 0.950 . S
C1474 C1483 1.390 . S
C1475 C1474 1.387 . S
C1475 C1477 1.387 . S
H1476 C1483 0.950 . S
C1477 C1475 1.387 . S
C1477 C1479 1.390 . S
C1477 H1481 0.950 . S
H1478 C1474 0.950 . S
C1479 C1477 1.390 . S
C1479 C1480 1.387 . S
C1479 H1482 0.950 . S
C1480 C1479 1.387 . S
C1480 C1483 1.387 . S
H1481 C1477 0.950 . S
H1482 C1479 0.950 . S
C1483 C1474 1.390 . S
C1483 H1476 0.950 . S
C1483 C1480 1.387 . S
C1484 C1485 1.387 . S
C1484 H1488 0.950 . S
C1484 C1493 1.390 . S
C1485 C1484 1.387 . S
C1485 C1487 1.387 . S
H1486 C1493 0.950 . S
C1487 C1485 1.387 . S
C1487 C1489 1.390 . S
C1487 H1491 0.950 . S
H1488 C1484 0.950 . S
C1489 C1487 1.390 . S
C1489 C1490 1.387 . S
C1489 H1492 0.950 . S
C1490 C1489 1.387 . S
C1490 C1493 1.387 . S
H1491 C1487 0.950 . S
H1492 C1489 0.950 . S
C1493 C1484 1.390 . S
C1493 H1486 0.950 . S
C1493 C1490 1.387 . S
C955 C147 1.473 . S
C960 C254 1.415 . S
C965 C158 1.498 . S
C970 C338 1.443 . S
C975 C136 1.470 . S
C980 C432 1.468 . S
C985 C125 1.459 . S
C990 C348 1.463 . S
C1000 C422 1.407 . S
C995 C103 1.465 . S
C1005 C114 1.438 . S
C1010 C264 1.437 . S
C1020 C265 1.459 . S
C1015 C131 1.513 . S
C1030 C349 1.481 . S
C1025 C109 1.535 . S
C1035 C120 1.527 . S
C1040 C441 1.482 . S
C1045 C153 1.505 . S
C1050 C357 1.461 . S
C1055 C164 1.494 . S
C1060 C433 1.434 . S
C1070 C273 1.442 . S
C1065 C142 1.488 . S
C1080 C506 1.414 . S
C1075 C15 1.473 . S
C1085 C26 1.498 . S
C1090 C590 1.443 . S
C1095 C4 1.470 . S
C1100 C684 1.468 . S
C1105 C191 1.461 . S
C1110 C600 1.462 . S
C1115 C169 1.465 . S
C1120 C674 1.407 . S
C1125 C180 1.438 . S
C1130 C516 1.437 . S
C1135 C197 1.513 . S
C1140 C517 1.458 . S
C1145 C175 1.535 . S
C1150 C601 1.479 . S
C1160 C693 1.478 . S
C1155 C186 1.526 . S
C1165 C21 1.505 1_565 S
C1170 C609 1.461 . S
C1180 C685 1.438 . S
C1175 C32 1.494 1_455 S
C1185 C10 1.487 . S
C1190 C525 1.439 . S
C1200 C758 1.414 . S
C1195 C81 1.473 . S
C1205 C92 1.497 . S
C1210 C842 1.446 . S
C1220 C936 1.468 . S
C1215 C70 1.470 . S
C1230 C852 1.462 . S
C1225 C59 1.460 . S
C1240 C926 1.407 . S
C1235 C37 1.465 . S
C1245 C48 1.439 . S
C1250 C768 1.436 . S
C1255 C65 1.514 1_655 S
C1260 C769 1.458 . S
C1265 C43 1.534 . S
C1270 C853 1.483 . S
C1280 C945 1.481 . S
C1275 C54 1.527 1_545 S
C1285 C87 1.506 . S
C1290 C861 1.459 . S
C1295 C98 1.495 . S
C1300 C937 1.434 . S
C1305 C76 1.489 . S
C1310 C777 1.442 . S
C1315 C170 1.571 . S
C1320 C261 1.472 . S
C1330 C345 1.478 . S
C1325 C181 1.609 . S
C1335 C192 1.567 . S
C1340 C438 1.383 . S
C1345 C71 1.578 . S
C1350 C354 1.378 . S
C1355 C82 1.577 . S
C1360 C429 1.454 . S
C1370 C270 1.377 . S
C1365 C93 1.540 . S
C1375 C38 1.571 . S
C1380 C513 1.468 . S
C1385 C49 1.608 . S
C1390 C597 1.478 . S
C1395 C60 1.568 . S
C1400 C690 1.381 . S
C1405 C137 1.578 . S
C1410 C606 1.378 . S
C1420 C681 1.457 . S
C1415 C148 1.578 . S
C1425 C159 1.541 . S
C1430 C522 1.376 . S
C1435 C104 1.571 . S
C1440 C765 1.468 . S
C1445 C115 1.610 . S
C1450 C849 1.475 . S
C1460 C942 1.380 . S
C1455 C126 1.568 . S
C1465 C5 1.578 . S
C1470 C858 1.374 . S
C1475 C16 1.578 . S
C1480 C933 1.453 . S
C1485 C27 1.541 . S
C1490 C774 1.375 . S
