# Generated by pormake.
# Topology pyr, (3,6)-cn, num edge types: 1
# Building blocks:
#     Node 0, Type 0, BuildingBlock: CUQRIR_clean_linker_1, # of connection points: 3
#     Node 1, Type 0, BuildingBlock: CUQRIR_clean_linker_1, # of connection points: 3
#     Node 2, Type 0, BuildingBlock: CUQRIR_clean_linker_1, # of connection points: 3
#     Node 3, Type 0, BuildingBlock: CUQRIR_clean_linker_1, # of connection points: 3
#     Node 4, Type 0, BuildingBlock: CUQRIR_clean_linker_1, # of connection points: 3
#     Node 5, Type 0, BuildingBlock: CUQRIR_clean_linker_1, # of connection points: 3
#     Node 6, Type 0, BuildingBlock: CUQRIR_clean_linker_1, # of connection points: 3
#     Node 7, Type 0, BuildingBlock: CUQRIR_clean_linker_1, # of connection points: 3
#     Node 8, Type 1, BuildingBlock: BETFEN_clean_sbu_0, # of connection points: 6
#     Node 9, Type 1, BuildingBlock: BETFEN_clean_sbu_0, # of connection points: 6
#     Node 10, Type 1, BuildingBlock: BETFEN_clean_sbu_0, # of connection points: 6
#     Node 11, Type 1, BuildingBlock: BETFEN_clean_sbu_0, # of connection points: 6
#     Edge 12, Type (0, 1), BuildingBlock: UVAHIK_clean_linker_0, # of connection points: 2
#     Edge 13, Type (0, 1), BuildingBlock: UVAHIK_clean_linker_0, # of connection points: 2
#     Edge 14, Type (0, 1), BuildingBlock: UVAHIK_clean_linker_0, # of connection points: 2
#     Edge 15, Type (0, 1), BuildingBlock: UVAHIK_clean_linker_0, # of connection points: 2
#     Edge 16, Type (0, 1), BuildingBlock: UVAHIK_clean_linker_0, # of connection points: 2
#     Edge 17, Type (0, 1), BuildingBlock: UVAHIK_clean_linker_0, # of connection points: 2
#     Edge 18, Type (0, 1), BuildingBlock: UVAHIK_clean_linker_0, # of connection points: 2
#     Edge 19, Type (0, 1), BuildingBlock: UVAHIK_clean_linker_0, # of connection points: 2
#     Edge 20, Type (0, 1), BuildingBlock: UVAHIK_clean_linker_0, # of connection points: 2
#     Edge 21, Type (0, 1), BuildingBlock: UVAHIK_clean_linker_0, # of connection points: 2
#     Edge 22, Type (0, 1), BuildingBlock: UVAHIK_clean_linker_0, # of connection points: 2
#     Edge 23, Type (0, 1), BuildingBlock: UVAHIK_clean_linker_0, # of connection points: 2
#     Edge 24, Type (0, 1), BuildingBlock: UVAHIK_clean_linker_0, # of connection points: 2
#     Edge 25, Type (0, 1), BuildingBlock: UVAHIK_clean_linker_0, # of connection points: 2
#     Edge 26, Type (0, 1), BuildingBlock: UVAHIK_clean_linker_0, # of connection points: 2
#     Edge 27, Type (0, 1), BuildingBlock: UVAHIK_clean_linker_0, # of connection points: 2
#     Edge 28, Type (0, 1), BuildingBlock: UVAHIK_clean_linker_0, # of connection points: 2
#     Edge 29, Type (0, 1), BuildingBlock: UVAHIK_clean_linker_0, # of connection points: 2
#     Edge 30, Type (0, 1), BuildingBlock: UVAHIK_clean_linker_0, # of connection points: 2
#     Edge 31, Type (0, 1), BuildingBlock: UVAHIK_clean_linker_0, # of connection points: 2
#     Edge 32, Type (0, 1), BuildingBlock: UVAHIK_clean_linker_0, # of connection points: 2
#     Edge 33, Type (0, 1), BuildingBlock: UVAHIK_clean_linker_0, # of connection points: 2
#     Edge 34, Type (0, 1), BuildingBlock: UVAHIK_clean_linker_0, # of connection points: 2
#     Edge 35, Type (0, 1), BuildingBlock: UVAHIK_clean_linker_0, # of connection points: 2
# Relax obj value: 0.170
# Max RMSD: 0.302
# Mean RMSD: 0.168
data_MOF--net-pyr--node1-BETFEN_clean_sbu_0--node2-CUQRIR_clean_linker_1--edge1-UVAHIK_clean_linker_0
_symmetry_space_group_name_H-M    P1
_symmetry_Int_Tables_number       1
_symmetry_cell_setting            triclinic
loop_
_symmetry_equiv_pos_as_xyz
'x, y, z'
_cell_length_a     45.638514
_cell_length_b     47.806821
_cell_length_c     44.30126
_cell_angle_alpha  90.412347
_cell_angle_beta   99.717672
_cell_angle_gamma 109.68598
loop_
_atom_site_label
_atom_site_type_symbol
_atom_site_fract_x
_atom_site_fract_y
_atom_site_fract_z
_atom_type_partial_charge
C0 C 0.38189 0.40531 0.30216 0.0
N1 N 0.39081 0.38145 0.30883 0.0
N2 N 0.39846 0.42168 0.2818 0.0
C3 C 0.35331 0.40985 0.31127 0.0
C4 C 0.41787 0.40679 0.27654 0.0
N5 N 0.41287 0.38204 0.29251 0.0
C6 C 0.44193 0.41681 0.2559 0.0
H7 H 0.33621 0.41028 0.29039 0.0
H8 H 0.36078 0.43169 0.32442 0.0
H9 H 0.34112 0.39229 0.32556 0.0
H10 H 0.45018 0.44141 0.25527 0.0
H11 H 0.43115 0.407 0.23219 0.0
H12 H 0.46241 0.4095 0.26397 0.0
C13 C 0.2732 0.85139 0.72121 0.0
N14 N 0.27139 0.87191 0.74132 0.0
N15 N 0.28946 0.83477 0.73553 0.0
C16 C 0.25864 0.84724 0.68767 0.0
C17 C 0.29748 0.84595 0.76514 0.0
N18 N 0.28607 0.86828 0.76876 0.0
C19 C 0.31967 0.83757 0.78963 0.0
H20 H 0.23618 0.85201 0.68401 0.0
H21 H 0.25405 0.82423 0.6784 0.0
H22 H 0.2752 0.86305 0.67486 0.0
H23 H 0.33499 0.82779 0.77956 0.0
H24 H 0.30546 0.82087 0.80355 0.0
H25 H 0.33499 0.85719 0.80519 0.0
C26 C 0.61439 0.32798 0.83707 0.0
N27 N 0.63435 0.32429 0.86179 0.0
N28 N 0.63005 0.35002 0.82063 0.0
C29 C 0.57993 0.30947 0.82827 0.0
C30 C 0.66018 0.35979 0.8363 0.0
N31 N 0.6629 0.34393 0.86118 0.0
C32 C 0.68597 0.38692 0.82917 0.0
H33 H 0.57176 0.30883 0.80313 0.0
H34 H 0.5659 0.31953 0.84005 0.0
H35 H 0.57557 0.28642 0.83539 0.0
H36 H 0.70183 0.39899 0.85051 0.0
H37 H 0.67601 0.40245 0.81626 0.0
H38 H 0.70027 0.37978 0.81487 0.0
C39 C 0.83745 0.66767 0.34502 0.0
N40 N 0.86315 0.68933 0.33816 0.0
N41 N 0.82511 0.6781 0.36658 0.0
C42 C 0.82355 0.63676 0.3296 0.0
C43 C 0.84433 0.70686 0.37264 0.0
N44 N 0.86714 0.71385 0.35517 0.0
C45 C 0.84228 0.72762 0.39735 0.0
H46 H 0.7978 0.62717 0.32975 0.0
H47 H 0.83539 0.62237 0.3422 0.0
H48 H 0.82751 0.63683 0.30556 0.0
H49 H 0.83101 0.71507 0.41576 0.0
H50 H 0.8279 0.74094 0.38702 0.0
H51 H 0.8661 0.74324 0.40775 0.0
C52 C 0.62881 0.73454 0.79103 0.0
N53 N 0.65604 0.73564 0.78207 0.0
N54 N 0.61878 0.75657 0.77933 0.0
C55 C 0.61191 0.71187 0.81134 0.0
C56 C 0.64074 0.77074 0.76225 0.0
N57 N 0.66317 0.75787 0.76376 0.0
C58 C 0.64294 0.79988 0.74829 0.0
H59 H 0.61502 0.69025 0.8069 0.0
H60 H 0.58632 0.70884 0.80733 0.0
H61 H 0.62201 0.71938 0.83578 0.0
H62 H 0.64048 0.81569 0.76533 0.0
H63 H 0.62319 0.79593 0.72855 0.0
H64 H 0.66559 0.81031 0.74016 0.0
C65 C 0.80782 0.27732 0.43846 0.0
N66 N 0.81269 0.25863 0.41831 0.0
N67 N 0.78831 0.29105 0.42409 0.0
C68 C 0.82238 0.28247 0.47196 0.0
C69 C 0.78131 0.27978 0.39457 0.0
N70 N 0.79644 0.26036 0.391 0.0
C71 C 0.75681 0.2851 0.37013 0.0
H72 H 0.80729 0.26527 0.48479 0.0
H73 H 0.82407 0.30474 0.48111 0.0
H74 H 0.84626 0.28052 0.47567 0.0
H75 H 0.7684 0.30521 0.35841 0.0
H76 H 0.7378 0.28899 0.38033 0.0
H77 H 0.74589 0.26607 0.35266 0.0
C78 C 0.35598 0.72697 0.27339 0.0
N79 N 0.38647 0.74304 0.28549 0.0
N80 N 0.34589 0.73894 0.24782 0.0
C81 C 0.33702 0.69813 0.28496 0.0
C82 C 0.37129 0.76282 0.24482 0.0
N83 N 0.39599 0.76522 0.26757 0.0
C84 C 0.37217 0.78375 0.21947 0.0
H85 H 0.31974 0.68317 0.26594 0.0
H86 H 0.32379 0.70307 0.30191 0.0
H87 H 0.35262 0.68642 0.29648 0.0
H88 H 0.34806 0.78342 0.20951 0.0
H89 H 0.38264 0.77683 0.20113 0.0
H90 H 0.38721 0.80684 0.22806 0.0
C91 C 0.14718 0.38773 0.75956 0.0
N92 N 0.16456 0.38466 0.73851 0.0
N93 N 0.16136 0.41413 0.77639 0.0
C94 C 0.11751 0.36406 0.76524 0.0
C95 C 0.18816 0.42698 0.76487 0.0
N96 N 0.19027 0.40902 0.74198 0.0
C97 C 0.21084 0.45807 0.77425 0.0
H98 H 0.09682 0.36667 0.74994 0.0
H99 H 0.11443 0.3661 0.78937 0.0
H100 H 0.11805 0.3415 0.76016 0.0
H101 H 0.23038 0.45702 0.79236 0.0
H102 H 0.19891 0.47203 0.78361 0.0
H103 H 0.22116 0.46873 0.7545 0.0
Pr104 Pr 1.01503 0.03679 0.55724 0.0
Pr105 Pr 0.06591 0.05936 0.52379 0.0
C106 C 0.96894 1.00742 0.58813 0.0
C107 C 0.956 0.98096 0.60507 0.0
C108 C 0.95057 0.98503 0.63474 0.0
C109 C 0.93446 0.96071 0.64992 0.0
C110 C 0.92328 0.93178 0.63564 0.0
C111 C 0.92997 0.92757 0.60642 0.0
C112 C 0.94623 0.95196 0.59126 0.0
C113 C 0.04714 0.09805 0.57184 0.0
C114 C 0.08188 0.02591 0.58367 0.0
C115 C 0.11141 0.08559 0.49109 0.0
C116 C 0.12734 0.11113 0.47448 0.0
C117 C 0.1375 0.10557 0.44768 0.0
C118 C 0.15605 0.12902 0.43314 0.0
C119 C 0.16481 0.15858 0.44515 0.0
C120 C 0.15361 0.16419 0.47148 0.0
C121 C 0.135 0.14062 0.48607 0.0
C122 C 0.03278 0.99817 0.5092 0.0
C123 C 1.00036 0.07413 0.50068 0.0
O124 O 0.96646 1.00373 0.55843 0.0
O125 O 0.99525 0.02794 0.60128 0.0
O126 O 0.06066 0.07918 0.56938 0.0
O127 O 1.01667 0.08545 0.56689 0.0
O128 O 0.09493 0.04771 0.56704 0.0
O129 O 0.05085 1.01428 0.58046 0.0
O130 O 0.11553 0.08903 0.52097 0.0
O131 O 0.08318 0.06792 0.47842 0.0
O132 O 0.02004 1.01765 0.51124 0.0
O133 O 0.06328 1.00996 0.51579 0.0
O134 O 0.98689 0.05077 0.51523 0.0
O135 O 0.03147 0.08488 0.5036 0.0
H136 H 0.9577 1.00721 0.64574 0.0
H137 H 0.92935 0.9648 0.6722 0.0
H138 H 0.92196 0.9055 0.59499 0.0
H139 H 0.95022 0.94816 0.56841 0.0
H140 H 0.132 0.08292 0.43855 0.0
H141 H 0.16462 0.12381 0.41321 0.0
H142 H 0.15961 0.18674 0.48106 0.0
H143 H 0.1273 0.14538 0.50675 0.0
Pr144 Pr 0.51772 0.05151 0.10912 0.0
Pr145 Pr 0.56929 0.04369 0.07032 0.0
C146 C 0.48197 0.04978 0.15177 0.0
C147 C 0.47993 0.07419 0.17061 0.0
C148 C 0.50062 0.1032 0.16885 0.0
C149 C 0.49709 0.12725 0.18385 0.0
C150 C 0.47291 0.12274 0.20105 0.0
C151 C 0.45299 0.09353 0.2039 0.0
C152 C 0.45636 0.06935 0.18855 0.0
C153 C 0.54153 0.10199 0.07623 0.0
C154 C 0.59578 0.08255 0.13502 0.0
C155 C 0.60225 0.03847 1.02703 0.0
C156 C 0.5954 1.01781 0.99992 0.0
C157 C 0.5652 1.00756 0.98126 0.0
C158 C 0.5578 0.98509 0.95798 0.0
C159 C 0.58035 0.9723 0.95326 0.0
C160 C 0.61089 0.98339 0.97124 0.0
C161 C 0.61833 1.00597 0.99435 0.0
C162 C 0.55046 1.00227 0.11356 0.0
C163 C 0.49131 1.01731 0.04007 0.0
O164 O 0.5089 0.04486 0.15771 0.0
O165 O 0.4715 0.04977 0.12232 0.0
O166 O 0.5488 0.07903 0.07813 0.0
O167 O 0.51968 0.09951 0.09241 0.0
O168 O 0.60137 0.08125 0.10682 0.0
O169 O 0.56754 0.06865 0.14205 0.0
O170 O 0.5865 0.05694 1.0258 0.0
O171 O 0.60477 0.02674 0.05351 0.0
O172 O 0.53233 1.01226 0.09568 0.0
O173 O 0.57925 1.01247 0.10837 0.0
O174 O 0.48352 1.02158 0.06674 0.0
O175 O 0.521 0.02496 0.036 0.0
H176 H 0.51903 0.10732 0.15516 0.0
H177 H 0.51298 0.14951 0.18158 0.0
H178 H 0.43409 0.08953 0.21696 0.0
H179 H 0.44014 0.04706 0.19003 0.0
H180 H 0.547 1.01618 0.98528 0.0
H181 H 0.53404 0.97683 0.94461 0.0
H182 H 0.62883 0.97415 0.96782 0.0
H183 H 0.6417 1.01352 1.00855 0.0
Pr184 Pr 0.51297 0.57057 0.56511 0.0
Pr185 Pr 0.49485 0.51001 0.52909 0.0
C186 C 0.51663 0.62436 0.5878 0.0
C187 C 0.49763 0.63778 0.60251 0.0
C188 C 0.50998 0.6681 0.61207 0.0
C189 C 0.49127 0.68174 0.6239 0.0
C190 C 0.45986 0.66523 0.62632 0.0
C191 C 0.44787 0.63459 0.61742 0.0
C192 C 0.46662 0.62099 0.60553 0.0
C193 C 0.53818 0.53082 0.59537 0.0
C194 C 0.44356 0.51671 0.5696 0.0
C195 C 0.49475 0.45829 0.50456 0.0
C196 C 0.51937 0.44554 0.50075 0.0
C197 C 0.52278 0.43806 0.47117 0.0
C198 C 0.54691 0.42732 0.46708 0.0
C199 C 0.56793 0.42359 0.49254 0.0
C200 C 0.56421 0.43066 0.52218 0.0
C201 C 0.54028 0.44166 0.52627 0.0
C202 C 0.47288 0.5518 0.49815 0.0
C203 C 0.56436 0.56217 0.52651 0.0
O204 O 0.5053 0.61453 0.5591 0.0
O205 O 0.52843 0.60656 0.60389 0.0
O206 O 0.51038 0.52414 0.58039 0.0
O207 O 0.55366 0.55929 0.59644 0.0
O208 O 0.45237 0.49751 0.55512 0.0
O209 O 0.46066 0.5455 0.57319 0.0
O210 O 0.49018 0.46163 0.53253 0.0
O211 O 0.49376 0.48069 0.48813 0.0
O212 O 0.49985 0.55669 0.51404 0.0
O213 O 0.45583 0.52365 0.49654 0.0
O214 O 0.55304 0.58196 0.53611 0.0
O215 O 0.54923 0.5333 0.52735 0.0
H216 H 0.53391 0.68134 0.60986 0.0
H217 H 0.50132 0.70528 0.63097 0.0
H218 H 0.42369 0.62133 0.61872 0.0
H219 H 0.45673 0.59758 0.59803 0.0
H220 H 0.50695 0.4408 0.45117 0.0
H221 H 0.54899 0.42174 0.44398 0.0
H222 H 0.58024 0.42828 0.5422 0.0
H223 H 0.53847 0.44742 0.5494 0.0
Pr224 Pr 0.98615 0.56023 1.02621 0.0
Pr225 Pr 0.01757 0.53293 0.07889 0.0
C226 C 0.94743 0.57472 0.98122 0.0
C227 C 0.92951 0.59424 0.96997 0.0
C228 C 0.93716 0.61054 0.94446 0.0
C229 C 0.91787 0.62567 0.93021 0.0
C230 C 0.89037 0.62468 0.9411 0.0
C231 C 0.88348 0.60947 0.96751 0.0
C232 C 0.90284 0.59431 0.9818 0.0
C233 C 0.04646 0.5965 0.05454 0.0
C234 C 0.9736 0.57011 0.09811 0.0
C235 C 0.05746 0.51702 0.12151 0.0
C236 C 0.08899 0.51375 0.12641 0.0
C237 C 0.09166 0.48567 0.12193 0.0
C238 C 0.1211 0.48202 0.12877 0.0
C239 C 0.14852 0.50632 0.14057 0.0
C240 C 0.14597 0.53456 0.14435 0.0
C241 C 0.11652 0.53824 0.13742 0.0
C242 C 0.95665 0.49715 0.05164 0.0
C243 C 0.03157 0.52527 1.00863 0.0
O244 O 0.93711 0.55578 1.00155 0.0
O245 O 0.9783 0.58535 0.98431 0.0
O246 O 0.02492 0.5809 0.06773 0.0
O247 O 0.03696 0.59509 1.02504 0.0
O248 O 0.99452 0.55728 0.10826 0.0
O249 O 0.96511 0.5725 0.06828 0.0
O250 O 0.05666 0.54409 0.12037 0.0
O251 O 0.03458 0.49772 0.10214 0.0
O252 O 0.97801 0.51191 0.03757 0.0
O253 O 0.96666 0.49962 0.08114 0.0
O254 O 1.0048 0.52994 0.99885 0.0
O255 O 0.04457 0.53005 0.03813 0.0
H256 H 0.9575 0.61069 0.93479 0.0
H257 H 0.92408 0.63759 0.91021 0.0
H258 H 0.86234 0.60813 0.97632 0.0
H259 H 0.89627 0.58179 1.00136 0.0
H260 H 0.07091 0.46635 0.11363 0.0
H261 H 0.12232 0.46004 0.12515 0.0
H262 H 0.16655 0.55366 0.15371 0.0
H263 H 0.11528 0.56017 0.14137 0.0
C264 C 0.35121 0.33132 0.30511 0.0
C265 C 0.37312 0.35604 0.32322 0.0
C266 C 0.33013 0.30874 0.31856 0.0
C267 C 0.31393 0.27663 0.39197 0.0
H268 H 0.22609 0.25435 0.3519 0.0
C269 C 0.21204 0.2055 0.44985 0.0
C270 C 0.18713 0.18303 0.43119 0.0
C271 C 0.23481 0.22687 0.43682 0.0
C272 C 0.25052 0.26 0.3632 0.0
H273 H 0.39144 0.37663 0.36917 0.0
H274 H 0.35471 0.3369 0.39315 0.0
H275 H 0.26724 0.28925 0.32873 0.0
H276 H 0.16593 0.16617 0.38411 0.0
H277 H 0.20601 0.20289 0.36145 0.0
H278 H 0.29726 0.24721 0.42635 0.0
C279 C 0.35385 0.33476 0.36863 0.0
C280 C 0.2741 0.27999 0.34989 0.0
C281 C 0.37479 0.35741 0.35508 0.0
C282 C 0.18503 0.18295 0.39916 0.0
C283 C 0.20785 0.20422 0.38615 0.0
C284 C 0.29034 0.25646 0.4052 0.0
C285 C 0.33074 0.3106 0.35038 0.0
C286 C 0.30603 0.28853 0.36414 0.0
C287 C 0.23325 0.22621 0.40483 0.0
C288 C 0.25833 0.24795 0.391 0.0
H289 H 0.34959 0.33022 0.28043 0.0
H290 H 0.31283 0.2902 0.304 0.0
H291 H 0.33838 0.28268 0.40333 0.0
H292 H 0.21455 0.20605 0.47462 0.0
H293 H 0.25377 0.24378 0.45185 0.0
C294 C 0.28898 0.87924 0.8237 0.0
C295 C 0.29579 0.88913 0.7951 0.0
C296 C 0.30541 0.89684 0.85069 0.0
C297 C 0.38427 0.94676 0.87829 0.0
H298 H 0.35427 0.96357 0.95081 0.0
C299 C 0.47245 1.01211 0.98359 0.0
C300 C 0.46617 1.00449 1.01296 0.0
C301 C 0.44936 1.00023 0.95755 0.0
C302 C 0.36305 0.95871 0.9309 0.0
H303 H 0.32323 0.92547 0.77171 0.0
H304 H 0.35221 0.95642 0.8189 0.0
H305 H 0.31616 0.94 0.9041 0.0
H306 H 0.43059 0.97874 0.03819 0.0
H307 H 0.39042 0.95669 0.99243 0.0
H308 H 0.43078 0.96364 0.90487 0.0
C309 C 0.33413 0.93518 0.82052 0.0
C310 C 0.34121 0.94546 0.90412 0.0
C311 C 0.31742 0.91772 0.79359 0.0
C312 C 0.43605 0.98496 1.01579 0.0
C313 C 0.413 0.97252 0.98954 0.0
C314 C 0.40597 0.95942 0.90505 0.0
C315 C 0.32918 0.92437 0.84935 0.0
C316 C 0.3517 0.93961 0.87752 0.0
C317 C 0.41947 0.97983 0.96001 0.0
C318 C 0.39578 0.96584 0.93172 0.0
H319 H 0.27257 0.85705 0.82516 0.0
H320 H 0.30129 0.88792 0.87261 0.0
H321 H 0.39296 0.94177 0.85835 0.0
H322 H 0.4952 0.02765 0.98068 0.0
H323 H 0.45505 1.00723 0.93543 0.0
C324 C 0.59427 0.37591 0.79788 0.0
C325 C 0.61715 0.36305 0.79493 0.0
C326 C 0.5845 0.39181 0.77429 0.0
C327 C 0.58157 0.40448 0.69224 0.0
H328 H 0.58336 0.48301 0.71746 0.0
C329 C 0.53068 0.47968 0.61279 0.0
C330 C 0.54906 0.51007 0.61483 0.0
C331 C 0.53973 0.46041 0.63287 0.0
C332 C 0.58293 0.4612 0.71006 0.0
H333 H 0.64705 0.3555 0.76518 0.0
H334 H 0.62971 0.38309 0.72341 0.0
H335 H 0.59593 0.45072 0.75614 0.0
H336 H 0.5918 0.544 0.63863 0.0
H337 H 0.60738 0.5104 0.67403 0.0
H338 H 0.56843 0.41508 0.64607 0.0
C339 C 0.6193 0.3809 0.74389 0.0
C340 C 0.58977 0.44261 0.73221 0.0
C341 C 0.62927 0.36526 0.76765 0.0
C342 C 0.57711 0.5207 0.63666 0.0
C343 C 0.58595 0.50152 0.65697 0.0
C344 C 0.57432 0.42299 0.67005 0.0
C345 C 0.59732 0.39488 0.74727 0.0
C346 C 0.5892 0.41409 0.72355 0.0
C347 C 0.5671 0.47129 0.65557 0.0
C348 C 0.57509 0.45159 0.67878 0.0
H349 H 0.58492 0.3746 0.81893 0.0
H350 H 0.56732 0.40214 0.77737 0.0
H351 H 0.58091 0.38256 0.68497 0.0
H352 H 0.50895 0.4709 0.59613 0.0
H353 H 0.52469 0.43725 0.63138 0.0
C354 C 0.87707 0.6961 0.28651 0.0
C355 C 0.88174 0.68594 0.31597 0.0
C356 C 0.88849 0.68615 0.26245 0.0
C357 C 0.91097 0.62165 0.24078 0.0
H358 H 0.94066 0.66824 0.17379 0.0
C359 C 0.96772 0.578 0.1526 0.0
C360 C 0.96101 0.58343 0.12144 0.0
C361 C 0.95766 0.5913 0.17518 0.0
C362 C 0.93207 0.6548 0.19214 0.0
H363 H 0.90292 0.65854 0.34384 0.0
H364 H 0.92407 0.64206 0.30258 0.0
H365 H 0.92628 0.69147 0.21579 0.0
H366 H 0.93812 0.60739 0.08983 0.0
H367 H 0.92034 0.63064 0.12943 0.0
H368 H 0.91673 0.58507 0.21737 0.0
C369 C 0.91103 0.65715 0.29753 0.0
C370 C 0.92386 0.66817 0.21633 0.0
C371 C 0.89945 0.66696 0.32138 0.0
C372 C 0.94365 0.60255 0.11353 0.0
C373 C 0.93368 0.61609 0.1363 0.0
C374 C 0.91921 0.60839 0.21676 0.0
C375 C 0.90478 0.66572 0.2674 0.0
C376 C 0.91349 0.65185 0.24122 0.0
C377 C 0.94055 0.61062 0.16749 0.0
C378 C 0.93018 0.62477 0.19218 0.0
H379 H 0.86283 0.7102 0.28171 0.0
H380 H 0.88298 0.69318 0.23966 0.0
H381 H 0.90222 0.60797 0.25891 0.0
H382 H 0.98108 0.56353 0.15978 0.0
H383 H 0.96388 0.58681 0.19888 0.0
C384 C 0.41993 0.34571 0.25726 0.0
C385 C 0.42305 0.35724 0.28731 0.0
C386 C 0.42841 0.32096 0.25196 0.0
C387 C 0.43286 0.2529 0.28231 0.0
H388 H 0.48991 0.25758 0.22532 0.0
C389 C 0.4646 0.15103 0.24508 0.0
C390 C 0.4676 0.14882 0.2142 0.0
C391 C 0.46122 0.17664 0.25737 0.0
C392 C 0.47368 0.25574 0.24104 0.0
H393 H 0.43626 0.35137 0.33544 0.0
H394 H 0.45027 0.30697 0.32617 0.0
H395 H 0.48049 0.30229 0.24088 0.0
H396 H 0.46778 0.17071 0.17157 0.0
H397 H 0.46095 0.21471 0.19249 0.0
H398 H 0.42473 0.20603 0.28129 0.0
C399 C 0.44193 0.31772 0.3068 0.0
C400 C 0.46854 0.28142 0.25012 0.0
C401 C 0.43401 0.34299 0.31208 0.0
C402 C 0.46617 0.17213 0.19563 0.0
C403 C 0.46245 0.19744 0.20772 0.0
C404 C 0.43765 0.22699 0.27286 0.0
C405 C 0.43941 0.3067 0.27664 0.0
C406 C 0.44765 0.28014 0.27034 0.0
C407 C 0.46048 0.20032 0.23887 0.0
C408 C 0.45757 0.22801 0.25152 0.0
H409 H 0.41013 0.35538 0.23783 0.0
H410 H 0.42564 0.31248 0.22852 0.0
H411 H 0.41649 0.2514 0.29782 0.0
H412 H 0.46569 0.13332 0.25987 0.0
H413 H 0.45989 0.17814 0.28147 0.0
C414 C 0.2663 0.91436 0.71266 0.0
C415 C 0.25636 0.89367 0.73433 0.0
C416 C 0.24873 0.9324 0.7021 0.0
C417 C 0.16735 0.93034 0.68813 0.0
H418 H 0.20358 1.01332 0.67173 0.0
C419 C 0.08946 0.99383 0.62677 0.0
C420 C 0.10218 1.01355 0.60516 0.0
C421 C 0.10856 0.98164 0.64653 0.0
C422 C 0.19308 0.99007 0.67586 0.0
H423 H 0.22154 0.87621 0.76313 0.0
H424 H 0.19024 0.90767 0.74445 0.0
H425 H 0.23726 0.98843 0.70006 0.0
H426 H 0.14499 0.03601 0.58742 0.0
H427 H 0.17796 1.0141 0.62103 0.0
H428 H 0.12355 0.93134 0.66283 0.0
C429 C 0.21161 0.90996 0.73562 0.0
C430 C 0.21238 0.9759 0.69228 0.0
C431 C 0.2295 0.89219 0.74647 0.0
C432 C 0.13446 1.02101 0.60392 0.0
C433 C 0.15346 1.00858 0.62342 0.0
C434 C 0.14812 0.94438 0.67143 0.0
C435 C 0.22069 0.92978 0.71282 0.0
C436 C 0.19979 0.94579 0.69826 0.0
C437 C 0.14077 0.98861 0.64492 0.0
C438 C 0.16079 0.97434 0.66468 0.0
H439 H 0.28705 0.91571 0.70315 0.0
H440 H 0.25621 0.94729 0.68439 0.0
H441 H 0.15707 0.90697 0.69199 0.0
H442 H 0.06473 0.98782 0.62849 0.0
H443 H 0.09802 0.96676 0.6631 0.0
C444 C 0.68895 0.35669 0.91541 0.0
C445 C 0.69044 0.35012 0.88493 0.0
C446 C 0.71657 0.36677 0.93763 0.0
C447 C 0.80325 0.378 0.95117 0.0
H448 H 0.80901 0.44411 1.00588 0.0
C449 C 0.92034 0.46941 1.00436 0.0
C450 C 0.92552 0.47683 0.036 0.0
C451 C 0.89104 0.45004 0.98931 0.0
C452 C 0.80759 0.42541 0.99105 0.0
H453 H 0.72118 0.34726 0.85387 0.0
H454 H 0.76965 0.36601 0.89204 0.0
H455 H 0.75849 0.41613 0.97358 0.0
H456 H 0.90423 0.47021 0.07674 0.0
H457 H 0.85236 0.43683 0.05004 0.0
H458 H 0.85299 0.38871 0.96752 0.0
C459 C 0.74733 0.36287 0.8993 0.0
C460 C 0.7786 0.40921 0.97261 0.0
C461 C 0.71967 0.35242 0.87727 0.0
C462 C 0.90081 0.46473 0.05233 0.0
C463 C 0.87122 0.44574 0.03711 0.0
C464 C 0.83232 0.39453 0.96925 0.0
C465 C 0.74627 0.37087 0.92965 0.0
C466 C 0.77616 0.38564 0.95196 0.0
C467 C 0.86618 0.43813 1.0055 0.0
C468 C 0.83484 0.41869 0.98893 0.0
H469 H 0.66661 0.35526 0.92172 0.0
H470 H 0.7147 0.37212 0.96086 0.0
H471 H 0.8022 0.3596 0.93613 0.0
H472 H 0.939 0.47846 0.99122 0.0
H473 H 0.8876 0.4448 0.96485 0.0
C474 C 0.77468 0.67598 0.38135 0.0
C475 C 0.79773 0.66283 0.37998 0.0
C476 C 0.75001 0.66325 0.39733 0.0
C477 C 0.70259 0.59465 0.42666 0.0
H478 H 0.69148 0.64801 0.48654 0.0
C479 C 0.60866 0.55308 0.50544 0.0
C480 C 0.59316 0.57261 0.51236 0.0
C481 C 0.63476 0.56291 0.4905 0.0
C482 C 0.69379 0.63279 0.46963 0.0
H483 H 0.8123 0.62536 0.39309 0.0
H484 H 0.76826 0.60229 0.42033 0.0
H485 H 0.73322 0.66657 0.45655 0.0
H486 H 0.59288 0.61773 0.50861 0.0
H487 H 0.63724 0.63447 0.48195 0.0
H488 H 0.66243 0.56109 0.43883 0.0
C489 C 0.76962 0.62271 0.40927 0.0
C490 C 0.71792 0.64347 0.45254 0.0
C491 C 0.79469 0.63579 0.39363 0.0
C492 C 0.60445 0.60214 0.50407 0.0
C493 C 0.63017 0.61183 0.48883 0.0
C494 C 0.67802 0.58402 0.44343 0.0
C495 C 0.74746 0.63672 0.41188 0.0
C496 C 0.72243 0.62463 0.43068 0.0
C497 C 0.6458 0.59242 0.48178 0.0
C498 C 0.67303 0.60304 0.46497 0.0
H499 H 0.77622 0.69655 0.37056 0.0
H500 H 0.73301 0.6743 0.39854 0.0
H501 H 0.70548 0.57965 0.40987 0.0
H502 H 0.60059 0.53017 0.51149 0.0
H503 H 0.64633 0.54735 0.48593 0.0
C504 C 0.38176 0.46539 0.27294 0.0
C505 C 0.38752 0.44076 0.26127 0.0
C506 C 0.36258 0.47844 0.25449 0.0
C507 C 0.29604 0.4529 0.19005 0.0
H508 H 0.2942 0.53292 0.19967 0.0
C509 C 0.20779 0.52274 0.14512 0.0
C510 C 0.17927 0.50179 0.15044 0.0
C511 C 0.23664 0.51837 0.15504 0.0
C512 C 0.29461 0.51059 0.19641 0.0
H513 H 0.38034 0.41228 0.22051 0.0
H514 H 0.34893 0.43623 0.18779 0.0
H515 H 0.34192 0.52228 0.2219 0.0
H516 H 0.15889 0.46037 0.17122 0.0
H517 H 0.20887 0.45268 0.18818 0.0
H518 H 0.24883 0.44103 0.16498 0.0
C519 C 0.35815 0.44488 0.21144 0.0
C520 C 0.32181 0.50444 0.20934 0.0
C521 C 0.37672 0.43151 0.23002 0.0
C522 C 0.18027 0.47656 0.16603 0.0
C523 C 0.20896 0.47217 0.17582 0.0
C524 C 0.26904 0.45903 0.17719 0.0
C525 C 0.34923 0.46726 0.22392 0.0
C526 C 0.32258 0.47535 0.20681 0.0
C527 C 0.23744 0.49292 0.17033 0.0
C528 C 0.26767 0.48771 0.1809 0.0
H529 H 0.39009 0.47297 0.29694 0.0
H530 H 0.35625 0.49564 0.26491 0.0
H531 H 0.29543 0.43012 0.18801 0.0
H532 H 0.20779 0.54232 0.13298 0.0
H533 H 0.25822 0.53465 0.15037 0.0
C534 C 0.60219 0.30201 0.90058 0.0
C535 C 0.62656 0.30312 0.88465 0.0
C536 C 0.59417 0.28112 0.92236 0.0
C537 C 0.62409 0.23059 0.97151 0.0
H538 H 0.53506 0.19048 0.97308 0.0
C539 C 0.57805 0.12751 0.04095 0.0
C540 C 0.5531 0.12623 0.05618 0.0
C541 C 0.58809 0.14986 1.02096 0.0
C542 C 0.56003 0.20172 0.9732 0.0
H543 H 0.66209 0.28397 0.87902 0.0
H544 H 0.64802 0.247 0.91699 0.0
H545 H 0.55059 0.22794 0.9364 0.0
H546 H 0.51958 0.1476 0.06326 0.0
H547 H 0.53716 0.18675 0.0285 0.0
H548 H 0.63341 0.20406 1.0082 0.0
C549 C 0.63523 0.26242 0.91296 0.0
C550 C 0.56895 0.22322 0.95217 0.0
C551 C 0.64324 0.28341 0.89119 0.0
C552 C 0.53877 0.148 0.05163 0.0
C553 C 0.54871 0.17028 0.03159 0.0
C554 C 0.61514 0.20899 0.99252 0.0
C555 C 0.61041 0.26088 0.92864 0.0
C556 C 0.60109 0.23798 0.9511 0.0
C557 C 0.5733 0.17132 1.01582 0.0
C558 C 0.583 0.19436 0.99363 0.0
H559 H 0.58951 0.31749 0.89625 0.0
H560 H 0.57539 0.28097 0.93445 0.0
H561 H 0.64905 0.2418 0.97157 0.0
H562 H 0.58971 0.11117 0.04436 0.0
H563 H 0.60697 0.14993 1.00903 0.0
C564 C 0.88284 0.7674 0.34928 0.0
C565 C 0.89166 0.74255 0.35685 0.0
C566 C 0.90194 0.79595 0.36192 0.0
C567 C 0.96248 0.83071 0.43148 0.0
H568 H 0.95982 0.90408 0.39646 0.0
C569 C 0.03272 0.94782 0.49316 0.0
C570 C 1.01668 0.96835 0.49261 0.0
C571 C 0.01897 0.92053 0.47573 0.0
C572 C 0.96059 0.88375 0.40664 0.0
H573 H 0.9285 0.72823 0.38141 0.0
H574 H 0.96311 0.77833 0.40224 0.0
H575 H 0.93674 0.85729 0.36476 0.0
H576 H 0.97336 0.9761 0.4736 0.0
H577 H 0.94941 0.92845 0.44277 0.0
H578 H 0.98673 0.85742 0.47325 0.0
C579 C 0.94087 0.77581 0.38733 0.0
C580 C 0.94735 0.85682 0.38844 0.0
C581 C 0.9215 0.74715 0.37481 0.0
C582 C 0.98629 0.96074 0.47456 0.0
C583 C 0.9727 0.93356 0.45672 0.0
C584 C 0.97607 0.85769 0.44952 0.0
C585 C 0.9306 0.80044 0.38237 0.0
C586 C 0.94768 0.82974 0.40066 0.0
C587 C 0.98898 0.91319 0.45693 0.0
C588 C 0.97498 0.88452 0.43747 0.0
H589 H 0.85958 0.76422 0.33606 0.0
H590 H 0.89283 0.81399 0.35753 0.0
H591 H 0.96271 0.81048 0.44216 0.0
H592 H 0.05617 0.95303 0.50683 0.0
H593 H 0.03224 0.90547 0.47635 0.0
C594 C 0.296 0.78577 0.73252 0.0
C595 C 0.30093 0.81418 0.72169 0.0
C596 C 0.3095 0.76674 0.72081 0.0
C597 C 0.34658 0.75476 0.65577 0.0
H598 H 0.38881 0.71449 0.71437 0.0
C599 C 0.43981 0.70798 0.62641 0.0
C600 C 0.43936 0.6802 0.63694 0.0
C601 C 0.42033 0.72205 0.63594 0.0
C602 C 0.37674 0.72523 0.69765 0.0
H603 H 0.32345 0.84516 0.69032 0.0
H604 H 0.34708 0.81207 0.66965 0.0
H605 H 0.35851 0.74274 0.73195 0.0
H606 H 0.4182 0.64547 0.66588 0.0
H607 H 0.3839 0.67003 0.68242 0.0
H608 H 0.36534 0.73773 0.62159 0.0
C609 C 0.33241 0.80414 0.68678 0.0
C610 C 0.35934 0.74138 0.70771 0.0
C611 C 0.31894 0.8231 0.69854 0.0
C612 C 0.41894 0.66678 0.65723 0.0
C613 C 0.3995 0.68095 0.66688 0.0
C614 C 0.36401 0.73866 0.64574 0.0
C615 C 0.32816 0.77586 0.69803 0.0
C616 C 0.34443 0.75669 0.68695 0.0
C617 C 0.39995 0.70871 0.65627 0.0
C618 C 0.37967 0.72408 0.66664 0.0
H619 H 0.28211 0.7786 0.75039 0.0
H620 H 0.3055 0.74498 0.72971 0.0
H621 H 0.33492 0.76586 0.63911 0.0
H622 H 0.45499 0.71873 0.61046 0.0
H623 H 0.42153 0.74359 0.62765 0.0
C624 C 0.72101 0.78275 0.77341 0.0
C625 C 0.69252 0.76957 0.75275 0.0
C626 C 0.74924 0.79576 0.76255 0.0
C627 C 0.78611 0.80044 0.69327 0.0
H628 H 0.83892 0.87879 0.73038 0.0
C629 C 0.87427 0.88695 0.63238 0.0
C630 C 0.90222 0.90677 0.65005 0.0
C631 C 0.85202 0.86614 0.64643 0.0
C632 C 0.82486 0.85669 0.72011 0.0
H633 H 0.67062 0.75911 0.70504 0.0
H634 H 0.71991 0.78226 0.68567 0.0
H635 H 0.79351 0.85001 0.75227 0.0
H636 H 0.92974 0.91889 0.69608 0.0
H637 H 0.8909 0.88242 0.72065 0.0
H638 H 0.8171 0.80759 0.66056 0.0
C639 C 0.72075 0.78212 0.71024 0.0
C640 C 0.79875 0.84017 0.73266 0.0
C641 C 0.69256 0.76909 0.72117 0.0
C642 C 0.90819 0.90423 0.68191 0.0
C643 C 0.88594 0.88339 0.69597 0.0
C644 C 0.81227 0.81698 0.68069 0.0
C645 C 0.74937 0.79594 0.73081 0.0
C646 C 0.77875 0.81208 0.71909 0.0
C647 C 0.85722 0.86465 0.67848 0.0
C648 C 0.83162 0.84552 0.69367 0.0
H649 H 0.72123 0.78351 0.79788 0.0
H650 H 0.77091 0.80596 0.779 0.0
H651 H 0.77144 0.77867 0.68257 0.0
H652 H 0.86874 0.88857 0.60784 0.0
H653 H 0.82999 0.85231 0.6323 0.0
C654 C 0.79609 0.24928 0.33668 0.0
C655 C 0.7889 0.2394 0.36509 0.0
C656 C 0.78261 0.23034 0.31006 0.0
C657 C 0.73196 0.15193 0.28146 0.0
H658 H 0.69985 0.19143 0.21427 0.0
C659 C 0.62035 0.0938 0.19061 0.0
C660 C 0.62217 0.09928 0.15974 0.0
C661 C 0.64535 0.10944 0.21401 0.0
C662 C 0.70902 0.18013 0.23265 0.0
H663 H 0.76365 0.20217 0.38879 0.0
H664 H 0.73929 0.1691 0.3425 0.0
H665 H 0.73705 0.22108 0.25824 0.0
H666 H 0.65157 0.12548 0.12918 0.0
H667 H 0.69498 0.15335 0.17028 0.0
H668 H 0.70215 0.1109 0.2563 0.0
C669 C 0.75586 0.19104 0.3404 0.0
C670 C 0.73055 0.1971 0.25784 0.0
C671 C 0.76971 0.20989 0.36698 0.0
C672 C 0.6495 0.12073 0.15275 0.0
C673 C 0.6743 0.13671 0.17621 0.0
C674 C 0.71003 0.13497 0.25643 0.0
C675 C 0.76123 0.20136 0.31142 0.0
C676 C 0.74187 0.18325 0.28289 0.0
C677 C 0.67245 0.13117 0.20704 0.0
C678 C 0.69797 0.14893 0.23207 0.0
H679 H 0.81082 0.27212 0.33501 0.0
H680 H 0.7879 0.23885 0.28829 0.0
H681 H 0.74059 0.14047 0.29998 0.0
H682 H 0.59968 0.07731 0.19673 0.0
H683 H 0.6432 0.10501 0.23763 0.0
C684 C 0.39695 0.73529 0.34016 0.0
C685 C 0.40536 0.7354 0.31117 0.0
C686 C 0.40809 0.71971 0.36326 0.0
C687 C 0.46455 0.6795 0.38574 0.0
H688 H 0.39748 0.62991 0.42539 0.0
C689 C 0.48731 0.60321 0.48038 0.0
C690 C 0.46493 0.57439 0.47908 0.0
C691 C 0.48107 0.62452 0.46148 0.0
C692 C 0.41642 0.64348 0.41442 0.0
H693 H 0.43299 0.72086 0.28367 0.0
H694 H 0.45291 0.69363 0.32407 0.0
H695 H 0.38722 0.66598 0.39042 0.0
H696 H 0.41827 0.54536 0.45732 0.0
H697 H 0.40729 0.58267 0.42397 0.0
H698 H 0.49347 0.65631 0.40911 0.0
C699 C 0.43802 0.70583 0.32925 0.0
C700 C 0.41071 0.6645 0.3947 0.0
C701 C 0.42688 0.72154 0.30618 0.0
C702 C 0.4359 0.56742 0.45883 0.0
C703 C 0.42961 0.58883 0.43985 0.0
C704 C 0.4703 0.65851 0.40555 0.0
C705 C 0.42767 0.70372 0.35764 0.0
C706 C 0.43466 0.68271 0.38002 0.0
C707 C 0.45228 0.61756 0.44077 0.0
C708 C 0.44625 0.64014 0.42001 0.0
H709 H 0.38001 0.74559 0.34416 0.0
H710 H 0.40016 0.71904 0.38503 0.0
H711 H 0.48352 0.6932 0.37489 0.0
H712 H 0.50992 0.60929 0.4958 0.0
H713 H 0.49882 0.64653 0.46317 0.0
C714 C 0.11947 0.42819 0.79461 0.0
C715 C 0.14987 0.42613 0.80022 0.0
C716 C 0.10814 0.43961 0.81765 0.0
C717 C 0.11997 0.45392 0.90227 0.0
H718 H 0.0713 0.50572 0.88054 0.0
C719 C 0.07658 0.51129 0.99415 0.0
C720 C 0.04663 0.5142 0.9859 0.0
C721 C 0.09044 0.50119 0.97222 0.0
C722 C 0.08447 0.49097 0.88708 0.0
H723 H 0.1922 0.43425 0.83434 0.0
H724 H 0.17257 0.45436 0.87478 0.0
H725 H 0.09264 0.48693 0.84128 0.0
H726 H 1.00767 0.50814 0.94794 0.0
H727 H 0.03127 0.4902 0.91031 0.0
H728 H 0.11144 0.45767 0.94804 0.0
C729 C 0.15734 0.447 0.8526 0.0
C730 C 0.09681 0.4802 0.86444 0.0
C731 C 0.16873 0.43573 0.82943 0.0
C732 C 0.03087 0.50649 0.95524 0.0
C733 C 0.04459 0.49633 0.93346 0.0
C734 C 0.10747 0.46459 0.92494 0.0
C735 C 0.12686 0.44917 0.84704 0.0
C736 C 0.11455 0.46133 0.8716 0.0
C737 C 0.07469 0.49367 0.94145 0.0
C738 C 0.08926 0.4831 0.91766 0.0
H739 H 0.10455 0.42107 0.77225 0.0
H740 H 0.08446 0.44057 0.81252 0.0
H741 H 0.13324 0.43921 0.90865 0.0
H742 H 0.08948 0.51705 1.01749 0.0
H743 H 0.11375 0.49975 0.97933 0.0
C744 C 0.57703 0.77945 0.77309 0.0
C745 C 0.59878 0.76937 0.79212 0.0
C746 C 0.5617 0.79636 0.78576 0.0
C747 C 0.54423 0.81861 0.85904 0.0
H748 H 0.56673 0.89833 0.83058 0.0
C749 C 0.57996 0.92137 0.94016 0.0
C750 C 0.57159 0.94615 0.93118 0.0
C751 C 0.57228 0.89669 0.91965 0.0
C752 C 0.55945 0.87602 0.83839 0.0
H753 H 0.62128 0.76877 0.83911 0.0
H754 H 0.59363 0.79669 0.86124 0.0
H755 H 0.57107 0.85802 0.79946 0.0
H756 H 0.54807 0.9644 0.89387 0.0
H757 H 0.5349 0.92105 0.85756 0.0
H758 H 0.53444 0.83688 0.89882 0.0
C759 C 0.58805 0.79143 0.83665 0.0
C760 C 0.56187 0.85292 0.82053 0.0
C761 C 0.60377 0.77522 0.824 0.0
C762 C 0.5548 0.94554 0.90134 0.0
C763 C 0.54735 0.92084 0.88061 0.0
C764 C 0.54174 0.84161 0.87683 0.0
C765 C 0.56748 0.80283 0.81767 0.0
C766 C 0.55584 0.82439 0.83149 0.0
C767 C 0.55611 0.8962 0.88958 0.0
C768 C 0.55093 0.87085 0.86743 0.0
H769 H 0.5729 0.77521 0.74843 0.0
H770 H 0.54604 0.80505 0.77066 0.0
H771 H 0.53907 0.79669 0.8678 0.0
H772 H 0.59249 0.92104 0.96314 0.0
H773 H 0.57986 0.87829 0.92712 0.0
C774 C 0.85676 0.243 0.40925 0.0
C775 C 0.83151 0.23982 0.42459 0.0
C776 C 0.87543 0.22504 0.4155 0.0
C777 C 0.89435 0.17466 0.47384 0.0
H778 H 0.93158 0.15037 0.4103 0.0
C779 C 0.94864 0.08257 0.48876 0.0
C780 C 0.98058 0.09094 0.4856 0.0
C781 C 0.93082 0.10052 0.47891 0.0
C782 C 0.92144 0.15719 0.42824 0.0
H783 H 0.80471 0.21488 0.45728 0.0
H784 H 0.83629 0.18252 0.46758 0.0
H785 H 0.89893 0.18161 0.39802 0.0
H786 H 0.01824 0.12401 0.46797 0.0
H787 H 0.98649 0.15513 0.44989 0.0
H788 H 0.91596 0.14924 0.50366 0.0
C789 C 0.84281 0.19962 0.45163 0.0
C790 C 0.90285 0.1752 0.42133 0.0
C791 C 0.82456 0.21796 0.44571 0.0
C792 C 0.99373 0.11693 0.47075 0.0
C793 C 0.97562 0.13473 0.46041 0.0
C794 C 0.91239 0.15627 0.48054 0.0
C795 C 0.86879 0.20309 0.43688 0.0
C796 C 0.88892 0.18412 0.44404 0.0
C797 C 0.94428 0.12704 0.46521 0.0
C798 C 0.926 0.14727 0.45781 0.0
H799 H 0.86232 0.25981 0.39282 0.0
H800 H 0.89538 0.22877 0.40396 0.0
H801 H 0.88488 0.18162 0.49221 0.0
H802 H 0.93761 0.0627 0.50001 0.0
H803 H 0.9066 0.09397 0.48257 0.0
C804 C 0.3164 0.72124 0.19549 0.0
C805 C 0.31647 0.72693 0.22661 0.0
C806 C 0.28789 0.70958 0.17478 0.0
C807 C 0.20239 0.69865 0.16586 0.0
H808 H 0.19364 0.63819 0.10276 0.0
C809 C 0.08261 0.61888 0.10349 0.0
C810 C 0.07794 0.61456 0.07141 0.0
C811 C 0.11235 0.63508 0.12022 0.0
C812 C 0.19594 0.65537 0.11999 0.0
H813 H 0.28736 0.72479 0.2608 0.0
H814 H 0.2372 0.70336 0.22492 0.0
H815 H 0.24448 0.66118 0.13698 0.0
H816 H 0.10053 0.62356 0.03156 0.0
H817 H 0.15323 0.65179 0.06119 0.0
H818 H 0.15344 0.69187 0.14953 0.0
C819 C 0.25909 0.70861 0.21621 0.0
C820 C 0.22502 0.66857 0.13959 0.0
C821 C 0.28766 0.72053 0.23684 0.0
C822 C 0.10358 0.62676 0.05627 0.0
C823 C 0.13361 0.64272 0.07316 0.0
C824 C 0.17329 0.68523 0.14649 0.0
C825 C 0.25887 0.70306 0.18489 0.0
C826 C 0.22847 0.69011 0.16301 0.0
C827 C 0.13815 0.64705 0.10528 0.0
C828 C 0.16972 0.66323 0.12365 0.0
H829 H 0.33846 0.72568 0.18729 0.0
H830 H 0.28863 0.70588 0.15082 0.0
H831 H 0.20439 0.71562 0.18318 0.0
H832 H 0.06324 0.60964 0.11575 0.0
H833 H 0.11532 0.63775 0.14498 0.0
C834 C 0.24659 0.42491 0.737 0.0
C835 C 0.21453 0.41605 0.72323 0.0
C836 C 0.27036 0.43457 0.71927 0.0
C837 C 0.28567 0.43506 0.63911 0.0
H838 H 0.3601 0.50252 0.67311 0.0
C839 C 0.39766 0.47461 0.58265 0.0
C840 C 0.41483 0.50534 0.58402 0.0
C841 C 0.37219 0.4636 0.59821 0.0
C842 C 0.33938 0.48385 0.66305 0.0
H843 H 0.18207 0.40964 0.68013 0.0
H844 H 0.22349 0.42651 0.64887 0.0
H845 H 0.31808 0.48315 0.70266 0.0
H846 H 0.41775 0.54856 0.60237 0.0
H847 H 0.37322 0.52948 0.62905 0.0
H848 H 0.30681 0.43618 0.59922 0.0
C849 C 0.23042 0.4258 0.67338 0.0
C850 C 0.31539 0.47241 0.68026 0.0
C851 C 0.20664 0.41611 0.6912 0.0
C852 C 0.40527 0.52479 0.6008 0.0
C853 C 0.37979 0.51377 0.61636 0.0
C854 C 0.30973 0.4465 0.62189 0.0
C855 C 0.26267 0.43565 0.68723 0.0
C856 C 0.2882 0.44777 0.66863 0.0
C857 C 0.36309 0.48297 0.61563 0.0
C858 C 0.33699 0.47105 0.63362 0.0
H859 H 0.2532 0.42472 0.76162 0.0
H860 H 0.29482 0.44131 0.73075 0.0
H861 H 0.26526 0.41595 0.62941 0.0
H862 H 0.40429 0.45886 0.57009 0.0
H863 H 0.36024 0.43974 0.59731 0.0
C864 C 0.6883 0.72664 0.82864 0.0
C865 C 0.67804 0.72215 0.79675 0.0
C866 C 0.71178 0.71618 0.84298 0.0
C867 C 0.75251 0.66301 0.83319 0.0
H868 H 0.81621 0.71406 0.89851 0.0
C869 C 0.86036 0.63361 0.89153 0.0
C870 C 0.86795 0.63775 0.92374 0.0
C871 C 0.83823 0.64465 0.87506 0.0
C872 C 0.79845 0.69946 0.8805 0.0
H873 H 0.68431 0.70379 0.75462 0.0
H874 H 0.72592 0.68534 0.77969 0.0
H875 H 0.7754 0.73147 0.87102 0.0
H876 H 0.85866 0.65717 0.96387 0.0
H877 H 0.81968 0.67625 0.93508 0.0
H878 H 0.77558 0.63097 0.84279 0.0
C879 C 0.71531 0.69649 0.79368 0.0
C880 C 0.77506 0.70941 0.86475 0.0
C881 C 0.69165 0.70698 0.77932 0.0
C882 C 0.85316 0.65348 0.93909 0.0
C883 C 0.83107 0.66463 0.92258 0.0
C884 C 0.77597 0.65308 0.84892 0.0
C885 C 0.72583 0.70126 0.82567 0.0
C886 C 0.7516 0.69116 0.84116 0.0
C887 C 0.82321 0.66013 0.8904 0.0
C888 C 0.799 0.67109 0.87295 0.0
H889 H 0.67882 0.73913 0.84236 0.0
H890 H 0.71907 0.71994 0.86766 0.0
H891 H 0.73459 0.64833 0.81535 0.0
H892 H 0.87103 0.62124 0.87904 0.0
H893 H 0.83289 0.64108 0.85027 0.0
C894 C 0.43422 0.81518 0.28214 0.0
C895 C 0.42728 0.7863 0.26925 0.0
C896 C 0.45674 0.83937 0.27194 0.0
C897 C 0.47817 0.85705 0.19834 0.0
H898 H 0.53562 0.9327 0.2383 0.0
C899 C 0.5076 0.96451 0.13488 0.0
C900 C 0.53995 0.97993 0.13587 0.0
C901 C 0.49779 0.94181 0.15453 0.0
C902 C 0.51972 0.91161 0.22692 0.0
H903 H 0.44047 0.7593 0.2386 0.0
H904 H 0.48043 0.8013 0.22117 0.0
H905 H 0.51572 0.89024 0.26935 0.0
H906 H 0.58737 0.98479 0.15904 0.0
H907 H 0.57008 0.94537 0.1939 0.0
H908 H 0.4811 0.87844 0.15615 0.0
C909 C 0.46837 0.80547 0.23886 0.0
C910 C 0.50839 0.88741 0.24463 0.0
C911 C 0.44594 0.78141 0.24913 0.0
C912 C 0.56227 0.97308 0.15769 0.0
C913 C 0.55242 0.95069 0.17771 0.0
C914 C 0.489 0.88125 0.18081 0.0
C915 C 0.47241 0.8348 0.24863 0.0
C916 C 0.48744 0.85989 0.23046 0.0
C917 C 0.52012 0.93446 0.17588 0.0
C918 C 0.50964 0.90882 0.19489 0.0
H919 H 0.41954 0.81935 0.29721 0.0
H920 H 0.45929 0.8617 0.27984 0.0
H921 H 0.46156 0.83633 0.18679 0.0
H922 H 0.48991 0.96945 0.11837 0.0
H923 H 0.47271 0.92977 0.15286 0.0
C924 C 0.178 0.34323 0.71746 0.0
C925 C 0.15709 0.35913 0.7172 0.0
C926 C 0.16878 0.31623 0.6996 0.0
C927 C 0.09579 0.25512 0.66434 0.0
H928 H 0.15043 0.22954 0.62103 0.0
C929 C 0.04531 0.14817 0.58491 0.0
C930 C 0.06306 0.12918 0.58523 0.0
C931 C 0.05878 0.17681 0.59943 0.0
C932 C 0.13495 0.2362 0.63327 0.0
H933 H 0.11121 0.36051 0.69678 0.0
H934 H 0.09503 0.31367 0.6655 0.0
H935 H 0.17055 0.27874 0.64881 0.0
H936 H 0.10936 0.12579 0.60014 0.0
H937 H 0.13298 0.17592 0.62614 0.0
H938 H 0.06038 0.2128 0.64944 0.0
C939 C 0.11826 0.32149 0.67992 0.0
C940 C 0.1465 0.26445 0.64917 0.0
C941 C 0.12751 0.34837 0.69767 0.0
C942 C 0.09506 0.13991 0.59957 0.0
C943 C 0.1086 0.16869 0.61437 0.0
C944 C 0.08436 0.227 0.64865 0.0
C945 C 0.13842 0.30461 0.68119 0.0
C946 C 0.1269 0.27442 0.66462 0.0
C947 C 0.09041 0.18733 0.615 0.0
C948 C 0.10356 0.21718 0.63254 0.0
H949 H 0.20088 0.35107 0.73248 0.0
H950 H 0.18489 0.30385 0.70124 0.0
H951 H 0.08024 0.26162 0.67663 0.0
H952 H 0.02072 0.14076 0.57368 0.0
H953 H 0.0442 0.19068 0.5986 0.0
C954 C 0.75608 0.29912 0.46043 0.0
C955 C 0.77386 0.30948 0.43733 0.0
C956 C 0.7376 0.31463 0.46958 0.0
C957 C 0.69503 0.36335 0.43775 0.0
H958 H 0.68387 0.37414 0.52135 0.0
C959 C 0.61241 0.42422 0.46588 0.0
C960 C 0.59385 0.41264 0.48816 0.0
C961 C 0.63664 0.41377 0.4615 0.0
C962 C 0.68646 0.37102 0.49784 0.0
H963 H 0.78788 0.34468 0.40685 0.0
H964 H 0.75562 0.372 0.42276 0.0
H965 H 0.72323 0.35269 0.51142 0.0
H966 H 0.58606 0.38102 0.5233 0.0
H967 H 0.62787 0.36226 0.51525 0.0
H968 H 0.65781 0.38074 0.4239 0.0
C969 C 0.75562 0.35177 0.4336 0.0
C970 C 0.70911 0.35884 0.4922 0.0
C971 C 0.77418 0.33633 0.42463 0.0
C972 C 0.60018 0.39055 0.50614 0.0
C973 C 0.62425 0.3799 0.50159 0.0
C974 C 0.67228 0.37529 0.44334 0.0
C975 C 0.73647 0.34066 0.45559 0.0
C976 C 0.71359 0.35484 0.46207 0.0
C977 C 0.64271 0.39128 0.47911 0.0
C978 C 0.66761 0.37923 0.47343 0.0
H979 H 0.75516 0.2782 0.47017 0.0
H980 H 0.72291 0.30538 0.48639 0.0
H981 H 0.69746 0.36 0.41422 0.0
H982 H 0.60842 0.44162 0.45203 0.0
H983 H 0.65074 0.4235 0.4444 0.0
loop_
_geom_bond_atom_site_label_1
_geom_bond_atom_site_label_2
_geom_bond_distance
_geom_bond_site_symmetry_2
_ccdc_geom_bond_type
C0 N1 1.317 . S
C0 N2 1.348 . S
C0 C3 1.485 . S
N1 C0 1.317 . S
N1 N5 1.370 . S
N2 C0 1.348 . S
N2 C4 1.346 . S
C3 C0 1.485 . S
C3 H7 0.960 . S
C3 H8 0.961 . S
C3 H9 0.960 . S
C4 N2 1.346 . S
C4 N5 1.307 . S
C4 C6 1.486 . S
N5 N1 1.370 . S
N5 C4 1.307 . S
C6 C4 1.486 . S
C6 H10 0.960 . S
C6 H11 0.960 . S
C6 H12 0.959 . S
H7 C3 0.960 . S
H8 C3 0.961 . S
H9 C3 0.960 . S
H10 C6 0.960 . S
H11 C6 0.960 . S
H12 C6 0.959 . S
C13 N14 1.317 . S
C13 N15 1.348 . S
C13 C16 1.485 . S
N14 C13 1.317 . S
N14 N18 1.370 . S
N15 C13 1.348 . S
N15 C17 1.346 . S
C16 C13 1.485 . S
C16 H20 0.960 . S
C16 H21 0.961 . S
C16 H22 0.960 . S
C17 N15 1.346 . S
C17 N18 1.307 . S
C17 C19 1.486 . S
N18 N14 1.370 . S
N18 C17 1.307 . S
C19 C17 1.486 . S
C19 H23 0.960 . S
C19 H24 0.960 . S
C19 H25 0.959 . S
H20 C16 0.960 . S
H21 C16 0.961 . S
H22 C16 0.960 . S
H23 C19 0.960 . S
H24 C19 0.960 . S
H25 C19 0.959 . S
C26 N27 1.317 . S
C26 N28 1.348 . S
C26 C29 1.485 . S
N27 C26 1.317 . S
N27 N31 1.370 . S
N28 C26 1.348 . S
N28 C30 1.346 . S
C29 C26 1.485 . S
C29 H33 0.960 . S
C29 H34 0.961 . S
C29 H35 0.960 . S
C30 N28 1.346 . S
C30 N31 1.307 . S
C30 C32 1.486 . S
N31 N27 1.370 . S
N31 C30 1.307 . S
C32 C30 1.486 . S
C32 H36 0.960 . S
C32 H37 0.960 . S
C32 H38 0.959 . S
H33 C29 0.960 . S
H34 C29 0.961 . S
H35 C29 0.960 . S
H36 C32 0.960 . S
H37 C32 0.960 . S
H38 C32 0.959 . S
C39 N40 1.317 . S
C39 N41 1.348 . S
C39 C42 1.485 . S
N40 C39 1.317 . S
N40 N44 1.370 . S
N41 C39 1.348 . S
N41 C43 1.346 . S
C42 C39 1.485 . S
C42 H46 0.960 . S
C42 H47 0.961 . S
C42 H48 0.960 . S
C43 N41 1.346 . S
C43 N44 1.307 . S
C43 C45 1.486 . S
N44 N40 1.370 . S
N44 C43 1.307 . S
C45 C43 1.486 . S
C45 H49 0.960 . S
C45 H50 0.960 . S
C45 H51 0.959 . S
H46 C42 0.960 . S
H47 C42 0.961 . S
H48 C42 0.960 . S
H49 C45 0.960 . S
H50 C45 0.960 . S
H51 C45 0.959 . S
C52 N53 1.317 . S
C52 N54 1.348 . S
C52 C55 1.485 . S
N53 C52 1.317 . S
N53 N57 1.370 . S
N54 C52 1.348 . S
N54 C56 1.346 . S
C55 C52 1.485 . S
C55 H59 0.960 . S
C55 H60 0.961 . S
C55 H61 0.960 . S
C56 N54 1.346 . S
C56 N57 1.307 . S
C56 C58 1.486 . S
N57 N53 1.370 . S
N57 C56 1.307 . S
C58 C56 1.486 . S
C58 H62 0.960 . S
C58 H63 0.960 . S
C58 H64 0.959 . S
H59 C55 0.960 . S
H60 C55 0.961 . S
H61 C55 0.960 . S
H62 C58 0.960 . S
H63 C58 0.960 . S
H64 C58 0.959 . S
C65 N66 1.317 . S
C65 N67 1.348 . S
C65 C68 1.485 . S
N66 C65 1.317 . S
N66 N70 1.370 . S
N67 C65 1.348 . S
N67 C69 1.346 . S
C68 C65 1.485 . S
C68 H72 0.960 . S
C68 H73 0.961 . S
C68 H74 0.960 . S
C69 N67 1.346 . S
C69 N70 1.307 . S
C69 C71 1.486 . S
N70 N66 1.370 . S
N70 C69 1.307 . S
C71 C69 1.486 . S
C71 H75 0.960 . S
C71 H76 0.960 . S
C71 H77 0.959 . S
H72 C68 0.960 . S
H73 C68 0.961 . S
H74 C68 0.960 . S
H75 C71 0.960 . S
H76 C71 0.960 . S
H77 C71 0.959 . S
C78 N79 1.317 . S
C78 N80 1.348 . S
C78 C81 1.485 . S
N79 C78 1.317 . S
N79 N83 1.370 . S
N80 C78 1.348 . S
N80 C82 1.346 . S
C81 C78 1.485 . S
C81 H85 0.960 . S
C81 H86 0.961 . S
C81 H87 0.960 . S
C82 N80 1.346 . S
C82 N83 1.307 . S
C82 C84 1.486 . S
N83 N79 1.370 . S
N83 C82 1.307 . S
C84 C82 1.486 . S
C84 H88 0.960 . S
C84 H89 0.960 . S
C84 H90 0.959 . S
H85 C81 0.960 . S
H86 C81 0.961 . S
H87 C81 0.960 . S
H88 C84 0.960 . S
H89 C84 0.960 . S
H90 C84 0.959 . S
C91 N92 1.317 . S
C91 N93 1.348 . S
C91 C94 1.485 . S
N92 C91 1.317 . S
N92 N96 1.370 . S
N93 C91 1.348 . S
N93 C95 1.346 . S
C94 C91 1.485 . S
C94 H98 0.960 . S
C94 H99 0.961 . S
C94 H100 0.960 . S
C95 N93 1.346 . S
C95 N96 1.307 . S
C95 C97 1.486 . S
N96 N92 1.370 . S
N96 C95 1.307 . S
C97 C95 1.486 . S
C97 H101 0.960 . S
C97 H102 0.960 . S
C97 H103 0.959 . S
H98 C94 0.960 . S
H99 C94 0.961 . S
H100 C94 0.960 . S
H101 C97 0.960 . S
H102 C97 0.960 . S
H103 C97 0.959 . S
Pr104 C106 2.880 1_445 S
Pr104 O124 2.562 1_445 S
Pr104 O125 2.490 1_445 S
Pr104 O126 2.695 . S
Pr104 O127 2.512 . S
Pr104 O129 2.437 1_545 S
Pr104 O132 2.436 1_545 S
Pr104 O134 2.438 1_455 S
Pr105 C115 2.880 . S
Pr105 O126 2.436 . S
Pr105 O128 2.438 . S
Pr105 O130 2.562 . S
Pr105 O131 2.490 . S
Pr105 O132 2.695 1_545 S
Pr105 O133 2.512 1_545 S
Pr105 O135 2.437 . S
C106 Pr104 2.880 1_665 S
C106 C107 1.491 . S
C106 O124 1.254 . S
C106 O125 1.225 . S
C107 C106 1.491 . S
C107 C108 1.392 . S
C107 C112 1.356 . S
C108 C107 1.392 . S
C108 C109 1.368 . S
C108 H136 0.929 . S
C109 C108 1.368 . S
C109 C110 1.386 . S
C109 H137 0.929 . S
C110 C109 1.386 . S
C110 C111 1.373 . S
C111 C110 1.373 . S
C111 C112 1.409 . S
C111 H138 0.931 . S
C112 C107 1.356 . S
C112 C111 1.409 . S
C112 H139 0.930 . S
C113 O126 1.270 . S
C113 O127 1.248 . S
C114 O128 1.267 1_565 S
C114 O129 1.278 . S
C115 Pr105 2.880 . S
C115 C116 1.491 . S
C115 O130 1.254 . S
C115 O131 1.225 . S
C116 C115 1.491 . S
C116 C117 1.392 . S
C116 C121 1.356 . S
C117 C116 1.392 . S
C117 C118 1.368 . S
C117 H140 0.929 . S
C118 C117 1.368 . S
C118 C119 1.386 . S
C118 H141 0.929 . S
C119 C118 1.386 . S
C119 C120 1.373 . S
C120 C119 1.373 . S
C120 C121 1.409 . S
C120 H142 0.931 . S
C121 C116 1.356 . S
C121 C120 1.409 . S
C121 H143 0.930 . S
C122 O132 1.270 . S
C122 O133 1.248 . S
C123 O134 1.267 1_455 S
C123 O135 1.278 . S
O124 Pr104 2.562 1_665 S
O124 C106 1.254 . S
O125 Pr104 2.490 1_665 S
O125 C106 1.225 . S
O126 Pr104 2.695 . S
O126 Pr105 2.436 . S
O126 C113 1.270 . S
O127 Pr104 2.512 . S
O127 C113 1.248 . S
O128 Pr105 2.438 . S
O128 C114 1.267 1_545 S
O129 Pr104 2.437 1_565 S
O129 C114 1.278 . S
O130 Pr105 2.562 . S
O130 C115 1.254 . S
O131 Pr105 2.490 . S
O131 C115 1.225 . S
O132 Pr104 2.436 1_565 S
O132 Pr105 2.695 1_565 S
O132 C122 1.270 . S
O133 Pr105 2.512 1_565 S
O133 C122 1.248 . S
O134 Pr104 2.438 1_655 S
O134 C123 1.267 1_655 S
O135 Pr105 2.437 . S
O135 C123 1.278 . S
H136 C108 0.929 . S
H137 C109 0.929 . S
H138 C111 0.931 . S
H139 C112 0.930 . S
H140 C117 0.929 . S
H141 C118 0.929 . S
H142 C120 0.931 . S
H143 C121 0.930 . S
Pr144 C146 2.880 . S
Pr144 O164 2.562 . S
Pr144 O165 2.490 . S
Pr144 O166 2.695 . S
Pr144 O167 2.512 . S
Pr144 O169 2.437 . S
Pr144 O172 2.436 . S
Pr144 O174 2.438 . S
Pr145 C155 2.880 1_545 S
Pr145 O166 2.436 . S
Pr145 O168 2.438 . S
Pr145 O170 2.562 . S
Pr145 O171 2.490 1_545 S
Pr145 O172 2.695 . S
Pr145 O173 2.512 1_545 S
Pr145 O175 2.437 1_545 S
C146 Pr144 2.880 . S
C146 C147 1.491 . S
C146 O164 1.254 . S
C146 O165 1.225 . S
C147 C146 1.491 . S
C147 C148 1.392 . S
C147 C152 1.356 . S
C148 C147 1.392 . S
C148 C149 1.368 . S
C148 H176 0.929 . S
C149 C148 1.368 . S
C149 C150 1.386 . S
C149 H177 0.929 . S
C150 C149 1.386 . S
C150 C151 1.373 . S
C151 C150 1.373 . S
C151 C152 1.409 . S
C151 H178 0.931 . S
C152 C147 1.356 . S
C152 C151 1.409 . S
C152 H179 0.930 . S
C153 O166 1.270 . S
C153 O167 1.248 . S
C154 O168 1.267 . S
C154 O169 1.278 . S
C155 Pr145 2.880 1_565 S
C155 C156 1.491 . S
C155 O170 1.254 1_565 S
C155 O171 1.225 . S
C156 C155 1.491 . S
C156 C157 1.392 . S
C156 C161 1.356 1_554 S
C157 C156 1.392 . S
C157 C158 1.368 . S
C157 H180 0.929 . S
C158 C157 1.368 . S
C158 C159 1.386 1_554 S
C158 H181 0.929 . S
C159 C158 1.386 1_556 S
C159 C160 1.373 . S
C160 C159 1.373 . S
C160 C161 1.409 . S
C160 H182 0.931 . S
C161 C156 1.356 1_556 S
C161 C160 1.409 . S
C161 H183 0.930 . S
C162 O172 1.270 1_565 S
C162 O173 1.248 . S
C163 O174 1.267 1_565 S
C163 O175 1.278 . S
O164 Pr144 2.562 . S
O164 C146 1.254 . S
O165 Pr144 2.490 . S
O165 C146 1.225 . S
O166 Pr144 2.695 . S
O166 Pr145 2.436 . S
O166 C153 1.270 . S
O167 Pr144 2.512 . S
O167 C153 1.248 . S
O168 Pr145 2.438 . S
O168 C154 1.267 . S
O169 Pr144 2.437 . S
O169 C154 1.278 . S
O170 Pr145 2.562 . S
O170 C155 1.254 1_545 S
O171 Pr145 2.490 1_565 S
O171 C155 1.225 . S
O172 Pr144 2.436 . S
O172 Pr145 2.695 . S
O172 C162 1.270 1_545 S
O173 Pr145 2.512 1_565 S
O173 C162 1.248 . S
O174 Pr144 2.438 . S
O174 C163 1.267 1_545 S
O175 Pr145 2.437 1_565 S
O175 C163 1.278 . S
H176 C148 0.929 . S
H177 C149 0.929 . S
H178 C151 0.931 . S
H179 C152 0.930 . S
H180 C157 0.929 . S
H181 C158 0.929 . S
H182 C160 0.931 . S
H183 C161 0.930 . S
Pr184 C186 2.880 . S
Pr184 O204 2.562 . S
Pr184 O205 2.490 . S
Pr184 O206 2.695 . S
Pr184 O207 2.512 . S
Pr184 O209 2.437 . S
Pr184 O212 2.436 . S
Pr184 O214 2.438 . S
Pr185 C195 2.880 . S
Pr185 O206 2.436 . S
Pr185 O208 2.438 . S
Pr185 O210 2.562 . S
Pr185 O211 2.490 . S
Pr185 O212 2.695 . S
Pr185 O213 2.512 . S
Pr185 O215 2.437 . S
C186 Pr184 2.880 . S
C186 C187 1.491 . S
C186 O204 1.254 . S
C186 O205 1.225 . S
C187 C186 1.491 . S
C187 C188 1.392 . S
C187 C192 1.356 . S
C188 C187 1.392 . S
C188 C189 1.368 . S
C188 H216 0.929 . S
C189 C188 1.368 . S
C189 C190 1.386 . S
C189 H217 0.929 . S
C190 C189 1.386 . S
C190 C191 1.373 . S
C191 C190 1.373 . S
C191 C192 1.409 . S
C191 H218 0.931 . S
C192 C187 1.356 . S
C192 C191 1.409 . S
C192 H219 0.930 . S
C193 O206 1.270 . S
C193 O207 1.248 . S
C194 O208 1.267 . S
C194 O209 1.278 . S
C195 Pr185 2.880 . S
C195 C196 1.491 . S
C195 O210 1.254 . S
C195 O211 1.225 . S
C196 C195 1.491 . S
C196 C197 1.392 . S
C196 C201 1.356 . S
C197 C196 1.392 . S
C197 C198 1.368 . S
C197 H220 0.929 . S
C198 C197 1.368 . S
C198 C199 1.386 . S
C198 H221 0.929 . S
C199 C198 1.386 . S
C199 C200 1.373 . S
C200 C199 1.373 . S
C200 C201 1.409 . S
C200 H222 0.931 . S
C201 C196 1.356 . S
C201 C200 1.409 . S
C201 H223 0.930 . S
C202 O212 1.270 . S
C202 O213 1.248 . S
C203 O214 1.267 . S
C203 O215 1.278 . S
O204 Pr184 2.562 . S
O204 C186 1.254 . S
O205 Pr184 2.490 . S
O205 C186 1.225 . S
O206 Pr184 2.695 . S
O206 Pr185 2.436 . S
O206 C193 1.270 . S
O207 Pr184 2.512 . S
O207 C193 1.248 . S
O208 Pr185 2.438 . S
O208 C194 1.267 . S
O209 Pr184 2.437 . S
O209 C194 1.278 . S
O210 Pr185 2.562 . S
O210 C195 1.254 . S
O211 Pr185 2.490 . S
O211 C195 1.225 . S
O212 Pr184 2.436 . S
O212 Pr185 2.695 . S
O212 C202 1.270 . S
O213 Pr185 2.512 . S
O213 C202 1.248 . S
O214 Pr184 2.438 . S
O214 C203 1.267 . S
O215 Pr185 2.437 . S
O215 C203 1.278 . S
H216 C188 0.929 . S
H217 C189 0.929 . S
H218 C191 0.931 . S
H219 C192 0.930 . S
H220 C197 0.929 . S
H221 C198 0.929 . S
H222 C200 0.931 . S
H223 C201 0.930 . S
Pr224 C226 2.880 1_455 S
Pr224 O244 2.562 1_455 S
Pr224 O245 2.490 1_455 S
Pr224 O246 2.695 1_556 S
Pr224 O247 2.512 1_556 S
Pr224 O249 2.437 1_456 S
Pr224 O252 2.436 1_455 S
Pr224 O254 2.438 . S
Pr225 C235 2.880 . S
Pr225 O246 2.436 . S
Pr225 O248 2.438 1_455 S
Pr225 O250 2.562 . S
Pr225 O251 2.490 . S
Pr225 O252 2.695 1_454 S
Pr225 O253 2.512 1_455 S
Pr225 O255 2.437 1_554 S
C226 Pr224 2.880 1_655 S
C226 C227 1.491 . S
C226 O244 1.254 . S
C226 O245 1.225 . S
C227 C226 1.491 . S
C227 C228 1.392 . S
C227 C232 1.356 . S
C228 C227 1.392 . S
C228 C229 1.368 . S
C228 H256 0.929 . S
C229 C228 1.368 . S
C229 C230 1.386 . S
C229 H257 0.929 . S
C230 C229 1.386 . S
C230 C231 1.373 . S
C231 C230 1.373 . S
C231 C232 1.409 . S
C231 H258 0.931 . S
C232 C227 1.356 . S
C232 C231 1.409 . S
C232 H259 0.930 . S
C233 O246 1.270 . S
C233 O247 1.248 . S
C234 O248 1.267 . S
C234 O249 1.278 . S
C235 Pr225 2.880 . S
C235 C236 1.491 . S
C235 O250 1.254 . S
C235 O251 1.225 . S
C236 C235 1.491 . S
C236 C237 1.392 . S
C236 C241 1.356 . S
C237 C236 1.392 . S
C237 C238 1.368 . S
C237 H260 0.929 . S
C238 C237 1.368 . S
C238 C239 1.386 . S
C238 H261 0.929 . S
C239 C238 1.386 . S
C239 C240 1.373 . S
C240 C239 1.373 . S
C240 C241 1.409 . S
C240 H262 0.931 . S
C241 C236 1.356 . S
C241 C240 1.409 . S
C241 H263 0.930 . S
C242 O252 1.270 . S
C242 O253 1.248 1_556 S
C243 O254 1.267 . S
C243 O255 1.278 . S
O244 Pr224 2.562 1_655 S
O244 C226 1.254 . S
O245 Pr224 2.490 1_655 S
O245 C226 1.225 . S
O246 Pr224 2.695 1_554 S
O246 Pr225 2.436 . S
O246 C233 1.270 . S
O247 Pr224 2.512 1_554 S
O247 C233 1.248 . S
O248 Pr225 2.438 1_655 S
O248 C234 1.267 . S
O249 Pr224 2.437 1_654 S
O249 C234 1.278 . S
O250 Pr225 2.562 . S
O250 C235 1.254 . S
O251 Pr225 2.490 . S
O251 C235 1.225 . S
O252 Pr224 2.436 1_655 S
O252 Pr225 2.695 1_656 S
O252 C242 1.270 . S
O253 Pr225 2.512 1_655 S
O253 C242 1.248 1_554 S
O254 Pr224 2.438 . S
O254 C243 1.267 . S
O255 Pr225 2.437 1_556 S
O255 C243 1.278 . S
H256 C228 0.929 . S
H257 C229 0.929 . S
H258 C231 0.931 . S
H259 C232 0.930 . S
H260 C237 0.929 . S
H261 C238 0.929 . S
H262 C240 0.931 . S
H263 C241 0.930 . S
C264 C265 1.349 . S
C264 C266 1.327 . S
C264 H289 0.950 . S
C265 C264 1.349 . S
C265 C281 1.349 . S
C266 C264 1.327 . S
C266 C285 1.429 . S
C266 H290 0.950 . S
C267 C284 1.574 . S
C267 C286 1.368 . S
C267 H291 0.949 . S
H268 C272 0.949 . S
C269 C270 1.349 . S
C269 C271 1.327 . S
C269 H292 0.950 . S
C270 C269 1.349 . S
C270 C282 1.349 . S
C271 C269 1.327 . S
C271 C287 1.429 . S
C271 H293 0.950 . S
C272 H268 0.949 . S
C272 C280 1.574 . S
C272 C288 1.368 . S
H273 C281 0.950 . S
H274 C279 0.950 . S
H275 C280 0.949 . S
H276 C282 0.950 . S
H277 C283 0.950 . S
H278 C284 0.949 . S
C279 H274 0.950 . S
C279 C281 1.327 . S
C279 C285 1.429 . S
C280 C272 1.574 . S
C280 H275 0.949 . S
C280 C286 1.368 . S
C281 C265 1.349 . S
C281 H273 0.950 . S
C281 C279 1.327 . S
C282 C270 1.349 . S
C282 H276 0.950 . S
C282 C283 1.327 . S
C283 H277 0.950 . S
C283 C282 1.327 . S
C283 C287 1.429 . S
C284 C267 1.574 . S
C284 H278 0.949 . S
C284 C288 1.368 . S
C285 C266 1.429 . S
C285 C279 1.429 . S
C285 C286 1.523 . S
C286 C267 1.368 . S
C286 C280 1.368 . S
C286 C285 1.523 . S
C287 C271 1.429 . S
C287 C283 1.429 . S
C287 C288 1.523 . S
C288 C272 1.368 . S
C288 C284 1.368 . S
C288 C287 1.523 . S
H289 C264 0.950 . S
H290 C266 0.950 . S
H291 C267 0.949 . S
H292 C269 0.950 . S
H293 C271 0.950 . S
C294 C295 1.349 . S
C294 C296 1.327 . S
C294 H319 0.950 . S
C295 C294 1.349 . S
C295 C311 1.349 . S
C296 C294 1.327 . S
C296 C315 1.429 . S
C296 H320 0.950 . S
C297 C314 1.574 . S
C297 C316 1.368 . S
C297 H321 0.949 . S
H298 C302 0.949 . S
C299 C300 1.349 . S
C299 C301 1.327 . S
C299 H322 0.950 . S
C300 C299 1.349 . S
C300 C312 1.349 . S
C301 C299 1.327 . S
C301 C317 1.429 . S
C301 H323 0.950 . S
C302 H298 0.949 . S
C302 C310 1.574 . S
C302 C318 1.368 . S
H303 C311 0.950 . S
H304 C309 0.950 . S
H305 C310 0.949 . S
H306 C312 0.950 . S
H307 C313 0.950 . S
H308 C314 0.949 . S
C309 H304 0.950 . S
C309 C311 1.327 . S
C309 C315 1.429 . S
C310 C302 1.574 . S
C310 H305 0.949 . S
C310 C316 1.368 . S
C311 C295 1.349 . S
C311 H303 0.950 . S
C311 C309 1.327 . S
C312 C300 1.349 . S
C312 H306 0.950 . S
C312 C313 1.327 . S
C313 H307 0.950 . S
C313 C312 1.327 . S
C313 C317 1.429 . S
C314 C297 1.574 . S
C314 H308 0.949 . S
C314 C318 1.368 . S
C315 C296 1.429 . S
C315 C309 1.429 . S
C315 C316 1.523 . S
C316 C297 1.368 . S
C316 C310 1.368 . S
C316 C315 1.523 . S
C317 C301 1.429 . S
C317 C313 1.429 . S
C317 C318 1.523 . S
C318 C302 1.368 . S
C318 C314 1.368 . S
C318 C317 1.523 . S
H319 C294 0.950 . S
H320 C296 0.950 . S
H321 C297 0.949 . S
H322 C299 0.950 . S
H323 C301 0.950 . S
C324 C325 1.349 . S
C324 C326 1.327 . S
C324 H349 0.950 . S
C325 C324 1.349 . S
C325 C341 1.349 . S
C326 C324 1.327 . S
C326 C345 1.429 . S
C326 H350 0.950 . S
C327 C344 1.574 . S
C327 C346 1.368 . S
C327 H351 0.949 . S
H328 C332 0.949 . S
C329 C330 1.349 . S
C329 C331 1.327 . S
C329 H352 0.950 . S
C330 C329 1.349 . S
C330 C342 1.349 . S
C331 C329 1.327 . S
C331 C347 1.429 . S
C331 H353 0.950 . S
C332 H328 0.949 . S
C332 C340 1.574 . S
C332 C348 1.368 . S
H333 C341 0.950 . S
H334 C339 0.950 . S
H335 C340 0.949 . S
H336 C342 0.950 . S
H337 C343 0.950 . S
H338 C344 0.949 . S
C339 H334 0.950 . S
C339 C341 1.327 . S
C339 C345 1.429 . S
C340 C332 1.574 . S
C340 H335 0.949 . S
C340 C346 1.368 . S
C341 C325 1.349 . S
C341 H333 0.950 . S
C341 C339 1.327 . S
C342 C330 1.349 . S
C342 H336 0.950 . S
C342 C343 1.327 . S
C343 H337 0.950 . S
C343 C342 1.327 . S
C343 C347 1.429 . S
C344 C327 1.574 . S
C344 H338 0.949 . S
C344 C348 1.368 . S
C345 C326 1.429 . S
C345 C339 1.429 . S
C345 C346 1.523 . S
C346 C327 1.368 . S
C346 C340 1.368 . S
C346 C345 1.523 . S
C347 C331 1.429 . S
C347 C343 1.429 . S
C347 C348 1.523 . S
C348 C332 1.368 . S
C348 C344 1.368 . S
C348 C347 1.523 . S
H349 C324 0.950 . S
H350 C326 0.950 . S
H351 C327 0.949 . S
H352 C329 0.950 . S
H353 C331 0.950 . S
C354 C355 1.349 . S
C354 C356 1.327 . S
C354 H379 0.950 . S
C355 C354 1.349 . S
C355 C371 1.349 . S
C356 C354 1.327 . S
C356 C375 1.429 . S
C356 H380 0.950 . S
C357 C374 1.574 . S
C357 C376 1.368 . S
C357 H381 0.949 . S
H358 C362 0.949 . S
C359 C360 1.349 . S
C359 C361 1.327 . S
C359 H382 0.950 . S
C360 C359 1.349 . S
C360 C372 1.349 . S
C361 C359 1.327 . S
C361 C377 1.429 . S
C361 H383 0.950 . S
C362 H358 0.949 . S
C362 C370 1.574 . S
C362 C378 1.368 . S
H363 C371 0.950 . S
H364 C369 0.950 . S
H365 C370 0.949 . S
H366 C372 0.950 . S
H367 C373 0.950 . S
H368 C374 0.949 . S
C369 H364 0.950 . S
C369 C371 1.327 . S
C369 C375 1.429 . S
C370 C362 1.574 . S
C370 H365 0.949 . S
C370 C376 1.368 . S
C371 C355 1.349 . S
C371 H363 0.950 . S
C371 C369 1.327 . S
C372 C360 1.349 . S
C372 H366 0.950 . S
C372 C373 1.327 . S
C373 H367 0.950 . S
C373 C372 1.327 . S
C373 C377 1.429 . S
C374 C357 1.574 . S
C374 H368 0.949 . S
C374 C378 1.368 . S
C375 C356 1.429 . S
C375 C369 1.429 . S
C375 C376 1.523 . S
C376 C357 1.368 . S
C376 C370 1.368 . S
C376 C375 1.523 . S
C377 C361 1.429 . S
C377 C373 1.429 . S
C377 C378 1.523 . S
C378 C362 1.368 . S
C378 C374 1.368 . S
C378 C377 1.523 . S
H379 C354 0.950 . S
H380 C356 0.950 . S
H381 C357 0.949 . S
H382 C359 0.950 . S
H383 C361 0.950 . S
C384 C385 1.349 . S
C384 C386 1.327 . S
C384 H409 0.950 . S
C385 C384 1.349 . S
C385 C401 1.349 . S
C386 C384 1.327 . S
C386 C405 1.429 . S
C386 H410 0.950 . S
C387 C404 1.574 . S
C387 C406 1.368 . S
C387 H411 0.949 . S
H388 C392 0.949 . S
C389 C390 1.349 . S
C389 C391 1.327 . S
C389 H412 0.950 . S
C390 C389 1.349 . S
C390 C402 1.349 . S
C391 C389 1.327 . S
C391 C407 1.429 . S
C391 H413 0.950 . S
C392 H388 0.949 . S
C392 C400 1.574 . S
C392 C408 1.368 . S
H393 C401 0.950 . S
H394 C399 0.950 . S
H395 C400 0.949 . S
H396 C402 0.950 . S
H397 C403 0.950 . S
H398 C404 0.949 . S
C399 H394 0.950 . S
C399 C401 1.327 . S
C399 C405 1.429 . S
C400 C392 1.574 . S
C400 H395 0.949 . S
C400 C406 1.368 . S
C401 C385 1.349 . S
C401 H393 0.950 . S
C401 C399 1.327 . S
C402 C390 1.349 . S
C402 H396 0.950 . S
C402 C403 1.327 . S
C403 H397 0.950 . S
C403 C402 1.327 . S
C403 C407 1.429 . S
C404 C387 1.574 . S
C404 H398 0.949 . S
C404 C408 1.368 . S
C405 C386 1.429 . S
C405 C399 1.429 . S
C405 C406 1.523 . S
C406 C387 1.368 . S
C406 C400 1.368 . S
C406 C405 1.523 . S
C407 C391 1.429 . S
C407 C403 1.429 . S
C407 C408 1.523 . S
C408 C392 1.368 . S
C408 C404 1.368 . S
C408 C407 1.523 . S
H409 C384 0.950 . S
H410 C386 0.950 . S
H411 C387 0.949 . S
H412 C389 0.950 . S
H413 C391 0.950 . S
C414 C415 1.349 . S
C414 C416 1.327 . S
C414 H439 0.950 . S
C415 C414 1.349 . S
C415 C431 1.349 . S
C416 C414 1.327 . S
C416 C435 1.429 . S
C416 H440 0.950 . S
C417 C434 1.574 . S
C417 C436 1.368 . S
C417 H441 0.949 . S
H418 C422 0.949 . S
C419 C420 1.349 . S
C419 C421 1.327 . S
C419 H442 0.950 . S
C420 C419 1.349 . S
C420 C432 1.349 . S
C421 C419 1.327 . S
C421 C437 1.429 . S
C421 H443 0.950 . S
C422 H418 0.949 . S
C422 C430 1.574 . S
C422 C438 1.368 . S
H423 C431 0.950 . S
H424 C429 0.950 . S
H425 C430 0.949 . S
H426 C432 0.950 . S
H427 C433 0.950 . S
H428 C434 0.949 . S
C429 H424 0.950 . S
C429 C431 1.327 . S
C429 C435 1.429 . S
C430 C422 1.574 . S
C430 H425 0.949 . S
C430 C436 1.368 . S
C431 C415 1.349 . S
C431 H423 0.950 . S
C431 C429 1.327 . S
C432 C420 1.349 . S
C432 H426 0.950 . S
C432 C433 1.327 . S
C433 H427 0.950 . S
C433 C432 1.327 . S
C433 C437 1.429 . S
C434 C417 1.574 . S
C434 H428 0.949 . S
C434 C438 1.368 . S
C435 C416 1.429 . S
C435 C429 1.429 . S
C435 C436 1.523 . S
C436 C417 1.368 . S
C436 C430 1.368 . S
C436 C435 1.523 . S
C437 C421 1.429 . S
C437 C433 1.429 . S
C437 C438 1.523 . S
C438 C422 1.368 . S
C438 C434 1.368 . S
C438 C437 1.523 . S
H439 C414 0.950 . S
H440 C416 0.950 . S
H441 C417 0.949 . S
H442 C419 0.950 . S
H443 C421 0.950 . S
C444 C445 1.349 . S
C444 C446 1.327 . S
C444 H469 0.950 . S
C445 C444 1.349 . S
C445 C461 1.349 . S
C446 C444 1.327 . S
C446 C465 1.429 . S
C446 H470 0.950 . S
C447 C464 1.574 . S
C447 C466 1.368 . S
C447 H471 0.949 . S
H448 C452 0.949 . S
C449 C450 1.349 . S
C449 C451 1.327 . S
C449 H472 0.950 . S
C450 C449 1.349 . S
C450 C462 1.349 . S
C451 C449 1.327 . S
C451 C467 1.429 . S
C451 H473 0.950 . S
C452 H448 0.949 . S
C452 C460 1.574 . S
C452 C468 1.368 . S
H453 C461 0.950 . S
H454 C459 0.950 . S
H455 C460 0.949 . S
H456 C462 0.950 . S
H457 C463 0.950 . S
H458 C464 0.949 . S
C459 H454 0.950 . S
C459 C461 1.327 . S
C459 C465 1.429 . S
C460 C452 1.574 . S
C460 H455 0.949 . S
C460 C466 1.368 . S
C461 C445 1.349 . S
C461 H453 0.950 . S
C461 C459 1.327 . S
C462 C450 1.349 . S
C462 H456 0.950 . S
C462 C463 1.327 . S
C463 H457 0.950 . S
C463 C462 1.327 . S
C463 C467 1.429 . S
C464 C447 1.574 . S
C464 H458 0.949 . S
C464 C468 1.368 . S
C465 C446 1.429 . S
C465 C459 1.429 . S
C465 C466 1.523 . S
C466 C447 1.368 . S
C466 C460 1.368 . S
C466 C465 1.523 . S
C467 C451 1.429 . S
C467 C463 1.429 . S
C467 C468 1.523 . S
C468 C452 1.368 . S
C468 C464 1.368 . S
C468 C467 1.523 . S
H469 C444 0.950 . S
H470 C446 0.950 . S
H471 C447 0.949 . S
H472 C449 0.950 . S
H473 C451 0.950 . S
C474 C475 1.349 . S
C474 C476 1.327 . S
C474 H499 0.950 . S
C475 C474 1.349 . S
C475 C491 1.349 . S
C476 C474 1.327 . S
C476 C495 1.429 . S
C476 H500 0.950 . S
C477 C494 1.574 . S
C477 C496 1.368 . S
C477 H501 0.949 . S
H478 C482 0.949 . S
C479 C480 1.349 . S
C479 C481 1.327 . S
C479 H502 0.950 . S
C480 C479 1.349 . S
C480 C492 1.349 . S
C481 C479 1.327 . S
C481 C497 1.429 . S
C481 H503 0.950 . S
C482 H478 0.949 . S
C482 C490 1.574 . S
C482 C498 1.368 . S
H483 C491 0.950 . S
H484 C489 0.950 . S
H485 C490 0.949 . S
H486 C492 0.950 . S
H487 C493 0.950 . S
H488 C494 0.949 . S
C489 H484 0.950 . S
C489 C491 1.327 . S
C489 C495 1.429 . S
C490 C482 1.574 . S
C490 H485 0.949 . S
C490 C496 1.368 . S
C491 C475 1.349 . S
C491 H483 0.950 . S
C491 C489 1.327 . S
C492 C480 1.349 . S
C492 H486 0.950 . S
C492 C493 1.327 . S
C493 H487 0.950 . S
C493 C492 1.327 . S
C493 C497 1.429 . S
C494 C477 1.574 . S
C494 H488 0.949 . S
C494 C498 1.368 . S
C495 C476 1.429 . S
C495 C489 1.429 . S
C495 C496 1.523 . S
C496 C477 1.368 . S
C496 C490 1.368 . S
C496 C495 1.523 . S
C497 C481 1.429 . S
C497 C493 1.429 . S
C497 C498 1.523 . S
C498 C482 1.368 . S
C498 C494 1.368 . S
C498 C497 1.523 . S
H499 C474 0.950 . S
H500 C476 0.950 . S
H501 C477 0.949 . S
H502 C479 0.950 . S
H503 C481 0.950 . S
C504 C505 1.349 . S
C504 C506 1.327 . S
C504 H529 0.950 . S
C505 C504 1.349 . S
C505 C521 1.349 . S
C506 C504 1.327 . S
C506 C525 1.429 . S
C506 H530 0.950 . S
C507 C524 1.574 . S
C507 C526 1.368 . S
C507 H531 0.949 . S
H508 C512 0.949 . S
C509 C510 1.349 . S
C509 C511 1.327 . S
C509 H532 0.950 . S
C510 C509 1.349 . S
C510 C522 1.349 . S
C511 C509 1.327 . S
C511 C527 1.429 . S
C511 H533 0.950 . S
C512 H508 0.949 . S
C512 C520 1.574 . S
C512 C528 1.368 . S
H513 C521 0.950 . S
H514 C519 0.950 . S
H515 C520 0.949 . S
H516 C522 0.950 . S
H517 C523 0.950 . S
H518 C524 0.949 . S
C519 H514 0.950 . S
C519 C521 1.327 . S
C519 C525 1.429 . S
C520 C512 1.574 . S
C520 H515 0.949 . S
C520 C526 1.368 . S
C521 C505 1.349 . S
C521 H513 0.950 . S
C521 C519 1.327 . S
C522 C510 1.349 . S
C522 H516 0.950 . S
C522 C523 1.327 . S
C523 H517 0.950 . S
C523 C522 1.327 . S
C523 C527 1.429 . S
C524 C507 1.574 . S
C524 H518 0.949 . S
C524 C528 1.368 . S
C525 C506 1.429 . S
C525 C519 1.429 . S
C525 C526 1.523 . S
C526 C507 1.368 . S
C526 C520 1.368 . S
C526 C525 1.523 . S
C527 C511 1.429 . S
C527 C523 1.429 . S
C527 C528 1.523 . S
C528 C512 1.368 . S
C528 C524 1.368 . S
C528 C527 1.523 . S
H529 C504 0.950 . S
H530 C506 0.950 . S
H531 C507 0.949 . S
H532 C509 0.950 . S
H533 C511 0.950 . S
C534 C535 1.349 . S
C534 C536 1.327 . S
C534 H559 0.950 . S
C535 C534 1.349 . S
C535 C551 1.349 . S
C536 C534 1.327 . S
C536 C555 1.429 . S
C536 H560 0.950 . S
C537 C554 1.574 . S
C537 C556 1.368 . S
C537 H561 0.949 . S
H538 C542 0.949 . S
C539 C540 1.349 . S
C539 C541 1.327 . S
C539 H562 0.950 . S
C540 C539 1.349 . S
C540 C552 1.349 . S
C541 C539 1.327 . S
C541 C557 1.429 . S
C541 H563 0.950 . S
C542 H538 0.949 . S
C542 C550 1.574 . S
C542 C558 1.368 . S
H543 C551 0.950 . S
H544 C549 0.950 . S
H545 C550 0.949 . S
H546 C552 0.932 1_554 S
H547 C553 0.950 . S
H548 C554 0.949 . S
C549 H544 0.950 . S
C549 C551 1.327 . S
C549 C555 1.429 . S
C550 C542 1.574 . S
C550 H545 0.949 . S
C550 C556 1.368 . S
C551 C535 1.349 . S
C551 H543 0.950 . S
C551 C549 1.327 . S
C552 C540 1.349 . S
C552 H546 0.932 1_556 S
C552 C553 1.327 . S
C553 H547 0.950 . S
C553 C552 1.327 . S
C553 C557 1.429 . S
C554 C537 1.574 . S
C554 H548 0.949 . S
C554 C558 1.368 . S
C555 C536 1.429 . S
C555 C549 1.429 . S
C555 C556 1.523 . S
C556 C537 1.368 . S
C556 C550 1.368 . S
C556 C555 1.523 . S
C557 C541 1.429 . S
C557 C553 1.429 . S
C557 C558 1.523 . S
C558 C542 1.368 . S
C558 C554 1.368 . S
C558 C557 1.523 . S
H559 C534 0.950 . S
H560 C536 0.950 . S
H561 C537 0.949 . S
H562 C539 0.950 . S
H563 C541 0.950 . S
C564 C565 1.349 . S
C564 C566 1.327 . S
C564 H589 0.950 . S
C565 C564 1.349 . S
C565 C581 1.349 . S
C566 C564 1.327 . S
C566 C585 1.429 . S
C566 H590 0.950 . S
C567 C584 1.574 . S
C567 C586 1.368 . S
C567 H591 0.949 . S
H568 C572 0.949 . S
C569 C570 1.349 . S
C569 C571 1.327 . S
C569 H592 0.950 . S
C570 C569 1.349 . S
C570 C582 1.349 . S
C571 C569 1.327 . S
C571 C587 1.429 . S
C571 H593 0.950 . S
C572 H568 0.949 . S
C572 C580 1.574 . S
C572 C588 1.368 . S
H573 C581 0.950 . S
H574 C579 0.950 . S
H575 C580 0.949 . S
H576 C582 0.950 . S
H577 C583 0.950 . S
H578 C584 0.949 . S
C579 H574 0.950 . S
C579 C581 1.327 . S
C579 C585 1.429 . S
C580 C572 1.574 . S
C580 H575 0.949 . S
C580 C586 1.368 . S
C581 C565 1.349 . S
C581 H573 0.950 . S
C581 C579 1.327 . S
C582 C570 1.349 . S
C582 H576 0.950 . S
C582 C583 1.327 . S
C583 H577 0.950 . S
C583 C582 1.327 . S
C583 C587 1.429 . S
C584 C567 1.574 . S
C584 H578 0.949 . S
C584 C588 1.368 . S
C585 C566 1.429 . S
C585 C579 1.429 . S
C585 C586 1.523 . S
C586 C567 1.368 . S
C586 C580 1.368 . S
C586 C585 1.523 . S
C587 C571 1.429 . S
C587 C583 1.429 . S
C587 C588 1.523 . S
C588 C572 1.368 . S
C588 C584 1.368 . S
C588 C587 1.523 . S
H589 C564 0.950 . S
H590 C566 0.950 . S
H591 C567 0.949 . S
H592 C569 0.950 . S
H593 C571 0.950 . S
C594 C595 1.349 . S
C594 C596 1.327 . S
C594 H619 0.950 . S
C595 C594 1.349 . S
C595 C611 1.349 . S
C596 C594 1.327 . S
C596 C615 1.429 . S
C596 H620 0.950 . S
C597 C614 1.574 . S
C597 C616 1.368 . S
C597 H621 0.949 . S
H598 C602 0.949 . S
C599 C600 1.349 . S
C599 C601 1.327 . S
C599 H622 0.950 . S
C600 C599 1.349 . S
C600 C612 1.349 . S
C601 C599 1.327 . S
C601 C617 1.429 . S
C601 H623 0.950 . S
C602 H598 0.949 . S
C602 C610 1.574 . S
C602 C618 1.368 . S
H603 C611 0.950 . S
H604 C609 0.950 . S
H605 C610 0.949 . S
H606 C612 0.950 . S
H607 C613 0.950 . S
H608 C614 0.949 . S
C609 H604 0.950 . S
C609 C611 1.327 . S
C609 C615 1.429 . S
C610 C602 1.574 . S
C610 H605 0.949 . S
C610 C616 1.368 . S
C611 C595 1.349 . S
C611 H603 0.950 . S
C611 C609 1.327 . S
C612 C600 1.349 . S
C612 H606 0.950 . S
C612 C613 1.327 . S
C613 H607 0.950 . S
C613 C612 1.327 . S
C613 C617 1.429 . S
C614 C597 1.574 . S
C614 H608 0.949 . S
C614 C618 1.368 . S
C615 C596 1.429 . S
C615 C609 1.429 . S
C615 C616 1.523 . S
C616 C597 1.368 . S
C616 C610 1.368 . S
C616 C615 1.523 . S
C617 C601 1.429 . S
C617 C613 1.429 . S
C617 C618 1.523 . S
C618 C602 1.368 . S
C618 C614 1.368 . S
C618 C617 1.523 . S
H619 C594 0.950 . S
H620 C596 0.950 . S
H621 C597 0.949 . S
H622 C599 0.950 . S
H623 C601 0.950 . S
C624 C625 1.349 . S
C624 C626 1.327 . S
C624 H649 0.950 . S
C625 C624 1.349 . S
C625 C641 1.349 . S
C626 C624 1.327 . S
C626 C645 1.429 . S
C626 H650 0.950 . S
C627 C644 1.574 . S
C627 C646 1.368 . S
C627 H651 0.949 . S
H628 C632 0.949 . S
C629 C630 1.349 . S
C629 C631 1.327 . S
C629 H652 0.950 . S
C630 C629 1.349 . S
C630 C642 1.349 . S
C631 C629 1.327 . S
C631 C647 1.429 . S
C631 H653 0.950 . S
C632 H628 0.949 . S
C632 C640 1.574 . S
C632 C648 1.368 . S
H633 C641 0.950 . S
H634 C639 0.950 . S
H635 C640 0.949 . S
H636 C642 0.950 . S
H637 C643 0.950 . S
H638 C644 0.949 . S
C639 H634 0.950 . S
C639 C641 1.327 . S
C639 C645 1.429 . S
C640 C632 1.574 . S
C640 H635 0.949 . S
C640 C646 1.368 . S
C641 C625 1.349 . S
C641 H633 0.950 . S
C641 C639 1.327 . S
C642 C630 1.349 . S
C642 H636 0.950 . S
C642 C643 1.327 . S
C643 H637 0.950 . S
C643 C642 1.327 . S
C643 C647 1.429 . S
C644 C627 1.574 . S
C644 H638 0.949 . S
C644 C648 1.368 . S
C645 C626 1.429 . S
C645 C639 1.429 . S
C645 C646 1.523 . S
C646 C627 1.368 . S
C646 C640 1.368 . S
C646 C645 1.523 . S
C647 C631 1.429 . S
C647 C643 1.429 . S
C647 C648 1.523 . S
C648 C632 1.368 . S
C648 C644 1.368 . S
C648 C647 1.523 . S
H649 C624 0.950 . S
H650 C626 0.950 . S
H651 C627 0.949 . S
H652 C629 0.950 . S
H653 C631 0.950 . S
C654 C655 1.349 . S
C654 C656 1.327 . S
C654 H679 0.950 . S
C655 C654 1.349 . S
C655 C671 1.349 . S
C656 C654 1.327 . S
C656 C675 1.429 . S
C656 H680 0.950 . S
C657 C674 1.574 . S
C657 C676 1.368 . S
C657 H681 0.949 . S
H658 C662 0.949 . S
C659 C660 1.349 . S
C659 C661 1.327 . S
C659 H682 0.950 . S
C660 C659 1.349 . S
C660 C672 1.349 . S
C661 C659 1.327 . S
C661 C677 1.429 . S
C661 H683 0.950 . S
C662 H658 0.949 . S
C662 C670 1.574 . S
C662 C678 1.368 . S
H663 C671 0.950 . S
H664 C669 0.950 . S
H665 C670 0.949 . S
H666 C672 0.950 . S
H667 C673 0.950 . S
H668 C674 0.949 . S
C669 H664 0.950 . S
C669 C671 1.327 . S
C669 C675 1.429 . S
C670 C662 1.574 . S
C670 H665 0.949 . S
C670 C676 1.368 . S
C671 C655 1.349 . S
C671 H663 0.950 . S
C671 C669 1.327 . S
C672 C660 1.349 . S
C672 H666 0.950 . S
C672 C673 1.327 . S
C673 H667 0.950 . S
C673 C672 1.327 . S
C673 C677 1.429 . S
C674 C657 1.574 . S
C674 H668 0.949 . S
C674 C678 1.368 . S
C675 C656 1.429 . S
C675 C669 1.429 . S
C675 C676 1.523 . S
C676 C657 1.368 . S
C676 C670 1.368 . S
C676 C675 1.523 . S
C677 C661 1.429 . S
C677 C673 1.429 . S
C677 C678 1.523 . S
C678 C662 1.368 . S
C678 C674 1.368 . S
C678 C677 1.523 . S
H679 C654 0.950 . S
H680 C656 0.950 . S
H681 C657 0.949 . S
H682 C659 0.950 . S
H683 C661 0.950 . S
C684 C685 1.349 . S
C684 C686 1.327 . S
C684 H709 0.950 . S
C685 C684 1.349 . S
C685 C701 1.349 . S
C686 C684 1.327 . S
C686 C705 1.429 . S
C686 H710 0.950 . S
C687 C704 1.574 . S
C687 C706 1.368 . S
C687 H711 0.949 . S
H688 C692 0.949 . S
C689 C690 1.349 . S
C689 C691 1.327 . S
C689 H712 0.950 . S
C690 C689 1.349 . S
C690 C702 1.349 . S
C691 C689 1.327 . S
C691 C707 1.429 . S
C691 H713 0.950 . S
C692 H688 0.949 . S
C692 C700 1.574 . S
C692 C708 1.368 . S
H693 C701 0.950 . S
H694 C699 0.950 . S
H695 C700 0.949 . S
H696 C702 0.950 . S
H697 C703 0.950 . S
H698 C704 0.949 . S
C699 H694 0.950 . S
C699 C701 1.327 . S
C699 C705 1.429 . S
C700 C692 1.574 . S
C700 H695 0.949 . S
C700 C706 1.368 . S
C701 C685 1.349 . S
C701 H693 0.950 . S
C701 C699 1.327 . S
C702 C690 1.349 . S
C702 H696 0.950 . S
C702 C703 1.327 . S
C703 H697 0.950 . S
C703 C702 1.327 . S
C703 C707 1.429 . S
C704 C687 1.574 . S
C704 H698 0.949 . S
C704 C708 1.368 . S
C705 C686 1.429 . S
C705 C699 1.429 . S
C705 C706 1.523 . S
C706 C687 1.368 . S
C706 C700 1.368 . S
C706 C705 1.523 . S
C707 C691 1.429 . S
C707 C703 1.429 . S
C707 C708 1.523 . S
C708 C692 1.368 . S
C708 C704 1.368 . S
C708 C707 1.523 . S
H709 C684 0.950 . S
H710 C686 0.950 . S
H711 C687 0.949 . S
H712 C689 0.950 . S
H713 C691 0.950 . S
C714 C715 1.349 . S
C714 C716 1.327 . S
C714 H739 0.950 . S
C715 C714 1.349 . S
C715 C731 1.349 . S
C716 C714 1.327 . S
C716 C735 1.429 . S
C716 H740 0.950 . S
C717 C734 1.574 . S
C717 C736 1.368 . S
C717 H741 0.949 . S
H718 C722 0.949 . S
C719 C720 1.349 . S
C719 C721 1.327 . S
C719 H742 0.950 . S
C720 C719 1.349 . S
C720 C732 1.349 . S
C721 C719 1.327 . S
C721 C737 1.429 . S
C721 H743 0.950 . S
C722 H718 0.949 . S
C722 C730 1.574 . S
C722 C738 1.368 . S
H723 C731 0.950 . S
H724 C729 0.950 . S
H725 C730 0.949 . S
H726 C732 0.950 . S
H727 C733 0.950 . S
H728 C734 0.949 . S
C729 H724 0.950 . S
C729 C731 1.327 . S
C729 C735 1.429 . S
C730 C722 1.574 . S
C730 H725 0.949 . S
C730 C736 1.368 . S
C731 C715 1.349 . S
C731 H723 0.950 . S
C731 C729 1.327 . S
C732 C720 1.349 . S
C732 H726 0.950 . S
C732 C733 1.327 . S
C733 H727 0.950 . S
C733 C732 1.327 . S
C733 C737 1.429 . S
C734 C717 1.574 . S
C734 H728 0.949 . S
C734 C738 1.368 . S
C735 C716 1.429 . S
C735 C729 1.429 . S
C735 C736 1.523 . S
C736 C717 1.368 . S
C736 C730 1.368 . S
C736 C735 1.523 . S
C737 C721 1.429 . S
C737 C733 1.429 . S
C737 C738 1.523 . S
C738 C722 1.368 . S
C738 C734 1.368 . S
C738 C737 1.523 . S
H739 C714 0.950 . S
H740 C716 0.950 . S
H741 C717 0.949 . S
H742 C719 0.950 . S
H743 C721 0.950 . S
C744 C745 1.349 . S
C744 C746 1.327 . S
C744 H769 0.950 . S
C745 C744 1.349 . S
C745 C761 1.349 . S
C746 C744 1.327 . S
C746 C765 1.429 . S
C746 H770 0.950 . S
C747 C764 1.574 . S
C747 C766 1.368 . S
C747 H771 0.949 . S
H748 C752 0.949 . S
C749 C750 1.349 . S
C749 C751 1.327 . S
C749 H772 0.950 . S
C750 C749 1.349 . S
C750 C762 1.349 . S
C751 C749 1.327 . S
C751 C767 1.429 . S
C751 H773 0.950 . S
C752 H748 0.949 . S
C752 C760 1.574 . S
C752 C768 1.368 . S
H753 C761 0.950 . S
H754 C759 0.950 . S
H755 C760 0.949 . S
H756 C762 0.950 . S
H757 C763 0.950 . S
H758 C764 0.949 . S
C759 H754 0.950 . S
C759 C761 1.327 . S
C759 C765 1.429 . S
C760 C752 1.574 . S
C760 H755 0.949 . S
C760 C766 1.368 . S
C761 C745 1.349 . S
C761 H753 0.950 . S
C761 C759 1.327 . S
C762 C750 1.349 . S
C762 H756 0.950 . S
C762 C763 1.327 . S
C763 H757 0.950 . S
C763 C762 1.327 . S
C763 C767 1.429 . S
C764 C747 1.574 . S
C764 H758 0.949 . S
C764 C768 1.368 . S
C765 C746 1.429 . S
C765 C759 1.429 . S
C765 C766 1.523 . S
C766 C747 1.368 . S
C766 C760 1.368 . S
C766 C765 1.523 . S
C767 C751 1.429 . S
C767 C763 1.429 . S
C767 C768 1.523 . S
C768 C752 1.368 . S
C768 C764 1.368 . S
C768 C767 1.523 . S
H769 C744 0.950 . S
H770 C746 0.950 . S
H771 C747 0.949 . S
H772 C749 0.950 . S
H773 C751 0.950 . S
C774 C775 1.349 . S
C774 C776 1.327 . S
C774 H799 0.950 . S
C775 C774 1.349 . S
C775 C791 1.349 . S
C776 C774 1.327 . S
C776 C795 1.429 . S
C776 H800 0.950 . S
C777 C794 1.574 . S
C777 C796 1.368 . S
C777 H801 0.949 . S
H778 C782 0.949 . S
C779 C780 1.349 . S
C779 C781 1.327 . S
C779 H802 0.950 . S
C780 C779 1.349 . S
C780 C792 1.349 . S
C781 C779 1.327 . S
C781 C797 1.429 . S
C781 H803 0.950 . S
C782 H778 0.949 . S
C782 C790 1.574 . S
C782 C798 1.368 . S
H783 C791 0.950 . S
H784 C789 0.950 . S
H785 C790 0.949 . S
H786 C792 0.950 . S
H787 C793 0.950 . S
H788 C794 0.949 . S
C789 H784 0.950 . S
C789 C791 1.327 . S
C789 C795 1.429 . S
C790 C782 1.574 . S
C790 H785 0.949 . S
C790 C796 1.368 . S
C791 C775 1.349 . S
C791 H783 0.950 . S
C791 C789 1.327 . S
C792 C780 1.349 . S
C792 H786 0.950 . S
C792 C793 1.327 . S
C793 H787 0.950 . S
C793 C792 1.327 . S
C793 C797 1.429 . S
C794 C777 1.574 . S
C794 H788 0.949 . S
C794 C798 1.368 . S
C795 C776 1.429 . S
C795 C789 1.429 . S
C795 C796 1.523 . S
C796 C777 1.368 . S
C796 C790 1.368 . S
C796 C795 1.523 . S
C797 C781 1.429 . S
C797 C793 1.429 . S
C797 C798 1.523 . S
C798 C782 1.368 . S
C798 C794 1.368 . S
C798 C797 1.523 . S
H799 C774 0.950 . S
H800 C776 0.950 . S
H801 C777 0.949 . S
H802 C779 0.950 . S
H803 C781 0.950 . S
C804 C805 1.349 . S
C804 C806 1.327 . S
C804 H829 0.950 . S
C805 C804 1.349 . S
C805 C821 1.349 . S
C806 C804 1.327 . S
C806 C825 1.429 . S
C806 H830 0.950 . S
C807 C824 1.574 . S
C807 C826 1.368 . S
C807 H831 0.949 . S
H808 C812 0.949 . S
C809 C810 1.349 . S
C809 C811 1.327 . S
C809 H832 0.950 . S
C810 C809 1.349 . S
C810 C822 1.349 . S
C811 C809 1.327 . S
C811 C827 1.429 . S
C811 H833 0.950 . S
C812 H808 0.949 . S
C812 C820 1.574 . S
C812 C828 1.368 . S
H813 C821 0.950 . S
H814 C819 0.950 . S
H815 C820 0.949 . S
H816 C822 0.950 . S
H817 C823 0.950 . S
H818 C824 0.949 . S
C819 H814 0.950 . S
C819 C821 1.327 . S
C819 C825 1.429 . S
C820 C812 1.574 . S
C820 H815 0.949 . S
C820 C826 1.368 . S
C821 C805 1.349 . S
C821 H813 0.950 . S
C821 C819 1.327 . S
C822 C810 1.349 . S
C822 H816 0.950 . S
C822 C823 1.327 . S
C823 H817 0.950 . S
C823 C822 1.327 . S
C823 C827 1.429 . S
C824 C807 1.574 . S
C824 H818 0.949 . S
C824 C828 1.368 . S
C825 C806 1.429 . S
C825 C819 1.429 . S
C825 C826 1.523 . S
C826 C807 1.368 . S
C826 C820 1.368 . S
C826 C825 1.523 . S
C827 C811 1.429 . S
C827 C823 1.429 . S
C827 C828 1.523 . S
C828 C812 1.368 . S
C828 C824 1.368 . S
C828 C827 1.523 . S
H829 C804 0.950 . S
H830 C806 0.950 . S
H831 C807 0.949 . S
H832 C809 0.950 . S
H833 C811 0.950 . S
C834 C835 1.349 . S
C834 C836 1.327 . S
C834 H859 0.950 . S
C835 C834 1.349 . S
C835 C851 1.349 . S
C836 C834 1.327 . S
C836 C855 1.429 . S
C836 H860 0.950 . S
C837 C854 1.574 . S
C837 C856 1.368 . S
C837 H861 0.949 . S
H838 C842 0.949 . S
C839 C840 1.349 . S
C839 C841 1.327 . S
C839 H862 0.950 . S
C840 C839 1.349 . S
C840 C852 1.349 . S
C841 C839 1.327 . S
C841 C857 1.429 . S
C841 H863 0.950 . S
C842 H838 0.949 . S
C842 C850 1.574 . S
C842 C858 1.368 . S
H843 C851 0.950 . S
H844 C849 0.950 . S
H845 C850 0.949 . S
H846 C852 0.950 . S
H847 C853 0.950 . S
H848 C854 0.949 . S
C849 H844 0.950 . S
C849 C851 1.327 . S
C849 C855 1.429 . S
C850 C842 1.574 . S
C850 H845 0.949 . S
C850 C856 1.368 . S
C851 C835 1.349 . S
C851 H843 0.950 . S
C851 C849 1.327 . S
C852 C840 1.349 . S
C852 H846 0.950 . S
C852 C853 1.327 . S
C853 H847 0.950 . S
C853 C852 1.327 . S
C853 C857 1.429 . S
C854 C837 1.574 . S
C854 H848 0.949 . S
C854 C858 1.368 . S
C855 C836 1.429 . S
C855 C849 1.429 . S
C855 C856 1.523 . S
C856 C837 1.368 . S
C856 C850 1.368 . S
C856 C855 1.523 . S
C857 C841 1.429 . S
C857 C853 1.429 . S
C857 C858 1.523 . S
C858 C842 1.368 . S
C858 C854 1.368 . S
C858 C857 1.523 . S
H859 C834 0.950 . S
H860 C836 0.950 . S
H861 C837 0.949 . S
H862 C839 0.950 . S
H863 C841 0.950 . S
C864 C865 1.349 . S
C864 C866 1.327 . S
C864 H889 0.950 . S
C865 C864 1.349 . S
C865 C881 1.349 . S
C866 C864 1.327 . S
C866 C885 1.429 . S
C866 H890 0.950 . S
C867 C884 1.574 . S
C867 C886 1.368 . S
C867 H891 0.949 . S
H868 C872 0.949 . S
C869 C870 1.349 . S
C869 C871 1.327 . S
C869 H892 0.950 . S
C870 C869 1.349 . S
C870 C882 1.349 . S
C871 C869 1.327 . S
C871 C887 1.429 . S
C871 H893 0.950 . S
C872 H868 0.949 . S
C872 C880 1.574 . S
C872 C888 1.368 . S
H873 C881 0.950 . S
H874 C879 0.950 . S
H875 C880 0.949 . S
H876 C882 0.950 . S
H877 C883 0.950 . S
H878 C884 0.949 . S
C879 H874 0.950 . S
C879 C881 1.327 . S
C879 C885 1.429 . S
C880 C872 1.574 . S
C880 H875 0.949 . S
C880 C886 1.368 . S
C881 C865 1.349 . S
C881 H873 0.950 . S
C881 C879 1.327 . S
C882 C870 1.349 . S
C882 H876 0.950 . S
C882 C883 1.327 . S
C883 H877 0.950 . S
C883 C882 1.327 . S
C883 C887 1.429 . S
C884 C867 1.574 . S
C884 H878 0.949 . S
C884 C888 1.368 . S
C885 C866 1.429 . S
C885 C879 1.429 . S
C885 C886 1.523 . S
C886 C867 1.368 . S
C886 C880 1.368 . S
C886 C885 1.523 . S
C887 C871 1.429 . S
C887 C883 1.429 . S
C887 C888 1.523 . S
C888 C872 1.368 . S
C888 C884 1.368 . S
C888 C887 1.523 . S
H889 C864 0.950 . S
H890 C866 0.950 . S
H891 C867 0.949 . S
H892 C869 0.950 . S
H893 C871 0.950 . S
C894 C895 1.349 . S
C894 C896 1.327 . S
C894 H919 0.950 . S
C895 C894 1.349 . S
C895 C911 1.349 . S
C896 C894 1.327 . S
C896 C915 1.429 . S
C896 H920 0.950 . S
C897 C914 1.574 . S
C897 C916 1.368 . S
C897 H921 0.949 . S
H898 C902 0.949 . S
C899 C900 1.349 . S
C899 C901 1.327 . S
C899 H922 0.950 . S
C900 C899 1.349 . S
C900 C912 1.349 . S
C901 C899 1.327 . S
C901 C917 1.429 . S
C901 H923 0.950 . S
C902 H898 0.949 . S
C902 C910 1.574 . S
C902 C918 1.368 . S
H903 C911 0.950 . S
H904 C909 0.950 . S
H905 C910 0.949 . S
H906 C912 0.950 . S
H907 C913 0.950 . S
H908 C914 0.949 . S
C909 H904 0.950 . S
C909 C911 1.327 . S
C909 C915 1.429 . S
C910 C902 1.574 . S
C910 H905 0.949 . S
C910 C916 1.368 . S
C911 C895 1.349 . S
C911 H903 0.950 . S
C911 C909 1.327 . S
C912 C900 1.349 . S
C912 H906 0.950 . S
C912 C913 1.327 . S
C913 H907 0.950 . S
C913 C912 1.327 . S
C913 C917 1.429 . S
C914 C897 1.574 . S
C914 H908 0.949 . S
C914 C918 1.368 . S
C915 C896 1.429 . S
C915 C909 1.429 . S
C915 C916 1.523 . S
C916 C897 1.368 . S
C916 C910 1.368 . S
C916 C915 1.523 . S
C917 C901 1.429 . S
C917 C913 1.429 . S
C917 C918 1.523 . S
C918 C902 1.368 . S
C918 C914 1.368 . S
C918 C917 1.523 . S
H919 C894 0.950 . S
H920 C896 0.950 . S
H921 C897 0.949 . S
H922 C899 0.950 . S
H923 C901 0.950 . S
C924 C925 1.349 . S
C924 C926 1.327 . S
C924 H949 0.950 . S
C925 C924 1.349 . S
C925 C941 1.349 . S
C926 C924 1.327 . S
C926 C945 1.429 . S
C926 H950 0.950 . S
C927 C944 1.574 . S
C927 C946 1.368 . S
C927 H951 0.949 . S
H928 C932 0.949 . S
C929 C930 1.349 . S
C929 C931 1.327 . S
C929 H952 0.950 . S
C930 C929 1.349 . S
C930 C942 1.349 . S
C931 C929 1.327 . S
C931 C947 1.429 . S
C931 H953 0.950 . S
C932 H928 0.949 . S
C932 C940 1.574 . S
C932 C948 1.368 . S
H933 C941 0.950 . S
H934 C939 0.950 . S
H935 C940 0.949 . S
H936 C942 0.950 . S
H937 C943 0.950 . S
H938 C944 0.949 . S
C939 H934 0.950 . S
C939 C941 1.327 . S
C939 C945 1.429 . S
C940 C932 1.574 . S
C940 H935 0.949 . S
C940 C946 1.368 . S
C941 C925 1.349 . S
C941 H933 0.950 . S
C941 C939 1.327 . S
C942 C930 1.349 . S
C942 H936 0.950 . S
C942 C943 1.327 . S
C943 H937 0.950 . S
C943 C942 1.327 . S
C943 C947 1.429 . S
C944 C927 1.574 . S
C944 H938 0.949 . S
C944 C948 1.368 . S
C945 C926 1.429 . S
C945 C939 1.429 . S
C945 C946 1.523 . S
C946 C927 1.368 . S
C946 C940 1.368 . S
C946 C945 1.523 . S
C947 C931 1.429 . S
C947 C943 1.429 . S
C947 C948 1.523 . S
C948 C932 1.368 . S
C948 C944 1.368 . S
C948 C947 1.523 . S
H949 C924 0.950 . S
H950 C926 0.950 . S
H951 C927 0.949 . S
H952 C929 0.950 . S
H953 C931 0.950 . S
C954 C955 1.349 . S
C954 C956 1.327 . S
C954 H979 0.950 . S
C955 C954 1.349 . S
C955 C971 1.349 . S
C956 C954 1.327 . S
C956 C975 1.429 . S
C956 H980 0.950 . S
C957 C974 1.574 . S
C957 C976 1.368 . S
C957 H981 0.949 . S
H958 C962 0.949 . S
C959 C960 1.349 . S
C959 C961 1.327 . S
C959 H982 0.950 . S
C960 C959 1.349 . S
C960 C972 1.349 . S
C961 C959 1.327 . S
C961 C977 1.429 . S
C961 H983 0.950 . S
C962 H958 0.949 . S
C962 C970 1.574 . S
C962 C978 1.368 . S
H963 C971 0.950 . S
H964 C969 0.950 . S
H965 C970 0.949 . S
H966 C972 0.950 . S
H967 C973 0.950 . S
H968 C974 0.949 . S
C969 H964 0.950 . S
C969 C971 1.327 . S
C969 C975 1.429 . S
C970 C962 1.574 . S
C970 H965 0.949 . S
C970 C976 1.368 . S
C971 C955 1.349 . S
C971 H963 0.950 . S
C971 C969 1.327 . S
C972 C960 1.349 . S
C972 H966 0.950 . S
C972 C973 1.327 . S
C973 H967 0.950 . S
C973 C972 1.327 . S
C973 C977 1.429 . S
C974 C957 1.574 . S
C974 H968 0.949 . S
C974 C978 1.368 . S
C975 C956 1.429 . S
C975 C969 1.429 . S
C975 C976 1.523 . S
C976 C957 1.368 . S
C976 C970 1.368 . S
C976 C975 1.523 . S
C977 C961 1.429 . S
C977 C973 1.429 . S
C977 C978 1.523 . S
C978 C962 1.368 . S
C978 C974 1.368 . S
C978 C977 1.523 . S
H979 C954 0.950 . S
H980 C956 0.950 . S
H981 C957 0.949 . S
H982 C959 0.950 . S
H983 C961 0.950 . S
C265 N1 0.812 . S
C270 C119 0.817 . S
C295 N18 1.704 . S
C300 C163 1.731 1_556 S
C330 C193 1.574 . S
C325 N28 1.575 . S
C355 N40 2.896 . S
C360 C234 2.882 . S
C390 C150 1.160 . S
C385 N5 1.170 . S
C420 C114 2.439 . S
C415 N14 2.397 . S
C450 C242 1.229 . S
C445 N31 1.232 . S
C480 C203 1.803 . S
C475 N41 1.832 . S
C505 N2 0.559 . S
C510 C239 0.555 . S
C540 C153 2.172 1_556 S
C535 N27 2.232 . S
C565 N44 2.126 . S
C570 C122 2.161 1_655 S
C595 N15 1.620 . S
C600 C190 1.626 . S
C630 C110 1.473 . S
C625 N57 1.500 . S
C655 N70 1.206 . S
C660 C154 1.221 . S
C685 N79 1.933 . S
C690 C202 2.006 . S
C715 N93 2.646 . S
C720 C243 2.605 . S
C745 N54 0.579 . S
C750 C159 0.563 . S
C780 C123 3.056 1_655 S
C775 N66 3.078 . S
C810 C233 0.546 . S
C805 N80 0.548 . S
C840 C194 2.005 . S
C835 N96 2.069 . S
C865 N53 0.638 . S
C870 C230 0.619 . S
C900 C162 1.562 . S
C895 N83 1.540 . S
C930 C113 2.222 . S
C925 N92 2.315 . S
C955 N67 1.974 . S
C960 C199 1.960 . S
