# Generated by pormake.
# Topology pto, (3,4)-cn, num edge types: 1
# Building blocks:
#     Node 0, Type 0, BuildingBlock: OLANEW_clean_sbu_2, # of connection points: 3
#     Node 1, Type 0, BuildingBlock: OLANEW_clean_sbu_2, # of connection points: 3
#     Node 2, Type 0, BuildingBlock: OLANEW_clean_sbu_2, # of connection points: 3
#     Node 3, Type 0, BuildingBlock: OLANEW_clean_sbu_2, # of connection points: 3
#     Node 4, Type 0, BuildingBlock: OLANEW_clean_sbu_2, # of connection points: 3
#     Node 5, Type 0, BuildingBlock: OLANEW_clean_sbu_2, # of connection points: 3
#     Node 6, Type 0, BuildingBlock: OLANEW_clean_sbu_2, # of connection points: 3
#     Node 7, Type 0, BuildingBlock: OLANEW_clean_sbu_2, # of connection points: 3
#     Node 8, Type 1, BuildingBlock: NAWXER_clean_linker_0, # of connection points: 4
#     Node 9, Type 1, BuildingBlock: NAWXER_clean_linker_0, # of connection points: 4
#     Node 10, Type 1, BuildingBlock: NAWXER_clean_linker_0, # of connection points: 4
#     Node 11, Type 1, BuildingBlock: NAWXER_clean_linker_0, # of connection points: 4
#     Node 12, Type 1, BuildingBlock: NAWXER_clean_linker_0, # of connection points: 4
#     Node 13, Type 1, BuildingBlock: NAWXER_clean_linker_0, # of connection points: 4
#     Edge 14, Type (0, 1), None
#     Edge 15, Type (0, 1), None
#     Edge 16, Type (0, 1), None
#     Edge 17, Type (0, 1), None
#     Edge 18, Type (0, 1), None
#     Edge 19, Type (0, 1), None
#     Edge 20, Type (0, 1), None
#     Edge 21, Type (0, 1), None
#     Edge 22, Type (0, 1), None
#     Edge 23, Type (0, 1), None
#     Edge 24, Type (0, 1), None
#     Edge 25, Type (0, 1), None
#     Edge 26, Type (0, 1), None
#     Edge 27, Type (0, 1), None
#     Edge 28, Type (0, 1), None
#     Edge 29, Type (0, 1), None
#     Edge 30, Type (0, 1), None
#     Edge 31, Type (0, 1), None
#     Edge 32, Type (0, 1), None
#     Edge 33, Type (0, 1), None
#     Edge 34, Type (0, 1), None
#     Edge 35, Type (0, 1), None
#     Edge 36, Type (0, 1), None
#     Edge 37, Type (0, 1), None
# Relax obj value: 0.012
# Max RMSD: 0.115
# Mean RMSD: 0.050
data_MOF--net-pto--node1-OLANEW_clean_sbu_2--node2-NAWXER_clean_linker_0--edge1-none
_symmetry_space_group_name_H-M    P1
_symmetry_Int_Tables_number       1
_symmetry_cell_setting            triclinic
loop_
_symmetry_equiv_pos_as_xyz
'x, y, z'
_cell_length_a     23.003216
_cell_length_b     33.395056
_cell_length_c     27.881614
_cell_angle_alpha  92.811395
_cell_angle_beta   89.726377
_cell_angle_gamma 107.3974
loop_
_atom_site_label
_atom_site_type_symbol
_atom_site_fract_x
_atom_site_fract_y
_atom_site_fract_z
_atom_type_partial_charge
O0 O 0.25174 0.30348 0.26711 0.0
Cd1 Cd 0.21214 0.30443 0.34818 0.0
O2 O 0.33498 0.35399 0.28779 0.0
Cd3 Cd 0.28783 0.37468 0.34751 0.0
O4 O 0.22387 0.41118 0.35592 0.0
C5 C 0.214 0.4253 0.31626 0.0
O6 O 0.24155 0.41616 0.27769 0.0
C7 C 0.30554 0.32552 0.2575 0.0
C8 C 0.27994 0.26645 0.40279 0.0
O9 O 0.23103 0.2448 0.38076 0.0
O10 O 0.29564 0.30651 0.40076 0.0
O11 O 0.53544 0.91502 0.75429 0.0
Cd12 Cd 0.55006 0.9202 0.6678 0.0
O13 O 0.44987 0.86666 0.73558 0.0
Cd14 Cd 0.36594 0.81569 0.74626 0.0
O15 O 0.28818 0.75891 0.73845 0.0
C16 C 0.23375 0.75916 0.74604 0.0
O17 O 0.22356 0.79455 0.7602 0.0
C18 C 0.48779 0.88737 0.76754 0.0
C19 C 0.53289 0.99242 0.63339 0.0
O20 O 0.48765 0.96042 0.64208 0.0
O21 O 0.58685 0.99053 0.64122 0.0
O22 O 0.83419 0.8465 0.33289 0.0
Cd23 Cd 0.82117 0.78385 0.27879 0.0
O24 O 0.73974 0.8215 0.35756 0.0
Cd25 Cd 0.71333 0.77126 0.30196 0.0
O26 O 0.66873 0.76183 0.23182 0.0
C27 C 0.69845 0.78214 0.19767 0.0
O28 O 0.75559 0.80435 0.20516 0.0
C29 C 0.79098 0.84989 0.35997 0.0
C30 C 0.89506 0.73217 0.29222 0.0
O31 O 0.90927 0.76116 0.26196 0.0
O32 O 0.8472 0.72862 0.31745 0.0
O33 O 0.76065 0.33755 0.67794 0.0
Cd34 Cd 0.67992 0.27141 0.66249 0.0
O35 O 0.69482 0.37274 0.69222 0.0
Cd36 Cd 0.61529 0.31787 0.69934 0.0
O37 O 0.55406 0.29884 0.75975 0.0
C38 C 0.57211 0.32447 0.79567 0.0
O39 O 0.62151 0.35634 0.79119 0.0
C40 C 0.74951 0.37226 0.6866 0.0
C41 C 0.7247 0.20817 0.62314 0.0
O42 O 0.71819 0.23739 0.59756 0.0
O43 O 0.71016 0.20863 0.66754 0.0
O44 O 0.84694 0.83167 0.54267 0.0
Cd45 Cd 0.83521 0.75657 0.53083 0.0
O46 O 0.78871 0.82253 0.60602 0.0
Cd47 Cd 0.73996 0.83876 0.66786 0.0
O48 O 0.69764 0.84274 0.73754 0.0
C49 C 0.67413 0.80963 0.7601 0.0
O50 O 0.67467 0.77316 0.74047 0.0
C51 C 0.81982 0.84689 0.57536 0.0
C52 C 0.89164 0.71879 0.59575 0.0
O53 O 0.9199 0.73575 0.55865 0.0
O54 O 0.83777 0.72136 0.60313 0.0
O55 O 0.83407 0.34043 0.31509 0.0
Cd56 Cd 0.75286 0.27266 0.30462 0.0
O57 O 0.77278 0.37661 0.33959 0.0
Cd58 Cd 0.69208 0.32529 0.31766 0.0
O59 O 0.62505 0.30421 0.25933 0.0
C60 C 0.64031 0.32367 0.22097 0.0
O61 O 0.6936 0.35249 0.21972 0.0
C62 C 0.82626 0.37496 0.3306 0.0
C63 C 0.7636 0.20681 0.3595 0.0
O64 O 0.79248 0.21542 0.32005 0.0
O65 O 0.73057 0.22985 0.37374 0.0
O66 O 0.15261 0.30885 0.86975 0.0
Cd67 Cd 0.07127 0.30652 0.81258 0.0
O68 O 0.21605 0.32061 0.80965 0.0
Cd69 Cd 0.30086 0.32124 0.77393 0.0
O70 O 0.35464 0.29773 0.72138 0.0
C71 C 0.32444 0.27668 0.68566 0.0
O72 O 0.26578 0.27214 0.68291 0.0
C73 C 0.20613 0.31418 0.8539 0.0
C74 C 0.05709 0.38405 0.79262 0.0
O75 O 0.02654 0.36225 0.82599 0.0
O76 O 0.09538 0.3696 0.76947 0.0
O77 O 0.56865 0.92243 0.25469 0.0
Cd78 Cd 0.58585 0.93612 0.3414 0.0
O79 O 0.47499 0.88281 0.26301 0.0
Cd80 Cd 0.38364 0.83795 0.25283 0.0
O81 O 0.29687 0.79021 0.26591 0.0
C82 C 0.27655 0.75941 0.2358 0.0
O83 O 0.30727 0.75771 0.19628 0.0
C84 C 0.51982 0.89819 0.23561 0.0
C85 C 0.54648 1.00029 0.38468 0.0
O86 O 0.59917 0.00835 0.36539 0.0
O87 O 0.51196 0.96216 0.38219 0.0
C88 C 0.92657 0.41819 0.30019 0.0
C89 C 0.87769 0.41437 0.33176 0.0
C90 C 0.97032 0.45705 0.29516 0.0
C91 C 0.96797 0.49282 0.32312 0.0
C92 C 0.87499 0.44998 0.35971 0.0
C93 C 0.91983 0.48871 0.35562 0.0
C94 C 0.01148 0.53508 0.31513 0.0
C95 C 0.13903 0.45956 0.35211 0.0
C96 C 0.17504 0.4532 0.31325 0.0
C97 C 0.10421 0.48735 0.34901 0.0
C98 C 0.10523 0.50924 0.30711 0.0
C99 C 0.17491 0.47467 0.27117 0.0
C100 C 0.14085 0.50266 0.26834 0.0
C101 C 0.07361 0.54157 0.30428 0.0
C102 C 0.18903 0.72522 0.28934 0.0
C103 C 0.22256 0.72392 0.24715 0.0
C104 C 0.14191 0.68989 0.30207 0.0
C105 C 0.12763 0.65278 0.27279 0.0
C106 C 0.20638 0.68718 0.21715 0.0
C107 C 0.1598 0.65194 0.23006 0.0
C108 C 0.08498 0.61311 0.28854 0.0
C109 C 0.97101 0.69792 0.25929 0.0
C110 C 0.93091 0.7022 0.29602 0.0
C111 C 0.00136 0.66742 0.26087 0.0
C112 C 0.9938 0.64136 0.3 0.0
C113 C 0.92272 0.67582 0.33484 0.0
C114 C 0.9539 0.64579 0.33682 0.0
C115 C 0.02366 0.6076 0.30155 0.0
H116 H 0.9291 0.39168 0.27718 0.0
H117 H 0.0043 0.45921 0.26768 0.0
H118 H 0.83748 0.4481 0.384 0.0
H119 H 0.9161 0.51572 0.37713 0.0
H120 H 0.13821 0.44343 0.38499 0.0
H121 H 0.07777 0.49252 0.37966 0.0
H122 H 0.20219 0.47059 0.24061 0.0
H123 H 0.14255 0.51943 0.2358 0.0
H124 H 0.20032 0.75308 0.31322 0.0
H125 H 0.11834 0.69101 0.3356 0.0
H126 H 0.23106 0.68504 0.18443 0.0
H127 H 0.14977 0.62351 0.2071 0.0
H128 H 0.97741 0.71719 0.22841 0.0
H129 H 0.02936 0.6636 0.23074 0.0
H130 H 0.89188 0.67816 0.36358 0.0
H131 H 0.94655 0.6258 0.36711 0.0
N132 N 0.98934 0.56866 0.31409 0.0
N133 N 0.10725 0.57998 0.2908 0.0
C134 C 0.85941 0.41392 0.67784 0.0
C135 C 0.7999 0.41209 0.69178 0.0
C136 C 0.90685 0.45154 0.68366 0.0
C137 C 0.89601 0.48776 0.70469 0.0
C138 C 0.78888 0.4487 0.71146 0.0
C139 C 0.83641 0.48609 0.7178 0.0
C140 C 0.94544 0.52809 0.71101 0.0
C141 C 0.9969 0.4354 0.79901 0.0
C142 C 0.04632 0.4237 0.77958 0.0
C143 C 0.9837 0.47099 0.78372 0.0
C144 C 0.01964 0.49548 0.74871 0.0
C145 C 0.08359 0.44923 0.74588 0.0
C146 C 0.07062 0.48501 0.7309 0.0
C147 C 0.00369 0.5315 0.7299 0.0
C148 C 0.12266 0.71898 0.75027 0.0
C149 C 0.18254 0.72006 0.73824 0.0
C150 C 0.07457 0.68187 0.74312 0.0
C151 C 0.08527 0.6453 0.72304 0.0
C152 C 0.19316 0.6833 0.71867 0.0
C153 C 0.14508 0.64635 0.71129 0.0
C154 C 0.03562 0.60509 0.71716 0.0
C155 C 0.97546 0.68857 0.61653 0.0
C156 C 0.9181 0.69375 0.62673 0.0
C157 C 0.99647 0.66016 0.64146 0.0
C158 C 0.96069 0.63667 0.67728 0.0
C159 C 0.88363 0.6715 0.66399 0.0
C160 C 0.90455 0.64305 0.68875 0.0
C161 C 0.97722 0.60169 0.69841 0.0
H162 H 0.86927 0.38642 0.66203 0.0
H163 H 0.95185 0.45231 0.67132 0.0
H164 H 0.74357 0.44842 0.72255 0.0
H165 H 0.82666 0.51371 0.73345 0.0
H166 H 0.96747 0.41653 0.82517 0.0
H167 H 0.94482 0.47902 0.79864 0.0
H168 H 0.12223 0.44123 0.73049 0.0
H169 H 0.09923 0.50375 0.70419 0.0
H170 H 0.11299 0.74664 0.7658 0.0
H171 H 0.02928 0.68164 0.75415 0.0
H172 H 0.2387 0.68299 0.70902 0.0
H173 H 0.15467 0.61848 0.69625 0.0
H174 H 0.00304 0.70511 0.58792 0.0
H175 H 0.03928 0.65512 0.63111 0.0
H176 H 0.83926 0.6747 0.67278 0.0
H177 H 0.87597 0.62505 0.71599 0.0
N178 N 0.93452 0.56337 0.69636 0.0
N179 N 0.04657 0.56974 0.73193 0.0
C180 C 0.30683 0.20186 0.42171 0.0
C181 C 0.31829 0.24553 0.42806 0.0
C182 C 0.34366 0.18186 0.44425 0.0
C183 C 0.39209 0.20495 0.47422 0.0
C184 C 0.3677 0.26885 0.45731 0.0
C185 C 0.40427 0.24868 0.48034 0.0
C186 C 0.4275 0.18226 0.49998 0.0
C187 C 0.41595 0.25921 0.6522 0.0
C188 C 0.35349 0.25539 0.64927 0.0
C189 C 0.44213 0.23699 0.61919 0.0
C190 C 0.40654 0.21092 0.58249 0.0
C191 C 0.31809 0.22943 0.61227 0.0
C192 C 0.34422 0.20711 0.57951 0.0
C193 C 0.43342 0.18468 0.55059 0.0
C194 C 0.56653 0.05655 0.58525 0.0
C195 C 0.52265 0.03005 0.61406 0.0
C196 C 0.55437 0.09036 0.56409 0.0
C197 C 0.49822 0.09808 0.57176 0.0
C198 C 0.46737 0.03869 0.62273 0.0
C199 C 0.45554 0.07266 0.60212 0.0
C200 C 0.4808 0.13024 0.54581 0.0
C201 C 0.47447 0.02301 0.43935 0.0
C202 C 0.52695 0.03364 0.41084 0.0
C203 C 0.4577 0.05403 0.46634 0.0
C204 C 0.49286 0.09624 0.46511 0.0
C205 C 0.56157 0.07614 0.40912 0.0
C206 C 0.54429 0.10726 0.43579 0.0
C207 C 0.47633 0.12856 0.49532 0.0
H208 H 0.26954 0.18304 0.39907 0.0
H209 H 0.33341 0.14807 0.43914 0.0
H210 H 0.37791 0.3026 0.46261 0.0
H211 H 0.4418 0.26712 0.50302 0.0
H212 H 0.4444 0.27879 0.68042 0.0
H213 H 0.49012 0.2398 0.6226 0.0
H214 H 0.26975 0.22547 0.60923 0.0
H215 H 0.31527 0.18601 0.55267 0.0
H216 H 0.60911 0.05014 0.57757 0.0
H217 H 0.58805 0.1098 0.54094 0.0
H218 H 0.43292 0.01888 0.64501 0.0
H219 H 0.41189 0.07807 0.60834 0.0
H220 H 0.44692 0.99059 0.44158 0.0
H221 H 0.41763 0.04507 0.48865 0.0
H222 H 0.60219 0.08533 0.38747 0.0
H223 H 0.57174 0.13977 0.4344 0.0
N224 N 0.44946 0.15437 0.4742 0.0
N225 N 0.45948 0.15834 0.57155 0.0
C226 C 0.5059 0.90787 0.85483 0.0
C227 C 0.48116 0.8768 0.81846 0.0
C228 C 0.51276 0.89662 0.90168 0.0
C229 C 0.49633 0.85412 0.9123 0.0
C230 C 0.45885 0.83466 0.83056 0.0
C231 C 0.46637 0.82342 0.87717 0.0
C232 C 0.52425 0.8413 0.95417 0.0
C233 C 0.61984 0.77569 0.83291 0.0
C234 C 0.64768 0.81226 0.80826 0.0
C235 C 0.59507 0.77846 0.8785 0.0
C236 C 0.5974 0.81776 0.8999 0.0
C237 C 0.65082 0.85157 0.83038 0.0
C238 C 0.62643 0.85427 0.87588 0.0
C239 C 0.56992 0.82123 0.94739 0.0
C240 C 0.60312 0.77304 0.14975 0.0
C241 C 0.66711 0.786 0.15276 0.0
C242 C 0.57359 0.78186 0.10974 0.0
C243 C 0.60755 0.80366 0.07207 0.0
C244 C 0.70088 0.80603 0.11392 0.0
C245 C 0.67131 0.81451 0.07378 0.0
C246 C 0.57715 0.81664 0.03164 0.0
C247 C 0.57406 0.90048 0.15762 0.0
C248 C 0.5195 0.88628 0.18336 0.0
C249 C 0.57784 0.88663 0.11011 0.0
C250 C 0.52727 0.85822 0.08686 0.0
C251 C 0.46779 0.85946 0.15908 0.0
C252 C 0.47163 0.84563 0.11106 0.0
C253 C 0.53527 0.83997 0.03874 0.0
H254 H 0.52344 0.9406 0.84636 0.0
H255 H 0.5366 0.9207 0.92816 0.0
H256 H 0.44103 0.80993 0.80323 0.0
H257 H 0.45403 0.7904 0.88461 0.0
H258 H 0.61696 0.74492 0.81697 0.0
H259 H 0.57331 0.74998 0.89671 0.0
H260 H 0.67242 0.88037 0.81269 0.0
H261 H 0.63026 0.885 0.89239 0.0
H262 H 0.57579 0.75746 0.17903 0.0
H263 H 0.52427 0.77242 0.10864 0.0
H264 H 0.75022 0.81618 0.11505 0.0
H265 H 0.69834 0.83109 0.04491 0.0
H266 H 0.61488 0.92141 0.17458 0.0
H267 H 0.62109 0.89711 0.09188 0.0
H268 H 0.42477 0.84842 0.17704 0.0
H269 H 0.43195 0.82385 0.09353 0.0
N270 N 0.50942 0.8511 -0.00034 0.0
N271 N 0.59398 0.80891 0.98625 0.0
C272 C 0.72527 0.15466 0.42311 0.0
C273 C 0.76811 0.17117 0.38751 0.0
C274 C 0.72982 0.12103 0.44945 0.0
C275 C 0.77868 0.10432 0.44193 0.0
C276 C 0.8151 0.15299 0.37846 0.0
C277 C 0.82035 0.11999 0.40544 0.0
C278 C 0.78707 0.0705 0.47136 0.0
C279 C 0.78973 0.18268 0.56465 0.0
C280 C 0.74644 0.17423 0.60136 0.0
C281 C 0.80664 0.15001 0.54114 0.0
C282 C 0.77786 0.10805 0.55202 0.0
C283 C 0.72216 0.13282 0.61551 0.0
C284 C 0.73763 0.09998 0.59091 0.0
C285 C 0.78734 0.07229 0.52248 0.0
C286 C 0.87069 0.92 0.55202 0.0
C287 C 0.8214 0.89149 0.57405 0.0
C288 C 0.86687 0.95904 0.53936 0.0
C289 C 0.8135 0.97023 0.54809 0.0
C290 C 0.77022 0.90434 0.58687 0.0
C291 C 0.76641 0.94361 0.57411 0.0
C292 C 0.80267 0.0047 0.52155 0.0
C293 C 0.75164 0.8893 0.42433 0.0
C294 C 0.79717 0.8884 0.39083 0.0
C295 C 0.753 0.92649 0.44991 0.0
C296 C 0.80004 0.96362 0.44288 0.0
C297 C 0.84475 0.92559 0.38412 0.0
C298 C 0.84589 0.96304 0.40975 0.0
C299 C 0.80092 0.00257 0.47095 0.0
H300 H 0.68798 0.16753 0.4304 0.0
H301 H 0.6958 0.10858 0.47624 0.0
H302 H 0.84856 0.16474 0.35106 0.0
H303 H 0.85786 0.10724 0.39842 0.0
H304 H 0.8102 0.21455 0.55392 0.0
H305 H 0.84054 0.1575 0.51326 0.0
H306 H 0.68905 0.12557 0.64403 0.0
H307 H 0.71626 0.06807 0.60108 0.0
H308 H 0.91079 0.91108 0.54182 0.0
H309 H 0.90374 0.97917 0.51934 0.0
H310 H 0.73097 0.88283 0.60286 0.0
H311 H 0.72459 0.9515 0.58069 0.0
H312 H 0.71417 0.86137 0.43026 0.0
H313 H 0.71678 0.92637 0.47494 0.0
H314 H 0.88012 0.92605 0.3582 0.0
H315 H 0.88259 0.99143 0.4039 0.0
N316 N 0.79396 0.03562 0.44768 0.0
N317 N 0.79504 0.03913 0.54562 0.0
C318 C 0.31482 0.33618 0.88226 0.0
C319 C 0.25464 0.31014 0.88601 0.0
C320 C 0.35977 0.33348 0.91454 0.0
C321 C 0.34568 0.30369 0.95014 0.0
C322 C 0.24039 0.28082 0.92188 0.0
C323 C 0.28548 0.27747 0.95339 0.0
C324 C 0.39041 0.30272 0.98793 0.0
C325 C 0.48502 0.2866 0.84783 0.0
C326 C 0.5397 0.31901 0.84201 0.0
C327 C 0.4557 0.28208 0.89235 0.0
C328 C 0.48053 0.31008 0.93147 0.0
C329 C 0.56425 0.3467 0.8814 0.0
C330 C 0.53519 0.34213 0.92559 0.0
C331 C 0.45231 0.30591 0.97945 0.0
C332 C 0.54076 0.28555 0.17975 0.0
C333 C 0.59779 0.31644 0.17949 0.0
C334 C 0.49954 0.28088 0.1416 0.0
C335 C 0.51419 0.30753 0.10293 0.0
C336 C 0.61337 0.34163 0.13964 0.0
C337 C 0.57207 0.33714 0.10176 0.0
C338 C 0.46961 0.30546 0.06391 0.0
C339 C 0.38933 0.34646 0.19769 0.0
C340 C 0.33305 0.31887 0.2109 0.0
C341 C 0.41417 0.34124 0.15291 0.0
C342 C 0.38388 0.30782 0.12085 0.0
C343 C 0.30253 0.28567 0.17855 0.0
C344 C 0.32765 0.28032 0.13385 0.0
C345 C 0.40829 0.30344 0.0724 0.0
H346 H 0.32658 0.3598 0.85566 0.0
H347 H 0.40483 0.35568 0.91256 0.0
H348 H 0.19427 0.26042 0.92558 0.0
H349 H 0.27303 0.25473 0.98096 0.0
H350 H 0.46509 0.26471 0.81815 0.0
H351 H 0.41412 0.2566 0.89633 0.0
H352 H 0.60631 0.37195 0.87833 0.0
H353 H 0.55537 0.36396 0.95529 0.0
H354 H 0.52765 0.2653 0.20963 0.0
H355 H 0.4559 0.25686 0.14268 0.0
H356 H 0.65706 0.36555 0.13807 0.0
H357 H 0.58475 0.35777 0.07216 0.0
H358 H 0.4137 0.37262 0.22153 0.0
H359 H 0.45657 0.3638 0.14304 0.0
H360 H 0.25898 0.26396 0.18755 0.0
H361 H 0.30309 0.25473 0.10933 0.0
N362 N 0.3711 0.30154 0.03415 0.0
N363 N 0.48926 0.30712 0.01781 0.0
loop_
_geom_bond_atom_site_label_1
_geom_bond_atom_site_label_2
_geom_bond_distance
_geom_bond_site_symmetry_2
_ccdc_geom_bond_type
O0 Cd1 2.300 . S
O0 C7 1.275 . S
Cd1 O0 2.300 . S
Cd1 O9 2.381 . S
Cd1 O10 2.378 . S
O2 Cd3 2.385 . S
O2 C7 1.255 . S
Cd3 O2 2.385 . S
Cd3 O4 2.317 . S
O4 Cd3 2.317 . S
O4 C5 1.232 . S
C5 O4 1.232 . S
C5 O6 1.218 . S
O6 C5 1.218 . S
C7 O0 1.275 . S
C7 O2 1.255 . S
C8 O9 1.258 . S
C8 O10 1.256 . S
O9 Cd1 2.381 . S
O9 C8 1.258 . S
O10 Cd1 2.378 . S
O10 C8 1.256 . S
O11 Cd12 2.300 . S
O11 C18 1.275 . S
Cd12 O11 2.300 . S
Cd12 O20 2.381 . S
Cd12 O21 2.378 . S
O13 Cd14 2.385 . S
O13 C18 1.255 . S
Cd14 O13 2.385 . S
Cd14 O15 2.317 . S
O15 Cd14 2.317 . S
O15 C16 1.232 . S
C16 O15 1.232 . S
C16 O17 1.218 . S
O17 C16 1.218 . S
C18 O11 1.275 . S
C18 O13 1.255 . S
C19 O20 1.258 . S
C19 O21 1.256 . S
O20 Cd12 2.381 . S
O20 C19 1.258 . S
O21 Cd12 2.378 . S
O21 C19 1.256 . S
O22 Cd23 2.300 . S
O22 C29 1.275 . S
Cd23 O22 2.300 . S
Cd23 O31 2.381 . S
Cd23 O32 2.378 . S
O24 Cd25 2.385 . S
O24 C29 1.255 . S
Cd25 O24 2.385 . S
Cd25 O26 2.317 . S
O26 Cd25 2.317 . S
O26 C27 1.232 . S
C27 O26 1.232 . S
C27 O28 1.218 . S
O28 C27 1.218 . S
C29 O22 1.275 . S
C29 O24 1.255 . S
C30 O31 1.258 . S
C30 O32 1.256 . S
O31 Cd23 2.381 . S
O31 C30 1.258 . S
O32 Cd23 2.378 . S
O32 C30 1.256 . S
O33 Cd34 2.300 . S
O33 C40 1.275 . S
Cd34 O33 2.300 . S
Cd34 O42 2.381 . S
Cd34 O43 2.378 . S
O35 Cd36 2.385 . S
O35 C40 1.255 . S
Cd36 O35 2.385 . S
Cd36 O37 2.317 . S
O37 Cd36 2.317 . S
O37 C38 1.232 . S
C38 O37 1.232 . S
C38 O39 1.218 . S
O39 C38 1.218 . S
C40 O33 1.275 . S
C40 O35 1.255 . S
C41 O42 1.258 . S
C41 O43 1.256 . S
O42 Cd34 2.381 . S
O42 C41 1.258 . S
O43 Cd34 2.378 . S
O43 C41 1.256 . S
O44 Cd45 2.300 . S
O44 C51 1.275 . S
Cd45 O44 2.300 . S
Cd45 O53 2.381 . S
Cd45 O54 2.378 . S
O46 Cd47 2.385 . S
O46 C51 1.255 . S
Cd47 O46 2.385 . S
Cd47 O48 2.317 . S
O48 Cd47 2.317 . S
O48 C49 1.232 . S
C49 O48 1.232 . S
C49 O50 1.218 . S
O50 C49 1.218 . S
C51 O44 1.275 . S
C51 O46 1.255 . S
C52 O53 1.258 . S
C52 O54 1.256 . S
O53 Cd45 2.381 . S
O53 C52 1.258 . S
O54 Cd45 2.378 . S
O54 C52 1.256 . S
O55 Cd56 2.300 . S
O55 C62 1.275 . S
Cd56 O55 2.300 . S
Cd56 O64 2.381 . S
Cd56 O65 2.378 . S
O57 Cd58 2.385 . S
O57 C62 1.255 . S
Cd58 O57 2.385 . S
Cd58 O59 2.317 . S
O59 Cd58 2.317 . S
O59 C60 1.232 . S
C60 O59 1.232 . S
C60 O61 1.218 . S
O61 C60 1.218 . S
C62 O55 1.275 . S
C62 O57 1.255 . S
C63 O64 1.258 . S
C63 O65 1.256 . S
O64 Cd56 2.381 . S
O64 C63 1.258 . S
O65 Cd56 2.378 . S
O65 C63 1.256 . S
O66 Cd67 2.300 . S
O66 C73 1.275 . S
Cd67 O66 2.300 . S
Cd67 O75 2.381 . S
Cd67 O76 2.378 . S
O68 Cd69 2.385 . S
O68 C73 1.255 . S
Cd69 O68 2.385 . S
Cd69 O70 2.317 . S
O70 Cd69 2.317 . S
O70 C71 1.232 . S
C71 O70 1.232 . S
C71 O72 1.218 . S
O72 C71 1.218 . S
C73 O66 1.275 . S
C73 O68 1.255 . S
C74 O75 1.258 . S
C74 O76 1.256 . S
O75 Cd67 2.381 . S
O75 C74 1.258 . S
O76 Cd67 2.378 . S
O76 C74 1.256 . S
O77 Cd78 2.300 . S
O77 C84 1.275 . S
Cd78 O77 2.300 . S
Cd78 O86 2.381 . S
Cd78 O87 2.378 . S
O79 Cd80 2.385 . S
O79 C84 1.255 . S
Cd80 O79 2.385 . S
Cd80 O81 2.317 . S
O81 Cd80 2.317 . S
O81 C82 1.232 . S
C82 O81 1.232 . S
C82 O83 1.218 . S
O83 C82 1.218 . S
C84 O77 1.275 . S
C84 O79 1.255 . S
C85 O86 1.258 . S
C85 O87 1.256 . S
O86 Cd78 2.381 . S
O86 C85 1.258 . S
O87 Cd78 2.378 . S
O87 C85 1.256 . S
C88 C89 1.384 . S
C88 C90 1.384 . S
C88 H116 0.931 . S
C89 C88 1.384 . S
C89 C92 1.382 . S
C90 C88 1.384 . S
C90 C91 1.381 . S
C90 H117 0.930 1_655 S
C91 C90 1.381 . S
C91 C93 1.381 . S
C91 C94 1.487 1_655 S
C92 C89 1.382 . S
C92 C93 1.387 . S
C92 H118 0.930 . S
C93 C91 1.381 . S
C93 C92 1.387 . S
C93 H119 0.931 . S
C94 C91 1.487 1_455 S
C94 C101 1.399 . S
C94 N132 1.343 1_455 S
C95 C96 1.384 . S
C95 C97 1.384 . S
C95 H120 0.931 . S
C96 C95 1.384 . S
C96 C99 1.382 . S
C97 C95 1.384 . S
C97 C98 1.381 . S
C97 H121 0.930 . S
C98 C97 1.381 . S
C98 C100 1.381 . S
C98 C101 1.487 . S
C99 C96 1.382 . S
C99 C100 1.387 . S
C99 H122 0.930 . S
C100 C98 1.381 . S
C100 C99 1.387 . S
C100 H123 0.931 . S
C101 C94 1.399 . S
C101 C98 1.487 . S
C101 N133 1.343 . S
C102 C103 1.384 . S
C102 C104 1.384 . S
C102 H124 0.931 . S
C103 C102 1.384 . S
C103 C106 1.382 . S
C104 C102 1.384 . S
C104 C105 1.381 . S
C104 H125 0.930 . S
C105 C104 1.381 . S
C105 C107 1.381 . S
C105 C108 1.487 . S
C106 C103 1.382 . S
C106 C107 1.387 . S
C106 H126 0.930 . S
C107 C105 1.381 . S
C107 C106 1.387 . S
C107 H127 0.931 . S
C108 C105 1.487 . S
C108 C115 1.399 . S
C108 N133 1.343 . S
C109 C110 1.384 . S
C109 C111 1.384 . S
C109 H128 0.931 . S
C110 C109 1.384 . S
C110 C113 1.382 . S
C111 C109 1.384 . S
C111 C112 1.381 . S
C111 H129 0.930 1_655 S
C112 C111 1.381 . S
C112 C114 1.381 . S
C112 C115 1.487 1_655 S
C113 C110 1.382 . S
C113 C114 1.387 . S
C113 H130 0.930 . S
C114 C112 1.381 . S
C114 C113 1.387 . S
C114 H131 0.931 . S
C115 C108 1.399 . S
C115 C112 1.487 1_455 S
C115 N132 1.343 1_455 S
H116 C88 0.931 . S
H117 C90 0.930 1_455 S
H118 C92 0.930 . S
H119 C93 0.931 . S
H120 C95 0.931 . S
H121 C97 0.930 . S
H122 C99 0.930 . S
H123 C100 0.931 . S
H124 C102 0.931 . S
H125 C104 0.930 . S
H126 C106 0.930 . S
H127 C107 0.931 . S
H128 C109 0.931 . S
H129 C111 0.930 1_455 S
H130 C113 0.930 . S
H131 C114 0.931 . S
N132 C94 1.343 1_655 S
N132 C115 1.343 1_655 S
N133 C101 1.343 . S
N133 C108 1.343 . S
C134 C135 1.384 . S
C134 C136 1.384 . S
C134 H162 0.931 . S
C135 C134 1.384 . S
C135 C138 1.382 . S
C136 C134 1.384 . S
C136 C137 1.381 . S
C136 H163 0.930 . S
C137 C136 1.381 . S
C137 C139 1.381 . S
C137 C140 1.487 . S
C138 C135 1.382 . S
C138 C139 1.387 . S
C138 H164 0.930 . S
C139 C137 1.381 . S
C139 C138 1.387 . S
C139 H165 0.931 . S
C140 C137 1.487 . S
C140 C147 1.399 1_655 S
C140 N178 1.343 . S
C141 C142 1.384 . S
C141 C143 1.384 . S
C141 H166 0.931 . S
C142 C141 1.384 . S
C142 C145 1.382 . S
C143 C141 1.384 . S
C143 C144 1.381 . S
C143 H167 0.930 . S
C144 C143 1.381 . S
C144 C146 1.381 . S
C144 C147 1.487 . S
C145 C142 1.382 . S
C145 C146 1.387 . S
C145 H168 0.930 . S
C146 C144 1.381 . S
C146 C145 1.387 . S
C146 H169 0.931 . S
C147 C140 1.399 1_455 S
C147 C144 1.487 . S
C147 N179 1.343 . S
C148 C149 1.384 . S
C148 C150 1.384 . S
C148 H170 0.931 . S
C149 C148 1.384 . S
C149 C152 1.382 . S
C150 C148 1.384 . S
C150 C151 1.381 . S
C150 H171 0.930 . S
C151 C150 1.381 . S
C151 C153 1.381 . S
C151 C154 1.487 . S
C152 C149 1.382 . S
C152 C153 1.387 . S
C152 H172 0.930 . S
C153 C151 1.381 . S
C153 C152 1.387 . S
C153 H173 0.931 . S
C154 C151 1.487 . S
C154 C161 1.399 1_455 S
C154 N179 1.343 . S
C155 C156 1.384 . S
C155 C157 1.384 . S
C155 H174 0.931 . S
C156 C155 1.384 . S
C156 C159 1.382 . S
C157 C155 1.384 . S
C157 C158 1.381 . S
C157 H175 0.930 . S
C158 C157 1.381 . S
C158 C160 1.381 . S
C158 C161 1.487 . S
C159 C156 1.382 . S
C159 C160 1.387 . S
C159 H176 0.930 . S
C160 C158 1.381 . S
C160 C159 1.387 . S
C160 H177 0.931 . S
C161 C154 1.399 1_655 S
C161 C158 1.487 . S
C161 N178 1.343 . S
H162 C134 0.931 . S
H163 C136 0.930 . S
H164 C138 0.930 . S
H165 C139 0.931 . S
H166 C141 0.931 . S
H167 C143 0.930 . S
H168 C145 0.930 . S
H169 C146 0.931 . S
H170 C148 0.931 . S
H171 C150 0.930 . S
H172 C152 0.930 . S
H173 C153 0.931 . S
H174 C155 0.931 . S
H175 C157 0.930 . S
H176 C159 0.930 . S
H177 C160 0.931 . S
N178 C140 1.343 . S
N178 C161 1.343 . S
N179 C147 1.343 . S
N179 C154 1.343 . S
C180 C181 1.384 . S
C180 C182 1.384 . S
C180 H208 0.931 . S
C181 C180 1.384 . S
C181 C184 1.382 . S
C182 C180 1.384 . S
C182 C183 1.381 . S
C182 H209 0.930 . S
C183 C182 1.381 . S
C183 C185 1.381 . S
C183 C186 1.487 . S
C184 C181 1.382 . S
C184 C185 1.387 . S
C184 H210 0.930 . S
C185 C183 1.381 . S
C185 C184 1.387 . S
C185 H211 0.931 . S
C186 C183 1.487 . S
C186 C193 1.399 . S
C186 N224 1.343 . S
C187 C188 1.384 . S
C187 C189 1.384 . S
C187 H212 0.931 . S
C188 C187 1.384 . S
C188 C191 1.382 . S
C189 C187 1.384 . S
C189 C190 1.381 . S
C189 H213 0.930 . S
C190 C189 1.381 . S
C190 C192 1.381 . S
C190 C193 1.487 . S
C191 C188 1.382 . S
C191 C192 1.387 . S
C191 H214 0.930 . S
C192 C190 1.381 . S
C192 C191 1.387 . S
C192 H215 0.931 . S
C193 C186 1.399 . S
C193 C190 1.487 . S
C193 N225 1.343 . S
C194 C195 1.384 1_545 S
C194 C196 1.384 . S
C194 H216 0.931 1_545 S
C195 C194 1.384 1_565 S
C195 C198 1.382 1_565 S
C196 C194 1.384 . S
C196 C197 1.381 . S
C196 H217 0.930 . S
C197 C196 1.381 . S
C197 C199 1.381 . S
C197 C200 1.487 . S
C198 C195 1.382 1_545 S
C198 C199 1.387 . S
C198 H218 0.930 . S
C199 C197 1.381 . S
C199 C198 1.387 . S
C199 H219 0.931 . S
C200 C197 1.487 . S
C200 C207 1.399 . S
C200 N225 1.343 . S
C201 C202 1.384 . S
C201 C203 1.384 1_565 S
C201 H220 0.931 . S
C202 C201 1.384 . S
C202 C205 1.382 1_565 S
C203 C201 1.384 1_545 S
C203 C204 1.381 . S
C203 H221 0.930 . S
C204 C203 1.381 . S
C204 C206 1.381 . S
C204 C207 1.487 . S
C205 C202 1.382 1_545 S
C205 C206 1.387 . S
C205 H222 0.930 . S
C206 C204 1.381 . S
C206 C205 1.387 . S
C206 H223 0.931 . S
C207 C200 1.399 . S
C207 C204 1.487 . S
C207 N224 1.343 . S
H208 C180 0.931 . S
H209 C182 0.930 . S
H210 C184 0.930 . S
H211 C185 0.931 . S
H212 C187 0.931 . S
H213 C189 0.930 . S
H214 C191 0.930 . S
H215 C192 0.931 . S
H216 C194 0.931 1_565 S
H217 C196 0.930 . S
H218 C198 0.930 . S
H219 C199 0.931 . S
H220 C201 0.931 . S
H221 C203 0.930 . S
H222 C205 0.930 . S
H223 C206 0.931 . S
N224 C186 1.343 . S
N224 C207 1.343 . S
N225 C193 1.343 . S
N225 C200 1.343 . S
C226 C227 1.384 . S
C226 C228 1.384 . S
C226 H254 0.931 . S
C227 C226 1.384 . S
C227 C230 1.382 . S
C228 C226 1.384 . S
C228 C229 1.381 . S
C228 H255 0.930 . S
C229 C228 1.381 . S
C229 C231 1.381 . S
C229 C232 1.487 . S
C230 C227 1.382 . S
C230 C231 1.387 . S
C230 H256 0.930 . S
C231 C229 1.381 . S
C231 C230 1.387 . S
C231 H257 0.931 . S
C232 C229 1.487 . S
C232 C239 1.399 . S
C232 N270 1.343 1_556 S
C233 C234 1.384 . S
C233 C235 1.384 . S
C233 H258 0.931 . S
C234 C233 1.384 . S
C234 C237 1.382 . S
C235 C233 1.384 . S
C235 C236 1.381 . S
C235 H259 0.930 . S
C236 C235 1.381 . S
C236 C238 1.381 . S
C236 C239 1.487 . S
C237 C234 1.382 . S
C237 C238 1.387 . S
C237 H260 0.930 . S
C238 C236 1.381 . S
C238 C237 1.387 . S
C238 H261 0.931 . S
C239 C232 1.399 . S
C239 C236 1.487 . S
C239 N271 1.343 1_556 S
C240 C241 1.384 . S
C240 C242 1.384 . S
C240 H262 0.931 . S
C241 C240 1.384 . S
C241 C244 1.382 . S
C242 C240 1.384 . S
C242 C243 1.381 . S
C242 H263 0.930 . S
C243 C242 1.381 . S
C243 C245 1.381 . S
C243 C246 1.487 . S
C244 C241 1.382 . S
C244 C245 1.387 . S
C244 H264 0.930 . S
C245 C243 1.381 . S
C245 C244 1.387 . S
C245 H265 0.931 . S
C246 C243 1.487 . S
C246 C253 1.399 . S
C246 N271 1.343 . S
C247 C248 1.384 . S
C247 C249 1.384 . S
C247 H266 0.931 . S
C248 C247 1.384 . S
C248 C251 1.382 . S
C249 C247 1.384 . S
C249 C250 1.381 . S
C249 H267 0.930 . S
C250 C249 1.381 . S
C250 C252 1.381 . S
C250 C253 1.487 . S
C251 C248 1.382 . S
C251 C252 1.387 . S
C251 H268 0.930 . S
C252 C250 1.381 . S
C252 C251 1.387 . S
C252 H269 0.931 . S
C253 C246 1.399 . S
C253 C250 1.487 . S
C253 N270 1.343 . S
H254 C226 0.931 . S
H255 C228 0.930 . S
H256 C230 0.930 . S
H257 C231 0.931 . S
H258 C233 0.931 . S
H259 C235 0.930 . S
H260 C237 0.930 . S
H261 C238 0.931 . S
H262 C240 0.931 . S
H263 C242 0.930 . S
H264 C244 0.930 . S
H265 C245 0.931 . S
H266 C247 0.931 . S
H267 C249 0.930 . S
H268 C251 0.930 . S
H269 C252 0.931 . S
N270 C232 1.343 1_554 S
N270 C253 1.343 . S
N271 C239 1.343 1_554 S
N271 C246 1.343 . S
C272 C273 1.384 . S
C272 C274 1.384 . S
C272 H300 0.931 . S
C273 C272 1.384 . S
C273 C276 1.382 . S
C274 C272 1.384 . S
C274 C275 1.381 . S
C274 H301 0.930 . S
C275 C274 1.381 . S
C275 C277 1.381 . S
C275 C278 1.487 . S
C276 C273 1.382 . S
C276 C277 1.387 . S
C276 H302 0.930 . S
C277 C275 1.381 . S
C277 C276 1.387 . S
C277 H303 0.931 . S
C278 C275 1.487 . S
C278 C285 1.399 . S
C278 N316 1.343 . S
C279 C280 1.384 . S
C279 C281 1.384 . S
C279 H304 0.931 . S
C280 C279 1.384 . S
C280 C283 1.382 . S
C281 C279 1.384 . S
C281 C282 1.381 . S
C281 H305 0.930 . S
C282 C281 1.381 . S
C282 C284 1.381 . S
C282 C285 1.487 . S
C283 C280 1.382 . S
C283 C284 1.387 . S
C283 H306 0.930 . S
C284 C282 1.381 . S
C284 C283 1.387 . S
C284 H307 0.931 . S
C285 C278 1.399 . S
C285 C282 1.487 . S
C285 N317 1.343 . S
C286 C287 1.384 . S
C286 C288 1.384 . S
C286 H308 0.931 . S
C287 C286 1.384 . S
C287 C290 1.382 . S
C288 C286 1.384 . S
C288 C289 1.381 . S
C288 H309 0.930 . S
C289 C288 1.381 . S
C289 C291 1.381 . S
C289 C292 1.487 . S
C290 C287 1.382 . S
C290 C291 1.387 . S
C290 H310 0.930 . S
C291 C289 1.381 . S
C291 C290 1.387 . S
C291 H311 0.931 . S
C292 C289 1.487 . S
C292 C299 1.399 . S
C292 N317 1.343 1_565 S
C293 C294 1.384 . S
C293 C295 1.384 . S
C293 H312 0.931 . S
C294 C293 1.384 . S
C294 C297 1.382 . S
C295 C293 1.384 . S
C295 C296 1.381 . S
C295 H313 0.930 . S
C296 C295 1.381 . S
C296 C298 1.381 . S
C296 C299 1.487 . S
C297 C294 1.382 . S
C297 C298 1.387 . S
C297 H314 0.930 . S
C298 C296 1.381 . S
C298 C297 1.387 . S
C298 H315 0.931 . S
C299 C292 1.399 . S
C299 C296 1.487 . S
C299 N316 1.343 1_565 S
H300 C272 0.931 . S
H301 C274 0.930 . S
H302 C276 0.930 . S
H303 C277 0.931 . S
H304 C279 0.931 . S
H305 C281 0.930 . S
H306 C283 0.930 . S
H307 C284 0.931 . S
H308 C286 0.931 . S
H309 C288 0.930 . S
H310 C290 0.930 . S
H311 C291 0.931 . S
H312 C293 0.931 . S
H313 C295 0.930 . S
H314 C297 0.930 . S
H315 C298 0.931 . S
N316 C278 1.343 . S
N316 C299 1.343 1_545 S
N317 C285 1.343 . S
N317 C292 1.343 1_545 S
C318 C319 1.384 . S
C318 C320 1.384 . S
C318 H346 0.931 . S
C319 C318 1.384 . S
C319 C322 1.382 . S
C320 C318 1.384 . S
C320 C321 1.381 . S
C320 H347 0.930 . S
C321 C320 1.381 . S
C321 C323 1.381 . S
C321 C324 1.487 . S
C322 C319 1.382 . S
C322 C323 1.387 . S
C322 H348 0.930 . S
C323 C321 1.381 . S
C323 C322 1.387 . S
C323 H349 0.931 . S
C324 C321 1.487 . S
C324 C331 1.399 . S
C324 N362 1.343 1_556 S
C325 C326 1.384 . S
C325 C327 1.384 . S
C325 H350 0.931 . S
C326 C325 1.384 . S
C326 C329 1.382 . S
C327 C325 1.384 . S
C327 C328 1.381 . S
C327 H351 0.930 . S
C328 C327 1.381 . S
C328 C330 1.381 . S
C328 C331 1.487 . S
C329 C326 1.382 . S
C329 C330 1.387 . S
C329 H352 0.930 . S
C330 C328 1.381 . S
C330 C329 1.387 . S
C330 H353 0.931 . S
C331 C324 1.399 . S
C331 C328 1.487 . S
C331 N363 1.343 1_556 S
C332 C333 1.384 . S
C332 C334 1.384 . S
C332 H354 0.931 . S
C333 C332 1.384 . S
C333 C336 1.382 . S
C334 C332 1.384 . S
C334 C335 1.381 . S
C334 H355 0.930 . S
C335 C334 1.381 . S
C335 C337 1.381 . S
C335 C338 1.487 . S
C336 C333 1.382 . S
C336 C337 1.387 . S
C336 H356 0.930 . S
C337 C335 1.381 . S
C337 C336 1.387 . S
C337 H357 0.931 . S
C338 C335 1.487 . S
C338 C345 1.399 . S
C338 N363 1.343 . S
C339 C340 1.384 . S
C339 C341 1.384 . S
C339 H358 0.931 . S
C340 C339 1.384 . S
C340 C343 1.382 . S
C341 C339 1.384 . S
C341 C342 1.381 . S
C341 H359 0.930 . S
C342 C341 1.381 . S
C342 C344 1.381 . S
C342 C345 1.487 . S
C343 C340 1.382 . S
C343 C344 1.387 . S
C343 H360 0.930 . S
C344 C342 1.381 . S
C344 C343 1.387 . S
C344 H361 0.931 . S
C345 C338 1.399 . S
C345 C342 1.487 . S
C345 N362 1.343 . S
H346 C318 0.931 . S
H347 C320 0.930 . S
H348 C322 0.930 . S
H349 C323 0.931 . S
H350 C325 0.931 . S
H351 C327 0.930 . S
H352 C329 0.930 . S
H353 C330 0.931 . S
H354 C332 0.931 . S
H355 C334 0.930 . S
H356 C336 0.930 . S
H357 C337 0.931 . S
H358 C339 0.931 . S
H359 C341 0.930 . S
H360 C343 0.930 . S
H361 C344 0.931 . S
N362 C324 1.343 1_554 S
N362 C345 1.343 . S
N363 C331 1.343 1_554 S
N363 C338 1.343 . S
C96 C5 1.747 . S
C149 C16 1.550 . S
C110 C30 1.878 . S
C135 C40 1.686 . S
C181 C8 1.761 . S
C227 C18 1.498 . S
C29 C294 2.073 . S
C326 C38 1.371 . S
C195 C19 1.815 . S
C27 C241 1.893 . S
C280 C41 1.714 . S
C340 C7 1.590 . S
C52 C156 1.624 . S
C89 C62 1.642 . S
C74 C142 1.623 . S
C82 C103 1.173 . S
C287 C51 1.940 . S
C333 C60 1.352 . S
C188 C71 1.308 . S
C84 C248 1.496 . S
C273 C63 1.812 . S
C319 C73 1.458 . S
C202 C85 1.980 . S
C49 C234 1.323 . S
