# Generated by pormake.
# Topology pyr, (3,6)-cn, num edge types: 1
# Building blocks:
#     Node 0, Type 0, BuildingBlock: BELTOD_clean_linker_0, # of connection points: 3
#     Node 1, Type 0, BuildingBlock: BELTOD_clean_linker_0, # of connection points: 3
#     Node 2, Type 0, BuildingBlock: BELTOD_clean_linker_0, # of connection points: 3
#     Node 3, Type 0, BuildingBlock: BELTOD_clean_linker_0, # of connection points: 3
#     Node 4, Type 0, BuildingBlock: BELTOD_clean_linker_0, # of connection points: 3
#     Node 5, Type 0, BuildingBlock: BELTOD_clean_linker_0, # of connection points: 3
#     Node 6, Type 0, BuildingBlock: BELTOD_clean_linker_0, # of connection points: 3
#     Node 7, Type 0, BuildingBlock: BELTOD_clean_linker_0, # of connection points: 3
#     Node 8, Type 1, BuildingBlock: FUNLAD_clean_sbu_0, # of connection points: 6
#     Node 9, Type 1, BuildingBlock: FUNLAD_clean_sbu_0, # of connection points: 6
#     Node 10, Type 1, BuildingBlock: FUNLAD_clean_sbu_0, # of connection points: 6
#     Node 11, Type 1, BuildingBlock: FUNLAD_clean_sbu_0, # of connection points: 6
#     Edge 12, Type (0, 1), None
#     Edge 13, Type (0, 1), None
#     Edge 14, Type (0, 1), None
#     Edge 15, Type (0, 1), None
#     Edge 16, Type (0, 1), None
#     Edge 17, Type (0, 1), None
#     Edge 18, Type (0, 1), None
#     Edge 19, Type (0, 1), None
#     Edge 20, Type (0, 1), None
#     Edge 21, Type (0, 1), None
#     Edge 22, Type (0, 1), None
#     Edge 23, Type (0, 1), None
#     Edge 24, Type (0, 1), None
#     Edge 25, Type (0, 1), None
#     Edge 26, Type (0, 1), None
#     Edge 27, Type (0, 1), None
#     Edge 28, Type (0, 1), None
#     Edge 29, Type (0, 1), None
#     Edge 30, Type (0, 1), None
#     Edge 31, Type (0, 1), None
#     Edge 32, Type (0, 1), None
#     Edge 33, Type (0, 1), None
#     Edge 34, Type (0, 1), None
#     Edge 35, Type (0, 1), None
# Relax obj value: 0.211
# Max RMSD: 0.101
# Mean RMSD: 0.056
data_MOF--net-pry--node1-FUNLAD_clean_sbu_0--node2-BELTOD_clean_linker_0--edge1-none
_symmetry_space_group_name_H-M    P1
_symmetry_Int_Tables_number       1
_symmetry_cell_setting            triclinic
loop_
_symmetry_equiv_pos_as_xyz
'x, y, z'
_cell_length_a     20.764619
_cell_length_b     23.166125
_cell_length_c     22.530328
_cell_angle_alpha  89.579167
_cell_angle_beta   91.214897
_cell_angle_gamma 78.659899
loop_
_atom_site_label
_atom_site_type_symbol
_atom_site_fract_x
_atom_site_fract_y
_atom_site_fract_z
_atom_type_partial_charge
P0 P 0.17154 0.19384 0.24385 0.0
H1 H 0.27209 0.24206 0.18662 0.0
H2 H 0.35785 0.20496 0.11668 0.0
H3 H 0.29541 0.03797 0.11385 0.0
H4 H 0.2058 0.07706 0.1813 0.0
H5 H 0.1205 0.31398 0.28545 0.0
H6 H 0.09399 0.40851 0.23332 0.0
H7 H 0.10417 0.31917 0.06529 0.0
H8 H 0.12993 0.22406 0.11821 0.0
H9 H 0.20013 0.06788 0.28447 0.0
H10 H 0.044 0.21866 0.30286 0.0
O11 O 0.21556 0.21732 0.29815 0.0
H12 H 0.15036 1.01426 0.3597 0.0
H13 H 0.99637 0.1665 0.38033 0.0
C14 C 0.23336 0.16193 0.19094 0.0
C15 C 0.27607 0.19756 0.17055 0.0
C16 C 0.3248 0.17658 0.12982 0.0
C17 C 0.33346 0.11861 0.10938 0.0
C18 C 0.28986 0.083 0.12874 0.0
C19 C 0.23927 0.10491 0.16822 0.0
C20 C 0.12769 0.26119 0.2063 0.0
C21 C 0.11521 0.31429 0.23752 0.0
C22 C 0.10086 0.36875 0.20725 0.0
C23 C 0.0986 0.37204 0.14457 0.0
C24 C 0.10653 0.31874 0.11335 0.0
C25 C 0.12049 0.26406 0.14386 0.0
C26 C 0.12444 0.14699 0.28461 0.0
C27 C 0.15332 0.08869 0.30203 0.0
C28 C 0.12505 0.05789 0.34599 0.0
C29 C 0.06846 0.08534 0.37591 0.0
C30 C 0.03919 0.14324 0.35779 0.0
C31 C 0.06635 0.17325 0.31283 0.0
P32 P 0.41421 0.91092 0.68146 0.0
H33 H 0.42632 1.02869 0.71991 0.0
H34 H 0.45089 0.07136 0.81461 0.0
H35 H 0.46185 0.90243 0.90051 0.0
H36 H 0.43756 0.85982 0.80508 0.0
H37 H 0.50094 0.85283 0.58925 0.0
H38 H 0.51906 0.75388 0.54917 0.0
H39 H 0.41204 0.69777 0.69377 0.0
H40 H 0.39192 0.79819 0.73294 0.0
H41 H 0.30446 1.00696 0.70997 0.0
H42 H 0.33345 0.85184 0.6011 0.0
O43 O 0.44915 0.94981 0.6334 0.0
H44 H 0.1927 0.03566 0.67016 0.0
H45 H 0.22103 0.87979 0.56223 0.0
C46 C 0.43068 0.9405 0.7545 0.0
C47 C 0.43404 1.00052 0.75902 0.0
C48 C 0.44797 1.02522 0.81355 0.0
C49 C 0.45872 0.99073 0.86576 0.0
C50 C 0.45403 0.9307 0.86145 0.0
C51 C 0.4401 0.90597 0.80662 0.0
C52 C 0.44604 0.83349 0.66526 0.0
C53 C 0.48266 0.81925 0.61365 0.0
C54 C 0.49245 0.7624 0.59004 0.0
C55 C 0.4664 0.71775 0.61759 0.0
C56 C 0.43284 0.73102 0.67118 0.0
C57 C 0.42214 0.78839 0.69435 0.0
C58 C 0.32761 0.92638 0.66017 0.0
C59 C 0.28663 0.97823 0.67866 0.0
C60 C 0.22257 0.99483 0.65533 0.0
C61 C 0.19779 0.96 0.61275 0.0
C62 C 0.23832 0.90741 0.59512 0.0
C63 C 0.30279 0.89121 0.61797 0.0
P64 P 0.73973 0.46196 0.92546 0.0
H65 H 0.80127 0.41648 0.03791 0.0
H66 H 0.88585 0.45263 0.09509 0.0
H67 H 0.8363 0.61901 1.00181 0.0
H68 H 0.75063 0.58348 0.94555 0.0
H69 H 0.70769 0.3694 0.85263 0.0
H70 H 0.63929 0.29594 0.8682 0.0
H71 H 0.60587 0.35541 0.04795 0.0
H72 H 0.67251 0.43061 1.03164 0.0
H73 H 0.73197 0.4935 0.79963 0.0
H74 H 0.61361 0.5308 0.9538 0.0
O75 O 0.80434 0.43523 0.88412 0.0
H76 H 0.6334 0.50487 0.73716 0.0
H77 H 0.51293 0.54029 0.89157 0.0
C78 C 0.76968 0.49733 0.9876 0.0
C79 C 0.80504 0.46222 1.03287 0.0
C80 C 0.85328 0.48299 0.06578 0.0
C81 C 0.86701 0.53851 0.05273 0.0
C82 C 0.82549 0.57645 1.01329 0.0
C83 C 0.77677 0.55593 0.98086 0.0
C84 C 0.69782 0.40327 0.942 0.0
C85 C 0.68615 0.36629 0.89562 0.0
C86 C 0.64585 0.32549 0.9039 0.0
C87 C 0.61681 0.32106 0.9588 0.0
C88 C 0.62731 0.35887 1.00497 0.0
C89 C 0.66668 0.40058 0.99623 0.0
C90 C 0.67915 0.50975 0.88148 0.0
C91 C 0.68465 0.50717 0.81987 0.0
C92 C 0.62826 0.51257 0.78438 0.0
C93 C 0.56634 0.52005 0.81055 0.0
C94 C 0.56047 0.53291 0.87097 0.0
C95 C 0.61741 0.52851 0.90626 0.0
P96 P 0.81853 0.58758 0.4959 0.0
H97 H 0.7907 0.69668 0.42954 0.0
H98 H 0.84132 0.78288 0.4303 0.0
H99 H 0.95682 0.71514 0.58597 0.0
H100 H 0.90429 0.62832 0.58627 0.0
H101 H 0.81555 0.52755 0.38337 0.0
H102 H 0.89061 0.53073 0.30271 0.0
H103 H 0.03807 0.56683 0.42727 0.0
H104 H 0.96323 0.56152 0.50877 0.0
H105 H 0.76341 0.62405 0.61088 0.0
H106 H 0.81492 0.46421 0.51148 0.0
O107 O 0.75018 0.60262 0.45348 0.0
H108 H 0.66273 0.59466 0.64141 0.0
H109 H 0.71291 0.43613 0.53965 0.0
C110 C 0.84235 0.65684 0.50892 0.0
C111 C 0.82539 0.70079 0.46506 0.0
C112 C 0.85534 0.7494 0.46456 0.0
C113 C 0.90384 0.75434 0.50718 0.0
C114 C 0.92031 0.71117 0.55198 0.0
C115 C 0.88941 0.66255 0.55296 0.0
C116 C 0.88249 0.54812 0.45133 0.0
C117 C 0.86498 0.53335 0.39401 0.0
C118 C 0.90754 0.53602 0.34781 0.0
C119 C 0.96804 0.55273 0.35901 0.0
C120 C 0.99055 0.55594 0.41771 0.0
C121 C 0.94783 0.55265 0.46417 0.0
C122 C 0.79529 0.54735 0.55711 0.0
C123 C 0.75607 0.58038 0.59961 0.0
C124 C 0.698 0.56369 0.61678 0.0
C125 C 0.67973 0.51401 0.5914 0.0
C126 C 0.72612 0.47471 0.55968 0.0
C127 C 0.78486 0.4908 0.54381 0.0
P128 P 0.92958 0.91459 0.91786 0.0
H129 H 0.83677 0.85197 0.97922 0.0
H130 H 0.72587 0.88597 1.01599 0.0
H131 H 0.72111 0.05666 0.93562 0.0
H132 H 0.83197 1.02273 0.89974 0.0
H133 H 0.96343 0.86938 0.0373 0.0
H134 H 0.00533 0.77247 0.08112 0.0
H135 H 0.01514 0.69652 0.90641 0.0
H136 H 0.97291 0.79455 0.86248 0.0
H137 H 0.96648 1.02178 0.87111 0.0
H138 H 0.91523 0.86628 0.79504 0.0
O139 O 0.96549 0.95762 0.96141 0.0
H140 H 0.97851 0.06096 0.77249 0.0
H141 H 0.92905 0.90513 0.69504 0.0
C142 C 0.84309 0.93455 0.93594 0.0
C143 C 0.81186 0.89652 0.96884 0.0
C144 C 0.74824 0.91615 0.99028 0.0
C145 C 0.71445 0.97428 0.97937 0.0
C146 C 0.74542 1.01165 0.9452 0.0
C147 C 0.80889 0.99209 0.92405 0.0
C148 C 0.96535 0.84026 0.94613 0.0
C149 C 0.97534 0.83218 1.00795 0.0
C150 C 0.99934 0.77631 1.03329 0.0
C151 C 0.01427 0.72608 0.99771 0.0
C152 C 0.00472 0.73405 0.93551 0.0
C153 C 0.98031 0.79038 0.91006 0.0
C154 C 0.94237 0.93943 0.84176 0.0
C155 C 0.95877 0.99517 0.83334 0.0
C156 C 0.96498 1.01828 0.7763 0.0
C157 C 0.95501 0.98659 0.72507 0.0
C158 C 0.93751 0.93101 0.73322 0.0
C159 C 0.9304 0.90815 0.79072 0.0
P160 P 0.63551 0.21392 0.36944 0.0
H161 H 0.54974 0.32235 0.32783 0.0
H162 H 0.49457 0.40976 0.37921 0.0
H163 H 0.53295 0.31712 0.54706 0.0
H164 H 0.58764 0.22866 0.4947 0.0
H165 H 0.71126 0.09055 0.36961 0.0
H166 H 0.80881 0.04207 0.42527 0.0
H167 H 0.80175 0.19824 0.53028 0.0
H168 H 0.70361 0.24629 0.47491 0.0
H169 H 0.60949 0.24111 0.24409 0.0
H170 H 0.59344 0.09578 0.35954 0.0
O171 O 0.6804 0.25562 0.3347 0.0
H172 H 0.58503 0.18624 0.1589 0.0
H173 H 0.56827 0.03897 0.27223 0.0
C174 C 0.5742 0.26864 0.40696 0.0
C175 C 0.54447 0.31978 0.37545 0.0
C176 C 0.51309 0.37024 0.40524 0.0
C177 C 0.50999 0.37131 0.46776 0.0
C178 C 0.53432 0.31829 0.49905 0.0
C179 C 0.56593 0.26747 0.46893 0.0
C180 C 0.69693 0.17137 0.41978 0.0
C181 C 0.72824 0.11364 0.40637 0.0
C182 C 0.78512 0.08602 0.43794 0.0
C183 C 0.81328 0.11607 0.48259 0.0
C184 C 0.78127 0.17342 0.49669 0.0
C185 C 0.72422 0.20075 0.46541 0.0
C186 C 0.60521 0.1727 0.30887 0.0
C187 C 0.60063 0.19712 0.25145 0.0
C188 C 0.58675 0.16503 0.20207 0.0
C189 C 0.57599 0.10695 0.20769 0.0
C190 C 0.57761 0.0829 0.26563 0.0
C191 C 0.59159 0.11566 0.31576 0.0
P192 P 0.48772 0.55714 0.05217 0.0
H193 H 0.3975 0.50406 0.98109 0.0
H194 H 0.28153 0.50202 0.98995 0.0
H195 H 0.27932 0.58842 0.15966 0.0
H196 H 0.39635 0.58995 0.15035 0.0
H197 H 0.58893 0.61559 1.00609 0.0
H198 H 0.59226 0.71943 1.01187 0.0
H199 H 0.38242 0.75804 0.0391 0.0
H200 H 0.37872 0.65619 1.02596 0.0
H201 H 0.55711 0.46673 0.13447 0.0
H202 H 0.50838 0.65684 0.12572 0.0
O203 O 0.52744 0.50181 1.01204 0.0
H204 H 0.58788 0.47293 0.23962 0.0
H205 H 0.54271 0.66239 0.22743 0.0
C206 C 0.40589 0.54594 0.06547 0.0
C207 C 0.37256 0.52124 1.02087 0.0
C208 C 0.30594 0.52062 1.02594 0.0
C209 C 0.27093 0.54541 0.07554 0.0
C210 C 0.30483 0.56899 0.12101 0.0
C211 C 0.37188 0.56941 0.1159 0.0
C212 C 0.48385 0.62747 1.01667 0.0
C213 C 0.54296 0.6468 1.00836 0.0
C214 C 0.54512 0.70634 1.01438 0.0
C215 C 0.4883 0.74703 1.02959 0.0
C216 C 0.42771 0.72844 1.02853 0.0
C217 C 0.42546 0.66934 1.02082 0.0
C218 C 0.53061 0.56105 0.12167 0.0
C219 C 0.55652 0.50952 0.15376 0.0
C220 C 0.57525 0.51308 0.21332 0.0
C221 C 0.56823 0.56827 0.24075 0.0
C222 C 0.55011 0.61958 0.20666 0.0
C223 C 0.52981 0.61606 0.148 0.0
P224 P 0.18259 0.4797 0.56285 0.0
H225 H 0.2455 0.35915 0.55864 0.0
H226 H 0.20146 0.27282 0.57381 0.0
H227 H 0.00485 0.37224 0.53758 0.0
H228 H 0.05053 0.46207 0.52839 0.0
H229 H 0.14434 0.60721 0.59066 0.0
H230 H 0.24901 0.63838 0.58127 0.0
H231 H 0.2838 0.53798 0.42048 0.0
H232 H 0.17989 0.50546 0.43306 0.0
H233 H 0.25335 0.43874 0.6717 0.0
H234 H 0.05905 0.53181 0.61946 0.0
O235 O 0.26459 0.46162 0.56261 0.0
H236 H 0.22024 0.43854 0.77469 0.0
H237 H 0.0256 0.53133 0.72385 0.0
C238 C 0.15145 0.41686 0.54095 0.0
C239 C 0.19313 0.36261 0.55158 0.0
C240 C 0.16746 0.31276 0.56069 0.0
C241 C 0.09934 0.31514 0.55659 0.0
C242 C 0.05746 0.36906 0.54186 0.0
C243 C 0.08351 0.41998 0.53469 0.0
C244 C 0.16281 0.54564 0.51878 0.0
C245 C 0.17248 0.59468 0.55126 0.0
C246 C 0.23282 0.61223 0.54637 0.0
C247 C 0.27621 0.58704 0.50245 0.0
C248 C 0.25221 0.55619 0.45618 0.0
C249 C 0.19204 0.53828 0.46306 0.0
C250 C 0.15926 0.48739 0.63857 0.0
C251 C 0.20375 0.45978 0.68245 0.0
C252 C 0.18459 0.45848 0.74097 0.0
C253 C 0.12038 0.48399 0.75623 0.0
C254 C 0.07506 0.51049 0.71229 0.0
C255 C 0.09444 0.51189 0.65334 0.0
C256 C 0.04603 0.05959 0.43198 0.0
N257 N 0.03261 0.15514 0.5841 0.0
C258 C 0.09203 0.15536 0.55989 0.0
C259 C 0.11274 0.20719 0.54956 0.0
C260 C 0.07423 0.2605 0.56696 0.0
C261 C 0.01396 0.25981 0.59436 0.0
C262 C 0.9934 0.20599 0.60183 0.0
Zn263 Zn 0.00538 0.07734 0.56716 0.0
C264 C 0.87836 0.0898 0.5104 0.0
N265 N 0.97662 0.91281 0.50862 0.0
C266 C 0.01771 0.86255 0.4918 0.0
C267 C 0.91387 0.91212 0.5248 0.0
C268 C 0.88986 0.86047 0.52401 0.0
C269 C 0.93097 0.80824 0.50794 0.0
C270 C 0.99559 0.80901 0.49125 0.0
Zn271 Zn 0.00404 0.99075 0.52832 0.0
O272 O 0.03282 0.09319 0.47614 0.0
C273 C 0.13084 0.98043 0.58627 0.0
O274 O 0.04084 1.00579 0.43835 0.0
H275 H 0.8827 0.95108 0.54157 0.0
H276 H 0.12163 0.11581 0.54273 0.0
H277 H 0.06796 0.86353 0.48093 0.0
O278 O 0.10221 0.03333 0.59382 0.0
O279 O 0.10089 0.94672 0.55684 0.0
H280 H 0.94533 0.20521 0.61903 0.0
O281 O 0.97097 0.97616 0.61932 0.0
O282 O 0.97763 0.06178 0.65672 0.0
O283 O 0.90671 0.03755 0.49806 0.0
O284 O 0.90863 0.12025 0.54353 0.0
C285 C 0.96674 1.00987 0.66421 0.0
H286 H 0.15794 0.20513 0.52584 0.0
H287 H 0.98277 0.30012 0.60873 0.0
H288 H 0.83991 0.86103 0.53744 0.0
H289 H 0.02831 0.7689 0.47837 0.0
C290 C 0.64739 0.99644 1.00276 0.0
N291 N 0.54142 0.16704 0.99192 0.0
C292 C 0.60046 0.17369 1.01562 0.0
C293 C 0.62382 0.22489 1.00659 0.0
C294 C 0.58738 0.26972 0.97133 0.0
C295 C 0.52724 0.26232 0.94569 0.0
C296 C 0.50444 0.21016 0.95733 0.0
Zn297 Zn 0.5195 0.08765 1.01619 0.0
C298 C 0.47684 1.01613 0.92383 0.0
N299 N 0.50362 0.92065 0.08058 0.0
C300 C 0.55399 0.87541 0.09493 0.0
C301 C 0.44589 0.91053 0.05727 0.0
C302 C 0.43976 0.85423 0.04088 0.0
C303 C 0.49259 0.80695 0.05055 0.0
C304 C 0.54912 0.81769 0.08088 0.0
Zn305 Zn 0.51956 1.00216 0.06017 0.0
O306 O 0.61676 0.04787 0.98888 0.0
C307 C 0.56007 0.07571 0.15221 0.0
O308 O 0.61922 0.96489 0.03597 0.0
H309 H 0.40703 0.94681 0.0441 0.0
H310 H 0.63049 0.13897 0.04182 0.0
H311 H 0.59981 0.88434 0.11263 0.0
O312 O 0.55216 0.10514 0.10398 0.0
O313 O 0.55146 1.02257 0.15091 0.0
H314 H 0.45791 0.20399 0.93859 0.0
O315 O 0.42117 0.04031 0.08524 0.0
O316 O 0.42251 0.12645 0.04459 0.0
O317 O 0.48788 0.98332 0.96992 0.0
O318 O 0.48404 0.0694 0.92831 0.0
C319 C 0.39324 0.09357 0.07563 0.0
H320 H 0.67106 0.2288 1.02582 0.0
H321 H 0.49857 0.29627 0.91737 0.0
H322 H 0.39543 0.849 1.01722 0.0
H323 H 0.59029 0.78239 0.09158 0.0
C324 C 0.49102 0.42952 0.49848 0.0
N325 N 0.44545 0.49956 0.67058 0.0
C326 C 0.48724 0.45053 0.69102 0.0
C327 C 0.52143 0.4531 0.7442 0.0
C328 C 0.51132 0.50637 0.7751 0.0
C329 C 0.4567 0.55024 0.76042 0.0
C330 C 0.42203 0.54461 0.70772 0.0
Zn331 Zn 0.46787 0.52508 0.58804 0.0
C332 C 0.6102 0.51802 0.57611 0.0
N333 N 0.51217 0.58358 0.41932 0.0
C334 C 0.47414 0.56318 0.37766 0.0
C335 C 0.56855 0.60151 0.40461 0.0
C336 C 0.58949 0.59709 0.34578 0.0
C337 C 0.55248 0.57257 0.30359 0.0
C338 C 0.49358 0.5571 0.31961 0.0
Zn339 Zn 0.48947 0.56341 0.50262 0.0
O340 O 0.47859 0.43434 0.5536 0.0
C341 C 0.34674 0.57465 0.51656 0.0
O342 O 0.49419 0.476 0.46966 0.0
H343 H 0.5987 0.61645 0.43869 0.0
H344 H 0.50422 0.41442 0.66158 0.0
H345 H 0.43083 0.54712 0.38982 0.0
O346 O 0.3673 0.54558 0.56362 0.0
O347 O 0.38751 0.58809 0.48058 0.0
H348 H 0.38583 0.5818 0.69151 0.0
O349 O 0.48744 0.65065 0.53534 0.0
O350 O 0.46074 0.61506 0.61958 0.0
O351 O 0.58954 0.54021 0.52596 0.0
O352 O 0.56965 0.50722 0.61384 0.0
C353 C 0.47224 0.65854 0.58961 0.0
H354 H 0.56217 0.4176 0.75594 0.0
H355 H 0.4466 0.59121 0.78452 0.0
H356 H 0.63442 0.61091 0.33378 0.0
H357 H 0.46301 0.53974 0.2874 0.0
C358 C 0.03618 0.66582 1.02558 0.0
N359 N 0.05008 0.59103 0.19932 0.0
C360 C 0.99112 0.6237 0.21413 0.0
C361 C 0.96583 0.61568 0.26949 0.0
C362 C 0.00192 0.57384 0.30915 0.0
C363 C 0.06662 0.54776 0.29635 0.0
C364 C 0.09018 0.55732 0.24035 0.0
Zn365 Zn 0.06156 0.56765 0.11355 0.0
C366 C 0.93515 0.54526 0.05868 0.0
N367 N 0.08521 0.50562 0.93901 0.0
C368 C 0.1253 0.53657 0.9111 0.0
C369 C 0.05425 0.46778 0.90887 0.0
C370 C 0.06371 0.46004 0.84783 0.0
C371 C 0.10547 0.49147 0.81907 0.0
C372 C 0.13646 0.52981 0.85115 0.0
Zn373 Zn 0.07064 0.52858 1.02481 0.0
O374 O 0.0385 0.65829 0.08179 0.0
C375 C 0.19921 0.54779 0.07744 0.0
O376 O 0.04966 0.62043 0.99324 0.0
H377 H 0.02171 0.44448 0.93186 0.0
H378 H 0.9603 0.65015 0.18073 0.0
H379 H 0.14792 0.56789 0.93496 0.0
O380 O 0.16449 0.5708 0.12015 0.0
O381 O 0.17133 0.52726 0.03429 0.0
H382 H 0.13691 0.53165 0.2273 0.0
O383 O 0.08781 0.43687 0.05706 0.0
O384 O 0.08168 0.4774 0.1445 0.0
O385 O 0.97238 0.52843 1.01582 0.0
O386 O 0.95846 0.56315 0.10617 0.0
C387 C 0.08893 0.43107 0.11352 0.0
H388 H 0.91619 0.63775 0.27909 0.0
H389 H 0.09586 0.51595 0.32655 0.0
H390 H 0.03939 0.42991 0.8236 0.0
H391 H 0.1687 0.55477 0.82978 0.0
loop_
_geom_bond_atom_site_label_1
_geom_bond_atom_site_label_2
_geom_bond_distance
_geom_bond_site_symmetry_2
_ccdc_geom_bond_type
P0 O11 1.490 . S
P0 C14 1.812 . S
P0 C20 1.803 . S
P0 C26 1.819 . S
H1 C15 0.941 . S
H2 C16 0.939 . S
H3 C18 0.940 . S
H4 C19 0.940 . S
H5 C21 0.939 . S
H6 C22 0.942 . S
H7 C24 0.940 . S
H8 C25 0.939 . S
H9 C27 0.941 . S
H10 C31 0.939 . S
O11 P0 1.490 . S
H12 C28 0.939 . S
H13 C30 0.940 1_655 S
C14 P0 1.812 . S
C14 C15 1.389 . S
C14 C19 1.391 . S
C15 H1 0.941 . S
C15 C14 1.389 . S
C15 C16 1.397 . S
C16 H2 0.939 . S
C16 C15 1.397 . S
C16 C17 1.378 . S
C17 C16 1.378 . S
C17 C18 1.378 . S
C18 H3 0.940 . S
C18 C17 1.378 . S
C18 C19 1.396 . S
C19 H4 0.940 . S
C19 C14 1.391 . S
C19 C18 1.396 . S
C20 P0 1.803 . S
C20 C21 1.378 . S
C20 C25 1.400 . S
C21 H5 0.939 . S
C21 C20 1.378 . S
C21 C22 1.361 . S
C22 H6 0.942 . S
C22 C21 1.361 . S
C22 C23 1.369 . S
C23 C22 1.369 . S
C23 C24 1.404 . S
C24 H7 0.940 . S
C24 C23 1.404 . S
C24 C25 1.389 . S
C25 H8 0.939 . S
C25 C20 1.400 . S
C25 C24 1.389 . S
C26 P0 1.819 . S
C26 C27 1.391 . S
C26 C31 1.391 . S
C27 H9 0.941 . S
C27 C26 1.391 . S
C27 C28 1.396 . S
C28 H12 0.939 . S
C28 C27 1.396 . S
C28 C29 1.397 . S
C29 C28 1.397 . S
C29 C30 1.385 . S
C30 H13 0.940 1_455 S
C30 C29 1.385 . S
C30 C31 1.388 . S
C31 H10 0.939 . S
C31 C26 1.391 . S
C31 C30 1.388 . S
P32 O43 1.490 . S
P32 C46 1.812 . S
P32 C52 1.803 . S
P32 C58 1.819 . S
H33 C47 0.941 . S
H34 C48 0.939 . S
H35 C50 0.940 . S
H36 C51 0.940 . S
H37 C53 0.939 . S
H38 C54 0.942 . S
H39 C56 0.940 . S
H40 C57 0.939 . S
H41 C59 0.941 1_545 S
H42 C63 0.939 . S
O43 P32 1.490 . S
H44 C60 0.939 . S
H45 C62 0.940 . S
C46 P32 1.812 . S
C46 C47 1.389 . S
C46 C51 1.391 . S
C47 H33 0.941 . S
C47 C46 1.389 . S
C47 C48 1.397 . S
C48 H34 0.939 . S
C48 C47 1.397 . S
C48 C49 1.378 . S
C49 C48 1.378 . S
C49 C50 1.378 . S
C50 H35 0.940 . S
C50 C49 1.378 . S
C50 C51 1.396 . S
C51 H36 0.940 . S
C51 C46 1.391 . S
C51 C50 1.396 . S
C52 P32 1.803 . S
C52 C53 1.378 . S
C52 C57 1.400 . S
C53 H37 0.939 . S
C53 C52 1.378 . S
C53 C54 1.361 . S
C54 H38 0.942 . S
C54 C53 1.361 . S
C54 C55 1.369 . S
C55 C54 1.369 . S
C55 C56 1.404 . S
C56 H39 0.940 . S
C56 C55 1.404 . S
C56 C57 1.389 . S
C57 H40 0.939 . S
C57 C52 1.400 . S
C57 C56 1.389 . S
C58 P32 1.819 . S
C58 C59 1.391 . S
C58 C63 1.391 . S
C59 H41 0.941 1_565 S
C59 C58 1.391 . S
C59 C60 1.396 1_565 S
C60 H44 0.939 . S
C60 C59 1.396 1_545 S
C60 C61 1.397 1_545 S
C61 C60 1.397 1_565 S
C61 C62 1.385 . S
C62 H45 0.940 . S
C62 C61 1.385 . S
C62 C63 1.388 . S
C63 H42 0.939 . S
C63 C58 1.391 . S
C63 C62 1.388 . S
P64 O75 1.490 . S
P64 C78 1.812 . S
P64 C84 1.803 . S
P64 C90 1.819 . S
H65 C79 0.941 . S
H66 C80 0.939 . S
H67 C82 0.940 . S
H68 C83 0.940 . S
H69 C85 0.939 . S
H70 C86 0.942 . S
H71 C88 0.940 . S
H72 C89 0.939 . S
H73 C91 0.941 . S
H74 C95 0.939 . S
O75 P64 1.490 . S
H76 C92 0.939 . S
H77 C94 0.940 . S
C78 P64 1.812 . S
C78 C79 1.389 . S
C78 C83 1.391 . S
C79 H65 0.941 . S
C79 C78 1.389 . S
C79 C80 1.397 . S
C80 H66 0.939 . S
C80 C79 1.397 . S
C80 C81 1.379 . S
C81 C80 1.379 . S
C81 C82 1.379 . S
C82 H67 0.940 . S
C82 C81 1.379 . S
C82 C83 1.396 . S
C83 H68 0.940 . S
C83 C78 1.391 . S
C83 C82 1.396 . S
C84 P64 1.803 . S
C84 C85 1.378 . S
C84 C89 1.400 . S
C85 H69 0.939 . S
C85 C84 1.378 . S
C85 C86 1.361 . S
C86 H70 0.942 . S
C86 C85 1.361 . S
C86 C87 1.369 . S
C87 C86 1.369 . S
C87 C88 1.404 1_556 S
C88 H71 0.940 . S
C88 C87 1.404 1_554 S
C88 C89 1.389 1_554 S
C89 H72 0.939 . S
C89 C84 1.400 . S
C89 C88 1.389 1_556 S
C90 P64 1.819 . S
C90 C91 1.391 . S
C90 C95 1.391 . S
C91 H73 0.941 . S
C91 C90 1.391 . S
C91 C92 1.396 . S
C92 H76 0.939 . S
C92 C91 1.396 . S
C92 C93 1.397 . S
C93 C92 1.397 . S
C93 C94 1.385 . S
C94 H77 0.940 . S
C94 C93 1.385 . S
C94 C95 1.388 . S
C95 H74 0.939 . S
C95 C90 1.391 . S
C95 C94 1.388 . S
P96 O107 1.490 . S
P96 C110 1.812 . S
P96 C116 1.803 . S
P96 C122 1.819 . S
H97 C111 0.941 . S
H98 C112 0.939 . S
H99 C114 0.940 . S
H100 C115 0.940 . S
H101 C117 0.939 . S
H102 C118 0.942 . S
H103 C120 0.940 . S
H104 C121 0.939 . S
H105 C123 0.941 . S
H106 C127 0.939 . S
O107 P96 1.490 . S
H108 C124 0.939 . S
H109 C126 0.940 . S
C110 P96 1.812 . S
C110 C111 1.389 . S
C110 C115 1.391 . S
C111 H97 0.941 . S
C111 C110 1.389 . S
C111 C112 1.397 . S
C112 H98 0.939 . S
C112 C111 1.397 . S
C112 C113 1.378 . S
C113 C112 1.378 . S
C113 C114 1.378 . S
C114 H99 0.940 . S
C114 C113 1.378 . S
C114 C115 1.396 . S
C115 H100 0.940 . S
C115 C110 1.391 . S
C115 C114 1.396 . S
C116 P96 1.803 . S
C116 C117 1.378 . S
C116 C121 1.400 . S
C117 H101 0.939 . S
C117 C116 1.378 . S
C117 C118 1.361 . S
C118 H102 0.942 . S
C118 C117 1.361 . S
C118 C119 1.369 . S
C119 C118 1.369 . S
C119 C120 1.404 . S
C120 H103 0.940 . S
C120 C119 1.404 . S
C120 C121 1.389 . S
C121 H104 0.939 . S
C121 C116 1.400 . S
C121 C120 1.389 . S
C122 P96 1.819 . S
C122 C123 1.391 . S
C122 C127 1.391 . S
C123 H105 0.941 . S
C123 C122 1.391 . S
C123 C124 1.396 . S
C124 H108 0.939 . S
C124 C123 1.396 . S
C124 C125 1.397 . S
C125 C124 1.397 . S
C125 C126 1.385 . S
C126 H109 0.940 . S
C126 C125 1.385 . S
C126 C127 1.388 . S
C127 H106 0.939 . S
C127 C122 1.391 . S
C127 C126 1.388 . S
P128 O139 1.490 . S
P128 C142 1.812 . S
P128 C148 1.803 . S
P128 C154 1.819 . S
H129 C143 0.941 1_554 S
H130 C144 0.939 . S
H131 C146 0.940 . S
H132 C147 0.940 . S
H133 C149 0.939 . S
H134 C150 0.942 . S
H135 C152 0.940 . S
H136 C153 0.939 . S
H137 C155 0.941 1_545 S
H138 C159 0.939 . S
O139 P128 1.490 . S
H140 C156 0.921 1_545 S
H141 C158 0.940 . S
C142 P128 1.812 . S
C142 C143 1.389 . S
C142 C147 1.391 . S
C143 H129 0.941 1_556 S
C143 C142 1.389 . S
C143 C144 1.397 1_556 S
C144 H130 0.939 . S
C144 C143 1.397 1_554 S
C144 C145 1.378 1_554 S
C145 C144 1.378 1_556 S
C145 C146 1.378 . S
C146 H131 0.940 . S
C146 C145 1.378 . S
C146 C147 1.396 . S
C147 H132 0.940 . S
C147 C142 1.391 . S
C147 C146 1.396 . S
C148 P128 1.803 . S
C148 C149 1.378 1_655 S
C148 C153 1.400 . S
C149 H133 0.939 . S
C149 C148 1.378 1_455 S
C149 C150 1.361 . S
C150 H134 0.942 . S
C150 C149 1.361 . S
C150 C151 1.369 1_455 S
C151 C150 1.369 1_655 S
C151 C152 1.404 . S
C152 H135 0.940 . S
C152 C151 1.404 . S
C152 C153 1.389 . S
C153 H136 0.939 . S
C153 C148 1.400 . S
C153 C152 1.389 . S
C154 P128 1.819 . S
C154 C155 1.391 . S
C154 C159 1.391 . S
C155 H137 0.941 1_565 S
C155 C154 1.391 . S
C155 C156 1.401 . S
C156 H140 0.921 1_565 S
C156 C155 1.401 . S
C156 C157 1.411 . S
C157 C156 1.411 . S
C157 C158 1.385 . S
C158 H141 0.940 . S
C158 C157 1.385 . S
C158 C159 1.388 . S
C159 H138 0.939 . S
C159 C154 1.391 . S
C159 C158 1.388 . S
P160 O171 1.490 . S
P160 C174 1.812 . S
P160 C180 1.803 . S
P160 C186 1.819 . S
H161 C175 0.941 . S
H162 C176 0.939 . S
H163 C178 0.940 . S
H164 C179 0.940 . S
H165 C181 0.939 . S
H166 C182 0.942 . S
H167 C184 0.940 . S
H168 C185 0.939 . S
H169 C187 0.941 . S
H170 C191 0.939 . S
O171 P160 1.490 . S
H172 C188 0.939 . S
H173 C190 0.940 . S
C174 P160 1.812 . S
C174 C175 1.389 . S
C174 C179 1.391 . S
C175 H161 0.941 . S
C175 C174 1.389 . S
C175 C176 1.397 . S
C176 H162 0.939 . S
C176 C175 1.397 . S
C176 C177 1.378 . S
C177 C176 1.378 . S
C177 C178 1.378 . S
C178 H163 0.940 . S
C178 C177 1.378 . S
C178 C179 1.396 . S
C179 H164 0.940 . S
C179 C174 1.391 . S
C179 C178 1.396 . S
C180 P160 1.803 . S
C180 C181 1.378 . S
C180 C185 1.400 . S
C181 H165 0.939 . S
C181 C180 1.378 . S
C181 C182 1.361 . S
C182 H166 0.942 . S
C182 C181 1.361 . S
C182 C183 1.369 . S
C183 C182 1.369 . S
C183 C184 1.404 . S
C184 H167 0.940 . S
C184 C183 1.404 . S
C184 C185 1.389 . S
C185 H168 0.939 . S
C185 C180 1.400 . S
C185 C184 1.389 . S
C186 P160 1.819 . S
C186 C187 1.391 . S
C186 C191 1.391 . S
C187 H169 0.941 . S
C187 C186 1.391 . S
C187 C188 1.396 . S
C188 H172 0.939 . S
C188 C187 1.396 . S
C188 C189 1.397 . S
C189 C188 1.397 . S
C189 C190 1.385 . S
C190 H173 0.940 . S
C190 C189 1.385 . S
C190 C191 1.388 . S
C191 H170 0.939 . S
C191 C186 1.391 . S
C191 C190 1.388 . S
P192 O203 1.490 . S
P192 C206 1.812 . S
P192 C212 1.803 . S
P192 C218 1.819 . S
H193 C207 0.941 . S
H194 C208 0.939 . S
H195 C210 0.940 . S
H196 C211 0.940 . S
H197 C213 0.939 . S
H198 C214 0.942 1_556 S
H199 C216 0.940 . S
H200 C217 0.939 . S
H201 C219 0.941 . S
H202 C223 0.939 . S
O203 P192 1.490 . S
H204 C220 0.939 . S
H205 C222 0.940 . S
C206 P192 1.812 . S
C206 C207 1.389 1_554 S
C206 C211 1.391 . S
C207 H193 0.941 . S
C207 C206 1.389 1_556 S
C207 C208 1.397 . S
C208 H194 0.939 . S
C208 C207 1.397 . S
C208 C209 1.378 1_556 S
C209 C208 1.378 1_554 S
C209 C210 1.378 . S
C210 H195 0.940 . S
C210 C209 1.378 . S
C210 C211 1.396 . S
C211 H196 0.940 . S
C211 C206 1.391 . S
C211 C210 1.396 . S
C212 P192 1.803 . S
C212 C213 1.378 . S
C212 C217 1.400 . S
C213 H197 0.939 . S
C213 C212 1.378 . S
C213 C214 1.361 . S
C214 H198 0.942 1_554 S
C214 C213 1.361 . S
C214 C215 1.369 . S
C215 C214 1.369 . S
C215 C216 1.404 . S
C216 H199 0.940 . S
C216 C215 1.404 . S
C216 C217 1.389 . S
C217 H200 0.939 . S
C217 C212 1.400 . S
C217 C216 1.389 . S
C218 P192 1.819 . S
C218 C219 1.391 . S
C218 C223 1.391 . S
C219 H201 0.941 . S
C219 C218 1.391 . S
C219 C220 1.396 . S
C220 H204 0.939 . S
C220 C219 1.396 . S
C220 C221 1.397 . S
C221 C220 1.397 . S
C221 C222 1.385 . S
C222 H205 0.940 . S
C222 C221 1.385 . S
C222 C223 1.388 . S
C223 H202 0.939 . S
C223 C218 1.391 . S
C223 C222 1.388 . S
P224 O235 1.490 . S
P224 C238 1.812 . S
P224 C244 1.803 . S
P224 C250 1.819 . S
H225 C239 0.941 . S
H226 C240 0.939 . S
H227 C242 0.940 . S
H228 C243 0.940 . S
H229 C245 0.939 . S
H230 C246 0.942 . S
H231 C248 0.940 . S
H232 C249 0.939 . S
H233 C251 0.941 . S
H234 C255 0.939 . S
O235 P224 1.490 . S
H236 C252 0.939 . S
H237 C254 0.940 . S
C238 P224 1.812 . S
C238 C239 1.389 . S
C238 C243 1.391 . S
C239 H225 0.941 . S
C239 C238 1.389 . S
C239 C240 1.397 . S
C240 H226 0.939 . S
C240 C239 1.397 . S
C240 C241 1.378 . S
C241 C240 1.378 . S
C241 C242 1.378 . S
C242 H227 0.940 . S
C242 C241 1.378 . S
C242 C243 1.396 . S
C243 H228 0.940 . S
C243 C238 1.391 . S
C243 C242 1.396 . S
C244 P224 1.803 . S
C244 C245 1.378 . S
C244 C249 1.400 . S
C245 H229 0.939 . S
C245 C244 1.378 . S
C245 C246 1.361 . S
C246 H230 0.942 . S
C246 C245 1.361 . S
C246 C247 1.369 . S
C247 C246 1.369 . S
C247 C248 1.404 . S
C248 H231 0.940 . S
C248 C247 1.404 . S
C248 C249 1.389 . S
C249 H232 0.939 . S
C249 C244 1.400 . S
C249 C248 1.389 . S
C250 P224 1.819 . S
C250 C251 1.391 . S
C250 C255 1.391 . S
C251 H233 0.941 . S
C251 C250 1.391 . S
C251 C252 1.396 . S
C252 H236 0.939 . S
C252 C251 1.396 . S
C252 C253 1.397 . S
C253 C252 1.397 . S
C253 C254 1.385 . S
C254 H237 0.940 . S
C254 C253 1.385 . S
C254 C255 1.388 . S
C255 H234 0.939 . S
C255 C250 1.391 . S
C255 C254 1.388 . S
C256 O272 1.251 . S
C256 O274 1.254 1_545 S
N257 C258 1.333 . S
N257 C262 1.307 . S
N257 Zn263 2.020 . S
C258 N257 1.333 . S
C258 C259 1.379 . S
C258 H276 0.952 . S
C259 C258 1.379 . S
C259 C260 1.390 . S
C259 H286 0.949 . S
C260 C259 1.390 . S
C260 C261 1.357 . S
C261 C260 1.357 . S
C261 C262 1.370 . S
C261 H287 0.950 . S
C262 N257 1.307 . S
C262 C261 1.370 . S
C262 H280 0.948 1_455 S
Zn263 N257 2.020 . S
Zn263 O272 2.039 . S
Zn263 O278 2.034 . S
Zn263 O282 2.025 1_455 S
Zn263 O284 2.024 1_455 S
C264 O283 1.246 1_545 S
C264 O284 1.249 . S
N265 C266 1.307 1_655 S
N265 C267 1.333 . S
N265 Zn271 2.020 1_655 S
C266 N265 1.307 1_455 S
C266 C270 1.370 1_455 S
C266 H277 0.948 . S
C267 N265 1.333 . S
C267 C268 1.379 . S
C267 H275 0.952 . S
C268 C267 1.379 . S
C268 C269 1.390 . S
C268 H288 0.949 . S
C269 C268 1.390 . S
C269 C270 1.357 . S
C270 C266 1.370 1_655 S
C270 C269 1.357 . S
C270 H289 0.950 1_655 S
Zn271 N265 2.020 1_455 S
Zn271 O274 2.025 . S
Zn271 O279 2.024 . S
Zn271 O281 2.039 1_455 S
Zn271 O283 2.034 1_455 S
O272 C256 1.251 . S
O272 Zn263 2.039 . S
C273 O278 1.246 1_565 S
C273 O279 1.249 . S
O274 C256 1.254 1_565 S
O274 Zn271 2.025 . S
H275 C267 0.952 . S
H276 C258 0.952 . S
H277 C266 0.948 . S
O278 Zn263 2.034 . S
O278 C273 1.246 1_545 S
O279 Zn271 2.024 . S
O279 C273 1.249 . S
H280 C262 0.948 1_655 S
O281 Zn271 2.039 1_655 S
O281 C285 1.251 . S
O282 Zn263 2.025 1_655 S
O282 C285 1.254 1_545 S
O283 C264 1.246 1_565 S
O283 Zn271 2.034 1_655 S
O284 Zn263 2.024 1_655 S
O284 C264 1.249 . S
C285 O281 1.251 . S
C285 O282 1.254 1_565 S
H286 C259 0.949 . S
H287 C261 0.950 . S
H288 C268 0.949 . S
H289 C270 0.950 1_455 S
C290 O306 1.251 1_565 S
C290 O308 1.254 1_556 S
N291 C292 1.333 . S
N291 C296 1.307 . S
N291 Zn297 2.020 . S
C292 N291 1.333 . S
C292 C293 1.379 . S
C292 H310 0.952 . S
C293 C292 1.379 . S
C293 C294 1.390 . S
C293 H320 0.949 . S
C294 C293 1.390 . S
C294 C295 1.357 . S
C295 C294 1.357 . S
C295 C296 1.370 . S
C295 H321 0.950 . S
C296 N291 1.307 . S
C296 C295 1.370 . S
C296 H314 0.948 . S
Zn297 N291 2.020 . S
Zn297 O306 2.039 . S
Zn297 O312 2.034 1_556 S
Zn297 O316 2.025 1_556 S
Zn297 O318 2.024 . S
C298 O317 1.246 . S
C298 O318 1.249 1_565 S
N299 C300 1.307 . S
N299 C301 1.333 . S
N299 Zn305 2.020 . S
C300 N299 1.307 . S
C300 C304 1.370 . S
C300 H311 0.948 . S
C301 N299 1.333 . S
C301 C302 1.379 . S
C301 H309 0.952 . S
C302 C301 1.379 . S
C302 C303 1.390 . S
C302 H322 0.949 . S
C303 C302 1.390 . S
C303 C304 1.357 . S
C304 C300 1.370 . S
C304 C303 1.357 . S
C304 H323 0.950 . S
Zn305 N299 2.020 . S
Zn305 O308 2.025 . S
Zn305 O313 2.024 . S
Zn305 O315 2.039 . S
Zn305 O317 2.034 1_554 S
O306 C290 1.251 1_545 S
O306 Zn297 2.039 . S
C307 O312 1.246 . S
C307 O313 1.249 1_545 S
O308 C290 1.254 1_554 S
O308 Zn305 2.025 . S
H309 C301 0.952 . S
H310 C292 0.952 . S
H311 C300 0.948 . S
O312 Zn297 2.034 1_554 S
O312 C307 1.246 . S
O313 Zn305 2.024 . S
O313 C307 1.249 1_565 S
H314 C296 0.948 . S
O315 Zn305 2.039 . S
O315 C319 1.251 1_565 S
O316 Zn297 2.025 1_554 S
O316 C319 1.254 . S
O317 C298 1.246 . S
O317 Zn305 2.034 1_556 S
O318 Zn297 2.024 . S
O318 C298 1.249 1_545 S
C319 O315 1.251 1_545 S
C319 O316 1.254 . S
H320 C293 0.949 . S
H321 C295 0.950 . S
H322 C302 0.949 . S
H323 C304 0.950 . S
C324 O340 1.251 . S
C324 O342 1.254 . S
N325 C326 1.333 . S
N325 C330 1.307 . S
N325 Zn331 2.020 . S
C326 N325 1.333 . S
C326 C327 1.379 . S
C326 H344 0.952 . S
C327 C326 1.379 . S
C327 C328 1.390 . S
C327 H354 0.949 . S
C328 C327 1.390 . S
C328 C329 1.357 . S
C329 C328 1.357 . S
C329 C330 1.370 . S
C329 H355 0.950 . S
C330 N325 1.307 . S
C330 C329 1.370 . S
C330 H348 0.948 . S
Zn331 N325 2.020 . S
Zn331 O340 2.039 . S
Zn331 O346 2.034 . S
Zn331 O350 2.025 . S
Zn331 O352 2.024 . S
C332 O351 1.246 . S
C332 O352 1.249 . S
N333 C334 1.307 . S
N333 C335 1.333 . S
N333 Zn339 2.020 . S
C334 N333 1.307 . S
C334 C338 1.370 . S
C334 H345 0.948 . S
C335 N333 1.333 . S
C335 C336 1.379 . S
C335 H343 0.952 . S
C336 C335 1.379 . S
C336 C337 1.390 . S
C336 H356 0.949 . S
C337 C336 1.390 . S
C337 C338 1.357 . S
C338 C334 1.370 . S
C338 C337 1.357 . S
C338 H357 0.950 . S
Zn339 N333 2.020 . S
Zn339 O342 2.025 . S
Zn339 O347 2.024 . S
Zn339 O349 2.039 . S
Zn339 O351 2.034 . S
O340 C324 1.251 . S
O340 Zn331 2.039 . S
C341 O346 1.246 . S
C341 O347 1.249 . S
O342 C324 1.254 . S
O342 Zn339 2.025 . S
H343 C335 0.952 . S
H344 C326 0.952 . S
H345 C334 0.948 . S
O346 Zn331 2.034 . S
O346 C341 1.246 . S
O347 Zn339 2.024 . S
O347 C341 1.249 . S
H348 C330 0.948 . S
O349 Zn339 2.039 . S
O349 C353 1.251 . S
O350 Zn331 2.025 . S
O350 C353 1.254 . S
O351 C332 1.246 . S
O351 Zn339 2.034 . S
O352 Zn331 2.024 . S
O352 C332 1.249 . S
C353 O349 1.251 . S
C353 O350 1.254 . S
H354 C327 0.949 . S
H355 C329 0.950 . S
H356 C336 0.949 . S
H357 C338 0.950 . S
C358 O374 1.251 1_556 S
C358 O376 1.254 1_655 S
N359 C360 1.333 . S
N359 C364 1.307 . S
N359 Zn365 2.020 . S
C360 N359 1.333 . S
C360 C361 1.379 . S
C360 H378 0.952 . S
C361 C360 1.379 . S
C361 C362 1.390 . S
C361 H388 0.949 . S
C362 C361 1.390 . S
C362 C363 1.357 . S
C363 C362 1.357 . S
C363 C364 1.370 . S
C363 H389 0.950 . S
C364 N359 1.307 . S
C364 C363 1.370 . S
C364 H382 0.948 . S
Zn365 N359 2.020 . S
Zn365 O374 2.039 . S
Zn365 O380 2.034 1_655 S
Zn365 O384 2.025 1_655 S
Zn365 O386 2.024 . S
C366 O385 1.246 . S
C366 O386 1.249 1_556 S
N367 C368 1.307 . S
N367 C369 1.333 . S
N367 Zn373 2.020 . S
C368 N367 1.307 . S
C368 C372 1.370 . S
C368 H379 0.948 . S
C369 N367 1.333 . S
C369 C370 1.379 . S
C369 H377 0.952 . S
C370 C369 1.379 . S
C370 C371 1.390 . S
C370 H390 0.949 . S
C371 C370 1.390 . S
C371 C372 1.357 . S
C372 C368 1.370 . S
C372 C371 1.357 . S
C372 H391 0.950 . S
Zn373 N367 2.020 . S
Zn373 O376 2.025 . S
Zn373 O381 2.024 . S
Zn373 O383 2.039 . S
Zn373 O385 2.034 1_455 S
O374 C358 1.251 1_554 S
O374 Zn365 2.039 . S
C375 O380 1.246 . S
C375 O381 1.249 1_554 S
O376 C358 1.254 1_455 S
O376 Zn373 2.025 . S
H377 C369 0.952 . S
H378 C360 0.952 . S
H379 C368 0.948 . S
O380 Zn365 2.034 1_455 S
O380 C375 1.246 . S
O381 Zn373 2.024 . S
O381 C375 1.249 1_556 S
H382 C364 0.948 . S
O383 Zn373 2.039 . S
O383 C387 1.251 1_556 S
O384 Zn365 2.025 1_455 S
O384 C387 1.254 . S
O385 C366 1.246 . S
O385 Zn373 2.034 1_655 S
O386 Zn365 2.024 . S
O386 C366 1.249 1_554 S
C387 O383 1.251 1_554 S
C387 O384 1.254 . S
H388 C361 0.949 . S
H389 C363 0.950 . S
H390 C370 0.949 . S
H391 C372 0.950 . S
C29 C256 3.133 . S
C49 C298 3.164 . S
C328 C93 1.199 . S
C119 C362 1.296 . S
C319 C17 2.149 . S
C273 C61 2.430 . S
C366 C81 1.361 . S
C332 C125 1.454 . S
C23 C387 2.852 . S
C294 C87 1.538 . S
C113 C269 1.676 . S
C55 C353 3.025 . S
C285 C157 3.241 . S
C189 C307 3.056 . S
C221 C337 1.717 . S
C253 C371 1.356 . S
C145 C290 2.431 . S
C264 C183 2.068 . S
C375 C209 1.800 . S
C341 C247 1.420 . S
C151 C358 3.091 . S
C303 C215 1.960 . S
C260 C241 1.684 . S
C177 C324 2.920 . S
