# Generated by pormake.
# Topology pyr, (3,6)-cn, num edge types: 1
# Building blocks:
#     Node 0, Type 0, BuildingBlock: BETDAH_clean_linker_0, # of connection points: 3
#     Node 1, Type 0, BuildingBlock: BETDAH_clean_linker_0, # of connection points: 3
#     Node 2, Type 0, BuildingBlock: BETDAH_clean_linker_0, # of connection points: 3
#     Node 3, Type 0, BuildingBlock: BETDAH_clean_linker_0, # of connection points: 3
#     Node 4, Type 0, BuildingBlock: BETDAH_clean_linker_0, # of connection points: 3
#     Node 5, Type 0, BuildingBlock: BETDAH_clean_linker_0, # of connection points: 3
#     Node 6, Type 0, BuildingBlock: BETDAH_clean_linker_0, # of connection points: 3
#     Node 7, Type 0, BuildingBlock: BETDAH_clean_linker_0, # of connection points: 3
#     Node 8, Type 1, BuildingBlock: MIFKUJ_clean_sbu_0, # of connection points: 6
#     Node 9, Type 1, BuildingBlock: MIFKUJ_clean_sbu_0, # of connection points: 6
#     Node 10, Type 1, BuildingBlock: MIFKUJ_clean_sbu_0, # of connection points: 6
#     Node 11, Type 1, BuildingBlock: MIFKUJ_clean_sbu_0, # of connection points: 6
#     Edge 12, Type (0, 1), BuildingBlock: KIFKEQ_clean_linker_1, # of connection points: 2
#     Edge 13, Type (0, 1), BuildingBlock: KIFKEQ_clean_linker_1, # of connection points: 2
#     Edge 14, Type (0, 1), BuildingBlock: KIFKEQ_clean_linker_1, # of connection points: 2
#     Edge 15, Type (0, 1), BuildingBlock: KIFKEQ_clean_linker_1, # of connection points: 2
#     Edge 16, Type (0, 1), BuildingBlock: KIFKEQ_clean_linker_1, # of connection points: 2
#     Edge 17, Type (0, 1), BuildingBlock: KIFKEQ_clean_linker_1, # of connection points: 2
#     Edge 18, Type (0, 1), BuildingBlock: KIFKEQ_clean_linker_1, # of connection points: 2
#     Edge 19, Type (0, 1), BuildingBlock: KIFKEQ_clean_linker_1, # of connection points: 2
#     Edge 20, Type (0, 1), BuildingBlock: KIFKEQ_clean_linker_1, # of connection points: 2
#     Edge 21, Type (0, 1), BuildingBlock: KIFKEQ_clean_linker_1, # of connection points: 2
#     Edge 22, Type (0, 1), BuildingBlock: KIFKEQ_clean_linker_1, # of connection points: 2
#     Edge 23, Type (0, 1), BuildingBlock: KIFKEQ_clean_linker_1, # of connection points: 2
#     Edge 24, Type (0, 1), BuildingBlock: KIFKEQ_clean_linker_1, # of connection points: 2
#     Edge 25, Type (0, 1), BuildingBlock: KIFKEQ_clean_linker_1, # of connection points: 2
#     Edge 26, Type (0, 1), BuildingBlock: KIFKEQ_clean_linker_1, # of connection points: 2
#     Edge 27, Type (0, 1), BuildingBlock: KIFKEQ_clean_linker_1, # of connection points: 2
#     Edge 28, Type (0, 1), BuildingBlock: KIFKEQ_clean_linker_1, # of connection points: 2
#     Edge 29, Type (0, 1), BuildingBlock: KIFKEQ_clean_linker_1, # of connection points: 2
#     Edge 30, Type (0, 1), BuildingBlock: KIFKEQ_clean_linker_1, # of connection points: 2
#     Edge 31, Type (0, 1), BuildingBlock: KIFKEQ_clean_linker_1, # of connection points: 2
#     Edge 32, Type (0, 1), BuildingBlock: KIFKEQ_clean_linker_1, # of connection points: 2
#     Edge 33, Type (0, 1), BuildingBlock: KIFKEQ_clean_linker_1, # of connection points: 2
#     Edge 34, Type (0, 1), BuildingBlock: KIFKEQ_clean_linker_1, # of connection points: 2
#     Edge 35, Type (0, 1), BuildingBlock: KIFKEQ_clean_linker_1, # of connection points: 2
# Relax obj value: 0.055
# Max RMSD: 0.192
# Mean RMSD: 0.126
data_MOF--net-pyr--node1-MIFKUJ_clean_sbu_0--node2-BETDAH_clean_linker_0--edge1-KIFKEQ_clean_linker_1
_symmetry_space_group_name_H-M    P1
_symmetry_Int_Tables_number       1
_symmetry_cell_setting            triclinic
loop_
_symmetry_equiv_pos_as_xyz
'x, y, z'
_cell_length_a     38.783477
_cell_length_b     35.351526
_cell_length_c     39.153898
_cell_angle_alpha  86.295589
_cell_angle_beta   89.167509
_cell_angle_gamma 103.02028
loop_
_atom_site_label
_atom_site_type_symbol
_atom_site_fract_x
_atom_site_fract_y
_atom_site_fract_z
_atom_type_partial_charge
H0 H 0.20244 0.1101 0.22479 0.0
H1 H 0.22086 0.18131 0.13014 0.0
H2 H 0.13312 0.18583 0.1969 0.0
C3 C 0.19518 0.13156 0.20697 0.0
C4 C 0.16535 0.14632 0.2144 0.0
C5 C 0.21559 0.14406 0.17677 0.0
C6 C 0.20545 0.17124 0.15362 0.0
C7 C 0.1761 0.18665 0.16071 0.0
C8 C 0.15618 0.17449 0.19141 0.0
N9 N 0.16726 0.21354 0.13577 0.0
C10 C 0.14429 0.23778 0.14092 0.0
H11 H 0.41241 0.84749 0.77398 0.0
H12 H 0.35192 0.93487 0.78386 0.0
H13 H 0.34619 0.87308 0.69257 0.0
C14 C 0.39371 0.86375 0.76407 0.0
C15 C 0.38006 0.85665 0.73142 0.0
C16 C 0.38427 0.89236 0.78331 0.0
C17 C 0.36048 0.91342 0.76932 0.0
C18 C 0.34675 0.90686 0.73682 0.0
C19 C 0.35674 0.87852 0.7177 0.0
N20 N 0.32309 0.92963 0.72459 0.0
C21 C 0.30398 0.92463 0.69481 0.0
H22 H 0.70425 0.33811 0.92946 0.0
H23 H 0.69248 0.41648 0.84355 0.0
H24 H 0.61726 0.30763 0.86226 0.0
C25 C 0.68984 0.3452 0.90739 0.0
C26 C 0.65873 0.31893 0.89902 0.0
C27 C 0.70262 0.38041 0.88748 0.0
C28 C 0.68336 0.38937 0.85892 0.0
C29 C 0.65241 0.36296 0.85011 0.0
C30 C 0.64073 0.32794 0.86988 0.0
N31 N 0.63235 0.36974 0.82127 0.0
C32 C 0.63506 0.40502 0.80245 0.0
H33 H 0.79701 0.73882 0.36138 0.0
H34 H 0.86124 0.71979 0.27628 0.0
H35 H 0.75609 0.64882 0.29438 0.0
C36 C 0.80036 0.72304 0.33917 0.0
C37 C 0.77279 0.69264 0.33029 0.0
C38 C 0.83221 0.73328 0.31965 0.0
C39 C 0.8367 0.71208 0.29133 0.0
C40 C 0.80886 0.68174 0.28208 0.0
C41 C 0.77715 0.67258 0.30143 0.0
N42 N 0.81122 0.65972 0.25349 0.0
C43 C 0.84165 0.66114 0.23392 0.0
H44 H 0.89887 0.84763 0.78335 0.0
H45 H 0.83249 0.86769 0.86646 0.0
H46 H 0.84026 0.93689 0.77101 0.0
C47 C 0.88036 0.86317 0.79361 0.0
C48 C 0.87078 0.89288 0.77314 0.0
C49 C 0.86714 0.85421 0.82752 0.0
C50 C 0.84268 0.87423 0.84033 0.0
C51 C 0.83294 0.90411 0.81978 0.0
C52 C 0.84749 0.91353 0.78658 0.0
N53 N 0.80973 0.9265 0.83172 0.0
C54 C 0.78756 0.91697 0.86068 0.0
H55 H 0.71279 0.13994 0.33785 0.0
H56 H 0.7455 0.22283 0.41294 0.0
H57 H 0.64923 0.22182 0.35999 0.0
C58 C 0.7076 0.16321 0.3524 0.0
C59 C 0.67769 0.17869 0.34563 0.0
C60 C 0.73208 0.17882 0.37669 0.0
C61 C 0.72669 0.2104 0.39421 0.0
C62 C 0.69686 0.2257 0.38863 0.0
C63 C 0.67218 0.20974 0.36446 0.0
N64 N 0.69365 0.258 0.40717 0.0
C65 C 0.66295 0.27124 0.41227 0.0
H66 H 0.31145 0.71851 0.18216 0.0
H67 H 0.28584 0.60189 0.22958 0.0
H68 H 0.38427 0.67971 0.25042 0.0
C69 C 0.318 0.69586 0.19913 0.0
C70 C 0.3506 0.70319 0.21551 0.0
C71 C 0.29427 0.65942 0.20389 0.0
C72 C 0.3034 0.63048 0.22593 0.0
C73 C 0.33524 0.63774 0.24334 0.0
C74 C 0.35911 0.67412 0.23782 0.0
N75 N 0.34262 0.60731 0.26542 0.0
C76 C 0.36665 0.6127 0.29162 0.0
H77 H 0.19386 0.33238 0.65587 0.0
H78 H 0.16732 0.41634 0.72057 0.0
H79 H 0.08964 0.31277 0.70198 0.0
C80 C 0.17471 0.34206 0.67156 0.0
C81 C 0.14055 0.31843 0.67664 0.0
C82 C 0.18466 0.37771 0.68684 0.0
C83 C 0.16016 0.38887 0.70882 0.0
C84 C 0.12591 0.36506 0.71446 0.0
C85 C 0.11634 0.33034 0.69809 0.0
N86 N 0.09983 0.37525 0.73555 0.0
C87 C 0.10583 0.40509 0.75767 0.0
Zn88 Zn 0.06623 0.00983 0.51258 0.0
Zn89 Zn 0.98335 0.01936 0.47239 0.0
C90 C 0.08152 0.06488 0.56176 0.0
O91 O 0.08043 0.03225 0.58027 0.0
C92 C 0.98187 0.94444 0.44271 0.0
O93 O 0.99741 0.93529 0.47064 0.0
O94 O 0.10834 0.98755 0.52681 0.0
O95 O 0.02366 0.98022 0.54023 0.0
O96 O 0.97418 0.99392 0.52038 0.0
C97 C 0.10514 0.9573 0.54717 0.0
O98 O 0.07332 0.93797 0.55756 0.0
O99 O 0.07608 0.0635 0.52986 0.0
C100 C 0.94302 0.06611 0.43448 0.0
O101 O 0.96756 0.06656 0.41089 0.0
O102 O 0.94473 0.04849 0.46356 0.0
O103 O 0.0305 0.05612 0.46019 0.0
O104 O 0.0649 0.01443 0.46104 0.0
O105 O 0.97472 0.97778 0.43869 0.0
C106 C 0.99062 0.97817 0.54306 0.0
C107 C 0.05348 0.04166 0.44552 0.0
Zn108 Zn 0.55005 0.98932 0.05503 0.0
Zn109 Zn 0.49654 0.03464 0.09276 0.0
C110 C 0.49595 0.94678 0.01267 0.0
O111 O 0.50035 0.91684 0.0324 0.0
C112 C 0.54099 0.08435 0.13715 0.0
O113 O 0.53634 0.11055 0.11337 0.0
O114 O 0.58883 0.96546 0.03659 0.0
O115 O 0.5716 0.04692 0.05414 0.0
O116 O 0.52066 0.06457 0.0504 0.0
C117 C 0.59626 0.97343 1.00479 0.0
O118 O 0.57941 0.99638 0.98745 0.0
O119 O 0.51266 0.98082 0.01889 0.0
C120 C 0.4343 0.04349 0.12815 0.0
O121 O 0.44398 0.01839 0.15008 0.0
O122 O 0.45298 0.0551 0.10094 0.0
O123 O 0.47915 0.97663 0.09304 0.0
O124 O 0.53003 0.95973 0.09969 0.0
O125 O 0.5271 0.04865 0.1337 0.0
C126 C 0.55381 0.07148 0.04423 0.0
C127 C 0.49676 0.95296 0.10533 0.0
Zn128 Zn 0.52273 0.52434 0.53547 0.0
Zn129 Zn 0.48667 0.58737 0.58663 0.0
C130 C 0.55857 0.56358 0.4757 0.0
O131 O 0.5344 0.53683 0.46232 0.0
C132 C 0.43303 0.53424 0.62875 0.0
O133 O 0.45529 0.54515 0.65312 0.0
O134 O 0.52628 0.47345 0.51569 0.0
O135 O 0.53872 0.52259 0.58401 0.0
O136 O 0.52618 0.57034 0.61258 0.0
C137 C 0.55403 0.46125 0.52256 0.0
O138 O 0.57721 0.4809 0.54274 0.0
O139 O 0.55873 0.56524 0.50803 0.0
C140 C 0.44711 0.6423 0.60589 0.0
O141 O 0.42218 0.6175 0.59136 0.0
O142 O 0.47834 0.63648 0.60645 0.0
O143 O 0.49025 0.5976 0.53502 0.0
O144 O 0.47498 0.53533 0.52648 0.0
O145 O 0.44169 0.54692 0.59797 0.0
C146 C 0.54148 0.54223 0.61033 0.0
C147 C 0.47648 0.5705 0.5162 0.0
Zn148 Zn 0.99681 0.58911 0.97914 0.0
Zn149 Zn 0.02535 0.52638 0.03261 0.0
C150 C 0.94487 0.53531 0.94526 0.0
O151 O 0.96835 0.54675 0.92002 0.0
C152 C 0.06763 0.57166 0.0801 0.0
O153 O 0.03995 0.5546 0.09964 0.0
O154 O 0.98609 0.63621 0.9535 0.0
O155 O 1.00244 0.60256 0.02812 0.0
O156 O 0.98116 0.54233 0.04846 0.0
C157 C 0.95952 0.64786 0.96455 0.0
O158 O 0.94213 0.6299 0.9922 0.0
O159 O 0.9519 0.54799 0.97463 0.0
C160 C 0.05989 0.46992 0.05908 0.0
O161 O 0.08535 0.49484 0.04167 0.0
O162 O 0.02883 0.47621 0.05914 0.0
O163 O 0.03326 0.51693 0.98304 0.0
O164 O 0.03694 0.57381 0.95438 0.0
O165 O 0.06733 0.56583 0.04836 0.0
C166 C 0.98411 0.57865 0.05062 0.0
C167 C 0.04275 0.53976 0.95643 0.0
H168 H 0.14337 0.18828 0.26341 0.0
H169 H 0.13952 0.07081 0.23698 0.0
H170 H 0.11441 0.16322 0.31888 0.0
H171 H 0.10988 0.04563 0.29172 0.0
H172 H 0.10192 0.01679 0.40659 0.0
H173 H 0.12612 0.0427 0.35011 0.0
H174 H 0.06107 0.12724 0.3488 0.0
H175 H 0.03782 0.10222 0.40607 0.0
C176 C 0.13569 0.1571 0.26926 0.0
C177 C 0.14401 0.13148 0.24616 0.0
C178 C 0.11909 0.14269 0.30097 0.0
C179 C 0.11026 0.10238 0.31001 0.0
C180 C 0.11713 0.07684 0.28604 0.0
C181 C 0.13392 0.09122 0.2546 0.0
C182 C 0.09273 0.0409 0.39432 0.0
C183 C 0.06775 0.05725 0.41085 0.0
C184 C 0.10641 0.05559 0.36173 0.0
C185 C 0.09534 0.08689 0.34469 0.0
C186 C 0.07039 0.10332 0.36125 0.0
C187 C 0.05682 0.08872 0.39398 0.0
H188 H 0.40077 0.84078 0.83285 0.0
H189 H 0.40196 0.96272 0.81227 0.0
H190 H 0.42649 0.85471 0.88808 0.0
H191 H 0.42447 0.97598 0.86864 0.0
H192 H 0.50208 0.99587 0.95512 0.0
H193 H 0.4748 0.98262 0.90043 0.0
H194 H 0.41652 0.87026 0.9436 0.0
H195 H 0.44559 0.88291 0.99782 0.0
C196 C 0.40637 0.87057 0.84004 0.0
C197 C 0.39923 0.90055 0.81776 0.0
C198 C 0.42058 0.87849 0.87216 0.0
C199 C 0.42758 0.91654 0.8832 0.0
C200 C 0.42004 0.9464 0.86106 0.0
C201 C 0.40644 0.93861 0.82875 0.0
C202 C 0.48316 0.96851 0.95302 0.0
C203 C 0.47602 0.94042 0.98079 0.0
C204 C 0.46732 0.96088 0.92159 0.0
C205 C 0.44338 0.92521 0.91725 0.0
C206 C 0.43537 0.89768 0.94554 0.0
C207 C 0.45175 0.90506 0.97681 0.0
H208 H 0.67488 0.43531 0.74591 0.0
H209 H 0.58328 0.44371 0.80598 0.0
H210 H 0.65853 0.47782 0.70001 0.0
H211 H 0.56616 0.4853 0.76008 0.0
H212 H 0.54696 0.56918 0.67492 0.0
H213 H 0.57678 0.54534 0.72367 0.0
H214 H 0.61152 0.46484 0.66003 0.0
H215 H 0.58261 0.48892 0.61163 0.0
C216 C 0.6518 0.44725 0.74957 0.0
C217 C 0.63037 0.4367 0.77927 0.0
C218 C 0.64219 0.47121 0.72325 0.0
C219 C 0.61075 0.4846 0.72614 0.0
C220 C 0.59069 0.47592 0.75705 0.0
C221 C 0.60041 0.45207 0.78334 0.0
C222 C 0.56144 0.54682 0.67125 0.0
C223 C 0.56211 0.5308 0.63934 0.0
C224 C 0.57841 0.53305 0.69923 0.0
C225 C 0.59657 0.50314 0.69584 0.0
C226 C 0.59833 0.48831 0.66357 0.0
C227 C 0.58136 0.50192 0.63576 0.0
H228 H 0.85546 0.69424 0.17006 0.0
H229 H 0.88781 0.61557 0.24515 0.0
H230 H 0.89397 0.67649 0.12677 0.0
H231 H 0.92699 0.59806 0.20218 0.0
H232 H 0.94607 0.53632 0.10524 0.0
H233 H 0.91645 0.56044 0.15172 0.0
H234 H 0.95465 0.67827 0.10831 0.0
H235 H 0.98372 0.65415 0.06147 0.0
C236 C 0.8717 0.67397 0.17739 0.0
C237 C 0.86915 0.65638 0.21067 0.0
C238 C 0.89373 0.66378 0.15271 0.0
C239 C 0.91335 0.63561 0.16097 0.0
C240 C 0.91184 0.61941 0.1949 0.0
C241 C 0.8898 0.62968 0.21955 0.0
C242 C 0.94824 0.56738 0.10566 0.0
C243 C 0.96707 0.59326 0.07952 0.0
C244 C 0.93154 0.58125 0.13248 0.0
C245 C 0.93325 0.62131 0.13375 0.0
C246 C 0.95254 0.64723 0.10789 0.0
C247 C 0.9693 0.63337 0.08111 0.0
H248 H 0.2371 0.12161 0.11582 0.0
H249 H 0.26646 0.13242 0.22136 0.0
H250 H 0.28983 0.09729 0.10398 0.0
H251 H 0.3191 0.10803 0.20955 0.0
H252 H 0.38884 0.02447 0.18377 0.0
H253 H 0.33583 0.04826 0.19525 0.0
H254 H 0.35426 0.1198 0.10015 0.0
H255 H 0.40699 0.09552 0.08834 0.0
C256 C 0.25494 0.11906 0.13643 0.0
C257 C 0.24755 0.12892 0.16954 0.0
C258 C 0.28515 0.10513 0.12965 0.0
C259 C 0.30866 0.10071 0.15583 0.0
C260 C 0.30125 0.11052 0.18894 0.0
C261 C 0.27106 0.12448 0.19571 0.0
C262 C 0.3816 0.04525 0.16528 0.0
C263 C 0.40215 0.05807 0.13512 0.0
C264 C 0.3513 0.05905 0.17197 0.0
C265 C 0.34083 0.08595 0.14864 0.0
C266 C 0.36136 0.09872 0.11844 0.0
C267 C 0.39169 0.08496 0.11177 0.0
H268 H 0.29807 0.98721 0.6552 0.0
H269 H 0.25668 0.86353 0.6721 0.0
H270 H 0.25205 0.99132 0.61427 0.0
H271 H 0.2109 0.86698 0.63018 0.0
H272 H 0.1069 0.90217 0.59888 0.0
H273 H 0.15816 0.89085 0.6293 0.0
H274 H 0.22672 0.97685 0.5604 0.0
H275 H 0.17509 0.98915 0.53061 0.0
C276 C 0.27958 0.96072 0.64927 0.0
C277 C 0.28074 0.92508 0.66644 0.0
C278 C 0.25326 0.96296 0.62572 0.0
C279 C 0.22751 0.9295 0.61892 0.0
C280 C 0.22992 0.89342 0.63513 0.0
C281 C 0.25626 0.89129 0.65884 0.0
C282 C 0.13292 0.91834 0.58988 0.0
C283 C 0.13681 0.94689 0.56251 0.0
C284 C 0.16245 0.91162 0.60724 0.0
C285 C 0.19672 0.93309 0.59753 0.0
C286 C 0.20072 0.96027 0.56901 0.0
C287 C 0.17112 0.96719 0.55179 0.0
H288 H 0.7552 0.42279 0.84358 0.0
H289 H 0.72742 0.39775 0.95126 0.0
H290 H 0.81261 0.46153 0.85802 0.0
H291 H 0.78571 0.43364 0.96567 0.0
H292 H 0.88336 0.52818 0.98256 0.0
H293 H 0.82406 0.49417 0.96821 0.0
H294 H 0.86719 0.45407 0.8784 0.0
H295 H 0.92611 0.48982 0.89196 0.0
C296 C 0.7612 0.42567 0.87034 0.0
C297 C 0.73665 0.40674 0.8962 0.0
C298 C 0.79447 0.44736 0.87867 0.0
C299 C 0.80426 0.45035 0.91307 0.0
C300 C 0.77926 0.43235 0.9389 0.0
C301 C 0.74586 0.41117 0.93059 0.0
C302 C 0.88013 0.51185 0.95989 0.0
C303 C 0.90938 0.51164 0.93839 0.0
C304 C 0.84609 0.49223 0.95164 0.0
C305 C 0.84055 0.47139 0.92197 0.0
C306 C 0.87011 0.47051 0.90098 0.0
C307 C 0.90404 0.49066 0.90894 0.0
H308 H 0.76706 0.6786 0.39957 0.0
H309 H 0.70458 0.67938 0.30932 0.0
H310 H 0.71341 0.6524 0.43441 0.0
H311 H 0.65061 0.65435 0.3442 0.0
H312 H 0.57193 0.55819 0.40794 0.0
H313 H 0.62227 0.59431 0.37301 0.0
H314 H 0.65982 0.66267 0.45825 0.0
H315 H 0.60991 0.62527 0.49371 0.0
C316 C 0.7417 0.67393 0.38735 0.0
C317 C 0.73992 0.68069 0.35177 0.0
C318 C 0.7109 0.65906 0.4073 0.0
C319 C 0.6776 0.65099 0.39212 0.0
C320 C 0.67582 0.65943 0.35665 0.0
C321 C 0.70667 0.67388 0.33667 0.0
C322 C 0.59072 0.58117 0.41918 0.0
C323 C 0.58711 0.58861 0.4537 0.0
C324 C 0.61953 0.60215 0.39903 0.0
C325 C 0.64528 0.63138 0.4128 0.0
C326 C 0.64085 0.63989 0.44698 0.0
C327 C 0.61214 0.61863 0.46726 0.0
H328 H 0.08456 0.23768 0.10676 0.0
H329 H 0.16063 0.30552 0.17093 0.0
H330 H 0.05925 0.29425 0.09338 0.0
H331 H 0.13524 0.36212 0.15806 0.0
H332 H 0.12475 0.45913 0.07578 0.0
H333 H 0.13968 0.40171 0.10334 0.0
H334 H 0.02871 0.34497 0.1132 0.0
H335 H 0.01357 0.40305 0.08524 0.0
C336 C 0.09496 0.26441 0.11892 0.0
C337 C 0.1243 0.26757 0.13988 0.0
C338 C 0.08051 0.29676 0.11133 0.0
C339 C 0.0955 0.33278 0.12437 0.0
C340 C 0.12341 0.3349 0.14729 0.0
C341 C 0.13776 0.30254 0.15489 0.0
C342 C 0.10341 0.43459 0.08402 0.0
C343 C 0.06798 0.43553 0.07807 0.0
C344 C 0.11199 0.40176 0.10019 0.0
C345 C 0.08538 0.36882 0.11064 0.0
C346 C 0.04978 0.36992 0.10535 0.0
C347 C 0.04113 0.40314 0.08944 0.0
H348 H 0.69574 0.27032 0.93244 0.0
H349 H 0.58941 0.28466 0.91535 0.0
H350 H 0.67206 0.21196 0.96951 0.0
H351 H 0.56575 0.22489 0.94986 0.0
H352 H 0.53179 0.13926 0.03963 0.0
H353 H 0.55871 0.19927 0.00635 0.0
H354 H 0.6414 0.1462 0.97034 0.0
H355 H 0.61522 0.08663 0.00533 0.0
C356 C 0.66733 0.26108 0.9365 0.0
C357 C 0.64455 0.28243 0.92087 0.0
C358 C 0.65369 0.22719 0.95739 0.0
C359 C 0.61692 0.21359 0.96289 0.0
C360 C 0.59422 0.23473 0.94688 0.0
C361 C 0.60783 0.2688 0.92647 0.0
C362 C 0.55584 0.1405 0.02474 0.0
C363 C 0.57134 0.10824 0.02496 0.0
C364 C 0.57118 0.17486 0.0054 0.0
C365 C 0.60204 0.1776 0.98516 0.0
C366 C 0.61789 0.14541 0.98586 0.0
C367 C 0.60283 0.11118 0.00578 0.0
H368 H 0.82492 0.80608 0.32995 0.0
H369 H 0.90193 0.73496 0.33188 0.0
H370 H 0.86743 0.85824 0.35409 0.0
H371 H 0.94515 0.78771 0.35593 0.0
H372 H 0.98022 0.86634 0.44888 0.0
H373 H 0.94961 0.81666 0.41246 0.0
H374 H 0.92326 0.90609 0.34406 0.0
H375 H 0.95321 0.95563 0.38066 0.0
C376 C 0.85127 0.80197 0.33504 0.0
C377 C 0.86013 0.7665 0.32932 0.0
C378 C 0.87576 0.83194 0.34863 0.0
C379 C 0.9097 0.82712 0.35701 0.0
C380 C 0.91911 0.79215 0.34996 0.0
C381 C 0.89456 0.76214 0.33599 0.0
C382 C 0.96844 0.87545 0.42575 0.0
C383 C 0.96858 0.91487 0.41803 0.0
C384 C 0.95107 0.84697 0.40476 0.0
C385 C 0.9336 0.85741 0.37561 0.0
C386 C 0.93589 0.89706 0.36669 0.0
C387 C 0.95313 0.92546 0.38766 0.0
H388 H 0.41079 0.86399 0.66736 0.0
H389 H 0.37193 0.78027 0.7521 0.0
H390 H 0.42855 0.81287 0.63617 0.0
H391 H 0.38875 0.72911 0.72064 0.0
H392 H 0.38225 0.64705 0.62989 0.0
H393 H 0.36664 0.69968 0.65977 0.0
H394 H 0.47518 0.76446 0.65024 0.0
H395 H 0.49125 0.71113 0.62098 0.0
C396 C 0.40589 0.83462 0.67913 0.0
C397 C 0.39 0.82591 0.71203 0.0
C398 C 0.41621 0.80556 0.66145 0.0
C399 C 0.40999 0.7672 0.67611 0.0
C400 C 0.39373 0.75847 0.70882 0.0
C401 C 0.38419 0.78765 0.72678 0.0
C402 C 0.40283 0.67252 0.63405 0.0
C403 C 0.43801 0.67496 0.62312 0.0
C404 C 0.39387 0.70253 0.65125 0.0
C405 C 0.41972 0.73599 0.65721 0.0
C406 C 0.45479 0.73893 0.64576 0.0
C407 C 0.46397 0.70843 0.62921 0.0
H408 H 0.90833 0.96374 0.74795 0.0
H409 H 0.86865 0.846 0.72014 0.0
H410 H 0.93653 0.98127 0.6909 0.0
H411 H 0.89613 0.86395 0.66257 0.0
H412 H 0.91923 0.94962 0.55474 0.0
H413 H 0.88856 0.92623 0.61006 0.0
H414 H 0.98888 0.94576 0.65979 0.0
H415 H 0.01968 0.968 0.60486 0.0
C416 C 0.90537 0.94181 0.72945 0.0
C417 C 0.88644 0.90358 0.73825 0.0
C418 C 0.92151 0.95177 0.69701 0.0
C419 C 0.91831 0.92388 0.67263 0.0
C420 C 0.89874 0.88585 0.68106 0.0
C421 C 0.88323 0.87563 0.71384 0.0
C422 C 0.93472 0.94839 0.57741 0.0
C423 C 0.97185 0.96065 0.57544 0.0
C424 C 0.9172 0.93498 0.60891 0.0
C425 C 0.93653 0.93449 0.6389 0.0
C426 C 0.97355 0.94603 0.63689 0.0
C427 C 0.99109 0.95857 0.60543 0.0
H428 H 0.6565 0.10327 0.32742 0.0
H429 H 0.64456 0.2199 0.29988 0.0
H430 H 0.62393 0.08023 0.27751 0.0
H431 H 0.60954 0.19628 0.25149 0.0
H432 H 0.58603 0.15407 0.14568 0.0
H433 H 0.61696 0.17581 0.19691 0.0
H434 H 0.56943 0.06533 0.25097 0.0
H435 H 0.53984 0.04303 0.19899 0.0
C436 C 0.64668 0.12402 0.31092 0.0
C437 C 0.65371 0.16365 0.31761 0.0
C438 C 0.62747 0.11063 0.28243 0.0
C439 C 0.61425 0.13636 0.26003 0.0
C440 C 0.61994 0.17567 0.2676 0.0
C441 C 0.63955 0.18916 0.29584 0.0
C442 C 0.58231 0.13436 0.16848 0.0
C443 C 0.56054 0.0968 0.16824 0.0
C444 C 0.5998 0.14697 0.19807 0.0
C445 C 0.59558 0.12258 0.22844 0.0
C446 C 0.57381 0.08485 0.22808 0.0
C447 C 0.5567 0.07204 0.19827 0.0
H448 H 0.41771 0.57334 0.30203 0.0
H449 H 0.3632 0.65189 0.34784 0.0
H450 H 0.44861 0.56634 0.35538 0.0
H451 H 0.39354 0.64463 0.40154 0.0
H452 H 0.47289 0.64194 0.4866 0.0
H453 H 0.45091 0.65643 0.43016 0.0
H454 H 0.42934 0.53427 0.41179 0.0
H455 H 0.45155 0.51985 0.46775 0.0
C456 C 0.4129 0.5896 0.32346 0.0
C457 C 0.38842 0.61324 0.32115 0.0
C458 C 0.43028 0.58538 0.35403 0.0
C459 C 0.42329 0.60466 0.38281 0.0
C460 C 0.39977 0.62968 0.37979 0.0
C461 C 0.38236 0.63381 0.34918 0.0
C462 C 0.4636 0.61822 0.47043 0.0
C463 C 0.46388 0.57972 0.48176 0.0
C464 C 0.45091 0.62652 0.43815 0.0
C465 C 0.43847 0.59653 0.41644 0.0
C466 C 0.43923 0.55814 0.42764 0.0
C467 C 0.4517 0.54983 0.4599 0.0
H468 H 0.0668 0.45875 0.75768 0.0
H469 H 0.14297 0.41158 0.81556 0.0
H470 H 0.05728 0.49665 0.80556 0.0
H471 H 0.13426 0.4501 0.86351 0.0
H472 H 0.06408 0.47144 0.95396 0.0
H473 H 0.0858 0.44479 0.90448 0.0
H474 H 0.08077 0.54875 0.84222 0.0
H475 H 0.05822 0.57527 0.8918 0.0
C476 C 0.08225 0.45752 0.7804 0.0
C477 C 0.10566 0.43264 0.78318 0.0
C478 C 0.07692 0.47924 0.8078 0.0
C479 C 0.09483 0.47624 0.83852 0.0
C480 C 0.11968 0.45267 0.84041 0.0
C481 C 0.12496 0.43092 0.81296 0.0
C482 C 0.06784 0.48884 0.92982 0.0
C483 C 0.05906 0.52538 0.92683 0.0
C484 C 0.08066 0.47367 0.90145 0.0
C485 C 0.08503 0.49459 0.8693 0.0
C486 C 0.07736 0.5317 0.86653 0.0
C487 C 0.06459 0.54697 0.89499 0.0
H488 H 0.71932 0.88036 0.85764 0.0
H489 H 0.79548 0.94697 0.92251 0.0
H490 H 0.6712 0.88633 0.89662 0.0
H491 H 0.7474 0.95329 0.96163 0.0
H492 H 0.64905 0.94188 0.0328 0.0
H493 H 0.69543 0.91943 1.00186 0.0
H494 H 0.65008 0.94671 0.90584 0.0
H495 H 0.60431 0.96907 0.93637 0.0
C496 C 0.72571 0.89527 0.88085 0.0
C497 C 0.7608 0.91308 0.88739 0.0
C498 C 0.69825 0.89895 0.90299 0.0
C499 C 0.70552 0.92063 0.93199 0.0
C500 C 0.74101 0.93618 0.93966 0.0
C501 C 0.76848 0.93261 0.91735 0.0
C502 C 0.6489 0.94268 0.00511 0.0
C503 C 0.62318 0.95745 0.987 0.0
C504 C 0.67545 0.92995 0.98744 0.0
C505 C 0.67625 0.9311 0.95145 0.0
C506 C 0.6499 0.94488 0.93357 0.0
C507 C 0.62384 0.95806 0.9511 0.0
H508 H 0.73362 0.10259 0.3907 0.0
H509 H 0.80114 0.21804 0.37907 0.0
H510 H 0.78504 0.07576 0.40497 0.0
H511 H 0.85254 0.19123 0.39316 0.0
H512 H 0.93788 0.11818 0.38122 0.0
H513 H 0.887 0.14558 0.36669 0.0
H514 H 0.82851 0.08109 0.45463 0.0
H515 H 0.87947 0.05394 0.46947 0.0
C516 C 0.7595 0.12213 0.39094 0.0
C517 C 0.76344 0.16236 0.38383 0.0
C518 C 0.78882 0.10685 0.39936 0.0
C519 C 0.82272 0.13145 0.40027 0.0
C520 C 0.82674 0.1716 0.39251 0.0
C521 C 0.79735 0.18694 0.38463 0.0
C522 C 0.91423 0.10998 0.39755 0.0
C523 C 0.91271 0.08392 0.42651 0.0
C524 C 0.88517 0.12576 0.38927 0.0
C525 C 0.8538 0.11532 0.40945 0.0
C526 C 0.85227 0.08934 0.43845 0.0
C527 C 0.88153 0.07404 0.44706 0.0
H528 H 0.28248 0.68245 0.13758 0.0
H529 H 0.22925 0.61778 0.22815 0.0
H530 H 0.22732 0.66786 0.10705 0.0
H531 H 0.17475 0.6012 0.19706 0.0
H532 H 0.07381 0.59971 0.14342 0.0
H533 H 0.12806 0.62596 0.17268 0.0
H534 H 0.18961 0.61438 0.08259 0.0
H535 H 0.13521 0.58947 0.05297 0.0
C536 C 0.25899 0.6653 0.15108 0.0
C537 C 0.26039 0.65125 0.18537 0.0
C538 C 0.22742 0.65651 0.1334 0.0
C539 C 0.1965 0.63325 0.14949 0.0
C540 C 0.19784 0.61964 0.18391 0.0
C541 C 0.22931 0.62865 0.20164 0.0
C542 C 0.09893 0.60332 0.12971 0.0
C543 C 0.10026 0.59231 0.09597 0.0
C544 C 0.13007 0.61809 0.14658 0.0
C545 C 0.16333 0.62178 0.13024 0.0
C546 C 0.16453 0.61231 0.09592 0.0
C547 C 0.13332 0.59791 0.07892 0.0
H548 H 0.22001 0.39161 0.62495 0.0
H549 H 0.23021 0.42154 0.73017 0.0
H550 H 0.27986 0.42822 0.61188 0.0
H551 H 0.28976 0.46081 0.71646 0.0
H552 H 0.40871 0.49154 0.68855 0.0
H553 H 0.3484 0.45518 0.7031 0.0
H554 H 0.31497 0.49107 0.60365 0.0
H555 H 0.37531 0.52567 0.58871 0.0
C556 C 0.23502 0.40616 0.64535 0.0
C557 C 0.22039 0.40311 0.67877 0.0
C558 C 0.2693 0.42776 0.63769 0.0
C559 C 0.28984 0.4476 0.66306 0.0
C560 C 0.27494 0.44543 0.69637 0.0
C561 C 0.2406 0.42337 0.70415 0.0
C562 C 0.38845 0.49136 0.66976 0.0
C563 C 0.39683 0.51112 0.63737 0.0
C564 C 0.35379 0.47084 0.67821 0.0
C565 C 0.32667 0.47006 0.65458 0.0
C566 C 0.33518 0.49024 0.62229 0.0
C567 C 0.36985 0.51023 0.61371 0.0
H568 H 0.8291 0.79415 0.8701 0.0
H569 H 0.93566 0.84947 0.83507 0.0
H570 H 0.8517 0.74489 0.904 0.0
H571 H 0.95836 0.80105 0.86929 0.0
H572 H 0.9826 0.68392 0.90176 0.0
H573 H 0.95979 0.73395 0.86976 0.0
H574 H 0.88562 0.73432 0.95314 0.0
H575 H 0.90774 0.68344 0.98468 0.0
C576 C 0.85736 0.79598 0.86998 0.0
C577 C 0.88057 0.82535 0.84967 0.0
C578 C 0.87037 0.76787 0.88943 0.0
C579 C 0.90688 0.76877 0.88917 0.0
C580 C 0.93005 0.79885 0.8695 0.0
C581 C 0.91705 0.8267 0.84995 0.0
C582 C 0.96154 0.6948 0.91332 0.0
C583 C 0.947 0.67968 0.94575 0.0
C584 C 0.94853 0.72364 0.89504 0.0
C585 C 0.92083 0.73825 0.90885 0.0
C586 C 0.90657 0.72336 0.94148 0.0
C587 C 0.91945 0.69436 0.95967 0.0
H588 H 0.33988 0.7758 0.22171 0.0
H589 H 0.41818 0.71478 0.19013 0.0
H590 H 0.37806 0.83745 0.19976 0.0
H591 H 0.45599 0.77619 0.16663 0.0
H592 H 0.52475 0.89835 0.14178 0.0
H593 H 0.49231 0.83932 0.17433 0.0
H594 H 0.39343 0.86679 0.14431 0.0
H595 H 0.42552 0.92583 0.11319 0.0
C596 C 0.36552 0.77579 0.21035 0.0
C597 C 0.37611 0.74072 0.2074 0.0
C598 C 0.38728 0.81098 0.19747 0.0
C599 C 0.41984 0.81178 0.18072 0.0
C600 C 0.43124 0.77678 0.17951 0.0
C601 C 0.40962 0.74158 0.1929 0.0
C602 C 0.49608 0.89175 0.14233 0.0
C603 C 0.47776 0.91685 0.12493 0.0
C604 C 0.47748 0.85788 0.16089 0.0
C605 C 0.44019 0.84837 0.16227 0.0
C606 C 0.42207 0.87353 0.14466 0.0
C607 C 0.44056 0.90734 0.12644 0.0
H608 H 0.10118 0.24806 0.70316 0.0
H609 H 0.15655 0.30537 0.61076 0.0
H610 H 0.08497 0.18748 0.67478 0.0
H611 H 0.14183 0.24438 0.58293 0.0
H612 H 0.08069 0.13734 0.53274 0.0
H613 H 0.09307 0.19881 0.56028 0.0
H614 H 0.11283 0.13843 0.65494 0.0
H615 H 0.09957 0.07711 0.62778 0.0
C616 C 0.1098 0.24777 0.67676 0.0
C617 C 0.13025 0.28154 0.65928 0.0
C618 C 0.10087 0.21292 0.66061 0.0
C619 C 0.11225 0.21099 0.62661 0.0
C620 C 0.13233 0.24489 0.60901 0.0
C621 C 0.14118 0.27975 0.62513 0.0
C622 C 0.08762 0.13724 0.55944 0.0
C623 C 0.08912 0.10235 0.57807 0.0
C624 C 0.09487 0.17248 0.57519 0.0
C625 C 0.10389 0.17356 0.60986 0.0
C626 C 0.10538 0.1386 0.62839 0.0
C627 C 0.09801 0.10343 0.61272 0.0
H628 H 0.6401 0.33057 0.37988 0.0
H629 H 0.62768 0.25569 0.47268 0.0
H630 H 0.60586 0.37206 0.40642 0.0
H631 H 0.59347 0.29686 0.49933 0.0
H632 H 0.59834 0.41645 0.54549 0.0
H633 H 0.61659 0.36466 0.51703 0.0
H634 H 0.54687 0.37761 0.43427 0.0
H635 H 0.52821 0.4297 0.46314 0.0
C636 C 0.62893 0.32234 0.40554 0.0
C637 C 0.63613 0.29002 0.4243 0.0
C638 C 0.60939 0.34601 0.42074 0.0
C639 C 0.59726 0.3379 0.45508 0.0
C640 C 0.60275 0.30404 0.47296 0.0
C641 C 0.62204 0.28033 0.45768 0.0
C642 C 0.58649 0.40795 0.52146 0.0
C643 C 0.56188 0.42718 0.50655 0.0
C644 C 0.59678 0.37806 0.50524 0.0
C645 C 0.58308 0.36694 0.47345 0.0
C646 C 0.55788 0.38561 0.45874 0.0
C647 C 0.54709 0.41522 0.47533 0.0
loop_
_geom_bond_atom_site_label_1
_geom_bond_atom_site_label_2
_geom_bond_distance
_geom_bond_site_symmetry_2
_ccdc_geom_bond_type
H0 C3 0.929 . S
H1 C6 0.929 . S
H2 C8 0.930 . S
C3 H0 0.929 . S
C3 C4 1.398 . S
C3 C5 1.396 . S
C4 C3 1.398 . S
C4 C8 1.407 . S
C5 C3 1.396 . S
C5 C6 1.394 . S
C6 H1 0.929 . S
C6 C5 1.394 . S
C6 C7 1.382 . S
C7 C6 1.382 . S
C7 C8 1.392 . S
C7 N9 1.420 . S
C8 H2 0.930 . S
C8 C4 1.407 . S
C8 C7 1.392 . S
N9 C7 1.420 . S
N9 C10 1.244 . S
C10 N9 1.244 . S
H11 C14 0.929 . S
H12 C17 0.929 . S
H13 C19 0.930 . S
C14 H11 0.929 . S
C14 C15 1.398 . S
C14 C16 1.396 . S
C15 C14 1.398 . S
C15 C19 1.407 . S
C16 C14 1.396 . S
C16 C17 1.394 . S
C17 H12 0.929 . S
C17 C16 1.394 . S
C17 C18 1.382 . S
C18 C17 1.382 . S
C18 C19 1.392 . S
C18 N20 1.420 . S
C19 H13 0.930 . S
C19 C15 1.407 . S
C19 C18 1.392 . S
N20 C18 1.420 . S
N20 C21 1.244 . S
C21 N20 1.244 . S
H22 C25 0.929 . S
H23 C28 0.929 . S
H24 C30 0.930 . S
C25 H22 0.929 . S
C25 C26 1.398 . S
C25 C27 1.396 . S
C26 C25 1.398 . S
C26 C30 1.407 . S
C27 C25 1.396 . S
C27 C28 1.394 . S
C28 H23 0.929 . S
C28 C27 1.394 . S
C28 C29 1.382 . S
C29 C28 1.382 . S
C29 C30 1.392 . S
C29 N31 1.420 . S
C30 H24 0.930 . S
C30 C26 1.407 . S
C30 C29 1.392 . S
N31 C29 1.420 . S
N31 C32 1.244 . S
C32 N31 1.244 . S
H33 C36 0.929 . S
H34 C39 0.929 . S
H35 C41 0.930 . S
C36 H33 0.929 . S
C36 C37 1.398 . S
C36 C38 1.396 . S
C37 C36 1.398 . S
C37 C41 1.407 . S
C38 C36 1.396 . S
C38 C39 1.394 . S
C39 H34 0.929 . S
C39 C38 1.394 . S
C39 C40 1.382 . S
C40 C39 1.382 . S
C40 C41 1.392 . S
C40 N42 1.420 . S
C41 H35 0.930 . S
C41 C37 1.407 . S
C41 C40 1.392 . S
N42 C40 1.420 . S
N42 C43 1.244 . S
C43 N42 1.244 . S
H44 C47 0.929 . S
H45 C50 0.929 . S
H46 C52 0.930 . S
C47 H44 0.929 . S
C47 C48 1.398 . S
C47 C49 1.396 . S
C48 C47 1.398 . S
C48 C52 1.407 . S
C49 C47 1.396 . S
C49 C50 1.394 . S
C50 H45 0.929 . S
C50 C49 1.394 . S
C50 C51 1.382 . S
C51 C50 1.382 . S
C51 C52 1.392 . S
C51 N53 1.420 . S
C52 H46 0.930 . S
C52 C48 1.407 . S
C52 C51 1.392 . S
N53 C51 1.420 . S
N53 C54 1.244 . S
C54 N53 1.244 . S
H55 C58 0.929 . S
H56 C61 0.929 . S
H57 C63 0.930 . S
C58 H55 0.929 . S
C58 C59 1.398 . S
C58 C60 1.396 . S
C59 C58 1.398 . S
C59 C63 1.407 . S
C60 C58 1.396 . S
C60 C61 1.394 . S
C61 H56 0.929 . S
C61 C60 1.394 . S
C61 C62 1.382 . S
C62 C61 1.382 . S
C62 C63 1.392 . S
C62 N64 1.420 . S
C63 H57 0.930 . S
C63 C59 1.407 . S
C63 C62 1.392 . S
N64 C62 1.420 . S
N64 C65 1.244 . S
C65 N64 1.244 . S
H66 C69 0.929 . S
H67 C72 0.929 . S
H68 C74 0.930 . S
C69 H66 0.929 . S
C69 C70 1.398 . S
C69 C71 1.396 . S
C70 C69 1.398 . S
C70 C74 1.407 . S
C71 C69 1.396 . S
C71 C72 1.394 . S
C72 H67 0.929 . S
C72 C71 1.394 . S
C72 C73 1.382 . S
C73 C72 1.382 . S
C73 C74 1.392 . S
C73 N75 1.420 . S
C74 H68 0.930 . S
C74 C70 1.407 . S
C74 C73 1.392 . S
N75 C73 1.420 . S
N75 C76 1.244 . S
C76 N75 1.244 . S
H77 C80 0.929 . S
H78 C83 0.929 . S
H79 C85 0.930 . S
C80 H77 0.929 . S
C80 C81 1.398 . S
C80 C82 1.396 . S
C81 C80 1.398 . S
C81 C85 1.407 . S
C82 C80 1.396 . S
C82 C83 1.394 . S
C83 H78 0.929 . S
C83 C82 1.394 . S
C83 C84 1.382 . S
C84 C83 1.382 . S
C84 C85 1.392 . S
C84 N86 1.420 . S
C85 H79 0.930 . S
C85 C81 1.407 . S
C85 C84 1.392 . S
N86 C84 1.420 . S
N86 C87 1.244 . S
C87 N86 1.244 . S
Zn88 O94 1.969 . S
Zn88 O95 1.965 1_545 S
Zn88 O99 2.024 . S
Zn88 O104 1.969 . S
Zn89 O96 1.969 1_545 S
Zn89 O102 1.969 . S
Zn89 O103 1.965 1_655 S
Zn89 O105 2.024 1_545 S
C90 O91 1.229 . S
C90 O99 1.058 . S
O91 C90 1.229 . S
C92 O93 1.229 . S
C92 O105 1.058 . S
O93 C92 1.229 . S
O94 Zn88 1.969 . S
O94 C97 1.267 1_545 S
O95 Zn88 1.965 1_565 S
O95 C106 1.260 1_455 S
O96 Zn89 1.969 1_565 S
O96 C106 1.258 . S
C97 O94 1.267 1_565 S
C97 O98 1.228 . S
O98 C97 1.228 . S
O99 Zn88 2.024 . S
O99 C90 1.058 . S
C100 O101 1.228 . S
C100 O102 1.267 . S
O101 C100 1.228 . S
O102 Zn89 1.969 . S
O102 C100 1.267 . S
O103 Zn89 1.965 1_455 S
O103 C107 1.260 . S
O104 Zn88 1.969 . S
O104 C107 1.258 . S
O105 Zn89 2.024 1_565 S
O105 C92 1.058 . S
C106 O95 1.260 1_655 S
C106 O96 1.258 . S
C107 O103 1.260 . S
C107 O104 1.258 . S
Zn108 O114 1.969 . S
Zn108 O115 1.968 1_565 S
Zn108 O119 2.017 1_554 S
Zn108 O124 1.976 . S
Zn109 O116 1.969 . S
Zn109 O122 1.969 . S
Zn109 O123 1.966 . S
Zn109 O125 2.024 . S
C110 O111 1.229 . S
C110 O119 1.058 . S
O111 C110 1.229 . S
C112 O113 1.229 . S
C112 O125 1.058 . S
O113 C112 1.229 . S
O114 Zn108 1.969 . S
O114 C117 1.251 1_554 S
O115 Zn108 1.968 1_545 S
O115 C126 1.260 . S
O116 Zn109 1.969 . S
O116 C126 1.258 . S
C117 O114 1.251 1_556 S
C117 O118 1.228 . S
O118 C117 1.228 . S
O119 Zn108 2.017 1_556 S
O119 C110 1.058 . S
C120 O121 1.228 . S
C120 O122 1.267 . S
O121 C120 1.228 . S
O122 Zn109 1.969 . S
O122 C120 1.267 . S
O123 Zn109 1.966 . S
O123 C127 1.258 1_545 S
O124 Zn108 1.976 . S
O124 C127 1.258 . S
O125 Zn109 2.024 . S
O125 C112 1.058 . S
C126 O115 1.260 . S
C126 O116 1.258 . S
C127 O123 1.258 1_565 S
C127 O124 1.258 . S
Zn128 O134 1.969 . S
Zn128 O135 1.965 . S
Zn128 O139 2.024 . S
Zn128 O144 1.969 . S
Zn129 O136 1.969 . S
Zn129 O142 1.969 . S
Zn129 O143 1.965 . S
Zn129 O145 2.024 . S
C130 O131 1.229 . S
C130 O139 1.058 . S
O131 C130 1.229 . S
C132 O133 1.229 . S
C132 O145 1.058 . S
O133 C132 1.229 . S
O134 Zn128 1.969 . S
O134 C137 1.267 . S
O135 Zn128 1.965 . S
O135 C146 1.260 . S
O136 Zn129 1.969 . S
O136 C146 1.258 . S
C137 O134 1.267 . S
C137 O138 1.228 . S
O138 C137 1.228 . S
O139 Zn128 2.024 . S
O139 C130 1.058 . S
C140 O141 1.228 . S
C140 O142 1.267 . S
O141 C140 1.228 . S
O142 Zn129 1.969 . S
O142 C140 1.267 . S
O143 Zn129 1.965 . S
O143 C147 1.260 . S
O144 Zn128 1.969 . S
O144 C147 1.258 . S
O145 Zn129 2.024 . S
O145 C132 1.058 . S
C146 O135 1.260 . S
C146 O136 1.258 . S
C147 O143 1.260 . S
C147 O144 1.258 . S
Zn148 O154 1.969 . S
Zn148 O155 1.965 1_556 S
Zn148 O159 2.024 . S
Zn148 O164 1.969 1_655 S
Zn149 O156 1.969 . S
Zn149 O162 1.969 . S
Zn149 O163 1.965 1_554 S
Zn149 O165 2.024 . S
C150 O151 1.229 . S
C150 O159 1.058 . S
O151 C150 1.229 . S
C152 O153 1.229 . S
C152 O165 1.058 . S
O153 C152 1.229 . S
O154 Zn148 1.969 . S
O154 C157 1.267 . S
O155 Zn148 1.965 1_554 S
O155 C166 1.260 . S
O156 Zn149 1.969 . S
O156 C166 1.258 1_455 S
C157 O154 1.267 . S
C157 O158 1.228 . S
O158 C157 1.228 . S
O159 Zn148 2.024 . S
O159 C150 1.058 . S
C160 O161 1.228 . S
C160 O162 1.267 . S
O161 C160 1.228 . S
O162 Zn149 1.969 . S
O162 C160 1.267 . S
O163 Zn149 1.965 1_556 S
O163 C167 1.260 . S
O164 Zn148 1.969 1_455 S
O164 C167 1.258 . S
O165 Zn149 2.024 . S
O165 C152 1.058 . S
C166 O155 1.260 . S
C166 O156 1.258 1_655 S
C167 O163 1.260 . S
C167 O164 1.258 . S
H168 C176 0.950 . S
H169 C181 0.950 . S
H170 C178 0.950 . S
H171 C180 0.950 . S
H172 C182 0.950 . S
H173 C184 0.950 . S
H174 C186 0.950 . S
H175 C187 0.950 . S
C176 H168 0.950 . S
C176 C177 1.386 . S
C176 C178 1.391 . S
C177 C176 1.386 . S
C177 C181 1.393 . S
C178 H170 0.950 . S
C178 C176 1.391 . S
C178 C179 1.400 . S
C179 C178 1.400 . S
C179 C180 1.398 . S
C179 C185 1.491 . S
C180 H171 0.950 . S
C180 C179 1.398 . S
C180 C181 1.391 . S
C181 H169 0.950 . S
C181 C177 1.393 . S
C181 C180 1.391 . S
C182 H172 0.950 . S
C182 C183 1.386 . S
C182 C184 1.391 . S
C183 C182 1.386 . S
C183 C187 1.393 . S
C184 H173 0.950 . S
C184 C182 1.391 . S
C184 C185 1.400 . S
C185 C179 1.491 . S
C185 C184 1.400 . S
C185 C186 1.398 . S
C186 H174 0.950 . S
C186 C185 1.398 . S
C186 C187 1.391 . S
C187 H175 0.950 . S
C187 C183 1.393 . S
C187 C186 1.391 . S
H188 C196 0.950 . S
H189 C201 0.950 . S
H190 C198 0.950 . S
H191 C200 0.950 . S
H192 C202 0.950 . S
H193 C204 0.950 . S
H194 C206 0.950 . S
H195 C207 0.950 . S
C196 H188 0.950 . S
C196 C197 1.386 . S
C196 C198 1.391 . S
C197 C196 1.386 . S
C197 C201 1.393 . S
C198 H190 0.950 . S
C198 C196 1.391 . S
C198 C199 1.400 . S
C199 C198 1.400 . S
C199 C200 1.398 . S
C199 C205 1.491 . S
C200 H191 0.950 . S
C200 C199 1.398 . S
C200 C201 1.391 . S
C201 H189 0.950 . S
C201 C197 1.393 . S
C201 C200 1.391 . S
C202 H192 0.950 . S
C202 C203 1.386 . S
C202 C204 1.391 . S
C203 C202 1.386 . S
C203 C207 1.393 . S
C204 H193 0.950 . S
C204 C202 1.391 . S
C204 C205 1.400 . S
C205 C199 1.491 . S
C205 C204 1.400 . S
C205 C206 1.398 . S
C206 H194 0.950 . S
C206 C205 1.398 . S
C206 C207 1.391 . S
C207 H195 0.950 . S
C207 C203 1.393 . S
C207 C206 1.391 . S
H208 C216 0.950 . S
H209 C221 0.950 . S
H210 C218 0.950 . S
H211 C220 0.950 . S
H212 C222 0.950 . S
H213 C224 0.950 . S
H214 C226 0.950 . S
H215 C227 0.950 . S
C216 H208 0.950 . S
C216 C217 1.386 . S
C216 C218 1.391 . S
C217 C216 1.386 . S
C217 C221 1.393 . S
C218 H210 0.950 . S
C218 C216 1.391 . S
C218 C219 1.400 . S
C219 C218 1.400 . S
C219 C220 1.398 . S
C219 C225 1.491 . S
C220 H211 0.950 . S
C220 C219 1.398 . S
C220 C221 1.391 . S
C221 H209 0.950 . S
C221 C217 1.393 . S
C221 C220 1.391 . S
C222 H212 0.950 . S
C222 C223 1.386 . S
C222 C224 1.391 . S
C223 C222 1.386 . S
C223 C227 1.393 . S
C224 H213 0.950 . S
C224 C222 1.391 . S
C224 C225 1.400 . S
C225 C219 1.491 . S
C225 C224 1.400 . S
C225 C226 1.398 . S
C226 H214 0.950 . S
C226 C225 1.398 . S
C226 C227 1.391 . S
C227 H215 0.950 . S
C227 C223 1.393 . S
C227 C226 1.391 . S
H228 C236 0.950 . S
H229 C241 0.950 . S
H230 C238 0.950 . S
H231 C240 0.950 . S
H232 C242 0.950 . S
H233 C244 0.950 . S
H234 C246 0.950 . S
H235 C247 0.950 . S
C236 H228 0.950 . S
C236 C237 1.386 . S
C236 C238 1.391 . S
C237 C236 1.386 . S
C237 C241 1.393 . S
C238 H230 0.950 . S
C238 C236 1.391 . S
C238 C239 1.400 . S
C239 C238 1.400 . S
C239 C240 1.398 . S
C239 C245 1.491 . S
C240 H231 0.950 . S
C240 C239 1.398 . S
C240 C241 1.391 . S
C241 H229 0.950 . S
C241 C237 1.393 . S
C241 C240 1.391 . S
C242 H232 0.950 . S
C242 C243 1.386 . S
C242 C244 1.391 . S
C243 C242 1.386 . S
C243 C247 1.393 . S
C244 H233 0.950 . S
C244 C242 1.391 . S
C244 C245 1.400 . S
C245 C239 1.491 . S
C245 C244 1.400 . S
C245 C246 1.398 . S
C246 H234 0.950 . S
C246 C245 1.398 . S
C246 C247 1.391 . S
C247 H235 0.950 . S
C247 C243 1.393 . S
C247 C246 1.391 . S
H248 C256 0.950 . S
H249 C261 0.950 . S
H250 C258 0.950 . S
H251 C260 0.950 . S
H252 C262 0.950 . S
H253 C264 0.950 . S
H254 C266 0.950 . S
H255 C267 0.950 . S
C256 H248 0.950 . S
C256 C257 1.386 . S
C256 C258 1.391 . S
C257 C256 1.386 . S
C257 C261 1.393 . S
C258 H250 0.950 . S
C258 C256 1.391 . S
C258 C259 1.400 . S
C259 C258 1.400 . S
C259 C260 1.398 . S
C259 C265 1.491 . S
C260 H251 0.950 . S
C260 C259 1.398 . S
C260 C261 1.391 . S
C261 H249 0.950 . S
C261 C257 1.393 . S
C261 C260 1.391 . S
C262 H252 0.950 . S
C262 C263 1.386 . S
C262 C264 1.391 . S
C263 C262 1.386 . S
C263 C267 1.393 . S
C264 H253 0.950 . S
C264 C262 1.391 . S
C264 C265 1.400 . S
C265 C259 1.491 . S
C265 C264 1.400 . S
C265 C266 1.398 . S
C266 H254 0.950 . S
C266 C265 1.398 . S
C266 C267 1.391 . S
C267 H255 0.950 . S
C267 C263 1.393 . S
C267 C266 1.391 . S
H268 C276 0.950 . S
H269 C281 0.950 . S
H270 C278 0.950 . S
H271 C280 0.950 . S
H272 C282 0.950 1_545 S
H273 C284 0.950 . S
H274 C286 0.950 . S
H275 C287 0.950 . S
C276 H268 0.950 . S
C276 C277 1.386 . S
C276 C278 1.391 . S
C277 C276 1.386 . S
C277 C281 1.393 . S
C278 H270 0.950 . S
C278 C276 1.391 . S
C278 C279 1.400 . S
C279 C278 1.400 . S
C279 C280 1.398 . S
C279 C285 1.491 . S
C280 H271 0.950 . S
C280 C279 1.398 . S
C280 C281 1.391 . S
C281 H269 0.950 . S
C281 C277 1.393 . S
C281 C280 1.391 . S
C282 H272 0.950 1_565 S
C282 C283 1.386 . S
C282 C284 1.391 . S
C283 C282 1.386 . S
C283 C287 1.393 . S
C284 H273 0.950 . S
C284 C282 1.391 . S
C284 C285 1.400 . S
C285 C279 1.491 . S
C285 C284 1.400 . S
C285 C286 1.398 . S
C286 H274 0.950 . S
C286 C285 1.398 . S
C286 C287 1.391 . S
C287 H275 0.950 . S
C287 C283 1.393 . S
C287 C286 1.391 . S
H288 C296 0.950 . S
H289 C301 0.950 . S
H290 C298 0.950 . S
H291 C300 0.950 . S
H292 C302 0.950 . S
H293 C304 0.950 . S
H294 C306 0.950 . S
H295 C307 0.950 . S
C296 H288 0.950 . S
C296 C297 1.386 . S
C296 C298 1.391 . S
C297 C296 1.386 . S
C297 C301 1.393 . S
C298 H290 0.950 . S
C298 C296 1.391 . S
C298 C299 1.400 . S
C299 C298 1.400 . S
C299 C300 1.398 . S
C299 C305 1.491 . S
C300 H291 0.950 . S
C300 C299 1.398 . S
C300 C301 1.391 . S
C301 H289 0.950 . S
C301 C297 1.393 . S
C301 C300 1.391 . S
C302 H292 0.950 . S
C302 C303 1.386 . S
C302 C304 1.391 . S
C303 C302 1.386 . S
C303 C307 1.393 . S
C304 H293 0.950 . S
C304 C302 1.391 . S
C304 C305 1.400 . S
C305 C299 1.491 . S
C305 C304 1.400 . S
C305 C306 1.398 . S
C306 H294 0.950 . S
C306 C305 1.398 . S
C306 C307 1.391 . S
C307 H295 0.950 . S
C307 C303 1.393 . S
C307 C306 1.391 . S
H308 C316 0.950 . S
H309 C321 0.950 . S
H310 C318 0.950 . S
H311 C320 0.950 . S
H312 C322 0.950 . S
H313 C324 0.950 . S
H314 C326 0.950 . S
H315 C327 0.950 . S
C316 H308 0.950 . S
C316 C317 1.386 . S
C316 C318 1.391 . S
C317 C316 1.386 . S
C317 C321 1.393 . S
C318 H310 0.950 . S
C318 C316 1.391 . S
C318 C319 1.400 . S
C319 C318 1.400 . S
C319 C320 1.398 . S
C319 C325 1.491 . S
C320 H311 0.950 . S
C320 C319 1.398 . S
C320 C321 1.391 . S
C321 H309 0.950 . S
C321 C317 1.393 . S
C321 C320 1.391 . S
C322 H312 0.950 . S
C322 C323 1.386 . S
C322 C324 1.391 . S
C323 C322 1.386 . S
C323 C327 1.393 . S
C324 H313 0.950 . S
C324 C322 1.391 . S
C324 C325 1.400 . S
C325 C319 1.491 . S
C325 C324 1.400 . S
C325 C326 1.398 . S
C326 H314 0.950 . S
C326 C325 1.398 . S
C326 C327 1.391 . S
C327 H315 0.950 . S
C327 C323 1.393 . S
C327 C326 1.391 . S
H328 C336 0.950 . S
H329 C341 0.950 . S
H330 C338 0.950 . S
H331 C340 0.950 . S
H332 C342 0.950 . S
H333 C344 0.950 . S
H334 C346 0.950 . S
H335 C347 0.950 . S
C336 H328 0.950 . S
C336 C337 1.386 . S
C336 C338 1.391 . S
C337 C336 1.386 . S
C337 C341 1.393 . S
C338 H330 0.950 . S
C338 C336 1.391 . S
C338 C339 1.400 . S
C339 C338 1.400 . S
C339 C340 1.398 . S
C339 C345 1.491 . S
C340 H331 0.950 . S
C340 C339 1.398 . S
C340 C341 1.391 . S
C341 H329 0.950 . S
C341 C337 1.393 . S
C341 C340 1.391 . S
C342 H332 0.950 . S
C342 C343 1.386 . S
C342 C344 1.391 . S
C343 C342 1.386 . S
C343 C347 1.393 . S
C344 H333 0.950 . S
C344 C342 1.391 . S
C344 C345 1.400 . S
C345 C339 1.491 . S
C345 C344 1.400 . S
C345 C346 1.398 . S
C346 H334 0.950 . S
C346 C345 1.398 . S
C346 C347 1.391 . S
C347 H335 0.950 . S
C347 C343 1.393 . S
C347 C346 1.391 . S
H348 C356 0.950 . S
H349 C361 0.950 . S
H350 C358 0.950 . S
H351 C360 0.950 . S
H352 C362 0.950 . S
H353 C364 0.950 . S
H354 C366 0.950 . S
H355 C367 0.950 . S
C356 H348 0.950 . S
C356 C357 1.386 . S
C356 C358 1.391 . S
C357 C356 1.386 . S
C357 C361 1.393 . S
C358 H350 0.950 . S
C358 C356 1.391 . S
C358 C359 1.400 . S
C359 C358 1.400 . S
C359 C360 1.398 . S
C359 C365 1.491 . S
C360 H351 0.950 . S
C360 C359 1.398 . S
C360 C361 1.391 . S
C361 H349 0.950 . S
C361 C357 1.393 . S
C361 C360 1.391 . S
C362 H352 0.950 . S
C362 C363 1.386 . S
C362 C364 1.391 . S
C363 C362 1.386 . S
C363 C367 1.393 . S
C364 H353 0.950 . S
C364 C362 1.391 . S
C364 C365 1.400 . S
C365 C359 1.491 . S
C365 C364 1.400 . S
C365 C366 1.398 . S
C366 H354 0.950 . S
C366 C365 1.398 . S
C366 C367 1.391 . S
C367 H355 0.950 . S
C367 C363 1.393 . S
C367 C366 1.391 . S
H368 C376 0.950 . S
H369 C381 0.950 . S
H370 C378 0.950 . S
H371 C380 0.950 . S
H372 C382 0.950 . S
H373 C384 0.950 . S
H374 C386 0.950 . S
H375 C387 0.950 . S
C376 H368 0.950 . S
C376 C377 1.386 . S
C376 C378 1.391 . S
C377 C376 1.386 . S
C377 C381 1.393 . S
C378 H370 0.950 . S
C378 C376 1.391 . S
C378 C379 1.400 . S
C379 C378 1.400 . S
C379 C380 1.398 . S
C379 C385 1.491 . S
C380 H371 0.950 . S
C380 C379 1.398 . S
C380 C381 1.391 . S
C381 H369 0.950 . S
C381 C377 1.393 . S
C381 C380 1.391 . S
C382 H372 0.950 . S
C382 C383 1.386 . S
C382 C384 1.391 . S
C383 C382 1.386 . S
C383 C387 1.393 . S
C384 H373 0.950 . S
C384 C382 1.391 . S
C384 C385 1.400 . S
C385 C379 1.491 . S
C385 C384 1.400 . S
C385 C386 1.398 . S
C386 H374 0.950 . S
C386 C385 1.398 . S
C386 C387 1.391 . S
C387 H375 0.950 . S
C387 C383 1.393 . S
C387 C386 1.391 . S
H388 C396 0.950 . S
H389 C401 0.950 . S
H390 C398 0.950 . S
H391 C400 0.950 . S
H392 C402 0.950 . S
H393 C404 0.950 . S
H394 C406 0.950 . S
H395 C407 0.950 . S
C396 H388 0.950 . S
C396 C397 1.386 . S
C396 C398 1.391 . S
C397 C396 1.386 . S
C397 C401 1.393 . S
C398 H390 0.950 . S
C398 C396 1.391 . S
C398 C399 1.400 . S
C399 C398 1.400 . S
C399 C400 1.398 . S
C399 C405 1.491 . S
C400 H391 0.950 . S
C400 C399 1.398 . S
C400 C401 1.391 . S
C401 H389 0.950 . S
C401 C397 1.393 . S
C401 C400 1.391 . S
C402 H392 0.950 . S
C402 C403 1.386 . S
C402 C404 1.391 . S
C403 C402 1.386 . S
C403 C407 1.393 . S
C404 H393 0.950 . S
C404 C402 1.391 . S
C404 C405 1.400 . S
C405 C399 1.491 . S
C405 C404 1.400 . S
C405 C406 1.398 . S
C406 H394 0.950 . S
C406 C405 1.398 . S
C406 C407 1.391 . S
C407 H395 0.950 . S
C407 C403 1.393 . S
C407 C406 1.391 . S
H408 C416 0.950 . S
H409 C421 0.950 . S
H410 C418 0.950 . S
H411 C420 0.950 . S
H412 C422 0.950 . S
H413 C424 0.950 . S
H414 C426 0.950 . S
H415 C427 0.934 1_545 S
C416 H408 0.950 . S
C416 C417 1.386 . S
C416 C418 1.391 . S
C417 C416 1.386 . S
C417 C421 1.393 . S
C418 H410 0.950 . S
C418 C416 1.391 . S
C418 C419 1.400 . S
C419 C418 1.400 . S
C419 C420 1.398 . S
C419 C425 1.491 . S
C420 H411 0.950 . S
C420 C419 1.398 . S
C420 C421 1.391 . S
C421 H409 0.950 . S
C421 C417 1.393 . S
C421 C420 1.391 . S
C422 H412 0.950 . S
C422 C423 1.386 . S
C422 C424 1.391 . S
C423 C422 1.386 . S
C423 C427 1.393 . S
C424 H413 0.950 . S
C424 C422 1.391 . S
C424 C425 1.400 . S
C425 C419 1.491 . S
C425 C424 1.400 . S
C425 C426 1.398 . S
C426 H414 0.950 . S
C426 C425 1.398 . S
C426 C427 1.391 . S
C427 H415 0.934 1_565 S
C427 C423 1.393 . S
C427 C426 1.391 . S
H428 C436 0.950 . S
H429 C441 0.950 . S
H430 C438 0.950 . S
H431 C440 0.950 . S
H432 C442 0.950 . S
H433 C444 0.950 . S
H434 C446 0.950 . S
H435 C447 0.950 . S
C436 H428 0.950 . S
C436 C437 1.386 . S
C436 C438 1.391 . S
C437 C436 1.386 . S
C437 C441 1.393 . S
C438 H430 0.950 . S
C438 C436 1.391 . S
C438 C439 1.400 . S
C439 C438 1.400 . S
C439 C440 1.398 . S
C439 C445 1.491 . S
C440 H431 0.950 . S
C440 C439 1.398 . S
C440 C441 1.391 . S
C441 H429 0.950 . S
C441 C437 1.393 . S
C441 C440 1.391 . S
C442 H432 0.950 . S
C442 C443 1.386 . S
C442 C444 1.391 . S
C443 C442 1.386 . S
C443 C447 1.393 . S
C444 H433 0.950 . S
C444 C442 1.391 . S
C444 C445 1.400 . S
C445 C439 1.491 . S
C445 C444 1.400 . S
C445 C446 1.398 . S
C446 H434 0.950 . S
C446 C445 1.398 . S
C446 C447 1.391 . S
C447 H435 0.950 . S
C447 C443 1.393 . S
C447 C446 1.391 . S
H448 C456 0.950 . S
H449 C461 0.950 . S
H450 C458 0.950 . S
H451 C460 0.950 . S
H452 C462 0.950 . S
H453 C464 0.950 . S
H454 C466 0.950 . S
H455 C467 0.950 . S
C456 H448 0.950 . S
C456 C457 1.386 . S
C456 C458 1.391 . S
C457 C456 1.386 . S
C457 C461 1.393 . S
C458 H450 0.950 . S
C458 C456 1.391 . S
C458 C459 1.400 . S
C459 C458 1.400 . S
C459 C460 1.398 . S
C459 C465 1.491 . S
C460 H451 0.950 . S
C460 C459 1.398 . S
C460 C461 1.391 . S
C461 H449 0.950 . S
C461 C457 1.393 . S
C461 C460 1.391 . S
C462 H452 0.950 . S
C462 C463 1.386 . S
C462 C464 1.391 . S
C463 C462 1.386 . S
C463 C467 1.393 . S
C464 H453 0.950 . S
C464 C462 1.391 . S
C464 C465 1.400 . S
C465 C459 1.491 . S
C465 C464 1.400 . S
C465 C466 1.398 . S
C466 H454 0.950 . S
C466 C465 1.398 . S
C466 C467 1.391 . S
C467 H455 0.950 . S
C467 C463 1.393 . S
C467 C466 1.391 . S
H468 C476 0.950 . S
H469 C481 0.950 . S
H470 C478 0.950 . S
H471 C480 0.950 . S
H472 C482 0.950 . S
H473 C484 0.950 . S
H474 C486 0.950 . S
H475 C487 0.950 . S
C476 H468 0.950 . S
C476 C477 1.386 . S
C476 C478 1.391 . S
C477 C476 1.386 . S
C477 C481 1.393 . S
C478 H470 0.950 . S
C478 C476 1.391 . S
C478 C479 1.400 . S
C479 C478 1.400 . S
C479 C480 1.398 . S
C479 C485 1.491 . S
C480 H471 0.950 . S
C480 C479 1.398 . S
C480 C481 1.391 . S
C481 H469 0.950 . S
C481 C477 1.393 . S
C481 C480 1.391 . S
C482 H472 0.950 . S
C482 C483 1.386 . S
C482 C484 1.391 . S
C483 C482 1.386 . S
C483 C487 1.393 . S
C484 H473 0.950 . S
C484 C482 1.391 . S
C484 C485 1.400 . S
C485 C479 1.491 . S
C485 C484 1.400 . S
C485 C486 1.398 . S
C486 H474 0.950 . S
C486 C485 1.398 . S
C486 C487 1.391 . S
C487 H475 0.950 . S
C487 C483 1.393 . S
C487 C486 1.391 . S
H488 C496 0.950 . S
H489 C501 0.950 . S
H490 C498 0.950 . S
H491 C500 0.950 . S
H492 C502 0.950 . S
H493 C504 0.950 . S
H494 C506 0.950 . S
H495 C507 0.950 . S
C496 H488 0.950 . S
C496 C497 1.386 . S
C496 C498 1.391 . S
C497 C496 1.386 . S
C497 C501 1.393 . S
C498 H490 0.950 . S
C498 C496 1.391 . S
C498 C499 1.400 . S
C499 C498 1.400 . S
C499 C500 1.398 . S
C499 C505 1.491 . S
C500 H491 0.950 . S
C500 C499 1.398 . S
C500 C501 1.391 . S
C501 H489 0.950 . S
C501 C497 1.393 . S
C501 C500 1.391 . S
C502 H492 0.950 . S
C502 C503 1.386 . S
C502 C504 1.391 . S
C503 C502 1.386 . S
C503 C507 1.393 . S
C504 H493 0.950 . S
C504 C502 1.391 . S
C504 C505 1.400 . S
C505 C499 1.491 . S
C505 C504 1.400 . S
C505 C506 1.398 . S
C506 H494 0.950 . S
C506 C505 1.398 . S
C506 C507 1.391 . S
C507 H495 0.950 . S
C507 C503 1.393 . S
C507 C506 1.391 . S
H508 C516 0.950 . S
H509 C521 0.950 . S
H510 C518 0.950 . S
H511 C520 0.950 . S
H512 C522 0.950 . S
H513 C524 0.950 . S
H514 C526 0.950 . S
H515 C527 0.950 . S
C516 H508 0.950 . S
C516 C517 1.386 . S
C516 C518 1.391 . S
C517 C516 1.386 . S
C517 C521 1.393 . S
C518 H510 0.950 . S
C518 C516 1.391 . S
C518 C519 1.400 . S
C519 C518 1.400 . S
C519 C520 1.398 . S
C519 C525 1.491 . S
C520 H511 0.950 . S
C520 C519 1.398 . S
C520 C521 1.391 . S
C521 H509 0.950 . S
C521 C517 1.393 . S
C521 C520 1.391 . S
C522 H512 0.950 . S
C522 C523 1.386 . S
C522 C524 1.391 . S
C523 C522 1.386 . S
C523 C527 1.393 . S
C524 H513 0.950 . S
C524 C522 1.391 . S
C524 C525 1.400 . S
C525 C519 1.491 . S
C525 C524 1.400 . S
C525 C526 1.398 . S
C526 H514 0.950 . S
C526 C525 1.398 . S
C526 C527 1.391 . S
C527 H515 0.950 . S
C527 C523 1.393 . S
C527 C526 1.391 . S
H528 C536 0.950 . S
H529 C541 0.950 . S
H530 C538 0.950 . S
H531 C540 0.950 . S
H532 C542 0.950 . S
H533 C544 0.950 . S
H534 C546 0.950 . S
H535 C547 0.950 . S
C536 H528 0.950 . S
C536 C537 1.386 . S
C536 C538 1.391 . S
C537 C536 1.386 . S
C537 C541 1.393 . S
C538 H530 0.950 . S
C538 C536 1.391 . S
C538 C539 1.400 . S
C539 C538 1.400 . S
C539 C540 1.398 . S
C539 C545 1.491 . S
C540 H531 0.950 . S
C540 C539 1.398 . S
C540 C541 1.391 . S
C541 H529 0.950 . S
C541 C537 1.393 . S
C541 C540 1.391 . S
C542 H532 0.950 . S
C542 C543 1.386 . S
C542 C544 1.391 . S
C543 C542 1.386 . S
C543 C547 1.393 . S
C544 H533 0.950 . S
C544 C542 1.391 . S
C544 C545 1.400 . S
C545 C539 1.491 . S
C545 C544 1.400 . S
C545 C546 1.398 . S
C546 H534 0.950 . S
C546 C545 1.398 . S
C546 C547 1.391 . S
C547 H535 0.950 . S
C547 C543 1.393 . S
C547 C546 1.391 . S
H548 C556 0.950 . S
H549 C561 0.950 . S
H550 C558 0.950 . S
H551 C560 0.950 . S
H552 C562 0.950 . S
H553 C564 0.950 . S
H554 C566 0.950 . S
H555 C567 0.950 . S
C556 H548 0.950 . S
C556 C557 1.386 . S
C556 C558 1.391 . S
C557 C556 1.386 . S
C557 C561 1.393 . S
C558 H550 0.950 . S
C558 C556 1.391 . S
C558 C559 1.400 . S
C559 C558 1.400 . S
C559 C560 1.398 . S
C559 C565 1.491 . S
C560 H551 0.950 . S
C560 C559 1.398 . S
C560 C561 1.391 . S
C561 H549 0.950 . S
C561 C557 1.393 . S
C561 C560 1.391 . S
C562 H552 0.950 . S
C562 C563 1.386 . S
C562 C564 1.391 . S
C563 C562 1.386 . S
C563 C567 1.393 . S
C564 H553 0.950 . S
C564 C562 1.391 . S
C564 C565 1.400 . S
C565 C559 1.491 . S
C565 C564 1.400 . S
C565 C566 1.398 . S
C566 H554 0.950 . S
C566 C565 1.398 . S
C566 C567 1.391 . S
C567 H555 0.950 . S
C567 C563 1.393 . S
C567 C566 1.391 . S
H568 C576 0.950 . S
H569 C581 0.950 . S
H570 C578 0.950 . S
H571 C580 0.950 . S
H572 C582 0.950 . S
H573 C584 0.950 . S
H574 C586 0.950 . S
H575 C587 0.950 . S
C576 H568 0.950 . S
C576 C577 1.386 . S
C576 C578 1.391 . S
C577 C576 1.386 . S
C577 C581 1.393 . S
C578 H570 0.950 . S
C578 C576 1.391 . S
C578 C579 1.400 . S
C579 C578 1.400 . S
C579 C580 1.398 . S
C579 C585 1.491 . S
C580 H571 0.950 . S
C580 C579 1.398 . S
C580 C581 1.391 . S
C581 H569 0.950 . S
C581 C577 1.393 . S
C581 C580 1.391 . S
C582 H572 0.950 . S
C582 C583 1.386 . S
C582 C584 1.391 . S
C583 C582 1.386 . S
C583 C587 1.393 . S
C584 H573 0.950 . S
C584 C582 1.391 . S
C584 C585 1.400 . S
C585 C579 1.491 . S
C585 C584 1.400 . S
C585 C586 1.398 . S
C586 H574 0.950 . S
C586 C585 1.398 . S
C586 C587 1.391 . S
C587 H575 0.950 . S
C587 C583 1.393 . S
C587 C586 1.391 . S
H588 C596 0.950 . S
H589 C601 0.950 . S
H590 C598 0.950 . S
H591 C600 0.950 . S
H592 C602 0.950 . S
H593 C604 0.950 . S
H594 C606 0.950 . S
H595 C607 0.950 . S
C596 H588 0.950 . S
C596 C597 1.386 . S
C596 C598 1.391 . S
C597 C596 1.386 . S
C597 C601 1.393 . S
C598 H590 0.950 . S
C598 C596 1.391 . S
C598 C599 1.400 . S
C599 C598 1.400 . S
C599 C600 1.398 . S
C599 C605 1.491 . S
C600 H591 0.950 . S
C600 C599 1.398 . S
C600 C601 1.391 . S
C601 H589 0.950 . S
C601 C597 1.393 . S
C601 C600 1.391 . S
C602 H592 0.950 . S
C602 C603 1.386 . S
C602 C604 1.391 . S
C603 C602 1.386 . S
C603 C607 1.393 . S
C604 H593 0.950 . S
C604 C602 1.391 . S
C604 C605 1.400 . S
C605 C599 1.491 . S
C605 C604 1.400 . S
C605 C606 1.398 . S
C606 H594 0.950 . S
C606 C605 1.398 . S
C606 C607 1.391 . S
C607 H595 0.950 . S
C607 C603 1.393 . S
C607 C606 1.391 . S
H608 C616 0.950 . S
H609 C621 0.950 . S
H610 C618 0.950 . S
H611 C620 0.950 . S
H612 C622 0.950 . S
H613 C624 0.950 . S
H614 C626 0.950 . S
H615 C627 0.950 . S
C616 H608 0.950 . S
C616 C617 1.386 . S
C616 C618 1.391 . S
C617 C616 1.386 . S
C617 C621 1.393 . S
C618 H610 0.950 . S
C618 C616 1.391 . S
C618 C619 1.400 . S
C619 C618 1.400 . S
C619 C620 1.398 . S
C619 C625 1.491 . S
C620 H611 0.950 . S
C620 C619 1.398 . S
C620 C621 1.391 . S
C621 H609 0.950 . S
C621 C617 1.393 . S
C621 C620 1.391 . S
C622 H612 0.950 . S
C622 C623 1.386 . S
C622 C624 1.391 . S
C623 C622 1.386 . S
C623 C627 1.393 . S
C624 H613 0.950 . S
C624 C622 1.391 . S
C624 C625 1.400 . S
C625 C619 1.491 . S
C625 C624 1.400 . S
C625 C626 1.398 . S
C626 H614 0.950 . S
C626 C625 1.398 . S
C626 C627 1.391 . S
C627 H615 0.950 . S
C627 C623 1.393 . S
C627 C626 1.391 . S
H628 C636 0.950 . S
H629 C641 0.950 . S
H630 C638 0.950 . S
H631 C640 0.950 . S
H632 C642 0.950 . S
H633 C644 0.950 . S
H634 C646 0.950 . S
H635 C647 0.950 . S
C636 H628 0.950 . S
C636 C637 1.386 . S
C636 C638 1.391 . S
C637 C636 1.386 . S
C637 C641 1.393 . S
C638 H630 0.950 . S
C638 C636 1.391 . S
C638 C639 1.400 . S
C639 C638 1.400 . S
C639 C640 1.398 . S
C639 C645 1.491 . S
C640 H631 0.950 . S
C640 C639 1.398 . S
C640 C641 1.391 . S
C641 H629 0.950 . S
C641 C637 1.393 . S
C641 C640 1.391 . S
C642 H632 0.950 . S
C642 C643 1.386 . S
C642 C644 1.391 . S
C643 C642 1.386 . S
C643 C647 1.393 . S
C644 H633 0.950 . S
C644 C642 1.391 . S
C644 C645 1.400 . S
C645 C639 1.491 . S
C645 C644 1.400 . S
C645 C646 1.398 . S
C646 H634 0.950 . S
C646 C645 1.398 . S
C646 C647 1.391 . S
C647 H635 0.950 . S
C647 C643 1.393 . S
C647 C646 1.391 . S
C177 C4 1.611 . S
C183 C107 1.600 . S
C197 C16 1.526 . S
C203 C110 1.492 . S
C223 C146 1.353 . S
C217 C32 1.375 . S
C237 C43 1.524 . S
C243 C166 1.532 . S
C263 C120 2.086 . S
C257 C5 2.108 . S
C283 C97 1.283 . S
C277 C21 1.307 . S
C303 C150 1.432 . S
C297 C27 1.491 . S
C323 C130 1.261 . S
C317 C37 1.366 . S
C337 C10 1.381 . S
C343 C160 1.324 . S
C363 C126 1.775 1_556 S
C357 C26 1.792 . S
C377 C38 1.432 . S
C383 C92 1.405 . S
C397 C15 1.480 . S
C403 C140 1.416 . S
C423 C106 1.695 . S
C417 C48 1.701 . S
C437 C59 1.335 . S
C443 C112 1.301 . S
C457 C76 1.673 . S
C463 C147 1.657 . S
C477 C87 1.383 . S
C483 C167 1.361 . S
C497 C54 1.535 . S
C503 C117 1.503 . S
C523 C100 1.948 . S
C517 C60 1.941 . S
C543 C152 1.430 . S
C537 C71 1.550 . S
C563 C132 1.270 . S
C557 C82 1.298 . S
C577 C49 1.612 . S
C583 C157 1.533 . S
C603 C127 1.373 . S
C597 C70 1.398 . S
C623 C90 1.698 . S
C617 C81 1.761 . S
C637 C65 1.316 . S
C643 C137 1.286 . S
