# Generated by pormake.
# Topology pyr, (3,6)-cn, num edge types: 1
# Building blocks:
#     Node 0, Type 0, BuildingBlock: BETDAH_clean_linker_0, # of connection points: 3
#     Node 1, Type 0, BuildingBlock: BETDAH_clean_linker_0, # of connection points: 3
#     Node 2, Type 0, BuildingBlock: BETDAH_clean_linker_0, # of connection points: 3
#     Node 3, Type 0, BuildingBlock: BETDAH_clean_linker_0, # of connection points: 3
#     Node 4, Type 0, BuildingBlock: BETDAH_clean_linker_0, # of connection points: 3
#     Node 5, Type 0, BuildingBlock: BETDAH_clean_linker_0, # of connection points: 3
#     Node 6, Type 0, BuildingBlock: BETDAH_clean_linker_0, # of connection points: 3
#     Node 7, Type 0, BuildingBlock: BETDAH_clean_linker_0, # of connection points: 3
#     Node 8, Type 1, BuildingBlock: PAMTOO_clean_sbu_0, # of connection points: 6
#     Node 9, Type 1, BuildingBlock: PAMTOO_clean_sbu_0, # of connection points: 6
#     Node 10, Type 1, BuildingBlock: PAMTOO_clean_sbu_0, # of connection points: 6
#     Node 11, Type 1, BuildingBlock: PAMTOO_clean_sbu_0, # of connection points: 6
#     Edge 12, Type (0, 1), None
#     Edge 13, Type (0, 1), None
#     Edge 14, Type (0, 1), None
#     Edge 15, Type (0, 1), None
#     Edge 16, Type (0, 1), None
#     Edge 17, Type (0, 1), None
#     Edge 18, Type (0, 1), None
#     Edge 19, Type (0, 1), None
#     Edge 20, Type (0, 1), None
#     Edge 21, Type (0, 1), None
#     Edge 22, Type (0, 1), None
#     Edge 23, Type (0, 1), None
#     Edge 24, Type (0, 1), None
#     Edge 25, Type (0, 1), None
#     Edge 26, Type (0, 1), None
#     Edge 27, Type (0, 1), None
#     Edge 28, Type (0, 1), None
#     Edge 29, Type (0, 1), None
#     Edge 30, Type (0, 1), None
#     Edge 31, Type (0, 1), None
#     Edge 32, Type (0, 1), None
#     Edge 33, Type (0, 1), None
#     Edge 34, Type (0, 1), None
#     Edge 35, Type (0, 1), None
# Relax obj value: 0.410
# Max RMSD: 0.246
# Mean RMSD: 0.145
data_MOF--net-pyr--node1-PAMTOO_clean_sbu_0--node2-BETDAH_clean_linker_0--edge1-none
_symmetry_space_group_name_H-M    P1
_symmetry_Int_Tables_number       1
_symmetry_cell_setting            triclinic
loop_
_symmetry_equiv_pos_as_xyz
'x, y, z'
_cell_length_a     16.820658
_cell_length_b     18.365132
_cell_length_c     18.376128
_cell_angle_alpha  90.272599
_cell_angle_beta   90.555045
_cell_angle_gamma 113.22121
loop_
_atom_site_label
_atom_site_type_symbol
_atom_site_fract_x
_atom_site_fract_y
_atom_site_fract_z
_atom_type_partial_charge
H0 H 0.56469 0.23875 0.36791 0.0
H1 H 0.58233 0.39817 0.19597 0.0
H2 H 0.44315 0.40708 0.38526 0.0
C3 C 0.5496 0.28713 0.34833 0.0
C4 C 0.4957 0.31564 0.38693 0.0
C5 C 0.57247 0.31098 0.27743 0.0
C6 C 0.56455 0.37936 0.2515 0.0
C7 C 0.52061 0.41557 0.29208 0.0
C8 C 0.48323 0.38194 0.35838 0.0
N9 N 0.5036 0.47812 0.26032 0.0
C10 C 0.4203 0.47598 0.25827 0.0
H11 H 0.23622 0.83866 0.89961 0.0
H12 H 0.99215 0.85694 0.87299 0.0
H13 H 0.1121 0.79835 0.68977 0.0
C14 C 0.17896 0.82909 0.86678 0.0
C15 C 0.17934 0.81106 0.79278 0.0
C16 C 0.11598 0.85316 0.89353 0.0
C17 C 0.04169 0.83891 0.85188 0.0
C18 C 0.04068 0.82096 0.77771 0.0
C19 C 0.10873 0.80486 0.74819 0.0
N20 N 0.98909 0.84521 0.73101 0.0
C21 C 0.99314 0.92179 0.74015 0.0
H22 H 0.77204 0.38491 0.09873 0.0
H23 H 0.78084 0.58659 0.97477 0.0
H24 H 0.5685 0.35945 0.94373 0.0
C25 C 0.74445 0.40965 1.057 0.0
C26 C 0.66622 0.3601 1.02213 0.0
C27 C 0.78731 0.49089 1.04159 0.0
C28 C 0.75078 0.52373 0.98572 0.0
C29 C 0.67248 0.47679 0.94712 0.0
C30 C 0.63073 0.39514 0.96807 0.0
N31 N 0.62218 0.51299 0.90604 0.0
C32 C 0.63091 0.5523 0.83695 0.0
H33 H 0.80552 0.87738 0.61672 0.0
H34 H 1.0029 0.92185 0.45692 0.0
H35 H 0.79399 0.69008 0.46631 0.0
C36 C 0.8319 0.85666 0.57137 0.0
C37 C 0.78977 0.77677 0.54727 0.0
C38 C 0.9085 0.91034 0.53989 0.0
C39 C 0.94357 0.88158 0.48131 0.0
C40 C 0.90373 0.8024 0.45247 0.0
C41 C 0.82611 0.75016 0.48671 0.0
N42 N 0.94448 0.78362 0.38845 0.0
C43 C 0.94067 0.71713 0.3443 0.0
H44 H 0.74974 0.86007 0.89043 0.0
H45 H 0.61233 0.79689 1.09148 0.0
H46 H 0.49899 0.86541 0.90816 0.0
C47 C 0.69038 0.84599 0.9205 0.0
C48 C 0.62541 0.86662 0.8918 0.0
C49 C 0.68699 0.82208 0.99294 0.0
C50 C 0.61262 0.80889 1.03376 0.0
C51 C 0.54438 0.82416 1.00253 0.0
C52 C 0.54912 0.84829 0.93009 0.0
N53 N 0.48722 0.84108 1.04831 0.0
C54 C 0.49006 0.91765 1.04629 0.0
H55 H 0.06382 0.24271 0.42509 0.0
H56 H 0.08303 0.40134 0.60026 0.0
H57 H 0.93522 0.40528 0.41184 0.0
C58 C 0.04825 0.29044 0.44624 0.0
C59 C 0.99245 0.31777 0.40859 0.0
C60 C 0.07379 0.31514 0.51692 0.0
C61 C 0.0643 0.38257 0.54437 0.0
C62 C 1.01637 0.41653 0.50525 0.0
C63 C 0.97831 0.38267 0.43821 0.0
N64 N 0.99492 0.47544 0.53959 0.0
C65 C 0.91003 0.46919 0.53914 0.0
H66 H 0.30471 0.87672 0.17369 0.0
H67 H 0.2978 0.69252 0.32379 0.0
H68 H 0.50915 0.92315 0.33124 0.0
C69 C 0.33287 0.85695 0.21876 0.0
C70 C 0.41117 0.91088 0.24941 0.0
C71 C 0.2912 0.77782 0.24336 0.0
C72 C 0.32938 0.7522 0.30343 0.0
C73 C 0.40863 0.80447 0.33675 0.0
C74 C 0.44833 0.88294 0.30758 0.0
N75 N 0.45214 0.7854 0.39915 0.0
C76 C 0.44475 0.71899 0.44409 0.0
H77 H 0.26034 0.39277 0.67797 0.0
H78 H 0.29899 0.58399 0.82987 0.0
H79 H 0.09279 0.35469 0.86229 0.0
C80 C 0.24037 0.41531 0.72595 0.0
C81 C 0.16974 0.36326 0.7663 0.0
C82 C 0.28776 0.49502 0.74642 0.0
C83 C 0.2607 0.52447 0.81054 0.0
C84 C 0.18816 0.4754 0.85295 0.0
C85 C 0.14439 0.39456 0.82918 0.0
N86 N 0.1761 0.49528 0.92847 0.0
C87 C 0.14818 0.55079 0.96471 0.0
Dy88 Dy 0.13135 0.12905 0.64268 0.0
Dy89 Dy 0.94722 0.1351 0.68732 0.0
C90 C 0.1262 0.27689 0.74013 0.0
O91 O 0.08389 1.05783 0.74256 0.0
O92 O 0.93984 1.01952 0.72731 0.0
O93 O 0.26471 0.15728 0.67318 0.0
O94 O 0.20827 0.08634 0.57654 0.0
O95 O 0.91016 1.03113 0.60427 0.0
O96 O 0.03961 1.02079 0.58182 0.0
O97 O 1.00365 0.23507 0.61316 0.0
O98 O 0.11212 0.20855 0.55879 0.0
O99 O 0.82272 0.13596 0.65864 0.0
O100 O 0.86693 0.14791 0.77193 0.0
C101 C 1.00543 1.00334 0.746 0.0
O102 O 0.16669 0.25159 0.69128 0.0
O103 O 0.04716 0.22988 0.75984 0.0
C104 C 0.34623 0.18038 0.56621 0.0
C105 C 0.44607 0.27032 0.45093 0.0
C106 C 0.40048 0.30163 0.49704 0.0
C107 C 0.3518 0.25744 0.55427 0.0
C108 C 0.39005 0.14809 0.52114 0.0
C109 C 0.43827 0.19177 0.46378 0.0
C110 C 0.27903 0.1274 0.6125 0.0
C111 C 0.95501 0.99315 0.57408 0.0
C112 C 0.06716 0.25241 0.56742 0.0
C113 C 0.7287 1.06015 0.74837 0.0
C114 C 0.64907 0.92809 0.83579 0.0
C115 C 0.69582 0.92257 0.77489 0.0
C116 C 0.73285 0.98744 0.73004 0.0
C117 C 0.67691 0.06444 0.80579 0.0
C118 C 0.63687 0.99848 0.84924 0.0
C119 C 0.80098 0.13157 0.72727 0.0
H120 H 0.39999 0.35959 0.48937 0.0
H121 H 0.3149 0.2821 0.58685 0.0
H122 H 0.38232 0.08698 0.52731 0.0
H123 H 0.46445 0.16034 0.42807 0.0
H124 H 0.70631 0.86906 0.76366 0.0
H125 H 0.7731 0.98322 0.68609 0.0
H126 H 0.67501 0.12061 0.82173 0.0
H127 H 0.60274 1.00486 0.89692 0.0
Dy128 Dy 0.44504 0.13212 0.10119 0.0
Dy129 Dy 0.63021 0.12817 0.14634 0.0
C130 C 0.45662 0.99284 0.21482 0.0
O131 O 0.50152 0.23219 0.17788 0.0
O132 O 0.61045 0.2052 0.23267 0.0
O133 O 0.31926 0.13044 0.12708 0.0
O134 O 0.36373 0.14241 1.01482 0.0
O135 O 0.66327 0.2499 0.0984 0.0
O136 O 0.54218 0.22743 1.02968 0.0
O137 O 0.58145 1.05368 1.04701 0.0
O138 O 0.43767 1.01602 1.0614 0.0
O139 O 0.76381 0.16034 0.11682 0.0
O140 O 0.71 0.08611 0.21051 0.0
C141 C 0.56487 0.24864 0.22517 0.0
O142 O 0.41067 1.02989 0.18431 0.0
O143 O 0.54106 1.02064 0.20719 0.0
C144 C 0.22645 1.05214 1.03515 0.0
C145 C 0.14286 0.91694 0.94894 0.0
C146 C 0.19274 0.9137 1.00942 0.0
C147 C 0.23191 0.98012 1.05348 0.0
C148 C 0.17274 1.05468 0.97771 0.0
C149 C 0.13074 0.98732 0.93501 0.0
C150 C 0.29749 0.12482 1.05797 0.0
C151 C 0.62197 0.27449 1.04922 0.0
C152 C 0.50283 0.99938 1.04346 0.0
C153 C 0.84652 0.18268 0.22492 0.0
C154 C 0.94343 0.27254 0.34359 0.0
C155 C 0.9037 0.30589 0.29351 0.0
C156 C 0.85584 0.26142 0.23469 0.0
C157 C 0.88539 0.14897 0.27393 0.0
C158 C 0.9316 0.19254 0.33323 0.0
C159 C 0.77987 0.12982 0.17638 0.0
H160 H 0.20335 0.86047 1.02137 0.0
H161 H 0.27368 0.97723 0.09744 0.0
H162 H 0.1699 0.11029 0.96159 0.0
H163 H 0.09472 0.99258 0.88764 0.0
H164 H 0.90739 0.36561 0.29962 0.0
H165 H 0.82272 0.28742 0.19898 0.0
H166 H 0.87474 0.08692 0.26929 0.0
H167 H 0.95336 0.16058 0.37238 0.0
Dy168 Dy 0.52953 0.56 0.59644 0.0
Dy169 Dy 0.54249 0.70678 0.68168 0.0
C170 C 0.61061 0.58784 0.76784 0.0
O171 O 0.39532 0.51196 0.64789 0.0
O172 O 0.41781 0.61542 0.72532 0.0
O173 O 0.52213 0.43974 0.59654 0.0
O174 O 0.55844 0.5091 0.49871 0.0
O175 O 0.50248 0.72686 0.56653 0.0
O176 O 0.45463 0.60506 0.51414 0.0
O177 O 0.68065 0.75118 0.64375 0.0
O178 O 0.65509 0.65633 0.55659 0.0
O179 O 0.54586 0.82484 0.66836 0.0
O180 O 0.51848 0.76791 0.7732 0.0
C181 C 0.36972 0.54326 0.70367 0.0
O182 O 0.58177 0.5425 0.70917 0.0
O183 O 0.60939 0.65958 0.76804 0.0
C184 C 0.64866 0.44586 0.53666 0.0
C185 C 0.82215 0.46266 0.53816 0.0
C186 C 0.78138 0.46517 0.60347 0.0
C187 C 0.69518 0.45665 0.60282 0.0
C188 C 0.69022 0.44327 0.4714 0.0
C189 C 0.77623 0.45082 0.4722 0.0
C190 C 0.56283 0.45012 0.53498 0.0
C191 C 0.46402 0.68012 0.51123 0.0
C192 C 0.70588 0.7249 0.58505 0.0
C193 C 0.42847 0.82844 0.73257 0.0
C194 C 0.26308 0.82087 0.76167 0.0
C195 C 0.27238 0.76095 0.7199 0.0
C196 C 0.35523 0.76512 0.70489 0.0
C197 C 0.4191 0.8918 0.76775 0.0
C198 C 0.33681 0.88854 0.78145 0.0
C199 C 0.51245 0.82308 0.73207 0.0
H200 H 0.81623 0.47418 0.65489 0.0
H201 H 0.66598 0.46063 0.65407 0.0
H202 H 0.65739 0.4382 0.41963 0.0
H203 H 0.80715 0.44857 0.42127 0.0
H204 H 0.21636 0.70916 0.70299 0.0
H205 H 0.36204 0.71692 0.67524 0.0
H206 H 0.47479 0.94176 0.78781 0.0
H207 H 0.33076 0.93682 0.8118 0.0
Dy208 Dy 0.04186 0.70406 0.10849 0.0
Dy209 Dy 0.0313 0.55968 0.19544 0.0
C210 C 0.96226 0.67812 0.27809 0.0
O211 O 0.18104 0.74782 0.14553 0.0
O212 O 0.15442 0.65956 0.23723 0.0
O213 O 0.04965 0.8237 0.12189 0.0
O214 O 1.01506 0.76373 1.01743 0.0
O215 O 0.08585 0.54285 1.08501 0.0
O216 O 0.10903 0.65628 1.02294 0.0
O217 O 0.89769 0.50864 0.13997 0.0
O218 O 0.91668 0.61191 1.06414 0.0
O219 O 0.03216 0.44216 0.19423 0.0
O220 O 0.06199 0.51072 0.29374 0.0
C221 C 0.2063 0.7251 0.20625 0.0
O222 O 1.00043 0.72427 0.22321 0.0
O223 O 0.95432 0.60342 0.27566 0.0
C224 C 0.93113 0.82945 1.05896 0.0
C225 C 0.76859 0.82864 1.02755 0.0
C226 C 0.77468 0.76466 1.06451 0.0
C227 C 0.85613 0.76548 1.08084 0.0
C228 C 0.92496 0.8968 1.02969 0.0
C229 C 0.84393 0.89685 1.01486 0.0
C230 C 1.01345 0.82106 1.05861 0.0
C231 C 0.11272 0.58557 1.02566 0.0
C232 C 0.87036 0.53943 1.08457 0.0
C233 C 0.16045 0.45683 0.25646 0.0
C234 C 0.33307 0.47125 0.25867 0.0
C235 C 0.30671 0.51491 0.20895 0.0
C236 C 0.22108 0.50817 0.20824 0.0
C237 C 0.18754 0.41332 0.3058 0.0
C238 C 0.27335 0.42047 0.30715 0.0
C239 C 0.07161 0.45392 0.25722 0.0
H240 H 0.71736 0.7123 1.07602 0.0
H241 H 0.86049 0.71422 0.10633 0.0
H242 H 0.98219 0.94743 1.01474 0.0
H243 H 0.84021 0.94814 0.98858 0.0
H244 H 0.35212 0.55415 0.17081 0.0
H245 H 0.20272 0.54381 0.17047 0.0
H246 H 0.14301 0.37418 0.34328 0.0
H247 H 0.29278 0.38602 0.34578 0.0
loop_
_geom_bond_atom_site_label_1
_geom_bond_atom_site_label_2
_geom_bond_distance
_geom_bond_site_symmetry_2
_ccdc_geom_bond_type
H0 C3 0.929 . S
H1 C6 0.929 . S
H2 C8 0.930 . S
C3 H0 0.929 . S
C3 C4 1.398 . S
C3 C5 1.396 . S
C4 C3 1.398 . S
C4 C8 1.407 . S
C5 C3 1.396 . S
C5 C6 1.394 . S
C6 H1 0.929 . S
C6 C5 1.394 . S
C6 C7 1.382 . S
C7 C6 1.382 . S
C7 C8 1.392 . S
C7 N9 1.420 . S
C8 H2 0.930 . S
C8 C4 1.407 . S
C8 C7 1.392 . S
N9 C7 1.420 . S
N9 C10 1.244 . S
C10 N9 1.244 . S
H11 C14 0.929 . S
H12 C17 0.929 1_655 S
H13 C19 0.930 . S
C14 H11 0.929 . S
C14 C15 1.398 . S
C14 C16 1.396 . S
C15 C14 1.398 . S
C15 C19 1.407 . S
C16 C14 1.396 . S
C16 C17 1.394 . S
C17 H12 0.929 1_455 S
C17 C16 1.394 . S
C17 C18 1.382 1_455 S
C18 C17 1.382 1_655 S
C18 C19 1.392 1_655 S
C18 N20 1.420 . S
C19 H13 0.930 . S
C19 C15 1.407 . S
C19 C18 1.392 1_455 S
N20 C18 1.420 . S
N20 C21 1.244 . S
C21 N20 1.244 . S
H22 C25 0.929 1_554 S
H23 C28 0.929 . S
H24 C30 0.930 . S
C25 H22 0.929 1_556 S
C25 C26 1.398 . S
C25 C27 1.396 . S
C26 C25 1.398 . S
C26 C30 1.407 . S
C27 C25 1.396 . S
C27 C28 1.394 . S
C28 H23 0.929 . S
C28 C27 1.394 . S
C28 C29 1.382 . S
C29 C28 1.382 . S
C29 C30 1.392 . S
C29 N31 1.420 . S
C30 H24 0.930 . S
C30 C26 1.407 . S
C30 C29 1.392 . S
N31 C29 1.420 . S
N31 C32 1.244 . S
C32 N31 1.244 . S
H33 C36 0.929 . S
H34 C39 0.929 . S
H35 C41 0.930 . S
C36 H33 0.929 . S
C36 C37 1.398 . S
C36 C38 1.396 . S
C37 C36 1.398 . S
C37 C41 1.407 . S
C38 C36 1.396 . S
C38 C39 1.394 . S
C39 H34 0.929 . S
C39 C38 1.394 . S
C39 C40 1.382 . S
C40 C39 1.382 . S
C40 C41 1.392 . S
C40 N42 1.420 . S
C41 H35 0.930 . S
C41 C37 1.407 . S
C41 C40 1.392 . S
N42 C40 1.420 . S
N42 C43 1.244 . S
C43 N42 1.244 . S
H44 C47 0.929 . S
H45 C50 0.929 . S
H46 C52 0.930 . S
C47 H44 0.929 . S
C47 C48 1.398 . S
C47 C49 1.396 . S
C48 C47 1.398 . S
C48 C52 1.407 . S
C49 C47 1.396 . S
C49 C50 1.394 . S
C50 H45 0.929 . S
C50 C49 1.394 . S
C50 C51 1.382 . S
C51 C50 1.382 . S
C51 C52 1.392 . S
C51 N53 1.420 . S
C52 H46 0.930 . S
C52 C48 1.407 . S
C52 C51 1.392 . S
N53 C51 1.420 . S
N53 C54 1.244 . S
C54 N53 1.244 . S
H55 C58 0.929 . S
H56 C61 0.929 . S
H57 C63 0.930 . S
C58 H55 0.929 . S
C58 C59 1.398 1_455 S
C58 C60 1.396 . S
C59 C58 1.398 1_655 S
C59 C63 1.407 . S
C60 C58 1.396 . S
C60 C61 1.394 . S
C61 H56 0.929 . S
C61 C60 1.394 . S
C61 C62 1.382 1_455 S
C62 C61 1.382 1_655 S
C62 C63 1.392 . S
C62 N64 1.420 . S
C63 H57 0.930 . S
C63 C59 1.407 . S
C63 C62 1.392 . S
N64 C62 1.420 . S
N64 C65 1.244 . S
C65 N64 1.244 . S
H66 C69 0.929 . S
H67 C72 0.929 . S
H68 C74 0.930 . S
C69 H66 0.929 . S
C69 C70 1.398 . S
C69 C71 1.396 . S
C70 C69 1.398 . S
C70 C74 1.407 . S
C71 C69 1.396 . S
C71 C72 1.394 . S
C72 H67 0.929 . S
C72 C71 1.394 . S
C72 C73 1.382 . S
C73 C72 1.382 . S
C73 C74 1.392 . S
C73 N75 1.420 . S
C74 H68 0.930 . S
C74 C70 1.407 . S
C74 C73 1.392 . S
N75 C73 1.420 . S
N75 C76 1.244 . S
C76 N75 1.244 . S
H77 C80 0.929 . S
H78 C83 0.929 . S
H79 C85 0.930 . S
C80 H77 0.929 . S
C80 C81 1.398 . S
C80 C82 1.396 . S
C81 C80 1.398 . S
C81 C85 1.407 . S
C82 C80 1.396 . S
C82 C83 1.394 . S
C83 H78 0.929 . S
C83 C82 1.394 . S
C83 C84 1.382 . S
C84 C83 1.382 . S
C84 C85 1.392 . S
C84 N86 1.420 . S
C85 H79 0.930 . S
C85 C81 1.407 . S
C85 C84 1.392 . S
N86 C84 1.420 . S
N86 C87 1.244 . S
C87 N86 1.244 . S
Dy88 O91 2.307 1_545 S
Dy88 O93 2.395 . S
Dy88 O94 2.379 . S
Dy88 O96 2.339 1_545 S
Dy88 O98 2.298 . S
Dy88 O102 2.275 . S
Dy88 C110 2.738 . S
Dy89 O92 2.298 1_545 S
Dy89 O95 2.275 1_545 S
Dy89 O97 2.307 . S
Dy89 O99 2.395 1_545 S
Dy89 O100 2.379 1_545 S
Dy89 O103 2.339 . S
Dy89 C119 2.738 1_545 S
C90 O102 1.254 . S
C90 O103 1.257 1_455 S
O91 Dy88 2.307 1_565 S
O91 C101 1.266 . S
O92 Dy89 2.298 1_565 S
O92 C101 1.236 1_655 S
O93 Dy88 2.395 . S
O93 C110 1.255 . S
O94 Dy88 2.379 . S
O94 C110 1.249 . S
O95 Dy89 2.275 1_565 S
O95 C111 1.254 . S
O96 Dy88 2.339 1_565 S
O96 C111 1.257 1_455 S
O97 Dy89 2.307 . S
O97 C112 1.266 . S
O98 Dy88 2.298 . S
O98 C112 1.236 1_455 S
O99 Dy89 2.395 1_565 S
O99 C119 1.255 . S
O100 Dy89 2.379 1_565 S
O100 C119 1.249 . S
C101 O91 1.266 . S
C101 O92 1.236 1_455 S
O102 Dy88 2.275 . S
O102 C90 1.254 . S
O103 Dy89 2.339 . S
O103 C90 1.257 1_655 S
C104 C107 1.344 . S
C104 C108 1.328 . S
C104 C110 1.516 . S
C105 C106 1.304 . S
C105 C109 1.323 . S
C106 C105 1.304 . S
C106 C107 1.371 . S
C106 H120 0.930 . S
C107 C104 1.344 . S
C107 C106 1.371 . S
C107 H121 0.931 . S
C108 C104 1.328 . S
C108 C109 1.433 . S
C108 H122 0.931 . S
C109 C105 1.323 . S
C109 C108 1.433 . S
C109 H123 0.933 . S
C110 Dy88 2.738 . S
C110 O93 1.255 . S
C110 O94 1.249 . S
C110 C104 1.516 . S
C111 O95 1.254 . S
C111 O96 1.257 1_655 S
C112 O97 1.266 . S
C112 O98 1.236 1_655 S
C113 C116 1.344 . S
C113 C117 1.328 . S
C113 C119 1.516 . S
C114 C115 1.304 . S
C114 C118 1.323 . S
C115 C114 1.304 . S
C115 C116 1.371 . S
C115 H124 0.930 . S
C116 C113 1.344 . S
C116 C115 1.371 . S
C116 H125 0.931 . S
C117 C113 1.328 . S
C117 C118 1.433 . S
C117 H126 0.931 . S
C118 C114 1.323 . S
C118 C117 1.433 . S
C118 H127 0.933 . S
C119 Dy89 2.738 1_565 S
C119 O99 1.255 . S
C119 O100 1.249 . S
C119 C113 1.516 . S
H120 C106 0.930 . S
H121 C107 0.931 . S
H122 C108 0.931 . S
H123 C109 0.933 . S
H124 C115 0.930 . S
H125 C116 0.931 . S
H126 C117 0.931 . S
H127 C118 0.933 . S
Dy128 O131 2.307 . S
Dy128 O133 2.395 1_544 S
Dy128 O134 2.379 1_544 S
Dy128 O136 2.339 1_554 S
Dy128 O138 2.298 1_544 S
Dy128 O142 2.275 1_545 S
Dy128 C150 2.738 1_544 S
Dy129 O132 2.298 . S
Dy129 O135 2.275 . S
Dy129 O137 2.307 1_545 S
Dy129 O139 2.395 . S
Dy129 O140 2.379 . S
Dy129 O143 2.339 1_545 S
Dy129 C159 2.738 . S
C130 O142 1.254 . S
C130 O143 1.257 . S
O131 Dy128 2.307 . S
O131 C141 1.266 . S
O132 Dy129 2.298 . S
O132 C141 1.236 . S
O133 Dy128 2.395 1_566 S
O133 C150 1.255 . S
O134 Dy128 2.379 1_566 S
O134 C150 1.249 . S
O135 Dy129 2.275 . S
O135 C151 1.254 1_554 S
O136 Dy128 2.339 1_556 S
O136 C151 1.257 . S
O137 Dy129 2.307 1_565 S
O137 C152 1.266 1_554 S
O138 Dy128 2.298 1_566 S
O138 C152 1.236 . S
O139 Dy129 2.395 . S
O139 C159 1.255 . S
O140 Dy129 2.379 . S
O140 C159 1.249 . S
C141 O131 1.266 . S
C141 O132 1.236 . S
O142 Dy128 2.275 1_565 S
O142 C130 1.254 . S
O143 Dy129 2.339 1_565 S
O143 C130 1.257 . S
C144 C147 1.344 . S
C144 C148 1.328 . S
C144 C150 1.516 . S
C145 C146 1.304 . S
C145 C149 1.323 . S
C146 C145 1.304 . S
C146 C147 1.371 . S
C146 H160 0.930 . S
C147 C144 1.344 . S
C147 C146 1.371 . S
C147 H161 0.931 . S
C148 C144 1.328 . S
C148 C149 1.433 . S
C148 H162 0.931 . S
C149 C145 1.323 . S
C149 C148 1.433 . S
C149 H163 0.933 . S
C150 Dy128 2.738 1_566 S
C150 O133 1.255 . S
C150 O134 1.249 . S
C150 C144 1.516 . S
C151 O135 1.254 1_556 S
C151 O136 1.257 . S
C152 O137 1.266 1_556 S
C152 O138 1.236 . S
C153 C156 1.344 . S
C153 C157 1.328 . S
C153 C159 1.516 . S
C154 C155 1.304 . S
C154 C158 1.323 . S
C155 C154 1.304 . S
C155 C156 1.371 . S
C155 H164 0.930 . S
C156 C153 1.344 . S
C156 C155 1.371 . S
C156 H165 0.931 . S
C157 C153 1.328 . S
C157 C158 1.433 . S
C157 H166 0.931 . S
C158 C154 1.323 . S
C158 C157 1.433 . S
C158 H167 0.933 . S
C159 Dy129 2.738 . S
C159 O139 1.255 . S
C159 O140 1.249 . S
C159 C153 1.516 . S
H160 C146 0.930 . S
H161 C147 0.931 . S
H162 C148 0.931 . S
H163 C149 0.933 . S
H164 C155 0.930 . S
H165 C156 0.931 . S
H166 C157 0.931 . S
H167 C158 0.933 . S
Dy168 O171 2.307 . S
Dy168 O173 2.395 . S
Dy168 O174 2.379 . S
Dy168 O176 2.339 . S
Dy168 O178 2.298 . S
Dy168 O182 2.275 . S
Dy168 C190 2.738 . S
Dy169 O172 2.298 . S
Dy169 O175 2.275 . S
Dy169 O177 2.307 . S
Dy169 O179 2.395 . S
Dy169 O180 2.379 . S
Dy169 O183 2.339 . S
Dy169 C199 2.738 . S
C170 O182 1.254 . S
C170 O183 1.257 . S
O171 Dy168 2.307 . S
O171 C181 1.266 . S
O172 Dy169 2.298 . S
O172 C181 1.236 . S
O173 Dy168 2.395 . S
O173 C190 1.255 . S
O174 Dy168 2.379 . S
O174 C190 1.249 . S
O175 Dy169 2.275 . S
O175 C191 1.254 . S
O176 Dy168 2.339 . S
O176 C191 1.257 . S
O177 Dy169 2.307 . S
O177 C192 1.266 . S
O178 Dy168 2.298 . S
O178 C192 1.236 . S
O179 Dy169 2.395 . S
O179 C199 1.255 . S
O180 Dy169 2.379 . S
O180 C199 1.249 . S
C181 O171 1.266 . S
C181 O172 1.236 . S
O182 Dy168 2.275 . S
O182 C170 1.254 . S
O183 Dy169 2.339 . S
O183 C170 1.257 . S
C184 C187 1.344 . S
C184 C188 1.328 . S
C184 C190 1.516 . S
C185 C186 1.304 . S
C185 C189 1.323 . S
C186 C185 1.304 . S
C186 C187 1.371 . S
C186 H200 0.930 . S
C187 C184 1.344 . S
C187 C186 1.371 . S
C187 H201 0.931 . S
C188 C184 1.328 . S
C188 C189 1.433 . S
C188 H202 0.931 . S
C189 C185 1.323 . S
C189 C188 1.433 . S
C189 H203 0.933 . S
C190 Dy168 2.738 . S
C190 O173 1.255 . S
C190 O174 1.249 . S
C190 C184 1.516 . S
C191 O175 1.254 . S
C191 O176 1.257 . S
C192 O177 1.266 . S
C192 O178 1.236 . S
C193 C196 1.344 . S
C193 C197 1.328 . S
C193 C199 1.516 . S
C194 C195 1.304 . S
C194 C198 1.323 . S
C195 C194 1.304 . S
C195 C196 1.371 . S
C195 H204 0.930 . S
C196 C193 1.344 . S
C196 C195 1.371 . S
C196 H205 0.931 . S
C197 C193 1.328 . S
C197 C198 1.433 . S
C197 H206 0.931 . S
C198 C194 1.323 . S
C198 C197 1.433 . S
C198 H207 0.933 . S
C199 Dy169 2.738 . S
C199 O179 1.255 . S
C199 O180 1.249 . S
C199 C193 1.516 . S
H200 C186 0.930 . S
H201 C187 0.931 . S
H202 C188 0.931 . S
H203 C189 0.933 . S
H204 C195 0.930 . S
H205 C196 0.931 . S
H206 C197 0.931 . S
H207 C198 0.933 . S
Dy208 O211 2.307 1_556 S
Dy208 O213 2.395 1_455 S
Dy208 O214 2.379 1_455 S
Dy208 O216 2.339 . S
Dy208 O218 2.298 1_455 S
Dy208 O222 2.275 1_556 S
Dy208 C230 2.738 1_455 S
Dy209 O212 2.298 . S
Dy209 O215 2.275 1_554 S
Dy209 O217 2.307 1_455 S
Dy209 O219 2.395 . S
Dy209 O220 2.379 . S
Dy209 O223 2.339 1_455 S
Dy209 C239 2.738 . S
C210 O222 1.254 1_655 S
C210 O223 1.257 . S
O211 Dy208 2.307 1_554 S
O211 C221 1.266 . S
O212 Dy209 2.298 . S
O212 C221 1.236 . S
O213 Dy208 2.395 1_655 S
O213 C230 1.255 . S
O214 Dy208 2.379 1_655 S
O214 C230 1.249 . S
O215 Dy209 2.275 1_556 S
O215 C231 1.254 . S
O216 Dy208 2.339 . S
O216 C231 1.257 . S
O217 Dy209 2.307 1_655 S
O217 C232 1.266 1_554 S
O218 Dy208 2.298 1_655 S
O218 C232 1.236 . S
O219 Dy209 2.395 . S
O219 C239 1.255 . S
O220 Dy209 2.379 . S
O220 C239 1.249 . S
C221 O211 1.266 . S
C221 O212 1.236 . S
O222 Dy208 2.275 1_554 S
O222 C210 1.254 1_455 S
O223 Dy209 2.339 1_655 S
O223 C210 1.257 . S
C224 C227 1.344 . S
C224 C228 1.328 . S
C224 C230 1.516 . S
C225 C226 1.304 . S
C225 C229 1.323 . S
C226 C225 1.304 . S
C226 C227 1.371 . S
C226 H240 0.930 . S
C227 C224 1.344 . S
C227 C226 1.371 . S
C227 H241 0.931 . S
C228 C224 1.328 . S
C228 C229 1.433 . S
C228 H242 0.931 . S
C229 C225 1.323 . S
C229 C228 1.433 . S
C229 H243 0.933 . S
C230 Dy208 2.738 1_655 S
C230 O213 1.255 . S
C230 O214 1.249 . S
C230 C224 1.516 . S
C231 O215 1.254 . S
C231 O216 1.257 . S
C232 O217 1.266 1_556 S
C232 O218 1.236 . S
C233 C236 1.344 . S
C233 C237 1.328 . S
C233 C239 1.516 . S
C234 C235 1.304 . S
C234 C238 1.323 . S
C235 C234 1.304 . S
C235 C236 1.371 . S
C235 H244 0.930 . S
C236 C233 1.344 . S
C236 C235 1.371 . S
C236 H245 0.931 . S
C237 C233 1.328 . S
C237 C238 1.433 . S
C237 H246 0.931 . S
C238 C234 1.323 . S
C238 C237 1.433 . S
C238 H247 0.933 . S
C239 Dy209 2.738 . S
C239 O219 1.255 . S
C239 O220 1.249 . S
C239 C233 1.516 . S
H240 C226 0.930 . S
H241 C227 0.931 . S
H242 C228 0.931 . S
H243 C229 0.933 . S
H244 C235 0.930 . S
H245 C236 0.931 . S
H246 C237 0.931 . S
H247 C238 0.933 . S
C4 C105 1.315 . S
C16 C145 1.043 . S
C170 C32 3.411 . S
C43 C210 3.548 . S
C141 C5 2.685 . S
C101 C21 2.711 1_455 S
C232 C27 2.507 . S
C192 C37 2.650 . S
C10 C234 2.156 . S
C151 C26 3.614 . S
C38 C111 2.880 . S
C15 C194 3.150 . S
C114 C48 0.967 . S
C59 C154 1.200 . S
C76 C191 3.545 . S
C87 C231 3.490 . S
C54 C152 2.775 . S
C112 C60 2.654 1_655 S
C221 C71 2.689 . S
C181 C82 2.493 . S
C49 C225 3.192 . S
C130 C70 2.729 . S
C90 C81 3.609 . S
C65 C185 2.210 . S
