# Generated by pormake.
# Topology pth, (4,4)-cn, num edge types: 1
# Building blocks:
#     Node 0, Type 0, BuildingBlock: CEKHIL_clean_sbu_0, # of connection points: 4
#     Node 1, Type 0, BuildingBlock: CEKHIL_clean_sbu_0, # of connection points: 4
#     Node 2, Type 0, BuildingBlock: CEKHIL_clean_sbu_0, # of connection points: 4
#     Node 3, Type 1, BuildingBlock: MUDLON_clean_linker_0, # of connection points: 4
#     Node 4, Type 1, BuildingBlock: MUDLON_clean_linker_0, # of connection points: 4
#     Node 5, Type 1, BuildingBlock: MUDLON_clean_linker_0, # of connection points: 4
#     Edge 6, Type (0, 1), BuildingBlock: FUNLAD_clean_linker_0, # of connection points: 2
#     Edge 7, Type (0, 1), BuildingBlock: FUNLAD_clean_linker_0, # of connection points: 2
#     Edge 8, Type (0, 1), BuildingBlock: FUNLAD_clean_linker_0, # of connection points: 2
#     Edge 9, Type (0, 1), BuildingBlock: FUNLAD_clean_linker_0, # of connection points: 2
#     Edge 10, Type (0, 1), BuildingBlock: FUNLAD_clean_linker_0, # of connection points: 2
#     Edge 11, Type (0, 1), BuildingBlock: FUNLAD_clean_linker_0, # of connection points: 2
#     Edge 12, Type (0, 1), BuildingBlock: FUNLAD_clean_linker_0, # of connection points: 2
#     Edge 13, Type (0, 1), BuildingBlock: FUNLAD_clean_linker_0, # of connection points: 2
#     Edge 14, Type (0, 1), BuildingBlock: FUNLAD_clean_linker_0, # of connection points: 2
#     Edge 15, Type (0, 1), BuildingBlock: FUNLAD_clean_linker_0, # of connection points: 2
#     Edge 16, Type (0, 1), BuildingBlock: FUNLAD_clean_linker_0, # of connection points: 2
#     Edge 17, Type (0, 1), BuildingBlock: FUNLAD_clean_linker_0, # of connection points: 2
# Relax obj value: 0.034
# Max RMSD: 0.091
# Mean RMSD: 0.088
data_MOF--net-pth--node1-CEKHIL_clean_sbu_0--node2-MUDLON_clean_linker_0--edge1-FUNLAD_clean_linker_0
_symmetry_space_group_name_H-M    P1
_symmetry_Int_Tables_number       1
_symmetry_cell_setting            triclinic
loop_
_symmetry_equiv_pos_as_xyz
'x, y, z'
_cell_length_a     37.312684
_cell_length_b     37.436763
_cell_length_c     77.508985
_cell_angle_alpha  90.881929
_cell_angle_beta   89.983289
_cell_angle_gamma 120.29957
loop_
_atom_site_label
_atom_site_type_symbol
_atom_site_fract_x
_atom_site_fract_y
_atom_site_fract_z
_atom_type_partial_charge
Co0 Co 0.01354 0.02305 0.05672 0.0
O1 O 0.98899 0.98554 0.07545 0.0
O2 O 0.03739 0.98757 0.0583 0.0
C3 C 0.02438 0.07992 0.07171 0.0
O4 O 0.04767 0.059 0.03672 0.0
Co5 Co 0.97053 0.06876 0.04215 0.0
O6 O 0.02084 0.09768 0.02774 0.0
C7 C 0.93561 0.98015 0.03431 0.0
C8 C 0.01332 0.97133 0.07153 0.0
C9 C 0.04834 0.08707 0.02709 0.0
O10 O 0.96863 0.98212 0.04047 0.0
O11 O 0.92867 0.01029 0.03537 0.0
O12 O 0.05062 0.06687 0.07284 0.0
O13 O 0.99117 0.05648 0.0628 0.0
Co14 Co 0.01162 0.0197 0.37504 0.0
O15 O 0.99259 0.03679 0.35558 0.0
O16 O 0.04262 0.07967 0.37352 0.0
C17 C 0.01527 0.96858 0.36078 0.0
O18 O 0.04076 0.01258 0.39591 0.0
Co19 Co 0.95649 0.93122 0.38914 0.0
O20 O 0.00616 0.94563 0.40347 0.0
C21 C 0.93317 0.99438 0.39559 0.0
C22 C 0.02027 0.07446 0.35979 0.0
C23 C 0.03694 0.98237 0.40505 0.0
O24 O 0.96894 0.02245 0.39021 0.0
O25 O 0.9206 0.95565 0.39457 0.0
O26 O 0.04552 0.00663 0.35986 0.0
O27 O 0.98288 0.96344 0.36893 0.0
Co28 Co 0.01176 0.01278 0.70686 0.0
O29 O 0.05716 0.03705 0.691 0.0
O30 O 0.0438 0.98508 0.70816 0.0
C31 C 0.96263 0.00719 0.68827 0.0
O32 O 0.96654 0.97886 0.72436 0.0
Co33 Co 0.96636 0.06031 0.71706 0.0
O34 O 0.92466 0.00579 0.72622 0.0
C35 C 0.04928 0.0871 0.73168 0.0
C36 C 0.06697 0.01034 0.69624 0.0
C37 C 0.93291 0.97739 0.72947 0.0
O38 O 0.04775 0.05439 0.72526 0.0
O39 O 0.02139 0.09662 0.72873 0.0
O40 O 0.97365 0.97936 0.68828 0.0
O41 O 0.98437 0.03912 0.69815 0.0
H42 H 0.9291 0.65895 0.22785 0.0
N43 N 0.97848 0.63771 0.21182 0.0
H44 H 0.94501 0.70378 0.25344 0.0
H45 H 0.05104 0.67335 0.23039 0.0
H46 H 0.06753 0.71872 0.25595 0.0
H47 H 0.0558 0.69748 0.2014 0.0
H48 H 0.0715 0.73967 0.17571 0.0
H49 H 0.92695 0.62771 0.18615 0.0
H50 H 0.94239 0.66986 0.16033 0.0
H51 H 0.92233 0.568 0.22607 0.0
H52 H 0.04127 0.6246 0.20111 0.0
H53 H 0.92418 0.50427 0.22928 0.0
H54 H 0.04236 0.56018 0.20322 0.0
H55 H 0.92548 0.31785 0.24267 0.0
H56 H 0.94025 0.28999 0.26837 0.0
H57 H 0.07172 0.37017 0.26021 0.0
H58 H 0.05665 0.3971 0.23449 0.0
H59 H 0.05362 0.3967 0.20462 0.0
H60 H 0.0644 0.36512 0.17868 0.0
H61 H 0.93237 0.27944 0.17516 0.0
H62 H 0.92207 0.31069 0.20132 0.0
H63 H 0.91575 0.38257 0.21583 0.0
H64 H 0.9165 0.4478 0.21325 0.0
H65 H 0.04946 0.51469 0.22166 0.0
N66 N 0.97963 0.37158 0.22069 0.0
H67 H 0.04836 0.44906 0.22318 0.0
C68 C 0.98884 0.6631 0.22721 0.0
C69 C 0.95924 0.67173 0.23402 0.0
C70 C 0.96834 0.69712 0.24865 0.0
C71 C 0.00751 0.71469 0.2567 0.0
C72 C 0.03722 0.70585 0.24992 0.0
C73 C 0.02786 0.67998 0.23535 0.0
C74 C 0.98994 0.65959 0.19577 0.0
C75 C 0.03093 0.69086 0.19244 0.0
C76 C 0.03988 0.71507 0.17775 0.0
C77 C 0.00814 0.7083 0.16605 0.0
C78 C 0.9676 0.67563 0.169 0.0
C79 C 0.95866 0.65163 0.18374 0.0
C80 C 0.98112 0.60076 0.21312 0.0
C81 C 0.94861 0.56638 0.22108 0.0
C82 C 0.94965 0.52988 0.22277 0.0
C83 C 0.98315 0.52663 0.21628 0.0
C84 C 0.01619 0.5615 0.2085 0.0
C85 C 0.0154 0.59836 0.20708 0.0
C86 C 0.98975 0.35944 0.23666 0.0
C87 C 0.95742 0.32976 0.24663 0.0
C88 C 0.96596 0.31407 0.26133 0.0
C89 C 0.00721 0.32778 0.26632 0.0
C90 C 0.03962 0.3586 0.2566 0.0
C91 C 0.03101 0.37428 0.2419 0.0
C92 C 0.98699 0.35547 0.20499 0.0
C93 C 0.02708 0.37102 0.19834 0.0
C94 C 0.03319 0.35303 0.18349 0.0
C95 C 0.99923 0.31981 0.17492 0.0
C96 C 0.95909 0.30523 0.18139 0.0
C97 C 0.95314 0.32283 0.19633 0.0
C98 C 0.98172 0.41092 0.21994 0.0
C99 C 0.94496 0.41141 0.21715 0.0
C100 C 0.94552 0.44881 0.21581 0.0
C101 C 0.98302 0.48681 0.21745 0.0
C102 C 0.02004 0.48617 0.22018 0.0
C103 C 0.01944 0.44856 0.22128 0.0
H104 H 0.69937 0.06359 0.55659 0.0
N105 N 0.63098 0.99332 0.54436 0.0
H106 H 0.741 0.06896 0.58183 0.0
H107 H 0.61235 0.93634 0.56817 0.0
H108 H 0.65353 0.94155 0.59373 0.0
H109 H 0.65533 0.94461 0.52997 0.0
H110 H 0.7065 0.96181 0.50705 0.0
H111 H 0.6671 0.06475 0.52558 0.0
H112 H 0.71742 0.08155 0.50222 0.0
H113 H 0.63425 0.06398 0.55702 0.0
H114 H 0.55575 0.94766 0.53068 0.0
H115 H 0.57732 0.07807 0.55768 0.0
H116 H 0.49895 0.96242 0.53043 0.0
H117 H 0.40903 0.11153 0.57207 0.0
H118 H 0.37021 0.10284 0.59856 0.0
H119 H 0.30152 0.97049 0.58927 0.0
H120 H 0.33859 0.97998 0.56237 0.0
H121 H 0.34498 0.9817 0.53177 0.0
H122 H 0.29931 0.97405 0.50767 0.0
H123 H 0.34911 0.10632 0.50841 0.0
H124 H 0.39506 0.11357 0.53241 0.0
H125 H 0.47747 0.10833 0.54357 0.0
H126 H 0.53538 0.09542 0.54111 0.0
H127 H 0.45063 0.96516 0.54918 0.0
N128 N 0.39818 0.05383 0.54902 0.0
H129 H 0.39321 0.9782 0.5508 0.0
C130 C 0.65269 0.99939 0.56051 0.0
C131 C 0.68868 0.03707 0.56481 0.0
C132 C 0.71243 0.04012 0.5793 0.0
C133 C 0.70075 0.00557 0.58973 0.0
C134 C 0.66369 0.96854 0.58581 0.0
C135 C 0.63995 0.96557 0.57134 0.0
C136 C 0.65702 0.00303 0.52938 0.0
C137 C 0.66832 0.97432 0.5238 0.0
C138 C 0.69763 0.98425 0.51083 0.0
C139 C 0.7158 0.02299 0.50299 0.0
C140 C 0.70356 0.0514 0.50807 0.0
C141 C 0.67473 0.04174 0.52135 0.0
C142 C 0.59901 0.00423 0.54404 0.0
C143 C 0.60485 0.04151 0.55127 0.0
C144 C 0.57221 0.04976 0.55147 0.0
C145 C 0.53323 0.02126 0.54422 0.0
C146 C 0.5281 0.98467 0.5365 0.0
C147 C 0.5606 0.97629 0.53648 0.0
C148 C 0.37726 0.0466 0.56532 0.0
C149 C 0.38588 0.08067 0.57591 0.0
C150 C 0.36377 0.0755 0.59112 0.0
C151 C 0.33265 0.03585 0.59619 0.0
C152 C 0.32483 0.00153 0.58573 0.0
C153 C 0.34658 0.00686 0.57037 0.0
C154 C 0.3734 0.04834 0.5339 0.0
C155 C 0.34635 0.00906 0.52667 0.0
C156 C 0.32006 0.00473 0.51292 0.0
C157 C 0.32035 0.03956 0.50614 0.0
C158 C 0.34836 0.07889 0.51315 0.0
C159 C 0.37451 0.08313 0.52689 0.0
C160 C 0.43109 0.0445 0.54749 0.0
C161 C 0.47155 0.07701 0.54472 0.0
C162 C 0.50461 0.06956 0.54345 0.0
C163 C 0.49788 0.02922 0.54503 0.0
C164 C 0.45706 0.99655 0.54766 0.0
C165 C 0.424 0.00405 0.54878 0.0
H166 H 0.62286 0.72578 0.89624 0.0
N167 N 0.62913 0.66533 0.88049 0.0
H168 H 0.65929 0.76416 0.92251 0.0
H169 H 0.67883 0.65005 0.90052 0.0
H170 H 0.71464 0.68728 0.9271 0.0
H171 H 0.68918 0.65268 0.86773 0.0
H172 H 0.73469 0.68863 0.84338 0.0
H173 H 0.62091 0.7151 0.85865 0.0
H174 H 0.66499 0.75016 0.83395 0.0
H175 H 0.554 0.65443 0.87418 0.0
H176 H 0.61838 0.58973 0.88656 0.0
H177 H 0.48754 0.5896 0.8751 0.0
H178 H 0.55199 0.52472 0.88846 0.0
H179 H 0.29513 0.39695 0.90676 0.0
H180 H 0.26743 0.35298 0.9321 0.0
H181 H 0.3562 0.3124 0.92498 0.0
H182 H 0.38498 0.35795 0.90005 0.0
H183 H 0.36494 0.34243 0.8713 0.0
H184 H 0.33112 0.30222 0.84516 0.0
H185 H 0.27032 0.37339 0.83829 0.0
H186 H 0.30467 0.41375 0.86448 0.0
H187 H 0.37389 0.47908 0.8962 0.0
H188 H 0.44158 0.54229 0.89509 0.0
H189 H 0.49417 0.47229 0.87294 0.0
N190 N 0.35426 0.40363 0.88584 0.0
H191 H 0.4267 0.409 0.87503 0.0
C192 C 0.64818 0.68522 0.89659 0.0
C193 C 0.64257 0.71713 0.90307 0.0
C194 C 0.66325 0.73879 0.91811 0.0
C195 C 0.68992 0.72879 0.92695 0.0
C196 C 0.69475 0.6961 0.92052 0.0
C197 C 0.6741 0.67456 0.90544 0.0
C198 C 0.65198 0.68153 0.8649 0.0
C199 C 0.68359 0.67355 0.86022 0.0
C200 C 0.70939 0.69401 0.84627 0.0
C201 C 0.70383 0.7227 0.83681 0.0
C202 C 0.67073 0.72896 0.84115 0.0
C203 C 0.64521 0.70869 0.85512 0.0
C204 C 0.59076 0.62665 0.88035 0.0
C205 C 0.55358 0.62604 0.87712 0.0
C206 C 0.51567 0.58899 0.87786 0.0
C207 C 0.51417 0.55178 0.88209 0.0
C208 C 0.55183 0.55255 0.88502 0.0
C209 C 0.58981 0.58968 0.88407 0.0
C210 C 0.34151 0.38018 0.90143 0.0
C211 C 0.30898 0.37905 0.91086 0.0
C212 C 0.29333 0.35407 0.9253 0.0
C213 C 0.30962 0.32923 0.9304 0.0
C214 C 0.34296 0.33107 0.92119 0.0
C215 C 0.35923 0.35686 0.90693 0.0
C216 C 0.33711 0.38108 0.86989 0.0
C217 C 0.34461 0.34964 0.86416 0.0
C218 C 0.3251 0.32651 0.84921 0.0
C219 C 0.29794 0.33451 0.83967 0.0
C220 C 0.29143 0.36673 0.84522 0.0
C221 C 0.31081 0.38969 0.8602 0.0
C222 C 0.39514 0.43958 0.88554 0.0
C223 C 0.4002 0.47751 0.89123 0.0
C224 C 0.43886 0.51363 0.8904 0.0
C225 C 0.47342 0.5127 0.88365 0.0
C226 C 0.46843 0.47428 0.8783 0.0
C227 C 0.4297 0.43798 0.87935 0.0
C228 C 0.99847 0.12673 0.08143 0.0
C229 C 0.02999 0.11671 0.08141 0.0
C230 C 0.00169 0.15893 0.09192 0.0
C231 C 0.0368 0.18212 0.10265 0.0
C232 C 0.06899 0.17293 0.10205 0.0
C233 C 0.06564 0.1406 0.09158 0.0
C234 C 0.04042 0.21423 0.11537 0.0
C235 C 0.01139 0.22526 0.11768 0.0
C236 C 0.01228 0.25313 0.13186 0.0
C237 C 0.98293 0.26614 0.13139 0.0
C238 C 0.97948 0.28879 0.14512 0.0
C239 C 0.00546 0.29918 0.15967 0.0
H240 H 0.06152 0.25459 0.1476 0.0
C241 C 0.03575 0.28745 0.16 0.0
C242 C 0.03901 0.26445 0.14633 0.0
H243 H 0.05582 0.29458 0.17117 0.0
H244 H 0.97063 0.10891 0.07368 0.0
H245 H 0.97594 0.16438 0.09172 0.0
H246 H 0.09648 0.19013 0.11006 0.0
H247 H 0.09056 0.13371 0.0918 0.0
H248 H 0.06798 0.22835 0.12348 0.0
H249 H 0.98475 0.21283 0.10911 0.0
H250 H 0.96187 0.25796 0.12049 0.0
H251 H 0.95607 0.29773 0.14445 0.0
C252 C 0.92269 0.04497 0.41335 0.0
C253 C 0.90589 0.00703 0.40427 0.0
C254 C 0.89704 0.0544 0.42325 0.0
C255 C 0.85407 0.0263 0.42399 0.0
C256 C 0.83708 0.98967 0.41405 0.0
C257 C 0.86274 0.97985 0.40447 0.0
C258 C 0.82636 0.03301 0.43564 0.0
C259 C 0.83831 0.0493 0.45164 0.0
C260 C 0.80825 0.04669 0.46481 0.0
C261 C 0.81384 0.03866 0.48192 0.0
C262 C 0.78408 0.03176 0.49437 0.0
C263 C 0.74866 0.03383 0.49004 0.0
H264 H 0.76877 0.05719 0.44757 0.0
C265 C 0.74402 0.04409 0.47317 0.0
C266 C 0.77345 0.05018 0.46059 0.0
H267 H 0.71696 0.04598 0.4696 0.0
H268 H 0.95581 0.06659 0.41338 0.0
H269 H 0.9109 0.08334 0.4305 0.0
H270 H 0.80404 0.96768 0.4143 0.0
H271 H 0.84884 0.9506 0.39744 0.0
H272 H 0.79385 0.01878 0.43193 0.0
H273 H 0.86976 0.05942 0.45598 0.0
H274 H 0.8405 0.03607 0.48552 0.0
H275 H 0.78843 0.02423 0.50736 0.0
C276 C 0.91371 0.91608 0.74843 0.0
C277 C 0.90286 0.94256 0.74019 0.0
C278 C 0.88599 0.88586 0.75978 0.0
C279 C 0.84673 0.88142 0.76295 0.0
C280 C 0.83561 0.90697 0.75421 0.0
C281 C 0.86315 0.93702 0.74299 0.0
C282 C 0.81746 0.85319 0.77611 0.0
C283 C 0.81926 0.82169 0.78342 0.0
C284 C 0.78996 0.79652 0.79722 0.0
C285 C 0.77816 0.75469 0.79884 0.0
C286 C 0.75011 0.73049 0.81161 0.0
C287 C 0.73363 0.74783 0.82314 0.0
H288 H 0.78399 0.84659 0.80871 0.0
C289 C 0.74648 0.79001 0.82178 0.0
C290 C 0.7743 0.81405 0.80904 0.0
H291 H 0.73556 0.80478 0.83077 0.0
H292 H 0.9441 0.9196 0.74659 0.0
H293 H 0.89611 0.86728 0.76643 0.0
H294 H 0.80564 0.90432 0.75633 0.0
H295 H 0.85343 0.95648 0.73676 0.0
H296 H 0.79248 0.8586 0.77983 0.0
H297 H 0.84141 0.81304 0.77888 0.0
H298 H 0.79013 0.74052 0.79004 0.0
H299 H 0.7409 0.6981 0.8123 0.0
C300 C 0.03626 0.91972 0.07724 0.0
C301 C 0.01471 0.93987 0.08238 0.0
C302 C 0.0384 0.89124 0.08813 0.0
C303 C 0.01941 0.88293 0.10443 0.0
C304 C 0.99797 0.90312 0.10947 0.0
C305 C 0.99527 0.93089 0.09854 0.0
C306 C 0.02274 0.85514 0.11696 0.0
C307 C 0.02555 0.82174 0.11248 0.0
C308 C 0.02487 0.79308 0.12571 0.0
C309 C 0.00324 0.75028 0.12231 0.0
C310 C 0.99868 0.72258 0.13524 0.0
C311 C 0.0164 0.73727 0.1517 0.0
H312 H 0.062 0.84069 0.14479 0.0
C313 C 0.03996 0.78022 0.15475 0.0
C314 C 0.04415 0.80781 0.14191 0.0
H315 H 0.05388 0.79255 0.1673 0.0
H316 H 0.05168 0.92618 0.06488 0.0
H317 H 0.05584 0.87674 0.084 0.0
H318 H 0.98322 0.89742 0.12197 0.0
H319 H 0.97861 0.94601 0.10296 0.0
H320 H 0.01956 0.8608 0.13052 0.0
H321 H 0.02437 0.81315 0.09895 0.0
H322 H 0.98849 0.73819 0.10987 0.0
H323 H 0.98077 0.68966 0.13245 0.0
C324 C 0.1092 0.02491 0.41755 0.0
C325 C 0.06906 0.99004 0.4182 0.0
C326 C 0.1395 0.03073 0.42977 0.0
C327 C 0.13 0.0019 0.44298 0.0
C328 C 0.08964 0.96776 0.44382 0.0
C329 C 0.05969 0.96167 0.43154 0.0
C330 C 0.16056 0.0064 0.4564 0.0
C331 C 0.20196 0.02616 0.45401 0.0
C332 C 0.23187 0.02832 0.46734 0.0
C333 C 0.27358 0.06001 0.46653 0.0
C334 C 0.30245 0.0634 0.47893 0.0
C335 C 0.29034 0.03487 0.49238 0.0
H336 H 0.1887 0.9732 0.48136 0.0
C337 C 0.24887 0.00247 0.49292 0.0
C338 C 0.22004 0.99908 0.48054 0.0
H339 H 0.23839 0.98005 0.50313 0.0
H340 H 0.11736 0.04742 0.40748 0.0
H341 H 0.16996 0.05803 0.42897 0.0
H342 H 0.08132 0.94528 0.45393 0.0
H343 H 0.02901 0.93467 0.43257 0.0
H344 H 0.1478 0.99133 0.46855 0.0
H345 H 0.21471 0.04151 0.4419 0.0
H346 H 0.2838 0.08258 0.45637 0.0
H347 H 0.3343 0.08835 0.47795 0.0
C348 C 0.08769 0.15153 0.74994 0.0
C349 C 0.08433 0.1147 0.74336 0.0
C350 C 0.11961 0.17704 0.76141 0.0
C351 C 0.1493 0.16661 0.76654 0.0
C352 C 0.14604 0.12987 0.75998 0.0
C353 C 0.11408 0.10431 0.74843 0.0
C354 C 0.18216 0.19193 0.77954 0.0
C355 C 0.19649 0.23262 0.78231 0.0
C356 C 0.22569 0.25784 0.79649 0.0
C357 C 0.24507 0.30114 0.7958 0.0
C358 C 0.26948 0.3261 0.80957 0.0
C359 C 0.27501 0.3083 0.82442 0.0
H360 H 0.21687 0.20685 0.81257 0.0
C361 C 0.25653 0.26503 0.82497 0.0
C362 C 0.232 0.24002 0.81122 0.0
H363 H 0.25964 0.25033 0.83635 0.0
H364 H 0.06529 0.1605 0.74644 0.0
H365 H 0.12 0.20424 0.76659 0.0
H366 H 0.16819 0.12083 0.76385 0.0
H367 H 0.11241 0.07613 0.74369 0.0
H368 H 0.19491 0.17639 0.78687 0.0
H369 H 0.18634 0.24861 0.77379 0.0
H370 H 0.24071 0.31578 0.78468 0.0
H371 H 0.28366 0.35936 0.80867 0.0
C372 C 0.91566 0.03271 0.67853 0.0
C373 C 0.92663 0.00191 0.67817 0.0
C374 C 0.88212 0.0281 0.6687 0.0
C375 C 0.85895 0.99257 0.65821 0.0
C376 C 0.86939 0.96139 0.65824 0.0
C377 C 0.90296 0.96605 0.66804 0.0
C378 C 0.82377 0.98662 0.6471 0.0
C379 C 0.8197 0.01807 0.64112 0.0
C380 C 0.78666 0.01258 0.62875 0.0
C381 C 0.77861 0.04516 0.62683 0.0
C382 C 0.74994 0.04256 0.61452 0.0
C383 C 0.72871 0.0073 0.60378 0.0
H384 H 0.77103 0.95173 0.61863 0.0
C385 C 0.73631 0.97445 0.60584 0.0
C386 C 0.76501 0.97706 0.6181 0.0
H387 H 0.72122 0.94725 0.5975 0.0
H388 H 0.93305 0.06049 0.68639 0.0
H389 H 0.87434 0.05225 0.66954 0.0
H390 H 0.85192 0.93354 0.65042 0.0
H391 H 0.91048 0.94163 0.66759 0.0
H392 H 0.80152 0.95506 0.64321 0.0
H393 H 0.842 0.04961 0.64506 0.0
H394 H 0.79492 0.07298 0.63476 0.0
H395 H 0.74462 0.06832 0.61333 0.0
C396 C 0.86483 0.93531 0.02151 0.0
C397 C 0.90497 0.94237 0.02472 0.0
C398 C 0.83684 0.90199 0.01114 0.0
C399 C 0.84845 0.87497 0.00347 0.0
C400 C 0.88804 0.88109 0.00731 0.0
C401 C 0.91596 0.9143 0.01785 0.0
C402 C 0.82136 0.8413 0.99091 0.0
C403 C 0.78542 0.83594 0.98433 0.0
C404 C 0.76091 0.80533 0.97043 0.0
C405 C 0.71893 0.7934 0.96831 0.0
C406 C 0.69558 0.76767 0.95452 0.0
C407 C 0.7138 0.75352 0.94238 0.0
H408 H 0.81153 0.79994 0.95928 0.0
C409 C 0.75565 0.76485 0.94465 0.0
C410 C 0.779 0.79052 0.95848 0.0
H411 H 0.7709 0.75518 0.93536 0.0
H412 H 0.85509 0.95594 0.02685 0.0
H413 H 0.80656 0.89836 0.00914 0.0
H414 H 0.89791 0.86073 0.00176 0.0
H415 H 0.94662 0.91877 0.0201 0.0
H416 H 0.83245 0.82095 0.98651 0.0
H417 H 0.77302 0.85493 0.98893 0.0
H418 H 0.70421 0.80447 0.97726 0.0
H419 H 0.6633 0.75914 0.95329 0.0
C420 C 0.04962 0.94101 0.34127 0.0
C421 C 0.01609 0.9339 0.3518 0.0
C422 C 0.04828 0.90871 0.3314 0.0
C423 C 0.01335 0.86854 0.33197 0.0
C424 C 0.98054 0.86139 0.34297 0.0
C425 C 0.9819 0.89361 0.3528 0.0
C426 C 0.00798 0.83411 0.32036 0.0
C427 C 0.0391 0.83313 0.3119 0.0
C428 C 0.0319 0.8005 0.29883 0.0
C429 C 0.0618 0.80961 0.28601 0.0
C430 C 0.0546 0.78121 0.27262 0.0
C431 C 0.01731 0.74303 0.27181 0.0
H432 H 0.97261 0.75199 0.30855 0.0
C433 C 0.98835 0.733 0.2851 0.0
C434 C 0.99564 0.76122 0.29853 0.0
H435 H 0.95979 0.70335 0.28502 0.0
H436 H 0.07633 0.97181 0.34019 0.0
H437 H 0.07391 0.91598 0.32287 0.0
H438 H 0.95321 0.83087 0.34366 0.0
H439 H 0.95559 0.88711 0.36083 0.0
H440 H 0.9763 0.80916 0.31831 0.0
H441 H 0.07081 0.85815 0.31377 0.0
H442 H 0.09021 0.83939 0.286 0.0
H443 H 0.07749 0.7898 0.26254 0.0
C444 C 0.13148 0.04187 0.67876 0.0
C445 C 0.10183 0.0082 0.68824 0.0
C446 C 0.16218 0.03907 0.66958 0.0
C447 C 0.16382 0.00236 0.66957 0.0
C448 C 0.13466 0.96891 0.67931 0.0
C449 C 0.1042 0.97195 0.68875 0.0
C450 C 0.19294 0.99714 0.65813 0.0
C451 C 0.23023 0.02908 0.65369 0.0
C452 C 0.25663 0.02644 0.63994 0.0
C453 C 0.29939 0.05506 0.64015 0.0
C454 C 0.32437 0.05696 0.62634 0.0
C455 C 0.30701 0.03079 0.61176 0.0
H456 H 0.20638 0.97743 0.62483 0.0
C457 C 0.26427 0.00137 0.61178 0.0
C458 C 0.2394 0.99913 0.6257 0.0
H459 H 0.24948 0.98121 0.6007 0.0
H460 H 0.13041 0.0702 0.67809 0.0
H461 H 0.18332 0.06512 0.66188 0.0
H462 H 0.13499 0.94014 0.67937 0.0
H463 H 0.08154 0.94541 0.69584 0.0
H464 H 0.18293 0.96631 0.65301 0.0
H465 H 0.24178 0.0589 0.66016 0.0
H466 H 0.31344 0.07658 0.65093 0.0
H467 H 0.35723 0.07949 0.62699 0.0
C468 C 0.12328 0.12039 0.01877 0.0
C469 C 0.08198 0.1079 0.01446 0.0
C470 C 0.15527 0.14328 0.00712 0.0
C471 C 0.14615 0.15296 0.99083 0.0
C472 C 0.10468 0.1388 0.9863 0.0
C473 C 0.07298 0.11711 0.9981 0.0
C474 C 0.17902 0.17834 0.97834 0.0
C475 C 0.21449 0.2127 0.98312 0.0
C476 C 0.24289 0.24236 0.97022 0.0
C477 C 0.26 0.28495 0.97336 0.0
C478 C 0.28282 0.31341 0.96059 0.0
C479 C 0.28992 0.29982 0.94465 0.0
H480 H 0.23918 0.19623 0.95188 0.0
C481 C 0.27494 0.25742 0.94189 0.0
C482 C 0.25136 0.22886 0.95452 0.0
H483 H 0.27993 0.2462 0.92967 0.0
H484 H 0.13094 0.11365 0.03133 0.0
H485 H 0.18701 0.15334 0.01081 0.0
H486 H 0.0969 0.14571 0.97379 0.0
H487 H 0.04133 0.10754 0.99442 0.0
H488 H 0.1714 0.17167 0.96469 0.0
H489 H 0.21996 0.22198 0.99666 0.0
H490 H 0.25408 0.29608 0.9854 0.0
H491 H 0.29425 0.34599 0.96304 0.0
C492 C 0.0425 0.1494 0.35548 0.0
C493 C 0.02643 0.109 0.34882 0.0
C494 C 0.04628 0.18107 0.3448 0.0
C495 C 0.03484 0.1728 0.32724 0.0
C496 C 0.01999 0.13269 0.32059 0.0
C497 C 0.01528 0.10106 0.33129 0.0
C498 C 0.03839 0.20495 0.31528 0.0
C499 C 0.03081 0.23533 0.3199 0.0
C500 C 0.02812 0.26269 0.30689 0.0
C501 C 0.99881 0.27538 0.30899 0.0
C502 C 0.99266 0.29748 0.29604 0.0
C503 C 0.01621 0.30789 0.28085 0.0
H504 H 0.07668 0.26646 0.29023 0.0
C505 C 0.04705 0.29701 0.27919 0.0
C506 C 0.05299 0.27474 0.29205 0.0
H507 H 0.06565 0.30438 0.26764 0.0
H508 H 0.05138 0.15629 0.36896 0.0
H509 H 0.05857 0.21194 0.35021 0.0
H510 H 0.01124 0.12559 0.3071 0.0
H511 H 0.00317 0.0703 0.32575 0.0
H512 H 0.04294 0.20057 0.30173 0.0
H513 H 0.02186 0.23717 0.33308 0.0
H514 H 0.97954 0.26686 0.32037 0.0
H515 H 0.96909 0.30594 0.29783 0.0
loop_
_geom_bond_atom_site_label_1
_geom_bond_atom_site_label_2
_geom_bond_distance
_geom_bond_site_symmetry_2
_ccdc_geom_bond_type
Co0 O1 2.216 1_445 S
Co0 O2 2.091 1_545 S
Co0 O4 2.004 . S
Co0 O10 2.021 1_445 S
Co0 O12 2.137 . S
Co0 O13 2.244 1_455 S
O1 Co0 2.216 1_665 S
O1 C8 1.247 1_655 S
O2 Co0 2.091 1_565 S
O2 C8 1.261 . S
C3 O12 1.247 . S
C3 O13 1.272 1_455 S
O4 Co0 2.004 . S
O4 C9 1.259 . S
Co5 O6 2.061 1_655 S
Co5 O11 2.052 . S
Co5 O13 2.135 . S
O6 Co5 2.061 1_455 S
O6 C9 1.235 . S
C7 O10 1.238 . S
C7 O11 1.241 1_565 S
C8 O1 1.247 1_455 S
C8 O2 1.261 . S
C9 O4 1.259 . S
C9 O6 1.235 . S
O10 Co0 2.021 1_665 S
O10 C7 1.238 . S
O11 Co5 2.052 . S
O11 C7 1.241 1_545 S
O12 Co0 2.137 . S
O12 C3 1.247 . S
O13 Co0 2.244 1_655 S
O13 C3 1.272 1_655 S
O13 Co5 2.135 . S
Co14 O15 2.216 1_455 S
Co14 O16 2.091 . S
Co14 O18 2.004 . S
Co14 O24 2.021 1_455 S
Co14 O26 2.137 . S
Co14 O27 2.244 1_445 S
O15 Co14 2.216 1_655 S
O15 C22 1.247 1_655 S
O16 Co14 2.091 . S
O16 C22 1.261 . S
C17 O26 1.247 1_565 S
C17 O27 1.272 1_455 S
O18 Co14 2.004 . S
O18 C23 1.259 . S
Co19 O20 2.061 1_655 S
Co19 O25 2.052 . S
Co19 O27 2.135 . S
O20 Co19 2.061 1_455 S
O20 C23 1.235 1_565 S
C21 O24 1.238 . S
C21 O25 1.241 1_545 S
C22 O15 1.247 1_455 S
C22 O16 1.261 . S
C23 O18 1.259 . S
C23 O20 1.235 1_545 S
O24 Co14 2.021 1_655 S
O24 C21 1.238 . S
O25 Co19 2.052 . S
O25 C21 1.241 1_565 S
O26 Co14 2.137 . S
O26 C17 1.247 1_545 S
O27 Co14 2.244 1_665 S
O27 C17 1.272 1_655 S
O27 Co19 2.135 . S
Co28 O29 2.216 . S
Co28 O30 2.091 1_545 S
Co28 O32 2.004 1_445 S
Co28 O38 2.021 . S
Co28 O40 2.137 1_445 S
Co28 O41 2.244 1_455 S
O29 Co28 2.216 . S
O29 C36 1.247 . S
O30 Co28 2.091 1_565 S
O30 C36 1.261 1_565 S
C31 O40 1.247 1_545 S
C31 O41 1.272 . S
O32 Co28 2.004 1_665 S
O32 C37 1.259 . S
Co33 O34 2.061 1_545 S
Co33 O39 2.052 1_655 S
Co33 O41 2.135 . S
O34 Co33 2.061 1_565 S
O34 C37 1.235 . S
C35 O38 1.238 . S
C35 O39 1.241 . S
C36 O29 1.247 . S
C36 O30 1.261 1_545 S
C37 O32 1.259 . S
C37 O34 1.235 . S
O38 Co28 2.021 . S
O38 C35 1.238 . S
O39 Co33 2.052 1_455 S
O39 C35 1.241 . S
O40 Co28 2.137 1_665 S
O40 C31 1.247 1_565 S
O41 Co28 2.244 1_655 S
O41 C31 1.272 . S
O41 Co33 2.135 . S
H42 C69 0.929 . S
N43 C68 1.433 . S
N43 C74 1.435 . S
N43 C80 1.423 . S
H44 C70 0.930 . S
H45 C73 0.931 . S
H46 C72 0.929 . S
H47 C75 0.930 . S
H48 C76 0.932 . S
H49 C79 0.929 . S
H50 C78 0.931 . S
H51 C81 0.929 . S
H52 C85 0.932 . S
H53 C82 0.931 . S
H54 C84 0.929 1_455 S
H55 C87 0.929 . S
H56 C88 0.930 . S
H57 C90 0.929 . S
H58 C91 0.931 . S
H59 C93 0.930 . S
H60 C94 0.932 . S
H61 C96 0.931 . S
H62 C97 0.929 . S
H63 C99 0.929 . S
H64 C100 0.931 . S
H65 C102 0.929 1_455 S
N66 C86 1.433 . S
N66 C92 1.435 . S
N66 C98 1.423 . S
H67 C103 0.932 . S
C68 N43 1.433 . S
C68 C69 1.363 . S
C68 C73 1.370 1_655 S
C69 H42 0.929 . S
C69 C68 1.363 . S
C69 C70 1.385 . S
C70 H44 0.930 . S
C70 C69 1.385 . S
C70 C71 1.357 1_655 S
C71 C70 1.357 1_455 S
C71 C72 1.406 . S
C72 H46 0.929 . S
C72 C71 1.406 . S
C72 C73 1.391 . S
C73 H45 0.931 . S
C73 C68 1.370 1_455 S
C73 C72 1.391 . S
C74 N43 1.435 . S
C74 C75 1.358 1_655 S
C74 C79 1.371 . S
C75 H47 0.930 . S
C75 C74 1.358 1_455 S
C75 C76 1.405 . S
C76 H48 0.932 . S
C76 C75 1.405 . S
C76 C77 1.383 . S
C77 C76 1.383 . S
C77 C78 1.393 1_455 S
C78 H50 0.931 . S
C78 C77 1.393 1_655 S
C78 C79 1.382 . S
C79 H49 0.929 . S
C79 C74 1.371 . S
C79 C78 1.382 . S
C80 N43 1.423 . S
C80 C81 1.362 . S
C80 C85 1.388 1_655 S
C81 H51 0.929 . S
C81 C80 1.362 . S
C81 C82 1.376 . S
C82 H53 0.931 . S
C82 C81 1.376 . S
C82 C83 1.396 . S
C83 C82 1.396 . S
C83 C84 1.348 . S
C83 C101 1.472 . S
C84 H54 0.929 1_655 S
C84 C83 1.348 . S
C84 C85 1.443 1_655 S
C85 H52 0.932 . S
C85 C80 1.388 1_455 S
C85 C84 1.443 1_455 S
C86 N66 1.433 . S
C86 C87 1.363 . S
C86 C91 1.370 1_655 S
C87 H55 0.929 . S
C87 C86 1.363 . S
C87 C88 1.385 . S
C88 H56 0.930 . S
C88 C87 1.385 . S
C88 C89 1.357 1_655 S
C89 C88 1.357 1_455 S
C89 C90 1.406 . S
C90 H57 0.929 . S
C90 C89 1.406 . S
C90 C91 1.391 . S
C91 H58 0.931 . S
C91 C86 1.370 1_455 S
C91 C90 1.391 . S
C92 N66 1.435 . S
C92 C93 1.358 1_655 S
C92 C97 1.371 . S
C93 H59 0.930 . S
C93 C92 1.358 1_455 S
C93 C94 1.405 . S
C94 H60 0.932 . S
C94 C93 1.405 . S
C94 C95 1.383 . S
C95 C94 1.383 . S
C95 C96 1.393 1_455 S
C96 H61 0.931 . S
C96 C95 1.393 1_655 S
C96 C97 1.382 . S
C97 H62 0.929 . S
C97 C92 1.371 . S
C97 C96 1.382 . S
C98 N66 1.423 . S
C98 C99 1.362 . S
C98 C103 1.388 1_655 S
C99 H63 0.929 . S
C99 C98 1.362 . S
C99 C100 1.376 . S
C100 H64 0.931 . S
C100 C99 1.376 . S
C100 C101 1.396 . S
C101 C83 1.472 . S
C101 C100 1.396 . S
C101 C102 1.348 . S
C102 H65 0.929 1_655 S
C102 C101 1.348 . S
C102 C103 1.443 1_655 S
C103 H67 0.932 . S
C103 C98 1.388 1_455 S
C103 C102 1.443 1_455 S
H104 C131 0.929 . S
N105 C130 1.433 . S
N105 C136 1.435 . S
N105 C142 1.423 . S
H106 C132 0.930 . S
H107 C135 0.931 . S
H108 C134 0.929 . S
H109 C137 0.930 . S
H110 C138 0.932 . S
H111 C141 0.929 . S
H112 C140 0.931 . S
H113 C143 0.929 . S
H114 C147 0.932 1_565 S
H115 C144 0.931 . S
H116 C146 0.929 . S
H117 C149 0.929 . S
H118 C150 0.930 . S
H119 C152 0.929 . S
H120 C153 0.931 . S
H121 C155 0.930 . S
H122 C156 0.932 . S
H123 C158 0.931 . S
H124 C159 0.929 . S
H125 C161 0.929 . S
H126 C162 0.931 . S
H127 C164 0.929 . S
N128 C148 1.433 . S
N128 C154 1.435 . S
N128 C160 1.423 . S
H129 C165 0.932 1_565 S
C130 N105 1.433 . S
C130 C131 1.363 . S
C130 C135 1.370 1_545 S
C131 H104 0.929 . S
C131 C130 1.363 . S
C131 C132 1.385 . S
C132 H106 0.930 . S
C132 C131 1.385 . S
C132 C133 1.357 . S
C133 C132 1.357 . S
C133 C134 1.406 1_545 S
C134 H108 0.929 . S
C134 C133 1.406 1_565 S
C134 C135 1.391 . S
C135 H107 0.931 . S
C135 C130 1.370 1_565 S
C135 C134 1.391 . S
C136 N105 1.435 . S
C136 C137 1.358 1_545 S
C136 C141 1.371 . S
C137 H109 0.930 . S
C137 C136 1.358 1_565 S
C137 C138 1.405 . S
C138 H110 0.932 . S
C138 C137 1.405 . S
C138 C139 1.383 1_565 S
C139 C138 1.383 1_545 S
C139 C140 1.393 . S
C140 H112 0.931 . S
C140 C139 1.393 . S
C140 C141 1.382 . S
C141 H111 0.929 . S
C141 C136 1.371 . S
C141 C140 1.382 . S
C142 N105 1.423 . S
C142 C143 1.362 . S
C142 C147 1.388 . S
C143 H113 0.929 . S
C143 C142 1.362 . S
C143 C144 1.376 . S
C144 H115 0.931 . S
C144 C143 1.376 . S
C144 C145 1.396 . S
C145 C144 1.396 . S
C145 C146 1.348 . S
C145 C163 1.472 . S
C146 H116 0.929 . S
C146 C145 1.348 . S
C146 C147 1.443 . S
C147 H114 0.932 1_545 S
C147 C142 1.388 . S
C147 C146 1.443 . S
C148 N128 1.433 . S
C148 C149 1.363 . S
C148 C153 1.370 1_545 S
C149 H117 0.929 . S
C149 C148 1.363 . S
C149 C150 1.385 . S
C150 H118 0.930 . S
C150 C149 1.385 . S
C150 C151 1.357 . S
C151 C150 1.357 . S
C151 C152 1.406 1_545 S
C152 H119 0.929 . S
C152 C151 1.406 1_565 S
C152 C153 1.391 . S
C153 H120 0.931 . S
C153 C148 1.370 1_565 S
C153 C152 1.391 . S
C154 N128 1.435 . S
C154 C155 1.358 1_545 S
C154 C159 1.371 . S
C155 H121 0.930 . S
C155 C154 1.358 1_565 S
C155 C156 1.405 . S
C156 H122 0.932 . S
C156 C155 1.405 . S
C156 C157 1.383 1_565 S
C157 C156 1.383 1_545 S
C157 C158 1.393 . S
C158 H123 0.931 . S
C158 C157 1.393 . S
C158 C159 1.382 . S
C159 H124 0.929 . S
C159 C154 1.371 . S
C159 C158 1.382 . S
C160 N128 1.423 . S
C160 C161 1.362 . S
C160 C165 1.388 . S
C161 H125 0.929 . S
C161 C160 1.362 . S
C161 C162 1.376 . S
C162 H126 0.931 . S
C162 C161 1.376 . S
C162 C163 1.396 . S
C163 C145 1.472 . S
C163 C162 1.396 . S
C163 C164 1.348 . S
C164 H127 0.929 . S
C164 C163 1.348 . S
C164 C165 1.443 . S
C165 H129 0.932 1_545 S
C165 C160 1.388 . S
C165 C164 1.443 . S
H166 C193 0.929 . S
N167 C192 1.433 . S
N167 C198 1.435 . S
N167 C204 1.423 . S
H168 C194 0.930 . S
H169 C197 0.931 . S
H170 C196 0.929 . S
H171 C199 0.930 . S
H172 C200 0.932 . S
H173 C203 0.929 . S
H174 C202 0.931 . S
H175 C205 0.929 . S
H176 C209 0.932 . S
H177 C206 0.931 . S
H178 C208 0.929 . S
H179 C211 0.929 . S
H180 C212 0.930 . S
H181 C214 0.929 . S
H182 C215 0.931 . S
H183 C217 0.930 . S
H184 C218 0.932 . S
H185 C220 0.931 . S
H186 C221 0.929 . S
H187 C223 0.929 . S
H188 C224 0.931 . S
H189 C226 0.929 . S
N190 C210 1.433 . S
N190 C216 1.435 . S
N190 C222 1.423 . S
H191 C227 0.932 . S
C192 N167 1.433 . S
C192 C193 1.363 . S
C192 C197 1.370 . S
C193 H166 0.929 . S
C193 C192 1.363 . S
C193 C194 1.385 . S
C194 H168 0.930 . S
C194 C193 1.385 . S
C194 C195 1.357 . S
C195 C194 1.357 . S
C195 C196 1.406 . S
C196 H170 0.929 . S
C196 C195 1.406 . S
C196 C197 1.391 . S
C197 H169 0.931 . S
C197 C192 1.370 . S
C197 C196 1.391 . S
C198 N167 1.435 . S
C198 C199 1.358 . S
C198 C203 1.371 . S
C199 H171 0.930 . S
C199 C198 1.358 . S
C199 C200 1.405 . S
C200 H172 0.932 . S
C200 C199 1.405 . S
C200 C201 1.383 . S
C201 C200 1.383 . S
C201 C202 1.393 . S
C202 H174 0.931 . S
C202 C201 1.393 . S
C202 C203 1.382 . S
C203 H173 0.929 . S
C203 C198 1.371 . S
C203 C202 1.382 . S
C204 N167 1.423 . S
C204 C205 1.362 . S
C204 C209 1.388 . S
C205 H175 0.929 . S
C205 C204 1.362 . S
C205 C206 1.376 . S
C206 H177 0.931 . S
C206 C205 1.376 . S
C206 C207 1.396 . S
C207 C206 1.396 . S
C207 C208 1.348 . S
C207 C225 1.472 . S
C208 H178 0.929 . S
C208 C207 1.348 . S
C208 C209 1.443 . S
C209 H176 0.932 . S
C209 C204 1.388 . S
C209 C208 1.443 . S
C210 N190 1.433 . S
C210 C211 1.363 . S
C210 C215 1.370 . S
C211 H179 0.929 . S
C211 C210 1.363 . S
C211 C212 1.385 . S
C212 H180 0.930 . S
C212 C211 1.385 . S
C212 C213 1.357 . S
C213 C212 1.357 . S
C213 C214 1.406 . S
C214 H181 0.929 . S
C214 C213 1.406 . S
C214 C215 1.391 . S
C215 H182 0.931 . S
C215 C210 1.370 . S
C215 C214 1.391 . S
C216 N190 1.435 . S
C216 C217 1.358 . S
C216 C221 1.371 . S
C217 H183 0.930 . S
C217 C216 1.358 . S
C217 C218 1.405 . S
C218 H184 0.932 . S
C218 C217 1.405 . S
C218 C219 1.383 . S
C219 C218 1.383 . S
C219 C220 1.393 . S
C220 H185 0.931 . S
C220 C219 1.393 . S
C220 C221 1.382 . S
C221 H186 0.929 . S
C221 C216 1.371 . S
C221 C220 1.382 . S
C222 N190 1.423 . S
C222 C223 1.362 . S
C222 C227 1.388 . S
C223 H187 0.929 . S
C223 C222 1.362 . S
C223 C224 1.376 . S
C224 H188 0.931 . S
C224 C223 1.376 . S
C224 C225 1.396 . S
C225 C207 1.472 . S
C225 C224 1.396 . S
C225 C226 1.348 . S
C226 H189 0.929 . S
C226 C225 1.348 . S
C226 C227 1.443 . S
C227 H191 0.932 . S
C227 C222 1.388 . S
C227 C226 1.443 . S
C228 C229 1.386 . S
C228 C230 1.383 1_455 S
C228 H244 0.951 . S
C229 C228 1.386 . S
C229 C233 1.383 1_455 S
C230 C228 1.383 1_655 S
C230 C231 1.402 . S
C230 H245 0.951 . S
C231 C230 1.402 . S
C231 C232 1.375 . S
C231 C234 1.481 . S
C232 C231 1.375 . S
C232 C233 1.367 . S
C232 H246 0.951 . S
C233 C229 1.383 1_655 S
C233 C232 1.367 . S
C233 H247 0.950 . S
C234 C231 1.481 . S
C234 C235 1.297 . S
C234 H248 0.950 . S
C235 C234 1.297 . S
C235 C236 1.479 . S
C235 H249 0.950 . S
C236 C235 1.479 . S
C236 C237 1.375 . S
C236 C242 1.404 . S
C237 C236 1.375 . S
C237 C238 1.369 . S
C237 H250 0.950 . S
C238 C237 1.369 . S
C238 C239 1.392 . S
C238 H251 0.951 1_655 S
C239 C238 1.392 . S
C239 C241 1.384 . S
H240 C242 0.949 . S
C241 C239 1.384 . S
C241 C242 1.385 . S
C241 H243 0.950 . S
C242 C236 1.404 . S
C242 H240 0.949 . S
C242 C241 1.385 . S
H243 C241 0.950 . S
H244 C228 0.951 . S
H245 C230 0.951 . S
H246 C232 0.951 . S
H247 C233 0.950 . S
H248 C234 0.950 . S
H249 C235 0.950 . S
H250 C237 0.950 . S
H251 C238 0.951 1_455 S
C252 C253 1.386 . S
C252 C254 1.383 . S
C252 H268 0.951 . S
C253 C252 1.386 . S
C253 C257 1.382 . S
C254 C252 1.383 . S
C254 C255 1.402 . S
C254 H269 0.951 . S
C255 C254 1.402 . S
C255 C256 1.377 . S
C255 C258 1.481 . S
C256 C255 1.377 . S
C256 C257 1.371 . S
C256 H270 0.951 1_545 S
C257 C253 1.382 . S
C257 C256 1.371 . S
C257 H271 0.945 1_545 S
C258 C255 1.481 . S
C258 C259 1.297 . S
C258 H272 0.950 . S
C259 C258 1.297 . S
C259 C260 1.479 . S
C259 H273 0.950 . S
C260 C259 1.479 . S
C260 C261 1.375 . S
C260 C266 1.404 . S
C261 C260 1.375 . S
C261 C262 1.369 . S
C261 H274 0.950 . S
C262 C261 1.369 . S
C262 C263 1.392 . S
C262 H275 0.951 . S
C263 C262 1.392 . S
C263 C265 1.384 . S
H264 C266 0.949 . S
C265 C263 1.384 . S
C265 C266 1.385 . S
C265 H267 0.950 1_545 S
C266 C260 1.404 . S
C266 H264 0.949 . S
C266 C265 1.385 . S
H267 C265 0.950 1_565 S
H268 C252 0.951 . S
H269 C254 0.951 . S
H270 C256 0.951 1_565 S
H271 C257 0.945 1_565 S
H272 C258 0.950 . S
H273 C259 0.950 . S
H274 C261 0.950 . S
H275 C262 0.951 . S
C276 C277 1.386 . S
C276 C278 1.383 . S
C276 H292 0.951 . S
C277 C276 1.386 . S
C277 C281 1.383 . S
C278 C276 1.383 . S
C278 C279 1.402 . S
C278 H293 0.951 . S
C279 C278 1.402 . S
C279 C280 1.375 . S
C279 C282 1.481 . S
C280 C279 1.375 . S
C280 C281 1.367 . S
C280 H294 0.951 . S
C281 C277 1.383 . S
C281 C280 1.367 . S
C281 H295 0.950 . S
C282 C279 1.481 . S
C282 C283 1.297 . S
C282 H296 0.950 . S
C283 C282 1.297 . S
C283 C284 1.479 . S
C283 H297 0.950 . S
C284 C283 1.479 . S
C284 C285 1.375 . S
C284 C290 1.404 . S
C285 C284 1.375 . S
C285 C286 1.369 . S
C285 H298 0.950 . S
C286 C285 1.369 . S
C286 C287 1.392 . S
C286 H299 0.951 . S
C287 C286 1.392 . S
C287 C289 1.384 . S
H288 C290 0.949 . S
C289 C287 1.384 . S
C289 C290 1.385 . S
C289 H291 0.950 . S
C290 C284 1.404 . S
C290 H288 0.949 . S
C290 C289 1.385 . S
H291 C289 0.950 . S
H292 C276 0.951 . S
H293 C278 0.951 . S
H294 C280 0.951 . S
H295 C281 0.950 . S
H296 C282 0.950 . S
H297 C283 0.950 . S
H298 C285 0.950 . S
H299 C286 0.951 . S
C300 C301 1.386 . S
C300 C302 1.383 . S
C300 H316 0.951 . S
C301 C300 1.386 . S
C301 C305 1.383 . S
C302 C300 1.383 . S
C302 C303 1.402 . S
C302 H317 0.951 . S
C303 C302 1.402 . S
C303 C304 1.375 . S
C303 C306 1.481 . S
C304 C303 1.375 . S
C304 C305 1.367 . S
C304 H318 0.951 . S
C305 C301 1.383 . S
C305 C304 1.367 . S
C305 H319 0.950 . S
C306 C303 1.481 . S
C306 C307 1.297 . S
C306 H320 0.950 . S
C307 C306 1.297 . S
C307 C308 1.479 . S
C307 H321 0.950 . S
C308 C307 1.479 . S
C308 C309 1.375 . S
C308 C314 1.404 . S
C309 C308 1.375 . S
C309 C310 1.369 . S
C309 H322 0.950 . S
C310 C309 1.369 . S
C310 C311 1.392 . S
C310 H323 0.951 . S
C311 C310 1.392 . S
C311 C313 1.384 . S
H312 C314 0.949 . S
C313 C311 1.384 . S
C313 C314 1.385 . S
C313 H315 0.950 . S
C314 C308 1.404 . S
C314 H312 0.949 . S
C314 C313 1.385 . S
H315 C313 0.950 . S
H316 C300 0.951 . S
H317 C302 0.951 . S
H318 C304 0.951 . S
H319 C305 0.950 . S
H320 C306 0.950 . S
H321 C307 0.950 . S
H322 C309 0.950 . S
H323 C310 0.951 . S
C324 C325 1.386 . S
C324 C326 1.383 . S
C324 H340 0.951 . S
C325 C324 1.386 . S
C325 C329 1.383 . S
C326 C324 1.383 . S
C326 C327 1.402 . S
C326 H341 0.951 . S
C327 C326 1.402 . S
C327 C328 1.375 . S
C327 C330 1.481 . S
C328 C327 1.375 . S
C328 C329 1.367 . S
C328 H342 0.951 . S
C329 C325 1.383 . S
C329 C328 1.367 . S
C329 H343 0.950 . S
C330 C327 1.481 . S
C330 C331 1.297 . S
C330 H344 0.950 . S
C331 C330 1.297 . S
C331 C332 1.479 . S
C331 H345 0.950 . S
C332 C331 1.479 . S
C332 C333 1.375 . S
C332 C338 1.404 . S
C333 C332 1.375 . S
C333 C334 1.369 . S
C333 H346 0.950 . S
C334 C333 1.369 . S
C334 C335 1.392 . S
C334 H347 0.951 . S
C335 C334 1.392 . S
C335 C337 1.384 . S
H336 C338 0.949 . S
C337 C335 1.384 . S
C337 C338 1.385 . S
C337 H339 0.950 . S
C338 C332 1.404 . S
C338 H336 0.949 . S
C338 C337 1.385 . S
H339 C337 0.950 . S
H340 C324 0.951 . S
H341 C326 0.951 . S
H342 C328 0.951 . S
H343 C329 0.950 . S
H344 C330 0.950 . S
H345 C331 0.950 . S
H346 C333 0.950 . S
H347 C334 0.951 . S
C348 C349 1.386 . S
C348 C350 1.383 . S
C348 H364 0.951 . S
C349 C348 1.386 . S
C349 C353 1.383 . S
C350 C348 1.383 . S
C350 C351 1.402 . S
C350 H365 0.951 . S
C351 C350 1.402 . S
C351 C352 1.375 . S
C351 C354 1.481 . S
C352 C351 1.375 . S
C352 C353 1.367 . S
C352 H366 0.951 . S
C353 C349 1.383 . S
C353 C352 1.367 . S
C353 H367 0.950 . S
C354 C351 1.481 . S
C354 C355 1.297 . S
C354 H368 0.950 . S
C355 C354 1.297 . S
C355 C356 1.479 . S
C355 H369 0.950 . S
C356 C355 1.479 . S
C356 C357 1.375 . S
C356 C362 1.404 . S
C357 C356 1.375 . S
C357 C358 1.369 . S
C357 H370 0.950 . S
C358 C357 1.369 . S
C358 C359 1.392 . S
C358 H371 0.951 . S
C359 C358 1.392 . S
C359 C361 1.384 . S
H360 C362 0.949 . S
C361 C359 1.384 . S
C361 C362 1.385 . S
C361 H363 0.950 . S
C362 C356 1.404 . S
C362 H360 0.949 . S
C362 C361 1.385 . S
H363 C361 0.950 . S
H364 C348 0.951 . S
H365 C350 0.951 . S
H366 C352 0.951 . S
H367 C353 0.950 . S
H368 C354 0.950 . S
H369 C355 0.950 . S
H370 C357 0.950 . S
H371 C358 0.951 . S
C372 C373 1.386 . S
C372 C374 1.383 . S
C372 H388 0.951 . S
C373 C372 1.386 . S
C373 C377 1.383 1_545 S
C374 C372 1.383 . S
C374 C375 1.402 1_545 S
C374 H389 0.951 . S
C375 C374 1.402 1_565 S
C375 C376 1.375 . S
C375 C378 1.481 . S
C376 C375 1.375 . S
C376 C377 1.367 . S
C376 H390 0.951 . S
C377 C373 1.383 1_565 S
C377 C376 1.367 . S
C377 H391 0.950 . S
C378 C375 1.481 . S
C378 C379 1.297 1_565 S
C378 H392 0.950 . S
C379 C378 1.297 1_545 S
C379 C380 1.479 . S
C379 H393 0.950 . S
C380 C379 1.479 . S
C380 C381 1.375 . S
C380 C386 1.404 1_545 S
C381 C380 1.375 . S
C381 C382 1.369 . S
C381 H394 0.950 . S
C382 C381 1.369 . S
C382 C383 1.392 . S
C382 H395 0.951 . S
C383 C382 1.392 . S
C383 C385 1.384 1_545 S
H384 C386 0.949 . S
C385 C383 1.384 1_565 S
C385 C386 1.385 . S
C385 H387 0.950 . S
C386 C380 1.404 1_565 S
C386 H384 0.949 . S
C386 C385 1.385 . S
H387 C385 0.950 . S
H388 C372 0.951 . S
H389 C374 0.951 . S
H390 C376 0.951 . S
H391 C377 0.950 . S
H392 C378 0.950 . S
H393 C379 0.950 . S
H394 C381 0.950 . S
H395 C382 0.951 . S
C396 C397 1.386 . S
C396 C398 1.383 . S
C396 H412 0.951 . S
C397 C396 1.386 . S
C397 C401 1.383 1_554 S
C398 C396 1.383 . S
C398 C399 1.402 1_554 S
C398 H413 0.951 . S
C399 C398 1.402 1_556 S
C399 C400 1.375 . S
C399 C402 1.481 . S
C400 C399 1.375 . S
C400 C401 1.367 . S
C400 H414 0.951 . S
C401 C397 1.383 1_556 S
C401 C400 1.367 . S
C401 H415 0.950 . S
C402 C399 1.481 . S
C402 C403 1.297 . S
C402 H416 0.950 . S
C403 C402 1.297 . S
C403 C404 1.479 . S
C403 H417 0.950 . S
C404 C403 1.479 . S
C404 C405 1.375 . S
C404 C410 1.404 . S
C405 C404 1.375 . S
C405 C406 1.369 . S
C405 H418 0.950 . S
C406 C405 1.369 . S
C406 C407 1.392 . S
C406 H419 0.951 . S
C407 C406 1.392 . S
C407 C409 1.384 . S
H408 C410 0.949 . S
C409 C407 1.384 . S
C409 C410 1.385 . S
C409 H411 0.950 . S
C410 C404 1.404 . S
C410 H408 0.949 . S
C410 C409 1.385 . S
H411 C409 0.950 . S
H412 C396 0.951 . S
H413 C398 0.951 . S
H414 C400 0.951 . S
H415 C401 0.950 . S
H416 C402 0.950 . S
H417 C403 0.950 . S
H418 C405 0.950 . S
H419 C406 0.951 . S
C420 C421 1.386 . S
C420 C422 1.383 . S
C420 H436 0.951 . S
C421 C420 1.386 . S
C421 C425 1.383 1_455 S
C422 C420 1.383 . S
C422 C423 1.402 . S
C422 H437 0.951 . S
C423 C422 1.402 . S
C423 C424 1.375 1_455 S
C423 C426 1.481 1_455 S
C424 C423 1.375 1_655 S
C424 C425 1.367 . S
C424 H438 0.951 . S
C425 C421 1.383 1_655 S
C425 C424 1.367 . S
C425 H439 0.950 . S
C426 C423 1.481 1_655 S
C426 C427 1.297 1_655 S
C426 H440 0.950 . S
C427 C426 1.297 1_455 S
C427 C428 1.479 . S
C427 H441 0.950 . S
C428 C427 1.479 . S
C428 C429 1.375 . S
C428 C434 1.404 1_455 S
C429 C428 1.375 . S
C429 C430 1.369 . S
C429 H442 0.950 . S
C430 C429 1.369 . S
C430 C431 1.392 . S
C430 H443 0.951 . S
C431 C430 1.392 . S
C431 C433 1.384 1_455 S
H432 C434 0.949 . S
C433 C431 1.384 1_655 S
C433 C434 1.385 . S
C433 H435 0.950 . S
C434 C428 1.404 1_655 S
C434 H432 0.949 . S
C434 C433 1.385 . S
H435 C433 0.950 . S
H436 C420 0.951 . S
H437 C422 0.951 . S
H438 C424 0.951 . S
H439 C425 0.950 . S
H440 C426 0.950 . S
H441 C427 0.950 . S
H442 C429 0.950 . S
H443 C430 0.951 . S
C444 C445 1.386 . S
C444 C446 1.383 . S
C444 H460 0.951 . S
C445 C444 1.386 . S
C445 C449 1.383 1_545 S
C446 C444 1.383 . S
C446 C447 1.402 1_545 S
C446 H461 0.951 . S
C447 C446 1.402 1_565 S
C447 C448 1.375 . S
C447 C450 1.481 . S
C448 C447 1.375 . S
C448 C449 1.367 . S
C448 H462 0.951 . S
C449 C445 1.383 1_565 S
C449 C448 1.367 . S
C449 H463 0.950 . S
C450 C447 1.481 . S
C450 C451 1.297 1_565 S
C450 H464 0.950 . S
C451 C450 1.297 1_545 S
C451 C452 1.479 . S
C451 H465 0.950 . S
C452 C451 1.479 . S
C452 C453 1.375 . S
C452 C458 1.404 1_545 S
C453 C452 1.375 . S
C453 C454 1.369 . S
C453 H466 0.950 . S
C454 C453 1.369 . S
C454 C455 1.392 . S
C454 H467 0.951 . S
C455 C454 1.392 . S
C455 C457 1.384 1_545 S
H456 C458 0.949 . S
C457 C455 1.384 1_565 S
C457 C458 1.385 . S
C457 H459 0.950 . S
C458 C452 1.404 1_565 S
C458 H456 0.949 . S
C458 C457 1.385 . S
H459 C457 0.950 . S
H460 C444 0.951 . S
H461 C446 0.951 . S
H462 C448 0.951 . S
H463 C449 0.950 . S
H464 C450 0.950 . S
H465 C451 0.950 . S
H466 C453 0.950 . S
H467 C454 0.951 . S
C468 C469 1.386 . S
C468 C470 1.383 . S
C468 H484 0.951 . S
C469 C468 1.386 . S
C469 C473 1.383 1_554 S
C470 C468 1.383 . S
C470 C471 1.402 1_554 S
C470 H485 0.951 . S
C471 C470 1.402 1_556 S
C471 C472 1.375 . S
C471 C474 1.481 . S
C472 C471 1.375 . S
C472 C473 1.367 . S
C472 H486 0.951 . S
C473 C469 1.383 1_556 S
C473 C472 1.367 . S
C473 H487 0.950 . S
C474 C471 1.481 . S
C474 C475 1.297 . S
C474 H488 0.950 . S
C475 C474 1.297 . S
C475 C476 1.479 . S
C475 H489 0.950 . S
C476 C475 1.479 . S
C476 C477 1.375 . S
C476 C482 1.404 . S
C477 C476 1.375 . S
C477 C478 1.369 . S
C477 H490 0.950 . S
C478 C477 1.369 . S
C478 C479 1.392 . S
C478 H491 0.951 . S
C479 C478 1.392 . S
C479 C481 1.384 . S
H480 C482 0.949 . S
C481 C479 1.384 . S
C481 C482 1.385 . S
C481 H483 0.950 . S
C482 C476 1.404 . S
C482 H480 0.949 . S
C482 C481 1.385 . S
H483 C481 0.950 . S
H484 C468 0.951 . S
H485 C470 0.951 . S
H486 C472 0.951 . S
H487 C473 0.950 . S
H488 C474 0.950 . S
H489 C475 0.950 . S
H490 C477 0.950 . S
H491 C478 0.951 . S
C492 C493 1.386 . S
C492 C494 1.383 . S
C492 H508 0.951 1_455 S
C493 C492 1.386 . S
C493 C497 1.383 . S
C494 C492 1.383 . S
C494 C495 1.402 . S
C494 H509 0.951 1_455 S
C495 C494 1.402 . S
C495 C496 1.375 . S
C495 C498 1.481 . S
C496 C495 1.375 . S
C496 C497 1.367 . S
C496 H510 0.951 . S
C497 C493 1.383 . S
C497 C496 1.367 . S
C497 H511 0.950 . S
C498 C495 1.481 . S
C498 C499 1.297 . S
C498 H512 0.950 . S
C499 C498 1.297 . S
C499 C500 1.479 . S
C499 H513 0.950 . S
C500 C499 1.479 . S
C500 C501 1.375 1_455 S
C500 C506 1.404 . S
C501 C500 1.375 1_655 S
C501 C502 1.369 . S
C501 H514 0.950 . S
C502 C501 1.369 . S
C502 C503 1.392 1_655 S
C502 H515 0.951 . S
C503 C502 1.392 1_455 S
C503 C505 1.384 . S
H504 C506 0.949 . S
C505 C503 1.384 . S
C505 C506 1.385 . S
C505 H507 0.950 . S
C506 C500 1.404 . S
C506 H504 0.949 . S
C506 C505 1.385 . S
H507 C505 0.950 . S
H508 C492 0.951 1_655 S
H509 C494 0.951 1_655 S
H510 C496 0.951 . S
H511 C497 0.950 . S
H512 C498 0.950 . S
H513 C499 0.950 . S
H514 C501 0.950 . S
H515 C502 0.951 . S
C239 C95 1.369 1_655 S
C229 C3 1.388 . S
C253 C21 1.426 . S
C263 C139 1.415 . S
C277 C37 1.373 . S
C287 C201 1.377 . S
C301 C8 1.399 . S
C311 C77 1.393 . S
C335 C157 1.393 . S
C325 C23 1.412 . S
C349 C35 1.373 . S
C359 C219 1.405 . S
C383 C133 1.554 . S
C373 C31 1.694 . S
C397 C7 1.721 . S
C407 C195 1.598 . S
C431 C71 1.670 . S
C421 C17 1.725 . S
C455 C151 1.657 . S
C445 C36 1.710 . S
C479 C213 1.648 . S
C469 C9 1.728 . S
C493 C22 1.733 . S
C503 C89 1.669 . S
