# Generated by pormake.
# Topology nom, (4,4)-cn, num edge types: 1
# Building blocks:
#     Node 0, Type 0, BuildingBlock: MUDLON_clean_linker_0, # of connection points: 4
#     Node 1, Type 0, BuildingBlock: MUDLON_clean_linker_0, # of connection points: 4
#     Node 2, Type 0, BuildingBlock: MUDLON_clean_linker_0, # of connection points: 4
#     Node 3, Type 0, BuildingBlock: MUDLON_clean_linker_0, # of connection points: 4
#     Node 4, Type 0, BuildingBlock: MUDLON_clean_linker_0, # of connection points: 4
#     Node 5, Type 0, BuildingBlock: MUDLON_clean_linker_0, # of connection points: 4
#     Node 6, Type 1, BuildingBlock: KUFVIS_clean_sbu_0, # of connection points: 4
#     Node 7, Type 1, BuildingBlock: KUFVIS_clean_sbu_0, # of connection points: 4
#     Node 8, Type 1, BuildingBlock: KUFVIS_clean_sbu_0, # of connection points: 4
#     Node 9, Type 1, BuildingBlock: KUFVIS_clean_sbu_0, # of connection points: 4
#     Node 10, Type 1, BuildingBlock: KUFVIS_clean_sbu_0, # of connection points: 4
#     Node 11, Type 1, BuildingBlock: KUFVIS_clean_sbu_0, # of connection points: 4
#     Edge 12, Type (0, 1), BuildingBlock: EZIPEK_clean_linker_0, # of connection points: 2
#     Edge 13, Type (0, 1), BuildingBlock: EZIPEK_clean_linker_0, # of connection points: 2
#     Edge 14, Type (0, 1), BuildingBlock: EZIPEK_clean_linker_0, # of connection points: 2
#     Edge 15, Type (0, 1), BuildingBlock: EZIPEK_clean_linker_0, # of connection points: 2
#     Edge 16, Type (0, 1), BuildingBlock: EZIPEK_clean_linker_0, # of connection points: 2
#     Edge 17, Type (0, 1), BuildingBlock: EZIPEK_clean_linker_0, # of connection points: 2
#     Edge 18, Type (0, 1), BuildingBlock: EZIPEK_clean_linker_0, # of connection points: 2
#     Edge 19, Type (0, 1), BuildingBlock: EZIPEK_clean_linker_0, # of connection points: 2
#     Edge 20, Type (0, 1), BuildingBlock: EZIPEK_clean_linker_0, # of connection points: 2
#     Edge 21, Type (0, 1), BuildingBlock: EZIPEK_clean_linker_0, # of connection points: 2
#     Edge 22, Type (0, 1), BuildingBlock: EZIPEK_clean_linker_0, # of connection points: 2
#     Edge 23, Type (0, 1), BuildingBlock: EZIPEK_clean_linker_0, # of connection points: 2
#     Edge 24, Type (0, 1), BuildingBlock: EZIPEK_clean_linker_0, # of connection points: 2
#     Edge 25, Type (0, 1), BuildingBlock: EZIPEK_clean_linker_0, # of connection points: 2
#     Edge 26, Type (0, 1), BuildingBlock: EZIPEK_clean_linker_0, # of connection points: 2
#     Edge 27, Type (0, 1), BuildingBlock: EZIPEK_clean_linker_0, # of connection points: 2
#     Edge 28, Type (0, 1), BuildingBlock: EZIPEK_clean_linker_0, # of connection points: 2
#     Edge 29, Type (0, 1), BuildingBlock: EZIPEK_clean_linker_0, # of connection points: 2
#     Edge 30, Type (0, 1), BuildingBlock: EZIPEK_clean_linker_0, # of connection points: 2
#     Edge 31, Type (0, 1), BuildingBlock: EZIPEK_clean_linker_0, # of connection points: 2
#     Edge 32, Type (0, 1), BuildingBlock: EZIPEK_clean_linker_0, # of connection points: 2
#     Edge 33, Type (0, 1), BuildingBlock: EZIPEK_clean_linker_0, # of connection points: 2
#     Edge 34, Type (0, 1), BuildingBlock: EZIPEK_clean_linker_0, # of connection points: 2
#     Edge 35, Type (0, 1), BuildingBlock: EZIPEK_clean_linker_0, # of connection points: 2
# Relax obj value: 0.009
# Max RMSD: 0.108
# Mean RMSD: 0.063
data_MOF--net-nom--node1-KUFVIS_clean_sbu_0--node2-MUDLON_clean_linker_0--edge1-EZIPEK_clean_linker_0
_symmetry_space_group_name_H-M    P1
_symmetry_Int_Tables_number       1
_symmetry_cell_setting            triclinic
loop_
_symmetry_equiv_pos_as_xyz
'x, y, z'
_cell_length_a     47.81621
_cell_length_b     49.197824
_cell_length_c     48.52729
_cell_angle_alpha  91.078039
_cell_angle_beta   90.597983
_cell_angle_gamma 120.57733
loop_
_atom_site_label
_atom_site_type_symbol
_atom_site_fract_x
_atom_site_fract_y
_atom_site_fract_z
_atom_type_partial_charge
H0 H 0.1752 0.56189 0.31348 0.0
N1 N 0.12468 0.56517 0.33109 0.0
H2 H 0.22166 0.6018 0.28791 0.0
H3 H 0.12939 0.61781 0.30798 0.0
H4 H 0.17573 0.65761 0.2823 0.0
H5 H 0.14539 0.62131 0.35924 0.0
H6 H 0.16679 0.63382 0.40679 0.0
H7 H 0.12189 0.52496 0.36833 0.0
H8 H 0.14204 0.53724 0.41639 0.0
H9 H 0.08887 0.511 0.30359 0.0
H10 H 0.08477 0.58901 0.34087 0.0
H11 H 0.03084 0.48462 0.29188 0.0
H12 H 0.02641 0.56265 0.32942 0.0
H13 H 0.86137 0.48391 0.26045 0.0
H14 H 0.83951 0.47748 0.2134 0.0
H15 H 0.87706 0.41689 0.19221 0.0
H16 H 0.89686 0.42124 0.23995 0.0
H17 H 0.88365 0.49645 0.3119 0.0
H18 H 0.83753 0.48873 0.33946 0.0
H19 H 0.79001 0.38823 0.32374 0.0
H20 H 0.83626 0.39595 0.29617 0.0
H21 H 0.9227 0.42945 0.30639 0.0
H22 H 0.98072 0.45925 0.31842 0.0
H23 H 0.98641 0.5443 0.28917 0.0
N24 N 0.88755 0.4504 0.28252 0.0
H25 H 0.92799 0.5141 0.27739 0.0
C26 C 0.14885 0.58675 0.31257 0.0
C27 C 0.17486 0.58239 0.30619 0.0
C28 C 0.20127 0.60509 0.29169 0.0
C29 C 0.20205 0.63258 0.28331 0.0
C30 C 0.17542 0.63643 0.28855 0.0
C31 C 0.14898 0.6137 0.30315 0.0
C32 C 0.13268 0.57223 0.36006 0.0
C33 C 0.14434 0.60272 0.37153 0.0
C34 C 0.15643 0.60986 0.39869 0.0
C35 C 0.1563 0.5865 0.41494 0.0
C36 C 0.14247 0.55555 0.40414 0.0
C37 C 0.13101 0.54858 0.37682 0.0
C38 C 0.09103 0.55177 0.32308 0.0
C39 C 0.07537 0.52247 0.30906 0.0
C40 C 0.04222 0.50739 0.3026 0.0
C41 C 0.02393 0.52139 0.31001 0.0
C42 C 0.03987 0.55133 0.32335 0.0
C43 C 0.07317 0.56639 0.32994 0.0
C44 C 0.87984 0.45208 0.254 0.0
C45 C 0.865 0.46922 0.24582 0.0
C46 C 0.85272 0.46579 0.2189 0.0
C47 C 0.85608 0.44611 0.19961 0.0
C48 C 0.8736 0.4315 0.20702 0.0
C49 C 0.88504 0.43416 0.23412 0.0
C50 C 0.86342 0.44663 0.3021 0.0
C51 C 0.86377 0.4727 0.31491 0.0
C52 C 0.83744 0.46834 0.33054 0.0
C53 C 0.81049 0.43792 0.33357 0.0
C54 C 0.81069 0.41182 0.32171 0.0
C55 C 0.83699 0.4162 0.30611 0.0
C56 C 0.92118 0.46949 0.291 0.0
C57 C 0.93647 0.45457 0.30282 0.0
C58 C 0.96961 0.4716 0.30947 0.0
C59 C 0.98825 0.50408 0.30443 0.0
C60 C 0.97267 0.51934 0.29337 0.0
C61 C 0.93937 0.50215 0.2866 0.0
H62 H 0.4771 0.86039 0.4679 0.0
N63 N 0.46983 0.90723 0.45049 0.0
H64 H 0.43795 0.81407 0.49337 0.0
H65 H 0.41434 0.89924 0.47424 0.0
H66 H 0.37529 0.85302 0.4998 0.0
H67 H 0.4115 0.88463 0.42293 0.0
H68 H 0.39912 0.86408 0.37523 0.0
H69 H 0.51167 0.91112 0.41287 0.0
H70 H 0.49943 0.89157 0.36471 0.0
H71 H 0.52545 0.94536 0.47685 0.0
H72 H 0.44111 0.94242 0.44107 0.0
H73 H 0.54978 1.00189 0.48715 0.0
H74 H 0.46541 0.99923 0.45105 0.0
H75 H 0.54062 0.15905 0.52079 0.0
H76 H 0.54731 0.17835 0.56874 0.0
H77 H 0.61704 0.14927 0.58387 0.0
H78 H 0.61191 0.13165 0.53544 0.0
H79 H 0.52908 0.14239 0.46883 0.0
H80 H 0.53598 0.18855 0.44412 0.0
H81 H 0.63978 0.23432 0.45657 0.0
H82 H 0.63286 0.18818 0.48119 0.0
H83 H 0.60091 0.10591 0.4704 0.0
H84 H 0.5725 0.04927 0.45921 0.0
H85 H 0.48357 0.03983 0.48994 0.0
N86 N 0.57747 0.13807 0.4954 0.0
H87 H 0.51238 0.09689 0.50079 0.0
C88 C 0.44878 0.88328 0.46922 0.0
C89 C 0.45529 0.85927 0.47539 0.0
C90 C 0.43301 0.83292 0.48983 0.0
C91 C 0.40379 0.83018 0.49837 0.0
C92 C 0.39782 0.85485 0.49342 0.0
C93 C 0.42013 0.88122 0.47888 0.0
C94 C 0.46252 0.89888 0.42161 0.0
C95 C 0.43093 0.88645 0.41042 0.0
C96 C 0.42386 0.87484 0.38318 0.0
C97 C 0.44834 0.8761 0.3666 0.0
C98 C 0.48026 0.89034 0.37721 0.0
C99 C 0.48721 0.90143 0.40459 0.0
C100 C 0.48166 0.93976 0.45823 0.0
C101 C 0.51212 0.95696 0.47145 0.0
C102 C 0.52604 0.98926 0.47707 0.0
C103 C 0.50971 0.00515 0.46956 0.0
C104 C 0.47855 0.98765 0.45714 0.0
C105 C 0.46465 0.9552 0.45141 0.0
C106 C 0.57659 0.14473 0.52434 0.0
C107 C 0.55729 0.15667 0.53435 0.0
C108 C 0.56089 0.16748 0.56176 0.0
C109 C 0.58304 0.1656 0.57967 0.0
C110 C 0.60016 0.1512 0.57028 0.0
C111 C 0.5972 0.14115 0.54274 0.0
C112 C 0.58059 0.16192 0.4768 0.0
C113 C 0.55334 0.16194 0.46559 0.0
C114 C 0.55726 0.18825 0.45156 0.0
C115 C 0.58839 0.21479 0.44863 0.0
C116 C 0.61561 0.21402 0.45854 0.0
C117 C 0.61169 0.18778 0.4725 0.0
C118 C 0.55882 0.10548 0.48638 0.0
C119 C 0.57519 0.09164 0.47432 0.0
C120 C 0.55897 0.05928 0.46822 0.0
C121 C 0.52588 0.03996 0.47409 0.0
C122 C 0.50904 0.05409 0.48514 0.0
C123 C 0.52542 0.08664 0.49133 0.0
H124 H 0.47851 0.63763 0.64004 0.0
N125 N 0.46346 0.59306 0.67663 0.0
H126 H 0.44059 0.64684 0.61275 0.0
H127 H 0.39782 0.55303 0.67155 0.0
H128 H 0.35993 0.56197 0.64404 0.0
H129 H 0.47315 0.64416 0.70453 0.0
H130 H 0.45519 0.64709 0.75117 0.0
H131 H 0.43593 0.54441 0.71351 0.0
H132 H 0.41958 0.54785 0.76027 0.0
H133 H 0.52543 0.61252 0.66841 0.0
H134 H 0.43034 0.52903 0.66583 0.0
H135 H 0.5495 0.58094 0.65539 0.0
H136 H 0.45415 0.49664 0.65513 0.0
H137 H 0.62067 0.50119 0.59861 0.0
H138 H 0.633 0.49212 0.55139 0.0
H139 H 0.53558 0.41263 0.54101 0.0
H140 H 0.52314 0.42211 0.58767 0.0
H141 H 0.52579 0.40162 0.62879 0.0
H142 H 0.53813 0.36559 0.65297 0.0
H143 H 0.62344 0.44532 0.69035 0.0
H144 H 0.61268 0.48128 0.66394 0.0
H145 H 0.59032 0.51706 0.6577 0.0
H146 H 0.56418 0.54657 0.67114 0.0
H147 H 0.47819 0.48009 0.62366 0.0
N148 N 0.56606 0.46528 0.62554 0.0
H149 H 0.50375 0.44934 0.61261 0.0
C150 C 0.44105 0.59461 0.65755 0.0
C151 C 0.45271 0.62064 0.64044 0.0
C152 C 0.43115 0.62593 0.62504 0.0
C153 C 0.39754 0.60508 0.62646 0.0
C154 C 0.38582 0.57821 0.64264 0.0
C155 C 0.40742 0.573 0.65814 0.0
C156 C 0.45625 0.59427 0.70533 0.0
C157 C 0.46183 0.62311 0.7167 0.0
C158 C 0.45155 0.62478 0.74318 0.0
C159 C 0.43607 0.59767 0.75903 0.0
C160 C 0.43157 0.569 0.74827 0.0
C161 C 0.44108 0.56715 0.72148 0.0
C162 C 0.47629 0.57323 0.66853 0.0
C163 C 0.50982 0.58723 0.66535 0.0
C164 C 0.52353 0.56894 0.65822 0.0
C165 C 0.50401 0.53588 0.65463 0.0
C166 C 0.47014 0.52194 0.65741 0.0
C167 C 0.45639 0.54046 0.66387 0.0
C168 C 0.57114 0.46233 0.59672 0.0
C169 C 0.60181 0.48234 0.58585 0.0
C170 C 0.60878 0.47719 0.55899 0.0
C171 C 0.5852 0.45165 0.54275 0.0
C172 C 0.55407 0.43245 0.55321 0.0
C173 C 0.54702 0.43786 0.57991 0.0
C174 C 0.56881 0.44417 0.64403 0.0
C175 C 0.54717 0.41141 0.64208 0.0
C176 C 0.55409 0.39084 0.65608 0.0
C177 C 0.58205 0.40272 0.67312 0.0
C178 C 0.60198 0.43559 0.67705 0.0
C179 C 0.59574 0.4561 0.66218 0.0
C180 C 0.54921 0.48122 0.63397 0.0
C181 C 0.56566 0.50869 0.65057 0.0
C182 C 0.55072 0.52581 0.65786 0.0
C183 C 0.51908 0.5163 0.64811 0.0
C184 C 0.50239 0.48823 0.63185 0.0
C185 C 0.51716 0.47067 0.62516 0.0
H186 H 0.1569 0.63642 0.81916 0.0
N187 N 0.12425 0.59234 0.78023 0.0
H188 H 0.20388 0.64399 0.84681 0.0
H189 H 0.1461 0.55082 0.78299 0.0
H190 H 0.19287 0.5582 0.81078 0.0
H191 H 0.16747 0.64385 0.75507 0.0
H192 H 0.18909 0.64734 0.70876 0.0
H193 H 0.10151 0.54398 0.74102 0.0
H194 H 0.12211 0.54785 0.69439 0.0
H195 H 0.08457 0.61406 0.78948 0.0
H196 H 0.08833 0.52845 0.78825 0.0
H197 H 0.02815 0.58472 0.80369 0.0
H198 H 0.0313 0.49837 0.80095 0.0
H199 H 0.88856 0.51059 0.88027 0.0
H200 H 0.86841 0.49363 0.92694 0.0
H201 H 0.86137 0.40402 0.90988 0.0
H202 H 0.88165 0.42101 0.86334 0.0
H203 H 0.83595 0.47255 0.8305 0.0
H204 H 0.78827 0.4311 0.80469 0.0
H205 H 0.84266 0.38641 0.78205 0.0
H206 H 0.89002 0.42728 0.80869 0.0
H207 H 0.91978 0.52272 0.80527 0.0
H208 H 0.97529 0.54928 0.78873 0.0
H209 H 0.99488 0.48747 0.8369 0.0
N210 N 0.89222 0.47547 0.83977 0.0
H211 H 0.93877 0.45991 0.85187 0.0
C212 C 0.14795 0.59305 0.79926 0.0
C213 C 0.16416 0.61888 0.81777 0.0
C214 C 0.19092 0.62324 0.83339 0.0
C215 C 0.20177 0.60167 0.83074 0.0
C216 C 0.18471 0.57499 0.81312 0.0
C217 C 0.15795 0.57069 0.79744 0.0
C218 C 0.13268 0.59386 0.75158 0.0
C219 C 0.15712 0.62288 0.74179 0.0
C220 C 0.16951 0.62485 0.7155 0.0
C221 C 0.15721 0.59784 0.69825 0.0
C222 C 0.13183 0.56894 0.70746 0.0
C223 C 0.11997 0.56681 0.73409 0.0
C224 C 0.09058 0.57355 0.78752 0.0
C225 C 0.07296 0.58877 0.79189 0.0
C226 C 0.04056 0.57182 0.79982 0.0
C227 C 0.02475 0.53893 0.80328 0.0
C228 C 0.04258 0.52364 0.79882 0.0
C229 C 0.07522 0.5408 0.79124 0.0
C230 C 0.88664 0.4672 0.86838 0.0
C231 C 0.88359 0.48768 0.8869 0.0
C232 C 0.87203 0.47798 0.91338 0.0
C233 C 0.86332 0.44757 0.92169 0.0
C234 C 0.86806 0.4276 0.90378 0.0
C235 C 0.87969 0.43734 0.8773 0.0
C236 C 0.86657 0.45324 0.82127 0.0
C237 C 0.83773 0.4541 0.81957 0.0
C238 C 0.81061 0.4305 0.805 0.0
C239 C 0.81205 0.40583 0.79149 0.0
C240 C 0.84123 0.40542 0.79226 0.0
C241 C 0.86824 0.42878 0.80733 0.0
C242 C 0.92511 0.48973 0.83014 0.0
C243 C 0.93607 0.51485 0.81209 0.0
C244 C 0.96798 0.53018 0.80287 0.0
C245 C 0.99003 0.52101 0.81178 0.0
C246 C 0.97872 0.49518 0.82939 0.0
C247 C 0.94654 0.47951 0.83828 0.0
H248 H 0.54065 0.18411 0.95539 0.0
N249 N 0.54614 0.13423 0.9433 0.0
H250 H 0.58042 0.23283 0.98048 0.0
H251 H 0.59976 0.14302 0.97257 0.0
H252 H 0.63922 0.19148 0.99772 0.0
H253 H 0.60287 0.14386 0.92114 0.0
H254 H 0.6222 0.16315 0.87509 0.0
H255 H 0.51252 0.13983 0.90207 0.0
H256 H 0.53219 0.15961 0.85581 0.0
H257 H 0.488 0.09993 0.96475 0.0
H258 H 0.57325 0.09637 0.94312 0.0
H259 H 0.46214 0.04556 0.98019 0.0
H260 H 0.54817 0.0425 0.9593 0.0
H261 H 0.38149 0.86902 0.03103 0.0
H262 H 0.38135 0.84814 0.07659 0.0
H263 H 0.48527 0.90958 0.08373 0.0
H264 H 0.4856 0.92935 0.03741 0.0
H265 H 0.48124 0.89562 0.99368 0.0
H266 H 0.47488 0.84795 0.97032 0.0
H267 H 0.37532 0.81826 0.94932 0.0
H268 H 0.38208 0.86639 0.97198 0.0
H269 H 0.43346 0.95775 0.02757 0.0
H270 H 0.4632 0.01307 0.01515 0.0
H271 H 0.50588 0.98981 0.94743 0.0
N272 N 0.43278 0.90861 0.00238 0.0
H273 H 0.47726 0.93508 0.96022 0.0
C274 C 0.56697 0.15981 0.96222 0.0
C275 C 0.56172 0.1853 0.96517 0.0
C276 C 0.5844 0.21305 0.97931 0.0
C277 C 0.61271 0.21568 0.99083 0.0
C278 C 0.61744 0.18978 0.98896 0.0
C279 C 0.5948 0.16206 0.9747 0.0
C280 C 0.55593 0.14 0.915 0.0
C281 C 0.58674 0.14612 0.90685 0.0
C282 C 0.59792 0.15738 0.88061 0.0
C283 C 0.57862 0.16283 0.86219 0.0
C284 C 0.54734 0.15542 0.86978 0.0
C285 C 0.53611 0.14404 0.89601 0.0
C286 C 0.53247 0.10236 0.95277 0.0
C287 C 0.50124 0.08747 0.96358 0.0
C288 C 0.48662 0.05645 0.97259 0.0
C289 C 0.50306 0.0395 0.97115 0.0
C290 C 0.53459 0.0546 0.96045 0.0
C291 C 0.54913 0.08565 0.95131 0.0
C292 C 0.43339 0.90093 0.03092 0.0
C293 C 0.40417 0.87832 0.04258 0.0
C294 C 0.40411 0.86632 0.06843 0.0
C295 C 0.43329 0.87723 0.08341 0.0
C296 C 0.46252 0.90088 0.07241 0.0
C297 C 0.46267 0.91229 0.04613 0.0
C298 C 0.43213 0.88466 0.98425 0.0
C299 C 0.45841 0.87936 0.98328 0.0
C300 C 0.45473 0.85216 0.97009 0.0
C301 C 0.42455 0.82951 0.9583 0.0
C302 C 0.3988 0.83548 0.95824 0.0
C303 C 0.40267 0.86292 0.971 0.0
C304 C 0.45328 0.94169 0.99558 0.0
C305 C 0.44976 0.96459 0.01039 0.0
C306 C 0.46653 0.99628 0.00302 0.0
C307 C 0.48698 0.00607 0.98019 0.0
C308 C 0.49084 0.98335 0.96543 0.0
C309 C 0.4742 0.95163 0.9729 0.0
H310 H 0.54147 0.39333 0.15652 0.0
N311 N 0.54969 0.44773 0.17567 0.0
H312 H 0.57409 0.38477 0.124 0.0
H313 H 0.60298 0.49366 0.14998 0.0
H314 H 0.63623 0.48607 0.11795 0.0
H315 H 0.60821 0.49168 0.1994 0.0
H316 H 0.62772 0.49044 0.24598 0.0
H317 H 0.517 0.40725 0.21485 0.0
H318 H 0.53673 0.4059 0.26162 0.0
H319 H 0.49119 0.42571 0.15308 0.0
H320 H 0.5756 0.51185 0.18264 0.0
H321 H 0.46454 0.45518 0.14088 0.0
H322 H 0.54886 0.54148 0.17129 0.0
H323 H 0.38648 0.52752 0.08966 0.0
H324 H 0.37752 0.53997 0.04284 0.0
H325 H 0.47213 0.62432 0.04624 0.0
H326 H 0.48102 0.61201 0.09299 0.0
H327 H 0.48484 0.62222 0.14169 0.0
H328 H 0.4775 0.66342 0.16397 0.0
H329 H 0.37449 0.59782 0.16778 0.0
H330 H 0.38177 0.55683 0.145 0.0
H331 H 0.4118 0.50914 0.1483 0.0
H332 H 0.44034 0.48199 0.16227 0.0
H333 H 0.53017 0.55972 0.13315 0.0
N334 N 0.43589 0.56393 0.12382 0.0
H335 H 0.50145 0.58704 0.12011 0.0
C336 C 0.56868 0.44398 0.1547 0.0
C337 C 0.56132 0.41355 0.14693 0.0
C338 C 0.57988 0.40883 0.12748 0.0
C339 C 0.60581 0.43445 0.11402 0.0
C340 C 0.61445 0.46514 0.12394 0.0
C341 C 0.59575 0.46981 0.14337 0.0
C342 C 0.56095 0.44953 0.20368 0.0
C343 C 0.59217 0.47317 0.21287 0.0
C344 C 0.60337 0.47244 0.23943 0.0
C345 C 0.58363 0.44807 0.25712 0.0
C346 C 0.55222 0.4249 0.24823 0.0
C347 C 0.541 0.4257 0.2217 0.0
C348 C 0.53516 0.46635 0.16896 0.0
C349 C 0.50385 0.45099 0.1571 0.0
C350 C 0.48862 0.46789 0.15033 0.0
C351 C 0.50437 0.50075 0.15535 0.0
C352 C 0.53606 0.51627 0.16696 0.0
C353 C 0.55134 0.49926 0.17366 0.0
C354 C 0.43435 0.56863 0.09479 0.0
C355 C 0.40566 0.54814 0.07994 0.0
C356 C 0.40057 0.55523 0.05329 0.0
C357 C 0.42419 0.58302 0.04108 0.0
C358 C 0.4537 0.6027 0.0553 0.0
C359 C 0.45879 0.59558 0.08198 0.0
C360 C 0.43372 0.58644 0.14169 0.0
C361 C 0.4608 0.6165 0.14776 0.0
C362 C 0.45662 0.63999 0.1604 0.0
C363 C 0.42543 0.63358 0.16729 0.0
C364 C 0.3987 0.60312 0.16259 0.0
C365 C 0.40286 0.57978 0.14981 0.0
C366 C 0.45431 0.54989 0.13302 0.0
C367 C 0.4377 0.52036 0.14517 0.0
C368 C 0.45405 0.5048 0.15291 0.0
C369 C 0.48755 0.51843 0.14853 0.0
C370 C 0.50442 0.54857 0.13699 0.0
C371 C 0.48796 0.5642 0.12934 0.0
Mn372 Mn 0.62742 0.38842 0.40408 0.0
Mn373 Mn 0.67501 0.46672 0.41606 0.0
C374 C 0.61385 0.4128 0.43827 0.0
C375 C 0.61599 0.33731 0.41261 0.0
C376 C 0.63077 0.43793 0.36512 0.0
O377 O 0.66969 0.39969 0.38504 0.0
O378 O 0.70185 0.45056 0.39958 0.0
C379 C 0.71889 0.46694 0.45959 0.0
N380 N 0.6967 0.47476 0.45114 0.0
C381 C 0.70028 0.50026 0.4949 0.0
C382 C 0.72323 0.49254 0.50407 0.0
C383 C 0.73252 0.47575 0.48635 0.0
C384 C 0.68754 0.49084 0.46803 0.0
H385 H 0.72602 0.45396 0.44604 0.0
C386 C 0.69712 0.42536 0.38702 0.0
O387 O 0.60596 0.34364 0.38997 0.0
O388 O 0.63326 0.36064 0.42977 0.0
N389 N 0.65181 0.485 0.43239 0.0
C390 C 0.62718 0.48793 0.42144 0.0
C391 C 0.61514 0.50433 0.43645 0.0
C392 C 0.62802 0.51688 0.46288 0.0
C393 C 0.65253 0.51255 0.47417 0.0
C394 C 0.66405 0.49661 0.45797 0.0
H395 H 0.61602 0.47689 0.40186 0.0
O396 O 0.59206 0.38551 0.42786 0.0
O397 O 0.64263 0.42478 0.42802 0.0
O398 O 0.61597 0.40948 0.3733 0.0
O399 O 0.65371 0.46078 0.37921 0.0
C400 C 0.66554 0.52289 0.50105 0.0
C401 C 0.68927 0.5166 0.51147 0.0
H402 H 0.73371 0.49921 0.52473 0.0
H403 H 0.75011 0.46959 0.49331 0.0
H404 H 0.59551 0.5067 0.42792 0.0
H405 H 0.61828 0.52903 0.4746 0.0
H406 H 0.65707 0.53526 0.51405 0.0
H407 H 0.69869 0.52421 0.53234 0.0
Mn408 Mn 0.26784 0.65832 0.55239 0.0
Mn409 Mn 0.23339 0.57908 0.54594 0.0
C410 C 0.2265 0.63017 0.51974 0.0
C411 C 0.30828 0.70878 0.54028 0.0
C412 C 0.22075 0.61196 0.59372 0.0
O413 O 0.30042 0.64994 0.57207 0.0
O414 O 0.27826 0.59768 0.5624 0.0
C415 C 0.27522 0.57405 0.50397 0.0
N416 N 0.24543 0.56804 0.51187 0.0
C417 C 0.22071 0.53929 0.46933 0.0
C418 C 0.25128 0.54571 0.46057 0.0
C419 C 0.27865 0.56315 0.478 0.0
C420 C 0.21888 0.55109 0.49532 0.0
H421 H 0.29608 0.58676 0.5175 0.0
C422 C 0.30086 0.62422 0.57275 0.0
O423 O 0.29314 0.70417 0.56334 0.0
O424 O 0.30057 0.68416 0.52473 0.0
N425 N 0.19035 0.55877 0.53014 0.0
C426 C 0.16252 0.55427 0.54175 0.0
C427 C 0.13285 0.53696 0.52708 0.0
C428 C 0.13201 0.5241 0.50079 0.0
C429 C 0.16084 0.52848 0.48951 0.0
C430 C 0.1897 0.546 0.50507 0.0
H431 H 0.16292 0.56393 0.562 0.0
O432 O 0.23319 0.65798 0.52847 0.0
O433 O 0.24391 0.61966 0.53082 0.0
O434 O 0.23702 0.64 0.58484 0.0
O435 O 0.21857 0.58784 0.58119 0.0
C436 C 0.16204 0.51601 0.46349 0.0
C437 C 0.19198 0.52159 0.45331 0.0
H438 H 0.25398 0.53722 0.4406 0.0
H439 H 0.3023 0.56798 0.47152 0.0
H440 H 0.11068 0.53356 0.536 0.0
H441 H 0.10909 0.51082 0.48951 0.0
H442 H 0.14005 0.50203 0.45116 0.0
H443 H 0.19262 0.5121 0.43316 0.0
Mn444 Mn 0.62659 0.2711 0.71966 0.0
Mn445 Mn 0.67333 0.23898 0.70894 0.0
C446 C 0.612 0.23281 0.68519 0.0
C447 C 0.61531 0.31125 0.71128 0.0
C448 C 0.62951 0.22418 0.75834 0.0
O449 O 0.66948 0.30184 0.73948 0.0
O450 O 0.7006 0.28147 0.72675 0.0
C451 C 0.7178 0.28237 0.6675 0.0
N452 N 0.69533 0.2526 0.67487 0.0
C453 C 0.70084 0.23056 0.63202 0.0
C454 C 0.72405 0.26098 0.62396 0.0
C455 C 0.73243 0.28702 0.64173 0.0
C456 C 0.68685 0.22744 0.65783 0.0
H457 H 0.72457 0.30238 0.68122 0.0
C458 C 0.69659 0.30267 0.73863 0.0
O459 O 0.60619 0.29531 0.73374 0.0
O460 O 0.6316 0.30436 0.6942 0.0
N461 N 0.64992 0.19796 0.69135 0.0
C462 C 0.62473 0.17073 0.70089 0.0
C463 C 0.61276 0.14251 0.68526 0.0
C464 C 0.62664 0.14265 0.65986 0.0
C465 C 0.65203 0.17112 0.65014 0.0
C466 C 0.66294 0.19846 0.66664 0.0
H467 H 0.61315 0.17075 0.71979 0.0
O468 O 0.59054 0.23881 0.69515 0.0
O469 O 0.64112 0.24939 0.69596 0.0
O470 O 0.61556 0.23899 0.75013 0.0
O471 O 0.6519 0.22345 0.74479 0.0
C472 C 0.66673 0.1735 0.6246 0.0
C473 C 0.69089 0.20323 0.61541 0.0
H474 H 0.73545 0.26464 0.60413 0.0
H475 H 0.75027 0.31059 0.63564 0.0
H476 H 0.59264 0.12079 0.69262 0.0
H477 H 0.6172 0.12089 0.64777 0.0
H478 H 0.65941 0.15263 0.61173 0.0
H479 H 0.7015 0.20484 0.59546 0.0
Mn480 Mn 0.38703 0.65543 0.90735 0.0
Mn481 Mn 0.33974 0.57618 0.91083 0.0
C482 C 0.39946 0.62861 0.93957 0.0
C483 C 0.39758 0.70573 0.92025 0.0
C484 C 0.38662 0.60914 0.86458 0.0
O485 O 0.34567 0.64556 0.88641 0.0
O486 O 0.31333 0.59373 0.89533 0.0
C487 C 0.29248 0.57009 0.95282 0.0
N488 N 0.31654 0.56494 0.94455 0.0
C489 C 0.31256 0.53697 0.98588 0.0
C490 C 0.28824 0.54263 0.99507 0.0
C491 C 0.2781 0.55921 0.97842 0.0
C492 C 0.32623 0.5487 0.9603 0.0
H493 H 0.28416 0.58212 0.93985 0.0
C494 C 0.31832 0.61979 0.88523 0.0
O495 O 0.40878 0.70081 0.89761 0.0
O496 O 0.37986 0.68141 0.9351 0.0
N497 N 0.36263 0.55693 0.92555 0.0
C498 C 0.38605 0.55303 0.91355 0.0
C499 C 0.39821 0.53615 0.92722 0.0
C500 C 0.38595 0.52317 0.95292 0.0
C501 C 0.36159 0.52717 0.9647 0.0
C502 C 0.35037 0.54417 0.9501 0.0
H503 H 0.39545 0.56271 0.89371 0.0
O504 O 0.42141 0.65666 0.93224 0.0
O505 O 0.37112 0.61726 0.92756 0.0
O506 O 0.39992 0.63713 0.87494 0.0
O507 O 0.36335 0.58508 0.8758 0.0
C508 C 0.34799 0.51491 0.99035 0.0
C509 C 0.32365 0.52 1.00103 0.0
H510 H 0.27699 0.53413 0.01475 0.0
H511 H 0.25908 0.56338 0.9852 0.0
H512 H 0.41701 0.53316 0.91797 0.0
H513 H 0.39547 0.51026 0.96345 0.0
H514 H 0.35617 0.50163 0.00207 0.0
H515 H 0.31353 0.51062 0.02087 0.0
Mn516 Mn 0.74281 0.39949 0.06212 0.0
Mn517 Mn 0.78091 0.35808 0.07152 0.0
C518 C 0.78266 0.41518 0.09645 0.0
C519 C 0.70009 0.40831 0.07038 0.0
C520 C 0.79594 0.40342 0.02465 0.0
O521 O 0.71292 0.35768 0.04161 0.0
O522 O 0.73918 0.33152 0.05089 0.0
C523 C 0.73284 0.31074 0.10875 0.0
N524 N 0.76397 0.33372 0.10382 0.0
C525 C 0.78234 0.32693 0.14809 0.0
C526 C 0.75052 0.30312 0.15358 0.0
C527 C 0.72563 0.29513 0.13388 0.0
C528 C 0.78794 0.34207 0.12288 0.0
H529 H 0.71362 0.30435 0.09364 0.0
C530 C 0.71545 0.33306 0.04027 0.0
O531 O 0.71709 0.41813 0.04828 0.0
O532 O 0.70724 0.39261 0.08744 0.0
N533 N 0.82135 0.37996 0.09184 0.0
C534 C 0.85102 0.40232 0.08293 0.0
C535 C 0.8785 0.41329 0.10038 0.0
C536 C 0.87544 0.40014 0.12638 0.0
C537 C 0.84498 0.37588 0.13454 0.0
C538 C 0.81838 0.36637 0.11646 0.0
H539 H 0.85379 0.41123 0.06249 0.0
O540 O 0.77478 0.43497 0.08702 0.0
O541 O 0.76688 0.38682 0.0855 0.0
O542 O 0.77607 0.41225 0.0316 0.0
O543 O 0.80001 0.38336 0.03794 0.0
C544 C 0.84007 0.36033 0.15967 0.0
C545 C 0.80872 0.33613 0.16658 0.0
H546 H 0.74493 0.29085 0.17286 0.0
H547 H 0.70098 0.27684 0.13798 0.0
H548 H 0.90206 0.43145 0.09359 0.0
H549 H 0.89673 0.40843 0.13969 0.0
H550 H 0.86026 0.36661 0.17379 0.0
H551 H 0.80521 0.32463 0.18611 0.0
Mn552 Mn 0.37607 0.769 0.22818 0.0
Mn553 Mn 0.45767 0.80358 0.23387 0.0
C554 C 0.40471 0.80949 0.26081 0.0
C555 C 0.3246 0.72907 0.24061 0.0
C556 C 0.42288 0.81457 0.18634 0.0
O557 O 0.38527 0.7375 0.20855 0.0
O558 O 0.43901 0.75956 0.21837 0.0
C559 C 0.46443 0.76459 0.27625 0.0
N560 N 0.46982 0.79313 0.26801 0.0
C561 C 0.49939 0.81853 0.31019 0.0
C562 C 0.49362 0.78929 0.3193 0.0
C563 C 0.47608 0.7622 0.30223 0.0
C564 C 0.48689 0.81939 0.28419 0.0
H565 H 0.45162 0.74391 0.26301 0.0
C566 C 0.41176 0.7371 0.20845 0.0
O567 O 0.32888 0.7436 0.21759 0.0
O568 O 0.3501 0.73722 0.25599 0.0
N569 N 0.47791 0.84576 0.24904 0.0
C570 C 0.48164 0.87226 0.23716 0.0
C571 C 0.49885 0.90144 0.25151 0.0
C572 C 0.51237 0.90316 0.27776 0.0
C573 C 0.50875 0.8757 0.28934 0.0
C574 C 0.49133 0.84727 0.27409 0.0
H575 H 0.47147 0.87119 0.21694 0.0
O576 O 0.37593 0.80254 0.25231 0.0
O577 O 0.41587 0.79292 0.2494 0.0
O578 O 0.39421 0.7988 0.19569 0.0
O579 O 0.4479 0.81682 0.19841 0.0
C580 C 0.52184 0.87545 0.3154 0.0
C581 C 0.51701 0.84686 0.32589 0.0
H582 H 0.50266 0.78738 0.33929 0.0
H583 H 0.47175 0.73957 0.309 0.0
H584 H 0.50165 0.92256 0.24236 0.0
H585 H 0.52554 0.9257 0.2888 0.0
H586 H 0.53568 0.89713 0.32753 0.0
H587 H 0.52697 0.84694 0.34606 0.0
C588 C 0.24032 0.65522 0.24385 0.0
C589 C 0.23209 0.65842 0.27125 0.0
C590 C 0.28154 0.71043 0.27606 0.0
C591 C 0.29182 0.70544 0.25008 0.0
N592 N 0.28302 0.67132 0.21052 0.0
N593 N 0.24712 0.68681 0.31511 0.0
C594 C 0.27165 0.67746 0.23415 0.0
C595 C 0.25327 0.68547 0.28781 0.0
N596 N 0.21799 0.63117 0.22701 0.0
N597 N 0.29818 0.73944 0.28911 0.0
H598 H 0.22669 0.66906 0.32466 0.0
H599 H 0.26367 0.70423 0.32889 0.0
H600 H 0.31854 0.75865 0.28086 0.0
H601 H 0.28991 0.74539 0.30668 0.0
H602 H 0.22124 0.62939 0.20601 0.0
H603 H 0.19492 0.61444 0.23355 0.0
H604 H 0.27089 0.64978 0.19967 0.0
H605 H 0.30594 0.68679 0.20291 0.0
C606 C 0.58545 0.264 0.45509 0.0
C607 C 0.59258 0.24474 0.43791 0.0
C608 C 0.61495 0.2861 0.40342 0.0
C609 C 0.60612 0.30453 0.41999 0.0
N610 N 0.57576 0.30767 0.45811 0.0
N611 N 0.6085 0.23455 0.39378 0.0
C612 C 0.58921 0.29246 0.4448 0.0
C613 C 0.60556 0.2549 0.4114 0.0
N614 N 0.5764 0.25582 0.48171 0.0
N615 N 0.63369 0.29893 0.38088 0.0
H616 H 0.602 0.21165 0.39912 0.0
H617 H 0.6147 0.23932 0.37321 0.0
H618 H 0.6412 0.32172 0.37451 0.0
H619 H 0.64393 0.288 0.36975 0.0
H620 H 0.57469 0.27083 0.49614 0.0
H621 H 0.57324 0.23515 0.49019 0.0
H622 H 0.5603 0.29824 0.47467 0.0
H623 H 0.57724 0.32818 0.45088 0.0
C624 C 0.37069 0.60994 0.58344 0.0
C625 C 0.37456 0.61267 0.61256 0.0
C626 C 0.33286 0.62765 0.61564 0.0
C627 C 0.32901 0.6247 0.58649 0.0
N628 N 0.35236 0.62491 0.54285 0.0
N629 N 0.36539 0.63143 0.65588 0.0
C630 C 0.35035 0.61933 0.57041 0.0
C631 C 0.35742 0.62373 0.62855 0.0
N632 N 0.38561 0.59746 0.56827 0.0
N633 N 0.31266 0.63359 0.63099 0.0
H634 H 0.38335 0.62904 0.666 0.0
H635 H 0.35625 0.64264 0.66806 0.0
H636 H 0.2961 0.63894 0.62224 0.0
H637 H 0.31122 0.63184 0.65233 0.0
H638 H 0.38087 0.59185 0.54729 0.0
H639 H 0.40071 0.59026 0.57708 0.0
H640 H 0.36943 0.62401 0.53031 0.0
H641 H 0.33941 0.63412 0.53331 0.0
C642 C 0.76443 0.35036 0.79152 0.0
C643 C 0.7823 0.37946 0.77787 0.0
C644 C 0.74361 0.35826 0.73852 0.0
C645 C 0.72537 0.32952 0.7525 0.0
N646 N 0.71583 0.29831 0.79274 0.0
N647 N 0.78821 0.41273 0.73988 0.0
C648 C 0.73513 0.32557 0.77912 0.0
C649 C 0.77163 0.38388 0.75178 0.0
N650 N 0.77574 0.34642 0.81627 0.0
N651 N 0.73465 0.36056 0.71219 0.0
H652 H 0.80989 0.4314 0.74813 0.0
H653 H 0.77994 0.41891 0.72255 0.0
H654 H 0.71372 0.34265 0.70223 0.0
H655 H 0.74857 0.37935 0.69948 0.0
H656 H 0.76631 0.32492 0.82595 0.0
H657 H 0.79581 0.3646 0.82693 0.0
H658 H 0.71922 0.29488 0.8133 0.0
H659 H 0.69494 0.27924 0.78384 0.0
C660 C 0.4199 0.77713 0.96698 0.0
C661 C 0.41894 0.79835 0.94809 0.0
C662 C 0.4012 0.75779 0.9112 0.0
C663 C 0.40562 0.73795 0.92943 0.0
N664 N 0.42726 0.73249 0.97288 0.0
N665 N 0.41487 0.81118 0.90106 0.0
C666 C 0.41729 0.74867 0.95683 0.0
C667 C 0.41148 0.78938 0.9198 0.0
N668 N 0.42196 0.78342 0.99473 0.0
N669 N 0.38567 0.74611 0.88625 0.0
H670 H 0.42268 0.83461 0.90659 0.0
H671 H 0.41294 0.8068 0.87983 0.0
H672 H 0.37654 0.72278 0.87956 0.0
H673 H 0.3789 0.75863 0.87341 0.0
H674 H 0.41931 0.7671 0.00939 0.0
H675 H 0.423 0.80355 0.00322 0.0
H676 H 0.43891 0.74107 0.99202 0.0
H677 H 0.42729 0.71233 0.9659 0.0
C678 C 0.65609 0.45339 0.08379 0.0
C679 C 0.62588 0.42872 0.09289 0.0
C680 C 0.6411 0.39048 0.07695 0.0
C681 C 0.67398 0.41535 0.07606 0.0
N682 N 0.71289 0.47156 0.07805 0.0
N683 N 0.58487 0.37721 0.07604 0.0
C684 C 0.68152 0.44718 0.07895 0.0
C685 C 0.61661 0.39782 0.08314 0.0
N686 N 0.65871 0.48076 0.07514 0.0
N687 N 0.63321 0.35997 0.07195 0.0
H688 H 0.5675 0.38407 0.07672 0.0
H689 H 0.57678 0.35528 0.06639 0.0
H690 H 0.65008 0.35397 0.06529 0.0
H691 H 0.61024 0.34069 0.07554 0.0
H692 H 0.67954 0.49852 0.06606 0.0
H693 H 0.63829 0.48315 0.0732 0.0
H694 H 0.71937 0.49488 0.08262 0.0
H695 H 0.73254 0.46828 0.07499 0.0
C696 C 0.382 0.79227 0.53741 0.0
C697 C 0.37828 0.80011 0.51015 0.0
C698 C 0.32612 0.75055 0.505 0.0
C699 C 0.33176 0.74094 0.53086 0.0
N700 N 0.36712 0.75081 0.57031 0.0
N701 N 0.34951 0.78456 0.4662 0.0
C702 C 0.36016 0.76139 0.54685 0.0
C703 C 0.35104 0.77869 0.49345 0.0
N704 N 0.4061 0.81453 0.55438 0.0
N705 N 0.29647 0.73341 0.49189 0.0
H706 H 0.36722 0.80485 0.45679 0.0
H707 H 0.33214 0.76802 0.45232 0.0
H708 H 0.27718 0.71312 0.49999 0.0
H709 H 0.28988 0.74106 0.47443 0.0
H710 H 0.40806 0.81139 0.57532 0.0
H711 H 0.42256 0.83728 0.54803 0.0
H712 H 0.38915 0.76336 0.5812 0.0
H713 H 0.35198 0.72826 0.57771 0.0
C714 C 0.56975 0.35612 0.70241 0.0
C715 C 0.59149 0.38076 0.68527 0.0
C716 C 0.63134 0.36412 0.6922 0.0
C717 C 0.60749 0.3362 0.7048 0.0
N718 N 0.55106 0.30302 0.71697 0.0
N719 N 0.64067 0.40339 0.65883 0.0
C720 C 0.57589 0.33149 0.70882 0.0
C721 C 0.62175 0.38355 0.67881 0.0
N722 N 0.54353 0.35642 0.71293 0.0
N723 N 0.66336 0.37269 0.69364 0.0
H724 H 0.63382 0.41669 0.64711 0.0
H725 H 0.66144 0.40387 0.65179 0.0
H726 H 0.67166 0.3602 0.70485 0.0
H727 H 0.68189 0.39421 0.68664 0.0
H728 H 0.52863 0.34053 0.72755 0.0
H729 H 0.53878 0.37454 0.70929 0.0
H730 H 0.52703 0.29775 0.7175 0.0
H731 H 0.55356 0.28351 0.72026 0.0
C732 C 0.26119 0.61948 0.82946 0.0
C733 C 0.23245 0.60836 0.84488 0.0
C734 C 0.26335 0.61413 0.8873 0.0
C735 C 0.29041 0.61978 0.87148 0.0
N736 N 0.31619 0.62921 0.82741 0.0
N737 N 0.20519 0.59237 0.88823 0.0
C738 C 0.28976 0.62312 0.84251 0.0
C739 C 0.23326 0.60502 0.87378 0.0
N740 N 0.26142 0.62756 0.8026 0.0
N741 N 0.26703 0.61935 0.91518 0.0
H742 H 0.18263 0.58546 0.87904 0.0
H743 H 0.2039 0.58634 0.90884 0.0
H744 H 0.28959 0.62856 0.92523 0.0
H745 H 0.24893 0.61822 0.9277 0.0
H746 H 0.28237 0.63893 0.79106 0.0
H747 H 0.24102 0.62528 0.79237 0.0
H748 H 0.31583 0.62768 0.80597 0.0
H749 H 0.33834 0.63443 0.83634 0.0
C750 C 0.63426 0.25646 0.02963 0.0
C751 C 0.63848 0.24628 0.00326 0.0
C752 C 0.69382 0.29193 0.00193 0.0
C753 C 0.68865 0.30369 0.02713 0.0
N754 N 0.65354 0.29846 0.06457 0.0
N755 N 0.6695 0.25714 0.96186 0.0
C756 C 0.6586 0.28643 0.04075 0.0
C757 C 0.66749 0.26485 0.9887 0.0
N758 N 0.60765 0.2368 0.04454 0.0
N759 N 0.72411 0.30602 0.99098 0.0
H760 H 0.65069 0.23755 0.95134 0.0
H761 H 0.68857 0.27171 0.94921 0.0
H762 H 0.74416 0.32585 0.99997 0.0
H763 H 0.73008 0.29643 0.97433 0.0
H764 H 0.6047 0.24112 0.06507 0.0
H765 H 0.58937 0.21474 0.03703 0.0
H766 H 0.63099 0.28913 0.07369 0.0
H767 H 0.67159 0.31898 0.0746 0.0
C768 C 0.41973 0.66433 0.20652 0.0
C769 C 0.42026 0.65925 0.17772 0.0
C770 C 0.41091 0.70305 0.16868 0.0
C771 C 0.41087 0.70828 0.19752 0.0
N772 N 0.40465 0.68819 0.24323 0.0
N773 N 0.4115 0.66992 0.13111 0.0
C774 C 0.41224 0.68725 0.21628 0.0
C775 C 0.41439 0.67751 0.15868 0.0
N776 N 0.42711 0.64772 0.22452 0.0
N777 N 0.40788 0.72271 0.15098 0.0
H778 H 0.41478 0.65197 0.12301 0.0
H779 H 0.40411 0.68004 0.11623 0.0
H780 H 0.40192 0.73937 0.15763 0.0
H781 H 0.4118 0.72313 0.12991 0.0
H782 H 0.43075 0.65286 0.24562 0.0
H783 H 0.43197 0.6302 0.21812 0.0
H784 H 0.4022 0.67164 0.25752 0.0
H785 H 0.39753 0.70377 0.25062 0.0
C786 C 0.77379 0.4222 0.37434 0.0
C787 C 0.78086 0.43364 0.34715 0.0
C788 C 0.73326 0.44006 0.34639 0.0
C789 C 0.72512 0.4269 0.37292 0.0
N790 N 0.73437 0.40129 0.4108 0.0
N791 N 0.76443 0.4478 0.30521 0.0
C792 C 0.74438 0.41662 0.38647 0.0
C793 C 0.75974 0.44096 0.33257 0.0
N794 N 0.79574 0.41774 0.38884 0.0
N795 N 0.71613 0.4524 0.33468 0.0
H796 H 0.78363 0.44882 0.29433 0.0
H797 H 0.74785 0.44984 0.29265 0.0
H798 H 0.69603 0.45145 0.3438 0.0
H799 H 0.72317 0.4656 0.3169 0.0
H800 H 0.7938 0.4127 0.4097 0.0
H801 H 0.81734 0.42135 0.38048 0.0
H802 H 0.74541 0.39026 0.42035 0.0
H803 H 0.71339 0.39755 0.42055 0.0
C804 C 0.15782 0.59995 0.46548 0.0
C805 C 0.17305 0.59524 0.44244 0.0
C806 C 0.22331 0.61417 0.46977 0.0
C807 C 0.20749 0.61674 0.49351 0.0
N808 N 0.15956 0.61114 0.51466 0.0
N809 N 0.21849 0.59354 0.42319 0.0
C810 C 0.1747 0.6095 0.4915 0.0
C811 C 0.20517 0.60085 0.44484 0.0
N812 N 0.12736 0.59566 0.46228 0.0
N813 N 0.25622 0.62644 0.47039 0.0
H814 H 0.20707 0.58571 0.40388 0.0
H815 H 0.23991 0.59295 0.4249 0.0
H816 H 0.27096 0.63721 0.48779 0.0
H817 H 0.26963 0.62864 0.45295 0.0
H818 H 0.11599 0.60194 0.47714 0.0
H819 H 0.11369 0.58697 0.44398 0.0
H820 H 0.13489 0.60332 0.51557 0.0
H821 H 0.17134 0.61835 0.53384 0.0
C822 C 0.57057 0.16714 0.62983 0.0
C823 C 0.5909 0.18188 0.60718 0.0
C824 C 0.62328 0.23041 0.63508 0.0
C825 C 0.60506 0.21482 0.65858 0.0
N826 N 0.56173 0.16833 0.67901 0.0
N827 N 0.63893 0.22596 0.58872 0.0
C828 C 0.57859 0.1832 0.65608 0.0
C829 C 0.61805 0.21297 0.61004 0.0
N830 N 0.54341 0.13795 0.62603 0.0
N831 N 0.64408 0.26242 0.63606 0.0
H832 H 0.63516 0.21489 0.56939 0.0
H833 H 0.66135 0.24677 0.59077 0.0
H834 H 0.64791 0.27663 0.6535 0.0
H835 H 0.65526 0.27557 0.6188 0.0
H836 H 0.52551 0.12703 0.64062 0.0
H837 H 0.53776 0.12505 0.60744 0.0
H838 H 0.54426 0.14445 0.67943 0.0
H839 H 0.56689 0.17936 0.69847 0.0
C840 C 0.3893 0.58703 0.78907 0.0
C841 C 0.42313 0.59908 0.78641 0.0
C842 C 0.43205 0.61349 0.83575 0.0
C843 C 0.39877 0.60421 0.83793 0.0
N844 N 0.34568 0.58374 0.81649 0.0
N845 N 0.47737 0.62567 0.80621 0.0
C846 C 0.37728 0.59104 0.81461 0.0
C847 C 0.4447 0.61287 0.80948 0.0
N848 N 0.3686 0.57169 0.76709 0.0
N849 N 0.45118 0.62133 0.85906 0.0
H850 H 0.4874 0.62385 0.78777 0.0
H851 H 0.49479 0.63968 0.82121 0.0
H852 H 0.44257 0.62135 0.87867 0.0
H853 H 0.47462 0.62499 0.85943 0.0
H854 H 0.34344 0.55857 0.76852 0.0
H855 H 0.3765 0.57044 0.74742 0.0
H856 H 0.32994 0.57817 0.79959 0.0
H857 H 0.33532 0.5851 0.83482 0.0
C858 C 0.81181 0.41653 0.9477 0.0
C859 C 0.84622 0.43566 0.94804 0.0
C860 C 0.84707 0.4374 0.99854 0.0
C861 C 0.8132 0.41532 0.9983 0.0
N862 N 0.76305 0.38244 0.97267 0.0
N863 N 0.89725 0.46098 0.97336 0.0
C864 C 0.79548 0.40451 0.97285 0.0
C865 C 0.86406 0.44505 0.97336 0.0
N866 N 0.79464 0.4109 0.92344 0.0
N867 N 0.86258 0.45271 0.02259 0.0
H868 H 0.91046 0.4673 0.95526 0.0
H869 H 0.91153 0.46555 0.99113 0.0
H870 H 0.85015 0.44934 0.04085 0.0
H871 H 0.88662 0.47118 0.02381 0.0
H872 H 0.76947 0.40035 0.92221 0.0
H873 H 0.80564 0.41893 0.90453 0.0
H874 H 0.74973 0.37043 0.95491 0.0
H875 H 0.74965 0.37465 0.99055 0.0
C876 C 0.42024 0.87013 0.13378 0.0
C877 C 0.43298 0.86292 0.1103 0.0
C878 C 0.44025 0.82468 0.1368 0.0
C879 C 0.42763 0.83204 0.16038 0.0
N880 N 0.41152 0.8658 0.183 0.0
N881 N 0.45795 0.83583 0.08946 0.0
C882 C 0.41914 0.85582 0.15928 0.0
C883 C 0.44398 0.84103 0.11188 0.0
N884 N 0.4088 0.89048 0.13156 0.0
N885 N 0.44734 0.80106 0.13788 0.0
H886 H 0.45876 0.84523 0.07022 0.0
H887 H 0.47025 0.82346 0.09 0.0
H888 H 0.44659 0.78962 0.15591 0.0
H889 H 0.45247 0.79144 0.12076 0.0
H890 H 0.39517 0.89353 0.14656 0.0
H891 H 0.41153 0.90339 0.11396 0.0
H892 H 0.40874 0.88541 0.18449 0.0
H893 H 0.41053 0.85595 0.202 0.0
C894 C 0.60878 0.42534 0.28785 0.0
C895 C 0.59663 0.44606 0.28448 0.0
C896 C 0.61607 0.46809 0.3311 0.0
C897 C 0.62294 0.44363 0.33647 0.0
N898 N 0.62923 0.40083 0.31849 0.0
N899 N 0.58442 0.48412 0.30391 0.0
C900 C 0.62016 0.42272 0.31437 0.0
C901 C 0.59895 0.46647 0.30643 0.0
N902 N 0.61064 0.40913 0.26539 0.0
N903 N 0.62751 0.494 0.34831 0.0
H904 H 0.57202 0.4839 0.286 0.0
H905 H 0.58208 0.49663 0.32041 0.0
H906 H 0.64403 0.49894 0.36436 0.0
H907 H 0.62493 0.51329 0.34404 0.0
H908 H 0.62261 0.39642 0.26557 0.0
H909 H 0.60222 0.41017 0.24575 0.0
H910 H 0.62306 0.38179 0.30502 0.0
H911 H 0.64276 0.40138 0.33568 0.0
C912 C 0.4347 0.8753 0.31624 0.0
C913 C 0.4398 0.86033 0.33884 0.0
C914 C 0.42108 0.81203 0.31065 0.0
C915 C 0.41819 0.82761 0.28731 0.0
N916 N 0.42317 0.87424 0.26724 0.0
N917 N 0.44244 0.81635 0.357 0.0
C918 C 0.42513 0.8593 0.28999 0.0
C919 C 0.43457 0.82936 0.33579 0.0
N920 N 0.43855 0.90464 0.3201 0.0
N921 N 0.40892 0.78012 0.30949 0.0
H922 H 0.45054 0.82731 0.37639 0.0
H923 H 0.44333 0.79572 0.35482 0.0
H924 H 0.39804 0.76598 0.29192 0.0
H925 H 0.40681 0.7669 0.32666 0.0
H926 H 0.43183 0.9157 0.30561 0.0
H927 H 0.44727 0.91765 0.3386 0.0
H928 H 0.43099 0.89819 0.26677 0.0
H929 H 0.41565 0.863 0.24797 0.0
C930 C 0.57856 0.44492 0.49111 0.0
C931 C 0.59367 0.44315 0.51577 0.0
C932 C 0.62389 0.42382 0.48932 0.0
C933 C 0.60757 0.4242 0.46475 0.0
N934 N 0.56427 0.42841 0.44316 0.0
N935 N 0.62537 0.42473 0.53929 0.0
C936 C 0.58319 0.43252 0.46597 0.0
C937 C 0.61511 0.43116 0.51513 0.0
N938 N 0.56081 0.45963 0.49153 0.0
N939 N 0.64729 0.41568 0.4882 0.0
H940 H 0.61886 0.42886 0.55867 0.0
H941 H 0.6379 0.41258 0.54033 0.0
H942 H 0.65216 0.40663 0.47054 0.0
H943 H 0.6633 0.41952 0.50453 0.0
H944 H 0.55202 0.46466 0.4738 0.0
H945 H 0.55745 0.46955 0.50946 0.0
H946 H 0.54366 0.43047 0.44365 0.0
H947 H 0.56806 0.42116 0.42393 0.0
C948 C 0.16526 0.61407 0.64876 0.0
C949 C 0.17206 0.59982 0.67099 0.0
C950 C 0.2108 0.59342 0.64268 0.0
C951 C 0.20333 0.60692 0.62012 0.0
N952 N 0.16916 0.62448 0.5999 0.0
N953 N 0.19835 0.57278 0.68881 0.0
C954 C 0.17945 0.61583 0.62272 0.0
C955 C 0.19385 0.58843 0.66778 0.0
N956 N 0.14543 0.62624 0.65266 0.0
N957 N 0.23521 0.58675 0.64057 0.0
H958 H 0.18851 0.57075 0.70825 0.0
H959 H 0.2103 0.56015 0.68669 0.0
H960 H 0.24761 0.58899 0.62248 0.0
H961 H 0.24489 0.58091 0.65717 0.0
H962 H 0.14284 0.64061 0.63863 0.0
H963 H 0.13275 0.62346 0.67074 0.0
H964 H 0.14932 0.62777 0.59954 0.0
H965 H 0.17876 0.62583 0.5805 0.0
C966 C 0.60529 0.21178 0.83419 0.0
C967 C 0.59241 0.17878 0.83588 0.0
C968 C 0.61317 0.1778 0.79021 0.0
C969 C 0.62081 0.2095 0.78619 0.0
N970 N 0.62713 0.25796 0.806 0.0
N971 N 0.5799 0.12932 0.81429 0.0
C972 C 0.61762 0.22682 0.80869 0.0
C973 C 0.59505 0.16149 0.81349 0.0
N974 N 0.60696 0.22896 0.85731 0.0
N975 N 0.62479 0.16361 0.77314 0.0
H976 H 0.56678 0.11657 0.83118 0.0
H977 H 0.57783 0.11517 0.79723 0.0
H978 H 0.6419 0.17547 0.75826 0.0
H979 H 0.62161 0.14139 0.77661 0.0
H980 H 0.61947 0.25353 0.85848 0.0
H981 H 0.59786 0.21878 0.87624 0.0
H982 H 0.6207 0.27038 0.81961 0.0
H983 H 0.64117 0.27151 0.78985 0.0
C984 C 0.43291 0.59315 0.9904 0.0
C985 C 0.41684 0.59331 0.01471 0.0
C986 C 0.38737 0.61407 0.98924 0.0
C987 C 0.40473 0.61543 0.96514 0.0
N988 N 0.44866 0.61237 0.94426 0.0
N989 N 0.38337 0.60914 0.03888 0.0
C990 C 0.429 0.60692 0.96622 0.0
C991 C 0.3951 0.60496 0.01453 0.0
N992 N 0.45102 0.57881 0.99017 0.0
N993 N 0.36383 0.62203 0.98819 0.0
H994 H 0.3887 0.6032 0.05793 0.0
H995 H 0.37058 0.62098 0.04072 0.0
H996 H 0.35956 0.63216 0.97123 0.0
H997 H 0.3471 0.61697 0.00368 0.0
H998 H 0.46042 0.57476 0.97233 0.0
H999 H 0.45423 0.56834 0.00748 0.0
H1000 H 0.46912 0.61006 0.9449 0.0
H1001 H 0.44575 0.62124 0.92584 0.0
C1002 C 0.85207 0.45738 0.14978 0.0
C1003 C 0.83805 0.43797 0.17277 0.0
C1004 C 0.78719 0.40542 0.14642 0.0
C1005 C 0.80209 0.42292 0.12255 0.0
N1006 N 0.84861 0.46519 0.10087 0.0
N1007 N 0.79404 0.39134 0.19251 0.0
C1008 C 0.83448 0.44898 0.12412 0.0
C1009 C 0.80615 0.41131 0.1709 0.0
N1010 N 0.88194 0.48416 0.15275 0.0
N1011 N 0.75444 0.38439 0.14622 0.0
H1012 H 0.80654 0.39536 0.21127 0.0
H1013 H 0.77267 0.36946 0.19119 0.0
H1014 H 0.73925 0.37986 0.12909 0.0
H1015 H 0.7416 0.37348 0.16377 0.0
H1016 H 0.89234 0.50129 0.13789 0.0
H1017 H 0.89586 0.49028 0.17096 0.0
H1018 H 0.87317 0.48195 0.09952 0.0
H1019 H 0.83598 0.46055 0.08213 0.0
loop_
_geom_bond_atom_site_label_1
_geom_bond_atom_site_label_2
_geom_bond_distance
_geom_bond_site_symmetry_2
_ccdc_geom_bond_type
H0 C27 0.929 . S
N1 C26 1.433 . S
N1 C32 1.435 . S
N1 C38 1.423 . S
H2 C28 0.930 . S
H3 C31 0.931 . S
H4 C30 0.929 . S
H5 C33 0.930 . S
H6 C34 0.932 . S
H7 C37 0.929 . S
H8 C36 0.931 . S
H9 C39 0.929 . S
H10 C43 0.932 . S
H11 C40 0.931 . S
H12 C42 0.929 . S
H13 C45 0.929 . S
H14 C46 0.930 . S
H15 C48 0.929 . S
H16 C49 0.931 . S
H17 C51 0.930 . S
H18 C52 0.932 . S
H19 C54 0.931 . S
H20 C55 0.929 . S
H21 C57 0.929 . S
H22 C58 0.931 . S
H23 C60 0.929 . S
N24 C44 1.433 . S
N24 C50 1.435 . S
N24 C56 1.423 . S
H25 C61 0.932 . S
C26 N1 1.433 . S
C26 C27 1.363 . S
C26 C31 1.370 . S
C27 H0 0.929 . S
C27 C26 1.363 . S
C27 C28 1.385 . S
C28 H2 0.930 . S
C28 C27 1.385 . S
C28 C29 1.357 . S
C29 C28 1.357 . S
C29 C30 1.406 . S
C30 H4 0.929 . S
C30 C29 1.406 . S
C30 C31 1.391 . S
C31 H3 0.931 . S
C31 C26 1.370 . S
C31 C30 1.391 . S
C32 N1 1.435 . S
C32 C33 1.358 . S
C32 C37 1.371 . S
C33 H5 0.930 . S
C33 C32 1.358 . S
C33 C34 1.405 . S
C34 H6 0.932 . S
C34 C33 1.405 . S
C34 C35 1.383 . S
C35 C34 1.383 . S
C35 C36 1.393 . S
C36 H8 0.931 . S
C36 C35 1.393 . S
C36 C37 1.382 . S
C37 H7 0.929 . S
C37 C32 1.371 . S
C37 C36 1.382 . S
C38 N1 1.423 . S
C38 C39 1.362 . S
C38 C43 1.388 . S
C39 H9 0.929 . S
C39 C38 1.362 . S
C39 C40 1.376 . S
C40 H11 0.931 . S
C40 C39 1.376 . S
C40 C41 1.396 . S
C41 C40 1.396 . S
C41 C42 1.348 . S
C41 C59 1.472 1_455 S
C42 H12 0.929 . S
C42 C41 1.348 . S
C42 C43 1.443 . S
C43 H10 0.932 . S
C43 C38 1.388 . S
C43 C42 1.443 . S
C44 N24 1.433 . S
C44 C45 1.363 . S
C44 C49 1.370 . S
C45 H13 0.929 . S
C45 C44 1.363 . S
C45 C46 1.385 . S
C46 H14 0.930 . S
C46 C45 1.385 . S
C46 C47 1.357 . S
C47 C46 1.357 . S
C47 C48 1.406 . S
C48 H15 0.929 . S
C48 C47 1.406 . S
C48 C49 1.391 . S
C49 H16 0.931 . S
C49 C44 1.370 . S
C49 C48 1.391 . S
C50 N24 1.435 . S
C50 C51 1.358 . S
C50 C55 1.371 . S
C51 H17 0.930 . S
C51 C50 1.358 . S
C51 C52 1.405 . S
C52 H18 0.932 . S
C52 C51 1.405 . S
C52 C53 1.383 . S
C53 C52 1.383 . S
C53 C54 1.393 . S
C54 H19 0.931 . S
C54 C53 1.393 . S
C54 C55 1.382 . S
C55 H20 0.929 . S
C55 C50 1.371 . S
C55 C54 1.382 . S
C56 N24 1.423 . S
C56 C57 1.362 . S
C56 C61 1.388 . S
C57 H21 0.929 . S
C57 C56 1.362 . S
C57 C58 1.376 . S
C58 H22 0.931 . S
C58 C57 1.376 . S
C58 C59 1.396 . S
C59 C41 1.472 1_655 S
C59 C58 1.396 . S
C59 C60 1.348 . S
C60 H23 0.929 . S
C60 C59 1.348 . S
C60 C61 1.443 . S
C61 H25 0.932 . S
C61 C56 1.388 . S
C61 C60 1.443 . S
H62 C89 0.929 . S
N63 C88 1.433 . S
N63 C94 1.435 . S
N63 C100 1.423 . S
H64 C90 0.930 . S
H65 C93 0.931 . S
H66 C92 0.929 . S
H67 C95 0.930 . S
H68 C96 0.932 . S
H69 C99 0.929 . S
H70 C98 0.931 . S
H71 C101 0.929 . S
H72 C105 0.932 . S
H73 C102 0.931 . S
H74 C104 0.929 1_545 S
H75 C107 0.929 . S
H76 C108 0.930 . S
H77 C110 0.929 . S
H78 C111 0.931 . S
H79 C113 0.930 . S
H80 C114 0.932 . S
H81 C116 0.931 . S
H82 C117 0.929 . S
H83 C119 0.929 . S
H84 C120 0.931 . S
H85 C122 0.929 . S
N86 C106 1.433 . S
N86 C112 1.435 . S
N86 C118 1.423 . S
H87 C123 0.932 . S
C88 N63 1.433 . S
C88 C89 1.363 . S
C88 C93 1.370 . S
C89 H62 0.929 . S
C89 C88 1.363 . S
C89 C90 1.385 . S
C90 H64 0.930 . S
C90 C89 1.385 . S
C90 C91 1.357 . S
C91 C90 1.357 . S
C91 C92 1.406 . S
C92 H66 0.929 . S
C92 C91 1.406 . S
C92 C93 1.391 . S
C93 H65 0.931 . S
C93 C88 1.370 . S
C93 C92 1.391 . S
C94 N63 1.435 . S
C94 C95 1.358 . S
C94 C99 1.371 . S
C95 H67 0.930 . S
C95 C94 1.358 . S
C95 C96 1.405 . S
C96 H68 0.932 . S
C96 C95 1.405 . S
C96 C97 1.383 . S
C97 C96 1.383 . S
C97 C98 1.393 . S
C98 H70 0.931 . S
C98 C97 1.393 . S
C98 C99 1.382 . S
C99 H69 0.929 . S
C99 C94 1.371 . S
C99 C98 1.382 . S
C100 N63 1.423 . S
C100 C101 1.362 . S
C100 C105 1.388 . S
C101 H71 0.929 . S
C101 C100 1.362 . S
C101 C102 1.376 . S
C102 H73 0.931 . S
C102 C101 1.376 . S
C102 C103 1.396 1_565 S
C103 C102 1.396 1_545 S
C103 C104 1.348 1_545 S
C103 C121 1.472 . S
C104 H74 0.929 1_565 S
C104 C103 1.348 1_565 S
C104 C105 1.443 . S
C105 H72 0.932 . S
C105 C100 1.388 . S
C105 C104 1.443 . S
C106 N86 1.433 . S
C106 C107 1.363 . S
C106 C111 1.370 . S
C107 H75 0.929 . S
C107 C106 1.363 . S
C107 C108 1.385 . S
C108 H76 0.930 . S
C108 C107 1.385 . S
C108 C109 1.357 . S
C109 C108 1.357 . S
C109 C110 1.406 . S
C110 H77 0.929 . S
C110 C109 1.406 . S
C110 C111 1.391 . S
C111 H78 0.931 . S
C111 C106 1.370 . S
C111 C110 1.391 . S
C112 N86 1.435 . S
C112 C113 1.358 . S
C112 C117 1.371 . S
C113 H79 0.930 . S
C113 C112 1.358 . S
C113 C114 1.405 . S
C114 H80 0.932 . S
C114 C113 1.405 . S
C114 C115 1.383 . S
C115 C114 1.383 . S
C115 C116 1.393 . S
C116 H81 0.931 . S
C116 C115 1.393 . S
C116 C117 1.382 . S
C117 H82 0.929 . S
C117 C112 1.371 . S
C117 C116 1.382 . S
C118 N86 1.423 . S
C118 C119 1.362 . S
C118 C123 1.388 . S
C119 H83 0.929 . S
C119 C118 1.362 . S
C119 C120 1.376 . S
C120 H84 0.931 . S
C120 C119 1.376 . S
C120 C121 1.396 . S
C121 C103 1.472 . S
C121 C120 1.396 . S
C121 C122 1.348 . S
C122 H85 0.929 . S
C122 C121 1.348 . S
C122 C123 1.443 . S
C123 H87 0.932 . S
C123 C118 1.388 . S
C123 C122 1.443 . S
H124 C151 0.929 . S
N125 C150 1.433 . S
N125 C156 1.435 . S
N125 C162 1.423 . S
H126 C152 0.930 . S
H127 C155 0.931 . S
H128 C154 0.929 . S
H129 C157 0.930 . S
H130 C158 0.932 . S
H131 C161 0.929 . S
H132 C160 0.931 . S
H133 C163 0.929 . S
H134 C167 0.932 . S
H135 C164 0.931 . S
H136 C166 0.929 . S
H137 C169 0.929 . S
H138 C170 0.930 . S
H139 C172 0.929 . S
H140 C173 0.931 . S
H141 C175 0.930 . S
H142 C176 0.932 . S
H143 C178 0.931 . S
H144 C179 0.929 . S
H145 C181 0.929 . S
H146 C182 0.931 . S
H147 C184 0.929 . S
N148 C168 1.433 . S
N148 C174 1.435 . S
N148 C180 1.423 . S
H149 C185 0.932 . S
C150 N125 1.433 . S
C150 C151 1.363 . S
C150 C155 1.370 . S
C151 H124 0.929 . S
C151 C150 1.363 . S
C151 C152 1.385 . S
C152 H126 0.930 . S
C152 C151 1.385 . S
C152 C153 1.357 . S
C153 C152 1.357 . S
C153 C154 1.406 . S
C154 H128 0.929 . S
C154 C153 1.406 . S
C154 C155 1.391 . S
C155 H127 0.931 . S
C155 C150 1.370 . S
C155 C154 1.391 . S
C156 N125 1.435 . S
C156 C157 1.358 . S
C156 C161 1.371 . S
C157 H129 0.930 . S
C157 C156 1.358 . S
C157 C158 1.405 . S
C158 H130 0.932 . S
C158 C157 1.405 . S
C158 C159 1.383 . S
C159 C158 1.383 . S
C159 C160 1.393 . S
C160 H132 0.931 . S
C160 C159 1.393 . S
C160 C161 1.382 . S
C161 H131 0.929 . S
C161 C156 1.371 . S
C161 C160 1.382 . S
C162 N125 1.423 . S
C162 C163 1.362 . S
C162 C167 1.388 . S
C163 H133 0.929 . S
C163 C162 1.362 . S
C163 C164 1.376 . S
C164 H135 0.931 . S
C164 C163 1.376 . S
C164 C165 1.396 . S
C165 C164 1.396 . S
C165 C166 1.348 . S
C165 C183 1.472 . S
C166 H136 0.929 . S
C166 C165 1.348 . S
C166 C167 1.443 . S
C167 H134 0.932 . S
C167 C162 1.388 . S
C167 C166 1.443 . S
C168 N148 1.433 . S
C168 C169 1.363 . S
C168 C173 1.370 . S
C169 H137 0.929 . S
C169 C168 1.363 . S
C169 C170 1.385 . S
C170 H138 0.930 . S
C170 C169 1.385 . S
C170 C171 1.357 . S
C171 C170 1.357 . S
C171 C172 1.406 . S
C172 H139 0.929 . S
C172 C171 1.406 . S
C172 C173 1.391 . S
C173 H140 0.931 . S
C173 C168 1.370 . S
C173 C172 1.391 . S
C174 N148 1.435 . S
C174 C175 1.358 . S
C174 C179 1.371 . S
C175 H141 0.930 . S
C175 C174 1.358 . S
C175 C176 1.405 . S
C176 H142 0.932 . S
C176 C175 1.405 . S
C176 C177 1.383 . S
C177 C176 1.383 . S
C177 C178 1.393 . S
C178 H143 0.931 . S
C178 C177 1.393 . S
C178 C179 1.382 . S
C179 H144 0.929 . S
C179 C174 1.371 . S
C179 C178 1.382 . S
C180 N148 1.423 . S
C180 C181 1.362 . S
C180 C185 1.388 . S
C181 H145 0.929 . S
C181 C180 1.362 . S
C181 C182 1.376 . S
C182 H146 0.931 . S
C182 C181 1.376 . S
C182 C183 1.396 . S
C183 C165 1.472 . S
C183 C182 1.396 . S
C183 C184 1.348 . S
C184 H147 0.929 . S
C184 C183 1.348 . S
C184 C185 1.443 . S
C185 H149 0.932 . S
C185 C180 1.388 . S
C185 C184 1.443 . S
H186 C213 0.929 . S
N187 C212 1.433 . S
N187 C218 1.435 . S
N187 C224 1.423 . S
H188 C214 0.930 . S
H189 C217 0.931 . S
H190 C216 0.929 . S
H191 C219 0.930 . S
H192 C220 0.932 . S
H193 C223 0.929 . S
H194 C222 0.931 . S
H195 C225 0.929 . S
H196 C229 0.932 . S
H197 C226 0.931 . S
H198 C228 0.929 . S
H199 C231 0.929 . S
H200 C232 0.930 . S
H201 C234 0.929 . S
H202 C235 0.931 . S
H203 C237 0.930 . S
H204 C238 0.932 . S
H205 C240 0.931 . S
H206 C241 0.929 . S
H207 C243 0.929 . S
H208 C244 0.931 . S
H209 C246 0.929 . S
N210 C230 1.433 . S
N210 C236 1.435 . S
N210 C242 1.423 . S
H211 C247 0.932 . S
C212 N187 1.433 . S
C212 C213 1.363 . S
C212 C217 1.370 . S
C213 H186 0.929 . S
C213 C212 1.363 . S
C213 C214 1.385 . S
C214 H188 0.930 . S
C214 C213 1.385 . S
C214 C215 1.357 . S
C215 C214 1.357 . S
C215 C216 1.406 . S
C216 H190 0.929 . S
C216 C215 1.406 . S
C216 C217 1.391 . S
C217 H189 0.931 . S
C217 C212 1.370 . S
C217 C216 1.391 . S
C218 N187 1.435 . S
C218 C219 1.358 . S
C218 C223 1.371 . S
C219 H191 0.930 . S
C219 C218 1.358 . S
C219 C220 1.405 . S
C220 H192 0.932 . S
C220 C219 1.405 . S
C220 C221 1.383 . S
C221 C220 1.383 . S
C221 C222 1.393 . S
C222 H194 0.931 . S
C222 C221 1.393 . S
C222 C223 1.382 . S
C223 H193 0.929 . S
C223 C218 1.371 . S
C223 C222 1.382 . S
C224 N187 1.423 . S
C224 C225 1.362 . S
C224 C229 1.388 . S
C225 H195 0.929 . S
C225 C224 1.362 . S
C225 C226 1.376 . S
C226 H197 0.931 . S
C226 C225 1.376 . S
C226 C227 1.396 . S
C227 C226 1.396 . S
C227 C228 1.348 . S
C227 C245 1.472 1_455 S
C228 H198 0.929 . S
C228 C227 1.348 . S
C228 C229 1.443 . S
C229 H196 0.932 . S
C229 C224 1.388 . S
C229 C228 1.443 . S
C230 N210 1.433 . S
C230 C231 1.363 . S
C230 C235 1.370 . S
C231 H199 0.929 . S
C231 C230 1.363 . S
C231 C232 1.385 . S
C232 H200 0.930 . S
C232 C231 1.385 . S
C232 C233 1.357 . S
C233 C232 1.357 . S
C233 C234 1.406 . S
C234 H201 0.929 . S
C234 C233 1.406 . S
C234 C235 1.391 . S
C235 H202 0.931 . S
C235 C230 1.370 . S
C235 C234 1.391 . S
C236 N210 1.435 . S
C236 C237 1.358 . S
C236 C241 1.371 . S
C237 H203 0.930 . S
C237 C236 1.358 . S
C237 C238 1.405 . S
C238 H204 0.932 . S
C238 C237 1.405 . S
C238 C239 1.383 . S
C239 C238 1.383 . S
C239 C240 1.393 . S
C240 H205 0.931 . S
C240 C239 1.393 . S
C240 C241 1.382 . S
C241 H206 0.929 . S
C241 C236 1.371 . S
C241 C240 1.382 . S
C242 N210 1.423 . S
C242 C243 1.362 . S
C242 C247 1.388 . S
C243 H207 0.929 . S
C243 C242 1.362 . S
C243 C244 1.376 . S
C244 H208 0.931 . S
C244 C243 1.376 . S
C244 C245 1.396 . S
C245 C227 1.472 1_655 S
C245 C244 1.396 . S
C245 C246 1.348 . S
C246 H209 0.929 . S
C246 C245 1.348 . S
C246 C247 1.443 . S
C247 H211 0.932 . S
C247 C242 1.388 . S
C247 C246 1.443 . S
H248 C275 0.929 . S
N249 C274 1.433 . S
N249 C280 1.435 . S
N249 C286 1.423 . S
H250 C276 0.930 . S
H251 C279 0.931 . S
H252 C278 0.929 . S
H253 C281 0.930 . S
H254 C282 0.932 . S
H255 C285 0.929 . S
H256 C284 0.931 . S
H257 C287 0.929 . S
H258 C291 0.932 . S
H259 C288 0.931 . S
H260 C290 0.929 . S
H261 C293 0.929 . S
H262 C294 0.930 . S
H263 C296 0.929 . S
H264 C297 0.931 . S
H265 C299 0.924 1_554 S
H266 C300 0.932 . S
H267 C302 0.931 . S
H268 C303 0.929 . S
H269 C305 0.929 . S
H270 C306 0.931 1_544 S
H271 C308 0.929 . S
N272 C292 1.433 . S
N272 C298 1.435 1_554 S
N272 C304 1.423 1_554 S
H273 C309 0.932 . S
C274 N249 1.433 . S
C274 C275 1.363 . S
C274 C279 1.370 . S
C275 H248 0.929 . S
C275 C274 1.363 . S
C275 C276 1.385 . S
C276 H250 0.930 . S
C276 C275 1.385 . S
C276 C277 1.357 1_556 S
C277 C276 1.357 1_554 S
C277 C278 1.406 . S
C278 H252 0.929 . S
C278 C277 1.406 . S
C278 C279 1.391 1_554 S
C279 H251 0.931 . S
C279 C274 1.370 . S
C279 C278 1.391 1_556 S
C280 N249 1.435 . S
C280 C281 1.358 . S
C280 C285 1.371 . S
C281 H253 0.930 . S
C281 C280 1.358 . S
C281 C282 1.405 . S
C282 H254 0.932 . S
C282 C281 1.405 . S
C282 C283 1.383 . S
C283 C282 1.383 . S
C283 C284 1.393 . S
C284 H256 0.931 . S
C284 C283 1.393 . S
C284 C285 1.382 . S
C285 H255 0.929 . S
C285 C280 1.371 . S
C285 C284 1.382 . S
C286 N249 1.423 . S
C286 C287 1.362 . S
C286 C291 1.388 . S
C287 H257 0.929 . S
C287 C286 1.362 . S
C287 C288 1.376 . S
C288 H259 0.931 . S
C288 C287 1.376 . S
C288 C289 1.396 . S
C289 C288 1.396 . S
C289 C290 1.348 . S
C289 C307 1.472 1_545 S
C290 H260 0.929 . S
C290 C289 1.348 . S
C290 C291 1.443 . S
C291 H258 0.932 . S
C291 C286 1.388 . S
C291 C290 1.443 . S
C292 N272 1.433 . S
C292 C293 1.363 . S
C292 C297 1.370 . S
C293 H261 0.929 . S
C293 C292 1.363 . S
C293 C294 1.385 . S
C294 H262 0.930 . S
C294 C293 1.385 . S
C294 C295 1.357 . S
C295 C294 1.357 . S
C295 C296 1.406 . S
C296 H263 0.929 . S
C296 C295 1.406 . S
C296 C297 1.391 . S
C297 H264 0.931 . S
C297 C292 1.370 . S
C297 C296 1.391 . S
C298 N272 1.435 1_556 S
C298 C299 1.360 . S
C298 C303 1.371 . S
C299 H265 0.924 1_556 S
C299 C298 1.360 . S
C299 C300 1.409 . S
C300 H266 0.932 . S
C300 C299 1.409 . S
C300 C301 1.383 . S
C301 C300 1.383 . S
C301 C302 1.393 . S
C302 H267 0.931 . S
C302 C301 1.393 . S
C302 C303 1.382 . S
C303 H268 0.929 . S
C303 C298 1.371 . S
C303 C302 1.382 . S
C304 N272 1.423 1_556 S
C304 C305 1.362 1_556 S
C304 C309 1.388 . S
C305 H269 0.929 . S
C305 C304 1.362 1_554 S
C305 C306 1.376 1_554 S
C306 H270 0.931 1_566 S
C306 C305 1.376 1_556 S
C306 C307 1.396 . S
C307 C289 1.472 1_565 S
C307 C306 1.396 . S
C307 C308 1.348 . S
C308 H271 0.929 . S
C308 C307 1.348 . S
C308 C309 1.443 . S
C309 H273 0.932 . S
C309 C304 1.388 . S
C309 C308 1.443 . S
H310 C337 0.929 . S
N311 C336 1.433 . S
N311 C342 1.435 . S
N311 C348 1.423 . S
H312 C338 0.930 . S
H313 C341 0.931 . S
H314 C340 0.929 . S
H315 C343 0.930 . S
H316 C344 0.932 . S
H317 C347 0.929 . S
H318 C346 0.931 . S
H319 C349 0.929 . S
H320 C353 0.932 . S
H321 C350 0.931 . S
H322 C352 0.929 . S
H323 C355 0.929 . S
H324 C356 0.930 . S
H325 C358 0.929 . S
H326 C359 0.931 . S
H327 C361 0.930 . S
H328 C362 0.932 . S
H329 C364 0.931 . S
H330 C365 0.929 . S
H331 C367 0.929 . S
H332 C368 0.931 . S
H333 C370 0.929 . S
N334 C354 1.433 . S
N334 C360 1.435 . S
N334 C366 1.423 . S
H335 C371 0.932 . S
C336 N311 1.433 . S
C336 C337 1.363 . S
C336 C341 1.370 . S
C337 H310 0.929 . S
C337 C336 1.363 . S
C337 C338 1.385 . S
C338 H312 0.930 . S
C338 C337 1.385 . S
C338 C339 1.357 . S
C339 C338 1.357 . S
C339 C340 1.406 . S
C340 H314 0.929 . S
C340 C339 1.406 . S
C340 C341 1.391 . S
C341 H313 0.931 . S
C341 C336 1.370 . S
C341 C340 1.391 . S
C342 N311 1.435 . S
C342 C343 1.358 . S
C342 C347 1.371 . S
C343 H315 0.930 . S
C343 C342 1.358 . S
C343 C344 1.405 . S
C344 H316 0.932 . S
C344 C343 1.405 . S
C344 C345 1.383 . S
C345 C344 1.383 . S
C345 C346 1.393 . S
C346 H318 0.931 . S
C346 C345 1.393 . S
C346 C347 1.382 . S
C347 H317 0.929 . S
C347 C342 1.371 . S
C347 C346 1.382 . S
C348 N311 1.423 . S
C348 C349 1.362 . S
C348 C353 1.388 . S
C349 H319 0.929 . S
C349 C348 1.362 . S
C349 C350 1.376 . S
C350 H321 0.931 . S
C350 C349 1.376 . S
C350 C351 1.396 . S
C351 C350 1.396 . S
C351 C352 1.348 . S
C351 C369 1.472 . S
C352 H322 0.929 . S
C352 C351 1.348 . S
C352 C353 1.443 . S
C353 H320 0.932 . S
C353 C348 1.388 . S
C353 C352 1.443 . S
C354 N334 1.433 . S
C354 C355 1.363 . S
C354 C359 1.370 . S
C355 H323 0.929 . S
C355 C354 1.363 . S
C355 C356 1.385 . S
C356 H324 0.930 . S
C356 C355 1.385 . S
C356 C357 1.357 . S
C357 C356 1.357 . S
C357 C358 1.406 . S
C358 H325 0.929 . S
C358 C357 1.406 . S
C358 C359 1.391 . S
C359 H326 0.931 . S
C359 C354 1.370 . S
C359 C358 1.391 . S
C360 N334 1.435 . S
C360 C361 1.358 . S
C360 C365 1.371 . S
C361 H327 0.930 . S
C361 C360 1.358 . S
C361 C362 1.405 . S
C362 H328 0.932 . S
C362 C361 1.405 . S
C362 C363 1.383 . S
C363 C362 1.383 . S
C363 C364 1.393 . S
C364 H329 0.931 . S
C364 C363 1.393 . S
C364 C365 1.382 . S
C365 H330 0.929 . S
C365 C360 1.371 . S
C365 C364 1.382 . S
C366 N334 1.423 . S
C366 C367 1.362 . S
C366 C371 1.388 . S
C367 H331 0.929 . S
C367 C366 1.362 . S
C367 C368 1.376 . S
C368 H332 0.931 . S
C368 C367 1.376 . S
C368 C369 1.396 . S
C369 C351 1.472 . S
C369 C368 1.396 . S
C369 C370 1.348 . S
C370 H333 0.929 . S
C370 C369 1.348 . S
C370 C371 1.443 . S
C371 H335 0.932 . S
C371 C366 1.388 . S
C371 C370 1.443 . S
Mn372 O377 2.095 . S
Mn372 O387 2.162 . S
Mn372 O388 2.297 . S
Mn372 O396 2.385 . S
Mn372 O397 2.209 . S
Mn372 O398 2.094 . S
Mn373 O378 2.121 . S
Mn373 N380 2.257 . S
Mn373 N389 2.282 . S
Mn373 O397 2.215 . S
Mn373 O399 2.117 . S
C374 O396 1.234 . S
C374 O397 1.283 . S
C375 O387 1.281 . S
C375 O388 1.236 . S
C376 O398 1.240 . S
C376 O399 1.264 . S
O377 Mn372 2.095 . S
O377 C386 1.250 . S
O378 Mn373 2.121 . S
O378 C386 1.258 . S
C379 N380 1.326 . S
C379 C383 1.460 . S
C379 H385 0.929 . S
N380 Mn373 2.257 . S
N380 C379 1.326 . S
N380 C384 1.362 . S
C381 C382 1.258 . S
C381 C384 1.431 . S
C381 C401 1.449 . S
C382 C381 1.258 . S
C382 C383 1.477 . S
C382 H402 0.931 . S
C383 C379 1.460 . S
C383 C382 1.477 . S
C383 H403 0.930 . S
C384 N380 1.362 . S
C384 C381 1.431 . S
C384 C394 1.476 . S
H385 C379 0.929 . S
C386 O377 1.250 . S
C386 O378 1.258 . S
O387 Mn372 2.162 . S
O387 C375 1.281 . S
O388 Mn372 2.297 . S
O388 C375 1.236 . S
N389 Mn373 2.282 . S
N389 C390 1.328 . S
N389 C394 1.318 . S
C390 N389 1.328 . S
C390 C391 1.457 . S
C390 H395 0.929 . S
C391 C390 1.457 . S
C391 C392 1.291 . S
C391 H404 0.931 . S
C392 C391 1.291 . S
C392 C393 1.373 . S
C392 H405 0.929 . S
C393 C392 1.373 . S
C393 C394 1.396 . S
C393 C400 1.403 . S
C394 C384 1.476 . S
C394 N389 1.318 . S
C394 C393 1.396 . S
H395 C390 0.929 . S
O396 Mn372 2.385 . S
O396 C374 1.234 . S
O397 Mn372 2.209 . S
O397 Mn373 2.215 . S
O397 C374 1.283 . S
O398 Mn372 2.094 . S
O398 C376 1.240 . S
O399 Mn373 2.117 . S
O399 C376 1.264 . S
C400 C393 1.403 . S
C400 C401 1.399 . S
C400 H406 0.929 . S
C401 C381 1.449 . S
C401 C400 1.399 . S
C401 H407 0.930 . S
H402 C382 0.931 . S
H403 C383 0.930 . S
H404 C391 0.931 . S
H405 C392 0.929 . S
H406 C400 0.929 . S
H407 C401 0.930 . S
Mn408 O413 2.095 . S
Mn408 O423 2.162 . S
Mn408 O424 2.297 . S
Mn408 O432 2.385 . S
Mn408 O433 2.209 . S
Mn408 O434 2.094 . S
Mn409 O414 2.121 . S
Mn409 N416 2.257 . S
Mn409 N425 2.282 . S
Mn409 O433 2.215 . S
Mn409 O435 2.117 . S
C410 O432 1.234 . S
C410 O433 1.283 . S
C411 O423 1.281 . S
C411 O424 1.236 . S
C412 O434 1.240 . S
C412 O435 1.264 . S
O413 Mn408 2.095 . S
O413 C422 1.250 . S
O414 Mn409 2.121 . S
O414 C422 1.258 . S
C415 N416 1.326 . S
C415 C419 1.460 . S
C415 H421 0.929 . S
N416 Mn409 2.257 . S
N416 C415 1.326 . S
N416 C420 1.362 . S
C417 C418 1.258 . S
C417 C420 1.431 . S
C417 C437 1.449 . S
C418 C417 1.258 . S
C418 C419 1.477 . S
C418 H438 0.931 . S
C419 C415 1.460 . S
C419 C418 1.477 . S
C419 H439 0.930 . S
C420 N416 1.362 . S
C420 C417 1.431 . S
C420 C430 1.476 . S
H421 C415 0.929 . S
C422 O413 1.250 . S
C422 O414 1.258 . S
O423 Mn408 2.162 . S
O423 C411 1.281 . S
O424 Mn408 2.297 . S
O424 C411 1.236 . S
N425 Mn409 2.282 . S
N425 C426 1.328 . S
N425 C430 1.318 . S
C426 N425 1.328 . S
C426 C427 1.457 . S
C426 H431 0.929 . S
C427 C426 1.457 . S
C427 C428 1.291 . S
C427 H440 0.931 . S
C428 C427 1.291 . S
C428 C429 1.373 . S
C428 H441 0.929 . S
C429 C428 1.373 . S
C429 C430 1.396 . S
C429 C436 1.403 . S
C430 C420 1.476 . S
C430 N425 1.318 . S
C430 C429 1.396 . S
H431 C426 0.929 . S
O432 Mn408 2.385 . S
O432 C410 1.234 . S
O433 Mn408 2.209 . S
O433 Mn409 2.215 . S
O433 C410 1.283 . S
O434 Mn408 2.094 . S
O434 C412 1.240 . S
O435 Mn409 2.117 . S
O435 C412 1.264 . S
C436 C429 1.403 . S
C436 C437 1.399 . S
C436 H442 0.929 . S
C437 C417 1.449 . S
C437 C436 1.399 . S
C437 H443 0.930 . S
H438 C418 0.931 . S
H439 C419 0.930 . S
H440 C427 0.931 . S
H441 C428 0.929 . S
H442 C436 0.929 . S
H443 C437 0.930 . S
Mn444 O449 2.095 . S
Mn444 O459 2.162 . S
Mn444 O460 2.297 . S
Mn444 O468 2.385 . S
Mn444 O469 2.209 . S
Mn444 O470 2.094 . S
Mn445 O450 2.121 . S
Mn445 N452 2.257 . S
Mn445 N461 2.282 . S
Mn445 O469 2.215 . S
Mn445 O471 2.117 . S
C446 O468 1.234 . S
C446 O469 1.283 . S
C447 O459 1.281 . S
C447 O460 1.236 . S
C448 O470 1.240 . S
C448 O471 1.264 . S
O449 Mn444 2.095 . S
O449 C458 1.250 . S
O450 Mn445 2.121 . S
O450 C458 1.258 . S
C451 N452 1.326 . S
C451 C455 1.460 . S
C451 H457 0.929 . S
N452 Mn445 2.257 . S
N452 C451 1.326 . S
N452 C456 1.362 . S
C453 C454 1.258 . S
C453 C456 1.431 . S
C453 C473 1.449 . S
C454 C453 1.258 . S
C454 C455 1.477 . S
C454 H474 0.931 . S
C455 C451 1.460 . S
C455 C454 1.477 . S
C455 H475 0.930 . S
C456 N452 1.362 . S
C456 C453 1.431 . S
C456 C466 1.476 . S
H457 C451 0.929 . S
C458 O449 1.250 . S
C458 O450 1.258 . S
O459 Mn444 2.162 . S
O459 C447 1.281 . S
O460 Mn444 2.297 . S
O460 C447 1.236 . S
N461 Mn445 2.282 . S
N461 C462 1.328 . S
N461 C466 1.318 . S
C462 N461 1.328 . S
C462 C463 1.457 . S
C462 H467 0.929 . S
C463 C462 1.457 . S
C463 C464 1.291 . S
C463 H476 0.931 . S
C464 C463 1.291 . S
C464 C465 1.373 . S
C464 H477 0.929 . S
C465 C464 1.373 . S
C465 C466 1.396 . S
C465 C472 1.403 . S
C466 C456 1.476 . S
C466 N461 1.318 . S
C466 C465 1.396 . S
H467 C462 0.929 . S
O468 Mn444 2.385 . S
O468 C446 1.234 . S
O469 Mn444 2.209 . S
O469 Mn445 2.215 . S
O469 C446 1.283 . S
O470 Mn444 2.094 . S
O470 C448 1.240 . S
O471 Mn445 2.117 . S
O471 C448 1.264 . S
C472 C465 1.403 . S
C472 C473 1.399 . S
C472 H478 0.929 . S
C473 C453 1.449 . S
C473 C472 1.399 . S
C473 H479 0.930 . S
H474 C454 0.931 . S
H475 C455 0.930 . S
H476 C463 0.931 . S
H477 C464 0.929 . S
H478 C472 0.929 . S
H479 C473 0.930 . S
Mn480 O485 2.095 . S
Mn480 O495 2.162 . S
Mn480 O496 2.297 . S
Mn480 O504 2.385 . S
Mn480 O505 2.209 . S
Mn480 O506 2.094 . S
Mn481 O486 2.121 . S
Mn481 N488 2.257 . S
Mn481 N497 2.282 . S
Mn481 O505 2.215 . S
Mn481 O507 2.117 . S
C482 O504 1.234 . S
C482 O505 1.283 . S
C483 O495 1.281 . S
C483 O496 1.236 . S
C484 O506 1.240 . S
C484 O507 1.264 . S
O485 Mn480 2.095 . S
O485 C494 1.250 . S
O486 Mn481 2.121 . S
O486 C494 1.258 . S
C487 N488 1.326 . S
C487 C491 1.460 . S
C487 H493 0.929 . S
N488 Mn481 2.257 . S
N488 C487 1.326 . S
N488 C492 1.362 . S
C489 C490 1.258 . S
C489 C492 1.431 . S
C489 C509 1.449 . S
C490 C489 1.258 . S
C490 C491 1.477 . S
C490 H510 0.931 . S
C491 C487 1.460 . S
C491 C490 1.477 . S
C491 H511 0.930 . S
C492 N488 1.362 . S
C492 C489 1.431 . S
C492 C502 1.476 . S
H493 C487 0.929 . S
C494 O485 1.250 . S
C494 O486 1.258 . S
O495 Mn480 2.162 . S
O495 C483 1.281 . S
O496 Mn480 2.297 . S
O496 C483 1.236 . S
N497 Mn481 2.282 . S
N497 C498 1.328 . S
N497 C502 1.318 . S
C498 N497 1.328 . S
C498 C499 1.457 . S
C498 H503 0.929 . S
C499 C498 1.457 . S
C499 C500 1.291 . S
C499 H512 0.931 . S
C500 C499 1.291 . S
C500 C501 1.373 . S
C500 H513 0.929 . S
C501 C500 1.373 . S
C501 C502 1.396 . S
C501 C508 1.403 . S
C502 C492 1.476 . S
C502 N497 1.318 . S
C502 C501 1.396 . S
H503 C498 0.929 . S
O504 Mn480 2.385 . S
O504 C482 1.234 . S
O505 Mn480 2.209 . S
O505 Mn481 2.215 . S
O505 C482 1.283 . S
O506 Mn480 2.094 . S
O506 C484 1.240 . S
O507 Mn481 2.117 . S
O507 C484 1.264 . S
C508 C501 1.403 . S
C508 C509 1.399 . S
C508 H514 0.929 . S
C509 C489 1.449 . S
C509 C508 1.399 . S
C509 H515 0.930 . S
H510 C490 0.931 . S
H511 C491 0.930 . S
H512 C499 0.931 . S
H513 C500 0.929 . S
H514 C508 0.929 . S
H515 C509 0.930 . S
Mn516 O521 2.095 . S
Mn516 O531 2.162 . S
Mn516 O532 2.297 . S
Mn516 O540 2.385 . S
Mn516 O541 2.209 . S
Mn516 O542 2.094 . S
Mn517 O522 2.121 . S
Mn517 N524 2.257 . S
Mn517 N533 2.282 . S
Mn517 O541 2.215 . S
Mn517 O543 2.117 . S
C518 O540 1.234 . S
C518 O541 1.283 . S
C519 O531 1.281 . S
C519 O532 1.236 . S
C520 O542 1.240 . S
C520 O543 1.264 . S
O521 Mn516 2.095 . S
O521 C530 1.250 . S
O522 Mn517 2.121 . S
O522 C530 1.258 . S
C523 N524 1.326 . S
C523 C527 1.460 . S
C523 H529 0.929 . S
N524 Mn517 2.257 . S
N524 C523 1.326 . S
N524 C528 1.362 . S
C525 C526 1.258 . S
C525 C528 1.431 . S
C525 C545 1.449 . S
C526 C525 1.258 . S
C526 C527 1.477 . S
C526 H546 0.931 . S
C527 C523 1.460 . S
C527 C526 1.477 . S
C527 H547 0.930 . S
C528 N524 1.362 . S
C528 C525 1.431 . S
C528 C538 1.476 . S
H529 C523 0.929 . S
C530 O521 1.250 . S
C530 O522 1.258 . S
O531 Mn516 2.162 . S
O531 C519 1.281 . S
O532 Mn516 2.297 . S
O532 C519 1.236 . S
N533 Mn517 2.282 . S
N533 C534 1.328 . S
N533 C538 1.318 . S
C534 N533 1.328 . S
C534 C535 1.457 . S
C534 H539 0.929 . S
C535 C534 1.457 . S
C535 C536 1.291 . S
C535 H548 0.931 . S
C536 C535 1.291 . S
C536 C537 1.373 . S
C536 H549 0.929 . S
C537 C536 1.373 . S
C537 C538 1.396 . S
C537 C544 1.403 . S
C538 C528 1.476 . S
C538 N533 1.318 . S
C538 C537 1.396 . S
H539 C534 0.929 . S
O540 Mn516 2.385 . S
O540 C518 1.234 . S
O541 Mn516 2.209 . S
O541 Mn517 2.215 . S
O541 C518 1.283 . S
O542 Mn516 2.094 . S
O542 C520 1.240 . S
O543 Mn517 2.117 . S
O543 C520 1.264 . S
C544 C537 1.403 . S
C544 C545 1.399 . S
C544 H550 0.929 . S
C545 C525 1.449 . S
C545 C544 1.399 . S
C545 H551 0.930 . S
H546 C526 0.931 . S
H547 C527 0.930 . S
H548 C535 0.931 . S
H549 C536 0.929 . S
H550 C544 0.929 . S
H551 C545 0.930 . S
Mn552 O557 2.095 . S
Mn552 O567 2.162 . S
Mn552 O568 2.297 . S
Mn552 O576 2.385 . S
Mn552 O577 2.209 . S
Mn552 O578 2.094 . S
Mn553 O558 2.121 . S
Mn553 N560 2.257 . S
Mn553 N569 2.282 . S
Mn553 O577 2.215 . S
Mn553 O579 2.117 . S
C554 O576 1.234 . S
C554 O577 1.283 . S
C555 O567 1.281 . S
C555 O568 1.236 . S
C556 O578 1.240 . S
C556 O579 1.264 . S
O557 Mn552 2.095 . S
O557 C566 1.250 . S
O558 Mn553 2.121 . S
O558 C566 1.258 . S
C559 N560 1.326 . S
C559 C563 1.460 . S
C559 H565 0.929 . S
N560 Mn553 2.257 . S
N560 C559 1.326 . S
N560 C564 1.362 . S
C561 C562 1.258 . S
C561 C564 1.431 . S
C561 C581 1.449 . S
C562 C561 1.258 . S
C562 C563 1.477 . S
C562 H582 0.931 . S
C563 C559 1.460 . S
C563 C562 1.477 . S
C563 H583 0.930 . S
C564 N560 1.362 . S
C564 C561 1.431 . S
C564 C574 1.476 . S
H565 C559 0.929 . S
C566 O557 1.250 . S
C566 O558 1.258 . S
O567 Mn552 2.162 . S
O567 C555 1.281 . S
O568 Mn552 2.297 . S
O568 C555 1.236 . S
N569 Mn553 2.282 . S
N569 C570 1.328 . S
N569 C574 1.318 . S
C570 N569 1.328 . S
C570 C571 1.457 . S
C570 H575 0.929 . S
C571 C570 1.457 . S
C571 C572 1.291 . S
C571 H584 0.931 . S
C572 C571 1.291 . S
C572 C573 1.373 . S
C572 H585 0.929 . S
C573 C572 1.373 . S
C573 C574 1.396 . S
C573 C580 1.403 . S
C574 C564 1.476 . S
C574 N569 1.318 . S
C574 C573 1.396 . S
H575 C570 0.929 . S
O576 Mn552 2.385 . S
O576 C554 1.234 . S
O577 Mn552 2.209 . S
O577 Mn553 2.215 . S
O577 C554 1.283 . S
O578 Mn552 2.094 . S
O578 C556 1.240 . S
O579 Mn553 2.117 . S
O579 C556 1.264 . S
C580 C573 1.403 . S
C580 C581 1.399 . S
C580 H586 0.929 . S
C581 C561 1.449 . S
C581 C580 1.399 . S
C581 H587 0.930 . S
H582 C562 0.931 . S
H583 C563 0.930 . S
H584 C571 0.931 . S
H585 C572 0.929 . S
H586 C580 0.929 . S
H587 C581 0.930 . S
C588 C589 1.363 . S
C588 C594 1.379 . S
C588 N596 1.356 . S
C589 C588 1.363 . S
C589 C595 1.363 . S
C590 C591 1.363 . S
C590 C595 1.379 . S
C590 N597 1.356 . S
C591 C590 1.363 . S
C591 C594 1.363 . S
N592 C594 1.356 . S
N592 H604 0.984 . S
N592 H605 0.985 . S
N593 C595 1.356 . S
N593 H598 0.984 . S
N593 H599 0.985 . S
C594 C588 1.379 . S
C594 C591 1.363 . S
C594 N592 1.356 . S
C595 C589 1.363 . S
C595 C590 1.379 . S
C595 N593 1.356 . S
N596 C588 1.356 . S
N596 H602 0.984 . S
N596 H603 0.984 . S
N597 C590 1.356 . S
N597 H600 0.984 . S
N597 H601 0.985 . S
H598 N593 0.984 . S
H599 N593 0.985 . S
H600 N597 0.984 . S
H601 N597 0.985 . S
H602 N596 0.984 . S
H603 N596 0.984 . S
H604 N592 0.984 . S
H605 N592 0.985 . S
C606 C607 1.363 . S
C606 C612 1.379 . S
C606 N614 1.356 . S
C607 C606 1.363 . S
C607 C613 1.363 . S
C608 C609 1.363 . S
C608 C613 1.379 . S
C608 N615 1.356 . S
C609 C608 1.363 . S
C609 C612 1.363 . S
N610 C612 1.356 . S
N610 H622 0.984 . S
N610 H623 0.985 . S
N611 C613 1.356 . S
N611 H616 0.984 . S
N611 H617 0.985 . S
C612 C606 1.379 . S
C612 C609 1.363 . S
C612 N610 1.356 . S
C613 C607 1.363 . S
C613 C608 1.379 . S
C613 N611 1.356 . S
N614 C606 1.356 . S
N614 H620 0.984 . S
N614 H621 0.984 . S
N615 C608 1.356 . S
N615 H618 0.984 . S
N615 H619 0.985 . S
H616 N611 0.984 . S
H617 N611 0.985 . S
H618 N615 0.984 . S
H619 N615 0.985 . S
H620 N614 0.984 . S
H621 N614 0.984 . S
H622 N610 0.984 . S
H623 N610 0.985 . S
C624 C625 1.363 . S
C624 C630 1.379 . S
C624 N632 1.356 . S
C625 C624 1.363 . S
C625 C631 1.363 . S
C626 C627 1.363 . S
C626 C631 1.379 . S
C626 N633 1.356 . S
C627 C626 1.363 . S
C627 C630 1.363 . S
N628 C630 1.356 . S
N628 H640 0.984 . S
N628 H641 0.985 . S
N629 C631 1.356 . S
N629 H634 0.984 . S
N629 H635 0.985 . S
C630 C624 1.379 . S
C630 C627 1.363 . S
C630 N628 1.356 . S
C631 C625 1.363 . S
C631 C626 1.379 . S
C631 N629 1.356 . S
N632 C624 1.356 . S
N632 H638 0.984 . S
N632 H639 0.984 . S
N633 C626 1.356 . S
N633 H636 0.984 . S
N633 H637 0.985 . S
H634 N629 0.984 . S
H635 N629 0.985 . S
H636 N633 0.984 . S
H637 N633 0.985 . S
H638 N632 0.984 . S
H639 N632 0.984 . S
H640 N628 0.984 . S
H641 N628 0.985 . S
C642 C643 1.363 . S
C642 C648 1.379 . S
C642 N650 1.356 . S
C643 C642 1.363 . S
C643 C649 1.363 . S
C644 C645 1.363 . S
C644 C649 1.379 . S
C644 N651 1.356 . S
C645 C644 1.363 . S
C645 C648 1.363 . S
N646 C648 1.356 . S
N646 H658 0.984 . S
N646 H659 0.985 . S
N647 C649 1.356 . S
N647 H652 0.984 . S
N647 H653 0.985 . S
C648 C642 1.379 . S
C648 C645 1.363 . S
C648 N646 1.356 . S
C649 C643 1.363 . S
C649 C644 1.379 . S
C649 N647 1.356 . S
N650 C642 1.356 . S
N650 H656 0.984 . S
N650 H657 0.984 . S
N651 C644 1.356 . S
N651 H654 0.984 . S
N651 H655 0.985 . S
H652 N647 0.984 . S
H653 N647 0.985 . S
H654 N651 0.984 . S
H655 N651 0.985 . S
H656 N650 0.984 . S
H657 N650 0.984 . S
H658 N646 0.984 . S
H659 N646 0.985 . S
C660 C661 1.363 . S
C660 C666 1.379 . S
C660 N668 1.356 . S
C661 C660 1.363 . S
C661 C667 1.363 . S
C662 C663 1.363 . S
C662 C667 1.379 . S
C662 N669 1.356 . S
C663 C662 1.363 . S
C663 C666 1.363 . S
N664 C666 1.356 . S
N664 H676 0.984 . S
N664 H677 0.985 . S
N665 C667 1.356 . S
N665 H670 0.984 . S
N665 H671 0.985 . S
C666 C660 1.379 . S
C666 C663 1.363 . S
C666 N664 1.356 . S
C667 C661 1.363 . S
C667 C662 1.379 . S
C667 N665 1.356 . S
N668 C660 1.356 . S
N668 H674 0.984 . S
N668 H675 0.984 . S
N669 C662 1.356 . S
N669 H672 0.984 . S
N669 H673 0.985 . S
H670 N665 0.984 . S
H671 N665 0.985 . S
H672 N669 0.984 . S
H673 N669 0.985 . S
H674 N668 0.984 . S
H675 N668 0.984 . S
H676 N664 0.984 . S
H677 N664 0.985 . S
C678 C679 1.363 . S
C678 C684 1.379 . S
C678 N686 1.356 . S
C679 C678 1.363 . S
C679 C685 1.363 . S
C680 C681 1.363 . S
C680 C685 1.379 . S
C680 N687 1.356 . S
C681 C680 1.363 . S
C681 C684 1.363 . S
N682 C684 1.356 . S
N682 H694 0.984 . S
N682 H695 0.985 . S
N683 C685 1.356 . S
N683 H688 0.984 . S
N683 H689 0.985 . S
C684 C678 1.379 . S
C684 C681 1.363 . S
C684 N682 1.356 . S
C685 C679 1.363 . S
C685 C680 1.379 . S
C685 N683 1.356 . S
N686 C678 1.356 . S
N686 H692 0.984 . S
N686 H693 0.984 . S
N687 C680 1.356 . S
N687 H690 0.984 . S
N687 H691 0.985 . S
H688 N683 0.984 . S
H689 N683 0.985 . S
H690 N687 0.984 . S
H691 N687 0.985 . S
H692 N686 0.984 . S
H693 N686 0.984 . S
H694 N682 0.984 . S
H695 N682 0.985 . S
C696 C697 1.363 . S
C696 C702 1.379 . S
C696 N704 1.356 . S
C697 C696 1.363 . S
C697 C703 1.363 . S
C698 C699 1.363 . S
C698 C703 1.379 . S
C698 N705 1.356 . S
C699 C698 1.363 . S
C699 C702 1.363 . S
N700 C702 1.356 . S
N700 H712 0.984 . S
N700 H713 0.985 . S
N701 C703 1.356 . S
N701 H706 0.984 . S
N701 H707 0.985 . S
C702 C696 1.379 . S
C702 C699 1.363 . S
C702 N700 1.356 . S
C703 C697 1.363 . S
C703 C698 1.379 . S
C703 N701 1.356 . S
N704 C696 1.356 . S
N704 H710 0.984 . S
N704 H711 0.984 . S
N705 C698 1.356 . S
N705 H708 0.984 . S
N705 H709 0.985 . S
H706 N701 0.984 . S
H707 N701 0.985 . S
H708 N705 0.984 . S
H709 N705 0.985 . S
H710 N704 0.984 . S
H711 N704 0.984 . S
H712 N700 0.984 . S
H713 N700 0.985 . S
C714 C715 1.363 . S
C714 C720 1.379 . S
C714 N722 1.356 . S
C715 C714 1.363 . S
C715 C721 1.363 . S
C716 C717 1.363 . S
C716 C721 1.379 . S
C716 N723 1.356 . S
C717 C716 1.363 . S
C717 C720 1.363 . S
N718 C720 1.356 . S
N718 H730 0.984 . S
N718 H731 0.985 . S
N719 C721 1.356 . S
N719 H724 0.984 . S
N719 H725 0.985 . S
C720 C714 1.379 . S
C720 C717 1.363 . S
C720 N718 1.356 . S
C721 C715 1.363 . S
C721 C716 1.379 . S
C721 N719 1.356 . S
N722 C714 1.356 . S
N722 H728 0.984 . S
N722 H729 0.984 . S
N723 C716 1.356 . S
N723 H726 0.984 . S
N723 H727 0.985 . S
H724 N719 0.984 . S
H725 N719 0.985 . S
H726 N723 0.984 . S
H727 N723 0.985 . S
H728 N722 0.984 . S
H729 N722 0.984 . S
H730 N718 0.984 . S
H731 N718 0.985 . S
C732 C733 1.363 . S
C732 C738 1.379 . S
C732 N740 1.356 . S
C733 C732 1.363 . S
C733 C739 1.363 . S
C734 C735 1.363 . S
C734 C739 1.379 . S
C734 N741 1.356 . S
C735 C734 1.363 . S
C735 C738 1.363 . S
N736 C738 1.356 . S
N736 H748 0.984 . S
N736 H749 0.985 . S
N737 C739 1.356 . S
N737 H742 0.984 . S
N737 H743 0.985 . S
C738 C732 1.379 . S
C738 C735 1.363 . S
C738 N736 1.356 . S
C739 C733 1.363 . S
C739 C734 1.379 . S
C739 N737 1.356 . S
N740 C732 1.356 . S
N740 H746 0.984 . S
N740 H747 0.984 . S
N741 C734 1.356 . S
N741 H744 0.984 . S
N741 H745 0.985 . S
H742 N737 0.984 . S
H743 N737 0.985 . S
H744 N741 0.984 . S
H745 N741 0.985 . S
H746 N740 0.984 . S
H747 N740 0.984 . S
H748 N736 0.984 . S
H749 N736 0.985 . S
C750 C751 1.363 . S
C750 C756 1.379 . S
C750 N758 1.356 . S
C751 C750 1.363 . S
C751 C757 1.363 . S
C752 C753 1.363 . S
C752 C757 1.379 . S
C752 N759 1.356 . S
C753 C752 1.363 . S
C753 C756 1.363 . S
N754 C756 1.356 . S
N754 H766 0.984 . S
N754 H767 0.985 . S
N755 C757 1.356 . S
N755 H760 0.984 . S
N755 H761 0.985 1_554 S
C756 C750 1.379 . S
C756 C753 1.363 . S
C756 N754 1.356 . S
C757 C751 1.363 . S
C757 C752 1.379 . S
C757 N755 1.356 . S
N758 C750 1.356 . S
N758 H764 0.984 . S
N758 H765 0.984 . S
N759 C752 1.356 . S
N759 H762 0.984 . S
N759 H763 0.985 1_554 S
H760 N755 0.984 . S
H761 N755 0.985 1_556 S
H762 N759 0.984 . S
H763 N759 0.985 1_556 S
H764 N758 0.984 . S
H765 N758 0.984 . S
H766 N754 0.984 . S
H767 N754 0.985 . S
C768 C769 1.363 . S
C768 C774 1.379 . S
C768 N776 1.356 . S
C769 C768 1.363 . S
C769 C775 1.363 . S
C770 C771 1.363 . S
C770 C775 1.379 . S
C770 N777 1.356 . S
C771 C770 1.363 . S
C771 C774 1.363 . S
N772 C774 1.356 . S
N772 H784 0.984 . S
N772 H785 0.985 . S
N773 C775 1.356 . S
N773 H778 0.984 . S
N773 H779 0.985 . S
C774 C768 1.379 . S
C774 C771 1.363 . S
C774 N772 1.356 . S
C775 C769 1.363 . S
C775 C770 1.379 . S
C775 N773 1.356 . S
N776 C768 1.356 . S
N776 H782 0.984 . S
N776 H783 0.984 . S
N777 C770 1.356 . S
N777 H780 0.984 . S
N777 H781 0.985 . S
H778 N773 0.984 . S
H779 N773 0.985 . S
H780 N777 0.984 . S
H781 N777 0.985 . S
H782 N776 0.984 . S
H783 N776 0.984 . S
H784 N772 0.984 . S
H785 N772 0.985 . S
C786 C787 1.363 . S
C786 C792 1.379 . S
C786 N794 1.356 . S
C787 C786 1.363 . S
C787 C793 1.363 . S
C788 C789 1.363 . S
C788 C793 1.379 . S
C788 N795 1.356 . S
C789 C788 1.363 . S
C789 C792 1.363 . S
N790 C792 1.356 . S
N790 H802 0.984 . S
N790 H803 0.985 . S
N791 C793 1.356 . S
N791 H796 0.984 . S
N791 H797 0.985 . S
C792 C786 1.379 . S
C792 C789 1.363 . S
C792 N790 1.356 . S
C793 C787 1.363 . S
C793 C788 1.379 . S
C793 N791 1.356 . S
N794 C786 1.356 . S
N794 H800 0.984 . S
N794 H801 0.984 . S
N795 C788 1.356 . S
N795 H798 0.984 . S
N795 H799 0.985 . S
H796 N791 0.984 . S
H797 N791 0.985 . S
H798 N795 0.984 . S
H799 N795 0.985 . S
H800 N794 0.984 . S
H801 N794 0.984 . S
H802 N790 0.984 . S
H803 N790 0.985 . S
C804 C805 1.363 . S
C804 C810 1.379 . S
C804 N812 1.356 . S
C805 C804 1.363 . S
C805 C811 1.363 . S
C806 C807 1.363 . S
C806 C811 1.379 . S
C806 N813 1.356 . S
C807 C806 1.363 . S
C807 C810 1.363 . S
N808 C810 1.356 . S
N808 H820 0.984 . S
N808 H821 0.985 . S
N809 C811 1.356 . S
N809 H814 0.984 . S
N809 H815 0.985 . S
C810 C804 1.379 . S
C810 C807 1.363 . S
C810 N808 1.356 . S
C811 C805 1.363 . S
C811 C806 1.379 . S
C811 N809 1.356 . S
N812 C804 1.356 . S
N812 H818 0.984 . S
N812 H819 0.984 . S
N813 C806 1.356 . S
N813 H816 0.984 . S
N813 H817 0.985 . S
H814 N809 0.984 . S
H815 N809 0.985 . S
H816 N813 0.984 . S
H817 N813 0.985 . S
H818 N812 0.984 . S
H819 N812 0.984 . S
H820 N808 0.984 . S
H821 N808 0.985 . S
C822 C823 1.363 . S
C822 C828 1.379 . S
C822 N830 1.356 . S
C823 C822 1.363 . S
C823 C829 1.363 . S
C824 C825 1.363 . S
C824 C829 1.379 . S
C824 N831 1.356 . S
C825 C824 1.363 . S
C825 C828 1.363 . S
N826 C828 1.356 . S
N826 H838 0.984 . S
N826 H839 0.985 . S
N827 C829 1.356 . S
N827 H832 0.984 . S
N827 H833 0.985 . S
C828 C822 1.379 . S
C828 C825 1.363 . S
C828 N826 1.356 . S
C829 C823 1.363 . S
C829 C824 1.379 . S
C829 N827 1.356 . S
N830 C822 1.356 . S
N830 H836 0.984 . S
N830 H837 0.984 . S
N831 C824 1.356 . S
N831 H834 0.984 . S
N831 H835 0.985 . S
H832 N827 0.984 . S
H833 N827 0.985 . S
H834 N831 0.984 . S
H835 N831 0.985 . S
H836 N830 0.984 . S
H837 N830 0.984 . S
H838 N826 0.984 . S
H839 N826 0.985 . S
C840 C841 1.363 . S
C840 C846 1.379 . S
C840 N848 1.356 . S
C841 C840 1.363 . S
C841 C847 1.363 . S
C842 C843 1.363 . S
C842 C847 1.379 . S
C842 N849 1.356 . S
C843 C842 1.363 . S
C843 C846 1.363 . S
N844 C846 1.356 . S
N844 H856 0.984 . S
N844 H857 0.985 . S
N845 C847 1.356 . S
N845 H850 0.984 . S
N845 H851 0.985 . S
C846 C840 1.379 . S
C846 C843 1.363 . S
C846 N844 1.356 . S
C847 C841 1.363 . S
C847 C842 1.379 . S
C847 N845 1.356 . S
N848 C840 1.356 . S
N848 H854 0.984 . S
N848 H855 0.984 . S
N849 C842 1.356 . S
N849 H852 0.984 . S
N849 H853 0.985 . S
H850 N845 0.984 . S
H851 N845 0.985 . S
H852 N849 0.984 . S
H853 N849 0.985 . S
H854 N848 0.984 . S
H855 N848 0.984 . S
H856 N844 0.984 . S
H857 N844 0.985 . S
C858 C859 1.363 . S
C858 C864 1.379 . S
C858 N866 1.356 . S
C859 C858 1.363 . S
C859 C865 1.363 . S
C860 C861 1.363 . S
C860 C865 1.379 . S
C860 N867 1.356 1_556 S
C861 C860 1.363 . S
C861 C864 1.363 . S
N862 C864 1.356 . S
N862 H874 0.984 . S
N862 H875 0.985 . S
N863 C865 1.356 . S
N863 H868 0.984 . S
N863 H869 0.985 . S
C864 C858 1.379 . S
C864 C861 1.363 . S
C864 N862 1.356 . S
C865 C859 1.363 . S
C865 C860 1.379 . S
C865 N863 1.356 . S
N866 C858 1.356 . S
N866 H872 0.984 . S
N866 H873 0.984 . S
N867 C860 1.356 1_554 S
N867 H870 0.984 . S
N867 H871 0.985 . S
H868 N863 0.984 . S
H869 N863 0.985 . S
H870 N867 0.984 . S
H871 N867 0.985 . S
H872 N866 0.984 . S
H873 N866 0.984 . S
H874 N862 0.984 . S
H875 N862 0.985 . S
C876 C877 1.363 . S
C876 C882 1.379 . S
C876 N884 1.356 . S
C877 C876 1.363 . S
C877 C883 1.363 . S
C878 C879 1.363 . S
C878 C883 1.379 . S
C878 N885 1.356 . S
C879 C878 1.363 . S
C879 C882 1.363 . S
N880 C882 1.356 . S
N880 H892 0.984 . S
N880 H893 0.985 . S
N881 C883 1.356 . S
N881 H886 0.984 . S
N881 H887 0.985 . S
C882 C876 1.379 . S
C882 C879 1.363 . S
C882 N880 1.356 . S
C883 C877 1.363 . S
C883 C878 1.379 . S
C883 N881 1.356 . S
N884 C876 1.356 . S
N884 H890 0.984 . S
N884 H891 0.984 . S
N885 C878 1.356 . S
N885 H888 0.984 . S
N885 H889 0.985 . S
H886 N881 0.984 . S
H887 N881 0.985 . S
H888 N885 0.984 . S
H889 N885 0.985 . S
H890 N884 0.984 . S
H891 N884 0.984 . S
H892 N880 0.984 . S
H893 N880 0.985 . S
C894 C895 1.363 . S
C894 C900 1.379 . S
C894 N902 1.356 . S
C895 C894 1.363 . S
C895 C901 1.363 . S
C896 C897 1.363 . S
C896 C901 1.379 . S
C896 N903 1.356 . S
C897 C896 1.363 . S
C897 C900 1.363 . S
N898 C900 1.356 . S
N898 H910 0.984 . S
N898 H911 0.985 . S
N899 C901 1.356 . S
N899 H904 0.984 . S
N899 H905 0.985 . S
C900 C894 1.379 . S
C900 C897 1.363 . S
C900 N898 1.356 . S
C901 C895 1.363 . S
C901 C896 1.379 . S
C901 N899 1.356 . S
N902 C894 1.356 . S
N902 H908 0.984 . S
N902 H909 0.984 . S
N903 C896 1.356 . S
N903 H906 0.984 . S
N903 H907 0.985 . S
H904 N899 0.984 . S
H905 N899 0.985 . S
H906 N903 0.984 . S
H907 N903 0.985 . S
H908 N902 0.984 . S
H909 N902 0.984 . S
H910 N898 0.984 . S
H911 N898 0.985 . S
C912 C913 1.363 . S
C912 C918 1.379 . S
C912 N920 1.356 . S
C913 C912 1.363 . S
C913 C919 1.363 . S
C914 C915 1.363 . S
C914 C919 1.379 . S
C914 N921 1.356 . S
C915 C914 1.363 . S
C915 C918 1.363 . S
N916 C918 1.356 . S
N916 H928 0.984 . S
N916 H929 0.985 . S
N917 C919 1.356 . S
N917 H922 0.984 . S
N917 H923 0.985 . S
C918 C912 1.379 . S
C918 C915 1.363 . S
C918 N916 1.356 . S
C919 C913 1.363 . S
C919 C914 1.379 . S
C919 N917 1.356 . S
N920 C912 1.356 . S
N920 H926 0.984 . S
N920 H927 0.984 . S
N921 C914 1.356 . S
N921 H924 0.984 . S
N921 H925 0.985 . S
H922 N917 0.984 . S
H923 N917 0.985 . S
H924 N921 0.984 . S
H925 N921 0.985 . S
H926 N920 0.984 . S
H927 N920 0.984 . S
H928 N916 0.984 . S
H929 N916 0.985 . S
C930 C931 1.363 . S
C930 C936 1.379 . S
C930 N938 1.356 . S
C931 C930 1.363 . S
C931 C937 1.363 . S
C932 C933 1.363 . S
C932 C937 1.379 . S
C932 N939 1.356 . S
C933 C932 1.363 . S
C933 C936 1.363 . S
N934 C936 1.356 . S
N934 H946 0.984 . S
N934 H947 0.985 . S
N935 C937 1.356 . S
N935 H940 0.984 . S
N935 H941 0.985 . S
C936 C930 1.379 . S
C936 C933 1.363 . S
C936 N934 1.356 . S
C937 C931 1.363 . S
C937 C932 1.379 . S
C937 N935 1.356 . S
N938 C930 1.356 . S
N938 H944 0.984 . S
N938 H945 0.984 . S
N939 C932 1.356 . S
N939 H942 0.984 . S
N939 H943 0.985 . S
H940 N935 0.984 . S
H941 N935 0.985 . S
H942 N939 0.984 . S
H943 N939 0.985 . S
H944 N938 0.984 . S
H945 N938 0.984 . S
H946 N934 0.984 . S
H947 N934 0.985 . S
C948 C949 1.363 . S
C948 C954 1.379 . S
C948 N956 1.356 . S
C949 C948 1.363 . S
C949 C955 1.363 . S
C950 C951 1.363 . S
C950 C955 1.379 . S
C950 N957 1.356 . S
C951 C950 1.363 . S
C951 C954 1.363 . S
N952 C954 1.356 . S
N952 H964 0.984 . S
N952 H965 0.985 . S
N953 C955 1.356 . S
N953 H958 0.984 . S
N953 H959 0.985 . S
C954 C948 1.379 . S
C954 C951 1.363 . S
C954 N952 1.356 . S
C955 C949 1.363 . S
C955 C950 1.379 . S
C955 N953 1.356 . S
N956 C948 1.356 . S
N956 H962 0.984 . S
N956 H963 0.984 . S
N957 C950 1.356 . S
N957 H960 0.984 . S
N957 H961 0.985 . S
H958 N953 0.984 . S
H959 N953 0.985 . S
H960 N957 0.984 . S
H961 N957 0.985 . S
H962 N956 0.984 . S
H963 N956 0.984 . S
H964 N952 0.984 . S
H965 N952 0.985 . S
C966 C967 1.363 . S
C966 C972 1.379 . S
C966 N974 1.356 . S
C967 C966 1.363 . S
C967 C973 1.363 . S
C968 C969 1.363 . S
C968 C973 1.379 . S
C968 N975 1.356 . S
C969 C968 1.363 . S
C969 C972 1.363 . S
N970 C972 1.356 . S
N970 H982 0.984 . S
N970 H983 0.985 . S
N971 C973 1.356 . S
N971 H976 0.984 . S
N971 H977 0.985 . S
C972 C966 1.379 . S
C972 C969 1.363 . S
C972 N970 1.356 . S
C973 C967 1.363 . S
C973 C968 1.379 . S
C973 N971 1.356 . S
N974 C966 1.356 . S
N974 H980 0.984 . S
N974 H981 0.984 . S
N975 C968 1.356 . S
N975 H978 0.984 . S
N975 H979 0.985 . S
H976 N971 0.984 . S
H977 N971 0.985 . S
H978 N975 0.984 . S
H979 N975 0.985 . S
H980 N974 0.984 . S
H981 N974 0.984 . S
H982 N970 0.984 . S
H983 N970 0.985 . S
C984 C985 1.379 . S
C984 C990 1.379 . S
C984 N992 1.356 . S
C985 C984 1.379 . S
C985 C991 1.358 1_556 S
C986 C987 1.363 . S
C986 C991 1.379 1_556 S
C986 N993 1.356 . S
C987 C986 1.363 . S
C987 C990 1.363 . S
N988 C990 1.356 . S
N988 H1000 0.984 . S
N988 H1001 0.985 . S
N989 C991 1.356 . S
N989 H994 0.984 . S
N989 H995 0.985 . S
C990 C984 1.379 . S
C990 C987 1.363 . S
C990 N988 1.356 . S
C991 C985 1.358 1_554 S
C991 C986 1.379 1_554 S
C991 N989 1.356 . S
N992 C984 1.356 . S
N992 H998 0.984 . S
N992 H999 0.984 . S
N993 C986 1.356 . S
N993 H996 0.984 . S
N993 H997 0.985 1_556 S
H994 N989 0.984 . S
H995 N989 0.985 . S
H996 N993 0.984 . S
H997 N993 0.985 1_554 S
H998 N992 0.984 . S
H999 N992 0.984 . S
H1000 N988 0.984 . S
H1001 N988 0.985 . S
C1002 C1003 1.363 . S
C1002 C1008 1.379 . S
C1002 N1010 1.356 . S
C1003 C1002 1.363 . S
C1003 C1009 1.363 . S
C1004 C1005 1.363 . S
C1004 C1009 1.379 . S
C1004 N1011 1.356 . S
C1005 C1004 1.363 . S
C1005 C1008 1.363 . S
N1006 C1008 1.356 . S
N1006 H1018 0.984 . S
N1006 H1019 0.985 . S
N1007 C1009 1.356 . S
N1007 H1012 0.984 . S
N1007 H1013 0.985 . S
C1008 C1002 1.379 . S
C1008 C1005 1.363 . S
C1008 N1006 1.356 . S
C1009 C1003 1.363 . S
C1009 C1004 1.379 . S
C1009 N1007 1.356 . S
N1010 C1002 1.356 . S
N1010 H1016 0.984 . S
N1010 H1017 0.984 . S
N1011 C1004 1.356 . S
N1011 H1014 0.984 . S
N1011 H1015 0.985 . S
H1012 N1007 0.984 . S
H1013 N1007 0.985 . S
H1014 N1011 0.984 . S
H1015 N1011 0.985 . S
H1016 N1010 0.984 . S
H1017 N1010 0.984 . S
H1018 N1006 0.984 . S
H1019 N1006 0.985 . S
C591 C555 1.692 . S
C589 C29 1.611 . S
C607 C115 1.646 . S
C609 C375 1.657 . S
C625 C153 1.582 . S
C627 C422 1.678 . S
C643 C239 1.552 . S
C645 C458 1.556 . S
C663 C483 1.622 . S
C661 C301 1.600 . S
C679 C339 1.784 . S
C681 C519 1.911 . S
C697 C91 1.616 . S
C699 C411 1.720 . S
C715 C177 1.588 . S
C717 C447 1.595 . S
C733 C215 1.536 . S
C735 C494 1.632 . S
C753 C530 1.920 . S
C751 C277 1.792 . S
C771 C566 1.638 . S
C769 C363 1.620 . S
C789 C386 1.618 . S
C787 C53 1.604 . S
C805 C35 1.542 . S
C807 C410 1.551 . S
C823 C109 1.404 . S
C825 C446 1.511 . S
C843 C484 1.494 . S
C841 C159 1.487 . S
C859 C233 1.579 . S
C861 C520 1.705 1_556 S
C879 C556 1.527 . S
C877 C295 1.374 . S
C897 C376 1.380 . S
C895 C345 1.373 . S
C915 C554 1.474 . S
C913 C97 1.471 . S
C931 C171 1.377 . S
C933 C374 1.489 . S
C951 C412 1.552 . S
C949 C221 1.534 . S
C967 C283 1.438 . S
C969 C448 1.439 . S
C985 C357 1.412 1_556 S
C987 C482 1.554 . S
C1003 C47 1.607 . S
C1005 C518 1.709 . S
