# Generated by pormake.
# Topology ctn, (3,4)-cn, num edge types: 1
# Building blocks:
#     Node 0, Type 0, BuildingBlock: QEWDON_clean_linker_0, # of connection points: 3
#     Node 1, Type 0, BuildingBlock: QEWDON_clean_linker_0, # of connection points: 3
#     Node 2, Type 0, BuildingBlock: QEWDON_clean_linker_0, # of connection points: 3
#     Node 3, Type 0, BuildingBlock: QEWDON_clean_linker_0, # of connection points: 3
#     Node 4, Type 0, BuildingBlock: QEWDON_clean_linker_0, # of connection points: 3
#     Node 5, Type 0, BuildingBlock: QEWDON_clean_linker_0, # of connection points: 3
#     Node 6, Type 0, BuildingBlock: QEWDON_clean_linker_0, # of connection points: 3
#     Node 7, Type 0, BuildingBlock: QEWDON_clean_linker_0, # of connection points: 3
#     Node 8, Type 0, BuildingBlock: QEWDON_clean_linker_0, # of connection points: 3
#     Node 9, Type 0, BuildingBlock: QEWDON_clean_linker_0, # of connection points: 3
#     Node 10, Type 0, BuildingBlock: QEWDON_clean_linker_0, # of connection points: 3
#     Node 11, Type 0, BuildingBlock: QEWDON_clean_linker_0, # of connection points: 3
#     Node 12, Type 0, BuildingBlock: QEWDON_clean_linker_0, # of connection points: 3
#     Node 13, Type 0, BuildingBlock: QEWDON_clean_linker_0, # of connection points: 3
#     Node 14, Type 0, BuildingBlock: QEWDON_clean_linker_0, # of connection points: 3
#     Node 15, Type 0, BuildingBlock: QEWDON_clean_linker_0, # of connection points: 3
#     Node 16, Type 1, BuildingBlock: TATPOV_clean_sbu_0, # of connection points: 4
#     Node 17, Type 1, BuildingBlock: TATPOV_clean_sbu_0, # of connection points: 4
#     Node 18, Type 1, BuildingBlock: TATPOV_clean_sbu_0, # of connection points: 4
#     Node 19, Type 1, BuildingBlock: TATPOV_clean_sbu_0, # of connection points: 4
#     Node 20, Type 1, BuildingBlock: TATPOV_clean_sbu_0, # of connection points: 4
#     Node 21, Type 1, BuildingBlock: TATPOV_clean_sbu_0, # of connection points: 4
#     Node 22, Type 1, BuildingBlock: TATPOV_clean_sbu_0, # of connection points: 4
#     Node 23, Type 1, BuildingBlock: TATPOV_clean_sbu_0, # of connection points: 4
#     Node 24, Type 1, BuildingBlock: TATPOV_clean_sbu_0, # of connection points: 4
#     Node 25, Type 1, BuildingBlock: TATPOV_clean_sbu_0, # of connection points: 4
#     Node 26, Type 1, BuildingBlock: TATPOV_clean_sbu_0, # of connection points: 4
#     Node 27, Type 1, BuildingBlock: TATPOV_clean_sbu_0, # of connection points: 4
#     Edge 28, Type (0, 1), None
#     Edge 29, Type (0, 1), None
#     Edge 30, Type (0, 1), None
#     Edge 31, Type (0, 1), None
#     Edge 32, Type (0, 1), None
#     Edge 33, Type (0, 1), None
#     Edge 34, Type (0, 1), None
#     Edge 35, Type (0, 1), None
#     Edge 36, Type (0, 1), None
#     Edge 37, Type (0, 1), None
#     Edge 38, Type (0, 1), None
#     Edge 39, Type (0, 1), None
#     Edge 40, Type (0, 1), None
#     Edge 41, Type (0, 1), None
#     Edge 42, Type (0, 1), None
#     Edge 43, Type (0, 1), None
#     Edge 44, Type (0, 1), None
#     Edge 45, Type (0, 1), None
#     Edge 46, Type (0, 1), None
#     Edge 47, Type (0, 1), None
#     Edge 48, Type (0, 1), None
#     Edge 49, Type (0, 1), None
#     Edge 50, Type (0, 1), None
#     Edge 51, Type (0, 1), None
#     Edge 52, Type (0, 1), None
#     Edge 53, Type (0, 1), None
#     Edge 54, Type (0, 1), None
#     Edge 55, Type (0, 1), None
#     Edge 56, Type (0, 1), None
#     Edge 57, Type (0, 1), None
#     Edge 58, Type (0, 1), None
#     Edge 59, Type (0, 1), None
#     Edge 60, Type (0, 1), None
#     Edge 61, Type (0, 1), None
#     Edge 62, Type (0, 1), None
#     Edge 63, Type (0, 1), None
#     Edge 64, Type (0, 1), None
#     Edge 65, Type (0, 1), None
#     Edge 66, Type (0, 1), None
#     Edge 67, Type (0, 1), None
#     Edge 68, Type (0, 1), None
#     Edge 69, Type (0, 1), None
#     Edge 70, Type (0, 1), None
#     Edge 71, Type (0, 1), None
#     Edge 72, Type (0, 1), None
#     Edge 73, Type (0, 1), None
#     Edge 74, Type (0, 1), None
#     Edge 75, Type (0, 1), None
# Relax obj value: 0.139
# Max RMSD: 0.273
# Mean RMSD: 0.148
data_MOF--net-ctn--node1-TATPOV_clean_sbu_0--node2-QEWDON_clean_linker_0--edge1-none
_symmetry_space_group_name_H-M    P1
_symmetry_Int_Tables_number       1
_symmetry_cell_setting            triclinic
loop_
_symmetry_equiv_pos_as_xyz
'x, y, z'
_cell_length_a     22.656277
_cell_length_b     23.94804
_cell_length_c     26.269284
_cell_angle_alpha  102.91176
_cell_angle_beta   95.19767
_cell_angle_gamma 96.067116
loop_
_atom_site_label
_atom_site_type_symbol
_atom_site_fract_x
_atom_site_fract_y
_atom_site_fract_z
_atom_type_partial_charge
H0 H 0.12216 0.99323 0.01788 0.0
C1 C 0.1036 0.99237 0.05426 0.0
C2 C 0.12415 0.95529 0.08419 0.0
C3 C 0.06039 0.0286 0.07086 0.0
H4 H 0.12005 0.92929 0.1575 0.0
C5 C 0.10342 0.95688 0.13344 0.0
C6 C 0.06279 0.99498 0.15269 0.0
C7 C 0.04092 0.03014 0.12076 0.0
C8 C 0.03566 0.06352 0.0351 0.0
H9 H 1.00738 0.05717 0.13421 0.0
C10 C 0.03296 0.04349 0.98007 0.0
C11 C 1.01432 0.07693 0.94545 0.0
C12 C 1.01585 0.1171 0.0548 0.0
H13 H 0.01784 0.13485 0.09667 0.0
C14 C 0.99377 0.14902 0.02036 0.0
H15 H 0.04589 1.00158 0.96372 0.0
C16 C 0.99289 0.12908 0.96599 0.0
H17 H 0.97474 0.15396 0.94012 0.0
H18 H 0.97781 0.18973 0.03595 0.0
H19 H 0.3973 0.82046 0.29569 0.0
C20 C 0.35577 0.7931 0.29504 0.0
C21 C 0.35642 0.73949 0.30797 0.0
C22 C 0.30202 0.81134 0.27941 0.0
H23 H 0.30265 0.66177 0.31354 0.0
C24 C 0.30221 0.70386 0.30478 0.0
C25 C 0.24768 0.72182 0.28863 0.0
C26 C 0.24795 0.77633 0.27724 0.0
C27 C 0.30324 0.86201 0.25672 0.0
H28 H 0.20668 0.78991 0.26296 0.0
C29 C 0.33127 0.86109 0.21111 0.0
C30 C 0.32533 0.90428 0.18383 0.0
C31 C 0.272 0.90805 0.27669 0.0
H32 H 0.24993 0.90894 0.31172 0.0
C33 C 0.26828 0.95269 0.25075 0.0
H34 H 0.35342 0.82432 0.19459 0.0
C35 C 0.29392 0.9504 0.20403 0.0
H36 H 0.28812 0.98392 0.18301 0.0
H37 H 0.24383 0.98808 0.26589 0.0
H38 H 0.12391 0.47108 0.06802 0.0
C39 C 0.09396 0.49657 0.05123 0.0
C40 C 0.0623 0.53269 0.08423 0.0
C41 C 0.08235 0.48718 0.9968 0.0
H42 H 0.99562 0.59127 0.08874 0.0
C43 C 0.02109 0.56411 0.06275 0.0
C44 C 1.01001 0.55723 1.00751 0.0
C45 C 0.04025 0.51712 0.97479 0.0
C46 C 0.10572 0.43685 0.96579 0.0
H47 H 0.03002 0.50785 0.93241 0.0
C48 C 0.06646 0.38565 0.94656 0.0
C49 C 0.08849 0.33238 0.9335 0.0
C50 C 0.16767 0.43471 0.96861 0.0
H51 H 0.19878 0.47355 0.98488 0.0
C52 C 0.18974 0.3818 0.95349 0.0
H53 H 0.01858 0.38676 0.94522 0.0
C54 C 0.1503 0.33053 0.93676 0.0
H55 H 0.16789 0.28978 0.92535 0.0
H56 H 0.23749 0.3804 0.95606 0.0
H57 H 0.79972 0.83018 0.28714 0.0
C58 C 0.81691 0.81892 0.2495 0.0
C59 C 0.86143 0.85715 0.23623 0.0
C60 C 0.79511 0.76551 0.21472 0.0
H61 H 0.9175 0.87007 0.17603 0.0
C62 C 0.88331 0.84124 0.18692 0.0
C63 C 0.86138 0.78799 0.15169 0.0
C64 C 0.81754 0.75067 0.16634 0.0
C65 C 0.74791 0.72483 0.22759 0.0
H66 H 0.79967 0.70976 0.13954 0.0
C67 C 0.6951 0.74415 0.24473 0.0
C68 C 0.64891 0.70522 0.25464 0.0
C69 C 0.75415 0.66582 0.22005 0.0
H70 H 0.79448 0.64981 0.20687 0.0
C71 C 0.70843 0.62696 0.22958 0.0
H72 H 0.69027 0.78962 0.25054 0.0
C73 C 0.65615 0.64645 0.24698 0.0
H74 H 0.62157 0.61562 0.2547 0.0
H75 H 0.71365 0.58162 0.22369 0.0
H76 H 0.23731 0.04633 0.53677 0.0
C77 C 0.19888 0.03308 0.50738 0.0
C78 C 0.20293 0.04951 0.45969 0.0
C79 C 0.14745 0.9995 0.51656 0.0
H80 H 0.1551 0.05301 0.38617 0.0
C81 C 0.15258 0.03808 0.42204 0.0
C82 C 0.09818 1.011 0.43227 0.0
C83 C 0.09676 0.98977 0.47848 0.0
C84 C 0.14858 0.97406 0.56477 0.0
H85 H 0.05584 0.96566 0.48418 0.0
C86 C 0.09594 0.9508 0.58282 0.0
C87 C 0.09978 0.92418 0.62598 0.0
C88 C 0.20422 0.97008 0.59219 0.0
H89 H 0.24642 0.98286 0.57942 0.0
C90 C 0.20759 0.94723 0.6364 0.0
H91 H 0.05223 0.95121 0.56286 0.0
C92 C 0.15609 0.92443 0.65314 0.0
H93 H 0.16063 0.90497 0.68656 0.0
H94 H 0.2508 0.94533 0.6568 0.0
H95 H 0.33822 0.64211 0.77128 0.0
C96 C 0.33544 0.67249 0.80816 0.0
C97 C 0.36254 0.66318 0.85496 0.0
C98 C 0.30394 0.71982 0.80804 0.0
H99 H 0.38185 0.69784 0.93909 0.0
C100 C 0.35936 0.70364 0.90279 0.0
C101 C 0.32851 0.75245 0.90347 0.0
C102 C 0.29943 0.75894 0.85577 0.0
C103 C 0.28075 0.73006 0.75681 0.0
H104 H 0.27692 0.79659 0.85518 0.0
C105 C 0.22004 0.73551 0.74475 0.0
C106 C 0.19859 0.74072 0.69408 0.0
C107 C 0.3199 0.73132 0.71842 0.0
H108 H 0.36682 0.72754 0.72696 0.0
C109 C 0.29906 0.73718 0.66867 0.0
H110 H 0.18967 0.73438 0.7742 0.0
C111 C 0.23891 0.74156 0.6564 0.0
H112 H 0.22417 0.74599 0.61728 0.0
H113 H 0.32961 0.73806 0.63939 0.0
H114 H 0.92651 0.71251 0.48815 0.0
C115 C 0.91655 0.66926 0.49408 0.0
C116 C 0.92324 0.66044 0.54512 0.0
C117 C 0.90195 0.62242 0.45049 0.0
H118 H 0.919 0.59669 0.59195 0.0
C119 C 0.91433 0.60386 0.55255 0.0
C120 C 0.89621 0.5569 0.50902 0.0
C121 C 0.88988 0.56649 0.45831 0.0
C122 C 0.90874 0.63116 0.3974 0.0
H123 H 0.87722 0.53013 0.42473 0.0
C124 C 0.94504 0.59728 0.3665 0.0
C125 C 0.96138 0.61065 0.3203 0.0
C126 C 0.88624 0.67708 0.38004 0.0
H127 H 0.85817 0.70387 0.40338 0.0
C128 C 0.9011 0.6894 0.33281 0.0
H129 H 0.96392 0.56264 0.38007 0.0
C130 C 0.9395 0.65691 0.30337 0.0
H131 H 0.95184 0.6676 0.26747 0.0
H132 H 0.88388 0.72489 0.31959 0.0
H133 H 0.83307 0.87643 0.78303 0.0
C134 C 0.84108 0.8454 0.80635 0.0
C135 C 0.8882 0.81204 0.79657 0.0
C136 C 0.80447 0.83923 0.84579 0.0
H137 H 0.93434 0.74517 0.81945 0.0
C138 C 0.8993 0.77229 0.82756 0.0
C139 C 0.86426 0.76577 0.86793 0.0
C140 C 0.8171 0.79941 0.87673 0.0
C141 C 0.75349 0.87449 0.85488 0.0
H142 H 0.78842 0.79218 0.90607 0.0
C143 C 0.72097 0.8922 0.81346 0.0
C144 C 0.6747 0.92692 0.82396 0.0
C145 C 0.73792 0.89216 0.90623 0.0
H146 H 0.76234 0.88137 0.9393 0.0
C147 C 0.69157 0.92549 0.91622 0.0
H148 H 0.73148 0.87954 0.77344 0.0
C149 C 0.66039 0.94293 0.87557 0.0
H150 H 0.62534 0.96981 0.8846 0.0
H151 H 0.68038 0.93873 0.95597 0.0
H152 H 0.33307 0.37643 0.28303 0.0
C153 C 0.34108 0.3454 0.30635 0.0
C154 C 0.3882 0.31204 0.29657 0.0
C155 C 0.30447 0.33923 0.34579 0.0
H156 H 0.43434 0.24517 0.31945 0.0
C157 C 0.3993 0.27229 0.32756 0.0
C158 C 0.36426 0.26578 0.36793 0.0
C159 C 0.3171 0.29941 0.37673 0.0
C160 C 0.25349 0.37449 0.35488 0.0
H161 H 0.28842 0.29218 0.40607 0.0
C162 C 0.22097 0.3922 0.31346 0.0
C163 C 0.1747 0.42692 0.32396 0.0
C164 C 0.23792 0.39216 0.40623 0.0
H165 H 0.26234 0.38137 0.4393 0.0
C166 C 0.19157 0.4255 0.41622 0.0
H167 H 0.23148 0.37954 0.27345 0.0
C168 C 0.16039 0.44293 0.37557 0.0
H169 H 0.12534 0.46981 0.3846 0.0
H170 H 0.18039 0.43873 0.45597 0.0
H171 H 0.62391 0.97108 0.56802 0.0
C172 C 0.59396 0.99657 0.55123 0.0
C173 C 0.5623 0.03269 0.58423 0.0
C174 C 0.58235 0.98718 0.4968 0.0
H175 H 0.49562 0.09127 0.58874 0.0
C176 C 0.52109 0.06411 0.56275 0.0
C177 C 0.51001 0.05723 0.50751 0.0
C178 C 0.54025 1.01712 0.47479 0.0
C179 C 0.60572 0.93685 0.46579 0.0
H180 H 0.53002 1.00785 0.43241 0.0
C181 C 0.56646 0.88565 0.44656 0.0
C182 C 0.5885 0.83238 0.4335 0.0
C183 C 0.66767 0.93471 0.46861 0.0
H184 H 0.69878 0.97355 0.48487 0.0
C185 C 0.68974 0.8818 0.45349 0.0
H186 H 0.51858 0.88676 0.44522 0.0
C187 C 0.6503 0.83053 0.43676 0.0
H188 H 0.66789 0.78978 0.42535 0.0
H189 H 0.73749 0.8804 0.45606 0.0
H190 H 0.29972 0.33018 0.78714 0.0
C191 C 0.31691 0.31892 0.7495 0.0
C192 C 0.36143 0.35715 0.73623 0.0
C193 C 0.29511 0.26551 0.71472 0.0
H194 H 0.4175 0.37007 0.67603 0.0
C195 C 0.38331 0.34124 0.68692 0.0
C196 C 0.36138 0.28799 0.65169 0.0
C197 C 0.31754 0.25067 0.66634 0.0
C198 C 0.24791 0.22483 0.72759 0.0
H199 H 0.29967 0.20976 0.63954 0.0
C200 C 0.1951 0.24415 0.74473 0.0
C201 C 0.14891 0.20522 0.75464 0.0
C202 C 0.25415 0.16582 0.72005 0.0
H203 H 0.29448 0.14981 0.70687 0.0
C204 C 0.20843 0.12696 0.72958 0.0
H205 H 0.19027 0.28962 0.75054 0.0
C206 C 0.15615 0.14645 0.74698 0.0
H207 H 0.12157 0.11562 0.7547 0.0
H208 H 0.21365 0.08162 0.72369 0.0
H209 H 0.89729 0.32046 0.79569 0.0
C210 C 0.85577 0.2931 0.79504 0.0
C211 C 0.85642 0.23949 0.80797 0.0
C212 C 0.80202 0.31134 0.77941 0.0
H213 H 0.80265 0.16176 0.81354 0.0
C214 C 0.80221 0.20386 0.80478 0.0
C215 C 0.74768 0.22182 0.78863 0.0
C216 C 0.74795 0.27633 0.77724 0.0
C217 C 0.80324 0.362 0.75671 0.0
H218 H 0.70668 0.28991 0.76296 0.0
C219 C 0.83127 0.36109 0.71111 0.0
C220 C 0.82533 0.40428 0.68383 0.0
C221 C 0.772 0.40805 0.77669 0.0
H222 H 0.74993 0.40894 0.81172 0.0
C223 C 0.76827 0.45268 0.75075 0.0
H224 H 0.85342 0.32432 0.69459 0.0
C225 C 0.79392 0.4504 0.70403 0.0
H226 H 0.78812 0.48392 0.68301 0.0
H227 H 0.74383 0.48808 0.76589 0.0
H228 H 0.62216 0.49323 0.51788 0.0
C229 C 0.6036 0.49237 0.55426 0.0
C230 C 0.62415 0.45529 0.58419 0.0
C231 C 0.56039 0.5286 0.57086 0.0
H232 H 0.62005 0.42929 0.6575 0.0
C233 C 0.60342 0.45688 0.63344 0.0
C234 C 0.56279 0.49498 0.65269 0.0
C235 C 0.54092 0.53014 0.62076 0.0
C236 C 0.53566 0.56352 0.5351 0.0
H237 H 0.50738 0.55717 0.63421 0.0
C238 C 0.53296 0.54349 0.48007 0.0
C239 C 0.51432 0.57693 0.44545 0.0
C240 C 0.51585 0.6171 0.5548 0.0
H241 H 0.51784 0.63485 0.59667 0.0
C242 C 0.49377 0.64902 0.52036 0.0
H243 H 0.54589 0.50158 0.46372 0.0
C244 C 0.49289 0.62908 0.46599 0.0
H245 H 0.47475 0.65396 0.44012 0.0
H246 H 0.47781 0.68973 0.53595 0.0
H247 H 0.73731 0.54633 0.03677 0.0
C248 C 0.69888 0.53308 1.00738 0.0
C249 C 0.70293 0.54951 0.95969 0.0
C250 C 0.64745 0.4995 0.01656 0.0
H251 H 0.6551 0.55301 0.88617 0.0
C252 C 0.65258 0.53808 0.92204 0.0
C253 C 0.59818 0.511 0.93227 0.0
C254 C 0.59676 0.48977 0.97848 0.0
C255 C 0.64858 0.47406 0.06477 0.0
H256 H 0.55584 0.46566 0.98418 0.0
C257 C 0.59594 0.4508 0.08282 0.0
C258 C 0.59978 0.42418 0.12598 0.0
C259 C 0.70422 0.47008 0.09219 0.0
H260 H 0.74642 0.48286 0.07942 0.0
C261 C 0.70759 0.44723 0.1364 0.0
H262 H 0.55223 0.45121 0.06286 0.0
C263 C 0.65609 0.42443 0.15314 0.0
H264 H 0.66063 0.40497 0.18656 0.0
H265 H 0.7508 0.44534 0.1568 0.0
H266 H 0.83822 0.14211 0.27128 0.0
C267 C 0.83544 0.17249 0.30816 0.0
C268 C 0.86254 0.16318 0.35496 0.0
C269 C 0.80394 0.21982 0.30804 0.0
H270 H 0.88185 0.19784 0.43909 0.0
C271 C 0.85936 0.20364 0.40279 0.0
C272 C 0.82851 0.25245 0.40347 0.0
C273 C 0.79943 0.25894 0.35577 0.0
C274 C 0.78075 0.23006 0.25681 0.0
H275 H 0.77692 0.29659 0.35518 0.0
C276 C 0.72004 0.23551 0.24475 0.0
C277 C 0.69859 0.24072 0.19408 0.0
C278 C 0.8199 0.23132 0.21842 0.0
H279 H 0.86682 0.22753 0.22696 0.0
C280 C 0.79906 0.23718 0.16867 0.0
H281 H 0.68967 0.23438 0.2742 0.0
C282 C 0.73891 0.24156 0.1564 0.0
H283 H 0.72417 0.24599 0.11727 0.0
H284 H 0.82961 0.23806 0.13939 0.0
H285 H 0.42651 0.21251 0.98815 0.0
C286 C 0.41656 0.16926 0.99408 0.0
C287 C 0.42324 0.16044 0.04512 0.0
C288 C 0.40195 0.12242 0.95049 0.0
H289 H 0.419 0.09669 0.09195 0.0
C290 C 0.41433 0.10386 0.05255 0.0
C291 C 0.39621 0.0569 1.00902 0.0
C292 C 0.38988 0.0665 0.95831 0.0
C293 C 0.40874 0.13116 0.8974 0.0
H294 H 0.37722 0.03013 0.92473 0.0
C295 C 0.44504 0.09728 0.8665 0.0
C296 C 0.46138 0.11065 0.8203 0.0
C297 C 0.38624 0.17708 0.88004 0.0
H298 H 0.35817 0.20388 0.90338 0.0
C299 C 0.4011 0.1894 0.83281 0.0
H300 H 0.46392 0.06264 0.88007 0.0
C301 C 0.4395 0.15691 0.80337 0.0
H302 H 0.45184 0.1676 0.76747 0.0
H303 H 0.38388 0.22489 0.81959 0.0
Zn304 Zn 0.40235 0.88727 0.04388 0.0
Zn305 Zn 0.28267 0.90432 0.01952 0.0
O306 O 0.3054 0.90488 0.09509 0.0
O307 O 0.39236 0.88075 0.1191 0.0
O308 O 0.19742 0.92482 0.0263 0.0
O309 O 0.41901 0.97121 0.03391 0.0
O310 O 0.32547 0.97587 1.00445 0.0
C311 C 0.34281 0.89679 0.13056 0.0
C312 C 0.33271 0.80032 0.95189 0.0
O313 O 0.28907 0.82974 0.9613 0.0
O314 O 0.38257 0.8155 0.98078 0.0
C315 C 0.17054 0.91824 0.06584 0.0
O316 O 0.18995 0.88438 0.09487 0.0
C317 C 0.37976 0.99835 0.01608 0.0
Zn318 Zn 0.03995 0.47493 0.22594 0.0
Zn319 Zn 0.12305 0.56782 0.25271 0.0
O320 O 0.05396 0.60178 0.28656 0.0
O321 O 0.98849 0.52315 0.27326 0.0
O322 O 0.19379 0.62833 0.27467 0.0
O323 O 0.09499 0.42373 0.25696 0.0
O324 O 0.15553 0.50468 0.28552 0.0
C325 C 1.00295 0.57706 0.2913 0.0
C326 C 0.06622 0.52839 0.13939 0.0
O327 O 0.10672 0.56028 0.17327 0.0
O328 O 0.03456 0.48706 0.15092 0.0
C329 C 0.19154 0.6817 0.27853 0.0
O330 O 0.13989 0.6995 0.26803 0.0
C331 C 0.14288 0.45116 0.28367 0.0
Zn332 Zn 0.86853 0.59962 0.90394 0.0
Zn333 Zn 0.86813 0.67218 0.99785 0.0
O334 O 0.94128 0.62864 1.01192 0.0
O335 O 0.94018 0.56639 0.93624 0.0
O336 O 0.8602 0.72143 0.06956 0.0
O337 O 0.87848 0.6691 0.86999 0.0
O338 O 0.86696 0.72698 0.94541 0.0
C339 C 0.96244 0.58627 0.98388 0.0
C340 C 0.76028 0.57949 0.95074 0.0
O341 O 0.78963 0.61847 0.98808 0.0
O342 O 0.7823 0.56375 0.90791 0.0
C343 C 0.88296 0.76988 0.09944 0.0
O344 O 0.92464 0.80255 0.08394 0.0
C345 C 0.87201 0.71896 0.89625 0.0
Zn346 Zn 0.91278 0.99908 0.37185 0.0
Zn347 Zn 0.97544 0.02552 0.29432 0.0
O348 O 0.92553 0.09467 0.31571 0.0
O349 O 0.88091 0.07788 0.38312 0.0
O350 O 1.01524 0.03643 0.22893 0.0
O351 O 0.99233 0.99445 0.41244 0.0
O352 O 0.04321 0.02244 0.35278 0.0
C353 C 0.8927 0.11036 0.35232 0.0
C354 C 0.88615 0.91272 0.27408 0.0
O355 O 0.92601 0.94682 0.26131 0.0
O356 O 0.8692 0.92573 0.3195 0.0
C357 C 0.04134 0.99527 0.20486 0.0
O358 O 0.04678 0.95082 0.22577 0.0
C359 C 0.04206 1.00791 0.39677 0.0
Zn360 Zn 0.36853 0.09962 0.40394 0.0
Zn361 Zn 0.36813 0.17218 0.49785 0.0
O362 O 0.44128 0.12864 0.51192 0.0
O363 O 0.44018 0.06639 0.43624 0.0
O364 O 0.3602 0.22143 0.56956 0.0
O365 O 0.37848 0.1691 0.36999 0.0
O366 O 0.36696 0.22698 0.44541 0.0
C367 C 0.46244 0.08627 0.48388 0.0
C368 C 0.26028 0.07949 0.45074 0.0
O369 O 0.28963 0.11847 0.48808 0.0
O370 O 0.2823 0.06375 0.40791 0.0
C371 C 0.38296 0.26988 0.59944 0.0
O372 O 0.42464 0.30255 0.58394 0.0
C373 C 0.37201 0.21896 0.39625 0.0
Zn374 Zn 0.41278 0.49908 0.87185 0.0
Zn375 Zn 0.47544 0.52552 0.79432 0.0
O376 O 0.42553 0.59467 0.81571 0.0
O377 O 0.38091 0.57788 0.88312 0.0
O378 O 0.51524 0.53643 0.72893 0.0
O379 O 0.49233 0.49445 0.91244 0.0
O380 O 0.54321 0.52244 0.85278 0.0
C381 C 0.3927 0.61036 0.85232 0.0
C382 C 0.38615 0.41272 0.77408 0.0
O383 O 0.42601 0.44682 0.76131 0.0
O384 O 0.3692 0.42573 0.8195 0.0
C385 C 0.54134 0.49527 0.70486 0.0
O386 O 0.54678 0.45082 0.72577 0.0
C387 C 0.54206 0.50791 0.89677 0.0
Zn388 Zn 0.90235 0.38727 0.54388 0.0
Zn389 Zn 0.78267 0.40432 0.51952 0.0
O390 O 0.8054 0.40487 0.59509 0.0
O391 O 0.89236 0.38075 0.6191 0.0
O392 O 0.69742 0.42482 0.5263 0.0
O393 O 0.91901 0.47121 0.53391 0.0
O394 O 0.82547 0.47587 0.50445 0.0
C395 C 0.84281 0.39679 0.63056 0.0
C396 C 0.83271 0.30032 0.45189 0.0
O397 O 0.78907 0.32974 0.4613 0.0
O398 O 0.88257 0.3155 0.48078 0.0
C399 C 0.67054 0.41824 0.56584 0.0
O400 O 0.68995 0.38438 0.59487 0.0
C401 C 0.87976 0.49835 0.51608 0.0
Zn402 Zn 0.53995 0.97492 0.72594 0.0
Zn403 Zn 0.62305 0.06782 0.75271 0.0
O404 O 0.55396 0.10178 0.78656 0.0
O405 O 0.48849 0.02315 0.77325 0.0
O406 O 0.69379 0.12832 0.77467 0.0
O407 O 0.59499 0.92373 0.75696 0.0
O408 O 0.65553 1.00468 0.78552 0.0
C409 C 0.50295 0.07706 0.7913 0.0
C410 C 0.56622 0.02839 0.63939 0.0
O411 O 0.60672 0.06028 0.67327 0.0
O412 O 0.53456 0.98706 0.65092 0.0
C413 C 0.69154 0.1817 0.77853 0.0
O414 O 0.63989 0.1995 0.76803 0.0
C415 C 0.64288 0.95115 0.78367 0.0
Zn416 Zn 0.02169 0.32035 0.81197 0.0
Zn417 Zn 1.01101 0.17343 0.85852 0.0
O418 O 0.06844 0.19804 0.80585 0.0
O419 O 0.08511 0.27781 0.77454 0.0
O420 O 0.01896 0.08967 0.85696 0.0
O421 O 1.01325 0.27712 0.86945 0.0
O422 O 0.04853 0.23349 0.92649 0.0
C423 C 0.09595 0.22692 0.7772 0.0
C424 C 0.9144 0.22147 0.82308 0.0
O425 O 0.91976 0.17633 0.83949 0.0
O426 O 0.96304 0.25299 0.82293 0.0
C427 C 0.0184 0.05625 0.88845 0.0
O428 O 0.02502 1.00191 0.86958 0.0
C429 C 0.04616 0.28023 0.91161 0.0
Zn430 Zn 0.52169 0.82035 0.31197 0.0
Zn431 Zn 0.51101 0.67343 0.35852 0.0
O432 O 0.56844 0.69804 0.30585 0.0
O433 O 0.58511 0.77781 0.27453 0.0
O434 O 0.51896 0.58967 0.35696 0.0
O435 O 0.51325 0.77712 0.36945 0.0
O436 O 0.54853 0.73349 0.42649 0.0
C437 C 0.59595 0.72692 0.27719 0.0
C438 C 0.4144 0.72147 0.32308 0.0
O439 O 0.41976 0.67633 0.33949 0.0
O440 O 0.46304 0.75299 0.32292 0.0
C441 C 0.5184 0.55625 0.38845 0.0
O442 O 0.52502 0.50191 0.36958 0.0
C443 C 0.54616 0.78023 0.4116 0.0
Zn444 Zn 0.9356 0.83329 0.64422 0.0
Zn445 Zn 0.02134 0.77757 0.68579 0.0
O446 O 0.0577 0.84792 0.66105 0.0
O447 O 0.99437 0.89665 0.62715 0.0
O448 O 0.09806 0.75244 0.71354 0.0
O449 O 0.9018 0.83876 0.71556 0.0
O450 O 0.96892 0.79015 0.74566 0.0
C451 C 0.04777 0.88932 0.63965 0.0
C452 C 0.94038 0.71119 0.58945 0.0
O453 O 0.98189 0.71086 0.62539 0.0
O454 O 0.91652 0.75674 0.58878 0.0
C455 C 0.13521 0.74691 0.67978 0.0
O456 O 0.11754 0.75135 0.63195 0.0
C457 C 0.92219 0.81516 0.75112 0.0
Zn458 Zn 0.4356 0.33329 0.14422 0.0
Zn459 Zn 0.52134 0.27757 0.18579 0.0
O460 O 0.5577 0.34792 0.16105 0.0
O461 O 0.49436 0.39665 0.12715 0.0
O462 O 0.59806 0.25244 0.21354 0.0
O463 O 0.40179 0.33876 0.21556 0.0
O464 O 0.46892 0.29015 0.24566 0.0
C465 C 0.54777 0.38933 0.13965 0.0
C466 C 0.44038 0.21119 0.08945 0.0
O467 O 0.48189 0.21086 0.12539 0.0
O468 O 0.41652 0.25674 0.08878 0.0
C469 C 0.63521 0.24691 0.17978 0.0
O470 O 0.61754 0.25135 0.13195 0.0
C471 C 0.42219 0.31516 0.25112 0.0
loop_
_geom_bond_atom_site_label_1
_geom_bond_atom_site_label_2
_geom_bond_distance
_geom_bond_site_symmetry_2
_ccdc_geom_bond_type
H0 C1 0.949 . S
C1 H0 0.949 . S
C1 C2 1.395 1_545 S
C1 C3 1.391 . S
C2 C1 1.395 1_565 S
C2 C5 1.390 . S
C3 C1 1.391 . S
C3 C7 1.387 . S
C3 C8 1.491 . S
H4 C5 0.950 . S
C5 C2 1.390 . S
C5 H4 0.950 . S
C5 C6 1.378 . S
C6 C5 1.378 . S
C6 C7 1.409 1_565 S
C7 C3 1.387 . S
C7 C6 1.409 1_545 S
C7 H9 0.951 . S
C8 C3 1.491 . S
C8 C10 1.382 1_554 S
C8 C12 1.404 . S
H9 C7 0.951 . S
C10 C8 1.382 1_556 S
C10 C11 1.390 . S
C10 H15 0.949 . S
C11 C10 1.390 . S
C11 C16 1.399 . S
C12 C8 1.404 . S
C12 H13 0.950 . S
C12 C14 1.375 . S
H13 C12 0.950 . S
C14 C12 1.375 . S
C14 C16 1.382 1_554 S
C14 H18 0.950 . S
H15 C10 0.949 . S
C16 C11 1.399 . S
C16 C14 1.382 1_556 S
C16 H17 0.952 . S
H17 C16 0.952 . S
H18 C14 0.950 . S
H19 C20 0.949 . S
C20 H19 0.949 . S
C20 C21 1.395 . S
C20 C22 1.391 . S
C21 C20 1.395 . S
C21 C24 1.390 . S
C22 C20 1.391 . S
C22 C26 1.387 . S
C22 C27 1.491 . S
H23 C24 0.950 . S
C24 C21 1.390 . S
C24 H23 0.950 . S
C24 C25 1.378 . S
C25 C24 1.378 . S
C25 C26 1.409 . S
C26 C22 1.387 . S
C26 C25 1.409 . S
C26 H28 0.951 . S
C27 C22 1.491 . S
C27 C29 1.382 . S
C27 C31 1.404 . S
H28 C26 0.951 . S
C29 C27 1.382 . S
C29 C30 1.390 . S
C29 H34 0.949 . S
C30 C29 1.390 . S
C30 C35 1.399 . S
C31 C27 1.404 . S
C31 H32 0.950 . S
C31 C33 1.375 . S
H32 C31 0.950 . S
C33 C31 1.375 . S
C33 C35 1.382 . S
C33 H37 0.950 . S
H34 C29 0.949 . S
C35 C30 1.399 . S
C35 C33 1.382 . S
C35 H36 0.952 . S
H36 C35 0.952 . S
H37 C33 0.950 . S
H38 C39 0.949 1_455 S
C39 H38 0.949 1_655 S
C39 C40 1.395 . S
C39 C41 1.391 . S
C40 C39 1.395 . S
C40 C43 1.390 . S
C41 C39 1.391 . S
C41 C45 1.387 . S
C41 C46 1.491 1_554 S
H42 C43 0.950 . S
C43 C40 1.390 . S
C43 H42 0.950 . S
C43 C44 1.378 . S
C44 C43 1.378 . S
C44 C45 1.409 . S
C45 C41 1.387 . S
C45 C44 1.409 . S
C45 H47 0.951 1_554 S
C46 C41 1.491 1_556 S
C46 C48 1.382 . S
C46 C50 1.404 . S
H47 C45 0.951 1_556 S
C48 C46 1.382 . S
C48 C49 1.390 . S
C48 H53 0.949 1_556 S
C49 C48 1.390 . S
C49 C54 1.399 . S
C50 C46 1.404 . S
C50 H51 0.950 . S
C50 C52 1.375 . S
H51 C50 0.950 . S
C52 C50 1.375 . S
C52 C54 1.382 . S
C52 H56 0.950 . S
H53 C48 0.949 1_554 S
C54 C49 1.399 . S
C54 C52 1.382 . S
C54 H55 0.952 . S
H55 C54 0.952 . S
H56 C52 0.950 . S
H57 C58 0.949 . S
C58 H57 0.949 . S
C58 C59 1.395 . S
C58 C60 1.391 . S
C59 C58 1.395 . S
C59 C62 1.390 . S
C60 C58 1.391 . S
C60 C64 1.387 . S
C60 C65 1.491 . S
H61 C62 0.950 . S
C62 C59 1.390 . S
C62 H61 0.950 . S
C62 C63 1.378 . S
C63 C62 1.378 . S
C63 C64 1.409 . S
C64 C60 1.387 . S
C64 C63 1.409 . S
C64 H66 0.951 . S
C65 C60 1.491 . S
C65 C67 1.382 . S
C65 C69 1.404 . S
H66 C64 0.951 . S
C67 C65 1.382 . S
C67 C68 1.390 . S
C67 H72 0.949 . S
C68 C67 1.390 . S
C68 C73 1.399 . S
C69 C65 1.404 . S
C69 H70 0.950 . S
C69 C71 1.375 . S
H70 C69 0.950 . S
C71 C69 1.375 . S
C71 C73 1.382 . S
C71 H75 0.950 . S
H72 C67 0.949 . S
C73 C68 1.399 . S
C73 C71 1.382 . S
C73 H74 0.952 . S
H74 C73 0.952 . S
H75 C71 0.950 . S
H76 C77 0.949 . S
C77 H76 0.949 . S
C77 C78 1.395 1_565 S
C77 C79 1.391 . S
C78 C77 1.395 1_545 S
C78 C81 1.390 . S
C79 C77 1.391 . S
C79 C83 1.387 . S
C79 C84 1.491 . S
H80 C81 0.950 . S
C81 C78 1.390 . S
C81 H80 0.950 . S
C81 C82 1.378 . S
C82 C81 1.378 . S
C82 C83 1.409 1_545 S
C83 C79 1.387 . S
C83 C82 1.409 1_565 S
C83 H85 0.951 . S
C84 C79 1.491 . S
C84 C86 1.382 . S
C84 C88 1.404 . S
H85 C83 0.951 . S
C86 C84 1.382 . S
C86 C87 1.390 . S
C86 H91 0.949 . S
C87 C86 1.390 . S
C87 C92 1.399 . S
C88 C84 1.404 . S
C88 H89 0.950 . S
C88 C90 1.375 . S
H89 C88 0.950 . S
C90 C88 1.375 . S
C90 C92 1.382 . S
C90 H94 0.950 . S
H91 C86 0.949 . S
C92 C87 1.399 . S
C92 C90 1.382 . S
C92 H93 0.952 . S
H93 C92 0.952 . S
H94 C90 0.950 . S
H95 C96 0.949 . S
C96 H95 0.949 . S
C96 C97 1.395 . S
C96 C98 1.391 . S
C97 C96 1.395 . S
C97 C100 1.390 . S
C98 C96 1.391 . S
C98 C102 1.387 . S
C98 C103 1.491 . S
H99 C100 0.950 . S
C100 C97 1.390 . S
C100 H99 0.950 . S
C100 C101 1.378 . S
C101 C100 1.378 . S
C101 C102 1.409 . S
C102 C98 1.387 . S
C102 C101 1.409 . S
C102 H104 0.951 . S
C103 C98 1.491 . S
C103 C105 1.382 . S
C103 C107 1.404 . S
H104 C102 0.951 . S
C105 C103 1.382 . S
C105 C106 1.390 . S
C105 H110 0.949 . S
C106 C105 1.390 . S
C106 C111 1.399 . S
C107 C103 1.404 . S
C107 H108 0.950 . S
C107 C109 1.375 . S
H108 C107 0.950 . S
C109 C107 1.375 . S
C109 C111 1.382 . S
C109 H113 0.950 . S
H110 C105 0.949 . S
C111 C106 1.399 . S
C111 C109 1.382 . S
C111 H112 0.952 . S
H112 C111 0.952 . S
H113 C109 0.950 . S
H114 C115 0.949 . S
C115 H114 0.949 . S
C115 C116 1.395 . S
C115 C117 1.391 . S
C116 C115 1.395 . S
C116 C119 1.390 . S
C117 C115 1.391 . S
C117 C121 1.387 . S
C117 C122 1.491 . S
H118 C119 0.950 . S
C119 C116 1.390 . S
C119 H118 0.950 . S
C119 C120 1.378 . S
C120 C119 1.378 . S
C120 C121 1.409 . S
C121 C117 1.387 . S
C121 C120 1.409 . S
C121 H123 0.951 . S
C122 C117 1.491 . S
C122 C124 1.382 1_655 S
C122 C126 1.404 . S
H123 C121 0.951 . S
C124 C122 1.382 1_455 S
C124 C125 1.390 . S
C124 H129 0.949 . S
C125 C124 1.390 . S
C125 C130 1.399 1_455 S
C126 C122 1.404 . S
C126 H127 0.950 . S
C126 C128 1.375 . S
H127 C126 0.950 . S
C128 C126 1.375 . S
C128 C130 1.382 . S
C128 H132 0.950 . S
H129 C124 0.949 . S
C130 C125 1.399 1_655 S
C130 C128 1.382 . S
C130 H131 0.952 . S
H131 C130 0.952 . S
H132 C128 0.950 . S
H133 C134 0.949 . S
C134 H133 0.949 . S
C134 C135 1.395 . S
C134 C136 1.391 . S
C135 C134 1.395 . S
C135 C138 1.390 . S
C136 C134 1.391 . S
C136 C140 1.387 . S
C136 C141 1.491 . S
H137 C138 0.950 . S
C138 C135 1.390 . S
C138 H137 0.950 . S
C138 C139 1.378 . S
C139 C138 1.378 . S
C139 C140 1.409 . S
C140 C136 1.387 . S
C140 C139 1.409 . S
C140 H142 0.951 . S
C141 C136 1.491 . S
C141 C143 1.382 . S
C141 C145 1.404 . S
H142 C140 0.951 . S
C143 C141 1.382 . S
C143 C144 1.390 . S
C143 H148 0.949 . S
C144 C143 1.390 . S
C144 C149 1.399 . S
C145 C141 1.404 . S
C145 H146 0.950 . S
C145 C147 1.375 . S
H146 C145 0.950 . S
C147 C145 1.375 . S
C147 C149 1.382 . S
C147 H151 0.950 . S
H148 C143 0.949 . S
C149 C144 1.399 . S
C149 C147 1.382 . S
C149 H150 0.952 . S
H150 C149 0.952 . S
H151 C147 0.950 . S
H152 C153 0.949 . S
C153 H152 0.949 . S
C153 C154 1.395 . S
C153 C155 1.391 . S
C154 C153 1.395 . S
C154 C157 1.390 . S
C155 C153 1.391 . S
C155 C159 1.387 . S
C155 C160 1.491 . S
H156 C157 0.950 . S
C157 C154 1.390 . S
C157 H156 0.950 . S
C157 C158 1.378 . S
C158 C157 1.378 . S
C158 C159 1.409 . S
C159 C155 1.387 . S
C159 C158 1.409 . S
C159 H161 0.951 . S
C160 C155 1.491 . S
C160 C162 1.382 . S
C160 C164 1.404 . S
H161 C159 0.951 . S
C162 C160 1.382 . S
C162 C163 1.390 . S
C162 H167 0.949 . S
C163 C162 1.390 . S
C163 C168 1.399 . S
C164 C160 1.404 . S
C164 H165 0.950 . S
C164 C166 1.375 . S
H165 C164 0.950 . S
C166 C164 1.375 . S
C166 C168 1.382 . S
C166 H170 0.950 . S
H167 C162 0.949 . S
C168 C163 1.399 . S
C168 C166 1.382 . S
C168 H169 0.952 . S
H169 C168 0.952 . S
H170 C166 0.950 . S
H171 C172 0.949 . S
C172 H171 0.949 . S
C172 C173 1.395 1_565 S
C172 C174 1.391 . S
C173 C172 1.395 1_545 S
C173 C176 1.390 . S
C174 C172 1.391 . S
C174 C178 1.387 1_565 S
C174 C179 1.491 . S
H175 C176 0.950 . S
C176 C173 1.390 . S
C176 H175 0.950 . S
C176 C177 1.378 . S
C177 C176 1.378 . S
C177 C178 1.409 . S
C178 C174 1.387 1_545 S
C178 C177 1.409 . S
C178 H180 0.951 . S
C179 C174 1.491 . S
C179 C181 1.382 . S
C179 C183 1.404 . S
H180 C178 0.951 . S
C181 C179 1.382 . S
C181 C182 1.390 . S
C181 H186 0.949 . S
C182 C181 1.390 . S
C182 C187 1.399 . S
C183 C179 1.404 . S
C183 H184 0.950 . S
C183 C185 1.375 . S
H184 C183 0.950 . S
C185 C183 1.375 . S
C185 C187 1.382 . S
C185 H189 0.950 . S
H186 C181 0.949 . S
C187 C182 1.399 . S
C187 C185 1.382 . S
C187 H188 0.952 . S
H188 C187 0.952 . S
H189 C185 0.950 . S
H190 C191 0.949 . S
C191 H190 0.949 . S
C191 C192 1.395 . S
C191 C193 1.391 . S
C192 C191 1.395 . S
C192 C195 1.390 . S
C193 C191 1.391 . S
C193 C197 1.387 . S
C193 C198 1.491 . S
H194 C195 0.950 . S
C195 C192 1.390 . S
C195 H194 0.950 . S
C195 C196 1.378 . S
C196 C195 1.378 . S
C196 C197 1.409 . S
C197 C193 1.387 . S
C197 C196 1.409 . S
C197 H199 0.951 . S
C198 C193 1.491 . S
C198 C200 1.382 . S
C198 C202 1.404 . S
H199 C197 0.951 . S
C200 C198 1.382 . S
C200 C201 1.390 . S
C200 H205 0.949 . S
C201 C200 1.390 . S
C201 C206 1.399 . S
C202 C198 1.404 . S
C202 H203 0.950 . S
C202 C204 1.375 . S
H203 C202 0.950 . S
C204 C202 1.375 . S
C204 C206 1.382 . S
C204 H208 0.950 . S
H205 C200 0.949 . S
C206 C201 1.399 . S
C206 C204 1.382 . S
C206 H207 0.952 . S
H207 C206 0.952 . S
H208 C204 0.950 . S
H209 C210 0.949 . S
C210 H209 0.949 . S
C210 C211 1.395 . S
C210 C212 1.391 . S
C211 C210 1.395 . S
C211 C214 1.390 . S
C212 C210 1.391 . S
C212 C216 1.387 . S
C212 C217 1.491 . S
H213 C214 0.950 . S
C214 C211 1.390 . S
C214 H213 0.950 . S
C214 C215 1.378 . S
C215 C214 1.378 . S
C215 C216 1.409 . S
C216 C212 1.387 . S
C216 C215 1.409 . S
C216 H218 0.951 . S
C217 C212 1.491 . S
C217 C219 1.382 . S
C217 C221 1.404 . S
H218 C216 0.951 . S
C219 C217 1.382 . S
C219 C220 1.390 . S
C219 H224 0.949 . S
C220 C219 1.390 . S
C220 C225 1.399 . S
C221 C217 1.404 . S
C221 H222 0.950 . S
C221 C223 1.375 . S
H222 C221 0.950 . S
C223 C221 1.375 . S
C223 C225 1.382 . S
C223 H227 0.950 . S
H224 C219 0.949 . S
C225 C220 1.399 . S
C225 C223 1.382 . S
C225 H226 0.952 . S
H226 C225 0.952 . S
H227 C223 0.950 . S
H228 C229 0.949 . S
C229 H228 0.949 . S
C229 C230 1.395 . S
C229 C231 1.391 . S
C230 C229 1.395 . S
C230 C233 1.390 . S
C231 C229 1.391 . S
C231 C235 1.387 . S
C231 C236 1.491 . S
H232 C233 0.950 . S
C233 C230 1.390 . S
C233 H232 0.950 . S
C233 C234 1.378 . S
C234 C233 1.378 . S
C234 C235 1.409 . S
C235 C231 1.387 . S
C235 C234 1.409 . S
C235 H237 0.951 . S
C236 C231 1.491 . S
C236 C238 1.382 . S
C236 C240 1.404 . S
H237 C235 0.951 . S
C238 C236 1.382 . S
C238 C239 1.390 . S
C238 H243 0.949 . S
C239 C238 1.390 . S
C239 C244 1.399 . S
C240 C236 1.404 . S
C240 H241 0.950 . S
C240 C242 1.375 . S
H241 C240 0.950 . S
C242 C240 1.375 . S
C242 C244 1.382 . S
C242 H246 0.950 . S
H243 C238 0.949 . S
C244 C239 1.399 . S
C244 C242 1.382 . S
C244 H245 0.952 . S
H245 C244 0.952 . S
H246 C242 0.950 . S
H247 C248 0.949 1_554 S
C248 H247 0.949 1_556 S
C248 C249 1.395 . S
C248 C250 1.391 . S
C249 C248 1.395 . S
C249 C252 1.390 . S
C250 C248 1.391 . S
C250 C254 1.387 . S
C250 C255 1.491 . S
H251 C252 0.950 . S
C252 C249 1.390 . S
C252 H251 0.950 . S
C252 C253 1.378 . S
C253 C252 1.378 . S
C253 C254 1.409 . S
C254 C250 1.387 . S
C254 C253 1.409 . S
C254 H256 0.951 . S
C255 C250 1.491 . S
C255 C257 1.382 1_556 S
C255 C259 1.404 . S
H256 C254 0.951 . S
C257 C255 1.382 1_554 S
C257 C258 1.390 . S
C257 H262 0.949 . S
C258 C257 1.390 . S
C258 C263 1.399 . S
C259 C255 1.404 . S
C259 H260 0.950 . S
C259 C261 1.375 . S
H260 C259 0.950 . S
C261 C259 1.375 . S
C261 C263 1.382 1_556 S
C261 H265 0.950 . S
H262 C257 0.949 . S
C263 C258 1.399 . S
C263 C261 1.382 1_554 S
C263 H264 0.952 . S
H264 C263 0.952 . S
H265 C261 0.950 . S
H266 C267 0.949 . S
C267 H266 0.949 . S
C267 C268 1.395 . S
C267 C269 1.391 . S
C268 C267 1.395 . S
C268 C271 1.390 . S
C269 C267 1.391 . S
C269 C273 1.387 . S
C269 C274 1.491 . S
H270 C271 0.950 . S
C271 C268 1.390 . S
C271 H270 0.950 . S
C271 C272 1.378 . S
C272 C271 1.378 . S
C272 C273 1.409 . S
C273 C269 1.387 . S
C273 C272 1.409 . S
C273 H275 0.951 . S
C274 C269 1.491 . S
C274 C276 1.382 . S
C274 C278 1.404 . S
H275 C273 0.951 . S
C276 C274 1.382 . S
C276 C277 1.390 . S
C276 H281 0.949 . S
C277 C276 1.390 . S
C277 C282 1.399 . S
C278 C274 1.404 . S
C278 H279 0.950 . S
C278 C280 1.375 . S
H279 C278 0.950 . S
C280 C278 1.375 . S
C280 C282 1.382 . S
C280 H284 0.950 . S
H281 C276 0.949 . S
C282 C277 1.399 . S
C282 C280 1.382 . S
C282 H283 0.952 . S
H283 C282 0.952 . S
H284 C280 0.950 . S
H285 C286 0.949 . S
C286 H285 0.949 . S
C286 C287 1.395 1_556 S
C286 C288 1.391 . S
C287 C286 1.395 1_554 S
C287 C290 1.390 . S
C288 C286 1.391 . S
C288 C292 1.387 . S
C288 C293 1.491 . S
H289 C290 0.950 . S
C290 C287 1.390 . S
C290 H289 0.950 . S
C290 C291 1.378 . S
C291 C290 1.378 . S
C291 C292 1.409 1_554 S
C292 C288 1.387 . S
C292 C291 1.409 1_556 S
C292 H294 0.951 1_545 S
C293 C288 1.491 . S
C293 C295 1.382 . S
C293 C297 1.404 . S
H294 C292 0.951 1_565 S
C295 C293 1.382 . S
C295 C296 1.390 . S
C295 H300 0.949 . S
C296 C295 1.390 . S
C296 C301 1.399 . S
C297 C293 1.404 . S
C297 H298 0.950 . S
C297 C299 1.375 . S
H298 C297 0.950 . S
C299 C297 1.375 . S
C299 C301 1.382 . S
C299 H303 0.950 . S
H300 C295 0.949 . S
C301 C296 1.399 . S
C301 C299 1.382 . S
C301 H302 0.952 . S
H302 C301 0.952 . S
H303 C299 0.950 . S
Zn304 O307 2.031 . S
Zn304 O309 2.049 . S
Zn304 O314 2.067 1_554 S
Zn305 O306 1.962 . S
Zn305 O308 1.986 . S
Zn305 O310 1.996 . S
Zn305 O313 1.943 1_554 S
O306 Zn305 1.962 . S
O306 C311 1.254 . S
O307 Zn304 2.031 . S
O307 C311 1.269 . S
O308 Zn305 1.986 . S
O308 C315 1.262 . S
O309 Zn304 2.049 . S
O309 C317 1.260 . S
O310 Zn305 1.996 . S
O310 C317 1.257 . S
C311 O306 1.254 . S
C311 O307 1.269 . S
C312 O313 1.249 . S
C312 O314 1.270 . S
O313 Zn305 1.943 1_556 S
O313 C312 1.249 . S
O314 Zn304 2.067 1_556 S
O314 C312 1.270 . S
C315 O308 1.262 . S
C315 O316 1.232 . S
O316 C315 1.232 . S
C317 O309 1.260 . S
C317 O310 1.257 . S
Zn318 O321 2.031 . S
Zn318 O323 2.049 . S
Zn318 O328 2.067 . S
Zn319 O320 1.962 . S
Zn319 O322 1.986 . S
Zn319 O324 1.996 . S
Zn319 O327 1.943 . S
O320 Zn319 1.962 . S
O320 C325 1.254 . S
O321 Zn318 2.031 . S
O321 C325 1.269 . S
O322 Zn319 1.986 . S
O322 C329 1.262 . S
O323 Zn318 2.049 . S
O323 C331 1.260 . S
O324 Zn319 1.996 . S
O324 C331 1.257 . S
C325 O320 1.254 . S
C325 O321 1.269 . S
C326 O327 1.249 . S
C326 O328 1.270 . S
O327 Zn319 1.943 . S
O327 C326 1.249 . S
O328 Zn318 2.067 . S
O328 C326 1.270 . S
C329 O322 1.262 . S
C329 O330 1.232 . S
O330 C329 1.232 . S
C331 O323 1.260 . S
C331 O324 1.257 . S
Zn332 O335 2.031 . S
Zn332 O337 2.049 . S
Zn332 O342 2.067 . S
Zn333 O334 1.962 . S
Zn333 O336 1.986 . S
Zn333 O338 1.996 1_554 S
Zn333 O341 1.943 . S
O334 Zn333 1.962 . S
O334 C339 1.254 . S
O335 Zn332 2.031 . S
O335 C339 1.269 1_556 S
O336 Zn333 1.986 . S
O336 C343 1.262 . S
O337 Zn332 2.049 . S
O337 C345 1.260 . S
O338 Zn333 1.996 1_556 S
O338 C345 1.257 . S
C339 O334 1.254 . S
C339 O335 1.269 1_554 S
C340 O341 1.249 1_556 S
C340 O342 1.270 . S
O341 Zn333 1.943 . S
O341 C340 1.249 1_554 S
O342 Zn332 2.067 . S
O342 C340 1.270 . S
C343 O336 1.262 . S
C343 O344 1.232 . S
O344 C343 1.232 . S
C345 O337 1.260 . S
C345 O338 1.257 . S
Zn346 O349 2.031 . S
Zn346 O351 2.049 . S
Zn346 O356 2.067 1_545 S
Zn347 O348 1.962 . S
Zn347 O350 1.986 1_655 S
Zn347 O352 1.996 1_655 S
Zn347 O355 1.943 1_545 S
O348 Zn347 1.962 . S
O348 C353 1.254 . S
O349 Zn346 2.031 . S
O349 C353 1.269 . S
O350 Zn347 1.986 1_455 S
O350 C357 1.262 . S
O351 Zn346 2.049 . S
O351 C359 1.260 1_655 S
O352 Zn347 1.996 1_455 S
O352 C359 1.257 . S
C353 O348 1.254 . S
C353 O349 1.269 . S
C354 O355 1.249 . S
C354 O356 1.270 . S
O355 Zn347 1.943 1_565 S
O355 C354 1.249 . S
O356 Zn346 2.067 1_565 S
O356 C354 1.270 . S
C357 O350 1.262 . S
C357 O358 1.232 1_455 S
O358 C357 1.232 1_655 S
C359 O351 1.260 1_455 S
C359 O352 1.257 . S
Zn360 O363 2.031 . S
Zn360 O365 2.049 . S
Zn360 O370 2.067 . S
Zn361 O362 1.962 . S
Zn361 O364 1.986 . S
Zn361 O366 1.996 . S
Zn361 O369 1.943 . S
O362 Zn361 1.962 . S
O362 C367 1.254 . S
O363 Zn360 2.031 . S
O363 C367 1.269 . S
O364 Zn361 1.986 . S
O364 C371 1.262 . S
O365 Zn360 2.049 . S
O365 C373 1.260 . S
O366 Zn361 1.996 . S
O366 C373 1.257 . S
C367 O362 1.254 . S
C367 O363 1.269 . S
C368 O369 1.249 . S
C368 O370 1.270 . S
O369 Zn361 1.943 . S
O369 C368 1.249 . S
O370 Zn360 2.067 . S
O370 C368 1.270 . S
C371 O364 1.262 . S
C371 O372 1.232 . S
O372 C371 1.232 . S
C373 O365 1.260 . S
C373 O366 1.257 . S
Zn374 O377 2.031 . S
Zn374 O379 2.049 . S
Zn374 O384 2.067 . S
Zn375 O376 1.962 . S
Zn375 O378 1.986 . S
Zn375 O380 1.996 . S
Zn375 O383 1.943 . S
O376 Zn375 1.962 . S
O376 C381 1.254 . S
O377 Zn374 2.031 . S
O377 C381 1.269 . S
O378 Zn375 1.986 . S
O378 C385 1.262 . S
O379 Zn374 2.049 . S
O379 C387 1.260 . S
O380 Zn375 1.996 . S
O380 C387 1.257 . S
C381 O376 1.254 . S
C381 O377 1.269 . S
C382 O383 1.249 . S
C382 O384 1.270 . S
O383 Zn375 1.943 . S
O383 C382 1.249 . S
O384 Zn374 2.067 . S
O384 C382 1.270 . S
C385 O378 1.262 . S
C385 O386 1.232 . S
O386 C385 1.232 . S
C387 O379 1.260 . S
C387 O380 1.257 . S
Zn388 O391 2.031 . S
Zn388 O393 2.049 . S
Zn388 O398 2.067 . S
Zn389 O390 1.962 . S
Zn389 O392 1.986 . S
Zn389 O394 1.996 . S
Zn389 O397 1.943 . S
O390 Zn389 1.962 . S
O390 C395 1.254 . S
O391 Zn388 2.031 . S
O391 C395 1.269 . S
O392 Zn389 1.986 . S
O392 C399 1.262 . S
O393 Zn388 2.049 . S
O393 C401 1.260 . S
O394 Zn389 1.996 . S
O394 C401 1.257 . S
C395 O390 1.254 . S
C395 O391 1.269 . S
C396 O397 1.249 . S
C396 O398 1.270 . S
O397 Zn389 1.943 . S
O397 C396 1.249 . S
O398 Zn388 2.067 . S
O398 C396 1.270 . S
C399 O392 1.262 . S
C399 O400 1.232 . S
O400 C399 1.232 . S
C401 O393 1.260 . S
C401 O394 1.257 . S
Zn402 O405 2.031 1_565 S
Zn402 O407 2.049 . S
Zn402 O412 2.067 . S
Zn403 O404 1.962 . S
Zn403 O406 1.986 . S
Zn403 O408 1.996 1_545 S
Zn403 O411 1.943 . S
O404 Zn403 1.962 . S
O404 C409 1.254 . S
O405 Zn402 2.031 1_545 S
O405 C409 1.269 . S
O406 Zn403 1.986 . S
O406 C413 1.262 . S
O407 Zn402 2.049 . S
O407 C415 1.260 . S
O408 Zn403 1.996 1_565 S
O408 C415 1.257 . S
C409 O404 1.254 . S
C409 O405 1.269 . S
C410 O411 1.249 1_565 S
C410 O412 1.270 . S
O411 Zn403 1.943 . S
O411 C410 1.249 1_545 S
O412 Zn402 2.067 . S
O412 C410 1.270 . S
C413 O406 1.262 . S
C413 O414 1.232 . S
O414 C413 1.232 . S
C415 O407 1.260 . S
C415 O408 1.257 . S
Zn416 O419 2.031 . S
Zn416 O421 2.049 1_455 S
Zn416 O426 2.067 1_455 S
Zn417 O418 1.962 . S
Zn417 O420 1.986 . S
Zn417 O422 1.996 . S
Zn417 O425 1.943 1_455 S
O418 Zn417 1.962 . S
O418 C423 1.254 . S
O419 Zn416 2.031 . S
O419 C423 1.269 . S
O420 Zn417 1.986 . S
O420 C427 1.262 . S
O421 Zn416 2.049 1_655 S
O421 C429 1.260 . S
O422 Zn417 1.996 . S
O422 C429 1.257 1_455 S
C423 O418 1.254 . S
C423 O419 1.269 . S
C424 O425 1.249 . S
C424 O426 1.270 . S
O425 Zn417 1.943 1_655 S
O425 C424 1.249 . S
O426 Zn416 2.067 1_655 S
O426 C424 1.270 . S
C427 O420 1.262 . S
C427 O428 1.232 . S
O428 C427 1.232 . S
C429 O421 1.260 . S
C429 O422 1.257 1_655 S
Zn430 O433 2.031 . S
Zn430 O435 2.049 . S
Zn430 O440 2.067 . S
Zn431 O432 1.962 . S
Zn431 O434 1.986 . S
Zn431 O436 1.996 . S
Zn431 O439 1.943 . S
O432 Zn431 1.962 . S
O432 C437 1.254 . S
O433 Zn430 2.031 . S
O433 C437 1.269 . S
O434 Zn431 1.986 . S
O434 C441 1.262 . S
O435 Zn430 2.049 . S
O435 C443 1.260 . S
O436 Zn431 1.996 . S
O436 C443 1.257 . S
C437 O432 1.254 . S
C437 O433 1.269 . S
C438 O439 1.249 . S
C438 O440 1.270 . S
O439 Zn431 1.943 . S
O439 C438 1.249 . S
O440 Zn430 2.067 . S
O440 C438 1.270 . S
C441 O434 1.262 . S
C441 O442 1.232 . S
O442 C441 1.232 . S
C443 O435 1.260 . S
C443 O436 1.257 . S
Zn444 O447 2.031 . S
Zn444 O449 2.049 . S
Zn444 O454 2.067 . S
Zn445 O446 1.962 . S
Zn445 O448 1.986 . S
Zn445 O450 1.996 1_455 S
Zn445 O453 1.943 . S
O446 Zn445 1.962 . S
O446 C451 1.254 . S
O447 Zn444 2.031 . S
O447 C451 1.269 1_655 S
O448 Zn445 1.986 . S
O448 C455 1.262 . S
O449 Zn444 2.049 . S
O449 C457 1.260 . S
O450 Zn445 1.996 1_655 S
O450 C457 1.257 . S
C451 O446 1.254 . S
C451 O447 1.269 1_455 S
C452 O453 1.249 1_655 S
C452 O454 1.270 . S
O453 Zn445 1.943 . S
O453 C452 1.249 1_455 S
O454 Zn444 2.067 . S
O454 C452 1.270 . S
C455 O448 1.262 . S
C455 O456 1.232 . S
O456 C455 1.232 . S
C457 O449 1.260 . S
C457 O450 1.257 . S
Zn458 O461 2.031 . S
Zn458 O463 2.049 . S
Zn458 O468 2.067 . S
Zn459 O460 1.962 . S
Zn459 O462 1.986 . S
Zn459 O464 1.996 . S
Zn459 O467 1.943 . S
O460 Zn459 1.962 . S
O460 C465 1.254 . S
O461 Zn458 2.031 . S
O461 C465 1.269 . S
O462 Zn459 1.986 . S
O462 C469 1.262 . S
O463 Zn458 2.049 . S
O463 C471 1.260 . S
O464 Zn459 1.996 . S
O464 C471 1.257 . S
C465 O460 1.254 . S
C465 O461 1.269 . S
C466 O467 1.249 . S
C466 O468 1.270 . S
O467 Zn459 1.943 . S
O467 C466 1.249 . S
O468 Zn458 2.067 . S
O468 C466 1.270 . S
C469 O462 1.262 . S
C469 O470 1.232 . S
O470 C469 1.232 . S
C471 O463 1.260 . S
C471 O464 1.257 . S
C312 C101 2.374 . S
C325 C125 1.242 . S
C139 C345 2.193 . S
C359 C82 1.632 . S
C371 C196 1.763 . S
C385 C234 2.308 . S
C220 C395 0.781 . S
C410 C173 2.264 1_565 S
C211 C424 0.888 . S
C443 C182 0.643 . S
C201 C423 1.230 . S
C441 C239 1.357 . S
C135 C457 2.247 . S
C87 C451 1.784 . S
C106 C455 1.031 . S
C116 C452 1.188 . S
C59 C354 2.212 . S
C268 C353 2.395 . S
C317 C291 1.953 1_565 S
C331 C163 1.270 . S
C78 C368 2.182 . S
C413 C215 1.490 . S
C367 C177 2.307 . S
C399 C230 1.942 . S
C396 C272 2.374 . S
C296 C409 1.242 . S
C158 C373 2.193 . S
C387 C253 1.632 . S
C63 C343 1.763 . S
C357 C6 2.308 1_545 S
C311 C30 0.781 . S
C326 C40 2.264 1_455 S
C21 C438 0.888 . S
C49 C429 0.643 . S
C68 C437 1.230 . S
C11 C427 1.357 . S
C471 C154 2.247 . S
C465 C258 1.784 . S
C469 C277 1.031 . S
C287 C466 1.188 . S
C192 C382 2.212 . S
C381 C97 2.396 . S
C401 C120 1.953 . S
C415 C144 1.270 . S
C249 C340 2.182 . S
C329 C25 1.490 . S
C44 C339 2.307 . S
C315 C2 1.942 . S
