# Generated by pormake.
# Topology hwx, (6,3)-cn, num edge types: 1
# Building blocks:
#     Node 0, Type 0, BuildingBlock: IZENUY_clean_sbu_0, # of connection points: 6
#     Node 1, Type 0, BuildingBlock: IZENUY_clean_sbu_0, # of connection points: 6
#     Node 2, Type 0, BuildingBlock: IZENUY_clean_sbu_0, # of connection points: 6
#     Node 3, Type 0, BuildingBlock: IZENUY_clean_sbu_0, # of connection points: 6
#     Node 4, Type 1, BuildingBlock: ESEHIV_clean_linker_0, # of connection points: 3
#     Node 5, Type 1, BuildingBlock: ESEHIV_clean_linker_0, # of connection points: 3
#     Node 6, Type 1, BuildingBlock: ESEHIV_clean_linker_0, # of connection points: 3
#     Node 7, Type 1, BuildingBlock: ESEHIV_clean_linker_0, # of connection points: 3
#     Node 8, Type 1, BuildingBlock: ESEHIV_clean_linker_0, # of connection points: 3
#     Node 9, Type 1, BuildingBlock: ESEHIV_clean_linker_0, # of connection points: 3
#     Node 10, Type 1, BuildingBlock: ESEHIV_clean_linker_0, # of connection points: 3
#     Node 11, Type 1, BuildingBlock: ESEHIV_clean_linker_0, # of connection points: 3
#     Edge 12, Type (0, 1), BuildingBlock: MIFKUJ_clean_linker_0, # of connection points: 2
#     Edge 13, Type (0, 1), BuildingBlock: MIFKUJ_clean_linker_0, # of connection points: 2
#     Edge 14, Type (0, 1), BuildingBlock: MIFKUJ_clean_linker_0, # of connection points: 2
#     Edge 15, Type (0, 1), BuildingBlock: MIFKUJ_clean_linker_0, # of connection points: 2
#     Edge 16, Type (0, 1), BuildingBlock: MIFKUJ_clean_linker_0, # of connection points: 2
#     Edge 17, Type (0, 1), BuildingBlock: MIFKUJ_clean_linker_0, # of connection points: 2
#     Edge 18, Type (0, 1), BuildingBlock: MIFKUJ_clean_linker_0, # of connection points: 2
#     Edge 19, Type (0, 1), BuildingBlock: MIFKUJ_clean_linker_0, # of connection points: 2
#     Edge 20, Type (0, 1), BuildingBlock: MIFKUJ_clean_linker_0, # of connection points: 2
#     Edge 21, Type (0, 1), BuildingBlock: MIFKUJ_clean_linker_0, # of connection points: 2
#     Edge 22, Type (0, 1), BuildingBlock: MIFKUJ_clean_linker_0, # of connection points: 2
#     Edge 23, Type (0, 1), BuildingBlock: MIFKUJ_clean_linker_0, # of connection points: 2
#     Edge 24, Type (0, 1), BuildingBlock: MIFKUJ_clean_linker_0, # of connection points: 2
#     Edge 25, Type (0, 1), BuildingBlock: MIFKUJ_clean_linker_0, # of connection points: 2
#     Edge 26, Type (0, 1), BuildingBlock: MIFKUJ_clean_linker_0, # of connection points: 2
#     Edge 27, Type (0, 1), BuildingBlock: MIFKUJ_clean_linker_0, # of connection points: 2
#     Edge 28, Type (0, 1), BuildingBlock: MIFKUJ_clean_linker_0, # of connection points: 2
#     Edge 29, Type (0, 1), BuildingBlock: MIFKUJ_clean_linker_0, # of connection points: 2
#     Edge 30, Type (0, 1), BuildingBlock: MIFKUJ_clean_linker_0, # of connection points: 2
#     Edge 31, Type (0, 1), BuildingBlock: MIFKUJ_clean_linker_0, # of connection points: 2
#     Edge 32, Type (0, 1), BuildingBlock: MIFKUJ_clean_linker_0, # of connection points: 2
#     Edge 33, Type (0, 1), BuildingBlock: MIFKUJ_clean_linker_0, # of connection points: 2
#     Edge 34, Type (0, 1), BuildingBlock: MIFKUJ_clean_linker_0, # of connection points: 2
#     Edge 35, Type (0, 1), BuildingBlock: MIFKUJ_clean_linker_0, # of connection points: 2
# Relax obj value: 0.051
# Max RMSD: 0.076
# Mean RMSD: 0.067
data_MOF--net-hwx--node1-IZENUY_clean_sbu_0--node2-ESEHIV_clean_linker_0--edge1-MIFKUJ_clean_linker_0
_symmetry_space_group_name_H-M    P1
_symmetry_Int_Tables_number       1
_symmetry_cell_setting            triclinic
loop_
_symmetry_equiv_pos_as_xyz
'x, y, z'
_cell_length_a     58.642975
_cell_length_b     58.656365
_cell_length_c     28.455152
_cell_angle_alpha  89.939644
_cell_angle_beta   90.040444
_cell_angle_gamma 90.020847
loop_
_atom_site_label
_atom_site_type_symbol
_atom_site_fract_x
_atom_site_fract_y
_atom_site_fract_z
_atom_type_partial_charge
Fe0 Fe 0.23894 0.21055 0.06374 0.0
Fe1 Fe 0.23843 0.21117 0.95622 0.0
O2 O 0.23149 0.19753 0.0098 0.0
Fe3 Fe 0.2172 0.17095 0.00941 0.0
O4 O 0.19344 0.18231 0.04272 0.0
O5 O 0.2144 0.19932 0.09619 0.0
O6 O 0.22172 0.23542 0.05043 0.0
C7 C 0.22449 0.2477 0.01449 0.0
C8 C 0.24942 0.16622 0.08335 0.0
O9 O 0.23549 0.24025 0.97941 0.0
C10 C 0.24671 0.16458 0.93652 0.0
O11 O 0.26494 0.22417 0.0411 0.0
O12 O 0.2686 0.21028 0.96984 0.0
O13 O 0.23124 0.16022 0.06265 0.0
O14 O 0.25656 0.18648 0.0806 0.0
C15 C 0.19562 0.19579 0.93631 0.0
O16 O 0.2425 0.18471 0.92308 0.0
O17 O 0.23997 0.15763 0.97608 0.0
C18 C 0.27723 0.21923 0.00598 0.0
O19 O 0.20874 0.21278 0.93928 0.0
O20 O 0.20056 0.17708 0.95618 0.0
C21 C 0.19535 0.19168 0.08237 0.0
Fe22 Fe 0.2601 0.70797 0.56006 0.0
Fe23 Fe 0.28092 0.66714 0.50776 0.0
O24 O 0.26826 0.69467 0.50675 0.0
Fe25 Fe 0.26364 0.70909 0.45274 0.0
O26 O 0.28135 0.7329 0.47064 0.0
O27 O 0.26535 0.73717 0.53961 0.0
O28 O 0.28911 0.70763 0.58145 0.0
C29 C 0.30129 0.68999 0.58523 0.0
C30 C 0.22368 0.71887 0.5051 0.0
O31 O 0.29624 0.67181 0.56343 0.0
C32 C 0.25136 0.66558 0.42852 0.0
O33 O 0.25325 0.68147 0.59086 0.0
O34 O 0.25647 0.65476 0.5374 0.0
O35 O 0.23738 0.72343 0.47197 0.0
O36 O 0.23055 0.70904 0.54188 0.0
C37 C 0.30664 0.68811 0.44 0.0
O38 O 0.2679 0.65782 0.45234 0.0
O39 O 0.24575 0.68631 0.43068 0.0
C40 C 0.24832 0.66185 0.57563 0.0
O41 O 0.30637 0.67713 0.47805 0.0
O42 O 0.2889 0.69748 0.4238 0.0
C43 C 0.27774 0.74475 0.50674 0.0
Fe44 Fe 0.76111 0.79939 0.94033 0.0
Fe45 Fe 0.76133 0.7987 0.0481 0.0
O46 O 0.76822 0.81242 0.99446 0.0
Fe47 Fe 0.78241 0.83913 0.99508 0.0
O48 O 0.76903 0.84972 0.94085 0.0
O49 O 0.74378 0.82353 0.92264 0.0
O50 O 0.73477 0.7861 0.96208 0.0
C51 C 0.72265 0.79026 0.9979 0.0
C52 C 0.80507 0.81784 0.92371 0.0
O53 O 0.73125 0.79877 0.03448 0.0
C54 C 0.80366 0.8149 0.0693 0.0
O55 O 0.77809 0.77436 0.95405 0.0
O56 O 0.76474 0.76961 0.02546 0.0
O57 O 0.80657 0.82767 0.96302 0.0
O58 O 0.7861 0.81038 0.90898 0.0
C59 C 0.75185 0.84527 0.06621 0.0
O60 O 0.79108 0.79759 0.0653 0.0
O61 O 0.79838 0.8335 0.04948 0.0
C62 C 0.77548 0.76216 0.99013 0.0
O63 O 0.75642 0.82531 0.08053 0.0
O64 O 0.75921 0.8523 0.02714 0.0
C65 C 0.75105 0.84371 0.9195 0.0
Fe66 Fe 0.71898 0.3417 0.4908 0.0
Fe67 Fe 0.73562 0.29996 0.54563 0.0
O68 O 0.7312 0.31408 0.49142 0.0
Fe69 Fe 0.73902 0.30066 0.43805 0.0
O70 O 0.7585 0.32363 0.42291 0.0
O71 O 0.73463 0.3514 0.4388 0.0
O72 O 0.74211 0.35319 0.52601 0.0
C73 C 0.74734 0.34576 0.56619 0.0
C74 C 0.6972 0.32264 0.41577 0.0
O75 O 0.74109 0.32609 0.57921 0.0
C76 C 0.72071 0.26449 0.48563 0.0
O77 O 0.701 0.33703 0.54282 0.0
O78 O 0.70546 0.30071 0.55909 0.0
O79 O 0.71586 0.31347 0.40368 0.0
O80 O 0.69513 0.33209 0.45536 0.0
C81 C 0.77507 0.28908 0.50002 0.0
O82 O 0.7309 0.27127 0.52225 0.0
O83 O 0.72016 0.27667 0.44908 0.0
C84 C 0.69396 0.3188 0.56181 0.0
O85 O 0.76608 0.29828 0.53551 0.0
O86 O 0.76356 0.28551 0.46307 0.0
C87 C 0.75272 0.34429 0.41951 0.0
H88 H 0.18142 0.55438 0.99373 0.0
H89 H 0.17643 0.48879 0.92732 0.0
H90 H 0.18638 0.49329 0.0767 0.0
C91 C 0.18094 0.53596 0.99627 0.0
C92 C 0.1836 0.52551 0.04041 0.0
C93 C 0.17861 0.52289 0.95517 0.0
C94 C 0.17841 0.49902 0.95875 0.0
C95 C 0.181 0.48821 0.00253 0.0
C96 C 0.18342 0.50157 0.04319 0.0
H97 H 0.9308 0.82365 0.49445 0.0
H98 H 0.99233 0.80449 0.42291 0.0
H99 H 0.99137 0.80869 0.57396 0.0
C100 C 0.94872 0.81912 0.49566 0.0
C101 C 0.9597 0.81675 0.53927 0.0
C102 C 0.96043 0.81478 0.45365 0.0
C103 C 0.98345 0.80836 0.45533 0.0
C104 C 0.99483 0.80629 0.4986 0.0
C105 C 0.98285 0.81067 0.5404 0.0
H106 H 0.81837 0.45566 0.99641 0.0
H107 H 0.82179 0.51991 0.06855 0.0
H108 H 0.81517 0.51835 0.91811 0.0
C109 C 0.81889 0.47411 0.99531 0.0
C110 C 0.81681 0.48542 0.95193 0.0
C111 C 0.82041 0.48635 0.03758 0.0
C112 C 0.82089 0.5103 0.03608 0.0
C113 C 0.81923 0.52192 0.99299 0.0
C114 C 0.81717 0.50937 0.95116 0.0
H115 H 0.06971 0.18851 0.50965 0.0
H116 H 0.00854 0.20376 0.58543 0.0
H117 H 0.00862 0.20569 0.43387 0.0
C118 C 0.05182 0.19317 0.50935 0.0
C119 C 0.04042 0.19628 0.46645 0.0
C120 C 0.04047 0.19615 0.55214 0.0
C121 C 0.01724 0.2016 0.55214 0.0
C122 C 0.00548 0.20516 0.50963 0.0
C123 C 0.01721 0.20227 0.46684 0.0
H124 H 0.6889 0.95691 0.49107 0.0
H125 H 0.68697 0.02006 0.56669 0.0
H126 H 0.67927 0.01981 0.41616 0.0
C127 C 0.68643 0.97521 0.49102 0.0
C128 C 0.68419 0.98691 0.44816 0.0
C129 C 0.68689 0.987 0.53395 0.0
C130 C 0.68571 0.01094 0.53373 0.0
C131 C 0.68337 0.02307 0.49123 0.0
C132 C 0.68194 0.01076 0.44888 0.0
H133 H 0.56826 0.3278 0.98485 0.0
H134 H 0.51168 0.30558 0.06961 0.0
H135 H 0.50808 0.30125 0.91868 0.0
C136 C 0.55112 0.32098 0.98771 0.0
C137 C 0.53923 0.31503 0.94681 0.0
C138 C 0.54142 0.31745 0.03222 0.0
C139 C 0.51917 0.3087 0.03539 0.0
C140 C 0.50704 0.30273 0.99457 0.0
C141 C 0.51728 0.30578 0.95039 0.0
H142 H 0.31328 0.05319 0.50689 0.0
H143 H 0.31525 0.98943 0.43329 0.0
H144 H 0.31102 0.99024 0.58428 0.0
C145 C 0.31372 0.03473 0.50768 0.0
C146 C 0.31195 0.02323 0.55088 0.0
C147 C 0.31477 0.02268 0.46519 0.0
C148 C 0.31496 0.99875 0.46614 0.0
C149 C 0.31386 0.98685 0.50901 0.0
C150 C 0.31245 0.99927 0.55121 0.0
H151 H 0.43005 0.68467 0.01619 0.0
H152 H 0.48888 0.70058 0.93256 0.0
H153 H 0.49251 0.70413 0.08383 0.0
C154 C 0.4479 0.68939 0.01387 0.0
C155 C 0.46041 0.6933 0.05507 0.0
C156 C 0.45804 0.69231 0.96967 0.0
C157 C 0.48109 0.69855 0.96683 0.0
C158 C 0.49381 0.70294 0.00781 0.0
C159 C 0.48321 0.70034 0.05186 0.0
H160 H 0.19451 0.20851 0.17147 0.0
H161 H 0.1642 0.20504 0.22929 0.0
H162 H 0.12211 0.17002 0.12812 0.0
H163 H 0.15255 0.17347 0.06934 0.0
H164 H 0.09818 0.2025 0.1815 0.0
H165 H 0.14632 0.1389 0.20754 0.0
H166 H 0.18255 0.11819 0.21791 0.0
H167 H 0.19652 0.15642 0.34324 0.0
H168 H 0.16057 0.17768 0.33319 0.0
H169 H 0.02668 0.17616 0.38388 0.0
H170 H 0.04904 0.17168 0.31149 0.0
H171 H 0.10534 0.20717 0.37605 0.0
H172 H 0.08313 0.21215 0.44756 0.0
H173 H 0.11806 0.16637 0.33391 0.0
H174 H 0.07241 0.23372 0.29843 0.0
H175 H 0.03612 0.25423 0.28702 0.0
H176 H 0.01699 0.20709 0.17856 0.0
H177 H 0.05307 0.18611 0.1898 0.0
C178 C 0.17882 0.20014 0.1612 0.0
C179 C 0.17608 0.19103 0.11587 0.0
C180 C 0.16152 0.19812 0.19442 0.0
C181 C 0.14112 0.18691 0.18317 0.0
C182 C 0.13784 0.17858 0.13747 0.0
C183 C 0.15524 0.18055 0.10404 0.0
C184 C 0.12364 0.18373 0.22004 0.0
C185 C 0.10228 0.19414 0.21448 0.0
C186 C 0.12909 0.17283 0.26299 0.0
C187 C 0.15075 0.16 0.26942 0.0
C188 C 0.15719 0.14303 0.23712 0.0
C189 C 0.17768 0.13117 0.24297 0.0
C190 C 0.19184 0.13599 0.28118 0.0
C191 C 0.18553 0.15269 0.31365 0.0
C192 C 0.16508 0.16464 0.30792 0.0
C193 C 0.04373 0.18321 0.38236 0.0
C194 C 0.05323 0.19428 0.42164 0.0
C195 C 0.05648 0.18056 0.34113 0.0
C196 C 0.07887 0.18897 0.33866 0.0
C197 C 0.08819 0.20032 0.37749 0.0
C198 C 0.07548 0.20307 0.41841 0.0
C199 C 0.09301 0.18598 0.29607 0.0
C200 C 0.11375 0.17428 0.30058 0.0
C201 C 0.0869 0.19553 0.25217 0.0
C202 C 0.06528 0.20818 0.24538 0.0
C203 C 0.06037 0.22761 0.27246 0.0
C204 C 0.03986 0.23934 0.26596 0.0
C205 C 0.02422 0.23192 0.2322 0.0
C206 C 0.02909 0.21279 0.20477 0.0
C207 C 0.04957 0.20097 0.21118 0.0
H208 H 0.00836 0.24104 0.22721 0.0
H209 H 0.20769 0.12677 0.28567 0.0
H210 H 0.24833 0.61509 0.5762 0.0
H211 H 0.23011 0.59012 0.63402 0.0
H212 H 0.1999 0.64874 0.70118 0.0
H213 H 0.21869 0.67374 0.64462 0.0
H214 H 0.21947 0.6242 0.76373 0.0
H215 H 0.16789 0.60815 0.63842 0.0
H216 H 0.15625 0.59721 0.5583 0.0
H217 H 0.18729 0.5315 0.57656 0.0
H218 H 0.19942 0.54216 0.65661 0.0
H219 H 0.1563 0.56207 0.92938 0.0
H220 H 0.16173 0.58406 0.85716 0.0
H221 H 0.20578 0.53152 0.80282 0.0
H222 H 0.201 0.50969 0.8753 0.0
H223 H 0.17625 0.553 0.73303 0.0
H224 H 0.23026 0.57177 0.85663 0.0
H225 H 0.24018 0.58299 0.93761 0.0
H226 H 0.20216 0.64506 0.92146 0.0
H227 H 0.19165 0.63398 0.84061 0.0
C228 C 0.23751 0.62259 0.60288 0.0
C229 C 0.23512 0.64636 0.60624 0.0
C230 C 0.22701 0.60829 0.6358 0.0
C231 C 0.21354 0.61752 0.67196 0.0
C232 C 0.21031 0.64121 0.67385 0.0
C233 C 0.22105 0.65548 0.64148 0.0
C234 C 0.20449 0.60284 0.71025 0.0
C235 C 0.20964 0.60889 0.75682 0.0
C236 C 0.19206 0.58256 0.70148 0.0
C237 C 0.18474 0.57604 0.6534 0.0
C238 C 0.1724 0.59143 0.62524 0.0
C239 C 0.16568 0.58527 0.57985 0.0
C240 C 0.17107 0.56369 0.5623 0.0
C241 C 0.18314 0.54822 0.59018 0.0
C242 C 0.18992 0.5543 0.63559 0.0
C243 C 0.16696 0.55507 0.90188 0.0
C244 C 0.17849 0.53428 0.90845 0.0
C245 C 0.16987 0.56756 0.86051 0.0
C246 C 0.1843 0.55946 0.82495 0.0
C247 C 0.19448 0.53798 0.82983 0.0
C248 C 0.1917 0.52552 0.87132 0.0
C249 C 0.19116 0.5746 0.78584 0.0
C250 C 0.18581 0.56852 0.73946 0.0
C251 C 0.20323 0.59502 0.7946 0.0
C252 C 0.20997 0.60194 0.84279 0.0
C253 C 0.22388 0.58773 0.87048 0.0
C254 C 0.22962 0.59407 0.91633 0.0
C255 C 0.22175 0.61469 0.93472 0.0
C256 C 0.2082 0.62907 0.9072 0.0
C257 C 0.20236 0.62277 0.86136 0.0
H258 H 0.2262 0.61956 0.97024 0.0
H259 H 0.16586 0.55896 0.52715 0.0
H260 H 0.82347 0.85095 0.11375 0.0
H261 H 0.85338 0.85001 0.17313 0.0
H262 H 0.85793 0.77686 0.15901 0.0
H263 H 0.8271 0.77764 0.101 0.0
H264 H 0.85815 0.78645 0.24596 0.0
H265 H 0.90032 0.8153 0.1162 0.0
H266 H 0.9089 0.84028 0.04874 0.0
H267 H 0.91083 0.89844 0.14015 0.0
H268 H 0.90194 0.87387 0.20811 0.0
H269 H 0.95872 0.78163 0.38687 0.0
H270 H 0.93543 0.78118 0.31525 0.0
H271 H 0.91088 0.84873 0.34701 0.0
H272 H 0.93395 0.84915 0.41904 0.0
H273 H 0.92373 0.83994 0.24783 0.0
H274 H 0.87837 0.80922 0.37612 0.0
H275 H 0.87144 0.78276 0.44198 0.0
H276 H 0.87805 0.7257 0.34856 0.0
H277 H 0.88541 0.75185 0.28226 0.0
C278 C 0.83099 0.83468 0.12292 0.0
C279 C 0.82295 0.81436 0.1027 0.0
C280 C 0.84823 0.83417 0.15672 0.0
C281 C 0.85827 0.8134 0.17008 0.0
C282 C 0.8505 0.7931 0.1493 0.0
C283 C 0.83292 0.79356 0.1161 0.0
C284 C 0.87589 0.81282 0.20768 0.0
C285 C 0.87271 0.79786 0.24571 0.0
C286 C 0.89481 0.82789 0.20797 0.0
C287 C 0.90029 0.84275 0.16722 0.0
C288 C 0.90243 0.83344 0.12189 0.0
C289 C 0.90736 0.84753 0.08356 0.0
C290 C 0.91036 0.87094 0.09014 0.0
C291 C 0.90849 0.88031 0.1351 0.0
C292 C 0.90353 0.8663 0.17355 0.0
C293 C 0.94862 0.7965 0.37812 0.0
C294 C 0.94805 0.81542 0.40835 0.0
C295 C 0.93532 0.7962 0.3374 0.0
C296 C 0.92146 0.8149 0.32609 0.0
C297 C 0.92155 0.83418 0.35521 0.0
C298 C 0.93459 0.83435 0.39633 0.0
C299 C 0.90571 0.81378 0.28559 0.0
C300 C 0.90926 0.82841 0.24734 0.0
C301 C 0.88736 0.79817 0.28462 0.0
C302 C 0.8827 0.78247 0.32437 0.0
C303 C 0.87856 0.79103 0.36971 0.0
C304 C 0.87451 0.77609 0.4071 0.0
C305 C 0.87437 0.75256 0.39949 0.0
C306 C 0.87821 0.74392 0.35443 0.0
C307 C 0.88231 0.75879 0.31693 0.0
H308 H 0.87123 0.74102 0.42848 0.0
H309 H 0.91418 0.88181 0.06042 0.0
H310 H 0.76949 0.38636 0.55046 0.0
H311 H 0.78446 0.41281 0.60995 0.0
H312 H 0.763 0.36688 0.71973 0.0
H313 H 0.74846 0.34033 0.66112 0.0
H314 H 0.74747 0.41442 0.72645 0.0
H315 H 0.81532 0.36823 0.69927 0.0
H316 H 0.84573 0.3524 0.64913 0.0
H317 H 0.86765 0.42008 0.61342 0.0
H318 H 0.8371 0.43632 0.66274 0.0
H319 H 0.79012 0.44749 0.94182 0.0
H320 H 0.78163 0.42651 0.87047 0.0
H321 H 0.82316 0.47313 0.79024 0.0
H322 H 0.83304 0.49355 0.86257 0.0
H323 H 0.829 0.43081 0.75887 0.0
H324 H 0.76498 0.47779 0.7894 0.0
H325 H 0.73424 0.49546 0.83584 0.0
H326 H 0.70421 0.42967 0.85945 0.0
H327 H 0.73496 0.41154 0.81376 0.0
C328 C 0.76815 0.38185 0.58728 0.0
C329 C 0.75772 0.36129 0.60109 0.0
C330 C 0.77674 0.39692 0.62109 0.0
C331 C 0.77474 0.39173 0.66905 0.0
C332 C 0.76465 0.37114 0.68281 0.0
C333 C 0.75642 0.35597 0.64921 0.0
C334 C 0.78211 0.40804 0.70554 0.0
C335 C 0.76528 0.41796 0.73378 0.0
C336 C 0.80531 0.41329 0.71355 0.0
C337 C 0.82374 0.40349 0.6842 0.0
C338 C 0.82646 0.37974 0.68033 0.0
C339 C 0.84376 0.37069 0.65215 0.0
C340 C 0.85856 0.38523 0.62799 0.0
C341 C 0.85614 0.40884 0.63207 0.0
C342 C 0.83884 0.41797 0.66014 0.0
C343 C 0.79793 0.45308 0.90933 0.0
C344 C 0.81234 0.47225 0.90814 0.0
C345 C 0.79275 0.44122 0.8683 0.0
C346 C 0.80134 0.44853 0.8248 0.0
C347 C 0.81618 0.4673 0.82339 0.0
C348 C 0.82164 0.47907 0.8647 0.0
C349 C 0.79433 0.4366 0.78112 0.0
C350 C 0.81116 0.42759 0.75131 0.0
C351 C 0.77104 0.43246 0.77102 0.0
C352 C 0.75239 0.44329 0.79837 0.0
C353 C 0.75191 0.46706 0.80475 0.0
C354 C 0.73447 0.47717 0.83092 0.0
C355 C 0.7173 0.4637 0.85064 0.0
C356 C 0.71752 0.44009 0.84416 0.0
C357 C 0.73494 0.42989 0.81808 0.0
H358 H 0.70382 0.47155 0.87089 0.0
H359 H 0.87195 0.37821 0.60625 0.0
H360 H 0.65522 0.34298 0.42572 0.0
H361 H 0.62574 0.34751 0.36526 0.0
H362 H 0.6681 0.31156 0.26607 0.0
H363 H 0.69754 0.30715 0.32558 0.0
H364 H 0.65037 0.34994 0.22821 0.0
H365 H 0.62324 0.28549 0.32127 0.0
H366 H 0.61085 0.26738 0.39526 0.0
H367 H 0.55715 0.31666 0.40905 0.0
H368 H 0.5694 0.33522 0.33533 0.0
H369 H 0.58533 0.30469 0.04748 0.0
H370 H 0.60851 0.31105 0.11725 0.0
H371 H 0.55208 0.34514 0.18434 0.0
H372 H 0.52854 0.33863 0.1141 0.0
H373 H 0.57321 0.31603 0.24405 0.0
H374 H 0.59645 0.37617 0.14284 0.0
H375 H 0.60876 0.39378 0.06834 0.0
H376 H 0.66985 0.35347 0.06992 0.0
H377 H 0.65777 0.33536 0.14408 0.0
C378 C 0.6582 0.33598 0.39106 0.0
C379 C 0.67874 0.32469 0.38052 0.0
C380 C 0.64135 0.33858 0.35661 0.0
C381 C 0.64475 0.32984 0.31124 0.0
C382 C 0.66518 0.31853 0.3008 0.0
C383 C 0.68196 0.31592 0.33503 0.0
C384 C 0.6272 0.33216 0.27411 0.0
C385 C 0.6335 0.3425 0.23157 0.0
C386 C 0.60493 0.32323 0.27925 0.0
C387 C 0.59738 0.31188 0.32312 0.0
C388 C 0.60888 0.29254 0.34025 0.0
C389 C 0.60187 0.28219 0.3821 0.0
C390 C 0.58327 0.29091 0.40692 0.0
C391 C 0.57158 0.30995 0.38983 0.0
C392 C 0.57853 0.32038 0.348 0.0
C393 C 0.5779 0.31379 0.07682 0.0
C394 C 0.55522 0.32145 0.07509 0.0
C395 C 0.59117 0.3174 0.11671 0.0
C396 C 0.58217 0.32899 0.15562 0.0
C397 C 0.55938 0.3363 0.15453 0.0
C398 C 0.54598 0.33256 0.11451 0.0
C399 C 0.59674 0.33293 0.19741 0.0
C400 C 0.58988 0.32392 0.24088 0.0
C401 C 0.61853 0.34313 0.1932 0.0
C402 C 0.62612 0.35431 0.14898 0.0
C403 C 0.61246 0.37097 0.1272 0.0
C404 C 0.6194 0.38105 0.08502 0.0
C405 C 0.64005 0.37472 0.06437 0.0
C406 C 0.65385 0.35836 0.08596 0.0
C407 C 0.64698 0.34821 0.12813 0.0
H408 H 0.64538 0.38251 0.03167 0.0
H409 H 0.57788 0.28288 0.43931 0.0
H410 H 0.25193 0.17052 0.84226 0.0
H411 H 0.26535 0.14284 0.78481 0.0
H412 H 0.27765 0.09412 0.89544 0.0
H413 H 0.2638 0.12174 0.95376 0.0
H414 H 0.31421 0.1013 0.81598 0.0
H415 H 0.23519 0.0823 0.84618 0.0
H416 H 0.19463 0.09204 0.85703 0.0
H417 H 0.19213 0.12001 0.71761 0.0
H418 H 0.2328 0.11076 0.70622 0.0
H419 H 0.32816 0.01465 0.64021 0.0
H420 H 0.31874 0.03503 0.7126 0.0
H421 H 0.27733 0.08215 0.63318 0.0
H422 H 0.28519 0.06102 0.56177 0.0
H423 H 0.25553 0.07095 0.70698 0.0
H424 H 0.33279 0.09495 0.67668 0.0
H425 H 0.37396 0.08967 0.66288 0.0
H426 H 0.38075 0.05681 0.79708 0.0
H427 H 0.33953 0.06164 0.81141 0.0
C428 C 0.25768 0.15403 0.85466 0.0
C429 C 0.25664 0.14827 0.90261 0.0
C430 C 0.26534 0.13825 0.82172 0.0
C431 C 0.27236 0.11651 0.83602 0.0
C432 C 0.27228 0.11089 0.88393 0.0
C433 C 0.26428 0.12662 0.91705 0.0
C434 C 0.27841 0.09947 0.8 0.0
C435 C 0.30143 0.09418 0.79265 0.0
C436 C 0.26167 0.09082 0.76908 0.0
C437 C 0.23709 0.09599 0.7755 0.0
C438 C 0.22604 0.09068 0.81797 0.0
C439 C 0.20302 0.09609 0.82419 0.0
C440 C 0.19082 0.10668 0.78807 0.0
C441 C 0.2016 0.11181 0.74557 0.0
C442 C 0.22463 0.10646 0.73919 0.0
C443 C 0.3169 0.02924 0.63823 0.0
C444 C 0.30759 0.03624 0.59492 0.0
C445 C 0.31174 0.04105 0.67962 0.0
C446 C 0.2975 0.0603 0.67837 0.0
C447 C 0.28836 0.06736 0.63516 0.0
C448 C 0.29319 0.05541 0.59408 0.0
C449 C 0.29156 0.07304 0.72179 0.0
C450 C 0.26844 0.07759 0.73062 0.0
C451 C 0.30829 0.08135 0.75344 0.0
C452 C 0.33304 0.07839 0.74485 0.0
C453 C 0.34303 0.08642 0.70306 0.0
C454 C 0.36638 0.08355 0.69518 0.0
C455 C 0.37995 0.07284 0.72901 0.0
C456 C 0.37021 0.06505 0.77086 0.0
C457 C 0.34686 0.06786 0.77889 0.0
H458 H 0.39803 0.07063 0.72285 0.0
H459 H 0.17301 0.11088 0.79297 0.0
H460 H 0.33031 0.65151 0.4079 0.0
H461 H 0.36068 0.6518 0.34889 0.0
H462 H 0.35985 0.72549 0.34884 0.0
H463 H 0.32834 0.72498 0.40512 0.0
H464 H 0.35955 0.71321 0.26574 0.0
H465 H 0.40583 0.69018 0.39556 0.0
H466 H 0.41713 0.66714 0.46427 0.0
H467 H 0.42127 0.60747 0.37741 0.0
H468 H 0.40971 0.63009 0.30827 0.0
H469 H 0.45856 0.72521 0.12431 0.0
H470 H 0.43663 0.72333 0.19761 0.0
H471 H 0.41497 0.6551 0.16316 0.0
H472 H 0.43658 0.65704 0.08933 0.0
H473 H 0.42904 0.665 0.26496 0.0
H474 H 0.37981 0.69019 0.13665 0.0
H475 H 0.37065 0.7152 0.06951 0.0
H476 H 0.37488 0.77394 0.15906 0.0
H477 H 0.38446 0.74927 0.22658 0.0
C478 C 0.337 0.6677 0.39576 0.0
C479 C 0.32723 0.68823 0.41085 0.0
C480 C 0.35443 0.66791 0.36225 0.0
C481 C 0.36286 0.68869 0.34459 0.0
C482 C 0.35365 0.70922 0.3616 0.0
C483 C 0.33577 0.70897 0.39391 0.0
C484 C 0.37972 0.68914 0.30552 0.0
C485 C 0.37493 0.70295 0.26631 0.0
C486 C 0.39966 0.67545 0.30532 0.0
C487 C 0.40671 0.66181 0.3468 0.0
C488 C 0.409 0.67211 0.39116 0.0
C489 C 0.41548 0.65913 0.43018 0.0
C490 C 0.41986 0.63585 0.42523 0.0
C491 C 0.41785 0.6255 0.38121 0.0
C492 C 0.41136 0.6384 0.34208 0.0
C493 C 0.44943 0.70969 0.13284 0.0
C494 C 0.44912 0.69129 0.10131 0.0
C495 C 0.43696 0.70864 0.17457 0.0
C496 C 0.42428 0.68907 0.18559 0.0
C497 C 0.4248 0.67027 0.15524 0.0
C498 C 0.43696 0.67146 0.11309 0.0
C499 C 0.40873 0.68911 0.22635 0.0
C500 C 0.41372 0.67536 0.26531 0.0
C501 C 0.38919 0.70315 0.22692 0.0
C502 C 0.3831 0.71792 0.1865 0.0
C503 C 0.37898 0.70846 0.14191 0.0
C504 C 0.37368 0.72256 0.10381 0.0
C505 C 0.37224 0.74615 0.10998 0.0
C506 C 0.37604 0.75567 0.15431 0.0
C507 C 0.38139 0.74163 0.1925 0.0
H508 H 0.36814 0.75704 0.08045 0.0
H509 H 0.42487 0.62582 0.45548 0.0
H510 H 0.76313 0.88786 0.9012 0.0
H511 H 0.74798 0.91299 0.84045 0.0
H512 H 0.69977 0.86109 0.79963 0.0
H513 H 0.71502 0.83563 0.86013 0.0
H514 H 0.72189 0.87807 0.72477 0.0
H515 H 0.68206 0.90897 0.85637 0.0
H516 H 0.67791 0.92466 0.93624 0.0
H517 H 0.72104 0.98109 0.8995 0.0
H518 H 0.72574 0.96556 0.81956 0.0
H519 H 0.66486 0.94812 0.56084 0.0
H520 H 0.67184 0.92495 0.63086 0.0
H521 H 0.72234 0.97333 0.67781 0.0
H522 H 0.71541 0.99664 0.60777 0.0
H523 H 0.6964 0.95773 0.7508 0.0
H524 H 0.73836 0.92538 0.6217 0.0
H525 H 0.74294 0.90969 0.54189 0.0
H526 H 0.69604 0.85575 0.57472 0.0
H527 H 0.69092 0.87134 0.65455 0.0
C528 C 0.74914 0.88181 0.87969 0.0
C529 C 0.74038 0.85965 0.88546 0.0
C530 C 0.74042 0.89628 0.84506 0.0
C531 C 0.72263 0.88899 0.81566 0.0
C532 C 0.7135 0.86707 0.82195 0.0
C533 C 0.72221 0.85256 0.85663 0.0
C534 C 0.71457 0.90377 0.77662 0.0
C535 C 0.71589 0.89534 0.73058 0.0
C536 C 0.7073 0.92651 0.78408 0.0
C537 C 0.7044 0.93599 0.83205 0.0
C538 C 0.69081 0.92464 0.86541 0.0
C539 C 0.68833 0.93352 0.91069 0.0
C540 C 0.69925 0.95383 0.92297 0.0
C541 C 0.71261 0.96535 0.88995 0.0
C542 C 0.71517 0.95652 0.84462 0.0
C543 C 0.6774 0.95386 0.58617 0.0
C544 C 0.68973 0.9741 0.57857 0.0
C545 C 0.68134 0.94063 0.62619 0.0
C546 C 0.69786 0.94723 0.65921 0.0
C547 C 0.70952 0.96791 0.65277 0.0
C548 C 0.70552 0.98123 0.61277 0.0
C549 C 0.7038 0.932 0.6991 0.0
C550 C 0.70217 0.94037 0.74516 0.0
C551 C 0.71084 0.90919 0.69175 0.0
C552 C 0.71408 0.89966 0.64392 0.0
C553 C 0.7289 0.91027 0.61179 0.0
C554 C 0.73161 0.90139 0.56656 0.0
C555 C 0.71974 0.88177 0.5532 0.0
C556 C 0.70519 0.87097 0.5851 0.0
C557 C 0.70239 0.87981 0.63034 0.0
H558 H 0.72185 0.87492 0.51817 0.0
H559 H 0.69732 0.96068 0.95805 0.0
H560 H 0.84685 0.83864 0.93443 0.0
H561 H 0.8785 0.83892 0.87808 0.0
H562 H 0.83969 0.79586 0.78475 0.0
H563 H 0.80833 0.79525 0.84059 0.0
H564 H 0.88347 0.78235 0.78961 0.0
H565 H 0.84196 0.85347 0.76919 0.0
H566 H 0.8264 0.89025 0.79626 0.0
H567 H 0.89378 0.91282 0.83281 0.0
H568 H 0.9097 0.87603 0.80649 0.0
H569 H 0.91802 0.79858 0.55832 0.0
H570 H 0.89701 0.79979 0.63221 0.0
H571 H 0.95072 0.83974 0.69503 0.0
H572 H 0.97183 0.83891 0.62047 0.0
H573 H 0.9066 0.85565 0.71651 0.0
H574 H 0.94839 0.78613 0.72333 0.0
H575 H 0.96317 0.74951 0.6938 0.0
H576 H 0.89487 0.72377 0.68173 0.0
H577 H 0.87964 0.76037 0.71048 0.0
C578 C 0.84516 0.82909 0.90206 0.0
C579 C 0.82497 0.81711 0.8918 0.0
C580 C 0.86322 0.82932 0.86989 0.0
C581 C 0.86133 0.81758 0.82706 0.0
C582 C 0.84151 0.80503 0.81758 0.0
C583 C 0.82353 0.80482 0.8495 0.0
C584 C 0.87942 0.81883 0.79082 0.0
C585 C 0.88853 0.79837 0.77362 0.0
C586 C 0.88652 0.83979 0.7709 0.0
C587 C 0.87697 0.86192 0.78645 0.0
C588 C 0.85343 0.86622 0.78334 0.0
C589 C 0.84455 0.88707 0.79848 0.0
C590 C 0.85909 0.90383 0.81639 0.0
C591 C 0.88254 0.8998 0.81904 0.0
C592 C 0.8915 0.87896 0.80401 0.0
C593 C 0.92524 0.80792 0.58759 0.0
C594 C 0.94655 0.81869 0.58359 0.0
C595 C 0.91332 0.8084 0.62992 0.0
C596 C 0.92248 0.81959 0.66919 0.0
C597 C 0.94346 0.83091 0.66513 0.0
C598 C 0.95551 0.83033 0.6227 0.0
C599 C 0.90996 0.81911 0.71433 0.0
C600 C 0.90195 0.83967 0.73321 0.0
C601 C 0.90379 0.79822 0.73574 0.0
C602 C 0.91287 0.77606 0.71884 0.0
C603 C 0.9365 0.77272 0.71409 0.0
C604 C 0.94497 0.75195 0.69752 0.0
C605 C 0.92997 0.73433 0.68584 0.0
C606 C 0.90647 0.73743 0.6908 0.0
C607 C 0.89791 0.75818 0.70729 0.0
H608 H 0.93655 0.71827 0.67301 0.0
H609 H 0.85218 0.91997 0.82809 0.0
H610 H 0.74461 0.38942 0.40434 0.0
H611 H 0.76078 0.41367 0.34341 0.0
H612 H 0.80452 0.35873 0.29887 0.0
H613 H 0.78837 0.33409 0.36017 0.0
H614 H 0.82589 0.40261 0.29741 0.0
H615 H 0.75871 0.36579 0.24029 0.0
H616 H 0.71863 0.35314 0.24318 0.0
H617 H 0.69631 0.42282 0.24636 0.0
H618 H 0.7363 0.43591 0.24442 0.0
H619 H 0.8431 0.44757 0.0643 0.0
H620 H 0.83585 0.42413 0.13401 0.0
H621 H 0.78677 0.47347 0.1828 0.0
H622 H 0.79359 0.49671 0.11286 0.0
H623 H 0.76938 0.43055 0.18089 0.0
H624 H 0.83737 0.46707 0.23826 0.0
H625 H 0.87767 0.47901 0.23563 0.0
H626 H 0.89871 0.40896 0.22991 0.0
H627 H 0.8585 0.3966 0.23184 0.0
C628 C 0.75786 0.38247 0.38206 0.0
C629 C 0.76493 0.35966 0.38669 0.0
C630 C 0.76708 0.3964 0.34723 0.0
C631 C 0.78355 0.38786 0.31623 0.0
C632 C 0.79173 0.36557 0.32241 0.0
C633 C 0.78244 0.35152 0.35735 0.0
C634 C 0.79077 0.4018 0.27544 0.0
C635 C 0.81365 0.40849 0.27149 0.0
C636 C 0.77467 0.40962 0.24206 0.0
C637 C 0.75054 0.40183 0.24267 0.0
C638 C 0.74527 0.37843 0.24201 0.0
C639 C 0.72256 0.37117 0.24342 0.0
C640 C 0.70494 0.38716 0.24505 0.0
C641 C 0.70999 0.41045 0.24516 0.0
C642 C 0.73267 0.4178 0.24388 0.0
C643 C 0.83098 0.45354 0.09023 0.0
C644 C 0.81889 0.47397 0.08306 0.0
C645 C 0.82695 0.44021 0.13014 0.0
C646 C 0.81078 0.44707 0.1636 0.0
C647 C 0.79933 0.46787 0.15739 0.0
C648 C 0.8034 0.48124 0.11763 0.0
C649 C 0.80449 0.43183 0.20318 0.0
C650 C 0.78169 0.42473 0.20673 0.0
C651 C 0.82072 0.42353 0.23584 0.0
C652 C 0.84491 0.43092 0.23469 0.0
C653 C 0.85058 0.45422 0.23601 0.0
C654 C 0.87341 0.46106 0.23474 0.0
C655 C 0.89074 0.44475 0.23247 0.0
C656 C 0.88527 0.42157 0.23159 0.0
C657 C 0.86246 0.41464 0.23281 0.0
H658 H 0.9084 0.45008 0.2315 0.0
H659 H 0.68737 0.3815 0.24613 0.0
H660 H 0.18758 0.2266 0.86629 0.0
H661 H 0.15659 0.22621 0.80926 0.0
H662 H 0.12757 0.16713 0.87731 0.0
H663 H 0.15915 0.16689 0.93351 0.0
H664 H 0.12778 0.16046 0.78821 0.0
H665 H 0.10235 0.22159 0.88395 0.0
H666 H 0.10506 0.25748 0.92862 0.0
H667 H 0.12029 0.29404 0.80166 0.0
H668 H 0.11801 0.25831 0.75628 0.0
H669 H 0.03078 0.17184 0.63191 0.0
H670 H 0.05288 0.1712 0.7055 0.0
H671 H 0.10094 0.21877 0.6458 0.0
H672 H 0.07918 0.21927 0.57246 0.0
H673 H 0.08539 0.2297 0.73913 0.0
H674 H 0.1154 0.16636 0.6474 0.0
H675 H 0.11208 0.13004 0.60437 0.0
H676 H 0.08603 0.09737 0.72833 0.0
H677 H 0.08889 0.13362 0.77191 0.0
C678 C 0.17447 0.21368 0.86949 0.0
C679 C 0.17581 0.19675 0.90433 0.0
C680 C 0.15665 0.21355 0.837 0.0
C681 C 0.13951 0.19684 0.83939 0.0
C682 C 0.14057 0.1802 0.8748 0.0
C683 C 0.1586 0.1801 0.9069 0.0
C684 C 0.1214 0.19597 0.80301 0.0
C685 C 0.11813 0.1755 0.77831 0.0
C686 C 0.10891 0.21561 0.78966 0.0
C687 C 0.11013 0.23721 0.81674 0.0
C688 C 0.10642 0.23725 0.86558 0.0
C689 C 0.10786 0.25758 0.89103 0.0
C690 C 0.11288 0.27802 0.868 0.0
C691 C 0.11641 0.27819 0.81945 0.0
C692 C 0.115 0.25791 0.79383 0.0
C693 C 0.04605 0.18213 0.63474 0.0
C694 C 0.05345 0.19546 0.59662 0.0
C695 C 0.05861 0.18175 0.67655 0.0
C696 C 0.07848 0.19494 0.68084 0.0
C697 C 0.08562 0.20852 0.64307 0.0
C698 C 0.07331 0.20865 0.60119 0.0
C699 C 0.09231 0.19443 0.72417 0.0
C700 C 0.09473 0.21463 0.74999 0.0
C701 C 0.10379 0.17451 0.73895 0.0
C702 C 0.10205 0.15276 0.7127 0.0
C703 C 0.10873 0.15149 0.66533 0.0
C704 C 0.10699 0.13091 0.64087 0.0
C705 C 0.09877 0.11143 0.66355 0.0
C706 C 0.09234 0.11248 0.71077 0.0
C707 C 0.09402 0.13304 0.73537 0.0
H708 H 0.09745 0.0955 0.64456 0.0
H709 H 0.114 0.29374 0.88777 0.0
H710 H 0.24834 0.61921 0.42994 0.0
H711 H 0.23313 0.59433 0.36859 0.0
H712 H 0.21539 0.65332 0.28543 0.0
H713 H 0.22958 0.67825 0.34769 0.0
H714 H 0.18419 0.62316 0.27356 0.0
H715 H 0.26583 0.62172 0.26785 0.0
H716 H 0.30475 0.61672 0.29913 0.0
H717 H 0.29014 0.54664 0.3309 0.0
H718 H 0.25101 0.55132 0.3004 0.0
H719 H 0.21033 0.56369 0.04749 0.0
H720 H 0.21813 0.58648 0.11744 0.0
H721 H 0.17632 0.54141 0.20039 0.0
H722 H 0.16747 0.51895 0.13008 0.0
H723 H 0.23609 0.56318 0.21299 0.0
H724 H 0.14936 0.57175 0.22792 0.0
H725 H 0.11292 0.57993 0.18776 0.0
H726 H 0.14193 0.64035 0.12681 0.0
H727 H 0.1786 0.6323 0.16626 0.0
C728 C 0.24098 0.62685 0.39876 0.0
C729 C 0.24036 0.65065 0.39337 0.0
C730 C 0.23237 0.61263 0.36362 0.0
C731 C 0.22361 0.62191 0.3218 0.0
C732 C 0.22212 0.64572 0.31725 0.0
C733 C 0.23029 0.65996 0.35283 0.0
C734 C 0.21698 0.6069 0.28199 0.0
C735 C 0.19557 0.61001 0.26066 0.0
C736 C 0.23184 0.58985 0.26436 0.0
C737 C 0.25543 0.58693 0.2823 0.0
C738 C 0.27088 0.60528 0.28178 0.0
C739 C 0.29298 0.6025 0.29934 0.0
C740 C 0.29989 0.58139 0.3171 0.0
C741 C 0.28474 0.56299 0.3172 0.0
C742 C 0.26261 0.56569 0.29976 0.0
C743 C 0.20234 0.55883 0.08031 0.0
C744 C 0.18807 0.53956 0.08299 0.0
C745 C 0.207 0.57179 0.1203 0.0
C746 C 0.1976 0.56571 0.16375 0.0
C747 C 0.18349 0.54648 0.1669 0.0
C748 C 0.17864 0.53357 0.1268 0.0
C749 C 0.20328 0.57918 0.20595 0.0
C750 C 0.22463 0.57601 0.22701 0.0
C751 C 0.18866 0.59641 0.22274 0.0
C752 C 0.16666 0.60132 0.19957 0.0
C753 C 0.14796 0.58667 0.20567 0.0
C754 C 0.12728 0.5913 0.18312 0.0
C755 C 0.12512 0.61062 0.15465 0.0
C756 C 0.14363 0.62538 0.14879 0.0
C757 C 0.16435 0.62079 0.17122 0.0
H758 H 0.1091 0.61418 0.13722 0.0
H759 H 0.317 0.57927 0.33069 0.0
H760 H 0.30933 0.72056 0.65552 0.0
H761 H 0.33953 0.71955 0.71417 0.0
H762 H 0.36693 0.65864 0.65069 0.0
H763 H 0.33607 0.65906 0.59268 0.0
H764 H 0.36677 0.65355 0.74075 0.0
H765 H 0.39376 0.71185 0.63977 0.0
H766 H 0.39215 0.74676 0.59157 0.0
H767 H 0.37786 0.78654 0.71465 0.0
H768 H 0.37904 0.75182 0.76354 0.0
H769 H 0.46639 0.66699 0.89077 0.0
H770 H 0.44298 0.66514 0.81902 0.0
H771 H 0.39533 0.71269 0.8798 0.0
H772 H 0.41835 0.71428 0.95154 0.0
H773 H 0.4109 0.72267 0.78358 0.0
H774 H 0.38014 0.66157 0.88105 0.0
H775 H 0.3833 0.62599 0.92681 0.0
H776 H 0.40795 0.59083 0.80471 0.0
H777 H 0.40525 0.62633 0.75838 0.0
C778 C 0.32185 0.70702 0.65375 0.0
C779 C 0.32031 0.68989 0.61939 0.0
C780 C 0.33923 0.70654 0.68721 0.0
C781 C 0.3558 0.68925 0.68641 0.0
C782 C 0.35439 0.67219 0.65195 0.0
C783 C 0.33677 0.67247 0.61879 0.0
C784 C 0.3739 0.6886 0.72294 0.0
C785 C 0.37675 0.66855 0.74936 0.0
C786 C 0.38693 0.70817 0.73449 0.0
C787 C 0.38635 0.72917 0.7053 0.0
C788 C 0.39012 0.72801 0.65654 0.0
C789 C 0.38931 0.74778 0.62909 0.0
C790 C 0.38486 0.76885 0.65002 0.0
C791 C 0.38129 0.7702 0.69848 0.0
C792 C 0.38207 0.75049 0.72609 0.0
C793 C 0.45088 0.67697 0.88866 0.0
C794 C 0.44402 0.69065 0.9266 0.0
C795 C 0.43758 0.6759 0.84786 0.0
C796 C 0.4175 0.68881 0.84432 0.0
C797 C 0.41081 0.70265 0.88197 0.0
C798 C 0.42384 0.70341 0.92294 0.0
C799 C 0.40319 0.6879 0.80162 0.0
C800 C 0.40114 0.70764 0.77416 0.0
C801 C 0.39123 0.66798 0.78861 0.0
C802 C 0.39278 0.64666 0.81643 0.0
C803 C 0.38646 0.64631 0.86409 0.0
C804 C 0.38811 0.62615 0.8901 0.0
C805 C 0.3959 0.60618 0.86873 0.0
C806 C 0.40198 0.60632 0.82125 0.0
C807 C 0.40038 0.62645 0.7951 0.0
H808 H 0.39716 0.59058 0.88891 0.0
H809 H 0.38423 0.78413 0.6287 0.0
H810 H 0.72647 0.83482 0.14355 0.0
H811 H 0.71016 0.86122 0.20084 0.0
H812 H 0.73502 0.91821 0.11989 0.0
H813 H 0.75124 0.89193 0.06203 0.0
H814 H 0.74797 0.91837 0.21568 0.0
H815 H 0.68026 0.90939 0.12237 0.0
H816 H 0.65001 0.88779 0.08184 0.0
H817 H 0.62906 0.85837 0.21313 0.0
H818 H 0.65944 0.87948 0.25437 0.0
H819 H 0.70467 0.00127 0.36662 0.0
H820 H 0.71092 0.97964 0.29498 0.0
H821 H 0.6761 0.92188 0.35554 0.0
H822 H 0.66814 0.94404 0.42624 0.0
H823 H 0.66709 0.92358 0.26564 0.0
H824 H 0.73527 0.92709 0.35797 0.0
H825 H 0.76628 0.9456 0.40238 0.0
H826 H 0.78748 0.98121 0.27792 0.0
H827 H 0.75637 0.96313 0.2329 0.0
C828 C 0.72826 0.85298 0.13764 0.0
C829 C 0.74029 0.86129 0.09845 0.0
C830 C 0.71881 0.86802 0.17026 0.0
C831 C 0.72134 0.89163 0.16444 0.0
C832 C 0.73286 0.90002 0.12483 0.0
C833 C 0.74207 0.88499 0.09183 0.0
C834 C 0.71361 0.9074 0.20175 0.0
C835 C 0.73022 0.9199 0.22601 0.0
C836 C 0.69057 0.90861 0.21622 0.0
C837 C 0.67227 0.8959 0.19143 0.0
C838 C 0.66935 0.89816 0.14256 0.0
C839 C 0.65214 0.88603 0.11946 0.0
C840 C 0.63764 0.8717 0.1449 0.0
C841 C 0.64031 0.86947 0.19347 0.0
C842 C 0.65751 0.88153 0.21673 0.0
C843 C 0.6977 0.98422 0.36444 0.0
C844 C 0.68606 0.97439 0.4027 0.0
C845 C 0.7016 0.97172 0.32351 0.0
C846 C 0.69453 0.94892 0.32029 0.0
C847 C 0.68192 0.93938 0.35734 0.0
C848 C 0.67764 0.95202 0.39804 0.0
C849 C 0.70148 0.93465 0.27962 0.0
C850 C 0.68479 0.9223 0.25494 0.0
C851 C 0.72457 0.93312 0.26528 0.0
C852 C 0.74335 0.94395 0.2922 0.0
C853 C 0.74644 0.93899 0.34016 0.0
C854 C 0.76405 0.94939 0.36543 0.0
C855 C 0.7788 0.96462 0.34302 0.0
C856 C 0.77601 0.96944 0.29525 0.0
C857 C 0.75841 0.95912 0.26983 0.0
H858 H 0.79242 0.97265 0.36264 0.0
H859 H 0.62428 0.86238 0.12701 0.0
H860 H 0.6697 0.28291 0.59749 0.0
H861 H 0.6392 0.28437 0.65617 0.0
H862 H 0.64335 0.35776 0.65792 0.0
H863 H 0.67362 0.35655 0.59899 0.0
H864 H 0.6468 0.33636 0.74752 0.0
H865 H 0.599 0.3355 0.61004 0.0
H866 H 0.5853 0.32053 0.53414 0.0
H867 H 0.56734 0.25718 0.60018 0.0
H868 H 0.58128 0.27162 0.67636 0.0
H869 H 0.55839 0.35315 0.90917 0.0
H870 H 0.58044 0.35595 0.83634 0.0
H871 H 0.56833 0.28454 0.80931 0.0
H872 H 0.54542 0.28203 0.88109 0.0
H873 H 0.56804 0.3066 0.72973 0.0
H874 H 0.6178 0.30424 0.86344 0.0
H875 H 0.63263 0.31657 0.94046 0.0
H876 H 0.64896 0.38233 0.88315 0.0
H877 H 0.63386 0.37051 0.80593 0.0
C878 C 0.66393 0.29937 0.60996 0.0
C879 C 0.67413 0.31961 0.59378 0.0
C880 C 0.64647 0.30017 0.6433 0.0
C881 C 0.63908 0.32118 0.6612 0.0
C882 C 0.64885 0.34141 0.64439 0.0
C883 C 0.66609 0.34066 0.61064 0.0
C884 C 0.62224 0.32196 0.69976 0.0
C885 C 0.62944 0.33024 0.74351 0.0
C886 C 0.59991 0.31325 0.69462 0.0
C887 C 0.59138 0.30459 0.64886 0.0
C888 C 0.59232 0.3183 0.60832 0.0
C889 C 0.58447 0.30993 0.56525 0.0
C890 C 0.5755 0.2879 0.56233 0.0
C891 C 0.57431 0.27423 0.60249 0.0
C892 C 0.58217 0.28251 0.64563 0.0
C893 C 0.56021 0.33819 0.8872 0.0
C894 C 0.55043 0.31735 0.90063 0.0
C895 C 0.57285 0.33975 0.84578 0.0
C896 C 0.57649 0.32032 0.81793 0.0
C897 C 0.56581 0.29973 0.83028 0.0
C898 C 0.55278 0.29829 0.87124 0.0
C899 C 0.59256 0.32106 0.77771 0.0
C900 C 0.58531 0.31294 0.73372 0.0
C901 C 0.61507 0.32952 0.78278 0.0
C902 C 0.62448 0.33657 0.82902 0.0
C903 C 0.62442 0.32138 0.86733 0.0
C904 C 0.63288 0.32827 0.91102 0.0
C905 C 0.64167 0.35024 0.91673 0.0
C906 C 0.6421 0.36533 0.8787 0.0
C907 C 0.6336 0.35854 0.83496 0.0
H908 H 0.64819 0.35555 0.95059 0.0
H909 H 0.56941 0.28145 0.52899 0.0
H910 H 0.28686 0.17343 0.13957 0.0
H911 H 0.30207 0.1478 0.19992 0.0
H912 H 0.25189 0.09717 0.16264 0.0
H913 H 0.23654 0.12253 0.10264 0.0
H914 H 0.25224 0.10625 0.25616 0.0
H915 H 0.30714 0.08945 0.13521 0.0
H916 H 0.33645 0.09896 0.07626 0.0
H917 H 0.37882 0.12767 0.18418 0.0
H918 H 0.3496 0.11861 0.24372 0.0
H919 H 0.28718 0.01298 0.39072 0.0
H920 H 0.28028 0.03649 0.32126 0.0
H921 H 0.33074 0.08477 0.36881 0.0
H922 H 0.33805 0.06104 0.43822 0.0
H923 H 0.33175 0.07822 0.27145 0.0
H924 H 0.27777 0.09513 0.39211 0.0
H925 H 0.24844 0.0871 0.45187 0.0
H926 H 0.2041 0.06021 0.34531 0.0
H927 H 0.23337 0.06766 0.28499 0.0
C928 C 0.27924 0.15673 0.14383 0.0
C929 C 0.26034 0.15012 0.11652 0.0
C930 C 0.28801 0.14209 0.17821 0.0
C931 C 0.27809 0.1206 0.18568 0.0
C932 C 0.25974 0.11371 0.15749 0.0
C933 C 0.25101 0.12825 0.12315 0.0
C934 C 0.28568 0.10584 0.22491 0.0
C935 C 0.26954 0.09984 0.2591 0.0
C936 C 0.30845 0.09821 0.22956 0.0
C937 C 0.32608 0.10356 0.19385 0.0
C938 C 0.32262 0.09797 0.14632 0.0
C939 C 0.33923 0.10324 0.11281 0.0
C940 C 0.35945 0.11397 0.12645 0.0
C941 C 0.36313 0.11938 0.17366 0.0
C942 C 0.34656 0.11417 0.20731 0.0
C943 C 0.29724 0.02828 0.38582 0.0
C944 C 0.31309 0.03523 0.42002 0.0
C945 C 0.29315 0.04178 0.34631 0.0
C946 C 0.30477 0.0625 0.34033 0.0
C947 C 0.32154 0.06887 0.37294 0.0
C948 C 0.3256 0.05539 0.41263 0.0
C949 C 0.29814 0.07822 0.30195 0.0
C950 C 0.31444 0.08457 0.26828 0.0
C951 C 0.2755 0.08634 0.29781 0.0
C952 C 0.25791 0.08168 0.33409 0.0
C953 C 0.26188 0.08726 0.38147 0.0
C954 C 0.24525 0.08285 0.41545 0.0
C955 C 0.22445 0.07308 0.40242 0.0
C956 C 0.22024 0.06773 0.35537 0.0
C957 C 0.23686 0.07203 0.32127 0.0
H958 H 0.21158 0.06971 0.42877 0.0
H959 H 0.3723 0.11804 0.10045 0.0
H960 H 0.23592 0.28114 0.95208 0.0
H961 H 0.22602 0.32146 0.95541 0.0
H962 H 0.1871 0.30975 0.08164 0.0
H963 H 0.19702 0.26913 0.07883 0.0
H964 H 0.16515 0.33886 0.0155 0.0
H965 H 0.23625 0.33146 0.0943 0.0
H966 H 0.27608 0.31932 0.10581 0.0
H967 H 0.29671 0.35942 0.98687 0.0
H968 H 0.2569 0.37121 0.97368 0.0
H969 H 0.16112 0.45932 0.06636 0.0
H970 H 0.1661 0.4179 0.07262 0.0
H971 H 0.21022 0.41897 0.9514 0.0
H972 H 0.20567 0.46024 0.94548 0.0
H973 H 0.22845 0.39489 0.02431 0.0
H974 H 0.1564 0.39958 0.94246 0.0
H975 H 0.11646 0.41168 0.93188 0.0
H976 H 0.09775 0.37735 0.05951 0.0
H977 H 0.13767 0.3653 0.07119 0.0
C978 C 0.22515 0.28703 0.98048 0.0
C979 C 0.21742 0.27193 0.01544 0.0
C980 C 0.21955 0.31011 0.98234 0.0
C981 C 0.20603 0.31858 0.01901 0.0
C982 C 0.1976 0.3035 0.05314 0.0
C983 C 0.20338 0.28036 0.05157 0.0
C984 C 0.20146 0.34335 0.02212 0.0
C985 C 0.17892 0.35115 0.01822 0.0
C986 C 0.2195 0.35929 0.0252 0.0
C987 C 0.2435 0.35203 0.0327 0.0
C988 C 0.24922 0.33744 0.07017 0.0
C989 C 0.27181 0.33062 0.07702 0.0
C990 C 0.28891 0.33848 0.04696 0.0
C991 C 0.28345 0.3532 0.00997 0.0
C992 C 0.26086 0.35995 0.00276 0.0
C993 C 0.17185 0.45068 0.04107 0.0
C994 C 0.18293 0.46301 0.00531 0.0
C995 C 0.17457 0.42704 0.0445 0.0
C996 C 0.18843 0.41537 0.01231 0.0
C997 C 0.19941 0.42764 0.97654 0.0
C998 C 0.19664 0.4512 0.97296 0.0
C999 C 0.1922 0.39047 0.01643 0.0
C1000 C 0.21464 0.38263 0.02192 0.0
C1001 C 0.17406 0.37455 0.01501 0.0
C1002 C 0.15007 0.38177 0.00798 0.0
C1003 C 0.14381 0.39478 0.96849 0.0
C1004 C 0.12117 0.4016 0.96225 0.0
C1005 C 0.10459 0.39535 0.99508 0.0
C1006 C 0.11062 0.38221 0.03415 0.0
C1007 C 0.13324 0.37538 0.04059 0.0
H1008 H 0.08707 0.40064 0.99018 0.0
H1009 H 0.3064 0.33326 0.05253 0.0
H1010 H 0.18837 0.70881 0.56428 0.0
H1011 H 0.1496 0.72408 0.5619 0.0
H1012 H 0.16675 0.76384 0.43931 0.0
H1013 H 0.20558 0.74875 0.44142 0.0
H1014 H 0.14363 0.78877 0.50611 0.0
H1015 H 0.1356 0.71721 0.42632 0.0
H1016 H 0.13966 0.67563 0.41679 0.0
H1017 H 0.09835 0.66453 0.53924 0.0
H1018 H 0.09432 0.70607 0.54991 0.0
H1019 H 0.03027 0.81937 0.44206 0.0
H1020 H 0.06938 0.80486 0.44273 0.0
H1021 H 0.0528 0.76107 0.55978 0.0
H1022 H 0.01353 0.77489 0.55824 0.0
H1023 H 0.07593 0.73833 0.49436 0.0
H1024 H 0.08398 0.80967 0.57478 0.0
H1025 H 0.08051 0.8512 0.58588 0.0
H1026 H 0.12213 0.86282 0.4641 0.0
H1027 H 0.12557 0.82133 0.45182 0.0
C1028 C 0.18389 0.72076 0.53673 0.0
C1029 C 0.20004 0.72753 0.50298 0.0
C1030 C 0.16172 0.7294 0.53535 0.0
C1031 C 0.15532 0.74495 0.50024 0.0
C1032 C 0.17139 0.75183 0.46664 0.0
C1033 C 0.19352 0.74309 0.4678 0.0
C1034 C 0.13186 0.75418 0.49885 0.0
C1035 C 0.12881 0.77781 0.50286 0.0
C1036 C 0.1126 0.73976 0.49571 0.0
C1037 C 0.11484 0.71476 0.48916 0.0
C1038 C 0.12752 0.70591 0.45143 0.0
C1039 C 0.1298 0.68234 0.44579 0.0
C1040 C 0.11932 0.66745 0.47746 0.0
C1041 C 0.10648 0.67609 0.51477 0.0
C1042 C 0.10418 0.69964 0.5206 0.0
C1043 C 0.03496 0.8066 0.46783 0.0
C1044 C 0.01884 0.79833 0.5002 0.0
C1045 C 0.05735 0.79847 0.46845 0.0
C1046 C 0.06405 0.78205 0.50162 0.0
C1047 C 0.048 0.7738 0.53399 0.0
C1048 C 0.02563 0.78188 0.53335 0.0
C1049 C 0.08762 0.77298 0.50186 0.0
C1050 C 0.09072 0.74934 0.49756 0.0
C1051 C 0.10692 0.78741 0.50487 0.0
C1052 C 0.1048 0.81238 0.51207 0.0
C1053 C 0.09221 0.82107 0.55009 0.0
C1054 C 0.09028 0.84461 0.55665 0.0
C1055 C 0.10103 0.85964 0.52563 0.0
C1056 C 0.11378 0.85116 0.48804 0.0
C1057 C 0.11572 0.82763 0.48128 0.0
H1058 H 0.09954 0.87785 0.53079 0.0
H1059 H 0.1211 0.64921 0.47304 0.0
H1060 H 0.75897 0.72708 0.04278 0.0
H1061 H 0.77105 0.68736 0.04207 0.0
H1062 H 0.822 0.7032 0.93755 0.0
H1063 H 0.80911 0.74295 0.9365 0.0
H1064 H 0.80396 0.66557 0.91522 0.0
H1065 H 0.83549 0.69293 0.05738 0.0
H1066 H 0.83643 0.71264 0.13385 0.0
H1067 H 0.78761 0.66515 0.18929 0.0
H1068 H 0.7861 0.64535 0.11293 0.0
H1069 H 0.84743 0.55239 0.03694 0.0
H1070 H 0.8453 0.59414 0.03467 0.0
H1071 H 0.78569 0.58989 0.94602 0.0
H1072 H 0.78818 0.54836 0.94719 0.0
H1073 H 0.816 0.6231 0.06407 0.0
H1074 H 0.78155 0.63362 0.87241 0.0
H1075 H 0.78607 0.61501 0.79528 0.0
H1076 H 0.85122 0.58868 0.8377 0.0
H1077 H 0.84727 0.6074 0.9148 0.0
C1078 C 0.77281 0.72214 0.01974 0.0
C1079 C 0.78316 0.73815 0.98981 0.0
C1080 C 0.77982 0.69941 0.01958 0.0
C1081 C 0.79781 0.69228 0.99053 0.0
C1082 C 0.80814 0.70825 0.96041 0.0
C1083 C 0.80079 0.73096 0.95986 0.0
C1084 C 0.80524 0.66801 0.99074 0.0
C1085 C 0.80672 0.65634 0.94778 0.0
C1086 C 0.80961 0.65601 0.03308 0.0
C1087 C 0.81059 0.66773 0.07928 0.0
C1088 C 0.82486 0.68676 0.08579 0.0
C1089 C 0.8255 0.69795 0.12913 0.0
C1090 C 0.81207 0.69017 0.16638 0.0
C1091 C 0.798 0.67116 0.1604 0.0
C1092 C 0.79727 0.65993 0.1171 0.0
C1093 C 0.83395 0.56045 0.01685 0.0
C1094 C 0.81811 0.54718 0.99184 0.0
C1095 C 0.83274 0.58427 0.01557 0.0
C1096 C 0.81557 0.59524 0.98951 0.0
C1097 C 0.79949 0.58192 0.96528 0.0
C1098 C 0.80088 0.55817 0.96606 0.0
C1099 C 0.81389 0.62055 0.98867 0.0
C1100 C 0.8135 0.6324 0.0315 0.0
C1101 C 0.81139 0.63288 0.94613 0.0
C1102 C 0.81401 0.62178 0.89956 0.0
C1103 C 0.7969 0.62397 0.8652 0.0
C1104 C 0.79935 0.61337 0.8215 0.0
C1105 C 0.81889 0.60062 0.81165 0.0
C1106 C 0.83606 0.5985 0.84543 0.0
C1107 C 0.83371 0.60907 0.88916 0.0
H1108 H 0.82074 0.59242 0.77781 0.0
H1109 H 0.81258 0.69886 0.1999 0.0
H1110 H 0.80618 0.29553 0.57075 0.0
H1111 H 0.8452 0.28084 0.57478 0.0
H1112 H 0.83639 0.24848 0.43994 0.0
H1113 H 0.79745 0.26292 0.4356 0.0
H1114 H 0.85651 0.22016 0.50602 0.0
H1115 H 0.86544 0.29727 0.44708 0.0
H1116 H 0.8599 0.33892 0.45079 0.0
H1117 H 0.89522 0.34116 0.58296 0.0
H1118 H 0.90072 0.29948 0.58029 0.0
H1119 H 0.9707 0.19358 0.44939 0.0
H1120 H 0.93164 0.20794 0.44932 0.0
H1121 H 0.94638 0.24839 0.57225 0.0
H1122 H 0.98579 0.23548 0.57051 0.0
H1123 H 0.92277 0.27257 0.51546 0.0
H1124 H 0.91505 0.19708 0.5766 0.0
H1125 H 0.91954 0.1553 0.57861 0.0
H1126 H 0.88123 0.1494 0.45054 0.0
H1127 H 0.87677 0.1912 0.44742 0.0
C1128 C 0.81253 0.28527 0.54197 0.0
C1129 C 0.79871 0.28043 0.50282 0.0
C1130 C 0.83483 0.27695 0.54429 0.0
C1131 C 0.84366 0.2637 0.50751 0.0
C1132 C 0.82985 0.25866 0.46868 0.0
C1133 C 0.80763 0.26703 0.46621 0.0
C1134 C 0.86737 0.25518 0.50909 0.0
C1135 C 0.87105 0.23157 0.50757 0.0
C1136 C 0.88621 0.27012 0.51259 0.0
C1137 C 0.88332 0.29524 0.51367 0.0
C1138 C 0.87192 0.30664 0.47705 0.0
C1139 C 0.86879 0.33025 0.47895 0.0
C1140 C 0.87715 0.34267 0.51714 0.0
C1141 C 0.88873 0.33152 0.55342 0.0
C1142 C 0.89189 0.30791 0.5517 0.0
C1143 C 0.96571 0.20571 0.47614 0.0
C1144 C 0.98142 0.2132 0.51017 0.0
C1145 C 0.94326 0.21368 0.47644 0.0
C1146 C 0.93592 0.22895 0.51132 0.0
C1147 C 0.95158 0.23653 0.54515 0.0
C1148 C 0.97408 0.22885 0.54445 0.0
C1149 C 0.91207 0.2374 0.51211 0.0
C1150 C 0.90831 0.26105 0.51407 0.0
C1151 C 0.89313 0.22245 0.50978 0.0
C1152 C 0.89577 0.1973 0.51155 0.0
C1153 C 0.90773 0.18689 0.54867 0.0
C1154 C 0.91025 0.1632 0.55004 0.0
C1155 C 0.90073 0.14971 0.51466 0.0
C1156 C 0.88862 0.15988 0.47789 0.0
C1157 C 0.88607 0.18356 0.47633 0.0
H1158 H 0.90269 0.13137 0.51579 0.0
H1159 H 0.87468 0.36095 0.51857 0.0
H1160 H 0.70518 0.23967 0.5595 0.0
H1161 H 0.69436 0.19949 0.56033 0.0
H1162 H 0.7066 0.19544 0.411 0.0
H1163 H 0.71649 0.23605 0.40972 0.0
H1164 H 0.67179 0.16989 0.43163 0.0
H1165 H 0.74693 0.17784 0.49422 0.0
H1166 H 0.77701 0.19301 0.54611 0.0
H1167 H 0.74156 0.16707 0.66686 0.0
H1168 H 0.71109 0.15202 0.6157 0.0
H1169 H 0.70235 0.05126 0.42476 0.0
H1170 H 0.70347 0.09276 0.42396 0.0
H1171 H 0.66806 0.09461 0.55647 0.0
H1172 H 0.66544 0.05295 0.55644 0.0
H1173 H 0.7127 0.12081 0.54616 0.0
H1174 H 0.63836 0.1105 0.47646 0.0
H1175 H 0.61128 0.09408 0.41945 0.0
H1176 H 0.64961 0.12303 0.30554 0.0
H1177 H 0.67713 0.13933 0.36187 0.0
C1178 C 0.70533 0.23026 0.52675 0.0
C1179 C 0.71194 0.24089 0.48463 0.0
C1180 C 0.69924 0.20726 0.52729 0.0
C1181 C 0.70026 0.19423 0.48597 0.0
C1182 C 0.70581 0.20509 0.4434 0.0
C1183 C 0.71148 0.22828 0.44268 0.0
C1184 C 0.69655 0.16915 0.48768 0.0
C1185 C 0.6809 0.15919 0.45644 0.0
C1186 C 0.70827 0.15507 0.52028 0.0
C1187 C 0.72661 0.16402 0.55116 0.0
C1188 C 0.74547 0.17552 0.53186 0.0
C1189 C 0.7626 0.18408 0.56114 0.0
C1190 C 0.76117 0.18106 0.60976 0.0
C1191 C 0.74263 0.16942 0.62919 0.0
C1192 C 0.72543 0.16087 0.60008 0.0
C1193 C 0.69421 0.06034 0.45326 0.0
C1194 C 0.68364 0.04854 0.49055 0.0
C1195 C 0.69507 0.08412 0.45285 0.0
C1196 C 0.68578 0.09665 0.49003 0.0
C1197 C 0.67532 0.08514 0.52746 0.0
C1198 C 0.67402 0.06131 0.52749 0.0
C1199 C 0.68794 0.12177 0.49044 0.0
C1200 C 0.70345 0.13166 0.52182 0.0
C1201 C 0.67652 0.13564 0.4573 0.0
C1202 C 0.65993 0.12595 0.42338 0.0
C1203 C 0.64114 0.11318 0.43924 0.0
C1204 C 0.62568 0.10393 0.40705 0.0
C1205 C 0.62876 0.10746 0.35889 0.0
C1206 C 0.64727 0.12029 0.34284 0.0
C1207 C 0.66279 0.12956 0.37489 0.0
H1208 H 0.61677 0.10029 0.33403 0.0
H1209 H 0.77445 0.18769 0.63237 0.0
H1210 H 0.29713 0.25222 0.05948 0.0
H1211 H 0.33666 0.26536 0.05649 0.0
H1212 H 0.35134 0.21603 0.94839 0.0
H1213 H 0.3116 0.20297 0.95056 0.0
H1214 H 0.38425 0.21811 0.02332 0.0
H1215 H 0.3449 0.26623 0.91557 0.0
H1216 H 0.31552 0.29293 0.88734 0.0
H1217 H 0.33736 0.34262 0.98851 0.0
H1218 H 0.36628 0.31588 0.01868 0.0
H1219 H 0.4903 0.26555 0.94842 0.0
H1220 H 0.45154 0.25016 0.95167 0.0
H1221 H 0.4328 0.30211 0.05166 0.0
H1222 H 0.47152 0.31777 0.04812 0.0
H1223 H 0.40204 0.29799 0.97885 0.0
H1224 H 0.4404 0.24904 0.08856 0.0
H1225 H 0.47033 0.2225 0.11528 0.0
H1226 H 0.45116 0.17489 0.00774 0.0
H1227 H 0.42131 0.2013 0.97992 0.0
C1228 C 0.30877 0.24409 0.03518 0.0
C1229 C 0.30129 0.2266 0.00513 0.0
C1230 C 0.3313 0.25167 0.03344 0.0
C1231 C 0.34679 0.24171 0.00207 0.0
C1232 C 0.33956 0.2239 0.97277 0.0
C1233 C 0.31689 0.21655 0.97393 0.0
C1234 C 0.37049 0.25016 0.9997 0.0
C1235 C 0.38822 0.23548 0.01301 0.0
C1236 C 0.37546 0.27296 0.98706 0.0
C1237 C 0.35757 0.28886 0.96991 0.0
C1238 C 0.34317 0.28267 0.93246 0.0
C1239 C 0.32659 0.29784 0.91605 0.0
C1240 C 0.32446 0.31941 0.93631 0.0
C1241 C 0.3389 0.32584 0.97306 0.0
C1242 C 0.35534 0.31065 0.98994 0.0
C1243 C 0.47789 0.2737 0.97103 0.0
C1244 C 0.48385 0.29289 0.99793 0.0
C1245 C 0.45584 0.26479 0.97312 0.0
C1246 C 0.4394 0.27493 0.00211 0.0
C1247 C 0.44531 0.29403 0.02915 0.0
C1248 C 0.46741 0.30286 0.02732 0.0
C1249 C 0.4158 0.26605 0.00303 0.0
C1250 C 0.39807 0.28064 0.98929 0.0
C1251 C 0.41085 0.24318 0.01518 0.0
C1252 C 0.42878 0.22726 0.03184 0.0
C1253 C 0.4427 0.233 0.07032 0.0
C1254 C 0.45962 0.21796 0.08573 0.0
C1255 C 0.46269 0.19705 0.06314 0.0
C1256 C 0.44879 0.19111 0.02516 0.0
C1257 C 0.43186 0.2061 0.00958 0.0
H1258 H 0.47579 0.18543 0.07513 0.0
H1259 H 0.3117 0.33117 0.92335 0.0
H1260 H 0.26717 0.77682 0.57257 0.0
H1261 H 0.27619 0.81738 0.57101 0.0
H1262 H 0.31388 0.80826 0.44234 0.0
H1263 H 0.30489 0.76742 0.44341 0.0
H1264 H 0.33527 0.83794 0.50986 0.0
H1265 H 0.26314 0.82751 0.43237 0.0
H1266 H 0.22389 0.81278 0.42543 0.0
H1267 H 0.20419 0.85066 0.54788 0.0
H1268 H 0.24345 0.8653 0.55606 0.0
H1269 H 0.33737 0.95657 0.45367 0.0
H1270 H 0.33342 0.91511 0.45143 0.0
H1271 H 0.28424 0.91822 0.56397 0.0
H1272 H 0.28705 0.95965 0.5645 0.0
H1273 H 0.26947 0.8909 0.49927 0.0
H1274 H 0.34082 0.90005 0.58031 0.0
H1275 H 0.38018 0.91386 0.59149 0.0
H1276 H 0.40137 0.87827 0.46719 0.0
H1277 H 0.36206 0.86449 0.45491 0.0
C1278 C 0.27755 0.78331 0.54408 0.0
C1279 C 0.28508 0.7689 0.50778 0.0
C1280 C 0.28266 0.80652 0.54326 0.0
C1281 C 0.29543 0.8158 0.50626 0.0
C1282 C 0.30392 0.80137 0.4711 0.0
C1283 C 0.29869 0.77809 0.47169 0.0
C1284 C 0.29882 0.84075 0.50339 0.0
C1285 C 0.32097 0.84959 0.50682 0.0
C1286 C 0.28004 0.85581 0.5004 0.0
C1287 C 0.2563 0.84735 0.49505 0.0
C1288 C 0.25048 0.83257 0.45802 0.0
C1289 C 0.22823 0.82425 0.45384 0.0
C1290 C 0.21157 0.83074 0.48625 0.0
C1291 C 0.21712 0.84563 0.52282 0.0
C1292 C 0.23937 0.85396 0.52723 0.0
C1293 C 0.32561 0.94844 0.47777 0.0
C1294 C 0.31259 0.9615 0.50938 0.0
C1295 C 0.32357 0.9247 0.47682 0.0
C1296 C 0.30873 0.91349 0.50793 0.0
C1297 C 0.29586 0.92646 0.53971 0.0
C1298 C 0.2977 0.95018 0.54036 0.0
C1299 C 0.30598 0.88832 0.50658 0.0
C1300 C 0.28387 0.87937 0.50214 0.0
C1301 C 0.3248 0.8732 0.50907 0.0
C1302 C 0.34845 0.88145 0.51641 0.0
C1303 C 0.35384 0.89532 0.55515 0.0
C1304 C 0.37614 0.90312 0.56172 0.0
C1305 C 0.39325 0.897 0.53 0.0
C1306 C 0.3881 0.88303 0.49169 0.0
C1307 C 0.36581 0.87521 0.48492 0.0
H1308 H 0.41051 0.90305 0.53515 0.0
H1309 H 0.19435 0.82427 0.48298 0.0
H1310 H 0.69362 0.78582 0.92368 0.0
H1311 H 0.65428 0.77149 0.92513 0.0
H1312 H 0.65897 0.76182 0.07502 0.0
H1313 H 0.69799 0.7768 0.0742 0.0
H1314 H 0.64257 0.7219 0.00601 0.0
H1315 H 0.63079 0.79996 0.05945 0.0
H1316 H 0.63547 0.84154 0.05138 0.0
H1317 H 0.60096 0.83978 0.9183 0.0
H1318 H 0.59661 0.79804 0.92503 0.0
H1319 H 0.52974 0.69257 0.06595 0.0
H1320 H 0.56829 0.70797 0.06356 0.0
H1321 H 0.55132 0.74638 0.93891 0.0
H1322 H 0.51221 0.73246 0.94318 0.0
H1323 H 0.57472 0.77205 0.99307 0.0
H1324 H 0.58465 0.69615 0.93677 0.0
H1325 H 0.58147 0.65423 0.93692 0.0
H1326 H 0.62015 0.65098 0.06494 0.0
H1327 H 0.62329 0.69292 0.0659 0.0
C1328 C 0.68618 0.78076 0.95694 0.0
C1329 C 0.69877 0.78244 0.99883 0.0
C1330 C 0.6638 0.77262 0.95769 0.0
C1331 C 0.65391 0.76565 0.00017 0.0
C1332 C 0.66643 0.76718 0.04199 0.0
C1333 C 0.68861 0.77583 0.04145 0.0
C1334 C 0.63054 0.75643 0.0008 0.0
C1335 C 0.62765 0.73278 0.00381 0.0
C1336 C 0.61133 0.77073 0.9962 0.0
C1337 C 0.61365 0.79584 0.99246 0.0
C1338 C 0.62444 0.80839 0.02821 0.0
C1339 C 0.62698 0.832 0.02395 0.0
C1340 C 0.61854 0.8433 0.98434 0.0
C1341 C 0.60752 0.831 0.94894 0.0
C1342 C 0.60503 0.80737 0.95294 0.0
C1343 C 0.53408 0.70448 0.03827 0.0
C1344 C 0.51777 0.71122 0.00473 0.0
C1345 C 0.55628 0.71303 0.03655 0.0
C1346 C 0.56287 0.72807 0.00059 0.0
C1347 C 0.54669 0.73473 0.9669 0.0
C1348 C 0.52437 0.72649 0.96905 0.0
C1349 C 0.58645 0.73726 0.99878 0.0
C1350 C 0.5895 0.76099 0.99533 0.0
C1351 C 0.60586 0.72294 0.00208 0.0
C1352 C 0.60402 0.6977 0.00163 0.0
C1353 C 0.59233 0.68651 0.96515 0.0
C1354 C 0.59056 0.66274 0.965 0.0
C1355 C 0.60055 0.64995 0.00098 0.0
C1356 C 0.61239 0.66091 0.03713 0.0
C1357 C 0.61419 0.68468 0.03747 0.0
H1358 H 0.59917 0.63155 0.0008 0.0
H1359 H 0.62051 0.86158 0.98112 0.0
loop_
_geom_bond_atom_site_label_1
_geom_bond_atom_site_label_2
_geom_bond_distance
_geom_bond_site_symmetry_2
_ccdc_geom_bond_type
Fe0 O2 1.929 . S
Fe0 O5 1.997 . S
Fe0 O6 2.002 . S
Fe0 O11 1.976 . S
Fe0 O14 1.996 . S
Fe1 O2 1.907 1_556 S
Fe1 O9 1.997 . S
Fe1 O12 1.996 . S
Fe1 O16 1.976 . S
Fe1 O19 2.002 . S
O2 Fe0 1.929 . S
O2 Fe1 1.907 1_554 S
O2 Fe3 1.918 . S
Fe3 O2 1.918 . S
Fe3 O4 2.003 . S
Fe3 O13 1.976 . S
Fe3 O17 1.995 1_554 S
Fe3 O20 1.996 1_554 S
O4 Fe3 2.003 . S
O4 C21 1.295 . S
O5 Fe0 1.997 . S
O5 C21 1.235 . S
O6 Fe0 2.002 . S
O6 C7 1.295 . S
C7 O6 1.295 . S
C7 O9 1.235 1_554 S
C8 O13 1.287 . S
C8 O14 1.255 . S
O9 Fe1 1.997 . S
O9 C7 1.235 1_556 S
C10 O16 1.287 . S
C10 O17 1.255 . S
O11 Fe0 1.976 . S
O11 C18 1.269 1_554 S
O12 Fe1 1.996 . S
O12 C18 1.272 . S
O13 Fe3 1.976 . S
O13 C8 1.287 . S
O14 Fe0 1.996 . S
O14 C8 1.255 . S
C15 O19 1.295 . S
C15 O20 1.235 . S
O16 Fe1 1.976 . S
O16 C10 1.287 . S
O17 Fe3 1.995 1_556 S
O17 C10 1.255 . S
C18 O11 1.269 1_556 S
C18 O12 1.272 . S
O19 Fe1 2.002 . S
O19 C15 1.295 . S
O20 Fe3 1.996 1_556 S
O20 C15 1.235 . S
C21 O4 1.295 . S
C21 O5 1.235 . S
Fe22 O24 1.918 . S
Fe22 O27 1.997 . S
Fe22 O28 2.002 . S
Fe22 O33 1.976 . S
Fe22 O36 1.996 . S
Fe23 O24 1.918 . S
Fe23 O31 1.997 . S
Fe23 O34 1.996 . S
Fe23 O38 1.976 . S
Fe23 O41 2.002 . S
O24 Fe22 1.918 . S
O24 Fe23 1.918 . S
O24 Fe25 1.918 . S
Fe25 O24 1.918 . S
Fe25 O26 2.002 . S
Fe25 O35 1.976 . S
Fe25 O39 1.996 . S
Fe25 O42 1.997 . S
O26 Fe25 2.002 . S
O26 C43 1.295 . S
O27 Fe22 1.997 . S
O27 C43 1.235 . S
O28 Fe22 2.002 . S
O28 C29 1.295 . S
C29 O28 1.295 . S
C29 O31 1.235 . S
C30 O35 1.287 . S
C30 O36 1.255 . S
O31 Fe23 1.997 . S
O31 C29 1.235 . S
C32 O38 1.287 . S
C32 O39 1.255 . S
O33 Fe22 1.976 . S
O33 C40 1.287 . S
O34 Fe23 1.996 . S
O34 C40 1.255 . S
O35 Fe25 1.976 . S
O35 C30 1.287 . S
O36 Fe22 1.996 . S
O36 C30 1.255 . S
C37 O41 1.295 . S
C37 O42 1.235 . S
O38 Fe23 1.976 . S
O38 C32 1.287 . S
O39 Fe25 1.996 . S
O39 C32 1.255 . S
C40 O33 1.287 . S
C40 O34 1.255 . S
O41 Fe23 2.002 . S
O41 C37 1.295 . S
O42 Fe25 1.997 . S
O42 C37 1.235 . S
C43 O26 1.295 . S
C43 O27 1.235 . S
Fe44 O46 1.910 1_556 S
Fe44 O49 1.997 . S
Fe44 O50 2.002 . S
Fe44 O55 1.976 . S
Fe44 O58 1.996 . S
Fe45 O46 1.926 . S
Fe45 O53 1.997 . S
Fe45 O56 1.996 . S
Fe45 O60 1.976 . S
Fe45 O63 2.002 . S
O46 Fe44 1.910 1_554 S
O46 Fe45 1.926 . S
O46 Fe47 1.918 . S
Fe47 O46 1.918 . S
Fe47 O48 1.988 1_554 S
Fe47 O57 1.961 1_554 S
Fe47 O61 2.011 . S
Fe47 O64 2.012 . S
O48 Fe47 1.988 1_556 S
O48 C65 1.295 . S
O49 Fe44 1.997 . S
O49 C65 1.235 . S
O50 Fe44 2.002 . S
O50 C51 1.313 . S
C51 O50 1.313 . S
C51 O53 1.218 1_556 S
C52 O57 1.287 . S
C52 O58 1.255 . S
O53 Fe45 1.997 . S
O53 C51 1.218 1_554 S
C54 O60 1.287 . S
C54 O61 1.255 . S
O55 Fe44 1.976 . S
O55 C62 1.287 1_556 S
O56 Fe45 1.996 . S
O56 C62 1.255 . S
O57 Fe47 1.961 1_556 S
O57 C52 1.287 . S
O58 Fe44 1.996 . S
O58 C52 1.255 . S
C59 O63 1.295 . S
C59 O64 1.235 . S
O60 Fe45 1.976 . S
O60 C54 1.287 . S
O61 Fe47 2.011 . S
O61 C54 1.255 . S
C62 O55 1.287 1_554 S
C62 O56 1.255 . S
O63 Fe45 2.002 . S
O63 C59 1.295 . S
O64 Fe47 2.012 . S
O64 C59 1.235 . S
C65 O48 1.295 . S
C65 O49 1.235 . S
Fe66 O68 1.918 . S
Fe66 O71 1.997 . S
Fe66 O72 2.002 . S
Fe66 O77 1.976 . S
Fe66 O80 1.996 . S
Fe67 O68 1.918 . S
Fe67 O75 1.997 . S
Fe67 O78 1.996 . S
Fe67 O82 1.976 . S
Fe67 O85 2.002 . S
O68 Fe66 1.918 . S
O68 Fe67 1.918 . S
O68 Fe69 1.918 . S
Fe69 O68 1.918 . S
Fe69 O70 2.002 . S
Fe69 O79 1.976 . S
Fe69 O83 1.996 . S
Fe69 O86 1.997 . S
O70 Fe69 2.002 . S
O70 C87 1.295 . S
O71 Fe66 1.997 . S
O71 C87 1.235 . S
O72 Fe66 2.002 . S
O72 C73 1.295 . S
C73 O72 1.295 . S
C73 O75 1.235 . S
C74 O79 1.287 . S
C74 O80 1.255 . S
O75 Fe67 1.997 . S
O75 C73 1.235 . S
C76 O82 1.287 . S
C76 O83 1.255 . S
O77 Fe66 1.976 . S
O77 C84 1.287 . S
O78 Fe67 1.996 . S
O78 C84 1.255 . S
O79 Fe69 1.976 . S
O79 C74 1.287 . S
O80 Fe66 1.996 . S
O80 C74 1.255 . S
C81 O85 1.295 . S
C81 O86 1.235 . S
O82 Fe67 1.976 . S
O82 C76 1.287 . S
O83 Fe69 1.996 . S
O83 C76 1.255 . S
C84 O77 1.287 . S
C84 O78 1.255 . S
O85 Fe67 2.002 . S
O85 C81 1.295 . S
O86 Fe69 1.997 . S
O86 C81 1.235 . S
C87 O70 1.295 . S
C87 O71 1.235 . S
H88 C91 0.931 . S
H89 C94 0.928 . S
H90 C96 0.930 . S
C91 H88 0.931 . S
C91 C92 1.404 1_556 S
C91 C93 1.369 . S
C92 C91 1.404 1_554 S
C92 C96 1.429 . S
C93 C91 1.369 . S
C93 C94 1.372 . S
C94 H89 0.928 . S
C94 C93 1.372 . S
C94 C95 1.406 1_556 S
C95 C94 1.406 1_554 S
C95 C96 1.389 . S
C96 H90 0.930 . S
C96 C92 1.429 . S
C96 C95 1.389 . S
H97 C100 0.931 . S
H98 C103 0.951 . S
H99 C105 0.930 1_455 S
C100 H97 0.931 . S
C100 C101 1.413 . S
C100 C102 1.360 . S
C101 C100 1.413 . S
C101 C105 1.429 . S
C102 C100 1.360 . S
C102 C103 1.372 . S
C103 H98 0.951 . S
C103 C102 1.372 . S
C103 C104 1.404 1_655 S
C104 C103 1.404 1_455 S
C104 C105 1.391 1_455 S
C105 H99 0.930 1_655 S
C105 C101 1.429 . S
C105 C104 1.391 1_655 S
H106 C109 0.931 . S
H107 C112 0.928 . S
H108 C114 0.930 . S
C109 H106 0.931 . S
C109 C110 1.413 1_554 S
C109 C111 1.360 . S
C110 C109 1.413 1_556 S
C110 C114 1.429 . S
C111 C109 1.360 . S
C111 C112 1.372 . S
C112 H107 0.928 . S
C112 C111 1.372 . S
C112 C113 1.425 . S
C113 C112 1.425 . S
C113 C114 1.369 1_554 S
C114 H108 0.930 . S
C114 C110 1.429 . S
C114 C113 1.369 1_556 S
H115 C118 0.931 . S
H116 C121 0.928 . S
H117 C123 0.944 . S
C118 H115 0.931 . S
C118 C119 1.413 . S
C118 C120 1.360 . S
C119 C118 1.413 . S
C119 C123 1.429 . S
C120 C118 1.360 . S
C120 C121 1.372 . S
C121 H116 0.928 . S
C121 C120 1.372 . S
C121 C122 1.404 1_455 S
C122 C121 1.404 1_655 S
C122 C123 1.391 1_655 S
C123 H117 0.944 . S
C123 C119 1.429 . S
C123 C122 1.391 1_455 S
H124 C127 0.931 . S
H125 C130 0.928 . S
H126 C132 0.930 . S
C127 H124 0.931 . S
C127 C128 1.413 . S
C127 C129 1.360 . S
C128 C127 1.413 . S
C128 C132 1.429 1_565 S
C129 C127 1.360 . S
C129 C130 1.372 1_565 S
C130 H125 0.928 . S
C130 C129 1.372 1_545 S
C130 C131 1.404 . S
C131 C130 1.404 . S
C131 C132 1.391 . S
C132 H126 0.930 . S
C132 C128 1.429 1_545 S
C132 C131 1.391 . S
H133 C136 0.931 . S
H134 C139 0.928 . S
H135 C141 0.930 . S
C136 H133 0.931 . S
C136 C137 1.413 1_554 S
C136 C138 1.360 . S
C137 C136 1.413 1_556 S
C137 C141 1.429 . S
C138 C136 1.360 . S
C138 C139 1.372 . S
C139 H134 0.928 . S
C139 C138 1.372 . S
C139 C140 1.418 . S
C140 C139 1.418 . S
C140 C141 1.376 1_554 S
C141 H135 0.930 . S
C141 C137 1.429 . S
C141 C140 1.376 1_556 S
H142 C145 0.931 . S
H143 C148 0.928 1_565 S
H144 C150 0.911 1_565 S
C145 H142 0.931 . S
C145 C146 1.413 . S
C145 C147 1.360 . S
C146 C145 1.413 . S
C146 C150 1.469 . S
C147 C145 1.360 . S
C147 C148 1.372 . S
C148 H143 0.928 1_545 S
C148 C147 1.372 . S
C148 C149 1.404 1_545 S
C149 C148 1.404 1_565 S
C149 C150 1.372 1_565 S
C150 H144 0.911 1_545 S
C150 C146 1.469 . S
C150 C149 1.372 1_545 S
H151 C154 0.931 . S
H152 C157 0.928 . S
H153 C159 0.930 . S
C154 H151 0.931 . S
C154 C155 1.411 1_556 S
C154 C156 1.362 . S
C155 C154 1.411 1_554 S
C155 C159 1.429 . S
C156 C154 1.362 . S
C156 C157 1.372 . S
C157 H152 0.928 . S
C157 C156 1.372 . S
C157 C158 1.399 1_556 S
C158 C157 1.399 1_554 S
C158 C159 1.395 . S
C159 H153 0.930 . S
C159 C155 1.429 . S
C159 C158 1.395 . S
H160 C178 0.951 . S
H161 C180 0.951 . S
H162 C182 0.950 . S
H163 C183 0.950 . S
H164 C185 0.950 . S
H165 C188 0.950 . S
H166 C189 0.950 . S
H167 C191 0.950 . S
H168 C192 0.950 . S
H169 C193 0.951 . S
H170 C195 0.951 . S
H171 C197 0.950 . S
H172 C198 0.950 . S
H173 C200 0.950 . S
H174 C203 0.950 . S
H175 C204 0.950 . S
H176 C206 0.950 . S
H177 C207 0.950 . S
C178 H160 0.951 . S
C178 C179 1.366 . S
C178 C180 1.388 . S
C179 C178 1.366 . S
C179 C183 1.385 . S
C180 H161 0.951 . S
C180 C178 1.388 . S
C180 C181 1.366 . S
C181 C180 1.366 . S
C181 C182 1.414 . S
C181 C184 1.499 . S
C182 H162 0.950 . S
C182 C181 1.414 . S
C182 C183 1.374 . S
C183 H163 0.950 . S
C183 C179 1.385 . S
C183 C182 1.374 . S
C184 C181 1.499 . S
C184 C185 1.373 . S
C184 C186 1.389 . S
C185 H164 0.950 . S
C185 C184 1.373 . S
C185 C201 1.377 . S
C186 C184 1.389 . S
C186 C187 1.524 . S
C186 C200 1.377 . S
C187 C186 1.524 . S
C187 C188 1.397 . S
C187 C192 1.363 . S
C188 H165 0.950 . S
C188 C187 1.397 . S
C188 C189 1.334 . S
C189 H166 0.950 . S
C189 C188 1.334 . S
C189 C190 1.287 . S
C190 C189 1.287 . S
C190 C191 1.524 . S
C190 H209 0.913 . S
C191 H167 0.950 . S
C191 C190 1.524 . S
C191 C192 1.415 . S
C192 H168 0.950 . S
C192 C187 1.363 . S
C192 C191 1.415 . S
C193 H169 0.951 . S
C193 C194 1.366 . S
C193 C195 1.388 . S
C194 C193 1.366 . S
C194 C198 1.385 . S
C195 H170 0.951 . S
C195 C193 1.388 . S
C195 C196 1.366 . S
C196 C195 1.366 . S
C196 C197 1.414 . S
C196 C199 1.499 . S
C197 H171 0.950 . S
C197 C196 1.414 . S
C197 C198 1.374 . S
C198 H172 0.950 . S
C198 C194 1.385 . S
C198 C197 1.374 . S
C199 C196 1.499 . S
C199 C200 1.373 . S
C199 C201 1.389 . S
C200 H173 0.950 . S
C200 C186 1.377 . S
C200 C199 1.373 . S
C201 C185 1.377 . S
C201 C199 1.389 . S
C201 C202 1.524 . S
C202 C201 1.524 . S
C202 C203 1.397 . S
C202 C207 1.363 . S
C203 H174 0.950 . S
C203 C202 1.397 . S
C203 C204 1.334 . S
C204 H175 0.950 . S
C204 C203 1.334 . S
C204 C205 1.287 . S
C205 C204 1.287 . S
C205 C206 1.524 . S
C205 H208 0.999 . S
C206 H176 0.950 . S
C206 C205 1.524 . S
C206 C207 1.415 . S
C207 H177 0.950 . S
C207 C202 1.363 . S
C207 C206 1.415 . S
H208 C205 0.999 . S
H209 C190 0.913 . S
H210 C228 0.951 . S
H211 C230 0.951 . S
H212 C232 0.950 . S
H213 C233 0.950 . S
H214 C235 0.950 . S
H215 C238 0.950 . S
H216 C239 0.950 . S
H217 C241 0.950 . S
H218 C242 0.950 . S
H219 C243 0.951 . S
H220 C245 0.951 . S
H221 C247 0.950 . S
H222 C248 0.950 . S
H223 C250 0.950 . S
H224 C253 0.950 . S
H225 C254 0.950 . S
H226 C256 0.950 . S
H227 C257 0.950 . S
C228 H210 0.951 . S
C228 C229 1.366 . S
C228 C230 1.388 . S
C229 C228 1.366 . S
C229 C233 1.385 . S
C230 H211 0.951 . S
C230 C228 1.388 . S
C230 C231 1.366 . S
C231 C230 1.366 . S
C231 C232 1.414 . S
C231 C234 1.499 . S
C232 H212 0.950 . S
C232 C231 1.414 . S
C232 C233 1.374 . S
C233 H213 0.950 . S
C233 C229 1.385 . S
C233 C232 1.374 . S
C234 C231 1.499 . S
C234 C235 1.373 . S
C234 C236 1.389 . S
C235 H214 0.950 . S
C235 C234 1.373 . S
C235 C251 1.377 . S
C236 C234 1.389 . S
C236 C237 1.524 . S
C236 C250 1.377 . S
C237 C236 1.524 . S
C237 C238 1.397 . S
C237 C242 1.363 . S
C238 H215 0.950 . S
C238 C237 1.397 . S
C238 C239 1.334 . S
C239 H216 0.950 . S
C239 C238 1.334 . S
C239 C240 1.287 . S
C240 C239 1.287 . S
C240 C241 1.524 . S
C240 H259 0.913 . S
C241 H217 0.950 . S
C241 C240 1.524 . S
C241 C242 1.415 . S
C242 H218 0.950 . S
C242 C237 1.363 . S
C242 C241 1.415 . S
C243 H219 0.951 . S
C243 C244 1.366 . S
C243 C245 1.388 . S
C244 C243 1.366 . S
C244 C248 1.385 . S
C245 H220 0.951 . S
C245 C243 1.388 . S
C245 C246 1.366 . S
C246 C245 1.366 . S
C246 C247 1.414 . S
C246 C249 1.499 . S
C247 H221 0.950 . S
C247 C246 1.414 . S
C247 C248 1.374 . S
C248 H222 0.950 . S
C248 C244 1.385 . S
C248 C247 1.374 . S
C249 C246 1.499 . S
C249 C250 1.373 . S
C249 C251 1.389 . S
C250 H223 0.950 . S
C250 C236 1.377 . S
C250 C249 1.373 . S
C251 C235 1.377 . S
C251 C249 1.389 . S
C251 C252 1.524 . S
C252 C251 1.524 . S
C252 C253 1.397 . S
C252 C257 1.363 . S
C253 H224 0.950 . S
C253 C252 1.397 . S
C253 C254 1.334 . S
C254 H225 0.950 . S
C254 C253 1.334 . S
C254 C255 1.287 . S
C255 C254 1.287 . S
C255 C256 1.524 . S
C255 H258 0.999 . S
C256 H226 0.950 . S
C256 C255 1.524 . S
C256 C257 1.415 . S
C257 H227 0.950 . S
C257 C252 1.363 . S
C257 C256 1.415 . S
H258 C255 0.999 . S
H259 C240 0.913 . S
H260 C278 0.951 . S
H261 C280 0.951 . S
H262 C282 0.950 . S
H263 C283 0.950 . S
H264 C285 0.950 . S
H265 C288 0.950 . S
H266 C289 0.950 . S
H267 C291 0.950 . S
H268 C292 0.950 . S
H269 C293 0.951 . S
H270 C295 0.951 . S
H271 C297 0.950 . S
H272 C298 0.950 . S
H273 C300 0.950 . S
H274 C303 0.950 . S
H275 C304 0.950 . S
H276 C306 0.950 . S
H277 C307 0.950 . S
C278 H260 0.951 . S
C278 C279 1.366 . S
C278 C280 1.388 . S
C279 C278 1.366 . S
C279 C283 1.385 . S
C280 H261 0.951 . S
C280 C278 1.388 . S
C280 C281 1.366 . S
C281 C280 1.366 . S
C281 C282 1.414 . S
C281 C284 1.499 . S
C282 H262 0.950 . S
C282 C281 1.414 . S
C282 C283 1.374 . S
C283 H263 0.950 . S
C283 C279 1.385 . S
C283 C282 1.374 . S
C284 C281 1.499 . S
C284 C285 1.373 . S
C284 C286 1.389 . S
C285 H264 0.950 . S
C285 C284 1.373 . S
C285 C301 1.377 . S
C286 C284 1.389 . S
C286 C287 1.524 . S
C286 C300 1.377 . S
C287 C286 1.524 . S
C287 C288 1.397 . S
C287 C292 1.363 . S
C288 H265 0.950 . S
C288 C287 1.397 . S
C288 C289 1.334 . S
C289 H266 0.950 . S
C289 C288 1.334 . S
C289 C290 1.287 . S
C290 C289 1.287 . S
C290 C291 1.524 . S
C290 H309 0.913 . S
C291 H267 0.950 . S
C291 C290 1.524 . S
C291 C292 1.415 . S
C292 H268 0.950 . S
C292 C287 1.363 . S
C292 C291 1.415 . S
C293 H269 0.951 . S
C293 C294 1.366 . S
C293 C295 1.388 . S
C294 C293 1.366 . S
C294 C298 1.385 . S
C295 H270 0.951 . S
C295 C293 1.388 . S
C295 C296 1.366 . S
C296 C295 1.366 . S
C296 C297 1.414 . S
C296 C299 1.499 . S
C297 H271 0.950 . S
C297 C296 1.414 . S
C297 C298 1.374 . S
C298 H272 0.950 . S
C298 C294 1.385 . S
C298 C297 1.374 . S
C299 C296 1.499 . S
C299 C300 1.373 . S
C299 C301 1.389 . S
C300 H273 0.950 . S
C300 C286 1.377 . S
C300 C299 1.373 . S
C301 C285 1.377 . S
C301 C299 1.389 . S
C301 C302 1.524 . S
C302 C301 1.524 . S
C302 C303 1.397 . S
C302 C307 1.363 . S
C303 H274 0.950 . S
C303 C302 1.397 . S
C303 C304 1.334 . S
C304 H275 0.950 . S
C304 C303 1.334 . S
C304 C305 1.287 . S
C305 C304 1.287 . S
C305 C306 1.524 . S
C305 H308 0.999 . S
C306 H276 0.950 . S
C306 C305 1.524 . S
C306 C307 1.415 . S
C307 H277 0.950 . S
C307 C302 1.363 . S
C307 C306 1.415 . S
H308 C305 0.999 . S
H309 C290 0.913 . S
H310 C328 0.951 . S
H311 C330 0.951 . S
H312 C332 0.950 . S
H313 C333 0.950 . S
H314 C335 0.950 . S
H315 C338 0.950 . S
H316 C339 0.950 . S
H317 C341 0.950 . S
H318 C342 0.950 . S
H319 C343 0.951 . S
H320 C345 0.951 . S
H321 C347 0.950 . S
H322 C348 0.950 . S
H323 C350 0.950 . S
H324 C353 0.950 . S
H325 C354 0.950 . S
H326 C356 0.950 . S
H327 C357 0.950 . S
C328 H310 0.951 . S
C328 C329 1.366 . S
C328 C330 1.388 . S
C329 C328 1.366 . S
C329 C333 1.385 . S
C330 H311 0.951 . S
C330 C328 1.388 . S
C330 C331 1.366 . S
C331 C330 1.366 . S
C331 C332 1.414 . S
C331 C334 1.499 . S
C332 H312 0.950 . S
C332 C331 1.414 . S
C332 C333 1.374 . S
C333 H313 0.950 . S
C333 C329 1.385 . S
C333 C332 1.374 . S
C334 C331 1.499 . S
C334 C335 1.373 . S
C334 C336 1.389 . S
C335 H314 0.950 . S
C335 C334 1.373 . S
C335 C351 1.377 . S
C336 C334 1.389 . S
C336 C337 1.524 . S
C336 C350 1.377 . S
C337 C336 1.524 . S
C337 C338 1.397 . S
C337 C342 1.363 . S
C338 H315 0.950 . S
C338 C337 1.397 . S
C338 C339 1.334 . S
C339 H316 0.950 . S
C339 C338 1.334 . S
C339 C340 1.287 . S
C340 C339 1.287 . S
C340 C341 1.524 . S
C340 H359 0.913 . S
C341 H317 0.950 . S
C341 C340 1.524 . S
C341 C342 1.415 . S
C342 H318 0.950 . S
C342 C337 1.363 . S
C342 C341 1.415 . S
C343 H319 0.951 . S
C343 C344 1.366 . S
C343 C345 1.388 . S
C344 C343 1.366 . S
C344 C348 1.385 . S
C345 H320 0.951 . S
C345 C343 1.388 . S
C345 C346 1.366 . S
C346 C345 1.366 . S
C346 C347 1.414 . S
C346 C349 1.499 . S
C347 H321 0.950 . S
C347 C346 1.414 . S
C347 C348 1.374 . S
C348 H322 0.950 . S
C348 C344 1.385 . S
C348 C347 1.374 . S
C349 C346 1.499 . S
C349 C350 1.373 . S
C349 C351 1.389 . S
C350 H323 0.950 . S
C350 C336 1.377 . S
C350 C349 1.373 . S
C351 C335 1.377 . S
C351 C349 1.389 . S
C351 C352 1.524 . S
C352 C351 1.524 . S
C352 C353 1.397 . S
C352 C357 1.363 . S
C353 H324 0.950 . S
C353 C352 1.397 . S
C353 C354 1.334 . S
C354 H325 0.950 . S
C354 C353 1.334 . S
C354 C355 1.287 . S
C355 C354 1.287 . S
C355 C356 1.524 . S
C355 H358 0.999 . S
C356 H326 0.950 . S
C356 C355 1.524 . S
C356 C357 1.415 . S
C357 H327 0.950 . S
C357 C352 1.363 . S
C357 C356 1.415 . S
H358 C355 0.999 . S
H359 C340 0.913 . S
H360 C378 0.951 . S
H361 C380 0.951 . S
H362 C382 0.950 . S
H363 C383 0.950 . S
H364 C385 0.950 . S
H365 C388 0.950 . S
H366 C389 0.950 . S
H367 C391 0.950 . S
H368 C392 0.950 . S
H369 C393 0.951 . S
H370 C395 0.951 . S
H371 C397 0.950 . S
H372 C398 0.950 . S
H373 C400 0.950 . S
H374 C403 0.950 . S
H375 C404 0.950 . S
H376 C406 0.950 . S
H377 C407 0.950 . S
C378 H360 0.951 . S
C378 C379 1.366 . S
C378 C380 1.388 . S
C379 C378 1.366 . S
C379 C383 1.385 . S
C380 H361 0.951 . S
C380 C378 1.388 . S
C380 C381 1.366 . S
C381 C380 1.366 . S
C381 C382 1.414 . S
C381 C384 1.499 . S
C382 H362 0.950 . S
C382 C381 1.414 . S
C382 C383 1.374 . S
C383 H363 0.950 . S
C383 C379 1.385 . S
C383 C382 1.374 . S
C384 C381 1.499 . S
C384 C385 1.373 . S
C384 C386 1.389 . S
C385 H364 0.950 . S
C385 C384 1.373 . S
C385 C401 1.377 . S
C386 C384 1.389 . S
C386 C387 1.524 . S
C386 C400 1.377 . S
C387 C386 1.524 . S
C387 C388 1.397 . S
C387 C392 1.363 . S
C388 H365 0.950 . S
C388 C387 1.397 . S
C388 C389 1.334 . S
C389 H366 0.950 . S
C389 C388 1.334 . S
C389 C390 1.287 . S
C390 C389 1.287 . S
C390 C391 1.524 . S
C390 H409 0.913 . S
C391 H367 0.950 . S
C391 C390 1.524 . S
C391 C392 1.415 . S
C392 H368 0.950 . S
C392 C387 1.363 . S
C392 C391 1.415 . S
C393 H369 0.951 . S
C393 C394 1.366 . S
C393 C395 1.388 . S
C394 C393 1.366 . S
C394 C398 1.385 . S
C395 H370 0.951 . S
C395 C393 1.388 . S
C395 C396 1.366 . S
C396 C395 1.366 . S
C396 C397 1.414 . S
C396 C399 1.499 . S
C397 H371 0.950 . S
C397 C396 1.414 . S
C397 C398 1.374 . S
C398 H372 0.950 . S
C398 C394 1.385 . S
C398 C397 1.374 . S
C399 C396 1.499 . S
C399 C400 1.373 . S
C399 C401 1.389 . S
C400 H373 0.950 . S
C400 C386 1.377 . S
C400 C399 1.373 . S
C401 C385 1.377 . S
C401 C399 1.389 . S
C401 C402 1.524 . S
C402 C401 1.524 . S
C402 C403 1.397 . S
C402 C407 1.363 . S
C403 H374 0.950 . S
C403 C402 1.397 . S
C403 C404 1.334 . S
C404 H375 0.950 . S
C404 C403 1.334 . S
C404 C405 1.287 . S
C405 C404 1.287 . S
C405 C406 1.524 . S
C405 H408 0.999 . S
C406 H376 0.950 . S
C406 C405 1.524 . S
C406 C407 1.415 . S
C407 H377 0.950 . S
C407 C402 1.363 . S
C407 C406 1.415 . S
H408 C405 0.999 . S
H409 C390 0.913 . S
H410 C428 0.951 . S
H411 C430 0.951 . S
H412 C432 0.950 . S
H413 C433 0.950 . S
H414 C435 0.950 . S
H415 C438 0.950 . S
H416 C439 0.950 . S
H417 C441 0.950 . S
H418 C442 0.950 . S
H419 C443 0.951 . S
H420 C445 0.951 . S
H421 C447 0.950 . S
H422 C448 0.950 . S
H423 C450 0.950 . S
H424 C453 0.950 . S
H425 C454 0.950 . S
H426 C456 0.950 . S
H427 C457 0.950 . S
C428 H410 0.951 . S
C428 C429 1.366 . S
C428 C430 1.388 . S
C429 C428 1.366 . S
C429 C433 1.385 . S
C430 H411 0.951 . S
C430 C428 1.388 . S
C430 C431 1.366 . S
C431 C430 1.366 . S
C431 C432 1.414 . S
C431 C434 1.499 . S
C432 H412 0.950 . S
C432 C431 1.414 . S
C432 C433 1.374 . S
C433 H413 0.950 . S
C433 C429 1.385 . S
C433 C432 1.374 . S
C434 C431 1.499 . S
C434 C435 1.373 . S
C434 C436 1.389 . S
C435 H414 0.950 . S
C435 C434 1.373 . S
C435 C451 1.377 . S
C436 C434 1.389 . S
C436 C437 1.524 . S
C436 C450 1.377 . S
C437 C436 1.524 . S
C437 C438 1.397 . S
C437 C442 1.363 . S
C438 H415 0.950 . S
C438 C437 1.397 . S
C438 C439 1.334 . S
C439 H416 0.950 . S
C439 C438 1.334 . S
C439 C440 1.287 . S
C440 C439 1.287 . S
C440 C441 1.524 . S
C440 H459 0.913 . S
C441 H417 0.950 . S
C441 C440 1.524 . S
C441 C442 1.415 . S
C442 H418 0.950 . S
C442 C437 1.363 . S
C442 C441 1.415 . S
C443 H419 0.951 . S
C443 C444 1.366 . S
C443 C445 1.388 . S
C444 C443 1.366 . S
C444 C448 1.385 . S
C445 H420 0.951 . S
C445 C443 1.388 . S
C445 C446 1.366 . S
C446 C445 1.366 . S
C446 C447 1.414 . S
C446 C449 1.499 . S
C447 H421 0.950 . S
C447 C446 1.414 . S
C447 C448 1.374 . S
C448 H422 0.950 . S
C448 C444 1.385 . S
C448 C447 1.374 . S
C449 C446 1.499 . S
C449 C450 1.373 . S
C449 C451 1.389 . S
C450 H423 0.950 . S
C450 C436 1.377 . S
C450 C449 1.373 . S
C451 C435 1.377 . S
C451 C449 1.389 . S
C451 C452 1.524 . S
C452 C451 1.524 . S
C452 C453 1.397 . S
C452 C457 1.363 . S
C453 H424 0.950 . S
C453 C452 1.397 . S
C453 C454 1.334 . S
C454 H425 0.950 . S
C454 C453 1.334 . S
C454 C455 1.287 . S
C455 C454 1.287 . S
C455 C456 1.524 . S
C455 H458 0.999 . S
C456 H426 0.950 . S
C456 C455 1.524 . S
C456 C457 1.415 . S
C457 H427 0.950 . S
C457 C452 1.363 . S
C457 C456 1.415 . S
H458 C455 0.999 . S
H459 C440 0.913 . S
H460 C478 0.951 . S
H461 C480 0.951 . S
H462 C482 0.950 . S
H463 C483 0.950 . S
H464 C485 0.950 . S
H465 C488 0.950 . S
H466 C489 0.950 . S
H467 C491 0.950 . S
H468 C492 0.950 . S
H469 C493 0.951 . S
H470 C495 0.951 . S
H471 C497 0.950 . S
H472 C498 0.950 . S
H473 C500 0.950 . S
H474 C503 0.950 . S
H475 C504 0.950 . S
H476 C506 0.950 . S
H477 C507 0.950 . S
C478 H460 0.951 . S
C478 C479 1.366 . S
C478 C480 1.388 . S
C479 C478 1.366 . S
C479 C483 1.385 . S
C480 H461 0.951 . S
C480 C478 1.388 . S
C480 C481 1.366 . S
C481 C480 1.366 . S
C481 C482 1.414 . S
C481 C484 1.499 . S
C482 H462 0.950 . S
C482 C481 1.414 . S
C482 C483 1.374 . S
C483 H463 0.950 . S
C483 C479 1.385 . S
C483 C482 1.374 . S
C484 C481 1.499 . S
C484 C485 1.373 . S
C484 C486 1.389 . S
C485 H464 0.950 . S
C485 C484 1.373 . S
C485 C501 1.377 . S
C486 C484 1.389 . S
C486 C487 1.524 . S
C486 C500 1.377 . S
C487 C486 1.524 . S
C487 C488 1.397 . S
C487 C492 1.363 . S
C488 H465 0.950 . S
C488 C487 1.397 . S
C488 C489 1.334 . S
C489 H466 0.950 . S
C489 C488 1.334 . S
C489 C490 1.287 . S
C490 C489 1.287 . S
C490 C491 1.524 . S
C490 H509 0.913 . S
C491 H467 0.950 . S
C491 C490 1.524 . S
C491 C492 1.415 . S
C492 H468 0.950 . S
C492 C487 1.363 . S
C492 C491 1.415 . S
C493 H469 0.951 . S
C493 C494 1.366 . S
C493 C495 1.388 . S
C494 C493 1.366 . S
C494 C498 1.385 . S
C495 H470 0.951 . S
C495 C493 1.388 . S
C495 C496 1.366 . S
C496 C495 1.366 . S
C496 C497 1.414 . S
C496 C499 1.499 . S
C497 H471 0.950 . S
C497 C496 1.414 . S
C497 C498 1.374 . S
C498 H472 0.950 . S
C498 C494 1.385 . S
C498 C497 1.374 . S
C499 C496 1.499 . S
C499 C500 1.373 . S
C499 C501 1.389 . S
C500 H473 0.950 . S
C500 C486 1.377 . S
C500 C499 1.373 . S
C501 C485 1.377 . S
C501 C499 1.389 . S
C501 C502 1.524 . S
C502 C501 1.524 . S
C502 C503 1.397 . S
C502 C507 1.363 . S
C503 H474 0.950 . S
C503 C502 1.397 . S
C503 C504 1.334 . S
C504 H475 0.950 . S
C504 C503 1.334 . S
C504 C505 1.287 . S
C505 C504 1.287 . S
C505 C506 1.524 . S
C505 H508 0.999 . S
C506 H476 0.950 . S
C506 C505 1.524 . S
C506 C507 1.415 . S
C507 H477 0.950 . S
C507 C502 1.363 . S
C507 C506 1.415 . S
H508 C505 0.999 . S
H509 C490 0.913 . S
H510 C528 0.951 . S
H511 C530 0.951 . S
H512 C532 0.950 . S
H513 C533 0.950 . S
H514 C535 0.950 . S
H515 C538 0.950 . S
H516 C539 0.950 . S
H517 C541 0.950 . S
H518 C542 0.950 . S
H519 C543 0.951 . S
H520 C545 0.951 . S
H521 C547 0.950 . S
H522 C548 0.950 . S
H523 C550 0.950 . S
H524 C553 0.950 . S
H525 C554 0.950 . S
H526 C556 0.950 . S
H527 C557 0.950 . S
C528 H510 0.951 . S
C528 C529 1.366 . S
C528 C530 1.388 . S
C529 C528 1.366 . S
C529 C533 1.385 . S
C530 H511 0.951 . S
C530 C528 1.388 . S
C530 C531 1.366 . S
C531 C530 1.366 . S
C531 C532 1.414 . S
C531 C534 1.499 . S
C532 H512 0.950 . S
C532 C531 1.414 . S
C532 C533 1.374 . S
C533 H513 0.950 . S
C533 C529 1.385 . S
C533 C532 1.374 . S
C534 C531 1.499 . S
C534 C535 1.373 . S
C534 C536 1.389 . S
C535 H514 0.950 . S
C535 C534 1.373 . S
C535 C551 1.377 . S
C536 C534 1.389 . S
C536 C537 1.524 . S
C536 C550 1.377 . S
C537 C536 1.524 . S
C537 C538 1.397 . S
C537 C542 1.363 . S
C538 H515 0.950 . S
C538 C537 1.397 . S
C538 C539 1.334 . S
C539 H516 0.950 . S
C539 C538 1.334 . S
C539 C540 1.287 . S
C540 C539 1.287 . S
C540 C541 1.524 . S
C540 H559 0.913 . S
C541 H517 0.950 . S
C541 C540 1.524 . S
C541 C542 1.415 . S
C542 H518 0.950 . S
C542 C537 1.363 . S
C542 C541 1.415 . S
C543 H519 0.951 . S
C543 C544 1.366 . S
C543 C545 1.388 . S
C544 C543 1.366 . S
C544 C548 1.385 . S
C545 H520 0.951 . S
C545 C543 1.388 . S
C545 C546 1.366 . S
C546 C545 1.366 . S
C546 C547 1.414 . S
C546 C549 1.499 . S
C547 H521 0.950 . S
C547 C546 1.414 . S
C547 C548 1.374 . S
C548 H522 0.950 . S
C548 C544 1.385 . S
C548 C547 1.374 . S
C549 C546 1.499 . S
C549 C550 1.373 . S
C549 C551 1.389 . S
C550 H523 0.950 . S
C550 C536 1.377 . S
C550 C549 1.373 . S
C551 C535 1.377 . S
C551 C549 1.389 . S
C551 C552 1.524 . S
C552 C551 1.524 . S
C552 C553 1.397 . S
C552 C557 1.363 . S
C553 H524 0.950 . S
C553 C552 1.397 . S
C553 C554 1.334 . S
C554 H525 0.950 . S
C554 C553 1.334 . S
C554 C555 1.287 . S
C555 C554 1.287 . S
C555 C556 1.524 . S
C555 H558 0.999 . S
C556 H526 0.950 . S
C556 C555 1.524 . S
C556 C557 1.415 . S
C557 H527 0.950 . S
C557 C552 1.363 . S
C557 C556 1.415 . S
H558 C555 0.999 . S
H559 C540 0.913 . S
H560 C578 0.951 . S
H561 C580 0.951 . S
H562 C582 0.950 . S
H563 C583 0.950 . S
H564 C585 0.950 . S
H565 C588 0.950 . S
H566 C589 0.950 . S
H567 C591 0.950 . S
H568 C592 0.950 . S
H569 C593 0.951 . S
H570 C595 0.951 . S
H571 C597 0.950 . S
H572 C598 0.950 . S
H573 C600 0.950 . S
H574 C603 0.950 . S
H575 C604 0.950 . S
H576 C606 0.950 . S
H577 C607 0.950 . S
C578 H560 0.951 . S
C578 C579 1.366 . S
C578 C580 1.388 . S
C579 C578 1.366 . S
C579 C583 1.385 . S
C580 H561 0.951 . S
C580 C578 1.388 . S
C580 C581 1.366 . S
C581 C580 1.366 . S
C581 C582 1.414 . S
C581 C584 1.499 . S
C582 H562 0.950 . S
C582 C581 1.414 . S
C582 C583 1.374 . S
C583 H563 0.950 . S
C583 C579 1.385 . S
C583 C582 1.374 . S
C584 C581 1.499 . S
C584 C585 1.373 . S
C584 C586 1.389 . S
C585 H564 0.950 . S
C585 C584 1.373 . S
C585 C601 1.377 . S
C586 C584 1.389 . S
C586 C587 1.524 . S
C586 C600 1.377 . S
C587 C586 1.524 . S
C587 C588 1.397 . S
C587 C592 1.363 . S
C588 H565 0.950 . S
C588 C587 1.397 . S
C588 C589 1.334 . S
C589 H566 0.950 . S
C589 C588 1.334 . S
C589 C590 1.287 . S
C590 C589 1.287 . S
C590 C591 1.524 . S
C590 H609 0.913 . S
C591 H567 0.950 . S
C591 C590 1.524 . S
C591 C592 1.415 . S
C592 H568 0.950 . S
C592 C587 1.363 . S
C592 C591 1.415 . S
C593 H569 0.951 . S
C593 C594 1.366 . S
C593 C595 1.388 . S
C594 C593 1.366 . S
C594 C598 1.385 . S
C595 H570 0.951 . S
C595 C593 1.388 . S
C595 C596 1.366 . S
C596 C595 1.366 . S
C596 C597 1.414 . S
C596 C599 1.499 . S
C597 H571 0.950 . S
C597 C596 1.414 . S
C597 C598 1.374 . S
C598 H572 0.950 . S
C598 C594 1.385 . S
C598 C597 1.374 . S
C599 C596 1.499 . S
C599 C600 1.373 . S
C599 C601 1.389 . S
C600 H573 0.950 . S
C600 C586 1.377 . S
C600 C599 1.373 . S
C601 C585 1.377 . S
C601 C599 1.389 . S
C601 C602 1.524 . S
C602 C601 1.524 . S
C602 C603 1.397 . S
C602 C607 1.363 . S
C603 H574 0.950 . S
C603 C602 1.397 . S
C603 C604 1.334 . S
C604 H575 0.950 . S
C604 C603 1.334 . S
C604 C605 1.287 . S
C605 C604 1.287 . S
C605 C606 1.524 . S
C605 H608 0.999 . S
C606 H576 0.950 . S
C606 C605 1.524 . S
C606 C607 1.415 . S
C607 H577 0.950 . S
C607 C602 1.363 . S
C607 C606 1.415 . S
H608 C605 0.999 . S
H609 C590 0.913 . S
H610 C628 0.951 . S
H611 C630 0.951 . S
H612 C632 0.950 . S
H613 C633 0.950 . S
H614 C635 0.950 . S
H615 C638 0.950 . S
H616 C639 0.950 . S
H617 C641 0.950 . S
H618 C642 0.950 . S
H619 C643 0.951 . S
H620 C645 0.951 . S
H621 C647 0.950 . S
H622 C648 0.950 . S
H623 C650 0.950 . S
H624 C653 0.950 . S
H625 C654 0.950 . S
H626 C656 0.950 . S
H627 C657 0.950 . S
C628 H610 0.951 . S
C628 C629 1.366 . S
C628 C630 1.388 . S
C629 C628 1.366 . S
C629 C633 1.385 . S
C630 H611 0.951 . S
C630 C628 1.388 . S
C630 C631 1.366 . S
C631 C630 1.366 . S
C631 C632 1.414 . S
C631 C634 1.499 . S
C632 H612 0.950 . S
C632 C631 1.414 . S
C632 C633 1.374 . S
C633 H613 0.950 . S
C633 C629 1.385 . S
C633 C632 1.374 . S
C634 C631 1.499 . S
C634 C635 1.373 . S
C634 C636 1.389 . S
C635 H614 0.950 . S
C635 C634 1.373 . S
C635 C651 1.377 . S
C636 C634 1.389 . S
C636 C637 1.524 . S
C636 C650 1.377 . S
C637 C636 1.524 . S
C637 C638 1.397 . S
C637 C642 1.363 . S
C638 H615 0.950 . S
C638 C637 1.397 . S
C638 C639 1.334 . S
C639 H616 0.950 . S
C639 C638 1.334 . S
C639 C640 1.287 . S
C640 C639 1.287 . S
C640 C641 1.524 . S
C640 H659 0.913 . S
C641 H617 0.950 . S
C641 C640 1.524 . S
C641 C642 1.415 . S
C642 H618 0.950 . S
C642 C637 1.363 . S
C642 C641 1.415 . S
C643 H619 0.951 . S
C643 C644 1.366 . S
C643 C645 1.388 . S
C644 C643 1.366 . S
C644 C648 1.385 . S
C645 H620 0.951 . S
C645 C643 1.388 . S
C645 C646 1.366 . S
C646 C645 1.366 . S
C646 C647 1.414 . S
C646 C649 1.499 . S
C647 H621 0.950 . S
C647 C646 1.414 . S
C647 C648 1.374 . S
C648 H622 0.950 . S
C648 C644 1.385 . S
C648 C647 1.374 . S
C649 C646 1.499 . S
C649 C650 1.373 . S
C649 C651 1.389 . S
C650 H623 0.950 . S
C650 C636 1.377 . S
C650 C649 1.373 . S
C651 C635 1.377 . S
C651 C649 1.389 . S
C651 C652 1.524 . S
C652 C651 1.524 . S
C652 C653 1.397 . S
C652 C657 1.363 . S
C653 H624 0.950 . S
C653 C652 1.397 . S
C653 C654 1.334 . S
C654 H625 0.950 . S
C654 C653 1.334 . S
C654 C655 1.287 . S
C655 C654 1.287 . S
C655 C656 1.524 . S
C655 H658 0.999 . S
C656 H626 0.950 . S
C656 C655 1.524 . S
C656 C657 1.415 . S
C657 H627 0.950 . S
C657 C652 1.363 . S
C657 C656 1.415 . S
H658 C655 0.999 . S
H659 C640 0.913 . S
H660 C678 0.951 . S
H661 C680 0.951 . S
H662 C682 0.950 . S
H663 C683 0.950 . S
H664 C685 0.950 . S
H665 C688 0.950 . S
H666 C689 0.950 . S
H667 C691 0.950 . S
H668 C692 0.950 . S
H669 C693 0.951 . S
H670 C695 0.951 . S
H671 C697 0.950 . S
H672 C698 0.950 . S
H673 C700 0.950 . S
H674 C703 0.950 . S
H675 C704 0.950 . S
H676 C706 0.950 . S
H677 C707 0.950 . S
C678 H660 0.951 . S
C678 C679 1.366 . S
C678 C680 1.388 . S
C679 C678 1.366 . S
C679 C683 1.385 . S
C680 H661 0.951 . S
C680 C678 1.388 . S
C680 C681 1.366 . S
C681 C680 1.366 . S
C681 C682 1.414 . S
C681 C684 1.499 . S
C682 H662 0.950 . S
C682 C681 1.414 . S
C682 C683 1.374 . S
C683 H663 0.950 . S
C683 C679 1.385 . S
C683 C682 1.374 . S
C684 C681 1.499 . S
C684 C685 1.373 . S
C684 C686 1.389 . S
C685 H664 0.950 . S
C685 C684 1.373 . S
C685 C701 1.377 . S
C686 C684 1.389 . S
C686 C687 1.524 . S
C686 C700 1.377 . S
C687 C686 1.524 . S
C687 C688 1.397 . S
C687 C692 1.363 . S
C688 H665 0.950 . S
C688 C687 1.397 . S
C688 C689 1.334 . S
C689 H666 0.950 . S
C689 C688 1.334 . S
C689 C690 1.287 . S
C690 C689 1.287 . S
C690 C691 1.524 . S
C690 H709 0.913 . S
C691 H667 0.950 . S
C691 C690 1.524 . S
C691 C692 1.415 . S
C692 H668 0.950 . S
C692 C687 1.363 . S
C692 C691 1.415 . S
C693 H669 0.951 . S
C693 C694 1.366 . S
C693 C695 1.388 . S
C694 C693 1.366 . S
C694 C698 1.385 . S
C695 H670 0.951 . S
C695 C693 1.388 . S
C695 C696 1.366 . S
C696 C695 1.366 . S
C696 C697 1.414 . S
C696 C699 1.499 . S
C697 H671 0.950 . S
C697 C696 1.414 . S
C697 C698 1.374 . S
C698 H672 0.950 . S
C698 C694 1.385 . S
C698 C697 1.374 . S
C699 C696 1.499 . S
C699 C700 1.373 . S
C699 C701 1.389 . S
C700 H673 0.950 . S
C700 C686 1.377 . S
C700 C699 1.373 . S
C701 C685 1.377 . S
C701 C699 1.389 . S
C701 C702 1.524 . S
C702 C701 1.524 . S
C702 C703 1.397 . S
C702 C707 1.363 . S
C703 H674 0.950 . S
C703 C702 1.397 . S
C703 C704 1.334 . S
C704 H675 0.950 . S
C704 C703 1.334 . S
C704 C705 1.287 . S
C705 C704 1.287 . S
C705 C706 1.524 . S
C705 H708 0.999 . S
C706 H676 0.950 . S
C706 C705 1.524 . S
C706 C707 1.415 . S
C707 H677 0.950 . S
C707 C702 1.363 . S
C707 C706 1.415 . S
H708 C705 0.999 . S
H709 C690 0.913 . S
H710 C728 0.951 . S
H711 C730 0.951 . S
H712 C732 0.950 . S
H713 C733 0.950 . S
H714 C735 0.950 . S
H715 C738 0.950 . S
H716 C739 0.950 . S
H717 C741 0.950 . S
H718 C742 0.950 . S
H719 C743 0.951 . S
H720 C745 0.951 . S
H721 C747 0.950 . S
H722 C748 0.950 . S
H723 C750 0.950 . S
H724 C753 0.950 . S
H725 C754 0.950 . S
H726 C756 0.950 . S
H727 C757 0.950 . S
C728 H710 0.951 . S
C728 C729 1.366 . S
C728 C730 1.388 . S
C729 C728 1.366 . S
C729 C733 1.385 . S
C730 H711 0.951 . S
C730 C728 1.388 . S
C730 C731 1.366 . S
C731 C730 1.366 . S
C731 C732 1.414 . S
C731 C734 1.499 . S
C732 H712 0.950 . S
C732 C731 1.414 . S
C732 C733 1.374 . S
C733 H713 0.950 . S
C733 C729 1.385 . S
C733 C732 1.374 . S
C734 C731 1.499 . S
C734 C735 1.373 . S
C734 C736 1.389 . S
C735 H714 0.950 . S
C735 C734 1.373 . S
C735 C751 1.377 . S
C736 C734 1.389 . S
C736 C737 1.524 . S
C736 C750 1.377 . S
C737 C736 1.524 . S
C737 C738 1.397 . S
C737 C742 1.363 . S
C738 H715 0.950 . S
C738 C737 1.397 . S
C738 C739 1.334 . S
C739 H716 0.950 . S
C739 C738 1.334 . S
C739 C740 1.287 . S
C740 C739 1.287 . S
C740 C741 1.524 . S
C740 H759 0.913 . S
C741 H717 0.950 . S
C741 C740 1.524 . S
C741 C742 1.415 . S
C742 H718 0.950 . S
C742 C737 1.363 . S
C742 C741 1.415 . S
C743 H719 0.951 . S
C743 C744 1.366 . S
C743 C745 1.388 . S
C744 C743 1.366 . S
C744 C748 1.385 . S
C745 H720 0.951 . S
C745 C743 1.388 . S
C745 C746 1.366 . S
C746 C745 1.366 . S
C746 C747 1.414 . S
C746 C749 1.499 . S
C747 H721 0.950 . S
C747 C746 1.414 . S
C747 C748 1.374 . S
C748 H722 0.950 . S
C748 C744 1.385 . S
C748 C747 1.374 . S
C749 C746 1.499 . S
C749 C750 1.373 . S
C749 C751 1.389 . S
C750 H723 0.950 . S
C750 C736 1.377 . S
C750 C749 1.373 . S
C751 C735 1.377 . S
C751 C749 1.389 . S
C751 C752 1.524 . S
C752 C751 1.524 . S
C752 C753 1.397 . S
C752 C757 1.363 . S
C753 H724 0.950 . S
C753 C752 1.397 . S
C753 C754 1.334 . S
C754 H725 0.950 . S
C754 C753 1.334 . S
C754 C755 1.287 . S
C755 C754 1.287 . S
C755 C756 1.524 . S
C755 H758 0.999 . S
C756 H726 0.950 . S
C756 C755 1.524 . S
C756 C757 1.415 . S
C757 H727 0.950 . S
C757 C752 1.363 . S
C757 C756 1.415 . S
H758 C755 0.999 . S
H759 C740 0.913 . S
H760 C778 0.951 . S
H761 C780 0.951 . S
H762 C782 0.950 . S
H763 C783 0.950 . S
H764 C785 0.950 . S
H765 C788 0.950 . S
H766 C789 0.950 . S
H767 C791 0.950 . S
H768 C792 0.950 . S
H769 C793 0.951 . S
H770 C795 0.951 . S
H771 C797 0.950 . S
H772 C798 0.950 . S
H773 C800 0.950 . S
H774 C803 0.950 . S
H775 C804 0.950 . S
H776 C806 0.950 . S
H777 C807 0.950 . S
C778 H760 0.951 . S
C778 C779 1.366 . S
C778 C780 1.388 . S
C779 C778 1.366 . S
C779 C783 1.385 . S
C780 H761 0.951 . S
C780 C778 1.388 . S
C780 C781 1.366 . S
C781 C780 1.366 . S
C781 C782 1.414 . S
C781 C784 1.499 . S
C782 H762 0.950 . S
C782 C781 1.414 . S
C782 C783 1.374 . S
C783 H763 0.950 . S
C783 C779 1.385 . S
C783 C782 1.374 . S
C784 C781 1.499 . S
C784 C785 1.373 . S
C784 C786 1.389 . S
C785 H764 0.950 . S
C785 C784 1.373 . S
C785 C801 1.377 . S
C786 C784 1.389 . S
C786 C787 1.524 . S
C786 C800 1.377 . S
C787 C786 1.524 . S
C787 C788 1.397 . S
C787 C792 1.363 . S
C788 H765 0.950 . S
C788 C787 1.397 . S
C788 C789 1.334 . S
C789 H766 0.950 . S
C789 C788 1.334 . S
C789 C790 1.287 . S
C790 C789 1.287 . S
C790 C791 1.524 . S
C790 H809 0.913 . S
C791 H767 0.950 . S
C791 C790 1.524 . S
C791 C792 1.415 . S
C792 H768 0.950 . S
C792 C787 1.363 . S
C792 C791 1.415 . S
C793 H769 0.951 . S
C793 C794 1.366 . S
C793 C795 1.388 . S
C794 C793 1.366 . S
C794 C798 1.385 . S
C795 H770 0.951 . S
C795 C793 1.388 . S
C795 C796 1.366 . S
C796 C795 1.366 . S
C796 C797 1.414 . S
C796 C799 1.499 . S
C797 H771 0.950 . S
C797 C796 1.414 . S
C797 C798 1.374 . S
C798 H772 0.950 . S
C798 C794 1.385 . S
C798 C797 1.374 . S
C799 C796 1.499 . S
C799 C800 1.373 . S
C799 C801 1.389 . S
C800 H773 0.950 . S
C800 C786 1.377 . S
C800 C799 1.373 . S
C801 C785 1.377 . S
C801 C799 1.389 . S
C801 C802 1.524 . S
C802 C801 1.524 . S
C802 C803 1.397 . S
C802 C807 1.363 . S
C803 H774 0.950 . S
C803 C802 1.397 . S
C803 C804 1.334 . S
C804 H775 0.950 . S
C804 C803 1.334 . S
C804 C805 1.287 . S
C805 C804 1.287 . S
C805 C806 1.524 . S
C805 H808 0.999 . S
C806 H776 0.950 . S
C806 C805 1.524 . S
C806 C807 1.415 . S
C807 H777 0.950 . S
C807 C802 1.363 . S
C807 C806 1.415 . S
H808 C805 0.999 . S
H809 C790 0.913 . S
H810 C828 0.951 . S
H811 C830 0.951 . S
H812 C832 0.950 . S
H813 C833 0.950 . S
H814 C835 0.950 . S
H815 C838 0.950 . S
H816 C839 0.950 . S
H817 C841 0.950 . S
H818 C842 0.950 . S
H819 C843 0.951 . S
H820 C845 0.951 . S
H821 C847 0.950 . S
H822 C848 0.950 . S
H823 C850 0.950 . S
H824 C853 0.950 . S
H825 C854 0.950 . S
H826 C856 0.950 . S
H827 C857 0.950 . S
C828 H810 0.951 . S
C828 C829 1.366 . S
C828 C830 1.388 . S
C829 C828 1.366 . S
C829 C833 1.385 . S
C830 H811 0.951 . S
C830 C828 1.388 . S
C830 C831 1.366 . S
C831 C830 1.366 . S
C831 C832 1.414 . S
C831 C834 1.499 . S
C832 H812 0.950 . S
C832 C831 1.414 . S
C832 C833 1.374 . S
C833 H813 0.950 . S
C833 C829 1.385 . S
C833 C832 1.374 . S
C834 C831 1.499 . S
C834 C835 1.373 . S
C834 C836 1.389 . S
C835 H814 0.950 . S
C835 C834 1.373 . S
C835 C851 1.377 . S
C836 C834 1.389 . S
C836 C837 1.524 . S
C836 C850 1.377 . S
C837 C836 1.524 . S
C837 C838 1.397 . S
C837 C842 1.363 . S
C838 H815 0.950 . S
C838 C837 1.397 . S
C838 C839 1.334 . S
C839 H816 0.950 . S
C839 C838 1.334 . S
C839 C840 1.287 . S
C840 C839 1.287 . S
C840 C841 1.524 . S
C840 H859 0.913 . S
C841 H817 0.950 . S
C841 C840 1.524 . S
C841 C842 1.415 . S
C842 H818 0.950 . S
C842 C837 1.363 . S
C842 C841 1.415 . S
C843 H819 0.951 . S
C843 C844 1.366 . S
C843 C845 1.388 . S
C844 C843 1.366 . S
C844 C848 1.385 . S
C845 H820 0.951 . S
C845 C843 1.388 . S
C845 C846 1.366 . S
C846 C845 1.366 . S
C846 C847 1.414 . S
C846 C849 1.499 . S
C847 H821 0.950 . S
C847 C846 1.414 . S
C847 C848 1.374 . S
C848 H822 0.950 . S
C848 C844 1.385 . S
C848 C847 1.374 . S
C849 C846 1.499 . S
C849 C850 1.373 . S
C849 C851 1.389 . S
C850 H823 0.950 . S
C850 C836 1.377 . S
C850 C849 1.373 . S
C851 C835 1.377 . S
C851 C849 1.389 . S
C851 C852 1.524 . S
C852 C851 1.524 . S
C852 C853 1.397 . S
C852 C857 1.363 . S
C853 H824 0.950 . S
C853 C852 1.397 . S
C853 C854 1.334 . S
C854 H825 0.950 . S
C854 C853 1.334 . S
C854 C855 1.287 . S
C855 C854 1.287 . S
C855 C856 1.524 . S
C855 H858 0.999 . S
C856 H826 0.950 . S
C856 C855 1.524 . S
C856 C857 1.415 . S
C857 H827 0.950 . S
C857 C852 1.363 . S
C857 C856 1.415 . S
H858 C855 0.999 . S
H859 C840 0.913 . S
H860 C878 0.951 . S
H861 C880 0.951 . S
H862 C882 0.950 . S
H863 C883 0.950 . S
H864 C885 0.950 . S
H865 C888 0.950 . S
H866 C889 0.950 . S
H867 C891 0.950 . S
H868 C892 0.950 . S
H869 C893 0.951 . S
H870 C895 0.951 . S
H871 C897 0.950 . S
H872 C898 0.950 . S
H873 C900 0.950 . S
H874 C903 0.950 . S
H875 C904 0.950 . S
H876 C906 0.950 . S
H877 C907 0.950 . S
C878 H860 0.951 . S
C878 C879 1.366 . S
C878 C880 1.388 . S
C879 C878 1.366 . S
C879 C883 1.385 . S
C880 H861 0.951 . S
C880 C878 1.388 . S
C880 C881 1.366 . S
C881 C880 1.366 . S
C881 C882 1.414 . S
C881 C884 1.499 . S
C882 H862 0.950 . S
C882 C881 1.414 . S
C882 C883 1.374 . S
C883 H863 0.950 . S
C883 C879 1.385 . S
C883 C882 1.374 . S
C884 C881 1.499 . S
C884 C885 1.373 . S
C884 C886 1.389 . S
C885 H864 0.950 . S
C885 C884 1.373 . S
C885 C901 1.377 . S
C886 C884 1.389 . S
C886 C887 1.524 . S
C886 C900 1.377 . S
C887 C886 1.524 . S
C887 C888 1.397 . S
C887 C892 1.363 . S
C888 H865 0.950 . S
C888 C887 1.397 . S
C888 C889 1.334 . S
C889 H866 0.950 . S
C889 C888 1.334 . S
C889 C890 1.287 . S
C890 C889 1.287 . S
C890 C891 1.524 . S
C890 H909 0.913 . S
C891 H867 0.950 . S
C891 C890 1.524 . S
C891 C892 1.415 . S
C892 H868 0.950 . S
C892 C887 1.363 . S
C892 C891 1.415 . S
C893 H869 0.951 . S
C893 C894 1.366 . S
C893 C895 1.388 . S
C894 C893 1.366 . S
C894 C898 1.385 . S
C895 H870 0.951 . S
C895 C893 1.388 . S
C895 C896 1.366 . S
C896 C895 1.366 . S
C896 C897 1.414 . S
C896 C899 1.499 . S
C897 H871 0.950 . S
C897 C896 1.414 . S
C897 C898 1.374 . S
C898 H872 0.950 . S
C898 C894 1.385 . S
C898 C897 1.374 . S
C899 C896 1.499 . S
C899 C900 1.373 . S
C899 C901 1.389 . S
C900 H873 0.950 . S
C900 C886 1.377 . S
C900 C899 1.373 . S
C901 C885 1.377 . S
C901 C899 1.389 . S
C901 C902 1.524 . S
C902 C901 1.524 . S
C902 C903 1.397 . S
C902 C907 1.363 . S
C903 H874 0.950 . S
C903 C902 1.397 . S
C903 C904 1.334 . S
C904 H875 0.950 . S
C904 C903 1.334 . S
C904 C905 1.287 . S
C905 C904 1.287 . S
C905 C906 1.524 . S
C905 H908 0.999 . S
C906 H876 0.950 . S
C906 C905 1.524 . S
C906 C907 1.415 . S
C907 H877 0.950 . S
C907 C902 1.363 . S
C907 C906 1.415 . S
H908 C905 0.999 . S
H909 C890 0.913 . S
H910 C928 0.951 . S
H911 C930 0.951 . S
H912 C932 0.950 . S
H913 C933 0.950 . S
H914 C935 0.950 . S
H915 C938 0.950 . S
H916 C939 0.950 . S
H917 C941 0.950 . S
H918 C942 0.950 . S
H919 C943 0.951 . S
H920 C945 0.951 . S
H921 C947 0.950 . S
H922 C948 0.950 . S
H923 C950 0.950 . S
H924 C953 0.950 . S
H925 C954 0.950 . S
H926 C956 0.950 . S
H927 C957 0.950 . S
C928 H910 0.951 . S
C928 C929 1.366 . S
C928 C930 1.388 . S
C929 C928 1.366 . S
C929 C933 1.385 . S
C930 H911 0.951 . S
C930 C928 1.388 . S
C930 C931 1.366 . S
C931 C930 1.366 . S
C931 C932 1.414 . S
C931 C934 1.499 . S
C932 H912 0.950 . S
C932 C931 1.414 . S
C932 C933 1.374 . S
C933 H913 0.950 . S
C933 C929 1.385 . S
C933 C932 1.374 . S
C934 C931 1.499 . S
C934 C935 1.373 . S
C934 C936 1.389 . S
C935 H914 0.950 . S
C935 C934 1.373 . S
C935 C951 1.377 . S
C936 C934 1.389 . S
C936 C937 1.524 . S
C936 C950 1.377 . S
C937 C936 1.524 . S
C937 C938 1.397 . S
C937 C942 1.363 . S
C938 H915 0.950 . S
C938 C937 1.397 . S
C938 C939 1.334 . S
C939 H916 0.950 . S
C939 C938 1.334 . S
C939 C940 1.287 . S
C940 C939 1.287 . S
C940 C941 1.524 . S
C940 H959 0.913 . S
C941 H917 0.950 . S
C941 C940 1.524 . S
C941 C942 1.415 . S
C942 H918 0.950 . S
C942 C937 1.363 . S
C942 C941 1.415 . S
C943 H919 0.951 . S
C943 C944 1.366 . S
C943 C945 1.388 . S
C944 C943 1.366 . S
C944 C948 1.385 . S
C945 H920 0.951 . S
C945 C943 1.388 . S
C945 C946 1.366 . S
C946 C945 1.366 . S
C946 C947 1.414 . S
C946 C949 1.499 . S
C947 H921 0.950 . S
C947 C946 1.414 . S
C947 C948 1.374 . S
C948 H922 0.950 . S
C948 C944 1.385 . S
C948 C947 1.374 . S
C949 C946 1.499 . S
C949 C950 1.373 . S
C949 C951 1.389 . S
C950 H923 0.950 . S
C950 C936 1.377 . S
C950 C949 1.373 . S
C951 C935 1.377 . S
C951 C949 1.389 . S
C951 C952 1.524 . S
C952 C951 1.524 . S
C952 C953 1.397 . S
C952 C957 1.363 . S
C953 H924 0.950 . S
C953 C952 1.397 . S
C953 C954 1.334 . S
C954 H925 0.950 . S
C954 C953 1.334 . S
C954 C955 1.287 . S
C955 C954 1.287 . S
C955 C956 1.524 . S
C955 H958 0.999 . S
C956 H926 0.950 . S
C956 C955 1.524 . S
C956 C957 1.415 . S
C957 H927 0.950 . S
C957 C952 1.363 . S
C957 C956 1.415 . S
H958 C955 0.999 . S
H959 C940 0.913 . S
H960 C978 0.951 . S
H961 C980 0.951 . S
H962 C982 0.950 . S
H963 C983 0.950 . S
H964 C985 0.950 . S
H965 C988 0.950 . S
H966 C989 0.950 . S
H967 C991 0.950 . S
H968 C992 0.950 1_556 S
H969 C993 0.951 . S
H970 C995 0.951 . S
H971 C997 0.950 . S
H972 C998 0.950 . S
H973 C1000 0.950 . S
H974 C1003 0.950 . S
H975 C1004 0.950 . S
H976 C1006 0.950 . S
H977 C1007 0.950 1_554 S
C978 H960 0.951 . S
C978 C979 1.356 1_556 S
C978 C980 1.388 . S
C979 C978 1.356 1_554 S
C979 C983 1.395 . S
C980 H961 0.951 . S
C980 C978 1.388 . S
C980 C981 1.366 1_556 S
C981 C980 1.366 1_554 S
C981 C982 1.414 . S
C981 C984 1.499 . S
C982 H962 0.950 . S
C982 C981 1.414 . S
C982 C983 1.374 . S
C983 H963 0.950 . S
C983 C979 1.395 . S
C983 C982 1.374 . S
C984 C981 1.499 . S
C984 C985 1.373 1_554 S
C984 C986 1.389 . S
C985 H964 0.950 . S
C985 C984 1.373 1_556 S
C985 C1001 1.377 . S
C986 C984 1.389 . S
C986 C987 1.524 . S
C986 C1000 1.377 . S
C987 C986 1.524 . S
C987 C988 1.397 . S
C987 C992 1.363 . S
C988 H965 0.950 . S
C988 C987 1.397 . S
C988 C989 1.334 . S
C989 H966 0.950 . S
C989 C988 1.334 . S
C989 C990 1.287 . S
C990 C989 1.287 . S
C990 C991 1.524 . S
C990 H1009 0.913 . S
C991 H967 0.950 . S
C991 C990 1.524 . S
C991 C992 1.415 . S
C992 H968 0.950 1_554 S
C992 C987 1.363 . S
C992 C991 1.415 . S
C993 H969 0.951 . S
C993 C994 1.372 . S
C993 C995 1.388 . S
C994 C993 1.372 . S
C994 C998 1.378 1_554 S
C995 H970 0.951 . S
C995 C993 1.388 . S
C995 C996 1.366 1_554 S
C996 C995 1.366 1_556 S
C996 C997 1.414 . S
C996 C999 1.499 . S
C997 H971 0.950 . S
C997 C996 1.414 . S
C997 C998 1.374 . S
C998 H972 0.950 . S
C998 C994 1.378 1_556 S
C998 C997 1.374 . S
C999 C996 1.499 . S
C999 C1000 1.373 1_556 S
C999 C1001 1.389 . S
C1000 H973 0.950 . S
C1000 C986 1.377 . S
C1000 C999 1.373 1_554 S
C1001 C985 1.377 . S
C1001 C999 1.389 . S
C1001 C1002 1.524 . S
C1002 C1001 1.524 . S
C1002 C1003 1.397 . S
C1002 C1007 1.363 . S
C1003 H974 0.950 . S
C1003 C1002 1.397 . S
C1003 C1004 1.334 . S
C1004 H975 0.950 . S
C1004 C1003 1.334 . S
C1004 C1005 1.287 . S
C1005 C1004 1.287 . S
C1005 C1006 1.524 . S
C1005 H1008 0.999 . S
C1006 H976 0.950 . S
C1006 C1005 1.524 . S
C1006 C1007 1.415 . S
C1007 H977 0.950 1_556 S
C1007 C1002 1.363 . S
C1007 C1006 1.415 . S
H1008 C1005 0.999 . S
H1009 C990 0.913 . S
H1010 C1028 0.951 . S
H1011 C1030 0.951 . S
H1012 C1032 0.950 . S
H1013 C1033 0.950 . S
H1014 C1035 0.950 . S
H1015 C1038 0.950 . S
H1016 C1039 0.950 . S
H1017 C1041 0.950 . S
H1018 C1042 0.950 . S
H1019 C1043 0.951 . S
H1020 C1045 0.951 . S
H1021 C1047 0.950 . S
H1022 C1048 0.950 . S
H1023 C1050 0.950 . S
H1024 C1053 0.950 . S
H1025 C1054 0.950 . S
H1026 C1056 0.950 . S
H1027 C1057 0.950 . S
C1028 H1010 0.951 . S
C1028 C1029 1.366 . S
C1028 C1030 1.388 . S
C1029 C1028 1.366 . S
C1029 C1033 1.385 . S
C1030 H1011 0.951 . S
C1030 C1028 1.388 . S
C1030 C1031 1.366 . S
C1031 C1030 1.366 . S
C1031 C1032 1.414 . S
C1031 C1034 1.499 . S
C1032 H1012 0.950 . S
C1032 C1031 1.414 . S
C1032 C1033 1.374 . S
C1033 H1013 0.950 . S
C1033 C1029 1.385 . S
C1033 C1032 1.374 . S
C1034 C1031 1.499 . S
C1034 C1035 1.373 . S
C1034 C1036 1.389 . S
C1035 H1014 0.950 . S
C1035 C1034 1.373 . S
C1035 C1051 1.377 . S
C1036 C1034 1.389 . S
C1036 C1037 1.524 . S
C1036 C1050 1.377 . S
C1037 C1036 1.524 . S
C1037 C1038 1.397 . S
C1037 C1042 1.363 . S
C1038 H1015 0.950 . S
C1038 C1037 1.397 . S
C1038 C1039 1.334 . S
C1039 H1016 0.950 . S
C1039 C1038 1.334 . S
C1039 C1040 1.287 . S
C1040 C1039 1.287 . S
C1040 C1041 1.524 . S
C1040 H1059 0.913 . S
C1041 H1017 0.950 . S
C1041 C1040 1.524 . S
C1041 C1042 1.415 . S
C1042 H1018 0.950 . S
C1042 C1037 1.363 . S
C1042 C1041 1.415 . S
C1043 H1019 0.951 . S
C1043 C1044 1.366 . S
C1043 C1045 1.388 . S
C1044 C1043 1.366 . S
C1044 C1048 1.385 . S
C1045 H1020 0.951 . S
C1045 C1043 1.388 . S
C1045 C1046 1.366 . S
C1046 C1045 1.366 . S
C1046 C1047 1.414 . S
C1046 C1049 1.499 . S
C1047 H1021 0.950 . S
C1047 C1046 1.414 . S
C1047 C1048 1.374 . S
C1048 H1022 0.950 . S
C1048 C1044 1.385 . S
C1048 C1047 1.374 . S
C1049 C1046 1.499 . S
C1049 C1050 1.373 . S
C1049 C1051 1.389 . S
C1050 H1023 0.950 . S
C1050 C1036 1.377 . S
C1050 C1049 1.373 . S
C1051 C1035 1.377 . S
C1051 C1049 1.389 . S
C1051 C1052 1.524 . S
C1052 C1051 1.524 . S
C1052 C1053 1.397 . S
C1052 C1057 1.363 . S
C1053 H1024 0.950 . S
C1053 C1052 1.397 . S
C1053 C1054 1.334 . S
C1054 H1025 0.950 . S
C1054 C1053 1.334 . S
C1054 C1055 1.287 . S
C1055 C1054 1.287 . S
C1055 C1056 1.524 . S
C1055 H1058 0.999 . S
C1056 H1026 0.950 . S
C1056 C1055 1.524 . S
C1056 C1057 1.415 . S
C1057 H1027 0.950 . S
C1057 C1052 1.363 . S
C1057 C1056 1.415 . S
H1058 C1055 0.999 . S
H1059 C1040 0.913 . S
H1060 C1078 0.951 . S
H1061 C1080 0.952 . S
H1062 C1082 0.950 . S
H1063 C1083 0.950 . S
H1064 C1085 0.950 . S
H1065 C1088 0.950 . S
H1066 C1089 0.950 . S
H1067 C1091 0.950 . S
H1068 C1092 0.950 . S
H1069 C1093 0.951 . S
H1070 C1095 0.951 . S
H1071 C1097 0.950 . S
H1072 C1098 0.950 . S
H1073 C1100 0.950 . S
H1074 C1103 0.950 . S
H1075 C1104 0.950 . S
H1076 C1106 0.950 . S
H1077 C1107 0.950 . S
C1078 H1060 0.951 . S
C1078 C1079 1.365 1_556 S
C1078 C1080 1.388 . S
C1079 C1078 1.365 1_554 S
C1079 C1083 1.387 . S
C1080 H1061 0.952 . S
C1080 C1078 1.388 . S
C1080 C1081 1.364 1_556 S
C1081 C1080 1.364 1_554 S
C1081 C1082 1.414 . S
C1081 C1084 1.499 . S
C1082 H1062 0.950 . S
C1082 C1081 1.414 . S
C1082 C1083 1.374 . S
C1083 H1063 0.950 . S
C1083 C1079 1.387 . S
C1083 C1082 1.374 . S
C1084 C1081 1.499 . S
C1084 C1085 1.373 1_554 S
C1084 C1086 1.389 . S
C1085 H1064 0.950 . S
C1085 C1084 1.373 1_556 S
C1085 C1101 1.377 . S
C1086 C1084 1.389 . S
C1086 C1087 1.524 . S
C1086 C1100 1.377 . S
C1087 C1086 1.524 . S
C1087 C1088 1.397 . S
C1087 C1092 1.363 . S
C1088 H1065 0.950 . S
C1088 C1087 1.397 . S
C1088 C1089 1.334 . S
C1089 H1066 0.950 . S
C1089 C1088 1.334 . S
C1089 C1090 1.287 . S
C1090 C1089 1.287 . S
C1090 C1091 1.524 . S
C1090 H1109 0.913 . S
C1091 H1067 0.950 . S
C1091 C1090 1.524 . S
C1091 C1092 1.415 . S
C1092 H1068 0.950 . S
C1092 C1087 1.363 . S
C1092 C1091 1.415 . S
C1093 H1069 0.951 . S
C1093 C1094 1.367 . S
C1093 C1095 1.388 . S
C1094 C1093 1.367 . S
C1094 C1098 1.384 1_554 S
C1095 H1070 0.951 . S
C1095 C1093 1.388 . S
C1095 C1096 1.366 1_554 S
C1096 C1095 1.366 1_556 S
C1096 C1097 1.414 . S
C1096 C1099 1.499 . S
C1097 H1071 0.950 . S
C1097 C1096 1.414 . S
C1097 C1098 1.374 . S
C1098 H1072 0.950 . S
C1098 C1094 1.384 1_556 S
C1098 C1097 1.374 . S
C1099 C1096 1.499 . S
C1099 C1100 1.373 1_556 S
C1099 C1101 1.389 . S
C1100 H1073 0.950 . S
C1100 C1086 1.377 . S
C1100 C1099 1.373 1_554 S
C1101 C1085 1.377 . S
C1101 C1099 1.389 . S
C1101 C1102 1.524 . S
C1102 C1101 1.524 . S
C1102 C1103 1.397 . S
C1102 C1107 1.363 . S
C1103 H1074 0.950 . S
C1103 C1102 1.397 . S
C1103 C1104 1.334 . S
C1104 H1075 0.950 . S
C1104 C1103 1.334 . S
C1104 C1105 1.287 . S
C1105 C1104 1.287 . S
C1105 C1106 1.524 . S
C1105 H1108 0.999 . S
C1106 H1076 0.950 . S
C1106 C1105 1.524 . S
C1106 C1107 1.415 . S
C1107 H1077 0.950 . S
C1107 C1102 1.363 . S
C1107 C1106 1.415 . S
H1108 C1105 0.999 . S
H1109 C1090 0.913 . S
H1110 C1128 0.951 . S
H1111 C1130 0.951 . S
H1112 C1132 0.950 . S
H1113 C1133 0.950 . S
H1114 C1135 0.950 . S
H1115 C1138 0.950 . S
H1116 C1139 0.950 . S
H1117 C1141 0.950 . S
H1118 C1142 0.950 . S
H1119 C1143 0.951 . S
H1120 C1145 0.951 . S
H1121 C1147 0.950 . S
H1122 C1148 0.950 . S
H1123 C1150 0.950 . S
H1124 C1153 0.950 . S
H1125 C1154 0.950 . S
H1126 C1156 0.950 . S
H1127 C1157 0.950 . S
C1128 H1110 0.951 . S
C1128 C1129 1.366 . S
C1128 C1130 1.388 . S
C1129 C1128 1.366 . S
C1129 C1133 1.385 . S
C1130 H1111 0.951 . S
C1130 C1128 1.388 . S
C1130 C1131 1.366 . S
C1131 C1130 1.366 . S
C1131 C1132 1.414 . S
C1131 C1134 1.499 . S
C1132 H1112 0.950 . S
C1132 C1131 1.414 . S
C1132 C1133 1.374 . S
C1133 H1113 0.950 . S
C1133 C1129 1.385 . S
C1133 C1132 1.374 . S
C1134 C1131 1.499 . S
C1134 C1135 1.373 . S
C1134 C1136 1.389 . S
C1135 H1114 0.950 . S
C1135 C1134 1.373 . S
C1135 C1151 1.377 . S
C1136 C1134 1.389 . S
C1136 C1137 1.524 . S
C1136 C1150 1.377 . S
C1137 C1136 1.524 . S
C1137 C1138 1.397 . S
C1137 C1142 1.363 . S
C1138 H1115 0.950 . S
C1138 C1137 1.397 . S
C1138 C1139 1.334 . S
C1139 H1116 0.950 . S
C1139 C1138 1.334 . S
C1139 C1140 1.287 . S
C1140 C1139 1.287 . S
C1140 C1141 1.524 . S
C1140 H1159 0.913 . S
C1141 H1117 0.950 . S
C1141 C1140 1.524 . S
C1141 C1142 1.415 . S
C1142 H1118 0.950 . S
C1142 C1137 1.363 . S
C1142 C1141 1.415 . S
C1143 H1119 0.951 . S
C1143 C1144 1.366 . S
C1143 C1145 1.388 . S
C1144 C1143 1.366 . S
C1144 C1148 1.385 . S
C1145 H1120 0.951 . S
C1145 C1143 1.388 . S
C1145 C1146 1.366 . S
C1146 C1145 1.366 . S
C1146 C1147 1.414 . S
C1146 C1149 1.499 . S
C1147 H1121 0.950 . S
C1147 C1146 1.414 . S
C1147 C1148 1.374 . S
C1148 H1122 0.950 . S
C1148 C1144 1.385 . S
C1148 C1147 1.374 . S
C1149 C1146 1.499 . S
C1149 C1150 1.373 . S
C1149 C1151 1.389 . S
C1150 H1123 0.950 . S
C1150 C1136 1.377 . S
C1150 C1149 1.373 . S
C1151 C1135 1.377 . S
C1151 C1149 1.389 . S
C1151 C1152 1.524 . S
C1152 C1151 1.524 . S
C1152 C1153 1.397 . S
C1152 C1157 1.363 . S
C1153 H1124 0.950 . S
C1153 C1152 1.397 . S
C1153 C1154 1.334 . S
C1154 H1125 0.950 . S
C1154 C1153 1.334 . S
C1154 C1155 1.287 . S
C1155 C1154 1.287 . S
C1155 C1156 1.524 . S
C1155 H1158 0.999 . S
C1156 H1126 0.950 . S
C1156 C1155 1.524 . S
C1156 C1157 1.415 . S
C1157 H1127 0.950 . S
C1157 C1152 1.363 . S
C1157 C1156 1.415 . S
H1158 C1155 0.999 . S
H1159 C1140 0.913 . S
H1160 C1178 0.951 . S
H1161 C1180 0.951 . S
H1162 C1182 0.950 . S
H1163 C1183 0.950 . S
H1164 C1185 0.950 . S
H1165 C1188 0.950 . S
H1166 C1189 0.950 . S
H1167 C1191 0.950 . S
H1168 C1192 0.950 . S
H1169 C1193 0.951 . S
H1170 C1195 0.951 . S
H1171 C1197 0.950 . S
H1172 C1198 0.950 . S
H1173 C1200 0.950 . S
H1174 C1203 0.950 . S
H1175 C1204 0.950 . S
H1176 C1206 0.950 . S
H1177 C1207 0.950 . S
C1178 H1160 0.951 . S
C1178 C1179 1.366 . S
C1178 C1180 1.388 . S
C1179 C1178 1.366 . S
C1179 C1183 1.385 . S
C1180 H1161 0.951 . S
C1180 C1178 1.388 . S
C1180 C1181 1.366 . S
C1181 C1180 1.366 . S
C1181 C1182 1.414 . S
C1181 C1184 1.499 . S
C1182 H1162 0.950 . S
C1182 C1181 1.414 . S
C1182 C1183 1.374 . S
C1183 H1163 0.950 . S
C1183 C1179 1.385 . S
C1183 C1182 1.374 . S
C1184 C1181 1.499 . S
C1184 C1185 1.373 . S
C1184 C1186 1.389 . S
C1185 H1164 0.950 . S
C1185 C1184 1.373 . S
C1185 C1201 1.377 . S
C1186 C1184 1.389 . S
C1186 C1187 1.524 . S
C1186 C1200 1.377 . S
C1187 C1186 1.524 . S
C1187 C1188 1.397 . S
C1187 C1192 1.363 . S
C1188 H1165 0.950 . S
C1188 C1187 1.397 . S
C1188 C1189 1.334 . S
C1189 H1166 0.950 . S
C1189 C1188 1.334 . S
C1189 C1190 1.287 . S
C1190 C1189 1.287 . S
C1190 C1191 1.524 . S
C1190 H1209 0.913 . S
C1191 H1167 0.950 . S
C1191 C1190 1.524 . S
C1191 C1192 1.415 . S
C1192 H1168 0.950 . S
C1192 C1187 1.363 . S
C1192 C1191 1.415 . S
C1193 H1169 0.951 . S
C1193 C1194 1.366 . S
C1193 C1195 1.388 . S
C1194 C1193 1.366 . S
C1194 C1198 1.385 . S
C1195 H1170 0.951 . S
C1195 C1193 1.388 . S
C1195 C1196 1.366 . S
C1196 C1195 1.366 . S
C1196 C1197 1.414 . S
C1196 C1199 1.499 . S
C1197 H1171 0.950 . S
C1197 C1196 1.414 . S
C1197 C1198 1.374 . S
C1198 H1172 0.950 . S
C1198 C1194 1.385 . S
C1198 C1197 1.374 . S
C1199 C1196 1.499 . S
C1199 C1200 1.373 . S
C1199 C1201 1.389 . S
C1200 H1173 0.950 . S
C1200 C1186 1.377 . S
C1200 C1199 1.373 . S
C1201 C1185 1.377 . S
C1201 C1199 1.389 . S
C1201 C1202 1.524 . S
C1202 C1201 1.524 . S
C1202 C1203 1.397 . S
C1202 C1207 1.363 . S
C1203 H1174 0.950 . S
C1203 C1202 1.397 . S
C1203 C1204 1.334 . S
C1204 H1175 0.950 . S
C1204 C1203 1.334 . S
C1204 C1205 1.287 . S
C1205 C1204 1.287 . S
C1205 C1206 1.524 . S
C1205 H1208 0.999 . S
C1206 H1176 0.950 . S
C1206 C1205 1.524 . S
C1206 C1207 1.415 . S
C1207 H1177 0.950 . S
C1207 C1202 1.363 . S
C1207 C1206 1.415 . S
H1208 C1205 0.999 . S
H1209 C1190 0.913 . S
H1210 C1228 0.951 . S
H1211 C1230 0.951 . S
H1212 C1232 0.950 1_554 S
H1213 C1233 0.950 . S
H1214 C1235 0.950 . S
H1215 C1238 0.950 . S
H1216 C1239 0.950 . S
H1217 C1241 0.950 . S
H1218 C1242 0.950 . S
H1219 C1243 0.951 . S
H1220 C1245 0.951 . S
H1221 C1247 0.950 1_556 S
H1222 C1248 0.950 . S
H1223 C1250 0.950 . S
H1224 C1253 0.950 . S
H1225 C1254 0.950 . S
H1226 C1256 0.950 . S
H1227 C1257 0.950 . S
C1228 H1210 0.951 . S
C1228 C1229 1.365 1_556 S
C1228 C1230 1.389 . S
C1229 C1228 1.365 1_554 S
C1229 C1233 1.385 . S
C1230 H1211 0.951 . S
C1230 C1228 1.389 . S
C1230 C1231 1.366 . S
C1231 C1230 1.366 . S
C1231 C1232 1.414 . S
C1231 C1234 1.499 . S
C1232 H1212 0.950 1_556 S
C1232 C1231 1.414 . S
C1232 C1233 1.374 1_556 S
C1233 H1213 0.950 . S
C1233 C1229 1.385 . S
C1233 C1232 1.374 1_554 S
C1234 C1231 1.499 . S
C1234 C1235 1.373 1_556 S
C1234 C1236 1.389 . S
C1235 H1214 0.950 . S
C1235 C1234 1.373 1_554 S
C1235 C1251 1.377 . S
C1236 C1234 1.389 . S
C1236 C1237 1.524 . S
C1236 C1250 1.377 . S
C1237 C1236 1.524 . S
C1237 C1238 1.397 . S
C1237 C1242 1.363 . S
C1238 H1215 0.950 . S
C1238 C1237 1.397 . S
C1238 C1239 1.334 . S
C1239 H1216 0.950 . S
C1239 C1238 1.334 . S
C1239 C1240 1.287 . S
C1240 C1239 1.287 . S
C1240 C1241 1.524 . S
C1240 H1259 0.913 . S
C1241 H1217 0.950 . S
C1241 C1240 1.524 . S
C1241 C1242 1.415 . S
C1242 H1218 0.950 . S
C1242 C1237 1.363 . S
C1242 C1241 1.415 . S
C1243 H1219 0.951 . S
C1243 C1244 1.366 . S
C1243 C1245 1.388 . S
C1244 C1243 1.366 . S
C1244 C1248 1.385 1_554 S
C1245 H1220 0.951 . S
C1245 C1243 1.388 . S
C1245 C1246 1.366 . S
C1246 C1245 1.366 . S
C1246 C1247 1.415 . S
C1246 C1249 1.499 . S
C1247 H1221 0.950 1_554 S
C1247 C1246 1.415 . S
C1247 C1248 1.374 1_554 S
C1248 H1222 0.950 . S
C1248 C1244 1.385 1_556 S
C1248 C1247 1.374 1_556 S
C1249 C1246 1.499 . S
C1249 C1250 1.373 1_554 S
C1249 C1251 1.389 . S
C1250 H1223 0.950 . S
C1250 C1236 1.377 . S
C1250 C1249 1.373 1_556 S
C1251 C1235 1.377 . S
C1251 C1249 1.389 . S
C1251 C1252 1.524 . S
C1252 C1251 1.524 . S
C1252 C1253 1.397 . S
C1252 C1257 1.363 . S
C1253 H1224 0.950 . S
C1253 C1252 1.397 . S
C1253 C1254 1.334 . S
C1254 H1225 0.950 . S
C1254 C1253 1.334 . S
C1254 C1255 1.287 . S
C1255 C1254 1.287 . S
C1255 C1256 1.524 . S
C1255 H1258 0.999 . S
C1256 H1226 0.950 . S
C1256 C1255 1.524 . S
C1256 C1257 1.415 . S
C1257 H1227 0.950 . S
C1257 C1252 1.363 . S
C1257 C1256 1.415 . S
H1258 C1255 0.999 . S
H1259 C1240 0.913 . S
H1260 C1278 0.951 . S
H1261 C1280 0.951 . S
H1262 C1282 0.950 . S
H1263 C1283 0.950 . S
H1264 C1285 0.950 . S
H1265 C1288 0.950 . S
H1266 C1289 0.950 . S
H1267 C1291 0.950 . S
H1268 C1292 0.950 . S
H1269 C1293 0.951 . S
H1270 C1295 0.951 . S
H1271 C1297 0.950 . S
H1272 C1298 0.950 . S
H1273 C1300 0.950 . S
H1274 C1303 0.950 . S
H1275 C1304 0.950 . S
H1276 C1306 0.950 . S
H1277 C1307 0.950 . S
C1278 H1260 0.951 . S
C1278 C1279 1.366 . S
C1278 C1280 1.388 . S
C1279 C1278 1.366 . S
C1279 C1283 1.385 . S
C1280 H1261 0.951 . S
C1280 C1278 1.388 . S
C1280 C1281 1.366 . S
C1281 C1280 1.366 . S
C1281 C1282 1.414 . S
C1281 C1284 1.499 . S
C1282 H1262 0.950 . S
C1282 C1281 1.414 . S
C1282 C1283 1.374 . S
C1283 H1263 0.950 . S
C1283 C1279 1.385 . S
C1283 C1282 1.374 . S
C1284 C1281 1.499 . S
C1284 C1285 1.373 . S
C1284 C1286 1.389 . S
C1285 H1264 0.950 . S
C1285 C1284 1.373 . S
C1285 C1301 1.377 . S
C1286 C1284 1.389 . S
C1286 C1287 1.524 . S
C1286 C1300 1.377 . S
C1287 C1286 1.524 . S
C1287 C1288 1.397 . S
C1287 C1292 1.363 . S
C1288 H1265 0.950 . S
C1288 C1287 1.397 . S
C1288 C1289 1.334 . S
C1289 H1266 0.950 . S
C1289 C1288 1.334 . S
C1289 C1290 1.287 . S
C1290 C1289 1.287 . S
C1290 C1291 1.524 . S
C1290 H1309 0.913 . S
C1291 H1267 0.950 . S
C1291 C1290 1.524 . S
C1291 C1292 1.415 . S
C1292 H1268 0.950 . S
C1292 C1287 1.363 . S
C1292 C1291 1.415 . S
C1293 H1269 0.951 . S
C1293 C1294 1.366 . S
C1293 C1295 1.388 . S
C1294 C1293 1.366 . S
C1294 C1298 1.385 . S
C1295 H1270 0.951 . S
C1295 C1293 1.388 . S
C1295 C1296 1.366 . S
C1296 C1295 1.366 . S
C1296 C1297 1.414 . S
C1296 C1299 1.499 . S
C1297 H1271 0.950 . S
C1297 C1296 1.414 . S
C1297 C1298 1.374 . S
C1298 H1272 0.950 . S
C1298 C1294 1.385 . S
C1298 C1297 1.374 . S
C1299 C1296 1.499 . S
C1299 C1300 1.373 . S
C1299 C1301 1.389 . S
C1300 H1273 0.950 . S
C1300 C1286 1.377 . S
C1300 C1299 1.373 . S
C1301 C1285 1.377 . S
C1301 C1299 1.389 . S
C1301 C1302 1.524 . S
C1302 C1301 1.524 . S
C1302 C1303 1.397 . S
C1302 C1307 1.363 . S
C1303 H1274 0.950 . S
C1303 C1302 1.397 . S
C1303 C1304 1.334 . S
C1304 H1275 0.950 . S
C1304 C1303 1.334 . S
C1304 C1305 1.287 . S
C1305 C1304 1.287 . S
C1305 C1306 1.524 . S
C1305 H1308 0.999 . S
C1306 H1276 0.950 . S
C1306 C1305 1.524 . S
C1306 C1307 1.415 . S
C1307 H1277 0.950 . S
C1307 C1302 1.363 . S
C1307 C1306 1.415 . S
H1308 C1305 0.999 . S
H1309 C1290 0.913 . S
H1310 C1328 0.951 . S
H1311 C1330 0.951 . S
H1312 C1332 0.950 . S
H1313 C1333 0.950 . S
H1314 C1335 0.950 . S
H1315 C1338 0.950 . S
H1316 C1339 0.950 . S
H1317 C1341 0.950 1_556 S
H1318 C1342 0.950 . S
H1319 C1343 0.951 . S
H1320 C1345 0.951 . S
H1321 C1347 0.950 . S
H1322 C1348 0.950 . S
H1323 C1350 0.950 . S
H1324 C1353 0.950 . S
H1325 C1354 0.950 . S
H1326 C1356 0.943 1_554 S
H1327 C1357 0.950 . S
C1328 H1310 0.951 . S
C1328 C1329 1.365 . S
C1328 C1330 1.388 . S
C1329 C1328 1.365 . S
C1329 C1333 1.386 1_556 S
C1330 H1311 0.951 . S
C1330 C1328 1.388 . S
C1330 C1331 1.366 1_556 S
C1331 C1330 1.366 1_554 S
C1331 C1332 1.414 . S
C1331 C1334 1.499 . S
C1332 H1312 0.950 . S
C1332 C1331 1.414 . S
C1332 C1333 1.374 . S
C1333 H1313 0.950 . S
C1333 C1329 1.386 1_554 S
C1333 C1332 1.374 . S
C1334 C1331 1.499 . S
C1334 C1335 1.373 1_554 S
C1334 C1336 1.389 . S
C1335 H1314 0.950 . S
C1335 C1334 1.373 1_556 S
C1335 C1351 1.377 . S
C1336 C1334 1.389 . S
C1336 C1337 1.524 . S
C1336 C1350 1.377 . S
C1337 C1336 1.524 . S
C1337 C1338 1.397 . S
C1337 C1342 1.363 1_554 S
C1338 H1315 0.950 . S
C1338 C1337 1.397 . S
C1338 C1339 1.334 . S
C1339 H1316 0.950 . S
C1339 C1338 1.334 . S
C1339 C1340 1.287 . S
C1340 C1339 1.287 . S
C1340 C1341 1.524 . S
C1340 H1359 0.913 . S
C1341 H1317 0.950 1_554 S
C1341 C1340 1.524 . S
C1341 C1342 1.415 1_554 S
C1342 H1318 0.950 . S
C1342 C1337 1.363 1_556 S
C1342 C1341 1.415 1_556 S
C1343 H1319 0.951 . S
C1343 C1344 1.376 . S
C1343 C1345 1.388 . S
C1344 C1343 1.376 . S
C1344 C1348 1.374 1_554 S
C1345 H1320 0.951 . S
C1345 C1343 1.388 . S
C1345 C1346 1.366 1_554 S
C1346 C1345 1.366 1_556 S
C1346 C1347 1.414 . S
C1346 C1349 1.499 . S
C1347 H1321 0.950 . S
C1347 C1346 1.414 . S
C1347 C1348 1.374 . S
C1348 H1322 0.950 . S
C1348 C1344 1.374 1_556 S
C1348 C1347 1.374 . S
C1349 C1346 1.499 . S
C1349 C1350 1.373 1_556 S
C1349 C1351 1.389 . S
C1350 H1323 0.950 . S
C1350 C1336 1.377 . S
C1350 C1349 1.373 1_554 S
C1351 C1335 1.377 . S
C1351 C1349 1.389 . S
C1351 C1352 1.524 . S
C1352 C1351 1.524 . S
C1352 C1353 1.397 . S
C1352 C1357 1.363 1_556 S
C1353 H1324 0.950 . S
C1353 C1352 1.397 . S
C1353 C1354 1.334 . S
C1354 H1325 0.950 . S
C1354 C1353 1.334 . S
C1354 C1355 1.287 . S
C1355 C1354 1.287 . S
C1355 C1356 1.535 . S
C1355 H1358 0.999 . S
C1356 H1326 0.943 1_556 S
C1356 C1355 1.535 . S
C1356 C1357 1.412 1_556 S
C1357 H1327 0.950 . S
C1357 C1352 1.363 1_554 S
C1357 C1356 1.412 1_554 S
H1358 C1355 0.999 . S
H1359 C1340 0.913 . S
C179 C21 1.494 . S
C194 C119 1.502 . S
C229 C40 1.529 . S
C244 C93 1.511 . S
C294 C102 1.440 . S
C279 C54 1.452 . S
C329 C73 1.562 . S
C344 C110 1.552 . S
C394 C138 1.440 . S
C379 C74 1.452 . S
C444 C146 1.506 . S
C429 C10 1.529 . S
C494 C155 1.502 . S
C479 C37 1.493 . S
C544 C129 1.557 . S
C529 C65 1.562 . S
C579 C52 1.450 . S
C594 C101 1.441 . S
C629 C87 1.559 . S
C644 C111 1.548 . S
C679 C15 1.492 . S
C694 C120 1.502 . S
C744 C92 1.507 . S
C729 C32 1.525 . S
C779 C29 1.492 . S
C794 C156 1.502 . S
C844 C128 1.554 . S
C829 C59 1.558 . S
C894 C137 1.440 . S
C879 C84 1.450 . S
C929 C8 1.525 . S
C944 C147 1.503 . S
C994 C95 1.647 . S
C979 C7 1.661 . S
C1044 C104 1.564 . S
C1029 C30 1.577 . S
C1079 C62 1.679 . S
C1094 C113 1.650 . S
C1129 C81 1.577 . S
C1144 C122 1.581 . S
C1194 C131 1.655 . S
C1179 C76 1.678 . S
C1229 C18 1.576 1_554 S
C1244 C140 1.563 . S
C1279 C43 1.660 . S
C1294 C149 1.641 . S
C1329 C51 1.576 . S
C1344 C158 1.580 . S
