# Generated by pormake.
# Topology eea, (3,6)-cn, num edge types: 1
# Building blocks:
#     Node 0, Type 0, BuildingBlock: BETDIP_clean_linker_0, # of connection points: 3
#     Node 1, Type 0, BuildingBlock: BETDIP_clean_linker_0, # of connection points: 3
#     Node 2, Type 0, BuildingBlock: BETDIP_clean_linker_0, # of connection points: 3
#     Node 3, Type 0, BuildingBlock: BETDIP_clean_linker_0, # of connection points: 3
#     Node 4, Type 0, BuildingBlock: BETDIP_clean_linker_0, # of connection points: 3
#     Node 5, Type 0, BuildingBlock: BETDIP_clean_linker_0, # of connection points: 3
#     Node 6, Type 0, BuildingBlock: BETDIP_clean_linker_0, # of connection points: 3
#     Node 7, Type 0, BuildingBlock: BETDIP_clean_linker_0, # of connection points: 3
#     Node 8, Type 0, BuildingBlock: BETDIP_clean_linker_0, # of connection points: 3
#     Node 9, Type 0, BuildingBlock: BETDIP_clean_linker_0, # of connection points: 3
#     Node 10, Type 0, BuildingBlock: BETDIP_clean_linker_0, # of connection points: 3
#     Node 11, Type 0, BuildingBlock: BETDIP_clean_linker_0, # of connection points: 3
#     Node 12, Type 0, BuildingBlock: BETDIP_clean_linker_0, # of connection points: 3
#     Node 13, Type 0, BuildingBlock: BETDIP_clean_linker_0, # of connection points: 3
#     Node 14, Type 0, BuildingBlock: BETDIP_clean_linker_0, # of connection points: 3
#     Node 15, Type 0, BuildingBlock: BETDIP_clean_linker_0, # of connection points: 3
#     Node 16, Type 0, BuildingBlock: BETDIP_clean_linker_0, # of connection points: 3
#     Node 17, Type 0, BuildingBlock: BETDIP_clean_linker_0, # of connection points: 3
#     Node 18, Type 1, BuildingBlock: KUMBOL_clean_sbu_0, # of connection points: 6
#     Node 19, Type 1, BuildingBlock: KUMBOL_clean_sbu_0, # of connection points: 6
#     Node 20, Type 1, BuildingBlock: KUMBOL_clean_sbu_0, # of connection points: 6
#     Node 21, Type 1, BuildingBlock: KUMBOL_clean_sbu_0, # of connection points: 6
#     Node 22, Type 1, BuildingBlock: KUMBOL_clean_sbu_0, # of connection points: 6
#     Node 23, Type 1, BuildingBlock: KUMBOL_clean_sbu_0, # of connection points: 6
#     Node 24, Type 1, BuildingBlock: KUMBOL_clean_sbu_0, # of connection points: 6
#     Node 25, Type 1, BuildingBlock: KUMBOL_clean_sbu_0, # of connection points: 6
#     Node 26, Type 1, BuildingBlock: KUMBOL_clean_sbu_0, # of connection points: 6
#     Edge 27, Type (0, 1), BuildingBlock: EZIPEK_clean_linker_0, # of connection points: 2
#     Edge 28, Type (0, 1), BuildingBlock: EZIPEK_clean_linker_0, # of connection points: 2
#     Edge 29, Type (0, 1), BuildingBlock: EZIPEK_clean_linker_0, # of connection points: 2
#     Edge 30, Type (0, 1), BuildingBlock: EZIPEK_clean_linker_0, # of connection points: 2
#     Edge 31, Type (0, 1), BuildingBlock: EZIPEK_clean_linker_0, # of connection points: 2
#     Edge 32, Type (0, 1), BuildingBlock: EZIPEK_clean_linker_0, # of connection points: 2
#     Edge 33, Type (0, 1), BuildingBlock: EZIPEK_clean_linker_0, # of connection points: 2
#     Edge 34, Type (0, 1), BuildingBlock: EZIPEK_clean_linker_0, # of connection points: 2
#     Edge 35, Type (0, 1), BuildingBlock: EZIPEK_clean_linker_0, # of connection points: 2
#     Edge 36, Type (0, 1), BuildingBlock: EZIPEK_clean_linker_0, # of connection points: 2
#     Edge 37, Type (0, 1), BuildingBlock: EZIPEK_clean_linker_0, # of connection points: 2
#     Edge 38, Type (0, 1), BuildingBlock: EZIPEK_clean_linker_0, # of connection points: 2
#     Edge 39, Type (0, 1), BuildingBlock: EZIPEK_clean_linker_0, # of connection points: 2
#     Edge 40, Type (0, 1), BuildingBlock: EZIPEK_clean_linker_0, # of connection points: 2
#     Edge 41, Type (0, 1), BuildingBlock: EZIPEK_clean_linker_0, # of connection points: 2
#     Edge 42, Type (0, 1), BuildingBlock: EZIPEK_clean_linker_0, # of connection points: 2
#     Edge 43, Type (0, 1), BuildingBlock: EZIPEK_clean_linker_0, # of connection points: 2
#     Edge 44, Type (0, 1), BuildingBlock: EZIPEK_clean_linker_0, # of connection points: 2
#     Edge 45, Type (0, 1), BuildingBlock: EZIPEK_clean_linker_0, # of connection points: 2
#     Edge 46, Type (0, 1), BuildingBlock: EZIPEK_clean_linker_0, # of connection points: 2
#     Edge 47, Type (0, 1), BuildingBlock: EZIPEK_clean_linker_0, # of connection points: 2
#     Edge 48, Type (0, 1), BuildingBlock: EZIPEK_clean_linker_0, # of connection points: 2
#     Edge 49, Type (0, 1), BuildingBlock: EZIPEK_clean_linker_0, # of connection points: 2
#     Edge 50, Type (0, 1), BuildingBlock: EZIPEK_clean_linker_0, # of connection points: 2
#     Edge 51, Type (0, 1), BuildingBlock: EZIPEK_clean_linker_0, # of connection points: 2
#     Edge 52, Type (0, 1), BuildingBlock: EZIPEK_clean_linker_0, # of connection points: 2
#     Edge 53, Type (0, 1), BuildingBlock: EZIPEK_clean_linker_0, # of connection points: 2
#     Edge 54, Type (0, 1), BuildingBlock: EZIPEK_clean_linker_0, # of connection points: 2
#     Edge 55, Type (0, 1), BuildingBlock: EZIPEK_clean_linker_0, # of connection points: 2
#     Edge 56, Type (0, 1), BuildingBlock: EZIPEK_clean_linker_0, # of connection points: 2
#     Edge 57, Type (0, 1), BuildingBlock: EZIPEK_clean_linker_0, # of connection points: 2
#     Edge 58, Type (0, 1), BuildingBlock: EZIPEK_clean_linker_0, # of connection points: 2
#     Edge 59, Type (0, 1), BuildingBlock: EZIPEK_clean_linker_0, # of connection points: 2
#     Edge 60, Type (0, 1), BuildingBlock: EZIPEK_clean_linker_0, # of connection points: 2
#     Edge 61, Type (0, 1), BuildingBlock: EZIPEK_clean_linker_0, # of connection points: 2
#     Edge 62, Type (0, 1), BuildingBlock: EZIPEK_clean_linker_0, # of connection points: 2
#     Edge 63, Type (0, 1), BuildingBlock: EZIPEK_clean_linker_0, # of connection points: 2
#     Edge 64, Type (0, 1), BuildingBlock: EZIPEK_clean_linker_0, # of connection points: 2
#     Edge 65, Type (0, 1), BuildingBlock: EZIPEK_clean_linker_0, # of connection points: 2
#     Edge 66, Type (0, 1), BuildingBlock: EZIPEK_clean_linker_0, # of connection points: 2
#     Edge 67, Type (0, 1), BuildingBlock: EZIPEK_clean_linker_0, # of connection points: 2
#     Edge 68, Type (0, 1), BuildingBlock: EZIPEK_clean_linker_0, # of connection points: 2
#     Edge 69, Type (0, 1), BuildingBlock: EZIPEK_clean_linker_0, # of connection points: 2
#     Edge 70, Type (0, 1), BuildingBlock: EZIPEK_clean_linker_0, # of connection points: 2
#     Edge 71, Type (0, 1), BuildingBlock: EZIPEK_clean_linker_0, # of connection points: 2
#     Edge 72, Type (0, 1), BuildingBlock: EZIPEK_clean_linker_0, # of connection points: 2
#     Edge 73, Type (0, 1), BuildingBlock: EZIPEK_clean_linker_0, # of connection points: 2
#     Edge 74, Type (0, 1), BuildingBlock: EZIPEK_clean_linker_0, # of connection points: 2
#     Edge 75, Type (0, 1), BuildingBlock: EZIPEK_clean_linker_0, # of connection points: 2
#     Edge 76, Type (0, 1), BuildingBlock: EZIPEK_clean_linker_0, # of connection points: 2
#     Edge 77, Type (0, 1), BuildingBlock: EZIPEK_clean_linker_0, # of connection points: 2
#     Edge 78, Type (0, 1), BuildingBlock: EZIPEK_clean_linker_0, # of connection points: 2
#     Edge 79, Type (0, 1), BuildingBlock: EZIPEK_clean_linker_0, # of connection points: 2
#     Edge 80, Type (0, 1), BuildingBlock: EZIPEK_clean_linker_0, # of connection points: 2
# Relax obj value: 0.026
# Max RMSD: 0.186
# Mean RMSD: 0.131
data_MOF--net-eea--node1-KUMBOL_clean_sbu_0--node2-BETDIP_clean_linker_0--edge1-EZIPEK_clean_linker_0
_symmetry_space_group_name_H-M    P1
_symmetry_Int_Tables_number       1
_symmetry_cell_setting            triclinic
loop_
_symmetry_equiv_pos_as_xyz
'x, y, z'
_cell_length_a     39.329793
_cell_length_b     40.512216
_cell_length_c     52.23859
_cell_angle_alpha  89.746087
_cell_angle_beta   89.98479
_cell_angle_gamma 119.92963
loop_
_atom_site_label
_atom_site_type_symbol
_atom_site_fract_x
_atom_site_fract_y
_atom_site_fract_z
_atom_type_partial_charge
H0 H 0.21915 0.10058 0.374 0.0
H1 H 0.28045 0.17596 0.43628 0.0
H2 H 0.26526 0.06319 0.43535 0.0
H3 H 0.17807 0.13152 0.38686 0.0
C4 C 0.20153 0.16099 0.38777 0.0
C5 C 0.23419 0.10583 0.39218 0.0
C6 C 0.24131 0.07799 0.40299 0.0
C7 C 0.24773 0.14094 0.40454 0.0
C8 C 0.26933 0.14849 0.42717 0.0
C9 C 0.275 0.12031 0.43878 0.0
C10 C 0.26039 0.08489 0.42674 0.0
N11 N 0.23981 0.16914 0.39483 0.0
H12 H 0.93325 0.15098 0.36492 0.0
H13 H 0.85151 0.11277 0.42787 0.0
H14 H 0.95645 0.22178 0.43143 0.0
H15 H 0.84975 0.05662 0.41832 0.0
C16 C 0.84644 0.05649 0.39767 0.0
C17 C 0.92461 0.15576 0.38362 0.0
C18 C 0.94864 0.19013 0.39659 0.0
C19 C 0.89042 0.1269 0.39535 0.0
C20 C 0.87887 0.13392 0.41921 0.0
C21 C 0.90244 0.16791 0.43235 0.0
C22 C 0.93777 0.19566 0.42118 0.0
N23 N 0.8682 0.09083 0.3833 0.0
H24 H 0.88991 0.82422 0.36737 0.0
H25 H 0.93342 0.79849 0.43505 0.0
H26 H 0.82133 0.7923 0.43595 0.0
H27 H 0.99264 0.84165 0.41842 0.0
C28 C 0.98789 0.83077 0.399 0.0
C29 C 0.88703 0.81721 0.38758 0.0
C30 C 0.85256 0.80935 0.40078 0.0
C31 C 0.91732 0.815 0.40039 0.0
C32 C 0.9125 0.80496 0.4266 0.0
C33 C 0.88018 0.80092 0.44111 0.0
C34 C 0.84925 0.80063 0.42705 0.0
N35 N 0.95175 0.82158 0.38664 0.0
H36 H 0.08818 0.21039 0.66553 0.0
H37 H 0.16242 0.24403 0.59841 0.0
H38 H 0.05336 0.24396 0.5965 0.0
H39 H 0.17693 0.19971 0.61514 0.0
C40 C 0.18158 0.20834 0.63508 0.0
C41 C 0.094 0.2202 0.64584 0.0
C42 C 0.06663 0.22657 0.63246 0.0
C43 C 0.12831 0.22541 0.6336 0.0
C44 C 0.13569 0.23859 0.60799 0.0
C45 C 0.1087 0.24522 0.59457 0.0
C46 C 0.07434 0.23909 0.6069 0.0
N47 N 0.15496 0.21752 0.64734 0.0
H48 H 0.79083 0.86809 0.65587 0.0
H49 H 0.738 0.89523 0.59311 0.0
H50 H 0.73013 0.7858 0.59659 0.0
H51 H 0.7794 0.95442 0.60358 0.0
C52 C 0.78151 0.95446 0.62429 0.0
C53 C 0.77424 0.86011 0.6382 0.0
C54 C 0.76182 0.82404 0.62755 0.0
C55 C 0.76648 0.88637 0.62583 0.0
C56 C 0.74525 0.87589 0.60277 0.0
C57 C 0.73183 0.83967 0.59217 0.0
C58 C 0.74007 0.81371 0.60474 0.0
N59 N 0.77985 0.92269 0.63721 0.0
H60 H 0.12962 0.92061 0.66045 0.0
H61 H 0.09815 0.846 0.59524 0.0
H62 H 0.21238 0.94539 0.59932 0.0
H63 H 0.06086 0.80153 0.62516 0.0
C64 C 0.0484 0.81595 0.63582 0.0
C65 C 0.13713 0.91305 0.64228 0.0
C66 C 0.1742 0.93696 0.63125 0.0
C67 C 0.10978 0.87932 0.62997 0.0
C68 C 0.11935 0.87069 0.60577 0.0
C69 C 0.15648 0.89426 0.59478 0.0
C70 C 0.18381 0.92696 0.60782 0.0
N71 N 0.07281 0.85513 0.64201 0.0
H72 H 0.86946 0.4083 0.70794 0.0
H73 H 0.91926 0.48161 0.77322 0.0
H74 H 0.92887 0.38101 0.76617 0.0
H75 H 0.92239 0.52625 0.74543 0.0
C76 C 0.89607 0.51138 0.73391 0.0
C77 C 0.88525 0.41499 0.72591 0.0
C78 C 0.89772 0.39052 0.73574 0.0
C79 C 0.89336 0.44825 0.73896 0.0
C80 C 0.91361 0.45666 0.76242 0.0
C81 C 0.92685 0.43264 0.77214 0.0
C82 C 0.91875 0.39964 0.75872 0.0
N83 N 0.8805 0.47229 0.72795 0.0
H84 H 0.61735 0.45518 0.71686 0.0
H85 H 0.52987 0.43018 0.77488 0.0
H86 H 0.62635 0.544 0.76639 0.0
H87 H 0.5127 0.37039 0.76784 0.0
C88 C 0.5183 0.36868 0.7477 0.0
C89 C 0.60595 0.46448 0.73243 0.0
C90 C 0.62623 0.50291 0.74008 0.0
C91 C 0.57094 0.43793 0.74455 0.0
C92 C 0.55683 0.44989 0.76521 0.0
C93 C 0.57684 0.48795 0.77331 0.0
C94 C 0.611 0.51453 0.76029 0.0
N95 N 0.54978 0.4001 0.73476 0.0
H96 H 0.54761 0.13362 0.70282 0.0
H97 H 0.58085 0.08632 0.76568 0.0
H98 H 0.47376 0.09003 0.76955 0.0
H99 H 0.64324 0.13526 0.75297 0.0
C100 C 0.64025 0.12891 0.73263 0.0
C101 C 0.5421 0.12097 0.72177 0.0
C102 C 0.50729 0.11254 0.73487 0.0
C103 C 0.56983 0.11314 0.73319 0.0
C104 C 0.56116 0.09478 0.75731 0.0
C105 C 0.52661 0.08641 0.77059 0.0
C106 C 0.50052 0.09647 0.75947 0.0
N107 N 0.6054 0.12259 0.71987 0.0
H108 H 0.74534 0.52871 0.99437 0.0
H109 H 0.82196 0.56625 0.92858 0.0
H110 H 0.72349 0.58457 0.93135 0.0
H111 H 0.82498 0.51018 0.94204 0.0
C112 C 0.83409 0.52165 0.96117 0.0
C113 C 0.75315 0.54202 0.97562 0.0
C114 C 0.72954 0.55499 0.96399 0.0
C115 C 0.78627 0.54537 0.96282 0.0
C116 C 0.79608 0.56267 0.93842 0.0
C117 C 0.77414 0.57763 0.92714 0.0
C118 C 0.74081 0.57346 0.94003 0.0
N119 N 0.8106 0.53316 0.97513 0.0
H120 H 0.45154 0.20208 0.9984 0.0
H121 H 0.39355 0.22336 0.93596 0.0
H122 H 0.40139 0.12153 0.93676 0.0
H123 H 0.43902 0.28333 0.94279 0.0
C124 C 0.44069 0.2855 0.9635 0.0
C125 C 0.43538 0.19331 0.98058 0.0
C126 C 0.42643 0.15827 0.96952 0.0
C127 C 0.42502 0.21776 0.96815 0.0
C128 C 0.40346 0.20579 0.94531 0.0
C129 C 0.39534 0.17151 0.9337 0.0
C130 C 0.40703 0.14781 0.94582 0.0
N131 N 0.43755 0.25457 0.97844 0.0
H132 H 0.7957 0.25151 0.99175 0.0
H133 H 0.76685 0.17786 0.92634 0.0
H134 H 0.8766 0.28292 0.9287 0.0
H135 H 0.70472 0.15809 0.9397 0.0
C136 C 0.70696 0.15724 0.96038 0.0
C137 C 0.80312 0.24541 0.97304 0.0
C138 C 0.83897 0.2714 0.96152 0.0
C139 C 0.77638 0.212 0.9604 0.0
C140 C 0.78641 0.20403 0.93616 0.0
C141 C 0.82275 0.22936 0.92477 0.0
C142 C 0.84869 0.26313 0.93747 0.0
N143 N 0.74035 0.18667 0.97291 0.0
H144 H 0.55486 0.74916 0.03632 0.0
H145 H 0.61686 0.83516 0.0931 0.0
H146 H 0.60245 0.72334 0.1026 0.0
H147 H 0.62943 0.87368 0.05395 0.0
C148 C 0.59834 0.85973 0.0495 0.0
C149 C 0.57065 0.75786 0.05428 0.0
C150 C 0.57773 0.73223 0.06818 0.0
C151 C 0.58474 0.79498 0.06304 0.0
C152 C 0.606 0.80652 0.08605 0.0
C153 C 0.61195 0.78063 0.10067 0.0
C154 C 0.59745 0.74335 0.09168 0.0
N155 N 0.57531 0.81945 0.04911 0.0
H156 H 0.27418 0.80108 0.03837 0.0
H157 H 0.1945 0.76727 0.10248 0.0
H158 H 0.29703 0.87785 0.10121 0.0
H159 H 0.15126 0.7282 0.07523 0.0
C160 C 0.16679 0.7191 0.06252 0.0
C161 C 0.26576 0.80736 0.05668 0.0
C162 C 0.2906 0.84221 0.06883 0.0
C163 C 0.23066 0.78015 0.06837 0.0
C164 C 0.22053 0.78817 0.09249 0.0
C165 C 0.24346 0.82387 0.10389 0.0
C166 C 0.27868 0.85058 0.09211 0.0
N167 N 0.20648 0.74499 0.05565 0.0
H168 H 0.21763 0.48004 0.03567 0.0
H169 H 0.25143 0.43614 0.10038 0.0
H170 H 0.14232 0.43569 0.10177 0.0
H171 H 0.28524 0.42555 0.07014 0.0
C172 C 0.29863 0.4522 0.05951 0.0
C173 C 0.21203 0.46785 0.05476 0.0
C174 C 0.17675 0.45904 0.06744 0.0
C175 C 0.23951 0.45983 0.06643 0.0
C176 C 0.23097 0.44262 0.09094 0.0
C177 C 0.19592 0.43364 0.10371 0.0
C178 C 0.16958 0.44287 0.09208 0.0
N179 N 0.27524 0.46908 0.05332 0.0
H180 H 0.41788 0.87639 0.32318 0.0
H181 H 0.49834 0.92112 0.25938 0.0
H182 H 0.39337 0.92892 0.25937 0.0
H183 H 0.50735 0.86908 0.27185 0.0
C184 C 0.51219 0.87644 0.29202 0.0
C185 C 0.42572 0.88991 0.3045 0.0
C186 C 0.4011 0.9014 0.29253 0.0
C187 C 0.46042 0.89581 0.29239 0.0
C188 C 0.47094 0.91471 0.26844 0.0
C189 C 0.44698 0.9269 0.25647 0.0
C190 C 0.41184 0.91946 0.26846 0.0
N191 N 0.48528 0.8845 0.30514 0.0
H192 H 0.13184 0.55073 0.32298 0.0
H193 H 0.09089 0.58747 0.25923 0.0
H194 H 0.08333 0.47784 0.25849 0.0
H195 H 0.14195 0.64608 0.27199 0.0
C196 C 0.13521 0.64311 0.29232 0.0
C197 C 0.11936 0.54576 0.30393 0.0
C198 C 0.10889 0.51153 0.29136 0.0
C199 C 0.11387 0.57364 0.29195 0.0
C200 C 0.09831 0.56721 0.26708 0.0
C201 C 0.09138 0.53482 0.25281 0.0
C202 C 0.09355 0.50566 0.26646 0.0
N203 N 0.12447 0.60814 0.3051 0.0
H204 H 0.46657 0.59016 0.32584 0.0
H205 H 0.43563 0.51086 0.2634 0.0
H206 H 0.54437 0.61667 0.26147 0.0
H207 H 0.37562 0.48662 0.27818 0.0
C208 C 0.37668 0.49219 0.29853 0.0
C209 C 0.47321 0.58244 0.30743 0.0
C210 C 0.50845 0.6077 0.2948 0.0
C211 C 0.44612 0.54762 0.29622 0.0
C212 C 0.45523 0.53785 0.27226 0.0
C213 C 0.49079 0.56254 0.25978 0.0
C214 C 0.51707 0.59741 0.27113 0.0
N215 N 0.41066 0.52303 0.30973 0.0
Gd216 Gd 0.51684 0.02188 0.05116 0.0
Gd217 Gd 0.48426 0.98312 0.9861 0.0
C218 C 0.37133 0.86814 0.97929 0.0
C219 C 0.39575 0.82655 0.96549 0.0
C220 C 0.44093 0.89393 0.97249 0.0
C221 C 0.41014 0.89902 0.97963 0.0
C222 C 0.43402 0.85792 0.96448 0.0
C223 C 0.36442 0.83166 0.97292 0.0
C224 C 0.34063 0.87514 0.9846 0.0
C225 C 0.349 0.91242 0.98899 0.0
N226 N 0.41797 0.93465 0.98556 0.0
C227 C 0.38803 0.94202 0.98912 0.0
H228 H 0.39417 0.97065 0.99238 0.0
C229 C 0.50725 0.92285 0.95966 0.0
N230 N 0.47736 0.92495 0.97153 0.0
C231 C 0.5021 0.88771 0.95176 0.0
C232 C 0.46548 0.85491 0.95467 0.0
H233 H 0.53528 0.94828 0.95677 0.0
H234 H 0.33488 0.80748 0.97288 0.0
H235 H 0.51525 0.96101 0.09535 0.0
H236 H 0.3104 0.85222 0.98461 0.0
H237 H 0.32545 0.91837 0.99243 0.0
H238 H 0.38988 0.79853 0.95974 0.0
H239 H 0.56563 0.11508 0.03814 0.0
H240 H 0.63324 0.99458 0.11645 0.0
H241 H 0.56189 0.94938 0.11996 0.0
H242 H 0.70746 0.11742 0.07672 0.0
H243 H 0.52625 0.886 0.94321 0.0
H244 H 0.46142 0.82777 0.9483 0.0
H245 H 0.68771 0.05734 0.09981 0.0
H246 H 0.63384 0.16832 0.03615 0.0
N247 N 0.55982 0.0102 0.07631 0.0
C248 C 0.61289 0.99942 0.10532 0.0
C249 C 0.57267 0.97387 0.10735 0.0
C250 C 0.62614 0.03211 0.0901 0.0
C251 C 0.59837 0.03702 0.07604 0.0
C252 C 0.54634 0.98033 0.09321 0.0
N253 N 0.58085 0.07511 0.05196 0.0
C254 C 0.60929 0.07065 0.06332 0.0
C255 C 0.62755 0.14077 0.04339 0.0
C256 C 0.65771 0.13567 0.05306 0.0
C257 C 0.58898 0.11025 0.04369 0.0
C258 C 0.64858 0.1006 0.06398 0.0
H259 H 0.68752 0.15939 0.05307 0.0
O260 O 0.51837 0.06461 0.07711 0.0
O261 O 0.46526 0.98352 0.02626 0.0
O262 O 0.46249 0.02435 0.99461 0.0
O263 O 0.49799 0.05995 0.03007 0.0
O264 O 0.47034 0.96274 0.06144 0.0
O265 O 0.47926 0.00539 0.08507 0.0
O266 O 0.51484 0.00849 0.95037 0.0
O267 O 0.52996 0.03168 0.00934 0.0
O268 O 0.54125 0.98306 0.04205 0.0
O269 O 0.50529 0.94676 1.00671 0.0
O270 O 0.54902 0.00992 0.98047 0.0
O271 O 0.45398 0.99143 0.95377 0.0
C272 C 0.4496 0.95462 0.04105 0.0
C273 C 0.67702 0.09498 0.07635 0.0
C274 C 0.66579 0.06077 0.08945 0.0
C275 C 0.49678 0.03952 0.09438 0.0
C276 C 0.51387 0.0434 0.1204 0.0
C277 C 0.55349 0.07056 0.12477 0.0
C278 C 0.49191 0.018 0.1405 0.0
C279 C 0.50966 0.0197 0.16439 0.0
C280 C 0.57089 0.0723 0.14836 0.0
C281 C 0.54925 0.04708 0.16799 0.0
C282 C 0.47485 0.05409 0.00997 0.0
C283 C 0.56038 0.03509 0.99822 0.0
C284 C 0.48424 0.00503 0.93861 0.0
C285 C 0.4781 0.98932 0.9125 0.0
C286 C 0.46458 0.95045 0.90883 0.0
C287 C 0.48835 0.01368 0.89101 0.0
C288 C 0.48668 0.99945 0.86611 0.0
C289 C 0.46309 0.93629 0.88433 0.0
C290 C 0.47458 0.96064 0.86316 0.0
C291 C 0.52978 0.95402 0.02616 0.0
H292 H 0.57142 0.09016 0.10983 0.0
H293 H 0.46146 0.99667 0.13748 0.0
H294 H 0.60145 0.09317 0.15137 0.0
H295 H 0.56344 0.0489 0.18612 0.0
H296 H 0.45555 0.93107 0.92488 0.0
H297 H 0.49821 0.04365 0.89364 0.0
H298 H 0.45314 0.90634 0.88175 0.0
H299 H 0.47337 0.94904 0.84431 0.0
Gd300 Gd 0.98412 0.48876 0.04431 0.0
Gd301 Gd 0.03154 0.49844 0.98153 0.0
C302 C 0.15062 0.50457 0.9762 0.0
C303 C 0.19349 0.56994 0.96239 0.0
C304 C 0.12359 0.54568 0.96804 0.0
C305 C 0.11859 0.5111 0.97609 0.0
C306 C 0.16096 0.57535 0.96063 0.0
C307 C 0.18831 0.53453 0.9701 0.0
C308 C 0.14343 0.46765 0.98108 0.0
C309 C 0.10486 0.43817 0.98438 0.0
N310 N 0.08175 0.48282 0.98165 0.0
C311 C 0.07422 0.44633 0.98437 0.0
H312 H 0.04464 0.42355 0.98676 0.0
C313 C 0.09417 0.58183 0.95571 0.0
N314 N 0.09143 0.54967 0.9664 0.0
C315 C 0.13064 0.61221 0.94829 0.0
C316 C 0.16429 0.60916 0.95107 0.0
H317 H 0.0684 0.58462 0.9537 0.0
H318 H 0.21338 0.53023 0.97044 0.0
H319 H 0.96724 0.56113 0.03725 0.0
H320 H 0.16715 0.46134 0.98124 0.0
H321 H 0.09868 0.4092 0.98711 0.0
H322 H 0.22253 0.59252 0.95704 0.0
H323 H 0.95092 0.40353 0.07337 0.0
H324 H 0.84416 0.5195 0.04487 0.0
H325 H 0.91137 0.57284 0.0369 0.0
H326 H 0.79442 0.39041 0.07236 0.0
H327 H 0.13278 0.63796 0.94046 0.0
H328 H 0.19248 0.63268 0.94521 0.0
H329 H 0.80058 0.45104 0.0578 0.0
H330 H 0.88813 0.34968 0.0881 0.0
N331 N 0.93224 0.50199 0.04421 0.0
C332 C 0.86866 0.51431 0.04496 0.0
C333 C 0.90651 0.54447 0.04047 0.0
C334 C 0.8632 0.47827 0.05085 0.0
C335 C 0.89616 0.47317 0.05079 0.0
C336 C 0.93814 0.53778 0.04045 0.0
N337 N 0.92574 0.43659 0.06047 0.0
C338 C 0.89282 0.43943 0.05938 0.0
C339 C 0.88899 0.37467 0.07991 0.0
C340 C 0.85456 0.37642 0.07766 0.0
C341 C 0.9246 0.40537 0.07155 0.0
C342 C 0.85625 0.40931 0.06768 0.0
H343 H 0.82703 0.35264 0.08422 0.0
O344 O 0.00753 0.4858 0.08127 0.0
O345 O 0.03403 0.48957 0.02343 0.0
O346 O 0.9855 0.43622 0.99024 0.0
O347 O 0.94475 0.43483 0.02324 0.0
O348 O 0.01092 0.45226 0.05355 0.0
O349 O 0.99387 0.53054 0.07356 0.0
O350 O 0.01611 0.50587 0.94284 0.0
O351 O 0.98214 0.49843 1.00234 0.0
O352 O 0.02867 0.55105 0.03512 0.0
O353 O 0.07065 0.55199 1.0032 0.0
O354 O 1.00487 0.53497 0.97189 0.0
O355 O 0.01407 0.45317 0.95388 0.0
C356 C 0.03759 0.46458 0.03609 0.0
C357 C 0.82284 0.41335 0.06631 0.0
C358 C 0.82632 0.44782 0.05794 0.0
C359 C 1.00526 0.51439 0.09051 0.0
C360 C 0.98887 0.50892 0.11641 0.0
C361 C 0.94897 0.49615 0.12076 0.0
C362 C 0.01383 0.51545 0.13721 0.0
C363 C 0.99932 0.50946 0.16231 0.0
C364 C 0.93442 0.4902 0.14583 0.0
C365 C 0.95948 0.49683 0.1666 0.0
C366 C 0.95227 0.41882 1.00375 0.0
C367 C 0.97841 0.52318 0.98947 0.0
C368 C 0.01052 0.47291 0.93535 0.0
C369 C 0.02753 0.47208 0.91055 0.0
C370 C 0.06478 0.47556 0.90874 0.0
C371 C 1.00535 0.46654 0.88835 0.0
C372 C 0.01966 0.46333 0.86443 0.0
C373 C 0.07933 0.4728 0.88492 0.0
C374 C 0.0568 0.46642 0.86285 0.0
C375 C 0.06219 0.56847 0.02195 0.0
H376 H 0.92918 0.49069 0.1049 0.0
H377 H 0.04464 0.52509 0.13391 0.0
H378 H 0.90365 0.48035 0.14916 0.0
H379 H 0.94791 0.49212 0.18592 0.0
H380 H 0.08236 0.48 0.92568 0.0
H381 H 0.97659 0.46395 0.8897 0.0
H382 H 0.10797 0.47528 0.88358 0.0
H383 H 0.06826 0.4639 0.84455 0.0
Gd384 Gd 0.50239 0.52094 0.98147 0.0
Gd385 Gd 0.52977 0.5014 0.04585 0.0
C386 C 0.64656 0.50231 0.0507 0.0
C387 C 0.62514 0.43566 0.0589 0.0
C388 C 0.57755 0.45712 0.0558 0.0
C389 C 0.60705 0.4935 0.05066 0.0
C390 C 0.5862 0.42791 0.06093 0.0
C391 C 0.65536 0.47291 0.0538 0.0
C392 C 0.67594 0.54056 0.04904 0.0
C393 C 0.66543 0.56879 0.04907 0.0
N394 N 0.59723 0.52096 0.04816 0.0
C395 C 0.62571 0.55834 0.04911 0.0
H396 H 0.61795 0.58016 0.05003 0.0
C397 C 0.51169 0.4178 0.06838 0.0
N398 N 0.5407 0.45125 0.05823 0.0
C399 C 0.51849 0.38763 0.07338 0.0
C400 C 0.55578 0.39244 0.06913 0.0
H401 H 0.48299 0.41416 0.07201 0.0
H402 H 0.68548 0.47896 0.05342 0.0
H403 H 0.40925 0.45196 0.9756 0.0
H404 H 0.70667 0.54864 0.04901 0.0
H405 H 0.68786 0.59856 0.04905 0.0
H406 H 0.63238 0.4135 0.06238 0.0
H407 H 0.56616 0.61099 0.96248 0.0
H408 H 0.33643 0.50247 0.9696 0.0
H409 H 0.34331 0.44508 0.97211 0.0
H410 H 0.42994 0.63518 0.95925 0.0
H411 H 0.49505 0.36079 0.08063 0.0
H412 H 0.56113 0.3692 0.07327 0.0
H413 H 0.36916 0.57373 0.96515 0.0
H414 H 0.56571 0.67034 0.95281 0.0
N415 N 0.43891 0.51225 0.9768 0.0
C416 C 0.36533 0.50557 0.97142 0.0
C417 C 0.36909 0.47313 0.97282 0.0
C418 C 0.39909 0.54155 0.9708 0.0
C419 C 0.43596 0.5439 0.97312 0.0
C420 C 0.40639 0.47707 0.97513 0.0
N421 N 0.50473 0.57868 0.96997 0.0
C422 C 0.46998 0.57826 0.96936 0.0
C423 C 0.53859 0.64468 0.95758 0.0
C424 C 0.50335 0.64515 0.95837 0.0
C425 C 0.53871 0.61089 0.963 0.0
C426 C 0.46834 0.61152 0.96383 0.0
H427 H 0.50335 0.67134 0.95406 0.0
O428 O 0.53457 0.52845 0.94617 0.0
O429 O 0.54732 0.51523 1.00469 0.0
O430 O 0.54997 0.56454 0.04017 0.0
O431 O 0.5139 0.57008 1.00668 0.0
O432 O 0.56771 0.55357 0.97512 0.0
O433 O 0.47309 0.48602 0.94815 0.0
O434 O 0.50334 0.48546 0.08378 0.0
O435 O 0.48418 0.50437 0.02218 0.0
O436 O 0.47625 0.45707 0.98782 0.0
O437 O 0.50891 0.44807 0.02255 0.0
O438 O 0.46403 0.46516 0.05144 0.0
O439 O 0.54805 0.5436 0.07591 0.0
C440 C 0.57872 0.53937 0.99319 0.0
C441 C 0.43181 0.60985 0.9632 0.0
C442 C 0.39721 0.57489 0.96664 0.0
C443 C 0.50396 0.50379 0.93353 0.0
C444 C 0.49879 0.51686 0.90828 0.0
C445 C 0.48243 0.54058 0.90602 0.0
C446 C 0.51368 0.50836 0.8864 0.0
C447 C 0.5135 0.52451 0.86251 0.0
C448 C 0.482 0.55653 0.88236 0.0
C449 C 0.4979 0.54899 0.86075 0.0
C450 C 0.53587 0.58345 0.02727 0.0
C451 C 0.45303 0.47881 0.03297 0.0
C452 C 0.52544 0.51926 0.0932 0.0
C453 C 0.54353 0.5213 0.11818 0.0
C454 C 0.57833 0.51982 0.11995 0.0
C455 C 0.52655 0.52626 0.14045 0.0
C456 C 0.54489 0.53094 0.16435 0.0
C457 C 0.5964 0.52403 0.14367 0.0
C458 C 0.58002 0.52988 0.16573 0.0
C459 C 0.48672 0.43609 1.00181 0.0
H460 H 0.47057 0.54725 0.92256 0.0
H461 H 0.52637 0.49004 0.88805 0.0
H462 H 0.46974 0.57516 0.88082 0.0
H463 H 0.49782 0.56201 0.84261 0.0
H464 H 0.59169 0.51583 0.10301 0.0
H465 H 0.49958 0.5273 0.13916 0.0
H466 H 0.62339 0.52311 0.14493 0.0
H467 H 0.5947 0.53354 0.18391 0.0
Gd468 Gd 0.17448 0.3689 0.3823 0.0
Gd469 Gd 0.14908 0.32339 0.31808 0.0
C470 C 0.04162 0.20687 0.30314 0.0
C471 C 0.071 0.16856 0.29164 0.0
C472 C 0.11232 0.23559 0.30203 0.0
C473 C 0.07942 0.23861 0.3066 0.0
C474 C 0.10851 0.20073 0.29394 0.0
C475 C 0.03759 0.1716 0.29631 0.0
C476 C 0.0091 0.21196 0.30553 0.0
C477 C 0.01496 0.24844 0.30966 0.0
N478 N 0.08439 0.27324 0.31269 0.0
C479 C 0.05312 0.27903 0.31259 0.0
H480 H 0.05765 0.30736 0.31469 0.0
C481 C 0.18134 0.2663 0.29795 0.0
N482 N 0.14813 0.26719 0.30468 0.0
C483 C 0.17902 0.23237 0.28991 0.0
C484 C 0.14248 0.19937 0.28805 0.0
H485 H 0.20983 0.29149 0.29914 0.0
H486 H 0.0088 0.14682 0.29381 0.0
H487 H 0.25256 0.35516 0.38375 0.0
H488 H 0.97956 0.18833 0.30307 0.0
H489 H 0.99017 0.25311 0.31036 0.0
H490 H 0.06749 0.14142 0.28575 0.0
H491 H 0.14331 0.42994 0.39795 0.0
H492 H 0.35681 0.46206 0.39314 0.0
H493 H 0.32367 0.39204 0.38909 0.0
H494 H 0.30986 0.55025 0.39969 0.0
H495 H 0.20544 0.23172 0.28507 0.0
H496 H 0.14079 0.17314 0.28177 0.0
H497 H 0.35145 0.52099 0.39622 0.0
H498 H 0.1707 0.49883 0.4047 0.0
N499 N 0.24375 0.40268 0.38637 0.0
C500 C 0.32515 0.44572 0.3915 0.0
C501 C 0.30655 0.40624 0.38937 0.0
C502 C 0.30259 0.46358 0.39185 0.0
C503 C 0.26141 0.44094 0.38961 0.0
C504 C 0.26574 0.38514 0.3868 0.0
N505 N 0.19873 0.43439 0.39072 0.0
C506 C 0.23816 0.45738 0.39153 0.0
C507 C 0.19006 0.48768 0.40074 0.0
C508 C 0.23056 0.51204 0.39979 0.0
C509 C 0.17466 0.44869 0.39677 0.0
C510 C 0.25522 0.49691 0.39577 0.0
H511 H 0.24251 0.54223 0.40309 0.0
O512 O 0.1503 0.37432 0.41839 0.0
O513 O 0.12919 0.32155 0.35864 0.0
O514 O 0.12473 0.36357 0.32263 0.0
O515 O 0.15912 0.4044 0.35642 0.0
O516 O 0.10941 0.3474 0.38354 0.0
O517 O 0.18031 0.34221 0.41728 0.0
O518 O 0.18378 0.34926 0.28381 0.0
O519 O 0.19395 0.37145 0.34184 0.0
O520 O 0.18361 0.31711 0.38107 0.0
O521 O 0.15865 0.28337 0.3431 0.0
O522 O 0.21421 0.34887 0.31462 0.0
O523 O 0.12245 0.33253 0.28405 0.0
C524 C 0.09832 0.32008 0.36735 0.0
C525 C 0.29622 0.51981 0.39675 0.0
C526 C 0.31988 0.50315 0.39483 0.0
C527 C 0.15986 0.35261 0.43121 0.0
C528 C 0.12917 0.32357 0.44828 0.0
C529 C 0.08939 0.30554 0.44128 0.0
C530 C 0.13919 0.31528 0.47249 0.0
C531 C 0.10962 0.28926 0.48925 0.0
C532 C 0.06038 0.27887 0.45743 0.0
C533 C 0.07036 0.27076 0.48128 0.0
C534 C 0.13739 0.39569 0.33552 0.0
C535 C 0.22502 0.37455 0.33198 0.0
C536 C 0.1545 0.34633 0.27048 0.0
C537 C 0.15136 0.33218 0.24414 0.0
C538 C 0.14378 0.29499 0.23977 0.0
C539 C 0.15878 0.35688 0.22315 0.0
C540 C 0.16003 0.34483 0.19802 0.0
C541 C 0.14473 0.28286 0.21497 0.0
C542 C 0.15323 0.30767 0.19426 0.0
C543 C 0.17362 0.2869 0.36633 0.0
H544 H 0.08038 0.31213 0.42342 0.0
H545 H 0.16957 0.32964 0.47855 0.0
H546 H 0.02994 0.26492 0.4516 0.0
H547 H 0.04731 0.25057 0.4938 0.0
H548 H 0.13768 0.27547 0.25549 0.0
H549 H 0.1644 0.3856 0.22636 0.0
H550 H 0.1392 0.25421 0.21181 0.0
H551 H 0.15418 0.29777 0.17518 0.0
Gd552 Gd 0.65071 0.82188 0.37804 0.0
Gd553 Gd 0.70131 0.84273 0.31553 0.0
C554 C 0.8235 0.85562 0.31085 0.0
C555 C 0.86464 0.92288 0.30084 0.0
C556 C 0.79398 0.89511 0.30503 0.0
C557 C 0.79027 0.86029 0.31102 0.0
C558 C 0.83109 0.92665 0.29926 0.0
C559 C 0.86085 0.88737 0.3066 0.0
C560 C 0.81794 0.81889 0.31358 0.0
C561 C 0.77986 0.7879 0.31503 0.0
N562 N 0.75374 0.83026 0.31482 0.0
C563 C 0.74796 0.79419 0.31542 0.0
H564 H 0.71876 0.77031 0.31643 0.0
C565 C 0.76256 0.93003 0.29424 0.0
N566 N 0.76086 0.89756 0.30354 0.0
C567 C 0.79872 0.9622 0.28856 0.0
C568 C 0.83321 0.9607 0.29145 0.0
H569 H 0.73614 0.9316 0.29193 0.0
H570 H 0.88678 0.88446 0.30678 0.0
H571 H 0.62828 0.89108 0.37703 0.0
H572 H 0.84263 0.81401 0.31346 0.0
H573 H 0.77504 0.75919 0.31612 0.0
H574 H 0.89347 0.9469 0.29683 0.0
H575 H 0.61993 0.73319 0.40109 0.0
H576 H 0.50349 0.84131 0.37912 0.0
H577 H 0.56958 0.89843 0.37687 0.0
H578 H 0.45922 0.70944 0.39509 0.0
H579 H 0.79995 0.98812 0.28193 0.0
H580 H 0.86116 0.98563 0.28695 0.0
H581 H 0.46243 0.77046 0.38547 0.0
H582 H 0.55759 0.67464 0.41049 0.0
N583 N 0.5961 0.83101 0.37847 0.0
C584 C 0.52923 0.83808 0.37918 0.0
C585 C 0.56645 0.87036 0.37796 0.0
C586 C 0.5258 0.80217 0.38187 0.0
C587 C 0.5603 0.79964 0.38192 0.0
C588 C 0.59971 0.86623 0.37794 0.0
N589 N 0.59268 0.76492 0.38931 0.0
C590 C 0.55849 0.76549 0.38768 0.0
C591 C 0.55742 0.69992 0.40389 0.0
C592 C 0.52192 0.69944 0.40073 0.0
C593 C 0.59275 0.73324 0.39855 0.0
C594 C 0.52216 0.73268 0.39304 0.0
H595 H 0.49462 0.67362 0.405 0.0
O596 O 0.67233 0.81422 0.41449 0.0
O597 O 0.70306 0.82868 0.35674 0.0
O598 O 0.65619 0.77883 0.31959 0.0
O599 O 0.61435 0.77101 0.35362 0.0
O600 O 0.67971 0.7864 0.38382 0.0
O601 O 0.65209 0.8548 0.41136 0.0
O602 O 0.68174 0.85221 0.27882 0.0
O603 O 0.64965 0.83765 0.33694 0.0
O604 O 0.69566 0.88592 0.37417 0.0
O605 O 0.73703 0.89428 0.33962 0.0
O606 O 0.67491 0.88029 0.30994 0.0
O607 O 0.69412 0.80615 0.28314 0.0
C608 C 0.70775 0.80293 0.36741 0.0
C609 C 0.48747 0.73444 0.39133 0.0
C610 C 0.48929 0.76917 0.38579 0.0
C611 C 0.66435 0.83744 0.42669 0.0
C612 C 0.64323 0.82251 0.45108 0.0
C613 C 0.60233 0.79902 0.45151 0.0
C614 C 0.66453 0.8288 0.47389 0.0
C615 C 0.64526 0.81037 0.49676 0.0
C616 C 0.5831 0.78051 0.47405 0.0
C617 C 0.60444 0.7856 0.49646 0.0
C618 C 0.62297 0.75854 0.33276 0.0
C619 C 0.64702 0.86485 0.32653 0.0
C620 C 0.68458 0.82521 0.2674 0.0
C621 C 0.70422 0.83522 0.24232 0.0
C622 C 0.74454 0.86118 0.24026 0.0
C623 C 0.68186 0.82043 0.22002 0.0
C624 C 0.69933 0.83272 0.19574 0.0
C625 C 0.76207 0.87329 0.21623 0.0
C626 C 0.73956 0.85956 0.19407 0.0
C627 C 0.72845 0.90676 0.36059 0.0
H628 H 0.58529 0.79453 0.4344 0.0
H629 H 0.69612 0.84728 0.47375 0.0
H630 H 0.55159 0.76193 0.47409 0.0
H631 H 0.58905 0.77077 0.51374 0.0
H632 H 0.76239 0.87242 0.25712 0.0
H633 H 0.65073 0.80012 0.2215 0.0
H634 H 0.79312 0.89366 0.2148 0.0
H635 H 0.75353 0.86961 0.17558 0.0
Gd636 Gd 0.17867 0.86786 0.31528 0.0
Gd637 Gd 0.20687 0.85357 0.37948 0.0
C638 C 0.31952 0.84852 0.39 0.0
C639 C 0.29445 0.78244 0.40238 0.0
C640 C 0.24957 0.80626 0.3946 0.0
C641 C 0.28071 0.84161 0.3883 0.0
C642 C 0.25604 0.77639 0.40211 0.0
C643 C 0.32617 0.81849 0.39638 0.0
C644 C 0.35044 0.88575 0.38638 0.0
C645 C 0.34217 0.91512 0.38245 0.0
N646 N 0.27319 0.86999 0.38244 0.0
C647 C 0.30312 0.90666 0.38082 0.0
H648 H 0.29692 0.92936 0.37807 0.0
C649 C 0.1816 0.76839 0.40298 0.0
N650 N 0.2129 0.80156 0.39425 0.0
C651 C 0.18649 0.73782 0.41042 0.0
C652 C 0.2238 0.74166 0.40969 0.0
H653 H 0.15266 0.76516 0.40355 0.0
H654 H 0.35575 0.82313 0.39748 0.0
H655 H 0.09154 0.7886 0.31009 0.0
H656 H 0.38069 0.89233 0.38759 0.0
H657 H 0.36581 0.94426 0.38058 0.0
H658 H 0.30002 0.75975 0.40788 0.0
H659 H 0.22959 0.9582 0.29345 0.0
H660 H 1.00291 0.81982 0.30189 0.0
H661 H 0.02174 0.77013 0.30547 0.0
H662 H 0.07777 0.95508 0.29013 0.0
H663 H 0.16148 0.71132 0.41673 0.0
H664 H 0.22752 0.71797 0.41557 0.0
H665 H 0.02415 0.88925 0.29685 0.0
H666 H 0.21745 0.01074 0.28234 0.0
N667 N 0.11175 0.84794 0.31017 0.0
C668 C 0.03353 0.82804 0.30401 0.0
C669 C 0.04406 0.79993 0.30596 0.0
C670 C 0.06289 0.86638 0.30331 0.0
C671 C 0.1023 0.87545 0.30598 0.0
C672 C 0.08359 0.81048 0.30885 0.0
N673 N 0.16975 0.91902 0.30234 0.0
C674 C 0.13231 0.91225 0.30184 0.0
C675 C 0.19327 0.98325 0.28797 0.0
C676 C 0.15515 0.97738 0.28902 0.0
C677 C 0.20002 0.9534 0.29418 0.0
C678 C 0.12397 0.94131 0.29543 0.0
H679 H 0.14998 1.00049 0.28403 0.0
O680 O 0.21253 0.88142 0.28019 0.0
O681 O 0.22563 0.86589 0.33828 0.0
O682 O 0.22487 0.91617 0.37293 0.0
O683 O 0.18737 0.91778 0.33898 0.0
O684 O 0.24349 0.90874 0.3117 0.0
O685 O 0.15548 0.83075 0.28202 0.0
O686 O 0.17874 0.84128 0.41689 0.0
O687 O 0.16058 0.85552 0.35606 0.0
O688 O 0.15971 0.8047 0.32336 0.0
O689 O 0.19917 0.8041 0.35646 0.0
O690 O 0.14085 0.8151 0.38395 0.0
O691 O 0.23192 0.89518 0.40987 0.0
C692 C 0.25607 0.89358 0.32813 0.0
C693 C 0.08479 0.93304 0.29468 0.0
C694 C 0.05427 0.89558 0.29857 0.0
C695 C 0.18545 0.85275 0.26761 0.0
C696 C 0.17749 0.86193 0.24185 0.0
C697 C 0.1611 0.88545 0.23852 0.0
C698 C 0.1902 0.85027 0.22038 0.0
C699 C 0.18844 0.86366 0.19577 0.0
C700 C 0.15898 0.89857 0.21417 0.0
C701 C 0.17316 0.88831 0.19295 0.0
C702 C 0.20945 0.93335 0.35934 0.0
C703 C 0.12934 0.8295 0.36627 0.0
C704 C 0.20589 0.87308 0.42675 0.0
C705 C 0.22067 0.87046 0.45209 0.0
C706 C 0.2544 0.86719 0.45457 0.0
C707 C 0.20131 0.87237 0.47417 0.0
C708 C 0.21627 0.87231 0.49864 0.0
C709 C 0.26899 0.86651 0.47882 0.0
C710 C 0.25027 0.86936 0.50074 0.0
C711 C 0.17599 0.78804 0.33677 0.0
H712 H 0.15068 0.89431 0.25472 0.0
H713 H 0.20262 0.83184 0.22285 0.0
H714 H 0.14682 0.91718 0.21179 0.0
H715 H 0.17183 0.89925 0.17424 0.0
H716 H 0.26967 0.8656 0.43782 0.0
H717 H 0.17518 0.87481 0.47237 0.0
H718 H 0.29513 0.86419 0.48062 0.0
H719 H 0.26234 0.86936 0.51939 0.0
Gd720 Gd 0.83811 0.68301 0.71183 0.0
Gd721 Gd 0.81913 0.65039 0.64505 0.0
C722 C 0.70793 0.5581 0.60587 0.0
C723 C 0.73099 0.51832 0.58666 0.0
C724 C 0.77486 0.57278 0.6127 0.0
C725 C 0.74543 0.58126 0.61664 0.0
C726 C 0.76817 0.54144 0.59743 0.0
C727 C 0.70093 0.52668 0.59085 0.0
C728 C 0.67836 0.56672 0.61097 0.0
C729 C 0.6863 0.5973 0.62682 0.0
N730 N 0.75304 0.61127 0.6319 0.0
C731 C 0.72382 0.61928 0.63716 0.0
H732 H 0.72852 0.64209 0.64962 0.0
C733 C 0.84162 0.59114 0.61724 0.0
N734 N 0.8106 0.59621 0.62288 0.0
C735 C 0.83635 0.56007 0.60269 0.0
C736 C 0.79935 0.53489 0.59288 0.0
H737 H 0.87063 0.6114 0.62367 0.0
H738 H 0.67234 0.50858 0.58246 0.0
H739 H 0.9265 0.69372 0.72389 0.0
H740 H 0.64918 0.5496 0.60313 0.0
H741 H 0.66345 0.60388 0.63122 0.0
H742 H 0.72528 0.49413 0.5749 0.0
H743 H 0.77899 0.71697 0.7293 0.0
H744 H 0.00788 0.81235 0.73458 0.0
H745 H 0.99435 0.74596 0.73121 0.0
H746 H 0.92382 0.86597 0.74122 0.0
H747 H 0.861 0.55599 0.59866 0.0
H748 H 0.79541 0.51112 0.58129 0.0
H749 H 0.98122 0.85714 0.73796 0.0
H750 H 0.78487 0.77886 0.74066 0.0
N751 N 0.90291 0.73051 0.72061 0.0
C752 C 0.97827 0.7896 0.73087 0.0
C753 C 0.97075 0.75219 0.72899 0.0
C754 C 0.94701 0.79681 0.72968 0.0
C755 C 0.90904 0.76611 0.72488 0.0
C756 C 0.93249 0.72274 0.72433 0.0
N757 N 0.84048 0.74012 0.72427 0.0
C758 C 0.8768 0.77106 0.72705 0.0
C759 C 0.81093 0.77709 0.73671 0.0
C760 C 0.84798 0.80972 0.73786 0.0
C761 C 0.80769 0.74212 0.73042 0.0
C762 C 0.88155 0.80683 0.73358 0.0
H763 H 0.8504 0.83673 0.74289 0.0
O764 O 0.80315 0.66626 0.74655 0.0
O765 O 0.7979 0.63502 0.68592 0.0
O766 O 0.79316 0.68773 0.65556 0.0
O767 O 0.83274 0.72628 0.68785 0.0
O768 O 0.77178 0.65276 0.71138 0.0
O769 O 0.85897 0.66784 0.74637 0.0
O770 O 0.85605 0.67279 0.61111 0.0
O771 O 0.86219 0.69352 0.67223 0.0
O772 O 0.86036 0.64095 0.70384 0.0
O773 O 0.82791 0.60664 0.66682 0.0
O774 O 0.88441 0.67289 0.6451 0.0
O775 O 0.80967 0.68562 0.61754 0.0
C776 C 0.76457 0.62598 0.69527 0.0
C777 C 0.91951 0.83812 0.73652 0.0
C778 C 0.9522 0.83311 0.73459 0.0
C779 C 0.82884 0.66244 0.76005 0.0
C780 C 0.8356 0.67795 0.78623 0.0
C781 C 0.85044 0.71696 0.79018 0.0
C782 C 0.82348 0.65298 0.80749 0.0
C783 C 0.8249 0.66684 0.83246 0.0
C784 C 0.85221 0.73086 0.81482 0.0
C785 C 0.83912 0.70602 0.83577 0.0
C786 C 0.80856 0.71971 0.66874 0.0
C787 C 0.89389 0.69642 0.6638 0.0
C788 C 0.83728 0.68917 0.60203 0.0
C789 C 0.8278 0.68409 0.57442 0.0
C790 C 0.80309 0.64774 0.56442 0.0
C791 C 0.84391 0.71578 0.55773 0.0
C792 C 0.83536 0.71081 0.53132 0.0
C793 C 0.79439 0.64282 0.53835 0.0
C794 C 0.81043 0.67416 0.52185 0.0
C795 C 0.84931 0.61176 0.68772 0.0
H796 H 0.85994 0.73658 0.77423 0.0
H797 H 0.81203 0.62277 0.80458 0.0
H798 H 0.86334 0.76099 0.81766 0.0
H799 H 0.84036 0.71741 0.85469 0.0
H800 H 0.79061 0.62311 0.57664 0.0
H801 H 0.86313 0.74408 0.56516 0.0
H802 H 0.77524 0.61458 0.53091 0.0
H803 H 0.80348 0.66986 0.50164 0.0
Gd804 Gd 0.31789 0.1467 0.71677 0.0
Gd805 Gd 0.36752 0.16631 0.65317 0.0
C806 C 0.49178 0.18571 0.6441 0.0
C807 C 0.52961 0.25355 0.63485 0.0
C808 C 0.459 0.22267 0.64101 0.0
C809 C 0.45746 0.1884 0.64576 0.0
C810 C 0.49494 0.25551 0.635 0.0
C811 C 0.52803 0.21867 0.63937 0.0
C812 C 0.48835 0.14971 0.64603 0.0
C813 C 0.45117 0.1175 0.64813 0.0
N814 N 0.42191 0.15712 0.65004 0.0
C815 C 0.41806 0.12178 0.64976 0.0
H816 H 0.38931 0.09681 0.65087 0.0
C817 C 0.42425 0.2555 0.63363 0.0
N818 N 0.42485 0.22341 0.64127 0.0
C819 C 0.45921 0.28887 0.62768 0.0
C820 C 0.49478 0.28904 0.6287 0.0
H821 H 0.39699 0.25578 0.63293 0.0
H822 H 0.55479 0.21726 0.63834 0.0
H823 H 0.31647 0.2283 0.72086 0.0
H824 H 0.51396 0.14635 0.64479 0.0
H825 H 0.44795 0.08937 0.64853 0.0
H826 H 0.55759 0.27856 0.63054 0.0
H827 H 0.26932 0.0575 0.73964 0.0
H828 H 0.19745 0.20378 0.72098 0.0
H829 H 0.26856 0.25065 0.72117 0.0
H830 H 0.12521 0.06798 0.73085 0.0
H831 H 0.4587 0.31445 0.62231 0.0
H832 H 0.52179 0.31491 0.62399 0.0
H833 H 0.14386 0.13511 0.72385 0.0
H834 H 0.20071 0.0065 0.74689 0.0
N835 N 0.27357 0.16989 0.71884 0.0
C836 C 0.21851 0.19395 0.72064 0.0
C837 C 0.25858 0.22047 0.72077 0.0
C838 C 0.20619 0.15506 0.72143 0.0
C839 C 0.2349 0.14391 0.72096 0.0
C840 C 0.2858 0.20779 0.72022 0.0
N841 N 0.25359 0.09799 0.72698 0.0
C842 C 0.2245 0.10648 0.725 0.0
C843 C 0.20691 0.03439 0.74045 0.0
C844 C 0.17631 0.04194 0.73651 0.0
C845 C 0.24566 0.06321 0.73623 0.0
C846 C 0.18499 0.0787 0.72943 0.0
H847 H 0.14633 0.01973 0.74007 0.0
O848 O 0.32658 0.12681 0.75359 0.0
O849 O 0.36792 0.15053 0.69426 0.0
O850 O 0.32695 0.10236 0.65939 0.0
O851 O 0.28283 0.09503 0.69216 0.0
O852 O 0.3441 0.10852 0.72175 0.0
O853 O 0.3374 0.18448 0.74948 0.0
O854 O 0.34586 0.17364 0.61666 0.0
O855 O 0.31756 0.16256 0.67594 0.0
O856 O 0.36665 0.20937 0.71329 0.0
O857 O 0.40639 0.21611 0.67807 0.0
O858 O 0.33529 0.19832 0.64495 0.0
O859 O 0.36033 0.12896 0.62123 0.0
C860 C 0.37133 0.1239 0.70467 0.0
C861 C 0.15582 0.089 0.72789 0.0
C862 C 0.16643 0.12721 0.72392 0.0
C863 C 0.33527 0.1584 0.76517 0.0
C864 C 0.31566 0.15469 0.78979 0.0
C865 C 0.27928 0.1532 0.79103 0.0
C866 C 0.33433 0.15386 0.81245 0.0
C867 C 0.31773 0.15334 0.8364 0.0
C868 C 0.26223 0.15182 0.81476 0.0
C869 C 0.28149 0.1523 0.83736 0.0
C870 C 0.29326 0.0824 0.672 0.0
C871 C 0.31042 0.18556 0.66351 0.0
C872 C 0.3497 0.14708 0.6054 0.0
C873 C 0.369 0.15743 0.58024 0.0
C874 C 0.40951 0.18249 0.57815 0.0
C875 C 0.34611 0.14475 0.55799 0.0
C876 C 0.36326 0.15849 0.53379 0.0
C877 C 0.42678 0.19581 0.55419 0.0
C878 C 0.40377 0.18436 0.53214 0.0
C879 C 0.39973 0.22846 0.69978 0.0
H880 H 0.26436 0.15358 0.77373 0.0
H881 H 0.36242 0.15495 0.81154 0.0
H882 H 0.23431 0.15095 0.81565 0.0
H883 H 0.2683 0.1521 0.85561 0.0
H884 H 0.42766 0.19224 0.59499 0.0
H885 H 0.31478 0.12526 0.55952 0.0
H886 H 0.458 0.2155 0.55275 0.0
H887 H 0.41754 0.19554 0.51373 0.0
Gd888 Gd 0.83441 0.18255 0.6467 0.0
Gd889 Gd 0.86511 0.16816 0.71131 0.0
C890 C 0.98478 0.17541 0.71837 0.0
C891 C 0.9664 0.10993 0.72828 0.0
C892 C 0.91637 0.12798 0.72325 0.0
C893 C 0.94473 0.16473 0.71769 0.0
C894 C 0.9268 0.1003 0.72946 0.0
C895 C 0.99541 0.14751 0.72275 0.0
C896 C 0.01282 0.214 0.71582 0.0
C897 C 1.00051 0.24084 0.71415 0.0
N898 N 0.93319 0.19074 0.71376 0.0
C899 C 0.96036 0.22862 0.71356 0.0
H900 H 0.95127 0.24951 0.71288 0.0
C901 C 0.85049 0.0863 0.73483 0.0
N902 N 0.87875 0.1202 0.72473 0.0
C903 C 0.85911 0.05761 0.74092 0.0
C904 C 0.89734 0.06438 0.73775 0.0
H905 H 0.82103 0.08116 0.7376 0.0
H906 H 0.02598 0.155 0.7229 0.0
H907 H 0.74244 0.11025 0.64508 0.0
H908 H 0.0439 0.22347 0.71622 0.0
H909 H 0.02188 0.27092 0.71324 0.0
H910 H 0.97501 0.08895 0.73263 0.0
H911 H 0.89439 0.27164 0.6254 0.0
H912 H 0.66476 0.15462 0.635 0.0
H913 H 0.67511 0.09974 0.64159 0.0
H914 H 0.7529 0.28697 0.6177 0.0
H915 H 0.83633 0.0304 0.74816 0.0
H916 H 0.90409 0.04228 0.7427 0.0
H917 H 0.69417 0.22479 0.62627 0.0
H918 H 0.89039 0.32829 0.61248 0.0
N919 N 0.76962 0.17037 0.64249 0.0
C920 C 0.6943 0.15935 0.63687 0.0
C921 C 0.70002 0.12833 0.64058 0.0
C922 C 0.7269 0.19588 0.63422 0.0
C923 C 0.76468 0.20038 0.63676 0.0
C924 C 0.73816 0.13439 0.64294 0.0
N925 N 0.83316 0.23751 0.63279 0.0
C926 C 0.79751 0.23506 0.6315 0.0
C927 C 0.86405 0.30229 0.6179 0.0
C928 C 0.82776 0.30072 0.61773 0.0
C929 C 0.86619 0.27009 0.62512 0.0
C930 C 0.79381 0.26665 0.62421 0.0
H931 H 0.82617 0.32567 0.61206 0.0
O932 O 0.8625 0.19209 0.60946 0.0
O933 O 0.88119 0.18054 0.67003 0.0
O934 O 0.88269 0.23054 0.70389 0.0
O935 O 0.84467 0.23259 0.67031 0.0
O936 O 0.89946 0.21471 0.63834 0.0
O937 O 0.8068 0.1407 0.61665 0.0
O938 O 0.83918 0.15301 0.74943 0.0
O939 O 0.81811 0.16929 0.6881 0.0
O940 O 0.80971 0.11957 0.6548 0.0
O941 O 0.84603 0.11427 0.68863 0.0
O942 O 0.79984 0.12969 0.71708 0.0
O943 O 0.88265 0.21126 0.74069 0.0
C944 C 0.91174 0.20321 0.65728 0.0
C945 C 0.75637 0.26295 0.62306 0.0
C946 C 0.72294 0.22758 0.62802 0.0
C947 C 0.83351 0.16141 0.5997 0.0
C948 C 0.81993 0.16555 0.57429 0.0
C949 C 0.784 0.16462 0.57114 0.0
C950 C 0.84302 0.16955 0.5527 0.0
C951 C 0.8296 0.17089 0.52796 0.0
C952 C 0.77091 0.16666 0.54665 0.0
C953 C 0.79332 0.16938 0.52515 0.0
C954 C 0.867 0.2477 0.69055 0.0
C955 C 0.78765 0.14313 0.69916 0.0
C956 C 0.86062 0.18727 0.75833 0.0
C957 C 0.87909 0.19078 0.78338 0.0
C958 C 0.91458 0.19064 0.78538 0.0
C959 C 0.86171 0.1957 0.80547 0.0
C960 C 0.88018 0.20139 0.82941 0.0
C961 C 0.93286 0.19599 0.80913 0.0
C962 C 0.91595 0.20158 0.83102 0.0
C963 C 0.82281 0.10054 0.6684 0.0
H964 H 0.7659 0.16193 0.5875 0.0
H965 H 0.87091 0.17053 0.55504 0.0
H966 H 0.74308 0.16568 0.54431 0.0
H967 H 0.78236 0.17023 0.50628 0.0
H968 H 0.92831 0.18677 0.76858 0.0
H969 H 0.83421 0.19571 0.80403 0.0
H970 H 0.96034 0.19606 0.81056 0.0
H971 H 0.93067 0.20596 0.84925 0.0
C972 C 0.35883 0.85927 0.05414 0.0
C973 C 0.3298 0.8699 0.05784 0.0
C974 C 0.37951 0.93652 0.0503 0.0
C975 C 0.40721 0.92548 0.0431 0.0
N976 N 0.42042 0.87452 0.03429 0.0
N977 N 0.31087 0.91775 0.05245 0.0
C978 C 0.39586 0.88623 0.04367 0.0
C979 C 0.3396 0.90824 0.0536 0.0
N980 N 0.3524 0.8245 0.0623 0.0
N981 N 0.39139 0.97359 0.05582 0.0
H982 H 0.28111 0.89753 0.05389 0.0
H983 H 0.31656 0.94495 0.04728 0.0
H984 H 0.4205 0.99536 0.05447 0.0
H985 H 0.37265 0.98207 0.06378 0.0
H986 H 0.37423 0.81707 0.06252 0.0
H987 H 0.32672 0.80452 0.07147 0.0
H988 H 0.41207 0.84597 0.03177 0.0
H989 H 0.44752 0.8934 0.02634 0.0
C990 C 0.11025 0.42871 0.04724 0.0
C991 C 0.14451 0.46248 0.05471 0.0
C992 C 0.10905 0.49791 0.05029 0.0
C993 C 0.07505 0.46437 0.04168 0.0
N994 N 0.03974 0.39556 0.04361 0.0
N995 N 0.17884 0.53053 0.05948 0.0
C996 C 0.07461 0.42904 0.04337 0.0
C997 C 0.14465 0.4975 0.05486 0.0
N998 N 0.11202 0.39626 0.04337 0.0
N999 N 0.10579 0.52834 0.05805 0.0
H1000 H 0.20508 0.5311 0.06355 0.0
H1001 H 0.18183 0.5574 0.05705 0.0
H1002 H 0.07957 0.52875 0.0574 0.0
H1003 H 0.12773 0.55126 0.06806 0.0
H1004 H 0.08927 0.37176 0.03521 0.0
H1005 H 0.13783 0.39523 0.04571 0.0
H1006 H 0.03737 0.36917 0.04715 0.0
H1007 H 0.01272 0.39439 0.04374 0.0
C1008 C 0.5269 0.66602 0.05518 0.0
C1009 C 0.56681 0.69454 0.05711 0.0
C1010 C 0.5866 0.65096 0.03912 0.0
C1011 C 0.54647 0.62264 0.03598 0.0
N1012 N 0.47873 0.60863 0.0344 0.0
N1013 N 0.63418 0.71771 0.04516 0.0
C1014 C 0.51667 0.63179 0.04187 0.0
C1015 C 0.59658 0.688 0.04751 0.0
N1016 N 0.49869 0.67101 0.06689 0.0
N1017 N 0.61548 0.64284 0.03363 0.0
H1018 H 0.6425 0.74549 0.0505 0.0
H1019 H 0.65639 0.71576 0.03567 0.0
H1020 H 0.60974 0.61797 0.02454 0.0
H1021 H 0.64466 0.65994 0.03902 0.0
H1022 H 0.4696 0.64936 0.06873 0.0
H1023 H 0.50505 0.69568 0.07687 0.0
H1024 H 0.45735 0.6166 0.03553 0.0
H1025 H 0.46884 0.58295 0.025 0.0
C1026 C 0.90363 0.31393 0.98281 0.0
C1027 C 0.8666 0.30762 0.97458 0.0
C1028 C 0.88168 0.36948 0.99214 0.0
C1029 C 0.92154 0.37905 0.99619 0.0
N1030 N 0.96974 0.35865 0.99561 0.0
N1031 N 0.82258 0.332 0.96765 0.0
C1032 C 0.93225 0.35074 0.99147 0.0
C1033 C 0.85607 0.33591 0.97845 0.0
N1034 N 0.91089 0.28424 0.98336 0.0
N1035 N 0.86743 0.39175 1.00126 0.0
H1036 H 0.80333 0.30842 0.95686 0.0
H1037 H 0.81591 0.35389 0.96727 0.0
H1038 H 0.8844 0.41862 0.00895 0.0
H1039 H 0.83746 0.38219 1.00243 0.0
H1040 H 0.93568 0.28581 0.99172 0.0
H1041 H 0.89032 0.25674 0.97765 0.0
H1042 H 0.98103 0.34187 0.98893 0.0
H1043 H 0.98989 0.38284 1.00519 0.0
C1044 C 0.6585 0.513 0.97754 0.0
C1045 C 0.69262 0.54948 0.97644 0.0
C1046 C 0.65282 0.57859 0.98728 0.0
C1047 C 0.61859 0.54193 0.99092 0.0
N1048 N 0.59209 0.47358 0.99222 0.0
N1049 N 0.72386 0.61563 0.98763 0.0
C1050 C 0.62259 0.509 0.98721 0.0
C1051 C 0.69022 0.58171 0.98389 0.0
N1052 N 0.65952 0.48226 0.96773 0.0
N1053 N 0.64992 0.61074 0.98536 0.0
H1054 H 0.7517 0.61878 0.98536 0.0
H1055 H 0.724 0.63923 0.99562 0.0
H1056 H 0.62362 0.61084 0.98611 0.0
H1057 H 0.67344 0.63716 0.98009 0.0
H1058 H 0.63454 0.4559 0.96471 0.0
H1059 H 0.68496 0.48375 0.96051 0.0
H1060 H 0.59477 0.4493 0.99331 0.0
H1061 H 0.56489 0.46893 0.99747 0.0
C1062 C 0.41139 0.09929 0.99452 0.0
C1063 C 0.43929 0.13327 0.98207 0.0
C1064 C 0.49147 0.11939 0.99321 0.0
C1065 C 0.46306 0.08303 1.00297 0.0
N1066 N 0.39508 0.03732 0.01123 0.0
N1067 N 0.50506 0.17366 0.96641 0.0
C1068 C 0.42274 0.07276 1.00317 0.0
C1069 C 0.47918 0.14297 0.98078 0.0
N1070 N 0.37421 0.09282 0.99863 0.0
N1071 N 0.53041 0.13153 0.99558 0.0
H1072 H 0.49734 0.19173 0.95701 0.0
H1073 H 0.53334 0.17948 0.96198 0.0
H1074 H 0.54048 0.11404 1.00249 0.0
H1075 H 0.55256 0.15943 0.99212 0.0
H1076 H 0.35355 0.07071 0.00999 0.0
H1077 H 0.3649 0.11153 0.9924 0.0
H1078 H 0.36503 0.02606 0.00879 0.0
H1079 H 0.4025 0.01825 0.01913 0.0
C1080 C 0.63547 0.13015 0.96882 0.0
C1081 C 0.67076 0.13064 0.97479 0.0
C1082 C 0.63405 0.073 1.00116 0.0
C1083 C 0.59819 0.07118 0.99395 0.0
N1084 N 0.56523 0.09309 0.96525 0.0
N1085 N 0.70536 0.10709 1.00012 0.0
C1086 C 0.59903 0.09876 0.97656 0.0
C1087 C 0.6706 0.10359 0.99219 0.0
N1088 N 0.63682 0.16052 0.95632 0.0
N1089 N 0.63294 0.04375 0.01495 0.0
H1090 H 0.73247 0.12734 0.9927 0.0
H1091 H 0.70783 0.09163 0.01525 0.0
H1092 H 0.60714 0.02181 0.02266 0.0
H1093 H 0.65698 0.0401 0.01802 0.0
H1094 H 0.61237 0.16383 0.95401 0.0
H1095 H 0.66308 0.18436 0.95066 0.0
H1096 H 0.56478 0.10865 0.94944 0.0
H1097 H 0.53747 0.07172 0.97084 0.0
C1098 C 0.87069 0.48754 0.97206 0.0
C1099 C 0.86935 0.52186 0.97209 0.0
C1100 C 0.94014 0.55752 0.98112 0.0
C1101 C 0.94067 0.52271 0.9836 0.0
N1102 N 0.91139 0.45899 0.96709 0.0
N1103 N 0.90206 0.58964 0.97911 0.0
C1104 C 0.90715 0.48861 0.97545 0.0
C1105 C 0.90379 0.55684 0.97755 0.0
N1106 N 0.83678 0.45357 0.96912 0.0
N1107 N 0.97467 0.59122 0.97934 0.0
H1108 H 0.87688 0.59101 0.97505 0.0
H1109 H 0.92479 0.61496 0.98639 0.0
H1110 H 1.00182 0.59271 0.97843 0.0
H1111 H 0.97652 0.61722 0.97522 0.0
H1112 H 0.83534 0.42732 0.97115 0.0
H1113 H 0.80945 0.4516 0.96695 0.0
H1114 H 0.88941 0.43569 0.95738 0.0
H1115 H 0.93829 0.45986 0.96677 0.0
C1116 C 0.48457 0.3562 0.96259 0.0
C1117 C 0.45379 0.32358 0.97476 0.0
C1118 C 0.44764 0.36452 1.00666 0.0
C1119 C 0.47491 0.39723 0.99258 0.0
N1120 N 0.51601 0.4241 0.95509 0.0
N1121 N 0.40075 0.29698 1.0055 0.0
C1122 C 0.49224 0.39302 0.96986 0.0
C1123 C 0.43405 0.3277 0.99617 0.0
N1124 N 0.50784 0.35211 0.94489 0.0
N1125 N 0.43441 0.36841 0.02997 0.0
H1126 H 0.38877 0.26976 0.99779 0.0
H1127 H 0.38276 0.29915 0.01922 0.0
H1128 H 0.44163 0.39474 0.03763 0.0
H1129 H 0.41848 0.34565 0.04244 0.0
H1130 H 0.53334 0.37493 0.93741 0.0
H1131 H 0.50414 0.3257 0.93965 0.0
H1132 H 0.52536 0.42208 0.93681 0.0
H1133 H 0.5243 0.45193 0.9602 0.0
C1134 C 0.15552 0.65553 0.0467 0.0
C1135 C 0.14297 0.68265 0.04868 0.0
C1136 C 0.07888 0.63641 0.03126 0.0
C1137 C 0.09149 0.60913 0.0285 0.0
N1138 N 0.14763 0.59912 0.02616 0.0
N1139 N 0.09722 0.70273 0.03604 0.0
C1140 C 0.13164 0.62071 0.03361 0.0
C1141 C 0.10596 0.67419 0.03896 0.0
N1142 N 0.18888 0.66151 0.05887 0.0
N1143 N 0.04098 0.6265 0.02635 0.0
H1144 H 0.11683 0.73103 0.04068 0.0
H1145 H 0.07239 0.69928 0.02653 0.0
H1146 H 0.0216 0.60105 0.01771 0.0
H1147 H 0.02849 0.64287 0.03171 0.0
H1148 H 0.19674 0.64055 0.06066 0.0
H1149 H 0.20667 0.68589 0.06945 0.0
H1150 H 0.13206 0.57244 0.01793 0.0
H1151 H 0.17775 0.60925 0.02648 0.0
C1152 C 0.34132 0.43575 0.03334 0.0
C1153 C 0.33738 0.46359 0.04721 0.0
C1154 C 0.40928 0.50384 0.04862 0.0
C1155 C 0.41357 0.47611 0.03449 0.0
N1156 N 0.38318 0.41207 0.0181 0.0
N1157 N 0.3669 0.52745 0.06352 0.0
C1158 C 0.37934 0.44107 0.02818 0.0
C1159 C 0.37113 0.49881 0.05316 0.0
N1160 N 0.3084 0.40484 0.02398 0.0
N1161 N 0.44111 0.53248 0.06067 0.0
H1162 H 0.33967 0.52435 0.06809 0.0
H1163 H 0.39013 0.55522 0.06548 0.0
H1164 H 0.46942 0.53688 0.05871 0.0
H1165 H 0.43914 0.55021 0.07424 0.0
H1166 H 0.30897 0.38538 0.0113 0.0
H1167 H 0.28027 0.4007 0.02685 0.0
H1168 H 0.36031 0.38407 0.01678 0.0
H1169 H 0.40991 0.41594 0.01168 0.0
C1170 C 0.553 0.88414 0.06011 0.0
C1171 C 0.58015 0.88296 0.04293 0.0
C1172 C 0.57515 0.92878 0.01471 0.0
C1173 C 0.54558 0.92784 0.03091 0.0
N1174 N 0.50098 0.89832 0.06643 0.0
N1175 N 0.61282 0.89891 1.00205 0.0
C1176 C 0.53297 0.90369 0.05286 0.0
C1177 C 0.59 0.90376 0.01968 0.0
N1178 N 0.54749 0.86793 0.08389 0.0
N1179 N 0.59043 0.95472 0.99525 0.0
H1180 H 0.62479 0.88136 1.0053 0.0
H1181 H 0.61728 0.90976 0.98347 0.0
H1182 H 0.58029 0.97328 0.9909 0.0
H1183 H 0.61519 0.96001 0.98477 0.0
H1184 H 0.5318 0.87198 0.09841 0.0
H1185 H 0.56152 0.85321 0.08997 0.0
H1186 H 0.48749 0.87758 0.08059 0.0
H1187 H 0.48593 0.91252 0.06209 0.0
C1188 C 0.98737 0.25458 0.37554 0.0
C1189 C 0.98569 0.22083 0.38492 0.0
C1190 C 0.05725 0.25226 0.38363 0.0
C1191 C 0.05937 0.28476 0.37152 0.0
N1192 N 0.02594 0.3171 0.35596 0.0
N1193 N 0.01854 0.18506 0.39318 0.0
C1194 C 0.02416 0.286 0.3676 0.0
C1195 C 0.02042 0.21873 0.38697 0.0
N1196 N 0.95374 0.25668 0.37468 0.0
N1197 N 0.08952 0.25489 0.39528 0.0
H1198 H 0.99226 0.1601 0.39705 0.0
H1199 H 0.0429 0.18134 0.39229 0.0
H1200 H 0.11562 0.28049 0.39684 0.0
H1201 H 0.08876 0.23327 0.4066 0.0
H1202 H 0.95307 0.28164 0.37117 0.0
H1203 H 0.9261 0.23338 0.3786 0.0
H1204 H 1.00153 0.31882 0.35029 0.0
H1205 H 0.05223 0.34031 0.34982 0.0
C1206 C 0.81427 0.84213 0.39005 0.0
C1207 C 0.81864 0.80962 0.38784 0.0
C1208 C 0.75029 0.77241 0.37304 0.0
C1209 C 0.74649 0.80563 0.37384 0.0
N1210 N 0.76892 0.86519 0.39575 0.0
N1211 N 0.79322 0.74521 0.37372 0.0
C1212 C 0.77704 0.83896 0.38549 0.0
C1213 C 0.78732 0.77519 0.37823 0.0
N1214 N 0.84587 0.87628 0.39663 0.0
N1215 N 0.71776 0.7376 0.36935 0.0
H1216 H 0.81974 0.74626 0.37764 0.0
H1217 H 0.77335 0.72076 0.36397 0.0
H1218 H 0.68973 0.73394 0.36791 0.0
H1219 H 0.7176 0.7119 0.37078 0.0
H1220 H 0.84556 0.90184 0.39606 0.0
H1221 H 0.87345 0.87952 0.40032 0.0
H1222 H 0.78849 0.88757 0.40728 0.0
H1223 H 0.7412 0.8624 0.39516 0.0
C1224 C 0.26391 0.03822 0.38026 0.0
C1225 C 0.23241 0.04288 0.38865 0.0
C1226 C 0.18601 0.98005 0.37125 0.0
C1227 C 0.21737 0.97221 0.36753 0.0
N1228 N 0.28716 0.99533 0.3695 0.0
N1229 N 0.16295 0.01688 0.39443 0.0
C1230 C 0.25656 0.00175 0.37242 0.0
C1231 C 0.1933 0.01363 0.38452 0.0
N1232 N 0.30088 0.06916 0.37882 0.0
N1233 N 0.1492 0.95602 0.36222 0.0
H1234 H 0.16701 0.04087 0.40435 0.0
H1235 H 0.13403 0.99455 0.39468 0.0
H1236 H 0.14041 0.92956 0.35431 0.0
H1237 H 0.12761 0.96372 0.36105 0.0
H1238 H 0.32451 0.06844 0.37038 0.0
H1239 H 0.30704 0.09662 0.38344 0.0
H1240 H 0.31532 0.01358 0.37632 0.0
H1241 H 0.28385 0.9708 0.36127 0.0
C1242 C 0.52674 0.67439 0.30783 0.0
C1243 C 0.53672 0.6454 0.30607 0.0
C1244 C 0.60364 0.69061 0.32025 0.0
C1245 C 0.59308 0.71923 0.32385 0.0
N1246 N 0.54003 0.73364 0.32678 0.0
N1247 N 0.58176 0.62329 0.31595 0.0
C1248 C 0.55325 0.70964 0.31956 0.0
C1249 C 0.57439 0.6528 0.31378 0.0
N1250 N 0.4927 0.66917 0.29709 0.0
N1251 N 0.64157 0.6992 0.32323 0.0
H1252 H 0.56084 0.59516 0.31185 0.0
H1253 H 0.60714 0.62595 0.32415 0.0
H1254 H 0.66294 0.72511 0.33028 0.0
H1255 H 0.65216 0.68141 0.31748 0.0
H1256 H 0.48622 0.69103 0.295 0.0
H1257 H 0.47259 0.64405 0.28801 0.0
H1258 H 0.51035 0.72539 0.32735 0.0
H1259 H 0.55778 0.76073 0.33399 0.0
C1260 C 0.32817 0.86314 0.30145 0.0
C1261 C 0.36471 0.89674 0.30524 0.0
C1262 C 0.33025 0.92832 0.32256 0.0
C1263 C 0.29355 0.89372 0.32116 0.0
N1264 N 0.25788 0.83494 0.29779 0.0
N1265 N 0.40124 0.95898 0.32383 0.0
C1266 C 0.29247 0.86255 0.3078 0.0
C1267 C 0.36587 0.92847 0.31731 0.0
N1268 N 0.32753 0.83154 0.2918 0.0
N1269 N 0.33102 0.96203 0.32613 0.0
H1270 H 0.4279 0.96022 0.32001 0.0
H1271 H 0.40391 0.98119 0.33523 0.0
H1272 H 0.30574 0.96405 0.32573 0.0
H1273 H 0.35656 0.98849 0.32537 0.0
H1274 H 0.30227 0.80491 0.29096 0.0
H1275 H 0.35295 0.83123 0.28651 0.0
H1276 H 0.25597 0.81502 0.28449 0.0
H1277 H 0.23127 0.8339 0.30076 0.0
C1278 C 0.09378 0.46051 0.3246 0.0
C1279 C 0.11654 0.48245 0.30342 0.0
C1280 C 0.15031 0.44537 0.30216 0.0
C1281 C 0.12969 0.42527 0.32456 0.0
N1282 N 0.08673 0.41829 0.35971 0.0
N1283 N 0.17212 0.5014 0.27544 0.0
C1284 C 0.103 0.43432 0.33663 0.0
C1285 C 0.14635 0.47639 0.29311 0.0
N1286 N 0.06236 0.46357 0.33257 0.0
N1287 N 0.17378 0.43488 0.28943 0.0
H1288 H 0.17075 0.52496 0.26865 0.0
H1289 H 0.19713 0.50103 0.26932 0.0
H1290 H 0.17984 0.41419 0.29623 0.0
H1291 H 0.1853 0.44499 0.27126 0.0
H1292 H 0.042 0.44535 0.34601 0.0
H1293 H 0.05467 0.48233 0.32419 0.0
H1294 H 0.07069 0.427 0.37084 0.0
H1295 H 0.0918 0.39822 0.36874 0.0
C1296 C 0.31503 0.47532 0.32294 0.0
C1297 C 0.34226 0.46482 0.31412 0.0
C1298 C 0.29679 0.3986 0.32673 0.0
C1299 C 0.2665 0.40764 0.33095 0.0
N1300 N 0.24707 0.45576 0.3295 0.0
N1301 N 0.35975 0.41655 0.30722 0.0
C1302 C 0.2758 0.44643 0.32854 0.0
C1303 C 0.33344 0.42651 0.31616 0.0
N1304 N 0.32626 0.51296 0.32538 0.0
N1305 N 0.29051 0.36315 0.33299 0.0
H1306 H 0.3878 0.43657 0.30086 0.0
H1307 H 0.35317 0.38846 0.30487 0.0
H1308 H 0.26425 0.34189 0.3409 0.0
H1309 H 0.31248 0.35595 0.33286 0.0
H1310 H 0.309 0.52233 0.33441 0.0
H1311 H 0.35433 0.53482 0.32067 0.0
H1312 H 0.2513 0.48249 0.32453 0.0
H1313 H 0.21828 0.4361 0.33345 0.0
C1314 C 0.5437 0.83721 0.3025 0.0
C1315 C 0.54353 0.87192 0.30529 0.0
C1316 C 0.61053 0.90156 0.32287 0.0
C1317 C 0.61019 0.86624 0.32083 0.0
N1318 N 0.58311 0.80737 0.29738 0.0
N1319 N 0.57468 0.93609 0.32122 0.0
C1320 C 0.57838 0.83563 0.30786 0.0
C1321 C 0.57624 0.90371 0.31656 0.0
N1322 N 0.51021 0.8052 0.29511 0.0
N1323 N 0.64479 0.9339 0.32878 0.0
H1324 H 0.55127 0.93961 0.31561 0.0
H1325 H 0.59511 0.95845 0.33236 0.0
H1326 H 0.67103 0.93411 0.33185 0.0
H1327 H 0.64852 0.96118 0.32811 0.0
H1328 H 0.50732 0.77818 0.29537 0.0
H1329 H 0.48413 0.80512 0.29125 0.0
H1330 H 0.56309 0.78735 0.28467 0.0
H1331 H 0.60866 0.80591 0.29927 0.0
C1332 C 0.11742 0.68316 0.3196 0.0
C1333 C 0.14656 0.67819 0.30714 0.0
C1334 C 0.19715 0.74171 0.32107 0.0
C1335 C 0.1672 0.74882 0.32979 0.0
N1336 N 0.10437 0.72015 0.35019 0.0
N1337 N 0.21431 0.70236 0.29551 0.0
C1338 C 0.12865 0.7178 0.33263 0.0
C1339 C 0.18653 0.70724 0.30794 0.0
N1340 N 0.07883 0.65554 0.31807 0.0
N1341 N 0.23547 0.76616 0.32708 0.0
H1342 H 0.2082 0.67677 0.28694 0.0
H1343 H 0.24292 0.72439 0.2924 0.0
H1344 H 0.24467 0.79095 0.33753 0.0
H1345 H 0.2578 0.75986 0.32417 0.0
H1346 H 0.05595 0.65955 0.32422 0.0
H1347 H 0.06948 0.62952 0.30902 0.0
H1348 H 0.07677 0.69755 0.35495 0.0
H1349 H 0.11467 0.74318 0.36266 0.0
C1350 C 0.77619 0.00554 0.39273 0.0
C1351 C 0.81604 0.02054 0.38585 0.0
C1352 C 0.7996 0.96018 0.36553 0.0
C1353 C 0.75855 0.94619 0.36957 0.0
N1354 N 0.70896 0.96205 0.38188 0.0
N1355 N 0.86465 0.01508 0.36112 0.0
C1356 C 0.74714 0.97061 0.38186 0.0
C1357 C 0.82726 0.999 0.37047 0.0
N1358 N 0.76581 0.02471 0.40961 0.0
N1359 N 0.81313 0.93611 0.35913 0.0
H1360 H 0.88639 0.04283 0.36535 0.0
H1361 H 0.87299 0.00192 0.34734 0.0
H1362 H 0.79536 0.90692 0.35725 0.0
H1363 H 0.84283 0.94442 0.3587 0.0
H1364 H 0.73796 0.01275 0.41782 0.0
H1365 H 0.78568 0.05154 0.41676 0.0
H1366 H 0.6998 0.98072 0.38822 0.0
H1367 H 0.68711 0.93853 0.37267 0.0
C1368 C 0.01973 0.79945 0.37378 0.0
C1369 C 0.02256 0.83206 0.38586 0.0
C1370 C 0.09462 0.86271 0.38486 0.0
C1371 C 0.09246 0.83153 0.37102 0.0
N1372 N 0.05252 0.76608 0.3585 0.0
N1373 N 0.06255 0.89787 0.39758 0.0
C1374 C 0.05475 0.79885 0.36706 0.0
C1375 C 0.05999 0.8646 0.38964 0.0
N1376 N 0.98362 0.76897 0.3686 0.0
N1377 N 0.12898 0.88843 0.39623 0.0
H1378 H 0.03794 0.90082 0.40047 0.0
H1379 H 0.08895 0.92346 0.39878 0.0
H1380 H 0.15463 0.88716 0.39485 0.0
H1381 H 0.13106 0.9087 0.40931 0.0
H1382 H 0.97914 0.74662 0.35671 0.0
H1383 H 0.95748 0.76672 0.37495 0.0
H1384 H 0.0272 0.73949 0.35877 0.0
H1385 H 0.07693 0.76554 0.35163 0.0
C1386 C 0.20871 0.2241 0.40117 0.0
C1387 C 0.192 0.19215 0.38469 0.0
C1388 C 0.15224 0.21665 0.36556 0.0
C1389 C 0.17678 0.25329 0.37647 0.0
N1390 N 0.22714 0.28924 0.4084 0.0
N1391 N 0.14851 0.15917 0.3495 0.0
C1392 C 0.20473 0.2564 0.39531 0.0
C1393 C 0.16389 0.18871 0.36643 0.0
N1394 N 0.22509 0.22239 0.42388 0.0
N1395 N 0.11616 0.20717 0.35615 0.0
H1396 H 0.15681 0.13845 0.34886 0.0
H1397 H 0.12998 0.15727 0.33462 0.0
H1398 H 0.10462 0.2253 0.35711 0.0
H1399 H 0.09578 0.17958 0.35051 0.0
H1400 H 0.23448 0.24352 0.43778 0.0
H1401 H 0.22428 0.19772 0.43054 0.0
H1402 H 0.25312 0.29499 0.41751 0.0
H1403 H 0.21888 0.30935 0.41182 0.0
C1404 C 0.66688 0.53729 0.7009 0.0
C1405 C 0.66448 0.53056 0.72773 0.0
C1406 C 0.73552 0.57542 0.73043 0.0
C1407 C 0.73539 0.58615 0.70462 0.0
N1408 N 0.7123 0.54905 0.66719 0.0
N1409 N 0.69907 0.53846 0.76755 0.0
C1410 C 0.70408 0.56024 0.68954 0.0
C1411 C 0.6997 0.54814 0.74242 0.0
N1412 N 0.63419 0.52196 0.68593 0.0
N1413 N 0.77068 0.58688 0.74183 0.0
H1414 H 0.67512 0.51497 0.77588 0.0
H1415 H 0.72205 0.5539 0.78019 0.0
H1416 H 0.79659 0.60171 0.73135 0.0
H1417 H 0.7742 0.57789 0.75983 0.0
H1418 H 0.63587 0.528 0.66636 0.0
H1419 H 0.60585 0.50619 0.69334 0.0
H1420 H 0.6909 0.52638 0.65662 0.0
H1421 H 0.74144 0.55783 0.66269 0.0
C1422 C 0.44412 0.08713 0.71029 0.0
C1423 C 0.47594 0.11809 0.72289 0.0
C1424 C 0.43969 0.15285 0.72318 0.0
C1425 C 0.40871 0.12324 0.70892 0.0
N1426 N 0.37742 0.05833 0.69422 0.0
N1427 N 0.50747 0.18314 0.73693 0.0
C1428 C 0.40985 0.08921 0.70402 0.0
C1429 C 0.47483 0.15185 0.72777 0.0
N1430 N 0.44736 0.0562 0.70361 0.0
N1431 N 0.4338 0.17948 0.7352 0.0
H1432 H 0.53351 0.18319 0.74087 0.0
H1433 H 0.5098 0.20985 0.7383 0.0
H1434 H 0.40766 0.17996 0.73404 0.0
H1435 H 0.45338 0.19883 0.74839 0.0
H1436 H 0.42738 0.03417 0.69209 0.0
H1437 H 0.47189 0.05379 0.70805 0.0
H1438 H 0.37376 0.03111 0.69324 0.0
H1439 H 0.35316 0.05968 0.68765 0.0
C1440 C 0.9211 0.35217 0.71162 0.0
C1441 C 0.88955 0.35546 0.72177 0.0
C1442 C 0.84308 0.29257 0.70476 0.0
C1443 C 0.87479 0.28615 0.69897 0.0
N1444 N 0.94474 0.311 0.69673 0.0
N1445 N 0.82056 0.32632 0.73157 0.0
C1446 C 0.91403 0.31632 0.70245 0.0
C1447 C 0.85053 0.32514 0.71914 0.0
N1448 N 0.95761 0.38373 0.70985 0.0
N1449 N 0.80583 0.26828 0.6965 0.0
H1450 H 0.82467 0.34922 0.74282 0.0
H1451 H 0.79225 0.30298 0.73275 0.0
H1452 H 0.79739 0.24299 0.68692 0.0
H1453 H 0.78346 0.27494 0.69744 0.0
H1454 H 0.981 0.38414 0.70022 0.0
H1455 H 0.96363 0.41065 0.71583 0.0
H1456 H 0.97358 0.32964 0.70216 0.0
H1457 H 0.9409 0.28687 0.68743 0.0
C1458 C 0.21041 0.0083 0.63105 0.0
C1459 C 0.20291 0.9739 0.64314 0.0
C1460 C 0.25337 0.01053 0.67525 0.0
C1461 C 0.26358 0.04469 0.66159 0.0
N1462 N 0.25538 0.0754 0.62417 0.0
N1463 N 0.22043 0.94142 0.67465 0.0
C1464 C 0.24324 0.04333 0.63875 0.0
C1465 C 0.22513 0.97476 0.66477 0.0
N1466 N 0.18516 0.00762 0.61279 0.0
N1467 N 0.27057 0.0122 0.69826 0.0
H1468 H 0.19981 0.91475 0.66767 0.0
H1469 H 0.23881 0.94016 0.68848 0.0
H1470 H 0.29285 0.03752 0.70582 0.0
H1471 H 0.26107 0.98902 0.71063 0.0
H1472 H 0.18648 0.03207 0.60522 0.0
H1473 H 0.16035 0.98257 0.60699 0.0
H1474 H 0.24494 0.07512 0.60581 0.0
H1475 H 0.27793 0.10211 0.62957 0.0
C1476 C 0.99671 0.1824 0.64687 0.0
C1477 C 0.02907 0.21979 0.6445 0.0
C1478 C 0.98546 0.24582 0.65204 0.0
C1479 C 0.95279 0.20844 0.65646 0.0
N1480 N 0.93001 0.14102 0.66042 0.0
N1481 N 0.05619 0.28672 0.65175 0.0
C1482 C 0.95942 0.17679 0.6549 0.0
C1483 C 0.02398 0.25128 0.6495 0.0
N1484 N 1.00089 0.15212 0.63987 0.0
N1485 N 0.97991 0.27628 0.64872 0.0
H1486 H 0.08477 0.29159 0.64991 0.0
H1487 H 0.05465 0.31029 0.6581 0.0
H1488 H 0.95267 0.27449 0.64947 0.0
H1489 H 1.00206 0.30295 0.64262 0.0
H1490 H 0.97744 0.12457 0.63763 0.0
H1491 H 0.02769 0.15486 0.63441 0.0
H1492 H 0.93409 0.11775 0.66312 0.0
H1493 H 0.90203 0.13529 0.66438 0.0
C1494 C 0.74509 0.76386 0.65205 0.0
C1495 C 0.7735 0.79789 0.63976 0.0
C1496 C 0.82557 0.78578 0.65412 0.0
C1497 C 0.79689 0.74862 0.66226 0.0
N1498 N 0.72931 0.70341 0.67177 0.0
N1499 N 0.84024 0.83814 0.62541 0.0
C1500 C 0.75653 0.73795 0.66195 0.0
C1501 C 0.8136 0.80806 0.63987 0.0
N1502 N 0.70761 0.75711 0.65509 0.0
N1503 N 0.86409 0.80067 0.66059 0.0
H1504 H 0.83271 0.85484 0.61415 0.0
H1505 H 0.86898 0.84406 0.62256 0.0
H1506 H 0.87447 0.78653 0.67196 0.0
H1507 H 0.8852 0.829 0.65716 0.0
H1508 H 0.68625 0.73475 0.66592 0.0
H1509 H 0.69848 0.77568 0.6483 0.0
H1510 H 0.69921 0.69141 0.66916 0.0
H1511 H 0.73711 0.68624 0.68226 0.0
C1512 C 1.00547 0.75975 0.66336 0.0
C1513 C 0.00996 0.79111 0.64873 0.0
C1514 C 0.93848 0.76439 0.64872 0.0
C1515 C 0.93346 0.73187 0.6627 0.0
N1516 N 0.9626 0.69621 0.67946 0.0
N1517 N 0.98224 0.82827 0.63268 0.0
C1518 C 0.96722 0.72916 0.6691 0.0
C1519 C 0.97696 0.79516 0.64332 0.0
N1520 N 0.03812 0.76004 0.67267 0.0
N1521 N 0.90681 0.76393 0.63765 0.0
H1522 H 0.00968 0.85064 0.62736 0.0
H1523 H 0.95988 0.83487 0.63119 0.0
H1524 H 0.87811 0.74232 0.64065 0.0
H1525 H 0.909 0.7836 0.6239 0.0
H1526 H 0.03719 0.74026 0.68585 0.0
H1527 H 0.06648 0.78246 0.6692 0.0
H1528 H 0.98502 0.68973 0.68099 0.0
H1529 H 0.93554 0.6746 0.68587 0.0
C1530 C 0.20435 0.16434 0.65156 0.0
C1531 C 0.21048 0.20175 0.64952 0.0
C1532 C 0.28009 0.22787 0.65971 0.0
C1533 C 0.27452 0.1903 0.66251 0.0
N1534 N 0.22931 0.12247 0.66237 0.0
N1535 N 0.25081 0.26835 0.65828 0.0
C1536 C 0.23587 0.15849 0.65916 0.0
C1537 C 0.24719 0.23316 0.65601 0.0
N1538 N 0.16852 0.13435 0.64507 0.0
N1539 N 0.31711 0.25874 0.65901 0.0
H1540 H 0.22741 0.27313 0.65518 0.0
H1541 H 0.27565 0.2918 0.66572 0.0
H1542 H 0.34237 0.25688 0.66103 0.0
H1543 H 0.3231 0.28605 0.65404 0.0
H1544 H 0.16281 0.10658 0.64257 0.0
H1545 H 0.1443 0.13757 0.64117 0.0
H1546 H 0.20168 0.09834 0.66393 0.0
H1547 H 0.25193 0.11698 0.66471 0.0
C1548 C 0.82527 0.02495 0.62676 0.0
C1549 C 0.79431 0.99115 0.6376 0.0
C1550 C 0.78646 0.02878 0.67142 0.0
C1551 C 0.81377 0.06272 0.65855 0.0
N1552 N 0.85592 0.09323 0.62198 0.0
N1553 N 0.74116 0.96096 0.66808 0.0
C1554 C 0.83221 0.06084 0.63563 0.0
C1555 C 0.77399 0.99294 0.65956 0.0
N1556 N 0.84919 0.02278 0.60864 0.0
N1557 N 0.77205 0.0307 0.69479 0.0
H1558 H 0.73024 0.9344 0.65952 0.0
H1559 H 0.72264 0.96133 0.68219 0.0
H1560 H 0.77875 0.0564 0.70333 0.0
H1561 H 0.75573 0.00701 0.70646 0.0
H1562 H 0.87482 0.04639 0.60202 0.0
H1563 H 0.8458 0.997 0.60214 0.0
H1564 H 0.86595 0.09297 0.60357 0.0
H1565 H 0.86342 0.12043 0.62815 0.0
C1566 C 0.50032 0.30847 0.7236 0.0
C1567 C 0.48942 0.33448 0.73334 0.0
C1568 C 0.42221 0.294 0.7179 0.0
C1569 C 0.43166 0.266 0.70994 0.0
N1570 N 0.48218 0.24962 0.70146 0.0
N1571 N 0.43951 0.35067 0.74261 0.0
C1572 C 0.4715 0.27421 0.71156 0.0
C1573 C 0.45023 0.32679 0.73133 0.0
N1574 N 0.5376 0.31514 0.72777 0.0
N1575 N 0.38747 0.29094 0.7106 0.0
H1576 H 0.4595 0.37634 0.75118 0.0
H1577 H 0.41044 0.3439 0.74496 0.0
H1578 H 0.36793 0.26909 0.69892 0.0
H1579 H 0.38015 0.31208 0.71331 0.0
H1580 H 0.54672 0.29547 0.72438 0.0
H1581 H 0.55942 0.33989 0.73631 0.0
H1582 H 0.51105 0.25656 0.69804 0.0
H1583 H 0.46242 0.22227 0.69546 0.0
C1584 C 0.67666 0.1041 0.70604 0.0
C1585 C 0.67627 0.13472 0.71884 0.0
C1586 C 0.74828 0.17159 0.71703 0.0
C1587 C 0.74922 0.14195 0.70308 0.0
N1588 N 0.71466 0.0763 0.68982 0.0
N1589 N 0.71061 0.20063 0.73107 0.0
C1590 C 0.71336 0.1072 0.69899 0.0
C1591 C 0.71177 0.16936 0.72253 0.0
N1592 N 0.64192 0.07208 0.70049 0.0
N1593 N 0.78178 0.19969 0.72793 0.0
H1594 H 0.68436 0.20017 0.735 0.0
H1595 H 0.73526 0.22775 0.7317 0.0
H1596 H 0.80912 0.20199 0.72558 0.0
H1597 H 0.78192 0.2188 0.74129 0.0
H1598 H 0.63947 0.05045 0.68863 0.0
H1599 H 0.61481 0.06814 0.70634 0.0
H1600 H 0.69078 0.04877 0.68948 0.0
H1601 H 0.74049 0.07792 0.68335 0.0
C1602 C 0.84338 0.52684 0.72277 0.0
C1603 C 0.88238 0.53417 0.71948 0.0
C1604 C 0.89576 0.58589 0.68933 0.0
C1605 C 0.85858 0.58154 0.69506 0.0
N1606 N 0.79207 0.53881 0.70801 0.0
N1607 N 0.94626 0.57044 0.69985 0.0
C1608 C 0.83082 0.54925 0.70908 0.0
C1609 C 0.90867 0.56348 0.70267 0.0
N1610 N 0.81913 0.50009 0.74018 0.0
N1611 N 0.91721 0.60914 0.66961 0.0
H1612 H 0.95616 0.55315 0.70788 0.0
H1613 H 0.9683 0.59446 0.69064 0.0
H1614 H 0.90731 0.62434 0.65887 0.0
H1615 H 0.94269 0.61081 0.66239 0.0
H1616 H 0.7921 0.49662 0.74572 0.0
H1617 H 0.82725 0.4832 0.7507 0.0
H1618 H 0.7696 0.51363 0.71579 0.0
H1619 H 0.78208 0.55352 0.69681 0.0
C1620 C 0.47013 0.98852 0.23192 0.0
C1621 C 0.45983 0.94951 0.23199 0.0
C1622 C 0.4795 0.9553 0.18664 0.0
C1623 C 0.48769 0.99367 0.1863 0.0
N1624 N 0.48189 0.04375 0.20678 0.0
N1625 N 0.44683 0.89371 0.20804 0.0
C1626 C 0.48005 0.00921 0.2084 0.0
C1627 C 0.46212 0.93227 0.20889 0.0
N1628 N 0.47252 0.00648 0.2545 0.0
N1629 N 0.48986 0.94132 0.16615 0.0
H1630 H 0.43371 0.876 0.22386 0.0
H1631 H 0.44397 0.87892 0.19118 0.0
H1632 H 0.50204 0.95702 0.14943 0.0
H1633 H 0.48896 0.91519 0.16639 0.0
H1634 H 0.48397 0.03578 0.25592 0.0
H1635 H 0.46658 0.99282 0.27225 0.0
H1636 H 0.47284 0.05495 0.22147 0.0
H1637 H 0.48876 0.05948 0.1898 0.0
C1638 C 0.06252 0.49591 0.2115 0.0
C1639 C 0.07839 0.53082 0.22492 0.0
C1640 C 0.05075 0.55463 0.19261 0.0
C1641 C 0.02661 0.51682 0.18388 0.0
N1642 N 0.01068 0.45096 0.18415 0.0
N1643 N 0.11131 0.59749 0.21407 0.0
C1644 C 0.0328 0.48723 0.19306 0.0
C1645 C 0.07962 0.56188 0.21142 0.0
N1646 N 0.08108 0.47512 0.21232 0.0
N1647 N 0.04566 0.58349 0.18342 0.0
H1648 H 0.13547 0.60227 0.22513 0.0
H1649 H 0.11574 0.62074 0.20296 0.0
H1650 H 0.02508 0.57941 0.16938 0.0
H1651 H 0.05989 0.61078 0.19118 0.0
H1652 H 0.07268 0.45099 0.20116 0.0
H1653 H 0.10862 0.4859 0.22083 0.0
H1654 H 0.01197 0.42798 0.19215 0.0
H1655 H 0.98928 0.44357 0.17008 0.0
C1656 C 0.50724 0.52063 0.23282 0.0
C1657 C 0.50108 0.55224 0.23467 0.0
C1658 C 0.52489 0.57082 0.1906 0.0
C1659 C 0.5278 0.53742 0.18804 0.0
N1660 N 0.51218 0.47579 0.20476 0.0
N1661 N 0.49472 0.60173 0.21319 0.0
C1662 C 0.51598 0.51082 0.20857 0.0
C1663 C 0.50699 0.57557 0.21286 0.0
N1664 N 0.50674 0.50107 0.25433 0.0
N1665 N 0.54092 0.59896 0.17247 0.0
H1666 H 0.48061 0.60538 0.22893 0.0
H1667 H 0.49488 0.61693 0.197 0.0
H1668 H 0.55542 0.5973 0.15624 0.0
H1669 H 0.5432 0.62553 0.17477 0.0
H1670 H 0.51513 0.48041 0.25434 0.0
H1671 H 0.50164 0.50793 0.27261 0.0
H1672 H 0.5 0.45398 0.21835 0.0
H1673 H 0.5174 0.46722 0.18709 0.0
C1674 C 0.98764 0.47468 0.79769 0.0
C1675 C 0.94973 0.44191 0.79633 0.0
C1676 C 0.95919 0.42149 0.83867 0.0
C1677 C 0.99535 0.45612 0.84107 0.0
N1678 N 0.03965 0.51946 0.82517 0.0
N1679 N 0.8959 0.38855 0.81784 0.0
C1680 C 0.00831 0.48389 0.82125 0.0
C1681 C 0.93441 0.41663 0.81756 0.0
N1682 N 1.00478 0.49609 0.77625 0.0
N1683 N 0.94921 0.39261 0.85593 0.0
H1684 H 0.87657 0.38469 0.80298 0.0
H1685 H 0.88223 0.37162 0.83386 0.0
H1686 H 0.96704 0.39457 0.87129 0.0
H1687 H 0.92511 0.36543 0.85362 0.0
H1688 H 0.03396 0.51786 0.77564 0.0
H1689 H 0.99118 0.48986 0.7584 0.0
H1690 H 0.04781 0.54194 0.81233 0.0
H1691 H 0.05513 0.52758 0.84236 0.0
C1692 C 0.5842 0.51292 0.81846 0.0
C1693 C 0.56163 0.49949 0.79572 0.0
C1694 C 0.50615 0.4987 0.8177 0.0
C1695 C 0.53023 0.51631 0.83935 0.0
N1696 N 0.59538 0.54873 0.8575 0.0
N1697 N 0.50412 0.48816 0.77203 0.0
C1698 C 0.57028 0.52605 0.83888 0.0
C1699 C 0.52348 0.49501 0.79483 0.0
N1700 N 0.61791 0.51136 0.82118 0.0
N1701 N 0.46647 0.48389 0.81925 0.0
H1702 H 0.51633 0.48637 0.75472 0.0
H1703 H 0.4778 0.48822 0.76996 0.0
H1704 H 0.4523 0.48456 0.83595 0.0
H1705 H 0.44727 0.46748 0.8048 0.0
H1706 H 0.63346 0.51753 0.8383 0.0
H1707 H 0.62791 0.49984 0.8073 0.0
H1708 H 0.62559 0.55954 0.85664 0.0
H1709 H 0.58667 0.56003 0.87235 0.0
C1710 C 0.48039 0.03045 0.7983 0.0
C1711 C 0.51645 0.06521 0.7956 0.0
C1712 C 0.53451 0.0565 0.83917 0.0
C1713 C 0.49654 0.02425 0.84275 0.0
N1714 N 0.42982 0.98781 0.82764 0.0
N1715 N 0.57362 0.11585 0.8162 0.0
C1716 C 0.46837 0.01354 0.8229 0.0
C1717 C 0.54231 0.07965 0.81687 0.0
N1718 N 0.45839 0.01237 0.77727 0.0
N1719 N 0.56376 0.06417 0.85628 0.0
H1720 H 0.57953 0.13418 0.80065 0.0
H1721 H 0.59118 0.1289 0.8321 0.0
H1722 H 0.55985 0.04726 0.87233 0.0
H1723 H 0.59285 0.08511 0.85314 0.0
H1724 H 0.4337 0.98526 0.77815 0.0
H1725 H 0.46718 0.02232 0.75863 0.0
H1726 H 0.40768 0.98165 0.81436 0.0
H1727 H 0.4195 0.97599 0.84573 0.0
C1728 C 0.11047 0.23302 0.54726 0.0
C1729 C 0.116 0.25873 0.56737 0.0
C1730 C 0.12351 0.30717 0.53585 0.0
C1731 C 0.11834 0.28159 0.51574 0.0
N1732 N 0.11626 0.22412 0.50181 0.0
N1733 N 0.13707 0.32283 0.58089 0.0
C1734 C 0.11499 0.24579 0.52136 0.0
C1735 C 0.12558 0.2967 0.56164 0.0
N1736 N 0.09886 0.19587 0.55285 0.0
N1737 N 0.12436 0.34062 0.53044 0.0
H1738 H 0.13886 0.31604 0.59995 0.0
H1739 H 0.14818 0.35183 0.57774 0.0
H1740 H 0.1238 0.34973 0.51183 0.0
H1741 H 0.1231 0.35824 0.54441 0.0
H1742 H 0.08994 0.17471 0.53904 0.0
H1743 H 0.09539 0.18544 0.57152 0.0
H1744 H 0.11768 0.19938 0.50462 0.0
H1745 H 0.1196 0.23289 0.4827 0.0
C1746 C 0.67371 0.83158 0.567 0.0
C1747 C 0.70857 0.82935 0.56798 0.0
C1748 C 0.69863 0.809 0.52312 0.0
C1749 C 0.66746 0.81709 0.5212 0.0
N1750 N 0.63185 0.84506 0.54046 0.0
N1751 N 0.75853 0.82315 0.54508 0.0
C1752 C 0.65678 0.8309 0.54292 0.0
C1753 C 0.72229 0.81998 0.54552 0.0
N1754 N 0.65612 0.83336 0.58911 0.0
N1755 N 0.70491 0.7897 0.50403 0.0
H1756 H 0.77747 0.83241 0.56071 0.0
H1757 H 0.77131 0.82025 0.5284 0.0
H1758 H 0.68733 0.77982 0.48776 0.0
H1759 H 0.72492 0.78005 0.50563 0.0
H1760 H 0.62876 0.8316 0.58942 0.0
H1761 H 0.66675 0.83234 0.60722 0.0
H1762 H 0.62615 0.85867 0.55534 0.0
H1763 H 0.62035 0.84707 0.52291 0.0
C1764 C 0.1763 0.91259 0.54888 0.0
C1765 C 0.16702 0.8859 0.56911 0.0
C1766 C 0.18155 0.84639 0.54074 0.0
C1767 C 0.19703 0.87612 0.5222 0.0
N1768 N 0.21498 0.94068 0.51066 0.0
N1769 N 0.16625 0.82965 0.58547 0.0
C1770 C 0.1958 0.91005 0.52672 0.0
C1771 C 0.17084 0.8532 0.56534 0.0
N1772 N 0.16585 0.94001 0.55064 0.0
N1773 N 0.17631 0.81137 0.53468 0.0
H1774 H 0.1592 0.83394 0.60393 0.0
H1775 H 0.17289 0.80781 0.58435 0.0
H1776 H 0.18303 0.80511 0.51667 0.0
H1777 H 0.16165 0.78763 0.54659 0.0
H1778 H 0.16864 0.958 0.53547 0.0
H1779 H 0.15055 0.94205 0.5663 0.0
H1780 H 0.21842 0.96736 0.51464 0.0
H1781 H 0.23076 0.94065 0.49464 0.0
C1782 C 0.66852 0.79122 0.12897 0.0
C1783 C 0.63355 0.79277 0.12543 0.0
C1784 C 0.64343 0.82358 0.16719 0.0
C1785 C 0.67568 0.81783 0.17194 0.0
N1786 N 0.71231 0.7871 0.15961 0.0
N1787 N 0.58265 0.8019 0.14417 0.0
C1788 C 0.68623 0.79886 0.1535 0.0
C1789 C 0.61943 0.80639 0.14546 0.0
N1790 N 0.68597 0.78423 0.10871 0.0
N1791 N 0.63665 0.84678 0.18269 0.0
H1792 H 0.56354 0.78817 0.12902 0.0
H1793 H 0.5697 0.80816 0.15938 0.0
H1794 H 0.65443 0.86125 0.19822 0.0
H1795 H 0.61583 0.85476 0.1785 0.0
H1796 H 0.71347 0.78641 0.1099 0.0
H1797 H 0.6751 0.78037 0.09011 0.0
H1798 H 0.71813 0.77003 0.14759 0.0
H1799 H 0.72487 0.79089 0.17772 0.0
C1800 C 0.19218 0.83099 0.12826 0.0
C1801 C 0.22957 0.8336 0.12778 0.0
C1802 C 0.24186 0.85965 0.17122 0.0
C1803 C 0.20252 0.85211 0.17281 0.0
N1804 N 0.13733 0.82055 0.15471 0.0
N1805 N 0.28602 0.84185 0.15152 0.0
C1806 C 0.17675 0.83468 0.15189 0.0
C1807 C 0.25331 0.84539 0.15008 0.0
N1808 N 0.17203 0.82673 0.10606 0.0
N1809 N 0.26884 0.88182 0.18915 0.0
H1810 H 0.29451 0.83005 0.13688 0.0
H1811 H 0.30222 0.84685 0.16828 0.0
H1812 H 0.26229 0.89444 0.20427 0.0
H1813 H 0.29865 0.89095 0.18741 0.0
H1814 H 0.14628 0.82812 0.10537 0.0
H1815 H 0.18319 0.82621 0.08806 0.0
H1816 H 0.1171 0.8046 0.14058 0.0
H1817 H 0.12452 0.82102 0.17209 0.0
C1818 C 0.21078 0.42794 0.15025 0.0
C1819 C 0.18571 0.41245 0.12871 0.0
C1820 C 0.13992 0.35813 0.15522 0.0
C1821 C 0.16793 0.3703 0.17525 0.0
N1822 N 0.23362 0.41434 0.18978 0.0
N1823 N 0.1301 0.35795 0.1096 0.0
C1824 C 0.20434 0.40469 0.17231 0.0
C1825 C 0.15116 0.37624 0.1309 0.0
N1826 N 0.24012 0.46512 0.14994 0.0
N1827 N 0.10229 0.32964 0.15952 0.0
H1828 H 0.13842 0.36895 0.09114 0.0
H1829 H 0.10686 0.32998 0.11 0.0
H1830 H 0.09261 0.31653 0.17736 0.0
H1831 H 0.07986 0.32208 0.14623 0.0
H1832 H 0.25686 0.47881 0.16602 0.0
H1833 H 0.24502 0.48331 0.13445 0.0
H1834 H 0.262 0.43703 0.18707 0.0
H1835 H 0.23076 0.39764 0.20576 0.0
C1836 C 0.76198 0.58721 0.8806 0.0
C1837 C 0.78722 0.59914 0.90224 0.0
C1838 C 0.83919 0.64909 0.8758 0.0
C1839 C 0.81217 0.64116 0.85553 0.0
N1840 N 0.74509 0.60617 0.84071 0.0
N1841 N 0.84739 0.64758 0.92152 0.0
C1842 C 0.77276 0.61105 0.85842 0.0
C1843 C 0.82522 0.63176 0.90014 0.0
N1844 N 0.72827 0.55264 0.88085 0.0
N1845 N 0.87844 0.67257 0.87169 0.0
H1846 H 0.83758 0.63725 0.93996 0.0
H1847 H 0.87369 0.67345 0.92119 0.0
H1848 H 0.88999 0.6847 0.85386 0.0
H1849 H 0.89965 0.67649 0.88518 0.0
H1850 H 0.71074 0.54102 0.86473 0.0
H1851 H 0.71998 0.53387 0.89635 0.0
H1852 H 0.71524 0.58715 0.84328 0.0
H1853 H 0.7513 0.62358 0.82462 0.0
C1854 C 0.39736 0.18878 0.88749 0.0
C1855 C 0.37726 0.16284 0.90777 0.0
C1856 C 0.32176 0.12601 0.87907 0.0
C1857 C 0.33908 0.15567 0.86051 0.0
N1858 N 0.39087 0.21916 0.84944 0.0
N1859 N 0.31791 0.10884 0.92389 0.0
C1860 C 0.37637 0.18806 0.86526 0.0
C1861 C 0.33884 0.13177 0.90383 0.0
N1862 N 0.43667 0.21394 0.88941 0.0
N1863 N 0.28954 0.09207 0.87288 0.0
H1864 H 0.32918 0.11227 0.94237 0.0
H1865 H 0.28827 0.08842 0.92265 0.0
H1866 H 0.27683 0.08654 0.85474 0.0
H1867 H 0.27794 0.06826 0.88486 0.0
H1868 H 0.45346 0.23114 0.87422 0.0
H1869 H 0.45323 0.21461 0.90522 0.0
H1870 H 0.41608 0.24484 0.85361 0.0
H1871 H 0.37572 0.22083 0.83358 0.0
C1872 C 0.84068 0.18895 0.89747 0.0
C1873 C 0.8344 0.22045 0.89964 0.0
C1874 C 0.85921 0.24037 0.85585 0.0
C1875 C 0.86234 0.20712 0.853 0.0
N1876 N 0.84689 0.14521 0.86903 0.0
N1877 N 0.82924 0.27113 0.87894 0.0
C1878 C 0.85021 0.17998 0.8732 0.0
C1879 C 0.84106 0.24463 0.87819 0.0
N1880 N 0.83953 0.16868 0.91877 0.0
N1881 N 0.87512 0.26871 0.83784 0.0
H1882 H 0.81516 0.27455 0.89479 0.0
H1883 H 0.82989 0.28703 0.86303 0.0
H1884 H 0.88942 0.26716 0.82147 0.0
H1885 H 0.87729 0.2952 0.84026 0.0
H1886 H 0.84802 0.14809 0.91864 0.0
H1887 H 0.83378 0.17486 0.93707 0.0
H1888 H 0.83446 0.12296 0.88228 0.0
H1889 H 0.85285 0.13729 0.85134 0.0
C1890 C 0.33093 0.12533 0.46554 0.0
C1891 C 0.29646 0.12816 0.46358 0.0
C1892 C 0.30724 0.15358 0.50714 0.0
C1893 C 0.33898 0.14653 0.51008 0.0
N1894 N 0.3738 0.11584 0.49398 0.0
N1895 N 0.24626 0.13536 0.48528 0.0
C1896 C 0.3486 0.12932 0.48986 0.0
C1897 C 0.28286 0.13933 0.48524 0.0
N1898 N 0.34808 0.12076 0.44413 0.0
N1899 N 0.30137 0.17542 0.52448 0.0
H1900 H 0.22682 0.12356 0.47001 0.0
H1901 H 0.23376 0.1399 0.50151 0.0
H1902 H 0.31964 0.18809 0.54015 0.0
H1903 H 0.28087 0.18426 0.52174 0.0
H1904 H 0.37524 0.1221 0.44444 0.0
H1905 H 0.33746 0.11989 0.42574 0.0
H1906 H 0.37891 0.09998 0.48044 0.0
H1907 H 0.3862 0.11687 0.51183 0.0
C1908 C 0.88389 0.14606 0.47777 0.0
C1909 C 0.88985 0.17295 0.45829 0.0
C1910 C 0.86561 0.20391 0.48745 0.0
C1911 C 0.85287 0.17286 0.50483 0.0
N1912 N 0.84439 0.11061 0.51413 0.0
N1913 N 0.88136 0.22499 0.44343 0.0
C1914 C 0.86078 0.14299 0.49949 0.0
C1915 C 0.8797 0.2015 0.46284 0.0
N1916 N 0.9006 0.12363 0.47561 0.0
N1917 N 0.86494 0.23597 0.4946 0.0
H1918 H 0.89062 0.22373 0.42496 0.0
H1919 H 0.87024 0.24345 0.44511 0.0
H1920 H 0.85576 0.2391 0.51272 0.0
H1921 H 0.87729 0.26079 0.48358 0.0
H1922 H 0.90011 0.10596 0.49034 0.0
H1923 H 0.91853 0.12583 0.46021 0.0
H1924 H 0.84611 0.08654 0.50935 0.0
H1925 H 0.82571 0.10617 0.52953 0.0
C1926 C 0.84299 0.78631 0.48416 0.0
C1927 C 0.87616 0.79188 0.46986 0.0
C1928 C 0.89065 0.75824 0.50332 0.0
C1929 C 0.85209 0.74358 0.51312 0.0
N1930 N 0.79276 0.7473 0.51507 0.0
N1931 N 0.94304 0.81098 0.48044 0.0
C1932 C 0.82876 0.7591 0.50444 0.0
C1933 C 0.90396 0.78607 0.4835 0.0
N1934 N 0.82885 0.81066 0.48079 0.0
N1935 N 0.91421 0.74491 0.5122 0.0
H1936 H 0.95305 0.83562 0.46932 0.0
H1937 H 0.96455 0.81003 0.49156 0.0
H1938 H 0.90588 0.72504 0.52705 0.0
H1939 H 0.941 0.75209 0.50365 0.0
H1940 H 0.80678 0.81012 0.49211 0.0
H1941 H 0.84303 0.83443 0.46877 0.0
H1942 H 0.77283 0.7545 0.50744 0.0
H1943 H 0.78225 0.72886 0.53079 0.0
loop_
_geom_bond_atom_site_label_1
_geom_bond_atom_site_label_2
_geom_bond_distance
_geom_bond_site_symmetry_2
_ccdc_geom_bond_type
H0 C5 0.930 . S
H1 C8 0.930 . S
H2 C10 0.930 . S
H3 C4 1.016 . S
C4 H3 1.016 . S
C4 N11 1.286 . S
C5 H0 0.930 . S
C5 C6 1.397 . S
C5 C7 1.361 . S
C6 C5 1.397 . S
C6 C10 1.390 . S
C7 C5 1.361 . S
C7 C8 1.393 . S
C7 N11 1.413 . S
C8 H1 0.930 . S
C8 C7 1.393 . S
C8 C9 1.399 . S
C9 C8 1.399 . S
C9 C10 1.381 . S
C10 H2 0.930 . S
C10 C6 1.390 . S
C10 C9 1.381 . S
N11 C4 1.286 . S
N11 C7 1.413 . S
H12 C17 0.930 . S
H13 C20 0.930 . S
H14 C22 0.930 . S
H15 C16 1.016 . S
C16 H15 1.016 . S
C16 N23 1.286 . S
C17 H12 0.930 . S
C17 C18 1.397 . S
C17 C19 1.361 . S
C18 C17 1.397 . S
C18 C22 1.390 . S
C19 C17 1.361 . S
C19 C20 1.393 . S
C19 N23 1.413 . S
C20 H13 0.930 . S
C20 C19 1.393 . S
C20 C21 1.399 . S
C21 C20 1.399 . S
C21 C22 1.381 . S
C22 H14 0.930 . S
C22 C18 1.390 . S
C22 C21 1.381 . S
N23 C16 1.286 . S
N23 C19 1.413 . S
H24 C29 0.930 . S
H25 C32 0.930 . S
H26 C34 0.930 . S
H27 C28 1.016 . S
C28 H27 1.016 . S
C28 N35 1.286 . S
C29 H24 0.930 . S
C29 C30 1.397 . S
C29 C31 1.361 . S
C30 C29 1.397 . S
C30 C34 1.390 . S
C31 C29 1.361 . S
C31 C32 1.393 . S
C31 N35 1.413 . S
C32 H25 0.930 . S
C32 C31 1.393 . S
C32 C33 1.399 . S
C33 C32 1.399 . S
C33 C34 1.381 . S
C34 H26 0.930 . S
C34 C30 1.390 . S
C34 C33 1.381 . S
N35 C28 1.286 . S
N35 C31 1.413 . S
H36 C41 0.930 . S
H37 C44 0.930 . S
H38 C46 0.930 . S
H39 C40 1.016 . S
C40 H39 1.016 . S
C40 N47 1.286 . S
C41 H36 0.930 . S
C41 C42 1.397 . S
C41 C43 1.361 . S
C42 C41 1.397 . S
C42 C46 1.390 . S
C43 C41 1.361 . S
C43 C44 1.393 . S
C43 N47 1.413 . S
C44 H37 0.930 . S
C44 C43 1.393 . S
C44 C45 1.399 . S
C45 C44 1.399 . S
C45 C46 1.381 . S
C46 H38 0.930 . S
C46 C42 1.390 . S
C46 C45 1.381 . S
N47 C40 1.286 . S
N47 C43 1.413 . S
H48 C53 0.930 . S
H49 C56 0.930 . S
H50 C58 0.930 . S
H51 C52 1.016 . S
C52 H51 1.016 . S
C52 N59 1.286 . S
C53 H48 0.930 . S
C53 C54 1.397 . S
C53 C55 1.361 . S
C54 C53 1.397 . S
C54 C58 1.390 . S
C55 C53 1.361 . S
C55 C56 1.393 . S
C55 N59 1.413 . S
C56 H49 0.930 . S
C56 C55 1.393 . S
C56 C57 1.399 . S
C57 C56 1.399 . S
C57 C58 1.381 . S
C58 H50 0.930 . S
C58 C54 1.390 . S
C58 C57 1.381 . S
N59 C52 1.286 . S
N59 C55 1.413 . S
H60 C65 0.930 . S
H61 C68 0.930 . S
H62 C70 0.930 . S
H63 C64 1.016 . S
C64 H63 1.016 . S
C64 N71 1.286 . S
C65 H60 0.930 . S
C65 C66 1.397 . S
C65 C67 1.361 . S
C66 C65 1.397 . S
C66 C70 1.390 . S
C67 C65 1.361 . S
C67 C68 1.393 . S
C67 N71 1.413 . S
C68 H61 0.930 . S
C68 C67 1.393 . S
C68 C69 1.399 . S
C69 C68 1.399 . S
C69 C70 1.381 . S
C70 H62 0.930 . S
C70 C66 1.390 . S
C70 C69 1.381 . S
N71 C64 1.286 . S
N71 C67 1.413 . S
H72 C77 0.930 . S
H73 C80 0.930 . S
H74 C82 0.930 . S
H75 C76 1.016 . S
C76 H75 1.016 . S
C76 N83 1.286 . S
C77 H72 0.930 . S
C77 C78 1.397 . S
C77 C79 1.361 . S
C78 C77 1.397 . S
C78 C82 1.390 . S
C79 C77 1.361 . S
C79 C80 1.393 . S
C79 N83 1.413 . S
C80 H73 0.930 . S
C80 C79 1.393 . S
C80 C81 1.399 . S
C81 C80 1.399 . S
C81 C82 1.381 . S
C82 H74 0.930 . S
C82 C78 1.390 . S
C82 C81 1.381 . S
N83 C76 1.286 . S
N83 C79 1.413 . S
H84 C89 0.930 . S
H85 C92 0.930 . S
H86 C94 0.930 . S
H87 C88 1.016 . S
C88 H87 1.016 . S
C88 N95 1.286 . S
C89 H84 0.930 . S
C89 C90 1.397 . S
C89 C91 1.361 . S
C90 C89 1.397 . S
C90 C94 1.390 . S
C91 C89 1.361 . S
C91 C92 1.393 . S
C91 N95 1.413 . S
C92 H85 0.930 . S
C92 C91 1.393 . S
C92 C93 1.399 . S
C93 C92 1.399 . S
C93 C94 1.381 . S
C94 H86 0.930 . S
C94 C90 1.390 . S
C94 C93 1.381 . S
N95 C88 1.286 . S
N95 C91 1.413 . S
H96 C101 0.930 . S
H97 C104 0.930 . S
H98 C106 0.930 . S
H99 C100 1.016 . S
C100 H99 1.016 . S
C100 N107 1.286 . S
C101 H96 0.930 . S
C101 C102 1.397 . S
C101 C103 1.361 . S
C102 C101 1.397 . S
C102 C106 1.390 . S
C103 C101 1.361 . S
C103 C104 1.393 . S
C103 N107 1.413 . S
C104 H97 0.930 . S
C104 C103 1.393 . S
C104 C105 1.399 . S
C105 C104 1.399 . S
C105 C106 1.381 . S
C106 H98 0.930 . S
C106 C102 1.390 . S
C106 C105 1.381 . S
N107 C100 1.286 . S
N107 C103 1.413 . S
H108 C113 0.930 . S
H109 C116 0.930 . S
H110 C118 0.930 . S
H111 C112 1.016 . S
C112 H111 1.016 . S
C112 N119 1.286 . S
C113 H108 0.930 . S
C113 C114 1.397 . S
C113 C115 1.361 . S
C114 C113 1.397 . S
C114 C118 1.390 . S
C115 C113 1.361 . S
C115 C116 1.393 . S
C115 N119 1.413 . S
C116 H109 0.930 . S
C116 C115 1.393 . S
C116 C117 1.399 . S
C117 C116 1.399 . S
C117 C118 1.381 . S
C118 H110 0.930 . S
C118 C114 1.390 . S
C118 C117 1.381 . S
N119 C112 1.286 . S
N119 C115 1.413 . S
H120 C125 0.930 . S
H121 C128 0.930 . S
H122 C130 0.930 . S
H123 C124 1.016 . S
C124 H123 1.016 . S
C124 N131 1.286 . S
C125 H120 0.930 . S
C125 C126 1.397 . S
C125 C127 1.361 . S
C126 C125 1.397 . S
C126 C130 1.390 . S
C127 C125 1.361 . S
C127 C128 1.393 . S
C127 N131 1.413 . S
C128 H121 0.930 . S
C128 C127 1.393 . S
C128 C129 1.399 . S
C129 C128 1.399 . S
C129 C130 1.381 . S
C130 H122 0.930 . S
C130 C126 1.390 . S
C130 C129 1.381 . S
N131 C124 1.286 . S
N131 C127 1.413 . S
H132 C137 0.930 . S
H133 C140 0.930 . S
H134 C142 0.930 . S
H135 C136 1.016 . S
C136 H135 1.016 . S
C136 N143 1.286 . S
C137 H132 0.930 . S
C137 C138 1.397 . S
C137 C139 1.361 . S
C138 C137 1.397 . S
C138 C142 1.390 . S
C139 C137 1.361 . S
C139 C140 1.393 . S
C139 N143 1.413 . S
C140 H133 0.930 . S
C140 C139 1.393 . S
C140 C141 1.399 . S
C141 C140 1.399 . S
C141 C142 1.381 . S
C142 H134 0.930 . S
C142 C138 1.390 . S
C142 C141 1.381 . S
N143 C136 1.286 . S
N143 C139 1.413 . S
H144 C149 0.930 . S
H145 C152 0.930 . S
H146 C154 0.930 . S
H147 C148 1.016 . S
C148 H147 1.016 . S
C148 N155 1.286 . S
C149 H144 0.930 . S
C149 C150 1.397 . S
C149 C151 1.361 . S
C150 C149 1.397 . S
C150 C154 1.390 . S
C151 C149 1.361 . S
C151 C152 1.393 . S
C151 N155 1.413 . S
C152 H145 0.930 . S
C152 C151 1.393 . S
C152 C153 1.399 . S
C153 C152 1.399 . S
C153 C154 1.381 . S
C154 H146 0.930 . S
C154 C150 1.390 . S
C154 C153 1.381 . S
N155 C148 1.286 . S
N155 C151 1.413 . S
H156 C161 0.930 . S
H157 C164 0.930 . S
H158 C166 0.930 . S
H159 C160 1.016 . S
C160 H159 1.016 . S
C160 N167 1.286 . S
C161 H156 0.930 . S
C161 C162 1.397 . S
C161 C163 1.361 . S
C162 C161 1.397 . S
C162 C166 1.390 . S
C163 C161 1.361 . S
C163 C164 1.393 . S
C163 N167 1.413 . S
C164 H157 0.930 . S
C164 C163 1.393 . S
C164 C165 1.399 . S
C165 C164 1.399 . S
C165 C166 1.381 . S
C166 H158 0.930 . S
C166 C162 1.390 . S
C166 C165 1.381 . S
N167 C160 1.286 . S
N167 C163 1.413 . S
H168 C173 0.930 . S
H169 C176 0.930 . S
H170 C178 0.930 . S
H171 C172 1.016 . S
C172 H171 1.016 . S
C172 N179 1.286 . S
C173 H168 0.930 . S
C173 C174 1.397 . S
C173 C175 1.361 . S
C174 C173 1.397 . S
C174 C178 1.390 . S
C175 C173 1.361 . S
C175 C176 1.393 . S
C175 N179 1.413 . S
C176 H169 0.930 . S
C176 C175 1.393 . S
C176 C177 1.399 . S
C177 C176 1.399 . S
C177 C178 1.381 . S
C178 H170 0.930 . S
C178 C174 1.390 . S
C178 C177 1.381 . S
N179 C172 1.286 . S
N179 C175 1.413 . S
H180 C185 0.930 . S
H181 C188 0.930 . S
H182 C190 0.930 . S
H183 C184 1.016 . S
C184 H183 1.016 . S
C184 N191 1.286 . S
C185 H180 0.930 . S
C185 C186 1.397 . S
C185 C187 1.361 . S
C186 C185 1.397 . S
C186 C190 1.390 . S
C187 C185 1.361 . S
C187 C188 1.393 . S
C187 N191 1.413 . S
C188 H181 0.930 . S
C188 C187 1.393 . S
C188 C189 1.399 . S
C189 C188 1.399 . S
C189 C190 1.381 . S
C190 H182 0.930 . S
C190 C186 1.390 . S
C190 C189 1.381 . S
N191 C184 1.286 . S
N191 C187 1.413 . S
H192 C197 0.930 . S
H193 C200 0.930 . S
H194 C202 0.930 . S
H195 C196 1.016 . S
C196 H195 1.016 . S
C196 N203 1.286 . S
C197 H192 0.930 . S
C197 C198 1.397 . S
C197 C199 1.361 . S
C198 C197 1.397 . S
C198 C202 1.390 . S
C199 C197 1.361 . S
C199 C200 1.393 . S
C199 N203 1.413 . S
C200 H193 0.930 . S
C200 C199 1.393 . S
C200 C201 1.399 . S
C201 C200 1.399 . S
C201 C202 1.381 . S
C202 H194 0.930 . S
C202 C198 1.390 . S
C202 C201 1.381 . S
N203 C196 1.286 . S
N203 C199 1.413 . S
H204 C209 0.930 . S
H205 C212 0.930 . S
H206 C214 0.930 . S
H207 C208 1.016 . S
C208 H207 1.016 . S
C208 N215 1.286 . S
C209 H204 0.930 . S
C209 C210 1.397 . S
C209 C211 1.361 . S
C210 C209 1.397 . S
C210 C214 1.390 . S
C211 C209 1.361 . S
C211 C212 1.393 . S
C211 N215 1.413 . S
C212 H205 0.930 . S
C212 C211 1.393 . S
C212 C213 1.399 . S
C213 C212 1.399 . S
C213 C214 1.381 . S
C214 H206 0.930 . S
C214 C210 1.390 . S
C214 C213 1.381 . S
N215 C208 1.286 . S
N215 C211 1.413 . S
Gd216 N247 2.661 . S
Gd216 N253 2.601 . S
Gd216 O260 2.545 . S
Gd216 O261 2.606 1_545 S
Gd216 O263 2.429 . S
Gd216 O264 2.545 1_545 S
Gd216 O265 2.412 1_545 S
Gd216 O267 2.362 . S
Gd216 O268 2.324 1_545 S
Gd216 C275 2.828 . S
Gd217 N226 2.661 . S
Gd217 N230 2.601 . S
Gd217 O261 2.362 1_556 S
Gd217 O262 2.324 1_565 S
Gd217 O266 2.545 . S
Gd217 O267 2.606 1_566 S
Gd217 O269 2.429 . S
Gd217 O270 2.545 1_565 S
Gd217 O271 2.412 1_565 S
Gd217 C284 2.828 . S
C218 C221 1.417 . S
C218 C223 1.431 . S
C218 C224 1.412 . S
C219 C222 1.437 . S
C219 C223 1.317 . S
C219 H238 0.929 . S
C220 C221 1.426 . S
C220 C222 1.413 . S
C220 N230 1.359 . S
C221 C218 1.417 . S
C221 C220 1.426 . S
C221 N226 1.350 . S
C222 C219 1.437 . S
C222 C220 1.413 . S
C222 C232 1.391 . S
C223 C218 1.431 . S
C223 C219 1.317 . S
C223 H234 0.930 . S
C224 C218 1.412 . S
C224 C225 1.355 . S
C224 H236 0.930 . S
C225 C224 1.355 . S
C225 C227 1.402 . S
C225 H237 0.930 . S
N226 Gd217 2.661 . S
N226 C221 1.350 . S
N226 C227 1.307 . S
C227 C225 1.402 . S
C227 N226 1.307 . S
C227 H228 0.930 . S
H228 C227 0.930 . S
C229 N230 1.334 . S
C229 C231 1.394 . S
C229 H233 0.930 . S
N230 Gd217 2.601 . S
N230 C220 1.359 . S
N230 C229 1.334 . S
C231 C229 1.394 . S
C231 C232 1.359 . S
C231 H243 0.930 . S
C232 C222 1.391 . S
C232 C231 1.359 . S
C232 H244 0.929 . S
H233 C229 0.930 . S
H234 C223 0.930 . S
H235 C252 0.930 . S
H236 C224 0.930 . S
H237 C225 0.930 . S
H238 C219 0.929 . S
H239 C257 0.930 . S
H240 C248 0.930 . S
H241 C249 0.930 . S
H242 C273 0.929 . S
H243 C231 0.930 . S
H244 C232 0.929 . S
H245 C274 0.930 . S
H246 C255 0.930 . S
N247 Gd216 2.661 . S
N247 C251 1.350 . S
N247 C252 1.307 . S
C248 H240 0.930 . S
C248 C249 1.355 . S
C248 C250 1.412 . S
C249 H241 0.930 . S
C249 C248 1.355 . S
C249 C252 1.402 . S
C250 C248 1.412 . S
C250 C251 1.417 . S
C250 C274 1.431 . S
C251 N247 1.350 . S
C251 C250 1.417 . S
C251 C254 1.426 . S
C252 H235 0.930 . S
C252 N247 1.307 . S
C252 C249 1.402 . S
N253 Gd216 2.601 . S
N253 C254 1.359 . S
N253 C257 1.334 . S
C254 C251 1.426 . S
C254 N253 1.359 . S
C254 C258 1.413 . S
C255 H246 0.930 . S
C255 C256 1.359 . S
C255 C257 1.394 . S
C256 C255 1.359 . S
C256 C258 1.391 . S
C256 H259 0.929 . S
C257 H239 0.930 . S
C257 N253 1.334 . S
C257 C255 1.394 . S
C258 C254 1.413 . S
C258 C256 1.391 . S
C258 C273 1.437 . S
H259 C256 0.929 . S
O260 Gd216 2.545 . S
O260 C275 1.258 . S
O261 Gd216 2.606 1_565 S
O261 Gd217 2.362 1_554 S
O261 C272 1.284 . S
O262 Gd217 2.324 1_545 S
O262 C282 1.254 . S
O263 Gd216 2.429 . S
O263 C282 1.268 1_554 S
O264 Gd216 2.545 1_565 S
O264 C272 1.250 . S
O265 Gd216 2.412 1_565 S
O265 C275 1.252 1_565 S
O266 Gd217 2.545 . S
O266 C284 1.258 . S
O267 Gd216 2.362 . S
O267 Gd217 2.606 1_544 S
O267 C283 1.284 1_554 S
O268 Gd216 2.324 1_565 S
O268 C291 1.254 . S
O269 Gd217 2.429 . S
O269 C291 1.268 1_556 S
O270 Gd217 2.545 1_545 S
O270 C283 1.250 . S
O271 Gd217 2.412 1_545 S
O271 C284 1.252 1_545 S
C272 O261 1.284 . S
C272 O264 1.250 . S
C273 H242 0.929 . S
C273 C258 1.437 . S
C273 C274 1.317 . S
C274 H245 0.930 . S
C274 C250 1.431 . S
C274 C273 1.317 . S
C275 Gd216 2.828 . S
C275 O260 1.258 . S
C275 O265 1.252 1_545 S
C275 C276 1.497 . S
C276 C275 1.497 . S
C276 C277 1.395 . S
C276 C278 1.380 1_545 S
C277 C276 1.395 . S
C277 C280 1.398 . S
C277 H292 0.930 . S
C278 C276 1.380 1_565 S
C278 C279 1.391 . S
C278 H293 0.930 . S
C279 C278 1.391 . S
C279 C281 1.387 . S
C280 C277 1.398 . S
C280 C281 1.380 1_545 S
C280 H294 0.930 . S
C281 C279 1.387 . S
C281 C280 1.380 1_565 S
C281 H295 0.930 . S
C282 O262 1.254 . S
C282 O263 1.268 1_556 S
C283 O267 1.284 1_556 S
C283 O270 1.250 . S
C284 Gd217 2.828 . S
C284 O266 1.258 . S
C284 O271 1.252 1_565 S
C284 C285 1.497 1_565 S
C285 C284 1.497 1_545 S
C285 C286 1.395 1_545 S
C285 C287 1.380 . S
C286 C285 1.395 1_565 S
C286 C289 1.398 . S
C286 H296 0.930 . S
C287 C285 1.380 . S
C287 C288 1.391 . S
C287 H297 0.930 . S
C288 C287 1.391 . S
C288 C290 1.387 . S
C289 C286 1.398 . S
C289 C290 1.380 1_565 S
C289 H298 0.930 . S
C290 C288 1.387 . S
C290 C289 1.380 1_545 S
C290 H299 0.930 . S
C291 O268 1.254 . S
C291 O269 1.268 1_554 S
H292 C277 0.930 . S
H293 C278 0.930 . S
H294 C280 0.930 . S
H295 C281 0.930 . S
H296 C286 0.930 . S
H297 C287 0.930 . S
H298 C289 0.930 . S
H299 C290 0.930 . S
Gd300 N331 2.661 . S
Gd300 N337 2.601 . S
Gd300 O344 2.545 . S
Gd300 O345 2.606 1_655 S
Gd300 O347 2.429 . S
Gd300 O348 2.545 1_655 S
Gd300 O349 2.412 1_655 S
Gd300 O351 2.362 . S
Gd300 O352 2.324 1_655 S
Gd300 C359 2.828 . S
Gd301 N310 2.661 . S
Gd301 N314 2.601 . S
Gd301 O345 2.362 1_556 S
Gd301 O346 2.324 1_455 S
Gd301 O350 2.545 . S
Gd301 O351 2.606 1_456 S
Gd301 O353 2.429 . S
Gd301 O354 2.545 1_455 S
Gd301 O355 2.407 1_455 S
Gd301 C368 2.828 . S
C302 C305 1.417 . S
C302 C307 1.431 . S
C302 C308 1.412 . S
C303 C306 1.437 . S
C303 C307 1.317 . S
C303 H322 0.929 . S
C304 C305 1.426 . S
C304 C306 1.413 . S
C304 N314 1.359 . S
C305 C302 1.417 . S
C305 C304 1.426 . S
C305 N310 1.350 . S
C306 C303 1.437 . S
C306 C304 1.413 . S
C306 C316 1.391 . S
C307 C302 1.431 . S
C307 C303 1.317 . S
C307 H318 0.930 . S
C308 C302 1.412 . S
C308 C309 1.355 . S
C308 H320 0.930 . S
C309 C308 1.355 . S
C309 C311 1.402 . S
C309 H321 0.930 . S
N310 Gd301 2.661 . S
N310 C305 1.350 . S
N310 C311 1.307 . S
C311 C309 1.402 . S
C311 N310 1.307 . S
C311 H312 0.930 . S
H312 C311 0.930 . S
C313 N314 1.334 . S
C313 C315 1.394 . S
C313 H317 0.930 . S
N314 Gd301 2.601 . S
N314 C304 1.359 . S
N314 C313 1.334 . S
C315 C313 1.394 . S
C315 C316 1.359 . S
C315 H327 0.930 . S
C316 C306 1.391 . S
C316 C315 1.359 . S
C316 H328 0.929 . S
H317 C313 0.930 . S
H318 C307 0.930 . S
H319 C336 0.930 . S
H320 C308 0.930 . S
H321 C309 0.930 . S
H322 C303 0.929 . S
H323 C341 0.930 . S
H324 C332 0.930 . S
H325 C333 0.930 . S
H326 C357 0.929 . S
H327 C315 0.930 . S
H328 C316 0.929 . S
H329 C358 0.930 . S
H330 C339 0.930 . S
N331 Gd300 2.661 . S
N331 C335 1.350 . S
N331 C336 1.307 . S
C332 H324 0.930 . S
C332 C333 1.355 . S
C332 C334 1.412 . S
C333 H325 0.930 . S
C333 C332 1.355 . S
C333 C336 1.402 . S
C334 C332 1.412 . S
C334 C335 1.417 . S
C334 C358 1.431 . S
C335 N331 1.350 . S
C335 C334 1.417 . S
C335 C338 1.426 . S
C336 H319 0.930 . S
C336 N331 1.307 . S
C336 C333 1.402 . S
N337 Gd300 2.601 . S
N337 C338 1.359 . S
N337 C341 1.334 . S
C338 C335 1.426 . S
C338 N337 1.359 . S
C338 C342 1.413 . S
C339 H330 0.930 . S
C339 C340 1.359 . S
C339 C341 1.394 . S
C340 C339 1.359 . S
C340 C342 1.391 . S
C340 H343 0.929 . S
C341 H323 0.930 . S
C341 N337 1.334 . S
C341 C339 1.394 . S
C342 C338 1.413 . S
C342 C340 1.391 . S
C342 C357 1.437 . S
H343 C340 0.929 . S
O344 Gd300 2.545 . S
O344 C359 1.258 . S
O345 Gd300 2.606 1_455 S
O345 Gd301 2.362 1_554 S
O345 C356 1.284 . S
O346 Gd301 2.324 1_655 S
O346 C366 1.254 . S
O347 Gd300 2.429 . S
O347 C366 1.268 1_554 S
O348 Gd300 2.545 1_455 S
O348 C356 1.250 . S
O349 Gd300 2.412 1_455 S
O349 C359 1.252 1_455 S
O350 Gd301 2.545 . S
O350 C368 1.258 . S
O351 Gd300 2.362 . S
O351 Gd301 2.606 1_654 S
O351 C367 1.284 1_554 S
O352 Gd300 2.324 1_455 S
O352 C375 1.254 . S
O353 Gd301 2.429 . S
O353 C375 1.268 1_556 S
O354 Gd301 2.545 1_655 S
O354 C367 1.250 . S
O355 Gd301 2.407 1_655 S
O355 C368 1.254 1_655 S
C356 O345 1.284 . S
C356 O348 1.250 . S
C357 H326 0.929 . S
C357 C342 1.437 . S
C357 C358 1.317 . S
C358 H329 0.930 . S
C358 C334 1.431 . S
C358 C357 1.317 . S
C359 Gd300 2.828 . S
C359 O344 1.258 . S
C359 O349 1.252 1_655 S
C359 C360 1.497 1_655 S
C360 C359 1.497 1_455 S
C360 C361 1.395 1_455 S
C360 C362 1.380 . S
C361 C360 1.395 1_655 S
C361 C364 1.398 . S
C361 H376 0.930 . S
C362 C360 1.380 . S
C362 C363 1.391 . S
C362 H377 0.930 . S
C363 C362 1.391 . S
C363 C365 1.387 . S
C364 C361 1.398 . S
C364 C365 1.380 1_655 S
C364 H378 0.930 . S
C365 C363 1.387 . S
C365 C364 1.380 1_455 S
C365 H379 0.930 . S
C366 O346 1.254 . S
C366 O347 1.268 1_556 S
C367 O351 1.284 1_556 S
C367 O354 1.250 . S
C368 Gd301 2.828 . S
C368 O350 1.258 . S
C368 O355 1.254 1_455 S
C368 C369 1.497 . S
C369 C368 1.497 . S
C369 C370 1.395 . S
C369 C371 1.380 1_455 S
C370 C369 1.395 . S
C370 C373 1.398 . S
C370 H380 0.930 . S
C371 C369 1.380 1_655 S
C371 C372 1.391 . S
C371 H381 0.930 . S
C372 C371 1.391 . S
C372 C374 1.387 . S
C373 C370 1.398 . S
C373 C374 1.380 1_455 S
C373 H382 0.930 . S
C374 C372 1.387 . S
C374 C373 1.380 1_655 S
C374 H383 0.930 . S
C375 O352 1.254 . S
C375 O353 1.268 1_554 S
H376 C361 0.930 . S
H377 C362 0.930 . S
H378 C364 0.930 . S
H379 C365 0.930 . S
H380 C370 0.930 . S
H381 C371 0.930 . S
H382 C373 0.930 . S
H383 C374 0.930 . S
Gd384 N415 2.661 . S
Gd384 N421 2.601 . S
Gd384 O428 2.545 . S
Gd384 O429 2.606 1_556 S
Gd384 O431 2.429 . S
Gd384 O432 2.545 . S
Gd384 O433 2.412 . S
Gd384 O435 2.362 1_556 S
Gd384 O436 2.324 . S
Gd384 C443 2.828 . S
Gd385 N394 2.661 . S
Gd385 N398 2.601 . S
Gd385 O429 2.362 . S
Gd385 O430 2.324 . S
Gd385 O434 2.545 . S
Gd385 O435 2.606 . S
Gd385 O437 2.429 . S
Gd385 O438 2.545 . S
Gd385 O439 2.412 . S
Gd385 C452 2.828 . S
C386 C389 1.417 . S
C386 C391 1.431 . S
C386 C392 1.412 . S
C387 C390 1.437 . S
C387 C391 1.317 . S
C387 H406 0.929 . S
C388 C389 1.426 . S
C388 C390 1.413 . S
C388 N398 1.359 . S
C389 C386 1.417 . S
C389 C388 1.426 . S
C389 N394 1.350 . S
C390 C387 1.437 . S
C390 C388 1.413 . S
C390 C400 1.391 . S
C391 C386 1.431 . S
C391 C387 1.317 . S
C391 H402 0.930 . S
C392 C386 1.412 . S
C392 C393 1.355 . S
C392 H404 0.930 . S
C393 C392 1.355 . S
C393 C395 1.402 . S
C393 H405 0.930 . S
N394 Gd385 2.661 . S
N394 C389 1.350 . S
N394 C395 1.307 . S
C395 C393 1.402 . S
C395 N394 1.307 . S
C395 H396 0.930 . S
H396 C395 0.930 . S
C397 N398 1.334 . S
C397 C399 1.394 . S
C397 H401 0.930 . S
N398 Gd385 2.601 . S
N398 C388 1.359 . S
N398 C397 1.334 . S
C399 C397 1.394 . S
C399 C400 1.359 . S
C399 H411 0.930 . S
C400 C390 1.391 . S
C400 C399 1.359 . S
C400 H412 0.929 . S
H401 C397 0.930 . S
H402 C391 0.930 . S
H403 C420 0.930 . S
H404 C392 0.930 . S
H405 C393 0.930 . S
H406 C387 0.929 . S
H407 C425 0.930 . S
H408 C416 0.930 . S
H409 C417 0.930 . S
H410 C441 0.929 . S
H411 C399 0.930 . S
H412 C400 0.929 . S
H413 C442 0.930 . S
H414 C423 0.930 . S
N415 Gd384 2.661 . S
N415 C419 1.350 . S
N415 C420 1.307 . S
C416 H408 0.930 . S
C416 C417 1.355 . S
C416 C418 1.412 . S
C417 H409 0.930 . S
C417 C416 1.355 . S
C417 C420 1.402 . S
C418 C416 1.412 . S
C418 C419 1.417 . S
C418 C442 1.431 . S
C419 N415 1.350 . S
C419 C418 1.417 . S
C419 C422 1.426 . S
C420 H403 0.930 . S
C420 N415 1.307 . S
C420 C417 1.402 . S
N421 Gd384 2.601 . S
N421 C422 1.359 . S
N421 C425 1.334 . S
C422 C419 1.426 . S
C422 N421 1.359 . S
C422 C426 1.413 . S
C423 H414 0.930 . S
C423 C424 1.359 . S
C423 C425 1.394 . S
C424 C423 1.359 . S
C424 C426 1.391 . S
C424 H427 0.929 . S
C425 H407 0.930 . S
C425 N421 1.334 . S
C425 C423 1.394 . S
C426 C422 1.413 . S
C426 C424 1.391 . S
C426 C441 1.437 . S
H427 C424 0.929 . S
O428 Gd384 2.545 . S
O428 C443 1.258 . S
O429 Gd384 2.606 1_554 S
O429 Gd385 2.362 . S
O429 C440 1.284 1_554 S
O430 Gd385 2.324 . S
O430 C450 1.254 . S
O431 Gd384 2.429 . S
O431 C450 1.268 1_556 S
O432 Gd384 2.545 . S
O432 C440 1.250 . S
O433 Gd384 2.412 . S
O433 C443 1.252 . S
O434 Gd385 2.545 . S
O434 C452 1.258 . S
O435 Gd384 2.362 1_554 S
O435 Gd385 2.606 . S
O435 C451 1.284 . S
O436 Gd384 2.324 . S
O436 C459 1.254 . S
O437 Gd385 2.429 . S
O437 C459 1.268 1_554 S
O438 Gd385 2.545 . S
O438 C451 1.250 . S
O439 Gd385 2.412 . S
O439 C452 1.252 . S
C440 O429 1.284 1_556 S
C440 O432 1.250 . S
C441 H410 0.929 . S
C441 C426 1.437 . S
C441 C442 1.317 . S
C442 H413 0.930 . S
C442 C418 1.431 . S
C442 C441 1.317 . S
C443 Gd384 2.828 . S
C443 O428 1.258 . S
C443 O433 1.252 . S
C443 C444 1.497 . S
C444 C443 1.497 . S
C444 C445 1.395 . S
C444 C446 1.380 . S
C445 C444 1.395 . S
C445 C448 1.398 . S
C445 H460 0.930 . S
C446 C444 1.380 . S
C446 C447 1.391 . S
C446 H461 0.930 . S
C447 C446 1.391 . S
C447 C449 1.387 . S
C448 C445 1.398 . S
C448 C449 1.380 . S
C448 H462 0.930 . S
C449 C447 1.387 . S
C449 C448 1.380 . S
C449 H463 0.930 . S
C450 O430 1.254 . S
C450 O431 1.268 1_554 S
C451 O435 1.284 . S
C451 O438 1.250 . S
C452 Gd385 2.828 . S
C452 O434 1.258 . S
C452 O439 1.252 . S
C452 C453 1.497 . S
C453 C452 1.497 . S
C453 C454 1.395 . S
C453 C455 1.380 . S
C454 C453 1.395 . S
C454 C457 1.398 . S
C454 H464 0.930 . S
C455 C453 1.380 . S
C455 C456 1.391 . S
C455 H465 0.930 . S
C456 C455 1.391 . S
C456 C458 1.387 . S
C457 C454 1.398 . S
C457 C458 1.380 . S
C457 H466 0.930 . S
C458 C456 1.387 . S
C458 C457 1.380 . S
C458 H467 0.930 . S
C459 O436 1.254 . S
C459 O437 1.268 1_556 S
H460 C445 0.930 . S
H461 C446 0.930 . S
H462 C448 0.930 . S
H463 C449 0.930 . S
H464 C454 0.930 . S
H465 C455 0.930 . S
H466 C457 0.930 . S
H467 C458 0.930 . S
Gd468 N499 2.661 . S
Gd468 N505 2.601 . S
Gd468 O512 2.545 . S
Gd468 O513 2.606 . S
Gd468 O515 2.429 . S
Gd468 O516 2.545 . S
Gd468 O517 2.412 . S
Gd468 O519 2.362 . S
Gd468 O520 2.324 . S
Gd468 C527 2.828 . S
Gd469 N478 2.661 . S
Gd469 N482 2.601 . S
Gd469 O513 2.362 . S
Gd469 O514 2.324 . S
Gd469 O518 2.545 . S
Gd469 O519 2.606 . S
Gd469 O521 2.429 . S
Gd469 O522 2.545 . S
Gd469 O523 2.412 . S
Gd469 C536 2.828 . S
C470 C473 1.417 1_655 S
C470 C475 1.431 . S
C470 C476 1.412 . S
C471 C474 1.437 1_655 S
C471 C475 1.317 . S
C471 H490 0.929 . S
C472 C473 1.426 . S
C472 C474 1.413 . S
C472 N482 1.359 . S
C473 C470 1.417 1_455 S
C473 C472 1.426 . S
C473 N478 1.350 . S
C474 C471 1.437 1_455 S
C474 C472 1.413 . S
C474 C484 1.391 . S
C475 C470 1.431 . S
C475 C471 1.317 . S
C475 H486 0.930 . S
C476 C470 1.412 . S
C476 C477 1.355 . S
C476 H488 0.930 . S
C477 C476 1.355 . S
C477 C479 1.402 1_655 S
C477 H489 0.930 . S
N478 Gd469 2.661 . S
N478 C473 1.350 . S
N478 C479 1.307 . S
C479 C477 1.402 1_455 S
C479 N478 1.307 . S
C479 H480 0.930 . S
H480 C479 0.930 . S
C481 N482 1.334 . S
C481 C483 1.394 . S
C481 H485 0.930 . S
N482 Gd469 2.601 . S
N482 C472 1.359 . S
N482 C481 1.334 . S
C483 C481 1.394 . S
C483 C484 1.359 . S
C483 H495 0.930 . S
C484 C474 1.391 . S
C484 C483 1.359 . S
C484 H496 0.929 . S
H485 C481 0.930 . S
H486 C475 0.930 . S
H487 C504 0.930 . S
H488 C476 0.930 . S
H489 C477 0.930 . S
H490 C471 0.929 . S
H491 C509 0.930 . S
H492 C500 0.930 . S
H493 C501 0.930 . S
H494 C525 0.929 . S
H495 C483 0.930 . S
H496 C484 0.929 . S
H497 C526 0.930 . S
H498 C507 0.930 . S
N499 Gd468 2.661 . S
N499 C503 1.350 . S
N499 C504 1.307 . S
C500 H492 0.930 . S
C500 C501 1.355 . S
C500 C502 1.412 . S
C501 H493 0.930 . S
C501 C500 1.355 . S
C501 C504 1.402 . S
C502 C500 1.412 . S
C502 C503 1.417 . S
C502 C526 1.431 . S
C503 N499 1.350 . S
C503 C502 1.417 . S
C503 C506 1.426 . S
C504 H487 0.930 . S
C504 N499 1.307 . S
C504 C501 1.402 . S
N505 Gd468 2.601 . S
N505 C506 1.359 . S
N505 C509 1.334 . S
C506 C503 1.426 . S
C506 N505 1.359 . S
C506 C510 1.413 . S
C507 H498 0.930 . S
C507 C508 1.359 . S
C507 C509 1.394 . S
C508 C507 1.359 . S
C508 C510 1.391 . S
C508 H511 0.929 . S
C509 H491 0.930 . S
C509 N505 1.334 . S
C509 C507 1.394 . S
C510 C506 1.413 . S
C510 C508 1.391 . S
C510 C525 1.437 . S
H511 C508 0.929 . S
O512 Gd468 2.545 . S
O512 C527 1.258 . S
O513 Gd468 2.606 . S
O513 Gd469 2.362 . S
O513 C524 1.284 . S
O514 Gd469 2.324 . S
O514 C534 1.254 . S
O515 Gd468 2.429 . S
O515 C534 1.268 . S
O516 Gd468 2.545 . S
O516 C524 1.250 . S
O517 Gd468 2.412 . S
O517 C527 1.252 . S
O518 Gd469 2.545 . S
O518 C536 1.258 . S
O519 Gd468 2.362 . S
O519 Gd469 2.606 . S
O519 C535 1.284 . S
O520 Gd468 2.324 . S
O520 C543 1.254 . S
O521 Gd469 2.429 . S
O521 C543 1.268 . S
O522 Gd469 2.545 . S
O522 C535 1.250 . S
O523 Gd469 2.412 . S
O523 C536 1.252 . S
C524 O513 1.284 . S
C524 O516 1.250 . S
C525 H494 0.929 . S
C525 C510 1.437 . S
C525 C526 1.317 . S
C526 H497 0.930 . S
C526 C502 1.431 . S
C526 C525 1.317 . S
C527 Gd468 2.828 . S
C527 O512 1.258 . S
C527 O517 1.252 . S
C527 C528 1.497 . S
C528 C527 1.497 . S
C528 C529 1.395 . S
C528 C530 1.380 . S
C529 C528 1.395 . S
C529 C532 1.398 . S
C529 H544 0.930 . S
C530 C528 1.380 . S
C530 C531 1.391 . S
C530 H545 0.930 . S
C531 C530 1.391 . S
C531 C533 1.387 . S
C532 C529 1.398 . S
C532 C533 1.380 . S
C532 H546 0.930 . S
C533 C531 1.387 . S
C533 C532 1.380 . S
C533 H547 0.930 . S
C534 O514 1.254 . S
C534 O515 1.268 . S
C535 O519 1.284 . S
C535 O522 1.250 . S
C536 Gd469 2.828 . S
C536 O518 1.258 . S
C536 O523 1.252 . S
C536 C537 1.497 . S
C537 C536 1.497 . S
C537 C538 1.395 . S
C537 C539 1.380 . S
C538 C537 1.395 . S
C538 C541 1.398 . S
C538 H548 0.930 . S
C539 C537 1.380 . S
C539 C540 1.391 . S
C539 H549 0.930 . S
C540 C539 1.391 . S
C540 C542 1.387 . S
C541 C538 1.398 . S
C541 C542 1.380 . S
C541 H550 0.930 . S
C542 C540 1.387 . S
C542 C541 1.380 . S
C542 H551 0.930 . S
C543 O520 1.254 . S
C543 O521 1.268 . S
H544 C529 0.930 . S
H545 C530 0.930 . S
H546 C532 0.930 . S
H547 C533 0.930 . S
H548 C538 0.930 . S
H549 C539 0.930 . S
H550 C541 0.930 . S
H551 C542 0.930 . S
Gd552 N583 2.661 . S
Gd552 N589 2.601 . S
Gd552 O596 2.545 . S
Gd552 O597 2.606 . S
Gd552 O599 2.429 . S
Gd552 O600 2.545 . S
Gd552 O601 2.412 . S
Gd552 O603 2.362 . S
Gd552 O604 2.324 . S
Gd552 C611 2.828 . S
Gd553 N562 2.661 . S
Gd553 N566 2.601 . S
Gd553 O597 2.362 . S
Gd553 O598 2.324 . S
Gd553 O602 2.545 . S
Gd553 O603 2.606 . S
Gd553 O605 2.429 . S
Gd553 O606 2.545 . S
Gd553 O607 2.412 . S
Gd553 C620 2.828 . S
C554 C557 1.417 . S
C554 C559 1.431 . S
C554 C560 1.412 . S
C555 C558 1.437 . S
C555 C559 1.317 . S
C555 H574 0.929 . S
C556 C557 1.426 . S
C556 C558 1.413 . S
C556 N566 1.359 . S
C557 C554 1.417 . S
C557 C556 1.426 . S
C557 N562 1.350 . S
C558 C555 1.437 . S
C558 C556 1.413 . S
C558 C568 1.391 . S
C559 C554 1.431 . S
C559 C555 1.317 . S
C559 H570 0.930 . S
C560 C554 1.412 . S
C560 C561 1.355 . S
C560 H572 0.930 . S
C561 C560 1.355 . S
C561 C563 1.402 . S
C561 H573 0.930 . S
N562 Gd553 2.661 . S
N562 C557 1.350 . S
N562 C563 1.307 . S
C563 C561 1.402 . S
C563 N562 1.307 . S
C563 H564 0.930 . S
H564 C563 0.930 . S
C565 N566 1.334 . S
C565 C567 1.394 . S
C565 H569 0.930 . S
N566 Gd553 2.601 . S
N566 C556 1.359 . S
N566 C565 1.334 . S
C567 C565 1.394 . S
C567 C568 1.359 . S
C567 H579 0.930 . S
C568 C558 1.391 . S
C568 C567 1.359 . S
C568 H580 0.929 . S
H569 C565 0.930 . S
H570 C559 0.930 . S
H571 C588 0.930 . S
H572 C560 0.930 . S
H573 C561 0.930 . S
H574 C555 0.929 . S
H575 C593 0.930 . S
H576 C584 0.930 . S
H577 C585 0.930 . S
H578 C609 0.929 . S
H579 C567 0.930 . S
H580 C568 0.929 . S
H581 C610 0.930 . S
H582 C591 0.930 . S
N583 Gd552 2.661 . S
N583 C587 1.350 . S
N583 C588 1.307 . S
C584 H576 0.930 . S
C584 C585 1.355 . S
C584 C586 1.412 . S
C585 H577 0.930 . S
C585 C584 1.355 . S
C585 C588 1.402 . S
C586 C584 1.412 . S
C586 C587 1.417 . S
C586 C610 1.431 . S
C587 N583 1.350 . S
C587 C586 1.417 . S
C587 C590 1.426 . S
C588 H571 0.930 . S
C588 N583 1.307 . S
C588 C585 1.402 . S
N589 Gd552 2.601 . S
N589 C590 1.359 . S
N589 C593 1.334 . S
C590 C587 1.426 . S
C590 N589 1.359 . S
C590 C594 1.413 . S
C591 H582 0.930 . S
C591 C592 1.359 . S
C591 C593 1.394 . S
C592 C591 1.359 . S
C592 C594 1.391 . S
C592 H595 0.929 . S
C593 H575 0.930 . S
C593 N589 1.334 . S
C593 C591 1.394 . S
C594 C590 1.413 . S
C594 C592 1.391 . S
C594 C609 1.437 . S
H595 C592 0.929 . S
O596 Gd552 2.545 . S
O596 C611 1.258 . S
O597 Gd552 2.606 . S
O597 Gd553 2.362 . S
O597 C608 1.284 . S
O598 Gd553 2.324 . S
O598 C618 1.254 . S
O599 Gd552 2.429 . S
O599 C618 1.268 . S
O600 Gd552 2.545 . S
O600 C608 1.250 . S
O601 Gd552 2.412 . S
O601 C611 1.252 . S
O602 Gd553 2.545 . S
O602 C620 1.258 . S
O603 Gd552 2.362 . S
O603 Gd553 2.606 . S
O603 C619 1.284 . S
O604 Gd552 2.324 . S
O604 C627 1.254 . S
O605 Gd553 2.429 . S
O605 C627 1.268 . S
O606 Gd553 2.545 . S
O606 C619 1.250 . S
O607 Gd553 2.412 . S
O607 C620 1.252 . S
C608 O597 1.284 . S
C608 O600 1.250 . S
C609 H578 0.929 . S
C609 C594 1.437 . S
C609 C610 1.317 . S
C610 H581 0.930 . S
C610 C586 1.431 . S
C610 C609 1.317 . S
C611 Gd552 2.828 . S
C611 O596 1.258 . S
C611 O601 1.252 . S
C611 C612 1.497 . S
C612 C611 1.497 . S
C612 C613 1.395 . S
C612 C614 1.380 . S
C613 C612 1.395 . S
C613 C616 1.398 . S
C613 H628 0.930 . S
C614 C612 1.380 . S
C614 C615 1.391 . S
C614 H629 0.930 . S
C615 C614 1.391 . S
C615 C617 1.387 . S
C616 C613 1.398 . S
C616 C617 1.380 . S
C616 H630 0.930 . S
C617 C615 1.387 . S
C617 C616 1.380 . S
C617 H631 0.930 . S
C618 O598 1.254 . S
C618 O599 1.268 . S
C619 O603 1.284 . S
C619 O606 1.250 . S
C620 Gd553 2.828 . S
C620 O602 1.258 . S
C620 O607 1.252 . S
C620 C621 1.497 . S
C621 C620 1.497 . S
C621 C622 1.395 . S
C621 C623 1.380 . S
C622 C621 1.395 . S
C622 C625 1.398 . S
C622 H632 0.930 . S
C623 C621 1.380 . S
C623 C624 1.391 . S
C623 H633 0.930 . S
C624 C623 1.391 . S
C624 C626 1.387 . S
C625 C622 1.398 . S
C625 C626 1.380 . S
C625 H634 0.930 . S
C626 C624 1.387 . S
C626 C625 1.380 . S
C626 H635 0.930 . S
C627 O604 1.254 . S
C627 O605 1.268 . S
H628 C613 0.930 . S
H629 C614 0.930 . S
H630 C616 0.930 . S
H631 C617 0.930 . S
H632 C622 0.930 . S
H633 C623 0.930 . S
H634 C625 0.930 . S
H635 C626 0.930 . S
Gd636 N667 2.661 . S
Gd636 N673 2.601 . S
Gd636 O680 2.545 . S
Gd636 O681 2.606 . S
Gd636 O683 2.429 . S
Gd636 O684 2.545 . S
Gd636 O685 2.412 . S
Gd636 O687 2.362 . S
Gd636 O688 2.324 . S
Gd636 C695 2.828 . S
Gd637 N646 2.661 . S
Gd637 N650 2.601 . S
Gd637 O681 2.362 . S
Gd637 O682 2.324 . S
Gd637 O686 2.545 . S
Gd637 O687 2.606 . S
Gd637 O689 2.429 . S
Gd637 O690 2.545 . S
Gd637 O691 2.412 . S
Gd637 C704 2.828 . S
C638 C641 1.417 . S
C638 C643 1.431 . S
C638 C644 1.412 . S
C639 C642 1.437 . S
C639 C643 1.317 . S
C639 H658 0.929 . S
C640 C641 1.426 . S
C640 C642 1.413 . S
C640 N650 1.359 . S
C641 C638 1.417 . S
C641 C640 1.426 . S
C641 N646 1.350 . S
C642 C639 1.437 . S
C642 C640 1.413 . S
C642 C652 1.391 . S
C643 C638 1.431 . S
C643 C639 1.317 . S
C643 H654 0.930 . S
C644 C638 1.412 . S
C644 C645 1.355 . S
C644 H656 0.930 . S
C645 C644 1.355 . S
C645 C647 1.402 . S
C645 H657 0.930 . S
N646 Gd637 2.661 . S
N646 C641 1.350 . S
N646 C647 1.307 . S
C647 C645 1.402 . S
C647 N646 1.307 . S
C647 H648 0.930 . S
H648 C647 0.930 . S
C649 N650 1.334 . S
C649 C651 1.394 . S
C649 H653 0.930 . S
N650 Gd637 2.601 . S
N650 C640 1.359 . S
N650 C649 1.334 . S
C651 C649 1.394 . S
C651 C652 1.359 . S
C651 H663 0.930 . S
C652 C642 1.391 . S
C652 C651 1.359 . S
C652 H664 0.929 . S
H653 C649 0.930 . S
H654 C643 0.930 . S
H655 C672 0.930 . S
H656 C644 0.930 . S
H657 C645 0.930 . S
H658 C639 0.929 . S
H659 C677 0.930 . S
H660 C668 0.930 . S
H661 C669 0.930 . S
H662 C693 0.929 . S
H663 C651 0.930 . S
H664 C652 0.929 . S
H665 C694 0.930 . S
H666 C675 0.930 . S
N667 Gd636 2.661 . S
N667 C671 1.350 . S
N667 C672 1.307 . S
C668 H660 0.930 . S
C668 C669 1.355 . S
C668 C670 1.412 . S
C669 H661 0.930 . S
C669 C668 1.355 . S
C669 C672 1.402 . S
C670 C668 1.412 . S
C670 C671 1.417 . S
C670 C694 1.431 . S
C671 N667 1.350 . S
C671 C670 1.417 . S
C671 C674 1.426 . S
C672 H655 0.930 . S
C672 N667 1.307 . S
C672 C669 1.402 . S
N673 Gd636 2.601 . S
N673 C674 1.359 . S
N673 C677 1.334 . S
C674 C671 1.426 . S
C674 N673 1.359 . S
C674 C678 1.413 . S
C675 H666 0.930 . S
C675 C676 1.359 . S
C675 C677 1.394 . S
C676 C675 1.359 . S
C676 C678 1.391 . S
C676 H679 0.929 . S
C677 H659 0.930 . S
C677 N673 1.334 . S
C677 C675 1.394 . S
C678 C674 1.413 . S
C678 C676 1.391 . S
C678 C693 1.437 . S
H679 C676 0.929 . S
O680 Gd636 2.545 . S
O680 C695 1.258 . S
O681 Gd636 2.606 . S
O681 Gd637 2.362 . S
O681 C692 1.284 . S
O682 Gd637 2.324 . S
O682 C702 1.254 . S
O683 Gd636 2.429 . S
O683 C702 1.268 . S
O684 Gd636 2.545 . S
O684 C692 1.250 . S
O685 Gd636 2.412 . S
O685 C695 1.252 . S
O686 Gd637 2.545 . S
O686 C704 1.258 . S
O687 Gd636 2.362 . S
O687 Gd637 2.606 . S
O687 C703 1.284 . S
O688 Gd636 2.324 . S
O688 C711 1.254 . S
O689 Gd637 2.429 . S
O689 C711 1.268 . S
O690 Gd637 2.545 . S
O690 C703 1.250 . S
O691 Gd637 2.412 . S
O691 C704 1.252 . S
C692 O681 1.284 . S
C692 O684 1.250 . S
C693 H662 0.929 . S
C693 C678 1.437 . S
C693 C694 1.317 . S
C694 H665 0.930 . S
C694 C670 1.431 . S
C694 C693 1.317 . S
C695 Gd636 2.828 . S
C695 O680 1.258 . S
C695 O685 1.252 . S
C695 C696 1.497 . S
C696 C695 1.497 . S
C696 C697 1.395 . S
C696 C698 1.380 . S
C697 C696 1.395 . S
C697 C700 1.398 . S
C697 H712 0.930 . S
C698 C696 1.380 . S
C698 C699 1.391 . S
C698 H713 0.930 . S
C699 C698 1.391 . S
C699 C701 1.387 . S
C700 C697 1.398 . S
C700 C701 1.380 . S
C700 H714 0.930 . S
C701 C699 1.387 . S
C701 C700 1.380 . S
C701 H715 0.930 . S
C702 O682 1.254 . S
C702 O683 1.268 . S
C703 O687 1.284 . S
C703 O690 1.250 . S
C704 Gd637 2.828 . S
C704 O686 1.258 . S
C704 O691 1.252 . S
C704 C705 1.497 . S
C705 C704 1.497 . S
C705 C706 1.395 . S
C705 C707 1.380 . S
C706 C705 1.395 . S
C706 C709 1.398 . S
C706 H716 0.930 . S
C707 C705 1.380 . S
C707 C708 1.391 . S
C707 H717 0.930 . S
C708 C707 1.391 . S
C708 C710 1.387 . S
C709 C706 1.398 . S
C709 C710 1.380 . S
C709 H718 0.930 . S
C710 C708 1.387 . S
C710 C709 1.380 . S
C710 H719 0.930 . S
C711 O688 1.254 . S
C711 O689 1.268 . S
H712 C697 0.930 . S
H713 C698 0.930 . S
H714 C700 0.930 . S
H715 C701 0.930 . S
H716 C706 0.930 . S
H717 C707 0.930 . S
H718 C709 0.930 . S
H719 C710 0.930 . S
Gd720 N751 2.661 . S
Gd720 N757 2.601 . S
Gd720 O764 2.545 . S
Gd720 O765 2.606 . S
Gd720 O767 2.429 . S
Gd720 O768 2.545 . S
Gd720 O769 2.412 . S
Gd720 O771 2.362 . S
Gd720 O772 2.324 . S
Gd720 C779 2.828 . S
Gd721 N730 2.661 . S
Gd721 N734 2.601 . S
Gd721 O765 2.362 . S
Gd721 O766 2.324 . S
Gd721 O770 2.545 . S
Gd721 O771 2.606 . S
Gd721 O773 2.429 . S
Gd721 O774 2.545 . S
Gd721 O775 2.412 . S
Gd721 C788 2.828 . S
C722 C725 1.417 . S
C722 C727 1.431 . S
C722 C728 1.412 . S
C723 C726 1.437 . S
C723 C727 1.317 . S
C723 H742 0.929 . S
C724 C725 1.426 . S
C724 C726 1.413 . S
C724 N734 1.359 . S
C725 C722 1.417 . S
C725 C724 1.426 . S
C725 N730 1.350 . S
C726 C723 1.437 . S
C726 C724 1.413 . S
C726 C736 1.391 . S
C727 C722 1.431 . S
C727 C723 1.317 . S
C727 H738 0.930 . S
C728 C722 1.412 . S
C728 C729 1.355 . S
C728 H740 0.930 . S
C729 C728 1.355 . S
C729 C731 1.402 . S
C729 H741 0.930 . S
N730 Gd721 2.661 . S
N730 C725 1.350 . S
N730 C731 1.307 . S
C731 C729 1.402 . S
C731 N730 1.307 . S
C731 H732 0.930 . S
H732 C731 0.930 . S
C733 N734 1.334 . S
C733 C735 1.394 . S
C733 H737 0.930 . S
N734 Gd721 2.601 . S
N734 C724 1.359 . S
N734 C733 1.334 . S
C735 C733 1.394 . S
C735 C736 1.359 . S
C735 H747 0.930 . S
C736 C726 1.391 . S
C736 C735 1.359 . S
C736 H748 0.929 . S
H737 C733 0.930 . S
H738 C727 0.930 . S
H739 C756 0.930 . S
H740 C728 0.930 . S
H741 C729 0.930 . S
H742 C723 0.929 . S
H743 C761 0.930 . S
H744 C752 0.930 . S
H745 C753 0.930 . S
H746 C777 0.929 . S
H747 C735 0.930 . S
H748 C736 0.929 . S
H749 C778 0.930 . S
H750 C759 0.930 . S
N751 Gd720 2.661 . S
N751 C755 1.350 . S
N751 C756 1.307 . S
C752 H744 0.930 . S
C752 C753 1.355 . S
C752 C754 1.412 . S
C753 H745 0.930 . S
C753 C752 1.355 . S
C753 C756 1.402 . S
C754 C752 1.412 . S
C754 C755 1.417 . S
C754 C778 1.431 . S
C755 N751 1.350 . S
C755 C754 1.417 . S
C755 C758 1.426 . S
C756 H739 0.930 . S
C756 N751 1.307 . S
C756 C753 1.402 . S
N757 Gd720 2.601 . S
N757 C758 1.359 . S
N757 C761 1.334 . S
C758 C755 1.426 . S
C758 N757 1.359 . S
C758 C762 1.413 . S
C759 H750 0.930 . S
C759 C760 1.359 . S
C759 C761 1.394 . S
C760 C759 1.359 . S
C760 C762 1.391 . S
C760 H763 0.929 . S
C761 H743 0.930 . S
C761 N757 1.334 . S
C761 C759 1.394 . S
C762 C758 1.413 . S
C762 C760 1.391 . S
C762 C777 1.437 . S
H763 C760 0.929 . S
O764 Gd720 2.545 . S
O764 C779 1.258 . S
O765 Gd720 2.606 . S
O765 Gd721 2.362 . S
O765 C776 1.284 . S
O766 Gd721 2.324 . S
O766 C786 1.254 . S
O767 Gd720 2.429 . S
O767 C786 1.268 . S
O768 Gd720 2.545 . S
O768 C776 1.250 . S
O769 Gd720 2.412 . S
O769 C779 1.252 . S
O770 Gd721 2.545 . S
O770 C788 1.258 . S
O771 Gd720 2.362 . S
O771 Gd721 2.606 . S
O771 C787 1.284 . S
O772 Gd720 2.324 . S
O772 C795 1.254 . S
O773 Gd721 2.429 . S
O773 C795 1.268 . S
O774 Gd721 2.545 . S
O774 C787 1.250 . S
O775 Gd721 2.412 . S
O775 C788 1.252 . S
C776 O765 1.284 . S
C776 O768 1.250 . S
C777 H746 0.929 . S
C777 C762 1.437 . S
C777 C778 1.317 . S
C778 H749 0.930 . S
C778 C754 1.431 . S
C778 C777 1.317 . S
C779 Gd720 2.828 . S
C779 O764 1.258 . S
C779 O769 1.252 . S
C779 C780 1.497 . S
C780 C779 1.497 . S
C780 C781 1.395 . S
C780 C782 1.380 . S
C781 C780 1.395 . S
C781 C784 1.398 . S
C781 H796 0.930 . S
C782 C780 1.380 . S
C782 C783 1.391 . S
C782 H797 0.930 . S
C783 C782 1.391 . S
C783 C785 1.387 . S
C784 C781 1.398 . S
C784 C785 1.380 . S
C784 H798 0.930 . S
C785 C783 1.387 . S
C785 C784 1.380 . S
C785 H799 0.930 . S
C786 O766 1.254 . S
C786 O767 1.268 . S
C787 O771 1.284 . S
C787 O774 1.250 . S
C788 Gd721 2.828 . S
C788 O770 1.258 . S
C788 O775 1.252 . S
C788 C789 1.497 . S
C789 C788 1.497 . S
C789 C790 1.395 . S
C789 C791 1.380 . S
C790 C789 1.395 . S
C790 C793 1.398 . S
C790 H800 0.930 . S
C791 C789 1.380 . S
C791 C792 1.391 . S
C791 H801 0.930 . S
C792 C791 1.391 . S
C792 C794 1.387 . S
C793 C790 1.398 . S
C793 C794 1.380 . S
C793 H802 0.930 . S
C794 C792 1.387 . S
C794 C793 1.380 . S
C794 H803 0.930 . S
C795 O772 1.254 . S
C795 O773 1.268 . S
H796 C781 0.930 . S
H797 C782 0.930 . S
H798 C784 0.930 . S
H799 C785 0.930 . S
H800 C790 0.930 . S
H801 C791 0.930 . S
H802 C793 0.930 . S
H803 C794 0.930 . S
Gd804 N835 2.661 . S
Gd804 N841 2.601 . S
Gd804 O848 2.545 . S
Gd804 O849 2.606 . S
Gd804 O851 2.429 . S
Gd804 O852 2.545 . S
Gd804 O853 2.412 . S
Gd804 O855 2.362 . S
Gd804 O856 2.324 . S
Gd804 C863 2.828 . S
Gd805 N814 2.661 . S
Gd805 N818 2.601 . S
Gd805 O849 2.362 . S
Gd805 O850 2.324 . S
Gd805 O854 2.545 . S
Gd805 O855 2.606 . S
Gd805 O857 2.429 . S
Gd805 O858 2.545 . S
Gd805 O859 2.412 . S
Gd805 C872 2.828 . S
C806 C809 1.417 . S
C806 C811 1.431 . S
C806 C812 1.412 . S
C807 C810 1.437 . S
C807 C811 1.317 . S
C807 H826 0.929 . S
C808 C809 1.426 . S
C808 C810 1.413 . S
C808 N818 1.359 . S
C809 C806 1.417 . S
C809 C808 1.426 . S
C809 N814 1.350 . S
C810 C807 1.437 . S
C810 C808 1.413 . S
C810 C820 1.391 . S
C811 C806 1.431 . S
C811 C807 1.317 . S
C811 H822 0.930 . S
C812 C806 1.412 . S
C812 C813 1.355 . S
C812 H824 0.930 . S
C813 C812 1.355 . S
C813 C815 1.402 . S
C813 H825 0.930 . S
N814 Gd805 2.661 . S
N814 C809 1.350 . S
N814 C815 1.307 . S
C815 C813 1.402 . S
C815 N814 1.307 . S
C815 H816 0.930 . S
H816 C815 0.930 . S
C817 N818 1.334 . S
C817 C819 1.394 . S
C817 H821 0.930 . S
N818 Gd805 2.601 . S
N818 C808 1.359 . S
N818 C817 1.334 . S
C819 C817 1.394 . S
C819 C820 1.359 . S
C819 H831 0.930 . S
C820 C810 1.391 . S
C820 C819 1.359 . S
C820 H832 0.929 . S
H821 C817 0.930 . S
H822 C811 0.930 . S
H823 C840 0.930 . S
H824 C812 0.930 . S
H825 C813 0.930 . S
H826 C807 0.929 . S
H827 C845 0.930 . S
H828 C836 0.930 . S
H829 C837 0.930 . S
H830 C861 0.929 . S
H831 C819 0.930 . S
H832 C820 0.929 . S
H833 C862 0.930 . S
H834 C843 0.930 . S
N835 Gd804 2.661 . S
N835 C839 1.350 . S
N835 C840 1.307 . S
C836 H828 0.930 . S
C836 C837 1.355 . S
C836 C838 1.412 . S
C837 H829 0.930 . S
C837 C836 1.355 . S
C837 C840 1.402 . S
C838 C836 1.412 . S
C838 C839 1.417 . S
C838 C862 1.431 . S
C839 N835 1.350 . S
C839 C838 1.417 . S
C839 C842 1.426 . S
C840 H823 0.930 . S
C840 N835 1.307 . S
C840 C837 1.402 . S
N841 Gd804 2.601 . S
N841 C842 1.359 . S
N841 C845 1.334 . S
C842 C839 1.426 . S
C842 N841 1.359 . S
C842 C846 1.413 . S
C843 H834 0.930 . S
C843 C844 1.359 . S
C843 C845 1.394 . S
C844 C843 1.359 . S
C844 C846 1.391 . S
C844 H847 0.929 . S
C845 H827 0.930 . S
C845 N841 1.334 . S
C845 C843 1.394 . S
C846 C842 1.413 . S
C846 C844 1.391 . S
C846 C861 1.437 . S
H847 C844 0.929 . S
O848 Gd804 2.545 . S
O848 C863 1.258 . S
O849 Gd804 2.606 . S
O849 Gd805 2.362 . S
O849 C860 1.284 . S
O850 Gd805 2.324 . S
O850 C870 1.254 . S
O851 Gd804 2.429 . S
O851 C870 1.268 . S
O852 Gd804 2.545 . S
O852 C860 1.250 . S
O853 Gd804 2.412 . S
O853 C863 1.252 . S
O854 Gd805 2.545 . S
O854 C872 1.258 . S
O855 Gd804 2.362 . S
O855 Gd805 2.606 . S
O855 C871 1.284 . S
O856 Gd804 2.324 . S
O856 C879 1.254 . S
O857 Gd805 2.429 . S
O857 C879 1.268 . S
O858 Gd805 2.545 . S
O858 C871 1.250 . S
O859 Gd805 2.412 . S
O859 C872 1.252 . S
C860 O849 1.284 . S
C860 O852 1.250 . S
C861 H830 0.929 . S
C861 C846 1.437 . S
C861 C862 1.317 . S
C862 H833 0.930 . S
C862 C838 1.431 . S
C862 C861 1.317 . S
C863 Gd804 2.828 . S
C863 O848 1.258 . S
C863 O853 1.252 . S
C863 C864 1.497 . S
C864 C863 1.497 . S
C864 C865 1.395 . S
C864 C866 1.380 . S
C865 C864 1.395 . S
C865 C868 1.398 . S
C865 H880 0.930 . S
C866 C864 1.380 . S
C866 C867 1.391 . S
C866 H881 0.930 . S
C867 C866 1.391 . S
C867 C869 1.387 . S
C868 C865 1.398 . S
C868 C869 1.380 . S
C868 H882 0.930 . S
C869 C867 1.387 . S
C869 C868 1.380 . S
C869 H883 0.930 . S
C870 O850 1.254 . S
C870 O851 1.268 . S
C871 O855 1.284 . S
C871 O858 1.250 . S
C872 Gd805 2.828 . S
C872 O854 1.258 . S
C872 O859 1.252 . S
C872 C873 1.497 . S
C873 C872 1.497 . S
C873 C874 1.395 . S
C873 C875 1.380 . S
C874 C873 1.395 . S
C874 C877 1.398 . S
C874 H884 0.930 . S
C875 C873 1.380 . S
C875 C876 1.391 . S
C875 H885 0.930 . S
C876 C875 1.391 . S
C876 C878 1.387 . S
C877 C874 1.398 . S
C877 C878 1.380 . S
C877 H886 0.930 . S
C878 C876 1.387 . S
C878 C877 1.380 . S
C878 H887 0.930 . S
C879 O856 1.254 . S
C879 O857 1.268 . S
H880 C865 0.930 . S
H881 C866 0.930 . S
H882 C868 0.930 . S
H883 C869 0.930 . S
H884 C874 0.930 . S
H885 C875 0.930 . S
H886 C877 0.930 . S
H887 C878 0.930 . S
Gd888 N919 2.661 . S
Gd888 N925 2.601 . S
Gd888 O932 2.545 . S
Gd888 O933 2.606 . S
Gd888 O935 2.429 . S
Gd888 O936 2.545 . S
Gd888 O937 2.412 . S
Gd888 O939 2.362 . S
Gd888 O940 2.324 . S
Gd888 C947 2.828 . S
Gd889 N898 2.661 . S
Gd889 N902 2.601 . S
Gd889 O933 2.362 . S
Gd889 O934 2.324 . S
Gd889 O938 2.545 . S
Gd889 O939 2.606 . S
Gd889 O941 2.429 . S
Gd889 O942 2.545 . S
Gd889 O943 2.412 . S
Gd889 C956 2.828 . S
C890 C893 1.417 1_455 S
C890 C895 1.431 . S
C890 C896 1.412 . S
C891 C894 1.437 1_455 S
C891 C895 1.317 . S
C891 H910 0.929 . S
C892 C893 1.426 . S
C892 C894 1.413 . S
C892 N902 1.359 . S
C893 C890 1.417 1_655 S
C893 C892 1.426 . S
C893 N898 1.350 . S
C894 C891 1.437 1_655 S
C894 C892 1.413 . S
C894 C904 1.391 . S
C895 C890 1.431 . S
C895 C891 1.317 . S
C895 H906 0.930 . S
C896 C890 1.412 . S
C896 C897 1.355 . S
C896 H908 0.930 . S
C897 C896 1.355 . S
C897 C899 1.402 1_455 S
C897 H909 0.930 . S
N898 Gd889 2.661 . S
N898 C893 1.350 . S
N898 C899 1.307 . S
C899 C897 1.402 1_655 S
C899 N898 1.307 . S
C899 H900 0.930 . S
H900 C899 0.930 . S
C901 N902 1.334 . S
C901 C903 1.394 . S
C901 H905 0.930 . S
N902 Gd889 2.601 . S
N902 C892 1.359 . S
N902 C901 1.334 . S
C903 C901 1.394 . S
C903 C904 1.359 . S
C903 H915 0.930 . S
C904 C894 1.391 . S
C904 C903 1.359 . S
C904 H916 0.929 . S
H905 C901 0.930 . S
H906 C895 0.930 . S
H907 C924 0.930 . S
H908 C896 0.930 . S
H909 C897 0.930 . S
H910 C891 0.929 . S
H911 C929 0.930 . S
H912 C920 0.930 . S
H913 C921 0.930 . S
H914 C945 0.929 . S
H915 C903 0.930 . S
H916 C904 0.929 . S
H917 C946 0.930 . S
H918 C927 0.930 . S
N919 Gd888 2.661 . S
N919 C923 1.350 . S
N919 C924 1.307 . S
C920 H912 0.930 . S
C920 C921 1.355 . S
C920 C922 1.412 . S
C921 H913 0.930 . S
C921 C920 1.355 . S
C921 C924 1.402 . S
C922 C920 1.412 . S
C922 C923 1.417 . S
C922 C946 1.431 . S
C923 N919 1.350 . S
C923 C922 1.417 . S
C923 C926 1.426 . S
C924 H907 0.930 . S
C924 N919 1.307 . S
C924 C921 1.402 . S
N925 Gd888 2.601 . S
N925 C926 1.359 . S
N925 C929 1.334 . S
C926 C923 1.426 . S
C926 N925 1.359 . S
C926 C930 1.413 . S
C927 H918 0.930 . S
C927 C928 1.359 . S
C927 C929 1.394 . S
C928 C927 1.359 . S
C928 C930 1.391 . S
C928 H931 0.929 . S
C929 H911 0.930 . S
C929 N925 1.334 . S
C929 C927 1.394 . S
C930 C926 1.413 . S
C930 C928 1.391 . S
C930 C945 1.437 . S
H931 C928 0.929 . S
O932 Gd888 2.545 . S
O932 C947 1.258 . S
O933 Gd888 2.606 . S
O933 Gd889 2.362 . S
O933 C944 1.284 . S
O934 Gd889 2.324 . S
O934 C954 1.254 . S
O935 Gd888 2.429 . S
O935 C954 1.268 . S
O936 Gd888 2.545 . S
O936 C944 1.250 . S
O937 Gd888 2.412 . S
O937 C947 1.252 . S
O938 Gd889 2.545 . S
O938 C956 1.258 . S
O939 Gd888 2.362 . S
O939 Gd889 2.606 . S
O939 C955 1.284 . S
O940 Gd888 2.324 . S
O940 C963 1.254 . S
O941 Gd889 2.429 . S
O941 C963 1.268 . S
O942 Gd889 2.545 . S
O942 C955 1.250 . S
O943 Gd889 2.412 . S
O943 C956 1.252 . S
C944 O933 1.284 . S
C944 O936 1.250 . S
C945 H914 0.929 . S
C945 C930 1.437 . S
C945 C946 1.317 . S
C946 H917 0.930 . S
C946 C922 1.431 . S
C946 C945 1.317 . S
C947 Gd888 2.828 . S
C947 O932 1.258 . S
C947 O937 1.252 . S
C947 C948 1.497 . S
C948 C947 1.497 . S
C948 C949 1.395 . S
C948 C950 1.380 . S
C949 C948 1.395 . S
C949 C952 1.398 . S
C949 H964 0.930 . S
C950 C948 1.380 . S
C950 C951 1.391 . S
C950 H965 0.930 . S
C951 C950 1.391 . S
C951 C953 1.387 . S
C952 C949 1.398 . S
C952 C953 1.380 . S
C952 H966 0.930 . S
C953 C951 1.387 . S
C953 C952 1.380 . S
C953 H967 0.930 . S
C954 O934 1.254 . S
C954 O935 1.268 . S
C955 O939 1.284 . S
C955 O942 1.250 . S
C956 Gd889 2.828 . S
C956 O938 1.258 . S
C956 O943 1.252 . S
C956 C957 1.497 . S
C957 C956 1.497 . S
C957 C958 1.395 . S
C957 C959 1.380 . S
C958 C957 1.395 . S
C958 C961 1.398 . S
C958 H968 0.930 . S
C959 C957 1.380 . S
C959 C960 1.391 . S
C959 H969 0.930 . S
C960 C959 1.391 . S
C960 C962 1.387 . S
C961 C958 1.398 . S
C961 C962 1.380 . S
C961 H970 0.930 . S
C962 C960 1.387 . S
C962 C961 1.380 . S
C962 H971 0.930 . S
C963 O940 1.254 . S
C963 O941 1.268 . S
H964 C949 0.930 . S
H965 C950 0.930 . S
H966 C952 0.930 . S
H967 C953 0.930 . S
H968 C958 0.930 . S
H969 C959 0.930 . S
H970 C961 0.930 . S
H971 C962 0.930 . S
C972 C973 1.363 . S
C972 C978 1.379 . S
C972 N980 1.356 . S
C973 C972 1.363 . S
C973 C979 1.363 . S
C974 C975 1.363 . S
C974 C979 1.379 . S
C974 N981 1.356 . S
C975 C974 1.363 . S
C975 C978 1.363 . S
N976 C978 1.356 1_556 S
N976 H988 0.984 . S
N976 H989 0.985 . S
N977 C979 1.356 . S
N977 H982 0.984 . S
N977 H983 0.985 . S
C978 C972 1.379 . S
C978 C975 1.363 . S
C978 N976 1.356 1_554 S
C979 C973 1.363 . S
C979 C974 1.379 . S
C979 N977 1.356 . S
N980 C972 1.356 . S
N980 H986 0.994 . S
N980 H987 0.984 . S
N981 C974 1.356 . S
N981 H984 0.984 . S
N981 H985 0.985 . S
H982 N977 0.984 . S
H983 N977 0.985 . S
H984 N981 0.984 . S
H985 N981 0.985 . S
H986 N980 0.994 . S
H987 N980 0.984 . S
H988 N976 0.984 . S
H989 N976 0.985 . S
C990 C991 1.363 . S
C990 C996 1.379 . S
C990 N998 1.356 . S
C991 C990 1.363 . S
C991 C997 1.363 . S
C992 C993 1.363 . S
C992 C997 1.379 . S
C992 N999 1.356 . S
C993 C992 1.363 . S
C993 C996 1.363 . S
N994 C996 1.356 . S
N994 H1006 0.984 . S
N994 H1007 0.985 . S
N995 C997 1.356 . S
N995 H1000 0.984 . S
N995 H1001 0.985 . S
C996 C990 1.379 . S
C996 C993 1.363 . S
C996 N994 1.356 . S
C997 C991 1.363 . S
C997 C992 1.379 . S
C997 N995 1.356 . S
N998 C990 1.356 . S
N998 H1004 0.984 . S
N998 H1005 0.984 . S
N999 C992 1.356 . S
N999 H1002 0.984 . S
N999 H1003 0.985 . S
H1000 N995 0.984 . S
H1001 N995 0.985 . S
H1002 N999 0.984 . S
H1003 N999 0.985 . S
H1004 N998 0.984 . S
H1005 N998 0.984 . S
H1006 N994 0.984 . S
H1007 N994 0.985 . S
C1008 C1009 1.363 . S
C1008 C1014 1.379 . S
C1008 N1016 1.356 . S
C1009 C1008 1.363 . S
C1009 C1015 1.363 . S
C1010 C1011 1.363 . S
C1010 C1015 1.379 . S
C1010 N1017 1.356 . S
C1011 C1010 1.363 . S
C1011 C1014 1.363 . S
N1012 C1014 1.356 1_556 S
N1012 H1024 0.984 . S
N1012 H1025 0.985 . S
N1013 C1015 1.356 . S
N1013 H1018 0.984 . S
N1013 H1019 0.985 . S
C1014 C1008 1.379 . S
C1014 C1011 1.363 . S
C1014 N1012 1.356 1_554 S
C1015 C1009 1.363 . S
C1015 C1010 1.379 . S
C1015 N1013 1.356 . S
N1016 C1008 1.356 . S
N1016 H1022 0.984 1_554 S
N1016 H1023 0.984 . S
N1017 C1010 1.356 . S
N1017 H1020 0.984 . S
N1017 H1021 0.985 . S
H1018 N1013 0.984 . S
H1019 N1013 0.985 . S
H1020 N1017 0.984 . S
H1021 N1017 0.985 . S
H1022 N1016 0.984 1_556 S
H1023 N1016 0.984 . S
H1024 N1012 0.984 . S
H1025 N1012 0.985 . S
C1026 C1027 1.363 . S
C1026 C1032 1.379 . S
C1026 N1034 1.356 . S
C1027 C1026 1.363 . S
C1027 C1033 1.363 . S
C1028 C1029 1.366 1_554 S
C1028 C1033 1.380 1_554 S
C1028 N1035 1.352 . S
C1029 C1028 1.366 1_556 S
C1029 C1032 1.363 . S
N1030 C1032 1.356 . S
N1030 H1042 0.984 . S
N1030 H1043 0.985 . S
N1031 C1033 1.348 1_554 S
N1031 H1036 0.971 1_554 S
N1031 H1037 1.007 . S
C1032 C1026 1.379 . S
C1032 C1029 1.363 . S
C1032 N1030 1.356 . S
C1033 C1027 1.363 . S
C1033 C1028 1.380 1_556 S
C1033 N1031 1.348 1_556 S
N1034 C1026 1.356 . S
N1034 H1040 0.984 . S
N1034 H1041 0.984 . S
N1035 C1028 1.352 . S
N1035 H1038 0.984 . S
N1035 H1039 0.985 . S
H1036 N1031 0.971 1_556 S
H1037 N1031 1.007 . S
H1038 N1035 0.984 . S
H1039 N1035 0.985 . S
H1040 N1034 0.984 . S
H1041 N1034 0.984 . S
H1042 N1030 0.984 . S
H1043 N1030 0.985 . S
C1044 C1045 1.363 . S
C1044 C1050 1.379 . S
C1044 N1052 1.356 . S
C1045 C1044 1.363 . S
C1045 C1051 1.363 . S
C1046 C1047 1.363 . S
C1046 C1051 1.379 . S
C1046 N1053 1.356 . S
C1047 C1046 1.363 . S
C1047 C1050 1.363 . S
N1048 C1050 1.356 . S
N1048 H1060 0.984 . S
N1048 H1061 0.985 1_556 S
N1049 C1051 1.356 . S
N1049 H1054 0.984 . S
N1049 H1055 0.985 . S
C1050 C1044 1.379 . S
C1050 C1047 1.363 . S
C1050 N1048 1.356 . S
C1051 C1045 1.363 . S
C1051 C1046 1.379 . S
C1051 N1049 1.356 . S
N1052 C1044 1.356 . S
N1052 H1058 0.984 . S
N1052 H1059 0.984 . S
N1053 C1046 1.356 . S
N1053 H1056 0.984 . S
N1053 H1057 0.985 . S
H1054 N1049 0.984 . S
H1055 N1049 0.985 . S
H1056 N1053 0.984 . S
H1057 N1053 0.985 . S
H1058 N1052 0.984 . S
H1059 N1052 0.984 . S
H1060 N1048 0.984 . S
H1061 N1048 0.985 1_554 S
C1062 C1063 1.363 . S
C1062 C1068 1.379 . S
C1062 N1070 1.356 . S
C1063 C1062 1.363 . S
C1063 C1069 1.363 . S
C1064 C1065 1.371 . S
C1064 C1069 1.384 . S
C1064 N1071 1.343 1_556 S
C1065 C1064 1.371 . S
C1065 C1068 1.363 . S
N1066 C1068 1.356 . S
N1066 H1078 0.984 . S
N1066 H1079 0.985 . S
N1067 C1069 1.356 . S
N1067 H1072 0.984 . S
N1067 H1073 0.985 1_556 S
C1068 C1062 1.379 . S
C1068 C1065 1.363 . S
C1068 N1066 1.356 . S
C1069 C1063 1.363 . S
C1069 C1064 1.384 . S
C1069 N1067 1.356 . S
N1070 C1062 1.356 . S
N1070 H1076 0.984 . S
N1070 H1077 0.984 . S
N1071 C1064 1.343 1_554 S
N1071 H1074 0.984 . S
N1071 H1075 0.985 . S
H1072 N1067 0.984 . S
H1073 N1067 0.985 1_554 S
H1074 N1071 0.984 . S
H1075 N1071 0.985 . S
H1076 N1070 0.984 . S
H1077 N1070 0.984 . S
H1078 N1066 0.984 . S
H1079 N1066 0.985 . S
C1080 C1081 1.363 . S
C1080 C1086 1.379 . S
C1080 N1088 1.356 . S
C1081 C1080 1.363 . S
C1081 C1087 1.363 . S
C1082 C1083 1.365 1_554 S
C1082 C1087 1.380 1_554 S
C1082 N1089 1.353 . S
C1083 C1082 1.365 1_556 S
C1083 C1086 1.363 . S
N1084 C1086 1.356 . S
N1084 H1096 0.984 . S
N1084 H1097 0.985 . S
N1085 C1087 1.356 1_554 S
N1085 H1090 0.984 1_554 S
N1085 H1091 0.985 . S
C1086 C1080 1.379 . S
C1086 C1083 1.363 . S
C1086 N1084 1.356 . S
C1087 C1081 1.363 . S
C1087 C1082 1.380 1_556 S
C1087 N1085 1.356 1_556 S
N1088 C1080 1.356 . S
N1088 H1094 0.984 . S
N1088 H1095 0.984 . S
N1089 C1082 1.353 . S
N1089 H1092 0.984 . S
N1089 H1093 0.985 . S
H1090 N1085 0.984 1_556 S
H1091 N1085 0.985 . S
H1092 N1089 0.984 . S
H1093 N1089 0.985 . S
H1094 N1088 0.984 . S
H1095 N1088 0.984 . S
H1096 N1084 0.984 . S
H1097 N1084 0.985 . S
C1098 C1099 1.363 . S
C1098 C1104 1.379 . S
C1098 N1106 1.359 . S
C1099 C1098 1.363 . S
C1099 C1105 1.363 . S
C1100 C1101 1.363 . S
C1100 C1105 1.379 . S
C1100 N1107 1.356 . S
C1101 C1100 1.363 . S
C1101 C1104 1.363 . S
N1102 C1104 1.356 1_554 S
N1102 H1114 0.984 . S
N1102 H1115 0.985 . S
N1103 C1105 1.356 . S
N1103 H1108 0.984 . S
N1103 H1109 0.985 . S
C1104 C1098 1.379 . S
C1104 C1101 1.363 . S
C1104 N1102 1.356 1_556 S
C1105 C1099 1.363 . S
C1105 C1100 1.379 . S
C1105 N1103 1.356 . S
N1106 C1098 1.359 . S
N1106 H1112 0.978 1_556 S
N1106 H1113 0.988 . S
N1107 C1100 1.356 . S
N1107 H1110 0.984 . S
N1107 H1111 0.985 . S
H1108 N1103 0.984 . S
H1109 N1103 0.985 . S
H1110 N1107 0.984 . S
H1111 N1107 0.985 . S
H1112 N1106 0.978 1_554 S
H1113 N1106 0.988 . S
H1114 N1102 0.984 . S
H1115 N1102 0.985 . S
C1116 C1117 1.363 . S
C1116 C1122 1.379 . S
C1116 N1124 1.356 . S
C1117 C1116 1.363 . S
C1117 C1123 1.391 . S
C1118 C1119 1.363 1_554 S
C1118 C1123 1.373 1_554 S
C1118 N1125 1.356 . S
C1119 C1118 1.363 1_556 S
C1119 C1122 1.363 . S
N1120 C1122 1.356 . S
N1120 H1132 0.984 . S
N1120 H1133 0.985 . S
N1121 C1123 1.342 1_554 S
N1121 H1126 0.984 . S
N1121 H1127 0.985 . S
C1122 C1116 1.379 . S
C1122 C1119 1.363 . S
C1122 N1120 1.356 . S
C1123 C1117 1.391 . S
C1123 C1118 1.373 1_556 S
C1123 N1121 1.342 1_556 S
N1124 C1116 1.356 . S
N1124 H1130 0.984 . S
N1124 H1131 0.984 . S
N1125 C1118 1.356 . S
N1125 H1128 0.984 . S
N1125 H1129 0.985 . S
H1126 N1121 0.984 . S
H1127 N1121 0.985 . S
H1128 N1125 0.984 . S
H1129 N1125 0.985 . S
H1130 N1124 0.984 . S
H1131 N1124 0.984 . S
H1132 N1120 0.984 . S
H1133 N1120 0.985 . S
C1134 C1135 1.363 . S
C1134 C1140 1.379 . S
C1134 N1142 1.356 . S
C1135 C1134 1.363 . S
C1135 C1141 1.363 . S
C1136 C1137 1.363 . S
C1136 C1141 1.379 . S
C1136 N1143 1.356 . S
C1137 C1136 1.363 . S
C1137 C1140 1.363 . S
N1138 C1140 1.356 . S
N1138 H1150 0.984 . S
N1138 H1151 0.985 . S
N1139 C1141 1.356 . S
N1139 H1144 0.984 . S
N1139 H1145 0.985 . S
C1140 C1134 1.379 . S
C1140 C1137 1.363 . S
C1140 N1138 1.356 . S
C1141 C1135 1.363 . S
C1141 C1136 1.379 . S
C1141 N1139 1.356 . S
N1142 C1134 1.356 . S
N1142 H1148 0.984 . S
N1142 H1149 0.984 . S
N1143 C1136 1.356 . S
N1143 H1146 0.984 . S
N1143 H1147 0.985 1_554 S
H1144 N1139 0.984 . S
H1145 N1139 0.985 . S
H1146 N1143 0.984 . S
H1147 N1143 0.985 1_556 S
H1148 N1142 0.984 . S
H1149 N1142 0.984 . S
H1150 N1138 0.984 . S
H1151 N1138 0.985 . S
C1152 C1153 1.363 . S
C1152 C1158 1.379 . S
C1152 N1160 1.356 . S
C1153 C1152 1.363 . S
C1153 C1159 1.363 . S
C1154 C1155 1.363 . S
C1154 C1159 1.379 . S
C1154 N1161 1.356 . S
C1155 C1154 1.363 . S
C1155 C1158 1.363 . S
N1156 C1158 1.356 . S
N1156 H1168 0.984 . S
N1156 H1169 0.985 . S
N1157 C1159 1.356 . S
N1157 H1162 0.984 . S
N1157 H1163 0.985 . S
C1158 C1152 1.379 . S
C1158 C1155 1.363 . S
C1158 N1156 1.356 . S
C1159 C1153 1.363 . S
C1159 C1154 1.379 . S
C1159 N1157 1.356 . S
N1160 C1152 1.356 . S
N1160 H1166 0.984 . S
N1160 H1167 0.984 . S
N1161 C1154 1.356 . S
N1161 H1164 0.984 . S
N1161 H1165 0.985 . S
H1162 N1157 0.984 . S
H1163 N1157 0.985 . S
H1164 N1161 0.984 . S
H1165 N1161 0.985 . S
H1166 N1160 0.984 . S
H1167 N1160 0.984 . S
H1168 N1156 0.984 . S
H1169 N1156 0.985 . S
C1170 C1171 1.363 . S
C1170 C1176 1.379 . S
C1170 N1178 1.356 . S
C1171 C1170 1.363 . S
C1171 C1177 1.363 . S
C1172 C1173 1.363 . S
C1172 C1177 1.379 . S
C1172 N1179 1.356 1_554 S
C1173 C1172 1.363 . S
C1173 C1176 1.363 . S
N1174 C1176 1.356 . S
N1174 H1186 0.984 . S
N1174 H1187 0.985 . S
N1175 C1177 1.356 . S
N1175 H1180 0.984 . S
N1175 H1181 0.985 1_554 S
C1176 C1170 1.379 . S
C1176 C1173 1.363 . S
C1176 N1174 1.356 . S
C1177 C1171 1.363 . S
C1177 C1172 1.379 . S
C1177 N1175 1.356 . S
N1178 C1170 1.356 . S
N1178 H1184 0.984 . S
N1178 H1185 0.984 . S
N1179 C1172 1.356 1_556 S
N1179 H1182 0.984 . S
N1179 H1183 0.985 . S
H1180 N1175 0.984 . S
H1181 N1175 0.985 1_556 S
H1182 N1179 0.984 . S
H1183 N1179 0.985 . S
H1184 N1178 0.984 . S
H1185 N1178 0.984 . S
H1186 N1174 0.984 . S
H1187 N1174 0.985 . S
C1188 C1189 1.363 . S
C1188 C1194 1.379 1_655 S
C1188 N1196 1.356 . S
C1189 C1188 1.363 . S
C1189 C1195 1.363 . S
C1190 C1191 1.363 . S
C1190 C1195 1.379 1_455 S
C1190 N1197 1.356 . S
C1191 C1190 1.363 . S
C1191 C1194 1.363 . S
N1192 C1194 1.356 . S
N1192 H1204 0.984 1_455 S
N1192 H1205 0.985 . S
N1193 C1195 1.356 . S
N1193 H1198 0.984 . S
N1193 H1199 0.985 1_655 S
C1194 C1188 1.379 1_455 S
C1194 C1191 1.363 . S
C1194 N1192 1.356 . S
C1195 C1189 1.363 . S
C1195 C1190 1.379 1_655 S
C1195 N1193 1.356 . S
N1196 C1188 1.356 . S
N1196 H1202 0.984 . S
N1196 H1203 0.984 . S
N1197 C1190 1.356 . S
N1197 H1200 0.984 . S
N1197 H1201 0.985 . S
H1198 N1193 0.984 . S
H1199 N1193 0.985 1_455 S
H1200 N1197 0.984 . S
H1201 N1197 0.985 . S
H1202 N1196 0.984 . S
H1203 N1196 0.984 . S
H1204 N1192 0.984 1_655 S
H1205 N1192 0.985 . S
C1206 C1207 1.363 . S
C1206 C1212 1.379 . S
C1206 N1214 1.356 . S
C1207 C1206 1.363 . S
C1207 C1213 1.363 . S
C1208 C1209 1.363 . S
C1208 C1213 1.379 . S
C1208 N1215 1.356 . S
C1209 C1208 1.363 . S
C1209 C1212 1.363 . S
N1210 C1212 1.356 . S
N1210 H1222 0.984 . S
N1210 H1223 0.985 . S
N1211 C1213 1.356 . S
N1211 H1216 0.984 . S
N1211 H1217 0.985 . S
C1212 C1206 1.379 . S
C1212 C1209 1.363 . S
C1212 N1210 1.356 . S
C1213 C1207 1.363 . S
C1213 C1208 1.379 . S
C1213 N1211 1.356 . S
N1214 C1206 1.356 . S
N1214 H1220 0.984 . S
N1214 H1221 0.984 . S
N1215 C1208 1.356 . S
N1215 H1218 0.984 . S
N1215 H1219 0.985 . S
H1216 N1211 0.984 . S
H1217 N1211 0.985 . S
H1218 N1215 0.984 . S
H1219 N1215 0.985 . S
H1220 N1214 0.984 . S
H1221 N1214 0.984 . S
H1222 N1210 0.984 . S
H1223 N1210 0.985 . S
C1224 C1225 1.363 . S
C1224 C1230 1.379 1_545 S
C1224 N1232 1.356 . S
C1225 C1224 1.363 . S
C1225 C1231 1.363 . S
C1226 C1227 1.363 . S
C1226 C1231 1.379 1_565 S
C1226 N1233 1.356 . S
C1227 C1226 1.363 . S
C1227 C1230 1.363 . S
N1228 C1230 1.356 . S
N1228 H1240 0.984 . S
N1228 H1241 0.985 . S
N1229 C1231 1.356 . S
N1229 H1234 0.984 . S
N1229 H1235 0.985 . S
C1230 C1224 1.379 1_565 S
C1230 C1227 1.363 . S
C1230 N1228 1.356 . S
C1231 C1225 1.363 . S
C1231 C1226 1.379 1_545 S
C1231 N1229 1.356 . S
N1232 C1224 1.356 . S
N1232 H1238 0.984 . S
N1232 H1239 0.984 . S
N1233 C1226 1.356 . S
N1233 H1236 0.984 . S
N1233 H1237 0.985 . S
H1234 N1229 0.984 . S
H1235 N1229 0.985 . S
H1236 N1233 0.984 . S
H1237 N1233 0.985 . S
H1238 N1232 0.984 . S
H1239 N1232 0.984 . S
H1240 N1228 0.984 . S
H1241 N1228 0.985 . S
C1242 C1243 1.363 . S
C1242 C1248 1.379 . S
C1242 N1250 1.356 . S
C1243 C1242 1.363 . S
C1243 C1249 1.363 . S
C1244 C1245 1.363 . S
C1244 C1249 1.379 . S
C1244 N1251 1.356 . S
C1245 C1244 1.363 . S
C1245 C1248 1.363 . S
N1246 C1248 1.356 . S
N1246 H1258 0.984 . S
N1246 H1259 0.985 . S
N1247 C1249 1.356 . S
N1247 H1252 0.984 . S
N1247 H1253 0.985 . S
C1248 C1242 1.379 . S
C1248 C1245 1.363 . S
C1248 N1246 1.356 . S
C1249 C1243 1.363 . S
C1249 C1244 1.379 . S
C1249 N1247 1.356 . S
N1250 C1242 1.356 . S
N1250 H1256 0.984 . S
N1250 H1257 0.984 . S
N1251 C1244 1.356 . S
N1251 H1254 0.984 . S
N1251 H1255 0.985 . S
H1252 N1247 0.984 . S
H1253 N1247 0.985 . S
H1254 N1251 0.984 . S
H1255 N1251 0.985 . S
H1256 N1250 0.984 . S
H1257 N1250 0.984 . S
H1258 N1246 0.984 . S
H1259 N1246 0.985 . S
C1260 C1261 1.363 . S
C1260 C1266 1.379 . S
C1260 N1268 1.356 . S
C1261 C1260 1.363 . S
C1261 C1267 1.363 . S
C1262 C1263 1.363 . S
C1262 C1267 1.379 . S
C1262 N1269 1.356 . S
C1263 C1262 1.363 . S
C1263 C1266 1.363 . S
N1264 C1266 1.356 . S
N1264 H1276 0.984 . S
N1264 H1277 0.985 . S
N1265 C1267 1.356 . S
N1265 H1270 0.984 . S
N1265 H1271 0.985 . S
C1266 C1260 1.379 . S
C1266 C1263 1.363 . S
C1266 N1264 1.356 . S
C1267 C1261 1.363 . S
C1267 C1262 1.379 . S
C1267 N1265 1.356 . S
N1268 C1260 1.356 . S
N1268 H1274 0.984 . S
N1268 H1275 0.984 . S
N1269 C1262 1.356 . S
N1269 H1272 0.984 . S
N1269 H1273 0.985 . S
H1270 N1265 0.984 . S
H1271 N1265 0.985 . S
H1272 N1269 0.984 . S
H1273 N1269 0.985 . S
H1274 N1268 0.984 . S
H1275 N1268 0.984 . S
H1276 N1264 0.984 . S
H1277 N1264 0.985 . S
C1278 C1279 1.363 . S
C1278 C1284 1.379 . S
C1278 N1286 1.356 . S
C1279 C1278 1.363 . S
C1279 C1285 1.363 . S
C1280 C1281 1.363 . S
C1280 C1285 1.379 . S
C1280 N1287 1.356 . S
C1281 C1280 1.363 . S
C1281 C1284 1.363 . S
N1282 C1284 1.356 . S
N1282 H1294 0.984 . S
N1282 H1295 0.985 . S
N1283 C1285 1.356 . S
N1283 H1288 0.984 . S
N1283 H1289 0.985 . S
C1284 C1278 1.379 . S
C1284 C1281 1.363 . S
C1284 N1282 1.356 . S
C1285 C1279 1.363 . S
C1285 C1280 1.379 . S
C1285 N1283 1.356 . S
N1286 C1278 1.356 . S
N1286 H1292 0.984 . S
N1286 H1293 0.984 . S
N1287 C1280 1.356 . S
N1287 H1290 0.984 . S
N1287 H1291 0.985 . S
H1288 N1283 0.984 . S
H1289 N1283 0.985 . S
H1290 N1287 0.984 . S
H1291 N1287 0.985 . S
H1292 N1286 0.984 . S
H1293 N1286 0.984 . S
H1294 N1282 0.984 . S
H1295 N1282 0.985 . S
C1296 C1297 1.363 . S
C1296 C1302 1.379 . S
C1296 N1304 1.356 . S
C1297 C1296 1.363 . S
C1297 C1303 1.363 . S
C1298 C1299 1.363 . S
C1298 C1303 1.379 . S
C1298 N1305 1.356 . S
C1299 C1298 1.363 . S
C1299 C1302 1.363 . S
N1300 C1302 1.356 . S
N1300 H1312 0.984 . S
N1300 H1313 0.985 . S
N1301 C1303 1.356 . S
N1301 H1306 0.984 . S
N1301 H1307 0.985 . S
C1302 C1296 1.379 . S
C1302 C1299 1.363 . S
C1302 N1300 1.356 . S
C1303 C1297 1.363 . S
C1303 C1298 1.379 . S
C1303 N1301 1.356 . S
N1304 C1296 1.356 . S
N1304 H1310 0.984 . S
N1304 H1311 0.984 . S
N1305 C1298 1.356 . S
N1305 H1308 0.984 . S
N1305 H1309 0.985 . S
H1306 N1301 0.984 . S
H1307 N1301 0.985 . S
H1308 N1305 0.984 . S
H1309 N1305 0.985 . S
H1310 N1304 0.984 . S
H1311 N1304 0.984 . S
H1312 N1300 0.984 . S
H1313 N1300 0.985 . S
C1314 C1315 1.363 . S
C1314 C1320 1.379 . S
C1314 N1322 1.356 . S
C1315 C1314 1.363 . S
C1315 C1321 1.363 . S
C1316 C1317 1.363 . S
C1316 C1321 1.379 . S
C1316 N1323 1.356 . S
C1317 C1316 1.363 . S
C1317 C1320 1.363 . S
N1318 C1320 1.356 . S
N1318 H1330 0.984 . S
N1318 H1331 0.985 . S
N1319 C1321 1.356 . S
N1319 H1324 0.984 . S
N1319 H1325 0.985 . S
C1320 C1314 1.379 . S
C1320 C1317 1.363 . S
C1320 N1318 1.356 . S
C1321 C1315 1.363 . S
C1321 C1316 1.379 . S
C1321 N1319 1.356 . S
N1322 C1314 1.356 . S
N1322 H1328 0.984 . S
N1322 H1329 0.984 . S
N1323 C1316 1.356 . S
N1323 H1326 0.984 . S
N1323 H1327 0.985 . S
H1324 N1319 0.984 . S
H1325 N1319 0.985 . S
H1326 N1323 0.984 . S
H1327 N1323 0.985 . S
H1328 N1322 0.984 . S
H1329 N1322 0.984 . S
H1330 N1318 0.984 . S
H1331 N1318 0.985 . S
C1332 C1333 1.363 . S
C1332 C1338 1.379 . S
C1332 N1340 1.356 . S
C1333 C1332 1.363 . S
C1333 C1339 1.363 . S
C1334 C1335 1.363 . S
C1334 C1339 1.379 . S
C1334 N1341 1.356 . S
C1335 C1334 1.363 . S
C1335 C1338 1.363 . S
N1336 C1338 1.356 . S
N1336 H1348 0.984 . S
N1336 H1349 0.985 . S
N1337 C1339 1.356 . S
N1337 H1342 0.984 . S
N1337 H1343 0.985 . S
C1338 C1332 1.379 . S
C1338 C1335 1.363 . S
C1338 N1336 1.356 . S
C1339 C1333 1.363 . S
C1339 C1334 1.379 . S
C1339 N1337 1.356 . S
N1340 C1332 1.356 . S
N1340 H1346 0.984 . S
N1340 H1347 0.984 . S
N1341 C1334 1.356 . S
N1341 H1344 0.984 . S
N1341 H1345 0.985 . S
H1342 N1337 0.984 . S
H1343 N1337 0.985 . S
H1344 N1341 0.984 . S
H1345 N1341 0.985 . S
H1346 N1340 0.984 . S
H1347 N1340 0.984 . S
H1348 N1336 0.984 . S
H1349 N1336 0.985 . S
C1350 C1351 1.363 . S
C1350 C1356 1.379 . S
C1350 N1358 1.356 . S
C1351 C1350 1.363 . S
C1351 C1357 1.363 . S
C1352 C1353 1.363 . S
C1352 C1357 1.379 . S
C1352 N1359 1.356 . S
C1353 C1352 1.363 . S
C1353 C1356 1.363 . S
N1354 C1356 1.356 . S
N1354 H1366 0.984 . S
N1354 H1367 0.985 . S
N1355 C1357 1.356 . S
N1355 H1360 0.984 1_565 S
N1355 H1361 0.985 . S
C1356 C1350 1.379 . S
C1356 C1353 1.363 . S
C1356 N1354 1.356 . S
C1357 C1351 1.363 . S
C1357 C1352 1.379 . S
C1357 N1355 1.356 . S
N1358 C1350 1.356 . S
N1358 H1364 0.984 . S
N1358 H1365 0.984 1_565 S
N1359 C1352 1.356 . S
N1359 H1362 0.984 . S
N1359 H1363 0.985 . S
H1360 N1355 0.984 1_545 S
H1361 N1355 0.985 . S
H1362 N1359 0.984 . S
H1363 N1359 0.985 . S
H1364 N1358 0.984 . S
H1365 N1358 0.984 1_545 S
H1366 N1354 0.984 . S
H1367 N1354 0.985 . S
C1368 C1369 1.363 . S
C1368 C1374 1.379 . S
C1368 N1376 1.356 . S
C1369 C1368 1.363 . S
C1369 C1375 1.363 . S
C1370 C1371 1.363 . S
C1370 C1375 1.379 . S
C1370 N1377 1.356 . S
C1371 C1370 1.363 . S
C1371 C1374 1.363 . S
N1372 C1374 1.356 . S
N1372 H1384 0.984 . S
N1372 H1385 0.985 . S
N1373 C1375 1.356 . S
N1373 H1378 0.984 . S
N1373 H1379 0.985 . S
C1374 C1368 1.379 . S
C1374 C1371 1.363 . S
C1374 N1372 1.356 . S
C1375 C1369 1.363 . S
C1375 C1370 1.379 . S
C1375 N1373 1.356 . S
N1376 C1368 1.356 . S
N1376 H1382 0.984 . S
N1376 H1383 0.984 1_455 S
N1377 C1370 1.356 . S
N1377 H1380 0.984 . S
N1377 H1381 0.985 . S
H1378 N1373 0.984 . S
H1379 N1373 0.985 . S
H1380 N1377 0.984 . S
H1381 N1377 0.985 . S
H1382 N1376 0.984 . S
H1383 N1376 0.984 1_655 S
H1384 N1372 0.984 . S
H1385 N1372 0.985 . S
C1386 C1387 1.363 . S
C1386 C1392 1.379 . S
C1386 N1394 1.356 . S
C1387 C1386 1.363 . S
C1387 C1393 1.363 . S
C1388 C1389 1.363 . S
C1388 C1393 1.379 . S
C1388 N1395 1.356 . S
C1389 C1388 1.363 . S
C1389 C1392 1.363 . S
N1390 C1392 1.356 . S
N1390 H1402 0.984 . S
N1390 H1403 0.985 . S
N1391 C1393 1.356 . S
N1391 H1396 0.984 . S
N1391 H1397 0.985 . S
C1392 C1386 1.379 . S
C1392 C1389 1.363 . S
C1392 N1390 1.356 . S
C1393 C1387 1.363 . S
C1393 C1388 1.379 . S
C1393 N1391 1.356 . S
N1394 C1386 1.356 . S
N1394 H1400 0.984 . S
N1394 H1401 0.984 . S
N1395 C1388 1.356 . S
N1395 H1398 0.984 . S
N1395 H1399 0.985 . S
H1396 N1391 0.984 . S
H1397 N1391 0.985 . S
H1398 N1395 0.984 . S
H1399 N1395 0.985 . S
H1400 N1394 0.984 . S
H1401 N1394 0.984 . S
H1402 N1390 0.984 . S
H1403 N1390 0.985 . S
C1404 C1405 1.363 . S
C1404 C1410 1.379 . S
C1404 N1412 1.356 . S
C1405 C1404 1.363 . S
C1405 C1411 1.363 . S
C1406 C1407 1.363 . S
C1406 C1411 1.379 . S
C1406 N1413 1.356 . S
C1407 C1406 1.363 . S
C1407 C1410 1.363 . S
N1408 C1410 1.356 . S
N1408 H1420 0.984 . S
N1408 H1421 0.985 . S
N1409 C1411 1.356 . S
N1409 H1414 0.984 . S
N1409 H1415 0.985 . S
C1410 C1404 1.379 . S
C1410 C1407 1.363 . S
C1410 N1408 1.356 . S
C1411 C1405 1.363 . S
C1411 C1406 1.379 . S
C1411 N1409 1.356 . S
N1412 C1404 1.356 . S
N1412 H1418 0.984 . S
N1412 H1419 0.984 . S
N1413 C1406 1.356 . S
N1413 H1416 0.984 . S
N1413 H1417 0.985 . S
H1414 N1409 0.984 . S
H1415 N1409 0.985 . S
H1416 N1413 0.984 . S
H1417 N1413 0.985 . S
H1418 N1412 0.984 . S
H1419 N1412 0.984 . S
H1420 N1408 0.984 . S
H1421 N1408 0.985 . S
C1422 C1423 1.363 . S
C1422 C1428 1.379 . S
C1422 N1430 1.356 . S
C1423 C1422 1.363 . S
C1423 C1429 1.363 . S
C1424 C1425 1.363 . S
C1424 C1429 1.379 . S
C1424 N1431 1.356 . S
C1425 C1424 1.363 . S
C1425 C1428 1.363 . S
N1426 C1428 1.356 . S
N1426 H1438 0.984 . S
N1426 H1439 0.985 . S
N1427 C1429 1.356 . S
N1427 H1432 0.984 . S
N1427 H1433 0.985 . S
C1428 C1422 1.379 . S
C1428 C1425 1.363 . S
C1428 N1426 1.356 . S
C1429 C1423 1.363 . S
C1429 C1424 1.379 . S
C1429 N1427 1.356 . S
N1430 C1422 1.356 . S
N1430 H1436 0.984 . S
N1430 H1437 0.984 . S
N1431 C1424 1.356 . S
N1431 H1434 0.984 . S
N1431 H1435 0.985 . S
H1432 N1427 0.984 . S
H1433 N1427 0.985 . S
H1434 N1431 0.984 . S
H1435 N1431 0.985 . S
H1436 N1430 0.984 . S
H1437 N1430 0.984 . S
H1438 N1426 0.984 . S
H1439 N1426 0.985 . S
C1440 C1441 1.363 . S
C1440 C1446 1.379 . S
C1440 N1448 1.356 . S
C1441 C1440 1.363 . S
C1441 C1447 1.363 . S
C1442 C1443 1.363 . S
C1442 C1447 1.379 . S
C1442 N1449 1.356 . S
C1443 C1442 1.363 . S
C1443 C1446 1.363 . S
N1444 C1446 1.356 . S
N1444 H1456 0.984 . S
N1444 H1457 0.985 . S
N1445 C1447 1.356 . S
N1445 H1450 0.984 . S
N1445 H1451 0.985 . S
C1446 C1440 1.379 . S
C1446 C1443 1.363 . S
C1446 N1444 1.356 . S
C1447 C1441 1.363 . S
C1447 C1442 1.379 . S
C1447 N1445 1.356 . S
N1448 C1440 1.356 . S
N1448 H1454 0.984 . S
N1448 H1455 0.984 . S
N1449 C1442 1.356 . S
N1449 H1452 0.984 . S
N1449 H1453 0.985 . S
H1450 N1445 0.984 . S
H1451 N1445 0.985 . S
H1452 N1449 0.984 . S
H1453 N1449 0.985 . S
H1454 N1448 0.984 . S
H1455 N1448 0.984 . S
H1456 N1444 0.984 . S
H1457 N1444 0.985 . S
C1458 C1459 1.363 1_545 S
C1458 C1464 1.379 . S
C1458 N1466 1.356 1_545 S
C1459 C1458 1.363 1_565 S
C1459 C1465 1.363 . S
C1460 C1461 1.363 1_565 S
C1460 C1465 1.379 . S
C1460 N1467 1.360 1_565 S
C1461 C1460 1.363 1_545 S
C1461 C1464 1.363 . S
N1462 C1464 1.356 . S
N1462 H1474 0.984 . S
N1462 H1475 0.985 . S
N1463 C1465 1.356 . S
N1463 H1468 0.984 . S
N1463 H1469 0.985 . S
C1464 C1458 1.379 . S
C1464 C1461 1.363 . S
C1464 N1462 1.356 . S
C1465 C1459 1.363 . S
C1465 C1460 1.379 . S
C1465 N1463 1.356 . S
N1466 C1458 1.356 1_565 S
N1466 H1472 0.984 1_565 S
N1466 H1473 0.984 . S
N1467 C1460 1.360 1_545 S
N1467 H1470 0.993 . S
N1467 H1471 0.972 1_545 S
H1468 N1463 0.984 . S
H1469 N1463 0.985 . S
H1470 N1467 0.993 . S
H1471 N1467 0.972 1_565 S
H1472 N1466 0.984 1_545 S
H1473 N1466 0.984 . S
H1474 N1462 0.984 . S
H1475 N1462 0.985 . S
C1476 C1477 1.363 1_655 S
C1476 C1482 1.379 . S
C1476 N1484 1.356 1_655 S
C1477 C1476 1.363 1_455 S
C1477 C1483 1.363 . S
C1478 C1479 1.363 1_455 S
C1478 C1483 1.379 . S
C1478 N1485 1.356 . S
C1479 C1478 1.363 1_655 S
C1479 C1482 1.363 . S
N1480 C1482 1.356 . S
N1480 H1492 0.984 . S
N1480 H1493 0.985 . S
N1481 C1483 1.356 . S
N1481 H1486 0.984 . S
N1481 H1487 0.985 . S
C1482 C1476 1.379 . S
C1482 C1479 1.363 . S
C1482 N1480 1.356 . S
C1483 C1477 1.363 . S
C1483 C1478 1.379 . S
C1483 N1481 1.356 . S
N1484 C1476 1.356 1_455 S
N1484 H1490 0.984 1_455 S
N1484 H1491 0.984 . S
N1485 C1478 1.356 . S
N1485 H1488 0.984 1_455 S
N1485 H1489 0.985 . S
H1486 N1481 0.984 . S
H1487 N1481 0.985 . S
H1488 N1485 0.984 1_655 S
H1489 N1485 0.985 . S
H1490 N1484 0.984 1_655 S
H1491 N1484 0.984 . S
H1492 N1480 0.984 . S
H1493 N1480 0.985 . S
C1494 C1495 1.363 . S
C1494 C1500 1.379 . S
C1494 N1502 1.356 . S
C1495 C1494 1.363 . S
C1495 C1501 1.363 . S
C1496 C1497 1.363 . S
C1496 C1501 1.379 . S
C1496 N1503 1.356 . S
C1497 C1496 1.363 . S
C1497 C1500 1.363 . S
N1498 C1500 1.356 . S
N1498 H1510 0.984 . S
N1498 H1511 0.985 . S
N1499 C1501 1.356 . S
N1499 H1504 0.984 . S
N1499 H1505 0.985 . S
C1500 C1494 1.379 . S
C1500 C1497 1.363 . S
C1500 N1498 1.356 . S
C1501 C1495 1.363 . S
C1501 C1496 1.379 . S
C1501 N1499 1.356 . S
N1502 C1494 1.356 . S
N1502 H1508 0.984 . S
N1502 H1509 0.984 . S
N1503 C1496 1.356 . S
N1503 H1506 0.984 . S
N1503 H1507 0.985 . S
H1504 N1499 0.984 . S
H1505 N1499 0.985 . S
H1506 N1503 0.984 . S
H1507 N1503 0.985 . S
H1508 N1502 0.984 . S
H1509 N1502 0.984 . S
H1510 N1498 0.984 . S
H1511 N1498 0.985 . S
C1512 C1513 1.363 . S
C1512 C1518 1.379 . S
C1512 N1520 1.356 1_655 S
C1513 C1512 1.363 . S
C1513 C1519 1.363 . S
C1514 C1515 1.363 . S
C1514 C1519 1.379 . S
C1514 N1521 1.356 . S
C1515 C1514 1.363 . S
C1515 C1518 1.363 . S
N1516 C1518 1.356 . S
N1516 H1528 0.984 . S
N1516 H1529 0.985 . S
N1517 C1519 1.356 . S
N1517 H1522 0.984 . S
N1517 H1523 0.985 . S
C1518 C1512 1.379 . S
C1518 C1515 1.363 . S
C1518 N1516 1.356 . S
C1519 C1513 1.363 . S
C1519 C1514 1.379 . S
C1519 N1517 1.356 . S
N1520 C1512 1.356 1_455 S
N1520 H1526 0.984 . S
N1520 H1527 0.984 . S
N1521 C1514 1.356 . S
N1521 H1524 0.984 . S
N1521 H1525 0.985 . S
H1522 N1517 0.984 . S
H1523 N1517 0.985 . S
H1524 N1521 0.984 . S
H1525 N1521 0.985 . S
H1526 N1520 0.984 . S
H1527 N1520 0.984 . S
H1528 N1516 0.984 . S
H1529 N1516 0.985 . S
C1530 C1531 1.363 . S
C1530 C1536 1.379 . S
C1530 N1538 1.356 . S
C1531 C1530 1.363 . S
C1531 C1537 1.363 . S
C1532 C1533 1.363 . S
C1532 C1537 1.379 . S
C1532 N1539 1.356 . S
C1533 C1532 1.363 . S
C1533 C1536 1.363 . S
N1534 C1536 1.356 . S
N1534 H1546 0.984 . S
N1534 H1547 0.985 . S
N1535 C1537 1.356 . S
N1535 H1540 0.984 . S
N1535 H1541 0.985 . S
C1536 C1530 1.379 . S
C1536 C1533 1.363 . S
C1536 N1534 1.356 . S
C1537 C1531 1.363 . S
C1537 C1532 1.379 . S
C1537 N1535 1.356 . S
N1538 C1530 1.356 . S
N1538 H1544 0.984 . S
N1538 H1545 0.984 . S
N1539 C1532 1.356 . S
N1539 H1542 0.984 . S
N1539 H1543 0.985 . S
H1540 N1535 0.984 . S
H1541 N1535 0.985 . S
H1542 N1539 0.984 . S
H1543 N1539 0.985 . S
H1544 N1538 0.984 . S
H1545 N1538 0.984 . S
H1546 N1534 0.984 . S
H1547 N1534 0.985 . S
C1548 C1549 1.363 . S
C1548 C1554 1.379 . S
C1548 N1556 1.356 . S
C1549 C1548 1.363 . S
C1549 C1555 1.363 . S
C1550 C1551 1.363 . S
C1550 C1555 1.379 . S
C1550 N1557 1.356 . S
C1551 C1550 1.363 . S
C1551 C1554 1.363 . S
N1552 C1554 1.356 . S
N1552 H1564 0.984 . S
N1552 H1565 0.985 . S
N1553 C1555 1.350 1_565 S
N1553 H1558 0.993 . S
N1553 H1559 0.983 . S
C1554 C1548 1.379 . S
C1554 C1551 1.363 . S
C1554 N1552 1.356 . S
C1555 C1549 1.363 . S
C1555 C1550 1.379 . S
C1555 N1553 1.350 1_545 S
N1556 C1548 1.356 . S
N1556 H1562 0.984 . S
N1556 H1563 0.984 1_545 S
N1557 C1550 1.356 . S
N1557 H1560 0.984 . S
N1557 H1561 0.985 . S
H1558 N1553 0.993 . S
H1559 N1553 0.983 . S
H1560 N1557 0.984 . S
H1561 N1557 0.985 . S
H1562 N1556 0.984 . S
H1563 N1556 0.984 1_565 S
H1564 N1552 0.984 . S
H1565 N1552 0.985 . S
C1566 C1567 1.363 . S
C1566 C1572 1.379 . S
C1566 N1574 1.356 . S
C1567 C1566 1.363 . S
C1567 C1573 1.363 . S
C1568 C1569 1.363 . S
C1568 C1573 1.379 . S
C1568 N1575 1.356 . S
C1569 C1568 1.363 . S
C1569 C1572 1.363 . S
N1570 C1572 1.356 . S
N1570 H1582 0.984 . S
N1570 H1583 0.985 . S
N1571 C1573 1.356 . S
N1571 H1576 0.984 . S
N1571 H1577 0.985 . S
C1572 C1566 1.379 . S
C1572 C1569 1.363 . S
C1572 N1570 1.356 . S
C1573 C1567 1.363 . S
C1573 C1568 1.379 . S
C1573 N1571 1.356 . S
N1574 C1566 1.356 . S
N1574 H1580 0.984 . S
N1574 H1581 0.984 . S
N1575 C1568 1.356 . S
N1575 H1578 0.984 . S
N1575 H1579 0.985 . S
H1576 N1571 0.984 . S
H1577 N1571 0.985 . S
H1578 N1575 0.984 . S
H1579 N1575 0.985 . S
H1580 N1574 0.984 . S
H1581 N1574 0.984 . S
H1582 N1570 0.984 . S
H1583 N1570 0.985 . S
C1584 C1585 1.363 . S
C1584 C1590 1.379 . S
C1584 N1592 1.356 . S
C1585 C1584 1.363 . S
C1585 C1591 1.363 . S
C1586 C1587 1.363 . S
C1586 C1591 1.379 . S
C1586 N1593 1.356 . S
C1587 C1586 1.363 . S
C1587 C1590 1.363 . S
N1588 C1590 1.356 . S
N1588 H1600 0.984 . S
N1588 H1601 0.985 . S
N1589 C1591 1.356 . S
N1589 H1594 0.984 . S
N1589 H1595 0.985 . S
C1590 C1584 1.379 . S
C1590 C1587 1.363 . S
C1590 N1588 1.356 . S
C1591 C1585 1.363 . S
C1591 C1586 1.379 . S
C1591 N1589 1.356 . S
N1592 C1584 1.356 . S
N1592 H1598 0.984 . S
N1592 H1599 0.984 . S
N1593 C1586 1.356 . S
N1593 H1596 0.984 . S
N1593 H1597 0.985 . S
H1594 N1589 0.984 . S
H1595 N1589 0.985 . S
H1596 N1593 0.984 . S
H1597 N1593 0.985 . S
H1598 N1592 0.984 . S
H1599 N1592 0.984 . S
H1600 N1588 0.984 . S
H1601 N1588 0.985 . S
C1602 C1603 1.363 . S
C1602 C1608 1.379 . S
C1602 N1610 1.356 . S
C1603 C1602 1.363 . S
C1603 C1609 1.363 . S
C1604 C1605 1.363 . S
C1604 C1609 1.379 . S
C1604 N1611 1.356 . S
C1605 C1604 1.363 . S
C1605 C1608 1.363 . S
N1606 C1608 1.356 . S
N1606 H1618 0.984 . S
N1606 H1619 0.985 . S
N1607 C1609 1.356 . S
N1607 H1612 0.984 . S
N1607 H1613 0.985 . S
C1608 C1602 1.379 . S
C1608 C1605 1.363 . S
C1608 N1606 1.356 . S
C1609 C1603 1.363 . S
C1609 C1604 1.379 . S
C1609 N1607 1.356 . S
N1610 C1602 1.356 . S
N1610 H1616 0.984 . S
N1610 H1617 0.984 . S
N1611 C1604 1.356 . S
N1611 H1614 0.984 . S
N1611 H1615 0.985 . S
H1612 N1607 0.984 . S
H1613 N1607 0.985 . S
H1614 N1611 0.984 . S
H1615 N1611 0.985 . S
H1616 N1610 0.984 . S
H1617 N1610 0.984 . S
H1618 N1606 0.984 . S
H1619 N1606 0.985 . S
C1620 C1621 1.363 . S
C1620 C1626 1.379 . S
C1620 N1628 1.356 . S
C1621 C1620 1.363 . S
C1621 C1627 1.363 . S
C1622 C1623 1.363 . S
C1622 C1627 1.379 . S
C1622 N1629 1.356 . S
C1623 C1622 1.363 . S
C1623 C1626 1.363 . S
N1624 C1626 1.356 . S
N1624 H1636 0.984 . S
N1624 H1637 0.985 . S
N1625 C1627 1.356 . S
N1625 H1630 0.984 . S
N1625 H1631 0.985 . S
C1626 C1620 1.379 . S
C1626 C1623 1.363 . S
C1626 N1624 1.356 . S
C1627 C1621 1.363 . S
C1627 C1622 1.379 . S
C1627 N1625 1.356 . S
N1628 C1620 1.356 . S
N1628 H1634 0.984 . S
N1628 H1635 0.984 . S
N1629 C1622 1.356 . S
N1629 H1632 0.984 . S
N1629 H1633 0.985 . S
H1630 N1625 0.984 . S
H1631 N1625 0.985 . S
H1632 N1629 0.984 . S
H1633 N1629 0.985 . S
H1634 N1628 0.984 . S
H1635 N1628 0.984 . S
H1636 N1624 0.984 . S
H1637 N1624 0.985 . S
C1638 C1639 1.363 . S
C1638 C1644 1.379 . S
C1638 N1646 1.356 . S
C1639 C1638 1.363 . S
C1639 C1645 1.363 . S
C1640 C1641 1.363 . S
C1640 C1645 1.379 . S
C1640 N1647 1.356 . S
C1641 C1640 1.363 . S
C1641 C1644 1.363 . S
N1642 C1644 1.356 . S
N1642 H1654 0.984 . S
N1642 H1655 0.985 . S
N1643 C1645 1.356 . S
N1643 H1648 0.984 . S
N1643 H1649 0.985 . S
C1644 C1638 1.379 . S
C1644 C1641 1.363 . S
C1644 N1642 1.356 . S
C1645 C1639 1.363 . S
C1645 C1640 1.379 . S
C1645 N1643 1.356 . S
N1646 C1638 1.356 . S
N1646 H1652 0.984 . S
N1646 H1653 0.984 . S
N1647 C1640 1.356 . S
N1647 H1650 0.984 . S
N1647 H1651 0.985 . S
H1648 N1643 0.984 . S
H1649 N1643 0.985 . S
H1650 N1647 0.984 . S
H1651 N1647 0.985 . S
H1652 N1646 0.984 . S
H1653 N1646 0.984 . S
H1654 N1642 0.984 . S
H1655 N1642 0.985 . S
C1656 C1657 1.363 . S
C1656 C1662 1.379 . S
C1656 N1664 1.356 . S
C1657 C1656 1.363 . S
C1657 C1663 1.363 . S
C1658 C1659 1.363 . S
C1658 C1663 1.379 . S
C1658 N1665 1.356 . S
C1659 C1658 1.363 . S
C1659 C1662 1.363 . S
N1660 C1662 1.356 . S
N1660 H1672 0.984 . S
N1660 H1673 0.985 . S
N1661 C1663 1.356 . S
N1661 H1666 0.984 . S
N1661 H1667 0.985 . S
C1662 C1656 1.379 . S
C1662 C1659 1.363 . S
C1662 N1660 1.356 . S
C1663 C1657 1.363 . S
C1663 C1658 1.379 . S
C1663 N1661 1.356 . S
N1664 C1656 1.356 . S
N1664 H1670 0.984 . S
N1664 H1671 0.984 . S
N1665 C1658 1.356 . S
N1665 H1668 0.984 . S
N1665 H1669 0.985 . S
H1666 N1661 0.984 . S
H1667 N1661 0.985 . S
H1668 N1665 0.984 . S
H1669 N1665 0.985 . S
H1670 N1664 0.984 . S
H1671 N1664 0.984 . S
H1672 N1660 0.984 . S
H1673 N1660 0.985 . S
C1674 C1675 1.363 . S
C1674 C1680 1.379 . S
C1674 N1682 1.356 . S
C1675 C1674 1.363 . S
C1675 C1681 1.363 . S
C1676 C1677 1.363 . S
C1676 C1681 1.379 . S
C1676 N1683 1.356 . S
C1677 C1676 1.363 . S
C1677 C1680 1.363 . S
N1678 C1680 1.356 . S
N1678 H1690 0.984 1_655 S
N1678 H1691 0.985 . S
N1679 C1681 1.356 . S
N1679 H1684 0.984 . S
N1679 H1685 0.985 . S
C1680 C1674 1.379 . S
C1680 C1677 1.363 . S
C1680 N1678 1.356 . S
C1681 C1675 1.363 . S
C1681 C1676 1.379 . S
C1681 N1679 1.356 . S
N1682 C1674 1.356 . S
N1682 H1688 0.984 . S
N1682 H1689 0.984 . S
N1683 C1676 1.356 . S
N1683 H1686 0.984 . S
N1683 H1687 0.985 . S
H1684 N1679 0.984 . S
H1685 N1679 0.985 . S
H1686 N1683 0.984 . S
H1687 N1683 0.985 . S
H1688 N1682 0.984 . S
H1689 N1682 0.984 . S
H1690 N1678 0.984 1_455 S
H1691 N1678 0.985 . S
C1692 C1693 1.363 . S
C1692 C1698 1.379 . S
C1692 N1700 1.356 . S
C1693 C1692 1.363 . S
C1693 C1699 1.363 . S
C1694 C1695 1.363 . S
C1694 C1699 1.379 . S
C1694 N1701 1.356 . S
C1695 C1694 1.363 . S
C1695 C1698 1.363 . S
N1696 C1698 1.356 . S
N1696 H1708 0.984 . S
N1696 H1709 0.985 . S
N1697 C1699 1.356 . S
N1697 H1702 0.984 . S
N1697 H1703 0.985 . S
C1698 C1692 1.379 . S
C1698 C1695 1.363 . S
C1698 N1696 1.356 . S
C1699 C1693 1.363 . S
C1699 C1694 1.379 . S
C1699 N1697 1.356 . S
N1700 C1692 1.356 . S
N1700 H1706 0.984 . S
N1700 H1707 0.984 . S
N1701 C1694 1.356 . S
N1701 H1704 0.984 . S
N1701 H1705 0.985 . S
H1702 N1697 0.984 . S
H1703 N1697 0.985 . S
H1704 N1701 0.984 . S
H1705 N1701 0.985 . S
H1706 N1700 0.984 . S
H1707 N1700 0.984 . S
H1708 N1696 0.984 . S
H1709 N1696 0.985 . S
C1710 C1711 1.363 . S
C1710 C1716 1.379 . S
C1710 N1718 1.356 . S
C1711 C1710 1.363 . S
C1711 C1717 1.363 . S
C1712 C1713 1.363 . S
C1712 C1717 1.379 . S
C1712 N1719 1.356 . S
C1713 C1712 1.363 . S
C1713 C1716 1.363 . S
N1714 C1716 1.356 . S
N1714 H1726 0.984 . S
N1714 H1727 0.985 . S
N1715 C1717 1.356 . S
N1715 H1720 0.984 . S
N1715 H1721 0.985 . S
C1716 C1710 1.379 . S
C1716 C1713 1.363 . S
C1716 N1714 1.356 . S
C1717 C1711 1.363 . S
C1717 C1712 1.379 . S
C1717 N1715 1.356 . S
N1718 C1710 1.356 . S
N1718 H1724 0.984 . S
N1718 H1725 0.984 . S
N1719 C1712 1.356 . S
N1719 H1722 0.984 . S
N1719 H1723 0.985 . S
H1720 N1715 0.984 . S
H1721 N1715 0.985 . S
H1722 N1719 0.984 . S
H1723 N1719 0.985 . S
H1724 N1718 0.984 . S
H1725 N1718 0.984 . S
H1726 N1714 0.984 . S
H1727 N1714 0.985 . S
C1728 C1729 1.363 . S
C1728 C1734 1.379 . S
C1728 N1736 1.356 . S
C1729 C1728 1.363 . S
C1729 C1735 1.363 . S
C1730 C1731 1.363 . S
C1730 C1735 1.379 . S
C1730 N1737 1.356 . S
C1731 C1730 1.363 . S
C1731 C1734 1.363 . S
N1732 C1734 1.356 . S
N1732 H1744 0.984 . S
N1732 H1745 0.985 . S
N1733 C1735 1.356 . S
N1733 H1738 0.984 . S
N1733 H1739 0.985 . S
C1734 C1728 1.379 . S
C1734 C1731 1.363 . S
C1734 N1732 1.356 . S
C1735 C1729 1.363 . S
C1735 C1730 1.379 . S
C1735 N1733 1.356 . S
N1736 C1728 1.356 . S
N1736 H1742 0.984 . S
N1736 H1743 0.984 . S
N1737 C1730 1.356 . S
N1737 H1740 0.984 . S
N1737 H1741 0.985 . S
H1738 N1733 0.984 . S
H1739 N1733 0.985 . S
H1740 N1737 0.984 . S
H1741 N1737 0.985 . S
H1742 N1736 0.984 . S
H1743 N1736 0.984 . S
H1744 N1732 0.984 . S
H1745 N1732 0.985 . S
C1746 C1747 1.363 . S
C1746 C1752 1.379 . S
C1746 N1754 1.356 . S
C1747 C1746 1.363 . S
C1747 C1753 1.363 . S
C1748 C1749 1.363 . S
C1748 C1753 1.379 . S
C1748 N1755 1.356 . S
C1749 C1748 1.363 . S
C1749 C1752 1.363 . S
N1750 C1752 1.356 . S
N1750 H1762 0.984 . S
N1750 H1763 0.985 . S
N1751 C1753 1.356 . S
N1751 H1756 0.984 . S
N1751 H1757 0.985 . S
C1752 C1746 1.379 . S
C1752 C1749 1.363 . S
C1752 N1750 1.356 . S
C1753 C1747 1.363 . S
C1753 C1748 1.379 . S
C1753 N1751 1.356 . S
N1754 C1746 1.356 . S
N1754 H1760 0.984 . S
N1754 H1761 0.984 . S
N1755 C1748 1.356 . S
N1755 H1758 0.984 . S
N1755 H1759 0.985 . S
H1756 N1751 0.984 . S
H1757 N1751 0.985 . S
H1758 N1755 0.984 . S
H1759 N1755 0.985 . S
H1760 N1754 0.984 . S
H1761 N1754 0.984 . S
H1762 N1750 0.984 . S
H1763 N1750 0.985 . S
C1764 C1765 1.363 . S
C1764 C1770 1.379 . S
C1764 N1772 1.356 . S
C1765 C1764 1.363 . S
C1765 C1771 1.363 . S
C1766 C1767 1.363 . S
C1766 C1771 1.379 . S
C1766 N1773 1.356 . S
C1767 C1766 1.363 . S
C1767 C1770 1.363 . S
N1768 C1770 1.356 . S
N1768 H1780 0.984 . S
N1768 H1781 0.985 . S
N1769 C1771 1.356 . S
N1769 H1774 0.984 . S
N1769 H1775 0.985 . S
C1770 C1764 1.379 . S
C1770 C1767 1.363 . S
C1770 N1768 1.356 . S
C1771 C1765 1.363 . S
C1771 C1766 1.379 . S
C1771 N1769 1.356 . S
N1772 C1764 1.356 . S
N1772 H1778 0.984 . S
N1772 H1779 0.984 . S
N1773 C1766 1.356 . S
N1773 H1776 0.984 . S
N1773 H1777 0.985 . S
H1774 N1769 0.984 . S
H1775 N1769 0.985 . S
H1776 N1773 0.984 . S
H1777 N1773 0.985 . S
H1778 N1772 0.984 . S
H1779 N1772 0.984 . S
H1780 N1768 0.984 . S
H1781 N1768 0.985 . S
C1782 C1783 1.363 . S
C1782 C1788 1.379 . S
C1782 N1790 1.356 . S
C1783 C1782 1.363 . S
C1783 C1789 1.363 . S
C1784 C1785 1.363 . S
C1784 C1789 1.379 . S
C1784 N1791 1.356 . S
C1785 C1784 1.363 . S
C1785 C1788 1.363 . S
N1786 C1788 1.356 . S
N1786 H1798 0.984 . S
N1786 H1799 0.985 . S
N1787 C1789 1.356 . S
N1787 H1792 0.984 . S
N1787 H1793 0.985 . S
C1788 C1782 1.379 . S
C1788 C1785 1.363 . S
C1788 N1786 1.356 . S
C1789 C1783 1.363 . S
C1789 C1784 1.379 . S
C1789 N1787 1.356 . S
N1790 C1782 1.356 . S
N1790 H1796 0.984 . S
N1790 H1797 0.984 . S
N1791 C1784 1.356 . S
N1791 H1794 0.984 . S
N1791 H1795 0.985 . S
H1792 N1787 0.984 . S
H1793 N1787 0.985 . S
H1794 N1791 0.984 . S
H1795 N1791 0.985 . S
H1796 N1790 0.984 . S
H1797 N1790 0.984 . S
H1798 N1786 0.984 . S
H1799 N1786 0.985 . S
C1800 C1801 1.363 . S
C1800 C1806 1.379 . S
C1800 N1808 1.356 . S
C1801 C1800 1.363 . S
C1801 C1807 1.363 . S
C1802 C1803 1.363 . S
C1802 C1807 1.379 . S
C1802 N1809 1.356 . S
C1803 C1802 1.363 . S
C1803 C1806 1.363 . S
N1804 C1806 1.356 . S
N1804 H1816 0.984 . S
N1804 H1817 0.985 . S
N1805 C1807 1.356 . S
N1805 H1810 0.984 . S
N1805 H1811 0.985 . S
C1806 C1800 1.379 . S
C1806 C1803 1.363 . S
C1806 N1804 1.356 . S
C1807 C1801 1.363 . S
C1807 C1802 1.379 . S
C1807 N1805 1.356 . S
N1808 C1800 1.356 . S
N1808 H1814 0.984 . S
N1808 H1815 0.984 . S
N1809 C1802 1.356 . S
N1809 H1812 0.984 . S
N1809 H1813 0.985 . S
H1810 N1805 0.984 . S
H1811 N1805 0.985 . S
H1812 N1809 0.984 . S
H1813 N1809 0.985 . S
H1814 N1808 0.984 . S
H1815 N1808 0.984 . S
H1816 N1804 0.984 . S
H1817 N1804 0.985 . S
C1818 C1819 1.363 . S
C1818 C1824 1.379 . S
C1818 N1826 1.356 . S
C1819 C1818 1.363 . S
C1819 C1825 1.363 . S
C1820 C1821 1.363 . S
C1820 C1825 1.379 . S
C1820 N1827 1.356 . S
C1821 C1820 1.363 . S
C1821 C1824 1.363 . S
N1822 C1824 1.356 . S
N1822 H1834 0.984 . S
N1822 H1835 0.985 . S
N1823 C1825 1.356 . S
N1823 H1828 0.984 . S
N1823 H1829 0.985 . S
C1824 C1818 1.379 . S
C1824 C1821 1.363 . S
C1824 N1822 1.356 . S
C1825 C1819 1.363 . S
C1825 C1820 1.379 . S
C1825 N1823 1.356 . S
N1826 C1818 1.356 . S
N1826 H1832 0.984 . S
N1826 H1833 0.984 . S
N1827 C1820 1.356 . S
N1827 H1830 0.984 . S
N1827 H1831 0.985 . S
H1828 N1823 0.984 . S
H1829 N1823 0.985 . S
H1830 N1827 0.984 . S
H1831 N1827 0.985 . S
H1832 N1826 0.984 . S
H1833 N1826 0.984 . S
H1834 N1822 0.984 . S
H1835 N1822 0.985 . S
C1836 C1837 1.363 . S
C1836 C1842 1.379 . S
C1836 N1844 1.356 . S
C1837 C1836 1.363 . S
C1837 C1843 1.363 . S
C1838 C1839 1.363 . S
C1838 C1843 1.379 . S
C1838 N1845 1.356 . S
C1839 C1838 1.363 . S
C1839 C1842 1.363 . S
N1840 C1842 1.356 . S
N1840 H1852 0.984 . S
N1840 H1853 0.985 . S
N1841 C1843 1.356 . S
N1841 H1846 0.984 . S
N1841 H1847 0.985 . S
C1842 C1836 1.379 . S
C1842 C1839 1.363 . S
C1842 N1840 1.356 . S
C1843 C1837 1.363 . S
C1843 C1838 1.379 . S
C1843 N1841 1.356 . S
N1844 C1836 1.356 . S
N1844 H1850 0.984 . S
N1844 H1851 0.984 . S
N1845 C1838 1.356 . S
N1845 H1848 0.984 . S
N1845 H1849 0.985 . S
H1846 N1841 0.984 . S
H1847 N1841 0.985 . S
H1848 N1845 0.984 . S
H1849 N1845 0.985 . S
H1850 N1844 0.984 . S
H1851 N1844 0.984 . S
H1852 N1840 0.984 . S
H1853 N1840 0.985 . S
C1854 C1855 1.363 . S
C1854 C1860 1.379 . S
C1854 N1862 1.356 . S
C1855 C1854 1.363 . S
C1855 C1861 1.363 . S
C1856 C1857 1.363 . S
C1856 C1861 1.379 . S
C1856 N1863 1.356 . S
C1857 C1856 1.363 . S
C1857 C1860 1.363 . S
N1858 C1860 1.356 . S
N1858 H1870 0.984 . S
N1858 H1871 0.985 . S
N1859 C1861 1.356 . S
N1859 H1864 0.984 . S
N1859 H1865 0.985 . S
C1860 C1854 1.379 . S
C1860 C1857 1.363 . S
C1860 N1858 1.356 . S
C1861 C1855 1.363 . S
C1861 C1856 1.379 . S
C1861 N1859 1.356 . S
N1862 C1854 1.356 . S
N1862 H1868 0.984 . S
N1862 H1869 0.984 . S
N1863 C1856 1.356 . S
N1863 H1866 0.984 . S
N1863 H1867 0.985 . S
H1864 N1859 0.984 . S
H1865 N1859 0.985 . S
H1866 N1863 0.984 . S
H1867 N1863 0.985 . S
H1868 N1862 0.984 . S
H1869 N1862 0.984 . S
H1870 N1858 0.984 . S
H1871 N1858 0.985 . S
C1872 C1873 1.363 . S
C1872 C1878 1.379 . S
C1872 N1880 1.356 . S
C1873 C1872 1.363 . S
C1873 C1879 1.363 . S
C1874 C1875 1.363 . S
C1874 C1879 1.379 . S
C1874 N1881 1.356 . S
C1875 C1874 1.363 . S
C1875 C1878 1.363 . S
N1876 C1878 1.356 . S
N1876 H1888 0.984 . S
N1876 H1889 0.985 . S
N1877 C1879 1.356 . S
N1877 H1882 0.984 . S
N1877 H1883 0.985 . S
C1878 C1872 1.379 . S
C1878 C1875 1.363 . S
C1878 N1876 1.356 . S
C1879 C1873 1.363 . S
C1879 C1874 1.379 . S
C1879 N1877 1.356 . S
N1880 C1872 1.356 . S
N1880 H1886 0.984 . S
N1880 H1887 0.984 . S
N1881 C1874 1.356 . S
N1881 H1884 0.984 . S
N1881 H1885 0.985 . S
H1882 N1877 0.984 . S
H1883 N1877 0.985 . S
H1884 N1881 0.984 . S
H1885 N1881 0.985 . S
H1886 N1880 0.984 . S
H1887 N1880 0.984 . S
H1888 N1876 0.984 . S
H1889 N1876 0.985 . S
C1890 C1891 1.363 . S
C1890 C1896 1.379 . S
C1890 N1898 1.356 . S
C1891 C1890 1.363 . S
C1891 C1897 1.363 . S
C1892 C1893 1.363 . S
C1892 C1897 1.379 . S
C1892 N1899 1.356 . S
C1893 C1892 1.363 . S
C1893 C1896 1.363 . S
N1894 C1896 1.356 . S
N1894 H1906 0.984 . S
N1894 H1907 0.985 . S
N1895 C1897 1.356 . S
N1895 H1900 0.984 . S
N1895 H1901 0.985 . S
C1896 C1890 1.379 . S
C1896 C1893 1.363 . S
C1896 N1894 1.356 . S
C1897 C1891 1.363 . S
C1897 C1892 1.379 . S
C1897 N1895 1.356 . S
N1898 C1890 1.356 . S
N1898 H1904 0.984 . S
N1898 H1905 0.984 . S
N1899 C1892 1.356 . S
N1899 H1902 0.984 . S
N1899 H1903 0.985 . S
H1900 N1895 0.984 . S
H1901 N1895 0.985 . S
H1902 N1899 0.984 . S
H1903 N1899 0.985 . S
H1904 N1898 0.984 . S
H1905 N1898 0.984 . S
H1906 N1894 0.984 . S
H1907 N1894 0.985 . S
C1908 C1909 1.363 . S
C1908 C1914 1.379 . S
C1908 N1916 1.356 . S
C1909 C1908 1.363 . S
C1909 C1915 1.363 . S
C1910 C1911 1.363 . S
C1910 C1915 1.379 . S
C1910 N1917 1.356 . S
C1911 C1910 1.363 . S
C1911 C1914 1.363 . S
N1912 C1914 1.356 . S
N1912 H1924 0.984 . S
N1912 H1925 0.985 . S
N1913 C1915 1.356 . S
N1913 H1918 0.984 . S
N1913 H1919 0.985 . S
C1914 C1908 1.379 . S
C1914 C1911 1.363 . S
C1914 N1912 1.356 . S
C1915 C1909 1.363 . S
C1915 C1910 1.379 . S
C1915 N1913 1.356 . S
N1916 C1908 1.356 . S
N1916 H1922 0.984 . S
N1916 H1923 0.984 . S
N1917 C1910 1.356 . S
N1917 H1920 0.984 . S
N1917 H1921 0.985 . S
H1918 N1913 0.984 . S
H1919 N1913 0.985 . S
H1920 N1917 0.984 . S
H1921 N1917 0.985 . S
H1922 N1916 0.984 . S
H1923 N1916 0.984 . S
H1924 N1912 0.984 . S
H1925 N1912 0.985 . S
C1926 C1927 1.363 . S
C1926 C1932 1.379 . S
C1926 N1934 1.356 . S
C1927 C1926 1.363 . S
C1927 C1933 1.363 . S
C1928 C1929 1.363 . S
C1928 C1933 1.379 . S
C1928 N1935 1.356 . S
C1929 C1928 1.363 . S
C1929 C1932 1.363 . S
N1930 C1932 1.356 . S
N1930 H1942 0.984 . S
N1930 H1943 0.985 . S
N1931 C1933 1.356 . S
N1931 H1936 0.984 . S
N1931 H1937 0.985 . S
C1932 C1926 1.379 . S
C1932 C1929 1.363 . S
C1932 N1930 1.356 . S
C1933 C1927 1.363 . S
C1933 C1928 1.379 . S
C1933 N1931 1.356 . S
N1934 C1926 1.356 . S
N1934 H1940 0.984 . S
N1934 H1941 0.984 . S
N1935 C1928 1.356 . S
N1935 H1938 0.984 . S
N1935 H1939 0.985 . S
H1936 N1931 0.984 . S
H1937 N1931 0.985 . S
H1938 N1935 0.984 . S
H1939 N1935 0.985 . S
H1940 N1934 0.984 . S
H1941 N1934 0.984 . S
H1942 N1930 0.984 . S
H1943 N1930 0.985 . S
C973 C162 1.473 . S
C975 C272 1.415 . S
C991 C174 1.498 . S
C993 C356 1.445 . S
C1009 C150 1.470 . S
C1011 C450 1.470 . S
C1027 C138 1.461 . S
C1029 C366 1.464 . S
C1047 C440 1.406 . S
C1045 C114 1.466 . S
C1063 C126 1.438 . S
C1065 C282 1.438 . S
C1083 C283 1.460 . S
C1081 C136 1.507 . S
C1101 C367 1.483 . S
C1099 C112 1.529 . S
C1117 C124 1.520 . S
C1119 C459 1.481 . S
C1135 C160 1.500 . S
C1137 C375 1.461 . S
C1153 C172 1.489 . S
C1155 C451 1.438 . S
C1173 C291 1.441 . S
C1171 C148 1.481 . S
C1191 C524 1.415 . S
C1189 C18 1.473 . S
C1207 C30 1.498 . S
C1209 C608 1.445 . S
C1225 C6 1.470 . S
C1227 C702 1.470 . S
C1243 C210 1.461 . S
C1245 C618 1.464 . S
C1261 C186 1.466 . S
C1263 C692 1.406 . S
C1279 C198 1.438 . S
C1281 C534 1.438 . S
C1297 C208 1.507 . S
C1299 C535 1.460 . S
C1315 C184 1.529 . S
C1317 C619 1.483 . S
C1335 C711 1.481 . S
C1333 C196 1.520 . S
C1351 C16 1.500 1_565 S
C1353 C627 1.461 . S
C1371 C703 1.438 . S
C1369 C28 1.489 1_455 S
C1387 C4 1.481 . S
C1389 C543 1.441 . S
C1407 C776 1.415 . S
C1405 C90 1.473 . S
C1423 C102 1.498 . S
C1425 C860 1.445 . S
C1443 C954 1.470 . S
C1441 C78 1.470 . S
C1461 C870 1.464 . S
C1459 C66 1.461 . S
C1479 C944 1.406 . S
C1477 C42 1.466 . S
C1495 C54 1.439 . S
C1497 C786 1.438 . S
C1513 C64 1.507 1_655 S
C1515 C787 1.460 . S
C1531 C40 1.529 . S
C1533 C871 1.483 . S
C1551 C963 1.481 . S
C1549 C52 1.520 1_545 S
C1567 C88 1.500 . S
C1569 C879 1.461 . S
C1585 C100 1.489 . S
C1587 C955 1.438 . S
C1603 C76 1.481 . S
C1605 C795 1.441 . S
C1621 C189 1.583 . S
C1623 C279 1.480 . S
C1641 C363 1.486 . S
C1639 C201 1.622 . S
C1657 C213 1.579 . S
C1659 C456 1.389 . S
C1675 C81 1.590 . S
C1677 C372 1.383 . S
C1693 C93 1.590 . S
C1695 C447 1.464 . S
C1713 C288 1.380 . S
C1711 C105 1.550 . S
C1729 C45 1.583 . S
C1731 C531 1.480 . S
C1747 C57 1.623 . S
C1749 C615 1.486 . S
C1765 C69 1.579 . S
C1767 C708 1.389 . S
C1783 C153 1.590 . S
C1785 C624 1.383 . S
C1803 C699 1.464 . S
C1801 C165 1.590 . S
C1819 C177 1.550 . S
C1821 C540 1.380 . S
C1837 C117 1.583 . S
C1839 C783 1.480 . S
C1855 C129 1.622 . S
C1857 C867 1.486 . S
C1875 C960 1.389 . S
C1873 C141 1.580 . S
C1891 C9 1.590 . S
C1893 C876 1.383 . S
C1909 C21 1.590 . S
C1911 C951 1.464 . S
C1927 C33 1.550 . S
C1929 C792 1.380 . S
