# Generated by pormake.
# Topology tsx, (6,3)-cn, num edge types: 1
# Building blocks:
#     Node 0, Type 0, BuildingBlock: JUFBIX_clean_sbu_0, # of connection points: 6
#     Node 1, Type 0, BuildingBlock: JUFBIX_clean_sbu_0, # of connection points: 6
#     Node 2, Type 1, BuildingBlock: ESEHIV_clean_linker_0, # of connection points: 3
#     Node 3, Type 1, BuildingBlock: ESEHIV_clean_linker_0, # of connection points: 3
#     Node 4, Type 1, BuildingBlock: ESEHIV_clean_linker_0, # of connection points: 3
#     Node 5, Type 1, BuildingBlock: ESEHIV_clean_linker_0, # of connection points: 3
#     Edge 6, Type (0, 1), BuildingBlock: TEMPAE_clean_linker_10, # of connection points: 2
#     Edge 7, Type (0, 1), BuildingBlock: TEMPAE_clean_linker_10, # of connection points: 2
#     Edge 8, Type (0, 1), BuildingBlock: TEMPAE_clean_linker_10, # of connection points: 2
#     Edge 9, Type (0, 1), BuildingBlock: TEMPAE_clean_linker_10, # of connection points: 2
#     Edge 10, Type (0, 1), BuildingBlock: TEMPAE_clean_linker_10, # of connection points: 2
#     Edge 11, Type (0, 1), BuildingBlock: TEMPAE_clean_linker_10, # of connection points: 2
#     Edge 12, Type (0, 1), BuildingBlock: TEMPAE_clean_linker_10, # of connection points: 2
#     Edge 13, Type (0, 1), BuildingBlock: TEMPAE_clean_linker_10, # of connection points: 2
#     Edge 14, Type (0, 1), BuildingBlock: TEMPAE_clean_linker_10, # of connection points: 2
#     Edge 15, Type (0, 1), BuildingBlock: TEMPAE_clean_linker_10, # of connection points: 2
#     Edge 16, Type (0, 1), BuildingBlock: TEMPAE_clean_linker_10, # of connection points: 2
#     Edge 17, Type (0, 1), BuildingBlock: TEMPAE_clean_linker_10, # of connection points: 2
# Relax obj value: 0.160
# Max RMSD: 0.169
# Mean RMSD: 0.137
data_MOF--net-tsx--node1-JUFBIX_clean_sbu_0--node2-ESEHIV_clean_linker_0--edge1-TEMPAE_clean_linker_10
_symmetry_space_group_name_H-M    P1
_symmetry_Int_Tables_number       1
_symmetry_cell_setting            triclinic
loop_
_symmetry_equiv_pos_as_xyz
'x, y, z'
_cell_length_a     18.601942
_cell_length_b     22.268967
_cell_length_c     34.634631
_cell_angle_alpha  92.658344
_cell_angle_beta   88.921965
_cell_angle_gamma 99.767625
loop_
_atom_site_label
_atom_site_type_symbol
_atom_site_fract_x
_atom_site_fract_y
_atom_site_fract_z
_atom_type_partial_charge
Co0 Co 0.08021 0.9938 -0.0005 0.0
C1 C 0.02106 0.03083 0.9322 0.0
Co2 Co 0.98418 0.04028 0.00792 0.0
C3 C 0.17733 0.90265 -0.00501 0.0
C4 C 0.22192 0.9861 0.96866 0.0
N5 N 0.16304 0.95891 0.9884 0.0
N6 N 0.24261 0.89382 0.97986 0.0
C7 C 0.27074 0.94662 0.96358 0.0
H8 H 0.1394 0.8681 0.00925 0.0
H9 H 0.22833 0.03134 0.95761 0.0
C10 C 0.04331 0.00364 0.07551 0.0
N11 N 0.90132 0.07435 0.01941 0.0
C12 C 0.87788 0.12273 0.00482 0.0
C13 C 0.85069 0.05397 0.0462 0.0
N14 N 0.81455 0.13362 0.02164 0.0
C15 C 0.7979 0.09015 0.0478 0.0
C16 C 0.9504 0.91366 -0.003 0.0
O17 O 0.0906 0.98454 0.05332 0.0
O18 O 0.99418 0.02863 0.06107 0.0
O19 O 0.92483 0.96282 0.00197 0.0
O20 O 0.01913 0.91558 -0.00446 0.0
O21 O 0.97537 0.05128 0.95478 0.0
H22 H 0.85205 0.01512 0.06362 0.0
H23 H 0.90676 0.14877 0.98204 0.0
O24 O 0.06929 0.00383 0.94593 0.0
O25 O 0.1392 0.07246 0.00358 0.0
O26 O 0.04431 0.11808 0.01342 0.0
C27 C 0.11289 0.12122 0.00931 0.0
H28 H 0.32265 0.956 0.94851 0.0
H29 H 0.75126 0.08454 0.06717 0.0
Co30 Co 0.57971 0.50372 0.49825 0.0
C31 C 0.51858 0.54137 0.43184 0.0
Co32 Co 0.48416 0.55056 0.50806 0.0
C33 C 0.67604 0.41203 0.49306 0.0
C34 C 0.72101 0.4953 0.46665 0.0
N35 N 0.66207 0.46839 0.48645 0.0
N36 N 0.74124 0.40283 0.47794 0.0
C37 C 0.76958 0.45557 0.46161 0.0
H38 H 0.63802 0.37778 0.50749 0.0
H39 H 0.7278 0.54065 0.45573 0.0
C40 C 0.54513 0.51328 0.57476 0.0
N41 N 0.4015 0.58469 0.52034 0.0
C42 C 0.37791 0.63373 0.50673 0.0
C43 C 0.35049 0.56266 0.54651 0.0
N44 N 0.31391 0.64335 0.52347 0.0
C45 C 0.29717 0.59829 0.54858 0.0
C46 C 0.44981 0.42398 0.49675 0.0
O47 O 0.59168 0.49441 0.55196 0.0
O48 O 0.49537 0.53834 0.56102 0.0
O49 O 0.42448 0.47318 0.50213 0.0
O50 O 0.51845 0.42578 0.49466 0.0
O51 O 0.4741 0.56209 0.45507 0.0
H52 H 0.35173 0.52277 0.563 0.0
H53 H 0.4073 0.66115 0.48472 0.0
O54 O 0.56708 0.51386 0.44483 0.0
O55 O 0.63895 0.58213 0.50193 0.0
O56 O 0.54477 0.62814 0.51357 0.0
C57 C 0.61313 0.63093 0.5085 0.0
H58 H 0.82161 0.46491 0.44667 0.0
H59 H 0.24966 0.5906 0.56726 0.0
H60 H 0.9513 0.06257 0.36641 0.0
H61 H 0.06493 0.91088 0.37226 0.0
H62 H 0.98106 0.98822 0.4761 0.0
C63 C 0.97195 0.02946 0.38326 0.0
C64 C 0.96162 0.03048 0.42352 0.0
C65 C 1.00903 0.98632 0.36465 0.0
C66 C 0.03486 0.94337 0.38657 0.0
C67 C 0.02488 0.9435 0.42687 0.0
C68 C 0.98897 0.98783 0.44523 0.0
H69 H 0.92814 0.97241 0.63714 0.0
H70 H 0.10506 0.12352 0.63886 0.0
H71 H 0.01886 0.04276 0.53045 0.0
C72 C 0.96769 0.00471 0.62197 0.0
C73 C 0.97029 1.00085 0.58152 0.0
C74 C 0.01565 0.04905 0.64294 0.0
C75 C 0.06543 0.09112 0.62276 0.0
C76 C 0.06633 0.09025 0.58206 0.0
C77 C 0.0182 0.04471 0.56162 0.0
H78 H 0.45921 0.56189 0.86707 0.0
H79 H 0.57646 0.41199 0.86941 0.0
H80 H 0.48706 0.48048 0.97468 0.0
C81 C 0.48036 0.52809 0.88309 0.0
C82 C 0.46916 0.52635 0.92322 0.0
C83 C 0.51861 0.48663 0.86355 0.0
C84 C 0.54524 0.44294 0.88445 0.0
C85 C 0.53406 0.44011 0.92462 0.0
C86 C 0.49643 0.48251 0.94392 0.0
H87 H 0.41341 0.47578 0.13744 0.0
H88 H 0.59345 0.62405 0.13803 0.0
H89 H 0.51263 0.53673 0.03025 0.0
C90 C 0.45449 0.50633 0.12198 0.0
C91 C 0.45979 0.49915 0.08167 0.0
C92 C 0.50232 0.55122 0.14259 0.0
C93 C 0.55396 0.59126 0.1221 0.0
C94 C 0.55722 0.58767 0.08142 0.0
C95 C 0.50975 0.54108 0.06136 0.0
C96 C 0.23057 0.18736 -0.00741 0.0
C97 C 0.16222 0.18066 0.01126 0.0
C98 C 0.28028 0.24219 -0.00363 0.0
C99 C 0.26194 0.29062 0.02036 0.0
C100 C 0.1917 0.28502 0.03781 0.0
C101 C 0.14228 0.23027 0.03263 0.0
C102 C 0.35357 0.24734 0.9761 0.0
C103 C 0.17045 0.33537 0.06402 0.0
C104 C 0.41142 0.38809 0.07841 0.0
C105 C 0.41564 0.44504 0.0621 0.0
C106 C 0.36301 0.33726 0.06432 0.0
C107 C 0.31925 0.34286 0.03214 0.0
C108 C 0.32727 0.39908 0.01357 0.0
C109 C 0.37463 0.45003 0.02924 0.0
C110 C 0.3563 0.27834 0.08515 0.0
C111 C 0.28399 0.40629 0.9782 0.0
H112 H 0.24559 0.14944 0.97533 0.0
H113 H 0.08934 0.2253 0.04688 0.0
H114 H 0.36771 0.29201 0.96244 0.0
H115 H 0.39659 0.24477 -0.00258 0.0
H116 H 0.35464 0.21031 0.95357 0.0
H117 H 0.11232 0.32551 0.07331 0.0
H118 H 0.20502 0.34152 0.09016 0.0
H119 H 0.18002 0.37913 0.04919 0.0
H120 H 0.44452 0.38379 0.10326 0.0
H121 H 0.37783 0.49401 0.01654 0.0
H122 H 0.36737 0.2409 0.06488 0.0
H123 H 0.29979 0.26545 0.09642 0.0
H124 H 0.39452 0.28181 0.10973 0.0
H125 H 0.30996 0.44602 0.9617 0.0
H126 H 0.22852 0.41372 0.98718 0.0
H127 H 0.27814 0.36473 0.95878 0.0
C128 C 0.31974 0.82705 0.94685 0.0
C129 C 0.27363 0.83845 0.97788 0.0
C130 C 0.35034 0.77371 0.94388 0.0
C131 C 0.33442 0.73003 0.97259 0.0
C132 C 0.2885 0.74122 0.00427 0.0
C133 C 0.2584 0.79528 0.0065 0.0
C134 C 0.3988 0.76365 0.90948 0.0
C135 C 0.27064 0.69582 0.0355 0.0
C136 C 0.35805 0.57389 0.93211 0.0
C137 C 0.42963 0.57153 0.94281 0.0
C138 C 0.32392 0.62299 0.94455 0.0
C139 C 0.36304 0.6715 0.96758 0.0
C140 C 0.43398 0.66738 0.98037 0.0
C141 C 0.46628 0.61699 0.96802 0.0
C142 C 0.24818 0.62519 0.93039 0.0
C143 C 0.47757 0.71801 0.00492 0.0
H144 H 0.33082 0.85934 0.9242 0.0
H145 H 0.22342 0.804 0.03074 0.0
H146 H 0.45254 0.75541 0.91938 0.0
H147 H 0.37378 0.72257 0.89209 0.0
H148 H 0.40796 0.80311 0.89045 0.0
H149 H 0.2357 0.71196 0.05878 0.0
H150 H 0.24201 0.65175 0.02282 0.0
H151 H 0.32165 0.68688 0.04847 0.0
H152 H 0.32992 0.53849 0.9126 0.0
H153 H 0.52192 0.61511 0.97597 0.0
H154 H 0.25137 0.65968 0.90802 0.0
H155 H 0.21329 0.63909 0.95435 0.0
H156 H 0.2215 0.58047 0.91757 0.0
H157 H 0.4837 0.76167 -0.00999 0.0
H158 H 0.53281 0.70868 0.01128 0.0
H159 H 0.44828 0.72424 0.03262 0.0
C160 C 0.91459 0.80722 0.0179 0.0
C161 C 0.89946 0.85534 -0.00343 0.0
C162 C 0.85957 0.75759 0.02558 0.0
C163 C 0.78876 0.75563 0.01058 0.0
C164 C 0.77572 0.8011 0.98565 0.0
C165 C 0.83094 0.85111 0.97953 0.0
C166 C 0.87537 0.71056 0.05279 0.0
C167 C 0.70184 0.79946 0.9679 0.0
C168 C 0.64939 0.61289 0.02765 0.0
C169 C 0.61246 0.63145 0.06069 0.0
C170 C 0.70517 0.65337 0.00992 0.0
C171 C 0.72607 0.71301 0.02639 0.0
C172 C 0.68784 0.73239 0.0591 0.0
C173 C 0.63076 0.69185 0.07528 0.0
C174 C 0.7427 0.63176 0.97418 0.0
C175 C 0.70829 0.79562 0.07771 0.0
H176 H 0.96753 0.81078 0.03123 0.0
H177 H 0.81959 0.88821 0.96268 0.0
H178 H 0.84722 0.71686 0.08086 0.0
H179 H 0.85415 0.66385 0.04112 0.0
H180 H 0.93469 0.7143 0.05817 0.0
H181 H 0.70462 0.83073 0.94364 0.0
H182 H 0.6788 0.75255 0.95714 0.0
H183 H 0.66356 0.81349 -0.00986 0.0
H184 H 0.63614 0.56636 0.01612 0.0
H185 H 0.60099 0.70744 0.0999 0.0
H186 H 0.79812 0.62427 0.98166 0.0
H187 H 0.74905 0.66676 0.95202 0.0
H188 H 0.7122 0.58837 0.96141 0.0
H189 H 0.76654 0.80368 0.08612 0.0
H190 H 0.67466 0.80267 0.10385 0.0
H191 H 0.70141 0.83043 0.05683 0.0
C192 C 0.70074 0.1781 0.02777 0.0
C193 C 0.77224 0.18033 0.01305 0.0
C194 C 0.65813 0.22167 0.01859 0.0
C195 C 0.68684 0.26816 -0.00656 0.0
C196 C 0.7592 0.27185 0.97916 0.0
C197 C 0.80112 0.22832 0.98936 0.0
C198 C 0.58149 0.2168 0.03486 0.0
C199 C 0.79159 0.3207 0.95201 0.0
C200 C 0.5605 0.33445 0.92932 0.0
C201 C 0.56396 0.39357 0.94582 0.0
C202 C 0.5983 0.29255 0.94534 0.0
C203 C 0.63946 0.30971 0.97922 0.0
C204 C 0.63868 0.36769 -0.00226 0.0
C205 C 0.60118 0.40917 0.98067 0.0
C206 C 0.59719 0.23104 0.92482 0.0
C207 C 0.68017 0.38701 0.03452 0.0
H208 H 0.67674 0.14164 0.0459 0.0
H209 H 0.8563 0.23187 0.97827 0.0
H210 H 0.57216 0.2616 0.04747 0.0
H211 H 0.5415 0.20353 0.01133 0.0
H212 H 0.57023 0.18253 0.05746 0.0
H213 H 0.84967 0.319 0.94477 0.0
H214 H 0.76014 0.31519 0.92479 0.0
H215 H 0.78778 0.36649 0.96507 0.0
H216 H 0.52999 0.32155 0.903 0.0
H217 H 0.60386 0.4547 -0.00633 0.0
H218 H 0.58014 0.194 0.94507 0.0
H219 H 0.65294 0.22702 0.91423 0.0
H220 H 0.55973 0.22379 0.89979 0.0
H221 H 0.66933 0.35053 0.05566 0.0
H222 H 0.66564 0.42963 0.04808 0.0
H223 H 0.73958 0.39488 0.02807 0.0
C224 C 0.72771 0.69808 0.48855 0.0
C225 C 0.66296 0.68995 0.51057 0.0
C226 C 0.77865 0.75217 0.49245 0.0
C227 C 0.76552 0.798 0.52006 0.0
C228 C 0.69884 0.7909 0.54124 0.0
C229 C 0.64776 0.73723 0.53574 0.0
C230 C 0.84785 0.75901 0.46831 0.0
C231 C 0.68355 0.83811 0.57162 0.0
C232 C 0.92485 0.88976 0.57392 0.0
C233 C 0.9248 0.9485 0.56113 0.0
C234 C 0.87493 0.84001 0.55966 0.0
C235 C 0.82502 0.84892 0.53099 0.0
C236 C 0.82861 0.90731 0.51568 0.0
C237 C 0.87771 0.95691 0.53154 0.0
C238 C 0.87305 0.77866 0.57696 0.0
C239 C 0.77893 0.91785 0.48366 0.0
H240 H 0.7389 0.66184 0.46851 0.0
H241 H 0.59767 0.7309 0.55271 0.0
H242 H 0.86176 0.80587 0.45766 0.0
H243 H 0.89395 0.7512 0.48621 0.0
H244 H 0.8431 0.72584 0.44315 0.0
H245 H 0.62747 0.82741 0.5839 0.0
H246 H 0.7231 0.84067 0.59549 0.0
H247 H 0.69071 0.88381 0.55926 0.0
H248 H 0.96233 0.8832 0.59635 0.0
H249 H 0.87781 1.00241 0.52162 0.0
H250 H 0.88021 0.74374 0.55401 0.0
H251 H 0.81917 0.76398 0.59098 0.0
H252 H 0.91621 0.77957 0.59883 0.0
H253 H 0.72271 0.91648 0.49523 0.0
H254 H 0.77688 0.88133 0.46059 0.0
H255 H 0.7969 0.9627 0.47069 0.0
C256 C 0.82097 0.33654 0.44643 0.0
C257 C 0.77221 0.34734 0.47638 0.0
C258 C 0.85098 0.28286 0.44372 0.0
C259 C 0.83165 0.2381 0.4715 0.0
C260 C 0.78327 0.24874 0.50218 0.0
C261 C 0.75401 0.30322 0.50423 0.0
C262 C 0.90207 0.27341 0.41037 0.0
C263 C 0.76154 0.20214 0.53237 0.0
C264 C 0.85299 0.08194 0.42987 0.0
C265 C 0.92298 0.07719 0.44216 0.0
C266 C 0.82005 0.13192 0.44185 0.0
C267 C 0.85861 0.17881 0.46628 0.0
C268 C 0.92755 0.17218 0.48078 0.0
C269 C 0.95886 0.12115 0.46861 0.0
C270 C 0.74626 0.13664 0.42598 0.0
C271 C 0.97065 0.22105 0.50675 0.0
H272 H 0.83452 0.36946 0.4243 0.0
H273 H 0.71709 0.31132 0.52771 0.0
H274 H 0.95408 0.26305 0.42131 0.0
H275 H 0.87728 0.23379 0.39165 0.0
H276 H 0.91455 0.31396 0.39235 0.0
H277 H 0.72705 0.21876 0.55569 0.0
H278 H 0.73083 0.1597 0.51865 0.0
H279 H 0.81084 0.19004 0.54549 0.0
H280 H 0.82521 0.04757 0.40958 0.0
H281 H 1.0133 0.1176 0.47784 0.0
H282 H 0.7527 0.17249 0.40436 0.0
H283 H 0.70979 0.1501 0.44933 0.0
H284 H 0.71948 0.09302 0.41178 0.0
H285 H 0.99118 0.26162 0.48978 0.0
H286 H 0.01812 0.2054 0.51962 0.0
H287 H 0.9355 0.23567 0.53037 0.0
C288 C 0.32906 0.36185 0.48129 0.0
C289 C 0.39895 0.36566 0.49663 0.0
C290 C 0.27473 0.31133 0.48764 0.0
C291 C 0.2902 0.26482 0.51106 0.0
C292 C 0.36218 0.26651 0.52434 0.0
C293 C 0.41617 0.31674 0.51646 0.0
C294 C 0.19941 0.31003 0.47174 0.0
C295 C 0.38057 0.21833 0.54994 0.0
C296 C 0.13773 0.19555 0.5774 0.0
C297 C 0.1195 0.1359 0.56152 0.0
C298 C 0.19295 0.23769 0.56107 0.0
C299 C 0.22923 0.22071 0.52704 0.0
C300 C 0.20828 0.16189 0.5094 0.0
C301 C 0.15442 0.11979 0.5272 0.0
C302 C 0.21366 0.29998 0.58094 0.0
C303 C 0.24383 0.14288 0.47234 0.0
H304 H 0.31608 0.39957 0.46557 0.0
H305 H 0.4702 0.31994 0.52845 0.0
H306 H 0.17618 0.26357 0.46026 0.0
H307 H 0.16254 0.32242 0.49523 0.0
H308 H 0.1999 0.34267 0.44839 0.0
H309 H 0.44031 0.22235 0.55407 0.0
H310 H 0.3542 0.22296 0.5787 0.0
H311 H 0.35919 0.17206 0.53762 0.0
H312 H 0.10942 0.20925 0.6031 0.0
H313 H 0.14121 0.07385 0.51468 0.0
H314 H 0.20504 0.33589 0.56124 0.0
H315 H 0.27241 0.30806 0.58835 0.0
H316 H 0.18146 0.30521 0.60786 0.0
H317 H 0.2472 0.17892 0.45099 0.0
H318 H 0.21369 0.09956 0.45928 0.0
H319 H 0.30035 0.13639 0.4782 0.0
C320 C 0.29502 0.7345 0.48858 0.0
C321 C 0.2707 0.68986 0.51545 0.0
C322 C 0.25172 0.77736 0.47891 0.0
C323 C 0.18229 0.77614 0.4966 0.0
C324 C 0.15825 0.73316 0.52476 0.0
C325 C 0.20245 0.6906 0.53377 0.0
C326 C 0.27935 0.82279 0.44872 0.0
C327 C 0.08471 0.73081 0.54451 0.0
C328 C 0.09651 0.91666 0.48232 0.0
C329 C 0.05491 0.89831 0.44918 0.0
C330 C 0.13543 0.87632 0.49957 0.0
C331 C 0.13275 0.81654 0.48307 0.0
C332 C 0.08652 0.79661 0.45136 0.0
C333 C 0.04789 0.83764 0.43497 0.0
C334 C 0.18257 0.89888 0.53398 0.0
C335 C 0.08105 0.73299 0.43326 0.0
H336 H 0.34745 0.73582 0.47442 0.0
H337 H 0.18209 0.65739 0.55478 0.0
H338 H 0.24351 0.81435 0.42309 0.0
H339 H 0.27751 0.86984 0.46021 0.0
H340 H 0.33611 0.82006 0.43919 0.0
H341 H 0.0771 0.69897 0.56858 0.0
H342 H 0.07791 0.77685 0.55607 0.0
H343 H 0.04074 0.71578 0.52324 0.0
H344 H 0.10182 0.96342 0.49353 0.0
H345 H 1.01415 0.82287 0.40997 0.0
H346 H 0.24076 0.90638 0.52481 0.0
H347 H 0.17575 0.86444 0.55649 0.0
H348 H 0.16968 0.94245 0.54695 0.0
H349 H 0.13431 0.72731 0.41988 0.0
H350 H 0.03854 0.72331 0.41066 0.0
H351 H 0.06832 0.69857 0.45561 0.0
C352 C 0.98112 0.00468 0.13956 0.0
C353 C 0.0434 0.99689 0.11772 0.0
C354 C 0.97947 1.00047 0.17972 0.0
C355 C 0.04197 0.98878 0.1987 0.0
C356 C 0.10493 0.98019 0.1769 0.0
C357 C 0.10476 0.98396 0.13648 0.0
C358 C 0.91091 0.00915 0.20187 0.0
C359 C 0.17268 0.96811 0.19633 0.0
C360 C 0.04859 0.04084 0.30441 0.0
C361 C 0.02151 0.98633 0.32231 0.0
C362 C 0.05894 0.04176 0.26423 0.0
C363 C 0.04098 0.98694 0.24149 0.0
C364 C 0.01533 0.93149 0.25953 0.0
C365 C 1.00616 0.93183 0.29982 0.0
C366 C 0.08697 0.10169 0.24602 0.0
C367 C 0.99475 0.87228 0.23619 0.0
H368 H 0.93318 0.0141 0.12524 0.0
H369 H 0.15303 0.978 0.1197 0.0
H370 H 0.89147 0.9689 0.2193 0.0
H371 H 0.9227 0.04942 0.22224 0.0
H372 H 0.86622 0.01588 0.18254 0.0
H373 H 0.21641 0.96093 0.17519 0.0
H374 H 0.19391 0.00719 0.21634 0.0
H375 H 0.15944 0.92723 0.21393 0.0
H376 H 0.0616 0.08283 0.32189 0.0
H377 H 0.98491 0.88968 0.31366 0.0
H378 H 0.04351 0.11482 0.2283 0.0
H379 H 0.13376 0.09712 0.2264 0.0
H380 H 0.10451 0.13906 0.26795 0.0
H381 H 0.94657 0.87464 0.21826 0.0
H382 H 0.9814 0.83249 0.25479 0.0
H383 H 0.03989 0.86466 0.21617 0.0
C384 C 0.95468 0.046 0.87247 0.0
C385 C 0.01944 0.0389 0.89035 0.0
C386 C 0.95228 0.05085 0.8323 0.0
C387 C 0.01658 0.04995 0.8099 0.0
C388 C 0.08268 0.04504 0.82808 0.0
C389 C 0.0831 0.03885 0.86809 0.0
C390 C 0.88055 0.05479 0.81371 0.0
C391 C 0.15266 0.04522 0.8052 0.0
C392 C 1.0038 0.99476 0.70501 0.0
C393 C 0.01515 0.0498 0.68584 0.0
C394 C 1.00209 0.99433 0.74539 0.0
C395 C 1.01411 0.0503 0.7672 0.0
C396 C 0.02628 0.10608 0.74822 0.0
C397 C 0.02592 0.10518 0.7077 0.0
C398 C 0.98817 0.93389 0.76468 0.0
C399 C 0.04057 0.16658 0.77068 0.0
H400 H 0.90543 0.04593 0.88972 0.0
H401 H 0.13348 0.03419 0.88201 0.0
H402 H 0.88645 0.09526 0.79569 0.0
H403 H 0.86392 0.01396 0.79426 0.0
H404 H 0.83633 0.05765 0.83539 0.0
H405 H 0.20037 0.04573 0.82411 0.0
H406 H 0.14749 0.00411 0.78544 0.0
H407 H 0.16341 0.08562 0.78705 0.0
H408 H 0.99707 0.95172 0.68844 0.0
H409 H 0.03376 0.1479 0.69316 0.0
H410 H 0.94209 0.93272 0.78561 0.0
H411 H 0.03692 0.92813 0.78116 0.0
H412 H 0.97526 0.89463 0.74354 0.0
H413 H 0.99418 0.17092 0.79061 0.0
H414 H 0.0489 0.20587 0.75151 0.0
H415 H 0.08979 0.16908 0.78869 0.0
C416 C 0.60901 0.49326 0.63486 0.0
C417 C 0.54678 0.50606 0.61689 0.0
C418 C 0.61056 0.48871 0.67519 0.0
C419 C 0.5481 0.49634 0.69771 0.0
C420 C 0.4848 0.5081 0.67952 0.0
C421 C 0.48509 0.51314 0.63943 0.0
C422 C 0.67916 0.47665 0.69377 0.0
C423 C 0.41671 0.5157 0.70244 0.0
C424 C 0.5155 0.43499 0.79788 0.0
C425 C 0.53065 0.48862 0.82123 0.0
C426 C 0.52371 0.43642 0.75759 0.0
C427 C 0.54821 0.49279 0.74039 0.0
C428 C 0.56605 0.54677 0.76397 0.0
C429 C 0.55659 0.54408 0.80416 0.0
C430 C 0.50321 0.37807 0.73337 0.0
C431 C 0.59296 0.60762 0.74667 0.0
H432 H 0.65683 0.48789 0.61754 0.0
H433 H 0.43651 0.52249 0.62571 0.0
H434 H 0.70017 0.51501 0.71435 0.0
H435 H 0.66702 0.43488 0.71061 0.0
H436 H 0.72267 0.47097 0.67216 0.0
H437 H 0.37143 0.52299 0.68369 0.0
H438 H 0.39797 0.47469 0.71931 0.0
H439 H 0.42878 0.55522 0.72337 0.0
H440 H 0.49506 0.39212 0.81107 0.0
H441 H 0.56935 0.58541 0.82229 0.0
H442 H 0.54805 0.37159 0.71287 0.0
H443 H 0.45453 0.38084 0.71593 0.0
H444 H 0.49068 0.33743 0.75131 0.0
H445 H 0.63931 0.6042 0.72651 0.0
H446 H 0.61076 0.64415 0.7691 0.0
H447 H 0.5488 0.6212 0.7297 0.0
C448 C 0.44936 0.55716 0.37321 0.0
C449 C 0.51481 0.54924 0.39003 0.0
C450 C 0.44461 0.56131 0.33308 0.0
C451 C 0.50725 0.55878 0.30961 0.0
C452 C 0.57416 0.55322 0.32671 0.0
C453 C 0.57691 0.54782 0.36672 0.0
C454 C 0.37206 0.56603 0.31569 0.0
C455 C 0.64245 0.55159 0.30265 0.0
C456 C 0.48831 0.49966 0.20563 0.0
C457 C 0.50083 0.55383 0.18553 0.0
C458 C 0.48774 0.50088 0.24604 0.0
C459 C 0.50204 0.5576 0.26695 0.0
C460 C 0.51468 0.61252 0.24704 0.0
C461 C 0.51323 0.61001 0.20651 0.0
C462 C 0.47324 0.44132 0.26633 0.0
C463 C 0.53125 0.67376 0.26851 0.0
H464 H 0.40129 0.55816 0.39127 0.0
H465 H 0.62785 0.54251 0.3798 0.0
H466 H 0.37785 0.60558 0.29689 0.0
H467 H 0.35293 0.52453 0.29723 0.0
H468 H 0.32967 0.57093 0.3381 0.0
H469 H 0.69127 0.55211 0.32074 0.0
H470 H 0.63526 0.50975 0.28348 0.0
H471 H 0.65274 0.59122 0.28384 0.0
H472 H 0.48032 0.45598 0.18977 0.0
H473 H 0.52199 0.65208 0.19125 0.0
H474 H 0.42882 0.442 0.28811 0.0
H475 H 0.52273 0.43499 0.28197 0.0
H476 H 0.45769 0.40146 0.24591 0.0
H477 H 0.48675 0.6792 0.28947 0.0
H478 H 0.53819 0.71227 0.24874 0.0
H479 H 0.58201 0.67657 0.28531 0.0
loop_
_geom_bond_atom_site_label_1
_geom_bond_atom_site_label_2
_geom_bond_distance
_geom_bond_site_symmetry_2
_ccdc_geom_bond_type
Co0 N5 2.057 . S
Co0 O17 2.021 . S
Co0 O20 2.062 1_455 S
Co0 O24 2.117 1_554 S
Co0 O25 2.020 1_565 S
C1 O21 1.259 1_455 S
C1 O24 1.258 1_545 S
Co2 N11 2.057 . S
Co2 O18 2.117 . S
Co2 O19 2.020 1_545 S
Co2 O21 2.021 1_554 S
Co2 O26 2.062 1_655 S
C3 N5 1.316 . S
C3 N6 1.347 . S
C3 H8 0.931 . S
C4 N5 1.375 1_556 S
C4 C7 1.350 . S
C4 H9 0.930 . S
N5 Co0 2.057 . S
N5 C3 1.316 . S
N5 C4 1.375 1_554 S
N6 C3 1.347 . S
N6 C7 1.373 1_554 S
C7 C4 1.350 . S
C7 N6 1.373 1_556 S
C7 H28 0.931 . S
H8 C3 0.931 . S
H9 C4 0.930 . S
C10 O17 1.259 1_545 S
C10 O18 1.258 1_455 S
N11 Co2 2.057 . S
N11 C12 1.316 . S
N11 C13 1.375 . S
C12 N11 1.316 . S
C12 N14 1.347 . S
C12 H23 0.931 1_554 S
C13 N11 1.375 . S
C13 C15 1.350 . S
C13 H22 0.930 . S
N14 C12 1.347 . S
N14 C15 1.373 . S
C15 C13 1.350 . S
C15 N14 1.373 . S
C15 H29 0.931 . S
C16 O19 1.256 . S
C16 O20 1.255 . S
O17 Co0 2.021 . S
O17 C10 1.259 1_565 S
O18 Co2 2.117 . S
O18 C10 1.258 1_655 S
O19 Co2 2.020 1_565 S
O19 C16 1.256 . S
O20 Co0 2.062 1_655 S
O20 C16 1.255 . S
O21 C1 1.259 1_655 S
O21 Co2 2.021 1_556 S
H22 C13 0.930 . S
H23 C12 0.931 1_556 S
O24 Co0 2.117 1_556 S
O24 C1 1.258 1_565 S
O25 Co0 2.020 1_545 S
O25 C27 1.256 . S
O26 Co2 2.062 1_455 S
O26 C27 1.255 . S
C27 O25 1.256 . S
C27 O26 1.255 . S
H28 C7 0.931 . S
H29 C15 0.931 . S
Co30 N35 2.057 . S
Co30 O47 2.021 . S
Co30 O50 2.062 . S
Co30 O54 2.117 . S
Co30 O55 2.020 . S
C31 O51 1.259 . S
C31 O54 1.258 . S
Co32 N41 2.057 . S
Co32 O48 2.117 . S
Co32 O49 2.020 . S
Co32 O51 2.021 . S
Co32 O56 2.062 . S
C33 N35 1.316 . S
C33 N36 1.347 . S
C33 H38 0.931 . S
C34 N35 1.375 . S
C34 C37 1.350 . S
C34 H39 0.930 . S
N35 Co30 2.057 . S
N35 C33 1.316 . S
N35 C34 1.375 . S
N36 C33 1.347 . S
N36 C37 1.373 . S
C37 C34 1.350 . S
C37 N36 1.373 . S
C37 H58 0.931 . S
H38 C33 0.931 . S
H39 C34 0.930 . S
C40 O47 1.259 . S
C40 O48 1.258 . S
N41 Co32 2.057 . S
N41 C42 1.316 . S
N41 C43 1.375 . S
C42 N41 1.316 . S
C42 N44 1.347 . S
C42 H53 0.931 . S
C43 N41 1.375 . S
C43 C45 1.350 . S
C43 H52 0.930 . S
N44 C42 1.347 . S
N44 C45 1.373 . S
C45 C43 1.350 . S
C45 N44 1.373 . S
C45 H59 0.931 . S
C46 O49 1.256 . S
C46 O50 1.255 . S
O47 Co30 2.021 . S
O47 C40 1.259 . S
O48 Co32 2.117 . S
O48 C40 1.258 . S
O49 Co32 2.020 . S
O49 C46 1.256 . S
O50 Co30 2.062 . S
O50 C46 1.255 . S
O51 C31 1.259 . S
O51 Co32 2.021 . S
H52 C43 0.930 . S
H53 C42 0.931 . S
O54 Co30 2.117 . S
O54 C31 1.258 . S
O55 Co30 2.020 . S
O55 C57 1.256 . S
O56 Co32 2.062 . S
O56 C57 1.255 . S
C57 O55 1.256 . S
C57 O56 1.255 . S
H58 C37 0.931 . S
H59 C45 0.931 . S
H60 C63 0.931 . S
H61 C66 0.928 . S
H62 C68 0.931 . S
C63 H60 0.931 . S
C63 C64 1.413 . S
C63 C65 1.359 . S
C64 C63 1.413 . S
C64 C68 1.421 1_655 S
C65 C63 1.359 . S
C65 C66 1.372 1_645 S
C66 H61 0.928 . S
C66 C65 1.372 1_465 S
C66 C67 1.404 . S
C67 C66 1.404 . S
C67 C68 1.399 1_565 S
C68 H62 0.931 . S
C68 C64 1.421 1_455 S
C68 C67 1.399 1_545 S
H69 C72 0.931 . S
H70 C75 0.928 . S
H71 C77 0.930 . S
C72 H69 0.931 . S
C72 C73 1.413 . S
C72 C74 1.360 1_665 S
C73 C72 1.413 . S
C73 C77 1.429 1_665 S
C74 C72 1.360 1_445 S
C74 C75 1.372 . S
C75 H70 0.928 . S
C75 C74 1.372 . S
C75 C76 1.404 . S
C76 C75 1.404 . S
C76 C77 1.391 . S
C77 H71 0.930 . S
C77 C73 1.429 1_445 S
C77 C76 1.391 . S
H78 C81 0.931 . S
H79 C84 0.928 . S
H80 C86 0.930 . S
C81 H78 0.931 . S
C81 C82 1.413 . S
C81 C83 1.360 . S
C82 C81 1.413 . S
C82 C86 1.429 . S
C83 C81 1.360 . S
C83 C84 1.372 . S
C84 H79 0.928 . S
C84 C83 1.372 . S
C84 C85 1.404 . S
C85 C84 1.404 . S
C85 C86 1.391 . S
C86 H80 0.930 . S
C86 C82 1.429 . S
C86 C85 1.391 . S
H87 C90 0.931 . S
H88 C93 0.928 . S
H89 C95 0.930 . S
C90 H87 0.931 . S
C90 C91 1.413 . S
C90 C92 1.360 . S
C91 C90 1.413 . S
C91 C95 1.429 . S
C92 C90 1.360 . S
C92 C93 1.372 . S
C93 H88 0.928 . S
C93 C92 1.372 . S
C93 C94 1.404 . S
C94 C93 1.404 . S
C94 C95 1.391 . S
C95 H89 0.930 . S
C95 C91 1.429 . S
C95 C94 1.391 . S
C96 C97 1.391 . S
C96 C98 1.394 . S
C96 H112 0.931 1_554 S
C97 C96 1.391 . S
C97 C101 1.376 . S
C98 C96 1.394 . S
C98 C99 1.369 . S
C98 C102 1.531 1_554 S
C99 C98 1.369 . S
C99 C100 1.410 . S
C99 C107 1.503 . S
C100 C99 1.410 . S
C100 C101 1.392 . S
C100 C103 1.511 . S
C101 C97 1.376 . S
C101 C100 1.392 . S
C101 H113 0.929 . S
C102 C98 1.531 1_556 S
C102 H114 0.960 . S
C102 H115 0.962 1_556 S
C102 H116 0.960 . S
C103 C100 1.511 . S
C103 H117 0.961 . S
C103 H118 0.961 . S
C103 H119 0.961 . S
C104 C105 1.370 . S
C104 C106 1.363 . S
C104 H120 0.931 . S
C105 C104 1.370 . S
C105 C109 1.408 . S
C106 C104 1.363 . S
C106 C107 1.370 . S
C106 C110 1.524 . S
C107 C99 1.503 . S
C107 C106 1.370 . S
C107 C108 1.403 . S
C108 C107 1.403 . S
C108 C109 1.404 . S
C108 C111 1.539 1_554 S
C109 C105 1.408 . S
C109 C108 1.404 . S
C109 H121 0.930 . S
C110 C106 1.524 . S
C110 H122 0.956 . S
C110 H123 0.961 . S
C110 H124 0.961 . S
C111 C108 1.539 1_556 S
C111 H125 0.958 . S
C111 H126 0.961 . S
C111 H127 0.960 . S
H112 C96 0.931 1_556 S
H113 C101 0.929 . S
H114 C102 0.960 . S
H115 C102 0.962 1_554 S
H116 C102 0.960 . S
H117 C103 0.961 . S
H118 C103 0.961 . S
H119 C103 0.961 . S
H120 C104 0.931 . S
H121 C109 0.930 . S
H122 C110 0.956 . S
H123 C110 0.961 . S
H124 C110 0.961 . S
H125 C111 0.958 . S
H126 C111 0.961 . S
H127 C111 0.960 . S
C128 C129 1.391 1_556 S
C128 C130 1.394 . S
C128 H144 0.931 . S
C129 C128 1.391 1_554 S
C129 C133 1.376 . S
C130 C128 1.394 . S
C130 C131 1.369 . S
C130 C134 1.531 . S
C131 C130 1.369 . S
C131 C132 1.410 1_556 S
C131 C139 1.503 . S
C132 C131 1.410 1_554 S
C132 C133 1.392 . S
C132 C135 1.511 . S
C133 C129 1.376 . S
C133 C132 1.392 . S
C133 H145 0.929 . S
C134 C130 1.531 . S
C134 H146 0.960 . S
C134 H147 0.962 . S
C134 H148 0.960 . S
C135 C132 1.511 . S
C135 H149 0.961 . S
C135 H150 0.961 . S
C135 H151 0.961 . S
C136 C137 1.370 . S
C136 C138 1.363 . S
C136 H152 0.931 . S
C137 C136 1.370 . S
C137 C141 1.408 . S
C138 C136 1.363 . S
C138 C139 1.370 . S
C138 C142 1.524 . S
C139 C131 1.503 . S
C139 C138 1.370 . S
C139 C140 1.403 . S
C140 C139 1.403 . S
C140 C141 1.404 . S
C140 C143 1.539 . S
C141 C137 1.408 . S
C141 C140 1.404 . S
C141 H153 0.930 . S
C142 C138 1.524 . S
C142 H154 0.956 . S
C142 H155 0.961 1_556 S
C142 H156 0.961 . S
C143 C140 1.539 . S
C143 H157 0.958 . S
C143 H158 0.961 . S
C143 H159 0.960 . S
H144 C128 0.931 . S
H145 C133 0.929 . S
H146 C134 0.960 . S
H147 C134 0.962 . S
H148 C134 0.960 . S
H149 C135 0.961 . S
H150 C135 0.961 . S
H151 C135 0.961 . S
H152 C136 0.931 . S
H153 C141 0.930 . S
H154 C142 0.956 . S
H155 C142 0.961 1_554 S
H156 C142 0.961 . S
H157 C143 0.958 . S
H158 C143 0.961 . S
H159 C143 0.960 . S
C160 C161 1.391 . S
C160 C162 1.394 . S
C160 H176 0.931 . S
C161 C160 1.391 . S
C161 C165 1.376 . S
C162 C160 1.394 . S
C162 C163 1.369 . S
C162 C166 1.531 . S
C163 C162 1.369 . S
C163 C164 1.410 . S
C163 C171 1.503 . S
C164 C163 1.410 . S
C164 C165 1.392 . S
C164 C167 1.511 1_554 S
C165 C161 1.376 . S
C165 C164 1.392 . S
C165 H177 0.929 1_554 S
C166 C162 1.531 . S
C166 H178 0.960 . S
C166 H179 0.962 . S
C166 H180 0.960 . S
C167 C164 1.511 1_556 S
C167 H181 0.961 . S
C167 H182 0.961 . S
C167 H183 0.961 1_556 S
C168 C169 1.370 . S
C168 C170 1.363 . S
C168 H184 0.931 . S
C169 C168 1.370 . S
C169 C173 1.408 . S
C170 C168 1.363 . S
C170 C171 1.370 . S
C170 C174 1.524 . S
C171 C163 1.503 . S
C171 C170 1.370 . S
C171 C172 1.403 . S
C172 C171 1.403 . S
C172 C173 1.404 . S
C172 C175 1.539 . S
C173 C169 1.408 . S
C173 C172 1.404 . S
C173 H185 0.930 . S
C174 C170 1.524 . S
C174 H186 0.956 . S
C174 H187 0.961 1_554 S
C174 H188 0.961 1_554 S
C175 C172 1.539 . S
C175 H189 0.958 . S
C175 H190 0.961 . S
C175 H191 0.960 . S
H176 C160 0.931 . S
H177 C165 0.929 1_556 S
H178 C166 0.960 . S
H179 C166 0.962 . S
H180 C166 0.960 . S
H181 C167 0.961 . S
H182 C167 0.961 . S
H183 C167 0.961 1_554 S
H184 C168 0.931 . S
H185 C173 0.930 . S
H186 C174 0.956 . S
H187 C174 0.961 1_556 S
H188 C174 0.961 1_556 S
H189 C175 0.958 . S
H190 C175 0.961 . S
H191 C175 0.960 . S
C192 C193 1.391 . S
C192 C194 1.394 . S
C192 H208 0.931 . S
C193 C192 1.391 . S
C193 C197 1.376 . S
C194 C192 1.394 . S
C194 C195 1.369 1_554 S
C194 C198 1.531 . S
C195 C194 1.369 1_556 S
C195 C196 1.410 . S
C195 C203 1.503 . S
C196 C195 1.410 . S
C196 C197 1.386 1_556 S
C196 C199 1.517 . S
C197 C193 1.376 . S
C197 C196 1.386 1_554 S
C197 H209 0.929 . S
C198 C194 1.531 . S
C198 H210 0.960 . S
C198 H211 0.962 1_554 S
C198 H212 0.960 . S
C199 C196 1.517 . S
C199 H213 0.961 . S
C199 H214 0.961 . S
C199 H215 0.961 1_556 S
C200 C201 1.370 . S
C200 C202 1.363 . S
C200 H216 0.931 . S
C201 C200 1.370 . S
C201 C205 1.408 . S
C202 C200 1.363 . S
C202 C203 1.370 . S
C202 C206 1.524 . S
C203 C195 1.503 . S
C203 C202 1.370 . S
C203 C204 1.403 1_556 S
C204 C203 1.403 1_554 S
C204 C205 1.404 1_554 S
C204 C207 1.539 . S
C205 C201 1.408 . S
C205 C204 1.404 1_556 S
C205 H217 0.930 1_556 S
C206 C202 1.524 . S
C206 H218 0.956 . S
C206 H219 0.961 . S
C206 H220 0.961 . S
C207 C204 1.539 . S
C207 H221 0.958 . S
C207 H222 0.961 . S
C207 H223 0.960 . S
H208 C192 0.931 . S
H209 C197 0.929 . S
H210 C198 0.960 . S
H211 C198 0.962 1_556 S
H212 C198 0.960 . S
H213 C199 0.961 . S
H214 C199 0.961 . S
H215 C199 0.961 1_554 S
H216 C200 0.931 . S
H217 C205 0.930 1_554 S
H218 C206 0.956 . S
H219 C206 0.961 . S
H220 C206 0.961 . S
H221 C207 0.958 . S
H222 C207 0.961 . S
H223 C207 0.960 . S
C224 C225 1.391 . S
C224 C226 1.394 . S
C224 H240 0.931 . S
C225 C224 1.391 . S
C225 C229 1.376 . S
C226 C224 1.394 . S
C226 C227 1.369 . S
C226 C230 1.531 . S
C227 C226 1.369 . S
C227 C228 1.410 . S
C227 C235 1.503 . S
C228 C227 1.410 . S
C228 C229 1.392 . S
C228 C231 1.511 . S
C229 C225 1.376 . S
C229 C228 1.392 . S
C229 H241 0.929 . S
C230 C226 1.531 . S
C230 H242 0.960 . S
C230 H243 0.962 . S
C230 H244 0.960 . S
C231 C228 1.511 . S
C231 H245 0.961 . S
C231 H246 0.961 . S
C231 H247 0.961 . S
C232 C233 1.370 . S
C232 C234 1.363 . S
C232 H248 0.931 . S
C233 C232 1.370 . S
C233 C237 1.408 . S
C234 C232 1.363 . S
C234 C235 1.370 . S
C234 C238 1.524 . S
C235 C227 1.503 . S
C235 C234 1.370 . S
C235 C236 1.403 . S
C236 C235 1.403 . S
C236 C237 1.404 . S
C236 C239 1.539 . S
C237 C233 1.408 . S
C237 C236 1.404 . S
C237 H249 0.930 . S
C238 C234 1.524 . S
C238 H250 0.956 . S
C238 H251 0.961 . S
C238 H252 0.961 . S
C239 C236 1.539 . S
C239 H253 0.958 . S
C239 H254 0.961 . S
C239 H255 0.960 . S
H240 C224 0.931 . S
H241 C229 0.929 . S
H242 C230 0.960 . S
H243 C230 0.962 . S
H244 C230 0.960 . S
H245 C231 0.961 . S
H246 C231 0.961 . S
H247 C231 0.961 . S
H248 C232 0.931 . S
H249 C237 0.930 . S
H250 C238 0.956 . S
H251 C238 0.961 . S
H252 C238 0.961 . S
H253 C239 0.958 . S
H254 C239 0.961 . S
H255 C239 0.960 . S
C256 C257 1.391 . S
C256 C258 1.394 . S
C256 H272 0.931 . S
C257 C256 1.391 . S
C257 C261 1.376 . S
C258 C256 1.394 . S
C258 C259 1.369 . S
C258 C262 1.531 . S
C259 C258 1.369 . S
C259 C260 1.410 . S
C259 C267 1.503 . S
C260 C259 1.410 . S
C260 C261 1.392 . S
C260 C263 1.511 . S
C261 C257 1.376 . S
C261 C260 1.392 . S
C261 H273 0.929 . S
C262 C258 1.531 . S
C262 H274 0.960 . S
C262 H275 0.962 . S
C262 H276 0.960 . S
C263 C260 1.511 . S
C263 H277 0.961 . S
C263 H278 0.961 . S
C263 H279 0.961 . S
C264 C265 1.370 . S
C264 C266 1.363 . S
C264 H280 0.931 . S
C265 C264 1.370 . S
C265 C269 1.408 . S
C266 C264 1.363 . S
C266 C267 1.370 . S
C266 C270 1.524 . S
C267 C259 1.503 . S
C267 C266 1.370 . S
C267 C268 1.403 . S
C268 C267 1.403 . S
C268 C269 1.404 . S
C268 C271 1.539 . S
C269 C265 1.408 . S
C269 C268 1.404 . S
C269 H281 0.930 1_655 S
C270 C266 1.524 . S
C270 H282 0.956 . S
C270 H283 0.961 . S
C270 H284 0.961 . S
C271 C268 1.539 . S
C271 H285 0.958 . S
C271 H286 0.961 1_655 S
C271 H287 0.960 . S
H272 C256 0.931 . S
H273 C261 0.929 . S
H274 C262 0.960 . S
H275 C262 0.962 . S
H276 C262 0.960 . S
H277 C263 0.961 . S
H278 C263 0.961 . S
H279 C263 0.961 . S
H280 C264 0.931 . S
H281 C269 0.930 1_455 S
H282 C270 0.956 . S
H283 C270 0.961 . S
H284 C270 0.961 . S
H285 C271 0.958 . S
H286 C271 0.961 1_455 S
H287 C271 0.960 . S
C288 C289 1.391 . S
C288 C290 1.394 . S
C288 H304 0.931 . S
C289 C288 1.391 . S
C289 C293 1.376 . S
C290 C288 1.394 . S
C290 C291 1.369 . S
C290 C294 1.531 . S
C291 C290 1.369 . S
C291 C292 1.410 . S
C291 C299 1.503 . S
C292 C291 1.410 . S
C292 C293 1.392 . S
C292 C295 1.511 . S
C293 C289 1.376 . S
C293 C292 1.392 . S
C293 H305 0.929 . S
C294 C290 1.531 . S
C294 H306 0.960 . S
C294 H307 0.962 . S
C294 H308 0.960 . S
C295 C292 1.511 . S
C295 H309 0.961 . S
C295 H310 0.961 . S
C295 H311 0.961 . S
C296 C297 1.370 . S
C296 C298 1.363 . S
C296 H312 0.931 . S
C297 C296 1.370 . S
C297 C301 1.408 . S
C298 C296 1.363 . S
C298 C299 1.370 . S
C298 C302 1.524 . S
C299 C291 1.503 . S
C299 C298 1.370 . S
C299 C300 1.403 . S
C300 C299 1.403 . S
C300 C301 1.404 . S
C300 C303 1.539 . S
C301 C297 1.408 . S
C301 C300 1.404 . S
C301 H313 0.930 . S
C302 C298 1.524 . S
C302 H314 0.956 . S
C302 H315 0.961 . S
C302 H316 0.961 . S
C303 C300 1.539 . S
C303 H317 0.958 . S
C303 H318 0.961 . S
C303 H319 0.960 . S
H304 C288 0.931 . S
H305 C293 0.929 . S
H306 C294 0.960 . S
H307 C294 0.962 . S
H308 C294 0.960 . S
H309 C295 0.961 . S
H310 C295 0.961 . S
H311 C295 0.961 . S
H312 C296 0.931 . S
H313 C301 0.930 . S
H314 C302 0.956 . S
H315 C302 0.961 . S
H316 C302 0.961 . S
H317 C303 0.958 . S
H318 C303 0.961 . S
H319 C303 0.960 . S
C320 C321 1.391 . S
C320 C322 1.394 . S
C320 H336 0.931 . S
C321 C320 1.391 . S
C321 C325 1.376 . S
C322 C320 1.394 . S
C322 C323 1.369 . S
C322 C326 1.531 . S
C323 C322 1.369 . S
C323 C324 1.410 . S
C323 C331 1.503 . S
C324 C323 1.410 . S
C324 C325 1.392 . S
C324 C327 1.511 . S
C325 C321 1.376 . S
C325 C324 1.392 . S
C325 H337 0.929 . S
C326 C322 1.531 . S
C326 H338 0.960 . S
C326 H339 0.962 . S
C326 H340 0.960 . S
C327 C324 1.511 . S
C327 H341 0.961 . S
C327 H342 0.961 . S
C327 H343 0.961 . S
C328 C329 1.370 . S
C328 C330 1.363 . S
C328 H344 0.931 . S
C329 C328 1.370 . S
C329 C333 1.408 . S
C330 C328 1.363 . S
C330 C331 1.370 . S
C330 C334 1.524 . S
C331 C323 1.503 . S
C331 C330 1.370 . S
C331 C332 1.403 . S
C332 C331 1.403 . S
C332 C333 1.404 . S
C332 C335 1.539 . S
C333 C329 1.408 . S
C333 C332 1.404 . S
C333 H345 0.930 . S
C334 C330 1.524 . S
C334 H346 0.956 . S
C334 H347 0.961 . S
C334 H348 0.961 . S
C335 C332 1.539 . S
C335 H349 0.958 . S
C335 H350 0.961 . S
C335 H351 0.960 . S
H336 C320 0.931 . S
H337 C325 0.929 . S
H338 C326 0.960 . S
H339 C326 0.962 . S
H340 C326 0.960 . S
H341 C327 0.961 . S
H342 C327 0.961 . S
H343 C327 0.961 . S
H344 C328 0.931 . S
H345 C333 0.930 . S
H346 C334 0.956 . S
H347 C334 0.961 . S
H348 C334 0.961 . S
H349 C335 0.958 . S
H350 C335 0.961 . S
H351 C335 0.960 . S
C352 C353 1.391 1_665 S
C352 C354 1.394 . S
C352 H368 0.931 . S
C353 C352 1.391 1_445 S
C353 C357 1.376 . S
C354 C352 1.394 . S
C354 C355 1.369 1_655 S
C354 C358 1.531 . S
C355 C354 1.369 1_455 S
C355 C356 1.410 1_565 S
C355 C363 1.503 . S
C356 C355 1.410 1_545 S
C356 C357 1.392 . S
C356 C359 1.511 . S
C357 C353 1.376 . S
C357 C356 1.392 . S
C357 H369 0.929 . S
C358 C354 1.531 . S
C358 H370 0.960 . S
C358 H371 0.962 . S
C358 H372 0.960 . S
C359 C356 1.511 . S
C359 H373 0.961 . S
C359 H374 0.961 . S
C359 H375 0.961 . S
C360 C361 1.384 1_655 S
C360 C362 1.363 . S
C360 H376 0.931 . S
C361 C360 1.384 1_455 S
C361 C365 1.394 1_545 S
C362 C360 1.363 . S
C362 C363 1.370 1_645 S
C362 C366 1.524 . S
C363 C355 1.503 . S
C363 C362 1.370 1_465 S
C363 C364 1.403 . S
C364 C363 1.403 . S
C364 C365 1.404 . S
C364 C367 1.539 . S
C365 C361 1.394 1_565 S
C365 C364 1.404 . S
C365 H377 0.930 . S
C366 C362 1.524 . S
C366 H378 0.956 . S
C366 H379 0.961 . S
C366 H380 0.961 . S
C367 C364 1.539 . S
C367 H381 0.958 . S
C367 H382 0.961 . S
C367 H383 0.960 . S
H368 C352 0.931 . S
H369 C357 0.929 . S
H370 C358 0.960 . S
H371 C358 0.962 . S
H372 C358 0.960 . S
H373 C359 0.961 . S
H374 C359 0.961 . S
H375 C359 0.961 . S
H376 C360 0.931 . S
H377 C365 0.930 . S
H378 C366 0.956 . S
H379 C366 0.961 . S
H380 C366 0.961 . S
H381 C367 0.958 . S
H382 C367 0.961 . S
H383 C367 0.960 . S
C384 C385 1.391 1_655 S
C384 C386 1.394 . S
C384 H400 0.931 . S
C385 C384 1.391 1_455 S
C385 C389 1.376 . S
C386 C384 1.394 . S
C386 C387 1.369 1_655 S
C386 C390 1.531 . S
C387 C386 1.369 1_455 S
C387 C388 1.410 . S
C387 C395 1.503 . S
C388 C387 1.410 . S
C388 C389 1.392 . S
C388 C391 1.511 . S
C389 C385 1.376 . S
C389 C388 1.392 . S
C389 H401 0.929 . S
C390 C386 1.531 . S
C390 H402 0.960 . S
C390 H403 0.962 . S
C390 H404 0.960 . S
C391 C388 1.511 . S
C391 H405 0.963 . S
C391 H406 0.961 . S
C391 H407 0.961 . S
C392 C393 1.370 1_665 S
C392 C394 1.363 . S
C392 H408 0.931 . S
C393 C392 1.370 1_445 S
C393 C397 1.408 . S
C394 C392 1.363 . S
C394 C395 1.370 1_665 S
C394 C398 1.524 . S
C395 C387 1.503 . S
C395 C394 1.370 1_445 S
C395 C396 1.403 . S
C396 C395 1.403 . S
C396 C397 1.404 . S
C396 C399 1.539 . S
C397 C393 1.408 . S
C397 C396 1.404 . S
C397 H409 0.930 . S
C398 C394 1.524 . S
C398 H410 0.956 . S
C398 H411 0.961 1_655 S
C398 H412 0.961 . S
C399 C396 1.539 . S
C399 H413 0.958 . S
C399 H414 0.961 . S
C399 H415 0.960 . S
H400 C384 0.931 . S
H401 C389 0.929 . S
H402 C390 0.960 . S
H403 C390 0.962 . S
H404 C390 0.960 . S
H405 C391 0.963 . S
H406 C391 0.961 . S
H407 C391 0.961 . S
H408 C392 0.931 . S
H409 C397 0.930 . S
H410 C398 0.956 . S
H411 C398 0.961 1_455 S
H412 C398 0.961 . S
H413 C399 0.958 . S
H414 C399 0.961 . S
H415 C399 0.960 . S
C416 C417 1.391 . S
C416 C418 1.394 . S
C416 H432 0.931 . S
C417 C416 1.391 . S
C417 C421 1.376 . S
C418 C416 1.394 . S
C418 C419 1.369 . S
C418 C422 1.531 . S
C419 C418 1.369 . S
C419 C420 1.410 . S
C419 C427 1.503 . S
C420 C419 1.410 . S
C420 C421 1.392 . S
C420 C423 1.511 . S
C421 C417 1.376 . S
C421 C420 1.392 . S
C421 H433 0.929 . S
C422 C418 1.531 . S
C422 H434 0.960 . S
C422 H435 0.962 . S
C422 H436 0.960 . S
C423 C420 1.511 . S
C423 H437 0.961 . S
C423 H438 0.961 . S
C423 H439 0.961 . S
C424 C425 1.370 . S
C424 C426 1.363 . S
C424 H440 0.931 . S
C425 C424 1.370 . S
C425 C429 1.408 . S
C426 C424 1.363 . S
C426 C427 1.370 . S
C426 C430 1.524 . S
C427 C419 1.503 . S
C427 C426 1.370 . S
C427 C428 1.403 . S
C428 C427 1.403 . S
C428 C429 1.404 . S
C428 C431 1.539 . S
C429 C425 1.408 . S
C429 C428 1.404 . S
C429 H441 0.930 . S
C430 C426 1.524 . S
C430 H442 0.956 . S
C430 H443 0.961 . S
C430 H444 0.961 . S
C431 C428 1.539 . S
C431 H445 0.958 . S
C431 H446 0.961 . S
C431 H447 0.960 . S
H432 C416 0.931 . S
H433 C421 0.929 . S
H434 C422 0.960 . S
H435 C422 0.962 . S
H436 C422 0.960 . S
H437 C423 0.961 . S
H438 C423 0.961 . S
H439 C423 0.961 . S
H440 C424 0.931 . S
H441 C429 0.930 . S
H442 C430 0.956 . S
H443 C430 0.961 . S
H444 C430 0.961 . S
H445 C431 0.958 . S
H446 C431 0.961 . S
H447 C431 0.960 . S
C448 C449 1.391 . S
C448 C450 1.394 . S
C448 H464 0.931 . S
C449 C448 1.391 . S
C449 C453 1.376 . S
C450 C448 1.394 . S
C450 C451 1.369 . S
C450 C454 1.531 . S
C451 C450 1.369 . S
C451 C452 1.410 . S
C451 C459 1.503 . S
C452 C451 1.410 . S
C452 C453 1.392 . S
C452 C455 1.511 . S
C453 C449 1.376 . S
C453 C452 1.392 . S
C453 H465 0.929 . S
C454 C450 1.531 . S
C454 H466 0.960 . S
C454 H467 0.962 . S
C454 H468 0.960 . S
C455 C452 1.511 . S
C455 H469 0.961 . S
C455 H470 0.961 . S
C455 H471 0.961 . S
C456 C457 1.370 . S
C456 C458 1.363 . S
C456 H472 0.931 . S
C457 C456 1.370 . S
C457 C461 1.408 . S
C458 C456 1.363 . S
C458 C459 1.370 . S
C458 C462 1.524 . S
C459 C451 1.503 . S
C459 C458 1.370 . S
C459 C460 1.403 . S
C460 C459 1.403 . S
C460 C461 1.404 . S
C460 C463 1.539 . S
C461 C457 1.408 . S
C461 C460 1.404 . S
C461 H473 0.930 . S
C462 C458 1.524 . S
C462 H474 0.956 . S
C462 H475 0.961 . S
C462 H476 0.961 . S
C463 C460 1.539 . S
C463 H477 0.958 . S
C463 H478 0.961 . S
C463 H479 0.960 . S
H464 C448 0.931 . S
H465 C453 0.929 . S
H466 C454 0.960 . S
H467 C454 0.962 . S
H468 C454 0.960 . S
H469 C455 0.961 . S
H470 C455 0.961 . S
H471 C455 0.961 . S
H472 C456 0.931 . S
H473 C461 0.930 . S
H474 C462 0.956 . S
H475 C462 0.961 . S
H476 C462 0.961 . S
H477 C463 0.958 . S
H478 C463 0.961 . S
H479 C463 0.960 . S
C105 C91 1.391 . S
C97 C27 1.400 . S
C129 N6 1.278 . S
C137 C82 1.364 . S
C161 C16 1.373 . S
C169 C94 1.377 . S
C193 N14 1.352 . S
C201 C85 1.368 . S
C225 C57 1.401 . S
C233 C73 1.392 . S
C257 N36 1.273 . S
C265 C64 1.365 . S
C297 C76 1.389 . S
C289 C46 1.399 . S
C329 C67 1.355 . S
C321 N44 1.356 . S
C353 C10 1.382 . S
C361 C65 1.396 1_455 S
C385 C1 1.531 . S
C393 C74 1.540 . S
C425 C83 1.396 . S
C417 C40 1.396 . S
C449 C31 1.534 . S
C457 C92 1.540 . S
