# Generated by pormake.
# Topology zzz, (3,6)-cn, num edge types: 1
# Building blocks:
#     Node 0, Type 0, BuildingBlock: KAKCAD_clean_linker_0, # of connection points: 3
#     Node 1, Type 0, BuildingBlock: KAKCAD_clean_linker_0, # of connection points: 3
#     Node 2, Type 0, BuildingBlock: KAKCAD_clean_linker_0, # of connection points: 3
#     Node 3, Type 0, BuildingBlock: KAKCAD_clean_linker_0, # of connection points: 3
#     Node 4, Type 0, BuildingBlock: KAKCAD_clean_linker_0, # of connection points: 3
#     Node 5, Type 0, BuildingBlock: KAKCAD_clean_linker_0, # of connection points: 3
#     Node 6, Type 0, BuildingBlock: KAKCAD_clean_linker_0, # of connection points: 3
#     Node 7, Type 0, BuildingBlock: KAKCAD_clean_linker_0, # of connection points: 3
#     Node 8, Type 1, BuildingBlock: MIFKUJ_clean_sbu_0, # of connection points: 6
#     Node 9, Type 1, BuildingBlock: MIFKUJ_clean_sbu_0, # of connection points: 6
#     Node 10, Type 1, BuildingBlock: MIFKUJ_clean_sbu_0, # of connection points: 6
#     Node 11, Type 1, BuildingBlock: MIFKUJ_clean_sbu_0, # of connection points: 6
#     Edge 12, Type (0, 1), BuildingBlock: MIFKUJ_clean_linker_0, # of connection points: 2
#     Edge 13, Type (0, 1), BuildingBlock: MIFKUJ_clean_linker_0, # of connection points: 2
#     Edge 14, Type (0, 1), BuildingBlock: MIFKUJ_clean_linker_0, # of connection points: 2
#     Edge 15, Type (0, 1), BuildingBlock: MIFKUJ_clean_linker_0, # of connection points: 2
#     Edge 16, Type (0, 1), BuildingBlock: MIFKUJ_clean_linker_0, # of connection points: 2
#     Edge 17, Type (0, 1), BuildingBlock: MIFKUJ_clean_linker_0, # of connection points: 2
#     Edge 18, Type (0, 1), BuildingBlock: MIFKUJ_clean_linker_0, # of connection points: 2
#     Edge 19, Type (0, 1), BuildingBlock: MIFKUJ_clean_linker_0, # of connection points: 2
#     Edge 20, Type (0, 1), BuildingBlock: MIFKUJ_clean_linker_0, # of connection points: 2
#     Edge 21, Type (0, 1), BuildingBlock: MIFKUJ_clean_linker_0, # of connection points: 2
#     Edge 22, Type (0, 1), BuildingBlock: MIFKUJ_clean_linker_0, # of connection points: 2
#     Edge 23, Type (0, 1), BuildingBlock: MIFKUJ_clean_linker_0, # of connection points: 2
#     Edge 24, Type (0, 1), BuildingBlock: MIFKUJ_clean_linker_0, # of connection points: 2
#     Edge 25, Type (0, 1), BuildingBlock: MIFKUJ_clean_linker_0, # of connection points: 2
#     Edge 26, Type (0, 1), BuildingBlock: MIFKUJ_clean_linker_0, # of connection points: 2
#     Edge 27, Type (0, 1), BuildingBlock: MIFKUJ_clean_linker_0, # of connection points: 2
#     Edge 28, Type (0, 1), BuildingBlock: MIFKUJ_clean_linker_0, # of connection points: 2
#     Edge 29, Type (0, 1), BuildingBlock: MIFKUJ_clean_linker_0, # of connection points: 2
#     Edge 30, Type (0, 1), BuildingBlock: MIFKUJ_clean_linker_0, # of connection points: 2
#     Edge 31, Type (0, 1), BuildingBlock: MIFKUJ_clean_linker_0, # of connection points: 2
#     Edge 32, Type (0, 1), BuildingBlock: MIFKUJ_clean_linker_0, # of connection points: 2
#     Edge 33, Type (0, 1), BuildingBlock: MIFKUJ_clean_linker_0, # of connection points: 2
#     Edge 34, Type (0, 1), BuildingBlock: MIFKUJ_clean_linker_0, # of connection points: 2
#     Edge 35, Type (0, 1), BuildingBlock: MIFKUJ_clean_linker_0, # of connection points: 2
# Relax obj value: 0.300
# Max RMSD: 0.216
# Mean RMSD: 0.192
data_MOF--net-zzz--node1-MIFKUJ_clean_sbu_0--node2-KAKCAD_clean_linker_0--edge1-MIFKUJ_clean_linker_0
_symmetry_space_group_name_H-M    P1
_symmetry_Int_Tables_number       1
_symmetry_cell_setting            triclinic
loop_
_symmetry_equiv_pos_as_xyz
'x, y, z'
_cell_length_a     70.959376
_cell_length_b     73.26817
_cell_length_c     26.288808
_cell_angle_alpha  89.233966
_cell_angle_beta   89.963624
_cell_angle_gamma 90.754098
loop_
_atom_site_label
_atom_site_type_symbol
_atom_site_fract_x
_atom_site_fract_y
_atom_site_fract_z
_atom_type_partial_charge
C0 C 0.80286 0.56845 0.97461 0.0
C1 C 0.79991 0.55543 0.93661 0.0
C2 C 0.78798 0.57382 0.00546 0.0
C3 C 0.76987 0.56618 -0.00084 0.0
C4 C 0.76671 0.55394 0.95921 0.0
C5 C 0.7816 0.54865 0.92813 0.0
C6 C 0.75491 0.56933 0.0374 0.0
C7 C 0.73603 0.57122 0.0229 0.0
C8 C 0.72162 0.57178 0.0596 0.0
C9 C 0.72628 0.57071 0.11166 0.0
C10 C 0.74523 0.56925 0.12637 0.0
C11 C 0.75935 0.56861 0.08926 0.0
C12 C 0.75103 0.56703 0.17987 0.0
C13 C 0.75514 0.58246 0.20902 0.0
C14 C 0.75719 0.54988 0.19662 0.0
C15 C 0.76868 0.54835 0.2395 0.0
C16 C 0.77426 0.56398 0.2665 0.0
C17 C 0.70181 0.57172 0.04201 0.0
C18 C 0.69614 0.58415 0.0041 0.0
C19 C 0.68942 0.55752 0.05685 0.0
C20 C 0.67229 0.55497 0.03137 0.0
C21 C 0.66722 0.56665 0.99081 0.0
C22 C 0.67899 0.58171 0.97896 0.0
C23 C 0.76659 0.58094 0.25223 0.0
H24 H 0.8168 0.57414 0.98131 0.0
H25 H 0.79077 0.58353 0.03533 0.0
H26 H 0.75299 0.54763 0.95372 0.0
H27 H 0.77896 0.5385 0.89931 0.0
H28 H 0.73245 0.57154 0.98281 0.0
H29 H 0.77384 0.56668 0.10111 0.0
H30 H 0.71528 0.57072 0.14029 0.0
H31 H 0.75075 0.59586 0.19618 0.0
H32 H 0.75447 0.53788 0.17398 0.0
H33 H 0.77443 0.5351 0.24867 0.0
H34 H 0.70542 0.59529 0.99227 0.0
H35 H 0.69357 0.54765 0.08564 0.0
H36 H 0.77032 0.5932 0.27262 0.0
H37 H 0.6753 0.59123 0.94882 0.0
H38 H 0.66363 0.54318 0.04134 0.0
C39 C 0.01952 0.78094 0.9361 0.0
C40 C 0.03215 0.79538 0.94594 0.0
C41 C 0.01693 0.76681 0.97154 0.0
C42 C 0.027 0.76676 0.01756 0.0
C43 C 0.04043 0.78066 0.02613 0.0
C44 C 0.043 0.79485 0.99061 0.0
C45 C 0.0222 0.75314 0.05799 0.0
C46 C 0.01786 0.73505 0.04567 0.0
C47 C 0.01093 0.72267 0.08263 0.0
C48 C 0.00873 0.72841 0.13316 0.0
C49 C 0.01339 0.7465 0.1462 0.0
C50 C 0.02013 0.75866 0.10844 0.0
C51 C 0.00984 0.75378 0.19756 0.0
C52 C 0.99159 0.75334 0.21826 0.0
C53 C 0.02389 0.76427 0.22133 0.0
C54 C 0.01947 0.77535 0.26225 0.0
C55 C 0.00086 0.7762 0.28047 0.0
C56 C 0.00559 0.70404 0.06642 0.0
C57 C 0.99395 0.70191 0.02371 0.0
C58 C 0.01397 0.6886 0.08842 0.0
C59 C 0.01182 0.67149 0.06568 0.0
C60 C 0.00115 0.66959 0.02081 0.0
C61 C 0.99176 0.68492 0.00115 0.0
C62 C 0.98712 0.76449 0.25937 0.0
H63 H 0.01116 0.78087 0.90163 0.0
H64 H 0.00636 0.75642 0.96387 0.0
H65 H 0.04858 0.78086 0.06096 0.0
H66 H 0.0528 0.80583 -0.00073 0.0
H67 H 0.01969 0.73058 0.00684 0.0
H68 H 0.02274 0.77283 0.11795 0.0
H69 H 0.00311 0.71904 0.16175 0.0
H70 H 0.98047 0.74545 0.20037 0.0
H71 H 0.03807 0.76483 0.206 0.0
H72 H 0.03043 0.78424 0.27698 0.0
H73 H 0.98727 0.71363 0.00618 0.0
H74 H 0.02305 0.68995 0.1213 0.0
H75 H 0.97272 0.76458 0.27302 0.0
H76 H 0.98362 0.6841 0.96641 0.0
H77 H 0.01903 0.65991 0.08218 0.0
C78 C 0.71675 0.93306 0.92771 0.0
C79 C 0.69888 0.93952 0.941 0.0
C80 C 0.73117 0.93232 0.96392 0.0
C81 C 0.72802 0.93818 0.01394 0.0
C82 C 0.70998 0.94424 0.02726 0.0
C83 C 0.69558 0.94484 0.99131 0.0
C84 C 0.74369 0.9394 0.05126 0.0
C85 C 0.76142 0.94613 0.03611 0.0
C86 C 0.77559 0.9498 0.07205 0.0
C87 C 0.77189 0.9467 0.1241 0.0
C88 C 0.75421 0.93972 0.13958 0.0
C89 C 0.74043 0.93575 0.10301 0.0
C90 C 0.74839 0.93901 0.19348 0.0
C91 C 0.74284 0.92231 0.21587 0.0
C92 C 0.74371 0.9553 0.21744 0.0
C93 C 0.73206 0.95498 0.26037 0.0
C94 C 0.72504 0.93831 0.28054 0.0
C95 C 0.79379 0.95757 0.05385 0.0
C96 C 0.81082 0.94874 0.06434 0.0
C97 C 0.79384 0.9726 0.02013 0.0
C98 C 0.81027 0.97788 0.9945 0.0
C99 C 0.82703 0.96822 0.00189 0.0
C100 C 0.82735 0.95402 0.03848 0.0
C101 C 0.7315 0.92195 0.25944 0.0
H102 H 0.7196 0.92874 0.88926 0.0
H103 H 0.74484 0.92737 0.95257 0.0
H104 H 0.70713 0.94927 0.065 0.0
H105 H 0.68206 0.95019 0.00245 0.0
H106 H 0.76408 0.94915 0.99625 0.0
H107 H 0.72672 0.93068 0.11537 0.0
H108 H 0.78242 0.95021 0.1523 0.0
H109 H 0.74617 0.90958 0.19762 0.0
H110 H 0.74754 0.96834 0.20016 0.0
H111 H 0.72735 0.96791 0.27486 0.0
H112 H 0.8111 0.93706 0.09004 0.0
H113 H 0.78092 0.97979 0.01193 0.0
H114 H 0.72688 0.90883 0.27463 0.0
H115 H 0.84006 0.9463 0.04491 0.0
H116 H 0.80968 0.98913 0.96742 0.0
C117 C 0.45023 0.71837 0.24424 0.0
C118 C 0.46925 0.71967 0.25915 0.0
C119 C 0.4439 0.72745 0.20068 0.0
C120 C 0.45643 0.73786 0.17042 0.0
C121 C 0.47495 0.74069 0.18774 0.0
C122 C 0.48129 0.73172 0.23183 0.0
C123 C 0.45125 0.74243 0.11709 0.0
C124 C 0.45559 0.7595 0.09444 0.0
C125 C 0.45216 0.76257 0.04216 0.0
C126 C 0.44434 0.74835 0.01309 0.0
C127 C 0.44069 0.73111 0.03482 0.0
C128 C 0.44371 0.72845 0.08694 0.0
C129 C 0.43647 0.71527 0.00198 0.0
C130 C 0.42357 0.7165 0.96147 0.0
C131 C 0.44675 0.69915 0.00865 0.0
C132 C 0.4448 0.6849 0.97451 0.0
C133 C 0.43253 0.6864 0.9329 0.0
C134 C 0.45772 0.78008 0.01646 0.0
C135 C 0.45469 0.79701 0.03944 0.0
C136 C 0.46561 0.7799 0.96739 0.0
C137 C 0.46955 0.79612 0.94102 0.0
C138 C 0.46614 0.81311 0.96325 0.0
C139 C 0.45889 0.81335 0.01317 0.0
C140 C 0.42153 0.70209 0.92731 0.0
H141 H 0.44045 0.70921 0.26369 0.0
H142 H 0.42948 0.72519 0.18847 0.0
H143 H 0.48494 0.74865 0.16519 0.0
H144 H 0.49589 0.73346 0.24283 0.0
H145 H 0.46208 0.7701 0.11709 0.0
H146 H 0.4411 0.71504 0.10361 0.0
H147 H 0.44192 0.7504 0.97275 0.0
H148 H 0.41542 0.72874 0.9556 0.0
H149 H 0.457 0.69784 0.03896 0.0
H150 H 0.45334 0.67287 0.97978 0.0
H151 H 0.44864 0.79765 0.0772 0.0
H152 H 0.46861 0.76715 0.94886 0.0
H153 H 0.41201 0.70353 0.89535 0.0
H154 H 0.45635 0.82615 0.03194 0.0
H155 H 0.47485 0.79524 0.90252 0.0
C156 C 0.21525 0.42909 0.26702 0.0
C157 C 0.19822 0.41939 0.26123 0.0
C158 C 0.23056 0.42561 0.23559 0.0
C159 C 0.22922 0.41224 0.19782 0.0
C160 C 0.21269 0.40149 0.19492 0.0
C161 C 0.1973 0.40504 0.22636 0.0
C162 C 0.24376 0.41171 0.15722 0.0
C163 C 0.26274 0.41514 0.16849 0.0
C164 C 0.27579 0.41957 0.12983 0.0
C165 C 0.26984 0.41956 0.07867 0.0
C166 C 0.25097 0.41519 0.06684 0.0
C167 C 0.23817 0.41116 0.10621 0.0
C168 C 0.24307 0.41775 0.01526 0.0
C169 C 0.24116 0.43549 0.99543 0.0
C170 C 0.23295 0.40337 0.99282 0.0
C171 C 0.21989 0.4069 0.95425 0.0
C172 C 0.21646 0.42493 0.93796 0.0
C173 C 0.29485 0.42611 0.14477 0.0
C174 C 0.29654 0.4391 0.18335 0.0
C175 C 0.31128 0.4187 0.1241 0.0
C176 C 0.32904 0.42361 0.14358 0.0
C177 C 0.33062 0.43612 0.18369 0.0
C178 C 0.31412 0.44396 0.2027 0.0
C179 C 0.22794 0.43908 0.95721 0.0
H180 H 0.21647 0.43999 0.29433 0.0
H181 H 0.24296 0.43429 0.23873 0.0
H182 H 0.21132 0.39094 0.16664 0.0
H183 H 0.18435 0.39731 0.22119 0.0
H184 H 0.26721 0.41533 0.20792 0.0
H185 H 0.22338 0.40928 0.09699 0.0
H186 H 0.27953 0.42368 0.04865 0.0
H187 H 0.24855 0.44684 0.01283 0.0
H188 H 0.23409 0.38959 0.00786 0.0
H189 H 0.21168 0.39561 0.93939 0.0
H190 H 0.28412 0.44521 0.19962 0.0
H191 H 0.31034 0.40866 0.09431 0.0
H192 H 0.22568 0.45315 0.94593 0.0
H193 H 0.31466 0.45341 0.234 0.0
H194 H 0.34149 0.41746 0.12769 0.0
C195 C 0.96548 0.21339 0.26479 0.0
C196 C 0.97949 0.20105 0.27962 0.0
C197 C 0.96982 0.22781 0.23124 0.0
C198 C 0.9881 0.22979 0.21134 0.0
C199 C 0.00217 0.21768 0.22693 0.0
C200 C 0.99794 0.20352 0.26119 0.0
C201 C 0.99222 0.24357 0.17141 0.0
C202 C 0.98967 0.26213 0.18028 0.0
C203 C 0.99358 0.27525 0.14194 0.0
C204 C -0.00038 0.26941 0.0937 0.0
C205 C 0.00214 0.25071 0.08474 0.0
C206 C 0.99859 0.23798 0.12395 0.0
C207 C 0.00741 0.24364 0.03439 0.0
C208 C 0.9948 0.24505 0.99349 0.0
C209 C 0.02279 0.23188 0.03066 0.0
C210 C 0.02456 0.22044 0.98894 0.0
C211 C 0.01089 0.22047 0.95022 0.0
C212 C 0.99225 0.29491 0.15442 0.0
C213 C 0.97731 0.30101 0.18465 0.0
C214 C 0.007 0.30715 0.14208 0.0
C215 C 0.00749 0.32468 0.16272 0.0
C216 C 0.99324 0.33028 0.19618 0.0
C217 C 0.97784 0.31842 0.20547 0.0
C218 C 0.99651 0.23353 0.95171 0.0
H219 H 0.95117 0.21172 0.27862 0.0
H220 H 0.95876 0.23699 0.21931 0.0
H221 H 0.01635 0.219 0.21188 0.0
H222 H 0.00892 0.19406 0.27173 0.0
H223 H 0.98526 0.26634 0.21779 0.0
H224 H 0.00022 0.22352 0.11697 0.0
H225 H 0.00239 0.2793 0.06349 0.0
H226 H 0.98274 0.25392 0.9958 0.0
H227 H 0.0326 0.23049 0.062 0.0
H228 H 0.03574 0.21052 0.98933 0.0
H229 H 0.96559 0.29197 0.19422 0.0
H230 H 0.01873 0.30285 0.11892 0.0
H231 H 0.98593 0.23406 0.92208 0.0
H232 H 0.96665 0.32211 0.23121 0.0
H233 H 0.01937 0.33359 0.15387 0.0
C234 C 0.28245 0.05046 0.24369 0.0
C235 C 0.29738 0.06295 0.25135 0.0
C236 C 0.26814 0.05441 0.20903 0.0
C237 C 0.26857 0.07082 0.18086 0.0
C238 C 0.28293 0.08369 0.1901 0.0
C239 C 0.2971 0.07987 0.22536 0.0
C240 C 0.25527 0.07345 0.13824 0.0
C241 C 0.23601 0.06988 0.14477 0.0
C242 C 0.22378 0.06989 0.1029 0.0
C243 C 0.23094 0.07317 0.05369 0.0
C244 C 0.25028 0.07697 0.04693 0.0
C245 C 0.26222 0.07742 0.08943 0.0
C246 C 0.25907 0.07806 0.99601 0.0
C247 C 0.25974 0.06236 0.9662 0.0
C248 C 0.27027 0.09328 0.98242 0.0
C249 C 0.28294 0.09237 0.94183 0.0
C250 C 0.28498 0.07605 0.91475 0.0
C251 C 0.20375 0.06549 0.11217 0.0
C252 C 0.19835 0.04737 0.12289 0.0
C253 C 0.19103 0.07956 0.12105 0.0
C254 C 0.17352 0.07566 0.14346 0.0
C255 C 0.16853 0.05761 0.15745 0.0
C256 C 0.18084 0.04344 0.14508 0.0
C257 C 0.27265 0.06132 0.92612 0.0
H258 H 0.28228 0.0372 0.26234 0.0
H259 H 0.25734 0.04416 0.20211 0.0
H260 H 0.28344 0.09651 0.16907 0.0
H261 H 0.30812 0.08999 0.23118 0.0
H262 H 0.23054 0.06675 0.18249 0.0
H263 H 0.27726 0.0795 0.08396 0.0
H264 H 0.22166 0.07244 0.02103 0.0
H265 H 0.25146 0.05035 0.9766 0.0
H266 H 0.27002 0.1055 0.00516 0.0
H267 H 0.29181 0.10416 0.9334 0.0
H268 H 0.20817 0.03639 0.11716 0.0
H269 H 0.19511 0.09365 0.11375 0.0
H270 H 0.27385 0.04845 0.90671 0.0
H271 H 0.17756 0.02944 0.15588 0.0
H272 H 0.16426 0.08684 0.15206 0.0
C273 C 0.50499 0.26586 0.94593 0.0
C274 C 0.51723 0.27756 0.9181 0.0
C275 C 0.51165 0.25579 0.98778 0.0
C276 C 0.53063 0.25726 0.00231 0.0
C277 C 0.54316 0.26751 0.97173 0.0
C278 C 0.53656 0.27755 0.93014 0.0
C279 C 0.5364 0.25231 0.05465 0.0
C280 C 0.53584 0.23426 0.07351 0.0
C281 C 0.54112 0.23051 0.12432 0.0
C282 C 0.54629 0.2451 0.15603 0.0
C283 C 0.54635 0.26317 0.13784 0.0
C284 C 0.54163 0.26655 0.08697 0.0
C285 C 0.54953 0.27873 0.17257 0.0
C286 C 0.54114 0.27864 0.221 0.0
C287 C 0.55925 0.29454 0.15565 0.0
C288 C 0.55944 0.3103 0.18497 0.0
C289 C 0.55001 0.31054 0.23196 0.0
C290 C 0.54053 0.21168 0.14613 0.0
C291 C 0.52492 0.20004 0.13816 0.0
C292 C 0.55482 0.20594 0.17951 0.0
C293 C 0.55297 0.18958 0.20693 0.0
C294 C 0.53688 0.17846 0.20128 0.0
C295 C 0.52313 0.18353 0.16545 0.0
C296 C 0.54146 0.29435 0.25044 0.0
H297 H 0.49008 0.26532 0.93724 0.0
H298 H 0.5017 0.24811 0.01119 0.0
H299 H 0.55783 0.26898 0.98259 0.0
H300 H 0.54644 0.2865 0.91029 0.0
H301 H 0.53159 0.22326 0.0487 0.0
H302 H 0.54107 0.2805 0.0728 0.0
H303 H 0.5498 0.24243 0.19552 0.0
H304 H 0.53345 0.26676 0.23515 0.0
H305 H 0.56613 0.29494 0.11886 0.0
H306 H 0.56614 0.32254 0.16957 0.0
H307 H 0.51363 0.20412 0.11293 0.0
H308 H 0.56722 0.21441 0.18567 0.0
H309 H 0.53441 0.29398 0.28701 0.0
H310 H 0.51056 0.17521 0.16041 0.0
H311 H 0.56397 0.18582 0.23349 0.0
Zn312 Zn 0.00767 0.02203 0.62148 0.0
Zn313 Zn 0.00036 0.98035 0.57109 0.0
C314 C 0.00058 0.04911 0.69301 0.0
O315 O 0.98372 0.04183 0.68689 0.0
C316 C 0.00485 0.9486 0.5159 0.0
O317 O 0.02207 0.95265 0.53067 0.0
O318 O 0.98828 0.03431 0.57738 0.0
O319 O 0.03031 0.01724 0.57791 0.0
O320 O 0.02006 -0.00562 0.53055 0.0
C321 C 0.9836 0.03115 0.53169 0.0
O322 O 0.99056 0.01702 0.50841 0.0
O323 O 0.01446 0.04216 0.66991 0.0
C324 C 0.00162 0.9557 0.65133 0.0
O325 O 0.98385 0.9552 0.63723 0.0
O326 O 0.01281 0.96688 0.629 0.0
O327 O 0.97759 0.99285 0.60111 0.0
O328 O 0.99573 0.00201 0.6634 0.0
O329 O 0.99169 0.95957 0.52644 0.0
C330 C 0.03177 0.00728 0.53893 0.0
C331 C 0.97968 -0.0033 0.64781 0.0
Zn332 Zn 0.48403 0.00857 0.60968 0.0
Zn333 Zn 0.51652 0.98602 0.56005 0.0
C334 C 0.44998 0.01379 0.6585 0.0
O335 O 0.44851 -0.00277 0.64019 0.0
C336 C 0.55093 0.98314 0.51163 0.0
O337 O 0.55059 0.00023 0.52607 0.0
O338 O 0.468 0.00259 0.54878 0.0
O339 O 0.5052 0.02536 0.58429 0.0
O340 O 0.50853 0.00763 0.51824 0.0
C341 C 0.46249 0.01671 0.52473 0.0
O342 O 0.46862 0.03285 0.53887 0.0
O343 O 0.46552 0.02249 0.65283 0.0
C344 C 0.53837 0.98058 0.64505 0.0
O345 O 0.53272 0.96402 0.63347 0.0
O346 O 0.53218 -0.00593 0.6196 0.0
O347 O 0.497 0.96785 0.58614 0.0
O348 O 0.48965 0.98563 0.64994 0.0
O349 O 0.5363 0.97318 0.51881 0.0
C350 C 0.50926 0.02344 0.53748 0.0
C351 C 0.49096 0.96977 0.63131 0.0
Zn352 Zn 0.49207 0.48156 0.61939 0.0
Zn353 Zn 0.50086 0.51806 0.56261 0.0
C354 C 0.50054 0.45197 0.6815 0.0
O355 O 0.51709 0.45883 0.66842 0.0
C356 C 0.49143 0.54897 0.50553 0.0
O357 O 0.47489 0.54187 0.51752 0.0
O358 O 0.50786 0.4695 0.56591 0.0
O359 O 0.46883 0.4896 0.57999 0.0
O360 O 0.48756 0.49987 0.5191 0.0
C361 C 0.49882 0.45597 0.54776 0.0
O362 O 0.48182 0.45225 0.56526 0.0
O363 O 0.48581 0.46037 0.66734 0.0
C364 C 0.49106 0.54168 0.63823 0.0
O365 O 0.50875 0.54582 0.62803 0.0
O366 O 0.48347 0.52818 0.61582 0.0
O367 O 0.52475 0.51041 0.59753 0.0
O368 O 0.50772 0.49926 0.66079 0.0
O369 O 0.50618 0.54032 0.51818 0.0
C370 C 0.47222 0.49214 0.53276 0.0
C371 C 0.52295 0.50662 0.6446 0.0
Zn372 Zn 0.01831 0.49164 0.62282 0.0
Zn373 Zn 0.97724 0.51187 0.56909 0.0
C374 C 0.04991 0.48842 0.68263 0.0
O375 O 0.05214 0.50392 0.65743 0.0
C376 C 0.94686 0.51338 0.50192 0.0
O377 O 0.94759 0.49588 0.51321 0.0
O378 O 0.03593 0.49244 0.56271 0.0
O379 O 0.99664 0.47547 0.59827 0.0
O380 O 0.99218 0.49335 0.53169 0.0
C381 C 0.04108 0.47621 0.55395 0.0
O382 O 0.03447 0.46288 0.58307 0.0
O383 O 0.0345 0.47954 0.6772 0.0
C384 C 0.96008 0.49723 0.66394 0.0
O385 O 0.9763 0.5004 0.68643 0.0
O386 O 0.95869 0.4997 0.61626 0.0
O387 O 0.99034 0.53143 0.60869 0.0
O388 O 0.01309 0.51683 0.64937 0.0
O389 O 0.9597 0.52393 0.51891 0.0
C390 C 0.99439 0.47746 0.55044 0.0
C391 C 0.00333 0.53104 0.64188 0.0
H392 H 0.15695 0.07693 0.23947 0.0
H393 H 0.13251 0.06845 0.30103 0.0
H394 H 0.11856 0.02071 0.21384 0.0
H395 H 0.14287 0.0293 0.15125 0.0
H396 H 0.08673 0.03802 0.25395 0.0
H397 H 0.14652 0.01577 0.31121 0.0
H398 H 0.18024 0.01821 0.33299 0.0
H399 H 0.16767 0.05726 0.44812 0.0
H400 H 0.13388 0.05527 0.42645 0.0
H401 H 0.03948 0.98881 0.45164 0.0
H402 H 0.06199 -0.0026 0.3849 0.0
H403 H 0.07954 0.04432 0.47109 0.0
H404 H 0.05718 0.03579 0.53831 0.0
H405 H 0.10941 0.02685 0.4301 0.0
H406 H 0.04966 0.04841 0.37537 0.0
H407 H 0.01587 0.04646 0.35402 0.0
H408 H 0.02805 0.00903 0.23442 0.0
H409 H 0.06189 0.01058 0.25571 0.0
C410 C 0.14838 0.06488 0.23255 0.0
C411 C 0.15189 0.05376 0.19046 0.0
C412 C 0.13453 0.05996 0.26808 0.0
C413 C 0.12394 0.04382 0.26236 0.0
C414 C 0.12666 0.03319 0.21903 0.0
C415 C 0.1406 0.03806 0.18349 0.0
C416 C 0.11091 0.03752 0.30329 0.0
C417 C 0.09168 0.03532 0.29232 0.0
C418 C 0.11739 0.03436 0.35352 0.0
C419 C 0.13769 0.03551 0.36684 0.0
C420 C 0.15096 0.02499 0.34088 0.0
C421 C 0.17009 0.02627 0.35325 0.0
C422 C 0.1761 0.03791 0.39183 0.0
C423 C 0.16299 0.04827 0.4182 0.0
C424 C 0.14385 0.04706 0.4059 0.0
C425 C 0.04823 0.0009 0.4567 0.0
C426 C 0.04648 0.01164 0.50039 0.0
C427 C 0.06103 0.00581 0.41834 0.0
C428 C 0.07227 0.02161 0.42276 0.0
C429 C 0.07098 0.03207 0.46693 0.0
C430 C 0.05818 0.02717 0.50534 0.0
C431 C 0.08516 0.0274 0.38096 0.0
C432 C 0.10441 0.0295 0.39175 0.0
C433 C 0.07865 0.03047 0.33063 0.0
C434 C 0.0583 0.02951 0.3175 0.0
C435 C 0.04511 0.03968 0.34477 0.0
C436 C 0.02595 0.03866 0.33265 0.0
C437 C 0.01981 0.02759 0.29292 0.0
C438 C 0.03283 0.01758 0.26522 0.0
C439 C 0.05201 0.01854 0.27731 0.0
H440 H 0.00498 0.02681 0.28355 0.0
H441 H 0.19091 0.03888 0.40136 0.0
H442 H 0.5258 0.14378 0.17545 0.0
H443 H 0.52119 0.11737 0.23257 0.0
H444 H 0.53618 0.15066 0.36099 0.0
H445 H 0.5413 0.17683 0.30398 0.0
H446 H 0.55239 0.11958 0.37107 0.0
H447 H 0.48935 0.13791 0.33178 0.0
H448 H 0.46248 0.14568 0.2765 0.0
H449 H 0.46307 0.09193 0.21343 0.0
H450 H 0.49013 0.08392 0.26784 0.0
H451 H 0.51564 0.05906 0.56467 0.0
H452 H 0.52038 0.08553 0.50769 0.0
H453 H 0.51445 0.05071 0.37757 0.0
H454 H 0.50983 0.02429 0.43385 0.0
H455 H 0.49346 0.08242 0.36935 0.0
H456 H 0.55684 0.06457 0.41052 0.0
H457 H 0.583 0.05714 0.46857 0.0
H458 H 0.58069 0.11084 0.53159 0.0
H459 H 0.5543 0.1185 0.47439 0.0
C460 C 0.52806 0.14541 0.21589 0.0
C461 C 0.53397 0.16232 0.23526 0.0
C462 C 0.52536 0.13035 0.24855 0.0
C463 C 0.52811 0.13204 0.3013 0.0
C464 C 0.53403 0.14895 0.32052 0.0
C465 C 0.53697 0.1639 0.28788 0.0
C466 C 0.525 0.11624 0.33663 0.0
C467 C 0.53938 0.11163 0.37107 0.0
C468 C 0.50817 0.10561 0.33626 0.0
C469 C 0.4919 0.11039 0.30351 0.0
C470 C 0.48385 0.1278 0.30583 0.0
C471 C 0.46857 0.13224 0.2747 0.0
C472 C 0.46111 0.11932 0.24137 0.0
C473 C 0.46889 0.10193 0.2392 0.0
C474 C 0.48419 0.09743 0.2702 0.0
C475 C 0.5154 0.05706 0.52394 0.0
C476 C 0.51245 0.03956 0.50384 0.0
C477 C 0.51813 0.07217 0.49146 0.0
C478 C 0.51784 0.07004 0.43842 0.0
C479 C 0.51472 0.05264 0.41836 0.0
C480 C 0.51218 0.03754 0.45067 0.0
C481 C 0.52079 0.0859 0.40357 0.0
C482 C 0.50641 0.09045 0.36927 0.0
C483 C 0.53752 0.09659 0.4044 0.0
C484 C 0.55347 0.09204 0.43855 0.0
C485 C 0.5618 0.07475 0.43705 0.0
C486 C 0.57669 0.0705 0.46974 0.0
C487 C 0.58347 0.08349 0.50385 0.0
C488 C 0.5754 0.10078 0.50521 0.0
C489 C 0.56049 0.10508 0.47264 0.0
H490 H 0.595 0.08018 0.52913 0.0
H491 H 0.44927 0.12278 0.21731 0.0
H492 H 0.34316 0.46919 0.2182 0.0
H493 H 0.37082 0.47544 0.26971 0.0
H494 H 0.38838 0.41962 0.25417 0.0
H495 H 0.35982 0.41291 0.20527 0.0
H496 H 0.39277 0.42812 0.34677 0.0
H497 H 0.4126 0.45658 0.19441 0.0
H498 H 0.41094 0.4757 0.11668 0.0
H499 H 0.40398 0.52347 0.20727 0.0
H500 H 0.40532 0.50462 0.28556 0.0
H501 H 0.48067 0.48732 0.43291 0.0
H502 H 0.46093 0.47412 0.36701 0.0
H503 H 0.41622 0.4653 0.47629 0.0
H504 H 0.43623 0.47816 0.54321 0.0
H505 H 0.43085 0.48501 0.32682 0.0
H506 H 0.38882 0.42944 0.44459 0.0
H507 H 0.39484 0.40734 0.51413 0.0
H508 H 0.45391 0.40854 0.47866 0.0
H509 H 0.44829 0.43065 0.40907 0.0
C510 C 0.35286 0.45819 0.22564 0.0
C511 C 0.3491 0.44048 0.20794 0.0
C512 C 0.36889 0.46186 0.25462 0.0
C513 C 0.3819 0.44807 0.26555 0.0
C514 C 0.37859 0.43051 0.24632 0.0
C515 C 0.36234 0.42674 0.21779 0.0
C516 C 0.39821 0.45193 0.29961 0.0
C517 C 0.40118 0.4405 0.34217 0.0
C518 C 0.40977 0.46768 0.29285 0.0
C519 C 0.40896 0.47915 0.24589 0.0
C520 C 0.41059 0.47115 0.19777 0.0
C521 C 0.40972 0.48194 0.1536 0.0
C522 C 0.40733 0.50078 0.15703 0.0
C523 C 0.40583 0.50887 0.20467 0.0
C524 C 0.40668 0.49814 0.24897 0.0
C525 C 0.46664 0.48256 0.44314 0.0
C526 C 0.45994 0.48397 0.49334 0.0
C527 C 0.45539 0.47494 0.40529 0.0
C528 C 0.43712 0.46858 0.41654 0.0
C529 C 0.4304 0.46981 0.46676 0.0
C530 C 0.44177 0.47731 0.50493 0.0
C531 C 0.42476 0.46168 0.37513 0.0
C532 C 0.42259 0.47252 0.33114 0.0
C533 C 0.4146 0.44498 0.37947 0.0
C534 C 0.41811 0.4318 0.4217 0.0
C535 C 0.40309 0.42497 0.45156 0.0
C536 C 0.40645 0.41248 0.49111 0.0
C537 C 0.42476 0.40661 0.50094 0.0
C538 C 0.43976 0.41321 0.47125 0.0
C539 C 0.4365 0.42575 0.43182 0.0
H540 H 0.42733 0.39691 0.53145 0.0
H541 H 0.40666 0.50911 0.12279 0.0
H542 H 0.96538 0.35404 0.2233 0.0
H543 H 0.96798 0.37956 0.28156 0.0
H544 H 0.02803 0.37177 0.29174 0.0
H545 H 0.02539 0.34549 0.23616 0.0
H546 H 0.01497 0.37562 0.38199 0.0
H547 H 0.00833 0.40893 0.22653 0.0
H548 H 0.99424 0.41765 0.14415 0.0
H549 H 0.94292 0.432 0.21954 0.0
H550 H 0.95663 0.42314 0.30235 0.0
H551 H 0.00836 0.47955 0.4543 0.0
H552 H 0.01193 0.45496 0.39376 0.0
H553 H 0.99083 0.41625 0.50592 0.0
H554 H 0.9881 0.44088 0.56769 0.0
H555 H 0.98628 0.43616 0.35232 0.0
H556 H 0.00267 0.37506 0.48274 0.0
H557 H 0.02134 0.36719 0.55898 0.0
H558 H 0.06064 0.41052 0.52347 0.0
H559 H 0.042 0.41883 0.44726 0.0
C560 C 0.97916 0.35773 0.23787 0.0
C561 C 0.99515 0.34757 0.22513 0.0
C562 C 0.98066 0.37249 0.27081 0.0
C563 C 0.99822 0.37767 0.291 0.0
C564 C 0.01431 0.36801 0.27683 0.0
C565 C 0.0128 0.35311 0.24438 0.0
C566 C -0.00033 0.39251 0.3289 0.0
C567 C 0.00874 0.38888 0.37535 0.0
C568 C 0.99178 0.40991 0.32027 0.0
C569 C 0.98344 0.4152 0.27057 0.0
C570 C 0.99399 0.41381 0.22549 0.0
C571 C 0.98608 0.4188 0.17873 0.0
C572 C 0.96768 0.42533 0.17659 0.0
C573 C 0.95716 0.42692 0.22124 0.0
C574 C 0.965 0.42193 0.26811 0.0
C575 C 0.00464 0.46577 0.46627 0.0
C576 C 0.99772 0.46214 0.51555 0.0
C577 C 0.00672 0.45169 0.43159 0.0
C578 C 0.00162 0.43369 0.44499 0.0
C579 C 0.99518 0.42994 0.49476 0.0
C580 C 0.99347 0.44403 0.52996 0.0
C581 C 0.00161 0.4193 0.40551 0.0
C582 C 0.99259 0.42293 0.3589 0.0
C583 C 0.01002 0.4021 0.41338 0.0
C584 C 0.02087 0.39768 0.45986 0.0
C585 C 0.01524 0.38297 0.49143 0.0
C586 C 0.02577 0.37847 0.53462 0.0
C587 C 0.04209 0.38846 0.54621 0.0
C588 C 0.04788 0.40297 0.51465 0.0
C589 C 0.03729 0.40764 0.47166 0.0
H590 H 0.05029 0.3849 0.57951 0.0
H591 H 0.96158 0.42919 0.14036 0.0
H592 H 0.8266 0.97345 0.89928 0.0
H593 H 0.8533 0.97857 0.8422 0.0
H594 H 0.89142 0.97595 0.96971 0.0
H595 H 0.86455 0.97099 0.02762 0.0
H596 H 0.89947 0.00506 0.8991 0.0
H597 H 0.88808 0.94028 0.89873 0.0
H598 H 0.8687 0.91226 0.89126 0.0
H599 H 0.85434 0.92717 0.73774 0.0
H600 H 0.87341 0.95543 0.74455 0.0
H601 H 0.98207 -0.00344 0.75124 0.0
H602 H 0.95674 0.99174 0.81275 0.0
H603 H 0.91682 0.98564 0.69021 0.0
H604 H 0.94232 0.9899 0.62813 0.0
H605 H 0.91029 0.96074 0.76126 0.0
H606 H 0.92061 0.02554 0.76038 0.0
H607 H 0.93975 0.05378 0.76577 0.0
H608 H 0.95548 0.03969 0.91887 0.0
H609 H 0.93662 0.01124 0.91417 0.0
C610 C 0.84063 0.97421 0.9154 0.0
C611 C 0.84346 0.97191 0.96805 0.0
C612 C 0.85588 0.97699 0.88264 0.0
C613 C 0.87433 0.97751 0.90169 0.0
C614 C 0.87727 0.97558 0.95431 0.0
C615 C 0.86195 0.97264 0.98724 0.0
C616 C 0.89044 0.97967 0.8661 0.0
C617 C 0.90206 -0.00475 0.86942 0.0
C618 C 0.89344 0.9671 0.82662 0.0
C619 C 0.88204 0.95006 0.82232 0.0
C620 C 0.88066 0.93766 0.86352 0.0
C621 C 0.86976 0.92172 0.85938 0.0
C622 C 0.86026 0.91796 0.81409 0.0
C623 C 0.86169 0.93011 0.77281 0.0
C624 C 0.87256 0.94608 0.77677 0.0
C625 C 0.9679 -0.00578 0.73726 0.0
C626 C 0.96418 -0.00629 0.68474 0.0
C627 C 0.95341 0.99154 0.77256 0.0
C628 C 0.9348 0.98866 0.75618 0.0
C629 C 0.93106 0.98791 0.70374 0.0
C630 C 0.94563 0.99038 0.66831 0.0
C631 C 0.91932 0.98623 0.79381 0.0
C632 C 0.90778 0.97057 0.79093 0.0
C633 C 0.91632 -0.00117 0.83338 0.0
C634 C 0.92732 0.01616 0.83676 0.0
C635 C 0.92822 0.02841 0.79512 0.0
C636 C 0.93902 0.04447 0.79805 0.0
C637 C 0.94888 0.04851 0.84258 0.0
C638 C 0.94786 0.03655 0.88437 0.0
C639 C 0.9371 0.02046 0.88163 0.0
H640 H 0.95727 0.06092 0.8447 0.0
H641 H 0.85182 0.90561 0.81096 0.0
H642 H 0.44581 0.84489 0.96456 0.0
H643 H 0.45033 0.8721 0.91132 0.0
H644 H 0.49771 0.84707 0.83806 0.0
H645 H 0.49434 0.82056 0.89405 0.0
H646 H 0.50577 0.8803 0.84822 0.0
H647 H 0.45113 0.84921 0.78434 0.0
H648 H 0.41959 0.83471 0.78811 0.0
H649 H 0.3956 0.88538 0.83428 0.0
H650 H 0.42706 0.90014 0.83143 0.0
H651 H 0.50403 0.93504 0.61947 0.0
H652 H 0.5002 0.90905 0.67847 0.0
H653 H 0.46632 0.94185 0.77704 0.0
H654 H 0.4704 0.96801 0.71893 0.0
H655 H 0.45123 0.90534 0.75357 0.0
H656 H 0.50764 0.93506 0.82065 0.0
H657 H 0.53986 0.94804 0.81753 0.0
H658 H 0.56051 0.89796 0.75697 0.0
H659 H 0.5284 0.88456 0.76065 0.0
C660 C 0.45747 0.84529 0.93796 0.0
C661 C 0.46956 0.83031 0.93338 0.0
C662 C 0.45983 0.86079 0.9068 0.0
C663 C 0.47404 0.8615 0.86949 0.0
C664 C 0.48651 0.84685 0.86608 0.0
C665 C 0.4844 0.83154 0.89785 0.0
C666 C 0.47596 0.87739 0.83382 0.0
C667 C 0.49383 0.88555 0.8271 0.0
C668 C 0.46041 0.88454 0.80652 0.0
C669 C 0.44148 0.87572 0.80818 0.0
C670 C 0.43915 0.85723 0.79565 0.0
C671 C 0.42128 0.84897 0.79757 0.0
C672 C 0.40561 0.85911 0.81156 0.0
C673 C 0.40776 0.87754 0.82353 0.0
C674 C 0.4256 0.88586 0.82174 0.0
C675 C 0.49567 0.93669 0.65354 0.0
C676 C 0.48754 0.95359 0.66459 0.0
C677 C 0.4936 0.92187 0.68731 0.0
C678 C 0.48309 0.92361 0.7322 0.0
C679 C 0.47453 0.94028 0.74265 0.0
C680 C 0.47688 0.95519 0.70942 0.0
C681 C 0.48095 0.908 0.76819 0.0
C682 C 0.46307 0.89995 0.7748 0.0
C683 C 0.49652 0.90068 0.79456 0.0
C684 C 0.51563 0.90891 0.79036 0.0
C685 C 0.51903 0.9269 0.80616 0.0
C686 C 0.53728 0.93429 0.80449 0.0
C687 C 0.5522 0.92389 0.78657 0.0
C688 C 0.54892 0.90602 0.77062 0.0
C689 C 0.53072 0.89849 0.77274 0.0
H690 H 0.56632 0.92962 0.78536 0.0
H691 H 0.39179 0.85269 0.81302 0.0
H692 H 0.66524 0.56931 0.88728 0.0
H693 H 0.63934 0.56025 0.83208 0.0
H694 H 0.60632 0.54395 0.96318 0.0
H695 H 0.63226 0.55324 0.01916 0.0
H696 H 0.6058 0.51802 0.89038 0.0
H697 H 0.59546 0.58233 0.8965 0.0
H698 H 0.60406 0.615 0.89056 0.0
H699 H 0.61907 0.60887 0.73352 0.0
H700 H 0.61082 0.57609 0.73869 0.0
H701 H 0.52186 0.50364 0.74829 0.0
H702 H 0.54526 0.51452 0.80908 0.0
H703 H 0.58058 0.53375 0.6854 0.0
H704 H 0.55701 0.52324 0.62417 0.0
H705 H 0.5786 0.55875 0.75802 0.0
H706 H 0.59049 0.4944 0.75261 0.0
H707 H 0.58211 0.46165 0.75786 0.0
H708 H 0.56453 0.46781 0.91293 0.0
H709 H 0.57255 0.50066 0.90837 0.0
C710 C 0.65234 0.5642 0.90464 0.0
C711 C 0.65079 0.56218 0.95781 0.0
C712 C 0.63755 0.55894 0.8729 0.0
C713 C 0.62081 0.5516 0.89349 0.0
C714 C 0.61912 0.54961 0.94651 0.0
C715 C 0.63396 0.55489 0.97842 0.0
C716 C 0.60546 0.54536 0.85925 0.0
C717 C 0.59959 0.52701 0.86203 0.0
C718 C 0.59773 0.55697 0.82141 0.0
C719 C 0.60266 0.57671 0.81812 0.0
C720 C 0.60074 0.58791 0.8608 0.0
C721 C 0.60553 0.60646 0.85755 0.0
C722 C 0.61215 0.614 0.81172 0.0
C723 C 0.61396 0.60301 0.76901 0.0
C724 C 0.6092 0.58445 0.77206 0.0
C725 C 0.53464 0.51011 0.7339 0.0
C726 C 0.53758 0.51251 0.68128 0.0
C727 C 0.54804 0.51627 0.76878 0.0
C728 C 0.56478 0.52478 0.75183 0.0
C729 C 0.56777 0.52721 0.69935 0.0
C730 C 0.55432 0.52112 0.66438 0.0
C731 C 0.57905 0.53138 0.78883 0.0
C732 C 0.58472 0.54979 0.78656 0.0
C733 C 0.58663 0.51981 0.82703 0.0
C734 C 0.58194 0.50003 0.82998 0.0
C735 C 0.5847 0.4888 0.78771 0.0
C736 C 0.58004 0.47021 0.79058 0.0
C737 C 0.57274 0.46266 0.83566 0.0
C738 C 0.57015 0.47368 0.87802 0.0
C739 C 0.57477 0.49228 0.87532 0.0
H740 H 0.56914 0.44828 0.8378 0.0
H741 H 0.61585 0.62836 0.80929 0.0
H742 H 0.03086 0.64685 0.00454 0.0
H743 H 0.03237 0.62167 0.94487 0.0
H744 H 0.97376 0.62906 0.90736 0.0
H745 H 0.97186 0.65357 0.96904 0.0
H746 H 0.98134 0.5943 0.90667 0.0
H747 H 0.01015 0.64847 0.83467 0.0
H748 H 0.03239 0.67461 0.83139 0.0
H749 H 0.0791 0.63794 0.83451 0.0
H750 H 0.05712 0.61157 0.83853 0.0
H751 H 0.97838 0.55837 0.65895 0.0
H752 H 0.97954 0.58087 0.72667 0.0
H753 H 0.03384 0.56107 0.77372 0.0
H754 H 0.03274 0.53827 0.70637 0.0
H755 H 0.02992 0.60077 0.7714 0.0
H756 H -0.00017 0.54647 0.83963 0.0
H757 H 0.97672 0.52103 0.84064 0.0
H758 H 0.93133 0.55921 0.8399 0.0
H759 H 0.95417 0.58489 0.83857 0.0
C760 C 0.01813 0.64278 0.98478 0.0
C761 C 0.00128 0.65241 0.99119 0.0
C762 C 0.01909 0.62853 0.95007 0.0
C763 C 0.00332 0.6238 0.92053 0.0
C764 C 0.98618 0.63258 0.92926 0.0
C765 C 0.98515 0.6467 0.9643 0.0
C766 C 0.00485 0.61045 0.8787 0.0
C767 C 0.99188 0.59583 0.87694 0.0
C768 C 0.01876 0.61224 0.84012 0.0
C769 C 0.032 0.62806 0.83747 0.0
C770 C 0.02517 0.64599 0.83503 0.0
C771 C 0.03772 0.66084 0.83299 0.0
C772 C 0.05715 0.65794 0.83289 0.0
C773 C 0.06405 0.64016 0.83469 0.0
C774 C 0.05155 0.62526 0.83683 0.0
C775 C 0.99075 0.55898 0.68301 0.0
C776 C 0.00545 0.54647 0.67734 0.0
C777 C 0.99132 0.57179 0.72189 0.0
C778 C 0.00667 0.57245 0.75543 0.0
C779 C 0.02185 0.5607 0.74823 0.0
C780 C 0.02118 0.54769 0.70977 0.0
C781 C 0.00636 0.58483 0.79944 0.0
C782 C 0.01951 0.59923 0.80145 0.0
C783 C 0.99249 0.58299 0.83789 0.0
C784 C 0.97871 0.56759 0.83864 0.0
C785 C 0.98492 0.54944 0.83931 0.0
C786 C 0.97187 0.53498 0.84011 0.0
C787 C 0.95258 0.53851 0.84055 0.0
C788 C 0.94627 0.5565 0.83989 0.0
C789 C 0.95927 0.57101 0.83917 0.0
H790 H 0.94255 0.5273 0.84167 0.0
H791 H 0.06685 0.66946 0.8313 0.0
H792 H 0.95189 0.17572 0.26325 0.0
H793 H 0.94721 0.14658 0.30833 0.0
H794 H 0.99184 0.16092 0.41263 0.0
H795 H 0.99698 0.18974 0.36628 0.0
H796 H 0.99775 0.12909 0.37988 0.0
H797 H 0.9439 0.15833 0.44816 0.0
H798 H 0.91427 0.17553 0.44645 0.0
H799 H 0.88753 0.13279 0.36143 0.0
H800 H 0.91709 0.11543 0.36203 0.0
H801 H 0.96282 0.05904 0.56852 0.0
H802 H 0.95577 0.0876 0.52395 0.0
H803 H 0.97737 0.06554 0.38457 0.0
H804 H 0.98446 0.0369 0.42881 0.0
H805 H 0.9372 0.10124 0.43792 0.0
H806 H 0.0108 0.09765 0.34211 0.0
H807 H 0.04146 0.08287 0.35582 0.0
H808 H 0.0298 0.0778 0.51572 0.0
H809 H -0.00061 0.09309 0.50321 0.0
C810 C 0.96041 0.17276 0.29646 0.0
C811 C 0.9748 0.18487 0.3114 0.0
C812 C 0.95771 0.15614 0.32227 0.0
C813 C 0.96913 0.15156 0.36405 0.0
C814 C 0.98294 0.16409 0.38033 0.0
C815 C 0.98584 0.18055 0.35403 0.0
C816 C 0.96785 0.13314 0.38804 0.0
C817 C 0.98447 0.12307 0.39249 0.0
C818 C 0.95058 0.12528 0.40512 0.0
C819 C 0.93277 0.13566 0.40473 0.0
C820 C 0.93175 0.15266 0.42875 0.0
C821 C 0.91496 0.16243 0.42805 0.0
C822 C 0.89904 0.15528 0.40374 0.0
C823 C 0.89988 0.13832 0.38019 0.0
C824 C 0.91664 0.1285 0.38075 0.0
C825 C 0.96549 0.06005 0.52799 0.0
C826 C 0.9745 0.04588 0.50232 0.0
C827 C 0.96137 0.07635 0.50256 0.0
C828 C 0.96637 0.07874 0.4513 0.0
C829 C 0.97356 0.06395 0.42432 0.0
C830 C 0.97756 0.04758 0.44964 0.0
C831 C 0.96701 0.09732 0.42881 0.0
C832 C 0.95036 0.10734 0.42476 0.0
C833 C 0.98435 0.10545 0.41361 0.0
C834 C 0.00266 0.09625 0.42152 0.0
C835 C 0.0148 0.09342 0.38019 0.0
C836 C 0.03217 0.08501 0.38781 0.0
C837 C 0.03753 0.07933 0.43659 0.0
C838 C 0.02559 0.08214 0.47792 0.0
C839 C 0.0083 0.0907 0.47059 0.0
H840 H 0.05097 0.0728 0.44242 0.0
H841 H 0.88605 0.16286 0.40324 0.0
H842 H 0.29787 0.04236 0.3397 0.0
H843 H 0.32544 0.03075 0.38452 0.0
H844 H 0.36187 0.06047 0.28024 0.0
H845 H 0.33455 0.07104 0.23317 0.0
H846 H 0.37439 0.02798 0.29134 0.0
H847 H 0.35367 0.07384 0.4064 0.0
H848 H 0.33172 0.08986 0.46262 0.0
H849 H 0.32559 0.04161 0.556 0.0
H850 H 0.3473 0.02521 0.49986 0.0
H851 H 0.45754 0.03824 0.44165 0.0
H852 H 0.42867 0.04119 0.39146 0.0
H853 H 0.40296 -0.00299 0.47784 0.0
H854 H 0.43207 -0.00632 0.52743 0.0
H855 H 0.38383 0.03252 0.47766 0.0
H856 H 0.40874 0.98851 0.36324 0.0
H857 H 0.43297 0.97521 0.30822 0.0
H858 H 0.43354 0.02364 0.21445 0.0
H859 H 0.40949 0.03735 0.26934 0.0
C860 C 0.31175 0.04638 0.32615 0.0
C861 C 0.31393 0.05763 0.28267 0.0
C862 C 0.32751 0.03988 0.35221 0.0
C863 C 0.34575 0.04481 0.33594 0.0
C864 C 0.34794 0.05643 0.29345 0.0
C865 C 0.33224 0.06271 0.26698 0.0
C866 C 0.36263 0.03742 0.36184 0.0
C867 C 0.37649 0.02913 0.33205 0.0
C868 C 0.36519 0.03847 0.41515 0.0
C869 C 0.3519 0.04822 0.4485 0.0
C870 C 0.34748 0.06658 0.43859 0.0
C871 C 0.33511 0.07575 0.47052 0.0
C872 C 0.32721 0.06674 0.51275 0.0
C873 C 0.33168 0.04856 0.52319 0.0
C874 C 0.34401 0.03932 0.49133 0.0
C875 C 0.44592 0.0288 0.44879 0.0
C876 C 0.44695 0.0157 0.48808 0.0
C877 C 0.42948 0.0305 0.42022 0.0
C878 C 0.41377 0.01933 0.43116 0.0
C879 C 0.41504 0.00567 0.46886 0.0
C880 C 0.43166 0.0037 0.49679 0.0
C881 C 0.39554 0.02345 0.40698 0.0
C882 C 0.38149 0.03115 0.43708 0.0
C883 C 0.39298 0.02224 0.35392 0.0
C884 C 0.40739 0.01401 0.32065 0.0
C885 C 0.41413 -0.00361 0.33113 0.0
C886 C 0.42782 0.98876 0.29991 0.0
C887 C 0.43481 -0.00141 0.25792 0.0
C888 C 0.42811 0.01605 0.247 0.0
C889 C 0.41443 0.02374 0.27811 0.0
H890 H 0.44541 0.99266 0.23379 0.0
H891 H 0.31766 0.07387 0.53746 0.0
H892 H 0.57607 0.33818 0.24602 0.0
H893 H 0.57115 0.36734 0.28842 0.0
H894 H 0.51381 0.3511 0.32266 0.0
H895 H 0.51833 0.32247 0.27882 0.0
H896 H 0.51523 0.38551 0.28917 0.0
H897 H 0.54949 0.34818 0.41157 0.0
H898 H 0.57646 0.33 0.44118 0.0
H899 H 0.61349 0.37619 0.41787 0.0
H900 H 0.58674 0.39458 0.38753 0.0
H901 H 0.48227 0.42642 0.50537 0.0
H902 H 0.49502 0.40648 0.44147 0.0
H903 H 0.54609 0.43907 0.4351 0.0
H904 H 0.53339 0.45919 0.50063 0.0
H905 H 0.55296 0.40236 0.44073 0.0
H906 H 0.51565 0.44127 0.33619 0.0
H907 H 0.48724 0.45873 0.31445 0.0
H908 H 0.45462 0.40904 0.30906 0.0
H909 H 0.4828 0.39126 0.33121 0.0
C910 C 0.5624 0.3409 0.26236 0.0
C911 C 0.54765 0.32792 0.2595 0.0
C912 C 0.55964 0.35751 0.28675 0.0
C913 C 0.54214 0.36134 0.30887 0.0
C914 C 0.52742 0.34845 0.30576 0.0
C915 C 0.53013 0.33195 0.28132 0.0
C916 C 0.53896 0.37853 0.33641 0.0
C917 C 0.52351 0.38924 0.32222 0.0
C918 C 0.55013 0.38372 0.37853 0.0
C919 C 0.56619 0.37266 0.39664 0.0
C920 C 0.56341 0.3544 0.41235 0.0
C921 C 0.57865 0.34407 0.42934 0.0
C922 C 0.59669 0.35191 0.43122 0.0
C923 C 0.59952 0.37012 0.41626 0.0
C924 C 0.58433 0.3805 0.39917 0.0
C925 C 0.49618 0.42948 0.49033 0.0
C926 C 0.50682 0.44441 0.50795 0.0
C927 C 0.50341 0.41811 0.45349 0.0
C928 C 0.52134 0.42151 0.43283 0.0
C929 C 0.53213 0.43635 0.45035 0.0
C930 C 0.52488 0.4478 0.48763 0.0
C931 C 0.52881 0.40885 0.39467 0.0
C932 C 0.54506 0.39901 0.40672 0.0
C933 C 0.51827 0.40437 0.35079 0.0
C934 C 0.50139 0.41492 0.33535 0.0
C935 C 0.50243 0.43405 0.33036 0.0
C936 C 0.48635 0.44401 0.31799 0.0
C937 C 0.46913 0.435 0.31033 0.0
C938 C 0.46798 0.41599 0.31478 0.0
C939 C 0.48403 0.40596 0.3271 0.0
H940 H 0.45667 0.44274 0.30108 0.0
H941 H 0.60847 0.3439 0.44441 0.0
H942 H 0.18639 0.45424 0.27164 0.0
H943 H 0.15812 0.46477 0.31428 0.0
H944 H 0.14261 0.4091 0.35217 0.0
H945 H 0.17105 0.39839 0.30918 0.0
H946 H 0.11253 0.42856 0.3185 0.0
H947 H 0.16177 0.43605 0.44121 0.0
H948 H 0.1927 0.44643 0.47324 0.0
H949 H 0.1776 0.5022 0.44478 0.0
H950 H 0.14666 0.49213 0.41189 0.0
H951 H 0.05018 0.44275 0.52132 0.0
H952 H 0.07501 0.43472 0.46235 0.0
H953 H 0.08732 0.49184 0.43495 0.0
H954 H 0.06258 0.5 0.49569 0.0
H955 H 0.11839 0.4732 0.45811 0.0
H956 H 0.06728 0.46481 0.34176 0.0
H957 H 0.03641 0.45337 0.31206 0.0
H958 H 0.05459 0.39815 0.33302 0.0
H959 H 0.08554 0.40922 0.36341 0.0
C960 C 0.1771 0.44423 0.2896 0.0
C961 C 0.18108 0.4255 0.28785 0.0
C962 C 0.16091 0.45027 0.3137 0.0
C963 C 0.14843 0.43773 0.33693 0.0
C964 C 0.15211 0.41898 0.33447 0.0
C965 C 0.16833 0.41289 0.31007 0.0
C966 C 0.1317 0.44434 0.36436 0.0
C967 C 0.11377 0.43818 0.34938 0.0
C968 C 0.13338 0.45722 0.40378 0.0
C969 C 0.15198 0.46332 0.42357 0.0
C970 C 0.16511 0.45052 0.44137 0.0
C971 C 0.18263 0.45635 0.45976 0.0
C972 C 0.18713 0.47496 0.46091 0.0
C973 C 0.1741 0.48779 0.44379 0.0
C974 C 0.15656 0.48203 0.4253 0.0
C975 C 0.05803 0.45362 0.50239 0.0
C976 C 0.05461 0.47197 0.51346 0.0
C977 C 0.07209 0.44901 0.46826 0.0
C978 C 0.08286 0.46267 0.44382 0.0
C979 C 0.07907 0.4811 0.45335 0.0
C980 C 0.06496 0.48574 0.48786 0.0
C981 C 0.09914 0.45746 0.41232 0.0
C982 C 0.11706 0.46379 0.42674 0.0
C983 C 0.09742 0.44461 0.3728 0.0
C984 C 0.07876 0.43787 0.35488 0.0
C985 C 0.06468 0.45023 0.34035 0.0
C986 C 0.04717 0.44381 0.32334 0.0
C987 C 0.04362 0.42506 0.32043 0.0
C988 C 0.05745 0.41267 0.33502 0.0
C989 C 0.07498 0.41901 0.35206 0.0
H990 H 0.03019 0.42014 0.30656 0.0
H991 H 0.2007 0.47945 0.47517 0.0
H992 H 0.06306 0.81485 0.91116 0.0
H993 H 0.06311 0.84262 0.85776 0.0
H994 H 0.00232 0.84054 0.85266 0.0
H995 H 0.0022 0.81298 0.90528 0.0
H996 H 0.01612 0.84788 0.76144 0.0
H997 H 0.02695 0.86917 0.93318 0.0
H998 H 0.04433 0.87101 0.01421 0.0
H999 H 0.09358 0.89061 0.93451 0.0
H1000 H 0.07653 0.88865 0.85289 0.0
H1001 H 0.98063 0.93335 0.71252 0.0
H1002 H 0.99127 0.90682 0.76075 0.0
H1003 H 0.04884 0.91933 0.71905 0.0
H1004 H 0.03827 0.94616 0.67036 0.0
H1005 H 0.04311 0.90631 0.82361 0.0
H1006 H 0.02857 0.88928 0.65199 0.0
H1007 H 0.00883 0.88885 0.57496 0.0
H1008 H 0.96436 0.86167 0.6582 0.0
H1009 H 0.98371 0.86221 0.73608 0.0
C1010 C 0.04975 0.82035 0.89846 0.0
C1011 C 0.03263 0.81169 0.91204 0.0
C1012 C 0.04979 0.83618 0.86806 0.0
C1013 C 0.03271 0.84367 0.85143 0.0
C1014 C 0.01568 0.83492 0.86468 0.0
C1015 C 0.01563 0.81912 0.89464 0.0
C1016 C 0.03218 0.86077 0.82085 0.0
C1017 C 0.02204 0.86064 0.77506 0.0
C1018 C 0.04033 0.87734 0.83794 0.0
C1019 C 0.05055 0.87854 0.88693 0.0
C1020 C 0.04153 0.87372 0.93292 0.0
C1021 C 0.05131 0.87481 0.97894 0.0
C1022 C 0.07007 0.88086 0.97949 0.0
C1023 C 0.07906 0.88588 0.93401 0.0
C1024 C 0.06935 0.88479 0.88787 0.0
C1025 C 0.9956 0.93066 0.71413 0.0
C1026 C 0.0086 0.94168 0.68709 0.0
C1027 C 0.00164 0.91549 0.74168 0.0
C1028 C 0.02077 0.91099 0.74252 0.0
C1029 C 0.034 0.92259 0.71849 0.0
C1030 C 0.02794 0.93788 0.6908 0.0
C1031 C 0.02646 0.89341 0.76552 0.0
C1032 C 0.0376 0.89345 0.80953 0.0
C1033 C 0.01903 0.87674 0.74721 0.0
C1034 C 0.00757 0.8759 0.69999 0.0
C1035 C 0.01455 0.88329 0.65396 0.0
C1036 C 0.00342 0.88303 0.61012 0.0
C1037 C 0.98532 0.87531 0.6117 0.0
C1038 C 0.97837 0.86768 0.65705 0.0
C1039 C 0.98943 0.86794 0.70105 0.0
H1040 H 0.97666 0.87524 0.57783 0.0
H1041 H 0.07762 0.8817 0.01516 0.0
H1042 H 0.66166 0.93031 0.94984 0.0
H1043 H 0.63627 0.93802 0.89113 0.0
H1044 H 0.67676 0.96173 0.78609 0.0
H1045 H 0.70226 0.95441 0.8455 0.0
H1046 H 0.6484 0.98459 0.80256 0.0
H1047 H 0.6536 0.92263 0.75624 0.0
H1048 H 0.65596 0.88927 0.76733 0.0
H1049 H 0.60146 0.88733 0.83839 0.0
H1050 H 0.5989 0.92071 0.82861 0.0
H1051 H 0.57232 -0.00445 0.62045 0.0
H1052 H 0.60195 0.99011 0.66582 0.0
H1053 H 0.57097 0.96378 0.78824 0.0
H1054 H 0.54148 0.96839 0.74147 0.0
H1055 H 0.5974 0.94201 0.74986 0.0
H1056 H 0.59468 0.00548 0.80318 0.0
H1057 H 0.5927 0.03864 0.78692 0.0
H1058 H 0.64295 0.03708 0.69601 0.0
H1059 H 0.64509 0.00386 0.7113 0.0
C1060 C 0.66517 0.937 0.91401 0.0
C1061 C 0.68391 0.94184 0.90231 0.0
C1062 C 0.65068 0.94127 0.8803 0.0
C1063 C 0.65465 0.95036 0.83411 0.0
C1064 C 0.67342 0.95468 0.82151 0.0
C1065 C 0.68796 0.95036 0.85525 0.0
C1066 C 0.63897 0.9565 0.80122 0.0
C1067 C 0.63738 0.97524 0.79034 0.0
C1068 C 0.62457 0.94431 0.78546 0.0
C1069 C 0.62614 0.92422 0.79205 0.0
C1070 C 0.6422 0.91512 0.77472 0.0
C1071 C 0.64356 0.89619 0.78069 0.0
C1072 C 0.62889 0.88619 0.80366 0.0
C1073 C 0.61282 0.89509 0.82067 0.0
C1074 C 0.6114 0.91402 0.81488 0.0
C1075 C 0.57186 0.98922 0.65792 0.0
C1076 C 0.55478 0.98248 0.67812 0.0
C1077 C 0.58876 0.98604 0.68366 0.0
C1078 C 0.58862 0.97642 0.73025 0.0
C1079 C 0.57134 0.97101 0.75205 0.0
C1080 C 0.55455 0.9738 0.72582 0.0
C1081 C 0.60635 0.97015 0.75383 0.0
C1082 C 0.60842 0.95134 0.76224 0.0
C1083 C 0.6212 0.98224 0.76691 0.0
C1084 C 0.61997 0.0022 0.75811 0.0
C1085 C 0.60524 0.0122 0.7795 0.0
C1086 C 0.6041 0.031 0.77049 0.0
C1087 C 0.61767 0.03995 0.74038 0.0
C1088 C 0.63244 0.03013 0.71932 0.0
C1089 C 0.63364 0.01132 0.7282 0.0
H1090 H 0.61676 0.05451 0.73344 0.0
H1091 H 0.62996 0.87154 0.80819 0.0
H1092 H 0.46306 0.67332 0.88502 0.0
H1093 H 0.46433 0.64867 0.82398 0.0
H1094 H 0.4038 0.64261 0.83045 0.0
H1095 H 0.40247 0.66758 0.89237 0.0
H1096 H 0.42334 0.60943 0.84196 0.0
H1097 H 0.4213 0.65854 0.72448 0.0
H1098 H 0.42888 0.68897 0.68828 0.0
H1099 H 0.48653 0.67352 0.66823 0.0
H1100 H 0.47943 0.64313 0.70531 0.0
H1101 H 0.45256 0.5421 0.65172 0.0
H1102 H 0.43433 0.56606 0.69327 0.0
H1103 H 0.48607 0.59378 0.73369 0.0
H1104 H 0.50422 0.57012 0.69315 0.0
H1105 H 0.45981 0.61595 0.68155 0.0
H1106 H 0.46256 0.57097 0.82135 0.0
H1107 H 0.45557 0.54083 0.86032 0.0
H1108 H 0.39636 0.54888 0.83677 0.0
H1109 H 0.40305 0.579 0.79705 0.0
C1110 C 0.45 0.6668 0.87328 0.0
C1111 C 0.43268 0.67221 0.89352 0.0
C1112 C 0.45072 0.65283 0.83813 0.0
C1113 C 0.43414 0.64395 0.82235 0.0
C1114 C 0.41672 0.6494 0.84202 0.0
C1115 C 0.41597 0.66363 0.87708 0.0
C1116 C 0.43567 0.62835 0.78755 0.0
C1117 C 0.43079 0.61085 0.80603 0.0
C1118 C 0.44541 0.63026 0.74077 0.0
C1119 C 0.44981 0.64852 0.71793 0.0
C1120 C 0.43563 0.66166 0.71272 0.0
C1121 C 0.43985 0.67891 0.69206 0.0
C1122 C 0.45819 0.68319 0.6762 0.0
C1123 C 0.47234 0.67019 0.68069 0.0
C1124 C 0.46821 0.65293 0.70146 0.0
C1125 C 0.46 0.55316 0.67025 0.0
C1126 C 0.47982 0.55431 0.66885 0.0
C1127 C 0.44959 0.56683 0.6937 0.0
C1128 C 0.45891 0.58176 0.71584 0.0
C1129 C 0.47864 0.58247 0.71618 0.0
C1130 C 0.48899 0.56888 0.69316 0.0
C1131 C 0.44852 0.59715 0.73766 0.0
C1132 C 0.45172 0.61458 0.71646 0.0
C1133 C 0.43727 0.59517 0.78179 0.0
C1134 C 0.43331 0.57709 0.80559 0.0
C1135 C 0.44807 0.56623 0.82403 0.0
C1136 C 0.44416 0.54917 0.84635 0.0
C1137 C 0.42554 0.54291 0.85083 0.0
C1138 C 0.41078 0.55372 0.83314 0.0
C1139 C 0.41462 0.57079 0.81073 0.0
H1140 H 0.42254 0.5297 0.86815 0.0
H1141 H 0.46142 0.69656 0.66024 0.0
H1142 H 0.83311 0.54397 0.97647 0.0
H1143 H 0.85948 0.53032 0.93189 0.0
H1144 H 0.82965 0.53586 0.78959 0.0
H1145 H 0.80298 0.5493 0.8344 0.0
H1146 H 0.84567 0.50332 0.79647 0.0
H1147 H 0.86604 0.5653 0.82145 0.0
H1148 H 0.87317 0.59326 0.86941 0.0
H1149 H 0.91326 0.56409 0.96061 0.0
H1150 H 0.90616 0.5359 0.91366 0.0
H1151 H 0.92395 0.49808 0.62875 0.0
H1152 H 0.89573 0.50329 0.6783 0.0
H1153 H 0.92771 0.49766 0.81705 0.0
H1154 H 0.95646 0.49342 0.76739 0.0
H1155 H 0.91027 0.529 0.8139 0.0
H1156 H 0.89147 0.46705 0.78126 0.0
H1157 H 0.88501 0.44029 0.72783 0.0
H1158 H 0.84254 0.47003 0.64667 0.0
H1159 H 0.84882 0.497 0.69933 0.0
C1160 C 0.83227 0.54248 0.93559 0.0
C1161 C 0.81611 0.54788 0.90875 0.0
C1162 C 0.84732 0.53464 0.91018 0.0
C1163 C 0.84663 0.53229 0.85733 0.0
C1164 C 0.83045 0.53755 0.83042 0.0
C1165 C 0.81528 0.54525 0.85595 0.0
C1166 C 0.86285 0.52436 0.83029 0.0
C1167 C 0.85981 0.50898 0.79992 0.0
C1168 C 0.88132 0.53155 0.83567 0.0
C1169 C 0.8854 0.54844 0.86442 0.0
C1170 C 0.87623 0.56481 0.85207 0.0
C1171 C 0.88029 0.58071 0.87901 0.0
C1172 C 0.89361 0.58044 0.91814 0.0
C1173 C 0.9029 0.56427 0.93041 0.0
C1174 C 0.89885 0.54833 0.90367 0.0
C1175 C 0.92499 0.49751 0.66985 0.0
C1176 C 0.94256 0.49562 0.69416 0.0
C1177 C 0.90873 0.50039 0.6982 0.0
C1178 C 0.90959 0.50094 0.75144 0.0
C1179 C 0.9268 0.49747 0.77593 0.0
C1180 C 0.94319 0.49493 0.74754 0.0
C1181 C 0.8933 0.50766 0.7808 0.0
C1182 C 0.89626 0.52302 0.81122 0.0
C1183 C 0.87481 0.50049 0.77508 0.0
C1184 C 0.87077 0.48414 0.74395 0.0
C1185 C 0.88083 0.46793 0.75181 0.0
C1186 C 0.87717 0.4527 0.72171 0.0
C1187 C 0.86341 0.45347 0.68379 0.0
C1188 C 0.85321 0.46945 0.67603 0.0
C1189 C 0.85679 0.4847 0.70606 0.0
H1190 H 0.86062 0.44167 0.66049 0.0
H1191 H 0.89677 0.59277 0.93887 0.0
H1192 H 0.04025 0.20459 0.89953 0.0
H1193 H 0.03926 0.17601 0.85231 0.0
H1194 H 0.97892 0.17302 0.8714 0.0
H1195 H 0.97984 0.2012 0.9197 0.0
H1196 H 0.99526 0.14176 0.90078 0.0
H1197 H 0.99855 0.18209 0.75547 0.0
H1198 H 0.0117 0.20702 0.70184 0.0
H1199 H 0.06374 0.17822 0.6884 0.0
H1200 H 0.05099 0.15322 0.74257 0.0
H1201 H 0.97309 0.06827 0.74014 0.0
H1202 H 0.97602 0.09775 0.78127 0.0
H1203 H 0.03591 0.09842 0.75253 0.0
H1204 H 0.03299 0.06898 0.70993 0.0
H1205 H 0.02123 0.13066 0.7289 0.0
H1206 H 0.01781 0.09006 0.87292 0.0
H1207 H 0.00462 0.06503 0.92613 0.0
H1208 H 0.95297 0.09428 0.94228 0.0
H1209 H 0.96576 0.1194 0.88859 0.0
C1210 C 0.02674 0.19797 0.89305 0.0
C1211 C 0.01013 0.2052 0.91347 0.0
C1212 C 0.02619 0.18168 0.86584 0.0
C1213 C 0.00901 0.17236 0.85839 0.0
C1214 C 0.99233 0.17997 0.87678 0.0
C1215 C 0.99287 0.19623 0.90389 0.0
C1216 C 0.0085 0.15406 0.83474 0.0
C1217 C 0.00071 0.13939 0.86291 0.0
C1218 C 0.01617 0.15084 0.78603 0.0
C1219 C 0.02388 0.16588 0.75354 0.0
C1220 C 0.01286 0.18115 0.74148 0.0
C1221 C 0.02023 0.19528 0.71089 0.0
C1222 C 0.03857 0.19423 0.69184 0.0
C1223 C 0.04955 0.17903 0.70325 0.0
C1224 C 0.04226 0.16487 0.73385 0.0
C1225 C 0.98693 0.07457 0.74288 0.0
C1226 C 0.00282 0.06624 0.7218 0.0
C1227 C 0.9886 0.09144 0.76661 0.0
C1228 C 0.00622 0.10025 0.77049 0.0
C1229 C 0.02217 0.09188 0.74999 0.0
C1230 C 0.0205 0.07501 0.72592 0.0
C1231 C 0.00782 0.1184 0.79476 0.0
C1232 C 0.01584 0.13303 0.76684 0.0
C1233 C 0.0004 0.1216 0.8438 0.0
C1234 C 0.99271 0.10656 0.87645 0.0
C1235 C 0.0036 0.09111 0.88756 0.0
C1236 C 0.9962 0.07691 0.91785 0.0
C1237 C 0.97798 0.07807 0.93759 0.0
C1238 C 0.9671 0.09342 0.92703 0.0
C1239 C 0.97442 0.10765 0.89672 0.0
H1240 H 0.97229 0.06709 0.96112 0.0
H1241 H 0.04424 0.20518 0.66815 0.0
H1242 H 0.2863 0.05612 0.82657 0.0
H1243 H 0.31436 0.04812 0.77806 0.0
H1244 H 0.34855 0.08255 0.87352 0.0
H1245 H 0.3209 0.09003 0.92366 0.0
H1246 H 0.35815 0.08394 0.76514 0.0
H1247 H 0.34757 0.04101 0.90451 0.0
H1248 H 0.32828 0.01921 0.95516 0.0
H1249 H 0.32029 0.98585 0.82363 0.0
H1250 H 0.3393 0.00764 0.77199 0.0
H1251 H 0.44834 0.04489 0.71596 0.0
H1252 H 0.42024 0.05799 0.75508 0.0
H1253 H 0.38585 0.01512 0.69068 0.0
H1254 H 0.41372 0.00175 0.6533 0.0
H1255 H 0.37622 0.019 0.78364 0.0
H1256 H 0.3864 0.06033 0.64324 0.0
H1257 H 0.40435 0.08199 0.58871 0.0
H1258 H 0.41183 0.1179 0.71508 0.0
H1259 H 0.3941 0.09634 0.77057 0.0
C1260 C 0.29975 0.06209 0.83722 0.0
C1261 C 0.30125 0.0736 0.87953 0.0
C1262 C 0.31574 0.0576 0.80915 0.0
C1263 C 0.33352 0.06466 0.8225 0.0
C1264 C 0.33494 0.07704 0.86248 0.0
C1265 C 0.31901 0.08137 0.89097 0.0
C1266 C 0.35082 0.05777 0.79816 0.0
C1267 C 0.36225 0.0698 0.76942 0.0
C1268 C 0.35592 0.03925 0.80314 0.0
C1269 C 0.34468 0.02604 0.83429 0.0
C1270 C 0.34157 0.0291 0.8863 0.0
C1271 C 0.33071 0.01674 0.9152 0.0
C1272 C 0.32302 0.00118 0.89259 0.0
C1273 C 0.32623 -0.00207 0.84107 0.0
C1274 C 0.33705 0.01027 0.81197 0.0
C1275 C 0.43477 0.03831 0.71022 0.0
C1276 C 0.43328 0.02222 0.68187 0.0
C1277 C 0.41869 0.04586 0.73228 0.0
C1278 C 0.40085 0.03763 0.72554 0.0
C1279 C 0.39942 0.02169 0.69674 0.0
C1280 C 0.41542 0.01405 0.67535 0.0
C1281 C 0.38365 0.04508 0.74968 0.0
C1282 C 0.37221 0.03316 0.77887 0.0
C1283 C 0.37846 0.06363 0.74441 0.0
C1284 C 0.3891 0.07663 0.71118 0.0
C1285 C 0.392 0.07278 0.6595 0.0
C1286 C 0.40211 0.08505 0.6284 0.0
C1287 C 0.40928 0.10129 0.64846 0.0
C1288 C 0.4063 0.10531 0.69963 0.0
C1289 C 0.39621 0.09307 0.73091 0.0
H1290 H 0.4171 0.11077 0.62432 0.0
H1291 H 0.31462 0.99162 0.91503 0.0
H1292 H 0.5331 0.29031 0.82881 0.0
H1293 H 0.5256 0.31879 0.78432 0.0
H1294 H 0.47711 0.32543 0.88067 0.0
H1295 H 0.48491 0.29744 0.92706 0.0
H1296 H 0.4749 0.33758 0.76509 0.0
H1297 H 0.50909 0.34514 0.925 0.0
H1298 H 0.53473 0.33709 0.98415 0.0
H1299 H 0.57578 0.35129 0.86972 0.0
H1300 H 0.55033 0.35909 0.80955 0.0
H1301 H 0.46971 0.43463 0.72507 0.0
H1302 H 0.46846 0.40386 0.76318 0.0
H1303 H 0.52745 0.39715 0.7289 0.0
H1304 H 0.52895 0.42786 0.69325 0.0
H1305 H 0.52164 0.38466 0.8176 0.0
H1306 H 0.48952 0.37757 0.65746 0.0
H1307 H 0.46517 0.38393 0.59291 0.0
H1308 H 0.42189 0.3679 0.69928 0.0
H1309 H 0.44597 0.36172 0.76472 0.0
C1310 C 0.52064 0.29763 0.84008 0.0
C1311 C 0.50986 0.29171 0.88228 0.0
C1312 C 0.51629 0.31382 0.81427 0.0
C1313 C 0.50091 0.32423 0.82959 0.0
C1314 C 0.48899 0.3175 0.8682 0.0
C1315 C 0.49348 0.30141 0.89457 0.0
C1316 C 0.49923 0.34332 0.81119 0.0
C1317 C 0.48491 0.348 0.77688 0.0
C1318 C 0.51252 0.35674 0.82612 0.0
C1319 C 0.52782 0.35252 0.86267 0.0
C1320 C 0.52358 0.34641 0.91235 0.0
C1321 C 0.53807 0.3419 0.94606 0.0
C1322 C 0.55687 0.34363 0.93066 0.0
C1323 C 0.56121 0.34993 0.88157 0.0
C1324 C 0.54676 0.3544 0.84766 0.0
C1325 C 0.4824 0.42659 0.72606 0.0
C1326 C 0.49943 0.43372 0.70632 0.0
C1327 C 0.48165 0.40895 0.74746 0.0
C1328 C 0.49782 0.39802 0.74842 0.0
C1329 C 0.51479 0.40525 0.72889 0.0
C1330 C 0.51561 0.42289 0.70842 0.0
C1331 C 0.49746 0.37914 0.7702 0.0
C1332 C 0.51144 0.37442 0.80564 0.0
C1333 C 0.48401 0.3657 0.75553 0.0
C1334 C 0.46954 0.36938 0.71616 0.0
C1335 C 0.4748 0.37554 0.66721 0.0
C1336 C 0.46105 0.3791 0.63044 0.0
C1337 C 0.44199 0.37636 0.64205 0.0
C1338 C 0.43665 0.37004 0.69039 0.0
C1339 C 0.45035 0.36651 0.72732 0.0
H1340 H 0.43136 0.37908 0.61357 0.0
H1341 H 0.56807 0.34013 0.95681 0.0
H1342 H 0.18142 0.40891 0.94331 0.0
H1343 H 0.15283 0.41795 0.89893 0.0
H1344 H 0.18394 0.46038 0.81903 0.0
H1345 H 0.21287 0.45113 0.86246 0.0
H1346 H 0.15174 0.4729 0.86477 0.0
H1347 H 0.16874 0.423 0.75695 0.0
H1348 H 0.1773 0.39124 0.73873 0.0
H1349 H 0.12483 0.37209 0.80255 0.0
H1350 H 0.11607 0.40374 0.82181 0.0
H1351 H 0.08561 0.50211 0.68609 0.0
H1352 H 0.11271 0.48972 0.73012 0.0
H1353 H 0.07819 0.44563 0.79065 0.0
H1354 H 0.05079 0.45776 0.74469 0.0
H1355 H 0.11091 0.43294 0.75958 0.0
H1356 H 0.09302 0.48185 0.86592 0.0
H1357 H 0.08387 0.51319 0.88704 0.0
H1358 H 0.13707 0.53372 0.83146 0.0
H1359 H 0.14645 0.50252 0.80932 0.0
C1360 C 0.1824 0.41983 0.91525 0.0
C1361 C 0.19957 0.42922 0.9064 0.0
C1362 C 0.16594 0.42506 0.89011 0.0
C1363 C 0.16624 0.4398 0.85555 0.0
C1364 C 0.18339 0.44898 0.84569 0.0
C1365 C 0.1999 0.4437 0.87065 0.0
C1366 C 0.14849 0.44629 0.83197 0.0
C1367 C 0.14294 0.46426 0.84116 0.0
C1368 C 0.13661 0.43475 0.80302 0.0
C1369 C 0.14184 0.41573 0.79128 0.0
C1370 C 0.1591 0.41201 0.76749 0.0
C1371 C 0.16397 0.39403 0.7569 0.0
C1372 C 0.15164 0.37965 0.7696 0.0
C1373 C 0.13438 0.38324 0.7928 0.0
C1374 C 0.12945 0.40119 0.80351 0.0
C1375 C 0.08363 0.48984 0.709 0.0
C1376 C 0.06594 0.48101 0.71217 0.0
C1377 C 0.09921 0.4828 0.73442 0.0
C1378 C 0.09748 0.46693 0.76461 0.0
C1379 C 0.07985 0.45796 0.76781 0.0
C1380 C 0.0642 0.46494 0.74175 0.0
C1381 C 0.11429 0.4597 0.79162 0.0
C1382 C 0.11965 0.44159 0.78333 0.0
C1383 C 0.12591 0.47104 0.82202 0.0
C1384 C 0.12038 0.48984 0.83561 0.0
C1385 C 0.10272 0.49305 0.85788 0.0
C1386 C 0.0975 0.5108 0.87009 0.0
C1387 C 0.10986 0.52544 0.86051 0.0
C1388 C 0.1275 0.52237 0.83883 0.0
C1389 C 0.13279 0.50465 0.82651 0.0
H1390 H 0.10579 0.53917 0.86997 0.0
H1391 H 0.15544 0.36574 0.76136 0.0
H1392 H 0.02102 0.78898 0.36204 0.0
H1393 H 0.01571 0.81701 0.40829 0.0
H1394 H 0.96327 0.82457 0.32814 0.0
H1395 H 0.9691 0.79712 0.27937 0.0
H1396 H 0.98195 0.85432 0.3224 0.0
H1397 H 0.96579 0.81556 0.46039 0.0
H1398 H 0.96781 0.7903 0.52291 0.0
H1399 H 0.01897 0.81339 0.58271 0.0
H1400 H 0.01748 0.83862 0.51997 0.0
H1401 H 0.97144 0.93576 0.47581 0.0
H1402 H 0.96521 0.90533 0.4407 0.0
H1403 H 0.02293 0.89065 0.46887 0.0
H1404 H 0.02933 0.9208 0.50328 0.0
H1405 H 0.99513 0.86455 0.50499 0.0
H1406 H 0.01186 0.90065 0.35444 0.0
H1407 H 0.00782 0.92628 0.29383 0.0
H1408 H 0.95136 0.90793 0.26226 0.0
H1409 H 0.95499 0.88231 0.32329 0.0
C1410 C 0.00825 0.79648 0.35456 0.0
C1411 C 0.99562 0.79084 0.31648 0.0
C1412 C 0.00509 0.81244 0.38159 0.0
C1413 C 0.98902 0.82296 0.37199 0.0
C1414 C 0.97579 0.81675 0.33624 0.0
C1415 C 0.97905 0.80088 0.30875 0.0
C1416 C 0.9872 0.8413 0.39514 0.0
C1417 C 0.9843 0.85643 0.36268 0.0
C1418 C 0.99042 0.84426 0.4476 0.0
C1419 C 0.9916 0.82893 0.48503 0.0
C1420 C 0.97759 0.81516 0.48648 0.0
C1421 C 0.97862 0.80086 0.52206 0.0
C1422 C 0.99353 0.80022 0.55668 0.0
C1423 C 0.00744 0.81389 0.55582 0.0
C1424 C 0.0065 0.82821 0.52026 0.0
C1425 C 0.98281 0.92607 0.4742 0.0
C1426 C 0.00089 0.93073 0.49223 0.0
C1427 C 0.97922 0.90872 0.45423 0.0
C1428 C 0.99361 0.89577 0.45247 0.0
C1429 C 0.01163 0.90044 0.47014 0.0
C1430 C 0.01527 0.91774 0.48956 0.0
C1431 C 0.99018 0.87726 0.43221 0.0
C1432 C 0.99219 0.86221 0.46515 0.0
C1433 C 0.98576 0.87436 0.38057 0.0
C1434 C 0.98361 0.88973 0.3439 0.0
C1435 C 0.99852 0.90219 0.33496 0.0
C1436 C 0.99632 0.91669 0.30044 0.0
C1437 C 0.97932 0.91877 0.27434 0.0
C1438 C 0.9645 0.90632 0.28259 0.0
C1439 C 0.96663 0.89181 0.31712 0.0
H1440 H 0.97764 0.93 0.24762 0.0
H1441 H 0.99429 0.78915 0.58424 0.0
H1442 H 0.6952 0.91409 0.2871 0.0
H1443 H 0.66669 0.91676 0.33737 0.0
H1444 H 0.68895 0.96568 0.40571 0.0
H1445 H 0.71829 0.96234 0.35842 0.0
H1446 H 0.66755 0.94802 0.47235 0.0
H1447 H 0.66064 0.96685 0.29729 0.0
H1448 H 0.66199 0.96315 0.20425 0.0
H1449 H 0.62232 0.91849 0.21464 0.0
H1450 H 0.62095 0.92176 0.3079 0.0
H1451 H 0.58554 -0.00052 0.51102 0.0
H1452 H 0.61524 0.98711 0.48166 0.0
H1453 H 0.58679 0.93714 0.43994 0.0
H1454 H 0.55674 0.94948 0.46961 0.0
H1455 H 0.61035 0.95142 0.36422 0.0
H1456 H 0.61424 0.93719 0.5421 0.0
H1457 H 0.61294 0.94352 0.63399 0.0
H1458 H 0.65811 0.98268 0.61735 0.0
H1459 H 0.6595 0.97685 0.52524 0.0
C1460 C 0.69448 0.92507 0.31412 0.0
C1461 C 0.70912 0.93817 0.31787 0.0
C1462 C 0.67794 0.92672 0.34241 0.0
C1463 C 0.67539 0.94174 0.37413 0.0
C1464 C 0.69046 0.95408 0.38098 0.0
C1465 C 0.70718 0.95226 0.35336 0.0
C1466 C 0.65656 0.94551 0.39636 0.0
C1467 C 0.65506 0.94884 0.44871 0.0
C1468 C 0.64015 0.94632 0.36567 0.0
C1469 C 0.64086 0.94441 0.30959 0.0
C1470 C 0.65231 0.95616 0.27975 0.0
C1471 C 0.65307 0.95415 0.22699 0.0
C1472 C 0.64229 0.94056 0.20356 0.0
C1473 C 0.63069 0.92898 0.23285 0.0
C1474 C 0.62991 0.93091 0.28566 0.0
C1475 C 0.58551 0.98585 0.49557 0.0
C1476 C 0.56873 0.97549 0.49241 0.0
C1477 C 0.60257 0.97874 0.47923 0.0
C1478 C 0.60326 0.96112 0.4593 0.0
C1479 C 0.58654 0.95074 0.45558 0.0
C1480 C 0.56941 0.9578 0.47241 0.0
C1481 C 0.62138 0.95408 0.44002 0.0
C1482 C 0.62276 0.95024 0.38809 0.0
C1483 C 0.63767 0.95314 0.47101 0.0
C1484 C 0.63691 0.95663 0.52657 0.0
C1485 C 0.62381 0.94726 0.55791 0.0
C1486 C 0.62307 0.95074 0.61007 0.0
C1487 C 0.63546 0.96347 0.63143 0.0
C1488 C 0.64856 0.9728 0.60071 0.0
C1489 C 0.64934 0.96939 0.54854 0.0
H1490 H 0.63496 0.96609 0.67177 0.0
H1491 H 0.64289 0.93903 0.1627 0.0
H1492 H 0.4517 0.70593 0.34538 0.0
H1493 H 0.46082 0.6793 0.39503 0.0
H1494 H 0.51359 0.67756 0.3136 0.0
H1495 H 0.5038 0.70315 0.26051 0.0
H1496 H 0.49931 0.64623 0.31132 0.0
H1497 H 0.50932 0.68676 0.44922 0.0
H1498 H 0.5024 0.71133 0.50937 0.0
H1499 H 0.45392 0.68133 0.564 0.0
H1500 H 0.4605 0.65663 0.50414 0.0
H1501 H 0.52227 0.56665 0.46357 0.0
H1502 H 0.52376 0.59802 0.42925 0.0
H1503 H 0.46492 0.60474 0.46455 0.0
H1504 H 0.46324 0.5736 0.49811 0.0
H1505 H 0.48814 0.63434 0.49504 0.0
H1506 H 0.47642 0.59647 0.34755 0.0
H1507 H 0.48386 0.57173 0.28838 0.0
H1508 H 0.53709 0.59752 0.2535 0.0
H1509 H 0.53005 0.62229 0.31304 0.0
C1510 C 0.46531 0.7 0.33808 0.0
C1511 C 0.47679 0.7066 0.29801 0.0
C1512 C 0.47069 0.68487 0.36731 0.0
C1513 C 0.48798 0.67633 0.35841 0.0
C1514 C 0.50014 0.68381 0.32119 0.0
C1515 C 0.49458 0.69868 0.29117 0.0
C1516 C 0.49224 0.65841 0.38313 0.0
C1517 C 0.49735 0.64385 0.3518 0.0
C1518 C 0.48938 0.65501 0.43582 0.0
C1519 C 0.48536 0.66987 0.47193 0.0
C1520 C 0.49713 0.68544 0.47388 0.0
C1521 C 0.49329 0.69938 0.50805 0.0
C1522 C 0.47774 0.69789 0.54056 0.0
C1523 C 0.46601 0.68245 0.539 0.0
C1524 C 0.46981 0.66845 0.50503 0.0
C1525 C 0.50966 0.57482 0.46381 0.0
C1526 C 0.49262 0.5676 0.4832 0.0
C1527 C 0.51054 0.59271 0.44433 0.0
C1528 C 0.49445 0.60367 0.44453 0.0
C1529 C 0.47751 0.59653 0.4643 0.0
C1530 C 0.47656 0.57865 0.48307 0.0
C1531 C 0.49486 0.62247 0.423 0.0
C1532 C 0.49056 0.63704 0.45487 0.0
C1533 C 0.49861 0.62596 0.371 0.0
C1534 C 0.50282 0.61109 0.33521 0.0
C1535 C 0.48978 0.59677 0.32762 0.0
C1536 C 0.49391 0.58276 0.29394 0.0
C1537 C 0.51097 0.58301 0.26733 0.0
C1538 C 0.52391 0.59731 0.27423 0.0
C1539 C 0.51985 0.61134 0.30791 0.0
H1540 H 0.51413 0.57216 0.24126 0.0
H1541 H 0.47479 0.7087 0.56694 0.0
H1542 H 0.80324 0.58853 0.28049 0.0
H1543 H 0.83204 0.58397 0.32902 0.0
H1544 H 0.8109 0.53168 0.38238 0.0
H1545 H 0.78149 0.5366 0.33631 0.0
H1546 H 0.83179 0.547 0.45419 0.0
H1547 H 0.8388 0.53593 0.27492 0.0
H1548 H 0.83742 0.54369 0.18343 0.0
H1549 H 0.87679 0.58789 0.20548 0.0
H1550 H 0.87818 0.58055 0.29731 0.0
H1551 H 0.91405 0.49527 0.48178 0.0
H1552 H 0.88488 0.50784 0.44824 0.0
H1553 H 0.91167 0.56074 0.4317 0.0
H1554 H 0.94109 0.5483 0.46615 0.0
H1555 H 0.88905 0.54866 0.34546 0.0
H1556 H 0.88435 0.55656 0.52535 0.0
H1557 H 0.88645 0.54657 0.61507 0.0
H1558 H 0.84325 0.5061 0.59025 0.0
H1559 H 0.84108 0.51566 0.50004 0.0
C1560 C 0.80434 0.57633 0.30394 0.0
C1561 C 0.79004 0.56281 0.30381 0.0
C1562 C 0.82099 0.57364 0.3312 0.0
C1563 C 0.82388 0.55725 0.35816 0.0
C1564 C 0.8091 0.54436 0.36138 0.0
C1565 C 0.79233 0.54713 0.3346 0.0
C1566 C 0.84275 0.55281 0.37913 0.0
C1567 C 0.84428 0.54731 0.43035 0.0
C1568 C 0.85917 0.55345 0.34827 0.0
C1569 C 0.85842 0.55783 0.29305 0.0
C1570 C 0.84705 0.54739 0.26031 0.0
C1571 C 0.84628 0.5517 0.2084 0.0
C1572 C 0.85697 0.56631 0.18868 0.0
C1573 C 0.86849 0.5766 0.22083 0.0
C1574 C 0.86927 0.57237 0.27281 0.0
C1575 C 0.91387 0.50956 0.47064 0.0
C1576 C 0.9299 0.52081 0.47676 0.0
C1577 C 0.89713 0.51672 0.45173 0.0
C1578 C 0.89609 0.53524 0.43814 0.0
C1579 C 0.91222 0.54642 0.44228 0.0
C1580 C 0.92898 0.53929 0.4619 0.0
C1581 C 0.87798 0.54276 0.42014 0.0
C1582 C 0.8766 0.5487 0.36945 0.0
C1583 C 0.86171 0.54232 0.4513 0.0
C1584 C 0.86265 0.53675 0.50579 0.0
C1585 C 0.87537 0.54545 0.5389 0.0
C1586 C 0.87656 0.53988 0.58986 0.0
C1587 C 0.865 0.5257 0.60832 0.0
C1588 C 0.85219 0.51709 0.57587 0.0
C1589 C 0.85095 0.5226 0.52482 0.0
H1590 H 0.86595 0.52145 0.64779 0.0
H1591 H 0.85636 0.56962 0.14847 0.0
loop_
_geom_bond_atom_site_label_1
_geom_bond_atom_site_label_2
_geom_bond_distance
_geom_bond_site_symmetry_2
_ccdc_geom_bond_type
C0 C1 1.386 . S
C0 C2 1.397 . S
C0 H24 0.931 . S
C1 C0 1.386 . S
C1 C5 1.397 . S
C2 C0 1.397 . S
C2 C3 1.384 . S
C2 H25 0.930 . S
C3 C2 1.384 . S
C3 C4 1.377 . S
C3 C6 1.481 . S
C4 C3 1.377 . S
C4 C5 1.389 . S
C4 H26 0.929 . S
C5 C1 1.397 . S
C5 C4 1.389 . S
C5 H27 0.931 . S
C6 C3 1.481 . S
C6 C7 1.387 . S
C6 C11 1.390 1_556 S
C7 C6 1.387 . S
C7 C8 1.409 . S
C7 H28 0.930 . S
C8 C7 1.409 . S
C8 C9 1.366 1_556 S
C8 C17 1.514 . S
C9 C8 1.366 1_554 S
C9 C10 1.392 . S
C9 H30 0.931 . S
C10 C9 1.392 . S
C10 C11 1.361 . S
C10 C12 1.500 . S
C11 C6 1.390 1_554 S
C11 C10 1.361 . S
C11 H29 0.931 . S
C12 C10 1.500 . S
C12 C13 1.371 . S
C12 C14 1.365 . S
C13 C12 1.371 . S
C13 C23 1.386 . S
C13 H31 0.931 . S
C14 C12 1.365 . S
C14 C15 1.409 . S
C14 H32 0.929 . S
C15 C14 1.409 . S
C15 C16 1.380 . S
C15 H33 0.930 . S
C16 C15 1.380 . S
C16 C23 1.357 . S
C17 C8 1.514 . S
C17 C18 1.341 . S
C17 C19 1.371 1_556 S
C18 C17 1.341 . S
C18 C22 1.394 . S
C18 H34 0.930 . S
C19 C17 1.371 1_554 S
C19 C20 1.392 . S
C19 H35 0.931 . S
C20 C19 1.392 . S
C20 C21 1.331 1_554 S
C20 H38 0.932 . S
C21 C20 1.331 1_556 S
C21 C22 1.336 . S
C22 C18 1.394 . S
C22 C21 1.336 . S
C22 H37 0.929 . S
C23 C13 1.386 . S
C23 C16 1.357 . S
C23 H36 0.928 . S
H24 C0 0.931 . S
H25 C2 0.930 . S
H26 C4 0.929 . S
H27 C5 0.931 . S
H28 C7 0.930 . S
H29 C11 0.931 . S
H30 C9 0.931 . S
H31 C13 0.931 . S
H32 C14 0.929 . S
H33 C15 0.930 . S
H34 C18 0.930 . S
H35 C19 0.931 . S
H36 C23 0.928 . S
H37 C22 0.929 . S
H38 C20 0.932 . S
C39 C40 1.394 . S
C39 C41 1.397 . S
C39 H63 0.931 . S
C40 C39 1.394 . S
C40 C44 1.389 1_655 S
C41 C39 1.397 . S
C41 C42 1.389 . S
C41 H64 0.930 . S
C42 C41 1.389 . S
C42 C43 1.373 1_655 S
C42 C45 1.485 . S
C43 C42 1.373 1_455 S
C43 C44 1.389 . S
C43 H65 0.929 . S
C44 C40 1.389 1_455 S
C44 C43 1.389 . S
C44 H66 0.931 . S
C45 C42 1.485 . S
C45 C46 1.389 . S
C45 C50 1.385 1_556 S
C46 C45 1.389 . S
C46 C47 1.403 1_556 S
C46 H67 0.930 . S
C47 C46 1.403 1_554 S
C47 C48 1.376 . S
C47 C56 1.512 . S
C48 C47 1.376 . S
C48 C49 1.392 . S
C48 H69 0.934 . S
C49 C48 1.392 . S
C49 C50 1.361 . S
C49 C51 1.499 1_655 S
C50 C45 1.385 1_554 S
C50 C49 1.361 . S
C50 H68 0.931 . S
C51 C49 1.499 1_455 S
C51 C52 1.363 1_455 S
C51 C53 1.373 . S
C52 C51 1.363 1_655 S
C52 C62 1.386 . S
C52 H70 0.931 . S
C53 C51 1.373 . S
C53 C54 1.409 . S
C53 H71 0.929 . S
C54 C53 1.409 . S
C54 C55 1.378 . S
C54 H72 0.930 . S
C55 C54 1.378 . S
C55 C62 1.359 1_455 S
C56 C47 1.512 . S
C56 C57 1.341 1_554 S
C56 C58 1.371 1_655 S
C57 C56 1.341 1_556 S
C57 C61 1.394 . S
C57 H73 0.930 . S
C58 C56 1.371 1_455 S
C58 C59 1.392 . S
C58 H74 0.931 . S
C59 C58 1.392 . S
C59 C60 1.322 1_454 S
C59 H77 0.932 . S
C60 C59 1.322 1_656 S
C60 C61 1.346 . S
C61 C57 1.394 . S
C61 C60 1.346 . S
C61 H76 0.929 . S
C62 C52 1.386 . S
C62 C55 1.359 1_655 S
C62 H75 0.928 . S
H63 C39 0.931 . S
H64 C41 0.930 . S
H65 C43 0.929 . S
H66 C44 0.931 . S
H67 C46 0.930 . S
H68 C50 0.931 . S
H69 C48 0.934 . S
H70 C52 0.931 . S
H71 C53 0.929 . S
H72 C54 0.930 . S
H73 C57 0.930 . S
H74 C58 0.931 . S
H75 C62 0.928 . S
H76 C61 0.929 . S
H77 C59 0.932 . S
C78 C79 1.386 . S
C78 C80 1.397 . S
C78 H102 0.931 . S
C79 C78 1.386 . S
C79 C83 1.397 . S
C80 C78 1.397 . S
C80 C81 1.384 . S
C80 H103 0.930 . S
C81 C80 1.384 . S
C81 C82 1.377 . S
C81 C84 1.481 . S
C82 C81 1.377 . S
C82 C83 1.389 . S
C82 H104 0.929 . S
C83 C79 1.397 . S
C83 C82 1.389 . S
C83 H105 0.931 . S
C84 C81 1.481 . S
C84 C85 1.387 . S
C84 C89 1.390 1_556 S
C85 C84 1.387 . S
C85 C86 1.401 1_556 S
C85 H106 0.930 . S
C86 C85 1.401 1_554 S
C86 C87 1.376 . S
C86 C95 1.511 . S
C87 C86 1.376 . S
C87 C88 1.392 . S
C87 H108 0.931 . S
C88 C87 1.392 . S
C88 C89 1.361 . S
C88 C90 1.500 . S
C89 C84 1.390 1_554 S
C89 C88 1.361 . S
C89 H107 0.931 . S
C90 C88 1.500 . S
C90 C91 1.371 . S
C90 C92 1.365 . S
C91 C90 1.371 . S
C91 C101 1.386 . S
C91 H109 0.931 . S
C92 C90 1.365 . S
C92 C93 1.409 . S
C92 H110 0.929 . S
C93 C92 1.409 . S
C93 C94 1.380 . S
C93 H111 0.930 . S
C94 C93 1.380 . S
C94 C101 1.357 . S
C95 C86 1.511 . S
C95 C96 1.341 1_554 S
C95 C97 1.371 . S
C96 C95 1.341 1_556 S
C96 C100 1.394 . S
C96 H112 0.930 . S
C97 C95 1.371 . S
C97 C98 1.392 . S
C97 H113 0.931 . S
C98 C97 1.392 . S
C98 C99 1.331 1_554 S
C98 H116 0.932 . S
C99 C98 1.331 1_556 S
C99 C100 1.336 . S
C100 C96 1.394 . S
C100 C99 1.336 . S
C100 H115 0.929 . S
C101 C91 1.386 . S
C101 C94 1.357 . S
C101 H114 0.928 . S
H102 C78 0.931 . S
H103 C80 0.930 . S
H104 C82 0.929 . S
H105 C83 0.931 . S
H106 C85 0.930 . S
H107 C89 0.931 . S
H108 C87 0.931 . S
H109 C91 0.931 . S
H110 C92 0.929 . S
H111 C93 0.930 . S
H112 C96 0.930 . S
H113 C97 0.931 . S
H114 C101 0.928 . S
H115 C100 0.929 . S
H116 C98 0.932 . S
C117 C118 1.386 . S
C117 C119 1.397 . S
C117 H141 0.931 . S
C118 C117 1.386 . S
C118 C122 1.397 . S
C119 C117 1.397 . S
C119 C120 1.384 . S
C119 H142 0.930 . S
C120 C119 1.384 . S
C120 C121 1.377 . S
C120 C123 1.481 . S
C121 C120 1.377 . S
C121 C122 1.389 . S
C121 H143 0.929 . S
C122 C118 1.397 . S
C122 C121 1.389 . S
C122 H144 0.931 . S
C123 C120 1.481 . S
C123 C124 1.387 . S
C123 C128 1.390 . S
C124 C123 1.387 . S
C124 C125 1.401 . S
C124 H145 0.930 . S
C125 C124 1.401 . S
C125 C126 1.376 1_554 S
C125 C134 1.511 . S
C126 C125 1.376 1_556 S
C126 C127 1.396 . S
C126 H147 0.931 . S
C127 C126 1.396 . S
C127 C128 1.346 1_556 S
C127 C129 1.511 . S
C128 C123 1.390 . S
C128 C127 1.346 1_554 S
C128 H146 0.931 . S
C129 C127 1.511 . S
C129 C130 1.371 . S
C129 C131 1.365 . S
C130 C129 1.371 . S
C130 C140 1.386 . S
C130 H148 0.931 . S
C131 C129 1.365 . S
C131 C132 1.409 . S
C131 H149 0.929 . S
C132 C131 1.409 . S
C132 C133 1.380 . S
C132 H150 0.930 . S
C133 C132 1.380 . S
C133 C140 1.357 . S
C134 C125 1.511 . S
C134 C135 1.341 . S
C134 C136 1.371 1_554 S
C135 C134 1.341 . S
C135 C139 1.394 . S
C135 H151 0.930 . S
C136 C134 1.371 1_556 S
C136 C137 1.392 . S
C136 H152 0.931 . S
C137 C136 1.392 . S
C137 C138 1.331 . S
C137 H155 0.932 . S
C138 C137 1.331 . S
C138 C139 1.336 1_556 S
C139 C135 1.394 . S
C139 C138 1.336 1_554 S
C139 H154 0.929 . S
C140 C130 1.386 . S
C140 C133 1.357 . S
C140 H153 0.928 . S
H141 C117 0.931 . S
H142 C119 0.930 . S
H143 C121 0.929 . S
H144 C122 0.931 . S
H145 C124 0.930 . S
H146 C128 0.931 . S
H147 C126 0.931 . S
H148 C130 0.931 . S
H149 C131 0.929 . S
H150 C132 0.930 . S
H151 C135 0.930 . S
H152 C136 0.931 . S
H153 C140 0.928 . S
H154 C139 0.929 . S
H155 C137 0.932 . S
C156 C157 1.386 . S
C156 C158 1.397 . S
C156 H180 0.931 . S
C157 C156 1.386 . S
C157 C161 1.397 . S
C158 C156 1.397 . S
C158 C159 1.384 . S
C158 H181 0.930 . S
C159 C158 1.384 . S
C159 C160 1.377 . S
C159 C162 1.481 . S
C160 C159 1.377 . S
C160 C161 1.389 . S
C160 H182 0.929 . S
C161 C157 1.397 . S
C161 C160 1.389 . S
C161 H183 0.931 . S
C162 C159 1.481 . S
C162 C163 1.387 . S
C162 C167 1.390 . S
C163 C162 1.387 . S
C163 C164 1.401 . S
C163 H184 0.930 . S
C164 C163 1.401 . S
C164 C165 1.376 . S
C164 C173 1.511 . S
C165 C164 1.376 . S
C165 C166 1.392 . S
C165 H186 0.931 . S
C166 C165 1.392 . S
C166 C167 1.361 . S
C166 C168 1.500 . S
C167 C162 1.390 . S
C167 C166 1.361 . S
C167 H185 0.931 . S
C168 C166 1.500 . S
C168 C169 1.371 . S
C168 C170 1.365 . S
C169 C168 1.371 . S
C169 C179 1.386 1_554 S
C169 H187 0.931 . S
C170 C168 1.365 . S
C170 C171 1.409 . S
C170 H188 0.929 . S
C171 C170 1.409 . S
C171 C172 1.380 1_554 S
C171 H189 0.930 . S
C172 C171 1.380 1_556 S
C172 C179 1.357 . S
C173 C164 1.511 . S
C173 C174 1.341 . S
C173 C175 1.371 . S
C174 C173 1.341 . S
C174 C178 1.394 . S
C174 H190 0.930 . S
C175 C173 1.371 . S
C175 C176 1.392 . S
C175 H191 0.931 . S
C176 C175 1.392 . S
C176 C177 1.331 . S
C176 H194 0.932 . S
C177 C176 1.331 . S
C177 C178 1.336 . S
C178 C174 1.394 . S
C178 C177 1.336 . S
C178 H193 0.929 . S
C179 C169 1.386 1_556 S
C179 C172 1.357 . S
C179 H192 0.928 . S
H180 C156 0.931 . S
H181 C158 0.930 . S
H182 C160 0.929 . S
H183 C161 0.931 . S
H184 C163 0.930 . S
H185 C167 0.931 . S
H186 C165 0.931 . S
H187 C169 0.931 . S
H188 C170 0.929 . S
H189 C171 0.930 . S
H190 C174 0.930 . S
H191 C175 0.931 . S
H192 C179 0.928 . S
H193 C178 0.929 . S
H194 C176 0.932 . S
C195 C196 1.386 . S
C195 C197 1.397 . S
C195 H219 0.931 . S
C196 C195 1.386 . S
C196 C200 1.397 1_655 S
C197 C195 1.397 . S
C197 C198 1.380 . S
C197 H220 0.930 . S
C198 C197 1.380 . S
C198 C199 1.381 1_655 S
C198 C201 1.480 . S
C199 C198 1.381 1_455 S
C199 C200 1.389 . S
C199 H221 0.929 . S
C200 C196 1.397 1_455 S
C200 C199 1.389 . S
C200 H222 0.931 . S
C201 C198 1.480 . S
C201 C202 1.386 . S
C201 C206 1.390 . S
C202 C201 1.386 . S
C202 C203 1.401 . S
C202 H223 0.936 . S
C203 C202 1.401 . S
C203 C204 1.376 . S
C203 C212 1.512 . S
C204 C203 1.376 . S
C204 C205 1.391 1_655 S
C204 H225 0.933 . S
C205 C204 1.391 1_455 S
C205 C206 1.361 1_455 S
C205 C207 1.499 . S
C206 C201 1.390 . S
C206 C205 1.361 1_655 S
C206 H224 0.931 1_655 S
C207 C205 1.499 . S
C207 C208 1.357 1_455 S
C207 C209 1.381 . S
C208 C207 1.357 1_655 S
C208 C218 1.386 1_554 S
C208 H226 0.931 . S
C209 C207 1.381 . S
C209 C210 1.409 1_554 S
C209 H227 0.929 . S
C210 C209 1.409 1_556 S
C210 C211 1.384 . S
C210 H228 0.930 . S
C211 C210 1.384 . S
C211 C218 1.353 1_455 S
C212 C203 1.512 . S
C212 C213 1.341 . S
C212 C214 1.371 1_655 S
C213 C212 1.341 . S
C213 C217 1.394 . S
C213 H229 0.930 . S
C214 C212 1.371 1_455 S
C214 C215 1.392 . S
C214 H230 0.931 . S
C215 C214 1.392 . S
C215 C216 1.326 1_455 S
C215 H233 0.932 . S
C216 C215 1.326 1_655 S
C216 C217 1.341 . S
C217 C213 1.394 . S
C217 C216 1.341 . S
C217 H232 0.929 . S
C218 C208 1.386 1_556 S
C218 C211 1.353 1_655 S
C218 H231 0.928 . S
H219 C195 0.931 . S
H220 C197 0.930 . S
H221 C199 0.929 . S
H222 C200 0.931 . S
H223 C202 0.936 . S
H224 C206 0.931 1_455 S
H225 C204 0.933 . S
H226 C208 0.931 . S
H227 C209 0.929 . S
H228 C210 0.930 . S
H229 C213 0.930 . S
H230 C214 0.931 . S
H231 C218 0.928 . S
H232 C217 0.929 . S
H233 C215 0.932 . S
C234 C235 1.386 . S
C234 C236 1.397 . S
C234 H258 0.931 . S
C235 C234 1.386 . S
C235 C239 1.397 . S
C236 C234 1.397 . S
C236 C237 1.384 . S
C236 H259 0.930 . S
C237 C236 1.384 . S
C237 C238 1.377 . S
C237 C240 1.481 . S
C238 C237 1.377 . S
C238 C239 1.389 . S
C238 H260 0.929 . S
C239 C235 1.397 . S
C239 C238 1.389 . S
C239 H261 0.931 . S
C240 C237 1.481 . S
C240 C241 1.387 . S
C240 C245 1.390 . S
C241 C240 1.387 . S
C241 C242 1.401 . S
C241 H262 0.930 . S
C242 C241 1.401 . S
C242 C243 1.376 . S
C242 C251 1.511 . S
C243 C242 1.376 . S
C243 C244 1.392 . S
C243 H264 0.931 . S
C244 C243 1.392 . S
C244 C245 1.361 . S
C244 C246 1.500 . S
C245 C240 1.390 . S
C245 C244 1.361 . S
C245 H263 0.931 . S
C246 C244 1.500 . S
C246 C247 1.371 . S
C246 C248 1.365 . S
C247 C246 1.371 . S
C247 C257 1.386 1_554 S
C247 H265 0.931 . S
C248 C246 1.365 . S
C248 C249 1.409 1_554 S
C248 H266 0.929 . S
C249 C248 1.409 1_556 S
C249 C250 1.380 . S
C249 H267 0.930 . S
C250 C249 1.380 . S
C250 C257 1.357 . S
C251 C242 1.511 . S
C251 C252 1.341 . S
C251 C253 1.371 . S
C252 C251 1.341 . S
C252 C256 1.394 . S
C252 H268 0.930 . S
C253 C251 1.371 . S
C253 C254 1.392 . S
C253 H269 0.931 . S
C254 C253 1.392 . S
C254 C255 1.331 . S
C254 H272 0.932 . S
C255 C254 1.331 . S
C255 C256 1.336 . S
C256 C252 1.394 . S
C256 C255 1.336 . S
C256 H271 0.929 . S
C257 C247 1.386 1_556 S
C257 C250 1.357 . S
C257 H270 0.928 . S
H258 C234 0.931 . S
H259 C236 0.930 . S
H260 C238 0.929 . S
H261 C239 0.931 . S
H262 C241 0.930 . S
H263 C245 0.931 . S
H264 C243 0.931 . S
H265 C247 0.931 . S
H266 C248 0.929 . S
H267 C249 0.930 . S
H268 C252 0.930 . S
H269 C253 0.931 . S
H270 C257 0.928 . S
H271 C256 0.929 . S
H272 C254 0.932 . S
C273 C274 1.386 . S
C273 C275 1.397 1_556 S
C273 H297 0.931 . S
C274 C273 1.386 . S
C274 C278 1.397 . S
C275 C273 1.397 1_554 S
C275 C276 1.384 . S
C275 H298 0.930 . S
C276 C275 1.384 . S
C276 C277 1.377 . S
C276 C279 1.481 . S
C277 C276 1.377 . S
C277 C278 1.389 1_554 S
C277 H299 0.929 . S
C278 C274 1.397 . S
C278 C277 1.389 1_556 S
C278 H300 0.931 . S
C279 C276 1.481 . S
C279 C280 1.387 . S
C279 C284 1.390 . S
C280 C279 1.387 . S
C280 C281 1.401 . S
C280 H301 0.930 . S
C281 C280 1.401 . S
C281 C282 1.376 . S
C281 C290 1.511 . S
C282 C281 1.376 . S
C282 C283 1.392 . S
C282 H303 0.931 . S
C283 C282 1.392 . S
C283 C284 1.361 . S
C283 C285 1.500 . S
C284 C279 1.390 . S
C284 C283 1.361 . S
C284 H302 0.931 . S
C285 C283 1.500 . S
C285 C286 1.371 . S
C285 C287 1.365 . S
C286 C285 1.371 . S
C286 C296 1.386 . S
C286 H304 0.931 . S
C287 C285 1.365 . S
C287 C288 1.409 . S
C287 H305 0.929 . S
C288 C287 1.409 . S
C288 C289 1.380 . S
C288 H306 0.930 . S
C289 C288 1.380 . S
C289 C296 1.357 . S
C290 C281 1.511 . S
C290 C291 1.341 . S
C290 C292 1.371 . S
C291 C290 1.341 . S
C291 C295 1.394 . S
C291 H307 0.930 . S
C292 C290 1.371 . S
C292 C293 1.392 . S
C292 H308 0.931 . S
C293 C292 1.392 . S
C293 C294 1.331 . S
C293 H311 0.932 . S
C294 C293 1.331 . S
C294 C295 1.336 . S
C295 C291 1.394 . S
C295 C294 1.336 . S
C295 H310 0.929 . S
C296 C286 1.386 . S
C296 C289 1.357 . S
C296 H309 0.928 . S
H297 C273 0.931 . S
H298 C275 0.930 . S
H299 C277 0.929 . S
H300 C278 0.931 . S
H301 C280 0.930 . S
H302 C284 0.931 . S
H303 C282 0.931 . S
H304 C286 0.931 . S
H305 C287 0.929 . S
H306 C288 0.930 . S
H307 C291 0.930 . S
H308 C292 0.931 . S
H309 C296 0.928 . S
H310 C295 0.929 . S
H311 C293 0.932 . S
Zn312 O318 1.969 . S
Zn312 O319 1.965 1_655 S
Zn312 O323 2.024 1_655 S
Zn312 O328 1.969 . S
Zn313 O320 1.969 . S
Zn313 O326 1.969 . S
Zn313 O327 1.965 1_455 S
Zn313 O329 2.024 1_455 S
C314 O315 1.229 1_455 S
C314 O323 1.058 . S
O315 C314 1.229 1_655 S
C316 O317 1.229 1_655 S
C316 O329 1.058 . S
O317 C316 1.229 1_455 S
O318 Zn312 1.969 . S
O318 C321 1.267 . S
O319 Zn312 1.965 1_455 S
O319 C330 1.260 . S
O320 Zn313 1.969 . S
O320 C330 1.258 1_565 S
C321 O318 1.267 . S
C321 O322 1.228 1_655 S
O322 C321 1.228 1_455 S
O323 Zn312 2.024 1_455 S
O323 C314 1.058 . S
C324 O325 1.228 1_455 S
C324 O326 1.267 . S
O325 C324 1.228 1_655 S
O326 Zn313 1.969 . S
O326 C324 1.267 . S
O327 Zn313 1.965 1_655 S
O327 C331 1.260 1_565 S
O328 Zn312 1.969 . S
O328 C331 1.258 . S
O329 Zn313 2.024 1_655 S
O329 C316 1.058 . S
C330 O319 1.260 . S
C330 O320 1.258 1_545 S
C331 O327 1.260 1_545 S
C331 O328 1.258 . S
Zn332 O338 1.969 . S
Zn332 O339 1.965 . S
Zn332 O343 2.024 . S
Zn332 O348 1.969 1_545 S
Zn333 O340 1.959 1_565 S
Zn333 O346 1.966 1_565 S
Zn333 O347 1.968 . S
Zn333 O349 2.031 . S
C334 O335 1.229 . S
C334 O343 1.058 . S
O335 C334 1.229 . S
C336 O337 1.257 . S
C336 O349 1.058 . S
O337 C336 1.257 . S
O338 Zn332 1.969 . S
O338 C341 1.267 . S
O339 Zn332 1.965 . S
O339 C350 1.260 . S
O340 Zn333 1.959 1_545 S
O340 C350 1.258 . S
C341 O338 1.267 . S
C341 O342 1.228 . S
O342 C341 1.228 . S
O343 Zn332 2.024 . S
O343 C334 1.058 . S
C344 O345 1.228 . S
C344 O346 1.267 1_565 S
O345 C344 1.228 . S
O346 Zn333 1.966 1_545 S
O346 C344 1.267 1_545 S
O347 Zn333 1.968 . S
O347 C351 1.260 . S
O348 Zn332 1.969 1_565 S
O348 C351 1.258 . S
O349 Zn333 2.031 . S
O349 C336 1.058 . S
C350 O339 1.260 . S
C350 O340 1.258 . S
C351 O347 1.260 . S
C351 O348 1.258 . S
Zn352 O358 1.969 . S
Zn352 O359 1.965 . S
Zn352 O363 2.024 . S
Zn352 O368 1.969 . S
Zn353 O360 1.969 . S
Zn353 O366 1.969 . S
Zn353 O367 1.965 . S
Zn353 O369 2.024 . S
C354 O355 1.229 . S
C354 O363 1.058 . S
O355 C354 1.229 . S
C356 O357 1.229 . S
C356 O369 1.058 . S
O357 C356 1.229 . S
O358 Zn352 1.969 . S
O358 C361 1.267 . S
O359 Zn352 1.965 . S
O359 C370 1.260 . S
O360 Zn353 1.969 . S
O360 C370 1.258 . S
C361 O358 1.267 . S
C361 O362 1.228 . S
O362 C361 1.228 . S
O363 Zn352 2.024 . S
O363 C354 1.058 . S
C364 O365 1.228 . S
C364 O366 1.267 . S
O365 C364 1.228 . S
O366 Zn353 1.969 . S
O366 C364 1.267 . S
O367 Zn353 1.965 . S
O367 C371 1.260 . S
O368 Zn352 1.969 . S
O368 C371 1.258 . S
O369 Zn353 2.024 . S
O369 C356 1.058 . S
C370 O359 1.260 . S
C370 O360 1.258 . S
C371 O367 1.260 . S
C371 O368 1.258 . S
Zn372 O378 1.969 . S
Zn372 O379 1.965 . S
Zn372 O383 2.024 . S
Zn372 O388 1.969 . S
Zn373 O380 1.969 . S
Zn373 O386 1.969 . S
Zn373 O387 1.965 . S
Zn373 O389 2.024 . S
C374 O375 1.229 . S
C374 O383 1.058 . S
O375 C374 1.229 . S
C376 O377 1.229 . S
C376 O389 1.058 . S
O377 C376 1.229 . S
O378 Zn372 1.969 . S
O378 C381 1.267 . S
O379 Zn372 1.965 . S
O379 C390 1.260 1_455 S
O380 Zn373 1.969 . S
O380 C390 1.258 . S
C381 O378 1.267 . S
C381 O382 1.228 . S
O382 C381 1.228 . S
O383 Zn372 2.024 . S
O383 C374 1.058 . S
C384 O385 1.228 . S
C384 O386 1.267 . S
O385 C384 1.228 . S
O386 Zn373 1.969 . S
O386 C384 1.267 . S
O387 Zn373 1.965 . S
O387 C391 1.260 1_655 S
O388 Zn372 1.969 . S
O388 C391 1.258 . S
O389 Zn373 2.024 . S
O389 C376 1.058 . S
C390 O379 1.260 1_655 S
C390 O380 1.258 . S
C391 O387 1.260 1_455 S
C391 O388 1.258 . S
H392 C410 0.951 . S
H393 C412 0.951 . S
H394 C414 0.950 . S
H395 C415 0.950 . S
H396 C417 0.950 . S
H397 C420 0.950 . S
H398 C421 0.950 . S
H399 C423 0.950 . S
H400 C424 0.950 . S
H401 C425 0.951 . S
H402 C427 0.951 . S
H403 C429 0.950 . S
H404 C430 0.950 . S
H405 C432 0.950 . S
H406 C435 0.950 . S
H407 C436 0.950 . S
H408 C438 0.950 . S
H409 C439 0.950 . S
C410 H392 0.951 . S
C410 C411 1.366 . S
C410 C412 1.388 . S
C411 C410 1.366 . S
C411 C415 1.385 . S
C412 H393 0.951 . S
C412 C410 1.388 . S
C412 C413 1.366 . S
C413 C412 1.366 . S
C413 C414 1.414 . S
C413 C416 1.499 . S
C414 H394 0.950 . S
C414 C413 1.414 . S
C414 C415 1.374 . S
C415 H395 0.950 . S
C415 C411 1.385 . S
C415 C414 1.374 . S
C416 C413 1.499 . S
C416 C417 1.373 . S
C416 C418 1.389 . S
C417 H396 0.950 . S
C417 C416 1.373 . S
C417 C433 1.377 . S
C418 C416 1.389 . S
C418 C419 1.524 . S
C418 C432 1.377 . S
C419 C418 1.524 . S
C419 C420 1.397 . S
C419 C424 1.363 . S
C420 H397 0.950 . S
C420 C419 1.397 . S
C420 C421 1.334 . S
C421 H398 0.950 . S
C421 C420 1.334 . S
C421 C422 1.287 . S
C422 C421 1.287 . S
C422 C423 1.524 . S
C422 H441 0.913 . S
C423 H399 0.950 . S
C423 C422 1.524 . S
C423 C424 1.415 . S
C424 H400 0.950 . S
C424 C419 1.363 . S
C424 C423 1.415 . S
C425 H401 0.951 . S
C425 C426 1.366 . S
C425 C427 1.388 . S
C426 C425 1.366 . S
C426 C430 1.385 . S
C427 H402 0.951 . S
C427 C425 1.388 . S
C427 C428 1.366 . S
C428 C427 1.366 . S
C428 C429 1.414 . S
C428 C431 1.499 . S
C429 H403 0.950 . S
C429 C428 1.414 . S
C429 C430 1.374 . S
C430 H404 0.950 . S
C430 C426 1.385 . S
C430 C429 1.374 . S
C431 C428 1.499 . S
C431 C432 1.373 . S
C431 C433 1.389 . S
C432 H405 0.950 . S
C432 C418 1.377 . S
C432 C431 1.373 . S
C433 C417 1.377 . S
C433 C431 1.389 . S
C433 C434 1.524 . S
C434 C433 1.524 . S
C434 C435 1.397 . S
C434 C439 1.363 . S
C435 H406 0.950 . S
C435 C434 1.397 . S
C435 C436 1.334 . S
C436 H407 0.950 . S
C436 C435 1.334 . S
C436 C437 1.287 . S
C437 C436 1.287 . S
C437 C438 1.524 . S
C437 H440 0.999 . S
C438 H408 0.950 . S
C438 C437 1.524 . S
C438 C439 1.415 . S
C439 H409 0.950 . S
C439 C434 1.363 . S
C439 C438 1.415 . S
H440 C437 0.999 . S
H441 C422 0.913 . S
H442 C460 0.951 . S
H443 C462 0.951 . S
H444 C464 0.950 . S
H445 C465 0.950 . S
H446 C467 0.950 . S
H447 C470 0.950 . S
H448 C471 0.950 . S
H449 C473 0.950 . S
H450 C474 0.950 . S
H451 C475 0.951 . S
H452 C477 0.951 . S
H453 C479 0.950 . S
H454 C480 0.950 . S
H455 C482 0.950 . S
H456 C485 0.950 . S
H457 C486 0.950 . S
H458 C488 0.950 . S
H459 C489 0.950 . S
C460 H442 0.951 . S
C460 C461 1.366 . S
C460 C462 1.388 . S
C461 C460 1.366 . S
C461 C465 1.385 . S
C462 H443 0.951 . S
C462 C460 1.388 . S
C462 C463 1.366 . S
C463 C462 1.366 . S
C463 C464 1.414 . S
C463 C466 1.499 . S
C464 H444 0.950 . S
C464 C463 1.414 . S
C464 C465 1.374 . S
C465 H445 0.950 . S
C465 C461 1.385 . S
C465 C464 1.374 . S
C466 C463 1.499 . S
C466 C467 1.373 . S
C466 C468 1.389 . S
C467 H446 0.950 . S
C467 C466 1.373 . S
C467 C483 1.377 . S
C468 C466 1.389 . S
C468 C469 1.524 . S
C468 C482 1.377 . S
C469 C468 1.524 . S
C469 C470 1.397 . S
C469 C474 1.363 . S
C470 H447 0.950 . S
C470 C469 1.397 . S
C470 C471 1.334 . S
C471 H448 0.950 . S
C471 C470 1.334 . S
C471 C472 1.287 . S
C472 C471 1.287 . S
C472 C473 1.524 . S
C472 H491 0.913 . S
C473 H449 0.950 . S
C473 C472 1.524 . S
C473 C474 1.415 . S
C474 H450 0.950 . S
C474 C469 1.363 . S
C474 C473 1.415 . S
C475 H451 0.951 . S
C475 C476 1.366 . S
C475 C477 1.388 . S
C476 C475 1.366 . S
C476 C480 1.385 . S
C477 H452 0.951 . S
C477 C475 1.388 . S
C477 C478 1.366 . S
C478 C477 1.366 . S
C478 C479 1.414 . S
C478 C481 1.499 . S
C479 H453 0.950 . S
C479 C478 1.414 . S
C479 C480 1.374 . S
C480 H454 0.950 . S
C480 C476 1.385 . S
C480 C479 1.374 . S
C481 C478 1.499 . S
C481 C482 1.373 . S
C481 C483 1.389 . S
C482 H455 0.950 . S
C482 C468 1.377 . S
C482 C481 1.373 . S
C483 C467 1.377 . S
C483 C481 1.389 . S
C483 C484 1.524 . S
C484 C483 1.524 . S
C484 C485 1.397 . S
C484 C489 1.363 . S
C485 H456 0.950 . S
C485 C484 1.397 . S
C485 C486 1.334 . S
C486 H457 0.950 . S
C486 C485 1.334 . S
C486 C487 1.287 . S
C487 C486 1.287 . S
C487 C488 1.524 . S
C487 H490 0.999 . S
C488 H458 0.950 . S
C488 C487 1.524 . S
C488 C489 1.415 . S
C489 H459 0.950 . S
C489 C484 1.363 . S
C489 C488 1.415 . S
H490 C487 0.999 . S
H491 C472 0.913 . S
H492 C510 0.951 . S
H493 C512 0.951 . S
H494 C514 0.950 . S
H495 C515 0.950 . S
H496 C517 0.950 . S
H497 C520 0.950 . S
H498 C521 0.950 . S
H499 C523 0.950 . S
H500 C524 0.950 . S
H501 C525 0.951 . S
H502 C527 0.951 . S
H503 C529 0.950 . S
H504 C530 0.950 . S
H505 C532 0.950 . S
H506 C535 0.950 . S
H507 C536 0.950 . S
H508 C538 0.950 . S
H509 C539 0.950 . S
C510 H492 0.951 . S
C510 C511 1.366 . S
C510 C512 1.388 . S
C511 C510 1.366 . S
C511 C515 1.385 . S
C512 H493 0.951 . S
C512 C510 1.388 . S
C512 C513 1.366 . S
C513 C512 1.366 . S
C513 C514 1.414 . S
C513 C516 1.499 . S
C514 H494 0.950 . S
C514 C513 1.414 . S
C514 C515 1.374 . S
C515 H495 0.950 . S
C515 C511 1.385 . S
C515 C514 1.374 . S
C516 C513 1.499 . S
C516 C517 1.373 . S
C516 C518 1.389 . S
C517 H496 0.950 . S
C517 C516 1.373 . S
C517 C533 1.377 . S
C518 C516 1.389 . S
C518 C519 1.524 . S
C518 C532 1.377 . S
C519 C518 1.524 . S
C519 C520 1.397 . S
C519 C524 1.363 . S
C520 H497 0.950 . S
C520 C519 1.397 . S
C520 C521 1.334 . S
C521 H498 0.950 . S
C521 C520 1.334 . S
C521 C522 1.287 . S
C522 C521 1.287 . S
C522 C523 1.524 . S
C522 H541 0.913 . S
C523 H499 0.950 . S
C523 C522 1.524 . S
C523 C524 1.415 . S
C524 H500 0.950 . S
C524 C519 1.363 . S
C524 C523 1.415 . S
C525 H501 0.951 . S
C525 C526 1.366 . S
C525 C527 1.388 . S
C526 C525 1.366 . S
C526 C530 1.385 . S
C527 H502 0.951 . S
C527 C525 1.388 . S
C527 C528 1.366 . S
C528 C527 1.366 . S
C528 C529 1.414 . S
C528 C531 1.499 . S
C529 H503 0.950 . S
C529 C528 1.414 . S
C529 C530 1.374 . S
C530 H504 0.950 . S
C530 C526 1.385 . S
C530 C529 1.374 . S
C531 C528 1.499 . S
C531 C532 1.373 . S
C531 C533 1.389 . S
C532 H505 0.950 . S
C532 C518 1.377 . S
C532 C531 1.373 . S
C533 C517 1.377 . S
C533 C531 1.389 . S
C533 C534 1.524 . S
C534 C533 1.524 . S
C534 C535 1.397 . S
C534 C539 1.363 . S
C535 H506 0.950 . S
C535 C534 1.397 . S
C535 C536 1.334 . S
C536 H507 0.950 . S
C536 C535 1.334 . S
C536 C537 1.287 . S
C537 C536 1.287 . S
C537 C538 1.524 . S
C537 H540 0.999 . S
C538 H508 0.950 . S
C538 C537 1.524 . S
C538 C539 1.415 . S
C539 H509 0.950 . S
C539 C534 1.363 . S
C539 C538 1.415 . S
H540 C537 0.999 . S
H541 C522 0.913 . S
H542 C560 0.951 . S
H543 C562 0.951 . S
H544 C564 0.950 . S
H545 C565 0.950 . S
H546 C567 0.950 . S
H547 C570 0.950 . S
H548 C571 0.950 . S
H549 C573 0.950 . S
H550 C574 0.950 . S
H551 C575 0.951 . S
H552 C577 0.951 . S
H553 C579 0.950 . S
H554 C580 0.950 . S
H555 C582 0.950 . S
H556 C585 0.950 . S
H557 C586 0.950 . S
H558 C588 0.950 . S
H559 C589 0.950 . S
C560 H542 0.951 . S
C560 C561 1.367 . S
C560 C562 1.388 . S
C561 C560 1.367 . S
C561 C565 1.384 1_655 S
C562 H543 0.951 . S
C562 C560 1.388 . S
C562 C563 1.366 . S
C563 C562 1.366 . S
C563 C564 1.414 1_655 S
C563 C566 1.499 . S
C564 H544 0.950 . S
C564 C563 1.414 1_455 S
C564 C565 1.374 . S
C565 H545 0.950 . S
C565 C561 1.384 1_455 S
C565 C564 1.374 . S
C566 C563 1.499 . S
C566 C567 1.373 1_655 S
C566 C568 1.389 . S
C567 H546 0.950 . S
C567 C566 1.373 1_455 S
C567 C583 1.377 . S
C568 C566 1.389 . S
C568 C569 1.524 . S
C568 C582 1.377 . S
C569 C568 1.524 . S
C569 C570 1.397 . S
C569 C574 1.363 . S
C570 H547 0.950 . S
C570 C569 1.397 . S
C570 C571 1.334 . S
C571 H548 0.950 . S
C571 C570 1.334 . S
C571 C572 1.287 . S
C572 C571 1.287 . S
C572 C573 1.524 . S
C572 H591 0.913 . S
C573 H549 0.950 . S
C573 C572 1.524 . S
C573 C574 1.415 . S
C574 H550 0.950 . S
C574 C569 1.363 . S
C574 C573 1.415 . S
C575 H551 0.951 . S
C575 C576 1.366 1_455 S
C575 C577 1.388 . S
C576 C575 1.366 1_655 S
C576 C580 1.385 . S
C577 H552 0.951 . S
C577 C575 1.388 . S
C577 C578 1.366 1_455 S
C578 C577 1.366 1_655 S
C578 C579 1.414 . S
C578 C581 1.499 . S
C579 H553 0.950 . S
C579 C578 1.414 . S
C579 C580 1.374 . S
C580 H554 0.950 . S
C580 C576 1.385 . S
C580 C579 1.374 . S
C581 C578 1.499 . S
C581 C582 1.373 . S
C581 C583 1.389 1_655 S
C582 H555 0.950 . S
C582 C568 1.377 . S
C582 C581 1.373 . S
C583 C567 1.377 . S
C583 C581 1.389 1_455 S
C583 C584 1.524 . S
C584 C583 1.524 . S
C584 C585 1.397 . S
C584 C589 1.363 . S
C585 H556 0.950 . S
C585 C584 1.397 . S
C585 C586 1.334 . S
C586 H557 0.950 . S
C586 C585 1.334 . S
C586 C587 1.287 . S
C587 C586 1.287 . S
C587 C588 1.524 . S
C587 H590 0.999 . S
C588 H558 0.950 . S
C588 C587 1.524 . S
C588 C589 1.415 . S
C589 H559 0.950 . S
C589 C584 1.363 . S
C589 C588 1.415 . S
H590 C587 0.999 . S
H591 C572 0.913 . S
H592 C610 0.951 . S
H593 C612 0.951 . S
H594 C614 0.950 . S
H595 C615 0.950 . S
H596 C617 0.950 . S
H597 C620 0.950 . S
H598 C621 0.950 . S
H599 C623 0.950 . S
H600 C624 0.950 . S
H601 C625 0.951 . S
H602 C627 0.951 . S
H603 C629 0.950 . S
H604 C630 0.950 1_545 S
H605 C632 0.950 . S
H606 C635 0.924 1_545 S
H607 C636 0.950 . S
H608 C638 0.950 . S
H609 C639 0.950 . S
C610 H592 0.951 . S
C610 C611 1.366 . S
C610 C612 1.388 . S
C611 C610 1.366 . S
C611 C615 1.385 . S
C612 H593 0.951 . S
C612 C610 1.388 . S
C612 C613 1.366 . S
C613 C612 1.366 . S
C613 C614 1.414 . S
C613 C616 1.499 . S
C614 H594 0.950 . S
C614 C613 1.414 . S
C614 C615 1.374 . S
C615 H595 0.950 . S
C615 C611 1.385 . S
C615 C614 1.374 . S
C616 C613 1.499 . S
C616 C617 1.373 . S
C616 C618 1.389 . S
C617 H596 0.950 . S
C617 C616 1.373 . S
C617 C633 1.377 . S
C618 C616 1.389 . S
C618 C619 1.524 . S
C618 C632 1.377 . S
C619 C618 1.524 . S
C619 C620 1.397 . S
C619 C624 1.363 . S
C620 H597 0.950 . S
C620 C619 1.397 . S
C620 C621 1.334 . S
C621 H598 0.950 . S
C621 C620 1.334 . S
C621 C622 1.287 . S
C622 C621 1.287 . S
C622 C623 1.524 . S
C622 H641 0.913 . S
C623 H599 0.950 . S
C623 C622 1.524 . S
C623 C624 1.415 . S
C624 H600 0.950 . S
C624 C619 1.363 . S
C624 C623 1.415 . S
C625 H601 0.951 . S
C625 C626 1.366 . S
C625 C627 1.388 . S
C626 C625 1.366 . S
C626 C630 1.385 . S
C627 H602 0.951 . S
C627 C625 1.388 . S
C627 C628 1.366 . S
C628 C627 1.366 . S
C628 C629 1.414 . S
C628 C631 1.499 . S
C629 H603 0.950 . S
C629 C628 1.414 . S
C629 C630 1.374 . S
C630 H604 0.950 1_565 S
C630 C626 1.385 . S
C630 C629 1.374 . S
C631 C628 1.499 . S
C631 C632 1.373 . S
C631 C633 1.389 . S
C632 H605 0.950 . S
C632 C618 1.377 . S
C632 C631 1.373 . S
C633 C617 1.377 . S
C633 C631 1.389 . S
C633 C634 1.524 . S
C634 C633 1.524 . S
C634 C635 1.452 . S
C634 C639 1.363 . S
C635 H606 0.924 1_565 S
C635 C634 1.452 . S
C635 C636 1.306 1_565 S
C636 H607 0.950 . S
C636 C635 1.306 1_545 S
C636 C637 1.285 1_545 S
C637 C636 1.285 1_565 S
C637 C638 1.527 . S
C637 H640 0.998 1_565 S
C638 H608 0.950 . S
C638 C637 1.527 . S
C638 C639 1.415 . S
C639 H609 0.950 . S
C639 C634 1.363 . S
C639 C638 1.415 . S
H640 C637 0.998 1_545 S
H641 C622 0.913 . S
H642 C660 0.951 . S
H643 C662 0.951 . S
H644 C664 0.950 . S
H645 C665 0.950 . S
H646 C667 0.950 . S
H647 C670 0.950 . S
H648 C671 0.950 . S
H649 C673 0.950 . S
H650 C674 0.950 . S
H651 C675 0.951 . S
H652 C677 0.951 . S
H653 C679 0.950 . S
H654 C680 0.950 . S
H655 C682 0.950 . S
H656 C685 0.950 . S
H657 C686 0.950 . S
H658 C688 0.950 . S
H659 C689 0.950 . S
C660 H642 0.951 . S
C660 C661 1.366 . S
C660 C662 1.388 . S
C661 C660 1.366 . S
C661 C665 1.385 . S
C662 H643 0.951 . S
C662 C660 1.388 . S
C662 C663 1.366 . S
C663 C662 1.366 . S
C663 C664 1.414 . S
C663 C666 1.499 . S
C664 H644 0.950 . S
C664 C663 1.414 . S
C664 C665 1.374 . S
C665 H645 0.950 . S
C665 C661 1.385 . S
C665 C664 1.374 . S
C666 C663 1.499 . S
C666 C667 1.373 . S
C666 C668 1.389 . S
C667 H646 0.950 . S
C667 C666 1.373 . S
C667 C683 1.377 . S
C668 C666 1.389 . S
C668 C669 1.524 . S
C668 C682 1.377 . S
C669 C668 1.524 . S
C669 C670 1.397 . S
C669 C674 1.363 . S
C670 H647 0.950 . S
C670 C669 1.397 . S
C670 C671 1.334 . S
C671 H648 0.950 . S
C671 C670 1.334 . S
C671 C672 1.287 . S
C672 C671 1.287 . S
C672 C673 1.524 . S
C672 H691 0.913 . S
C673 H649 0.950 . S
C673 C672 1.524 . S
C673 C674 1.415 . S
C674 H650 0.950 . S
C674 C669 1.363 . S
C674 C673 1.415 . S
C675 H651 0.951 . S
C675 C676 1.366 . S
C675 C677 1.388 . S
C676 C675 1.366 . S
C676 C680 1.385 . S
C677 H652 0.951 . S
C677 C675 1.388 . S
C677 C678 1.366 . S
C678 C677 1.366 . S
C678 C679 1.414 . S
C678 C681 1.499 . S
C679 H653 0.950 . S
C679 C678 1.414 . S
C679 C680 1.374 . S
C680 H654 0.950 . S
C680 C676 1.385 . S
C680 C679 1.374 . S
C681 C678 1.499 . S
C681 C682 1.373 . S
C681 C683 1.389 . S
C682 H655 0.950 . S
C682 C668 1.377 . S
C682 C681 1.373 . S
C683 C667 1.377 . S
C683 C681 1.389 . S
C683 C684 1.524 . S
C684 C683 1.524 . S
C684 C685 1.397 . S
C684 C689 1.363 . S
C685 H656 0.950 . S
C685 C684 1.397 . S
C685 C686 1.334 . S
C686 H657 0.950 . S
C686 C685 1.334 . S
C686 C687 1.287 . S
C687 C686 1.287 . S
C687 C688 1.524 . S
C687 H690 0.999 . S
C688 H658 0.950 . S
C688 C687 1.524 . S
C688 C689 1.415 . S
C689 H659 0.950 . S
C689 C684 1.363 . S
C689 C688 1.415 . S
H690 C687 0.999 . S
H691 C672 0.913 . S
H692 C710 0.951 . S
H693 C712 0.951 . S
H694 C714 0.950 . S
H695 C715 0.950 . S
H696 C717 0.950 . S
H697 C720 0.950 . S
H698 C721 0.950 . S
H699 C723 0.950 . S
H700 C724 0.950 . S
H701 C725 0.951 . S
H702 C727 0.951 . S
H703 C729 0.950 . S
H704 C730 0.950 . S
H705 C732 0.950 . S
H706 C735 0.950 . S
H707 C736 0.950 . S
H708 C738 0.950 . S
H709 C739 0.950 . S
C710 H692 0.951 . S
C710 C711 1.366 . S
C710 C712 1.388 . S
C711 C710 1.366 . S
C711 C715 1.385 . S
C712 H693 0.951 . S
C712 C710 1.388 . S
C712 C713 1.366 . S
C713 C712 1.366 . S
C713 C714 1.414 . S
C713 C716 1.499 . S
C714 H694 0.950 . S
C714 C713 1.414 . S
C714 C715 1.374 . S
C715 H695 0.950 . S
C715 C711 1.385 . S
C715 C714 1.374 . S
C716 C713 1.499 . S
C716 C717 1.373 . S
C716 C718 1.389 . S
C717 H696 0.950 . S
C717 C716 1.373 . S
C717 C733 1.377 . S
C718 C716 1.389 . S
C718 C719 1.524 . S
C718 C732 1.377 . S
C719 C718 1.524 . S
C719 C720 1.397 . S
C719 C724 1.363 . S
C720 H697 0.950 . S
C720 C719 1.397 . S
C720 C721 1.334 . S
C721 H698 0.950 . S
C721 C720 1.334 . S
C721 C722 1.287 . S
C722 C721 1.287 . S
C722 C723 1.524 . S
C722 H741 0.913 . S
C723 H699 0.950 . S
C723 C722 1.524 . S
C723 C724 1.415 . S
C724 H700 0.950 . S
C724 C719 1.363 . S
C724 C723 1.415 . S
C725 H701 0.951 . S
C725 C726 1.366 . S
C725 C727 1.388 . S
C726 C725 1.366 . S
C726 C730 1.385 . S
C727 H702 0.951 . S
C727 C725 1.388 . S
C727 C728 1.366 . S
C728 C727 1.366 . S
C728 C729 1.414 . S
C728 C731 1.499 . S
C729 H703 0.950 . S
C729 C728 1.414 . S
C729 C730 1.374 . S
C730 H704 0.950 . S
C730 C726 1.385 . S
C730 C729 1.374 . S
C731 C728 1.499 . S
C731 C732 1.373 . S
C731 C733 1.389 . S
C732 H705 0.950 . S
C732 C718 1.377 . S
C732 C731 1.373 . S
C733 C717 1.377 . S
C733 C731 1.389 . S
C733 C734 1.524 . S
C734 C733 1.524 . S
C734 C735 1.397 . S
C734 C739 1.363 . S
C735 H706 0.950 . S
C735 C734 1.397 . S
C735 C736 1.334 . S
C736 H707 0.950 . S
C736 C735 1.334 . S
C736 C737 1.287 . S
C737 C736 1.287 . S
C737 C738 1.524 . S
C737 H740 0.999 . S
C738 H708 0.950 . S
C738 C737 1.524 . S
C738 C739 1.415 . S
C739 H709 0.950 . S
C739 C734 1.363 . S
C739 C738 1.415 . S
H740 C737 0.999 . S
H741 C722 0.913 . S
H742 C760 0.951 . S
H743 C762 0.951 . S
H744 C764 0.950 . S
H745 C765 0.950 . S
H746 C767 0.950 . S
H747 C770 0.950 . S
H748 C771 0.950 . S
H749 C773 0.950 . S
H750 C774 0.950 . S
H751 C775 0.951 . S
H752 C777 0.951 . S
H753 C779 0.950 . S
H754 C780 0.950 . S
H755 C782 0.950 . S
H756 C785 0.950 . S
H757 C786 0.950 . S
H758 C788 0.950 . S
H759 C789 0.950 . S
C760 H742 0.951 . S
C760 C761 1.367 . S
C760 C762 1.388 . S
C761 C760 1.367 . S
C761 C765 1.383 1_455 S
C762 H743 0.951 . S
C762 C760 1.388 . S
C762 C763 1.366 . S
C763 C762 1.366 . S
C763 C764 1.414 1_455 S
C763 C766 1.499 . S
C764 H744 0.950 . S
C764 C763 1.414 1_655 S
C764 C765 1.374 . S
C765 H745 0.950 . S
C765 C761 1.383 1_655 S
C765 C764 1.374 . S
C766 C763 1.499 . S
C766 C767 1.373 1_455 S
C766 C768 1.389 . S
C767 H746 0.950 . S
C767 C766 1.373 1_655 S
C767 C783 1.377 . S
C768 C766 1.389 . S
C768 C769 1.524 . S
C768 C782 1.377 . S
C769 C768 1.524 . S
C769 C770 1.397 . S
C769 C774 1.363 . S
C770 H747 0.950 . S
C770 C769 1.397 . S
C770 C771 1.334 . S
C771 H748 0.950 . S
C771 C770 1.334 . S
C771 C772 1.287 . S
C772 C771 1.287 . S
C772 C773 1.524 . S
C772 H791 0.913 . S
C773 H749 0.950 . S
C773 C772 1.524 . S
C773 C774 1.415 . S
C774 H750 0.950 . S
C774 C769 1.363 . S
C774 C773 1.415 . S
C775 H751 0.951 . S
C775 C776 1.366 1_655 S
C775 C777 1.388 . S
C776 C775 1.366 1_455 S
C776 C780 1.385 . S
C777 H752 0.951 . S
C777 C775 1.388 . S
C777 C778 1.366 1_655 S
C778 C777 1.366 1_455 S
C778 C779 1.414 . S
C778 C781 1.499 . S
C779 H753 0.950 . S
C779 C778 1.414 . S
C779 C780 1.374 . S
C780 H754 0.950 . S
C780 C776 1.385 . S
C780 C779 1.374 . S
C781 C778 1.499 . S
C781 C782 1.373 . S
C781 C783 1.389 1_455 S
C782 H755 0.950 . S
C782 C768 1.377 . S
C782 C781 1.373 . S
C783 C767 1.377 . S
C783 C781 1.389 1_655 S
C783 C784 1.524 . S
C784 C783 1.524 . S
C784 C785 1.397 . S
C784 C789 1.363 . S
C785 H756 0.950 . S
C785 C784 1.397 . S
C785 C786 1.334 . S
C786 H757 0.950 . S
C786 C785 1.334 . S
C786 C787 1.287 . S
C787 C786 1.287 . S
C787 C788 1.524 . S
C787 H790 0.999 . S
C788 H758 0.950 . S
C788 C787 1.524 . S
C788 C789 1.415 . S
C789 H759 0.950 . S
C789 C784 1.363 . S
C789 C788 1.415 . S
H790 C787 0.999 . S
H791 C772 0.913 . S
H792 C810 0.951 . S
H793 C812 0.951 . S
H794 C814 0.950 . S
H795 C815 0.950 . S
H796 C817 0.950 . S
H797 C820 0.950 . S
H798 C821 0.950 . S
H799 C823 0.950 . S
H800 C824 0.950 . S
H801 C825 0.981 . S
H802 C827 0.951 . S
H803 C829 0.950 . S
H804 C830 0.950 . S
H805 C832 0.950 . S
H806 C835 0.950 . S
H807 C836 0.950 . S
H808 C838 0.950 . S
H809 C839 0.950 . S
C810 H792 0.951 . S
C810 C811 1.336 1_655 S
C810 C812 1.388 . S
C811 C810 1.336 1_455 S
C811 C815 1.412 . S
C812 H793 0.951 . S
C812 C810 1.388 . S
C812 C813 1.366 . S
C813 C812 1.366 . S
C813 C814 1.414 1_655 S
C813 C816 1.499 . S
C814 H794 0.950 . S
C814 C813 1.414 1_455 S
C814 C815 1.374 . S
C815 H795 0.950 . S
C815 C811 1.412 . S
C815 C814 1.374 . S
C816 C813 1.499 . S
C816 C817 1.373 1_655 S
C816 C818 1.389 . S
C817 H796 0.950 . S
C817 C816 1.373 1_455 S
C817 C833 1.377 . S
C818 C816 1.389 . S
C818 C819 1.524 . S
C818 C832 1.377 . S
C819 C818 1.524 . S
C819 C820 1.397 . S
C819 C824 1.363 . S
C820 H797 0.950 . S
C820 C819 1.397 . S
C820 C821 1.334 . S
C821 H798 0.950 . S
C821 C820 1.334 . S
C821 C822 1.287 . S
C822 C821 1.287 . S
C822 C823 1.524 . S
C822 H841 0.913 . S
C823 H799 0.950 . S
C823 C822 1.524 . S
C823 C824 1.415 . S
C824 H800 0.950 . S
C824 C819 1.363 . S
C824 C823 1.415 . S
C825 H801 0.981 . S
C825 C826 1.333 1_455 S
C825 C827 1.393 . S
C826 C825 1.333 1_655 S
C826 C830 1.385 . S
C827 H802 0.951 . S
C827 C825 1.393 . S
C827 C828 1.366 1_455 S
C828 C827 1.366 1_655 S
C828 C829 1.414 . S
C828 C831 1.499 . S
C829 H803 0.950 . S
C829 C828 1.414 . S
C829 C830 1.374 . S
C830 H804 0.950 . S
C830 C826 1.385 . S
C830 C829 1.374 . S
C831 C828 1.499 . S
C831 C832 1.373 . S
C831 C833 1.389 1_655 S
C832 H805 0.950 . S
C832 C818 1.377 . S
C832 C831 1.373 . S
C833 C817 1.377 . S
C833 C831 1.389 1_455 S
C833 C834 1.524 . S
C834 C833 1.524 . S
C834 C835 1.397 . S
C834 C839 1.363 . S
C835 H806 0.950 . S
C835 C834 1.397 . S
C835 C836 1.334 . S
C836 H807 0.950 . S
C836 C835 1.334 . S
C836 C837 1.287 . S
C837 C836 1.287 . S
C837 C838 1.524 . S
C837 H840 0.999 . S
C838 H808 0.950 . S
C838 C837 1.524 . S
C838 C839 1.415 . S
C839 H809 0.950 . S
C839 C834 1.363 . S
C839 C838 1.415 . S
H840 C837 0.999 . S
H841 C822 0.913 . S
H842 C860 0.951 . S
H843 C862 0.951 . S
H844 C864 0.950 . S
H845 C865 0.950 . S
H846 C867 0.950 . S
H847 C870 0.950 . S
H848 C871 0.950 . S
H849 C873 0.950 . S
H850 C874 0.950 . S
H851 C875 0.951 . S
H852 C877 0.951 . S
H853 C879 0.950 . S
H854 C880 0.950 . S
H855 C882 0.950 . S
H856 C885 0.955 . S
H857 C886 0.950 . S
H858 C888 0.950 . S
H859 C889 0.950 . S
C860 H842 0.951 . S
C860 C861 1.366 . S
C860 C862 1.388 . S
C861 C860 1.366 . S
C861 C865 1.385 . S
C862 H843 0.951 . S
C862 C860 1.388 . S
C862 C863 1.366 . S
C863 C862 1.366 . S
C863 C864 1.414 . S
C863 C866 1.499 . S
C864 H844 0.950 . S
C864 C863 1.414 . S
C864 C865 1.374 . S
C865 H845 0.950 . S
C865 C861 1.385 . S
C865 C864 1.374 . S
C866 C863 1.499 . S
C866 C867 1.373 . S
C866 C868 1.389 . S
C867 H846 0.950 . S
C867 C866 1.373 . S
C867 C883 1.377 . S
C868 C866 1.389 . S
C868 C869 1.524 . S
C868 C882 1.377 . S
C869 C868 1.524 . S
C869 C870 1.397 . S
C869 C874 1.363 . S
C870 H847 0.950 . S
C870 C869 1.397 . S
C870 C871 1.334 . S
C871 H848 0.950 . S
C871 C870 1.334 . S
C871 C872 1.287 . S
C872 C871 1.287 . S
C872 C873 1.524 . S
C872 H891 0.913 . S
C873 H849 0.950 . S
C873 C872 1.524 . S
C873 C874 1.415 . S
C874 H850 0.950 . S
C874 C869 1.363 . S
C874 C873 1.415 . S
C875 H851 0.951 . S
C875 C876 1.366 . S
C875 C877 1.388 . S
C876 C875 1.366 . S
C876 C880 1.385 . S
C877 H852 0.951 . S
C877 C875 1.388 . S
C877 C878 1.366 . S
C878 C877 1.366 . S
C878 C879 1.414 . S
C878 C881 1.499 . S
C879 H853 0.950 . S
C879 C878 1.414 . S
C879 C880 1.374 . S
C880 H854 0.950 . S
C880 C876 1.385 . S
C880 C879 1.374 . S
C881 C878 1.499 . S
C881 C882 1.373 . S
C881 C883 1.389 . S
C882 H855 0.950 . S
C882 C868 1.377 . S
C882 C881 1.373 . S
C883 C867 1.377 . S
C883 C881 1.389 . S
C883 C884 1.524 . S
C884 C883 1.524 . S
C884 C885 1.397 . S
C884 C889 1.363 . S
C885 H856 0.955 . S
C885 C884 1.397 . S
C885 C886 1.334 1_545 S
C886 H857 0.950 . S
C886 C885 1.334 1_565 S
C886 C887 1.287 . S
C887 C886 1.287 . S
C887 C888 1.524 1_565 S
C887 H890 0.999 . S
C888 H858 0.950 . S
C888 C887 1.524 1_545 S
C888 C889 1.415 . S
C889 H859 0.950 . S
C889 C884 1.363 . S
C889 C888 1.415 . S
H890 C887 0.999 . S
H891 C872 0.913 . S
H892 C910 0.951 . S
H893 C912 0.951 . S
H894 C914 0.950 . S
H895 C915 0.950 . S
H896 C917 0.950 . S
H897 C920 0.950 . S
H898 C921 0.950 . S
H899 C923 0.950 . S
H900 C924 0.950 . S
H901 C925 0.951 . S
H902 C927 0.951 . S
H903 C929 0.950 . S
H904 C930 0.950 . S
H905 C932 0.950 . S
H906 C935 0.950 . S
H907 C936 0.950 . S
H908 C938 0.950 . S
H909 C939 0.950 . S
C910 H892 0.951 . S
C910 C911 1.366 . S
C910 C912 1.388 . S
C911 C910 1.366 . S
C911 C915 1.385 . S
C912 H893 0.951 . S
C912 C910 1.388 . S
C912 C913 1.366 . S
C913 C912 1.366 . S
C913 C914 1.414 . S
C913 C916 1.499 . S
C914 H894 0.950 . S
C914 C913 1.414 . S
C914 C915 1.374 . S
C915 H895 0.950 . S
C915 C911 1.385 . S
C915 C914 1.374 . S
C916 C913 1.499 . S
C916 C917 1.373 . S
C916 C918 1.389 . S
C917 H896 0.950 . S
C917 C916 1.373 . S
C917 C933 1.377 . S
C918 C916 1.389 . S
C918 C919 1.524 . S
C918 C932 1.377 . S
C919 C918 1.524 . S
C919 C920 1.397 . S
C919 C924 1.363 . S
C920 H897 0.950 . S
C920 C919 1.397 . S
C920 C921 1.334 . S
C921 H898 0.950 . S
C921 C920 1.334 . S
C921 C922 1.287 . S
C922 C921 1.287 . S
C922 C923 1.524 . S
C922 H941 0.913 . S
C923 H899 0.950 . S
C923 C922 1.524 . S
C923 C924 1.415 . S
C924 H900 0.950 . S
C924 C919 1.363 . S
C924 C923 1.415 . S
C925 H901 0.951 . S
C925 C926 1.366 . S
C925 C927 1.388 . S
C926 C925 1.366 . S
C926 C930 1.385 . S
C927 H902 0.951 . S
C927 C925 1.388 . S
C927 C928 1.366 . S
C928 C927 1.366 . S
C928 C929 1.414 . S
C928 C931 1.499 . S
C929 H903 0.950 . S
C929 C928 1.414 . S
C929 C930 1.374 . S
C930 H904 0.950 . S
C930 C926 1.385 . S
C930 C929 1.374 . S
C931 C928 1.499 . S
C931 C932 1.373 . S
C931 C933 1.389 . S
C932 H905 0.950 . S
C932 C918 1.377 . S
C932 C931 1.373 . S
C933 C917 1.377 . S
C933 C931 1.389 . S
C933 C934 1.524 . S
C934 C933 1.524 . S
C934 C935 1.397 . S
C934 C939 1.363 . S
C935 H906 0.950 . S
C935 C934 1.397 . S
C935 C936 1.334 . S
C936 H907 0.950 . S
C936 C935 1.334 . S
C936 C937 1.287 . S
C937 C936 1.287 . S
C937 C938 1.524 . S
C937 H940 0.999 . S
C938 H908 0.950 . S
C938 C937 1.524 . S
C938 C939 1.415 . S
C939 H909 0.950 . S
C939 C934 1.363 . S
C939 C938 1.415 . S
H940 C937 0.999 . S
H941 C922 0.913 . S
H942 C960 0.951 . S
H943 C962 0.951 . S
H944 C964 0.950 . S
H945 C965 0.950 . S
H946 C967 0.950 . S
H947 C970 0.950 . S
H948 C971 0.950 . S
H949 C973 0.950 . S
H950 C974 0.950 . S
H951 C975 0.951 . S
H952 C977 0.951 . S
H953 C979 0.950 . S
H954 C980 0.950 . S
H955 C982 0.950 . S
H956 C985 0.950 . S
H957 C986 0.950 . S
H958 C988 0.950 . S
H959 C989 0.950 . S
C960 H942 0.951 . S
C960 C961 1.366 . S
C960 C962 1.388 . S
C961 C960 1.366 . S
C961 C965 1.385 . S
C962 H943 0.951 . S
C962 C960 1.388 . S
C962 C963 1.366 . S
C963 C962 1.366 . S
C963 C964 1.414 . S
C963 C966 1.499 . S
C964 H944 0.950 . S
C964 C963 1.414 . S
C964 C965 1.374 . S
C965 H945 0.950 . S
C965 C961 1.385 . S
C965 C964 1.374 . S
C966 C963 1.499 . S
C966 C967 1.373 . S
C966 C968 1.389 . S
C967 H946 0.950 . S
C967 C966 1.373 . S
C967 C983 1.377 . S
C968 C966 1.389 . S
C968 C969 1.524 . S
C968 C982 1.377 . S
C969 C968 1.524 . S
C969 C970 1.397 . S
C969 C974 1.363 . S
C970 H947 0.950 . S
C970 C969 1.397 . S
C970 C971 1.334 . S
C971 H948 0.950 . S
C971 C970 1.334 . S
C971 C972 1.287 . S
C972 C971 1.287 . S
C972 C973 1.524 . S
C972 H991 0.913 . S
C973 H949 0.950 . S
C973 C972 1.524 . S
C973 C974 1.415 . S
C974 H950 0.950 . S
C974 C969 1.363 . S
C974 C973 1.415 . S
C975 H951 0.951 . S
C975 C976 1.366 . S
C975 C977 1.388 . S
C976 C975 1.366 . S
C976 C980 1.385 . S
C977 H952 0.951 . S
C977 C975 1.388 . S
C977 C978 1.366 . S
C978 C977 1.366 . S
C978 C979 1.414 . S
C978 C981 1.499 . S
C979 H953 0.950 . S
C979 C978 1.414 . S
C979 C980 1.374 . S
C980 H954 0.950 . S
C980 C976 1.385 . S
C980 C979 1.374 . S
C981 C978 1.499 . S
C981 C982 1.373 . S
C981 C983 1.389 . S
C982 H955 0.950 . S
C982 C968 1.377 . S
C982 C981 1.373 . S
C983 C967 1.377 . S
C983 C981 1.389 . S
C983 C984 1.524 . S
C984 C983 1.524 . S
C984 C985 1.397 . S
C984 C989 1.363 . S
C985 H956 0.950 . S
C985 C984 1.397 . S
C985 C986 1.334 . S
C986 H957 0.950 . S
C986 C985 1.334 . S
C986 C987 1.287 . S
C987 C986 1.287 . S
C987 C988 1.524 . S
C987 H990 0.999 . S
C988 H958 0.950 . S
C988 C987 1.524 . S
C988 C989 1.415 . S
C989 H959 0.950 . S
C989 C984 1.363 . S
C989 C988 1.415 . S
H990 C987 0.999 . S
H991 C972 0.913 . S
H992 C1010 0.951 . S
H993 C1012 0.951 . S
H994 C1014 0.950 . S
H995 C1015 0.950 . S
H996 C1017 0.950 . S
H997 C1020 0.950 . S
H998 C1021 0.950 . S
H999 C1023 0.950 . S
H1000 C1024 0.950 . S
H1001 C1025 0.949 1_655 S
H1002 C1027 0.951 . S
H1003 C1029 0.950 . S
H1004 C1030 0.950 . S
H1005 C1032 0.950 . S
H1006 C1035 0.950 . S
H1007 C1036 0.950 . S
H1008 C1038 0.950 . S
H1009 C1039 0.950 . S
C1010 H992 0.951 . S
C1010 C1011 1.338 1_455 S
C1010 C1012 1.388 . S
C1011 C1010 1.338 1_655 S
C1011 C1015 1.410 . S
C1012 H993 0.951 . S
C1012 C1010 1.388 . S
C1012 C1013 1.366 . S
C1013 C1012 1.366 . S
C1013 C1014 1.414 1_455 S
C1013 C1016 1.499 . S
C1014 H994 0.950 . S
C1014 C1013 1.414 1_655 S
C1014 C1015 1.374 . S
C1015 H995 0.950 . S
C1015 C1011 1.410 . S
C1015 C1014 1.374 . S
C1016 C1013 1.499 . S
C1016 C1017 1.373 1_455 S
C1016 C1018 1.389 . S
C1017 H996 0.950 . S
C1017 C1016 1.373 1_655 S
C1017 C1033 1.377 . S
C1018 C1016 1.389 . S
C1018 C1019 1.524 . S
C1018 C1032 1.377 . S
C1019 C1018 1.524 . S
C1019 C1020 1.397 . S
C1019 C1024 1.363 . S
C1020 H997 0.950 . S
C1020 C1019 1.397 . S
C1020 C1021 1.334 . S
C1021 H998 0.950 . S
C1021 C1020 1.334 . S
C1021 C1022 1.287 . S
C1022 C1021 1.287 . S
C1022 C1023 1.524 . S
C1022 H1041 0.913 . S
C1023 H999 0.950 . S
C1023 C1022 1.524 . S
C1023 C1024 1.415 . S
C1024 H1000 0.950 . S
C1024 C1019 1.363 . S
C1024 C1023 1.415 . S
C1025 H1001 0.949 1_455 S
C1025 C1026 1.368 . S
C1025 C1027 1.388 1_455 S
C1026 C1025 1.368 . S
C1026 C1030 1.385 . S
C1027 H1002 0.951 . S
C1027 C1025 1.388 1_655 S
C1027 C1028 1.366 1_655 S
C1028 C1027 1.366 1_455 S
C1028 C1029 1.414 . S
C1028 C1031 1.499 . S
C1029 H1003 0.950 . S
C1029 C1028 1.414 . S
C1029 C1030 1.374 . S
C1030 H1004 0.950 . S
C1030 C1026 1.385 . S
C1030 C1029 1.374 . S
C1031 C1028 1.499 . S
C1031 C1032 1.373 . S
C1031 C1033 1.389 1_455 S
C1032 H1005 0.950 . S
C1032 C1018 1.377 . S
C1032 C1031 1.373 . S
C1033 C1017 1.377 . S
C1033 C1031 1.389 1_655 S
C1033 C1034 1.524 . S
C1034 C1033 1.524 . S
C1034 C1035 1.397 . S
C1034 C1039 1.363 . S
C1035 H1006 0.950 . S
C1035 C1034 1.397 . S
C1035 C1036 1.334 . S
C1036 H1007 0.950 . S
C1036 C1035 1.334 . S
C1036 C1037 1.287 . S
C1037 C1036 1.287 . S
C1037 C1038 1.524 . S
C1037 H1040 0.999 . S
C1038 H1008 0.950 . S
C1038 C1037 1.524 . S
C1038 C1039 1.415 . S
C1039 H1009 0.950 . S
C1039 C1034 1.363 . S
C1039 C1038 1.415 . S
H1040 C1037 0.999 . S
H1041 C1022 0.913 . S
H1042 C1060 0.951 . S
H1043 C1062 0.951 . S
H1044 C1064 0.950 . S
H1045 C1065 0.950 . S
H1046 C1067 0.950 . S
H1047 C1070 0.950 . S
H1048 C1071 0.950 . S
H1049 C1073 0.950 . S
H1050 C1074 0.950 . S
H1051 C1075 0.951 . S
H1052 C1077 0.951 . S
H1053 C1079 0.950 . S
H1054 C1080 0.950 . S
H1055 C1082 0.950 . S
H1056 C1085 0.950 . S
H1057 C1086 0.950 . S
H1058 C1088 0.950 . S
H1059 C1089 0.950 . S
C1060 H1042 0.951 . S
C1060 C1061 1.366 . S
C1060 C1062 1.388 . S
C1061 C1060 1.366 . S
C1061 C1065 1.385 . S
C1062 H1043 0.951 . S
C1062 C1060 1.388 . S
C1062 C1063 1.366 . S
C1063 C1062 1.366 . S
C1063 C1064 1.414 . S
C1063 C1066 1.499 . S
C1064 H1044 0.950 . S
C1064 C1063 1.414 . S
C1064 C1065 1.374 . S
C1065 H1045 0.950 . S
C1065 C1061 1.385 . S
C1065 C1064 1.374 . S
C1066 C1063 1.499 . S
C1066 C1067 1.373 . S
C1066 C1068 1.389 . S
C1067 H1046 0.950 . S
C1067 C1066 1.373 . S
C1067 C1083 1.377 . S
C1068 C1066 1.389 . S
C1068 C1069 1.524 . S
C1068 C1082 1.377 . S
C1069 C1068 1.524 . S
C1069 C1070 1.397 . S
C1069 C1074 1.363 . S
C1070 H1047 0.950 . S
C1070 C1069 1.397 . S
C1070 C1071 1.334 . S
C1071 H1048 0.950 . S
C1071 C1070 1.334 . S
C1071 C1072 1.287 . S
C1072 C1071 1.287 . S
C1072 C1073 1.524 . S
C1072 H1091 0.913 . S
C1073 H1049 0.950 . S
C1073 C1072 1.524 . S
C1073 C1074 1.415 . S
C1074 H1050 0.950 . S
C1074 C1069 1.363 . S
C1074 C1073 1.415 . S
C1075 H1051 0.951 . S
C1075 C1076 1.366 1_545 S
C1075 C1077 1.388 1_545 S
C1076 C1075 1.366 1_565 S
C1076 C1080 1.385 . S
C1077 H1052 0.951 . S
C1077 C1075 1.388 1_565 S
C1077 C1078 1.366 . S
C1078 C1077 1.366 . S
C1078 C1079 1.414 . S
C1078 C1081 1.499 . S
C1079 H1053 0.950 . S
C1079 C1078 1.414 . S
C1079 C1080 1.374 . S
C1080 H1054 0.950 . S
C1080 C1076 1.385 . S
C1080 C1079 1.374 . S
C1081 C1078 1.499 . S
C1081 C1082 1.373 . S
C1081 C1083 1.389 . S
C1082 H1055 0.950 . S
C1082 C1068 1.377 . S
C1082 C1081 1.373 . S
C1083 C1067 1.377 . S
C1083 C1081 1.389 . S
C1083 C1084 1.524 1_565 S
C1084 C1083 1.524 1_545 S
C1084 C1085 1.397 . S
C1084 C1089 1.363 . S
C1085 H1056 0.950 . S
C1085 C1084 1.397 . S
C1085 C1086 1.334 . S
C1086 H1057 0.950 . S
C1086 C1085 1.334 . S
C1086 C1087 1.287 . S
C1087 C1086 1.287 . S
C1087 C1088 1.524 . S
C1087 H1090 0.999 . S
C1088 H1058 0.950 . S
C1088 C1087 1.524 . S
C1088 C1089 1.415 . S
C1089 H1059 0.950 . S
C1089 C1084 1.363 . S
C1089 C1088 1.415 . S
H1090 C1087 0.999 . S
H1091 C1072 0.913 . S
H1092 C1110 0.951 . S
H1093 C1112 0.951 . S
H1094 C1114 0.950 . S
H1095 C1115 0.950 . S
H1096 C1117 0.950 . S
H1097 C1120 0.950 . S
H1098 C1121 0.950 . S
H1099 C1123 0.950 . S
H1100 C1124 0.950 . S
H1101 C1125 0.951 . S
H1102 C1127 0.951 . S
H1103 C1129 0.950 . S
H1104 C1130 0.950 . S
H1105 C1132 0.950 . S
H1106 C1135 0.950 . S
H1107 C1136 0.950 . S
H1108 C1138 0.950 . S
H1109 C1139 0.950 . S
C1110 H1092 0.951 . S
C1110 C1111 1.366 . S
C1110 C1112 1.388 . S
C1111 C1110 1.366 . S
C1111 C1115 1.385 . S
C1112 H1093 0.951 . S
C1112 C1110 1.388 . S
C1112 C1113 1.366 . S
C1113 C1112 1.366 . S
C1113 C1114 1.414 . S
C1113 C1116 1.499 . S
C1114 H1094 0.950 . S
C1114 C1113 1.414 . S
C1114 C1115 1.374 . S
C1115 H1095 0.950 . S
C1115 C1111 1.385 . S
C1115 C1114 1.374 . S
C1116 C1113 1.499 . S
C1116 C1117 1.373 . S
C1116 C1118 1.389 . S
C1117 H1096 0.950 . S
C1117 C1116 1.373 . S
C1117 C1133 1.377 . S
C1118 C1116 1.389 . S
C1118 C1119 1.524 . S
C1118 C1132 1.377 . S
C1119 C1118 1.524 . S
C1119 C1120 1.397 . S
C1119 C1124 1.363 . S
C1120 H1097 0.950 . S
C1120 C1119 1.397 . S
C1120 C1121 1.334 . S
C1121 H1098 0.950 . S
C1121 C1120 1.334 . S
C1121 C1122 1.287 . S
C1122 C1121 1.287 . S
C1122 C1123 1.524 . S
C1122 H1141 0.913 . S
C1123 H1099 0.950 . S
C1123 C1122 1.524 . S
C1123 C1124 1.415 . S
C1124 H1100 0.950 . S
C1124 C1119 1.363 . S
C1124 C1123 1.415 . S
C1125 H1101 0.951 . S
C1125 C1126 1.366 . S
C1125 C1127 1.388 . S
C1126 C1125 1.366 . S
C1126 C1130 1.385 . S
C1127 H1102 0.951 . S
C1127 C1125 1.388 . S
C1127 C1128 1.366 . S
C1128 C1127 1.366 . S
C1128 C1129 1.414 . S
C1128 C1131 1.499 . S
C1129 H1103 0.950 . S
C1129 C1128 1.414 . S
C1129 C1130 1.374 . S
C1130 H1104 0.950 . S
C1130 C1126 1.385 . S
C1130 C1129 1.374 . S
C1131 C1128 1.499 . S
C1131 C1132 1.373 . S
C1131 C1133 1.389 . S
C1132 H1105 0.950 . S
C1132 C1118 1.377 . S
C1132 C1131 1.373 . S
C1133 C1117 1.377 . S
C1133 C1131 1.389 . S
C1133 C1134 1.524 . S
C1134 C1133 1.524 . S
C1134 C1135 1.397 . S
C1134 C1139 1.363 . S
C1135 H1106 0.950 . S
C1135 C1134 1.397 . S
C1135 C1136 1.334 . S
C1136 H1107 0.950 . S
C1136 C1135 1.334 . S
C1136 C1137 1.287 . S
C1137 C1136 1.287 . S
C1137 C1138 1.524 . S
C1137 H1140 0.999 . S
C1138 H1108 0.950 . S
C1138 C1137 1.524 . S
C1138 C1139 1.415 . S
C1139 H1109 0.950 . S
C1139 C1134 1.363 . S
C1139 C1138 1.415 . S
H1140 C1137 0.999 . S
H1141 C1122 0.913 . S
H1142 C1160 0.951 . S
H1143 C1162 0.951 . S
H1144 C1164 0.950 . S
H1145 C1165 0.950 . S
H1146 C1167 0.950 . S
H1147 C1170 0.950 . S
H1148 C1171 0.950 . S
H1149 C1173 0.950 . S
H1150 C1174 0.950 . S
H1151 C1175 0.951 . S
H1152 C1177 0.951 . S
H1153 C1179 0.950 . S
H1154 C1180 0.950 . S
H1155 C1182 0.950 . S
H1156 C1185 0.950 . S
H1157 C1186 0.950 . S
H1158 C1188 0.950 . S
H1159 C1189 0.950 . S
C1160 H1142 0.951 . S
C1160 C1161 1.366 . S
C1160 C1162 1.388 . S
C1161 C1160 1.366 . S
C1161 C1165 1.385 . S
C1162 H1143 0.951 . S
C1162 C1160 1.388 . S
C1162 C1163 1.366 . S
C1163 C1162 1.366 . S
C1163 C1164 1.414 . S
C1163 C1166 1.499 . S
C1164 H1144 0.950 . S
C1164 C1163 1.414 . S
C1164 C1165 1.374 . S
C1165 H1145 0.950 . S
C1165 C1161 1.385 . S
C1165 C1164 1.374 . S
C1166 C1163 1.499 . S
C1166 C1167 1.373 . S
C1166 C1168 1.389 . S
C1167 H1146 0.950 . S
C1167 C1166 1.373 . S
C1167 C1183 1.377 . S
C1168 C1166 1.389 . S
C1168 C1169 1.524 . S
C1168 C1182 1.377 . S
C1169 C1168 1.524 . S
C1169 C1170 1.397 . S
C1169 C1174 1.363 . S
C1170 H1147 0.950 . S
C1170 C1169 1.397 . S
C1170 C1171 1.334 . S
C1171 H1148 0.950 . S
C1171 C1170 1.334 . S
C1171 C1172 1.287 . S
C1172 C1171 1.287 . S
C1172 C1173 1.524 . S
C1172 H1191 0.913 . S
C1173 H1149 0.950 . S
C1173 C1172 1.524 . S
C1173 C1174 1.415 . S
C1174 H1150 0.950 . S
C1174 C1169 1.363 . S
C1174 C1173 1.415 . S
C1175 H1151 0.951 . S
C1175 C1176 1.366 . S
C1175 C1177 1.388 . S
C1176 C1175 1.366 . S
C1176 C1180 1.385 . S
C1177 H1152 0.951 . S
C1177 C1175 1.388 . S
C1177 C1178 1.366 . S
C1178 C1177 1.366 . S
C1178 C1179 1.414 . S
C1178 C1181 1.499 . S
C1179 H1153 0.950 . S
C1179 C1178 1.414 . S
C1179 C1180 1.374 . S
C1180 H1154 0.950 . S
C1180 C1176 1.385 . S
C1180 C1179 1.374 . S
C1181 C1178 1.499 . S
C1181 C1182 1.373 . S
C1181 C1183 1.389 . S
C1182 H1155 0.950 . S
C1182 C1168 1.377 . S
C1182 C1181 1.373 . S
C1183 C1167 1.377 . S
C1183 C1181 1.389 . S
C1183 C1184 1.524 . S
C1184 C1183 1.524 . S
C1184 C1185 1.397 . S
C1184 C1189 1.363 . S
C1185 H1156 0.950 . S
C1185 C1184 1.397 . S
C1185 C1186 1.334 . S
C1186 H1157 0.950 . S
C1186 C1185 1.334 . S
C1186 C1187 1.287 . S
C1187 C1186 1.287 . S
C1187 C1188 1.524 . S
C1187 H1190 0.999 . S
C1188 H1158 0.950 . S
C1188 C1187 1.524 . S
C1188 C1189 1.415 . S
C1189 H1159 0.950 . S
C1189 C1184 1.363 . S
C1189 C1188 1.415 . S
H1190 C1187 0.999 . S
H1191 C1172 0.913 . S
H1192 C1210 0.951 . S
H1193 C1212 0.951 . S
H1194 C1214 0.950 . S
H1195 C1215 0.950 . S
H1196 C1217 0.950 . S
H1197 C1220 0.950 . S
H1198 C1221 0.950 1_655 S
H1199 C1223 0.950 . S
H1200 C1224 0.950 . S
H1201 C1225 0.951 . S
H1202 C1227 0.951 . S
H1203 C1229 0.950 . S
H1204 C1230 0.950 . S
H1205 C1232 0.950 . S
H1206 C1235 0.950 . S
H1207 C1236 0.950 . S
H1208 C1238 0.950 . S
H1209 C1239 0.950 . S
C1210 H1192 0.951 . S
C1210 C1211 1.399 . S
C1210 C1212 1.388 . S
C1211 C1210 1.399 . S
C1211 C1215 1.353 1_455 S
C1212 H1193 0.951 . S
C1212 C1210 1.388 . S
C1212 C1213 1.366 . S
C1213 C1212 1.366 . S
C1213 C1214 1.414 1_455 S
C1213 C1216 1.499 . S
C1214 H1194 0.950 . S
C1214 C1213 1.414 1_655 S
C1214 C1215 1.374 . S
C1215 H1195 0.950 . S
C1215 C1211 1.353 1_655 S
C1215 C1214 1.374 . S
C1216 C1213 1.499 . S
C1216 C1217 1.373 1_455 S
C1216 C1218 1.389 . S
C1217 H1196 0.950 . S
C1217 C1216 1.373 1_655 S
C1217 C1233 1.377 . S
C1218 C1216 1.389 . S
C1218 C1219 1.524 . S
C1218 C1232 1.377 . S
C1219 C1218 1.524 . S
C1219 C1220 1.397 1_455 S
C1219 C1224 1.363 . S
C1220 H1197 0.950 . S
C1220 C1219 1.397 1_655 S
C1220 C1221 1.334 1_655 S
C1221 H1198 0.950 1_455 S
C1221 C1220 1.334 1_455 S
C1221 C1222 1.287 . S
C1222 C1221 1.287 . S
C1222 C1223 1.524 . S
C1222 H1241 0.913 . S
C1223 H1199 0.950 . S
C1223 C1222 1.524 . S
C1223 C1224 1.415 . S
C1224 H1200 0.950 . S
C1224 C1219 1.363 . S
C1224 C1223 1.415 . S
C1225 H1201 0.951 . S
C1225 C1226 1.366 1_655 S
C1225 C1227 1.388 . S
C1226 C1225 1.366 1_455 S
C1226 C1230 1.385 . S
C1227 H1202 0.951 . S
C1227 C1225 1.388 . S
C1227 C1228 1.366 1_655 S
C1228 C1227 1.366 1_455 S
C1228 C1229 1.414 . S
C1228 C1231 1.499 . S
C1229 H1203 0.950 . S
C1229 C1228 1.414 . S
C1229 C1230 1.374 . S
C1230 H1204 0.950 . S
C1230 C1226 1.385 . S
C1230 C1229 1.374 . S
C1231 C1228 1.499 . S
C1231 C1232 1.373 . S
C1231 C1233 1.389 1_455 S
C1232 H1205 0.950 . S
C1232 C1218 1.377 . S
C1232 C1231 1.373 . S
C1233 C1217 1.377 . S
C1233 C1231 1.389 1_655 S
C1233 C1234 1.524 . S
C1234 C1233 1.524 . S
C1234 C1235 1.397 1_655 S
C1234 C1239 1.363 . S
C1235 H1206 0.950 . S
C1235 C1234 1.397 1_455 S
C1235 C1236 1.334 . S
C1236 H1207 0.950 . S
C1236 C1235 1.334 . S
C1236 C1237 1.287 1_455 S
C1237 C1236 1.287 1_655 S
C1237 C1238 1.524 . S
C1237 H1240 0.999 . S
C1238 H1208 0.950 . S
C1238 C1237 1.524 . S
C1238 C1239 1.415 . S
C1239 H1209 0.950 . S
C1239 C1234 1.363 . S
C1239 C1238 1.415 . S
H1240 C1237 0.999 . S
H1241 C1222 0.913 . S
H1242 C1260 0.951 . S
H1243 C1262 0.951 . S
H1244 C1264 0.950 . S
H1245 C1265 0.950 . S
H1246 C1267 0.950 . S
H1247 C1270 0.950 . S
H1248 C1271 0.950 . S
H1249 C1273 0.950 . S
H1250 C1274 0.950 . S
H1251 C1275 0.951 . S
H1252 C1277 0.951 . S
H1253 C1279 0.950 . S
H1254 C1280 0.950 . S
H1255 C1282 0.950 . S
H1256 C1285 0.950 . S
H1257 C1286 0.950 . S
H1258 C1288 0.950 . S
H1259 C1289 0.950 . S
C1260 H1242 0.951 . S
C1260 C1261 1.366 . S
C1260 C1262 1.388 . S
C1261 C1260 1.366 . S
C1261 C1265 1.385 . S
C1262 H1243 0.951 . S
C1262 C1260 1.388 . S
C1262 C1263 1.366 . S
C1263 C1262 1.366 . S
C1263 C1264 1.414 . S
C1263 C1266 1.499 . S
C1264 H1244 0.950 . S
C1264 C1263 1.414 . S
C1264 C1265 1.374 . S
C1265 H1245 0.950 . S
C1265 C1261 1.385 . S
C1265 C1264 1.374 . S
C1266 C1263 1.499 . S
C1266 C1267 1.373 . S
C1266 C1268 1.389 . S
C1267 H1246 0.950 . S
C1267 C1266 1.373 . S
C1267 C1283 1.377 . S
C1268 C1266 1.389 . S
C1268 C1269 1.524 . S
C1268 C1282 1.377 . S
C1269 C1268 1.524 . S
C1269 C1270 1.397 . S
C1269 C1274 1.363 . S
C1270 H1247 0.950 . S
C1270 C1269 1.397 . S
C1270 C1271 1.334 . S
C1271 H1248 0.950 . S
C1271 C1270 1.334 . S
C1271 C1272 1.287 . S
C1272 C1271 1.287 . S
C1272 C1273 1.524 . S
C1272 H1291 0.913 1_545 S
C1273 H1249 0.950 . S
C1273 C1272 1.524 . S
C1273 C1274 1.415 . S
C1274 H1250 0.950 . S
C1274 C1269 1.363 . S
C1274 C1273 1.415 . S
C1275 H1251 0.951 . S
C1275 C1276 1.366 . S
C1275 C1277 1.388 . S
C1276 C1275 1.366 . S
C1276 C1280 1.385 . S
C1277 H1252 0.951 . S
C1277 C1275 1.388 . S
C1277 C1278 1.366 . S
C1278 C1277 1.366 . S
C1278 C1279 1.414 . S
C1278 C1281 1.499 . S
C1279 H1253 0.950 . S
C1279 C1278 1.414 . S
C1279 C1280 1.374 . S
C1280 H1254 0.950 . S
C1280 C1276 1.385 . S
C1280 C1279 1.374 . S
C1281 C1278 1.499 . S
C1281 C1282 1.373 . S
C1281 C1283 1.389 . S
C1282 H1255 0.950 . S
C1282 C1268 1.377 . S
C1282 C1281 1.373 . S
C1283 C1267 1.377 . S
C1283 C1281 1.389 . S
C1283 C1284 1.524 . S
C1284 C1283 1.524 . S
C1284 C1285 1.397 . S
C1284 C1289 1.363 . S
C1285 H1256 0.950 . S
C1285 C1284 1.397 . S
C1285 C1286 1.334 . S
C1286 H1257 0.950 . S
C1286 C1285 1.334 . S
C1286 C1287 1.287 . S
C1287 C1286 1.287 . S
C1287 C1288 1.524 . S
C1287 H1290 0.999 . S
C1288 H1258 0.950 . S
C1288 C1287 1.524 . S
C1288 C1289 1.415 . S
C1289 H1259 0.950 . S
C1289 C1284 1.363 . S
C1289 C1288 1.415 . S
H1290 C1287 0.999 . S
H1291 C1272 0.913 1_565 S
H1292 C1310 0.951 . S
H1293 C1312 0.951 . S
H1294 C1314 0.950 . S
H1295 C1315 0.950 . S
H1296 C1317 0.950 . S
H1297 C1320 0.950 . S
H1298 C1321 0.950 . S
H1299 C1323 0.950 . S
H1300 C1324 0.950 . S
H1301 C1325 0.951 . S
H1302 C1327 0.951 . S
H1303 C1329 0.950 . S
H1304 C1330 0.950 . S
H1305 C1332 0.950 . S
H1306 C1335 0.950 . S
H1307 C1336 0.950 . S
H1308 C1338 0.950 . S
H1309 C1339 0.950 . S
C1310 H1292 0.951 . S
C1310 C1311 1.366 . S
C1310 C1312 1.388 . S
C1311 C1310 1.366 . S
C1311 C1315 1.385 . S
C1312 H1293 0.951 . S
C1312 C1310 1.388 . S
C1312 C1313 1.366 . S
C1313 C1312 1.366 . S
C1313 C1314 1.414 . S
C1313 C1316 1.499 . S
C1314 H1294 0.950 . S
C1314 C1313 1.414 . S
C1314 C1315 1.374 . S
C1315 H1295 0.950 . S
C1315 C1311 1.385 . S
C1315 C1314 1.374 . S
C1316 C1313 1.499 . S
C1316 C1317 1.373 . S
C1316 C1318 1.389 . S
C1317 H1296 0.950 . S
C1317 C1316 1.373 . S
C1317 C1333 1.377 . S
C1318 C1316 1.389 . S
C1318 C1319 1.524 . S
C1318 C1332 1.377 . S
C1319 C1318 1.524 . S
C1319 C1320 1.397 . S
C1319 C1324 1.363 . S
C1320 H1297 0.950 . S
C1320 C1319 1.397 . S
C1320 C1321 1.334 . S
C1321 H1298 0.950 . S
C1321 C1320 1.334 . S
C1321 C1322 1.287 . S
C1322 C1321 1.287 . S
C1322 C1323 1.524 . S
C1322 H1341 0.913 . S
C1323 H1299 0.950 . S
C1323 C1322 1.524 . S
C1323 C1324 1.415 . S
C1324 H1300 0.950 . S
C1324 C1319 1.363 . S
C1324 C1323 1.415 . S
C1325 H1301 0.951 . S
C1325 C1326 1.366 . S
C1325 C1327 1.388 . S
C1326 C1325 1.366 . S
C1326 C1330 1.385 . S
C1327 H1302 0.951 . S
C1327 C1325 1.388 . S
C1327 C1328 1.366 . S
C1328 C1327 1.366 . S
C1328 C1329 1.414 . S
C1328 C1331 1.499 . S
C1329 H1303 0.950 . S
C1329 C1328 1.414 . S
C1329 C1330 1.374 . S
C1330 H1304 0.950 . S
C1330 C1326 1.385 . S
C1330 C1329 1.374 . S
C1331 C1328 1.499 . S
C1331 C1332 1.373 . S
C1331 C1333 1.389 . S
C1332 H1305 0.950 . S
C1332 C1318 1.377 . S
C1332 C1331 1.373 . S
C1333 C1317 1.377 . S
C1333 C1331 1.389 . S
C1333 C1334 1.524 . S
C1334 C1333 1.524 . S
C1334 C1335 1.397 . S
C1334 C1339 1.363 . S
C1335 H1306 0.950 . S
C1335 C1334 1.397 . S
C1335 C1336 1.334 . S
C1336 H1307 0.950 . S
C1336 C1335 1.334 . S
C1336 C1337 1.287 . S
C1337 C1336 1.287 . S
C1337 C1338 1.524 . S
C1337 H1340 0.999 . S
C1338 H1308 0.950 . S
C1338 C1337 1.524 . S
C1338 C1339 1.415 . S
C1339 H1309 0.950 . S
C1339 C1334 1.363 . S
C1339 C1338 1.415 . S
H1340 C1337 0.999 . S
H1341 C1322 0.913 . S
H1342 C1360 0.951 . S
H1343 C1362 0.951 . S
H1344 C1364 0.950 . S
H1345 C1365 0.950 . S
H1346 C1367 0.950 . S
H1347 C1370 0.950 . S
H1348 C1371 0.950 . S
H1349 C1373 0.950 . S
H1350 C1374 0.950 . S
H1351 C1375 0.951 . S
H1352 C1377 0.951 . S
H1353 C1379 0.950 . S
H1354 C1380 0.950 . S
H1355 C1382 0.950 . S
H1356 C1385 0.950 . S
H1357 C1386 0.950 . S
H1358 C1388 0.950 . S
H1359 C1389 0.950 . S
C1360 H1342 0.951 . S
C1360 C1361 1.366 . S
C1360 C1362 1.388 . S
C1361 C1360 1.366 . S
C1361 C1365 1.385 . S
C1362 H1343 0.951 . S
C1362 C1360 1.388 . S
C1362 C1363 1.366 . S
C1363 C1362 1.366 . S
C1363 C1364 1.414 . S
C1363 C1366 1.499 . S
C1364 H1344 0.950 . S
C1364 C1363 1.414 . S
C1364 C1365 1.374 . S
C1365 H1345 0.950 . S
C1365 C1361 1.385 . S
C1365 C1364 1.374 . S
C1366 C1363 1.499 . S
C1366 C1367 1.373 . S
C1366 C1368 1.389 . S
C1367 H1346 0.950 . S
C1367 C1366 1.373 . S
C1367 C1383 1.377 . S
C1368 C1366 1.389 . S
C1368 C1369 1.524 . S
C1368 C1382 1.377 . S
C1369 C1368 1.524 . S
C1369 C1370 1.397 . S
C1369 C1374 1.363 . S
C1370 H1347 0.950 . S
C1370 C1369 1.397 . S
C1370 C1371 1.334 . S
C1371 H1348 0.950 . S
C1371 C1370 1.334 . S
C1371 C1372 1.287 . S
C1372 C1371 1.287 . S
C1372 C1373 1.524 . S
C1372 H1391 0.913 . S
C1373 H1349 0.950 . S
C1373 C1372 1.524 . S
C1373 C1374 1.415 . S
C1374 H1350 0.950 . S
C1374 C1369 1.363 . S
C1374 C1373 1.415 . S
C1375 H1351 0.951 . S
C1375 C1376 1.366 . S
C1375 C1377 1.388 . S
C1376 C1375 1.366 . S
C1376 C1380 1.385 . S
C1377 H1352 0.951 . S
C1377 C1375 1.388 . S
C1377 C1378 1.366 . S
C1378 C1377 1.366 . S
C1378 C1379 1.414 . S
C1378 C1381 1.499 . S
C1379 H1353 0.950 . S
C1379 C1378 1.414 . S
C1379 C1380 1.374 . S
C1380 H1354 0.950 . S
C1380 C1376 1.385 . S
C1380 C1379 1.374 . S
C1381 C1378 1.499 . S
C1381 C1382 1.373 . S
C1381 C1383 1.389 . S
C1382 H1355 0.950 . S
C1382 C1368 1.377 . S
C1382 C1381 1.373 . S
C1383 C1367 1.377 . S
C1383 C1381 1.389 . S
C1383 C1384 1.524 . S
C1384 C1383 1.524 . S
C1384 C1385 1.397 . S
C1384 C1389 1.363 . S
C1385 H1356 0.950 . S
C1385 C1384 1.397 . S
C1385 C1386 1.334 . S
C1386 H1357 0.950 . S
C1386 C1385 1.334 . S
C1386 C1387 1.287 . S
C1387 C1386 1.287 . S
C1387 C1388 1.524 . S
C1387 H1390 0.999 . S
C1388 H1358 0.950 . S
C1388 C1387 1.524 . S
C1388 C1389 1.415 . S
C1389 H1359 0.950 . S
C1389 C1384 1.363 . S
C1389 C1388 1.415 . S
H1390 C1387 0.999 . S
H1391 C1372 0.913 . S
H1392 C1410 0.951 . S
H1393 C1412 0.951 . S
H1394 C1414 0.950 . S
H1395 C1415 0.950 . S
H1396 C1417 0.950 . S
H1397 C1420 0.950 . S
H1398 C1421 0.950 . S
H1399 C1423 0.950 . S
H1400 C1424 0.950 . S
H1401 C1425 0.951 . S
H1402 C1427 0.951 . S
H1403 C1429 0.950 . S
H1404 C1430 0.950 . S
H1405 C1432 0.950 . S
H1406 C1435 0.950 . S
H1407 C1436 0.950 . S
H1408 C1438 0.950 . S
H1409 C1439 0.986 . S
C1410 H1392 0.951 . S
C1410 C1411 1.354 1_455 S
C1410 C1412 1.388 . S
C1411 C1410 1.354 1_655 S
C1411 C1415 1.399 . S
C1412 H1393 0.951 . S
C1412 C1410 1.388 . S
C1412 C1413 1.366 1_455 S
C1413 C1412 1.366 1_655 S
C1413 C1414 1.414 . S
C1413 C1416 1.499 . S
C1414 H1394 0.950 . S
C1414 C1413 1.414 . S
C1414 C1415 1.374 . S
C1415 H1395 0.950 . S
C1415 C1411 1.399 . S
C1415 C1414 1.374 . S
C1416 C1413 1.499 . S
C1416 C1417 1.373 1_655 S
C1416 C1418 1.389 . S
C1417 H1396 0.950 . S
C1417 C1416 1.373 1_455 S
C1417 C1433 1.377 . S
C1418 C1416 1.389 . S
C1418 C1419 1.524 . S
C1418 C1432 1.377 . S
C1419 C1418 1.524 . S
C1419 C1420 1.397 . S
C1419 C1424 1.363 . S
C1420 H1397 0.950 . S
C1420 C1419 1.397 . S
C1420 C1421 1.334 . S
C1421 H1398 0.950 . S
C1421 C1420 1.334 . S
C1421 C1422 1.287 . S
C1422 C1421 1.287 . S
C1422 C1423 1.524 . S
C1422 H1441 0.913 . S
C1423 H1399 0.950 . S
C1423 C1422 1.524 . S
C1423 C1424 1.415 . S
C1424 H1400 0.950 . S
C1424 C1419 1.363 . S
C1424 C1423 1.415 . S
C1425 H1401 0.951 . S
C1425 C1426 1.366 . S
C1425 C1427 1.388 . S
C1426 C1425 1.366 . S
C1426 C1430 1.385 1_655 S
C1427 H1402 0.951 . S
C1427 C1425 1.388 . S
C1427 C1428 1.366 . S
C1428 C1427 1.366 . S
C1428 C1429 1.414 1_655 S
C1428 C1431 1.499 . S
C1429 H1403 0.950 . S
C1429 C1428 1.414 1_455 S
C1429 C1430 1.374 . S
C1430 H1404 0.950 . S
C1430 C1426 1.385 1_455 S
C1430 C1429 1.374 . S
C1431 C1428 1.499 . S
C1431 C1432 1.373 . S
C1431 C1433 1.389 1_655 S
C1432 H1405 0.950 . S
C1432 C1418 1.377 . S
C1432 C1431 1.373 . S
C1433 C1417 1.377 . S
C1433 C1431 1.389 1_455 S
C1433 C1434 1.524 . S
C1434 C1433 1.524 . S
C1434 C1435 1.397 . S
C1434 C1439 1.363 . S
C1435 H1406 0.950 . S
C1435 C1434 1.397 . S
C1435 C1436 1.334 . S
C1436 H1407 0.950 . S
C1436 C1435 1.334 . S
C1436 C1437 1.287 . S
C1437 C1436 1.287 . S
C1437 C1438 1.524 . S
C1437 H1440 0.999 . S
C1438 H1408 0.950 . S
C1438 C1437 1.524 . S
C1438 C1439 1.415 . S
C1439 H1409 0.986 . S
C1439 C1434 1.363 . S
C1439 C1438 1.415 . S
H1440 C1437 0.999 . S
H1441 C1422 0.913 . S
H1442 C1460 0.951 . S
H1443 C1462 0.951 . S
H1444 C1464 0.950 . S
H1445 C1465 0.950 . S
H1446 C1467 0.950 . S
H1447 C1470 0.950 . S
H1448 C1471 0.951 . S
H1449 C1473 0.950 . S
H1450 C1474 0.950 . S
H1451 C1475 0.951 . S
H1452 C1477 0.951 . S
H1453 C1479 0.950 . S
H1454 C1480 0.950 . S
H1455 C1482 0.950 . S
H1456 C1485 0.950 . S
H1457 C1486 0.950 . S
H1458 C1488 0.950 . S
H1459 C1489 0.950 . S
C1460 H1442 0.951 . S
C1460 C1461 1.366 . S
C1460 C1462 1.388 . S
C1461 C1460 1.366 . S
C1461 C1465 1.385 . S
C1462 H1443 0.951 . S
C1462 C1460 1.388 . S
C1462 C1463 1.366 . S
C1463 C1462 1.366 . S
C1463 C1464 1.414 . S
C1463 C1466 1.499 . S
C1464 H1444 0.950 . S
C1464 C1463 1.414 . S
C1464 C1465 1.374 . S
C1465 H1445 0.950 . S
C1465 C1461 1.385 . S
C1465 C1464 1.374 . S
C1466 C1463 1.499 . S
C1466 C1467 1.373 . S
C1466 C1468 1.389 . S
C1467 H1446 0.950 . S
C1467 C1466 1.373 . S
C1467 C1483 1.377 . S
C1468 C1466 1.389 . S
C1468 C1469 1.524 . S
C1468 C1482 1.377 . S
C1469 C1468 1.524 . S
C1469 C1470 1.397 . S
C1469 C1474 1.363 . S
C1470 H1447 0.950 . S
C1470 C1469 1.397 . S
C1470 C1471 1.334 . S
C1471 H1448 0.951 . S
C1471 C1470 1.334 . S
C1471 C1472 1.287 . S
C1472 C1471 1.287 . S
C1472 C1473 1.524 . S
C1472 H1491 0.922 . S
C1473 H1449 0.950 . S
C1473 C1472 1.524 . S
C1473 C1474 1.415 . S
C1474 H1450 0.950 . S
C1474 C1469 1.363 . S
C1474 C1473 1.415 . S
C1475 H1451 0.951 . S
C1475 C1476 1.366 . S
C1475 C1477 1.388 . S
C1476 C1475 1.366 . S
C1476 C1480 1.385 . S
C1477 H1452 0.951 . S
C1477 C1475 1.388 . S
C1477 C1478 1.366 . S
C1478 C1477 1.366 . S
C1478 C1479 1.414 . S
C1478 C1481 1.499 . S
C1479 H1453 0.950 . S
C1479 C1478 1.414 . S
C1479 C1480 1.374 . S
C1480 H1454 0.950 . S
C1480 C1476 1.385 . S
C1480 C1479 1.374 . S
C1481 C1478 1.499 . S
C1481 C1482 1.373 . S
C1481 C1483 1.389 . S
C1482 H1455 0.950 . S
C1482 C1468 1.377 . S
C1482 C1481 1.373 . S
C1483 C1467 1.377 . S
C1483 C1481 1.389 . S
C1483 C1484 1.524 . S
C1484 C1483 1.524 . S
C1484 C1485 1.397 . S
C1484 C1489 1.363 . S
C1485 H1456 0.950 . S
C1485 C1484 1.397 . S
C1485 C1486 1.334 . S
C1486 H1457 0.950 . S
C1486 C1485 1.334 . S
C1486 C1487 1.287 . S
C1487 C1486 1.287 . S
C1487 C1488 1.524 . S
C1487 H1490 0.999 . S
C1488 H1458 0.950 . S
C1488 C1487 1.524 . S
C1488 C1489 1.415 . S
C1489 H1459 0.950 . S
C1489 C1484 1.363 . S
C1489 C1488 1.415 . S
H1490 C1487 0.999 . S
H1491 C1472 0.922 . S
H1492 C1510 0.951 . S
H1493 C1512 0.951 . S
H1494 C1514 0.950 . S
H1495 C1515 0.950 . S
H1496 C1517 0.950 . S
H1497 C1520 0.950 . S
H1498 C1521 0.950 . S
H1499 C1523 0.950 . S
H1500 C1524 0.950 . S
H1501 C1525 0.951 . S
H1502 C1527 0.951 . S
H1503 C1529 0.950 . S
H1504 C1530 0.950 . S
H1505 C1532 0.950 . S
H1506 C1535 0.950 . S
H1507 C1536 0.950 . S
H1508 C1538 0.950 . S
H1509 C1539 0.950 . S
C1510 H1492 0.951 . S
C1510 C1511 1.366 . S
C1510 C1512 1.388 . S
C1511 C1510 1.366 . S
C1511 C1515 1.385 . S
C1512 H1493 0.951 . S
C1512 C1510 1.388 . S
C1512 C1513 1.366 . S
C1513 C1512 1.366 . S
C1513 C1514 1.414 . S
C1513 C1516 1.499 . S
C1514 H1494 0.950 . S
C1514 C1513 1.414 . S
C1514 C1515 1.374 . S
C1515 H1495 0.950 . S
C1515 C1511 1.385 . S
C1515 C1514 1.374 . S
C1516 C1513 1.499 . S
C1516 C1517 1.373 . S
C1516 C1518 1.389 . S
C1517 H1496 0.950 . S
C1517 C1516 1.373 . S
C1517 C1533 1.377 . S
C1518 C1516 1.389 . S
C1518 C1519 1.524 . S
C1518 C1532 1.377 . S
C1519 C1518 1.524 . S
C1519 C1520 1.397 . S
C1519 C1524 1.363 . S
C1520 H1497 0.950 . S
C1520 C1519 1.397 . S
C1520 C1521 1.334 . S
C1521 H1498 0.950 . S
C1521 C1520 1.334 . S
C1521 C1522 1.287 . S
C1522 C1521 1.287 . S
C1522 C1523 1.524 . S
C1522 H1541 0.913 . S
C1523 H1499 0.950 . S
C1523 C1522 1.524 . S
C1523 C1524 1.415 . S
C1524 H1500 0.950 . S
C1524 C1519 1.363 . S
C1524 C1523 1.415 . S
C1525 H1501 0.951 . S
C1525 C1526 1.366 . S
C1525 C1527 1.388 . S
C1526 C1525 1.366 . S
C1526 C1530 1.385 . S
C1527 H1502 0.951 . S
C1527 C1525 1.388 . S
C1527 C1528 1.366 . S
C1528 C1527 1.366 . S
C1528 C1529 1.414 . S
C1528 C1531 1.499 . S
C1529 H1503 0.950 . S
C1529 C1528 1.414 . S
C1529 C1530 1.374 . S
C1530 H1504 0.950 . S
C1530 C1526 1.385 . S
C1530 C1529 1.374 . S
C1531 C1528 1.499 . S
C1531 C1532 1.373 . S
C1531 C1533 1.389 . S
C1532 H1505 0.950 . S
C1532 C1518 1.377 . S
C1532 C1531 1.373 . S
C1533 C1517 1.377 . S
C1533 C1531 1.389 . S
C1533 C1534 1.524 . S
C1534 C1533 1.524 . S
C1534 C1535 1.397 . S
C1534 C1539 1.363 . S
C1535 H1506 0.950 . S
C1535 C1534 1.397 . S
C1535 C1536 1.334 . S
C1536 H1507 0.950 . S
C1536 C1535 1.334 . S
C1536 C1537 1.287 . S
C1537 C1536 1.287 . S
C1537 C1538 1.524 . S
C1537 H1540 0.999 . S
C1538 H1508 0.950 . S
C1538 C1537 1.524 . S
C1538 C1539 1.415 . S
C1539 H1509 0.950 . S
C1539 C1534 1.363 . S
C1539 C1538 1.415 . S
H1540 C1537 0.999 . S
H1541 C1522 0.913 . S
H1542 C1560 0.951 . S
H1543 C1562 0.951 . S
H1544 C1564 0.950 . S
H1545 C1565 0.950 . S
H1546 C1567 0.950 . S
H1547 C1570 0.950 . S
H1548 C1571 0.950 . S
H1549 C1573 0.950 . S
H1550 C1574 0.950 . S
H1551 C1575 0.951 . S
H1552 C1577 0.951 . S
H1553 C1579 0.950 . S
H1554 C1580 0.950 . S
H1555 C1582 0.950 . S
H1556 C1585 0.950 . S
H1557 C1586 0.950 . S
H1558 C1588 0.950 . S
H1559 C1589 0.950 . S
C1560 H1542 0.951 . S
C1560 C1561 1.366 . S
C1560 C1562 1.388 . S
C1561 C1560 1.366 . S
C1561 C1565 1.385 . S
C1562 H1543 0.951 . S
C1562 C1560 1.388 . S
C1562 C1563 1.366 . S
C1563 C1562 1.366 . S
C1563 C1564 1.414 . S
C1563 C1566 1.499 . S
C1564 H1544 0.950 . S
C1564 C1563 1.414 . S
C1564 C1565 1.374 . S
C1565 H1545 0.950 . S
C1565 C1561 1.385 . S
C1565 C1564 1.374 . S
C1566 C1563 1.499 . S
C1566 C1567 1.373 . S
C1566 C1568 1.389 . S
C1567 H1546 0.950 . S
C1567 C1566 1.373 . S
C1567 C1583 1.377 . S
C1568 C1566 1.389 . S
C1568 C1569 1.524 . S
C1568 C1582 1.377 . S
C1569 C1568 1.524 . S
C1569 C1570 1.397 . S
C1569 C1574 1.363 . S
C1570 H1547 0.950 . S
C1570 C1569 1.397 . S
C1570 C1571 1.334 . S
C1571 H1548 0.950 . S
C1571 C1570 1.334 . S
C1571 C1572 1.287 . S
C1572 C1571 1.287 . S
C1572 C1573 1.524 . S
C1572 H1591 0.913 . S
C1573 H1549 0.950 . S
C1573 C1572 1.524 . S
C1573 C1574 1.415 . S
C1574 H1550 0.950 . S
C1574 C1569 1.363 . S
C1574 C1573 1.415 . S
C1575 H1551 0.951 . S
C1575 C1576 1.366 . S
C1575 C1577 1.388 . S
C1576 C1575 1.366 . S
C1576 C1580 1.385 . S
C1577 H1552 0.951 . S
C1577 C1575 1.388 . S
C1577 C1578 1.366 . S
C1578 C1577 1.366 . S
C1578 C1579 1.414 . S
C1578 C1581 1.499 . S
C1579 H1553 0.950 . S
C1579 C1578 1.414 . S
C1579 C1580 1.374 . S
C1580 H1554 0.950 . S
C1580 C1576 1.385 . S
C1580 C1579 1.374 . S
C1581 C1578 1.499 . S
C1581 C1582 1.373 . S
C1581 C1583 1.389 . S
C1582 H1555 0.950 . S
C1582 C1568 1.377 . S
C1582 C1581 1.373 . S
C1583 C1567 1.377 . S
C1583 C1581 1.389 . S
C1583 C1584 1.524 . S
C1584 C1583 1.524 . S
C1584 C1585 1.397 . S
C1584 C1589 1.363 . S
C1585 H1556 0.950 . S
C1585 C1584 1.397 . S
C1585 C1586 1.334 . S
C1586 H1557 0.950 . S
C1586 C1585 1.334 . S
C1586 C1587 1.287 . S
C1587 C1586 1.287 . S
C1587 C1588 1.524 . S
C1587 H1590 0.999 . S
C1588 H1558 0.950 . S
C1588 C1587 1.524 . S
C1588 C1589 1.415 . S
C1589 H1559 0.950 . S
C1589 C1584 1.363 . S
C1589 C1588 1.415 . S
H1590 C1587 0.999 . S
H1591 C1572 0.913 . S
C411 C255 1.736 . S
C426 C330 1.760 . S
C476 C350 1.448 . S
C461 C294 1.454 . S
C526 C370 1.725 . S
C511 C177 1.698 . S
C576 C390 1.417 . S
C561 C216 1.434 . S
C626 C331 1.766 1_565 S
C611 C99 1.755 . S
C661 C138 1.460 . S
C676 C351 1.449 . S
C711 C21 1.711 . S
C726 C371 1.726 . S
C761 C60 1.435 1_455 S
C776 C391 1.420 . S
C826 C321 0.487 . S
C811 C196 0.340 1_455 S
C876 C341 0.601 . S
C861 C235 0.568 . S
C926 C361 0.494 . S
C911 C289 0.429 . S
C961 C157 0.531 . S
C976 C381 0.584 . S
C1011 C40 0.341 . S
C1026 C324 0.478 . S
C1076 C344 0.601 . S
C1061 C79 0.563 . S
C1126 C364 0.492 . S
C1111 C133 0.433 . S
C1161 C1 0.524 . S
C1176 C384 0.591 . S
C1211 C211 1.949 . S
C1226 C314 1.922 . S
C1261 C250 1.997 . S
C1276 C334 1.975 . S
C1326 C354 1.819 . S
C1311 C274 1.853 . S
C1376 C374 2.102 . S
C1361 C172 2.120 . S
C1411 C55 1.949 1_655 S
C1426 C316 1.924 . S
C1476 C336 1.975 . S
C1461 C94 1.994 . S
C1526 C356 1.819 . S
C1511 C118 1.856 . S
C1561 C16 2.123 . S
C1576 C376 2.107 . S
