# Generated by pormake.
# Topology zzz, (3,6)-cn, num edge types: 1
# Building blocks:
#     Node 0, Type 0, BuildingBlock: PAMTOO_clean_linker_0, # of connection points: 3
#     Node 1, Type 0, BuildingBlock: PAMTOO_clean_linker_0, # of connection points: 3
#     Node 2, Type 0, BuildingBlock: PAMTOO_clean_linker_0, # of connection points: 3
#     Node 3, Type 0, BuildingBlock: PAMTOO_clean_linker_0, # of connection points: 3
#     Node 4, Type 0, BuildingBlock: PAMTOO_clean_linker_0, # of connection points: 3
#     Node 5, Type 0, BuildingBlock: PAMTOO_clean_linker_0, # of connection points: 3
#     Node 6, Type 0, BuildingBlock: PAMTOO_clean_linker_0, # of connection points: 3
#     Node 7, Type 0, BuildingBlock: PAMTOO_clean_linker_0, # of connection points: 3
#     Node 8, Type 1, BuildingBlock: KUMBUR_clean_sbu_0, # of connection points: 6
#     Node 9, Type 1, BuildingBlock: KUMBUR_clean_sbu_0, # of connection points: 6
#     Node 10, Type 1, BuildingBlock: KUMBUR_clean_sbu_0, # of connection points: 6
#     Node 11, Type 1, BuildingBlock: KUMBUR_clean_sbu_0, # of connection points: 6
#     Edge 12, Type (0, 1), BuildingBlock: XUDNAN_clean_linker_2, # of connection points: 2
#     Edge 13, Type (0, 1), BuildingBlock: XUDNAN_clean_linker_2, # of connection points: 2
#     Edge 14, Type (0, 1), BuildingBlock: XUDNAN_clean_linker_2, # of connection points: 2
#     Edge 15, Type (0, 1), BuildingBlock: XUDNAN_clean_linker_2, # of connection points: 2
#     Edge 16, Type (0, 1), BuildingBlock: XUDNAN_clean_linker_2, # of connection points: 2
#     Edge 17, Type (0, 1), BuildingBlock: XUDNAN_clean_linker_2, # of connection points: 2
#     Edge 18, Type (0, 1), BuildingBlock: XUDNAN_clean_linker_2, # of connection points: 2
#     Edge 19, Type (0, 1), BuildingBlock: XUDNAN_clean_linker_2, # of connection points: 2
#     Edge 20, Type (0, 1), BuildingBlock: XUDNAN_clean_linker_2, # of connection points: 2
#     Edge 21, Type (0, 1), BuildingBlock: XUDNAN_clean_linker_2, # of connection points: 2
#     Edge 22, Type (0, 1), BuildingBlock: XUDNAN_clean_linker_2, # of connection points: 2
#     Edge 23, Type (0, 1), BuildingBlock: XUDNAN_clean_linker_2, # of connection points: 2
#     Edge 24, Type (0, 1), BuildingBlock: XUDNAN_clean_linker_2, # of connection points: 2
#     Edge 25, Type (0, 1), BuildingBlock: XUDNAN_clean_linker_2, # of connection points: 2
#     Edge 26, Type (0, 1), BuildingBlock: XUDNAN_clean_linker_2, # of connection points: 2
#     Edge 27, Type (0, 1), BuildingBlock: XUDNAN_clean_linker_2, # of connection points: 2
#     Edge 28, Type (0, 1), BuildingBlock: XUDNAN_clean_linker_2, # of connection points: 2
#     Edge 29, Type (0, 1), BuildingBlock: XUDNAN_clean_linker_2, # of connection points: 2
#     Edge 30, Type (0, 1), BuildingBlock: XUDNAN_clean_linker_2, # of connection points: 2
#     Edge 31, Type (0, 1), BuildingBlock: XUDNAN_clean_linker_2, # of connection points: 2
#     Edge 32, Type (0, 1), BuildingBlock: XUDNAN_clean_linker_2, # of connection points: 2
#     Edge 33, Type (0, 1), BuildingBlock: XUDNAN_clean_linker_2, # of connection points: 2
#     Edge 34, Type (0, 1), BuildingBlock: XUDNAN_clean_linker_2, # of connection points: 2
#     Edge 35, Type (0, 1), BuildingBlock: XUDNAN_clean_linker_2, # of connection points: 2
# Relax obj value: 0.174
# Max RMSD: 0.164
# Mean RMSD: 0.115
data_MOF--net-zzz--node1-KUMBUR_clean_sbu_0--node2-PAMTOO_clean_linker_0--edge1-XUDNAN_clean_linker_2
_symmetry_space_group_name_H-M    P1
_symmetry_Int_Tables_number       1
_symmetry_cell_setting            triclinic
loop_
_symmetry_equiv_pos_as_xyz
'x, y, z'
_cell_length_a     49.925119
_cell_length_b     49.912965
_cell_length_c     14.606187
_cell_angle_alpha  91.849614
_cell_angle_beta   89.718883
_cell_angle_gamma 89.824518
loop_
_atom_site_label
_atom_site_type_symbol
_atom_site_fract_x
_atom_site_fract_y
_atom_site_fract_z
_atom_type_partial_charge
H0 H 0.82453 0.59044 0.23624 0.0
H1 H 0.7483 0.58693 0.10308 0.0
H2 H 0.77074 0.52518 0.28786 0.0
H3 H 0.72416 0.50607 0.13492 0.0
C4 C 0.72548 0.52673 0.10913 0.0
O5 O 0.73145 0.54411 0.18247 0.0
H6 H 0.74196 0.52642 0.05738 0.0
C7 C 0.80544 0.5805 0.22645 0.0
C8 C 0.80069 0.55619 0.26915 0.0
C9 C 0.78705 0.59141 0.16553 0.0
C10 C 0.76233 0.57888 0.15146 0.0
C11 C 0.75605 0.55532 0.19648 0.0
C12 C 0.77533 0.54379 0.25519 0.0
H13 H 1.01716 0.83838 0.18173 0.0
H14 H 1.00657 0.75672 0.08599 0.0
H15 H 1.01503 0.77459 0.37423 0.0
H16 H 0.0349 0.70636 0.28464 0.0
C17 C 0.02999 0.71706 0.2214 0.0
O18 O 1.00944 0.73538 0.24232 0.0
H19 H 0.0485 0.72782 0.20097 0.0
C20 C 1.01518 0.81733 0.19635 0.0
C21 C 1.01606 0.80946 0.28808 0.0
C22 C 1.0119 0.7985 0.12319 0.0
C23 C 1.00943 0.77134 0.14156 0.0
C24 C 1.01134 0.76237 0.2305 0.0
C25 C 1.01424 0.78146 0.30475 0.0
H26 H 0.71333 0.02329 0.16542 0.0
H27 H 0.79514 1.00868 0.08462 0.0
H28 H 0.77429 1.01563 0.37082 0.0
H29 H 0.84265 0.03342 0.30261 0.0
C30 C 0.83378 0.02818 0.23485 0.0
O31 O 0.81462 1.00824 0.24674 0.0
H32 H 0.82413 0.04683 0.21078 0.0
C33 C 0.73392 1.01912 0.18372 0.0
C34 C 0.74077 1.01869 0.2768 0.0
C35 C 0.75338 1.01598 0.11427 0.0
C36 C 0.78005 1.01135 0.13777 0.0
C37 C 0.78797 1.01154 0.22919 0.0
C38 C 0.76826 1.01519 0.29971 0.0
H39 H 0.57899 0.72146 0.23416 0.0
H40 H 0.57603 0.79873 0.11454 0.0
H41 H 0.53475 0.78595 0.36908 0.0
H42 H 0.51026 0.8384 0.23768 0.0
C43 C 0.52703 0.83234 0.1912 0.0
O44 O 0.54762 0.82201 0.24365 0.0
H45 H 0.51924 0.81665 0.14238 0.0
C46 C 0.57293 0.74235 0.23942 0.0
C47 C 0.55667 0.75133 0.31308 0.0
C48 C 0.57973 0.75918 0.16788 0.0
C49 C 0.57098 0.78578 0.17023 0.0
C50 C 0.5549 0.79566 0.24246 0.0
C51 C 0.54736 0.77832 0.31356 0.0
H52 H 0.21468 0.47208 0.12704 0.0
H53 H 0.29094 0.47235 0.26001 0.0
H54 H 0.27969 0.51725 0.01561 0.0
H55 H 0.31032 0.52884 0.24862 0.0
C56 C 0.32528 0.5225 0.19532 0.0
O57 O 0.31541 0.5014 0.14083 0.0
H58 H 0.32843 0.53994 0.15115 0.0
C59 C 0.23538 0.47838 0.1289 0.0
C60 C 0.24443 0.49611 0.06313 0.0
C61 C 0.25152 0.47036 0.20147 0.0
C62 C 0.27841 0.47821 0.20378 0.0
C63 C 0.28893 0.49466 0.13642 0.0
C64 C 0.27183 0.50387 0.06601 0.0
H65 H 0.04421 0.21902 0.18369 0.0
H66 H 0.04542 0.30155 0.27769 0.0
H67 H 0.04266 0.28222 0.98921 0.0
H68 H 0.06021 0.35378 0.06843 0.0
C69 C 0.0604 0.34146 0.1304 0.0
O70 O 0.04055 0.32197 0.12065 0.0
H71 H 0.08059 0.33192 0.1314 0.0
C72 C 0.04474 0.24013 0.16875 0.0
C73 C 0.04381 0.24765 0.07666 0.0
C74 C 0.04564 0.25932 0.24173 0.0
C75 C 0.0453 0.28657 0.22244 0.0
C76 C 0.04423 0.29515 0.13283 0.0
C77 C 0.04398 0.27566 0.05897 0.0
H78 H 0.33329 0.07049 0.1297 0.0
H79 H 0.25125 0.06188 0.21326 0.0
H80 H 0.27588 0.0352 0.94247 0.0
H81 H 0.1999 0.04857 1.00625 0.0
C82 C 0.21117 0.05245 0.07065 0.0
O83 O 0.23504 0.03769 0.06554 0.0
H84 H 0.21541 0.07434 0.07501 0.0
C85 C 0.31285 0.06489 0.11319 0.0
C86 C 0.30745 0.05277 0.02728 0.0
C87 C 0.29264 0.06861 0.17972 0.0
C88 C 0.26662 0.05999 0.16075 0.0
C89 C 0.2601 0.04831 0.0758 0.0
C90 C 0.28055 0.04497 1.00766 0.0
H91 H 0.4737 0.33449 0.08529 0.0
H92 H 0.4817 0.25986 0.2207 0.0
H93 H 0.52189 0.27093 0.96393 0.0
H94 H 0.51038 0.20242 0.03687 0.0
C95 C 0.50295 0.21337 0.09942 0.0
O96 O 0.51527 0.23838 0.10436 0.0
H97 H 0.48085 0.21554 0.09269 0.0
C98 C 0.4805 0.31385 0.08411 0.0
C99 C 0.49726 0.30467 1.0119 0.0
C100 C 0.47464 0.29796 0.15955 0.0
C101 C 0.48557 0.27213 0.1623 0.0
C102 C 0.50244 0.26217 0.09235 0.0
C103 C 0.50823 0.2784 0.01666 0.0
Tb104 Tb 0.05461 1.01889 0.7663 0.0
C105 C 0.98295 0.98497 0.50516 0.0
C106 C 1.00478 0.97955 0.35737 0.0
C107 C 0.97163 0.94714 0.40268 0.0
C108 C 1.0016 0.9935 0.44272 0.0
C109 C 0.9673 0.96195 0.48465 0.0
C110 C 0.99016 0.95608 0.33877 0.0
C111 C 0.9418 0.97156 0.62159 0.0
N112 N 0.97907 0.99998 0.58351 0.0
C113 C 0.95735 0.99442 0.63785 0.0
C114 C 0.94713 0.9549 0.54564 0.0
Tb115 Tb 1.0072 0.0367 0.60617 0.0
N116 N 1.01463 1.01685 0.4616 0.0
C117 C 0.02747 0.02918 0.39083 0.0
C118 C 0.0213 0.99043 0.29088 0.0
C119 C 0.03218 1.01572 0.30699 0.0
H120 H 0.95056 1.00782 0.69201 0.0
H121 H 0.0436 0.02524 0.254 0.0
H122 H 0.99221 0.9453 0.27352 0.0
H123 H 0.92517 0.96722 0.66653 0.0
H124 H 0.03429 0.04963 0.39774 0.0
H125 H 1.01219 0.0281 0.11137 0.0
H126 H 0.02438 0.98027 0.22493 0.0
H127 H 0.10748 0.05309 0.67805 0.0
H128 H 0.02329 1.00488 0.96764 0.0
H129 H 0.13267 0.09312 0.71412 0.0
H130 H 0.96 0.92932 0.38651 0.0
H131 H 0.0317 0.07245 0.14876 0.0
H132 H 0.06478 0.10749 0.10959 0.0
H133 H 0.93481 0.93738 0.53252 0.0
H134 H 0.09788 0.12497 1.00243 0.0
N135 N 0.04445 0.03788 0.91026 0.0
C136 C 0.03015 0.02523 0.97706 0.0
C137 C 0.03556 0.06288 0.0823 0.0
C138 C 0.05312 0.07418 0.01991 0.0
C139 C 0.02447 0.03797 0.06141 0.0
C140 C 0.05735 0.06101 0.93367 0.0
H141 H 0.1234 0.11965 0.8561 0.0
N142 N 0.08053 0.05691 0.79305 0.0
C143 C 0.1166 0.08727 0.75922 0.0
C144 C 0.07637 0.0705 0.87416 0.0
C145 C 0.10135 0.06452 0.73782 0.0
C146 C 0.11144 0.10208 0.83955 0.0
C147 C 0.09147 0.09358 0.89893 0.0
O148 O 0.09407 1.00687 0.79613 0.0
O149 O 0.02408 1.00218 0.67222 0.0
O150 O 0.98512 0.03455 0.73635 0.0
O151 O 1.01386 1.00711 0.81395 0.0
O152 O 0.06163 0.98597 0.66594 0.0
O153 O 0.06028 0.9884 0.85968 0.0
O154 O 0.96858 0.04983 0.56998 0.0
O155 O 0.03808 0.05349 0.69891 0.0
O156 O 0.07732 0.0206 0.6396 0.0
O157 O 0.04835 0.04385 0.54764 0.0
O158 O 1.0002 0.06903 0.70844 0.0
O159 O 1.00389 0.0692 0.51985 0.0
C160 C 0.03799 0.98361 0.63278 0.0
C161 C 0.09628 0.96029 0.81434 0.0
C162 C 0.08731 0.9141 0.76219 0.0
C163 C 0.07869 0.94055 0.78033 0.0
C164 C 0.11496 0.90854 0.76902 0.0
C165 C 0.12359 0.95434 0.82095 0.0
C166 C 0.13292 0.92868 0.79653 0.0
C167 C 0.9904 1.01953 0.80677 0.0
C168 C 0.08589 0.98689 0.84354 0.0
C169 C 0.08657 0.10722 0.98276 0.0
C170 C 0.06753 0.09745 0.04332 0.0
C171 C 0.02407 0.07189 0.7391 0.0
C172 C 0.96726 0.09691 0.56275 0.0
C173 C 0.98466 0.11687 0.59655 0.0
C174 C 0.97561 0.14311 0.61614 0.0
C175 C 0.94779 0.14808 0.61217 0.0
C176 C 0.93978 0.10231 0.55881 0.0
C177 C 0.93007 0.12765 0.5855 0.0
C178 C 0.0721 0.03259 0.56262 0.0
C179 C 0.97801 0.07072 0.53015 0.0
H180 H 0.05787 0.94573 0.77152 0.0
H181 H 0.12279 0.88848 0.75777 0.0
H182 H 0.13759 0.96944 0.84553 0.0
H183 H 0.15403 0.92406 0.80241 0.0
H184 H 1.00562 0.11207 0.60373 0.0
H185 H 0.93958 0.16792 0.62482 0.0
H186 H 0.92592 0.08705 0.53444 0.0
H187 H 0.90882 0.13183 0.58172 0.0
Tb188 Tb 0.54161 0.05502 0.7747 0.0
C189 C 0.54847 0.96132 0.51123 0.0
C190 C 0.57775 0.97735 0.39284 0.0
C191 C 0.57678 0.92989 0.42362 0.0
C192 C 0.55862 0.98236 0.46322 0.0
C193 C 0.55695 0.93475 0.49048 0.0
C194 C 0.58708 0.95115 0.37462 0.0
C195 C 0.523 0.9192 0.59369 0.0
N196 N 0.52873 0.9666 0.57318 0.0
C197 C 0.51501 0.94574 0.61073 0.0
C198 C 0.54437 0.91368 0.53434 0.0
Tb199 Tb 0.51708 1.01103 0.59961 0.0
N200 N 0.54854 1.00737 0.48123 0.0
C201 C 0.55636 0.02793 0.42662 0.0
C202 C 0.58629 0.99858 0.34037 0.0
C203 C 0.5753 0.02388 0.3567 0.0
H204 H 0.49827 0.94978 0.65612 0.0
H205 H 0.58152 0.04045 0.31562 0.0
H206 H 0.60176 0.94702 0.32107 0.0
H207 H 0.51248 0.90301 0.62562 0.0
H208 H 0.54925 0.04808 0.43619 0.0
H209 H 0.57795 0.02201 0.10337 0.0
H210 H 0.60089 0.99555 0.28584 0.0
H211 H 0.49421 0.10146 0.74208 0.0
H212 H 0.58216 0.03416 0.94135 0.0
H213 H 0.45444 0.11908 0.82245 0.0
H214 H 0.58362 0.90967 0.4071 0.0
H215 H 0.53462 0.02805 0.1846 0.0
H216 H 0.48738 0.0461 0.18361 0.0
H217 H 0.55032 0.89306 0.52021 0.0
H218 H 0.45346 0.07321 0.10648 0.0
N219 N 0.54135 0.0465 0.92984 0.0
C220 C 0.56326 0.03742 0.97662 0.0
C221 C 0.53639 0.03348 0.11359 0.0
C222 C 0.51491 0.04518 0.06828 0.0
C223 C 0.56091 0.03023 0.06817 0.0
C224 C 0.51834 0.05196 0.976 0.0
H225 H 0.44176 0.102 0.97377 0.0
N226 N 0.5049 0.07451 0.8467 0.0
C227 C 0.46678 0.10415 0.85409 0.0
C228 C 0.49939 0.06681 0.93283 0.0
C229 C 0.48958 0.09397 0.80853 0.0
C230 C 0.45961 0.09439 0.93925 0.0
C231 C 0.4763 0.07584 0.98057 0.0
O232 O 0.55017 0.09574 0.75122 0.0
O233 O 0.55107 0.03458 0.64392 0.0
O234 O 0.53317 0.98582 0.70947 0.0
O235 O 0.54109 1.01507 0.83346 0.0
O236 O 0.57912 0.03317 0.74181 0.0
O237 O 0.5752 0.07295 0.83642 0.0
O238 O 0.49079 0.98707 0.51887 0.0
O239 O 0.50575 0.03799 0.71366 0.0
O240 O 0.52924 0.07979 0.66077 0.0
O241 O 0.51634 0.05112 0.54009 0.0
O242 O 0.48977 1.00069 0.71147 0.0
O243 O 0.48345 0.02877 0.53938 0.0
C244 C 0.57461 0.02601 0.65799 0.0
C245 C 0.59695 0.10191 0.73621 0.0
C246 C 0.64291 0.09101 0.68893 0.0
C247 C 0.62116 0.08837 0.74932 0.0
C248 C 0.64105 0.10969 0.61929 0.0
C249 C 0.59535 0.12039 0.66592 0.0
C250 C 0.61742 0.12442 0.60848 0.0
C251 C 0.53947 0.99067 0.79645 0.0
C252 C 0.5732 0.09473 0.79128 0.0
C253 C 0.47142 0.06707 0.06948 0.0
C254 C 0.49071 0.05163 0.11334 0.0
C255 C 0.48861 0.0236 0.7541 0.0
C256 C 0.44624 1.00095 0.55274 0.0
C257 C 0.42642 0.02055 0.54395 0.0
C258 C 0.40248 1.01968 0.59512 0.0
C259 C 0.39835 0.99826 0.65374 0.0
C260 C 0.44127 0.97919 0.60915 0.0
C261 C 0.41751 0.97799 0.6596 0.0
C262 C 0.52103 0.07547 0.57555 0.0
C263 C 0.47313 1.00597 0.51443 0.0
H264 H 0.62289 0.07525 0.80661 0.0
H265 H 0.6575 0.11244 0.57195 0.0
H266 H 0.577 0.13136 0.65446 0.0
H267 H 0.61598 0.13854 0.55401 0.0
H268 H 0.43009 0.03677 0.49802 0.0
H269 H 0.38039 0.99718 0.69532 0.0
H270 H 0.45603 0.96359 0.61696 0.0
H271 H 0.41415 0.96152 0.70467 0.0
Tb272 Tb 0.55089 0.5202 0.56549 0.0
C273 C 0.44501 0.50667 0.7822 0.0
C274 C 0.41126 0.52745 0.68997 0.0
C275 C 0.39853 0.49264 0.79388 0.0
C276 C 0.43821 0.52488 0.71762 0.0
C277 C 0.42518 0.49087 0.8233 0.0
C278 C 0.3916 0.51082 0.72688 0.0
C279 C 0.45907 0.47435 0.92439 0.0
N280 N 0.47093 0.50545 0.80838 0.0
C281 C 0.4781 0.48979 0.87992 0.0
C282 C 0.43254 0.4745 0.89493 0.0
Tb283 Tb 0.50076 0.53318 0.73749 0.0
N284 N 0.4578 0.54082 0.68467 0.0
C285 C 0.45103 0.56092 0.6272 0.0
C286 C 0.40474 0.5471 0.62789 0.0
C287 C 0.42467 0.56412 0.59737 0.0
H288 H 0.49863 0.4892 0.90277 0.0
H289 H 0.41982 0.57968 0.55026 0.0
H290 H 0.37088 0.51238 0.70592 0.0
H291 H 0.46493 0.46222 0.98108 0.0
H292 H 0.46568 0.57408 0.59962 0.0
H293 H 0.63196 0.47378 0.75072 0.0
H294 H 0.38434 0.54964 0.60457 0.0
H295 H 0.55237 0.56534 0.40383 0.0
H296 H 0.586 0.47899 0.69969 0.0
H297 H 0.58586 0.59329 0.3279 0.0
H298 H 0.38305 0.48048 0.82391 0.0
H299 H 0.66705 0.50489 0.70026 0.0
H300 H 0.68014 0.54309 0.60218 0.0
H301 H 0.41785 0.46233 0.92907 0.0
H302 H 0.6677 0.57549 0.48613 0.0
N303 N 0.59367 0.51325 0.61956 0.0
C304 C 0.60062 0.49268 0.67475 0.0
C305 C 0.64666 0.5073 0.67674 0.0
C306 C 0.63996 0.52734 0.61628 0.0
C307 C 0.62695 0.48968 0.70509 0.0
C308 C 0.61302 0.52974 0.5884 0.0
H309 H 0.63284 0.59359 0.38103 0.0
N310 N 0.58012 0.54932 0.49847 0.0
C311 C 0.59177 0.58099 0.38408 0.0
C312 C 0.60602 0.5483 0.52507 0.0
C313 C 0.57288 0.56504 0.42717 0.0
C314 C 0.61824 0.58109 0.41424 0.0
C315 C 0.62571 0.56454 0.48527 0.0
O316 O 0.5538 0.51312 0.42386 0.0
O317 O 0.50858 0.51913 0.59923 0.0
O318 O 0.50116 0.48931 0.71226 0.0
O319 O 0.54314 0.4833 0.64395 0.0
O320 O 0.51847 0.53308 0.47467 0.0
O321 O 0.55852 0.48071 0.51621 0.0
O322 O 0.4966 0.54168 0.8784 0.0
O323 O 0.54308 0.53328 0.70454 0.0
O324 O 0.55084 0.5639 0.5946 0.0
O325 O 0.5079 0.56932 0.65502 0.0
O326 O 0.5326 0.51846 0.82718 0.0
O327 O 0.49903 0.57363 0.78441 0.0
C328 C 0.49857 0.52722 0.52588 0.0
C329 C 0.53503 0.47273 0.3767 0.0
C330 C 0.49451 0.44561 0.36441 0.0
C331 C 0.51407 0.45874 0.41824 0.0
C332 C 0.4956 0.44808 0.26833 0.0
C333 C 0.5357 0.47476 0.28125 0.0
C334 C 0.51588 0.46275 0.22754 0.0
C335 C 0.5218 0.47382 0.68762 0.0
C336 C 0.5551 0.48739 0.43137 0.0
C337 C 0.65234 0.56298 0.51512 0.0
C338 C 0.65943 0.5445 0.58101 0.0
C339 C 0.55276 0.52438 0.77725 0.0
C340 C 0.52529 0.57693 0.91996 0.0
C341 C 0.54189 0.59673 0.88369 0.0
C342 C 0.56553 0.60474 0.92899 0.0
C343 C 0.57291 0.59167 1.00927 0.0
C344 C 0.53288 0.56473 1.0014 0.0
C345 C 0.55672 0.57179 0.04474 0.0
C346 C 0.52976 0.57917 0.61566 0.0
C347 C 0.50156 0.5669 0.86937 0.0
H348 H 0.5132 0.45776 0.49211 0.0
H349 H 0.4816 0.4377 0.2235 0.0
H350 H 0.55142 0.48594 0.24836 0.0
H351 H 0.51654 0.4643 0.1538 0.0
H352 H 0.53637 0.60601 0.82043 0.0
H353 H 0.59057 0.59753 0.04753 0.0
H354 H 0.52063 0.54926 0.03065 0.0
H355 H 0.56246 0.56213 0.10701 0.0
Tb356 Tb 0.03357 0.54927 0.58197 0.0
C357 C 0.03397 0.45089 0.81284 0.0
C358 C 1.01853 0.41721 0.70296 0.0
C359 C 0.04625 0.4041 0.8302 0.0
C360 C 1.01987 0.44425 0.73453 0.0
C361 C 0.04691 0.43085 0.8627 0.0
C362 C 0.03211 0.3973 0.75037 0.0
C363 C 0.05845 0.46476 0.97698 0.0
N364 N 0.03399 0.47686 0.84262 0.0
C365 C 0.04528 0.48385 0.92551 0.0
C366 C 0.05953 0.43817 0.945 0.0
Tb367 Tb 1.01198 0.5071 0.7539 0.0
N368 N 1.00705 0.46413 0.69041 0.0
C369 C 0.99176 0.45763 0.61491 0.0
C370 C 1.00341 0.41087 0.62518 0.0
C371 C 0.98984 0.43116 0.58144 0.0
H372 H 0.04429 0.50431 0.95169 0.0
H373 H 0.97815 0.4265 0.52082 0.0
H374 H 0.03145 0.37652 0.72663 0.0
H375 H 0.06757 0.4705 0.04162 0.0
H376 H 0.98185 0.47252 0.57581 0.0
H377 H 0.13221 0.59534 0.57923 0.0
H378 H 1.00201 0.39041 0.59855 0.0
H379 H 0.97171 0.57858 0.61828 0.0
H380 H 0.09948 0.55973 0.54779 0.0
H381 H 0.95428 0.62215 0.66279 0.0
H382 H 0.0562 0.38847 0.86717 0.0
H383 H 0.11745 0.63871 0.64882 0.0
H384 H 0.07986 0.66857 0.70142 0.0
H385 H 0.06957 0.42336 0.98541 0.0
H386 H 0.03152 0.67607 0.72097 0.0
N387 N 0.06616 0.58166 0.60429 0.0
C388 C 0.09259 0.57837 0.57908 0.0
C389 C 0.10293 0.62296 0.63595 0.0
C390 C 0.07572 0.62718 0.65437 0.0
C391 C 0.11132 0.59857 0.59664 0.0
C392 C 0.05754 0.60598 0.63678 0.0
H393 H 0.98482 0.65933 0.70336 0.0
N394 N 1.01329 0.5895 0.62755 0.0
C395 C 0.97573 0.6191 0.65859 0.0
C396 C 0.03029 0.61019 0.64709 0.0
C397 C 0.98613 0.59398 0.63209 0.0
C398 C 0.99299 0.64001 0.68165 0.0
C399 C 0.02059 0.63578 0.67606 0.0
O400 O 1.01839 0.53918 0.45078 0.0
O401 O 0.02435 0.50772 0.61209 0.0
O402 O 0.0561 0.50916 0.77069 0.0
O403 O 0.06992 0.53919 0.66084 0.0
O404 O 0.0598 0.51503 0.54779 0.0
O405 O 0.04715 0.57021 0.4674 0.0
O406 O 0.99252 0.49405 0.87381 0.0
O407 O 1.01601 0.549 0.71744 0.0
O408 O 0.99095 0.54152 0.55237 0.0
O409 O 0.97755 0.51126 0.66201 0.0
O410 O 0.0298 0.53843 0.84235 0.0
O411 O 0.97404 0.52236 0.78829 0.0
C412 C 0.04483 0.49614 0.5765 0.0
C413 C 0.05168 0.54105 0.33845 0.0
C414 C 0.09106 0.51328 0.30325 0.0
C415 C 0.07651 0.53044 0.3629 0.0
C416 C 0.081 0.50832 0.21452 0.0
C417 C 0.04206 0.53608 0.24981 0.0
C418 C 0.05687 0.52003 0.18765 0.0
C419 C 0.07489 0.5234 0.73014 0.0
C420 C 0.03487 0.55463 0.40896 0.0
C421 C 0.03866 0.65649 0.69749 0.0
C422 C 0.06617 0.6522 0.68665 0.0
C423 C 0.02672 0.55849 0.7907 0.0
C424 C 0.9669 0.52937 0.94545 0.0
C425 C 0.94862 0.55038 0.93345 0.0
C426 C 0.94158 0.56814 1.00624 0.0
C427 C 0.95355 0.5647 0.09212 0.0
C428 C 0.97855 0.52624 0.03173 0.0
C429 C 0.97183 0.54388 0.10447 0.0
C430 C 0.97262 0.52607 0.59007 0.0
C431 C 0.97314 0.51112 0.86661 0.0
H432 H 0.08408 0.53485 0.43022 0.0
H433 H 0.09175 0.49555 0.16592 0.0
H434 H 0.02304 0.54428 0.22938 0.0
H435 H 0.04932 0.51616 0.11923 0.0
H436 H 0.93981 0.55287 0.86659 0.0
H437 H 0.94804 0.57733 0.15087 0.0
H438 H 0.99262 0.51015 0.04324 0.0
H439 H 0.98025 0.54104 0.17146 0.0
H440 H 0.16056 0.07197 0.1149 0.0
H441 H 0.22078 1.01696 0.21211 0.0
H442 H 0.19154 1.00653 0.34259 0.0
H443 H 0.13883 0.09808 0.33623 0.0
H444 H 0.10382 0.09985 0.30734 0.0
H445 H 0.12892 0.1028 0.21925 0.0
H446 H 0.1078 0.06308 0.1263 0.0
H447 H 0.0823 0.0609 0.21372 0.0
H448 H 0.10208 0.03183 0.18141 0.0
H449 H 0.15608 1.00156 0.46233 0.0
H450 H 0.11771 1.00283 0.56662 0.0
H451 H 0.07912 0.0624 0.40059 0.0
C452 C 0.16754 0.05766 0.16367 0.0
C453 C 0.19317 0.04529 0.15215 0.0
C454 C 0.20145 0.02675 0.21802 0.0
C455 C 0.18487 0.02066 0.29282 0.0
C456 C 0.15985 0.03317 0.30185 0.0
C457 C 0.15113 0.05132 0.23923 0.0
C458 C 0.12327 0.06194 0.26609 0.0
C459 C 0.12375 0.09248 0.28326 0.0
C460 C 0.10264 0.05397 0.19247 0.0
C461 C 0.11794 0.04731 0.3546 0.0
C462 C 0.13933 0.03063 0.37269 0.0
C463 C 0.13933 1.01466 0.44886 0.0
C464 C 0.11718 1.01567 0.5083 0.0
C465 C 0.09481 0.03273 0.49338 0.0
C466 C 0.0954 0.04884 0.41456 0.0
H467 H 0.49972 0.15847 0.11419 0.0
H468 H 0.51734 0.23051 0.27652 0.0
H469 H 0.52321 0.20325 0.41309 0.0
H470 H 0.46224 0.12599 0.29066 0.0
H471 H 0.4742 0.09281 0.26044 0.0
H472 H 0.47193 0.11785 0.17416 0.0
H473 H 0.52163 0.1099 0.1343 0.0
H474 H 0.5256 0.08601 0.22332 0.0
H475 H 0.54672 0.11509 0.22147 0.0
H476 H 0.52609 0.16812 0.53393 0.0
H477 H 0.5273 0.12833 0.62819 0.0
H478 H 0.50862 0.07792 0.38912 0.0
C479 C 0.50519 0.16846 0.17829 0.0
C480 C 0.50857 0.19672 0.18352 0.0
C481 C 0.51501 0.209 0.26954 0.0
C482 C 0.51834 0.19361 0.34789 0.0
C483 C 0.51498 0.16586 0.34008 0.0
C484 C 0.50861 0.15336 0.25739 0.0
C485 C 0.50562 0.12325 0.26825 0.0
C486 C 0.4768 0.11443 0.247 0.0
C487 C 0.52609 0.10766 0.20814 0.0
C488 C 0.51171 0.12065 0.36954 0.0
C489 C 0.51681 0.14556 0.40966 0.0
C490 C 0.52234 0.14853 0.50277 0.0
C491 C 0.52302 0.12558 0.55598 0.0
C492 C 0.51844 0.09956 0.51679 0.0
C493 C 0.51243 0.0973 0.42186 0.0
H494 H 0.37447 0.54809 0.18898 0.0
H495 H 0.33442 0.48218 0.31748 0.0
H496 H 0.37452 0.47475 0.41291 0.0
H497 H 0.4427 0.51871 0.18861 0.0
H498 H 0.45816 0.55076 0.21232 0.0
H499 H 0.42727 0.5489 0.14916 0.0
H500 H 0.40578 0.58241 0.26641 0.0
H501 H 0.43608 0.58386 0.33266 0.0
H502 H 0.40496 0.57458 0.38592 0.0
H503 H 0.41926 0.47649 0.50217 0.0
H504 H 0.46338 0.48695 0.57223 0.0
H505 H 0.47356 0.55209 0.38651 0.0
C506 C 0.37435 0.53165 0.23555 0.0
C507 C 0.35131 0.51534 0.24407 0.0
C508 C 0.35188 0.49456 0.30799 0.0
C509 C 0.37461 0.49031 0.36298 0.0
C510 C 0.39682 0.50702 0.35378 0.0
C511 C 0.39689 0.52715 0.29085 0.0
C512 C 0.42273 0.54311 0.2965 0.0
C513 C 0.43865 0.54019 0.20629 0.0
C514 C 0.41705 0.57274 0.3219 0.0
C515 C 0.43701 0.52927 0.37353 0.0
C516 C 0.42191 0.50835 0.40555 0.0
C517 C 0.4311 0.49289 0.47737 0.0
C518 C 0.45613 0.49908 0.5174 0.0
C519 C 0.47166 0.52075 0.48649 0.0
C520 C 0.462 0.53562 0.41251 0.0
H521 H 0.03143 0.38952 0.15132 0.0
H522 H 0.08233 0.3362 0.30176 0.0
H523 H 0.08197 0.36849 0.43401 0.0
H524 H 0.06176 0.45034 0.22793 0.0
H525 H 0.03106 0.46941 0.23673 0.0
H526 H 0.03362 0.44136 0.15661 0.0
H527 H 0.99178 0.42027 0.22945 0.0
H528 H 0.98917 0.44814 0.31069 0.0
H529 H 0.99126 0.4144 0.35056 0.0
H530 H 0.07954 0.40894 0.54609 0.0
H531 H 0.07286 0.45244 0.63029 0.0
H532 H 0.02252 0.47965 0.41136 0.0
C533 C 0.04198 0.38438 0.21294 0.0
C534 C 0.05671 0.35997 0.21601 0.0
C535 C 0.07064 0.35443 0.29768 0.0
C536 C 0.07066 0.37281 0.37318 0.0
C537 C 0.05649 0.39688 0.36724 0.0
C538 C 0.04215 0.4026 0.28944 0.0
C539 C 0.02922 0.4303 0.29991 0.0
C540 C 0.03955 0.44896 0.2259 0.0
C541 C 0.99853 0.42814 0.29751 0.0
C542 C 0.03883 0.43942 0.39485 0.0
C543 C 0.05455 0.41982 0.43255 0.0
C544 C 0.06679 0.42412 0.51771 0.0
C545 C 0.0628 0.44887 0.5655 0.0
C546 C 0.04618 0.46898 0.52978 0.0
C547 C 0.03438 0.46421 0.44243 0.0
H548 H 0.85466 0.05532 0.0875 0.0
H549 H 0.86583 0.98276 0.23764 0.0
H550 H 0.90638 0.97193 0.14428 0.0
H551 H 0.87736 0.02844 0.86325 0.0
H552 H 0.89368 0.05918 0.83391 0.0
H553 H 0.86491 0.0601 0.90892 0.0
H554 H 0.89246 0.08634 0.03175 0.0
H555 H 0.92135 0.08528 0.9574 0.0
H556 H 0.92357 0.07243 0.07102 0.0
H557 H 0.94781 0.97039 0.03646 0.0
H558 H 0.9842 0.97745 0.92392 0.0
H559 H 0.94605 0.05129 0.84495 0.0
C560 C 0.86529 0.03682 0.09944 0.0
C561 C 0.85653 1.01953 0.16897 0.0
C562 C 0.87164 0.99598 0.18372 0.0
C563 C 0.89485 0.98978 0.13119 0.0
C564 C 0.90302 1.00738 0.0638 0.0
C565 C 0.88851 0.03037 0.04756 0.0
C566 C 0.90186 0.04641 0.9731 0.0
C567 C 0.88335 0.04866 0.88986 0.0
C568 C 0.9103 0.07426 1.01058 0.0
C569 C 0.9262 0.02901 0.94996 0.0
C570 C 0.92661 1.00658 1.00306 0.0
C571 C 0.94751 0.9879 0.99469 0.0
C572 C 0.96829 0.99217 0.93074 0.0
C573 C 0.96833 1.01502 0.87537 0.0
C574 C 0.94676 0.03354 0.88559 0.0
H575 H 0.50318 0.85264 0.03883 0.0
H576 H 0.56875 0.86855 0.22599 0.0
H577 H 0.58001 0.90939 0.14215 0.0
H578 H 0.53517 0.87618 0.83134 0.0
H579 H 0.50475 0.89091 0.78956 0.0
H580 H 0.50311 0.86239 0.86179 0.0
H581 H 0.47186 0.88941 0.97357 0.0
H582 H 0.47389 0.91796 0.90157 0.0
H583 H 0.48289 0.9213 0.02072 0.0
H584 H 0.58376 0.94934 0.03682 0.0
H585 H 0.57866 0.98504 0.92465 0.0
H586 H 0.50948 0.94433 0.80993 0.0
C587 C 0.52021 0.86449 0.06117 0.0
C588 C 0.53559 0.85676 0.13749 0.0
C589 C 0.55711 0.87343 0.16644 0.0
C590 C 0.56359 0.8968 0.11922 0.0
C591 C 0.54822 0.90358 0.04355 0.0
C592 C 0.52685 0.88794 1.01505 0.0
C593 C 0.51275 0.90022 0.93422 0.0
C594 C 0.51404 0.88129 0.8492 0.0
C595 C 0.48363 0.90766 0.95904 0.0
C596 C 0.52959 0.92514 0.92097 0.0
C597 C 0.54996 0.92672 0.98473 0.0
C598 C 0.56781 0.9482 0.98693 0.0
C599 C 0.56464 0.96857 0.92325 0.0
C600 C 0.54371 0.96764 0.85802 0.0
C601 C 0.5261 0.94541 0.85694 0.0
H602 H 0.67586 0.50177 0.11682 0.0
H603 H 0.7166 0.56757 0.99002 0.0
H604 H 0.67633 0.57607 0.89639 0.0
H605 H 0.64471 0.47629 0.92006 0.0
H606 H 0.61355 0.4673 0.97369 0.0
H607 H 0.64394 0.46828 0.03946 0.0
H608 H 0.6226 0.50173 0.15738 0.0
H609 H 0.59175 0.50064 0.09382 0.0
H610 H 0.6078 0.53232 0.11872 0.0
H611 H 0.63181 0.57513 0.80749 0.0
H612 H 0.5879 0.56509 0.73553 0.0
H613 H 0.57691 0.49924 0.91777 0.0
C614 C 0.67608 0.51837 0.07089 0.0
C615 C 0.69941 0.53421 0.06158 0.0
C616 C 0.69893 0.55543 0.9994 0.0
C617 C 0.67614 0.5603 0.94555 0.0
C618 C 0.65373 0.54387 0.95463 0.0
C619 C 0.65347 0.52347 0.01657 0.0
C620 C 0.62743 0.50784 1.01034 0.0
C621 C 0.63273 0.47817 0.98432 0.0
C622 C 0.61145 0.51081 0.10041 0.0
C623 C 0.61339 0.52203 0.93355 0.0
C624 C 0.62868 0.54298 0.9028 0.0
C625 C 0.61981 0.55871 0.83129 0.0
C626 C 0.59492 0.55274 0.79008 0.0
C627 C 0.57931 0.5309 0.81909 0.0
C628 C 0.58858 0.5158 0.89307 0.0
H629 H 0.0645 0.68307 0.12722 0.0
H630 H 0.9799 0.70194 0.14827 0.0
H631 H 0.97015 0.66557 0.03351 0.0
H632 H 0.06626 0.66679 0.88467 0.0
H633 H 0.08934 0.6391 0.89232 0.0
H634 H 0.09059 0.66663 0.9752 0.0
H635 H 0.08444 0.63494 0.10932 0.0
H636 H 0.08443 0.60682 0.02895 0.0
H637 H 0.05688 0.61168 0.10805 0.0
H638 H 0.96974 0.62466 0.91934 0.0
H639 H 0.97871 0.5841 0.82147 0.0
H640 H 0.06351 0.59198 0.8737 0.0
C641 C 0.04393 0.67984 0.1066 0.0
C642 C 0.02308 0.696 0.14583 0.0
C643 C 0.99636 0.69044 0.11853 0.0
C644 C 0.99064 0.66968 0.05321 0.0
C645 C 1.01175 0.6543 0.01561 0.0
C646 C 0.0379 0.65916 0.04177 0.0
C647 C 0.05696 0.63924 0.99404 0.0
C648 C 0.07698 0.65379 0.9329 0.0
C649 C 0.07153 0.62216 0.06427 0.0
C650 C 0.03759 0.62231 0.93683 0.0
C651 C 1.01156 0.63129 0.95006 0.0
C652 C 0.99013 0.61793 0.9077 0.0
C653 C 0.9954 0.59495 0.85138 0.0
C654 C 0.02187 0.58546 0.83618 0.0
C655 C 0.04314 0.59934 0.88065 0.0
H656 H 0.06986 0.21591 0.31598 0.0
H657 H 1.01786 0.28327 0.38551 0.0
H658 H 1.00885 0.26468 0.5352 0.0
H659 H 0.02905 0.17096 0.36586 0.0
H660 H 0.0514 0.14676 0.41432 0.0
H661 H 0.06428 0.1706 0.33761 0.0
H662 H 0.09852 0.18606 0.46145 0.0
H663 H 0.08483 0.16233 0.53957 0.0
H664 H 0.08689 0.1973 0.57331 0.0
H665 H 0.99368 0.23394 0.65037 0.0
H666 H 0.96955 0.19399 0.69825 0.0
H667 H 0.02695 0.14425 0.54578 0.0
C668 C 0.05727 0.22709 0.36418 0.0
C669 C 0.0446 0.25096 0.33854 0.0
C670 C 0.02834 0.26519 0.40349 0.0
C671 C 0.02316 0.25479 0.48955 0.0
C672 C 0.03425 0.23006 0.51022 0.0
C673 C 0.05128 0.21645 0.44928 0.0
C674 C 0.05487 0.18758 0.47531 0.0
C675 C 0.04949 0.16788 0.39355 0.0
C676 C 0.08295 0.18307 0.51477 0.0
C677 C 0.03382 0.18607 0.54996 0.0
C678 C 0.02385 0.21114 0.57466 0.0
C679 C 1.00156 0.21425 0.63217 0.0
C680 C 0.98762 0.19132 0.65777 0.0
C681 C 0.99533 0.16566 0.62245 0.0
C682 C 0.02006 0.16317 0.5748 0.0
H683 H 0.27924 0.04429 0.33504 0.0
H684 H 0.32355 0.11147 0.23358 0.0
H685 H 0.34663 0.11656 0.38131 0.0
H686 H 0.28686 0.06631 0.60563 0.0
H687 H 0.2901 0.03125 0.62936 0.0
H688 H 0.26686 0.04193 0.54347 0.0
H689 H 0.28915 1.00917 0.4254 0.0
H690 H 0.31224 0.99868 0.50955 0.0
H691 H 0.32469 1.01168 0.40363 0.0
H692 H 0.37642 0.10333 0.49872 0.0
H693 H 0.4094 0.07343 0.56457 0.0
H694 H 0.34845 1.01268 0.5936 0.0
C695 C 0.29253 0.06112 0.34677 0.0
C696 C 0.29978 0.07743 0.27384 0.0
C697 C 0.31785 0.09875 0.2891 0.0
C698 C 0.3308 0.10193 0.37338 0.0
C699 C 0.32544 0.08362 0.44148 0.0
C700 C 0.30606 0.06393 0.42998 0.0
C701 C 0.3089 0.04255 0.50068 0.0
C702 C 0.28688 0.04572 0.57414 0.0
C703 C 0.30882 1.0139 0.45704 0.0
C704 C 0.33584 0.05024 0.54026 0.0
C705 C 0.3439 0.07514 0.51108 0.0
C706 C 0.37 0.08424 0.52405 0.0
C707 C 0.3888 0.06683 0.56035 0.0
C708 C 0.38155 0.04044 0.58286 0.0
C709 C 0.3544 0.03288 0.57861 0.0
H710 H 0.43235 0.33276 0.16439 0.0
H711 H 0.4879 0.29233 0.33977 0.0
H712 H 0.47881 0.32523 0.46277 0.0
H713 H 0.45497 0.38722 0.17708 0.0
H714 H 0.4264 0.40944 0.18567 0.0
H715 H 0.42233 0.37647 0.13814 0.0
H716 H 0.38541 0.3671 0.25711 0.0
H717 H 0.38941 0.40056 0.30558 0.0
H718 H 0.39197 0.37204 0.37767 0.0
H719 H 0.48432 0.36909 0.52548 0.0
H720 H 0.50364 0.41329 0.51056 0.0
H721 H 0.44373 0.43237 0.30944 0.0
C722 C 0.44144 0.33034 0.2307 0.0
C723 C 0.46121 0.31045 0.24165 0.0
C724 C 0.47258 0.3073 0.32908 0.0
C725 C 0.46745 0.3261 0.40005 0.0
C726 C 0.45099 0.34804 0.38283 0.0
C727 C 0.4372 0.34975 0.30086 0.0
C728 C 0.42684 0.37802 0.28842 0.0
C729 C 0.43311 0.38836 0.19182 0.0
C730 C 0.39662 0.37951 0.30845 0.0
C731 C 0.4423 0.39281 0.36345 0.0
C732 C 0.45418 0.37497 0.42207 0.0
C733 C 0.47452 0.3832 0.48193 0.0
C734 C 0.4855 0.40872 0.47298 0.0
C735 C 0.47592 0.42585 0.40502 0.0
C736 C 0.45195 0.41906 0.35915 0.0
H737 H 0.21551 0.42945 0.20894 0.0
H738 H 0.255 0.49009 0.37608 0.0
H739 H 0.21436 0.49667 0.46711 0.0
H740 H 0.16974 0.45778 0.15252 0.0
H741 H 0.14036 0.43707 0.16074 0.0
H742 H 0.17273 0.42181 0.15246 0.0
H743 H 0.1665 0.39721 0.30212 0.0
H744 H 0.13292 0.4106 0.31002 0.0
H745 H 0.15567 0.41528 0.40455 0.0
H746 H 0.17043 0.51531 0.47116 0.0
H747 H 0.12845 0.53494 0.42202 0.0
H748 H 0.11183 0.4634 0.25518 0.0
C749 C 0.21594 0.44237 0.26988 0.0
C750 C 0.23775 0.46004 0.2834 0.0
C751 C 0.23835 0.47663 0.3634 0.0
C752 C 0.21502 0.48068 0.4153 0.0
C753 C 0.19172 0.46741 0.38744 0.0
C754 C 0.19222 0.44714 0.31994 0.0
C755 C 0.16393 0.44063 0.28757 0.0
C756 C 0.16156 0.43932 0.18217 0.0
C757 C 0.15418 0.41438 0.32855 0.0
C758 C 0.14885 0.46427 0.33037 0.0
C759 C 0.16481 0.47841 0.3921 0.0
C760 C 0.15723 0.50359 0.42721 0.0
C761 C 0.13312 0.51471 0.3983 0.0
C762 C 0.1163 0.50062 0.33542 0.0
C763 C 0.12412 0.47473 0.30322 0.0
H764 H 0.98937 0.84292 0.05105 0.0
H765 H 0.03834 0.7736 0.97938 0.0
H766 H 0.04907 0.7927 0.83127 0.0
H767 H 0.97425 0.86303 0.79175 0.0
H768 H 0.97711 0.89777 0.82775 0.0
H769 H 0.96203 0.87407 0.90308 0.0
H770 H 0.99565 0.88802 0.03082 0.0
H771 H 1.00995 0.91175 0.95672 0.0
H772 H 0.03109 0.88664 1.00604 0.0
H773 H 0.06691 0.82384 0.72174 0.0
H774 H 0.09283 0.86327 0.67937 0.0
H775 H 0.03557 0.91404 0.82826 0.0
C776 C 1.00151 0.83144 1.00226 0.0
C777 C 1.01311 0.80698 0.02683 0.0
C778 C 0.02887 0.79228 0.96177 0.0
C779 C 0.03496 0.80295 0.87678 0.0
C780 C 0.02506 0.82828 0.85728 0.0
C781 C 1.00818 0.84221 0.91795 0.0
C782 C 1.00571 0.8713 0.8933 0.0
C783 C 0.97814 0.87685 0.85147 0.0
C784 C 1.01101 0.89049 0.97654 0.0
C785 C 0.0274 0.87247 0.82073 0.0
C786 C 0.03671 0.84721 0.79526 0.0
C787 C 0.05949 0.84368 0.74025 0.0
C788 C 0.07444 0.8663 0.71784 0.0
C789 C 0.06715 0.89202 0.75358 0.0
C790 C 0.0421 0.89505 0.7988 0.0
H791 H 0.70937 0.99784 0.02103 0.0
H792 H 0.78057 0.04643 0.99293 0.0
H793 H 0.76411 0.0622 0.84552 0.0
H794 H 0.6973 0.98296 0.77008 0.0
H795 H 0.66146 0.98708 0.78421 0.0
H796 H 0.68133 0.97401 0.87528 0.0
H797 H 0.66388 1.01055 0.98816 0.0
H798 H 0.64318 0.02353 0.89999 0.0
H799 H 0.66657 0.04528 0.95928 0.0
H800 H 0.73463 0.08312 0.73376 0.0
H801 H 0.69576 0.10538 0.66625 0.0
H802 H 0.64525 0.03943 0.74602 0.0
C803 C 0.72189 1.01103 0.982 0.0
C804 C 0.74624 0.02079 0.01796 0.0
C805 C 0.76204 0.03829 0.96582 0.0
C806 C 0.75283 0.04738 0.8819 0.0
C807 C 0.728 0.03848 0.85042 0.0
C808 C 0.71293 1.02033 0.89835 0.0
C809 C 0.68522 1.0172 0.85861 0.0
C810 C 0.68109 0.98862 0.81946 0.0
C811 C 0.66347 0.0246 0.93076 0.0
C812 C 0.68649 0.03759 0.78408 0.0
C813 C 0.71137 0.04963 0.7801 0.0
C814 C 0.71537 0.07323 0.7331 0.0
C815 C 0.69312 0.08578 0.69453 0.0
C816 C 0.66731 0.07447 0.70256 0.0
C817 C 0.66465 0.0489 0.74048 0.0
H818 H 0.55526 0.75001 1.0082 0.0
H819 H 0.63003 0.73836 0.14795 0.0
H820 H 0.64257 0.70275 0.03537 0.0
H821 H 0.53653 0.69279 1.00563 0.0
H822 H 0.52106 0.6884 0.8947 0.0
H823 H 0.52466 0.72124 0.94395 0.0
H824 H 0.55031 0.73573 0.80012 0.0
H825 H 0.54713 0.70238 0.74993 0.0
H826 H 0.57971 0.71754 0.76166 0.0
H827 H 0.63941 0.65971 0.95712 0.0
H828 H 0.61982 0.61484 0.94 0.0
H829 H 0.54457 0.65021 0.85942 0.0
C830 C 0.57505 0.74111 1.00992 0.0
C831 C 0.59195 0.74699 0.08453 0.0
C832 C 0.61719 0.73441 0.0895 0.0
C833 C 0.62442 0.71417 0.0254 0.0
C834 C 0.60601 0.70651 0.95769 0.0
C835 C 0.58185 0.72006 0.94839 0.0
C836 C 0.56239 0.7037 0.89023 0.0
C837 C 0.53461 0.70136 0.93664 0.0
C838 C 0.55974 0.71553 0.79482 0.0
C839 C 0.57724 0.67719 0.88395 0.0
C840 C 0.60324 0.67989 0.91565 0.0
C841 C 0.6193 0.65752 0.93068 0.0
C842 C 0.60786 0.632 0.92195 0.0
C843 C 0.58032 0.6291 0.90152 0.0
C844 C 0.56568 0.65176 0.87458 0.0
H845 H 0.7938 0.5835 0.98622 0.0
H846 H 0.8064 0.64178 0.20526 0.0
H847 H 0.84868 0.65526 0.13489 0.0
H848 H 0.84365 0.55398 1.00386 0.0
H849 H 0.85449 0.54576 0.88823 0.0
H850 H 0.8202 0.55327 0.90995 0.0
H851 H 0.82118 0.59115 0.79385 0.0
H852 H 0.85583 0.58326 0.76945 0.0
H853 H 0.84622 0.61701 0.80308 0.0
H854 H 0.89501 0.64561 0.09821 0.0
H855 H 0.93628 0.61862 0.08806 0.0
H856 H 0.89673 0.56238 0.90195 0.0
C857 C 0.80454 0.60068 1.01408 0.0
C858 C 0.79753 0.61117 0.10144 0.0
C859 C 0.81163 0.63349 0.13805 0.0
C860 C 0.83597 0.64103 0.09858 0.0
C861 C 0.8455 0.62626 0.02221 0.0
C862 C 0.8296 0.60714 0.97745 0.0
C863 C 0.84642 0.58877 0.91532 0.0
C864 C 0.84089 0.55874 0.93063 0.0
C865 C 0.84217 0.59547 0.81446 0.0
C866 C 0.87418 0.59699 0.94609 0.0
C867 C 0.8734 0.61981 1.00244 0.0
C868 C 0.89593 0.62829 0.05177 0.0
C869 C 0.91923 0.61253 0.04699 0.0
C870 C 0.91971 0.58813 0.99493 0.0
C871 C 0.89732 0.58121 0.94048 0.0
H872 H 1.00997 0.20378 0.06838 0.0
H873 H 0.07482 0.2402 0.91934 0.0
H874 H 0.07707 0.19992 0.81472 0.0
H875 H 0.03317 0.14116 0.06981 0.0
H876 H 1.00333 0.12182 0.04633 0.0
H877 H 1.00094 0.15454 0.10148 0.0
H878 H 0.97084 0.17431 0.981 0.0
H879 H 0.96886 0.1413 0.9277 0.0
H880 H 0.97889 0.16939 0.8612 0.0
H881 H 0.07345 0.15257 0.73 0.0
H882 H 0.0633 0.10605 0.67476 0.0
H883 H 1.00161 0.10079 0.88222 0.0
C884 C 0.02437 0.20359 1.01269 0.0
C885 C 0.04224 0.22552 1.00274 0.0
C886 C 0.06069 0.22408 0.92849 0.0
C887 C 0.06221 0.20106 0.86889 0.0
C888 C 0.04487 0.17948 0.88282 0.0
C889 C 0.02587 0.18096 0.95201 0.0
C890 C 1.00976 0.15511 0.95439 0.0
C891 C 1.01193 0.14233 0.04847 0.0
C892 C 0.98034 0.16034 0.9296 0.0
C893 C 0.02354 0.13813 0.8794 0.0
C894 C 0.0434 0.15263 0.83722 0.0
C895 C 0.05813 0.14115 0.76383 0.0
C896 C 0.05248 0.11449 0.73331 0.0
C897 C 0.03254 0.0991 0.77668 0.0
C898 C 1.01766 0.11156 0.84959 0.0
H899 H 0.3506 1.01866 0.04624 0.0
H900 H 0.31861 0.07837 0.86776 0.0
H901 H 0.36177 0.07861 0.78245 0.0
H902 H 0.41576 0.04328 0.06293 0.0
H903 H 0.4333 1.01162 0.05791 0.0
H904 H 0.39958 1.01356 0.10227 0.0
H905 H 0.3831 0.97782 0.98536 0.0
H906 H 0.41681 0.97417 0.94185 0.0
H907 H 0.38982 0.98163 0.86516 0.0
H908 H 0.41098 0.0763 0.73 0.0
H909 H 0.45708 0.06299 0.68397 0.0
H910 H 0.45768 1.004 0.89483 0.0
C911 C 0.35244 0.03121 0.98745 0.0
C912 C 0.33087 0.04823 0.96288 0.0
C913 C 0.33444 0.06479 0.88685 0.0
C914 C 0.3591 0.06529 0.83879 0.0
C915 C 0.38019 0.04894 0.86677 0.0
C916 C 0.3768 0.03156 0.93761 0.0
C917 C 0.4025 1.01567 0.95291 0.0
C918 C 0.41345 0.02136 0.04976 0.0
C919 C 0.39777 0.98553 0.93525 0.0
C920 C 0.42101 0.02695 0.88044 0.0
C921 C 0.40786 0.04646 0.83267 0.0
C922 C 0.42104 0.06036 0.76451 0.0
C923 C 0.44754 0.0531 0.74037 0.0
C924 C 0.46155 0.03309 0.78762 0.0
C925 C 0.44783 1.01979 0.85849 0.0
H926 H 0.46534 0.34258 0.93015 0.0
H927 H 0.54691 0.3125 0.93164 0.0
H928 H 0.56093 0.34994 0.8354 0.0
H929 H 0.46774 0.36954 0.69426 0.0
H930 H 0.44739 0.39823 0.72634 0.0
H931 H 0.44268 0.36696 0.78273 0.0
H932 H 0.45124 0.38977 0.94368 0.0
H933 H 0.45292 0.42055 0.88447 0.0
H934 H 0.48016 0.41105 0.95788 0.0
H935 H 0.56671 0.39346 0.74867 0.0
H936 H 0.56439 0.43862 0.68642 0.0
H937 H 0.47959 0.44271 0.75196 0.0
C938 C 0.48614 0.34354 0.90927 0.0
C939 C 0.50496 0.32426 0.93928 0.0
C940 C 0.53189 0.32647 0.90905 0.0
C941 C 0.5401 0.34791 0.85462 0.0
C942 C 0.52119 0.36711 0.82986 0.0
C943 C 0.49468 0.36492 0.85565 0.0
C944 C 0.47859 0.38904 0.82554 0.0
C945 C 0.45787 0.38043 0.75291 0.0
C946 C 0.465 0.40347 0.90797 0.0
C947 C 0.50045 0.40609 0.78373 0.0
C948 C 0.52471 0.39263 0.78422 0.0
C949 C 0.5478 0.40412 0.74854 0.0
C950 C 0.54627 0.43005 0.71342 0.0
C951 C 0.522 0.44497 0.71586 0.0
C952 C 0.49866 0.43234 0.75022 0.0
H953 H 0.19199 0.5109 0.0988 0.0
H954 H 0.24945 0.50349 0.87551 0.0
H955 H 0.21285 0.51212 0.7653 0.0
H956 H 0.14405 0.47363 0.99309 0.0
H957 H 0.11418 0.49159 0.02676 0.0
H958 H 0.14277 0.49235 0.10106 0.0
H959 H 0.149 0.54253 0.10659 0.0
H960 H 0.11759 0.54472 0.04712 0.0
H961 H 0.1469 0.561 1.00278 0.0
H962 H 0.16783 0.51866 0.6781 0.0
H963 H 0.1208 0.52184 0.62567 0.0
H964 H 0.09322 0.5204 0.90701 0.0
C965 C 0.19718 0.5113 0.02677 0.0
C966 C 0.22394 0.50626 0.99634 0.0
C967 C 0.22941 0.5075 0.90125 0.0
C968 C 0.2086 0.51219 0.83803 0.0
C969 C 0.18229 0.51565 0.87058 0.0
C970 C 0.17668 0.51537 0.96319 0.0
C971 C 0.1467 0.51729 0.98131 0.0
C972 C 0.13637 0.4922 0.02837 0.0
C973 C 0.13964 0.54292 0.03776 0.0
C974 C 0.13606 0.51858 0.8846 0.0
C975 C 0.15682 0.518 0.82136 0.0
C976 C 0.15162 0.51917 0.72761 0.0
C977 C 0.12477 0.52104 0.69834 0.0
C978 C 0.10322 0.52125 0.7621 0.0
C979 C 0.10914 0.51991 0.85641 0.0
H980 H 0.0508 0.85273 0.29843 0.0
H981 H 0.98524 0.81679 0.44541 0.0
H982 H 0.98349 0.8567 0.55155 0.0
H983 H 0.08199 0.88573 0.50805 0.0
H984 H 0.0927 0.91397 0.44346 0.0
H985 H 0.0903 0.88124 0.3883 0.0
H986 H 0.06068 0.9019 0.26786 0.0
H987 H 0.05919 0.93446 0.32454 0.0
H988 H 0.02883 0.91616 0.29972 0.0
H989 H 0.98754 0.90365 0.63778 0.0
H990 H 0.99808 0.94994 0.69463 0.0
H991 H 0.06038 0.95497 0.48914 0.0
C992 C 0.03635 0.85294 0.35398 0.0
C993 C 1.01815 0.83125 0.36296 0.0
C994 C 0.99964 0.83271 0.43707 0.0
C995 C 0.99839 0.85553 0.49751 0.0
C996 C 1.01605 0.8769 0.48458 0.0
C997 C 0.0351 0.87539 0.41553 0.0
C998 C 0.05165 0.90099 0.41474 0.0
C999 C 0.08089 0.89513 0.44014 0.0
C1000 C 0.04999 0.91421 0.32129 0.0
C1001 C 0.03797 0.9179 0.49012 0.0
C1002 C 1.01784 0.90353 0.53137 0.0
C1003 C 1.00311 0.91496 0.60484 0.0
C1004 C 1.00902 0.94146 0.63636 0.0
C1005 C 0.02924 0.95671 0.5939 0.0
C1006 C 0.04413 0.9443 0.52097 0.0
H1007 H 0.71362 0.98474 0.39494 0.0
H1008 H 0.71605 0.06659 0.30546 0.0
H1009 H 0.6734 0.07629 0.38665 0.0
H1010 H 0.64305 0.976 0.37453 0.0
H1011 H 0.63862 0.95681 0.47613 0.0
H1012 H 0.67014 0.95579 0.41544 0.0
H1013 H 0.69532 0.97074 0.56094 0.0
H1014 H 0.66422 0.97131 0.62403 0.0
H1015 H 0.68507 1.00087 0.62264 0.0
H1016 H 0.62771 0.07582 0.46169 0.0
H1017 H 0.5874 0.06882 0.55688 0.0
H1018 H 0.61431 0.98826 0.61036 0.0
C1019 C 0.70558 1.00491 0.39503 0.0
C1020 C 0.7187 0.02512 0.34505 0.0
C1021 C 0.70685 0.05097 0.34458 0.0
C1022 C 0.68236 0.05657 0.38965 0.0
C1023 C 0.66956 0.03614 0.43578 0.0
C1024 C 0.681 1.01098 0.44075 0.0
C1025 C 0.66297 0.99285 0.49642 0.0
C1026 C 0.6531 0.96894 0.43709 0.0
C1027 C 0.67777 0.98337 0.58119 0.0
C1028 C 0.63984 1.01181 0.52275 0.0
C1029 C 0.64384 0.03644 0.48449 0.0
C1030 C 0.62476 0.05685 0.49401 0.0
C1031 C 0.60174 0.05262 0.54767 0.0
C1032 C 0.59742 0.02801 0.5909 0.0
C1033 C 0.61686 1.00728 0.57788 0.0
H1034 H 0.58798 0.7127 0.39244 0.0
H1035 H 0.50665 0.74325 0.38949 0.0
H1036 H 0.49187 0.70482 0.48017 0.0
H1037 H 0.57357 0.64491 0.35666 0.0
H1038 H 0.60005 0.63439 0.43149 0.0
H1039 H 0.60247 0.66586 0.37689 0.0
H1040 H 0.60934 0.68728 0.54139 0.0
H1041 H 0.60466 0.65508 0.59171 0.0
H1042 H 0.58372 0.683 0.62703 0.0
H1043 H 0.48535 0.66018 0.55943 0.0
H1044 H 0.48713 0.61431 0.61562 0.0
H1045 H 0.57247 0.61092 0.5586 0.0
C1046 C 0.5671 0.71164 0.41231 0.0
C1047 C 0.54851 0.73126 0.38327 0.0
C1048 C 0.52143 0.72894 0.41151 0.0
C1049 C 0.51283 0.70698 0.46276 0.0
C1050 C 0.53152 0.68746 0.48661 0.0
C1051 C 0.55821 0.68984 0.46327 0.0
C1052 C 0.57404 0.66537 0.4918 0.0
C1053 C 0.5883 0.65183 0.40909 0.0
C1054 C 0.59414 0.67316 0.56745 0.0
C1055 C 0.55185 0.64787 0.52922 0.0
C1056 C 0.52763 0.6614 0.52835 0.0
C1057 C 0.50425 0.6495 0.55996 0.0
C1058 C 0.50547 0.62314 0.59151 0.0
C1059 C 0.52976 0.60823 0.58969 0.0
C1060 C 0.55338 0.62125 0.55947 0.0
H1061 H 0.85516 0.55622 0.23166 0.0
H1062 H 0.7978 0.53021 0.43433 0.0
H1063 H 0.83546 0.51735 0.53429 0.0
H1064 H 0.90691 0.50644 0.27059 0.0
H1065 H 0.93413 0.52957 0.2569 0.0
H1066 H 0.90322 0.53435 0.19621 0.0
H1067 H 0.89849 0.58216 0.26535 0.0
H1068 H 0.92954 0.57827 0.32564 0.0
H1069 H 0.8995 0.5876 0.38796 0.0
H1070 H 0.88025 0.50995 0.61673 0.0
H1071 H 0.92668 0.50884 0.6736 0.0
H1072 H 0.95462 0.54309 0.4212 0.0
C1073 C 0.85029 0.54781 0.29705 0.0
C1074 C 0.82311 0.54455 0.32498 0.0
C1075 C 0.81816 0.53278 0.41042 0.0
C1076 C 0.83954 0.52559 0.46804 0.0
C1077 C 0.86593 0.5302 0.43965 0.0
C1078 C 0.8713 0.54098 0.35575 0.0
C1079 C 0.90125 0.5453 0.34263 0.0
C1080 C 0.912 0.52787 0.26175 0.0
C1081 C 0.90755 0.5751 0.32967 0.0
C1082 C 0.91205 0.53575 0.43316 0.0
C1083 C 0.89139 0.52673 0.48762 0.0
C1084 C 0.89646 0.5169 0.57423 0.0
C1085 C 0.92306 0.51632 0.60599 0.0
C1086 C 0.94463 0.52586 0.55232 0.0
C1087 C 0.93879 0.53568 0.46443 0.0
loop_
_geom_bond_atom_site_label_1
_geom_bond_atom_site_label_2
_geom_bond_distance
_geom_bond_site_symmetry_2
_ccdc_geom_bond_type
H0 C7 0.929 . S
H1 C10 0.930 . S
H2 C12 0.929 . S
H3 C4 0.969 . S
C4 H3 0.969 . S
C4 O5 1.550 . S
C4 H6 0.973 . S
O5 C4 1.550 . S
O5 C11 1.412 . S
H6 C4 0.973 . S
C7 H0 0.929 . S
C7 C8 1.400 . S
C7 C9 1.364 . S
C8 C7 1.400 . S
C8 C12 1.377 . S
C9 C7 1.364 . S
C9 C10 1.374 . S
C10 H1 0.930 . S
C10 C9 1.374 . S
C10 C11 1.383 . S
C11 O5 1.412 . S
C11 C10 1.383 . S
C11 C12 1.394 . S
C12 H2 0.929 . S
C12 C8 1.377 . S
C12 C11 1.394 . S
H13 C20 0.929 . S
H14 C23 0.930 . S
H15 C25 0.929 . S
H16 C17 0.969 . S
C17 H16 0.969 . S
C17 O18 1.550 . S
C17 H19 0.973 . S
O18 C17 1.550 . S
O18 C24 1.412 . S
H19 C17 0.973 . S
C20 H13 0.929 . S
C20 C21 1.400 . S
C20 C22 1.364 . S
C21 C20 1.400 . S
C21 C25 1.377 . S
C22 C20 1.364 . S
C22 C23 1.374 . S
C23 H14 0.930 . S
C23 C22 1.374 . S
C23 C24 1.383 . S
C24 O18 1.412 . S
C24 C23 1.383 . S
C24 C25 1.394 . S
C25 H15 0.929 . S
C25 C21 1.377 . S
C25 C24 1.394 . S
H26 C33 0.929 . S
H27 C36 0.930 . S
H28 C38 0.929 . S
H29 C30 0.969 . S
C30 H29 0.969 . S
C30 O31 1.550 . S
C30 H32 0.973 . S
O31 C30 1.550 . S
O31 C37 1.412 . S
H32 C30 0.973 . S
C33 H26 0.929 . S
C33 C34 1.400 . S
C33 C35 1.364 . S
C34 C33 1.400 . S
C34 C38 1.377 . S
C35 C33 1.364 . S
C35 C36 1.374 . S
C36 H27 0.930 . S
C36 C35 1.374 . S
C36 C37 1.383 . S
C37 O31 1.412 . S
C37 C36 1.383 . S
C37 C38 1.394 . S
C38 H28 0.929 . S
C38 C34 1.377 . S
C38 C37 1.394 . S
H39 C46 0.929 . S
H40 C49 0.930 . S
H41 C51 0.929 . S
H42 C43 0.969 . S
C43 H42 0.969 . S
C43 O44 1.550 . S
C43 H45 0.973 . S
O44 C43 1.550 . S
O44 C50 1.412 . S
H45 C43 0.973 . S
C46 H39 0.929 . S
C46 C47 1.400 . S
C46 C48 1.364 . S
C47 C46 1.400 . S
C47 C51 1.377 . S
C48 C46 1.364 . S
C48 C49 1.374 . S
C49 H40 0.930 . S
C49 C48 1.374 . S
C49 C50 1.383 . S
C50 O44 1.412 . S
C50 C49 1.383 . S
C50 C51 1.394 . S
C51 H41 0.929 . S
C51 C47 1.377 . S
C51 C50 1.394 . S
H52 C59 0.929 . S
H53 C62 0.930 . S
H54 C64 0.929 . S
H55 C56 0.969 . S
C56 H55 0.969 . S
C56 O57 1.550 . S
C56 H58 0.973 . S
O57 C56 1.550 . S
O57 C63 1.412 . S
H58 C56 0.973 . S
C59 H52 0.929 . S
C59 C60 1.400 . S
C59 C61 1.364 1_556 S
C60 C59 1.400 . S
C60 C64 1.377 . S
C61 C59 1.364 1_554 S
C61 C62 1.374 . S
C62 H53 0.930 . S
C62 C61 1.374 . S
C62 C63 1.383 . S
C63 O57 1.412 . S
C63 C62 1.383 . S
C63 C64 1.394 1_554 S
C64 H54 0.929 . S
C64 C60 1.377 . S
C64 C63 1.394 1_556 S
H65 C72 0.929 . S
H66 C75 0.930 . S
H67 C77 0.929 . S
H68 C69 0.969 . S
C69 H68 0.969 . S
C69 O70 1.551 . S
C69 H71 0.973 . S
O70 C69 1.551 . S
O70 C76 1.412 1_554 S
H71 C69 0.973 . S
C72 H65 0.929 . S
C72 C73 1.400 . S
C72 C74 1.364 1_556 S
C73 C72 1.400 . S
C73 C77 1.377 . S
C74 C72 1.364 1_554 S
C74 C75 1.374 . S
C75 H66 0.930 . S
C75 C74 1.374 . S
C75 C76 1.384 1_554 S
C76 O70 1.412 1_556 S
C76 C75 1.384 1_556 S
C76 C77 1.393 . S
C77 H67 0.929 . S
C77 C73 1.377 . S
C77 C76 1.393 . S
H78 C85 0.929 . S
H79 C88 0.930 . S
H80 C90 0.929 . S
H81 C82 0.969 . S
C82 H81 0.969 . S
C82 O83 1.550 1_554 S
C82 H84 0.973 . S
O83 C82 1.550 1_556 S
O83 C89 1.412 . S
H84 C82 0.973 . S
C85 H78 0.929 . S
C85 C86 1.400 . S
C85 C87 1.364 1_556 S
C86 C85 1.400 . S
C86 C90 1.377 . S
C87 C85 1.364 1_554 S
C87 C88 1.374 . S
C88 H79 0.930 . S
C88 C87 1.374 . S
C88 C89 1.383 1_554 S
C89 O83 1.412 . S
C89 C88 1.383 1_556 S
C89 C90 1.394 . S
C90 H80 0.929 . S
C90 C86 1.377 . S
C90 C89 1.394 . S
H91 C98 0.929 . S
H92 C101 0.930 . S
H93 C103 0.929 . S
H94 C95 0.969 . S
C95 H94 0.969 . S
C95 O96 1.550 . S
C95 H97 0.973 . S
O96 C95 1.550 . S
O96 C102 1.412 . S
H97 C95 0.973 . S
C98 H91 0.929 . S
C98 C99 1.400 . S
C98 C100 1.364 1_556 S
C99 C98 1.400 . S
C99 C103 1.377 . S
C100 C98 1.364 1_554 S
C100 C101 1.374 . S
C101 H92 0.930 . S
C101 C100 1.374 . S
C101 C102 1.383 . S
C102 O96 1.412 . S
C102 C101 1.383 . S
C102 C103 1.394 1_554 S
C103 H93 0.929 . S
C103 C99 1.377 . S
C103 C102 1.394 1_556 S
Tb104 N135 2.660 1_565 S
Tb104 N142 2.590 1_565 S
Tb104 O148 2.546 . S
Tb104 O149 2.610 1_455 S
Tb104 O151 2.320 1_455 S
Tb104 O152 2.552 . S
Tb104 O153 2.413 . S
Tb104 O155 2.362 1_565 S
Tb104 O156 2.421 . S
Tb104 C168 2.833 . S
C105 C108 1.432 1_545 S
C105 C109 1.408 1_545 S
C105 N112 1.359 . S
C106 C108 1.417 . S
C106 C110 1.432 . S
C106 C118 1.410 . S
C107 C109 1.465 . S
C107 C110 1.317 . S
C107 H130 0.929 . S
C108 C105 1.432 1_565 S
C108 C106 1.417 . S
C108 N116 1.368 . S
C109 C105 1.408 1_565 S
C109 C107 1.465 . S
C109 C114 1.370 1_565 S
C110 C106 1.432 . S
C110 C107 1.317 . S
C110 H122 0.930 . S
C111 C113 1.392 . S
C111 C114 1.370 . S
C111 H123 0.931 . S
N112 C105 1.359 . S
N112 C113 1.327 . S
N112 Tb115 2.600 . S
C113 C111 1.392 . S
C113 N112 1.327 . S
C113 H120 0.930 . S
C114 C109 1.370 1_545 S
C114 C111 1.370 . S
C114 H133 0.930 . S
Tb115 N112 2.600 . S
Tb115 N116 2.639 1_545 S
Tb115 O149 2.362 1_545 S
Tb115 O150 2.421 . S
Tb115 O154 2.546 . S
Tb115 O155 2.610 1_655 S
Tb115 O157 2.320 1_655 S
Tb115 O158 2.552 1_655 S
Tb115 O159 2.413 . S
Tb115 C179 2.833 . S
N116 C108 1.368 . S
N116 Tb115 2.639 1_565 S
N116 C117 1.320 1_655 S
C117 N116 1.320 1_455 S
C117 C119 1.407 . S
C117 H124 0.930 . S
C118 C106 1.410 . S
C118 C119 1.345 1_655 S
C118 H126 0.930 . S
C119 C117 1.407 . S
C119 C118 1.345 1_455 S
C119 H121 0.930 . S
H120 C113 0.930 . S
H121 C119 0.930 . S
H122 C110 0.930 . S
H123 C111 0.931 . S
H124 C117 0.930 . S
H125 C139 0.930 1_655 S
H126 C118 0.930 . S
H127 C145 0.930 . S
H128 C136 0.930 1_655 S
H129 C143 0.931 . S
H130 C107 0.929 . S
H131 C137 0.930 . S
H132 C170 0.930 . S
H133 C114 0.930 . S
H134 C169 0.929 . S
N135 Tb104 2.660 1_545 S
N135 C136 1.305 . S
N135 C140 1.360 . S
C136 H128 0.930 1_455 S
C136 N135 1.305 . S
C136 C139 1.407 1_556 S
C137 H131 0.930 . S
C137 C138 1.410 . S
C137 C139 1.345 . S
C138 C137 1.410 . S
C138 C140 1.417 1_554 S
C138 C170 1.432 . S
C139 H125 0.930 1_455 S
C139 C136 1.407 1_554 S
C139 C137 1.345 . S
C140 N135 1.360 . S
C140 C138 1.417 1_556 S
C140 C144 1.432 . S
H141 C146 0.930 . S
N142 Tb104 2.590 1_545 S
N142 C144 1.382 . S
N142 C145 1.311 1_545 S
C143 H129 0.931 . S
C143 C145 1.392 . S
C143 C146 1.370 1_565 S
C144 C140 1.432 . S
C144 N142 1.382 . S
C144 C147 1.414 . S
C145 H127 0.930 . S
C145 N142 1.311 1_565 S
C145 C143 1.392 . S
C146 H141 0.930 . S
C146 C143 1.370 1_545 S
C146 C147 1.385 . S
C147 C144 1.414 . S
C147 C146 1.385 . S
C147 C169 1.444 1_556 S
O148 Tb104 2.546 . S
O148 C168 1.251 . S
O149 Tb104 2.610 1_655 S
O149 Tb115 2.362 1_565 S
O149 C160 1.283 . S
O150 Tb115 2.421 . S
O150 C167 1.262 . S
O151 Tb104 2.320 1_655 S
O151 C167 1.260 1_565 S
O152 Tb104 2.552 . S
O152 C160 1.243 1_455 S
O153 Tb104 2.413 . S
O153 C168 1.256 . S
O154 Tb115 2.546 . S
O154 C179 1.251 . S
O155 Tb104 2.362 1_545 S
O155 Tb115 2.610 1_455 S
O155 C171 1.283 . S
O156 Tb104 2.421 . S
O156 C178 1.262 1_565 S
O157 Tb115 2.320 1_455 S
O157 C178 1.260 . S
O158 Tb115 2.552 1_455 S
O158 C171 1.243 . S
O159 Tb115 2.413 . S
O159 C179 1.256 . S
C160 O149 1.283 . S
C160 O152 1.243 1_655 S
C161 C163 1.382 . S
C161 C165 1.393 . S
C161 C168 1.500 . S
C162 C163 1.400 . S
C162 C164 1.384 1_556 S
C163 C161 1.382 . S
C163 C162 1.400 . S
C163 H180 0.957 . S
C164 C162 1.384 1_554 S
C164 C166 1.392 1_554 S
C164 H181 0.931 . S
C165 C161 1.393 . S
C165 C166 1.401 . S
C165 H182 0.930 . S
C166 C164 1.392 1_556 S
C166 C165 1.401 . S
C166 H183 0.930 . S
C167 O150 1.262 . S
C167 O151 1.260 1_545 S
C168 Tb104 2.833 . S
C168 O148 1.251 . S
C168 O153 1.256 . S
C168 C161 1.500 . S
C169 H134 0.929 . S
C169 C147 1.444 1_554 S
C169 C170 1.317 . S
C170 H132 0.930 . S
C170 C138 1.432 . S
C170 C169 1.317 . S
C171 O155 1.283 . S
C171 O158 1.243 . S
C172 C173 1.382 . S
C172 C176 1.393 . S
C172 C179 1.500 . S
C173 C172 1.382 . S
C173 C174 1.400 . S
C173 H184 0.930 1_655 S
C174 C173 1.400 . S
C174 C175 1.384 . S
C175 C174 1.384 . S
C175 C177 1.392 . S
C175 H185 0.931 . S
C176 C172 1.393 . S
C176 C177 1.401 . S
C176 H186 0.930 . S
C177 C175 1.392 . S
C177 C176 1.401 . S
C177 H187 0.930 . S
C178 O156 1.262 1_545 S
C178 O157 1.260 . S
C179 Tb115 2.833 . S
C179 O154 1.251 . S
C179 O159 1.256 . S
C179 C172 1.500 . S
H180 C163 0.957 . S
H181 C164 0.931 . S
H182 C165 0.930 . S
H183 C166 0.930 . S
H184 C173 0.930 1_455 S
H185 C175 0.931 . S
H186 C176 0.930 . S
H187 C177 0.930 . S
Tb188 N219 2.660 . S
Tb188 N226 2.600 . S
Tb188 O232 2.546 . S
Tb188 O233 2.610 1_545 S
Tb188 O235 2.320 1_545 S
Tb188 O236 2.552 . S
Tb188 O237 2.413 . S
Tb188 O239 2.362 . S
Tb188 O240 2.421 . S
Tb188 C252 2.833 . S
C189 C192 1.432 . S
C189 C193 1.414 . S
C189 N196 1.359 . S
C190 C192 1.417 . S
C190 C194 1.432 . S
C190 C202 1.410 . S
C191 C193 1.444 . S
C191 C194 1.317 . S
C191 H214 0.929 . S
C192 C189 1.432 . S
C192 C190 1.417 . S
C192 N200 1.360 . S
C193 C189 1.414 . S
C193 C191 1.444 . S
C193 C198 1.385 . S
C194 C190 1.432 . S
C194 C191 1.317 . S
C194 H206 0.930 . S
C195 C197 1.392 . S
C195 C198 1.370 . S
C195 H207 0.931 . S
N196 C189 1.359 . S
N196 C197 1.327 . S
N196 Tb199 2.600 . S
C197 C195 1.392 . S
C197 N196 1.327 . S
C197 H204 0.930 . S
C198 C193 1.385 . S
C198 C195 1.370 . S
C198 H217 0.930 . S
Tb199 N196 2.600 . S
Tb199 N200 2.660 . S
Tb199 O233 2.362 . S
Tb199 O234 2.421 . S
Tb199 O238 2.546 . S
Tb199 O239 2.610 1_565 S
Tb199 O241 2.320 1_565 S
Tb199 O242 2.552 1_565 S
Tb199 O243 2.413 . S
Tb199 C263 2.833 . S
N200 C192 1.360 . S
N200 Tb199 2.660 . S
N200 C201 1.305 1_565 S
C201 N200 1.305 1_545 S
C201 C203 1.407 . S
C201 H208 0.930 . S
C202 C190 1.410 . S
C202 C203 1.345 1_565 S
C202 H210 0.930 . S
C203 C201 1.407 . S
C203 C202 1.345 1_545 S
C203 H205 0.930 . S
H204 C197 0.930 . S
H205 C203 0.930 . S
H206 C194 0.930 . S
H207 C195 0.931 . S
H208 C201 0.930 . S
H209 C223 0.930 1_565 S
H210 C202 0.930 . S
H211 C229 0.930 . S
H212 C220 0.930 1_565 S
H213 C227 0.931 . S
H214 C191 0.929 . S
H215 C221 0.930 . S
H216 C254 0.930 . S
H217 C198 0.930 . S
H218 C253 0.929 . S
N219 Tb188 2.660 . S
N219 C220 1.305 . S
N219 C224 1.360 . S
C220 H212 0.930 1_545 S
C220 N219 1.305 . S
C220 C223 1.407 1_556 S
C221 H215 0.930 . S
C221 C222 1.410 . S
C221 C223 1.345 . S
C222 C221 1.410 . S
C222 C224 1.417 1_554 S
C222 C254 1.432 . S
C223 H209 0.930 1_545 S
C223 C220 1.407 1_554 S
C223 C221 1.345 . S
C224 N219 1.360 . S
C224 C222 1.417 1_556 S
C224 C228 1.432 . S
H225 C230 0.930 . S
N226 Tb188 2.600 . S
N226 C228 1.359 . S
N226 C229 1.327 . S
C227 H213 0.931 . S
C227 C229 1.392 . S
C227 C230 1.370 . S
C228 C224 1.432 . S
C228 N226 1.359 . S
C228 C231 1.414 . S
C229 H211 0.930 . S
C229 N226 1.327 . S
C229 C227 1.392 . S
C230 H225 0.930 . S
C230 C227 1.370 . S
C230 C231 1.385 . S
C231 C228 1.414 . S
C231 C230 1.385 . S
C231 C253 1.444 1_556 S
O232 Tb188 2.546 . S
O232 C252 1.251 . S
O233 Tb188 2.610 1_565 S
O233 Tb199 2.362 . S
O233 C244 1.283 . S
O234 Tb199 2.421 . S
O234 C251 1.262 . S
O235 Tb188 2.320 1_565 S
O235 C251 1.260 . S
O236 Tb188 2.552 . S
O236 C244 1.243 1_545 S
O237 Tb188 2.413 . S
O237 C252 1.256 . S
O238 Tb199 2.546 . S
O238 C263 1.251 . S
O239 Tb188 2.362 . S
O239 Tb199 2.610 1_545 S
O239 C255 1.283 . S
O240 Tb188 2.421 . S
O240 C262 1.262 . S
O241 Tb199 2.320 1_545 S
O241 C262 1.260 . S
O242 Tb199 2.552 1_545 S
O242 C255 1.243 . S
O243 Tb199 2.413 . S
O243 C263 1.256 . S
C244 O233 1.283 . S
C244 O236 1.243 1_565 S
C245 C247 1.382 . S
C245 C249 1.393 . S
C245 C252 1.500 . S
C246 C247 1.400 . S
C246 C248 1.384 1_556 S
C247 C245 1.382 . S
C247 C246 1.400 . S
C247 H264 0.930 . S
C248 C246 1.384 1_554 S
C248 C250 1.392 1_554 S
C248 H265 0.931 . S
C249 C245 1.393 . S
C249 C250 1.401 . S
C249 H266 0.930 . S
C250 C248 1.392 1_556 S
C250 C249 1.401 . S
C250 H267 0.930 . S
C251 O234 1.262 . S
C251 O235 1.260 . S
C252 Tb188 2.833 . S
C252 O232 1.251 . S
C252 O237 1.256 . S
C252 C245 1.500 . S
C253 H218 0.929 . S
C253 C231 1.444 1_554 S
C253 C254 1.317 . S
C254 H216 0.930 . S
C254 C222 1.432 . S
C254 C253 1.317 . S
C255 O239 1.283 . S
C255 O242 1.243 . S
C256 C257 1.382 . S
C256 C260 1.393 . S
C256 C263 1.500 . S
C257 C256 1.382 . S
C257 C258 1.400 . S
C257 H268 0.930 1_565 S
C258 C257 1.400 . S
C258 C259 1.384 . S
C259 C258 1.384 . S
C259 C261 1.392 . S
C259 H269 0.931 . S
C260 C256 1.393 . S
C260 C261 1.401 . S
C260 H270 0.930 . S
C261 C259 1.392 . S
C261 C260 1.401 . S
C261 H271 0.930 . S
C262 O240 1.262 . S
C262 O241 1.260 . S
C263 Tb199 2.833 . S
C263 O238 1.251 . S
C263 O243 1.256 . S
C263 C256 1.500 . S
H264 C247 0.930 . S
H265 C248 0.931 . S
H266 C249 0.930 . S
H267 C250 0.930 . S
H268 C257 0.930 1_545 S
H269 C259 0.931 . S
H270 C260 0.930 . S
H271 C261 0.930 . S
Tb272 N303 2.660 . S
Tb272 N310 2.600 . S
Tb272 O316 2.546 . S
Tb272 O317 2.610 . S
Tb272 O319 2.320 . S
Tb272 O320 2.552 . S
Tb272 O321 2.413 . S
Tb272 O323 2.362 . S
Tb272 O324 2.421 . S
Tb272 C336 2.833 . S
C273 C276 1.432 . S
C273 C277 1.414 . S
C273 N280 1.359 . S
C274 C276 1.417 . S
C274 C278 1.432 . S
C274 C286 1.410 . S
C275 C277 1.444 . S
C275 C278 1.317 . S
C275 H298 0.929 . S
C276 C273 1.432 . S
C276 C274 1.417 . S
C276 N284 1.360 . S
C277 C273 1.414 . S
C277 C275 1.444 . S
C277 C282 1.385 . S
C278 C274 1.432 . S
C278 C275 1.317 . S
C278 H290 0.930 . S
C279 C281 1.392 . S
C279 C282 1.370 . S
C279 H291 0.931 . S
N280 C273 1.359 . S
N280 C281 1.327 . S
N280 Tb283 2.600 . S
C281 C279 1.392 . S
C281 N280 1.327 . S
C281 H288 0.930 . S
C282 C277 1.385 . S
C282 C279 1.370 . S
C282 H301 0.930 . S
Tb283 N280 2.600 . S
Tb283 N284 2.660 . S
Tb283 O317 2.362 . S
Tb283 O318 2.421 . S
Tb283 O322 2.546 . S
Tb283 O323 2.610 . S
Tb283 O325 2.320 . S
Tb283 O326 2.552 . S
Tb283 O327 2.413 . S
Tb283 C347 2.833 . S
N284 C276 1.360 . S
N284 Tb283 2.660 . S
N284 C285 1.305 . S
C285 N284 1.305 . S
C285 C287 1.407 . S
C285 H292 0.930 . S
C286 C274 1.410 . S
C286 C287 1.345 . S
C286 H294 0.930 . S
C287 C285 1.407 . S
C287 C286 1.345 . S
C287 H289 0.930 . S
H288 C281 0.930 . S
H289 C287 0.930 . S
H290 C278 0.930 . S
H291 C279 0.931 . S
H292 C285 0.930 . S
H293 C307 0.930 . S
H294 C286 0.930 . S
H295 C313 0.930 . S
H296 C304 0.930 . S
H297 C311 0.931 . S
H298 C275 0.929 . S
H299 C305 0.930 . S
H300 C338 0.930 . S
H301 C282 0.930 . S
H302 C337 0.929 . S
N303 Tb272 2.660 . S
N303 C304 1.305 . S
N303 C308 1.360 . S
C304 H296 0.930 . S
C304 N303 1.305 . S
C304 C307 1.407 . S
C305 H299 0.930 . S
C305 C306 1.410 . S
C305 C307 1.345 . S
C306 C305 1.410 . S
C306 C308 1.417 . S
C306 C338 1.432 . S
C307 H293 0.930 . S
C307 C304 1.407 . S
C307 C305 1.345 . S
C308 N303 1.360 . S
C308 C306 1.417 . S
C308 C312 1.432 . S
H309 C314 0.930 . S
N310 Tb272 2.600 . S
N310 C312 1.359 . S
N310 C313 1.327 . S
C311 H297 0.931 . S
C311 C313 1.392 . S
C311 C314 1.370 . S
C312 C308 1.432 . S
C312 N310 1.359 . S
C312 C315 1.414 . S
C313 H295 0.930 . S
C313 N310 1.327 . S
C313 C311 1.392 . S
C314 H309 0.930 . S
C314 C311 1.370 . S
C314 C315 1.385 . S
C315 C312 1.414 . S
C315 C314 1.385 . S
C315 C337 1.444 . S
O316 Tb272 2.546 . S
O316 C336 1.251 . S
O317 Tb272 2.610 . S
O317 Tb283 2.362 . S
O317 C328 1.283 . S
O318 Tb283 2.421 . S
O318 C335 1.262 . S
O319 Tb272 2.320 . S
O319 C335 1.260 . S
O320 Tb272 2.552 . S
O320 C328 1.243 . S
O321 Tb272 2.413 . S
O321 C336 1.256 . S
O322 Tb283 2.546 . S
O322 C347 1.251 . S
O323 Tb272 2.362 . S
O323 Tb283 2.610 . S
O323 C339 1.283 . S
O324 Tb272 2.421 . S
O324 C346 1.262 . S
O325 Tb283 2.320 . S
O325 C346 1.260 . S
O326 Tb283 2.552 . S
O326 C339 1.243 . S
O327 Tb283 2.413 . S
O327 C347 1.256 . S
C328 O317 1.283 . S
C328 O320 1.243 . S
C329 C331 1.382 . S
C329 C333 1.393 . S
C329 C336 1.500 . S
C330 C331 1.400 . S
C330 C332 1.384 . S
C331 C329 1.382 . S
C331 C330 1.400 . S
C331 H348 0.930 . S
C332 C330 1.384 . S
C332 C334 1.392 . S
C332 H349 0.931 . S
C333 C329 1.393 . S
C333 C334 1.401 . S
C333 H350 0.930 . S
C334 C332 1.392 . S
C334 C333 1.401 . S
C334 H351 0.930 . S
C335 O318 1.262 . S
C335 O319 1.260 . S
C336 Tb272 2.833 . S
C336 O316 1.251 . S
C336 O321 1.256 . S
C336 C329 1.500 . S
C337 H302 0.929 . S
C337 C315 1.444 . S
C337 C338 1.317 . S
C338 H300 0.930 . S
C338 C306 1.432 . S
C338 C337 1.317 . S
C339 O323 1.283 . S
C339 O326 1.243 . S
C340 C341 1.382 . S
C340 C344 1.393 1_556 S
C340 C347 1.500 . S
C341 C340 1.382 . S
C341 C342 1.400 1_556 S
C341 H352 0.930 . S
C342 C341 1.400 1_554 S
C342 C343 1.384 . S
C343 C342 1.384 . S
C343 C345 1.392 . S
C343 H353 0.931 . S
C344 C340 1.393 1_554 S
C344 C345 1.401 . S
C344 H354 0.930 . S
C345 C343 1.392 . S
C345 C344 1.401 . S
C345 H355 0.930 . S
C346 O324 1.262 . S
C346 O325 1.260 . S
C347 Tb283 2.833 . S
C347 O322 1.251 . S
C347 O327 1.256 . S
C347 C340 1.500 . S
H348 C331 0.930 . S
H349 C332 0.931 . S
H350 C333 0.930 . S
H351 C334 0.930 . S
H352 C341 0.930 . S
H353 C343 0.931 . S
H354 C344 0.930 . S
H355 C345 0.930 . S
Tb356 N387 2.660 . S
Tb356 N394 2.600 . S
Tb356 O400 2.546 . S
Tb356 O401 2.610 . S
Tb356 O403 2.320 . S
Tb356 O404 2.552 . S
Tb356 O405 2.413 . S
Tb356 O407 2.362 . S
Tb356 O408 2.421 1_455 S
Tb356 C420 2.833 . S
C357 C360 1.432 . S
C357 C361 1.414 . S
C357 N364 1.359 . S
C358 C360 1.417 . S
C358 C362 1.432 . S
C358 C370 1.410 . S
C359 C361 1.444 . S
C359 C362 1.317 . S
C359 H382 0.929 . S
C360 C357 1.432 . S
C360 C358 1.417 . S
C360 N368 1.360 . S
C361 C357 1.414 . S
C361 C359 1.444 . S
C361 C366 1.385 1_655 S
C362 C358 1.432 . S
C362 C359 1.317 . S
C362 H374 0.930 . S
C363 C365 1.392 . S
C363 C366 1.370 . S
C363 H375 0.931 . S
N364 C357 1.359 . S
N364 C365 1.327 1_655 S
N364 Tb367 2.600 . S
C365 C363 1.392 . S
C365 N364 1.327 1_455 S
C365 H372 0.930 . S
C366 C361 1.385 1_455 S
C366 C363 1.370 . S
C366 H385 0.930 . S
Tb367 N364 2.600 . S
Tb367 N368 2.660 . S
Tb367 O401 2.362 1_655 S
Tb367 O402 2.421 1_655 S
Tb367 O406 2.546 . S
Tb367 O407 2.610 1_655 S
Tb367 O409 2.320 . S
Tb367 O410 2.552 . S
Tb367 O411 2.413 . S
Tb367 C431 2.833 . S
N368 C360 1.360 . S
N368 Tb367 2.660 . S
N368 C369 1.305 . S
C369 N368 1.305 . S
C369 C371 1.407 . S
C369 H376 0.930 . S
C370 C358 1.410 . S
C370 C371 1.345 . S
C370 H378 0.930 . S
C371 C369 1.407 . S
C371 C370 1.345 . S
C371 H373 0.930 . S
H372 C365 0.930 . S
H373 C371 0.930 . S
H374 C362 0.930 . S
H375 C363 0.931 . S
H376 C369 0.930 . S
H377 C391 0.930 . S
H378 C370 0.930 . S
H379 C397 0.926 1_655 S
H380 C388 0.930 . S
H381 C395 0.931 . S
H382 C359 0.929 . S
H383 C389 0.930 . S
H384 C422 0.930 . S
H385 C366 0.930 . S
H386 C421 0.929 . S
N387 Tb356 2.660 . S
N387 C388 1.305 . S
N387 C392 1.360 . S
C388 H380 0.930 . S
C388 N387 1.305 . S
C388 C391 1.407 . S
C389 H383 0.930 . S
C389 C390 1.410 . S
C389 C391 1.345 . S
C390 C389 1.410 . S
C390 C392 1.417 . S
C390 C422 1.432 . S
C391 H377 0.930 . S
C391 C388 1.407 . S
C391 C389 1.345 . S
C392 N387 1.360 . S
C392 C390 1.417 . S
C392 C396 1.432 . S
H393 C398 0.930 . S
N394 Tb356 2.600 . S
N394 C396 1.359 . S
N394 C397 1.332 . S
C395 H381 0.931 . S
C395 C397 1.391 1_655 S
C395 C398 1.370 1_655 S
C396 C392 1.432 . S
C396 N394 1.359 . S
C396 C399 1.414 . S
C397 H379 0.926 1_455 S
C397 N394 1.332 . S
C397 C395 1.391 1_455 S
C398 H393 0.930 . S
C398 C395 1.370 1_455 S
C398 C399 1.385 . S
C399 C396 1.414 . S
C399 C398 1.385 . S
C399 C421 1.444 . S
O400 Tb356 2.546 . S
O400 C420 1.251 . S
O401 Tb356 2.610 . S
O401 Tb367 2.362 1_455 S
O401 C412 1.283 . S
O402 Tb367 2.421 1_455 S
O402 C419 1.262 . S
O403 Tb356 2.320 . S
O403 C419 1.260 . S
O404 Tb356 2.552 . S
O404 C412 1.243 . S
O405 Tb356 2.413 . S
O405 C420 1.256 . S
O406 Tb367 2.546 . S
O406 C431 1.251 . S
O407 Tb356 2.362 . S
O407 Tb367 2.610 1_455 S
O407 C423 1.283 1_455 S
O408 Tb356 2.421 1_655 S
O408 C430 1.262 . S
O409 Tb367 2.320 . S
O409 C430 1.260 . S
O410 Tb367 2.552 . S
O410 C423 1.243 . S
O411 Tb367 2.413 . S
O411 C431 1.256 . S
C412 O401 1.283 . S
C412 O404 1.243 . S
C413 C415 1.382 . S
C413 C417 1.393 . S
C413 C420 1.500 . S
C414 C415 1.400 . S
C414 C416 1.384 . S
C415 C413 1.382 . S
C415 C414 1.400 . S
C415 H432 0.930 . S
C416 C414 1.384 . S
C416 C418 1.392 . S
C416 H433 0.931 . S
C417 C413 1.393 . S
C417 C418 1.401 . S
C417 H434 0.930 . S
C418 C416 1.392 . S
C418 C417 1.401 . S
C418 H435 0.930 . S
C419 O402 1.262 . S
C419 O403 1.260 . S
C420 Tb356 2.833 . S
C420 O400 1.251 . S
C420 O405 1.256 . S
C420 C413 1.500 . S
C421 H386 0.929 . S
C421 C399 1.444 . S
C421 C422 1.317 . S
C422 H384 0.930 . S
C422 C390 1.432 . S
C422 C421 1.317 . S
C423 O407 1.283 1_655 S
C423 O410 1.243 . S
C424 C425 1.382 . S
C424 C428 1.393 1_556 S
C424 C431 1.500 . S
C425 C424 1.382 . S
C425 C426 1.400 1_556 S
C425 H436 0.930 . S
C426 C425 1.400 1_554 S
C426 C427 1.384 . S
C427 C426 1.384 . S
C427 C429 1.392 . S
C427 H437 0.931 . S
C428 C424 1.393 1_554 S
C428 C429 1.401 . S
C428 H438 0.930 . S
C429 C427 1.392 . S
C429 C428 1.401 . S
C429 H439 0.930 . S
C430 O408 1.262 . S
C430 O409 1.260 . S
C431 Tb367 2.833 . S
C431 O406 1.251 . S
C431 O411 1.256 . S
C431 C424 1.500 . S
H432 C415 0.930 . S
H433 C416 0.931 . S
H434 C417 0.930 . S
H435 C418 0.930 . S
H436 C425 0.930 . S
H437 C427 0.931 . S
H438 C428 0.930 . S
H439 C429 0.930 . S
H440 C452 0.930 . S
H441 C454 0.930 . S
H442 C455 0.930 . S
H443 C459 0.959 . S
H444 C459 0.959 . S
H445 C459 0.961 . S
H446 C460 0.960 . S
H447 C460 0.961 . S
H448 C460 0.959 . S
H449 C463 0.929 . S
H450 C464 0.931 1_565 S
H451 C466 0.930 . S
C452 H440 0.930 . S
C452 C453 1.399 . S
C452 C457 1.399 . S
C453 C452 1.399 . S
C453 C454 1.376 . S
C454 H441 0.930 . S
C454 C453 1.376 . S
C454 C455 1.388 . S
C455 H442 0.930 . S
C455 C454 1.388 . S
C455 C456 1.390 . S
C456 C455 1.390 . S
C456 C457 1.394 . S
C456 C462 1.465 . S
C457 C452 1.399 . S
C457 C456 1.394 . S
C457 C458 1.516 . S
C458 C457 1.516 . S
C458 C459 1.502 . S
C458 C460 1.561 . S
C458 C461 1.526 . S
C459 H443 0.959 . S
C459 H444 0.959 . S
C459 H445 0.961 . S
C459 C458 1.502 . S
C460 H446 0.960 . S
C460 H447 0.961 . S
C460 H448 0.959 . S
C460 C458 1.561 . S
C461 C458 1.526 . S
C461 C462 1.396 . S
C461 C466 1.390 . S
C462 C456 1.465 . S
C462 C461 1.396 . S
C462 C463 1.399 . S
C463 H449 0.929 . S
C463 C462 1.399 . S
C463 C464 1.385 . S
C464 H450 0.931 1_545 S
C464 C463 1.385 . S
C464 C465 1.389 . S
C465 C464 1.389 . S
C465 C466 1.387 . S
C466 H451 0.930 . S
C466 C461 1.390 . S
C466 C465 1.387 . S
H467 C479 0.930 . S
H468 C481 0.930 . S
H469 C482 0.930 . S
H470 C486 0.959 . S
H471 C486 0.959 . S
H472 C486 0.961 . S
H473 C487 0.960 . S
H474 C487 0.961 . S
H475 C487 0.959 . S
H476 C490 0.929 . S
H477 C491 0.931 . S
H478 C493 0.930 . S
C479 H467 0.930 . S
C479 C480 1.399 . S
C479 C484 1.399 . S
C480 C479 1.399 . S
C480 C481 1.376 . S
C481 H468 0.930 . S
C481 C480 1.376 . S
C481 C482 1.388 . S
C482 H469 0.930 . S
C482 C481 1.388 . S
C482 C483 1.390 . S
C483 C482 1.390 . S
C483 C484 1.394 . S
C483 C489 1.465 . S
C484 C479 1.399 . S
C484 C483 1.394 . S
C484 C485 1.516 . S
C485 C484 1.516 . S
C485 C486 1.502 . S
C485 C487 1.561 . S
C485 C488 1.526 . S
C486 H470 0.959 . S
C486 H471 0.959 . S
C486 H472 0.961 . S
C486 C485 1.502 . S
C487 H473 0.960 . S
C487 H474 0.961 . S
C487 H475 0.959 . S
C487 C485 1.561 . S
C488 C485 1.526 . S
C488 C489 1.396 . S
C488 C493 1.390 . S
C489 C483 1.465 . S
C489 C488 1.396 . S
C489 C490 1.399 . S
C490 H476 0.929 . S
C490 C489 1.399 . S
C490 C491 1.385 . S
C491 H477 0.931 . S
C491 C490 1.385 . S
C491 C492 1.389 . S
C492 C491 1.389 . S
C492 C493 1.387 . S
C493 H478 0.930 . S
C493 C488 1.390 . S
C493 C492 1.387 . S
H494 C506 0.930 . S
H495 C508 0.930 . S
H496 C509 0.930 . S
H497 C513 0.959 . S
H498 C513 0.959 . S
H499 C513 0.961 . S
H500 C514 0.960 . S
H501 C514 0.961 . S
H502 C514 0.959 . S
H503 C517 0.929 . S
H504 C518 0.931 . S
H505 C520 0.930 . S
C506 H494 0.930 . S
C506 C507 1.399 . S
C506 C511 1.399 . S
C507 C506 1.399 . S
C507 C508 1.376 . S
C508 H495 0.930 . S
C508 C507 1.376 . S
C508 C509 1.388 . S
C509 H496 0.930 . S
C509 C508 1.388 . S
C509 C510 1.390 . S
C510 C509 1.390 . S
C510 C511 1.394 . S
C510 C516 1.465 . S
C511 C506 1.399 . S
C511 C510 1.394 . S
C511 C512 1.516 . S
C512 C511 1.516 . S
C512 C513 1.502 . S
C512 C514 1.561 . S
C512 C515 1.526 . S
C513 H497 0.959 . S
C513 H498 0.959 . S
C513 H499 0.961 . S
C513 C512 1.502 . S
C514 H500 0.960 . S
C514 H501 0.961 . S
C514 H502 0.959 . S
C514 C512 1.561 . S
C515 C512 1.526 . S
C515 C516 1.396 . S
C515 C520 1.390 . S
C516 C510 1.465 . S
C516 C515 1.396 . S
C516 C517 1.399 . S
C517 H503 0.929 . S
C517 C516 1.399 . S
C517 C518 1.385 . S
C518 H504 0.931 . S
C518 C517 1.385 . S
C518 C519 1.389 . S
C519 C518 1.389 . S
C519 C520 1.387 . S
C520 H505 0.930 . S
C520 C515 1.390 . S
C520 C519 1.387 . S
H521 C533 0.930 . S
H522 C535 0.930 . S
H523 C536 0.930 . S
H524 C540 0.959 . S
H525 C540 0.959 . S
H526 C540 0.961 . S
H527 C541 0.960 . S
H528 C541 0.961 . S
H529 C541 0.959 . S
H530 C544 0.929 1_655 S
H531 C545 0.931 1_655 S
H532 C547 0.930 . S
C533 H521 0.930 . S
C533 C534 1.399 . S
C533 C538 1.399 . S
C534 C533 1.399 . S
C534 C535 1.376 . S
C535 H522 0.930 . S
C535 C534 1.376 . S
C535 C536 1.388 . S
C536 H523 0.930 . S
C536 C535 1.388 . S
C536 C537 1.390 . S
C537 C536 1.390 . S
C537 C538 1.394 . S
C537 C543 1.465 . S
C538 C533 1.399 . S
C538 C537 1.394 . S
C538 C539 1.516 . S
C539 C538 1.516 . S
C539 C540 1.502 . S
C539 C541 1.561 . S
C539 C542 1.526 . S
C540 H524 0.959 . S
C540 H525 0.959 . S
C540 H526 0.961 . S
C540 C539 1.502 . S
C541 H527 0.960 . S
C541 H528 0.961 . S
C541 H529 0.959 . S
C541 C539 1.561 . S
C542 C539 1.526 . S
C542 C543 1.396 . S
C542 C547 1.390 . S
C543 C537 1.465 . S
C543 C542 1.396 . S
C543 C544 1.399 . S
C544 H530 0.929 1_455 S
C544 C543 1.399 . S
C544 C545 1.385 . S
C545 H531 0.931 1_455 S
C545 C544 1.385 . S
C545 C546 1.389 . S
C546 C545 1.389 . S
C546 C547 1.387 . S
C547 H532 0.930 . S
C547 C542 1.390 . S
C547 C546 1.387 . S
H548 C560 0.930 . S
H549 C562 0.930 . S
H550 C563 0.930 . S
H551 C567 0.959 . S
H552 C567 0.959 . S
H553 C567 0.961 . S
H554 C568 0.960 . S
H555 C568 0.961 . S
H556 C568 0.959 . S
H557 C571 0.929 1_554 S
H558 C572 0.931 . S
H559 C574 0.930 . S
C560 H548 0.930 . S
C560 C561 1.399 . S
C560 C565 1.399 . S
C561 C560 1.399 . S
C561 C562 1.376 . S
C562 H549 0.930 . S
C562 C561 1.376 . S
C562 C563 1.388 . S
C563 H550 0.930 . S
C563 C562 1.388 . S
C563 C564 1.390 . S
C564 C563 1.390 . S
C564 C565 1.394 . S
C564 C570 1.465 1_554 S
C565 C560 1.399 . S
C565 C564 1.394 . S
C565 C566 1.516 1_554 S
C566 C565 1.516 1_556 S
C566 C567 1.502 . S
C566 C568 1.561 1_565 S
C566 C569 1.526 . S
C567 H551 0.959 . S
C567 H552 0.959 . S
C567 H553 0.961 . S
C567 C566 1.502 . S
C568 H554 0.960 . S
C568 H555 0.961 . S
C568 H556 0.959 . S
C568 C566 1.561 1_545 S
C569 C566 1.526 . S
C569 C570 1.396 . S
C569 C574 1.390 . S
C570 C564 1.465 1_556 S
C570 C569 1.396 . S
C570 C571 1.399 . S
C571 H557 0.929 1_556 S
C571 C570 1.399 . S
C571 C572 1.385 . S
C572 H558 0.931 . S
C572 C571 1.385 . S
C572 C573 1.389 . S
C573 C572 1.389 . S
C573 C574 1.387 . S
C574 H559 0.930 . S
C574 C569 1.390 . S
C574 C573 1.387 . S
H575 C587 0.930 . S
H576 C589 0.930 . S
H577 C590 0.930 . S
H578 C594 0.959 1_556 S
H579 C594 0.959 . S
H580 C594 0.961 . S
H581 C595 0.960 . S
H582 C595 0.961 . S
H583 C595 0.959 . S
H584 C598 0.929 . S
H585 C599 0.931 . S
H586 C601 0.930 . S
C587 H575 0.930 . S
C587 C588 1.399 . S
C587 C592 1.399 . S
C588 C587 1.399 . S
C588 C589 1.376 . S
C589 H576 0.930 . S
C589 C588 1.376 . S
C589 C590 1.388 . S
C590 H577 0.930 . S
C590 C589 1.388 . S
C590 C591 1.390 . S
C591 C590 1.390 . S
C591 C592 1.394 . S
C591 C597 1.465 1_554 S
C592 C587 1.399 . S
C592 C591 1.394 . S
C592 C593 1.516 . S
C593 C592 1.516 . S
C593 C594 1.502 . S
C593 C595 1.561 . S
C593 C596 1.526 1_554 S
C594 H578 0.959 1_554 S
C594 H579 0.959 . S
C594 H580 0.961 . S
C594 C593 1.502 . S
C595 H581 0.960 . S
C595 H582 0.961 . S
C595 H583 0.959 . S
C595 C593 1.561 . S
C596 C593 1.526 1_556 S
C596 C597 1.396 . S
C596 C601 1.390 . S
C597 C591 1.465 1_556 S
C597 C596 1.396 . S
C597 C598 1.399 . S
C598 H584 0.929 . S
C598 C597 1.399 . S
C598 C599 1.385 . S
C599 H585 0.931 . S
C599 C598 1.385 . S
C599 C600 1.389 . S
C600 C599 1.389 . S
C600 C601 1.387 . S
C601 H586 0.930 . S
C601 C596 1.390 . S
C601 C600 1.387 . S
H602 C614 0.930 . S
H603 C616 0.930 . S
H604 C617 0.930 . S
H605 C621 0.959 . S
H606 C621 0.959 . S
H607 C621 0.961 . S
H608 C622 0.960 . S
H609 C622 0.961 . S
H610 C622 0.959 . S
H611 C625 0.929 . S
H612 C626 0.931 . S
H613 C628 0.930 . S
C614 H602 0.930 . S
C614 C615 1.399 . S
C614 C619 1.399 . S
C615 C614 1.399 . S
C615 C616 1.376 . S
C616 H603 0.930 . S
C616 C615 1.376 . S
C616 C617 1.388 . S
C617 H604 0.930 . S
C617 C616 1.388 . S
C617 C618 1.390 . S
C618 C617 1.390 . S
C618 C619 1.394 . S
C618 C624 1.465 1_554 S
C619 C614 1.399 . S
C619 C618 1.394 . S
C619 C620 1.516 1_554 S
C620 C619 1.516 1_556 S
C620 C621 1.502 . S
C620 C622 1.561 1_556 S
C620 C623 1.526 . S
C621 H605 0.959 . S
C621 H606 0.959 . S
C621 H607 0.961 . S
C621 C620 1.502 . S
C622 H608 0.960 . S
C622 H609 0.961 . S
C622 H610 0.959 . S
C622 C620 1.561 1_554 S
C623 C620 1.526 . S
C623 C624 1.396 . S
C623 C628 1.390 . S
C624 C618 1.465 1_556 S
C624 C623 1.396 . S
C624 C625 1.399 . S
C625 H611 0.929 . S
C625 C624 1.399 . S
C625 C626 1.385 . S
C626 H612 0.931 . S
C626 C625 1.385 . S
C626 C627 1.389 . S
C627 C626 1.389 . S
C627 C628 1.387 . S
C628 H613 0.930 . S
C628 C623 1.390 . S
C628 C627 1.387 . S
H629 C641 0.930 . S
H630 C643 0.930 . S
H631 C644 0.930 . S
H632 C648 0.959 . S
H633 C648 0.959 1_455 S
H634 C648 0.968 . S
H635 C649 0.960 . S
H636 C649 0.961 1_556 S
H637 C649 0.959 . S
H638 C652 0.929 . S
H639 C653 0.931 . S
H640 C655 0.930 1_455 S
C641 H629 0.930 . S
C641 C642 1.399 . S
C641 C646 1.399 . S
C642 C641 1.399 . S
C642 C643 1.376 . S
C643 H630 0.930 . S
C643 C642 1.376 . S
C643 C644 1.388 . S
C644 H631 0.930 . S
C644 C643 1.388 . S
C644 C645 1.390 . S
C645 C644 1.390 . S
C645 C646 1.394 . S
C645 C651 1.465 1_554 S
C646 C641 1.399 . S
C646 C645 1.394 . S
C646 C647 1.516 1_554 S
C647 C646 1.516 1_556 S
C647 C648 1.502 . S
C647 C649 1.561 1_656 S
C647 C650 1.526 . S
C648 H632 0.959 . S
C648 H633 0.959 1_655 S
C648 H634 0.968 . S
C648 C647 1.502 . S
C649 H635 0.960 . S
C649 H636 0.961 1_554 S
C649 H637 0.959 . S
C649 C647 1.561 1_454 S
C650 C647 1.526 . S
C650 C651 1.396 . S
C650 C655 1.390 . S
C651 C645 1.465 1_556 S
C651 C650 1.396 . S
C651 C652 1.399 . S
C652 H638 0.929 . S
C652 C651 1.399 . S
C652 C653 1.385 . S
C653 H639 0.931 . S
C653 C652 1.385 . S
C653 C654 1.389 . S
C654 C653 1.389 . S
C654 C655 1.387 . S
C655 H640 0.930 1_655 S
C655 C650 1.390 . S
C655 C654 1.387 . S
H656 C668 0.930 . S
H657 C670 0.930 . S
H658 C671 0.930 . S
H659 C675 0.959 . S
H660 C675 0.959 . S
H661 C675 0.961 . S
H662 C676 0.960 1_556 S
H663 C676 0.961 . S
H664 C676 0.959 . S
H665 C679 0.929 . S
H666 C680 0.931 . S
H667 C682 0.930 1_655 S
C668 H656 0.930 . S
C668 C669 1.399 . S
C668 C673 1.399 . S
C669 C668 1.399 . S
C669 C670 1.376 . S
C670 H657 0.930 . S
C670 C669 1.376 . S
C670 C671 1.388 . S
C671 H658 0.930 . S
C671 C670 1.388 . S
C671 C672 1.390 . S
C672 C671 1.390 . S
C672 C673 1.394 . S
C672 C678 1.465 . S
C673 C668 1.399 . S
C673 C672 1.394 . S
C673 C674 1.516 . S
C674 C673 1.516 . S
C674 C675 1.502 1_455 S
C674 C676 1.561 . S
C674 C677 1.526 . S
C675 H659 0.959 . S
C675 H660 0.959 . S
C675 H661 0.961 . S
C675 C674 1.502 1_655 S
C676 H662 0.960 1_554 S
C676 H663 0.961 . S
C676 H664 0.959 . S
C676 C674 1.561 . S
C677 C674 1.526 . S
C677 C678 1.396 . S
C677 C682 1.390 . S
C678 C672 1.465 . S
C678 C677 1.396 . S
C678 C679 1.399 . S
C679 H665 0.929 . S
C679 C678 1.399 . S
C679 C680 1.385 . S
C680 H666 0.931 . S
C680 C679 1.385 . S
C680 C681 1.389 . S
C681 C680 1.389 . S
C681 C682 1.387 . S
C682 H667 0.930 1_455 S
C682 C677 1.390 . S
C682 C681 1.387 . S
H683 C695 0.930 . S
H684 C697 0.930 . S
H685 C698 0.930 . S
H686 C702 0.959 . S
H687 C702 0.959 . S
H688 C702 0.961 . S
H689 C703 0.954 1_556 S
H690 C703 0.961 1_565 S
H691 C703 0.959 . S
H692 C706 0.929 . S
H693 C707 0.931 . S
H694 C709 0.930 . S
C695 H683 0.930 . S
C695 C696 1.399 . S
C695 C700 1.399 . S
C696 C695 1.399 . S
C696 C697 1.376 . S
C697 H684 0.930 . S
C697 C696 1.376 . S
C697 C698 1.388 . S
C698 H685 0.930 . S
C698 C697 1.388 . S
C698 C699 1.390 . S
C699 C698 1.390 . S
C699 C700 1.394 . S
C699 C705 1.465 . S
C700 C695 1.399 . S
C700 C699 1.394 . S
C700 C701 1.516 . S
C701 C700 1.516 . S
C701 C702 1.502 1_545 S
C701 C703 1.561 . S
C701 C704 1.526 . S
C702 H686 0.959 . S
C702 H687 0.959 . S
C702 H688 0.961 . S
C702 C701 1.502 1_565 S
C703 H689 0.954 1_554 S
C703 H690 0.961 1_545 S
C703 H691 0.959 . S
C703 C701 1.561 . S
C704 C701 1.526 . S
C704 C705 1.396 . S
C704 C709 1.390 1_545 S
C705 C699 1.465 . S
C705 C704 1.396 . S
C705 C706 1.399 . S
C706 H692 0.929 . S
C706 C705 1.399 . S
C706 C707 1.385 . S
C707 H693 0.931 . S
C707 C706 1.385 . S
C707 C708 1.389 . S
C708 C707 1.389 . S
C708 C709 1.387 1_545 S
C709 H694 0.930 . S
C709 C704 1.390 1_565 S
C709 C708 1.387 1_565 S
H710 C722 0.930 . S
H711 C724 0.930 . S
H712 C725 0.930 . S
H713 C729 0.959 . S
H714 C729 0.959 . S
H715 C729 0.961 . S
H716 C730 0.960 1_556 S
H717 C730 0.961 . S
H718 C730 0.959 . S
H719 C733 0.929 . S
H720 C734 0.931 . S
H721 C736 0.930 . S
C722 H710 0.930 . S
C722 C723 1.399 . S
C722 C727 1.399 . S
C723 C722 1.399 . S
C723 C724 1.376 . S
C724 H711 0.930 . S
C724 C723 1.376 . S
C724 C725 1.388 . S
C725 H712 0.930 . S
C725 C724 1.388 . S
C725 C726 1.390 . S
C726 C725 1.390 . S
C726 C727 1.394 . S
C726 C732 1.465 . S
C727 C722 1.399 . S
C727 C726 1.394 . S
C727 C728 1.516 . S
C728 C727 1.516 . S
C728 C729 1.502 . S
C728 C730 1.561 . S
C728 C731 1.526 . S
C729 H713 0.959 . S
C729 H714 0.959 . S
C729 H715 0.961 . S
C729 C728 1.502 . S
C730 H716 0.960 1_554 S
C730 H717 0.961 . S
C730 H718 0.959 . S
C730 C728 1.561 . S
C731 C728 1.526 . S
C731 C732 1.396 . S
C731 C736 1.390 . S
C732 C726 1.465 . S
C732 C731 1.396 . S
C732 C733 1.399 . S
C733 H719 0.929 . S
C733 C732 1.399 . S
C733 C734 1.385 . S
C734 H720 0.931 . S
C734 C733 1.385 . S
C734 C735 1.389 . S
C735 C734 1.389 . S
C735 C736 1.387 . S
C736 H721 0.930 . S
C736 C731 1.390 . S
C736 C735 1.387 . S
H737 C749 0.930 . S
H738 C751 0.930 1_556 S
H739 C752 0.930 . S
H740 C756 0.959 . S
H741 C756 0.959 . S
H742 C756 0.961 . S
H743 C757 0.960 . S
H744 C757 0.961 . S
H745 C757 0.959 . S
H746 C760 0.929 . S
H747 C761 0.931 . S
H748 C763 0.930 . S
C749 H737 0.930 . S
C749 C750 1.399 . S
C749 C754 1.399 . S
C750 C749 1.399 . S
C750 C751 1.376 . S
C751 H738 0.930 1_554 S
C751 C750 1.376 . S
C751 C752 1.388 . S
C752 H739 0.930 . S
C752 C751 1.388 . S
C752 C753 1.390 . S
C753 C752 1.390 . S
C753 C754 1.394 . S
C753 C759 1.465 . S
C754 C749 1.399 . S
C754 C753 1.394 . S
C754 C755 1.516 . S
C755 C754 1.516 . S
C755 C756 1.502 . S
C755 C757 1.561 . S
C755 C758 1.526 . S
C756 H740 0.959 . S
C756 H741 0.959 . S
C756 H742 0.961 . S
C756 C755 1.502 . S
C757 H743 0.960 . S
C757 H744 0.961 . S
C757 H745 0.959 . S
C757 C755 1.561 . S
C758 C755 1.526 . S
C758 C759 1.396 . S
C758 C763 1.390 . S
C759 C753 1.465 . S
C759 C758 1.396 . S
C759 C760 1.399 . S
C760 H746 0.929 . S
C760 C759 1.399 . S
C760 C761 1.385 . S
C761 H747 0.931 . S
C761 C760 1.385 . S
C761 C762 1.389 . S
C762 C761 1.389 . S
C762 C763 1.387 . S
C763 H748 0.930 . S
C763 C758 1.390 . S
C763 C762 1.387 . S
H764 C776 0.930 . S
H765 C778 0.930 . S
H766 C779 0.930 . S
H767 C783 0.959 . S
H768 C783 0.959 . S
H769 C783 0.961 . S
H770 C784 0.960 . S
H771 C784 0.961 . S
H772 C784 0.959 1_455 S
H773 C787 0.929 . S
H774 C788 0.931 . S
H775 C790 0.930 . S
C776 H764 0.930 . S
C776 C777 1.399 . S
C776 C781 1.399 . S
C777 C776 1.399 . S
C777 C778 1.376 . S
C778 H765 0.930 . S
C778 C777 1.376 . S
C778 C779 1.388 . S
C779 H766 0.930 . S
C779 C778 1.388 . S
C779 C780 1.390 . S
C780 C779 1.390 . S
C780 C781 1.394 . S
C780 C786 1.465 . S
C781 C776 1.399 . S
C781 C780 1.394 . S
C781 C782 1.516 . S
C782 C781 1.516 . S
C782 C783 1.502 . S
C782 C784 1.561 . S
C782 C785 1.526 . S
C783 H767 0.959 . S
C783 H768 0.959 . S
C783 H769 0.961 . S
C783 C782 1.502 . S
C784 H770 0.960 . S
C784 H771 0.961 . S
C784 H772 0.959 1_655 S
C784 C782 1.561 . S
C785 C782 1.526 . S
C785 C786 1.396 . S
C785 C790 1.390 . S
C786 C780 1.465 . S
C786 C785 1.396 . S
C786 C787 1.399 1_654 S
C787 H773 0.929 . S
C787 C786 1.399 1_456 S
C787 C788 1.385 . S
C788 H774 0.931 . S
C788 C787 1.385 . S
C788 C789 1.389 . S
C789 C788 1.389 . S
C789 C790 1.387 1_456 S
C790 H775 0.930 . S
C790 C785 1.390 . S
C790 C789 1.387 1_654 S
H791 C803 0.930 . S
H792 C805 0.930 . S
H793 C806 0.934 . S
H794 C810 0.959 . S
H795 C810 0.959 . S
H796 C810 0.961 . S
H797 C811 0.960 . S
H798 C811 0.961 . S
H799 C811 0.959 . S
H800 C814 0.929 . S
H801 C815 0.931 . S
H802 C817 0.930 . S
C803 H791 0.930 . S
C803 C804 1.399 . S
C803 C808 1.399 . S
C804 C803 1.399 . S
C804 C805 1.376 . S
C805 H792 0.930 . S
C805 C804 1.376 . S
C805 C806 1.386 1_565 S
C806 H793 0.934 . S
C806 C805 1.386 1_545 S
C806 C807 1.388 1_545 S
C807 C806 1.388 1_565 S
C807 C808 1.394 . S
C807 C813 1.465 1_565 S
C808 C803 1.399 . S
C808 C807 1.394 . S
C808 C809 1.516 . S
C809 C808 1.516 . S
C809 C810 1.502 1_554 S
C809 C811 1.561 . S
C809 C812 1.526 . S
C810 H794 0.959 . S
C810 H795 0.959 . S
C810 H796 0.961 . S
C810 C809 1.502 1_556 S
C811 H797 0.960 . S
C811 H798 0.961 . S
C811 H799 0.959 . S
C811 C809 1.561 . S
C812 C809 1.526 . S
C812 C813 1.396 1_565 S
C812 C817 1.390 1_554 S
C813 C807 1.465 1_545 S
C813 C812 1.396 1_545 S
C813 C814 1.399 . S
C814 H800 0.929 . S
C814 C813 1.399 . S
C814 C815 1.385 . S
C815 H801 0.931 . S
C815 C814 1.385 . S
C815 C816 1.389 1_554 S
C816 C815 1.389 1_556 S
C816 C817 1.387 1_545 S
C817 H802 0.930 . S
C817 C812 1.390 1_556 S
C817 C816 1.387 1_565 S
H818 C830 0.930 . S
H819 C832 0.930 . S
H820 C833 0.930 . S
H821 C837 0.959 . S
H822 C837 0.959 1_556 S
H823 C837 0.961 . S
H824 C838 0.960 . S
H825 C838 0.961 . S
H826 C838 0.959 . S
H827 C841 0.929 . S
H828 C842 0.931 . S
H829 C844 0.930 . S
C830 H818 0.930 . S
C830 C831 1.399 . S
C830 C835 1.399 . S
C831 C830 1.399 . S
C831 C832 1.376 . S
C832 H819 0.930 . S
C832 C831 1.376 . S
C832 C833 1.388 . S
C833 H820 0.930 . S
C833 C832 1.388 . S
C833 C834 1.390 . S
C834 C833 1.390 . S
C834 C835 1.394 . S
C834 C840 1.465 . S
C835 C830 1.399 . S
C835 C834 1.394 . S
C835 C836 1.516 . S
C836 C835 1.516 . S
C836 C837 1.502 . S
C836 C838 1.561 1_554 S
C836 C839 1.526 . S
C837 H821 0.959 . S
C837 H822 0.959 1_554 S
C837 H823 0.961 . S
C837 C836 1.502 . S
C838 H824 0.960 . S
C838 H825 0.961 . S
C838 H826 0.959 . S
C838 C836 1.561 1_556 S
C839 C836 1.526 . S
C839 C840 1.396 . S
C839 C844 1.390 1_554 S
C840 C834 1.465 . S
C840 C839 1.396 . S
C840 C841 1.399 . S
C841 H827 0.929 . S
C841 C840 1.399 . S
C841 C842 1.385 . S
C842 H828 0.931 . S
C842 C841 1.385 . S
C842 C843 1.389 . S
C843 C842 1.389 . S
C843 C844 1.387 1_554 S
C844 H829 0.930 . S
C844 C839 1.390 1_556 S
C844 C843 1.387 1_556 S
H845 C857 0.930 . S
H846 C859 0.930 . S
H847 C860 0.930 . S
H848 C864 0.959 . S
H849 C864 0.959 . S
H850 C864 0.961 . S
H851 C865 0.960 . S
H852 C865 0.961 . S
H853 C865 0.959 1_556 S
H854 C868 0.929 . S
H855 C869 0.931 1_556 S
H856 C871 0.930 . S
C857 H845 0.930 . S
C857 C858 1.399 . S
C857 C862 1.399 . S
C858 C857 1.399 . S
C858 C859 1.376 . S
C859 H846 0.930 . S
C859 C858 1.376 . S
C859 C860 1.388 . S
C860 H847 0.930 . S
C860 C859 1.388 . S
C860 C861 1.390 . S
C861 C860 1.390 . S
C861 C862 1.394 . S
C861 C867 1.465 . S
C862 C857 1.399 . S
C862 C861 1.394 . S
C862 C863 1.516 . S
C863 C862 1.516 . S
C863 C864 1.502 . S
C863 C865 1.561 . S
C863 C866 1.526 . S
C864 H848 0.959 . S
C864 H849 0.959 . S
C864 H850 0.961 . S
C864 C863 1.502 . S
C865 H851 0.960 . S
C865 H852 0.961 . S
C865 H853 0.959 1_554 S
C865 C863 1.561 . S
C866 C863 1.526 . S
C866 C867 1.396 . S
C866 C871 1.390 . S
C867 C861 1.465 . S
C867 C866 1.396 . S
C867 C868 1.399 . S
C868 H854 0.929 . S
C868 C867 1.399 . S
C868 C869 1.385 . S
C869 H855 0.931 1_554 S
C869 C868 1.385 . S
C869 C870 1.389 . S
C870 C869 1.389 . S
C870 C871 1.387 . S
C871 H856 0.930 . S
C871 C866 1.390 . S
C871 C870 1.387 . S
H872 C884 0.930 . S
H873 C886 0.930 . S
H874 C887 0.930 . S
H875 C891 0.959 . S
H876 C891 0.959 . S
H877 C891 0.961 . S
H878 C892 0.960 . S
H879 C892 0.961 . S
H880 C892 0.959 . S
H881 C895 0.929 . S
H882 C896 0.931 . S
H883 C898 0.930 . S
C884 H872 0.930 . S
C884 C885 1.399 . S
C884 C889 1.399 . S
C885 C884 1.399 . S
C885 C886 1.376 . S
C886 H873 0.930 . S
C886 C885 1.376 . S
C886 C887 1.388 . S
C887 H874 0.930 . S
C887 C886 1.388 . S
C887 C888 1.390 . S
C888 C887 1.390 . S
C888 C889 1.394 . S
C888 C894 1.465 . S
C889 C884 1.399 . S
C889 C888 1.394 . S
C889 C890 1.516 . S
C890 C889 1.516 . S
C890 C891 1.502 1_455 S
C890 C892 1.561 . S
C890 C893 1.526 . S
C891 H875 0.959 . S
C891 H876 0.959 . S
C891 H877 0.961 . S
C891 C890 1.502 1_655 S
C892 H878 0.960 . S
C892 H879 0.961 . S
C892 H880 0.959 . S
C892 C890 1.561 . S
C893 C890 1.526 . S
C893 C894 1.396 . S
C893 C898 1.390 . S
C894 C888 1.465 . S
C894 C893 1.396 . S
C894 C895 1.399 . S
C895 H881 0.929 . S
C895 C894 1.399 . S
C895 C896 1.385 . S
C896 H882 0.931 . S
C896 C895 1.385 . S
C896 C897 1.389 . S
C897 C896 1.389 . S
C897 C898 1.387 . S
C898 H883 0.930 . S
C898 C893 1.390 . S
C898 C897 1.387 . S
H899 C911 0.930 . S
H900 C913 0.930 . S
H901 C914 0.930 . S
H902 C918 0.959 . S
H903 C918 0.959 . S
H904 C918 0.961 1_554 S
H905 C919 0.961 . S
H906 C919 0.961 1_565 S
H907 C919 0.959 1_565 S
H908 C922 0.929 . S
H909 C923 0.931 . S
H910 C925 0.930 . S
C911 H899 0.930 . S
C911 C912 1.399 . S
C911 C916 1.399 . S
C912 C911 1.399 . S
C912 C913 1.376 . S
C913 H900 0.930 . S
C913 C912 1.376 . S
C913 C914 1.388 . S
C914 H901 0.930 . S
C914 C913 1.388 . S
C914 C915 1.390 . S
C915 C914 1.390 . S
C915 C916 1.394 . S
C915 C921 1.465 . S
C916 C911 1.399 . S
C916 C915 1.394 . S
C916 C917 1.516 . S
C917 C916 1.516 . S
C917 C918 1.502 . S
C917 C919 1.561 . S
C917 C920 1.526 . S
C918 H902 0.959 . S
C918 H903 0.959 . S
C918 H904 0.961 1_556 S
C918 C917 1.502 . S
C919 H905 0.961 . S
C919 H906 0.961 1_545 S
C919 H907 0.959 1_545 S
C919 C917 1.561 . S
C920 C917 1.526 . S
C920 C921 1.396 . S
C920 C925 1.390 . S
C921 C915 1.465 . S
C921 C920 1.396 . S
C921 C922 1.399 . S
C922 H908 0.929 . S
C922 C921 1.399 . S
C922 C923 1.385 . S
C923 H909 0.931 . S
C923 C922 1.385 . S
C923 C924 1.389 . S
C924 C923 1.389 . S
C924 C925 1.387 . S
C925 H910 0.930 . S
C925 C920 1.390 . S
C925 C924 1.387 . S
H926 C938 0.930 . S
H927 C940 0.930 . S
H928 C941 0.930 . S
H929 C945 0.959 . S
H930 C945 0.959 . S
H931 C945 0.961 . S
H932 C946 0.960 . S
H933 C946 0.961 . S
H934 C946 0.959 . S
H935 C949 0.929 . S
H936 C950 0.931 . S
H937 C952 0.930 . S
C938 H926 0.930 . S
C938 C939 1.399 . S
C938 C943 1.399 . S
C939 C938 1.399 . S
C939 C940 1.376 . S
C940 H927 0.930 . S
C940 C939 1.376 . S
C940 C941 1.388 . S
C941 H928 0.930 . S
C941 C940 1.388 . S
C941 C942 1.390 . S
C942 C941 1.390 . S
C942 C943 1.394 . S
C942 C948 1.465 . S
C943 C938 1.399 . S
C943 C942 1.394 . S
C943 C944 1.516 . S
C944 C943 1.516 . S
C944 C945 1.502 . S
C944 C946 1.561 . S
C944 C947 1.526 . S
C945 H929 0.959 . S
C945 H930 0.959 . S
C945 H931 0.961 . S
C945 C944 1.502 . S
C946 H932 0.960 . S
C946 H933 0.961 . S
C946 H934 0.959 . S
C946 C944 1.561 . S
C947 C944 1.526 . S
C947 C948 1.396 . S
C947 C952 1.390 . S
C948 C942 1.465 . S
C948 C947 1.396 . S
C948 C949 1.399 . S
C949 H935 0.929 . S
C949 C948 1.399 . S
C949 C950 1.385 . S
C950 H936 0.931 . S
C950 C949 1.385 . S
C950 C951 1.389 . S
C951 C950 1.389 . S
C951 C952 1.387 . S
C952 H937 0.930 . S
C952 C947 1.390 . S
C952 C951 1.387 . S
H953 C965 0.930 . S
H954 C967 0.930 . S
H955 C968 0.930 . S
H956 C972 0.959 . S
H957 C972 0.959 . S
H958 C972 0.961 . S
H959 C973 0.960 . S
H960 C973 0.961 . S
H961 C973 0.959 . S
H962 C976 0.929 . S
H963 C977 0.931 . S
H964 C979 0.930 . S
C965 H953 0.930 . S
C965 C966 1.399 . S
C965 C970 1.399 . S
C966 C965 1.399 . S
C966 C967 1.376 . S
C967 H954 0.930 . S
C967 C966 1.376 . S
C967 C968 1.388 . S
C968 H955 0.930 . S
C968 C967 1.388 . S
C968 C969 1.390 . S
C969 C968 1.390 . S
C969 C970 1.394 . S
C969 C975 1.465 . S
C970 C965 1.399 . S
C970 C969 1.394 . S
C970 C971 1.516 . S
C971 C970 1.516 . S
C971 C972 1.502 . S
C971 C973 1.561 . S
C971 C974 1.526 . S
C972 H956 0.959 . S
C972 H957 0.959 . S
C972 H958 0.961 . S
C972 C971 1.502 . S
C973 H959 0.960 . S
C973 H960 0.961 . S
C973 H961 0.959 . S
C973 C971 1.561 . S
C974 C971 1.526 . S
C974 C975 1.396 . S
C974 C979 1.390 . S
C975 C969 1.465 . S
C975 C974 1.396 . S
C975 C976 1.399 . S
C976 H962 0.929 . S
C976 C975 1.399 . S
C976 C977 1.385 . S
C977 H963 0.931 . S
C977 C976 1.385 . S
C977 C978 1.389 . S
C978 C977 1.389 . S
C978 C979 1.387 . S
C979 H964 0.930 . S
C979 C974 1.390 . S
C979 C978 1.387 . S
H980 C992 0.930 . S
H981 C994 0.930 . S
H982 C995 0.930 . S
H983 C999 0.959 . S
H984 C999 0.959 . S
H985 C999 0.961 . S
H986 C1000 0.960 . S
H987 C1000 0.961 . S
H988 C1000 0.959 . S
H989 C1003 0.929 . S
H990 C1004 0.931 . S
H991 C1006 0.930 . S
C992 H980 0.930 . S
C992 C993 1.399 . S
C992 C997 1.399 . S
C993 C992 1.399 . S
C993 C994 1.376 . S
C994 H981 0.930 . S
C994 C993 1.376 . S
C994 C995 1.388 . S
C995 H982 0.930 . S
C995 C994 1.388 . S
C995 C996 1.390 . S
C996 C995 1.390 . S
C996 C997 1.394 . S
C996 C1002 1.465 . S
C997 C992 1.399 . S
C997 C996 1.394 . S
C997 C998 1.516 . S
C998 C997 1.516 . S
C998 C999 1.502 1_655 S
C998 C1000 1.561 . S
C998 C1001 1.526 . S
C999 H983 0.959 . S
C999 H984 0.959 . S
C999 H985 0.961 . S
C999 C998 1.502 1_455 S
C1000 H986 0.960 . S
C1000 H987 0.961 . S
C1000 H988 0.959 . S
C1000 C998 1.561 . S
C1001 C998 1.526 . S
C1001 C1002 1.396 . S
C1001 C1006 1.390 . S
C1002 C996 1.465 . S
C1002 C1001 1.396 . S
C1002 C1003 1.399 . S
C1003 H989 0.929 . S
C1003 C1002 1.399 . S
C1003 C1004 1.385 . S
C1004 H990 0.931 . S
C1004 C1003 1.385 . S
C1004 C1005 1.389 . S
C1005 C1004 1.389 . S
C1005 C1006 1.387 . S
C1006 H991 0.930 . S
C1006 C1001 1.390 . S
C1006 C1005 1.387 . S
H1007 C1019 0.930 . S
H1008 C1021 0.930 . S
H1009 C1022 0.930 . S
H1010 C1026 0.959 . S
H1011 C1026 0.959 . S
H1012 C1026 0.961 . S
H1013 C1027 0.960 . S
H1014 C1027 0.961 . S
H1015 C1027 0.959 1_545 S
H1016 C1030 0.929 . S
H1017 C1031 0.931 . S
H1018 C1033 0.930 . S
C1019 H1007 0.930 . S
C1019 C1020 1.399 . S
C1019 C1024 1.399 . S
C1020 C1019 1.399 . S
C1020 C1021 1.376 . S
C1021 H1008 0.930 . S
C1021 C1020 1.376 . S
C1021 C1022 1.388 . S
C1022 H1009 0.930 . S
C1022 C1021 1.388 . S
C1022 C1023 1.390 . S
C1023 C1022 1.390 . S
C1023 C1024 1.394 . S
C1023 C1029 1.465 . S
C1024 C1019 1.399 . S
C1024 C1023 1.394 . S
C1024 C1025 1.516 . S
C1025 C1024 1.516 . S
C1025 C1026 1.502 . S
C1025 C1027 1.561 . S
C1025 C1028 1.526 . S
C1026 H1010 0.959 . S
C1026 H1011 0.959 . S
C1026 H1012 0.961 . S
C1026 C1025 1.502 . S
C1027 H1013 0.960 . S
C1027 H1014 0.961 . S
C1027 H1015 0.959 1_565 S
C1027 C1025 1.561 . S
C1028 C1025 1.526 . S
C1028 C1029 1.396 . S
C1028 C1033 1.390 . S
C1029 C1023 1.465 . S
C1029 C1028 1.396 . S
C1029 C1030 1.399 . S
C1030 H1016 0.929 . S
C1030 C1029 1.399 . S
C1030 C1031 1.385 . S
C1031 H1017 0.931 . S
C1031 C1030 1.385 . S
C1031 C1032 1.389 . S
C1032 C1031 1.389 . S
C1032 C1033 1.387 . S
C1033 H1018 0.930 . S
C1033 C1028 1.390 . S
C1033 C1032 1.387 . S
H1034 C1046 0.930 . S
H1035 C1048 0.930 . S
H1036 C1049 0.930 . S
H1037 C1053 0.959 . S
H1038 C1053 0.959 . S
H1039 C1053 0.961 . S
H1040 C1054 0.960 . S
H1041 C1054 0.961 . S
H1042 C1054 0.959 . S
H1043 C1057 0.929 . S
H1044 C1058 0.931 . S
H1045 C1060 0.930 . S
C1046 H1034 0.930 . S
C1046 C1047 1.399 . S
C1046 C1051 1.399 . S
C1047 C1046 1.399 . S
C1047 C1048 1.376 . S
C1048 H1035 0.930 . S
C1048 C1047 1.376 . S
C1048 C1049 1.388 . S
C1049 H1036 0.930 . S
C1049 C1048 1.388 . S
C1049 C1050 1.390 . S
C1050 C1049 1.390 . S
C1050 C1051 1.394 . S
C1050 C1056 1.465 . S
C1051 C1046 1.399 . S
C1051 C1050 1.394 . S
C1051 C1052 1.516 . S
C1052 C1051 1.516 . S
C1052 C1053 1.502 . S
C1052 C1054 1.561 . S
C1052 C1055 1.526 . S
C1053 H1037 0.959 . S
C1053 H1038 0.959 . S
C1053 H1039 0.961 . S
C1053 C1052 1.502 . S
C1054 H1040 0.960 . S
C1054 H1041 0.961 . S
C1054 H1042 0.959 . S
C1054 C1052 1.561 . S
C1055 C1052 1.526 . S
C1055 C1056 1.396 . S
C1055 C1060 1.390 . S
C1056 C1050 1.465 . S
C1056 C1055 1.396 . S
C1056 C1057 1.399 . S
C1057 H1043 0.929 . S
C1057 C1056 1.399 . S
C1057 C1058 1.385 . S
C1058 H1044 0.931 . S
C1058 C1057 1.385 . S
C1058 C1059 1.389 . S
C1059 C1058 1.389 . S
C1059 C1060 1.387 . S
C1060 H1045 0.930 . S
C1060 C1055 1.390 . S
C1060 C1059 1.387 . S
H1061 C1073 0.930 . S
H1062 C1075 0.930 . S
H1063 C1076 0.930 . S
H1064 C1080 0.959 . S
H1065 C1080 0.959 . S
H1066 C1080 0.961 . S
H1067 C1081 0.960 . S
H1068 C1081 0.961 . S
H1069 C1081 0.959 . S
H1070 C1084 0.929 . S
H1071 C1085 0.931 . S
H1072 C1087 0.930 . S
C1073 H1061 0.930 . S
C1073 C1074 1.399 . S
C1073 C1078 1.399 . S
C1074 C1073 1.399 . S
C1074 C1075 1.376 . S
C1075 H1062 0.930 . S
C1075 C1074 1.376 . S
C1075 C1076 1.388 . S
C1076 H1063 0.930 . S
C1076 C1075 1.388 . S
C1076 C1077 1.390 . S
C1077 C1076 1.390 . S
C1077 C1078 1.394 . S
C1077 C1083 1.465 . S
C1078 C1073 1.399 . S
C1078 C1077 1.394 . S
C1078 C1079 1.516 . S
C1079 C1078 1.516 . S
C1079 C1080 1.502 . S
C1079 C1081 1.561 . S
C1079 C1082 1.526 . S
C1080 H1064 0.959 . S
C1080 H1065 0.959 . S
C1080 H1066 0.961 . S
C1080 C1079 1.502 . S
C1081 H1067 0.960 . S
C1081 H1068 0.961 . S
C1081 H1069 0.959 . S
C1081 C1079 1.561 . S
C1082 C1079 1.526 . S
C1082 C1083 1.396 . S
C1082 C1087 1.390 . S
C1083 C1077 1.465 . S
C1083 C1082 1.396 . S
C1083 C1084 1.399 . S
C1084 H1070 0.929 . S
C1084 C1083 1.399 . S
C1084 C1085 1.385 . S
C1085 H1071 0.931 . S
C1085 C1084 1.385 . S
C1085 C1086 1.389 . S
C1086 C1085 1.389 . S
C1086 C1087 1.387 . S
C1087 H1072 0.930 . S
C1087 C1082 1.390 . S
C1087 C1086 1.387 . S
C453 C82 1.793 . S
C465 C178 1.891 . S
C492 C262 1.951 . S
C480 C95 1.734 . S
C519 C328 1.926 . S
C507 C56 1.819 . S
C546 C412 1.933 . S
C534 C69 1.831 . S
C573 C167 1.898 1_565 S
C561 C30 1.726 . S
C588 C43 1.727 . S
C600 C251 1.965 . S
C615 C4 1.838 . S
C627 C339 1.891 . S
C642 C17 1.827 . S
C654 C423 1.861 . S
C681 C174 0.713 1_455 S
C669 C74 0.744 . S
C708 C258 0.712 1_545 S
C696 C87 0.696 . S
C735 C330 0.697 . S
C723 C100 0.700 . S
C750 C61 0.540 . S
C762 C414 0.537 . S
C777 C22 0.651 . S
C789 C162 0.620 . S
C816 C246 0.546 . S
C804 C35 0.534 . S
C843 C342 0.567 . S
C831 C48 0.622 . S
C858 C9 0.724 . S
C870 C426 0.682 . S
C885 C73 1.990 . S
C897 C171 2.101 . S
C912 C86 2.018 . S
C924 C255 2.011 . S
C951 C335 2.040 . S
C939 C99 1.839 . S
C978 C419 2.104 . S
C966 C60 1.916 . S
C993 C21 2.032 . S
C1005 C160 2.057 . S
C1032 C244 2.048 . S
C1020 C34 1.930 . S
C1059 C346 2.050 . S
C1047 C47 1.831 . S
C1074 C8 1.921 . S
C1086 C430 2.106 . S
