# Generated by pormake.
# Topology tsx, (6,3)-cn, num edge types: 1
# Building blocks:
#     Node 0, Type 0, BuildingBlock: MIDCAF_clean_sbu_0, # of connection points: 6
#     Node 1, Type 0, BuildingBlock: MIDCAF_clean_sbu_0, # of connection points: 6
#     Node 2, Type 1, BuildingBlock: VETTIZ_charged_linker_0, # of connection points: 3
#     Node 3, Type 1, BuildingBlock: VETTIZ_charged_linker_0, # of connection points: 3
#     Node 4, Type 1, BuildingBlock: VETTIZ_charged_linker_0, # of connection points: 3
#     Node 5, Type 1, BuildingBlock: VETTIZ_charged_linker_0, # of connection points: 3
#     Edge 6, Type (0, 1), BuildingBlock: MIFKUJ_clean_linker_0, # of connection points: 2
#     Edge 7, Type (0, 1), BuildingBlock: MIFKUJ_clean_linker_0, # of connection points: 2
#     Edge 8, Type (0, 1), BuildingBlock: MIFKUJ_clean_linker_0, # of connection points: 2
#     Edge 9, Type (0, 1), BuildingBlock: MIFKUJ_clean_linker_0, # of connection points: 2
#     Edge 10, Type (0, 1), BuildingBlock: MIFKUJ_clean_linker_0, # of connection points: 2
#     Edge 11, Type (0, 1), BuildingBlock: MIFKUJ_clean_linker_0, # of connection points: 2
#     Edge 12, Type (0, 1), BuildingBlock: MIFKUJ_clean_linker_0, # of connection points: 2
#     Edge 13, Type (0, 1), BuildingBlock: MIFKUJ_clean_linker_0, # of connection points: 2
#     Edge 14, Type (0, 1), BuildingBlock: MIFKUJ_clean_linker_0, # of connection points: 2
#     Edge 15, Type (0, 1), BuildingBlock: MIFKUJ_clean_linker_0, # of connection points: 2
#     Edge 16, Type (0, 1), BuildingBlock: MIFKUJ_clean_linker_0, # of connection points: 2
#     Edge 17, Type (0, 1), BuildingBlock: MIFKUJ_clean_linker_0, # of connection points: 2
# Relax obj value: 0.121
# Max RMSD: 0.183
# Mean RMSD: 0.115
data_MOF--net-tsx--node1-MIDCAF_clean_sbu_0--node2-VETTIZ_charged_linker_0--edge1-MIFKUJ_clean_linker_0
_symmetry_space_group_name_H-M    P1
_symmetry_Int_Tables_number       1
_symmetry_cell_setting            triclinic
loop_
_symmetry_equiv_pos_as_xyz
'x, y, z'
_cell_length_a     29.58136
_cell_length_b     30.454925
_cell_length_c     58.062184
_cell_angle_alpha  90.365974
_cell_angle_beta   94.016695
_cell_angle_gamma 89.874842
loop_
_atom_site_label
_atom_site_type_symbol
_atom_site_fract_x
_atom_site_fract_y
_atom_site_fract_z
_atom_type_partial_charge
Zn0 Zn 0.93075 0.01573 0.9801 0.0
Zn1 Zn 0.03792 0.96158 0.03213 0.0
Zn2 Zn 0.99711 0.99788 0.0044 0.0
C3 C 0.07538 0.04577 0.02969 0.0
C4 C 0.06276 0.92317 0.99559 0.0
O5 O 0.9504 0.94872 0.01364 0.0
O6 O 0.88885 0.97399 0.99496 0.0
C7 C 0.95906 0.09405 0.0039 0.0
O8 O 0.03277 0.05128 0.02404 0.0
O9 O 0.09026 0.00688 0.03186 0.0
O10 O 0.0444 0.90752 0.0128 0.0
O11 O 0.05435 0.96334 0.98999 0.0
O12 O 0.93128 0.07992 0.98805 0.0
O13 O 0.98768 0.06759 0.01434 0.0
O14 O 0.02567 0.99185 0.97105 0.0
O15 O 0.95946 0.99671 0.95136 0.0
C16 C 1.0018 0.99024 0.95177 0.0
O17 O 0.99084 0.03662 0.03639 0.0
O18 O 0.98968 0.97368 0.05465 0.0
C19 C 0.9079 0.94616 0.00853 0.0
C20 C 0.98076 0.01443 0.05419 0.0
Zn21 Zn 0.63548 0.51192 0.54759 0.0
Zn22 Zn 0.53082 0.46939 0.49061 0.0
Zn23 Zn 0.57153 0.50007 0.52061 0.0
C24 C 0.59105 0.52271 0.47207 0.0
C25 C 0.49655 0.55471 0.49569 0.0
O26 O 0.53968 0.49332 0.55289 0.0
O27 O 0.6036 0.48998 0.57478 0.0
C28 C 0.65933 0.44602 0.51632 0.0
O29 O 0.58034 0.54249 0.49063 0.0
O30 O 0.58228 0.4821 0.46982 0.0
O31 O 0.48033 0.51692 0.49113 0.0
O32 O 0.53882 0.55731 0.50285 0.0
O33 O 0.67757 0.47154 0.53153 0.0
O34 O 0.61724 0.44993 0.51034 0.0
O35 O 0.58519 0.56984 0.51346 0.0
O36 O 0.63743 0.57727 0.5424 0.0
C37 C 0.61311 0.59408 0.52593 0.0
O38 O 0.51218 0.46655 0.53295 0.0
O39 O 0.51902 0.41373 0.50753 0.0
C40 C 0.5608 0.48769 0.57268 0.0
C41 C 0.50173 0.42772 0.52555 0.0
C42 C 0.17977 0.93562 0.42833 0.0
C43 C 0.21255 0.91351 0.41616 0.0
C44 C 0.21517 0.92202 0.39247 0.0
C45 C 0.15296 0.97378 0.39332 0.0
C46 C 0.15082 0.96602 0.41666 0.0
C47 C 0.11556 0.99422 0.42712 0.0
H48 H 0.9605 0.15856 0.41359 0.0
C49 C 0.11896 0.00772 0.38643 0.0
C50 C 0.09743 0.02047 0.40627 0.0
H51 H 0.99554 0.08497 0.47554 0.0
H52 H 0.04889 0.04092 0.4551 0.0
H53 H 0.05926 0.16824 0.39612 0.0
H54 H 0.95212 0.07518 0.38148 0.0
H55 H 0.97661 0.08343 0.35527 0.0
H56 H 0.95087 0.12917 0.36932 0.0
H57 H 0.00911 0.18091 0.37819 0.0
H58 H 0.0584 0.15685 0.3664 0.0
C59 C 0.1397 0.02381 0.44592 0.0
C60 C 0.07897 0.96374 0.43613 0.0
C61 C 0.08919 0.0492 0.30177 0.0
C62 C 0.06057 0.08072 0.29066 0.0
C63 C 0.03628 0.10989 0.30409 0.0
C64 C 0.0389 0.10669 0.32816 0.0
C65 C 0.06626 0.07405 0.33903 0.0
C66 C 0.09188 0.04678 0.32597 0.0
C67 C 0.12105 0.01589 0.34083 0.0
C68 C 0.10627 0.0273 0.36476 0.0
C69 C 0.07395 0.06107 0.36346 0.0
C70 C 0.1715 0.0275 0.33826 0.0
C71 C 0.10831 0.96821 0.33375 0.0
C72 C 0.98001 0.13311 0.42273 0.0
C73 C 0.97464 0.12527 0.44611 0.0
C74 C 0.99962 0.09144 0.45748 0.0
C75 C 0.03048 0.06612 0.4456 0.0
C76 C 0.03581 0.0746 0.4221 0.0
C77 C 0.01019 0.1073 0.41108 0.0
C78 C 0.01764 0.11027 0.38587 0.0
C79 C 0.05287 0.07467 0.38351 0.0
C80 C 0.06389 0.05408 0.40477 0.0
C81 C 0.0368 0.15648 0.38118 0.0
C82 C 0.97212 0.09931 0.3721 0.0
H83 H 0.18883 0.95651 0.3629 0.0
H84 H 0.17731 0.92995 0.4466 0.0
H85 H 0.07322 0.93464 0.42463 0.0
H86 H 0.0455 0.97978 0.43638 0.0
H87 H 0.08936 0.95158 0.45371 0.0
H88 H 0.1719 0.03691 0.4399 0.0
H89 H 0.14812 0.00505 0.462 0.0
H90 H 0.11964 0.05294 0.45016 0.0
H91 H 0.1088 0.02686 0.29182 0.0
H92 H 0.01392 0.13427 0.29588 0.0
H93 H 0.01882 0.12934 0.33733 0.0
H94 H 0.17548 0.06176 0.33217 0.0
H95 H 0.18681 0.00539 0.32565 0.0
H96 H 0.19206 0.0262 0.35493 0.0
H97 H 0.07084 0.96416 0.33224 0.0
H98 H 0.12138 0.94375 0.34648 0.0
H99 H 0.12122 0.95969 0.31677 0.0
H100 H 0.23993 0.90505 0.38276 0.0
C101 C 0.18545 0.9518 0.38098 0.0
C102 C 0.10215 0.13933 0.58079 0.0
C103 C 0.13445 0.16455 0.59408 0.0
C104 C 0.14078 0.15714 0.61799 0.0
C105 C 0.08455 0.09948 0.61518 0.0
C106 C 0.07715 0.10728 0.59179 0.0
C107 C 0.04011 0.07817 0.58088 0.0
H108 H 0.88805 0.91413 0.59465 0.0
C109 C 0.05481 0.06326 0.62135 0.0
C110 C 0.02826 0.05053 0.60142 0.0
H111 H 0.90482 0.9888 0.53276 0.0
H112 H 0.96666 0.02933 0.55255 0.0
H113 H 0.99138 0.8997 0.60816 0.0
H114 H 0.89687 0.99653 0.62991 0.0
H115 H 0.92855 0.97744 0.65462 0.0
H116 H 0.8941 0.93946 0.63727 0.0
H117 H 0.95131 0.88748 0.629 0.0
H118 H 0.00635 0.91033 0.63744 0.0
C119 C 0.06019 0.04995 0.56186 0.0
C120 C 1.00016 0.10784 0.57201 0.0
C121 C 0.06666 0.00723 0.70376 0.0
C122 C 0.04553 0.97275 0.7149 0.0
C123 C 0.01445 0.94584 0.70177 0.0
C124 C 0.00389 0.95376 0.67823 0.0
C125 C 0.0247 0.98888 0.66752 0.0
C126 C 0.056 0.01443 0.68021 0.0
C127 C 0.07592 0.04938 0.66588 0.0
C128 C 0.05104 0.04093 0.64251 0.0
C129 C 0.0208 0.00581 0.6436 0.0
C130 C 0.12752 0.04028 0.66555 0.0
C131 C 0.06356 0.0948 0.676 0.0
C132 C 0.90442 0.93965 0.58536 0.0
C133 C 0.89083 0.94862 0.56217 0.0
C134 C 0.91444 0.98116 0.55063 0.0
C135 C 0.95013 0.0049 0.5622 0.0
C136 C 0.96244 0.99608 0.58559 0.0
C137 C 0.93971 0.96364 0.59664 0.0
C138 C 0.95686 0.95823 0.62141 0.0
C139 C 0.99298 0.99346 0.62371 0.0
C140 C 0.99647 0.01561 0.60268 0.0
C141 C 0.97732 0.9115 0.62438 0.0
C142 C 0.9172 0.96809 0.63677 0.0
H143 H 0.12314 0.12076 0.64677 0.0
H144 H 0.09634 0.14468 0.5624 0.0
H145 H 0.99589 0.13592 0.58403 0.0
H146 H 0.96729 0.09066 0.57101 0.0
H147 H 0.00603 0.12155 0.55479 0.0
H148 H 0.09392 0.0367 0.56805 0.0
H149 H 0.06471 0.06977 0.54619 0.0
H150 H 0.03918 0.02108 0.55688 0.0
H151 H 0.09034 0.02894 0.71321 0.0
H152 H 0.99824 0.91849 0.70968 0.0
H153 H 0.97974 0.93231 0.66932 0.0
H154 H 0.13467 0.00439 0.66585 0.0
H155 H 0.14649 0.05521 0.68082 0.0
H156 H 0.1421 0.05193 0.64971 0.0
H157 H 0.03029 0.09365 0.68382 0.0
H158 H 0.0593 0.1206 0.66271 0.0
H159 H 0.08933 0.10559 0.68968 0.0
H160 H 0.16574 0.17578 0.62851 0.0
C161 C 0.11619 0.12485 0.62856 0.0
C162 C 0.66079 0.47167 0.95863 0.0
C163 C 0.69074 0.44165 0.94906 0.0
C164 C 0.68545 0.43249 0.92517 0.0
C165 C 0.62153 0.48224 0.92084 0.0
C166 C 0.62663 0.49167 0.94421 0.0
C167 C 0.59192 0.52458 0.95131 0.0
H168 H 0.41621 0.66031 0.91879 0.0
C169 C 0.58244 0.50746 0.91069 0.0
C170 C 0.56478 0.53247 0.92846 0.0
H171 H 0.47968 0.64494 0.98745 0.0
H172 H 0.52974 0.58865 0.97339 0.0
H173 H 0.50691 0.65434 0.8905 0.0
H174 H 0.40572 0.56284 0.90899 0.0
H175 H 0.42448 0.54211 0.88305 0.0
H176 H 0.39764 0.59549 0.88347 0.0
H177 H 0.44861 0.65542 0.87954 0.0
H178 H 0.48999 0.62316 0.86575 0.0
C179 C 0.6173 0.56632 0.96031 0.0
C180 C 0.5629 0.50284 0.96922 0.0
C181 C 0.53707 0.49532 0.82447 0.0
C182 C 0.50095 0.51353 0.81045 0.0
C183 C 0.46851 0.5394 0.82102 0.0
C184 C 0.47295 0.54869 0.84466 0.0
C185 C 0.50994 0.53162 0.85821 0.0
C186 C 0.54057 0.50445 0.84826 0.0
C187 C 0.57608 0.48722 0.86582 0.0
C188 C 0.5621 0.50946 0.88779 0.0
C189 C 0.52387 0.53593 0.88303 0.0
C190 C 0.62298 0.50333 0.8591 0.0
C191 C 0.57123 0.43658 0.86677 0.0
C192 C 0.44139 0.64524 0.93072 0.0
C193 C 0.44501 0.65756 0.95404 0.0
C194 C 0.47689 0.63616 0.9693 0.0
C195 C 0.50582 0.60366 0.96109 0.0
C196 C 0.50221 0.5922 0.93747 0.0
C197 C 0.46977 0.61258 0.9229 0.0
C198 C 0.46843 0.59523 0.89869 0.0
C199 C 0.50671 0.56213 0.90069 0.0
C200 C 0.52674 0.5604 0.92336 0.0
C201 C 0.47874 0.63386 0.8826 0.0
C202 C 0.42169 0.57297 0.89306 0.0
H203 H 0.64902 0.44387 0.89312 0.0
H204 H 0.66403 0.47962 0.97688 0.0
H205 H 0.55583 0.46792 0.96454 0.0
H206 H 0.5293 0.51836 0.97004 0.0
H207 H 0.58069 0.50351 0.98672 0.0
H208 H 0.6453 0.57432 0.94922 0.0
H209 H 0.63235 0.56155 0.97819 0.0
H210 H 0.59554 0.59576 0.95997 0.0
H211 H 0.56267 0.47519 0.81711 0.0
H212 H 0.43947 0.55271 0.811 0.0
H213 H 0.44752 0.56926 0.85139 0.0
H214 H 0.62078 0.53773 0.85276 0.0
H215 H 0.63571 0.48262 0.84511 0.0
H216 H 0.64874 0.5041 0.87379 0.0
H217 H 0.53548 0.42629 0.86267 0.0
H218 H 0.58006 0.42319 0.88415 0.0
H219 H 0.59226 0.42013 0.85413 0.0
H220 H 0.70737 0.40898 0.91737 0.0
C221 C 0.65119 0.45253 0.91109 0.0
C222 C 0.59799 0.58035 0.08193 0.0
C223 C 0.63516 0.60487 0.09131 0.0
C224 C 0.64406 0.60696 0.11541 0.0
C225 C 0.57824 0.56216 0.12064 0.0
C226 C 0.57032 0.55875 0.09695 0.0
C227 C 0.53034 0.52959 0.09025 0.0
H228 H 0.36057 0.40031 0.12376 0.0
C229 C 0.54261 0.53754 0.13146 0.0
C230 C 0.5146 0.51789 0.11386 0.0
H231 H 0.40186 0.42041 0.05465 0.0
H232 H 0.45928 0.47172 0.06931 0.0
H233 H 0.46019 0.39323 0.14806 0.0
H234 H 0.36892 0.50355 0.13999 0.0
H235 H 0.39595 0.50661 0.16788 0.0
H236 H 0.36021 0.46016 0.15997 0.0
H237 H 0.40862 0.39698 0.16256 0.0
H238 H 0.46037 0.42148 0.17461 0.0
C239 C 0.5477 0.48887 0.0773 0.0
C240 C 0.49444 0.55704 0.076 0.0
C241 C 0.53832 0.54226 0.21847 0.0
C242 C 0.50884 0.52466 0.23391 0.0
C243 C 0.47097 0.50022 0.22509 0.0
C244 C 0.4632 0.49277 0.20123 0.0
C245 C 0.49352 0.51012 0.18603 0.0
C246 C 0.53 0.53476 0.1948 0.0
C247 C 0.55818 0.55169 0.1763 0.0
C248 C 0.53287 0.53293 0.15488 0.0
C249 C 0.49518 0.50842 0.1606 0.0
C250 C 0.60657 0.53204 0.18023 0.0
C251 C 0.55609 0.60258 0.17697 0.0
C252 C 0.38155 0.41628 0.11175 0.0
C253 C 0.37675 0.40629 0.08803 0.0
C254 C 0.40523 0.42725 0.07302 0.0
C255 C 0.43854 0.45698 0.08157 0.0
C256 C 0.4438 0.46562 0.10541 0.0
C257 C 0.41533 0.44565 0.12006 0.0
C258 C 0.4267 0.4578 0.14495 0.0
C259 C 0.4674 0.4874 0.14288 0.0
C260 C 0.47708 0.4921 0.11965 0.0
C261 C 0.43942 0.41532 0.15845 0.0
C262 C 0.38589 0.48311 0.15389 0.0
H263 H 0.6241 0.58937 0.14828 0.0
H264 H 0.5908 0.57801 0.06341 0.0
H265 H 0.49034 0.58987 0.08412 0.0
H266 H 0.46047 0.54196 0.07499 0.0
H267 H 0.50469 0.56225 0.05817 0.0
H268 H 0.58373 0.48152 0.08272 0.0
H269 H 0.54544 0.49407 0.05834 0.0
H270 H 0.52931 0.45851 0.08115 0.0
H271 H 0.56724 0.56186 0.22467 0.0
H272 H 0.44784 0.48622 0.23669 0.0
H273 H 0.43412 0.47355 0.19555 0.0
H274 H 0.60599 0.49969 0.18902 0.0
H275 H 0.62911 0.55405 0.19116 0.0
H276 H 0.62239 0.52503 0.16389 0.0
H277 H 0.52165 0.61411 0.18077 0.0
H278 H 0.56245 0.61788 0.16033 0.0
H279 H 0.5805 0.6161 0.1906 0.0
H280 H 0.67232 0.62606 0.12292 0.0
C281 C 0.61579 0.58589 0.1301 0.0
H282 H 0.16571 0.04993 0.02453 0.0
H283 H 0.21619 0.1122 0.03213 0.0
H284 H 0.10486 0.18802 0.05602 0.0
H285 H 0.05344 0.12691 0.04615 0.0
H286 H 0.14924 0.23913 0.03423 0.0
H287 H 0.20601 0.14243 0.09712 0.0
H288 H 0.23262 0.07119 0.11312 0.0
H289 H 0.33848 0.06824 0.06613 0.0
H290 H 0.31171 0.13909 0.04969 0.0
H291 H 0.28841 0.39646 0.09828 0.0
H292 H 0.2364 0.33692 0.08595 0.0
H293 H 0.33912 0.2797 0.04587 0.0
H294 H 0.39131 0.33894 0.05822 0.0
H295 H 0.30114 0.22031 0.07481 0.0
H296 H 0.25087 0.32791 0.01868 0.0
H297 H 0.22306 0.40035 0.00523 0.0
H298 H 0.1043 0.38534 0.04292 0.0
H299 H 0.13174 0.31306 0.0569 0.0
C300 C 0.15209 0.07991 0.03146 0.0
C301 C 0.10577 0.08346 0.03498 0.0
C302 C 0.18117 0.11544 0.03614 0.0
C303 C 0.16505 0.15473 0.04547 0.0
C304 C 0.11851 0.15822 0.04893 0.0
C305 C 0.08906 0.12318 0.04341 0.0
C306 C 0.19614 0.1927 0.0507 0.0
C307 C 0.18207 0.23492 0.04349 0.0
C308 C 0.23984 0.18765 0.06212 0.0
C309 C 0.25616 0.14529 0.0719 0.0
C310 C 0.23444 0.1261 0.09003 0.0
C311 C 0.24969 0.08597 0.09922 0.0
C312 C 0.28705 0.06503 0.09054 0.0
C313 C 0.3094 0.08437 0.07276 0.0
C314 C 0.29422 0.12451 0.06353 0.0
C315 C 0.29975 0.37132 0.08672 0.0
C316 C 0.3439 0.37235 0.0792 0.0
C317 C 0.26995 0.33752 0.07958 0.0
C318 C 0.28386 0.30405 0.0649 0.0
C319 C 0.3277 0.30532 0.05713 0.0
C320 C 0.35734 0.33931 0.06408 0.0
C321 C 0.25367 0.26634 0.05875 0.0
C322 C 0.26811 0.2243 0.06567 0.0
C323 C 0.21016 0.27175 0.04741 0.0
C324 C 0.19361 0.31523 0.03903 0.0
C325 C 0.21903 0.34022 0.02429 0.0
C326 C 0.20329 0.38122 0.01653 0.0
C327 C 0.162 0.39749 0.02327 0.0
C328 C 0.13631 0.37273 0.03774 0.0
C329 C 0.15193 0.33172 0.04557 0.0
H330 H 0.14986 0.42923 0.01724 0.0
H331 H 0.29882 0.03396 0.09766 0.0
H332 H 0.07903 0.83577 0.00036 0.0
H333 H 0.14747 0.79624 0.99155 0.0
H334 H 0.1974 0.91171 0.95917 0.0
H335 H 0.12905 0.9522 0.96848 0.0
H336 H 0.21358 0.82353 0.93646 0.0
H337 H 0.23633 0.90166 0.00874 0.0
H338 H 0.21505 0.92522 0.04722 0.0
H339 H 0.21543 0.79098 0.06942 0.0
H340 H 0.23594 0.76655 0.0309 0.0
H341 H 0.43544 0.7408 0.93812 0.0
H342 H 0.37402 0.79224 0.94489 0.0
H343 H 0.3211 0.7014 0.99298 0.0
H344 H 0.38358 0.65046 0.98672 0.0
H345 H 0.30893 0.78353 0.00707 0.0
H346 H 0.28189 0.70406 0.93568 0.0
H347 H 0.30049 0.67754 0.89725 0.0
H348 H 0.305 0.81039 0.87318 0.0
H349 H 0.28723 0.83775 0.91163 0.0
C350 C 0.10404 0.85265 0.99093 0.0
C351 C 0.09872 0.8973 0.98526 0.0
C352 C 0.14316 0.82995 0.98594 0.0
C353 C 0.17766 0.85128 0.97505 0.0
C354 C 0.17107 0.89478 0.96765 0.0
C355 C 0.13189 0.91777 0.97284 0.0
C356 C 0.22186 0.82899 0.97345 0.0
C357 C 0.23496 0.81547 0.9518 0.0
C358 C 0.24901 0.81765 0.99359 0.0
C359 C 0.23727 0.83226 0.01687 0.0
C360 C 0.2315 0.87713 0.02176 0.0
C361 C 0.21963 0.89065 0.04359 0.0
C362 C 0.21379 0.85961 0.06074 0.0
C363 C 0.21992 0.81499 0.05611 0.0
C364 C 0.2317 0.80129 0.03429 0.0
C365 C 0.41128 0.73243 0.95058 0.0
C366 C 0.41396 0.69176 0.96187 0.0
C367 C 0.37605 0.76161 0.95429 0.0
C368 C 0.34224 0.75018 0.96896 0.0
C369 C 0.34664 0.71081 0.98147 0.0
C370 C 0.38235 0.68181 0.97798 0.0
C371 C 0.30083 0.77766 0.97002 0.0
C372 C 0.28804 0.79201 0.99163 0.0
C373 C 0.27375 0.78938 0.94983 0.0
C374 C 0.2837 0.77297 0.9266 0.0
C375 C 0.28714 0.72763 0.92224 0.0
C376 C 0.29752 0.71245 0.90045 0.0
C377 C 0.30403 0.74227 0.8828 0.0
C378 C 0.30002 0.78733 0.88689 0.0
C379 C 0.2898 0.8027 0.90867 0.0
H380 H 0.31208 0.73045 0.86595 0.0
H381 H 0.20461 0.87013 0.07763 0.0
H382 H 0.93879 0.86948 0.02846 0.0
H383 H 0.89318 0.80742 0.0402 0.0
H384 H 0.77087 0.87893 0.02008 0.0
H385 H 0.81598 0.9408 0.00822 0.0
H386 H 0.76769 0.83843 0.06238 0.0
H387 H 0.80472 0.80266 0.98535 0.0
H388 H 0.85542 0.79013 0.95401 0.0
H389 H 0.92139 0.68529 0.99245 0.0
H390 H 0.8715 0.69767 0.02422 0.0
H391 H 0.60728 0.66873 0.06114 0.0
H392 H 0.65545 0.72314 0.04379 0.0
H393 H 0.77473 0.6549 0.07166 0.0
H394 H 0.72665 0.60091 0.08938 0.0
H395 H 0.78034 0.69215 0.02507 0.0
H396 H 0.74466 0.72969 0.10249 0.0
H397 H 0.69323 0.74172 0.13355 0.0
H398 H 0.62468 0.84371 0.09402 0.0
H399 H 0.6752 0.83163 0.06248 0.0
C400 C 0.90219 0.87208 0.02672 0.0
C401 C 0.88095 0.90992 0.01732 0.0
C402 C 0.87622 0.83655 0.0333 0.0
C403 C 0.82871 0.83851 0.03076 0.0
C404 C 0.8075 0.87677 0.02209 0.0
C405 C 0.83335 0.91203 0.01529 0.0
C406 C 0.80084 0.80065 0.03696 0.0
C407 C 0.77011 0.80661 0.05403 0.0
C408 C 0.80466 0.75896 0.02633 0.0
C409 C 0.83474 0.75145 0.00729 0.0
C410 C 0.83034 0.77722 0.98723 0.0
C411 C 0.85887 0.77009 0.96937 0.0
C412 C 0.89171 0.73703 0.97127 0.0
C413 C 0.896 0.71095 0.99103 0.0
C414 C 0.86759 0.718 0.00896 0.0
C415 C 0.64375 0.66467 0.06291 0.0
C416 C 0.66346 0.63093 0.07658 0.0
C417 C 0.67116 0.69575 0.05311 0.0
C418 C 0.71852 0.69308 0.05666 0.0
C419 C 0.73824 0.65736 0.06874 0.0
C420 C 0.71086 0.62671 0.07885 0.0
C421 C 0.74712 0.73019 0.05031 0.0
C422 C 0.778 0.72404 0.03333 0.0
C423 C 0.74353 0.77178 0.06101 0.0
C424 C 0.71331 0.77936 0.08 0.0
C425 C 0.7183 0.75436 0.10031 0.0
C426 C 0.68938 0.76123 0.11802 0.0
C427 C 0.65561 0.79337 0.11573 0.0
C428 C 0.65079 0.81876 0.09574 0.0
C429 C 0.67955 0.8119 0.07794 0.0
H430 H 0.63327 0.79869 0.12948 0.0
H431 H 0.91374 0.73153 0.95742 0.0
H432 H 0.92315 0.12613 0.04229 0.0
H433 H 0.88901 0.19918 0.04546 0.0
H434 H 0.94627 0.23745 0.9823 0.0
H435 H 0.98067 0.16475 0.97936 0.0
H436 H 0.93534 0.30924 0.01177 0.0
H437 H 0.84849 0.1846 0.97914 0.0
H438 H 0.81675 0.11001 0.9812 0.0
H439 H 0.74415 0.14862 0.03959 0.0
H440 H 0.77613 0.22332 0.03807 0.0
H441 H 0.77824 0.42543 0.93917 0.0
H442 H 0.83339 0.37815 0.96 0.0
H443 H 0.74056 0.35864 0.0131 0.0
H444 H 0.68433 0.40488 0.99177 0.0
H445 H 0.76995 0.28294 0.99896 0.0
H446 H 0.84294 0.41468 0.0241 0.0
H447 H 0.87521 0.48877 0.02095 0.0
H448 H 0.97356 0.43862 0.97652 0.0
H449 H 0.94147 0.36432 0.97909 0.0
C450 C 0.9307 0.15108 0.02992 0.0
C451 C 0.95495 0.14027 0.01076 0.0
C452 C 0.91076 0.19264 0.03157 0.0
C453 C 0.91445 0.22352 0.01389 0.0
C454 C 0.943 0.21425 0.99616 0.0
C455 C 0.96277 0.17275 0.9945 0.0
C456 C 0.88229 0.26099 0.0111 0.0
C457 C 0.89914 0.30373 0.00909 0.0
C458 C 0.83495 0.25385 0.00802 0.0
C459 C 0.81507 0.20929 0.00867 0.0
C460 C 0.82595 0.17707 0.99249 0.0
C461 C 0.80793 0.1348 0.99356 0.0
C462 C 0.77855 0.12454 0.01056 0.0
C463 C 0.767 0.15659 0.02647 0.0
C464 C 0.78507 0.19888 0.02552 0.0
C465 C 0.76964 0.41141 0.95539 0.0
C466 C 0.72663 0.41854 0.96365 0.0
C467 C 0.80153 0.38479 0.96748 0.0
C468 C 0.79145 0.36501 0.98829 0.0
C469 C 0.74925 0.37364 0.99714 0.0
C470 C 0.71722 0.4003 0.98499 0.0
C471 C 0.82286 0.33155 0.99915 0.0
C472 C 0.80589 0.28921 0.00244 0.0
C473 C 0.87001 0.33923 0.00331 0.0
C474 C 0.88959 0.38388 0.00171 0.0
C475 C 0.87125 0.41947 0.01352 0.0
C476 C 0.88955 0.46152 0.01186 0.0
C477 C 0.92638 0.46841 0.99852 0.0
C478 C 0.94503 0.43323 0.98685 0.0
C479 C 0.92684 0.39112 0.98844 0.0
H480 H 0.94049 0.50099 0.99725 0.0
H481 H 0.76463 0.0918 0.01136 0.0
H482 H 0.61471 0.66241 0.55566 0.0
H483 H 0.64776 0.73464 0.5501 0.0
H484 H 0.66694 0.70146 0.4791 0.0
H485 H 0.63235 0.62907 0.48455 0.0
H486 H 0.74728 0.7239 0.50623 0.0
H487 H 0.60244 0.78478 0.48766 0.0
H488 H 0.52107 0.79718 0.49185 0.0
H489 H 0.55181 0.8585 0.55785 0.0
H490 H 0.63334 0.84563 0.55434 0.0
H491 H 0.88265 0.91582 0.51769 0.0
H492 H 0.82295 0.86771 0.50049 0.0
H493 H 0.75342 0.87533 0.56328 0.0
H494 H 0.8114 0.9249 0.58002 0.0
H495 H 0.69297 0.87155 0.52814 0.0
H496 H 0.83024 0.79066 0.55181 0.0
H497 H 0.91148 0.77251 0.55122 0.0
H498 H 0.89391 0.74497 0.47851 0.0
H499 H 0.81261 0.7635 0.47865 0.0
C500 C 0.62428 0.67124 0.53862 0.0
C501 C 0.62085 0.64049 0.5205 0.0
C502 C 0.64321 0.71248 0.53544 0.0
C503 C 0.65986 0.72346 0.51419 0.0
C504 C 0.65406 0.6937 0.4956 0.0
C505 C 0.63407 0.65258 0.49866 0.0
C506 C 0.68888 0.76301 0.5129 0.0
C507 C 0.7352 0.75654 0.51025 0.0
C508 C 0.67321 0.80529 0.51872 0.0
C509 C 0.62417 0.81407 0.52075 0.0
C510 C 0.5919 0.8007 0.50314 0.0
C511 C 0.5457 0.80782 0.50539 0.0
C512 C 0.53129 0.8286 0.52511 0.0
C513 C 0.56305 0.84243 0.54258 0.0
C514 C 0.60929 0.83527 0.54045 0.0
C515 C 0.8541 0.90807 0.52762 0.0
C516 C 0.85236 0.92358 0.55043 0.0
C517 C 0.82011 0.88026 0.51783 0.0
C518 C 0.78402 0.86705 0.53073 0.0
C519 C 0.78091 0.88471 0.55296 0.0
C520 C 0.81453 0.91268 0.56265 0.0
C521 C 0.75164 0.83204 0.52228 0.0
C522 C 0.70481 0.83931 0.52326 0.0
C523 C 0.76681 0.79017 0.51527 0.0
C524 C 0.81559 0.77903 0.51518 0.0
C525 C 0.84381 0.78104 0.53568 0.0
C526 C 0.88983 0.77065 0.53543 0.0
C527 C 0.90788 0.75775 0.51482 0.0
C528 C 0.8799 0.75509 0.49444 0.0
C529 C 0.83387 0.76554 0.49459 0.0
H530 H 0.94351 0.74969 0.51466 0.0
H531 H 0.49552 0.83394 0.52687 0.0
H532 H 0.63187 0.36528 0.49958 0.0
H533 H 0.68064 0.30528 0.48712 0.0
H534 H 0.79769 0.38888 0.49818 0.0
H535 H 0.74967 0.44822 0.51116 0.0
H536 H 0.7902 0.33798 0.45464 0.0
H537 H 0.7827 0.32357 0.53799 0.0
H538 H 0.74163 0.31435 0.57315 0.0
H539 H 0.68467 0.19338 0.54622 0.0
H540 H 0.72493 0.20228 0.51071 0.0
H541 H 0.98439 0.21103 0.45736 0.0
H542 H 0.92586 0.26096 0.46989 0.0
H543 H 0.83278 0.15235 0.47215 0.0
H544 H 0.89225 0.10204 0.46034 0.0
H545 H 0.81902 0.20987 0.50611 0.0
H546 H 0.83081 0.21748 0.42521 0.0
H547 H 0.86942 0.22434 0.38914 0.0
H548 H 0.91242 0.3547 0.40874 0.0
H549 H 0.87481 0.34832 0.44517 0.0
C550 C 0.66794 0.37089 0.49907 0.0
C551 C 0.68709 0.41126 0.50641 0.0
C552 C 0.69568 0.33665 0.49206 0.0
C553 C 0.7427 0.34274 0.49187 0.0
C554 C 0.76149 0.38361 0.49825 0.0
C555 C 0.73404 0.41738 0.5057 0.0
C556 C 0.77308 0.30638 0.48587 0.0
C557 C 0.7967 0.31003 0.46589 0.0
C558 C 0.78029 0.2693 0.50022 0.0
C559 C 0.75632 0.26389 0.52158 0.0
C560 C 0.76105 0.29525 0.53946 0.0
C561 C 0.73801 0.29003 0.55948 0.0
C562 C 0.71043 0.25338 0.56189 0.0
C563 C 0.70596 0.22181 0.54431 0.0
C564 C 0.72889 0.22691 0.52424 0.0
C565 C 0.95179 0.19779 0.46118 0.0
C566 C 0.94259 0.15294 0.45804 0.0
C567 C 0.91827 0.22627 0.4681 0.0
C568 C 0.87456 0.21056 0.47137 0.0
C569 C 0.86616 0.16521 0.46959 0.0
C570 C 0.90004 0.13653 0.46294 0.0
C571 C 0.8373 0.24203 0.47514 0.0
C572 C 0.81223 0.23744 0.49463 0.0
C573 C 0.82813 0.27796 0.4601 0.0
C574 C 0.85024 0.28228 0.43802 0.0
C575 C 0.84874 0.24752 0.4219 0.0
C576 C 0.87045 0.25132 0.40139 0.0
C577 C 0.89341 0.28991 0.39667 0.0
C578 C 0.89463 0.32482 0.41244 0.0
C579 C 0.8731 0.32113 0.43302 0.0
H580 H 0.91021 0.29279 0.38077 0.0
H581 H 0.69262 0.24939 0.5774 0.0
H582 H 0.47619 0.34422 0.51399 0.0
H583 H 0.41086 0.30416 0.52601 0.0
H584 H 0.38052 0.41046 0.57189 0.0
H585 H 0.44643 0.45119 0.55989 0.0
H586 H 0.36766 0.32808 0.59079 0.0
H587 H 0.323 0.40318 0.52069 0.0
H588 H 0.33 0.42576 0.4804 0.0
H589 H 0.31939 0.29124 0.45811 0.0
H590 H 0.31305 0.26776 0.49835 0.0
H591 H 0.14914 0.24932 0.60771 0.0
H592 H 0.2077 0.29892 0.59551 0.0
H593 H 0.24563 0.20286 0.5454 0.0
H594 H 0.18622 0.15343 0.5573 0.0
H595 H 0.25212 0.28483 0.52876 0.0
H596 H 0.30407 0.21059 0.59948 0.0
H597 H 0.29914 0.18802 0.63997 0.0
H598 H 0.29524 0.32327 0.66115 0.0
H599 H 0.29931 0.34656 0.62071 0.0
C600 C 0.45604 0.35906 0.52684 0.0
C601 C 0.46626 0.40124 0.53576 0.0
C602 C 0.4185 0.33611 0.5336 0.0
C603 C 0.39014 0.35478 0.54937 0.0
C604 C 0.4017 0.39569 0.55947 0.0
C605 C 0.43942 0.41886 0.55264 0.0
C606 C 0.34775 0.33191 0.55456 0.0
C607 C 0.34186 0.31959 0.57735 0.0
C608 C 0.31471 0.31965 0.53684 0.0
C609 C 0.3179 0.33369 0.51257 0.0
C610 C 0.32246 0.37838 0.50722 0.0
C611 C 0.32628 0.39134 0.48439 0.0
C612 C 0.32523 0.35995 0.46671 0.0
C613 C 0.32023 0.31552 0.47183 0.0
C614 C 0.31648 0.30237 0.49464 0.0
C615 C 0.16944 0.23918 0.59378 0.0
C616 C 0.16347 0.19743 0.58356 0.0
C617 C 0.20305 0.26741 0.58692 0.0
C618 C 0.23189 0.25416 0.56997 0.0
C619 C 0.22398 0.21367 0.55864 0.0
C620 C 0.18996 0.18552 0.56536 0.0
C621 C 0.27188 0.28122 0.56509 0.0
C622 C 0.27747 0.2941 0.54231 0.0
C623 C 0.30454 0.29427 0.58284 0.0
C624 C 0.30183 0.28028 0.6071 0.0
C625 C 0.30189 0.23547 0.61277 0.0
C626 C 0.29923 0.22256 0.6357 0.0
C627 C 0.29683 0.25419 0.65312 0.0
C628 C 0.29703 0.2988 0.64764 0.0
C629 C 0.2995 0.31187 0.62473 0.0
H630 H 0.29486 0.24413 0.67086 0.0
H631 H 0.32821 0.37005 0.44904 0.0
H632 H 0.40541 0.55969 0.48552 0.0
H633 H 0.36042 0.62431 0.47453 0.0
H634 H 0.48077 0.70457 0.48119 0.0
H635 H 0.52586 0.63996 0.49308 0.0
H636 H 0.4146 0.74964 0.49624 0.0
H637 H 0.43372 0.67219 0.42747 0.0
H638 H 0.43541 0.61045 0.40007 0.0
H639 H 0.29205 0.59223 0.40342 0.0
H640 H 0.28961 0.65396 0.43107 0.0
H641 H 0.30482 0.9109 0.4167 0.0
H642 H 0.35586 0.85401 0.43353 0.0
H643 H 0.24132 0.78538 0.45784 0.0
H644 H 0.19025 0.84277 0.44157 0.0
H645 H 0.30861 0.73829 0.42633 0.0
H646 H 0.29758 0.82502 0.49686 0.0
H647 H 0.305 0.89379 0.51945 0.0
H648 H 0.44591 0.9012 0.50647 0.0
H649 H 0.43914 0.83279 0.48351 0.0
C650 C 0.42235 0.59109 0.48474 0.0
C651 C 0.4693 0.59457 0.48996 0.0
C652 C 0.39658 0.62806 0.47833 0.0
C653 C 0.41724 0.66929 0.47649 0.0
C654 C 0.46399 0.67316 0.48236 0.0
C655 C 0.48977 0.63615 0.48911 0.0
C656 C 0.38985 0.70782 0.46801 0.0
C657 C 0.3918 0.74718 0.48083 0.0
C658 C 0.36037 0.70517 0.44773 0.0
C659 C 0.36156 0.66744 0.43149 0.0
C660 C 0.40261 0.65476 0.42254 0.0
C661 C 0.40368 0.61979 0.40692 0.0
C662 C 0.36385 0.59728 0.40002 0.0
C663 C 0.32288 0.60969 0.40879 0.0
C664 C 0.32161 0.64474 0.42441 0.0
C665 C 0.29069 0.88392 0.42589 0.0
C666 C 0.24367 0.8811 0.42784 0.0
C667 C 0.31981 0.85163 0.43554 0.0
C668 C 0.30227 0.81569 0.44695 0.0
C669 C 0.25542 0.81307 0.44919 0.0
C670 C 0.22638 0.84582 0.43997 0.0
C671 C 0.33238 0.77913 0.45497 0.0
C672 C 0.33123 0.74037 0.44184 0.0
C673 C 0.36371 0.78305 0.4744 0.0
C674 C 0.36772 0.82405 0.48826 0.0
C675 C 0.33002 0.84156 0.49862 0.0
C676 C 0.33414 0.88041 0.51155 0.0
C677 C 0.37587 0.90192 0.51434 0.0
C678 C 0.41359 0.88455 0.50427 0.0
C679 C 0.40964 0.84571 0.49132 0.0
H680 H 0.37899 0.93199 0.52436 0.0
H681 H 0.36464 0.57036 0.3878 0.0
H682 H 0.99147 0.10079 0.06729 0.0
H683 H 0.9914 0.1292 0.10685 0.0
H684 H 0.9449 0.00363 0.12964 0.0
H685 H 0.94334 0.97577 0.09023 0.0
H686 H 0.91657 0.06906 0.15716 0.0
H687 H 0.05998 0.01661 0.12967 0.0
H688 H 0.11224 0.01669 0.09832 0.0
H689 H 0.1279 0.15637 0.10562 0.0
H690 H 0.07612 0.1569 0.13718 0.0
H691 H 0.03798 0.01234 0.26184 0.0
H692 H 0.01614 0.01543 0.22035 0.0
H693 H 0.04407 0.15432 0.22058 0.0
H694 H 0.06519 0.15158 0.26226 0.0
H695 H 0.07834 0.0973 0.18149 0.0
H696 H 0.94438 0.1372 0.22005 0.0
H697 H 0.8883 0.12713 0.24903 0.0
H698 H 0.8519 0.0014 0.21949 0.0
H699 H 0.90836 0.0104 0.19056 0.0
C700 C 0.97948 0.0799 0.08056 0.0
C701 C 0.96848 0.03579 0.07579 0.0
C702 C 0.97965 0.09606 0.10319 0.0
C703 C 0.96939 0.06809 0.12129 0.0
C704 C 0.95327 0.02572 0.11602 0.0
C705 C 0.95275 0.00973 0.09346 0.0
C706 C 0.98338 0.07916 0.14568 0.0
C707 C 0.95177 0.07576 0.16248 0.0
C708 C 0.02941 0.08748 0.15267 0.0
C709 C 0.06453 0.08677 0.13576 0.0
C710 C 0.07525 0.04718 0.1248 0.0
C711 C 0.10461 0.04712 0.10698 0.0
C712 C 0.12349 0.08645 0.10005 0.0
C713 C 0.11357 0.12586 0.11114 0.0
C714 C 0.08441 0.12605 0.12908 0.0
C715 C 0.04021 0.04335 0.25295 0.0
C716 C 0.05325 0.08172 0.26518 0.0
C717 C 0.0275 0.04513 0.22934 0.0
C718 C 0.02824 0.08516 0.21754 0.0
C719 C 0.04324 0.12319 0.22946 0.0
C720 C 0.05518 0.12158 0.25319 0.0
C721 C 0.01145 0.08723 0.19297 0.0
C722 C 0.0428 0.09235 0.17618 0.0
C723 C 0.96527 0.07961 0.18608 0.0
C724 C 0.93085 0.07435 0.20325 0.0
C725 C 0.92468 0.10725 0.21985 0.0
C726 C 0.89278 0.10176 0.23625 0.0
C727 C 0.86661 0.06361 0.23613 0.0
C728 C 0.87221 0.03092 0.21957 0.0
C729 C 0.90413 0.03623 0.20315 0.0
H730 H 0.84193 0.05941 0.24885 0.0
H731 H 0.1456 0.0863 0.086 0.0
H732 H 0.09001 1.00077 0.94009 0.0
H733 H 0.11916 0.98713 0.90195 0.0
H734 H 0.9868 0.94212 0.87616 0.0
H735 H 0.95821 0.95468 0.91377 0.0
H736 H 0.05152 0.8919 0.85956 0.0
H737 H 0.02135 0.04922 0.86972 0.0
H738 H 0.03451 0.121 0.88896 0.0
H739 H 0.17494 0.11537 0.87471 0.0
H740 H 0.16262 0.04326 0.85562 0.0
H741 H 0.98523 0.94866 0.74618 0.0
H742 H 0.99885 0.94098 0.78779 0.0
H743 H 0.13907 0.97587 0.78315 0.0
H744 H 0.12621 0.98223 0.74117 0.0
H745 H 0.09673 0.02349 0.81685 0.0
H746 H 0.11782 0.87412 0.79668 0.0
H747 H 0.10076 0.80411 0.7764 0.0
H748 H 0.97506 0.79494 0.8088 0.0
H749 H 0.99099 0.86524 0.82901 0.0
C750 C 0.06759 0.98712 0.92635 0.0
C751 C 0.02182 0.97905 0.92985 0.0
C752 C 0.08414 0.97958 0.90458 0.0
C753 C 0.05504 0.96384 0.88616 0.0
C754 C 0.00996 0.9541 0.89007 0.0
C755 C 0.99354 0.96171 0.91159 0.0
C756 C 0.06923 0.96039 0.86219 0.0
C757 C 0.06176 0.92056 0.85023 0.0
C758 C 0.08392 0.99741 0.85016 0.0
C759 C 0.09122 0.0407 0.86155 0.0
C760 C 0.05508 0.06318 0.87085 0.0
C761 C 0.06238 0.10392 0.8817 0.0
C762 C 0.10557 0.12266 0.88313 0.0
C763 C 0.14153 0.10075 0.87365 0.0
C764 C 0.13442 0.05997 0.86282 0.0
C765 C 0.01928 0.9537 0.75382 0.0
C766 C 0.05461 0.96596 0.74019 0.0
C767 C 0.02697 0.94947 0.77768 0.0
C768 C 0.07008 0.95747 0.78853 0.0
C769 C 0.10558 0.96948 0.77509 0.0
C770 C 0.09803 0.97335 0.75112 0.0
C771 C 0.0767 0.95558 0.81405 0.0
C772 C 0.08811 0.99436 0.82627 0.0
C773 C 0.06526 0.91765 0.82629 0.0
C774 C 0.05559 0.8751 0.81432 0.0
C775 C 0.08641 0.85733 0.79938 0.0
C776 C 0.07695 0.81756 0.7879 0.0
C777 C 0.03684 0.79511 0.7913 0.0
C778 C 0.00614 0.81235 0.8062 0.0
C779 C 0.01541 0.85213 0.81771 0.0
H780 H 0.02957 0.76433 0.78239 0.0
H781 H 0.11116 0.1542 0.89153 0.0
H782 H 0.5819 0.42855 0.60622 0.0
H783 H 0.55362 0.42736 0.64483 0.0
H784 H 0.45953 0.53126 0.62544 0.0
H785 H 0.48669 0.53137 0.58633 0.0
H786 H 0.53244 0.54642 0.66412 0.0
H787 H 0.41112 0.45023 0.63923 0.0
H788 H 0.37729 0.38502 0.61978 0.0
H789 H 0.45704 0.30122 0.66598 0.0
H790 H 0.49193 0.36619 0.68556 0.0
H791 H 0.47044 0.57225 0.77728 0.0
H792 H 0.46522 0.56259 0.73567 0.0
H793 H 0.52174 0.4324 0.74346 0.0
H794 H 0.52371 0.44038 0.78544 0.0
H795 H 0.45903 0.43206 0.70914 0.0
H796 H 0.58717 0.52277 0.73066 0.0
H797 H 0.6285 0.58522 0.74929 0.0
H798 H 0.54496 0.67547 0.70875 0.0
H799 H 0.50271 0.61352 0.69009 0.0
C800 C 0.55405 0.45002 0.60998 0.0
C801 C 0.53643 0.48014 0.59348 0.0
C802 C 0.53792 0.44926 0.63197 0.0
C803 C 0.50464 0.47927 0.6379 0.0
C804 C 0.48507 0.5077 0.62104 0.0
C805 C 0.50043 0.50765 0.59878 0.0
C806 C 0.4961 0.48526 0.66248 0.0
C807 C 0.51535 0.52204 0.67393 0.0
C808 C 0.47566 0.45234 0.67524 0.0
C809 C 0.45447 0.41312 0.66372 0.0
C810 C 0.42178 0.41792 0.64512 0.0
C811 C 0.40234 0.38094 0.63409 0.0
C812 C 0.41515 0.3389 0.64155 0.0
C813 C 0.44722 0.3338 0.66018 0.0
C814 C 0.4668 0.37071 0.67128 0.0
C815 C 0.4808 0.54104 0.77031 0.0
C816 C 0.49755 0.50708 0.78491 0.0
C817 C 0.47835 0.53584 0.74639 0.0
C818 C 0.49389 0.49711 0.73637 0.0
C819 C 0.50973 0.46269 0.75079 0.0
C820 C 0.51144 0.46757 0.77482 0.0
C821 C 0.49537 0.49344 0.71091 0.0
C822 C 0.47536 0.45692 0.69933 0.0
C823 C 0.51608 0.52619 0.69799 0.0
C824 C 0.54144 0.56353 0.70917 0.0
C825 C 0.57738 0.55595 0.72585 0.0
C826 C 0.60101 0.59125 0.73639 0.0
C827 C 0.58927 0.63429 0.73026 0.0
C828 C 0.55396 0.64211 0.71352 0.0
C829 C 0.53017 0.60692 0.70294 0.0
H830 H 0.60762 0.66158 0.73844 0.0
H831 H 0.40022 0.31025 0.63294 0.0
H832 H 0.54101 0.59037 0.45427 0.0
H833 H 0.53146 0.60745 0.41313 0.0
H834 H 0.64652 0.52579 0.4006 0.0
H835 H 0.65458 0.50672 0.44161 0.0
H836 H 0.6247 0.60994 0.36953 0.0
H837 H 0.5677 0.47214 0.39991 0.0
H838 H 0.52498 0.43204 0.42801 0.0
H839 H 0.40401 0.50219 0.40554 0.0
H840 H 0.44645 0.5435 0.37761 0.0
H841 H 0.58983 0.51625 0.25881 0.0
H842 H 0.60669 0.5306 0.2999 0.0
H843 H 0.46643 0.56373 0.30704 0.0
H844 H 0.44923 0.54882 0.26579 0.0
H845 H 0.497 0.51358 0.34137 0.0
H846 H 0.54896 0.64389 0.30725 0.0
H847 H 0.59033 0.68846 0.28037 0.0
H848 H 0.71675 0.63603 0.30901 0.0
H849 H 0.67609 0.5906 0.33584 0.0
C850 C 0.56567 0.57791 0.44296 0.0
C851 C 0.59841 0.54713 0.45097 0.0
C852 C 0.56006 0.58755 0.41945 0.0
C853 C 0.588 0.56742 0.40392 0.0
C854 C 0.62476 0.54166 0.41241 0.0
C855 C 0.62943 0.53088 0.4358 0.0
C856 C 0.57333 0.56512 0.37911 0.0
C857 C 0.59695 0.58884 0.36325 0.0
C858 C 0.53643 0.53822 0.37117 0.0
C859 C 0.51059 0.51203 0.38725 0.0
C860 C 0.53221 0.47964 0.40126 0.0
C861 C 0.50801 0.45653 0.41708 0.0
C862 C 0.4619 0.46492 0.41873 0.0
C863 C 0.43982 0.49609 0.40439 0.0
C864 C 0.46396 0.51941 0.3886 0.0
C865 C 0.56261 0.52684 0.26911 0.0
C866 C 0.51826 0.53172 0.25908 0.0
C867 C 0.57233 0.53521 0.29257 0.0
C868 C 0.53804 0.54919 0.30647 0.0
C869 C 0.49348 0.55326 0.29661 0.0
C870 C 0.48365 0.54456 0.2731 0.0
C871 C 0.5487 0.55805 0.33143 0.0
C872 C 0.52437 0.5353 0.34745 0.0
C873 C 0.58473 0.58611 0.33946 0.0
C874 C 0.60941 0.61357 0.32345 0.0
C875 C 0.58556 0.64161 0.30771 0.0
C876 C 0.60889 0.66707 0.2925 0.0
C877 C 0.65613 0.66502 0.29296 0.0
C878 C 0.68015 0.63757 0.30867 0.0
C879 C 0.65698 0.61199 0.32391 0.0
H880 H 0.67413 0.68475 0.28116 0.0
H881 H 0.4432 0.44703 0.431 0.0
loop_
_geom_bond_atom_site_label_1
_geom_bond_atom_site_label_2
_geom_bond_distance
_geom_bond_site_symmetry_2
_ccdc_geom_bond_type
Zn0 O6 1.899 1_546 S
Zn0 O12 1.898 . S
Zn0 O15 1.905 1_545 S
Zn1 O9 1.905 . S
Zn1 O10 1.898 1_545 S
Zn1 O18 1.920 1_545 S
Zn2 O5 2.080 1_445 S
Zn2 O8 2.114 . S
Zn2 O11 2.120 1_545 S
Zn2 O13 2.120 1_455 S
Zn2 O14 2.114 1_554 S
Zn2 O17 2.080 . S
C3 O8 1.166 . S
C3 O9 1.182 . S
C4 O10 1.167 . S
C4 O11 1.299 . S
O5 Zn2 2.080 1_665 S
O5 C19 1.305 . S
O6 Zn0 1.899 1_564 S
O6 C19 1.250 . S
C7 O12 1.168 . S
C7 O13 1.297 1_556 S
O8 Zn2 2.114 . S
O8 C3 1.166 . S
O9 Zn1 1.905 . S
O9 C3 1.182 . S
O10 Zn1 1.898 1_565 S
O10 C4 1.167 . S
O11 Zn2 2.120 1_565 S
O11 C4 1.299 . S
O12 Zn0 1.898 . S
O12 C7 1.168 . S
O13 Zn2 2.120 1_655 S
O13 C7 1.297 1_554 S
O14 Zn2 2.114 1_556 S
O14 C16 1.166 1_545 S
O15 Zn0 1.905 1_565 S
O15 C16 1.182 1_655 S
C16 O14 1.166 1_565 S
C16 O15 1.182 1_455 S
O17 Zn2 2.080 . S
O17 C20 1.305 1_545 S
O18 Zn1 1.920 1_565 S
O18 C20 1.234 . S
C19 O5 1.305 . S
C19 O6 1.250 . S
C20 O17 1.305 1_565 S
C20 O18 1.234 . S
Zn21 O27 1.920 . S
Zn21 O33 1.898 . S
Zn21 O36 1.905 . S
Zn22 O30 1.905 . S
Zn22 O31 1.898 . S
Zn22 O39 1.920 . S
Zn23 O26 2.080 . S
Zn23 O29 2.114 . S
Zn23 O32 2.120 . S
Zn23 O34 2.120 . S
Zn23 O35 2.114 . S
Zn23 O38 2.080 . S
C24 O29 1.166 . S
C24 O30 1.182 . S
C25 O31 1.167 . S
C25 O32 1.299 . S
O26 Zn23 2.080 . S
O26 C40 1.305 . S
O27 Zn21 1.920 . S
O27 C40 1.234 . S
C28 O33 1.167 . S
C28 O34 1.299 . S
O29 Zn23 2.114 . S
O29 C24 1.166 . S
O30 Zn22 1.905 . S
O30 C24 1.182 . S
O31 Zn22 1.898 . S
O31 C25 1.167 . S
O32 Zn23 2.120 . S
O32 C25 1.299 . S
O33 Zn21 1.898 . S
O33 C28 1.167 . S
O34 Zn23 2.120 . S
O34 C28 1.299 . S
O35 Zn23 2.114 . S
O35 C37 1.166 . S
O36 Zn21 1.905 . S
O36 C37 1.182 . S
C37 O35 1.166 . S
C37 O36 1.182 . S
O38 Zn23 2.080 . S
O38 C41 1.305 . S
O39 Zn22 1.920 . S
O39 C41 1.234 . S
C40 O26 1.305 . S
C40 O27 1.234 . S
C41 O38 1.305 . S
C41 O39 1.234 . S
C42 C43 1.391 . S
C42 C46 1.391 . S
C42 H84 0.948 . S
C43 C42 1.391 . S
C43 C44 1.391 . S
C44 C43 1.391 . S
C44 H100 0.947 . S
C44 C101 1.392 . S
C45 C46 1.391 . S
C45 C49 1.397 1_565 S
C45 C101 1.419 . S
C46 C42 1.391 . S
C46 C45 1.391 . S
C46 C47 1.384 1_565 S
C47 C46 1.384 1_545 S
C47 C50 1.407 . S
C47 C59 1.469 . S
C47 C60 1.679 1_545 S
H48 C72 0.948 . S
C49 C45 1.397 1_545 S
C49 C50 1.394 . S
C49 C68 1.723 . S
C50 C47 1.407 . S
C50 C49 1.394 . S
C50 C80 1.723 . S
H51 C74 0.947 . S
H52 C75 0.948 . S
H53 C81 0.982 . S
H54 C82 0.979 . S
H55 C82 0.980 . S
H56 C82 0.983 . S
H57 C81 0.979 1_655 S
H58 C81 0.977 . S
C59 C47 1.469 . S
C59 H88 0.982 . S
C59 H89 0.979 . S
C59 H90 0.977 . S
C60 C47 1.679 1_565 S
C60 H85 0.979 . S
C60 H86 0.980 1_565 S
C60 H87 0.983 . S
C61 C62 1.391 . S
C61 C66 1.391 . S
C61 H91 0.948 1_545 S
C62 C61 1.391 . S
C62 C63 1.391 . S
C63 C62 1.391 . S
C63 C64 1.392 . S
C63 H92 0.947 . S
C64 C63 1.392 . S
C64 C65 1.419 . S
C64 H93 0.948 . S
C65 C64 1.419 . S
C65 C66 1.391 . S
C65 C69 1.397 . S
C66 C61 1.391 . S
C66 C65 1.391 . S
C66 C67 1.399 1_545 S
C67 C66 1.399 1_565 S
C67 C68 1.396 1_565 S
C67 C70 1.453 . S
C67 C71 1.684 . S
C68 C49 1.723 . S
C68 C67 1.396 1_545 S
C68 C69 1.394 . S
C69 C65 1.397 . S
C69 C68 1.394 . S
C69 C79 1.723 . S
C70 C67 1.453 . S
C70 H94 0.982 1_565 S
C70 H95 0.979 . S
C70 H96 0.977 . S
C71 C67 1.684 . S
C71 H97 0.979 . S
C71 H98 0.980 . S
C71 H99 0.983 . S
C72 H48 0.948 . S
C72 C73 1.391 . S
C72 C77 1.391 . S
C73 C72 1.391 . S
C73 C74 1.391 . S
C74 H51 0.947 . S
C74 C73 1.391 . S
C74 C75 1.392 1_655 S
C75 H52 0.948 . S
C75 C74 1.392 1_455 S
C75 C76 1.419 . S
C76 C75 1.419 . S
C76 C77 1.391 1_455 S
C76 C80 1.397 . S
C77 C72 1.391 . S
C77 C76 1.391 1_655 S
C77 C78 1.399 . S
C78 C77 1.399 . S
C78 C79 1.396 1_655 S
C78 C81 1.453 1_655 S
C78 C82 1.684 . S
C79 C69 1.723 . S
C79 C78 1.396 1_455 S
C79 C80 1.394 . S
C80 C50 1.723 . S
C80 C76 1.397 . S
C80 C79 1.394 . S
C81 H53 0.982 . S
C81 H57 0.979 1_455 S
C81 H58 0.977 . S
C81 C78 1.453 1_455 S
C82 H54 0.979 . S
C82 H55 0.980 . S
C82 H56 0.983 . S
C82 C78 1.684 . S
H83 C101 0.948 . S
H84 C42 0.948 . S
H85 C60 0.979 . S
H86 C60 0.980 1_545 S
H87 C60 0.983 . S
H88 C59 0.982 . S
H89 C59 0.979 . S
H90 C59 0.977 . S
H91 C61 0.948 1_565 S
H92 C63 0.947 . S
H93 C64 0.948 . S
H94 C70 0.982 1_545 S
H95 C70 0.979 . S
H96 C70 0.977 . S
H97 C71 0.979 . S
H98 C71 0.980 . S
H99 C71 0.983 . S
H100 C44 0.947 . S
C101 C44 1.392 . S
C101 C45 1.419 . S
C101 H83 0.948 . S
C102 C103 1.391 . S
C102 C106 1.391 . S
C102 H144 0.948 . S
C103 C102 1.391 . S
C103 C104 1.391 . S
C104 C103 1.391 . S
C104 H160 0.947 . S
C104 C161 1.392 . S
C105 C106 1.391 . S
C105 C109 1.397 . S
C105 C161 1.419 . S
C106 C102 1.391 . S
C106 C105 1.391 . S
C106 C107 1.399 . S
C107 C106 1.399 . S
C107 C110 1.396 . S
C107 C119 1.453 . S
C107 C120 1.684 1_455 S
H108 C132 0.948 . S
C109 C105 1.397 . S
C109 C110 1.394 . S
C109 C128 1.723 . S
C110 C107 1.396 . S
C110 C109 1.394 . S
C110 C140 1.723 1_455 S
H111 C134 0.947 . S
H112 C135 0.948 . S
H113 C141 0.982 . S
H114 C142 0.979 . S
H115 C142 0.980 . S
H116 C142 0.983 . S
H117 C141 0.979 . S
H118 C141 0.977 . S
C119 C107 1.453 . S
C119 H148 0.982 . S
C119 H149 0.979 . S
C119 H150 0.977 . S
C120 C107 1.684 1_655 S
C120 H145 0.979 . S
C120 H146 0.980 . S
C120 H147 0.983 1_655 S
C121 C122 1.391 1_455 S
C121 C126 1.391 . S
C121 H151 0.948 . S
C122 C121 1.391 1_655 S
C122 C123 1.407 . S
C123 C122 1.407 . S
C123 C124 1.391 1_545 S
C123 H152 0.933 1_545 S
C124 C123 1.391 1_565 S
C124 C125 1.419 1_565 S
C124 H153 0.948 . S
C125 C124 1.419 1_545 S
C125 C126 1.391 1_655 S
C125 C129 1.397 . S
C126 C121 1.391 . S
C126 C125 1.391 1_455 S
C126 C127 1.399 . S
C127 C126 1.399 . S
C127 C128 1.396 . S
C127 C130 1.453 . S
C127 C131 1.684 . S
C128 C109 1.723 . S
C128 C127 1.396 . S
C128 C129 1.394 1_455 S
C129 C125 1.397 . S
C129 C128 1.394 1_655 S
C129 C139 1.723 1_545 S
C130 C127 1.453 . S
C130 H154 0.982 . S
C130 H155 0.979 . S
C130 H156 0.977 . S
C131 C127 1.684 . S
C131 H157 0.979 . S
C131 H158 0.980 . S
C131 H159 0.983 . S
C132 H108 0.948 . S
C132 C133 1.391 . S
C132 C137 1.391 . S
C133 C132 1.391 . S
C133 C134 1.391 . S
C134 H111 0.947 . S
C134 C133 1.391 . S
C134 C135 1.392 . S
C135 H112 0.948 . S
C135 C134 1.392 . S
C135 C136 1.419 . S
C136 C135 1.419 . S
C136 C137 1.391 . S
C136 C140 1.397 1_565 S
C137 C132 1.391 . S
C137 C136 1.391 . S
C137 C138 1.399 . S
C138 C137 1.399 . S
C138 C139 1.396 . S
C138 C141 1.453 . S
C138 C142 1.684 . S
C139 C129 1.723 1_565 S
C139 C138 1.396 . S
C139 C140 1.394 1_565 S
C140 C110 1.723 1_655 S
C140 C136 1.397 1_545 S
C140 C139 1.394 1_545 S
C141 H113 0.982 . S
C141 H117 0.979 . S
C141 H118 0.977 . S
C141 C138 1.453 . S
C142 H114 0.979 . S
C142 H115 0.980 . S
C142 H116 0.983 . S
C142 C138 1.684 . S
H143 C161 0.948 . S
H144 C102 0.948 . S
H145 C120 0.979 . S
H146 C120 0.980 . S
H147 C120 0.983 1_455 S
H148 C119 0.982 . S
H149 C119 0.979 . S
H150 C119 0.977 . S
H151 C121 0.948 . S
H152 C123 0.933 1_565 S
H153 C124 0.948 . S
H154 C130 0.982 . S
H155 C130 0.979 . S
H156 C130 0.977 . S
H157 C131 0.979 . S
H158 C131 0.980 . S
H159 C131 0.983 . S
H160 C104 0.947 . S
C161 C104 1.392 . S
C161 C105 1.419 . S
C161 H143 0.948 . S
C162 C163 1.391 . S
C162 C166 1.391 . S
C162 H204 0.948 . S
C163 C162 1.391 . S
C163 C164 1.391 . S
C164 C163 1.391 . S
C164 H220 0.947 . S
C164 C221 1.392 . S
C165 C166 1.391 . S
C165 C169 1.397 . S
C165 C221 1.419 . S
C166 C162 1.391 . S
C166 C165 1.391 . S
C166 C167 1.399 . S
C167 C166 1.399 . S
C167 C170 1.396 . S
C167 C179 1.453 . S
C167 C180 1.684 . S
H168 C192 0.948 . S
C169 C165 1.397 . S
C169 C170 1.394 . S
C169 C188 1.723 . S
C170 C167 1.396 . S
C170 C169 1.394 . S
C170 C200 1.723 . S
H171 C194 0.947 . S
H172 C195 0.948 . S
H173 C201 0.982 . S
H174 C202 0.979 . S
H175 C202 0.980 . S
H176 C202 0.983 . S
H177 C201 0.979 . S
H178 C201 0.977 . S
C179 C167 1.453 . S
C179 H208 0.982 . S
C179 H209 0.979 . S
C179 H210 0.977 . S
C180 C167 1.684 . S
C180 H205 0.979 . S
C180 H206 0.980 . S
C180 H207 0.983 . S
C181 C182 1.391 . S
C181 C186 1.391 . S
C181 H211 0.948 . S
C182 C181 1.391 . S
C182 C183 1.391 . S
C183 C182 1.391 . S
C183 C184 1.392 . S
C183 H212 0.947 . S
C184 C183 1.392 . S
C184 C185 1.419 . S
C184 H213 0.948 . S
C185 C184 1.419 . S
C185 C186 1.391 . S
C185 C189 1.397 . S
C186 C181 1.391 . S
C186 C185 1.391 . S
C186 C187 1.399 . S
C187 C186 1.399 . S
C187 C188 1.396 . S
C187 C190 1.453 . S
C187 C191 1.684 . S
C188 C169 1.723 . S
C188 C187 1.396 . S
C188 C189 1.394 . S
C189 C185 1.397 . S
C189 C188 1.394 . S
C189 C199 1.723 . S
C190 C187 1.453 . S
C190 H214 0.982 . S
C190 H215 0.979 . S
C190 H216 0.977 . S
C191 C187 1.684 . S
C191 H217 0.979 . S
C191 H218 0.980 . S
C191 H219 0.983 . S
C192 H168 0.948 . S
C192 C193 1.391 . S
C192 C197 1.391 . S
C193 C192 1.391 . S
C193 C194 1.391 . S
C194 H171 0.947 . S
C194 C193 1.391 . S
C194 C195 1.392 . S
C195 H172 0.948 . S
C195 C194 1.392 . S
C195 C196 1.419 . S
C196 C195 1.419 . S
C196 C197 1.391 . S
C196 C200 1.397 . S
C197 C192 1.391 . S
C197 C196 1.391 . S
C197 C198 1.399 . S
C198 C197 1.399 . S
C198 C199 1.396 . S
C198 C201 1.453 . S
C198 C202 1.684 . S
C199 C189 1.723 . S
C199 C198 1.396 . S
C199 C200 1.394 . S
C200 C170 1.723 . S
C200 C196 1.397 . S
C200 C199 1.394 . S
C201 H173 0.982 . S
C201 H177 0.979 . S
C201 H178 0.977 . S
C201 C198 1.453 . S
C202 H174 0.979 . S
C202 H175 0.980 . S
C202 H176 0.983 . S
C202 C198 1.684 . S
H203 C221 0.948 . S
H204 C162 0.948 . S
H205 C180 0.979 . S
H206 C180 0.980 . S
H207 C180 0.983 . S
H208 C179 0.982 . S
H209 C179 0.979 . S
H210 C179 0.977 . S
H211 C181 0.948 . S
H212 C183 0.947 . S
H213 C184 0.948 . S
H214 C190 0.982 . S
H215 C190 0.979 . S
H216 C190 0.977 . S
H217 C191 0.979 . S
H218 C191 0.980 . S
H219 C191 0.983 . S
H220 C164 0.947 . S
C221 C164 1.392 . S
C221 C165 1.419 . S
C221 H203 0.948 . S
C222 C223 1.391 . S
C222 C226 1.391 . S
C222 H264 0.948 . S
C223 C222 1.391 . S
C223 C224 1.391 . S
C224 C223 1.391 . S
C224 H280 0.947 . S
C224 C281 1.392 . S
C225 C226 1.391 . S
C225 C229 1.397 . S
C225 C281 1.419 . S
C226 C222 1.391 . S
C226 C225 1.391 . S
C226 C227 1.399 . S
C227 C226 1.399 . S
C227 C230 1.396 . S
C227 C239 1.453 . S
C227 C240 1.684 . S
H228 C252 0.948 . S
C229 C225 1.397 . S
C229 C230 1.394 . S
C229 C248 1.723 . S
C230 C227 1.396 . S
C230 C229 1.394 . S
C230 C260 1.723 . S
H231 C254 0.947 . S
H232 C255 0.948 . S
H233 C261 0.982 . S
H234 C262 0.979 . S
H235 C262 0.980 . S
H236 C262 0.983 . S
H237 C261 0.979 . S
H238 C261 0.977 . S
C239 C227 1.453 . S
C239 H268 0.982 . S
C239 H269 0.979 . S
C239 H270 0.977 . S
C240 C227 1.684 . S
C240 H265 0.979 . S
C240 H266 0.980 . S
C240 H267 0.983 . S
C241 C242 1.391 . S
C241 C246 1.391 . S
C241 H271 0.948 . S
C242 C241 1.391 . S
C242 C243 1.391 . S
C243 C242 1.391 . S
C243 C244 1.392 . S
C243 H272 0.947 . S
C244 C243 1.392 . S
C244 C245 1.419 . S
C244 H273 0.948 . S
C245 C244 1.419 . S
C245 C246 1.391 . S
C245 C249 1.397 . S
C246 C241 1.391 . S
C246 C245 1.391 . S
C246 C247 1.399 . S
C247 C246 1.399 . S
C247 C248 1.396 . S
C247 C250 1.453 . S
C247 C251 1.684 . S
C248 C229 1.723 . S
C248 C247 1.396 . S
C248 C249 1.394 . S
C249 C245 1.397 . S
C249 C248 1.394 . S
C249 C259 1.723 . S
C250 C247 1.453 . S
C250 H274 0.982 . S
C250 H275 0.979 . S
C250 H276 0.977 . S
C251 C247 1.684 . S
C251 H277 0.979 . S
C251 H278 0.980 . S
C251 H279 0.983 . S
C252 H228 0.948 . S
C252 C253 1.391 . S
C252 C257 1.391 . S
C253 C252 1.391 . S
C253 C254 1.391 . S
C254 H231 0.947 . S
C254 C253 1.391 . S
C254 C255 1.392 . S
C255 H232 0.948 . S
C255 C254 1.392 . S
C255 C256 1.419 . S
C256 C255 1.419 . S
C256 C257 1.391 . S
C256 C260 1.397 . S
C257 C252 1.391 . S
C257 C256 1.391 . S
C257 C258 1.399 . S
C258 C257 1.399 . S
C258 C259 1.396 . S
C258 C261 1.453 . S
C258 C262 1.684 . S
C259 C249 1.723 . S
C259 C258 1.396 . S
C259 C260 1.394 . S
C260 C230 1.723 . S
C260 C256 1.397 . S
C260 C259 1.394 . S
C261 H233 0.982 . S
C261 H237 0.979 . S
C261 H238 0.977 . S
C261 C258 1.453 . S
C262 H234 0.979 . S
C262 H235 0.980 . S
C262 H236 0.983 . S
C262 C258 1.684 . S
H263 C281 0.948 . S
H264 C222 0.948 . S
H265 C240 0.979 . S
H266 C240 0.980 . S
H267 C240 0.983 . S
H268 C239 0.982 . S
H269 C239 0.979 . S
H270 C239 0.977 . S
H271 C241 0.948 . S
H272 C243 0.947 . S
H273 C244 0.948 . S
H274 C250 0.982 . S
H275 C250 0.979 . S
H276 C250 0.977 . S
H277 C251 0.979 . S
H278 C251 0.980 . S
H279 C251 0.983 . S
H280 C224 0.947 . S
C281 C224 1.392 . S
C281 C225 1.419 . S
C281 H263 0.948 . S
H282 C300 0.951 . S
H283 C302 0.951 . S
H284 C304 0.950 . S
H285 C305 0.950 . S
H286 C307 0.950 . S
H287 C310 0.950 . S
H288 C311 0.950 . S
H289 C313 0.950 . S
H290 C314 0.950 . S
H291 C315 0.951 . S
H292 C317 0.951 . S
H293 C319 0.950 . S
H294 C320 0.950 . S
H295 C322 0.950 . S
H296 C325 0.950 . S
H297 C326 0.950 1_556 S
H298 C328 0.950 . S
H299 C329 0.950 . S
C300 H282 0.951 . S
C300 C301 1.366 . S
C300 C302 1.388 . S
C301 C300 1.366 . S
C301 C305 1.385 . S
C302 H283 0.951 . S
C302 C300 1.388 . S
C302 C303 1.366 . S
C303 C302 1.366 . S
C303 C304 1.414 . S
C303 C306 1.499 . S
C304 H284 0.950 . S
C304 C303 1.414 . S
C304 C305 1.374 . S
C305 H285 0.950 . S
C305 C301 1.385 . S
C305 C304 1.374 . S
C306 C303 1.499 . S
C306 C307 1.373 . S
C306 C308 1.389 . S
C307 H286 0.950 . S
C307 C306 1.373 . S
C307 C323 1.377 . S
C308 C306 1.389 . S
C308 C309 1.524 . S
C308 C322 1.377 . S
C309 C308 1.524 . S
C309 C310 1.397 . S
C309 C314 1.363 . S
C310 H287 0.950 . S
C310 C309 1.397 . S
C310 C311 1.334 . S
C311 H288 0.950 . S
C311 C310 1.334 . S
C311 C312 1.287 . S
C312 C311 1.287 . S
C312 C313 1.524 . S
C312 H331 0.913 . S
C313 H289 0.950 . S
C313 C312 1.524 . S
C313 C314 1.415 . S
C314 H290 0.950 . S
C314 C309 1.363 . S
C314 C313 1.415 . S
C315 H291 0.951 . S
C315 C316 1.366 . S
C315 C317 1.388 . S
C316 C315 1.366 . S
C316 C320 1.385 . S
C317 H292 0.951 . S
C317 C315 1.388 . S
C317 C318 1.366 . S
C318 C317 1.366 . S
C318 C319 1.414 . S
C318 C321 1.499 . S
C319 H293 0.950 . S
C319 C318 1.414 . S
C319 C320 1.374 . S
C320 H294 0.950 . S
C320 C316 1.385 . S
C320 C319 1.374 . S
C321 C318 1.499 . S
C321 C322 1.373 . S
C321 C323 1.389 . S
C322 H295 0.950 . S
C322 C308 1.377 . S
C322 C321 1.373 . S
C323 C307 1.377 . S
C323 C321 1.389 . S
C323 C324 1.524 . S
C324 C323 1.524 . S
C324 C325 1.397 . S
C324 C329 1.363 . S
C325 H296 0.950 . S
C325 C324 1.397 . S
C325 C326 1.334 . S
C326 H297 0.950 1_554 S
C326 C325 1.334 . S
C326 C327 1.287 . S
C327 C326 1.287 . S
C327 C328 1.524 . S
C327 H330 0.999 . S
C328 H298 0.950 . S
C328 C327 1.524 . S
C328 C329 1.415 . S
C329 H299 0.950 . S
C329 C324 1.363 . S
C329 C328 1.415 . S
H330 C327 0.999 . S
H331 C312 0.913 . S
H332 C350 0.951 . S
H333 C352 0.951 . S
H334 C354 0.950 . S
H335 C355 0.950 1_554 S
H336 C357 0.950 . S
H337 C360 0.950 . S
H338 C361 0.950 . S
H339 C363 0.950 . S
H340 C364 0.969 . S
H341 C365 0.951 . S
H342 C367 0.951 . S
H343 C369 0.950 . S
H344 C370 0.950 . S
H345 C372 0.950 . S
H346 C375 0.950 . S
H347 C376 0.950 . S
H348 C378 0.950 . S
H349 C379 0.950 . S
C350 H332 0.951 . S
C350 C351 1.366 . S
C350 C352 1.388 . S
C351 C350 1.366 . S
C351 C355 1.385 . S
C352 H333 0.951 . S
C352 C350 1.388 . S
C352 C353 1.366 . S
C353 C352 1.366 . S
C353 C354 1.414 . S
C353 C356 1.499 . S
C354 H334 0.950 . S
C354 C353 1.414 . S
C354 C355 1.374 . S
C355 H335 0.950 1_556 S
C355 C351 1.385 . S
C355 C354 1.374 . S
C356 C353 1.499 . S
C356 C357 1.373 . S
C356 C358 1.389 . S
C357 H336 0.950 . S
C357 C356 1.373 . S
C357 C373 1.377 . S
C358 C356 1.389 . S
C358 C359 1.524 1_556 S
C358 C372 1.377 . S
C359 C358 1.524 1_554 S
C359 C360 1.397 . S
C359 C364 1.363 . S
C360 H337 0.950 . S
C360 C359 1.397 . S
C360 C361 1.334 . S
C361 H338 0.950 . S
C361 C360 1.334 . S
C361 C362 1.287 . S
C362 C361 1.287 . S
C362 C363 1.524 . S
C362 H381 0.913 . S
C363 H339 0.950 . S
C363 C362 1.524 . S
C363 C364 1.415 . S
C364 H340 0.969 . S
C364 C359 1.363 . S
C364 C363 1.415 . S
C365 H341 0.951 . S
C365 C366 1.366 . S
C365 C367 1.388 . S
C366 C365 1.366 . S
C366 C370 1.385 . S
C367 H342 0.951 . S
C367 C365 1.388 . S
C367 C368 1.366 . S
C368 C367 1.366 . S
C368 C369 1.414 . S
C368 C371 1.499 . S
C369 H343 0.950 . S
C369 C368 1.414 . S
C369 C370 1.374 . S
C370 H344 0.950 . S
C370 C366 1.385 . S
C370 C369 1.374 . S
C371 C368 1.499 . S
C371 C372 1.373 . S
C371 C373 1.389 . S
C372 H345 0.950 . S
C372 C358 1.377 . S
C372 C371 1.373 . S
C373 C357 1.377 . S
C373 C371 1.389 . S
C373 C374 1.524 . S
C374 C373 1.524 . S
C374 C375 1.397 . S
C374 C379 1.363 . S
C375 H346 0.950 . S
C375 C374 1.397 . S
C375 C376 1.334 . S
C376 H347 0.950 . S
C376 C375 1.334 . S
C376 C377 1.287 . S
C377 C376 1.287 . S
C377 C378 1.524 . S
C377 H380 0.999 . S
C378 H348 0.950 . S
C378 C377 1.524 . S
C378 C379 1.415 . S
C379 H349 0.950 . S
C379 C374 1.363 . S
C379 C378 1.415 . S
H380 C377 0.999 . S
H381 C362 0.913 . S
H382 C400 0.951 1_556 S
H383 C402 0.951 . S
H384 C404 0.950 . S
H385 C405 0.950 . S
H386 C407 0.950 . S
H387 C410 0.950 . S
H388 C411 0.950 . S
H389 C413 0.950 . S
H390 C414 0.950 . S
H391 C415 0.951 . S
H392 C417 0.951 . S
H393 C419 0.950 . S
H394 C420 0.950 . S
H395 C422 0.950 . S
H396 C425 0.950 . S
H397 C426 0.950 . S
H398 C428 0.950 . S
H399 C429 0.950 . S
C400 H382 0.951 1_554 S
C400 C401 1.366 . S
C400 C402 1.388 . S
C401 C400 1.366 . S
C401 C405 1.385 . S
C402 H383 0.951 . S
C402 C400 1.388 . S
C402 C403 1.366 . S
C403 C402 1.366 . S
C403 C404 1.414 . S
C403 C406 1.499 . S
C404 H384 0.950 . S
C404 C403 1.414 . S
C404 C405 1.374 . S
C405 H385 0.950 . S
C405 C401 1.385 . S
C405 C404 1.374 . S
C406 C403 1.499 . S
C406 C407 1.373 . S
C406 C408 1.389 . S
C407 H386 0.950 . S
C407 C406 1.373 . S
C407 C423 1.377 . S
C408 C406 1.389 . S
C408 C409 1.524 . S
C408 C422 1.377 . S
C409 C408 1.524 . S
C409 C410 1.397 . S
C409 C414 1.363 1_554 S
C410 H387 0.950 . S
C410 C409 1.397 . S
C410 C411 1.334 1_554 S
C411 H388 0.950 . S
C411 C410 1.334 1_556 S
C411 C412 1.287 . S
C412 C411 1.287 . S
C412 C413 1.524 . S
C412 H431 0.913 . S
C413 H389 0.950 . S
C413 C412 1.524 . S
C413 C414 1.415 . S
C414 H390 0.950 . S
C414 C409 1.363 1_556 S
C414 C413 1.415 . S
C415 H391 0.951 . S
C415 C416 1.366 . S
C415 C417 1.388 . S
C416 C415 1.366 . S
C416 C420 1.385 . S
C417 H392 0.951 . S
C417 C415 1.388 . S
C417 C418 1.366 . S
C418 C417 1.366 . S
C418 C419 1.414 . S
C418 C421 1.499 . S
C419 H393 0.950 . S
C419 C418 1.414 . S
C419 C420 1.374 . S
C420 H394 0.950 . S
C420 C416 1.385 . S
C420 C419 1.374 . S
C421 C418 1.499 . S
C421 C422 1.373 . S
C421 C423 1.389 . S
C422 H395 0.950 . S
C422 C408 1.377 . S
C422 C421 1.373 . S
C423 C407 1.377 . S
C423 C421 1.389 . S
C423 C424 1.524 . S
C424 C423 1.524 . S
C424 C425 1.397 . S
C424 C429 1.363 . S
C425 H396 0.950 . S
C425 C424 1.397 . S
C425 C426 1.334 . S
C426 H397 0.950 . S
C426 C425 1.334 . S
C426 C427 1.287 . S
C427 C426 1.287 . S
C427 C428 1.524 . S
C427 H430 0.999 . S
C428 H398 0.950 . S
C428 C427 1.524 . S
C428 C429 1.415 . S
C429 H399 0.950 . S
C429 C424 1.363 . S
C429 C428 1.415 . S
H430 C427 0.999 . S
H431 C412 0.913 . S
H432 C450 0.951 . S
H433 C452 0.951 . S
H434 C454 0.950 . S
H435 C455 0.950 . S
H436 C457 0.950 . S
H437 C460 0.950 . S
H438 C461 0.950 . S
H439 C463 0.950 . S
H440 C464 0.950 . S
H441 C465 0.951 . S
H442 C467 0.951 . S
H443 C469 0.950 . S
H444 C470 0.950 . S
H445 C472 0.950 . S
H446 C475 0.950 . S
H447 C476 0.950 . S
H448 C478 0.950 . S
H449 C479 0.950 . S
C450 H432 0.951 . S
C450 C451 1.366 . S
C450 C452 1.388 . S
C451 C450 1.366 . S
C451 C455 1.385 1_554 S
C452 H433 0.951 . S
C452 C450 1.388 . S
C452 C453 1.366 1_554 S
C453 C452 1.366 1_556 S
C453 C454 1.414 . S
C453 C456 1.499 . S
C454 H434 0.950 . S
C454 C453 1.414 . S
C454 C455 1.374 . S
C455 H435 0.950 . S
C455 C451 1.385 1_556 S
C455 C454 1.374 . S
C456 C453 1.499 . S
C456 C457 1.373 . S
C456 C458 1.389 . S
C457 H436 0.950 . S
C457 C456 1.373 . S
C457 C473 1.377 . S
C458 C456 1.389 . S
C458 C459 1.524 . S
C458 C472 1.377 . S
C459 C458 1.524 . S
C459 C460 1.397 . S
C459 C464 1.363 . S
C460 H437 0.950 . S
C460 C459 1.397 . S
C460 C461 1.334 . S
C461 H438 0.950 . S
C461 C460 1.334 . S
C461 C462 1.287 . S
C462 C461 1.287 . S
C462 C463 1.524 . S
C462 H481 0.913 . S
C463 H439 0.950 . S
C463 C462 1.524 . S
C463 C464 1.415 . S
C464 H440 0.950 . S
C464 C459 1.363 . S
C464 C463 1.415 . S
C465 H441 0.951 . S
C465 C466 1.366 . S
C465 C467 1.388 . S
C466 C465 1.366 . S
C466 C470 1.385 . S
C467 H442 0.951 . S
C467 C465 1.388 . S
C467 C468 1.366 . S
C468 C467 1.366 . S
C468 C469 1.414 . S
C468 C471 1.499 . S
C469 H443 0.950 . S
C469 C468 1.414 . S
C469 C470 1.374 . S
C470 H444 0.950 . S
C470 C466 1.385 . S
C470 C469 1.374 . S
C471 C468 1.499 . S
C471 C472 1.373 . S
C471 C473 1.389 . S
C472 H445 0.950 . S
C472 C458 1.377 . S
C472 C471 1.373 . S
C473 C457 1.377 . S
C473 C471 1.389 . S
C473 C474 1.524 . S
C474 C473 1.524 . S
C474 C475 1.397 1_556 S
C474 C479 1.363 . S
C475 H446 0.950 . S
C475 C474 1.397 1_554 S
C475 C476 1.334 . S
C476 H447 0.950 . S
C476 C475 1.334 . S
C476 C477 1.287 1_554 S
C477 C476 1.287 1_556 S
C477 C478 1.524 . S
C477 H480 1.004 . S
C478 H448 0.950 . S
C478 C477 1.524 . S
C478 C479 1.415 . S
C479 H449 0.950 . S
C479 C474 1.363 . S
C479 C478 1.415 . S
H480 C477 1.004 . S
H481 C462 0.913 . S
H482 C500 0.951 . S
H483 C502 0.951 . S
H484 C504 0.950 . S
H485 C505 0.950 . S
H486 C507 0.950 . S
H487 C510 0.950 . S
H488 C511 0.950 . S
H489 C513 0.950 . S
H490 C514 0.950 . S
H491 C515 0.951 . S
H492 C517 0.951 . S
H493 C519 0.950 . S
H494 C520 0.950 . S
H495 C522 0.950 . S
H496 C525 0.950 . S
H497 C526 0.950 . S
H498 C528 0.950 . S
H499 C529 0.950 . S
C500 H482 0.951 . S
C500 C501 1.366 . S
C500 C502 1.388 . S
C501 C500 1.366 . S
C501 C505 1.385 . S
C502 H483 0.951 . S
C502 C500 1.388 . S
C502 C503 1.366 . S
C503 C502 1.366 . S
C503 C504 1.414 . S
C503 C506 1.499 . S
C504 H484 0.950 . S
C504 C503 1.414 . S
C504 C505 1.374 . S
C505 H485 0.950 . S
C505 C501 1.385 . S
C505 C504 1.374 . S
C506 C503 1.499 . S
C506 C507 1.373 . S
C506 C508 1.389 . S
C507 H486 0.950 . S
C507 C506 1.373 . S
C507 C523 1.377 . S
C508 C506 1.389 . S
C508 C509 1.524 . S
C508 C522 1.377 . S
C509 C508 1.524 . S
C509 C510 1.397 . S
C509 C514 1.363 . S
C510 H487 0.950 . S
C510 C509 1.397 . S
C510 C511 1.334 . S
C511 H488 0.950 . S
C511 C510 1.334 . S
C511 C512 1.287 . S
C512 C511 1.287 . S
C512 C513 1.524 . S
C512 H531 0.913 . S
C513 H489 0.950 . S
C513 C512 1.524 . S
C513 C514 1.415 . S
C514 H490 0.950 . S
C514 C509 1.363 . S
C514 C513 1.415 . S
C515 H491 0.951 . S
C515 C516 1.366 . S
C515 C517 1.388 . S
C516 C515 1.366 . S
C516 C520 1.385 . S
C517 H492 0.951 . S
C517 C515 1.388 . S
C517 C518 1.366 . S
C518 C517 1.366 . S
C518 C519 1.414 . S
C518 C521 1.499 . S
C519 H493 0.950 . S
C519 C518 1.414 . S
C519 C520 1.374 . S
C520 H494 0.950 . S
C520 C516 1.385 . S
C520 C519 1.374 . S
C521 C518 1.499 . S
C521 C522 1.373 . S
C521 C523 1.389 . S
C522 H495 0.950 . S
C522 C508 1.377 . S
C522 C521 1.373 . S
C523 C507 1.377 . S
C523 C521 1.389 . S
C523 C524 1.524 . S
C524 C523 1.524 . S
C524 C525 1.397 . S
C524 C529 1.363 . S
C525 H496 0.950 . S
C525 C524 1.397 . S
C525 C526 1.334 . S
C526 H497 0.950 . S
C526 C525 1.334 . S
C526 C527 1.287 . S
C527 C526 1.287 . S
C527 C528 1.524 . S
C527 H530 0.999 . S
C528 H498 0.950 . S
C528 C527 1.524 . S
C528 C529 1.415 . S
C529 H499 0.950 . S
C529 C524 1.363 . S
C529 C528 1.415 . S
H530 C527 0.999 . S
H531 C512 0.913 . S
H532 C550 0.951 . S
H533 C552 0.951 . S
H534 C554 0.950 . S
H535 C555 0.950 . S
H536 C557 0.950 . S
H537 C560 0.950 . S
H538 C561 0.950 . S
H539 C563 0.950 . S
H540 C564 0.950 . S
H541 C565 0.951 . S
H542 C567 0.951 . S
H543 C569 0.950 . S
H544 C570 0.950 . S
H545 C572 0.950 . S
H546 C575 0.950 . S
H547 C576 0.950 . S
H548 C578 0.950 . S
H549 C579 0.950 . S
C550 H532 0.951 . S
C550 C551 1.366 . S
C550 C552 1.388 . S
C551 C550 1.366 . S
C551 C555 1.385 . S
C552 H533 0.951 . S
C552 C550 1.388 . S
C552 C553 1.366 . S
C553 C552 1.366 . S
C553 C554 1.414 . S
C553 C556 1.499 . S
C554 H534 0.950 . S
C554 C553 1.414 . S
C554 C555 1.374 . S
C555 H535 0.950 . S
C555 C551 1.385 . S
C555 C554 1.374 . S
C556 C553 1.499 . S
C556 C557 1.373 . S
C556 C558 1.389 . S
C557 H536 0.950 . S
C557 C556 1.373 . S
C557 C573 1.377 . S
C558 C556 1.389 . S
C558 C559 1.524 . S
C558 C572 1.377 . S
C559 C558 1.524 . S
C559 C560 1.397 . S
C559 C564 1.363 . S
C560 H537 0.950 . S
C560 C559 1.397 . S
C560 C561 1.334 . S
C561 H538 0.950 . S
C561 C560 1.334 . S
C561 C562 1.287 . S
C562 C561 1.287 . S
C562 C563 1.524 . S
C562 H581 0.913 . S
C563 H539 0.950 . S
C563 C562 1.524 . S
C563 C564 1.415 . S
C564 H540 0.950 . S
C564 C559 1.363 . S
C564 C563 1.415 . S
C565 H541 0.951 . S
C565 C566 1.366 . S
C565 C567 1.388 . S
C566 C565 1.366 . S
C566 C570 1.385 . S
C567 H542 0.951 . S
C567 C565 1.388 . S
C567 C568 1.366 . S
C568 C567 1.366 . S
C568 C569 1.414 . S
C568 C571 1.499 . S
C569 H543 0.950 . S
C569 C568 1.414 . S
C569 C570 1.374 . S
C570 H544 0.950 . S
C570 C566 1.385 . S
C570 C569 1.374 . S
C571 C568 1.499 . S
C571 C572 1.373 . S
C571 C573 1.389 . S
C572 H545 0.950 . S
C572 C558 1.377 . S
C572 C571 1.373 . S
C573 C557 1.377 . S
C573 C571 1.389 . S
C573 C574 1.524 . S
C574 C573 1.524 . S
C574 C575 1.397 . S
C574 C579 1.363 . S
C575 H546 0.950 . S
C575 C574 1.397 . S
C575 C576 1.334 . S
C576 H547 0.950 . S
C576 C575 1.334 . S
C576 C577 1.287 . S
C577 C576 1.287 . S
C577 C578 1.524 . S
C577 H580 0.999 . S
C578 H548 0.950 . S
C578 C577 1.524 . S
C578 C579 1.415 . S
C579 H549 0.950 . S
C579 C574 1.363 . S
C579 C578 1.415 . S
H580 C577 0.999 . S
H581 C562 0.913 . S
H582 C600 0.951 . S
H583 C602 0.951 . S
H584 C604 0.950 . S
H585 C605 0.950 . S
H586 C607 0.950 . S
H587 C610 0.950 . S
H588 C611 0.950 . S
H589 C613 0.950 . S
H590 C614 0.950 . S
H591 C615 0.951 . S
H592 C617 0.951 . S
H593 C619 0.950 . S
H594 C620 0.950 . S
H595 C622 0.950 . S
H596 C625 0.950 . S
H597 C626 0.950 . S
H598 C628 0.950 . S
H599 C629 0.950 . S
C600 H582 0.951 . S
C600 C601 1.366 . S
C600 C602 1.388 . S
C601 C600 1.366 . S
C601 C605 1.385 . S
C602 H583 0.951 . S
C602 C600 1.388 . S
C602 C603 1.366 . S
C603 C602 1.366 . S
C603 C604 1.414 . S
C603 C606 1.499 . S
C604 H584 0.950 . S
C604 C603 1.414 . S
C604 C605 1.374 . S
C605 H585 0.950 . S
C605 C601 1.385 . S
C605 C604 1.374 . S
C606 C603 1.499 . S
C606 C607 1.373 . S
C606 C608 1.389 . S
C607 H586 0.950 . S
C607 C606 1.373 . S
C607 C623 1.377 . S
C608 C606 1.389 . S
C608 C609 1.524 . S
C608 C622 1.377 . S
C609 C608 1.524 . S
C609 C610 1.397 . S
C609 C614 1.363 . S
C610 H587 0.950 . S
C610 C609 1.397 . S
C610 C611 1.334 . S
C611 H588 0.950 . S
C611 C610 1.334 . S
C611 C612 1.287 . S
C612 C611 1.287 . S
C612 C613 1.524 . S
C612 H631 0.913 . S
C613 H589 0.950 . S
C613 C612 1.524 . S
C613 C614 1.415 . S
C614 H590 0.950 . S
C614 C609 1.363 . S
C614 C613 1.415 . S
C615 H591 0.951 . S
C615 C616 1.366 . S
C615 C617 1.388 . S
C616 C615 1.366 . S
C616 C620 1.385 . S
C617 H592 0.951 . S
C617 C615 1.388 . S
C617 C618 1.366 . S
C618 C617 1.366 . S
C618 C619 1.414 . S
C618 C621 1.499 . S
C619 H593 0.950 . S
C619 C618 1.414 . S
C619 C620 1.374 . S
C620 H594 0.950 . S
C620 C616 1.385 . S
C620 C619 1.374 . S
C621 C618 1.499 . S
C621 C622 1.373 . S
C621 C623 1.389 . S
C622 H595 0.950 . S
C622 C608 1.377 . S
C622 C621 1.373 . S
C623 C607 1.377 . S
C623 C621 1.389 . S
C623 C624 1.524 . S
C624 C623 1.524 . S
C624 C625 1.397 . S
C624 C629 1.363 . S
C625 H596 0.950 . S
C625 C624 1.397 . S
C625 C626 1.334 . S
C626 H597 0.950 . S
C626 C625 1.334 . S
C626 C627 1.287 . S
C627 C626 1.287 . S
C627 C628 1.524 . S
C627 H630 0.999 . S
C628 H598 0.950 . S
C628 C627 1.524 . S
C628 C629 1.415 . S
C629 H599 0.950 . S
C629 C624 1.363 . S
C629 C628 1.415 . S
H630 C627 0.999 . S
H631 C612 0.913 . S
H632 C650 0.951 . S
H633 C652 0.951 . S
H634 C654 0.950 . S
H635 C655 0.950 . S
H636 C657 0.950 . S
H637 C660 0.950 . S
H638 C661 0.950 . S
H639 C663 0.950 . S
H640 C664 0.950 . S
H641 C665 0.951 . S
H642 C667 0.951 . S
H643 C669 0.950 . S
H644 C670 0.950 . S
H645 C672 0.950 . S
H646 C675 0.950 . S
H647 C676 0.950 . S
H648 C678 0.950 . S
H649 C679 0.950 . S
C650 H632 0.951 . S
C650 C651 1.366 . S
C650 C652 1.388 . S
C651 C650 1.366 . S
C651 C655 1.385 . S
C652 H633 0.951 . S
C652 C650 1.388 . S
C652 C653 1.366 . S
C653 C652 1.366 . S
C653 C654 1.414 . S
C653 C656 1.499 . S
C654 H634 0.950 . S
C654 C653 1.414 . S
C654 C655 1.374 . S
C655 H635 0.950 . S
C655 C651 1.385 . S
C655 C654 1.374 . S
C656 C653 1.499 . S
C656 C657 1.373 . S
C656 C658 1.389 . S
C657 H636 0.950 . S
C657 C656 1.373 . S
C657 C673 1.377 . S
C658 C656 1.389 . S
C658 C659 1.524 . S
C658 C672 1.377 . S
C659 C658 1.524 . S
C659 C660 1.397 . S
C659 C664 1.363 . S
C660 H637 0.950 . S
C660 C659 1.397 . S
C660 C661 1.334 . S
C661 H638 0.950 . S
C661 C660 1.334 . S
C661 C662 1.287 . S
C662 C661 1.287 . S
C662 C663 1.524 . S
C662 H681 0.913 . S
C663 H639 0.950 . S
C663 C662 1.524 . S
C663 C664 1.415 . S
C664 H640 0.950 . S
C664 C659 1.363 . S
C664 C663 1.415 . S
C665 H641 0.951 . S
C665 C666 1.366 . S
C665 C667 1.388 . S
C666 C665 1.366 . S
C666 C670 1.385 . S
C667 H642 0.951 . S
C667 C665 1.388 . S
C667 C668 1.366 . S
C668 C667 1.366 . S
C668 C669 1.414 . S
C668 C671 1.499 . S
C669 H643 0.950 . S
C669 C668 1.414 . S
C669 C670 1.374 . S
C670 H644 0.950 . S
C670 C666 1.385 . S
C670 C669 1.374 . S
C671 C668 1.499 . S
C671 C672 1.373 . S
C671 C673 1.389 . S
C672 H645 0.950 . S
C672 C658 1.377 . S
C672 C671 1.373 . S
C673 C657 1.377 . S
C673 C671 1.389 . S
C673 C674 1.524 . S
C674 C673 1.524 . S
C674 C675 1.397 . S
C674 C679 1.363 . S
C675 H646 0.950 . S
C675 C674 1.397 . S
C675 C676 1.334 . S
C676 H647 0.950 . S
C676 C675 1.334 . S
C676 C677 1.287 . S
C677 C676 1.287 . S
C677 C678 1.524 . S
C677 H680 0.999 . S
C678 H648 0.950 . S
C678 C677 1.524 . S
C678 C679 1.415 . S
C679 H649 0.950 . S
C679 C674 1.363 . S
C679 C678 1.415 . S
H680 C677 0.999 . S
H681 C662 0.913 . S
H682 C700 0.951 . S
H683 C702 0.951 . S
H684 C704 0.950 . S
H685 C705 0.950 . S
H686 C707 0.950 1_655 S
H687 C710 0.950 . S
H688 C711 0.950 1_565 S
H689 C713 0.950 . S
H690 C714 0.950 . S
H691 C715 0.951 . S
H692 C717 0.951 . S
H693 C719 0.950 . S
H694 C720 0.950 . S
H695 C722 0.950 . S
H696 C725 0.950 . S
H697 C726 0.950 . S
H698 C728 0.950 . S
H699 C729 0.950 . S
C700 H682 0.951 . S
C700 C701 1.366 1_545 S
C700 C702 1.388 . S
C701 C700 1.366 1_565 S
C701 C705 1.385 . S
C702 H683 0.951 . S
C702 C700 1.388 . S
C702 C703 1.378 . S
C703 C702 1.378 . S
C703 C704 1.400 1_545 S
C703 C706 1.500 . S
C704 H684 0.950 . S
C704 C703 1.400 1_565 S
C704 C705 1.374 . S
C705 H685 0.950 . S
C705 C701 1.385 . S
C705 C704 1.374 . S
C706 C703 1.500 . S
C706 C707 1.373 1_545 S
C706 C708 1.389 . S
C707 H686 0.950 1_455 S
C707 C706 1.373 1_565 S
C707 C723 1.377 1_565 S
C708 C706 1.389 . S
C708 C709 1.524 . S
C708 C722 1.377 . S
C709 C708 1.524 . S
C709 C710 1.397 1_545 S
C709 C714 1.363 . S
C710 H687 0.950 . S
C710 C709 1.397 1_565 S
C710 C711 1.334 1_565 S
C711 H688 0.950 1_545 S
C711 C710 1.334 1_545 S
C711 C712 1.287 . S
C712 C711 1.287 . S
C712 C713 1.524 . S
C712 H731 0.913 . S
C713 H689 0.950 . S
C713 C712 1.524 . S
C713 C714 1.415 . S
C714 H690 0.950 . S
C714 C709 1.363 . S
C714 C713 1.415 . S
C715 H691 0.951 . S
C715 C716 1.366 1_565 S
C715 C717 1.388 . S
C716 C715 1.366 1_545 S
C716 C720 1.385 . S
C717 H692 0.951 . S
C717 C715 1.388 . S
C717 C718 1.366 1_565 S
C718 C717 1.366 1_545 S
C718 C719 1.414 . S
C718 C721 1.499 . S
C719 H693 0.950 . S
C719 C718 1.414 . S
C719 C720 1.374 . S
C720 H694 0.950 . S
C720 C716 1.385 . S
C720 C719 1.374 . S
C721 C718 1.499 . S
C721 C722 1.373 . S
C721 C723 1.389 . S
C722 H695 0.950 . S
C722 C708 1.377 . S
C722 C721 1.373 . S
C723 C707 1.377 1_545 S
C723 C721 1.389 . S
C723 C724 1.524 1_445 S
C724 C723 1.524 1_665 S
C724 C725 1.397 1_565 S
C724 C729 1.363 . S
C725 H696 0.950 . S
C725 C724 1.397 1_545 S
C725 C726 1.334 . S
C726 H697 0.950 . S
C726 C725 1.334 . S
C726 C727 1.287 1_545 S
C727 C726 1.287 1_565 S
C727 C728 1.524 . S
C727 H730 0.999 . S
C728 H698 0.950 . S
C728 C727 1.524 . S
C728 C729 1.415 . S
C729 H699 0.950 . S
C729 C724 1.363 . S
C729 C728 1.415 . S
H730 C727 0.999 . S
H731 C712 0.913 . S
H732 C750 0.951 . S
H733 C752 0.951 . S
H734 C754 0.950 . S
H735 C755 0.950 . S
H736 C757 0.950 . S
H737 C760 0.950 . S
H738 C761 0.950 . S
H739 C763 0.950 . S
H740 C764 0.950 . S
H741 C765 0.951 1_565 S
H742 C767 0.951 . S
H743 C769 0.950 . S
H744 C770 0.950 . S
H745 C772 0.950 . S
H746 C775 0.950 . S
H747 C776 0.950 . S
H748 C778 0.950 . S
H749 C779 0.950 . S
C750 H732 0.951 . S
C750 C751 1.366 1_545 S
C750 C752 1.388 . S
C751 C750 1.366 1_565 S
C751 C755 1.385 1_455 S
C752 H733 0.951 . S
C752 C750 1.388 . S
C752 C753 1.366 . S
C753 C752 1.366 . S
C753 C754 1.414 1_445 S
C753 C756 1.499 . S
C754 H734 0.950 . S
C754 C753 1.414 1_665 S
C754 C755 1.374 . S
C755 H735 0.950 . S
C755 C751 1.385 1_655 S
C755 C754 1.374 . S
C756 C753 1.499 . S
C756 C757 1.373 1_545 S
C756 C758 1.389 . S
C757 H736 0.950 . S
C757 C756 1.373 1_565 S
C757 C773 1.377 . S
C758 C756 1.389 . S
C758 C759 1.524 . S
C758 C772 1.377 . S
C759 C758 1.524 . S
C759 C760 1.397 1_455 S
C759 C764 1.363 . S
C760 H737 0.950 . S
C760 C759 1.397 1_655 S
C760 C761 1.334 . S
C761 H738 0.950 . S
C761 C760 1.334 . S
C761 C762 1.299 . S
C762 C761 1.299 . S
C762 C763 1.508 1_655 S
C762 H781 0.916 . S
C763 H739 0.950 . S
C763 C762 1.508 1_455 S
C763 C764 1.415 . S
C764 H740 0.950 . S
C764 C759 1.363 . S
C764 C763 1.415 . S
C765 H741 0.951 1_545 S
C765 C766 1.366 1_655 S
C765 C767 1.388 1_545 S
C766 C765 1.366 1_455 S
C766 C770 1.385 . S
C767 H742 0.951 . S
C767 C765 1.388 1_565 S
C767 C768 1.366 1_665 S
C768 C767 1.366 1_445 S
C768 C769 1.414 . S
C768 C771 1.499 . S
C769 H743 0.950 . S
C769 C768 1.414 . S
C769 C770 1.374 . S
C770 H744 0.950 . S
C770 C766 1.385 . S
C770 C769 1.374 . S
C771 C768 1.499 . S
C771 C772 1.373 . S
C771 C773 1.389 1_545 S
C772 H745 0.950 . S
C772 C758 1.377 . S
C772 C771 1.373 . S
C773 C757 1.377 . S
C773 C771 1.389 1_565 S
C773 C774 1.524 . S
C774 C773 1.524 . S
C774 C775 1.397 . S
C774 C779 1.363 1_455 S
C775 H746 0.950 . S
C775 C774 1.397 . S
C775 C776 1.334 . S
C776 H747 0.950 . S
C776 C775 1.334 . S
C776 C777 1.287 . S
C777 C776 1.287 . S
C777 C778 1.524 1_455 S
C777 H780 0.999 . S
C778 H748 0.950 . S
C778 C777 1.524 1_655 S
C778 C779 1.415 . S
C779 H749 0.950 . S
C779 C774 1.363 1_655 S
C779 C778 1.415 . S
H780 C777 0.999 . S
H781 C762 0.916 . S
H782 C800 0.951 . S
H783 C802 0.951 . S
H784 C804 0.950 . S
H785 C805 0.950 . S
H786 C807 0.950 . S
H787 C810 0.950 . S
H788 C811 0.950 . S
H789 C813 0.950 . S
H790 C814 0.950 . S
H791 C815 0.951 . S
H792 C817 0.951 . S
H793 C819 0.950 . S
H794 C820 0.950 . S
H795 C822 0.950 . S
H796 C825 0.950 . S
H797 C826 0.950 . S
H798 C828 0.950 . S
H799 C829 0.950 . S
C800 H782 0.951 . S
C800 C801 1.366 . S
C800 C802 1.388 . S
C801 C800 1.366 . S
C801 C805 1.385 . S
C802 H783 0.951 . S
C802 C800 1.388 . S
C802 C803 1.366 . S
C803 C802 1.366 . S
C803 C804 1.414 . S
C803 C806 1.499 . S
C804 H784 0.950 . S
C804 C803 1.414 . S
C804 C805 1.374 . S
C805 H785 0.950 . S
C805 C801 1.385 . S
C805 C804 1.374 . S
C806 C803 1.499 . S
C806 C807 1.373 . S
C806 C808 1.389 . S
C807 H786 0.950 . S
C807 C806 1.373 . S
C807 C823 1.377 . S
C808 C806 1.389 . S
C808 C809 1.524 . S
C808 C822 1.377 . S
C809 C808 1.524 . S
C809 C810 1.397 . S
C809 C814 1.363 . S
C810 H787 0.950 . S
C810 C809 1.397 . S
C810 C811 1.334 . S
C811 H788 0.950 . S
C811 C810 1.334 . S
C811 C812 1.287 . S
C812 C811 1.287 . S
C812 C813 1.524 . S
C812 H831 0.913 . S
C813 H789 0.950 . S
C813 C812 1.524 . S
C813 C814 1.415 . S
C814 H790 0.950 . S
C814 C809 1.363 . S
C814 C813 1.415 . S
C815 H791 0.951 . S
C815 C816 1.366 . S
C815 C817 1.388 . S
C816 C815 1.366 . S
C816 C820 1.385 . S
C817 H792 0.951 . S
C817 C815 1.388 . S
C817 C818 1.366 . S
C818 C817 1.366 . S
C818 C819 1.414 . S
C818 C821 1.499 . S
C819 H793 0.950 . S
C819 C818 1.414 . S
C819 C820 1.374 . S
C820 H794 0.950 . S
C820 C816 1.385 . S
C820 C819 1.374 . S
C821 C818 1.499 . S
C821 C822 1.373 . S
C821 C823 1.389 . S
C822 H795 0.950 . S
C822 C808 1.377 . S
C822 C821 1.373 . S
C823 C807 1.377 . S
C823 C821 1.389 . S
C823 C824 1.524 . S
C824 C823 1.524 . S
C824 C825 1.397 . S
C824 C829 1.363 . S
C825 H796 0.950 . S
C825 C824 1.397 . S
C825 C826 1.334 . S
C826 H797 0.950 . S
C826 C825 1.334 . S
C826 C827 1.287 . S
C827 C826 1.287 . S
C827 C828 1.524 . S
C827 H830 0.999 . S
C828 H798 0.950 . S
C828 C827 1.524 . S
C828 C829 1.415 . S
C829 H799 0.950 . S
C829 C824 1.363 . S
C829 C828 1.415 . S
H830 C827 0.999 . S
H831 C812 0.913 . S
H832 C850 0.951 . S
H833 C852 0.951 . S
H834 C854 0.950 . S
H835 C855 0.950 . S
H836 C857 0.950 . S
H837 C860 0.950 . S
H838 C861 0.950 . S
H839 C863 0.950 . S
H840 C864 0.950 . S
H841 C865 0.951 . S
H842 C867 0.951 . S
H843 C869 0.950 . S
H844 C870 0.950 . S
H845 C872 0.950 . S
H846 C875 0.950 . S
H847 C876 0.950 . S
H848 C878 0.950 . S
H849 C879 0.950 . S
C850 H832 0.951 . S
C850 C851 1.366 . S
C850 C852 1.388 . S
C851 C850 1.366 . S
C851 C855 1.385 . S
C852 H833 0.951 . S
C852 C850 1.388 . S
C852 C853 1.366 . S
C853 C852 1.366 . S
C853 C854 1.414 . S
C853 C856 1.499 . S
C854 H834 0.950 . S
C854 C853 1.414 . S
C854 C855 1.374 . S
C855 H835 0.950 . S
C855 C851 1.385 . S
C855 C854 1.374 . S
C856 C853 1.499 . S
C856 C857 1.373 . S
C856 C858 1.389 . S
C857 H836 0.950 . S
C857 C856 1.373 . S
C857 C873 1.377 . S
C858 C856 1.389 . S
C858 C859 1.524 . S
C858 C872 1.377 . S
C859 C858 1.524 . S
C859 C860 1.397 . S
C859 C864 1.363 . S
C860 H837 0.950 . S
C860 C859 1.397 . S
C860 C861 1.334 . S
C861 H838 0.950 . S
C861 C860 1.334 . S
C861 C862 1.287 . S
C862 C861 1.287 . S
C862 C863 1.524 . S
C862 H881 0.913 . S
C863 H839 0.950 . S
C863 C862 1.524 . S
C863 C864 1.415 . S
C864 H840 0.950 . S
C864 C859 1.363 . S
C864 C863 1.415 . S
C865 H841 0.951 . S
C865 C866 1.366 . S
C865 C867 1.388 . S
C866 C865 1.366 . S
C866 C870 1.385 . S
C867 H842 0.951 . S
C867 C865 1.388 . S
C867 C868 1.366 . S
C868 C867 1.366 . S
C868 C869 1.414 . S
C868 C871 1.499 . S
C869 H843 0.950 . S
C869 C868 1.414 . S
C869 C870 1.374 . S
C870 H844 0.950 . S
C870 C866 1.385 . S
C870 C869 1.374 . S
C871 C868 1.499 . S
C871 C872 1.373 . S
C871 C873 1.389 . S
C872 H845 0.950 . S
C872 C858 1.377 . S
C872 C871 1.373 . S
C873 C857 1.377 . S
C873 C871 1.389 . S
C873 C874 1.524 . S
C874 C873 1.524 . S
C874 C875 1.397 . S
C874 C879 1.363 . S
C875 H846 0.950 . S
C875 C874 1.397 . S
C875 C876 1.334 . S
C876 H847 0.950 . S
C876 C875 1.334 . S
C876 C877 1.287 . S
C877 C876 1.287 . S
C877 C878 1.524 . S
C877 H880 0.999 . S
C878 H848 0.950 . S
C878 C877 1.524 . S
C878 C879 1.415 . S
C879 H849 0.950 . S
C879 C874 1.363 . S
C879 C878 1.415 . S
H880 C877 0.999 . S
H881 C862 0.913 . S
C316 C253 1.143 . S
C301 C3 1.035 . S
C351 C4 1.505 1_556 S
C366 C193 1.610 . S
C401 C19 1.536 . S
C416 C223 1.574 . S
C451 C7 1.036 1_554 S
C466 C163 1.095 . S
C501 C37 1.032 . S
C516 C133 1.142 . S
C551 C28 1.505 . S
C566 C73 1.611 . S
C616 C103 1.574 . S
C601 C41 1.536 . S
C666 C43 1.095 . S
C651 C25 1.036 . S
C701 C20 1.269 . S
C716 C62 1.396 . S
C751 C16 1.326 . S
C766 C122 1.454 1_455 S
C816 C182 1.396 . S
C801 C40 1.268 . S
C851 C24 1.326 . S
C866 C242 1.454 . S
