# Generated by pormake.
# Topology anh, (6,3)-cn, num edge types: 1
# Building blocks:
#     Node 0, Type 0, BuildingBlock: BETFEN_clean_sbu_0, # of connection points: 6
#     Node 1, Type 0, BuildingBlock: BETFEN_clean_sbu_0, # of connection points: 6
#     Node 2, Type 0, BuildingBlock: BETFEN_clean_sbu_0, # of connection points: 6
#     Node 3, Type 1, BuildingBlock: CUQRIR_clean_linker_1, # of connection points: 3
#     Node 4, Type 1, BuildingBlock: CUQRIR_clean_linker_1, # of connection points: 3
#     Node 5, Type 1, BuildingBlock: CUQRIR_clean_linker_1, # of connection points: 3
#     Node 6, Type 1, BuildingBlock: CUQRIR_clean_linker_1, # of connection points: 3
#     Node 7, Type 1, BuildingBlock: CUQRIR_clean_linker_1, # of connection points: 3
#     Node 8, Type 1, BuildingBlock: CUQRIR_clean_linker_1, # of connection points: 3
#     Edge 9, Type (0, 1), BuildingBlock: OJICUG_clean_linker_0, # of connection points: 2
#     Edge 10, Type (0, 1), BuildingBlock: OJICUG_clean_linker_0, # of connection points: 2
#     Edge 11, Type (0, 1), BuildingBlock: OJICUG_clean_linker_0, # of connection points: 2
#     Edge 12, Type (0, 1), BuildingBlock: OJICUG_clean_linker_0, # of connection points: 2
#     Edge 13, Type (0, 1), BuildingBlock: OJICUG_clean_linker_0, # of connection points: 2
#     Edge 14, Type (0, 1), BuildingBlock: OJICUG_clean_linker_0, # of connection points: 2
#     Edge 15, Type (0, 1), BuildingBlock: OJICUG_clean_linker_0, # of connection points: 2
#     Edge 16, Type (0, 1), BuildingBlock: OJICUG_clean_linker_0, # of connection points: 2
#     Edge 17, Type (0, 1), BuildingBlock: OJICUG_clean_linker_0, # of connection points: 2
#     Edge 18, Type (0, 1), BuildingBlock: OJICUG_clean_linker_0, # of connection points: 2
#     Edge 19, Type (0, 1), BuildingBlock: OJICUG_clean_linker_0, # of connection points: 2
#     Edge 20, Type (0, 1), BuildingBlock: OJICUG_clean_linker_0, # of connection points: 2
#     Edge 21, Type (0, 1), BuildingBlock: OJICUG_clean_linker_0, # of connection points: 2
#     Edge 22, Type (0, 1), BuildingBlock: OJICUG_clean_linker_0, # of connection points: 2
#     Edge 23, Type (0, 1), BuildingBlock: OJICUG_clean_linker_0, # of connection points: 2
#     Edge 24, Type (0, 1), BuildingBlock: OJICUG_clean_linker_0, # of connection points: 2
#     Edge 25, Type (0, 1), BuildingBlock: OJICUG_clean_linker_0, # of connection points: 2
#     Edge 26, Type (0, 1), BuildingBlock: OJICUG_clean_linker_0, # of connection points: 2
# Relax obj value: 0.274
# Max RMSD: 0.229
# Mean RMSD: 0.173
data_MOF--net-anh--node1-BETFEN_clean_sbu_0--node2-CUQRIR_clean_linker_1--edge1-OJICUG_clean_linker_0
_symmetry_space_group_name_H-M    P1
_symmetry_Int_Tables_number       1
_symmetry_cell_setting            triclinic
loop_
_symmetry_equiv_pos_as_xyz
'x, y, z'
_cell_length_a     19.280175
_cell_length_b     19.866944
_cell_length_c     33.067589
_cell_angle_alpha  86.3421
_cell_angle_beta   90.677736
_cell_angle_gamma 94.218273
loop_
_atom_site_label
_atom_site_type_symbol
_atom_site_fract_x
_atom_site_fract_y
_atom_site_fract_z
_atom_type_partial_charge
Pr0 Pr 1.00717 0.53823 0.15531 0.0
Pr1 Pr 1.01653 0.6992 0.13675 0.0
C2 C 0.97105 0.41267 0.18642 0.0
C3 C 0.90561 0.37744 0.20136 0.0
C4 C 0.84312 0.38444 0.17982 0.0
C5 C 0.78102 0.35234 0.19469 0.0
C6 C 0.7798 0.31314 0.23169 0.0
C7 C 0.84243 0.30695 0.25347 0.0
C8 C 0.90479 0.33878 0.23836 0.0
C9 C 1.04305 0.58401 0.0764 0.0
C10 C 0.86091 0.61917 0.1306 0.0
C11 C 0.05497 0.82378 0.1058 0.0
C12 C 0.10668 0.87086 0.12388 0.0
C13 C 0.13408 0.85193 0.16201 0.0
C14 C 0.18842 0.89088 0.17876 0.0
C15 C 0.21747 0.9494 0.15752 0.0
C16 C 0.18904 0.96952 0.11958 0.0
C17 C 0.13398 0.9301 0.10271 0.0
C18 C 1.00942 0.66984 0.22102 0.0
C19 C 0.16233 0.61695 0.15822 0.0
O20 O 0.99782 0.46064 0.20851 0.0
O21 O 0.97469 0.42843 0.14736 0.0
O22 O 0.9984 0.60818 0.09796 0.0
O23 O 0.06702 0.53009 0.09434 0.0
O24 O 0.89932 0.6755 0.12011 0.0
O25 O 0.88879 0.5646 0.14732 0.0
O26 O 0.08123 0.7697 0.0935 0.0
O27 O 0.99745 0.81011 0.12655 0.0
O28 O 1.00907 0.62814 0.19399 0.0
O29 O 1.00878 0.73047 0.20423 0.0
O30 O 0.1253 0.56055 0.16992 0.0
O31 O 0.13319 0.671 0.14234 0.0
H32 H 0.84213 0.41461 0.15137 0.0
H33 H 0.73417 0.35729 0.17669 0.0
H34 H 0.84326 0.27786 0.28228 0.0
H35 H 0.95236 0.33352 0.25568 0.0
H36 H 0.11472 0.80571 0.17848 0.0
H37 H 0.20815 0.87466 0.20833 0.0
H38 H 0.21067 1.01438 0.10253 0.0
H39 H 0.11401 0.94485 0.07296 0.0
Pr40 Pr 0.68565 1.12496 0.51843 0.0
Pr41 Pr 0.55016 1.11389 0.5503 0.0
C42 C 0.79803 0.16692 0.47281 0.0
C43 C 0.84028 0.23155 0.46287 0.0
C44 C 0.89256 0.25573 0.48941 0.0
C45 C 0.93161 0.31686 0.47996 0.0
C46 C 0.91957 0.35548 0.4437 0.0
C47 C 0.86762 0.33107 0.41701 0.0
C48 C 0.82874 0.26975 0.42639 0.0
C49 C 0.69513 1.11124 0.60239 0.0
C50 C 0.61351 0.2688 0.54458 0.0
C51 C 0.42307 1.07003 0.5782 0.0
C52 C 0.37201 1.01733 0.56281 0.0
C53 C 0.33076 1.03171 0.52836 0.0
C54 C 0.28895 0.98051 0.51093 0.0
C55 C 0.28662 0.9133 0.5275 0.0
C56 C 0.32618 0.89928 0.56274 0.0
C57 C 0.36821 0.95061 0.58017 0.0
C58 C 0.55302 0.12833 0.4656 0.0
C59 C 0.62427 0.96791 0.53982 0.0
O60 O 0.73461 0.16195 0.4583 0.0
O61 O 0.80249 0.13929 0.50963 0.0
O62 O 0.65305 0.14857 0.58335 0.0
O63 O 0.72761 1.0759 0.57797 0.0
O64 O 0.56825 0.22761 0.56536 0.0
O65 O 0.65923 0.24231 0.5215 0.0
O66 O 0.48029 1.049 0.59461 0.0
O67 O 0.43452 1.12549 0.55508 0.0
O68 O 0.58624 1.08727 0.48717 0.0
O69 O 0.51882 0.16573 0.48756 0.0
O70 O 0.6715 1.00421 0.51718 0.0
O71 O 0.57811 0.99968 0.55899 0.0
H72 H 0.9032 0.22769 0.51769 0.0
H73 H 0.97057 0.33444 0.50148 0.0
H74 H 0.8575 0.35902 0.38862 0.0
H75 H 0.78944 0.25229 0.40502 0.0
H76 H 0.33221 1.08231 0.51397 0.0
H77 H 0.26021 0.99346 0.48356 0.0
H78 H 0.32503 0.84849 0.57681 0.0
H79 H 0.39904 0.93766 0.60676 0.0
Pr80 Pr 0.50157 0.61784 0.82056 0.0
Pr81 Pr 0.51169 0.76043 0.84313 0.0
C82 C 0.52801 0.50562 0.78586 0.0
C83 C 0.59768 0.48024 0.78718 0.0
C84 C 0.63815 0.48528 0.82271 0.0
C85 C 0.70874 0.47481 0.82238 0.0
C86 C 0.74065 0.46061 0.78633 0.0
C87 C 0.70017 0.45505 0.75085 0.0
C88 C 0.62909 0.46448 0.75136 0.0
C89 C 0.51675 0.62784 0.90409 0.0
C90 C 0.65983 0.69783 0.82739 0.0
C91 C 0.52605 0.88553 0.86917 0.0
C92 C 0.58841 0.93125 0.86175 0.0
C93 C 0.63894 0.91128 0.83579 0.0
C94 C 0.69787 0.95321 0.82628 0.0
C95 C 0.70786 1.01665 0.84251 0.0
C96 C 0.65835 1.03602 0.86984 0.0
C97 C 0.5988 0.99336 0.87946 0.0
C98 C 0.51693 0.74485 0.75949 0.0
C99 C 0.35577 0.6751 0.84545 0.0
O100 O 0.52474 0.56328 0.76484 0.0
O101 O 0.4955 0.50355 0.82051 0.0
O102 O 0.54909 0.66597 0.87759 0.0
O103 O 0.47643 0.58153 0.88786 0.0
O104 O 0.63 0.74294 0.84733 0.0
O105 O 0.62157 0.6491 0.81073 0.0
O106 O 0.49042 0.87115 0.83652 0.0
O107 O 0.53615 0.83195 0.89291 0.0
O108 O 0.474 0.71312 0.78372 0.0
O109 O 0.55819 0.7868 0.77831 0.0
O110 O 0.38224 0.63215 0.822 0.0
O111 O 0.39631 0.72304 0.86178 0.0
H112 H 0.61585 0.49951 0.85057 0.0
H113 H 0.7387 0.47869 0.85017 0.0
H114 H 0.72315 0.44183 0.72295 0.0
H115 H 0.59896 0.461 0.72367 0.0
H116 H 0.63198 0.86384 0.82168 0.0
H117 H 0.73369 0.93709 0.80447 0.0
H118 H 0.66492 1.08461 0.88303 0.0
H119 H 0.56062 1.00927 0.89992 0.0
C120 C 0.48419 0.14068 0.23209 0.0
N121 N 0.52403 0.15778 0.26436 0.0
N122 N 0.43457 1.09166 0.2434 0.0
C123 C 0.49729 0.16761 0.18908 0.0
C124 C 0.44593 1.07913 0.28354 0.0
N125 N 0.50077 1.11887 0.29616 0.0
C126 C 0.40166 1.03027 0.31071 0.0
H127 H 0.47383 0.21684 0.18414 0.0
H128 H 0.47382 0.13248 0.16711 0.0
H129 H 0.55393 0.17617 0.18333 0.0
H130 H 0.42608 0.98132 0.31375 0.0
H131 H 0.34855 1.02146 0.29791 0.0
H132 H 0.39807 1.04927 0.3414 0.0
C133 C 0.61996 0.61927 0.54877 0.0
N134 N 0.60672 0.67227 0.57167 0.0
N135 N 0.60739 0.55792 0.56999 0.0
C136 C 0.64038 0.62695 0.50503 0.0
C137 C 0.58699 0.57606 0.60662 0.0
N138 N 0.58507 0.6441 0.60747 0.0
C139 C 0.5754 0.52741 0.6432 0.0
H140 H 0.61804 0.67183 0.48968 0.0
H141 H 0.62294 0.58101 0.48921 0.0
H142 H 0.69788 0.63419 0.50314 0.0
H143 H 0.6057 0.48241 0.64111 0.0
H144 H 0.51939 0.51041 0.64528 0.0
H145 H 0.59093 0.55227 0.67135 0.0
C146 C 1.01025 0.66951 0.8447 0.0
N147 N 0.05909 0.65882 0.87416 0.0
N148 N 0.9456 0.66656 0.86087 0.0
C149 C 1.02583 0.68765 0.80081 0.0
C150 C 0.95655 0.65339 0.90085 0.0
N151 N 1.02508 0.6498 0.90915 0.0
C152 C 0.89938 0.64233 0.93183 0.0
H153 H 0.98354 0.71544 0.78602 0.0
H154 H 1.03029 0.64048 0.7851 0.0
H155 H 0.07589 0.71877 0.79757 0.0
H156 H 0.84995 0.6229 0.91777 0.0
H157 H 0.89075 0.69123 0.94472 0.0
H158 H 0.91366 0.60601 0.9569 0.0
C159 C 0.10818 0.64369 0.45133 0.0
N160 N 0.07422 0.61401 0.42006 0.0
N161 N 0.13343 0.70747 0.43983 0.0
C162 C 0.11147 0.61287 0.49399 0.0
C163 C 0.1136 0.71558 0.4005 0.0
N164 N 0.07702 0.65922 0.38852 0.0
C165 C 0.13415 0.77707 0.37308 0.0
H166 H 0.11708 0.65254 0.51619 0.0
H167 H 0.1573 0.58222 0.49707 0.0
H168 H 0.06412 0.57929 0.50121 0.0
H169 H 0.18326 0.8032 0.38364 0.0
H170 H 0.09257 0.8128 0.37328 0.0
H171 H 0.1409 0.76307 0.34149 0.0
C172 C 0.94789 0.24281 0.77019 0.0
N173 N 0.90574 0.19356 0.75451 0.0
N174 N 0.94311 0.30382 0.7495 0.0
C175 C 0.98957 0.23238 0.80859 0.0
C176 C 0.9077 0.28499 0.71563 0.0
N177 N 0.88246 0.21979 0.71956 0.0
C178 C 0.89703 0.33083 0.67835 0.0
H179 H 1.01818 0.28022 0.81675 0.0
H180 H 1.02736 0.1941 0.804 0.0
H181 H 0.95538 0.21174 0.83388 0.0
H182 H 0.94466 0.3644 0.67198 0.0
H183 H 0.85297 0.36235 0.683 0.0
H184 H 0.88525 0.30113 0.65148 0.0
C185 C 0.51523 0.61651 0.13827 0.0
N186 N 0.5622 0.62023 0.10752 0.0
N187 N 0.45058 0.62763 0.12376 0.0
C188 C 0.53232 0.60392 0.18236 0.0
C189 C 0.45965 0.63831 0.08342 0.0
N190 N 0.52697 0.63417 0.07347 0.0
C191 C 0.40123 0.64635 0.05314 0.0
H192 H 0.53504 0.54877 0.18918 0.0
H193 H 0.4917 0.6219 0.20168 0.0
H194 H 0.58364 0.62949 0.18965 0.0
H195 H 0.35886 0.67332 0.0657 0.0
H196 H 0.37928 0.59542 0.04562 0.0
H197 H 0.42002 0.67426 0.02478 0.0
C198 C 0.27462 0.55895 0.15873 0.0
C199 C 0.23978 0.61881 0.15896 0.0
H200 H 0.37101 0.51523 0.14751 0.0
C201 C 0.27949 0.68125 0.15504 0.0
H202 H 0.24576 0.51003 0.16153 0.0
C203 C 0.35111 0.68382 0.14786 0.0
C204 C 0.38461 0.62422 0.14415 0.0
H205 H 0.25464 0.72839 0.15537 0.0
H206 H 0.37949 0.73247 0.14191 0.0
C207 C 0.34636 0.56172 0.15107 0.0
C208 C 0.92809 0.47826 0.41788 0.0
C209 C 0.96058 0.42124 0.4342 0.0
H210 H 0.93914 0.58477 0.40083 0.0
C211 C 1.03235 0.42817 0.44274 0.0
H212 H 0.87285 0.47496 0.41124 0.0
C213 C 0.07003 0.49083 0.43646 0.0
C214 C 1.03693 0.54813 0.42172 0.0
H215 H 0.05939 0.38517 0.45458 0.0
H216 H 0.12495 0.49502 0.44388 0.0
C217 C 0.9659 0.54109 0.41178 0.0
C218 C 0.8295 1.04215 0.81596 0.0
C219 C 0.76464 1.06478 0.82631 0.0
H220 H 0.92591 1.06613 0.78404 0.0
C221 C 0.75057 0.13184 0.81551 0.0
H222 H 0.84219 0.9909 0.82439 0.0
C223 C 0.7983 0.17398 0.79292 0.0
C224 C 0.86075 0.14999 0.78049 0.0
H225 H 0.70106 0.15075 0.82237 0.0
H226 H 0.7856 0.22496 0.78371 0.0
C227 C 0.8773 1.08462 0.793 0.0
C228 C 0.75404 0.6715 0.10139 0.0
C229 C 0.78383 0.61735 0.12319 0.0
H230 H 0.66058 0.7145 0.07949 0.0
C231 C 0.73893 0.56233 0.13809 0.0
H232 H 0.78647 0.71475 0.08928 0.0
C233 C 0.66648 0.56237 0.13218 0.0
C234 C 0.63706 0.6171 0.11097 0.0
H235 H 0.75955 0.51958 0.15491 0.0
H236 H 0.63328 0.51979 0.1444 0.0
C237 C 0.6818 0.67122 0.09532 0.0
C238 C 0.26966 0.79353 0.5051 0.0
C239 C 0.24479 0.85824 0.50721 0.0
H240 H 0.25337 0.69479 0.48182 0.0
C241 C 0.18075 0.87071 0.48824 0.0
H242 H 0.31904 0.78206 0.51879 0.0
C243 C 0.14387 0.82086 0.46685 0.0
C244 C 0.16967 0.75712 0.46404 0.0
H245 H 0.159 0.91919 0.48979 0.0
H246 H 0.09515 0.83209 0.45223 0.0
C247 C 0.23237 0.74352 0.48383 0.0
C248 C 0.85916 0.46198 0.75544 0.0
C249 C 0.81283 0.44069 0.78695 0.0
H250 H 0.94728 0.4381 0.72181 0.0
C251 C 0.83041 0.38902 0.81495 0.0
H252 H 0.84824 0.50406 0.73445 0.0
C253 C 0.88439 0.34974 0.80666 0.0
C254 C 0.92185 0.36148 0.77002 0.0
H255 H 0.79666 0.37257 0.84021 0.0
H256 H 0.88791 0.3044 0.82602 0.0
C257 C 0.91553 0.4239 0.74812 0.0
C258 C 0.55987 0.85537 0.56137 0.0
C259 C 0.62032 0.8909 0.54485 0.0
H260 H 0.50723 0.76002 0.58115 0.0
C261 C 0.6753 0.8517 0.53494 0.0
H262 H 0.51568 0.88256 0.56909 0.0
C263 C 0.67052 0.78016 0.54261 0.0
C264 C 0.61042 0.74532 0.5601 0.0
H265 H 0.72277 0.87642 0.52224 0.0
H266 H 0.71471 0.75229 0.53591 0.0
C267 C 0.55489 0.78443 0.56852 0.0
C268 C 0.77096 0.64545 0.81118 0.0
C269 C 0.73705 0.69744 0.82803 0.0
H270 H 0.86574 0.59472 0.80852 0.0
C271 C 0.7773 0.74608 0.84897 0.0
H272 H 0.74193 0.60852 0.79378 0.0
C273 C 0.84808 0.73924 0.85617 0.0
C274 C 0.88029 0.68368 0.84279 0.0
H275 H 0.7535 0.78753 0.86179 0.0
H276 H 0.87683 0.7747 0.87481 0.0
C277 C 0.84196 0.63817 0.81889 0.0
C278 C 0.33083 0.95276 0.19491 0.0
C279 C 0.27776 0.98781 0.1754 0.0
H280 H 0.42264 0.95926 0.23207 0.0
C281 C 0.28052 1.05866 0.17584 0.0
H282 H 0.331 0.8983 0.19432 0.0
C283 C 0.33352 1.09328 0.19721 0.0
C284 C 0.38403 1.05744 0.21836 0.0
H285 H 0.24024 1.0869 0.1612 0.0
H286 H 0.33382 0.14762 0.19855 0.0
C287 C 0.38324 0.98728 0.21636 0.0
C288 C 0.55196 0.37202 0.56166 0.0
C289 C 0.61189 0.34489 0.5473 0.0
H290 H 0.50255 0.45981 0.57792 0.0
C291 C 0.66898 0.39136 0.53657 0.0
H292 H 0.50639 0.33897 0.56974 0.0
C293 C 0.667 0.46176 0.54197 0.0
C294 C 0.60749 0.48803 0.55767 0.0
H295 H 0.71613 0.37306 0.52525 0.0
H296 H 0.71288 0.49519 0.5353 0.0
C297 C 0.5496 0.44186 0.56628 0.0
C298 C 0.25091 0.70938 0.88241 0.0
C299 C 0.27939 0.66928 0.854 0.0
H300 H 0.15848 0.73716 0.91118 0.0
C301 C 0.23388 0.62375 0.83374 0.0
H302 H 0.2841 0.74485 0.89877 0.0
C303 C 0.16204 0.6195 0.84103 0.0
C304 C 0.13374 0.66023 0.86892 0.0
H305 H 0.25356 0.59183 0.81181 0.0
H306 H 0.12828 0.58449 0.8247 0.0
C307 C 0.17901 0.70471 0.88985 0.0
C308 C 0.71357 0.21001 0.26366 0.0
C309 C 0.71384 0.27653 0.2462 0.0
H310 H 0.65151 1.12008 0.28347 0.0
C311 C 0.64994 0.30576 0.23979 0.0
H312 H 0.76161 0.18563 0.2687 0.0
C313 C 0.5873 0.26779 0.24792 0.0
C314 C 0.58744 0.20038 0.26306 0.0
H315 H 0.64823 0.35736 0.22731 0.0
H316 H 0.53858 0.29003 0.24102 0.0
C317 C 0.65079 0.17239 0.27215 0.0
C318 C 1.03636 0.67053 0.01887 0.0
C319 C 0.05531 0.60657 0.03339 0.0
H320 H 1.01751 0.73646 0.96684 0.0
C321 C 0.07965 0.56279 0.00575 0.0
H322 H 1.01663 0.70501 0.03919 0.0
C323 C 0.0778 0.58019 0.96389 0.0
C324 C 0.05342 0.64215 0.94949 0.0
H325 H 0.09475 0.51314 0.01615 0.0
H326 H 0.08946 0.54317 0.94278 0.0
C327 C 1.0372 0.68874 0.97746 0.0
C328 C 0.56402 1.07238 0.40065 0.0
C329 C 0.54697 0.12864 0.42116 0.0
H330 H 0.56171 1.02533 0.34381 0.0
C331 C 0.52093 0.18417 0.39906 0.0
H332 H 0.58426 1.02899 0.41704 0.0
C333 C 0.50984 0.18248 0.3573 0.0
C334 C 0.5234 1.12487 0.33732 0.0
H335 H 0.50785 0.22829 0.41418 0.0
H336 H 0.48757 0.22467 0.34083 0.0
C337 C 0.55148 1.07023 0.35901 0.0
C338 C 0.48271 0.68191 0.698 0.0
C339 C 0.53005 0.72608 0.71768 0.0
H340 H 0.46272 0.62305 0.64635 0.0
C341 C 0.59265 0.74911 0.69803 0.0
H342 H 0.43396 0.66369 0.7122 0.0
C343 C 0.60936 0.7252 0.6606 0.0
C344 C 0.56347 0.67845 0.64197 0.0
H345 H 0.63021 0.78331 0.71241 0.0
H346 H 0.65941 0.74062 0.64714 0.0
C347 C 0.4991 0.65876 0.6604 0.0
C348 C 0.78747 1.09507 0.65484 0.0
C349 C 0.73191 0.13174 0.6397 0.0
H350 H 0.87964 1.09552 0.69201 0.0
C351 C 0.72121 0.19392 0.65573 0.0
H352 H 0.79664 1.04662 0.64342 0.0
C353 C 0.76886 0.22154 0.68351 0.0
C354 C 0.82827 0.18786 0.69527 0.0
H355 H 0.67863 0.22312 0.64499 0.0
H356 H 0.7607 0.27036 0.69469 0.0
C357 C 0.83519 1.12296 0.6824 0.0
C358 C 0.52068 0.56672 0.97238 0.0
C359 C 0.53433 0.62631 0.94775 0.0
H360 H 0.51253 0.52216 0.03308 0.0
C361 C 0.56146 0.68503 0.96563 0.0
H362 H 0.50066 0.52045 0.95937 0.0
C363 C 0.56766 0.68587 0.00788 0.0
C364 C 0.54905 0.62749 0.03266 0.0
H365 H 0.57302 0.73147 0.94726 0.0
H366 H 0.58095 0.73342 0.02134 0.0
C367 C 0.52893 0.56717 0.01441 0.0
C368 C 1.05098 0.60283 0.28278 0.0
C369 C 1.01325 0.65547 0.2654 0.0
H370 H 0.1016 0.56303 0.33674 0.0
C371 C 0.98787 0.70206 0.29068 0.0
H372 H 0.07155 0.56659 0.26384 0.0
C373 C 1.00397 0.69929 0.33196 0.0
C374 C 1.04704 0.65081 0.34877 0.0
H375 H 0.95835 0.74291 0.27813 0.0
H376 H 0.98646 0.73774 0.35041 0.0
C377 C 0.06812 0.60075 0.32432 0.0
loop_
_geom_bond_atom_site_label_1
_geom_bond_atom_site_label_2
_geom_bond_distance
_geom_bond_site_symmetry_2
_ccdc_geom_bond_type
Pr0 C2 2.880 . S
Pr0 O20 2.562 . S
Pr0 O21 2.490 . S
Pr0 O22 2.695 1_655 S
Pr0 O23 2.512 . S
Pr0 O25 2.437 . S
Pr0 O28 2.436 . S
Pr0 O30 2.438 1_655 S
Pr1 C11 2.880 . S
Pr1 O22 2.436 . S
Pr1 O24 2.438 1_455 S
Pr1 O26 2.562 . S
Pr1 O27 2.490 . S
Pr1 O28 2.695 1_455 S
Pr1 O29 2.512 . S
Pr1 O31 2.437 . S
C2 Pr0 2.880 . S
C2 C3 1.491 . S
C2 O20 1.254 . S
C2 O21 1.225 . S
C3 C2 1.491 . S
C3 C4 1.392 . S
C3 C8 1.356 . S
C4 C3 1.392 . S
C4 C5 1.368 . S
C4 H32 0.929 . S
C5 C4 1.368 . S
C5 C6 1.386 . S
C5 H33 0.929 . S
C6 C5 1.386 . S
C6 C7 1.373 . S
C7 C6 1.373 . S
C7 C8 1.409 . S
C7 H34 0.931 . S
C8 C3 1.356 . S
C8 C7 1.409 . S
C8 H35 0.930 . S
C9 O22 1.270 . S
C9 O23 1.248 1_455 S
C10 O24 1.267 . S
C10 O25 1.278 . S
C11 Pr1 2.880 . S
C11 C12 1.491 . S
C11 O26 1.254 . S
C11 O27 1.225 . S
C12 C11 1.491 . S
C12 C13 1.392 . S
C12 C17 1.356 . S
C13 C12 1.392 . S
C13 C14 1.368 . S
C13 H36 0.929 . S
C14 C13 1.368 . S
C14 C15 1.386 . S
C14 H37 0.929 . S
C15 C14 1.386 . S
C15 C16 1.373 . S
C16 C15 1.373 . S
C16 C17 1.409 . S
C16 H38 0.931 . S
C17 C12 1.356 . S
C17 C16 1.409 . S
C17 H39 0.930 . S
C18 O28 1.270 1_455 S
C18 O29 1.248 . S
C19 O30 1.267 . S
C19 O31 1.278 . S
O20 Pr0 2.562 . S
O20 C2 1.254 . S
O21 Pr0 2.490 . S
O21 C2 1.225 . S
O22 Pr0 2.695 1_455 S
O22 Pr1 2.436 . S
O22 C9 1.270 . S
O23 Pr0 2.512 . S
O23 C9 1.248 1_655 S
O24 Pr1 2.438 1_655 S
O24 C10 1.267 . S
O25 Pr0 2.437 . S
O25 C10 1.278 . S
O26 Pr1 2.562 . S
O26 C11 1.254 . S
O27 Pr1 2.490 . S
O27 C11 1.225 . S
O28 Pr0 2.436 . S
O28 Pr1 2.695 1_655 S
O28 C18 1.270 1_655 S
O29 Pr1 2.512 . S
O29 C18 1.248 . S
O30 Pr0 2.438 1_455 S
O30 C19 1.267 . S
O31 Pr1 2.437 . S
O31 C19 1.278 . S
H32 C4 0.929 . S
H33 C5 0.929 . S
H34 C7 0.931 . S
H35 C8 0.930 . S
H36 C13 0.929 . S
H37 C14 0.929 . S
H38 C16 0.931 . S
H39 C17 0.930 . S
Pr40 C42 2.880 . S
Pr40 O60 2.562 . S
Pr40 O61 2.490 . S
Pr40 O62 2.695 1_545 S
Pr40 O63 2.512 . S
Pr40 O65 2.437 . S
Pr40 O68 2.436 . S
Pr40 O70 2.438 1_545 S
Pr41 C51 2.880 . S
Pr41 O62 2.436 . S
Pr41 O64 2.438 1_565 S
Pr41 O66 2.562 . S
Pr41 O67 2.490 . S
Pr41 O68 2.695 1_565 S
Pr41 O69 2.512 . S
Pr41 O71 2.437 . S
C42 Pr40 2.880 . S
C42 C43 1.491 . S
C42 O60 1.254 . S
C42 O61 1.225 . S
C43 C42 1.491 . S
C43 C44 1.392 . S
C43 C48 1.356 . S
C44 C43 1.392 . S
C44 C45 1.368 . S
C44 H72 0.929 . S
C45 C44 1.368 . S
C45 C46 1.386 . S
C45 H73 0.929 . S
C46 C45 1.386 . S
C46 C47 1.373 . S
C47 C46 1.373 . S
C47 C48 1.409 . S
C47 H74 0.931 . S
C48 C43 1.356 . S
C48 C47 1.409 . S
C48 H75 0.930 . S
C49 O62 1.270 1_545 S
C49 O63 1.248 . S
C50 O64 1.267 . S
C50 O65 1.278 . S
C51 Pr41 2.880 . S
C51 C52 1.491 . S
C51 O66 1.254 . S
C51 O67 1.225 . S
C52 C51 1.491 . S
C52 C53 1.392 . S
C52 C57 1.356 . S
C53 C52 1.392 . S
C53 C54 1.368 . S
C53 H76 0.929 . S
C54 C53 1.368 . S
C54 C55 1.386 . S
C54 H77 0.929 . S
C55 C54 1.386 . S
C55 C56 1.373 . S
C56 C55 1.373 . S
C56 C57 1.409 . S
C56 H78 0.931 . S
C57 C52 1.356 . S
C57 C56 1.409 . S
C57 H79 0.930 . S
C58 O68 1.270 . S
C58 O69 1.248 1_545 S
C59 O70 1.267 . S
C59 O71 1.278 . S
O60 Pr40 2.562 . S
O60 C42 1.254 . S
O61 Pr40 2.490 . S
O61 C42 1.225 . S
O62 Pr40 2.695 1_565 S
O62 Pr41 2.436 . S
O62 C49 1.270 1_565 S
O63 Pr40 2.512 . S
O63 C49 1.248 . S
O64 Pr41 2.438 1_545 S
O64 C50 1.267 . S
O65 Pr40 2.437 . S
O65 C50 1.278 . S
O66 Pr41 2.562 . S
O66 C51 1.254 . S
O67 Pr41 2.490 . S
O67 C51 1.225 . S
O68 Pr40 2.436 . S
O68 Pr41 2.695 1_545 S
O68 C58 1.270 . S
O69 Pr41 2.512 . S
O69 C58 1.248 1_565 S
O70 Pr40 2.438 1_565 S
O70 C59 1.267 . S
O71 Pr41 2.437 . S
O71 C59 1.278 . S
H72 C44 0.929 . S
H73 C45 0.929 . S
H74 C47 0.931 . S
H75 C48 0.930 . S
H76 C53 0.929 . S
H77 C54 0.929 . S
H78 C56 0.931 . S
H79 C57 0.930 . S
Pr80 C82 2.880 . S
Pr80 O100 2.562 . S
Pr80 O101 2.490 . S
Pr80 O102 2.695 . S
Pr80 O103 2.512 . S
Pr80 O105 2.437 . S
Pr80 O108 2.436 . S
Pr80 O110 2.438 . S
Pr81 C91 2.880 . S
Pr81 O102 2.436 . S
Pr81 O104 2.438 . S
Pr81 O106 2.562 . S
Pr81 O107 2.490 . S
Pr81 O108 2.695 . S
Pr81 O109 2.512 . S
Pr81 O111 2.437 . S
C82 Pr80 2.880 . S
C82 C83 1.491 . S
C82 O100 1.254 . S
C82 O101 1.225 . S
C83 C82 1.491 . S
C83 C84 1.392 . S
C83 C88 1.356 . S
C84 C83 1.392 . S
C84 C85 1.368 . S
C84 H112 0.929 . S
C85 C84 1.368 . S
C85 C86 1.386 . S
C85 H113 0.929 . S
C86 C85 1.386 . S
C86 C87 1.373 . S
C87 C86 1.373 . S
C87 C88 1.409 . S
C87 H114 0.931 . S
C88 C83 1.356 . S
C88 C87 1.409 . S
C88 H115 0.930 . S
C89 O102 1.270 . S
C89 O103 1.248 . S
C90 O104 1.267 . S
C90 O105 1.278 . S
C91 Pr81 2.880 . S
C91 C92 1.491 . S
C91 O106 1.254 . S
C91 O107 1.225 . S
C92 C91 1.491 . S
C92 C93 1.392 . S
C92 C97 1.356 . S
C93 C92 1.392 . S
C93 C94 1.368 . S
C93 H116 0.929 . S
C94 C93 1.368 . S
C94 C95 1.386 . S
C94 H117 0.929 . S
C95 C94 1.386 . S
C95 C96 1.373 . S
C96 C95 1.373 . S
C96 C97 1.409 . S
C96 H118 0.931 . S
C97 C92 1.356 . S
C97 C96 1.409 . S
C97 H119 0.930 . S
C98 O108 1.270 . S
C98 O109 1.248 . S
C99 O110 1.267 . S
C99 O111 1.278 . S
O100 Pr80 2.562 . S
O100 C82 1.254 . S
O101 Pr80 2.490 . S
O101 C82 1.225 . S
O102 Pr80 2.695 . S
O102 Pr81 2.436 . S
O102 C89 1.270 . S
O103 Pr80 2.512 . S
O103 C89 1.248 . S
O104 Pr81 2.438 . S
O104 C90 1.267 . S
O105 Pr80 2.437 . S
O105 C90 1.278 . S
O106 Pr81 2.562 . S
O106 C91 1.254 . S
O107 Pr81 2.490 . S
O107 C91 1.225 . S
O108 Pr80 2.436 . S
O108 Pr81 2.695 . S
O108 C98 1.270 . S
O109 Pr81 2.512 . S
O109 C98 1.248 . S
O110 Pr80 2.438 . S
O110 C99 1.267 . S
O111 Pr81 2.437 . S
O111 C99 1.278 . S
H112 C84 0.929 . S
H113 C85 0.929 . S
H114 C87 0.931 . S
H115 C88 0.930 . S
H116 C93 0.929 . S
H117 C94 0.929 . S
H118 C96 0.931 . S
H119 C97 0.930 . S
C120 N121 1.317 . S
C120 N122 1.348 1_545 S
C120 C123 1.485 . S
N121 C120 1.317 . S
N121 N125 1.370 . S
N122 C120 1.348 1_565 S
N122 C124 1.346 . S
C123 C120 1.485 . S
C123 H127 0.960 . S
C123 H128 0.961 1_545 S
C123 H129 0.960 . S
C124 N122 1.346 . S
C124 N125 1.307 1_565 S
C124 C126 1.486 . S
N125 N121 1.370 . S
N125 C124 1.307 1_545 S
C126 C124 1.486 . S
C126 H130 0.960 . S
C126 H131 0.960 . S
C126 H132 0.959 . S
H127 C123 0.960 . S
H128 C123 0.961 1_565 S
H129 C123 0.960 . S
H130 C126 0.960 . S
H131 C126 0.960 . S
H132 C126 0.959 . S
C133 N134 1.317 . S
C133 N135 1.348 . S
C133 C136 1.485 . S
N134 C133 1.317 . S
N134 N138 1.370 . S
N135 C133 1.348 . S
N135 C137 1.346 . S
C136 C133 1.485 . S
C136 H140 0.960 . S
C136 H141 0.961 . S
C136 H142 0.960 . S
C137 N135 1.346 . S
C137 N138 1.307 . S
C137 C139 1.486 . S
N138 N134 1.370 . S
N138 C137 1.307 . S
C139 C137 1.486 . S
C139 H143 0.960 . S
C139 H144 0.960 . S
C139 H145 0.959 . S
H140 C136 0.960 . S
H141 C136 0.961 . S
H142 C136 0.960 . S
H143 C139 0.960 . S
H144 C139 0.960 . S
H145 C139 0.959 . S
C146 N147 1.317 . S
C146 N148 1.348 1_455 S
C146 C149 1.485 . S
N147 C146 1.317 . S
N147 N151 1.370 . S
N148 C146 1.348 1_655 S
N148 C150 1.346 . S
C149 C146 1.485 . S
C149 H153 0.960 . S
C149 H154 0.961 . S
C149 H155 0.960 . S
C150 N148 1.346 . S
C150 N151 1.307 1_655 S
C150 C152 1.486 . S
N151 N147 1.370 . S
N151 C150 1.307 1_455 S
C152 C150 1.486 . S
C152 H156 0.960 . S
C152 H157 0.960 . S
C152 H158 0.959 . S
H153 C149 0.960 . S
H154 C149 0.961 . S
H155 C149 0.960 . S
H156 C152 0.960 . S
H157 C152 0.960 . S
H158 C152 0.959 . S
C159 N160 1.317 . S
C159 N161 1.348 . S
C159 C162 1.485 . S
N160 C159 1.317 . S
N160 N164 1.370 . S
N161 C159 1.348 . S
N161 C163 1.346 . S
C162 C159 1.485 . S
C162 H166 0.960 . S
C162 H167 0.961 . S
C162 H168 0.960 . S
C163 N161 1.346 . S
C163 N164 1.307 . S
C163 C165 1.486 . S
N164 N160 1.370 . S
N164 C163 1.307 . S
C165 C163 1.486 . S
C165 H169 0.960 . S
C165 H170 0.960 . S
C165 H171 0.959 . S
H166 C162 0.960 . S
H167 C162 0.961 . S
H168 C162 0.960 . S
H169 C165 0.960 . S
H170 C165 0.960 . S
H171 C165 0.959 . S
C172 N173 1.327 . S
C172 N174 1.348 . S
C172 C175 1.485 . S
N173 C172 1.327 . S
N173 N177 1.376 . S
N174 C172 1.348 . S
N174 C176 1.346 . S
C175 C172 1.485 . S
C175 H179 0.960 . S
C175 H180 0.961 . S
C175 H181 0.960 1_545 S
C176 N174 1.346 . S
C176 N177 1.307 . S
C176 C178 1.486 . S
N177 N173 1.376 . S
N177 C176 1.307 . S
C178 C176 1.486 . S
C178 H182 0.960 . S
C178 H183 0.960 . S
C178 H184 0.959 . S
H179 C175 0.960 . S
H180 C175 0.961 . S
H181 C175 0.960 1_565 S
H182 C178 0.960 . S
H183 C178 0.960 . S
H184 C178 0.959 . S
C185 N186 1.317 . S
C185 N187 1.348 . S
C185 C188 1.485 . S
N186 C185 1.317 . S
N186 N190 1.370 . S
N187 C185 1.348 . S
N187 C189 1.346 . S
C188 C185 1.485 . S
C188 H192 0.960 . S
C188 H193 0.961 . S
C188 H194 0.960 . S
C189 N187 1.346 . S
C189 N190 1.307 . S
C189 C191 1.486 . S
N190 N186 1.370 . S
N190 C189 1.307 . S
C191 C189 1.486 . S
C191 H195 0.960 . S
C191 H196 0.960 . S
C191 H197 0.959 . S
H192 C188 0.960 . S
H193 C188 0.961 . S
H194 C188 0.960 . S
H195 C191 0.960 . S
H196 C191 0.960 . S
H197 C191 0.959 . S
C198 C199 1.387 . S
C198 H202 0.950 . S
C198 C207 1.390 . S
C199 C198 1.387 . S
C199 C201 1.387 . S
H200 C207 0.950 . S
C201 C199 1.387 . S
C201 C203 1.390 . S
C201 H205 0.950 . S
H202 C198 0.950 . S
C203 C201 1.390 . S
C203 C204 1.387 . S
C203 H206 0.950 . S
C204 C203 1.387 . S
C204 C207 1.387 . S
H205 C201 0.950 . S
H206 C203 0.950 . S
C207 C198 1.390 . S
C207 H200 0.950 . S
C207 C204 1.387 . S
C208 C209 1.387 . S
C208 H212 0.950 . S
C208 C217 1.390 . S
C209 C208 1.387 . S
C209 C211 1.387 1_655 S
H210 C217 0.950 . S
C211 C209 1.387 1_455 S
C211 C213 1.390 . S
C211 H215 0.950 . S
H212 C208 0.950 . S
C213 C211 1.390 . S
C213 C214 1.387 1_455 S
C213 H216 0.950 . S
C214 C213 1.387 1_655 S
C214 C217 1.387 . S
H215 C211 0.950 . S
H216 C213 0.950 . S
C217 C208 1.390 . S
C217 H210 0.950 . S
C217 C214 1.387 . S
C218 C219 1.387 . S
C218 H222 0.950 . S
C218 C227 1.390 . S
C219 C218 1.387 . S
C219 C221 1.387 . S
H220 C227 0.950 . S
C221 C219 1.387 . S
C221 C223 1.390 . S
C221 H225 0.950 . S
H222 C218 0.950 . S
C223 C221 1.390 . S
C223 C224 1.387 . S
C223 H226 0.950 1_565 S
C224 C223 1.387 . S
C224 C227 1.387 . S
H225 C221 0.950 . S
H226 C223 0.950 1_545 S
C227 C218 1.390 . S
C227 H220 0.950 . S
C227 C224 1.387 . S
C228 C229 1.387 . S
C228 H232 0.950 . S
C228 C237 1.390 . S
C229 C228 1.387 . S
C229 C231 1.387 . S
H230 C237 0.950 . S
C231 C229 1.387 . S
C231 C233 1.390 . S
C231 H235 0.950 . S
H232 C228 0.950 . S
C233 C231 1.390 . S
C233 C234 1.387 . S
C233 H236 0.950 . S
C234 C233 1.387 . S
C234 C237 1.387 . S
H235 C231 0.950 . S
H236 C233 0.950 . S
C237 C228 1.390 . S
C237 H230 0.950 . S
C237 C234 1.387 . S
C238 C239 1.387 . S
C238 H242 0.950 . S
C238 C247 1.390 . S
C239 C238 1.387 . S
C239 C241 1.387 . S
H240 C247 0.950 . S
C241 C239 1.387 . S
C241 C243 1.390 . S
C241 H245 0.950 . S
H242 C238 0.950 . S
C243 C241 1.390 . S
C243 C244 1.387 . S
C243 H246 0.950 . S
C244 C243 1.387 . S
C244 C247 1.387 . S
H245 C241 0.950 . S
H246 C243 0.950 . S
C247 C238 1.390 . S
C247 H240 0.950 . S
C247 C244 1.387 . S
C248 C249 1.387 . S
C248 H252 0.950 . S
C248 C257 1.390 . S
C249 C248 1.387 . S
C249 C251 1.387 . S
H250 C257 0.950 . S
C251 C249 1.387 . S
C251 C253 1.390 . S
C251 H255 0.950 . S
H252 C248 0.950 . S
C253 C251 1.390 . S
C253 C254 1.387 . S
C253 H256 0.950 . S
C254 C253 1.387 . S
C254 C257 1.387 . S
H255 C251 0.950 . S
H256 C253 0.950 . S
C257 C248 1.390 . S
C257 H250 0.950 . S
C257 C254 1.387 . S
C258 C259 1.387 . S
C258 H262 0.950 . S
C258 C267 1.390 . S
C259 C258 1.387 . S
C259 C261 1.387 . S
H260 C267 0.950 . S
C261 C259 1.387 . S
C261 C263 1.390 . S
C261 H265 0.950 . S
H262 C258 0.950 . S
C263 C261 1.390 . S
C263 C264 1.387 . S
C263 H266 0.950 . S
C264 C263 1.387 . S
C264 C267 1.387 . S
H265 C261 0.950 . S
H266 C263 0.950 . S
C267 C258 1.390 . S
C267 H260 0.950 . S
C267 C264 1.387 . S
C268 C269 1.387 . S
C268 H272 0.950 . S
C268 C277 1.390 . S
C269 C268 1.387 . S
C269 C271 1.387 . S
H270 C277 0.950 . S
C271 C269 1.387 . S
C271 C273 1.390 . S
C271 H275 0.950 . S
H272 C268 0.950 . S
C273 C271 1.390 . S
C273 C274 1.387 . S
C273 H276 0.950 . S
C274 C273 1.387 . S
C274 C277 1.387 . S
H275 C271 0.950 . S
H276 C273 0.950 . S
C277 C268 1.390 . S
C277 H270 0.950 . S
C277 C274 1.387 . S
C278 C279 1.387 . S
C278 H282 0.950 . S
C278 C287 1.390 . S
C279 C278 1.387 . S
C279 C281 1.387 . S
H280 C287 0.950 . S
C281 C279 1.387 . S
C281 C283 1.390 . S
C281 H285 0.950 . S
H282 C278 0.950 . S
C283 C281 1.390 . S
C283 C284 1.387 . S
C283 H286 0.950 . S
C284 C283 1.387 . S
C284 C287 1.387 . S
H285 C281 0.950 . S
H286 C283 0.950 . S
C287 C278 1.390 . S
C287 H280 0.950 . S
C287 C284 1.387 . S
C288 C289 1.387 . S
C288 H292 0.950 . S
C288 C297 1.390 . S
C289 C288 1.387 . S
C289 C291 1.387 . S
H290 C297 0.950 . S
C291 C289 1.387 . S
C291 C293 1.390 . S
C291 H295 0.950 . S
H292 C288 0.950 . S
C293 C291 1.390 . S
C293 C294 1.387 . S
C293 H296 0.950 . S
C294 C293 1.387 . S
C294 C297 1.387 . S
H295 C291 0.950 . S
H296 C293 0.950 . S
C297 C288 1.390 . S
C297 H290 0.950 . S
C297 C294 1.387 . S
C298 C299 1.387 . S
C298 H302 0.950 . S
C298 C307 1.390 . S
C299 C298 1.387 . S
C299 C301 1.387 . S
H300 C307 0.950 . S
C301 C299 1.387 . S
C301 C303 1.390 . S
C301 H305 0.950 . S
H302 C298 0.950 . S
C303 C301 1.390 . S
C303 C304 1.387 . S
C303 H306 0.950 . S
C304 C303 1.387 . S
C304 C307 1.387 . S
H305 C301 0.950 . S
H306 C303 0.950 . S
C307 C298 1.390 . S
C307 H300 0.950 . S
C307 C304 1.387 . S
C308 C309 1.387 . S
C308 H312 0.950 . S
C308 C317 1.390 . S
C309 C308 1.387 . S
C309 C311 1.387 . S
H310 C317 0.950 . S
C311 C309 1.387 . S
C311 C313 1.390 . S
C311 H315 0.950 . S
H312 C308 0.950 . S
C313 C311 1.390 . S
C313 C314 1.387 . S
C313 H316 0.950 . S
C314 C313 1.387 . S
C314 C317 1.387 . S
H315 C311 0.950 . S
H316 C313 0.950 . S
C317 C308 1.390 . S
C317 H310 0.950 . S
C317 C314 1.387 . S
C318 C319 1.387 . S
C318 H322 0.950 1_455 S
C318 C327 1.390 1_554 S
C319 C318 1.387 . S
C319 C321 1.387 . S
H320 C327 0.950 . S
C321 C319 1.387 . S
C321 C323 1.390 1_554 S
C321 H325 0.950 . S
H322 C318 0.950 1_655 S
C323 C321 1.390 1_556 S
C323 C324 1.387 . S
C323 H326 0.950 . S
C324 C323 1.387 . S
C324 C327 1.387 . S
H325 C321 0.950 . S
H326 C323 0.950 . S
C327 C318 1.390 1_556 S
C327 H320 0.950 . S
C327 C324 1.387 . S
C328 C329 1.387 1_565 S
C328 H332 0.950 . S
C328 C337 1.390 . S
C329 C328 1.387 1_545 S
C329 C331 1.387 . S
H330 C337 0.950 . S
C331 C329 1.387 . S
C331 C333 1.390 . S
C331 H335 0.950 . S
H332 C328 0.950 . S
C333 C331 1.390 . S
C333 C334 1.387 . S
C333 H336 0.950 . S
C334 C333 1.387 . S
C334 C337 1.387 1_545 S
H335 C331 0.950 . S
H336 C333 0.950 . S
C337 C328 1.390 . S
C337 H330 0.950 . S
C337 C334 1.387 1_565 S
C338 C339 1.387 . S
C338 H342 0.950 . S
C338 C347 1.390 . S
C339 C338 1.387 . S
C339 C341 1.387 . S
H340 C347 0.950 . S
C341 C339 1.387 . S
C341 C343 1.390 . S
C341 H345 0.950 . S
H342 C338 0.950 . S
C343 C341 1.390 . S
C343 C344 1.387 . S
C343 H346 0.950 . S
C344 C343 1.387 . S
C344 C347 1.387 . S
H345 C341 0.950 . S
H346 C343 0.950 . S
C347 C338 1.390 . S
C347 H340 0.950 . S
C347 C344 1.387 . S
C348 C349 1.387 . S
C348 H352 0.950 . S
C348 C357 1.390 . S
C349 C348 1.387 . S
C349 C351 1.387 1_545 S
H350 C357 0.950 . S
C351 C349 1.387 1_565 S
C351 C353 1.390 . S
C351 H355 0.950 . S
H352 C348 0.950 . S
C353 C351 1.390 . S
C353 C354 1.387 1_565 S
C353 H356 0.950 . S
C354 C353 1.387 1_545 S
C354 C357 1.387 . S
H355 C351 0.950 . S
H356 C353 0.950 . S
C357 C348 1.390 . S
C357 H350 0.950 . S
C357 C354 1.387 . S
C358 C359 1.387 . S
C358 H362 0.950 . S
C358 C367 1.390 1_556 S
C359 C358 1.387 . S
C359 C361 1.387 . S
H360 C367 0.950 . S
C361 C359 1.387 . S
C361 C363 1.390 1_556 S
C361 H365 0.950 . S
H362 C358 0.950 . S
C363 C361 1.390 1_554 S
C363 C364 1.387 . S
C363 H366 0.950 . S
C364 C363 1.387 . S
C364 C367 1.387 . S
H365 C361 0.950 . S
H366 C363 0.950 . S
C367 C358 1.390 1_554 S
C367 H360 0.950 . S
C367 C364 1.387 . S
C368 C369 1.387 . S
C368 H372 0.950 . S
C368 C377 1.390 . S
C369 C368 1.387 . S
C369 C371 1.387 1_455 S
H370 C377 0.950 . S
C371 C369 1.387 1_655 S
C371 C373 1.390 . S
C371 H375 0.950 . S
H372 C368 0.950 . S
C373 C371 1.390 . S
C373 C374 1.387 1_655 S
C373 H376 0.950 . S
C374 C373 1.387 1_455 S
C374 C377 1.387 . S
H375 C371 0.950 . S
H376 C373 0.950 . S
C377 C368 1.390 . S
C377 H370 0.950 . S
C377 C374 1.387 . S
C199 C19 1.762 . S
C204 N187 1.724 . S
C209 C46 1.462 . S
C214 N160 1.469 1_655 S
C219 C95 0.773 . S
C224 N173 0.773 1_565 S
C229 C10 2.099 . S
C234 N186 2.142 . S
C244 N161 1.496 . S
C239 C55 1.430 . S
C254 N174 1.314 . S
C249 C86 1.181 . S
C259 C59 3.058 . S
C264 N134 3.059 . S
C269 C90 1.831 . S
C274 N148 1.800 . S
C279 C15 1.443 . S
C284 N122 1.527 . S
C294 N135 3.099 . S
C289 C50 3.088 . S
C304 N147 2.151 . S
C299 C99 2.100 . S
C309 C6 1.190 . S
C314 N121 1.201 . S
C324 N151 1.424 . S
C319 C9 1.438 . S
C329 C58 1.478 . S
C334 N125 1.612 . S
C339 C98 1.738 . S
C344 N138 1.768 . S
C354 N177 1.293 . S
C349 C49 1.312 . S
C364 N190 1.390 . S
C359 C89 1.366 . S
C369 C18 1.437 . S
C374 N164 1.511 . S
