# Generated by pormake.
# Topology ssa, (4,4)-cn, num edge types: 1
# Building blocks:
#     Node 0, Type 0, BuildingBlock: KOZSID_clean_sbu_0, # of connection points: 4
#     Node 1, Type 0, BuildingBlock: KOZSID_clean_sbu_0, # of connection points: 4
#     Node 2, Type 0, BuildingBlock: KOZSID_clean_sbu_0, # of connection points: 4
#     Node 3, Type 0, BuildingBlock: KOZSID_clean_sbu_0, # of connection points: 4
#     Node 4, Type 0, BuildingBlock: KOZSID_clean_sbu_0, # of connection points: 4
#     Node 5, Type 0, BuildingBlock: KOZSID_clean_sbu_0, # of connection points: 4
#     Node 6, Type 1, BuildingBlock: MIFKUJ_clean_linker_1, # of connection points: 4
#     Node 7, Type 1, BuildingBlock: MIFKUJ_clean_linker_1, # of connection points: 4
#     Node 8, Type 1, BuildingBlock: MIFKUJ_clean_linker_1, # of connection points: 4
#     Node 9, Type 1, BuildingBlock: MIFKUJ_clean_linker_1, # of connection points: 4
#     Node 10, Type 1, BuildingBlock: MIFKUJ_clean_linker_1, # of connection points: 4
#     Node 11, Type 1, BuildingBlock: MIFKUJ_clean_linker_1, # of connection points: 4
#     Edge 12, Type (0, 1), BuildingBlock: XIVTED_clean_linker_0, # of connection points: 2
#     Edge 13, Type (0, 1), BuildingBlock: XIVTED_clean_linker_0, # of connection points: 2
#     Edge 14, Type (0, 1), BuildingBlock: XIVTED_clean_linker_0, # of connection points: 2
#     Edge 15, Type (0, 1), BuildingBlock: XIVTED_clean_linker_0, # of connection points: 2
#     Edge 16, Type (0, 1), BuildingBlock: XIVTED_clean_linker_0, # of connection points: 2
#     Edge 17, Type (0, 1), BuildingBlock: XIVTED_clean_linker_0, # of connection points: 2
#     Edge 18, Type (0, 1), BuildingBlock: XIVTED_clean_linker_0, # of connection points: 2
#     Edge 19, Type (0, 1), BuildingBlock: XIVTED_clean_linker_0, # of connection points: 2
#     Edge 20, Type (0, 1), BuildingBlock: XIVTED_clean_linker_0, # of connection points: 2
#     Edge 21, Type (0, 1), BuildingBlock: XIVTED_clean_linker_0, # of connection points: 2
#     Edge 22, Type (0, 1), BuildingBlock: XIVTED_clean_linker_0, # of connection points: 2
#     Edge 23, Type (0, 1), BuildingBlock: XIVTED_clean_linker_0, # of connection points: 2
#     Edge 24, Type (0, 1), BuildingBlock: XIVTED_clean_linker_0, # of connection points: 2
#     Edge 25, Type (0, 1), BuildingBlock: XIVTED_clean_linker_0, # of connection points: 2
#     Edge 26, Type (0, 1), BuildingBlock: XIVTED_clean_linker_0, # of connection points: 2
#     Edge 27, Type (0, 1), BuildingBlock: XIVTED_clean_linker_0, # of connection points: 2
#     Edge 28, Type (0, 1), BuildingBlock: XIVTED_clean_linker_0, # of connection points: 2
#     Edge 29, Type (0, 1), BuildingBlock: XIVTED_clean_linker_0, # of connection points: 2
#     Edge 30, Type (0, 1), BuildingBlock: XIVTED_clean_linker_0, # of connection points: 2
#     Edge 31, Type (0, 1), BuildingBlock: XIVTED_clean_linker_0, # of connection points: 2
#     Edge 32, Type (0, 1), BuildingBlock: XIVTED_clean_linker_0, # of connection points: 2
#     Edge 33, Type (0, 1), BuildingBlock: XIVTED_clean_linker_0, # of connection points: 2
#     Edge 34, Type (0, 1), BuildingBlock: XIVTED_clean_linker_0, # of connection points: 2
#     Edge 35, Type (0, 1), BuildingBlock: XIVTED_clean_linker_0, # of connection points: 2
# Relax obj value: 0.005
# Max RMSD: 0.021
# Mean RMSD: 0.012
data_MOF--net-ssa--node1-KOZSID_clean_sbu_0--node2-MIFKUJ_clean_linker_1--edge1-XIVTED_clean_linker_0
_symmetry_space_group_name_H-M    P1
_symmetry_Int_Tables_number       1
_symmetry_cell_setting            triclinic
loop_
_symmetry_equiv_pos_as_xyz
'x, y, z'
_cell_length_a     65.229117
_cell_length_b     66.61472
_cell_length_c     42.549722
_cell_angle_alpha  87.666371
_cell_angle_beta   89.989215
_cell_angle_gamma 122.0927
loop_
_atom_site_label
_atom_site_type_symbol
_atom_site_fract_x
_atom_site_fract_y
_atom_site_fract_z
_atom_type_partial_charge
C0 C 0.96094 0.51281 0.99652 0.0
C1 C 0.94076 0.50931 0.01281 0.0
C2 C 0.93822 0.49616 0.03961 0.0
C3 C 0.95701 0.49256 0.03827 0.0
N4 N 0.97159 0.50283 0.01239 0.0
Co5 Co 0.00124 0.50236 0.00129 0.0
N6 N 0.99632 0.48136 0.03937 0.0
C7 C 0.97771 0.47191 0.06066 0.0
C8 C 0.97905 0.45789 0.08399 0.0
C9 C -0.00012 0.45857 0.07743 0.0
C10 C 0.01017 0.47319 0.05048 0.0
N11 N 0.03124 0.50234 0.99065 0.0
C12 C 0.04221 0.49283 0.00695 0.0
C13 C 0.06365 0.49825 0.99209 0.0
C14 C 0.06631 0.51159 0.96547 0.0
C15 C 0.04657 0.51373 0.96568 0.0
N16 N 0.0058 0.52292 0.96279 0.0
C17 C 0.02367 0.53127 0.94055 0.0
C18 C 0.02131 0.54374 0.91593 0.0
C19 C 0.0005 0.54308 0.92255 0.0
C20 C 0.99141 0.53031 0.95109 0.0
N21 N 0.0211 0.53091 0.02603 0.0
C22 C 0.05009 0.57076 0.06191 0.0
C23 C 0.05691 0.56995 0.03111 0.0
C24 C 0.0422 0.5501 0.01368 0.0
C25 C 0.02839 0.55143 0.07433 0.0
C26 C 0.01437 0.53182 0.05621 0.0
N27 N 0.98137 0.47381 0.97654 0.0
C28 C 0.97574 0.45177 0.93008 0.0
C29 C 0.95221 0.4344 0.94007 0.0
C30 C 0.94369 0.4368 0.96888 0.0
C31 C 0.9585 0.45636 0.98669 0.0
C32 C 0.98984 0.47124 0.94843 0.0
H33 H 0.95093 0.45704 0.00847 0.0
H34 H 0.00739 0.48411 0.93915 0.0
H35 H 0.04835 0.55066 0.99032 0.0
H36 H 0.9983 0.51751 0.06729 0.0
C37 C 0.96027 0.478 0.0595 0.0
C38 C 0.96853 0.52473 0.9654 0.0
C39 C 0.03354 0.47945 0.0371 0.0
C40 C 0.04212 0.52666 0.94308 0.0
H41 H 0.92879 0.51519 0.00568 0.0
H42 H 0.92397 0.48943 0.05746 0.0
H43 H 0.96669 0.44876 0.10386 0.0
H44 H 0.00696 0.4497 0.09126 0.0
H45 H 0.07634 0.49345 0.99986 0.0
H46 H 0.08111 0.5192 0.9483 0.0
H47 H 0.03306 0.55191 0.8953 0.0
H48 H 0.99271 0.55075 0.90768 0.0
H49 H 0.07346 0.58466 0.02037 0.0
H50 H 0.02249 0.55117 0.09823 0.0
H51 H 0.98303 0.4507 0.90778 0.0
H52 H 0.92566 0.42357 0.97775 0.0
C53 C 0.53604 0.01215 0.55413 0.0
C54 C 0.53733 0.00361 0.58392 0.0
C55 C 0.51574 0.98291 0.58987 0.0
C56 C 0.50247 0.98006 0.56363 0.0
N57 N 0.51434 0.99754 0.54103 0.0
Co58 Co 0.50106 0.00119 0.50005 0.0
N59 N 0.4688 0.9713 0.5096 0.0
C60 C 0.46256 0.95647 0.53542 0.0
C61 C 0.43982 0.93658 0.53458 0.0
C62 C 0.43097 0.93866 0.50646 0.0
C63 C 0.44882 0.95998 0.49178 0.0
N64 N 0.48769 0.00513 0.4594 0.0
C65 C 0.46554 0.99125 0.44702 0.0
C66 C 0.46346 0.0011 0.41871 0.0
C67 C 0.48523 0.02156 0.41255 0.0
C68 C 0.49924 0.02321 0.43747 0.0
N69 N 0.53342 0.03078 0.49019 0.0
C70 C 0.54018 0.04488 0.46358 0.0
C71 C 0.56362 0.06378 0.4634 0.0
C72 C 0.57233 0.06183 0.49173 0.0
C73 C 0.55354 0.04184 0.50769 0.0
N74 N 0.512 0.98222 0.47902 0.0
C75 C 0.52477 0.95363 0.44794 0.0
C76 C 0.52884 0.97471 0.43353 0.0
C77 C 0.52232 0.98859 0.44933 0.0
C78 C 0.51483 0.94747 0.47845 0.0
C79 C 0.50877 0.96193 0.49346 0.0
N80 N 0.49008 0.0201 0.52107 0.0
C81 C 0.48901 0.05577 0.52366 0.0
C82 C 0.47616 0.04775 0.55239 0.0
C83 C 0.47002 0.02545 0.56483 0.0
C84 C 0.47705 0.01204 0.54892 0.0
C85 C 0.49574 0.0418 0.50855 0.0
H86 H 0.47184 0.99527 0.55977 0.0
H87 H 0.50575 0.04907 0.48696 0.0
H88 H 0.52548 0.00419 0.43685 0.0
H89 H 0.50128 0.95616 0.51664 0.0
C90 C 0.47866 0.96143 0.5598 0.0
C91 C 0.55547 0.03466 0.53985 0.0
C92 C 0.44623 0.96835 0.46061 0.0
C93 C 0.5236 0.04087 0.4402 0.0
H94 H 0.55216 0.01167 0.59999 0.0
H95 H 0.5102 0.97152 0.61106 0.0
H96 H 0.4309 0.92206 0.55209 0.0
H97 H 0.41347 0.92567 0.49767 0.0
H98 H 0.44791 0.99408 0.40379 0.0
H99 H 0.49036 0.03362 0.3921 0.0
H100 H 0.57305 0.07767 0.44518 0.0
H101 H 0.59033 0.074 0.49997 0.0
H102 H 0.53641 0.98018 0.40981 0.0
H103 H 0.51175 0.93152 0.49082 0.0
H104 H 0.49441 0.07303 0.51316 0.0
H105 H 0.45972 0.01825 0.58677 0.0
C106 C 0.54087 0.53044 0.94896 0.0
C107 C 0.54637 0.545 0.92196 0.0
C108 C 0.52646 0.54609 0.91587 0.0
C109 C 0.51006 0.53234 0.93949 0.0
N110 N 0.51836 0.52269 0.96054 0.0
Co111 Co 0.50058 0.50177 0.99875 0.0
N112 N 0.47077 0.50224 0.98864 0.0
C113 C 0.46749 0.51309 0.96328 0.0
C114 C 0.44506 0.51017 0.96264 0.0
C115 C 0.43335 0.49687 0.98935 0.0
C116 C 0.44947 0.49258 0.0049 0.0
N117 N 0.48286 0.48108 0.03719 0.0
C118 C 0.46057 0.47385 0.04919 0.0
C119 C 0.45568 0.46058 0.07732 0.0
C120 C 0.47555 0.45941 0.08334 0.0
C121 C 0.49144 0.47206 0.05879 0.0
N122 N 0.53034 0.50109 0.00862 0.0
C123 C 0.53328 0.48951 0.03339 0.0
C124 C 0.55521 0.49137 0.03323 0.0
C125 C 0.56698 0.50475 0.00662 0.0
C126 C 0.55153 0.51047 0.99211 0.0
N127 N 0.5126 0.5303 0.02386 0.0
C128 C 0.52842 0.57032 0.0602 0.0
C129 C 0.53124 0.55176 0.07058 0.0
C130 C 0.5232 0.53208 0.05227 0.0
C131 C 0.51768 0.56849 0.03116 0.0
C132 C 0.51012 0.54862 0.0135 0.0
N133 N 0.48857 0.47326 0.97362 0.0
C134 C 0.48177 0.43426 0.9673 0.0
C135 C 0.47305 0.43339 0.93705 0.0
C136 C 0.47198 0.45278 0.92565 0.0
C137 C 0.47986 0.47236 0.94407 0.0
C138 C 0.48921 0.45408 0.98506 0.0
H139 H 0.47884 0.48661 0.93376 0.0
H140 H 0.49564 0.45355 0.00784 0.0
H141 H 0.5257 0.51851 0.06169 0.0
H142 H 0.5021 0.54842 0.99167 0.0
C143 C 0.48633 0.5271 0.94151 0.0
C144 C 0.55738 0.524 0.96207 0.0
C145 C 0.44397 0.48 0.03558 0.0
C146 C 0.5148 0.47645 0.05594 0.0
H147 H 0.56295 0.55364 0.90785 0.0
H148 H 0.52404 0.55541 0.8962 0.0
H149 H 0.43824 0.51731 0.94519 0.0
H150 H 0.41515 0.49131 0.99685 0.0
H151 H 0.43963 0.45292 0.09232 0.0
H152 H 0.4783 0.45079 0.10357 0.0
H153 H 0.56167 0.48351 0.05012 0.0
H154 H 0.58477 0.50936 0.9986 0.0
H155 H 0.53976 0.55239 0.09267 0.0
H156 H 0.51465 0.58213 0.02217 0.0
H157 H 0.48337 0.41993 0.97719 0.0
H158 H 0.46499 0.45293 0.90262 0.0
C159 C 0.95718 0.44862 0.50713 0.0
C160 C 0.93569 0.43208 0.49344 0.0
C161 C 0.93303 0.44328 0.46769 0.0
C162 C 0.95291 0.46593 0.4671 0.0
N163 N 0.96819 0.46987 0.49089 0.0
Co164 Co 0.99934 0.5003 0.49871 0.0
N165 N 0.99385 0.51745 0.46311 0.0
C166 C 0.97403 0.50866 0.44515 0.0
C167 C 0.97483 0.5249 0.42356 0.0
C168 C 0.99652 0.54531 0.42786 0.0
C169 C 0.00786 0.5402 0.45169 0.0
N170 N 0.03112 0.53039 0.50547 0.0
C171 C 0.04238 0.55144 0.48868 0.0
C172 C 0.06535 0.56698 0.49979 0.0
C173 C 0.06862 0.55545 0.52458 0.0
C174 C 0.04771 0.53354 0.52701 0.0
N175 N 0.00417 0.4835 0.53544 0.0
C176 C 0.02302 0.49279 0.55511 0.0
C177 C 0.02091 0.47728 0.57892 0.0
C178 C 0.99919 0.45694 0.57456 0.0
C179 C 0.98928 0.46129 0.54825 0.0
N180 N 0.01624 0.49074 0.46975 0.0
C181 C 0.04076 0.47806 0.42834 0.0
C182 C 0.04719 0.48205 0.45976 0.0
C183 C 0.03493 0.4885 0.47984 0.0
C184 C 0.02176 0.48032 0.41797 0.0
C185 C 0.0097 0.4864 0.43896 0.0
N186 N 0.98245 0.50982 0.52763 0.0
C187 C 0.98154 0.52836 0.57491 0.0
C188 C 0.9576 0.52158 0.5698 0.0
C189 C 0.94648 0.50924 0.54299 0.0
C190 C 0.95916 0.50373 0.52229 0.0
C191 C 0.9935 0.52221 0.55378 0.0
H192 H 0.94965 0.4944 0.50224 0.0
H193 H 0.01158 0.52743 0.55928 0.0
H194 H 0.04108 0.49175 0.50332 0.0
H195 H 0.99518 0.48754 0.42963 0.0
C196 C 0.95605 0.48458 0.4472 0.0
C197 C 0.96559 0.44381 0.53659 0.0
C198 C 0.03229 0.55727 0.46171 0.0
C199 C 0.04288 0.51581 0.54978 0.0
H200 H 0.92283 0.414 0.50168 0.0
H201 H 0.91787 0.43608 0.45207 0.0
H202 H 0.96152 0.52209 0.40623 0.0
H203 H 0.00341 0.56194 0.41453 0.0
H204 H 0.07857 0.58475 0.49081 0.0
H205 H 0.08442 0.56219 0.53901 0.0
H206 H 0.03367 0.48038 0.59721 0.0
H207 H 0.99147 0.44073 0.58914 0.0
H208 H 0.06201 0.48074 0.46869 0.0
H209 H 0.01606 0.47717 0.39381 0.0
H210 H 0.99081 0.53785 0.59553 0.0
H211 H 0.92804 0.50394 0.53786 0.0
C212 C 0.46616 0.9896 0.05822 0.0
C213 C 0.46561 0.99857 0.08691 0.0
C214 C 0.48715 0.01953 0.08899 0.0
C215 C 0.49963 0.02209 0.06171 0.0
N216 N 0.48729 0.00416 0.04208 0.0
Co217 Co 0.49943 -2e-05 0.00097 0.0
N218 N 0.53125 0.03066 0.00436 0.0
C219 C 0.53793 0.04615 0.02752 0.0
C220 C 0.56083 0.06575 0.0234 0.0
C221 C 0.56918 0.06284 0.99569 0.0
C222 C 0.55074 0.04158 0.98434 0.0
N223 N 0.51193 0.99527 0.96055 0.0
C224 C 0.53336 0.00943 0.94479 0.0
C225 C 0.53444 0.99952 0.91719 0.0
C226 C 0.51306 0.97835 0.91556 0.0
C227 C 0.50011 0.97654 0.942 0.0
N228 N 0.46726 0.96978 0.99697 0.0
C229 C 0.45988 0.95526 0.9726 0.0
C230 C 0.4366 0.93618 0.97611 0.0
C231 C 0.42863 0.93856 0.00451 0.0
C232 C 0.44768 0.95896 0.01681 0.0
N233 N 0.4868 0.01749 0.97776 0.0
C234 C 0.47076 0.04373 0.94386 0.0
C235 C 0.46994 0.02437 0.93091 0.0
C236 C 0.47776 0.0115 0.9482 0.0
C237 C 0.47925 0.04932 0.97441 0.0
C238 C 0.4873 0.03626 0.99063 0.0
N239 N 0.51208 0.98252 0.02415 0.0
C240 C 0.51393 0.94742 0.03259 0.0
C241 C 0.52914 0.95727 0.05803 0.0
C242 C 0.53586 0.98008 0.06596 0.0
C243 C 0.52717 0.99225 0.04891 0.0
C244 C 0.50573 0.96026 0.01608 0.0
H245 H 0.53287 0.00946 0.05635 0.0
H246 H 0.49411 0.95171 0.99704 0.0
H247 H 0.47658 0.99697 0.93692 0.0
H248 H 0.49401 0.04186 0.01347 0.0
C249 C 0.52278 0.04125 0.05363 0.0
C250 C 0.4465 0.96687 0.0478 0.0
C251 C 0.5525 0.03285 0.95415 0.0
C252 C 0.47592 0.95886 0.94819 0.0
H253 H 0.45127 0.99068 0.10471 0.0
H254 H 0.49309 0.03141 0.10821 0.0
H255 H 0.57036 0.08034 0.03883 0.0
H256 H 0.58687 0.07503 0.985 0.0
H257 H 0.54881 0.00702 0.89948 0.0
H258 H 0.50727 0.96617 0.89671 0.0
H259 H 0.42682 0.92191 0.96029 0.0
H260 H 0.41094 0.92644 0.01524 0.0
H261 H 0.46382 0.01937 0.90723 0.0
H262 H 0.47977 0.06376 0.98596 0.0
H263 H 0.50792 0.92966 0.02575 0.0
H264 H 0.54791 0.98865 0.08517 0.0
C265 C 0.51247 0.55226 0.49031 0.0
C266 C 0.50719 0.56794 0.50307 0.0
C267 C 0.49275 0.55655 0.52906 0.0
C268 C 0.48986 0.53462 0.53058 0.0
N269 N 0.50179 0.53132 0.50731 0.0
Co270 Co 0.50112 0.50144 0.49944 0.0
N271 N 0.47905 0.48441 0.53702 0.0
C272 C 0.47037 0.4934 0.55737 0.0
C273 C 0.4567 0.47791 0.5818 0.0
C274 C 0.45688 0.45788 0.5771 0.0
C275 C 0.4706 0.4623 0.5498 0.0
N276 N 0.50001 0.47145 0.4911 0.0
C277 C 0.48892 0.45036 0.50768 0.0
C278 C 0.49228 0.43392 0.49336 0.0
C279 C 0.5065 0.44519 0.46715 0.0
C280 C 0.51082 0.4677 0.46684 0.0
N281 N 0.52361 0.51857 0.46231 0.0
C282 C 0.53329 0.50995 0.44294 0.0
C283 C 0.54846 0.52603 0.41989 0.0
C284 C 0.54833 0.54608 0.42459 0.0
C285 C 0.53285 0.54097 0.45022 0.0
N286 N 0.52942 0.51165 0.52667 0.0
C287 C 0.56812 0.52358 0.56696 0.0
C288 C 0.5662 0.51277 0.53879 0.0
C289 C 0.547 0.5072 0.51903 0.0
C290 C 0.55073 0.52888 0.57433 0.0
C291 C 0.53159 0.52268 0.55409 0.0
N292 N 0.47278 0.49115 0.47227 0.0
C293 C 0.45241 0.47578 0.42347 0.0
C294 C 0.43249 0.47657 0.43369 0.0
C295 C 0.43319 0.48486 0.46358 0.0
C296 C 0.45324 0.49186 0.48233 0.0
C297 C 0.47222 0.48321 0.44287 0.0
H298 H 0.45254 0.49792 0.5048 0.0
H299 H 0.48685 0.48238 0.43351 0.0
H300 H 0.54667 0.49908 0.49787 0.0
H301 H 0.51861 0.52669 0.56142 0.0
C302 C 0.47579 0.51663 0.55327 0.0
C303 C 0.5269 0.55772 0.4614 0.0
C304 C 0.47605 0.4454 0.53777 0.0
C305 C 0.52646 0.48621 0.44561 0.0
H306 H 0.51282 0.58565 0.49432 0.0
H307 H 0.48495 0.56331 0.54468 0.0
H308 H 0.44802 0.48098 0.60109 0.0
H309 H 0.44824 0.44202 0.5924 0.0
H310 H 0.4856 0.41581 0.50145 0.0
H311 H 0.51341 0.43804 0.45077 0.0
H312 H 0.55803 0.52331 0.40141 0.0
H313 H 0.55816 0.56249 0.4104 0.0
H314 H 0.57952 0.50865 0.53195 0.0
H315 H 0.55147 0.53717 0.59605 0.0
H316 H 0.45273 0.46927 0.40069 0.0
H317 H 0.41851 0.48632 0.47246 0.0
H318 H 0.1642 0.40848 0.17168 0.0
H319 H 0.13416 0.4127 0.14252 0.0
H320 H 0.16534 0.48341 0.17593 0.0
H321 H 0.1947 0.47874 0.20544 0.0
H322 H 0.21829 0.44068 0.16847 0.0
H323 H 0.1499 0.40874 0.24761 0.0
H324 H 0.11974 0.41272 0.27669 0.0
H325 H 0.17644 0.48155 0.30555 0.0
H326 H 0.20643 0.47735 0.27695 0.0
H327 H 0.26031 0.47048 0.29082 0.0
H328 H 0.29187 0.47217 0.32347 0.0
H329 H 0.28789 0.41517 0.27343 0.0
H330 H 0.25543 0.41276 0.24143 0.0
H331 H 0.21632 0.44027 0.28508 0.0
H332 H 0.28376 0.47669 0.21505 0.0
H333 H 0.31884 0.48265 0.18581 0.0
H334 H 0.27222 0.4198 0.13481 0.0
H335 H 0.23723 0.41335 0.16536 0.0
C336 C 0.18144 0.4432 0.1909 0.0
C337 C 0.16449 0.42487 0.17257 0.0
C338 C 0.14743 0.42736 0.15588 0.0
C339 C 0.14719 0.44834 0.15706 0.0
C340 C 0.1646 0.46682 0.17502 0.0
C341 C 0.18151 0.46425 0.19176 0.0
C342 C 0.19897 0.44045 0.20961 0.0
C343 C 0.21765 0.44 0.19399 0.0
C344 C 0.19868 0.44073 0.24274 0.0
C345 C 0.18033 0.44275 0.26026 0.0
C346 C 0.15576 0.42463 0.26028 0.0
C347 C 0.13863 0.42689 0.27688 0.0
C348 C 0.14583 0.44748 0.29319 0.0
C349 C 0.17042 0.46561 0.29292 0.0
C350 C 0.18754 0.46317 0.27681 0.0
C351 C 0.25548 0.44155 0.26351 0.0
C352 C 0.26596 0.45811 0.28702 0.0
C353 C 0.28402 0.45911 0.30566 0.0
C354 C 0.29222 0.44377 0.30095 0.0
C355 C 0.28194 0.42728 0.27733 0.0
C356 C 0.26349 0.42598 0.25901 0.0
C357 C 0.23607 0.44064 0.24412 0.0
C358 C 0.2169 0.44037 0.25958 0.0
C359 C 0.23665 0.44083 0.21077 0.0
C360 C 0.2579 0.44434 0.19278 0.0
C361 C 0.28111 0.46399 0.19789 0.0
C362 C 0.30114 0.46754 0.18083 0.0
C363 C 0.29838 0.45173 0.15787 0.0
C364 C 0.27506 0.43214 0.15261 0.0
C365 C 0.25501 0.42853 0.16985 0.0
H366 H 0.71804 0.20146 0.77864 0.0
H367 H 0.68283 0.17158 0.80974 0.0
H368 H 0.7092 0.12416 0.80648 0.0
H369 H 0.74344 0.15377 0.77306 0.0
H370 H 0.77124 0.21694 0.79708 0.0
H371 H 0.71114 0.19014 0.7191 0.0
H372 H 0.67755 0.16114 0.68866 0.0
H373 H 0.7232 0.13854 0.65073 0.0
H374 H 0.75654 0.16698 0.68283 0.0
H375 H 0.82958 0.23981 0.68323 0.0
H376 H 0.86093 0.27508 0.65297 0.0
H377 H 0.83246 0.31553 0.68897 0.0
H378 H 0.80171 0.28046 0.71955 0.0
H379 H 0.77806 0.21747 0.68085 0.0
H380 H 0.84249 0.25921 0.75485 0.0
H381 H 0.87111 0.29373 0.7839 0.0
H382 H 0.81123 0.29297 0.82894 0.0
H383 H 0.78297 0.25966 0.79836 0.0
C384 C 0.73312 0.17967 0.77353 0.0
C385 C 0.716 0.18449 0.78441 0.0
C386 C 0.69601 0.16741 0.80255 0.0
C387 C 0.69316 0.14541 0.81119 0.0
C388 C 0.71048 0.14068 0.80004 0.0
C389 C 0.73018 0.15762 0.78112 0.0
C390 C 0.7546 0.1983 0.75539 0.0
C391 C 0.77291 0.21713 0.77167 0.0
C392 C 0.75647 0.19826 0.72235 0.0
C393 C 0.73616 0.18031 0.70386 0.0
C394 C 0.71378 0.17858 0.70481 0.0
C395 C 0.69468 0.16223 0.68691 0.0
C396 C 0.69763 0.1475 0.6671 0.0
C397 C 0.72017 0.14936 0.66603 0.0
C398 C 0.73929 0.16569 0.68419 0.0
C399 C 0.81358 0.25766 0.70388 0.0
C400 C 0.8302 0.25633 0.68455 0.0
C401 C 0.84801 0.27647 0.66721 0.0
C402 C 0.84932 0.2982 0.66869 0.0
C403 C 0.83235 0.29926 0.68779 0.0
C404 C 0.81467 0.2792 0.70518 0.0
C405 C 0.79479 0.23652 0.72249 0.0
C406 C 0.77693 0.21708 0.70634 0.0
C407 C 0.79284 0.23652 0.75566 0.0
C408 C 0.81053 0.25695 0.77406 0.0
C409 C 0.83556 0.2667 0.77066 0.0
C410 C 0.85192 0.28629 0.78763 0.0
C411 C 0.84355 0.29632 0.8087 0.0
C412 C 0.81844 0.28614 0.81247 0.0
C413 C 0.80217 0.26681 0.79526 0.0
H414 H 0.6004 0.83046 0.32027 0.0
H415 H 0.59402 0.85763 0.34994 0.0
H416 H 0.5258 0.83191 0.30439 0.0
H417 H 0.53217 0.80475 0.27516 0.0
H418 H 0.57019 0.77999 0.31967 0.0
H419 H 0.59983 0.84832 0.24682 0.0
H420 H 0.59707 0.87832 0.21507 0.0
H421 H 0.53657 0.82275 0.16647 0.0
H422 H 0.53904 0.79294 0.19848 0.0
H423 H 0.53844 0.73922 0.19942 0.0
H424 H 0.53473 0.70739 0.16865 0.0
H425 H 0.59364 0.71027 0.21898 0.0
H426 H 0.59793 0.74283 0.24916 0.0
H427 H 0.57169 0.78269 0.20298 0.0
H428 H 0.53185 0.71708 0.27895 0.0
H429 H 0.52649 0.68262 0.30919 0.0
H430 H 0.59659 0.7269 0.34998 0.0
H431 H 0.60146 0.76146 0.32012 0.0
C432 C 0.56686 0.81576 0.29537 0.0
C433 C 0.5841 0.83073 0.31674 0.0
C434 C 0.5805 0.84631 0.33348 0.0
C435 C 0.55941 0.84689 0.32947 0.0
C436 C 0.54212 0.83173 0.30819 0.0
C437 C 0.54581 0.81633 0.29132 0.0
C438 C 0.57048 0.7992 0.2775 0.0
C439 C 0.57102 0.78085 0.29414 0.0
C440 C 0.5708 0.79989 0.24422 0.0
C441 C 0.56957 0.81836 0.22514 0.0
C442 C 0.58585 0.84261 0.22952 0.0
C443 C 0.5843 0.85972 0.21136 0.0
C444 C 0.5667 0.85283 0.18821 0.0
C445 C 0.55056 0.82857 0.18379 0.0
C446 C 0.55194 0.81153 0.2021 0.0
C447 C 0.5684 0.74343 0.22678 0.0
C448 C 0.55076 0.73321 0.20371 0.0
C449 C 0.54862 0.715 0.18613 0.0
C450 C 0.56392 0.70642 0.19142 0.0
C451 C 0.58148 0.71645 0.21464 0.0
C452 C 0.58389 0.73499 0.23194 0.0
C453 C 0.57042 0.76296 0.24504 0.0
C454 C 0.57123 0.78202 0.22851 0.0
C455 C 0.57036 0.76241 0.27833 0.0
C456 C 0.56715 0.74172 0.29713 0.0
C457 C 0.54606 0.71931 0.29439 0.0
C458 C 0.54311 0.69961 0.31155 0.0
C459 C 0.56121 0.70192 0.33184 0.0
C460 C 0.5822 0.72452 0.33483 0.0
C461 C 0.58507 0.74427 0.31773 0.0
H462 H 0.74048 0.53061 0.71585 0.0
H463 H 0.70614 0.5246 0.68579 0.0
H464 H 0.71029 0.58427 0.72897 0.0
H465 H 0.74574 0.59104 0.7578 0.0
H466 H 0.7852 0.5641 0.71622 0.0
H467 H 0.72076 0.52648 0.7938 0.0
H468 H 0.68597 0.52127 0.82307 0.0
H469 H 0.73097 0.59144 0.85834 0.0
H470 H 0.76591 0.59618 0.82947 0.0
H471 H 0.83557 0.59374 0.83461 0.0
H472 H 0.86369 0.58784 0.86577 0.0
H473 H 0.8392 0.52211 0.82043 0.0
H474 H 0.81049 0.52759 0.79068 0.0
H475 H 0.78562 0.56564 0.83268 0.0
H476 H 0.85362 0.59117 0.75871 0.0
H477 H 0.88205 0.58444 0.7305 0.0
H478 H 0.82193 0.52475 0.68675 0.0
H479 H 0.79379 0.53083 0.71595 0.0
C480 C 0.74566 0.56119 0.73926 0.0
C481 C 0.7342 0.54259 0.71865 0.0
C482 C 0.7143 0.53897 0.70176 0.0
C483 C 0.70519 0.55375 0.70524 0.0
C484 C 0.71688 0.57262 0.7256 0.0
C485 C 0.73701 0.57637 0.74234 0.0
C486 C 0.76636 0.56417 0.7577 0.0
C487 C 0.78533 0.56448 0.7417 0.0
C488 C 0.76666 0.56489 0.79089 0.0
C489 C 0.74581 0.56181 0.80925 0.0
C490 C 0.72309 0.54074 0.80782 0.0
C491 C 0.70318 0.53787 0.82444 0.0
C492 C 0.70556 0.55603 0.84287 0.0
C493 C 0.72851 0.57701 0.84462 0.0
C494 C 0.74848 0.57981 0.82808 0.0
C495 C 0.82121 0.5613 0.80999 0.0
C496 C 0.83625 0.57804 0.83155 0.0
C497 C 0.85245 0.57473 0.84912 0.0
C498 C 0.85379 0.55453 0.84555 0.0
C499 C 0.83849 0.53772 0.8241 0.0
C500 C 0.82225 0.54097 0.80675 0.0
C501 C 0.80404 0.5647 0.79121 0.0
C502 C 0.78588 0.56589 0.80717 0.0
C503 C 0.80386 0.56417 0.75796 0.0
C504 C 0.82154 0.56138 0.73968 0.0
C505 C 0.84662 0.57657 0.74315 0.0
C506 C 0.86285 0.57281 0.72682 0.0
C507 C 0.85427 0.55389 0.7066 0.0
C508 C 0.82918 0.53916 0.70264 0.0
C509 C 0.81304 0.54282 0.71903 0.0
H510 H 0.24624 0.83379 0.20141 0.0
H511 H 0.28133 0.86226 0.16843 0.0
H512 H 0.32659 0.84581 0.22379 0.0
H513 H 0.29124 0.81674 0.25587 0.0
H514 H 0.22713 0.78632 0.20846 0.0
H515 H 0.26634 0.85346 0.27453 0.0
H516 H 0.30063 0.88369 0.30369 0.0
H517 H 0.29767 0.82882 0.36464 0.0
H518 H 0.26449 0.79856 0.33449 0.0
H519 H 0.20857 0.74288 0.33409 0.0
H520 H 0.17615 0.70875 0.3645 0.0
H521 H 0.12313 0.70962 0.30479 0.0
H522 H 0.15554 0.74458 0.27517 0.0
H523 H 0.22161 0.78574 0.32472 0.0
H524 H 0.19755 0.72224 0.25492 0.0
H525 H 0.17034 0.68854 0.22343 0.0
H526 H 0.14938 0.73195 0.17226 0.0
H527 H 0.17661 0.76561 0.20395 0.0
C528 C 0.26618 0.82333 0.23125 0.0
C529 C 0.26376 0.8364 0.20646 0.0
C530 C 0.28387 0.8528 0.1878 0.0
C531 C 0.30678 0.85634 0.1935 0.0
C532 C 0.30916 0.84333 0.21856 0.0
C533 C 0.28903 0.82689 0.23713 0.0
C534 C 0.24457 0.8051 0.24992 0.0
C535 C 0.22573 0.78644 0.23386 0.0
C536 C 0.24323 0.80487 0.28319 0.0
C537 C 0.26297 0.8236 0.30188 0.0
C538 C 0.27323 0.84786 0.29388 0.0
C539 C 0.2927 0.86513 0.31062 0.0
C540 C 0.30168 0.85848 0.3363 0.0
C541 C 0.29092 0.83435 0.34502 0.0
C542 C 0.27191 0.81708 0.32783 0.0
C543 C 0.18459 0.74622 0.30206 0.0
C544 C 0.18997 0.73601 0.32775 0.0
C545 C 0.17147 0.7165 0.3451 0.0
C546 C 0.14723 0.7066 0.33687 0.0
C547 C 0.14174 0.71686 0.31137 0.0
C548 C 0.16025 0.73672 0.29437 0.0
C549 C 0.20458 0.76663 0.28334 0.0
C550 C 0.22296 0.7858 0.29931 0.0
C551 C 0.20612 0.76694 0.25013 0.0
C552 C 0.18891 0.74633 0.23191 0.0
C553 C 0.18693 0.72442 0.2371 0.0
C554 C 0.17153 0.70526 0.21897 0.0
C555 C 0.15776 0.70764 0.19539 0.0
C556 C 0.1596 0.72955 0.19047 0.0
C557 C 0.1752 0.74879 0.2084 0.0
H558 H 0.463 0.26275 0.80232 0.0
H559 H 0.46594 0.29407 0.83346 0.0
H560 H 0.40898 0.29273 0.78012 0.0
H561 H 0.40534 0.26056 0.74956 0.0
H562 H 0.43068 0.21997 0.79719 0.0
H563 H 0.4702 0.28655 0.72544 0.0
H564 H 0.47677 0.32127 0.69475 0.0
H565 H 0.41218 0.27652 0.6429 0.0
H566 H 0.40514 0.2419 0.67483 0.0
H567 H 0.40329 0.17411 0.67787 0.0
H568 H 0.40862 0.14598 0.64901 0.0
H569 H 0.47445 0.16761 0.69875 0.0
H570 H 0.4691 0.19563 0.72721 0.0
H571 H 0.4334 0.22308 0.68053 0.0
H572 H 0.4005 0.15467 0.75894 0.0
H573 H 0.40334 0.12545 0.79253 0.0
H574 H 0.47057 0.182 0.82871 0.0
H575 H 0.46709 0.21086 0.79616 0.0
C576 C 0.43398 0.25924 0.77346 0.0
C577 C 0.4509 0.26894 0.79746 0.0
C578 C 0.45261 0.28686 0.81525 0.0
C579 C 0.43764 0.29573 0.80922 0.0
C580 C 0.42083 0.28626 0.78506 0.0
C581 C 0.41881 0.26796 0.76756 0.0
C582 C 0.43235 0.23992 0.75508 0.0
C583 C 0.4313 0.22076 0.77166 0.0
C584 C 0.43299 0.2407 0.72174 0.0
C585 C 0.43696 0.26169 0.70277 0.0
C586 C 0.45728 0.28425 0.70774 0.0
C587 C 0.46116 0.30407 0.68989 0.0
C588 C 0.44502 0.30171 0.6663 0.0
C589 C 0.42477 0.27902 0.66117 0.0
C590 C 0.42083 0.25919 0.6792 0.0
C591 C 0.43552 0.18661 0.70515 0.0
C592 C 0.41884 0.17275 0.68251 0.0
C593 C 0.42195 0.15675 0.66599 0.0
C594 C 0.44183 0.1544 0.67182 0.0
C595 C 0.45867 0.1686 0.69419 0.0
C596 C 0.45562 0.18463 0.71051 0.0
C597 C 0.43236 0.2036 0.72279 0.0
C598 C 0.43225 0.22215 0.70604 0.0
C599 C 0.43184 0.20295 0.75603 0.0
C600 C 0.4335 0.18489 0.7753 0.0
C601 C 0.41579 0.16064 0.77419 0.0
C602 C 0.41751 0.144 0.79328 0.0
C603 C 0.43705 0.15138 0.81363 0.0
C604 C 0.45494 0.17569 0.81405 0.0
C605 C 0.45307 0.19224 0.79529 0.0
H606 H 0.05535 0.49795 0.09203 0.0
H607 H 0.12931 0.43331 0.0983 0.0
H608 H 0.04716 0.4482 0.02399 0.0
H609 H 0.12344 0.4697 0.1762 0.0
H610 H 0.10045 0.4395 0.06969 0.0
H611 H 0.0819 0.48913 0.12219 0.0
C612 C 0.0592 0.48513 0.08358 0.0
C613 C 0.04935 0.47386 0.05556 0.0
C614 C 0.10543 0.44604 0.09309 0.0
C615 C 0.07962 0.46372 0.08959 0.0
C616 C 0.12183 0.44242 0.10953 0.0
C617 C 0.12899 0.45113 0.13969 0.0
C618 C 0.09622 0.45859 0.1068 0.0
C619 C 0.11888 0.46309 0.15279 0.0
C620 C 0.07427 0.48007 0.10072 0.0
C621 C 0.05468 0.45734 0.04544 0.0
N622 N 0.10314 0.46656 0.13622 0.0
N623 N 0.06961 0.45285 0.06237 0.0
H624 H 0.56635 0.0772 0.56058 0.0
H625 H 0.68396 0.10206 0.6531 0.0
H626 H 0.59222 0.02967 0.56118 0.0
H627 H 0.66493 0.15443 0.63591 0.0
H628 H 0.64975 0.07449 0.62161 0.0
H629 H 0.6014 0.10488 0.59088 0.0
C630 C 0.57949 0.07267 0.56724 0.0
C631 C 0.57651 0.05122 0.55869 0.0
C632 C 0.65312 0.09204 0.62473 0.0
C633 C 0.61655 0.0826 0.59323 0.0
C634 C 0.67273 0.10785 0.64257 0.0
C635 C 0.67732 0.13061 0.64739 0.0
C636 C 0.63791 0.09899 0.6117 0.0
C637 C 0.66188 0.13695 0.63345 0.0
C638 C 0.59947 0.08842 0.58444 0.0
C639 C 0.59394 0.04604 0.56765 0.0
N640 N 0.64288 0.12123 0.61638 0.0
N641 N 0.61323 0.0616 0.58457 0.0
H642 H 0.54836 0.61693 0.04005 0.0
H643 H 0.56155 0.66574 0.21227 0.0
H644 H 0.5264 0.57159 0.12471 0.0
H645 H 0.56047 0.70311 0.12771 0.0
H646 H 0.55498 0.63294 0.18052 0.0
H647 H 0.55887 0.65054 0.07201 0.0
C648 C 0.54565 0.61396 0.06533 0.0
C649 C 0.53621 0.59123 0.07959 0.0
C650 C 0.55628 0.64837 0.16896 0.0
C651 C 0.54875 0.62989 0.11641 0.0
C652 C 0.56016 0.66711 0.187 0.0
C653 C 0.56141 0.68706 0.17256 0.0
C654 C 0.55396 0.64978 0.13624 0.0
C655 C 0.55933 0.68791 0.13978 0.0
C656 C 0.5518 0.63323 0.08357 0.0
C657 C 0.5338 0.58875 0.1126 0.0
N658 N 0.55572 0.66955 0.12273 0.0
N659 N 0.53998 0.60783 0.12987 0.0
H660 H 0.97238 0.56362 0.59726 0.0
H661 H 0.84849 0.51093 0.69615 0.0
H662 H 0.91196 0.4914 0.59388 0.0
H663 H 0.89867 0.58615 0.67863 0.0
H664 H 0.87469 0.50322 0.66496 0.0
H665 H 0.94862 0.5719 0.63331 0.0
C666 C 0.95419 0.5495 0.6043 0.0
C667 C 0.94402 0.52684 0.59245 0.0
C668 C 0.88 0.52143 0.66796 0.0
C669 C 0.91691 0.53611 0.63357 0.0
C670 C 0.86499 0.52586 0.68567 0.0
C671 C 0.87116 0.54924 0.68964 0.0
C672 C 0.90151 0.54048 0.65422 0.0
C673 C 0.8932 0.56785 0.67627 0.0
C674 C 0.94063 0.55425 0.62469 0.0
C675 C 0.92035 0.50919 0.60214 0.0
N676 N 0.90754 0.56307 0.65901 0.0
N677 N 0.90763 0.51419 0.62213 0.0
H678 H 0.4098 0.97227 0.06675 0.0
H679 H 0.3424 0.85026 0.17102 0.0
H680 H 0.43659 0.92569 0.07752 0.0
H681 H 0.31927 0.90017 0.1684 0.0
H682 H 0.37659 0.87737 0.13609 0.0
H683 H 0.37577 0.94565 0.10292 0.0
C684 C 0.40841 0.95639 0.07688 0.0
C685 C 0.42584 0.95103 0.06952 0.0
C686 C 0.36409 0.88244 0.14321 0.0
C687 C 0.38723 0.92058 0.11048 0.0
C688 C 0.34462 0.86703 0.16335 0.0
C689 C 0.32793 0.87295 0.17276 0.0
C690 C 0.36691 0.90397 0.13226 0.0
C691 C 0.33151 0.89473 0.16147 0.0
C692 C 0.38909 0.94124 0.09745 0.0
C693 C 0.42341 0.9303 0.08285 0.0
N694 N 0.35059 0.90943 0.1418 0.0
N695 N 0.40442 0.91578 0.10273 0.0
H696 H 0.43184 0.40554 0.55248 0.0
H697 H 0.48842 0.33902 0.64284 0.0
H698 H 0.50817 0.43719 0.56662 0.0
H699 H 0.41195 0.31257 0.64544 0.0
H700 H 0.49573 0.37401 0.61217 0.0
H701 H 0.42376 0.37014 0.58387 0.0
C702 C 0.44682 0.40497 0.56243 0.0
C703 C 0.47064 0.42415 0.55737 0.0
C704 C 0.47734 0.36059 0.61949 0.0
C705 C 0.46175 0.38395 0.59265 0.0
C706 C 0.47315 0.34062 0.63716 0.0
C707 C 0.44953 0.32284 0.64696 0.0
C708 C 0.45778 0.36283 0.6113 0.0
C709 C 0.43043 0.32569 0.63816 0.0
C710 C 0.44227 0.38486 0.58022 0.0
C711 C 0.48956 0.42267 0.57025 0.0
N712 N 0.43497 0.34531 0.62084 0.0
N713 N 0.48472 0.40288 0.58728 0.0
H714 H 0.49688 0.90533 0.44604 0.0
H715 H 0.59146 0.8938 0.34054 0.0
H716 H 0.56485 0.96587 0.41131 0.0
H717 H 0.5177 0.83656 0.35979 0.0
H718 H 0.5836 0.92005 0.36993 0.0
H719 H 0.50576 0.87941 0.41811 0.0
C720 C 0.51377 0.91316 0.43269 0.0
C721 C 0.53018 0.93781 0.43107 0.0
C722 C 0.56915 0.90175 0.36768 0.0
C723 C 0.54041 0.9082 0.3988 0.0
C724 C 0.57367 0.88674 0.3511 0.0
C725 C 0.55518 0.86299 0.34764 0.0
C726 C 0.54605 0.89286 0.38118 0.0
C727 C 0.53238 0.85481 0.36154 0.0
C728 C 0.51876 0.89836 0.41657 0.0
C729 C 0.55161 0.94699 0.41298 0.0
N730 N 0.52849 0.8697 0.37773 0.0
N731 N 0.55615 0.93218 0.39763 0.0
H732 H 0.55938 0.50594 0.90682 0.0
H733 H 0.70349 0.5704 0.90191 0.0
H734 H 0.60485 0.55514 0.97556 0.0
H735 H 0.65869 0.53461 0.82334 0.0
H736 H 0.66774 0.56399 0.93027 0.0
H737 H 0.59564 0.51488 0.87686 0.0
C738 C 0.5771 0.51868 0.91546 0.0
C739 C 0.57933 0.52975 0.94362 0.0
C740 C 0.66578 0.55762 0.90678 0.0
C741 C 0.62077 0.54001 0.90984 0.0
C742 C 0.68621 0.56138 0.89048 0.0
C743 C 0.68415 0.55294 0.86018 0.0
C744 C 0.64305 0.5452 0.89281 0.0
C745 C 0.66115 0.54103 0.84685 0.0
C746 C 0.59775 0.5238 0.89844 0.0
C747 C 0.60255 0.54616 0.95399 0.0
N748 N 0.64152 0.53744 0.86328 0.0
N749 N 0.62243 0.55071 0.93719 0.0
H750 H 0.05036 0.60241 0.48022 0.0
H751 H 0.11187 0.66502 0.3132 0.0
H752 H 0.04821 0.56322 0.40087 0.0
H753 H 0.13898 0.69969 0.40042 0.0
H754 H 0.08188 0.62869 0.34318 0.0
H755 H 0.07681 0.63964 0.44927 0.0
C756 C 0.05547 0.60176 0.45624 0.0
C757 C 0.04747 0.57993 0.44303 0.0
C758 C 0.09432 0.64432 0.35569 0.0
C759 C 0.07704 0.62204 0.40752 0.0
C760 C 0.11127 0.66502 0.33865 0.0
C761 C 0.12789 0.68523 0.35447 0.0
C762 C 0.09379 0.64403 0.3887 0.0
C763 C 0.12655 0.68435 0.38745 0.0
C764 C 0.07047 0.62288 0.43865 0.0
C765 C 0.05419 0.57981 0.41179 0.0
N766 N 0.10975 0.66406 0.40352 0.0
N767 N 0.0686 0.60058 0.39502 0.0
H768 H 0.43489 0.02945 0.90003 0.0
H769 H 0.45302 0.15691 0.87405 0.0
H770 H 0.49027 0.09175 0.94522 0.0
H771 H 0.42536 0.10621 0.80115 0.0
H772 H 0.45961 0.12993 0.90644 0.0
H773 H 0.42466 0.05453 0.86893 0.0
C774 C 0.44496 0.04833 0.90345 0.0
C775 C 0.46354 0.05841 0.92543 0.0
C776 C 0.45205 0.12471 0.88337 0.0
C777 C 0.45137 0.08696 0.89046 0.0
C778 C 0.44838 0.14014 0.86475 0.0
C779 C 0.43904 0.13406 0.83449 0.0
C780 C 0.44603 0.10283 0.87196 0.0
C781 C 0.43256 0.11166 0.8243 0.0
C782 C 0.43898 0.06256 0.88578 0.0
C783 C 0.47551 0.08297 0.92916 0.0
N784 N 0.43626 0.09685 0.84298 0.0
N785 N 0.46917 0.09635 0.91195 0.0
H786 H 0.43216 0.48257 0.36931 0.0
H787 H 0.29432 0.44379 0.36489 0.0
H788 H 0.38437 0.45369 0.45132 0.0
H789 H 0.33418 0.44749 0.28171 0.0
H790 H 0.32789 0.44942 0.39711 0.0
H791 H 0.39726 0.47161 0.33669 0.0
C792 C 0.41436 0.4737 0.38049 0.0
C793 C 0.41133 0.4692 0.41327 0.0
C794 C 0.32923 0.4488 0.37184 0.0
C795 C 0.37135 0.45708 0.37597 0.0
C796 C 0.31015 0.44569 0.35349 0.0
C797 C 0.31161 0.44528 0.32067 0.0
C798 C 0.3501 0.45192 0.35723 0.0
C799 C 0.33238 0.44761 0.30699 0.0
C800 C 0.39445 0.46755 0.36181 0.0
C801 C 0.38776 0.45803 0.42632 0.0
N802 N 0.35098 0.45112 0.32532 0.0
N803 N 0.36874 0.45254 0.40768 0.0
H804 H 0.90515 0.41724 0.92548 0.0
H805 H 0.88682 0.30681 0.83436 0.0
H806 H 0.96342 0.40579 0.90959 0.0
H807 H 0.8397 0.3338 0.82439 0.0
H808 H 0.91393 0.34081 0.86537 0.0
H809 H 0.87924 0.384 0.89273 0.0
C810 C 0.91243 0.40763 0.9152 0.0
C811 C 0.93643 0.41422 0.92028 0.0
C812 C 0.89767 0.33925 0.85628 0.0
C813 C 0.90693 0.37621 0.88273 0.0
C814 C 0.88221 0.31992 0.83841 0.0
C815 C 0.86076 0.31725 0.8268 0.0
C816 C 0.89154 0.35593 0.86289 0.0
C817 C 0.85568 0.33471 0.83336 0.0
C818 C 0.89771 0.38878 0.89634 0.0
C819 C 0.94506 0.40135 0.90607 0.0
N820 N 0.87084 0.35317 0.85108 0.0
N821 N 0.93026 0.38285 0.88806 0.0
H822 H 0.92521 0.49214 0.94177 0.0
H823 H 0.90045 0.58775 0.86131 0.0
H824 H 0.97389 0.56747 0.94887 0.0
H825 H 0.84637 0.51288 0.87215 0.0
H826 H 0.92853 0.58091 0.89085 0.0
H827 H 0.89706 0.49947 0.91309 0.0
C828 C 0.9299 0.51023 0.93711 0.0
C829 C 0.9518 0.52926 0.94735 0.0
C830 C 0.91049 0.56601 0.88679 0.0
C831 C 0.91989 0.53788 0.91476 0.0
C832 C 0.89438 0.56991 0.87007 0.0
C833 C 0.87098 0.55086 0.86409 0.0
C834 C 0.90321 0.54288 0.89748 0.0
C835 C 0.86433 0.52806 0.87564 0.0
C836 C 0.91388 0.51444 0.92087 0.0
C837 C 0.95718 0.5524 0.94102 0.0
N838 N 0.88037 0.52472 0.89166 0.0
N839 N 0.94134 0.5561 0.925 0.0
H840 H 0.3991 0.95353 0.4745 0.0
H841 H 0.34656 0.89194 0.31266 0.0
H842 H 0.44405 0.94918 0.40432 0.0
H843 H 0.30431 0.86557 0.39925 0.0
H844 H 0.38199 0.91994 0.34251 0.0
H845 H 0.36327 0.92764 0.44372 0.0
C846 C 0.40134 0.94708 0.4526 0.0
C847 C 0.42438 0.95316 0.44199 0.0
C848 C 0.36491 0.90809 0.35488 0.0
C849 C 0.38389 0.92434 0.40647 0.0
C850 C 0.34474 0.89229 0.33791 0.0
C851 C 0.32263 0.87651 0.35365 0.0
C852 C 0.36272 0.9084 0.38766 0.0
C853 C 0.32114 0.87744 0.38639 0.0
C854 C 0.381 0.93241 0.43511 0.0
C855 C 0.42651 0.94474 0.41326 0.0
N856 N 0.34092 0.89323 0.40235 0.0
N857 N 0.40651 0.93082 0.39636 0.0
H858 H 0.47851 0.43309 0.87291 0.0
H859 H 0.43852 0.29772 0.87313 0.0
H860 H 0.45058 0.38621 0.95616 0.0
H861 H 0.44213 0.33737 0.78839 0.0
H862 H 0.44513 0.33072 0.90413 0.0
H863 H 0.46725 0.399 0.84152 0.0
C864 C 0.46978 0.41566 0.88463 0.0
C865 C 0.46559 0.41266 0.9174 0.0
C866 C 0.44429 0.33215 0.87878 0.0
C867 C 0.45315 0.37357 0.88148 0.0
C868 C 0.44062 0.31338 0.86111 0.0
C869 C 0.43986 0.31491 0.8282 0.0
C870 C 0.44761 0.35276 0.86341 0.0
C871 C 0.44247 0.33548 0.81375 0.0
C872 C 0.46347 0.3962 0.86664 0.0
C873 C 0.45466 0.38958 0.93115 0.0
N874 N 0.44649 0.35374 0.83144 0.0
N875 N 0.44899 0.37098 0.91318 0.0
H876 H 0.05916 0.49797 0.36972 0.0
H877 H 0.11145 0.416 0.33626 0.0
H878 H 0.0529 0.44478 0.43724 0.0
H879 H 0.13979 0.48501 0.29039 0.0
H880 H 0.08384 0.42203 0.3679 0.0
H881 H 0.0829 0.48912 0.33469 0.0
C882 C 0.06261 0.48428 0.377 0.0
C883 C 0.05418 0.47213 0.40641 0.0
C884 C 0.09604 0.43578 0.3508 0.0
C885 C 0.08117 0.46191 0.36656 0.0
C886 C 0.11163 0.43229 0.33266 0.0
C887 C 0.12793 0.4501 0.31088 0.0
C888 C 0.09654 0.45706 0.34671 0.0
C889 C 0.12763 0.47096 0.30719 0.0
C890 C 0.07624 0.47934 0.35713 0.0
C891 C 0.0593 0.45469 0.41487 0.0
N892 N 0.11215 0.47387 0.32491 0.0
N893 N 0.07244 0.45005 0.395 0.0
H894 H 0.56288 0.07496 0.927 0.0
H895 H 0.66814 0.09637 0.81206 0.0
H896 H 0.58827 0.02697 0.93156 0.0
H897 H 0.6709 0.15414 0.85895 0.0
H898 H 0.63411 0.0683 0.847 0.0
H899 H 0.59751 0.10219 0.89207 0.0
C900 C 0.57573 0.07017 0.92042 0.0
C901 C 0.57286 0.04881 0.93195 0.0
C902 C 0.64229 0.08717 0.84942 0.0
C903 C 0.61196 0.07941 0.89187 0.0
C904 C 0.66181 0.10326 0.82966 0.0
C905 C 0.6725 0.12784 0.83222 0.0
C906 C 0.63306 0.0957 0.87135 0.0
C907 C 0.66299 0.13548 0.85525 0.0
C908 C 0.5954 0.08564 0.90066 0.0
C909 C 0.58989 0.04326 0.92284 0.0
N910 N 0.64369 0.11949 0.87367 0.0
N911 N 0.60871 0.05843 0.90304 0.0
H912 H 0.55953 0.60386 0.47457 0.0
H913 H 0.54114 0.65662 0.31217 0.0
H914 H 0.51016 0.56057 0.40397 0.0
H915 H 0.57403 0.69899 0.39266 0.0
H916 H 0.5341 0.62173 0.343 0.0
H917 H 0.56964 0.63956 0.44227 0.0
C918 C 0.5509 0.602 0.4522 0.0
C919 C 0.53387 0.57948 0.44186 0.0
C920 C 0.54288 0.63867 0.35389 0.0
C921 C 0.54541 0.61984 0.40483 0.0
C922 C 0.54681 0.65861 0.33636 0.0
C923 C 0.55799 0.6808 0.3499 0.0
C924 C 0.55032 0.64089 0.38517 0.0
C925 C 0.56553 0.68233 0.38112 0.0
C926 C 0.55662 0.62226 0.43383 0.0
C927 C 0.5233 0.57775 0.41266 0.0
N928 N 0.5615 0.66263 0.39772 0.0
N929 N 0.52922 0.59769 0.39513 0.0
H930 H 0.4599 0.07563 0.5283 0.0
H931 H 0.45591 0.12483 0.69545 0.0
H932 H 0.47783 0.0541 0.61578 0.0
H933 H 0.43559 0.14516 0.60901 0.0
H934 H 0.46332 0.0983 0.66654 0.0
H935 H 0.45038 0.10081 0.55724 0.0
C936 C 0.46189 0.07623 0.55357 0.0
C937 C 0.4697 0.06271 0.56961 0.0
C938 C 0.45718 0.10849 0.65385 0.0
C939 C 0.45866 0.09138 0.60292 0.0
C940 C 0.45305 0.12375 0.67034 0.0
C941 C 0.44526 0.13737 0.65461 0.0
C942 C 0.45357 0.10683 0.62128 0.0
C943 C 0.44143 0.13488 0.62214 0.0
C944 C 0.45632 0.09051 0.5701 0.0
C945 C 0.47159 0.06395 0.60244 0.0
N946 N 0.44574 0.12001 0.60653 0.0
N947 N 0.46619 0.07806 0.61795 0.0
H948 H 0.40274 0.43705 0.05026 0.0
H949 H 0.33697 0.49413 0.13441 0.0
H950 H 0.43613 0.512 0.06162 0.0
H951 H 0.30857 0.41889 0.13875 0.0
H952 H 0.37231 0.50081 0.10502 0.0
H953 H 0.36686 0.42972 0.07994 0.0
C954 C 0.40244 0.4519 0.05919 0.0
C955 C 0.42227 0.4751 0.05387 0.0
C956 C 0.35837 0.48283 0.11243 0.0
C957 C 0.38151 0.46704 0.08727 0.0
C958 C 0.3382 0.47899 0.12939 0.0
C959 C 0.31976 0.4559 0.13931 0.0
C960 C 0.36016 0.46345 0.10509 0.0
C961 C 0.32218 0.43697 0.13135 0.0
C962 C 0.38205 0.44776 0.07603 0.0
C963 C 0.42112 0.49386 0.06547 0.0
N964 N 0.34201 0.44117 0.11473 0.0
N965 N 0.40105 0.48943 0.08161 0.0
H966 H 0.95098 0.39811 0.52466 0.0
H967 H 0.87487 0.34424 0.68658 0.0
H968 H 0.94387 0.44027 0.59278 0.0
H969 H 0.86663 0.3012 0.60861 0.0
H970 H 0.90391 0.37956 0.65487 0.0
H971 H 0.92367 0.36219 0.55745 0.0
C972 C 0.94357 0.39967 0.54655 0.0
C973 C 0.94932 0.42192 0.55609 0.0
C974 C 0.89576 0.36238 0.64471 0.0
C975 C 0.91857 0.38133 0.59372 0.0
C976 C 0.87908 0.34219 0.66275 0.0
C977 C 0.86806 0.31967 0.65018 0.0
C978 C 0.90166 0.36011 0.61388 0.0
C979 C 0.87478 0.31813 0.61941 0.0
C980 C 0.92807 0.37929 0.56522 0.0
C981 C 0.93965 0.4233 0.58471 0.0
N982 N 0.8911 0.33809 0.60228 0.0
N983 N 0.92472 0.40325 0.60256 0.0
H984 H 0.54304 0.92787 0.03637 0.0
H985 H 0.56757 0.89193 0.20775 0.0
H986 H 0.53441 0.95567 0.12192 0.0
H987 H 0.56132 0.85422 0.12466 0.0
H988 H 0.56116 0.91942 0.17564 0.0
H989 H 0.55495 0.90428 0.06757 0.0
C990 C 0.54359 0.92899 0.0617 0.0
C991 C 0.53753 0.94368 0.07652 0.0
C992 C 0.56132 0.90519 0.16442 0.0
C993 C 0.55149 0.91695 0.11235 0.0
C994 C 0.56512 0.88962 0.18269 0.0
C995 C 0.56477 0.8707 0.16884 0.0
C996 C 0.55731 0.90187 0.13208 0.0
C997 C 0.56135 0.86838 0.13632 0.0
C998 C 0.55053 0.91562 0.07949 0.0
C999 C 0.53914 0.9448 0.10941 0.0
N1000 N 0.55769 0.88374 0.11906 0.0
N1001 N 0.54587 0.93155 0.12621 0.0
H1002 H 0.59788 0.56461 0.59702 0.0
H1003 H 0.66471 0.51094 0.69277 0.0
H1004 H 0.58274 0.49384 0.58685 0.0
H1005 H 0.69626 0.58638 0.67744 0.0
H1006 H 0.63086 0.50378 0.66042 0.0
H1007 H 0.63053 0.5723 0.63292 0.0
C1008 C 0.60139 0.55069 0.60248 0.0
C1009 C 0.58775 0.52861 0.58887 0.0
C1010 C 0.64518 0.5219 0.66417 0.0
C1011 C 0.62473 0.53718 0.62988 0.0
C1012 C 0.66461 0.52604 0.68253 0.0
C1013 C 0.68364 0.54933 0.6875 0.0
C1014 C 0.64453 0.54116 0.65086 0.0
C1015 C 0.682 0.56813 0.67439 0.0
C1016 C 0.62003 0.55512 0.62279 0.0
C1017 C 0.59305 0.5112 0.59654 0.0
N1018 N 0.66282 0.56364 0.65657 0.0
N1019 N 0.61107 0.51583 0.61661 0.0
H1020 H 0.03648 0.59425 0.09976 0.0
H1021 H 0.16868 0.6783 0.16686 0.0
H1022 H 0.09919 0.59408 0.06799 0.0
H1023 H 0.11103 0.69124 0.17865 0.0
H1024 H 0.14249 0.64517 0.13405 0.0
H1025 H 0.06258 0.62775 0.13223 0.0
C1026 C 0.05574 0.60125 0.09968 0.0
C1027 C 0.0657 0.59139 0.08116 0.0
C1028 C 0.13557 0.65527 0.14377 0.0
C1029 C 0.09563 0.62963 0.11823 0.0
C1030 C 0.15045 0.67407 0.16266 0.0
C1031 C 0.14198 0.68749 0.17553 0.0
C1032 C 0.11194 0.64966 0.13795 0.0
C1033 C 0.11832 0.68144 0.16898 0.0
C1034 C 0.07063 0.62043 0.11806 0.0
C1035 C 0.0908 0.60129 0.08168 0.0
N1036 N 0.10407 0.66288 0.15077 0.0
N1037 N 0.10488 0.61977 0.10005 0.0
loop_
_geom_bond_atom_site_label_1
_geom_bond_atom_site_label_2
_geom_bond_distance
_geom_bond_site_symmetry_2
_ccdc_geom_bond_type
C0 C1 1.443 1_556 S
C0 N4 1.376 1_556 S
C0 C38 1.389 . S
C1 C0 1.443 1_554 S
C1 C2 1.340 . S
C1 H41 0.951 1_554 S
C2 C1 1.340 . S
C2 C3 1.439 . S
C2 H42 0.950 . S
C3 C2 1.439 . S
C3 N4 1.374 . S
C3 C37 1.395 . S
N4 C0 1.376 1_554 S
N4 C3 1.374 . S
N4 Co5 1.982 1_655 S
Co5 N4 1.982 1_455 S
Co5 N6 2.022 1_455 S
Co5 N11 2.034 1_554 S
Co5 N16 1.968 1_554 S
Co5 N21 2.300 . S
Co5 N27 2.266 1_454 S
N6 Co5 2.022 1_655 S
N6 C7 1.376 . S
N6 C10 1.383 1_655 S
C7 N6 1.376 . S
C7 C8 1.446 . S
C7 C37 1.391 . S
C8 C7 1.446 . S
C8 C9 1.339 1_655 S
C8 H43 0.949 . S
C9 C8 1.339 1_455 S
C9 C10 1.439 . S
C9 H44 0.950 . S
C10 N6 1.383 1_455 S
C10 C9 1.439 . S
C10 C39 1.392 . S
N11 Co5 2.034 1_556 S
N11 C12 1.376 1_556 S
N11 C15 1.374 . S
C12 N11 1.376 1_554 S
C12 C13 1.443 1_554 S
C12 C39 1.389 . S
C13 C12 1.443 1_556 S
C13 C14 1.340 . S
C13 H45 0.951 1_556 S
C14 C13 1.340 . S
C14 C15 1.439 . S
C14 H46 0.950 . S
C15 N11 1.374 . S
C15 C14 1.439 . S
C15 C40 1.395 . S
N16 Co5 1.968 1_556 S
N16 C17 1.376 . S
N16 C20 1.383 1_455 S
C17 N16 1.376 . S
C17 C18 1.446 . S
C17 C40 1.391 . S
C18 C17 1.446 . S
C18 C19 1.339 1_455 S
C18 H47 0.949 . S
C19 C18 1.339 1_655 S
C19 C20 1.439 . S
C19 H48 0.950 . S
C20 N16 1.383 1_655 S
C20 C19 1.439 . S
C20 C38 1.392 . S
N21 Co5 2.300 . S
N21 C24 1.332 . S
N21 C26 1.332 . S
C22 C23 1.386 . S
C22 C25 1.388 . S
C23 C22 1.386 . S
C23 C24 1.382 . S
C23 H49 0.950 . S
C24 N21 1.332 . S
C24 C23 1.382 . S
C24 H35 0.952 1_554 S
C25 C22 1.388 . S
C25 C26 1.382 . S
C25 H50 0.950 . S
C26 N21 1.332 . S
C26 C25 1.382 . S
C26 H36 0.948 . S
N27 Co5 2.266 1_656 S
N27 C31 1.332 . S
N27 C32 1.332 . S
C28 C29 1.388 . S
C28 C32 1.382 . S
C28 H51 0.950 . S
C29 C28 1.388 . S
C29 C30 1.386 . S
C30 C29 1.386 . S
C30 C31 1.382 . S
C30 H52 0.950 . S
C31 N27 1.332 . S
C31 C30 1.382 . S
C31 H33 0.952 1_556 S
C32 N27 1.332 . S
C32 C28 1.382 . S
C32 H34 0.948 . S
H33 C31 0.952 1_554 S
H34 C32 0.948 . S
H35 C24 0.952 1_556 S
H36 C26 0.948 . S
C37 C3 1.395 . S
C37 C7 1.391 . S
C38 C0 1.389 . S
C38 C20 1.392 . S
C39 C10 1.392 . S
C39 C12 1.389 . S
C40 C15 1.395 . S
C40 C17 1.391 . S
H41 C1 0.951 1_556 S
H42 C2 0.950 . S
H43 C8 0.949 . S
H44 C9 0.950 . S
H45 C13 0.951 1_554 S
H46 C14 0.950 . S
H47 C18 0.949 . S
H48 C19 0.950 . S
H49 C23 0.950 . S
H50 C25 0.950 . S
H51 C28 0.950 . S
H52 C30 0.950 . S
C53 C54 1.443 . S
C53 N57 1.376 1_545 S
C53 C91 1.389 . S
C54 C53 1.443 . S
C54 C55 1.340 1_545 S
C54 H94 0.951 . S
C55 C54 1.340 1_565 S
C55 C56 1.439 . S
C55 H95 0.950 . S
C56 C55 1.439 . S
C56 N57 1.375 . S
C56 C90 1.395 . S
N57 C53 1.376 1_565 S
N57 C56 1.375 . S
N57 Co58 2.008 1_565 S
Co58 N57 2.008 1_545 S
Co58 N59 1.995 1_545 S
Co58 N64 2.008 . S
Co58 N69 1.995 . S
Co58 N74 2.282 1_545 S
Co58 N80 2.282 . S
N59 Co58 1.995 1_565 S
N59 C60 1.376 . S
N59 C63 1.383 . S
C60 N59 1.376 . S
C60 C61 1.446 . S
C60 C90 1.391 . S
C61 C60 1.446 . S
C61 C62 1.339 . S
C61 H96 0.949 . S
C62 C61 1.339 . S
C62 C63 1.439 . S
C62 H97 0.950 . S
C63 N59 1.383 . S
C63 C62 1.439 . S
C63 C92 1.392 . S
N64 Co58 2.008 . S
N64 C65 1.376 1_545 S
N64 C68 1.374 . S
C65 N64 1.376 1_565 S
C65 C66 1.443 . S
C65 C92 1.389 . S
C66 C65 1.443 . S
C66 C67 1.340 1_565 S
C66 H98 0.951 . S
C67 C66 1.340 1_545 S
C67 C68 1.439 . S
C67 H99 0.950 . S
C68 N64 1.374 . S
C68 C67 1.439 . S
C68 C93 1.395 . S
N69 Co58 1.995 . S
N69 C70 1.376 . S
N69 C73 1.383 . S
C70 N69 1.376 . S
C70 C71 1.446 . S
C70 C93 1.391 . S
C71 C70 1.446 . S
C71 C72 1.339 . S
C71 H100 0.949 . S
C72 C71 1.339 . S
C72 C73 1.439 . S
C72 H101 0.950 . S
C73 N69 1.383 . S
C73 C72 1.439 . S
C73 C91 1.392 . S
N74 Co58 2.282 1_565 S
N74 C77 1.332 . S
N74 C79 1.332 . S
C75 C76 1.386 . S
C75 C78 1.388 . S
C76 C75 1.386 . S
C76 C77 1.382 . S
C76 H102 0.950 . S
C77 N74 1.332 . S
C77 C76 1.382 . S
C77 H88 0.952 1_565 S
C78 C75 1.388 . S
C78 C79 1.382 . S
C78 H103 0.950 . S
C79 N74 1.332 . S
C79 C78 1.382 . S
C79 H89 0.948 . S
N80 Co58 2.282 . S
N80 C84 1.332 . S
N80 C85 1.332 . S
C81 C82 1.388 . S
C81 C85 1.382 . S
C81 H104 0.950 . S
C82 C81 1.388 . S
C82 C83 1.386 . S
C83 C82 1.386 . S
C83 C84 1.382 . S
C83 H105 0.950 . S
C84 N80 1.332 . S
C84 C83 1.382 . S
C84 H86 0.938 1_545 S
C85 N80 1.332 . S
C85 C81 1.382 . S
C85 H87 0.948 . S
H86 C84 0.938 1_565 S
H87 C85 0.948 . S
H88 C77 0.952 1_545 S
H89 C79 0.948 . S
C90 C56 1.395 . S
C90 C60 1.391 . S
C91 C53 1.389 . S
C91 C73 1.392 . S
C92 C63 1.392 . S
C92 C65 1.389 . S
C93 C68 1.395 . S
C93 C70 1.391 . S
H94 C54 0.951 . S
H95 C55 0.950 . S
H96 C61 0.949 . S
H97 C62 0.950 . S
H98 C66 0.951 . S
H99 C67 0.950 . S
H100 C71 0.949 . S
H101 C72 0.950 . S
H102 C76 0.950 . S
H103 C78 0.950 . S
H104 C81 0.950 . S
H105 C83 0.950 . S
C106 C107 1.443 . S
C106 N110 1.376 . S
C106 C144 1.389 . S
C107 C106 1.443 . S
C107 C108 1.340 . S
C107 H147 0.951 . S
C108 C107 1.340 . S
C108 C109 1.439 . S
C108 H148 0.950 . S
C109 C108 1.439 . S
C109 N110 1.374 . S
C109 C143 1.395 . S
N110 C106 1.376 . S
N110 C109 1.374 . S
N110 Co111 1.987 1_556 S
Co111 N110 1.987 1_554 S
Co111 N112 1.989 1_554 S
Co111 N117 2.030 . S
Co111 N122 2.001 . S
Co111 N127 2.295 . S
Co111 N133 2.270 1_554 S
N112 Co111 1.989 1_556 S
N112 C113 1.376 . S
N112 C116 1.383 1_556 S
C113 N112 1.376 . S
C113 C114 1.446 . S
C113 C143 1.391 . S
C114 C113 1.446 . S
C114 C115 1.339 . S
C114 H149 0.949 . S
C115 C114 1.339 . S
C115 C116 1.439 1_556 S
C115 H150 0.950 1_556 S
C116 N112 1.383 1_554 S
C116 C115 1.439 1_554 S
C116 C145 1.392 . S
N117 Co111 2.030 . S
N117 C118 1.376 . S
N117 C121 1.374 . S
C118 N117 1.376 . S
C118 C119 1.443 . S
C118 C145 1.389 . S
C119 C118 1.443 . S
C119 C120 1.340 . S
C119 H151 0.951 . S
C120 C119 1.340 . S
C120 C121 1.439 . S
C120 H152 0.950 . S
C121 N117 1.374 . S
C121 C120 1.439 . S
C121 C146 1.395 . S
N122 Co111 2.001 . S
N122 C123 1.376 . S
N122 C126 1.383 1_554 S
C123 N122 1.376 . S
C123 C124 1.446 . S
C123 C146 1.391 . S
C124 C123 1.446 . S
C124 C125 1.339 . S
C124 H153 0.949 . S
C125 C124 1.339 . S
C125 C126 1.439 1_554 S
C125 H154 0.941 1_554 S
C126 N122 1.383 1_556 S
C126 C125 1.439 1_556 S
C126 C144 1.392 . S
N127 Co111 2.295 . S
N127 C130 1.332 . S
N127 C132 1.332 . S
C128 C129 1.386 . S
C128 C131 1.388 . S
C129 C128 1.386 . S
C129 C130 1.382 . S
C129 H155 0.950 . S
C130 N127 1.332 . S
C130 C129 1.382 . S
C130 H141 0.952 . S
C131 C128 1.388 . S
C131 C132 1.382 . S
C131 H156 0.950 . S
C132 N127 1.332 . S
C132 C131 1.382 . S
C132 H142 0.948 1_554 S
N133 Co111 2.270 1_556 S
N133 C137 1.332 . S
N133 C138 1.332 . S
C134 C135 1.388 . S
C134 C138 1.382 . S
C134 H157 0.950 . S
C135 C134 1.388 . S
C135 C136 1.386 . S
C136 C135 1.386 . S
C136 C137 1.382 . S
C136 H158 0.950 . S
C137 N133 1.332 . S
C137 C136 1.382 . S
C137 H139 0.952 . S
C138 N133 1.332 . S
C138 C134 1.382 . S
C138 H140 0.948 1_556 S
H139 C137 0.952 . S
H140 C138 0.948 1_554 S
H141 C130 0.952 . S
H142 C132 0.948 1_556 S
C143 C109 1.395 . S
C143 C113 1.391 . S
C144 C106 1.389 . S
C144 C126 1.392 . S
C145 C116 1.392 . S
C145 C118 1.389 . S
C146 C121 1.395 . S
C146 C123 1.391 . S
H147 C107 0.951 . S
H148 C108 0.950 . S
H149 C114 0.949 . S
H150 C115 0.950 1_554 S
H151 C119 0.951 . S
H152 C120 0.950 . S
H153 C124 0.949 . S
H154 C125 0.941 1_556 S
H155 C129 0.950 . S
H156 C131 0.950 . S
H157 C134 0.950 . S
H158 C136 0.950 . S
C159 C160 1.443 . S
C159 N163 1.376 . S
C159 C197 1.389 . S
C160 C159 1.443 . S
C160 C161 1.340 . S
C160 H200 0.951 . S
C161 C160 1.340 . S
C161 C162 1.439 . S
C161 H201 0.950 . S
C162 C161 1.439 . S
C162 N163 1.374 . S
C162 C196 1.395 . S
N163 C159 1.376 . S
N163 C162 1.374 . S
N163 Co164 1.989 1_655 S
Co164 N163 1.989 1_455 S
Co164 N165 1.983 1_455 S
Co164 N170 2.027 . S
Co164 N175 2.006 . S
Co164 N180 2.307 . S
Co164 N186 2.258 1_455 S
N165 Co164 1.983 1_655 S
N165 C166 1.376 . S
N165 C169 1.383 1_655 S
C166 N165 1.376 . S
C166 C167 1.446 . S
C166 C196 1.391 . S
C167 C166 1.446 . S
C167 C168 1.339 1_655 S
C167 H202 0.949 . S
C168 C167 1.339 1_455 S
C168 C169 1.439 . S
C168 H203 0.950 . S
C169 N165 1.383 1_455 S
C169 C168 1.439 . S
C169 C198 1.392 . S
N170 Co164 2.027 . S
N170 C171 1.376 . S
N170 C174 1.374 . S
C171 N170 1.376 . S
C171 C172 1.443 . S
C171 C198 1.389 . S
C172 C171 1.443 . S
C172 C173 1.340 . S
C172 H204 0.951 . S
C173 C172 1.340 . S
C173 C174 1.439 . S
C173 H205 0.950 . S
C174 N170 1.374 . S
C174 C173 1.439 . S
C174 C199 1.395 . S
N175 Co164 2.006 . S
N175 C176 1.376 . S
N175 C179 1.383 1_455 S
C176 N175 1.376 . S
C176 C177 1.446 . S
C176 C199 1.391 . S
C177 C176 1.446 . S
C177 C178 1.339 1_455 S
C177 H206 0.949 . S
C178 C177 1.339 1_655 S
C178 C179 1.439 . S
C178 H207 0.950 . S
C179 N175 1.383 1_655 S
C179 C178 1.439 . S
C179 C197 1.392 . S
N180 Co164 2.307 . S
N180 C183 1.332 . S
N180 C185 1.332 . S
C181 C182 1.386 . S
C181 C184 1.388 . S
C182 C181 1.386 . S
C182 C183 1.382 . S
C182 H208 0.950 . S
C183 N180 1.332 . S
C183 C182 1.382 . S
C183 H194 0.952 . S
C184 C181 1.388 . S
C184 C185 1.382 . S
C184 H209 0.950 . S
C185 N180 1.332 . S
C185 C184 1.382 . S
C185 H195 0.948 . S
N186 Co164 2.258 1_655 S
N186 C190 1.332 . S
N186 C191 1.332 . S
C187 C188 1.388 . S
C187 C191 1.382 . S
C187 H210 0.950 . S
C188 C187 1.388 . S
C188 C189 1.386 . S
C189 C188 1.386 . S
C189 C190 1.382 . S
C189 H211 0.950 . S
C190 N186 1.332 . S
C190 C189 1.382 . S
C190 H192 0.952 . S
C191 N186 1.332 . S
C191 C187 1.382 . S
C191 H193 0.948 . S
H192 C190 0.952 . S
H193 C191 0.948 . S
H194 C183 0.952 . S
H195 C185 0.948 . S
C196 C162 1.395 . S
C196 C166 1.391 . S
C197 C159 1.389 . S
C197 C179 1.392 . S
C198 C169 1.392 . S
C198 C171 1.389 . S
C199 C174 1.395 . S
C199 C176 1.391 . S
H200 C160 0.951 . S
H201 C161 0.950 . S
H202 C167 0.949 . S
H203 C168 0.950 . S
H204 C172 0.951 . S
H205 C173 0.950 . S
H206 C177 0.949 . S
H207 C178 0.950 . S
H208 C182 0.950 . S
H209 C184 0.950 . S
H210 C187 0.950 . S
H211 C189 0.950 . S
C212 C213 1.443 . S
C212 N216 1.376 1_565 S
C212 C250 1.389 . S
C213 C212 1.443 . S
C213 C214 1.340 1_565 S
C213 H253 0.951 . S
C214 C213 1.340 1_545 S
C214 C215 1.439 . S
C214 H254 0.950 . S
C215 C214 1.439 . S
C215 N216 1.374 . S
C215 C249 1.395 . S
N216 C212 1.376 1_545 S
N216 C215 1.374 . S
N216 Co217 2.029 . S
Co217 N216 2.029 . S
Co217 N218 1.999 . S
Co217 N223 1.991 1_554 S
Co217 N228 1.990 1_544 S
Co217 N233 2.273 1_554 S
Co217 N239 2.292 1_545 S
N218 Co217 1.999 . S
N218 C219 1.376 . S
N218 C222 1.383 1_554 S
C219 N218 1.376 . S
C219 C220 1.446 . S
C219 C249 1.391 . S
C220 C219 1.446 . S
C220 C221 1.339 1_554 S
C220 H255 0.949 . S
C221 C220 1.339 1_556 S
C221 C222 1.439 . S
C221 H256 0.950 . S
C222 N218 1.383 1_556 S
C222 C221 1.439 . S
C222 C251 1.392 . S
N223 Co217 1.991 1_556 S
N223 C224 1.381 . S
N223 C227 1.367 1_545 S
C224 N223 1.381 . S
C224 C225 1.443 . S
C224 C251 1.389 . S
C225 C224 1.443 . S
C225 C226 1.340 1_545 S
C225 H257 0.951 . S
C226 C225 1.340 1_565 S
C226 C227 1.439 . S
C226 H258 0.950 . S
C227 N223 1.367 1_565 S
C227 C226 1.439 . S
C227 C252 1.395 . S
N228 Co217 1.990 1_566 S
N228 C229 1.376 . S
N228 C232 1.383 1_556 S
C229 N228 1.376 . S
C229 C230 1.446 . S
C229 C252 1.391 . S
C230 C229 1.446 . S
C230 C231 1.339 1_556 S
C230 H259 0.949 . S
C231 C230 1.339 1_554 S
C231 C232 1.439 . S
C231 H260 0.950 . S
C232 N228 1.383 1_554 S
C232 C231 1.439 . S
C232 C250 1.392 . S
N233 Co217 2.273 1_556 S
N233 C236 1.332 . S
N233 C238 1.332 . S
C234 C235 1.386 . S
C234 C237 1.388 . S
C235 C234 1.386 . S
C235 C236 1.382 . S
C235 H261 0.950 . S
C236 N233 1.332 . S
C236 C235 1.382 . S
C236 H247 0.960 . S
C237 C234 1.388 . S
C237 C238 1.382 . S
C237 H262 0.950 . S
C238 N233 1.332 . S
C238 C237 1.382 . S
C238 H248 0.970 . S
N239 Co217 2.292 1_565 S
N239 C243 1.332 . S
N239 C244 1.332 . S
C240 C241 1.388 . S
C240 C244 1.382 . S
C240 H263 0.950 . S
C241 C240 1.388 . S
C241 C242 1.386 . S
C242 C241 1.386 . S
C242 C243 1.382 . S
C242 H264 0.950 . S
C243 N239 1.332 . S
C243 C242 1.382 . S
C243 H245 0.952 1_565 S
C244 N239 1.332 . S
C244 C240 1.382 . S
C244 H246 0.948 . S
H245 C243 0.952 1_545 S
H246 C244 0.948 . S
H247 C236 0.960 . S
H248 C238 0.970 . S
C249 C215 1.395 . S
C249 C219 1.391 . S
C250 C212 1.389 . S
C250 C232 1.392 . S
C251 C222 1.392 . S
C251 C224 1.389 . S
C252 C227 1.395 . S
C252 C229 1.391 . S
H253 C213 0.951 . S
H254 C214 0.950 . S
H255 C220 0.949 . S
H256 C221 0.950 . S
H257 C225 0.951 . S
H258 C226 0.950 . S
H259 C230 0.949 . S
H260 C231 0.950 . S
H261 C235 0.950 . S
H262 C237 0.950 . S
H263 C240 0.950 . S
H264 C242 0.950 . S
C265 C266 1.443 . S
C265 N269 1.376 . S
C265 C303 1.389 . S
C266 C265 1.443 . S
C266 C267 1.340 . S
C266 H306 0.951 . S
C267 C266 1.340 . S
C267 C268 1.439 . S
C267 H307 0.950 . S
C268 C267 1.439 . S
C268 N269 1.374 . S
C268 C302 1.395 . S
N269 C265 1.376 . S
N269 C268 1.374 . S
N269 Co270 2.008 . S
Co270 N269 2.008 . S
Co270 N271 1.995 . S
Co270 N276 2.008 . S
Co270 N281 1.995 . S
Co270 N286 2.282 . S
Co270 N292 2.282 . S
N271 Co270 1.995 . S
N271 C272 1.376 . S
N271 C275 1.383 . S
C272 N271 1.376 . S
C272 C273 1.446 . S
C272 C302 1.391 . S
C273 C272 1.446 . S
C273 C274 1.339 . S
C273 H308 0.949 . S
C274 C273 1.339 . S
C274 C275 1.439 . S
C274 H309 0.950 . S
C275 N271 1.383 . S
C275 C274 1.439 . S
C275 C304 1.392 . S
N276 Co270 2.008 . S
N276 C277 1.376 . S
N276 C280 1.374 . S
C277 N276 1.376 . S
C277 C278 1.443 . S
C277 C304 1.389 . S
C278 C277 1.443 . S
C278 C279 1.340 . S
C278 H310 0.951 . S
C279 C278 1.340 . S
C279 C280 1.439 . S
C279 H311 0.950 . S
C280 N276 1.374 . S
C280 C279 1.439 . S
C280 C305 1.395 . S
N281 Co270 1.995 . S
N281 C282 1.376 . S
N281 C285 1.383 . S
C282 N281 1.376 . S
C282 C283 1.446 . S
C282 C305 1.391 . S
C283 C282 1.446 . S
C283 C284 1.339 . S
C283 H312 0.949 . S
C284 C283 1.339 . S
C284 C285 1.439 . S
C284 H313 0.950 . S
C285 N281 1.383 . S
C285 C284 1.439 . S
C285 C303 1.392 . S
N286 Co270 2.282 . S
N286 C289 1.332 . S
N286 C291 1.332 . S
C287 C288 1.386 . S
C287 C290 1.388 . S
C288 C287 1.386 . S
C288 C289 1.382 . S
C288 H314 0.950 . S
C289 N286 1.332 . S
C289 C288 1.382 . S
C289 H300 0.952 . S
C290 C287 1.388 . S
C290 C291 1.382 . S
C290 H315 0.950 . S
C291 N286 1.332 . S
C291 C290 1.382 . S
C291 H301 0.948 . S
N292 Co270 2.282 . S
N292 C296 1.332 . S
N292 C297 1.332 . S
C293 C294 1.388 . S
C293 C297 1.382 . S
C293 H316 0.950 . S
C294 C293 1.388 . S
C294 C295 1.386 . S
C295 C294 1.386 . S
C295 C296 1.382 . S
C295 H317 0.950 . S
C296 N292 1.332 . S
C296 C295 1.382 . S
C296 H298 0.952 . S
C297 N292 1.332 . S
C297 C293 1.382 . S
C297 H299 0.948 . S
H298 C296 0.952 . S
H299 C297 0.948 . S
H300 C289 0.952 . S
H301 C291 0.948 . S
C302 C268 1.395 . S
C302 C272 1.391 . S
C303 C265 1.389 . S
C303 C285 1.392 . S
C304 C275 1.392 . S
C304 C277 1.389 . S
C305 C280 1.395 . S
C305 C282 1.391 . S
H306 C266 0.951 . S
H307 C267 0.950 . S
H308 C273 0.949 . S
H309 C274 0.950 . S
H310 C278 0.951 . S
H311 C279 0.950 . S
H312 C283 0.949 . S
H313 C284 0.950 . S
H314 C288 0.950 . S
H315 C290 0.950 . S
H316 C293 0.950 . S
H317 C295 0.950 . S
H318 C337 0.949 . S
H319 C338 0.950 . S
H320 C340 0.950 . S
H321 C341 0.950 . S
H322 C343 0.950 . S
H323 C346 0.950 . S
H324 C347 0.950 . S
H325 C349 0.951 . S
H326 C350 0.949 . S
H327 C352 0.949 . S
H328 C353 0.950 . S
H329 C355 0.950 . S
H330 C356 0.950 . S
H331 C358 0.950 . S
H332 C361 0.950 . S
H333 C362 0.950 . S
H334 C364 0.951 . S
H335 C365 0.949 . S
C336 C337 1.376 . S
C336 C341 1.386 . S
C336 C342 1.483 . S
C337 H318 0.949 . S
C337 C336 1.376 . S
C337 C338 1.397 . S
C338 H319 0.950 . S
C338 C337 1.397 . S
C338 C339 1.391 . S
C339 C338 1.391 . S
C339 C340 1.405 . S
C340 H320 0.950 . S
C340 C339 1.405 . S
C340 C341 1.367 . S
C341 H321 0.950 . S
C341 C336 1.386 . S
C341 C340 1.367 . S
C342 C336 1.483 . S
C342 C343 1.382 . S
C342 C344 1.403 . S
C343 H322 0.950 . S
C343 C342 1.382 . S
C343 C359 1.411 . S
C344 C342 1.403 . S
C344 C345 1.489 . S
C344 C358 1.411 . S
C345 C344 1.489 . S
C345 C346 1.383 . S
C345 C350 1.382 . S
C346 H323 0.950 . S
C346 C345 1.383 . S
C346 C347 1.395 . S
C347 H324 0.950 . S
C347 C346 1.395 . S
C347 C348 1.288 . S
C348 C347 1.288 . S
C348 C349 1.392 . S
C349 H325 0.951 . S
C349 C348 1.392 . S
C349 C350 1.392 . S
C350 H326 0.949 . S
C350 C345 1.382 . S
C350 C349 1.392 . S
C351 C352 1.376 . S
C351 C356 1.386 . S
C351 C357 1.483 . S
C352 H327 0.949 . S
C352 C351 1.376 . S
C352 C353 1.397 . S
C353 H328 0.950 . S
C353 C352 1.397 . S
C353 C354 1.391 . S
C354 C353 1.391 . S
C354 C355 1.405 . S
C355 H329 0.950 . S
C355 C354 1.405 . S
C355 C356 1.367 . S
C356 H330 0.950 . S
C356 C351 1.386 . S
C356 C355 1.367 . S
C357 C351 1.483 . S
C357 C358 1.382 . S
C357 C359 1.403 . S
C358 H331 0.950 . S
C358 C344 1.411 . S
C358 C357 1.382 . S
C359 C343 1.411 . S
C359 C357 1.403 . S
C359 C360 1.489 . S
C360 C359 1.489 . S
C360 C361 1.383 . S
C360 C365 1.382 . S
C361 H332 0.950 . S
C361 C360 1.383 . S
C361 C362 1.395 . S
C362 H333 0.950 . S
C362 C361 1.395 . S
C362 C363 1.288 . S
C363 C362 1.288 . S
C363 C364 1.392 . S
C364 H334 0.951 . S
C364 C363 1.392 . S
C364 C365 1.392 . S
C365 H335 0.949 . S
C365 C360 1.382 . S
C365 C364 1.392 . S
H366 C385 0.949 . S
H367 C386 0.950 . S
H368 C388 0.950 . S
H369 C389 0.950 . S
H370 C391 0.950 . S
H371 C394 0.950 . S
H372 C395 0.950 . S
H373 C397 0.951 . S
H374 C398 0.949 . S
H375 C400 0.949 . S
H376 C401 0.950 . S
H377 C403 0.950 . S
H378 C404 0.950 . S
H379 C406 0.950 . S
H380 C409 0.950 . S
H381 C410 0.950 . S
H382 C412 0.951 . S
H383 C413 0.949 . S
C384 C385 1.376 . S
C384 C389 1.386 . S
C384 C390 1.483 . S
C385 H366 0.949 . S
C385 C384 1.376 . S
C385 C386 1.397 . S
C386 H367 0.950 . S
C386 C385 1.397 . S
C386 C387 1.391 . S
C387 C386 1.391 . S
C387 C388 1.405 . S
C388 H368 0.950 . S
C388 C387 1.405 . S
C388 C389 1.367 . S
C389 H369 0.950 . S
C389 C384 1.386 . S
C389 C388 1.367 . S
C390 C384 1.483 . S
C390 C391 1.382 . S
C390 C392 1.403 . S
C391 H370 0.950 . S
C391 C390 1.382 . S
C391 C407 1.411 . S
C392 C390 1.403 . S
C392 C393 1.489 . S
C392 C406 1.411 . S
C393 C392 1.489 . S
C393 C394 1.383 . S
C393 C398 1.382 . S
C394 H371 0.950 . S
C394 C393 1.383 . S
C394 C395 1.395 . S
C395 H372 0.950 . S
C395 C394 1.395 . S
C395 C396 1.288 . S
C396 C395 1.288 . S
C396 C397 1.392 . S
C397 H373 0.951 . S
C397 C396 1.392 . S
C397 C398 1.392 . S
C398 H374 0.949 . S
C398 C393 1.382 . S
C398 C397 1.392 . S
C399 C400 1.376 . S
C399 C404 1.386 . S
C399 C405 1.483 . S
C400 H375 0.949 . S
C400 C399 1.376 . S
C400 C401 1.397 . S
C401 H376 0.950 . S
C401 C400 1.397 . S
C401 C402 1.391 . S
C402 C401 1.391 . S
C402 C403 1.405 . S
C403 H377 0.950 . S
C403 C402 1.405 . S
C403 C404 1.367 . S
C404 H378 0.950 . S
C404 C399 1.386 . S
C404 C403 1.367 . S
C405 C399 1.483 . S
C405 C406 1.382 . S
C405 C407 1.403 . S
C406 H379 0.950 . S
C406 C392 1.411 . S
C406 C405 1.382 . S
C407 C391 1.411 . S
C407 C405 1.403 . S
C407 C408 1.489 . S
C408 C407 1.489 . S
C408 C409 1.383 . S
C408 C413 1.382 . S
C409 H380 0.950 . S
C409 C408 1.383 . S
C409 C410 1.395 . S
C410 H381 0.950 . S
C410 C409 1.395 . S
C410 C411 1.288 . S
C411 C410 1.288 . S
C411 C412 1.392 . S
C412 H382 0.951 . S
C412 C411 1.392 . S
C412 C413 1.392 . S
C413 H383 0.949 . S
C413 C408 1.382 . S
C413 C412 1.392 . S
H414 C433 0.949 . S
H415 C434 0.950 . S
H416 C436 0.950 . S
H417 C437 0.950 . S
H418 C439 0.950 . S
H419 C442 0.950 . S
H420 C443 0.950 . S
H421 C445 0.951 . S
H422 C446 0.949 . S
H423 C448 0.949 . S
H424 C449 0.950 . S
H425 C451 0.950 . S
H426 C452 0.950 . S
H427 C454 0.950 . S
H428 C457 0.950 . S
H429 C458 0.950 . S
H430 C460 0.951 . S
H431 C461 0.949 . S
C432 C433 1.376 . S
C432 C437 1.386 . S
C432 C438 1.483 . S
C433 H414 0.949 . S
C433 C432 1.376 . S
C433 C434 1.397 . S
C434 H415 0.950 . S
C434 C433 1.397 . S
C434 C435 1.391 . S
C435 C434 1.391 . S
C435 C436 1.405 . S
C436 H416 0.950 . S
C436 C435 1.405 . S
C436 C437 1.367 . S
C437 H417 0.950 . S
C437 C432 1.386 . S
C437 C436 1.367 . S
C438 C432 1.483 . S
C438 C439 1.382 . S
C438 C440 1.403 . S
C439 H418 0.950 . S
C439 C438 1.382 . S
C439 C455 1.411 . S
C440 C438 1.403 . S
C440 C441 1.489 . S
C440 C454 1.411 . S
C441 C440 1.489 . S
C441 C442 1.383 . S
C441 C446 1.382 . S
C442 H419 0.950 . S
C442 C441 1.383 . S
C442 C443 1.395 . S
C443 H420 0.950 . S
C443 C442 1.395 . S
C443 C444 1.288 . S
C444 C443 1.288 . S
C444 C445 1.392 . S
C445 H421 0.951 . S
C445 C444 1.392 . S
C445 C446 1.392 . S
C446 H422 0.949 . S
C446 C441 1.382 . S
C446 C445 1.392 . S
C447 C448 1.376 . S
C447 C452 1.386 . S
C447 C453 1.483 . S
C448 H423 0.949 . S
C448 C447 1.376 . S
C448 C449 1.397 . S
C449 H424 0.950 . S
C449 C448 1.397 . S
C449 C450 1.391 . S
C450 C449 1.391 . S
C450 C451 1.405 . S
C451 H425 0.950 . S
C451 C450 1.405 . S
C451 C452 1.367 . S
C452 H426 0.950 . S
C452 C447 1.386 . S
C452 C451 1.367 . S
C453 C447 1.483 . S
C453 C454 1.382 . S
C453 C455 1.403 . S
C454 H427 0.950 . S
C454 C440 1.411 . S
C454 C453 1.382 . S
C455 C439 1.411 . S
C455 C453 1.403 . S
C455 C456 1.489 . S
C456 C455 1.489 . S
C456 C457 1.383 . S
C456 C461 1.382 . S
C457 H428 0.950 . S
C457 C456 1.383 . S
C457 C458 1.395 . S
C458 H429 0.950 . S
C458 C457 1.395 . S
C458 C459 1.288 . S
C459 C458 1.288 . S
C459 C460 1.392 . S
C460 H430 0.951 . S
C460 C459 1.392 . S
C460 C461 1.392 . S
C461 H431 0.949 . S
C461 C456 1.382 . S
C461 C460 1.392 . S
H462 C481 0.949 . S
H463 C482 0.950 . S
H464 C484 0.950 . S
H465 C485 0.950 . S
H466 C487 0.950 . S
H467 C490 0.950 . S
H468 C491 0.950 . S
H469 C493 0.951 . S
H470 C494 0.949 . S
H471 C496 0.949 . S
H472 C497 0.950 . S
H473 C499 0.950 . S
H474 C500 0.950 . S
H475 C502 0.950 . S
H476 C505 0.950 . S
H477 C506 0.950 . S
H478 C508 0.951 . S
H479 C509 0.949 . S
C480 C481 1.376 . S
C480 C485 1.386 . S
C480 C486 1.483 . S
C481 H462 0.949 . S
C481 C480 1.376 . S
C481 C482 1.397 . S
C482 H463 0.950 . S
C482 C481 1.397 . S
C482 C483 1.391 . S
C483 C482 1.391 . S
C483 C484 1.405 . S
C484 H464 0.950 . S
C484 C483 1.405 . S
C484 C485 1.367 . S
C485 H465 0.950 . S
C485 C480 1.386 . S
C485 C484 1.367 . S
C486 C480 1.483 . S
C486 C487 1.382 . S
C486 C488 1.403 . S
C487 H466 0.950 . S
C487 C486 1.382 . S
C487 C503 1.411 . S
C488 C486 1.403 . S
C488 C489 1.489 . S
C488 C502 1.411 . S
C489 C488 1.489 . S
C489 C490 1.383 . S
C489 C494 1.382 . S
C490 H467 0.950 . S
C490 C489 1.383 . S
C490 C491 1.395 . S
C491 H468 0.950 . S
C491 C490 1.395 . S
C491 C492 1.288 . S
C492 C491 1.288 . S
C492 C493 1.392 . S
C493 H469 0.951 . S
C493 C492 1.392 . S
C493 C494 1.392 . S
C494 H470 0.949 . S
C494 C489 1.382 . S
C494 C493 1.392 . S
C495 C496 1.376 . S
C495 C500 1.386 . S
C495 C501 1.483 . S
C496 H471 0.949 . S
C496 C495 1.376 . S
C496 C497 1.397 . S
C497 H472 0.950 . S
C497 C496 1.397 . S
C497 C498 1.391 . S
C498 C497 1.391 . S
C498 C499 1.405 . S
C499 H473 0.950 . S
C499 C498 1.405 . S
C499 C500 1.367 . S
C500 H474 0.950 . S
C500 C495 1.386 . S
C500 C499 1.367 . S
C501 C495 1.483 . S
C501 C502 1.382 . S
C501 C503 1.403 . S
C502 H475 0.950 . S
C502 C488 1.411 . S
C502 C501 1.382 . S
C503 C487 1.411 . S
C503 C501 1.403 . S
C503 C504 1.489 . S
C504 C503 1.489 . S
C504 C505 1.383 . S
C504 C509 1.382 . S
C505 H476 0.950 . S
C505 C504 1.383 . S
C505 C506 1.395 . S
C506 H477 0.950 . S
C506 C505 1.395 . S
C506 C507 1.288 . S
C507 C506 1.288 . S
C507 C508 1.392 . S
C508 H478 0.951 . S
C508 C507 1.392 . S
C508 C509 1.392 . S
C509 H479 0.949 . S
C509 C504 1.382 . S
C509 C508 1.392 . S
H510 C529 0.949 . S
H511 C530 0.950 . S
H512 C532 0.950 . S
H513 C533 0.950 . S
H514 C535 0.950 . S
H515 C538 0.950 . S
H516 C539 0.950 . S
H517 C541 0.951 . S
H518 C542 0.949 . S
H519 C544 0.949 . S
H520 C545 0.950 . S
H521 C547 0.950 . S
H522 C548 0.950 . S
H523 C550 0.950 . S
H524 C553 0.950 . S
H525 C554 0.950 . S
H526 C556 0.951 . S
H527 C557 0.949 . S
C528 C529 1.376 . S
C528 C533 1.386 . S
C528 C534 1.483 . S
C529 H510 0.949 . S
C529 C528 1.376 . S
C529 C530 1.397 . S
C530 H511 0.950 . S
C530 C529 1.397 . S
C530 C531 1.391 . S
C531 C530 1.391 . S
C531 C532 1.405 . S
C532 H512 0.950 . S
C532 C531 1.405 . S
C532 C533 1.367 . S
C533 H513 0.950 . S
C533 C528 1.386 . S
C533 C532 1.367 . S
C534 C528 1.483 . S
C534 C535 1.382 . S
C534 C536 1.403 . S
C535 H514 0.950 . S
C535 C534 1.382 . S
C535 C551 1.411 . S
C536 C534 1.403 . S
C536 C537 1.489 . S
C536 C550 1.411 . S
C537 C536 1.489 . S
C537 C538 1.383 . S
C537 C542 1.382 . S
C538 H515 0.950 . S
C538 C537 1.383 . S
C538 C539 1.395 . S
C539 H516 0.950 . S
C539 C538 1.395 . S
C539 C540 1.288 . S
C540 C539 1.288 . S
C540 C541 1.392 . S
C541 H517 0.951 . S
C541 C540 1.392 . S
C541 C542 1.392 . S
C542 H518 0.949 . S
C542 C537 1.382 . S
C542 C541 1.392 . S
C543 C544 1.376 . S
C543 C548 1.386 . S
C543 C549 1.483 . S
C544 H519 0.949 . S
C544 C543 1.376 . S
C544 C545 1.397 . S
C545 H520 0.950 . S
C545 C544 1.397 . S
C545 C546 1.391 . S
C546 C545 1.391 . S
C546 C547 1.405 . S
C547 H521 0.950 . S
C547 C546 1.405 . S
C547 C548 1.367 . S
C548 H522 0.950 . S
C548 C543 1.386 . S
C548 C547 1.367 . S
C549 C543 1.483 . S
C549 C550 1.382 . S
C549 C551 1.403 . S
C550 H523 0.950 . S
C550 C536 1.411 . S
C550 C549 1.382 . S
C551 C535 1.411 . S
C551 C549 1.403 . S
C551 C552 1.489 . S
C552 C551 1.489 . S
C552 C553 1.383 . S
C552 C557 1.382 . S
C553 H524 0.950 . S
C553 C552 1.383 . S
C553 C554 1.395 . S
C554 H525 0.950 . S
C554 C553 1.395 . S
C554 C555 1.288 . S
C555 C554 1.288 . S
C555 C556 1.392 . S
C556 H526 0.951 . S
C556 C555 1.392 . S
C556 C557 1.392 . S
C557 H527 0.949 . S
C557 C552 1.382 . S
C557 C556 1.392 . S
H558 C577 0.949 . S
H559 C578 0.950 . S
H560 C580 0.950 . S
H561 C581 0.950 . S
H562 C583 0.950 . S
H563 C586 0.950 . S
H564 C587 0.950 . S
H565 C589 0.951 . S
H566 C590 0.949 . S
H567 C592 0.949 . S
H568 C593 0.950 . S
H569 C595 0.950 . S
H570 C596 0.950 . S
H571 C598 0.950 . S
H572 C601 0.950 . S
H573 C602 0.950 . S
H574 C604 0.951 . S
H575 C605 0.949 . S
C576 C577 1.376 . S
C576 C581 1.386 . S
C576 C582 1.483 . S
C577 H558 0.949 . S
C577 C576 1.376 . S
C577 C578 1.397 . S
C578 H559 0.950 . S
C578 C577 1.397 . S
C578 C579 1.391 . S
C579 C578 1.391 . S
C579 C580 1.405 . S
C580 H560 0.950 . S
C580 C579 1.405 . S
C580 C581 1.367 . S
C581 H561 0.950 . S
C581 C576 1.386 . S
C581 C580 1.367 . S
C582 C576 1.483 . S
C582 C583 1.382 . S
C582 C584 1.403 . S
C583 H562 0.950 . S
C583 C582 1.382 . S
C583 C599 1.411 . S
C584 C582 1.403 . S
C584 C585 1.489 . S
C584 C598 1.411 . S
C585 C584 1.489 . S
C585 C586 1.383 . S
C585 C590 1.382 . S
C586 H563 0.950 . S
C586 C585 1.383 . S
C586 C587 1.395 . S
C587 H564 0.950 . S
C587 C586 1.395 . S
C587 C588 1.288 . S
C588 C587 1.288 . S
C588 C589 1.392 . S
C589 H565 0.951 . S
C589 C588 1.392 . S
C589 C590 1.392 . S
C590 H566 0.949 . S
C590 C585 1.382 . S
C590 C589 1.392 . S
C591 C592 1.376 . S
C591 C596 1.386 . S
C591 C597 1.483 . S
C592 H567 0.949 . S
C592 C591 1.376 . S
C592 C593 1.397 . S
C593 H568 0.950 . S
C593 C592 1.397 . S
C593 C594 1.391 . S
C594 C593 1.391 . S
C594 C595 1.405 . S
C595 H569 0.950 . S
C595 C594 1.405 . S
C595 C596 1.367 . S
C596 H570 0.950 . S
C596 C591 1.386 . S
C596 C595 1.367 . S
C597 C591 1.483 . S
C597 C598 1.382 . S
C597 C599 1.403 . S
C598 H571 0.950 . S
C598 C584 1.411 . S
C598 C597 1.382 . S
C599 C583 1.411 . S
C599 C597 1.403 . S
C599 C600 1.489 . S
C600 C599 1.489 . S
C600 C601 1.383 . S
C600 C605 1.382 . S
C601 H572 0.950 . S
C601 C600 1.383 . S
C601 C602 1.395 . S
C602 H573 0.950 . S
C602 C601 1.395 . S
C602 C603 1.288 . S
C603 C602 1.288 . S
C603 C604 1.392 . S
C604 H574 0.951 . S
C604 C603 1.392 . S
C604 C605 1.392 . S
C605 H575 0.949 . S
C605 C600 1.382 . S
C605 C604 1.392 . S
H606 C612 0.930 . S
H607 C616 0.930 . S
H608 C621 0.929 . S
H609 C619 0.929 . S
H610 C614 0.929 . S
H611 C620 0.929 . S
C612 H606 0.930 . S
C612 C613 1.367 . S
C612 C620 1.378 . S
C613 C612 1.367 . S
C613 C621 1.433 . S
C614 H610 0.929 . S
C614 C616 1.378 . S
C614 C618 1.350 . S
C615 C618 1.463 . S
C615 C620 1.350 . S
C615 N623 1.427 . S
C616 H607 0.930 . S
C616 C614 1.378 . S
C616 C617 1.367 . S
C617 C616 1.367 . S
C617 C619 1.433 . S
C618 C614 1.350 . S
C618 C615 1.463 . S
C618 N622 1.427 . S
C619 H609 0.929 . S
C619 C617 1.433 . S
C619 N622 1.384 . S
C620 H611 0.929 . S
C620 C612 1.378 . S
C620 C615 1.350 . S
C621 H608 0.929 . S
C621 C613 1.433 . S
C621 N623 1.384 . S
N622 C618 1.427 . S
N622 C619 1.384 . S
N623 C615 1.427 . S
N623 C621 1.384 . S
H624 C630 0.930 . S
H625 C634 0.930 . S
H626 C639 0.929 . S
H627 C637 0.929 . S
H628 C632 0.929 . S
H629 C638 0.929 . S
C630 H624 0.930 . S
C630 C631 1.367 . S
C630 C638 1.378 . S
C631 C630 1.367 . S
C631 C639 1.433 . S
C632 H628 0.929 . S
C632 C634 1.378 . S
C632 C636 1.350 . S
C633 C636 1.463 . S
C633 C638 1.350 . S
C633 N641 1.427 . S
C634 H625 0.930 . S
C634 C632 1.378 . S
C634 C635 1.367 . S
C635 C634 1.367 . S
C635 C637 1.433 . S
C636 C632 1.350 . S
C636 C633 1.463 . S
C636 N640 1.427 . S
C637 H627 0.929 . S
C637 C635 1.433 . S
C637 N640 1.384 . S
C638 H629 0.929 . S
C638 C630 1.378 . S
C638 C633 1.350 . S
C639 H626 0.929 . S
C639 C631 1.433 . S
C639 N641 1.384 . S
N640 C636 1.427 . S
N640 C637 1.384 . S
N641 C633 1.427 . S
N641 C639 1.384 . S
H642 C648 0.930 . S
H643 C652 0.930 . S
H644 C657 0.929 . S
H645 C655 0.929 . S
H646 C650 0.929 . S
H647 C656 0.929 . S
C648 H642 0.930 . S
C648 C649 1.367 . S
C648 C656 1.378 . S
C649 C648 1.367 . S
C649 C657 1.433 . S
C650 H646 0.929 . S
C650 C652 1.378 . S
C650 C654 1.350 . S
C651 C654 1.463 . S
C651 C656 1.350 . S
C651 N659 1.427 . S
C652 H643 0.930 . S
C652 C650 1.378 . S
C652 C653 1.367 . S
C653 C652 1.367 . S
C653 C655 1.433 . S
C654 C650 1.350 . S
C654 C651 1.463 . S
C654 N658 1.427 . S
C655 H645 0.929 . S
C655 C653 1.433 . S
C655 N658 1.384 . S
C656 H647 0.929 . S
C656 C648 1.378 . S
C656 C651 1.350 . S
C657 H644 0.929 . S
C657 C649 1.433 . S
C657 N659 1.384 . S
N658 C654 1.427 . S
N658 C655 1.384 . S
N659 C651 1.427 . S
N659 C657 1.384 . S
H660 C666 0.930 . S
H661 C670 0.930 . S
H662 C675 0.929 . S
H663 C673 0.929 . S
H664 C668 0.929 . S
H665 C674 0.929 . S
C666 H660 0.930 . S
C666 C667 1.367 . S
C666 C674 1.378 . S
C667 C666 1.367 . S
C667 C675 1.433 . S
C668 H664 0.929 . S
C668 C670 1.378 . S
C668 C672 1.350 . S
C669 C672 1.463 . S
C669 C674 1.350 . S
C669 N677 1.427 . S
C670 H661 0.930 . S
C670 C668 1.378 . S
C670 C671 1.367 . S
C671 C670 1.367 . S
C671 C673 1.433 . S
C672 C668 1.350 . S
C672 C669 1.463 . S
C672 N676 1.427 . S
C673 H663 0.929 . S
C673 C671 1.433 . S
C673 N676 1.384 . S
C674 H665 0.929 . S
C674 C666 1.378 . S
C674 C669 1.350 . S
C675 H662 0.929 . S
C675 C667 1.433 . S
C675 N677 1.384 . S
N676 C672 1.427 . S
N676 C673 1.384 . S
N677 C669 1.427 . S
N677 C675 1.384 . S
H678 C684 0.930 . S
H679 C688 0.930 . S
H680 C693 0.929 . S
H681 C691 0.929 . S
H682 C686 0.929 . S
H683 C692 0.929 . S
C684 H678 0.930 . S
C684 C685 1.367 . S
C684 C692 1.378 . S
C685 C684 1.367 . S
C685 C693 1.433 . S
C686 H682 0.929 . S
C686 C688 1.378 . S
C686 C690 1.350 . S
C687 C690 1.463 . S
C687 C692 1.350 . S
C687 N695 1.427 . S
C688 H679 0.930 . S
C688 C686 1.378 . S
C688 C689 1.367 . S
C689 C688 1.367 . S
C689 C691 1.433 . S
C690 C686 1.350 . S
C690 C687 1.463 . S
C690 N694 1.427 . S
C691 H681 0.929 . S
C691 C689 1.433 . S
C691 N694 1.384 . S
C692 H683 0.929 . S
C692 C684 1.378 . S
C692 C687 1.350 . S
C693 H680 0.929 . S
C693 C685 1.433 . S
C693 N695 1.384 . S
N694 C690 1.427 . S
N694 C691 1.384 . S
N695 C687 1.427 . S
N695 C693 1.384 . S
H696 C702 0.930 . S
H697 C706 0.930 . S
H698 C711 0.929 . S
H699 C709 0.929 . S
H700 C704 0.929 . S
H701 C710 0.929 . S
C702 H696 0.930 . S
C702 C703 1.367 . S
C702 C710 1.378 . S
C703 C702 1.367 . S
C703 C711 1.433 . S
C704 H700 0.929 . S
C704 C706 1.378 . S
C704 C708 1.350 . S
C705 C708 1.463 . S
C705 C710 1.350 . S
C705 N713 1.427 . S
C706 H697 0.930 . S
C706 C704 1.378 . S
C706 C707 1.367 . S
C707 C706 1.367 . S
C707 C709 1.433 . S
C708 C704 1.350 . S
C708 C705 1.463 . S
C708 N712 1.427 . S
C709 H699 0.929 . S
C709 C707 1.433 . S
C709 N712 1.384 . S
C710 H701 0.929 . S
C710 C702 1.378 . S
C710 C705 1.350 . S
C711 H698 0.929 . S
C711 C703 1.433 . S
C711 N713 1.384 . S
N712 C708 1.427 . S
N712 C709 1.384 . S
N713 C705 1.427 . S
N713 C711 1.384 . S
H714 C720 0.930 . S
H715 C724 0.930 . S
H716 C729 0.929 . S
H717 C727 0.929 . S
H718 C722 0.929 . S
H719 C728 0.929 . S
C720 H714 0.930 . S
C720 C721 1.367 . S
C720 C728 1.378 . S
C721 C720 1.367 . S
C721 C729 1.433 . S
C722 H718 0.929 . S
C722 C724 1.378 . S
C722 C726 1.350 . S
C723 C726 1.463 . S
C723 C728 1.350 . S
C723 N731 1.427 . S
C724 H715 0.930 . S
C724 C722 1.378 . S
C724 C725 1.367 . S
C725 C724 1.367 . S
C725 C727 1.433 . S
C726 C722 1.350 . S
C726 C723 1.463 . S
C726 N730 1.427 . S
C727 H717 0.929 . S
C727 C725 1.433 . S
C727 N730 1.384 . S
C728 H719 0.929 . S
C728 C720 1.378 . S
C728 C723 1.350 . S
C729 H716 0.929 . S
C729 C721 1.433 . S
C729 N731 1.384 . S
N730 C726 1.427 . S
N730 C727 1.384 . S
N731 C723 1.427 . S
N731 C729 1.384 . S
H732 C738 0.930 . S
H733 C742 0.930 . S
H734 C747 0.929 . S
H735 C745 0.929 . S
H736 C740 0.929 . S
H737 C746 0.929 . S
C738 H732 0.930 . S
C738 C739 1.367 . S
C738 C746 1.378 . S
C739 C738 1.367 . S
C739 C747 1.433 . S
C740 H736 0.929 . S
C740 C742 1.378 . S
C740 C744 1.350 . S
C741 C744 1.463 . S
C741 C746 1.350 . S
C741 N749 1.427 . S
C742 H733 0.930 . S
C742 C740 1.378 . S
C742 C743 1.367 . S
C743 C742 1.367 . S
C743 C745 1.433 . S
C744 C740 1.350 . S
C744 C741 1.463 . S
C744 N748 1.427 . S
C745 H735 0.929 . S
C745 C743 1.433 . S
C745 N748 1.384 . S
C746 H737 0.929 . S
C746 C738 1.378 . S
C746 C741 1.350 . S
C747 H734 0.929 . S
C747 C739 1.433 . S
C747 N749 1.384 . S
N748 C744 1.427 . S
N748 C745 1.384 . S
N749 C741 1.427 . S
N749 C747 1.384 . S
H750 C756 0.930 . S
H751 C760 0.930 . S
H752 C765 0.929 . S
H753 C763 0.929 . S
H754 C758 0.929 . S
H755 C764 0.929 . S
C756 H750 0.930 . S
C756 C757 1.367 . S
C756 C764 1.378 . S
C757 C756 1.367 . S
C757 C765 1.433 . S
C758 H754 0.929 . S
C758 C760 1.378 . S
C758 C762 1.350 . S
C759 C762 1.463 . S
C759 C764 1.350 . S
C759 N767 1.427 . S
C760 H751 0.930 . S
C760 C758 1.378 . S
C760 C761 1.367 . S
C761 C760 1.367 . S
C761 C763 1.433 . S
C762 C758 1.350 . S
C762 C759 1.463 . S
C762 N766 1.427 . S
C763 H753 0.929 . S
C763 C761 1.433 . S
C763 N766 1.384 . S
C764 H755 0.929 . S
C764 C756 1.378 . S
C764 C759 1.350 . S
C765 H752 0.929 . S
C765 C757 1.433 . S
C765 N767 1.384 . S
N766 C762 1.427 . S
N766 C763 1.384 . S
N767 C759 1.427 . S
N767 C765 1.384 . S
H768 C774 0.930 . S
H769 C778 0.930 . S
H770 C783 0.929 . S
H771 C781 0.929 . S
H772 C776 0.929 . S
H773 C782 0.929 . S
C774 H768 0.930 . S
C774 C775 1.367 . S
C774 C782 1.378 . S
C775 C774 1.367 . S
C775 C783 1.433 . S
C776 H772 0.929 . S
C776 C778 1.378 . S
C776 C780 1.350 . S
C777 C780 1.463 . S
C777 C782 1.350 . S
C777 N785 1.427 . S
C778 H769 0.930 . S
C778 C776 1.378 . S
C778 C779 1.367 . S
C779 C778 1.367 . S
C779 C781 1.433 . S
C780 C776 1.350 . S
C780 C777 1.463 . S
C780 N784 1.427 . S
C781 H771 0.929 . S
C781 C779 1.433 . S
C781 N784 1.384 . S
C782 H773 0.929 . S
C782 C774 1.378 . S
C782 C777 1.350 . S
C783 H770 0.929 . S
C783 C775 1.433 . S
C783 N785 1.384 . S
N784 C780 1.427 . S
N784 C781 1.384 . S
N785 C777 1.427 . S
N785 C783 1.384 . S
H786 C792 0.930 . S
H787 C796 0.930 . S
H788 C801 0.929 . S
H789 C799 0.929 . S
H790 C794 0.929 . S
H791 C800 0.929 . S
C792 H786 0.930 . S
C792 C793 1.367 . S
C792 C800 1.378 . S
C793 C792 1.367 . S
C793 C801 1.433 . S
C794 H790 0.929 . S
C794 C796 1.378 . S
C794 C798 1.350 . S
C795 C798 1.463 . S
C795 C800 1.350 . S
C795 N803 1.427 . S
C796 H787 0.930 . S
C796 C794 1.378 . S
C796 C797 1.367 . S
C797 C796 1.367 . S
C797 C799 1.433 . S
C798 C794 1.350 . S
C798 C795 1.463 . S
C798 N802 1.427 . S
C799 H789 0.929 . S
C799 C797 1.433 . S
C799 N802 1.384 . S
C800 H791 0.929 . S
C800 C792 1.378 . S
C800 C795 1.350 . S
C801 H788 0.929 . S
C801 C793 1.433 . S
C801 N803 1.384 . S
N802 C798 1.427 . S
N802 C799 1.384 . S
N803 C795 1.427 . S
N803 C801 1.384 . S
H804 C810 0.930 . S
H805 C814 0.930 . S
H806 C819 0.929 . S
H807 C817 0.929 . S
H808 C812 0.929 . S
H809 C818 0.929 . S
C810 H804 0.930 . S
C810 C811 1.367 . S
C810 C818 1.378 . S
C811 C810 1.367 . S
C811 C819 1.433 . S
C812 H808 0.929 . S
C812 C814 1.378 . S
C812 C816 1.350 . S
C813 C816 1.463 . S
C813 C818 1.350 . S
C813 N821 1.427 . S
C814 H805 0.930 . S
C814 C812 1.378 . S
C814 C815 1.367 . S
C815 C814 1.367 . S
C815 C817 1.433 . S
C816 C812 1.350 . S
C816 C813 1.463 . S
C816 N820 1.427 . S
C817 H807 0.929 . S
C817 C815 1.433 . S
C817 N820 1.384 . S
C818 H809 0.929 . S
C818 C810 1.378 . S
C818 C813 1.350 . S
C819 H806 0.929 . S
C819 C811 1.433 . S
C819 N821 1.384 . S
N820 C816 1.427 . S
N820 C817 1.384 . S
N821 C813 1.427 . S
N821 C819 1.384 . S
H822 C828 0.930 . S
H823 C832 0.930 . S
H824 C837 0.929 . S
H825 C835 0.929 . S
H826 C830 0.929 . S
H827 C836 0.929 . S
C828 H822 0.930 . S
C828 C829 1.367 . S
C828 C836 1.378 . S
C829 C828 1.367 . S
C829 C837 1.433 . S
C830 H826 0.929 . S
C830 C832 1.378 . S
C830 C834 1.350 . S
C831 C834 1.463 . S
C831 C836 1.350 . S
C831 N839 1.427 . S
C832 H823 0.930 . S
C832 C830 1.378 . S
C832 C833 1.367 . S
C833 C832 1.367 . S
C833 C835 1.433 . S
C834 C830 1.350 . S
C834 C831 1.463 . S
C834 N838 1.427 . S
C835 H825 0.929 . S
C835 C833 1.433 . S
C835 N838 1.384 . S
C836 H827 0.929 . S
C836 C828 1.378 . S
C836 C831 1.350 . S
C837 H824 0.929 . S
C837 C829 1.433 . S
C837 N839 1.384 . S
N838 C834 1.427 . S
N838 C835 1.384 . S
N839 C831 1.427 . S
N839 C837 1.384 . S
H840 C846 0.930 . S
H841 C850 0.930 . S
H842 C855 0.929 . S
H843 C853 0.929 . S
H844 C848 0.929 . S
H845 C854 0.929 . S
C846 H840 0.930 . S
C846 C847 1.367 . S
C846 C854 1.378 . S
C847 C846 1.367 . S
C847 C855 1.433 . S
C848 H844 0.929 . S
C848 C850 1.378 . S
C848 C852 1.350 . S
C849 C852 1.463 . S
C849 C854 1.350 . S
C849 N857 1.427 . S
C850 H841 0.930 . S
C850 C848 1.378 . S
C850 C851 1.367 . S
C851 C850 1.367 . S
C851 C853 1.433 . S
C852 C848 1.350 . S
C852 C849 1.463 . S
C852 N856 1.427 . S
C853 H843 0.929 . S
C853 C851 1.433 . S
C853 N856 1.384 . S
C854 H845 0.929 . S
C854 C846 1.378 . S
C854 C849 1.350 . S
C855 H842 0.929 . S
C855 C847 1.433 . S
C855 N857 1.384 . S
N856 C852 1.427 . S
N856 C853 1.384 . S
N857 C849 1.427 . S
N857 C855 1.384 . S
H858 C864 0.930 . S
H859 C868 0.930 . S
H860 C873 0.929 . S
H861 C871 0.929 . S
H862 C866 0.929 . S
H863 C872 0.929 . S
C864 H858 0.930 . S
C864 C865 1.367 . S
C864 C872 1.378 . S
C865 C864 1.367 . S
C865 C873 1.433 . S
C866 H862 0.929 . S
C866 C868 1.378 . S
C866 C870 1.350 . S
C867 C870 1.463 . S
C867 C872 1.350 . S
C867 N875 1.427 . S
C868 H859 0.930 . S
C868 C866 1.378 . S
C868 C869 1.367 . S
C869 C868 1.367 . S
C869 C871 1.433 . S
C870 C866 1.350 . S
C870 C867 1.463 . S
C870 N874 1.427 . S
C871 H861 0.929 . S
C871 C869 1.433 . S
C871 N874 1.384 . S
C872 H863 0.929 . S
C872 C864 1.378 . S
C872 C867 1.350 . S
C873 H860 0.929 . S
C873 C865 1.433 . S
C873 N875 1.384 . S
N874 C870 1.427 . S
N874 C871 1.384 . S
N875 C867 1.427 . S
N875 C873 1.384 . S
H876 C882 0.930 . S
H877 C886 0.930 . S
H878 C891 0.929 . S
H879 C889 0.929 . S
H880 C884 0.929 . S
H881 C890 0.929 . S
C882 H876 0.930 . S
C882 C883 1.367 . S
C882 C890 1.378 . S
C883 C882 1.367 . S
C883 C891 1.433 . S
C884 H880 0.929 . S
C884 C886 1.378 . S
C884 C888 1.350 . S
C885 C888 1.463 . S
C885 C890 1.350 . S
C885 N893 1.427 . S
C886 H877 0.930 . S
C886 C884 1.378 . S
C886 C887 1.367 . S
C887 C886 1.367 . S
C887 C889 1.433 . S
C888 C884 1.350 . S
C888 C885 1.463 . S
C888 N892 1.427 . S
C889 H879 0.929 . S
C889 C887 1.433 . S
C889 N892 1.384 . S
C890 H881 0.929 . S
C890 C882 1.378 . S
C890 C885 1.350 . S
C891 H878 0.929 . S
C891 C883 1.433 . S
C891 N893 1.384 . S
N892 C888 1.427 . S
N892 C889 1.384 . S
N893 C885 1.427 . S
N893 C891 1.384 . S
H894 C900 0.930 . S
H895 C904 0.930 . S
H896 C909 0.929 . S
H897 C907 0.929 . S
H898 C902 0.929 . S
H899 C908 0.929 . S
C900 H894 0.930 . S
C900 C901 1.367 . S
C900 C908 1.378 . S
C901 C900 1.367 . S
C901 C909 1.433 . S
C902 H898 0.929 . S
C902 C904 1.378 . S
C902 C906 1.350 . S
C903 C906 1.463 . S
C903 C908 1.350 . S
C903 N911 1.427 . S
C904 H895 0.930 . S
C904 C902 1.378 . S
C904 C905 1.367 . S
C905 C904 1.367 . S
C905 C907 1.433 . S
C906 C902 1.350 . S
C906 C903 1.463 . S
C906 N910 1.427 . S
C907 H897 0.929 . S
C907 C905 1.433 . S
C907 N910 1.384 . S
C908 H899 0.929 . S
C908 C900 1.378 . S
C908 C903 1.350 . S
C909 H896 0.929 . S
C909 C901 1.433 . S
C909 N911 1.384 . S
N910 C906 1.427 . S
N910 C907 1.384 . S
N911 C903 1.427 . S
N911 C909 1.384 . S
H912 C918 0.930 . S
H913 C922 0.930 . S
H914 C927 0.929 . S
H915 C925 0.929 . S
H916 C920 0.929 . S
H917 C926 0.929 . S
C918 H912 0.930 . S
C918 C919 1.367 . S
C918 C926 1.378 . S
C919 C918 1.367 . S
C919 C927 1.433 . S
C920 H916 0.929 . S
C920 C922 1.378 . S
C920 C924 1.350 . S
C921 C924 1.463 . S
C921 C926 1.350 . S
C921 N929 1.427 . S
C922 H913 0.930 . S
C922 C920 1.378 . S
C922 C923 1.367 . S
C923 C922 1.367 . S
C923 C925 1.433 . S
C924 C920 1.350 . S
C924 C921 1.463 . S
C924 N928 1.427 . S
C925 H915 0.929 . S
C925 C923 1.433 . S
C925 N928 1.384 . S
C926 H917 0.929 . S
C926 C918 1.378 . S
C926 C921 1.350 . S
C927 H914 0.929 . S
C927 C919 1.433 . S
C927 N929 1.384 . S
N928 C924 1.427 . S
N928 C925 1.384 . S
N929 C921 1.427 . S
N929 C927 1.384 . S
H930 C936 0.930 . S
H931 C940 0.930 . S
H932 C945 0.929 . S
H933 C943 0.929 . S
H934 C938 0.929 . S
H935 C944 0.929 . S
C936 H930 0.930 . S
C936 C937 1.367 . S
C936 C944 1.378 . S
C937 C936 1.367 . S
C937 C945 1.433 . S
C938 H934 0.929 . S
C938 C940 1.378 . S
C938 C942 1.350 . S
C939 C942 1.463 . S
C939 C944 1.350 . S
C939 N947 1.427 . S
C940 H931 0.930 . S
C940 C938 1.378 . S
C940 C941 1.367 . S
C941 C940 1.367 . S
C941 C943 1.433 . S
C942 C938 1.350 . S
C942 C939 1.463 . S
C942 N946 1.427 . S
C943 H933 0.929 . S
C943 C941 1.433 . S
C943 N946 1.384 . S
C944 H935 0.929 . S
C944 C936 1.378 . S
C944 C939 1.350 . S
C945 H932 0.929 . S
C945 C937 1.433 . S
C945 N947 1.384 . S
N946 C942 1.427 . S
N946 C943 1.384 . S
N947 C939 1.427 . S
N947 C945 1.384 . S
H948 C954 0.930 . S
H949 C958 0.930 . S
H950 C963 0.929 . S
H951 C961 0.929 . S
H952 C956 0.929 . S
H953 C962 0.929 . S
C954 H948 0.930 . S
C954 C955 1.367 . S
C954 C962 1.378 . S
C955 C954 1.367 . S
C955 C963 1.433 . S
C956 H952 0.929 . S
C956 C958 1.378 . S
C956 C960 1.350 . S
C957 C960 1.463 . S
C957 C962 1.350 . S
C957 N965 1.427 . S
C958 H949 0.930 . S
C958 C956 1.378 . S
C958 C959 1.367 . S
C959 C958 1.367 . S
C959 C961 1.433 . S
C960 C956 1.350 . S
C960 C957 1.463 . S
C960 N964 1.427 . S
C961 H951 0.929 . S
C961 C959 1.433 . S
C961 N964 1.384 . S
C962 H953 0.929 . S
C962 C954 1.378 . S
C962 C957 1.350 . S
C963 H950 0.929 . S
C963 C955 1.433 . S
C963 N965 1.384 . S
N964 C960 1.427 . S
N964 C961 1.384 . S
N965 C957 1.427 . S
N965 C963 1.384 . S
H966 C972 0.930 . S
H967 C976 0.930 . S
H968 C981 0.929 . S
H969 C979 0.929 . S
H970 C974 0.929 . S
H971 C980 0.929 . S
C972 H966 0.930 . S
C972 C973 1.367 . S
C972 C980 1.378 . S
C973 C972 1.367 . S
C973 C981 1.433 . S
C974 H970 0.929 . S
C974 C976 1.378 . S
C974 C978 1.350 . S
C975 C978 1.463 . S
C975 C980 1.350 . S
C975 N983 1.427 . S
C976 H967 0.930 . S
C976 C974 1.378 . S
C976 C977 1.367 . S
C977 C976 1.367 . S
C977 C979 1.433 . S
C978 C974 1.350 . S
C978 C975 1.463 . S
C978 N982 1.427 . S
C979 H969 0.929 . S
C979 C977 1.433 . S
C979 N982 1.384 . S
C980 H971 0.929 . S
C980 C972 1.378 . S
C980 C975 1.350 . S
C981 H968 0.929 . S
C981 C973 1.433 . S
C981 N983 1.384 . S
N982 C978 1.427 . S
N982 C979 1.384 . S
N983 C975 1.427 . S
N983 C981 1.384 . S
H984 C990 0.930 . S
H985 C994 0.930 . S
H986 C999 0.929 . S
H987 C997 0.929 . S
H988 C992 0.929 . S
H989 C998 0.929 . S
C990 H984 0.930 . S
C990 C991 1.367 . S
C990 C998 1.378 . S
C991 C990 1.367 . S
C991 C999 1.433 . S
C992 H988 0.929 . S
C992 C994 1.378 . S
C992 C996 1.350 . S
C993 C996 1.463 . S
C993 C998 1.350 . S
C993 N1001 1.427 . S
C994 H985 0.930 . S
C994 C992 1.378 . S
C994 C995 1.367 . S
C995 C994 1.367 . S
C995 C997 1.433 . S
C996 C992 1.350 . S
C996 C993 1.463 . S
C996 N1000 1.427 . S
C997 H987 0.929 . S
C997 C995 1.433 . S
C997 N1000 1.384 . S
C998 H989 0.929 . S
C998 C990 1.378 . S
C998 C993 1.350 . S
C999 H986 0.929 . S
C999 C991 1.433 . S
C999 N1001 1.384 . S
N1000 C996 1.427 . S
N1000 C997 1.384 . S
N1001 C993 1.427 . S
N1001 C999 1.384 . S
H1002 C1008 0.930 . S
H1003 C1012 0.930 . S
H1004 C1017 0.929 . S
H1005 C1015 0.929 . S
H1006 C1010 0.929 . S
H1007 C1016 0.929 . S
C1008 H1002 0.930 . S
C1008 C1009 1.367 . S
C1008 C1016 1.378 . S
C1009 C1008 1.367 . S
C1009 C1017 1.433 . S
C1010 H1006 0.929 . S
C1010 C1012 1.378 . S
C1010 C1014 1.350 . S
C1011 C1014 1.463 . S
C1011 C1016 1.350 . S
C1011 N1019 1.427 . S
C1012 H1003 0.930 . S
C1012 C1010 1.378 . S
C1012 C1013 1.367 . S
C1013 C1012 1.367 . S
C1013 C1015 1.433 . S
C1014 C1010 1.350 . S
C1014 C1011 1.463 . S
C1014 N1018 1.427 . S
C1015 H1005 0.929 . S
C1015 C1013 1.433 . S
C1015 N1018 1.384 . S
C1016 H1007 0.929 . S
C1016 C1008 1.378 . S
C1016 C1011 1.350 . S
C1017 H1004 0.929 . S
C1017 C1009 1.433 . S
C1017 N1019 1.384 . S
N1018 C1014 1.427 . S
N1018 C1015 1.384 . S
N1019 C1011 1.427 . S
N1019 C1017 1.384 . S
H1020 C1026 0.930 . S
H1021 C1030 0.930 . S
H1022 C1035 0.929 . S
H1023 C1033 0.929 . S
H1024 C1028 0.929 . S
H1025 C1034 0.929 . S
C1026 H1020 0.930 . S
C1026 C1027 1.367 . S
C1026 C1034 1.378 . S
C1027 C1026 1.367 . S
C1027 C1035 1.433 . S
C1028 H1024 0.929 . S
C1028 C1030 1.378 . S
C1028 C1032 1.350 . S
C1029 C1032 1.463 . S
C1029 C1034 1.350 . S
C1029 N1037 1.427 . S
C1030 H1021 0.930 . S
C1030 C1028 1.378 . S
C1030 C1031 1.367 . S
C1031 C1030 1.367 . S
C1031 C1033 1.433 . S
C1032 C1028 1.350 . S
C1032 C1029 1.463 . S
C1032 N1036 1.427 . S
C1033 H1023 0.929 . S
C1033 C1031 1.433 . S
C1033 N1036 1.384 . S
C1034 H1025 0.929 . S
C1034 C1026 1.378 . S
C1034 C1029 1.350 . S
C1035 H1022 0.929 . S
C1035 C1027 1.433 . S
C1035 N1037 1.384 . S
N1036 C1032 1.427 . S
N1036 C1033 1.384 . S
N1037 C1029 1.427 . S
N1037 C1035 1.384 . S
C613 C39 1.773 . S
C617 C339 1.758 . S
C631 C91 1.723 . S
C635 C396 1.725 . S
C653 C450 1.567 . S
C649 C128 1.598 . S
C671 C507 1.495 . S
C667 C188 1.541 . S
C689 C531 1.638 . S
C685 C250 1.645 . S
C707 C588 1.730 . S
C703 C304 1.734 . S
C721 C75 1.662 . S
C725 C435 1.646 . S
C739 C144 1.756 . S
C743 C492 1.756 . S
C761 C546 1.674 . S
C757 C198 1.702 . S
C779 C603 1.514 . S
C775 C234 1.567 . S
C793 C294 1.537 . S
C797 C354 1.515 . S
C815 C411 1.529 . S
C811 C29 1.563 . S
C833 C498 1.754 . S
C829 C38 1.771 . S
C847 C92 1.722 . S
C851 C540 1.679 . S
C869 C579 1.573 . S
C865 C135 1.600 . S
C883 C181 1.546 . S
C887 C348 1.508 . S
C901 C251 1.649 . S
C905 C387 1.628 . S
C919 C303 1.733 . S
C923 C459 1.731 . S
C937 C82 1.658 . S
C941 C594 1.638 . S
C959 C363 1.753 . S
C955 C145 1.754 . S
C973 C197 1.702 . S
C977 C402 1.689 . S
C991 C241 1.568 . S
C995 C444 1.521 . S
C1009 C287 1.534 . S
C1013 C483 1.508 . S
C1027 C22 1.560 . S
C1031 C555 1.561 . S
