# Generated by pormake.
# Topology apo, (3,6)-cn, num edge types: 1
# Building blocks:
#     Node 0, Type 0, BuildingBlock: ESEHIV_clean_linker_0, # of connection points: 3
#     Node 1, Type 0, BuildingBlock: ESEHIV_clean_linker_0, # of connection points: 3
#     Node 2, Type 0, BuildingBlock: ESEHIV_clean_linker_0, # of connection points: 3
#     Node 3, Type 0, BuildingBlock: ESEHIV_clean_linker_0, # of connection points: 3
#     Node 4, Type 0, BuildingBlock: ESEHIV_clean_linker_0, # of connection points: 3
#     Node 5, Type 0, BuildingBlock: ESEHIV_clean_linker_0, # of connection points: 3
#     Node 6, Type 0, BuildingBlock: ESEHIV_clean_linker_0, # of connection points: 3
#     Node 7, Type 0, BuildingBlock: ESEHIV_clean_linker_0, # of connection points: 3
#     Node 8, Type 1, BuildingBlock: KUMBOL_clean_sbu_1, # of connection points: 6
#     Node 9, Type 1, BuildingBlock: KUMBOL_clean_sbu_1, # of connection points: 6
#     Node 10, Type 1, BuildingBlock: KUMBOL_clean_sbu_1, # of connection points: 6
#     Node 11, Type 1, BuildingBlock: KUMBOL_clean_sbu_1, # of connection points: 6
#     Edge 12, Type (0, 1), BuildingBlock: AJUNOK_clean_linker_0, # of connection points: 2
#     Edge 13, Type (0, 1), BuildingBlock: AJUNOK_clean_linker_0, # of connection points: 2
#     Edge 14, Type (0, 1), BuildingBlock: AJUNOK_clean_linker_0, # of connection points: 2
#     Edge 15, Type (0, 1), BuildingBlock: AJUNOK_clean_linker_0, # of connection points: 2
#     Edge 16, Type (0, 1), BuildingBlock: AJUNOK_clean_linker_0, # of connection points: 2
#     Edge 17, Type (0, 1), BuildingBlock: AJUNOK_clean_linker_0, # of connection points: 2
#     Edge 18, Type (0, 1), BuildingBlock: AJUNOK_clean_linker_0, # of connection points: 2
#     Edge 19, Type (0, 1), BuildingBlock: AJUNOK_clean_linker_0, # of connection points: 2
#     Edge 20, Type (0, 1), BuildingBlock: AJUNOK_clean_linker_0, # of connection points: 2
#     Edge 21, Type (0, 1), BuildingBlock: AJUNOK_clean_linker_0, # of connection points: 2
#     Edge 22, Type (0, 1), BuildingBlock: AJUNOK_clean_linker_0, # of connection points: 2
#     Edge 23, Type (0, 1), BuildingBlock: AJUNOK_clean_linker_0, # of connection points: 2
#     Edge 24, Type (0, 1), BuildingBlock: AJUNOK_clean_linker_0, # of connection points: 2
#     Edge 25, Type (0, 1), BuildingBlock: AJUNOK_clean_linker_0, # of connection points: 2
#     Edge 26, Type (0, 1), BuildingBlock: AJUNOK_clean_linker_0, # of connection points: 2
#     Edge 27, Type (0, 1), BuildingBlock: AJUNOK_clean_linker_0, # of connection points: 2
#     Edge 28, Type (0, 1), BuildingBlock: AJUNOK_clean_linker_0, # of connection points: 2
#     Edge 29, Type (0, 1), BuildingBlock: AJUNOK_clean_linker_0, # of connection points: 2
#     Edge 30, Type (0, 1), BuildingBlock: AJUNOK_clean_linker_0, # of connection points: 2
#     Edge 31, Type (0, 1), BuildingBlock: AJUNOK_clean_linker_0, # of connection points: 2
#     Edge 32, Type (0, 1), BuildingBlock: AJUNOK_clean_linker_0, # of connection points: 2
#     Edge 33, Type (0, 1), BuildingBlock: AJUNOK_clean_linker_0, # of connection points: 2
#     Edge 34, Type (0, 1), BuildingBlock: AJUNOK_clean_linker_0, # of connection points: 2
#     Edge 35, Type (0, 1), BuildingBlock: AJUNOK_clean_linker_0, # of connection points: 2
# Relax obj value: 0.007
# Max RMSD: 0.141
# Mean RMSD: 0.105
data_MOF--net-apo--node1-KUMBOL_clean_sbu_1--node2-ESEHIV_clean_linker_0--edge1-AJUNOK_clean_linker_0
_symmetry_space_group_name_H-M    P1
_symmetry_Int_Tables_number       1
_symmetry_cell_setting            triclinic
loop_
_symmetry_equiv_pos_as_xyz
'x, y, z'
_cell_length_a     16.63581
_cell_length_b     28.491638
_cell_length_c     38.386705
_cell_angle_alpha  90.173795
_cell_angle_beta   90.018825
_cell_angle_gamma 91.569033
loop_
_atom_site_label
_atom_site_type_symbol
_atom_site_fract_x
_atom_site_fract_y
_atom_site_fract_z
_atom_type_partial_charge
H0 H 0.334 0.45333 0.43419 0.0
H1 H 0.27026 0.38065 0.33941 0.0
H2 H 0.21193 0.31766 0.43808 0.0
C3 C 0.30802 0.42264 0.42123 0.0
C4 C 0.27308 0.38577 0.44107 0.0
C5 C 0.30785 0.42063 0.38459 0.0
C6 C 0.272 0.38183 0.36766 0.0
C7 C 0.23675 0.34503 0.38688 0.0
C8 C 0.2385 0.34663 0.42346 0.0
H9 H 0.18302 0.05085 0.93684 0.0
H10 H 0.2527 0.11885 0.84094 0.0
H11 H 0.3215 0.18077 0.93889 0.0
C12 C 0.21335 0.07941 0.92311 0.0
C13 C 0.25398 0.11496 0.94227 0.0
C14 C 0.21081 0.08089 0.88647 0.0
C15 C 0.25077 0.11808 0.86917 0.0
C16 C 0.2891 0.15442 0.88796 0.0
C17 C 0.29029 0.15303 0.92447 0.0
H18 H 0.87122 0.0784 0.60993 0.0
H19 H 0.72733 0.11556 0.69803 0.0
H20 H 0.77648 0.21627 0.61673 0.0
C21 C 0.83554 0.10343 0.62396 0.0
C22 C 0.82156 0.14721 0.60881 0.0
C23 C 0.80496 0.09276 0.65726 0.0
C24 C 0.75767 0.12584 0.67423 0.0
C25 C 0.75052 0.17162 0.66127 0.0
C26 C 0.78248 0.18178 0.62806 0.0
H27 H 0.63096 0.42714 0.10803 0.0
H28 H 0.76444 0.39082 0.19971 0.0
H29 H 0.73804 0.29254 0.11476 0.0
C30 C 0.66695 0.40273 0.12245 0.0
C31 C 0.68545 0.35958 0.10721 0.0
C32 C 0.69308 0.41355 0.15645 0.0
C33 C 0.74071 0.38147 0.17425 0.0
C34 C 0.75786 0.33765 0.15965 0.0
C35 C 0.72771 0.32656 0.12634 0.0
H36 H 0.64592 0.55566 0.61288 0.0
H37 H 0.76954 0.6892 0.59959 0.0
H38 H 0.77034 0.6199 0.69929 0.0
C39 C 0.6827 0.58437 0.62341 0.0
C40 C 0.70527 0.58355 0.65842 0.0
C41 C 0.70468 0.62236 0.60205 0.0
C42 C 0.7523 0.6596 0.61588 0.0
C43 C 0.77685 0.6585 0.65102 0.0
C44 C 0.75305 0.62038 0.67204 0.0
H45 H 0.81946 0.95888 0.0985 0.0
H46 H 0.75283 0.88788 0.19353 0.0
H47 H 0.69389 0.8248 0.09474 0.0
C48 C 0.79121 0.92938 0.1119 0.0
C49 C 0.75593 0.89243 0.09221 0.0
C50 C 0.78984 0.92852 0.14858 0.0
C51 C 0.75481 0.88922 0.16532 0.0
C52 C 0.72142 0.85151 0.14614 0.0
C53 C 0.72035 0.85372 0.10961 0.0
H54 H 0.14429 0.92969 0.43123 0.0
H55 H 0.29279 0.80902 0.43133 0.0
H56 H 0.25565 0.88485 0.3361 0.0
C57 C 0.18305 0.90605 0.41736 0.0
C58 C 0.19885 0.91278 0.38169 0.0
C59 C 0.21603 0.86809 0.435 0.0
C60 C 0.26545 0.83717 0.41705 0.0
C61 C 0.27871 0.84219 0.38103 0.0
C62 C 0.24559 0.88038 0.36379 0.0
H63 H 0.35198 0.5756 0.93518 0.0
H64 H 0.24732 0.62366 0.83956 0.0
H65 H 0.22019 0.70308 0.93393 0.0
C66 C 0.31649 0.60052 0.92102 0.0
C67 C 0.28676 0.63968 0.93873 0.0
C68 C 0.30044 0.59367 0.88526 0.0
C69 C 0.25841 0.6281 0.86718 0.0
C70 C 0.23109 0.6684 0.88403 0.0
C71 C 0.24338 0.6731 0.92016 0.0
C72 C 0.74922 0.09157 0.28072 0.0
C73 C 0.74402 0.007 0.28817 0.0
C74 C 0.78461 0.05079 0.29174 0.0
C75 C 0.66832 0.00465 0.27192 0.0
C76 C 0.6713 0.0897 0.26619 0.0
C77 C 0.63199 0.04594 0.26097 0.0
N78 N 0.78857 0.13328 0.28657 0.0
C79 C 0.74941 0.17432 0.28246 0.0
C80 C 0.63407 0.13195 0.25866 0.0
C81 C 0.67257 0.17446 0.26763 0.0
Gd82 Gd 0.10132 0.13487 0.23507 0.0
Gd83 Gd 0.92105 0.12933 0.308 0.0
N84 N 0.85846 0.05424 0.30683 0.0
C85 C 0.78001 0.96713 0.30179 0.0
C86 C 0.89103 0.01621 0.32253 0.0
C87 C 0.85314 0.97191 0.31962 0.0
H88 H 0.94712 0.02007 0.33651 0.0
H89 H 0.88028 0.94153 0.33112 0.0
H90 H 0.07431 0.24996 0.21821 0.0
H91 H 0.77665 0.20685 0.29145 0.0
H92 H 0.15196 0.32437 0.22292 0.0
H93 H 0.75082 0.93278 0.29957 0.0
H94 H 0.63647 0.97126 0.26856 0.0
H95 H 0.22742 0.05036 0.25951 0.0
H96 H 0.57434 0.1321 0.2474 0.0
H97 H 0.6426 0.20727 0.26367 0.0
H98 H 0.4104 0.2795 0.26465 0.0
H99 H 0.57246 0.04378 0.2495 0.0
H100 H 0.45221 0.11669 0.28686 0.0
H101 H 0.36639 0.04495 0.28078 0.0
N102 N 0.23231 0.12496 0.25561 0.0
C103 C 0.27942 0.16471 0.25737 0.0
C104 C 0.26308 0.08221 0.2631 0.0
C105 C 0.39084 0.11944 0.27781 0.0
C106 C 0.34241 0.07888 0.27464 0.0
C107 C 0.35984 0.16299 0.26891 0.0
H108 H 0.46846 0.20394 0.2802 0.0
N109 N 0.16891 0.20822 0.23714 0.0
C110 C 0.24689 0.20745 0.24799 0.0
C111 C 0.25874 0.29177 0.2418 0.0
C112 C 0.29372 0.24933 0.25073 0.0
C113 C 0.13508 0.24938 0.22773 0.0
C114 C 0.17923 0.29174 0.23016 0.0
O115 O 0.93497 0.07171 0.26809 0.0
O116 O 0.97514 0.11201 0.2199 0.0
O117 O 0.13491 0.15462 0.18241 0.0
O118 O 0.1447 0.08228 0.19897 0.0
O119 O 0.04368 0.10143 0.3192 0.0
O120 O 0.08789 0.06924 0.2677 0.0
O121 O 0.12166 0.16839 0.28817 0.0
O122 O 0.99785 0.19571 0.30399 0.0
O123 O 0.95101 0.11918 0.36253 0.0
O124 O 0.84037 0.15213 0.34882 0.0
O125 O 0.99329 0.17752 0.22267 0.0
O126 O 0.91523 0.19273 0.2719 0.0
C127 C 0.93432 0.07748 0.23436 0.0
C128 C 0.08078 0.06868 0.30189 0.0
C129 C 0.22726 0.10855 0.15173 0.0
C130 C 0.28537 0.10588 0.09334 0.0
C131 C 0.37057 0.09847 0.14442 0.0
C132 C 0.30379 0.10278 0.16616 0.0
C133 C 0.36153 0.09978 0.10822 0.0
C134 C 0.2185 0.11062 0.11533 0.0
C135 C 0.15528 0.11241 0.1737 0.0
C136 C 0.37361 0.24766 0.26242 0.0
C137 C 0.40666 0.20463 0.27132 0.0
H138 H 0.29266 0.3247 0.24367 0.0
C139 C 0.0768 0.19763 0.30564 0.0
C140 C 0.93647 0.20029 0.23902 0.0
C141 C 0.90106 0.17438 0.40217 0.0
C142 C 0.89674 0.19307 0.46438 0.0
C143 C 0.936 0.25312 0.42208 0.0
C144 C 0.92537 0.22081 0.39493 0.0
C145 C 0.92132 0.23955 0.45654 0.0
C146 C 0.88845 0.16045 0.43683 0.0
C147 C 0.88772 0.14001 0.37399 0.0
H148 H 0.42953 0.09401 0.15567 0.0
H149 H 0.31202 0.10152 0.19405 0.0
H150 H 0.41408 0.09645 0.09183 0.0
H151 H 0.1594 0.11515 0.10407 0.0
H152 H 0.95467 0.28897 0.41638 0.0
H153 H 0.93559 0.23204 0.36834 0.0
H154 H 0.92791 0.26568 0.47696 0.0
H155 H 0.8722 0.1241 0.4422 0.0
C156 C 0.73604 0.4362 0.78231 0.0
C157 C 0.72688 0.51723 0.80129 0.0
C158 C 0.69514 0.4709 0.79964 0.0
C159 C 0.79864 0.52873 0.78365 0.0
C160 C 0.81002 0.44717 0.76585 0.0
C161 C 0.83999 0.49378 0.76586 0.0
N162 N 0.70567 0.39137 0.78317 0.0
C163 C 0.75077 0.35546 0.77117 0.0
C164 C 0.85298 0.4107 0.75092 0.0
C165 C 0.82391 0.36453 0.7542 0.0
Gd166 Gd 0.4014 0.36549 0.73696 0.0
Gd167 Gd 0.57868 0.38085 0.81024 0.0
N168 N 0.62457 0.45903 0.81548 0.0
C169 C 0.68614 0.55033 0.82116 0.0
C170 C 0.58624 0.49052 0.836 0.0
C171 C 0.61595 0.53677 0.8389 0.0
H172 H 0.5329 0.47981 0.85021 0.0
H173 H 0.58478 0.56187 0.85481 0.0
H174 H 0.46197 0.2705 0.69157 0.0
H175 H 0.73206 0.31968 0.77542 0.0
H176 H 0.4276 0.18614 0.68758 0.0
H177 H 0.70901 0.58614 0.82346 0.0
H178 H 0.8234 0.56431 0.78416 0.0
H179 H 0.24744 0.41531 0.77712 0.0
H180 H 0.91009 0.41759 0.73809 0.0
H181 H 0.85849 0.33579 0.74422 0.0
H182 H 0.18501 0.1686 0.75441 0.0
H183 H 0.89626 0.50291 0.75302 0.0
H184 H 0.07336 0.30765 0.80322 0.0
H185 H 0.11815 0.39121 0.80415 0.0
N186 N 0.27634 0.34596 0.76195 0.0
C187 C 0.25103 0.30031 0.75959 0.0
C188 C 0.22883 0.37872 0.77687 0.0
C189 C 0.13011 0.31803 0.7913 0.0
C190 C 0.15532 0.36522 0.79198 0.0
C191 C 0.17792 0.2849 0.77483 0.0
H192 H 0.09945 0.2245 0.78501 0.0
N193 N 0.36877 0.28535 0.72732 0.0
C194 C 0.29946 0.26892 0.74234 0.0
C195 C 0.32374 0.19084 0.72075 0.0
C196 C 0.27558 0.22112 0.73982 0.0
C197 C 0.41243 0.25663 0.70659 0.0
C198 C 0.39173 0.20887 0.70357 0.0
O199 O 0.54987 0.43866 0.77311 0.0
O200 O 0.5218 0.39878 0.72287 0.0
O201 O 0.35465 0.35603 0.68373 0.0
O202 O 0.34183 0.42274 0.71138 0.0
O203 O 0.45322 0.40308 0.82415 0.0
O204 O 0.39642 0.42916 0.77272 0.0
O205 O 0.38686 0.33476 0.79113 0.0
O206 O 0.5129 0.31098 0.80548 0.0
O207 O 0.55575 0.38362 0.86578 0.0
O208 O 0.67056 0.36031 0.84686 0.0
O209 O 0.523 0.33671 0.72254 0.0
O210 O 0.58779 0.31769 0.7742 0.0
C211 C 0.55454 0.43484 0.73931 0.0
C212 C 0.40678 0.4316 0.80687 0.0
C213 C 0.28621 0.4189 0.65271 0.0
C214 C 0.25323 0.42151 0.59043 0.0
C215 C 0.19394 0.4766 0.63081 0.0
C216 C 0.23538 0.45674 0.65841 0.0
C217 C 0.2026 0.45914 0.59711 0.0
C218 C 0.29547 0.40142 0.6184 0.0
C219 C 0.32894 0.39875 0.68287 0.0
C220 C 0.20387 0.20528 0.7558 0.0
C221 C 0.15504 0.23712 0.77317 0.0
H222 H 0.30758 0.15388 0.71822 0.0
C223 C 0.43449 0.30487 0.80611 0.0
C224 C 0.57507 0.31206 0.74038 0.0
C225 C 0.62356 0.32988 0.90054 0.0
C226 C 0.6324 0.30942 0.96204 0.0
C227 C 0.61689 0.24819 0.91789 0.0
C228 C 0.61663 0.28216 0.89171 0.0
C229 C 0.62526 0.26161 0.95284 0.0
C230 C 0.62947 0.34329 0.93556 0.0
C231 C 0.62497 0.36665 0.87394 0.0
H232 H 0.1549 0.50571 0.63556 0.0
H233 H 0.22718 0.4709 0.68435 0.0
H234 H 0.17013 0.47537 0.57606 0.0
H235 H 0.33487 0.37247 0.6135 0.0
H236 H 0.61164 0.21135 0.91105 0.0
H237 H 0.61136 0.27132 0.86473 0.0
H238 H 0.6275 0.23458 0.97257 0.0
H239 H 0.6319 0.38035 0.94209 0.0
C240 C 0.76515 0.78888 0.77785 0.0
C241 C 0.79688 0.71301 0.80165 0.0
C242 C 0.81478 0.76138 0.79774 0.0
C243 C 0.73104 0.6925 0.78371 0.0
C244 C 0.69686 0.76901 0.76113 0.0
C245 C 0.68098 0.72047 0.76359 0.0
N246 N 0.78363 0.83541 0.77502 0.0
C247 C 0.73321 0.86489 0.75831 0.0
C248 C 0.64642 0.79867 0.74266 0.0
C249 C 0.66414 0.84691 0.74164 0.0
Gd250 Gd 0.08806 0.87681 0.73384 0.0
Gd251 Gd 0.90191 0.86267 0.80234 0.0
N252 N 0.87799 0.78241 0.81469 0.0
C253 C 0.84413 0.68706 0.82433 0.0
C254 C 0.9195 0.75814 0.83911 0.0
C255 C 0.90452 0.70998 0.84373 0.0
H256 H 0.96387 0.77577 0.85538 0.0
H257 H 0.93913 0.69067 0.86248 0.0
H258 H 0.074 0.98645 0.70532 0.0
H259 H 0.74719 0.90214 0.75743 0.0
H260 H 0.14362 0.06386 0.71388 0.0
H261 H 0.83243 0.64982 0.82808 0.0
H262 H 0.71718 0.65527 0.78588 0.0
H263 H 0.22187 0.79608 0.75923 0.0
H264 H 0.5932 0.78479 0.72952 0.0
H265 H 0.62487 0.8702 0.72788 0.0
H266 H 0.36389 0.03025 0.79014 0.0
H267 H 0.62946 0.70437 0.75051 0.0
H268 H 0.41356 0.86831 0.81316 0.0
H269 H 0.3474 0.79416 0.79324 0.0
N270 N 0.21249 0.87039 0.76268 0.0
C271 C 0.25115 0.91154 0.77105 0.0
C272 C 0.24845 0.82866 0.76879 0.0
C273 C 0.35755 0.86936 0.79881 0.0
C274 C 0.3204 0.82743 0.7876 0.0
C275 C 0.32416 0.9122 0.78975 0.0
H276 H 0.41864 0.95663 0.81225 0.0
N277 N 0.15245 0.95077 0.73922 0.0
C278 C 0.22083 0.95299 0.7585 0.0
C279 C 0.23264 0.03662 0.7487 0.0
C280 C 0.26195 0.99618 0.7644 0.0
C281 C 0.12652 0.98935 0.72189 0.0
C282 C 0.16561 0.033 0.72676 0.0
O283 O 0.89128 0.8366 0.74635 0.0
O284 O 0.01592 0.8089 0.73424 0.0
O285 O 0.06776 0.88491 0.67829 0.0
O286 O 0.18098 0.85942 0.69659 0.0
O287 O 0.02388 0.8369 0.81873 0.0
O288 O 0.08068 0.81111 0.7674 0.0
O289 O 0.0563 0.93486 0.77143 0.0
O290 O 0.01927 0.89572 0.82085 0.0
O291 O 0.84489 0.8551 0.8535 0.0
O292 O 0.83726 0.92096 0.82458 0.0
O293 O 0.96957 0.90641 0.71691 0.0
O294 O 0.90013 0.92674 0.76732 0.0
C295 C 0.9375 0.80624 0.7309 0.0
C296 C 0.07196 0.80925 0.80148 0.0
C297 C 0.13624 0.8338 0.64118 0.0
C298 C 0.15084 0.81679 0.57908 0.0
C299 C 0.12445 0.75349 0.62049 0.0
C300 C 0.12357 0.78583 0.64788 0.0
C301 C 0.13838 0.76872 0.58637 0.0
C302 C 0.14854 0.84919 0.60683 0.0
C303 C 0.13697 0.86846 0.66957 0.0
C304 C 0.332 0.99732 0.78485 0.0
C305 C 0.36307 0.95539 0.7975 0.0
H306 H 0.26247 0.07052 0.75261 0.0
C307 C 0.05498 0.93151 0.80543 0.0
C308 C 0.91665 0.93154 0.73378 0.0
C309 C 0.77105 0.9182 0.88115 0.0
C310 C 0.73375 0.92366 0.94274 0.0
C311 C 0.67101 0.97346 0.89977 0.0
C312 C 0.71684 0.9536 0.87343 0.0
C313 C 0.6792 0.95862 0.93416 0.0
C314 C 0.77939 0.90323 0.91596 0.0
C315 C 0.81896 0.89773 0.85277 0.0
H316 H 0.11492 0.71645 0.62576 0.0
H317 H 0.11333 0.77348 0.67421 0.0
H318 H 0.14029 0.74278 0.56572 0.0
H319 H 0.15572 0.88648 0.60181 0.0
H320 H 0.6292 1.00066 0.89355 0.0
H321 H 0.70945 0.96573 0.84692 0.0
H322 H 0.64374 0.97507 0.95422 0.0
H323 H 0.8213 0.87603 0.9222 0.0
C324 C 0.78812 0.661 0.2915 0.0
C325 C 0.81287 0.7421 0.30919 0.0
C326 C 0.75932 0.70379 0.30274 0.0
C327 C 0.89568 0.7369 0.30387 0.0
C328 C 0.8712 0.65588 0.28574 0.0
C329 C 0.9247 0.69402 0.29195 0.0
N330 N 0.73525 0.62425 0.28689 0.0
C331 C 0.76201 0.58105 0.27762 0.0
C332 C 0.89822 0.61233 0.27443 0.0
C333 C 0.84343 0.57472 0.27053 0.0
Gd334 Gd 0.41647 0.63861 0.23269 0.0
Gd335 Gd 0.60159 0.63855 0.30253 0.0
N336 N 0.67899 0.7079 0.30753 0.0
C337 C 0.78158 0.78439 0.32107 0.0
C338 C 0.64851 0.74826 0.32071 0.0
C339 C 0.69904 0.78739 0.32699 0.0
H340 H 0.58529 0.75007 0.3266 0.0
H341 H 0.6745 0.81958 0.33694 0.0
H342 H 0.45479 0.53394 0.19407 0.0
H343 H 0.72154 0.55087 0.27657 0.0
H344 H 0.39662 0.45379 0.19333 0.0
H345 H 0.82071 0.81464 0.32625 0.0
H346 H 0.93774 0.76589 0.30872 0.0
H347 H 0.28468 0.70429 0.27458 0.0
H348 H 0.96131 0.6071 0.26923 0.0
H349 H 0.86415 0.54055 0.26278 0.0
H350 H 0.15071 0.46561 0.25753 0.0
H351 H 0.9887 0.69063 0.28782 0.0
H352 H 0.08369 0.6161 0.30378 0.0
H353 H 0.15236 0.69419 0.30321 0.0
N354 N 0.2923 0.6323 0.26092 0.0
C355 C 0.25388 0.58959 0.25921 0.0
C356 C 0.25595 0.66992 0.27544 0.0
C357 C 0.14156 0.62037 0.2911 0.0
C358 C 0.1805 0.66443 0.29115 0.0
C359 C 0.17786 0.58232 0.2748 0.0
H360 H 0.08307 0.53101 0.28621 0.0
N361 N 0.36545 0.56098 0.22767 0.0
C362 C 0.2922 0.55272 0.24277 0.0
C363 C 0.29431 0.47148 0.22463 0.0
C364 C 0.25509 0.50762 0.24188 0.0
C365 C 0.40128 0.52654 0.20898 0.0
C366 C 0.36721 0.48114 0.20776 0.0
O367 O 0.60734 0.69612 0.26162 0.0
O368 O 0.53681 0.66701 0.21359 0.0
O369 O 0.36424 0.62741 0.18106 0.0
O370 O 0.35159 0.69392 0.20724 0.0
O371 O 0.48546 0.6728 0.31518 0.0
O372 O 0.43826 0.70477 0.26443 0.0
O373 O 0.40189 0.6064 0.28705 0.0
O374 O 0.52326 0.57328 0.29694 0.0
O375 O 0.56928 0.65046 0.35641 0.0
O376 O 0.67184 0.60822 0.34408 0.0
O377 O 0.52933 0.60327 0.21421 0.0
O378 O 0.58982 0.57745 0.26497 0.0
C379 C 0.58957 0.6963 0.22814 0.0
C380 C 0.45 0.70628 0.2983 0.0
C381 C 0.35424 0.69506 0.14502 0.0
C382 C 0.35576 0.69552 0.08115 0.0
C383 C 0.3913 0.76642 0.11346 0.0
C384 C 0.37594 0.74315 0.14477 0.0
C385 C 0.38187 0.74273 0.08184 0.0
C386 C 0.3424 0.67159 0.11284 0.0
C387 C 0.33944 0.6702 0.17853 0.0
C388 C 0.17986 0.50009 0.25786 0.0
C389 C 0.14123 0.53735 0.27414 0.0
H390 H 0.26791 0.43631 0.22345 0.0
C391 C 0.44482 0.57273 0.30039 0.0
C392 C 0.58008 0.57652 0.23088 0.0
C393 C 0.60645 0.59469 0.39786 0.0
C394 C 0.60602 0.58209 0.46051 0.0
C395 C 0.54226 0.52452 0.42168 0.0
C396 C 0.56399 0.55206 0.39295 0.0
C397 C 0.56306 0.53939 0.45534 0.0
C398 C 0.62777 0.60943 0.43154 0.0
C399 C 0.62716 0.62541 0.36858 0.0
H400 H 0.40941 0.8032 0.11369 0.0
H401 H 0.38129 0.76298 0.16879 0.0
H402 H 0.39236 0.76174 0.05778 0.0
H403 H 0.32216 0.63511 0.11239 0.0
H404 H 0.50932 0.4916 0.41785 0.0
H405 H 0.54785 0.54029 0.36704 0.0
H406 H 0.54639 0.51735 0.47727 0.0
H407 H 0.66022 0.64262 0.43525 0.0
C408 C 0.13171 0.94598 0.32925 0.0
C409 C 0.16672 0.95313 0.36237 0.0
C410 C 0.10629 0.98376 0.30924 0.0
C411 C 0.11368 0.02985 0.32194 0.0
H412 H 0.12375 0.91084 0.31872 0.0
H413 H 0.07879 0.97674 0.28409 0.0
S414 S 0.20452 0.06801 0.40593 0.0
N415 N 0.21078 0.01025 0.40606 0.0
N416 N 0.16014 0.08119 0.36889 0.0
C417 C 0.14833 0.03766 0.3549 0.0
C418 C 0.17533 0.99929 0.37508 0.0
C419 C 0.35617 0.5557 0.83155 0.0
C420 C 0.32747 0.55125 0.86603 0.0
C421 C 0.37721 0.51644 0.81191 0.0
C422 C 0.3738 0.47133 0.82637 0.0
H423 H 0.36309 0.58991 0.81953 0.0
H424 H 0.39875 0.52168 0.78559 0.0
S425 S 0.29947 0.43917 0.91433 0.0
N426 N 0.29165 0.49678 0.91268 0.0
N427 N 0.33757 0.42351 0.87646 0.0
C428 C 0.34554 0.46599 0.86063 0.0
C429 C 0.32134 0.5058 0.88034 0.0
C430 C 0.67846 0.49851 0.67082 0.0
C431 C 0.67272 0.54579 0.68101 0.0
C432 C 0.63979 0.46258 0.6898 0.0
C433 C 0.59447 0.4729 0.71955 0.0
H434 H 0.71222 0.48937 0.64776 0.0
H435 H 0.64559 0.42656 0.68122 0.0
S436 S 0.5569 0.59118 0.75573 0.0
N437 N 0.61608 0.6011 0.7219 0.0
N438 N 0.54377 0.53362 0.75766 0.0
C439 C 0.58872 0.51996 0.73009 0.0
C440 C 0.62791 0.55644 0.71081 0.0
C441 C 0.87112 0.95745 0.19993 0.0
C442 C 0.82642 0.96771 0.16978 0.0
C443 C 0.90497 0.9932 0.22085 0.0
C444 C 0.89714 0.04064 0.21208 0.0
H445 H 0.88082 0.92141 0.20737 0.0
H446 H 0.9388 0.98356 0.24375 0.0
S447 S 0.78214 0.08732 0.13784 0.0
N448 N 0.77189 0.02971 0.1339 0.0
N449 N 0.83948 0.09663 0.17243 0.0
C450 C 0.8529 0.05173 0.18226 0.0
C451 C 0.81671 0.01537 0.16128 0.0
C452 C 0.84669 0.05275 0.71205 0.0
C453 C 0.82732 0.04946 0.67629 0.0
C454 C 0.87152 0.01379 0.73085 0.0
C455 C 0.88036 0.97022 0.71448 0.0
H456 H 0.84481 0.0861 0.72561 0.0
H457 H 0.88695 0.01835 0.75807 0.0
S458 S 0.82999 0.94079 0.62275 0.0
N459 N 0.81141 0.99726 0.62628 0.0
N460 N 0.86274 0.9245 0.66137 0.0
C461 C 0.85959 0.96578 0.6791 0.0
C462 C 0.83225 0.00528 0.66004 0.0
C463 C 0.64055 0.45322 0.2094 0.0
C464 C 0.66731 0.45666 0.17468 0.0
C465 C 0.61476 0.49253 0.2276 0.0
C466 C 0.61339 0.53675 0.21164 0.0
H467 H 0.63807 0.41961 0.22254 0.0
H468 H 0.59345 0.48789 0.25406 0.0
S469 S 0.68102 0.56575 0.12214 0.0
N470 N 0.69494 0.50876 0.12571 0.0
N471 N 0.64303 0.58258 0.15977 0.0
C472 C 0.64018 0.54106 0.17711 0.0
C473 C 0.66785 0.50104 0.15863 0.0
C474 C 0.4111 0.45365 0.34335 0.0
C475 C 0.3418 0.45987 0.36352 0.0
C476 C 0.44296 0.49019 0.32264 0.0
C477 C 0.4062 0.53414 0.32102 0.0
H478 H 0.44119 0.42041 0.34382 0.0
H479 H 0.49713 0.48397 0.30787 0.0
S480 S 0.21964 0.56621 0.36736 0.0
N481 N 0.23494 0.5117 0.37954 0.0
N482 N 0.2943 0.58054 0.34072 0.0
C483 C 0.33546 0.54012 0.34047 0.0
C484 C 0.30355 0.50299 0.36177 0.0
C485 C 0.17585 0.99578 0.87528 0.0
C486 C 0.16779 0.0433 0.86619 0.0
C487 C 0.13747 0.95977 0.85599 0.0
C488 C 0.09092 0.9699 0.8266 0.0
H489 H 0.21325 0.98622 0.8971 0.0
H490 H 0.14591 0.92374 0.86366 0.0
S491 S 0.04353 0.08814 0.7937 0.0
N492 N 0.10342 0.09836 0.82734 0.0
N493 N 0.03404 0.03046 0.79057 0.0
C494 C 0.08098 0.01706 0.81755 0.0
C495 C 0.11883 0.05379 0.83743 0.0
C496 C 0.23623 0.14891 1.00219 0.0
C497 C 0.26042 0.11165 0.9808 0.0
C498 C 0.24303 0.14648 0.03864 0.0
C499 C 0.27577 0.10711 0.05488 0.0
H500 H 0.21148 0.18002 0.99065 0.0
H501 H 0.22389 0.17592 0.0542 0.0
S502 S 0.34784 1.00034 1.01064 0.0
N503 N 0.31781 0.03417 0.97857 0.0
N504 N 0.33138 0.02989 0.04692 0.0
C505 C 0.30002 0.06968 0.0338 0.0
C506 C 0.29208 0.07186 0.99681 0.0
C507 C 0.33777 0.40428 0.4993 0.0
C508 C 0.26944 0.38945 0.47997 0.0
C509 C 0.33375 0.4116 0.53558 0.0
C510 C 0.26108 0.40476 0.55383 0.0
H511 H 0.39451 0.41111 0.48618 0.0
H512 H 0.38688 0.42475 0.54916 0.0
S513 S 0.06568 0.3646 0.51618 0.0
N514 N 0.12734 0.36704 0.4825 0.0
N515 N 0.12034 0.38059 0.55034 0.0
C516 C 0.19317 0.38854 0.5351 0.0
C517 C 0.19719 0.38088 0.49832 0.0
C518 C 0.61108 0.31436 0.06085 0.0
C519 C 0.66699 0.34996 0.07026 0.0
C520 C 0.59934 0.30187 0.02577 0.0
C521 C 0.64421 0.32402 0.99903 0.0
H522 H 0.57682 0.29584 0.08076 0.0
H523 H 0.55497 0.27458 1.01959 0.0
S524 S 0.80269 0.41718 1.01121 0.0
N525 N 0.76893 0.40637 0.0509 0.0
N526 N 0.75014 0.38179 0.98516 0.0
C527 C 0.70099 0.35949 1.00846 0.0
C528 C 0.71162 0.37268 0.04404 0.0
C529 C 0.91062 0.18463 0.56352 0.0
C530 C 0.84335 0.15619 0.57207 0.0
C531 C 0.92831 0.19565 0.52864 0.0
C532 C 0.87864 0.17915 0.50113 0.0
H533 H 0.94945 0.19861 0.58393 0.0
H534 H 0.98126 0.21736 0.52323 0.0
S535 S 0.69231 0.10531 0.51093 0.0
N536 N 0.72634 0.11222 0.55107 0.0
N537 N 0.75686 0.13426 0.48572 0.0
C538 C 0.81076 0.15075 0.50972 0.0
C539 C 0.79374 0.13905 0.54513 0.0
C540 C 0.67968 0.89062 0.0359 0.0
C541 C 0.75365 0.89533 0.0535 0.0
C542 C 0.67436 0.89811 0.99986 0.0
C543 C 0.74295 0.90995 0.9799 0.0
H544 H 0.62496 0.88288 0.05032 0.0
H545 H 0.61573 0.89562 0.98759 0.0
S546 S 0.95185 0.92289 1.01304 0.0
N547 N 0.89778 0.90976 0.04794 0.0
N548 N 0.88772 0.92384 0.98019 0.0
C549 C 0.8178 0.91276 0.99691 0.0
C550 C 0.82313 0.90556 0.0337 0.0
C551 C 0.73338 0.62144 0.53808 0.0
C552 C 0.67711 0.62131 0.56536 0.0
C553 C 0.70954 0.6101 0.5039 0.0
C554 C 0.62883 0.59803 0.49605 0.0
H555 H 0.79666 0.62779 0.5435 0.0
H556 H 0.75508 0.60877 0.48378 0.0
S557 S 0.45697 0.59947 0.5574 0.0
N558 N 0.53617 0.61341 0.58163 0.0
N559 N 0.49167 0.59177 0.51754 0.0
C560 C 0.5715 0.60053 0.52274 0.0
C561 C 0.59557 0.61236 0.55735 0.0
C562 C 0.38328 0.65275 0.98827 0.0
C563 C 0.30351 0.64717 0.97643 0.0
C564 C 0.40015 0.66611 0.02287 0.0
C565 C 0.33787 0.67323 0.04695 0.0
H566 H 0.43282 0.64897 0.97026 0.0
H567 H 0.46218 0.67242 0.03057 0.0
S568 S 0.11937 0.65989 0.02962 0.0
N569 N 0.16199 0.64762 0.99192 0.0
N570 N 0.19386 0.67176 0.05702 0.0
C571 C 0.25817 0.66559 0.03586 0.0
C572 C 0.24094 0.65281 1.00056 0.0
C573 C 0.13551 0.82566 0.48027 0.0
C574 C 0.19634 0.85882 0.47189 0.0
C575 C 0.12028 0.81301 0.51498 0.0
C576 C 0.16592 0.83275 0.54259 0.0
H577 H 0.10021 0.80892 0.45975 0.0
H578 H 0.07257 0.78736 0.52019 0.0
S579 S 0.33372 0.92071 0.53353 0.0
N580 N 0.30233 0.91132 0.49322 0.0
N581 N 0.27592 0.8869 0.55853 0.0
C582 C 0.22675 0.86636 0.5343 0.0
C583 C 0.24155 0.87946 0.49893 0.0
C584 C 0.11887 0.31255 0.35362 0.0
C585 C 0.19515 0.30594 0.36824 0.0
C586 C 0.08024 0.27701 0.3339 0.0
C587 C 0.11714 0.23389 0.32779 0.0
H588 H 0.0893 0.34564 0.35717 0.0
H589 H 0.02189 0.28378 0.32274 0.0
S590 S 0.31616 0.19922 0.36151 0.0
N591 N 0.30569 0.25332 0.3761 0.0
N592 N 0.23361 0.18627 0.33916 0.0
C593 C 0.19327 0.22683 0.34271 0.0
C594 C 0.23214 0.26293 0.36295 0.0
C595 C 0.28844 0.23519 0.86322 0.0
C596 C 0.32898 0.19333 0.86885 0.0
C597 C 0.32297 0.27117 0.84281 0.0
C598 C 0.39919 0.26639 0.82744 0.0
H599 H 0.22925 0.23983 0.87427 0.0
H600 H 0.2899 0.30303 0.83925 0.0
S601 S 0.52803 0.16247 0.83386 0.0
N602 N 0.4478 0.1484 0.85735 0.0
N603 N 0.51306 0.2158 0.81887 0.0
C604 C 0.44013 0.22452 0.83303 0.0
C605 C 0.40481 0.18796 0.85372 0.0
C606 C 0.66378 0.24265 0.66551 0.0
C607 C 0.70898 0.20822 0.68225 0.0
C608 C 0.62297 0.2766 0.68449 0.0
C609 C 0.62187 0.27645 0.72118 0.0
H610 H 0.65854 0.24326 0.63742 0.0
H611 H 0.59066 0.30272 0.67008 0.0
S612 S 0.73278 0.1953 0.77822 0.0
N613 N 0.75696 0.17973 0.73826 0.0
N614 N 0.66922 0.23823 0.77368 0.0
C615 C 0.66601 0.24201 0.7384 0.0
C616 C 0.71191 0.20924 0.71907 0.0
C617 C 0.79611 0.29869 0.21567 0.0
C618 C 0.80656 0.30363 0.17944 0.0
C619 C 0.84049 0.2667 0.23486 0.0
C620 C 0.89441 0.23653 0.21852 0.0
H621 H 0.75283 0.31951 0.22948 0.0
H622 H 0.83246 0.26605 0.26275 0.0
S623 S 0.95138 0.23939 0.12467 0.0
N624 N 0.8833 0.28002 0.1287 0.0
N625 N 0.96045 0.21652 0.16382 0.0
C626 C 0.90706 0.24195 0.18231 0.0
C627 C 0.8643 0.27598 0.16303 0.0
C628 C 0.78984 0.74207 0.67072 0.0
C629 C 0.82383 0.69771 0.66714 0.0
C630 C 0.82772 0.77737 0.69094 0.0
C631 C 0.90089 0.76949 0.70814 0.0
H632 H 0.73211 0.74888 0.65897 0.0
H633 H 0.79898 0.81085 0.69346 0.0
S634 S 0.01592 0.65981 0.70542 0.0
N635 N 0.93579 0.64826 0.68113 0.0
N636 N 0.00713 0.71443 0.71908 0.0
C637 C 0.9367 0.72575 0.7037 0.0
C638 C 0.89798 0.68985 0.68329 0.0
C639 C 0.60882 0.79506 0.16211 0.0
C640 C 0.69002 0.80943 0.16488 0.0
C641 C 0.57773 0.75768 0.18226 0.0
C642 C 0.62633 0.73336 0.20568 0.0
H643 H 0.56871 0.81369 0.14511 0.0
H644 H 0.51468 0.74848 0.18039 0.0
S645 S 0.84605 0.75202 0.21718 0.0
N646 N 0.82041 0.79344 0.18971 0.0
N647 N 0.76216 0.72232 0.22648 0.0
C648 C 0.70844 0.74588 0.20715 0.0
C649 C 0.74012 0.78411 0.18696 0.0
C650 C 0.37555 0.82143 0.3333 0.0
C651 C 0.32411 0.80698 0.36077 0.0
C652 C 0.41489 0.78866 0.3125 0.0
C653 C 0.40627 0.74049 0.3192 0.0
H654 H 0.38577 0.85836 0.32781 0.0
H655 H 0.45367 0.80108 0.29161 0.0
S656 S 0.27799 0.68383 0.38675 0.0
N657 N 0.26354 0.74045 0.39167 0.0
N658 N 0.34357 0.67951 0.35475 0.0
C659 C 0.35653 0.7255 0.34674 0.0
C660 C 0.31405 0.75856 0.36702 0.0
C661 C 0.13724 0.69242 0.83618 0.0
C662 C 0.19086 0.70536 0.86333 0.0
C663 C 0.10165 0.72624 0.81518 0.0
C664 C 0.11581 0.77422 0.82143 0.0
H665 H 0.12188 0.65583 0.83122 0.0
H666 H 0.06044 0.71482 0.79479 0.0
S667 S 0.25462 0.82751 0.88665 0.0
N668 N 0.26123 0.77039 0.89274 0.0
N669 N 0.18835 0.83361 0.85509 0.0
C670 C 0.16879 0.78793 0.84816 0.0
C671 C 0.20755 0.75362 0.86875 0.0
loop_
_geom_bond_atom_site_label_1
_geom_bond_atom_site_label_2
_geom_bond_distance
_geom_bond_site_symmetry_2
_ccdc_geom_bond_type
H0 C3 0.931 . S
H1 C6 0.928 . S
H2 C8 0.930 . S
C3 H0 0.931 . S
C3 C4 1.413 . S
C3 C5 1.360 . S
C4 C3 1.413 . S
C4 C8 1.429 . S
C5 C3 1.360 . S
C5 C6 1.372 . S
C6 H1 0.928 . S
C6 C5 1.372 . S
C6 C7 1.404 . S
C7 C6 1.404 . S
C7 C8 1.391 . S
C8 H2 0.930 . S
C8 C4 1.429 . S
C8 C7 1.391 . S
H9 C12 0.931 . S
H10 C15 0.928 . S
H11 C17 0.930 . S
C12 H9 0.931 . S
C12 C13 1.413 . S
C12 C14 1.360 . S
C13 C12 1.413 . S
C13 C17 1.429 . S
C14 C12 1.360 . S
C14 C15 1.372 . S
C15 H10 0.928 . S
C15 C14 1.372 . S
C15 C16 1.404 . S
C16 C15 1.404 . S
C16 C17 1.391 . S
C17 H11 0.930 . S
C17 C13 1.429 . S
C17 C16 1.391 . S
H18 C21 0.931 . S
H19 C24 0.928 . S
H20 C26 0.930 . S
C21 H18 0.931 . S
C21 C22 1.413 . S
C21 C23 1.360 . S
C22 C21 1.413 . S
C22 C26 1.429 . S
C23 C21 1.360 . S
C23 C24 1.372 . S
C24 H19 0.928 . S
C24 C23 1.372 . S
C24 C25 1.404 . S
C25 C24 1.404 . S
C25 C26 1.391 . S
C26 H20 0.930 . S
C26 C22 1.429 . S
C26 C25 1.391 . S
H27 C30 0.931 . S
H28 C33 0.928 . S
H29 C35 0.930 . S
C30 H27 0.931 . S
C30 C31 1.413 . S
C30 C32 1.360 . S
C31 C30 1.413 . S
C31 C35 1.429 . S
C32 C30 1.360 . S
C32 C33 1.372 . S
C33 H28 0.928 . S
C33 C32 1.372 . S
C33 C34 1.404 . S
C34 C33 1.404 . S
C34 C35 1.391 . S
C35 H29 0.930 . S
C35 C31 1.429 . S
C35 C34 1.391 . S
H36 C39 0.931 . S
H37 C42 0.928 . S
H38 C44 0.930 . S
C39 H36 0.931 . S
C39 C40 1.413 . S
C39 C41 1.360 . S
C40 C39 1.413 . S
C40 C44 1.429 . S
C41 C39 1.360 . S
C41 C42 1.372 . S
C42 H37 0.928 . S
C42 C41 1.372 . S
C42 C43 1.404 . S
C43 C42 1.404 . S
C43 C44 1.391 . S
C44 H38 0.930 . S
C44 C40 1.429 . S
C44 C43 1.391 . S
H45 C48 0.931 . S
H46 C51 0.928 . S
H47 C53 0.930 . S
C48 H45 0.931 . S
C48 C49 1.413 . S
C48 C50 1.360 . S
C49 C48 1.413 . S
C49 C53 1.429 . S
C50 C48 1.360 . S
C50 C51 1.372 . S
C51 H46 0.928 . S
C51 C50 1.372 . S
C51 C52 1.404 . S
C52 C51 1.404 . S
C52 C53 1.391 . S
C53 H47 0.930 . S
C53 C49 1.429 . S
C53 C52 1.391 . S
H54 C57 0.931 . S
H55 C60 0.928 . S
H56 C62 0.930 . S
C57 H54 0.931 . S
C57 C58 1.413 . S
C57 C59 1.360 . S
C58 C57 1.413 . S
C58 C62 1.429 . S
C59 C57 1.360 . S
C59 C60 1.372 . S
C60 H55 0.928 . S
C60 C59 1.372 . S
C60 C61 1.404 . S
C61 C60 1.404 . S
C61 C62 1.391 . S
C62 H56 0.930 . S
C62 C58 1.429 . S
C62 C61 1.391 . S
H63 C66 0.931 . S
H64 C69 0.928 . S
H65 C71 0.930 . S
C66 H63 0.931 . S
C66 C67 1.413 . S
C66 C68 1.360 . S
C67 C66 1.413 . S
C67 C71 1.429 . S
C68 C66 1.360 . S
C68 C69 1.372 . S
C69 H64 0.928 . S
C69 C68 1.372 . S
C69 C70 1.404 . S
C70 C69 1.404 . S
C70 C71 1.391 . S
C71 H65 0.930 . S
C71 C67 1.429 . S
C71 C70 1.391 . S
C72 C74 1.422 . S
C72 C76 1.415 . S
C72 N78 1.369 . S
C73 C74 1.421 . S
C73 C75 1.417 . S
C73 C85 1.422 1_545 S
C74 C72 1.422 . S
C74 C73 1.421 . S
C74 N84 1.359 . S
C75 C73 1.417 . S
C75 C77 1.329 . S
C75 H94 0.930 1_545 S
C76 C72 1.415 . S
C76 C77 1.437 . S
C76 C80 1.413 . S
C77 C75 1.329 . S
C77 C76 1.437 . S
C77 H99 0.929 . S
N78 C72 1.369 . S
N78 C79 1.338 . S
N78 Gd83 2.622 . S
C79 N78 1.338 . S
C79 C81 1.378 . S
C79 H91 0.929 . S
C80 C76 1.413 . S
C80 C81 1.348 . S
C80 H96 0.931 . S
C81 C79 1.378 . S
C81 C80 1.348 . S
C81 H97 0.930 . S
Gd82 N102 2.622 . S
Gd82 N109 2.570 . S
Gd82 O116 2.353 1_455 S
Gd82 O117 2.468 . S
Gd82 O118 2.427 . S
Gd82 O120 2.388 . S
Gd82 O121 2.386 . S
Gd82 O125 2.307 1_455 S
Gd82 C135 2.805 . S
Gd83 N78 2.622 . S
Gd83 N84 2.570 . S
Gd83 O115 2.386 . S
Gd83 O119 2.307 1_655 S
Gd83 O122 2.353 1_655 S
Gd83 O123 2.468 . S
Gd83 O124 2.427 . S
Gd83 O126 2.388 . S
Gd83 C147 2.805 . S
N84 C74 1.359 . S
N84 Gd83 2.570 . S
N84 C86 1.343 . S
C85 C73 1.422 1_565 S
C85 C87 1.321 . S
C85 H93 0.931 . S
C86 N84 1.343 . S
C86 C87 1.390 1_545 S
C86 H88 0.931 . S
C87 C85 1.321 . S
C87 C86 1.390 1_565 S
C87 H89 0.930 . S
H88 C86 0.931 . S
H89 C87 0.930 . S
H90 C113 0.931 . S
H91 C79 0.929 . S
H92 C114 0.930 . S
H93 C85 0.931 . S
H94 C75 0.930 1_565 S
H95 C104 0.929 . S
H96 C80 0.931 . S
H97 C81 0.930 . S
H98 C136 0.930 . S
H99 C77 0.929 . S
H100 C105 0.931 . S
H101 C106 0.930 . S
N102 Gd82 2.622 . S
N102 C103 1.369 . S
N102 C104 1.338 . S
C103 N102 1.369 . S
C103 C107 1.415 . S
C103 C110 1.422 . S
C104 H95 0.929 . S
C104 N102 1.338 . S
C104 C106 1.378 . S
C105 H100 0.931 . S
C105 C106 1.348 . S
C105 C107 1.413 . S
C106 H101 0.930 . S
C106 C104 1.378 . S
C106 C105 1.348 . S
C107 C103 1.415 . S
C107 C105 1.413 . S
C107 C137 1.437 . S
H108 C137 0.929 . S
N109 Gd82 2.570 . S
N109 C110 1.359 . S
N109 C113 1.343 . S
C110 C103 1.422 . S
C110 N109 1.359 . S
C110 C112 1.421 . S
C111 C112 1.422 . S
C111 C114 1.321 . S
C111 H138 0.931 . S
C112 C110 1.421 . S
C112 C111 1.422 . S
C112 C136 1.417 . S
C113 H90 0.931 . S
C113 N109 1.343 . S
C113 C114 1.390 . S
C114 H92 0.930 . S
C114 C111 1.321 . S
C114 C113 1.390 . S
O115 Gd83 2.386 . S
O115 C127 1.265 . S
O116 Gd82 2.353 1_655 S
O116 C127 1.242 . S
O117 Gd82 2.468 . S
O117 C135 1.263 . S
O118 Gd82 2.427 . S
O118 C135 1.252 . S
O119 Gd83 2.307 1_455 S
O119 C128 1.261 . S
O120 Gd82 2.388 . S
O120 C128 1.252 . S
O121 Gd82 2.386 . S
O121 C139 1.265 . S
O122 Gd83 2.353 1_455 S
O122 C139 1.242 . S
O123 Gd83 2.468 . S
O123 C147 1.263 . S
O124 Gd83 2.427 . S
O124 C147 1.252 . S
O125 Gd82 2.307 1_655 S
O125 C140 1.261 . S
O126 Gd83 2.388 . S
O126 C140 1.252 . S
C127 O115 1.265 . S
C127 O116 1.242 . S
C128 O119 1.261 . S
C128 O120 1.252 . S
C129 C132 1.394 . S
C129 C134 1.370 . S
C129 C135 1.500 . S
C130 C133 1.383 . S
C130 C134 1.395 . S
C131 C132 1.396 . S
C131 C133 1.365 . S
C131 H148 0.929 . S
C132 C129 1.394 . S
C132 C131 1.396 . S
C132 H149 0.930 . S
C133 C130 1.383 . S
C133 C131 1.365 . S
C133 H150 0.931 . S
C134 C129 1.370 . S
C134 C130 1.395 . S
C134 H151 0.930 . S
C135 Gd82 2.805 . S
C135 O117 1.263 . S
C135 O118 1.252 . S
C135 C129 1.500 . S
C136 H98 0.930 . S
C136 C112 1.417 . S
C136 C137 1.329 . S
C137 C107 1.437 . S
C137 H108 0.929 . S
C137 C136 1.329 . S
H138 C111 0.931 . S
C139 O121 1.265 . S
C139 O122 1.242 . S
C140 O125 1.261 . S
C140 O126 1.252 . S
C141 C144 1.394 . S
C141 C146 1.370 . S
C141 C147 1.500 . S
C142 C145 1.383 . S
C142 C146 1.395 . S
C143 C144 1.396 . S
C143 C145 1.365 . S
C143 H152 0.929 . S
C144 C141 1.394 . S
C144 C143 1.396 . S
C144 H153 0.930 . S
C145 C142 1.383 . S
C145 C143 1.365 . S
C145 H154 0.931 . S
C146 C141 1.370 . S
C146 C142 1.395 . S
C146 H155 0.930 . S
C147 Gd83 2.805 . S
C147 O123 1.263 . S
C147 O124 1.252 . S
C147 C141 1.500 . S
H148 C131 0.929 . S
H149 C132 0.930 . S
H150 C133 0.931 . S
H151 C134 0.930 . S
H152 C143 0.929 . S
H153 C144 0.930 . S
H154 C145 0.931 . S
H155 C146 0.930 . S
C156 C158 1.422 . S
C156 C160 1.415 . S
C156 N162 1.369 . S
C157 C158 1.421 . S
C157 C159 1.417 . S
C157 C169 1.422 . S
C158 C156 1.422 . S
C158 C157 1.421 . S
C158 N168 1.359 . S
C159 C157 1.417 . S
C159 C161 1.329 . S
C159 H178 0.930 . S
C160 C156 1.415 . S
C160 C161 1.437 . S
C160 C164 1.413 . S
C161 C159 1.329 . S
C161 C160 1.437 . S
C161 H183 0.929 . S
N162 C156 1.369 . S
N162 C163 1.338 . S
N162 Gd167 2.622 . S
C163 N162 1.338 . S
C163 C165 1.378 . S
C163 H175 0.929 . S
C164 C160 1.413 . S
C164 C165 1.348 . S
C164 H180 0.931 . S
C165 C163 1.378 . S
C165 C164 1.348 . S
C165 H181 0.930 . S
Gd166 N186 2.622 . S
Gd166 N193 2.570 . S
Gd166 O200 2.353 . S
Gd166 O201 2.468 . S
Gd166 O202 2.427 . S
Gd166 O204 2.388 . S
Gd166 O205 2.386 . S
Gd166 O209 2.307 . S
Gd166 C219 2.805 . S
Gd167 N162 2.622 . S
Gd167 N168 2.570 . S
Gd167 O199 2.386 . S
Gd167 O203 2.307 . S
Gd167 O206 2.353 . S
Gd167 O207 2.468 . S
Gd167 O208 2.427 . S
Gd167 O210 2.388 . S
Gd167 C231 2.805 . S
N168 C158 1.359 . S
N168 Gd167 2.570 . S
N168 C170 1.343 . S
C169 C157 1.422 . S
C169 C171 1.321 . S
C169 H177 0.931 . S
C170 N168 1.343 . S
C170 C171 1.390 . S
C170 H172 0.931 . S
C171 C169 1.321 . S
C171 C170 1.390 . S
C171 H173 0.930 . S
H172 C170 0.931 . S
H173 C171 0.930 . S
H174 C197 0.931 . S
H175 C163 0.929 . S
H176 C198 0.930 . S
H177 C169 0.931 . S
H178 C159 0.930 . S
H179 C188 0.929 . S
H180 C164 0.931 . S
H181 C165 0.930 . S
H182 C220 0.930 . S
H183 C161 0.929 . S
H184 C189 0.931 . S
H185 C190 0.930 . S
N186 Gd166 2.622 . S
N186 C187 1.369 . S
N186 C188 1.338 . S
C187 N186 1.369 . S
C187 C191 1.415 . S
C187 C194 1.422 . S
C188 H179 0.929 . S
C188 N186 1.338 . S
C188 C190 1.378 . S
C189 H184 0.931 . S
C189 C190 1.348 . S
C189 C191 1.413 . S
C190 H185 0.930 . S
C190 C188 1.378 . S
C190 C189 1.348 . S
C191 C187 1.415 . S
C191 C189 1.413 . S
C191 C221 1.437 . S
H192 C221 0.929 . S
N193 Gd166 2.570 . S
N193 C194 1.359 . S
N193 C197 1.343 . S
C194 C187 1.422 . S
C194 N193 1.359 . S
C194 C196 1.421 . S
C195 C196 1.422 . S
C195 C198 1.321 . S
C195 H222 0.931 . S
C196 C194 1.421 . S
C196 C195 1.422 . S
C196 C220 1.417 . S
C197 H174 0.931 . S
C197 N193 1.343 . S
C197 C198 1.390 . S
C198 H176 0.930 . S
C198 C195 1.321 . S
C198 C197 1.390 . S
O199 Gd167 2.386 . S
O199 C211 1.265 . S
O200 Gd166 2.353 . S
O200 C211 1.242 . S
O201 Gd166 2.468 . S
O201 C219 1.263 . S
O202 Gd166 2.427 . S
O202 C219 1.252 . S
O203 Gd167 2.307 . S
O203 C212 1.261 . S
O204 Gd166 2.388 . S
O204 C212 1.252 . S
O205 Gd166 2.386 . S
O205 C223 1.265 . S
O206 Gd167 2.353 . S
O206 C223 1.242 . S
O207 Gd167 2.468 . S
O207 C231 1.263 . S
O208 Gd167 2.427 . S
O208 C231 1.252 . S
O209 Gd166 2.307 . S
O209 C224 1.261 . S
O210 Gd167 2.388 . S
O210 C224 1.252 . S
C211 O199 1.265 . S
C211 O200 1.242 . S
C212 O203 1.261 . S
C212 O204 1.252 . S
C213 C216 1.394 . S
C213 C218 1.370 . S
C213 C219 1.500 . S
C214 C217 1.383 . S
C214 C218 1.395 . S
C215 C216 1.396 . S
C215 C217 1.365 . S
C215 H232 0.929 . S
C216 C213 1.394 . S
C216 C215 1.396 . S
C216 H233 0.930 . S
C217 C214 1.383 . S
C217 C215 1.365 . S
C217 H234 0.931 . S
C218 C213 1.370 . S
C218 C214 1.395 . S
C218 H235 0.930 . S
C219 Gd166 2.805 . S
C219 O201 1.263 . S
C219 O202 1.252 . S
C219 C213 1.500 . S
C220 H182 0.930 . S
C220 C196 1.417 . S
C220 C221 1.329 . S
C221 C191 1.437 . S
C221 H192 0.929 . S
C221 C220 1.329 . S
H222 C195 0.931 . S
C223 O205 1.265 . S
C223 O206 1.242 . S
C224 O209 1.261 . S
C224 O210 1.252 . S
C225 C228 1.394 . S
C225 C230 1.370 . S
C225 C231 1.500 . S
C226 C229 1.383 . S
C226 C230 1.395 . S
C227 C228 1.396 . S
C227 C229 1.365 . S
C227 H236 0.929 . S
C228 C225 1.394 . S
C228 C227 1.396 . S
C228 H237 0.930 . S
C229 C226 1.383 . S
C229 C227 1.365 . S
C229 H238 0.931 . S
C230 C225 1.370 . S
C230 C226 1.395 . S
C230 H239 0.930 . S
C231 Gd167 2.805 . S
C231 O207 1.263 . S
C231 O208 1.252 . S
C231 C225 1.500 . S
H232 C215 0.929 . S
H233 C216 0.930 . S
H234 C217 0.931 . S
H235 C218 0.930 . S
H236 C227 0.929 . S
H237 C228 0.930 . S
H238 C229 0.931 . S
H239 C230 0.930 . S
C240 C242 1.422 . S
C240 C244 1.415 . S
C240 N246 1.369 . S
C241 C242 1.421 . S
C241 C243 1.417 . S
C241 C253 1.422 . S
C242 C240 1.422 . S
C242 C241 1.421 . S
C242 N252 1.359 . S
C243 C241 1.417 . S
C243 C245 1.329 . S
C243 H262 0.930 . S
C244 C240 1.415 . S
C244 C245 1.437 . S
C244 C248 1.413 . S
C245 C243 1.329 . S
C245 C244 1.437 . S
C245 H267 0.929 . S
N246 C240 1.369 . S
N246 C247 1.338 . S
N246 Gd251 2.622 . S
C247 N246 1.338 . S
C247 C249 1.378 . S
C247 H259 0.929 . S
C248 C244 1.413 . S
C248 C249 1.348 . S
C248 H264 0.931 . S
C249 C247 1.378 . S
C249 C248 1.348 . S
C249 H265 0.930 . S
Gd250 N270 2.622 . S
Gd250 N277 2.570 . S
Gd250 O284 2.353 . S
Gd250 O285 2.468 . S
Gd250 O286 2.427 . S
Gd250 O288 2.388 . S
Gd250 O289 2.386 . S
Gd250 O293 2.318 . S
Gd250 C303 2.805 . S
Gd251 N246 2.622 . S
Gd251 N252 2.570 . S
Gd251 O283 2.386 . S
Gd251 O287 2.307 1_655 S
Gd251 O290 2.353 1_655 S
Gd251 O291 2.468 . S
Gd251 O292 2.427 . S
Gd251 O294 2.388 . S
Gd251 C315 2.805 . S
N252 C242 1.359 . S
N252 Gd251 2.570 . S
N252 C254 1.343 . S
C253 C241 1.422 . S
C253 C255 1.321 . S
C253 H261 0.931 . S
C254 N252 1.343 . S
C254 C255 1.390 . S
C254 H256 0.931 . S
C255 C253 1.321 . S
C255 C254 1.390 . S
C255 H257 0.930 . S
H256 C254 0.931 . S
H257 C255 0.930 . S
H258 C281 0.931 . S
H259 C247 0.929 . S
H260 C282 0.930 . S
H261 C253 0.931 . S
H262 C243 0.930 . S
H263 C272 0.929 . S
H264 C248 0.931 . S
H265 C249 0.930 . S
H266 C304 0.930 1_545 S
H267 C245 0.929 . S
H268 C273 0.931 . S
H269 C274 0.930 . S
N270 Gd250 2.622 . S
N270 C271 1.369 . S
N270 C272 1.338 . S
C271 N270 1.369 . S
C271 C275 1.415 . S
C271 C278 1.422 . S
C272 H263 0.929 . S
C272 N270 1.338 . S
C272 C274 1.378 . S
C273 H268 0.931 . S
C273 C274 1.348 . S
C273 C275 1.413 . S
C274 H269 0.930 . S
C274 C272 1.378 . S
C274 C273 1.348 . S
C275 C271 1.415 . S
C275 C273 1.413 . S
C275 C305 1.437 . S
H276 C305 0.929 . S
N277 Gd250 2.570 . S
N277 C278 1.359 . S
N277 C281 1.343 . S
C278 C271 1.422 . S
C278 N277 1.359 . S
C278 C280 1.421 . S
C279 C280 1.422 1_545 S
C279 C282 1.321 . S
C279 H306 0.931 . S
C280 C278 1.421 . S
C280 C279 1.422 1_565 S
C280 C304 1.417 . S
C281 H258 0.931 . S
C281 N277 1.343 . S
C281 C282 1.390 1_565 S
C282 H260 0.930 . S
C282 C279 1.321 . S
C282 C281 1.390 1_545 S
O283 Gd251 2.386 . S
O283 C295 1.265 . S
O284 Gd250 2.353 . S
O284 C295 1.242 1_455 S
O285 Gd250 2.468 . S
O285 C303 1.263 . S
O286 Gd250 2.427 . S
O286 C303 1.252 . S
O287 Gd251 2.307 1_455 S
O287 C296 1.261 . S
O288 Gd250 2.388 . S
O288 C296 1.252 . S
O289 Gd250 2.386 . S
O289 C307 1.265 . S
O290 Gd251 2.353 1_455 S
O290 C307 1.242 . S
O291 Gd251 2.468 . S
O291 C315 1.263 . S
O292 Gd251 2.427 . S
O292 C315 1.252 . S
O293 Gd250 2.318 . S
O293 C308 1.249 1_455 S
O294 Gd251 2.388 . S
O294 C308 1.252 . S
C295 O283 1.265 . S
C295 O284 1.242 1_655 S
C296 O287 1.261 . S
C296 O288 1.252 . S
C297 C300 1.394 . S
C297 C302 1.370 . S
C297 C303 1.500 . S
C298 C301 1.383 . S
C298 C302 1.395 . S
C299 C300 1.396 . S
C299 C301 1.365 . S
C299 H316 0.929 . S
C300 C297 1.394 . S
C300 C299 1.396 . S
C300 H317 0.930 . S
C301 C298 1.383 . S
C301 C299 1.365 . S
C301 H318 0.931 . S
C302 C297 1.370 . S
C302 C298 1.395 . S
C302 H319 0.930 . S
C303 Gd250 2.805 . S
C303 O285 1.263 . S
C303 O286 1.252 . S
C303 C297 1.500 . S
C304 H266 0.930 1_565 S
C304 C280 1.417 . S
C304 C305 1.329 . S
C305 C275 1.437 . S
C305 H276 0.929 . S
C305 C304 1.329 . S
H306 C279 0.931 . S
C307 O289 1.265 . S
C307 O290 1.242 . S
C308 O293 1.249 1_655 S
C308 O294 1.252 . S
C309 C312 1.394 . S
C309 C314 1.370 . S
C309 C315 1.500 . S
C310 C313 1.383 . S
C310 C314 1.395 . S
C311 C312 1.396 . S
C311 C313 1.365 . S
C311 H320 0.929 . S
C312 C309 1.394 . S
C312 C311 1.396 . S
C312 H321 0.930 . S
C313 C310 1.383 . S
C313 C311 1.365 . S
C313 H322 0.931 . S
C314 C309 1.370 . S
C314 C310 1.395 . S
C314 H323 0.930 . S
C315 Gd251 2.805 . S
C315 O291 1.263 . S
C315 O292 1.252 . S
C315 C309 1.500 . S
H316 C299 0.929 . S
H317 C300 0.930 . S
H318 C301 0.931 . S
H319 C302 0.930 . S
H320 C311 0.929 . S
H321 C312 0.930 . S
H322 C313 0.931 . S
H323 C314 0.930 . S
C324 C326 1.422 . S
C324 C328 1.415 . S
C324 N330 1.369 . S
C325 C326 1.421 . S
C325 C327 1.417 . S
C325 C337 1.422 . S
C326 C324 1.422 . S
C326 C325 1.421 . S
C326 N336 1.359 . S
C327 C325 1.417 . S
C327 C329 1.329 . S
C327 H346 0.930 . S
C328 C324 1.415 . S
C328 C329 1.437 . S
C328 C332 1.413 . S
C329 C327 1.329 . S
C329 C328 1.437 . S
C329 H351 0.929 . S
N330 C324 1.369 . S
N330 C331 1.338 . S
N330 Gd335 2.622 . S
C331 N330 1.338 . S
C331 C333 1.378 . S
C331 H343 0.929 . S
C332 C328 1.413 . S
C332 C333 1.348 . S
C332 H348 0.931 . S
C333 C331 1.378 . S
C333 C332 1.348 . S
C333 H349 0.930 . S
Gd334 N354 2.622 . S
Gd334 N361 2.570 . S
Gd334 O368 2.353 . S
Gd334 O369 2.468 . S
Gd334 O370 2.427 . S
Gd334 O372 2.388 . S
Gd334 O373 2.386 . S
Gd334 O377 2.307 . S
Gd334 C387 2.805 . S
Gd335 N330 2.622 . S
Gd335 N336 2.570 . S
Gd335 O367 2.386 . S
Gd335 O371 2.307 . S
Gd335 O374 2.353 . S
Gd335 O375 2.468 . S
Gd335 O376 2.427 . S
Gd335 O378 2.388 . S
Gd335 C399 2.805 . S
N336 C326 1.359 . S
N336 Gd335 2.570 . S
N336 C338 1.343 . S
C337 C325 1.422 . S
C337 C339 1.321 . S
C337 H345 0.931 . S
C338 N336 1.343 . S
C338 C339 1.390 . S
C338 H340 0.931 . S
C339 C337 1.321 . S
C339 C338 1.390 . S
C339 H341 0.930 . S
H340 C338 0.931 . S
H341 C339 0.930 . S
H342 C365 0.931 . S
H343 C331 0.929 . S
H344 C366 0.930 . S
H345 C337 0.931 . S
H346 C327 0.930 . S
H347 C356 0.929 . S
H348 C332 0.931 . S
H349 C333 0.930 . S
H350 C388 0.930 . S
H351 C329 0.929 . S
H352 C357 0.931 . S
H353 C358 0.930 . S
N354 Gd334 2.622 . S
N354 C355 1.369 . S
N354 C356 1.338 . S
C355 N354 1.369 . S
C355 C359 1.415 . S
C355 C362 1.422 . S
C356 H347 0.929 . S
C356 N354 1.338 . S
C356 C358 1.378 . S
C357 H352 0.931 . S
C357 C358 1.348 . S
C357 C359 1.413 . S
C358 H353 0.930 . S
C358 C356 1.378 . S
C358 C357 1.348 . S
C359 C355 1.415 . S
C359 C357 1.413 . S
C359 C389 1.437 . S
H360 C389 0.929 . S
N361 Gd334 2.570 . S
N361 C362 1.359 . S
N361 C365 1.343 . S
C362 C355 1.422 . S
C362 N361 1.359 . S
C362 C364 1.421 . S
C363 C364 1.422 . S
C363 C366 1.321 . S
C363 H390 0.931 . S
C364 C362 1.421 . S
C364 C363 1.422 . S
C364 C388 1.417 . S
C365 H342 0.931 . S
C365 N361 1.343 . S
C365 C366 1.390 . S
C366 H344 0.930 . S
C366 C363 1.321 . S
C366 C365 1.390 . S
O367 Gd335 2.386 . S
O367 C379 1.265 . S
O368 Gd334 2.353 . S
O368 C379 1.242 . S
O369 Gd334 2.468 . S
O369 C387 1.263 . S
O370 Gd334 2.427 . S
O370 C387 1.252 . S
O371 Gd335 2.307 . S
O371 C380 1.261 . S
O372 Gd334 2.388 . S
O372 C380 1.252 . S
O373 Gd334 2.386 . S
O373 C391 1.265 . S
O374 Gd335 2.353 . S
O374 C391 1.242 . S
O375 Gd335 2.468 . S
O375 C399 1.263 . S
O376 Gd335 2.427 . S
O376 C399 1.252 . S
O377 Gd334 2.307 . S
O377 C392 1.261 . S
O378 Gd335 2.388 . S
O378 C392 1.252 . S
C379 O367 1.265 . S
C379 O368 1.242 . S
C380 O371 1.261 . S
C380 O372 1.252 . S
C381 C384 1.394 . S
C381 C386 1.370 . S
C381 C387 1.500 . S
C382 C385 1.383 . S
C382 C386 1.395 . S
C383 C384 1.396 . S
C383 C385 1.365 . S
C383 H400 0.929 . S
C384 C381 1.394 . S
C384 C383 1.396 . S
C384 H401 0.930 . S
C385 C382 1.383 . S
C385 C383 1.365 . S
C385 H402 0.931 . S
C386 C381 1.370 . S
C386 C382 1.395 . S
C386 H403 0.930 . S
C387 Gd334 2.805 . S
C387 O369 1.263 . S
C387 O370 1.252 . S
C387 C381 1.500 . S
C388 H350 0.930 . S
C388 C364 1.417 . S
C388 C389 1.329 . S
C389 C359 1.437 . S
C389 H360 0.929 . S
C389 C388 1.329 . S
H390 C363 0.931 . S
C391 O373 1.265 . S
C391 O374 1.242 . S
C392 O377 1.261 . S
C392 O378 1.252 . S
C393 C396 1.394 . S
C393 C398 1.370 . S
C393 C399 1.500 . S
C394 C397 1.383 . S
C394 C398 1.395 . S
C395 C396 1.396 . S
C395 C397 1.365 . S
C395 H404 0.929 . S
C396 C393 1.394 . S
C396 C395 1.396 . S
C396 H405 0.930 . S
C397 C394 1.383 . S
C397 C395 1.365 . S
C397 H406 0.931 . S
C398 C393 1.370 . S
C398 C394 1.395 . S
C398 H407 0.930 . S
C399 Gd335 2.805 . S
C399 O375 1.263 . S
C399 O376 1.252 . S
C399 C393 1.500 . S
H400 C383 0.929 . S
H401 C384 0.930 . S
H402 C385 0.931 . S
H403 C386 0.930 . S
H404 C395 0.929 . S
H405 C396 0.930 . S
H406 C397 0.931 . S
H407 C398 0.930 . S
C408 C409 1.369 . S
C408 C410 1.419 . S
C408 H412 0.930 . S
C409 C408 1.369 . S
C409 C418 1.429 1_565 S
C410 C408 1.419 . S
C410 C411 1.363 1_565 S
C410 H413 0.929 . S
C411 C410 1.363 1_545 S
C411 C417 1.428 . S
H412 C408 0.930 . S
H413 C410 0.929 . S
S414 N415 1.613 . S
S414 N416 1.610 . S
N415 S414 1.613 . S
N415 C418 1.350 . S
N416 S414 1.610 . S
N416 C417 1.351 . S
C417 C411 1.428 . S
C417 N416 1.351 . S
C417 C418 1.434 . S
C418 C409 1.429 1_545 S
C418 N415 1.350 . S
C418 C417 1.434 . S
C419 C420 1.369 . S
C419 C421 1.419 . S
C419 H423 0.930 . S
C420 C419 1.369 . S
C420 C429 1.429 . S
C421 C419 1.419 . S
C421 C422 1.363 . S
C421 H424 0.929 . S
C422 C421 1.363 . S
C422 C428 1.428 . S
H423 C419 0.930 . S
H424 C421 0.929 . S
S425 N426 1.613 . S
S425 N427 1.610 . S
N426 S425 1.613 . S
N426 C429 1.350 . S
N427 S425 1.610 . S
N427 C428 1.351 . S
C428 C422 1.428 . S
C428 N427 1.351 . S
C428 C429 1.434 . S
C429 C420 1.429 . S
C429 N426 1.350 . S
C429 C428 1.434 . S
C430 C431 1.369 . S
C430 C432 1.419 . S
C430 H434 0.930 . S
C431 C430 1.369 . S
C431 C440 1.429 . S
C432 C430 1.419 . S
C432 C433 1.363 . S
C432 H435 0.929 . S
C433 C432 1.363 . S
C433 C439 1.428 . S
H434 C430 0.930 . S
H435 C432 0.929 . S
S436 N437 1.613 . S
S436 N438 1.610 . S
N437 S436 1.613 . S
N437 C440 1.350 . S
N438 S436 1.610 . S
N438 C439 1.351 . S
C439 C433 1.428 . S
C439 N438 1.351 . S
C439 C440 1.434 . S
C440 C431 1.429 . S
C440 N437 1.350 . S
C440 C439 1.434 . S
C441 C442 1.369 . S
C441 C443 1.419 . S
C441 H445 0.930 . S
C442 C441 1.369 . S
C442 C451 1.429 1_565 S
C443 C441 1.419 . S
C443 C444 1.363 1_565 S
C443 H446 0.929 . S
C444 C443 1.363 1_545 S
C444 C450 1.428 . S
H445 C441 0.930 . S
H446 C443 0.929 . S
S447 N448 1.613 . S
S447 N449 1.610 . S
N448 S447 1.613 . S
N448 C451 1.350 . S
N449 S447 1.610 . S
N449 C450 1.351 . S
C450 C444 1.428 . S
C450 N449 1.351 . S
C450 C451 1.434 . S
C451 C442 1.429 1_545 S
C451 N448 1.350 . S
C451 C450 1.434 . S
C452 C453 1.369 . S
C452 C454 1.419 . S
C452 H456 0.930 . S
C453 C452 1.369 . S
C453 C462 1.429 1_545 S
C454 C452 1.419 . S
C454 C455 1.363 1_545 S
C454 H457 0.929 . S
C455 C454 1.363 1_565 S
C455 C461 1.428 . S
H456 C452 0.930 . S
H457 C454 0.929 . S
S458 N459 1.613 . S
S458 N460 1.610 . S
N459 S458 1.613 . S
N459 C462 1.350 . S
N460 S458 1.610 . S
N460 C461 1.351 . S
C461 C455 1.428 . S
C461 N460 1.351 . S
C461 C462 1.434 . S
C462 C453 1.429 1_565 S
C462 N459 1.350 . S
C462 C461 1.434 . S
C463 C464 1.369 . S
C463 C465 1.419 . S
C463 H467 0.930 . S
C464 C463 1.369 . S
C464 C473 1.429 . S
C465 C463 1.419 . S
C465 C466 1.363 . S
C465 H468 0.929 . S
C466 C465 1.363 . S
C466 C472 1.428 . S
H467 C463 0.930 . S
H468 C465 0.929 . S
S469 N470 1.613 . S
S469 N471 1.610 . S
N470 S469 1.613 . S
N470 C473 1.350 . S
N471 S469 1.610 . S
N471 C472 1.351 . S
C472 C466 1.428 . S
C472 N471 1.351 . S
C472 C473 1.434 . S
C473 C464 1.429 . S
C473 N470 1.350 . S
C473 C472 1.434 . S
C474 C475 1.369 . S
C474 C476 1.419 . S
C474 H478 0.930 . S
C475 C474 1.369 . S
C475 C484 1.429 . S
C476 C474 1.419 . S
C476 C477 1.363 . S
C476 H479 0.929 . S
C477 C476 1.363 . S
C477 C483 1.428 . S
H478 C474 0.930 . S
H479 C476 0.929 . S
S480 N481 1.613 . S
S480 N482 1.610 . S
N481 S480 1.613 . S
N481 C484 1.350 . S
N482 S480 1.610 . S
N482 C483 1.351 . S
C483 C477 1.428 . S
C483 N482 1.351 . S
C483 C484 1.434 . S
C484 C475 1.429 . S
C484 N481 1.350 . S
C484 C483 1.434 . S
C485 C486 1.361 1_565 S
C485 C487 1.426 . S
C485 H489 0.931 . S
C486 C485 1.361 1_545 S
C486 C495 1.429 . S
C487 C485 1.426 . S
C487 C488 1.363 . S
C487 H490 0.929 . S
C488 C487 1.363 . S
C488 C494 1.428 1_565 S
H489 C485 0.931 . S
H490 C487 0.929 . S
S491 N492 1.613 . S
S491 N493 1.610 . S
N492 S491 1.613 . S
N492 C495 1.350 . S
N493 S491 1.610 . S
N493 C494 1.351 . S
C494 C488 1.428 1_545 S
C494 N493 1.351 . S
C494 C495 1.434 . S
C495 C486 1.429 . S
C495 N492 1.350 . S
C495 C494 1.434 . S
C496 C497 1.369 . S
C496 C498 1.419 1_556 S
C496 H500 0.930 . S
C497 C496 1.369 . S
C497 C506 1.429 . S
C498 C496 1.419 1_554 S
C498 C499 1.363 . S
C498 H501 0.929 . S
C499 C498 1.363 . S
C499 C505 1.428 . S
H500 C496 0.930 . S
H501 C498 0.929 . S
S502 N503 1.636 . S
S502 N504 1.591 1_556 S
N503 S502 1.636 . S
N503 C506 1.350 . S
N504 S502 1.591 1_554 S
N504 C505 1.351 . S
C505 C499 1.428 . S
C505 N504 1.351 . S
C505 C506 1.434 1_554 S
C506 C497 1.429 . S
C506 N503 1.350 . S
C506 C505 1.434 1_556 S
C507 C508 1.369 . S
C507 C509 1.419 . S
C507 H511 0.930 . S
C508 C507 1.369 . S
C508 C517 1.429 . S
C509 C507 1.419 . S
C509 C510 1.363 . S
C509 H512 0.929 . S
C510 C509 1.363 . S
C510 C516 1.428 . S
H511 C507 0.930 . S
H512 C509 0.929 . S
S513 N514 1.613 . S
S513 N515 1.610 . S
N514 S513 1.613 . S
N514 C517 1.350 . S
N515 S513 1.610 . S
N515 C516 1.351 . S
C516 C510 1.428 . S
C516 N515 1.351 . S
C516 C517 1.434 . S
C517 C508 1.429 . S
C517 N514 1.350 . S
C517 C516 1.434 . S
C518 C519 1.369 . S
C518 C520 1.419 1_554 S
C518 H522 0.930 . S
C519 C518 1.369 . S
C519 C528 1.429 . S
C520 C518 1.419 1_556 S
C520 C521 1.363 . S
C520 H523 0.929 . S
C521 C520 1.363 . S
C521 C527 1.428 . S
H522 C518 0.930 . S
H523 C520 0.929 . S
S524 N525 1.613 1_556 S
S524 N526 1.610 . S
N525 S524 1.613 1_554 S
N525 C528 1.350 . S
N526 S524 1.610 . S
N526 C527 1.351 . S
C527 C521 1.428 . S
C527 N526 1.351 . S
C527 C528 1.434 1_556 S
C528 C519 1.429 . S
C528 N525 1.350 . S
C528 C527 1.434 1_554 S
C529 C530 1.369 . S
C529 C531 1.419 . S
C529 H533 0.930 . S
C530 C529 1.369 . S
C530 C539 1.429 . S
C531 C529 1.419 . S
C531 C532 1.363 . S
C531 H534 0.929 . S
C532 C531 1.363 . S
C532 C538 1.428 . S
H533 C529 0.930 . S
H534 C531 0.929 . S
S535 N536 1.613 . S
S535 N537 1.610 . S
N536 S535 1.613 . S
N536 C539 1.350 . S
N537 S535 1.610 . S
N537 C538 1.351 . S
C538 C532 1.428 . S
C538 N537 1.351 . S
C538 C539 1.434 . S
C539 C530 1.429 . S
C539 N536 1.350 . S
C539 C538 1.434 . S
C540 C541 1.369 . S
C540 C542 1.419 1_554 S
C540 H544 0.930 . S
C541 C540 1.369 . S
C541 C550 1.429 . S
C542 C540 1.419 1_556 S
C542 C543 1.363 . S
C542 H545 0.929 . S
C543 C542 1.363 . S
C543 C549 1.428 . S
H544 C540 0.930 . S
H545 C542 0.929 . S
S546 N547 1.613 . S
S546 N548 1.610 1_554 S
N547 S546 1.613 . S
N547 C550 1.350 . S
N548 S546 1.610 1_556 S
N548 C549 1.351 . S
C549 C543 1.428 . S
C549 N548 1.351 . S
C549 C550 1.434 1_556 S
C550 C541 1.429 . S
C550 N547 1.350 . S
C550 C549 1.434 1_554 S
C551 C552 1.369 . S
C551 C553 1.419 . S
C551 H555 0.930 . S
C552 C551 1.369 . S
C552 C561 1.429 . S
C553 C551 1.419 . S
C553 C554 1.363 . S
C553 H556 0.929 . S
C554 C553 1.363 . S
C554 C560 1.428 . S
H555 C551 0.930 . S
H556 C553 0.929 . S
S557 N558 1.613 . S
S557 N559 1.610 . S
N558 S557 1.613 . S
N558 C561 1.350 . S
N559 S557 1.610 . S
N559 C560 1.351 . S
C560 C554 1.428 . S
C560 N559 1.351 . S
C560 C561 1.434 . S
C561 C552 1.429 . S
C561 N558 1.350 . S
C561 C560 1.434 . S
C562 C563 1.369 . S
C562 C564 1.419 1_556 S
C562 H566 0.930 . S
C563 C562 1.369 . S
C563 C572 1.429 . S
C564 C562 1.419 1_554 S
C564 C565 1.363 . S
C564 H567 0.929 . S
C565 C564 1.363 . S
C565 C571 1.428 . S
H566 C562 0.930 . S
H567 C564 0.929 . S
S568 N569 1.586 1_554 S
S568 N570 1.632 . S
N569 S568 1.586 1_556 S
N569 C572 1.350 . S
N570 S568 1.632 . S
N570 C571 1.351 . S
C571 C565 1.428 . S
C571 N570 1.351 . S
C571 C572 1.434 1_554 S
C572 C563 1.429 . S
C572 N569 1.350 . S
C572 C571 1.434 1_556 S
C573 C574 1.369 . S
C573 C575 1.419 . S
C573 H577 0.930 . S
C574 C573 1.369 . S
C574 C583 1.429 . S
C575 C573 1.419 . S
C575 C576 1.363 . S
C575 H578 0.929 . S
C576 C575 1.363 . S
C576 C582 1.428 . S
H577 C573 0.930 . S
H578 C575 0.929 . S
S579 N580 1.613 . S
S579 N581 1.610 . S
N580 S579 1.613 . S
N580 C583 1.350 . S
N581 S579 1.610 . S
N581 C582 1.351 . S
C582 C576 1.428 . S
C582 N581 1.351 . S
C582 C583 1.434 . S
C583 C574 1.429 . S
C583 N580 1.350 . S
C583 C582 1.434 . S
C584 C585 1.369 . S
C584 C586 1.419 . S
C584 H588 0.930 . S
C585 C584 1.369 . S
C585 C594 1.429 . S
C586 C584 1.419 . S
C586 C587 1.363 . S
C586 H589 0.929 . S
C587 C586 1.363 . S
C587 C593 1.428 . S
H588 C584 0.930 . S
H589 C586 0.929 . S
S590 N591 1.613 . S
S590 N592 1.610 . S
N591 S590 1.613 . S
N591 C594 1.350 . S
N592 S590 1.610 . S
N592 C593 1.351 . S
C593 C587 1.428 . S
C593 N592 1.351 . S
C593 C594 1.434 . S
C594 C585 1.429 . S
C594 N591 1.350 . S
C594 C593 1.434 . S
C595 C596 1.369 . S
C595 C597 1.419 . S
C595 H599 0.930 . S
C596 C595 1.369 . S
C596 C605 1.429 . S
C597 C595 1.419 . S
C597 C598 1.363 . S
C597 H600 0.929 . S
C598 C597 1.363 . S
C598 C604 1.428 . S
H599 C595 0.930 . S
H600 C597 0.929 . S
S601 N602 1.613 . S
S601 N603 1.610 . S
N602 S601 1.613 . S
N602 C605 1.350 . S
N603 S601 1.610 . S
N603 C604 1.351 . S
C604 C598 1.428 . S
C604 N603 1.351 . S
C604 C605 1.434 . S
C605 C596 1.429 . S
C605 N602 1.350 . S
C605 C604 1.434 . S
C606 C607 1.369 . S
C606 C608 1.419 . S
C606 H610 0.930 . S
C607 C606 1.369 . S
C607 C616 1.429 . S
C608 C606 1.419 . S
C608 C609 1.363 . S
C608 H611 0.929 . S
C609 C608 1.363 . S
C609 C615 1.428 . S
H610 C606 0.930 . S
H611 C608 0.929 . S
S612 N613 1.613 . S
S612 N614 1.610 . S
N613 S612 1.613 . S
N613 C616 1.350 . S
N614 S612 1.610 . S
N614 C615 1.351 . S
C615 C609 1.428 . S
C615 N614 1.351 . S
C615 C616 1.434 . S
C616 C607 1.429 . S
C616 N613 1.350 . S
C616 C615 1.434 . S
C617 C618 1.369 . S
C617 C619 1.419 . S
C617 H621 0.930 . S
C618 C617 1.369 . S
C618 C627 1.429 . S
C619 C617 1.419 . S
C619 C620 1.363 . S
C619 H622 0.929 . S
C620 C619 1.363 . S
C620 C626 1.428 . S
H621 C617 0.930 . S
H622 C619 0.929 . S
S623 N624 1.613 . S
S623 N625 1.610 . S
N624 S623 1.613 . S
N624 C627 1.350 . S
N625 S623 1.610 . S
N625 C626 1.351 . S
C626 C620 1.428 . S
C626 N625 1.351 . S
C626 C627 1.434 . S
C627 C618 1.429 . S
C627 N624 1.350 . S
C627 C626 1.434 . S
C628 C629 1.369 . S
C628 C630 1.419 . S
C628 H632 0.930 . S
C629 C628 1.369 . S
C629 C638 1.429 . S
C630 C628 1.419 . S
C630 C631 1.363 . S
C630 H633 0.929 . S
C631 C630 1.363 . S
C631 C637 1.428 . S
H632 C628 0.930 . S
H633 C630 0.929 . S
S634 N635 1.613 1_455 S
S634 N636 1.610 . S
N635 S634 1.613 1_655 S
N635 C638 1.350 . S
N636 S634 1.610 . S
N636 C637 1.351 1_455 S
C637 C631 1.428 . S
C637 N636 1.351 1_655 S
C637 C638 1.434 . S
C638 C629 1.429 . S
C638 N635 1.350 . S
C638 C637 1.434 . S
C639 C640 1.369 . S
C639 C641 1.419 . S
C639 H643 0.930 . S
C640 C639 1.369 . S
C640 C649 1.429 . S
C641 C639 1.419 . S
C641 C642 1.363 . S
C641 H644 0.929 . S
C642 C641 1.363 . S
C642 C648 1.428 . S
H643 C639 0.930 . S
H644 C641 0.929 . S
S645 N646 1.613 . S
S645 N647 1.610 . S
N646 S645 1.613 . S
N646 C649 1.350 . S
N647 S645 1.610 . S
N647 C648 1.351 . S
C648 C642 1.428 . S
C648 N647 1.351 . S
C648 C649 1.434 . S
C649 C640 1.429 . S
C649 N646 1.350 . S
C649 C648 1.434 . S
C650 C651 1.369 . S
C650 C652 1.419 . S
C650 H654 0.930 . S
C651 C650 1.369 . S
C651 C660 1.429 . S
C652 C650 1.419 . S
C652 C653 1.363 . S
C652 H655 0.929 . S
C653 C652 1.363 . S
C653 C659 1.428 . S
H654 C650 0.930 . S
H655 C652 0.929 . S
S656 N657 1.613 . S
S656 N658 1.610 . S
N657 S656 1.613 . S
N657 C660 1.350 . S
N658 S656 1.610 . S
N658 C659 1.351 . S
C659 C653 1.428 . S
C659 N658 1.351 . S
C659 C660 1.434 . S
C660 C651 1.429 . S
C660 N657 1.350 . S
C660 C659 1.434 . S
C661 C662 1.369 . S
C661 C663 1.419 . S
C661 H665 0.930 . S
C662 C661 1.369 . S
C662 C671 1.429 . S
C663 C661 1.419 . S
C663 C664 1.363 . S
C663 H666 0.929 . S
C664 C663 1.363 . S
C664 C670 1.428 . S
H665 C661 0.930 . S
H666 C663 0.929 . S
S667 N668 1.613 . S
S667 N669 1.610 . S
N668 S667 1.613 . S
N668 C671 1.350 . S
N669 S667 1.610 . S
N669 C670 1.351 . S
C670 C664 1.428 . S
C670 N669 1.351 . S
C670 C671 1.434 . S
C671 C662 1.429 . S
C671 N668 1.350 . S
C671 C670 1.434 . S
C409 C58 1.479 . S
C411 C128 1.458 . S
C422 C212 1.458 . S
C420 C68 1.479 . S
C433 C211 1.467 . S
C431 C40 1.467 . S
C442 C50 1.468 . S
C444 C127 1.467 . S
C455 C308 1.459 . S
C453 C23 1.481 . S
C466 C392 1.458 . S
C464 C32 1.480 . S
C475 C5 1.470 . S
C477 C391 1.469 . S
C486 C14 1.468 . S
C488 C307 1.468 . S
C499 C130 1.319 . S
C497 C13 1.502 . S
C510 C214 1.319 . S
C508 C4 1.502 . S
C521 C226 1.409 . S
C519 C31 1.523 . S
C532 C142 1.406 . S
C530 C22 1.523 . S
C543 C310 1.321 . S
C541 C49 1.501 . S
C552 C41 1.503 . S
C554 C394 1.320 . S
C565 C382 1.401 . S
C563 C67 1.522 . S
C574 C59 1.525 . S
C576 C298 1.410 . S
C587 C139 1.521 . S
C585 C7 1.515 . S
C598 C223 1.519 . S
C596 C16 1.515 . S
C607 C25 1.512 . S
C609 C224 1.498 . S
C620 C140 1.501 . S
C618 C34 1.513 . S
C631 C295 1.521 . S
C629 C43 1.519 . S
C640 C52 1.514 . S
C642 C379 1.522 . S
C651 C61 1.515 . S
C653 C380 1.502 . S
C662 C70 1.512 . S
C664 C296 1.502 . S
