# Generated by pormake.
# Topology zzz, (3,6)-cn, num edge types: 1
# Building blocks:
#     Node 0, Type 0, BuildingBlock: PAMTOO_clean_linker_0, # of connection points: 3
#     Node 1, Type 0, BuildingBlock: PAMTOO_clean_linker_0, # of connection points: 3
#     Node 2, Type 0, BuildingBlock: PAMTOO_clean_linker_0, # of connection points: 3
#     Node 3, Type 0, BuildingBlock: PAMTOO_clean_linker_0, # of connection points: 3
#     Node 4, Type 0, BuildingBlock: PAMTOO_clean_linker_0, # of connection points: 3
#     Node 5, Type 0, BuildingBlock: PAMTOO_clean_linker_0, # of connection points: 3
#     Node 6, Type 0, BuildingBlock: PAMTOO_clean_linker_0, # of connection points: 3
#     Node 7, Type 0, BuildingBlock: PAMTOO_clean_linker_0, # of connection points: 3
#     Node 8, Type 1, BuildingBlock: BETGAK_clean_sbu_0, # of connection points: 6
#     Node 9, Type 1, BuildingBlock: BETGAK_clean_sbu_0, # of connection points: 6
#     Node 10, Type 1, BuildingBlock: BETGAK_clean_sbu_0, # of connection points: 6
#     Node 11, Type 1, BuildingBlock: BETGAK_clean_sbu_0, # of connection points: 6
#     Edge 12, Type (0, 1), BuildingBlock: AJUNOK_clean_linker_0, # of connection points: 2
#     Edge 13, Type (0, 1), BuildingBlock: AJUNOK_clean_linker_0, # of connection points: 2
#     Edge 14, Type (0, 1), BuildingBlock: AJUNOK_clean_linker_0, # of connection points: 2
#     Edge 15, Type (0, 1), BuildingBlock: AJUNOK_clean_linker_0, # of connection points: 2
#     Edge 16, Type (0, 1), BuildingBlock: AJUNOK_clean_linker_0, # of connection points: 2
#     Edge 17, Type (0, 1), BuildingBlock: AJUNOK_clean_linker_0, # of connection points: 2
#     Edge 18, Type (0, 1), BuildingBlock: AJUNOK_clean_linker_0, # of connection points: 2
#     Edge 19, Type (0, 1), BuildingBlock: AJUNOK_clean_linker_0, # of connection points: 2
#     Edge 20, Type (0, 1), BuildingBlock: AJUNOK_clean_linker_0, # of connection points: 2
#     Edge 21, Type (0, 1), BuildingBlock: AJUNOK_clean_linker_0, # of connection points: 2
#     Edge 22, Type (0, 1), BuildingBlock: AJUNOK_clean_linker_0, # of connection points: 2
#     Edge 23, Type (0, 1), BuildingBlock: AJUNOK_clean_linker_0, # of connection points: 2
#     Edge 24, Type (0, 1), BuildingBlock: AJUNOK_clean_linker_0, # of connection points: 2
#     Edge 25, Type (0, 1), BuildingBlock: AJUNOK_clean_linker_0, # of connection points: 2
#     Edge 26, Type (0, 1), BuildingBlock: AJUNOK_clean_linker_0, # of connection points: 2
#     Edge 27, Type (0, 1), BuildingBlock: AJUNOK_clean_linker_0, # of connection points: 2
#     Edge 28, Type (0, 1), BuildingBlock: AJUNOK_clean_linker_0, # of connection points: 2
#     Edge 29, Type (0, 1), BuildingBlock: AJUNOK_clean_linker_0, # of connection points: 2
#     Edge 30, Type (0, 1), BuildingBlock: AJUNOK_clean_linker_0, # of connection points: 2
#     Edge 31, Type (0, 1), BuildingBlock: AJUNOK_clean_linker_0, # of connection points: 2
#     Edge 32, Type (0, 1), BuildingBlock: AJUNOK_clean_linker_0, # of connection points: 2
#     Edge 33, Type (0, 1), BuildingBlock: AJUNOK_clean_linker_0, # of connection points: 2
#     Edge 34, Type (0, 1), BuildingBlock: AJUNOK_clean_linker_0, # of connection points: 2
#     Edge 35, Type (0, 1), BuildingBlock: AJUNOK_clean_linker_0, # of connection points: 2
# Relax obj value: 0.370
# Max RMSD: 0.216
# Mean RMSD: 0.160
data_MOF--net-zzz--node1-BETGAK_clean_sbu_0--node2-PAMTOO_clean_linker_0--edge1-AJUNOK_clean_linker_0
_symmetry_space_group_name_H-M    P1
_symmetry_Int_Tables_number       1
_symmetry_cell_setting            triclinic
loop_
_symmetry_equiv_pos_as_xyz
'x, y, z'
_cell_length_a     36.497741
_cell_length_b     36.54499
_cell_length_c     10.314083
_cell_angle_alpha  90.118521
_cell_angle_beta   89.797825
_cell_angle_gamma 89.07123
loop_
_atom_site_label
_atom_site_type_symbol
_atom_site_fract_x
_atom_site_fract_y
_atom_site_fract_z
_atom_type_partial_charge
H0 H 0.88451 0.4808 0.46989 0.0
H1 H 0.78593 0.4872 0.24201 0.0
H2 H 0.82473 0.58227 0.44306 0.0
H3 H 0.73261 0.58452 0.37273 0.0
C4 C 0.73723 0.55835 0.31979 0.0
O5 O 0.77375 0.55629 0.28062 0.0
H6 H 0.73131 0.53578 0.38884 0.0
C7 C 0.8599 0.49541 0.43994 0.0
C8 C 0.85674 0.53241 0.47368 0.0
C9 C 0.83507 0.47865 0.35502 0.0
C10 C 0.80485 0.49924 0.31003 0.0
C11 C 0.80048 0.53637 0.34219 0.0
C12 C 0.82683 0.5532 0.42337 0.0
H13 H 0.13356 0.87248 0.5083 0.0
H14 H 0.13218 0.77443 0.2773 0.0
H15 H 1.03617 0.80854 0.49287 0.0
H16 H 1.04925 0.71499 0.43686 0.0
C17 C 0.06921 0.72181 0.35932 0.0
O18 O 0.06432 0.75857 0.32743 0.0
H19 H 0.09716 0.71697 0.39878 0.0
C20 C 0.12017 0.84752 0.47875 0.0
C21 C 0.08375 0.84283 0.51658 0.0
C22 C 0.13772 0.82383 0.38992 0.0
C23 C 0.11914 0.79278 0.3466 0.0
C24 C 0.08279 0.78647 0.38491 0.0
C25 C 0.06482 0.81196 0.4691 0.0
H26 H 0.73878 0.10844 0.4976 0.0
H27 H 0.83704 0.10306 0.26647 0.0
H28 H 0.80161 1.00843 0.47839 0.0
H29 H 0.89421 1.01035 0.42151 0.0
C30 C 0.88895 1.0356 0.36432 0.0
O31 O 0.85308 1.03518 0.31926 0.0
H32 H 0.89276 0.05915 0.43144 0.0
C33 C 0.76371 0.09407 0.46813 0.0
C34 C 0.76767 0.05734 0.50295 0.0
C35 C 0.78803 0.11084 0.38164 0.0
C36 C 0.81877 0.09093 0.33678 0.0
C37 C 0.82468 1.05442 0.37443 0.0
C38 C 0.79856 1.03725 0.45603 0.0
H39 H 0.48432 0.7436 0.56418 0.0
H40 H 0.48068 0.84072 0.32906 0.0
H41 H 0.58279 0.80209 0.49068 0.0
H42 H 0.57498 0.89572 0.41854 0.0
C43 C 0.5505 0.88917 0.35966 0.0
O44 O 0.55102 0.85171 0.33455 0.0
H45 H 0.52585 0.89686 0.4177 0.0
C46 C 0.4972 0.7678 0.52555 0.0
C47 C 0.53489 0.77102 0.54443 0.0
C48 C 0.47747 0.79143 0.44251 0.0
C49 C 0.49554 0.82177 0.39048 0.0
C50 C 0.53341 0.8262 0.40769 0.0
C51 C 0.55327 0.80035 0.4839 0.0
H52 H 0.26032 0.63583 0.22963 0.0
H53 H 0.36878 0.61659 0.37048 0.0
H54 H 0.32096 0.54082 0.10018 0.0
H55 H 0.38253 0.50011 0.30928 0.0
C56 C 0.37953 0.5274 0.35614 0.0
O57 O 0.37801 0.55355 0.2583 0.0
H58 H 0.35331 0.52722 0.41179 0.0
C59 C 0.28589 0.62054 0.22157 0.0
C60 C 0.28746 0.58924 0.14297 0.0
C61 C 0.31546 0.63163 0.29779 0.0
C62 C 0.34665 0.60923 0.30617 0.0
C63 C 0.34836 0.57596 0.23872 0.0
C64 C 0.3191 0.56616 0.15452 0.0
H65 H 0.99373 0.25813 0.18602 0.0
H66 H 1.01299 0.36611 0.33183 0.0
H67 H 0.08977 0.31563 0.06434 0.0
H68 H 0.12733 0.37577 0.25797 0.0
C69 C 0.10005 0.38007 0.30404 0.0
O70 O 0.07387 0.37579 0.20782 0.0
H71 H 0.09722 0.35864 0.37993 0.0
C72 C 1.00969 0.28292 0.18399 0.0
C73 C 1.04208 0.2831 0.11089 0.0
C74 C 0.99913 0.31239 0.2641 0.0
C75 C 1.02063 0.34362 0.26814 0.0
C76 C 1.05324 0.34516 0.19674 0.0
C77 C 0.06431 0.31467 0.11831 0.0
H78 H 0.35706 0.97747 0.13128 0.0
H79 H 0.2503 0.99018 0.30246 0.0
H80 H 0.29344 0.07513 0.05788 0.0
H81 H 0.22649 0.1063 0.26323 0.0
C82 C 0.23024 0.0784 0.30395 0.0
O83 O 0.23586 1.05407 0.2017 0.0
H84 H 0.25507 0.07969 0.36628 0.0
C85 C 0.33148 0.99283 0.14014 0.0
C86 C 0.32875 1.02709 0.08056 0.0
C87 C 0.30365 0.9792 0.21977 0.0
C88 C 0.27163 1.00014 0.23908 0.0
C89 C 0.26765 1.03472 0.18144 0.0
C90 C 0.29641 1.04843 0.10223 0.0
H91 H 0.48235 0.36615 0.11542 0.0
H92 H 0.48852 0.2692 0.35207 0.0
H93 H 0.57617 0.29503 0.08982 0.0
H94 H 0.56444 0.20188 0.1533 0.0
C95 C 0.54395 0.21069 0.22713 0.0
O96 O 0.5512 0.24655 0.26335 0.0
H97 H 0.51647 0.20943 0.18093 0.0
C98 C 0.49526 0.34035 0.14132 0.0
C99 C 0.52985 0.33312 0.08806 0.0
C100 C 0.48079 0.31911 0.24283 0.0
C101 C 0.49894 0.2861 0.27449 0.0
C102 C 0.53265 0.27648 0.21703 0.0
C103 C 0.5488 0.3007 0.1262 0.0
La104 La 0.08302 1.05061 0.92004 0.0
La105 La 1.03 0.06759 0.73076 0.0
C106 C 0.12175 1.03785 0.11693 0.0
C107 C 0.14851 1.00897 0.15136 0.0
C108 C 0.17306 0.9941 0.05908 0.0
C109 C 0.1929 0.96193 0.0864 0.0
C110 C 0.18812 0.9441 0.20571 0.0
C111 C 0.16627 0.96123 0.3018 0.0
C112 C 0.1465 0.9932 0.27443 0.0
C113 C 0.11313 1.04986 0.68503 0.0
C114 C 0.05463 0.98649 0.74179 0.0
C115 C 0.98899 0.09508 0.55915 0.0
C116 C 0.97297 0.13196 0.5424 0.0
C117 C 0.95713 0.1513 0.64749 0.0
C118 C 0.9449 0.1875 0.63206 0.0
C119 C 0.94801 0.20463 0.51116 0.0
C120 C 0.96258 0.1847 0.40544 0.0
C121 C 0.97523 0.14887 0.42129 0.0
C122 C 1.00077 1.04134 0.94776 0.0
C123 C 0.05884 0.13412 0.89822 0.0
O124 O 0.13121 0.06018 0.02425 0.0
O125 O 0.08784 1.02706 0.10489 0.0
O126 O 0.12041 1.02717 0.77734 0.0
O127 O 0.08914 0.07284 0.72609 0.0
O128 O 0.06536 0.995 0.86116 0.0
O129 O 1.04494 1.01299 0.66166 0.0
O130 O 0.97712 0.07678 0.65842 0.0
O131 O 1.02455 0.0921 0.5467 0.0
O132 O 0.99294 1.03077 0.83172 0.0
O133 O 1.02593 0.06474 0.93987 0.0
O134 O 1.03454 0.12283 0.81308 0.0
O135 O 0.08186 0.11034 0.95149 0.0
H136 H 0.17528 1.00598 0.96333 0.0
H137 H 0.20984 0.94962 0.01117 0.0
H138 H 0.16158 0.94813 0.3944 0.0
H139 H 0.12771 1.00421 0.3467 0.0
H140 H 0.95542 0.13896 0.74268 0.0
H141 H 0.93446 0.20254 0.71531 0.0
H142 H 0.96637 0.19763 0.31197 0.0
H143 H 0.98795 0.1348 0.33986 0.0
La144 La 0.55856 0.07167 0.88744 0.0
La145 La 0.53782 1.02067 0.66877 0.0
C146 C 0.57246 0.10611 0.0916 0.0
C147 C 0.60304 0.12965 0.128 0.0
C148 C 0.62045 0.15183 0.03583 0.0
C149 C 0.6532 0.16918 0.0664 0.0
C150 C 0.66887 0.16474 0.18962 0.0
C151 C 0.65001 0.14436 0.28375 0.0
C152 C 0.61762 0.12673 0.25266 0.0
C153 C 0.55965 0.10319 0.65464 0.0
C154 C 0.62171 1.03777 0.71392 0.0
C155 C 0.51587 0.99219 0.46154 0.0
C156 C 0.48705 0.96532 0.43947 0.0
C157 C 0.47199 0.94608 0.5443 0.0
C158 C 0.43919 0.92733 0.52986 0.0
C159 C 0.42062 0.92822 0.41099 0.0
C160 C 0.43784 0.94435 0.30305 0.0
C161 C 0.4707 0.96294 0.3175 0.0
C162 C 0.54587 0.98139 0.88781 0.0
C163 C 0.47405 1.04898 0.8537 0.0
O164 O 0.55045 0.11871 1.00145 0.0
O165 O 0.58134 0.07155 0.0738 0.0
O166 O 0.58172 0.10992 0.74903 0.0
O167 O 0.53674 0.07973 0.69405 0.0
O168 O 0.61277 1.04937 0.83221 0.0
O169 O 0.59596 1.03035 0.62776 0.0
O170 O 0.54494 0.98054 0.52404 0.0
O171 O 0.50382 1.02369 0.50601 0.0
O172 O 0.53709 0.96847 0.77615 0.0
O173 O 0.55008 1.01518 0.87048 0.0
O174 O 0.48305 1.03026 0.74805 0.0
O175 O 0.49901 0.06617 0.92373 0.0
H176 H 0.60984 0.1542 0.93828 0.0
H177 H 0.66748 0.18409 0.99149 0.0
H178 H 0.66187 0.13933 0.37833 0.0
H179 H 0.60499 0.10922 0.32406 0.0
H180 H 0.4841 0.94758 0.63952 0.0
H181 H 0.42684 0.91483 0.61416 0.0
H182 H 0.42418 0.94583 0.21007 0.0
H183 H 0.48187 0.97763 0.23562 0.0
La184 La 0.54109 0.56029 0.94223 0.0
La185 La 0.57974 0.54277 0.70905 0.0
C186 C 0.51594 0.58457 0.15408 0.0
C187 C 0.48932 0.61336 0.19117 0.0
C188 C 0.45994 0.62334 0.10978 0.0
C189 C 0.43655 0.65269 0.14319 0.0
C190 C 0.44225 0.67232 0.25838 0.0
C191 C 0.47076 0.66103 0.34178 0.0
C192 C 0.49415 0.63202 0.30802 0.0
C193 C 0.49668 0.54328 0.74693 0.0
C194 C 0.56531 0.62588 0.74995 0.0
C195 C 0.58968 0.51248 0.49537 0.0
C196 C 0.56369 0.48496 0.44727 0.0
C197 C 0.57115 0.44779 0.4686 0.0
C198 C 0.54318 0.42238 0.46243 0.0
C199 C 0.50659 0.43345 0.4381 0.0
C200 C 0.49967 0.47039 0.40812 0.0
C201 C 0.52792 0.49573 0.41105 0.0
C202 C 0.62528 0.55828 0.90332 0.0
C203 C 0.55765 0.47896 0.89656 0.0
O204 O 0.50267 0.5565 0.09275 0.0
O205 O 0.5466 0.59565 0.1021 0.0
O206 O 0.49172 0.53418 0.86633 0.0
O207 O 0.52494 0.56256 0.74129 0.0
O208 O 0.55145 0.61613 0.86415 0.0
O209 O 0.57732 0.60081 0.66761 0.0
O210 O 0.6083 0.50296 0.59869 0.0
O211 O 0.57629 0.54572 0.50611 0.0
O212 O 0.63134 0.56526 0.7818 0.0
O213 O 0.59593 0.54053 0.91053 0.0
O214 O 0.55728 0.48975 0.77447 0.0
O215 O 0.55882 0.50419 0.98803 0.0
H216 H 0.45583 0.60924 0.01862 0.0
H217 H 0.41507 0.66099 0.07679 0.0
H218 H 0.47654 0.67615 0.42967 0.0
H219 H 0.51673 0.62483 0.37157 0.0
H220 H 0.59834 0.43853 0.49663 0.0
H221 H 0.55044 0.39393 0.47893 0.0
H222 H 0.4724 0.48041 0.38737 0.0
H223 H 0.52104 0.52422 0.39339 0.0
La224 La 0.06768 0.53324 0.88017 0.0
La225 La 0.07935 0.58859 0.69731 0.0
C226 C 1.04528 0.49008 0.05356 0.0
C227 C 1.01109 0.47054 0.0823 0.0
C228 C 1.00823 0.43277 0.05617 0.0
C229 C 0.97538 0.41453 0.0804 0.0
C230 C 0.94526 0.43399 0.13119 0.0
C231 C 0.94855 0.47135 0.1607 0.0
C232 C 0.98101 0.48944 0.13658 0.0
C233 C 0.09242 0.50685 0.65478 0.0
C234 C 1.00015 0.56001 0.7028 0.0
C235 C 0.10326 0.62854 0.51753 0.0
C236 C 0.13419 0.65343 0.50401 0.0
C237 C 0.14846 0.67176 0.612 0.0
C238 C 0.18208 0.68938 0.60293 0.0
C239 C 0.20224 0.68787 0.48701 0.0
C240 C 0.18587 0.67294 0.37568 0.0
C241 C 0.1521 0.65579 0.38431 0.0
C242 C 0.05691 0.61649 0.9247 0.0
C243 C 0.14671 0.56325 0.88072 0.0
O244 O 0.06307 0.47953 0.94994 0.0
O245 O 1.04444 0.52578 0.06448 0.0
O246 O 0.1046 0.49793 0.76789 0.0
O247 O 0.06785 0.53138 0.66992 0.0
O248 O 1.01045 0.54542 0.81507 0.0
O249 O 1.02512 0.57462 0.62742 0.0
O250 O 0.0773 0.63865 0.59794 0.0
O251 O 0.1122 0.59396 0.53097 0.0
O252 O 1.04662 0.62752 0.81141 0.0
O253 O 0.0795 0.59024 0.90746 0.0
O254 O 0.13594 0.58073 0.77425 0.0
O255 O 0.1228 0.54471 0.94914 0.0
H256 H 1.03128 0.41744 0.01619 0.0
H257 H 0.97343 0.3856 0.05897 0.0
H258 H 0.92566 0.48669 0.20217 0.0
H259 H 0.98231 0.51831 0.15976 0.0
H260 H 0.13488 0.67042 0.70509 0.0
H261 H 0.19379 0.70149 0.68875 0.0
H262 H 0.20071 0.67126 0.28464 0.0
H263 H 0.14125 0.64217 0.29958 0.0
C264 C 0.20145 1.04166 0.48551 0.0
C265 C 0.19737 0.06844 0.38875 0.0
C266 C 0.17358 1.0353 0.57711 0.0
C267 C 0.14032 0.05571 0.57766 0.0
H268 H 0.22696 1.02628 0.49329 0.0
H269 H 0.17878 1.01481 0.65079 0.0
S270 S 0.11391 0.126 0.33552 0.0
N271 N 0.15582 0.11323 0.29165 0.0
N272 N 0.10389 0.10166 0.46526 0.0
C273 C 0.13517 0.08142 0.47794 0.0
C274 C 0.16349 0.08764 0.38333 0.0
C275 C 0.57294 0.18731 0.43805 0.0
C276 C 0.54589 0.18402 0.34184 0.0
C277 C 0.57702 0.16104 0.53741 0.0
C278 C 0.5544 0.13003 0.54548 0.0
H279 H 0.59159 0.21004 0.43538 0.0
H280 H 0.59843 0.16506 0.60825 0.0
S281 S 0.48105 0.10707 0.31328 0.0
N282 N 0.49738 0.14593 0.2577 0.0
N283 N 0.50458 0.09753 0.44553 0.0
C284 C 0.52751 0.12631 0.44949 0.0
C285 C 0.52349 0.15288 0.34758 0.0
C286 C 0.43548 0.5616 0.44996 0.0
C287 C 0.41101 0.53204 0.45275 0.0
C288 C 0.46372 0.56487 0.54319 0.0
C289 C 0.46837 0.53898 0.6434 0.0
H290 H 0.4327 0.58245 0.37622 0.0
H291 H 0.48155 0.58821 0.53863 0.0
S292 S 0.41335 0.45552 0.68898 0.0
N293 N 0.39475 0.47575 0.56162 0.0
N294 N 0.44705 0.48209 0.73531 0.0
C295 C 0.44438 0.50929 0.64603 0.0
C296 C 0.41599 0.50583 0.5514 0.0
C297 C 0.06546 0.43739 0.39306 0.0
C298 C 0.09852 0.41741 0.37276 0.0
C299 C 0.06384 0.46832 0.47654 0.0
C300 C 0.09502 0.47995 0.54513 0.0
H301 H 1.04042 0.42838 0.34805 0.0
H302 H 1.0376 0.4818 0.49329 0.0
S303 S 0.1882 0.43844 0.52256 0.0
N304 N 0.16325 0.41306 0.42528 0.0
N305 N 0.15997 0.47009 0.58167 0.0
C306 C 0.12821 0.461 0.52204 0.0
C307 C 0.12998 0.43005 0.43666 0.0
C308 C 0.94304 0.06515 0.24884 0.0
C309 C 0.91693 1.03712 0.25338 0.0
C310 C 0.97082 0.06585 0.15313 0.0
C311 C 0.97353 1.03862 0.05655 0.0
H312 H 0.94189 0.08675 0.32039 0.0
H313 H 0.98983 0.0883 0.15331 0.0
S314 S 0.91305 0.95822 0.02764 0.0
N315 N 0.89671 0.98066 0.15507 0.0
N316 N 0.948 0.98215 0.97415 0.0
C317 C 0.94777 1.01025 0.06062 0.0
C318 C 0.91977 1.00943 0.15888 0.0
C319 C 0.56944 0.94537 0.22828 0.0
C320 C 0.55007 0.91214 0.23501 0.0
C321 C 0.56746 0.96852 0.11839 0.0
C322 C 0.54608 0.95931 0.01022 0.0
H323 H 0.58629 0.95362 0.30909 0.0
H324 H 0.58331 0.9933 0.11722 0.0
S325 S 0.48706 0.87769 0.98245 0.0
N326 N 0.5066 0.87325 0.12567 0.0
N327 N 0.50324 0.9158 0.92065 0.0
C328 C 0.52589 0.92674 0.01716 0.0
C329 C 0.52769 0.9035 0.12889 0.0
C330 C 0.6762 0.53944 0.22214 0.0
C331 C 0.71016 0.55692 0.20596 0.0
C332 C 0.64904 0.54015 0.12492 0.0
C333 C 0.65435 0.55856 1.00649 0.0
H334 H 0.67032 0.5253 0.31187 0.0
H335 H 0.62361 0.52614 0.14313 0.0
S336 S 0.73718 0.61084 0.91729 0.0
N337 N 0.74648 0.59489 0.06347 0.0
N338 N 0.69602 0.59582 0.88079 0.0
C339 C 0.68795 0.57657 0.98946 0.0
C340 C 0.71555 0.57599 0.08894 0.0
C341 C 1.04957 0.66093 0.26131 0.0
C342 C 0.06444 0.69606 0.24284 0.0
C343 C 1.04762 0.63509 0.15935 0.0
C344 C 0.06012 0.64337 0.03384 0.0
H345 H 1.03954 0.65318 0.35611 0.0
H346 H 1.0359 0.60859 0.17868 0.0
S347 S 0.10414 0.72988 0.9344 0.0
N348 N 0.09432 0.73624 0.08931 0.0
N349 N 0.08933 0.68867 0.89808 0.0
C350 C 0.07543 0.67811 0.0142 0.0
C351 C 0.07804 0.70411 0.11833 0.0
C352 C 0.93829 0.2888 0.32131 0.0
C353 C 0.97068 0.30551 0.36293 0.0
C354 C 0.92511 0.25819 0.38711 0.0
C355 C 0.9436 0.24467 0.49691 0.0
H356 H 0.92768 0.29459 0.2254 0.0
H357 H 0.90457 0.24173 0.34015 0.0
S358 S 1.01745 0.29079 0.67634 0.0
N359 N 1.01162 0.31553 0.54404 0.0
N360 N 0.98668 0.25822 0.66883 0.0
C361 C 0.96939 0.26721 0.5566 0.0
C362 C 0.98286 0.29818 0.48923 0.0
C363 C 0.33216 0.91792 0.24307 0.0
C364 C 0.31341 0.94751 0.3028 0.0
C365 C 0.36601 0.90572 0.29214 0.0
C366 C 0.38057 0.92178 0.40449 0.0
H367 H 0.32495 0.90993 0.1453 0.0
H368 H 0.38317 0.88818 0.23167 0.0
S369 S 0.3308 0.98458 0.62943 0.0
N370 N 0.30341 0.98068 0.50354 0.0
N371 N 0.36655 0.95767 0.5984 0.0
C372 C 0.35677 0.94335 0.48208 0.0
C373 C 0.32256 0.95579 0.43114 0.0
C374 C 0.47022 0.33958 0.46514 0.0
C375 C 0.45569 0.33763 0.33907 0.0
C376 C 0.48211 0.37338 0.51192 0.0
C377 C 0.47735 0.40525 0.43629 0.0
H378 H 0.4804 0.31517 0.5132 0.0
H379 H 0.49951 0.37353 0.59678 0.0
S380 S 0.41025 0.41408 0.16743 0.0
N381 N 0.41371 0.36964 0.19516 0.0
N382 N 0.43759 0.43376 0.27313 0.0
C383 C 0.45017 0.4041 0.33939 0.0
C384 C 0.43703 0.36944 0.29754 0.0
C385 C 0.29307 0.69453 0.33298 0.0
C386 C 0.30868 0.66258 0.38742 0.0
C387 C 0.25968 0.7085 0.38114 0.0
C388 C 0.24261 0.69169 0.48749 0.0
H389 H 0.30197 0.70346 0.23798 0.0
H390 H 0.24457 0.72824 0.32306 0.0
S391 S 0.28403 0.62044 0.69947 0.0
N392 N 0.31357 0.62495 0.5794 0.0
N393 N 0.25098 0.65072 0.67119 0.0
C394 C 0.26364 0.66684 0.56174 0.0
C395 C 0.2975 0.65284 0.51226 0.0
C396 C 0.19588 0.85849 0.39189 0.0
C397 C 0.1704 0.83804 0.32054 0.0
C398 C 0.20868 0.89179 0.3434 0.0
C399 C 0.19708 0.90456 0.22136 0.0
H400 H 0.2003 0.85247 0.49353 0.0
H401 H 0.22262 0.91004 0.40913 0.0
S402 S 0.14842 0.85057 0.97304 0.0
N403 N 0.1471 0.82518 0.10494 0.0
N404 N 0.17175 0.88721 0.01264 0.0
C405 C 0.18045 0.87939 0.13767 0.0
C406 C 0.16709 0.84579 0.18764 0.0
C407 C 0.76663 0.14016 0.18077 0.0
C408 C 0.77441 0.14411 0.31354 0.0
C409 C 0.73374 0.15416 0.13006 0.0
C410 C 0.70818 0.17218 0.21137 0.0
H411 H 0.78225 0.12088 0.12182 0.0
H412 H 0.72587 0.14554 0.03378 0.0
S413 S 0.72533 0.20515 0.5446 0.0
N414 N 0.76176 0.17966 0.5083 0.0
N415 N 0.69917 0.20501 0.41414 0.0
C416 C 0.72026 0.18418 0.33303 0.0
C417 C 0.75407 0.17057 0.38364 0.0
C418 C 0.42193 0.75297 0.45862 0.0
C419 C 0.44284 0.77744 0.3841 0.0
C420 C 0.41424 0.71811 0.40911 0.0
C421 C 0.42476 0.70868 0.28177 0.0
H422 H 0.41921 0.75718 0.56226 0.0
H423 H 0.4059 0.69699 0.47613 0.0
S424 S 0.45138 0.77407 0.02584 0.0
N425 N 0.45377 0.79759 0.16229 0.0
N426 N 0.43762 0.73286 0.06723 0.0
C427 C 0.43317 0.73739 0.19715 0.0
C428 C 0.44202 0.77234 0.24874 0.0
C429 C 0.84909 0.44533 0.1509 0.0
C430 C 0.84721 0.44435 0.28746 0.0
C431 C 0.87997 0.43102 0.08623 0.0
C432 C 0.9097 0.41702 0.15778 0.0
H433 H 0.83058 0.46269 0.09581 0.0
H434 H 0.88374 0.43797 0.9851 0.0
S435 S 0.90713 0.3885 0.5009 0.0
N436 N 0.86838 0.41175 0.47943 0.0
N437 N 0.92811 0.38796 0.35866 0.0
C438 C 0.90295 0.40624 0.28566 0.0
C439 C 0.8709 0.41942 0.35088 0.0
C440 C 1.02404 0.23235 0.95902 0.0
C441 C 1.05138 0.24854 0.03579 0.0
C442 C 1.02746 0.19626 0.91164 0.0
C443 C 0.05825 0.17388 0.93983 0.0
H444 H 0.99875 0.2473 0.94022 0.0
H445 H 1.00485 0.18538 0.85683 0.0
S446 S 0.13958 0.20382 0.12626 0.0
N447 N 0.11167 0.23986 0.13014 0.0
N448 N 0.11837 0.17218 0.04132 0.0
C449 C 0.08672 0.19023 0.0113 0.0
C450 C 0.08328 0.22736 0.05881 0.0
C451 C 0.37766 1.01342 0.91453 0.0
C452 C 0.36157 1.03872 1.00227 0.0
C453 C 0.41309 1.01795 0.8637 0.0
C454 C 0.43481 1.04785 0.89921 0.0
H455 H 0.36344 0.98853 0.89072 0.0
H456 H 0.42415 0.99666 0.80087 0.0
S457 S 0.40408 0.12494 0.11088 0.0
N458 N 0.36904 0.09686 0.11212 0.0
N459 N 0.43571 0.10559 0.01688 0.0
C460 C 0.4184 0.0746 0.98091 0.0
C461 C 0.38187 0.07007 0.03185 0.0
C462 C 0.52806 0.37885 0.90527 0.0
C463 C 0.54647 0.36439 0.01476 0.0
C464 C 0.53328 0.41519 0.8631 0.0
C465 C 0.55639 0.43908 0.93075 0.0
H466 H 0.50743 0.36271 0.85744 0.0
H467 H 0.5173 0.42532 0.78203 0.0
S468 S 0.61562 0.4134 0.20874 0.0
N469 N 0.5923 0.37596 0.17887 0.0
N470 N 0.60156 0.44409 0.10178 0.0
C471 C 0.57681 0.42431 0.03444 0.0
C472 C 0.57207 0.38709 0.07555 0.0
C473 C 0.2395 0.54606 0.04956 0.0
C474 C 0.25444 0.5814 0.05819 0.0
C475 C 0.20514 0.54004 0.9897 0.0
C476 C 0.18442 0.56896 0.93413 0.0
H477 H 0.25354 0.52311 0.09474 0.0
H478 H 0.19439 0.51259 0.98894 0.0
S479 S 0.20941 0.6668 0.93555 0.0
N480 N 0.24493 0.64572 1.00179 0.0
N481 N 0.1805 0.63428 0.89783 0.0
C482 C 0.19916 0.60412 0.94008 0.0
C483 C 0.23402 0.61032 0.99944 0.0
C484 C 0.07941 0.88414 0.71178 0.0
C485 C 0.06624 0.87444 0.58815 0.0
C486 C 0.07396 0.91963 0.76399 0.0
C487 C 0.0555 0.9474 0.69382 0.0
H488 H 0.09611 0.86468 0.76493 0.0
H489 H 0.0861 0.92581 0.857 0.0
S490 S 1.01326 0.93541 0.36862 0.0
N491 N 1.0321 0.89503 0.40032 0.0
N492 N 1.02147 0.96125 0.49646 0.0
C493 C 1.0404 0.93735 0.5728 0.0
C494 C 1.04582 0.90113 0.5206 0.0
C495 C 0.70662 1.02719 0.49481 0.0
C496 C 0.73531 1.04108 0.57039 0.0
C497 C 0.67062 1.02454 0.54411 0.0
C498 C 0.66138 1.03587 0.67149 0.0
H499 H 0.71142 1.02095 0.39336 0.0
H500 H 0.64951 1.01517 0.47901 0.0
S501 S 0.72758 0.07085 0.91339 0.0
N502 N 0.75264 0.06394 0.78171 0.0
N503 N 0.6856 0.05851 0.87566 0.0
C504 C 0.69046 1.04762 0.75068 0.0
C505 C 0.7271 1.05038 0.69991 0.0
C506 C 0.5657 0.70959 0.5258 0.0
C507 C 0.55366 0.73863 0.60592 0.0
C508 C 0.57108 0.67389 0.57472 0.0
C509 C 0.56435 0.66528 0.70628 0.0
H510 H 0.56835 0.71389 0.42229 0.0
H511 H 0.57869 0.65249 0.50655 0.0
S512 S 0.53697 0.73258 0.96023 0.0
N513 N 0.53814 0.75704 0.82568 0.0
N514 N 0.54869 0.69036 0.91818 0.0
C515 C 0.55452 0.69463 0.78903 0.0
C516 C 0.54904 0.73105 0.73885 0.0
C517 C 0.91668 0.56558 0.47573 0.0
C518 C 0.88868 0.54819 0.54544 0.0
C519 C 0.95189 0.57043 0.52922 0.0
C520 C 0.96107 0.55784 0.65496 0.0
H521 H 0.91206 0.57343 0.37581 0.0
H522 H 0.97254 0.58286 0.46871 0.0
S523 S 0.89644 0.51324 0.8819 0.0
N524 N 0.87191 0.52023 0.74969 0.0
N525 N 0.93745 0.5296 0.85081 0.0
C526 C 0.93266 0.54203 0.72793 0.0
C527 C 0.89681 0.53709 0.67313 0.0
loop_
_geom_bond_atom_site_label_1
_geom_bond_atom_site_label_2
_geom_bond_distance
_geom_bond_site_symmetry_2
_ccdc_geom_bond_type
H0 C7 0.929 . S
H1 C10 0.930 . S
H2 C12 0.929 . S
H3 C4 0.969 . S
C4 H3 0.969 . S
C4 O5 1.550 . S
C4 H6 0.973 . S
O5 C4 1.550 . S
O5 C11 1.412 . S
H6 C4 0.973 . S
C7 H0 0.929 . S
C7 C8 1.400 . S
C7 C9 1.364 . S
C8 C7 1.400 . S
C8 C12 1.377 . S
C9 C7 1.364 . S
C9 C10 1.374 . S
C10 H1 0.930 . S
C10 C9 1.374 . S
C10 C11 1.383 . S
C11 O5 1.412 . S
C11 C10 1.383 . S
C11 C12 1.394 . S
C12 H2 0.929 . S
C12 C8 1.377 . S
C12 C11 1.394 . S
H13 C20 0.928 1_655 S
H14 C23 0.931 . S
H15 C25 0.928 1_655 S
H16 C17 0.969 . S
C17 H16 0.969 . S
C17 O18 1.550 1_455 S
C17 H19 0.973 1_455 S
O18 C17 1.550 1_655 S
O18 C24 1.404 1_655 S
H19 C17 0.973 1_655 S
C20 H13 0.928 1_455 S
C20 C21 1.399 . S
C20 C22 1.364 . S
C21 C20 1.399 . S
C21 C25 1.377 . S
C22 C20 1.364 . S
C22 C23 1.374 1_455 S
C23 H14 0.931 . S
C23 C22 1.374 1_655 S
C23 C24 1.382 1_655 S
C24 O18 1.404 1_455 S
C24 C23 1.382 1_455 S
C24 C25 1.394 . S
C25 H15 0.928 1_455 S
C25 C21 1.377 . S
C25 C24 1.394 . S
H26 C33 0.928 1_565 S
H27 C36 0.931 . S
H28 C38 0.929 1_565 S
H29 C30 0.969 . S
C30 H29 0.969 . S
C30 O31 1.550 1_545 S
C30 H32 0.973 1_545 S
O31 C30 1.550 1_565 S
O31 C37 1.404 1_565 S
H32 C30 0.973 1_565 S
C33 H26 0.928 1_545 S
C33 C34 1.399 . S
C33 C35 1.364 . S
C34 C33 1.399 . S
C34 C38 1.377 . S
C35 C33 1.364 . S
C35 C36 1.374 1_545 S
C36 H27 0.931 . S
C36 C35 1.374 1_565 S
C36 C37 1.382 1_565 S
C37 O31 1.404 1_545 S
C37 C36 1.382 1_545 S
C37 C38 1.394 . S
C38 H28 0.929 1_545 S
C38 C34 1.377 . S
C38 C37 1.394 . S
H39 C46 0.929 . S
H40 C49 0.930 . S
H41 C51 0.929 . S
H42 C43 0.969 . S
C43 H42 0.969 . S
C43 O44 1.550 . S
C43 H45 0.973 . S
O44 C43 1.550 . S
O44 C50 1.412 . S
H45 C43 0.973 . S
C46 H39 0.929 . S
C46 C47 1.400 . S
C46 C48 1.364 . S
C47 C46 1.400 . S
C47 C51 1.377 . S
C48 C46 1.364 . S
C48 C49 1.374 . S
C49 H40 0.930 . S
C49 C48 1.374 . S
C49 C50 1.383 . S
C50 O44 1.412 . S
C50 C49 1.383 . S
C50 C51 1.394 . S
C51 H41 0.929 . S
C51 C47 1.377 . S
C51 C50 1.394 . S
H52 C59 0.929 . S
H53 C62 0.930 . S
H54 C64 0.929 . S
H55 C56 0.969 . S
C56 H55 0.969 . S
C56 O57 1.550 . S
C56 H58 0.973 . S
O57 C56 1.550 . S
O57 C63 1.412 . S
H58 C56 0.973 . S
C59 H52 0.929 . S
C59 C60 1.400 1_554 S
C59 C61 1.364 . S
C60 C59 1.400 1_556 S
C60 C64 1.377 . S
C61 C59 1.364 . S
C61 C62 1.374 . S
C62 H53 0.930 . S
C62 C61 1.374 . S
C62 C63 1.383 . S
C63 O57 1.412 . S
C63 C62 1.383 . S
C63 C64 1.394 1_554 S
C64 H54 0.929 . S
C64 C60 1.377 . S
C64 C63 1.394 1_556 S
H65 C72 0.928 1_655 S
H66 C75 0.930 . S
H67 C77 0.928 1_655 S
H68 C69 0.969 . S
C69 H68 0.969 . S
C69 O70 1.550 1_455 S
C69 H71 0.973 1_455 S
O70 C69 1.550 1_655 S
O70 C76 1.412 1_655 S
H71 C69 0.973 1_655 S
C72 H65 0.928 1_455 S
C72 C73 1.400 1_554 S
C72 C74 1.364 . S
C73 C72 1.400 1_556 S
C73 C77 1.377 . S
C74 C72 1.364 . S
C74 C75 1.374 1_455 S
C75 H66 0.930 . S
C75 C74 1.374 1_655 S
C75 C76 1.383 1_655 S
C76 O70 1.412 1_455 S
C76 C75 1.383 1_455 S
C76 C77 1.395 1_554 S
C77 H67 0.928 1_455 S
C77 C73 1.377 . S
C77 C76 1.395 1_556 S
H78 C85 0.928 1_565 S
H79 C88 0.930 . S
H80 C90 0.928 1_565 S
H81 C82 0.969 . S
C82 H81 0.969 . S
C82 O83 1.550 1_545 S
C82 H84 0.973 1_545 S
O83 C82 1.550 1_565 S
O83 C89 1.412 1_565 S
H84 C82 0.973 1_565 S
C85 H78 0.928 1_545 S
C85 C86 1.400 1_554 S
C85 C87 1.364 . S
C86 C85 1.400 1_556 S
C86 C90 1.377 . S
C87 C85 1.364 . S
C87 C88 1.374 1_545 S
C88 H79 0.930 . S
C88 C87 1.374 1_565 S
C88 C89 1.383 1_565 S
C89 O83 1.412 1_545 S
C89 C88 1.383 1_545 S
C89 C90 1.395 1_554 S
C90 H80 0.928 1_545 S
C90 C86 1.377 . S
C90 C89 1.395 1_556 S
H91 C98 0.929 . S
H92 C101 0.930 . S
H93 C103 0.929 . S
H94 C95 0.969 . S
C95 H94 0.969 . S
C95 O96 1.550 . S
C95 H97 0.973 . S
O96 C95 1.550 . S
O96 C102 1.412 . S
H97 C95 0.973 . S
C98 H91 0.929 . S
C98 C99 1.400 1_554 S
C98 C100 1.364 . S
C99 C98 1.400 1_556 S
C99 C103 1.377 . S
C100 C98 1.364 . S
C100 C101 1.374 . S
C101 H92 0.930 . S
C101 C100 1.374 . S
C101 C102 1.383 . S
C102 O96 1.412 . S
C102 C101 1.383 . S
C102 C103 1.394 1_554 S
C103 H93 0.929 . S
C103 C99 1.377 . S
C103 C102 1.394 1_556 S
La104 C106 2.928 1_556 S
La104 O124 2.521 1_556 S
La104 O125 2.628 1_556 S
La104 O126 2.554 . S
La104 O127 2.757 1_565 S
La104 O128 2.470 . S
La104 O133 2.482 1_455 S
La104 O135 2.503 1_565 S
La105 C115 2.928 . S
La105 O127 2.482 1_655 S
La105 O129 2.503 1_545 S
La105 O130 2.521 . S
La105 O131 2.628 . S
La105 O132 2.554 . S
La105 O133 2.757 1_545 S
La105 O134 2.470 . S
C106 La104 2.928 1_554 S
C106 C107 1.503 . S
C106 O124 1.261 . S
C106 O125 1.243 . S
C107 C106 1.503 . S
C107 C108 1.394 . S
C107 C112 1.373 . S
C108 C107 1.394 . S
C108 C109 1.380 . S
C108 H136 0.930 . S
C109 C108 1.380 . S
C109 C110 1.376 . S
C109 H137 0.930 . S
C110 C109 1.376 . S
C110 C111 1.370 . S
C111 C110 1.370 . S
C111 C112 1.396 . S
C111 H138 0.929 . S
C112 C107 1.373 . S
C112 C111 1.396 . S
C112 H139 0.929 1_455 S
C113 O126 1.240 . S
C113 O127 1.289 1_565 S
C114 O128 1.258 1_655 S
C114 O129 1.256 . S
C115 La105 2.928 . S
C115 C116 1.503 . S
C115 O130 1.261 . S
C115 O131 1.243 . S
C116 C115 1.503 . S
C116 C117 1.394 . S
C116 C121 1.373 . S
C117 C116 1.394 . S
C117 C118 1.380 . S
C117 H140 0.930 . S
C118 C117 1.380 . S
C118 C119 1.376 . S
C118 H141 0.930 . S
C119 C118 1.376 . S
C119 C120 1.370 . S
C120 C119 1.370 . S
C120 C121 1.396 . S
C120 H142 0.929 . S
C121 C116 1.373 . S
C121 C120 1.396 . S
C121 H143 0.929 1_655 S
C122 O132 1.240 . S
C122 O133 1.289 1_545 S
C123 O134 1.258 1_455 S
C123 O135 1.256 . S
O124 La104 2.521 1_554 S
O124 C106 1.261 . S
O125 La104 2.628 1_554 S
O125 C106 1.243 . S
O126 La104 2.554 . S
O126 C113 1.240 . S
O127 La104 2.757 1_545 S
O127 La105 2.482 1_455 S
O127 C113 1.289 1_545 S
O128 La104 2.470 . S
O128 C114 1.258 1_455 S
O129 La105 2.503 1_565 S
O129 C114 1.256 . S
O130 La105 2.521 . S
O130 C115 1.261 . S
O131 La105 2.628 . S
O131 C115 1.243 . S
O132 La105 2.554 . S
O132 C122 1.240 . S
O133 La104 2.482 1_655 S
O133 La105 2.757 1_565 S
O133 C122 1.289 1_565 S
O134 La105 2.470 . S
O134 C123 1.258 1_655 S
O135 La104 2.503 1_545 S
O135 C123 1.256 . S
H136 C108 0.930 . S
H137 C109 0.930 . S
H138 C111 0.929 . S
H139 C112 0.929 1_655 S
H140 C117 0.930 . S
H141 C118 0.930 . S
H142 C120 0.929 . S
H143 C121 0.929 1_455 S
La144 C146 2.928 1_556 S
La144 O164 2.521 1_556 S
La144 O165 2.628 1_556 S
La144 O166 2.554 . S
La144 O167 2.757 . S
La144 O168 2.470 . S
La144 O173 2.482 1_545 S
La144 O175 2.503 . S
La145 C155 2.928 . S
La145 O167 2.482 1_565 S
La145 O169 2.503 . S
La145 O170 2.521 . S
La145 O171 2.628 . S
La145 O172 2.554 . S
La145 O173 2.757 . S
La145 O174 2.470 . S
C146 La144 2.928 1_554 S
C146 C147 1.503 . S
C146 O164 1.261 . S
C146 O165 1.243 . S
C147 C146 1.503 . S
C147 C148 1.394 . S
C147 C152 1.373 . S
C148 C147 1.394 . S
C148 C149 1.380 . S
C148 H176 0.930 . S
C149 C148 1.380 . S
C149 C150 1.376 . S
C149 H177 0.930 . S
C150 C149 1.376 . S
C150 C151 1.370 . S
C151 C150 1.370 . S
C151 C152 1.396 . S
C151 H178 0.943 . S
C152 C147 1.373 . S
C152 C151 1.396 . S
C152 H179 0.929 1_545 S
C153 O166 1.240 . S
C153 O167 1.289 . S
C154 O168 1.258 1_565 S
C154 O169 1.256 . S
C155 La145 2.928 . S
C155 C156 1.503 . S
C155 O170 1.261 . S
C155 O171 1.243 . S
C156 C155 1.503 . S
C156 C157 1.394 . S
C156 C161 1.373 . S
C157 C156 1.394 . S
C157 C158 1.380 . S
C157 H180 0.930 . S
C158 C157 1.380 . S
C158 C159 1.376 . S
C158 H181 0.930 . S
C159 C158 1.376 . S
C159 C160 1.370 . S
C160 C159 1.370 . S
C160 C161 1.396 . S
C160 H182 0.937 . S
C161 C156 1.373 . S
C161 C160 1.396 . S
C161 H183 0.929 1_565 S
C162 O172 1.240 . S
C162 O173 1.289 . S
C163 O174 1.258 1_545 S
C163 O175 1.256 . S
O164 La144 2.521 1_554 S
O164 C146 1.261 . S
O165 La144 2.628 1_554 S
O165 C146 1.243 . S
O166 La144 2.554 . S
O166 C153 1.240 . S
O167 La144 2.757 . S
O167 La145 2.482 1_545 S
O167 C153 1.289 . S
O168 La144 2.470 . S
O168 C154 1.258 1_545 S
O169 La145 2.503 . S
O169 C154 1.256 . S
O170 La145 2.521 . S
O170 C155 1.261 . S
O171 La145 2.628 . S
O171 C155 1.243 . S
O172 La145 2.554 . S
O172 C162 1.240 . S
O173 La144 2.482 1_565 S
O173 La145 2.757 . S
O173 C162 1.289 . S
O174 La145 2.470 . S
O174 C163 1.258 1_565 S
O175 La144 2.503 . S
O175 C163 1.256 . S
H176 C148 0.930 . S
H177 C149 0.930 . S
H178 C151 0.943 . S
H179 C152 0.929 1_565 S
H180 C157 0.930 . S
H181 C158 0.930 . S
H182 C160 0.937 . S
H183 C161 0.929 1_545 S
La184 C186 2.928 1_556 S
La184 O204 2.521 1_556 S
La184 O205 2.628 1_556 S
La184 O206 2.554 . S
La184 O207 2.757 . S
La184 O208 2.470 . S
La184 O213 2.482 . S
La184 O215 2.503 . S
La185 C195 2.928 . S
La185 O207 2.482 . S
La185 O209 2.503 . S
La185 O210 2.521 . S
La185 O211 2.628 . S
La185 O212 2.554 . S
La185 O213 2.757 . S
La185 O214 2.470 . S
C186 La184 2.928 1_554 S
C186 C187 1.503 . S
C186 O204 1.261 . S
C186 O205 1.243 . S
C187 C186 1.503 . S
C187 C188 1.394 . S
C187 C192 1.373 . S
C188 C187 1.394 . S
C188 C189 1.380 . S
C188 H216 0.930 . S
C189 C188 1.380 . S
C189 C190 1.376 . S
C189 H217 0.930 . S
C190 C189 1.376 . S
C190 C191 1.370 . S
C191 C190 1.370 . S
C191 C192 1.396 . S
C191 H218 0.929 . S
C192 C187 1.373 . S
C192 C191 1.396 . S
C192 H219 0.929 . S
C193 O206 1.240 . S
C193 O207 1.289 . S
C194 O208 1.258 . S
C194 O209 1.256 . S
C195 La185 2.928 . S
C195 C196 1.503 . S
C195 O210 1.261 . S
C195 O211 1.243 . S
C196 C195 1.503 . S
C196 C197 1.394 . S
C196 C201 1.373 . S
C197 C196 1.394 . S
C197 C198 1.380 . S
C197 H220 0.930 . S
C198 C197 1.380 . S
C198 C199 1.376 . S
C198 H221 0.930 . S
C199 C198 1.376 . S
C199 C200 1.370 . S
C200 C199 1.370 . S
C200 C201 1.396 . S
C200 H222 0.929 . S
C201 C196 1.373 . S
C201 C200 1.396 . S
C201 H223 0.929 . S
C202 O212 1.240 . S
C202 O213 1.289 . S
C203 O214 1.258 . S
C203 O215 1.256 . S
O204 La184 2.521 1_554 S
O204 C186 1.261 . S
O205 La184 2.628 1_554 S
O205 C186 1.243 . S
O206 La184 2.554 . S
O206 C193 1.240 . S
O207 La184 2.757 . S
O207 La185 2.482 . S
O207 C193 1.289 . S
O208 La184 2.470 . S
O208 C194 1.258 . S
O209 La185 2.503 . S
O209 C194 1.256 . S
O210 La185 2.521 . S
O210 C195 1.261 . S
O211 La185 2.628 . S
O211 C195 1.243 . S
O212 La185 2.554 . S
O212 C202 1.240 . S
O213 La184 2.482 . S
O213 La185 2.757 . S
O213 C202 1.289 . S
O214 La185 2.470 . S
O214 C203 1.258 . S
O215 La184 2.503 . S
O215 C203 1.256 . S
H216 C188 0.930 . S
H217 C189 0.930 . S
H218 C191 0.929 . S
H219 C192 0.929 . S
H220 C197 0.930 . S
H221 C198 0.930 . S
H222 C200 0.929 . S
H223 C201 0.929 . S
La224 C226 2.928 1_556 S
La224 O244 2.521 1_556 S
La224 O245 2.628 1_556 S
La224 O246 2.554 . S
La224 O247 2.757 1_655 S
La224 O248 2.470 . S
La224 O253 2.482 . S
La224 O255 2.503 1_655 S
La225 C235 2.928 . S
La225 O247 2.482 . S
La225 O249 2.503 1_455 S
La225 O250 2.521 . S
La225 O251 2.628 . S
La225 O252 2.554 . S
La225 O253 2.757 1_455 S
La225 O254 2.470 . S
C226 La224 2.928 1_554 S
C226 C227 1.503 . S
C226 O244 1.261 . S
C226 O245 1.243 . S
C227 C226 1.503 . S
C227 C228 1.394 . S
C227 C232 1.373 . S
C228 C227 1.394 . S
C228 C229 1.380 . S
C228 H256 0.930 . S
C229 C228 1.380 . S
C229 C230 1.376 . S
C229 H257 0.930 . S
C230 C229 1.376 . S
C230 C231 1.370 . S
C231 C230 1.370 . S
C231 C232 1.396 . S
C231 H258 0.929 . S
C232 C227 1.373 . S
C232 C231 1.396 . S
C232 H259 0.929 . S
C233 O246 1.247 . S
C233 O247 1.285 1_655 S
C234 O248 1.258 . S
C234 O249 1.256 . S
C235 La225 2.928 . S
C235 C236 1.503 . S
C235 O250 1.261 . S
C235 O251 1.243 . S
C236 C235 1.503 . S
C236 C237 1.394 . S
C236 C241 1.373 . S
C237 C236 1.394 . S
C237 C238 1.380 . S
C237 H260 0.930 . S
C238 C237 1.380 . S
C238 C239 1.376 . S
C238 H261 0.930 . S
C239 C238 1.376 . S
C239 C240 1.370 . S
C240 C239 1.370 . S
C240 C241 1.396 . S
C240 H262 0.929 . S
C241 C236 1.373 . S
C241 C240 1.396 . S
C241 H263 0.929 . S
C242 O252 1.251 . S
C242 O253 1.282 1_455 S
C243 O254 1.258 . S
C243 O255 1.256 . S
O244 La224 2.521 1_554 S
O244 C226 1.261 . S
O245 La224 2.628 1_554 S
O245 C226 1.243 . S
O246 La224 2.554 . S
O246 C233 1.247 . S
O247 La224 2.757 1_455 S
O247 La225 2.482 . S
O247 C233 1.285 1_455 S
O248 La224 2.470 . S
O248 C234 1.258 . S
O249 La225 2.503 1_655 S
O249 C234 1.256 . S
O250 La225 2.521 . S
O250 C235 1.261 . S
O251 La225 2.628 . S
O251 C235 1.243 . S
O252 La225 2.554 . S
O252 C242 1.251 . S
O253 La224 2.482 . S
O253 La225 2.757 1_655 S
O253 C242 1.282 1_655 S
O254 La225 2.470 . S
O254 C243 1.258 . S
O255 La224 2.503 1_455 S
O255 C243 1.256 . S
H256 C228 0.930 . S
H257 C229 0.930 . S
H258 C231 0.929 . S
H259 C232 0.929 . S
H260 C237 0.930 . S
H261 C238 0.930 . S
H262 C240 0.929 . S
H263 C241 0.929 . S
C264 C265 1.361 1_565 S
C264 C266 1.419 . S
C264 H268 0.930 . S
C265 C264 1.361 1_545 S
C265 C274 1.438 . S
C266 C264 1.419 . S
C266 C267 1.351 1_565 S
C266 H269 0.929 . S
C267 C266 1.351 1_545 S
C267 C273 1.442 . S
H268 C264 0.930 . S
H269 C266 0.929 . S
S270 N271 1.613 . S
S270 N272 1.610 . S
N271 S270 1.613 . S
N271 C274 1.350 . S
N272 S270 1.610 . S
N272 C273 1.351 . S
C273 C267 1.442 . S
C273 N272 1.351 . S
C273 C274 1.434 . S
C274 C265 1.438 . S
C274 N271 1.350 . S
C274 C273 1.434 . S
C275 C276 1.369 . S
C275 C277 1.419 . S
C275 H279 0.930 . S
C276 C275 1.369 . S
C276 C285 1.429 . S
C277 C275 1.419 . S
C277 C278 1.363 . S
C277 H280 0.929 . S
C278 C277 1.363 . S
C278 C284 1.428 . S
H279 C275 0.930 . S
H280 C277 0.929 . S
S281 N282 1.613 . S
S281 N283 1.610 . S
N282 S281 1.613 . S
N282 C285 1.350 . S
N283 S281 1.610 . S
N283 C284 1.351 . S
C284 C278 1.428 . S
C284 N283 1.351 . S
C284 C285 1.434 . S
C285 C276 1.429 . S
C285 N282 1.350 . S
C285 C284 1.434 . S
C286 C287 1.369 . S
C286 C288 1.419 . S
C286 H290 0.930 . S
C287 C286 1.369 . S
C287 C296 1.429 . S
C288 C286 1.419 . S
C288 C289 1.363 . S
C288 H291 0.929 . S
C289 C288 1.363 . S
C289 C295 1.428 . S
H290 C286 0.930 . S
H291 C288 0.929 . S
S292 N293 1.613 . S
S292 N294 1.610 . S
N293 S292 1.613 . S
N293 C296 1.350 . S
N294 S292 1.610 . S
N294 C295 1.351 . S
C295 C289 1.428 . S
C295 N294 1.351 . S
C295 C296 1.434 . S
C296 C287 1.429 . S
C296 N293 1.350 . S
C296 C295 1.434 . S
C297 C298 1.368 1_655 S
C297 C299 1.418 1_655 S
C297 H301 0.931 . S
C298 C297 1.368 1_455 S
C298 C307 1.431 . S
C299 C297 1.418 1_455 S
C299 C300 1.364 . S
C299 H302 0.929 1_455 S
C300 C299 1.364 . S
C300 C306 1.428 . S
H301 C297 0.931 . S
H302 C299 0.929 1_655 S
S303 N304 1.613 . S
S303 N305 1.610 . S
N304 S303 1.613 . S
N304 C307 1.350 . S
N305 S303 1.610 . S
N305 C306 1.351 . S
C306 C300 1.428 . S
C306 N305 1.351 . S
C306 C307 1.434 . S
C307 C298 1.431 . S
C307 N304 1.350 . S
C307 C306 1.434 . S
C308 C309 1.365 1_545 S
C308 C310 1.419 . S
C308 H312 0.930 . S
C309 C308 1.365 1_565 S
C309 C318 1.433 . S
C310 C308 1.419 . S
C310 C311 1.355 1_545 S
C310 H313 0.929 . S
C311 C310 1.355 1_565 S
C311 C317 1.437 . S
H312 C308 0.930 . S
H313 C310 0.929 . S
S314 N315 1.613 . S
S314 N316 1.610 . S
N315 S314 1.613 . S
N315 C318 1.350 . S
N316 S314 1.610 . S
N316 C317 1.351 . S
C317 C311 1.437 . S
C317 N316 1.351 . S
C317 C318 1.434 . S
C318 C309 1.433 . S
C318 N315 1.350 . S
C318 C317 1.434 . S
C319 C320 1.369 . S
C319 C321 1.419 . S
C319 H323 0.930 . S
C320 C319 1.369 . S
C320 C329 1.429 . S
C321 C319 1.419 . S
C321 C322 1.363 . S
C321 H324 0.929 . S
C322 C321 1.363 . S
C322 C328 1.428 . S
H323 C319 0.930 . S
H324 C321 0.929 . S
S325 N326 1.613 . S
S325 N327 1.610 . S
N326 S325 1.613 . S
N326 C329 1.350 . S
N327 S325 1.610 . S
N327 C328 1.351 . S
C328 C322 1.428 . S
C328 N327 1.351 . S
C328 C329 1.434 . S
C329 C320 1.429 . S
C329 N326 1.350 . S
C329 C328 1.434 . S
C330 C331 1.369 . S
C330 C332 1.419 . S
C330 H334 0.930 . S
C331 C330 1.369 . S
C331 C340 1.429 . S
C332 C330 1.419 . S
C332 C333 1.363 . S
C332 H335 0.929 . S
C333 C332 1.363 . S
C333 C339 1.428 . S
H334 C330 0.930 . S
H335 C332 0.929 . S
S336 N337 1.613 . S
S336 N338 1.610 . S
N337 S336 1.613 . S
N337 C340 1.350 . S
N338 S336 1.610 . S
N338 C339 1.351 . S
C339 C333 1.428 . S
C339 N338 1.351 . S
C339 C340 1.434 . S
C340 C331 1.429 . S
C340 N337 1.350 . S
C340 C339 1.434 . S
C341 C342 1.380 . S
C341 C343 1.419 . S
C341 H345 0.930 . S
C342 C341 1.380 . S
C342 C351 1.418 1_655 S
C343 C341 1.419 . S
C343 C344 1.363 . S
C343 H346 0.929 . S
C344 C343 1.363 . S
C344 C350 1.428 1_655 S
H345 C341 0.930 . S
H346 C343 0.929 . S
S347 N348 1.613 . S
S347 N349 1.610 . S
N348 S347 1.613 . S
N348 C351 1.350 . S
N349 S347 1.610 . S
N349 C350 1.351 . S
C350 C344 1.428 1_455 S
C350 N349 1.351 . S
C350 C351 1.434 . S
C351 C342 1.418 1_455 S
C351 N348 1.350 . S
C351 C350 1.434 . S
C352 C353 1.371 . S
C352 C354 1.443 . S
C352 H356 0.904 1_655 S
C353 C352 1.371 . S
C353 C362 1.429 . S
C354 C352 1.443 . S
C354 C355 1.363 . S
C354 H357 0.929 . S
C355 C354 1.363 . S
C355 C361 1.428 . S
H356 C352 0.904 1_455 S
H357 C354 0.929 . S
S358 N359 1.613 . S
S358 N360 1.610 . S
N359 S358 1.613 . S
N359 C362 1.350 . S
N360 S358 1.610 . S
N360 C361 1.351 . S
C361 C355 1.428 . S
C361 N360 1.351 . S
C361 C362 1.434 . S
C362 C353 1.429 . S
C362 N359 1.350 . S
C362 C361 1.434 . S
C363 C364 1.369 . S
C363 C365 1.419 . S
C363 H367 0.930 . S
C364 C363 1.369 . S
C364 C373 1.429 1_565 S
C365 C363 1.419 . S
C365 C366 1.363 . S
C365 H368 0.929 . S
C366 C365 1.363 . S
C366 C372 1.428 . S
H367 C363 0.930 . S
H368 C365 0.929 . S
S369 N370 1.613 . S
S369 N371 1.610 1_545 S
N370 S369 1.613 . S
N370 C373 1.350 . S
N371 S369 1.610 1_565 S
N371 C372 1.351 . S
C372 C366 1.428 . S
C372 N371 1.351 . S
C372 C373 1.434 1_565 S
C373 C364 1.429 1_545 S
C373 N370 1.350 . S
C373 C372 1.434 1_545 S
C374 C375 1.369 . S
C374 C376 1.419 . S
C374 H378 0.930 . S
C375 C374 1.369 . S
C375 C384 1.429 . S
C376 C374 1.419 . S
C376 C377 1.363 . S
C376 H379 0.929 . S
C377 C376 1.363 . S
C377 C383 1.428 . S
H378 C374 0.930 . S
H379 C376 0.929 . S
S380 N381 1.613 . S
S380 N382 1.610 . S
N381 S380 1.613 . S
N381 C384 1.350 . S
N382 S380 1.610 . S
N382 C383 1.351 . S
C383 C377 1.428 . S
C383 N382 1.351 . S
C383 C384 1.434 . S
C384 C375 1.429 . S
C384 N381 1.350 . S
C384 C383 1.434 . S
C385 C386 1.369 . S
C385 C387 1.419 . S
C385 H389 0.930 . S
C386 C385 1.369 . S
C386 C395 1.429 . S
C387 C385 1.419 . S
C387 C388 1.363 . S
C387 H390 0.929 . S
C388 C387 1.363 . S
C388 C394 1.428 . S
H389 C385 0.930 . S
H390 C387 0.929 . S
S391 N392 1.613 . S
S391 N393 1.610 . S
N392 S391 1.613 . S
N392 C395 1.350 . S
N393 S391 1.610 . S
N393 C394 1.351 . S
C394 C388 1.428 . S
C394 N393 1.351 . S
C394 C395 1.434 . S
C395 C386 1.429 . S
C395 N392 1.350 . S
C395 C394 1.434 . S
C396 C397 1.369 . S
C396 C398 1.419 . S
C396 H400 0.930 . S
C397 C396 1.369 . S
C397 C406 1.429 1_455 S
C398 C396 1.419 . S
C398 C399 1.363 . S
C398 H401 0.929 . S
C399 C398 1.363 . S
C399 C405 1.428 . S
H400 C396 0.930 . S
H401 C398 0.929 . S
S402 N403 1.613 . S
S402 N404 1.610 1_655 S
N403 S402 1.613 . S
N403 C406 1.350 . S
N404 S402 1.610 1_455 S
N404 C405 1.351 . S
C405 C399 1.428 . S
C405 N404 1.351 . S
C405 C406 1.434 1_455 S
C406 C397 1.429 1_655 S
C406 N403 1.350 . S
C406 C405 1.434 1_655 S
C407 C408 1.369 1_565 S
C407 C409 1.419 1_565 S
C407 H411 0.930 . S
C408 C407 1.369 1_545 S
C408 C417 1.429 . S
C409 C407 1.419 1_545 S
C409 C410 1.363 . S
C409 H412 0.929 . S
C410 C409 1.363 . S
C410 C416 1.428 . S
H411 C407 0.930 . S
H412 C409 0.929 . S
S413 N414 1.613 . S
S413 N415 1.610 . S
N414 S413 1.613 . S
N414 C417 1.350 . S
N415 S413 1.610 . S
N415 C416 1.351 . S
C416 C410 1.428 . S
C416 N415 1.351 . S
C416 C417 1.434 . S
C417 C408 1.429 . S
C417 N414 1.350 . S
C417 C416 1.434 . S
C418 C419 1.369 . S
C418 C420 1.419 . S
C418 H422 0.930 . S
C419 C418 1.369 . S
C419 C428 1.429 . S
C420 C418 1.419 . S
C420 C421 1.363 . S
C420 H423 0.929 . S
C421 C420 1.363 . S
C421 C427 1.428 . S
H422 C418 0.930 . S
H423 C420 0.929 . S
S424 N425 1.613 . S
S424 N426 1.610 . S
N425 S424 1.613 . S
N425 C428 1.350 . S
N426 S424 1.610 . S
N426 C427 1.351 . S
C427 C421 1.428 . S
C427 N426 1.351 . S
C427 C428 1.434 . S
C428 C419 1.429 . S
C428 N425 1.350 . S
C428 C427 1.434 . S
C429 C430 1.369 . S
C429 C431 1.419 . S
C429 H433 0.930 . S
C430 C429 1.369 . S
C430 C439 1.429 . S
C431 C429 1.419 . S
C431 C432 1.363 . S
C431 H434 0.929 . S
C432 C431 1.363 . S
C432 C438 1.428 . S
H433 C429 0.930 . S
H434 C431 0.929 . S
S435 N436 1.613 . S
S435 N437 1.610 . S
N436 S435 1.613 . S
N436 C439 1.350 . S
N437 S435 1.610 . S
N437 C438 1.351 . S
C438 C432 1.428 . S
C438 N437 1.351 . S
C438 C439 1.434 . S
C439 C430 1.429 . S
C439 N436 1.350 . S
C439 C438 1.434 . S
C440 C441 1.369 1_655 S
C440 C442 1.419 . S
C440 H444 0.930 . S
C441 C440 1.369 1_455 S
C441 C450 1.429 . S
C442 C440 1.419 . S
C442 C443 1.363 1_655 S
C442 H445 0.929 1_556 S
C443 C442 1.363 1_455 S
C443 C449 1.428 . S
H444 C440 0.930 . S
H445 C442 0.929 1_554 S
S446 N447 1.613 . S
S446 N448 1.610 . S
N447 S446 1.613 . S
N447 C450 1.350 . S
N448 S446 1.610 . S
N448 C449 1.351 . S
C449 C443 1.428 . S
C449 N448 1.351 . S
C449 C450 1.434 . S
C450 C441 1.429 . S
C450 N447 1.350 . S
C450 C449 1.434 . S
C451 C452 1.369 1_565 S
C451 C453 1.419 . S
C451 H455 0.930 . S
C452 C451 1.369 1_545 S
C452 C461 1.429 . S
C453 C451 1.419 . S
C453 C454 1.363 1_565 S
C453 H456 0.929 . S
C454 C453 1.363 1_545 S
C454 C460 1.428 . S
H455 C451 0.930 . S
H456 C453 0.929 . S
S457 N458 1.613 . S
S457 N459 1.610 . S
N458 S457 1.613 . S
N458 C461 1.350 . S
N459 S457 1.610 . S
N459 C460 1.351 . S
C460 C454 1.428 . S
C460 N459 1.351 . S
C460 C461 1.434 . S
C461 C452 1.429 . S
C461 N458 1.350 . S
C461 C460 1.434 . S
C462 C463 1.369 . S
C462 C464 1.419 . S
C462 H466 0.930 . S
C463 C462 1.369 . S
C463 C472 1.429 . S
C464 C462 1.419 . S
C464 C465 1.363 . S
C464 H467 0.929 . S
C465 C464 1.363 . S
C465 C471 1.428 . S
H466 C462 0.930 . S
H467 C464 0.929 . S
S468 N469 1.613 . S
S468 N470 1.610 . S
N469 S468 1.613 . S
N469 C472 1.350 1_554 S
N470 S468 1.610 . S
N470 C471 1.351 1_554 S
C471 C465 1.428 . S
C471 N470 1.351 1_556 S
C471 C472 1.434 . S
C472 C463 1.429 . S
C472 N469 1.350 1_556 S
C472 C471 1.434 . S
C473 C474 1.369 . S
C473 C475 1.419 . S
C473 H477 0.930 . S
C474 C473 1.369 . S
C474 C483 1.429 . S
C475 C473 1.419 . S
C475 C476 1.363 . S
C475 H478 0.929 . S
C476 C475 1.363 . S
C476 C482 1.428 . S
H477 C473 0.930 . S
H478 C475 0.929 . S
S479 N480 1.613 . S
S479 N481 1.610 . S
N480 S479 1.613 . S
N480 C483 1.350 . S
N481 S479 1.610 . S
N481 C482 1.351 . S
C482 C476 1.428 . S
C482 N481 1.351 . S
C482 C483 1.434 . S
C483 C474 1.429 . S
C483 N480 1.350 . S
C483 C482 1.434 . S
C484 C485 1.369 1_455 S
C484 C486 1.420 . S
C484 H488 0.930 . S
C485 C484 1.369 1_655 S
C485 C494 1.429 . S
C486 C484 1.420 . S
C486 C487 1.359 1_455 S
C486 H489 0.932 . S
C487 C486 1.359 1_655 S
C487 C493 1.428 . S
H488 C484 0.930 . S
H489 C486 0.932 . S
S490 N491 1.613 . S
S490 N492 1.610 . S
N491 S490 1.613 . S
N491 C494 1.350 . S
N492 S490 1.610 . S
N492 C493 1.351 . S
C493 C487 1.428 . S
C493 N492 1.351 . S
C493 C494 1.434 . S
C494 C485 1.429 . S
C494 N491 1.350 . S
C494 C493 1.434 . S
C495 C496 1.369 . S
C495 C497 1.419 . S
C495 H499 0.930 . S
C496 C495 1.369 . S
C496 C505 1.429 . S
C497 C495 1.419 . S
C497 C498 1.363 . S
C497 H500 0.929 . S
C498 C497 1.363 . S
C498 C504 1.428 . S
H499 C495 0.930 . S
H500 C497 0.929 . S
S501 N502 1.614 . S
S501 N503 1.610 1_554 S
N502 S501 1.614 . S
N502 C505 1.349 1_554 S
N503 S501 1.610 1_556 S
N503 C504 1.351 . S
C504 C498 1.428 . S
C504 N503 1.351 . S
C504 C505 1.434 . S
C505 C496 1.429 . S
C505 N502 1.349 1_556 S
C505 C504 1.434 . S
C506 C507 1.369 . S
C506 C508 1.419 . S
C506 H510 0.930 . S
C507 C506 1.369 . S
C507 C516 1.429 . S
C508 C506 1.419 . S
C508 C509 1.363 . S
C508 H511 0.929 . S
C509 C508 1.363 . S
C509 C515 1.428 . S
H510 C506 0.930 . S
H511 C508 0.929 . S
S512 N513 1.613 . S
S512 N514 1.610 . S
N513 S512 1.613 . S
N513 C516 1.350 . S
N514 S512 1.610 . S
N514 C515 1.351 . S
C515 C509 1.428 . S
C515 N514 1.351 . S
C515 C516 1.434 . S
C516 C507 1.429 . S
C516 N513 1.350 . S
C516 C515 1.434 . S
C517 C518 1.369 . S
C517 C519 1.419 . S
C517 H521 0.930 . S
C518 C517 1.369 . S
C518 C527 1.429 . S
C519 C517 1.419 . S
C519 C520 1.363 . S
C519 H522 0.929 . S
C520 C519 1.363 . S
C520 C526 1.428 . S
H521 C517 0.930 . S
H522 C519 0.929 . S
S523 N524 1.613 . S
S523 N525 1.610 . S
N524 S523 1.613 . S
N524 C527 1.350 . S
N525 S523 1.610 . S
N525 C526 1.351 . S
C526 C520 1.428 . S
C526 N525 1.351 . S
C526 C527 1.434 . S
C527 C518 1.429 . S
C527 N524 1.350 . S
C527 C526 1.434 . S
C265 C82 1.766 . S
C267 C113 2.192 1_545 S
C278 C153 2.213 . S
C276 C95 1.762 . S
C289 C193 2.223 . S
C287 C56 1.771 . S
C300 C233 2.205 1_455 S
C298 C69 1.781 . S
C311 C122 2.196 1_564 S
C309 C30 1.760 1_565 S
C320 C43 1.787 . S
C322 C162 2.213 1_554 S
C331 C4 1.803 . S
C333 C202 2.222 1_554 S
C342 C17 1.770 1_655 S
C344 C242 2.205 1_654 S
C355 C119 0.833 . S
C353 C74 0.839 1_655 S
C366 C159 0.818 . S
C364 C87 0.846 1_565 S
C377 C199 0.810 . S
C375 C100 0.832 . S
C386 C61 0.840 . S
C388 C239 0.806 . S
C397 C22 0.850 . S
C399 C110 0.822 . S
C410 C150 0.834 . S
C408 C35 0.824 . S
C421 C190 0.822 . S
C419 C48 0.827 . S
C430 C9 0.820 . S
C432 C230 0.830 . S
C441 C73 2.264 . S
C443 C123 2.564 . S
C452 C86 2.225 . S
C454 C163 2.529 . S
C465 C203 2.513 . S
C463 C99 2.202 . S
C476 C243 2.552 . S
C474 C60 2.240 . S
C485 C21 2.255 1_655 S
C487 C114 2.572 . S
C498 C154 2.528 . S
C496 C34 2.226 1_565 S
C509 C194 2.511 . S
C507 C47 2.214 . S
C518 C8 2.251 . S
C520 C234 2.555 . S
