# Generated by pormake.
# Topology eea, (3,6)-cn, num edge types: 1
# Building blocks:
#     Node 0, Type 0, BuildingBlock: BETDIP_clean_linker_0, # of connection points: 3
#     Node 1, Type 0, BuildingBlock: BETDIP_clean_linker_0, # of connection points: 3
#     Node 2, Type 0, BuildingBlock: BETDIP_clean_linker_0, # of connection points: 3
#     Node 3, Type 0, BuildingBlock: BETDIP_clean_linker_0, # of connection points: 3
#     Node 4, Type 0, BuildingBlock: BETDIP_clean_linker_0, # of connection points: 3
#     Node 5, Type 0, BuildingBlock: BETDIP_clean_linker_0, # of connection points: 3
#     Node 6, Type 0, BuildingBlock: BETDIP_clean_linker_0, # of connection points: 3
#     Node 7, Type 0, BuildingBlock: BETDIP_clean_linker_0, # of connection points: 3
#     Node 8, Type 0, BuildingBlock: BETDIP_clean_linker_0, # of connection points: 3
#     Node 9, Type 0, BuildingBlock: BETDIP_clean_linker_0, # of connection points: 3
#     Node 10, Type 0, BuildingBlock: BETDIP_clean_linker_0, # of connection points: 3
#     Node 11, Type 0, BuildingBlock: BETDIP_clean_linker_0, # of connection points: 3
#     Node 12, Type 0, BuildingBlock: BETDIP_clean_linker_0, # of connection points: 3
#     Node 13, Type 0, BuildingBlock: BETDIP_clean_linker_0, # of connection points: 3
#     Node 14, Type 0, BuildingBlock: BETDIP_clean_linker_0, # of connection points: 3
#     Node 15, Type 0, BuildingBlock: BETDIP_clean_linker_0, # of connection points: 3
#     Node 16, Type 0, BuildingBlock: BETDIP_clean_linker_0, # of connection points: 3
#     Node 17, Type 0, BuildingBlock: BETDIP_clean_linker_0, # of connection points: 3
#     Node 18, Type 1, BuildingBlock: HISSIN_clean_sbu_0, # of connection points: 6
#     Node 19, Type 1, BuildingBlock: HISSIN_clean_sbu_0, # of connection points: 6
#     Node 20, Type 1, BuildingBlock: HISSIN_clean_sbu_0, # of connection points: 6
#     Node 21, Type 1, BuildingBlock: HISSIN_clean_sbu_0, # of connection points: 6
#     Node 22, Type 1, BuildingBlock: HISSIN_clean_sbu_0, # of connection points: 6
#     Node 23, Type 1, BuildingBlock: HISSIN_clean_sbu_0, # of connection points: 6
#     Node 24, Type 1, BuildingBlock: HISSIN_clean_sbu_0, # of connection points: 6
#     Node 25, Type 1, BuildingBlock: HISSIN_clean_sbu_0, # of connection points: 6
#     Node 26, Type 1, BuildingBlock: HISSIN_clean_sbu_0, # of connection points: 6
#     Edge 27, Type (0, 1), BuildingBlock: EZIPEK_clean_linker_0, # of connection points: 2
#     Edge 28, Type (0, 1), BuildingBlock: EZIPEK_clean_linker_0, # of connection points: 2
#     Edge 29, Type (0, 1), BuildingBlock: EZIPEK_clean_linker_0, # of connection points: 2
#     Edge 30, Type (0, 1), BuildingBlock: EZIPEK_clean_linker_0, # of connection points: 2
#     Edge 31, Type (0, 1), BuildingBlock: EZIPEK_clean_linker_0, # of connection points: 2
#     Edge 32, Type (0, 1), BuildingBlock: EZIPEK_clean_linker_0, # of connection points: 2
#     Edge 33, Type (0, 1), BuildingBlock: EZIPEK_clean_linker_0, # of connection points: 2
#     Edge 34, Type (0, 1), BuildingBlock: EZIPEK_clean_linker_0, # of connection points: 2
#     Edge 35, Type (0, 1), BuildingBlock: EZIPEK_clean_linker_0, # of connection points: 2
#     Edge 36, Type (0, 1), BuildingBlock: EZIPEK_clean_linker_0, # of connection points: 2
#     Edge 37, Type (0, 1), BuildingBlock: EZIPEK_clean_linker_0, # of connection points: 2
#     Edge 38, Type (0, 1), BuildingBlock: EZIPEK_clean_linker_0, # of connection points: 2
#     Edge 39, Type (0, 1), BuildingBlock: EZIPEK_clean_linker_0, # of connection points: 2
#     Edge 40, Type (0, 1), BuildingBlock: EZIPEK_clean_linker_0, # of connection points: 2
#     Edge 41, Type (0, 1), BuildingBlock: EZIPEK_clean_linker_0, # of connection points: 2
#     Edge 42, Type (0, 1), BuildingBlock: EZIPEK_clean_linker_0, # of connection points: 2
#     Edge 43, Type (0, 1), BuildingBlock: EZIPEK_clean_linker_0, # of connection points: 2
#     Edge 44, Type (0, 1), BuildingBlock: EZIPEK_clean_linker_0, # of connection points: 2
#     Edge 45, Type (0, 1), BuildingBlock: EZIPEK_clean_linker_0, # of connection points: 2
#     Edge 46, Type (0, 1), BuildingBlock: EZIPEK_clean_linker_0, # of connection points: 2
#     Edge 47, Type (0, 1), BuildingBlock: EZIPEK_clean_linker_0, # of connection points: 2
#     Edge 48, Type (0, 1), BuildingBlock: EZIPEK_clean_linker_0, # of connection points: 2
#     Edge 49, Type (0, 1), BuildingBlock: EZIPEK_clean_linker_0, # of connection points: 2
#     Edge 50, Type (0, 1), BuildingBlock: EZIPEK_clean_linker_0, # of connection points: 2
#     Edge 51, Type (0, 1), BuildingBlock: EZIPEK_clean_linker_0, # of connection points: 2
#     Edge 52, Type (0, 1), BuildingBlock: EZIPEK_clean_linker_0, # of connection points: 2
#     Edge 53, Type (0, 1), BuildingBlock: EZIPEK_clean_linker_0, # of connection points: 2
#     Edge 54, Type (0, 1), BuildingBlock: EZIPEK_clean_linker_0, # of connection points: 2
#     Edge 55, Type (0, 1), BuildingBlock: EZIPEK_clean_linker_0, # of connection points: 2
#     Edge 56, Type (0, 1), BuildingBlock: EZIPEK_clean_linker_0, # of connection points: 2
#     Edge 57, Type (0, 1), BuildingBlock: EZIPEK_clean_linker_0, # of connection points: 2
#     Edge 58, Type (0, 1), BuildingBlock: EZIPEK_clean_linker_0, # of connection points: 2
#     Edge 59, Type (0, 1), BuildingBlock: EZIPEK_clean_linker_0, # of connection points: 2
#     Edge 60, Type (0, 1), BuildingBlock: EZIPEK_clean_linker_0, # of connection points: 2
#     Edge 61, Type (0, 1), BuildingBlock: EZIPEK_clean_linker_0, # of connection points: 2
#     Edge 62, Type (0, 1), BuildingBlock: EZIPEK_clean_linker_0, # of connection points: 2
#     Edge 63, Type (0, 1), BuildingBlock: EZIPEK_clean_linker_0, # of connection points: 2
#     Edge 64, Type (0, 1), BuildingBlock: EZIPEK_clean_linker_0, # of connection points: 2
#     Edge 65, Type (0, 1), BuildingBlock: EZIPEK_clean_linker_0, # of connection points: 2
#     Edge 66, Type (0, 1), BuildingBlock: EZIPEK_clean_linker_0, # of connection points: 2
#     Edge 67, Type (0, 1), BuildingBlock: EZIPEK_clean_linker_0, # of connection points: 2
#     Edge 68, Type (0, 1), BuildingBlock: EZIPEK_clean_linker_0, # of connection points: 2
#     Edge 69, Type (0, 1), BuildingBlock: EZIPEK_clean_linker_0, # of connection points: 2
#     Edge 70, Type (0, 1), BuildingBlock: EZIPEK_clean_linker_0, # of connection points: 2
#     Edge 71, Type (0, 1), BuildingBlock: EZIPEK_clean_linker_0, # of connection points: 2
#     Edge 72, Type (0, 1), BuildingBlock: EZIPEK_clean_linker_0, # of connection points: 2
#     Edge 73, Type (0, 1), BuildingBlock: EZIPEK_clean_linker_0, # of connection points: 2
#     Edge 74, Type (0, 1), BuildingBlock: EZIPEK_clean_linker_0, # of connection points: 2
#     Edge 75, Type (0, 1), BuildingBlock: EZIPEK_clean_linker_0, # of connection points: 2
#     Edge 76, Type (0, 1), BuildingBlock: EZIPEK_clean_linker_0, # of connection points: 2
#     Edge 77, Type (0, 1), BuildingBlock: EZIPEK_clean_linker_0, # of connection points: 2
#     Edge 78, Type (0, 1), BuildingBlock: EZIPEK_clean_linker_0, # of connection points: 2
#     Edge 79, Type (0, 1), BuildingBlock: EZIPEK_clean_linker_0, # of connection points: 2
#     Edge 80, Type (0, 1), BuildingBlock: EZIPEK_clean_linker_0, # of connection points: 2
# Relax obj value: 0.062
# Max RMSD: 0.227
# Mean RMSD: 0.162
data_MOF--net-eea--node1-HISSIN_clean_sbu_0--node2-BETDIP_clean_linker_0--edge1-EZIPEK_clean_linker_0
_symmetry_space_group_name_H-M    P1
_symmetry_Int_Tables_number       1
_symmetry_cell_setting            triclinic
loop_
_symmetry_equiv_pos_as_xyz
'x, y, z'
_cell_length_a     39.858153
_cell_length_b     40.001763
_cell_length_c     54.466198
_cell_angle_alpha  93.175098
_cell_angle_beta   92.908327
_cell_angle_gamma 119.75843
loop_
_atom_site_label
_atom_site_type_symbol
_atom_site_fract_x
_atom_site_fract_y
_atom_site_fract_z
_atom_type_partial_charge
H0 H 0.22907 0.09141 0.3699 0.0
H1 H 0.27249 0.17928 0.43104 0.0
H2 H 0.2748 0.07417 0.43841 0.0
H3 H 0.28717 0.2184 0.39728 0.0
C4 C 0.25789 0.2016 0.38826 0.0
C5 C 0.24248 0.10192 0.38861 0.0
C6 C 0.25143 0.07878 0.4029 0.0
C7 C 0.25072 0.13853 0.39839 0.0
C8 C 0.26724 0.15161 0.42285 0.0
C9 C 0.27597 0.12854 0.43725 0.0
C10 C 0.26829 0.09218 0.42723 0.0
N11 N 0.24022 0.16083 0.38387 0.0
H12 H 0.93379 0.13205 0.3824 0.0
H13 H 0.86838 0.11327 0.44578 0.0
H14 H 0.96668 0.22493 0.43919 0.0
H15 H 0.82056 0.06687 0.42079 0.0
C16 C 0.83432 0.05502 0.4093 0.0
C17 C 0.92876 0.14285 0.3997 0.0
C18 C 0.95397 0.18129 0.4093 0.0
C19 C 0.89713 0.11823 0.41231 0.0
C20 C 0.89161 0.13209 0.43516 0.0
C21 C 0.91632 0.17051 0.44481 0.0
C22 C 0.94738 0.19523 0.43174 0.0
N23 N 0.87193 0.07963 0.40183 0.0
H24 H 0.89282 0.79532 0.38453 0.0
H25 H 0.92539 0.74659 0.44364 0.0
H26 H 0.8196 0.75036 0.44358 0.0
H27 H 0.98451 0.77977 0.43124 0.0
C28 C 0.98207 0.78326 0.41174 0.0
C29 C 0.88714 0.7819 0.40174 0.0
C30 C 0.85311 0.77376 0.41276 0.0
C31 C 0.9141 0.77319 0.41286 0.0
C32 C 0.90598 0.75499 0.43506 0.0
C33 C 0.87196 0.74688 0.44626 0.0
C34 C 0.8459 0.75665 0.43508 0.0
N35 N 0.94848 0.78274 0.40096 0.0
H36 H 0.08734 0.20696 0.64261 0.0
H37 H 0.15357 0.25086 0.58008 0.0
H38 H 0.04561 0.24933 0.58452 0.0
H39 H 0.18272 0.21875 0.59183 0.0
C40 C 0.18158 0.21694 0.61159 0.0
C41 C 0.09086 0.21927 0.62504 0.0
C42 C 0.06266 0.22727 0.61508 0.0
C43 C 0.12348 0.2268 0.61248 0.0
C44 C 0.12819 0.24354 0.58984 0.0
C45 C 0.10012 0.25161 0.57969 0.0
C46 C 0.06732 0.24315 0.59231 0.0
N47 N 0.151 0.21786 0.6235 0.0
H48 H 0.78954 0.87547 0.65421 0.0
H49 H 0.72572 0.89016 0.59457 0.0
H50 H 0.72658 0.78326 0.59777 0.0
H51 H 0.72307 0.93218 0.6245 0.0
C52 C 0.75347 0.94671 0.63147 0.0
C53 C 0.76991 0.86367 0.63752 0.0
C54 C 0.75795 0.82624 0.62729 0.0
C55 C 0.75754 0.88635 0.62597 0.0
C56 C 0.73208 0.87093 0.60435 0.0
C57 C 0.71643 0.83193 0.59477 0.0
C58 C 0.73243 0.81103 0.6057 0.0
N59 N 0.77224 0.9251 0.63595 0.0
H60 H 0.12954 0.91971 0.64701 0.0
H61 H 0.09002 0.83391 0.58457 0.0
H62 H 0.19947 0.93875 0.58611 0.0
H63 H 0.04753 0.79508 0.60849 0.0
C64 C 0.04423 0.81179 0.62355 0.0
C65 C 0.13395 0.90977 0.62919 0.0
C66 C 0.16764 0.93325 0.61785 0.0
C67 C 0.10587 0.87358 0.6177 0.0
C68 C 0.11159 0.86114 0.59432 0.0
C69 C 0.1455 0.88456 0.58304 0.0
C70 C 0.17339 0.92051 0.59488 0.0
N71 N 0.07212 0.85132 0.63003 0.0
H72 H 0.89678 0.42788 0.70545 0.0
H73 H 0.94433 0.51262 0.76853 0.0
H74 H 0.94746 0.40707 0.77024 0.0
H75 H 0.95451 0.55389 0.73678 0.0
C76 C 0.92543 0.53698 0.7275 0.0
C77 C 0.91176 0.43756 0.72382 0.0
C78 C 0.92166 0.4136 0.73645 0.0
C79 C 0.92058 0.47371 0.73498 0.0
C80 C 0.93882 0.48554 0.75917 0.0
C81 C 0.94867 0.46161 0.77181 0.0
C82 C 0.94039 0.42586 0.76032 0.0
N83 N 0.90857 0.49644 0.72215 0.0
H84 H 0.60141 0.46588 0.71573 0.0
H85 H 0.53291 0.44671 0.77753 0.0
H86 H 0.63344 0.55783 0.77309 0.0
H87 H 0.4848 0.4044 0.74948 0.0
C88 C 0.4987 0.39113 0.73944 0.0
C89 C 0.59599 0.47648 0.73296 0.0
C90 C 0.6213 0.51468 0.74297 0.0
C91 C 0.56336 0.45207 0.74484 0.0
C92 C 0.55706 0.46559 0.76752 0.0
C93 C 0.58213 0.50361 0.77775 0.0
C94 C 0.61406 0.52834 0.7653 0.0
N95 N 0.53771 0.41401 0.73374 0.0
H96 H 0.55084 0.13095 0.71736 0.0
H97 H 0.58737 0.08426 0.77576 0.0
H98 H 0.47951 0.08379 0.77702 0.0
H99 H 0.64587 0.11938 0.76288 0.0
C100 C 0.64251 0.12208 0.74333 0.0
C101 C 0.54596 0.11746 0.73455 0.0
C102 C 0.51192 0.10817 0.7459 0.0
C103 C 0.57394 0.10981 0.74524 0.0
C104 C 0.56702 0.0917 0.76745 0.0
C105 C 0.53306 0.08247 0.77905 0.0
C106 C 0.50575 0.09093 0.7682 0.0
N107 N 0.60811 0.12032 0.73291 0.0
H108 H 0.74798 0.5349 0.97455 0.0
H109 H 0.82095 0.58238 0.91538 0.0
H110 H 0.71602 0.58708 0.9176 0.0
H111 H 0.84857 0.55019 0.92724 0.0
C112 C 0.84526 0.54617 0.94667 0.0
C113 C 0.75388 0.54908 0.95761 0.0
C114 C 0.72798 0.55996 0.94741 0.0
C115 C 0.78738 0.5564 0.94619 0.0
C116 C 0.79492 0.57524 0.92432 0.0
C117 C 0.7692 0.5861 0.91385 0.0
C118 C 0.73579 0.57848 0.9255 0.0
N119 N 0.81307 0.54534 0.95752 0.0
H120 H 0.4381 0.19928 0.99632 0.0
H121 H 0.39859 0.22862 0.93015 0.0
H122 H 0.41071 0.12805 0.9278 0.0
H123 H 0.38878 0.26697 0.95528 0.0
C124 C 0.41133 0.27684 0.97037 0.0
C125 C 0.4279 0.193 0.97688 0.0
C126 C 0.42528 0.1606 0.9635 0.0
C127 C 0.41838 0.21788 0.96517 0.0
C128 C 0.40543 0.20964 0.93989 0.0
C129 C 0.40227 0.17716 0.92649 0.0
C130 C 0.41263 0.15291 0.93825 0.0
N131 N 0.42469 0.25216 0.97881 0.0
H132 H 0.7995 0.24963 0.98244 0.0
H133 H 0.75686 0.16017 0.92206 0.0
H134 H 0.86518 0.26549 0.9196 0.0
H135 H 0.698 0.14905 0.93548 0.0
C136 C 0.70377 0.1519 0.95541 0.0
C137 C 0.80282 0.23881 0.96457 0.0
C138 C 0.83565 0.26164 0.95225 0.0
C139 C 0.77374 0.20253 0.95371 0.0
C140 C 0.77836 0.18857 0.93048 0.0
C141 C 0.81142 0.21129 0.91817 0.0
C142 C 0.8398 0.24778 0.92912 0.0
N143 N 0.74061 0.18084 0.96675 0.0
H144 H 0.56493 0.76231 0.03633 0.0
H145 H 0.61062 0.84549 0.10025 0.0
H146 H 0.61012 0.7381 0.10216 0.0
H147 H 0.62115 0.88802 0.06947 0.0
C148 C 0.59288 0.87097 0.05919 0.0
C149 C 0.57882 0.77124 0.05501 0.0
C150 C 0.58694 0.74628 0.06785 0.0
C151 C 0.58782 0.80736 0.0663 0.0
C152 C 0.60479 0.81834 0.09084 0.0
C153 C 0.61304 0.79346 0.10372 0.0
C154 C 0.60426 0.75759 0.09211 0.0
N155 N 0.57693 0.83069 0.05318 0.0
H156 H 0.26004 0.79722 0.04527 0.0
H157 H 0.19791 0.77729 0.11034 0.0
H158 H 0.30106 0.88592 0.10598 0.0
H159 H 0.14968 0.73041 0.08808 0.0
C160 C 0.16015 0.72092 0.07275 0.0
C161 C 0.25683 0.80713 0.06347 0.0
C162 C 0.28466 0.84425 0.07423 0.0
C163 C 0.22487 0.78275 0.076 0.0
C164 C 0.22139 0.79569 0.09977 0.0
C165 C 0.24842 0.83284 0.1105 0.0
C166 C 0.28009 0.85715 0.09771 0.0
N167 N 0.19721 0.74543 0.0644 0.0
H168 H 0.21737 0.46551 0.05094 0.0
H169 H 0.25332 0.41909 0.10983 0.0
H170 H 0.14523 0.41831 0.1102 0.0
H171 H 0.31263 0.45631 0.09768 0.0
C172 C 0.30914 0.45758 0.07792 0.0
C173 C 0.21233 0.4521 0.06815 0.0
C174 C 0.17808 0.44269 0.07929 0.0
C175 C 0.24025 0.44459 0.07913 0.0
C176 C 0.23304 0.4265 0.10136 0.0
C177 C 0.19884 0.41716 0.11267 0.0
C178 C 0.17166 0.42554 0.10158 0.0
N179 N 0.27458 0.45495 0.06701 0.0
H180 H 0.42891 0.87951 0.31406 0.0
H181 H 0.50075 0.92234 0.25394 0.0
H182 H 0.39507 0.92627 0.25461 0.0
H183 H 0.54741 0.92763 0.28106 0.0
C184 C 0.53358 0.90459 0.29302 0.0
C185 C 0.43461 0.89276 0.29679 0.0
C186 C 0.40819 0.90229 0.28578 0.0
C187 C 0.46845 0.90038 0.28579 0.0
C188 C 0.47547 0.91722 0.2632 0.0
C189 C 0.44917 0.9267 0.25191 0.0
C190 C 0.41553 0.91915 0.26328 0.0
N191 N 0.494 0.8896 0.29753 0.0
H192 H 0.12291 0.5451 0.32048 0.0
H193 H 0.06854 0.55865 0.25447 0.0
H194 H 0.06926 0.4526 0.26223 0.0
H195 H 0.15752 0.61003 0.32294 0.0
C196 C 0.13986 0.62003 0.31366 0.0
C197 C 0.10739 0.534 0.30236 0.0
C198 C 0.09747 0.49651 0.29296 0.0
C199 C 0.09727 0.55663 0.28829 0.0
C200 C 0.07627 0.54112 0.2653 0.0
C201 C 0.06628 0.50383 0.25575 0.0
C202 C 0.07672 0.4814 0.26966 0.0
N203 N 0.10809 0.59526 0.2963 0.0
H204 H 0.46493 0.58744 0.31354 0.0
H205 H 0.42332 0.50329 0.25002 0.0
H206 H 0.53587 0.60473 0.25339 0.0
H207 H 0.37675 0.46612 0.27185 0.0
C208 C 0.37574 0.48199 0.2883 0.0
C209 C 0.46917 0.57742 0.29569 0.0
C210 C 0.50368 0.59994 0.28484 0.0
C211 C 0.44007 0.54205 0.28371 0.0
C212 C 0.44557 0.52973 0.2602 0.0
C213 C 0.48023 0.55226 0.24932 0.0
C214 C 0.50924 0.58713 0.26182 0.0
N215 N 0.40575 0.52048 0.29578 0.0
Eu216 Eu 0.48047 0.98402 0.98626 0.0
Eu217 Eu 0.50528 0.02558 0.04462 0.0
C218 C 0.46998 0.05618 1.00293 0.0
C219 C 0.47534 0.9758 0.91611 0.0
C220 C 0.47353 0.00933 0.91199 0.0
C221 C 0.49879 0.9771 0.87552 0.0
C222 C 0.4838 0.02625 0.88974 0.0
C223 C 0.48817 0.95995 0.8977 0.0
C224 C 0.49647 0.01027 0.8713 0.0
C225 C 0.46489 0.95767 0.93962 0.0
O226 O 0.45269 0.96683 0.04566 0.0
O227 O 0.42533 0.9557 1.00571 0.0
C228 C 0.42286 0.94883 0.02908 0.0
O229 O 0.4932 0.94475 1.00817 0.0
O230 O 0.49135 0.04949 0.07688 0.0
O231 O 0.54297 0.04453 0.07924 0.0
O232 O 0.53419 0.99 0.03952 0.0
C233 C 0.52018 0.95646 0.02664 0.0
O234 O 0.54437 0.02767 0.98894 0.0
O235 O 0.55213 0.0689 0.02293 0.0
O236 O 0.47045 0.04904 0.02611 0.0
O237 O 0.49317 0.95912 0.95367 0.0
O238 O 0.44174 0.96459 0.95234 0.0
O239 O 0.4801 0.03982 0.98562 0.0
C240 C 0.50785 0.03227 0.11465 0.0
C241 C 0.47026 0.00099 0.11626 0.0
C242 C 0.52465 0.02793 0.1575 0.0
C243 C 0.45988 0.9837 0.13838 0.0
C244 C 0.53494 0.04549 0.13544 0.0
C245 C 0.487 0.99699 0.15916 0.0
C246 C 0.51914 0.05099 0.09144 0.0
C247 C 0.56431 0.06071 1.00264 0.0
H248 H 0.46422 0.02252 0.92596 0.0
H249 H 0.5086 0.9644 0.86157 0.0
H250 H 0.48192 0.05188 0.88688 0.0
H251 H 0.49007 0.93432 0.90051 0.0
H252 H 0.44887 0.98992 0.10044 0.0
H253 H 0.546 0.03854 0.17332 0.0
H254 H 0.43072 0.95983 0.13927 0.0
H255 H 0.56409 0.0694 0.13459 0.0
Eu256 Eu 0.02828 0.49649 0.98887 0.0
Eu257 Eu 0.98398 0.47845 0.04 0.0
C258 C 0.953 0.41522 0.9933 0.0
C259 C 0.04709 0.50717 0.92181 0.0
C260 C 0.01751 0.51564 0.91601 0.0
C261 C 0.0463 0.48915 0.87845 0.0
C262 C 1.00246 0.51091 0.89156 0.0
C263 C 0.06161 0.49423 0.90289 0.0
C264 C 0.01643 0.49715 0.87271 0.0
C265 C 0.06114 0.50933 0.94759 0.0
O266 O 0.04243 0.48444 0.05012 0.0
O267 O 0.05264 0.46663 0.01175 0.0
C268 C 0.06049 0.47234 0.03583 0.0
O269 O 0.06776 0.54632 0.01661 0.0
O270 O 0.95724 0.43766 0.06748 0.0
O271 O 0.95844 0.49244 0.07065 0.0
O272 O 0.02244 0.54333 0.04217 0.0
C273 C 0.05663 0.56224 0.03363 0.0
O274 O 0.98743 0.52022 0.98533 0.0
O275 O 0.94361 0.48507 0.01269 0.0
O276 O 0.9615 0.42131 0.01726 0.0
O277 O 0.06218 0.53649 0.96259 0.0
O278 O 0.04706 0.47633 0.9572 0.0
O279 O 0.97029 0.44284 0.97885 0.0
C280 C 0.9649 0.46636 0.10753 0.0
C281 C 0.9978 0.50068 0.11786 0.0
C282 C 0.96112 0.43806 0.14635 0.0
C283 C 0.01214 0.50368 0.1423 0.0
C284 C 0.94656 0.43519 0.12197 0.0
C285 C 0.99402 0.47231 0.15662 0.0
C286 C 0.95112 0.46137 0.08131 0.0
C287 C 0.95352 0.50705 0.99426 0.0
H288 H 0.00557 0.52524 0.9304 0.0
H289 H 0.05723 0.47838 0.86406 0.0
H290 H 0.97929 0.51703 0.8874 0.0
H291 H 0.0842 0.48729 0.90709 0.0
H292 H 0.01275 0.52492 0.10697 0.0
H293 H 0.94697 0.41357 0.15715 0.0
H294 H 0.03769 0.53024 0.14997 0.0
H295 H 0.92142 0.40835 0.11421 0.0
Eu296 Eu 0.53636 0.51161 0.0396 0.0
Eu297 Eu 0.50494 0.52332 0.98493 0.0
C298 C 0.54318 0.59176 0.02847 0.0
C299 C 0.54391 0.50703 0.10808 0.0
C300 C 0.5059 0.50014 0.10961 0.0
C301 C 0.55699 0.52434 0.15237 0.0
C302 C 0.49351 0.50516 0.13235 0.0
C303 C 0.56931 0.51902 0.12961 0.0
C304 C 0.51909 0.51764 0.15385 0.0
C305 C 0.55751 0.50353 0.08396 0.0
O306 O 0.55655 0.51619 0.9786 0.0
O307 O 0.58874 0.53755 0.01736 0.0
C308 C 0.58836 0.53004 0.99348 0.0
O309 O 0.52121 0.4583 0.01487 0.0
O310 O 0.51221 0.56177 0.95618 0.0
O311 O 0.46736 0.50169 0.95041 0.0
O312 O 0.4749 0.45939 0.98871 0.0
C313 C 0.49056 0.44081 0.99887 0.0
O314 O 0.47249 0.49067 0.04155 0.0
O315 O 0.45951 0.51958 1.00971 0.0
O316 O 0.54266 0.58269 1.00494 0.0
O317 O 0.53252 0.47463 0.06849 0.0
O318 O 0.57575 0.53555 0.07335 0.0
O319 O 0.53383 0.56626 0.04458 0.0
C320 C 0.5012 0.53141 0.91601 0.0
C321 C 0.50443 0.49924 0.90782 0.0
C322 C 0.52913 0.56182 0.87905 0.0
C323 C 0.51955 0.49827 0.88536 0.0
C324 C 0.51367 0.56266 0.90143 0.0
C325 C 0.532 0.52953 0.87083 0.0
C326 C 0.48715 0.53388 0.94025 0.0
C327 C 0.45018 0.50144 0.02991 0.0
H328 H 0.48592 0.49127 0.09318 0.0
H329 H 0.57711 0.53409 0.1688 0.0
H330 H 0.46422 0.5 0.13314 0.0
H331 H 0.59878 0.52475 0.12876 0.0
H332 H 0.49555 0.47495 0.91881 0.0
H333 H 0.53869 0.58623 0.86809 0.0
H334 H 0.52164 0.47316 0.8793 0.0
H335 H 0.51181 0.5879 0.9075 0.0
Eu336 Eu 0.14572 0.31852 0.31877 0.0
Eu337 Eu 0.17484 0.36038 0.37775 0.0
C338 C 0.14354 0.39686 0.33763 0.0
C339 C 0.13417 0.30904 0.24861 0.0
C340 C 0.13291 0.34285 0.24449 0.0
C341 C 0.15831 0.3103 0.20829 0.0
C342 C 0.14395 0.35998 0.22235 0.0
C343 C 0.14689 0.29294 0.23029 0.0
C344 C 0.15689 0.34392 0.20413 0.0
C345 C 0.12468 0.2915 0.27234 0.0
O346 O 0.11032 0.32024 0.37502 0.0
O347 O 0.10227 0.27654 0.34282 0.0
C348 C 0.09066 0.28592 0.36288 0.0
O349 O 0.18084 0.29364 0.3339 0.0
O350 O 0.16554 0.38684 0.41095 0.0
O351 O 0.21158 0.37302 0.41212 0.0
O352 O 0.18048 0.3069 0.37559 0.0
C353 C 0.18767 0.28979 0.357 0.0
O354 O 0.20518 0.36914 0.31668 0.0
O355 O 0.2274 0.39578 0.35714 0.0
O356 O 0.16473 0.40305 0.35843 0.0
O357 O 0.15322 0.29158 0.28511 0.0
O358 O 0.10393 0.30024 0.28629 0.0
O359 O 0.12994 0.36527 0.32252 0.0
C360 C 0.17703 0.36452 0.44778 0.0
C361 C 0.1652 0.32542 0.44917 0.0
C362 C 0.15695 0.36667 0.48896 0.0
C363 C 0.1477 0.30672 0.46981 0.0
C364 C 0.17403 0.38527 0.46821 0.0
C365 C 0.13975 0.326 0.48935 0.0
C366 C 0.19106 0.38358 0.42497 0.0
C367 C 0.23235 0.39416 0.33342 0.0
H368 H 0.12377 0.35626 0.25842 0.0
H369 H 0.16828 0.29753 0.19448 0.0
H370 H 0.14271 0.38594 0.2195 0.0
H371 H 0.14845 0.26713 0.23314 0.0
H372 H 0.16931 0.30916 0.43423 0.0
H373 H 0.1583 0.38515 0.50457 0.0
H374 H 0.14089 0.27706 0.47019 0.0
H375 H 0.18487 0.41604 0.46813 0.0
Eu376 Eu 0.70117 0.83059 0.32273 0.0
Eu377 Eu 0.65923 0.81256 0.37601 0.0
C378 C 0.62477 0.7493 0.3295 0.0
C379 C 0.71138 0.83516 0.25383 0.0
C380 C 0.68351 0.84609 0.24831 0.0
C381 C 0.70673 0.81389 0.21055 0.0
C382 C 0.66748 0.84105 0.22405 0.0
C383 C 0.72291 0.81912 0.23479 0.0
C384 C 0.67888 0.82474 0.20506 0.0
C385 C 0.7279 0.83943 0.27936 0.0
O386 O 0.71204 0.80738 0.3846 0.0
O387 O 0.73515 0.81054 0.34618 0.0
C388 C 0.73634 0.80565 0.36987 0.0
O389 O 0.7418 0.88365 0.34744 0.0
O390 O 0.63049 0.77348 0.40401 0.0
O391 O 0.63586 0.83014 0.40637 0.0
O392 O 0.7054 0.87584 0.38069 0.0
C393 C 0.7356 0.89649 0.36839 0.0
O394 O 0.66368 0.85805 0.32229 0.0
O395 O 0.61995 0.82169 0.34923 0.0
O396 O 0.63309 0.75524 0.35344 0.0
O397 O 0.73026 0.86765 0.29395 0.0
O398 O 0.71567 0.80757 0.29017 0.0
O399 O 0.64238 0.77678 0.31494 0.0
C400 C 0.63585 0.80268 0.44366 0.0
C401 C 0.67489 0.82294 0.45331 0.0
C402 C 0.61606 0.78715 0.48481 0.0
C403 C 0.68443 0.82533 0.47868 0.0
C404 C 0.60655 0.78488 0.45952 0.0
C405 C 0.65501 0.80733 0.49451 0.0
C406 C 0.62511 0.79841 0.41706 0.0
C407 C 0.63045 0.84567 0.33191 0.0
H408 H 0.67405 0.85838 0.26273 0.0
H409 H 0.71574 0.80121 0.19607 0.0
H410 H 0.64595 0.8495 0.22009 0.0
H411 H 0.74424 0.8104 0.23872 0.0
H412 H 0.69785 0.83658 0.44121 0.0
H413 H 0.59308 0.77311 0.49683 0.0
H414 H 0.71462 0.84095 0.48596 0.0
H415 H 0.57632 0.76895 0.4523 0.0
Eu416 Eu 0.21423 0.84904 0.37666 0.0
Eu417 Eu 0.18177 0.85721 0.32133 0.0
C418 C 0.21513 0.92594 0.3647 0.0
C419 C 0.21986 0.84463 0.44507 0.0
C420 C 0.18007 0.8317 0.44581 0.0
C421 C 0.23016 0.86471 0.48897 0.0
C422 C 0.16546 0.83523 0.46796 0.0
C423 C 0.24476 0.86094 0.4668 0.0
C424 C 0.1905 0.85215 0.48961 0.0
C425 C 0.23563 0.84317 0.42145 0.0
O426 O 0.23595 0.85445 0.31588 0.0
O427 O 0.26702 0.87762 0.35485 0.0
C428 C 0.26753 0.86997 0.33108 0.0
O429 O 0.20518 0.79748 0.35279 0.0
O430 O 0.18956 0.89453 0.29185 0.0
O431 O 0.1432 0.83494 0.28716 0.0
O432 O 0.15902 0.79347 0.32383 0.0
C433 C 0.17708 0.77806 0.33528 0.0
O434 O 0.14923 0.82222 0.37726 0.0
O435 O 0.13485 0.85054 0.34574 0.0
O436 O 0.2162 0.91716 0.34134 0.0
O437 O 0.21316 0.81341 0.40573 0.0
O438 O 0.25183 0.87548 0.41097 0.0
O439 O 0.20656 0.9007 0.38088 0.0
C440 C 0.17607 0.86286 0.2519 0.0
C441 C 0.17698 0.82953 0.2433 0.0
C442 C 0.20366 0.89237 0.21463 0.0
C443 C 0.19076 0.82756 0.22044 0.0
C444 C 0.18951 0.89421 0.23735 0.0
C445 C 0.2042 0.85896 0.20595 0.0
C446 C 0.16338 0.86652 0.27645 0.0
C447 C 0.12581 0.83169 0.36567 0.0
H448 H 0.16035 0.81936 0.4292 0.0
H449 H 0.24984 0.87789 0.50555 0.0
H450 H 0.13481 0.82551 0.46815 0.0
H451 H 0.27553 0.87132 0.46654 0.0
H452 H 0.16731 0.80511 0.25426 0.0
H453 H 0.21397 0.91689 0.20371 0.0
H454 H 0.19103 0.80156 0.21405 0.0
H455 H 0.18941 0.92031 0.2437 0.0
Eu456 Eu 0.81291 0.64909 0.65191 0.0
Eu457 Eu 0.83997 0.69366 0.71017 0.0
C458 C 0.80949 0.72767 0.66833 0.0
C459 C 0.80311 0.63825 0.58185 0.0
C460 C 0.80396 0.67317 0.57807 0.0
C461 C 0.82613 0.63835 0.54126 0.0
C462 C 0.81548 0.6903 0.55597 0.0
C463 C 0.81423 0.62101 0.56323 0.0
C464 C 0.82684 0.67312 0.53744 0.0
C465 C 0.79344 0.62087 0.60562 0.0
O466 O 0.77548 0.65366 0.70597 0.0
O467 O 0.76975 0.60773 0.67632 0.0
C468 C 0.75722 0.61822 0.69547 0.0
O469 O 0.84668 0.62405 0.66904 0.0
O470 O 0.82591 0.71761 0.7425 0.0
O471 O 0.87682 0.71125 0.74489 0.0
O472 O 0.84758 0.64145 0.71032 0.0
C473 C 0.85411 0.6225 0.69251 0.0
O474 O 0.87264 0.69914 0.65006 0.0
O475 O 0.89294 0.72895 0.68998 0.0
O476 O 0.83127 0.73558 0.68907 0.0
O477 O 0.82226 0.62229 0.61892 0.0
O478 O 0.7716 0.62882 0.61903 0.0
O479 O 0.79568 0.69501 0.65426 0.0
C480 C 0.84075 0.69913 0.78012 0.0
C481 C 0.84111 0.66483 0.78411 0.0
C482 C 0.81369 0.69639 0.81956 0.0
C483 C 0.82815 0.64671 0.80572 0.0
C484 C 0.82686 0.71465 0.79803 0.0
C485 C 0.81439 0.66236 0.82362 0.0
C486 C 0.85317 0.71814 0.75708 0.0
C487 C 0.89891 0.72557 0.6666 0.0
H488 H 0.79617 0.68747 0.59228 0.0
H489 H 0.83487 0.62469 0.52723 0.0
H490 H 0.8159 0.71716 0.55341 0.0
H491 H 0.81423 0.59436 0.56585 0.0
H492 H 0.85116 0.65188 0.77048 0.0
H493 H 0.80314 0.70889 0.83315 0.0
H494 H 0.82884 0.62043 0.80848 0.0
H495 H 0.82601 0.74085 0.79528 0.0
Eu496 Eu 0.36401 0.16584 0.65361 0.0
Eu497 Eu 0.32095 0.15132 0.70729 0.0
C498 C 0.28442 0.08464 0.66153 0.0
C499 C 0.37486 0.1691 0.58524 0.0
C500 C 0.33464 0.14762 0.57981 0.0
C501 C 0.38189 0.18466 0.54282 0.0
C502 C 0.3181 0.14584 0.55622 0.0
C503 C 0.39846 0.18646 0.56644 0.0
C504 C 0.34114 0.16747 0.5377 0.0
C505 C 0.39208 0.17502 0.61063 0.0
O506 O 0.36774 0.13581 0.71352 0.0
O507 O 0.40161 0.15266 0.67879 0.0
C508 C 0.39678 0.14043 0.70093 0.0
O509 O 0.40442 0.21945 0.67795 0.0
O510 O 0.29194 0.11455 0.73618 0.0
O511 O 0.3052 0.17414 0.7394 0.0
O512 O 0.36689 0.21434 0.71008 0.0
C513 C 0.39775 0.23361 0.69815 0.0
O514 O 0.32058 0.18628 0.64918 0.0
O515 O 0.28186 0.16147 0.6812 0.0
O516 O 0.2817 0.09633 0.68387 0.0
O517 O 0.39184 0.20259 0.62441 0.0
O518 O 0.38163 0.14399 0.62211 0.0
O519 O 0.31259 0.10531 0.64792 0.0
C520 C 0.31084 0.14753 0.77582 0.0
C521 C 0.34409 0.14428 0.78035 0.0
C522 C 0.31005 0.1596 0.81986 0.0
C523 C 0.35991 0.14817 0.80451 0.0
C524 C 0.294 0.15535 0.79568 0.0
C525 C 0.34298 0.15587 0.8244 0.0
C526 C 0.2936 0.14264 0.75049 0.0
C527 C 0.28938 0.17816 0.66048 0.0
H528 H 0.31596 0.13236 0.59389 0.0
H529 H 0.40174 0.19659 0.52883 0.0
H530 H 0.28717 0.12689 0.5529 0.0
H531 H 0.42977 0.2017 0.57004 0.0
H532 H 0.35767 0.1385 0.76522 0.0
H533 H 0.29671 0.16559 0.83505 0.0
H534 H 0.38536 0.14527 0.80772 0.0
H535 H 0.26844 0.15806 0.79249 0.0
Eu536 Eu 0.8699 0.17733 0.70738 0.0
Eu537 Eu 0.84214 0.19311 0.65263 0.0
C538 C 0.87877 0.25899 0.69779 0.0
C539 C 0.87663 0.17104 0.77636 0.0
C540 C 0.87913 0.20603 0.78517 0.0
C541 C 0.84827 0.14322 0.81388 0.0
C542 C 0.86671 0.20964 0.80821 0.0
C543 C 0.8611 0.13971 0.79093 0.0
C544 C 0.85118 0.17829 0.82272 0.0
C545 C 0.88825 0.16618 0.75165 0.0
O546 O 0.89335 0.18503 0.64693 0.0
O547 O 0.92356 0.20362 0.68629 0.0
C548 C 0.92428 0.19741 0.6624 0.0
O549 O 0.85504 0.12478 0.68185 0.0
O550 O 0.85467 0.23344 0.62443 0.0
O551 O 0.80481 0.17588 0.6181 0.0
O552 O 0.8127 0.1286 0.65337 0.0
C553 C 0.82684 0.10909 0.66403 0.0
O554 O 0.80614 0.15713 0.70808 0.0
O555 O 0.79541 0.18817 0.67669 0.0
O556 O 0.87935 0.25114 0.67423 0.0
O557 O 0.86107 0.13876 0.73631 0.0
O558 O 0.90947 0.19755 0.74095 0.0
O559 O 0.86853 0.23258 0.71335 0.0
C560 C 0.84048 0.20375 0.58399 0.0
C561 C 0.84575 0.17239 0.57707 0.0
C562 C 0.86473 0.23107 0.54559 0.0
C563 C 0.85994 0.17019 0.55443 0.0
C564 C 0.85018 0.23308 0.56812 0.0
C565 C 0.8695 0.19949 0.53854 0.0
C566 C 0.82762 0.20767 0.60835 0.0
C567 C 0.78475 0.16884 0.69638 0.0
H568 H 0.89044 0.23055 0.77423 0.0
H569 H 0.83624 0.11869 0.8248 0.0
H570 H 0.86904 0.23687 0.81471 0.0
H571 H 0.85856 0.11239 0.78444 0.0
H572 H 0.83918 0.14976 0.58921 0.0
H573 H 0.87208 0.25397 0.53357 0.0
H574 H 0.86355 0.14567 0.54931 0.0
H575 H 0.84685 0.25776 0.57329 0.0
C576 C 0.34889 0.86093 0.05821 0.0
C577 C 0.31877 0.86973 0.06086 0.0
C578 C 0.35625 0.93004 0.04143 0.0
C579 C 0.38525 0.92005 0.03756 0.0
N580 N 0.40524 0.87231 0.03707 0.0
N581 N 0.28995 0.90837 0.05056 0.0
C582 C 0.38032 0.88431 0.04437 0.0
C583 C 0.32129 0.90303 0.0511 0.0
N584 N 0.34837 0.83126 0.06983 0.0
N585 N 0.36278 0.96595 0.03686 0.0
H586 H 0.26387 0.88915 0.05741 0.0
H587 H 0.28857 0.92989 0.04142 0.0
H588 H 0.38785 0.98634 0.0296 0.0
H589 H 0.34477 0.9766 0.04196 0.0
H590 H 0.37161 0.82619 0.07085 0.0
H591 H 0.32607 0.81364 0.08032 0.0
H592 H 0.40116 0.84492 0.03942 0.0
H593 H 0.42804 0.88848 0.02648 0.0
C594 C 0.11448 0.41999 0.05441 0.0
C595 C 0.14848 0.45065 0.06766 0.0
C596 C 0.12593 0.4961 0.05879 0.0
C597 C 0.09058 0.46488 0.04718 0.0
N598 N 0.04792 0.39621 0.03829 0.0
N599 N 0.18422 0.51654 0.08596 0.0
C600 C 0.08398 0.42654 0.04611 0.0
C601 C 0.15355 0.48837 0.07084 0.0
N602 N 0.11167 0.38477 0.04938 0.0
N603 N 0.13375 0.53329 0.05754 0.0
H604 H 0.20543 0.51217 0.09473 0.0
H605 H 0.18711 0.54329 0.09136 0.0
H606 H 0.11428 0.54013 0.04898 0.0
H607 H 0.16064 0.55747 0.0632 0.0
H608 H 0.08955 0.36252 0.03756 0.0
H609 H 0.13324 0.37878 0.05542 0.0
H610 H 0.04009 0.36736 0.03935 0.0
H611 H 0.02458 0.39995 0.033 0.0
C612 C 0.60476 0.6988 0.04974 0.0
C613 C 0.57564 0.70725 0.0564 0.0
C614 C 0.52521 0.6413 0.0415 0.0
C615 C 0.55443 0.63181 0.03726 0.0
N616 N 0.6218 0.64922 0.04133 0.0
N617 N 0.50855 0.6851 0.06277 0.0
C618 C 0.59422 0.65994 0.04243 0.0
C619 C 0.5359 0.67813 0.05335 0.0
N620 N 0.64233 0.72803 0.04992 0.0
N621 N 0.4873 0.61535 0.03383 0.0
H622 H 0.51518 0.71161 0.07179 0.0
H623 H 0.47981 0.66364 0.06358 0.0
H624 H 0.4784 0.58802 0.02521 0.0
H625 H 0.46519 0.62208 0.03404 0.0
H626 H 0.66413 0.72421 0.04287 0.0
H627 H 0.65106 0.75689 0.05512 0.0
H628 H 0.65096 0.66762 0.04731 0.0
H629 H 0.61496 0.6208 0.03653 0.0
C630 C 0.9012 0.30703 0.97439 0.0
C631 C 0.86547 0.3009 0.96312 0.0
C632 C 0.88634 0.36938 0.97271 0.0
C633 C 0.92317 0.37609 0.98235 0.0
N634 N 0.96846 0.35325 0.98801 0.0
N635 N 0.82619 0.32681 0.9476 0.0
C636 C 0.93138 0.34541 0.98204 0.0
C637 C 0.85864 0.33226 0.96115 0.0
N638 N 0.90596 0.27608 0.9782 0.0
N639 N 0.8773 0.39808 0.97538 0.0
H640 H 0.8049 0.29993 0.93914 0.0
H641 H 0.82179 0.34938 0.94304 0.0
H642 H 0.89683 0.42564 0.98363 0.0
H643 H 0.84957 0.3938 0.97126 0.0
H644 H 0.9297 0.2783 0.98866 0.0
H645 H 0.88461 0.24759 0.97258 0.0
H646 H 0.97721 0.33276 0.98588 0.0
H647 H 0.99145 0.38124 0.99286 0.0
C648 C 0.69149 0.58267 0.97358 0.0
C649 C 0.69254 0.55208 0.95981 0.0
C650 C 0.62721 0.50632 0.97085 0.0
C651 C 0.62478 0.53753 0.98266 0.0
N652 N 0.65156 0.60631 0.991 0.0
N653 N 0.65946 0.48587 0.94203 0.0
C654 C 0.65618 0.57598 0.98298 0.0
C655 C 0.65984 0.51415 0.95754 0.0
N656 N 0.72446 0.61799 0.97809 0.0
N657 N 0.59891 0.4691 0.97302 0.0
H658 H 0.68288 0.49043 0.93213 0.0
H659 H 0.6349 0.45886 0.9374 0.0
H660 H 0.57484 0.46223 0.98281 0.0
H661 H 0.6009 0.44502 0.96703 0.0
H662 H 0.72663 0.64015 0.99024 0.0
H663 H 0.75074 0.62411 0.97131 0.0
H664 H 0.67191 0.6351 0.98933 0.0
H665 H 0.62566 0.60258 0.9971 0.0
C666 C 0.47532 0.14835 0.98461 0.0
C667 C 0.4361 0.13463 0.97581 0.0
C668 C 0.41875 0.06918 0.98549 0.0
C669 C 0.45736 0.0835 0.99569 0.0
N670 N 0.52006 0.13777 1.01022 0.0
N671 N 0.3689 0.08432 0.97314 0.0
C672 C 0.48488 0.1235 0.99702 0.0
C673 C 0.40728 0.09568 0.97784 0.0
N674 N 0.50376 0.1843 0.97994 0.0
N675 N 0.3933 0.03023 0.98256 0.0
H676 H 0.35941 0.10321 0.96804 0.0
H677 H 0.34644 0.05729 0.9766 0.0
H678 H 0.40041 0.00999 0.98849 0.0
H679 H 0.36616 0.01786 0.97269 0.0
H680 H 0.53325 0.19407 0.98355 0.0
H681 H 0.49821 0.20313 0.97034 0.0
H682 H 0.53983 0.16723 0.01383 0.0
H683 H 0.52801 0.12028 0.01947 0.0
C684 C 0.63812 0.13851 0.9661 0.0
C685 C 0.67013 0.13264 0.9704 0.0
C686 C 0.63572 0.08742 1.00104 0.0
C687 C 0.60199 0.08943 0.99423 0.0
N688 N 0.56965 0.1147 0.9692 0.0
N689 N 0.6991 0.0997 0.99052 0.0
C690 C 0.60289 0.11464 0.9766 0.0
C691 C 0.66913 0.10702 0.98777 0.0
N692 N 0.64182 0.16772 0.9525 0.0
N693 N 0.63562 0.06661 0.02015 0.0
H694 H 0.72394 0.11338 0.98111 0.0
H695 H 0.69834 0.07813 1.00073 0.0
H696 H 0.61139 0.0516 0.02994 0.0
H697 H 0.66022 0.06675 0.02766 0.0
H698 H 0.62102 0.17617 0.95079 0.0
H699 H 0.66734 0.18604 0.94474 0.0
H700 H 0.56702 0.12855 0.95421 0.0
H701 H 0.5438 0.09891 0.97723 0.0
C702 C 0.89065 0.55329 0.98347 0.0
C703 C 0.87098 0.53457 0.95999 0.0
C704 C 0.90778 0.50031 0.9582 0.0
C705 C 0.92498 0.51641 0.98256 0.0
N706 N 0.92923 0.55444 0.0198 0.0
N707 N 0.85463 0.48407 0.92749 0.0
C708 C 0.91501 0.54146 0.99571 0.0
C709 C 0.87789 0.5064 0.94804 0.0
N710 N 0.88824 0.58411 0.99337 0.0
N711 N 0.92016 0.47946 0.94456 0.0
H712 H 0.83164 0.48674 0.91984 0.0
H713 H 0.85545 0.46024 0.91953 0.0
H714 H 0.94071 0.47277 0.95147 0.0
H715 H 0.91222 0.47128 0.92574 0.0
H716 H 0.90521 0.60161 1.00907 0.0
H717 H 0.87195 0.59464 0.98467 0.0
H718 H 0.91935 0.56885 0.03122 0.0
H719 H 0.94916 0.54867 0.02894 0.0
C720 C 0.45611 0.34472 0.96137 0.0
C721 C 0.43351 0.31867 0.97834 0.0
C722 C 0.45253 0.37258 1.00985 0.0
C723 C 0.47257 0.39881 0.9922 0.0
N724 N 0.49214 0.41101 0.95093 0.0
N725 N 0.40689 0.30654 0.01772 0.0
C726 C 0.47398 0.38519 0.96787 0.0
C727 C 0.43114 0.33221 1.00243 0.0
N728 N 0.46164 0.33063 0.9394 0.0
N729 N 0.45371 0.38635 0.03363 0.0
H730 H 0.39113 0.27675 0.01294 0.0
H731 H 0.40025 0.3146 0.03446 0.0
H732 H 0.46662 0.41571 0.03939 0.0
H733 H 0.44375 0.36891 0.04809 0.0
H734 H 0.48107 0.34782 0.92727 0.0
H735 H 0.44896 0.30114 0.934 0.0
H736 H 0.49008 0.4032 0.93214 0.0
H737 H 0.50795 0.44085 0.95542 0.0
C738 C 0.11836 0.67215 0.03744 0.0
C739 C 0.13565 0.6803 0.06203 0.0
C740 C 0.09957 0.6113 0.06848 0.0
C741 C 0.08371 0.60287 0.04348 0.0
N742 N 0.08022 0.62413 1.00326 0.0
N743 N 0.14789 0.65835 0.09995 0.0
C744 C 0.09401 0.63298 0.02764 0.0
C745 C 0.12755 0.65006 0.07731 0.0
N746 N 0.12345 0.70193 0.02394 0.0
N747 N 0.08779 0.58229 0.08382 0.0
H748 H 0.16866 0.68639 0.10698 0.0
H749 H 0.14667 0.63744 0.111 0.0
H750 H 0.06949 0.55321 0.07776 0.0
H751 H 0.09435 0.58701 0.10288 0.0
H752 H 0.10817 0.69819 1.007 0.0
H753 H 0.14106 0.73096 0.03047 0.0
H754 H 0.09052 0.64393 0.99006 0.0
H755 H 0.05963 0.59632 0.99577 0.0
C756 C 0.37948 0.50398 0.07383 0.0
C757 C 0.34423 0.47089 0.06398 0.0
C758 C 0.37727 0.4627 0.02909 0.0
C759 C 0.41333 0.49293 0.04056 0.0
N760 N 0.44954 0.54028 0.07513 0.0
N761 N 0.3102 0.41551 0.03393 0.0
C762 C 0.41463 0.51297 0.0633 0.0
C763 C 0.34312 0.4496 0.04187 0.0
N764 N 0.37912 0.52783 0.09269 0.0
N765 N 0.37571 0.44614 1.00611 0.0
H766 H 0.28492 0.40451 0.04299 0.0
H767 H 0.30879 0.39639 0.0196 0.0
H768 H 0.40025 0.45361 0.99669 0.0
H769 H 0.34986 0.42706 0.99558 0.0
H770 H 0.40301 0.55461 0.09894 0.0
H771 H 0.35387 0.52273 0.10057 0.0
H772 H 0.45284 0.55201 0.09324 0.0
H773 H 0.47574 0.54955 0.06743 0.0
C774 C 0.58832 0.91604 0.03079 0.0
C775 C 0.57262 0.89074 0.04957 0.0
C776 C 0.52195 0.90802 0.05302 0.0
C777 C 0.53627 0.93162 0.03328 0.0
N778 N 0.57951 0.95482 1.0011 0.0
N779 N 0.52187 0.85819 0.07644 0.0
C780 C 0.56837 0.93455 0.02142 0.0
C781 C 0.53844 0.88516 0.0599 0.0
N782 N 0.62265 0.92284 0.02227 0.0
N783 N 0.4938 0.90885 0.06594 0.0
H784 H 0.53431 0.84255 0.08318 0.0
H785 H 0.49449 0.84941 0.08231 0.0
H786 H 0.48076 0.92494 0.06131 0.0
H787 H 0.48523 0.89595 0.0823 0.0
H788 H 0.63803 0.94419 1.01069 0.0
H789 H 0.63716 0.90852 0.02795 0.0
H790 H 0.60019 0.95506 0.99007 0.0
H791 H 0.56603 0.96938 0.9941 0.0
C792 C 0.98465 0.22336 0.37499 0.0
C793 C 0.98861 0.20649 0.39643 0.0
C794 C 0.05925 0.24122 0.39557 0.0
C795 C 0.05533 0.2566 0.37338 0.0
N796 N 0.01462 0.25891 0.34006 0.0
N797 N 0.02831 0.19303 0.42442 0.0
C798 C 0.01804 0.2464 0.36241 0.0
C799 C 0.02555 0.21359 0.40593 0.0
N800 N 0.94923 0.21863 0.3673 0.0
N801 N 0.09525 0.25366 0.4071 0.0
H802 H 1.00428 0.17262 0.43257 0.0
H803 H 0.05386 0.1936 0.4303 0.0
H804 H 0.12076 0.27267 0.39971 0.0
H805 H 0.09993 0.24713 0.42473 0.0
H806 H 0.94495 0.23342 0.35347 0.0
H807 H 0.92422 0.20183 0.376 0.0
H808 H 0.98823 0.2493 0.32978 0.0
H809 H 0.03852 0.2771 0.33086 0.0
C810 C 0.82427 0.81683 0.40936 0.0
C811 C 0.82438 0.78276 0.4009 0.0
C812 C 0.76874 0.76503 0.37085 0.0
C813 C 0.76669 0.79773 0.38057 0.0
N814 N 0.78958 0.85211 0.41153 0.0
N815 N 0.7943 0.72167 0.37611 0.0
C816 C 0.79354 0.82279 0.40059 0.0
C817 C 0.79607 0.75619 0.38223 0.0
N818 N 0.85434 0.84416 0.42527 0.0
N819 N 0.74436 0.74208 0.35086 0.0
H820 H 0.81426 0.71453 0.38365 0.0
H821 H 0.77161 0.69889 0.36495 0.0
H822 H 0.72158 0.74502 0.34327 0.0
H823 H 0.7478 0.7212 0.34088 0.0
H824 H 0.85865 0.8717 0.42989 0.0
H825 H 0.87706 0.84057 0.43234 0.0
H826 H 0.80481 0.8678 0.42814 0.0
H827 H 0.76949 0.85964 0.40497 0.0
C828 C 0.27223 0.03359 0.38498 0.0
C829 C 0.24209 0.03981 0.39253 0.0
C830 C 0.1939 0.97244 0.37895 0.0
C831 C 0.22438 0.96543 0.3734 0.0
N832 N 0.29275 0.98693 0.3755 0.0
N833 N 0.17515 0.01438 0.40058 0.0
C834 C 0.26366 0.99537 0.37755 0.0
C835 C 0.2031 0.00901 0.39056 0.0
N836 N 0.30886 0.06429 0.38443 0.0
N837 N 0.15617 0.94439 0.37266 0.0
H838 H 0.18076 0.04082 0.40919 0.0
H839 H 0.14712 0.99197 0.4022 0.0
H840 H 0.14837 0.91716 0.36432 0.0
H841 H 0.13278 0.94903 0.37381 0.0
H842 H 0.33106 0.06207 0.37661 0.0
H843 H 0.3163 0.0927 0.38996 0.0
H844 H 0.32187 0.00673 0.38073 0.0
H845 H 0.28743 0.95901 0.37073 0.0
C846 C 0.56492 0.64034 0.31254 0.0
C847 C 0.53387 0.6379 0.29715 0.0
C848 C 0.56005 0.70762 0.3054 0.0
C849 C 0.59324 0.71079 0.31871 0.0
N850 N 0.62995 0.68108 0.3324 0.0
N851 N 0.504 0.66922 0.276 0.0
C852 C 0.59633 0.67734 0.32173 0.0
C853 C 0.53207 0.67157 0.29271 0.0
N854 N 0.56409 0.60723 0.3186 0.0
N855 N 0.5542 0.73854 0.30593 0.0
H856 H 0.48217 0.64313 0.26692 0.0
H857 H 0.50403 0.69336 0.26975 0.0
H858 H 0.57325 0.765 0.31578 0.0
H859 H 0.52869 0.73695 0.29872 0.0
H860 H 0.58357 0.60685 0.3319 0.0
H861 H 0.542 0.57968 0.31169 0.0
H862 H 0.63574 0.65841 0.33263 0.0
H863 H 0.65357 0.70762 0.33936 0.0
C864 C 0.34124 0.85552 0.29705 0.0
C865 C 0.37244 0.89412 0.29782 0.0
C866 C 0.33421 0.91725 0.3195 0.0
C867 C 0.30452 0.8784 0.32077 0.0
N868 N 0.28246 0.81021 0.31444 0.0
N869 N 0.40153 0.96121 0.31322 0.0
C870 C 0.3088 0.84741 0.31056 0.0
C871 C 0.36979 0.92486 0.31009 0.0
N872 N 0.34202 0.82677 0.28274 0.0
N873 N 0.32768 0.94686 0.32606 0.0
H874 H 0.42797 0.96796 0.30643 0.0
H875 H 0.40266 0.98389 0.3243 0.0
H876 H 0.30155 0.94227 0.33226 0.0
H877 H 0.34659 0.97556 0.32315 0.0
H878 H 0.31831 0.79891 0.2792 0.0
H879 H 0.36527 0.83156 0.2726 0.0
H880 H 0.286 0.78666 0.30966 0.0
H881 H 0.2587 0.80322 0.32453 0.0
C882 C 0.08165 0.44016 0.31768 0.0
C883 C 0.10982 0.4733 0.30725 0.0
C884 C 0.16127 0.46219 0.32415 0.0
C885 C 0.13258 0.42575 0.33085 0.0
N886 N 0.06535 0.37969 0.33472 0.0
N887 N 0.17602 0.5137 0.29784 0.0
C888 C 0.09268 0.4147 0.3279 0.0
C889 C 0.14961 0.48403 0.30998 0.0
N890 N 0.04466 0.43369 0.31838 0.0
N891 N 0.1996 0.47604 0.33124 0.0
H892 H 0.16871 0.53014 0.28692 0.0
H893 H 0.2045 0.51982 0.29677 0.0
H894 H 0.20959 0.46077 0.34123 0.0
H895 H 0.22127 0.50415 0.32908 0.0
H896 H 0.02366 0.41221 0.32783 0.0
H897 H 0.03576 0.45199 0.31121 0.0
H898 H 0.03568 0.36761 0.33012 0.0
H899 H 0.07247 0.36183 0.34428 0.0
C900 C 0.34136 0.45144 0.32531 0.0
C901 C 0.34012 0.46382 0.30156 0.0
C902 C 0.27036 0.43927 0.30226 0.0
C903 C 0.27034 0.42168 0.32431 0.0
N904 N 0.30605 0.40687 0.35504 0.0
N905 N 0.30328 0.46691 0.26616 0.0
C906 C 0.30597 0.42711 0.33564 0.0
C907 C 0.30456 0.45698 0.28968 0.0
N908 N 0.37632 0.46225 0.33787 0.0
N909 N 0.23798 0.44015 0.29368 0.0
H910 H 0.32798 0.48181 0.25677 0.0
H911 H 0.27748 0.45815 0.25534 0.0
H912 H 0.21243 0.42816 0.30243 0.0
H913 H 0.23756 0.4561 0.27931 0.0
H914 H 0.37929 0.45815 0.3564 0.0
H915 H 0.40276 0.478 0.33038 0.0
H916 H 0.33045 0.40596 0.36186 0.0
H917 H 0.28125 0.38796 0.3631 0.0
C918 C 0.57091 0.86993 0.28694 0.0
C919 C 0.55639 0.88752 0.30334 0.0
C920 C 0.59091 0.87828 0.33866 0.0
C921 C 0.60354 0.85862 0.32234 0.0
N922 N 0.59901 0.8287 0.28166 0.0
N923 N 0.54866 0.90492 0.34495 0.0
C924 C 0.59179 0.85257 0.29665 0.0
C925 C 0.56489 0.89026 0.32926 0.0
N926 N 0.56495 0.86999 0.26198 0.0
N927 N 0.60564 0.88768 0.36287 0.0
H928 H 0.53234 0.91721 0.33895 0.0
H929 H 0.54949 0.90296 0.36393 0.0
H930 H 0.62489 0.87982 0.37056 0.0
H931 H 0.60143 0.90603 0.37499 0.0
H932 H 0.57899 0.86221 0.24918 0.0
H933 H 0.54778 0.88015 0.254 0.0
H934 H 0.58754 0.81968 0.26335 0.0
H935 H 0.6136 0.81486 0.28804 0.0
C936 C 0.16127 0.68598 0.29987 0.0
C937 C 0.14957 0.66066 0.31895 0.0
C938 C 0.15073 0.71093 0.34728 0.0
C939 C 0.16522 0.73715 0.32887 0.0
N940 N 0.18877 0.75185 0.2887 0.0
N941 N 0.13803 0.64975 0.36159 0.0
C942 C 0.17137 0.72522 0.30533 0.0
C943 C 0.14591 0.67342 0.34293 0.0
N944 N 0.16323 0.67265 0.27662 0.0
N945 N 0.13997 0.72142 0.36852 0.0
H946 H 0.13268 0.62144 0.35892 0.0
H947 H 0.13948 0.65895 0.38007 0.0
H948 H 0.14227 0.7484 0.37211 0.0
H949 H 0.12546 0.70239 0.38156 0.0
H950 H 0.1664 0.68786 0.26119 0.0
H951 H 0.16005 0.64543 0.27239 0.0
H952 H 0.19836 0.74621 0.27241 0.0
H953 H 0.19624 0.78075 0.2919 0.0
C954 C 0.77268 0.00324 0.38613 0.0
C955 C 0.8101 0.01493 0.39757 0.0
C956 C 0.80113 0.95076 0.38585 0.0
C957 C 0.76192 0.93762 0.37741 0.0
N958 N 0.70959 0.95075 0.36953 0.0
N959 N 0.85769 0.99828 0.4121 0.0
C960 C 0.74742 0.96368 0.37768 0.0
C961 C 0.82391 0.9884 0.3983 0.0
N962 N 0.76206 0.03034 0.38214 0.0
N963 N 0.81682 0.92758 0.38179 0.0
H964 H 0.87468 0.0251 0.42218 0.0
H965 H 0.86694 0.97865 0.41555 0.0
H966 H 0.80114 0.89969 0.37295 0.0
H967 H 0.84631 0.9372 0.38524 0.0
H968 H 0.73688 0.02441 0.37159 0.0
H969 H 0.78011 0.05978 0.38743 0.0
H970 H 0.69574 0.96669 0.37246 0.0
H971 H 0.69132 0.92323 0.36065 0.0
C972 C 0.05303 0.82951 0.4097 0.0
C973 C 0.01795 0.79764 0.39847 0.0
C974 C 0.05261 0.79251 0.36356 0.0
C975 C 0.08837 0.82147 0.37621 0.0
N976 N 0.12317 0.86516 0.41263 0.0
N977 N 0.9847 0.74544 0.36623 0.0
C978 C 0.0887 0.83924 0.39967 0.0
C979 C 0.01769 0.77849 0.37563 0.0
N980 N 0.05205 0.85164 0.42943 0.0
N981 N 0.05205 0.77796 0.34013 0.0
H982 H 0.95884 0.7339 0.37467 0.0
H983 H 0.98365 0.7276 0.3512 0.0
H984 H 0.0771 0.78563 0.33125 0.0
H985 H 0.02662 0.76024 0.32883 0.0
H986 H 0.0759 0.87774 0.43678 0.0
H987 H 0.02644 0.84601 0.43701 0.0
H988 H 0.12557 0.87494 0.43111 0.0
H989 H 0.14986 0.8751 0.4055 0.0
C990 C 0.2579 0.25161 0.36271 0.0
C991 C 0.23848 0.22205 0.37851 0.0
C992 C 0.18257 0.23189 0.37545 0.0
C993 C 0.20404 0.26476 0.36252 0.0
N994 N 0.2634 0.3083 0.34523 0.0
N995 N 0.185 0.18804 0.40335 0.0
C996 C 0.24198 0.27516 0.35633 0.0
C997 C 0.20138 0.21301 0.38571 0.0
N998 N 0.29095 0.25638 0.3532 0.0
N999 N 0.14387 0.21799 0.37722 0.0
H1000 H 0.19827 0.17442 0.41197 0.0
H1001 H 0.15998 0.1837 0.41117 0.0
H1002 H 0.12895 0.23033 0.36897 0.0
H1003 H 0.12585 0.19203 0.38449 0.0
H1004 H 0.30417 0.27461 0.33951 0.0
H1005 H 0.30337 0.23951 0.35737 0.0
H1006 H 0.29286 0.31998 0.34314 0.0
H1007 H 0.25248 0.32574 0.33951 0.0
C1008 C 0.65161 0.55392 0.70746 0.0
C1009 C 0.65602 0.54016 0.73022 0.0
C1010 C 0.72672 0.57808 0.73027 0.0
C1011 C 0.72237 0.5895 0.70659 0.0
N1012 N 0.68112 0.58491 0.67111 0.0
N1013 N 0.69713 0.53264 0.76081 0.0
C1014 C 0.68489 0.57611 0.69462 0.0
C1015 C 0.69342 0.55041 0.74093 0.0
N1016 N 0.61586 0.54734 0.69874 0.0
N1017 N 0.76261 0.5942 0.74287 0.0
H1018 H 0.67342 0.51185 0.769 0.0
H1019 H 0.72345 0.53578 0.76779 0.0
H1020 H 0.78807 0.61335 0.73547 0.0
H1021 H 0.76696 0.5907 0.76135 0.0
H1022 H 0.61127 0.56 0.6837 0.0
H1023 H 0.59094 0.53168 0.70779 0.0
H1024 H 0.65472 0.57258 0.66036 0.0
H1025 H 0.70482 0.60259 0.6616 0.0
C1026 C 0.47916 0.14806 0.74439 0.0
C1027 C 0.4824 0.11641 0.73436 0.0
C1028 C 0.43119 0.10186 0.70152 0.0
C1029 C 0.426 0.13187 0.71256 0.0
N1030 N 0.44141 0.18029 0.74652 0.0
N1031 N 0.4577 0.05921 0.70604 0.0
C1032 C 0.44877 0.15387 0.73467 0.0
C1033 C 0.45743 0.09226 0.71359 0.0
N1034 N 0.50618 0.17357 0.76258 0.0
N1035 N 0.41101 0.08241 0.67949 0.0
H1036 H 0.47653 0.05127 0.71438 0.0
H1037 H 0.43728 0.038 0.6929 0.0
H1038 H 0.38963 0.08652 0.6708 0.0
H1039 H 0.41701 0.06377 0.66898 0.0
H1040 H 0.50829 0.19972 0.7687 0.0
H1041 H 0.52876 0.17024 0.77022 0.0
H1042 H 0.45339 0.19334 0.76426 0.0
H1043 H 0.4215 0.18771 0.73937 0.0
C1044 C 0.87114 0.3445 0.72425 0.0
C1045 C 0.91044 0.37442 0.72539 0.0
C1046 C 0.92938 0.32783 0.71042 0.0
C1047 C 0.88969 0.29876 0.70709 0.0
N1048 N 0.82218 0.28059 0.7067 0.0
N1049 N 0.97628 0.39646 0.71599 0.0
C1050 C 0.86035 0.30742 0.71281 0.0
C1051 C 0.93941 0.36665 0.71738 0.0
N1052 N 0.84439 0.35106 0.73498 0.0
N1053 N 0.95746 0.31806 0.70791 0.0
H1054 H 0.9846 0.42527 0.72097 0.0
H1055 H 0.99766 0.39305 0.70794 0.0
H1056 H 0.95103 0.28969 0.70341 0.0
H1057 H 0.98691 0.33729 0.71247 0.0
H1058 H 0.81635 0.32918 0.73722 0.0
H1059 H 0.85108 0.37783 0.74363 0.0
H1060 H 0.79971 0.28664 0.70797 0.0
H1061 H 0.81317 0.25312 0.6983 0.0
C1062 C 0.18982 0.00304 0.62946 0.0
C1063 C 0.19702 0.97173 0.62988 0.0
C1064 C 0.26223 0.01486 0.65022 0.0
C1065 C 0.25408 0.04561 0.65115 0.0
N1066 N 0.20807 0.06783 0.64598 0.0
N1067 N 0.23694 0.94565 0.64384 0.0
C1068 C 0.21719 0.03933 0.64212 0.0
C1069 C 0.23242 0.97702 0.64113 0.0
N1070 N 0.15756 0.99847 0.61614 0.0
N1071 N 0.29854 0.02193 0.65794 0.0
H1072 H 0.21567 0.9175 0.63738 0.0
H1073 H 0.26033 0.9469 0.65412 0.0
H1074 H 0.32033 0.04874 0.66614 0.0
H1075 H 0.30783 0.002 0.65503 0.0
H1076 H 0.15297 0.02132 0.61275 0.0
H1077 H 0.13671 0.97225 0.60667 0.0
H1078 H 0.1803 0.06363 0.6422 0.0
H1079 H 0.22753 0.09502 0.65486 0.0
C1080 C 0.02594 0.25067 0.64043 0.0
C1081 C 0.02817 0.21938 0.6286 0.0
C1082 C 0.96517 0.17358 0.64274 0.0
C1083 C 0.96109 0.20504 0.65218 0.0
N1084 N 0.98466 0.27361 0.65658 0.0
N1085 N 0.99778 0.15131 0.61546 0.0
C1086 C 0.99078 0.24366 0.65021 0.0
C1087 C 0.99723 0.18084 0.62899 0.0
N1088 N 0.05773 0.287 0.64276 0.0
N1089 N 0.93886 0.1368 0.64745 0.0
H1090 H 0.02077 0.15543 0.60525 0.0
H1091 H 0.97418 0.12329 0.61272 0.0
H1092 H 0.91533 0.13058 0.65766 0.0
H1093 H 0.94217 0.11296 0.64322 0.0
H1094 H 0.05927 0.31022 0.65343 0.0
H1095 H 0.08392 0.29324 0.63579 0.0
H1096 H 1.0034 0.30207 0.65309 0.0
H1097 H 0.95905 0.26953 0.6634 0.0
C1098 C 0.74514 0.76944 0.65083 0.0
C1099 C 0.77178 0.80242 0.6395 0.0
C1100 C 0.82477 0.79144 0.65315 0.0
C1101 C 0.79725 0.75537 0.661 0.0
N1102 N 0.73092 0.70908 0.66716 0.0
N1103 N 0.836 0.84202 0.6267 0.0
C1104 C 0.75729 0.74408 0.65977 0.0
C1105 C 0.81144 0.81286 0.63993 0.0
N1106 N 0.70868 0.76322 0.65388 0.0
N1107 N 0.86359 0.80548 0.65843 0.0
H1108 H 0.82723 0.85799 0.61637 0.0
H1109 H 0.86409 0.84801 0.62408 0.0
H1110 H 0.87466 0.79072 0.668 0.0
H1111 H 0.88474 0.83335 0.65532 0.0
H1112 H 0.68922 0.742 0.66423 0.0
H1113 H 0.69893 0.78153 0.64793 0.0
H1114 H 0.70103 0.69693 0.66365 0.0
H1115 H 0.73891 0.6912 0.6759 0.0
C1116 C 0.97266 0.78524 0.62277 0.0
C1117 C 0.00785 0.79347 0.6359 0.0
C1118 C 0.97243 0.75902 0.67024 0.0
C1119 C 0.93713 0.75247 0.65768 0.0
N1120 N 0.90548 0.76769 0.62458 0.0
N1121 N 0.04279 0.79521 0.67384 0.0
C1122 C 0.93783 0.76812 0.6347 0.0
C1123 C 0.00823 0.78294 0.66029 0.0
N1124 N 0.97236 0.79324 0.59869 0.0
N1125 N 0.97186 0.74016 0.69054 0.0
H1126 H 0.0696 0.81094 0.66677 0.0
H1127 H 0.04496 0.7924 0.69267 0.0
H1128 H 0.94667 0.72135 0.69829 0.0
H1129 H 0.99622 0.74019 0.69845 0.0
H1130 H 0.94697 0.78347 0.58718 0.0
H1131 H 0.99751 0.80747 0.58961 0.0
H1132 H 0.90546 0.7823 0.60934 0.0
H1133 H 0.87939 0.75594 0.63272 0.0
C1134 C 0.21209 0.17515 0.61442 0.0
C1135 C 0.20802 0.20613 0.62486 0.0
C1136 C 0.25365 0.21551 0.66027 0.0
C1137 C 0.26062 0.18713 0.6486 0.0
N1138 N 0.24948 0.14248 0.61324 0.0
N1139 N 0.23013 0.26047 0.65541 0.0
C1140 C 0.24085 0.16786 0.62522 0.0
C1141 C 0.22994 0.2274 0.64729 0.0
N1142 N 0.18706 0.15133 0.59488 0.0
N1143 N 0.26991 0.23144 0.68369 0.0
H1144 H 0.21431 0.27095 0.64606 0.0
H1145 H 0.24879 0.2796 0.67008 0.0
H1146 H 0.28914 0.22531 0.69337 0.0
H1147 H 0.26224 0.2487 0.69425 0.0
H1148 H 0.18564 0.12573 0.58816 0.0
H1149 H 0.165 0.15503 0.58676 0.0
H1150 H 0.24018 0.13173 0.59482 0.0
H1151 H 0.26775 0.13363 0.62121 0.0
C1152 C 0.76034 0.00041 0.66092 0.0
C1153 C 0.7731 0.98823 0.64021 0.0
C1154 C 0.82017 0.05556 0.6345 0.0
C1155 C 0.80922 0.06752 0.65618 0.0
N1156 N 0.77264 0.05216 0.69188 0.0
N1157 N 0.81755 0.00273 0.60871 0.0
C1158 C 0.7804 0.04015 0.66997 0.0
C1159 C 0.80389 0.01539 0.62748 0.0
N1160 N 0.72872 0.974 0.67171 0.0
N1161 N 0.8452 0.08263 0.62023 0.0
H1162 H 0.80497 0.97369 0.6021 0.0
H1163 H 0.84279 0.02062 0.60062 0.0
H1164 H 0.85825 0.11229 0.62505 0.0
H1165 H 0.85108 0.07599 0.6028 0.0
H1166 H 0.71509 0.98148 0.68497 0.0
H1167 H 0.71441 0.94439 0.66636 0.0
H1168 H 0.75513 0.03341 0.70419 0.0
H1169 H 0.78586 0.08115 0.6987 0.0
C1170 C 0.48527 0.32301 0.7308 0.0
C1171 C 0.47412 0.35123 0.72758 0.0
C1172 C 0.41294 0.3022 0.7048 0.0
C1173 C 0.42497 0.27445 0.70705 0.0
N1174 N 0.47558 0.25982 0.71735 0.0
N1175 N 0.43138 0.36997 0.70759 0.0
C1176 C 0.46219 0.28534 0.71843 0.0
C1177 C 0.43897 0.34145 0.71355 0.0
N1178 N 0.51655 0.33142 0.74682 0.0
N1179 N 0.37664 0.29103 0.69419 0.0
H1180 H 0.45014 0.39919 0.71317 0.0
H1181 H 0.40831 0.36532 0.69528 0.0
H1182 H 0.35808 0.2634 0.68552 0.0
H1183 H 0.36414 0.30851 0.69496 0.0
H1184 H 0.52351 0.31078 0.75201 0.0
H1185 H 0.53361 0.3583 0.75682 0.0
H1186 H 0.50401 0.26743 0.72307 0.0
H1187 H 0.45931 0.23179 0.70877 0.0
C1188 C 0.67708 0.11721 0.70665 0.0
C1189 C 0.6778 0.13666 0.72949 0.0
C1190 C 0.74838 0.17842 0.72999 0.0
C1191 C 0.74758 0.16026 0.70659 0.0
N1192 N 0.71064 0.11651 0.67075 0.0
N1193 N 0.7123 0.19145 0.75986 0.0
C1194 C 0.71166 0.13121 0.69422 0.0
C1195 C 0.71295 0.16891 0.74027 0.0
N1196 N 0.64411 0.08386 0.69763 0.0
N1197 N 0.78306 0.20425 0.74276 0.0
H1198 H 0.68684 0.18595 0.7676 0.0
H1199 H 0.73625 0.21772 0.76689 0.0
H1200 H 0.80959 0.21381 0.73547 0.0
H1201 H 0.78573 0.21435 0.76121 0.0
H1202 H 0.64288 0.06588 0.68263 0.0
H1203 H 0.61852 0.07222 0.70638 0.0
H1204 H 0.68501 0.09847 0.65971 0.0
H1205 H 0.73548 0.12457 0.66155 0.0
C1206 C 0.86898 0.54839 0.72429 0.0
C1207 C 0.90612 0.55725 0.71727 0.0
C1208 C 0.90902 0.60872 0.6935 0.0
C1209 C 0.87099 0.59841 0.69946 0.0
N1210 N 0.81142 0.55332 0.71563 0.0
N1211 N 0.95861 0.59057 0.69179 0.0
C1212 C 0.84995 0.56669 0.71343 0.0
C1213 C 0.92536 0.58595 0.7009 0.0
N1214 N 0.85273 0.52396 0.74222 0.0
N1215 N 0.93012 0.64111 0.68164 0.0
H1216 H 0.97143 0.57437 0.69677 0.0
H1217 H 0.9717 0.60799 0.67772 0.0
H1218 H 0.91893 0.658 0.67525 0.0
H1219 H 0.95959 0.65288 0.6796 0.0
H1220 H 0.82775 0.51977 0.75002 0.0
H1221 H 0.866 0.51042 0.75097 0.0
H1222 H 0.79353 0.52802 0.72359 0.0
H1223 H 0.79638 0.56545 0.70727 0.0
C1224 C 0.46744 0.98361 0.22689 0.0
C1225 C 0.45698 0.94425 0.2279 0.0
C1226 C 0.46861 0.94016 0.18427 0.0
C1227 C 0.47598 0.97852 0.18274 0.0
N1228 N 0.47459 0.03398 0.20124 0.0
N1229 N 0.43977 0.88275 0.20642 0.0
C1230 C 0.47311 0.99946 0.20368 0.0
C1231 C 0.45524 0.92182 0.20622 0.0
N1232 N 0.47343 0.00632 0.2482 0.0
N1233 N 0.47583 0.92173 0.16513 0.0
H1234 H 0.42928 0.86823 0.22207 0.0
H1235 H 0.43397 0.86429 0.19056 0.0
H1236 H 0.48608 0.93429 0.14885 0.0
H1237 H 0.47501 0.89543 0.16624 0.0
H1238 H 0.48524 0.03617 0.24889 0.0
H1239 H 0.46979 0.99592 0.26558 0.0
H1240 H 0.46856 0.04858 0.21519 0.0
H1241 H 0.47828 0.04634 0.1845 0.0
C1242 C 0.00688 0.48151 0.2269 0.0
C1243 C 0.04565 0.48932 0.23072 0.0
C1244 C 0.04653 0.47687 0.1863 0.0
C1245 C 0.01031 0.47529 0.18226 0.0
N1246 N 0.95736 0.47998 0.19845 0.0
N1247 N 0.10433 0.49845 0.21402 0.0
C1248 C 0.99059 0.47827 0.2025 0.0
C1249 C 0.06596 0.48771 0.21044 0.0
N1250 N 0.98563 0.47686 0.24666 0.0
N1251 N 0.06203 0.46742 0.16713 0.0
H1252 H 0.11971 0.50653 0.2314 0.0
H1253 H 0.12172 0.5022 0.19961 0.0
H1254 H 0.0484 0.45908 0.14921 0.0
H1255 H 0.08639 0.46427 0.16941 0.0
H1256 H 0.95605 0.46747 0.24493 0.0
H1257 H 0.99676 0.47879 0.26477 0.0
H1258 H 0.94415 0.48651 0.21248 0.0
H1259 H 0.94457 0.47797 0.18084 0.0
C1260 C 0.49433 0.50992 0.22073 0.0
C1261 C 0.48619 0.54051 0.22428 0.0
C1262 C 0.50073 0.55684 0.18194 0.0
C1263 C 0.50652 0.52477 0.17787 0.0
N1264 N 0.501 0.46605 0.19151 0.0
N1265 N 0.47316 0.58751 0.20695 0.0
C1266 C 0.50093 0.49984 0.19672 0.0
C1267 C 0.48674 0.56223 0.20443 0.0
N1268 N 0.49738 0.49159 0.24045 0.0
N1269 N 0.51022 0.58314 0.1648 0.0
H1270 H 0.46236 0.59194 0.22312 0.0
H1271 H 0.46914 0.60127 0.19234 0.0
H1272 H 0.52099 0.58055 0.14818 0.0
H1273 H 0.51069 0.60929 0.16797 0.0
H1274 H 0.50759 0.47216 0.2395 0.0
H1275 H 0.49258 0.498 0.2583 0.0
H1276 H 0.4931 0.44478 0.20373 0.0
H1277 H 0.50556 0.45764 0.17409 0.0
C1278 C 0.94255 0.45216 0.81669 0.0
C1279 C 0.96552 0.47268 0.79782 0.0
C1280 C 0.01995 0.51312 0.82867 0.0
C1281 C 0.99857 0.48942 0.84702 0.0
N1282 N 0.94182 0.4324 0.85792 0.0
N1283 N 0.02759 0.51925 0.78501 0.0
C1284 C 0.96041 0.45787 0.84091 0.0
C1285 C 0.00465 0.50237 0.80356 0.0
N1286 N 0.90347 0.42793 0.81158 0.0
N1287 N 0.05437 0.5464 0.83534 0.0
H1288 H 0.01739 0.51216 0.76637 0.0
H1289 H 0.05743 0.53797 0.78796 0.0
H1290 H 0.06635 0.55527 0.85361 0.0
H1291 H 0.06928 0.56688 0.82313 0.0
H1292 H 0.88465 0.41532 0.82514 0.0
H1293 H 0.88922 0.42329 0.79406 0.0
H1294 H 0.91574 0.40657 0.85363 0.0
H1295 H 0.95403 0.4352 0.87584 0.0
C1296 C 0.54031 0.52127 0.80157 0.0
C1297 C 0.57354 0.51699 0.80138 0.0
C1298 C 0.58407 0.52982 0.84648 0.0
C1299 C 0.54759 0.52798 0.84681 0.0
N1300 N 0.48857 0.51758 0.82479 0.0
N1301 N 0.62573 0.51394 0.82363 0.0
C1302 C 0.52517 0.5229 0.82437 0.0
C1303 C 0.59537 0.52078 0.82383 0.0
N1304 N 0.52346 0.5241 0.77988 0.0
N1305 N 0.60813 0.54081 0.86777 0.0
H1306 H 0.63519 0.50769 0.80743 0.0
H1307 H 0.63983 0.51179 0.83957 0.0
H1308 H 0.60077 0.54776 0.88465 0.0
H1309 H 0.63664 0.54643 0.8683 0.0
H1310 H 0.50149 0.53104 0.779 0.0
H1311 H 0.53408 0.52327 0.76286 0.0
H1312 H 0.46925 0.50935 0.80907 0.0
H1313 H 0.47613 0.51817 0.84107 0.0
C1314 C 0.4947 0.02455 0.80247 0.0
C1315 C 0.52541 0.06329 0.80252 0.0
C1316 C 0.54055 0.06511 0.84705 0.0
C1317 C 0.50699 0.02816 0.84747 0.0
N1318 N 0.44837 0.9753 0.82617 0.0
N1319 N 0.57405 0.12272 0.82547 0.0
C1320 C 0.48307 0.00851 0.82531 0.0
C1321 C 0.5475 0.0842 0.82499 0.0
N1322 N 0.47728 0.00272 0.78055 0.0
N1323 N 0.56638 0.08151 0.86755 0.0
H1324 H 0.57988 0.13782 0.80978 0.0
H1325 H 0.58789 0.14045 0.84174 0.0
H1326 H 0.56247 0.06828 0.88396 0.0
H1327 H 0.59333 0.10644 0.8676 0.0
H1328 H 0.45754 0.97315 0.7793 0.0
H1329 H 0.48529 0.01333 0.76345 0.0
H1330 H 0.42779 0.96204 0.81103 0.0
H1331 H 0.43849 0.96282 0.84252 0.0
C1332 C 0.11452 0.30858 0.55564 0.0
C1333 C 0.10497 0.26938 0.55581 0.0
C1334 C 0.09924 0.26353 0.51045 0.0
C1335 C 0.11777 0.30447 0.51088 0.0
N1336 N 0.10677 0.35281 0.53109 0.0
N1337 N 0.08504 0.20801 0.53292 0.0
C1338 C 0.11555 0.32409 0.53271 0.0
C1339 C 0.09615 0.24628 0.53305 0.0
N1340 N 0.12309 0.33137 0.57724 0.0
N1341 N 0.07928 0.24121 0.48915 0.0
H1342 H 0.08059 0.19386 0.54898 0.0
H1343 H 0.0825 0.19105 0.51693 0.0
H1344 H 0.07578 0.25342 0.47345 0.0
H1345 H 0.06198 0.21121 0.48809 0.0
H1346 H 0.13348 0.36104 0.57768 0.0
H1347 H 0.1228 0.32132 0.59454 0.0
H1348 H 0.10152 0.36585 0.54639 0.0
H1349 H 0.09853 0.35871 0.5141 0.0
C1350 C 0.66903 0.83645 0.56356 0.0
C1351 C 0.68734 0.81601 0.57197 0.0
C1352 C 0.67351 0.78202 0.53086 0.0
C1353 C 0.66461 0.80932 0.52138 0.0
N1354 N 0.65158 0.86173 0.52887 0.0
N1355 N 0.67166 0.74956 0.56708 0.0
C1356 C 0.66106 0.83596 0.53781 0.0
C1357 C 0.68013 0.78282 0.55676 0.0
N1358 N 0.65563 0.85267 0.58027 0.0
N1359 N 0.67545 0.75519 0.51531 0.0
H1360 H 0.66664 0.74684 0.58569 0.0
H1361 H 0.66312 0.72348 0.55669 0.0
H1362 H 0.66941 0.75267 0.49622 0.0
H1363 H 0.68549 0.73722 0.52147 0.0
H1364 H 0.63889 0.86499 0.57527 0.0
H1365 H 0.65757 0.84941 0.5991 0.0
H1366 H 0.65274 0.88441 0.53997 0.0
H1367 H 0.64527 0.86212 0.5101 0.0
C1368 C 0.14949 0.89124 0.53775 0.0
C1369 C 0.15212 0.87233 0.5584 0.0
C1370 C 0.17289 0.83504 0.53256 0.0
C1371 C 0.17542 0.85781 0.5129 0.0
N1372 N 0.17057 0.91083 0.49744 0.0
N1373 N 0.16999 0.82906 0.57654 0.0
C1374 C 0.16464 0.88664 0.51559 0.0
C1375 C 0.16454 0.84474 0.55609 0.0
N1376 N 0.13199 0.91319 0.53928 0.0
N1377 N 0.17767 0.80368 0.52855 0.0
H1378 H 0.16378 0.83509 0.59406 0.0
H1379 H 0.18331 0.8123 0.57652 0.0
H1380 H 0.18372 0.7957 0.5115 0.0
H1381 H 0.17224 0.78363 0.54139 0.0
H1382 H 0.12564 0.92454 0.52415 0.0
H1383 H 0.12048 0.91706 0.55528 0.0
H1384 H 0.16736 0.93509 0.49953 0.0
H1385 H 0.18183 0.90863 0.48095 0.0
C1386 C 0.66886 0.83208 0.13602 0.0
C1387 C 0.62926 0.80388 0.12992 0.0
C1388 C 0.62238 0.78857 0.17296 0.0
C1389 C 0.66128 0.81847 0.17935 0.0
N1390 N 0.71915 0.87386 0.16821 0.0
N1391 N 0.56612 0.76113 0.14307 0.0
C1392 C 0.68383 0.84183 0.16123 0.0
C1393 C 0.60532 0.7839 0.14858 0.0
N1394 N 0.69254 0.84842 0.1177 0.0
N1395 N 0.60226 0.76362 0.18987 0.0
H1396 H 0.55255 0.75725 0.12542 0.0
H1397 H 0.54669 0.74901 0.15639 0.0
H1398 H 0.61375 0.76593 0.20793 0.0
H1399 H 0.57543 0.73869 0.18545 0.0
H1400 H 0.72255 0.86584 0.12086 0.0
H1401 H 0.68264 0.84214 0.09901 0.0
H1402 H 0.73514 0.89426 0.1562 0.0
H1403 H 0.73097 0.88196 0.18654 0.0
C1404 C 0.26327 0.84713 0.15675 0.0
C1405 C 0.24166 0.84602 0.13489 0.0
C1406 C 0.1958 0.85382 0.15953 0.0
C1407 C 0.21819 0.85649 0.18144 0.0
N1408 N 0.27774 0.86452 0.20096 0.0
N1409 N 0.19354 0.85793 0.11529 0.0
C1410 C 0.2534 0.85591 0.18006 0.0
C1411 C 0.20992 0.85257 0.13627 0.0
N1412 N 0.29206 0.83814 0.15532 0.0
N1413 N 0.16008 0.85043 0.16082 0.0
H1414 H 0.20346 0.85748 0.09798 0.0
H1415 H 0.17282 0.86658 0.11539 0.0
H1416 H 0.14827 0.85058 0.17745 0.0
H1417 H 0.14066 0.84405 0.14539 0.0
H1418 H 0.30578 0.83403 0.17069 0.0
H1419 H 0.30051 0.83218 0.1386 0.0
H1420 H 0.30556 0.86837 0.20082 0.0
H1421 H 0.27151 0.87129 0.2183 0.0
C1422 C 0.15921 0.35901 0.13545 0.0
C1423 C 0.19039 0.39759 0.13596 0.0
C1424 C 0.20295 0.39889 0.18073 0.0
C1425 C 0.16882 0.36222 0.18057 0.0
N1426 N 0.11076 0.31007 0.15825 0.0
N1427 N 0.23861 0.45656 0.15956 0.0
C1428 C 0.14597 0.34293 0.15803 0.0
C1429 C 0.2115 0.41817 0.15873 0.0
N1430 N 0.14282 0.33739 0.11334 0.0
N1431 N 0.22778 0.41482 0.2017 0.0
H1432 H 0.24569 0.47177 0.14391 0.0
H1433 H 0.25177 0.47411 0.17597 0.0
H1434 H 0.2227 0.40144 0.21809 0.0
H1435 H 0.25504 0.4395 0.20224 0.0
H1436 H 0.12271 0.3079 0.11185 0.0
H1437 H 0.1521 0.34803 0.09642 0.0
H1438 H 0.09099 0.29713 0.1427 0.0
H1439 H 0.09966 0.29765 0.17442 0.0
C1440 C 0.81057 0.64474 0.89193 0.0
C1441 C 0.77843 0.60662 0.89091 0.0
C1442 C 0.76644 0.60743 0.84627 0.0
C1443 C 0.80141 0.6435 0.8469 0.0
N1444 N 0.86007 0.69384 0.86976 0.0
N1445 N 0.72829 0.54945 0.86671 0.0
C1446 C 0.82433 0.66153 0.8696 0.0
C1447 C 0.75687 0.58737 0.86797 0.0
N1448 N 0.8274 0.66529 0.9143 0.0
N1449 N 0.74191 0.5928 0.82511 0.0
H1450 H 0.7203 0.53381 0.88215 0.0
H1451 H 0.71457 0.53259 0.85014 0.0
H1452 H 0.74792 0.60669 0.80891 0.0
H1453 H 0.71416 0.56874 0.82418 0.0
H1454 H 0.8483 0.69455 0.91624 0.0
H1455 H 0.81781 0.6541 0.93104 0.0
H1456 H 0.87987 0.70574 0.88535 0.0
H1457 H 0.87147 0.70688 0.85381 0.0
C1458 C 0.41201 0.19521 0.88305 0.0
C1459 C 0.38859 0.16931 0.89984 0.0
C1460 C 0.33854 0.13096 0.86606 0.0
C1461 C 0.35955 0.15981 0.85011 0.0
N1462 N 0.41389 0.22228 0.84413 0.0
N1463 N 0.3272 0.11542 0.90826 0.0
C1464 C 0.39578 0.19269 0.85874 0.0
C1465 C 0.35125 0.13778 0.8916 0.0
N1466 N 0.44999 0.22171 0.89023 0.0
N1467 N 0.30696 0.09669 0.85669 0.0
H1468 H 0.33523 0.11958 0.92718 0.0
H1469 H 0.29813 0.09483 0.90359 0.0
H1470 H 0.29698 0.09053 0.838 0.0
H1471 H 0.29292 0.07307 0.86697 0.0
H1472 H 0.46953 0.23879 0.87809 0.0
H1473 H 0.46296 0.22404 0.90785 0.0
H1474 H 0.43815 0.24876 0.85046 0.0
H1475 H 0.40279 0.22175 0.82627 0.0
C1476 C 0.84692 0.18737 0.8925 0.0
C1477 C 0.81742 0.19726 0.89383 0.0
C1478 C 0.80509 0.18688 0.84869 0.0
C1479 C 0.83821 0.18251 0.84729 0.0
N1480 N 0.89386 0.18341 0.86779 0.0
N1481 N 0.77076 0.21045 0.87327 0.0
C1482 C 0.85985 0.18372 0.86919 0.0
C1483 C 0.79687 0.19781 0.87194 0.0
N1484 N 0.86225 0.18104 0.91358 0.0
N1485 N 0.7811 0.17985 0.82784 0.0
H1486 H 0.76362 0.2183 0.88994 0.0
H1487 H 0.75828 0.21585 0.85785 0.0
H1488 H 0.78612 0.17155 0.81054 0.0
H1489 H 0.75448 0.1788 0.82803 0.0
H1490 H 0.88102 0.16998 0.91359 0.0
H1491 H 0.85329 0.18336 0.93095 0.0
H1492 H 0.91305 0.18861 0.88313 0.0
H1493 H 0.90468 0.18125 0.85111 0.0
C1494 C 0.33185 0.17069 0.46853 0.0
C1495 C 0.29207 0.14257 0.46321 0.0
C1496 C 0.28221 0.14859 0.5068 0.0
C1497 C 0.32299 0.16822 0.51257 0.0
N1498 N 0.37758 0.22284 0.49797 0.0
N1499 N 0.22805 0.1062 0.47722 0.0
C1500 C 0.34594 0.18676 0.49322 0.0
C1501 C 0.26673 0.13202 0.48231 0.0
N1502 N 0.35636 0.18172 0.45021 0.0
N1503 N 0.2591 0.15158 0.52338 0.0
H1504 H 0.21527 0.09435 0.45936 0.0
H1505 H 0.20933 0.09478 0.49102 0.0
H1506 H 0.27091 0.16967 0.53978 0.0
H1507 H 0.22948 0.14085 0.51937 0.0
H1508 H 0.38631 0.19949 0.4538 0.0
H1509 H 0.34712 0.17079 0.43177 0.0
H1510 H 0.39338 0.23927 0.48416 0.0
H1511 H 0.3842 0.23811 0.51537 0.0
C1512 C 0.87384 0.1866 0.4691 0.0
C1513 C 0.90817 0.18431 0.46848 0.0
C1514 C 0.92112 0.20036 0.51334 0.0
C1515 C 0.88384 0.19657 0.51426 0.0
N1516 N 0.82238 0.18125 0.49324 0.0
N1517 N 0.96332 0.18574 0.49011 0.0
C1518 C 0.85965 0.18871 0.49217 0.0
C1519 C 0.93178 0.19068 0.49061 0.0
N1520 N 0.85508 0.18721 0.44755 0.0
N1521 N 0.94653 0.21386 0.5341 0.0
H1522 H 0.97223 0.17891 0.47384 0.0
H1523 H 0.97909 0.18572 0.50594 0.0
H1524 H 0.93968 0.22138 0.551 0.0
H1525 H 0.97544 0.22093 0.53408 0.0
H1526 H 0.83207 0.19265 0.44693 0.0
H1527 H 0.865 0.18613 0.43032 0.0
H1528 H 0.8021 0.17107 0.4779 0.0
H1529 H 0.81053 0.18194 0.50976 0.0
C1530 C 0.83006 0.68917 0.46885 0.0
C1531 C 0.86248 0.72709 0.46948 0.0
C1532 C 0.87464 0.72731 0.51419 0.0
C1533 C 0.83946 0.69152 0.51395 0.0
N1534 N 0.78018 0.64143 0.49152 0.0
N1535 N 0.91243 0.78482 0.49331 0.0
C1536 C 0.81623 0.6732 0.49138 0.0
C1537 C 0.88403 0.74686 0.49231 0.0
N1538 N 0.81303 0.668 0.44668 0.0
N1539 N 0.89966 0.74209 0.53513 0.0
H1540 H 0.9201 0.80023 0.47776 0.0
H1541 H 0.92612 0.80195 0.5098 0.0
H1542 H 0.89401 0.72845 0.55142 0.0
H1543 H 0.9275 0.76594 0.53569 0.0
H1544 H 0.79186 0.63883 0.4451 0.0
H1545 H 0.8227 0.67851 0.4298 0.0
H1546 H 0.7603 0.62939 0.47598 0.0
H1547 H 0.76865 0.62918 0.50764 0.0
loop_
_geom_bond_atom_site_label_1
_geom_bond_atom_site_label_2
_geom_bond_distance
_geom_bond_site_symmetry_2
_ccdc_geom_bond_type
H0 C5 0.930 . S
H1 C8 0.930 . S
H2 C10 0.930 . S
H3 C4 1.016 . S
C4 H3 1.016 . S
C4 N11 1.286 . S
C5 H0 0.930 . S
C5 C6 1.397 . S
C5 C7 1.361 . S
C6 C5 1.397 . S
C6 C10 1.390 . S
C7 C5 1.361 . S
C7 C8 1.393 . S
C7 N11 1.413 . S
C8 H1 0.930 . S
C8 C7 1.393 . S
C8 C9 1.399 . S
C9 C8 1.399 . S
C9 C10 1.381 . S
C10 H2 0.930 . S
C10 C6 1.390 . S
C10 C9 1.381 . S
N11 C4 1.286 . S
N11 C7 1.413 . S
H12 C17 0.930 . S
H13 C20 0.930 . S
H14 C22 0.930 . S
H15 C16 1.016 . S
C16 H15 1.016 . S
C16 N23 1.286 . S
C17 H12 0.930 . S
C17 C18 1.397 . S
C17 C19 1.361 . S
C18 C17 1.397 . S
C18 C22 1.390 . S
C19 C17 1.361 . S
C19 C20 1.393 . S
C19 N23 1.413 . S
C20 H13 0.930 . S
C20 C19 1.393 . S
C20 C21 1.399 . S
C21 C20 1.399 . S
C21 C22 1.381 . S
C22 H14 0.930 . S
C22 C18 1.390 . S
C22 C21 1.381 . S
N23 C16 1.286 . S
N23 C19 1.413 . S
H24 C29 0.930 . S
H25 C32 0.930 . S
H26 C34 0.930 . S
H27 C28 1.016 . S
C28 H27 1.016 . S
C28 N35 1.286 . S
C29 H24 0.930 . S
C29 C30 1.397 . S
C29 C31 1.361 . S
C30 C29 1.397 . S
C30 C34 1.390 . S
C31 C29 1.361 . S
C31 C32 1.393 . S
C31 N35 1.413 . S
C32 H25 0.930 . S
C32 C31 1.393 . S
C32 C33 1.399 . S
C33 C32 1.399 . S
C33 C34 1.381 . S
C34 H26 0.930 . S
C34 C30 1.390 . S
C34 C33 1.381 . S
N35 C28 1.286 . S
N35 C31 1.413 . S
H36 C41 0.930 . S
H37 C44 0.930 . S
H38 C46 0.930 . S
H39 C40 1.016 . S
C40 H39 1.016 . S
C40 N47 1.286 . S
C41 H36 0.930 . S
C41 C42 1.397 . S
C41 C43 1.361 . S
C42 C41 1.397 . S
C42 C46 1.390 . S
C43 C41 1.361 . S
C43 C44 1.393 . S
C43 N47 1.413 . S
C44 H37 0.930 . S
C44 C43 1.393 . S
C44 C45 1.399 . S
C45 C44 1.399 . S
C45 C46 1.381 . S
C46 H38 0.930 . S
C46 C42 1.390 . S
C46 C45 1.381 . S
N47 C40 1.286 . S
N47 C43 1.413 . S
H48 C53 0.930 . S
H49 C56 0.930 . S
H50 C58 0.930 . S
H51 C52 1.016 . S
C52 H51 1.016 . S
C52 N59 1.286 . S
C53 H48 0.930 . S
C53 C54 1.397 . S
C53 C55 1.361 . S
C54 C53 1.397 . S
C54 C58 1.390 . S
C55 C53 1.361 . S
C55 C56 1.393 . S
C55 N59 1.413 . S
C56 H49 0.930 . S
C56 C55 1.393 . S
C56 C57 1.399 . S
C57 C56 1.399 . S
C57 C58 1.381 . S
C58 H50 0.930 . S
C58 C54 1.390 . S
C58 C57 1.381 . S
N59 C52 1.286 . S
N59 C55 1.413 . S
H60 C65 0.930 . S
H61 C68 0.930 . S
H62 C70 0.930 . S
H63 C64 1.016 . S
C64 H63 1.016 . S
C64 N71 1.286 . S
C65 H60 0.930 . S
C65 C66 1.397 . S
C65 C67 1.361 . S
C66 C65 1.397 . S
C66 C70 1.390 . S
C67 C65 1.361 . S
C67 C68 1.393 . S
C67 N71 1.413 . S
C68 H61 0.930 . S
C68 C67 1.393 . S
C68 C69 1.399 . S
C69 C68 1.399 . S
C69 C70 1.381 . S
C70 H62 0.930 . S
C70 C66 1.390 . S
C70 C69 1.381 . S
N71 C64 1.286 . S
N71 C67 1.413 . S
H72 C77 0.930 . S
H73 C80 0.930 . S
H74 C82 0.930 . S
H75 C76 1.016 . S
C76 H75 1.016 . S
C76 N83 1.286 . S
C77 H72 0.930 . S
C77 C78 1.397 . S
C77 C79 1.361 . S
C78 C77 1.397 . S
C78 C82 1.390 . S
C79 C77 1.361 . S
C79 C80 1.393 . S
C79 N83 1.413 . S
C80 H73 0.930 . S
C80 C79 1.393 . S
C80 C81 1.399 . S
C81 C80 1.399 . S
C81 C82 1.381 . S
C82 H74 0.930 . S
C82 C78 1.390 . S
C82 C81 1.381 . S
N83 C76 1.286 . S
N83 C79 1.413 . S
H84 C89 0.930 . S
H85 C92 0.930 . S
H86 C94 0.930 . S
H87 C88 1.016 . S
C88 H87 1.016 . S
C88 N95 1.286 . S
C89 H84 0.930 . S
C89 C90 1.397 . S
C89 C91 1.361 . S
C90 C89 1.397 . S
C90 C94 1.390 . S
C91 C89 1.361 . S
C91 C92 1.393 . S
C91 N95 1.413 . S
C92 H85 0.930 . S
C92 C91 1.393 . S
C92 C93 1.399 . S
C93 C92 1.399 . S
C93 C94 1.381 . S
C94 H86 0.930 . S
C94 C90 1.390 . S
C94 C93 1.381 . S
N95 C88 1.286 . S
N95 C91 1.413 . S
H96 C101 0.930 . S
H97 C104 0.930 . S
H98 C106 0.930 . S
H99 C100 1.016 . S
C100 H99 1.016 . S
C100 N107 1.286 . S
C101 H96 0.930 . S
C101 C102 1.397 . S
C101 C103 1.361 . S
C102 C101 1.397 . S
C102 C106 1.390 . S
C103 C101 1.361 . S
C103 C104 1.393 . S
C103 N107 1.413 . S
C104 H97 0.930 . S
C104 C103 1.393 . S
C104 C105 1.399 . S
C105 C104 1.399 . S
C105 C106 1.381 . S
C106 H98 0.930 . S
C106 C102 1.390 . S
C106 C105 1.381 . S
N107 C100 1.286 . S
N107 C103 1.413 . S
H108 C113 0.930 . S
H109 C116 0.930 . S
H110 C118 0.930 . S
H111 C112 1.016 . S
C112 H111 1.016 . S
C112 N119 1.286 . S
C113 H108 0.930 . S
C113 C114 1.397 . S
C113 C115 1.361 . S
C114 C113 1.397 . S
C114 C118 1.390 . S
C115 C113 1.361 . S
C115 C116 1.393 . S
C115 N119 1.413 . S
C116 H109 0.930 . S
C116 C115 1.393 . S
C116 C117 1.399 . S
C117 C116 1.399 . S
C117 C118 1.381 . S
C118 H110 0.930 . S
C118 C114 1.390 . S
C118 C117 1.381 . S
N119 C112 1.286 . S
N119 C115 1.413 . S
H120 C125 0.930 1_554 S
H121 C128 0.930 . S
H122 C130 0.930 . S
H123 C124 1.016 . S
C124 H123 1.016 . S
C124 N131 1.286 . S
C125 H120 0.930 1_556 S
C125 C126 1.397 . S
C125 C127 1.361 . S
C126 C125 1.397 . S
C126 C130 1.390 . S
C127 C125 1.361 . S
C127 C128 1.393 . S
C127 N131 1.413 . S
C128 H121 0.930 . S
C128 C127 1.393 . S
C128 C129 1.399 . S
C129 C128 1.399 . S
C129 C130 1.381 . S
C130 H122 0.930 . S
C130 C126 1.390 . S
C130 C129 1.381 . S
N131 C124 1.286 . S
N131 C127 1.413 . S
H132 C137 0.930 . S
H133 C140 0.930 . S
H134 C142 0.930 . S
H135 C136 1.016 . S
C136 H135 1.016 . S
C136 N143 1.286 . S
C137 H132 0.930 . S
C137 C138 1.397 . S
C137 C139 1.361 . S
C138 C137 1.397 . S
C138 C142 1.390 . S
C139 C137 1.361 . S
C139 C140 1.393 . S
C139 N143 1.413 . S
C140 H133 0.930 . S
C140 C139 1.393 . S
C140 C141 1.399 . S
C141 C140 1.399 . S
C141 C142 1.381 . S
C142 H134 0.930 . S
C142 C138 1.390 . S
C142 C141 1.381 . S
N143 C136 1.286 . S
N143 C139 1.413 . S
H144 C149 0.930 . S
H145 C152 0.930 . S
H146 C154 0.930 . S
H147 C148 1.016 . S
C148 H147 1.016 . S
C148 N155 1.286 . S
C149 H144 0.930 . S
C149 C150 1.397 . S
C149 C151 1.361 . S
C150 C149 1.397 . S
C150 C154 1.390 . S
C151 C149 1.361 . S
C151 C152 1.393 . S
C151 N155 1.413 . S
C152 H145 0.930 . S
C152 C151 1.393 . S
C152 C153 1.399 . S
C153 C152 1.399 . S
C153 C154 1.381 . S
C154 H146 0.930 . S
C154 C150 1.390 . S
C154 C153 1.381 . S
N155 C148 1.286 . S
N155 C151 1.413 . S
H156 C161 0.930 . S
H157 C164 0.930 . S
H158 C166 0.930 . S
H159 C160 1.016 . S
C160 H159 1.016 . S
C160 N167 1.286 . S
C161 H156 0.930 . S
C161 C162 1.397 . S
C161 C163 1.361 . S
C162 C161 1.397 . S
C162 C166 1.390 . S
C163 C161 1.361 . S
C163 C164 1.393 . S
C163 N167 1.413 . S
C164 H157 0.930 . S
C164 C163 1.393 . S
C164 C165 1.399 . S
C165 C164 1.399 . S
C165 C166 1.381 . S
C166 H158 0.930 . S
C166 C162 1.390 . S
C166 C165 1.381 . S
N167 C160 1.286 . S
N167 C163 1.413 . S
H168 C173 0.930 . S
H169 C176 0.930 . S
H170 C178 0.930 . S
H171 C172 1.016 . S
C172 H171 1.016 . S
C172 N179 1.286 . S
C173 H168 0.930 . S
C173 C174 1.397 . S
C173 C175 1.361 . S
C174 C173 1.397 . S
C174 C178 1.390 . S
C175 C173 1.361 . S
C175 C176 1.393 . S
C175 N179 1.413 . S
C176 H169 0.930 . S
C176 C175 1.393 . S
C176 C177 1.399 . S
C177 C176 1.399 . S
C177 C178 1.381 . S
C178 H170 0.930 . S
C178 C174 1.390 . S
C178 C177 1.381 . S
N179 C172 1.286 . S
N179 C175 1.413 . S
H180 C185 0.930 . S
H181 C188 0.930 . S
H182 C190 0.930 . S
H183 C184 1.016 . S
C184 H183 1.016 . S
C184 N191 1.286 . S
C185 H180 0.930 . S
C185 C186 1.397 . S
C185 C187 1.361 . S
C186 C185 1.397 . S
C186 C190 1.390 . S
C187 C185 1.361 . S
C187 C188 1.393 . S
C187 N191 1.413 . S
C188 H181 0.930 . S
C188 C187 1.393 . S
C188 C189 1.399 . S
C189 C188 1.399 . S
C189 C190 1.381 . S
C190 H182 0.930 . S
C190 C186 1.390 . S
C190 C189 1.381 . S
N191 C184 1.286 . S
N191 C187 1.413 . S
H192 C197 0.930 . S
H193 C200 0.930 . S
H194 C202 0.930 . S
H195 C196 1.016 . S
C196 H195 1.016 . S
C196 N203 1.286 . S
C197 H192 0.930 . S
C197 C198 1.397 . S
C197 C199 1.361 . S
C198 C197 1.397 . S
C198 C202 1.390 . S
C199 C197 1.361 . S
C199 C200 1.393 . S
C199 N203 1.413 . S
C200 H193 0.930 . S
C200 C199 1.393 . S
C200 C201 1.399 . S
C201 C200 1.399 . S
C201 C202 1.381 . S
C202 H194 0.930 . S
C202 C198 1.390 . S
C202 C201 1.381 . S
N203 C196 1.286 . S
N203 C199 1.413 . S
H204 C209 0.930 . S
H205 C212 0.930 . S
H206 C214 0.930 . S
H207 C208 1.016 . S
C208 H207 1.016 . S
C208 N215 1.286 . S
C209 H204 0.930 . S
C209 C210 1.397 . S
C209 C211 1.361 . S
C210 C209 1.397 . S
C210 C214 1.390 . S
C211 C209 1.361 . S
C211 C212 1.393 . S
C211 N215 1.413 . S
C212 H205 0.930 . S
C212 C211 1.393 . S
C212 C213 1.399 . S
C213 C212 1.399 . S
C213 C214 1.381 . S
C214 H206 0.930 . S
C214 C210 1.390 . S
C214 C213 1.381 . S
N215 C208 1.286 . S
N215 C211 1.413 . S
Eu216 C225 2.828 1_565 S
Eu216 O227 2.392 . S
Eu216 O229 2.418 . S
Eu216 O234 2.373 1_565 S
Eu216 O237 2.488 . S
Eu216 O238 2.471 1_565 S
Eu216 O239 2.349 1_565 S
Eu217 O226 2.373 1_545 S
Eu217 O230 2.488 . S
Eu217 O231 2.471 1_545 S
Eu217 O232 2.349 1_545 S
Eu217 O235 2.392 . S
Eu217 O236 2.418 . S
Eu217 C246 2.828 . S
C218 O236 1.244 . S
C218 O239 1.265 1_554 S
C219 C220 1.379 . S
C219 C223 1.373 1_545 S
C219 C225 1.505 . S
C220 C219 1.379 . S
C220 C222 1.369 . S
C220 H248 0.930 . S
C221 C223 1.383 1_545 S
C221 C224 1.382 . S
C221 H249 0.930 1_545 S
C222 C220 1.369 . S
C222 C224 1.392 . S
C222 H250 0.930 . S
C223 C219 1.373 1_565 S
C223 C221 1.383 1_565 S
C223 H251 0.931 . S
C224 C221 1.382 . S
C224 C222 1.392 . S
C225 Eu216 2.828 1_545 S
C225 C219 1.505 . S
C225 O237 1.249 1_545 S
C225 O238 1.244 . S
O226 Eu217 2.373 1_565 S
O226 C228 1.258 . S
O227 Eu216 2.392 . S
O227 C228 1.242 1_556 S
C228 O226 1.258 . S
C228 O227 1.242 1_554 S
O229 Eu216 2.418 . S
O229 C233 1.244 1_556 S
O230 Eu217 2.488 . S
O230 C246 1.249 . S
O231 Eu217 2.471 1_565 S
O231 C246 1.244 1_565 S
O232 Eu217 2.349 1_565 S
O232 C233 1.265 . S
C233 O229 1.244 1_554 S
C233 O232 1.265 . S
O234 Eu216 2.373 1_545 S
O234 C247 1.258 . S
O235 Eu217 2.392 . S
O235 C247 1.242 1_554 S
O236 Eu217 2.418 . S
O236 C218 1.244 . S
O237 Eu216 2.488 . S
O237 C225 1.249 1_565 S
O238 Eu216 2.471 1_545 S
O238 C225 1.244 . S
O239 Eu216 2.349 1_545 S
O239 C218 1.265 1_556 S
C240 C241 1.379 . S
C240 C244 1.373 1_565 S
C240 C246 1.505 1_565 S
C241 C240 1.379 . S
C241 C243 1.369 . S
C241 H252 0.930 . S
C242 C244 1.383 . S
C242 C245 1.382 1_545 S
C242 H253 0.930 . S
C243 C241 1.369 . S
C243 C245 1.392 . S
C243 H254 0.930 . S
C244 C240 1.373 1_545 S
C244 C242 1.383 . S
C244 H255 0.931 . S
C245 C242 1.382 1_565 S
C245 C243 1.392 . S
C246 Eu217 2.828 . S
C246 O230 1.249 . S
C246 O231 1.244 1_545 S
C246 C240 1.505 1_545 S
C247 O234 1.258 . S
C247 O235 1.242 1_556 S
H248 C220 0.930 . S
H249 C221 0.930 1_565 S
H250 C222 0.930 . S
H251 C223 0.931 . S
H252 C241 0.930 . S
H253 C242 0.930 . S
H254 C243 0.930 . S
H255 C244 0.931 . S
Eu256 C265 2.832 . S
Eu256 O267 2.392 1_556 S
Eu256 O269 2.418 . S
Eu256 O274 2.373 1_455 S
Eu256 O277 2.488 . S
Eu256 O278 2.471 1_455 S
Eu256 O279 2.349 1_455 S
Eu257 O266 2.373 1_655 S
Eu257 O270 2.488 . S
Eu257 O271 2.471 1_655 S
Eu257 O272 2.349 1_655 S
Eu257 O275 2.392 . S
Eu257 O276 2.418 . S
Eu257 C286 2.828 1_655 S
C258 O276 1.244 1_556 S
C258 O279 1.265 . S
C259 C260 1.379 . S
C259 C263 1.373 1_655 S
C259 C265 1.500 1_655 S
C260 C259 1.379 . S
C260 C262 1.369 . S
C260 H288 0.930 . S
C261 C263 1.383 1_655 S
C261 C264 1.382 . S
C261 H289 0.930 1_655 S
C262 C260 1.369 . S
C262 C264 1.392 . S
C262 H290 0.930 . S
C263 C259 1.373 1_455 S
C263 C261 1.383 1_455 S
C263 H291 0.931 . S
C264 C261 1.382 . S
C264 C262 1.392 . S
C265 Eu256 2.832 . S
C265 C259 1.500 1_455 S
C265 O277 1.256 . S
C265 O278 1.243 1_455 S
O266 Eu257 2.373 1_455 S
O266 C268 1.258 . S
O267 Eu256 2.392 1_554 S
O267 C268 1.242 . S
C268 O266 1.258 . S
C268 O267 1.242 . S
O269 Eu256 2.418 . S
O269 C273 1.244 1_556 S
O270 Eu257 2.488 . S
O270 C286 1.249 1_655 S
O271 Eu257 2.471 1_455 S
O271 C286 1.244 . S
O272 Eu257 2.349 1_455 S
O272 C273 1.265 . S
C273 O269 1.244 1_554 S
C273 O272 1.265 . S
O274 Eu256 2.373 1_655 S
O274 C287 1.258 . S
O275 Eu257 2.392 . S
O275 C287 1.242 1_554 S
O276 Eu257 2.418 . S
O276 C258 1.244 1_554 S
O277 Eu256 2.488 . S
O277 C265 1.256 . S
O278 Eu256 2.471 1_655 S
O278 C265 1.243 1_655 S
O279 Eu256 2.349 1_655 S
O279 C258 1.265 . S
C280 C281 1.379 . S
C280 C284 1.373 1_455 S
C280 C286 1.505 . S
C281 C280 1.379 . S
C281 C283 1.369 . S
C281 H292 0.930 . S
C282 C284 1.383 1_455 S
C282 C285 1.382 . S
C282 H293 0.930 1_455 S
C283 C281 1.369 . S
C283 C285 1.392 . S
C283 H294 0.930 . S
C284 C280 1.373 1_655 S
C284 C282 1.383 1_655 S
C284 H295 0.931 . S
C285 C282 1.382 . S
C285 C283 1.392 . S
C286 Eu257 2.828 1_455 S
C286 O270 1.249 1_455 S
C286 O271 1.244 . S
C286 C280 1.505 . S
C287 O274 1.258 . S
C287 O275 1.242 1_556 S
H288 C260 0.930 . S
H289 C261 0.930 1_455 S
H290 C262 0.930 . S
H291 C263 0.931 . S
H292 C281 0.930 . S
H293 C282 0.930 1_655 S
H294 C283 0.930 . S
H295 C284 0.931 . S
Eu296 C305 2.828 . S
Eu296 O307 2.392 . S
Eu296 O309 2.418 . S
Eu296 O314 2.373 . S
Eu296 O317 2.488 . S
Eu296 O318 2.471 . S
Eu296 O319 2.349 . S
Eu297 O306 2.373 . S
Eu297 O310 2.488 . S
Eu297 O311 2.471 . S
Eu297 O312 2.349 . S
Eu297 O315 2.392 1_556 S
Eu297 O316 2.418 . S
Eu297 C326 2.828 . S
C298 O316 1.244 1_554 S
C298 O319 1.265 . S
C299 C300 1.379 . S
C299 C303 1.373 . S
C299 C305 1.505 . S
C300 C299 1.379 . S
C300 C302 1.369 . S
C300 H328 0.930 . S
C301 C303 1.383 . S
C301 C304 1.382 . S
C301 H329 0.930 . S
C302 C300 1.369 . S
C302 C304 1.392 . S
C302 H330 0.930 . S
C303 C299 1.373 . S
C303 C301 1.383 . S
C303 H331 0.931 . S
C304 C301 1.382 . S
C304 C302 1.392 . S
C305 Eu296 2.828 . S
C305 C299 1.505 . S
C305 O317 1.249 . S
C305 O318 1.244 . S
O306 Eu297 2.373 . S
O306 C308 1.258 . S
O307 Eu296 2.392 . S
O307 C308 1.242 1_554 S
C308 O306 1.258 . S
C308 O307 1.242 1_556 S
O309 Eu296 2.418 . S
O309 C313 1.244 . S
O310 Eu297 2.488 . S
O310 C326 1.249 . S
O311 Eu297 2.471 . S
O311 C326 1.244 . S
O312 Eu297 2.349 . S
O312 C313 1.265 1_556 S
C313 O309 1.244 . S
C313 O312 1.265 1_554 S
O314 Eu296 2.373 . S
O314 C327 1.258 . S
O315 Eu297 2.392 1_554 S
O315 C327 1.242 . S
O316 Eu297 2.418 . S
O316 C298 1.244 1_556 S
O317 Eu296 2.488 . S
O317 C305 1.249 . S
O318 Eu296 2.471 . S
O318 C305 1.244 . S
O319 Eu296 2.349 . S
O319 C298 1.265 . S
C320 C321 1.379 . S
C320 C324 1.373 . S
C320 C326 1.505 . S
C321 C320 1.379 . S
C321 C323 1.369 . S
C321 H332 0.930 . S
C322 C324 1.383 . S
C322 C325 1.382 . S
C322 H333 0.930 . S
C323 C321 1.369 . S
C323 C325 1.392 . S
C323 H334 0.930 . S
C324 C320 1.373 . S
C324 C322 1.383 . S
C324 H335 0.931 . S
C325 C322 1.382 . S
C325 C323 1.392 . S
C326 Eu297 2.828 . S
C326 O310 1.249 . S
C326 O311 1.244 . S
C326 C320 1.505 . S
C327 O314 1.258 . S
C327 O315 1.242 . S
H328 C300 0.930 . S
H329 C301 0.930 . S
H330 C302 0.930 . S
H331 C303 0.931 . S
H332 C321 0.930 . S
H333 C322 0.930 . S
H334 C323 0.930 . S
H335 C324 0.931 . S
Eu336 C345 2.828 . S
Eu336 O347 2.392 . S
Eu336 O349 2.418 . S
Eu336 O354 2.373 . S
Eu336 O357 2.488 . S
Eu336 O358 2.471 . S
Eu336 O359 2.349 . S
Eu337 O346 2.373 . S
Eu337 O350 2.488 . S
Eu337 O351 2.471 . S
Eu337 O352 2.349 . S
Eu337 O355 2.392 . S
Eu337 O356 2.418 . S
Eu337 C366 2.828 . S
C338 O356 1.244 . S
C338 O359 1.265 . S
C339 C340 1.379 . S
C339 C343 1.373 . S
C339 C345 1.505 . S
C340 C339 1.379 . S
C340 C342 1.369 . S
C340 H368 0.930 . S
C341 C343 1.383 . S
C341 C344 1.382 . S
C341 H369 0.930 . S
C342 C340 1.369 . S
C342 C344 1.392 . S
C342 H370 0.930 . S
C343 C339 1.373 . S
C343 C341 1.383 . S
C343 H371 0.931 . S
C344 C341 1.382 . S
C344 C342 1.392 . S
C345 Eu336 2.828 . S
C345 C339 1.505 . S
C345 O357 1.249 . S
C345 O358 1.244 . S
O346 Eu337 2.373 . S
O346 C348 1.258 . S
O347 Eu336 2.392 . S
O347 C348 1.242 . S
C348 O346 1.258 . S
C348 O347 1.242 . S
O349 Eu336 2.418 . S
O349 C353 1.244 . S
O350 Eu337 2.488 . S
O350 C366 1.249 . S
O351 Eu337 2.471 . S
O351 C366 1.244 . S
O352 Eu337 2.349 . S
O352 C353 1.265 . S
C353 O349 1.244 . S
C353 O352 1.265 . S
O354 Eu336 2.373 . S
O354 C367 1.258 . S
O355 Eu337 2.392 . S
O355 C367 1.242 . S
O356 Eu337 2.418 . S
O356 C338 1.244 . S
O357 Eu336 2.488 . S
O357 C345 1.249 . S
O358 Eu336 2.471 . S
O358 C345 1.244 . S
O359 Eu336 2.349 . S
O359 C338 1.265 . S
C360 C361 1.379 . S
C360 C364 1.373 . S
C360 C366 1.505 . S
C361 C360 1.379 . S
C361 C363 1.369 . S
C361 H372 0.930 . S
C362 C364 1.383 . S
C362 C365 1.382 . S
C362 H373 0.930 . S
C363 C361 1.369 . S
C363 C365 1.392 . S
C363 H374 0.930 . S
C364 C360 1.373 . S
C364 C362 1.383 . S
C364 H375 0.931 . S
C365 C362 1.382 . S
C365 C363 1.392 . S
C366 Eu337 2.828 . S
C366 O350 1.249 . S
C366 O351 1.244 . S
C366 C360 1.505 . S
C367 O354 1.258 . S
C367 O355 1.242 . S
H368 C340 0.930 . S
H369 C341 0.930 . S
H370 C342 0.930 . S
H371 C343 0.931 . S
H372 C361 0.930 . S
H373 C362 0.930 . S
H374 C363 0.930 . S
H375 C364 0.931 . S
Eu376 C385 2.828 . S
Eu376 O387 2.392 . S
Eu376 O389 2.418 . S
Eu376 O394 2.373 . S
Eu376 O397 2.488 . S
Eu376 O398 2.471 . S
Eu376 O399 2.349 . S
Eu377 O386 2.373 . S
Eu377 O390 2.488 . S
Eu377 O391 2.471 . S
Eu377 O392 2.349 . S
Eu377 O395 2.392 . S
Eu377 O396 2.418 . S
Eu377 C406 2.828 . S
C378 O396 1.244 . S
C378 O399 1.265 . S
C379 C380 1.379 . S
C379 C383 1.373 . S
C379 C385 1.505 . S
C380 C379 1.379 . S
C380 C382 1.369 . S
C380 H408 0.930 . S
C381 C383 1.383 . S
C381 C384 1.382 . S
C381 H409 0.930 . S
C382 C380 1.369 . S
C382 C384 1.392 . S
C382 H410 0.930 . S
C383 C379 1.373 . S
C383 C381 1.383 . S
C383 H411 0.931 . S
C384 C381 1.382 . S
C384 C382 1.392 . S
C385 Eu376 2.828 . S
C385 C379 1.505 . S
C385 O397 1.249 . S
C385 O398 1.244 . S
O386 Eu377 2.373 . S
O386 C388 1.258 . S
O387 Eu376 2.392 . S
O387 C388 1.242 . S
C388 O386 1.258 . S
C388 O387 1.242 . S
O389 Eu376 2.418 . S
O389 C393 1.244 . S
O390 Eu377 2.488 . S
O390 C406 1.249 . S
O391 Eu377 2.471 . S
O391 C406 1.244 . S
O392 Eu377 2.349 . S
O392 C393 1.265 . S
C393 O389 1.244 . S
C393 O392 1.265 . S
O394 Eu376 2.373 . S
O394 C407 1.258 . S
O395 Eu377 2.392 . S
O395 C407 1.242 . S
O396 Eu377 2.418 . S
O396 C378 1.244 . S
O397 Eu376 2.488 . S
O397 C385 1.249 . S
O398 Eu376 2.471 . S
O398 C385 1.244 . S
O399 Eu376 2.349 . S
O399 C378 1.265 . S
C400 C401 1.379 . S
C400 C404 1.373 . S
C400 C406 1.505 . S
C401 C400 1.379 . S
C401 C403 1.369 . S
C401 H412 0.930 . S
C402 C404 1.383 . S
C402 C405 1.382 . S
C402 H413 0.930 . S
C403 C401 1.369 . S
C403 C405 1.392 . S
C403 H414 0.930 . S
C404 C400 1.373 . S
C404 C402 1.383 . S
C404 H415 0.931 . S
C405 C402 1.382 . S
C405 C403 1.392 . S
C406 Eu377 2.828 . S
C406 O390 1.249 . S
C406 O391 1.244 . S
C406 C400 1.505 . S
C407 O394 1.258 . S
C407 O395 1.242 . S
H408 C380 0.930 . S
H409 C381 0.930 . S
H410 C382 0.930 . S
H411 C383 0.931 . S
H412 C401 0.930 . S
H413 C402 0.930 . S
H414 C403 0.930 . S
H415 C404 0.931 . S
Eu416 C425 2.828 . S
Eu416 O427 2.392 . S
Eu416 O429 2.418 . S
Eu416 O434 2.373 . S
Eu416 O437 2.488 . S
Eu416 O438 2.471 . S
Eu416 O439 2.349 . S
Eu417 O426 2.373 . S
Eu417 O430 2.488 . S
Eu417 O431 2.471 . S
Eu417 O432 2.349 . S
Eu417 O435 2.392 . S
Eu417 O436 2.418 . S
Eu417 C446 2.828 . S
C418 O436 1.244 . S
C418 O439 1.265 . S
C419 C420 1.379 . S
C419 C423 1.373 . S
C419 C425 1.505 . S
C420 C419 1.379 . S
C420 C422 1.369 . S
C420 H448 0.930 . S
C421 C423 1.383 . S
C421 C424 1.382 . S
C421 H449 0.930 . S
C422 C420 1.369 . S
C422 C424 1.392 . S
C422 H450 0.930 . S
C423 C419 1.373 . S
C423 C421 1.383 . S
C423 H451 0.931 . S
C424 C421 1.382 . S
C424 C422 1.392 . S
C425 Eu416 2.828 . S
C425 C419 1.505 . S
C425 O437 1.249 . S
C425 O438 1.244 . S
O426 Eu417 2.373 . S
O426 C428 1.258 . S
O427 Eu416 2.392 . S
O427 C428 1.242 . S
C428 O426 1.258 . S
C428 O427 1.242 . S
O429 Eu416 2.418 . S
O429 C433 1.244 . S
O430 Eu417 2.488 . S
O430 C446 1.249 . S
O431 Eu417 2.471 . S
O431 C446 1.244 . S
O432 Eu417 2.349 . S
O432 C433 1.265 . S
C433 O429 1.244 . S
C433 O432 1.265 . S
O434 Eu416 2.373 . S
O434 C447 1.258 . S
O435 Eu417 2.392 . S
O435 C447 1.242 . S
O436 Eu417 2.418 . S
O436 C418 1.244 . S
O437 Eu416 2.488 . S
O437 C425 1.249 . S
O438 Eu416 2.471 . S
O438 C425 1.244 . S
O439 Eu416 2.349 . S
O439 C418 1.265 . S
C440 C441 1.379 . S
C440 C444 1.373 . S
C440 C446 1.505 . S
C441 C440 1.379 . S
C441 C443 1.369 . S
C441 H452 0.930 . S
C442 C444 1.383 . S
C442 C445 1.382 . S
C442 H453 0.930 . S
C443 C441 1.369 . S
C443 C445 1.392 . S
C443 H454 0.930 . S
C444 C440 1.373 . S
C444 C442 1.383 . S
C444 H455 0.931 . S
C445 C442 1.382 . S
C445 C443 1.392 . S
C446 Eu417 2.828 . S
C446 O430 1.249 . S
C446 O431 1.244 . S
C446 C440 1.505 . S
C447 O434 1.258 . S
C447 O435 1.242 . S
H448 C420 0.930 . S
H449 C421 0.930 . S
H450 C422 0.930 . S
H451 C423 0.931 . S
H452 C441 0.930 . S
H453 C442 0.930 . S
H454 C443 0.930 . S
H455 C444 0.931 . S
Eu456 C465 2.828 . S
Eu456 O467 2.392 . S
Eu456 O469 2.418 . S
Eu456 O474 2.373 . S
Eu456 O477 2.488 . S
Eu456 O478 2.471 . S
Eu456 O479 2.349 . S
Eu457 O466 2.373 . S
Eu457 O470 2.488 . S
Eu457 O471 2.471 . S
Eu457 O472 2.349 . S
Eu457 O475 2.392 . S
Eu457 O476 2.418 . S
Eu457 C486 2.828 . S
C458 O476 1.244 . S
C458 O479 1.265 . S
C459 C460 1.379 . S
C459 C463 1.373 . S
C459 C465 1.505 . S
C460 C459 1.379 . S
C460 C462 1.369 . S
C460 H488 0.930 . S
C461 C463 1.383 . S
C461 C464 1.382 . S
C461 H489 0.930 . S
C462 C460 1.369 . S
C462 C464 1.392 . S
C462 H490 0.930 . S
C463 C459 1.373 . S
C463 C461 1.383 . S
C463 H491 0.931 . S
C464 C461 1.382 . S
C464 C462 1.392 . S
C465 Eu456 2.828 . S
C465 C459 1.505 . S
C465 O477 1.249 . S
C465 O478 1.244 . S
O466 Eu457 2.373 . S
O466 C468 1.258 . S
O467 Eu456 2.392 . S
O467 C468 1.242 . S
C468 O466 1.258 . S
C468 O467 1.242 . S
O469 Eu456 2.418 . S
O469 C473 1.244 . S
O470 Eu457 2.488 . S
O470 C486 1.249 . S
O471 Eu457 2.471 . S
O471 C486 1.244 . S
O472 Eu457 2.349 . S
O472 C473 1.265 . S
C473 O469 1.244 . S
C473 O472 1.265 . S
O474 Eu456 2.373 . S
O474 C487 1.258 . S
O475 Eu457 2.392 . S
O475 C487 1.242 . S
O476 Eu457 2.418 . S
O476 C458 1.244 . S
O477 Eu456 2.488 . S
O477 C465 1.249 . S
O478 Eu456 2.471 . S
O478 C465 1.244 . S
O479 Eu456 2.349 . S
O479 C458 1.265 . S
C480 C481 1.379 . S
C480 C484 1.373 . S
C480 C486 1.505 . S
C481 C480 1.379 . S
C481 C483 1.369 . S
C481 H492 0.930 . S
C482 C484 1.383 . S
C482 C485 1.382 . S
C482 H493 0.930 . S
C483 C481 1.369 . S
C483 C485 1.392 . S
C483 H494 0.930 . S
C484 C480 1.373 . S
C484 C482 1.383 . S
C484 H495 0.931 . S
C485 C482 1.382 . S
C485 C483 1.392 . S
C486 Eu457 2.828 . S
C486 O470 1.249 . S
C486 O471 1.244 . S
C486 C480 1.505 . S
C487 O474 1.258 . S
C487 O475 1.242 . S
H488 C460 0.930 . S
H489 C461 0.930 . S
H490 C462 0.930 . S
H491 C463 0.931 . S
H492 C481 0.930 . S
H493 C482 0.930 . S
H494 C483 0.930 . S
H495 C484 0.931 . S
Eu496 C505 2.828 . S
Eu496 O507 2.392 . S
Eu496 O509 2.418 . S
Eu496 O514 2.373 . S
Eu496 O517 2.488 . S
Eu496 O518 2.471 . S
Eu496 O519 2.349 . S
Eu497 O506 2.373 . S
Eu497 O510 2.488 . S
Eu497 O511 2.471 . S
Eu497 O512 2.349 . S
Eu497 O515 2.392 . S
Eu497 O516 2.418 . S
Eu497 C526 2.828 . S
C498 O516 1.244 . S
C498 O519 1.265 . S
C499 C500 1.379 . S
C499 C503 1.373 . S
C499 C505 1.505 . S
C500 C499 1.379 . S
C500 C502 1.369 . S
C500 H528 0.930 . S
C501 C503 1.383 . S
C501 C504 1.382 . S
C501 H529 0.930 . S
C502 C500 1.369 . S
C502 C504 1.392 . S
C502 H530 0.930 . S
C503 C499 1.373 . S
C503 C501 1.383 . S
C503 H531 0.931 . S
C504 C501 1.382 . S
C504 C502 1.392 . S
C505 Eu496 2.828 . S
C505 C499 1.505 . S
C505 O517 1.249 . S
C505 O518 1.244 . S
O506 Eu497 2.373 . S
O506 C508 1.258 . S
O507 Eu496 2.392 . S
O507 C508 1.242 . S
C508 O506 1.258 . S
C508 O507 1.242 . S
O509 Eu496 2.418 . S
O509 C513 1.244 . S
O510 Eu497 2.488 . S
O510 C526 1.249 . S
O511 Eu497 2.471 . S
O511 C526 1.244 . S
O512 Eu497 2.349 . S
O512 C513 1.265 . S
C513 O509 1.244 . S
C513 O512 1.265 . S
O514 Eu496 2.373 . S
O514 C527 1.258 . S
O515 Eu497 2.392 . S
O515 C527 1.242 . S
O516 Eu497 2.418 . S
O516 C498 1.244 . S
O517 Eu496 2.488 . S
O517 C505 1.249 . S
O518 Eu496 2.471 . S
O518 C505 1.244 . S
O519 Eu496 2.349 . S
O519 C498 1.265 . S
C520 C521 1.379 . S
C520 C524 1.373 . S
C520 C526 1.505 . S
C521 C520 1.379 . S
C521 C523 1.369 . S
C521 H532 0.930 . S
C522 C524 1.383 . S
C522 C525 1.382 . S
C522 H533 0.930 . S
C523 C521 1.369 . S
C523 C525 1.392 . S
C523 H534 0.930 . S
C524 C520 1.373 . S
C524 C522 1.383 . S
C524 H535 0.931 . S
C525 C522 1.382 . S
C525 C523 1.392 . S
C526 Eu497 2.828 . S
C526 O510 1.249 . S
C526 O511 1.244 . S
C526 C520 1.505 . S
C527 O514 1.258 . S
C527 O515 1.242 . S
H528 C500 0.930 . S
H529 C501 0.930 . S
H530 C502 0.930 . S
H531 C503 0.931 . S
H532 C521 0.930 . S
H533 C522 0.930 . S
H534 C523 0.930 . S
H535 C524 0.931 . S
Eu536 C545 2.828 . S
Eu536 O547 2.392 . S
Eu536 O549 2.418 . S
Eu536 O554 2.373 . S
Eu536 O557 2.488 . S
Eu536 O558 2.471 . S
Eu536 O559 2.349 . S
Eu537 O546 2.373 . S
Eu537 O550 2.488 . S
Eu537 O551 2.471 . S
Eu537 O552 2.349 . S
Eu537 O555 2.392 . S
Eu537 O556 2.418 . S
Eu537 C566 2.828 . S
C538 O556 1.244 . S
C538 O559 1.265 . S
C539 C540 1.379 . S
C539 C543 1.373 . S
C539 C545 1.505 . S
C540 C539 1.379 . S
C540 C542 1.369 . S
C540 H568 0.930 . S
C541 C543 1.383 . S
C541 C544 1.382 . S
C541 H569 0.930 . S
C542 C540 1.369 . S
C542 C544 1.392 . S
C542 H570 0.930 . S
C543 C539 1.373 . S
C543 C541 1.383 . S
C543 H571 0.931 . S
C544 C541 1.382 . S
C544 C542 1.392 . S
C545 Eu536 2.828 . S
C545 C539 1.505 . S
C545 O557 1.249 . S
C545 O558 1.244 . S
O546 Eu537 2.373 . S
O546 C548 1.258 . S
O547 Eu536 2.392 . S
O547 C548 1.242 . S
C548 O546 1.258 . S
C548 O547 1.242 . S
O549 Eu536 2.418 . S
O549 C553 1.244 . S
O550 Eu537 2.488 . S
O550 C566 1.249 . S
O551 Eu537 2.471 . S
O551 C566 1.244 . S
O552 Eu537 2.349 . S
O552 C553 1.265 . S
C553 O549 1.244 . S
C553 O552 1.265 . S
O554 Eu536 2.373 . S
O554 C567 1.258 . S
O555 Eu537 2.392 . S
O555 C567 1.242 . S
O556 Eu537 2.418 . S
O556 C538 1.244 . S
O557 Eu536 2.488 . S
O557 C545 1.249 . S
O558 Eu536 2.471 . S
O558 C545 1.244 . S
O559 Eu536 2.349 . S
O559 C538 1.265 . S
C560 C561 1.379 . S
C560 C564 1.373 . S
C560 C566 1.505 . S
C561 C560 1.379 . S
C561 C563 1.369 . S
C561 H572 0.930 . S
C562 C564 1.383 . S
C562 C565 1.382 . S
C562 H573 0.930 . S
C563 C561 1.369 . S
C563 C565 1.392 . S
C563 H574 0.930 . S
C564 C560 1.373 . S
C564 C562 1.383 . S
C564 H575 0.931 . S
C565 C562 1.382 . S
C565 C563 1.392 . S
C566 Eu537 2.828 . S
C566 O550 1.249 . S
C566 O551 1.244 . S
C566 C560 1.505 . S
C567 O554 1.258 . S
C567 O555 1.242 . S
H568 C540 0.930 . S
H569 C541 0.930 . S
H570 C542 0.930 . S
H571 C543 0.931 . S
H572 C561 0.930 . S
H573 C562 0.930 . S
H574 C563 0.930 . S
H575 C564 0.931 . S
C576 C577 1.363 . S
C576 C582 1.379 . S
C576 N584 1.356 . S
C577 C576 1.363 . S
C577 C583 1.363 . S
C578 C579 1.363 . S
C578 C583 1.379 . S
C578 N585 1.356 . S
C579 C578 1.363 . S
C579 C582 1.363 . S
N580 C582 1.356 . S
N580 H592 0.984 . S
N580 H593 0.985 . S
N581 C583 1.356 . S
N581 H586 0.984 . S
N581 H587 0.985 . S
C582 C576 1.379 . S
C582 C579 1.363 . S
C582 N580 1.356 . S
C583 C577 1.363 . S
C583 C578 1.379 . S
C583 N581 1.356 . S
N584 C576 1.356 . S
N584 H590 0.984 . S
N584 H591 0.984 . S
N585 C578 1.356 . S
N585 H588 0.984 . S
N585 H589 0.985 . S
H586 N581 0.984 . S
H587 N581 0.985 . S
H588 N585 0.984 . S
H589 N585 0.985 . S
H590 N584 0.984 . S
H591 N584 0.984 . S
H592 N580 0.984 . S
H593 N580 0.985 . S
C594 C595 1.363 . S
C594 C600 1.379 . S
C594 N602 1.356 . S
C595 C594 1.363 . S
C595 C601 1.363 . S
C596 C597 1.363 . S
C596 C601 1.379 . S
C596 N603 1.356 . S
C597 C596 1.363 . S
C597 C600 1.363 . S
N598 C600 1.356 . S
N598 H610 0.984 . S
N598 H611 0.985 . S
N599 C601 1.356 . S
N599 H604 0.984 . S
N599 H605 0.985 . S
C600 C594 1.379 . S
C600 C597 1.363 . S
C600 N598 1.356 . S
C601 C595 1.363 . S
C601 C596 1.379 . S
C601 N599 1.356 . S
N602 C594 1.356 . S
N602 H608 0.984 . S
N602 H609 0.984 . S
N603 C596 1.356 . S
N603 H606 0.984 . S
N603 H607 0.985 . S
H604 N599 0.984 . S
H605 N599 0.985 . S
H606 N603 0.984 . S
H607 N603 0.985 . S
H608 N602 0.984 . S
H609 N602 0.984 . S
H610 N598 0.984 . S
H611 N598 0.985 . S
C612 C613 1.363 . S
C612 C618 1.379 . S
C612 N620 1.356 . S
C613 C612 1.363 . S
C613 C619 1.363 . S
C614 C615 1.363 . S
C614 C619 1.379 . S
C614 N621 1.356 1_554 S
C615 C614 1.363 . S
C615 C618 1.363 . S
N616 C618 1.356 . S
N616 H628 0.984 . S
N616 H629 0.985 . S
N617 C619 1.356 1_556 S
N617 H622 0.976 1_556 S
N617 H623 0.985 . S
C618 C612 1.379 . S
C618 C615 1.363 . S
C618 N616 1.356 . S
C619 C613 1.363 . S
C619 C614 1.379 . S
C619 N617 1.356 1_554 S
N620 C612 1.356 . S
N620 H626 0.984 . S
N620 H627 0.984 . S
N621 C614 1.356 1_556 S
N621 H624 0.984 . S
N621 H625 0.985 . S
H622 N617 0.976 1_554 S
H623 N617 0.985 . S
H624 N621 0.984 . S
H625 N621 0.985 . S
H626 N620 0.984 . S
H627 N620 0.984 . S
H628 N616 0.984 . S
H629 N616 0.985 . S
C630 C631 1.363 . S
C630 C636 1.379 . S
C630 N638 1.356 . S
C631 C630 1.363 . S
C631 C637 1.363 . S
C632 C633 1.363 . S
C632 C637 1.379 . S
C632 N639 1.356 1_556 S
C633 C632 1.363 . S
C633 C636 1.363 . S
N634 C636 1.356 . S
N634 H646 0.984 . S
N634 H647 0.985 . S
N635 C637 1.356 . S
N635 H640 0.984 . S
N635 H641 0.985 1_556 S
C636 C630 1.379 . S
C636 C633 1.363 . S
C636 N634 1.356 . S
C637 C631 1.363 . S
C637 C632 1.379 . S
C637 N635 1.356 . S
N638 C630 1.356 . S
N638 H644 0.984 . S
N638 H645 0.984 . S
N639 C632 1.356 1_554 S
N639 H642 0.984 . S
N639 H643 0.985 . S
H640 N635 0.984 . S
H641 N635 0.985 1_554 S
H642 N639 0.984 . S
H643 N639 0.985 . S
H644 N638 0.984 . S
H645 N638 0.984 . S
H646 N634 0.984 . S
H647 N634 0.985 . S
C648 C649 1.363 . S
C648 C654 1.379 . S
C648 N656 1.356 . S
C649 C648 1.363 . S
C649 C655 1.363 . S
C650 C651 1.363 . S
C650 C655 1.379 . S
C650 N657 1.356 . S
C651 C650 1.363 . S
C651 C654 1.363 . S
N652 C654 1.356 . S
N652 H664 0.984 . S
N652 H665 0.985 . S
N653 C655 1.356 . S
N653 H658 0.984 . S
N653 H659 0.985 . S
C654 C648 1.379 . S
C654 C651 1.363 . S
C654 N652 1.356 . S
C655 C649 1.363 . S
C655 C650 1.379 . S
C655 N653 1.356 . S
N656 C648 1.356 . S
N656 H662 0.984 . S
N656 H663 0.984 . S
N657 C650 1.356 . S
N657 H660 0.984 . S
N657 H661 0.985 . S
H658 N653 0.984 . S
H659 N653 0.985 . S
H660 N657 0.984 . S
H661 N657 0.985 . S
H662 N656 0.984 . S
H663 N656 0.984 . S
H664 N652 0.984 . S
H665 N652 0.985 . S
C666 C667 1.327 1_554 S
C666 C672 1.392 . S
C666 N674 1.372 . S
C667 C666 1.327 1_556 S
C667 C673 1.363 . S
C668 C669 1.363 . S
C668 C673 1.379 . S
C668 N675 1.356 . S
C669 C668 1.363 . S
C669 C672 1.363 1_556 S
N670 C672 1.356 . S
N670 H682 0.984 . S
N670 H683 0.985 . S
N671 C673 1.356 . S
N671 H676 0.984 . S
N671 H677 0.985 . S
C672 C666 1.392 . S
C672 C669 1.363 1_554 S
C672 N670 1.356 . S
C673 C667 1.363 . S
C673 C668 1.379 . S
C673 N671 1.356 . S
N674 C666 1.372 . S
N674 H680 0.984 . S
N674 H681 0.984 . S
N675 C668 1.356 . S
N675 H678 0.984 . S
N675 H679 0.985 . S
H676 N671 0.984 . S
H677 N671 0.985 . S
H678 N675 0.984 . S
H679 N675 0.985 . S
H680 N674 0.984 . S
H681 N674 0.984 . S
H682 N670 0.984 . S
H683 N670 0.985 . S
C684 C685 1.363 . S
C684 C690 1.379 . S
C684 N692 1.356 . S
C685 C684 1.363 . S
C685 C691 1.363 . S
C686 C687 1.363 . S
C686 C691 1.379 . S
C686 N693 1.356 1_556 S
C687 C686 1.363 . S
C687 C690 1.363 . S
N688 C690 1.356 . S
N688 H700 0.984 . S
N688 H701 0.985 . S
N689 C691 1.356 . S
N689 H694 0.984 . S
N689 H695 0.985 1_556 S
C690 C684 1.379 . S
C690 C687 1.363 . S
C690 N688 1.356 . S
C691 C685 1.363 . S
C691 C686 1.379 . S
C691 N689 1.356 . S
N692 C684 1.356 . S
N692 H698 0.984 . S
N692 H699 0.984 . S
N693 C686 1.356 1_554 S
N693 H696 0.984 . S
N693 H697 0.985 . S
H694 N689 0.984 . S
H695 N689 0.985 1_554 S
H696 N693 0.984 . S
H697 N693 0.985 . S
H698 N692 0.984 . S
H699 N692 0.984 . S
H700 N688 0.984 . S
H701 N688 0.985 . S
C702 C703 1.363 . S
C702 C708 1.379 . S
C702 N710 1.356 . S
C703 C702 1.363 . S
C703 C709 1.363 . S
C704 C705 1.363 . S
C704 C709 1.379 . S
C704 N711 1.356 . S
C705 C704 1.363 . S
C705 C708 1.363 . S
N706 C708 1.356 1_554 S
N706 H718 0.984 . S
N706 H719 0.985 . S
N707 C709 1.356 . S
N707 H712 0.984 . S
N707 H713 0.985 . S
C708 C702 1.379 . S
C708 C705 1.363 . S
C708 N706 1.356 1_556 S
C709 C703 1.363 . S
C709 C704 1.379 . S
C709 N707 1.356 . S
N710 C702 1.356 . S
N710 H716 0.984 1_556 S
N710 H717 0.984 . S
N711 C704 1.356 . S
N711 H714 0.984 . S
N711 H715 0.985 . S
H712 N707 0.984 . S
H713 N707 0.985 . S
H714 N711 0.984 . S
H715 N711 0.985 . S
H716 N710 0.984 1_554 S
H717 N710 0.984 . S
H718 N706 0.984 . S
H719 N706 0.985 . S
C720 C721 1.363 . S
C720 C726 1.379 . S
C720 N728 1.356 . S
C721 C720 1.363 . S
C721 C727 1.363 1_556 S
C722 C723 1.363 1_554 S
C722 C727 1.379 . S
C722 N729 1.356 . S
C723 C722 1.363 1_556 S
C723 C726 1.363 . S
N724 C726 1.356 . S
N724 H736 0.984 . S
N724 H737 0.985 . S
N725 C727 1.356 . S
N725 H730 0.984 . S
N725 H731 0.985 . S
C726 C720 1.379 . S
C726 C723 1.363 . S
C726 N724 1.356 . S
C727 C721 1.363 1_554 S
C727 C722 1.379 . S
C727 N725 1.356 . S
N728 C720 1.356 . S
N728 H734 0.984 . S
N728 H735 0.984 . S
N729 C722 1.356 . S
N729 H732 0.984 . S
N729 H733 0.985 . S
H730 N725 0.984 . S
H731 N725 0.985 . S
H732 N729 0.984 . S
H733 N729 0.985 . S
H734 N728 0.984 . S
H735 N728 0.984 . S
H736 N724 0.984 . S
H737 N724 0.985 . S
C738 C739 1.363 . S
C738 C744 1.379 1_554 S
C738 N746 1.356 1_554 S
C739 C738 1.363 . S
C739 C745 1.363 . S
C740 C741 1.363 . S
C740 C745 1.379 . S
C740 N747 1.356 . S
C741 C740 1.363 . S
C741 C744 1.356 1_554 S
N742 C744 1.362 . S
N742 H754 0.984 . S
N742 H755 0.985 . S
N743 C745 1.356 . S
N743 H748 0.984 . S
N743 H749 0.985 . S
C744 C738 1.379 1_556 S
C744 C741 1.356 1_556 S
C744 N742 1.362 . S
C745 C739 1.363 . S
C745 C740 1.379 . S
C745 N743 1.356 . S
N746 C738 1.356 1_556 S
N746 H752 0.984 . S
N746 H753 0.984 . S
N747 C740 1.356 . S
N747 H750 0.984 . S
N747 H751 0.985 . S
H748 N743 0.984 . S
H749 N743 0.985 . S
H750 N747 0.984 . S
H751 N747 0.985 . S
H752 N746 0.984 . S
H753 N746 0.984 . S
H754 N742 0.984 . S
H755 N742 0.985 . S
C756 C757 1.363 . S
C756 C762 1.379 . S
C756 N764 1.356 . S
C757 C756 1.363 . S
C757 C763 1.363 . S
C758 C759 1.363 . S
C758 C763 1.379 . S
C758 N765 1.356 . S
C759 C758 1.363 . S
C759 C762 1.363 . S
N760 C762 1.356 . S
N760 H772 0.984 . S
N760 H773 0.985 . S
N761 C763 1.356 . S
N761 H766 0.984 . S
N761 H767 0.985 . S
C762 C756 1.379 . S
C762 C759 1.363 . S
C762 N760 1.356 . S
C763 C757 1.363 . S
C763 C758 1.379 . S
C763 N761 1.356 . S
N764 C756 1.356 . S
N764 H770 0.984 . S
N764 H771 0.984 . S
N765 C758 1.356 . S
N765 H768 0.984 . S
N765 H769 0.985 . S
H766 N761 0.984 . S
H767 N761 0.985 . S
H768 N765 0.984 . S
H769 N765 0.985 . S
H770 N764 0.984 . S
H771 N764 0.984 . S
H772 N760 0.984 . S
H773 N760 0.985 . S
C774 C775 1.363 . S
C774 C780 1.379 1_554 S
C774 N782 1.356 1_554 S
C775 C774 1.363 . S
C775 C781 1.363 . S
C776 C777 1.363 . S
C776 C781 1.379 . S
C776 N783 1.356 . S
C777 C776 1.363 . S
C777 C780 1.363 1_554 S
N778 C780 1.356 . S
N778 H790 0.984 . S
N778 H791 0.985 . S
N779 C781 1.356 . S
N779 H784 0.984 . S
N779 H785 0.985 . S
C780 C774 1.379 1_556 S
C780 C777 1.363 1_556 S
C780 N778 1.356 . S
C781 C775 1.363 . S
C781 C776 1.379 . S
C781 N779 1.356 . S
N782 C774 1.356 1_556 S
N782 H788 0.984 . S
N782 H789 0.982 1_556 S
N783 C776 1.356 . S
N783 H786 0.984 . S
N783 H787 0.985 . S
H784 N779 0.984 . S
H785 N779 0.985 . S
H786 N783 0.984 . S
H787 N783 0.985 . S
H788 N782 0.984 . S
H789 N782 0.982 1_554 S
H790 N778 0.984 . S
H791 N778 0.985 . S
C792 C793 1.363 . S
C792 C798 1.379 . S
C792 N800 1.356 . S
C793 C792 1.363 . S
C793 C799 1.363 . S
C794 C795 1.363 . S
C794 C799 1.379 1_455 S
C794 N801 1.356 . S
C795 C794 1.363 . S
C795 C798 1.363 1_455 S
N796 C798 1.356 1_455 S
N796 H808 0.984 1_455 S
N796 H809 0.985 . S
N797 C799 1.356 . S
N797 H802 0.984 . S
N797 H803 0.985 . S
C798 C792 1.379 . S
C798 C795 1.363 1_655 S
C798 N796 1.356 1_655 S
C799 C793 1.363 . S
C799 C794 1.379 1_655 S
C799 N797 1.356 . S
N800 C792 1.356 . S
N800 H806 0.984 . S
N800 H807 0.984 . S
N801 C794 1.356 . S
N801 H804 0.984 . S
N801 H805 0.985 . S
H802 N797 0.984 . S
H803 N797 0.985 . S
H804 N801 0.984 . S
H805 N801 0.985 . S
H806 N800 0.984 . S
H807 N800 0.984 . S
H808 N796 0.984 1_655 S
H809 N796 0.985 . S
C810 C811 1.363 . S
C810 C816 1.379 . S
C810 N818 1.356 . S
C811 C810 1.363 . S
C811 C817 1.363 . S
C812 C813 1.363 . S
C812 C817 1.379 . S
C812 N819 1.356 . S
C813 C812 1.363 . S
C813 C816 1.363 . S
N814 C816 1.356 . S
N814 H826 0.984 . S
N814 H827 0.985 . S
N815 C817 1.356 . S
N815 H820 0.984 . S
N815 H821 0.985 . S
C816 C810 1.379 . S
C816 C813 1.363 . S
C816 N814 1.356 . S
C817 C811 1.363 . S
C817 C812 1.379 . S
C817 N815 1.356 . S
N818 C810 1.356 . S
N818 H824 0.984 . S
N818 H825 0.984 . S
N819 C812 1.356 . S
N819 H822 0.984 . S
N819 H823 0.985 . S
H820 N815 0.984 . S
H821 N815 0.985 . S
H822 N819 0.984 . S
H823 N819 0.985 . S
H824 N818 0.984 . S
H825 N818 0.984 . S
H826 N814 0.984 . S
H827 N814 0.985 . S
C828 C829 1.363 . S
C828 C834 1.379 . S
C828 N836 1.356 . S
C829 C828 1.363 . S
C829 C835 1.363 . S
C830 C831 1.363 1_545 S
C830 C835 1.379 . S
C830 N837 1.356 1_545 S
C831 C830 1.363 1_565 S
C831 C834 1.363 1_565 S
N832 C834 1.356 1_565 S
N832 H844 0.984 . S
N832 H845 0.985 . S
N833 C835 1.356 . S
N833 H838 0.984 . S
N833 H839 0.985 . S
C834 C828 1.379 . S
C834 C831 1.363 1_545 S
C834 N832 1.356 1_545 S
C835 C829 1.363 . S
C835 C830 1.379 . S
C835 N833 1.356 . S
N836 C828 1.356 . S
N836 H842 0.984 . S
N836 H843 0.984 . S
N837 C830 1.356 1_565 S
N837 H840 0.984 . S
N837 H841 0.985 . S
H838 N833 0.984 . S
H839 N833 0.985 . S
H840 N837 0.984 . S
H841 N837 0.985 . S
H842 N836 0.984 . S
H843 N836 0.984 . S
H844 N832 0.984 . S
H845 N832 0.985 . S
C846 C847 1.363 . S
C846 C852 1.379 . S
C846 N854 1.356 . S
C847 C846 1.363 . S
C847 C853 1.363 . S
C848 C849 1.363 . S
C848 C853 1.379 . S
C848 N855 1.356 . S
C849 C848 1.363 . S
C849 C852 1.363 . S
N850 C852 1.356 . S
N850 H862 0.984 . S
N850 H863 0.985 . S
N851 C853 1.356 . S
N851 H856 0.984 . S
N851 H857 0.985 . S
C852 C846 1.379 . S
C852 C849 1.363 . S
C852 N850 1.356 . S
C853 C847 1.363 . S
C853 C848 1.379 . S
C853 N851 1.356 . S
N854 C846 1.356 . S
N854 H860 0.984 . S
N854 H861 0.984 . S
N855 C848 1.356 . S
N855 H858 0.984 . S
N855 H859 0.985 . S
H856 N851 0.984 . S
H857 N851 0.985 . S
H858 N855 0.984 . S
H859 N855 0.985 . S
H860 N854 0.984 . S
H861 N854 0.984 . S
H862 N850 0.984 . S
H863 N850 0.985 . S
C864 C865 1.363 . S
C864 C870 1.379 . S
C864 N872 1.356 . S
C865 C864 1.363 . S
C865 C871 1.363 . S
C866 C867 1.363 . S
C866 C871 1.379 . S
C866 N873 1.356 . S
C867 C866 1.363 . S
C867 C870 1.363 . S
N868 C870 1.356 . S
N868 H880 0.984 . S
N868 H881 0.985 . S
N869 C871 1.356 . S
N869 H874 0.984 . S
N869 H875 0.985 . S
C870 C864 1.379 . S
C870 C867 1.363 . S
C870 N868 1.356 . S
C871 C865 1.363 . S
C871 C866 1.379 . S
C871 N869 1.356 . S
N872 C864 1.356 . S
N872 H878 0.984 . S
N872 H879 0.984 . S
N873 C866 1.356 . S
N873 H876 0.984 . S
N873 H877 0.985 . S
H874 N869 0.984 . S
H875 N869 0.985 . S
H876 N873 0.984 . S
H877 N873 0.985 . S
H878 N872 0.984 . S
H879 N872 0.984 . S
H880 N868 0.984 . S
H881 N868 0.985 . S
C882 C883 1.363 . S
C882 C888 1.379 . S
C882 N890 1.356 . S
C883 C882 1.363 . S
C883 C889 1.363 . S
C884 C885 1.363 . S
C884 C889 1.379 . S
C884 N891 1.356 . S
C885 C884 1.363 . S
C885 C888 1.363 . S
N886 C888 1.356 . S
N886 H898 0.984 . S
N886 H899 0.985 . S
N887 C889 1.356 . S
N887 H892 0.984 . S
N887 H893 0.985 . S
C888 C882 1.379 . S
C888 C885 1.363 . S
C888 N886 1.356 . S
C889 C883 1.363 . S
C889 C884 1.379 . S
C889 N887 1.356 . S
N890 C882 1.356 . S
N890 H896 0.984 . S
N890 H897 0.984 . S
N891 C884 1.356 . S
N891 H894 0.984 . S
N891 H895 0.985 . S
H892 N887 0.984 . S
H893 N887 0.985 . S
H894 N891 0.984 . S
H895 N891 0.985 . S
H896 N890 0.984 . S
H897 N890 0.984 . S
H898 N886 0.984 . S
H899 N886 0.985 . S
C900 C901 1.363 . S
C900 C906 1.379 . S
C900 N908 1.356 . S
C901 C900 1.363 . S
C901 C907 1.363 . S
C902 C903 1.363 . S
C902 C907 1.379 . S
C902 N909 1.356 . S
C903 C902 1.363 . S
C903 C906 1.363 . S
N904 C906 1.356 . S
N904 H916 0.984 . S
N904 H917 0.985 . S
N905 C907 1.356 . S
N905 H910 0.984 . S
N905 H911 0.985 . S
C906 C900 1.379 . S
C906 C903 1.363 . S
C906 N904 1.356 . S
C907 C901 1.363 . S
C907 C902 1.379 . S
C907 N905 1.356 . S
N908 C900 1.356 . S
N908 H914 0.984 . S
N908 H915 0.984 . S
N909 C902 1.356 . S
N909 H912 0.984 . S
N909 H913 0.985 . S
H910 N905 0.984 . S
H911 N905 0.985 . S
H912 N909 0.984 . S
H913 N909 0.985 . S
H914 N908 0.984 . S
H915 N908 0.984 . S
H916 N904 0.984 . S
H917 N904 0.985 . S
C918 C919 1.363 . S
C918 C924 1.379 . S
C918 N926 1.356 . S
C919 C918 1.363 . S
C919 C925 1.363 . S
C920 C921 1.363 . S
C920 C925 1.379 . S
C920 N927 1.356 . S
C921 C920 1.363 . S
C921 C924 1.363 . S
N922 C924 1.356 . S
N922 H934 0.984 . S
N922 H935 0.985 . S
N923 C925 1.356 . S
N923 H928 0.984 . S
N923 H929 0.985 . S
C924 C918 1.379 . S
C924 C921 1.363 . S
C924 N922 1.356 . S
C925 C919 1.363 . S
C925 C920 1.379 . S
C925 N923 1.356 . S
N926 C918 1.356 . S
N926 H932 0.984 . S
N926 H933 0.984 . S
N927 C920 1.356 . S
N927 H930 0.984 . S
N927 H931 0.985 . S
H928 N923 0.984 . S
H929 N923 0.985 . S
H930 N927 0.984 . S
H931 N927 0.985 . S
H932 N926 0.984 . S
H933 N926 0.984 . S
H934 N922 0.984 . S
H935 N922 0.985 . S
C936 C937 1.363 . S
C936 C942 1.379 . S
C936 N944 1.356 . S
C937 C936 1.363 . S
C937 C943 1.363 . S
C938 C939 1.363 . S
C938 C943 1.379 . S
C938 N945 1.356 . S
C939 C938 1.363 . S
C939 C942 1.363 . S
N940 C942 1.356 . S
N940 H952 0.984 . S
N940 H953 0.985 . S
N941 C943 1.356 . S
N941 H946 0.984 . S
N941 H947 0.985 . S
C942 C936 1.379 . S
C942 C939 1.363 . S
C942 N940 1.356 . S
C943 C937 1.363 . S
C943 C938 1.379 . S
C943 N941 1.356 . S
N944 C936 1.356 . S
N944 H950 0.984 . S
N944 H951 0.984 . S
N945 C938 1.356 . S
N945 H948 0.984 . S
N945 H949 0.985 . S
H946 N941 0.984 . S
H947 N941 0.985 . S
H948 N945 0.984 . S
H949 N945 0.985 . S
H950 N944 0.984 . S
H951 N944 0.984 . S
H952 N940 0.984 . S
H953 N940 0.985 . S
C954 C955 1.363 1_565 S
C954 C960 1.379 . S
C954 N962 1.356 1_565 S
C955 C954 1.363 1_545 S
C955 C961 1.363 1_545 S
C956 C957 1.363 . S
C956 C961 1.379 . S
C956 N963 1.356 . S
C957 C956 1.363 . S
C957 C960 1.363 . S
N958 C960 1.356 . S
N958 H970 0.984 . S
N958 H971 0.985 . S
N959 C961 1.356 1_545 S
N959 H964 0.984 . S
N959 H965 0.985 . S
C960 C954 1.379 . S
C960 C957 1.363 . S
C960 N958 1.356 . S
C961 C955 1.363 1_565 S
C961 C956 1.379 . S
C961 N959 1.356 1_565 S
N962 C954 1.356 1_545 S
N962 H968 0.984 . S
N962 H969 0.984 . S
N963 C956 1.356 . S
N963 H966 0.984 . S
N963 H967 0.985 . S
H964 N959 0.984 . S
H965 N959 0.985 . S
H966 N963 0.984 . S
H967 N963 0.985 . S
H968 N962 0.984 . S
H969 N962 0.984 . S
H970 N958 0.984 . S
H971 N958 0.985 . S
C972 C973 1.363 . S
C972 C978 1.379 . S
C972 N980 1.356 . S
C973 C972 1.363 . S
C973 C979 1.363 . S
C974 C975 1.363 . S
C974 C979 1.379 . S
C974 N981 1.356 . S
C975 C974 1.363 . S
C975 C978 1.363 . S
N976 C978 1.356 . S
N976 H988 0.984 . S
N976 H989 0.985 . S
N977 C979 1.356 . S
N977 H982 0.984 1_455 S
N977 H983 0.985 . S
C978 C972 1.379 . S
C978 C975 1.363 . S
C978 N976 1.356 . S
C979 C973 1.363 . S
C979 C974 1.379 . S
C979 N977 1.356 . S
N980 C972 1.356 . S
N980 H986 0.984 . S
N980 H987 1.010 . S
N981 C974 1.356 . S
N981 H984 0.984 . S
N981 H985 0.985 . S
H982 N977 0.984 1_655 S
H983 N977 0.985 . S
H984 N981 0.984 . S
H985 N981 0.985 . S
H986 N980 0.984 . S
H987 N980 1.010 . S
H988 N976 0.984 . S
H989 N976 0.985 . S
C990 C991 1.363 . S
C990 C996 1.379 . S
C990 N998 1.356 . S
C991 C990 1.363 . S
C991 C997 1.363 . S
C992 C993 1.363 . S
C992 C997 1.379 . S
C992 N999 1.356 . S
C993 C992 1.363 . S
C993 C996 1.363 . S
N994 C996 1.356 . S
N994 H1006 0.984 . S
N994 H1007 0.985 . S
N995 C997 1.356 . S
N995 H1000 0.984 . S
N995 H1001 0.985 . S
C996 C990 1.379 . S
C996 C993 1.363 . S
C996 N994 1.356 . S
C997 C991 1.363 . S
C997 C992 1.379 . S
C997 N995 1.356 . S
N998 C990 1.356 . S
N998 H1004 0.984 . S
N998 H1005 0.984 . S
N999 C992 1.356 . S
N999 H1002 0.984 . S
N999 H1003 0.985 . S
H1000 N995 0.984 . S
H1001 N995 0.985 . S
H1002 N999 0.984 . S
H1003 N999 0.985 . S
H1004 N998 0.984 . S
H1005 N998 0.984 . S
H1006 N994 0.984 . S
H1007 N994 0.985 . S
C1008 C1009 1.363 . S
C1008 C1014 1.379 . S
C1008 N1016 1.356 . S
C1009 C1008 1.363 . S
C1009 C1015 1.363 . S
C1010 C1011 1.363 . S
C1010 C1015 1.379 . S
C1010 N1017 1.356 . S
C1011 C1010 1.363 . S
C1011 C1014 1.363 . S
N1012 C1014 1.356 . S
N1012 H1024 0.984 . S
N1012 H1025 0.985 . S
N1013 C1015 1.356 . S
N1013 H1018 0.984 . S
N1013 H1019 0.985 . S
C1014 C1008 1.379 . S
C1014 C1011 1.363 . S
C1014 N1012 1.356 . S
C1015 C1009 1.363 . S
C1015 C1010 1.379 . S
C1015 N1013 1.356 . S
N1016 C1008 1.356 . S
N1016 H1022 0.984 . S
N1016 H1023 0.984 . S
N1017 C1010 1.356 . S
N1017 H1020 0.984 . S
N1017 H1021 0.985 . S
H1018 N1013 0.984 . S
H1019 N1013 0.985 . S
H1020 N1017 0.984 . S
H1021 N1017 0.985 . S
H1022 N1016 0.984 . S
H1023 N1016 0.984 . S
H1024 N1012 0.984 . S
H1025 N1012 0.985 . S
C1026 C1027 1.363 . S
C1026 C1032 1.379 . S
C1026 N1034 1.356 . S
C1027 C1026 1.363 . S
C1027 C1033 1.363 . S
C1028 C1029 1.363 . S
C1028 C1033 1.379 . S
C1028 N1035 1.356 . S
C1029 C1028 1.363 . S
C1029 C1032 1.363 . S
N1030 C1032 1.356 . S
N1030 H1042 0.984 . S
N1030 H1043 0.985 . S
N1031 C1033 1.356 . S
N1031 H1036 0.984 . S
N1031 H1037 0.985 . S
C1032 C1026 1.379 . S
C1032 C1029 1.363 . S
C1032 N1030 1.356 . S
C1033 C1027 1.363 . S
C1033 C1028 1.379 . S
C1033 N1031 1.356 . S
N1034 C1026 1.356 . S
N1034 H1040 0.984 . S
N1034 H1041 0.984 . S
N1035 C1028 1.356 . S
N1035 H1038 0.984 . S
N1035 H1039 0.985 . S
H1036 N1031 0.984 . S
H1037 N1031 0.985 . S
H1038 N1035 0.984 . S
H1039 N1035 0.985 . S
H1040 N1034 0.984 . S
H1041 N1034 0.984 . S
H1042 N1030 0.984 . S
H1043 N1030 0.985 . S
C1044 C1045 1.363 . S
C1044 C1050 1.379 . S
C1044 N1052 1.356 . S
C1045 C1044 1.363 . S
C1045 C1051 1.363 . S
C1046 C1047 1.363 . S
C1046 C1051 1.379 . S
C1046 N1053 1.356 . S
C1047 C1046 1.363 . S
C1047 C1050 1.363 . S
N1048 C1050 1.356 . S
N1048 H1060 0.984 . S
N1048 H1061 0.985 . S
N1049 C1051 1.356 . S
N1049 H1054 0.984 . S
N1049 H1055 0.985 . S
C1050 C1044 1.379 . S
C1050 C1047 1.363 . S
C1050 N1048 1.356 . S
C1051 C1045 1.363 . S
C1051 C1046 1.379 . S
C1051 N1049 1.356 . S
N1052 C1044 1.356 . S
N1052 H1058 0.984 . S
N1052 H1059 0.984 . S
N1053 C1046 1.356 . S
N1053 H1056 0.984 . S
N1053 H1057 0.985 . S
H1054 N1049 0.984 . S
H1055 N1049 0.985 . S
H1056 N1053 0.984 . S
H1057 N1053 0.985 . S
H1058 N1052 0.984 . S
H1059 N1052 0.984 . S
H1060 N1048 0.984 . S
H1061 N1048 0.985 . S
C1062 C1063 1.363 . S
C1062 C1068 1.379 1_565 S
C1062 N1070 1.356 . S
C1063 C1062 1.363 . S
C1063 C1069 1.363 . S
C1064 C1065 1.363 . S
C1064 C1069 1.379 1_545 S
C1064 N1071 1.356 . S
C1065 C1064 1.363 . S
C1065 C1068 1.363 . S
N1066 C1068 1.356 . S
N1066 H1078 0.984 . S
N1066 H1079 0.985 . S
N1067 C1069 1.356 . S
N1067 H1072 0.984 . S
N1067 H1073 0.985 . S
C1068 C1062 1.379 1_545 S
C1068 C1065 1.363 . S
C1068 N1066 1.356 . S
C1069 C1063 1.363 . S
C1069 C1064 1.379 1_565 S
C1069 N1067 1.356 . S
N1070 C1062 1.356 . S
N1070 H1076 0.984 . S
N1070 H1077 0.984 . S
N1071 C1064 1.356 . S
N1071 H1074 0.984 . S
N1071 H1075 0.985 . S
H1072 N1067 0.984 . S
H1073 N1067 0.985 . S
H1074 N1071 0.984 . S
H1075 N1071 0.985 . S
H1076 N1070 0.984 . S
H1077 N1070 0.984 . S
H1078 N1066 0.984 . S
H1079 N1066 0.985 . S
C1080 C1081 1.363 . S
C1080 C1086 1.379 . S
C1080 N1088 1.356 . S
C1081 C1080 1.363 . S
C1081 C1087 1.363 . S
C1082 C1083 1.363 . S
C1082 C1087 1.379 1_655 S
C1082 N1089 1.356 . S
C1083 C1082 1.363 . S
C1083 C1086 1.363 1_655 S
N1084 C1086 1.347 1_655 S
N1084 H1096 0.982 1_655 S
N1084 H1097 0.997 . S
N1085 C1087 1.356 . S
N1085 H1090 0.984 . S
N1085 H1091 0.984 1_455 S
C1086 C1080 1.379 . S
C1086 C1083 1.363 1_455 S
C1086 N1084 1.347 1_455 S
C1087 C1081 1.363 . S
C1087 C1082 1.379 1_455 S
C1087 N1085 1.356 . S
N1088 C1080 1.356 . S
N1088 H1094 0.984 . S
N1088 H1095 0.984 . S
N1089 C1082 1.356 . S
N1089 H1092 0.984 . S
N1089 H1093 0.985 . S
H1090 N1085 0.984 . S
H1091 N1085 0.984 1_655 S
H1092 N1089 0.984 . S
H1093 N1089 0.985 . S
H1094 N1088 0.984 . S
H1095 N1088 0.984 . S
H1096 N1084 0.982 1_455 S
H1097 N1084 0.997 . S
C1098 C1099 1.363 . S
C1098 C1104 1.379 . S
C1098 N1106 1.356 . S
C1099 C1098 1.363 . S
C1099 C1105 1.363 . S
C1100 C1101 1.363 . S
C1100 C1105 1.379 . S
C1100 N1107 1.356 . S
C1101 C1100 1.363 . S
C1101 C1104 1.363 . S
N1102 C1104 1.356 . S
N1102 H1114 0.984 . S
N1102 H1115 0.985 . S
N1103 C1105 1.356 . S
N1103 H1108 0.984 . S
N1103 H1109 0.985 . S
C1104 C1098 1.379 . S
C1104 C1101 1.363 . S
C1104 N1102 1.356 . S
C1105 C1099 1.363 . S
C1105 C1100 1.379 . S
C1105 N1103 1.356 . S
N1106 C1098 1.356 . S
N1106 H1112 0.984 . S
N1106 H1113 0.984 . S
N1107 C1100 1.356 . S
N1107 H1110 0.984 . S
N1107 H1111 0.985 . S
H1108 N1103 0.984 . S
H1109 N1103 0.985 . S
H1110 N1107 0.984 . S
H1111 N1107 0.985 . S
H1112 N1106 0.984 . S
H1113 N1106 0.984 . S
H1114 N1102 0.984 . S
H1115 N1102 0.985 . S
C1116 C1117 1.363 . S
C1116 C1122 1.379 . S
C1116 N1124 1.356 . S
C1117 C1116 1.363 . S
C1117 C1123 1.363 . S
C1118 C1119 1.363 . S
C1118 C1123 1.379 . S
C1118 N1125 1.356 . S
C1119 C1118 1.363 . S
C1119 C1122 1.363 . S
N1120 C1122 1.356 . S
N1120 H1132 0.984 . S
N1120 H1133 0.985 . S
N1121 C1123 1.356 1_455 S
N1121 H1126 0.984 . S
N1121 H1127 0.985 . S
C1122 C1116 1.379 . S
C1122 C1119 1.363 . S
C1122 N1120 1.356 . S
C1123 C1117 1.363 . S
C1123 C1118 1.379 . S
C1123 N1121 1.356 1_655 S
N1124 C1116 1.356 . S
N1124 H1130 0.984 . S
N1124 H1131 0.984 1_655 S
N1125 C1118 1.356 . S
N1125 H1128 0.984 . S
N1125 H1129 0.985 . S
H1126 N1121 0.984 . S
H1127 N1121 0.985 . S
H1128 N1125 0.984 . S
H1129 N1125 0.985 . S
H1130 N1124 0.984 . S
H1131 N1124 0.984 1_455 S
H1132 N1120 0.984 . S
H1133 N1120 0.985 . S
C1134 C1135 1.363 . S
C1134 C1140 1.379 . S
C1134 N1142 1.356 . S
C1135 C1134 1.363 . S
C1135 C1141 1.363 . S
C1136 C1137 1.363 . S
C1136 C1141 1.379 . S
C1136 N1143 1.356 . S
C1137 C1136 1.363 . S
C1137 C1140 1.363 . S
N1138 C1140 1.356 . S
N1138 H1150 0.984 . S
N1138 H1151 0.985 . S
N1139 C1141 1.356 . S
N1139 H1144 0.984 . S
N1139 H1145 0.985 . S
C1140 C1134 1.379 . S
C1140 C1137 1.363 . S
C1140 N1138 1.356 . S
C1141 C1135 1.363 . S
C1141 C1136 1.379 . S
C1141 N1139 1.356 . S
N1142 C1134 1.356 . S
N1142 H1148 0.984 . S
N1142 H1149 0.984 . S
N1143 C1136 1.356 . S
N1143 H1146 0.984 . S
N1143 H1147 0.985 . S
H1144 N1139 0.984 . S
H1145 N1139 0.985 . S
H1146 N1143 0.984 . S
H1147 N1143 0.985 . S
H1148 N1142 0.984 . S
H1149 N1142 0.984 . S
H1150 N1138 0.984 . S
H1151 N1138 0.985 . S
C1152 C1153 1.363 . S
C1152 C1158 1.379 . S
C1152 N1160 1.359 . S
C1153 C1152 1.363 . S
C1153 C1159 1.363 . S
C1154 C1155 1.363 . S
C1154 C1159 1.379 . S
C1154 N1161 1.356 . S
C1155 C1154 1.363 . S
C1155 C1158 1.363 . S
N1156 C1158 1.356 . S
N1156 H1168 0.984 . S
N1156 H1169 0.985 . S
N1157 C1159 1.356 1_565 S
N1157 H1162 0.984 . S
N1157 H1163 0.985 . S
C1158 C1152 1.379 . S
C1158 C1155 1.363 . S
C1158 N1156 1.356 . S
C1159 C1153 1.363 . S
C1159 C1154 1.379 . S
C1159 N1157 1.356 1_545 S
N1160 C1152 1.359 . S
N1160 H1166 0.987 . S
N1160 H1167 0.979 1_545 S
N1161 C1154 1.356 . S
N1161 H1164 0.984 . S
N1161 H1165 0.985 . S
H1162 N1157 0.984 . S
H1163 N1157 0.985 . S
H1164 N1161 0.984 . S
H1165 N1161 0.985 . S
H1166 N1160 0.987 . S
H1167 N1160 0.979 1_565 S
H1168 N1156 0.984 . S
H1169 N1156 0.985 . S
C1170 C1171 1.363 . S
C1170 C1176 1.379 . S
C1170 N1178 1.356 . S
C1171 C1170 1.363 . S
C1171 C1177 1.363 . S
C1172 C1173 1.363 . S
C1172 C1177 1.379 . S
C1172 N1179 1.356 . S
C1173 C1172 1.363 . S
C1173 C1176 1.363 . S
N1174 C1176 1.356 . S
N1174 H1186 0.984 . S
N1174 H1187 0.985 . S
N1175 C1177 1.356 . S
N1175 H1180 0.984 . S
N1175 H1181 0.985 . S
C1176 C1170 1.379 . S
C1176 C1173 1.363 . S
C1176 N1174 1.356 . S
C1177 C1171 1.363 . S
C1177 C1172 1.379 . S
C1177 N1175 1.356 . S
N1178 C1170 1.356 . S
N1178 H1184 0.984 . S
N1178 H1185 0.984 . S
N1179 C1172 1.356 . S
N1179 H1182 0.984 . S
N1179 H1183 0.985 . S
H1180 N1175 0.984 . S
H1181 N1175 0.985 . S
H1182 N1179 0.984 . S
H1183 N1179 0.985 . S
H1184 N1178 0.984 . S
H1185 N1178 0.984 . S
H1186 N1174 0.984 . S
H1187 N1174 0.985 . S
C1188 C1189 1.363 . S
C1188 C1194 1.379 . S
C1188 N1196 1.356 . S
C1189 C1188 1.363 . S
C1189 C1195 1.363 . S
C1190 C1191 1.363 . S
C1190 C1195 1.379 . S
C1190 N1197 1.356 . S
C1191 C1190 1.363 . S
C1191 C1194 1.363 . S
N1192 C1194 1.356 . S
N1192 H1204 0.984 . S
N1192 H1205 0.985 . S
N1193 C1195 1.356 . S
N1193 H1198 0.984 . S
N1193 H1199 0.985 . S
C1194 C1188 1.379 . S
C1194 C1191 1.363 . S
C1194 N1192 1.356 . S
C1195 C1189 1.363 . S
C1195 C1190 1.379 . S
C1195 N1193 1.356 . S
N1196 C1188 1.356 . S
N1196 H1202 0.984 . S
N1196 H1203 0.984 . S
N1197 C1190 1.356 . S
N1197 H1200 0.984 . S
N1197 H1201 0.985 . S
H1198 N1193 0.984 . S
H1199 N1193 0.985 . S
H1200 N1197 0.984 . S
H1201 N1197 0.985 . S
H1202 N1196 0.984 . S
H1203 N1196 0.984 . S
H1204 N1192 0.984 . S
H1205 N1192 0.985 . S
C1206 C1207 1.363 . S
C1206 C1212 1.379 . S
C1206 N1214 1.356 . S
C1207 C1206 1.363 . S
C1207 C1213 1.363 . S
C1208 C1209 1.363 . S
C1208 C1213 1.379 . S
C1208 N1215 1.356 . S
C1209 C1208 1.363 . S
C1209 C1212 1.363 . S
N1210 C1212 1.356 . S
N1210 H1222 0.984 . S
N1210 H1223 0.985 . S
N1211 C1213 1.356 . S
N1211 H1216 0.984 . S
N1211 H1217 0.985 . S
C1212 C1206 1.379 . S
C1212 C1209 1.363 . S
C1212 N1210 1.356 . S
C1213 C1207 1.363 . S
C1213 C1208 1.379 . S
C1213 N1211 1.356 . S
N1214 C1206 1.356 . S
N1214 H1220 0.984 . S
N1214 H1221 0.984 . S
N1215 C1208 1.356 . S
N1215 H1218 0.984 . S
N1215 H1219 0.985 . S
H1216 N1211 0.984 . S
H1217 N1211 0.985 . S
H1218 N1215 0.984 . S
H1219 N1215 0.985 . S
H1220 N1214 0.984 . S
H1221 N1214 0.984 . S
H1222 N1210 0.984 . S
H1223 N1210 0.985 . S
C1224 C1225 1.363 . S
C1224 C1230 1.379 . S
C1224 N1232 1.356 . S
C1225 C1224 1.363 . S
C1225 C1231 1.363 . S
C1226 C1227 1.363 . S
C1226 C1231 1.379 . S
C1226 N1233 1.356 . S
C1227 C1226 1.363 . S
C1227 C1230 1.363 . S
N1228 C1230 1.356 . S
N1228 H1240 0.984 . S
N1228 H1241 0.985 . S
N1229 C1231 1.356 . S
N1229 H1234 0.984 . S
N1229 H1235 0.985 . S
C1230 C1224 1.379 . S
C1230 C1227 1.363 . S
C1230 N1228 1.356 . S
C1231 C1225 1.363 . S
C1231 C1226 1.379 . S
C1231 N1229 1.356 . S
N1232 C1224 1.356 . S
N1232 H1238 0.984 . S
N1232 H1239 0.984 . S
N1233 C1226 1.356 . S
N1233 H1236 0.984 . S
N1233 H1237 0.985 . S
H1234 N1229 0.984 . S
H1235 N1229 0.985 . S
H1236 N1233 0.984 . S
H1237 N1233 0.985 . S
H1238 N1232 0.984 . S
H1239 N1232 0.984 . S
H1240 N1228 0.984 . S
H1241 N1228 0.985 . S
C1242 C1243 1.363 . S
C1242 C1248 1.379 . S
C1242 N1250 1.356 . S
C1243 C1242 1.363 . S
C1243 C1249 1.363 . S
C1244 C1245 1.363 . S
C1244 C1249 1.379 . S
C1244 N1251 1.356 . S
C1245 C1244 1.363 . S
C1245 C1248 1.363 . S
N1246 C1248 1.356 . S
N1246 H1258 0.984 . S
N1246 H1259 0.985 . S
N1247 C1249 1.356 . S
N1247 H1252 0.984 . S
N1247 H1253 0.985 . S
C1248 C1242 1.379 . S
C1248 C1245 1.363 . S
C1248 N1246 1.356 . S
C1249 C1243 1.363 . S
C1249 C1244 1.379 . S
C1249 N1247 1.356 . S
N1250 C1242 1.356 . S
N1250 H1256 0.984 . S
N1250 H1257 0.984 . S
N1251 C1244 1.356 . S
N1251 H1254 0.984 . S
N1251 H1255 0.985 . S
H1252 N1247 0.984 . S
H1253 N1247 0.985 . S
H1254 N1251 0.984 . S
H1255 N1251 0.985 . S
H1256 N1250 0.984 . S
H1257 N1250 0.984 . S
H1258 N1246 0.984 . S
H1259 N1246 0.985 . S
C1260 C1261 1.363 . S
C1260 C1266 1.379 . S
C1260 N1268 1.356 . S
C1261 C1260 1.363 . S
C1261 C1267 1.363 . S
C1262 C1263 1.363 . S
C1262 C1267 1.379 . S
C1262 N1269 1.356 . S
C1263 C1262 1.363 . S
C1263 C1266 1.363 . S
N1264 C1266 1.356 . S
N1264 H1276 0.984 . S
N1264 H1277 0.985 . S
N1265 C1267 1.356 . S
N1265 H1270 0.984 . S
N1265 H1271 0.985 . S
C1266 C1260 1.379 . S
C1266 C1263 1.363 . S
C1266 N1264 1.356 . S
C1267 C1261 1.363 . S
C1267 C1262 1.379 . S
C1267 N1265 1.356 . S
N1268 C1260 1.356 . S
N1268 H1274 0.984 . S
N1268 H1275 0.984 . S
N1269 C1262 1.356 . S
N1269 H1272 0.984 . S
N1269 H1273 0.985 . S
H1270 N1265 0.984 . S
H1271 N1265 0.985 . S
H1272 N1269 0.984 . S
H1273 N1269 0.985 . S
H1274 N1268 0.984 . S
H1275 N1268 0.984 . S
H1276 N1264 0.984 . S
H1277 N1264 0.985 . S
C1278 C1279 1.363 . S
C1278 C1284 1.379 . S
C1278 N1286 1.356 . S
C1279 C1278 1.363 . S
C1279 C1285 1.363 . S
C1280 C1281 1.363 . S
C1280 C1285 1.379 . S
C1280 N1287 1.356 1_655 S
C1281 C1280 1.363 . S
C1281 C1284 1.363 . S
N1282 C1284 1.356 . S
N1282 H1294 0.984 . S
N1282 H1295 0.985 . S
N1283 C1285 1.356 1_455 S
N1283 H1288 0.984 . S
N1283 H1289 0.985 . S
C1284 C1278 1.379 . S
C1284 C1281 1.363 . S
C1284 N1282 1.356 . S
C1285 C1279 1.363 . S
C1285 C1280 1.379 . S
C1285 N1283 1.356 1_655 S
N1286 C1278 1.356 . S
N1286 H1292 0.984 . S
N1286 H1293 0.984 . S
N1287 C1280 1.356 1_455 S
N1287 H1290 0.984 1_455 S
N1287 H1291 0.985 . S
H1288 N1283 0.984 . S
H1289 N1283 0.985 . S
H1290 N1287 0.984 1_655 S
H1291 N1287 0.985 . S
H1292 N1286 0.984 . S
H1293 N1286 0.984 . S
H1294 N1282 0.984 . S
H1295 N1282 0.985 . S
C1296 C1297 1.363 . S
C1296 C1302 1.379 . S
C1296 N1304 1.356 . S
C1297 C1296 1.363 . S
C1297 C1303 1.363 . S
C1298 C1299 1.363 . S
C1298 C1303 1.379 . S
C1298 N1305 1.356 . S
C1299 C1298 1.363 . S
C1299 C1302 1.363 . S
N1300 C1302 1.356 . S
N1300 H1312 0.984 . S
N1300 H1313 0.985 . S
N1301 C1303 1.356 . S
N1301 H1306 0.984 . S
N1301 H1307 0.985 . S
C1302 C1296 1.379 . S
C1302 C1299 1.363 . S
C1302 N1300 1.356 . S
C1303 C1297 1.363 . S
C1303 C1298 1.379 . S
C1303 N1301 1.356 . S
N1304 C1296 1.356 . S
N1304 H1310 0.984 . S
N1304 H1311 0.984 . S
N1305 C1298 1.356 . S
N1305 H1308 0.984 . S
N1305 H1309 0.985 . S
H1306 N1301 0.984 . S
H1307 N1301 0.985 . S
H1308 N1305 0.984 . S
H1309 N1305 0.985 . S
H1310 N1304 0.984 . S
H1311 N1304 0.984 . S
H1312 N1300 0.984 . S
H1313 N1300 0.985 . S
C1314 C1315 1.363 . S
C1314 C1320 1.379 . S
C1314 N1322 1.356 . S
C1315 C1314 1.363 . S
C1315 C1321 1.363 . S
C1316 C1317 1.363 . S
C1316 C1321 1.379 . S
C1316 N1323 1.356 . S
C1317 C1316 1.363 . S
C1317 C1320 1.363 . S
N1318 C1320 1.356 . S
N1318 H1330 0.984 1_545 S
N1318 H1331 0.985 . S
N1319 C1321 1.356 . S
N1319 H1324 0.984 . S
N1319 H1325 0.985 . S
C1320 C1314 1.379 . S
C1320 C1317 1.363 . S
C1320 N1318 1.356 . S
C1321 C1315 1.363 . S
C1321 C1316 1.379 . S
C1321 N1319 1.356 . S
N1322 C1314 1.356 . S
N1322 H1328 0.984 . S
N1322 H1329 0.984 . S
N1323 C1316 1.356 . S
N1323 H1326 0.984 . S
N1323 H1327 0.985 . S
H1324 N1319 0.984 . S
H1325 N1319 0.985 . S
H1326 N1323 0.984 . S
H1327 N1323 0.985 . S
H1328 N1322 0.984 . S
H1329 N1322 0.984 . S
H1330 N1318 0.984 1_565 S
H1331 N1318 0.985 . S
C1332 C1333 1.363 . S
C1332 C1338 1.379 . S
C1332 N1340 1.356 . S
C1333 C1332 1.363 . S
C1333 C1339 1.363 . S
C1334 C1335 1.363 . S
C1334 C1339 1.379 . S
C1334 N1341 1.356 . S
C1335 C1334 1.363 . S
C1335 C1338 1.363 . S
N1336 C1338 1.356 . S
N1336 H1348 0.984 . S
N1336 H1349 0.985 . S
N1337 C1339 1.356 . S
N1337 H1342 0.984 . S
N1337 H1343 0.985 . S
C1338 C1332 1.379 . S
C1338 C1335 1.363 . S
C1338 N1336 1.356 . S
C1339 C1333 1.363 . S
C1339 C1334 1.379 . S
C1339 N1337 1.356 . S
N1340 C1332 1.356 . S
N1340 H1346 0.984 . S
N1340 H1347 0.984 . S
N1341 C1334 1.356 . S
N1341 H1344 0.984 . S
N1341 H1345 0.985 . S
H1342 N1337 0.984 . S
H1343 N1337 0.985 . S
H1344 N1341 0.984 . S
H1345 N1341 0.985 . S
H1346 N1340 0.984 . S
H1347 N1340 0.984 . S
H1348 N1336 0.984 . S
H1349 N1336 0.985 . S
C1350 C1351 1.363 . S
C1350 C1356 1.379 . S
C1350 N1358 1.356 . S
C1351 C1350 1.363 . S
C1351 C1357 1.363 . S
C1352 C1353 1.363 . S
C1352 C1357 1.379 . S
C1352 N1359 1.356 . S
C1353 C1352 1.363 . S
C1353 C1356 1.363 . S
N1354 C1356 1.356 . S
N1354 H1366 0.984 . S
N1354 H1367 0.985 . S
N1355 C1357 1.356 . S
N1355 H1360 0.984 . S
N1355 H1361 0.985 . S
C1356 C1350 1.379 . S
C1356 C1353 1.363 . S
C1356 N1354 1.356 . S
C1357 C1351 1.363 . S
C1357 C1352 1.379 . S
C1357 N1355 1.356 . S
N1358 C1350 1.356 . S
N1358 H1364 0.984 . S
N1358 H1365 0.984 . S
N1359 C1352 1.356 . S
N1359 H1362 0.984 . S
N1359 H1363 0.985 . S
H1360 N1355 0.984 . S
H1361 N1355 0.985 . S
H1362 N1359 0.984 . S
H1363 N1359 0.985 . S
H1364 N1358 0.984 . S
H1365 N1358 0.984 . S
H1366 N1354 0.984 . S
H1367 N1354 0.985 . S
C1368 C1369 1.363 . S
C1368 C1374 1.379 . S
C1368 N1376 1.356 . S
C1369 C1368 1.363 . S
C1369 C1375 1.363 . S
C1370 C1371 1.363 . S
C1370 C1375 1.379 . S
C1370 N1377 1.356 . S
C1371 C1370 1.363 . S
C1371 C1374 1.363 . S
N1372 C1374 1.356 . S
N1372 H1384 0.984 . S
N1372 H1385 0.985 . S
N1373 C1375 1.356 . S
N1373 H1378 0.984 . S
N1373 H1379 0.985 . S
C1374 C1368 1.379 . S
C1374 C1371 1.363 . S
C1374 N1372 1.356 . S
C1375 C1369 1.363 . S
C1375 C1370 1.379 . S
C1375 N1373 1.356 . S
N1376 C1368 1.356 . S
N1376 H1382 0.984 . S
N1376 H1383 0.984 . S
N1377 C1370 1.356 . S
N1377 H1380 0.984 . S
N1377 H1381 0.985 . S
H1378 N1373 0.984 . S
H1379 N1373 0.985 . S
H1380 N1377 0.984 . S
H1381 N1377 0.985 . S
H1382 N1376 0.984 . S
H1383 N1376 0.984 . S
H1384 N1372 0.984 . S
H1385 N1372 0.985 . S
C1386 C1387 1.363 . S
C1386 C1392 1.379 . S
C1386 N1394 1.356 . S
C1387 C1386 1.363 . S
C1387 C1393 1.363 . S
C1388 C1389 1.363 . S
C1388 C1393 1.379 . S
C1388 N1395 1.356 . S
C1389 C1388 1.363 . S
C1389 C1392 1.363 . S
N1390 C1392 1.356 . S
N1390 H1402 0.984 . S
N1390 H1403 0.985 . S
N1391 C1393 1.356 . S
N1391 H1396 0.984 . S
N1391 H1397 0.985 . S
C1392 C1386 1.379 . S
C1392 C1389 1.363 . S
C1392 N1390 1.356 . S
C1393 C1387 1.363 . S
C1393 C1388 1.379 . S
C1393 N1391 1.356 . S
N1394 C1386 1.356 . S
N1394 H1400 0.984 . S
N1394 H1401 0.984 . S
N1395 C1388 1.356 . S
N1395 H1398 0.984 . S
N1395 H1399 0.985 . S
H1396 N1391 0.984 . S
H1397 N1391 0.985 . S
H1398 N1395 0.984 . S
H1399 N1395 0.985 . S
H1400 N1394 0.984 . S
H1401 N1394 0.984 . S
H1402 N1390 0.984 . S
H1403 N1390 0.985 . S
C1404 C1405 1.363 . S
C1404 C1410 1.379 . S
C1404 N1412 1.356 . S
C1405 C1404 1.363 . S
C1405 C1411 1.363 . S
C1406 C1407 1.363 . S
C1406 C1411 1.379 . S
C1406 N1413 1.356 . S
C1407 C1406 1.363 . S
C1407 C1410 1.363 . S
N1408 C1410 1.356 . S
N1408 H1420 0.984 . S
N1408 H1421 0.985 . S
N1409 C1411 1.356 . S
N1409 H1414 0.984 . S
N1409 H1415 0.985 . S
C1410 C1404 1.379 . S
C1410 C1407 1.363 . S
C1410 N1408 1.356 . S
C1411 C1405 1.363 . S
C1411 C1406 1.379 . S
C1411 N1409 1.356 . S
N1412 C1404 1.356 . S
N1412 H1418 0.984 . S
N1412 H1419 0.984 . S
N1413 C1406 1.356 . S
N1413 H1416 0.984 . S
N1413 H1417 0.985 . S
H1414 N1409 0.984 . S
H1415 N1409 0.985 . S
H1416 N1413 0.984 . S
H1417 N1413 0.985 . S
H1418 N1412 0.984 . S
H1419 N1412 0.984 . S
H1420 N1408 0.984 . S
H1421 N1408 0.985 . S
C1422 C1423 1.363 . S
C1422 C1428 1.379 . S
C1422 N1430 1.356 . S
C1423 C1422 1.363 . S
C1423 C1429 1.363 . S
C1424 C1425 1.363 . S
C1424 C1429 1.379 . S
C1424 N1431 1.356 . S
C1425 C1424 1.363 . S
C1425 C1428 1.363 . S
N1426 C1428 1.356 . S
N1426 H1438 0.984 . S
N1426 H1439 0.985 . S
N1427 C1429 1.356 . S
N1427 H1432 0.984 . S
N1427 H1433 0.985 . S
C1428 C1422 1.379 . S
C1428 C1425 1.363 . S
C1428 N1426 1.356 . S
C1429 C1423 1.363 . S
C1429 C1424 1.379 . S
C1429 N1427 1.356 . S
N1430 C1422 1.356 . S
N1430 H1436 0.984 . S
N1430 H1437 0.984 . S
N1431 C1424 1.356 . S
N1431 H1434 0.984 . S
N1431 H1435 0.985 . S
H1432 N1427 0.984 . S
H1433 N1427 0.985 . S
H1434 N1431 0.984 . S
H1435 N1431 0.985 . S
H1436 N1430 0.984 . S
H1437 N1430 0.984 . S
H1438 N1426 0.984 . S
H1439 N1426 0.985 . S
C1440 C1441 1.363 . S
C1440 C1446 1.379 . S
C1440 N1448 1.356 . S
C1441 C1440 1.363 . S
C1441 C1447 1.363 . S
C1442 C1443 1.363 . S
C1442 C1447 1.379 . S
C1442 N1449 1.356 . S
C1443 C1442 1.363 . S
C1443 C1446 1.363 . S
N1444 C1446 1.356 . S
N1444 H1456 0.984 . S
N1444 H1457 0.985 . S
N1445 C1447 1.356 . S
N1445 H1450 0.984 . S
N1445 H1451 0.985 . S
C1446 C1440 1.379 . S
C1446 C1443 1.363 . S
C1446 N1444 1.356 . S
C1447 C1441 1.363 . S
C1447 C1442 1.379 . S
C1447 N1445 1.356 . S
N1448 C1440 1.356 . S
N1448 H1454 0.984 . S
N1448 H1455 0.984 . S
N1449 C1442 1.356 . S
N1449 H1452 0.984 . S
N1449 H1453 0.985 . S
H1450 N1445 0.984 . S
H1451 N1445 0.985 . S
H1452 N1449 0.984 . S
H1453 N1449 0.985 . S
H1454 N1448 0.984 . S
H1455 N1448 0.984 . S
H1456 N1444 0.984 . S
H1457 N1444 0.985 . S
C1458 C1459 1.363 . S
C1458 C1464 1.379 . S
C1458 N1466 1.356 . S
C1459 C1458 1.363 . S
C1459 C1465 1.363 . S
C1460 C1461 1.363 . S
C1460 C1465 1.379 . S
C1460 N1467 1.356 . S
C1461 C1460 1.363 . S
C1461 C1464 1.363 . S
N1462 C1464 1.356 . S
N1462 H1474 0.984 . S
N1462 H1475 0.985 . S
N1463 C1465 1.356 . S
N1463 H1468 0.984 . S
N1463 H1469 0.985 . S
C1464 C1458 1.379 . S
C1464 C1461 1.363 . S
C1464 N1462 1.356 . S
C1465 C1459 1.363 . S
C1465 C1460 1.379 . S
C1465 N1463 1.356 . S
N1466 C1458 1.356 . S
N1466 H1472 0.984 . S
N1466 H1473 0.984 . S
N1467 C1460 1.356 . S
N1467 H1470 0.984 . S
N1467 H1471 0.985 . S
H1468 N1463 0.984 . S
H1469 N1463 0.985 . S
H1470 N1467 0.984 . S
H1471 N1467 0.985 . S
H1472 N1466 0.984 . S
H1473 N1466 0.984 . S
H1474 N1462 0.984 . S
H1475 N1462 0.985 . S
C1476 C1477 1.363 . S
C1476 C1482 1.379 . S
C1476 N1484 1.356 . S
C1477 C1476 1.363 . S
C1477 C1483 1.363 . S
C1478 C1479 1.363 . S
C1478 C1483 1.379 . S
C1478 N1485 1.356 . S
C1479 C1478 1.363 . S
C1479 C1482 1.363 . S
N1480 C1482 1.356 . S
N1480 H1492 0.984 . S
N1480 H1493 0.985 . S
N1481 C1483 1.356 . S
N1481 H1486 0.984 . S
N1481 H1487 0.985 . S
C1482 C1476 1.379 . S
C1482 C1479 1.363 . S
C1482 N1480 1.356 . S
C1483 C1477 1.363 . S
C1483 C1478 1.379 . S
C1483 N1481 1.356 . S
N1484 C1476 1.356 . S
N1484 H1490 0.984 . S
N1484 H1491 0.984 . S
N1485 C1478 1.356 . S
N1485 H1488 0.984 . S
N1485 H1489 0.985 . S
H1486 N1481 0.984 . S
H1487 N1481 0.985 . S
H1488 N1485 0.984 . S
H1489 N1485 0.985 . S
H1490 N1484 0.984 . S
H1491 N1484 0.984 . S
H1492 N1480 0.984 . S
H1493 N1480 0.985 . S
C1494 C1495 1.363 . S
C1494 C1500 1.379 . S
C1494 N1502 1.356 . S
C1495 C1494 1.363 . S
C1495 C1501 1.363 . S
C1496 C1497 1.363 . S
C1496 C1501 1.379 . S
C1496 N1503 1.356 . S
C1497 C1496 1.363 . S
C1497 C1500 1.363 . S
N1498 C1500 1.356 . S
N1498 H1510 0.984 . S
N1498 H1511 0.985 . S
N1499 C1501 1.356 . S
N1499 H1504 0.984 . S
N1499 H1505 0.985 . S
C1500 C1494 1.379 . S
C1500 C1497 1.363 . S
C1500 N1498 1.356 . S
C1501 C1495 1.363 . S
C1501 C1496 1.379 . S
C1501 N1499 1.356 . S
N1502 C1494 1.356 . S
N1502 H1508 0.984 . S
N1502 H1509 0.984 . S
N1503 C1496 1.356 . S
N1503 H1506 0.984 . S
N1503 H1507 0.985 . S
H1504 N1499 0.984 . S
H1505 N1499 0.985 . S
H1506 N1503 0.984 . S
H1507 N1503 0.985 . S
H1508 N1502 0.984 . S
H1509 N1502 0.984 . S
H1510 N1498 0.984 . S
H1511 N1498 0.985 . S
C1512 C1513 1.363 . S
C1512 C1518 1.379 . S
C1512 N1520 1.356 . S
C1513 C1512 1.363 . S
C1513 C1519 1.363 . S
C1514 C1515 1.363 . S
C1514 C1519 1.379 . S
C1514 N1521 1.356 . S
C1515 C1514 1.363 . S
C1515 C1518 1.363 . S
N1516 C1518 1.356 . S
N1516 H1528 0.984 . S
N1516 H1529 0.985 . S
N1517 C1519 1.356 . S
N1517 H1522 0.984 . S
N1517 H1523 0.985 . S
C1518 C1512 1.379 . S
C1518 C1515 1.363 . S
C1518 N1516 1.356 . S
C1519 C1513 1.363 . S
C1519 C1514 1.379 . S
C1519 N1517 1.356 . S
N1520 C1512 1.356 . S
N1520 H1526 0.984 . S
N1520 H1527 0.984 . S
N1521 C1514 1.356 . S
N1521 H1524 0.984 . S
N1521 H1525 0.985 . S
H1522 N1517 0.984 . S
H1523 N1517 0.985 . S
H1524 N1521 0.984 . S
H1525 N1521 0.985 . S
H1526 N1520 0.984 . S
H1527 N1520 0.984 . S
H1528 N1516 0.984 . S
H1529 N1516 0.985 . S
C1530 C1531 1.363 . S
C1530 C1536 1.379 . S
C1530 N1538 1.356 . S
C1531 C1530 1.363 . S
C1531 C1537 1.363 . S
C1532 C1533 1.363 . S
C1532 C1537 1.379 . S
C1532 N1539 1.356 . S
C1533 C1532 1.363 . S
C1533 C1536 1.363 . S
N1534 C1536 1.356 . S
N1534 H1546 0.984 . S
N1534 H1547 0.985 . S
N1535 C1537 1.356 . S
N1535 H1540 0.984 . S
N1535 H1541 0.985 . S
C1536 C1530 1.379 . S
C1536 C1533 1.363 . S
C1536 N1534 1.356 . S
C1537 C1531 1.363 . S
C1537 C1532 1.379 . S
C1537 N1535 1.356 . S
N1538 C1530 1.356 . S
N1538 H1544 0.984 . S
N1538 H1545 0.984 . S
N1539 C1532 1.356 . S
N1539 H1542 0.984 . S
N1539 H1543 0.985 . S
H1540 N1535 0.984 . S
H1541 N1535 0.985 . S
H1542 N1539 0.984 . S
H1543 N1539 0.985 . S
H1544 N1538 0.984 . S
H1545 N1538 0.984 . S
H1546 N1534 0.984 . S
H1547 N1534 0.985 . S
C577 C162 1.655 . S
C579 C228 1.663 . S
C595 C174 1.751 . S
C597 C268 1.746 . S
C613 C150 1.591 . S
C615 C298 1.574 . S
C631 C138 1.496 . S
C633 C258 1.469 . S
C651 C308 1.520 . S
C649 C114 1.523 . S
C667 C126 1.405 . S
C669 C218 1.398 1_556 S
C687 C247 1.671 . S
C685 C136 1.642 . S
C705 C287 1.645 . S
C703 C112 1.624 . S
C721 C124 1.628 . S
C723 C313 1.671 1_556 S
C739 C160 1.509 . S
C741 C273 1.531 . S
C757 C172 1.480 . S
C759 C327 1.489 . S
C777 C233 1.528 . S
C775 C148 1.491 . S
C795 C348 1.663 . S
C793 C18 1.655 . S
C811 C30 1.751 . S
C813 C388 1.746 . S
C829 C6 1.591 . S
C831 C418 1.574 . S
C847 C210 1.496 . S
C849 C378 1.469 . S
C865 C186 1.523 . S
C867 C428 1.519 . S
C883 C198 1.405 . S
C885 C338 1.399 . S
C901 C208 1.642 . S
C903 C367 1.671 . S
C919 C184 1.624 . S
C921 C407 1.645 . S
C939 C433 1.671 . S
C937 C196 1.629 . S
C955 C16 1.509 . S
C957 C393 1.531 . S
C975 C447 1.489 . S
C973 C28 1.480 1_455 S
C991 C4 1.491 . S
C993 C353 1.528 . S
C1011 C468 1.663 . S
C1009 C90 1.655 . S
C1027 C102 1.751 . S
C1029 C508 1.746 . S
C1047 C538 1.574 . S
C1045 C78 1.591 . S
C1065 C498 1.469 . S
C1063 C66 1.496 . S
C1083 C548 1.520 . S
C1081 C42 1.523 . S
C1099 C54 1.405 . S
C1101 C458 1.399 . S
C1117 C64 1.642 1_655 S
C1119 C487 1.670 . S
C1135 C40 1.624 . S
C1137 C527 1.645 . S
C1155 C553 1.671 . S
C1153 C52 1.629 1_545 S
C1171 C88 1.509 . S
C1173 C513 1.531 . S
C1189 C100 1.480 . S
C1191 C567 1.489 . S
C1207 C76 1.491 . S
C1209 C473 1.529 . S
C1225 C189 1.610 . S
C1227 C245 1.568 . S
C1245 C285 1.869 . S
C1243 C201 1.926 . S
C1261 C213 1.562 . S
C1263 C304 1.576 . S
C1279 C81 1.735 . S
C1281 C264 1.725 . S
C1297 C93 1.690 . S
C1299 C325 1.659 . S
C1317 C224 1.377 . S
C1315 C105 1.369 . S
C1333 C45 1.610 . S
C1335 C365 1.568 . S
C1351 C57 1.926 . S
C1353 C405 1.869 . S
C1369 C69 1.562 . S
C1371 C424 1.577 . S
C1387 C153 1.734 . S
C1389 C384 1.725 . S
C1407 C445 1.659 . S
C1405 C165 1.690 . S
C1423 C177 1.369 . S
C1425 C344 1.377 . S
C1441 C117 1.610 . S
C1443 C485 1.568 . S
C1459 C129 1.926 . S
C1461 C525 1.869 . S
C1479 C544 1.577 . S
C1477 C141 1.562 . S
C1495 C9 1.735 . S
C1497 C504 1.725 . S
C1513 C21 1.690 . S
C1515 C565 1.659 . S
C1531 C33 1.369 . S
C1533 C464 1.377 . S
