# Generated by pormake.
# Topology ant, (3,6)-cn, num edge types: 1
# Building blocks:
#     Node 0, Type 0, BuildingBlock: PAMTOO_clean_linker_0, # of connection points: 3
#     Node 1, Type 0, BuildingBlock: PAMTOO_clean_linker_0, # of connection points: 3
#     Node 2, Type 0, BuildingBlock: PAMTOO_clean_linker_0, # of connection points: 3
#     Node 3, Type 0, BuildingBlock: PAMTOO_clean_linker_0, # of connection points: 3
#     Node 4, Type 0, BuildingBlock: PAMTOO_clean_linker_0, # of connection points: 3
#     Node 5, Type 0, BuildingBlock: PAMTOO_clean_linker_0, # of connection points: 3
#     Node 6, Type 0, BuildingBlock: PAMTOO_clean_linker_0, # of connection points: 3
#     Node 7, Type 0, BuildingBlock: PAMTOO_clean_linker_0, # of connection points: 3
#     Node 8, Type 1, BuildingBlock: MIDCAF_clean_sbu_0, # of connection points: 6
#     Node 9, Type 1, BuildingBlock: MIDCAF_clean_sbu_0, # of connection points: 6
#     Node 10, Type 1, BuildingBlock: MIDCAF_clean_sbu_0, # of connection points: 6
#     Node 11, Type 1, BuildingBlock: MIDCAF_clean_sbu_0, # of connection points: 6
#     Edge 12, Type (0, 1), BuildingBlock: CIFDUS_clean_linker_0, # of connection points: 2
#     Edge 13, Type (0, 1), BuildingBlock: CIFDUS_clean_linker_0, # of connection points: 2
#     Edge 14, Type (0, 1), BuildingBlock: CIFDUS_clean_linker_0, # of connection points: 2
#     Edge 15, Type (0, 1), BuildingBlock: CIFDUS_clean_linker_0, # of connection points: 2
#     Edge 16, Type (0, 1), BuildingBlock: CIFDUS_clean_linker_0, # of connection points: 2
#     Edge 17, Type (0, 1), BuildingBlock: CIFDUS_clean_linker_0, # of connection points: 2
#     Edge 18, Type (0, 1), BuildingBlock: CIFDUS_clean_linker_0, # of connection points: 2
#     Edge 19, Type (0, 1), BuildingBlock: CIFDUS_clean_linker_0, # of connection points: 2
#     Edge 20, Type (0, 1), BuildingBlock: CIFDUS_clean_linker_0, # of connection points: 2
#     Edge 21, Type (0, 1), BuildingBlock: CIFDUS_clean_linker_0, # of connection points: 2
#     Edge 22, Type (0, 1), BuildingBlock: CIFDUS_clean_linker_0, # of connection points: 2
#     Edge 23, Type (0, 1), BuildingBlock: CIFDUS_clean_linker_0, # of connection points: 2
#     Edge 24, Type (0, 1), BuildingBlock: CIFDUS_clean_linker_0, # of connection points: 2
#     Edge 25, Type (0, 1), BuildingBlock: CIFDUS_clean_linker_0, # of connection points: 2
#     Edge 26, Type (0, 1), BuildingBlock: CIFDUS_clean_linker_0, # of connection points: 2
#     Edge 27, Type (0, 1), BuildingBlock: CIFDUS_clean_linker_0, # of connection points: 2
#     Edge 28, Type (0, 1), BuildingBlock: CIFDUS_clean_linker_0, # of connection points: 2
#     Edge 29, Type (0, 1), BuildingBlock: CIFDUS_clean_linker_0, # of connection points: 2
#     Edge 30, Type (0, 1), BuildingBlock: CIFDUS_clean_linker_0, # of connection points: 2
#     Edge 31, Type (0, 1), BuildingBlock: CIFDUS_clean_linker_0, # of connection points: 2
#     Edge 32, Type (0, 1), BuildingBlock: CIFDUS_clean_linker_0, # of connection points: 2
#     Edge 33, Type (0, 1), BuildingBlock: CIFDUS_clean_linker_0, # of connection points: 2
#     Edge 34, Type (0, 1), BuildingBlock: CIFDUS_clean_linker_0, # of connection points: 2
#     Edge 35, Type (0, 1), BuildingBlock: CIFDUS_clean_linker_0, # of connection points: 2
# Relax obj value: 0.057
# Max RMSD: 0.149
# Mean RMSD: 0.091
data_MOF--net-ant--node1-MIDCAF_clean_sbu_0--node2-PAMTOO_clean_linker_0--edge1-CIFDUS_clean_linker_0
_symmetry_space_group_name_H-M    P1
_symmetry_Int_Tables_number       1
_symmetry_cell_setting            triclinic
loop_
_symmetry_equiv_pos_as_xyz
'x, y, z'
_cell_length_a     25.085015
_cell_length_b     25.027618
_cell_length_c     61.75606
_cell_angle_alpha  85.628111
_cell_angle_beta   98.661013
_cell_angle_gamma 90.202398
loop_
_atom_site_label
_atom_site_type_symbol
_atom_site_fract_x
_atom_site_fract_y
_atom_site_fract_z
_atom_type_partial_charge
H0 H 0.28777 0.11288 0.03393 0.0
H1 H 0.27313 0.28397 0.03375 0.0
H2 H 0.28993 0.18758 0.09482 0.0
H3 H 0.20677 0.28329 0.08908 0.0
C4 C 0.22712 0.30821 0.07712 0.0
O5 O 0.27674 0.28567 0.07587 0.0
H6 H 0.20108 0.30931 0.0608 0.0
C7 C 0.28739 0.14846 0.04289 0.0
C8 C 0.29156 0.1436 0.06594 0.0
C9 C 0.28076 0.19875 0.03113 0.0
C10 C 0.27909 0.24483 0.04259 0.0
C11 C 0.28152 0.24075 0.0654 0.0
C12 C 0.28793 0.19026 0.07712 0.0
H13 H 0.19262 0.80828 0.27652 0.0
H14 H 0.02353 0.7922 0.27946 0.0
H15 H 0.12585 0.86898 0.33021 0.0
H16 H 0.03753 0.79535 0.34612 0.0
C17 C 0.01006 0.79745 0.33016 0.0
O18 O 0.02659 0.8379 0.31626 0.0
H19 H 0.01206 0.75803 0.32305 0.0
C20 C 0.15824 0.81602 0.28463 0.0
C21 C 0.16553 0.84268 0.30402 0.0
C22 C 0.10755 0.7975 0.27583 0.0
C23 C 0.06295 0.80651 0.28617 0.0
C24 C 0.06964 0.83183 0.30588 0.0
C25 C 0.12095 0.84969 0.31492 0.0
H26 H 0.66517 0.59595 0.54571 0.0
H27 H 0.63821 0.76632 0.53751 0.0
H28 H 0.6934 0.69086 0.6017 0.0
H29 H 0.6029 0.78332 0.59509 0.0
C30 C 0.62208 0.80833 0.58276 0.0
O31 O 0.66773 0.78282 0.57858 0.0
H32 H 0.59246 0.81411 0.56741 0.0
C33 C 0.66632 0.63458 0.55262 0.0
C34 C 0.68253 0.63785 0.57525 0.0
C35 C 0.64888 0.68039 0.53903 0.0
C36 C 0.65004 0.73026 0.54798 0.0
C37 C 0.66609 0.73414 0.57046 0.0
C38 C 0.68153 0.68781 0.58423 0.0
H39 H 0.68151 0.3131 0.78316 0.0
H40 H 0.51519 0.30218 0.79181 0.0
H41 H 0.63219 0.36069 0.84284 0.0
H42 H 0.53081 0.30702 0.86161 0.0
C43 C 0.51092 0.30144 0.8446 0.0
O44 O 0.52862 0.34074 0.83044 0.0
H45 H 0.52269 0.26077 0.84069 0.0
C46 C 0.65022 0.31946 0.79309 0.0
C47 C 0.66384 0.33929 0.81386 0.0
C48 C 0.59715 0.3058 0.78513 0.0
C49 C 0.55645 0.31244 0.79792 0.0
C50 C 0.56891 0.33254 0.81867 0.0
C51 C 0.62275 0.34535 0.82679 0.0
H52 H 0.12752 0.83428 0.94001 0.0
H53 H 0.11371 0.66648 0.92961 0.0
H54 H 0.05071 0.7829 0.87781 0.0
H55 H 0.98162 0.67916 0.87708 0.0
C56 C 0.01122 0.65801 0.8901 0.0
O57 O 0.06133 0.68091 0.88972 0.0
H58 H 0.99709 0.66214 0.90616 0.0
C59 C 0.11564 0.80284 0.92918 0.0
C60 C 0.08851 0.8162 0.9078 0.0
C61 C 0.12526 0.74901 0.93718 0.0
C62 C 0.10697 0.70812 0.92367 0.0
C63 C 0.07953 0.72067 0.90247 0.0
C64 C 0.071 0.77431 0.89447 0.0
H65 H 0.5791 0.84483 0.19105 0.0
H66 H 0.75185 0.83065 0.2 0.0
H67 H 0.66111 0.82584 0.13555 0.0
H68 H 0.74505 0.74464 0.14802 0.0
C69 C 0.77625 0.76837 0.15778 0.0
O70 O 0.75747 0.81984 0.15868 0.0
H71 H 0.78508 0.74869 0.17473 0.0
C72 C 0.61606 0.84308 0.184 0.0
C73 C 0.61356 0.83701 0.16141 0.0
C74 C 0.66573 0.84065 0.19802 0.0
C75 C 0.71344 0.83411 0.18926 0.0
C76 C 0.7116 0.82936 0.16675 0.0
C77 C 0.66195 0.83128 0.15284 0.0
H78 H 0.55415 0.34542 0.45458 0.0
H79 H 0.54756 0.17807 0.44202 0.0
H80 H 0.51216 0.29778 0.38855 0.0
H81 H 0.44993 0.1969 0.37955 0.0
C82 C 0.47439 0.17058 0.39262 0.0
O83 O 0.52264 0.19532 0.39954 0.0
H84 H 0.45129 0.16322 0.4066 0.0
C85 C 0.54683 0.31433 0.44322 0.0
C86 C 0.53177 0.32868 0.42064 0.0
C87 C 0.55255 0.25996 0.45118 0.0
C88 C 0.54321 0.22006 0.43627 0.0
C89 C 0.52812 0.23391 0.41384 0.0
C90 C 0.52256 0.28786 0.40607 0.0
H91 H 0.09066 0.31864 0.69 0.0
H92 H 0.26361 0.30982 0.69683 0.0
H93 H 0.16671 0.25015 0.64059 0.0
H94 H 0.27337 0.18305 0.66108 0.0
C95 C 0.29288 0.21778 0.66921 0.0
O96 O 0.26532 0.26406 0.66043 0.0
H97 H 0.29192 0.21143 0.68719 0.0
C98 C 0.12695 0.31061 0.68318 0.0
C99 C 0.12243 0.28618 0.66329 0.0
C100 C 0.17756 0.31817 0.69568 0.0
C101 C 0.2242 0.30478 0.68729 0.0
C102 C 0.22016 0.28034 0.66747 0.0
C103 C 0.16942 0.27062 0.65555 0.0
Zn104 Zn 0.24676 0.6791 0.14255 0.0
Zn105 Zn 0.12724 0.79266 0.08933 0.0
Zn106 Zn 0.18775 0.7357 0.11317 0.0
C107 C 0.16893 0.72424 0.06346 0.0
C108 C 0.20034 0.86142 0.10675 0.0
O109 O 0.14709 0.72912 0.14245 0.0
O110 O 0.21022 0.69246 0.16803 0.0
C111 C 0.21758 0.61208 0.10918 0.0
O112 O 0.17724 0.69648 0.08208 0.0
O113 O 0.15433 0.77263 0.06257 0.0
O114 O 0.14999 0.86189 0.10097 0.0
O115 O 0.22617 0.81631 0.10937 0.0
O116 O 0.23581 0.61035 0.12941 0.0
O117 O 0.20012 0.65711 0.09896 0.0
O118 O 0.26477 0.77984 0.12006 0.0
O119 O 0.31561 0.71578 0.13933 0.0
C120 C 0.31126 0.76193 0.12946 0.0
O121 O 0.10746 0.74114 0.1249 0.0
O122 O 0.05495 0.76819 0.09419 0.0
C123 C 0.16443 0.71447 0.16275 0.0
C124 C 0.05979 0.75055 0.11406 0.0
Zn125 Zn 0.52601 0.70234 0.33506 0.0
Zn126 Zn 0.65082 0.81511 0.38971 0.0
Zn127 Zn 0.58805 0.75726 0.36432 0.0
C128 C 0.55976 0.87633 0.37706 0.0
C129 C 0.71079 0.79655 0.35811 0.0
O130 O 0.57831 0.67429 0.37981 0.0
O131 O 0.52867 0.63357 0.35333 0.0
C132 C 0.46371 0.78753 0.34514 0.0
O133 O 0.54358 0.83169 0.36928 0.0
O134 O 0.60787 0.88136 0.38602 0.0
O135 O 0.7164 0.81693 0.37634 0.0
O136 O 0.66543 0.775 0.35069 0.0
O137 O 0.46076 0.74819 0.3334 0.0
O138 O 0.50814 0.79799 0.35744 0.0
O139 O 0.62565 0.75781 0.3342 0.0
O140 O 0.5706 0.71161 0.31116 0.0
C141 C 0.61275 0.73895 0.31529 0.0
O142 O 0.60607 0.70709 0.39512 0.0
O143 O 0.64956 0.76604 0.41615 0.0
C144 C 0.55402 0.63203 0.37266 0.0
C145 C 0.62954 0.72012 0.41393 0.0
Zn146 Zn 0.59412 0.35825 0.58972 0.0
Zn147 Zn 0.72763 0.16447 0.65385 0.0
Zn148 Zn 0.68332 0.23147 0.62355 0.0
C149 C 0.81061 0.22904 0.64138 0.0
C150 C 0.68052 0.10726 0.61769 0.0
O151 O 0.60748 0.27255 0.63238 0.0
O152 O 0.55669 0.3445 0.6163 0.0
C153 C 0.71154 0.33281 0.60792 0.0
O154 O 0.76944 0.25405 0.63022 0.0
O155 O 0.80427 0.18622 0.6529 0.0
O156 O 0.70138 0.10227 0.63768 0.0
O157 O 0.67161 0.1544 0.6079 0.0
O158 O 0.66349 0.32021 0.60145 0.0
O159 O 0.7416 0.29503 0.6178 0.0
O160 O 0.65171 0.19914 0.59203 0.0
O161 O 0.62467 0.28092 0.59111 0.0
C162 C 0.62481 0.23831 0.58125 0.0
O163 O 0.64216 0.24068 0.65133 0.0
O164 O 0.68804 0.18702 0.67755 0.0
C165 C 0.56728 0.30621 0.63136 0.0
C166 C 0.6511 0.2215 0.67143 0.0
Zn167 Zn 0.03476 0.2048 0.83287 0.0
Zn168 Zn 0.20665 0.35003 0.91207 0.0
Zn169 Zn 0.09491 0.25294 0.86176 0.0
C170 C 0.15694 0.23184 0.90558 0.0
C171 C 0.08621 0.35064 0.88444 0.0
O172 O 0.13523 0.26232 0.83285 0.0
O173 O 0.07667 0.22456 0.80826 0.0
C174 C 0.07398 0.12893 0.86887 0.0
O175 O 0.12601 0.20486 0.89209 0.0
O176 O 0.16428 0.28105 0.89955 0.0
O177 O 0.13348 0.33142 0.89135 0.0
O178 O 0.05525 0.32324 0.87114 0.0
O179 O 0.04637 0.13304 0.84989 0.0
O180 O 0.09585 0.17078 0.8772 0.0
O181 O 0.01481 0.29388 0.85885 0.0
O182 O 0.96726 0.24561 0.83436 0.0
C183 C 0.96966 0.28286 0.84717 0.0
O184 O 0.16952 0.28285 0.84979 0.0
O185 O 0.18469 0.31784 0.88115 0.0
C186 C 0.12028 0.24928 0.81318 0.0
C187 C 0.20188 0.30839 0.86333 0.0
H188 H 0.18097 0.40269 0.05717 0.0
H189 H 0.28823 0.3382 0.11431 0.0
H190 H 0.2972 0.42711 0.12828 0.0
H191 H 0.27188 0.52125 0.12511 0.0
H192 H 0.1622 0.58736 0.06909 0.0
H193 H 0.15739 0.4998 0.05348 0.0
C194 C 0.20661 0.40836 0.07258 0.0
C195 C 0.2343 0.36408 0.08469 0.0
C196 C 0.21109 0.45966 0.08062 0.0
C197 C 0.26698 0.37177 0.1047 0.0
C198 C 0.27198 0.4225 0.11268 0.0
C199 C 0.2469 0.51687 0.10942 0.0
C200 C 0.21715 0.56107 0.09827 0.0
C201 C 0.24381 0.46648 0.10089 0.0
C202 C 0.18568 0.55433 0.07788 0.0
C203 C 0.18272 0.5041 0.06908 0.0
H204 H 0.9179 0.74103 0.31755 0.0
H205 H 0.97615 0.87912 0.35136 0.0
H206 H 0.88616 0.89504 0.36042 0.0
H207 H 0.79385 0.86522 0.36149 0.0
H208 H 0.73602 0.72373 0.33004 0.0
H209 H 0.82231 0.7144 0.31658 0.0
C210 C 0.91058 0.7748 0.32674 0.0
C211 C 0.95349 0.80865 0.33405 0.0
C212 C 0.85887 0.78318 0.33213 0.0
C213 C 0.94366 0.85249 0.34577 0.0
C214 C 0.89234 0.86153 0.35092 0.0
C215 C 0.79982 0.83268 0.35143 0.0
C216 C 0.75842 0.79538 0.34662 0.0
C217 C 0.85004 0.8265 0.34458 0.0
C218 C 0.7667 0.75365 0.33351 0.0
C219 C 0.81639 0.74787 0.32613 0.0
H220 H 0.75842 0.56368 0.57145 0.0
H221 H 0.63451 0.59935 0.60966 0.0
H222 H 0.63903 0.50719 0.62622 0.0
H223 H 0.6666 0.4137 0.62455 0.0
H224 H 0.79055 0.37699 0.58663 0.0
H225 H 0.79862 0.47263 0.57536 0.0
C226 C 0.73364 0.55144 0.58389 0.0
C227 C 0.69578 0.58771 0.58924 0.0
C228 C 0.73612 0.4983 0.59312 0.0
C229 C 0.66396 0.57197 0.6054 0.0
C230 C 0.66623 0.51925 0.6147 0.0
C231 C 0.69656 0.42708 0.61439 0.0
C232 C 0.72778 0.38907 0.60624 0.0
C233 C 0.70043 0.48165 0.60794 0.0
C234 C 0.76646 0.40605 0.5931 0.0
C235 C 0.77062 0.46052 0.58654 0.0
H236 H 0.72644 0.30626 0.85296 0.0
H237 H 0.73151 0.39843 0.79141 0.0
H238 H 0.82978 0.39769 0.79836 0.0
H239 H 0.91331 0.35584 0.81837 0.0
H240 H 0.90978 0.2639 0.87987 0.0
H241 H 0.81256 0.2804 0.87689 0.0
C242 C 0.74909 0.32775 0.84147 0.0
C243 C 0.72165 0.35135 0.82146 0.0
C244 C 0.80607 0.32669 0.84548 0.0
C245 C 0.75167 0.37907 0.80674 0.0
C246 C 0.80795 0.37858 0.81067 0.0
C247 C 0.89154 0.34154 0.83155 0.0
C248 C 0.91849 0.30921 0.8494 0.0
C249 C 0.83555 0.35035 0.82946 0.0
C250 C 0.88988 0.28976 0.86619 0.0
C251 C 0.83414 0.29858 0.86431 0.0
H252 H 0.06945 0.58147 0.91676 0.0
H253 H 0.9605 0.60374 0.85577 0.0
H254 H 0.96946 0.50873 0.84975 0.0
H255 H 0.01306 0.42058 0.86081 0.0
H256 H 0.12624 0.40052 0.92083 0.0
H257 H 0.11056 0.49301 0.92842 0.0
C258 C 0.0476 0.56527 0.90222 0.0
C259 C 0.01464 0.59928 0.88669 0.0
C260 C 0.0537 0.51103 0.89873 0.0
C261 C 0.98626 0.57816 0.86791 0.0
C262 C 0.99136 0.52392 0.86448 0.0
C263 C 0.03356 0.43633 0.87571 0.0
C264 C 0.07084 0.40397 0.89022 0.0
C265 C 0.02552 0.49011 0.87965 0.0
C266 C 0.09763 0.42487 0.90935 0.0
C267 C 0.08876 0.47775 0.91368 0.0
H268 H 0.87255 0.71629 0.17173 0.0
H269 H 0.79002 0.82203 0.11899 0.0
H270 H 0.8701 0.82491 0.10073 0.0
H271 H 0.96348 0.7989 0.10015 0.0
H272 H 0.04568 0.6897 0.15173 0.0
H273 H 0.96597 0.68698 0.17029 0.0
C274 C 0.87237 0.7401 0.15629 0.0
C275 C 0.82605 0.76991 0.14689 0.0
C276 C 0.9184 0.74109 0.14581 0.0
C277 C 0.82569 0.79967 0.12667 0.0
C278 C 0.8713 0.80115 0.11623 0.0
C279 C 0.96398 0.77416 0.11539 0.0
C280 C 0.01095 0.74547 0.12483 0.0
C281 C 0.91787 0.77221 0.1257 0.0
C282 C 0.01066 0.71344 0.14449 0.0
C283 C 0.96491 0.71154 0.15499 0.0
H284 H 0.59953 0.41257 0.43077 0.0
H285 H 0.45008 0.3733 0.39096 0.0
H286 H 0.44244 0.46457 0.37392 0.0
H287 H 0.48033 0.55349 0.3686 0.0
H288 H 0.63085 0.59414 0.40701 0.0
H289 H 0.63531 0.50505 0.4268 0.0
C290 C 0.56494 0.4243 0.4186 0.0
C291 C 0.52569 0.38589 0.41198 0.0
C292 C 0.56095 0.47711 0.40868 0.0
C293 C 0.48128 0.4017 0.39609 0.0
C294 C 0.47677 0.45396 0.38639 0.0
C295 C 0.51403 0.54309 0.38142 0.0
C296 C 0.55512 0.58061 0.38642 0.0
C297 C 0.51678 0.49164 0.39225 0.0
C298 C 0.5982 0.5665 0.40317 0.0
C299 C 0.60102 0.51527 0.41428 0.0
H300 H 0.03284 0.34848 0.65149 0.0
H301 H 0.09103 0.18608 0.65328 0.0
H302 H 0.99855 0.15415 0.64511 0.0
H303 H 0.90134 0.17125 0.64225 0.0
H304 H 0.84223 0.33357 0.63934 0.0
H305 H 0.93488 0.36699 0.64313 0.0
C306 C 0.02509 0.30631 0.64954 0.0
C307 C 0.0684 0.26957 0.65307 0.0
C308 C 0.97181 0.28824 0.64507 0.0
C309 C 0.05826 0.21506 0.65045 0.0
C310 C 1.00541 0.19675 0.64604 0.0
C311 C 0.90886 0.21398 0.64224 0.0
C312 C 0.86545 0.24992 0.64099 0.0
C313 C 0.96193 0.23275 0.64411 0.0
C314 C 0.87525 0.30522 0.64046 0.0
C315 C 0.92813 0.32427 0.64266 0.0
H316 H 0.35802 0.30449 0.67448 0.0
H317 H 0.3579 0.14074 0.65733 0.0
H318 H 0.44942 0.15111 0.64838 0.0
H319 H 0.52323 0.21064 0.64031 0.0
H320 H 0.51778 0.37724 0.65309 0.0
H321 H 0.43518 0.36205 0.66928 0.0
C322 C 0.37822 0.27111 0.66883 0.0
C323 C 0.35084 0.22253 0.66576 0.0
C324 C 0.42979 0.27802 0.663 0.0
C325 C 0.37784 0.17893 0.65919 0.0
C326 C 0.43008 0.18484 0.65413 0.0
C327 C 0.50463 0.24314 0.64723 0.0
C328 C 0.52614 0.29489 0.64563 0.0
C329 C 0.45564 0.23473 0.65524 0.0
C330 C 0.50154 0.33711 0.65422 0.0
C331 C 0.4543 0.32848 0.66331 0.0
H332 H 0.51826 0.89201 0.15928 0.0
H333 H 0.58981 0.7579 0.13388 0.0
H334 H 0.50099 0.72803 0.11818 0.0
H335 H 0.40331 0.73092 0.11731 0.0
H336 H 0.32958 0.86311 0.14269 0.0
H337 H 0.41862 0.90341 0.1525 0.0
C338 C 0.51431 0.8569 0.14991 0.0
C339 C 0.56065 0.82695 0.14797 0.0
C340 C 0.46272 0.83934 0.14114 0.0
C341 C 0.55504 0.78194 0.13554 0.0
C342 C 0.50413 0.76447 0.12671 0.0
C343 C 0.40677 0.76939 0.1244 0.0
C344 C 0.36053 0.79397 0.1295 0.0
C345 C 0.45778 0.79156 0.1302 0.0
C346 C 0.36491 0.84377 0.13858 0.0
C347 C 0.41581 0.8664 0.14438 0.0
H348 H 0.45196 0.35206 0.8709 0.0
H349 H 0.43423 0.2576 0.81486 0.0
H350 H 0.33622 0.25509 0.81431 0.0
H351 H 0.25653 0.27378 0.83178 0.0
H352 H 0.27542 0.36751 0.88822 0.0
H353 H 0.37153 0.37648 0.88658 0.0
C354 C 0.42649 0.33127 0.85851 0.0
C355 C 0.45021 0.30417 0.8432 0.0
C356 C 0.37034 0.32962 0.85846 0.0
C357 C 0.41679 0.27808 0.82698 0.0
C358 C 0.36084 0.27662 0.8267 0.0
C359 C 0.2815 0.29684 0.84351 0.0
C360 C 0.25863 0.31954 0.86022 0.0
C361 C 0.33723 0.30135 0.84264 0.0
C362 C 0.2918 0.34919 0.8753 0.0
C363 C 0.34694 0.35433 0.8744 0.0
H364 H 0.22095 0.81948 0.34521 0.0
H365 H 0.23514 0.90081 0.28228 0.0
H366 H 0.3331 0.90114 0.2917 0.0
H367 H 0.41362 0.85935 0.31415 0.0
H368 H 0.4006 0.77756 0.37695 0.0
H369 H 0.30371 0.79732 0.37166 0.0
C370 C 0.24544 0.83921 0.33398 0.0
C371 C 0.22107 0.85893 0.31289 0.0
C372 C 0.30208 0.83838 0.33938 0.0
C373 C 0.25322 0.88449 0.29846 0.0
C374 C 0.30925 0.88447 0.3038 0.0
C375 C 0.38984 0.84816 0.32706 0.0
C376 C 0.41367 0.81717 0.34586 0.0
C377 C 0.33413 0.85872 0.32365 0.0
C378 C 0.38281 0.802 0.36244 0.0
C379 C 0.32734 0.81272 0.35928 0.0
H380 H 0.60035 0.9099 0.56283 0.0
H381 H 0.67934 0.82499 0.62235 0.0
H382 H 0.70588 0.90993 0.63772 0.0
H383 H 0.70507 1.00665 0.63466 0.0
H384 H 0.62532 0.09483 0.57593 0.0
H385 H 0.60072 1.00986 0.55962 0.0
C386 C 0.62325 0.91028 0.57917 0.0
C387 C 0.63752 0.86146 0.59164 0.0
C388 C 0.63814 0.95947 0.58793 0.0
C389 C 0.66764 0.86217 0.61266 0.0
C390 C 0.68281 0.9106 0.62138 0.0
C391 C 0.68224 1.00779 0.61825 0.0
C392 C 0.66681 0.05731 0.6066 0.0
C393 C 0.668 0.9593 0.60922 0.0
C394 C 0.63771 0.05741 0.58529 0.0
C395 C 0.62355 1.00882 0.57601 0.0
H396 H 0.23605 0.10625 0.09847 0.0
H397 H 0.35375 0.05822 0.05941 0.0
H398 H 0.34392 0.96457 0.07245 0.0
H399 H 0.2897 0.89542 0.08974 0.0
H400 H 0.16898 0.9447 0.12705 0.0
H401 H 0.19355 0.03835 0.1207 0.0
C402 C 0.26084 0.07557 0.09334 0.0
C403 C 0.29473 0.08916 0.07765 0.0
C404 C 0.25422 0.02169 0.10058 0.0
C405 C 0.32636 0.04867 0.07111 0.0
C406 C 0.32085 0.99507 0.07859 0.0
C407 C 0.27034 0.92664 0.09711 0.0
C408 C 0.22745 0.91352 0.1087 0.0
C409 C 0.28312 0.98082 0.09256 0.0
C410 C 0.20206 0.95416 0.118 0.0
C411 C 0.21576 1.00772 0.11422 0.0
H412 H 0.43248 0.07076 0.40118 0.0
H413 H 0.54111 0.15451 0.36276 0.0
H414 H 0.57082 0.06956 0.35139 0.0
H415 H 0.57555 0.97168 0.35688 0.0
H416 H 0.46701 0.88637 0.39464 0.0
H417 H 0.42629 0.97161 0.40139 0.0
C418 C 0.46212 0.07026 0.3901 0.0
C419 C 0.48613 0.1185 0.38342 0.0
C420 C 0.47881 0.02114 0.38354 0.0
C421 C 0.52329 0.11766 0.36856 0.0
C422 C 0.54015 0.06919 0.36202 0.0
C423 C 0.54176 0.97187 0.36598 0.0
C424 C 0.5242 0.9234 0.37536 0.0
C425 C 0.51958 0.02071 0.37003 0.0
C426 C 0.48066 0.9235 0.38717 0.0
C427 C 0.45798 0.9722 0.39123 0.0
H428 H 0.15132 0.90457 0.91673 0.0
H429 H 0.99901 0.85773 0.88087 0.0
H430 H 0.98094 0.95006 0.86651 0.0
H431 H 0.00876 0.04359 0.86323 0.0
H432 H 0.1582 0.09269 0.90022 0.0
H433 H 0.17581 1.00024 0.91579 0.0
C434 C 0.11373 0.91446 0.90606 0.0
C435 C 0.07707 0.87349 0.8997 0.0
C436 C 0.10274 0.96822 0.89823 0.0
C437 C 0.02889 0.88764 0.88561 0.0
C438 C 0.01812 0.94071 0.87755 0.0
C439 C 0.04505 0.03419 0.87484 0.0
C440 C 0.08221 0.07492 0.88051 0.0
C441 C 0.05492 0.98116 0.88358 0.0
C442 C 0.12872 0.06219 0.89573 0.0
C443 C 0.139 1.00923 0.90447 0.0
H444 H 0.2106 0.14161 0.00415 0.0
H445 H 0.32914 0.26688 0.0038 0.0
H446 H 0.30521 0.28326 0.96402 0.0
H447 H 0.24506 0.26796 0.93027 0.0
H448 H 0.12271 0.14657 0.93038 0.0
H449 H 0.15495 0.12104 0.96928 0.0
C450 C 0.23192 0.17166 -0.00474 0.0
C451 C 0.27132 0.20331 0.00683 0.0
C452 C 0.21721 0.1815 0.97245 0.0
C453 C 0.2983 0.24253 -0.00479 0.0
C454 C 0.28468 0.25182 0.97251 0.0
C455 C 0.22552 0.23579 0.93878 0.0
C456 C 0.18101 0.20981 0.92768 0.0
C457 C 0.24322 0.2226 0.96111 0.0
C458 C 0.15706 0.16714 0.93866 0.0
C459 C 0.17521 0.15289 0.96091 0.0
H460 H 0.06687 0.831 0.23395 0.0
H461 H 0.14255 0.69647 0.27452 0.0
H462 H 0.15951 0.65362 0.2419 0.0
H463 H 0.16674 0.6623 0.20275 0.0
H464 H 0.09576 0.79915 0.16208 0.0
H465 H 0.06178 0.83277 0.19359 0.0
C466 C 0.08531 0.79149 0.23545 0.0
C467 C 0.10349 0.76658 0.25636 0.0
C468 C 0.09643 0.76801 0.21665 0.0
C469 C 0.12812 0.71586 0.25842 0.0
C470 C 0.13816 0.69169 0.23983 0.0
C471 C 0.14288 0.69891 0.20073 0.0
C472 C 0.13425 0.72851 0.18027 0.0
C473 C 0.12471 0.71856 0.21898 0.0
C474 C 0.10286 0.77561 0.17772 0.0
C475 C 0.08375 0.79506 0.19576 0.0
H476 H 0.69944 0.6335 0.50953 0.0
H477 H 0.55459 0.7192 0.51602 0.0
H478 H 0.52801 0.72575 0.47619 0.0
H479 H 0.55468 0.72213 0.43986 0.0
H480 H 0.70467 0.64685 0.43326 0.0
H481 H 0.71984 0.61884 0.47263 0.0
C482 C 0.66149 0.6524 0.50216 0.0
C483 C 0.62935 0.67667 0.51546 0.0
C484 C 0.64743 0.65751 0.47924 0.0
C485 C 0.5803 0.70121 0.50592 0.0
C486 C 0.56505 0.70476 0.48321 0.0
C487 C 0.58934 0.69744 0.44699 0.0
C488 C 0.62814 0.68561 0.43394 0.0
C489 C 0.5994 0.68508 0.46971 0.0
C490 C 0.6739 0.6552 0.44314 0.0
C491 C 0.68291 0.64007 0.46565 0.0
H492 H 0.59406 0.35844 0.74527 0.0
H493 H 0.58011 0.2015 0.77752 0.0
H494 H 0.58846 0.16028 0.7434 0.0
H495 H 0.61488 0.1692 0.70637 0.0
H496 H 0.6308 0.32661 0.67461 0.0
H497 H 0.60525 0.36761 0.70622 0.0
C498 C 0.59096 0.31535 0.74449 0.0
C499 C 0.58638 0.28281 0.76364 0.0
C500 C 0.59675 0.29215 0.72498 0.0
C501 C 0.58307 0.22706 0.76278 0.0
C502 C 0.5884 0.20358 0.74338 0.0
C503 C 0.61136 0.21241 0.70623 0.0
C504 C 0.62446 0.24491 0.68824 0.0
C505 C 0.59756 0.23568 0.72466 0.0
C506 C 0.62006 0.30083 0.68816 0.0
C507 C 0.606 0.3243 0.70633 0.0
H508 H 0.09294 0.67663 0.96764 0.0
H509 H 0.21622 0.79303 0.9582 0.0
H510 H 0.2502 0.78431 -0.0025 0.0
H511 H 0.23387 0.75653 0.03477 0.0
H512 H 0.10523 0.64739 0.04455 0.0
H513 H 0.08587 0.63797 0.005 0.0
C514 C 0.12818 0.6989 0.97413 0.0
C515 C 0.15151 0.73614 0.96015 0.0
C516 C 0.1467 0.69458 -0.00316 0.0
C517 C 0.19698 0.76496 0.96875 0.0
C518 C 0.21651 0.75984 0.99118 0.0
C519 C 0.2033 0.72879 0.02823 0.0
C520 C 0.17185 0.70165 0.04245 0.0
C521 C 0.19024 0.72654 0.00545 0.0
C522 C 0.13127 0.66698 0.03396 0.0
C523 C 0.11938 0.66269 0.01128 0.0
H524 H 0.70158 0.75678 0.22614 0.0
H525 H 0.62863 0.91325 0.22301 0.0
H526 H 0.61572 0.89873 0.2616 0.0
H527 H 0.61331 0.83625 0.29422 0.0
H528 H 0.67408 0.67535 0.29513 0.0
H529 H 0.70515 0.69671 0.2597 0.0
C530 C 0.68418 0.7881 0.23417 0.0
C531 C 0.66632 0.83609 0.22201 0.0
C532 C 0.67465 0.77835 0.25591 0.0
C533 C 0.64274 0.87614 0.23224 0.0
C534 C 0.63526 0.86773 0.25421 0.0
C535 C 0.63488 0.8066 0.28686 0.0
C536 C 0.64239 0.7547 0.29716 0.0
C537 C 0.64942 0.81831 0.26596 0.0
C538 C 0.66874 0.71573 0.28743 0.0
C539 C 0.68602 0.72785 0.26717 0.0
H540 H 0.51156 0.29869 0.48507 0.0
H541 H 0.62888 0.18643 0.47064 0.0
H542 H 0.65726 0.16375 0.50995 0.0
H543 H 0.6536 0.18159 0.54864 0.0
H544 H 0.53751 0.29623 0.56234 0.0
H545 H 0.50335 0.31158 0.5233 0.0
C546 C 0.54339 0.26933 0.49055 0.0
C547 C 0.56846 0.24476 0.475 0.0
C548 C 0.55956 0.25666 0.51311 0.0
C549 C 0.6089 0.20591 0.48232 0.0
C550 C 0.62522 0.19299 0.50479 0.0
C551 C 0.62 0.20887 0.54303 0.0
C552 C 0.59818 0.23786 0.55828 0.0
C553 C 0.60136 0.21866 0.52038 0.0
C554 C 0.55509 0.27365 0.55086 0.0
C555 C 0.53569 0.28268 0.52853 0.0
H556 H 0.2328 0.26022 0.73036 0.0
H557 H 0.12497 0.39576 0.7133 0.0
H558 H 0.10444 0.39146 0.75087 0.0
H559 H 0.10275 0.33715 0.78568 0.0
H560 H 0.20561 0.19805 0.80174 0.0
H561 H 0.24348 0.21587 0.76754 0.0
C562 C 0.20661 0.29023 0.73512 0.0
C563 C 0.17988 0.32789 0.71912 0.0
C564 C 0.19333 0.28597 0.75642 0.0
C565 C 0.14557 0.36619 0.72539 0.0
C566 C 0.13352 0.36342 0.74678 0.0
C567 C 0.13459 0.31185 0.78185 0.0
C568 C 0.15144 0.26632 0.79578 0.0
C569 C 0.1548 0.32161 0.762 0.0
C570 C 0.19234 0.23326 0.79099 0.0
C571 C 0.2137 0.24337 0.77148 0.0
loop_
_geom_bond_atom_site_label_1
_geom_bond_atom_site_label_2
_geom_bond_distance
_geom_bond_site_symmetry_2
_ccdc_geom_bond_type
H0 C7 0.929 . S
H1 C10 0.930 . S
H2 C12 0.929 . S
H3 C4 0.969 . S
C4 H3 0.969 . S
C4 O5 1.550 . S
C4 H6 0.973 . S
O5 C4 1.550 . S
O5 C11 1.412 . S
H6 C4 0.973 . S
C7 H0 0.929 . S
C7 C8 1.400 . S
C7 C9 1.364 . S
C8 C7 1.400 . S
C8 C12 1.377 . S
C9 C7 1.364 . S
C9 C10 1.374 . S
C10 H1 0.930 . S
C10 C9 1.374 . S
C10 C11 1.383 . S
C11 O5 1.412 . S
C11 C10 1.383 . S
C11 C12 1.394 . S
C12 H2 0.929 . S
C12 C8 1.377 . S
C12 C11 1.394 . S
H13 C20 0.929 . S
H14 C23 0.930 . S
H15 C25 0.929 . S
H16 C17 0.969 . S
C17 H16 0.969 . S
C17 O18 1.550 1_655 S
C17 H19 0.973 . S
O18 C17 1.550 1_455 S
O18 C24 1.412 . S
H19 C17 0.973 . S
C20 H13 0.929 . S
C20 C21 1.400 . S
C20 C22 1.364 . S
C21 C20 1.400 . S
C21 C25 1.377 . S
C22 C20 1.364 . S
C22 C23 1.374 . S
C23 H14 0.930 . S
C23 C22 1.374 . S
C23 C24 1.383 . S
C24 O18 1.412 . S
C24 C23 1.383 . S
C24 C25 1.394 . S
C25 H15 0.929 . S
C25 C21 1.377 . S
C25 C24 1.394 . S
H26 C33 0.929 . S
H27 C36 0.930 . S
H28 C38 0.929 . S
H29 C30 0.969 . S
C30 H29 0.969 . S
C30 O31 1.550 . S
C30 H32 0.973 . S
O31 C30 1.550 . S
O31 C37 1.412 . S
H32 C30 0.973 . S
C33 H26 0.929 . S
C33 C34 1.400 . S
C33 C35 1.364 . S
C34 C33 1.400 . S
C34 C38 1.377 . S
C35 C33 1.364 . S
C35 C36 1.374 . S
C36 H27 0.930 . S
C36 C35 1.374 . S
C36 C37 1.383 . S
C37 O31 1.412 . S
C37 C36 1.383 . S
C37 C38 1.394 . S
C38 H28 0.929 . S
C38 C34 1.377 . S
C38 C37 1.394 . S
H39 C46 0.929 . S
H40 C49 0.930 . S
H41 C51 0.929 . S
H42 C43 0.969 . S
C43 H42 0.969 . S
C43 O44 1.550 . S
C43 H45 0.973 . S
O44 C43 1.550 . S
O44 C50 1.412 . S
H45 C43 0.973 . S
C46 H39 0.929 . S
C46 C47 1.400 . S
C46 C48 1.364 . S
C47 C46 1.400 . S
C47 C51 1.377 . S
C48 C46 1.364 . S
C48 C49 1.374 . S
C49 H40 0.930 . S
C49 C48 1.374 . S
C49 C50 1.383 . S
C50 O44 1.412 . S
C50 C49 1.383 . S
C50 C51 1.394 . S
C51 H41 0.929 . S
C51 C47 1.377 . S
C51 C50 1.394 . S
H52 C59 0.929 . S
H53 C62 0.930 . S
H54 C64 0.929 . S
H55 C56 0.969 1_655 S
C56 H55 0.969 1_455 S
C56 O57 1.550 . S
C56 H58 0.973 . S
O57 C56 1.550 . S
O57 C63 1.412 . S
H58 C56 0.973 . S
C59 H52 0.929 . S
C59 C60 1.400 . S
C59 C61 1.364 . S
C60 C59 1.400 . S
C60 C64 1.377 . S
C61 C59 1.364 . S
C61 C62 1.374 . S
C62 H53 0.930 . S
C62 C61 1.374 . S
C62 C63 1.383 . S
C63 O57 1.412 . S
C63 C62 1.383 . S
C63 C64 1.394 . S
C64 H54 0.929 . S
C64 C60 1.377 . S
C64 C63 1.394 . S
H65 C72 0.929 . S
H66 C75 0.930 . S
H67 C77 0.929 . S
H68 C69 0.969 . S
C69 H68 0.969 . S
C69 O70 1.550 . S
C69 H71 0.973 . S
O70 C69 1.550 . S
O70 C76 1.412 . S
H71 C69 0.973 . S
C72 H65 0.929 . S
C72 C73 1.400 . S
C72 C74 1.364 . S
C73 C72 1.400 . S
C73 C77 1.377 . S
C74 C72 1.364 . S
C74 C75 1.374 . S
C75 H66 0.930 . S
C75 C74 1.374 . S
C75 C76 1.383 . S
C76 O70 1.412 . S
C76 C75 1.383 . S
C76 C77 1.394 . S
C77 H67 0.929 . S
C77 C73 1.377 . S
C77 C76 1.394 . S
H78 C85 0.929 . S
H79 C88 0.930 . S
H80 C90 0.929 . S
H81 C82 0.969 . S
C82 H81 0.969 . S
C82 O83 1.550 . S
C82 H84 0.973 . S
O83 C82 1.550 . S
O83 C89 1.412 . S
H84 C82 0.973 . S
C85 H78 0.929 . S
C85 C86 1.400 . S
C85 C87 1.364 . S
C86 C85 1.400 . S
C86 C90 1.377 . S
C87 C85 1.364 . S
C87 C88 1.374 . S
C88 H79 0.930 . S
C88 C87 1.374 . S
C88 C89 1.383 . S
C89 O83 1.412 . S
C89 C88 1.383 . S
C89 C90 1.394 . S
C90 H80 0.929 . S
C90 C86 1.377 . S
C90 C89 1.394 . S
H91 C98 0.929 . S
H92 C101 0.930 . S
H93 C103 0.929 . S
H94 C95 0.969 . S
C95 H94 0.969 . S
C95 O96 1.550 . S
C95 H97 0.973 . S
O96 C95 1.550 . S
O96 C102 1.412 . S
H97 C95 0.973 . S
C98 H91 0.929 . S
C98 C99 1.400 . S
C98 C100 1.364 . S
C99 C98 1.400 . S
C99 C103 1.377 . S
C100 C98 1.364 . S
C100 C101 1.374 . S
C101 H92 0.930 . S
C101 C100 1.374 . S
C101 C102 1.383 . S
C102 O96 1.412 . S
C102 C101 1.383 . S
C102 C103 1.394 . S
C103 H93 0.929 . S
C103 C99 1.377 . S
C103 C102 1.394 . S
Zn104 O110 1.920 . S
Zn104 O116 1.898 . S
Zn104 O119 1.905 . S
Zn105 O113 1.905 . S
Zn105 O114 1.898 . S
Zn105 O122 1.920 . S
Zn106 O109 2.080 . S
Zn106 O112 2.114 . S
Zn106 O115 2.120 . S
Zn106 O117 2.120 . S
Zn106 O118 2.114 . S
Zn106 O121 2.080 . S
C107 O112 1.166 . S
C107 O113 1.182 . S
C108 O114 1.167 . S
C108 O115 1.299 . S
O109 Zn106 2.080 . S
O109 C123 1.305 . S
O110 Zn104 1.920 . S
O110 C123 1.234 . S
C111 O116 1.167 . S
C111 O117 1.299 . S
O112 Zn106 2.114 . S
O112 C107 1.166 . S
O113 Zn105 1.905 . S
O113 C107 1.182 . S
O114 Zn105 1.898 . S
O114 C108 1.167 . S
O115 Zn106 2.120 . S
O115 C108 1.299 . S
O116 Zn104 1.898 . S
O116 C111 1.167 . S
O117 Zn106 2.120 . S
O117 C111 1.299 . S
O118 Zn106 2.114 . S
O118 C120 1.166 . S
O119 Zn104 1.905 . S
O119 C120 1.182 . S
C120 O118 1.166 . S
C120 O119 1.182 . S
O121 Zn106 2.080 . S
O121 C124 1.305 . S
O122 Zn105 1.920 . S
O122 C124 1.234 . S
C123 O109 1.305 . S
C123 O110 1.234 . S
C124 O121 1.305 . S
C124 O122 1.234 . S
Zn125 O131 1.920 . S
Zn125 O137 1.898 . S
Zn125 O140 1.905 . S
Zn126 O134 1.905 . S
Zn126 O135 1.898 . S
Zn126 O143 1.920 . S
Zn127 O130 2.080 . S
Zn127 O133 2.114 . S
Zn127 O136 2.120 . S
Zn127 O138 2.120 . S
Zn127 O139 2.114 . S
Zn127 O142 2.080 . S
C128 O133 1.166 . S
C128 O134 1.182 . S
C129 O135 1.167 . S
C129 O136 1.299 . S
O130 Zn127 2.080 . S
O130 C144 1.305 . S
O131 Zn125 1.920 . S
O131 C144 1.234 . S
C132 O137 1.167 . S
C132 O138 1.299 . S
O133 Zn127 2.114 . S
O133 C128 1.166 . S
O134 Zn126 1.905 . S
O134 C128 1.182 . S
O135 Zn126 1.898 . S
O135 C129 1.167 . S
O136 Zn127 2.120 . S
O136 C129 1.299 . S
O137 Zn125 1.898 . S
O137 C132 1.167 . S
O138 Zn127 2.120 . S
O138 C132 1.299 . S
O139 Zn127 2.114 . S
O139 C141 1.166 . S
O140 Zn125 1.905 . S
O140 C141 1.182 . S
C141 O139 1.166 . S
C141 O140 1.182 . S
O142 Zn127 2.080 . S
O142 C145 1.305 . S
O143 Zn126 1.920 . S
O143 C145 1.234 . S
C144 O130 1.305 . S
C144 O131 1.234 . S
C145 O142 1.305 . S
C145 O143 1.234 . S
Zn146 O152 1.920 . S
Zn146 O158 1.898 . S
Zn146 O161 1.905 . S
Zn147 O155 1.905 . S
Zn147 O156 1.898 . S
Zn147 O164 1.920 . S
Zn148 O151 2.080 . S
Zn148 O154 2.114 . S
Zn148 O157 2.120 . S
Zn148 O159 2.120 . S
Zn148 O160 2.114 . S
Zn148 O163 2.080 . S
C149 O154 1.166 . S
C149 O155 1.182 . S
C150 O156 1.167 . S
C150 O157 1.299 . S
O151 Zn148 2.080 . S
O151 C165 1.305 . S
O152 Zn146 1.920 . S
O152 C165 1.234 . S
C153 O158 1.167 . S
C153 O159 1.299 . S
O154 Zn148 2.114 . S
O154 C149 1.166 . S
O155 Zn147 1.905 . S
O155 C149 1.182 . S
O156 Zn147 1.898 . S
O156 C150 1.167 . S
O157 Zn148 2.120 . S
O157 C150 1.299 . S
O158 Zn146 1.898 . S
O158 C153 1.167 . S
O159 Zn148 2.120 . S
O159 C153 1.299 . S
O160 Zn148 2.114 . S
O160 C162 1.166 . S
O161 Zn146 1.905 . S
O161 C162 1.182 . S
C162 O160 1.166 . S
C162 O161 1.182 . S
O163 Zn148 2.080 . S
O163 C166 1.305 . S
O164 Zn147 1.920 . S
O164 C166 1.234 . S
C165 O151 1.305 . S
C165 O152 1.234 . S
C166 O163 1.305 . S
C166 O164 1.234 . S
Zn167 O173 1.920 . S
Zn167 O179 1.898 . S
Zn167 O182 1.905 1_455 S
Zn168 O176 1.905 . S
Zn168 O177 1.898 . S
Zn168 O185 1.920 . S
Zn169 O172 2.080 . S
Zn169 O175 2.114 . S
Zn169 O178 2.120 . S
Zn169 O180 2.120 . S
Zn169 O181 2.114 . S
Zn169 O184 2.080 . S
C170 O175 1.166 . S
C170 O176 1.182 . S
C171 O177 1.167 . S
C171 O178 1.299 . S
O172 Zn169 2.080 . S
O172 C186 1.305 . S
O173 Zn167 1.920 . S
O173 C186 1.234 . S
C174 O179 1.167 . S
C174 O180 1.299 . S
O175 Zn169 2.114 . S
O175 C170 1.166 . S
O176 Zn168 1.905 . S
O176 C170 1.182 . S
O177 Zn168 1.898 . S
O177 C171 1.167 . S
O178 Zn169 2.120 . S
O178 C171 1.299 . S
O179 Zn167 1.898 . S
O179 C174 1.167 . S
O180 Zn169 2.120 . S
O180 C174 1.299 . S
O181 Zn169 2.114 . S
O181 C183 1.166 1_455 S
O182 Zn167 1.905 1_655 S
O182 C183 1.182 . S
C183 O181 1.166 1_655 S
C183 O182 1.182 . S
O184 Zn169 2.080 . S
O184 C187 1.305 . S
O185 Zn168 1.920 . S
O185 C187 1.234 . S
C186 O172 1.305 . S
C186 O173 1.234 . S
C187 O184 1.305 . S
C187 O185 1.234 . S
H188 C194 0.930 . S
H189 C197 0.930 . S
H190 C198 0.930 . S
H191 C199 0.930 . S
H192 C202 0.930 . S
H193 C203 0.930 . S
C194 H188 0.930 . S
C194 C195 1.355 . S
C194 C196 1.415 . S
C195 C194 1.355 . S
C195 C197 1.419 . S
C196 C194 1.415 . S
C196 C201 1.425 . S
C196 C203 1.409 . S
C197 H189 0.930 . S
C197 C195 1.419 . S
C197 C198 1.362 . S
C198 H190 0.930 . S
C198 C197 1.362 . S
C198 C201 1.409 . S
C199 H191 0.930 . S
C199 C200 1.355 . S
C199 C201 1.415 . S
C200 C199 1.355 . S
C200 C202 1.419 . S
C201 C196 1.425 . S
C201 C198 1.409 . S
C201 C199 1.415 . S
C202 H192 0.930 . S
C202 C200 1.419 . S
C202 C203 1.362 . S
C203 H193 0.930 . S
C203 C196 1.409 . S
C203 C202 1.362 . S
H204 C210 0.930 . S
H205 C213 0.930 . S
H206 C214 0.930 . S
H207 C215 0.930 . S
H208 C218 0.930 . S
H209 C219 0.930 . S
C210 H204 0.930 . S
C210 C211 1.355 . S
C210 C212 1.415 . S
C211 C210 1.355 . S
C211 C213 1.419 . S
C212 C210 1.415 . S
C212 C217 1.425 . S
C212 C219 1.409 . S
C213 H205 0.930 . S
C213 C211 1.419 . S
C213 C214 1.362 . S
C214 H206 0.930 . S
C214 C213 1.362 . S
C214 C217 1.409 . S
C215 H207 0.930 . S
C215 C216 1.355 . S
C215 C217 1.415 . S
C216 C215 1.355 . S
C216 C218 1.419 . S
C217 C212 1.425 . S
C217 C214 1.409 . S
C217 C215 1.415 . S
C218 H208 0.930 . S
C218 C216 1.419 . S
C218 C219 1.362 . S
C219 H209 0.930 . S
C219 C212 1.409 . S
C219 C218 1.362 . S
H220 C226 0.930 . S
H221 C229 0.930 . S
H222 C230 0.930 . S
H223 C231 0.930 . S
H224 C234 0.930 . S
H225 C235 0.930 . S
C226 H220 0.930 . S
C226 C227 1.355 . S
C226 C228 1.415 . S
C227 C226 1.355 . S
C227 C229 1.419 . S
C228 C226 1.415 . S
C228 C233 1.425 . S
C228 C235 1.409 . S
C229 H221 0.930 . S
C229 C227 1.419 . S
C229 C230 1.362 . S
C230 H222 0.930 . S
C230 C229 1.362 . S
C230 C233 1.409 . S
C231 H223 0.930 . S
C231 C232 1.355 . S
C231 C233 1.415 . S
C232 C231 1.355 . S
C232 C234 1.419 . S
C233 C228 1.425 . S
C233 C230 1.409 . S
C233 C231 1.415 . S
C234 H224 0.930 . S
C234 C232 1.419 . S
C234 C235 1.362 . S
C235 H225 0.930 . S
C235 C228 1.409 . S
C235 C234 1.362 . S
H236 C242 0.930 . S
H237 C245 0.930 . S
H238 C246 0.930 . S
H239 C247 0.930 . S
H240 C250 0.930 . S
H241 C251 0.930 . S
C242 H236 0.930 . S
C242 C243 1.355 . S
C242 C244 1.415 . S
C243 C242 1.355 . S
C243 C245 1.419 . S
C244 C242 1.415 . S
C244 C249 1.425 . S
C244 C251 1.409 . S
C245 H237 0.930 . S
C245 C243 1.419 . S
C245 C246 1.362 . S
C246 H238 0.930 . S
C246 C245 1.362 . S
C246 C249 1.409 . S
C247 H239 0.930 . S
C247 C248 1.355 . S
C247 C249 1.415 . S
C248 C247 1.355 . S
C248 C250 1.419 . S
C249 C244 1.425 . S
C249 C246 1.409 . S
C249 C247 1.415 . S
C250 H240 0.930 . S
C250 C248 1.419 . S
C250 C251 1.362 . S
C251 H241 0.930 . S
C251 C244 1.409 . S
C251 C250 1.362 . S
H252 C258 0.930 . S
H253 C261 0.930 1_655 S
H254 C262 0.930 1_655 S
H255 C263 0.930 . S
H256 C266 0.930 . S
H257 C267 0.930 . S
C258 H252 0.930 . S
C258 C259 1.355 . S
C258 C260 1.415 . S
C259 C258 1.355 . S
C259 C261 1.419 . S
C260 C258 1.415 . S
C260 C265 1.425 . S
C260 C267 1.409 . S
C261 H253 0.930 1_455 S
C261 C259 1.419 . S
C261 C262 1.362 . S
C262 H254 0.930 1_455 S
C262 C261 1.362 . S
C262 C265 1.409 . S
C263 H255 0.930 . S
C263 C264 1.355 . S
C263 C265 1.415 . S
C264 C263 1.355 . S
C264 C266 1.419 . S
C265 C260 1.425 . S
C265 C262 1.409 . S
C265 C263 1.415 . S
C266 H256 0.930 . S
C266 C264 1.419 . S
C266 C267 1.362 . S
C267 H257 0.930 . S
C267 C260 1.409 . S
C267 C266 1.362 . S
H268 C274 0.930 . S
H269 C277 0.930 . S
H270 C278 0.930 . S
H271 C279 0.930 . S
H272 C282 0.930 1_455 S
H273 C283 0.930 . S
C274 H268 0.930 . S
C274 C275 1.355 . S
C274 C276 1.415 . S
C275 C274 1.355 . S
C275 C277 1.419 . S
C276 C274 1.415 . S
C276 C281 1.425 . S
C276 C283 1.409 . S
C277 H269 0.930 . S
C277 C275 1.419 . S
C277 C278 1.362 . S
C278 H270 0.930 . S
C278 C277 1.362 . S
C278 C281 1.409 . S
C279 H271 0.930 . S
C279 C280 1.355 . S
C279 C281 1.415 . S
C280 C279 1.355 . S
C280 C282 1.419 . S
C281 C276 1.425 . S
C281 C278 1.409 . S
C281 C279 1.415 . S
C282 H272 0.930 1_655 S
C282 C280 1.419 . S
C282 C283 1.362 . S
C283 H273 0.930 . S
C283 C276 1.409 . S
C283 C282 1.362 . S
H284 C290 0.930 . S
H285 C293 0.930 . S
H286 C294 0.930 . S
H287 C295 0.930 . S
H288 C298 0.930 . S
H289 C299 0.930 . S
C290 H284 0.930 . S
C290 C291 1.355 . S
C290 C292 1.415 . S
C291 C290 1.355 . S
C291 C293 1.419 . S
C292 C290 1.415 . S
C292 C297 1.425 . S
C292 C299 1.409 . S
C293 H285 0.930 . S
C293 C291 1.419 . S
C293 C294 1.362 . S
C294 H286 0.930 . S
C294 C293 1.362 . S
C294 C297 1.409 . S
C295 H287 0.930 . S
C295 C296 1.355 . S
C295 C297 1.415 . S
C296 C295 1.355 . S
C296 C298 1.419 . S
C297 C292 1.425 . S
C297 C294 1.409 . S
C297 C295 1.415 . S
C298 H288 0.930 . S
C298 C296 1.419 . S
C298 C299 1.362 . S
C299 H289 0.930 . S
C299 C292 1.409 . S
C299 C298 1.362 . S
H300 C306 0.930 . S
H301 C309 0.930 . S
H302 C310 0.930 . S
H303 C311 0.930 . S
H304 C314 0.930 . S
H305 C315 0.930 . S
C306 H300 0.930 . S
C306 C307 1.355 1_655 S
C306 C308 1.415 . S
C307 C306 1.355 1_455 S
C307 C309 1.419 . S
C308 C306 1.415 . S
C308 C313 1.425 . S
C308 C315 1.409 . S
C309 H301 0.930 . S
C309 C307 1.419 . S
C309 C310 1.362 1_455 S
C310 H302 0.930 . S
C310 C309 1.362 1_655 S
C310 C313 1.409 . S
C311 H303 0.930 . S
C311 C312 1.355 . S
C311 C313 1.415 . S
C312 C311 1.355 . S
C312 C314 1.419 . S
C313 C308 1.425 . S
C313 C310 1.409 . S
C313 C311 1.415 . S
C314 H304 0.930 . S
C314 C312 1.419 . S
C314 C315 1.362 . S
C315 H305 0.930 . S
C315 C308 1.409 . S
C315 C314 1.362 . S
H316 C322 0.930 . S
H317 C325 0.930 . S
H318 C326 0.930 . S
H319 C327 0.930 . S
H320 C330 0.930 . S
H321 C331 0.930 . S
C322 H316 0.930 . S
C322 C323 1.355 . S
C322 C324 1.415 . S
C323 C322 1.355 . S
C323 C325 1.419 . S
C324 C322 1.415 . S
C324 C329 1.425 . S
C324 C331 1.409 . S
C325 H317 0.930 . S
C325 C323 1.419 . S
C325 C326 1.362 . S
C326 H318 0.930 . S
C326 C325 1.362 . S
C326 C329 1.409 . S
C327 H319 0.930 . S
C327 C328 1.355 . S
C327 C329 1.415 . S
C328 C327 1.355 . S
C328 C330 1.419 . S
C329 C324 1.425 . S
C329 C326 1.409 . S
C329 C327 1.415 . S
C330 H320 0.930 . S
C330 C328 1.419 . S
C330 C331 1.362 . S
C331 H321 0.930 . S
C331 C324 1.409 . S
C331 C330 1.362 . S
H332 C338 0.930 . S
H333 C341 0.930 . S
H334 C342 0.930 . S
H335 C343 0.930 . S
H336 C346 0.930 . S
H337 C347 0.930 . S
C338 H332 0.930 . S
C338 C339 1.355 . S
C338 C340 1.415 . S
C339 C338 1.355 . S
C339 C341 1.419 . S
C340 C338 1.415 . S
C340 C345 1.425 . S
C340 C347 1.409 . S
C341 H333 0.930 . S
C341 C339 1.419 . S
C341 C342 1.362 . S
C342 H334 0.930 . S
C342 C341 1.362 . S
C342 C345 1.409 . S
C343 H335 0.930 . S
C343 C344 1.355 . S
C343 C345 1.415 . S
C344 C343 1.355 . S
C344 C346 1.419 . S
C345 C340 1.425 . S
C345 C342 1.409 . S
C345 C343 1.415 . S
C346 H336 0.930 . S
C346 C344 1.419 . S
C346 C347 1.362 . S
C347 H337 0.930 . S
C347 C340 1.409 . S
C347 C346 1.362 . S
H348 C354 0.930 . S
H349 C357 0.930 . S
H350 C358 0.930 . S
H351 C359 0.930 . S
H352 C362 0.930 . S
H353 C363 0.930 . S
C354 H348 0.930 . S
C354 C355 1.355 . S
C354 C356 1.415 . S
C355 C354 1.355 . S
C355 C357 1.419 . S
C356 C354 1.415 . S
C356 C361 1.425 . S
C356 C363 1.409 . S
C357 H349 0.930 . S
C357 C355 1.419 . S
C357 C358 1.362 . S
C358 H350 0.930 . S
C358 C357 1.362 . S
C358 C361 1.409 . S
C359 H351 0.930 . S
C359 C360 1.355 . S
C359 C361 1.415 . S
C360 C359 1.355 . S
C360 C362 1.419 . S
C361 C356 1.425 . S
C361 C358 1.409 . S
C361 C359 1.415 . S
C362 H352 0.930 . S
C362 C360 1.419 . S
C362 C363 1.362 . S
C363 H353 0.930 . S
C363 C356 1.409 . S
C363 C362 1.362 . S
H364 C370 0.930 . S
H365 C373 0.930 . S
H366 C374 0.930 . S
H367 C375 0.930 . S
H368 C378 0.930 . S
H369 C379 0.930 . S
C370 H364 0.930 . S
C370 C371 1.355 . S
C370 C372 1.415 . S
C371 C370 1.355 . S
C371 C373 1.419 . S
C372 C370 1.415 . S
C372 C377 1.425 . S
C372 C379 1.409 . S
C373 H365 0.930 . S
C373 C371 1.419 . S
C373 C374 1.362 . S
C374 H366 0.930 . S
C374 C373 1.362 . S
C374 C377 1.409 . S
C375 H367 0.930 . S
C375 C376 1.355 . S
C375 C377 1.415 . S
C376 C375 1.355 . S
C376 C378 1.419 . S
C377 C372 1.425 . S
C377 C374 1.409 . S
C377 C375 1.415 . S
C378 H368 0.930 . S
C378 C376 1.419 . S
C378 C379 1.362 . S
C379 H369 0.930 . S
C379 C372 1.409 . S
C379 C378 1.362 . S
H380 C386 0.930 . S
H381 C389 0.930 . S
H382 C390 0.930 . S
H383 C391 0.930 . S
H384 C394 0.930 . S
H385 C395 0.930 . S
C386 H380 0.930 . S
C386 C387 1.355 . S
C386 C388 1.415 . S
C387 C386 1.355 . S
C387 C389 1.419 . S
C388 C386 1.415 . S
C388 C393 1.425 1_565 S
C388 C395 1.409 1_565 S
C389 H381 0.930 . S
C389 C387 1.419 . S
C389 C390 1.362 . S
C390 H382 0.930 . S
C390 C389 1.362 . S
C390 C393 1.409 1_565 S
C391 H383 0.930 . S
C391 C392 1.355 . S
C391 C393 1.415 . S
C392 C391 1.355 . S
C392 C394 1.419 . S
C393 C388 1.425 1_545 S
C393 C390 1.409 1_545 S
C393 C391 1.415 . S
C394 H384 0.930 . S
C394 C392 1.419 . S
C394 C395 1.362 . S
C395 H385 0.930 . S
C395 C388 1.409 1_545 S
C395 C394 1.362 . S
H396 C402 0.930 . S
H397 C405 0.930 . S
H398 C406 0.930 . S
H399 C407 0.930 . S
H400 C410 0.930 . S
H401 C411 0.930 . S
C402 H396 0.930 . S
C402 C403 1.355 . S
C402 C404 1.415 . S
C403 C402 1.355 . S
C403 C405 1.419 . S
C404 C402 1.415 . S
C404 C409 1.425 . S
C404 C411 1.409 . S
C405 H397 0.930 . S
C405 C403 1.419 . S
C405 C406 1.362 . S
C406 H398 0.930 . S
C406 C405 1.362 . S
C406 C409 1.409 . S
C407 H399 0.930 . S
C407 C408 1.355 . S
C407 C409 1.415 1_565 S
C408 C407 1.355 . S
C408 C410 1.419 . S
C409 C404 1.425 . S
C409 C406 1.409 . S
C409 C407 1.415 1_545 S
C410 H400 0.930 . S
C410 C408 1.419 . S
C410 C411 1.362 1_565 S
C411 H401 0.930 . S
C411 C404 1.409 . S
C411 C410 1.362 1_545 S
H412 C418 0.930 . S
H413 C421 0.930 . S
H414 C422 0.930 . S
H415 C423 0.930 . S
H416 C426 0.930 . S
H417 C427 0.930 . S
C418 H412 0.930 . S
C418 C419 1.355 . S
C418 C420 1.415 1_545 S
C419 C418 1.355 . S
C419 C421 1.419 . S
C420 C418 1.415 1_565 S
C420 C425 1.425 . S
C420 C427 1.409 . S
C421 H413 0.930 . S
C421 C419 1.419 . S
C421 C422 1.362 1_545 S
C422 H414 0.930 . S
C422 C421 1.362 1_565 S
C422 C425 1.409 . S
C423 H415 0.930 . S
C423 C424 1.355 . S
C423 C425 1.415 . S
C424 C423 1.355 . S
C424 C426 1.419 . S
C425 C420 1.425 . S
C425 C422 1.409 . S
C425 C423 1.415 . S
C426 H416 0.930 . S
C426 C424 1.419 . S
C426 C427 1.362 . S
C427 H417 0.930 . S
C427 C420 1.409 . S
C427 C426 1.362 . S
H428 C434 0.930 . S
H429 C437 0.921 1_655 S
H430 C438 0.930 1_655 S
H431 C439 0.930 . S
H432 C442 0.930 . S
H433 C443 0.930 . S
C434 H428 0.930 . S
C434 C435 1.355 . S
C434 C436 1.415 . S
C435 C434 1.355 . S
C435 C437 1.427 . S
C436 C434 1.415 . S
C436 C441 1.425 . S
C436 C443 1.409 . S
C437 H429 0.921 1_455 S
C437 C435 1.427 . S
C437 C438 1.363 . S
C438 H430 0.930 1_455 S
C438 C437 1.363 . S
C438 C441 1.409 . S
C439 H431 0.930 . S
C439 C440 1.355 . S
C439 C441 1.415 1_545 S
C440 C439 1.355 . S
C440 C442 1.419 . S
C441 C436 1.425 . S
C441 C438 1.409 . S
C441 C439 1.415 1_565 S
C442 H432 0.930 . S
C442 C440 1.419 . S
C442 C443 1.362 1_545 S
C443 H433 0.930 . S
C443 C436 1.409 . S
C443 C442 1.362 1_565 S
H444 C450 0.930 . S
H445 C453 0.930 . S
H446 C454 0.930 . S
H447 C455 0.930 . S
H448 C458 0.930 . S
H449 C459 0.930 . S
C450 H444 0.930 . S
C450 C451 1.355 . S
C450 C452 1.415 1_554 S
C451 C450 1.355 . S
C451 C453 1.419 . S
C452 C450 1.415 1_556 S
C452 C457 1.425 . S
C452 C459 1.409 . S
C453 H445 0.930 . S
C453 C451 1.419 . S
C453 C454 1.362 1_554 S
C454 H446 0.930 . S
C454 C453 1.362 1_556 S
C454 C457 1.409 . S
C455 H447 0.930 . S
C455 C456 1.355 . S
C455 C457 1.415 . S
C456 C455 1.355 . S
C456 C458 1.419 . S
C457 C452 1.425 . S
C457 C454 1.409 . S
C457 C455 1.415 . S
C458 H448 0.930 . S
C458 C456 1.419 . S
C458 C459 1.362 . S
C459 H449 0.930 . S
C459 C452 1.409 . S
C459 C458 1.362 . S
H460 C466 0.930 . S
H461 C469 0.930 . S
H462 C470 0.930 . S
H463 C471 0.930 . S
H464 C474 0.930 . S
H465 C475 0.930 . S
C466 H460 0.930 . S
C466 C467 1.355 . S
C466 C468 1.415 . S
C467 C466 1.355 . S
C467 C469 1.419 . S
C468 C466 1.415 . S
C468 C473 1.425 . S
C468 C475 1.409 . S
C469 H461 0.930 . S
C469 C467 1.419 . S
C469 C470 1.362 . S
C470 H462 0.930 . S
C470 C469 1.362 . S
C470 C473 1.409 . S
C471 H463 0.930 . S
C471 C472 1.355 . S
C471 C473 1.415 . S
C472 C471 1.355 . S
C472 C474 1.419 . S
C473 C468 1.425 . S
C473 C470 1.409 . S
C473 C471 1.415 . S
C474 H464 0.930 . S
C474 C472 1.419 . S
C474 C475 1.362 . S
C475 H465 0.930 . S
C475 C468 1.409 . S
C475 C474 1.362 . S
H476 C482 0.930 . S
H477 C485 0.930 . S
H478 C486 0.930 . S
H479 C487 0.930 . S
H480 C490 0.930 . S
H481 C491 0.930 . S
C482 H476 0.930 . S
C482 C483 1.355 . S
C482 C484 1.415 . S
C483 C482 1.355 . S
C483 C485 1.419 . S
C484 C482 1.415 . S
C484 C489 1.425 . S
C484 C491 1.409 . S
C485 H477 0.930 . S
C485 C483 1.419 . S
C485 C486 1.362 . S
C486 H478 0.930 . S
C486 C485 1.362 . S
C486 C489 1.409 . S
C487 H479 0.930 . S
C487 C488 1.355 . S
C487 C489 1.415 . S
C488 C487 1.355 . S
C488 C490 1.419 . S
C489 C484 1.425 . S
C489 C486 1.409 . S
C489 C487 1.415 . S
C490 H480 0.930 . S
C490 C488 1.419 . S
C490 C491 1.362 . S
C491 H481 0.930 . S
C491 C484 1.409 . S
C491 C490 1.362 . S
H492 C498 0.930 . S
H493 C501 0.930 . S
H494 C502 0.930 . S
H495 C503 0.930 . S
H496 C506 0.930 . S
H497 C507 0.930 . S
C498 H492 0.930 . S
C498 C499 1.355 . S
C498 C500 1.415 . S
C499 C498 1.355 . S
C499 C501 1.419 . S
C500 C498 1.415 . S
C500 C505 1.425 . S
C500 C507 1.409 . S
C501 H493 0.930 . S
C501 C499 1.419 . S
C501 C502 1.362 . S
C502 H494 0.930 . S
C502 C501 1.362 . S
C502 C505 1.409 . S
C503 H495 0.930 . S
C503 C504 1.355 . S
C503 C505 1.415 . S
C504 C503 1.355 . S
C504 C506 1.419 . S
C505 C500 1.425 . S
C505 C502 1.409 . S
C505 C503 1.415 . S
C506 H496 0.930 . S
C506 C504 1.419 . S
C506 C507 1.362 . S
C507 H497 0.930 . S
C507 C500 1.409 . S
C507 C506 1.362 . S
H508 C514 0.930 . S
H509 C517 0.930 . S
H510 C518 0.930 . S
H511 C519 0.930 . S
H512 C522 0.930 . S
H513 C523 0.930 . S
C514 H508 0.930 . S
C514 C515 1.355 . S
C514 C516 1.415 1_556 S
C515 C514 1.355 . S
C515 C517 1.419 . S
C516 C514 1.415 1_554 S
C516 C521 1.425 . S
C516 C523 1.409 . S
C517 H509 0.930 . S
C517 C515 1.419 . S
C517 C518 1.362 1_556 S
C518 H510 0.930 . S
C518 C517 1.362 1_554 S
C518 C521 1.409 . S
C519 H511 0.930 . S
C519 C520 1.355 . S
C519 C521 1.415 . S
C520 C519 1.355 . S
C520 C522 1.419 . S
C521 C516 1.425 . S
C521 C518 1.409 . S
C521 C519 1.415 . S
C522 H512 0.930 . S
C522 C520 1.419 . S
C522 C523 1.362 . S
C523 H513 0.930 . S
C523 C516 1.409 . S
C523 C522 1.362 . S
H524 C530 0.930 . S
H525 C533 0.930 . S
H526 C534 0.930 . S
H527 C535 0.930 . S
H528 C538 0.930 . S
H529 C539 0.930 . S
C530 H524 0.930 . S
C530 C531 1.355 . S
C530 C532 1.415 . S
C531 C530 1.355 . S
C531 C533 1.419 . S
C532 C530 1.415 . S
C532 C537 1.425 . S
C532 C539 1.409 . S
C533 H525 0.930 . S
C533 C531 1.419 . S
C533 C534 1.362 . S
C534 H526 0.930 . S
C534 C533 1.362 . S
C534 C537 1.409 . S
C535 H527 0.930 . S
C535 C536 1.355 . S
C535 C537 1.415 . S
C536 C535 1.355 . S
C536 C538 1.419 . S
C537 C532 1.425 . S
C537 C534 1.409 . S
C537 C535 1.415 . S
C538 H528 0.930 . S
C538 C536 1.419 . S
C538 C539 1.362 . S
C539 H529 0.930 . S
C539 C532 1.409 . S
C539 C538 1.362 . S
H540 C546 0.930 . S
H541 C549 0.930 . S
H542 C550 0.930 . S
H543 C551 0.930 . S
H544 C554 0.930 . S
H545 C555 0.930 . S
C546 H540 0.930 . S
C546 C547 1.355 . S
C546 C548 1.415 . S
C547 C546 1.355 . S
C547 C549 1.419 . S
C548 C546 1.415 . S
C548 C553 1.425 . S
C548 C555 1.409 . S
C549 H541 0.930 . S
C549 C547 1.419 . S
C549 C550 1.362 . S
C550 H542 0.930 . S
C550 C549 1.362 . S
C550 C553 1.409 . S
C551 H543 0.930 . S
C551 C552 1.355 . S
C551 C553 1.415 . S
C552 C551 1.355 . S
C552 C554 1.419 . S
C553 C548 1.425 . S
C553 C550 1.409 . S
C553 C551 1.415 . S
C554 H544 0.930 . S
C554 C552 1.419 . S
C554 C555 1.362 . S
C555 H545 0.930 . S
C555 C548 1.409 . S
C555 C554 1.362 . S
H556 C562 0.930 . S
H557 C565 0.930 . S
H558 C566 0.930 . S
H559 C567 0.930 . S
H560 C570 0.930 . S
H561 C571 0.930 . S
C562 H556 0.930 . S
C562 C563 1.355 . S
C562 C564 1.415 . S
C563 C562 1.355 . S
C563 C565 1.419 . S
C564 C562 1.415 . S
C564 C569 1.425 . S
C564 C571 1.409 . S
C565 H557 0.930 . S
C565 C563 1.419 . S
C565 C566 1.362 . S
C566 H558 0.930 . S
C566 C565 1.362 . S
C566 C569 1.409 . S
C567 H559 0.930 . S
C567 C568 1.355 . S
C567 C569 1.415 . S
C568 C567 1.355 . S
C568 C570 1.419 . S
C569 C564 1.425 . S
C569 C566 1.409 . S
C569 C567 1.415 . S
C570 H560 0.930 . S
C570 C568 1.419 . S
C570 C571 1.362 . S
C571 H561 0.930 . S
C571 C564 1.409 . S
C571 C570 1.362 . S
C200 C111 1.428 . S
C195 C4 1.425 . S
C216 C129 1.416 . S
C211 C17 1.417 . S
C227 C34 1.327 . S
C232 C153 1.314 . S
C248 C183 1.285 . S
C243 C47 1.414 . S
C264 C171 1.259 . S
C259 C56 1.405 . S
C275 C69 1.432 . S
C280 C124 1.437 1_655 S
C291 C86 1.540 . S
C296 C144 1.424 . S
C307 C99 1.418 . S
C312 C149 1.331 . S
C323 C95 1.433 . S
C328 C165 1.436 . S
C339 C73 1.439 . S
C344 C120 1.295 . S
C360 C187 1.333 . S
C355 C43 1.330 . S
C376 C132 1.267 . S
C371 C21 1.418 . S
C387 C30 1.522 . S
C392 C150 1.523 . S
C403 C8 1.380 . S
C408 C108 1.204 . S
C424 C128 1.257 . S
C419 C82 1.374 . S
C440 C174 1.461 . S
C435 C60 1.563 . S
C456 C170 1.372 . S
C451 C9 1.585 . S
C472 C123 1.400 . S
C467 C22 1.468 . S
C483 C35 1.537 . S
C488 C145 1.250 . S
C499 C48 1.492 . S
C504 C166 1.410 . S
C520 C107 1.315 . S
C515 C61 1.515 . S
C531 C74 1.577 . S
C536 C141 1.480 . S
C552 C162 1.346 . S
C547 C87 1.525 . S
C568 C186 1.473 . S
C563 C100 1.547 . S
