# Generated by pormake.
# Topology pyr, (3,6)-cn, num edge types: 1
# Building blocks:
#     Node 0, Type 0, BuildingBlock: ESEHIV_clean_linker_0, # of connection points: 3
#     Node 1, Type 0, BuildingBlock: ESEHIV_clean_linker_0, # of connection points: 3
#     Node 2, Type 0, BuildingBlock: ESEHIV_clean_linker_0, # of connection points: 3
#     Node 3, Type 0, BuildingBlock: ESEHIV_clean_linker_0, # of connection points: 3
#     Node 4, Type 0, BuildingBlock: ESEHIV_clean_linker_0, # of connection points: 3
#     Node 5, Type 0, BuildingBlock: ESEHIV_clean_linker_0, # of connection points: 3
#     Node 6, Type 0, BuildingBlock: ESEHIV_clean_linker_0, # of connection points: 3
#     Node 7, Type 0, BuildingBlock: ESEHIV_clean_linker_0, # of connection points: 3
#     Node 8, Type 1, BuildingBlock: GEDQOX_clean_sbu_0, # of connection points: 6
#     Node 9, Type 1, BuildingBlock: GEDQOX_clean_sbu_0, # of connection points: 6
#     Node 10, Type 1, BuildingBlock: GEDQOX_clean_sbu_0, # of connection points: 6
#     Node 11, Type 1, BuildingBlock: GEDQOX_clean_sbu_0, # of connection points: 6
#     Edge 12, Type (0, 1), BuildingBlock: CIFDUS_clean_linker_0, # of connection points: 2
#     Edge 13, Type (0, 1), BuildingBlock: CIFDUS_clean_linker_0, # of connection points: 2
#     Edge 14, Type (0, 1), BuildingBlock: CIFDUS_clean_linker_0, # of connection points: 2
#     Edge 15, Type (0, 1), BuildingBlock: CIFDUS_clean_linker_0, # of connection points: 2
#     Edge 16, Type (0, 1), BuildingBlock: CIFDUS_clean_linker_0, # of connection points: 2
#     Edge 17, Type (0, 1), BuildingBlock: CIFDUS_clean_linker_0, # of connection points: 2
#     Edge 18, Type (0, 1), BuildingBlock: CIFDUS_clean_linker_0, # of connection points: 2
#     Edge 19, Type (0, 1), BuildingBlock: CIFDUS_clean_linker_0, # of connection points: 2
#     Edge 20, Type (0, 1), BuildingBlock: CIFDUS_clean_linker_0, # of connection points: 2
#     Edge 21, Type (0, 1), BuildingBlock: CIFDUS_clean_linker_0, # of connection points: 2
#     Edge 22, Type (0, 1), BuildingBlock: CIFDUS_clean_linker_0, # of connection points: 2
#     Edge 23, Type (0, 1), BuildingBlock: CIFDUS_clean_linker_0, # of connection points: 2
#     Edge 24, Type (0, 1), BuildingBlock: CIFDUS_clean_linker_0, # of connection points: 2
#     Edge 25, Type (0, 1), BuildingBlock: CIFDUS_clean_linker_0, # of connection points: 2
#     Edge 26, Type (0, 1), BuildingBlock: CIFDUS_clean_linker_0, # of connection points: 2
#     Edge 27, Type (0, 1), BuildingBlock: CIFDUS_clean_linker_0, # of connection points: 2
#     Edge 28, Type (0, 1), BuildingBlock: CIFDUS_clean_linker_0, # of connection points: 2
#     Edge 29, Type (0, 1), BuildingBlock: CIFDUS_clean_linker_0, # of connection points: 2
#     Edge 30, Type (0, 1), BuildingBlock: CIFDUS_clean_linker_0, # of connection points: 2
#     Edge 31, Type (0, 1), BuildingBlock: CIFDUS_clean_linker_0, # of connection points: 2
#     Edge 32, Type (0, 1), BuildingBlock: CIFDUS_clean_linker_0, # of connection points: 2
#     Edge 33, Type (0, 1), BuildingBlock: CIFDUS_clean_linker_0, # of connection points: 2
#     Edge 34, Type (0, 1), BuildingBlock: CIFDUS_clean_linker_0, # of connection points: 2
#     Edge 35, Type (0, 1), BuildingBlock: CIFDUS_clean_linker_0, # of connection points: 2
# Relax obj value: 0.165
# Max RMSD: 0.174
# Mean RMSD: 0.071
data_MOF--net-pyr--node1-GEDQOX_clean_sbu_0--node2-ESEHIV_clean_linker_0--edge1-CIFDUS_clean_linker_0
_symmetry_space_group_name_H-M    P1
_symmetry_Int_Tables_number       1
_symmetry_cell_setting            triclinic
loop_
_symmetry_equiv_pos_as_xyz
'x, y, z'
_cell_length_a     33.106564
_cell_length_b     33.233847
_cell_length_c     28.807824
_cell_angle_alpha  87.725556
_cell_angle_beta   90.926938
_cell_angle_gamma 84.823363
loop_
_atom_site_label
_atom_site_type_symbol
_atom_site_fract_x
_atom_site_fract_y
_atom_site_fract_z
_atom_type_partial_charge
H0 H 0.14912 0.2279 0.21907 0.0
H1 H 0.24717 0.13427 0.22982 0.0
H2 H 0.25078 0.2332 0.12736 0.0
C3 C 0.17853 0.21571 0.2077 0.0
C4 C 0.19753 0.23694 0.17127 0.0
C5 C 0.19583 0.17925 0.23025 0.0
C6 C 0.23335 0.16191 0.2129 0.0
C7 C 0.25402 0.18018 0.17503 0.0
C8 C 0.23518 0.21787 0.15461 0.0
H9 H 0.38283 0.86011 0.79265 0.0
H10 H 0.47529 0.76339 0.83127 0.0
H11 H 0.38085 0.74453 0.73338 0.0
C12 C 0.39554 0.82901 0.79155 0.0
C13 C 0.37695 0.80335 0.76212 0.0
C14 C 0.43061 0.81512 0.81813 0.0
C15 C 0.44788 0.77507 0.8125 0.0
C16 C 0.42975 0.74967 0.78206 0.0
C17 C 0.39393 0.76373 0.75811 0.0
H18 H 0.83335 0.36043 0.87577 0.0
H19 H 0.79755 0.46586 0.7872 0.0
H20 H 0.74399 0.35396 0.76854 0.0
C21 C 0.81615 0.37473 0.84627 0.0
C22 C 0.78826 0.35299 0.82337 0.0
C23 C 0.8212 0.41498 0.83208 0.0
C24 C 0.79542 0.43427 0.79666 0.0
C25 C 0.76642 0.41272 0.77423 0.0
C26 C 0.7652 0.37146 0.78618 0.0
H27 H 0.78241 0.91634 0.38195 0.0
H28 H 0.87092 0.88353 0.27931 0.0
H29 H 0.7724 0.81026 0.30441 0.0
C30 C 0.79248 0.8975 0.35373 0.0
C31 C 0.77141 0.86419 0.34303 0.0
C32 C 0.82861 0.90424 0.33094 0.0
C33 C 0.84282 0.87823 0.2963 0.0
C34 C 0.82281 0.84398 0.28624 0.0
C35 C 0.78672 0.83788 0.30926 0.0
H36 H 0.83567 0.94101 0.84013 0.0
H37 H 0.9314 0.84408 0.84454 0.0
H38 H 0.83283 0.84379 0.94234 0.0
C39 C 0.84963 0.91302 0.856 0.0
C40 C 0.82913 0.89492 0.8936 0.0
C41 C 0.88708 0.89585 0.83799 0.0
C42 C 0.90364 0.85784 0.85847 0.0
C43 C 0.88504 0.83747 0.89633 0.0
C44 C 0.84793 0.8575 0.91362 0.0
H45 H 0.60505 0.30342 0.25104 0.0
H46 H 0.71992 0.23017 0.25594 0.0
H47 H 0.70153 0.33279 0.3413 0.0
C48 C 0.6361 0.29747 0.26372 0.0
C49 C 0.65107 0.32252 0.29677 0.0
C50 C 0.66099 0.26416 0.24815 0.0
C51 C 0.70068 0.2561 0.26678 0.0
C52 C 0.71509 0.28043 0.3009 0.0
C53 C 0.69048 0.314 0.31475 0.0
H54 H 0.27295 0.68611 0.17805 0.0
H55 H 0.28626 0.58652 0.27987 0.0
H56 H 0.36225 0.68507 0.28651 0.0
C57 C 0.28689 0.67179 0.20956 0.0
C58 C 0.3191 0.68898 0.23042 0.0
C59 C 0.27422 0.63508 0.22753 0.0
C60 C 0.29497 0.6154 0.26667 0.0
C61 C 0.32747 0.63292 0.28803 0.0
C62 C 0.33809 0.67038 0.27019 0.0
H63 H 0.19849 0.16791 0.79273 0.0
H64 H 0.30044 0.12735 0.71034 0.0
H65 H 0.30824 0.22662 0.80006 0.0
C66 C 0.23014 0.16884 0.784 0.0
C67 C 0.25225 0.19891 0.80201 0.0
C68 C 0.24802 0.14168 0.75242 0.0
C69 C 0.28785 0.14571 0.73783 0.0
C70 C 0.30977 0.17634 0.75502 0.0
C71 C 0.29243 0.20138 0.7888 0.0
Nd72 Nd 0.07084 0.98411 0.52218 0.0
Nd73 Nd 1.02272 0.06284 0.53493 0.0
C74 C 0.10859 0.91504 0.49802 0.0
C75 C 0.13285 0.88313 0.52536 0.0
C76 C 0.17195 0.87054 0.5107 0.0
C77 C 0.19973 0.84931 0.5416 0.0
C78 C 0.1885 0.84007 0.58731 0.0
C79 C 0.1483 0.8493 0.60061 0.0
C80 C 0.12065 0.87103 0.56992 0.0
C81 C 0.10241 0.02895 0.58977 0.0
C82 C 1.00912 0.98459 0.61041 0.0
C83 C 0.98479 0.13261 0.55737 0.0
C84 C 0.959 0.16245 0.52896 0.0
C85 C 0.93548 0.19374 0.5495 0.0
C86 C 0.90591 0.21766 0.52304 0.0
C87 C 0.89881 0.20983 0.47594 0.0
C88 C 0.92432 0.17975 0.4552 0.0
C89 C 0.95436 0.1567 0.48135 0.0
C90 C 0.99095 1.01773 0.4676 0.0
C91 C 0.08461 0.06057 0.4461 0.0
O92 O 0.0697 0.91951 0.50604 0.0
O93 O 0.12481 0.94944 0.49491 0.0
O94 O 0.10445 0.98981 0.59217 0.0
O95 O 0.08751 0.04258 0.55132 0.0
O96 O 1.02947 0.96161 0.58043 0.0
O97 O 1.00673 1.0248 0.60356 0.0
O98 O 1.02305 0.12847 0.5465 0.0
O99 O 0.96967 0.09791 0.56393 0.0
O100 O 0.98899 0.05678 0.46519 0.0
O101 O 1.00587 1.00432 0.50608 0.0
O102 O 0.0651 0.08477 0.4757 0.0
O103 O 0.08531 1.02075 0.45366 0.0
H104 H 0.18193 0.87982 0.47659 0.0
H105 H 0.23067 0.84229 0.53077 0.0
H106 H 0.13922 0.84267 0.63586 0.0
H107 H 0.09074 0.88077 0.58225 0.0
H108 H 0.93891 0.1987 0.58624 0.0
H109 H 0.8877 0.24126 0.53998 0.0
H110 H 0.91979 0.17216 0.41943 0.0
H111 H 0.97262 0.13296 0.4648 0.0
Nd112 Nd 0.54232 1.01379 0.07227 0.0
Nd113 Nd 0.54358 0.06155 1.00229 0.0
C114 C 0.54067 0.94989 0.13008 0.0
C115 C 0.51411 0.91674 0.1356 0.0
C116 C 0.51395 0.88643 0.10287 0.0
C117 C 0.48903 0.85503 0.10868 0.0
C118 C 0.46364 0.8534 0.14712 0.0
C119 C 0.46326 0.88398 0.17943 0.0
C120 C 0.48845 0.91527 0.17385 0.0
C121 C 0.47258 0.07049 0.0785 0.0
C122 C 0.4985 0.98793 0.98007 0.0
C123 C 0.54675 0.12455 0.94387 0.0
C124 C 0.57983 0.14968 0.93225 0.0
C125 C 0.57312 0.19177 0.93462 0.0
C126 C 0.60522 0.21591 0.92931 0.0
C127 C 0.64458 0.19837 0.92121 0.0
C128 C 0.65116 0.15629 0.91773 0.0
C129 C 0.6191 0.13206 0.92362 0.0
C130 C 0.61317 1.00514 0.99539 0.0
C131 C 0.58706 0.08747 0.09636 0.0
O132 O 0.56258 0.95029 0.09298 0.0
O133 O 0.52519 0.98591 0.1398 0.0
O134 O 0.49934 0.06043 0.11118 0.0
O135 O 0.48454 0.05277 0.04167 0.0
O136 O 0.52316 0.9739 1.01389 0.0
O137 O 0.49343 0.02699 0.97207 0.0
O138 O 0.53371 0.1275 0.98612 0.0
O139 O 0.55047 0.08729 0.93085 0.0
O140 O 0.58652 1.0156 0.96282 0.0
O141 O 0.60134 1.02272 0.0324 0.0
O142 O 0.56492 0.10141 0.06016 0.0
O143 O 0.58972 0.0487 0.10623 0.0
H144 H 0.53319 0.88673 0.07283 0.0
H145 H 0.48969 0.8319 0.08317 0.0
H146 H 0.44432 0.88307 0.20971 0.0
H147 H 0.48809 0.93817 0.19961 0.0
H148 H 0.54317 0.20588 0.94169 0.0
H149 H 0.59925 0.24838 0.93143 0.0
H150 H 0.68125 0.14209 0.91161 0.0
H151 H 0.62527 0.09954 0.92244 0.0
Nd152 Nd 0.50155 0.50104 0.56777 0.0
Nd153 Nd 0.56511 0.54691 0.52905 0.0
C154 C 0.43758 0.46837 0.60084 0.0
C155 C 0.42657 0.42667 0.60835 0.0
C156 C 0.4292 0.39884 0.57272 0.0
C157 C 0.4202 0.35894 0.58152 0.0
C158 C 0.40912 0.34613 0.62622 0.0
C159 C 0.40668 0.37404 0.66171 0.0
C160 C 0.41518 0.41392 0.65279 0.0
C161 C 0.57765 0.47266 0.60155 0.0
C162 C 0.51949 0.58615 0.61408 0.0
C163 C 0.62769 0.57964 0.49249 0.0
C164 C 0.63524 0.62067 0.4759 0.0
C165 C 0.62661 0.65442 0.50327 0.0
C166 C 0.63215 0.6933 0.48554 0.0
C167 C 0.64567 0.699 0.44 0.0
C168 C 0.6542 0.66518 0.41283 0.0
C169 C 0.64916 0.6264 0.43069 0.0
C170 C 0.48879 0.57365 0.49333 0.0
C171 C 0.55026 0.46091 0.48495 0.0
O172 O 0.46721 0.47841 0.62718 0.0
O173 O 0.4395 0.48226 0.55788 0.0
O174 O 0.54965 0.44986 0.59012 0.0
O175 O 0.5649 0.5094 0.5956 0.0
O176 O 0.49133 0.56196 0.60394 0.0
O177 O 0.55444 0.58344 0.59308 0.0
O178 O 0.60129 0.56223 0.46794 0.0
O179 O 0.62386 0.57331 0.53721 0.0
O180 O 0.51581 0.59698 0.50628 0.0
O181 O 0.50249 0.53732 0.50038 0.0
O182 O 0.57776 0.48532 0.49624 0.0
O183 O 0.51467 0.46303 0.5047 0.0
H184 H 0.4384 0.40778 0.53818 0.0
H185 H 0.42221 0.33803 0.55357 0.0
H186 H 0.3974 0.36523 0.69625 0.0
H187 H 0.41308 0.43482 0.68077 0.0
H188 H 0.61533 0.65085 0.53814 0.0
H189 H 0.62551 0.71891 0.50716 0.0
H190 H 0.66546 0.66864 0.37793 0.0
H191 H 0.65584 0.60083 0.40899 0.0
Nd192 Nd 1.02099 0.53663 0.05386 0.0
Nd193 Nd 0.07739 0.5348 0.98172 0.0
C194 C 0.96263 0.53492 0.1151 0.0
C195 C 0.93761 0.57033 0.13096 0.0
C196 C 0.90399 0.56665 0.1593 0.0
C197 C 0.88194 0.60149 0.17483 0.0
C198 C 0.89366 0.64009 0.16233 0.0
C199 C 0.92657 0.64338 0.13292 0.0
C200 C 0.94822 0.60893 0.11744 0.0
C201 C 0.08554 0.58049 0.07382 0.0
C202 C 1.01182 0.61756 0.98395 0.0
C203 C 0.12982 0.53492 0.9144 0.0
C204 C 0.14309 0.49925 0.8875 0.0
C205 C 0.18318 0.48157 0.89187 0.0
C206 C 0.19361 0.44302 0.87537 0.0
C207 C 0.16409 0.42146 0.85418 0.0
C208 C 0.12453 0.4401 0.84775 0.0
C209 C 0.11415 0.47848 0.86411 0.0
C210 C 1.01364 0.48959 0.96333 0.0
C211 C 0.09038 0.45528 0.05305 0.0
O212 O 0.95733 0.52706 0.07147 0.0
O213 O 1.00098 0.53368 0.1269 0.0
O214 O 0.04793 0.59359 0.07846 0.0
O215 O 0.08837 0.54595 0.05711 0.0
O216 O 0.9915 0.5947 1.0122 0.0
O217 O 0.04901 0.60306 0.97242 0.0
O218 O 0.14118 0.53269 0.9582 0.0
O219 O 0.09192 0.5492 0.90844 0.0
O220 O 0.05127 0.47718 0.95831 0.0
O221 O 1.01036 0.5246 0.97876 0.0
O222 O 0.10766 0.47687 1.02071 0.0
O223 O 0.05456 0.47008 0.06904 0.0
H224 H 0.89524 0.53708 0.16988 0.0
H225 H 0.85663 0.59831 0.19763 0.0
H226 H 0.9359 0.67274 0.12228 0.0
H227 H 0.97378 0.61258 0.09543 0.0
H228 H 0.20598 0.49673 0.91001 0.0
H229 H 0.22457 0.42974 0.88008 0.0
H230 H 0.10096 0.42426 0.832 0.0
H231 H 0.08279 0.49082 0.86054 0.0
H232 H 0.18661 0.09801 0.26089 0.0
H233 H 0.15711 0.22089 0.30031 0.0
H234 H 0.12063 0.19697 0.36711 0.0
H235 H 0.09551 0.14111 0.41653 0.0
H236 H 0.12528 1.0181 0.37809 0.0
H237 H 0.16205 0.04187 0.31109 0.0
C238 C 0.17248 0.11976 0.28405 0.0
C239 C 0.17491 0.16186 0.27364 0.0
C240 C 0.15085 0.10559 0.3237 0.0
C241 C 0.15571 0.1886 0.30536 0.0
C242 C 0.13469 0.17481 0.34438 0.0
C243 C 0.10987 0.1193 0.3936 0.0
C244 C 0.10678 0.07731 0.40364 0.0
C245 C 0.13163 0.13335 0.35411 0.0
C246 C 0.12635 0.05038 0.37246 0.0
C247 C 0.14777 0.06409 0.33358 0.0
H248 H 0.39306 0.87873 0.86412 0.0
H249 H 0.51139 0.81569 0.84432 0.0
H250 H 0.54169 0.86189 0.89492 0.0
H251 H 0.53537 0.9219 0.94266 0.0
H252 H 0.41958 0.99132 0.95125 0.0
H253 H 0.38772 0.94185 0.90507 0.0
C254 C 0.42565 0.87532 0.86954 0.0
C255 C 0.44953 0.84318 0.84983 0.0
C256 C 0.44347 0.90357 0.89633 0.0
C257 C 0.49161 0.83911 0.85947 0.0
C258 C 0.50926 0.86599 0.88804 0.0
C259 C 0.50317 0.9261 0.93419 0.0
C260 C 0.47959 0.95979 0.95028 0.0
C261 C 0.48553 0.89844 0.90637 0.0
C262 C 0.43812 0.96553 0.9389 0.0
C263 C 0.42 0.93722 0.91277 0.0
H264 H 0.68766 0.3975 0.7673 0.0
H265 H 0.77355 0.47357 0.70672 0.0
H266 H 0.72184 0.50086 0.6489 0.0
H267 H 0.6527 0.49961 0.61281 0.0
H268 H 0.57289 0.41498 0.66901 0.0
H269 H 0.62254 0.3931 0.73011 0.0
C270 C 0.69579 0.41932 0.74087 0.0
C271 C 0.73503 0.43253 0.74081 0.0
C272 C 0.66701 0.4329 0.70647 0.0
C273 C 0.74374 0.46264 0.70768 0.0
C274 C 0.71426 0.47797 0.67432 0.0
C275 C 0.64654 0.47623 0.6384 0.0
C276 C 0.60939 0.45871 0.6364 0.0
C277 C 0.67596 0.46275 0.67287 0.0
C278 C 0.60147 0.42851 0.66955 0.0
C279 C 0.62971 0.41618 0.70468 0.0
H280 H 0.78629 0.7919 0.23079 0.0
H281 H 0.90414 0.82047 0.2799 0.0
H282 H 0.93582 0.76127 0.24387 0.0
H283 H 0.9301 0.69821 0.20458 0.0
H284 H 0.81253 0.66485 0.16259 0.0
H285 H 0.78045 0.72806 0.19205 0.0
C286 C 0.81889 0.7852 0.23395 0.0
C287 C 0.8425 0.81105 0.25829 0.0
C288 C 0.83692 0.74962 0.21548 0.0
C289 C 0.88491 0.80207 0.26069 0.0
C290 C 0.90317 0.76767 0.24073 0.0
C291 C 0.89744 0.70494 0.2017 0.0
C292 C 0.8736 0.67718 0.18148 0.0
C293 C 0.87941 0.74084 0.21903 0.0
C294 C 0.83134 0.68578 0.17843 0.0
C295 C 0.81313 0.72196 0.19491 0.0
H296 H 0.28906 0.16213 0.08635 0.0
H297 H 0.31833 0.15363 0.23301 0.0
H298 H 0.38529 0.12095 0.21714 0.0
H299 H 0.43746 0.09307 0.16255 0.0
H300 H 0.40928 0.09776 1.01595 0.0
H301 H 0.34214 0.13255 0.03076 0.0
C302 C 0.31001 0.15343 0.11501 0.0
C303 C 0.29701 0.16112 0.16149 0.0
C304 C 0.34968 0.13329 0.10556 0.0
C305 C 0.32586 0.14854 0.19715 0.0
C306 C 0.36483 0.12961 0.18799 0.0
C307 C 0.41686 0.10157 0.13348 0.0
C308 C 0.42987 0.09215 0.08769 0.0
C309 C 0.37735 0.12147 0.14247 0.0
C310 C 0.40138 0.10395 0.05146 0.0
C311 C 0.36247 0.12417 0.06009 0.0
H312 H 0.30796 0.76724 0.74764 0.0
H313 H 0.36856 0.87256 0.70775 0.0
H314 H 0.31523 0.89288 0.64972 0.0
H315 H 0.25357 0.87872 0.60772 0.0
H316 H 0.19218 0.77406 0.64735 0.0
H317 H 0.24415 0.7548 0.70793 0.0
C318 C 0.30923 0.79477 0.72638 0.0
C319 C 0.34202 0.81839 0.73176 0.0
C320 C 0.27886 0.80587 0.69272 0.0
C321 C 0.3433 0.85421 0.70453 0.0
C322 C 0.31312 0.86557 0.67106 0.0
C323 C 0.25191 0.85149 0.62942 0.0
C324 C 0.21993 0.82722 0.62281 0.0
C325 C 0.28125 0.84123 0.66433 0.0
C326 C 0.21705 0.79272 0.65176 0.0
C327 C 0.24655 0.7819 0.68632 0.0
H328 H 0.89796 0.38507 0.85411 0.0
H329 H 0.81568 0.49258 0.86315 0.0
H330 H 0.86748 0.52512 0.90611 0.0
H331 H 0.93633 0.52226 0.94222 0.0
H332 H 1.01739 0.41384 0.9323 0.0
H333 H 0.96549 0.38201 0.88968 0.0
C334 C 0.8912 0.41556 0.86572 0.0
C335 C 0.85293 0.43626 0.85564 0.0
C336 C 0.9208 0.43373 0.89072 0.0
C337 C 0.84501 0.47608 0.87008 0.0
C338 C 0.8745 0.49455 0.895 0.0
C339 C 0.94239 0.49158 0.93098 0.0
C340 C 0.98056 0.47034 0.94047 0.0
C341 C 0.91247 0.47354 0.9058 0.0
C342 C 0.98823 0.43076 0.92543 0.0
C343 C 0.95863 0.41257 0.90094 0.0
H344 H 0.69953 0.84012 0.31469 0.0
H345 H 0.77122 0.85636 0.43758 0.0
H346 H 0.73131 0.81086 0.48245 0.0
H347 H 0.68795 0.75447 0.48126 0.0
H348 H 0.62115 0.73386 0.356 0.0
H349 H 0.64712 0.79273 0.31743 0.0
C350 C 0.70535 0.83474 0.3517 0.0
C351 C 0.73859 0.85088 0.37265 0.0
C352 C 0.68393 0.80674 0.37647 0.0
C353 C 0.74576 0.84425 0.42067 0.0
C354 C 0.72335 0.81769 0.44617 0.0
C355 C 0.6781 0.76372 0.44605 0.0
C356 C 0.65341 0.73956 0.42109 0.0
C357 C 0.69417 0.79685 0.42367 0.0
C358 C 0.64083 0.75168 0.37546 0.0
C359 C 0.65562 0.78531 0.35346 0.0
H360 H 0.1947 0.27988 0.08212 0.0
H361 H 0.155 0.2945 0.22297 0.0
H362 H 0.11707 0.35803 0.20011 0.0
H363 H 0.09324 0.41222 0.14049 0.0
H364 H 0.13785 0.40243 1.00145 0.0
H365 H 0.17436 0.33688 1.02309 0.0
C366 C 0.17805 0.2968 0.10814 0.0
C367 C 0.17753 0.27973 0.15457 0.0
C368 C 0.15625 0.33548 0.09491 0.0
C369 C 0.1555 0.30414 0.18668 0.0
C370 C 0.13363 0.34152 0.17368 0.0
C371 C 0.11063 0.39579 0.11463 0.0
C372 C 0.11163 0.41332 0.06871 0.0
C373 C 0.13317 0.35768 0.12781 0.0
C374 C 0.13566 0.39073 0.03687 0.0
C375 C 0.15693 0.3527 0.04937 0.0
H376 H 0.75861 0.33869 0.90779 0.0
H377 H 0.78964 0.28145 0.78004 0.0
H378 H 0.75146 0.22426 0.80283 0.0
H379 H 0.69988 0.1971 0.85276 0.0
H380 H 0.66442 0.25792 0.97718 0.0
H381 H 0.71363 0.30723 0.96231 0.0
C382 C 0.75823 0.31289 0.88589 0.0
C383 C 0.77692 0.31387 0.84256 0.0
C384 C 0.73454 0.28138 0.89814 0.0
C385 C 0.77562 0.2809 0.81375 0.0
C386 C 0.75345 0.24854 0.82656 0.0
C387 C 0.70367 0.22063 0.87709 0.0
C388 C 0.6783 0.22435 0.9156 0.0
C389 C 0.73129 0.24941 0.86766 0.0
C390 C 0.68321 0.25503 0.94684 0.0
C391 C 0.7114 0.28308 0.93844 0.0
H392 H 0.90529 0.88699 0.36141 0.0
H393 H 0.81142 0.98524 0.34382 0.0
H394 H 0.8555 0.03082 0.38086 0.0
H395 H 0.91943 0.04101 0.42274 0.0
H396 H 1.00985 0.94024 0.446 0.0
H397 H 0.96878 0.89719 0.40164 0.0
C398 C 0.89482 0.9186 0.36497 0.0
C399 C 0.85556 0.93308 0.34952 0.0
C400 C 0.91968 0.94393 0.38744 0.0
C401 C 0.84173 0.9737 0.35533 0.0
C402 C 0.86686 0.99961 0.37649 0.0
C403 C 0.93022 1.00977 0.41742 0.0
C404 C 0.96751 0.99357 0.43733 0.0
C405 C 0.90571 0.98488 0.39328 0.0
C406 C 0.98112 0.95304 0.43104 0.0
C407 C 0.95768 0.92851 0.40574 0.0
H408 H 0.50069 0.73807 0.73838 0.0
H409 H 0.40171 0.67551 0.79144 0.0
H410 H 0.42236 0.61724 0.74514 0.0
H411 H 0.46254 0.58873 0.68119 0.0
H412 H 0.56021 0.65273 0.62617 0.0
H413 H 0.54604 0.70586 0.68121 0.0
C414 C 0.48478 0.71095 0.74116 0.0
C415 C 0.45007 0.71069 0.76843 0.0
C416 C 0.49579 0.67842 0.71292 0.0
C417 C 0.4289 0.67592 0.77105 0.0
C418 C 0.44032 0.64296 0.74405 0.0
C419 C 0.48081 0.61422 0.68142 0.0
C420 C 0.51186 0.61713 0.64909 0.0
C421 C 0.4726 0.64466 0.71332 0.0
C422 C 0.53584 0.64993 0.65041 0.0
C423 C 0.52785 0.68031 0.68197 0.0
H424 H 0.93685 0.8653 0.76547 0.0
H425 H 0.88748 0.97863 0.81852 0.0
H426 H 0.91859 1.01526 0.75572 0.0
H427 H 0.96075 1.01683 0.6837 0.0
H428 H 1.01115 0.90324 0.6324 0.0
H429 H 0.97989 0.8668 0.6952 0.0
C430 C 0.93288 0.89802 0.76396 0.0
C431 C 0.9085 0.91822 0.79803 0.0
C432 C 0.95162 0.91975 0.72705 0.0
C433 C 0.90455 0.96106 0.79342 0.0
C434 C 0.92293 0.98253 0.75715 0.0
C435 C 0.96511 0.98411 0.68607 0.0
C436 C 0.98898 0.96356 0.65187 0.0
C437 C 0.94657 0.96245 0.72333 0.0
C438 C 0.99343 0.92081 0.65701 0.0
C439 C 0.97531 0.89952 0.69346 0.0
H440 H 0.67056 0.18198 0.25141 0.0
H441 H 0.6153 0.28432 0.16921 0.0
H442 H 0.5886 0.23871 0.11412 0.0
H443 H 0.58033 0.16972 0.08996 0.0
H444 H 0.63582 0.06763 0.17259 0.0
H445 H 0.66382 0.11332 0.22632 0.0
C446 C 0.65313 0.19438 0.22112 0.0
C447 C 0.64506 0.23653 0.21437 0.0
C448 C 0.63803 0.16803 0.1896 0.0
C449 C 0.62164 0.252 0.17545 0.0
C450 C 0.60656 0.22595 0.14381 0.0
C451 C 0.59875 0.15745 0.11957 0.0
C452 C 0.60591 0.1153 0.12726 0.0
C453 C 0.61446 0.1839 0.15063 0.0
C454 C 0.62978 0.09993 0.16585 0.0
C455 C 0.64576 0.12604 0.19667 0.0
H456 H 0.40876 0.63085 0.30076 0.0
H457 H 0.30228 0.58909 0.36446 0.0
H458 H 0.34323 0.56482 0.43358 0.0
H459 H 0.40918 0.5605 0.47827 0.0
H460 H 0.5113 0.61208 0.4157 0.0
H461 H 0.47175 0.62916 0.34453 0.0
C462 C 0.39407 0.61706 0.32995 0.0
C463 C 0.35217 0.6128 0.3277 0.0
C464 C 0.41702 0.60568 0.37025 0.0
C465 C 0.33442 0.59291 0.36513 0.0
C466 C 0.35776 0.57946 0.4049 0.0
C467 C 0.42238 0.57579 0.44904 0.0
C468 C 0.46279 0.58564 0.45226 0.0
C469 C 0.39896 0.5866 0.40831 0.0
C470 C 0.47999 0.60498 0.41423 0.0
C471 C 0.45754 0.61442 0.37341 0.0
H472 H 0.19301 0.25109 0.76495 0.0
H473 H 0.26866 0.22649 0.88761 0.0
H474 H 0.24631 0.29334 0.91602 0.0
H475 H 0.21011 0.36087 0.90199 0.0
H476 H 0.13936 0.38683 0.77537 0.0
H477 H 0.15474 0.31736 0.75247 0.0
C478 C 0.20352 0.26001 0.79858 0.0
C479 C 0.23173 0.23393 0.82471 0.0
C480 C 0.19209 0.29901 0.81339 0.0
C481 C 0.24631 0.24603 0.8675 0.0
C482 C 0.23394 0.28433 0.88336 0.0
C483 C 0.19832 0.35141 0.86921 0.0
C484 C 0.17388 0.37917 0.84028 0.0
C485 C 0.20782 0.31152 0.85586 0.0
C486 C 0.15807 0.3661 0.79843 0.0
C487 C 0.16689 0.32638 0.78524 0.0
H488 H 0.79572 0.91222 0.98328 0.0
H489 H 0.76438 0.9231 0.83716 0.0
H490 H 0.69805 0.95626 0.85477 0.0
H491 H 0.64705 0.98372 0.9107 0.0
H492 H 0.67707 0.97664 0.05689 0.0
H493 H 0.74373 0.94151 0.04037 0.0
C494 C 0.77445 0.92157 0.95511 0.0
C495 C 0.78665 0.91443 0.90823 0.0
C496 C 0.73516 0.94195 0.96561 0.0
C497 C 0.75745 0.9278 0.87326 0.0
C498 C 0.71885 0.94699 0.88342 0.0
C499 C 0.66796 0.97465 0.93932 0.0
C500 C 0.65566 0.98348 0.9855 0.0
C501 C 0.70711 0.95456 0.92934 0.0
C502 C 0.68448 0.97093 1.02113 0.0
C503 C 0.72309 0.95052 1.0115 0.0
H504 H 0.72627 0.27233 0.39338 0.0
H505 H 0.79031 0.26244 0.26467 0.0
H506 H 0.85423 0.24396 0.30801 0.0
H507 H 0.89093 0.22955 0.3825 0.0
H508 H 0.8241 0.23342 0.51032 0.0
H509 H 0.7626 0.25772 0.46726 0.0
C510 C 0.75434 0.26649 0.37486 0.0
C511 C 0.75388 0.26892 0.32607 0.0
C512 C 0.79047 0.25554 0.39984 0.0
C513 C 0.79013 0.26056 0.30229 0.0
C514 C 0.82655 0.25025 0.32704 0.0
C515 C 0.86295 0.23536 0.40109 0.0
C516 C 0.86256 0.22943 0.44985 0.0
C517 C 0.82698 0.24741 0.37587 0.0
C518 C 0.82595 0.23836 0.47309 0.0
C519 C 0.79043 0.25172 0.4484 0.0
H520 H 0.20257 0.67327 0.19669 0.0
H521 H 0.2715 0.55667 0.20222 0.0
H522 H 0.21992 0.52961 0.15334 0.0
H523 H 0.15612 0.54002 0.10676 0.0
H524 H 0.08737 0.65676 0.10271 0.0
H525 H 0.13859 0.68324 0.15222 0.0
C526 C 0.20626 0.64189 0.18727 0.0
C527 C 0.24087 0.61705 0.20292 0.0
C528 C 0.17688 0.62682 0.15875 0.0
C529 C 0.24494 0.5763 0.19103 0.0
C530 C 0.21569 0.56096 0.16266 0.0
C531 C 0.15264 0.57134 0.11642 0.0
C532 C 0.11828 0.59661 0.10081 0.0
C533 C 0.18179 0.58611 0.1458 0.0
C534 C 0.11371 0.6369 0.11415 0.0
C535 C 0.14285 0.65196 0.1426 0.0
H536 H 0.31184 0.19701 0.66405 0.0
H537 H 0.38377 0.19085 0.79054 0.0
H538 H 0.42705 0.23985 0.75692 0.0
H539 H 0.43385 0.29494 0.6989 0.0
H540 H 0.35796 0.3047 0.57517 0.0
H541 H 0.32718 0.24344 0.5998 0.0
C542 C 0.3382 0.20493 0.68336 0.0
C543 C 0.3446 0.19065 0.72972 0.0
C544 C 0.36145 0.23468 0.6647 0.0
C545 C 0.37845 0.20151 0.75474 0.0
C546 C 0.40276 0.22995 0.73576 0.0
C547 C 0.41114 0.2831 0.67697 0.0
C548 C 0.39753 0.30464 0.63583 0.0
C549 C 0.39287 0.24853 0.69197 0.0
C550 C 0.36877 0.28869 0.60711 0.0
C551 C 0.35101 0.2538 0.62131 0.0
H552 H 0.96552 0.79796 0.89269 0.0
H553 H 0.84784 0.77731 0.9469 0.0
H554 H 0.87526 0.71166 0.97896 0.0
H555 H 0.93258 0.65693 0.99171 0.0
H556 H 0.04882 0.67604 0.93362 0.0
H557 H 1.02191 0.74309 0.90341 0.0
C558 C 0.94515 0.77949 0.91096 0.0
C559 C 0.90367 0.7951 0.9167 0.0
C560 C 0.96115 0.74001 0.92912 0.0
C561 C 0.87966 0.76873 0.9418 0.0
C562 C 0.89545 0.73009 0.96019 0.0
C563 C 0.95228 0.67557 0.97247 0.0
C564 C 0.99343 0.66 0.96558 0.0
C565 C 0.9362 0.71503 0.95421 0.0
C566 C 1.01741 0.68587 0.94009 0.0
C567 C 1.00182 0.72481 0.92255 0.0
H568 H 0.39211 0.68797 0.19268 0.0
H569 H 0.28586 0.76724 0.22032 0.0
H570 H 0.32083 0.82608 0.19418 0.0
H571 H 0.38399 0.85466 0.16961 0.0
H572 H 0.48986 0.77402 0.14276 0.0
H573 H 0.45266 0.71571 0.16205 0.0
C574 C 0.37656 0.71818 0.19222 0.0
C575 C 0.33684 0.72376 0.20839 0.0
C576 C 0.39688 0.75138 0.17767 0.0
C577 C 0.31652 0.76265 0.20775 0.0
C578 C 0.33658 0.7961 0.19315 0.0
C579 C 0.39869 0.82426 0.1678 0.0
C580 C 0.43959 0.81851 0.1551 0.0
C581 C 0.37711 0.79085 0.17908 0.0
C582 C 0.45832 0.77909 0.15219 0.0
C583 C 0.43716 0.74579 0.16342 0.0
H584 H 0.1779 0.16136 0.70503 0.0
H585 H 0.26332 0.06005 0.74548 0.0
H586 H 0.22369 1.01487 0.70153 0.0
H587 H 0.16634 1.0053 0.64817 0.0
H588 H 0.08493 0.10848 0.60309 0.0
H589 H 0.12094 0.1519 0.65259 0.0
C590 C 0.18741 0.12925 0.70471 0.0
C591 C 0.22303 0.11376 0.7287 0.0
C592 C 0.16524 0.10396 0.67841 0.0
C593 C 0.23578 0.07239 0.7273 0.0
C594 C 0.21319 0.04668 0.70221 0.0
C595 C 0.15636 0.03721 0.64968 0.0
C596 C 0.12304 0.05383 0.62221 0.0
C597 C 0.1781 0.06224 0.67716 0.0
C598 C 0.11058 0.09521 0.62388 0.0
C599 C 0.13115 0.12 0.65215 0.0
H600 H 0.58674 0.31632 0.35235 0.0
H601 H 0.66146 0.40208 0.28921 0.0
H602 H 0.63469 0.45388 0.3413 0.0
H603 H 0.59742 0.47151 0.41128 0.0
H604 H 0.52253 0.38645 0.47574 0.0
H605 H 0.54196 0.33735 0.41683 0.0
C606 C 0.59583 0.34685 0.34901 0.0
C607 C 0.62565 0.35576 0.31699 0.0
C608 C 0.58123 0.37603 0.38012 0.0
C609 C 0.63811 0.39499 0.31336 0.0
C610 C 0.62325 0.42433 0.3435 0.0
C611 C 0.58526 0.44224 0.4123 0.0
C612 C 0.55944 0.43206 0.44823 0.0
C613 C 0.59614 0.41463 0.3782 0.0
C614 C 0.5429 0.39462 0.44859 0.0
C615 C 0.55394 0.36665 0.41492 0.0
loop_
_geom_bond_atom_site_label_1
_geom_bond_atom_site_label_2
_geom_bond_distance
_geom_bond_site_symmetry_2
_ccdc_geom_bond_type
H0 C3 0.931 . S
H1 C6 0.928 . S
H2 C8 0.930 . S
C3 H0 0.931 . S
C3 C4 1.413 . S
C3 C5 1.360 . S
C4 C3 1.413 . S
C4 C8 1.429 . S
C5 C3 1.360 . S
C5 C6 1.372 . S
C6 H1 0.928 . S
C6 C5 1.372 . S
C6 C7 1.404 . S
C7 C6 1.404 . S
C7 C8 1.391 . S
C8 H2 0.930 . S
C8 C4 1.429 . S
C8 C7 1.391 . S
H9 C12 0.931 . S
H10 C15 0.928 . S
H11 C17 0.930 . S
C12 H9 0.931 . S
C12 C13 1.413 . S
C12 C14 1.360 . S
C13 C12 1.413 . S
C13 C17 1.429 . S
C14 C12 1.360 . S
C14 C15 1.372 . S
C15 H10 0.928 . S
C15 C14 1.372 . S
C15 C16 1.404 . S
C16 C15 1.404 . S
C16 C17 1.391 . S
C17 H11 0.930 . S
C17 C13 1.429 . S
C17 C16 1.391 . S
H18 C21 0.931 . S
H19 C24 0.928 . S
H20 C26 0.930 . S
C21 H18 0.931 . S
C21 C22 1.413 . S
C21 C23 1.360 . S
C22 C21 1.413 . S
C22 C26 1.429 . S
C23 C21 1.360 . S
C23 C24 1.372 . S
C24 H19 0.928 . S
C24 C23 1.372 . S
C24 C25 1.404 . S
C25 C24 1.404 . S
C25 C26 1.391 . S
C26 H20 0.930 . S
C26 C22 1.429 . S
C26 C25 1.391 . S
H27 C30 0.931 . S
H28 C33 0.928 . S
H29 C35 0.930 . S
C30 H27 0.931 . S
C30 C31 1.413 . S
C30 C32 1.360 . S
C31 C30 1.413 . S
C31 C35 1.429 . S
C32 C30 1.360 . S
C32 C33 1.372 . S
C33 H28 0.928 . S
C33 C32 1.372 . S
C33 C34 1.404 . S
C34 C33 1.404 . S
C34 C35 1.391 . S
C35 H29 0.930 . S
C35 C31 1.429 . S
C35 C34 1.391 . S
H36 C39 0.931 . S
H37 C42 0.928 . S
H38 C44 0.930 . S
C39 H36 0.931 . S
C39 C40 1.413 . S
C39 C41 1.360 . S
C40 C39 1.413 . S
C40 C44 1.429 . S
C41 C39 1.360 . S
C41 C42 1.372 . S
C42 H37 0.928 . S
C42 C41 1.372 . S
C42 C43 1.404 . S
C43 C42 1.404 . S
C43 C44 1.391 . S
C44 H38 0.930 . S
C44 C40 1.429 . S
C44 C43 1.391 . S
H45 C48 0.931 . S
H46 C51 0.928 . S
H47 C53 0.930 . S
C48 H45 0.931 . S
C48 C49 1.413 . S
C48 C50 1.360 . S
C49 C48 1.413 . S
C49 C53 1.429 . S
C50 C48 1.360 . S
C50 C51 1.372 . S
C51 H46 0.928 . S
C51 C50 1.372 . S
C51 C52 1.404 . S
C52 C51 1.404 . S
C52 C53 1.391 . S
C53 H47 0.930 . S
C53 C49 1.429 . S
C53 C52 1.391 . S
H54 C57 0.931 . S
H55 C60 0.928 . S
H56 C62 0.930 . S
C57 H54 0.931 . S
C57 C58 1.413 . S
C57 C59 1.360 . S
C58 C57 1.413 . S
C58 C62 1.429 . S
C59 C57 1.360 . S
C59 C60 1.372 . S
C60 H55 0.928 . S
C60 C59 1.372 . S
C60 C61 1.404 . S
C61 C60 1.404 . S
C61 C62 1.391 . S
C62 H56 0.930 . S
C62 C58 1.429 . S
C62 C61 1.391 . S
H63 C66 0.931 . S
H64 C69 0.928 . S
H65 C71 0.930 . S
C66 H63 0.931 . S
C66 C67 1.413 . S
C66 C68 1.360 . S
C67 C66 1.413 . S
C67 C71 1.429 . S
C68 C66 1.360 . S
C68 C69 1.372 . S
C69 H64 0.928 . S
C69 C68 1.372 . S
C69 C70 1.404 . S
C70 C69 1.404 . S
C70 C71 1.391 . S
C71 H65 0.930 . S
C71 C67 1.429 . S
C71 C70 1.391 . S
Nd72 C74 2.836 . S
Nd72 O92 2.500 . S
Nd72 O93 2.492 . S
Nd72 O94 2.487 1_565 S
Nd72 O95 2.682 1_565 S
Nd72 O96 2.410 . S
Nd72 O101 2.414 1_455 S
Nd72 O103 2.424 1_565 S
Nd73 C83 2.836 . S
Nd73 O95 2.414 1_655 S
Nd73 O97 2.424 1_545 S
Nd73 O98 2.500 . S
Nd73 O99 2.492 . S
Nd73 O100 2.487 1_545 S
Nd73 O101 2.682 1_545 S
Nd73 O102 2.410 . S
C74 Nd72 2.836 . S
C74 C75 1.498 . S
C74 O92 1.258 . S
C74 O93 1.239 . S
C75 C74 1.498 . S
C75 C76 1.366 . S
C75 C80 1.407 . S
C76 C75 1.366 . S
C76 C77 1.392 . S
C76 H104 0.930 . S
C77 C76 1.392 . S
C77 C78 1.398 . S
C77 H105 0.929 . S
C78 C77 1.398 . S
C78 C79 1.352 . S
C79 C78 1.352 . S
C79 C80 1.384 . S
C79 H106 0.930 . S
C80 C75 1.407 . S
C80 C79 1.384 . S
C80 H107 0.929 . S
C81 O94 1.241 . S
C81 O95 1.273 . S
C82 O96 1.251 1_655 S
C82 O97 1.268 . S
C83 Nd73 2.836 . S
C83 C84 1.498 . S
C83 O98 1.258 . S
C83 O99 1.239 . S
C84 C83 1.498 . S
C84 C85 1.366 . S
C84 C89 1.407 . S
C85 C84 1.366 . S
C85 C86 1.392 . S
C85 H108 0.930 . S
C86 C85 1.392 . S
C86 C87 1.398 . S
C86 H109 0.929 . S
C87 C86 1.398 . S
C87 C88 1.352 . S
C88 C87 1.352 . S
C88 C89 1.384 . S
C88 H110 0.930 . S
C89 C84 1.407 . S
C89 C88 1.384 . S
C89 H111 0.929 . S
C90 O100 1.241 . S
C90 O101 1.273 . S
C91 O102 1.251 1_455 S
C91 O103 1.268 . S
O92 Nd72 2.500 . S
O92 C74 1.258 . S
O93 Nd72 2.492 . S
O93 C74 1.239 . S
O94 Nd72 2.487 1_545 S
O94 C81 1.241 . S
O95 Nd72 2.682 1_545 S
O95 Nd73 2.414 1_455 S
O95 C81 1.273 . S
O96 Nd72 2.410 . S
O96 C82 1.251 1_455 S
O97 Nd73 2.424 1_565 S
O97 C82 1.268 . S
O98 Nd73 2.500 . S
O98 C83 1.258 . S
O99 Nd73 2.492 . S
O99 C83 1.239 . S
O100 Nd73 2.487 1_565 S
O100 C90 1.241 . S
O101 Nd72 2.414 1_655 S
O101 Nd73 2.682 1_565 S
O101 C90 1.273 . S
O102 Nd73 2.410 . S
O102 C91 1.251 1_655 S
O103 Nd72 2.424 1_545 S
O103 C91 1.268 . S
H104 C76 0.930 . S
H105 C77 0.929 . S
H106 C79 0.930 . S
H107 C80 0.929 . S
H108 C85 0.930 . S
H109 C86 0.929 . S
H110 C88 0.930 . S
H111 C89 0.929 . S
Nd112 C114 2.836 . S
Nd112 O132 2.500 . S
Nd112 O133 2.492 . S
Nd112 O134 2.487 1_565 S
Nd112 O135 2.682 1_565 S
Nd112 O136 2.410 1_554 S
Nd112 O141 2.414 1_554 S
Nd112 O143 2.424 1_565 S
Nd113 C123 2.836 . S
Nd113 O135 2.414 1_556 S
Nd113 O137 2.424 1_545 S
Nd113 O138 2.500 . S
Nd113 O139 2.492 . S
Nd113 O140 2.487 1_545 S
Nd113 O141 2.682 1_545 S
Nd113 O142 2.410 1_556 S
C114 Nd112 2.836 . S
C114 C115 1.498 . S
C114 O132 1.258 . S
C114 O133 1.239 . S
C115 C114 1.498 . S
C115 C116 1.366 . S
C115 C120 1.407 . S
C116 C115 1.366 . S
C116 C117 1.392 . S
C116 H144 0.930 . S
C117 C116 1.392 . S
C117 C118 1.398 . S
C117 H145 0.929 . S
C118 C117 1.398 . S
C118 C119 1.352 . S
C119 C118 1.352 . S
C119 C120 1.384 . S
C119 H146 0.930 . S
C120 C115 1.407 . S
C120 C119 1.384 . S
C120 H147 0.929 . S
C121 O134 1.241 . S
C121 O135 1.273 . S
C122 O136 1.251 . S
C122 O137 1.268 . S
C123 Nd113 2.836 . S
C123 C124 1.498 . S
C123 O138 1.258 . S
C123 O139 1.239 . S
C124 C123 1.498 . S
C124 C125 1.366 . S
C124 C129 1.407 . S
C125 C124 1.366 . S
C125 C126 1.392 . S
C125 H148 0.930 . S
C126 C125 1.392 . S
C126 C127 1.398 . S
C126 H149 0.929 . S
C127 C126 1.398 . S
C127 C128 1.352 . S
C128 C127 1.352 . S
C128 C129 1.384 . S
C128 H150 0.930 . S
C129 C124 1.407 . S
C129 C128 1.384 . S
C129 H151 0.929 . S
C130 O140 1.241 . S
C130 O141 1.273 . S
C131 O142 1.251 . S
C131 O143 1.268 . S
O132 Nd112 2.500 . S
O132 C114 1.258 . S
O133 Nd112 2.492 . S
O133 C114 1.239 . S
O134 Nd112 2.487 1_545 S
O134 C121 1.241 . S
O135 Nd112 2.682 1_545 S
O135 Nd113 2.414 1_554 S
O135 C121 1.273 . S
O136 Nd112 2.410 1_556 S
O136 C122 1.251 . S
O137 Nd113 2.424 1_565 S
O137 C122 1.268 . S
O138 Nd113 2.500 . S
O138 C123 1.258 . S
O139 Nd113 2.492 . S
O139 C123 1.239 . S
O140 Nd113 2.487 1_565 S
O140 C130 1.241 . S
O141 Nd112 2.414 1_556 S
O141 Nd113 2.682 1_565 S
O141 C130 1.273 . S
O142 Nd113 2.410 1_554 S
O142 C131 1.251 . S
O143 Nd112 2.424 1_545 S
O143 C131 1.268 . S
H144 C116 0.930 . S
H145 C117 0.929 . S
H146 C119 0.930 . S
H147 C120 0.929 . S
H148 C125 0.930 . S
H149 C126 0.929 . S
H150 C128 0.930 . S
H151 C129 0.929 . S
Nd152 C154 2.836 . S
Nd152 O172 2.500 . S
Nd152 O173 2.492 . S
Nd152 O174 2.487 . S
Nd152 O175 2.682 . S
Nd152 O176 2.410 . S
Nd152 O181 2.414 . S
Nd152 O183 2.424 . S
Nd153 C163 2.836 . S
Nd153 O175 2.414 . S
Nd153 O177 2.424 . S
Nd153 O178 2.500 . S
Nd153 O179 2.492 . S
Nd153 O180 2.487 . S
Nd153 O181 2.682 . S
Nd153 O182 2.410 . S
C154 Nd152 2.836 . S
C154 C155 1.498 . S
C154 O172 1.258 . S
C154 O173 1.239 . S
C155 C154 1.498 . S
C155 C156 1.366 . S
C155 C160 1.407 . S
C156 C155 1.366 . S
C156 C157 1.392 . S
C156 H184 0.930 . S
C157 C156 1.392 . S
C157 C158 1.398 . S
C157 H185 0.929 . S
C158 C157 1.398 . S
C158 C159 1.352 . S
C159 C158 1.352 . S
C159 C160 1.384 . S
C159 H186 0.930 . S
C160 C155 1.407 . S
C160 C159 1.384 . S
C160 H187 0.929 . S
C161 O174 1.241 . S
C161 O175 1.273 . S
C162 O176 1.251 . S
C162 O177 1.268 . S
C163 Nd153 2.836 . S
C163 C164 1.498 . S
C163 O178 1.258 . S
C163 O179 1.239 . S
C164 C163 1.498 . S
C164 C165 1.366 . S
C164 C169 1.407 . S
C165 C164 1.366 . S
C165 C166 1.392 . S
C165 H188 0.930 . S
C166 C165 1.392 . S
C166 C167 1.398 . S
C166 H189 0.929 . S
C167 C166 1.398 . S
C167 C168 1.352 . S
C168 C167 1.352 . S
C168 C169 1.384 . S
C168 H190 0.930 . S
C169 C164 1.407 . S
C169 C168 1.384 . S
C169 H191 0.929 . S
C170 O180 1.241 . S
C170 O181 1.273 . S
C171 O182 1.251 . S
C171 O183 1.268 . S
O172 Nd152 2.500 . S
O172 C154 1.258 . S
O173 Nd152 2.492 . S
O173 C154 1.239 . S
O174 Nd152 2.487 . S
O174 C161 1.241 . S
O175 Nd152 2.682 . S
O175 Nd153 2.414 . S
O175 C161 1.273 . S
O176 Nd152 2.410 . S
O176 C162 1.251 . S
O177 Nd153 2.424 . S
O177 C162 1.268 . S
O178 Nd153 2.500 . S
O178 C163 1.258 . S
O179 Nd153 2.492 . S
O179 C163 1.239 . S
O180 Nd153 2.487 . S
O180 C170 1.241 . S
O181 Nd152 2.414 . S
O181 Nd153 2.682 . S
O181 C170 1.273 . S
O182 Nd153 2.410 . S
O182 C171 1.251 . S
O183 Nd152 2.424 . S
O183 C171 1.268 . S
H184 C156 0.930 . S
H185 C157 0.929 . S
H186 C159 0.930 . S
H187 C160 0.929 . S
H188 C165 0.930 . S
H189 C166 0.929 . S
H190 C168 0.930 . S
H191 C169 0.929 . S
Nd192 C194 2.836 . S
Nd192 O212 2.500 . S
Nd192 O213 2.492 . S
Nd192 O214 2.487 1_655 S
Nd192 O215 2.682 1_655 S
Nd192 O216 2.410 . S
Nd192 O221 2.414 1_554 S
Nd192 O223 2.424 1_655 S
Nd193 C203 2.836 . S
Nd193 O215 2.414 1_556 S
Nd193 O217 2.424 1_455 S
Nd193 O218 2.500 . S
Nd193 O219 2.492 . S
Nd193 O220 2.487 1_455 S
Nd193 O221 2.682 1_455 S
Nd193 O222 2.410 . S
C194 Nd192 2.836 . S
C194 C195 1.498 . S
C194 O212 1.258 . S
C194 O213 1.239 . S
C195 C194 1.498 . S
C195 C196 1.366 . S
C195 C200 1.407 . S
C196 C195 1.366 . S
C196 C197 1.392 . S
C196 H224 0.930 . S
C197 C196 1.392 . S
C197 C198 1.398 . S
C197 H225 0.929 . S
C198 C197 1.398 . S
C198 C199 1.352 . S
C199 C198 1.352 . S
C199 C200 1.384 . S
C199 H226 0.930 . S
C200 C195 1.407 . S
C200 C199 1.384 . S
C200 H227 0.929 . S
C201 O214 1.241 . S
C201 O215 1.273 . S
C202 O216 1.251 1_556 S
C202 O217 1.268 . S
C203 Nd193 2.836 . S
C203 C204 1.498 . S
C203 O218 1.258 . S
C203 O219 1.239 . S
C204 C203 1.498 . S
C204 C205 1.366 . S
C204 C209 1.407 . S
C205 C204 1.366 . S
C205 C206 1.392 . S
C205 H228 0.930 . S
C206 C205 1.392 . S
C206 C207 1.398 . S
C206 H229 0.929 . S
C207 C206 1.398 . S
C207 C208 1.352 . S
C208 C207 1.352 . S
C208 C209 1.384 . S
C208 H230 0.930 . S
C209 C204 1.407 . S
C209 C208 1.384 . S
C209 H231 0.929 . S
C210 O220 1.241 . S
C210 O221 1.273 . S
C211 O222 1.251 1_554 S
C211 O223 1.268 . S
O212 Nd192 2.500 . S
O212 C194 1.258 . S
O213 Nd192 2.492 . S
O213 C194 1.239 . S
O214 Nd192 2.487 1_455 S
O214 C201 1.241 . S
O215 Nd192 2.682 1_455 S
O215 Nd193 2.414 1_554 S
O215 C201 1.273 . S
O216 Nd192 2.410 . S
O216 C202 1.251 1_554 S
O217 Nd193 2.424 1_655 S
O217 C202 1.268 . S
O218 Nd193 2.500 . S
O218 C203 1.258 . S
O219 Nd193 2.492 . S
O219 C203 1.239 . S
O220 Nd193 2.487 1_655 S
O220 C210 1.241 . S
O221 Nd192 2.414 1_556 S
O221 Nd193 2.682 1_655 S
O221 C210 1.273 . S
O222 Nd193 2.410 . S
O222 C211 1.251 1_556 S
O223 Nd192 2.424 1_455 S
O223 C211 1.268 . S
H224 C196 0.930 . S
H225 C197 0.929 . S
H226 C199 0.930 . S
H227 C200 0.929 . S
H228 C205 0.930 . S
H229 C206 0.929 . S
H230 C208 0.930 . S
H231 C209 0.929 . S
H232 C238 0.930 . S
H233 C241 0.930 . S
H234 C242 0.930 . S
H235 C243 0.930 . S
H236 C246 0.930 . S
H237 C247 0.930 . S
C238 H232 0.930 . S
C238 C239 1.355 . S
C238 C240 1.415 . S
C239 C238 1.355 . S
C239 C241 1.419 . S
C240 C238 1.415 . S
C240 C245 1.425 . S
C240 C247 1.409 . S
C241 H233 0.930 . S
C241 C239 1.419 . S
C241 C242 1.362 . S
C242 H234 0.930 . S
C242 C241 1.362 . S
C242 C245 1.409 . S
C243 H235 0.930 . S
C243 C244 1.355 . S
C243 C245 1.415 . S
C244 C243 1.355 . S
C244 C246 1.419 . S
C245 C240 1.425 . S
C245 C242 1.409 . S
C245 C243 1.415 . S
C246 H236 0.930 . S
C246 C244 1.419 . S
C246 C247 1.362 . S
C247 H237 0.930 . S
C247 C240 1.409 . S
C247 C246 1.362 . S
H248 C254 0.930 . S
H249 C257 0.930 . S
H250 C258 0.930 . S
H251 C259 0.930 . S
H252 C262 0.930 . S
H253 C263 0.930 . S
C254 H248 0.930 . S
C254 C255 1.355 . S
C254 C256 1.415 . S
C255 C254 1.355 . S
C255 C257 1.419 . S
C256 C254 1.415 . S
C256 C261 1.425 . S
C256 C263 1.409 . S
C257 H249 0.930 . S
C257 C255 1.419 . S
C257 C258 1.362 . S
C258 H250 0.930 . S
C258 C257 1.362 . S
C258 C261 1.409 . S
C259 H251 0.930 . S
C259 C260 1.355 . S
C259 C261 1.415 . S
C260 C259 1.355 . S
C260 C262 1.419 . S
C261 C256 1.425 . S
C261 C258 1.409 . S
C261 C259 1.415 . S
C262 H252 0.930 . S
C262 C260 1.419 . S
C262 C263 1.362 . S
C263 H253 0.930 . S
C263 C256 1.409 . S
C263 C262 1.362 . S
H264 C270 0.930 . S
H265 C273 0.930 . S
H266 C274 0.930 . S
H267 C275 0.930 . S
H268 C278 0.930 . S
H269 C279 0.930 . S
C270 H264 0.930 . S
C270 C271 1.355 . S
C270 C272 1.415 . S
C271 C270 1.355 . S
C271 C273 1.419 . S
C272 C270 1.415 . S
C272 C277 1.425 . S
C272 C279 1.409 . S
C273 H265 0.930 . S
C273 C271 1.419 . S
C273 C274 1.362 . S
C274 H266 0.930 . S
C274 C273 1.362 . S
C274 C277 1.409 . S
C275 H267 0.930 . S
C275 C276 1.355 . S
C275 C277 1.415 . S
C276 C275 1.355 . S
C276 C278 1.419 . S
C277 C272 1.425 . S
C277 C274 1.409 . S
C277 C275 1.415 . S
C278 H268 0.930 . S
C278 C276 1.419 . S
C278 C279 1.362 . S
C279 H269 0.930 . S
C279 C272 1.409 . S
C279 C278 1.362 . S
H280 C286 0.930 . S
H281 C289 0.930 . S
H282 C290 0.930 . S
H283 C291 0.930 . S
H284 C294 0.930 . S
H285 C295 0.930 . S
C286 H280 0.930 . S
C286 C287 1.355 . S
C286 C288 1.415 . S
C287 C286 1.355 . S
C287 C289 1.419 . S
C288 C286 1.415 . S
C288 C293 1.425 . S
C288 C295 1.409 . S
C289 H281 0.930 . S
C289 C287 1.419 . S
C289 C290 1.362 . S
C290 H282 0.930 . S
C290 C289 1.362 . S
C290 C293 1.409 . S
C291 H283 0.930 . S
C291 C292 1.355 . S
C291 C293 1.415 . S
C292 C291 1.355 . S
C292 C294 1.419 . S
C293 C288 1.425 . S
C293 C290 1.409 . S
C293 C291 1.415 . S
C294 H284 0.930 . S
C294 C292 1.419 . S
C294 C295 1.362 . S
C295 H285 0.930 . S
C295 C288 1.409 . S
C295 C294 1.362 . S
H296 C302 0.930 . S
H297 C305 0.930 . S
H298 C306 0.930 . S
H299 C307 0.930 . S
H300 C310 0.930 . S
H301 C311 0.930 . S
C302 H296 0.930 . S
C302 C303 1.355 . S
C302 C304 1.415 . S
C303 C302 1.355 . S
C303 C305 1.419 . S
C304 C302 1.415 . S
C304 C309 1.425 . S
C304 C311 1.409 . S
C305 H297 0.930 . S
C305 C303 1.419 . S
C305 C306 1.362 . S
C306 H298 0.930 . S
C306 C305 1.362 . S
C306 C309 1.409 . S
C307 H299 0.930 . S
C307 C308 1.355 . S
C307 C309 1.415 . S
C308 C307 1.355 . S
C308 C310 1.419 . S
C309 C304 1.425 . S
C309 C306 1.409 . S
C309 C307 1.415 . S
C310 H300 0.930 . S
C310 C308 1.419 . S
C310 C311 1.362 . S
C311 H301 0.930 . S
C311 C304 1.409 . S
C311 C310 1.362 . S
H312 C318 0.930 . S
H313 C321 0.930 . S
H314 C322 0.930 . S
H315 C323 0.930 . S
H316 C326 0.930 . S
H317 C327 0.930 . S
C318 H312 0.930 . S
C318 C319 1.355 . S
C318 C320 1.415 . S
C319 C318 1.355 . S
C319 C321 1.419 . S
C320 C318 1.415 . S
C320 C325 1.425 . S
C320 C327 1.409 . S
C321 H313 0.930 . S
C321 C319 1.419 . S
C321 C322 1.362 . S
C322 H314 0.930 . S
C322 C321 1.362 . S
C322 C325 1.409 . S
C323 H315 0.930 . S
C323 C324 1.355 . S
C323 C325 1.415 . S
C324 C323 1.355 . S
C324 C326 1.419 . S
C325 C320 1.425 . S
C325 C322 1.409 . S
C325 C323 1.415 . S
C326 H316 0.930 . S
C326 C324 1.419 . S
C326 C327 1.362 . S
C327 H317 0.930 . S
C327 C320 1.409 . S
C327 C326 1.362 . S
H328 C334 0.930 . S
H329 C337 0.930 . S
H330 C338 0.930 . S
H331 C339 0.930 . S
H332 C342 0.930 . S
H333 C343 0.930 . S
C334 H328 0.930 . S
C334 C335 1.355 . S
C334 C336 1.415 . S
C335 C334 1.355 . S
C335 C337 1.419 . S
C336 C334 1.415 . S
C336 C341 1.425 . S
C336 C343 1.409 . S
C337 H329 0.930 . S
C337 C335 1.419 . S
C337 C338 1.362 . S
C338 H330 0.930 . S
C338 C337 1.362 . S
C338 C341 1.409 . S
C339 H331 0.930 . S
C339 C340 1.355 . S
C339 C341 1.415 . S
C340 C339 1.355 . S
C340 C342 1.419 . S
C341 C336 1.425 . S
C341 C338 1.409 . S
C341 C339 1.415 . S
C342 H332 0.930 . S
C342 C340 1.419 . S
C342 C343 1.362 . S
C343 H333 0.930 . S
C343 C336 1.409 . S
C343 C342 1.362 . S
H344 C350 0.930 . S
H345 C353 0.930 . S
H346 C354 0.930 . S
H347 C355 0.930 . S
H348 C358 0.930 . S
H349 C359 0.930 . S
C350 H344 0.930 . S
C350 C351 1.355 . S
C350 C352 1.415 . S
C351 C350 1.355 . S
C351 C353 1.419 . S
C352 C350 1.415 . S
C352 C357 1.425 . S
C352 C359 1.409 . S
C353 H345 0.930 . S
C353 C351 1.419 . S
C353 C354 1.362 . S
C354 H346 0.930 . S
C354 C353 1.362 . S
C354 C357 1.409 . S
C355 H347 0.930 . S
C355 C356 1.355 . S
C355 C357 1.415 . S
C356 C355 1.355 . S
C356 C358 1.419 . S
C357 C352 1.425 . S
C357 C354 1.409 . S
C357 C355 1.415 . S
C358 H348 0.930 . S
C358 C356 1.419 . S
C358 C359 1.362 . S
C359 H349 0.930 . S
C359 C352 1.409 . S
C359 C358 1.362 . S
H360 C366 0.930 . S
H361 C369 0.930 . S
H362 C370 0.930 . S
H363 C371 0.930 . S
H364 C374 0.930 . S
H365 C375 0.930 . S
C366 H360 0.930 . S
C366 C367 1.355 . S
C366 C368 1.415 . S
C367 C366 1.355 . S
C367 C369 1.419 . S
C368 C366 1.415 . S
C368 C373 1.425 . S
C368 C375 1.409 . S
C369 H361 0.930 . S
C369 C367 1.419 . S
C369 C370 1.362 . S
C370 H362 0.930 . S
C370 C369 1.362 . S
C370 C373 1.409 . S
C371 H363 0.930 . S
C371 C372 1.355 . S
C371 C373 1.415 . S
C372 C371 1.355 . S
C372 C374 1.419 . S
C373 C368 1.425 . S
C373 C370 1.409 . S
C373 C371 1.415 . S
C374 H364 0.930 . S
C374 C372 1.419 . S
C374 C375 1.362 . S
C375 H365 0.930 . S
C375 C368 1.409 . S
C375 C374 1.362 . S
H376 C382 0.930 . S
H377 C385 0.930 . S
H378 C386 0.930 . S
H379 C387 0.930 . S
H380 C390 0.930 . S
H381 C391 0.930 . S
C382 H376 0.930 . S
C382 C383 1.355 . S
C382 C384 1.415 . S
C383 C382 1.355 . S
C383 C385 1.419 . S
C384 C382 1.415 . S
C384 C389 1.425 . S
C384 C391 1.409 . S
C385 H377 0.930 . S
C385 C383 1.419 . S
C385 C386 1.362 . S
C386 H378 0.930 . S
C386 C385 1.362 . S
C386 C389 1.409 . S
C387 H379 0.930 . S
C387 C388 1.355 . S
C387 C389 1.415 . S
C388 C387 1.355 . S
C388 C390 1.419 . S
C389 C384 1.425 . S
C389 C386 1.409 . S
C389 C387 1.415 . S
C390 H380 0.930 . S
C390 C388 1.419 . S
C390 C391 1.362 . S
C391 H381 0.930 . S
C391 C384 1.409 . S
C391 C390 1.362 . S
H392 C398 0.930 . S
H393 C401 0.930 . S
H394 C402 0.930 . S
H395 C403 0.930 . S
H396 C406 0.930 1_455 S
H397 C407 0.930 . S
C398 H392 0.930 . S
C398 C399 1.355 . S
C398 C400 1.415 . S
C399 C398 1.355 . S
C399 C401 1.419 . S
C400 C398 1.415 . S
C400 C405 1.425 . S
C400 C407 1.409 . S
C401 H393 0.930 . S
C401 C399 1.419 . S
C401 C402 1.362 . S
C402 H394 0.930 . S
C402 C401 1.362 . S
C402 C405 1.409 . S
C403 H395 0.930 . S
C403 C404 1.355 . S
C403 C405 1.415 . S
C404 C403 1.355 . S
C404 C406 1.419 . S
C405 C400 1.425 . S
C405 C402 1.409 . S
C405 C403 1.415 . S
C406 H396 0.930 1_655 S
C406 C404 1.419 . S
C406 C407 1.362 . S
C407 H397 0.930 . S
C407 C400 1.409 . S
C407 C406 1.362 . S
H408 C414 0.930 . S
H409 C417 0.930 . S
H410 C418 0.930 . S
H411 C419 0.930 . S
H412 C422 0.930 . S
H413 C423 0.930 . S
C414 H408 0.930 . S
C414 C415 1.355 . S
C414 C416 1.415 . S
C415 C414 1.355 . S
C415 C417 1.419 . S
C416 C414 1.415 . S
C416 C421 1.425 . S
C416 C423 1.409 . S
C417 H409 0.930 . S
C417 C415 1.419 . S
C417 C418 1.362 . S
C418 H410 0.930 . S
C418 C417 1.362 . S
C418 C421 1.409 . S
C419 H411 0.930 . S
C419 C420 1.355 . S
C419 C421 1.415 . S
C420 C419 1.355 . S
C420 C422 1.419 . S
C421 C416 1.425 . S
C421 C418 1.409 . S
C421 C419 1.415 . S
C422 H412 0.930 . S
C422 C420 1.419 . S
C422 C423 1.362 . S
C423 H413 0.930 . S
C423 C416 1.409 . S
C423 C422 1.362 . S
H424 C430 0.930 . S
H425 C433 0.930 . S
H426 C434 0.930 . S
H427 C435 0.930 . S
H428 C438 0.930 . S
H429 C439 0.930 . S
C430 H424 0.930 . S
C430 C431 1.355 . S
C430 C432 1.415 . S
C431 C430 1.355 . S
C431 C433 1.419 . S
C432 C430 1.415 . S
C432 C437 1.425 . S
C432 C439 1.409 . S
C433 H425 0.930 . S
C433 C431 1.419 . S
C433 C434 1.362 . S
C434 H426 0.930 . S
C434 C433 1.362 . S
C434 C437 1.409 . S
C435 H427 0.930 . S
C435 C436 1.355 . S
C435 C437 1.415 . S
C436 C435 1.355 . S
C436 C438 1.419 . S
C437 C432 1.425 . S
C437 C434 1.409 . S
C437 C435 1.415 . S
C438 H428 0.930 . S
C438 C436 1.419 . S
C438 C439 1.362 . S
C439 H429 0.930 . S
C439 C432 1.409 . S
C439 C438 1.362 . S
H440 C446 0.930 . S
H441 C449 0.930 . S
H442 C450 0.930 . S
H443 C451 0.930 . S
H444 C454 0.930 . S
H445 C455 0.930 . S
C446 H440 0.930 . S
C446 C447 1.355 . S
C446 C448 1.415 . S
C447 C446 1.355 . S
C447 C449 1.419 . S
C448 C446 1.415 . S
C448 C453 1.425 . S
C448 C455 1.409 . S
C449 H441 0.930 . S
C449 C447 1.419 . S
C449 C450 1.362 . S
C450 H442 0.930 . S
C450 C449 1.362 . S
C450 C453 1.409 . S
C451 H443 0.930 . S
C451 C452 1.355 . S
C451 C453 1.415 . S
C452 C451 1.355 . S
C452 C454 1.419 . S
C453 C448 1.425 . S
C453 C450 1.409 . S
C453 C451 1.415 . S
C454 H444 0.930 . S
C454 C452 1.419 . S
C454 C455 1.362 . S
C455 H445 0.930 . S
C455 C448 1.409 . S
C455 C454 1.362 . S
H456 C462 0.930 . S
H457 C465 0.930 . S
H458 C466 0.930 . S
H459 C467 0.930 . S
H460 C470 0.930 . S
H461 C471 0.930 . S
C462 H456 0.930 . S
C462 C463 1.355 . S
C462 C464 1.415 . S
C463 C462 1.355 . S
C463 C465 1.419 . S
C464 C462 1.415 . S
C464 C469 1.425 . S
C464 C471 1.409 . S
C465 H457 0.930 . S
C465 C463 1.419 . S
C465 C466 1.362 . S
C466 H458 0.930 . S
C466 C465 1.362 . S
C466 C469 1.409 . S
C467 H459 0.930 . S
C467 C468 1.355 . S
C467 C469 1.415 . S
C468 C467 1.355 . S
C468 C470 1.419 . S
C469 C464 1.425 . S
C469 C466 1.409 . S
C469 C467 1.415 . S
C470 H460 0.930 . S
C470 C468 1.419 . S
C470 C471 1.362 . S
C471 H461 0.930 . S
C471 C464 1.409 . S
C471 C470 1.362 . S
H472 C478 0.930 . S
H473 C481 0.930 . S
H474 C482 0.930 . S
H475 C483 0.930 . S
H476 C486 0.930 . S
H477 C487 0.930 . S
C478 H472 0.930 . S
C478 C479 1.355 . S
C478 C480 1.415 . S
C479 C478 1.355 . S
C479 C481 1.419 . S
C480 C478 1.415 . S
C480 C485 1.425 . S
C480 C487 1.409 . S
C481 H473 0.930 . S
C481 C479 1.419 . S
C481 C482 1.362 . S
C482 H474 0.930 . S
C482 C481 1.362 . S
C482 C485 1.409 . S
C483 H475 0.930 . S
C483 C484 1.355 . S
C483 C485 1.415 . S
C484 C483 1.355 . S
C484 C486 1.419 . S
C485 C480 1.425 . S
C485 C482 1.409 . S
C485 C483 1.415 . S
C486 H476 0.930 . S
C486 C484 1.419 . S
C486 C487 1.362 . S
C487 H477 0.930 . S
C487 C480 1.409 . S
C487 C486 1.362 . S
H488 C494 0.930 . S
H489 C497 0.930 . S
H490 C498 0.930 . S
H491 C499 0.930 . S
H492 C502 0.930 . S
H493 C503 0.930 . S
C494 H488 0.930 . S
C494 C495 1.355 . S
C494 C496 1.415 . S
C495 C494 1.355 . S
C495 C497 1.419 . S
C496 C494 1.415 . S
C496 C501 1.425 . S
C496 C503 1.409 . S
C497 H489 0.930 . S
C497 C495 1.419 . S
C497 C498 1.362 . S
C498 H490 0.930 . S
C498 C497 1.362 . S
C498 C501 1.409 . S
C499 H491 0.930 . S
C499 C500 1.355 . S
C499 C501 1.415 . S
C500 C499 1.355 . S
C500 C502 1.419 . S
C501 C496 1.425 . S
C501 C498 1.409 . S
C501 C499 1.415 . S
C502 H492 0.930 . S
C502 C500 1.419 . S
C502 C503 1.362 . S
C503 H493 0.930 . S
C503 C496 1.409 . S
C503 C502 1.362 . S
H504 C510 0.930 . S
H505 C513 0.930 . S
H506 C514 0.930 . S
H507 C515 0.930 . S
H508 C518 0.930 . S
H509 C519 0.930 . S
C510 H504 0.930 . S
C510 C511 1.355 . S
C510 C512 1.415 . S
C511 C510 1.355 . S
C511 C513 1.419 . S
C512 C510 1.415 . S
C512 C517 1.425 . S
C512 C519 1.409 . S
C513 H505 0.930 . S
C513 C511 1.419 . S
C513 C514 1.362 . S
C514 H506 0.930 . S
C514 C513 1.362 . S
C514 C517 1.409 . S
C515 H507 0.930 . S
C515 C516 1.355 . S
C515 C517 1.415 . S
C516 C515 1.355 . S
C516 C518 1.419 . S
C517 C512 1.425 . S
C517 C514 1.409 . S
C517 C515 1.415 . S
C518 H508 0.930 . S
C518 C516 1.419 . S
C518 C519 1.362 . S
C519 H509 0.930 . S
C519 C512 1.409 . S
C519 C518 1.362 . S
H520 C526 0.930 . S
H521 C529 0.930 . S
H522 C530 0.930 . S
H523 C531 0.930 . S
H524 C534 0.930 . S
H525 C535 0.930 . S
C526 H520 0.930 . S
C526 C527 1.355 . S
C526 C528 1.415 . S
C527 C526 1.355 . S
C527 C529 1.419 . S
C528 C526 1.415 . S
C528 C533 1.425 . S
C528 C535 1.409 . S
C529 H521 0.930 . S
C529 C527 1.419 . S
C529 C530 1.362 . S
C530 H522 0.930 . S
C530 C529 1.362 . S
C530 C533 1.409 . S
C531 H523 0.930 . S
C531 C532 1.355 . S
C531 C533 1.415 . S
C532 C531 1.355 . S
C532 C534 1.419 . S
C533 C528 1.425 . S
C533 C530 1.409 . S
C533 C531 1.415 . S
C534 H524 0.930 . S
C534 C532 1.419 . S
C534 C535 1.362 . S
C535 H525 0.930 . S
C535 C528 1.409 . S
C535 C534 1.362 . S
H536 C542 0.930 . S
H537 C545 0.930 . S
H538 C546 0.930 . S
H539 C547 0.930 . S
H540 C550 0.930 . S
H541 C551 0.930 . S
C542 H536 0.930 . S
C542 C543 1.355 . S
C542 C544 1.415 . S
C543 C542 1.355 . S
C543 C545 1.419 . S
C544 C542 1.415 . S
C544 C549 1.425 . S
C544 C551 1.409 . S
C545 H537 0.930 . S
C545 C543 1.419 . S
C545 C546 1.362 . S
C546 H538 0.930 . S
C546 C545 1.362 . S
C546 C549 1.409 . S
C547 H539 0.930 . S
C547 C548 1.355 . S
C547 C549 1.415 . S
C548 C547 1.355 . S
C548 C550 1.419 . S
C549 C544 1.425 . S
C549 C546 1.409 . S
C549 C547 1.415 . S
C550 H540 0.930 . S
C550 C548 1.419 . S
C550 C551 1.362 . S
C551 H541 0.930 . S
C551 C544 1.409 . S
C551 C550 1.362 . S
H552 C558 0.930 . S
H553 C561 0.930 . S
H554 C562 0.930 . S
H555 C563 0.930 . S
H556 C566 0.930 1_455 S
H557 C567 0.930 . S
C558 H552 0.930 . S
C558 C559 1.355 . S
C558 C560 1.415 . S
C559 C558 1.355 . S
C559 C561 1.419 . S
C560 C558 1.415 . S
C560 C565 1.425 . S
C560 C567 1.409 . S
C561 H553 0.930 . S
C561 C559 1.419 . S
C561 C562 1.362 . S
C562 H554 0.930 . S
C562 C561 1.362 . S
C562 C565 1.409 . S
C563 H555 0.930 . S
C563 C564 1.355 . S
C563 C565 1.415 . S
C564 C563 1.355 . S
C564 C566 1.419 . S
C565 C560 1.425 . S
C565 C562 1.409 . S
C565 C563 1.415 . S
C566 H556 0.930 1_655 S
C566 C564 1.419 . S
C566 C567 1.362 . S
C567 H557 0.930 . S
C567 C560 1.409 . S
C567 C566 1.362 . S
H568 C574 0.930 . S
H569 C577 0.930 . S
H570 C578 0.930 . S
H571 C579 0.930 . S
H572 C582 0.930 . S
H573 C583 0.930 . S
C574 H568 0.930 . S
C574 C575 1.355 . S
C574 C576 1.415 . S
C575 C574 1.355 . S
C575 C577 1.419 . S
C576 C574 1.415 . S
C576 C581 1.425 . S
C576 C583 1.409 . S
C577 H569 0.930 . S
C577 C575 1.419 . S
C577 C578 1.362 . S
C578 H570 0.930 . S
C578 C577 1.362 . S
C578 C581 1.409 . S
C579 H571 0.930 . S
C579 C580 1.355 . S
C579 C581 1.415 . S
C580 C579 1.355 . S
C580 C582 1.419 . S
C581 C576 1.425 . S
C581 C578 1.409 . S
C581 C579 1.415 . S
C582 H572 0.930 . S
C582 C580 1.419 . S
C582 C583 1.362 . S
C583 H573 0.930 . S
C583 C576 1.409 . S
C583 C582 1.362 . S
H584 C590 0.930 . S
H585 C593 0.930 . S
H586 C594 0.930 . S
H587 C595 0.930 . S
H588 C598 0.930 1_655 S
H589 C599 0.930 . S
C590 H584 0.930 . S
C590 C591 1.355 . S
C590 C592 1.415 . S
C591 C590 1.355 . S
C591 C593 1.419 . S
C592 C590 1.415 . S
C592 C597 1.425 . S
C592 C599 1.409 . S
C593 H585 0.930 . S
C593 C591 1.419 . S
C593 C594 1.362 . S
C594 H586 0.930 . S
C594 C593 1.362 . S
C594 C597 1.409 . S
C595 H587 0.930 . S
C595 C596 1.355 . S
C595 C597 1.415 . S
C596 C595 1.355 . S
C596 C598 1.419 . S
C597 C592 1.425 . S
C597 C594 1.409 . S
C597 C595 1.415 . S
C598 H588 0.930 1_455 S
C598 C596 1.419 . S
C598 C599 1.362 . S
C599 H589 0.930 . S
C599 C592 1.409 . S
C599 C598 1.362 . S
H600 C606 0.930 . S
H601 C609 0.930 . S
H602 C610 0.930 . S
H603 C611 0.930 . S
H604 C614 0.930 . S
H605 C615 0.930 . S
C606 H600 0.930 . S
C606 C607 1.355 . S
C606 C608 1.415 . S
C607 C606 1.355 . S
C607 C609 1.419 . S
C608 C606 1.415 . S
C608 C613 1.425 . S
C608 C615 1.409 . S
C609 H601 0.930 . S
C609 C607 1.419 . S
C609 C610 1.362 . S
C610 H602 0.930 . S
C610 C609 1.362 . S
C610 C613 1.409 . S
C611 H603 0.930 . S
C611 C612 1.355 . S
C611 C613 1.415 . S
C612 C611 1.355 . S
C612 C614 1.419 . S
C613 C608 1.425 . S
C613 C610 1.409 . S
C613 C611 1.415 . S
C614 H604 0.930 . S
C614 C612 1.419 . S
C614 C615 1.362 . S
C615 H605 0.930 . S
C615 C608 1.409 . S
C615 C614 1.362 . S
C239 C5 2.857 . S
C244 C91 2.835 . S
C255 C14 2.062 . S
C260 C122 2.167 . S
C276 C161 1.375 . S
C271 C25 1.416 . S
C287 C34 0.637 . S
C292 C198 0.683 . S
C308 C121 2.727 . S
C303 C7 2.826 . S
C324 C78 1.323 . S
C319 C13 1.300 . S
C340 C210 1.495 . S
C335 C23 1.575 . S
C356 C167 1.110 . S
C351 C31 1.121 . S
C367 C4 2.298 . S
C372 C211 2.302 . S
C388 C127 1.309 . S
C383 C22 1.308 . S
C399 C32 0.498 . S
C404 C90 0.592 . S
C415 C16 2.181 . S
C420 C162 2.160 . S
C436 C82 2.823 . S
C431 C41 2.845 . S
C447 C50 2.102 . S
C452 C131 2.176 . S
C463 C61 1.428 . S
C468 C170 1.350 . S
C479 C67 0.636 . S
C484 C207 0.591 . S
C495 C40 2.841 . S
C500 C130 2.728 . S
C516 C87 1.251 . S
C511 C52 1.313 . S
C532 C201 1.477 . S
C527 C59 1.573 . S
C548 C158 1.172 . S
C543 C70 1.176 . S
C559 C43 2.298 . S
C564 C202 2.297 . S
C580 C118 1.335 . S
C575 C58 1.327 . S
C596 C81 0.667 . S
C591 C68 0.521 . S
C607 C49 2.201 . S
C612 C171 2.184 . S
