# Generated by pormake.
# Topology csq, (4,8)-cn, num edge types: 1
# Building blocks:
#     Node 0, Type 0, BuildingBlock: GIZVER_clean_linker_0, # of connection points: 4
#     Node 1, Type 0, BuildingBlock: GIZVER_clean_linker_0, # of connection points: 4
#     Node 2, Type 0, BuildingBlock: GIZVER_clean_linker_0, # of connection points: 4
#     Node 3, Type 0, BuildingBlock: GIZVER_clean_linker_0, # of connection points: 4
#     Node 4, Type 0, BuildingBlock: GIZVER_clean_linker_0, # of connection points: 4
#     Node 5, Type 0, BuildingBlock: GIZVER_clean_linker_0, # of connection points: 4
#     Node 6, Type 1, BuildingBlock: TAGTUT_clean_sbu_3, # of connection points: 8
#     Node 7, Type 1, BuildingBlock: TAGTUT_clean_sbu_3, # of connection points: 8
#     Node 8, Type 1, BuildingBlock: TAGTUT_clean_sbu_3, # of connection points: 8
#     Edge 9, Type (0, 1), BuildingBlock: OJICUG_clean_linker_0, # of connection points: 2
#     Edge 10, Type (0, 1), BuildingBlock: OJICUG_clean_linker_0, # of connection points: 2
#     Edge 11, Type (0, 1), BuildingBlock: OJICUG_clean_linker_0, # of connection points: 2
#     Edge 12, Type (0, 1), BuildingBlock: OJICUG_clean_linker_0, # of connection points: 2
#     Edge 13, Type (0, 1), BuildingBlock: OJICUG_clean_linker_0, # of connection points: 2
#     Edge 14, Type (0, 1), BuildingBlock: OJICUG_clean_linker_0, # of connection points: 2
#     Edge 15, Type (0, 1), BuildingBlock: OJICUG_clean_linker_0, # of connection points: 2
#     Edge 16, Type (0, 1), BuildingBlock: OJICUG_clean_linker_0, # of connection points: 2
#     Edge 17, Type (0, 1), BuildingBlock: OJICUG_clean_linker_0, # of connection points: 2
#     Edge 18, Type (0, 1), BuildingBlock: OJICUG_clean_linker_0, # of connection points: 2
#     Edge 19, Type (0, 1), BuildingBlock: OJICUG_clean_linker_0, # of connection points: 2
#     Edge 20, Type (0, 1), BuildingBlock: OJICUG_clean_linker_0, # of connection points: 2
#     Edge 21, Type (0, 1), BuildingBlock: OJICUG_clean_linker_0, # of connection points: 2
#     Edge 22, Type (0, 1), BuildingBlock: OJICUG_clean_linker_0, # of connection points: 2
#     Edge 23, Type (0, 1), BuildingBlock: OJICUG_clean_linker_0, # of connection points: 2
#     Edge 24, Type (0, 1), BuildingBlock: OJICUG_clean_linker_0, # of connection points: 2
#     Edge 25, Type (0, 1), BuildingBlock: OJICUG_clean_linker_0, # of connection points: 2
#     Edge 26, Type (0, 1), BuildingBlock: OJICUG_clean_linker_0, # of connection points: 2
#     Edge 27, Type (0, 1), BuildingBlock: OJICUG_clean_linker_0, # of connection points: 2
#     Edge 28, Type (0, 1), BuildingBlock: OJICUG_clean_linker_0, # of connection points: 2
#     Edge 29, Type (0, 1), BuildingBlock: OJICUG_clean_linker_0, # of connection points: 2
#     Edge 30, Type (0, 1), BuildingBlock: OJICUG_clean_linker_0, # of connection points: 2
#     Edge 31, Type (0, 1), BuildingBlock: OJICUG_clean_linker_0, # of connection points: 2
#     Edge 32, Type (0, 1), BuildingBlock: OJICUG_clean_linker_0, # of connection points: 2
# Relax obj value: 0.040
# Max RMSD: 0.110
# Mean RMSD: 0.081
data_MOF--net-csq--node1-TAGTUT_clean_sbu_3--node2-GIZVER_clean_linker_0--edge1-OJICUG_clean_linker_0
_symmetry_space_group_name_H-M    P1
_symmetry_Int_Tables_number       1
_symmetry_cell_setting            triclinic
loop_
_symmetry_equiv_pos_as_xyz
'x, y, z'
_cell_length_a     40.530066
_cell_length_b     40.004503
_cell_length_c     14.707298
_cell_angle_alpha  92.542841
_cell_angle_beta   93.630246
_cell_angle_gamma 119.66007
loop_
_atom_site_label
_atom_site_type_symbol
_atom_site_fract_x
_atom_site_fract_y
_atom_site_fract_z
_atom_type_partial_charge
H0 H 0.24086 0.49123 0.02006 0.0
H1 H 0.2576 0.54097 0.29665 0.0
H2 H 0.1453 0.45786 0.1795 0.0
H3 H 0.29817 0.55691 0.0787 0.0
H4 H 0.30918 0.56889 0.1998 0.0
H5 H 0.33387 0.53113 0.0121 0.0
H6 H 0.37346 0.46757 0.16772 0.0
H7 H 0.30914 0.51258 0.29299 0.0
C8 C 0.22922 0.49275 0.08341 0.0
C9 C 0.18968 0.47062 0.08987 0.0
C10 C 0.25389 0.5184 0.15727 0.0
C11 C 0.23899 0.521 0.23963 0.0
C12 C 0.19989 0.49802 0.24767 0.0
C13 C 0.1757 0.47321 0.17325 0.0
C14 C 0.29562 0.5444 0.14571 0.0
C15 C 0.31675 0.52222 0.15014 0.0
C16 C 0.33492 0.51828 0.07477 0.0
C17 C 0.35527 0.49838 0.08184 0.0
C18 C 0.35656 0.48178 0.16198 0.0
C19 C 0.34032 0.48699 0.23812 0.0
C20 C 0.3205 0.50731 0.23264 0.0
H21 H 0.83057 0.26051 0.94809 0.0
H22 H 0.86078 0.26353 0.23619 0.0
H23 H 0.9097 0.36816 0.10169 0.0
H24 H 0.82498 0.20192 0.02439 0.0
H25 H 0.82599 0.20235 0.14611 0.0
H26 H 0.76519 0.17786 0.93875 0.0
H27 H 0.6686 0.16671 0.06737 0.0
H28 H 0.77658 0.21058 0.22539 0.0
C29 C 0.84549 0.27682 0.01267 0.0
C30 C 0.86949 0.31696 0.01572 0.0
C31 C 0.8418 0.25738 0.09216 0.0
C32 C 0.86237 0.27842 0.17539 0.0
C33 C 0.88676 0.31842 0.17861 0.0
C34 C 0.8896 0.33743 0.09929 0.0
C35 C 0.81844 0.21398 0.08586 0.0
C36 C 0.77647 0.20088 0.07985 0.0
C37 C 0.753 0.183 -0.00247 0.0
C38 C 0.71344 0.16877 -0.00564 0.0
C39 C 0.69882 0.17645 0.07103 0.0
C40 C 0.71996 0.18654 0.15644 0.0
C41 C 0.75959 0.20185 0.15976 0.0
H42 H 0.58342 0.82498 0.87163 0.0
H43 H 0.57682 0.81646 0.16158 0.0
H44 H 0.52791 0.87531 0.01737 0.0
H45 H 0.62737 0.81094 -0.03156 0.0
H46 H 0.62322 0.80654 0.08784 0.0
H47 H 0.59113 0.75639 0.85905 0.0
H48 H 0.53293 0.64447 -0.04228 0.0
H49 H 0.57123 0.746 0.14323 0.0
C50 C 0.57344 0.83011 0.93455 0.0
C51 C 0.55301 0.85001 0.93442 0.0
C52 C 0.5817 0.81759 0.01667 0.0
C53 C 0.56973 0.82545 0.09834 0.0
C54 C 0.55057 0.84653 0.0998 0.0
C55 C 0.5416 0.85789 0.01704 0.0
C56 C 0.60634 0.7992 0.01998 0.0
C57 C 0.58259 0.75589 0.00259 0.0
C58 C 0.5783 0.73864 0.91439 0.0
C59 C 0.55969 0.69856 0.89851 0.0
C60 C 0.54474 0.67537 -0.02936 0.0
C61 C 0.54887 0.69175 0.06013 0.0
C62 C 0.56728 0.73242 0.07501 0.0
H63 H 0.7713 0.55391 0.85168 0.0
H64 H 0.78847 0.58028 0.14418 0.0
H65 H 0.67528 0.52046 0.00698 0.0
H66 H 0.83242 0.60777 0.93006 0.0
H67 H 0.84173 0.61125 0.05116 0.0
H68 H 0.83881 0.56052 0.83059 0.0
H69 H 0.90005 0.50983 0.95517 0.0
H70 H 0.85828 0.56785 0.12376 0.0
C71 C 0.75973 0.55123 0.91716 0.0
C72 C 0.72024 0.53441 0.9201 0.0
C73 C 0.78461 0.56754 -0.00246 0.0
C74 C 0.76954 0.56632 0.08218 0.0
C75 C 0.72983 0.54811 0.0856 0.0
C76 C 0.70567 0.53182 0.00465 0.0
C77 C 0.82691 0.59032 -0.01004 0.0
C78 C 0.84361 0.56417 -0.02124 0.0
C79 C 0.8482 0.55189 0.89125 0.0
C80 C 0.86798 0.53138 0.88265 0.0
C81 C 0.88199 0.52254 -0.03833 0.0
C82 C 0.88036 0.53721 0.04794 0.0
C83 C 0.85936 0.55618 0.05675 0.0
H84 H 0.27709 0.81848 0.94312 0.0
H85 H 0.32214 0.82161 0.21786 0.0
H86 H 0.34284 0.92669 0.10864 0.0
H87 H 0.29024 0.76709 -0.00602 0.0
H88 H 0.30297 0.7662 0.11183 0.0
H89 H 0.22514 0.73612 0.93563 0.0
H90 H 0.13975 0.67347 0.11744 0.0
H91 H 0.25443 0.75394 0.22672 0.0
C92 C 0.2918 0.83476 0.0078 0.0
C93 C 0.30873 0.8753 0.0162 0.0
C94 C 0.2969 0.81534 0.07998 0.0
C95 C 0.31716 0.83626 0.1629 0.0
C96 C 0.33266 0.8763 0.17355 0.0
C97 C 0.32781 0.89542 0.1011 0.0
C98 C 0.28523 0.77337 0.06466 0.0
C99 C 0.24397 0.74806 0.07936 0.0
C100 C 0.21647 0.7299 0.00388 0.0
C101 C 0.17864 0.70237 0.01588 0.0
C102 C 0.16825 0.69561 0.10579 0.0
C103 C 0.19525 0.71462 0.18185 0.0
C104 C 0.23317 0.74052 0.16834 0.0
H105 H 0.5639 0.31289 0.03025 0.0
H106 H 0.52752 0.29443 0.30014 0.0
H107 H 0.47485 0.33415 0.10158 0.0
H108 H 0.60535 0.31113 0.15551 0.0
H109 H 0.59513 0.31545 0.27039 0.0
H110 H 0.57797 0.24751 0.07107 0.0
H111 H 0.53908 0.14885 0.22709 0.0
H112 H 0.55991 0.25711 0.35487 0.0
C113 C 0.54447 0.31179 0.07893 0.0
C114 C 0.51612 0.32109 0.05318 0.0
C115 C 0.54874 0.30263 0.1688 0.0
C116 C 0.52403 0.30197 0.23188 0.0
C117 C 0.49817 0.3149 0.21077 0.0
C118 C 0.49344 0.32278 0.11971 0.0
C119 C 0.58255 0.29873 0.20266 0.0
C120 C 0.57083 0.2571 0.21207 0.0
C121 C 0.57 0.23463 0.13519 0.0
C122 C 0.55915 0.1958 0.14064 0.0
C123 C 0.54838 0.17923 0.22324 0.0
C124 C 0.54815 0.20088 0.30042 0.0
C125 C 0.55978 0.24012 0.29529 0.0
C126 C 0.09724 0.4879 0.50808 0.0
C127 C 0.07123 0.43527 0.8249 0.0
C128 C 0.95662 0.41617 0.76229 0.0
Mg129 Mg 0.05902 0.52902 0.39319 0.0
Mg130 Mg 0.03375 0.58461 0.50432 0.0
O131 O 0.02706 0.5349 0.48348 0.0
Mg132 Mg 0.03691 0.51073 0.58768 0.0
O133 O 0.0481 0.48415 0.68535 0.0
Mg134 Mg 0.02607 0.43059 0.62331 0.0
Mg135 Mg 0.03416 0.4873 0.80209 0.0
C136 C 0.97813 0.54041 0.65187 0.0
O137 O 0.07531 0.56846 0.67823 0.0
O138 O 0.0229 0.54363 0.29109 0.0
O139 O 0.05877 0.54942 0.81895 0.0
O140 O 0.10491 0.59295 0.41319 0.0
O141 O 1.00719 0.5817 0.37404 0.0
O142 O 0.09221 0.62994 0.50484 0.0
O143 O 0.99774 0.45002 0.51114 0.0
O144 O 1.01424 0.46563 0.37104 0.0
C145 C 0.99505 0.44066 0.42558 0.0
C146 C 1.0054 0.56293 0.29954 0.0
O147 O 0.98647 0.51312 0.64914 0.0
O148 O 0.05959 0.42044 0.74197 0.0
O149 O 0.99676 0.57169 0.61266 0.0
O150 O 0.97186 0.40505 0.70318 0.0
O151 O 0.06423 0.46055 0.8612 0.0
O152 O 0.97434 0.45027 0.80171 0.0
O153 O 0.08652 0.51302 0.51446 0.0
O154 O 0.0795 0.45598 0.54475 0.0
C155 C 0.11441 0.62573 0.45379 0.0
C156 C 0.07567 0.5758 0.76468 0.0
C157 C 0.51423 0.07968 0.4954 0.0
C158 C 0.61614 0.06614 0.35297 0.0
C159 C 0.54875 0.94215 0.39314 0.0
Mg160 Mg 0.46224 0.03568 0.65292 0.0
Mg161 Mg 0.48851 0.99388 0.80602 0.0
O162 O 0.47997 0.998 0.68289 0.0
Mg163 Mg 0.5211 0.01269 0.60058 0.0
O164 O 0.5587 0.02829 0.50991 0.0
Mg165 Mg 0.52431 0.01217 0.39368 0.0
Mg166 Mg 0.59772 0.01611 0.5161 0.0
C167 C 0.52306 0.94492 0.72202 0.0
O168 O 0.57236 0.04799 0.70836 0.0
O169 O 0.41001 0.99944 0.73436 0.0
O170 O 0.61933 0.03953 0.65551 0.0
O171 O 0.49658 0.07708 0.78108 0.0
O172 O 0.43037 0.97008 0.83208 0.0
O173 O 0.52261 0.05073 0.8697 0.0
O174 O 0.47424 0.9788 0.483 0.0
O175 O 0.43122 0.99449 0.52526 0.0
C176 C 0.44148 0.9763 0.4705 0.0
C177 C 0.40431 0.97598 0.79616 0.0
O178 O 0.52642 0.95903 0.64354 0.0
O179 O 0.58031 0.05222 0.32931 0.0
O180 O 0.51186 0.95637 0.79014 0.0
O181 O 0.53073 0.95894 0.36474 0.0
O182 O 0.62875 0.05496 0.4199 0.0
O183 O 0.57516 0.95754 0.45917 0.0
O184 O 0.515 0.06626 0.57237 0.0
O185 O 0.5178 0.06423 0.42192 0.0
C186 C 0.51846 0.07922 0.85044 0.0
C187 C 0.60652 0.05335 0.71528 0.0
C188 C 0.55719 0.584 0.6823 0.0
C189 C 0.4531 0.47565 0.85366 0.0
C190 C 0.50216 0.40608 0.76692 0.0
Mg191 Mg 0.59217 0.5768 0.49436 0.0
Mg192 Mg 0.53617 0.5075 0.33579 0.0
O193 O 0.55721 0.52052 0.45723 0.0
Mg194 Mg 0.52545 0.50277 0.56196 0.0
O195 O 0.4967 0.48757 0.67111 0.0
Mg196 Mg 0.5382 0.50351 0.77148 0.0
Mg197 Mg 0.45549 0.43681 0.66864 0.0
C198 C 0.49107 0.42619 0.41961 0.0
O199 O 0.4703 0.4941 0.48967 0.0
O200 O 0.63044 0.57471 0.38382 0.0
O201 O 0.42573 0.43836 0.54153 0.0
O202 O 0.56231 0.59689 0.38927 0.0
O203 O 0.59056 0.52207 0.28842 0.0
O204 O 0.51967 0.54865 0.29081 0.0
O205 O 0.57592 0.50765 0.65253 0.0
O206 O 0.62292 0.5582 0.59627 0.0
C207 C 0.6114 0.53141 0.65035 0.0
C208 C 0.62411 0.54985 0.31665 0.0
O209 O 0.50407 0.44064 0.50269 0.0
O210 O 0.4899 0.49666 0.86489 0.0
O211 O 0.49596 0.44692 0.35178 0.0
O212 O 0.52481 0.44164 0.79265 0.0
O213 O 0.43539 0.45063 0.78536 0.0
O214 O 0.47315 0.39571 0.70922 0.0
O215 O 0.5485 0.56721 0.60176 0.0
O216 O 0.55339 0.56533 0.75266 0.0
C217 C 0.53701 0.58427 0.32081 0.0
C218 C 0.43567 0.46654 0.49066 0.0
C219 C 0.16525 0.46855 0.38106 0.0
C220 C 0.18219 0.5007 0.33016 0.0
H221 H 0.1254 0.4394 0.47747 0.0
C222 C 0.17406 0.53068 0.34452 0.0
H223 H 0.17067 0.44481 0.36964 0.0
C224 C 0.14754 0.52743 0.40524 0.0
C225 C 0.12867 0.49403 0.45209 0.0
H226 H 0.18625 0.55535 0.30431 0.0
H227 H 0.14063 0.55025 0.4123 0.0
C228 C 0.13895 0.46532 0.44181 0.0
C229 C 0.66204 0.16005 0.24216 0.0
C230 C 0.69864 0.16539 0.23242 0.0
H231 H 0.60633 0.12291 0.28275 0.0
C232 C 0.70891 0.1401 0.27235 0.0
H233 H 0.65348 0.17937 0.21331 0.0
C234 C 0.68199 0.10786 0.31136 0.0
C235 C 0.64425 0.10012 0.31101 0.0
H236 H 0.73664 0.14295 0.26581 0.0
H237 H 0.69031 0.08801 0.33807 0.0
C238 C 0.63482 0.12725 0.27953 0.0
C239 C 0.50963 0.62747 0.12542 0.0
C240 C 0.5394 0.66631 0.13764 0.0
H241 H 0.48533 0.57093 0.17339 0.0
C242 C 0.56361 0.67876 0.21966 0.0
H243 H 0.48963 0.61692 0.06458 0.0
C244 C 0.56042 0.65253 0.28319 0.0
C245 C 0.53333 0.61294 0.26601 0.0
H246 H 0.587 0.70817 0.23214 0.0
H247 H 0.58121 0.66297 0.34256 0.0
C248 C 0.50688 0.60104 0.18827 0.0
C249 C 0.91816 0.51257 0.13289 0.0
C250 C 0.90946 0.54213 0.1209 0.0
H251 H 0.95699 0.49676 0.19547 0.0
C252 C 0.93396 0.57914 0.16473 0.0
H253 H 0.89982 0.48383 0.09941 0.0
C254 C 0.96665 0.58653 0.21874 0.0
C255 C 0.97569 0.55722 0.22893 0.0
H256 H 0.92872 0.60283 0.15459 0.0
H257 H 0.98479 0.61513 0.25316 0.0
C258 C 0.95126 0.52017 0.18571 0.0
C259 C 0.35392 0.92793 0.30049 0.0
C260 C 0.35881 0.89949 0.25449 0.0
H261 H 0.37643 0.97472 0.40443 0.0
C262 C 0.39113 0.89636 0.27941 0.0
H263 H 0.32935 0.93102 0.28161 0.0
C264 C 0.41853 0.92179 0.34861 0.0
C265 C 0.41373 0.95042 0.39451 0.0
H266 H 0.39578 0.87504 0.24344 0.0
H267 H 0.4433 0.9189 0.36635 0.0
C268 C 0.381 0.95302 0.37022 0.0
C269 C 0.5059 0.34436 0.37135 0.0
C270 C 0.48377 0.32923 0.28598 0.0
H271 H 0.52377 0.38658 0.48496 0.0
C272 C 0.45361 0.33669 0.26696 0.0
H273 H 0.52905 0.33933 0.39154 0.0
C274 C 0.4518 0.36547 0.32005 0.0
C275 C 0.4788 0.38549 0.39541 0.0
H276 H 0.43411 0.32372 0.20558 0.0
H277 H 0.43219 0.37499 0.29638 0.0
C278 C 0.50293 0.37185 0.42628 0.0
C279 C 0.50851 0.8554 0.81937 0.0
C280 C 0.54611 0.86635 0.85154 0.0
H281 H 0.4718 0.87171 0.74747 0.0
C282 C 0.57636 0.89886 0.81878 0.0
H283 H 0.48476 0.83072 0.84445 0.0
C284 C 0.56892 0.92246 0.76298 0.0
C285 C 0.53118 0.91356 0.73896 0.0
H286 H 0.60558 0.90819 0.8439 0.0
H287 H 0.59253 0.9497 0.74734 0.0
C288 C 0.50113 0.87873 0.76333 0.0
C289 C 0.65672 0.49717 0.82792 0.0
C290 C 0.69468 0.52778 0.83686 0.0
H291 H 0.60024 0.47456 0.76242 0.0
C292 C 0.7057 0.55687 0.77659 0.0
H293 H 0.64759 0.47414 0.87305 0.0
C294 C 0.6787 0.55719 0.71403 0.0
C295 C 0.64011 0.52849 0.71063 0.0
H296 H 0.73457 0.58111 0.78237 0.0
H297 H 0.68793 0.58106 0.67143 0.0
C298 C 0.62958 0.49762 0.7655 0.0
C299 C 0.16486 0.66473 0.86247 0.0
C300 C 0.15155 0.67687 0.93631 0.0
H301 H 0.1506 0.6236 0.7472 0.0
C302 C 0.11187 0.66029 0.93904 0.0
H303 H 0.19507 0.67628 0.85774 0.0
C304 C 0.08652 0.62932 0.87667 0.0
C305 C 0.10022 0.61516 0.8084 0.0
H306 H 0.10035 0.66958 -0.00728 0.0
H307 H 0.05632 0.61483 0.88532 0.0
C308 C 0.13937 0.63442 0.79857 0.0
C309 C 0.56883 0.14466 0.06518 0.0
C310 C 0.55597 0.17131 0.0589 0.0
H311 H 0.56764 0.09483 0.00292 0.0
C312 C 0.53599 0.17123 -0.02266 0.0
H313 H 0.5849 0.14467 0.12689 0.0
C314 C 0.52607 0.14274 0.90619 0.0
C315 C 0.53592 0.11389 0.91577 0.0
H316 H 0.52576 0.19152 -0.0291 0.0
H317 H 0.50866 0.142 0.84627 0.0
C318 C 0.55897 0.11621 -0.00589 0.0
C319 C 0.41683 0.52485 0.013 0.0
C320 C 0.37825 0.49623 0.01096 0.0
H321 H 0.47151 0.54066 -0.03346 0.0
C322 C 0.36503 0.46092 -0.0401 0.0
H323 H 0.42772 0.55176 0.05507 0.0
C324 C 0.38991 0.45411 0.91181 0.0
C325 C 0.42875 0.48241 0.91401 0.0
H326 H 0.33577 0.43794 -0.03938 0.0
H327 H 0.37865 0.42631 0.87336 0.0
C328 C 0.44198 0.51806 -0.03532 0.0
C329 C 0.89121 0.32336 0.85888 0.0
C330 C 0.87902 0.33736 0.93112 0.0
H331 H 0.92501 0.33755 0.74573 0.0
C332 C 0.88388 0.37465 0.9304 0.0
H333 H 0.88776 0.2947 0.85744 0.0
C334 C 0.90536 0.39933 0.86656 0.0
C335 C 0.92242 0.38711 0.80256 0.0
H336 H 0.87406 0.38589 -0.0157 0.0
H337 H 0.91164 0.42904 0.87314 0.0
C338 C 0.91266 0.34804 0.79477 0.0
C339 C 0.90894 0.56381 0.76067 0.0
C340 C 0.88513 0.5292 0.79817 0.0
H341 H 0.95757 0.59479 0.68765 0.0
C342 C 0.88861 0.49652 0.77584 0.0
H343 H 0.90735 0.5896 0.77744 0.0
C344 C 0.91845 0.49978 0.72709 0.0
C345 C 0.94476 0.53557 0.69792 0.0
H346 H 0.87062 0.46945 0.80412 0.0
H347 H 0.92172 0.4747 0.71548 0.0
C348 C 0.93844 0.56698 0.71114 0.0
C349 C 0.32458 0.93639 0.9419 0.0
C350 C 0.31612 0.89755 0.93382 0.0
H351 H 0.36115 0.99351 0.90302 0.0
C352 C 0.32625 0.88433 0.85598 0.0
H353 H 0.3157 0.94724 -0.00147 0.0
C354 C 0.35088 0.91063 0.79952 0.0
C355 C 0.36573 0.95031 0.82015 0.0
H356 H 0.32005 0.85477 0.84548 0.0
H357 H 0.36247 0.9004 0.74774 0.0
C358 C 0.35018 0.96294 0.88658 0.0
C359 C 0.47812 0.32351 0.91386 0.0
C360 C 0.51381 0.3357 -0.0373 0.0
H361 H 0.44648 0.33556 0.81073 0.0
C362 C 0.54639 0.3667 0.93305 0.0
H363 H 0.45251 0.29964 0.93512 0.0
C364 C 0.54291 0.38744 0.86237 0.0
C365 C 0.50682 0.37738 0.81892 0.0
H366 H 0.57423 0.37701 -0.03048 0.0
H367 H 0.56825 0.41306 0.84615 0.0
C368 C 0.47469 0.34394 0.84214 0.0
C369 C 0.16916 0.46718 0.92371 0.0
C370 C 0.16197 0.45038 0.00748 0.0
H371 H 0.14483 0.47376 0.79722 0.0
C372 C 0.125 0.41953 0.01654 0.0
H373 H 0.19697 0.49088 0.9132 0.0
C374 C 0.09474 0.41095 0.95107 0.0
C375 C 0.10158 0.43142 0.87334 0.0
H376 H 0.11865 0.40465 0.07832 0.0
H377 H 0.06583 0.39074 -0.03525 0.0
C378 C 0.13917 0.45746 0.85687 0.0
C379 C 0.69492 0.14023 0.83026 0.0
C380 C 0.68614 0.13931 0.92119 0.0
H381 H 0.67642 0.11283 0.69388 0.0
C382 C 0.65127 0.10837 0.94392 0.0
H383 H 0.72127 0.16338 0.81008 0.0
C384 C 0.62524 0.08037 0.87714 0.0
C385 C 0.63421 0.08152 0.78705 0.0
H386 H 0.64398 0.10519 0.01376 0.0
H387 H 0.59843 0.05746 0.89615 0.0
C388 C 0.6693 0.11131 0.76393 0.0
C389 C 0.59668 0.68083 0.80044 0.0
C390 C 0.56234 0.68022 0.81272 0.0
H391 H 0.62204 0.64946 0.74505 0.0
C392 C 0.52894 0.65381 0.75825 0.0
H393 H 0.6226 0.70075 0.84301 0.0
C394 C 0.52893 0.62525 0.70018 0.0
C395 C 0.56206 0.62246 0.69846 0.0
H396 H 0.50215 0.65273 0.76789 0.0
H397 H 0.50197 0.60241 0.66672 0.0
C398 C 0.59644 0.65169 0.7442 0.0
C399 C 0.49741 0.15023 0.38073 0.0
C400 C 0.5353 0.18056 0.38391 0.0
H401 H 0.46023 0.0934 0.41894 0.0
C402 C 0.56256 0.18188 0.45002 0.0
H403 H 0.47604 0.14836 0.32936 0.0
C404 C 0.5533 0.15052 0.50253 0.0
C405 C 0.51686 0.11747 0.48846 0.0
H406 H 0.59208 0.2046 0.45257 0.0
H407 H 0.57605 0.14983 0.54376 0.0
C408 C 0.48829 0.1188 0.43239 0.0
C409 C 0.3832 0.5113 0.37866 0.0
C410 C 0.35345 0.47942 0.32559 0.0
H411 H 0.43368 0.53206 0.47012 0.0
C412 C 0.34741 0.4422 0.33742 0.0
H413 H 0.38869 0.54028 0.36922 0.0
C414 C 0.37327 0.43745 0.3949 0.0
C415 C 0.40563 0.47 0.43904 0.0
H416 H 0.32495 0.4174 0.29547 0.0
H417 H 0.36953 0.40883 0.39947 0.0
C418 C 0.40946 0.50668 0.43411 0.0
C419 C 0.90183 0.35371 0.33444 0.0
C420 C 0.91363 0.34067 0.25965 0.0
H421 H 0.91934 0.39592 0.44961 0.0
C422 C 0.95272 0.35548 0.25305 0.0
H423 H 0.87175 0.34288 0.34001 0.0
C424 C 0.97964 0.38561 0.31465 0.0
C425 C 0.96797 0.40134 0.38438 0.0
H426 H 0.96238 0.34592 0.19559 0.0
H427 H 1.00953 0.39873 0.3033 0.0
C428 C 0.92898 0.38386 0.3971 0.0
C429 C 0.51278 0.8659 0.19626 0.0
C430 C 0.54495 0.86176 0.18804 0.0
H431 H 0.48825 0.89408 0.26998 0.0
C432 C 0.57447 0.87753 0.26001 0.0
H433 H 0.48914 0.85329 0.1432 0.0
C434 C 0.57372 0.90044 0.33347 0.0
C435 C 0.54366 0.90834 0.33572 0.0
H436 H 0.59977 0.87505 0.25602 0.0
H437 H 0.59838 0.91481 0.3836 0.0
C438 C 0.51217 0.88904 0.26929 0.0
C439 C 0.68156 0.51506 0.19337 0.0
C440 C 0.71175 0.54963 0.1687 0.0
H441 H 0.6299 0.48829 0.25801 0.0
C442 C 0.71627 0.58497 0.20483 0.0
H443 H 0.67732 0.48748 0.16576 0.0
C444 C 0.68892 0.58551 0.25805 0.0
C445 C 0.65654 0.55071 0.27398 0.0
H446 H 0.73896 0.61199 0.18534 0.0
H447 H 0.69165 0.61296 0.28089 0.0
C448 C 0.65407 0.51558 0.24468 0.0
C449 C 0.15631 0.70851 0.31148 0.0
C450 C 0.18416 0.70262 0.27378 0.0
H451 H 0.11344 0.68979 0.40499 0.0
C452 C 0.19563 0.67856 0.31493 0.0
H453 H 0.14702 0.72688 0.28031 0.0
C454 C 0.17612 0.65691 0.38542 0.0
C455 C 0.14529 0.65952 0.41642 0.0
H456 H 0.21693 0.67348 0.28641 0.0
H457 H 0.18247 0.63522 0.40888 0.0
C458 C 0.13742 0.68756 0.38353 0.0
loop_
_geom_bond_atom_site_label_1
_geom_bond_atom_site_label_2
_geom_bond_distance
_geom_bond_site_symmetry_2
_ccdc_geom_bond_type
H0 C8 0.930 . S
H1 C11 0.930 . S
H2 C13 0.930 . S
H3 C14 0.970 . S
H4 C14 0.970 . S
H5 C16 0.930 . S
H6 C18 0.930 . S
H7 C20 0.930 . S
C8 H0 0.930 . S
C8 C9 1.382 . S
C8 C10 1.426 . S
C9 C8 1.382 . S
C9 C13 1.389 . S
C10 C8 1.426 . S
C10 C11 1.375 . S
C10 C14 1.532 . S
C11 H1 0.930 . S
C11 C10 1.375 . S
C11 C12 1.416 . S
C12 C11 1.416 . S
C12 C13 1.371 . S
C13 H2 0.930 . S
C13 C9 1.389 . S
C13 C12 1.371 . S
C14 H3 0.970 . S
C14 H4 0.970 . S
C14 C10 1.532 . S
C14 C15 1.499 . S
C15 C14 1.499 . S
C15 C16 1.370 . S
C15 C20 1.415 . S
C16 H5 0.930 . S
C16 C15 1.370 . S
C16 C17 1.407 . S
C17 C16 1.407 . S
C17 C18 1.365 . S
C18 H6 0.930 . S
C18 C17 1.365 . S
C18 C19 1.393 . S
C19 C18 1.393 . S
C19 C20 1.387 . S
C20 H7 0.930 . S
C20 C15 1.415 . S
C20 C19 1.387 . S
H21 C29 0.930 1_556 S
H22 C32 0.930 . S
H23 C34 0.930 . S
H24 C35 0.970 . S
H25 C35 0.970 . S
H26 C37 0.930 1_556 S
H27 C39 0.930 . S
H28 C41 0.930 . S
C29 H21 0.930 1_554 S
C29 C30 1.382 . S
C29 C31 1.426 . S
C30 C29 1.382 . S
C30 C34 1.389 . S
C31 C29 1.426 . S
C31 C32 1.375 . S
C31 C35 1.532 . S
C32 H22 0.930 . S
C32 C31 1.375 . S
C32 C33 1.416 . S
C33 C32 1.416 . S
C33 C34 1.371 . S
C34 H23 0.930 . S
C34 C30 1.389 . S
C34 C33 1.371 . S
C35 H24 0.970 . S
C35 H25 0.970 . S
C35 C31 1.532 . S
C35 C36 1.499 . S
C36 C35 1.499 . S
C36 C37 1.370 . S
C36 C41 1.415 . S
C37 H26 0.930 1_554 S
C37 C36 1.370 . S
C37 C38 1.407 . S
C38 C37 1.407 . S
C38 C39 1.365 . S
C39 H27 0.930 . S
C39 C38 1.365 . S
C39 C40 1.393 . S
C40 C39 1.393 . S
C40 C41 1.387 . S
C41 H28 0.930 . S
C41 C36 1.415 . S
C41 C40 1.387 . S
H42 C50 0.930 . S
H43 C53 0.930 . S
H44 C55 0.930 . S
H45 C56 0.970 . S
H46 C56 0.970 . S
H47 C58 0.930 . S
H48 C60 0.930 . S
H49 C62 0.930 . S
C50 H42 0.930 . S
C50 C51 1.382 . S
C50 C52 1.426 1_556 S
C51 C50 1.382 . S
C51 C55 1.389 1_556 S
C52 C50 1.426 1_554 S
C52 C53 1.375 . S
C52 C56 1.532 . S
C53 H43 0.930 . S
C53 C52 1.375 . S
C53 C54 1.416 . S
C54 C53 1.416 . S
C54 C55 1.371 . S
C55 H44 0.930 . S
C55 C51 1.389 1_554 S
C55 C54 1.371 . S
C56 H45 0.970 . S
C56 H46 0.970 . S
C56 C52 1.532 . S
C56 C57 1.499 . S
C57 C56 1.499 . S
C57 C58 1.370 1_554 S
C57 C62 1.415 . S
C58 H47 0.930 . S
C58 C57 1.370 1_556 S
C58 C59 1.407 . S
C59 C58 1.407 . S
C59 C60 1.365 1_556 S
C60 H48 0.930 . S
C60 C59 1.365 1_554 S
C60 C61 1.393 . S
C61 C60 1.393 . S
C61 C62 1.387 . S
C62 H49 0.930 . S
C62 C57 1.415 . S
C62 C61 1.387 . S
H63 C71 0.930 . S
H64 C74 0.930 . S
H65 C76 0.930 . S
H66 C77 0.970 1_556 S
H67 C77 0.970 . S
H68 C79 0.930 . S
H69 C81 0.930 . S
H70 C83 0.930 . S
C71 H63 0.930 . S
C71 C72 1.382 . S
C71 C73 1.426 1_556 S
C72 C71 1.382 . S
C72 C76 1.389 1_556 S
C73 C71 1.426 1_554 S
C73 C74 1.375 . S
C73 C77 1.532 . S
C74 H64 0.930 . S
C74 C73 1.375 . S
C74 C75 1.416 . S
C75 C74 1.416 . S
C75 C76 1.371 . S
C76 H65 0.930 . S
C76 C72 1.389 1_554 S
C76 C75 1.371 . S
C77 H66 0.970 1_554 S
C77 H67 0.970 . S
C77 C73 1.532 . S
C77 C78 1.499 . S
C78 C77 1.499 . S
C78 C79 1.370 1_554 S
C78 C83 1.415 . S
C79 H68 0.930 . S
C79 C78 1.370 1_556 S
C79 C80 1.407 . S
C80 C79 1.407 . S
C80 C81 1.365 1_556 S
C81 H69 0.930 . S
C81 C80 1.365 1_554 S
C81 C82 1.393 . S
C82 C81 1.393 . S
C82 C83 1.387 . S
C83 H70 0.930 . S
C83 C78 1.415 . S
C83 C82 1.387 . S
H84 C92 0.930 1_556 S
H85 C95 0.930 . S
H86 C97 0.930 . S
H87 C98 0.970 . S
H88 C98 0.970 . S
H89 C100 0.930 1_556 S
H90 C102 0.930 . S
H91 C104 0.930 . S
C92 H84 0.930 1_554 S
C92 C93 1.382 . S
C92 C94 1.426 . S
C93 C92 1.382 . S
C93 C97 1.389 . S
C94 C92 1.426 . S
C94 C95 1.375 . S
C94 C98 1.532 . S
C95 H85 0.930 . S
C95 C94 1.375 . S
C95 C96 1.416 . S
C96 C95 1.416 . S
C96 C97 1.371 . S
C97 H86 0.930 . S
C97 C93 1.389 . S
C97 C96 1.371 . S
C98 H87 0.970 . S
C98 H88 0.970 . S
C98 C94 1.532 . S
C98 C99 1.499 . S
C99 C98 1.499 . S
C99 C100 1.370 . S
C99 C104 1.415 . S
C100 H89 0.930 1_554 S
C100 C99 1.370 . S
C100 C101 1.407 . S
C101 C100 1.407 . S
C101 C102 1.365 . S
C102 H90 0.930 . S
C102 C101 1.365 . S
C102 C103 1.393 . S
C103 C102 1.393 . S
C103 C104 1.387 . S
C104 H91 0.930 . S
C104 C99 1.415 . S
C104 C103 1.387 . S
H105 C113 0.930 . S
H106 C116 0.930 . S
H107 C118 0.930 . S
H108 C119 0.970 . S
H109 C119 0.970 . S
H110 C121 0.930 . S
H111 C123 0.930 . S
H112 C125 0.930 . S
C113 H105 0.930 . S
C113 C114 1.382 . S
C113 C115 1.426 . S
C114 C113 1.382 . S
C114 C118 1.389 . S
C115 C113 1.426 . S
C115 C116 1.375 . S
C115 C119 1.532 . S
C116 H106 0.930 . S
C116 C115 1.375 . S
C116 C117 1.416 . S
C117 C116 1.416 . S
C117 C118 1.371 . S
C118 H107 0.930 . S
C118 C114 1.389 . S
C118 C117 1.371 . S
C119 H108 0.970 . S
C119 H109 0.970 . S
C119 C115 1.532 . S
C119 C120 1.499 . S
C120 C119 1.499 . S
C120 C121 1.370 . S
C120 C125 1.415 . S
C121 H110 0.930 . S
C121 C120 1.370 . S
C121 C122 1.407 . S
C122 C121 1.407 . S
C122 C123 1.365 . S
C123 H111 0.930 . S
C123 C122 1.365 . S
C123 C124 1.393 . S
C124 C123 1.393 . S
C124 C125 1.387 . S
C125 H112 0.930 . S
C125 C120 1.415 . S
C125 C124 1.387 . S
C126 O153 1.312 . S
C126 O154 1.208 . S
C127 O148 1.331 . S
C127 O151 1.244 . S
C128 O150 1.264 . S
C128 O152 1.273 . S
Mg129 O131 1.936 1_455 S
Mg129 O138 2.081 1_455 S
Mg129 O140 2.023 . S
Mg129 O144 2.031 1_455 S
Mg129 O153 2.291 . S
Mg130 O131 1.963 . S
Mg130 O141 1.942 . S
Mg130 O142 1.955 1_655 S
Mg130 O149 1.986 . S
O131 Mg129 1.936 1_655 S
O131 Mg130 1.963 . S
O131 Mg132 1.915 1_655 S
Mg132 O131 1.915 1_455 S
Mg132 O133 1.915 . S
Mg132 O137 2.013 . S
Mg132 O143 2.114 1_455 S
Mg132 O147 2.013 1_455 S
Mg132 O153 2.114 . S
O133 Mg132 1.915 . S
O133 Mg134 1.936 . S
O133 Mg135 1.963 . S
Mg134 O133 1.936 . S
Mg134 O143 2.291 1_455 S
Mg134 O148 2.081 . S
Mg134 O150 2.023 1_455 S
Mg134 O154 2.031 . S
Mg135 O133 1.963 . S
Mg135 O139 1.986 . S
Mg135 O151 1.942 . S
Mg135 O152 1.955 1_455 S
C136 O147 1.191 . S
C136 O149 1.307 . S
O137 Mg132 2.013 . S
O137 C156 1.191 . S
O138 Mg129 2.081 1_655 S
O138 C146 1.331 . S
O139 Mg135 1.986 . S
O139 C156 1.307 . S
O140 Mg129 2.023 . S
O140 C155 1.264 . S
O141 Mg130 1.942 . S
O141 C146 1.244 . S
O142 Mg130 1.955 1_455 S
O142 C155 1.273 . S
O143 Mg132 2.114 1_655 S
O143 Mg134 2.291 1_655 S
O143 C145 1.312 . S
O144 Mg129 2.031 1_655 S
O144 C145 1.208 . S
C145 O143 1.312 . S
C145 O144 1.208 . S
C146 O138 1.331 . S
C146 O141 1.244 . S
O147 Mg132 2.013 1_655 S
O147 C136 1.191 . S
O148 C127 1.331 . S
O148 Mg134 2.081 . S
O149 Mg130 1.986 . S
O149 C136 1.307 . S
O150 C128 1.264 . S
O150 Mg134 2.023 1_655 S
O151 C127 1.244 . S
O151 Mg135 1.942 . S
O152 C128 1.273 . S
O152 Mg135 1.955 1_655 S
O153 C126 1.312 . S
O153 Mg129 2.291 . S
O153 Mg132 2.114 . S
O154 C126 1.208 . S
O154 Mg134 2.031 . S
C155 O140 1.264 . S
C155 O142 1.273 . S
C156 O137 1.191 . S
C156 O139 1.307 . S
C157 O184 1.312 . S
C157 O185 1.208 . S
C158 O179 1.331 . S
C158 O182 1.244 . S
C159 O181 1.264 . S
C159 O183 1.273 . S
Mg160 O162 1.936 1_545 S
Mg160 O169 2.081 1_545 S
Mg160 O171 2.023 . S
Mg160 O175 2.031 1_545 S
Mg160 O184 2.291 . S
Mg161 O162 1.963 . S
Mg161 O172 1.942 . S
Mg161 O173 1.955 1_565 S
Mg161 O180 1.986 . S
O162 Mg160 1.936 1_565 S
O162 Mg161 1.963 . S
O162 Mg163 1.915 1_565 S
Mg163 O162 1.915 1_545 S
Mg163 O164 1.915 . S
Mg163 O168 2.013 . S
Mg163 O174 2.114 1_545 S
Mg163 O178 2.013 1_545 S
Mg163 O184 2.114 . S
O164 Mg163 1.915 . S
O164 Mg165 1.933 . S
O164 Mg166 1.963 . S
Mg165 O164 1.933 . S
Mg165 O174 2.282 1_545 S
Mg165 O179 2.092 . S
Mg165 O181 1.990 1_545 S
Mg165 O185 2.063 . S
Mg166 O164 1.963 . S
Mg166 O170 1.986 . S
Mg166 O182 1.942 . S
Mg166 O183 1.955 1_545 S
C167 O178 1.191 . S
C167 O180 1.307 . S
O168 Mg163 2.013 . S
O168 C187 1.191 . S
O169 Mg160 2.081 1_565 S
O169 C177 1.331 . S
O170 Mg166 1.986 . S
O170 C187 1.307 . S
O171 Mg160 2.023 . S
O171 C186 1.264 . S
O172 Mg161 1.942 . S
O172 C177 1.244 . S
O173 Mg161 1.955 1_545 S
O173 C186 1.273 . S
O174 Mg163 2.114 1_565 S
O174 Mg165 2.282 1_565 S
O174 C176 1.312 . S
O175 Mg160 2.031 1_565 S
O175 C176 1.208 . S
C176 O174 1.312 . S
C176 O175 1.208 . S
C177 O169 1.331 . S
C177 O172 1.244 . S
O178 Mg163 2.013 1_565 S
O178 C167 1.191 . S
O179 C158 1.331 . S
O179 Mg165 2.092 . S
O180 Mg161 1.986 . S
O180 C167 1.307 . S
O181 C159 1.264 . S
O181 Mg165 1.990 1_565 S
O182 C158 1.244 . S
O182 Mg166 1.942 . S
O183 C159 1.273 . S
O183 Mg166 1.955 1_565 S
O184 C157 1.312 . S
O184 Mg160 2.291 . S
O184 Mg163 2.114 . S
O185 C157 1.208 . S
O185 Mg165 2.063 . S
C186 O171 1.264 . S
C186 O173 1.273 . S
C187 O168 1.191 . S
C187 O170 1.307 . S
C188 O215 1.312 . S
C188 O216 1.208 . S
C189 O210 1.331 . S
C189 O213 1.244 . S
C190 O212 1.264 . S
C190 O214 1.273 . S
Mg191 O193 1.936 . S
Mg191 O200 2.081 . S
Mg191 O202 2.023 . S
Mg191 O206 2.031 . S
Mg191 O215 2.291 . S
Mg192 O193 1.963 . S
Mg192 O203 1.942 . S
Mg192 O204 1.955 . S
Mg192 O211 1.986 . S
O193 Mg191 1.936 . S
O193 Mg192 1.963 . S
O193 Mg194 1.915 . S
Mg194 O193 1.915 . S
Mg194 O195 1.915 . S
Mg194 O199 2.013 . S
Mg194 O205 2.114 . S
Mg194 O209 2.013 . S
Mg194 O215 2.114 . S
O195 Mg194 1.915 . S
O195 Mg196 1.936 . S
O195 Mg197 1.963 . S
Mg196 O195 1.936 . S
Mg196 O205 2.291 . S
Mg196 O210 2.081 . S
Mg196 O212 2.023 . S
Mg196 O216 2.031 . S
Mg197 O195 1.963 . S
Mg197 O201 1.986 . S
Mg197 O213 1.942 . S
Mg197 O214 1.955 . S
C198 O209 1.191 . S
C198 O211 1.307 . S
O199 Mg194 2.013 . S
O199 C218 1.191 . S
O200 Mg191 2.081 . S
O200 C208 1.331 . S
O201 Mg197 1.986 . S
O201 C218 1.307 . S
O202 Mg191 2.023 . S
O202 C217 1.264 . S
O203 Mg192 1.942 . S
O203 C208 1.244 . S
O204 Mg192 1.955 . S
O204 C217 1.273 . S
O205 Mg194 2.114 . S
O205 Mg196 2.291 . S
O205 C207 1.312 . S
O206 Mg191 2.031 . S
O206 C207 1.208 . S
C207 O205 1.312 . S
C207 O206 1.208 . S
C208 O200 1.331 . S
C208 O203 1.244 . S
O209 Mg194 2.013 . S
O209 C198 1.191 . S
O210 C189 1.331 . S
O210 Mg196 2.081 . S
O211 Mg192 1.986 . S
O211 C198 1.307 . S
O212 C190 1.264 . S
O212 Mg196 2.023 . S
O213 C189 1.244 . S
O213 Mg197 1.942 . S
O214 C190 1.273 . S
O214 Mg197 1.955 . S
O215 C188 1.312 . S
O215 Mg191 2.291 . S
O215 Mg194 2.114 . S
O216 C188 1.208 . S
O216 Mg196 2.031 . S
C217 O202 1.264 . S
C217 O204 1.273 . S
C218 O199 1.191 . S
C218 O201 1.307 . S
C219 C220 1.387 . S
C219 H223 0.950 . S
C219 C228 1.390 . S
C220 C219 1.387 . S
C220 C222 1.387 . S
H221 C228 0.950 . S
C222 C220 1.387 . S
C222 C224 1.390 . S
C222 H226 0.950 . S
H223 C219 0.950 . S
C224 C222 1.390 . S
C224 C225 1.387 . S
C224 H227 0.950 . S
C225 C224 1.387 . S
C225 C228 1.387 . S
H226 C222 0.950 . S
H227 C224 0.950 . S
C228 C219 1.390 . S
C228 H221 0.950 . S
C228 C225 1.387 . S
C229 C230 1.387 . S
C229 H233 0.950 . S
C229 C238 1.390 . S
C230 C229 1.387 . S
C230 C232 1.387 . S
H231 C238 0.950 . S
C232 C230 1.387 . S
C232 C234 1.390 . S
C232 H236 0.950 . S
H233 C229 0.950 . S
C234 C232 1.390 . S
C234 C235 1.387 . S
C234 H237 0.950 . S
C235 C234 1.387 . S
C235 C238 1.387 . S
H236 C232 0.950 . S
H237 C234 0.950 . S
C238 C229 1.390 . S
C238 H231 0.950 . S
C238 C235 1.387 . S
C239 C240 1.387 . S
C239 H243 0.950 . S
C239 C248 1.390 . S
C240 C239 1.387 . S
C240 C242 1.387 . S
H241 C248 0.950 . S
C242 C240 1.387 . S
C242 C244 1.390 . S
C242 H246 0.950 . S
H243 C239 0.950 . S
C244 C242 1.390 . S
C244 C245 1.387 . S
C244 H247 0.950 . S
C245 C244 1.387 . S
C245 C248 1.387 . S
H246 C242 0.950 . S
H247 C244 0.950 . S
C248 C239 1.390 . S
C248 H241 0.950 . S
C248 C245 1.387 . S
C249 C250 1.387 . S
C249 H253 0.950 . S
C249 C258 1.390 . S
C250 C249 1.387 . S
C250 C252 1.387 . S
H251 C258 0.950 . S
C252 C250 1.387 . S
C252 C254 1.390 . S
C252 H256 0.950 . S
H253 C249 0.950 . S
C254 C252 1.390 . S
C254 C255 1.387 . S
C254 H257 0.950 . S
C255 C254 1.387 . S
C255 C258 1.387 . S
H256 C252 0.950 . S
H257 C254 0.950 . S
C258 C249 1.390 . S
C258 H251 0.950 . S
C258 C255 1.387 . S
C259 C260 1.387 . S
C259 H263 0.950 . S
C259 C268 1.390 . S
C260 C259 1.387 . S
C260 C262 1.387 . S
H261 C268 0.950 . S
C262 C260 1.387 . S
C262 C264 1.390 . S
C262 H266 0.950 . S
H263 C259 0.950 . S
C264 C262 1.390 . S
C264 C265 1.387 . S
C264 H267 0.950 . S
C265 C264 1.387 . S
C265 C268 1.387 . S
H266 C262 0.950 . S
H267 C264 0.950 . S
C268 C259 1.390 . S
C268 H261 0.950 . S
C268 C265 1.387 . S
C269 C270 1.387 . S
C269 H273 0.950 . S
C269 C278 1.390 . S
C270 C269 1.387 . S
C270 C272 1.387 . S
H271 C278 0.950 . S
C272 C270 1.387 . S
C272 C274 1.390 . S
C272 H276 0.950 . S
H273 C269 0.950 . S
C274 C272 1.390 . S
C274 C275 1.387 . S
C274 H277 0.950 . S
C275 C274 1.387 . S
C275 C278 1.387 . S
H276 C272 0.950 . S
H277 C274 0.950 . S
C278 C269 1.390 . S
C278 H271 0.950 . S
C278 C275 1.387 . S
C279 C280 1.387 . S
C279 H283 0.950 . S
C279 C288 1.390 . S
C280 C279 1.387 . S
C280 C282 1.387 . S
H281 C288 0.950 . S
C282 C280 1.387 . S
C282 C284 1.390 . S
C282 H286 0.950 . S
H283 C279 0.950 . S
C284 C282 1.390 . S
C284 C285 1.387 . S
C284 H287 0.950 . S
C285 C284 1.387 . S
C285 C288 1.387 . S
H286 C282 0.950 . S
H287 C284 0.950 . S
C288 C279 1.390 . S
C288 H281 0.950 . S
C288 C285 1.387 . S
C289 C290 1.387 . S
C289 H293 0.950 . S
C289 C298 1.390 . S
C290 C289 1.387 . S
C290 C292 1.387 . S
H291 C298 0.950 . S
C292 C290 1.387 . S
C292 C294 1.390 . S
C292 H296 0.950 . S
H293 C289 0.950 . S
C294 C292 1.390 . S
C294 C295 1.387 . S
C294 H297 0.950 . S
C295 C294 1.387 . S
C295 C298 1.387 . S
H296 C292 0.950 . S
H297 C294 0.950 . S
C298 C289 1.390 . S
C298 H291 0.950 . S
C298 C295 1.387 . S
C299 C300 1.387 . S
C299 H303 0.950 . S
C299 C308 1.390 . S
C300 C299 1.387 . S
C300 C302 1.387 . S
H301 C308 0.950 . S
C302 C300 1.387 . S
C302 C304 1.390 . S
C302 H306 0.950 . S
H303 C299 0.950 . S
C304 C302 1.390 . S
C304 C305 1.387 . S
C304 H307 0.950 . S
C305 C304 1.387 . S
C305 C308 1.387 . S
H306 C302 0.950 . S
H307 C304 0.950 . S
C308 C299 1.390 . S
C308 H301 0.950 . S
C308 C305 1.387 . S
C309 C310 1.387 . S
C309 H313 0.950 . S
C309 C318 1.390 1_554 S
C310 C309 1.387 . S
C310 C312 1.387 1_554 S
H311 C318 0.950 . S
C312 C310 1.387 1_556 S
C312 C314 1.390 . S
C312 H316 0.950 . S
H313 C309 0.950 . S
C314 C312 1.390 . S
C314 C315 1.387 . S
C314 H317 0.950 . S
C315 C314 1.387 . S
C315 C318 1.387 . S
H316 C312 0.950 . S
H317 C314 0.950 . S
C318 C309 1.390 1_556 S
C318 H311 0.950 . S
C318 C315 1.387 . S
C319 C320 1.387 . S
C319 H323 0.950 . S
C319 C328 1.390 . S
C320 C319 1.387 . S
C320 C322 1.387 1_554 S
H321 C328 0.950 . S
C322 C320 1.387 1_556 S
C322 C324 1.390 . S
C322 H326 0.950 . S
H323 C319 0.950 . S
C324 C322 1.390 . S
C324 C325 1.387 . S
C324 H327 0.950 . S
C325 C324 1.387 . S
C325 C328 1.387 1_556 S
H326 C322 0.950 . S
H327 C324 0.950 . S
C328 C319 1.390 . S
C328 H321 0.950 . S
C328 C325 1.387 1_554 S
C329 C330 1.387 . S
C329 H333 0.950 . S
C329 C338 1.390 . S
C330 C329 1.387 . S
C330 C332 1.387 1_556 S
H331 C338 0.950 . S
C332 C330 1.387 1_554 S
C332 C334 1.390 1_554 S
C332 H336 0.950 . S
H333 C329 0.950 . S
C334 C332 1.390 1_556 S
C334 C335 1.387 . S
C334 H337 0.950 . S
C335 C334 1.387 . S
C335 C338 1.387 . S
H336 C332 0.950 . S
H337 C334 0.950 . S
C338 C329 1.390 . S
C338 H331 0.950 . S
C338 C335 1.387 . S
C339 C340 1.387 . S
C339 H343 0.950 . S
C339 C348 1.390 . S
C340 C339 1.387 . S
C340 C342 1.387 . S
H341 C348 0.950 . S
C342 C340 1.387 . S
C342 C344 1.390 . S
C342 H346 0.950 . S
H343 C339 0.950 . S
C344 C342 1.390 . S
C344 C345 1.387 . S
C344 H347 0.950 . S
C345 C344 1.387 . S
C345 C348 1.387 . S
H346 C342 0.950 . S
H347 C344 0.950 . S
C348 C339 1.390 . S
C348 H341 0.950 . S
C348 C345 1.387 . S
C349 C350 1.387 1_554 S
C349 H353 0.950 . S
C349 C358 1.390 1_554 S
C350 C349 1.387 1_556 S
C350 C352 1.387 . S
H351 C358 0.950 1_554 S
C352 C350 1.387 . S
C352 C354 1.390 . S
C352 H356 0.950 . S
H353 C349 0.950 . S
C354 C352 1.390 . S
C354 C355 1.387 . S
C354 H357 0.950 . S
C355 C354 1.387 . S
C355 C358 1.387 . S
H356 C352 0.950 . S
H357 C354 0.950 . S
C358 C349 1.390 1_556 S
C358 H351 0.950 1_556 S
C358 C355 1.387 . S
C359 C360 1.387 . S
C359 H363 0.950 . S
C359 C368 1.390 1_554 S
C360 C359 1.387 . S
C360 C362 1.387 1_554 S
H361 C368 0.950 . S
C362 C360 1.387 1_556 S
C362 C364 1.390 . S
C362 H366 0.950 . S
H363 C359 0.950 . S
C364 C362 1.390 . S
C364 C365 1.387 . S
C364 H367 0.950 . S
C365 C364 1.387 . S
C365 C368 1.387 . S
H366 C362 0.950 . S
H367 C364 0.950 . S
C368 C359 1.390 1_556 S
C368 H361 0.950 . S
C368 C365 1.387 . S
C369 C370 1.387 . S
C369 H373 0.950 . S
C369 C378 1.390 1_554 S
C370 C369 1.387 . S
C370 C372 1.387 . S
H371 C378 0.950 . S
C372 C370 1.387 . S
C372 C374 1.390 1_554 S
C372 H376 0.950 . S
H373 C369 0.950 . S
C374 C372 1.390 1_556 S
C374 C375 1.387 . S
C374 H377 0.950 . S
C375 C374 1.387 . S
C375 C378 1.387 . S
H376 C372 0.950 . S
H377 C374 0.950 . S
C378 C369 1.390 1_556 S
C378 H371 0.950 . S
C378 C375 1.387 . S
C379 C380 1.387 . S
C379 H383 0.950 . S
C379 C388 1.390 . S
C380 C379 1.387 . S
C380 C382 1.387 . S
H381 C388 0.950 . S
C382 C380 1.387 . S
C382 C384 1.390 . S
C382 H386 0.950 1_556 S
H383 C379 0.950 . S
C384 C382 1.390 . S
C384 C385 1.387 . S
C384 H387 0.950 . S
C385 C384 1.387 . S
C385 C388 1.387 . S
H386 C382 0.950 1_554 S
H387 C384 0.950 . S
C388 C379 1.390 . S
C388 H381 0.950 . S
C388 C385 1.387 . S
C389 C390 1.387 . S
C389 H393 0.950 . S
C389 C398 1.390 . S
C390 C389 1.387 . S
C390 C392 1.387 . S
H391 C398 0.950 . S
C392 C390 1.387 . S
C392 C394 1.390 . S
C392 H396 0.950 . S
H393 C389 0.950 . S
C394 C392 1.390 . S
C394 C395 1.387 . S
C394 H397 0.950 . S
C395 C394 1.387 . S
C395 C398 1.387 . S
H396 C392 0.950 . S
H397 C394 0.950 . S
C398 C389 1.390 . S
C398 H391 0.950 . S
C398 C395 1.387 . S
C399 C400 1.387 . S
C399 H403 0.950 . S
C399 C408 1.390 . S
C400 C399 1.387 . S
C400 C402 1.387 . S
H401 C408 0.950 . S
C402 C400 1.387 . S
C402 C404 1.390 . S
C402 H406 0.950 . S
H403 C399 0.950 . S
C404 C402 1.390 . S
C404 C405 1.387 . S
C404 H407 0.950 . S
C405 C404 1.387 . S
C405 C408 1.387 . S
H406 C402 0.950 . S
H407 C404 0.950 . S
C408 C399 1.390 . S
C408 H401 0.950 . S
C408 C405 1.387 . S
C409 C410 1.387 . S
C409 H413 0.950 . S
C409 C418 1.390 . S
C410 C409 1.387 . S
C410 C412 1.387 . S
H411 C418 0.950 . S
C412 C410 1.387 . S
C412 C414 1.390 . S
C412 H416 0.950 . S
H413 C409 0.950 . S
C414 C412 1.390 . S
C414 C415 1.387 . S
C414 H417 0.950 . S
C415 C414 1.387 . S
C415 C418 1.387 . S
H416 C412 0.950 . S
H417 C414 0.950 . S
C418 C409 1.390 . S
C418 H411 0.950 . S
C418 C415 1.387 . S
C419 C420 1.387 . S
C419 H423 0.950 . S
C419 C428 1.390 . S
C420 C419 1.387 . S
C420 C422 1.387 . S
H421 C428 0.950 . S
C422 C420 1.387 . S
C422 C424 1.390 . S
C422 H426 0.950 . S
H423 C419 0.950 . S
C424 C422 1.390 . S
C424 C425 1.387 . S
C424 H427 0.950 . S
C425 C424 1.387 . S
C425 C428 1.387 . S
H426 C422 0.950 . S
H427 C424 0.950 . S
C428 C419 1.390 . S
C428 H421 0.950 . S
C428 C425 1.387 . S
C429 C430 1.387 . S
C429 H433 0.950 . S
C429 C438 1.390 . S
C430 C429 1.387 . S
C430 C432 1.387 . S
H431 C438 0.950 . S
C432 C430 1.387 . S
C432 C434 1.390 . S
C432 H436 0.950 . S
H433 C429 0.950 . S
C434 C432 1.390 . S
C434 C435 1.387 . S
C434 H437 0.950 . S
C435 C434 1.387 . S
C435 C438 1.387 . S
H436 C432 0.950 . S
H437 C434 0.950 . S
C438 C429 1.390 . S
C438 H431 0.950 . S
C438 C435 1.387 . S
C439 C440 1.387 . S
C439 H443 0.950 . S
C439 C448 1.390 . S
C440 C439 1.387 . S
C440 C442 1.387 . S
H441 C448 0.950 . S
C442 C440 1.387 . S
C442 C444 1.390 . S
C442 H446 0.950 . S
H443 C439 0.950 . S
C444 C442 1.390 . S
C444 C445 1.387 . S
C444 H447 0.950 . S
C445 C444 1.387 . S
C445 C448 1.387 . S
H446 C442 0.950 . S
H447 C444 0.950 . S
C448 C439 1.390 . S
C448 H441 0.950 . S
C448 C445 1.387 . S
C449 C450 1.387 . S
C449 H453 0.950 . S
C449 C458 1.390 . S
C450 C449 1.387 . S
C450 C452 1.387 . S
H451 C458 0.950 . S
C452 C450 1.387 . S
C452 C454 1.390 . S
C452 H456 0.950 . S
H453 C449 0.950 . S
C454 C452 1.390 . S
C454 C455 1.387 . S
C454 H457 0.950 . S
C455 C454 1.387 . S
C455 C458 1.387 . S
H456 C452 0.950 . S
H457 C454 0.950 . S
C458 C449 1.390 . S
C458 H451 0.950 . S
C458 C455 1.387 . S
C220 C12 1.650 . S
C225 C126 1.773 . S
C230 C40 1.470 . S
C235 C158 1.500 . S
C245 C217 1.789 . S
C240 C61 1.826 . S
C255 C146 1.382 . S
C250 C82 1.402 . S
C260 C96 1.588 . S
C265 C176 1.657 . S
C275 C198 1.393 . S
C270 C117 1.224 . S
C285 C167 1.784 . S
C280 C51 1.746 . S
C290 C72 1.414 . S
C295 C207 1.396 . S
C305 C156 1.683 . S
C300 C101 1.570 1_556 S
C310 C122 1.401 . S
C315 C186 1.466 . S
C320 C17 1.664 . S
C325 C189 1.735 . S
C335 C128 1.574 . S
C330 C30 1.544 1_556 S
C345 C136 1.722 . S
C340 C80 1.698 . S
C355 C177 1.462 . S
C350 C93 1.396 1_556 S
C365 C190 1.794 . S
C360 C114 1.775 . S
C375 C127 1.386 . S
C370 C9 1.364 . S
C385 C187 1.613 . S
C380 C38 1.644 1_556 S
C390 C59 1.328 . S
C395 C188 1.352 . S
C405 C157 1.696 . S
C400 C124 1.639 . S
C415 C218 1.347 . S
C410 C19 1.263 . S
C425 C145 1.605 . S
C420 C33 1.665 . S
C435 C159 1.472 . S
C430 C54 1.469 . S
C440 C75 1.718 . S
C445 C208 1.708 . S
C450 C103 1.484 . S
C455 C155 1.544 . S
