# Generated by pormake.
# Topology ctn, (3,4)-cn, num edge types: 1
# Building blocks:
#     Node 0, Type 0, BuildingBlock: BETDIP_clean_linker_0, # of connection points: 3
#     Node 1, Type 0, BuildingBlock: BETDIP_clean_linker_0, # of connection points: 3
#     Node 2, Type 0, BuildingBlock: BETDIP_clean_linker_0, # of connection points: 3
#     Node 3, Type 0, BuildingBlock: BETDIP_clean_linker_0, # of connection points: 3
#     Node 4, Type 0, BuildingBlock: BETDIP_clean_linker_0, # of connection points: 3
#     Node 5, Type 0, BuildingBlock: BETDIP_clean_linker_0, # of connection points: 3
#     Node 6, Type 0, BuildingBlock: BETDIP_clean_linker_0, # of connection points: 3
#     Node 7, Type 0, BuildingBlock: BETDIP_clean_linker_0, # of connection points: 3
#     Node 8, Type 0, BuildingBlock: BETDIP_clean_linker_0, # of connection points: 3
#     Node 9, Type 0, BuildingBlock: BETDIP_clean_linker_0, # of connection points: 3
#     Node 10, Type 0, BuildingBlock: BETDIP_clean_linker_0, # of connection points: 3
#     Node 11, Type 0, BuildingBlock: BETDIP_clean_linker_0, # of connection points: 3
#     Node 12, Type 0, BuildingBlock: BETDIP_clean_linker_0, # of connection points: 3
#     Node 13, Type 0, BuildingBlock: BETDIP_clean_linker_0, # of connection points: 3
#     Node 14, Type 0, BuildingBlock: BETDIP_clean_linker_0, # of connection points: 3
#     Node 15, Type 0, BuildingBlock: BETDIP_clean_linker_0, # of connection points: 3
#     Node 16, Type 1, BuildingBlock: KUFVIS_clean_sbu_0, # of connection points: 4
#     Node 17, Type 1, BuildingBlock: KUFVIS_clean_sbu_0, # of connection points: 4
#     Node 18, Type 1, BuildingBlock: KUFVIS_clean_sbu_0, # of connection points: 4
#     Node 19, Type 1, BuildingBlock: KUFVIS_clean_sbu_0, # of connection points: 4
#     Node 20, Type 1, BuildingBlock: KUFVIS_clean_sbu_0, # of connection points: 4
#     Node 21, Type 1, BuildingBlock: KUFVIS_clean_sbu_0, # of connection points: 4
#     Node 22, Type 1, BuildingBlock: KUFVIS_clean_sbu_0, # of connection points: 4
#     Node 23, Type 1, BuildingBlock: KUFVIS_clean_sbu_0, # of connection points: 4
#     Node 24, Type 1, BuildingBlock: KUFVIS_clean_sbu_0, # of connection points: 4
#     Node 25, Type 1, BuildingBlock: KUFVIS_clean_sbu_0, # of connection points: 4
#     Node 26, Type 1, BuildingBlock: KUFVIS_clean_sbu_0, # of connection points: 4
#     Node 27, Type 1, BuildingBlock: KUFVIS_clean_sbu_0, # of connection points: 4
#     Edge 28, Type (0, 1), BuildingBlock: OJICUG_clean_linker_0, # of connection points: 2
#     Edge 29, Type (0, 1), BuildingBlock: OJICUG_clean_linker_0, # of connection points: 2
#     Edge 30, Type (0, 1), BuildingBlock: OJICUG_clean_linker_0, # of connection points: 2
#     Edge 31, Type (0, 1), BuildingBlock: OJICUG_clean_linker_0, # of connection points: 2
#     Edge 32, Type (0, 1), BuildingBlock: OJICUG_clean_linker_0, # of connection points: 2
#     Edge 33, Type (0, 1), BuildingBlock: OJICUG_clean_linker_0, # of connection points: 2
#     Edge 34, Type (0, 1), BuildingBlock: OJICUG_clean_linker_0, # of connection points: 2
#     Edge 35, Type (0, 1), BuildingBlock: OJICUG_clean_linker_0, # of connection points: 2
#     Edge 36, Type (0, 1), BuildingBlock: OJICUG_clean_linker_0, # of connection points: 2
#     Edge 37, Type (0, 1), BuildingBlock: OJICUG_clean_linker_0, # of connection points: 2
#     Edge 38, Type (0, 1), BuildingBlock: OJICUG_clean_linker_0, # of connection points: 2
#     Edge 39, Type (0, 1), BuildingBlock: OJICUG_clean_linker_0, # of connection points: 2
#     Edge 40, Type (0, 1), BuildingBlock: OJICUG_clean_linker_0, # of connection points: 2
#     Edge 41, Type (0, 1), BuildingBlock: OJICUG_clean_linker_0, # of connection points: 2
#     Edge 42, Type (0, 1), BuildingBlock: OJICUG_clean_linker_0, # of connection points: 2
#     Edge 43, Type (0, 1), BuildingBlock: OJICUG_clean_linker_0, # of connection points: 2
#     Edge 44, Type (0, 1), BuildingBlock: OJICUG_clean_linker_0, # of connection points: 2
#     Edge 45, Type (0, 1), BuildingBlock: OJICUG_clean_linker_0, # of connection points: 2
#     Edge 46, Type (0, 1), BuildingBlock: OJICUG_clean_linker_0, # of connection points: 2
#     Edge 47, Type (0, 1), BuildingBlock: OJICUG_clean_linker_0, # of connection points: 2
#     Edge 48, Type (0, 1), BuildingBlock: OJICUG_clean_linker_0, # of connection points: 2
#     Edge 49, Type (0, 1), BuildingBlock: OJICUG_clean_linker_0, # of connection points: 2
#     Edge 50, Type (0, 1), BuildingBlock: OJICUG_clean_linker_0, # of connection points: 2
#     Edge 51, Type (0, 1), BuildingBlock: OJICUG_clean_linker_0, # of connection points: 2
#     Edge 52, Type (0, 1), BuildingBlock: OJICUG_clean_linker_0, # of connection points: 2
#     Edge 53, Type (0, 1), BuildingBlock: OJICUG_clean_linker_0, # of connection points: 2
#     Edge 54, Type (0, 1), BuildingBlock: OJICUG_clean_linker_0, # of connection points: 2
#     Edge 55, Type (0, 1), BuildingBlock: OJICUG_clean_linker_0, # of connection points: 2
#     Edge 56, Type (0, 1), BuildingBlock: OJICUG_clean_linker_0, # of connection points: 2
#     Edge 57, Type (0, 1), BuildingBlock: OJICUG_clean_linker_0, # of connection points: 2
#     Edge 58, Type (0, 1), BuildingBlock: OJICUG_clean_linker_0, # of connection points: 2
#     Edge 59, Type (0, 1), BuildingBlock: OJICUG_clean_linker_0, # of connection points: 2
#     Edge 60, Type (0, 1), BuildingBlock: OJICUG_clean_linker_0, # of connection points: 2
#     Edge 61, Type (0, 1), BuildingBlock: OJICUG_clean_linker_0, # of connection points: 2
#     Edge 62, Type (0, 1), BuildingBlock: OJICUG_clean_linker_0, # of connection points: 2
#     Edge 63, Type (0, 1), BuildingBlock: OJICUG_clean_linker_0, # of connection points: 2
#     Edge 64, Type (0, 1), BuildingBlock: OJICUG_clean_linker_0, # of connection points: 2
#     Edge 65, Type (0, 1), BuildingBlock: OJICUG_clean_linker_0, # of connection points: 2
#     Edge 66, Type (0, 1), BuildingBlock: OJICUG_clean_linker_0, # of connection points: 2
#     Edge 67, Type (0, 1), BuildingBlock: OJICUG_clean_linker_0, # of connection points: 2
#     Edge 68, Type (0, 1), BuildingBlock: OJICUG_clean_linker_0, # of connection points: 2
#     Edge 69, Type (0, 1), BuildingBlock: OJICUG_clean_linker_0, # of connection points: 2
#     Edge 70, Type (0, 1), BuildingBlock: OJICUG_clean_linker_0, # of connection points: 2
#     Edge 71, Type (0, 1), BuildingBlock: OJICUG_clean_linker_0, # of connection points: 2
#     Edge 72, Type (0, 1), BuildingBlock: OJICUG_clean_linker_0, # of connection points: 2
#     Edge 73, Type (0, 1), BuildingBlock: OJICUG_clean_linker_0, # of connection points: 2
#     Edge 74, Type (0, 1), BuildingBlock: OJICUG_clean_linker_0, # of connection points: 2
#     Edge 75, Type (0, 1), BuildingBlock: OJICUG_clean_linker_0, # of connection points: 2
# Relax obj value: 0.083
# Max RMSD: 0.188
# Mean RMSD: 0.121
data_MOF--net-ctn--node1-KUFVIS_clean_sbu_0--node2-BETDIP_clean_linker_0--edge1-OJICUG_clean_linker_0
_symmetry_space_group_name_H-M    P1
_symmetry_Int_Tables_number       1
_symmetry_cell_setting            triclinic
loop_
_symmetry_equiv_pos_as_xyz
'x, y, z'
_cell_length_a     36.897706
_cell_length_b     37.137565
_cell_length_c     41.393288
_cell_angle_alpha  95.12286
_cell_angle_beta   94.58662
_cell_angle_gamma 95.089911
loop_
_atom_site_label
_atom_site_type_symbol
_atom_site_fract_x
_atom_site_fract_y
_atom_site_fract_z
_atom_type_partial_charge
H0 H 0.03385 0.06889 0.08761 0.0
H1 H 0.10266 0.0308 0.01664 0.0
H2 H 0.08733 0.97118 0.09969 0.0
H3 H 0.1033 0.08747 1.00291 0.0
C4 C 0.07589 0.09482 1.00606 0.0
C5 C 0.05104 0.04843 0.0794 0.0
C6 C 0.05772 0.01922 0.09803 0.0
C7 C 0.06665 0.05256 0.0501 0.0
C8 C 0.09042 0.02753 0.03916 0.0
C9 C 0.09866 0.99822 0.05697 0.0
C10 C 0.08204 0.99426 0.08645 0.0
N11 N 0.05657 0.0814 0.03164 0.0
H12 H 0.29544 0.67194 0.17288 0.0
H13 H 0.39826 0.72996 0.21019 0.0
H14 H 0.35275 0.64294 0.26038 0.0
H15 H 0.37105 0.77561 0.18617 0.0
C16 C 0.35937 0.76159 0.16301 0.0
C17 C 0.31886 0.67544 0.19078 0.0
C18 C 0.32037 0.65368 0.21697 0.0
C19 C 0.34655 0.70322 0.1883 0.0
C20 C 0.37641 0.70901 0.21208 0.0
C21 C 0.37861 0.68738 0.2382 0.0
C22 C 0.35086 0.65953 0.24019 0.0
N23 N 0.34347 0.7251 0.16183 0.0
H24 H 0.94357 0.50282 1.00522 0.0
H25 H 0.02627 0.46813 0.06952 0.0
H26 H 0.98545 0.57163 0.09246 0.0
H27 H 0.04649 0.44725 0.0182 0.0
C28 C 0.01995 0.43414 0.00823 0.0
C29 C 0.96208 0.509 0.02703 0.0
C30 C 0.96074 0.54112 0.04769 0.0
C31 C 0.98703 0.48396 0.03406 0.0
C32 C 0.00946 0.48934 0.0633 0.0
C33 C 0.00911 0.52064 0.08502 0.0
C34 C 0.98496 0.54677 0.07664 0.0
N35 N 0.98808 0.45259 0.01192 0.0
H36 H 0.69765 0.78867 0.18087 0.0
H37 H 0.73876 0.88402 0.24381 0.0
H38 H 0.78916 0.85708 0.15553 0.0
H39 H 0.67628 0.87787 0.25665 0.0
C40 C 0.6752 0.8491 0.25991 0.0
C41 C 0.71657 0.81295 0.1859 0.0
C42 C 0.74283 0.82092 0.1642 0.0
C43 C 0.71488 0.83561 0.21448 0.0
C44 C 0.73983 0.86671 0.22152 0.0
C45 C 0.76703 0.87474 0.20048 0.0
C46 C 0.76814 0.85165 0.17177 0.0
N47 N 0.68961 0.82491 0.23679 0.0
H48 H 0.03145 0.95409 0.44821 0.0
H49 H 0.12194 0.99237 0.5186 0.0
H50 H 0.10826 0.04129 0.42872 0.0
H51 H 0.08943 0.96508 0.55312 0.0
C52 C 0.07269 0.94228 0.53966 0.0
C53 C 0.05555 0.97272 0.45579 0.0
C54 C 0.06737 0.99855 0.43508 0.0
C55 C 0.07433 0.97074 0.48635 0.0
C56 C 0.10604 0.99468 0.49595 0.0
C57 C 0.11856 0.02069 0.47559 0.0
C58 C 0.09886 0.0222 0.44513 0.0
N59 N 0.06136 0.94351 0.50608 0.0
H60 H 0.21096 0.73241 0.85006 0.0
H61 H 0.26527 0.66433 0.78451 0.0
H62 H 0.31277 0.69354 0.88317 0.0
H63 H 0.19944 0.65074 0.7639 0.0
C64 C 0.19227 0.67853 0.7645 0.0
C65 C 0.23368 0.71662 0.84576 0.0
C66 C 0.26148 0.71549 0.87064 0.0
C67 C 0.23491 0.69872 0.8149 0.0
C68 C 0.26414 0.67803 0.80858 0.0
C69 C 0.29231 0.67551 0.83322 0.0
C70 C 0.29092 0.69461 0.86427 0.0
N71 N 0.2074 0.70444 0.79039 0.0
H72 H 0.03272 0.59424 0.47946 0.0
H73 H 0.95906 0.5003 0.44392 0.0
H74 H 0.94223 0.56252 0.53321 0.0
H75 H 1.00521 0.48751 0.41081 0.0
C76 C 0.01875 0.51382 0.40716 0.0
C77 C 0.00936 0.57545 0.48267 0.0
C78 C 0.98911 0.58158 0.50952 0.0
C79 C 0.99908 0.54623 0.45902 0.0
C80 C 0.96791 0.52247 0.46242 0.0
C81 C 0.94741 0.52802 0.48955 0.0
C82 C 0.95834 0.55758 0.51289 0.0
N83 N 0.01954 0.54371 0.43131 0.0
H84 H 0.81914 0.86039 0.78301 0.0
H85 H 0.86766 0.79666 0.85313 0.0
H86 H 0.7629 0.83621 0.86676 0.0
H87 H 0.87497 0.86196 0.76265 0.0
C88 C 0.88781 0.8386 0.77036 0.0
C89 C 0.81817 0.84769 0.80549 0.0
C90 C 0.78798 0.85137 0.82397 0.0
C91 C 0.84693 0.82799 0.81632 0.0
C92 C 0.84504 0.81142 0.84521 0.0
C93 C 0.81488 0.81343 0.86372 0.0
C94 C 0.78659 0.83422 0.8531 0.0
N95 N 0.87764 0.82223 0.79847 0.0
H96 H 0.32626 0.37285 0.28345 0.0
H97 H 0.36901 0.2987 0.34757 0.0
H98 H 0.26954 0.34638 0.36604 0.0
H99 H 0.42053 0.30947 0.32464 0.0
C100 C 0.4139 0.31769 0.30054 0.0
C101 C 0.32443 0.3586 0.3051 0.0
C102 C 0.29455 0.36211 0.32367 0.0
C103 C 0.35222 0.3371 0.31409 0.0
C104 C 0.34927 0.31745 0.34164 0.0
C105 C 0.31925 0.32002 0.36046 0.0
C106 C 0.29264 0.34353 0.35173 0.0
N107 N 0.38124 0.33426 0.2935 0.0
H108 H 0.45711 0.01174 0.49904 0.0
H109 H 0.53475 0.97534 0.56774 0.0
H110 H 0.47576 0.06643 0.59636 0.0
H111 H 0.5573 0.95156 0.51983 0.0
C112 C 0.531 0.94026 0.50774 0.0
C113 C 0.47061 0.01477 0.52347 0.0
C114 C 0.46275 0.04267 0.54647 0.0
C115 C 0.49621 0.99059 0.53106 0.0
C116 C 0.51486 0.99408 0.56217 0.0
C117 C 0.50791 0.02124 0.58621 0.0
C118 C 0.48187 0.04576 0.578 0.0
N119 N 0.50068 0.96139 0.50752 0.0
H120 H 0.19831 0.28685 0.67651 0.0
H121 H 0.23549 0.38338 0.73933 0.0
H122 H 0.28903 0.35735 0.65261 0.0
H123 H 0.1723 0.37602 0.75004 0.0
C124 C 0.17195 0.34746 0.754 0.0
C125 C 0.21662 0.31154 0.68177 0.0
C126 C 0.2433 0.32008 0.66056 0.0
C127 C 0.21357 0.33429 0.71003 0.0
C128 C 0.23764 0.36599 0.71729 0.0
C129 C 0.26533 0.37456 0.6969 0.0
C130 C 0.26773 0.35143 0.66844 0.0
N131 N 0.18778 0.32329 0.73183 0.0
H132 H 0.7893 0.16519 0.67409 0.0
H133 H 0.89336 0.22373 0.70537 0.0
H134 H 0.85429 0.13441 0.75659 0.0
H135 H 0.88985 0.23009 0.64656 0.0
C136 C 0.8625 0.23883 0.64595 0.0
C137 C 0.81424 0.16824 0.69018 0.0
C138 C 0.81861 0.14544 0.71534 0.0
C139 C 0.84143 0.19577 0.68591 0.0
C140 C 0.87296 0.20152 0.70775 0.0
C141 C 0.87749 0.17977 0.73363 0.0
C142 C 0.85067 0.15126 0.73675 0.0
N143 N 0.83484 0.21925 0.66123 0.0
H144 H 0.52934 0.56281 0.58882 0.0
H145 H 0.60268 0.53056 0.51922 0.0
H146 H 0.59384 0.4733 0.60461 0.0
H147 H 0.60274 0.58823 0.50806 0.0
C148 C 0.57468 0.59425 0.50999 0.0
C149 C 0.54988 0.5453 0.58172 0.0
C150 C 0.56003 0.51806 0.60138 0.0
C151 C 0.56553 0.5504 0.55256 0.0
C152 C 0.59095 0.52692 0.54193 0.0
C153 C 0.60122 0.4985 0.56007 0.0
C154 C 0.58588 0.49464 0.59015 0.0
N155 N 0.5542 0.57866 0.53392 0.0
H156 H 0.52684 0.45319 0.95051 0.0
H157 H 0.61739 0.49336 0.02017 0.0
H158 H 0.60129 0.54231 0.93055 0.0
H159 H 0.58654 0.46503 0.05499 0.0
C160 C 0.56956 0.4422 0.04185 0.0
C161 C 0.55063 0.47229 0.95785 0.0
C162 C 0.56164 0.49834 0.93694 0.0
C163 C 0.56979 0.47074 0.98836 0.0
C164 C 0.60111 0.49532 0.99765 0.0
C165 C 0.61274 0.52162 0.97717 0.0
C166 C 0.59259 0.5228 0.9469 0.0
N167 N 0.55759 0.44334 0.00833 0.0
H168 H 0.71369 0.23207 0.34939 0.0
H169 H 0.76945 0.16334 0.28557 0.0
H170 H 0.81509 0.19381 0.38452 0.0
H171 H 0.7072 0.15049 0.26143 0.0
C172 C 0.69843 0.17771 0.26286 0.0
C173 C 0.73651 0.21624 0.34565 0.0
C174 C 0.76392 0.21549 0.37096 0.0
C175 C 0.73828 0.19789 0.31504 0.0
C176 C 0.76775 0.17731 0.30943 0.0
C177 C 0.7955 0.1752 0.3345 0.0
C178 C 0.79354 0.19461 0.3653 0.0
N179 N 0.71093 0.20289 0.29013 0.0
H180 H 0.5298 0.0957 0.9784 0.0
H181 H 0.45563 1.00195 0.94371 0.0
H182 H 0.43884 0.06547 0.03232 0.0
H183 H 0.50235 0.98758 0.912 0.0
C184 C 0.51599 0.0136 0.90768 0.0
C185 C 0.50623 0.07725 0.98176 0.0
C186 C 0.486 0.08393 0.00857 0.0
C187 C 0.49588 0.04772 0.95845 0.0
C188 C 0.46451 0.02436 0.96197 0.0
C189 C 0.44387 0.03053 0.98889 0.0
C190 C 0.45495 0.06027 0.01202 0.0
N191 N 0.5166 0.0443 0.93097 0.0
Mn192 Mn 0.27568 0.86767 0.02025 0.0
Mn193 Mn 0.25178 0.89357 0.94625 0.0
C194 C 0.25072 0.82495 0.97739 0.0
C195 C 0.3141 0.84503 0.05947 0.0
C196 C 0.21069 0.91196 1.00571 0.0
O197 O 0.30834 0.91567 0.01977 0.0
O198 O 0.29202 0.92817 0.9684 0.0
C199 C 0.31946 0.88318 0.91394 0.0
N200 N 0.28281 0.8754 0.91499 0.0
C201 C 0.27858 0.83669 0.86474 0.0
C202 C 0.31623 0.84442 0.86306 0.0
C203 C 0.33678 0.86763 0.88786 0.0
C204 C 0.26288 0.85274 0.89147 0.0
H205 H 0.3354 0.90103 0.93289 0.0
C206 C 0.31211 0.93454 0.99546 0.0
O207 O 0.28835 0.86472 0.06729 0.0
O208 O 0.31917 0.83996 0.02874 0.0
N209 N 0.21388 0.86078 0.92257 0.0
C210 C 0.17846 0.85387 0.92909 0.0
C211 C 0.15447 0.83015 0.90719 0.0
C212 C 0.16705 0.81406 0.87871 0.0
C213 C 0.20364 0.82152 0.87257 0.0
C214 C 0.22635 0.8451 0.89542 0.0
H215 H 0.16857 0.86639 0.95081 0.0
O216 O 0.24619 0.81895 0.00734 0.0
O217 O 0.26662 0.85657 0.97392 0.0
O218 O 0.22989 0.8947 0.02473 0.0
O219 O 0.2169 0.91375 0.97593 0.0
C220 C 0.21853 0.80631 0.84478 0.0
C221 C 0.25606 0.81352 0.84105 0.0
H222 H 0.32968 0.83253 0.84295 0.0
H223 H 0.36589 0.8736 0.88682 0.0
H224 H 0.12629 0.82443 0.91216 0.0
H225 H 0.14844 0.79584 0.86183 0.0
H226 H 0.20145 0.78858 0.82634 0.0
H227 H 0.26734 0.80094 0.81997 0.0
Mn228 Mn 0.16092 0.50434 0.25318 0.0
Mn229 Mn 0.13956 0.59115 0.25893 0.0
C230 C 0.19953 0.54937 0.23506 0.0
C231 C 0.19057 0.45846 0.27753 0.0
C232 C 0.10347 0.53342 0.20671 0.0
O233 O 0.12121 0.50392 0.28513 0.0
O234 O 0.11338 0.56362 0.29056 0.0
C235 C 0.17425 0.61475 0.32533 0.0
N236 N 0.17081 0.6191 0.29294 0.0
C237 C 0.21619 0.67055 0.30035 0.0
C238 C 0.22001 0.66678 0.33382 0.0
C239 C 0.19899 0.63872 0.34634 0.0
C240 C 0.19091 0.646 0.28062 0.0
H241 H 0.15836 0.59306 0.33504 0.0
C242 C 0.10702 0.53115 0.2984 0.0
O243 O 0.1652 0.45056 0.25363 0.0
O244 O 0.19747 0.49245 0.28788 0.0
N245 N 0.16366 0.62083 0.23003 0.0
C246 C 0.15862 0.61918 0.19693 0.0
C247 C 0.17864 0.64457 0.18044 0.0
C248 C 0.20346 0.67148 0.19812 0.0
C249 C 0.20795 0.67285 0.23217 0.0
C250 C 0.187 0.64703 0.24731 0.0
H251 H 0.1397 0.59849 0.18318 0.0
O252 O 0.20129 0.51557 0.22502 0.0
O253 O 0.17556 0.55568 0.25571 0.0
O254 O 0.12249 0.50762 0.21435 0.0
O255 O 0.10663 0.56479 0.2227 0.0
C256 C 0.233 0.69829 0.25163 0.0
C257 C 0.2371 0.69713 0.28569 0.0
H258 H 0.2393 0.68501 0.35006 0.0
H259 H 0.20196 0.63549 0.37212 0.0
H260 H 0.17508 0.64329 0.15414 0.0
H261 H 0.21918 0.69073 0.18528 0.0
H262 H 0.2497 0.71846 0.2406 0.0
H263 H 0.25679 0.71649 0.30034 0.0
Mn264 Mn 0.79261 0.66593 0.01442 0.0
Mn265 Mn 0.71269 0.69266 0.98251 0.0
C266 C 0.73766 0.62856 0.01215 0.0
C267 C 0.84691 0.63646 0.0167 0.0
C268 C 0.74894 0.72293 0.04826 0.0
O269 O 0.81019 0.70546 0.98527 0.0
O270 O 0.75463 0.72072 0.96682 0.0
C271 C 0.71704 0.66753 0.91308 0.0
N272 N 0.69884 0.66756 0.94043 0.0
C273 C 0.64664 0.63206 0.9114 0.0
C274 C 0.66478 0.63166 0.88288 0.0
C275 C 0.70023 0.64927 0.88379 0.0
C276 C 0.665 0.65019 0.93995 0.0
H277 H 0.74407 0.68149 0.91361 0.0
C278 C 0.78955 0.7244 0.9684 0.0
O279 O 0.84186 0.66351 0.03714 0.0
O280 O 0.8215 0.62793 0.99283 0.0
N281 N 0.6696 0.66767 0.99562 0.0
C282 C 0.6566 0.66923 0.02557 0.0
C283 C 0.62188 0.65206 0.0291 0.0
C284 C 0.60063 0.63415 1.00172 0.0
C285 C 0.61446 0.63335 0.97111 0.0
C286 C 0.64941 0.6505 0.96915 0.0
H287 H 0.67262 0.6834 0.0466 0.0
O288 O 0.76406 0.62573 0.03421 0.0
O289 O 0.7435 0.65371 0.9929 0.0
O290 O 0.77625 0.70455 0.04681 0.0
O291 O 0.72303 0.72026 0.02573 0.0
C292 C 0.5949 0.61625 0.94247 0.0
C293 C 0.61105 0.61528 0.91265 0.0
H294 H 0.65179 0.61787 0.86018 0.0
H295 H 0.71441 0.64907 0.86188 0.0
H296 H 0.61141 0.65285 0.05281 0.0
H297 H 0.57379 0.62105 1.00448 0.0
H298 H 0.56756 0.60342 0.94331 0.0
H299 H 0.59594 0.60139 0.89089 0.0
Mn300 Mn 0.92838 0.02986 0.26505 0.0
Mn301 Mn 0.94954 0.94295 0.2537 0.0
C302 C 0.88721 0.98526 0.2361 0.0
C303 C 0.90068 0.07628 0.29444 0.0
C304 C 0.98155 1.003 0.21605 0.0
O305 O 0.97028 0.02786 0.30095 0.0
O306 O 0.97873 0.96834 0.29276 0.0
C307 C 0.92158 0.91483 0.31266 0.0
N308 N 0.92149 0.91287 0.27963 0.0
C309 C 0.87734 0.8604 0.27309 0.0
C310 C 0.87713 0.86176 0.30703 0.0
C311 C 0.89929 0.88914 0.32688 0.0
C312 C 0.90025 0.88664 0.26029 0.0
H313 H 0.93847 0.93586 0.32804 0.0
C314 C 0.98526 0.99961 0.30903 0.0
O315 O 0.92528 0.08365 0.2746 0.0
O316 O 0.89396 0.04229 0.29875 0.0
N317 N 0.92208 0.91538 0.21702 0.0
C318 C 0.92344 0.91941 0.18472 0.0
C319 C 0.90179 0.89498 0.16157 0.0
C320 C 0.87912 0.86658 0.17183 0.0
C321 C 0.87827 0.86289 0.20518 0.0
C322 C 0.90061 0.88793 0.22713 0.0
H323 H 0.94077 0.94119 0.17664 0.0
O324 O 0.88521 0.01918 0.23168 0.0
O325 O 0.9135 0.97854 0.25672 0.0
O326 O 0.96371 0.02816 0.22836 0.0
O327 O 0.97949 0.97094 0.22505 0.0
C328 C 0.85558 0.83579 0.21751 0.0
C329 C 0.85508 0.83457 0.25144 0.0
H330 H 0.85981 0.84214 0.3181 0.0
H331 H 0.89913 0.89047 0.3531 0.0
H332 H 0.9025 0.89809 0.13588 0.0
H333 H 0.86223 0.84798 0.15392 0.0
H334 H 0.83794 0.81612 0.20113 0.0
H335 H 0.83704 0.814 0.26063 0.0
Mn336 Mn 0.29637 0.16739 0.50933 0.0
Mn337 Mn 0.21337 0.18968 0.48038 0.0
C338 C 0.24249 0.12842 0.51049 0.0
C339 C 0.35086 0.13811 0.5102 0.0
C340 C 0.2526 0.22373 0.54396 0.0
O341 O 0.31082 0.20593 0.47738 0.0
O342 O 0.2532 0.21708 0.46173 0.0
C343 C 0.21397 0.16175 0.4111 0.0
N344 N 0.19755 0.16282 0.43943 0.0
C345 C 0.14354 0.1278 0.41324 0.0
C346 C 0.15973 0.12652 0.38368 0.0
C347 C 0.19526 0.14325 0.3827 0.0
C348 C 0.16384 0.1459 0.44085 0.0
H349 H 0.24103 0.17508 0.41014 0.0
C350 C 0.28773 0.22226 0.46024 0.0
O351 O 0.34732 0.16653 0.52966 0.0
O352 O 0.32404 0.12859 0.4878 0.0
N353 N 0.17206 0.16452 0.49632 0.0
C354 C 0.16115 0.16673 0.52707 0.0
C355 C 0.12693 0.14983 0.5326 0.0
C356 C 0.10395 0.13169 0.50636 0.0
C357 C 0.11561 0.13027 0.47489 0.0
C358 C 0.15029 0.1469 0.47098 0.0
H359 H 0.17843 0.18126 0.5472 0.0
O360 O 0.27011 0.12738 0.53177 0.0
O361 O 0.2464 0.15286 0.49045 0.0
O362 O 0.28095 0.20694 0.54162 0.0
O363 O 0.22549 0.21897 0.52255 0.0
C364 C 0.09407 0.11328 0.44721 0.0
C365 C 0.10803 0.112 0.41638 0.0
H366 H 0.14519 0.11266 0.36165 0.0
H367 H 0.20799 0.14228 0.36001 0.0
H368 H 0.11812 0.15115 0.55695 0.0
H369 H 0.07742 0.11898 0.51065 0.0
H370 H 0.06689 0.1008 0.44952 0.0
H371 H 0.09142 0.09841 0.3953 0.0
Mn372 Mn 0.42585 0.5295 0.76461 0.0
Mn373 Mn 0.44472 0.44175 0.75468 0.0
C374 C 0.38456 0.48541 0.73486 0.0
C375 C 0.39758 0.5764 0.79298 0.0
C376 C 0.47966 0.50048 0.71692 0.0
O377 O 0.46616 0.52705 0.80173 0.0
O378 O 0.4739 0.46736 0.79374 0.0
C379 C 0.41499 0.41596 0.81385 0.0
N380 N 0.41563 0.41298 0.78087 0.0
C381 C 0.37104 0.36087 0.7748 0.0
C382 C 0.37011 0.36326 0.80872 0.0
C383 C 0.3921 0.39098 0.8283 0.0
C384 C 0.39447 0.38647 0.76178 0.0
H385 H 0.43176 0.43725 0.82903 0.0
C386 C 0.48052 0.4986 0.81008 0.0
O387 O 0.42305 0.58353 0.7739 0.0
O388 O 0.39022 0.54246 0.79704 0.0
N389 N 0.41739 0.41373 0.71817 0.0
C390 C 0.41948 0.41675 0.68579 0.0
C391 C 0.39823 0.39177 0.66284 0.0
C392 C 0.3752 0.36384 0.67339 0.0
C393 C 0.37353 0.36123 0.70683 0.0
C394 C 0.39551 0.38678 0.72858 0.0
H395 H 0.43705 0.43817 0.67748 0.0
O396 O 0.38377 0.51933 0.72995 0.0
O397 O 0.4098 0.47834 0.75631 0.0
O398 O 0.46329 0.52681 0.72935 0.0
O399 O 0.4753 0.4684 0.72577 0.0
C400 C 0.35037 0.33471 0.71942 0.0
C401 C 0.34906 0.33459 0.75338 0.0
H402 H 0.35236 0.34416 0.81995 0.0
H403 H 0.39139 0.39312 0.85449 0.0
H404 H 0.39955 0.39407 0.63708 0.0
H405 H 0.35869 0.34477 0.65562 0.0
H406 H 0.33298 0.31467 0.70319 0.0
H407 H 0.33066 0.31447 0.76275 0.0
Mn408 Mn 0.777 0.36688 0.52074 0.0
Mn409 Mn 0.75338 0.39417 0.44726 0.0
C410 C 0.7517 0.32501 0.47737 0.0
C411 C 0.81412 0.34188 0.55952 0.0
C412 C 0.7129 0.41256 0.50712 0.0
O413 O 0.81041 0.41461 0.52081 0.0
O414 O 0.79429 0.42781 0.46954 0.0
C415 C 0.82048 0.38298 0.41428 0.0
N416 N 0.78381 0.37571 0.41558 0.0
C417 C 0.77873 0.33672 0.36544 0.0
C418 C 0.8164 0.34394 0.36349 0.0
C419 C 0.83737 0.36705 0.38809 0.0
C420 C 0.76344 0.35321 0.39221 0.0
H421 H 0.83677 0.40067 0.43311 0.0
C422 C 0.81453 0.4336 0.49656 0.0
O423 O 0.78883 0.36211 0.56753 0.0
O424 O 0.82016 0.33852 0.52892 0.0
N425 N 0.71485 0.3621 0.42362 0.0
C426 C 0.67946 0.35568 0.43041 0.0
C427 C 0.65506 0.33212 0.40872 0.0
C428 C 0.66723 0.31563 0.38022 0.0
C429 C 0.7038 0.32256 0.37382 0.0
C430 C 0.72691 0.3461 0.39641 0.0
H431 H 0.66991 0.36841 0.45219 0.0
O432 O 0.74688 0.31864 0.50716 0.0
O433 O 0.76794 0.3566 0.47434 0.0
O434 O 0.73168 0.39449 0.52574 0.0
O435 O 0.71912 0.41474 0.4774 0.0
C436 C 0.71831 0.3068 0.34606 0.0
C437 C 0.75582 0.31355 0.34203 0.0
H438 H 0.82953 0.3317 0.34334 0.0
H439 H 0.8665 0.37261 0.38686 0.0
H440 H 0.62691 0.32679 0.41391 0.0
H441 H 0.64832 0.29749 0.36354 0.0
H442 H 0.70095 0.289 0.32787 0.0
H443 H 0.7668 0.30059 0.32095 0.0
Mn444 Mn 0.65802 0.9976 0.75375 0.0
Mn445 Mn 0.64146 0.08594 0.76101 0.0
C446 C 0.69839 0.0414 0.73565 0.0
C447 C 0.68635 0.94999 0.77712 0.0
C448 C 0.60222 0.03083 0.70796 0.0
O449 O 0.61937 0.99847 0.78661 0.0
O450 O 0.61308 0.05846 0.79127 0.0
C451 C 0.67539 0.1055 0.82829 0.0
N452 N 0.67305 0.11128 0.79618 0.0
C453 C 0.7194 0.16175 0.80609 0.0
C454 C 0.72211 0.15652 0.8393 0.0
C455 C 0.7001 0.12818 0.85041 0.0
C456 C 0.69429 0.1383 0.78519 0.0
H457 H 0.65857 0.08373 0.83694 0.0
C458 C 0.60572 0.02627 0.79939 0.0
O459 O 0.66038 0.94323 0.75361 0.0
O460 O 0.69468 0.98377 0.78751 0.0
N461 N 0.66759 0.11599 0.73363 0.0
C462 C 0.66309 0.11619 0.70064 0.0
C463 C 0.68395 0.14222 0.68551 0.0
C464 C 0.70899 0.16793 0.70443 0.0
C465 C 0.71291 0.16741 0.73834 0.0
C466 C 0.69123 0.14095 0.75209 0.0
H467 H 0.64396 0.09646 0.68596 0.0
O468 O 0.69806 0.00756 0.7248 0.0
O469 O 0.67529 0.04857 0.75687 0.0
O470 O 0.61844 1.0032 0.71594 0.0
O471 O 0.6086 0.06228 0.72371 0.0
C472 C 0.73786 0.19177 0.75902 0.0
C473 C 0.74099 0.18899 0.79287 0.0
H474 H 0.74123 0.17389 0.85642 0.0
H475 H 0.70218 0.12384 0.87598 0.0
H476 H 0.68082 0.14239 0.65931 0.0
H477 H 0.72523 0.18779 0.69264 0.0
H478 H 0.75504 0.21248 0.7491 0.0
H479 H 0.76025 0.20775 0.80855 0.0
Mn480 Mn 0.03744 0.25171 0.87179 0.0
Mn481 Mn 0.95379 0.23538 0.89782 0.0
C482 C 0.99116 0.21752 0.83829 0.0
C483 C 0.0794 0.28629 0.84508 0.0
C484 C 0.0192 0.19718 0.92106 0.0
O485 O 0.03773 0.29091 0.9099 0.0
O486 O 0.98009 0.27902 0.92334 0.0
C487 C 0.92206 0.30099 0.87699 0.0
N488 N 0.92085 0.26413 0.87605 0.0
C489 C 0.86663 0.25663 0.83884 0.0
C490 C 0.86708 0.29449 0.83969 0.0
C491 C 0.89496 0.31675 0.85882 0.0
C492 C 0.8942 0.24245 0.85767 0.0
H493 H 0.94365 0.31827 0.89133 0.0
C494 C 0.01108 0.29814 0.92661 0.0
O495 O 0.08999 0.26427 0.8658 0.0
O496 O 0.04465 0.28947 0.841 0.0
N497 N 0.92524 0.19438 0.87422 0.0
C498 C 0.92997 0.15844 0.87445 0.0
C499 C 0.90483 0.13253 0.85585 0.0
C500 C 0.87509 0.14383 0.8373 0.0
C501 C 0.87072 0.18097 0.83757 0.0
C502 C 0.8964 0.20551 0.85684 0.0
H503 H 0.95284 0.14962 0.88859 0.0
O504 O 0.02507 0.214 0.83368 0.0
O505 O 0.98564 0.24025 0.86264 0.0
O506 O 0.04147 0.21247 0.90329 0.0
O507 O 0.9858 0.20396 0.92121 0.0
C508 C 0.84233 0.19467 0.81896 0.0
C509 C 0.84042 0.23245 0.81942 0.0
H510 H 0.84638 0.30674 0.82548 0.0
H511 H 0.89568 0.346 0.85942 0.0
H512 H 0.90845 0.10392 0.8557 0.0
H513 H 0.85598 0.1238 0.82271 0.0
H514 H 0.82215 0.17647 0.8038 0.0
H515 H 0.81899 0.24267 0.80439 0.0
Mn516 Mn 0.53975 0.75269 0.37653 0.0
Mn517 Mn 0.45638 0.73928 0.4037 0.0
C518 C 0.49211 0.72015 0.34349 0.0
C519 C 0.58212 0.78658 0.34976 0.0
C520 C 0.52073 0.69904 0.42617 0.0
O521 O 0.54189 0.79171 0.41489 0.0
O522 O 0.48391 0.7829 0.42843 0.0
C523 C 0.42549 0.80513 0.38243 0.0
N524 N 0.42367 0.76828 0.38194 0.0
C525 C 0.36857 0.76117 0.34579 0.0
C526 C 0.36963 0.79904 0.34624 0.0
C527 C 0.39828 0.8211 0.36458 0.0
C528 C 0.39633 0.74679 0.36424 0.0
H529 H 0.44766 0.82223 0.39615 0.0
C530 C 0.51567 0.80061 0.43146 0.0
O531 O 0.59234 0.76381 0.36993 0.0
O532 O 0.54754 0.79065 0.34608 0.0
N533 N 0.4269 0.69843 0.38076 0.0
C534 C 0.43122 0.6624 0.38105 0.0
C535 C 0.4055 0.63666 0.36295 0.0
C536 C 0.37557 0.6482 0.34484 0.0
C537 C 0.37162 0.68541 0.34501 0.0
C538 C 0.39796 0.7098 0.36369 0.0
H539 H 0.45421 0.65338 0.39487 0.0
O540 O 0.52567 0.71555 0.33827 0.0
O541 O 0.48776 0.74298 0.36812 0.0
O542 O 0.54297 0.71302 0.40763 0.0
O543 O 0.48793 0.70748 0.42716 0.0
C544 C 0.34295 0.6993 0.32691 0.0
C545 C 0.34152 0.73713 0.32718 0.0
H546 H 0.34883 0.81144 0.33231 0.0
H547 H 0.39948 0.85035 0.36482 0.0
H548 H 0.4088 0.60799 0.36286 0.0
H549 H 0.35597 0.62829 0.33066 0.0
H550 H 0.3221 0.68118 0.31239 0.0
H551 H 0.31978 0.74749 0.31263 0.0
Mn552 Mn 0.03509 0.76219 0.63495 0.0
Mn553 Mn 0.98751 0.68923 0.6603 0.0
C554 C 0.02637 0.70732 0.60255 0.0
C555 C 0.04113 0.81573 0.60891 0.0
C556 C 0.06616 0.71245 0.68415 0.0
O557 O 1.00679 0.78575 0.67024 0.0
O558 O 0.97973 0.73472 0.68686 0.0
C559 C 0.91358 0.70992 0.64132 0.0
N560 N 0.93868 0.68517 0.64012 0.0
C561 C 0.89521 0.64037 0.60929 0.0
C562 C 0.86884 0.66531 0.61036 0.0
C563 C 0.87814 0.70031 0.62628 0.0
C564 C 0.93017 0.65162 0.62444 0.0
H565 H 0.92047 0.73676 0.65373 0.0
C566 C 0.98635 0.76932 0.68885 0.0
O567 O 0.06487 0.80885 0.63178 0.0
O568 O 0.01312 0.7918 0.60147 0.0
N569 N 0.99116 0.64288 0.63717 0.0
C570 C 0.02019 0.62262 0.63696 0.0
C571 C 0.01568 0.58717 0.62128 0.0
C572 C 0.98123 0.57264 0.60659 0.0
C573 C 0.95163 0.59379 0.60752 0.0
C574 C 0.95784 0.62904 0.62326 0.0
H575 H 0.04665 0.63355 0.64841 0.0
O576 O 0.05373 0.73085 0.59935 0.0
O577 O 1.00475 0.71629 0.62463 0.0
O578 O 0.06844 0.74118 0.66937 0.0
O579 O 0.03739 0.6903 0.68184 0.0
C580 C 0.91627 0.58143 0.59318 0.0
C581 C 0.88819 0.60482 0.59375 0.0
H582 H 0.84142 0.65793 0.59893 0.0
H583 H 0.85798 0.71976 0.62712 0.0
H584 H 0.03869 0.57104 0.62063 0.0
H585 H 0.97787 0.54531 0.59448 0.0
H586 H 0.91046 0.55411 0.58129 0.0
H587 H 0.8613 0.59521 0.58212 0.0
Mn588 Mn 0.53647 0.26142 0.13741 0.0
Mn589 Mn 0.49268 0.18617 0.16249 0.0
C590 C 0.52638 0.2078 0.10329 0.0
C591 C 0.54022 0.31612 0.11266 0.0
C592 C 0.57196 0.20936 0.18216 0.0
O593 O 0.51079 0.28291 0.17562 0.0
O594 O 0.48808 0.23009 0.19243 0.0
C595 C 0.41794 0.20841 0.15079 0.0
N596 N 0.44248 0.18353 0.1461 0.0
C597 C 0.39648 0.14097 0.11572 0.0
C598 C 0.37068 0.16605 0.12036 0.0
C599 C 0.38152 0.2 0.13782 0.0
C600 C 0.43247 0.15103 0.1289 0.0
H601 H 0.42604 0.23444 0.16438 0.0
C602 C 0.49406 0.26474 0.19565 0.0
O603 O 0.56527 0.30876 0.13418 0.0
O604 O 0.51202 0.29225 0.10622 0.0
N605 N 0.49379 0.14097 0.13663 0.0
C606 C 0.52216 0.12013 0.13368 0.0
C607 C 0.51599 0.08546 0.11652 0.0
C608 C 0.48059 0.07222 0.10323 0.0
C609 C 0.45168 0.09384 0.10716 0.0
C610 C 0.45952 0.12825 0.12433 0.0
H611 H 0.54934 0.12999 0.14416 0.0
O612 O 0.55297 0.23195 0.09952 0.0
O613 O 0.50631 0.21538 0.12698 0.0
O614 O 0.57223 0.2393 0.16919 0.0
O615 O 0.54403 0.18612 0.17986 0.0
C616 C 0.41541 0.0827 0.09455 0.0
C617 C 0.38791 0.10638 0.09853 0.0
H618 H 0.34251 0.15958 0.11056 0.0
H619 H 0.36179 0.21956 0.14144 0.0
H620 H 0.53845 0.06892 0.11365 0.0
H621 H 0.47595 0.04549 0.08997 0.0
H622 H 0.40839 0.05608 0.0815 0.0
H623 H 0.36024 0.0977 0.0883 0.0
C624 C 0.22727 0.74129 0.91662 0.0
C625 C 0.26025 0.73919 0.90165 0.0
H626 H 0.19821 0.76991 0.95243 0.0
C627 C 0.2903 0.76392 0.91359 0.0
H628 H 0.20355 0.72262 0.90798 0.0
C629 C 0.28694 0.79115 0.93857 0.0
C630 C 0.25355 0.7943 0.95239 0.0
H631 H 0.31584 0.76353 0.90241 0.0
H632 H 0.31039 0.81045 0.9466 0.0
C633 C 0.22407 0.76835 0.94197 0.0
C634 C 0.05305 0.55243 0.3709 0.0
C635 C 0.04021 0.51777 0.37857 0.0
H636 H 0.08362 0.58374 0.33983 0.0
C637 C 0.04855 0.48715 0.35908 0.0
H638 H 0.04694 0.57666 0.3852 0.0
C639 C 0.07009 0.49116 0.33286 0.0
C640 C 0.0832 0.52595 0.32538 0.0
H641 H 0.03894 0.46011 0.36445 0.0
H642 H 0.07649 0.46706 0.31856 0.0
C643 C 0.07406 0.55647 0.34464 0.0
C644 C 0.82755 0.75873 0.89409 0.0
C645 C 0.81292 0.79264 0.89322 0.0
H646 H 0.83304 0.71113 0.91939 0.0
C647 C 0.79575 0.80577 0.92043 0.0
H648 H 0.84035 0.74706 0.87351 0.0
C649 C 0.79144 0.78478 0.94663 0.0
C650 C 0.80473 0.75039 0.94671 0.0
H651 H 0.78476 0.83187 0.9212 0.0
H652 H 0.77599 0.79465 0.96621 0.0
C653 C 0.82373 0.73804 0.92058 0.0
C654 C 0.03476 0.03215 0.39269 0.0
C655 C 0.04766 0.99984 0.40238 0.0
H656 H 1.0051 0.05785 0.35574 0.0
C657 C 0.04156 0.9684 0.38056 0.0
H658 H 0.03857 0.05664 0.40921 0.0
C659 C 0.02272 0.96902 0.34998 0.0
C660 C 1.00892 1.00107 0.34031 0.0
H661 H 0.0514 0.94319 0.3872 0.0
H662 H 0.01832 0.94388 0.33418 0.0
C663 C 0.0155 0.03278 0.36204 0.0
C664 C 0.21452 0.28383 0.60955 0.0
C665 C 0.24594 0.29589 0.63046 0.0
H666 H 0.19199 0.25208 0.56572 0.0
C667 C 0.27974 0.28459 0.6225 0.0
H668 H 0.18816 0.29236 0.61497 0.0
C669 C 0.28199 0.26128 0.59439 0.0
C670 C 0.25053 0.24916 0.5734 0.0
H671 H 0.30436 0.29326 0.63834 0.0
H672 H 0.3084 0.2528 0.58911 0.0
C673 C 0.2168 0.26093 0.58123 0.0
C674 C 0.53163 0.54439 0.6515 0.0
C675 C 0.54239 0.51396 0.63282 0.0
H676 H 0.50365 0.56438 0.69209 0.0
C677 C 0.53419 0.47955 0.64363 0.0
H678 H 0.53808 0.57157 0.64478 0.0
C679 C 0.51505 0.4756 0.67134 0.0
C680 C 0.50299 0.50584 0.68918 0.0
H681 H 0.5414 0.45531 0.63009 0.0
H682 H 0.50877 0.44841 0.67814 0.0
C683 C 0.51203 0.54038 0.67901 0.0
C684 C 0.82357 0.28786 0.63223 0.0
C685 C 0.85265 0.26749 0.62517 0.0
H686 H 0.78959 0.32815 0.61763 0.0
C687 C 0.87154 0.27412 0.59779 0.0
H688 H 0.80886 0.28364 0.65342 0.0
C689 C 0.86006 0.29932 0.57673 0.0
C690 C 0.83023 0.319 0.58337 0.0
H691 H 0.8942 0.25879 0.592 0.0
H692 H 0.87394 0.30279 0.55498 0.0
C693 C 0.81277 0.31361 0.6118 0.0
C694 C 0.53891 0.99186 0.63289 0.0
C695 C 0.52879 0.02355 0.61928 0.0
H696 H 0.56999 0.96901 0.67082 0.0
C697 C 0.54129 0.05728 0.63644 0.0
H698 H 0.52912 0.9652 0.62109 0.0
C699 C 0.56421 0.05933 0.66544 0.0
C700 C 0.57575 0.02773 0.67817 0.0
H701 H 0.53452 0.0823 0.6269 0.0
H702 H 0.57371 0.08602 0.67737 0.0
C703 C 0.5623 0.99393 0.66166 0.0
C704 C 0.91657 0.22521 0.77256 0.0
C705 C 0.9083 0.18902 0.75921 0.0
H706 H 0.94916 0.26219 0.80828 0.0
C707 C 0.92832 0.16198 0.77167 0.0
H708 H 0.90139 0.24659 0.76382 0.0
C709 C 0.95579 0.17104 0.79726 0.0
C710 C 0.96274 0.20701 0.81131 0.0
H711 H 0.92267 0.1339 0.76168 0.0
H712 H 0.9709 0.14991 0.8066 0.0
C713 C 0.94355 0.23409 0.79828 0.0
C714 C 0.55872 0.88798 0.47997 0.0
C715 C 0.52759 0.90391 0.4894 0.0
H716 H 0.57958 0.84277 0.45392 0.0
C717 C 0.49308 0.88483 0.48136 0.0
H718 H 0.58567 0.90216 0.48613 0.0
C719 C 0.48961 0.85073 0.46373 0.0
C720 C 0.52053 0.8351 0.45312 0.0
H721 H 0.46862 0.89618 0.48872 0.0
H722 H 0.4624 0.83711 0.45772 0.0
C723 C 0.55522 0.85401 0.46164 0.0
C724 C 0.15774 0.30117 0.79276 0.0
C725 C 0.14973 0.33307 0.77898 0.0
H726 H 0.14228 0.26202 0.82543 0.0
C727 C 0.11993 0.35095 0.78884 0.0
H728 H 0.18082 0.28709 0.78578 0.0
C729 C 0.0974 0.33619 0.81097 0.0
C730 C 0.10509 0.304 0.82442 0.0
H731 H 0.11335 0.37566 0.7786 0.0
H732 H 0.07376 0.34975 0.81731 0.0
C733 C 0.1359 0.28704 0.81563 0.0
C734 C 0.5825 0.63661 0.46715 0.0
C735 C 0.55996 0.62083 0.48885 0.0
H736 H 0.58808 0.67332 0.43057 0.0
C737 C 0.52408 0.63061 0.48976 0.0
H738 H 0.61024 0.62951 0.46587 0.0
C739 C 0.51116 0.65583 0.46935 0.0
C740 C 0.53387 0.67183 0.44767 0.0
H741 H 0.50597 0.61884 0.50617 0.0
H742 H 0.4834 0.66283 0.47067 0.0
C743 C 0.5697 0.66175 0.44687 0.0
C744 C 0.92872 0.84003 0.72461 0.0
C745 C 0.9164 0.82334 0.75143 0.0
H746 H 0.96145 0.83644 0.68394 0.0
C747 C 0.93053 0.79098 0.7593 0.0
H748 H 0.91837 0.86506 0.7181 0.0
C749 C 0.95488 0.77469 0.73988 0.0
C750 C 0.9661 0.79045 0.71225 0.0
H751 H 0.92191 0.7774 0.77988 0.0
H752 H 0.9641 0.74903 0.74596 0.0
C753 C 0.95358 0.82384 0.70526 0.0
C754 C 0.03678 0.88171 0.54364 0.0
C755 C 0.06277 0.91015 0.55723 0.0
H756 H 1.00896 0.82966 0.54962 0.0
C757 C 0.08018 0.90787 0.58829 0.0
H758 H 0.02276 0.88278 0.51979 0.0
C759 C 0.07262 0.87747 0.60512 0.0
C760 C 0.04698 0.84878 0.59154 0.0
H761 H 0.10025 0.92941 0.59939 0.0
H762 H 0.08709 0.87638 0.62879 0.0
C763 C 0.02874 0.85141 0.56078 0.0
C764 C 0.15613 0.72335 0.73725 0.0
C765 C 0.16082 0.68723 0.74299 0.0
H766 H 0.12284 0.75961 0.71381 0.0
C767 C 0.13447 0.65949 0.72904 0.0
H768 H 0.17611 0.7453 0.74766 0.0
C769 C 0.1035 0.66774 0.71036 0.0
C770 C 0.09875 0.70386 0.70444 0.0
H771 H 0.13739 0.63146 0.73322 0.0
H772 H 0.08342 0.64573 0.70036 0.0
C773 C 0.12565 0.73153 0.71785 0.0
C774 C 0.03537 0.62324 0.54624 0.0
C775 C 0.99904 0.61415 0.53305 0.0
H776 H 0.07248 0.66003 0.57898 0.0
C777 C 0.97225 0.63687 0.5419 0.0
H778 H 0.05659 0.60632 0.53965 0.0
C779 C 0.98142 0.66751 0.56411 0.0
C780 C 0.01731 0.67554 0.57845 0.0
H781 H 0.94422 0.63102 0.53152 0.0
H782 H 0.96035 0.68478 0.57036 0.0
C783 C 0.04447 0.65384 0.56866 0.0
C784 C 0.81037 0.91328 0.24218 0.0
C785 C 0.79583 0.90551 0.20959 0.0
H786 H 0.85052 0.94485 0.27581 0.0
C787 C 0.81048 0.92607 0.18582 0.0
H788 H 0.80026 0.89792 0.26117 0.0
C789 C 0.83992 0.95264 0.19431 0.0
C790 C 0.85545 0.95861 0.22656 0.0
H791 H 0.79946 0.9214 0.1606 0.0
H792 H 0.85122 0.96768 0.1756 0.0
C793 C 0.83961 0.93975 0.25055 0.0
C794 C 0.83127 0.12166 0.34398 0.0
C795 C 0.82628 0.15277 0.32776 0.0
H796 H 0.85849 0.07295 0.3461 0.0
C797 C 0.84842 0.16016 0.30254 0.0
H798 H 0.81439 0.11508 0.36328 0.0
C799 C 0.87422 0.13651 0.29313 0.0
C800 C 0.8779 0.10432 0.30814 0.0
H801 H 0.84508 0.18385 0.28951 0.0
H802 H 0.88996 0.14254 0.27296 0.0
C803 C 0.85648 0.09751 0.33405 0.0
C804 C 0.4024 0.99243 0.02105 0.0
C805 C 0.40945 0.00742 0.99183 0.0
H806 H 0.36613 0.95756 0.04542 0.0
C807 C 0.383 1.00079 0.96526 0.0
H808 H 0.42231 0.99736 0.04203 0.0
C809 C 0.35069 0.97893 0.96738 0.0
C810 C 0.34403 0.96237 0.99602 0.0
H811 H 0.38731 0.01256 0.94268 0.0
H812 H 0.33143 0.97414 0.94594 0.0
C813 C 0.37014 0.96984 0.02305 0.0
C814 C 0.25686 0.41463 0.33339 0.0
C815 C 0.26508 0.38464 0.3131 0.0
H816 H 0.22699 0.46158 0.33792 0.0
C817 C 0.24622 0.37735 0.28194 0.0
H818 H 0.27102 0.42092 0.35746 0.0
C819 C 0.22028 0.40006 0.27102 0.0
C820 C 0.21335 0.43108 0.29073 0.0
H821 H 0.25196 0.35431 0.26585 0.0
H822 H 0.20694 0.39427 0.2466 0.0
C823 C 0.23165 0.43785 0.32217 0.0
C824 C 0.161 0.06054 0.51846 0.0
C825 C 0.15239 0.04591 0.48576 0.0
H826 H 0.19674 0.09784 0.55226 0.0
C827 C 0.17603 0.05636 0.46251 0.0
H828 H 0.14346 0.05336 0.53711 0.0
C829 C 0.20592 0.08215 0.4712 0.0
C830 C 0.21328 0.09809 0.50337 0.0
H831 H 0.17126 0.04503 0.43736 0.0
H832 H 0.22289 0.09035 0.45243 0.0
C833 C 0.19146 0.08608 0.52725 0.0
C834 C 0.78049 0.11035 0.75197 0.0
C835 C 0.78882 0.11711 0.72033 0.0
H836 H 0.74523 0.08113 0.78139 0.0
C837 C 0.76769 0.09733 0.69361 0.0
H838 H 0.79593 0.12477 0.77319 0.0
C839 C 0.73832 0.07241 0.69848 0.0
C840 C 0.72912 0.06744 0.73009 0.0
H841 H 0.7738 0.10109 0.66892 0.0
H842 H 0.72229 0.05768 0.67759 0.0
C843 C 0.75109 0.08566 0.75675 0.0
C844 C 0.40398 0.05497 0.51456 0.0
C845 C 0.43437 0.06771 0.53696 0.0
H846 H 0.35486 0.06698 0.48792 0.0
C847 C 0.43762 0.10462 0.54914 0.0
H848 H 0.39953 0.02668 0.50508 0.0
C849 C 0.41133 0.12773 0.53948 0.0
C850 C 0.38116 0.11483 0.51706 0.0
H851 H 0.46061 0.11584 0.56601 0.0
H852 H 0.41447 0.15575 0.54991 0.0
C853 C 0.37808 0.07818 0.50457 0.0
C854 C 0.65514 0.46054 0.56769 0.0
C855 C 0.62815 0.47366 0.54702 0.0
H856 H 0.70272 0.43122 0.57157 0.0
C857 C 0.62837 0.46451 0.51314 0.0
H858 H 0.65631 0.46701 0.59379 0.0
C859 C 0.6555 0.44467 0.50033 0.0
C860 C 0.68303 0.43247 0.5209 0.0
H861 H 0.60758 0.47291 0.49622 0.0
H862 H 0.65484 0.43888 0.47416 0.0
C863 C 0.68203 0.44013 0.55484 0.0
C864 C 0.72884 0.24165 0.41617 0.0
C865 C 0.76212 0.23946 0.40171 0.0
H866 H 0.69926 0.27029 0.45156 0.0
C867 C 0.79207 0.26414 0.414 0.0
H868 H 0.70519 0.22301 0.40725 0.0
C869 C 0.78838 0.29137 0.43887 0.0
C870 C 0.75475 0.29456 0.45224 0.0
H871 H 0.81784 0.26367 0.4032 0.0
H872 H 0.81179 0.31059 0.44722 0.0
C873 C 0.72531 0.2687 0.44144 0.0
C874 C 0.55111 0.05051 0.87075 0.0
C875 C 0.53778 0.01634 0.87919 0.0
H876 H 0.58242 0.08035 0.83922 0.0
C877 C 0.54596 0.98503 0.86055 0.0
H878 H 0.54515 0.07523 0.88438 0.0
C879 C 0.56782 0.9879 0.83442 0.0
C880 C 0.58145 0.02221 0.82619 0.0
H881 H 0.53596 0.95834 0.86652 0.0
H882 H 0.5741 0.96331 0.82078 0.0
C883 C 0.57247 0.05341 0.84461 0.0
C884 C 0.34172 0.28593 0.40842 0.0
C885 C 0.31316 0.29532 0.38674 0.0
H886 H 0.35674 0.25558 0.44895 0.0
C887 C 0.27774 0.2796 0.38925 0.0
H888 H 0.36952 0.29738 0.40707 0.0
C889 C 0.27059 0.25626 0.41286 0.0
C890 C 0.29855 0.24708 0.43517 0.0
H891 H 0.25515 0.28479 0.37249 0.0
H892 H 0.24247 0.24521 0.41318 0.0
C893 C 0.33448 0.262 0.43245 0.0
C894 C 0.53336 0.467 0.88345 0.0
C895 C 0.54169 0.49915 0.90417 0.0
H896 H 0.50868 0.44172 0.83779 0.0
C897 C 0.5312 0.53184 0.89312 0.0
H898 H 0.54141 0.44145 0.89098 0.0
C899 C 0.51216 0.53221 0.86234 0.0
C900 C 0.50349 0.49987 0.84172 0.0
H901 H 0.53687 0.557 0.90861 0.0
H902 H 0.50378 0.5577 0.85498 0.0
C903 C 0.51478 0.46736 0.8527 0.0
C904 C 0.71267 0.78494 0.11352 0.0
C905 C 0.74447 0.7964 0.13417 0.0
H906 H 0.68913 0.75311 0.06997 0.0
C907 C 0.77776 0.7839 0.1262 0.0
H908 H 0.68669 0.79437 0.11904 0.0
C909 C 0.77914 0.76002 0.09836 0.0
C910 C 0.74734 0.74851 0.07761 0.0
H911 H 0.80263 0.79211 0.14182 0.0
H912 H 0.80521 0.7507 0.09302 0.0
C913 C 0.71412 0.76146 0.08538 0.0
C914 C 1.00523 0.03021 0.1333 0.0
C915 C 0.03879 0.01533 0.12901 0.0
H916 H 0.9621 0.0393 0.16407 0.0
C917 C 0.05374 0.99724 0.15481 0.0
H918 H 0.99135 0.04305 0.11409 0.0
C919 C 0.03569 0.99389 0.18332 0.0
C920 C 1.00275 0.00952 0.18748 0.0
H921 H 0.07951 0.98569 0.15325 0.0
H922 H 0.0476 0.97908 0.20224 0.0
C923 C 0.988 0.02796 0.16217 0.0
C924 C 0.3461 0.76727 0.10323 0.0
C925 C 0.35244 0.78349 0.13542 0.0
H926 H 0.33038 0.77478 0.05336 0.0
C927 C 0.35064 0.82103 0.14157 0.0
H928 H 0.34766 0.7384 0.09784 0.0
C929 C 0.34012 0.8416 0.11635 0.0
C930 C 0.3325 0.82523 0.08434 0.0
H931 H 0.35555 0.83415 0.16618 0.0
H932 H 0.33677 0.8701 0.12204 0.0
C933 C 0.33668 0.78813 0.07778 0.0
C934 C 0.06709 0.50899 0.11837 0.0
C935 C 0.03358 0.52483 0.11642 0.0
H936 H 0.11437 0.49806 0.14827 0.0
C937 C 0.02325 0.54303 0.14511 0.0
H938 H 0.07712 0.49583 0.09694 0.0
C939 C 0.04558 0.54524 0.17451 0.0
C940 C 0.07837 0.52849 0.17633 0.0
H941 H 0.99768 0.55521 0.1451 0.0
H942 H 0.03704 0.55988 0.19597 0.0
C943 C 0.08875 0.51025 0.14793 0.0
C944 C 0.42752 0.66733 0.27671 0.0
C945 C 0.4087 0.69532 0.26453 0.0
H946 H 0.46934 0.65335 0.31141 0.0
C947 C 0.41789 0.73116 0.27844 0.0
H948 H 0.42111 0.63949 0.26625 0.0
C949 C 0.44487 0.73883 0.3043 0.0
C950 C 0.46312 0.71086 0.31685 0.0
H951 H 0.40363 0.75321 0.26981 0.0
H952 H 0.45143 0.76673 0.31461 0.0
C953 C 0.45498 0.67516 0.30242 0.0
C954 C 0.04989 0.38567 0.97732 0.0
C955 C 0.01801 0.39881 0.98829 0.0
H956 H 0.07294 0.34357 0.94898 0.0
C957 C 0.98445 0.37798 0.98016 0.0
H958 H 0.07616 0.40125 0.98346 0.0
C959 C 0.98265 0.34487 0.96106 0.0
C960 C 0.01432 0.33194 0.94917 0.0
H961 H 0.95946 0.3872 0.98854 0.0
H962 H 0.9561 0.32982 0.95505 0.0
C963 C 0.04805 0.35267 0.95767 0.0
C964 C 0.66042 0.80185 0.29755 0.0
C965 C 0.65301 0.83446 0.28477 0.0
H966 H 0.64427 0.76171 0.32908 0.0
C967 C 0.62369 0.85263 0.2953 0.0
H968 H 0.68312 0.78751 0.29001 0.0
C969 C 0.60097 0.83746 0.31706 0.0
C970 C 0.60801 0.80453 0.32946 0.0
H971 H 0.61758 0.87788 0.2858 0.0
H972 H 0.57768 0.85128 0.32393 0.0
C973 C 0.6384 0.78726 0.32006 0.0
C974 C 0.02485 0.13078 0.9862 0.0
C975 C 0.06063 0.12087 0.98464 0.0
H976 H 0.98355 0.16239 0.9673 0.0
C977 C 0.08233 0.13581 0.96191 0.0
H978 H 1.00736 0.1196 1.00337 0.0
C979 C 0.06882 0.16035 0.94132 0.0
C980 C 0.03307 0.17051 0.94277 0.0
H981 H 0.10995 0.12857 0.9601 0.0
H982 H 0.08655 0.17132 0.92422 0.0
C983 C 0.01119 0.15526 0.96543 0.0
C984 C 0.43468 0.32288 0.2443 0.0
C985 C 0.43774 0.30819 0.2745 0.0
H986 H 0.45136 0.32133 0.19559 0.0
C987 C 0.46281 0.28253 0.27946 0.0
H988 H 0.41573 0.34292 0.23987 0.0
C989 C 0.48272 0.27 0.25414 0.0
C990 C 0.47871 0.28358 0.22358 0.0
H991 H 0.46578 0.27088 0.3025 0.0
H992 H 0.50042 0.24874 0.2581 0.0
C993 C 0.45532 0.31088 0.21909 0.0
C994 C 0.5336 0.38182 0.04712 0.0
C995 C 0.56006 0.41023 0.05988 0.0
H996 H 0.50592 0.32999 0.05412 0.0
C997 C 0.57834 0.40812 0.09064 0.0
H998 H 0.51889 0.38273 0.02354 0.0
C999 C 0.57124 0.37794 0.10791 0.0
C1000 C 0.54517 0.34926 0.09514 0.0
H1001 H 0.59877 0.42963 0.10115 0.0
H1002 H 0.58647 0.37696 0.13125 0.0
C1003 C 0.52601 0.35174 0.06473 0.0
C1004 C 0.66086 0.22198 0.23652 0.0
C1005 C 0.66748 0.18588 0.24052 0.0
H1006 H 0.62581 0.2577 0.21449 0.0
C1007 C 0.64336 0.15755 0.22418 0.0
H1008 H 0.67914 0.24438 0.24874 0.0
C1009 C 0.61239 0.16516 0.20513 0.0
C1010 C 0.60547 0.20128 0.20135 0.0
H1011 H 0.64787 0.12951 0.22692 0.0
H1012 H 0.59383 0.14271 0.19341 0.0
C1013 C 0.63039 0.2296 0.21683 0.0
C1014 C 0.4702 0.13865 0.04272 0.0
C1015 C 0.49667 0.11633 0.03225 0.0
H1016 H 0.4592 0.18557 0.07312 0.0
C1017 C 0.53341 0.12547 0.04426 0.0
H1018 H 0.44183 0.13285 0.03333 0.0
C1019 C 0.54325 0.15562 0.06705 0.0
C1020 C 0.51645 0.17673 0.07855 0.0
H1021 H 0.55444 0.10887 0.03656 0.0
H1022 H 0.5716 0.16178 0.07642 0.0
C1023 C 0.48008 0.16875 0.06545 0.0
C1024 C 0.30891 0.42632 0.68304 0.0
C1025 C 0.29341 0.40591 0.70653 0.0
H1026 H 0.35026 0.46776 0.67362 0.0
C1027 C 0.30662 0.41422 0.73942 0.0
H1028 H 0.29888 0.4213 0.65759 0.0
C1029 C 0.33559 0.44084 0.74837 0.0
C1030 C 0.35251 0.45931 0.72469 0.0
H1031 H 0.29585 0.39904 0.75825 0.0
H1032 H 0.34559 0.44618 0.77384 0.0
C1033 C 0.33811 0.45302 0.69212 0.0
C1034 C 0.34422 0.65972 0.8 0.0
C1035 C 0.32287 0.65291 0.82592 0.0
H1036 H 0.38529 0.6417 0.76998 0.0
C1037 C 0.32876 0.62241 0.84276 0.0
H1038 H 0.34025 0.68295 0.7865 0.0
C1039 C 0.35401 0.5983 0.83285 0.0
C1040 C 0.37472 0.60457 0.80637 0.0
H1041 H 0.31257 0.61627 0.86263 0.0
H1042 H 0.35669 0.57422 0.84546 0.0
C1043 C 0.37015 0.63614 0.79063 0.0
C1044 C 0.90596 0.48977 0.52166 0.0
C1045 C 0.91301 0.50482 0.49245 0.0
H1046 H 0.86937 0.45537 0.54619 0.0
C1047 C 0.88633 0.49867 0.46605 0.0
H1048 H 0.92603 0.49438 0.54254 0.0
C1049 C 0.85373 0.47735 0.46837 0.0
C1050 C 0.84698 0.4608 0.49701 0.0
H1051 H 0.8906 0.51054 0.44351 0.0
H1052 H 0.83426 0.47303 0.44706 0.0
C1053 C 0.87341 0.46766 0.52383 0.0
C1054 C 0.74085 0.86776 0.78126 0.0
C1055 C 0.75848 0.8739 0.81301 0.0
H1056 H 0.70321 0.88623 0.74529 0.0
C1057 C 0.74952 0.90335 0.83358 0.0
H1058 H 0.74716 0.84525 0.76485 0.0
C1059 C 0.72501 0.92717 0.82219 0.0
C1060 C 0.70801 0.92161 0.79021 0.0
H1061 H 0.76275 0.90893 0.85807 0.0
H1062 H 0.71995 0.9505 0.83825 0.0
C1063 C 0.7155 0.89107 0.77012 0.0
C1064 C 0.65494 0.56209 0.01965 0.0
C1065 C 0.64621 0.54743 0.987 0.0
H1066 H 0.69102 0.59905 0.05339 0.0
C1067 C 0.66955 0.55815 0.96357 0.0
H1068 H 0.63763 0.55474 0.03841 0.0
C1069 C 0.69954 0.58391 0.97217 0.0
C1070 C 0.70715 0.59961 1.00438 0.0
H1071 H 0.66463 0.54684 0.93842 0.0
H1072 H 0.71657 0.59199 0.95341 0.0
C1073 C 0.68541 0.58758 0.0283 0.0
C1074 C 0.26937 0.60596 0.19417 0.0
C1075 C 0.28946 0.62625 0.22119 0.0
H1076 H 0.22479 0.5656 0.17744 0.0
C1077 C 0.27946 0.62043 0.25257 0.0
H1078 H 0.27667 0.60903 0.16968 0.0
C1079 C 0.25012 0.59552 0.25684 0.0
C1080 C 0.22946 0.57644 0.22987 0.0
H1081 H 0.29377 0.63557 0.27401 0.0
H1082 H 0.24341 0.59131 0.28133 0.0
C1083 C 0.23981 0.58101 0.19853 0.0
C1084 C 0.91935 0.58994 0.06362 0.0
C1085 C 0.93337 0.56769 0.03916 0.0
H1086 H 0.88206 0.62906 0.0756 0.0
C1087 C 0.91956 0.57001 1.00651 0.0
H1088 H 0.9282 0.58896 0.08905 0.0
C1089 C 0.89171 0.59225 0.9989 0.0
C1090 C 0.87773 0.61395 0.02353 0.0
H1091 H 0.93006 0.5546 0.98651 0.0
H1092 H 0.88127 0.59259 0.97373 0.0
C1093 C 0.89242 0.61295 0.05588 0.0
C1094 C 0.1259 0.96369 0.01047 0.0
C1095 C 0.12503 0.97262 0.0443 0.0
H1096 H 0.15317 0.93827 0.97193 0.0
C1097 C 0.1514 0.95916 0.06534 0.0
H1098 H 0.10561 0.97249 0.99331 0.0
C1099 C 0.17853 0.93879 0.05291 0.0
C1100 C 0.18033 0.93148 0.01904 0.0
H1101 H 0.15198 0.96548 0.09143 0.0
H1102 H 0.19882 0.92973 0.06993 0.0
C1103 C 0.15322 0.9438 0.99808 0.0
loop_
_geom_bond_atom_site_label_1
_geom_bond_atom_site_label_2
_geom_bond_distance
_geom_bond_site_symmetry_2
_ccdc_geom_bond_type
H0 C5 0.930 . S
H1 C8 0.903 1_556 S
H2 C10 0.930 1_565 S
H3 C4 1.016 . S
C4 H3 1.016 . S
C4 N11 1.286 1_556 S
C5 H0 0.930 . S
C5 C6 1.397 . S
C5 C7 1.361 . S
C6 C5 1.397 . S
C6 C10 1.390 . S
C7 C5 1.361 . S
C7 C8 1.393 . S
C7 N11 1.413 . S
C8 H1 0.903 1_554 S
C8 C7 1.393 . S
C8 C9 1.399 . S
C9 C8 1.399 . S
C9 C10 1.381 . S
C10 H2 0.930 1_545 S
C10 C6 1.390 . S
C10 C9 1.381 . S
N11 C4 1.286 1_554 S
N11 C7 1.413 . S
H12 C17 0.930 . S
H13 C20 0.930 . S
H14 C22 0.930 . S
H15 C16 1.016 . S
C16 H15 1.016 . S
C16 N23 1.286 . S
C17 H12 0.930 . S
C17 C18 1.397 . S
C17 C19 1.361 . S
C18 C17 1.397 . S
C18 C22 1.390 . S
C19 C17 1.361 . S
C19 C20 1.393 . S
C19 N23 1.413 . S
C20 H13 0.930 . S
C20 C19 1.393 . S
C20 C21 1.399 . S
C21 C20 1.399 . S
C21 C22 1.381 . S
C22 H14 0.930 . S
C22 C18 1.390 . S
C22 C21 1.381 . S
N23 C16 1.286 . S
N23 C19 1.413 . S
H24 C29 0.930 . S
H25 C32 0.930 1_455 S
H26 C34 0.930 . S
H27 C28 1.016 1_454 S
C28 H27 1.016 1_656 S
C28 N35 1.286 . S
C29 H24 0.930 . S
C29 C30 1.397 . S
C29 C31 1.361 . S
C30 C29 1.397 . S
C30 C34 1.390 . S
C31 C29 1.361 . S
C31 C32 1.393 . S
C31 N35 1.413 1_554 S
C32 H25 0.930 1_655 S
C32 C31 1.393 . S
C32 C33 1.399 . S
C33 C32 1.399 . S
C33 C34 1.381 . S
C34 H26 0.930 . S
C34 C30 1.390 . S
C34 C33 1.381 . S
N35 C28 1.286 . S
N35 C31 1.413 1_556 S
H36 C41 0.930 . S
H37 C44 0.930 . S
H38 C46 0.930 . S
H39 C40 1.016 . S
C40 H39 1.016 . S
C40 N47 1.286 . S
C41 H36 0.930 . S
C41 C42 1.397 . S
C41 C43 1.361 . S
C42 C41 1.397 . S
C42 C46 1.390 . S
C43 C41 1.361 . S
C43 C44 1.393 . S
C43 N47 1.413 . S
C44 H37 0.930 . S
C44 C43 1.393 . S
C44 C45 1.399 . S
C45 C44 1.399 . S
C45 C46 1.381 . S
C46 H38 0.930 . S
C46 C42 1.390 . S
C46 C45 1.381 . S
N47 C40 1.286 . S
N47 C43 1.413 . S
H48 C53 0.930 . S
H49 C56 0.930 . S
H50 C58 0.930 . S
H51 C52 1.016 . S
C52 H51 1.016 . S
C52 N59 1.286 . S
C53 H48 0.930 . S
C53 C54 1.387 1_565 S
C53 C55 1.361 . S
C54 C53 1.387 1_545 S
C54 C58 1.397 . S
C55 C53 1.361 . S
C55 C56 1.393 . S
C55 N59 1.413 . S
C56 H49 0.930 . S
C56 C55 1.393 . S
C56 C57 1.399 1_565 S
C57 C56 1.399 1_545 S
C57 C58 1.381 . S
C58 H50 0.930 . S
C58 C54 1.397 . S
C58 C57 1.381 . S
N59 C52 1.286 . S
N59 C55 1.413 . S
H60 C65 0.930 . S
H61 C68 0.930 . S
H62 C70 0.930 . S
H63 C64 1.016 . S
C64 H63 1.016 . S
C64 N71 1.286 . S
C65 H60 0.930 . S
C65 C66 1.397 . S
C65 C67 1.361 . S
C66 C65 1.397 . S
C66 C70 1.390 . S
C67 C65 1.361 . S
C67 C68 1.393 . S
C67 N71 1.413 . S
C68 H61 0.930 . S
C68 C67 1.393 . S
C68 C69 1.399 . S
C69 C68 1.399 . S
C69 C70 1.381 . S
C70 H62 0.930 . S
C70 C66 1.390 . S
C70 C69 1.381 . S
N71 C64 1.286 . S
N71 C67 1.413 . S
H72 C77 0.930 . S
H73 C80 0.930 . S
H74 C82 0.930 . S
H75 C76 1.016 . S
C76 H75 1.016 . S
C76 N83 1.286 . S
C77 H72 0.930 . S
C77 C78 1.397 1_455 S
C77 C79 1.361 . S
C78 C77 1.397 1_655 S
C78 C82 1.390 . S
C79 C77 1.361 . S
C79 C80 1.393 1_455 S
C79 N83 1.413 . S
C80 H73 0.930 . S
C80 C79 1.393 1_655 S
C80 C81 1.399 . S
C81 C80 1.399 . S
C81 C82 1.381 . S
C82 H74 0.930 . S
C82 C78 1.390 . S
C82 C81 1.381 . S
N83 C76 1.286 . S
N83 C79 1.413 . S
H84 C89 0.930 . S
H85 C92 0.930 . S
H86 C94 0.930 . S
H87 C88 1.016 . S
C88 H87 1.016 . S
C88 N95 1.286 . S
C89 H84 0.930 . S
C89 C90 1.397 . S
C89 C91 1.361 . S
C90 C89 1.397 . S
C90 C94 1.390 . S
C91 C89 1.361 . S
C91 C92 1.393 . S
C91 N95 1.413 . S
C92 H85 0.930 . S
C92 C91 1.393 . S
C92 C93 1.399 . S
C93 C92 1.399 . S
C93 C94 1.381 . S
C94 H86 0.930 . S
C94 C90 1.390 . S
C94 C93 1.381 . S
N95 C88 1.286 . S
N95 C91 1.413 . S
H96 C101 0.930 . S
H97 C104 0.930 . S
H98 C106 0.930 . S
H99 C100 1.016 . S
C100 H99 1.016 . S
C100 N107 1.286 . S
C101 H96 0.930 . S
C101 C102 1.397 . S
C101 C103 1.361 . S
C102 C101 1.397 . S
C102 C106 1.390 . S
C103 C101 1.361 . S
C103 C104 1.393 . S
C103 N107 1.413 . S
C104 H97 0.930 . S
C104 C103 1.393 . S
C104 C105 1.399 . S
C105 C104 1.399 . S
C105 C106 1.381 . S
C106 H98 0.930 . S
C106 C102 1.390 . S
C106 C105 1.381 . S
N107 C100 1.286 . S
N107 C103 1.413 . S
H108 C113 0.930 . S
H109 C116 0.930 . S
H110 C118 0.930 . S
H111 C112 1.016 . S
C112 H111 1.016 . S
C112 N119 1.286 . S
C113 H108 0.930 . S
C113 C114 1.397 1_565 S
C113 C115 1.361 . S
C114 C113 1.397 1_545 S
C114 C118 1.390 . S
C115 C113 1.361 . S
C115 C116 1.393 . S
C115 N119 1.413 . S
C116 H109 0.930 . S
C116 C115 1.393 . S
C116 C117 1.399 . S
C117 C116 1.399 . S
C117 C118 1.381 1_565 S
C118 H110 0.930 . S
C118 C114 1.390 . S
C118 C117 1.381 1_545 S
N119 C112 1.286 . S
N119 C115 1.413 . S
H120 C125 0.930 . S
H121 C128 0.930 . S
H122 C130 0.930 . S
H123 C124 1.016 . S
C124 H123 1.016 . S
C124 N131 1.286 . S
C125 H120 0.930 . S
C125 C126 1.397 . S
C125 C127 1.361 . S
C126 C125 1.397 . S
C126 C130 1.390 . S
C127 C125 1.361 . S
C127 C128 1.393 . S
C127 N131 1.413 . S
C128 H121 0.930 . S
C128 C127 1.393 . S
C128 C129 1.399 . S
C129 C128 1.399 . S
C129 C130 1.381 . S
C130 H122 0.930 . S
C130 C126 1.390 . S
C130 C129 1.381 . S
N131 C124 1.286 . S
N131 C127 1.413 . S
H132 C137 0.930 . S
H133 C140 0.930 . S
H134 C142 0.930 . S
H135 C136 1.016 . S
C136 H135 1.016 . S
C136 N143 1.286 . S
C137 H132 0.930 . S
C137 C138 1.397 . S
C137 C139 1.361 . S
C138 C137 1.397 . S
C138 C142 1.390 . S
C139 C137 1.361 . S
C139 C140 1.393 . S
C139 N143 1.413 . S
C140 H133 0.930 . S
C140 C139 1.393 . S
C140 C141 1.399 . S
C141 C140 1.399 . S
C141 C142 1.381 . S
C142 H134 0.930 . S
C142 C138 1.390 . S
C142 C141 1.381 . S
N143 C136 1.286 . S
N143 C139 1.413 . S
H144 C149 0.930 . S
H145 C152 0.930 . S
H146 C154 0.930 . S
H147 C148 1.016 . S
C148 H147 1.016 . S
C148 N155 1.286 . S
C149 H144 0.930 . S
C149 C150 1.397 . S
C149 C151 1.361 . S
C150 C149 1.397 . S
C150 C154 1.390 . S
C151 C149 1.361 . S
C151 C152 1.393 . S
C151 N155 1.413 . S
C152 H145 0.930 . S
C152 C151 1.393 . S
C152 C153 1.399 . S
C153 C152 1.399 . S
C153 C154 1.381 . S
C154 H146 0.930 . S
C154 C150 1.390 . S
C154 C153 1.381 . S
N155 C148 1.286 . S
N155 C151 1.413 . S
H156 C161 0.930 . S
H157 C164 0.930 1_554 S
H158 C166 0.930 . S
H159 C160 1.016 . S
C160 H159 1.016 . S
C160 N167 1.296 . S
C161 H156 0.930 . S
C161 C162 1.397 . S
C161 C163 1.361 . S
C162 C161 1.397 . S
C162 C166 1.390 . S
C163 C161 1.361 . S
C163 C164 1.393 . S
C163 N167 1.400 1_556 S
C164 H157 0.930 1_556 S
C164 C163 1.393 . S
C164 C165 1.399 . S
C165 C164 1.399 . S
C165 C166 1.381 . S
C166 H158 0.930 . S
C166 C162 1.390 . S
C166 C165 1.381 . S
N167 C160 1.296 . S
N167 C163 1.400 1_554 S
H168 C173 0.930 . S
H169 C176 0.930 . S
H170 C178 0.930 . S
H171 C172 1.016 . S
C172 H171 1.016 . S
C172 N179 1.286 . S
C173 H168 0.930 . S
C173 C174 1.397 . S
C173 C175 1.361 . S
C174 C173 1.397 . S
C174 C178 1.390 . S
C175 C173 1.361 . S
C175 C176 1.393 . S
C175 N179 1.413 . S
C176 H169 0.930 . S
C176 C175 1.393 . S
C176 C177 1.399 . S
C177 C176 1.399 . S
C177 C178 1.381 . S
C178 H170 0.930 . S
C178 C174 1.390 . S
C178 C177 1.381 . S
N179 C172 1.286 . S
N179 C175 1.413 . S
H180 C185 0.930 . S
H181 C188 0.930 1_565 S
H182 C190 0.930 . S
H183 C184 1.016 1_565 S
C184 H183 1.016 1_545 S
C184 N191 1.286 . S
C185 H180 0.930 . S
C185 C186 1.397 1_556 S
C185 C187 1.361 . S
C186 C185 1.397 1_554 S
C186 C190 1.390 . S
C187 C185 1.361 . S
C187 C188 1.393 . S
C187 N191 1.413 . S
C188 H181 0.930 1_545 S
C188 C187 1.393 . S
C188 C189 1.399 . S
C189 C188 1.399 . S
C189 C190 1.381 1_556 S
C190 H182 0.930 . S
C190 C186 1.390 . S
C190 C189 1.381 1_554 S
N191 C184 1.286 . S
N191 C187 1.413 . S
Mn192 O197 2.095 . S
Mn192 O207 2.162 . S
Mn192 O208 2.297 . S
Mn192 O216 2.385 . S
Mn192 O217 2.209 1_554 S
Mn192 O218 2.094 . S
Mn193 O198 2.121 . S
Mn193 N200 2.257 . S
Mn193 N209 2.282 . S
Mn193 O217 2.215 . S
Mn193 O219 2.117 . S
C194 O216 1.234 1_556 S
C194 O217 1.283 . S
C195 O207 1.281 . S
C195 O208 1.236 . S
C196 O218 1.240 . S
C196 O219 1.264 1_554 S
O197 Mn192 2.095 . S
O197 C206 1.250 . S
O198 Mn193 2.121 . S
O198 C206 1.258 1_556 S
C199 N200 1.326 . S
C199 C203 1.460 . S
C199 H205 0.929 . S
N200 Mn193 2.257 . S
N200 C199 1.326 . S
N200 C204 1.362 . S
C201 C202 1.258 . S
C201 C204 1.431 . S
C201 C221 1.449 . S
C202 C201 1.258 . S
C202 C203 1.477 . S
C202 H222 0.931 . S
C203 C199 1.460 . S
C203 C202 1.477 . S
C203 H223 0.930 . S
C204 N200 1.362 . S
C204 C201 1.431 . S
C204 C214 1.476 . S
H205 C199 0.929 . S
C206 O197 1.250 . S
C206 O198 1.258 1_554 S
O207 Mn192 2.162 . S
O207 C195 1.281 . S
O208 Mn192 2.297 . S
O208 C195 1.236 . S
N209 Mn193 2.282 . S
N209 C210 1.328 . S
N209 C214 1.318 . S
C210 N209 1.328 . S
C210 C211 1.457 . S
C210 H215 0.929 . S
C211 C210 1.457 . S
C211 C212 1.291 . S
C211 H224 0.931 . S
C212 C211 1.291 . S
C212 C213 1.373 . S
C212 H225 0.929 . S
C213 C212 1.373 . S
C213 C214 1.396 . S
C213 C220 1.403 . S
C214 C204 1.476 . S
C214 N209 1.318 . S
C214 C213 1.396 . S
H215 C210 0.929 . S
O216 Mn192 2.385 . S
O216 C194 1.234 1_554 S
O217 Mn192 2.209 1_556 S
O217 Mn193 2.215 . S
O217 C194 1.283 . S
O218 Mn192 2.094 . S
O218 C196 1.240 . S
O219 Mn193 2.117 . S
O219 C196 1.264 1_556 S
C220 C213 1.403 . S
C220 C221 1.399 . S
C220 H226 0.929 . S
C221 C201 1.449 . S
C221 C220 1.399 . S
C221 H227 0.930 . S
H222 C202 0.931 . S
H223 C203 0.930 . S
H224 C211 0.931 . S
H225 C212 0.929 . S
H226 C220 0.929 . S
H227 C221 0.930 . S
Mn228 O233 2.095 . S
Mn228 O243 2.162 . S
Mn228 O244 2.297 . S
Mn228 O252 2.385 . S
Mn228 O253 2.209 . S
Mn228 O254 2.094 . S
Mn229 O234 2.121 . S
Mn229 N236 2.257 . S
Mn229 N245 2.282 . S
Mn229 O253 2.215 . S
Mn229 O255 2.117 . S
C230 O252 1.234 . S
C230 O253 1.283 . S
C231 O243 1.281 . S
C231 O244 1.236 . S
C232 O254 1.240 . S
C232 O255 1.264 . S
O233 Mn228 2.095 . S
O233 C242 1.250 . S
O234 Mn229 2.121 . S
O234 C242 1.258 . S
C235 N236 1.326 . S
C235 C239 1.460 . S
C235 H241 0.929 . S
N236 Mn229 2.257 . S
N236 C235 1.326 . S
N236 C240 1.362 . S
C237 C238 1.258 . S
C237 C240 1.431 . S
C237 C257 1.449 . S
C238 C237 1.258 . S
C238 C239 1.477 . S
C238 H258 0.931 . S
C239 C235 1.460 . S
C239 C238 1.477 . S
C239 H259 0.930 . S
C240 N236 1.362 . S
C240 C237 1.431 . S
C240 C250 1.476 . S
H241 C235 0.929 . S
C242 O233 1.250 . S
C242 O234 1.258 . S
O243 Mn228 2.162 . S
O243 C231 1.281 . S
O244 Mn228 2.297 . S
O244 C231 1.236 . S
N245 Mn229 2.282 . S
N245 C246 1.328 . S
N245 C250 1.318 . S
C246 N245 1.328 . S
C246 C247 1.457 . S
C246 H251 0.929 . S
C247 C246 1.457 . S
C247 C248 1.291 . S
C247 H260 0.931 . S
C248 C247 1.291 . S
C248 C249 1.373 . S
C248 H261 0.929 . S
C249 C248 1.373 . S
C249 C250 1.396 . S
C249 C256 1.403 . S
C250 C240 1.476 . S
C250 N245 1.318 . S
C250 C249 1.396 . S
H251 C246 0.929 . S
O252 Mn228 2.385 . S
O252 C230 1.234 . S
O253 Mn228 2.209 . S
O253 Mn229 2.215 . S
O253 C230 1.283 . S
O254 Mn228 2.094 . S
O254 C232 1.240 . S
O255 Mn229 2.117 . S
O255 C232 1.264 . S
C256 C249 1.403 . S
C256 C257 1.399 . S
C256 H262 0.929 . S
C257 C237 1.449 . S
C257 C256 1.399 . S
C257 H263 0.930 . S
H258 C238 0.931 . S
H259 C239 0.930 . S
H260 C247 0.931 . S
H261 C248 0.929 . S
H262 C256 0.929 . S
H263 C257 0.930 . S
Mn264 O269 2.095 1_554 S
Mn264 O279 2.162 . S
Mn264 O280 2.297 1_554 S
Mn264 O288 2.385 . S
Mn264 O289 2.209 1_554 S
Mn264 O290 2.094 . S
Mn265 O270 2.121 . S
Mn265 N272 2.257 . S
Mn265 N281 2.282 . S
Mn265 O289 2.215 . S
Mn265 O291 2.117 1_556 S
C266 O288 1.234 . S
C266 O289 1.283 1_554 S
C267 O279 1.281 . S
C267 O280 1.236 1_554 S
C268 O290 1.240 . S
C268 O291 1.264 . S
O269 Mn264 2.095 1_556 S
O269 C278 1.250 . S
O270 Mn265 2.121 . S
O270 C278 1.258 . S
C271 N272 1.326 . S
C271 C275 1.460 . S
C271 H277 0.929 . S
N272 Mn265 2.257 . S
N272 C271 1.326 . S
N272 C276 1.362 . S
C273 C274 1.258 . S
C273 C276 1.431 . S
C273 C293 1.449 . S
C274 C273 1.258 . S
C274 C275 1.477 . S
C274 H294 0.931 . S
C275 C271 1.460 . S
C275 C274 1.477 . S
C275 H295 0.930 . S
C276 N272 1.362 . S
C276 C273 1.431 . S
C276 C286 1.476 . S
H277 C271 0.929 . S
C278 O269 1.250 . S
C278 O270 1.258 . S
O279 Mn264 2.162 . S
O279 C267 1.281 . S
O280 Mn264 2.297 1_556 S
O280 C267 1.236 1_556 S
N281 Mn265 2.282 . S
N281 C282 1.328 1_556 S
N281 C286 1.318 . S
C282 N281 1.328 1_554 S
C282 C283 1.457 . S
C282 H287 0.929 . S
C283 C282 1.457 . S
C283 C284 1.291 . S
C283 H296 0.931 . S
C284 C283 1.291 . S
C284 C285 1.373 1_554 S
C284 H297 0.929 . S
C285 C284 1.373 1_556 S
C285 C286 1.396 . S
C285 C292 1.403 . S
C286 C276 1.476 . S
C286 N281 1.318 . S
C286 C285 1.396 . S
H287 C282 0.929 . S
O288 Mn264 2.385 . S
O288 C266 1.234 . S
O289 Mn264 2.209 1_556 S
O289 Mn265 2.215 . S
O289 C266 1.283 1_556 S
O290 Mn264 2.094 . S
O290 C268 1.240 . S
O291 Mn265 2.117 1_554 S
O291 C268 1.264 . S
C292 C285 1.403 . S
C292 C293 1.399 . S
C292 H298 0.929 . S
C293 C273 1.449 . S
C293 C292 1.399 . S
C293 H299 0.930 . S
H294 C274 0.931 . S
H295 C275 0.930 . S
H296 C283 0.931 . S
H297 C284 0.929 . S
H298 C292 0.929 . S
H299 C293 0.930 . S
Mn300 O305 2.095 . S
Mn300 O315 2.162 . S
Mn300 O316 2.297 . S
Mn300 O324 2.385 . S
Mn300 O325 2.209 1_545 S
Mn300 O326 2.094 . S
Mn301 O306 2.121 . S
Mn301 N308 2.257 . S
Mn301 N317 2.282 . S
Mn301 O325 2.215 . S
Mn301 O327 2.117 . S
C302 O324 1.234 1_565 S
C302 O325 1.283 . S
C303 O315 1.281 . S
C303 O316 1.236 . S
C304 O326 1.240 . S
C304 O327 1.264 1_545 S
O305 Mn300 2.095 . S
O305 C314 1.250 . S
O306 Mn301 2.121 . S
O306 C314 1.258 1_565 S
C307 N308 1.326 . S
C307 C311 1.460 . S
C307 H313 0.929 . S
N308 Mn301 2.257 . S
N308 C307 1.326 . S
N308 C312 1.362 . S
C309 C310 1.258 . S
C309 C312 1.431 . S
C309 C329 1.449 . S
C310 C309 1.258 . S
C310 C311 1.477 . S
C310 H330 0.931 . S
C311 C307 1.460 . S
C311 C310 1.477 . S
C311 H331 0.930 . S
C312 N308 1.362 . S
C312 C309 1.431 . S
C312 C322 1.476 . S
H313 C307 0.929 . S
C314 O305 1.250 . S
C314 O306 1.258 1_545 S
O315 Mn300 2.162 . S
O315 C303 1.281 . S
O316 Mn300 2.297 . S
O316 C303 1.236 . S
N317 Mn301 2.282 . S
N317 C318 1.328 . S
N317 C322 1.318 . S
C318 N317 1.328 . S
C318 C319 1.457 . S
C318 H323 0.929 . S
C319 C318 1.457 . S
C319 C320 1.291 . S
C319 H332 0.931 . S
C320 C319 1.291 . S
C320 C321 1.373 . S
C320 H333 0.929 . S
C321 C320 1.373 . S
C321 C322 1.396 . S
C321 C328 1.403 . S
C322 C312 1.476 . S
C322 N317 1.318 . S
C322 C321 1.396 . S
H323 C318 0.929 . S
O324 Mn300 2.385 . S
O324 C302 1.234 1_545 S
O325 Mn300 2.209 1_565 S
O325 Mn301 2.215 . S
O325 C302 1.283 . S
O326 Mn300 2.094 . S
O326 C304 1.240 . S
O327 Mn301 2.117 . S
O327 C304 1.264 1_565 S
C328 C321 1.403 . S
C328 C329 1.399 . S
C328 H334 0.929 . S
C329 C309 1.449 . S
C329 C328 1.399 . S
C329 H335 0.930 . S
H330 C310 0.931 . S
H331 C311 0.930 . S
H332 C319 0.931 . S
H333 C320 0.929 . S
H334 C328 0.929 . S
H335 C329 0.930 . S
Mn336 O341 2.095 . S
Mn336 O351 2.162 . S
Mn336 O352 2.297 . S
Mn336 O360 2.385 . S
Mn336 O361 2.209 . S
Mn336 O362 2.094 . S
Mn337 O342 2.121 . S
Mn337 N344 2.257 . S
Mn337 N353 2.282 . S
Mn337 O361 2.215 . S
Mn337 O363 2.117 . S
C338 O360 1.234 . S
C338 O361 1.283 . S
C339 O351 1.281 . S
C339 O352 1.236 . S
C340 O362 1.240 . S
C340 O363 1.264 . S
O341 Mn336 2.095 . S
O341 C350 1.250 . S
O342 Mn337 2.121 . S
O342 C350 1.258 . S
C343 N344 1.326 . S
C343 C347 1.460 . S
C343 H349 0.929 . S
N344 Mn337 2.257 . S
N344 C343 1.326 . S
N344 C348 1.362 . S
C345 C346 1.258 . S
C345 C348 1.431 . S
C345 C365 1.449 . S
C346 C345 1.258 . S
C346 C347 1.477 . S
C346 H366 0.931 . S
C347 C343 1.460 . S
C347 C346 1.477 . S
C347 H367 0.930 . S
C348 N344 1.362 . S
C348 C345 1.431 . S
C348 C358 1.476 . S
H349 C343 0.929 . S
C350 O341 1.250 . S
C350 O342 1.258 . S
O351 Mn336 2.162 . S
O351 C339 1.281 . S
O352 Mn336 2.297 . S
O352 C339 1.236 . S
N353 Mn337 2.282 . S
N353 C354 1.328 . S
N353 C358 1.318 . S
C354 N353 1.328 . S
C354 C355 1.457 . S
C354 H359 0.929 . S
C355 C354 1.457 . S
C355 C356 1.291 . S
C355 H368 0.931 . S
C356 C355 1.291 . S
C356 C357 1.373 . S
C356 H369 0.929 . S
C357 C356 1.373 . S
C357 C358 1.396 . S
C357 C364 1.403 . S
C358 C348 1.476 . S
C358 N353 1.318 . S
C358 C357 1.396 . S
H359 C354 0.929 . S
O360 Mn336 2.385 . S
O360 C338 1.234 . S
O361 Mn336 2.209 . S
O361 Mn337 2.215 . S
O361 C338 1.283 . S
O362 Mn336 2.094 . S
O362 C340 1.240 . S
O363 Mn337 2.117 . S
O363 C340 1.264 . S
C364 C357 1.403 . S
C364 C365 1.399 . S
C364 H370 0.929 . S
C365 C345 1.449 . S
C365 C364 1.399 . S
C365 H371 0.930 . S
H366 C346 0.931 . S
H367 C347 0.930 . S
H368 C355 0.931 . S
H369 C356 0.929 . S
H370 C364 0.929 . S
H371 C365 0.930 . S
Mn372 O377 2.095 . S
Mn372 O387 2.162 . S
Mn372 O388 2.297 . S
Mn372 O396 2.385 . S
Mn372 O397 2.209 . S
Mn372 O398 2.094 . S
Mn373 O378 2.121 . S
Mn373 N380 2.257 . S
Mn373 N389 2.282 . S
Mn373 O397 2.215 . S
Mn373 O399 2.117 . S
C374 O396 1.234 . S
C374 O397 1.283 . S
C375 O387 1.281 . S
C375 O388 1.236 . S
C376 O398 1.240 . S
C376 O399 1.264 . S
O377 Mn372 2.095 . S
O377 C386 1.250 . S
O378 Mn373 2.121 . S
O378 C386 1.258 . S
C379 N380 1.326 . S
C379 C383 1.460 . S
C379 H385 0.929 . S
N380 Mn373 2.257 . S
N380 C379 1.326 . S
N380 C384 1.362 . S
C381 C382 1.258 . S
C381 C384 1.431 . S
C381 C401 1.449 . S
C382 C381 1.258 . S
C382 C383 1.477 . S
C382 H402 0.931 . S
C383 C379 1.460 . S
C383 C382 1.477 . S
C383 H403 0.930 . S
C384 N380 1.362 . S
C384 C381 1.431 . S
C384 C394 1.476 . S
H385 C379 0.929 . S
C386 O377 1.250 . S
C386 O378 1.258 . S
O387 Mn372 2.162 . S
O387 C375 1.281 . S
O388 Mn372 2.297 . S
O388 C375 1.236 . S
N389 Mn373 2.282 . S
N389 C390 1.328 . S
N389 C394 1.318 . S
C390 N389 1.328 . S
C390 C391 1.457 . S
C390 H395 0.929 . S
C391 C390 1.457 . S
C391 C392 1.291 . S
C391 H404 0.931 . S
C392 C391 1.291 . S
C392 C393 1.373 . S
C392 H405 0.929 . S
C393 C392 1.373 . S
C393 C394 1.396 . S
C393 C400 1.403 . S
C394 C384 1.476 . S
C394 N389 1.318 . S
C394 C393 1.396 . S
H395 C390 0.929 . S
O396 Mn372 2.385 . S
O396 C374 1.234 . S
O397 Mn372 2.209 . S
O397 Mn373 2.215 . S
O397 C374 1.283 . S
O398 Mn372 2.094 . S
O398 C376 1.240 . S
O399 Mn373 2.117 . S
O399 C376 1.264 . S
C400 C393 1.403 . S
C400 C401 1.399 . S
C400 H406 0.929 . S
C401 C381 1.449 . S
C401 C400 1.399 . S
C401 H407 0.930 . S
H402 C382 0.931 . S
H403 C383 0.930 . S
H404 C391 0.931 . S
H405 C392 0.929 . S
H406 C400 0.929 . S
H407 C401 0.930 . S
Mn408 O413 2.095 . S
Mn408 O423 2.162 . S
Mn408 O424 2.297 . S
Mn408 O432 2.385 . S
Mn408 O433 2.209 . S
Mn408 O434 2.094 . S
Mn409 O414 2.121 . S
Mn409 N416 2.257 . S
Mn409 N425 2.282 . S
Mn409 O433 2.215 . S
Mn409 O435 2.117 . S
C410 O432 1.234 . S
C410 O433 1.283 . S
C411 O423 1.281 . S
C411 O424 1.236 . S
C412 O434 1.240 . S
C412 O435 1.264 . S
O413 Mn408 2.095 . S
O413 C422 1.250 . S
O414 Mn409 2.121 . S
O414 C422 1.258 . S
C415 N416 1.326 . S
C415 C419 1.460 . S
C415 H421 0.929 . S
N416 Mn409 2.257 . S
N416 C415 1.326 . S
N416 C420 1.362 . S
C417 C418 1.258 . S
C417 C420 1.431 . S
C417 C437 1.449 . S
C418 C417 1.258 . S
C418 C419 1.477 . S
C418 H438 0.931 . S
C419 C415 1.460 . S
C419 C418 1.477 . S
C419 H439 0.930 . S
C420 N416 1.362 . S
C420 C417 1.431 . S
C420 C430 1.476 . S
H421 C415 0.929 . S
C422 O413 1.250 . S
C422 O414 1.258 . S
O423 Mn408 2.162 . S
O423 C411 1.281 . S
O424 Mn408 2.297 . S
O424 C411 1.236 . S
N425 Mn409 2.282 . S
N425 C426 1.328 . S
N425 C430 1.318 . S
C426 N425 1.328 . S
C426 C427 1.457 . S
C426 H431 0.929 . S
C427 C426 1.457 . S
C427 C428 1.291 . S
C427 H440 0.931 . S
C428 C427 1.291 . S
C428 C429 1.373 . S
C428 H441 0.929 . S
C429 C428 1.373 . S
C429 C430 1.396 . S
C429 C436 1.403 . S
C430 C420 1.476 . S
C430 N425 1.318 . S
C430 C429 1.396 . S
H431 C426 0.929 . S
O432 Mn408 2.385 . S
O432 C410 1.234 . S
O433 Mn408 2.209 . S
O433 Mn409 2.215 . S
O433 C410 1.283 . S
O434 Mn408 2.094 . S
O434 C412 1.240 . S
O435 Mn409 2.117 . S
O435 C412 1.264 . S
C436 C429 1.403 . S
C436 C437 1.399 . S
C436 H442 0.929 . S
C437 C417 1.449 . S
C437 C436 1.399 . S
C437 H443 0.930 . S
H438 C418 0.931 . S
H439 C419 0.930 . S
H440 C427 0.931 . S
H441 C428 0.929 . S
H442 C436 0.929 . S
H443 C437 0.930 . S
Mn444 O449 2.095 . S
Mn444 O459 2.162 . S
Mn444 O460 2.297 . S
Mn444 O468 2.385 1_565 S
Mn444 O469 2.209 1_565 S
Mn444 O470 2.094 . S
Mn445 O450 2.121 . S
Mn445 N452 2.257 . S
Mn445 N461 2.282 . S
Mn445 O469 2.215 . S
Mn445 O471 2.117 . S
C446 O468 1.234 . S
C446 O469 1.283 . S
C447 O459 1.281 . S
C447 O460 1.236 . S
C448 O470 1.240 . S
C448 O471 1.264 1_565 S
O449 Mn444 2.095 . S
O449 C458 1.250 1_565 S
O450 Mn445 2.121 . S
O450 C458 1.258 . S
C451 N452 1.326 . S
C451 C455 1.460 . S
C451 H457 0.929 . S
N452 Mn445 2.257 . S
N452 C451 1.326 . S
N452 C456 1.362 . S
C453 C454 1.258 . S
C453 C456 1.431 . S
C453 C473 1.449 . S
C454 C453 1.258 . S
C454 C455 1.477 . S
C454 H474 0.931 . S
C455 C451 1.460 . S
C455 C454 1.477 . S
C455 H475 0.930 . S
C456 N452 1.362 . S
C456 C453 1.431 . S
C456 C466 1.476 . S
H457 C451 0.929 . S
C458 O449 1.250 1_545 S
C458 O450 1.258 . S
O459 Mn444 2.162 . S
O459 C447 1.281 . S
O460 Mn444 2.297 . S
O460 C447 1.236 . S
N461 Mn445 2.282 . S
N461 C462 1.328 . S
N461 C466 1.318 . S
C462 N461 1.328 . S
C462 C463 1.457 . S
C462 H467 0.929 . S
C463 C462 1.457 . S
C463 C464 1.291 . S
C463 H476 0.931 . S
C464 C463 1.291 . S
C464 C465 1.373 . S
C464 H477 0.929 . S
C465 C464 1.373 . S
C465 C466 1.396 . S
C465 C472 1.403 . S
C466 C456 1.476 . S
C466 N461 1.318 . S
C466 C465 1.396 . S
H467 C462 0.929 . S
O468 Mn444 2.385 1_545 S
O468 C446 1.234 . S
O469 Mn444 2.209 1_545 S
O469 Mn445 2.215 . S
O469 C446 1.283 . S
O470 Mn444 2.094 . S
O470 C448 1.240 . S
O471 Mn445 2.117 . S
O471 C448 1.264 1_545 S
C472 C465 1.403 . S
C472 C473 1.399 . S
C472 H478 0.929 . S
C473 C453 1.449 . S
C473 C472 1.399 . S
C473 H479 0.930 . S
H474 C454 0.931 . S
H475 C455 0.930 . S
H476 C463 0.931 . S
H477 C464 0.929 . S
H478 C472 0.929 . S
H479 C473 0.930 . S
Mn480 O485 2.095 . S
Mn480 O495 2.162 . S
Mn480 O496 2.297 . S
Mn480 O504 2.385 1_455 S
Mn480 O505 2.209 1_455 S
Mn480 O506 2.094 . S
Mn481 O486 2.121 . S
Mn481 N488 2.257 . S
Mn481 N497 2.282 . S
Mn481 O505 2.215 . S
Mn481 O507 2.117 . S
C482 O504 1.234 . S
C482 O505 1.283 . S
C483 O495 1.281 . S
C483 O496 1.236 . S
C484 O506 1.240 . S
C484 O507 1.264 1_455 S
O485 Mn480 2.095 . S
O485 C494 1.250 1_455 S
O486 Mn481 2.121 . S
O486 C494 1.258 . S
C487 N488 1.326 . S
C487 C491 1.460 . S
C487 H493 0.929 . S
N488 Mn481 2.257 . S
N488 C487 1.326 . S
N488 C492 1.362 . S
C489 C490 1.258 . S
C489 C492 1.431 . S
C489 C509 1.449 . S
C490 C489 1.258 . S
C490 C491 1.477 . S
C490 H510 0.931 . S
C491 C487 1.460 . S
C491 C490 1.477 . S
C491 H511 0.930 . S
C492 N488 1.362 . S
C492 C489 1.431 . S
C492 C502 1.476 . S
H493 C487 0.929 . S
C494 O485 1.250 1_655 S
C494 O486 1.258 . S
O495 Mn480 2.162 . S
O495 C483 1.281 . S
O496 Mn480 2.297 . S
O496 C483 1.236 . S
N497 Mn481 2.282 . S
N497 C498 1.328 . S
N497 C502 1.318 . S
C498 N497 1.328 . S
C498 C499 1.457 . S
C498 H503 0.929 . S
C499 C498 1.457 . S
C499 C500 1.291 . S
C499 H512 0.931 . S
C500 C499 1.291 . S
C500 C501 1.373 . S
C500 H513 0.929 . S
C501 C500 1.373 . S
C501 C502 1.396 . S
C501 C508 1.403 . S
C502 C492 1.476 . S
C502 N497 1.318 . S
C502 C501 1.396 . S
H503 C498 0.929 . S
O504 Mn480 2.385 1_655 S
O504 C482 1.234 . S
O505 Mn480 2.209 1_655 S
O505 Mn481 2.215 . S
O505 C482 1.283 . S
O506 Mn480 2.094 . S
O506 C484 1.240 . S
O507 Mn481 2.117 . S
O507 C484 1.264 1_655 S
C508 C501 1.403 . S
C508 C509 1.399 . S
C508 H514 0.929 . S
C509 C489 1.449 . S
C509 C508 1.399 . S
C509 H515 0.930 . S
H510 C490 0.931 . S
H511 C491 0.930 . S
H512 C499 0.931 . S
H513 C500 0.929 . S
H514 C508 0.929 . S
H515 C509 0.930 . S
Mn516 O521 2.095 . S
Mn516 O531 2.162 . S
Mn516 O532 2.297 . S
Mn516 O540 2.385 . S
Mn516 O541 2.209 . S
Mn516 O542 2.094 . S
Mn517 O522 2.121 . S
Mn517 N524 2.257 . S
Mn517 N533 2.282 . S
Mn517 O541 2.215 . S
Mn517 O543 2.117 . S
C518 O540 1.234 . S
C518 O541 1.283 . S
C519 O531 1.281 . S
C519 O532 1.236 . S
C520 O542 1.240 . S
C520 O543 1.264 . S
O521 Mn516 2.095 . S
O521 C530 1.250 . S
O522 Mn517 2.121 . S
O522 C530 1.258 . S
C523 N524 1.326 . S
C523 C527 1.460 . S
C523 H529 0.929 . S
N524 Mn517 2.257 . S
N524 C523 1.326 . S
N524 C528 1.362 . S
C525 C526 1.258 . S
C525 C528 1.431 . S
C525 C545 1.449 . S
C526 C525 1.258 . S
C526 C527 1.477 . S
C526 H546 0.931 . S
C527 C523 1.460 . S
C527 C526 1.477 . S
C527 H547 0.930 . S
C528 N524 1.362 . S
C528 C525 1.431 . S
C528 C538 1.476 . S
H529 C523 0.929 . S
C530 O521 1.250 . S
C530 O522 1.258 . S
O531 Mn516 2.162 . S
O531 C519 1.281 . S
O532 Mn516 2.297 . S
O532 C519 1.236 . S
N533 Mn517 2.282 . S
N533 C534 1.328 . S
N533 C538 1.318 . S
C534 N533 1.328 . S
C534 C535 1.457 . S
C534 H539 0.929 . S
C535 C534 1.457 . S
C535 C536 1.291 . S
C535 H548 0.931 . S
C536 C535 1.291 . S
C536 C537 1.373 . S
C536 H549 0.929 . S
C537 C536 1.373 . S
C537 C538 1.396 . S
C537 C544 1.403 . S
C538 C528 1.476 . S
C538 N533 1.318 . S
C538 C537 1.396 . S
H539 C534 0.929 . S
O540 Mn516 2.385 . S
O540 C518 1.234 . S
O541 Mn516 2.209 . S
O541 Mn517 2.215 . S
O541 C518 1.283 . S
O542 Mn516 2.094 . S
O542 C520 1.240 . S
O543 Mn517 2.117 . S
O543 C520 1.264 . S
C544 C537 1.403 . S
C544 C545 1.399 . S
C544 H550 0.929 . S
C545 C525 1.449 . S
C545 C544 1.399 . S
C545 H551 0.930 . S
H546 C526 0.931 . S
H547 C527 0.930 . S
H548 C535 0.931 . S
H549 C536 0.929 . S
H550 C544 0.929 . S
H551 C545 0.930 . S
Mn552 O557 2.095 1_455 S
Mn552 O567 2.162 . S
Mn552 O568 2.297 1_455 S
Mn552 O576 2.385 . S
Mn552 O577 2.209 1_455 S
Mn552 O578 2.094 . S
Mn553 O558 2.121 . S
Mn553 N560 2.257 . S
Mn553 N569 2.282 1_655 S
Mn553 O577 2.215 . S
Mn553 O579 2.117 1_655 S
C554 O576 1.234 . S
C554 O577 1.283 1_455 S
C555 O567 1.281 . S
C555 O568 1.236 1_455 S
C556 O578 1.240 . S
C556 O579 1.264 . S
O557 Mn552 2.095 1_655 S
O557 C566 1.250 . S
O558 Mn553 2.121 . S
O558 C566 1.258 . S
C559 N560 1.326 . S
C559 C563 1.460 . S
C559 H565 0.929 . S
N560 Mn553 2.257 . S
N560 C559 1.326 . S
N560 C564 1.362 . S
C561 C562 1.258 . S
C561 C564 1.431 . S
C561 C581 1.449 . S
C562 C561 1.258 . S
C562 C563 1.477 . S
C562 H582 0.931 . S
C563 C559 1.460 . S
C563 C562 1.477 . S
C563 H583 0.930 . S
C564 N560 1.362 . S
C564 C561 1.431 . S
C564 C574 1.476 . S
H565 C559 0.929 . S
C566 O557 1.250 . S
C566 O558 1.258 . S
O567 Mn552 2.162 . S
O567 C555 1.281 . S
O568 Mn552 2.297 1_655 S
O568 C555 1.236 1_655 S
N569 Mn553 2.282 1_455 S
N569 C570 1.328 . S
N569 C574 1.318 1_455 S
C570 N569 1.328 . S
C570 C571 1.457 . S
C570 H575 0.929 . S
C571 C570 1.457 . S
C571 C572 1.291 . S
C571 H584 0.931 . S
C572 C571 1.291 . S
C572 C573 1.373 1_455 S
C572 H585 0.929 . S
C573 C572 1.373 1_655 S
C573 C574 1.396 . S
C573 C580 1.403 . S
C574 C564 1.476 . S
C574 N569 1.318 1_655 S
C574 C573 1.396 . S
H575 C570 0.929 . S
O576 Mn552 2.385 . S
O576 C554 1.234 . S
O577 Mn552 2.209 1_655 S
O577 Mn553 2.215 . S
O577 C554 1.283 1_655 S
O578 Mn552 2.094 . S
O578 C556 1.240 . S
O579 Mn553 2.117 1_455 S
O579 C556 1.264 . S
C580 C573 1.403 . S
C580 C581 1.399 . S
C580 H586 0.929 . S
C581 C561 1.449 . S
C581 C580 1.399 . S
C581 H587 0.930 . S
H582 C562 0.931 . S
H583 C563 0.930 . S
H584 C571 0.931 . S
H585 C572 0.929 . S
H586 C580 0.929 . S
H587 C581 0.930 . S
Mn588 O593 2.095 . S
Mn588 O603 2.162 . S
Mn588 O604 2.297 . S
Mn588 O612 2.385 . S
Mn588 O613 2.209 . S
Mn588 O614 2.094 . S
Mn589 O594 2.121 . S
Mn589 N596 2.257 . S
Mn589 N605 2.282 . S
Mn589 O613 2.215 . S
Mn589 O615 2.117 . S
C590 O612 1.234 . S
C590 O613 1.283 . S
C591 O603 1.281 . S
C591 O604 1.236 . S
C592 O614 1.240 . S
C592 O615 1.264 . S
O593 Mn588 2.095 . S
O593 C602 1.250 . S
O594 Mn589 2.121 . S
O594 C602 1.258 . S
C595 N596 1.326 . S
C595 C599 1.460 . S
C595 H601 0.929 . S
N596 Mn589 2.257 . S
N596 C595 1.326 . S
N596 C600 1.362 . S
C597 C598 1.258 . S
C597 C600 1.431 . S
C597 C617 1.449 . S
C598 C597 1.258 . S
C598 C599 1.477 . S
C598 H618 0.931 . S
C599 C595 1.460 . S
C599 C598 1.477 . S
C599 H619 0.930 . S
C600 N596 1.362 . S
C600 C597 1.431 . S
C600 C610 1.476 . S
H601 C595 0.929 . S
C602 O593 1.250 . S
C602 O594 1.258 . S
O603 Mn588 2.162 . S
O603 C591 1.281 . S
O604 Mn588 2.297 . S
O604 C591 1.236 . S
N605 Mn589 2.282 . S
N605 C606 1.328 . S
N605 C610 1.318 . S
C606 N605 1.328 . S
C606 C607 1.457 . S
C606 H611 0.929 . S
C607 C606 1.457 . S
C607 C608 1.291 . S
C607 H620 0.931 . S
C608 C607 1.291 . S
C608 C609 1.373 . S
C608 H621 0.929 . S
C609 C608 1.373 . S
C609 C610 1.396 . S
C609 C616 1.403 . S
C610 C600 1.476 . S
C610 N605 1.318 . S
C610 C609 1.396 . S
H611 C606 0.929 . S
O612 Mn588 2.385 . S
O612 C590 1.234 . S
O613 Mn588 2.209 . S
O613 Mn589 2.215 . S
O613 C590 1.283 . S
O614 Mn588 2.094 . S
O614 C592 1.240 . S
O615 Mn589 2.117 . S
O615 C592 1.264 . S
C616 C609 1.403 . S
C616 C617 1.399 . S
C616 H622 0.929 . S
C617 C597 1.449 . S
C617 C616 1.399 . S
C617 H623 0.930 . S
H618 C598 0.931 . S
H619 C599 0.930 . S
H620 C607 0.931 . S
H621 C608 0.929 . S
H622 C616 0.929 . S
H623 C617 0.930 . S
C624 C625 1.387 . S
C624 H628 0.950 . S
C624 C633 1.390 . S
C625 C624 1.387 . S
C625 C627 1.387 . S
H626 C633 0.950 . S
C627 C625 1.387 . S
C627 C629 1.390 . S
C627 H631 0.950 . S
H628 C624 0.950 . S
C629 C627 1.390 . S
C629 C630 1.387 . S
C629 H632 0.950 . S
C630 C629 1.387 . S
C630 C633 1.387 . S
H631 C627 0.950 . S
H632 C629 0.950 . S
C633 C624 1.390 . S
C633 H626 0.950 . S
C633 C630 1.387 . S
C634 C635 1.387 . S
C634 H638 0.950 . S
C634 C643 1.390 . S
C635 C634 1.387 . S
C635 C637 1.387 . S
H636 C643 0.950 . S
C637 C635 1.387 . S
C637 C639 1.390 . S
C637 H641 0.950 . S
H638 C634 0.950 . S
C639 C637 1.390 . S
C639 C640 1.387 . S
C639 H642 0.950 . S
C640 C639 1.387 . S
C640 C643 1.387 . S
H641 C637 0.950 . S
H642 C639 0.950 . S
C643 C634 1.390 . S
C643 H636 0.950 . S
C643 C640 1.387 . S
C644 C645 1.387 . S
C644 H648 0.950 . S
C644 C653 1.390 . S
C645 C644 1.387 . S
C645 C647 1.387 . S
H646 C653 0.950 . S
C647 C645 1.387 . S
C647 C649 1.390 . S
C647 H651 0.950 . S
H648 C644 0.950 . S
C649 C647 1.390 . S
C649 C650 1.387 . S
C649 H652 0.950 . S
C650 C649 1.387 . S
C650 C653 1.387 . S
H651 C647 0.950 . S
H652 C649 0.950 . S
C653 C644 1.390 . S
C653 H646 0.950 . S
C653 C650 1.387 . S
C654 C655 1.387 . S
C654 H658 0.950 . S
C654 C663 1.390 . S
C655 C654 1.387 . S
C655 C657 1.387 1_545 S
H656 C663 0.950 . S
C657 C655 1.387 1_565 S
C657 C659 1.384 1_455 S
C657 H661 0.950 . S
H658 C654 0.950 . S
C659 C657 1.384 1_655 S
C659 C660 1.390 1_565 S
C659 H662 0.953 . S
C660 C659 1.390 1_545 S
C660 C663 1.387 1_655 S
H661 C657 0.950 . S
H662 C659 0.953 . S
C663 C654 1.390 . S
C663 H656 0.950 . S
C663 C660 1.387 1_455 S
C664 C665 1.387 . S
C664 H668 0.950 . S
C664 C673 1.390 . S
C665 C664 1.387 . S
C665 C667 1.387 . S
H666 C673 0.950 . S
C667 C665 1.387 . S
C667 C669 1.390 . S
C667 H671 0.950 . S
H668 C664 0.950 . S
C669 C667 1.390 . S
C669 C670 1.387 . S
C669 H672 0.950 . S
C670 C669 1.387 . S
C670 C673 1.387 . S
H671 C667 0.950 . S
H672 C669 0.950 . S
C673 C664 1.390 . S
C673 H666 0.950 . S
C673 C670 1.387 . S
C674 C675 1.387 . S
C674 H678 0.950 . S
C674 C683 1.390 . S
C675 C674 1.387 . S
C675 C677 1.387 . S
H676 C683 0.950 . S
C677 C675 1.387 . S
C677 C679 1.390 . S
C677 H681 0.950 . S
H678 C674 0.950 . S
C679 C677 1.390 . S
C679 C680 1.387 . S
C679 H682 0.950 . S
C680 C679 1.387 . S
C680 C683 1.387 . S
H681 C677 0.950 . S
H682 C679 0.950 . S
C683 C674 1.390 . S
C683 H676 0.950 . S
C683 C680 1.387 . S
C684 C685 1.387 . S
C684 H688 0.950 . S
C684 C693 1.390 . S
C685 C684 1.387 . S
C685 C687 1.387 . S
H686 C693 0.950 . S
C687 C685 1.387 . S
C687 C689 1.390 . S
C687 H691 0.950 . S
H688 C684 0.950 . S
C689 C687 1.390 . S
C689 C690 1.387 . S
C689 H692 0.950 . S
C690 C689 1.387 . S
C690 C693 1.387 . S
H691 C687 0.950 . S
H692 C689 0.950 . S
C693 C684 1.390 . S
C693 H686 0.950 . S
C693 C690 1.387 . S
C694 C695 1.387 . S
C694 H698 0.950 . S
C694 C703 1.390 . S
C695 C694 1.387 . S
C695 C697 1.387 1_565 S
H696 C703 0.950 . S
C697 C695 1.387 1_545 S
C697 C699 1.390 . S
C697 H701 0.950 . S
H698 C694 0.950 . S
C699 C697 1.390 . S
C699 C700 1.387 1_545 S
C699 H702 0.950 . S
C700 C699 1.387 1_565 S
C700 C703 1.387 . S
H701 C697 0.950 . S
H702 C699 0.950 . S
C703 C694 1.390 . S
C703 H696 0.950 . S
C703 C700 1.387 . S
C704 C705 1.387 . S
C704 H708 0.950 . S
C704 C713 1.390 . S
C705 C704 1.387 . S
C705 C707 1.387 . S
H706 C713 0.950 . S
C707 C705 1.387 . S
C707 C709 1.390 . S
C707 H711 0.950 . S
H708 C704 0.950 . S
C709 C707 1.390 . S
C709 C710 1.387 . S
C709 H712 0.950 . S
C710 C709 1.387 . S
C710 C713 1.387 . S
H711 C707 0.950 . S
H712 C709 0.950 . S
C713 C704 1.390 . S
C713 H706 0.950 . S
C713 C710 1.387 . S
C714 C715 1.387 . S
C714 H718 0.950 . S
C714 C723 1.390 . S
C715 C714 1.387 . S
C715 C717 1.387 . S
H716 C723 0.950 . S
C717 C715 1.387 . S
C717 C719 1.390 . S
C717 H721 0.950 . S
H718 C714 0.950 . S
C719 C717 1.390 . S
C719 C720 1.387 . S
C719 H722 0.950 . S
C720 C719 1.387 . S
C720 C723 1.387 . S
H721 C717 0.950 . S
H722 C719 0.950 . S
C723 C714 1.390 . S
C723 H716 0.950 . S
C723 C720 1.387 . S
C724 C725 1.387 . S
C724 H728 0.950 . S
C724 C733 1.390 . S
C725 C724 1.387 . S
C725 C727 1.387 . S
H726 C733 0.950 . S
C727 C725 1.387 . S
C727 C729 1.390 . S
C727 H731 0.950 . S
H728 C724 0.950 . S
C729 C727 1.390 . S
C729 C730 1.387 . S
C729 H732 0.950 . S
C730 C729 1.387 . S
C730 C733 1.387 . S
H731 C727 0.950 . S
H732 C729 0.950 . S
C733 C724 1.390 . S
C733 H726 0.950 . S
C733 C730 1.387 . S
C734 C735 1.387 . S
C734 H738 0.950 . S
C734 C743 1.390 . S
C735 C734 1.387 . S
C735 C737 1.387 . S
H736 C743 0.950 . S
C737 C735 1.387 . S
C737 C739 1.390 . S
C737 H741 0.950 . S
H738 C734 0.950 . S
C739 C737 1.390 . S
C739 C740 1.387 . S
C739 H742 0.950 . S
C740 C739 1.387 . S
C740 C743 1.387 . S
H741 C737 0.950 . S
H742 C739 0.950 . S
C743 C734 1.390 . S
C743 H736 0.950 . S
C743 C740 1.387 . S
C744 C745 1.387 . S
C744 H748 0.950 . S
C744 C753 1.390 . S
C745 C744 1.387 . S
C745 C747 1.387 . S
H746 C753 0.950 . S
C747 C745 1.387 . S
C747 C749 1.390 . S
C747 H751 0.950 . S
H748 C744 0.950 . S
C749 C747 1.390 . S
C749 C750 1.387 . S
C749 H752 0.950 . S
C750 C749 1.387 . S
C750 C753 1.387 . S
H751 C747 0.950 . S
H752 C749 0.950 . S
C753 C744 1.390 . S
C753 H746 0.950 . S
C753 C750 1.387 . S
C754 C755 1.387 . S
C754 H758 0.950 . S
C754 C763 1.390 . S
C755 C754 1.387 . S
C755 C757 1.387 . S
H756 C763 0.950 . S
C757 C755 1.387 . S
C757 C759 1.390 . S
C757 H761 0.950 . S
H758 C754 0.950 . S
C759 C757 1.390 . S
C759 C760 1.387 . S
C759 H762 0.950 . S
C760 C759 1.387 . S
C760 C763 1.387 . S
H761 C757 0.950 . S
H762 C759 0.950 . S
C763 C754 1.390 . S
C763 H756 0.950 . S
C763 C760 1.387 . S
C764 C765 1.387 . S
C764 H768 0.950 . S
C764 C773 1.390 . S
C765 C764 1.387 . S
C765 C767 1.387 . S
H766 C773 0.950 . S
C767 C765 1.387 . S
C767 C769 1.390 . S
C767 H771 0.950 . S
H768 C764 0.950 . S
C769 C767 1.390 . S
C769 C770 1.387 . S
C769 H772 0.950 . S
C770 C769 1.387 . S
C770 C773 1.387 . S
H771 C767 0.950 . S
H772 C769 0.950 . S
C773 C764 1.390 . S
C773 H766 0.950 . S
C773 C770 1.387 . S
C774 C775 1.387 1_455 S
C774 H778 0.950 . S
C774 C783 1.390 . S
C775 C774 1.387 1_655 S
C775 C777 1.387 . S
H776 C783 0.950 . S
C777 C775 1.387 . S
C777 C779 1.390 . S
C777 H781 0.950 . S
H778 C774 0.950 . S
C779 C777 1.390 . S
C779 C780 1.387 1_655 S
C779 H782 0.950 . S
C780 C779 1.387 1_455 S
C780 C783 1.387 . S
H781 C777 0.950 . S
H782 C779 0.950 . S
C783 C774 1.390 . S
C783 H776 0.950 . S
C783 C780 1.387 . S
C784 C785 1.387 . S
C784 H788 0.950 . S
C784 C793 1.390 . S
C785 C784 1.387 . S
C785 C787 1.387 . S
H786 C793 0.950 . S
C787 C785 1.387 . S
C787 C789 1.390 . S
C787 H791 0.950 . S
H788 C784 0.950 . S
C789 C787 1.390 . S
C789 C790 1.387 . S
C789 H792 0.950 . S
C790 C789 1.387 . S
C790 C793 1.387 . S
H791 C787 0.950 . S
H792 C789 0.950 . S
C793 C784 1.390 . S
C793 H786 0.950 . S
C793 C790 1.387 . S
C794 C795 1.387 . S
C794 H798 0.950 . S
C794 C803 1.390 . S
C795 C794 1.387 . S
C795 C797 1.387 . S
H796 C803 0.950 . S
C797 C795 1.387 . S
C797 C799 1.390 . S
C797 H801 0.950 . S
H798 C794 0.950 . S
C799 C797 1.390 . S
C799 C800 1.387 . S
C799 H802 0.950 . S
C800 C799 1.387 . S
C800 C803 1.387 . S
H801 C797 0.950 . S
H802 C799 0.950 . S
C803 C794 1.390 . S
C803 H796 0.950 . S
C803 C800 1.387 . S
C804 C805 1.387 1_554 S
C804 H808 0.950 . S
C804 C813 1.390 . S
C805 C804 1.387 1_556 S
C805 C807 1.387 . S
H806 C813 0.950 . S
C807 C805 1.387 . S
C807 C809 1.390 . S
C807 H811 0.950 1_565 S
H808 C804 0.950 . S
C809 C807 1.390 . S
C809 C810 1.387 1_556 S
C809 H812 0.950 . S
C810 C809 1.387 1_554 S
C810 C813 1.387 . S
H811 C807 0.950 1_545 S
H812 C809 0.950 . S
C813 C804 1.390 . S
C813 H806 0.950 . S
C813 C810 1.387 . S
C814 C815 1.387 . S
C814 H818 0.950 . S
C814 C823 1.390 . S
C815 C814 1.387 . S
C815 C817 1.387 . S
H816 C823 0.950 . S
C817 C815 1.387 . S
C817 C819 1.390 . S
C817 H821 0.950 . S
H818 C814 0.950 . S
C819 C817 1.390 . S
C819 C820 1.387 . S
C819 H822 0.950 . S
C820 C819 1.387 . S
C820 C823 1.387 . S
H821 C817 0.950 . S
H822 C819 0.950 . S
C823 C814 1.390 . S
C823 H816 0.950 . S
C823 C820 1.387 . S
C824 C825 1.387 . S
C824 H828 0.950 . S
C824 C833 1.390 . S
C825 C824 1.387 . S
C825 C827 1.387 . S
H826 C833 0.950 . S
C827 C825 1.387 . S
C827 C829 1.390 . S
C827 H831 0.950 . S
H828 C824 0.950 . S
C829 C827 1.390 . S
C829 C830 1.387 . S
C829 H832 0.950 . S
C830 C829 1.387 . S
C830 C833 1.387 . S
H831 C827 0.950 . S
H832 C829 0.950 . S
C833 C824 1.390 . S
C833 H826 0.950 . S
C833 C830 1.387 . S
C834 C835 1.387 . S
C834 H838 0.950 . S
C834 C843 1.390 . S
C835 C834 1.387 . S
C835 C837 1.387 . S
H836 C843 0.950 . S
C837 C835 1.387 . S
C837 C839 1.390 . S
C837 H841 0.950 . S
H838 C834 0.950 . S
C839 C837 1.390 . S
C839 C840 1.387 . S
C839 H842 0.950 . S
C840 C839 1.387 . S
C840 C843 1.387 . S
H841 C837 0.950 . S
H842 C839 0.950 . S
C843 C834 1.390 . S
C843 H836 0.950 . S
C843 C840 1.387 . S
C844 C845 1.387 . S
C844 H848 0.950 . S
C844 C853 1.390 . S
C845 C844 1.387 . S
C845 C847 1.387 . S
H846 C853 0.950 . S
C847 C845 1.387 . S
C847 C849 1.390 . S
C847 H851 0.950 . S
H848 C844 0.950 . S
C849 C847 1.390 . S
C849 C850 1.387 . S
C849 H852 0.950 . S
C850 C849 1.387 . S
C850 C853 1.387 . S
H851 C847 0.950 . S
H852 C849 0.950 . S
C853 C844 1.390 . S
C853 H846 0.950 . S
C853 C850 1.387 . S
C854 C855 1.387 . S
C854 H858 0.950 . S
C854 C863 1.390 . S
C855 C854 1.387 . S
C855 C857 1.387 . S
H856 C863 0.950 . S
C857 C855 1.387 . S
C857 C859 1.390 . S
C857 H861 0.950 . S
H858 C854 0.950 . S
C859 C857 1.390 . S
C859 C860 1.387 . S
C859 H862 0.950 . S
C860 C859 1.387 . S
C860 C863 1.387 . S
H861 C857 0.950 . S
H862 C859 0.950 . S
C863 C854 1.390 . S
C863 H856 0.950 . S
C863 C860 1.387 . S
C864 C865 1.387 . S
C864 H868 0.950 . S
C864 C873 1.390 . S
C865 C864 1.387 . S
C865 C867 1.387 . S
H866 C873 0.950 . S
C867 C865 1.387 . S
C867 C869 1.390 . S
C867 H871 0.950 . S
H868 C864 0.950 . S
C869 C867 1.390 . S
C869 C870 1.387 . S
C869 H872 0.950 . S
C870 C869 1.387 . S
C870 C873 1.387 . S
H871 C867 0.950 . S
H872 C869 0.950 . S
C873 C864 1.390 . S
C873 H866 0.950 . S
C873 C870 1.387 . S
C874 C875 1.387 . S
C874 H878 0.950 . S
C874 C883 1.390 . S
C875 C874 1.387 . S
C875 C877 1.387 1_545 S
H876 C883 0.950 . S
C877 C875 1.387 1_565 S
C877 C879 1.390 . S
C877 H881 0.950 . S
H878 C874 0.950 . S
C879 C877 1.390 . S
C879 C880 1.387 1_565 S
C879 H882 0.950 . S
C880 C879 1.387 1_545 S
C880 C883 1.387 . S
H881 C877 0.950 . S
H882 C879 0.950 . S
C883 C874 1.390 . S
C883 H876 0.950 . S
C883 C880 1.387 . S
C884 C885 1.387 . S
C884 H888 0.950 . S
C884 C893 1.390 . S
C885 C884 1.387 . S
C885 C887 1.387 . S
H886 C893 0.950 . S
C887 C885 1.387 . S
C887 C889 1.390 . S
C887 H891 0.950 . S
H888 C884 0.950 . S
C889 C887 1.390 . S
C889 C890 1.387 . S
C889 H892 0.950 . S
C890 C889 1.387 . S
C890 C893 1.387 . S
H891 C887 0.950 . S
H892 C889 0.950 . S
C893 C884 1.390 . S
C893 H886 0.950 . S
C893 C890 1.387 . S
C894 C895 1.387 . S
C894 H898 0.950 . S
C894 C903 1.390 . S
C895 C894 1.387 . S
C895 C897 1.387 . S
H896 C903 0.950 . S
C897 C895 1.387 . S
C897 C899 1.390 . S
C897 H901 0.950 . S
H898 C894 0.950 . S
C899 C897 1.390 . S
C899 C900 1.387 . S
C899 H902 0.950 . S
C900 C899 1.387 . S
C900 C903 1.387 . S
H901 C897 0.950 . S
H902 C899 0.950 . S
C903 C894 1.390 . S
C903 H896 0.950 . S
C903 C900 1.387 . S
C904 C905 1.387 . S
C904 H908 0.950 . S
C904 C913 1.390 . S
C905 C904 1.387 . S
C905 C907 1.387 . S
H906 C913 0.950 . S
C907 C905 1.387 . S
C907 C909 1.390 . S
C907 H911 0.950 . S
H908 C904 0.950 . S
C909 C907 1.390 . S
C909 C910 1.387 . S
C909 H912 0.950 . S
C910 C909 1.387 . S
C910 C913 1.387 . S
H911 C907 0.950 . S
H912 C909 0.950 . S
C913 C904 1.390 . S
C913 H906 0.950 . S
C913 C910 1.387 . S
C914 C915 1.387 1_655 S
C914 H918 0.950 . S
C914 C923 1.390 . S
C915 C914 1.387 1_455 S
C915 C917 1.387 . S
H916 C923 0.950 . S
C917 C915 1.387 . S
C917 C919 1.390 . S
C917 H921 0.950 . S
H918 C914 0.950 . S
C919 C917 1.390 . S
C919 C920 1.387 1_455 S
C919 H922 0.950 . S
C920 C919 1.387 1_655 S
C920 C923 1.387 . S
H921 C917 0.950 . S
H922 C919 0.950 . S
C923 C914 1.390 . S
C923 H916 0.950 . S
C923 C920 1.387 . S
C924 C925 1.387 . S
C924 H928 0.950 . S
C924 C933 1.390 . S
C925 C924 1.387 . S
C925 C927 1.387 . S
H926 C933 0.950 . S
C927 C925 1.387 . S
C927 C929 1.390 . S
C927 H931 0.950 . S
H928 C924 0.950 . S
C929 C927 1.390 . S
C929 C930 1.387 . S
C929 H932 0.950 . S
C930 C929 1.387 . S
C930 C933 1.387 . S
H931 C927 0.950 . S
H932 C929 0.950 . S
C933 C924 1.390 . S
C933 H926 0.950 . S
C933 C930 1.387 . S
C934 C935 1.387 . S
C934 H938 0.950 . S
C934 C943 1.390 . S
C935 C934 1.387 . S
C935 C937 1.387 . S
H936 C943 0.950 . S
C937 C935 1.387 . S
C937 C939 1.390 . S
C937 H941 0.949 1_455 S
H938 C934 0.950 . S
C939 C937 1.390 . S
C939 C940 1.387 . S
C939 H942 0.950 . S
C940 C939 1.387 . S
C940 C943 1.387 . S
H941 C937 0.949 1_655 S
H942 C939 0.950 . S
C943 C934 1.390 . S
C943 H936 0.950 . S
C943 C940 1.387 . S
C944 C945 1.387 . S
C944 H948 0.950 . S
C944 C953 1.390 . S
C945 C944 1.387 . S
C945 C947 1.387 . S
H946 C953 0.950 . S
C947 C945 1.387 . S
C947 C949 1.390 . S
C947 H951 0.950 . S
H948 C944 0.950 . S
C949 C947 1.390 . S
C949 C950 1.387 . S
C949 H952 0.950 . S
C950 C949 1.387 . S
C950 C953 1.387 . S
H951 C947 0.950 . S
H952 C949 0.950 . S
C953 C944 1.390 . S
C953 H946 0.950 . S
C953 C950 1.387 . S
C954 C955 1.387 1_455 S
C954 H958 0.950 . S
C954 C963 1.390 . S
C955 C954 1.387 1_655 S
C955 C957 1.387 . S
H956 C963 0.950 . S
C957 C955 1.387 . S
C957 C959 1.390 . S
C957 H961 0.950 . S
H958 C954 0.950 . S
C959 C957 1.390 . S
C959 C960 1.364 1_655 S
C959 H962 0.950 . S
C960 C959 1.364 1_455 S
C960 C963 1.404 . S
H961 C957 0.950 . S
H962 C959 0.950 . S
C963 C954 1.390 . S
C963 H956 0.950 . S
C963 C960 1.404 . S
C964 C965 1.387 . S
C964 H968 0.950 . S
C964 C973 1.390 . S
C965 C964 1.387 . S
C965 C967 1.387 . S
H966 C973 0.950 . S
C967 C965 1.387 . S
C967 C969 1.390 . S
C967 H971 0.950 . S
H968 C964 0.950 . S
C969 C967 1.390 . S
C969 C970 1.387 . S
C969 H972 0.950 . S
C970 C969 1.387 . S
C970 C973 1.387 . S
H971 C967 0.950 . S
H972 C969 0.950 . S
C973 C964 1.390 . S
C973 H966 0.950 . S
C973 C970 1.387 . S
C974 C975 1.387 . S
C974 H978 0.950 1_455 S
C974 C983 1.390 . S
C975 C974 1.387 . S
C975 C977 1.387 . S
H976 C983 0.950 1_655 S
C977 C975 1.387 . S
C977 C979 1.390 . S
C977 H981 0.950 . S
H978 C974 0.950 1_655 S
C979 C977 1.390 . S
C979 C980 1.387 . S
C979 H982 0.950 . S
C980 C979 1.387 . S
C980 C983 1.387 . S
H981 C977 0.950 . S
H982 C979 0.950 . S
C983 C974 1.390 . S
C983 H976 0.950 1_455 S
C983 C980 1.387 . S
C984 C985 1.387 . S
C984 H988 0.950 . S
C984 C993 1.390 . S
C985 C984 1.387 . S
C985 C987 1.387 . S
H986 C993 0.950 . S
C987 C985 1.387 . S
C987 C989 1.390 . S
C987 H991 0.950 . S
H988 C984 0.950 . S
C989 C987 1.390 . S
C989 C990 1.387 . S
C989 H992 0.950 . S
C990 C989 1.387 . S
C990 C993 1.387 . S
H991 C987 0.950 . S
H992 C989 0.950 . S
C993 C984 1.390 . S
C993 H986 0.950 . S
C993 C990 1.387 . S
C994 C995 1.387 . S
C994 H998 0.950 . S
C994 C1003 1.390 . S
C995 C994 1.387 . S
C995 C997 1.387 . S
H996 C1003 0.950 . S
C997 C995 1.387 . S
C997 C999 1.390 . S
C997 H1001 0.950 . S
H998 C994 0.950 . S
C999 C997 1.390 . S
C999 C1000 1.387 . S
C999 H1002 0.950 . S
C1000 C999 1.387 . S
C1000 C1003 1.387 . S
H1001 C997 0.950 . S
H1002 C999 0.950 . S
C1003 C994 1.390 . S
C1003 H996 0.950 . S
C1003 C1000 1.387 . S
C1004 C1005 1.387 . S
C1004 H1008 0.950 . S
C1004 C1013 1.390 . S
C1005 C1004 1.387 . S
C1005 C1007 1.387 . S
H1006 C1013 0.950 . S
C1007 C1005 1.387 . S
C1007 C1009 1.390 . S
C1007 H1011 0.950 . S
H1008 C1004 0.950 . S
C1009 C1007 1.390 . S
C1009 C1010 1.387 . S
C1009 H1012 0.950 . S
C1010 C1009 1.387 . S
C1010 C1013 1.387 . S
H1011 C1007 0.950 . S
H1012 C1009 0.950 . S
C1013 C1004 1.390 . S
C1013 H1006 0.950 . S
C1013 C1010 1.387 . S
C1014 C1015 1.387 . S
C1014 H1018 0.950 . S
C1014 C1023 1.390 . S
C1015 C1014 1.387 . S
C1015 C1017 1.387 . S
H1016 C1023 0.950 . S
C1017 C1015 1.387 . S
C1017 C1019 1.390 . S
C1017 H1021 0.950 . S
H1018 C1014 0.950 . S
C1019 C1017 1.390 . S
C1019 C1020 1.387 . S
C1019 H1022 0.950 . S
C1020 C1019 1.387 . S
C1020 C1023 1.387 . S
H1021 C1017 0.950 . S
H1022 C1019 0.950 . S
C1023 C1014 1.390 . S
C1023 H1016 0.950 . S
C1023 C1020 1.387 . S
C1024 C1025 1.387 . S
C1024 H1028 0.950 . S
C1024 C1033 1.390 . S
C1025 C1024 1.387 . S
C1025 C1027 1.387 . S
H1026 C1033 0.950 . S
C1027 C1025 1.387 . S
C1027 C1029 1.390 . S
C1027 H1031 0.950 . S
H1028 C1024 0.950 . S
C1029 C1027 1.390 . S
C1029 C1030 1.387 . S
C1029 H1032 0.950 . S
C1030 C1029 1.387 . S
C1030 C1033 1.387 . S
H1031 C1027 0.950 . S
H1032 C1029 0.950 . S
C1033 C1024 1.390 . S
C1033 H1026 0.950 . S
C1033 C1030 1.387 . S
C1034 C1035 1.387 . S
C1034 H1038 0.950 . S
C1034 C1043 1.390 . S
C1035 C1034 1.387 . S
C1035 C1037 1.387 . S
H1036 C1043 0.950 . S
C1037 C1035 1.387 . S
C1037 C1039 1.390 . S
C1037 H1041 0.950 . S
H1038 C1034 0.950 . S
C1039 C1037 1.390 . S
C1039 C1040 1.387 . S
C1039 H1042 0.950 . S
C1040 C1039 1.387 . S
C1040 C1043 1.387 . S
H1041 C1037 0.950 . S
H1042 C1039 0.950 . S
C1043 C1034 1.390 . S
C1043 H1036 0.950 . S
C1043 C1040 1.387 . S
C1044 C1045 1.387 . S
C1044 H1048 0.950 . S
C1044 C1053 1.390 . S
C1045 C1044 1.387 . S
C1045 C1047 1.387 . S
H1046 C1053 0.950 . S
C1047 C1045 1.387 . S
C1047 C1049 1.390 . S
C1047 H1051 0.950 . S
H1048 C1044 0.950 . S
C1049 C1047 1.390 . S
C1049 C1050 1.387 . S
C1049 H1052 0.950 . S
C1050 C1049 1.387 . S
C1050 C1053 1.387 . S
H1051 C1047 0.950 . S
H1052 C1049 0.950 . S
C1053 C1044 1.390 . S
C1053 H1046 0.950 . S
C1053 C1050 1.387 . S
C1054 C1055 1.387 . S
C1054 H1058 0.950 . S
C1054 C1063 1.390 . S
C1055 C1054 1.387 . S
C1055 C1057 1.387 . S
H1056 C1063 0.950 . S
C1057 C1055 1.387 . S
C1057 C1059 1.390 . S
C1057 H1061 0.950 . S
H1058 C1054 0.950 . S
C1059 C1057 1.390 . S
C1059 C1060 1.387 . S
C1059 H1062 0.950 . S
C1060 C1059 1.387 . S
C1060 C1063 1.387 . S
H1061 C1057 0.950 . S
H1062 C1059 0.950 . S
C1063 C1054 1.390 . S
C1063 H1056 0.950 . S
C1063 C1060 1.387 . S
C1064 C1065 1.387 1_554 S
C1064 H1068 0.950 . S
C1064 C1073 1.390 . S
C1065 C1064 1.387 1_556 S
C1065 C1067 1.387 . S
H1066 C1073 0.950 . S
C1067 C1065 1.387 . S
C1067 C1069 1.390 . S
C1067 H1071 0.950 . S
H1068 C1064 0.950 . S
C1069 C1067 1.390 . S
C1069 C1070 1.387 . S
C1069 H1072 0.950 . S
C1070 C1069 1.387 . S
C1070 C1073 1.387 1_556 S
H1071 C1067 0.950 . S
H1072 C1069 0.950 . S
C1073 C1064 1.390 . S
C1073 H1066 0.950 . S
C1073 C1070 1.387 1_554 S
C1074 C1075 1.387 . S
C1074 H1078 0.950 . S
C1074 C1083 1.390 . S
C1075 C1074 1.387 . S
C1075 C1077 1.387 . S
H1076 C1083 0.950 . S
C1077 C1075 1.387 . S
C1077 C1079 1.390 . S
C1077 H1081 0.950 . S
H1078 C1074 0.950 . S
C1079 C1077 1.390 . S
C1079 C1080 1.387 . S
C1079 H1082 0.950 . S
C1080 C1079 1.387 . S
C1080 C1083 1.387 . S
H1081 C1077 0.950 . S
H1082 C1079 0.950 . S
C1083 C1074 1.390 . S
C1083 H1076 0.950 . S
C1083 C1080 1.387 . S
C1084 C1085 1.387 . S
C1084 H1088 0.950 . S
C1084 C1093 1.390 . S
C1085 C1084 1.387 . S
C1085 C1087 1.387 . S
H1086 C1093 0.950 . S
C1087 C1085 1.387 . S
C1087 C1089 1.390 1_554 S
C1087 H1091 0.950 1_554 S
H1088 C1084 0.950 . S
C1089 C1087 1.390 1_556 S
C1089 C1090 1.387 1_556 S
C1089 H1092 0.950 . S
C1090 C1089 1.387 1_554 S
C1090 C1093 1.387 . S
H1091 C1087 0.950 1_556 S
H1092 C1089 0.950 . S
C1093 C1084 1.390 . S
C1093 H1086 0.950 . S
C1093 C1090 1.387 . S
C1094 C1095 1.387 . S
C1094 H1098 0.950 1_554 S
C1094 C1103 1.390 . S
C1095 C1094 1.387 . S
C1095 C1097 1.387 . S
H1096 C1103 0.950 1_556 S
C1097 C1095 1.387 . S
C1097 C1099 1.390 . S
C1097 H1101 0.950 . S
H1098 C1094 0.950 1_556 S
C1099 C1097 1.390 . S
C1099 C1100 1.387 . S
C1099 H1102 0.950 . S
C1100 C1099 1.387 . S
C1100 C1103 1.387 . S
H1101 C1097 0.950 . S
H1102 C1099 0.950 . S
C1103 C1094 1.390 . S
C1103 H1096 0.950 1_554 S
C1103 C1100 1.387 . S
C630 C194 1.698 . S
C625 C66 1.692 . S
C640 C242 1.328 . S
C635 C76 1.346 . S
C645 C93 1.721 . S
C650 C278 1.631 . S
C660 C314 1.535 . S
C655 C54 1.583 . S
C670 C340 1.485 . S
C665 C126 1.488 . S
C680 C376 1.783 . S
C675 C150 1.813 . S
C685 C136 1.299 . S
C690 C411 1.329 . S
C700 C448 1.758 . S
C695 C117 1.778 . S
C705 C141 1.315 . S
C710 C482 1.312 . S
C720 C530 1.376 . S
C715 C112 1.408 . S
C725 C124 1.486 . S
C730 C483 1.511 . S
C740 C520 1.443 . S
C735 C148 1.439 . S
C745 C88 1.366 . S
C750 C566 1.282 . S
C755 C52 1.638 . S
C760 C555 1.628 . S
C765 C64 1.314 . S
C770 C556 1.324 . S
C775 C78 1.368 . S
C780 C554 1.364 . S
C785 C45 1.615 . S
C790 C302 1.605 . S
C795 C177 1.753 . S
C800 C303 1.756 . S
C810 C206 1.473 . S
C805 C189 1.552 1_565 S
C820 C231 1.569 . S
C815 C102 1.558 . S
C825 C57 1.754 . S
C830 C338 1.753 . S
C840 C446 1.468 . S
C835 C138 1.497 . S
C850 C339 1.742 . S
C845 C114 1.748 . S
C860 C412 1.771 . S
C855 C153 1.776 . S
C870 C410 1.698 . S
C865 C174 1.692 . S
C875 C184 1.346 . S
C880 C458 1.328 . S
C885 C105 1.721 . S
C890 C350 1.629 . S
C900 C386 1.536 . S
C895 C162 1.579 . S
C905 C42 1.488 . S
C910 C268 1.485 . S
C920 C304 1.783 . S
C915 C6 1.813 . S
C930 C195 1.328 . S
C925 C16 1.298 . S
C940 C232 1.757 . S
C935 C33 1.779 1_455 S
C945 C21 1.313 . S
C950 C518 1.310 . S
C955 C28 1.408 . S
C960 C494 1.378 1_455 S
C965 C40 1.486 . S
C970 C519 1.511 . S
C975 C4 1.439 . S
C980 C484 1.443 . S
C990 C602 1.283 . S
C985 C100 1.366 . S
C1000 C591 1.627 . S
C995 C160 1.638 . S
C1010 C592 1.324 . S
C1005 C172 1.314 . S
C1015 C186 1.368 . S
C1020 C590 1.365 . S
C1025 C129 1.613 . S
C1030 C374 1.603 . S
C1040 C375 1.757 . S
C1035 C69 1.753 . S
C1050 C422 1.471 . S
C1045 C81 1.552 . S
C1060 C447 1.569 . S
C1055 C90 1.559 . S
C1065 C165 1.754 . S
C1070 C266 1.753 1_556 S
C1080 C230 1.467 . S
C1075 C18 1.497 . S
C1085 C30 1.748 . S
C1090 C267 1.743 . S
C1100 C196 1.772 . S
C1095 C9 1.776 1_565 S
