# Generated by pormake.
# Topology ssa, (4,4)-cn, num edge types: 1
# Building blocks:
#     Node 0, Type 0, BuildingBlock: KUFVIS_clean_linker_0, # of connection points: 4
#     Node 1, Type 0, BuildingBlock: KUFVIS_clean_linker_0, # of connection points: 4
#     Node 2, Type 0, BuildingBlock: KUFVIS_clean_linker_0, # of connection points: 4
#     Node 3, Type 0, BuildingBlock: KUFVIS_clean_linker_0, # of connection points: 4
#     Node 4, Type 0, BuildingBlock: KUFVIS_clean_linker_0, # of connection points: 4
#     Node 5, Type 0, BuildingBlock: KUFVIS_clean_linker_0, # of connection points: 4
#     Node 6, Type 1, BuildingBlock: MUDLON_clean_sbu_0, # of connection points: 4
#     Node 7, Type 1, BuildingBlock: MUDLON_clean_sbu_0, # of connection points: 4
#     Node 8, Type 1, BuildingBlock: MUDLON_clean_sbu_0, # of connection points: 4
#     Node 9, Type 1, BuildingBlock: MUDLON_clean_sbu_0, # of connection points: 4
#     Node 10, Type 1, BuildingBlock: MUDLON_clean_sbu_0, # of connection points: 4
#     Node 11, Type 1, BuildingBlock: MUDLON_clean_sbu_0, # of connection points: 4
#     Edge 12, Type (0, 1), BuildingBlock: OJICUG_clean_linker_0, # of connection points: 2
#     Edge 13, Type (0, 1), BuildingBlock: OJICUG_clean_linker_0, # of connection points: 2
#     Edge 14, Type (0, 1), BuildingBlock: OJICUG_clean_linker_0, # of connection points: 2
#     Edge 15, Type (0, 1), BuildingBlock: OJICUG_clean_linker_0, # of connection points: 2
#     Edge 16, Type (0, 1), BuildingBlock: OJICUG_clean_linker_0, # of connection points: 2
#     Edge 17, Type (0, 1), BuildingBlock: OJICUG_clean_linker_0, # of connection points: 2
#     Edge 18, Type (0, 1), BuildingBlock: OJICUG_clean_linker_0, # of connection points: 2
#     Edge 19, Type (0, 1), BuildingBlock: OJICUG_clean_linker_0, # of connection points: 2
#     Edge 20, Type (0, 1), BuildingBlock: OJICUG_clean_linker_0, # of connection points: 2
#     Edge 21, Type (0, 1), BuildingBlock: OJICUG_clean_linker_0, # of connection points: 2
#     Edge 22, Type (0, 1), BuildingBlock: OJICUG_clean_linker_0, # of connection points: 2
#     Edge 23, Type (0, 1), BuildingBlock: OJICUG_clean_linker_0, # of connection points: 2
#     Edge 24, Type (0, 1), BuildingBlock: OJICUG_clean_linker_0, # of connection points: 2
#     Edge 25, Type (0, 1), BuildingBlock: OJICUG_clean_linker_0, # of connection points: 2
#     Edge 26, Type (0, 1), BuildingBlock: OJICUG_clean_linker_0, # of connection points: 2
#     Edge 27, Type (0, 1), BuildingBlock: OJICUG_clean_linker_0, # of connection points: 2
#     Edge 28, Type (0, 1), BuildingBlock: OJICUG_clean_linker_0, # of connection points: 2
#     Edge 29, Type (0, 1), BuildingBlock: OJICUG_clean_linker_0, # of connection points: 2
#     Edge 30, Type (0, 1), BuildingBlock: OJICUG_clean_linker_0, # of connection points: 2
#     Edge 31, Type (0, 1), BuildingBlock: OJICUG_clean_linker_0, # of connection points: 2
#     Edge 32, Type (0, 1), BuildingBlock: OJICUG_clean_linker_0, # of connection points: 2
#     Edge 33, Type (0, 1), BuildingBlock: OJICUG_clean_linker_0, # of connection points: 2
#     Edge 34, Type (0, 1), BuildingBlock: OJICUG_clean_linker_0, # of connection points: 2
#     Edge 35, Type (0, 1), BuildingBlock: OJICUG_clean_linker_0, # of connection points: 2
# Relax obj value: 0.001
# Max RMSD: 0.051
# Mean RMSD: 0.028
data_MOF--net-ssa--node1-MUDLON_clean_sbu_0--node2-KUFVIS_clean_linker_0--edge1-OJICUG_clean_linker_0
_symmetry_space_group_name_H-M    P1
_symmetry_Int_Tables_number       1
_symmetry_cell_setting            triclinic
loop_
_symmetry_equiv_pos_as_xyz
'x, y, z'
_cell_length_a     33.60942
_cell_length_b     33.738296
_cell_length_c     27.856731
_cell_angle_alpha  91.098932
_cell_angle_beta   89.434838
_cell_angle_gamma 120.15293
loop_
_atom_site_label
_atom_site_type_symbol
_atom_site_fract_x
_atom_site_fract_y
_atom_site_fract_z
_atom_type_partial_charge
H0 H 0.87207 0.43035 1.00213 0.0
H1 H 0.95457 0.55842 1.0777 0.0
H2 H 0.96286 0.43785 0.1117 0.0
H3 H 0.03237 0.4893 0.13054 0.0
H4 H 0.08587 0.58828 0.2449 0.0
H5 H 0.97909 0.58092 0.15493 0.0
C6 C 0.89726 0.45053 1.0295 0.0
C7 C 0.91751 0.43009 1.0549 0.0
C8 C 0.91066 0.49682 1.03684 0.0
C9 C 0.94321 0.52238 1.07304 0.0
C10 C 0.96281 0.50207 0.1012 0.0
C11 C 0.94924 0.45534 0.09133 0.0
C12 C -0.0013 0.52934 0.13921 0.0
C13 C 0.03051 0.51563 0.15147 0.0
C14 C 0.06062 0.53535 0.19043 0.0
C15 C 0.06214 0.57247 0.21516 0.0
C16 C 0.03406 0.59011 0.20165 0.0
C17 C 0.00181 0.56815 0.16396 0.0
H18 H 0.58753 0.10049 0.74269 0.0
H19 H 0.48378 0.03466 0.63413 0.0
H20 H 0.59234 0.0024 0.64706 0.0
H21 H 0.58376 -0.00635 0.5688 0.0
H22 H 0.47353 0.91113 0.47161 0.0
H23 H 0.44582 0.96715 0.59818 0.0
C24 C 0.57197 0.07547 0.71377 0.0
C25 C 0.5939 0.05164 0.69781 0.0
C26 C 0.5318 0.06912 0.69155 0.0
C27 C 0.51413 0.03889 0.65179 0.0
C28 C 0.53557 0.01475 0.63426 0.0
C29 C 0.57543 0.02111 0.65838 0.0
C30 C 0.51752 0.98497 0.58967 0.0
C31 C 0.54763 0.97783 0.55998 0.0
C32 C 0.53197 0.95049 0.51817 0.0
C33 C 0.48604 0.9325 0.50374 0.0
C34 C 0.45518 0.93929 0.53211 0.0
C35 C 0.47067 0.9643 0.5756 0.0
H36 H 0.46512 0.57276 0.18956 0.0
H37 H 0.45185 0.47943 1.07631 0.0
H38 H 0.58184 0.60456 0.1009 0.0
H39 H 0.5963 0.59701 1.02515 0.0
H40 H 0.60762 0.49123 0.95057 0.0
H41 H 0.49499 0.45476 1.04744 0.0
C42 C 0.48012 0.56389 0.15955 0.0
C43 C 0.52605 0.5939 0.14658 0.0
C44 C 0.45361 0.52218 0.13477 0.0
C45 C 0.47345 0.51106 0.09578 0.0
C46 C 0.5201 0.54056 0.08221 0.0
C47 C 0.54574 0.58194 0.10846 0.0
C48 C 0.54308 0.52741 1.04312 0.0
C49 C 0.58305 0.56078 1.01885 0.0
C50 C 0.60669 0.54757 0.98623 0.0
C51 C 0.58917 0.50099 0.97579 0.0
C52 C 0.54766 0.46733 0.99598 0.0
C53 C 0.52585 0.48086 1.03061 0.0
H54 H 0.89102 0.44475 0.69204 0.0
H55 H 0.96218 0.52049 0.56825 0.0
H56 H 0.96444 0.39695 0.60398 0.0
H57 H 0.98443 0.39783 0.52595 0.0
H58 H 0.094 0.49725 0.43897 0.0
H59 H 0.03239 0.54261 0.54501 0.0
C60 C 0.91205 0.44852 0.66074 0.0
C61 C 0.92411 0.41522 0.6499 0.0
C62 C 0.92632 0.48664 0.63199 0.0
C63 C 0.95338 0.49175 0.59124 0.0
C64 C 0.96895 0.46022 0.58074 0.0
C65 C 0.95354 0.42175 0.61068 0.0
C66 C 0.00275 0.46895 0.54037 0.0
C67 C 0.00659 0.43328 0.51638 0.0
C68 C 0.03917 0.44357 0.47912 0.0
C69 C 0.06791 0.48927 0.46626 0.0
C70 C 0.06538 0.52491 0.48962 0.0
C71 C 0.03317 0.51453 0.52663 0.0
H72 H 0.42278 0.87324 0.1958 0.0
H73 H 0.40499 0.97191 0.11929 0.0
H74 H 0.5079 0.93731 1.07365 0.0
H75 H 0.54104 0.01107 1.04728 0.0
H76 H 0.50014 0.07733 0.9447 0.0
H77 H 0.40005 0.98113 1.04108 0.0
C78 C 0.43245 0.89707 0.16642 0.0
C79 C 0.46818 0.90316 0.13619 0.0
C80 C 0.40998 0.92191 0.16063 0.0
C81 C 0.422 0.95204 0.12227 0.0
C82 C 0.45683 0.95781 0.08945 0.0
C83 C 0.48047 0.93334 0.09734 0.0
C84 C 0.46875 0.99028 1.0484 0.0
C85 C 0.51422 0.01491 1.03067 0.0
C86 C 0.52596 0.04651 0.99327 0.0
C87 C 0.49164 0.05313 0.97343 0.0
C88 C 0.44676 0.03065 0.99149 0.0
C89 C 0.43523 -0.00115 1.02833 0.0
H90 H 0.50973 0.43425 0.72585 0.0
H91 H 0.54728 0.54501 0.62892 0.0
H92 H 0.40776 0.43031 0.63261 0.0
H93 H 0.41317 0.44369 0.55462 0.0
H94 H 0.42981 0.55729 0.47395 0.0
H95 H 0.5141 0.58263 0.59803 0.0
C96 C 0.50011 0.45105 0.69934 0.0
C97 C 0.45516 0.42822 0.68167 0.0
C98 C 0.53345 0.49331 0.68094 0.0
C99 C 0.52114 0.51303 0.64397 0.0
C100 C 0.4759 0.49095 0.62548 0.0
C101 C 0.44294 0.44835 0.64532 0.0
C102 C 0.46377 0.51052 0.58366 0.0
C103 C 0.42957 0.48047 0.55092 0.0
C104 C 0.41753 0.49733 0.51157 0.0
C105 C 0.43937 0.54448 0.50458 0.0
C106 C 0.47473 0.57537 0.53467 0.0
C107 C 0.48699 0.55843 0.5745 0.0
Mg108 Mg 0.215 0.42045 0.3016 0.0
C109 C 0.1662 0.45346 0.25269 0.0
O110 O 0.15123 0.41051 0.24002 0.0
C111 C 0.27071 0.41055 0.37855 0.0
O112 O 0.23885 0.36716 0.37428 0.0
C113 C 0.14521 0.38351 0.3819 0.0
O114 O 0.18401 0.40572 0.40575 0.0
O115 O 0.14704 0.37745 0.33661 0.0
O116 O 0.20031 0.47309 0.28118 0.0
O117 O 0.24876 0.41612 0.23472 0.0
C118 C 0.28314 0.40976 0.23563 0.0
O119 O 0.29 0.39221 0.27418 0.0
O120 O 0.26827 0.44069 0.35408 0.0
Mg121 Mg 0.79386 0.20852 0.86712 0.0
C122 C 0.7707 0.138 0.78751 0.0
O123 O 0.79891 0.17336 0.76172 0.0
C124 C 0.87329 0.27472 0.93566 0.0
O125 O 0.89828 0.28725 0.89642 0.0
C126 C 0.71191 0.15133 0.91974 0.0
O127 O 0.74073 0.13654 0.92749 0.0
O128 O 0.72519 0.1866 0.89391 0.0
O129 O 0.77435 0.14186 0.83314 0.0
O130 O 0.81799 0.25986 0.81121 0.0
C131 C 0.85592 0.27144 0.78984 0.0
O132 O 0.87993 0.25227 0.80219 0.0
O133 O 0.83283 0.23993 0.93385 0.0
Mg134 Mg 0.57901 0.79765 0.3382 0.0
C135 C 0.52536 0.80003 0.24572 0.0
O136 O 0.51715 0.75869 0.23401 0.0
C137 C 0.56311 0.73338 0.41689 0.0
O138 O 0.60544 0.74729 0.40262 0.0
C139 C 0.6222 0.86685 0.41923 0.0
O140 O 0.61875 0.83234 0.44355 0.0
O141 O 0.62061 0.86385 0.37366 0.0
O142 O 0.54459 0.81824 0.28571 0.0
O143 O 0.60834 0.76238 0.29867 0.0
C144 C 0.61331 0.76455 0.25334 0.0
O145 O 0.61667 0.80016 0.23124 0.0
O146 O 0.54028 0.74879 0.39549 0.0
Mg147 Mg 0.79644 0.58745 0.81625 0.0
C148 C 0.7197 0.56431 0.74827 0.0
O149 O 0.75426 0.59823 0.72584 0.0
C150 C 0.8326 0.57307 0.90874 0.0
O151 O 0.84162 0.61535 0.91592 0.0
C152 C 0.75695 0.64479 0.85539 0.0
O153 O 0.74231 0.64618 0.81228 0.0
O154 O 0.79262 0.64082 0.85883 0.0
O155 O 0.72735 0.54982 0.78699 0.0
O156 O 0.84626 0.59643 0.75875 0.0
C157 C 0.83136 0.56459 0.72667 0.0
O158 O 0.78775 0.53267 0.72768 0.0
O159 O 0.81171 0.55149 0.87055 0.0
Mg160 Mg 0.20772 0.79099 0.36964 0.0
C161 C 0.13149 0.76228 0.29563 0.0
O162 O 0.16658 0.7883 0.26803 0.0
C163 C 0.27645 0.83044 0.44881 0.0
O164 O 0.27373 0.79101 0.43866 0.0
C165 C 0.17513 0.71305 0.43246 0.0
O166 O 0.16968 0.74305 0.45818 0.0
O167 O 0.19495 0.7248 0.39189 0.0
O168 O 0.13762 0.76564 0.3411 0.0
O169 O 0.25562 0.81887 0.31151 0.0
C170 C 0.26252 0.85628 0.29387 0.0
O171 O 0.23853 0.87498 0.30913 0.0
O172 O 0.24907 0.8404 0.42759 0.0
Mg173 Mg 0.41349 0.21069 0.84041 0.0
C174 C 0.43764 0.16149 0.76484 0.0
O175 O 0.39347 0.14245 0.75565 0.0
C176 C 0.44467 0.28293 0.91917 0.0
O177 O 0.40032 0.26188 0.92817 0.0
C178 C 0.38261 0.14451 0.92356 0.0
O179 O 0.40429 0.18282 0.94868 0.0
O180 O 0.37454 0.1465 0.87936 0.0
O181 O 0.45594 0.19332 0.79636 0.0
O182 O 0.38147 0.24214 0.79936 0.0
C183 C 0.39084 0.25125 0.7551 0.0
O184 O 0.41113 0.23228 0.73146 0.0
O185 O 0.45989 0.26744 0.8863 0.0
C186 C 0.13413 0.54325 0.22353 0.0
C187 C 0.08886 0.51545 0.20638 0.0
H188 H 0.19443 0.54546 0.25204 0.0
C189 C 0.06976 0.46766 0.20538 0.0
H190 H 0.15001 0.58023 0.22446 0.0
C191 C 0.09534 0.44811 0.22013 0.0
C192 C 0.14049 0.47569 0.23708 0.0
H193 H 0.03463 0.44508 0.19378 0.0
H194 H 0.07926 0.41109 0.21889 0.0
C195 C 0.15966 0.52347 0.23909 0.0
C196 C 0.64205 0.06371 0.77108 0.0
C197 C 0.63818 0.06231 0.72074 0.0
H198 H 0.68701 0.08723 0.83198 0.0
C199 C 0.67829 0.07824 0.69296 0.0
H200 H 0.61165 0.05144 0.7934 0.0
C201 C 0.72164 0.09926 0.71505 0.0
C202 C 0.72577 0.1043 0.76538 0.0
H203 H 0.6764 0.07778 0.65414 0.0
H204 H 0.75205 0.11432 0.69255 0.0
C205 C 0.68533 0.08408 0.79319 0.0
C206 C 0.57727 0.67942 0.14947 0.0
C207 C 0.55382 0.63758 0.17363 0.0
H208 H 0.61508 0.75276 0.15579 0.0
C209 C 0.55555 0.63783 0.22393 0.0
H210 H 0.57657 0.68008 0.11062 0.0
C211 C 0.57832 0.67921 0.24975 0.0
C212 C 0.59915 0.72138 0.22583 0.0
H213 H 0.53837 0.60597 0.24335 0.0
H214 H 0.57732 0.67805 0.2886 0.0
C215 C 0.59946 0.72097 0.17533 0.0
C216 C 0.86844 0.5119 0.62793 0.0
C217 C 0.91056 0.51931 0.64566 0.0
H218 H 0.81062 0.52134 0.63952 0.0
C219 C 0.93039 0.54901 0.68551 0.0
H220 H 0.85199 0.48842 0.59796 0.0
C221 C 0.90682 0.56819 0.70938 0.0
C222 C 0.86257 0.55713 0.69431 0.0
H223 H 0.96239 0.55438 0.7005 0.0
H224 H 0.92135 0.58808 0.74205 0.0
C225 C 0.84465 0.53052 0.65205 0.0
C226 C 0.32983 0.90416 0.18026 0.0
C227 C 0.37396 0.9152 0.19565 0.0
H228 H 0.25891 0.87651 0.20042 0.0
C229 C 0.38181 0.91277 0.2447 0.0
H230 H 0.32299 0.90569 0.14262 0.0
C231 C 0.34537 0.89501 0.27696 0.0
C232 C 0.30085 0.88084 0.26095 0.0
H233 H 0.41575 0.92199 0.25759 0.0
H234 H 0.35167 0.89088 0.31412 0.0
C235 C 0.29331 0.88722 0.21302 0.0
C236 C 0.41427 0.37254 0.74727 0.0
C237 C 0.42389 0.38084 0.69809 0.0
H238 H 0.39459 0.32423 0.80395 0.0
C239 C 0.41334 0.34374 0.66683 0.0
H240 H 0.42262 0.40075 0.77211 0.0
C241 C 0.39814 0.3 0.68507 0.0
C242 C 0.39264 0.29252 0.73484 0.0
H243 H 0.42104 0.34941 0.62887 0.0
H244 H 0.394 0.27286 0.66057 0.0
C245 C 0.39826 0.32865 0.76544 0.0
C246 C 0.56381 0.93631 0.44173 0.0
C247 C 0.56245 0.93721 0.49212 0.0
H248 H 0.58539 0.91485 0.37881 0.0
C249 C 0.5874 0.9214 0.51789 0.0
H250 H 0.5454 0.9488 0.42096 0.0
C251 C 0.61023 0.90185 0.49388 0.0
C252 C 0.60896 0.89801 0.44355 0.0
H253 H 0.58689 0.92148 0.55678 0.0
H254 H 0.62667 0.88738 0.51486 0.0
C255 C 0.58718 0.91727 0.41764 0.0
C256 C 0.64592 0.6083 0.92428 0.0
C257 C 0.64879 0.58145 0.96045 0.0
H258 H 0.67815 0.64978 0.86274 0.0
C259 C 0.69006 0.58095 0.96589 0.0
H260 H 0.61426 0.60875 0.91896 0.0
C261 C 0.72682 0.60472 0.93411 0.0
C262 C 0.72281 0.62877 0.89546 0.0
H263 H 0.69293 0.56014 0.99326 0.0
H264 H 0.7571 0.60157 0.93806 0.0
C265 C 0.68247 0.63156 0.89198 0.0
C266 C 0.10763 0.58403 0.42661 0.0
C267 C 0.09671 0.57314 0.4753 0.0
H268 H 0.14193 0.63694 0.37498 0.0
C269 C 0.11529 0.60874 0.50995 0.0
H270 H 0.09348 0.55763 0.39886 0.0
C271 C 0.1423 0.65425 0.49606 0.0
C272 C 0.15211 0.66499 0.4474 0.0
H273 H 0.10866 0.60158 0.54782 0.0
H274 H 0.15498 0.68112 0.52337 0.0
C275 C 0.13542 0.62948 0.41285 0.0
C276 C 0.4022 0.07017 1.00797 0.0
C277 C 0.41492 0.04617 0.97547 0.0
H278 H 0.38128 0.12034 1.01675 0.0
C279 C 0.4068 0.0472 0.92623 0.0
H280 H 0.40858 0.07031 1.04605 0.0
C281 C 0.39058 0.07534 0.90943 0.0
C282 C 0.38319 0.10371 0.94156 0.0
H283 H 0.41666 0.02921 0.90047 0.0
H284 H 0.38843 0.07828 0.871 0.0
C285 C 0.38678 0.09898 0.99114 0.0
C286 C 0.33849 0.43258 0.49215 0.0
C287 C 0.38217 0.46664 0.47666 0.0
H288 H 0.268 0.38722 0.4721 0.0
C289 C 0.39 0.47611 0.42745 0.0
H290 H 0.33167 0.42468 0.52989 0.0
C291 C 0.3537 0.45599 0.39513 0.0
C292 C 0.30939 0.42488 0.41121 0.0
H293 H 0.4237 0.50136 0.41443 0.0
H294 H 0.35989 0.46602 0.35784 0.0
C295 C 0.30218 0.41144 0.45932 0.0
C296 C 0.86403 0.34684 1.0361 0.0
C297 C 0.90907 0.38453 1.0376 0.0
H298 H 0.81755 0.28163 1.00381 0.0
C299 C 0.94373 0.38174 1.0118 0.0
H300 H 0.83659 0.34843 1.05514 0.0
C301 C 0.93275 0.34396 0.98144 0.0
C302 C 0.88697 0.30788 0.97681 0.0
H303 H 0.97857 0.41062 1.01171 0.0
H304 H 0.95961 0.34446 0.95921 0.0
C305 C 0.85318 0.30864 1.0065 0.0
C306 C 0.88381 0.50431 0.95544 0.0
C307 C 0.89189 0.51802 1.00421 0.0
H308 H 0.85756 0.50975 0.88779 0.0
C309 C 0.88038 0.55049 1.02119 0.0
H310 H 0.89366 0.48065 0.9404 0.0
C311 C 0.8607 0.5682 0.99026 0.0
C312 C 0.85144 0.55316 0.94207 0.0
H313 H 0.88585 0.56166 1.05846 0.0
H314 H 0.85223 0.59327 1.00418 0.0
C315 C 0.86318 0.52106 0.92504 0.0
C316 C 0.39314 0.93263 0.47699 0.0
C317 C 0.40609 0.91704 0.51717 0.0
H318 H 0.34055 0.9181 0.42478 0.0
C319 C 0.37316 0.87634 0.53887 0.0
H320 H 0.41815 0.96367 0.4593 0.0
C321 C 0.32915 0.85003 0.51878 0.0
C322 C 0.31675 0.86439 0.47725 0.0
H323 H 0.38245 0.86333 0.56946 0.0
H324 H 0.30559 0.81707 0.53416 0.0
C325 C 0.34864 0.9068 0.45752 0.0
C326 C 0.5302 0.40894 0.92982 0.0
C327 C 0.52539 0.4187 0.97828 0.0
H328 H 0.50928 0.35812 0.87378 0.0
C329 C 0.49637 0.3819 1.00811 0.0
H330 H 0.55106 0.43597 0.90507 0.0
C331 C 0.47074 0.33733 0.98924 0.0
C332 C 0.47507 0.32835 0.94075 0.0
H333 H 0.4926 0.38739 1.04587 0.0
H334 H 0.44724 0.30994 1.01242 0.0
C335 C 0.50592 0.36421 0.91155 0.0
C336 C 0.04744 0.40563 0.40464 0.0
C337 C 0.04847 0.40913 0.4552 0.0
H338 H 0.0767 0.39338 0.34114 0.0
C339 C 0.07262 0.39231 0.48051 0.0
H340 H 0.02967 0.41903 0.38418 0.0
C341 C 0.10004 0.3781 0.45585 0.0
C342 C 0.10358 0.38008 0.40537 0.0
H343 H 0.0747 0.39525 0.51932 0.0
H344 H 0.122 0.36988 0.47653 0.0
C345 C 0.07454 0.39098 0.37991 0.0
C346 C 0.60226 0.05427 0.97113 0.0
C347 C 0.57422 0.07398 0.97561 0.0
H348 H 0.66753 0.06327 0.94996 0.0
C349 C 0.59229 0.11998 0.96197 0.0
H350 H 0.58942 0.01889 0.98055 0.0
C351 C 0.63683 0.14518 0.94333 0.0
C352 C 0.66462 0.12529 0.93891 0.0
H353 H 0.57218 0.13679 0.96595 0.0
H354 H 0.64967 0.18036 0.933 0.0
C355 C 0.647 0.07971 0.95327 0.0
C356 C 0.47694 0.64554 0.50309 0.0
C357 C 0.50095 0.62382 0.51875 0.0
H358 H 0.47724 0.69662 0.45806 0.0
C359 C 0.54751 0.64306 0.50645 0.0
H360 H 0.4409 0.63138 0.51198 0.0
C361 C 0.56824 0.68027 0.47533 0.0
C362 C 0.54283 0.69899 0.4557 0.0
H363 H 0.56673 0.62685 0.51736 0.0
H364 H 0.60351 0.69254 0.46446 0.0
C365 C 0.49755 0.68255 0.4717 0.0
C366 C 0.48482 0.10772 0.67851 0.0
C367 C 0.50869 0.09446 0.70979 0.0
H368 H 0.44287 0.13875 0.67171 0.0
C369 C 0.5099 0.10525 0.75909 0.0
H370 H 0.48391 0.1013 0.64023 0.0
C371 C 0.48829 0.12874 0.77644 0.0
C372 C 0.46367 0.14064 0.74526 0.0
H373 H 0.52666 0.09474 0.78472 0.0
H374 H 0.48933 0.13603 0.81462 0.0
C375 C 0.46178 0.12978 0.69628 0.0
C376 C 0.39585 0.44656 0.17004 0.0
C377 C 0.40623 0.48941 0.15222 0.0
H378 H 0.34867 0.38767 0.21047 0.0
C379 C 0.37292 0.50285 0.15662 0.0
H380 H 0.42101 0.43551 0.16755 0.0
C381 C 0.33096 0.47494 0.18008 0.0
C382 C 0.32185 0.43348 0.20089 0.0
H383 H 0.38009 0.53579 0.14341 0.0
H384 H 0.30705 0.48738 0.18474 0.0
C385 C 0.3544 0.41919 0.19461 0.0
C386 C 0.85965 0.35308 0.69646 0.0
C387 C 0.90576 0.37444 0.68104 0.0
H388 H 0.80798 0.30441 0.74309 0.0
C389 C 0.93457 0.35932 0.69928 0.0
H390 H 0.83631 0.36337 0.68238 0.0
C391 C 0.91809 0.32507 0.73394 0.0
C392 C 0.87263 0.30554 0.75111 0.0
H393 H 0.97027 0.37527 0.68834 0.0
H394 H 0.94142 0.31494 0.74834 0.0
C395 C 0.84338 0.31932 0.7313 0.0
C396 C 0.52752 0.90141 0.18612 0.0
C397 C 0.4935 0.87993 0.15069 0.0
H398 H 0.56347 0.89303 0.24445 0.0
C399 C 0.47315 0.83228 0.14348 0.0
H400 H 0.54263 0.93782 0.19346 0.0
C401 C 0.48476 0.80632 0.17299 0.0
C402 C 0.51609 0.82744 0.21103 0.0
H403 H 0.44566 0.8147 0.11754 0.0
H404 H 0.4672 0.76946 0.16781 0.0
C405 C 0.53853 0.87549 0.2161 0.0
C406 C 0.5905 0.51131 0.74726 0.0
C407 C 0.58167 0.51447 0.69856 0.0
H408 H 0.64083 0.52369 0.80087 0.0
C409 C 0.61901 0.53496 0.66656 0.0
H410 H 0.56273 0.49662 0.77316 0.0
C411 C 0.66392 0.55119 0.68275 0.0
C412 C 0.67231 0.54656 0.73104 0.0
H413 H 0.61355 0.53733 0.62873 0.0
H414 H 0.69201 0.56659 0.65726 0.0
C415 C 0.63523 0.52672 0.7632 0.0
C416 C 0.04419 0.6368 0.27652 0.0
C417 C 0.0426 0.63349 0.22598 0.0
H418 H 0.07279 0.68037 0.33866 0.0
C419 C 0.06157 0.6741 0.19976 0.0
H420 H 0.03007 0.60602 0.29769 0.0
C421 C 0.08645 0.71688 0.22325 0.0
C422 C 0.09273 0.71994 0.27347 0.0
H423 H 0.06135 0.67271 0.16087 0.0
H424 H 0.10413 0.74729 0.20161 0.0
C425 C 0.0688 0.67955 0.30005 0.0
loop_
_geom_bond_atom_site_label_1
_geom_bond_atom_site_label_2
_geom_bond_distance
_geom_bond_site_symmetry_2
_ccdc_geom_bond_type
H0 C6 0.930 . S
H1 C9 0.931 . S
H2 C11 0.949 . S
H3 C13 0.930 . S
H4 C15 0.930 . S
H5 C17 0.931 . S
C6 H0 0.930 . S
C6 C7 1.380 . S
C6 C8 1.394 . S
C7 C6 1.380 . S
C7 C11 1.382 . S
C8 C6 1.394 . S
C8 C9 1.400 . S
C9 H1 0.931 . S
C9 C8 1.400 . S
C9 C10 1.375 . S
C10 C9 1.375 . S
C10 C11 1.415 . S
C10 C12 1.501 1_656 S
C11 H2 0.949 . S
C11 C7 1.382 . S
C11 C10 1.415 . S
C12 C10 1.501 1_454 S
C12 C13 1.384 . S
C12 C17 1.408 . S
C13 H3 0.930 . S
C13 C12 1.384 . S
C13 C14 1.389 . S
C14 C13 1.389 . S
C14 C15 1.405 . S
C15 H4 0.930 . S
C15 C14 1.405 . S
C15 C16 1.364 . S
C16 C15 1.364 . S
C16 C17 1.400 . S
C17 H5 0.931 . S
C17 C12 1.408 . S
C17 C16 1.400 . S
H18 C24 0.930 . S
H19 C27 0.931 . S
H20 C29 0.931 . S
H21 C31 0.930 1_545 S
H22 C33 0.930 . S
H23 C35 0.931 . S
C24 H18 0.930 . S
C24 C25 1.380 . S
C24 C26 1.394 . S
C25 C24 1.380 . S
C25 C29 1.382 . S
C26 C24 1.394 . S
C26 C27 1.400 . S
C27 H19 0.931 . S
C27 C26 1.400 . S
C27 C28 1.375 . S
C28 C27 1.375 . S
C28 C29 1.415 . S
C28 C30 1.501 . S
C29 H20 0.931 . S
C29 C25 1.382 . S
C29 C28 1.415 . S
C30 C28 1.501 . S
C30 C31 1.384 1_545 S
C30 C35 1.408 1_545 S
C31 H21 0.930 1_565 S
C31 C30 1.384 1_565 S
C31 C32 1.389 . S
C32 C31 1.389 . S
C32 C33 1.405 . S
C33 H22 0.930 . S
C33 C32 1.405 . S
C33 C34 1.364 . S
C34 C33 1.364 . S
C34 C35 1.400 . S
C35 H23 0.931 . S
C35 C30 1.408 1_565 S
C35 C34 1.400 . S
H36 C42 0.930 . S
H37 C45 0.931 . S
H38 C47 0.931 . S
H39 C49 0.930 . S
H40 C51 0.930 . S
H41 C53 0.931 . S
C42 H36 0.930 . S
C42 C43 1.380 . S
C42 C44 1.394 . S
C43 C42 1.380 . S
C43 C47 1.382 . S
C44 C42 1.394 . S
C44 C45 1.400 . S
C45 H37 0.931 . S
C45 C44 1.400 . S
C45 C46 1.375 . S
C46 C45 1.375 . S
C46 C47 1.415 . S
C46 C48 1.501 1_554 S
C47 H38 0.931 . S
C47 C43 1.382 . S
C47 C46 1.415 . S
C48 C46 1.501 1_556 S
C48 C49 1.384 . S
C48 C53 1.408 . S
C49 H39 0.930 . S
C49 C48 1.384 . S
C49 C50 1.389 . S
C50 C49 1.389 . S
C50 C51 1.405 . S
C51 H40 0.930 . S
C51 C50 1.405 . S
C51 C52 1.364 . S
C52 C51 1.364 . S
C52 C53 1.400 . S
C53 H41 0.931 . S
C53 C48 1.408 . S
C53 C52 1.400 . S
H54 C60 0.930 . S
H55 C63 0.931 . S
H56 C65 0.931 . S
H57 C67 0.930 . S
H58 C69 0.930 . S
H59 C71 0.931 . S
C60 H54 0.930 . S
C60 C61 1.380 . S
C60 C62 1.394 . S
C61 C60 1.380 . S
C61 C65 1.382 . S
C62 C60 1.394 . S
C62 C63 1.400 . S
C63 H55 0.931 . S
C63 C62 1.400 . S
C63 C64 1.375 . S
C64 C63 1.375 . S
C64 C65 1.415 . S
C64 C66 1.501 1_655 S
C65 H56 0.931 . S
C65 C61 1.382 . S
C65 C64 1.415 . S
C66 C64 1.501 1_455 S
C66 C67 1.384 . S
C66 C71 1.408 . S
C67 H57 0.930 . S
C67 C66 1.384 . S
C67 C68 1.389 . S
C68 C67 1.389 . S
C68 C69 1.405 . S
C69 H58 0.930 . S
C69 C68 1.405 . S
C69 C70 1.364 . S
C70 C69 1.364 . S
C70 C71 1.400 . S
C71 H59 0.931 . S
C71 C66 1.408 . S
C71 C70 1.400 . S
H72 C78 0.930 . S
H73 C81 0.931 . S
H74 C83 0.931 . S
H75 C85 0.930 . S
H76 C87 0.930 . S
H77 C89 0.931 . S
C78 H72 0.930 . S
C78 C79 1.380 . S
C78 C80 1.394 . S
C79 C78 1.380 . S
C79 C83 1.382 . S
C80 C78 1.394 . S
C80 C81 1.400 . S
C81 H73 0.931 . S
C81 C80 1.400 . S
C81 C82 1.375 . S
C82 C81 1.375 . S
C82 C83 1.415 . S
C82 C84 1.501 1_564 S
C83 H74 0.931 . S
C83 C79 1.382 . S
C83 C82 1.415 . S
C84 C82 1.501 1_546 S
C84 C85 1.384 . S
C84 C89 1.408 . S
C85 H75 0.930 . S
C85 C84 1.384 . S
C85 C86 1.389 . S
C86 C85 1.389 . S
C86 C87 1.405 . S
C87 H76 0.930 . S
C87 C86 1.405 . S
C87 C88 1.364 . S
C88 C87 1.364 . S
C88 C89 1.400 . S
C89 H77 0.931 . S
C89 C84 1.408 . S
C89 C88 1.400 . S
H90 C96 0.930 . S
H91 C99 0.931 . S
H92 C101 0.931 . S
H93 C103 0.930 . S
H94 C105 0.930 . S
H95 C107 0.931 . S
C96 H90 0.930 . S
C96 C97 1.380 . S
C96 C98 1.394 . S
C97 C96 1.380 . S
C97 C101 1.382 . S
C98 C96 1.394 . S
C98 C99 1.400 . S
C99 H91 0.931 . S
C99 C98 1.400 . S
C99 C100 1.375 . S
C100 C99 1.375 . S
C100 C101 1.415 . S
C100 C102 1.501 . S
C101 H92 0.931 . S
C101 C97 1.382 . S
C101 C100 1.415 . S
C102 C100 1.501 . S
C102 C103 1.384 . S
C102 C107 1.408 . S
C103 H93 0.930 . S
C103 C102 1.384 . S
C103 C104 1.389 . S
C104 C103 1.389 . S
C104 C105 1.405 . S
C105 H94 0.930 . S
C105 C104 1.405 . S
C105 C106 1.364 . S
C106 C105 1.364 . S
C106 C107 1.400 . S
C107 H95 0.931 . S
C107 C102 1.408 . S
C107 C106 1.400 . S
Mg108 O115 2.141 . S
Mg108 O116 2.048 . S
Mg108 O117 2.048 . S
Mg108 O120 2.141 . S
C109 O110 1.313 . S
C109 O116 1.195 . S
O110 C109 1.313 . S
C111 O112 1.245 . S
C111 O120 1.289 . S
O112 C111 1.245 . S
C113 O114 1.245 . S
C113 O115 1.289 . S
O114 C113 1.245 . S
O115 Mg108 2.141 . S
O115 C113 1.289 . S
O116 Mg108 2.048 . S
O116 C109 1.195 . S
O117 Mg108 2.048 . S
O117 C118 1.195 . S
C118 O117 1.195 . S
C118 O119 1.313 . S
O119 C118 1.313 . S
O120 Mg108 2.141 . S
O120 C111 1.289 . S
Mg121 O128 2.141 . S
Mg121 O129 2.048 . S
Mg121 O130 2.048 . S
Mg121 O133 2.141 . S
C122 O123 1.313 . S
C122 O129 1.195 . S
O123 C122 1.313 . S
C124 O125 1.245 . S
C124 O133 1.289 . S
O125 C124 1.245 . S
C126 O127 1.245 . S
C126 O128 1.289 . S
O127 C126 1.245 . S
O128 Mg121 2.141 . S
O128 C126 1.289 . S
O129 Mg121 2.048 . S
O129 C122 1.195 . S
O130 Mg121 2.048 . S
O130 C131 1.195 . S
C131 O130 1.195 . S
C131 O132 1.313 . S
O132 C131 1.313 . S
O133 Mg121 2.141 . S
O133 C124 1.289 . S
Mg134 O141 2.141 . S
Mg134 O142 2.048 . S
Mg134 O143 2.048 . S
Mg134 O146 2.141 . S
C135 O136 1.313 . S
C135 O142 1.195 . S
O136 C135 1.313 . S
C137 O138 1.245 . S
C137 O146 1.289 . S
O138 C137 1.245 . S
C139 O140 1.245 . S
C139 O141 1.289 . S
O140 C139 1.245 . S
O141 Mg134 2.141 . S
O141 C139 1.289 . S
O142 Mg134 2.048 . S
O142 C135 1.195 . S
O143 Mg134 2.048 . S
O143 C144 1.195 . S
C144 O143 1.195 . S
C144 O145 1.313 . S
O145 C144 1.313 . S
O146 Mg134 2.141 . S
O146 C137 1.289 . S
Mg147 O154 2.141 . S
Mg147 O155 2.048 . S
Mg147 O156 2.048 . S
Mg147 O159 2.141 . S
C148 O149 1.313 . S
C148 O155 1.195 . S
O149 C148 1.313 . S
C150 O151 1.245 . S
C150 O159 1.289 . S
O151 C150 1.245 . S
C152 O153 1.245 . S
C152 O154 1.289 . S
O153 C152 1.245 . S
O154 Mg147 2.141 . S
O154 C152 1.289 . S
O155 Mg147 2.048 . S
O155 C148 1.195 . S
O156 Mg147 2.048 . S
O156 C157 1.195 . S
C157 O156 1.195 . S
C157 O158 1.313 . S
O158 C157 1.313 . S
O159 Mg147 2.141 . S
O159 C150 1.289 . S
Mg160 O167 2.141 . S
Mg160 O168 2.048 . S
Mg160 O169 2.048 . S
Mg160 O172 2.141 . S
C161 O162 1.313 . S
C161 O168 1.195 . S
O162 C161 1.313 . S
C163 O164 1.245 . S
C163 O172 1.289 . S
O164 C163 1.245 . S
C165 O166 1.245 . S
C165 O167 1.289 . S
O166 C165 1.245 . S
O167 Mg160 2.141 . S
O167 C165 1.289 . S
O168 Mg160 2.048 . S
O168 C161 1.195 . S
O169 Mg160 2.048 . S
O169 C170 1.195 . S
C170 O169 1.195 . S
C170 O171 1.313 . S
O171 C170 1.313 . S
O172 Mg160 2.141 . S
O172 C163 1.289 . S
Mg173 O180 2.141 . S
Mg173 O181 2.048 . S
Mg173 O182 2.048 . S
Mg173 O185 2.141 . S
C174 O175 1.313 . S
C174 O181 1.195 . S
O175 C174 1.313 . S
C176 O177 1.245 . S
C176 O185 1.289 . S
O177 C176 1.245 . S
C178 O179 1.245 . S
C178 O180 1.289 . S
O179 C178 1.245 . S
O180 Mg173 2.141 . S
O180 C178 1.289 . S
O181 Mg173 2.048 . S
O181 C174 1.195 . S
O182 Mg173 2.048 . S
O182 C183 1.195 . S
C183 O182 1.195 . S
C183 O184 1.313 . S
O184 C183 1.313 . S
O185 Mg173 2.141 . S
O185 C176 1.289 . S
C186 C187 1.387 . S
C186 H190 0.950 . S
C186 C195 1.390 . S
C187 C186 1.387 . S
C187 C189 1.387 . S
H188 C195 0.950 . S
C189 C187 1.387 . S
C189 C191 1.390 . S
C189 H193 0.950 . S
H190 C186 0.950 . S
C191 C189 1.390 . S
C191 C192 1.387 . S
C191 H194 0.950 . S
C192 C191 1.387 . S
C192 C195 1.387 . S
H193 C189 0.950 . S
H194 C191 0.950 . S
C195 C186 1.390 . S
C195 H188 0.950 . S
C195 C192 1.387 . S
C196 C197 1.387 . S
C196 H200 0.950 . S
C196 C205 1.390 . S
C197 C196 1.387 . S
C197 C199 1.387 . S
H198 C205 0.950 . S
C199 C197 1.387 . S
C199 C201 1.390 . S
C199 H203 0.950 . S
H200 C196 0.950 . S
C201 C199 1.390 . S
C201 C202 1.387 . S
C201 H204 0.950 . S
C202 C201 1.387 . S
C202 C205 1.387 . S
H203 C199 0.950 . S
H204 C201 0.950 . S
C205 C196 1.390 . S
C205 H198 0.950 . S
C205 C202 1.387 . S
C206 C207 1.387 . S
C206 H210 0.950 . S
C206 C215 1.390 . S
C207 C206 1.387 . S
C207 C209 1.387 . S
H208 C215 0.950 . S
C209 C207 1.387 . S
C209 C211 1.390 . S
C209 H213 0.950 . S
H210 C206 0.950 . S
C211 C209 1.390 . S
C211 C212 1.387 . S
C211 H214 0.950 . S
C212 C211 1.387 . S
C212 C215 1.387 . S
H213 C209 0.950 . S
H214 C211 0.950 . S
C215 C206 1.390 . S
C215 H208 0.950 . S
C215 C212 1.387 . S
C216 C217 1.387 . S
C216 H220 0.950 . S
C216 C225 1.390 . S
C217 C216 1.387 . S
C217 C219 1.387 . S
H218 C225 0.950 . S
C219 C217 1.387 . S
C219 C221 1.390 . S
C219 H223 0.950 . S
H220 C216 0.950 . S
C221 C219 1.390 . S
C221 C222 1.387 . S
C221 H224 0.950 . S
C222 C221 1.387 . S
C222 C225 1.387 . S
H223 C219 0.950 . S
H224 C221 0.950 . S
C225 C216 1.390 . S
C225 H218 0.950 . S
C225 C222 1.387 . S
C226 C227 1.387 . S
C226 H230 0.950 . S
C226 C235 1.390 . S
C227 C226 1.387 . S
C227 C229 1.387 . S
H228 C235 0.950 . S
C229 C227 1.387 . S
C229 C231 1.390 . S
C229 H233 0.950 . S
H230 C226 0.950 . S
C231 C229 1.390 . S
C231 C232 1.387 . S
C231 H234 0.950 . S
C232 C231 1.387 . S
C232 C235 1.387 . S
H233 C229 0.950 . S
H234 C231 0.950 . S
C235 C226 1.390 . S
C235 H228 0.950 . S
C235 C232 1.387 . S
C236 C237 1.387 . S
C236 H240 0.950 . S
C236 C245 1.390 . S
C237 C236 1.387 . S
C237 C239 1.387 . S
H238 C245 0.950 . S
C239 C237 1.387 . S
C239 C241 1.390 . S
C239 H243 0.950 . S
H240 C236 0.950 . S
C241 C239 1.390 . S
C241 C242 1.387 . S
C241 H244 0.950 . S
C242 C241 1.387 . S
C242 C245 1.387 . S
H243 C239 0.950 . S
H244 C241 0.950 . S
C245 C236 1.390 . S
C245 H238 0.950 . S
C245 C242 1.387 . S
C246 C247 1.387 . S
C246 H250 0.950 . S
C246 C255 1.390 . S
C247 C246 1.387 . S
C247 C249 1.387 . S
H248 C255 0.950 . S
C249 C247 1.387 . S
C249 C251 1.390 . S
C249 H253 0.950 . S
H250 C246 0.950 . S
C251 C249 1.390 . S
C251 C252 1.387 . S
C251 H254 0.950 . S
C252 C251 1.387 . S
C252 C255 1.387 . S
H253 C249 0.950 . S
H254 C251 0.950 . S
C255 C246 1.390 . S
C255 H248 0.950 . S
C255 C252 1.387 . S
C256 C257 1.387 . S
C256 H260 0.950 . S
C256 C265 1.390 . S
C257 C256 1.387 . S
C257 C259 1.387 . S
H258 C265 0.950 . S
C259 C257 1.387 . S
C259 C261 1.390 . S
C259 H263 0.950 . S
H260 C256 0.950 . S
C261 C259 1.390 . S
C261 C262 1.387 . S
C261 H264 0.950 . S
C262 C261 1.387 . S
C262 C265 1.387 . S
H263 C259 0.950 . S
H264 C261 0.950 . S
C265 C256 1.390 . S
C265 H258 0.950 . S
C265 C262 1.387 . S
C266 C267 1.387 . S
C266 H270 0.950 . S
C266 C275 1.390 . S
C267 C266 1.387 . S
C267 C269 1.387 . S
H268 C275 0.950 . S
C269 C267 1.387 . S
C269 C271 1.390 . S
C269 H273 0.950 . S
H270 C266 0.950 . S
C271 C269 1.390 . S
C271 C272 1.387 . S
C271 H274 0.950 . S
C272 C271 1.387 . S
C272 C275 1.387 . S
H273 C269 0.950 . S
H274 C271 0.950 . S
C275 C266 1.390 . S
C275 H268 0.950 . S
C275 C272 1.387 . S
C276 C277 1.387 . S
C276 H280 0.950 . S
C276 C285 1.390 . S
C277 C276 1.387 . S
C277 C279 1.387 . S
H278 C285 0.950 . S
C279 C277 1.387 . S
C279 C281 1.390 . S
C279 H283 0.950 . S
H280 C276 0.950 . S
C281 C279 1.390 . S
C281 C282 1.387 . S
C281 H284 0.950 . S
C282 C281 1.387 . S
C282 C285 1.387 . S
H283 C279 0.950 . S
H284 C281 0.950 . S
C285 C276 1.390 . S
C285 H278 0.950 . S
C285 C282 1.387 . S
C286 C287 1.387 . S
C286 H290 0.950 . S
C286 C295 1.390 . S
C287 C286 1.387 . S
C287 C289 1.387 . S
H288 C295 0.950 . S
C289 C287 1.387 . S
C289 C291 1.390 . S
C289 H293 0.950 . S
H290 C286 0.950 . S
C291 C289 1.390 . S
C291 C292 1.387 . S
C291 H294 0.950 . S
C292 C291 1.387 . S
C292 C295 1.387 . S
H293 C289 0.950 . S
H294 C291 0.950 . S
C295 C286 1.390 . S
C295 H288 0.950 . S
C295 C292 1.387 . S
C296 C297 1.387 . S
C296 H300 0.950 . S
C296 C305 1.390 . S
C297 C296 1.387 . S
C297 C299 1.387 . S
H298 C305 0.950 . S
C299 C297 1.387 . S
C299 C301 1.390 . S
C299 H303 0.950 . S
H300 C296 0.950 . S
C301 C299 1.390 . S
C301 C302 1.387 . S
C301 H304 0.950 . S
C302 C301 1.387 . S
C302 C305 1.387 . S
H303 C299 0.950 . S
H304 C301 0.950 . S
C305 C296 1.390 . S
C305 H298 0.950 . S
C305 C302 1.387 . S
C306 C307 1.387 . S
C306 H310 0.950 . S
C306 C315 1.390 . S
C307 C306 1.387 . S
C307 C309 1.387 . S
H308 C315 0.950 . S
C309 C307 1.387 . S
C309 C311 1.390 . S
C309 H313 0.950 . S
H310 C306 0.950 . S
C311 C309 1.390 . S
C311 C312 1.387 . S
C311 H314 0.950 . S
C312 C311 1.387 . S
C312 C315 1.387 . S
H313 C309 0.950 . S
H314 C311 0.950 . S
C315 C306 1.390 . S
C315 H308 0.950 . S
C315 C312 1.387 . S
C316 C317 1.387 . S
C316 H320 0.950 . S
C316 C325 1.390 . S
C317 C316 1.387 . S
C317 C319 1.387 . S
H318 C325 0.950 . S
C319 C317 1.387 . S
C319 C321 1.390 . S
C319 H323 0.950 . S
H320 C316 0.950 . S
C321 C319 1.390 . S
C321 C322 1.387 . S
C321 H324 0.950 . S
C322 C321 1.387 . S
C322 C325 1.387 . S
H323 C319 0.950 . S
H324 C321 0.950 . S
C325 C316 1.390 . S
C325 H318 0.950 . S
C325 C322 1.387 . S
C326 C327 1.387 . S
C326 H330 0.950 . S
C326 C335 1.390 . S
C327 C326 1.387 . S
C327 C329 1.387 . S
H328 C335 0.950 . S
C329 C327 1.387 . S
C329 C331 1.390 . S
C329 H333 0.950 . S
H330 C326 0.950 . S
C331 C329 1.390 . S
C331 C332 1.387 . S
C331 H334 0.950 . S
C332 C331 1.387 . S
C332 C335 1.387 . S
H333 C329 0.950 . S
H334 C331 0.950 . S
C335 C326 1.390 . S
C335 H328 0.950 . S
C335 C332 1.387 . S
C336 C337 1.387 . S
C336 H340 0.950 . S
C336 C345 1.390 . S
C337 C336 1.387 . S
C337 C339 1.387 . S
H338 C345 0.950 . S
C339 C337 1.387 . S
C339 C341 1.390 . S
C339 H343 0.950 . S
H340 C336 0.950 . S
C341 C339 1.390 . S
C341 C342 1.387 . S
C341 H344 0.950 . S
C342 C341 1.387 . S
C342 C345 1.387 . S
H343 C339 0.950 . S
H344 C341 0.950 . S
C345 C336 1.390 . S
C345 H338 0.950 . S
C345 C342 1.387 . S
C346 C347 1.387 . S
C346 H350 0.950 . S
C346 C355 1.390 . S
C347 C346 1.387 . S
C347 C349 1.387 . S
H348 C355 0.950 . S
C349 C347 1.387 . S
C349 C351 1.390 . S
C349 H353 0.950 . S
H350 C346 0.950 . S
C351 C349 1.390 . S
C351 C352 1.387 . S
C351 H354 0.950 . S
C352 C351 1.387 . S
C352 C355 1.387 . S
H353 C349 0.950 . S
H354 C351 0.950 . S
C355 C346 1.390 . S
C355 H348 0.950 . S
C355 C352 1.387 . S
C356 C357 1.387 . S
C356 H360 0.950 . S
C356 C365 1.390 . S
C357 C356 1.387 . S
C357 C359 1.387 . S
H358 C365 0.950 . S
C359 C357 1.387 . S
C359 C361 1.390 . S
C359 H363 0.950 . S
H360 C356 0.950 . S
C361 C359 1.390 . S
C361 C362 1.387 . S
C361 H364 0.950 . S
C362 C361 1.387 . S
C362 C365 1.387 . S
H363 C359 0.950 . S
H364 C361 0.950 . S
C365 C356 1.390 . S
C365 H358 0.950 . S
C365 C362 1.387 . S
C366 C367 1.387 . S
C366 H370 0.950 . S
C366 C375 1.390 . S
C367 C366 1.387 . S
C367 C369 1.387 . S
H368 C375 0.950 . S
C369 C367 1.387 . S
C369 C371 1.390 . S
C369 H373 0.950 . S
H370 C366 0.950 . S
C371 C369 1.390 . S
C371 C372 1.387 . S
C371 H374 0.950 . S
C372 C371 1.387 . S
C372 C375 1.387 . S
H373 C369 0.950 . S
H374 C371 0.950 . S
C375 C366 1.390 . S
C375 H368 0.950 . S
C375 C372 1.387 . S
C376 C377 1.387 . S
C376 H380 0.950 . S
C376 C385 1.390 . S
C377 C376 1.387 . S
C377 C379 1.387 . S
H378 C385 0.950 . S
C379 C377 1.387 . S
C379 C381 1.390 . S
C379 H383 0.950 . S
H380 C376 0.950 . S
C381 C379 1.390 . S
C381 C382 1.387 . S
C381 H384 0.950 . S
C382 C381 1.387 . S
C382 C385 1.387 . S
H383 C379 0.950 . S
H384 C381 0.950 . S
C385 C376 1.390 . S
C385 H378 0.950 . S
C385 C382 1.387 . S
C386 C387 1.387 . S
C386 H390 0.950 . S
C386 C395 1.390 . S
C387 C386 1.387 . S
C387 C389 1.387 . S
H388 C395 0.950 . S
C389 C387 1.387 . S
C389 C391 1.390 . S
C389 H393 0.950 . S
H390 C386 0.950 . S
C391 C389 1.390 . S
C391 C392 1.387 . S
C391 H394 0.950 . S
C392 C391 1.387 . S
C392 C395 1.387 . S
H393 C389 0.950 . S
H394 C391 0.950 . S
C395 C386 1.390 . S
C395 H388 0.950 . S
C395 C392 1.387 . S
C396 C397 1.387 . S
C396 H400 0.950 . S
C396 C405 1.390 . S
C397 C396 1.387 . S
C397 C399 1.387 . S
H398 C405 0.950 . S
C399 C397 1.387 . S
C399 C401 1.390 . S
C399 H403 0.950 . S
H400 C396 0.950 . S
C401 C399 1.390 . S
C401 C402 1.387 . S
C401 H404 0.950 . S
C402 C401 1.387 . S
C402 C405 1.387 . S
H403 C399 0.950 . S
H404 C401 0.950 . S
C405 C396 1.390 . S
C405 H398 0.950 . S
C405 C402 1.387 . S
C406 C407 1.387 . S
C406 H410 0.950 . S
C406 C415 1.390 . S
C407 C406 1.387 . S
C407 C409 1.387 . S
H408 C415 0.950 . S
C409 C407 1.387 . S
C409 C411 1.390 . S
C409 H413 0.950 . S
H410 C406 0.950 . S
C411 C409 1.390 . S
C411 C412 1.387 . S
C411 H414 0.950 . S
C412 C411 1.387 . S
C412 C415 1.387 . S
H413 C409 0.950 . S
H414 C411 0.950 . S
C415 C406 1.390 . S
C415 H408 0.950 . S
C415 C412 1.387 . S
C416 C417 1.387 . S
C416 H420 0.950 . S
C416 C425 1.390 . S
C417 C416 1.387 . S
C417 C419 1.387 . S
H418 C425 0.950 . S
C419 C417 1.387 . S
C419 C421 1.390 . S
C419 H423 0.950 . S
H420 C416 0.950 . S
C421 C419 1.390 . S
C421 C422 1.387 . S
C421 H424 0.950 . S
C422 C421 1.387 . S
C422 C425 1.387 . S
H423 C419 0.950 . S
H424 C421 0.950 . S
C425 C416 1.390 . S
C425 H418 0.950 . S
C425 C422 1.387 . S
C187 C14 1.521 . S
C192 C109 1.554 . S
C197 C25 1.523 . S
C202 C122 1.559 . S
C212 C144 1.515 . S
C207 C43 1.520 . S
C222 C157 1.514 . S
C217 C62 1.523 . S
C232 C170 1.510 . S
C227 C80 1.518 . S
C242 C183 1.516 . S
C237 C97 1.516 . S
C247 C32 1.515 . S
C252 C139 1.507 . S
C257 C50 1.517 . S
C262 C152 1.505 . S
C272 C165 1.504 . S
C267 C70 1.507 . S
C282 C178 1.506 . S
C277 C88 1.514 . S
C287 C104 1.519 . S
C292 C111 1.553 . S
C302 C124 1.557 . S
C297 C7 1.517 . S
C312 C150 1.497 . S
C307 C8 1.517 . S
C317 C34 1.510 . S
C322 C163 1.498 . S
C332 C176 1.499 . S
C327 C52 1.511 . S
C337 C68 1.522 . S
C342 C113 1.557 . S
C347 C86 1.522 . S
C352 C126 1.557 . S
C357 C106 1.515 . S
C362 C137 1.505 . S
C367 C26 1.528 . S
C372 C174 1.519 . S
C382 C118 1.566 . S
C377 C44 1.535 . S
C387 C61 1.525 . S
C392 C131 1.566 . S
C397 C79 1.528 . S
C402 C135 1.523 . S
C407 C98 1.529 . S
C412 C148 1.518 . S
C417 C16 1.520 . S
C422 C161 1.519 . S
