# Generated by pormake.
# Topology zzz, (3,6)-cn, num edge types: 1
# Building blocks:
#     Node 0, Type 0, BuildingBlock: MIDCAF_clean_linker_0, # of connection points: 3
#     Node 1, Type 0, BuildingBlock: MIDCAF_clean_linker_0, # of connection points: 3
#     Node 2, Type 0, BuildingBlock: MIDCAF_clean_linker_0, # of connection points: 3
#     Node 3, Type 0, BuildingBlock: MIDCAF_clean_linker_0, # of connection points: 3
#     Node 4, Type 0, BuildingBlock: MIDCAF_clean_linker_0, # of connection points: 3
#     Node 5, Type 0, BuildingBlock: MIDCAF_clean_linker_0, # of connection points: 3
#     Node 6, Type 0, BuildingBlock: MIDCAF_clean_linker_0, # of connection points: 3
#     Node 7, Type 0, BuildingBlock: MIDCAF_clean_linker_0, # of connection points: 3
#     Node 8, Type 1, BuildingBlock: PAMTOO_clean_sbu_0, # of connection points: 6
#     Node 9, Type 1, BuildingBlock: PAMTOO_clean_sbu_0, # of connection points: 6
#     Node 10, Type 1, BuildingBlock: PAMTOO_clean_sbu_0, # of connection points: 6
#     Node 11, Type 1, BuildingBlock: PAMTOO_clean_sbu_0, # of connection points: 6
#     Edge 12, Type (0, 1), BuildingBlock: MIFKUJ_clean_linker_0, # of connection points: 2
#     Edge 13, Type (0, 1), BuildingBlock: MIFKUJ_clean_linker_0, # of connection points: 2
#     Edge 14, Type (0, 1), BuildingBlock: MIFKUJ_clean_linker_0, # of connection points: 2
#     Edge 15, Type (0, 1), BuildingBlock: MIFKUJ_clean_linker_0, # of connection points: 2
#     Edge 16, Type (0, 1), BuildingBlock: MIFKUJ_clean_linker_0, # of connection points: 2
#     Edge 17, Type (0, 1), BuildingBlock: MIFKUJ_clean_linker_0, # of connection points: 2
#     Edge 18, Type (0, 1), BuildingBlock: MIFKUJ_clean_linker_0, # of connection points: 2
#     Edge 19, Type (0, 1), BuildingBlock: MIFKUJ_clean_linker_0, # of connection points: 2
#     Edge 20, Type (0, 1), BuildingBlock: MIFKUJ_clean_linker_0, # of connection points: 2
#     Edge 21, Type (0, 1), BuildingBlock: MIFKUJ_clean_linker_0, # of connection points: 2
#     Edge 22, Type (0, 1), BuildingBlock: MIFKUJ_clean_linker_0, # of connection points: 2
#     Edge 23, Type (0, 1), BuildingBlock: MIFKUJ_clean_linker_0, # of connection points: 2
#     Edge 24, Type (0, 1), BuildingBlock: MIFKUJ_clean_linker_0, # of connection points: 2
#     Edge 25, Type (0, 1), BuildingBlock: MIFKUJ_clean_linker_0, # of connection points: 2
#     Edge 26, Type (0, 1), BuildingBlock: MIFKUJ_clean_linker_0, # of connection points: 2
#     Edge 27, Type (0, 1), BuildingBlock: MIFKUJ_clean_linker_0, # of connection points: 2
#     Edge 28, Type (0, 1), BuildingBlock: MIFKUJ_clean_linker_0, # of connection points: 2
#     Edge 29, Type (0, 1), BuildingBlock: MIFKUJ_clean_linker_0, # of connection points: 2
#     Edge 30, Type (0, 1), BuildingBlock: MIFKUJ_clean_linker_0, # of connection points: 2
#     Edge 31, Type (0, 1), BuildingBlock: MIFKUJ_clean_linker_0, # of connection points: 2
#     Edge 32, Type (0, 1), BuildingBlock: MIFKUJ_clean_linker_0, # of connection points: 2
#     Edge 33, Type (0, 1), BuildingBlock: MIFKUJ_clean_linker_0, # of connection points: 2
#     Edge 34, Type (0, 1), BuildingBlock: MIFKUJ_clean_linker_0, # of connection points: 2
#     Edge 35, Type (0, 1), BuildingBlock: MIFKUJ_clean_linker_0, # of connection points: 2
# Relax obj value: 0.329
# Max RMSD: 0.270
# Mean RMSD: 0.217
data_MOF--net-zzz--node1-PAMTOO_clean_sbu_0--node2-MIDCAF_clean_linker_0--edge1-MIFKUJ_clean_linker_0
_symmetry_space_group_name_H-M    P1
_symmetry_Int_Tables_number       1
_symmetry_cell_setting            triclinic
loop_
_symmetry_equiv_pos_as_xyz
'x, y, z'
_cell_length_a     78.348356
_cell_length_b     69.66406
_cell_length_c     26.309413
_cell_angle_alpha  90.586004
_cell_angle_beta   83.027604
_cell_angle_gamma 84.857473
loop_
_atom_site_label
_atom_site_type_symbol
_atom_site_fract_x
_atom_site_fract_y
_atom_site_fract_z
_atom_type_partial_charge
C0 C 0.81171 0.54548 0.44156 0.0
C1 C 0.8141 0.52778 0.46608 0.0
C2 C 0.80263 0.51371 0.45889 0.0
C3 C 0.78953 0.51714 0.42675 0.0
H4 H 0.74556 0.49728 0.29356 0.0
H5 H 0.72067 0.48849 0.25319 0.0
H6 H 0.69534 0.54556 0.2882 0.0
H7 H 0.72004 0.55399 0.3289 0.0
H8 H 0.75814 0.56047 0.19216 0.0
H9 H 0.77334 0.56679 0.10854 0.0
H10 H 0.82053 0.56967 0.17684 0.0
H11 H 0.80541 0.56384 0.26009 0.0
H12 H 0.79787 0.5625 0.39049 0.0
H13 H 0.82032 0.55661 0.44507 0.0
H14 H 0.80393 0.49995 0.47744 0.0
H15 H 0.78135 0.50582 0.42046 0.0
N16 N 0.76091 0.53 0.35939 0.0
N17 N 0.75751 0.5447 0.28043 0.0
N18 N 0.7822 0.54852 0.31919 0.0
C19 C 0.75132 0.53387 0.31978 0.0
C20 C 0.77294 0.552 0.27957 0.0
C21 C 0.77641 0.53777 0.35938 0.0
C22 C 0.73456 0.52616 0.31556 0.0
C23 C 0.73426 0.50753 0.29498 0.0
C24 C 0.72012 0.50268 0.27082 0.0
C25 C 0.70601 0.5164 0.26652 0.0
C26 C 0.7058 0.53451 0.29096 0.0
C27 C 0.71993 0.53934 0.31483 0.0
C28 C 0.78069 0.56101 0.2326 0.0
C29 C 0.77165 0.56303 0.18962 0.0
C30 C 0.78034 0.56667 0.14163 0.0
C31 C 0.7982 0.56832 0.13578 0.0
C32 C 0.80675 0.56855 0.1798 0.0
C33 C 0.79807 0.56499 0.22773 0.0
C34 C 0.78777 0.53462 0.40076 0.0
C35 C 0.79881 0.54883 0.40967 0.0
C36 C 0.96786 0.77881 0.40646 0.0
C37 C 0.97908 0.77693 0.4443 0.0
C38 C 0.98926 0.75929 0.447 0.0
C39 C 0.98882 0.7443 0.41101 0.0
H40 H 0.01199 0.67729 0.27793 0.0
H41 H 0.01389 0.64612 0.23318 0.0
H42 H 0.95854 0.65183 0.23309 0.0
H43 H 0.95678 0.68273 0.27878 0.0
H44 H 0.99797 0.71385 0.14266 0.0
H45 H 1.00525 0.7293 0.06105 0.0
H46 H 0.9887 0.78499 0.13283 0.0
H47 H 0.9813 0.7697 0.21416 0.0
H48 H 0.95952 0.76645 0.34002 0.0
H49 H 0.95999 0.79218 0.40259 0.0
H50 H 0.99796 0.7573 0.4759 0.0
H51 H 0.99745 0.73131 0.41216 0.0
N52 N 0.98152 0.71423 0.32839 0.0
N53 N 0.98637 0.71204 0.23825 0.0
N54 N 0.98307 0.74222 0.27905 0.0
C55 C 0.9841 0.70336 0.28408 0.0
C56 C 0.98591 0.73141 0.2353 0.0
C57 C 0.98093 0.73389 0.32556 0.0
C58 C 0.98422 0.68224 0.28257 0.0
C59 C 1.00016 0.67127 0.27116 0.0
C60 C 1.00125 0.6536 0.24455 0.0
C61 C 0.98641 0.64667 0.22831 0.0
C62 C 0.97024 0.65663 0.24503 0.0
C63 C 0.96918 0.67429 0.27177 0.0
C64 C 0.98914 0.74056 0.18506 0.0
C65 C 0.99568 0.72938 0.14095 0.0
C66 C 0.99991 0.73818 0.09423 0.0
C67 C 0.99748 0.75829 0.09065 0.0
C68 C 0.99046 0.76941 0.13432 0.0
C69 C 0.98637 0.76065 0.18105 0.0
C70 C 0.97838 0.74684 0.37137 0.0
C71 C 0.96759 0.76403 0.37042 0.0
C72 C 0.72633 0.97479 0.372 0.0
C73 C 0.71327 0.99026 0.37687 0.0
C74 C 0.71522 0.00587 0.34378 0.0
C75 C 0.72891 0.00532 0.3043 0.0
H76 H 0.80007 0.95137 0.15957 0.0
H77 H 0.82981 0.95095 0.11894 0.0
H78 H 0.83058 0.01054 0.16516 0.0
H79 H 0.80094 0.01053 0.20738 0.0
H80 H 0.76669 0.99485 0.06053 0.0
H81 H 0.75108 -0.00065 0.98575 0.0
H82 H 0.70467 0.98361 0.075 0.0
H83 H 0.72009 0.97927 0.1497 0.0
H84 H 0.74941 0.96169 0.3273 0.0
H85 H 0.72528 0.96249 0.39663 0.0
H86 H 0.70574 0.01827 0.34705 0.0
H87 H 0.72935 0.01702 0.27748 0.0
N88 N 0.77001 0.98455 0.24329 0.0
N89 N 0.77097 0.9833 0.15336 0.0
N90 N 0.74435 0.98738 0.20453 0.0
C91 C 0.77931 0.98274 0.19568 0.0
C92 C 0.75353 0.98557 0.15743 0.0
C93 C 0.75236 0.98683 0.2475 0.0
C94 C 0.79836 0.98085 0.18742 0.0
C95 C 0.8069 0.96408 0.16293 0.0
C96 C 0.82384 0.964 0.13881 0.0
C97 C 0.83255 0.98085 0.13762 0.0
C98 C 0.82438 0.99726 0.16542 0.0
C99 C 0.80743 0.99725 0.19002 0.0
C100 C 0.74458 0.98681 0.1111 0.0
C101 C 0.75322 0.9921 0.06399 0.0
C102 C 0.74432 0.99471 0.02125 0.0
C103 C 0.72675 0.99169 0.02466 0.0
C104 C 0.71829 0.98575 0.0712 0.0
C105 C 0.72708 0.98345 0.11407 0.0
C106 C 0.74128 0.98935 0.2973 0.0
C107 C 0.74023 0.97435 0.3325 0.0
C108 C 0.57109 0.66004 0.07753 0.0
C109 C 0.56687 0.6616 0.02724 0.0
C110 C 0.56771 0.67951 0.00316 0.0
C111 C 0.57102 0.69585 0.03041 0.0
H112 H 0.56534 0.75367 0.02672 0.0
H113 H 0.55951 0.78449 0.98804 0.0
H114 H 0.55573 0.81299 0.13599 0.0
H115 H 0.56183 0.78177 0.1755 0.0
H116 H 0.54263 0.736 0.26964 0.0
H117 H 0.53535 0.71839 0.34836 0.0
H118 H 0.58595 0.68703 0.32593 0.0
H119 H 0.59311 0.70482 0.2487 0.0
H120 H 0.57686 0.67457 0.14405 0.0
H121 H 0.57051 0.64659 0.09762 0.0
H122 H 0.56502 0.68113 0.96395 0.0
H123 H 0.57054 0.70963 0.01168 0.0
N124 N 0.57038 0.72992 0.09582 0.0
N125 N 0.56704 0.74364 0.17907 0.0
N126 N 0.57335 0.71023 0.16584 0.0
C127 C 0.56746 0.74583 0.12732 0.0
C128 C 0.5703 0.72572 0.19815 0.0
C129 C 0.57332 0.71207 0.11481 0.0
C130 C 0.564 0.76508 0.10455 0.0
C131 C 0.56328 0.76639 0.05146 0.0
C132 C 0.55981 0.78415 0.02909 0.0
C133 C 0.55696 0.80122 0.05892 0.0
C134 C 0.55792 0.80009 0.11192 0.0
C135 C 0.56134 0.78218 0.13457 0.0
C136 C 0.56844 0.72179 0.25336 0.0
C137 C 0.55245 0.72609 0.28328 0.0
C138 C 0.5482 0.71572 0.3278 0.0
C139 C 0.55991 0.70096 0.34304 0.0
C140 C 0.57658 0.6983 0.31587 0.0
C141 C 0.58076 0.70856 0.27151 0.0
C142 C 0.57372 0.69453 0.08214 0.0
C143 C 0.57459 0.67626 0.10448 0.0
C144 C 0.22247 0.46864 0.89497 0.0
C145 C 0.21248 0.48654 0.89939 0.0
C146 C 0.21739 0.50095 0.93133 0.0
C147 C 0.23116 0.4971 0.96057 0.0
H148 H 0.28211 0.50874 0.06754 0.0
H149 H 0.30667 0.51721 0.11065 0.0
H150 H 0.32563 0.45703 0.10971 0.0
H151 H 0.30132 0.4488 0.06705 0.0
H152 H 0.25888 0.44282 0.16985 0.0
H153 H 0.23906 0.43481 0.24353 0.0
H154 H 0.19838 0.43332 0.14656 0.0
H155 H 0.21818 0.44045 0.07331 0.0
H156 H 0.24253 0.45033 0.92333 0.0
H157 H 0.21903 0.45709 0.87144 0.0
H158 H 0.21012 0.51497 0.9354 0.0
H159 H 0.23379 0.50797 0.98758 0.0
N160 N 0.26532 0.47887 0.01008 0.0
N161 N 0.26535 0.4596 0.08328 0.0
N162 N 0.24246 0.4598 0.03432 0.0
C163 C 0.27323 0.47206 0.05091 0.0
C164 C 0.24993 0.45351 0.07557 0.0
C165 C 0.24995 0.47228 0.00135 0.0
C166 C 0.28994 0.47815 0.0633 0.0
C167 C 0.29192 0.49749 0.07491 0.0
C168 C 0.30584 0.50226 0.10033 0.0
C169 C 0.31814 0.4878 0.11409 0.0
C170 C 0.31662 0.46862 0.09939 0.0
C171 C 0.30267 0.46387 0.07476 0.0
C172 C 0.23994 0.44302 0.116 0.0
C173 C 0.24586 0.44013 0.16397 0.0
C174 C 0.23446 0.43561 0.20634 0.0
C175 C 0.21695 0.43404 0.20151 0.0
C176 C 0.21172 0.43445 0.15219 0.0
C177 C 0.2231 0.43879 0.1099 0.0
C178 C 0.24027 0.47875 0.95863 0.0
C179 C 0.23606 0.46477 0.92452 0.0
C180 C 0.01722 0.23605 0.95634 0.0
C181 C 0.0308 0.22478 0.92681 0.0
C182 C 0.04777 0.22966 0.92791 0.0
C183 C 0.05128 0.24408 0.96134 0.0
H184 H 0.00877 0.30335 0.14232 0.0
H185 H 1.00173 0.33201 0.19863 0.0
H186 H 0.05364 0.34807 0.16017 0.0
H187 H 0.06052 0.3195 0.10442 0.0
H188 H 0.06173 0.26784 0.21403 0.0
H189 H 0.06698 0.24396 0.27866 0.0
H190 H 0.07382 0.19896 0.16159 0.0
H191 H 0.06933 0.22268 0.09733 0.0
H192 H 0.01027 0.25794 0.0155 0.0
H193 H 1.004 0.23264 0.95644 0.0
H194 H 0.05849 0.22158 0.90491 0.0
H195 H 0.06463 0.24642 0.96419 0.0
N196 N 0.03636 0.28222 0.0554 0.0
N197 N 0.05087 0.27866 0.12873 0.0
N198 N 0.0524 0.25305 0.07017 0.0
C199 C 0.041 0.28977 0.09939 0.0
C200 C 0.05655 0.26024 0.11456 0.0
C201 C 0.04246 0.26378 0.04034 0.0
C202 C 0.03507 0.3095 0.11836 0.0
C203 C 0.01837 0.31352 0.14428 0.0
C204 C 0.01446 0.32975 0.17707 0.0
C205 C 0.02717 0.34226 0.18426 0.0
C206 C 0.04348 0.3389 0.15519 0.0
C207 C 0.04742 0.32259 0.12301 0.0
C208 C 0.06452 0.24709 0.15072 0.0
C209 C 0.06493 0.25291 0.20187 0.0
C210 C 0.06785 0.2392 0.23903 0.0
C211 C 0.07033 0.21945 0.22571 0.0
C212 C 0.07197 0.21399 0.1736 0.0
C213 C 0.06918 0.22766 0.13653 0.0
C214 C 0.03792 0.25418 0.99412 0.0
C215 C 0.02077 0.25064 0.98986 0.0
C216 C 0.28914 0.02467 0.97874 0.0
C217 C 0.29741 0.00612 0.96694 0.0
C218 C 0.29019 0.99026 0.99111 0.0
C219 C 0.27596 0.99304 0.02923 0.0
H220 H 0.20598 0.02362 0.12844 0.0
H221 H 0.17713 0.02165 0.17594 0.0
H222 H 0.20023 0.98843 0.29182 0.0
H223 H 0.22868 0.9909 0.24552 0.0
H224 H 0.25757 0.02111 0.28745 0.0
H225 H 0.27866 0.02293 0.34798 0.0
H226 H 0.31748 0.03421 0.22332 0.0
H227 H 0.29649 0.03303 0.16351 0.0
H228 H 0.27016 0.04203 0.02926 0.0
H229 H 0.29443 0.03722 0.96131 0.0
H230 H 0.29618 0.97577 0.98268 0.0
H231 H 0.2717 0.98071 0.05037 0.0
N232 N 0.24352 0.01061 0.11233 0.0
N233 N 0.24741 0.01793 0.19766 0.0
N234 N 0.26981 0.02088 0.13215 0.0
C235 C 0.23716 0.01231 0.1632 0.0
C236 C 0.26369 0.02236 0.18246 0.0
C237 C 0.26 0.01508 0.09695 0.0
C238 C 0.21957 0.00751 0.18344 0.0
C239 C 0.20475 0.01549 0.16337 0.0
C240 C 0.18825 0.01442 0.19075 0.0
C241 C 0.18635 0.00529 0.2385 0.0
C242 C 0.20117 0.9961 0.25613 0.0
C243 C 0.21751 0.99732 0.22925 0.0
C244 C 0.2754 0.02659 0.22043 0.0
C245 C 0.27051 0.02441 0.27315 0.0
C246 C 0.28261 0.02535 0.30784 0.0
C247 C 0.2998 0.02851 0.29049 0.0
C248 C 0.30433 0.03196 0.23826 0.0
C249 C 0.29228 0.03107 0.20372 0.0
C250 C 0.26876 0.01172 0.04425 0.0
C251 C 0.2751 0.02744 0.01735 0.0
C252 C 0.47177 0.31386 0.37109 0.0
C253 C 0.48216 0.30641 0.40741 0.0
C254 C 0.48891 0.28705 0.40342 0.0
C255 C 0.48557 0.27536 0.36298 0.0
H256 H 0.44675 0.22442 0.28898 0.0
H257 H 0.4478 0.19242 0.32596 0.0
H258 H 0.49946 0.17934 0.24868 0.0
H259 H 0.4982 0.21151 0.21105 0.0
H260 H 0.49458 0.26289 0.10145 0.0
H261 H 0.49793 0.28529 0.02994 0.0
H262 H 0.45372 0.32161 0.1008 0.0
H263 H 0.45064 0.29954 0.17198 0.0
H264 H 0.46117 0.30858 0.30151 0.0
H265 H 0.46658 0.32884 0.37334 0.0
H266 H 0.49703 0.28111 0.43103 0.0
H267 H 0.49123 0.26057 0.36004 0.0
N268 N 0.47407 0.25202 0.28227 0.0
N269 N 0.47299 0.24957 0.19334 0.0
N270 N 0.47308 0.27989 0.23378 0.0
C271 C 0.47341 0.24106 0.23978 0.0
C272 C 0.47268 0.26918 0.19061 0.0
C273 C 0.47399 0.27139 0.27952 0.0
C274 C 0.4723 0.22026 0.24675 0.0
C275 C 0.45804 0.21438 0.27823 0.0
C276 C 0.45874 0.19617 0.29989 0.0
C277 C 0.47383 0.18348 0.29099 0.0
C278 C 0.48763 0.18877 0.25607 0.0
C279 C 0.48689 0.2071 0.23424 0.0
C280 C 0.47227 0.27946 0.14188 0.0
C281 C 0.48528 0.27534 0.10065 0.0
C282 C 0.4873 0.28825 0.06014 0.0
C283 C 0.47613 0.30526 0.05986 0.0
C284 C 0.46244 0.30859 0.09955 0.0
C285 C 0.46065 0.29594 0.14031 0.0
C286 C 0.47583 0.28306 0.32523 0.0
C287 C 0.46878 0.30233 0.32997 0.0
Dy288 Dy 0.99207 0.00949 0.64184 0.0
Dy289 Dy 0.02014 0.993 0.716 0.0
C290 C 0.03276 0.0063 0.60473 0.0
O291 O 0.98802 0.97827 0.65079 0.0
O292 O 0.01566 0.96864 0.66417 0.0
O293 O 0.98039 0.00636 0.57231 0.0
O294 O 0.97266 0.03129 0.62233 0.0
O295 O 0.99439 0.9868 0.75659 0.0
O296 O 0.9767 0.00902 0.71913 0.0
O297 O 0.01474 0.02406 0.73938 0.0
O298 O 1.00424 0.03544 0.66657 0.0
O299 O 0.02852 0.9881 0.79039 0.0
O300 O 0.04473 0.97711 0.72198 0.0
C301 C 1.00071 0.96466 0.65101 0.0
O302 O 0.01751 0.00295 0.59256 0.0
O303 O 0.03534 0.00761 0.65289 0.0
C304 C 0.97756 0.0368 0.53463 0.0
C305 C 0.9898 0.06588 0.47009 0.0
C306 C 1.00048 0.04906 0.47709 0.0
C307 C 0.99443 0.0347 0.50897 0.0
C308 C 0.96652 0.05305 0.52574 0.0
C309 C 0.97257 0.06749 0.49354 0.0
C310 C 0.97274 0.02384 0.57663 0.0
C311 C 0.97947 0.99708 0.75626 0.0
C312 C 0.01013 0.03841 0.71044 0.0
C313 C 0.04177 0.95677 0.79132 0.0
C314 C 0.04124 0.91883 0.82596 0.0
C315 C 0.02796 0.92706 0.79952 0.0
C316 C 0.02822 0.94584 0.78244 0.0
C317 C 0.05522 0.94866 0.81704 0.0
C318 C 0.05498 0.92971 0.83427 0.0
C319 C 0.04173 0.97632 0.77169 0.0
H320 H 0.01389 0.04743 0.46051 0.0
H321 H 1.00333 0.02246 0.51573 0.0
H322 H 0.95352 0.05502 0.54561 0.0
H323 H 0.96397 0.08019 0.48843 0.0
H324 H 0.0174 0.9189 0.79165 0.0
H325 H 0.01784 0.95184 0.76204 0.0
H326 H 0.06583 0.95693 0.82375 0.0
H327 H 0.06534 0.92367 0.85467 0.0
Dy328 Dy 0.50544 0.98062 0.65243 0.0
Dy329 Dy 0.51232 0.01227 0.73772 0.0
C330 C 0.50096 0.02557 0.63083 0.0
O331 O 0.53424 0.97807 0.64983 0.0
O332 O 0.53677 0.00806 0.68336 0.0
O333 O 0.51029 0.96778 0.57642 0.0
O334 O 0.4911 0.95712 0.63274 0.0
O335 O 0.5246 0.98426 0.76257 0.0
O336 O 0.50818 0.96427 0.72401 0.0
O337 O 0.48601 0.00297 0.76301 0.0
O338 O 0.47955 0.99544 0.68335 0.0
O339 O 0.51292 0.02137 0.81622 0.0
O340 O 0.51941 0.04066 0.75437 0.0
C341 C 0.54362 0.99227 0.65816 0.0
O342 O 0.50709 0.0085 0.61194 0.0
O343 O 0.49829 0.02883 0.68052 0.0
C344 C 0.48396 0.96074 0.54975 0.0
C345 C 0.45523 0.96829 0.49621 0.0
C346 C 0.46457 0.98341 0.51011 0.0
C347 C 0.47875 0.97968 0.53679 0.0
C348 C 0.47504 0.94552 0.5347 0.0
C349 C 0.46074 0.94926 0.50805 0.0
C350 C 0.49718 0.95743 0.58441 0.0
C351 C 0.51857 0.96742 0.75819 0.0
C352 C 0.47463 -0.00035 0.73199 0.0
C353 C 0.53723 0.03912 0.8203 0.0
C354 C 0.57218 0.03801 0.83679 0.0
C355 C 0.56121 0.02547 0.86285 0.0
C356 C 0.54392 0.026 0.8547 0.0
C357 C 0.54785 0.05268 0.79743 0.0
C358 C 0.56519 0.05209 0.80544 0.0
C359 C 0.5203 0.03692 0.8025 0.0
H360 H 0.46046 0.99826 0.50247 0.0
H361 H 0.48523 0.9917 0.54904 0.0
H362 H 0.47878 0.93086 0.54503 0.0
H363 H 0.45381 0.93734 0.49755 0.0
H364 H 0.56613 0.0148 0.88838 0.0
H365 H 0.53607 0.01549 0.87351 0.0
H366 H 0.54302 0.06306 0.77103 0.0
H367 H 0.5733 0.06198 0.78493 0.0
Dy368 Dy 0.52693 0.50786 0.7242 0.0
Dy369 Dy 0.48983 0.50338 0.67219 0.0
C370 C 0.50093 0.47592 0.76431 0.0
O371 O 0.52964 0.4793 0.68357 0.0
O372 O 0.51269 0.48932 0.62242 0.0
O373 O 0.5547 0.50565 0.72851 0.0
O374 O 0.53664 0.52121 0.78743 0.0
O375 O 0.50126 0.52943 0.63753 0.0
O376 O 0.52997 0.52285 0.6493 0.0
O377 O 0.48367 0.51591 0.75165 0.0
O378 O 0.50694 0.53263 0.73807 0.0
O379 O 0.46461 0.5155 0.65578 0.0
O380 O 0.47426 0.48632 0.63052 0.0
C381 C 0.52345 0.47626 0.64023 0.0
O382 O 0.51277 0.48724 0.77482 0.0
O383 O 0.49212 0.4785 0.72487 0.0
C384 C 0.56401 0.50976 0.81214 0.0
C385 C 0.58577 0.50549 0.89121 0.0
C386 C 0.56786 0.50407 0.90173 0.0
C387 C 0.55711 0.5062 0.86274 0.0
C388 C 0.5819 0.51069 0.80133 0.0
C389 C 0.59264 0.50857 0.84022 0.0
C390 C 0.55276 0.51534 0.77206 0.0
C391 C 0.51768 0.53272 0.62784 0.0
C392 C 0.49211 0.53021 0.76419 0.0
C393 C 0.45248 0.50212 0.58548 0.0
C394 C 0.43362 0.5036 0.49963 0.0
C395 C 0.45184 0.50265 0.49298 0.0
C396 C 0.46119 0.50192 0.5355 0.0
C397 C 0.4344 0.50325 0.59218 0.0
C398 C 0.42509 0.50395 0.54998 0.0
C399 C 0.46163 0.49993 0.63146 0.0
H400 H 0.56207 0.50152 0.94027 0.0
H401 H 0.54334 0.5056 0.87255 0.0
H402 H 0.58754 0.51381 0.76298 0.0
H403 H 0.60627 0.51013 0.83054 0.0
H404 H 0.4589 0.5025 0.45493 0.0
H405 H 0.47516 0.50093 0.52935 0.0
H406 H 0.42741 0.50318 0.63034 0.0
H407 H 0.41116 0.50426 0.55698 0.0
Dy408 Dy 0.01672 0.51718 0.66035 0.0
Dy409 Dy 1.00551 0.48152 0.73184 0.0
C410 C 0.02027 0.47352 0.61535 0.0
O411 O 0.9877 0.52045 0.67054 0.0
O412 O 0.9842 0.48865 0.68367 0.0
O413 O 0.01287 0.53604 0.59727 0.0
O414 O 0.03368 0.53968 0.64253 0.0
O415 O 0.99354 0.50845 0.7739 0.0
O416 O 0.01344 0.52843 0.74114 0.0
O417 O 0.03174 0.48775 0.75016 0.0
O418 O 0.04146 0.49996 0.67294 0.0
O419 O 1.00472 0.46726 0.80453 0.0
O420 O 0.99247 0.45555 0.74346 0.0
C421 C 0.97823 0.50581 0.67019 0.0
O422 O 0.01664 0.49193 0.607 0.0
O423 O 0.02036 0.46695 0.66201 0.0
C424 C 0.04018 0.54088 0.55372 0.0
C425 C 0.06899 0.52952 0.48154 0.0
C426 C 0.05439 0.51902 0.48613 0.0
C427 C 0.04014 0.52469 0.52158 0.0
C428 C 0.05417 0.5522 0.54704 0.0
C429 C 0.06845 0.54663 0.51095 0.0
C430 C 0.02744 0.54353 0.59966 0.0
C431 C 1.00159 0.52403 0.77773 0.0
C432 C 0.04447 0.49277 0.71727 0.0
C433 C 0.97629 0.45835 0.82499 0.0
C434 C 0.94255 0.47213 0.86617 0.0
C435 C 0.95682 0.47857 0.88651 0.0
C436 C 0.97353 0.47169 0.86635 0.0
C437 C 0.96197 0.45045 0.80831 0.0
C438 C 0.94519 0.4573 0.82877 0.0
C439 C 0.99321 0.45611 0.7927 0.0
H440 H 0.05432 0.50561 0.465 0.0
H441 H 0.02958 0.51561 0.52612 0.0
H442 H 0.05449 0.56468 0.57168 0.0
H443 H 0.07934 0.55526 0.50774 0.0
H444 H 0.95507 0.48973 0.91616 0.0
H445 H 0.98422 0.47797 0.88067 0.0
H446 H 0.9637 0.44009 0.77667 0.0
H447 H 0.93435 0.45204 0.81273 0.0
H448 H 0.1537 0.00181 0.21119 0.0
H449 H 0.12636 0.00244 0.26821 0.0
H450 H 0.15337 0.01187 0.39835 0.0
H451 H 0.18046 0.0114 0.34211 0.0
H452 H 0.1324 0.98435 0.41805 0.0
H453 H 0.12771 0.04808 0.34787 0.0
H454 H 0.1268 0.07181 0.27912 0.0
H455 H 0.08295 0.04751 0.22971 0.0
H456 H 0.08376 0.02345 0.29775 0.0
H457 H 0.06611 0.01277 0.61589 0.0
H458 H 0.09066 0.01302 0.54932 0.0
H459 H 0.05771 0.00273 0.4339 0.0
H460 H 0.03295 0.00266 0.50039 0.0
H461 H 0.0803 0.02872 0.40152 0.0
H462 H 0.08403 0.96605 0.47358 0.0
H463 H 0.08456 0.94246 0.54274 0.0
H464 H 0.13008 0.96444 0.58781 0.0
H465 H 0.12968 0.98836 0.51937 0.0
C466 C 0.15377 0.00418 0.25189 0.0
C467 C 0.16939 0.00629 0.27196 0.0
C468 C 0.13812 0.00454 0.28451 0.0
C469 C 0.13774 0.00719 0.33779 0.0
C470 C 0.15327 0.00961 0.35758 0.0
C471 C 0.16882 0.00924 0.32522 0.0
C472 C 0.1214 0.00702 0.37365 0.0
C473 C 0.12109 0.99421 0.4146 0.0
C474 C 0.10637 0.01942 0.36854 0.0
C475 C 0.10593 0.03381 0.32749 0.0
C476 C 0.11798 0.04768 0.32203 0.0
C477 C 0.11746 0.06122 0.28326 0.0
C478 C 0.10486 0.06113 0.24996 0.0
C479 C 0.09273 0.04754 0.25545 0.0
C480 C 0.09321 0.03395 0.29412 0.0
C481 C 0.064 0.01065 0.57638 0.0
C482 C 0.0475 0.00755 0.56372 0.0
C483 C 0.07812 0.01072 0.53826 0.0
C484 C 0.07616 0.00757 0.4865 0.0
C485 C 0.0596 0.00512 0.4735 0.0
C486 C 0.04544 0.00504 0.51168 0.0
C487 C 0.0915 0.00636 0.44644 0.0
C488 C 0.09159 0.01881 0.40471 0.0
C489 C 0.10636 0.99359 0.45065 0.0
C490 C 0.10673 0.97911 0.4916 0.0
C491 C 0.09408 0.96594 0.49846 0.0
C492 C 0.09437 0.9525 0.53751 0.0
C493 C 0.10732 0.95198 0.56972 0.0
C494 C 0.12004 0.96487 0.56286 0.0
C495 C 0.1198 0.97836 0.52391 0.0
H496 H 0.10752 0.94156 0.59993 0.0
H497 H 0.10447 0.07163 0.21999 0.0
H498 H 0.46551 0.18124 0.39402 0.0
H499 H 0.4698 0.15346 0.44829 0.0
H500 H 0.49131 0.11859 0.31566 0.0
H501 H 0.48703 0.14656 0.2606 0.0
H502 H 0.46606 0.10078 0.38955 0.0
H503 H 0.51835 0.13289 0.38369 0.0
H504 H 0.53491 0.16108 0.39072 0.0
H505 H 0.51312 0.16989 0.5479 0.0
H506 H 0.49622 0.14192 0.54157 0.0
H507 H 0.50284 0.02327 0.52635 0.0
H508 H 0.49761 0.04932 0.4673 0.0
H509 H 0.48528 0.08967 0.59472 0.0
H510 H 0.49068 0.06367 0.65422 0.0
H511 H 0.50622 0.10433 0.52077 0.0
H512 H 0.45374 0.07479 0.53083 0.0
H513 H 0.43483 0.04844 0.52869 0.0
H514 H 0.45403 0.03646 0.37068 0.0
H515 H 0.47329 0.06261 0.37203 0.0
C516 C 0.47092 0.16761 0.37614 0.0
C517 C 0.47582 0.16607 0.32288 0.0
C518 C 0.47347 0.15178 0.40732 0.0
C519 C 0.48092 0.134 0.38605 0.0
C520 C 0.48551 0.13221 0.33278 0.0
C521 C 0.48315 0.14818 0.30146 0.0
C522 C 0.48434 0.11759 0.42012 0.0
C523 C 0.47509 0.10134 0.4176 0.0
C524 C 0.49562 0.1187 0.45798 0.0
C525 C 0.50591 0.13541 0.46201 0.0
C526 C 0.51699 0.14093 0.41964 0.0
C527 C 0.52645 0.15685 0.42351 0.0
C528 C 0.52504 0.1673 0.46969 0.0
C529 C 0.51419 0.1618 0.51214 0.0
C530 C 0.50468 0.1459 0.50844 0.0
C531 C 0.49896 0.03766 0.54198 0.0
C532 C 0.49719 0.04135 0.59516 0.0
C533 C 0.4959 0.05255 0.50807 0.0
C534 C 0.49092 0.07146 0.5265 0.0
C535 C 0.48912 0.0752 0.57956 0.0
C536 C 0.49215 0.06029 0.61357 0.0
C537 C 0.48798 0.08738 0.49031 0.0
C538 C 0.4973 0.1036 0.49249 0.0
C539 C 0.47652 0.08637 0.45279 0.0
C540 C 0.46509 0.07054 0.45169 0.0
C541 C 0.45406 0.06642 0.49574 0.0
C542 C 0.44326 0.05156 0.49466 0.0
C543 C 0.44325 0.04079 0.44961 0.0
C544 C 0.45407 0.04483 0.40555 0.0
C545 C 0.46493 0.05968 0.40644 0.0
H546 H 0.43477 0.02941 0.44885 0.0
H547 H 0.53237 0.17962 0.47262 0.0
H548 H 0.3148 0.51227 0.19803 0.0
H549 H 0.33586 0.51653 0.25764 0.0
H550 H 0.37316 0.47718 0.16591 0.0
H551 H 0.3521 0.47277 0.1063 0.0
H552 H 0.37275 0.46816 0.26232 0.0
H553 H 0.3766 0.5272 0.17193 0.0
H554 H 0.36566 0.5578 0.13604 0.0
H555 H 0.34496 0.57892 0.28689 0.0
H556 H 0.35558 0.54834 0.32364 0.0
H557 H 0.44153 0.48388 0.40696 0.0
H558 H 0.42394 0.48301 0.33635 0.0
H559 H 0.38457 0.52217 0.42077 0.0
H560 H 0.4024 0.52386 0.49022 0.0
H561 H 0.38737 0.53141 0.32423 0.0
H562 H 0.38209 0.47178 0.41374 0.0
H563 H 0.39295 0.44118 0.44988 0.0
H564 H 0.41624 0.42121 0.30031 0.0
H565 H 0.40571 0.4518 0.26338 0.0
C566 C 0.3276 0.50483 0.18985 0.0
C567 C 0.33169 0.49218 0.14713 0.0
C568 C 0.33967 0.50725 0.22417 0.0
C569 C 0.35625 0.49728 0.21641 0.0
C570 C 0.36049 0.48499 0.17312 0.0
C571 C 0.3484 0.4825 0.13895 0.0
C572 C 0.36885 0.49894 0.25452 0.0
C573 C 0.37614 0.48201 0.27512 0.0
C574 C 0.37311 0.51697 0.27244 0.0
C575 C 0.36675 0.5354 0.25048 0.0
C576 C 0.3696 0.53832 0.19741 0.0
C577 C 0.36348 0.55567 0.17692 0.0
C578 C 0.35459 0.57028 0.20915 0.0
C579 C 0.35184 0.56758 0.26197 0.0
C580 C 0.35792 0.55025 0.28266 0.0
C581 C 0.42926 0.49258 0.41025 0.0
C582 C 0.4234 0.50381 0.45484 0.0
C583 C 0.41908 0.49188 0.36995 0.0
C584 C 0.40268 0.50223 0.37334 0.0
C585 C 0.39707 0.51393 0.41706 0.0
C586 C 0.40726 0.51472 0.45716 0.0
C587 C 0.39116 0.50064 0.33217 0.0
C588 C 0.38405 0.51756 0.31111 0.0
C589 C 0.38705 0.48261 0.31382 0.0
C590 C 0.39326 0.46415 0.3359 0.0
C591 C 0.38962 0.46091 0.38862 0.0
C592 C 0.39571 0.44356 0.40924 0.0
C593 C 0.40532 0.42928 0.37744 0.0
C594 C 0.40882 0.43229 0.32491 0.0
C595 C 0.40279 0.44963 0.30412 0.0
H596 H 0.41003 0.41587 0.39347 0.0
H597 H 0.34986 0.5837 0.19321 0.0
H598 H 0.03635 0.37944 0.18074 0.0
H599 H 0.03474 0.40259 0.2522 0.0
H600 H 0.01054 0.36204 0.35387 0.0
H601 H 0.01185 0.33904 0.28248 0.0
H602 H 0.99622 0.39677 0.37861 0.0
H603 H 0.05471 0.36826 0.34489 0.0
H604 H 0.08258 0.35897 0.29254 0.0
H605 H 0.08914 0.41853 0.26287 0.0
H606 H 0.06117 0.42816 0.31445 0.0
H607 H 0.01546 0.43507 0.61496 0.0
H608 H 0.01651 0.41349 0.54021 0.0
H609 H 0.03182 0.45933 0.44066 0.0
H610 H 0.0306 0.48101 0.51504 0.0
H611 H 0.05055 0.42283 0.41446 0.0
H612 H 0.99207 0.45103 0.45111 0.0
H613 H 0.96477 0.45985 0.50673 0.0
H614 H 0.95872 0.40001 0.53363 0.0
H615 H 0.98617 0.39084 0.47891 0.0
C616 C 0.03054 0.37554 0.21824 0.0
C617 C 0.02427 0.35735 0.22585 0.0
C618 C 0.02969 0.38876 0.25917 0.0
C619 C 0.02285 0.38396 0.30886 0.0
C620 C 0.01592 0.36613 0.31605 0.0
C621 C 0.01661 0.35299 0.27506 0.0
C622 C 0.02343 0.39715 0.35364 0.0
C623 C 0.00816 0.40226 0.38664 0.0
C624 C 0.03892 0.40467 0.36401 0.0
C625 C 0.05576 0.39892 0.33307 0.0
C626 C 0.06203 0.37937 0.32688 0.0
C627 C 0.07785 0.37404 0.29738 0.0
C628 C 0.0876 0.38815 0.27427 0.0
C629 C 0.08156 0.40762 0.28071 0.0
C630 C 0.06573 0.41302 0.31008 0.0
C631 C 0.01929 0.44048 0.57723 0.0
C632 C 0.02287 0.4598 0.57095 0.0
C633 C 0.01978 0.42817 0.53453 0.0
C634 C 0.02408 0.43486 0.48482 0.0
C635 C 0.02842 0.45387 0.47862 0.0
C636 C 0.02766 0.46627 0.5212 0.0
C637 C 0.02341 0.42227 0.43922 0.0
C638 C 0.03864 0.41731 0.40619 0.0
C639 C 0.00793 0.4148 0.42903 0.0
C640 C 0.99128 0.42025 0.46133 0.0
C641 C 0.985 0.43975 0.46922 0.0
C642 C 0.96948 0.44482 0.50054 0.0
C643 C 0.96004 0.4305 0.5238 0.0
C644 C 0.96606 0.41108 0.51565 0.0
C645 C 0.9816 0.40594 0.48447 0.0
H646 H 0.94803 0.43445 0.54805 0.0
H647 H 0.09985 0.384 0.25147 0.0
H648 H 0.84174 0.96467 0.04175 0.0
H649 H 0.86819 0.96698 0.98413 0.0
H650 H 0.88758 0.00203 0.09631 0.0
H651 H 0.86102 -0.00036 0.15486 0.0
H652 H 0.89341 0.01709 0.00399 0.0
H653 H 0.904 0.95504 0.07295 0.0
H654 H 0.89791 0.92215 0.09847 0.0
H655 H 0.89483 0.90658 0.94172 0.0
H656 H 0.90066 0.93948 0.91532 0.0
H657 H 0.98057 0.97564 0.84313 0.0
H658 H 0.95745 0.973 0.9134 0.0
H659 H 0.92306 0.01084 0.83539 0.0
H660 H 0.94616 0.01389 0.76566 0.0
H661 H 0.92738 0.95931 0.92022 0.0
H662 H 0.89432 0.0374 0.91973 0.0
H663 H 0.9024 0.07023 0.9007 0.0
H664 H 0.95405 0.05366 0.93282 0.0
H665 H 0.94623 0.02083 0.95273 0.0
C666 C 0.85172 0.97257 0.05488 0.0
C667 C 0.84923 0.98176 0.10352 0.0
C668 C 0.86688 0.97394 0.02159 0.0
C669 C 0.88006 0.98447 0.03592 0.0
C670 C 0.87764 0.99379 0.08428 0.0
C671 C 0.86241 0.99242 0.11775 0.0
C672 C 0.89609 0.98607 -0.00034 0.0
C673 C 0.90085 0.00445 0.98581 0.0
C674 C 0.90612 0.96961 0.97658 0.0
C675 C 0.90263 0.94978 0.99222 0.0
C676 C 0.90189 0.94465 0.04396 0.0
C677 C 0.89851 0.92599 0.05858 0.0
C678 C 0.89595 0.9123 0.02175 0.0
C679 C 0.8968 0.91721 0.97021 0.0
C680 C 0.90016 0.93586 0.95539 0.0
C681 C 0.9681 0.98344 0.8409 0.0
C682 C 0.96531 0.99506 0.79865 0.0
C683 C 0.95485 0.98189 0.88117 0.0
C684 C 0.9385 0.99192 0.88029 0.0
C685 C 0.93562 0.00326 0.83772 0.0
C686 C 0.94887 0.0049 0.79759 0.0
C687 C 0.9244 0.99035 0.92338 0.0
C688 C 0.91999 0.97197 0.93851 0.0
C689 C 0.91495 0.0068 0.94847 0.0
C690 C 0.91971 0.0266 0.93727 0.0
C691 C 0.90738 0.04079 0.92296 0.0
C692 C 0.91192 0.05939 0.91198 0.0
C693 C 0.92874 0.06401 0.9154 0.0
C694 C 0.94105 0.05005 0.93 0.0
C695 C 0.93657 0.03143 0.94108 0.0
H696 H 0.93223 0.07842 0.90683 0.0
H697 H 0.89333 0.89786 0.03315 0.0
H698 H 0.56972 0.83608 0.07446 0.0
H699 H 0.56471 0.86595 0.02762 0.0
H700 H 0.53028 0.83837 0.94018 0.0
H701 H 0.53516 0.80868 0.98669 0.0
H702 H 0.55332 0.85645 0.87862 0.0
H703 H 0.51539 0.87196 0.03619 0.0
H704 H 0.50864 0.87662 0.12977 0.0
H705 H 0.54448 0.91986 0.12753 0.0
H706 H 0.5516 0.91527 0.03397 0.0
H707 H 0.50815 0.93101 0.76052 0.0
H708 H 0.51644 0.90465 0.8152 0.0
H709 H 0.54873 0.94094 0.88727 0.0
H710 H 0.54028 0.96767 0.83289 0.0
H711 H 0.53049 0.92 0.95765 0.0
H712 H 0.56715 0.90673 0.80134 0.0
H713 H 0.57467 0.90254 0.7079 0.0
H714 H 0.54281 0.8555 0.70771 0.0
H715 H 0.53492 0.85956 0.80111 0.0
C716 C 0.56089 0.8365 0.04578 0.0
C717 C 0.55295 0.81994 0.03404 0.0
C718 C 0.55806 0.85357 0.01895 0.0
C719 C 0.54713 0.85442 0.98025 0.0
C720 C 0.53889 0.83804 0.96949 0.0
C721 C 0.54172 0.82104 -0.0039 0.0
C722 C 0.54456 0.87204 0.94948 0.0
C723 C 0.54818 0.8703 0.89594 0.0
C724 C 0.5385 0.89032 0.97204 0.0
C725 C 0.53417 0.89311 0.0282 0.0
C726 C 0.52193 0.88235 0.05572 0.0
C727 C 0.51802 0.885 0.10874 0.0
C728 C 0.52617 0.89848 0.1346 0.0
C729 C 0.5382 0.90939 0.10747 0.0
C730 C 0.54217 0.90678 0.05445 0.0
C731 C 0.51703 0.93347 0.78791 0.0
C732 C 0.52362 0.95148 0.792 0.0
C733 C 0.52181 0.91831 0.8191 0.0
C734 C 0.53341 0.9207 0.85489 0.0
C735 C 0.53981 0.93874 0.85982 0.0
C736 C 0.535 0.95398 0.82856 0.0
C737 C 0.53876 0.90422 0.8868 0.0
C738 C 0.53576 0.90619 0.94041 0.0
C739 C 0.54555 0.88615 0.86439 0.0
C740 C 0.55035 0.88355 0.80821 0.0
C741 C 0.56166 0.89557 0.78134 0.0
C742 C 0.566 0.89321 0.72838 0.0
C743 C 0.55919 0.87879 0.70187 0.0
C744 C 0.54807 0.86667 0.7283 0.0
C745 C 0.54368 0.86898 0.78126 0.0
H746 H 0.56257 0.87698 0.66087 0.0
H747 H 0.52312 0.90052 0.17565 0.0
H748 H 0.671 0.52762 0.28111 0.0
H749 H 0.64995 0.5247 0.22059 0.0
H750 H 0.68932 0.49407 0.11358 0.0
H751 H 0.71054 0.49748 0.17304 0.0
H752 H 0.67168 0.5212 0.06565 0.0
H753 H 0.65634 0.47115 0.18319 0.0
H754 H 0.64781 0.45775 0.26794 0.0
H755 H 0.60183 0.49691 0.28717 0.0
H756 H 0.6102 0.5107 0.20276 0.0
H757 H 0.61913 0.48883 0.8883 0.0
H758 H 0.63838 0.48963 0.95451 0.0
H759 H 0.5978 0.52094 0.05603 0.0
H760 H 0.57846 0.52038 0.98978 0.0
H761 H 0.61536 0.49413 0.10807 0.0
H762 H 0.62979 0.5441 0.99272 0.0
H763 H 0.63764 0.55836 0.90872 0.0
H764 H 0.68475 0.52106 0.88691 0.0
H765 H 0.67703 0.5063 0.97046 0.0
C766 C 0.6752 0.52019 0.2448 0.0
C767 C 0.69256 0.51275 0.23233 0.0
C768 C 0.66307 0.5184 0.21025 0.0
C769 C 0.66793 0.50904 0.16237 0.0
C770 C 0.68517 0.50133 0.15018 0.0
C771 C 0.69729 0.5031 0.18466 0.0
C772 C 0.65531 0.50788 0.12416 0.0
C773 C 0.65949 0.51499 0.07481 0.0
C774 C 0.63907 0.50042 0.13626 0.0
C775 C 0.63398 0.49207 0.18687 0.0
C776 C 0.64448 0.47699 0.20565 0.0
C777 C 0.63965 0.46931 0.2536 0.0
C778 C 0.62431 0.4765 0.28298 0.0
C779 C 0.61372 0.49136 0.2644 0.0
C780 C 0.61849 0.4991 0.21649 0.0
C781 C 0.61425 0.49596 0.92459 0.0
C782 C 0.59718 0.50466 0.93323 0.0
C783 C 0.62531 0.49637 0.96259 0.0
C784 C 0.61968 0.50559 0.01025 0.0
C785 C 0.6025 0.51372 0.01971 0.0
C786 C 0.5914 0.5133 0.9817 0.0
C787 C 0.63188 0.50718 0.04945 0.0
C788 C 0.62759 0.50026 0.09894 0.0
C789 C 0.64796 0.51499 0.0377 0.0
C790 C 0.65275 0.52396 0.98766 0.0
C791 C 0.64177 0.53883 0.96986 0.0
C792 C 0.6462 0.54702 0.92234 0.0
C793 C 0.66167 0.54059 0.89245 0.0
C794 C 0.67276 0.526 0.91009 0.0
C795 C 0.66836 0.51772 0.95754 0.0
H796 H 0.66508 0.54695 0.85566 0.0
H797 H 0.6206 0.47054 0.32009 0.0
H798 H 0.96574 0.61698 0.21924 0.0
H799 H 0.96659 0.59466 0.14592 0.0
H800 H 0.01123 0.6196 0.07146 0.0
H801 H 0.01032 0.64201 0.14361 0.0
H802 H 0.98607 0.61775 0.00873 0.0
H803 H 0.01509 0.5753 0.12168 0.0
H804 H 0.01781 0.55789 0.20186 0.0
H805 H 0.973 0.52875 0.18155 0.0
H806 H 0.96989 0.54619 0.10154 0.0
H807 H 0.01809 0.55515 0.80218 0.0
H808 H 0.01353 0.57435 0.88125 0.0
H809 H 0.97251 0.54027 0.94032 0.0
H810 H 0.97732 0.52053 0.86129 0.0
H811 H 0.99228 0.54632 0.01296 0.0
H812 H 0.9639 0.58674 0.89837 0.0
H813 H 0.96046 0.60406 0.81846 0.0
H814 H 1.00246 0.6373 0.84254 0.0
H815 H 1.00632 0.61999 0.92225 0.0
C816 C 0.97584 0.61756 0.18748 0.0
C817 C 0.98802 0.63125 0.18765 0.0
C818 C 0.97635 0.60474 0.14566 0.0
C819 C 0.98899 0.60544 0.10311 0.0
C820 C 1.00136 0.61877 0.10379 0.0
C821 C 1.00093 0.63145 0.14551 0.0
C822 C 0.98896 0.59307 0.05656 0.0
C823 C 0.9876 0.60213 0.0096 0.0
C824 C 0.99028 0.57269 0.05788 0.0
C825 C 0.99214 0.56222 0.10597 0.0
C826 C 1.00572 0.56531 0.13457 0.0
C827 C 0.00736 0.55541 0.17992 0.0
C828 C 0.99555 0.54227 0.19688 0.0
C829 C 0.98212 0.53896 0.16843 0.0
C830 C 0.98042 0.54884 0.12306 0.0
C831 C 0.00798 0.55177 0.83169 0.0
C832 C 0.99799 0.53634 0.82503 0.0
C833 C 1.00535 0.56285 0.87701 0.0
C834 C 0.99249 0.55902 0.91667 0.0
C835 C 0.98248 0.54359 0.91029 0.0
C836 C 0.98519 0.53237 0.86493 0.0
C837 C 0.98981 0.57101 0.96483 0.0
C838 C 0.9906 0.56193 0.01209 0.0
C839 C 0.9878 0.59142 0.96394 0.0
C840 C 0.98547 0.60196 0.91613 0.0
C841 C 0.97248 0.59765 0.88646 0.0
C842 C 0.97044 0.60748 0.84122 0.0
C843 C 0.98125 0.62174 0.82538 0.0
C844 C 0.9941 0.62624 0.85483 0.0
C845 C 0.9962 0.61644 0.90009 0.0
H846 H 0.97966 0.62933 0.79034 0.0
H847 H 0.99684 0.53461 0.232 0.0
H848 H 0.04756 0.22193 0.31346 0.0
H849 H 0.0375 0.1952 0.36377 0.0
H850 H 0.07603 0.156 0.27629 0.0
H851 H 0.08684 0.18288 0.22688 0.0
H852 H 0.0407 0.14959 0.26906 0.0
H853 H 0.07805 0.15924 0.39699 0.0
H854 H 0.091 0.17796 0.45997 0.0
H855 H 0.04102 0.19153 0.54544 0.0
H856 H 0.02772 0.17312 0.48254 0.0
H857 H 0.01317 0.06462 0.38351 0.0
H858 H 0.02907 0.09085 0.34781 0.0
H859 H 0.99912 0.13067 0.45804 0.0
H860 H 0.98391 0.10424 0.49614 0.0
H861 H 0.03153 0.13631 0.45472 0.0
H862 H 0.99334 0.13041 0.3288 0.0
H863 H 0.97835 0.11406 0.26599 0.0
H864 H 0.02697 0.09662 0.17672 0.0
H865 H 0.04227 0.11266 0.2394 0.0
C866 C 0.05453 0.20784 0.30633 0.0
C867 C 0.06785 0.20455 0.26533 0.0
C868 C 0.04864 0.19252 0.33508 0.0
C869 C 0.0559 0.17366 0.32322 0.0
C870 C 0.07021 0.1705 0.28565 0.0
C871 C 0.0763 0.18586 0.25734 0.0
C872 C 0.04677 0.15726 0.34388 0.0
C873 C 0.03898 0.14637 0.30954 0.0
C874 C 0.0439 0.15382 0.39688 0.0
C875 C 0.05187 0.16493 0.43474 0.0
C876 C 0.06979 0.16637 0.42893 0.0
C877 C 0.0772 0.17689 0.46469 0.0
C878 C 0.06683 0.18597 0.50661 0.0
C879 C 0.04904 0.1845 0.51292 0.0
C880 C 0.04156 0.17401 0.47725 0.0
C881 C 0.00992 0.07896 0.40011 0.0
C882 C 0.99731 0.08229 0.44285 0.0
C883 C 0.01892 0.094 0.37933 0.0
C884 C 0.01523 0.11276 0.40008 0.0
C885 C 1.00221 0.11629 0.4415 0.0
C886 C 0.99334 0.1012 0.46275 0.0
C887 C 0.02546 0.12851 0.37982 0.0
C888 C 0.03335 0.13937 0.41418 0.0
C889 C 0.02811 0.13228 0.32685 0.0
C890 C 0.01896 0.12257 0.28909 0.0
C891 C 1.00085 0.12295 0.29601 0.0
C892 C 0.99229 0.11376 0.26038 0.0
C893 C 1.00171 0.10426 0.21747 0.0
C894 C 0.01969 0.10396 0.21003 0.0
C895 C 0.02831 0.11311 0.24556 0.0
H896 H 0.99506 0.09716 0.18992 0.0
H897 H 0.0726 0.1941 0.53427 0.0
H898 H 0.30318 0.00141 0.36399 0.0
H899 H 0.3286 0.99293 0.40712 0.0
H900 H 0.35337 0.04029 0.33556 0.0
H901 H 0.32774 0.04937 0.29361 0.0
H902 H 0.37127 0.00327 0.31403 0.0
H903 H 0.34397 0.0422 0.45811 0.0
H904 H 0.32068 0.05298 0.52665 0.0
H905 H 0.32415 0.99675 0.59201 0.0
H906 H 0.34729 0.98552 0.52335 0.0
H907 H 0.44968 0.99382 0.42065 0.0
H908 H 0.42222 0.0044 0.39057 0.0
H909 H 0.39691 0.9633 0.48805 0.0
H910 H 0.42432 0.95321 0.51989 0.0
H911 H 0.37868 0.99674 0.4978 0.0
H912 H 0.40454 0.95688 0.35569 0.0
H913 H 0.42725 0.94451 0.28708 0.0
H914 H 0.42555 1e-05 0.21739 0.0
H915 H 0.40299 0.01279 0.286 0.0
C916 C 0.31374 0.0105 0.35889 0.0
C917 C 0.31351 0.02594 0.3248 0.0
C918 C 0.3283 0.00555 0.3834 0.0
C919 C 0.34285 0.01591 0.3741 0.0
C920 C 0.34226 0.03207 0.34287 0.0
C921 C 0.32765 0.03717 0.31879 0.0
C922 C 0.35933 0.00847 0.39165 0.0
C923 C 0.37302 0.00212 0.35421 0.0
C924 C 0.36123 0.00625 0.44402 0.0
C925 C 0.34724 0.01295 0.48517 0.0
C926 C 0.33964 0.03206 0.48674 0.0
C927 C 0.32649 0.03827 0.52571 0.0
C928 C 0.3209 0.02554 0.56357 0.0
C929 C 0.32847 0.00659 0.5626 0.0
C930 C 0.34161 0.00029 0.52367 0.0
C931 C 0.43828 0.98697 0.43548 0.0
C932 C 0.43912 0.97276 0.4728 0.0
C933 C 0.42261 0.99292 0.41796 0.0
C934 C 0.40752 0.98455 0.43679 0.0
C935 C 0.4084 0.96996 0.47301 0.0
C936 C 0.42409 0.96406 0.49076 0.0
C937 C 0.39074 0.99166 0.42011 0.0
C938 C 0.37696 0.99787 0.4576 0.0
C939 C 0.38862 0.99348 0.36768 0.0
C940 C 0.40217 0.98584 0.32625 0.0
C941 C 0.4091 0.96649 0.32595 0.0
C942 C 0.42193 0.9594 0.28702 0.0
C943 C 0.42787 0.97148 0.24797 0.0
C944 C 0.42095 0.99067 0.2477 0.0
C945 C 0.40813 0.99784 0.28656 0.0
H946 H 0.4378 0.96596 0.21786 0.0
H947 H 0.31073 0.03039 0.59373 0.0
H948 H 0.51445 0.31506 0.41883 0.0
H949 H 0.52249 0.34089 0.47205 0.0
H950 H 0.46919 0.3526 0.53731 0.0
H951 H 0.46108 0.32746 0.48146 0.0
H952 H 0.47949 0.38363 0.51017 0.0
H953 H 0.50305 0.33492 0.60988 0.0
H954 H 0.51962 0.30484 0.63051 0.0
H955 H 0.56671 0.32684 0.56531 0.0
H956 H 0.55041 0.35698 0.54365 0.0
H957 H 0.5271 0.44279 0.69195 0.0
H958 H 0.52084 0.41102 0.66313 0.0
H959 H 0.51534 0.43323 0.51282 0.0
H960 H 0.52078 0.46525 0.54224 0.0
H961 H 0.53205 0.38415 0.59775 0.0
H962 H 0.48318 0.41664 0.46345 0.0
H963 H 0.46172 0.44467 0.46031 0.0
H964 H 0.45834 0.45237 0.62344 0.0
H965 H 0.47985 0.42449 0.62755 0.0
C966 C 0.50456 0.32291 0.44546 0.0
C967 C 0.48718 0.31943 0.44627 0.0
C968 C 0.50916 0.33759 0.47615 0.0
C969 C 0.49648 0.34868 0.50913 0.0
C970 C 0.4792 0.34434 0.51204 0.0
C971 C 0.47456 0.32998 0.48039 0.0
C972 C 0.50093 0.36622 0.53534 0.0
C973 C 0.49092 0.38362 0.52965 0.0
C974 C 0.51556 0.3663 0.56213 0.0
C975 C 0.52547 0.34817 0.57478 0.0
C976 C 0.51693 0.33329 0.59954 0.0
C977 C 0.52627 0.31624 0.61151 0.0
C978 C 0.5442 0.31392 0.59913 0.0
C979 C 0.55282 0.32866 0.57485 0.0
C980 C 0.54353 0.34575 0.56279 0.0
C981 C 0.52502 0.44077 0.65235 0.0
C982 C 0.52434 0.45648 0.61929 0.0
C983 C 0.52134 0.42261 0.63602 0.0
C984 C 0.51714 0.41987 0.58625 0.0
C985 C 0.51802 0.43516 0.55189 0.0
C986 C 0.52133 0.45339 0.56848 0.0
C987 C 0.51088 0.40144 0.57095 0.0
C988 C 0.52055 0.38398 0.57864 0.0
C989 C 0.49541 0.40112 0.5483 0.0
C990 C 0.48322 0.41856 0.54571 0.0
C991 C 0.47792 0.42439 0.4986 0.0
C992 C 0.46578 0.44026 0.49665 0.0
C993 C 0.45871 0.4503 0.54163 0.0
C994 C 0.46392 0.44465 0.58859 0.0
C995 C 0.47615 0.42887 0.59073 0.0
H996 H 0.44909 0.46236 0.54012 0.0
H997 H 0.55141 0.3007 0.60843 0.0
H998 H 0.2171 0.45629 0.28774 0.0
H999 H 0.19201 0.46818 0.34665 0.0
H1000 H 0.16087 0.43027 0.27574 0.0
H1001 H 0.1862 0.4174 0.21791 0.0
H1002 H 0.15338 0.47221 0.26503 0.0
H1003 H 0.16215 0.42453 0.39276 0.0
H1004 H 0.17868 0.40603 0.45285 0.0
H1005 H 0.18494 0.45834 0.53351 0.0
H1006 H 0.1687 0.4772 0.4734 0.0
H1007 H 0.07261 0.50897 0.39065 0.0
H1008 H 0.09832 0.49 0.35066 0.0
H1009 H 0.12824 0.5131 0.46039 0.0
H1010 H 0.10218 0.53067 0.50376 0.0
H1011 H 0.13654 0.47738 0.45282 0.0
H1012 H 0.13139 0.52577 0.32785 0.0
H1013 H 0.11736 0.54686 0.2674 0.0
H1014 H 0.10771 0.49728 0.18064 0.0
H1015 H 0.12148 0.47587 0.24099 0.0
C1016 C 0.20521 0.44963 0.28616 0.0
C1017 C 0.20362 0.43616 0.24706 0.0
C1018 C 0.19081 0.45659 0.31988 0.0
C1019 C 0.17462 0.45028 0.31488 0.0
C1020 C 0.17331 0.43537 0.27978 0.0
C1021 C 0.18778 0.42814 0.2466 0.0
C1022 C 0.15891 0.46181 0.33858 0.0
C1023 C 0.14942 0.47309 0.30605 0.0
C1024 C 0.1545 0.46364 0.39212 0.0
C1025 C 0.16434 0.4523 0.42818 0.0
C1026 C 0.16721 0.43212 0.42294 0.0
C1027 C 0.1765 0.42156 0.45711 0.0
C1028 C 0.1829 0.43101 0.49689 0.0
C1029 C 0.18 0.45104 0.50264 0.0
C1030 C 0.17074 0.46167 0.46855 0.0
C1031 C 0.08464 0.51004 0.40642 0.0
C1032 C 0.08522 0.52124 0.45087 0.0
C1033 C 0.09944 0.49936 0.38297 0.0
C1034 C 0.11532 0.5002 0.40214 0.0
C1035 C 0.11614 0.51215 0.44491 0.0
C1036 C 0.10123 0.52247 0.46921 0.0
C1037 C 0.13081 0.48783 0.37923 0.0
C1038 C 0.14036 0.47649 0.41177 0.0
C1039 C 0.13567 0.48637 0.32561 0.0
C1040 C 0.12733 0.49921 0.28926 0.0
C1041 C 0.12616 0.51936 0.29612 0.0
C1042 C 0.11827 0.53137 0.26183 0.0
C1043 C 0.11161 0.52341 0.22029 0.0
C1044 C 0.11286 0.50342 0.21288 0.0
C1045 C 0.12072 0.49134 0.24709 0.0
H1046 H 0.10551 0.53274 0.19377 0.0
H1047 H 0.19007 0.4228 0.52332 0.0
H1048 H 0.02819 0.75111 0.02944 0.0
H1049 H 0.04005 0.77144 0.96094 0.0
H1050 H 0.99216 0.80801 0.97733 0.0
H1051 H 0.98013 0.78752 0.04467 0.0
H1052 H 0.00723 0.80586 0.87821 0.0
H1053 H 0.02386 0.81643 0.04949 0.0
H1054 H 0.03751 0.80589 0.12547 0.0
H1055 H 0.08578 0.79182 0.03099 0.0
H1056 H 0.07231 0.80207 0.95432 0.0
H1057 H 0.01332 0.9037 0.87569 0.0
H1058 H 0.01074 0.87037 0.90024 0.0
H1059 H 0.06448 0.85574 0.84453 0.0
H1060 H 0.06714 0.88934 0.81917 0.0
H1061 H 0.05376 0.84029 0.94037 0.0
H1062 H 0.03604 0.8435 0.77504 0.0
H1063 H 0.02036 0.85855 0.70813 0.0
H1064 H 0.97201 0.84842 0.79438 0.0
H1065 H 0.98734 0.8344 0.86353 0.0
C1066 C 0.02001 0.76311 0.01714 0.0
C1067 C 1.00335 0.76799 0.04283 0.0
C1068 C 0.02682 0.77472 0.97819 0.0
C1069 C 0.01707 0.79137 0.96476 0.0
C1070 C 0.99991 0.79524 0.98723 0.0
C1071 C 0.99311 0.78366 0.02603 0.0
C1072 C 0.02521 0.80641 0.93371 0.0
C1073 C 0.01751 0.81333 0.89127 0.0
C1074 C 0.03894 0.81578 0.95021 0.0
C1075 C 0.04705 0.80975 -0.00379 0.0
C1076 C 0.03735 0.81097 0.04493 0.0
C1077 C 0.04505 0.80506 0.0881 0.0
C1078 C 0.06249 0.79813 0.08304 0.0
C1079 C 0.07227 0.79714 0.03482 0.0
C1080 C 0.06461 0.80299 0.99151 0.0
C1081 C 0.02459 0.89339 0.86845 0.0
C1082 C 0.04037 0.89901 0.84489 0.0
C1083 C 0.02309 0.87438 0.88244 0.0
C1084 C 0.03732 0.86057 0.87297 0.0
C1085 C 0.05333 0.86622 0.85152 0.0
C1086 C 0.05484 0.88536 0.83738 0.0
C1087 C 0.03514 0.84036 0.88653 0.0
C1088 C 0.04399 0.83244 0.92565 0.0
C1089 C 0.02224 0.8303 0.86743 0.0
C1090 C 0.01291 0.83793 0.82479 0.0
C1091 C 0.02206 0.84461 0.78007 0.0
C1092 C 0.01321 0.85304 0.74175 0.0
C1093 C 0.99518 0.85438 0.74685 0.0
C1094 C 0.98597 0.84736 0.79045 0.0
C1095 C 0.99475 0.83925 0.82939 0.0
H1096 H 0.98835 0.86084 0.71705 0.0
H1097 H 0.06843 0.79357 0.1165 0.0
H1098 H 0.7255 0.02474 0.97053 0.0
H1099 H 0.70407 0.03522 0.91369 0.0
H1100 H 0.68364 0.97977 0.92622 0.0
H1101 H 0.70497 0.96926 0.98332 0.0
H1102 H 0.68234 -0.00139 0.82577 0.0
H1103 H 0.66739 0.00993 0.01102 0.0
H1104 H 0.6731 0.02293 0.09424 0.0
H1105 H 0.67341 0.07976 0.03256 0.0
H1106 H 0.66801 0.06698 0.94862 0.0
H1107 H 0.59278 0.00431 0.83405 0.0
H1108 H 0.62339 -0.00019 0.84342 0.0
H1109 H 0.62513 0.06148 0.85305 0.0
H1110 H 0.59415 0.06608 0.84577 0.0
H1111 H 0.63938 0.04501 0.92773 0.0
H1112 H 0.64657 0.03493 0.74864 0.0
H1113 H 0.64112 0.02219 0.66485 0.0
H1114 H 0.65537 0.96458 0.71052 0.0
H1115 H 0.66074 0.9769 0.79484 0.0
C1116 C 0.71684 0.01457 0.95964 0.0
C1117 C 0.71669 0.99629 0.98164 0.0
C1118 C 0.70464 0.02057 0.92719 0.0
C1119 C 0.69226 0.00829 0.91613 0.0
C1120 C 0.69316 0.9894 0.93417 0.0
C1121 C 0.70521 0.98348 0.96708 0.0
C1122 C 0.67657 0.01608 0.89467 0.0
C1123 C 0.67291 0.0088 0.8477 0.0
C1124 C 0.66458 0.02976 0.92289 0.0
C1125 C 0.66753 0.03748 0.97348 0.0
C1126 C 0.66882 0.02517 0.01513 0.0
C1127 C 0.67198 0.03249 0.06241 0.0
C1128 C 0.67366 0.05215 0.06865 0.0
C1129 C 0.67214 0.06453 0.02763 0.0
C1130 C 0.66904 0.05725 0.9802 0.0
C1131 C 0.59964 0.01694 0.83837 0.0
C1132 C 0.591 0.03555 0.83996 0.0
C1133 C 0.61723 0.01435 0.84274 0.0
C1134 C 0.62663 0.03032 0.84812 0.0
C1135 C 0.61814 0.04897 0.84852 0.0
C1136 C 0.60047 0.05157 0.8443 0.0
C1137 C 0.64478 0.02727 0.85896 0.0
C1138 C 0.64892 0.03533 0.90447 0.0
C1139 C 0.65719 0.01444 0.82901 0.0
C1140 C 0.65402 0.00686 0.77826 0.0
C1141 C 0.64845 0.01952 0.74099 0.0
C1142 C 0.64539 0.01239 0.69336 0.0
C1143 C 0.64792 0.99261 0.68242 0.0
C1144 C 0.65347 0.97991 0.71907 0.0
C1145 C 0.65656 0.98697 0.76675 0.0
H1146 H 0.64562 0.98713 0.64551 0.0
H1147 H 0.6761 0.0578 0.10529 0.0
H1148 H 0.57586 0.62257 0.03361 0.0
H1149 H 0.56001 0.59635 0.00682 0.0
H1150 H 0.52565 0.63744 0.93808 0.0
H1151 H 0.54056 0.66371 0.96764 0.0
H1152 H 0.50758 0.61421 0.99372 0.0
H1153 H 0.55827 0.60622 0.8679 0.0
H1154 H 0.5894 0.60084 0.83776 0.0
H1155 H 0.59218 0.54682 0.91447 0.0
H1156 H 0.56102 0.55185 0.94535 0.0
H1157 H 0.48022 0.5672 0.78543 0.0
H1158 H 0.48884 0.58592 0.85534 0.0
H1159 H 0.50815 0.53343 0.92294 0.0
H1160 H 0.49904 0.51467 0.85346 0.0
H1161 H 0.53343 0.55708 0.88853 0.0
H1162 H 0.48027 0.56328 -0.00322 0.0
H1163 H 0.44877 0.56917 0.01956 0.0
H1164 H 0.4503 0.62737 0.96826 0.0
H1165 H 0.48178 0.62177 0.94444 0.0
C1166 C 0.56494 0.62604 0.01274 0.0
C1167 C 0.55947 0.64534 0.00312 0.0
C1168 C 0.55597 0.61099 -0.00292 0.0
C1169 C 0.54159 0.61492 0.97058 0.0
C1170 C 0.53662 0.63406 0.95886 0.0
C1171 C 0.54539 0.64909 0.97509 0.0
C1172 C 0.5312 0.59937 0.95636 0.0
C1173 C 0.51322 0.60175 0.97047 0.0
C1174 C 0.53863 0.58267 0.92801 0.0
C1175 C 0.55737 0.57959 0.90969 0.0
C1176 C 0.56554 0.59327 0.87876 0.0
C1177 C 0.58317 0.59023 0.86139 0.0
C1178 C 0.59276 0.5735 0.87436 0.0
C1179 C 0.58471 0.55973 0.90454 0.0
C1180 C 0.56706 0.56267 0.92196 0.0
C1181 C 0.48516 0.55965 0.81716 0.0
C1182 C 0.4888 0.53959 0.81469 0.0
C1183 C 0.49024 0.57033 0.85692 0.0
C1184 C 0.49925 0.56104 0.89409 0.0
C1185 C 0.50113 0.54083 0.89474 0.0
C1186 C 0.49575 0.53013 0.8554 0.0
C1187 C 0.50977 0.57244 0.92384 0.0
C1188 C 0.52782 0.56927 0.91288 0.0
C1189 C 0.50239 0.58856 0.9543 0.0
C1190 C 0.48342 0.59206 0.96866 0.0
C1191 C 0.47389 0.5773 0.99002 0.0
C1192 C 0.45603 0.5806 0.00318 0.0
C1193 C 0.44754 0.59863 0.99533 0.0
C1194 C 0.4569 0.61341 0.97436 0.0
C1195 C 0.47476 0.61019 0.96112 0.0
H1196 H 0.4337 0.60115 0.00554 0.0
H1197 H 0.60641 0.57118 0.86094 0.0
H1198 H 0.79359 0.54327 0.05947 0.0
H1199 H 0.8158 0.53024 0.99243 0.0
H1200 H 0.84903 0.57292 0.03045 0.0
H1201 H 0.82668 0.58637 0.09752 0.0
H1202 H 0.83994 0.53936 0.90814 0.0
H1203 H 0.88496 0.54703 0.06235 0.0
H1204 H 0.88293 0.55316 0.1556 0.0
H1205 H 0.83527 0.52658 0.17797 0.0
H1206 H 0.83723 0.51995 0.08508 0.0
H1207 H 0.93427 0.51068 0.86628 0.0
H1208 H 0.90612 0.52834 0.89261 0.0
H1209 H 0.88379 0.4747 0.92392 0.0
H1210 H 0.91199 0.45679 0.8963 0.0
H1211 H 0.88615 0.51225 0.0074 0.0
H1212 H 0.86191 0.48592 0.86245 0.0
H1213 H 0.85976 0.47822 0.77185 0.0
H1214 H 0.86332 0.53765 0.73415 0.0
H1215 H 0.86544 0.54571 0.82472 0.0
C1216 C 0.80522 0.55061 0.05198 0.0
C1217 C 0.80856 0.56556 0.08476 0.0
C1218 C 0.81794 0.54307 0.01351 0.0
C1219 C 0.83415 0.55032 0.00755 0.0
C1220 C 0.83663 0.56699 0.03514 0.0
C1221 C 0.82389 0.57458 0.07359 0.0
C1222 C 0.84917 0.53811 0.98198 0.0
C1223 C 0.85011 0.53353 0.92964 0.0
C1224 C 0.8621 0.52998 0.01062 0.0
C1225 C 0.86115 0.53322 0.06675 0.0
C1226 C 0.87411 0.5424 0.08725 0.0
C1227 C 0.87297 0.54596 0.14002 0.0
C1228 C 0.85895 0.54032 0.17266 0.0
C1229 C 0.84611 0.53097 0.15265 0.0
C1230 C 0.84723 0.52732 0.09996 0.0
C1231 C 0.92332 0.50264 0.87843 0.0
C1232 C 0.92528 0.48241 0.8801 0.0
C1233 C 0.90726 0.51272 0.89271 0.0
C1234 C 0.89294 0.50276 0.90929 0.0
C1235 C 0.8947 0.48254 0.9101 0.0
C1236 C 0.91077 0.47238 0.89486 0.0
C1237 C 0.87708 0.51375 0.93338 0.0
C1238 C 0.87603 0.51817 0.98574 0.0
C1239 C 0.86394 0.52131 0.90497 0.0
C1240 C 0.86405 0.51635 0.85012 0.0
C1241 C 0.8625 0.49728 0.8347 0.0
C1242 C 0.8611 0.4929 0.7835 0.0
C1243 C 0.86129 0.50746 0.74738 0.0
C1244 C 0.86308 0.52641 0.76226 0.0
C1245 C 0.86436 0.5309 0.81351 0.0
H1246 H 0.8601 0.50405 0.70785 0.0
H1247 H 0.85805 0.54316 0.21347 0.0
H1248 H 1.00541 0.21879 0.86556 0.0
H1249 H 1.00082 0.18863 0.82203 0.0
H1250 H 0.0443 0.15976 0.88516 0.0
H1251 H 0.04907 0.18969 0.92748 0.0
H1252 H 0.04599 0.14892 0.79088 0.0
H1253 H 1.00054 0.15494 0.93262 0.0
H1254 H 0.97501 0.17077 0.98603 0.0
H1255 H 0.94619 0.17153 0.85715 0.0
H1256 H 0.97164 0.15592 0.80279 0.0
H1257 H 0.02972 0.0503 0.78205 0.0
H1258 H 0.0322 0.08328 0.81125 0.0
H1259 H 0.99656 0.10502 0.7084 0.0
H1260 H 0.99422 0.07201 0.67816 0.0
H1261 H 0.98967 0.12077 0.81319 0.0
H1262 H 0.03543 0.11165 0.67422 0.0
H1263 H 0.06108 0.09448 0.62451 0.0
H1264 H 0.08954 0.0984 0.75322 0.0
H1265 H 0.06396 0.11534 0.80399 0.0
C1266 C 0.01396 0.20598 0.87005 0.0
C1267 C 0.02772 0.20673 0.89958 0.0
C1268 C 0.01131 0.18872 0.84529 0.0
C1269 C 0.02215 0.17176 0.85041 0.0
C1270 C 0.03582 0.17257 0.88004 0.0
C1271 C 0.03857 0.18978 0.90421 0.0
C1272 C 0.01948 0.15308 0.82531 0.0
C1273 C 0.03368 0.14277 0.79621 0.0
C1274 C 1.00334 0.14509 0.83094 0.0
C1275 C 0.98805 0.15449 0.86351 0.0
C1276 C 0.9888 0.15863 0.91558 0.0
C1277 C 0.97434 0.16753 0.94604 0.0
C1278 C 0.959 0.17221 0.92496 0.0
C1279 C 0.95809 0.16794 0.8734 0.0
C1280 C 0.97252 0.15906 0.84275 0.0
C1281 C 0.02242 0.06207 0.7655 0.0
C1282 C 0.0118 0.05849 0.72764 0.0
C1283 C 0.02388 0.08093 0.78221 0.0
C1284 C 0.01459 0.09662 0.76195 0.0
C1285 C 1.00383 0.09313 0.72456 0.0
C1286 C 1.00258 0.07426 0.70715 0.0
C1287 C 0.01625 0.11661 0.77999 0.0
C1288 C 1.0019 0.12711 0.80759 0.0
C1289 C 0.03228 0.1247 0.77356 0.0
C1290 C 0.04772 0.11462 0.74305 0.0
C1291 C 0.04711 0.10871 0.69208 0.0
C1292 C 0.06164 0.09904 0.66368 0.0
C1293 C 0.07692 0.09531 0.68573 0.0
C1294 C 0.0777 0.10128 0.7362 0.0
C1295 C 0.06319 0.11093 0.76479 0.0
H1296 H 0.08816 0.08783 0.66368 0.0
H1297 H 0.94782 0.1791 0.9486 0.0
H1298 H 0.32646 0.98462 0.98821 0.0
H1299 H 0.35564 0.98356 0.94241 0.0
H1300 H 0.33701 0.02143 0.82874 0.0
H1301 H 0.30766 0.02273 0.87486 0.0
H1302 H 0.36232 0.98831 0.78929 0.0
H1303 H 0.35493 0.04177 0.91026 0.0
H1304 H 0.34686 0.0571 -0.00428 0.0
H1305 H 0.38482 0.01865 0.05699 0.0
H1306 H 0.39292 0.00288 0.97199 0.0
H1307 H 0.44661 0.00923 0.68119 0.0
H1308 H 0.41603 0.01095 0.71543 0.0
H1309 H 0.43005 0.99233 0.86208 0.0
H1310 H 0.46057 0.99202 0.82883 0.0
H1311 H 0.40571 0.01725 0.88129 0.0
H1312 H 0.41274 0.96246 0.76459 0.0
H1313 H 0.42054 0.94529 0.68138 0.0
H1314 H 0.38373 0.98337 0.61422 0.0
H1315 H 0.37584 0.00091 0.69694 0.0
C1316 C 0.32846 0.99242 0.95289 0.0
C1317 C 0.31467 0.00371 0.93514 0.0
C1318 C 0.3452 0.99189 0.9269 0.0
C1319 C 0.34855 0.00247 0.88223 0.0
C1320 C 0.33472 0.01313 0.86308 0.0
C1321 C 0.31798 0.01391 0.88956 0.0
C1322 C 0.36667 0.00329 0.85773 0.0
C1323 C 0.37181 0.99483 0.80898 0.0
C1324 C 0.37913 0.01143 0.88387 0.0
C1325 C 0.37441 0.02103 0.93487 0.0
C1326 C 0.36145 0.03648 0.94204 0.0
C1327 C 0.35689 0.04526 0.99039 0.0
C1328 C 0.36529 0.03882 0.03179 0.0
C1329 C 0.3783 0.02361 0.02489 0.0
C1330 C 0.3829 0.01476 0.97664 0.0
C1331 C 0.44313 0.00554 0.72076 0.0
C1332 C 0.45602 0.00049 0.75231 0.0
C1333 C 0.42558 0.00634 0.7403 0.0
C1334 C 0.42047 0.00137 0.79133 0.0
C1335 C 0.43345 0.9963 0.82268 0.0
C1336 C 0.45096 0.99607 0.80361 0.0
C1337 C 0.40175 0.00181 0.81278 0.0
C1338 C 0.39638 0.01063 0.86116 0.0
C1339 C 0.38918 0.99371 0.78648 0.0
C1340 C 0.39383 0.98311 0.73683 0.0
C1341 C 0.40638 0.96724 0.73201 0.0
C1342 C 0.41081 0.95743 0.68495 0.0
C1343 C 0.40266 0.96326 0.64254 0.0
C1344 C 0.39004 0.97889 0.64711 0.0
C1345 C 0.38558 0.98875 0.69408 0.0
H1346 H 0.40608 0.95563 0.6062 0.0
H1347 H 0.36174 0.04564 0.06919 0.0
H1348 H 0.45307 0.32553 0.00547 0.0
H1349 H 0.45808 0.35349 0.95162 0.0
H1350 H 0.51173 0.34799 0.97586 0.0
H1351 H 0.50681 0.31999 0.02958 0.0
H1352 H 0.49537 0.38531 -0.00394 0.0
H1353 H 0.50178 0.33682 0.86208 0.0
H1354 H 0.49312 0.30976 0.81293 0.0
H1355 H 0.44801 0.34464 0.77931 0.0
H1356 H 0.45629 0.37183 0.82888 0.0
H1357 H 0.52295 0.4577 0.82536 0.0
H1358 H 0.51938 0.42796 0.87216 0.0
H1359 H 0.46904 0.42557 0.82281 0.0
H1360 H 0.47292 0.45483 0.77392 0.0
H1361 H 0.48421 0.39162 0.81515 0.0
H1362 H 0.47614 0.4395 0.95006 0.0
H1363 H 0.48353 0.467 0.00023 0.0
H1364 H 0.52954 0.43411 0.03492 0.0
H1365 H 0.52254 0.40648 0.98439 0.0
C1366 C 0.46598 0.33012 -0.00131 0.0
C1367 C 0.47956 0.32051 0.02164 0.0
C1368 C 0.46884 0.34607 0.96784 0.0
C1369 C 0.48529 0.35284 0.95968 0.0
C1370 C 0.49895 0.34301 0.98159 0.0
C1371 C 0.49615 0.32691 0.0119 0.0
C1372 C 0.48801 0.37076 0.93065 0.0
C1373 C 0.49318 0.38663 0.95626 0.0
C1374 C 0.48461 0.37267 0.87927 0.0
C1375 C 0.47957 0.3563 0.84966 0.0
C1376 C 0.48993 0.33866 0.84464 0.0
C1377 C 0.48511 0.32331 0.81659 0.0
C1378 C 0.47 0.32546 0.79312 0.0
C1379 C 0.4597 0.34298 0.79757 0.0
C1380 C 0.46446 0.35837 0.82559 0.0
C1381 C 0.51103 0.45096 0.82491 0.0
C1382 C 0.49816 0.45876 0.79621 0.0
C1383 C 0.50897 0.43393 0.85187 0.0
C1384 C 0.49379 0.42456 0.85193 0.0
C1385 C 0.48087 0.43244 0.82353 0.0
C1386 C 0.48307 0.44926 0.79576 0.0
C1387 C 0.49152 0.40635 0.88056 0.0
C1388 C 0.48642 0.39039 0.85495 0.0
C1389 C 0.49472 0.40445 0.93227 0.0
C1390 C 0.49889 0.42098 0.96303 0.0
C1391 C 0.48789 0.43817 0.96812 0.0
C1392 C 0.492 0.45378 -0.00334 0.0
C1393 C 0.50702 0.45232 0.02064 0.0
C1394 C 0.51792 0.43522 0.01627 0.0
C1395 C 0.51388 0.41958 0.98773 0.0
H1396 H 0.51019 0.46442 0.04269 0.0
H1397 H 0.46629 0.31357 0.7714 0.0
H1398 H 0.18102 0.50418 0.94057 0.0
H1399 H 0.15358 0.50561 0.90475 0.0
H1400 H 0.17891 0.47593 0.7678 0.0
H1401 H 0.20656 0.4747 0.80311 0.0
H1402 H 0.15444 0.50542 0.74619 0.0
H1403 H 0.15701 0.45112 0.85729 0.0
H1404 H 0.16098 0.4348 0.93833 0.0
H1405 H 0.11857 0.47126 0.01642 0.0
H1406 H 0.11449 0.48798 0.93594 0.0
H1407 H 0.07536 0.48441 0.65626 0.0
H1408 H 0.10449 0.48261 0.68199 0.0
H1409 H 0.08277 0.49855 0.83706 0.0
H1410 H 0.05377 0.49868 0.81209 0.0
H1411 H 0.10682 0.47451 0.84565 0.0
H1412 H 0.10485 0.5304 0.73739 0.0
H1413 H 0.10097 0.54761 0.65747 0.0
H1414 H 0.14171 0.50989 0.57563 0.0
H1415 H 0.14573 0.49236 0.65499 0.0
C1416 C 0.18089 0.49829 0.90238 0.0
C1417 C 0.19611 0.48929 0.8749 0.0
C1418 C 0.1651 0.49896 0.88209 0.0
C1419 C 0.16405 0.49065 0.83375 0.0
C1420 C 0.17932 0.48238 0.80523 0.0
C1421 C 0.19512 0.4816 0.82565 0.0
C1422 C 0.14692 0.48984 0.81423 0.0
C1423 C 0.14405 0.49852 0.76766 0.0
C1424 C 0.13323 0.48108 0.84238 0.0
C1425 C 0.13555 0.4709 0.89068 0.0
C1426 C 0.1486 0.45574 0.89181 0.0
C1427 C 0.15086 0.44641 0.93764 0.0
C1428 C 0.14006 0.45202 0.98252 0.0
C1429 C 0.12694 0.46694 0.98164 0.0
C1430 C 0.12464 0.47634 0.93592 0.0
C1431 C 0.07687 0.48742 0.69587 0.0
C1432 C 0.06226 0.49162 0.73217 0.0
C1433 C 0.09358 0.48662 0.71058 0.0
C1434 C 0.09614 0.4909 0.76152 0.0
C1435 C 0.08141 0.49512 0.79758 0.0
C1436 C 0.06475 0.49523 0.78326 0.0
C1437 C 0.11392 0.49067 0.77803 0.0
C1438 C 0.11705 0.4816 0.82404 0.0
C1439 C 0.12775 0.4993 0.74956 0.0
C1440 C 0.12549 0.50999 0.70203 0.0
C1441 C 0.11294 0.52574 0.7023 0.0
C1442 C 0.11072 0.53555 0.65712 0.0
C1443 C 0.12107 0.52983 0.61151 0.0
C1444 C 0.1337 0.51431 0.61099 0.0
C1445 C 0.13597 0.50445 0.65607 0.0
H1446 H 0.11936 0.53746 0.57662 0.0
H1447 H 0.14183 0.44479 0.01797 0.0
H1448 H 0.00904 0.78955 0.47121 0.0
H1449 H 0.01264 0.82015 0.51326 0.0
H1450 H 0.95747 0.83412 0.5321 0.0
H1451 H 0.95377 0.80351 0.49039 0.0
H1452 H 0.97364 0.86321 0.48935 0.0
H1453 H 0.97941 0.82485 0.63988 0.0
H1454 H 0.99137 0.79808 0.68942 0.0
H1455 H 0.0424 0.8157 0.65086 0.0
H1456 H 0.03071 0.84256 0.60098 0.0
H1457 H 0.97066 0.94949 0.63468 0.0
H1458 H 0.96703 0.91678 0.60616 0.0
H1459 H 0.02189 0.90181 0.60036 0.0
H1460 H 0.02549 0.93429 0.63078 0.0
H1461 H 1.00638 0.87295 0.63594 0.0
H1462 H 1.00104 0.91204 0.48986 0.0
H1463 H 0.98971 0.93924 0.44066 0.0
H1464 H 0.9389 0.91994 0.46661 0.0
H1465 H 0.94989 0.89275 0.51657 0.0
C1466 C 0.99763 0.79887 0.48553 0.0
C1467 C 0.98111 0.79404 0.47712 0.0
C1468 C 0.99971 0.81644 0.50951 0.0
C1469 C 0.98532 0.82953 0.52596 0.0
C1470 C 0.96878 0.82437 0.51951 0.0
C1471 C 0.96669 0.80684 0.49558 0.0
C1472 C 0.98754 0.84912 0.54639 0.0
C1473 C 0.98053 0.86532 0.52204 0.0
C1474 C 0.99709 0.85199 0.58773 0.0
C1475 C 1.00421 0.8356 0.61649 0.0
C1476 C 0.99319 0.8229 0.64162 0.0
C1477 C 0.99992 0.80775 0.66988 0.0
C1478 C 0.01764 0.80516 0.6732 0.0
C1479 C 0.02868 0.81769 0.64817 0.0
C1480 C 0.02201 0.83289 0.61997 0.0
C1481 C 0.98196 0.93924 0.6274 0.0
C1482 C 0.99839 0.94463 0.63461 0.0
C1483 C 0.97989 0.92051 0.61078 0.0
C1484 C 0.99423 0.9068 0.59989 0.0
C1485 C 0.0106 0.91205 0.60818 0.0
C1486 C 0.01265 0.93071 0.62546 0.0
C1487 C 0.99218 0.88709 0.57961 0.0
C1488 C 0.99936 0.87086 0.60359 0.0
C1489 C 0.9829 0.88418 0.53755 0.0
C1490 C 0.97626 0.90047 0.50738 0.0
C1491 C 0.98743 0.91367 0.48538 0.0
C1492 C 0.98107 0.92907 0.45731 0.0
C1493 C 0.96359 0.93134 0.45063 0.0
C1494 C 0.95243 0.91818 0.47188 0.0
C1495 C 0.95872 0.90276 0.50004 0.0
H1496 H 0.95869 0.94328 0.42889 0.0
H1497 H 0.02281 0.79347 0.69524 0.0
H1498 H 0.68027 0.00177 0.35916 0.0
H1499 H 0.65362 0.0015 0.41701 0.0
H1500 H 0.68206 0.97649 0.53414 0.0
H1501 H 0.70911 0.97685 0.47605 0.0
H1502 H 0.65247 0.95949 0.53117 0.0
H1503 H 0.66703 0.02358 0.54525 0.0
H1504 H 0.67627 0.05492 0.51561 0.0
H1505 H 0.63112 0.06462 0.43842 0.0
H1506 H 0.62173 0.0332 0.46701 0.0
H1507 H 0.56832 0.01502 0.6829 0.0
H1508 H 0.59871 0.01347 0.64724 0.0
H1509 H 0.59163 0.96512 0.55064 0.0
H1510 H 0.56135 0.96621 0.58735 0.0
H1511 H 0.61312 0.01957 0.55804 0.0
H1512 H 0.6283 0.93656 0.52047 0.0
H1513 H 0.62054 0.9064 0.56187 0.0
H1514 H 0.60895 0.93627 0.70724 0.0
H1515 H 0.61686 0.96654 0.6669 0.0
C1516 C 0.68101 0.99645 0.39744 0.0
C1517 C 0.697 0.98966 0.41306 0.0
C1518 C 0.66566 0.99623 0.43052 0.0
C1519 C 0.66577 0.98928 0.48038 0.0
C1520 C 0.68162 0.982 0.49593 0.0
C1521 C 0.69708 0.9822 0.46264 0.0
C1522 C 0.64924 0.98979 0.51562 0.0
C1523 C 0.64387 0.97262 0.53712 0.0
C1524 C 0.63821 0.00703 0.5252 0.0
C1525 C 0.64375 0.02597 0.50795 0.0
C1526 C 0.65914 0.03234 0.52163 0.0
C1527 C 0.66439 0.05012 0.50508 0.0
C1528 C 0.65431 0.06174 0.47506 0.0
C1529 C 0.63893 0.0556 0.46164 0.0
C1530 C 0.63362 0.03782 0.47807 0.0
C1531 C 0.57324 0.00394 0.65432 0.0
C1532 C 0.56231 0.99076 0.63793 0.0
C1533 C 0.59067 0.00309 0.63386 0.0
C1534 C 0.59764 0.98911 0.59631 0.0
C1535 C 0.58677 0.97582 0.58024 0.0
C1536 C 0.56937 0.97653 0.60109 0.0
C1537 C 0.61594 0.98909 0.57193 0.0
C1538 C 0.62168 0.0064 0.55243 0.0
C1539 C 0.62749 0.97211 0.56581 0.0
C1540 C 0.62302 0.95386 0.59049 0.0
C1541 C 0.62418 0.93667 0.56131 0.0
C1542 C 0.61973 0.91956 0.58459 0.0
C1543 C 0.6142 0.91943 0.63711 0.0
C1544 C 0.61318 0.9364 0.66652 0.0
C1545 C 0.61762 0.95354 0.64345 0.0
H1546 H 0.61072 0.90618 0.65504 0.0
H1547 H 0.6584 0.07551 0.46228 0.0
H1548 H 0.52885 0.68534 0.35697 0.0
H1549 H 0.52132 0.65788 0.40909 0.0
H1550 H 0.57076 0.65527 0.46615 0.0
H1551 H 0.5783 0.68311 0.41497 0.0
H1552 H 0.56385 0.62027 0.42768 0.0
H1553 H 0.53465 0.66943 0.54447 0.0
H1554 H 0.51476 0.69829 0.56998 0.0
H1555 H 0.47225 0.66943 0.52754 0.0
H1556 H 0.49194 0.64047 0.50109 0.0
H1557 H 0.54873 0.54834 0.61266 0.0
H1558 H 0.55545 0.57734 0.56609 0.0
H1559 H 0.50392 0.58377 0.52261 0.0
H1560 H 0.49694 0.55498 0.5703 0.0
H1561 H 0.51191 0.61711 0.55434 0.0
H1562 H 0.54011 0.56854 0.4359 0.0
H1563 H 0.55942 0.53962 0.4066 0.0
H1564 H 0.60299 0.56698 0.44716 0.0
H1565 H 0.58391 0.59598 0.47737 0.0
C1566 C 0.53795 0.67939 0.3818 0.0
C1567 C 0.55422 0.68651 0.38159 0.0
C1568 C 0.53364 0.66354 0.41136 0.0
C1569 C 0.54549 0.65446 0.44143 0.0
C1570 C 0.56146 0.66197 0.44295 0.0
C1571 C 0.56574 0.6779 0.41364 0.0
C1572 C 0.54162 0.63645 0.46868 0.0
C1573 C 0.55265 0.61963 0.45603 0.0
C1574 C 0.52668 0.63547 0.50427 0.0
C1575 C 0.51481 0.65284 0.52037 0.0
C1576 C 0.52109 0.66929 0.54019 0.0
C1577 C 0.50984 0.68566 0.5549 0.0
C1578 C 0.49226 0.68571 0.55027 0.0
C1579 C 0.48588 0.66937 0.53105 0.0
C1580 C 0.49707 0.65297 0.51625 0.0
C1581 C 0.53885 0.55575 0.59272 0.0
C1582 C 0.52228 0.54925 0.59526 0.0
C1583 C 0.54275 0.57236 0.56593 0.0
C1584 C 0.53025 0.58272 0.54036 0.0
C1585 C 0.51378 0.57608 0.54207 0.0
C1586 C 0.50983 0.55954 0.56921 0.0
C1587 C 0.53417 0.60084 0.51349 0.0
C1588 C 0.52314 0.6177 0.52609 0.0
C1589 C 0.54902 0.60181 0.47738 0.0
C1590 C 0.56054 0.58437 0.45939 0.0
C1591 C 0.55379 0.56833 0.43899 0.0
C1592 C 0.5647 0.55193 0.42213 0.0
C1593 C 0.58241 0.55144 0.42514 0.0
C1594 C 0.58926 0.56737 0.44492 0.0
C1595 C 0.57841 0.5838 0.46188 0.0
H1596 H 0.59084 0.53874 0.41204 0.0
H1597 H 0.48357 0.6984 0.56167 0.0
H1598 H 0.8274 0.55308 0.52858 0.0
H1599 H 0.85435 0.54867 0.56661 0.0
H1600 H 0.86196 0.48963 0.51216 0.0
H1601 H 0.83521 0.49408 0.47215 0.0
H1602 H 0.87049 0.49582 0.61588 0.0
H1603 H 0.88288 0.52004 0.44528 0.0
H1604 H 0.87856 0.54277 0.37575 0.0
H1605 H 0.89008 0.58944 0.47 0.0
H1606 H 0.89421 0.56702 0.54043 0.0
H1607 H 0.95915 0.47752 0.64136 0.0
H1608 H 0.93095 0.48095 0.6107 0.0
H1609 H 0.92916 0.54275 0.6286 0.0
H1610 H 0.95787 0.53941 0.65757 0.0
H1611 H 0.91707 0.53527 0.54464 0.0
H1612 H 0.90581 0.51327 0.71374 0.0
H1613 H 0.90893 0.49263 0.78785 0.0
H1614 H 0.89375 0.44466 0.70594 0.0
H1615 H 0.8908 0.46497 0.63064 0.0
C1616 C 0.83475 0.53911 0.52446 0.0
C1617 C 0.82914 0.52405 0.49628 0.0
C1618 C 0.85016 0.5366 0.5466 0.0
C1619 C 0.86035 0.5189 0.54173 0.0
C1620 C 0.85434 0.50345 0.51639 0.0
C1621 C 0.83896 0.506 0.4937 0.0
C1622 C 0.8777 0.517 0.56044 0.0
C1623 C 0.88076 0.50426 0.60002 0.0
C1624 C 0.89096 0.52844 0.54079 0.0
C1625 C 0.88869 0.54189 0.49828 0.0
C1626 C 0.88436 0.53518 0.45132 0.0
C1627 C 0.88197 0.548 0.41172 0.0
C1628 C 0.88401 0.56754 0.4185 0.0
C1629 C 0.88849 0.5743 0.46483 0.0
C1630 C 0.89087 0.56154 0.50458 0.0
C1631 C 0.95277 0.49188 0.63905 0.0
C1632 C 0.9608 0.5082 0.65241 0.0
C1633 C 0.93652 0.49382 0.62162 0.0
C1634 C 0.9276 0.5121 0.61813 0.0
C1635 C 0.93566 0.52845 0.63099 0.0
C1636 C 0.95209 0.52653 0.64776 0.0
C1637 C 0.91 0.51407 0.60054 0.0
C1638 C 0.90685 0.52684 0.56098 0.0
C1639 C 0.89656 0.50293 0.62106 0.0
C1640 C 0.89831 0.4906 0.6662 0.0
C1641 C 0.90337 0.49825 0.71117 0.0
C1642 C 0.9051 0.4866 0.75348 0.0
C1643 C 0.90167 0.4673 0.75159 0.0
C1644 C 0.89646 0.45961 0.70731 0.0
C1645 C 0.89474 0.47119 0.66478 0.0
H1646 H 0.90293 0.45835 0.78454 0.0
H1647 H 0.88215 0.57745 0.3878 0.0
loop_
_geom_bond_atom_site_label_1
_geom_bond_atom_site_label_2
_geom_bond_distance
_geom_bond_site_symmetry_2
_ccdc_geom_bond_type
C0 C1 1.384 . S
C0 H13 0.947 . S
C0 C35 1.382 . S
C1 C0 1.384 . S
C1 C2 1.378 . S
C2 C1 1.378 . S
C2 C3 1.378 . S
C2 H14 0.952 . S
C3 C2 1.378 . S
C3 H15 0.950 . S
C3 C34 1.383 . S
H4 C23 0.947 . S
H5 C24 0.946 . S
H6 C26 0.953 . S
H7 C27 0.945 . S
H8 C29 0.952 . S
H9 C30 0.949 . S
H10 C32 0.950 . S
H11 C33 0.948 . S
H12 C35 0.951 . S
H13 C0 0.947 . S
H14 C2 0.952 . S
H15 C3 0.950 . S
N16 C19 1.382 . S
N16 C21 1.363 . S
N17 C19 1.371 . S
N17 C20 1.372 . S
N18 C20 1.361 . S
N18 C21 1.377 . S
C19 N16 1.382 . S
C19 N17 1.371 . S
C19 C22 1.480 . S
C20 N17 1.372 . S
C20 N18 1.361 . S
C20 C28 1.457 . S
C21 N16 1.363 . S
C21 N18 1.377 . S
C21 C34 1.479 . S
C22 C19 1.480 . S
C22 C23 1.383 . S
C22 C27 1.385 . S
C23 H4 0.947 . S
C23 C22 1.383 . S
C23 C24 1.388 . S
C24 H5 0.946 . S
C24 C23 1.388 . S
C24 C25 1.384 . S
C25 C24 1.384 . S
C25 C26 1.377 . S
C26 H6 0.953 . S
C26 C25 1.377 . S
C26 C27 1.369 . S
C27 H7 0.945 . S
C27 C22 1.385 . S
C27 C26 1.369 . S
C28 C20 1.457 . S
C28 C29 1.372 . S
C28 C33 1.364 . S
C29 H8 0.952 . S
C29 C28 1.372 . S
C29 C30 1.389 . S
C30 H9 0.949 . S
C30 C29 1.389 . S
C30 C31 1.387 . S
C31 C30 1.387 . S
C31 C32 1.372 . S
C32 H10 0.950 . S
C32 C31 1.372 . S
C32 C33 1.379 . S
C33 H11 0.948 . S
C33 C28 1.364 . S
C33 C32 1.379 . S
C34 C3 1.383 . S
C34 C21 1.479 . S
C34 C35 1.398 . S
C35 C0 1.382 . S
C35 H12 0.951 . S
C35 C34 1.398 . S
C36 C37 1.384 . S
C36 H49 0.947 . S
C36 C71 1.382 . S
C37 C36 1.384 . S
C37 C38 1.378 . S
C38 C37 1.378 . S
C38 C39 1.378 . S
C38 H50 0.952 . S
C39 C38 1.378 . S
C39 H51 0.950 . S
C39 C70 1.383 . S
H40 C59 0.947 . S
H41 C60 0.946 . S
H42 C62 0.953 . S
H43 C63 0.945 . S
H44 C65 0.952 . S
H45 C66 0.949 . S
H46 C68 0.950 . S
H47 C69 0.948 . S
H48 C71 0.951 . S
H49 C36 0.947 . S
H50 C38 0.952 . S
H51 C39 0.950 . S
N52 C55 1.382 . S
N52 C57 1.363 . S
N53 C55 1.371 . S
N53 C56 1.372 . S
N54 C56 1.361 . S
N54 C57 1.377 . S
C55 N52 1.382 . S
C55 N53 1.371 . S
C55 C58 1.480 . S
C56 N53 1.372 . S
C56 N54 1.361 . S
C56 C64 1.457 . S
C57 N52 1.363 . S
C57 N54 1.377 . S
C57 C70 1.479 . S
C58 C55 1.480 . S
C58 C59 1.383 . S
C58 C63 1.385 . S
C59 H40 0.947 . S
C59 C58 1.383 . S
C59 C60 1.388 . S
C60 H41 0.946 . S
C60 C59 1.388 . S
C60 C61 1.384 . S
C61 C60 1.384 . S
C61 C62 1.377 . S
C62 H42 0.953 . S
C62 C61 1.377 . S
C62 C63 1.369 . S
C63 H43 0.945 . S
C63 C58 1.385 . S
C63 C62 1.369 . S
C64 C56 1.457 . S
C64 C65 1.372 . S
C64 C69 1.364 . S
C65 H44 0.952 . S
C65 C64 1.372 . S
C65 C66 1.389 . S
C66 H45 0.949 . S
C66 C65 1.389 . S
C66 C67 1.387 . S
C67 C66 1.387 . S
C67 C68 1.372 . S
C68 H46 0.950 . S
C68 C67 1.372 . S
C68 C69 1.379 . S
C69 H47 0.948 . S
C69 C64 1.364 . S
C69 C68 1.379 . S
C70 C39 1.383 . S
C70 C57 1.479 . S
C70 C71 1.398 . S
C71 C36 1.382 . S
C71 H48 0.951 . S
C71 C70 1.398 . S
C72 C73 1.383 1_565 S
C72 H85 0.948 . S
C72 C107 1.382 1_565 S
C73 C72 1.383 1_545 S
C73 C74 1.378 . S
C74 C73 1.378 . S
C74 C75 1.378 . S
C74 H86 0.952 . S
C75 C74 1.378 . S
C75 H87 0.950 . S
C75 C106 1.383 . S
H76 C95 0.947 . S
H77 C96 0.950 . S
H78 C98 0.953 . S
H79 C99 0.945 . S
H80 C101 0.951 1_565 S
H81 C102 0.955 . S
H82 C104 0.950 . S
H83 C105 0.948 . S
H84 C107 0.952 1_565 S
H85 C72 0.948 . S
H86 C74 0.952 . S
H87 C75 0.950 . S
N88 C91 1.382 . S
N88 C93 1.363 . S
N89 C91 1.371 . S
N89 C92 1.372 . S
N90 C92 1.361 . S
N90 C93 1.377 . S
C91 N88 1.382 . S
C91 N89 1.371 . S
C91 C94 1.480 . S
C92 N89 1.372 . S
C92 N90 1.361 . S
C92 C100 1.457 . S
C93 N88 1.363 . S
C93 N90 1.377 . S
C93 C106 1.479 . S
C94 C91 1.480 . S
C94 C95 1.383 . S
C94 C99 1.385 . S
C95 H76 0.947 . S
C95 C94 1.383 . S
C95 C96 1.388 1_545 S
C96 H77 0.950 . S
C96 C95 1.388 1_565 S
C96 C97 1.380 1_565 S
C97 C96 1.380 1_545 S
C97 C98 1.377 . S
C98 H78 0.953 . S
C98 C97 1.377 . S
C98 C99 1.369 . S
C99 H79 0.945 . S
C99 C94 1.385 . S
C99 C98 1.369 . S
C100 C92 1.457 . S
C100 C101 1.375 . S
C100 C105 1.364 . S
C101 H80 0.951 1_545 S
C101 C100 1.375 . S
C101 C102 1.383 1_545 S
C102 H81 0.955 . S
C102 C101 1.383 1_565 S
C102 C103 1.386 1_565 S
C103 C102 1.386 1_545 S
C103 C104 1.372 . S
C104 H82 0.950 . S
C104 C103 1.372 . S
C104 C105 1.379 . S
C105 H83 0.948 . S
C105 C100 1.364 . S
C105 C104 1.379 . S
C106 C75 1.383 . S
C106 C93 1.479 . S
C106 C107 1.397 . S
C107 C72 1.382 1_545 S
C107 H84 0.952 1_545 S
C107 C106 1.397 . S
C108 C109 1.384 . S
C108 H121 0.947 . S
C108 C143 1.373 1_556 S
C109 C108 1.384 . S
C109 C110 1.378 . S
C110 C109 1.378 . S
C110 C111 1.378 . S
C110 H122 0.952 . S
C111 C110 1.378 . S
C111 H123 0.950 . S
C111 C142 1.383 . S
H112 C131 0.947 . S
H113 C132 0.946 . S
H114 C134 0.953 . S
H115 C135 0.945 . S
H116 C137 0.952 . S
H117 C138 0.949 . S
H118 C140 0.950 . S
H119 C141 0.948 . S
H120 C143 0.963 . S
H121 C108 0.947 . S
H122 C110 0.952 . S
H123 C111 0.950 . S
N124 C127 1.382 . S
N124 C129 1.363 . S
N125 C127 1.371 . S
N125 C128 1.372 . S
N126 C128 1.361 . S
N126 C129 1.377 . S
C127 N124 1.382 . S
C127 N125 1.371 . S
C127 C130 1.480 . S
C128 N125 1.372 . S
C128 N126 1.361 . S
C128 C136 1.457 . S
C129 N124 1.363 . S
C129 N126 1.377 . S
C129 C142 1.479 1_554 S
C130 C127 1.480 . S
C130 C131 1.383 1_554 S
C130 C135 1.385 . S
C131 H112 0.947 . S
C131 C130 1.383 1_556 S
C131 C132 1.388 . S
C132 H113 0.946 . S
C132 C131 1.388 . S
C132 C133 1.384 1_556 S
C133 C132 1.384 1_554 S
C133 C134 1.377 . S
C134 H114 0.953 . S
C134 C133 1.377 . S
C134 C135 1.369 . S
C135 H115 0.945 . S
C135 C130 1.385 . S
C135 C134 1.369 . S
C136 C128 1.457 . S
C136 C137 1.372 . S
C136 C141 1.364 . S
C137 H116 0.952 . S
C137 C136 1.372 . S
C137 C138 1.389 . S
C138 H117 0.949 . S
C138 C137 1.389 . S
C138 C139 1.387 . S
C139 C138 1.387 . S
C139 C140 1.372 . S
C140 H118 0.950 . S
C140 C139 1.372 . S
C140 C141 1.379 . S
C141 H119 0.948 . S
C141 C136 1.364 . S
C141 C140 1.379 . S
C142 C111 1.383 . S
C142 C129 1.479 1_556 S
C142 C143 1.395 1_556 S
C143 C108 1.373 1_554 S
C143 H120 0.963 . S
C143 C142 1.395 1_554 S
C144 C145 1.384 . S
C144 H157 0.947 . S
C144 C179 1.382 . S
C145 C144 1.384 . S
C145 C146 1.378 . S
C146 C145 1.378 . S
C146 C147 1.378 . S
C146 H158 0.952 . S
C147 C146 1.378 . S
C147 H159 0.950 . S
C147 C178 1.383 . S
H148 C167 0.947 . S
H149 C168 0.946 . S
H150 C170 0.953 . S
H151 C171 0.945 . S
H152 C173 0.952 . S
H153 C174 0.949 . S
H154 C176 0.950 . S
H155 C177 0.948 . S
H156 C179 0.951 . S
H157 C144 0.947 . S
H158 C146 0.952 . S
H159 C147 0.950 . S
N160 C163 1.382 1_556 S
N160 C165 1.363 . S
N161 C163 1.371 . S
N161 C164 1.372 . S
N162 C164 1.361 1_556 S
N162 C165 1.377 . S
C163 N160 1.382 1_554 S
C163 N161 1.371 . S
C163 C166 1.480 . S
C164 N161 1.372 . S
C164 N162 1.361 1_554 S
C164 C172 1.457 . S
C165 N160 1.363 . S
C165 N162 1.377 . S
C165 C178 1.479 . S
C166 C163 1.480 . S
C166 C167 1.383 1_554 S
C166 C171 1.385 . S
C167 H148 0.947 . S
C167 C166 1.383 1_556 S
C167 C168 1.388 . S
C168 H149 0.946 . S
C168 C167 1.388 . S
C168 C169 1.384 1_556 S
C169 C168 1.384 1_554 S
C169 C170 1.377 . S
C170 H150 0.953 . S
C170 C169 1.377 . S
C170 C171 1.369 . S
C171 H151 0.945 . S
C171 C166 1.385 . S
C171 C170 1.369 . S
C172 C164 1.457 . S
C172 C173 1.372 . S
C172 C177 1.364 . S
C173 H152 0.952 . S
C173 C172 1.372 . S
C173 C174 1.389 . S
C174 H153 0.949 . S
C174 C173 1.389 . S
C174 C175 1.387 . S
C175 C174 1.387 . S
C175 C176 1.372 . S
C176 H154 0.950 . S
C176 C175 1.372 . S
C176 C177 1.379 . S
C177 H155 0.948 . S
C177 C172 1.364 . S
C177 C176 1.379 . S
C178 C147 1.383 . S
C178 C165 1.479 . S
C178 C179 1.398 . S
C179 C144 1.382 . S
C179 H156 0.951 . S
C179 C178 1.398 . S
C180 C181 1.384 . S
C180 H193 0.947 . S
C180 C215 1.382 . S
C181 C180 1.384 . S
C181 C182 1.378 . S
C182 C181 1.378 . S
C182 C183 1.378 . S
C182 H194 0.952 . S
C183 C182 1.378 . S
C183 H195 0.950 . S
C183 C214 1.383 . S
H184 C203 0.947 . S
H185 C204 0.946 . S
H186 C206 0.953 . S
H187 C207 0.945 . S
H188 C209 0.952 . S
H189 C210 0.949 . S
H190 C212 0.950 . S
H191 C213 0.948 . S
H192 C215 0.951 1_554 S
H193 C180 0.947 . S
H194 C182 0.952 . S
H195 C183 0.950 . S
N196 C199 1.382 . S
N196 C201 1.363 . S
N197 C199 1.371 . S
N197 C200 1.372 . S
N198 C200 1.361 . S
N198 C201 1.377 . S
C199 N196 1.382 . S
C199 N197 1.371 . S
C199 C202 1.480 . S
C200 N197 1.372 . S
C200 N198 1.361 . S
C200 C208 1.457 . S
C201 N196 1.363 . S
C201 N198 1.377 . S
C201 C214 1.479 1_554 S
C202 C199 1.480 . S
C202 C203 1.383 . S
C202 C207 1.385 . S
C203 H184 0.947 . S
C203 C202 1.383 . S
C203 C204 1.388 . S
C204 H185 0.946 . S
C204 C203 1.388 . S
C204 C205 1.384 . S
C205 C204 1.384 . S
C205 C206 1.377 . S
C206 H186 0.953 . S
C206 C205 1.377 . S
C206 C207 1.369 . S
C207 H187 0.945 . S
C207 C202 1.385 . S
C207 C206 1.369 . S
C208 C200 1.457 . S
C208 C209 1.372 . S
C208 C213 1.364 . S
C209 H188 0.952 . S
C209 C208 1.372 . S
C209 C210 1.389 . S
C210 H189 0.949 . S
C210 C209 1.389 . S
C210 C211 1.387 . S
C211 C210 1.387 . S
C211 C212 1.372 . S
C212 H190 0.950 . S
C212 C211 1.372 . S
C212 C213 1.379 . S
C213 H191 0.948 . S
C213 C208 1.364 . S
C213 C212 1.379 . S
C214 C183 1.383 . S
C214 C201 1.479 1_556 S
C214 C215 1.398 . S
C215 C180 1.382 . S
C215 H192 0.951 1_556 S
C215 C214 1.398 . S
C216 C217 1.384 . S
C216 H229 0.947 1_545 S
C216 C251 1.382 1_556 S
C217 C216 1.384 . S
C217 C218 1.378 . S
C218 C217 1.378 . S
C218 C219 1.378 1_556 S
C218 H230 0.952 . S
C219 C218 1.378 1_554 S
C219 H231 0.950 . S
C219 C250 1.383 . S
H220 C239 0.947 . S
H221 C240 0.949 . S
H222 C242 0.953 . S
H223 C243 0.945 . S
H224 C245 0.945 1_565 S
H225 C246 0.955 . S
H226 C248 0.950 . S
H227 C249 0.948 . S
H228 C251 0.951 1_565 S
H229 C216 0.947 1_565 S
H230 C218 0.952 . S
H231 C219 0.950 . S
N232 C235 1.382 . S
N232 C237 1.363 . S
N233 C235 1.371 . S
N233 C236 1.372 . S
N234 C236 1.361 . S
N234 C237 1.377 . S
C235 N232 1.382 . S
C235 N233 1.371 . S
C235 C238 1.480 . S
C236 N233 1.372 . S
C236 N234 1.361 . S
C236 C244 1.457 . S
C237 N232 1.363 . S
C237 N234 1.377 . S
C237 C250 1.479 . S
C238 C235 1.480 . S
C238 C239 1.383 . S
C238 C243 1.385 . S
C239 H220 0.947 . S
C239 C238 1.383 . S
C239 C240 1.386 1_545 S
C240 H221 0.949 . S
C240 C239 1.386 1_565 S
C240 C241 1.383 1_565 S
C241 C240 1.383 1_545 S
C241 C242 1.377 . S
C242 H222 0.953 . S
C242 C241 1.377 . S
C242 C243 1.369 . S
C243 H223 0.945 . S
C243 C238 1.385 . S
C243 C242 1.369 . S
C244 C236 1.457 . S
C244 C245 1.380 . S
C244 C249 1.364 . S
C245 H224 0.945 1_545 S
C245 C244 1.380 . S
C245 C246 1.390 1_545 S
C246 H225 0.955 . S
C246 C245 1.390 1_565 S
C246 C247 1.381 1_565 S
C247 C246 1.381 1_545 S
C247 C248 1.372 . S
C248 H226 0.950 . S
C248 C247 1.372 . S
C248 C249 1.379 . S
C249 H227 0.948 . S
C249 C244 1.364 . S
C249 C248 1.379 . S
C250 C219 1.383 . S
C250 C237 1.479 . S
C250 C251 1.398 . S
C251 C216 1.382 1_554 S
C251 H228 0.951 1_545 S
C251 C250 1.398 . S
C252 C253 1.384 . S
C252 H265 0.947 . S
C252 C287 1.382 . S
C253 C252 1.384 . S
C253 C254 1.378 . S
C254 C253 1.378 . S
C254 C255 1.378 . S
C254 H266 0.952 . S
C255 C254 1.378 . S
C255 H267 0.950 . S
C255 C286 1.383 . S
H256 C275 0.947 . S
H257 C276 0.946 . S
H258 C278 0.953 . S
H259 C279 0.945 . S
H260 C281 0.952 . S
H261 C282 0.949 . S
H262 C284 0.950 . S
H263 C285 0.948 . S
H264 C287 0.951 . S
H265 C252 0.947 . S
H266 C254 0.952 . S
H267 C255 0.950 . S
N268 C271 1.382 . S
N268 C273 1.363 . S
N269 C271 1.371 . S
N269 C272 1.372 . S
N270 C272 1.361 . S
N270 C273 1.377 . S
C271 N268 1.382 . S
C271 N269 1.371 . S
C271 C274 1.480 . S
C272 N269 1.372 . S
C272 N270 1.361 . S
C272 C280 1.457 . S
C273 N268 1.363 . S
C273 N270 1.377 . S
C273 C286 1.479 . S
C274 C271 1.480 . S
C274 C275 1.383 . S
C274 C279 1.385 . S
C275 H256 0.947 . S
C275 C274 1.383 . S
C275 C276 1.388 . S
C276 H257 0.946 . S
C276 C275 1.388 . S
C276 C277 1.384 . S
C277 C276 1.384 . S
C277 C278 1.377 . S
C278 H258 0.953 . S
C278 C277 1.377 . S
C278 C279 1.369 . S
C279 H259 0.945 . S
C279 C274 1.385 . S
C279 C278 1.369 . S
C280 C272 1.457 . S
C280 C281 1.372 . S
C280 C285 1.364 . S
C281 H260 0.952 . S
C281 C280 1.372 . S
C281 C282 1.389 . S
C282 H261 0.949 . S
C282 C281 1.389 . S
C282 C283 1.387 . S
C283 C282 1.387 . S
C283 C284 1.372 . S
C284 H262 0.950 . S
C284 C283 1.372 . S
C284 C285 1.379 . S
C285 H263 0.948 . S
C285 C280 1.364 . S
C285 C284 1.379 . S
C286 C255 1.383 . S
C286 C273 1.479 . S
C286 C287 1.398 . S
C287 C252 1.382 . S
C287 H264 0.951 . S
C287 C286 1.398 . S
Dy288 O291 2.307 1_545 S
Dy288 O293 2.395 1_655 S
Dy288 O294 2.379 . S
Dy288 O296 2.339 . S
Dy288 O298 2.277 1_655 S
Dy288 O302 2.275 1_655 S
Dy288 C310 2.738 . S
Dy289 O292 2.298 . S
Dy289 O295 2.275 1_455 S
Dy289 O297 2.307 1_565 S
Dy289 O299 2.395 . S
Dy289 O300 2.379 . S
Dy289 O303 2.339 . S
Dy289 C319 2.738 . S
C290 O302 1.254 1_565 S
C290 O303 1.257 . S
O291 Dy288 2.307 1_565 S
O291 C301 1.266 . S
O292 Dy289 2.298 . S
O292 C301 1.236 1_455 S
O293 Dy288 2.395 1_455 S
O293 C310 1.255 1_455 S
O294 Dy288 2.379 . S
O294 C310 1.249 . S
O295 Dy289 2.275 1_655 S
O295 C311 1.254 1_565 S
O296 Dy288 2.339 . S
O296 C311 1.257 . S
O297 Dy289 2.307 1_545 S
O297 C312 1.266 . S
O298 Dy288 2.277 1_455 S
O298 C312 1.281 . S
O299 Dy289 2.395 . S
O299 C319 1.255 . S
O300 Dy289 2.379 . S
O300 C319 1.249 . S
C301 O291 1.266 . S
C301 O292 1.236 1_655 S
O302 Dy288 2.275 1_455 S
O302 C290 1.254 1_545 S
O303 Dy289 2.339 . S
O303 C290 1.257 . S
C304 C307 1.344 1_655 S
C304 C308 1.328 . S
C304 C310 1.516 . S
C305 C306 1.304 1_655 S
C305 C309 1.323 . S
C306 C305 1.304 1_455 S
C306 C307 1.371 . S
C306 H320 0.930 . S
C307 C304 1.344 1_455 S
C307 C306 1.371 . S
C307 H321 0.931 . S
C308 C304 1.328 . S
C308 C309 1.433 . S
C308 H322 0.931 . S
C309 C305 1.323 . S
C309 C308 1.433 . S
C309 H323 0.933 . S
C310 Dy288 2.738 . S
C310 O293 1.255 1_655 S
C310 O294 1.249 . S
C310 C304 1.516 . S
C311 O295 1.254 1_545 S
C311 O296 1.257 . S
C312 O297 1.266 . S
C312 O298 1.281 . S
C313 C316 1.370 . S
C313 C317 1.328 . S
C313 C319 1.516 . S
C314 C315 1.346 . S
C314 C318 1.323 . S
C315 C314 1.346 . S
C315 C316 1.371 . S
C315 H324 0.887 1_455 S
C316 C313 1.370 . S
C316 C315 1.371 . S
C316 H325 0.905 1_455 S
C317 C313 1.328 . S
C317 C318 1.433 . S
C317 H326 0.931 . S
C318 C314 1.323 . S
C318 C317 1.433 . S
C318 H327 0.933 . S
C319 Dy289 2.738 . S
C319 O299 1.255 . S
C319 O300 1.249 . S
C319 C313 1.516 . S
H320 C306 0.930 . S
H321 C307 0.931 . S
H322 C308 0.931 . S
H323 C309 0.933 . S
H324 C315 0.887 1_655 S
H325 C316 0.905 1_655 S
H326 C317 0.931 . S
H327 C318 0.933 . S
Dy328 O331 2.307 . S
Dy328 O333 2.395 1_565 S
Dy328 O334 2.379 . S
Dy328 O336 2.339 . S
Dy328 O338 2.298 . S
Dy328 O342 2.275 1_565 S
Dy328 C350 2.738 . S
Dy329 O332 2.298 . S
Dy329 O335 2.275 1_545 S
Dy329 O337 2.307 . S
Dy329 O339 2.395 1_545 S
Dy329 O340 2.379 . S
Dy329 O343 2.339 . S
Dy329 C359 2.738 . S
C330 O342 1.254 . S
C330 O343 1.257 . S
O331 Dy328 2.307 . S
O331 C341 1.266 . S
O332 Dy329 2.298 . S
O332 C341 1.236 1_545 S
O333 Dy328 2.395 1_545 S
O333 C350 1.255 1_545 S
O334 Dy328 2.379 . S
O334 C350 1.249 . S
O335 Dy329 2.275 1_565 S
O335 C351 1.254 . S
O336 Dy328 2.339 . S
O336 C351 1.257 . S
O337 Dy329 2.307 . S
O337 C352 1.266 . S
O338 Dy328 2.298 . S
O338 C352 1.236 1_565 S
O339 Dy329 2.395 1_565 S
O339 C359 1.255 1_565 S
O340 Dy329 2.379 . S
O340 C359 1.249 . S
C341 O331 1.266 . S
C341 O332 1.236 1_565 S
O342 Dy328 2.275 1_545 S
O342 C330 1.254 . S
O343 Dy329 2.339 . S
O343 C330 1.257 . S
C344 C347 1.344 1_565 S
C344 C348 1.328 . S
C344 C350 1.516 . S
C345 C346 1.307 . S
C345 C349 1.323 . S
C346 C345 1.307 . S
C346 C347 1.370 1_565 S
C346 H360 0.928 1_565 S
C347 C344 1.344 1_545 S
C347 C346 1.370 1_545 S
C347 H361 0.931 . S
C348 C344 1.328 . S
C348 C349 1.433 . S
C348 H362 0.931 . S
C349 C345 1.323 . S
C349 C348 1.433 . S
C349 H363 0.933 . S
C350 Dy328 2.738 . S
C350 O333 1.255 1_565 S
C350 O334 1.249 . S
C350 C344 1.516 . S
C351 O335 1.254 . S
C351 O336 1.257 . S
C352 O337 1.266 . S
C352 O338 1.236 1_545 S
C353 C356 1.307 1_545 S
C353 C357 1.328 . S
C353 C359 1.516 . S
C354 C355 1.319 . S
C354 C358 1.323 . S
C355 C354 1.319 . S
C355 C356 1.364 1_545 S
C355 H364 0.917 1_545 S
C356 C353 1.307 1_565 S
C356 C355 1.364 1_565 S
C356 H365 0.976 . S
C357 C353 1.328 . S
C357 C358 1.433 . S
C357 H366 0.931 . S
C358 C354 1.323 . S
C358 C357 1.433 . S
C358 H367 0.933 . S
C359 Dy329 2.738 . S
C359 O339 1.255 1_545 S
C359 O340 1.249 . S
C359 C353 1.516 . S
H360 C346 0.928 1_545 S
H361 C347 0.931 . S
H362 C348 0.931 . S
H363 C349 0.933 . S
H364 C355 0.917 1_565 S
H365 C356 0.976 . S
H366 C357 0.931 . S
H367 C358 0.933 . S
Dy368 O371 2.307 . S
Dy368 O373 2.395 . S
Dy368 O374 2.379 . S
Dy368 O376 2.339 . S
Dy368 O378 2.298 . S
Dy368 O382 2.275 . S
Dy368 C390 2.738 . S
Dy369 O372 2.298 . S
Dy369 O375 2.275 . S
Dy369 O377 2.307 . S
Dy369 O379 2.395 . S
Dy369 O380 2.379 . S
Dy369 O383 2.339 . S
Dy369 C399 2.738 . S
C370 O382 1.254 . S
C370 O383 1.257 . S
O371 Dy368 2.307 . S
O371 C381 1.266 . S
O372 Dy369 2.298 . S
O372 C381 1.236 . S
O373 Dy368 2.395 . S
O373 C390 1.255 . S
O374 Dy368 2.379 . S
O374 C390 1.249 . S
O375 Dy369 2.275 . S
O375 C391 1.254 . S
O376 Dy368 2.339 . S
O376 C391 1.257 . S
O377 Dy369 2.307 . S
O377 C392 1.266 . S
O378 Dy368 2.298 . S
O378 C392 1.236 . S
O379 Dy369 2.395 . S
O379 C399 1.255 . S
O380 Dy369 2.379 . S
O380 C399 1.249 . S
C381 O371 1.266 . S
C381 O372 1.236 . S
O382 Dy368 2.275 . S
O382 C370 1.254 . S
O383 Dy369 2.339 . S
O383 C370 1.257 . S
C384 C387 1.344 . S
C384 C388 1.328 . S
C384 C390 1.516 . S
C385 C386 1.304 . S
C385 C389 1.323 . S
C386 C385 1.304 . S
C386 C387 1.371 . S
C386 H400 0.930 . S
C387 C384 1.344 . S
C387 C386 1.371 . S
C387 H401 0.931 . S
C388 C384 1.328 . S
C388 C389 1.433 . S
C388 H402 0.931 . S
C389 C385 1.323 . S
C389 C388 1.433 . S
C389 H403 0.933 . S
C390 Dy368 2.738 . S
C390 O373 1.255 . S
C390 O374 1.249 . S
C390 C384 1.516 . S
C391 O375 1.254 . S
C391 O376 1.257 . S
C392 O377 1.266 . S
C392 O378 1.236 . S
C393 C396 1.344 . S
C393 C397 1.328 . S
C393 C399 1.516 . S
C394 C395 1.304 . S
C394 C398 1.323 . S
C395 C394 1.304 . S
C395 C396 1.371 . S
C395 H404 0.930 . S
C396 C393 1.344 . S
C396 C395 1.371 . S
C396 H405 0.931 . S
C397 C393 1.328 . S
C397 C398 1.433 . S
C397 H406 0.931 . S
C398 C394 1.323 . S
C398 C397 1.433 . S
C398 H407 0.933 . S
C399 Dy369 2.738 . S
C399 O379 1.255 . S
C399 O380 1.249 . S
C399 C393 1.516 . S
H400 C386 0.930 . S
H401 C387 0.931 . S
H402 C388 0.931 . S
H403 C389 0.933 . S
H404 C395 0.930 . S
H405 C396 0.931 . S
H406 C397 0.931 . S
H407 C398 0.933 . S
Dy408 O411 2.307 1_455 S
Dy408 O413 2.395 . S
Dy408 O414 2.379 . S
Dy408 O416 2.339 . S
Dy408 O418 2.298 . S
Dy408 O422 2.275 . S
Dy408 C430 2.738 . S
Dy409 O412 2.298 . S
Dy409 O415 2.251 1_655 S
Dy409 O417 2.307 1_655 S
Dy409 O419 2.395 . S
Dy409 O420 2.379 . S
Dy409 O423 2.339 . S
Dy409 C439 2.738 . S
C410 O422 1.254 . S
C410 O423 1.257 1_455 S
O411 Dy408 2.307 1_655 S
O411 C421 1.266 . S
O412 Dy409 2.298 . S
O412 C421 1.236 . S
O413 Dy408 2.395 . S
O413 C430 1.255 . S
O414 Dy408 2.379 . S
O414 C430 1.249 . S
O415 Dy409 2.251 1_455 S
O415 C431 1.277 . S
O416 Dy408 2.339 . S
O416 C431 1.257 . S
O417 Dy409 2.307 1_455 S
O417 C432 1.266 . S
O418 Dy408 2.298 . S
O418 C432 1.236 . S
O419 Dy409 2.395 . S
O419 C439 1.255 . S
O420 Dy409 2.379 . S
O420 C439 1.249 . S
C421 O411 1.266 . S
C421 O412 1.236 . S
O422 Dy408 2.275 . S
O422 C410 1.254 . S
O423 Dy409 2.339 . S
O423 C410 1.257 1_655 S
C424 C427 1.344 . S
C424 C428 1.328 . S
C424 C430 1.516 . S
C425 C426 1.304 . S
C425 C429 1.323 . S
C426 C425 1.304 . S
C426 C427 1.371 . S
C426 H440 0.930 . S
C427 C424 1.344 . S
C427 C426 1.371 . S
C427 H441 0.931 . S
C428 C424 1.328 . S
C428 C429 1.433 . S
C428 H442 0.931 . S
C429 C425 1.323 . S
C429 C428 1.433 . S
C429 H443 0.933 . S
C430 Dy408 2.738 . S
C430 O413 1.255 . S
C430 O414 1.249 . S
C430 C424 1.516 . S
C431 O415 1.277 . S
C431 O416 1.257 . S
C432 O417 1.266 . S
C432 O418 1.236 . S
C433 C436 1.344 . S
C433 C437 1.328 . S
C433 C439 1.516 . S
C434 C435 1.304 . S
C434 C438 1.323 . S
C435 C434 1.304 . S
C435 C436 1.371 . S
C435 H444 0.930 . S
C436 C433 1.344 . S
C436 C435 1.371 . S
C436 H445 0.931 . S
C437 C433 1.328 . S
C437 C438 1.433 . S
C437 H446 0.931 . S
C438 C434 1.323 . S
C438 C437 1.433 . S
C438 H447 0.933 . S
C439 Dy409 2.738 . S
C439 O419 1.255 . S
C439 O420 1.249 . S
C439 C433 1.516 . S
H440 C426 0.930 . S
H441 C427 0.931 . S
H442 C428 0.931 . S
H443 C429 0.933 . S
H444 C435 0.930 . S
H445 C436 0.931 . S
H446 C437 0.931 . S
H447 C438 0.933 . S
H448 C466 0.951 . S
H449 C468 0.951 . S
H450 C470 0.950 . S
H451 C471 0.950 . S
H452 C473 0.950 . S
H453 C476 0.950 . S
H454 C477 0.950 . S
H455 C479 0.950 . S
H456 C480 0.952 1_565 S
H457 C481 0.951 . S
H458 C483 0.951 . S
H459 C485 0.950 . S
H460 C486 0.950 . S
H461 C488 0.950 . S
H462 C491 0.950 . S
H463 C492 0.950 . S
H464 C494 0.950 . S
H465 C495 0.945 . S
C466 H448 0.951 . S
C466 C467 1.367 1_565 S
C466 C468 1.388 . S
C467 C466 1.367 1_545 S
C467 C471 1.383 . S
C468 H449 0.951 . S
C468 C466 1.388 . S
C468 C469 1.342 1_565 S
C469 C468 1.342 1_545 S
C469 C470 1.442 . S
C469 C472 1.497 . S
C470 H450 0.950 . S
C470 C469 1.442 . S
C470 C471 1.374 . S
C471 H451 0.950 . S
C471 C467 1.383 . S
C471 C470 1.374 . S
C472 C469 1.497 . S
C472 C473 1.373 1_545 S
C472 C474 1.389 . S
C473 H452 0.950 . S
C473 C472 1.373 1_565 S
C473 C489 1.377 . S
C474 C472 1.389 . S
C474 C475 1.524 . S
C474 C488 1.377 . S
C475 C474 1.524 . S
C475 C476 1.397 . S
C475 C480 1.363 . S
C476 H453 0.950 . S
C476 C475 1.397 . S
C476 C477 1.334 . S
C477 H454 0.950 . S
C477 C476 1.334 . S
C477 C478 1.287 . S
C478 C477 1.287 . S
C478 C479 1.524 . S
C478 H497 0.913 . S
C479 H455 0.950 . S
C479 C478 1.524 . S
C479 C480 1.415 . S
C480 H456 0.952 1_545 S
C480 C475 1.363 . S
C480 C479 1.415 . S
C481 H457 0.951 . S
C481 C482 1.364 1_545 S
C481 C483 1.388 . S
C482 C481 1.364 1_565 S
C482 C486 1.386 . S
C483 H458 0.951 . S
C483 C481 1.388 . S
C483 C484 1.366 1_545 S
C484 C483 1.366 1_565 S
C484 C485 1.414 . S
C484 C487 1.499 . S
C485 H459 0.950 . S
C485 C484 1.414 . S
C485 C486 1.374 . S
C486 H460 0.950 . S
C486 C482 1.386 . S
C486 C485 1.374 . S
C487 C484 1.499 . S
C487 C488 1.373 1_565 S
C487 C489 1.389 . S
C488 H461 0.950 . S
C488 C474 1.377 . S
C488 C487 1.373 1_545 S
C489 C473 1.377 . S
C489 C487 1.389 . S
C489 C490 1.524 . S
C490 C489 1.524 . S
C490 C491 1.397 . S
C490 C495 1.363 . S
C491 H462 0.950 . S
C491 C490 1.397 . S
C491 C492 1.334 . S
C492 H463 0.950 . S
C492 C491 1.334 . S
C492 C493 1.287 . S
C493 C492 1.287 . S
C493 C494 1.524 . S
C493 H496 0.999 . S
C494 H464 0.950 . S
C494 C493 1.524 . S
C494 C495 1.415 . S
C495 H465 0.945 . S
C495 C490 1.363 . S
C495 C494 1.415 . S
H496 C493 0.999 . S
H497 C478 0.913 . S
H498 C516 0.951 . S
H499 C518 0.951 . S
H500 C520 0.950 . S
H501 C521 0.950 . S
H502 C523 0.950 . S
H503 C526 0.950 . S
H504 C527 0.950 . S
H505 C529 0.950 . S
H506 C530 0.950 . S
H507 C531 0.951 . S
H508 C533 0.951 . S
H509 C535 0.950 . S
H510 C536 0.950 . S
H511 C538 0.950 . S
H512 C541 0.950 . S
H513 C542 0.950 . S
H514 C544 0.950 . S
H515 C545 0.950 . S
C516 H498 0.951 . S
C516 C517 1.366 . S
C516 C518 1.388 . S
C517 C516 1.366 . S
C517 C521 1.385 . S
C518 H499 0.951 . S
C518 C516 1.388 . S
C518 C519 1.366 . S
C519 C518 1.366 . S
C519 C520 1.414 . S
C519 C522 1.499 . S
C520 H500 0.950 . S
C520 C519 1.414 . S
C520 C521 1.374 . S
C521 H501 0.950 . S
C521 C517 1.385 . S
C521 C520 1.374 . S
C522 C519 1.499 . S
C522 C523 1.373 . S
C522 C524 1.389 . S
C523 H502 0.950 . S
C523 C522 1.373 . S
C523 C539 1.377 . S
C524 C522 1.389 . S
C524 C525 1.524 . S
C524 C538 1.377 . S
C525 C524 1.524 . S
C525 C526 1.397 . S
C525 C530 1.363 . S
C526 H503 0.950 . S
C526 C525 1.397 . S
C526 C527 1.334 . S
C527 H504 0.950 . S
C527 C526 1.334 . S
C527 C528 1.287 . S
C528 C527 1.287 . S
C528 C529 1.524 . S
C528 H547 0.913 . S
C529 H505 0.950 . S
C529 C528 1.524 . S
C529 C530 1.415 . S
C530 H506 0.950 . S
C530 C525 1.363 . S
C530 C529 1.415 . S
C531 H507 0.951 . S
C531 C532 1.366 . S
C531 C533 1.388 . S
C532 C531 1.366 . S
C532 C536 1.385 . S
C533 H508 0.951 . S
C533 C531 1.388 . S
C533 C534 1.366 . S
C534 C533 1.366 . S
C534 C535 1.414 . S
C534 C537 1.499 . S
C535 H509 0.950 . S
C535 C534 1.414 . S
C535 C536 1.374 . S
C536 H510 0.950 . S
C536 C532 1.385 . S
C536 C535 1.374 . S
C537 C534 1.499 . S
C537 C538 1.373 . S
C537 C539 1.389 . S
C538 H511 0.950 . S
C538 C524 1.377 . S
C538 C537 1.373 . S
C539 C523 1.377 . S
C539 C537 1.389 . S
C539 C540 1.524 . S
C540 C539 1.524 . S
C540 C541 1.397 . S
C540 C545 1.363 . S
C541 H512 0.950 . S
C541 C540 1.397 . S
C541 C542 1.334 . S
C542 H513 0.950 . S
C542 C541 1.334 . S
C542 C543 1.287 . S
C543 C542 1.287 . S
C543 C544 1.524 . S
C543 H546 0.999 . S
C544 H514 0.950 . S
C544 C543 1.524 . S
C544 C545 1.415 . S
C545 H515 0.950 . S
C545 C540 1.363 . S
C545 C544 1.415 . S
H546 C543 0.999 . S
H547 C528 0.913 . S
H548 C566 0.951 . S
H549 C568 0.951 . S
H550 C570 0.950 . S
H551 C571 0.950 . S
H552 C573 0.950 . S
H553 C576 0.950 . S
H554 C577 0.950 . S
H555 C579 0.950 . S
H556 C580 0.950 . S
H557 C581 0.951 . S
H558 C583 0.951 . S
H559 C585 0.950 . S
H560 C586 0.950 . S
H561 C588 0.950 . S
H562 C591 0.950 . S
H563 C592 0.950 . S
H564 C594 0.950 . S
H565 C595 0.950 . S
C566 H548 0.951 . S
C566 C567 1.366 . S
C566 C568 1.388 . S
C567 C566 1.366 . S
C567 C571 1.385 . S
C568 H549 0.951 . S
C568 C566 1.388 . S
C568 C569 1.366 . S
C569 C568 1.366 . S
C569 C570 1.414 . S
C569 C572 1.499 . S
C570 H550 0.950 . S
C570 C569 1.414 . S
C570 C571 1.374 . S
C571 H551 0.950 . S
C571 C567 1.385 . S
C571 C570 1.374 . S
C572 C569 1.499 . S
C572 C573 1.373 . S
C572 C574 1.389 . S
C573 H552 0.950 . S
C573 C572 1.373 . S
C573 C589 1.377 . S
C574 C572 1.389 . S
C574 C575 1.524 . S
C574 C588 1.377 . S
C575 C574 1.524 . S
C575 C576 1.397 . S
C575 C580 1.363 . S
C576 H553 0.950 . S
C576 C575 1.397 . S
C576 C577 1.334 . S
C577 H554 0.950 . S
C577 C576 1.334 . S
C577 C578 1.287 . S
C578 C577 1.287 . S
C578 C579 1.524 . S
C578 H597 0.913 . S
C579 H555 0.950 . S
C579 C578 1.524 . S
C579 C580 1.415 . S
C580 H556 0.950 . S
C580 C575 1.363 . S
C580 C579 1.415 . S
C581 H557 0.951 . S
C581 C582 1.366 . S
C581 C583 1.388 . S
C582 C581 1.366 . S
C582 C586 1.385 . S
C583 H558 0.951 . S
C583 C581 1.388 . S
C583 C584 1.366 . S
C584 C583 1.366 . S
C584 C585 1.414 . S
C584 C587 1.499 . S
C585 H559 0.950 . S
C585 C584 1.414 . S
C585 C586 1.374 . S
C586 H560 0.950 . S
C586 C582 1.385 . S
C586 C585 1.374 . S
C587 C584 1.499 . S
C587 C588 1.373 . S
C587 C589 1.389 . S
C588 H561 0.950 . S
C588 C574 1.377 . S
C588 C587 1.373 . S
C589 C573 1.377 . S
C589 C587 1.389 . S
C589 C590 1.524 . S
C590 C589 1.524 . S
C590 C591 1.397 . S
C590 C595 1.363 . S
C591 H562 0.950 . S
C591 C590 1.397 . S
C591 C592 1.334 . S
C592 H563 0.950 . S
C592 C591 1.334 . S
C592 C593 1.287 . S
C593 C592 1.287 . S
C593 C594 1.524 . S
C593 H596 0.999 . S
C594 H564 0.950 . S
C594 C593 1.524 . S
C594 C595 1.415 . S
C595 H565 0.950 . S
C595 C590 1.363 . S
C595 C594 1.415 . S
H596 C593 0.999 . S
H597 C578 0.913 . S
H598 C616 0.951 . S
H599 C618 0.951 . S
H600 C620 0.950 1_655 S
H601 C621 0.950 . S
H602 C623 0.950 1_655 S
H603 C626 0.950 . S
H604 C627 0.950 . S
H605 C629 0.950 . S
H606 C630 0.950 . S
H607 C631 0.951 . S
H608 C633 0.951 . S
H609 C635 0.950 . S
H610 C636 0.950 . S
H611 C638 0.950 . S
H612 C641 0.950 . S
H613 C642 0.950 . S
H614 C644 0.950 . S
H615 C645 0.950 . S
C616 H598 0.951 . S
C616 C617 1.366 . S
C616 C618 1.388 . S
C617 C616 1.366 . S
C617 C621 1.385 . S
C618 H599 0.951 . S
C618 C616 1.388 . S
C618 C619 1.366 . S
C619 C618 1.366 . S
C619 C620 1.414 . S
C619 C622 1.499 . S
C620 H600 0.950 1_455 S
C620 C619 1.414 . S
C620 C621 1.374 . S
C621 H601 0.950 . S
C621 C617 1.385 . S
C621 C620 1.374 . S
C622 C619 1.499 . S
C622 C623 1.373 . S
C622 C624 1.389 . S
C623 H602 0.950 1_455 S
C623 C622 1.373 . S
C623 C639 1.377 . S
C624 C622 1.389 . S
C624 C625 1.524 . S
C624 C638 1.377 . S
C625 C624 1.524 . S
C625 C626 1.397 . S
C625 C630 1.363 . S
C626 H603 0.950 . S
C626 C625 1.397 . S
C626 C627 1.334 . S
C627 H604 0.950 . S
C627 C626 1.334 . S
C627 C628 1.287 . S
C628 C627 1.287 . S
C628 C629 1.524 . S
C628 H647 0.913 . S
C629 H605 0.950 . S
C629 C628 1.524 . S
C629 C630 1.415 . S
C630 H606 0.950 . S
C630 C625 1.363 . S
C630 C629 1.415 . S
C631 H607 0.951 . S
C631 C632 1.366 1_655 S
C631 C633 1.388 . S
C632 C631 1.366 1_455 S
C632 C636 1.385 . S
C633 H608 0.951 . S
C633 C631 1.388 . S
C633 C634 1.366 1_655 S
C634 C633 1.366 1_455 S
C634 C635 1.414 . S
C634 C637 1.499 . S
C635 H609 0.950 . S
C635 C634 1.414 . S
C635 C636 1.374 . S
C636 H610 0.950 . S
C636 C632 1.385 . S
C636 C635 1.374 . S
C637 C634 1.499 . S
C637 C638 1.373 . S
C637 C639 1.389 . S
C638 H611 0.950 . S
C638 C624 1.377 . S
C638 C637 1.373 . S
C639 C623 1.377 . S
C639 C637 1.389 . S
C639 C640 1.524 1_455 S
C640 C639 1.524 1_655 S
C640 C641 1.397 . S
C640 C645 1.363 . S
C641 H612 0.950 . S
C641 C640 1.397 . S
C641 C642 1.334 . S
C642 H613 0.950 . S
C642 C641 1.334 . S
C642 C643 1.287 . S
C643 C642 1.287 . S
C643 C644 1.524 . S
C643 H646 0.999 . S
C644 H614 0.950 . S
C644 C643 1.524 . S
C644 C645 1.415 . S
C645 H615 0.950 . S
C645 C640 1.363 . S
C645 C644 1.415 . S
H646 C643 0.999 . S
H647 C628 0.913 . S
H648 C666 0.951 . S
H649 C668 0.966 . S
H650 C670 0.950 . S
H651 C671 0.950 . S
H652 C673 0.950 . S
H653 C676 0.950 . S
H654 C677 0.950 . S
H655 C679 0.950 . S
H656 C680 0.950 . S
H657 C681 0.951 . S
H658 C683 0.951 . S
H659 C685 0.950 . S
H660 C686 0.950 . S
H661 C688 0.950 . S
H662 C691 0.950 . S
H663 C692 0.950 . S
H664 C694 0.950 . S
H665 C695 0.950 . S
C666 H648 0.951 . S
C666 C667 1.364 1_565 S
C666 C668 1.388 . S
C667 C666 1.364 1_545 S
C667 C671 1.387 . S
C668 H649 0.966 . S
C668 C666 1.388 . S
C668 C669 1.386 . S
C669 C668 1.386 . S
C669 C670 1.395 1_565 S
C669 C672 1.497 1_554 S
C670 H650 0.950 . S
C670 C669 1.395 1_545 S
C670 C671 1.374 . S
C671 H651 0.950 . S
C671 C667 1.387 . S
C671 C670 1.374 . S
C672 C669 1.497 1_556 S
C672 C673 1.367 1_565 S
C672 C674 1.395 . S
C673 H652 0.950 . S
C673 C672 1.367 1_545 S
C673 C689 1.377 . S
C674 C672 1.395 . S
C674 C675 1.524 . S
C674 C688 1.377 . S
C675 C674 1.524 . S
C675 C676 1.397 1_556 S
C675 C680 1.363 . S
C676 H653 0.950 . S
C676 C675 1.397 1_554 S
C676 C677 1.334 . S
C677 H654 0.950 . S
C677 C676 1.334 . S
C677 C678 1.287 . S
C678 C677 1.287 . S
C678 C679 1.524 1_554 S
C678 H697 0.913 . S
C679 H655 0.950 . S
C679 C678 1.524 1_556 S
C679 C680 1.415 . S
C680 H656 0.950 . S
C680 C675 1.363 . S
C680 C679 1.415 . S
C681 H657 0.951 . S
C681 C682 1.376 . S
C681 C683 1.388 . S
C682 C681 1.376 . S
C682 C686 1.374 1_545 S
C683 H658 0.951 . S
C683 C681 1.388 . S
C683 C684 1.366 . S
C684 C683 1.366 . S
C684 C685 1.414 1_545 S
C684 C687 1.503 . S
C685 H659 0.950 . S
C685 C684 1.414 1_565 S
C685 C686 1.374 . S
C686 H660 0.950 . S
C686 C682 1.374 1_565 S
C686 C685 1.374 . S
C687 C684 1.503 . S
C687 C688 1.337 1_545 S
C687 C689 1.422 . S
C688 H661 0.950 . S
C688 C674 1.377 . S
C688 C687 1.337 1_565 S
C689 C673 1.377 . S
C689 C687 1.422 . S
C689 C690 1.524 . S
C690 C689 1.524 . S
C690 C691 1.397 . S
C690 C695 1.363 . S
C691 H662 0.950 . S
C691 C690 1.397 . S
C691 C692 1.334 . S
C692 H663 0.950 . S
C692 C691 1.334 . S
C692 C693 1.287 . S
C693 C692 1.287 . S
C693 C694 1.524 . S
C693 H696 0.999 . S
C694 H664 0.950 . S
C694 C693 1.524 . S
C694 C695 1.415 . S
C695 H665 0.950 . S
C695 C690 1.363 . S
C695 C694 1.415 . S
H696 C693 0.999 . S
H697 C678 0.913 . S
H698 C716 0.951 . S
H699 C718 0.951 . S
H700 C720 0.950 . S
H701 C721 0.950 . S
H702 C723 0.950 . S
H703 C726 0.950 . S
H704 C727 0.950 . S
H705 C729 0.950 . S
H706 C730 0.950 . S
H707 C731 0.951 . S
H708 C733 0.951 . S
H709 C735 0.950 . S
H710 C736 0.950 . S
H711 C738 0.950 . S
H712 C741 0.950 . S
H713 C742 0.950 . S
H714 C744 0.950 . S
H715 C745 0.950 . S
C716 H698 0.951 . S
C716 C717 1.366 . S
C716 C718 1.388 . S
C717 C716 1.366 . S
C717 C721 1.385 . S
C718 H699 0.951 . S
C718 C716 1.388 . S
C718 C719 1.366 . S
C719 C718 1.366 . S
C719 C720 1.414 . S
C719 C722 1.499 . S
C720 H700 0.950 . S
C720 C719 1.414 . S
C720 C721 1.374 . S
C721 H701 0.950 . S
C721 C717 1.385 . S
C721 C720 1.374 . S
C722 C719 1.499 . S
C722 C723 1.373 . S
C722 C724 1.389 . S
C723 H702 0.950 . S
C723 C722 1.373 . S
C723 C739 1.377 . S
C724 C722 1.389 . S
C724 C725 1.524 . S
C724 C738 1.377 . S
C725 C724 1.524 . S
C725 C726 1.397 1_556 S
C725 C730 1.363 . S
C726 H703 0.950 . S
C726 C725 1.397 1_554 S
C726 C727 1.334 . S
C727 H704 0.950 . S
C727 C726 1.334 . S
C727 C728 1.287 . S
C728 C727 1.287 . S
C728 C729 1.524 1_554 S
C728 H747 0.913 . S
C729 H705 0.950 . S
C729 C728 1.524 1_556 S
C729 C730 1.415 . S
C730 H706 0.950 . S
C730 C725 1.363 . S
C730 C729 1.415 . S
C731 H707 0.951 . S
C731 C732 1.366 . S
C731 C733 1.388 . S
C732 C731 1.366 . S
C732 C736 1.385 . S
C733 H708 0.951 . S
C733 C731 1.388 . S
C733 C734 1.366 . S
C734 C733 1.366 . S
C734 C735 1.414 . S
C734 C737 1.499 . S
C735 H709 0.950 . S
C735 C734 1.414 . S
C735 C736 1.374 . S
C736 H710 0.950 . S
C736 C732 1.385 . S
C736 C735 1.374 . S
C737 C734 1.499 . S
C737 C738 1.373 . S
C737 C739 1.389 . S
C738 H711 0.950 . S
C738 C724 1.377 . S
C738 C737 1.373 . S
C739 C723 1.377 . S
C739 C737 1.389 . S
C739 C740 1.524 . S
C740 C739 1.524 . S
C740 C741 1.397 . S
C740 C745 1.363 . S
C741 H712 0.950 . S
C741 C740 1.397 . S
C741 C742 1.334 . S
C742 H713 0.950 . S
C742 C741 1.334 . S
C742 C743 1.287 . S
C743 C742 1.287 . S
C743 C744 1.524 . S
C743 H746 0.999 . S
C744 H714 0.950 . S
C744 C743 1.524 . S
C744 C745 1.415 . S
C745 H715 0.950 . S
C745 C740 1.363 . S
C745 C744 1.415 . S
H746 C743 0.999 . S
H747 C728 0.913 . S
H748 C766 0.951 . S
H749 C768 0.951 . S
H750 C770 0.950 . S
H751 C771 0.950 . S
H752 C773 0.950 . S
H753 C776 0.950 . S
H754 C777 0.950 . S
H755 C779 0.950 . S
H756 C780 0.950 . S
H757 C781 0.951 . S
H758 C783 0.951 . S
H759 C785 0.950 . S
H760 C786 0.950 . S
H761 C788 0.950 . S
H762 C791 0.950 1_554 S
H763 C792 0.950 . S
H764 C794 0.950 . S
H765 C795 0.950 1_554 S
C766 H748 0.951 . S
C766 C767 1.366 . S
C766 C768 1.388 . S
C767 C766 1.366 . S
C767 C771 1.385 . S
C768 H749 0.951 . S
C768 C766 1.388 . S
C768 C769 1.366 . S
C769 C768 1.366 . S
C769 C770 1.414 . S
C769 C772 1.499 . S
C770 H750 0.950 . S
C770 C769 1.414 . S
C770 C771 1.374 . S
C771 H751 0.950 . S
C771 C767 1.385 . S
C771 C770 1.374 . S
C772 C769 1.499 . S
C772 C773 1.373 . S
C772 C774 1.389 . S
C773 H752 0.950 . S
C773 C772 1.373 . S
C773 C789 1.377 . S
C774 C772 1.389 . S
C774 C775 1.524 . S
C774 C788 1.377 . S
C775 C774 1.524 . S
C775 C776 1.397 . S
C775 C780 1.363 . S
C776 H753 0.950 . S
C776 C775 1.397 . S
C776 C777 1.334 . S
C777 H754 0.950 . S
C777 C776 1.334 . S
C777 C778 1.287 . S
C778 C777 1.287 . S
C778 C779 1.524 . S
C778 H797 0.913 . S
C779 H755 0.950 . S
C779 C778 1.524 . S
C779 C780 1.415 . S
C780 H756 0.950 . S
C780 C775 1.363 . S
C780 C779 1.415 . S
C781 H757 0.951 . S
C781 C782 1.366 . S
C781 C783 1.388 . S
C782 C781 1.366 . S
C782 C786 1.385 . S
C783 H758 0.951 . S
C783 C781 1.388 . S
C783 C784 1.366 1_556 S
C784 C783 1.366 1_554 S
C784 C785 1.414 . S
C784 C787 1.499 . S
C785 H759 0.950 . S
C785 C784 1.414 . S
C785 C786 1.374 1_554 S
C786 H760 0.950 . S
C786 C782 1.385 . S
C786 C785 1.374 1_556 S
C787 C784 1.499 . S
C787 C788 1.373 . S
C787 C789 1.389 . S
C788 H761 0.950 . S
C788 C774 1.377 . S
C788 C787 1.373 . S
C789 C773 1.377 . S
C789 C787 1.389 . S
C789 C790 1.524 . S
C790 C789 1.524 . S
C790 C791 1.397 1_554 S
C790 C795 1.363 1_554 S
C791 H762 0.950 1_556 S
C791 C790 1.397 1_556 S
C791 C792 1.334 . S
C792 H763 0.950 . S
C792 C791 1.334 . S
C792 C793 1.287 . S
C793 C792 1.287 . S
C793 C794 1.524 . S
C793 H796 0.999 . S
C794 H764 0.950 . S
C794 C793 1.524 . S
C794 C795 1.415 . S
C795 H765 0.950 1_556 S
C795 C790 1.363 1_556 S
C795 C794 1.415 . S
H796 C793 0.999 . S
H797 C778 0.913 . S
H798 C816 0.951 . S
H799 C818 0.951 . S
H800 C820 0.950 . S
H801 C821 0.950 . S
H802 C823 0.950 1_455 S
H803 C826 0.950 1_455 S
H804 C827 0.950 . S
H805 C829 0.950 . S
H806 C830 0.950 . S
H807 C831 0.951 . S
H808 C833 0.951 . S
H809 C835 0.950 . S
H810 C836 0.950 . S
H811 C838 0.950 . S
H812 C841 0.950 . S
H813 C842 0.950 . S
H814 C844 0.950 . S
H815 C845 0.950 . S
C816 H798 0.951 . S
C816 C817 1.366 . S
C816 C818 1.388 . S
C817 C816 1.366 . S
C817 C821 1.385 1_655 S
C818 H799 0.951 . S
C818 C816 1.388 . S
C818 C819 1.366 . S
C819 C818 1.366 . S
C819 C820 1.414 1_655 S
C819 C822 1.499 . S
C820 H800 0.950 . S
C820 C819 1.414 1_455 S
C820 C821 1.374 . S
C821 H801 0.950 . S
C821 C817 1.385 1_455 S
C821 C820 1.374 . S
C822 C819 1.499 . S
C822 C823 1.373 1_554 S
C822 C824 1.389 . S
C823 H802 0.950 1_655 S
C823 C822 1.373 1_556 S
C823 C839 1.377 . S
C824 C822 1.389 . S
C824 C825 1.524 . S
C824 C838 1.377 1_554 S
C825 C824 1.524 . S
C825 C826 1.397 . S
C825 C830 1.363 . S
C826 H803 0.950 1_655 S
C826 C825 1.397 . S
C826 C827 1.334 . S
C827 H804 0.950 . S
C827 C826 1.334 . S
C827 C828 1.287 . S
C828 C827 1.287 . S
C828 C829 1.524 . S
C828 H847 0.913 . S
C829 H805 0.950 . S
C829 C828 1.524 . S
C829 C830 1.415 . S
C830 H806 0.950 . S
C830 C825 1.363 . S
C830 C829 1.415 . S
C831 H807 0.951 . S
C831 C832 1.361 . S
C831 C833 1.388 . S
C832 C831 1.361 . S
C832 C836 1.390 1_455 S
C833 H808 0.951 . S
C833 C831 1.388 . S
C833 C834 1.366 1_455 S
C834 C833 1.366 1_655 S
C834 C835 1.414 . S
C834 C837 1.499 . S
C835 H809 0.950 . S
C835 C834 1.414 . S
C835 C836 1.374 . S
C836 H810 0.950 . S
C836 C832 1.390 1_655 S
C836 C835 1.374 . S
C837 C834 1.499 . S
C837 C838 1.373 . S
C837 C839 1.389 . S
C838 H811 0.950 . S
C838 C824 1.377 1_556 S
C838 C837 1.373 . S
C839 C823 1.377 . S
C839 C837 1.389 . S
C839 C840 1.524 1_655 S
C840 C839 1.524 1_455 S
C840 C841 1.397 1_455 S
C840 C845 1.363 . S
C841 H812 0.950 . S
C841 C840 1.397 1_655 S
C841 C842 1.334 . S
C842 H813 0.950 . S
C842 C841 1.334 . S
C842 C843 1.287 1_655 S
C843 C842 1.287 1_455 S
C843 C844 1.524 . S
C843 H846 0.999 . S
C844 H814 0.950 . S
C844 C843 1.524 . S
C844 C845 1.415 . S
C845 H815 0.950 . S
C845 C840 1.363 . S
C845 C844 1.415 . S
H846 C843 0.999 . S
H847 C828 0.913 . S
H848 C866 0.951 . S
H849 C868 0.951 . S
H850 C870 0.950 . S
H851 C871 0.950 . S
H852 C873 0.957 . S
H853 C876 0.950 . S
H854 C877 0.950 . S
H855 C879 0.950 . S
H856 C880 0.950 . S
H857 C881 0.951 . S
H858 C883 0.957 . S
H859 C885 0.950 . S
H860 C886 0.950 . S
H861 C888 0.950 . S
H862 C891 0.950 . S
H863 C892 0.950 . S
H864 C894 0.950 . S
H865 C895 0.950 . S
C866 H848 0.951 . S
C866 C867 1.366 . S
C866 C868 1.388 . S
C867 C866 1.366 . S
C867 C871 1.385 . S
C868 H849 0.951 . S
C868 C866 1.388 . S
C868 C869 1.366 . S
C869 C868 1.366 . S
C869 C870 1.414 . S
C869 C872 1.499 . S
C870 H850 0.950 . S
C870 C869 1.414 . S
C870 C871 1.374 . S
C871 H851 0.950 . S
C871 C867 1.385 . S
C871 C870 1.374 . S
C872 C869 1.499 . S
C872 C873 1.373 . S
C872 C874 1.389 . S
C873 H852 0.957 . S
C873 C872 1.373 . S
C873 C889 1.377 1_455 S
C874 C872 1.389 . S
C874 C875 1.524 . S
C874 C888 1.377 . S
C875 C874 1.524 . S
C875 C876 1.397 . S
C875 C880 1.363 . S
C876 H853 0.950 . S
C876 C875 1.397 . S
C876 C877 1.334 . S
C877 H854 0.950 . S
C877 C876 1.334 . S
C877 C878 1.287 . S
C878 C877 1.287 . S
C878 C879 1.524 . S
C878 H897 0.913 . S
C879 H855 0.950 . S
C879 C878 1.524 . S
C879 C880 1.415 . S
C880 H856 0.950 . S
C880 C875 1.363 . S
C880 C879 1.415 . S
C881 H857 0.951 . S
C881 C882 1.366 . S
C881 C883 1.382 1_655 S
C882 C881 1.366 . S
C882 C886 1.385 . S
C883 H858 0.957 . S
C883 C881 1.382 1_455 S
C883 C884 1.366 1_455 S
C884 C883 1.366 1_655 S
C884 C885 1.414 . S
C884 C887 1.499 1_655 S
C885 H859 0.950 . S
C885 C884 1.414 . S
C885 C886 1.374 . S
C886 H860 0.950 . S
C886 C882 1.385 . S
C886 C885 1.374 . S
C887 C884 1.499 1_455 S
C887 C888 1.373 . S
C887 C889 1.389 1_455 S
C888 H861 0.950 . S
C888 C874 1.377 . S
C888 C887 1.373 . S
C889 C873 1.377 1_655 S
C889 C887 1.389 1_655 S
C889 C890 1.524 . S
C890 C889 1.524 . S
C890 C891 1.397 . S
C890 C895 1.363 . S
C891 H862 0.950 . S
C891 C890 1.397 . S
C891 C892 1.334 . S
C892 H863 0.950 . S
C892 C891 1.334 . S
C892 C893 1.287 . S
C893 C892 1.287 . S
C893 C894 1.524 . S
C893 H896 0.999 . S
C894 H864 0.950 . S
C894 C893 1.524 . S
C894 C895 1.415 . S
C895 H865 0.950 . S
C895 C890 1.363 . S
C895 C894 1.415 . S
H896 C893 0.999 . S
H897 C878 0.913 . S
H898 C916 0.951 . S
H899 C918 0.951 . S
H900 C920 0.950 . S
H901 C921 0.950 . S
H902 C923 0.950 . S
H903 C926 0.950 . S
H904 C927 0.950 . S
H905 C929 0.950 . S
H906 C930 0.950 . S
H907 C931 0.951 . S
H908 C933 0.951 . S
H909 C935 0.950 . S
H910 C936 0.950 . S
H911 C938 0.950 1_545 S
H912 C941 0.950 . S
H913 C942 0.950 . S
H914 C944 0.950 . S
H915 C945 0.950 . S
C916 H898 0.951 . S
C916 C917 1.352 1_565 S
C916 C918 1.388 . S
C917 C916 1.352 1_545 S
C917 C921 1.399 . S
C918 H899 0.951 . S
C918 C916 1.388 . S
C918 C919 1.366 . S
C919 C918 1.366 . S
C919 C920 1.414 1_565 S
C919 C922 1.499 . S
C920 H900 0.950 . S
C920 C919 1.414 1_545 S
C920 C921 1.374 . S
C921 H901 0.950 . S
C921 C917 1.399 . S
C921 C920 1.374 . S
C922 C919 1.499 . S
C922 C923 1.373 . S
C922 C924 1.389 1_565 S
C923 H902 0.950 . S
C923 C922 1.373 . S
C923 C939 1.377 . S
C924 C922 1.389 1_545 S
C924 C925 1.524 . S
C924 C938 1.377 1_545 S
C925 C924 1.524 . S
C925 C926 1.397 . S
C925 C930 1.363 . S
C926 H903 0.950 . S
C926 C925 1.397 . S
C926 C927 1.334 . S
C927 H904 0.950 . S
C927 C926 1.334 . S
C927 C928 1.287 . S
C928 C927 1.287 . S
C928 C929 1.524 . S
C928 H947 0.913 . S
C929 H905 0.950 . S
C929 C928 1.524 . S
C929 C930 1.415 . S
C930 H906 0.950 . S
C930 C925 1.363 . S
C930 C929 1.415 . S
C931 H907 0.951 . S
C931 C932 1.366 . S
C931 C933 1.388 . S
C932 C931 1.366 . S
C932 C936 1.385 . S
C933 H908 0.951 . S
C933 C931 1.388 . S
C933 C934 1.366 . S
C934 C933 1.366 . S
C934 C935 1.414 . S
C934 C937 1.499 . S
C935 H909 0.950 . S
C935 C934 1.414 . S
C935 C936 1.374 . S
C936 H910 0.950 . S
C936 C932 1.385 . S
C936 C935 1.374 . S
C937 C934 1.499 . S
C937 C938 1.373 . S
C937 C939 1.389 . S
C938 H911 0.950 1_565 S
C938 C924 1.377 1_565 S
C938 C937 1.373 . S
C939 C923 1.377 . S
C939 C937 1.389 . S
C939 C940 1.524 . S
C940 C939 1.524 . S
C940 C941 1.397 . S
C940 C945 1.363 . S
C941 H912 0.950 . S
C941 C940 1.397 . S
C941 C942 1.334 . S
C942 H913 0.950 . S
C942 C941 1.334 . S
C942 C943 1.287 . S
C943 C942 1.287 . S
C943 C944 1.524 . S
C943 H946 0.999 . S
C944 H914 0.950 . S
C944 C943 1.524 . S
C944 C945 1.415 . S
C945 H915 0.950 . S
C945 C940 1.363 . S
C945 C944 1.415 . S
H946 C943 0.999 . S
H947 C928 0.913 . S
H948 C966 0.951 . S
H949 C968 0.951 . S
H950 C970 0.950 . S
H951 C971 0.950 . S
H952 C973 0.950 . S
H953 C976 0.950 . S
H954 C977 0.950 . S
H955 C979 0.950 . S
H956 C980 0.950 . S
H957 C981 0.951 . S
H958 C983 0.951 . S
H959 C985 0.950 . S
H960 C986 0.950 . S
H961 C988 0.950 . S
H962 C991 0.950 . S
H963 C992 0.950 . S
H964 C994 0.950 . S
H965 C995 0.950 . S
C966 H948 0.951 . S
C966 C967 1.366 . S
C966 C968 1.388 . S
C967 C966 1.366 . S
C967 C971 1.385 . S
C968 H949 0.951 . S
C968 C966 1.388 . S
C968 C969 1.366 . S
C969 C968 1.366 . S
C969 C970 1.414 . S
C969 C972 1.499 . S
C970 H950 0.950 . S
C970 C969 1.414 . S
C970 C971 1.374 . S
C971 H951 0.950 . S
C971 C967 1.385 . S
C971 C970 1.374 . S
C972 C969 1.499 . S
C972 C973 1.373 . S
C972 C974 1.389 . S
C973 H952 0.950 . S
C973 C972 1.373 . S
C973 C989 1.377 . S
C974 C972 1.389 . S
C974 C975 1.524 . S
C974 C988 1.377 . S
C975 C974 1.524 . S
C975 C976 1.397 . S
C975 C980 1.363 . S
C976 H953 0.950 . S
C976 C975 1.397 . S
C976 C977 1.334 . S
C977 H954 0.950 . S
C977 C976 1.334 . S
C977 C978 1.287 . S
C978 C977 1.287 . S
C978 C979 1.524 . S
C978 H997 0.913 . S
C979 H955 0.950 . S
C979 C978 1.524 . S
C979 C980 1.415 . S
C980 H956 0.950 . S
C980 C975 1.363 . S
C980 C979 1.415 . S
C981 H957 0.951 . S
C981 C982 1.366 . S
C981 C983 1.388 . S
C982 C981 1.366 . S
C982 C986 1.385 . S
C983 H958 0.951 . S
C983 C981 1.388 . S
C983 C984 1.366 . S
C984 C983 1.366 . S
C984 C985 1.414 . S
C984 C987 1.499 . S
C985 H959 0.950 . S
C985 C984 1.414 . S
C985 C986 1.374 . S
C986 H960 0.950 . S
C986 C982 1.385 . S
C986 C985 1.374 . S
C987 C984 1.499 . S
C987 C988 1.373 . S
C987 C989 1.389 . S
C988 H961 0.950 . S
C988 C974 1.377 . S
C988 C987 1.373 . S
C989 C973 1.377 . S
C989 C987 1.389 . S
C989 C990 1.524 . S
C990 C989 1.524 . S
C990 C991 1.397 . S
C990 C995 1.363 . S
C991 H962 0.950 . S
C991 C990 1.397 . S
C991 C992 1.334 . S
C992 H963 0.950 . S
C992 C991 1.334 . S
C992 C993 1.287 . S
C993 C992 1.287 . S
C993 C994 1.524 . S
C993 H996 0.999 . S
C994 H964 0.950 . S
C994 C993 1.524 . S
C994 C995 1.415 . S
C995 H965 0.950 . S
C995 C990 1.363 . S
C995 C994 1.415 . S
H996 C993 0.999 . S
H997 C978 0.913 . S
H998 C1016 0.951 . S
H999 C1018 0.951 . S
H1000 C1020 0.950 . S
H1001 C1021 0.950 . S
H1002 C1023 0.950 . S
H1003 C1026 0.950 . S
H1004 C1027 0.950 . S
H1005 C1029 0.950 . S
H1006 C1030 0.950 . S
H1007 C1031 0.951 . S
H1008 C1033 0.951 . S
H1009 C1035 0.950 . S
H1010 C1036 0.950 . S
H1011 C1038 0.950 . S
H1012 C1041 0.950 . S
H1013 C1042 0.950 . S
H1014 C1044 0.950 . S
H1015 C1045 0.950 . S
C1016 H998 0.951 . S
C1016 C1017 1.366 . S
C1016 C1018 1.388 . S
C1017 C1016 1.366 . S
C1017 C1021 1.385 . S
C1018 H999 0.951 . S
C1018 C1016 1.388 . S
C1018 C1019 1.366 . S
C1019 C1018 1.366 . S
C1019 C1020 1.414 . S
C1019 C1022 1.499 . S
C1020 H1000 0.950 . S
C1020 C1019 1.414 . S
C1020 C1021 1.374 . S
C1021 H1001 0.950 . S
C1021 C1017 1.385 . S
C1021 C1020 1.374 . S
C1022 C1019 1.499 . S
C1022 C1023 1.373 . S
C1022 C1024 1.389 . S
C1023 H1002 0.950 . S
C1023 C1022 1.373 . S
C1023 C1039 1.377 . S
C1024 C1022 1.389 . S
C1024 C1025 1.524 . S
C1024 C1038 1.377 . S
C1025 C1024 1.524 . S
C1025 C1026 1.397 . S
C1025 C1030 1.363 . S
C1026 H1003 0.950 . S
C1026 C1025 1.397 . S
C1026 C1027 1.334 . S
C1027 H1004 0.950 . S
C1027 C1026 1.334 . S
C1027 C1028 1.287 . S
C1028 C1027 1.287 . S
C1028 C1029 1.524 . S
C1028 H1047 0.913 . S
C1029 H1005 0.950 . S
C1029 C1028 1.524 . S
C1029 C1030 1.415 . S
C1030 H1006 0.950 . S
C1030 C1025 1.363 . S
C1030 C1029 1.415 . S
C1031 H1007 0.951 . S
C1031 C1032 1.366 . S
C1031 C1033 1.388 . S
C1032 C1031 1.366 . S
C1032 C1036 1.385 . S
C1033 H1008 0.951 . S
C1033 C1031 1.388 . S
C1033 C1034 1.366 . S
C1034 C1033 1.366 . S
C1034 C1035 1.414 . S
C1034 C1037 1.499 . S
C1035 H1009 0.950 . S
C1035 C1034 1.414 . S
C1035 C1036 1.374 . S
C1036 H1010 0.950 . S
C1036 C1032 1.385 . S
C1036 C1035 1.374 . S
C1037 C1034 1.499 . S
C1037 C1038 1.373 . S
C1037 C1039 1.389 . S
C1038 H1011 0.950 . S
C1038 C1024 1.377 . S
C1038 C1037 1.373 . S
C1039 C1023 1.377 . S
C1039 C1037 1.389 . S
C1039 C1040 1.524 . S
C1040 C1039 1.524 . S
C1040 C1041 1.397 . S
C1040 C1045 1.363 . S
C1041 H1012 0.950 . S
C1041 C1040 1.397 . S
C1041 C1042 1.334 . S
C1042 H1013 0.950 . S
C1042 C1041 1.334 . S
C1042 C1043 1.287 . S
C1043 C1042 1.287 . S
C1043 C1044 1.524 . S
C1043 H1046 0.999 . S
C1044 H1014 0.950 . S
C1044 C1043 1.524 . S
C1044 C1045 1.415 . S
C1045 H1015 0.950 . S
C1045 C1040 1.363 . S
C1045 C1044 1.415 . S
H1046 C1043 0.999 . S
H1047 C1028 0.913 . S
H1048 C1066 0.951 1_455 S
H1049 C1068 0.951 . S
H1050 C1070 0.950 . S
H1051 C1071 0.950 . S
H1052 C1073 0.950 . S
H1053 C1076 0.950 . S
H1054 C1077 0.950 . S
H1055 C1079 0.950 . S
H1056 C1080 0.950 . S
H1057 C1081 0.951 1_655 S
H1058 C1083 0.951 . S
H1059 C1085 0.950 . S
H1060 C1086 0.950 . S
H1061 C1088 0.951 . S
H1062 C1091 0.950 . S
H1063 C1092 0.950 . S
H1064 C1094 0.950 . S
H1065 C1095 0.950 . S
C1066 H1048 0.951 1_655 S
C1066 C1067 1.366 . S
C1066 C1068 1.388 1_655 S
C1067 C1066 1.366 . S
C1067 C1071 1.385 . S
C1068 H1049 0.951 . S
C1068 C1066 1.388 1_455 S
C1068 C1069 1.366 1_455 S
C1069 C1068 1.366 1_655 S
C1069 C1070 1.414 . S
C1069 C1072 1.499 . S
C1070 H1050 0.950 . S
C1070 C1069 1.414 . S
C1070 C1071 1.374 . S
C1071 H1051 0.950 . S
C1071 C1067 1.385 . S
C1071 C1070 1.374 . S
C1072 C1069 1.499 . S
C1072 C1073 1.373 1_554 S
C1072 C1074 1.389 1_655 S
C1073 H1052 0.950 . S
C1073 C1072 1.373 1_556 S
C1073 C1089 1.377 . S
C1074 C1072 1.389 1_455 S
C1074 C1075 1.524 . S
C1074 C1088 1.377 1_554 S
C1075 C1074 1.524 . S
C1075 C1076 1.397 . S
C1075 C1080 1.363 . S
C1076 H1053 0.950 . S
C1076 C1075 1.397 . S
C1076 C1077 1.334 . S
C1077 H1054 0.950 . S
C1077 C1076 1.334 . S
C1077 C1078 1.287 . S
C1078 C1077 1.287 . S
C1078 C1079 1.524 . S
C1078 H1097 0.913 . S
C1079 H1055 0.950 . S
C1079 C1078 1.524 . S
C1079 C1080 1.415 . S
C1080 H1056 0.950 . S
C1080 C1075 1.363 . S
C1080 C1079 1.415 . S
C1081 H1057 0.951 1_455 S
C1081 C1082 1.366 . S
C1081 C1083 1.388 1_455 S
C1082 C1081 1.366 . S
C1082 C1086 1.385 . S
C1083 H1058 0.951 . S
C1083 C1081 1.388 1_655 S
C1083 C1084 1.366 1_655 S
C1084 C1083 1.366 1_455 S
C1084 C1085 1.414 . S
C1084 C1087 1.499 . S
C1085 H1059 0.950 . S
C1085 C1084 1.414 . S
C1085 C1086 1.374 . S
C1086 H1060 0.950 . S
C1086 C1082 1.385 . S
C1086 C1085 1.374 . S
C1087 C1084 1.499 . S
C1087 C1088 1.373 . S
C1087 C1089 1.389 1_455 S
C1088 H1061 0.951 . S
C1088 C1074 1.377 1_556 S
C1088 C1087 1.373 . S
C1089 C1073 1.377 . S
C1089 C1087 1.389 1_655 S
C1089 C1090 1.524 . S
C1090 C1089 1.524 . S
C1090 C1091 1.397 . S
C1090 C1095 1.363 . S
C1091 H1062 0.950 . S
C1091 C1090 1.397 . S
C1091 C1092 1.334 . S
C1092 H1063 0.950 . S
C1092 C1091 1.334 . S
C1092 C1093 1.287 . S
C1093 C1092 1.287 . S
C1093 C1094 1.524 . S
C1093 H1096 0.999 . S
C1094 H1064 0.950 . S
C1094 C1093 1.524 . S
C1094 C1095 1.415 . S
C1095 H1065 0.950 . S
C1095 C1090 1.363 . S
C1095 C1094 1.415 . S
H1096 C1093 0.999 . S
H1097 C1078 0.913 . S
H1098 C1116 0.951 . S
H1099 C1118 0.951 . S
H1100 C1120 0.938 1_556 S
H1101 C1121 0.950 . S
H1102 C1123 0.948 1_565 S
H1103 C1126 0.950 1_565 S
H1104 C1127 0.956 . S
H1105 C1129 0.950 . S
H1106 C1130 0.950 . S
H1107 C1131 0.951 1_565 S
H1108 C1133 0.950 . S
H1109 C1135 0.950 . S
H1110 C1136 0.950 . S
H1111 C1138 0.950 . S
H1112 C1141 0.950 . S
H1113 C1142 0.950 . S
H1114 C1144 0.950 . S
H1115 C1145 0.950 . S
C1116 H1098 0.951 . S
C1116 C1117 1.330 1_545 S
C1116 C1118 1.388 . S
C1117 C1116 1.330 1_565 S
C1117 C1121 1.419 . S
C1118 H1099 0.951 . S
C1118 C1116 1.388 . S
C1118 C1119 1.366 . S
C1119 C1118 1.366 . S
C1119 C1120 1.414 1_545 S
C1119 C1122 1.499 1_554 S
C1120 H1100 0.938 1_554 S
C1120 C1119 1.414 1_565 S
C1120 C1121 1.386 . S
C1121 H1101 0.950 . S
C1121 C1117 1.419 . S
C1121 C1120 1.386 . S
C1122 C1119 1.499 1_556 S
C1122 C1123 1.375 . S
C1122 C1124 1.389 1_556 S
C1123 H1102 0.948 1_545 S
C1123 C1122 1.375 . S
C1123 C1139 1.377 . S
C1124 C1122 1.389 1_554 S
C1124 C1125 1.524 . S
C1124 C1138 1.377 1_554 S
C1125 C1124 1.524 . S
C1125 C1126 1.397 . S
C1125 C1130 1.363 . S
C1126 H1103 0.950 1_545 S
C1126 C1125 1.397 . S
C1126 C1127 1.334 . S
C1127 H1104 0.956 . S
C1127 C1126 1.334 . S
C1127 C1128 1.287 . S
C1128 C1127 1.287 . S
C1128 C1129 1.524 . S
C1128 H1147 0.913 . S
C1129 H1105 0.950 . S
C1129 C1128 1.524 . S
C1129 C1130 1.415 . S
C1130 H1106 0.950 . S
C1130 C1125 1.363 . S
C1130 C1129 1.415 . S
C1131 H1107 0.951 1_545 S
C1131 C1132 1.366 . S
C1131 C1133 1.388 1_545 S
C1132 C1131 1.366 . S
C1132 C1136 1.385 . S
C1133 H1108 0.950 . S
C1133 C1131 1.388 1_565 S
C1133 C1134 1.367 1_565 S
C1134 C1133 1.367 1_545 S
C1134 C1135 1.414 . S
C1134 C1137 1.499 . S
C1135 H1109 0.950 . S
C1135 C1134 1.414 . S
C1135 C1136 1.374 . S
C1136 H1110 0.950 . S
C1136 C1132 1.385 . S
C1136 C1135 1.374 . S
C1137 C1134 1.499 . S
C1137 C1138 1.373 . S
C1137 C1139 1.389 . S
C1138 H1111 0.950 . S
C1138 C1124 1.377 1_556 S
C1138 C1137 1.373 . S
C1139 C1123 1.377 . S
C1139 C1137 1.389 . S
C1139 C1140 1.524 1_545 S
C1140 C1139 1.524 1_565 S
C1140 C1141 1.397 1_565 S
C1140 C1145 1.363 . S
C1141 H1112 0.950 . S
C1141 C1140 1.397 1_545 S
C1141 C1142 1.334 . S
C1142 H1113 0.950 . S
C1142 C1141 1.334 . S
C1142 C1143 1.287 1_545 S
C1143 C1142 1.287 1_565 S
C1143 C1144 1.524 . S
C1143 H1146 0.999 . S
C1144 H1114 0.950 . S
C1144 C1143 1.524 . S
C1144 C1145 1.415 . S
C1145 H1115 0.950 . S
C1145 C1140 1.363 . S
C1145 C1144 1.415 . S
H1146 C1143 0.999 . S
H1147 C1128 0.913 . S
H1148 C1166 0.951 . S
H1149 C1168 0.951 . S
H1150 C1170 0.950 . S
H1151 C1171 0.950 . S
H1152 C1173 0.950 . S
H1153 C1176 0.950 . S
H1154 C1177 0.950 . S
H1155 C1179 0.950 . S
H1156 C1180 0.950 . S
H1157 C1181 0.951 . S
H1158 C1183 0.951 . S
H1159 C1185 0.950 . S
H1160 C1186 0.950 . S
H1161 C1188 0.950 . S
H1162 C1191 0.950 . S
H1163 C1192 0.950 . S
H1164 C1194 0.950 . S
H1165 C1195 0.950 . S
C1166 H1148 0.951 . S
C1166 C1167 1.366 . S
C1166 C1168 1.388 . S
C1167 C1166 1.366 . S
C1167 C1171 1.385 . S
C1168 H1149 0.951 . S
C1168 C1166 1.388 . S
C1168 C1169 1.366 . S
C1169 C1168 1.366 . S
C1169 C1170 1.414 . S
C1169 C1172 1.499 . S
C1170 H1150 0.950 . S
C1170 C1169 1.414 . S
C1170 C1171 1.374 . S
C1171 H1151 0.950 . S
C1171 C1167 1.385 . S
C1171 C1170 1.374 . S
C1172 C1169 1.499 . S
C1172 C1173 1.373 . S
C1172 C1174 1.389 . S
C1173 H1152 0.950 . S
C1173 C1172 1.373 . S
C1173 C1189 1.377 . S
C1174 C1172 1.389 . S
C1174 C1175 1.524 . S
C1174 C1188 1.377 . S
C1175 C1174 1.524 . S
C1175 C1176 1.397 . S
C1175 C1180 1.363 . S
C1176 H1153 0.950 . S
C1176 C1175 1.397 . S
C1176 C1177 1.334 . S
C1177 H1154 0.950 . S
C1177 C1176 1.334 . S
C1177 C1178 1.287 . S
C1178 C1177 1.287 . S
C1178 C1179 1.524 . S
C1178 H1197 0.913 . S
C1179 H1155 0.950 . S
C1179 C1178 1.524 . S
C1179 C1180 1.415 . S
C1180 H1156 0.950 . S
C1180 C1175 1.363 . S
C1180 C1179 1.415 . S
C1181 H1157 0.951 . S
C1181 C1182 1.366 . S
C1181 C1183 1.388 . S
C1182 C1181 1.366 . S
C1182 C1186 1.385 . S
C1183 H1158 0.951 . S
C1183 C1181 1.388 . S
C1183 C1184 1.366 . S
C1184 C1183 1.366 . S
C1184 C1185 1.414 . S
C1184 C1187 1.499 . S
C1185 H1159 0.950 . S
C1185 C1184 1.414 . S
C1185 C1186 1.374 . S
C1186 H1160 0.950 . S
C1186 C1182 1.385 . S
C1186 C1185 1.374 . S
C1187 C1184 1.499 . S
C1187 C1188 1.373 . S
C1187 C1189 1.389 . S
C1188 H1161 0.950 . S
C1188 C1174 1.377 . S
C1188 C1187 1.373 . S
C1189 C1173 1.377 . S
C1189 C1187 1.389 . S
C1189 C1190 1.524 . S
C1190 C1189 1.524 . S
C1190 C1191 1.397 . S
C1190 C1195 1.363 . S
C1191 H1162 0.950 . S
C1191 C1190 1.397 . S
C1191 C1192 1.334 . S
C1192 H1163 0.950 . S
C1192 C1191 1.334 . S
C1192 C1193 1.287 . S
C1193 C1192 1.287 . S
C1193 C1194 1.524 . S
C1193 H1196 0.999 1_556 S
C1194 H1164 0.950 . S
C1194 C1193 1.524 . S
C1194 C1195 1.415 . S
C1195 H1165 0.950 . S
C1195 C1190 1.363 . S
C1195 C1194 1.415 . S
H1196 C1193 0.999 1_554 S
H1197 C1178 0.913 . S
H1198 C1216 0.951 . S
H1199 C1218 0.951 . S
H1200 C1220 0.950 . S
H1201 C1221 0.950 . S
H1202 C1223 0.950 . S
H1203 C1226 0.950 . S
H1204 C1227 0.950 . S
H1205 C1229 0.950 . S
H1206 C1230 0.950 . S
H1207 C1231 0.951 . S
H1208 C1233 0.951 . S
H1209 C1235 0.950 1_554 S
H1210 C1236 0.950 . S
H1211 C1238 0.950 . S
H1212 C1241 0.950 . S
H1213 C1242 0.950 . S
H1214 C1244 0.950 . S
H1215 C1245 0.950 . S
C1216 H1198 0.951 . S
C1216 C1217 1.366 . S
C1216 C1218 1.388 . S
C1217 C1216 1.366 . S
C1217 C1221 1.385 . S
C1218 H1199 0.951 . S
C1218 C1216 1.388 . S
C1218 C1219 1.366 . S
C1219 C1218 1.366 . S
C1219 C1220 1.414 . S
C1219 C1222 1.499 . S
C1220 H1200 0.950 . S
C1220 C1219 1.414 . S
C1220 C1221 1.374 . S
C1221 H1201 0.950 . S
C1221 C1217 1.385 . S
C1221 C1220 1.374 . S
C1222 C1219 1.499 . S
C1222 C1223 1.373 . S
C1222 C1224 1.389 . S
C1223 H1202 0.950 . S
C1223 C1222 1.373 . S
C1223 C1239 1.377 . S
C1224 C1222 1.389 . S
C1224 C1225 1.524 . S
C1224 C1238 1.377 . S
C1225 C1224 1.524 . S
C1225 C1226 1.397 . S
C1225 C1230 1.363 . S
C1226 H1203 0.950 . S
C1226 C1225 1.397 . S
C1226 C1227 1.334 . S
C1227 H1204 0.950 . S
C1227 C1226 1.334 . S
C1227 C1228 1.287 . S
C1228 C1227 1.287 . S
C1228 C1229 1.524 . S
C1228 H1247 0.913 . S
C1229 H1205 0.950 . S
C1229 C1228 1.524 . S
C1229 C1230 1.415 . S
C1230 H1206 0.950 . S
C1230 C1225 1.363 . S
C1230 C1229 1.415 . S
C1231 H1207 0.951 . S
C1231 C1232 1.366 . S
C1231 C1233 1.388 . S
C1232 C1231 1.366 . S
C1232 C1236 1.385 . S
C1233 H1208 0.951 . S
C1233 C1231 1.388 . S
C1233 C1234 1.366 . S
C1234 C1233 1.366 . S
C1234 C1235 1.414 . S
C1234 C1237 1.499 1_556 S
C1235 H1209 0.950 1_556 S
C1235 C1234 1.414 . S
C1235 C1236 1.374 . S
C1236 H1210 0.950 . S
C1236 C1232 1.385 . S
C1236 C1235 1.374 . S
C1237 C1234 1.499 1_554 S
C1237 C1238 1.373 . S
C1237 C1239 1.389 . S
C1238 H1211 0.950 . S
C1238 C1224 1.377 . S
C1238 C1237 1.373 . S
C1239 C1223 1.377 . S
C1239 C1237 1.389 . S
C1239 C1240 1.524 1_554 S
C1240 C1239 1.524 1_556 S
C1240 C1241 1.397 . S
C1240 C1245 1.363 . S
C1241 H1212 0.950 . S
C1241 C1240 1.397 . S
C1241 C1242 1.334 . S
C1242 H1213 0.950 . S
C1242 C1241 1.334 . S
C1242 C1243 1.287 . S
C1243 C1242 1.287 . S
C1243 C1244 1.524 . S
C1243 H1246 0.999 . S
C1244 H1214 0.950 . S
C1244 C1243 1.524 . S
C1244 C1245 1.415 . S
C1245 H1215 0.950 . S
C1245 C1240 1.363 . S
C1245 C1244 1.415 . S
H1246 C1243 0.999 . S
H1247 C1228 0.913 . S
H1248 C1266 0.951 . S
H1249 C1268 0.898 1_655 S
H1250 C1270 0.950 . S
H1251 C1271 0.950 . S
H1252 C1273 0.950 . S
H1253 C1276 0.950 1_455 S
H1254 C1277 0.950 . S
H1255 C1279 0.950 . S
H1256 C1280 0.950 . S
H1257 C1281 0.951 . S
H1258 C1283 0.951 . S
H1259 C1285 0.950 1_655 S
H1260 C1286 0.950 1_655 S
H1261 C1288 0.950 1_655 S
H1262 C1291 0.950 . S
H1263 C1292 0.950 . S
H1264 C1294 0.950 . S
H1265 C1295 0.950 . S
C1266 H1248 0.951 . S
C1266 C1267 1.366 . S
C1266 C1268 1.388 . S
C1267 C1266 1.366 . S
C1267 C1271 1.385 . S
C1268 H1249 0.898 1_455 S
C1268 C1266 1.388 . S
C1268 C1269 1.366 . S
C1269 C1268 1.366 . S
C1269 C1270 1.414 . S
C1269 C1272 1.499 . S
C1270 H1250 0.950 . S
C1270 C1269 1.414 . S
C1270 C1271 1.374 . S
C1271 H1251 0.950 . S
C1271 C1267 1.385 . S
C1271 C1270 1.374 . S
C1272 C1269 1.499 . S
C1272 C1273 1.373 . S
C1272 C1274 1.389 . S
C1273 H1252 0.950 . S
C1273 C1272 1.373 . S
C1273 C1289 1.377 . S
C1274 C1272 1.389 . S
C1274 C1275 1.524 1_455 S
C1274 C1288 1.377 . S
C1275 C1274 1.524 1_655 S
C1275 C1276 1.397 . S
C1275 C1280 1.363 . S
C1276 H1253 0.950 1_655 S
C1276 C1275 1.397 . S
C1276 C1277 1.334 . S
C1277 H1254 0.950 . S
C1277 C1276 1.334 . S
C1277 C1278 1.287 . S
C1278 C1277 1.287 . S
C1278 C1279 1.524 . S
C1278 H1297 0.913 . S
C1279 H1255 0.950 . S
C1279 C1278 1.524 . S
C1279 C1280 1.415 . S
C1280 H1256 0.950 . S
C1280 C1275 1.363 . S
C1280 C1279 1.415 . S
C1281 H1257 0.951 . S
C1281 C1282 1.366 . S
C1281 C1283 1.388 . S
C1282 C1281 1.366 . S
C1282 C1286 1.385 . S
C1283 H1258 0.951 . S
C1283 C1281 1.388 . S
C1283 C1284 1.366 . S
C1284 C1283 1.366 . S
C1284 C1285 1.414 . S
C1284 C1287 1.499 . S
C1285 H1259 0.950 1_455 S
C1285 C1284 1.414 . S
C1285 C1286 1.374 . S
C1286 H1260 0.950 1_455 S
C1286 C1282 1.385 . S
C1286 C1285 1.374 . S
C1287 C1284 1.499 . S
C1287 C1288 1.373 . S
C1287 C1289 1.389 . S
C1288 H1261 0.950 1_455 S
C1288 C1274 1.377 . S
C1288 C1287 1.373 . S
C1289 C1273 1.377 . S
C1289 C1287 1.389 . S
C1289 C1290 1.524 . S
C1290 C1289 1.524 . S
C1290 C1291 1.397 . S
C1290 C1295 1.363 . S
C1291 H1262 0.950 . S
C1291 C1290 1.397 . S
C1291 C1292 1.334 . S
C1292 H1263 0.950 . S
C1292 C1291 1.334 . S
C1292 C1293 1.287 . S
C1293 C1292 1.287 . S
C1293 C1294 1.524 . S
C1293 H1296 0.999 . S
C1294 H1264 0.950 . S
C1294 C1293 1.524 . S
C1294 C1295 1.415 . S
C1295 H1265 0.950 . S
C1295 C1290 1.363 . S
C1295 C1294 1.415 . S
H1296 C1293 0.999 . S
H1297 C1278 0.913 . S
H1298 C1316 0.951 . S
H1299 C1318 0.951 . S
H1300 C1320 0.950 . S
H1301 C1321 0.950 . S
H1302 C1323 0.950 . S
H1303 C1326 0.950 . S
H1304 C1327 0.950 . S
H1305 C1329 0.950 . S
H1306 C1330 0.950 . S
H1307 C1331 0.951 . S
H1308 C1333 0.951 . S
H1309 C1335 0.950 . S
H1310 C1336 0.967 . S
H1311 C1338 0.950 . S
H1312 C1341 0.950 . S
H1313 C1342 0.950 . S
H1314 C1344 0.950 . S
H1315 C1345 0.992 . S
C1316 H1298 0.951 . S
C1316 C1317 1.354 1_565 S
C1316 C1318 1.388 . S
C1317 C1316 1.354 1_545 S
C1317 C1321 1.405 . S
C1318 H1299 0.951 . S
C1318 C1316 1.388 . S
C1318 C1319 1.366 1_565 S
C1319 C1318 1.366 1_545 S
C1319 C1320 1.414 . S
C1319 C1322 1.499 . S
C1320 H1300 0.950 . S
C1320 C1319 1.414 . S
C1320 C1321 1.374 . S
C1321 H1301 0.950 . S
C1321 C1317 1.405 . S
C1321 C1320 1.374 . S
C1322 C1319 1.499 . S
C1322 C1323 1.373 1_545 S
C1322 C1324 1.389 . S
C1323 H1302 0.950 . S
C1323 C1322 1.373 1_565 S
C1323 C1339 1.377 . S
C1324 C1322 1.389 . S
C1324 C1325 1.524 . S
C1324 C1338 1.377 . S
C1325 C1324 1.524 . S
C1325 C1326 1.397 . S
C1325 C1330 1.363 . S
C1326 H1303 0.950 . S
C1326 C1325 1.397 . S
C1326 C1327 1.334 . S
C1327 H1304 0.950 . S
C1327 C1326 1.334 . S
C1327 C1328 1.287 1_556 S
C1328 C1327 1.287 1_554 S
C1328 C1329 1.524 . S
C1328 H1347 0.913 . S
C1329 H1305 0.950 . S
C1329 C1328 1.524 . S
C1329 C1330 1.415 1_554 S
C1330 H1306 0.950 . S
C1330 C1325 1.363 . S
C1330 C1329 1.415 1_556 S
C1331 H1307 0.951 . S
C1331 C1332 1.366 . S
C1331 C1333 1.388 . S
C1332 C1331 1.366 . S
C1332 C1336 1.362 1_545 S
C1333 H1308 0.951 . S
C1333 C1331 1.388 . S
C1333 C1334 1.366 . S
C1334 C1333 1.366 . S
C1334 C1335 1.414 1_545 S
C1334 C1337 1.499 . S
C1335 H1309 0.950 . S
C1335 C1334 1.414 1_565 S
C1335 C1336 1.383 . S
C1336 H1310 0.967 . S
C1336 C1332 1.362 1_565 S
C1336 C1335 1.383 . S
C1337 C1334 1.499 . S
C1337 C1338 1.373 . S
C1337 C1339 1.389 1_545 S
C1338 H1311 0.950 . S
C1338 C1324 1.377 . S
C1338 C1337 1.373 . S
C1339 C1323 1.377 . S
C1339 C1337 1.389 1_565 S
C1339 C1340 1.524 . S
C1340 C1339 1.524 . S
C1340 C1341 1.397 . S
C1340 C1345 1.363 . S
C1341 H1312 0.950 . S
C1341 C1340 1.397 . S
C1341 C1342 1.334 . S
C1342 H1313 0.950 . S
C1342 C1341 1.334 . S
C1342 C1343 1.287 . S
C1343 C1342 1.287 . S
C1343 C1344 1.524 . S
C1343 H1346 0.999 . S
C1344 H1314 0.950 . S
C1344 C1343 1.524 . S
C1344 C1345 1.415 . S
C1345 H1315 0.992 . S
C1345 C1340 1.363 . S
C1345 C1344 1.415 . S
H1346 C1343 0.999 . S
H1347 C1328 0.913 . S
H1348 C1366 0.951 . S
H1349 C1368 0.951 . S
H1350 C1370 0.950 1_556 S
H1351 C1371 0.950 . S
H1352 C1373 0.950 . S
H1353 C1376 0.950 . S
H1354 C1377 0.950 . S
H1355 C1379 0.950 . S
H1356 C1380 0.950 . S
H1357 C1381 0.951 . S
H1358 C1383 0.951 . S
H1359 C1385 0.950 . S
H1360 C1386 0.950 . S
H1361 C1388 0.950 . S
H1362 C1391 0.950 . S
H1363 C1392 0.946 1_554 S
H1364 C1394 0.950 . S
H1365 C1395 0.950 . S
C1366 H1348 0.951 . S
C1366 C1367 1.366 . S
C1366 C1368 1.388 . S
C1367 C1366 1.366 . S
C1367 C1371 1.385 . S
C1368 H1349 0.951 . S
C1368 C1366 1.388 . S
C1368 C1369 1.366 1_554 S
C1369 C1368 1.366 1_556 S
C1369 C1370 1.414 1_556 S
C1369 C1372 1.499 . S
C1370 H1350 0.950 1_554 S
C1370 C1369 1.414 1_554 S
C1370 C1371 1.374 . S
C1371 H1351 0.950 . S
C1371 C1367 1.385 . S
C1371 C1370 1.374 . S
C1372 C1369 1.499 . S
C1372 C1373 1.373 . S
C1372 C1374 1.389 . S
C1373 H1352 0.950 . S
C1373 C1372 1.373 . S
C1373 C1389 1.377 . S
C1374 C1372 1.389 . S
C1374 C1375 1.524 . S
C1374 C1388 1.377 . S
C1375 C1374 1.524 . S
C1375 C1376 1.397 . S
C1375 C1380 1.363 . S
C1376 H1353 0.950 . S
C1376 C1375 1.397 . S
C1376 C1377 1.334 . S
C1377 H1354 0.950 . S
C1377 C1376 1.334 . S
C1377 C1378 1.287 . S
C1378 C1377 1.287 . S
C1378 C1379 1.524 . S
C1378 H1397 0.913 . S
C1379 H1355 0.950 . S
C1379 C1378 1.524 . S
C1379 C1380 1.415 . S
C1380 H1356 0.950 . S
C1380 C1375 1.363 . S
C1380 C1379 1.415 . S
C1381 H1357 0.951 . S
C1381 C1382 1.366 . S
C1381 C1383 1.388 . S
C1382 C1381 1.366 . S
C1382 C1386 1.385 . S
C1383 H1358 0.951 . S
C1383 C1381 1.388 . S
C1383 C1384 1.366 . S
C1384 C1383 1.366 . S
C1384 C1385 1.414 . S
C1384 C1387 1.499 . S
C1385 H1359 0.950 . S
C1385 C1384 1.414 . S
C1385 C1386 1.374 . S
C1386 H1360 0.950 . S
C1386 C1382 1.385 . S
C1386 C1385 1.374 . S
C1387 C1384 1.499 . S
C1387 C1388 1.373 . S
C1387 C1389 1.389 . S
C1388 H1361 0.950 . S
C1388 C1374 1.377 . S
C1388 C1387 1.373 . S
C1389 C1373 1.377 . S
C1389 C1387 1.389 . S
C1389 C1390 1.524 . S
C1390 C1389 1.524 . S
C1390 C1391 1.397 . S
C1390 C1395 1.363 . S
C1391 H1362 0.950 . S
C1391 C1390 1.397 . S
C1391 C1392 1.334 . S
C1392 H1363 0.946 1_556 S
C1392 C1391 1.334 . S
C1392 C1393 1.287 . S
C1393 C1392 1.287 . S
C1393 C1394 1.524 . S
C1393 H1396 0.999 1_556 S
C1394 H1364 0.950 . S
C1394 C1393 1.524 . S
C1394 C1395 1.415 . S
C1395 H1365 0.950 . S
C1395 C1390 1.363 . S
C1395 C1394 1.415 . S
H1396 C1393 0.999 1_554 S
H1397 C1378 0.913 . S
H1398 C1416 0.951 . S
H1399 C1418 0.951 . S
H1400 C1420 0.950 . S
H1401 C1421 0.950 . S
H1402 C1423 0.950 . S
H1403 C1426 0.950 . S
H1404 C1427 0.950 . S
H1405 C1429 0.950 . S
H1406 C1430 0.950 . S
H1407 C1431 0.951 . S
H1408 C1433 0.951 . S
H1409 C1435 0.950 . S
H1410 C1436 0.950 . S
H1411 C1438 0.950 . S
H1412 C1441 0.950 . S
H1413 C1442 0.950 . S
H1414 C1444 0.950 . S
H1415 C1445 0.950 . S
C1416 H1398 0.951 . S
C1416 C1417 1.366 . S
C1416 C1418 1.388 . S
C1417 C1416 1.366 . S
C1417 C1421 1.385 . S
C1418 H1399 0.951 . S
C1418 C1416 1.388 . S
C1418 C1419 1.366 . S
C1419 C1418 1.366 . S
C1419 C1420 1.414 . S
C1419 C1422 1.499 . S
C1420 H1400 0.950 . S
C1420 C1419 1.414 . S
C1420 C1421 1.374 . S
C1421 H1401 0.950 . S
C1421 C1417 1.385 . S
C1421 C1420 1.374 . S
C1422 C1419 1.499 . S
C1422 C1423 1.373 . S
C1422 C1424 1.389 . S
C1423 H1402 0.950 . S
C1423 C1422 1.373 . S
C1423 C1439 1.377 . S
C1424 C1422 1.389 . S
C1424 C1425 1.524 . S
C1424 C1438 1.377 . S
C1425 C1424 1.524 . S
C1425 C1426 1.397 . S
C1425 C1430 1.363 . S
C1426 H1403 0.950 . S
C1426 C1425 1.397 . S
C1426 C1427 1.334 . S
C1427 H1404 0.950 . S
C1427 C1426 1.334 . S
C1427 C1428 1.287 . S
C1428 C1427 1.287 . S
C1428 C1429 1.524 . S
C1428 H1447 0.913 . S
C1429 H1405 0.950 . S
C1429 C1428 1.524 . S
C1429 C1430 1.415 . S
C1430 H1406 0.950 . S
C1430 C1425 1.363 . S
C1430 C1429 1.415 . S
C1431 H1407 0.951 . S
C1431 C1432 1.366 . S
C1431 C1433 1.388 . S
C1432 C1431 1.366 . S
C1432 C1436 1.385 . S
C1433 H1408 0.951 . S
C1433 C1431 1.388 . S
C1433 C1434 1.366 . S
C1434 C1433 1.366 . S
C1434 C1435 1.414 . S
C1434 C1437 1.499 . S
C1435 H1409 0.950 . S
C1435 C1434 1.414 . S
C1435 C1436 1.374 . S
C1436 H1410 0.950 . S
C1436 C1432 1.385 . S
C1436 C1435 1.374 . S
C1437 C1434 1.499 . S
C1437 C1438 1.373 . S
C1437 C1439 1.389 . S
C1438 H1411 0.950 . S
C1438 C1424 1.377 . S
C1438 C1437 1.373 . S
C1439 C1423 1.377 . S
C1439 C1437 1.389 . S
C1439 C1440 1.524 . S
C1440 C1439 1.524 . S
C1440 C1441 1.397 . S
C1440 C1445 1.363 . S
C1441 H1412 0.950 . S
C1441 C1440 1.397 . S
C1441 C1442 1.334 . S
C1442 H1413 0.950 . S
C1442 C1441 1.334 . S
C1442 C1443 1.287 . S
C1443 C1442 1.287 . S
C1443 C1444 1.524 . S
C1443 H1446 0.999 . S
C1444 H1414 0.950 . S
C1444 C1443 1.524 . S
C1444 C1445 1.415 . S
C1445 H1415 0.950 . S
C1445 C1440 1.363 . S
C1445 C1444 1.415 . S
H1446 C1443 0.999 . S
H1447 C1428 0.913 . S
H1448 C1466 0.998 . S
H1449 C1468 0.951 . S
H1450 C1470 0.950 . S
H1451 C1471 0.950 . S
H1452 C1473 0.950 . S
H1453 C1476 0.950 1_655 S
H1454 C1477 0.950 . S
H1455 C1479 0.950 . S
H1456 C1480 0.950 . S
H1457 C1481 0.951 . S
H1458 C1483 0.951 . S
H1459 C1485 0.950 . S
H1460 C1486 0.950 . S
H1461 C1488 0.950 . S
H1462 C1491 0.950 . S
H1463 C1492 0.950 . S
H1464 C1494 0.950 . S
H1465 C1495 0.950 . S
C1466 H1448 0.998 . S
C1466 C1467 1.310 1_455 S
C1466 C1468 1.400 . S
C1467 C1466 1.310 1_655 S
C1467 C1471 1.385 . S
C1468 H1449 0.951 . S
C1468 C1466 1.400 . S
C1468 C1469 1.366 1_455 S
C1469 C1468 1.366 1_655 S
C1469 C1470 1.414 . S
C1469 C1472 1.499 . S
C1470 H1450 0.950 . S
C1470 C1469 1.414 . S
C1470 C1471 1.374 . S
C1471 H1451 0.950 . S
C1471 C1467 1.385 . S
C1471 C1470 1.374 . S
C1472 C1469 1.499 . S
C1472 C1473 1.373 . S
C1472 C1474 1.389 1_655 S
C1473 H1452 0.950 . S
C1473 C1472 1.373 . S
C1473 C1489 1.377 . S
C1474 C1472 1.389 1_455 S
C1474 C1475 1.524 . S
C1474 C1488 1.377 . S
C1475 C1474 1.524 . S
C1475 C1476 1.397 . S
C1475 C1480 1.363 . S
C1476 H1453 0.950 1_455 S
C1476 C1475 1.397 . S
C1476 C1477 1.334 . S
C1477 H1454 0.950 . S
C1477 C1476 1.334 . S
C1477 C1478 1.287 . S
C1478 C1477 1.287 . S
C1478 C1479 1.524 . S
C1478 H1497 0.913 . S
C1479 H1455 0.950 . S
C1479 C1478 1.524 . S
C1479 C1480 1.415 . S
C1480 H1456 0.950 . S
C1480 C1475 1.363 . S
C1480 C1479 1.415 . S
C1481 H1457 0.951 . S
C1481 C1482 1.366 . S
C1481 C1483 1.388 . S
C1482 C1481 1.366 . S
C1482 C1486 1.385 1_655 S
C1483 H1458 0.951 . S
C1483 C1481 1.388 . S
C1483 C1484 1.366 . S
C1484 C1483 1.366 . S
C1484 C1485 1.414 1_655 S
C1484 C1487 1.499 . S
C1485 H1459 0.950 . S
C1485 C1484 1.414 1_455 S
C1485 C1486 1.374 . S
C1486 H1460 0.950 . S
C1486 C1482 1.385 1_455 S
C1486 C1485 1.374 . S
C1487 C1484 1.499 . S
C1487 C1488 1.373 1_655 S
C1487 C1489 1.389 . S
C1488 H1461 0.950 . S
C1488 C1474 1.377 . S
C1488 C1487 1.373 1_455 S
C1489 C1473 1.377 . S
C1489 C1487 1.389 . S
C1489 C1490 1.524 . S
C1490 C1489 1.524 . S
C1490 C1491 1.397 . S
C1490 C1495 1.363 . S
C1491 H1462 0.950 . S
C1491 C1490 1.397 . S
C1491 C1492 1.334 . S
C1492 H1463 0.950 . S
C1492 C1491 1.334 . S
C1492 C1493 1.287 . S
C1493 C1492 1.287 . S
C1493 C1494 1.524 . S
C1493 H1496 0.999 . S
C1494 H1464 0.950 . S
C1494 C1493 1.524 . S
C1494 C1495 1.415 . S
C1495 H1465 0.950 . S
C1495 C1490 1.363 . S
C1495 C1494 1.415 . S
H1496 C1493 0.999 . S
H1497 C1478 0.913 . S
H1498 C1516 0.951 . S
H1499 C1518 0.951 . S
H1500 C1520 0.950 . S
H1501 C1521 0.950 . S
H1502 C1523 0.950 . S
H1503 C1526 0.950 . S
H1504 C1527 0.950 . S
H1505 C1529 0.950 . S
H1506 C1530 0.950 . S
H1507 C1531 0.951 . S
H1508 C1533 0.951 . S
H1509 C1535 0.950 . S
H1510 C1536 0.950 . S
H1511 C1538 0.950 . S
H1512 C1541 0.950 . S
H1513 C1542 0.950 . S
H1514 C1544 0.950 . S
H1515 C1545 0.950 . S
C1516 H1498 0.951 . S
C1516 C1517 1.354 1_545 S
C1516 C1518 1.388 . S
C1517 C1516 1.354 1_565 S
C1517 C1521 1.401 . S
C1518 H1499 0.951 . S
C1518 C1516 1.388 . S
C1518 C1519 1.366 1_545 S
C1519 C1518 1.366 1_565 S
C1519 C1520 1.414 . S
C1519 C1522 1.499 . S
C1520 H1500 0.950 . S
C1520 C1519 1.414 . S
C1520 C1521 1.374 . S
C1521 H1501 0.950 . S
C1521 C1517 1.401 . S
C1521 C1520 1.374 . S
C1522 C1519 1.499 . S
C1522 C1523 1.373 . S
C1522 C1524 1.389 1_565 S
C1523 H1502 0.950 . S
C1523 C1522 1.373 . S
C1523 C1539 1.377 . S
C1524 C1522 1.389 1_545 S
C1524 C1525 1.524 . S
C1524 C1538 1.377 . S
C1525 C1524 1.524 . S
C1525 C1526 1.397 . S
C1525 C1530 1.363 . S
C1526 H1503 0.950 . S
C1526 C1525 1.397 . S
C1526 C1527 1.334 . S
C1527 H1504 0.950 . S
C1527 C1526 1.334 . S
C1527 C1528 1.287 . S
C1528 C1527 1.287 . S
C1528 C1529 1.524 . S
C1528 H1547 0.913 . S
C1529 H1505 0.950 . S
C1529 C1528 1.524 . S
C1529 C1530 1.415 . S
C1530 H1506 0.950 . S
C1530 C1525 1.363 . S
C1530 C1529 1.415 . S
C1531 H1507 0.951 . S
C1531 C1532 1.366 . S
C1531 C1533 1.388 . S
C1532 C1531 1.366 . S
C1532 C1536 1.385 1_565 S
C1533 H1508 0.951 . S
C1533 C1531 1.388 . S
C1533 C1534 1.366 . S
C1534 C1533 1.366 . S
C1534 C1535 1.414 1_565 S
C1534 C1537 1.499 . S
C1535 H1509 0.950 . S
C1535 C1534 1.414 1_545 S
C1535 C1536 1.374 . S
C1536 H1510 0.950 . S
C1536 C1532 1.385 1_545 S
C1536 C1535 1.374 . S
C1537 C1534 1.499 . S
C1537 C1538 1.373 1_565 S
C1537 C1539 1.389 . S
C1538 H1511 0.950 . S
C1538 C1524 1.377 . S
C1538 C1537 1.373 1_545 S
C1539 C1523 1.377 . S
C1539 C1537 1.389 . S
C1539 C1540 1.524 . S
C1540 C1539 1.524 . S
C1540 C1541 1.397 . S
C1540 C1545 1.363 . S
C1541 H1512 0.950 . S
C1541 C1540 1.397 . S
C1541 C1542 1.334 . S
C1542 H1513 0.950 . S
C1542 C1541 1.334 . S
C1542 C1543 1.287 . S
C1543 C1542 1.287 . S
C1543 C1544 1.524 . S
C1543 H1546 0.999 . S
C1544 H1514 0.950 . S
C1544 C1543 1.524 . S
C1544 C1545 1.415 . S
C1545 H1515 0.950 . S
C1545 C1540 1.363 . S
C1545 C1544 1.415 . S
H1546 C1543 0.999 . S
H1547 C1528 0.913 . S
H1548 C1566 0.951 . S
H1549 C1568 0.951 . S
H1550 C1570 0.950 . S
H1551 C1571 0.950 . S
H1552 C1573 0.950 . S
H1553 C1576 0.950 . S
H1554 C1577 0.950 . S
H1555 C1579 0.950 . S
H1556 C1580 0.950 . S
H1557 C1581 0.951 . S
H1558 C1583 0.951 . S
H1559 C1585 0.950 . S
H1560 C1586 0.950 . S
H1561 C1588 0.950 . S
H1562 C1591 0.950 . S
H1563 C1592 0.950 . S
H1564 C1594 0.950 . S
H1565 C1595 0.950 . S
C1566 H1548 0.951 . S
C1566 C1567 1.366 . S
C1566 C1568 1.388 . S
C1567 C1566 1.366 . S
C1567 C1571 1.385 . S
C1568 H1549 0.951 . S
C1568 C1566 1.388 . S
C1568 C1569 1.366 . S
C1569 C1568 1.366 . S
C1569 C1570 1.414 . S
C1569 C1572 1.499 . S
C1570 H1550 0.950 . S
C1570 C1569 1.414 . S
C1570 C1571 1.374 . S
C1571 H1551 0.950 . S
C1571 C1567 1.385 . S
C1571 C1570 1.374 . S
C1572 C1569 1.499 . S
C1572 C1573 1.373 . S
C1572 C1574 1.389 . S
C1573 H1552 0.950 . S
C1573 C1572 1.373 . S
C1573 C1589 1.377 . S
C1574 C1572 1.389 . S
C1574 C1575 1.524 . S
C1574 C1588 1.377 . S
C1575 C1574 1.524 . S
C1575 C1576 1.397 . S
C1575 C1580 1.363 . S
C1576 H1553 0.950 . S
C1576 C1575 1.397 . S
C1576 C1577 1.334 . S
C1577 H1554 0.950 . S
C1577 C1576 1.334 . S
C1577 C1578 1.287 . S
C1578 C1577 1.287 . S
C1578 C1579 1.524 . S
C1578 H1597 0.913 . S
C1579 H1555 0.950 . S
C1579 C1578 1.524 . S
C1579 C1580 1.415 . S
C1580 H1556 0.950 . S
C1580 C1575 1.363 . S
C1580 C1579 1.415 . S
C1581 H1557 0.951 . S
C1581 C1582 1.366 . S
C1581 C1583 1.388 . S
C1582 C1581 1.366 . S
C1582 C1586 1.385 . S
C1583 H1558 0.951 . S
C1583 C1581 1.388 . S
C1583 C1584 1.366 . S
C1584 C1583 1.366 . S
C1584 C1585 1.414 . S
C1584 C1587 1.499 . S
C1585 H1559 0.950 . S
C1585 C1584 1.414 . S
C1585 C1586 1.374 . S
C1586 H1560 0.950 . S
C1586 C1582 1.385 . S
C1586 C1585 1.374 . S
C1587 C1584 1.499 . S
C1587 C1588 1.373 . S
C1587 C1589 1.389 . S
C1588 H1561 0.950 . S
C1588 C1574 1.377 . S
C1588 C1587 1.373 . S
C1589 C1573 1.377 . S
C1589 C1587 1.389 . S
C1589 C1590 1.524 . S
C1590 C1589 1.524 . S
C1590 C1591 1.397 . S
C1590 C1595 1.363 . S
C1591 H1562 0.950 . S
C1591 C1590 1.397 . S
C1591 C1592 1.334 . S
C1592 H1563 0.950 . S
C1592 C1591 1.334 . S
C1592 C1593 1.287 . S
C1593 C1592 1.287 . S
C1593 C1594 1.524 . S
C1593 H1596 0.999 . S
C1594 H1564 0.950 . S
C1594 C1593 1.524 . S
C1594 C1595 1.415 . S
C1595 H1565 0.950 . S
C1595 C1590 1.363 . S
C1595 C1594 1.415 . S
H1596 C1593 0.999 . S
H1597 C1578 0.913 . S
H1598 C1616 0.951 . S
H1599 C1618 0.951 . S
H1600 C1620 0.950 . S
H1601 C1621 0.950 . S
H1602 C1623 0.950 . S
H1603 C1626 0.950 . S
H1604 C1627 0.950 . S
H1605 C1629 0.950 . S
H1606 C1630 0.950 . S
H1607 C1631 0.951 . S
H1608 C1633 0.951 . S
H1609 C1635 0.950 . S
H1610 C1636 0.950 . S
H1611 C1638 0.950 . S
H1612 C1641 0.950 . S
H1613 C1642 0.950 . S
H1614 C1644 0.950 . S
H1615 C1645 0.950 . S
C1616 H1598 0.951 . S
C1616 C1617 1.366 . S
C1616 C1618 1.388 . S
C1617 C1616 1.366 . S
C1617 C1621 1.385 . S
C1618 H1599 0.951 . S
C1618 C1616 1.388 . S
C1618 C1619 1.366 . S
C1619 C1618 1.366 . S
C1619 C1620 1.414 . S
C1619 C1622 1.499 . S
C1620 H1600 0.950 . S
C1620 C1619 1.414 . S
C1620 C1621 1.374 . S
C1621 H1601 0.950 . S
C1621 C1617 1.385 . S
C1621 C1620 1.374 . S
C1622 C1619 1.499 . S
C1622 C1623 1.373 . S
C1622 C1624 1.389 . S
C1623 H1602 0.950 . S
C1623 C1622 1.373 . S
C1623 C1639 1.377 . S
C1624 C1622 1.389 . S
C1624 C1625 1.524 . S
C1624 C1638 1.377 . S
C1625 C1624 1.524 . S
C1625 C1626 1.397 . S
C1625 C1630 1.363 . S
C1626 H1603 0.950 . S
C1626 C1625 1.397 . S
C1626 C1627 1.334 . S
C1627 H1604 0.950 . S
C1627 C1626 1.334 . S
C1627 C1628 1.287 . S
C1628 C1627 1.287 . S
C1628 C1629 1.524 . S
C1628 H1647 0.913 . S
C1629 H1605 0.950 . S
C1629 C1628 1.524 . S
C1629 C1630 1.415 . S
C1630 H1606 0.950 . S
C1630 C1625 1.363 . S
C1630 C1629 1.415 . S
C1631 H1607 0.951 . S
C1631 C1632 1.366 . S
C1631 C1633 1.388 . S
C1632 C1631 1.366 . S
C1632 C1636 1.385 . S
C1633 H1608 0.951 . S
C1633 C1631 1.388 . S
C1633 C1634 1.366 . S
C1634 C1633 1.366 . S
C1634 C1635 1.414 . S
C1634 C1637 1.499 . S
C1635 H1609 0.950 . S
C1635 C1634 1.414 . S
C1635 C1636 1.374 . S
C1636 H1610 0.950 . S
C1636 C1632 1.385 . S
C1636 C1635 1.374 . S
C1637 C1634 1.499 . S
C1637 C1638 1.373 . S
C1637 C1639 1.389 . S
C1638 H1611 0.950 . S
C1638 C1624 1.377 . S
C1638 C1637 1.373 . S
C1639 C1623 1.377 . S
C1639 C1637 1.389 . S
C1639 C1640 1.524 . S
C1640 C1639 1.524 . S
C1640 C1641 1.397 . S
C1640 C1645 1.363 . S
C1641 H1612 0.950 . S
C1641 C1640 1.397 . S
C1641 C1642 1.334 . S
C1642 H1613 0.950 . S
C1642 C1641 1.334 . S
C1642 C1643 1.287 . S
C1643 C1642 1.287 . S
C1643 C1644 1.524 . S
C1643 H1646 0.999 . S
C1644 H1614 0.950 . S
C1644 C1643 1.524 . S
C1644 C1645 1.415 . S
C1645 H1615 0.950 . S
C1645 C1640 1.363 . S
C1645 C1644 1.415 . S
H1646 C1643 0.999 . S
H1647 C1628 0.913 . S
C467 C241 1.762 . S
C482 C290 1.847 . S
C532 C330 2.104 . S
C517 C277 2.046 . S
C582 C394 2.285 . S
C567 C169 2.189 . S
C632 C410 1.796 . S
C617 C205 1.634 . S
C682 C311 1.849 . S
C667 C97 1.761 . S
C717 C133 2.087 1_556 S
C732 C351 2.110 . S
C767 C25 2.158 . S
C782 C385 2.285 . S
C817 C61 1.620 . S
C832 C431 1.796 . S
C882 C305 0.354 . S
C867 C211 0.219 . S
C932 C345 0.364 . S
C917 C247 0.376 . S
C982 C381 0.557 . S
C967 C253 0.575 . S
C1017 C175 0.339 . S
C1032 C425 0.479 . S
C1067 C67 0.364 . S
C1082 C314 0.356 . S
C1132 C354 0.366 . S
C1117 C103 0.379 1_565 S
C1182 C392 0.556 . S
C1167 C109 0.439 . S
C1217 C31 0.439 . S
C1232 C434 0.478 . S
C1267 C181 2.471 . S
C1282 C312 2.689 . S
C1317 C217 2.202 . S
C1332 C352 2.396 . S
C1382 C370 1.769 . S
C1367 C283 1.694 . S
C1432 C432 3.018 . S
C1417 C145 2.753 . S
C1467 C37 2.462 . S
C1482 C301 2.700 . S
C1532 C341 2.396 . S
C1517 C73 2.202 1_565 S
C1582 C391 1.769 . S
C1567 C139 1.726 . S
C1617 C1 2.737 . S
C1632 C421 3.018 . S
