# Generated by pormake.
# Topology pyr, (3,6)-cn, num edge types: 1
# Building blocks:
#     Node 0, Type 0, BuildingBlock: VETTIZ_charged_linker_0, # of connection points: 3
#     Node 1, Type 0, BuildingBlock: VETTIZ_charged_linker_0, # of connection points: 3
#     Node 2, Type 0, BuildingBlock: VETTIZ_charged_linker_0, # of connection points: 3
#     Node 3, Type 0, BuildingBlock: VETTIZ_charged_linker_0, # of connection points: 3
#     Node 4, Type 0, BuildingBlock: VETTIZ_charged_linker_0, # of connection points: 3
#     Node 5, Type 0, BuildingBlock: VETTIZ_charged_linker_0, # of connection points: 3
#     Node 6, Type 0, BuildingBlock: VETTIZ_charged_linker_0, # of connection points: 3
#     Node 7, Type 0, BuildingBlock: VETTIZ_charged_linker_0, # of connection points: 3
#     Node 8, Type 1, BuildingBlock: BETFAJ_clean_sbu_0, # of connection points: 6
#     Node 9, Type 1, BuildingBlock: BETFAJ_clean_sbu_0, # of connection points: 6
#     Node 10, Type 1, BuildingBlock: BETFAJ_clean_sbu_0, # of connection points: 6
#     Node 11, Type 1, BuildingBlock: BETFAJ_clean_sbu_0, # of connection points: 6
#     Edge 12, Type (0, 1), BuildingBlock: XUDNAN_clean_linker_2, # of connection points: 2
#     Edge 13, Type (0, 1), BuildingBlock: XUDNAN_clean_linker_2, # of connection points: 2
#     Edge 14, Type (0, 1), BuildingBlock: XUDNAN_clean_linker_2, # of connection points: 2
#     Edge 15, Type (0, 1), BuildingBlock: XUDNAN_clean_linker_2, # of connection points: 2
#     Edge 16, Type (0, 1), BuildingBlock: XUDNAN_clean_linker_2, # of connection points: 2
#     Edge 17, Type (0, 1), BuildingBlock: XUDNAN_clean_linker_2, # of connection points: 2
#     Edge 18, Type (0, 1), BuildingBlock: XUDNAN_clean_linker_2, # of connection points: 2
#     Edge 19, Type (0, 1), BuildingBlock: XUDNAN_clean_linker_2, # of connection points: 2
#     Edge 20, Type (0, 1), BuildingBlock: XUDNAN_clean_linker_2, # of connection points: 2
#     Edge 21, Type (0, 1), BuildingBlock: XUDNAN_clean_linker_2, # of connection points: 2
#     Edge 22, Type (0, 1), BuildingBlock: XUDNAN_clean_linker_2, # of connection points: 2
#     Edge 23, Type (0, 1), BuildingBlock: XUDNAN_clean_linker_2, # of connection points: 2
#     Edge 24, Type (0, 1), BuildingBlock: XUDNAN_clean_linker_2, # of connection points: 2
#     Edge 25, Type (0, 1), BuildingBlock: XUDNAN_clean_linker_2, # of connection points: 2
#     Edge 26, Type (0, 1), BuildingBlock: XUDNAN_clean_linker_2, # of connection points: 2
#     Edge 27, Type (0, 1), BuildingBlock: XUDNAN_clean_linker_2, # of connection points: 2
#     Edge 28, Type (0, 1), BuildingBlock: XUDNAN_clean_linker_2, # of connection points: 2
#     Edge 29, Type (0, 1), BuildingBlock: XUDNAN_clean_linker_2, # of connection points: 2
#     Edge 30, Type (0, 1), BuildingBlock: XUDNAN_clean_linker_2, # of connection points: 2
#     Edge 31, Type (0, 1), BuildingBlock: XUDNAN_clean_linker_2, # of connection points: 2
#     Edge 32, Type (0, 1), BuildingBlock: XUDNAN_clean_linker_2, # of connection points: 2
#     Edge 33, Type (0, 1), BuildingBlock: XUDNAN_clean_linker_2, # of connection points: 2
#     Edge 34, Type (0, 1), BuildingBlock: XUDNAN_clean_linker_2, # of connection points: 2
#     Edge 35, Type (0, 1), BuildingBlock: XUDNAN_clean_linker_2, # of connection points: 2
# Relax obj value: 0.096
# Max RMSD: 0.121
# Mean RMSD: 0.058
data_MOF--net-pyr--node1-BETFAJ_clean_sbu_0--node2-VETTIZ_charged_linker_0--edge1-XUDNAN_clean_linker_2
_symmetry_space_group_name_H-M    P1
_symmetry_Int_Tables_number       1
_symmetry_cell_setting            triclinic
loop_
_symmetry_equiv_pos_as_xyz
'x, y, z'
_cell_length_a     46.204678
_cell_length_b     48.151825
_cell_length_c     43.567598
_cell_angle_alpha  90.627979
_cell_angle_beta   88.836798
_cell_angle_gamma 100.48173
loop_
_atom_site_label
_atom_site_type_symbol
_atom_site_fract_x
_atom_site_fract_y
_atom_site_fract_z
_atom_type_partial_charge
C0 C 0.3142 0.26782 0.34351 0.0
C1 C 0.29099 0.27924 0.35703 0.0
C2 C 0.28253 0.30285 0.34335 0.0
C3 C 0.31586 0.29953 0.30043 0.0
C4 C 0.32623 0.2782 0.31521 0.0
C5 C 0.34859 0.26636 0.29593 0.0
H6 H 0.39771 0.24155 0.15478 0.0
C7 C 0.32921 0.30232 0.2693 0.0
C8 C 0.34908 0.28351 0.2667 0.0
H9 H 0.41845 0.20585 0.2402 0.0
H10 H 0.39662 0.24065 0.26867 0.0
H11 H 0.41564 0.30698 0.17731 0.0
H12 H 0.3325 0.24999 0.17207 0.0
H13 H 0.33032 0.28236 0.1543 0.0
H14 H 0.35607 0.26183 0.13967 0.0
H15 H 0.395 0.30299 0.14264 0.0
H16 H 0.38894 0.3282 0.17206 0.0
C17 C 0.37855 0.27249 0.31237 0.0
C18 C 0.33644 0.23453 0.29052 0.0
C19 C 0.28281 0.35486 0.18896 0.0
C20 C 0.28789 0.35905 0.1572 0.0
C21 C 0.31249 0.34989 0.1434 0.0
C22 C 0.3304 0.33537 0.16043 0.0
C23 C 0.32369 0.32982 0.19161 0.0
C24 C 0.30108 0.34064 0.20563 0.0
C25 C 0.29804 0.33401 0.23928 0.0
C26 C 0.32225 0.31683 0.24303 0.0
C27 C 0.33657 0.31371 0.2148 0.0
C28 C 0.30414 0.36216 0.2577 0.0
C29 C 0.26696 0.31612 0.24495 0.0
C30 C 0.39801 0.24176 0.17964 0.0
C31 C 0.40925 0.22092 0.19546 0.0
C32 C 0.40982 0.22178 0.2277 0.0
C33 C 0.39678 0.24167 0.24409 0.0
C34 C 0.38275 0.26045 0.22796 0.0
C35 C 0.38505 0.26146 0.19632 0.0
C36 C 0.36987 0.28367 0.18316 0.0
C37 C 0.35662 0.29463 0.21208 0.0
C38 C 0.36357 0.28034 0.23813 0.0
C39 C 0.39341 0.30664 0.16779 0.0
C40 C 0.34594 0.26889 0.16102 0.0
H41 H 0.28681 0.33042 0.30537 0.0
H42 H 0.32162 0.25008 0.35388 0.0
H43 H 0.31305 0.23132 0.28344 0.0
H44 H 0.34818 0.22491 0.27225 0.0
H45 H 0.33741 0.22229 0.31183 0.0
H46 H 0.38001 0.29093 0.32825 0.0
H47 H 0.38198 0.25411 0.32612 0.0
H48 H 0.39731 0.27829 0.29604 0.0
H49 H 0.26424 0.36137 0.20063 0.0
H50 H 0.31772 0.35354 0.11928 0.0
H51 H 0.34832 0.32834 0.14853 0.0
H52 H 0.31772 0.3794 0.24413 0.0
H53 H 0.28334 0.3693 0.26441 0.0
H54 H 0.3171 0.36056 0.27853 0.0
H55 H 0.26188 0.29944 0.22699 0.0
H56 H 0.26451 0.30485 0.26694 0.0
H57 H 0.24978 0.32952 0.24424 0.0
H58 H 0.26475 0.31212 0.35318 0.0
C59 C 0.29507 0.31321 0.31528 0.0
C60 C 0.17977 0.87654 0.62367 0.0
C61 C 0.17096 0.8997 0.6387 0.0
C62 C 0.19072 0.91677 0.65834 0.0
C63 C 0.22851 0.88992 0.6448 0.0
C64 C 0.20859 0.872 0.62715 0.0
C65 C 0.22217 0.8491 0.612 0.0
H66 H 0.34209 0.78906 0.5891 0.0
C67 C 0.25734 0.88128 0.64122 0.0
C68 C 0.2538 0.85719 0.62236 0.0
H69 H 0.25315 0.75788 0.55968 0.0
H70 H 0.23777 0.79974 0.58058 0.0
H71 H 0.34279 0.85677 0.57058 0.0
H72 H 0.32615 0.80779 0.6534 0.0
H73 H 0.34688 0.84082 0.66336 0.0
H74 H 0.36253 0.81805 0.63724 0.0
H75 H 0.3713 0.84377 0.59032 0.0
H76 H 0.36077 0.87692 0.60084 0.0
C77 C 0.21978 0.85163 0.57677 0.0
C78 C 0.20671 0.82033 0.62528 0.0
C79 C 0.34628 0.94105 0.68981 0.0
C80 C 0.37595 0.93845 0.6916 0.0
C81 C 0.38576 0.916 0.67599 0.0
C82 C 0.36607 0.89629 0.659 0.0
C83 C 0.33623 0.89888 0.65806 0.0
C84 C 0.32693 0.92109 0.67325 0.0
C85 C 0.29441 0.92011 0.67103 0.0
C86 C 0.2856 0.8937 0.65172 0.0
C87 C 0.31009 0.88139 0.64408 0.0
C88 C 0.28977 0.94705 0.65407 0.0
C89 C 0.28059 0.91674 0.70389 0.0
C90 C 0.31947 0.79155 0.58632 0.0
C91 C 0.29881 0.77021 0.57257 0.0
C92 C 0.2694 0.77398 0.57032 0.0
C93 C 0.26053 0.79821 0.58256 0.0
C94 C 0.28126 0.81875 0.59737 0.0
C95 C 0.31027 0.81545 0.59857 0.0
C96 C 0.3291 0.83886 0.61607 0.0
C97 C 0.30643 0.85643 0.6259 0.0
C98 C 0.27848 0.84456 0.61486 0.0
C99 C 0.35243 0.85496 0.59352 0.0
C100 C 0.34212 0.82591 0.64391 0.0
H101 H 0.23362 0.9263 0.67598 0.0
H102 H 0.16491 0.86295 0.60864 0.0
H103 H 0.19852 0.82272 0.64919 0.0
H104 H 0.22175 0.80503 0.62711 0.0
H105 H 0.18751 0.81084 0.61132 0.0
H106 H 0.22461 0.87418 0.56975 0.0
H107 H 0.19726 0.84248 0.56905 0.0
H108 H 0.23578 0.84141 0.5638 0.0
H109 H 0.33787 0.95754 0.70235 0.0
H110 H 0.40852 0.91349 0.67735 0.0
H111 H 0.37469 0.87948 0.64783 0.0
H112 H 0.3059 0.95195 0.6347 0.0
H113 H 0.29285 0.96561 0.66982 0.0
H114 H 0.26799 0.94491 0.6435 0.0
H115 H 0.29402 0.90625 0.71946 0.0
H116 H 0.25863 0.90295 0.70442 0.0
H117 H 0.27883 0.93756 0.71426 0.0
H118 H 0.18458 0.93494 0.6699 0.0
C119 C 0.2194 0.91199 0.66149 0.0
C120 C 0.64062 0.27288 0.91627 0.0
C121 C 0.61451 0.25569 0.90628 0.0
C122 C 0.59855 0.26612 0.88303 0.0
C123 C 0.63522 0.30955 0.87976 0.0
C124 C 0.65035 0.29944 0.90298 0.0
C125 C 0.6774 0.32002 0.91183 0.0
H126 H 0.76502 0.44842 0.90187 0.0
C127 C 0.65173 0.33815 0.87112 0.0
C128 C 0.67628 0.3443 0.89018 0.0
H129 H 0.7724 0.37806 0.9603 0.0
H130 H 0.73095 0.34981 0.93656 0.0
H131 H 0.69344 0.44101 0.90378 0.0
H132 H 0.74938 0.40654 0.83841 0.0
H133 H 0.72233 0.42044 0.81882 0.0
H134 H 0.74908 0.44375 0.84105 0.0
H135 H 0.71798 0.46306 0.8778 0.0
H136 H 0.682 0.44565 0.8661 0.0
C137 C 0.67346 0.32855 0.94591 0.0
C138 C 0.70459 0.30597 0.90502 0.0
C139 C 0.6184 0.39182 0.78174 0.0
C140 C 0.62899 0.41843 0.76839 0.0
C141 C 0.65306 0.43609 0.7822 0.0
C142 C 0.66686 0.42714 0.80796 0.0
C143 C 0.65652 0.40021 0.82043 0.0
C144 C 0.63228 0.38326 0.8076 0.0
C145 C 0.62352 0.35569 0.82446 0.0
C146 C 0.64719 0.35823 0.84862 0.0
C147 C 0.66665 0.38446 0.84625 0.0
C148 C 0.59259 0.35491 0.83912 0.0
C149 C 0.62526 0.33119 0.80165 0.0
C150 C 0.75771 0.42684 0.90925 0.0
C151 C 0.77173 0.41581 0.93375 0.0
C152 C 0.76168 0.38747 0.94226 0.0
C153 C 0.73747 0.37093 0.9283 0.0
C154 C 0.72273 0.38245 0.90514 0.0
C155 C 0.73319 0.40969 0.89527 0.0
C156 C 0.71482 0.41743 0.8693 0.0
C157 C 0.69123 0.39076 0.86628 0.0
C158 C 0.6961 0.37054 0.88765 0.0
C159 C 0.70139 0.44327 0.8795 0.0
C160 C 0.73481 0.42253 0.84027 0.0
H161 H 0.59587 0.29931 0.85179 0.0
H162 H 0.65324 0.26591 0.93442 0.0
H163 H 0.70049 0.29063 0.88561 0.0
H164 H 0.72423 0.32131 0.89756 0.0
H165 H 0.71016 0.29431 0.92528 0.0
H166 H 0.65004 0.32956 0.95138 0.0
H167 H 0.6802 0.31299 0.96166 0.0
H168 H 0.68562 0.34983 0.95162 0.0
H169 H 0.59963 0.37787 0.77221 0.0
H170 H 0.66181 0.4566 0.77253 0.0
H171 H 0.68524 0.44149 0.81709 0.0
H172 H 0.58978 0.37634 0.847 0.0
H173 H 0.57504 0.34726 0.82239 0.0
H174 H 0.58881 0.34171 0.85988 0.0
H175 H 0.64578 0.33589 0.78738 0.0
H176 H 0.62596 0.31106 0.81317 0.0
H177 H 0.60628 0.32794 0.78594 0.0
H178 H 0.57843 0.25337 0.87474 0.0
C179 C 0.6088 0.2928 0.86965 0.0
C180 C 0.91211 0.79025 0.38731 0.0
C181 C 0.90179 0.80465 0.41249 0.0
C182 C 0.87714 0.79063 0.42945 0.0
C183 C 0.87284 0.74968 0.39537 0.0
C184 C 0.89739 0.76305 0.37918 0.0
C185 C 0.90518 0.74536 0.35255 0.0
H186 H 0.87408 0.62642 0.26472 0.0
C187 C 0.86198 0.72204 0.38009 0.0
C188 C 0.88091 0.71945 0.35491 0.0
H189 H 0.94736 0.69598 0.25511 0.0
H190 H 0.93 0.71907 0.29923 0.0
H191 H 0.87637 0.6233 0.34104 0.0
H192 H 0.82588 0.66351 0.2788 0.0
H193 H 0.80256 0.65151 0.31005 0.0
H194 H 0.81716 0.62628 0.28607 0.0
H195 H 0.84929 0.60404 0.316 0.0
H196 H 0.83916 0.61637 0.35314 0.0
C197 C 0.93591 0.73807 0.35835 0.0
C198 C 0.90329 0.76191 0.32259 0.0
C199 C 0.76988 0.65703 0.42166 0.0
C200 C 0.75348 0.63102 0.41139 0.0
C201 C 0.76294 0.61916 0.38393 0.0
C202 C 0.7883 0.63218 0.36776 0.0
C203 C 0.80458 0.65776 0.37861 0.0
C204 C 0.79503 0.67001 0.40487 0.0
C205 C 0.81428 0.69806 0.41199 0.0
C206 C 0.83725 0.70025 0.38613 0.0
C207 C 0.83159 0.67639 0.36672 0.0
C208 C 0.82811 0.69604 0.44376 0.0
C209 C 0.79521 0.7213 0.40992 0.0
C210 C 0.88655 0.64648 0.27228 0.0
C211 C 0.91212 0.65935 0.25596 0.0
C212 C 0.92736 0.68569 0.26666 0.0
C213 C 0.91732 0.69908 0.29253 0.0
C214 C 0.89159 0.6862 0.30827 0.0
C215 C 0.87672 0.66025 0.29818 0.0
C216 C 0.84967 0.64988 0.31777 0.0
C217 C 0.85096 0.67368 0.34137 0.0
C218 C 0.87556 0.69499 0.33561 0.0
C219 C 0.85352 0.62182 0.33275 0.0
C220 C 0.82228 0.6474 0.29727 0.0
H221 H 0.84395 0.75409 0.43479 0.0
H222 H 0.93126 0.79995 0.374 0.0
H223 H 0.88432 0.77321 0.32377 0.0
H224 H 0.89945 0.74814 0.30212 0.0
H225 H 0.92356 0.77791 0.31868 0.0
H226 H 0.93911 0.73512 0.38327 0.0
H227 H 0.95376 0.75521 0.35021 0.0
H228 H 0.93891 0.71792 0.34751 0.0
H229 H 0.76363 0.66703 0.44251 0.0
H230 H 0.75057 0.5998 0.37452 0.0
H231 H 0.79417 0.62183 0.34724 0.0
H232 H 0.83484 0.67517 0.44644 0.0
H233 H 0.81216 0.69841 0.46261 0.0
H234 H 0.84837 0.71181 0.44703 0.0
H235 H 0.77854 0.71617 0.39166 0.0
H236 H 0.8081 0.74208 0.40343 0.0
H237 H 0.78321 0.72347 0.43192 0.0
H238 H 0.86843 0.80106 0.44876 0.0
C239 C 0.86271 0.76336 0.42108 0.0
C240 C 0.7472 0.73854 0.92544 0.0
C241 C 0.76995 0.7244 0.91566 0.0
C242 C 0.77762 0.72448 0.8841 0.0
C243 C 0.74129 0.75314 0.87312 0.0
C244 C 0.73337 0.75285 0.90387 0.0
C245 C 0.71031 0.77062 0.91058 0.0
H246 H 0.62693 0.8618 0.8594 0.0
C247 C 0.72383 0.77096 0.85693 0.0
C248 C 0.7055 0.7812 0.87868 0.0
H249 H 0.6354 0.83524 0.95269 0.0
H250 H 0.66768 0.80374 0.93524 0.0
H251 H 0.62191 0.80087 0.82729 0.0
H252 H 0.69524 0.86838 0.84261 0.0
H253 H 0.69822 0.8563 0.80473 0.0
H254 H 0.66651 0.87091 0.81622 0.0
H255 H 0.62818 0.83221 0.80438 0.0
H256 H 0.64505 0.80215 0.79464 0.0
C257 C 0.68243 0.75114 0.92342 0.0
C258 C 0.72363 0.79496 0.93258 0.0
C259 C 0.74633 0.79432 0.74484 0.0
C260 C 0.73562 0.81235 0.72446 0.0
C261 C 0.71032 0.82336 0.73302 0.0
C262 C 0.69741 0.81835 0.76229 0.0
C263 C 0.71004 0.80235 0.78332 0.0
C264 C 0.73327 0.78964 0.77401 0.0
C265 C 0.74377 0.77324 0.79936 0.0
C266 C 0.72375 0.77913 0.82574 0.0
C267 C 0.70436 0.79652 0.81634 0.0
C268 C 0.73803 0.7416 0.78995 0.0
C269 C 0.77653 0.78602 0.8053 0.0
C270 C 0.63545 0.84889 0.87599 0.0
C271 C 0.62867 0.85088 0.9074 0.0
C272 C 0.64058 0.83417 0.92839 0.0
C273 C 0.65923 0.81589 0.91819 0.0
C274 C 0.6664 0.81467 0.88674 0.0
C275 C 0.6544 0.83089 0.86623 0.0
C276 C 0.66541 0.82792 0.8339 0.0
C277 C 0.68599 0.80715 0.83831 0.0
C278 C 0.68653 0.7995 0.86931 0.0
C279 C 0.63888 0.81533 0.81376 0.0
C280 C 0.6821 0.85732 0.8235 0.0
H281 H 0.77051 0.738 0.83936 0.0
H282 H 0.74056 0.73888 0.94939 0.0
H283 H 0.74787 0.80099 0.92897 0.0
H284 H 0.71524 0.81466 0.92865 0.0
H285 H 0.71958 0.78872 0.95698 0.0
H286 H 0.67822 0.73077 0.91053 0.0
H287 H 0.68499 0.74629 0.94797 0.0
H288 H 0.66227 0.76016 0.92104 0.0
H289 H 0.76583 0.78565 0.73918 0.0
H290 H 0.70127 0.83685 0.71752 0.0
H291 H 0.67883 0.8281 0.76783 0.0
H292 H 0.7182 0.7363 0.77545 0.0
H293 H 0.75694 0.73612 0.77656 0.0
H294 H 0.73321 0.72734 0.80986 0.0
H295 H 0.78067 0.80936 0.80254 0.0
H296 H 0.78332 0.78272 0.82891 0.0
H297 H 0.79138 0.77733 0.78892 0.0
H298 H 0.7955 0.71454 0.87576 0.0
C299 C 0.76327 0.73848 0.86286 0.0
C300 C 0.814 0.18587 0.47504 0.0
C301 C 0.82697 0.17372 0.44984 0.0
C302 C 0.81669 0.17743 0.42012 0.0
C303 C 0.77909 0.20135 0.44136 0.0
C304 C 0.79055 0.19997 0.47018 0.0
C305 C 0.77519 0.21534 0.49399 0.0
H306 H 0.66097 0.28056 0.5301 0.0
C307 C 0.75344 0.21543 0.44425 0.0
C308 C 0.7513 0.22421 0.47491 0.0
H309 H 0.73502 0.27461 0.5868 0.0
H310 H 0.75537 0.24799 0.54634 0.0
H311 H 0.65313 0.21632 0.49728 0.0
H312 H 0.69724 0.30036 0.47466 0.0
H313 H 0.68529 0.28422 0.43974 0.0
H314 H 0.65849 0.28919 0.4691 0.0
H315 H 0.63421 0.24461 0.48851 0.0
H316 H 0.64579 0.22257 0.45877 0.0
C317 C 0.76215 0.19426 0.51937 0.0
C318 C 0.79742 0.24111 0.50585 0.0
C319 C 0.68316 0.21006 0.35561 0.0
C320 C 0.65606 0.21884 0.35229 0.0
C321 C 0.64539 0.23465 0.37586 0.0
C322 C 0.66095 0.24045 0.40317 0.0
C323 C 0.68745 0.23041 0.40676 0.0
C324 C 0.6985 0.21613 0.38287 0.0
C325 C 0.72733 0.20773 0.39034 0.0
C326 C 0.73126 0.21848 0.42316 0.0
C327 C 0.70771 0.2314 0.43268 0.0
C328 C 0.72314 0.17511 0.38832 0.0
C329 C 0.75152 0.22342 0.36827 0.0
C330 C 0.68114 0.27273 0.53409 0.0
C331 C 0.6961 0.27869 0.56169 0.0
C332 C 0.72295 0.26953 0.56581 0.0
C333 C 0.73479 0.2545 0.54224 0.0
C334 C 0.71987 0.24944 0.51425 0.0
C335 C 0.69356 0.25869 0.51063 0.0
C336 C 0.68199 0.25416 0.47871 0.0
C337 C 0.7058 0.2408 0.46345 0.0
C338 C 0.72762 0.23753 0.48442 0.0
C339 C 0.65212 0.23348 0.48066 0.0
C340 C 0.68039 0.28336 0.4647 0.0
H341 H 0.78563 0.19252 0.39276 0.0
H342 H 0.82125 0.18397 0.49823 0.0
H343 H 0.81565 0.24786 0.48894 0.0
H344 H 0.7872 0.26002 0.50937 0.0
H345 H 0.8075 0.2362 0.5276 0.0
H346 H 0.74977 0.17451 0.50903 0.0
H347 H 0.77986 0.18854 0.53356 0.0
H348 H 0.74652 0.20258 0.53484 0.0
H349 H 0.692 0.1983 0.33746 0.0
H350 H 0.62454 0.24163 0.37355 0.0
H351 H 0.65143 0.25204 0.42064 0.0
H352 H 0.70271 0.16524 0.40088 0.0
H353 H 0.72122 0.16778 0.36405 0.0
H354 H 0.74117 0.16648 0.3986 0.0
H355 H 0.74495 0.24236 0.35802 0.0
H356 H 0.77225 0.23174 0.3803 0.0
H357 H 0.75627 0.20951 0.34903 0.0
H358 H 0.82693 0.16972 0.39999 0.0
C359 C 0.79277 0.19096 0.41582 0.0
C360 C 0.41827 0.67551 0.30683 0.0
C361 C 0.40874 0.64873 0.32032 0.0
C362 C 0.38446 0.63071 0.30724 0.0
C363 C 0.37888 0.66644 0.26957 0.0
C364 C 0.40319 0.68386 0.28169 0.0
C365 C 0.41048 0.71169 0.26502 0.0
H366 H 0.37288 0.80044 0.15781 0.0
C367 C 0.36735 0.68196 0.24443 0.0
C368 C 0.38592 0.70868 0.24179 0.0
H369 H 0.44988 0.81582 0.21437 0.0
H370 H 0.43519 0.76942 0.23744 0.0
H371 H 0.3282 0.77378 0.20829 0.0
H372 H 0.37862 0.73866 0.13944 0.0
H373 H 0.3444 0.71598 0.14069 0.0
H374 H 0.34626 0.75258 0.13093 0.0
H375 H 0.31749 0.77045 0.16891 0.0
H376 H 0.30518 0.74268 0.1963 0.0
C377 C 0.40877 0.73581 0.28831 0.0
C378 C 0.44101 0.71355 0.24915 0.0
C379 C 0.27619 0.63691 0.18297 0.0
C380 C 0.26125 0.64758 0.15895 0.0
C381 C 0.2698 0.67619 0.15089 0.0
C382 C 0.29353 0.69345 0.16478 0.0
C383 C 0.30931 0.68236 0.18736 0.0
C384 C 0.30025 0.6548 0.19687 0.0
C385 C 0.3196 0.64761 0.22226 0.0
C386 C 0.34228 0.67496 0.22515 0.0
C387 C 0.33598 0.69503 0.20436 0.0
C388 C 0.30027 0.64155 0.25166 0.0
C389 C 0.334 0.62258 0.21134 0.0
C390 C 0.38657 0.79403 0.17534 0.0
C391 C 0.41242 0.81211 0.18443 0.0
C392 C 0.42986 0.80238 0.20682 0.0
C393 C 0.42122 0.77544 0.22026 0.0
C394 C 0.39497 0.75777 0.21104 0.0
C395 C 0.37846 0.7673 0.18865 0.0
C396 C 0.35187 0.74591 0.18047 0.0
C397 C 0.35479 0.72178 0.20162 0.0
C398 C 0.37986 0.72866 0.21986 0.0
C399 C 0.32414 0.75873 0.18861 0.0
C400 C 0.3551 0.73786 0.14611 0.0
H401 H 0.35113 0.62472 0.27357 0.0
H402 H 0.43713 0.6898 0.3157 0.0
H403 H 0.44387 0.69256 0.23991 0.0
H404 H 0.44399 0.72769 0.22912 0.0
H405 H 0.45899 0.7207 0.26555 0.0
H406 H 0.38871 0.7305 0.30319 0.0
H407 H 0.42822 0.73935 0.30339 0.0
H408 H 0.40723 0.75593 0.27719 0.0
H409 H 0.26998 0.6151 0.18996 0.0
H410 H 0.25833 0.6852 0.13314 0.0
H411 H 0.29893 0.71476 0.15682 0.0
H412 H 0.28459 0.65651 0.25386 0.0
H413 H 0.28717 0.61979 0.25115 0.0
H414 H 0.31315 0.64448 0.27286 0.0
H415 H 0.34168 0.62549 0.18702 0.0
H416 H 0.3537 0.62066 0.22445 0.0
H417 H 0.31807 0.60234 0.21281 0.0
H418 H 0.3764 0.6101 0.31701 0.0
C419 C 0.36956 0.63938 0.28213 0.0
C420 C 0.12052 0.28635 0.69182 0.0
C421 C 0.13024 0.27252 0.6659 0.0
C422 C 0.15514 0.28651 0.64929 0.0
C423 C 0.16079 0.32628 0.68516 0.0
C424 C 0.13603 0.31289 0.70101 0.0
C425 C 0.12892 0.32971 0.72862 0.0
H426 H 0.16251 0.44454 0.82184 0.0
C427 C 0.17235 0.35322 0.70156 0.0
C428 C 0.15368 0.35524 0.72709 0.0
H429 H 0.08903 0.37494 0.82949 0.0
H430 H 0.10552 0.3537 0.78373 0.0
H431 H 0.15906 0.45108 0.74641 0.0
H432 H 0.21066 0.40692 0.80348 0.0
H433 H 0.23353 0.42228 0.7732 0.0
H434 H 0.2182 0.44468 0.80012 0.0
H435 H 0.18754 0.46905 0.77073 0.0
H436 H 0.1957 0.45757 0.73255 0.0
C437 C 0.09845 0.33796 0.72378 0.0
C438 C 0.13069 0.3118 0.75765 0.0
C439 C 0.26545 0.41796 0.66195 0.0
C440 C 0.28203 0.44369 0.6727 0.0
C441 C 0.27236 0.45547 0.70009 0.0
C442 C 0.24685 0.44237 0.71603 0.0
C443 C 0.23055 0.41689 0.70487 0.0
C444 C 0.24006 0.40499 0.67835 0.0
C445 C 0.22036 0.37741 0.67034 0.0
C446 C 0.19734 0.3749 0.69615 0.0
C447 C 0.20335 0.39819 0.71636 0.0
C448 C 0.20678 0.38058 0.63868 0.0
C449 C 0.23888 0.35368 0.67161 0.0
C450 C 0.14985 0.42484 0.81351 0.0
C451 C 0.12447 0.41138 0.82976 0.0
C452 C 0.10892 0.38561 0.81802 0.0
C453 C 0.11845 0.37332 0.79119 0.0
C454 C 0.14399 0.38672 0.77552 0.0
C455 C 0.15922 0.41213 0.78664 0.0
C456 C 0.18604 0.42312 0.7669 0.0
C457 C 0.18426 0.40024 0.74215 0.0
C458 C 0.15955 0.37893 0.7474 0.0
C459 C 0.1822 0.45182 0.75348 0.0
C460 C 0.21368 0.4246 0.78681 0.0
H461 H 0.18931 0.32247 0.64525 0.0
H462 H 0.10122 0.27669 0.70493 0.0
H463 H 0.14868 0.29935 0.75513 0.0
H464 H 0.13607 0.32474 0.77854 0.0
H465 H 0.1098 0.29668 0.76174 0.0
H466 H 0.09527 0.34225 0.69915 0.0
H467 H 0.08033 0.32072 0.73109 0.0
H468 H 0.09591 0.35765 0.7359 0.0
H469 H 0.2718 0.40818 0.641 0.0
H470 H 0.28476 0.47478 0.70961 0.0
H471 H 0.24088 0.45257 0.73661 0.0
H472 H 0.20085 0.40186 0.63651 0.0
H473 H 0.22256 0.37804 0.61973 0.0
H474 H 0.18607 0.3655 0.6351 0.0
H475 H 0.25487 0.3576 0.69062 0.0
H476 H 0.22546 0.33274 0.67645 0.0
H477 H 0.25159 0.35249 0.64987 0.0
H478 H 0.16339 0.27649 0.62941 0.0
C479 C 0.17038 0.31319 0.65872 0.0
Sm480 Sm 0.0281 0.05344 0.50833 0.0
Sm481 Sm 0.99367 1.02918 0.5646 0.0
C482 C 0.05413 0.08635 0.46397 0.0
C483 C 0.0806 0.10873 0.46141 0.0
C484 C 0.07758 0.13704 0.45808 0.0
C485 C 0.10244 0.15835 0.4554 0.0
C486 C 0.13082 0.15171 0.45573 0.0
C487 C 0.13384 0.12344 0.45945 0.0
C488 C 0.10902 0.10218 0.46227 0.0
C489 C 0.05561 1.01926 0.54304 0.0
C490 C 0.03603 0.08944 0.5743 0.0
C491 C 0.96784 0.9959 0.60873 0.0
C492 C 0.94231 0.97266 0.61058 0.0
C493 C 0.9456 0.94682 0.62331 0.0
C494 C 0.92161 0.92455 0.62535 0.0
C495 C 0.89389 0.92788 0.61489 0.0
C496 C 0.89078 0.95356 0.60153 0.0
C497 C 0.91482 0.97571 0.5992 0.0
C498 C 0.96583 0.06311 0.52985 0.0
C499 C 0.98675 0.99265 0.49905 0.0
O500 O 0.03206 0.09239 0.48048 0.0
O501 O 0.05844 0.06052 0.46806 0.0
O502 O 0.04162 1.03752 0.55318 0.0
O503 O 0.05749 1.01977 0.51331 0.0
O504 O 0.03746 0.09055 0.54392 0.0
O505 O 0.02378 0.06595 0.58843 0.0
O506 O 0.99053 0.99057 0.59281 0.0
O507 O 0.96241 1.02127 0.60411 0.0
O508 O 0.97967 0.04476 0.51948 0.0
O509 O 0.96489 0.06317 0.55961 0.0
O510 O 0.98529 0.99183 0.52941 0.0
O511 O 0.99842 1.0162 0.48467 0.0
H512 H 0.05595 0.14268 0.45726 0.0
H513 H 0.09943 0.1799 0.45215 0.0
H514 H 0.15544 0.11773 0.46003 0.0
H515 H 0.1122 0.08061 0.46496 0.0
H516 H 0.96667 0.94397 0.63199 0.0
H517 H 0.92451 0.90508 0.63609 0.0
H518 H 0.86965 0.95657 0.59314 0.0
H519 H 0.91178 0.99526 0.58876 0.0
Sm520 Sm 0.53207 0.03925 0.0586 0.0
Sm521 Sm 0.47909 1.02949 1.02421 0.0
C522 C 0.5773 0.06448 0.0907 0.0
C523 C 0.57913 0.08403 0.11708 0.0
C524 C 0.5976 0.11054 0.11525 0.0
C525 C 0.59852 0.12984 0.13954 0.0
C526 C 0.58118 0.12275 0.16611 0.0
C527 C 0.56238 0.09641 0.16778 0.0
C528 C 0.56118 0.07727 0.14338 0.0
C529 C 0.49578 0.98985 0.07678 0.0
C530 C 0.47513 0.0654 0.08355 0.0
C531 C 0.43381 1.01243 0.98828 0.0
C532 C 0.43247 1.00998 0.95473 0.0
C533 C 0.45749 1.00599 0.93763 0.0
C534 C 0.45686 1.00474 0.90567 0.0
C535 C 0.43146 1.00833 0.89032 0.0
C536 C 0.40659 1.01296 0.90736 0.0
C537 C 0.40705 1.01362 0.93945 0.0
C538 C 0.5176 0.07792 1.00602 0.0
C539 C 0.53303 0.99713 1.00249 0.0
O540 O 0.56985 0.07449 0.06487 0.0
O541 O 0.56424 1.03841 0.09552 0.0
O542 O 0.487 1.01278 0.07127 0.0
O543 O 0.52412 0.9928 0.07322 0.0
O544 O 0.50404 0.07007 0.08055 0.0
O545 O 0.4593 0.04507 0.06766 0.0
O546 O 0.44791 0.99499 1.00195 0.0
O547 O 0.44056 1.03821 0.9988 0.0
O548 O 0.52459 0.05425 1.01112 0.0
O549 O 0.48969 0.0766 1.01065 0.0
O550 O 0.50455 0.99717 1.00253 0.0
O551 O 0.55071 1.01461 1.02019 0.0
H552 H 0.61131 0.11631 0.09501 0.0
H553 H 0.61343 0.14995 0.13795 0.0
H554 H 0.54877 0.09059 0.18807 0.0
H555 H 0.54621 0.05722 0.14517 0.0
H556 H 0.47764 1.00417 0.94899 0.0
H557 H 0.47632 1.00137 0.89292 0.0
H558 H 0.38673 1.01563 0.89585 0.0
H559 H 0.38773 1.0172 0.9523 0.0
Sm560 Sm 0.51964 0.5067 0.51975 0.0
Sm561 Sm 0.5194 0.5607 0.56867 0.0
C562 C 0.53975 0.4668 0.48921 0.0
C563 C 0.55891 0.44846 0.50178 0.0
C564 C 0.5826 0.46005 0.52052 0.0
C565 C 0.59707 0.44268 0.53764 0.0
C566 C 0.58777 0.41333 0.53695 0.0
C567 C 0.56459 0.40156 0.51768 0.0
C568 C 0.55034 0.41901 0.50014 0.0
C569 C 0.46702 0.50285 0.553 0.0
C570 C 0.54506 0.50543 0.59233 0.0
C571 C 0.49655 0.5951 0.60503 0.0
C572 C 0.47176 0.60941 0.5989 0.0
C573 C 0.44845 0.60829 0.62021 0.0
C574 C 0.42368 0.61968 0.61295 0.0
C575 C 0.42184 0.63219 0.58415 0.0
C576 C 0.44516 0.63301 0.56284 0.0
C577 C 0.46985 0.62185 0.57018 0.0
C578 C 0.5717 0.56618 0.53503 0.0
C579 C 0.49517 0.56219 0.49541 0.0
O580 O 0.55127 0.49361 0.48581 0.0
O581 O 0.51324 0.46288 0.50146 0.0
O582 O 0.48971 0.52173 0.55376 0.0
O583 O 0.47159 0.48421 0.53255 0.0
O584 O 0.54175 0.49475 0.56405 0.0
O585 O 0.53737 0.52981 0.60044 0.0
O586 O 0.48967 0.56758 0.60765 0.0
O587 O 0.52054 0.60339 0.58847 0.0
O588 O 0.54975 0.54624 0.53448 0.0
O589 O 0.56654 0.58465 0.55555 0.0
O590 O 0.49673 0.57223 0.52419 0.0
O591 O 0.50414 0.53838 0.48706 0.0
H592 H 0.58908 0.48258 0.52336 0.0
H593 H 0.61471 0.45228 0.55248 0.0
H594 H 0.55728 0.37889 0.51643 0.0
H595 H 0.53179 0.40957 0.48637 0.0
H596 H 0.4493 0.59838 0.6423 0.0
H597 H 0.40618 0.61902 0.62999 0.0
H598 H 0.44426 0.64209 0.54031 0.0
H599 H 0.48731 0.62263 0.55312 0.0
Sm600 Sm 0.01834 0.50351 0.06605 0.0
Sm601 Sm 0.01633 0.56022 1.02454 0.0
C602 C 0.03143 0.45534 0.08446 0.0
C603 C 0.05845 0.44326 0.08415 0.0
C604 C 0.08029 0.45065 0.06129 0.0
C605 C 0.10693 0.44088 0.06268 0.0
C606 C 0.1124 0.42427 0.08742 0.0
C607 C 0.09053 0.41688 0.11026 0.0
C608 C 0.06367 0.42618 0.10852 0.0
C609 C 0.99074 0.54207 0.09815 0.0
C610 C 0.07535 0.55719 0.06503 0.0
C611 C 1.00479 0.60898 1.00607 0.0
C612 C 0.97905 0.62289 1.00656 0.0
C613 C 0.95674 0.61644 1.02913 0.0
C614 C 0.9312 0.62807 1.02765 0.0
C615 C 0.9274 0.64558 1.00311 0.0
C616 C 0.94978 0.65212 0.9807 0.0
C617 C 0.97553 0.64099 0.98254 0.0
C618 C 0.04433 0.52213 0.99237 0.0
C619 C 0.95916 0.50648 1.02578 0.0
O620 O 0.01951 0.45815 0.05784 0.0
O621 O 0.03189 0.47725 0.10264 0.0
O622 O 1.00159 0.54399 0.07127 0.0
O623 O 0.9935 0.51769 0.10906 0.0
O624 O 0.06477 0.53054 0.0723 0.0
O625 O 0.06077 0.57304 0.04868 0.0
O626 O 0.01691 0.60591 1.0325 0.0
O627 O 1.00258 0.58663 0.98828 0.0
O628 O 0.03338 0.5198 1.01923 0.0
O629 O 0.04127 0.54647 0.98166 0.0
O630 O 0.96971 0.53319 1.01852 0.0
O631 O 0.97384 0.49061 1.04202 0.0
H632 H 0.07712 0.46455 1.04283 0.0
H633 H 0.12362 0.44708 0.04501 0.0
H634 H 0.09429 0.40401 0.1295 0.0
H635 H 0.04724 0.42059 0.12658 0.0
H636 H 0.95865 0.60183 0.04733 0.0
H637 H 0.91398 0.62257 0.04494 0.0
H638 H 0.94714 0.66559 0.96157 0.0
H639 H 0.99236 0.64588 0.96473 0.0
H640 H 0.27211 0.22252 0.36129 0.0
H641 H 0.26635 0.30155 0.40767 0.0
H642 H 0.22785 0.27619 0.44269 0.0
H643 H 0.1989 0.19709 0.35979 0.0
H644 H 0.20096 0.16055 0.36592 0.0
H645 H 0.23157 0.18374 0.34846 0.0
H646 H 0.26619 0.17155 0.39035 0.0
H647 H 0.2357 0.14792 0.40779 0.0
H648 H 0.25683 0.17579 0.43029 0.0
H649 H 0.18503 0.24322 0.46728 0.0
H650 H 0.14296 0.20527 0.48048 0.0
H651 H 0.1775 0.14844 0.41749 0.0
C652 C 0.26375 0.23437 0.37965 0.0
C653 C 0.27248 0.26398 0.38197 0.0
C654 C 0.26002 0.27884 0.40553 0.0
C655 C 0.23824 0.26459 0.42559 0.0
C656 C 0.22937 0.2355 0.42188 0.0
C657 C 0.24205 0.22053 0.3997 0.0
C658 C 0.2267 0.19002 0.39818 0.0
C659 C 0.21377 0.18243 0.3662 0.0
C660 C 0.2476 0.17015 0.4072 0.0
C661 C 0.20274 0.19031 0.42223 0.0
C662 C 0.20476 0.21661 0.43594 0.0
C663 C 0.18357 0.22243 0.45711 0.0
C664 C 0.15966 0.20085 0.46427 0.0
C665 C 0.15714 0.17388 0.45019 0.0
C666 C 0.17922 0.16861 0.42922 0.0
H667 H 0.41054 0.92302 0.73576 0.0
H668 H 0.38242 0.99583 0.69659 0.0
H669 H 0.40225 1.0248 0.74104 0.0
H670 H 0.38826 0.93203 0.80654 0.0
H671 H 0.41809 0.92149 0.82679 0.0
H672 H 0.40975 0.90834 0.78869 0.0
H673 H 0.46315 0.92785 0.77031 0.0
H674 H 0.472 0.9406 0.80868 0.0
H675 H 0.47873 0.96452 0.77673 0.0
H676 H 0.41256 0.04183 0.79418 0.0
H677 H 0.41812 0.04724 0.85044 0.0
H678 H 0.44152 0.96429 0.85486 0.0
C679 C 0.41009 0.94543 0.73577 0.0
C680 C 0.39513 0.95729 0.71281 0.0
C681 C 0.39389 0.98644 0.71403 0.0
C682 C 0.40516 1.00305 0.73912 0.0
C683 C 0.41805 0.99029 0.76248 0.0
C684 C 0.42129 0.96229 0.76069 0.0
C685 C 0.43225 0.95264 0.79058 0.0
C686 C 0.41079 0.92714 0.80391 0.0
C687 C 0.46339 0.94602 0.78631 0.0
C688 C 0.43258 0.97888 0.81006 0.0
C689 C 0.42478 1.00053 0.79332 0.0
C690 C 0.4197 1.02545 0.80731 0.0
C691 C 0.42262 1.02826 0.83921 0.0
C692 C 0.43061 1.00632 0.85658 0.0
C693 C 0.43617 0.98162 0.84176 0.0
H694 H 0.61492 0.47048 0.75338 0.0
H695 H 0.61361 0.3859 0.71733 0.0
H696 H 0.59281 0.39921 0.66909 0.0
H697 H 0.54612 0.47991 0.72011 0.0
H698 H 0.55848 0.51678 0.71172 0.0
H699 H 0.5738 0.50095 0.7434 0.0
H700 H 0.62623 0.51745 0.72067 0.0
H701 H 0.61107 0.53331 0.6889 0.0
H702 H 0.63445 0.50768 0.68183 0.0
H703 H 0.57288 0.42161 0.62422 0.0
H704 H 0.5529 0.45063 0.58684 0.0
H705 H 0.56547 0.52117 0.65118 0.0
C706 C 0.61034 0.45479 0.73529 0.0
C707 C 0.61591 0.427 0.7394 0.0
C708 C 0.60927 0.40714 0.71511 0.0
C709 C 0.59758 0.41457 0.68746 0.0
C710 C 0.5923 0.442 0.68422 0.0
C711 C 0.59826 0.4618 0.70751 0.0
C712 C 0.58986 0.48965 0.69813 0.0
C713 C 0.56563 0.49727 0.71962 0.0
C714 C 0.61702 0.51343 0.69734 0.0
C715 C 0.57832 0.48242 0.66596 0.0
C716 C 0.58018 0.45483 0.65843 0.0
C717 C 0.57127 0.44321 0.62997 0.0
C718 C 0.56001 0.46004 0.60873 0.0
C719 C 0.55754 0.48842 0.61573 0.0
C720 C 0.56689 0.49962 0.64495 0.0
H721 H 0.91446 0.60285 0.24501 0.0
H722 H 0.9345 0.68544 0.20261 0.0
H723 H 0.95497 0.66444 0.15707 0.0
H724 H 0.97887 0.57865 0.21861 0.0
H725 H 0.96071 0.54275 0.2119 0.0
H726 H 0.94634 0.56398 0.24066 0.0
H727 H 0.8957 0.55468 0.21432 0.0
H728 H 0.90992 0.53336 0.18548 0.0
H729 H 0.89359 0.56287 0.17423 0.0
H730 H 0.9758 0.63469 0.11667 0.0
H731 H 0.9947 0.59842 0.08535 0.0
H732 H 0.95992 0.53505 0.1527 0.0
C733 C 0.92275 0.61648 0.22599 0.0
C734 C 0.92293 0.64595 0.2277 0.0
C735 C 0.93445 0.66294 0.20228 0.0
C736 C 0.94599 0.65116 0.17611 0.0
C737 C 0.94586 0.62219 0.17538 0.0
C738 C 0.93443 0.60504 0.1996 0.0
C739 C 0.93772 0.57466 0.19333 0.0
C740 C 0.95706 0.56442 0.21756 0.0
C741 C 0.90743 0.55525 0.19174 0.0
C742 C 0.95306 0.57748 0.16203 0.0
C743 C 0.95744 0.60506 0.15198 0.0
C744 C 0.97206 0.61296 0.12417 0.0
C745 C 0.98252 0.59219 0.10629 0.0
C746 C 0.97821 0.56381 0.11601 0.0
C747 C 0.96324 0.55651 0.14433 0.0
H748 H 0.46146 0.20103 0.18769 0.0
H749 H 0.36868 0.18373 0.16607 0.0
H750 H 0.37522 0.14004 0.13888 0.0
H751 H 0.48642 0.1782 0.11465 0.0
H752 H 0.51584 0.16287 0.12997 0.0
H753 H 0.5037 0.19179 0.14983 0.0
H754 H 0.49445 0.16163 0.19912 0.0
H755 H 0.50637 0.1326 0.17916 0.0
H756 H 0.4706 0.12757 0.19776 0.0
H757 H 0.39099 0.09926 0.11403 0.0
H758 H 0.41626 0.06504 0.08744 0.0
H759 H 0.50005 0.10889 0.12198 0.0
C760 C 0.44266 0.18784 0.17729 0.0
C761 C 0.41455 0.19548 0.17882 0.0
C762 C 0.39035 0.17809 0.16487 0.0
C763 C 0.39381 0.15322 0.14962 0.0
C764 C 0.4217 0.14617 0.14836 0.0
C765 C 0.44585 0.163 0.16142 0.0
C766 C 0.47368 0.15118 0.15469 0.0
C767 C 0.49623 0.17227 0.13617 0.0
C768 C 0.48705 0.14274 0.18446 0.0
C769 C 0.46126 0.12537 0.13554 0.0
C770 C 0.43115 0.12276 0.13276 0.0
C771 C 0.41456 0.101 0.11599 0.0
C772 C 0.42917 0.08162 0.101 0.0
C773 C 0.46014 0.0843 0.10252 0.0
C774 C 0.47633 0.10627 0.12042 0.0
H775 H 0.15072 0.90442 0.58139 0.0
H776 H 0.13078 0.91803 0.67743 0.0
H777 H 0.09312 0.94547 0.66252 0.0
H778 H 0.15081 0.96955 0.55831 0.0
H779 H 0.13402 0.96158 0.5215 0.0
H780 H 0.15355 0.93692 0.53871 0.0
H781 H 0.1075 0.89733 0.53573 0.0
H782 H 0.08789 0.92166 0.51762 0.0
H783 H 0.0729 0.90331 0.55184 0.0
H784 H 0.06669 0.97948 0.63796 0.0
H785 H 0.04921 1.01418 0.60508 0.0
H786 H 0.08556 0.97791 0.52475 0.0
C787 C 0.13731 0.91187 0.59924 0.0
C788 C 0.1434 0.909 0.63052 0.0
C789 C 0.12629 0.92 0.65333 0.0
C790 C 0.10484 0.93552 0.64506 0.0
C791 C 0.10062 0.93946 0.61395 0.0
C792 C 0.11592 0.92745 0.59134 0.0
C793 C 0.11013 0.93783 0.55978 0.0
C794 C 0.13883 0.95233 0.54366 0.0
C795 C 0.09361 0.91359 0.54008 0.0
C796 C 0.09064 0.95884 0.56833 0.0
C797 C 0.08504 0.95915 0.59963 0.0
C798 C 0.07014 0.97884 0.61334 0.0
C799 C 0.0605 0.99858 0.59453 0.0
C800 C 0.06581 0.99839 0.56243 0.0
C801 C 0.08087 0.97817 0.5492 0.0
H802 H 0.82308 0.45196 0.91392 0.0
H803 H 0.77466 0.41845 0.99585 0.0
H804 H 0.81639 0.4395 1.02767 0.0
H805 H 0.89289 0.44119 0.93608 0.0
H806 H 0.91359 0.47373 0.92108 0.0
H807 H 0.87915 0.45811 0.90415 0.0
H808 H 0.85924 0.50445 0.91334 0.0
H809 H 0.89377 0.52034 0.93002 0.0
H810 H 0.85984 0.51955 0.95142 0.0
H811 H 0.86495 0.45802 0.05023 0.0
H812 H 0.91606 0.47922 0.06323 0.0
H813 H 0.93346 0.50531 0.96871 0.0
C814 C 0.82105 0.44971 0.9386 0.0
C815 C 0.7956 0.43311 0.95227 0.0
C816 C 0.79401 0.43055 0.9847 0.0
C817 C 0.81761 0.44252 1.00307 0.0
C818 C 0.84277 0.45766 0.98894 0.0
C819 C 0.84455 0.46194 0.95757 0.0
C820 C 0.87468 0.47884 0.94859 0.0
C821 C 0.89103 0.46195 0.92614 0.0
C822 C 0.8717 0.5075 0.93504 0.0
C823 C 0.88959 0.48257 0.97965 0.0
C824 C 0.87068 0.46995 1.0025 0.0
C825 C 0.87979 0.46851 1.03268 0.0
C826 C 0.90889 0.48045 1.03984 0.0
C827 C 0.92855 0.49415 1.01714 0.0
C828 C 0.91867 0.4954 0.98664 0.0
H829 H 0.71281 0.65407 0.44721 0.0
H830 H 0.73347 0.5736 0.41641 0.0
H831 H 0.68888 0.54882 0.44278 0.0
H832 H 0.68714 0.62937 0.52324 0.0
H833 H 0.65881 0.65062 0.52534 0.0
H834 H 0.69187 0.66235 0.50291 0.0
H835 H 0.66045 0.6663 0.45514 0.0
H836 H 0.6273 0.6544 0.47737 0.0
H837 H 0.63442 0.63594 0.44261 0.0
H838 H 0.64083 0.53228 0.47151 0.0
H839 H 0.59571 0.52583 0.50412 0.0
H840 H 0.60804 0.61591 0.51998 0.0
C841 C 0.7083 0.63124 0.44617 0.0
C842 C 0.72682 0.61607 0.42893 0.0
C843 C 0.7195 0.58609 0.42837 0.0
C844 C 0.6942 0.57164 0.44359 0.0
C845 C 0.67639 0.58725 0.45992 0.0
C846 C 0.68331 0.61637 0.4617 0.0
C847 C 0.66088 0.62799 0.4817 0.0
C848 C 0.67556 0.6435 0.50998 0.0
C849 C 0.64481 0.6473 0.46309 0.0
C850 C 0.64027 0.60088 0.49073 0.0
C851 C 0.64945 0.57764 0.47763 0.0
C852 C 0.63356 0.55037 0.48198 0.0
C853 C 0.6078 0.54678 0.50037 0.0
C854 C 0.59826 0.57011 0.51454 0.0
C855 C 0.61484 0.59753 0.50959 0.0
H856 H 0.25423 0.3987 0.17467 0.0
H857 H 0.27162 0.34572 0.09751 0.0
H858 H 0.23194 0.361 0.06902 0.0
H859 H 0.17812 0.37902 0.17158 0.0
H860 H 0.17029 0.41301 0.18302 0.0
H861 H 0.20358 0.40238 0.1952 0.0
H862 H 0.23456 0.44753 0.17125 0.0
H863 H 0.20129 0.45841 0.15913 0.0
H864 H 0.23003 0.45523 0.13142 0.0
H865 H 0.18724 0.37868 0.0505 0.0
H866 H 0.14015 0.39577 0.04478 0.0
H867 H 0.14925 0.43278 0.13598 0.0
C868 C 0.24998 0.39032 0.15173 0.0
C869 C 0.26642 0.371 0.13849 0.0
C870 C 0.26005 0.36105 0.10813 0.0
C871 C 0.23731 0.36945 0.09174 0.0
C872 C 0.22093 0.38767 0.10601 0.0
C873 C 0.22696 0.39793 0.13537 0.0
C874 C 0.20425 0.4148 0.14685 0.0
C875 C 0.18811 0.40149 0.17587 0.0
C876 C 0.21838 0.44583 0.15248 0.0
C877 C 0.18407 0.41182 0.11966 0.0
C878 C 0.19437 0.39662 0.09604 0.0
C879 C 0.17906 0.39073 0.06877 0.0
C880 C 0.15242 0.40047 0.06571 0.0
C881 C 0.14119 0.41536 0.09002 0.0
C882 C 0.15736 0.42125 0.11717 0.0
H883 H 0.55843 0.23003 0.9256 0.0
H884 H 0.64849 0.21617 0.91797 0.0
H885 H 0.63371 0.16963 0.94243 0.0
H886 H 0.54263 0.1979 0.99962 0.0
H887 H 0.50516 0.18226 0.99108 0.0
H888 H 0.52249 0.21422 0.97213 0.0
H889 H 0.51095 0.19024 0.91918 0.0
H890 H 0.49347 0.15824 0.93798 0.0
H891 H 0.52302 0.15742 0.91053 0.0
H892 H 0.60924 0.12429 0.96825 0.0
H893 H 0.57678 0.08399 0.99338 0.0
H894 H 0.50271 0.12714 0.98524 0.0
C895 C 0.57496 0.21707 0.92877 0.0
C896 C 0.60471 0.22693 0.91983 0.0
C897 C 0.62566 0.20934 0.92485 0.0
C898 C 0.61745 0.18276 0.93865 0.0
C899 C 0.58811 0.17383 0.94754 0.0
C900 C 0.56716 0.19044 0.94281 0.0
C901 C 0.53722 0.17601 0.95513 0.0
C902 C 0.52624 0.19365 0.98103 0.0
C903 C 0.51485 0.17013 0.92915 0.0
C904 C 0.54462 0.14874 0.96739 0.0
C905 C 0.5741 0.14788 0.96272 0.0
C906 C 0.58611 0.12478 0.972 0.0
C907 C 0.56752 0.10195 0.98628 0.0
C908 C 0.53723 0.10234 0.99131 0.0
C909 C 0.52579 0.12618 0.98177 0.0
H910 H 0.91186 0.83014 0.46992 0.0
H911 H 0.92319 0.84731 0.37233 0.0
H912 H 0.94592 0.8965 0.38398 0.0
H913 H 0.89318 0.89763 0.4917 0.0
H914 H 0.91277 0.90022 0.52729 0.0
H915 H 0.89763 0.86605 0.51152 0.0
H916 H 0.94908 0.85196 0.51262 0.0
H917 H 0.96432 0.88611 0.52838 0.0
H918 H 0.97984 0.87391 0.49357 0.0
H919 H 0.96711 0.94417 0.40582 0.0
H920 H 0.98587 0.98676 0.43642 0.0
H921 H 0.96062 0.93969 0.52019 0.0
C922 C 0.91895 0.84425 0.45096 0.0
C923 C 0.91582 0.8345 0.4201 0.0
C924 C 0.92576 0.85383 0.39613 0.0
C925 C 0.93854 0.88199 0.40251 0.0
C926 C 0.9413 0.89082 0.43305 0.0
C927 C 0.93182 0.87257 0.45694 0.0
C928 C 0.93755 0.8876 0.48773 0.0
C929 C 0.90855 0.88789 0.50561 0.0
C930 C 0.95898 0.87408 0.50669 0.0
C931 C 0.95163 0.91711 0.47735 0.0
C932 C 0.95353 0.91845 0.4457 0.0
C933 C 0.96572 0.94336 0.43063 0.0
C934 C 0.97634 0.96752 0.44828 0.0
C935 C 0.9748 0.9668 0.4808 0.0
C936 C 0.96216 0.94111 0.49541 0.0
H937 H 0.34961 0.7624 0.54355 0.0
H938 H 0.26869 0.71698 0.58455 0.0
H939 H 0.28905 0.67308 0.58296 0.0
H940 H 0.37061 0.70085 0.49723 0.0
H941 H 0.40886 0.71266 0.50598 0.0
H942 H 0.38497 0.73804 0.50164 0.0
H943 H 0.39962 0.7585 0.55554 0.0
H944 H 0.42307 0.73305 0.56032 0.0
H945 H 0.39428 0.7354 0.58826 0.0
H946 H 0.32174 0.63755 0.58826 0.0
H947 H 0.36316 0.6127 0.59703 0.0
H948 H 0.42334 0.68235 0.5553 0.0
C949 C 0.3358 0.74296 0.55112 0.0
C950 C 0.30761 0.74304 0.56411 0.0
C951 C 0.29018 0.71731 0.57401 0.0
C952 C 0.30162 0.69226 0.5733 0.0
C953 C 0.33035 0.69332 0.56233 0.0
C954 C 0.34704 0.71796 0.55089 0.0
C955 C 0.37863 0.71483 0.5449 0.0
C956 C 0.3862 0.7167 0.51038 0.0
C957 C 0.40013 0.73672 0.56337 0.0
C958 C 0.37756 0.68525 0.5566 0.0
C959 C 0.34943 0.67289 0.56588 0.0
C960 C 0.34372 0.64672 0.58038 0.0
C961 C 0.36741 0.63294 0.58562 0.0
C962 C 0.39642 0.64554 0.57669 0.0
C963 C 0.40131 0.67182 0.56162 0.0
H964 H 0.74789 0.86658 0.7043 0.0
H965 H 0.76542 0.78277 0.68394 0.0
H966 H 0.80398 0.8032 0.64634 0.0
H967 H 0.76474 0.89666 0.62423 0.0
H968 H 0.78119 0.93039 0.64024 0.0
H969 H 0.7509 0.90852 0.66011 0.0
H970 H 0.78249 0.91074 0.70884 0.0
H971 H 0.81292 0.93214 0.68914 0.0
H972 H 0.81762 0.89948 0.7065 0.0
H973 H 0.84675 0.8335 0.61946 0.0
H974 H 0.88824 0.87099 0.60343 0.0
H975 H 0.84156 0.93453 0.64056 0.0
C976 C 0.75874 0.8523 0.69085 0.0
C977 C 0.7535 0.82305 0.69694 0.0
C978 C 0.76912 0.80527 0.67969 0.0
C979 C 0.79094 0.81667 0.65816 0.0
C980 C 0.79653 0.84582 0.65383 0.0
C981 C 0.78047 0.86333 0.66933 0.0
C982 C 0.79299 0.89414 0.66359 0.0
C983 C 0.77115 0.90826 0.64598 0.0
C984 C 0.80204 0.91002 0.6938 0.0
C985 C 0.81951 0.8913 0.64375 0.0
C986 C 0.82102 0.86329 0.63796 0.0
C987 C 0.84539 0.8555 0.6231 0.0
C988 C 0.8689 0.87685 0.6143 0.0
C989 C 0.86781 0.90557 0.62044 0.0
C990 C 0.84253 0.91278 0.63476 0.0
H991 H 0.63923 0.16531 0.3318 0.0
H992 H 0.63366 0.25203 0.31152 0.0
H993 H 0.60822 0.23629 0.26297 0.0
H994 H 0.65625 0.14515 0.25861 0.0
H995 H 0.63491 0.10993 0.26077 0.0
H996 H 0.64911 0.12785 0.29519 0.0
H997 H 0.5964 0.12059 0.31902 0.0
H998 H 0.58199 0.10257 0.28459 0.0
H999 H 0.56751 0.13271 0.29868 0.0
H1000 H 0.58989 0.21131 0.21357 0.0
H1001 H 0.57804 0.17907 0.16891 0.0
H1002 H 0.59407 0.10897 0.22355 0.0
C1003 C 0.63218 0.18089 0.31732 0.0
C1004 C 0.63835 0.2098 0.32503 0.0
C1005 C 0.62889 0.22973 0.30581 0.0
C1006 C 0.61447 0.22097 0.27833 0.0
C1007 C 0.6093 0.19222 0.27098 0.0
C1008 C 0.61753 0.17248 0.29022 0.0
C1009 C 0.61115 0.14312 0.27651 0.0
C1010 C 0.63954 0.13082 0.27253 0.0
C1011 C 0.58787 0.1236 0.29585 0.0
C1012 C 0.5991 0.14949 0.24596 0.0
C1013 C 0.59796 0.17786 0.24315 0.0
C1014 C 0.59008 0.18898 0.21576 0.0
C1015 C 0.58354 0.17064 0.19055 0.0
C1016 C 0.58484 0.14163 0.19315 0.0
C1017 C 0.59219 0.13095 0.22132 0.0
H1018 H 0.42192 0.59625 0.3357 0.0
H1019 H 0.42764 0.68203 0.37001 0.0
H1020 H 0.45019 0.66909 0.41729 0.0
H1021 H 0.40399 0.56142 0.40873 0.0
H1022 H 0.42578 0.53449 0.40143 0.0
H1023 H 0.41019 0.55027 0.36989 0.0
H1024 H 0.46199 0.56416 0.3448 0.0
H1025 H 0.47774 0.54841 0.37626 0.0
H1026 H 0.49126 0.5848 0.36646 0.0
H1027 H 0.47108 0.64701 0.46163 0.0
H1028 H 0.49068 0.61789 0.49917 0.0
H1029 H 0.4727 0.54572 0.43741 0.0
C1030 C 0.42784 0.61231 0.35318 0.0
C1031 C 0.42303 0.64035 0.34874 0.0
C1032 C 0.43142 0.66061 0.37231 0.0
C1033 C 0.44411 0.65339 0.39948 0.0
C1034 C 0.44855 0.62573 0.40305 0.0
C1035 C 0.44084 0.60548 0.38054 0.0
C1036 C 0.44835 0.57733 0.39031 0.0
C1037 C 0.42041 0.55453 0.39273 0.0
C1038 C 0.47119 0.56814 0.36813 0.0
C1039 C 0.46138 0.58494 0.42184 0.0
C1040 C 0.46106 0.61298 0.42867 0.0
C1041 C 0.47142 0.62503 0.45647 0.0
C1042 C 0.4824 0.60815 0.47785 0.0
C1043 C 0.48321 0.57929 0.47167 0.0
C1044 C 0.47259 0.56766 0.443 0.0
H1045 H 0.12186 0.46728 0.84339 0.0
H1046 H 0.103 0.38321 0.88227 0.0
H1047 H 0.08251 0.4023 0.92902 0.0
H1048 H 0.1425 0.50505 0.91565 0.0
H1049 H 0.12562 0.53459 0.90574 0.0
H1050 H 0.1402 0.51449 0.87596 0.0
H1051 H 0.08952 0.50536 0.84966 0.0
H1052 H 0.0748 0.52536 0.87936 0.0
H1053 H 0.05718 0.48953 0.87135 0.0
H1054 H 0.06113 0.43044 0.97094 0.0
H1055 H 0.04139 0.46539 1.00365 0.0
H1056 H 0.07549 0.53104 0.93849 0.0
C1057 C 0.11389 0.45294 0.86193 0.0
C1058 C 0.11401 0.42363 0.85889 0.0
C1059 C 0.10285 0.40564 0.88368 0.0
C1060 C 0.0913 0.41633 0.9105 0.0
C1061 C 0.09106 0.4452 0.91253 0.0
C1062 C 0.1022 0.46328 0.88894 0.0
C1063 C 0.09842 0.49328 0.89644 0.0
C1064 C 0.12848 0.51302 0.89858 0.0
C1065 C 0.07881 0.504 0.8728 0.0
C1066 C 0.08313 0.4892 0.9277 0.0
C1067 C 0.07918 0.46134 0.93671 0.0
C1068 C 0.06455 0.4524 0.96427 0.0
C1069 C 0.05361 0.4724 0.98293 0.0
C1070 C 0.05747 0.50103 0.97415 0.0
C1071 C 0.07251 0.50936 0.94614 0.0
H1072 H 0.63895 0.88923 0.95468 0.0
H1073 H 0.5764 0.85809 0.88376 0.0
H1074 H 0.54617 0.89334 0.8995 0.0
H1075 H 0.58562 0.90323 1.01208 0.0
H1076 H 0.60866 0.93487 1.0262 0.0
H1077 H 0.62514 0.90691 1.00962 0.0
H1078 H 0.65456 0.94235 0.971 0.0
H1079 H 0.63795 0.97037 0.98727 0.0
H1080 H 0.63514 0.96259 0.94676 0.0
H1081 H 0.52254 0.93086 0.9231 0.0
H1082 H 0.50626 0.96865 0.95346 0.0
H1083 H 0.58483 0.97713 1.00834 0.0
C1084 C 0.61871 0.88967 0.94275 0.0
C1085 C 0.60988 0.87096 0.91807 0.0
C1086 C 0.58355 0.87239 0.90262 0.0
C1087 C 0.56627 0.89227 0.9114 0.0
C1088 C 0.57576 0.91065 0.93555 0.0
C1089 C 0.60131 0.90957 0.95106 0.0
C1090 C 0.60654 0.93199 0.97605 0.0
C1091 C 0.60648 0.91843 1.00787 0.0
C1092 C 0.63525 0.95307 0.96988 0.0
C1093 C 0.57983 0.94571 0.97223 0.0
C1094 C 0.56241 0.93297 0.94875 0.0
C1095 C 0.53608 0.94116 0.9414 0.0
C1096 C 0.52705 0.96272 0.95878 0.0
C1097 C 0.54442 0.97608 0.98306 0.0
C1098 C 0.57134 0.96764 0.9896 0.0
H1099 H 0.86829 0.17845 0.49584 0.0
H1100 H 0.83772 0.12829 0.41519 0.0
H1101 H 0.87418 0.09825 0.42392 0.0
H1102 H 0.94551 0.17137 0.49173 0.0
H1103 H 0.9477 0.16722 0.53263 0.0
H1104 H 0.92262 0.18798 0.51741 0.0
H1105 H 0.87922 0.15708 0.54677 0.0
H1106 H 0.90413 0.1363 0.56209 0.0
H1107 H 0.87245 0.11932 0.54109 0.0
H1108 H 0.9122 0.07198 0.44244 0.0
H1109 H 0.94546 0.04854 0.47266 0.0
H1110 H 0.94632 0.1117 0.54456 0.0
C1111 C 0.86905 0.16123 0.47988 0.0
C1112 C 0.85015 0.15633 0.45445 0.0
C1113 C 0.85246 0.13344 0.43423 0.0
C1114 C 0.87302 0.11598 0.4391 0.0
C1115 C 0.89087 0.12123 0.46458 0.0
C1116 C 0.88884 0.14306 0.48486 0.0
C1117 C 0.90828 0.14228 0.51228 0.0
C1118 C 0.93246 0.16879 0.51357 0.0
C1119 C 0.88992 0.13851 0.54232 0.0
C1120 C 0.92106 0.11624 0.50448 0.0
C1121 C 0.91131 0.10485 0.47648 0.0
C1122 C 0.92001 0.08069 0.46439 0.0
C1123 C 0.93887 0.06756 0.48165 0.0
C1124 C 0.9481 0.07831 0.51089 0.0
C1125 C 0.93933 0.10306 0.52229 0.0
H1126 H 0.20994 0.6114 0.17838 0.0
H1127 H 0.25974 0.64409 0.09697 0.0
H1128 H 0.21852 0.62276 0.06454 0.0
H1129 H 0.17311 0.54348 0.141 0.0
H1130 H 0.13898 0.54325 0.16185 0.0
H1131 H 0.17341 0.55887 0.17893 0.0
H1132 H 0.15402 0.6056 0.18727 0.0
H1133 H 0.11971 0.59026 0.1699 0.0
H1134 H 0.14102 0.62252 0.1549 0.0
H1135 H 0.17016 0.60459 1.04138 0.0
H1136 H 0.11901 0.58395 1.02784 0.0
H1137 H 0.10019 0.55858 0.12238 0.0
C1138 C 0.2124 0.6133 0.15369 0.0
C1139 C 0.23807 0.62968 0.14026 0.0
C1140 C 0.24024 0.63195 0.10783 0.0
C1141 C 0.21693 0.61988 0.08915 0.0
C1142 C 0.19151 0.60499 0.10302 0.0
C1143 C 0.18921 0.60097 0.13443 0.0
C1144 C 0.15884 0.58447 0.14312 0.0
C1145 C 0.16123 0.55581 0.15705 0.0
C1146 C 0.14244 0.60175 0.1651 0.0
C1147 C 0.14437 0.58072 0.11186 0.0
C1148 C 0.16369 0.59294 0.08915 0.0
C1149 C 0.155 0.59437 0.05882 0.0
C1150 C 0.12588 0.58277 0.05135 0.0
C1151 C 0.10585 0.56943 0.07393 0.0
C1152 C 0.11529 0.56823 0.10457 0.0
H1153 H 0.3235 0.41975 0.63969 0.0
H1154 H 0.30244 0.501 0.66661 0.0
H1155 H 0.3477 0.52506 0.6404 0.0
H1156 H 0.40163 0.43815 0.64702 0.0
H1157 H 0.4097 0.41825 0.61365 0.0
H1158 H 0.3759 0.40733 0.63513 0.0
H1159 H 0.34599 0.4093 0.5858 0.0
H1160 H 0.3797 0.42008 0.56413 0.0
H1161 H 0.35143 0.4414 0.56382 0.0
H1162 H 0.39643 0.54067 0.611 0.0
H1163 H 0.44227 0.5456 0.57923 0.0
H1164 H 0.43015 0.45459 0.56995 0.0
C1165 C 0.32808 0.4426 0.63989 0.0
C1166 C 0.30918 0.45827 0.65573 0.0
C1167 C 0.31663 0.48825 0.65544 0.0
C1168 C 0.34231 0.50222 0.64035 0.0
C1169 C 0.36047 0.48611 0.62525 0.0
C1170 C 0.35352 0.45694 0.6247 0.0
C1171 C 0.37641 0.44449 0.60638 0.0
C1172 C 0.39182 0.42597 0.62677 0.0
C1173 C 0.36255 0.42784 0.57837 0.0
C1174 C 0.39732 0.47116 0.59672 0.0
C1175 C 0.38793 0.49501 0.60798 0.0
C1176 C 0.40397 0.52206 0.60221 0.0
C1177 C 0.43018 0.52472 0.58444 0.0
C1178 C 0.44001 0.50052 0.57259 0.0
C1179 C 0.42318 0.47349 0.57876 0.0
H1180 H 0.79397 0.67661 0.90765 0.0
H1181 H 0.78591 0.74283 0.97407 0.0
H1182 H 0.8201 0.72462 1.00794 0.0
H1183 H 0.80647 0.62126 0.96218 0.0
H1184 H 0.83354 0.61008 0.93684 0.0
H1185 H 0.80344 0.62414 0.9212 0.0
H1186 H 0.84062 0.66162 0.89143 0.0
H1187 H 0.87075 0.64781 0.90704 0.0
H1188 H 0.86887 0.68464 0.91221 0.0
H1189 H 0.86024 0.70313 1.03152 0.0
H1190 H 0.90416 0.68167 1.0411 0.0
H1191 H 0.88887 0.63306 0.95691 0.0
C1192 C 0.79901 0.68715 0.92948 0.0
C1193 C 0.78708 0.71117 0.93809 0.0
C1194 C 0.79417 0.72405 0.96708 0.0
C1195 C 0.81373 0.71392 0.98649 0.0
C1196 C 0.82604 0.69094 0.9766 0.0
C1197 C 0.81889 0.67772 0.94873 0.0
C1198 C 0.83788 0.65595 0.94141 0.0
C1199 C 0.81921 0.62608 0.94036 0.0
C1200 C 0.85557 0.66295 0.91125 0.0
C1201 C 0.85764 0.65976 0.9689 0.0
C1202 C 0.85002 0.67946 0.98941 0.0
C1203 C 0.86616 0.68742 1.01582 0.0
C1204 C 0.89099 0.67523 1.02109 0.0
C1205 C 0.89958 0.65589 0.99967 0.0
C1206 C 0.88248 0.64778 0.97359 0.0
H1207 H 0.46671 0.83971 0.16208 0.0
H1208 H 0.37587 0.84984 0.17513 0.0
H1209 H 0.38706 0.89596 0.14921 0.0
H1210 H 0.49975 0.91387 0.17376 0.0
H1211 H 0.52791 0.91347 0.1446 0.0
H1212 H 0.513 0.88163 0.16513 0.0
H1213 H 0.49948 0.85574 0.11354 0.0
H1214 H 0.51416 0.88755 0.09288 0.0
H1215 H 0.47671 0.87011 0.08704 0.0
H1216 H 0.40781 0.94095 0.12062 0.0
H1217 H 0.43698 0.98146 0.09259 0.0
H1218 H 0.51421 0.94233 0.09746 0.0
C1219 C 0.44929 0.85183 0.15985 0.0
C1220 C 0.42034 0.84098 0.17067 0.0
C1221 C 0.39813 0.85744 0.16683 0.0
C1222 C 0.40429 0.88377 0.15218 0.0
C1223 C 0.43284 0.89361 0.14131 0.0
C1224 C 0.45504 0.8782 0.14503 0.0
C1225 C 0.48371 0.89342 0.13058 0.0
C1226 C 0.50749 0.90105 0.15497 0.0
C1227 C 0.49412 0.87564 0.10446 0.0
C1228 C 0.47415 0.9197 0.11823 0.0
C1229 C 0.44472 0.91941 0.12469 0.0
C1230 C 0.4309 0.9414 0.11551 0.0
C1231 C 0.44762 0.96432 0.09954 0.0
C1232 C 0.47787 0.96517 0.09282 0.0
C1233 C 0.49113 0.94238 0.10224 0.0
H1234 H 0.11897 0.24902 0.60761 0.0
H1235 H 0.10784 0.22908 0.70462 0.0
H1236 H 0.08274 0.18101 0.69151 0.0
H1237 H 0.04933 0.209 0.58354 0.0
H1238 H 0.06366 0.19689 0.54804 0.0
H1239 H 0.08083 0.23006 0.56472 0.0
H1240 H 0.13091 0.21311 0.5644 0.0
H1241 H 0.11384 0.17993 0.54766 0.0
H1242 H 0.13366 0.18043 0.58294 0.0
H1243 H 0.05877 0.13502 0.66849 0.0
H1244 H 0.03752 0.09393 0.63692 0.0
H1245 H 0.06431 0.14225 0.55424 0.0
C1246 C 0.11145 0.23451 0.62612 0.0
C1247 C 0.11525 0.24322 0.65728 0.0
C1248 C 0.10476 0.22341 0.68064 0.0
C1249 C 0.09062 0.19586 0.67342 0.0
C1250 C 0.08709 0.18809 0.64265 0.0
C1251 C 0.09722 0.20675 0.6193 0.0
C1252 C 0.09041 0.19279 0.58809 0.0
C1253 C 0.06983 0.2081 0.57004 0.0
C1254 C 0.1189 0.19149 0.5697 0.0
C1255 C 0.07489 0.16345 0.59765 0.0
C1256 C 0.07328 0.16129 0.62925 0.0
C1257 C 0.05992 0.13645 0.64371 0.0
C1258 C 0.04787 0.11315 0.62549 0.0
C1259 C 0.04914 0.11464 0.59299 0.0
C1260 C 0.06292 0.14028 0.57899 0.0
H1261 H 0.71566 0.33421 0.56452 0.0
H1262 H 0.6494 0.26741 0.60123 0.0
H1263 H 0.61687 0.30157 0.61253 0.0
H1264 H 0.69105 0.3979 0.61154 0.0
H1265 H 0.69874 0.41928 0.57763 0.0
H1266 H 0.72153 0.39383 0.58646 0.0
H1267 H 0.71171 0.37185 0.53245 0.0
H1268 H 0.68806 0.39612 0.52371 0.0
H1269 H 0.67431 0.35865 0.52124 0.0
H1270 H 0.58608 0.3363 0.60133 0.0
H1271 H 0.56166 0.37017 0.57416 0.0
H1272 H 0.64659 0.41495 0.54224 0.0
C1273 C 0.69532 0.32749 0.57736 0.0
C1274 C 0.68516 0.29857 0.5828 0.0
C1275 C 0.65777 0.2897 0.59788 0.0
C1276 C 0.63908 0.30902 0.60409 0.0
C1277 C 0.64824 0.33703 0.59509 0.0
C1278 C 0.67619 0.34652 0.5828 0.0
C1279 C 0.67839 0.37539 0.56843 0.0
C1280 C 0.69862 0.39794 0.58715 0.0
C1281 C 0.68868 0.37544 0.53448 0.0
C1282 C 0.64669 0.3792 0.57148 0.0
C1283 C 0.62985 0.35739 0.58787 0.0
C1284 C 0.5992 0.35401 0.58946 0.0
C1285 C 0.58547 0.37306 0.57361 0.0
C1286 C 0.60236 0.39509 0.55624 0.0
C1287 C 0.63332 0.39863 0.55599 0.0
loop_
_geom_bond_atom_site_label_1
_geom_bond_atom_site_label_2
_geom_bond_distance
_geom_bond_site_symmetry_2
_ccdc_geom_bond_type
C0 C1 1.391 . S
C0 C4 1.391 . S
C0 H42 0.948 . S
C1 C0 1.391 . S
C1 C2 1.391 . S
C2 C1 1.391 . S
C2 H58 0.947 . S
C2 C59 1.392 . S
C3 C4 1.391 . S
C3 C7 1.397 . S
C3 C59 1.419 . S
C4 C0 1.391 . S
C4 C3 1.391 . S
C4 C5 1.399 . S
C5 C4 1.399 . S
C5 C8 1.396 . S
C5 C17 1.453 . S
C5 C18 1.684 . S
H6 C30 0.948 . S
C7 C3 1.397 . S
C7 C8 1.394 . S
C7 C26 1.723 . S
C8 C5 1.396 . S
C8 C7 1.394 . S
C8 C38 1.723 . S
H9 C32 0.947 . S
H10 C33 0.948 . S
H11 C39 0.982 . S
H12 C40 0.979 . S
H13 C40 0.980 . S
H14 C40 0.983 . S
H15 C39 0.979 . S
H16 C39 0.977 . S
C17 C5 1.453 . S
C17 H46 0.982 . S
C17 H47 0.979 . S
C17 H48 0.977 . S
C18 C5 1.684 . S
C18 H43 0.979 . S
C18 H44 0.980 . S
C18 H45 0.983 . S
C19 C20 1.391 . S
C19 C24 1.391 . S
C19 H49 0.948 . S
C20 C19 1.391 . S
C20 C21 1.391 . S
C21 C20 1.391 . S
C21 C22 1.392 . S
C21 H50 0.947 . S
C22 C21 1.392 . S
C22 C23 1.419 . S
C22 H51 0.948 . S
C23 C22 1.419 . S
C23 C24 1.391 . S
C23 C27 1.397 . S
C24 C19 1.391 . S
C24 C23 1.391 . S
C24 C25 1.399 . S
C25 C24 1.399 . S
C25 C26 1.396 . S
C25 C28 1.453 . S
C25 C29 1.684 . S
C26 C7 1.723 . S
C26 C25 1.396 . S
C26 C27 1.394 . S
C27 C23 1.397 . S
C27 C26 1.394 . S
C27 C37 1.723 . S
C28 C25 1.453 . S
C28 H52 0.982 . S
C28 H53 0.979 . S
C28 H54 0.977 . S
C29 C25 1.684 . S
C29 H55 0.979 . S
C29 H56 0.980 . S
C29 H57 0.983 . S
C30 H6 0.948 . S
C30 C31 1.391 . S
C30 C35 1.391 . S
C31 C30 1.391 . S
C31 C32 1.391 . S
C32 H9 0.947 . S
C32 C31 1.391 . S
C32 C33 1.392 . S
C33 H10 0.948 . S
C33 C32 1.392 . S
C33 C34 1.419 . S
C34 C33 1.419 . S
C34 C35 1.391 . S
C34 C38 1.397 . S
C35 C30 1.391 . S
C35 C34 1.391 . S
C35 C36 1.399 . S
C36 C35 1.399 . S
C36 C37 1.396 . S
C36 C39 1.453 . S
C36 C40 1.684 . S
C37 C27 1.723 . S
C37 C36 1.396 . S
C37 C38 1.394 . S
C38 C8 1.723 . S
C38 C34 1.397 . S
C38 C37 1.394 . S
C39 H11 0.982 . S
C39 H15 0.979 . S
C39 H16 0.977 . S
C39 C36 1.453 . S
C40 H12 0.979 . S
C40 H13 0.980 . S
C40 H14 0.983 . S
C40 C36 1.684 . S
H41 C59 0.948 . S
H42 C0 0.948 . S
H43 C18 0.979 . S
H44 C18 0.980 . S
H45 C18 0.983 . S
H46 C17 0.982 . S
H47 C17 0.979 . S
H48 C17 0.977 . S
H49 C19 0.948 . S
H50 C21 0.947 . S
H51 C22 0.948 . S
H52 C28 0.982 . S
H53 C28 0.979 . S
H54 C28 0.977 . S
H55 C29 0.979 . S
H56 C29 0.980 . S
H57 C29 0.983 . S
H58 C2 0.947 . S
C59 C2 1.392 . S
C59 C3 1.419 . S
C59 H41 0.948 . S
C60 C61 1.391 . S
C60 C64 1.391 . S
C60 H102 0.948 . S
C61 C60 1.391 . S
C61 C62 1.391 . S
C62 C61 1.391 . S
C62 H118 0.947 . S
C62 C119 1.392 . S
C63 C64 1.391 . S
C63 C67 1.397 . S
C63 C119 1.419 . S
C64 C60 1.391 . S
C64 C63 1.391 . S
C64 C65 1.399 . S
C65 C64 1.399 . S
C65 C68 1.396 . S
C65 C77 1.453 . S
C65 C78 1.684 . S
H66 C90 0.948 . S
C67 C63 1.397 . S
C67 C68 1.394 . S
C67 C86 1.723 . S
C68 C65 1.396 . S
C68 C67 1.394 . S
C68 C98 1.723 . S
H69 C92 0.947 . S
H70 C93 0.948 . S
H71 C99 0.982 . S
H72 C100 0.979 . S
H73 C100 0.980 . S
H74 C100 0.983 . S
H75 C99 0.979 . S
H76 C99 0.977 . S
C77 C65 1.453 . S
C77 H106 0.982 . S
C77 H107 0.979 . S
C77 H108 0.977 . S
C78 C65 1.684 . S
C78 H103 0.979 . S
C78 H104 0.980 . S
C78 H105 0.983 . S
C79 C80 1.391 . S
C79 C84 1.391 . S
C79 H109 0.948 . S
C80 C79 1.391 . S
C80 C81 1.391 . S
C81 C80 1.391 . S
C81 C82 1.392 . S
C81 H110 0.947 . S
C82 C81 1.392 . S
C82 C83 1.419 . S
C82 H111 0.948 . S
C83 C82 1.419 . S
C83 C84 1.391 . S
C83 C87 1.397 . S
C84 C79 1.391 . S
C84 C83 1.391 . S
C84 C85 1.399 . S
C85 C84 1.399 . S
C85 C86 1.396 . S
C85 C88 1.453 . S
C85 C89 1.684 . S
C86 C67 1.723 . S
C86 C85 1.396 . S
C86 C87 1.394 . S
C87 C83 1.397 . S
C87 C86 1.394 . S
C87 C97 1.723 . S
C88 C85 1.453 . S
C88 H112 0.982 . S
C88 H113 0.979 . S
C88 H114 0.977 . S
C89 C85 1.684 . S
C89 H115 0.979 . S
C89 H116 0.980 . S
C89 H117 0.983 . S
C90 H66 0.948 . S
C90 C91 1.391 . S
C90 C95 1.391 . S
C91 C90 1.391 . S
C91 C92 1.391 . S
C92 H69 0.947 . S
C92 C91 1.391 . S
C92 C93 1.392 . S
C93 H70 0.948 . S
C93 C92 1.392 . S
C93 C94 1.419 . S
C94 C93 1.419 . S
C94 C95 1.391 . S
C94 C98 1.397 . S
C95 C90 1.391 . S
C95 C94 1.391 . S
C95 C96 1.399 . S
C96 C95 1.399 . S
C96 C97 1.396 . S
C96 C99 1.453 . S
C96 C100 1.684 . S
C97 C87 1.723 . S
C97 C96 1.396 . S
C97 C98 1.394 . S
C98 C68 1.723 . S
C98 C94 1.397 . S
C98 C97 1.394 . S
C99 H71 0.982 . S
C99 H75 0.979 . S
C99 H76 0.977 . S
C99 C96 1.453 . S
C100 H72 0.979 . S
C100 H73 0.980 . S
C100 H74 0.983 . S
C100 C96 1.684 . S
H101 C119 0.948 . S
H102 C60 0.948 . S
H103 C78 0.979 . S
H104 C78 0.980 . S
H105 C78 0.983 . S
H106 C77 0.982 . S
H107 C77 0.979 . S
H108 C77 0.977 . S
H109 C79 0.948 . S
H110 C81 0.947 . S
H111 C82 0.948 . S
H112 C88 0.982 . S
H113 C88 0.979 . S
H114 C88 0.977 . S
H115 C89 0.979 . S
H116 C89 0.980 . S
H117 C89 0.983 . S
H118 C62 0.947 . S
C119 C62 1.392 . S
C119 C63 1.419 . S
C119 H101 0.948 . S
C120 C121 1.391 . S
C120 C124 1.391 . S
C120 H162 0.948 . S
C121 C120 1.391 . S
C121 C122 1.391 . S
C122 C121 1.391 . S
C122 H178 0.947 . S
C122 C179 1.392 . S
C123 C124 1.391 . S
C123 C127 1.397 . S
C123 C179 1.419 . S
C124 C120 1.391 . S
C124 C123 1.391 . S
C124 C125 1.399 . S
C125 C124 1.399 . S
C125 C128 1.396 . S
C125 C137 1.453 . S
C125 C138 1.684 . S
H126 C150 0.948 . S
C127 C123 1.397 . S
C127 C128 1.394 . S
C127 C146 1.723 . S
C128 C125 1.396 . S
C128 C127 1.394 . S
C128 C158 1.723 . S
H129 C152 0.947 . S
H130 C153 0.948 . S
H131 C159 0.982 . S
H132 C160 0.979 . S
H133 C160 0.980 . S
H134 C160 0.983 . S
H135 C159 0.979 . S
H136 C159 0.977 . S
C137 C125 1.453 . S
C137 H166 0.982 . S
C137 H167 0.979 . S
C137 H168 0.977 . S
C138 C125 1.684 . S
C138 H163 0.979 . S
C138 H164 0.980 . S
C138 H165 0.983 . S
C139 C140 1.391 . S
C139 C144 1.391 . S
C139 H169 0.948 . S
C140 C139 1.391 . S
C140 C141 1.391 . S
C141 C140 1.391 . S
C141 C142 1.392 . S
C141 H170 0.947 . S
C142 C141 1.392 . S
C142 C143 1.419 . S
C142 H171 0.948 . S
C143 C142 1.419 . S
C143 C144 1.391 . S
C143 C147 1.397 . S
C144 C139 1.391 . S
C144 C143 1.391 . S
C144 C145 1.399 . S
C145 C144 1.399 . S
C145 C146 1.396 . S
C145 C148 1.453 . S
C145 C149 1.684 . S
C146 C127 1.723 . S
C146 C145 1.396 . S
C146 C147 1.394 . S
C147 C143 1.397 . S
C147 C146 1.394 . S
C147 C157 1.723 . S
C148 C145 1.453 . S
C148 H172 0.982 . S
C148 H173 0.979 . S
C148 H174 0.977 . S
C149 C145 1.684 . S
C149 H175 0.979 . S
C149 H176 0.980 . S
C149 H177 0.983 . S
C150 H126 0.948 . S
C150 C151 1.391 . S
C150 C155 1.391 . S
C151 C150 1.391 . S
C151 C152 1.391 . S
C152 H129 0.947 . S
C152 C151 1.391 . S
C152 C153 1.392 . S
C153 H130 0.948 . S
C153 C152 1.392 . S
C153 C154 1.419 . S
C154 C153 1.419 . S
C154 C155 1.391 . S
C154 C158 1.397 . S
C155 C150 1.391 . S
C155 C154 1.391 . S
C155 C156 1.399 . S
C156 C155 1.399 . S
C156 C157 1.396 . S
C156 C159 1.453 . S
C156 C160 1.684 . S
C157 C147 1.723 . S
C157 C156 1.396 . S
C157 C158 1.394 . S
C158 C128 1.723 . S
C158 C154 1.397 . S
C158 C157 1.394 . S
C159 H131 0.982 . S
C159 H135 0.979 . S
C159 H136 0.977 . S
C159 C156 1.453 . S
C160 H132 0.979 . S
C160 H133 0.980 . S
C160 H134 0.983 . S
C160 C156 1.684 . S
H161 C179 0.948 . S
H162 C120 0.948 . S
H163 C138 0.979 . S
H164 C138 0.980 . S
H165 C138 0.983 . S
H166 C137 0.982 . S
H167 C137 0.979 . S
H168 C137 0.977 . S
H169 C139 0.948 . S
H170 C141 0.947 . S
H171 C142 0.948 . S
H172 C148 0.982 . S
H173 C148 0.979 . S
H174 C148 0.977 . S
H175 C149 0.979 . S
H176 C149 0.980 . S
H177 C149 0.983 . S
H178 C122 0.947 . S
C179 C122 1.392 . S
C179 C123 1.419 . S
C179 H161 0.948 . S
C180 C181 1.391 . S
C180 C184 1.391 . S
C180 H222 0.948 . S
C181 C180 1.391 . S
C181 C182 1.391 . S
C182 C181 1.391 . S
C182 H238 0.947 . S
C182 C239 1.392 . S
C183 C184 1.391 . S
C183 C187 1.397 . S
C183 C239 1.419 . S
C184 C180 1.391 . S
C184 C183 1.391 . S
C184 C185 1.399 . S
C185 C184 1.399 . S
C185 C188 1.396 . S
C185 C197 1.453 . S
C185 C198 1.684 . S
H186 C210 0.948 . S
C187 C183 1.397 . S
C187 C188 1.394 . S
C187 C206 1.723 . S
C188 C185 1.396 . S
C188 C187 1.394 . S
C188 C218 1.723 . S
H189 C212 0.947 . S
H190 C213 0.948 . S
H191 C219 0.982 . S
H192 C220 0.979 . S
H193 C220 0.980 . S
H194 C220 0.983 . S
H195 C219 0.979 . S
H196 C219 0.977 . S
C197 C185 1.453 . S
C197 H226 0.982 . S
C197 H227 0.979 . S
C197 H228 0.977 . S
C198 C185 1.684 . S
C198 H223 0.979 . S
C198 H224 0.980 . S
C198 H225 0.983 . S
C199 C200 1.391 . S
C199 C204 1.391 . S
C199 H229 0.948 . S
C200 C199 1.391 . S
C200 C201 1.391 . S
C201 C200 1.391 . S
C201 C202 1.392 . S
C201 H230 0.947 . S
C202 C201 1.392 . S
C202 C203 1.419 . S
C202 H231 0.948 . S
C203 C202 1.419 . S
C203 C204 1.391 . S
C203 C207 1.397 . S
C204 C199 1.391 . S
C204 C203 1.391 . S
C204 C205 1.399 . S
C205 C204 1.399 . S
C205 C206 1.396 . S
C205 C208 1.453 . S
C205 C209 1.684 . S
C206 C187 1.723 . S
C206 C205 1.396 . S
C206 C207 1.394 . S
C207 C203 1.397 . S
C207 C206 1.394 . S
C207 C217 1.723 . S
C208 C205 1.453 . S
C208 H232 0.982 . S
C208 H233 0.979 . S
C208 H234 0.977 . S
C209 C205 1.684 . S
C209 H235 0.979 . S
C209 H236 0.980 . S
C209 H237 0.983 . S
C210 H186 0.948 . S
C210 C211 1.391 . S
C210 C215 1.391 . S
C211 C210 1.391 . S
C211 C212 1.391 . S
C212 H189 0.947 . S
C212 C211 1.391 . S
C212 C213 1.392 . S
C213 H190 0.948 . S
C213 C212 1.392 . S
C213 C214 1.419 . S
C214 C213 1.419 . S
C214 C215 1.391 . S
C214 C218 1.397 . S
C215 C210 1.391 . S
C215 C214 1.391 . S
C215 C216 1.399 . S
C216 C215 1.399 . S
C216 C217 1.396 . S
C216 C219 1.453 . S
C216 C220 1.684 . S
C217 C207 1.723 . S
C217 C216 1.396 . S
C217 C218 1.394 . S
C218 C188 1.723 . S
C218 C214 1.397 . S
C218 C217 1.394 . S
C219 H191 0.982 . S
C219 H195 0.979 . S
C219 H196 0.977 . S
C219 C216 1.453 . S
C220 H192 0.979 . S
C220 H193 0.980 . S
C220 H194 0.983 . S
C220 C216 1.684 . S
H221 C239 0.948 . S
H222 C180 0.948 . S
H223 C198 0.979 . S
H224 C198 0.980 . S
H225 C198 0.983 . S
H226 C197 0.982 . S
H227 C197 0.979 . S
H228 C197 0.977 . S
H229 C199 0.948 . S
H230 C201 0.947 . S
H231 C202 0.948 . S
H232 C208 0.982 . S
H233 C208 0.979 . S
H234 C208 0.977 . S
H235 C209 0.979 . S
H236 C209 0.980 . S
H237 C209 0.983 . S
H238 C182 0.947 . S
C239 C182 1.392 . S
C239 C183 1.419 . S
C239 H221 0.948 . S
C240 C241 1.391 . S
C240 C244 1.391 . S
C240 H282 0.948 . S
C241 C240 1.391 . S
C241 C242 1.391 . S
C242 C241 1.391 . S
C242 H298 0.947 . S
C242 C299 1.392 . S
C243 C244 1.391 . S
C243 C247 1.397 . S
C243 C299 1.419 . S
C244 C240 1.391 . S
C244 C243 1.391 . S
C244 C245 1.399 . S
C245 C244 1.399 . S
C245 C248 1.396 . S
C245 C257 1.453 . S
C245 C258 1.684 . S
H246 C270 0.948 . S
C247 C243 1.397 . S
C247 C248 1.394 . S
C247 C266 1.723 . S
C248 C245 1.396 . S
C248 C247 1.394 . S
C248 C278 1.723 . S
H249 C272 0.947 . S
H250 C273 0.948 . S
H251 C279 0.982 . S
H252 C280 0.979 . S
H253 C280 0.980 . S
H254 C280 0.983 . S
H255 C279 0.979 . S
H256 C279 0.977 . S
C257 C245 1.453 . S
C257 H286 0.982 . S
C257 H287 0.979 . S
C257 H288 0.977 . S
C258 C245 1.684 . S
C258 H283 0.979 . S
C258 H284 0.980 . S
C258 H285 0.983 . S
C259 C260 1.391 . S
C259 C264 1.391 . S
C259 H289 0.948 . S
C260 C259 1.391 . S
C260 C261 1.391 . S
C261 C260 1.391 . S
C261 C262 1.392 . S
C261 H290 0.947 . S
C262 C261 1.392 . S
C262 C263 1.419 . S
C262 H291 0.948 . S
C263 C262 1.419 . S
C263 C264 1.391 . S
C263 C267 1.397 . S
C264 C259 1.391 . S
C264 C263 1.391 . S
C264 C265 1.399 . S
C265 C264 1.399 . S
C265 C266 1.396 . S
C265 C268 1.453 . S
C265 C269 1.684 . S
C266 C247 1.723 . S
C266 C265 1.396 . S
C266 C267 1.394 . S
C267 C263 1.397 . S
C267 C266 1.394 . S
C267 C277 1.723 . S
C268 C265 1.453 . S
C268 H292 0.982 . S
C268 H293 0.979 . S
C268 H294 0.977 . S
C269 C265 1.684 . S
C269 H295 0.979 . S
C269 H296 0.980 . S
C269 H297 0.983 . S
C270 H246 0.948 . S
C270 C271 1.391 . S
C270 C275 1.391 . S
C271 C270 1.391 . S
C271 C272 1.391 . S
C272 H249 0.947 . S
C272 C271 1.391 . S
C272 C273 1.392 . S
C273 H250 0.948 . S
C273 C272 1.392 . S
C273 C274 1.419 . S
C274 C273 1.419 . S
C274 C275 1.391 . S
C274 C278 1.397 . S
C275 C270 1.391 . S
C275 C274 1.391 . S
C275 C276 1.399 . S
C276 C275 1.399 . S
C276 C277 1.396 . S
C276 C279 1.453 . S
C276 C280 1.684 . S
C277 C267 1.723 . S
C277 C276 1.396 . S
C277 C278 1.394 . S
C278 C248 1.723 . S
C278 C274 1.397 . S
C278 C277 1.394 . S
C279 H251 0.982 . S
C279 H255 0.979 . S
C279 H256 0.977 . S
C279 C276 1.453 . S
C280 H252 0.979 . S
C280 H253 0.980 . S
C280 H254 0.983 . S
C280 C276 1.684 . S
H281 C299 0.948 . S
H282 C240 0.948 . S
H283 C258 0.979 . S
H284 C258 0.980 . S
H285 C258 0.983 . S
H286 C257 0.982 . S
H287 C257 0.979 . S
H288 C257 0.977 . S
H289 C259 0.948 . S
H290 C261 0.947 . S
H291 C262 0.948 . S
H292 C268 0.982 . S
H293 C268 0.979 . S
H294 C268 0.977 . S
H295 C269 0.979 . S
H296 C269 0.980 . S
H297 C269 0.983 . S
H298 C242 0.947 . S
C299 C242 1.392 . S
C299 C243 1.419 . S
C299 H281 0.948 . S
C300 C301 1.391 . S
C300 C304 1.391 . S
C300 H342 0.948 . S
C301 C300 1.391 . S
C301 C302 1.391 . S
C302 C301 1.391 . S
C302 H358 0.947 . S
C302 C359 1.392 . S
C303 C304 1.391 . S
C303 C307 1.397 . S
C303 C359 1.419 . S
C304 C300 1.391 . S
C304 C303 1.391 . S
C304 C305 1.399 . S
C305 C304 1.399 . S
C305 C308 1.396 . S
C305 C317 1.453 . S
C305 C318 1.684 . S
H306 C330 0.948 . S
C307 C303 1.397 . S
C307 C308 1.394 . S
C307 C326 1.723 . S
C308 C305 1.396 . S
C308 C307 1.394 . S
C308 C338 1.723 . S
H309 C332 0.947 . S
H310 C333 0.948 . S
H311 C339 0.982 . S
H312 C340 0.979 . S
H313 C340 0.980 . S
H314 C340 0.983 . S
H315 C339 0.979 . S
H316 C339 0.977 . S
C317 C305 1.453 . S
C317 H346 0.982 . S
C317 H347 0.979 . S
C317 H348 0.977 . S
C318 C305 1.684 . S
C318 H343 0.979 . S
C318 H344 0.980 . S
C318 H345 0.983 . S
C319 C320 1.391 . S
C319 C324 1.391 . S
C319 H349 0.948 . S
C320 C319 1.391 . S
C320 C321 1.391 . S
C321 C320 1.391 . S
C321 C322 1.392 . S
C321 H350 0.947 . S
C322 C321 1.392 . S
C322 C323 1.419 . S
C322 H351 0.948 . S
C323 C322 1.419 . S
C323 C324 1.391 . S
C323 C327 1.397 . S
C324 C319 1.391 . S
C324 C323 1.391 . S
C324 C325 1.399 . S
C325 C324 1.399 . S
C325 C326 1.396 . S
C325 C328 1.453 . S
C325 C329 1.684 . S
C326 C307 1.723 . S
C326 C325 1.396 . S
C326 C327 1.394 . S
C327 C323 1.397 . S
C327 C326 1.394 . S
C327 C337 1.723 . S
C328 C325 1.453 . S
C328 H352 0.982 . S
C328 H353 0.979 . S
C328 H354 0.977 . S
C329 C325 1.684 . S
C329 H355 0.979 . S
C329 H356 0.980 . S
C329 H357 0.983 . S
C330 H306 0.948 . S
C330 C331 1.391 . S
C330 C335 1.391 . S
C331 C330 1.391 . S
C331 C332 1.391 . S
C332 H309 0.947 . S
C332 C331 1.391 . S
C332 C333 1.392 . S
C333 H310 0.948 . S
C333 C332 1.392 . S
C333 C334 1.419 . S
C334 C333 1.419 . S
C334 C335 1.391 . S
C334 C338 1.397 . S
C335 C330 1.391 . S
C335 C334 1.391 . S
C335 C336 1.399 . S
C336 C335 1.399 . S
C336 C337 1.396 . S
C336 C339 1.453 . S
C336 C340 1.684 . S
C337 C327 1.723 . S
C337 C336 1.396 . S
C337 C338 1.394 . S
C338 C308 1.723 . S
C338 C334 1.397 . S
C338 C337 1.394 . S
C339 H311 0.982 . S
C339 H315 0.979 . S
C339 H316 0.977 . S
C339 C336 1.453 . S
C340 H312 0.979 . S
C340 H313 0.980 . S
C340 H314 0.983 . S
C340 C336 1.684 . S
H341 C359 0.948 . S
H342 C300 0.948 . S
H343 C318 0.979 . S
H344 C318 0.980 . S
H345 C318 0.983 . S
H346 C317 0.982 . S
H347 C317 0.979 . S
H348 C317 0.977 . S
H349 C319 0.948 . S
H350 C321 0.947 . S
H351 C322 0.948 . S
H352 C328 0.982 . S
H353 C328 0.979 . S
H354 C328 0.977 . S
H355 C329 0.979 . S
H356 C329 0.980 . S
H357 C329 0.983 . S
H358 C302 0.947 . S
C359 C302 1.392 . S
C359 C303 1.419 . S
C359 H341 0.948 . S
C360 C361 1.391 . S
C360 C364 1.391 . S
C360 H402 0.948 . S
C361 C360 1.391 . S
C361 C362 1.391 . S
C362 C361 1.391 . S
C362 H418 0.947 . S
C362 C419 1.392 . S
C363 C364 1.391 . S
C363 C367 1.397 . S
C363 C419 1.419 . S
C364 C360 1.391 . S
C364 C363 1.391 . S
C364 C365 1.399 . S
C365 C364 1.399 . S
C365 C368 1.396 . S
C365 C377 1.453 . S
C365 C378 1.684 . S
H366 C390 0.948 . S
C367 C363 1.397 . S
C367 C368 1.394 . S
C367 C386 1.723 . S
C368 C365 1.396 . S
C368 C367 1.394 . S
C368 C398 1.723 . S
H369 C392 0.947 . S
H370 C393 0.948 . S
H371 C399 0.982 . S
H372 C400 0.979 . S
H373 C400 0.980 . S
H374 C400 0.983 . S
H375 C399 0.979 . S
H376 C399 0.977 . S
C377 C365 1.453 . S
C377 H406 0.982 . S
C377 H407 0.979 . S
C377 H408 0.977 . S
C378 C365 1.684 . S
C378 H403 0.979 . S
C378 H404 0.980 . S
C378 H405 0.983 . S
C379 C380 1.391 . S
C379 C384 1.391 . S
C379 H409 0.948 . S
C380 C379 1.391 . S
C380 C381 1.391 . S
C381 C380 1.391 . S
C381 C382 1.392 . S
C381 H410 0.947 . S
C382 C381 1.392 . S
C382 C383 1.419 . S
C382 H411 0.948 . S
C383 C382 1.419 . S
C383 C384 1.391 . S
C383 C387 1.397 . S
C384 C379 1.391 . S
C384 C383 1.391 . S
C384 C385 1.399 . S
C385 C384 1.399 . S
C385 C386 1.396 . S
C385 C388 1.453 . S
C385 C389 1.684 . S
C386 C367 1.723 . S
C386 C385 1.396 . S
C386 C387 1.394 . S
C387 C383 1.397 . S
C387 C386 1.394 . S
C387 C397 1.723 . S
C388 C385 1.453 . S
C388 H412 0.982 . S
C388 H413 0.979 . S
C388 H414 0.977 . S
C389 C385 1.684 . S
C389 H415 0.979 . S
C389 H416 0.980 . S
C389 H417 0.983 . S
C390 H366 0.948 . S
C390 C391 1.391 . S
C390 C395 1.391 . S
C391 C390 1.391 . S
C391 C392 1.391 . S
C392 H369 0.947 . S
C392 C391 1.391 . S
C392 C393 1.392 . S
C393 H370 0.948 . S
C393 C392 1.392 . S
C393 C394 1.419 . S
C394 C393 1.419 . S
C394 C395 1.391 . S
C394 C398 1.397 . S
C395 C390 1.391 . S
C395 C394 1.391 . S
C395 C396 1.399 . S
C396 C395 1.399 . S
C396 C397 1.396 . S
C396 C399 1.453 . S
C396 C400 1.684 . S
C397 C387 1.723 . S
C397 C396 1.396 . S
C397 C398 1.394 . S
C398 C368 1.723 . S
C398 C394 1.397 . S
C398 C397 1.394 . S
C399 H371 0.982 . S
C399 H375 0.979 . S
C399 H376 0.977 . S
C399 C396 1.453 . S
C400 H372 0.979 . S
C400 H373 0.980 . S
C400 H374 0.983 . S
C400 C396 1.684 . S
H401 C419 0.948 . S
H402 C360 0.948 . S
H403 C378 0.979 . S
H404 C378 0.980 . S
H405 C378 0.983 . S
H406 C377 0.982 . S
H407 C377 0.979 . S
H408 C377 0.977 . S
H409 C379 0.948 . S
H410 C381 0.947 . S
H411 C382 0.948 . S
H412 C388 0.982 . S
H413 C388 0.979 . S
H414 C388 0.977 . S
H415 C389 0.979 . S
H416 C389 0.980 . S
H417 C389 0.983 . S
H418 C362 0.947 . S
C419 C362 1.392 . S
C419 C363 1.419 . S
C419 H401 0.948 . S
C420 C421 1.391 . S
C420 C424 1.391 . S
C420 H462 0.948 . S
C421 C420 1.391 . S
C421 C422 1.391 . S
C422 C421 1.391 . S
C422 H478 0.947 . S
C422 C479 1.392 . S
C423 C424 1.391 . S
C423 C427 1.397 . S
C423 C479 1.419 . S
C424 C420 1.391 . S
C424 C423 1.391 . S
C424 C425 1.399 . S
C425 C424 1.399 . S
C425 C428 1.396 . S
C425 C437 1.453 . S
C425 C438 1.684 . S
H426 C450 0.948 . S
C427 C423 1.397 . S
C427 C428 1.394 . S
C427 C446 1.723 . S
C428 C425 1.396 . S
C428 C427 1.394 . S
C428 C458 1.723 . S
H429 C452 0.947 . S
H430 C453 0.948 . S
H431 C459 0.982 . S
H432 C460 0.979 . S
H433 C460 0.980 . S
H434 C460 0.983 . S
H435 C459 0.979 . S
H436 C459 0.977 . S
C437 C425 1.453 . S
C437 H466 0.982 . S
C437 H467 0.979 . S
C437 H468 0.977 . S
C438 C425 1.684 . S
C438 H463 0.979 . S
C438 H464 0.980 . S
C438 H465 0.983 . S
C439 C440 1.391 . S
C439 C444 1.391 . S
C439 H469 0.948 . S
C440 C439 1.391 . S
C440 C441 1.391 . S
C441 C440 1.391 . S
C441 C442 1.392 . S
C441 H470 0.947 . S
C442 C441 1.392 . S
C442 C443 1.419 . S
C442 H471 0.948 . S
C443 C442 1.419 . S
C443 C444 1.391 . S
C443 C447 1.397 . S
C444 C439 1.391 . S
C444 C443 1.391 . S
C444 C445 1.399 . S
C445 C444 1.399 . S
C445 C446 1.396 . S
C445 C448 1.453 . S
C445 C449 1.684 . S
C446 C427 1.723 . S
C446 C445 1.396 . S
C446 C447 1.394 . S
C447 C443 1.397 . S
C447 C446 1.394 . S
C447 C457 1.723 . S
C448 C445 1.453 . S
C448 H472 0.982 . S
C448 H473 0.979 . S
C448 H474 0.977 . S
C449 C445 1.684 . S
C449 H475 0.979 . S
C449 H476 0.980 . S
C449 H477 0.983 . S
C450 H426 0.948 . S
C450 C451 1.391 . S
C450 C455 1.391 . S
C451 C450 1.391 . S
C451 C452 1.391 . S
C452 H429 0.947 . S
C452 C451 1.391 . S
C452 C453 1.392 . S
C453 H430 0.948 . S
C453 C452 1.392 . S
C453 C454 1.419 . S
C454 C453 1.419 . S
C454 C455 1.391 . S
C454 C458 1.397 . S
C455 C450 1.391 . S
C455 C454 1.391 . S
C455 C456 1.399 . S
C456 C455 1.399 . S
C456 C457 1.396 . S
C456 C459 1.453 . S
C456 C460 1.684 . S
C457 C447 1.723 . S
C457 C456 1.396 . S
C457 C458 1.394 . S
C458 C428 1.723 . S
C458 C454 1.397 . S
C458 C457 1.394 . S
C459 H431 0.982 . S
C459 H435 0.979 . S
C459 H436 0.977 . S
C459 C456 1.453 . S
C460 H432 0.979 . S
C460 H433 0.980 . S
C460 H434 0.983 . S
C460 C456 1.684 . S
H461 C479 0.948 . S
H462 C420 0.948 . S
H463 C438 0.979 . S
H464 C438 0.980 . S
H465 C438 0.983 . S
H466 C437 0.982 . S
H467 C437 0.979 . S
H468 C437 0.977 . S
H469 C439 0.948 . S
H470 C441 0.947 . S
H471 C442 0.948 . S
H472 C448 0.982 . S
H473 C448 0.979 . S
H474 C448 0.977 . S
H475 C449 0.979 . S
H476 C449 0.980 . S
H477 C449 0.983 . S
H478 C422 0.947 . S
C479 C422 1.392 . S
C479 C423 1.419 . S
C479 H461 0.948 . S
Sm480 C482 2.846 . S
Sm480 O500 2.543 . S
Sm480 O501 2.450 . S
Sm480 O502 2.681 1_545 S
Sm480 O503 2.464 1_545 S
Sm480 O504 2.396 . S
Sm480 O508 2.386 1_455 S
Sm480 O511 2.408 1_445 S
Sm481 C491 2.846 . S
Sm481 O502 2.386 1_655 S
Sm481 O505 2.408 1_665 S
Sm481 O506 2.543 . S
Sm481 O507 2.450 . S
Sm481 O508 2.681 1_565 S
Sm481 O509 2.464 1_565 S
Sm481 O510 2.396 . S
C482 Sm480 2.846 . S
C482 C483 1.506 . S
C482 O500 1.261 . S
C482 O501 1.242 . S
C483 C482 1.506 . S
C483 C484 1.358 . S
C483 C488 1.382 . S
C484 C483 1.358 . S
C484 C485 1.385 . S
C484 H512 0.930 . S
C485 C484 1.385 . S
C485 C486 1.395 . S
C485 H513 0.929 . S
C486 C485 1.395 . S
C486 C487 1.335 . S
C487 C486 1.335 . S
C487 C488 1.398 . S
C487 H514 0.930 . S
C488 C483 1.382 . S
C488 C487 1.398 . S
C488 H515 0.929 . S
C489 O502 1.271 . S
C489 O503 1.251 . S
C490 O504 1.252 . S
C490 O505 1.272 . S
C491 Sm481 2.846 . S
C491 C492 1.506 . S
C491 O506 1.261 . S
C491 O507 1.242 . S
C492 C491 1.506 . S
C492 C493 1.358 . S
C492 C497 1.382 . S
C493 C492 1.358 . S
C493 C494 1.385 . S
C493 H516 0.930 . S
C494 C493 1.385 . S
C494 C495 1.395 . S
C494 H517 0.929 . S
C495 C494 1.395 . S
C495 C496 1.335 . S
C496 C495 1.335 . S
C496 C497 1.398 . S
C496 H518 0.930 . S
C497 C492 1.382 . S
C497 C496 1.398 . S
C497 H519 0.929 . S
C498 O508 1.271 . S
C498 O509 1.251 . S
C499 O510 1.252 . S
C499 O511 1.272 . S
O500 Sm480 2.543 . S
O500 C482 1.261 . S
O501 Sm480 2.450 . S
O501 C482 1.242 . S
O502 Sm480 2.681 1_565 S
O502 Sm481 2.386 1_455 S
O502 C489 1.271 . S
O503 Sm480 2.464 1_565 S
O503 C489 1.251 . S
O504 Sm480 2.396 . S
O504 C490 1.252 . S
O505 Sm481 2.408 1_445 S
O505 C490 1.272 . S
O506 Sm481 2.543 . S
O506 C491 1.261 . S
O507 Sm481 2.450 . S
O507 C491 1.242 . S
O508 Sm480 2.386 1_655 S
O508 Sm481 2.681 1_545 S
O508 C498 1.271 . S
O509 Sm481 2.464 1_545 S
O509 C498 1.251 . S
O510 Sm481 2.396 . S
O510 C499 1.252 . S
O511 Sm480 2.408 1_665 S
O511 C499 1.272 . S
H512 C484 0.930 . S
H513 C485 0.929 . S
H514 C487 0.930 . S
H515 C488 0.929 . S
H516 C493 0.930 . S
H517 C494 0.929 . S
H518 C496 0.930 . S
H519 C497 0.929 . S
Sm520 C522 2.846 1_565 S
Sm520 O540 2.543 1_565 S
Sm520 O541 2.450 1_565 S
Sm520 O542 2.681 . S
Sm520 O543 2.464 . S
Sm520 O544 2.396 1_565 S
Sm520 O548 2.386 1_564 S
Sm520 O551 2.408 1_554 S
Sm521 C531 2.846 1_545 S
Sm521 O542 2.386 1_546 S
Sm521 O545 2.408 1_556 S
Sm521 O546 2.543 1_545 S
Sm521 O547 2.450 1_545 S
Sm521 O548 2.681 . S
Sm521 O549 2.464 . S
Sm521 O550 2.396 1_545 S
C522 Sm520 2.846 1_545 S
C522 C523 1.506 . S
C522 O540 1.261 . S
C522 O541 1.242 . S
C523 C522 1.506 . S
C523 C524 1.358 . S
C523 C528 1.382 . S
C524 C523 1.358 . S
C524 C525 1.385 . S
C524 H552 0.930 . S
C525 C524 1.385 . S
C525 C526 1.395 . S
C525 H553 0.929 . S
C526 C525 1.395 . S
C526 C527 1.335 . S
C527 C526 1.335 . S
C527 C528 1.398 . S
C527 H554 0.930 . S
C528 C523 1.382 . S
C528 C527 1.398 . S
C528 H555 0.929 . S
C529 O542 1.271 . S
C529 O543 1.251 . S
C530 O544 1.252 . S
C530 O545 1.272 . S
C531 Sm521 2.846 1_565 S
C531 C532 1.506 . S
C531 O546 1.261 . S
C531 O547 1.242 . S
C532 C531 1.506 . S
C532 C533 1.358 . S
C532 C537 1.382 . S
C533 C532 1.358 . S
C533 C534 1.385 . S
C533 H556 0.930 . S
C534 C533 1.385 . S
C534 C535 1.395 . S
C534 H557 0.929 . S
C535 C534 1.395 . S
C535 C536 1.335 . S
C536 C535 1.335 . S
C536 C537 1.398 . S
C536 H558 0.930 . S
C537 C532 1.382 . S
C537 C536 1.398 . S
C537 H559 0.929 . S
C538 O548 1.271 . S
C538 O549 1.251 . S
C539 O550 1.252 . S
C539 O551 1.272 . S
O540 Sm520 2.543 1_545 S
O540 C522 1.261 . S
O541 Sm520 2.450 1_545 S
O541 C522 1.242 . S
O542 Sm520 2.681 . S
O542 Sm521 2.386 1_564 S
O542 C529 1.271 . S
O543 Sm520 2.464 . S
O543 C529 1.251 . S
O544 Sm520 2.396 1_545 S
O544 C530 1.252 . S
O545 Sm521 2.408 1_554 S
O545 C530 1.272 . S
O546 Sm521 2.543 1_565 S
O546 C531 1.261 . S
O547 Sm521 2.450 1_565 S
O547 C531 1.242 . S
O548 Sm520 2.386 1_546 S
O548 Sm521 2.681 . S
O548 C538 1.271 . S
O549 Sm521 2.464 . S
O549 C538 1.251 . S
O550 Sm521 2.396 1_565 S
O550 C539 1.252 . S
O551 Sm520 2.408 1_556 S
O551 C539 1.272 . S
H552 C524 0.930 . S
H553 C525 0.929 . S
H554 C527 0.930 . S
H555 C528 0.929 . S
H556 C533 0.930 . S
H557 C534 0.929 . S
H558 C536 0.930 . S
H559 C537 0.929 . S
Sm560 C562 2.846 . S
Sm560 O580 2.543 . S
Sm560 O581 2.450 . S
Sm560 O582 2.681 . S
Sm560 O583 2.464 . S
Sm560 O584 2.396 . S
Sm560 O588 2.386 . S
Sm560 O591 2.408 . S
Sm561 C571 2.846 . S
Sm561 O582 2.386 . S
Sm561 O585 2.408 . S
Sm561 O586 2.543 . S
Sm561 O587 2.450 . S
Sm561 O588 2.681 . S
Sm561 O589 2.464 . S
Sm561 O590 2.396 . S
C562 Sm560 2.846 . S
C562 C563 1.506 . S
C562 O580 1.261 . S
C562 O581 1.242 . S
C563 C562 1.506 . S
C563 C564 1.358 . S
C563 C568 1.382 . S
C564 C563 1.358 . S
C564 C565 1.385 . S
C564 H592 0.930 . S
C565 C564 1.385 . S
C565 C566 1.395 . S
C565 H593 0.929 . S
C566 C565 1.395 . S
C566 C567 1.335 . S
C567 C566 1.335 . S
C567 C568 1.398 . S
C567 H594 0.930 . S
C568 C563 1.382 . S
C568 C567 1.398 . S
C568 H595 0.929 . S
C569 O582 1.271 . S
C569 O583 1.251 . S
C570 O584 1.252 . S
C570 O585 1.272 . S
C571 Sm561 2.846 . S
C571 C572 1.506 . S
C571 O586 1.261 . S
C571 O587 1.242 . S
C572 C571 1.506 . S
C572 C573 1.358 . S
C572 C577 1.382 . S
C573 C572 1.358 . S
C573 C574 1.385 . S
C573 H596 0.930 . S
C574 C573 1.385 . S
C574 C575 1.395 . S
C574 H597 0.929 . S
C575 C574 1.395 . S
C575 C576 1.335 . S
C576 C575 1.335 . S
C576 C577 1.398 . S
C576 H598 0.930 . S
C577 C572 1.382 . S
C577 C576 1.398 . S
C577 H599 0.929 . S
C578 O588 1.271 . S
C578 O589 1.251 . S
C579 O590 1.252 . S
C579 O591 1.272 . S
O580 Sm560 2.543 . S
O580 C562 1.261 . S
O581 Sm560 2.450 . S
O581 C562 1.242 . S
O582 Sm560 2.681 . S
O582 Sm561 2.386 . S
O582 C569 1.271 . S
O583 Sm560 2.464 . S
O583 C569 1.251 . S
O584 Sm560 2.396 . S
O584 C570 1.252 . S
O585 Sm561 2.408 . S
O585 C570 1.272 . S
O586 Sm561 2.543 . S
O586 C571 1.261 . S
O587 Sm561 2.450 . S
O587 C571 1.242 . S
O588 Sm560 2.386 . S
O588 Sm561 2.681 . S
O588 C578 1.271 . S
O589 Sm561 2.464 . S
O589 C578 1.251 . S
O590 Sm561 2.396 . S
O590 C579 1.252 . S
O591 Sm560 2.408 . S
O591 C579 1.272 . S
H592 C564 0.930 . S
H593 C565 0.929 . S
H594 C567 0.930 . S
H595 C568 0.929 . S
H596 C573 0.930 . S
H597 C574 0.929 . S
H598 C576 0.930 . S
H599 C577 0.929 . S
Sm600 C602 2.846 . S
Sm600 O620 2.543 . S
Sm600 O621 2.450 . S
Sm600 O622 2.681 1_455 S
Sm600 O623 2.464 1_455 S
Sm600 O624 2.396 . S
Sm600 O628 2.386 1_554 S
Sm600 O631 2.408 1_454 S
Sm601 C611 2.846 . S
Sm601 O622 2.386 1_556 S
Sm601 O625 2.408 1_656 S
Sm601 O626 2.543 . S
Sm601 O627 2.450 . S
Sm601 O628 2.681 1_655 S
Sm601 O629 2.464 1_655 S
Sm601 O630 2.396 . S
C602 Sm600 2.846 . S
C602 C603 1.506 . S
C602 O620 1.261 . S
C602 O621 1.242 . S
C603 C602 1.506 . S
C603 C604 1.358 . S
C603 C608 1.382 . S
C604 C603 1.358 . S
C604 C605 1.385 . S
C604 H632 0.930 . S
C605 C604 1.385 . S
C605 C606 1.395 . S
C605 H633 0.929 . S
C606 C605 1.395 . S
C606 C607 1.335 . S
C607 C606 1.335 . S
C607 C608 1.398 . S
C607 H634 0.930 . S
C608 C603 1.382 . S
C608 C607 1.398 . S
C608 H635 0.929 . S
C609 O622 1.271 . S
C609 O623 1.251 . S
C610 O624 1.252 . S
C610 O625 1.272 . S
C611 Sm601 2.846 . S
C611 C612 1.506 . S
C611 O626 1.261 . S
C611 O627 1.242 . S
C612 C611 1.506 . S
C612 C613 1.358 . S
C612 C617 1.382 . S
C613 C612 1.358 . S
C613 C614 1.385 . S
C613 H636 0.930 . S
C614 C613 1.385 . S
C614 C615 1.395 . S
C614 H637 0.929 . S
C615 C614 1.395 . S
C615 C616 1.335 . S
C616 C615 1.335 . S
C616 C617 1.398 . S
C616 H638 0.930 . S
C617 C612 1.382 . S
C617 C616 1.398 . S
C617 H639 0.929 . S
C618 O628 1.271 . S
C618 O629 1.251 . S
C619 O630 1.252 . S
C619 O631 1.272 . S
O620 Sm600 2.543 . S
O620 C602 1.261 . S
O621 Sm600 2.450 . S
O621 C602 1.242 . S
O622 Sm600 2.681 1_655 S
O622 Sm601 2.386 1_554 S
O622 C609 1.271 . S
O623 Sm600 2.464 1_655 S
O623 C609 1.251 . S
O624 Sm600 2.396 . S
O624 C610 1.252 . S
O625 Sm601 2.408 1_454 S
O625 C610 1.272 . S
O626 Sm601 2.543 . S
O626 C611 1.261 . S
O627 Sm601 2.450 . S
O627 C611 1.242 . S
O628 Sm600 2.386 1_556 S
O628 Sm601 2.681 1_455 S
O628 C618 1.271 . S
O629 Sm601 2.464 1_455 S
O629 C618 1.251 . S
O630 Sm601 2.396 . S
O630 C619 1.252 . S
O631 Sm600 2.408 1_656 S
O631 C619 1.272 . S
H632 C604 0.930 . S
H633 C605 0.929 . S
H634 C607 0.930 . S
H635 C608 0.929 . S
H636 C613 0.930 . S
H637 C614 0.929 . S
H638 C616 0.930 . S
H639 C617 0.929 . S
H640 C652 0.930 . S
H641 C654 0.930 . S
H642 C655 0.930 . S
H643 C659 0.959 . S
H644 C659 0.959 . S
H645 C659 0.961 . S
H646 C660 0.960 . S
H647 C660 0.961 . S
H648 C660 0.959 . S
H649 C663 0.929 . S
H650 C664 0.931 . S
H651 C666 0.930 . S
C652 H640 0.930 . S
C652 C653 1.399 . S
C652 C657 1.399 . S
C653 C652 1.399 . S
C653 C654 1.376 . S
C654 H641 0.930 . S
C654 C653 1.376 . S
C654 C655 1.388 . S
C655 H642 0.930 . S
C655 C654 1.388 . S
C655 C656 1.390 . S
C656 C655 1.390 . S
C656 C657 1.394 . S
C656 C662 1.465 . S
C657 C652 1.399 . S
C657 C656 1.394 . S
C657 C658 1.516 . S
C658 C657 1.516 . S
C658 C659 1.502 . S
C658 C660 1.561 . S
C658 C661 1.526 . S
C659 H643 0.959 . S
C659 H644 0.959 . S
C659 H645 0.961 . S
C659 C658 1.502 . S
C660 H646 0.960 . S
C660 H647 0.961 . S
C660 H648 0.959 . S
C660 C658 1.561 . S
C661 C658 1.526 . S
C661 C662 1.396 . S
C661 C666 1.390 . S
C662 C656 1.465 . S
C662 C661 1.396 . S
C662 C663 1.399 . S
C663 H649 0.929 . S
C663 C662 1.399 . S
C663 C664 1.385 . S
C664 H650 0.931 . S
C664 C663 1.385 . S
C664 C665 1.389 . S
C665 C664 1.389 . S
C665 C666 1.387 . S
C666 H651 0.930 . S
C666 C661 1.390 . S
C666 C665 1.387 . S
H667 C679 0.930 . S
H668 C681 0.930 . S
H669 C682 0.930 . S
H670 C686 0.959 . S
H671 C686 0.959 . S
H672 C686 0.961 . S
H673 C687 0.960 . S
H674 C687 0.961 . S
H675 C687 0.959 . S
H676 C690 0.929 . S
H677 C691 0.931 . S
H678 C693 0.930 . S
C679 H667 0.930 . S
C679 C680 1.399 . S
C679 C684 1.399 . S
C680 C679 1.399 . S
C680 C681 1.376 . S
C681 H668 0.930 . S
C681 C680 1.376 . S
C681 C682 1.388 . S
C682 H669 0.930 . S
C682 C681 1.388 . S
C682 C683 1.390 . S
C683 C682 1.390 . S
C683 C684 1.394 . S
C683 C689 1.465 . S
C684 C679 1.399 . S
C684 C683 1.394 . S
C684 C685 1.516 . S
C685 C684 1.516 . S
C685 C686 1.502 . S
C685 C687 1.561 . S
C685 C688 1.526 . S
C686 H670 0.959 . S
C686 H671 0.959 . S
C686 H672 0.961 . S
C686 C685 1.502 . S
C687 H673 0.960 . S
C687 H674 0.961 . S
C687 H675 0.959 . S
C687 C685 1.561 . S
C688 C685 1.526 . S
C688 C689 1.396 . S
C688 C693 1.390 . S
C689 C683 1.465 . S
C689 C688 1.396 . S
C689 C690 1.399 . S
C690 H676 0.929 . S
C690 C689 1.399 . S
C690 C691 1.385 . S
C691 H677 0.931 . S
C691 C690 1.385 . S
C691 C692 1.389 . S
C692 C691 1.389 . S
C692 C693 1.387 . S
C693 H678 0.930 . S
C693 C688 1.390 . S
C693 C692 1.387 . S
H694 C706 0.930 . S
H695 C708 0.930 . S
H696 C709 0.930 . S
H697 C713 0.959 . S
H698 C713 0.959 . S
H699 C713 0.961 . S
H700 C714 0.960 . S
H701 C714 0.961 . S
H702 C714 0.959 . S
H703 C717 0.929 . S
H704 C718 0.931 . S
H705 C720 0.930 . S
C706 H694 0.930 . S
C706 C707 1.399 . S
C706 C711 1.399 . S
C707 C706 1.399 . S
C707 C708 1.376 . S
C708 H695 0.930 . S
C708 C707 1.376 . S
C708 C709 1.388 . S
C709 H696 0.930 . S
C709 C708 1.388 . S
C709 C710 1.390 . S
C710 C709 1.390 . S
C710 C711 1.394 . S
C710 C716 1.465 . S
C711 C706 1.399 . S
C711 C710 1.394 . S
C711 C712 1.516 . S
C712 C711 1.516 . S
C712 C713 1.502 . S
C712 C714 1.561 . S
C712 C715 1.526 . S
C713 H697 0.959 . S
C713 H698 0.959 . S
C713 H699 0.961 . S
C713 C712 1.502 . S
C714 H700 0.960 . S
C714 H701 0.961 . S
C714 H702 0.959 . S
C714 C712 1.561 . S
C715 C712 1.526 . S
C715 C716 1.396 . S
C715 C720 1.390 . S
C716 C710 1.465 . S
C716 C715 1.396 . S
C716 C717 1.399 . S
C717 H703 0.929 . S
C717 C716 1.399 . S
C717 C718 1.385 . S
C718 H704 0.931 . S
C718 C717 1.385 . S
C718 C719 1.389 . S
C719 C718 1.389 . S
C719 C720 1.387 . S
C720 H705 0.930 . S
C720 C715 1.390 . S
C720 C719 1.387 . S
H721 C733 0.930 . S
H722 C735 0.930 . S
H723 C736 0.930 . S
H724 C740 0.959 . S
H725 C740 0.959 . S
H726 C740 0.961 . S
H727 C741 0.960 . S
H728 C741 0.961 . S
H729 C741 0.959 . S
H730 C744 0.929 . S
H731 C745 0.931 . S
H732 C747 0.930 . S
C733 H721 0.930 . S
C733 C734 1.399 . S
C733 C738 1.399 . S
C734 C733 1.399 . S
C734 C735 1.376 . S
C735 H722 0.930 . S
C735 C734 1.376 . S
C735 C736 1.388 . S
C736 H723 0.930 . S
C736 C735 1.388 . S
C736 C737 1.390 . S
C737 C736 1.390 . S
C737 C738 1.394 . S
C737 C743 1.465 . S
C738 C733 1.399 . S
C738 C737 1.394 . S
C738 C739 1.516 . S
C739 C738 1.516 . S
C739 C740 1.502 . S
C739 C741 1.561 . S
C739 C742 1.526 . S
C740 H724 0.959 . S
C740 H725 0.959 . S
C740 H726 0.961 . S
C740 C739 1.502 . S
C741 H727 0.960 . S
C741 H728 0.961 . S
C741 H729 0.959 . S
C741 C739 1.561 . S
C742 C739 1.526 . S
C742 C743 1.396 . S
C742 C747 1.390 . S
C743 C737 1.465 . S
C743 C742 1.396 . S
C743 C744 1.399 . S
C744 H730 0.929 . S
C744 C743 1.399 . S
C744 C745 1.385 . S
C745 H731 0.931 . S
C745 C744 1.385 . S
C745 C746 1.389 . S
C746 C745 1.389 . S
C746 C747 1.387 . S
C747 H732 0.930 . S
C747 C742 1.390 . S
C747 C746 1.387 . S
H748 C760 0.930 . S
H749 C762 0.930 . S
H750 C763 0.930 . S
H751 C767 0.959 . S
H752 C767 0.959 . S
H753 C767 0.961 . S
H754 C768 0.960 . S
H755 C768 0.961 . S
H756 C768 0.959 . S
H757 C771 0.929 . S
H758 C772 0.931 . S
H759 C774 0.930 . S
C760 H748 0.930 . S
C760 C761 1.399 . S
C760 C765 1.399 . S
C761 C760 1.399 . S
C761 C762 1.376 . S
C762 H749 0.930 . S
C762 C761 1.376 . S
C762 C763 1.388 . S
C763 H750 0.930 . S
C763 C762 1.388 . S
C763 C764 1.390 . S
C764 C763 1.390 . S
C764 C765 1.394 . S
C764 C770 1.465 . S
C765 C760 1.399 . S
C765 C764 1.394 . S
C765 C766 1.516 . S
C766 C765 1.516 . S
C766 C767 1.502 . S
C766 C768 1.561 . S
C766 C769 1.526 . S
C767 H751 0.959 . S
C767 H752 0.959 . S
C767 H753 0.961 . S
C767 C766 1.502 . S
C768 H754 0.960 . S
C768 H755 0.961 . S
C768 H756 0.959 . S
C768 C766 1.561 . S
C769 C766 1.526 . S
C769 C770 1.396 . S
C769 C774 1.390 . S
C770 C764 1.465 . S
C770 C769 1.396 . S
C770 C771 1.399 . S
C771 H757 0.929 . S
C771 C770 1.399 . S
C771 C772 1.385 . S
C772 H758 0.931 . S
C772 C771 1.385 . S
C772 C773 1.389 . S
C773 C772 1.389 . S
C773 C774 1.387 . S
C774 H759 0.930 . S
C774 C769 1.390 . S
C774 C773 1.387 . S
H775 C787 0.930 . S
H776 C789 0.930 . S
H777 C790 0.930 . S
H778 C794 0.959 . S
H779 C794 0.959 . S
H780 C794 0.961 . S
H781 C795 0.960 . S
H782 C795 0.961 . S
H783 C795 0.959 . S
H784 C798 0.929 . S
H785 C799 0.931 . S
H786 C801 0.930 . S
C787 H775 0.930 . S
C787 C788 1.399 . S
C787 C792 1.399 . S
C788 C787 1.399 . S
C788 C789 1.376 . S
C789 H776 0.930 . S
C789 C788 1.376 . S
C789 C790 1.388 . S
C790 H777 0.930 . S
C790 C789 1.388 . S
C790 C791 1.390 . S
C791 C790 1.390 . S
C791 C792 1.394 . S
C791 C797 1.465 . S
C792 C787 1.399 . S
C792 C791 1.394 . S
C792 C793 1.516 . S
C793 C792 1.516 . S
C793 C794 1.502 . S
C793 C795 1.561 . S
C793 C796 1.526 . S
C794 H778 0.959 . S
C794 H779 0.959 . S
C794 H780 0.961 . S
C794 C793 1.502 . S
C795 H781 0.960 . S
C795 H782 0.961 . S
C795 H783 0.959 . S
C795 C793 1.561 . S
C796 C793 1.526 . S
C796 C797 1.396 . S
C796 C801 1.390 . S
C797 C791 1.465 . S
C797 C796 1.396 . S
C797 C798 1.399 . S
C798 H784 0.929 . S
C798 C797 1.399 . S
C798 C799 1.385 . S
C799 H785 0.931 . S
C799 C798 1.385 . S
C799 C800 1.389 . S
C800 C799 1.389 . S
C800 C801 1.387 . S
C801 H786 0.930 . S
C801 C796 1.390 . S
C801 C800 1.387 . S
H802 C814 0.930 . S
H803 C816 0.930 . S
H804 C817 0.930 . S
H805 C821 0.959 . S
H806 C821 0.959 . S
H807 C821 0.961 . S
H808 C822 0.960 . S
H809 C822 0.961 . S
H810 C822 0.959 . S
H811 C825 0.929 . S
H812 C826 0.931 1_554 S
H813 C828 0.930 . S
C814 H802 0.930 . S
C814 C815 1.399 . S
C814 C819 1.399 . S
C815 C814 1.399 . S
C815 C816 1.376 . S
C816 H803 0.930 . S
C816 C815 1.376 . S
C816 C817 1.388 . S
C817 H804 0.930 . S
C817 C816 1.388 . S
C817 C818 1.390 . S
C818 C817 1.390 . S
C818 C819 1.394 . S
C818 C824 1.465 . S
C819 C814 1.399 . S
C819 C818 1.394 . S
C819 C820 1.516 . S
C820 C819 1.516 . S
C820 C821 1.502 . S
C820 C822 1.561 . S
C820 C823 1.526 . S
C821 H805 0.959 . S
C821 H806 0.959 . S
C821 H807 0.961 . S
C821 C820 1.502 . S
C822 H808 0.960 . S
C822 H809 0.961 . S
C822 H810 0.959 . S
C822 C820 1.561 . S
C823 C820 1.526 . S
C823 C824 1.396 . S
C823 C828 1.390 . S
C824 C818 1.465 . S
C824 C823 1.396 . S
C824 C825 1.399 . S
C825 H811 0.929 . S
C825 C824 1.399 . S
C825 C826 1.385 . S
C826 H812 0.931 1_556 S
C826 C825 1.385 . S
C826 C827 1.389 . S
C827 C826 1.389 . S
C827 C828 1.387 . S
C828 H813 0.930 . S
C828 C823 1.390 . S
C828 C827 1.387 . S
H829 C841 0.930 . S
H830 C843 0.930 . S
H831 C844 0.930 . S
H832 C848 0.959 . S
H833 C848 0.959 . S
H834 C848 0.961 . S
H835 C849 0.960 . S
H836 C849 0.961 . S
H837 C849 0.959 . S
H838 C852 0.929 . S
H839 C853 0.931 . S
H840 C855 0.930 . S
C841 H829 0.930 . S
C841 C842 1.399 . S
C841 C846 1.399 . S
C842 C841 1.399 . S
C842 C843 1.376 . S
C843 H830 0.930 . S
C843 C842 1.376 . S
C843 C844 1.388 . S
C844 H831 0.930 . S
C844 C843 1.388 . S
C844 C845 1.390 . S
C845 C844 1.390 . S
C845 C846 1.394 . S
C845 C851 1.465 . S
C846 C841 1.399 . S
C846 C845 1.394 . S
C846 C847 1.516 . S
C847 C846 1.516 . S
C847 C848 1.502 . S
C847 C849 1.561 . S
C847 C850 1.526 . S
C848 H832 0.959 . S
C848 H833 0.959 . S
C848 H834 0.961 . S
C848 C847 1.502 . S
C849 H835 0.960 . S
C849 H836 0.961 . S
C849 H837 0.959 . S
C849 C847 1.561 . S
C850 C847 1.526 . S
C850 C851 1.396 . S
C850 C855 1.390 . S
C851 C845 1.465 . S
C851 C850 1.396 . S
C851 C852 1.399 . S
C852 H838 0.929 . S
C852 C851 1.399 . S
C852 C853 1.385 . S
C853 H839 0.931 . S
C853 C852 1.385 . S
C853 C854 1.389 . S
C854 C853 1.389 . S
C854 C855 1.387 . S
C855 H840 0.930 . S
C855 C850 1.390 . S
C855 C854 1.387 . S
H856 C868 0.930 . S
H857 C870 0.930 . S
H858 C871 0.930 . S
H859 C875 0.959 . S
H860 C875 0.959 . S
H861 C875 0.961 . S
H862 C876 0.960 . S
H863 C876 0.961 . S
H864 C876 0.959 . S
H865 C879 0.929 . S
H866 C880 0.931 . S
H867 C882 0.930 . S
C868 H856 0.930 . S
C868 C869 1.399 . S
C868 C873 1.399 . S
C869 C868 1.399 . S
C869 C870 1.376 . S
C870 H857 0.930 . S
C870 C869 1.376 . S
C870 C871 1.388 . S
C871 H858 0.930 . S
C871 C870 1.388 . S
C871 C872 1.390 . S
C872 C871 1.390 . S
C872 C873 1.394 . S
C872 C878 1.465 . S
C873 C868 1.399 . S
C873 C872 1.394 . S
C873 C874 1.516 . S
C874 C873 1.516 . S
C874 C875 1.502 . S
C874 C876 1.561 . S
C874 C877 1.526 . S
C875 H859 0.959 . S
C875 H860 0.959 . S
C875 H861 0.961 . S
C875 C874 1.502 . S
C876 H862 0.960 . S
C876 H863 0.961 . S
C876 H864 0.959 . S
C876 C874 1.561 . S
C877 C874 1.526 . S
C877 C878 1.396 . S
C877 C882 1.390 . S
C878 C872 1.465 . S
C878 C877 1.396 . S
C878 C879 1.399 . S
C879 H865 0.929 . S
C879 C878 1.399 . S
C879 C880 1.385 . S
C880 H866 0.931 . S
C880 C879 1.385 . S
C880 C881 1.389 . S
C881 C880 1.389 . S
C881 C882 1.387 . S
C882 H867 0.930 . S
C882 C877 1.390 . S
C882 C881 1.387 . S
H883 C895 0.930 . S
H884 C897 0.930 . S
H885 C898 0.930 . S
H886 C902 0.959 . S
H887 C902 0.959 . S
H888 C902 0.961 . S
H889 C903 0.960 . S
H890 C903 0.961 . S
H891 C903 0.959 . S
H892 C906 0.929 . S
H893 C907 0.931 . S
H894 C909 0.930 . S
C895 H883 0.930 . S
C895 C896 1.399 . S
C895 C900 1.399 . S
C896 C895 1.399 . S
C896 C897 1.376 . S
C897 H884 0.930 . S
C897 C896 1.376 . S
C897 C898 1.388 . S
C898 H885 0.930 . S
C898 C897 1.388 . S
C898 C899 1.390 . S
C899 C898 1.390 . S
C899 C900 1.394 . S
C899 C905 1.465 . S
C900 C895 1.399 . S
C900 C899 1.394 . S
C900 C901 1.516 . S
C901 C900 1.516 . S
C901 C902 1.502 . S
C901 C903 1.561 . S
C901 C904 1.526 . S
C902 H886 0.959 . S
C902 H887 0.959 . S
C902 H888 0.961 . S
C902 C901 1.502 . S
C903 H889 0.960 . S
C903 H890 0.961 . S
C903 H891 0.959 . S
C903 C901 1.561 . S
C904 C901 1.526 . S
C904 C905 1.396 . S
C904 C909 1.390 . S
C905 C899 1.465 . S
C905 C904 1.396 . S
C905 C906 1.399 . S
C906 H892 0.929 . S
C906 C905 1.399 . S
C906 C907 1.385 . S
C907 H893 0.931 . S
C907 C906 1.385 . S
C907 C908 1.389 . S
C908 C907 1.389 . S
C908 C909 1.387 . S
C909 H894 0.930 . S
C909 C904 1.390 . S
C909 C908 1.387 . S
H910 C922 0.930 . S
H911 C924 0.930 . S
H912 C925 0.930 . S
H913 C929 0.959 . S
H914 C929 0.959 . S
H915 C929 0.961 . S
H916 C930 0.960 . S
H917 C930 0.961 . S
H918 C930 0.959 . S
H919 C933 0.929 . S
H920 C934 0.931 . S
H921 C936 0.930 . S
C922 H910 0.930 . S
C922 C923 1.399 . S
C922 C927 1.399 . S
C923 C922 1.399 . S
C923 C924 1.376 . S
C924 H911 0.930 . S
C924 C923 1.376 . S
C924 C925 1.388 . S
C925 H912 0.930 . S
C925 C924 1.388 . S
C925 C926 1.390 . S
C926 C925 1.390 . S
C926 C927 1.394 . S
C926 C932 1.465 . S
C927 C922 1.399 . S
C927 C926 1.394 . S
C927 C928 1.516 . S
C928 C927 1.516 . S
C928 C929 1.502 . S
C928 C930 1.561 . S
C928 C931 1.526 . S
C929 H913 0.959 . S
C929 H914 0.959 . S
C929 H915 0.961 . S
C929 C928 1.502 . S
C930 H916 0.960 . S
C930 H917 0.961 . S
C930 H918 0.959 . S
C930 C928 1.561 . S
C931 C928 1.526 . S
C931 C932 1.396 . S
C931 C936 1.390 . S
C932 C926 1.465 . S
C932 C931 1.396 . S
C932 C933 1.399 . S
C933 H919 0.929 . S
C933 C932 1.399 . S
C933 C934 1.385 . S
C934 H920 0.931 . S
C934 C933 1.385 . S
C934 C935 1.389 . S
C935 C934 1.389 . S
C935 C936 1.387 . S
C936 H921 0.930 . S
C936 C931 1.390 . S
C936 C935 1.387 . S
H937 C949 0.930 . S
H938 C951 0.930 . S
H939 C952 0.930 . S
H940 C956 0.959 . S
H941 C956 0.959 . S
H942 C956 0.961 . S
H943 C957 0.960 . S
H944 C957 0.961 . S
H945 C957 0.959 . S
H946 C960 0.929 . S
H947 C961 0.931 . S
H948 C963 0.930 . S
C949 H937 0.930 . S
C949 C950 1.399 . S
C949 C954 1.399 . S
C950 C949 1.399 . S
C950 C951 1.376 . S
C951 H938 0.930 . S
C951 C950 1.376 . S
C951 C952 1.388 . S
C952 H939 0.930 . S
C952 C951 1.388 . S
C952 C953 1.390 . S
C953 C952 1.390 . S
C953 C954 1.394 . S
C953 C959 1.465 . S
C954 C949 1.399 . S
C954 C953 1.394 . S
C954 C955 1.516 . S
C955 C954 1.516 . S
C955 C956 1.502 . S
C955 C957 1.561 . S
C955 C958 1.526 . S
C956 H940 0.959 . S
C956 H941 0.959 . S
C956 H942 0.961 . S
C956 C955 1.502 . S
C957 H943 0.960 . S
C957 H944 0.961 . S
C957 H945 0.959 . S
C957 C955 1.561 . S
C958 C955 1.526 . S
C958 C959 1.396 . S
C958 C963 1.390 . S
C959 C953 1.465 . S
C959 C958 1.396 . S
C959 C960 1.399 . S
C960 H946 0.929 . S
C960 C959 1.399 . S
C960 C961 1.385 . S
C961 H947 0.931 . S
C961 C960 1.385 . S
C961 C962 1.389 . S
C962 C961 1.389 . S
C962 C963 1.387 . S
C963 H948 0.930 . S
C963 C958 1.390 . S
C963 C962 1.387 . S
H964 C976 0.930 . S
H965 C978 0.930 . S
H966 C979 0.930 . S
H967 C983 0.959 . S
H968 C983 0.959 . S
H969 C983 0.961 . S
H970 C984 0.960 . S
H971 C984 0.961 . S
H972 C984 0.959 . S
H973 C987 0.929 . S
H974 C988 0.931 . S
H975 C990 0.930 . S
C976 H964 0.930 . S
C976 C977 1.399 . S
C976 C981 1.399 . S
C977 C976 1.399 . S
C977 C978 1.376 . S
C978 H965 0.930 . S
C978 C977 1.376 . S
C978 C979 1.388 . S
C979 H966 0.930 . S
C979 C978 1.388 . S
C979 C980 1.390 . S
C980 C979 1.390 . S
C980 C981 1.394 . S
C980 C986 1.465 . S
C981 C976 1.399 . S
C981 C980 1.394 . S
C981 C982 1.516 . S
C982 C981 1.516 . S
C982 C983 1.502 . S
C982 C984 1.561 . S
C982 C985 1.526 . S
C983 H967 0.959 . S
C983 H968 0.959 . S
C983 H969 0.961 . S
C983 C982 1.502 . S
C984 H970 0.960 . S
C984 H971 0.961 . S
C984 H972 0.959 . S
C984 C982 1.561 . S
C985 C982 1.526 . S
C985 C986 1.396 . S
C985 C990 1.390 . S
C986 C980 1.465 . S
C986 C985 1.396 . S
C986 C987 1.399 . S
C987 H973 0.929 . S
C987 C986 1.399 . S
C987 C988 1.385 . S
C988 H974 0.931 . S
C988 C987 1.385 . S
C988 C989 1.389 . S
C989 C988 1.389 . S
C989 C990 1.387 . S
C990 H975 0.930 . S
C990 C985 1.390 . S
C990 C989 1.387 . S
H991 C1003 0.930 . S
H992 C1005 0.930 . S
H993 C1006 0.930 . S
H994 C1010 0.959 . S
H995 C1010 0.959 . S
H996 C1010 0.961 . S
H997 C1011 0.960 . S
H998 C1011 0.961 . S
H999 C1011 0.959 . S
H1000 C1014 0.929 . S
H1001 C1015 0.931 . S
H1002 C1017 0.930 . S
C1003 H991 0.930 . S
C1003 C1004 1.399 . S
C1003 C1008 1.399 . S
C1004 C1003 1.399 . S
C1004 C1005 1.376 . S
C1005 H992 0.930 . S
C1005 C1004 1.376 . S
C1005 C1006 1.388 . S
C1006 H993 0.930 . S
C1006 C1005 1.388 . S
C1006 C1007 1.390 . S
C1007 C1006 1.390 . S
C1007 C1008 1.394 . S
C1007 C1013 1.465 . S
C1008 C1003 1.399 . S
C1008 C1007 1.394 . S
C1008 C1009 1.516 . S
C1009 C1008 1.516 . S
C1009 C1010 1.502 . S
C1009 C1011 1.561 . S
C1009 C1012 1.526 . S
C1010 H994 0.959 . S
C1010 H995 0.959 . S
C1010 H996 0.961 . S
C1010 C1009 1.502 . S
C1011 H997 0.960 . S
C1011 H998 0.961 . S
C1011 H999 0.959 . S
C1011 C1009 1.561 . S
C1012 C1009 1.526 . S
C1012 C1013 1.396 . S
C1012 C1017 1.390 . S
C1013 C1007 1.465 . S
C1013 C1012 1.396 . S
C1013 C1014 1.399 . S
C1014 H1000 0.929 . S
C1014 C1013 1.399 . S
C1014 C1015 1.385 . S
C1015 H1001 0.931 . S
C1015 C1014 1.385 . S
C1015 C1016 1.389 . S
C1016 C1015 1.389 . S
C1016 C1017 1.387 . S
C1017 H1002 0.930 . S
C1017 C1012 1.390 . S
C1017 C1016 1.387 . S
H1018 C1030 0.930 . S
H1019 C1032 0.930 . S
H1020 C1033 0.930 . S
H1021 C1037 0.959 . S
H1022 C1037 0.959 . S
H1023 C1037 0.961 . S
H1024 C1038 0.960 . S
H1025 C1038 0.961 . S
H1026 C1038 0.959 . S
H1027 C1041 0.929 . S
H1028 C1042 0.931 . S
H1029 C1044 0.930 . S
C1030 H1018 0.930 . S
C1030 C1031 1.399 . S
C1030 C1035 1.399 . S
C1031 C1030 1.399 . S
C1031 C1032 1.376 . S
C1032 H1019 0.930 . S
C1032 C1031 1.376 . S
C1032 C1033 1.388 . S
C1033 H1020 0.930 . S
C1033 C1032 1.388 . S
C1033 C1034 1.390 . S
C1034 C1033 1.390 . S
C1034 C1035 1.394 . S
C1034 C1040 1.465 . S
C1035 C1030 1.399 . S
C1035 C1034 1.394 . S
C1035 C1036 1.516 . S
C1036 C1035 1.516 . S
C1036 C1037 1.502 . S
C1036 C1038 1.561 . S
C1036 C1039 1.526 . S
C1037 H1021 0.959 . S
C1037 H1022 0.959 . S
C1037 H1023 0.961 . S
C1037 C1036 1.502 . S
C1038 H1024 0.960 . S
C1038 H1025 0.961 . S
C1038 H1026 0.959 . S
C1038 C1036 1.561 . S
C1039 C1036 1.526 . S
C1039 C1040 1.396 . S
C1039 C1044 1.390 . S
C1040 C1034 1.465 . S
C1040 C1039 1.396 . S
C1040 C1041 1.399 . S
C1041 H1027 0.929 . S
C1041 C1040 1.399 . S
C1041 C1042 1.385 . S
C1042 H1028 0.931 . S
C1042 C1041 1.385 . S
C1042 C1043 1.389 . S
C1043 C1042 1.389 . S
C1043 C1044 1.387 . S
C1044 H1029 0.930 . S
C1044 C1039 1.390 . S
C1044 C1043 1.387 . S
H1045 C1057 0.930 . S
H1046 C1059 0.930 . S
H1047 C1060 0.930 . S
H1048 C1064 0.959 . S
H1049 C1064 0.959 . S
H1050 C1064 0.961 . S
H1051 C1065 0.960 . S
H1052 C1065 0.961 . S
H1053 C1065 0.959 . S
H1054 C1068 0.929 . S
H1055 C1069 0.931 . S
H1056 C1071 0.930 . S
C1057 H1045 0.930 . S
C1057 C1058 1.399 . S
C1057 C1062 1.399 . S
C1058 C1057 1.399 . S
C1058 C1059 1.376 . S
C1059 H1046 0.930 . S
C1059 C1058 1.376 . S
C1059 C1060 1.388 . S
C1060 H1047 0.930 . S
C1060 C1059 1.388 . S
C1060 C1061 1.390 . S
C1061 C1060 1.390 . S
C1061 C1062 1.394 . S
C1061 C1067 1.465 . S
C1062 C1057 1.399 . S
C1062 C1061 1.394 . S
C1062 C1063 1.516 . S
C1063 C1062 1.516 . S
C1063 C1064 1.502 . S
C1063 C1065 1.561 . S
C1063 C1066 1.526 . S
C1064 H1048 0.959 . S
C1064 H1049 0.959 . S
C1064 H1050 0.961 . S
C1064 C1063 1.502 . S
C1065 H1051 0.960 . S
C1065 H1052 0.961 . S
C1065 H1053 0.959 . S
C1065 C1063 1.561 . S
C1066 C1063 1.526 . S
C1066 C1067 1.396 . S
C1066 C1071 1.390 . S
C1067 C1061 1.465 . S
C1067 C1066 1.396 . S
C1067 C1068 1.399 . S
C1068 H1054 0.929 . S
C1068 C1067 1.399 . S
C1068 C1069 1.385 . S
C1069 H1055 0.931 . S
C1069 C1068 1.385 . S
C1069 C1070 1.389 . S
C1070 C1069 1.389 . S
C1070 C1071 1.387 . S
C1071 H1056 0.930 . S
C1071 C1066 1.390 . S
C1071 C1070 1.387 . S
H1072 C1084 0.930 . S
H1073 C1086 0.930 . S
H1074 C1087 0.930 . S
H1075 C1091 0.959 . S
H1076 C1091 0.959 . S
H1077 C1091 0.961 . S
H1078 C1092 0.960 . S
H1079 C1092 0.961 . S
H1080 C1092 0.959 . S
H1081 C1095 0.929 . S
H1082 C1096 0.931 . S
H1083 C1098 0.930 . S
C1084 H1072 0.930 . S
C1084 C1085 1.399 . S
C1084 C1089 1.399 . S
C1085 C1084 1.399 . S
C1085 C1086 1.376 . S
C1086 H1073 0.930 . S
C1086 C1085 1.376 . S
C1086 C1087 1.388 . S
C1087 H1074 0.930 . S
C1087 C1086 1.388 . S
C1087 C1088 1.390 . S
C1088 C1087 1.390 . S
C1088 C1089 1.394 . S
C1088 C1094 1.465 . S
C1089 C1084 1.399 . S
C1089 C1088 1.394 . S
C1089 C1090 1.516 . S
C1090 C1089 1.516 . S
C1090 C1091 1.502 . S
C1090 C1092 1.561 . S
C1090 C1093 1.526 . S
C1091 H1075 0.959 . S
C1091 H1076 0.959 . S
C1091 H1077 0.961 . S
C1091 C1090 1.502 . S
C1092 H1078 0.960 . S
C1092 H1079 0.961 . S
C1092 H1080 0.959 . S
C1092 C1090 1.561 . S
C1093 C1090 1.526 . S
C1093 C1094 1.396 . S
C1093 C1098 1.390 . S
C1094 C1088 1.465 . S
C1094 C1093 1.396 . S
C1094 C1095 1.399 . S
C1095 H1081 0.929 . S
C1095 C1094 1.399 . S
C1095 C1096 1.385 . S
C1096 H1082 0.931 . S
C1096 C1095 1.385 . S
C1096 C1097 1.389 . S
C1097 C1096 1.389 . S
C1097 C1098 1.387 . S
C1098 H1083 0.930 . S
C1098 C1093 1.390 . S
C1098 C1097 1.387 . S
H1099 C1111 0.930 . S
H1100 C1113 0.930 . S
H1101 C1114 0.930 . S
H1102 C1118 0.959 . S
H1103 C1118 0.959 . S
H1104 C1118 0.961 . S
H1105 C1119 0.960 . S
H1106 C1119 0.961 . S
H1107 C1119 0.959 . S
H1108 C1122 0.929 . S
H1109 C1123 0.931 . S
H1110 C1125 0.930 . S
C1111 H1099 0.930 . S
C1111 C1112 1.399 . S
C1111 C1116 1.399 . S
C1112 C1111 1.399 . S
C1112 C1113 1.376 . S
C1113 H1100 0.930 . S
C1113 C1112 1.376 . S
C1113 C1114 1.388 . S
C1114 H1101 0.930 . S
C1114 C1113 1.388 . S
C1114 C1115 1.390 . S
C1115 C1114 1.390 . S
C1115 C1116 1.394 . S
C1115 C1121 1.465 . S
C1116 C1111 1.399 . S
C1116 C1115 1.394 . S
C1116 C1117 1.516 . S
C1117 C1116 1.516 . S
C1117 C1118 1.502 . S
C1117 C1119 1.561 . S
C1117 C1120 1.526 . S
C1118 H1102 0.959 . S
C1118 H1103 0.959 . S
C1118 H1104 0.961 . S
C1118 C1117 1.502 . S
C1119 H1105 0.960 . S
C1119 H1106 0.961 . S
C1119 H1107 0.959 . S
C1119 C1117 1.561 . S
C1120 C1117 1.526 . S
C1120 C1121 1.396 . S
C1120 C1125 1.390 . S
C1121 C1115 1.465 . S
C1121 C1120 1.396 . S
C1121 C1122 1.399 . S
C1122 H1108 0.929 . S
C1122 C1121 1.399 . S
C1122 C1123 1.385 . S
C1123 H1109 0.931 . S
C1123 C1122 1.385 . S
C1123 C1124 1.389 . S
C1124 C1123 1.389 . S
C1124 C1125 1.387 . S
C1125 H1110 0.930 . S
C1125 C1120 1.390 . S
C1125 C1124 1.387 . S
H1126 C1138 0.930 . S
H1127 C1140 0.930 . S
H1128 C1141 0.930 . S
H1129 C1145 0.959 . S
H1130 C1145 0.959 . S
H1131 C1145 0.961 . S
H1132 C1146 0.960 . S
H1133 C1146 0.961 . S
H1134 C1146 0.959 . S
H1135 C1149 0.929 . S
H1136 C1150 0.931 . S
H1137 C1152 0.930 . S
C1138 H1126 0.930 . S
C1138 C1139 1.399 . S
C1138 C1143 1.399 . S
C1139 C1138 1.399 . S
C1139 C1140 1.376 . S
C1140 H1127 0.930 . S
C1140 C1139 1.376 . S
C1140 C1141 1.388 . S
C1141 H1128 0.930 . S
C1141 C1140 1.388 . S
C1141 C1142 1.390 . S
C1142 C1141 1.390 . S
C1142 C1143 1.394 . S
C1142 C1148 1.465 . S
C1143 C1138 1.399 . S
C1143 C1142 1.394 . S
C1143 C1144 1.516 . S
C1144 C1143 1.516 . S
C1144 C1145 1.502 . S
C1144 C1146 1.561 . S
C1144 C1147 1.526 . S
C1145 H1129 0.959 . S
C1145 H1130 0.959 . S
C1145 H1131 0.961 . S
C1145 C1144 1.502 . S
C1146 H1132 0.960 . S
C1146 H1133 0.961 . S
C1146 H1134 0.959 . S
C1146 C1144 1.561 . S
C1147 C1144 1.526 . S
C1147 C1148 1.396 . S
C1147 C1152 1.390 . S
C1148 C1142 1.465 . S
C1148 C1147 1.396 . S
C1148 C1149 1.399 . S
C1149 H1135 0.929 . S
C1149 C1148 1.399 . S
C1149 C1150 1.385 . S
C1150 H1136 0.931 . S
C1150 C1149 1.385 . S
C1150 C1151 1.389 . S
C1151 C1150 1.389 . S
C1151 C1152 1.387 . S
C1152 H1137 0.930 . S
C1152 C1147 1.390 . S
C1152 C1151 1.387 . S
H1153 C1165 0.930 . S
H1154 C1167 0.930 . S
H1155 C1168 0.930 . S
H1156 C1172 0.959 . S
H1157 C1172 0.959 . S
H1158 C1172 0.961 . S
H1159 C1173 0.960 . S
H1160 C1173 0.961 . S
H1161 C1173 0.959 . S
H1162 C1176 0.929 . S
H1163 C1177 0.931 . S
H1164 C1179 0.930 . S
C1165 H1153 0.930 . S
C1165 C1166 1.399 . S
C1165 C1170 1.399 . S
C1166 C1165 1.399 . S
C1166 C1167 1.376 . S
C1167 H1154 0.930 . S
C1167 C1166 1.376 . S
C1167 C1168 1.388 . S
C1168 H1155 0.930 . S
C1168 C1167 1.388 . S
C1168 C1169 1.390 . S
C1169 C1168 1.390 . S
C1169 C1170 1.394 . S
C1169 C1175 1.465 . S
C1170 C1165 1.399 . S
C1170 C1169 1.394 . S
C1170 C1171 1.516 . S
C1171 C1170 1.516 . S
C1171 C1172 1.502 . S
C1171 C1173 1.561 . S
C1171 C1174 1.526 . S
C1172 H1156 0.959 . S
C1172 H1157 0.959 . S
C1172 H1158 0.961 . S
C1172 C1171 1.502 . S
C1173 H1159 0.960 . S
C1173 H1160 0.961 . S
C1173 H1161 0.959 . S
C1173 C1171 1.561 . S
C1174 C1171 1.526 . S
C1174 C1175 1.396 . S
C1174 C1179 1.390 . S
C1175 C1169 1.465 . S
C1175 C1174 1.396 . S
C1175 C1176 1.399 . S
C1176 H1162 0.929 . S
C1176 C1175 1.399 . S
C1176 C1177 1.385 . S
C1177 H1163 0.931 . S
C1177 C1176 1.385 . S
C1177 C1178 1.389 . S
C1178 C1177 1.389 . S
C1178 C1179 1.387 . S
C1179 H1164 0.930 . S
C1179 C1174 1.390 . S
C1179 C1178 1.387 . S
H1180 C1192 0.930 . S
H1181 C1194 0.930 . S
H1182 C1195 0.930 . S
H1183 C1199 0.959 . S
H1184 C1199 0.959 . S
H1185 C1199 0.961 . S
H1186 C1200 0.960 . S
H1187 C1200 0.961 . S
H1188 C1200 0.959 . S
H1189 C1203 0.929 . S
H1190 C1204 0.931 . S
H1191 C1206 0.930 . S
C1192 H1180 0.930 . S
C1192 C1193 1.399 . S
C1192 C1197 1.399 . S
C1193 C1192 1.399 . S
C1193 C1194 1.376 . S
C1194 H1181 0.930 . S
C1194 C1193 1.376 . S
C1194 C1195 1.388 . S
C1195 H1182 0.930 . S
C1195 C1194 1.388 . S
C1195 C1196 1.390 . S
C1196 C1195 1.390 . S
C1196 C1197 1.394 . S
C1196 C1202 1.465 . S
C1197 C1192 1.399 . S
C1197 C1196 1.394 . S
C1197 C1198 1.516 . S
C1198 C1197 1.516 . S
C1198 C1199 1.502 . S
C1198 C1200 1.561 . S
C1198 C1201 1.526 . S
C1199 H1183 0.959 . S
C1199 H1184 0.959 . S
C1199 H1185 0.961 . S
C1199 C1198 1.502 . S
C1200 H1186 0.960 . S
C1200 H1187 0.961 . S
C1200 H1188 0.959 . S
C1200 C1198 1.561 . S
C1201 C1198 1.526 . S
C1201 C1202 1.396 . S
C1201 C1206 1.390 . S
C1202 C1196 1.465 . S
C1202 C1201 1.396 . S
C1202 C1203 1.399 . S
C1203 H1189 0.929 . S
C1203 C1202 1.399 . S
C1203 C1204 1.385 . S
C1204 H1190 0.931 . S
C1204 C1203 1.385 . S
C1204 C1205 1.389 . S
C1205 C1204 1.389 . S
C1205 C1206 1.387 . S
C1206 H1191 0.930 . S
C1206 C1201 1.390 . S
C1206 C1205 1.387 . S
H1207 C1219 0.930 . S
H1208 C1221 0.930 . S
H1209 C1222 0.930 . S
H1210 C1226 0.959 . S
H1211 C1226 0.959 . S
H1212 C1226 0.961 . S
H1213 C1227 0.960 . S
H1214 C1227 0.961 . S
H1215 C1227 0.959 . S
H1216 C1230 0.929 . S
H1217 C1231 0.931 . S
H1218 C1233 0.930 . S
C1219 H1207 0.930 . S
C1219 C1220 1.399 . S
C1219 C1224 1.399 . S
C1220 C1219 1.399 . S
C1220 C1221 1.376 . S
C1221 H1208 0.930 . S
C1221 C1220 1.376 . S
C1221 C1222 1.388 . S
C1222 H1209 0.930 . S
C1222 C1221 1.388 . S
C1222 C1223 1.390 . S
C1223 C1222 1.390 . S
C1223 C1224 1.394 . S
C1223 C1229 1.465 . S
C1224 C1219 1.399 . S
C1224 C1223 1.394 . S
C1224 C1225 1.516 . S
C1225 C1224 1.516 . S
C1225 C1226 1.502 . S
C1225 C1227 1.561 . S
C1225 C1228 1.526 . S
C1226 H1210 0.959 . S
C1226 H1211 0.959 . S
C1226 H1212 0.961 . S
C1226 C1225 1.502 . S
C1227 H1213 0.960 . S
C1227 H1214 0.961 . S
C1227 H1215 0.959 . S
C1227 C1225 1.561 . S
C1228 C1225 1.526 . S
C1228 C1229 1.396 . S
C1228 C1233 1.390 . S
C1229 C1223 1.465 . S
C1229 C1228 1.396 . S
C1229 C1230 1.399 . S
C1230 H1216 0.929 . S
C1230 C1229 1.399 . S
C1230 C1231 1.385 . S
C1231 H1217 0.931 . S
C1231 C1230 1.385 . S
C1231 C1232 1.389 . S
C1232 C1231 1.389 . S
C1232 C1233 1.387 . S
C1233 H1218 0.930 . S
C1233 C1228 1.390 . S
C1233 C1232 1.387 . S
H1234 C1246 0.930 . S
H1235 C1248 0.930 . S
H1236 C1249 0.930 . S
H1237 C1253 0.959 . S
H1238 C1253 0.959 . S
H1239 C1253 0.961 . S
H1240 C1254 0.960 . S
H1241 C1254 0.961 . S
H1242 C1254 0.959 . S
H1243 C1257 0.929 . S
H1244 C1258 0.931 . S
H1245 C1260 0.930 . S
C1246 H1234 0.930 . S
C1246 C1247 1.399 . S
C1246 C1251 1.399 . S
C1247 C1246 1.399 . S
C1247 C1248 1.376 . S
C1248 H1235 0.930 . S
C1248 C1247 1.376 . S
C1248 C1249 1.388 . S
C1249 H1236 0.930 . S
C1249 C1248 1.388 . S
C1249 C1250 1.390 . S
C1250 C1249 1.390 . S
C1250 C1251 1.394 . S
C1250 C1256 1.465 . S
C1251 C1246 1.399 . S
C1251 C1250 1.394 . S
C1251 C1252 1.516 . S
C1252 C1251 1.516 . S
C1252 C1253 1.502 . S
C1252 C1254 1.561 . S
C1252 C1255 1.526 . S
C1253 H1237 0.959 . S
C1253 H1238 0.959 . S
C1253 H1239 0.961 . S
C1253 C1252 1.502 . S
C1254 H1240 0.960 . S
C1254 H1241 0.961 . S
C1254 H1242 0.959 . S
C1254 C1252 1.561 . S
C1255 C1252 1.526 . S
C1255 C1256 1.396 . S
C1255 C1260 1.390 . S
C1256 C1250 1.465 . S
C1256 C1255 1.396 . S
C1256 C1257 1.399 . S
C1257 H1243 0.929 . S
C1257 C1256 1.399 . S
C1257 C1258 1.385 . S
C1258 H1244 0.931 . S
C1258 C1257 1.385 . S
C1258 C1259 1.389 . S
C1259 C1258 1.389 . S
C1259 C1260 1.387 . S
C1260 H1245 0.930 . S
C1260 C1255 1.390 . S
C1260 C1259 1.387 . S
H1261 C1273 0.930 . S
H1262 C1275 0.930 . S
H1263 C1276 0.930 . S
H1264 C1280 0.959 . S
H1265 C1280 0.959 . S
H1266 C1280 0.961 . S
H1267 C1281 0.960 . S
H1268 C1281 0.961 . S
H1269 C1281 0.959 . S
H1270 C1284 0.929 . S
H1271 C1285 0.931 . S
H1272 C1287 0.930 . S
C1273 H1261 0.930 . S
C1273 C1274 1.399 . S
C1273 C1278 1.399 . S
C1274 C1273 1.399 . S
C1274 C1275 1.376 . S
C1275 H1262 0.930 . S
C1275 C1274 1.376 . S
C1275 C1276 1.388 . S
C1276 H1263 0.930 . S
C1276 C1275 1.388 . S
C1276 C1277 1.390 . S
C1277 C1276 1.390 . S
C1277 C1278 1.394 . S
C1277 C1283 1.465 . S
C1278 C1273 1.399 . S
C1278 C1277 1.394 . S
C1278 C1279 1.516 . S
C1279 C1278 1.516 . S
C1279 C1280 1.502 . S
C1279 C1281 1.561 . S
C1279 C1282 1.526 . S
C1280 H1264 0.959 . S
C1280 H1265 0.959 . S
C1280 H1266 0.961 . S
C1280 C1279 1.502 . S
C1281 H1267 0.960 . S
C1281 H1268 0.961 . S
C1281 H1269 0.959 . S
C1281 C1279 1.561 . S
C1282 C1279 1.526 . S
C1282 C1283 1.396 . S
C1282 C1287 1.390 . S
C1283 C1277 1.465 . S
C1283 C1282 1.396 . S
C1283 C1284 1.399 . S
C1284 H1270 0.929 . S
C1284 C1283 1.399 . S
C1284 C1285 1.385 . S
C1285 H1271 0.931 . S
C1285 C1284 1.385 . S
C1285 C1286 1.389 . S
C1286 C1285 1.389 . S
C1286 C1287 1.387 . S
C1287 H1272 0.930 . S
C1287 C1282 1.390 . S
C1287 C1286 1.387 . S
C653 C1 1.220 . S
C665 C486 1.266 . S
C680 C80 0.970 . S
C692 C535 0.940 . S
C719 C570 2.452 . S
C707 C140 2.479 . S
C734 C211 2.338 . S
C746 C609 2.339 . S
C773 C530 2.480 . S
C761 C31 2.216 . S
C800 C489 0.908 . S
C788 C61 0.827 . S
C827 C619 1.907 . S
C815 C151 1.904 . S
C854 C578 1.623 . S
C842 C200 1.616 . S
C869 C20 1.631 . S
C881 C606 1.725 . S
C908 C538 2.310 . S
C896 C121 2.378 . S
C923 C181 2.307 . S
C935 C499 2.321 . S
C950 C91 0.856 . S
C962 C575 0.828 . S
C989 C495 1.279 . S
C977 C260 1.239 . S
C1004 C320 0.869 . S
C1016 C526 1.005 . S
C1031 C361 2.476 . S
C1043 C579 2.455 . S
C1058 C451 2.338 . S
C1070 C618 2.352 . S
C1085 C271 2.317 . S
C1097 C539 2.479 . S
C1124 C498 0.892 . S
C1112 C301 0.779 . S
C1151 C610 1.895 . S
C1139 C380 1.879 . S
C1178 C569 1.631 . S
C1166 C440 1.619 . S
C1193 C241 1.536 . S
C1205 C615 1.730 . S
C1232 C529 2.315 . S
C1220 C391 2.394 . S
C1259 C490 2.334 . S
C1247 C421 2.313 . S
C1274 C331 0.849 . S
C1286 C566 0.876 . S
