# Generated by pormake.
# Topology llj, (12,3)-cn, num edge types: 1
# Building blocks:
#     Node 0, Type 0, BuildingBlock: QEWDON_clean_sbu_0, # of connection points: 12
#     Node 1, Type 0, BuildingBlock: QEWDON_clean_sbu_0, # of connection points: 12
#     Node 2, Type 1, BuildingBlock: VETTIZ_charged_linker_0, # of connection points: 3
#     Node 3, Type 1, BuildingBlock: VETTIZ_charged_linker_0, # of connection points: 3
#     Node 4, Type 1, BuildingBlock: VETTIZ_charged_linker_0, # of connection points: 3
#     Node 5, Type 1, BuildingBlock: VETTIZ_charged_linker_0, # of connection points: 3
#     Node 6, Type 1, BuildingBlock: VETTIZ_charged_linker_0, # of connection points: 3
#     Node 7, Type 1, BuildingBlock: VETTIZ_charged_linker_0, # of connection points: 3
#     Node 8, Type 1, BuildingBlock: VETTIZ_charged_linker_0, # of connection points: 3
#     Node 9, Type 1, BuildingBlock: VETTIZ_charged_linker_0, # of connection points: 3
#     Edge 10, Type (0, 1), BuildingBlock: AJUNOK_clean_linker_0, # of connection points: 2
#     Edge 11, Type (0, 1), BuildingBlock: AJUNOK_clean_linker_0, # of connection points: 2
#     Edge 12, Type (0, 1), BuildingBlock: AJUNOK_clean_linker_0, # of connection points: 2
#     Edge 13, Type (0, 1), BuildingBlock: AJUNOK_clean_linker_0, # of connection points: 2
#     Edge 14, Type (0, 1), BuildingBlock: AJUNOK_clean_linker_0, # of connection points: 2
#     Edge 15, Type (0, 1), BuildingBlock: AJUNOK_clean_linker_0, # of connection points: 2
#     Edge 16, Type (0, 1), BuildingBlock: AJUNOK_clean_linker_0, # of connection points: 2
#     Edge 17, Type (0, 1), BuildingBlock: AJUNOK_clean_linker_0, # of connection points: 2
#     Edge 18, Type (0, 1), BuildingBlock: AJUNOK_clean_linker_0, # of connection points: 2
#     Edge 19, Type (0, 1), BuildingBlock: AJUNOK_clean_linker_0, # of connection points: 2
#     Edge 20, Type (0, 1), BuildingBlock: AJUNOK_clean_linker_0, # of connection points: 2
#     Edge 21, Type (0, 1), BuildingBlock: AJUNOK_clean_linker_0, # of connection points: 2
#     Edge 22, Type (0, 1), BuildingBlock: AJUNOK_clean_linker_0, # of connection points: 2
#     Edge 23, Type (0, 1), BuildingBlock: AJUNOK_clean_linker_0, # of connection points: 2
#     Edge 24, Type (0, 1), BuildingBlock: AJUNOK_clean_linker_0, # of connection points: 2
#     Edge 25, Type (0, 1), BuildingBlock: AJUNOK_clean_linker_0, # of connection points: 2
#     Edge 26, Type (0, 1), BuildingBlock: AJUNOK_clean_linker_0, # of connection points: 2
#     Edge 27, Type (0, 1), BuildingBlock: AJUNOK_clean_linker_0, # of connection points: 2
#     Edge 28, Type (0, 1), BuildingBlock: AJUNOK_clean_linker_0, # of connection points: 2
#     Edge 29, Type (0, 1), BuildingBlock: AJUNOK_clean_linker_0, # of connection points: 2
#     Edge 30, Type (0, 1), BuildingBlock: AJUNOK_clean_linker_0, # of connection points: 2
#     Edge 31, Type (0, 1), BuildingBlock: AJUNOK_clean_linker_0, # of connection points: 2
#     Edge 32, Type (0, 1), BuildingBlock: AJUNOK_clean_linker_0, # of connection points: 2
#     Edge 33, Type (0, 1), BuildingBlock: AJUNOK_clean_linker_0, # of connection points: 2
# Relax obj value: 0.012
# Max RMSD: 0.060
# Mean RMSD: 0.055
data_MOF--net-llj--node1-QEWDON_clean_sbu_0--node2-VETTIZ_charged_linker_0--edge1-AJUNOK_clean_linker_0
_symmetry_space_group_name_H-M    P1
_symmetry_Int_Tables_number       1
_symmetry_cell_setting            triclinic
loop_
_symmetry_equiv_pos_as_xyz
'x, y, z'
_cell_length_a     36.302715
_cell_length_b     36.264086
_cell_length_c     25.29172
_cell_angle_alpha  90.091496
_cell_angle_beta   90.203459
_cell_angle_gamma 89.981122
loop_
_atom_site_label
_atom_site_type_symbol
_atom_site_fract_x
_atom_site_fract_y
_atom_site_fract_z
_atom_type_partial_charge
Zn0 Zn 0.9463 0.06076 0.95199 0.0
Zn1 Zn 0.95043 0.06391 0.07752 0.0
O2 O 0.97917 0.04984 0.01359 0.0
H3 H 0.00114 0.03497 0.01165 0.0
C4 C 0.907 0.97588 0.86581 0.0
O5 O 0.92853 0.99553 0.89677 0.0
Zn6 Zn 0.05166 0.94445 0.08688 0.0
Zn7 Zn 0.04999 0.93967 0.95946 0.0
O8 O 0.02185 0.95832 0.02351 0.0
H9 H -0.00126 0.97149 0.02242 0.0
Zn10 Zn 0.9158 0.92721 0.95451 0.0
O11 O 0.91635 0.96825 0.009 0.0
Zn12 Zn 0.91708 0.94145 0.07741 0.0
H13 H 0.90796 0.99325 0.0033 0.0
Zn14 Zn 0.08649 0.05806 0.94338 0.0
O15 O 0.0854 0.02612 0.00804 0.0
H16 H 0.0898 -0.00014 0.00913 0.0
Zn17 Zn 0.08599 0.0627 0.06587 0.0
C18 C 0.1236 0.00332 0.88497 0.0
O19 O 0.14092 0.00238 0.93062 0.0
O20 O 0.9059 0.09757 0.97136 0.0
O21 O 0.91013 0.10091 0.05925 0.0
O22 O 0.08982 0.90096 0.97847 0.0
O23 O 0.08564 0.90204 0.06633 0.0
O24 O 0.89411 0.87904 0.98436 0.0
O25 O 0.89173 0.8923 0.07032 0.0
C26 C 0.02046 0.08467 0.12444 0.0
O27 O 0.11361 0.10729 0.95605 0.0
O28 O 0.11252 0.10937 0.04401 0.0
O29 O 0.0179 0.92796 0.89363 0.0
C30 C 0.89564 0.11094 0.01548 0.0
O31 O 0.97339 0.07162 0.88284 0.0
C32 C 0.98373 0.92749 0.1415 0.0
O33 O 0.89779 0.94374 0.88054 0.0
C34 C 0.09883 0.88851 0.0238 0.0
O35 O 0.09839 0.02713 0.8779 0.0
C36 C 0.90155 0.00632 0.13215 0.0
O37 O 0.9859 0.08524 0.13141 0.0
O38 O 0.03319 0.07274 0.08122 0.0
C39 C 0.88539 0.87058 0.03161 0.0
O40 O 0.0184 0.92905 0.1474 0.0
O41 O 0.96993 0.93544 0.09692 0.0
C42 C 0.10286 0.00639 0.13839 0.0
O43 O 0.89153 0.97281 0.13126 0.0
O44 O 0.92727 0.01619 0.10122 0.0
C45 C 0.12147 0.12333 -0.00043 0.0
O46 O 0.11065 0.03988 0.12897 0.0
O47 O 0.08039 0.99049 0.10696 0.0
C48 C -0.0001 0.89793 0.89489 0.0
O49 O 0.0027 0.87695 0.93701 0.0
C50 C 0.98442 0.10449 0.87633 0.0
O51 O 0.97817 0.12884 0.91375 0.0
Zn52 Zn 0.44212 0.55822 0.44905 0.0
Zn53 Zn 0.4468 0.57199 0.57202 0.0
O54 O 0.47735 0.55437 0.51195 0.0
H55 H 0.49744 0.53698 0.51421 0.0
C56 C 0.38991 0.49754 0.38077 0.0
O57 O 0.38239 0.51433 0.42546 0.0
Zn58 Zn 0.55624 0.4277 0.58836 0.0
Zn59 Zn 0.56163 0.4226 0.46112 0.0
O60 O 0.52983 0.44136 0.52159 0.0
H61 H 0.51234 0.46135 0.51819 0.0
Zn62 Zn 0.41788 0.4431 0.45375 0.0
O63 O 0.42687 0.47854 0.51351 0.0
Zn64 Zn 0.42285 0.44741 0.57796 0.0
H65 H 0.42317 0.50481 0.51063 0.0
Zn66 Zn 0.57283 0.54836 0.46441 0.0
O67 O 0.57459 0.51524 0.52735 0.0
H68 H 0.5861 0.49129 0.5247 0.0
Zn69 Zn 0.5801 0.55192 0.58419 0.0
C70 C 0.60924 0.49411 0.40302 0.0
O71 O 0.63145 0.49676 0.44398 0.0
O72 O 0.39888 0.59421 0.45977 0.0
O73 O 0.40791 0.60731 0.54456 0.0
O74 O 0.60475 0.38982 0.48535 0.0
O75 O 0.59604 0.38936 0.57244 0.0
O76 O 0.3875 0.39823 0.47604 0.0
O77 O 0.39198 0.40144 0.56365 0.0
C78 C 0.51343 0.59453 0.62825 0.0
O79 O 0.60444 0.59563 0.47325 0.0
O80 O 0.61426 0.59308 0.55988 0.0
O81 O 0.5344 0.40614 0.3928 0.0
C82 C 0.39102 0.61262 0.50103 0.0
O83 O 0.46696 0.56355 0.37674 0.0
C84 C 0.4862 0.41755 0.63881 0.0
O85 O 0.40551 0.46624 0.38172 0.0
C86 C 0.61327 0.37842 0.53141 0.0
O87 O 0.58136 0.51513 0.40039 0.0
C88 C 0.40203 0.5116 0.63709 0.0
O89 O 0.47878 0.59879 0.62492 0.0
O90 O 0.52858 0.57142 0.59721 0.0
C91 C 0.38006 0.3857 0.52175 0.0
O92 O 0.52011 0.40976 0.64298 0.0
O93 O 0.47458 0.43317 0.59718 0.0
C94 C 0.59596 0.49151 0.65359 0.0
O95 O 0.39794 0.47684 0.63496 0.0
O96 O 0.42347 0.52629 0.60345 0.0
C97 C 0.61968 0.60811 0.51503 0.0
O98 O 0.60079 0.52603 0.64856 0.0
O99 O 0.57826 0.47502 0.61703 0.0
C100 C 0.50096 0.3963 0.39685 0.0
O101 O 0.48514 0.39766 0.44346 0.0
C102 C 0.49822 0.57917 0.3767 0.0
O103 O 0.51282 0.58975 0.42182 0.0
C104 C 0.37466 0.37809 0.83918 0.0
C105 C 0.40717 0.3985 0.8338 0.0
C106 C 0.4248 0.41263 0.87916 0.0
C107 C 0.38005 0.38201 0.9347 0.0
C108 C 0.36152 0.37031 0.88986 0.0
C109 C 0.32806 0.34774 0.90264 0.0
H110 H 0.23687 0.2434 0.07776 0.0
C111 C 0.3615 0.36578 0.98103 0.0
C112 C 0.33077 0.34605 0.96252 0.0
H113 H 0.20835 0.26522 0.91448 0.0
H114 H 0.25762 0.30947 0.90883 0.0
H115 H 0.32383 0.24427 0.06653 0.0
H116 H 0.24684 0.32995 0.10697 0.0
H117 H 0.28665 0.33807 0.1448 0.0
H118 H 0.2611 0.29582 0.15405 0.0
H119 H 0.29876 0.24518 0.1276 0.0
H120 H 0.34197 0.26895 0.12061 0.0
C121 C 0.33278 0.30926 0.87677 0.0
C122 C 0.29339 0.36915 0.88383 0.0
C123 C 0.42087 0.37562 0.16284 0.0
C124 C 0.4125 0.35971 0.21199 0.0
C125 C 0.381 0.33724 0.21644 0.0
C126 C 0.35849 0.33025 0.17246 0.0
C127 C 0.36756 0.34582 0.12337 0.0
C128 C 0.39818 0.36825 0.11922 0.0
C129 C 0.40391 0.38189 0.06374 0.0
C130 C 0.3714 0.36428 0.03539 0.0
C131 C 0.35031 0.34312 0.07055 0.0
C132 C 0.44138 0.36663 0.04416 0.0
C133 C 0.40112 0.42452 0.06404 0.0
C134 C 0.24063 0.25827 0.0411 0.0
C135 C 0.21881 0.25047 -0.00368 0.0
C136 C 0.22515 0.27021 0.94924 0.0
C137 C 0.25372 0.29596 0.94603 0.0
C138 C 0.27631 0.30213 0.99029 0.0
C139 C 0.26876 0.28453 0.03737 0.0
C140 C 0.2944 0.29644 0.08108 0.0
C141 C 0.31915 0.32329 0.05186 0.0
C142 C 0.30889 0.3257 -0.00154 0.0
C143 C 0.31585 0.26206 0.1005 0.0
C144 C 0.27129 0.31589 0.12436 0.0
H145 H 0.42638 0.41526 0.96292 0.0
H146 H 0.36032 0.36765 0.80462 0.0
H147 H 0.29901 0.39914 0.87914 0.0
H148 H 0.27069 0.3678 0.91295 0.0
H149 H 0.28334 0.35871 0.84507 0.0
H150 H 0.36092 0.2983 0.8845 0.0
H151 H 0.32888 0.31084 0.83324 0.0
H152 H 0.31362 0.28838 0.89217 0.0
H153 H 0.44442 0.39367 0.15845 0.0
H154 H 0.37399 0.32473 0.25395 0.0
H155 H 0.33511 0.31268 0.17831 0.0
H156 H 0.44625 0.33828 0.05946 0.0
H157 H 0.46455 0.38423 0.05797 0.0
H158 H 0.44292 0.3638 0.00084 0.0
H159 H 0.37979 0.434 0.09249 0.0
H160 H 0.39241 0.43588 0.02546 0.0
H161 H 0.4277 0.4373 0.0759 0.0
H162 H 0.44981 0.42871 0.87551 0.0
C163 C 0.41135 0.40453 0.9297 0.0
C164 C 0.66654 0.39231 0.85362 0.0
C165 C 0.64542 0.42476 0.85032 0.0
C166 C 0.63311 0.44181 0.89703 0.0
C167 C 0.66158 0.39368 0.94907 0.0
C168 C 0.674 0.37711 0.90332 0.0
C169 C 0.6948 0.34199 0.91421 0.0
H170 H 0.7789 0.2321 0.09282 0.0
C171 C 0.67335 0.37076 0.99399 0.0
C172 C 0.6926 0.34029 0.97419 0.0
H173 H 0.77507 0.2199 0.92271 0.0
H174 H 0.73257 0.27064 0.91639 0.0
H175 H 0.77774 0.32198 0.10192 0.0
H176 H 0.69108 0.24074 0.10139 0.0
H177 H 0.67587 0.27755 0.14089 0.0
H178 H 0.71618 0.25162 0.16057 0.0
H179 H 0.77236 0.28695 0.15152 0.0
H180 H 0.74743 0.32952 0.15557 0.0
C181 C 0.7348 0.34736 0.89465 0.0
C182 C 0.67404 0.30952 0.88747 0.0
C183 C 0.64377 0.4139 0.1785 0.0
C184 C 0.6486 0.39848 0.22881 0.0
C185 C 0.6671 0.3644 0.23361 0.0
C186 C 0.68024 0.34595 0.18858 0.0
C187 C 0.67463 0.36173 0.13844 0.0
C188 C 0.65609 0.39484 0.13425 0.0
C189 C 0.65047 0.40679 0.07822 0.0
C190 C 0.66893 0.37544 0.04908 0.0
C191 C 0.68368 0.34947 0.08434 0.0
C192 C 0.67106 0.44387 0.07043 0.0
C193 C 0.60836 0.40831 0.06716 0.0
C194 C 0.76879 0.24031 0.05426 0.0
C195 C 0.78184 0.2232 0.00799 0.0
C196 C 0.76703 0.23392 0.95871 0.0
C197 C 0.74216 0.26323 0.95507 0.0
C198 C 0.73144 0.28173 0.00123 0.0
C199 C 0.74338 0.26924 0.04997 0.0
C200 C 0.72626 0.29041 0.09487 0.0
C201 C 0.70412 0.31909 0.06469 0.0
C202 C 0.70782 0.31414 0.00986 0.0
C203 C 0.75744 0.30815 0.1281 0.0
C204 C 0.70119 0.26387 0.1265 0.0
H205 H 0.63072 0.44073 0.98031 0.0
H206 H 0.67681 0.3789 0.81833 0.0
H207 H 0.64419 0.3157 0.88262 0.0
H208 H 0.67481 0.28407 0.91156 0.0
H209 H 0.6853 0.30352 0.84759 0.0
H210 H 0.74572 0.37454 0.90784 0.0
H211 H 0.73595 0.34659 0.85077 0.0
H212 H 0.75418 0.32665 0.91021 0.0
H213 H 0.63086 0.44058 0.17335 0.0
H214 H 0.67129 0.35204 0.27212 0.0
H215 H 0.69428 0.32023 0.19444 0.0
H216 H 0.69723 0.44434 0.09348 0.0
H217 H 0.65403 0.4675 0.08396 0.0
H218 H 0.67951 0.44871 0.02913 0.0
H219 H 0.593 0.38877 0.09284 0.0
H220 H 0.60114 0.39974 0.02643 0.0
H221 H 0.59713 0.43633 0.07465 0.0
H222 H 0.61658 0.46666 0.89536 0.0
C223 C 0.6411 0.42648 0.94633 0.0
C224 C 0.5981 0.6414 0.17799 0.0
C225 C 0.56856 0.61628 0.17804 0.0
C226 C 0.55519 0.60275 0.12931 0.0
C227 C 0.6004 0.63912 0.08253 0.0
C228 C 0.61439 0.65122 0.13023 0.0
C229 C 0.64909 0.67336 0.12395 0.0
H230 H 0.76858 0.75941 0.96232 0.0
C231 C 0.62317 0.65504 0.04037 0.0
C232 C 0.65233 0.67423 0.06421 0.0
H233 H 0.77571 0.74692 0.13215 0.0
H234 H 0.71979 0.71097 0.1315 0.0
H235 H 0.74831 0.67444 0.93886 0.0
H236 H 0.68139 0.77187 0.95599 0.0
H237 H 0.66436 0.74662 0.9018 0.0
H238 H 0.7107 0.76431 0.89998 0.0
H239 H 0.74606 0.70932 0.88869 0.0
H240 H 0.71319 0.67203 0.89104 0.0
C241 C 0.68131 0.65189 0.15033 0.0
C242 C 0.64249 0.71228 0.14726 0.0
C243 C 0.57961 0.64545 0.85108 0.0
C244 C 0.59371 0.65837 0.80313 0.0
C245 C 0.62702 0.67817 0.80266 0.0
C246 C 0.64579 0.68556 0.85008 0.0
C247 C 0.63115 0.67256 0.89802 0.0
C248 C 0.59868 0.65271 0.89777 0.0
C249 C 0.58773 0.63969 0.95169 0.0
C250 C 0.61857 0.65585 0.98484 0.0
C251 C 0.64386 0.67506 0.95336 0.0
C252 C 0.58812 0.59685 0.95207 0.0
C253 C 0.54988 0.65704 0.96498 0.0
C254 C 0.75876 0.74805 -0.00075 0.0
C255 C 0.77689 0.75555 0.0473 0.0
C256 C 0.76227 0.74142 0.09465 0.0
C257 C 0.72991 0.72045 0.09417 0.0
C258 C 0.7121 0.71336 0.04583 0.0
C259 C 0.72682 0.72664 -0.00064 0.0
C260 C 0.70453 0.71573 0.95164 0.0
C261 C 0.67421 0.69332 0.9772 0.0
C262 C 0.67854 0.69255 0.03234 0.0
C263 C 0.72913 0.69182 0.91519 0.0
C264 C 0.68951 0.75131 0.92546 0.0
H265 H 0.55925 0.60323 0.04586 0.0
H266 H 0.60864 0.65331 0.21423 0.0
H267 H 0.61556 0.72345 0.13353 0.0
H268 H 0.66346 0.7325 0.13494 0.0
H269 H 0.64205 0.71142 0.19116 0.0
H270 H 0.67481 0.62209 0.15511 0.0
H271 H 0.68773 0.66302 0.19025 0.0
H272 H 0.70663 0.65225 0.12601 0.0
H273 H 0.55462 0.62911 0.85204 0.0
H274 H 0.63844 0.68783 0.76566 0.0
H275 H 0.67101 0.70088 0.84757 0.0
H276 H 0.60559 0.58539 0.91993 0.0
H277 H 0.55996 0.58545 0.94668 0.0
H278 H 0.60025 0.58556 0.98891 0.0
H279 H 0.54983 0.687 0.95556 0.0
H280 H 0.54263 0.65502 0.00713 0.0
H281 H 0.52756 0.64381 0.94153 0.0
H282 H 0.53286 0.58297 0.128 0.0
C283 C 0.57075 0.61429 0.08159 0.0
C284 C 0.32803 0.59857 0.18121 0.0
C285 C 0.3527 0.56859 0.18244 0.0
C286 C 0.36862 0.55625 0.13494 0.0
C287 C 0.33212 0.60012 0.08568 0.0
C288 C 0.31839 0.6141 0.13241 0.0
C289 C 0.29318 0.64654 0.12327 0.0
H290 H 0.19919 0.75399 0.95001 0.0
C291 C 0.31509 0.62055 0.04179 0.0
C292 C 0.29269 0.64822 0.06316 0.0
H293 H 0.20738 0.76608 0.11983 0.0
H294 H 0.24796 0.71353 0.1242 0.0
H295 H 0.28589 0.7409 0.9333 0.0
H296 H 0.19599 0.6637 0.94696 0.0
H297 H 0.22434 0.64988 0.89418 0.0
H298 H 0.20117 0.69375 0.89109 0.0
H299 H 0.25271 0.73452 0.88128 0.0
H300 H 0.29289 0.70549 0.88691 0.0
C301 C 0.31115 0.68128 0.14826 0.0
C302 C 0.25481 0.63698 0.1459 0.0
C303 C 0.33759 0.57601 0.85574 0.0
C304 C 0.32587 0.58811 0.80601 0.0
C305 C 0.30158 0.61833 0.80233 0.0
C306 C 0.28934 0.63641 0.84821 0.0
C307 C 0.30185 0.62419 0.89794 0.0
C308 C 0.32554 0.59442 0.90079 0.0
C309 C 0.33713 0.58556 0.95613 0.0
C310 C 0.31626 0.61478 0.98653 0.0
C311 C 0.29554 0.63731 0.95255 0.0
C312 C 0.37954 0.59082 0.9605 0.0
C313 C 0.32337 0.54606 0.96879 0.0
C314 C 0.20983 0.74538 0.98811 0.0
C315 C 0.19934 0.76372 0.03475 0.0
C316 C 0.21406 0.75176 0.0835 0.0
C317 C 0.23794 0.72147 0.08595 0.0
C318 C 0.24767 0.70311 0.03914 0.0
C319 C 0.23408 0.7154 0.99118 0.0
C320 C 0.24885 0.69346 0.94535 0.0
C321 C 0.27353 0.66608 0.9738 0.0
C322 C 0.27236 0.67163 0.02879 0.0
C323 C 0.2711 0.71977 0.90936 0.0
C324 C 0.21604 0.67424 0.91743 0.0
H325 H 0.37079 0.56034 0.05195 0.0
H326 H 0.31598 0.60922 0.21725 0.0
H327 H 0.2464 0.60874 0.13354 0.0
H328 H 0.23288 0.65559 0.13172 0.0
H329 H 0.25518 0.63782 0.1898 0.0
H330 H 0.34156 0.67823 0.15194 0.0
H331 H 0.30019 0.68669 0.18848 0.0
H332 H 0.30731 0.70618 0.12358 0.0
H333 H 0.35683 0.55328 0.85948 0.0
H334 H 0.29229 0.62799 0.76403 0.0
H335 H 0.27096 0.65933 0.8432 0.0
H336 H 0.39014 0.60994 0.92972 0.0
H337 H 0.39431 0.5642 0.95575 0.0
H338 H 0.38793 0.60373 -0.00161 0.0
H339 H 0.29513 0.54166 0.9527 0.0
H340 H 0.32109 0.54042 0.01145 0.0
H341 H 0.34167 0.52496 0.95082 0.0
H342 H 0.38902 0.53444 0.13504 0.0
C343 C 0.35826 0.57163 0.08665 0.0
C344 C 0.881 0.85997 0.33878 0.0
C345 C 0.91238 0.88252 0.33437 0.0
C346 C 0.93218 0.8919 0.38055 0.0
C347 C 0.8883 0.85897 0.43434 0.0
C348 C 0.86958 0.84844 0.38909 0.0
C349 C 0.83766 0.82337 0.40129 0.0
H350 H 0.73299 0.73597 0.58344 0.0
C351 C 0.86932 0.84288 0.48029 0.0
C352 C 0.83969 0.82183 0.46136 0.0
H353 H 0.72887 0.72565 0.41299 0.0
H354 H 0.7773 0.77039 0.40479 0.0
H355 H 0.81989 0.72983 0.58823 0.0
H356 H 0.74926 0.82545 0.59012 0.0
H357 H 0.784 0.83171 0.63802 0.0
H358 H 0.7521 0.79389 0.64461 0.0
H359 H 0.79253 0.74175 0.64471 0.0
H360 H 0.83778 0.76094 0.63493 0.0
C361 C 0.84519 0.78523 0.37552 0.0
C362 C 0.80187 0.84229 0.38193 0.0
C363 C 0.91831 0.86857 0.66468 0.0
C364 C 0.90721 0.85746 0.71532 0.0
C365 C 0.87458 0.83667 0.72058 0.0
C366 C 0.85408 0.82607 0.6759 0.0
C367 C 0.8663 0.83637 0.62534 0.0
C368 C 0.89758 0.8578 0.62057 0.0
C369 C 0.90648 0.86652 0.56405 0.0
C370 C 0.87588 0.84605 0.53544 0.0
C371 C 0.85239 0.82842 0.5714 0.0
C372 C 0.94506 0.85033 0.55132 0.0
C373 C 0.90324 0.90885 0.55687 0.0
C374 C 0.74238 0.74343 0.5443 0.0
C375 C 0.72617 0.72777 0.4988 0.0
C376 C 0.73964 0.73817 0.44871 0.0
C377 C 0.76832 0.76377 0.44398 0.0
C378 C 0.7845 0.77865 0.48975 0.0
C379 C 0.77167 0.76831 0.5389 0.0
C380 C 0.79412 0.78484 0.58317 0.0
C381 C 0.82247 0.80679 0.55239 0.0
C382 C 0.81637 0.80336 0.49768 0.0
C383 C 0.81195 0.75291 0.61491 0.0
C384 C 0.76872 0.81018 0.61619 0.0
H385 H 0.93632 0.88911 0.46374 0.0
H386 H 0.86562 0.85166 0.30398 0.0
H387 H 0.80163 0.87186 0.39374 0.0
H388 H 0.77678 0.83014 0.39914 0.0
H389 H 0.79961 0.84099 0.33815 0.0
H390 H 0.87512 0.78064 0.36878 0.0
H391 H 0.8311 0.78266 0.33662 0.0
H392 H 0.83674 0.76203 0.40114 0.0
H393 H 0.94323 0.88453 0.65924 0.0
H394 H 0.86482 0.8287 0.75934 0.0
H395 H 0.82968 0.81004 0.68242 0.0
H396 H 0.95127 0.82583 0.57626 0.0
H397 H 0.96715 0.87095 0.55851 0.0
H398 H 0.94719 0.84 0.51028 0.0
H399 H 0.87945 0.91995 0.57954 0.0
H400 H 0.89801 0.91712 0.51554 0.0
H401 H 0.92843 0.92307 0.57137 0.0
H402 H 0.95738 0.9078 0.37822 0.0
C403 C 0.92013 0.88065 0.43034 0.0
C404 C 0.17999 0.90898 0.33442 0.0
C405 C 0.16041 0.94239 0.3322 0.0
C406 C 0.15036 0.9602 0.37942 0.0
C407 C 0.1764 0.90992 0.43002 0.0
C408 C 0.18748 0.89315 0.38366 0.0
C409 C 0.2065 0.8569 0.39337 0.0
H410 H 0.26964 0.731 0.56903 0.0
C411 C 0.18622 0.8853 0.47409 0.0
C412 C 0.20376 0.85412 0.45311 0.0
H413 H 0.28569 0.73283 0.39988 0.0
H414 H 0.24671 0.78672 0.39276 0.0
H415 H 0.28241 0.81617 0.58642 0.0
H416 H 0.18249 0.75344 0.56716 0.0
H417 H 0.17356 0.78777 0.61447 0.0
H418 H 0.2082 0.75322 0.62788 0.0
H419 H 0.26598 0.78436 0.63528 0.0
H420 H 0.25064 0.8315 0.63394 0.0
C421 C 0.24694 0.86049 0.37456 0.0
C422 C 0.18423 0.82612 0.36525 0.0
C423 C 0.15478 0.92372 0.66059 0.0
C424 C 0.15919 0.90681 0.71003 0.0
C425 C 0.1741 0.87096 0.71267 0.0
C426 C 0.18542 0.85271 0.66656 0.0
C427 C 0.18169 0.87053 0.61747 0.0
C428 C 0.16596 0.90516 0.61516 0.0
C429 C 0.16288 0.91958 0.55983 0.0
C430 C 0.18009 0.88818 0.52915 0.0
C431 C 0.19133 0.85968 0.56297 0.0
C432 C 0.18609 0.9554 0.55607 0.0
C433 C 0.12137 0.92445 0.54657 0.0
C434 C 0.26456 0.743 0.53048 0.0
C435 C 0.28106 0.72821 0.48504 0.0
C436 C 0.27327 0.74395 0.43539 0.0
C437 C 0.25098 0.7754 0.43146 0.0
C438 C 0.23647 0.79123 0.47771 0.0
C439 C 0.24278 0.77461 0.52605 0.0
C440 C 0.22616 0.79577 0.57118 0.0
C441 C 0.20967 0.82838 0.54211 0.0
C442 C 0.21572 0.82555 0.48742 0.0
C443 C 0.25769 0.80752 0.60913 0.0
C444 C 0.19617 0.77141 0.59704 0.0
H445 H 0.14926 0.95872 0.46288 0.0
H446 H 0.1885 0.89506 0.29855 0.0
H447 H 0.15412 0.83108 0.36932 0.0
H448 H 0.18897 0.79855 0.38241 0.0
H449 H 0.19062 0.82515 0.32235 0.0
H450 H 0.25734 0.88909 0.3803 0.0
H451 H 0.24946 0.85375 0.33187 0.0
H452 H 0.26621 0.84307 0.39738 0.0
H453 H 0.14349 0.95129 0.6573 0.0
H454 H 0.177 0.85709 0.75034 0.0
H455 H 0.1969 0.82561 0.67094 0.0
H456 H 0.21144 0.95332 0.58077 0.0
H457 H 0.17022 0.97966 0.57018 0.0
H458 H 0.19619 0.96096 0.51573 0.0
H459 H 0.10414 0.90432 0.56861 0.0
H460 H 0.11493 0.91901 0.50453 0.0
H461 H 0.1116 0.95252 0.5572 0.0
H462 H 0.13518 0.98593 0.37838 0.0
C463 C 0.15825 0.94414 0.42835 0.0
C464 C 0.09059 0.16252 0.67882 0.0
C465 C 0.0582 0.14133 0.68003 0.0
C466 C 0.04367 0.1272 0.63246 0.0
C467 C 0.09375 0.15483 0.58367 0.0
C468 C 0.10782 0.16896 0.6303 0.0
C469 C 0.14242 0.19094 0.62168 0.0
H470 H 0.27326 0.25261 0.45399 0.0
C471 C 0.11869 0.16557 0.54052 0.0
C472 C 0.14735 0.18657 0.56237 0.0
H473 H 0.25834 0.28012 0.61914 0.0
H474 H 0.20631 0.23936 0.6236 0.0
H475 H 0.25024 0.16424 0.45991 0.0
H476 H 0.18915 0.26366 0.42666 0.0
H477 H 0.17429 0.2295 0.3822 0.0
H478 H 0.22155 0.24464 0.38061 0.0
H479 H 0.25682 0.19052 0.40056 0.0
H480 H 0.22123 0.15601 0.40522 0.0
C481 C 0.17405 0.17236 0.65308 0.0
C482 C 0.13475 0.23156 0.63771 0.0
C483 C 0.08878 0.12578 0.35367 0.0
C484 C 0.10695 0.12948 0.30511 0.0
C485 C 0.14115 0.14786 0.30361 0.0
C486 C 0.15701 0.16215 0.35009 0.0
C487 C 0.13832 0.15816 0.39841 0.0
C488 C 0.10499 0.13981 0.39949 0.0
C489 C 0.08923 0.1371 0.45404 0.0
C490 C 0.11812 0.15769 0.48567 0.0
C491 C 0.14672 0.1702 0.45307 0.0
C492 C 0.08733 0.09567 0.46926 0.0
C493 C 0.05161 0.15739 0.45437 0.0
C494 C 0.25899 0.24964 0.49127 0.0
C495 C 0.2707 0.26907 0.53658 0.0
C496 C 0.25099 0.26456 0.58411 0.0
C497 C 0.22026 0.24132 0.58643 0.0
C498 C 0.20846 0.22291 0.54053 0.0
C499 C 0.22761 0.22733 0.4939 0.0
C500 C 0.20915 0.20817 0.44807 0.0
C501 C 0.17587 0.19141 0.47508 0.0
C502 C 0.17593 0.19981 0.52933 0.0
C503 C 0.23565 0.17825 0.42679 0.0
C504 C 0.19805 0.23776 0.40681 0.0
H505 H 0.04876 0.12235 0.54954 0.0
H506 H 0.1026 0.17334 0.7149 0.0
H507 H 0.10491 0.23835 0.63495 0.0
H508 H 0.14825 0.25155 0.61103 0.0
H509 H 0.14364 0.23708 0.67903 0.0
H510 H 0.17307 0.14189 0.64805 0.0
H511 H 0.17176 0.17847 0.696 0.0
H512 H 0.20165 0.18077 0.63958 0.0
H513 H 0.06201 0.1127 0.35605 0.0
H514 H 0.1556 0.15109 0.2665 0.0
H515 H 0.18309 0.17584 0.3466 0.0
H516 H 0.10903 0.07937 0.4488 0.0
H517 H 0.06029 0.08349 0.45826 0.0
H518 H 0.09256 0.09084 0.51178 0.0
H519 H 0.05263 0.18255 0.42928 0.0
H520 H 0.04367 0.16743 0.49395 0.0
H521 H 0.02933 0.13942 0.43868 0.0
H522 H 0.01858 0.11103 0.63256 0.0
C523 C 0.06123 0.13386 0.58433 0.0
C524 C 0.83408 0.07625 0.67306 0.0
C525 C 0.85324 0.04254 0.67136 0.0
C526 C 0.86078 0.02611 0.62215 0.0
C527 C 0.83024 0.07659 0.57732 0.0
C528 C 0.82262 0.09263 0.62564 0.0
C529 C 0.8013 0.12809 0.61989 0.0
H530 H 0.7142 0.24915 0.45791 0.0
C531 C 0.81465 0.10041 0.53569 0.0
C532 C 0.79734 0.13051 0.56015 0.0
H533 H 0.72521 0.25547 0.62799 0.0
H534 H 0.76085 0.19906 0.62797 0.0
H535 H 0.79871 0.23007 0.43915 0.0
H536 H 0.7015 0.16251 0.44768 0.0
H537 H 0.72805 0.14659 0.39421 0.0
H538 H 0.71063 0.19313 0.39357 0.0
H539 H 0.76641 0.22712 0.3855 0.0
H540 H 0.80417 0.19504 0.39201 0.0
C541 C 0.82508 0.1599 0.64252 0.0
C542 C 0.76364 0.1232 0.6475 0.0
C543 C 0.83758 0.06848 0.34398 0.0
C544 C 0.82813 0.0858 0.2964 0.0
C545 C 0.80478 0.11668 0.29677 0.0
C546 C 0.79207 0.13111 0.34492 0.0
C547 C 0.80304 0.11435 0.39269 0.0
C548 C 0.82486 0.08315 0.39146 0.0
C549 C 0.83399 0.06889 0.44559 0.0
C550 C 0.81503 0.0974 0.47985 0.0
C551 C 0.79706 0.12394 0.4488 0.0
C552 C 0.87646 0.06986 0.45248 0.0
C553 C 0.81652 0.03005 0.45149 0.0
C554 C 0.72487 0.23893 0.49514 0.0
C555 C 0.71722 0.25713 0.54295 0.0
C556 C 0.73068 0.24196 0.5906 0.0
C557 C 0.75141 0.20926 0.5905 0.0
C558 C 0.75887 0.19154 0.54221 0.0
C559 C 0.74599 0.20675 0.49561 0.0
C560 C 0.75778 0.18531 0.44776 0.0
C561 C 0.77906 0.15411 0.4733 0.0
C562 C 0.77947 0.15765 0.52866 0.0
C563 C 0.78288 0.21051 0.41387 0.0
C564 C 0.72283 0.17122 0.41879 0.0
H565 H 0.85612 0.0291 0.53899 0.0
H566 H 0.82788 0.08935 0.71051 0.0
H567 H 0.75223 0.09525 0.63954 0.0
H568 H 0.74247 0.14258 0.63306 0.0
H569 H 0.76641 0.12638 0.69102 0.0
H570 H 0.85479 0.15522 0.63418 0.0
H571 H 0.82189 0.16216 0.68607 0.0
H572 H 0.81872 0.18681 0.6243 0.0
H573 H 0.85546 0.04452 0.34421 0.0
H574 H 0.79733 0.13017 0.26007 0.0
H575 H 0.77481 0.1551 0.34314 0.0
H576 H 0.88819 0.09515 0.43421 0.0
H577 H 0.88957 0.04567 0.43318 0.0
H578 H 0.88537 0.07091 0.4942 0.0
H579 H 0.79188 0.02679 0.4256 0.0
H580 H 0.80613 0.02487 0.49188 0.0
H581 H 0.83636 0.008 0.44062 0.0
H582 H 0.87602 0.00045 0.62002 0.0
C583 C 0.84935 0.04291 0.57516 0.0
C584 C 0.16676 0.16443 0.95509 0.0
C585 C 0.14371 0.1575 -0.00151 0.0
C586 C 0.19036 0.19487 0.95452 0.0
C587 C 0.19155 0.21996 -0.00298 0.0
H588 H 0.16756 0.14551 0.92191 0.0
H589 H 0.20863 0.19811 0.92108 0.0
S590 S 0.1336 0.21662 0.11751 0.0
N591 N 0.12174 0.17948 0.08368 0.0
N592 N 0.1653 0.23753 0.08178 0.0
C593 C 0.1676 0.21419 0.03982 0.0
C594 C 0.14386 0.18281 0.04073 0.0
C595 C 0.83878 0.14039 0.0518 0.0
C596 C 0.86761 0.14021 0.01492 0.0
C597 C 0.811 0.16728 0.04942 0.0
C598 C 0.8116 0.19516 0.01065 0.0
H599 H 0.83717 0.11909 0.08171 0.0
H600 H 0.78863 0.16586 0.07757 0.0
S601 S 0.88453 0.20937 0.91002 0.0
N602 N 0.89687 0.1714 0.9413 0.0
N603 N 0.8459 0.22291 0.93829 0.0
C604 C 0.84134 0.196 0.97509 0.0
C605 C 0.86905 0.1683 0.97689 0.0
C606 C 0.83673 0.8375 0.08155 0.0
C607 C 0.86286 0.83738 0.04063 0.0
C608 C 0.8101 0.80978 0.08508 0.0
C609 C 0.80901 0.7807 0.04827 0.0
H610 H 0.83527 0.86034 0.10912 0.0
H611 H 0.78902 0.81237 0.11506 0.0
S612 S 0.87598 0.76374 0.94058 0.0
N613 N 0.8891 0.80336 0.96688 0.0
N614 N 0.83976 0.75037 0.97483 0.0
C615 C 0.83693 0.77859 0.01 0.0
C616 C 0.86371 0.80714 0.00587 0.0
C617 C 0.15336 0.85306 0.99121 0.0
C618 C 0.1242 0.85675 0.02726 0.0
C619 C 0.17763 0.82301 0.99401 0.0
C620 C 0.17332 0.79534 0.03255 0.0
H621 H 0.15777 0.87381 0.9611 0.0
H622 H 0.20017 0.82165 0.96612 0.0
S623 S 0.09865 0.79023 0.13217 0.0
N624 N 0.09085 0.82917 0.10033 0.0
N625 N 0.13583 0.77232 0.10488 0.0
C626 C 0.14366 0.79834 0.06797 0.0
C627 C 0.11926 0.82912 0.06547 0.0
C628 C 0.67507 0.64256 0.54668 0.0
C629 C 0.64521 0.6398 0.51135 0.0
C630 C 0.70073 0.67125 0.54264 0.0
C631 C 0.69723 0.69879 0.5037 0.0
H632 H 0.67928 0.62177 0.57684 0.0
H633 H 0.72401 0.67123 0.56953 0.0
S634 S 0.62125 0.70632 0.40544 0.0
N635 N 0.6122 0.66803 0.43813 0.0
N636 N 0.65941 0.72299 0.43195 0.0
C637 C 0.66661 0.69705 0.46932 0.0
C638 C 0.64088 0.66736 0.47282 0.0
C639 C 0.33329 0.6389 0.46201 0.0
C640 C 0.36286 0.6419 0.4979 0.0
C641 C 0.30662 0.66679 0.45818 0.0
C642 C 0.30876 0.69852 0.49005 0.0
H643 H 0.3306 0.61477 0.43699 0.0
H644 H 0.2841 0.66343 0.43037 0.0
S645 S 0.3831 0.72162 0.58548 0.0
N646 N 0.39425 0.68046 0.56264 0.0
N647 N 0.34417 0.73266 0.55556 0.0
C648 C 0.33859 0.70215 0.52522 0.0
C649 C 0.36564 0.67388 0.52913 0.0
C650 C 0.32885 0.34794 0.48489 0.0
C651 C 0.35448 0.35411 0.52577 0.0
C652 C 0.30245 0.32006 0.48852 0.0
C653 C 0.3009 0.29665 0.53278 0.0
H654 H 0.32829 0.3656 0.45038 0.0
H655 H 0.28238 0.31765 0.45692 0.0
S656 S 0.36436 0.29885 0.64826 0.0
N657 N 0.37809 0.33343 0.61078 0.0
N658 N 0.32936 0.27972 0.61664 0.0
C659 C 0.32729 0.30162 0.57318 0.0
C660 C 0.35385 0.3306 0.56989 0.0
C661 C 0.63973 0.32335 0.5769 0.0
C662 C 0.64235 0.35017 0.53698 0.0
C663 C 0.66482 0.29404 0.57967 0.0
C664 C 0.69372 0.29071 0.543 0.0
H665 H 0.6172 0.32406 0.60483 0.0
H666 H 0.66062 0.27306 0.60947 0.0
S667 S 0.71584 0.3571 0.436 0.0
N668 N 0.67793 0.3736 0.46308 0.0
N669 N 0.72596 0.31933 0.46942 0.0
C670 C 0.69786 0.31863 0.5048 0.0
C671 C 0.67197 0.34813 0.5015 0.0
C672 C 0.06403 0.12797 0.16816 0.0
C673 C 0.04522 0.09421 0.16811 0.0
C674 C 0.08555 0.13861 0.21177 0.0
C675 C 0.08898 0.11558 0.2563 0.0
H676 H 0.06098 0.14676 0.13519 0.0
H677 H 0.09822 0.16564 0.21157 0.0
S678 S 0.04891 0.02207 0.27129 0.0
N679 N 0.03341 0.03659 0.21347 0.0
N680 N 0.07496 0.0557 0.29466 0.0
C681 C 0.07181 0.08079 0.25503 0.0
C682 C 0.04954 0.07035 0.21112 0.0
C683 C 0.84394 0.02999 0.17302 0.0
C684 C 0.88244 0.0324 0.16733 0.0
C685 C 0.82559 0.04991 0.21254 0.0
C686 C 0.84536 0.07255 0.24754 0.0
H687 H 0.82813 0.01146 0.14813 0.0
H688 H 0.79625 0.04592 0.21774 0.0
S689 S 0.94589 0.08888 0.24913 0.0
N690 N 0.93916 0.05943 0.20014 0.0
N691 N 0.90463 0.09767 0.27323 0.0
C692 C 0.8834 0.07653 0.24078 0.0
C693 C 0.90201 0.05623 0.20084 0.0
C694 C 0.94594 0.88247 0.19199 0.0
C695 C 0.96039 0.9182 0.18684 0.0
C696 C 0.92876 0.87136 0.23906 0.0
C697 C 0.92541 0.89582 0.28213 0.0
H698 H 0.94949 0.86253 0.16047 0.0
H699 H 0.9197 0.84303 0.24261 0.0
S700 S 0.95428 0.99375 0.28481 0.0
N701 N 0.96777 0.97868 0.22631 0.0
N702 N 0.93384 0.95859 0.31362 0.0
C703 C 0.93757 0.93233 0.27564 0.0
C704 C 0.95557 0.94333 0.22829 0.0
C705 C 0.14015 0.00956 0.22146 0.0
C706 C 0.11897 0.98826 0.18582 0.0
C707 C 0.15409 0.99447 0.26833 0.0
C708 C 0.14785 0.95737 0.28104 0.0
H709 H 0.14537 0.03848 0.21391 0.0
H710 H 0.16961 0.01202 0.29501 0.0
S711 S 0.09503 0.8894 0.20215 0.0
N712 N 0.09354 0.92769 0.16707 0.0
N713 N 0.1193 0.89958 0.25537 0.0
C714 C 0.12743 0.93556 0.24579 0.0
C715 C 0.11314 0.95093 0.19814 0.0
C716 C 0.10759 0.97137 0.80081 0.0
C717 C 0.1324 0.97644 0.843 0.0
C718 C 0.11572 0.94729 0.75931 0.0
C719 C 0.14909 0.92761 0.75817 0.0
H720 H 0.08177 0.98634 0.79946 0.0
H721 H 0.09603 0.94466 0.72723 0.0
S722 S 0.22284 0.93 0.85997 0.0
N723 N 0.19104 0.95851 0.88238 0.0
N724 N 0.20672 0.91395 0.80333 0.0
C725 C 0.17365 0.93146 0.80087 0.0
C726 C 0.16523 0.95578 0.8435 0.0
C727 C 0.01245 0.08751 0.78974 0.0
C728 C 0.00371 0.11492 0.82713 0.0
C729 C 0.0302 0.09635 0.74248 0.0
C730 C 0.0399 0.13292 0.73073 0.0
H731 H 0.00558 0.05888 0.79688 0.0
H732 H 0.03659 0.0743 0.71503 0.0
S733 S 0.02236 0.21522 0.81407 0.0
N734 N 0.00578 0.18043 0.84862 0.0
N735 N 0.03885 0.19692 0.75923 0.0
C736 C 0.0314 0.16066 0.76752 0.0
C737 C 0.01333 0.1517 0.81582 0.0
C738 C 0.90067 0.02882 0.80339 0.0
C739 C 0.89292 0.99175 0.81565 0.0
C740 C 0.88744 0.0451 0.75694 0.0
C741 C 0.86616 0.02486 0.7207 0.0
H742 H 0.91688 0.04567 0.83 0.0
H743 H 0.89429 0.07364 0.74903 0.0
S744 S 0.83663 0.9275 0.73416 0.0
N745 N 0.86136 0.9356 0.78785 0.0
N746 N 0.83697 0.9663 0.70013 0.0
C747 C 0.858 0.98787 0.7322 0.0
C748 C 0.87119 0.97132 0.77981 0.0
C749 C 0.96666 0.91287 0.81067 0.0
C750 C 0.97606 0.88692 0.84979 0.0
C751 C 0.94406 0.90325 0.76779 0.0
C752 C 0.93007 0.86726 0.76214 0.0
H753 H 0.97653 0.941 0.81334 0.0
H754 H 0.93727 0.9243 0.73899 0.0
S755 S 0.94984 0.78795 0.8502 0.0
N756 N 0.97139 0.823 0.87822 0.0
N757 N 0.92957 0.80488 0.79701 0.0
C758 C 0.93982 0.84086 0.80033 0.0
C759 C 0.96266 0.85068 0.84423 0.0
C760 C 0.57279 0.61027 0.67483 0.0
C761 C 0.53457 0.6153 0.66907 0.0
C762 C 0.59247 0.62644 0.71639 0.0
C763 C 0.57453 0.64838 0.75388 0.0
H764 H 0.58774 0.59286 0.64842 0.0
H765 H 0.62149 0.62011 0.72079 0.0
S766 S 0.47623 0.67552 0.75373 0.0
N767 N 0.48049 0.64795 0.70213 0.0
N768 N 0.51766 0.678 0.78056 0.0
C769 C 0.53695 0.65585 0.7472 0.0
C770 C 0.51691 0.63948 0.70473 0.0
C771 C 0.35938 0.51337 0.71412 0.0
C772 C 0.3813 0.53285 0.67763 0.0
C773 C 0.34 0.53162 0.754 0.0
C774 C 0.34139 0.57014 0.75876 0.0
H775 H 0.3576 0.48356 0.71276 0.0
H776 H 0.32445 0.5154 0.78212 0.0
S777 S 0.39353 0.63444 0.67417 0.0
N778 N 0.40254 0.59324 0.64959 0.0
N779 N 0.36553 0.62745 0.72428 0.0
C780 C 0.36217 0.59015 0.72222 0.0
C781 C 0.38234 0.57154 0.68183 0.0
C782 C 0.45033 0.44261 0.71359 0.0
C783 C 0.46207 0.41188 0.68428 0.0
C784 C 0.43158 0.43819 0.76146 0.0
C785 C 0.42421 0.40284 0.78137 0.0
H786 H 0.457 0.47023 0.70046 0.0
H787 H 0.42344 0.46248 0.78352 0.0
S788 S 0.45137 0.31377 0.72081 0.0
N789 N 0.46644 0.34527 0.67901 0.0
N790 N 0.43093 0.33667 0.76903 0.0
C791 C 0.43569 0.37191 0.75218 0.0
C792 C 0.45493 0.3765 0.70368 0.0
C793 C 0.62623 0.49428 0.74223 0.0
C794 C 0.6099 0.47278 0.70197 0.0
C795 C 0.63843 0.47844 0.78952 0.0
C796 C 0.63485 0.44043 0.79856 0.0
H797 H 0.62927 0.52383 0.73773 0.0
H798 H 0.65053 0.49617 0.81941 0.0
S799 S 0.59499 0.37149 0.7066 0.0
N800 N 0.5923 0.411 0.6746 0.0
N801 N 0.614 0.3815 0.76413 0.0
C802 C 0.61922 0.41844 0.75876 0.0
C803 C 0.60702 0.43455 0.71038 0.0
C804 C 0.65014 0.44722 0.36113 0.0
C805 C 0.61703 0.46743 0.36039 0.0
C806 C 0.65941 0.42357 0.31952 0.0
C807 C 0.63584 0.4192 0.27578 0.0
H808 H 0.66964 0.45041 0.39332 0.0
H809 H 0.68593 0.40989 0.32063 0.0
S810 S 0.54367 0.46214 0.25793 0.0
N811 N 0.55908 0.47897 0.31445 0.0
N812 N 0.57631 0.43422 0.2366 0.0
C813 C 0.60173 0.43773 0.2759 0.0
C814 C 0.59237 0.46191 0.31811 0.0
C815 C 0.49609 0.59114 0.27977 0.0
C816 C 0.5169 0.58715 0.32637 0.0
C817 C 0.513 0.60027 0.23194 0.0
C818 C 0.5515 0.60454 0.22857 0.0
H819 H 0.46637 0.58835 0.28052 0.0
H820 H 0.49559 0.60482 0.19771 0.0
S821 S 0.61859 0.5928 0.33854 0.0
N822 N 0.57785 0.58755 0.36619 0.0
N823 N 0.61016 0.59997 0.2753 0.0
C824 C 0.57271 0.59876 0.27453 0.0
C825 C 0.55528 0.59127 0.32365 0.0
C826 C 0.37853 0.55354 0.32622 0.0
C827 C 0.38025 0.51492 0.33002 0.0
C828 C 0.36966 0.57075 0.27836 0.0
C829 C 0.36171 0.54988 0.23284 0.0
H830 H 0.38465 0.57067 0.36022 0.0
H831 H 0.36948 0.6006 0.27688 0.0
S832 S 0.35917 0.44765 0.22349 0.0
N833 N 0.37179 0.4562 0.28506 0.0
N834 N 0.35369 0.4884 0.19556 0.0
C835 C 0.36252 0.51114 0.23649 0.0
C836 C 0.37215 0.49369 0.28498 0.0
C837 C 0.44071 0.38632 0.35133 0.0
C838 C 0.47941 0.38515 0.34965 0.0
C839 C 0.41936 0.37776 0.30685 0.0
C840 C 0.43586 0.36732 0.25895 0.0
H841 H 0.42668 0.39445 0.38708 0.0
H842 H 0.38968 0.37995 0.30981 0.0
S843 S 0.53579 0.35329 0.23623 0.0
N844 N 0.53325 0.36854 0.2977 0.0
N845 N 0.49297 0.35202 0.21405 0.0
C846 C 0.47447 0.36435 0.25723 0.0
C847 C 0.49628 0.37329 0.30258 0.0
loop_
_geom_bond_atom_site_label_1
_geom_bond_atom_site_label_2
_geom_bond_distance
_geom_bond_site_symmetry_2
_ccdc_geom_bond_type
Zn0 O2 1.933 1_556 S
Zn0 O20 1.985 . S
Zn0 O31 1.955 . S
Zn1 O2 1.911 . S
Zn1 O21 1.970 . S
Zn1 O37 1.945 . S
Zn1 O44 1.981 . S
O2 Zn0 1.933 1_554 S
O2 Zn1 1.911 . S
O2 H3 0.841 1_655 S
H3 O2 0.841 1_455 S
C4 O5 1.246 . S
C4 O33 1.276 1_545 S
O5 C4 1.246 . S
Zn6 O8 1.911 . S
Zn6 O23 1.970 . S
Zn6 O40 1.945 . S
Zn6 O47 1.981 . S
Zn7 O8 1.933 1_556 S
Zn7 O22 1.985 . S
Zn7 O29 1.955 . S
O8 Zn6 1.911 . S
O8 Zn7 1.933 1_554 S
O8 H9 0.841 1_455 S
H9 O8 0.841 1_655 S
Zn10 O11 1.933 1_556 S
Zn10 O24 1.985 . S
Zn10 O33 1.955 . S
O11 Zn10 1.933 1_554 S
O11 Zn12 1.911 . S
O11 H13 0.841 1_565 S
Zn12 O11 1.911 . S
Zn12 O25 1.970 . S
Zn12 O41 1.981 . S
Zn12 O43 1.945 . S
H13 O11 0.841 1_545 S
Zn14 O15 1.933 1_556 S
Zn14 O27 1.985 . S
Zn14 O35 1.955 . S
O15 Zn14 1.933 1_554 S
O15 H16 0.841 1_545 S
O15 Zn17 1.911 . S
H16 O15 0.841 1_565 S
Zn17 O15 1.911 . S
Zn17 O28 1.970 . S
Zn17 O38 1.981 . S
Zn17 O46 1.945 . S
C18 O19 1.246 . S
C18 O35 1.276 1_565 S
O19 C18 1.246 . S
O20 Zn0 1.985 . S
O20 C30 1.245 1_556 S
O21 Zn1 1.970 . S
O21 C30 1.263 . S
O22 Zn7 1.985 . S
O22 C34 1.245 1_556 S
O23 Zn6 1.970 . S
O23 C34 1.263 . S
O24 Zn10 1.985 . S
O24 C39 1.245 1_556 S
O25 Zn12 1.970 . S
O25 C39 1.263 . S
C26 O37 1.262 1_455 S
C26 O38 1.245 . S
O27 Zn14 1.985 . S
O27 C45 1.245 1_556 S
O28 Zn17 1.970 . S
O28 C45 1.263 . S
O29 Zn7 1.955 . S
O29 C48 1.276 1_455 S
C30 O20 1.245 1_554 S
C30 O21 1.263 . S
O31 Zn0 1.955 . S
O31 C50 1.276 1_655 S
C32 O40 1.262 1_655 S
C32 O41 1.245 . S
O33 C4 1.276 1_565 S
O33 Zn10 1.955 . S
C34 O22 1.245 1_554 S
C34 O23 1.263 . S
O35 Zn14 1.955 . S
O35 C18 1.276 1_545 S
C36 O43 1.262 1_545 S
C36 O44 1.245 . S
O37 Zn1 1.945 . S
O37 C26 1.262 1_655 S
O38 Zn17 1.981 . S
O38 C26 1.245 . S
C39 O24 1.245 1_554 S
C39 O25 1.263 . S
O40 Zn6 1.945 . S
O40 C32 1.262 1_455 S
O41 Zn12 1.981 . S
O41 C32 1.245 . S
C42 O46 1.262 1_565 S
C42 O47 1.245 . S
O43 Zn12 1.945 . S
O43 C36 1.262 1_565 S
O44 Zn1 1.981 . S
O44 C36 1.245 . S
C45 O27 1.245 1_554 S
C45 O28 1.263 . S
O46 Zn17 1.945 . S
O46 C42 1.262 1_545 S
O47 Zn6 1.981 . S
O47 C42 1.245 . S
C48 O29 1.276 1_655 S
C48 O49 1.246 . S
O49 C48 1.246 . S
C50 O31 1.276 1_455 S
C50 O51 1.246 . S
O51 C50 1.246 . S
Zn52 O54 1.933 . S
Zn52 O72 1.985 . S
Zn52 O83 1.955 . S
Zn53 O54 1.911 . S
Zn53 O73 1.970 . S
Zn53 O89 1.945 . S
Zn53 O96 1.981 . S
O54 Zn52 1.933 . S
O54 Zn53 1.911 . S
O54 H55 0.841 . S
H55 O54 0.841 . S
C56 O57 1.246 . S
C56 O85 1.276 . S
O57 C56 1.246 . S
Zn58 O60 1.911 . S
Zn58 O75 1.970 . S
Zn58 O92 1.945 . S
Zn58 O99 1.981 . S
Zn59 O60 1.933 . S
Zn59 O74 1.985 . S
Zn59 O81 1.955 . S
O60 Zn58 1.911 . S
O60 Zn59 1.933 . S
O60 H61 0.841 . S
H61 O60 0.841 . S
Zn62 O63 1.933 . S
Zn62 O76 1.985 . S
Zn62 O85 1.955 . S
O63 Zn62 1.933 . S
O63 Zn64 1.911 . S
O63 H65 0.841 . S
Zn64 O63 1.911 . S
Zn64 O77 1.970 . S
Zn64 O93 1.981 . S
Zn64 O95 1.945 . S
H65 O63 0.841 . S
Zn66 O67 1.933 . S
Zn66 O79 1.985 . S
Zn66 O87 1.955 . S
O67 Zn66 1.933 . S
O67 H68 0.841 . S
O67 Zn69 1.911 . S
H68 O67 0.841 . S
Zn69 O67 1.911 . S
Zn69 O80 1.970 . S
Zn69 O90 1.981 . S
Zn69 O98 1.945 . S
C70 O71 1.246 . S
C70 O87 1.276 . S
O71 C70 1.246 . S
O72 Zn52 1.985 . S
O72 C82 1.245 . S
O73 Zn53 1.970 . S
O73 C82 1.263 . S
O74 Zn59 1.985 . S
O74 C86 1.245 . S
O75 Zn58 1.970 . S
O75 C86 1.263 . S
O76 Zn62 1.985 . S
O76 C91 1.245 . S
O77 Zn64 1.970 . S
O77 C91 1.263 . S
C78 O89 1.262 . S
C78 O90 1.245 . S
O79 Zn66 1.985 . S
O79 C97 1.245 . S
O80 Zn69 1.970 . S
O80 C97 1.263 . S
O81 Zn59 1.955 . S
O81 C100 1.276 . S
C82 O72 1.245 . S
C82 O73 1.263 . S
O83 Zn52 1.955 . S
O83 C102 1.276 . S
C84 O92 1.262 . S
C84 O93 1.245 . S
O85 C56 1.276 . S
O85 Zn62 1.955 . S
C86 O74 1.245 . S
C86 O75 1.263 . S
O87 Zn66 1.955 . S
O87 C70 1.276 . S
C88 O95 1.262 . S
C88 O96 1.245 . S
O89 Zn53 1.945 . S
O89 C78 1.262 . S
O90 Zn69 1.981 . S
O90 C78 1.245 . S
C91 O76 1.245 . S
C91 O77 1.263 . S
O92 Zn58 1.945 . S
O92 C84 1.262 . S
O93 Zn64 1.981 . S
O93 C84 1.245 . S
C94 O98 1.262 . S
C94 O99 1.245 . S
O95 Zn64 1.945 . S
O95 C88 1.262 . S
O96 Zn53 1.981 . S
O96 C88 1.245 . S
C97 O79 1.245 . S
C97 O80 1.263 . S
O98 Zn69 1.945 . S
O98 C94 1.262 . S
O99 Zn58 1.981 . S
O99 C94 1.245 . S
C100 O81 1.276 . S
C100 O101 1.246 . S
O101 C100 1.246 . S
C102 O83 1.276 . S
C102 O103 1.246 . S
O103 C102 1.246 . S
C104 C105 1.391 . S
C104 C108 1.391 . S
C104 H146 0.948 . S
C105 C104 1.391 . S
C105 C106 1.391 . S
C106 C105 1.391 . S
C106 H162 0.947 . S
C106 C163 1.392 . S
C107 C108 1.391 . S
C107 C111 1.397 . S
C107 C163 1.419 . S
C108 C104 1.391 . S
C108 C107 1.391 . S
C108 C109 1.399 . S
C109 C108 1.399 . S
C109 C112 1.396 . S
C109 C121 1.453 . S
C109 C122 1.684 . S
H110 C134 0.948 . S
C111 C107 1.397 . S
C111 C112 1.394 . S
C111 C130 1.723 1_556 S
C112 C109 1.396 . S
C112 C111 1.394 . S
C112 C142 1.723 1_556 S
H113 C136 0.947 . S
H114 C137 0.948 . S
H115 C143 0.982 . S
H116 C144 0.979 . S
H117 C144 0.980 . S
H118 C144 0.983 . S
H119 C143 0.979 . S
H120 C143 0.977 . S
C121 C109 1.453 . S
C121 H150 0.982 . S
C121 H151 0.979 . S
C121 H152 0.977 . S
C122 C109 1.684 . S
C122 H147 0.979 . S
C122 H148 0.980 . S
C122 H149 0.983 . S
C123 C124 1.391 . S
C123 C128 1.391 . S
C123 H153 0.948 . S
C124 C123 1.391 . S
C124 C125 1.391 . S
C125 C124 1.391 . S
C125 C126 1.392 . S
C125 H154 0.947 . S
C126 C125 1.392 . S
C126 C127 1.419 . S
C126 H155 0.948 . S
C127 C126 1.419 . S
C127 C128 1.391 . S
C127 C131 1.397 . S
C128 C123 1.391 . S
C128 C127 1.391 . S
C128 C129 1.399 . S
C129 C128 1.399 . S
C129 C130 1.396 . S
C129 C132 1.453 . S
C129 C133 1.684 . S
C130 C111 1.723 1_554 S
C130 C129 1.396 . S
C130 C131 1.394 . S
C131 C127 1.397 . S
C131 C130 1.394 . S
C131 C141 1.723 . S
C132 C129 1.453 . S
C132 H156 0.982 . S
C132 H157 0.979 . S
C132 H158 0.977 . S
C133 C129 1.684 . S
C133 H159 0.979 . S
C133 H160 0.980 . S
C133 H161 0.983 . S
C134 H110 0.948 . S
C134 C135 1.391 . S
C134 C139 1.391 . S
C135 C134 1.391 . S
C135 C136 1.391 1_554 S
C136 H113 0.947 . S
C136 C135 1.391 1_556 S
C136 C137 1.392 . S
C137 H114 0.948 . S
C137 C136 1.392 . S
C137 C138 1.419 . S
C138 C137 1.419 . S
C138 C139 1.391 1_556 S
C138 C142 1.397 1_556 S
C139 C134 1.391 . S
C139 C138 1.391 1_554 S
C139 C140 1.399 . S
C140 C139 1.399 . S
C140 C141 1.396 . S
C140 C143 1.453 . S
C140 C144 1.684 . S
C141 C131 1.723 . S
C141 C140 1.396 . S
C141 C142 1.394 . S
C142 C112 1.723 1_554 S
C142 C138 1.397 1_554 S
C142 C141 1.394 . S
C143 H115 0.982 . S
C143 H119 0.979 . S
C143 H120 0.977 . S
C143 C140 1.453 . S
C144 H116 0.979 . S
C144 H117 0.980 . S
C144 H118 0.983 . S
C144 C140 1.684 . S
H145 C163 0.948 . S
H146 C104 0.948 . S
H147 C122 0.979 . S
H148 C122 0.980 . S
H149 C122 0.983 . S
H150 C121 0.982 . S
H151 C121 0.979 . S
H152 C121 0.977 . S
H153 C123 0.948 . S
H154 C125 0.947 . S
H155 C126 0.948 . S
H156 C132 0.982 . S
H157 C132 0.979 . S
H158 C132 0.977 . S
H159 C133 0.979 . S
H160 C133 0.980 . S
H161 C133 0.983 . S
H162 C106 0.947 . S
C163 C106 1.392 . S
C163 C107 1.419 . S
C163 H145 0.948 . S
C164 C165 1.391 . S
C164 C168 1.391 . S
C164 H206 0.948 . S
C165 C164 1.391 . S
C165 C166 1.391 . S
C166 C165 1.391 . S
C166 H222 0.947 . S
C166 C223 1.392 . S
C167 C168 1.391 . S
C167 C171 1.397 . S
C167 C223 1.419 . S
C168 C164 1.391 . S
C168 C167 1.391 . S
C168 C169 1.399 . S
C169 C168 1.399 . S
C169 C172 1.396 . S
C169 C181 1.453 . S
C169 C182 1.684 . S
H170 C194 0.948 . S
C171 C167 1.397 . S
C171 C172 1.394 . S
C171 C190 1.723 1_556 S
C172 C169 1.396 . S
C172 C171 1.394 . S
C172 C202 1.723 1_556 S
H173 C196 0.947 . S
H174 C197 0.948 . S
H175 C203 0.982 . S
H176 C204 0.979 . S
H177 C204 0.980 . S
H178 C204 0.983 . S
H179 C203 0.979 . S
H180 C203 0.977 . S
C181 C169 1.453 . S
C181 H210 0.982 . S
C181 H211 0.979 . S
C181 H212 0.977 . S
C182 C169 1.684 . S
C182 H207 0.979 . S
C182 H208 0.980 . S
C182 H209 0.983 . S
C183 C184 1.391 . S
C183 C188 1.391 . S
C183 H213 0.948 . S
C184 C183 1.391 . S
C184 C185 1.391 . S
C185 C184 1.391 . S
C185 C186 1.392 . S
C185 H214 0.947 . S
C186 C185 1.392 . S
C186 C187 1.419 . S
C186 H215 0.948 . S
C187 C186 1.419 . S
C187 C188 1.391 . S
C187 C191 1.397 . S
C188 C183 1.391 . S
C188 C187 1.391 . S
C188 C189 1.399 . S
C189 C188 1.399 . S
C189 C190 1.396 . S
C189 C192 1.453 . S
C189 C193 1.684 . S
C190 C171 1.723 1_554 S
C190 C189 1.396 . S
C190 C191 1.394 . S
C191 C187 1.397 . S
C191 C190 1.394 . S
C191 C201 1.723 . S
C192 C189 1.453 . S
C192 H216 0.982 . S
C192 H217 0.979 . S
C192 H218 0.977 . S
C193 C189 1.684 . S
C193 H219 0.979 . S
C193 H220 0.980 . S
C193 H221 0.983 . S
C194 H170 0.948 . S
C194 C195 1.391 . S
C194 C199 1.391 . S
C195 C194 1.391 . S
C195 C196 1.391 1_554 S
C196 H173 0.947 . S
C196 C195 1.391 1_556 S
C196 C197 1.392 . S
C197 H174 0.948 . S
C197 C196 1.392 . S
C197 C198 1.419 . S
C198 C197 1.419 . S
C198 C199 1.391 1_556 S
C198 C202 1.397 1_556 S
C199 C194 1.391 . S
C199 C198 1.391 1_554 S
C199 C200 1.399 . S
C200 C199 1.399 . S
C200 C201 1.396 . S
C200 C203 1.453 . S
C200 C204 1.684 . S
C201 C191 1.723 . S
C201 C200 1.396 . S
C201 C202 1.394 . S
C202 C172 1.723 1_554 S
C202 C198 1.397 1_554 S
C202 C201 1.394 . S
C203 H175 0.982 . S
C203 H179 0.979 . S
C203 H180 0.977 . S
C203 C200 1.453 . S
C204 H176 0.979 . S
C204 H177 0.980 . S
C204 H178 0.983 . S
C204 C200 1.684 . S
H205 C223 0.948 . S
H206 C164 0.948 . S
H207 C182 0.979 . S
H208 C182 0.980 . S
H209 C182 0.983 . S
H210 C181 0.982 . S
H211 C181 0.979 . S
H212 C181 0.977 . S
H213 C183 0.948 . S
H214 C185 0.947 . S
H215 C186 0.948 . S
H216 C192 0.982 . S
H217 C192 0.979 . S
H218 C192 0.977 . S
H219 C193 0.979 . S
H220 C193 0.980 . S
H221 C193 0.983 . S
H222 C166 0.947 . S
C223 C166 1.392 . S
C223 C167 1.419 . S
C223 H205 0.948 . S
C224 C225 1.391 . S
C224 C228 1.391 . S
C224 H266 0.948 . S
C225 C224 1.391 . S
C225 C226 1.391 . S
C226 C225 1.391 . S
C226 H282 0.947 . S
C226 C283 1.392 . S
C227 C228 1.391 . S
C227 C231 1.397 . S
C227 C283 1.419 . S
C228 C224 1.391 . S
C228 C227 1.391 . S
C228 C229 1.399 . S
C229 C228 1.399 . S
C229 C232 1.396 . S
C229 C241 1.453 . S
C229 C242 1.684 . S
H230 C254 0.948 . S
C231 C227 1.397 . S
C231 C232 1.394 . S
C231 C250 1.723 1_554 S
C232 C229 1.396 . S
C232 C231 1.394 . S
C232 C262 1.723 . S
H233 C256 0.947 . S
H234 C257 0.948 . S
H235 C263 0.982 . S
H236 C264 0.979 . S
H237 C264 0.980 . S
H238 C264 0.983 . S
H239 C263 0.979 . S
H240 C263 0.977 . S
C241 C229 1.453 . S
C241 H270 0.982 . S
C241 H271 0.979 . S
C241 H272 0.977 . S
C242 C229 1.684 . S
C242 H267 0.979 . S
C242 H268 0.980 . S
C242 H269 0.983 . S
C243 C244 1.391 . S
C243 C248 1.391 . S
C243 H273 0.948 . S
C244 C243 1.391 . S
C244 C245 1.391 . S
C245 C244 1.391 . S
C245 C246 1.392 . S
C245 H274 0.947 . S
C246 C245 1.392 . S
C246 C247 1.419 . S
C246 H275 0.948 . S
C247 C246 1.419 . S
C247 C248 1.391 . S
C247 C251 1.397 . S
C248 C243 1.391 . S
C248 C247 1.391 . S
C248 C249 1.399 . S
C249 C248 1.399 . S
C249 C250 1.396 . S
C249 C252 1.453 . S
C249 C253 1.684 . S
C250 C231 1.723 1_556 S
C250 C249 1.396 . S
C250 C251 1.394 . S
C251 C247 1.397 . S
C251 C250 1.394 . S
C251 C261 1.723 . S
C252 C249 1.453 . S
C252 H276 0.982 . S
C252 H277 0.979 . S
C252 H278 0.977 1_556 S
C253 C249 1.684 . S
C253 H279 0.979 . S
C253 H280 0.980 1_556 S
C253 H281 0.983 . S
C254 H230 0.948 . S
C254 C255 1.391 1_556 S
C254 C259 1.391 . S
C255 C254 1.391 1_554 S
C255 C256 1.391 . S
C256 H233 0.947 . S
C256 C255 1.391 . S
C256 C257 1.392 . S
C257 H234 0.948 . S
C257 C256 1.392 . S
C257 C258 1.419 . S
C258 C257 1.419 . S
C258 C259 1.391 1_554 S
C258 C262 1.397 . S
C259 C254 1.391 . S
C259 C258 1.391 1_556 S
C259 C260 1.399 . S
C260 C259 1.399 . S
C260 C261 1.396 . S
C260 C263 1.453 . S
C260 C264 1.684 . S
C261 C251 1.723 . S
C261 C260 1.396 . S
C261 C262 1.394 1_556 S
C262 C232 1.723 . S
C262 C258 1.397 . S
C262 C261 1.394 1_554 S
C263 H235 0.982 . S
C263 H239 0.979 . S
C263 H240 0.977 . S
C263 C260 1.453 . S
C264 H236 0.979 . S
C264 H237 0.980 . S
C264 H238 0.983 . S
C264 C260 1.684 . S
H265 C283 0.948 . S
H266 C224 0.948 . S
H267 C242 0.979 . S
H268 C242 0.980 . S
H269 C242 0.983 . S
H270 C241 0.982 . S
H271 C241 0.979 . S
H272 C241 0.977 . S
H273 C243 0.948 . S
H274 C245 0.947 . S
H275 C246 0.948 . S
H276 C252 0.982 . S
H277 C252 0.979 . S
H278 C252 0.977 1_554 S
H279 C253 0.979 . S
H280 C253 0.980 1_554 S
H281 C253 0.983 . S
H282 C226 0.947 . S
C283 C226 1.392 . S
C283 C227 1.419 . S
C283 H265 0.948 . S
C284 C285 1.391 . S
C284 C288 1.391 . S
C284 H326 0.948 . S
C285 C284 1.391 . S
C285 C286 1.391 . S
C286 C285 1.391 . S
C286 H342 0.947 . S
C286 C343 1.392 . S
C287 C288 1.391 . S
C287 C291 1.397 . S
C287 C343 1.419 . S
C288 C284 1.391 . S
C288 C287 1.391 . S
C288 C289 1.399 . S
C289 C288 1.399 . S
C289 C292 1.396 . S
C289 C301 1.453 . S
C289 C302 1.684 . S
H290 C314 0.948 . S
C291 C287 1.397 . S
C291 C292 1.394 . S
C291 C310 1.723 1_554 S
C292 C289 1.396 . S
C292 C291 1.394 . S
C292 C322 1.723 . S
H293 C316 0.947 . S
H294 C317 0.948 . S
H295 C323 0.982 . S
H296 C324 0.979 . S
H297 C324 0.980 . S
H298 C324 0.983 . S
H299 C323 0.979 . S
H300 C323 0.977 . S
C301 C289 1.453 . S
C301 H330 0.982 . S
C301 H331 0.979 . S
C301 H332 0.977 . S
C302 C289 1.684 . S
C302 H327 0.979 . S
C302 H328 0.980 . S
C302 H329 0.983 . S
C303 C304 1.391 . S
C303 C308 1.391 . S
C303 H333 0.948 . S
C304 C303 1.391 . S
C304 C305 1.391 . S
C305 C304 1.391 . S
C305 C306 1.392 . S
C305 H334 0.947 . S
C306 C305 1.392 . S
C306 C307 1.419 . S
C306 H335 0.948 . S
C307 C306 1.419 . S
C307 C308 1.391 . S
C307 C311 1.397 . S
C308 C303 1.391 . S
C308 C307 1.391 . S
C308 C309 1.399 . S
C309 C308 1.399 . S
C309 C310 1.396 . S
C309 C312 1.453 . S
C309 C313 1.684 . S
C310 C291 1.723 1_556 S
C310 C309 1.396 . S
C310 C311 1.394 . S
C311 C307 1.397 . S
C311 C310 1.394 . S
C311 C321 1.723 . S
C312 C309 1.453 . S
C312 H336 0.982 . S
C312 H337 0.979 . S
C312 H338 0.977 1_556 S
C313 C309 1.684 . S
C313 H339 0.979 . S
C313 H340 0.980 1_556 S
C313 H341 0.983 . S
C314 H290 0.948 . S
C314 C315 1.391 1_556 S
C314 C319 1.391 . S
C315 C314 1.391 1_554 S
C315 C316 1.391 . S
C316 H293 0.947 . S
C316 C315 1.391 . S
C316 C317 1.392 . S
C317 H294 0.948 . S
C317 C316 1.392 . S
C317 C318 1.419 . S
C318 C317 1.419 . S
C318 C319 1.391 1_554 S
C318 C322 1.397 . S
C319 C314 1.391 . S
C319 C318 1.391 1_556 S
C319 C320 1.399 . S
C320 C319 1.399 . S
C320 C321 1.396 . S
C320 C323 1.453 . S
C320 C324 1.684 . S
C321 C311 1.723 . S
C321 C320 1.396 . S
C321 C322 1.394 1_556 S
C322 C292 1.723 . S
C322 C318 1.397 . S
C322 C321 1.394 1_554 S
C323 H295 0.982 . S
C323 H299 0.979 . S
C323 H300 0.977 . S
C323 C320 1.453 . S
C324 H296 0.979 . S
C324 H297 0.980 . S
C324 H298 0.983 . S
C324 C320 1.684 . S
H325 C343 0.948 . S
H326 C284 0.948 . S
H327 C302 0.979 . S
H328 C302 0.980 . S
H329 C302 0.983 . S
H330 C301 0.982 . S
H331 C301 0.979 . S
H332 C301 0.977 . S
H333 C303 0.948 . S
H334 C305 0.947 . S
H335 C306 0.948 . S
H336 C312 0.982 . S
H337 C312 0.979 . S
H338 C312 0.977 1_554 S
H339 C313 0.979 . S
H340 C313 0.980 1_554 S
H341 C313 0.983 . S
H342 C286 0.947 . S
C343 C286 1.392 . S
C343 C287 1.419 . S
C343 H325 0.948 . S
C344 C345 1.391 . S
C344 C348 1.391 . S
C344 H386 0.948 . S
C345 C344 1.391 . S
C345 C346 1.391 . S
C346 C345 1.391 . S
C346 H402 0.947 . S
C346 C403 1.392 . S
C347 C348 1.391 . S
C347 C351 1.397 . S
C347 C403 1.419 . S
C348 C344 1.391 . S
C348 C347 1.391 . S
C348 C349 1.399 . S
C349 C348 1.399 . S
C349 C352 1.396 . S
C349 C361 1.453 . S
C349 C362 1.684 . S
H350 C374 0.948 . S
C351 C347 1.397 . S
C351 C352 1.394 . S
C351 C370 1.723 . S
C352 C349 1.396 . S
C352 C351 1.394 . S
C352 C382 1.723 . S
H353 C376 0.947 . S
H354 C377 0.948 . S
H355 C383 0.982 . S
H356 C384 0.979 . S
H357 C384 0.980 . S
H358 C384 0.983 . S
H359 C383 0.979 . S
H360 C383 0.977 . S
C361 C349 1.453 . S
C361 H390 0.982 . S
C361 H391 0.979 . S
C361 H392 0.977 . S
C362 C349 1.684 . S
C362 H387 0.979 . S
C362 H388 0.980 . S
C362 H389 0.983 . S
C363 C364 1.391 . S
C363 C368 1.391 . S
C363 H393 0.948 . S
C364 C363 1.391 . S
C364 C365 1.391 . S
C365 C364 1.391 . S
C365 C366 1.392 . S
C365 H394 0.947 . S
C366 C365 1.392 . S
C366 C367 1.419 . S
C366 H395 0.948 . S
C367 C366 1.419 . S
C367 C368 1.391 . S
C367 C371 1.397 . S
C368 C363 1.391 . S
C368 C367 1.391 . S
C368 C369 1.399 . S
C369 C368 1.399 . S
C369 C370 1.396 . S
C369 C372 1.453 . S
C369 C373 1.684 . S
C370 C351 1.723 . S
C370 C369 1.396 . S
C370 C371 1.394 . S
C371 C367 1.397 . S
C371 C370 1.394 . S
C371 C381 1.723 . S
C372 C369 1.453 . S
C372 H396 0.982 . S
C372 H397 0.979 . S
C372 H398 0.977 . S
C373 C369 1.684 . S
C373 H399 0.979 . S
C373 H400 0.980 . S
C373 H401 0.983 . S
C374 H350 0.948 . S
C374 C375 1.391 . S
C374 C379 1.391 . S
C375 C374 1.391 . S
C375 C376 1.391 . S
C376 H353 0.947 . S
C376 C375 1.391 . S
C376 C377 1.392 . S
C377 H354 0.948 . S
C377 C376 1.392 . S
C377 C378 1.419 . S
C378 C377 1.419 . S
C378 C379 1.391 . S
C378 C382 1.397 . S
C379 C374 1.391 . S
C379 C378 1.391 . S
C379 C380 1.399 . S
C380 C379 1.399 . S
C380 C381 1.396 . S
C380 C383 1.453 . S
C380 C384 1.684 . S
C381 C371 1.723 . S
C381 C380 1.396 . S
C381 C382 1.394 . S
C382 C352 1.723 . S
C382 C378 1.397 . S
C382 C381 1.394 . S
C383 H355 0.982 . S
C383 H359 0.979 . S
C383 H360 0.977 . S
C383 C380 1.453 . S
C384 H356 0.979 . S
C384 H357 0.980 . S
C384 H358 0.983 . S
C384 C380 1.684 . S
H385 C403 0.948 . S
H386 C344 0.948 . S
H387 C362 0.979 . S
H388 C362 0.980 . S
H389 C362 0.983 . S
H390 C361 0.982 . S
H391 C361 0.979 . S
H392 C361 0.977 . S
H393 C363 0.948 . S
H394 C365 0.947 . S
H395 C366 0.948 . S
H396 C372 0.982 . S
H397 C372 0.979 . S
H398 C372 0.977 . S
H399 C373 0.979 . S
H400 C373 0.980 . S
H401 C373 0.983 . S
H402 C346 0.947 . S
C403 C346 1.392 . S
C403 C347 1.419 . S
C403 H385 0.948 . S
C404 C405 1.391 . S
C404 C408 1.391 . S
C404 H446 0.948 . S
C405 C404 1.391 . S
C405 C406 1.391 . S
C406 C405 1.391 . S
C406 H462 0.947 . S
C406 C463 1.392 . S
C407 C408 1.391 . S
C407 C411 1.397 . S
C407 C463 1.419 . S
C408 C404 1.391 . S
C408 C407 1.391 . S
C408 C409 1.399 . S
C409 C408 1.399 . S
C409 C412 1.396 . S
C409 C421 1.453 . S
C409 C422 1.684 . S
H410 C434 0.948 . S
C411 C407 1.397 . S
C411 C412 1.394 . S
C411 C430 1.723 . S
C412 C409 1.396 . S
C412 C411 1.394 . S
C412 C442 1.723 . S
H413 C436 0.947 . S
H414 C437 0.948 . S
H415 C443 0.982 . S
H416 C444 0.979 . S
H417 C444 0.980 . S
H418 C444 0.983 . S
H419 C443 0.979 . S
H420 C443 0.977 . S
C421 C409 1.453 . S
C421 H450 0.982 . S
C421 H451 0.979 . S
C421 H452 0.977 . S
C422 C409 1.684 . S
C422 H447 0.979 . S
C422 H448 0.980 . S
C422 H449 0.983 . S
C423 C424 1.391 . S
C423 C428 1.391 . S
C423 H453 0.948 . S
C424 C423 1.391 . S
C424 C425 1.391 . S
C425 C424 1.391 . S
C425 C426 1.392 . S
C425 H454 0.947 . S
C426 C425 1.392 . S
C426 C427 1.419 . S
C426 H455 0.948 . S
C427 C426 1.419 . S
C427 C428 1.391 . S
C427 C431 1.397 . S
C428 C423 1.391 . S
C428 C427 1.391 . S
C428 C429 1.399 . S
C429 C428 1.399 . S
C429 C430 1.396 . S
C429 C432 1.453 . S
C429 C433 1.684 . S
C430 C411 1.723 . S
C430 C429 1.396 . S
C430 C431 1.394 . S
C431 C427 1.397 . S
C431 C430 1.394 . S
C431 C441 1.723 . S
C432 C429 1.453 . S
C432 H456 0.982 . S
C432 H457 0.979 . S
C432 H458 0.977 . S
C433 C429 1.684 . S
C433 H459 0.979 . S
C433 H460 0.980 . S
C433 H461 0.983 . S
C434 H410 0.948 . S
C434 C435 1.391 . S
C434 C439 1.391 . S
C435 C434 1.391 . S
C435 C436 1.391 . S
C436 H413 0.947 . S
C436 C435 1.391 . S
C436 C437 1.392 . S
C437 H414 0.948 . S
C437 C436 1.392 . S
C437 C438 1.419 . S
C438 C437 1.419 . S
C438 C439 1.391 . S
C438 C442 1.397 . S
C439 C434 1.391 . S
C439 C438 1.391 . S
C439 C440 1.399 . S
C440 C439 1.399 . S
C440 C441 1.396 . S
C440 C443 1.453 . S
C440 C444 1.684 . S
C441 C431 1.723 . S
C441 C440 1.396 . S
C441 C442 1.394 . S
C442 C412 1.723 . S
C442 C438 1.397 . S
C442 C441 1.394 . S
C443 H415 0.982 . S
C443 H419 0.979 . S
C443 H420 0.977 . S
C443 C440 1.453 . S
C444 H416 0.979 . S
C444 H417 0.980 . S
C444 H418 0.983 . S
C444 C440 1.684 . S
H445 C463 0.948 . S
H446 C404 0.948 . S
H447 C422 0.979 . S
H448 C422 0.980 . S
H449 C422 0.983 . S
H450 C421 0.982 . S
H451 C421 0.979 . S
H452 C421 0.977 . S
H453 C423 0.948 . S
H454 C425 0.947 . S
H455 C426 0.948 . S
H456 C432 0.982 . S
H457 C432 0.979 . S
H458 C432 0.977 . S
H459 C433 0.979 . S
H460 C433 0.980 . S
H461 C433 0.983 . S
H462 C406 0.947 . S
C463 C406 1.392 . S
C463 C407 1.419 . S
C463 H445 0.948 . S
C464 C465 1.391 . S
C464 C468 1.391 . S
C464 H506 0.948 . S
C465 C464 1.391 . S
C465 C466 1.391 . S
C466 C465 1.391 . S
C466 H522 0.947 . S
C466 C523 1.392 . S
C467 C468 1.391 . S
C467 C471 1.397 . S
C467 C523 1.419 . S
C468 C464 1.391 . S
C468 C467 1.391 . S
C468 C469 1.399 . S
C469 C468 1.399 . S
C469 C472 1.396 . S
C469 C481 1.453 . S
C469 C482 1.684 . S
H470 C494 0.948 . S
C471 C467 1.397 . S
C471 C472 1.394 . S
C471 C490 1.723 . S
C472 C469 1.396 . S
C472 C471 1.394 . S
C472 C502 1.723 . S
H473 C496 0.947 . S
H474 C497 0.948 . S
H475 C503 0.982 . S
H476 C504 0.979 . S
H477 C504 0.980 . S
H478 C504 0.983 . S
H479 C503 0.979 . S
H480 C503 0.977 . S
C481 C469 1.453 . S
C481 H510 0.982 . S
C481 H511 0.979 . S
C481 H512 0.977 . S
C482 C469 1.684 . S
C482 H507 0.979 . S
C482 H508 0.980 . S
C482 H509 0.983 . S
C483 C484 1.391 . S
C483 C488 1.391 . S
C483 H513 0.948 . S
C484 C483 1.391 . S
C484 C485 1.391 . S
C485 C484 1.391 . S
C485 C486 1.392 . S
C485 H514 0.947 . S
C486 C485 1.392 . S
C486 C487 1.419 . S
C486 H515 0.948 . S
C487 C486 1.419 . S
C487 C488 1.391 . S
C487 C491 1.397 . S
C488 C483 1.391 . S
C488 C487 1.391 . S
C488 C489 1.399 . S
C489 C488 1.399 . S
C489 C490 1.396 . S
C489 C492 1.453 . S
C489 C493 1.684 . S
C490 C471 1.723 . S
C490 C489 1.396 . S
C490 C491 1.394 . S
C491 C487 1.397 . S
C491 C490 1.394 . S
C491 C501 1.723 . S
C492 C489 1.453 . S
C492 H516 0.982 . S
C492 H517 0.979 . S
C492 H518 0.977 . S
C493 C489 1.684 . S
C493 H519 0.979 1_455 S
C493 H520 0.980 . S
C493 H521 0.983 1_455 S
C494 H470 0.948 . S
C494 C495 1.391 . S
C494 C499 1.391 . S
C495 C494 1.391 . S
C495 C496 1.391 . S
C496 H473 0.947 . S
C496 C495 1.391 . S
C496 C497 1.392 . S
C497 H474 0.948 . S
C497 C496 1.392 . S
C497 C498 1.419 . S
C498 C497 1.419 . S
C498 C499 1.391 . S
C498 C502 1.397 . S
C499 C494 1.391 . S
C499 C498 1.391 . S
C499 C500 1.399 . S
C500 C499 1.399 . S
C500 C501 1.396 . S
C500 C503 1.453 . S
C500 C504 1.684 . S
C501 C491 1.723 . S
C501 C500 1.396 . S
C501 C502 1.394 . S
C502 C472 1.723 . S
C502 C498 1.397 . S
C502 C501 1.394 . S
C503 H475 0.982 . S
C503 H479 0.979 . S
C503 H480 0.977 . S
C503 C500 1.453 . S
C504 H476 0.979 . S
C504 H477 0.980 . S
C504 H478 0.983 . S
C504 C500 1.684 . S
H505 C523 0.948 . S
H506 C464 0.948 . S
H507 C482 0.979 . S
H508 C482 0.980 . S
H509 C482 0.983 . S
H510 C481 0.982 . S
H511 C481 0.979 . S
H512 C481 0.977 . S
H513 C483 0.948 . S
H514 C485 0.947 . S
H515 C486 0.948 . S
H516 C492 0.982 . S
H517 C492 0.979 . S
H518 C492 0.977 . S
H519 C493 0.979 1_655 S
H520 C493 0.980 . S
H521 C493 0.983 1_655 S
H522 C466 0.947 . S
C523 C466 1.392 . S
C523 C467 1.419 . S
C523 H505 0.948 . S
C524 C525 1.391 . S
C524 C528 1.391 . S
C524 H566 0.948 . S
C525 C524 1.391 . S
C525 C526 1.391 . S
C526 C525 1.391 . S
C526 H582 0.947 . S
C526 C583 1.392 . S
C527 C528 1.391 . S
C527 C531 1.397 . S
C527 C583 1.419 . S
C528 C524 1.391 . S
C528 C527 1.391 . S
C528 C529 1.399 . S
C529 C528 1.399 . S
C529 C532 1.396 . S
C529 C541 1.453 . S
C529 C542 1.684 . S
H530 C554 0.948 . S
C531 C527 1.397 . S
C531 C532 1.394 . S
C531 C550 1.723 . S
C532 C529 1.396 . S
C532 C531 1.394 . S
C532 C562 1.723 . S
H533 C556 0.947 . S
H534 C557 0.948 . S
H535 C563 0.982 . S
H536 C564 0.979 . S
H537 C564 0.980 . S
H538 C564 0.983 . S
H539 C563 0.979 . S
H540 C563 0.977 . S
C541 C529 1.453 . S
C541 H570 0.982 . S
C541 H571 0.979 . S
C541 H572 0.977 . S
C542 C529 1.684 . S
C542 H567 0.979 . S
C542 H568 0.980 . S
C542 H569 0.983 . S
C543 C544 1.391 . S
C543 C548 1.391 . S
C543 H573 0.948 . S
C544 C543 1.391 . S
C544 C545 1.391 . S
C545 C544 1.391 . S
C545 C546 1.392 . S
C545 H574 0.947 . S
C546 C545 1.392 . S
C546 C547 1.419 . S
C546 H575 0.948 . S
C547 C546 1.419 . S
C547 C548 1.391 . S
C547 C551 1.397 . S
C548 C543 1.391 . S
C548 C547 1.391 . S
C548 C549 1.399 . S
C549 C548 1.399 . S
C549 C550 1.396 . S
C549 C552 1.453 . S
C549 C553 1.684 . S
C550 C531 1.723 . S
C550 C549 1.396 . S
C550 C551 1.394 . S
C551 C547 1.397 . S
C551 C550 1.394 . S
C551 C561 1.723 . S
C552 C549 1.453 . S
C552 H576 0.982 . S
C552 H577 0.979 . S
C552 H578 0.977 . S
C553 C549 1.684 . S
C553 H579 0.979 1_545 S
C553 H580 0.980 . S
C553 H581 0.983 1_545 S
C554 H530 0.948 . S
C554 C555 1.391 . S
C554 C559 1.391 . S
C555 C554 1.391 . S
C555 C556 1.391 . S
C556 H533 0.947 . S
C556 C555 1.391 . S
C556 C557 1.392 . S
C557 H534 0.948 . S
C557 C556 1.392 . S
C557 C558 1.419 . S
C558 C557 1.419 . S
C558 C559 1.391 . S
C558 C562 1.397 . S
C559 C554 1.391 . S
C559 C558 1.391 . S
C559 C560 1.399 . S
C560 C559 1.399 . S
C560 C561 1.396 . S
C560 C563 1.453 . S
C560 C564 1.684 . S
C561 C551 1.723 . S
C561 C560 1.396 . S
C561 C562 1.394 . S
C562 C532 1.723 . S
C562 C558 1.397 . S
C562 C561 1.394 . S
C563 H535 0.982 . S
C563 H539 0.979 . S
C563 H540 0.977 . S
C563 C560 1.453 . S
C564 H536 0.979 . S
C564 H537 0.980 . S
C564 H538 0.983 . S
C564 C560 1.684 . S
H565 C583 0.948 . S
H566 C524 0.948 . S
H567 C542 0.979 . S
H568 C542 0.980 . S
H569 C542 0.983 . S
H570 C541 0.982 . S
H571 C541 0.979 . S
H572 C541 0.977 . S
H573 C543 0.948 . S
H574 C545 0.947 . S
H575 C546 0.948 . S
H576 C552 0.982 . S
H577 C552 0.979 . S
H578 C552 0.977 . S
H579 C553 0.979 1_565 S
H580 C553 0.980 . S
H581 C553 0.983 1_565 S
H582 C526 0.947 . S
C583 C526 1.392 . S
C583 C527 1.419 . S
C583 H565 0.948 . S
C584 C585 1.373 . S
C584 C586 1.418 1_554 S
C584 H588 0.926 1_554 S
C585 C584 1.373 . S
C585 C594 1.429 . S
C586 C584 1.418 1_556 S
C586 C587 1.362 1_556 S
C586 H589 0.931 . S
C587 C586 1.362 1_554 S
C587 C593 1.428 . S
H588 C584 0.926 1_556 S
H589 C586 0.931 . S
S590 N591 1.613 . S
S590 N592 1.610 . S
N591 S590 1.613 . S
N591 C594 1.350 . S
N592 S590 1.610 . S
N592 C593 1.351 . S
C593 C587 1.428 . S
C593 N592 1.351 . S
C593 C594 1.434 . S
C594 C585 1.429 . S
C594 N591 1.350 . S
C594 C593 1.434 . S
C595 C596 1.369 . S
C595 C597 1.419 . S
C595 H599 0.930 . S
C596 C595 1.369 . S
C596 C605 1.429 1_554 S
C597 C595 1.419 . S
C597 C598 1.363 . S
C597 H600 0.929 . S
C598 C597 1.363 . S
C598 C604 1.428 1_554 S
H599 C595 0.930 . S
H600 C597 0.929 . S
S601 N602 1.613 . S
S601 N603 1.610 . S
N602 S601 1.613 . S
N602 C605 1.350 . S
N603 S601 1.610 . S
N603 C604 1.351 . S
C604 C598 1.428 1_556 S
C604 N603 1.351 . S
C604 C605 1.434 . S
C605 C596 1.429 1_556 S
C605 N602 1.350 . S
C605 C604 1.434 . S
C606 C607 1.369 . S
C606 C608 1.419 . S
C606 H610 0.930 . S
C607 C606 1.369 . S
C607 C616 1.429 1_554 S
C608 C606 1.419 . S
C608 C609 1.363 . S
C608 H611 0.929 . S
C609 C608 1.363 . S
C609 C615 1.428 1_554 S
H610 C606 0.930 . S
H611 C608 0.929 . S
S612 N613 1.613 . S
S612 N614 1.610 . S
N613 S612 1.613 . S
N613 C616 1.350 . S
N614 S612 1.610 . S
N614 C615 1.351 . S
C615 C609 1.428 1_556 S
C615 N614 1.351 . S
C615 C616 1.434 . S
C616 C607 1.429 1_556 S
C616 N613 1.350 . S
C616 C615 1.434 . S
C617 C618 1.369 . S
C617 C619 1.419 . S
C617 H621 0.929 1_554 S
C618 C617 1.369 . S
C618 C627 1.429 . S
C619 C617 1.419 . S
C619 C620 1.363 . S
C619 H622 0.929 . S
C620 C619 1.363 . S
C620 C626 1.428 . S
H621 C617 0.929 1_556 S
H622 C619 0.929 . S
S623 N624 1.613 . S
S623 N625 1.610 . S
N624 S623 1.613 . S
N624 C627 1.350 . S
N625 S623 1.610 . S
N625 C626 1.351 . S
C626 C620 1.428 . S
C626 N625 1.351 . S
C626 C627 1.434 . S
C627 C618 1.429 . S
C627 N624 1.350 . S
C627 C626 1.434 . S
C628 C629 1.369 . S
C628 C630 1.419 . S
C628 H632 0.930 . S
C629 C628 1.369 . S
C629 C638 1.429 . S
C630 C628 1.419 . S
C630 C631 1.363 . S
C630 H633 0.929 . S
C631 C630 1.363 . S
C631 C637 1.428 . S
H632 C628 0.930 . S
H633 C630 0.929 . S
S634 N635 1.613 . S
S634 N636 1.610 . S
N635 S634 1.613 . S
N635 C638 1.350 . S
N636 S634 1.610 . S
N636 C637 1.351 . S
C637 C631 1.428 . S
C637 N636 1.351 . S
C637 C638 1.434 . S
C638 C629 1.429 . S
C638 N635 1.350 . S
C638 C637 1.434 . S
C639 C640 1.369 . S
C639 C641 1.419 . S
C639 H643 0.930 . S
C640 C639 1.369 . S
C640 C649 1.429 . S
C641 C639 1.419 . S
C641 C642 1.363 . S
C641 H644 0.929 . S
C642 C641 1.363 . S
C642 C648 1.428 . S
H643 C639 0.930 . S
H644 C641 0.929 . S
S645 N646 1.613 . S
S645 N647 1.610 . S
N646 S645 1.613 . S
N646 C649 1.350 . S
N647 S645 1.610 . S
N647 C648 1.351 . S
C648 C642 1.428 . S
C648 N647 1.351 . S
C648 C649 1.434 . S
C649 C640 1.429 . S
C649 N646 1.350 . S
C649 C648 1.434 . S
C650 C651 1.369 . S
C650 C652 1.419 . S
C650 H654 0.930 . S
C651 C650 1.369 . S
C651 C660 1.429 . S
C652 C650 1.419 . S
C652 C653 1.363 . S
C652 H655 0.929 . S
C653 C652 1.363 . S
C653 C659 1.428 . S
H654 C650 0.930 . S
H655 C652 0.929 . S
S656 N657 1.613 . S
S656 N658 1.610 . S
N657 S656 1.613 . S
N657 C660 1.350 . S
N658 S656 1.610 . S
N658 C659 1.351 . S
C659 C653 1.428 . S
C659 N658 1.351 . S
C659 C660 1.434 . S
C660 C651 1.429 . S
C660 N657 1.350 . S
C660 C659 1.434 . S
C661 C662 1.369 . S
C661 C663 1.419 . S
C661 H665 0.930 . S
C662 C661 1.369 . S
C662 C671 1.429 . S
C663 C661 1.419 . S
C663 C664 1.363 . S
C663 H666 0.929 . S
C664 C663 1.363 . S
C664 C670 1.428 . S
H665 C661 0.930 . S
H666 C663 0.929 . S
S667 N668 1.613 . S
S667 N669 1.610 . S
N668 S667 1.613 . S
N668 C671 1.350 . S
N669 S667 1.610 . S
N669 C670 1.351 . S
C670 C664 1.428 . S
C670 N669 1.351 . S
C670 C671 1.434 . S
C671 C662 1.429 . S
C671 N668 1.350 . S
C671 C670 1.434 . S
C672 C673 1.369 . S
C672 C674 1.419 . S
C672 H676 0.930 . S
C673 C672 1.369 . S
C673 C682 1.429 . S
C674 C672 1.419 . S
C674 C675 1.363 . S
C674 H677 0.929 . S
C675 C674 1.363 . S
C675 C681 1.428 . S
H676 C672 0.930 . S
H677 C674 0.929 . S
S678 N679 1.613 . S
S678 N680 1.610 . S
N679 S678 1.613 . S
N679 C682 1.350 . S
N680 S678 1.610 . S
N680 C681 1.351 . S
C681 C675 1.428 . S
C681 N680 1.351 . S
C681 C682 1.434 . S
C682 C673 1.429 . S
C682 N679 1.350 . S
C682 C681 1.434 . S
C683 C684 1.369 . S
C683 C685 1.419 . S
C683 H687 0.930 . S
C684 C683 1.369 . S
C684 C693 1.429 . S
C685 C683 1.419 . S
C685 C686 1.363 . S
C685 H688 0.929 . S
C686 C685 1.363 . S
C686 C692 1.428 . S
H687 C683 0.930 . S
H688 C685 0.929 . S
S689 N690 1.613 . S
S689 N691 1.610 . S
N690 S689 1.613 . S
N690 C693 1.350 . S
N691 S689 1.610 . S
N691 C692 1.351 . S
C692 C686 1.428 . S
C692 N691 1.351 . S
C692 C693 1.434 . S
C693 C684 1.429 . S
C693 N690 1.350 . S
C693 C692 1.434 . S
C694 C695 1.369 . S
C694 C696 1.419 . S
C694 H698 0.930 . S
C695 C694 1.369 . S
C695 C704 1.429 . S
C696 C694 1.419 . S
C696 C697 1.363 . S
C696 H699 0.929 . S
C697 C696 1.363 . S
C697 C703 1.428 . S
H698 C694 0.930 . S
H699 C696 0.929 . S
S700 N701 1.613 . S
S700 N702 1.610 . S
N701 S700 1.613 . S
N701 C704 1.350 . S
N702 S700 1.610 . S
N702 C703 1.351 . S
C703 C697 1.428 . S
C703 N702 1.351 . S
C703 C704 1.434 . S
C704 C695 1.429 . S
C704 N701 1.350 . S
C704 C703 1.434 . S
C705 C706 1.369 . S
C705 C707 1.419 . S
C705 H709 0.930 1_565 S
C706 C705 1.369 . S
C706 C715 1.429 . S
C707 C705 1.419 . S
C707 C708 1.363 . S
C707 H710 0.929 1_565 S
C708 C707 1.363 . S
C708 C714 1.428 . S
H709 C705 0.930 1_545 S
H710 C707 0.929 1_545 S
S711 N712 1.613 . S
S711 N713 1.610 . S
N712 S711 1.613 . S
N712 C715 1.350 . S
N713 S711 1.610 . S
N713 C714 1.351 . S
C714 C708 1.428 . S
C714 N713 1.351 . S
C714 C715 1.434 . S
C715 C706 1.429 . S
C715 N712 1.350 . S
C715 C714 1.434 . S
C716 C717 1.369 . S
C716 C718 1.419 . S
C716 H720 0.930 . S
C717 C716 1.369 . S
C717 C726 1.429 . S
C718 C716 1.419 . S
C718 C719 1.363 . S
C718 H721 0.929 . S
C719 C718 1.363 . S
C719 C725 1.428 . S
H720 C716 0.930 . S
H721 C718 0.929 . S
S722 N723 1.613 . S
S722 N724 1.610 . S
N723 S722 1.613 . S
N723 C726 1.350 . S
N724 S722 1.610 . S
N724 C725 1.351 . S
C725 C719 1.428 . S
C725 N724 1.351 . S
C725 C726 1.434 . S
C726 C717 1.429 . S
C726 N723 1.350 . S
C726 C725 1.434 . S
C727 C728 1.369 . S
C727 C729 1.419 . S
C727 H731 0.930 . S
C728 C727 1.369 . S
C728 C737 1.429 . S
C729 C727 1.419 . S
C729 C730 1.363 . S
C729 H732 0.929 . S
C730 C729 1.363 . S
C730 C736 1.428 . S
H731 C727 0.930 . S
H732 C729 0.929 . S
S733 N734 1.613 . S
S733 N735 1.610 . S
N734 S733 1.613 . S
N734 C737 1.350 . S
N735 S733 1.610 . S
N735 C736 1.351 . S
C736 C730 1.428 . S
C736 N735 1.351 . S
C736 C737 1.434 . S
C737 C728 1.429 . S
C737 N734 1.350 . S
C737 C736 1.434 . S
C738 C739 1.369 . S
C738 C740 1.419 . S
C738 H742 0.930 . S
C739 C738 1.369 . S
C739 C748 1.429 . S
C740 C738 1.419 . S
C740 C741 1.363 . S
C740 H743 0.929 . S
C741 C740 1.363 . S
C741 C747 1.428 . S
H742 C738 0.930 . S
H743 C740 0.929 . S
S744 N745 1.613 . S
S744 N746 1.610 . S
N745 S744 1.613 . S
N745 C748 1.350 1_565 S
N746 S744 1.610 . S
N746 C747 1.351 1_565 S
C747 C741 1.428 . S
C747 N746 1.351 1_545 S
C747 C748 1.434 . S
C748 C739 1.429 . S
C748 N745 1.350 1_545 S
C748 C747 1.434 . S
C749 C750 1.369 . S
C749 C751 1.419 . S
C749 H753 0.930 . S
C750 C749 1.369 . S
C750 C759 1.429 . S
C751 C749 1.419 . S
C751 C752 1.363 . S
C751 H754 0.929 . S
C752 C751 1.363 . S
C752 C758 1.428 . S
H753 C749 0.930 . S
H754 C751 0.929 . S
S755 N756 1.613 . S
S755 N757 1.610 . S
N756 S755 1.613 . S
N756 C759 1.350 . S
N757 S755 1.610 . S
N757 C758 1.351 . S
C758 C752 1.428 . S
C758 N757 1.351 . S
C758 C759 1.434 . S
C759 C750 1.429 . S
C759 N756 1.350 . S
C759 C758 1.434 . S
C760 C761 1.369 . S
C760 C762 1.419 . S
C760 H764 0.930 . S
C761 C760 1.369 . S
C761 C770 1.429 . S
C762 C760 1.419 . S
C762 C763 1.363 . S
C762 H765 0.929 . S
C763 C762 1.363 . S
C763 C769 1.428 . S
H764 C760 0.930 . S
H765 C762 0.929 . S
S766 N767 1.613 . S
S766 N768 1.610 . S
N767 S766 1.613 . S
N767 C770 1.350 . S
N768 S766 1.610 . S
N768 C769 1.351 . S
C769 C763 1.428 . S
C769 N768 1.351 . S
C769 C770 1.434 . S
C770 C761 1.429 . S
C770 N767 1.350 . S
C770 C769 1.434 . S
C771 C772 1.369 . S
C771 C773 1.419 . S
C771 H775 0.930 . S
C772 C771 1.369 . S
C772 C781 1.429 . S
C773 C771 1.419 . S
C773 C774 1.363 . S
C773 H776 0.929 . S
C774 C773 1.363 . S
C774 C780 1.428 . S
H775 C771 0.930 . S
H776 C773 0.929 . S
S777 N778 1.613 . S
S777 N779 1.610 . S
N778 S777 1.613 . S
N778 C781 1.350 . S
N779 S777 1.610 . S
N779 C780 1.351 . S
C780 C774 1.428 . S
C780 N779 1.351 . S
C780 C781 1.434 . S
C781 C772 1.429 . S
C781 N778 1.350 . S
C781 C780 1.434 . S
C782 C783 1.369 . S
C782 C784 1.419 . S
C782 H786 0.930 . S
C783 C782 1.369 . S
C783 C792 1.429 . S
C784 C782 1.419 . S
C784 C785 1.363 . S
C784 H787 0.929 . S
C785 C784 1.363 . S
C785 C791 1.428 . S
H786 C782 0.930 . S
H787 C784 0.929 . S
S788 N789 1.613 . S
S788 N790 1.610 . S
N789 S788 1.613 . S
N789 C792 1.350 . S
N790 S788 1.610 . S
N790 C791 1.351 . S
C791 C785 1.428 . S
C791 N790 1.351 . S
C791 C792 1.434 . S
C792 C783 1.429 . S
C792 N789 1.350 . S
C792 C791 1.434 . S
C793 C794 1.369 . S
C793 C795 1.419 . S
C793 H797 0.930 . S
C794 C793 1.369 . S
C794 C803 1.429 . S
C795 C793 1.419 . S
C795 C796 1.363 . S
C795 H798 0.929 . S
C796 C795 1.363 . S
C796 C802 1.428 . S
H797 C793 0.930 . S
H798 C795 0.929 . S
S799 N800 1.613 . S
S799 N801 1.610 . S
N800 S799 1.613 . S
N800 C803 1.350 . S
N801 S799 1.610 . S
N801 C802 1.351 . S
C802 C796 1.428 . S
C802 N801 1.351 . S
C802 C803 1.434 . S
C803 C794 1.429 . S
C803 N800 1.350 . S
C803 C802 1.434 . S
C804 C805 1.369 . S
C804 C806 1.419 . S
C804 H808 0.930 . S
C805 C804 1.369 . S
C805 C814 1.429 . S
C806 C804 1.419 . S
C806 C807 1.363 . S
C806 H809 0.929 . S
C807 C806 1.363 . S
C807 C813 1.428 . S
H808 C804 0.930 . S
H809 C806 0.929 . S
S810 N811 1.613 . S
S810 N812 1.610 . S
N811 S810 1.613 . S
N811 C814 1.350 . S
N812 S810 1.610 . S
N812 C813 1.351 . S
C813 C807 1.428 . S
C813 N812 1.351 . S
C813 C814 1.434 . S
C814 C805 1.429 . S
C814 N811 1.350 . S
C814 C813 1.434 . S
C815 C816 1.369 . S
C815 C817 1.419 . S
C815 H819 0.930 . S
C816 C815 1.369 . S
C816 C825 1.429 . S
C817 C815 1.419 . S
C817 C818 1.363 . S
C817 H820 0.929 . S
C818 C817 1.363 . S
C818 C824 1.428 . S
H819 C815 0.930 . S
H820 C817 0.929 . S
S821 N822 1.613 . S
S821 N823 1.610 . S
N822 S821 1.613 . S
N822 C825 1.350 . S
N823 S821 1.610 . S
N823 C824 1.351 . S
C824 C818 1.428 . S
C824 N823 1.351 . S
C824 C825 1.434 . S
C825 C816 1.429 . S
C825 N822 1.350 . S
C825 C824 1.434 . S
C826 C827 1.369 . S
C826 C828 1.419 . S
C826 H830 0.930 . S
C827 C826 1.369 . S
C827 C836 1.429 . S
C828 C826 1.419 . S
C828 C829 1.363 . S
C828 H831 0.929 . S
C829 C828 1.363 . S
C829 C835 1.428 . S
H830 C826 0.930 . S
H831 C828 0.929 . S
S832 N833 1.613 . S
S832 N834 1.610 . S
N833 S832 1.613 . S
N833 C836 1.350 . S
N834 S832 1.610 . S
N834 C835 1.351 . S
C835 C829 1.428 . S
C835 N834 1.351 . S
C835 C836 1.434 . S
C836 C827 1.429 . S
C836 N833 1.350 . S
C836 C835 1.434 . S
C837 C838 1.369 . S
C837 C839 1.419 . S
C837 H841 0.930 . S
C838 C837 1.369 . S
C838 C847 1.429 . S
C839 C837 1.419 . S
C839 C840 1.363 . S
C839 H842 0.929 . S
C840 C839 1.363 . S
C840 C846 1.428 . S
H841 C837 0.930 . S
H842 C839 0.929 . S
S843 N844 1.613 . S
S843 N845 1.610 . S
N844 S843 1.613 . S
N844 C847 1.350 . S
N845 S843 1.610 . S
N845 C846 1.351 . S
C846 C840 1.428 . S
C846 N845 1.351 . S
C846 C847 1.434 . S
C847 C838 1.429 . S
C847 N844 1.350 . S
C847 C846 1.434 . S
C585 C45 1.636 . S
C587 C135 1.579 . S
C596 C30 1.629 . S
C598 C195 1.588 . S
C607 C39 1.632 . S
C609 C255 1.665 . S
C620 C315 1.660 . S
C618 C34 1.629 . S
C629 C97 1.635 . S
C631 C375 1.584 . S
C642 C435 1.591 . S
C640 C82 1.631 . S
C653 C495 1.657 . S
C651 C91 1.636 . S
C664 C555 1.659 . S
C662 C86 1.635 . S
C675 C484 1.607 . S
C673 C26 1.509 . S
C686 C544 1.606 . S
C684 C36 1.514 . S
C697 C345 1.486 . S
C695 C32 1.516 . S
C708 C405 1.488 . S
C706 C42 1.513 . S
C717 C18 1.570 . S
C719 C424 1.627 . S
C730 C465 1.658 . S
C728 C50 1.568 . S
C739 C4 1.579 . S
C741 C525 1.653 . S
C750 C48 1.571 . S
C752 C364 1.629 . S
C763 C244 1.608 . S
C761 C78 1.502 . S
C772 C88 1.514 . S
C774 C304 1.605 . S
C785 C105 1.495 . S
C783 C84 1.502 . S
C796 C165 1.491 . S
C794 C94 1.510 . S
C807 C184 1.623 . S
C805 C70 1.581 . S
C818 C225 1.657 . S
C816 C102 1.574 . S
C827 C56 1.572 . S
C829 C285 1.655 . S
C838 C100 1.580 . S
C840 C124 1.625 . S
