# Generated by pormake.
# Topology anh, (6,3)-cn, num edge types: 1
# Building blocks:
#     Node 0, Type 0, BuildingBlock: BETDEL_clean_sbu_0, # of connection points: 6
#     Node 1, Type 0, BuildingBlock: BETDEL_clean_sbu_0, # of connection points: 6
#     Node 2, Type 0, BuildingBlock: BETDEL_clean_sbu_0, # of connection points: 6
#     Node 3, Type 1, BuildingBlock: ESEHIV_clean_linker_0, # of connection points: 3
#     Node 4, Type 1, BuildingBlock: ESEHIV_clean_linker_0, # of connection points: 3
#     Node 5, Type 1, BuildingBlock: ESEHIV_clean_linker_0, # of connection points: 3
#     Node 6, Type 1, BuildingBlock: ESEHIV_clean_linker_0, # of connection points: 3
#     Node 7, Type 1, BuildingBlock: ESEHIV_clean_linker_0, # of connection points: 3
#     Node 8, Type 1, BuildingBlock: ESEHIV_clean_linker_0, # of connection points: 3
#     Edge 9, Type (0, 1), BuildingBlock: XUDNAN_clean_linker_2, # of connection points: 2
#     Edge 10, Type (0, 1), BuildingBlock: XUDNAN_clean_linker_2, # of connection points: 2
#     Edge 11, Type (0, 1), BuildingBlock: XUDNAN_clean_linker_2, # of connection points: 2
#     Edge 12, Type (0, 1), BuildingBlock: XUDNAN_clean_linker_2, # of connection points: 2
#     Edge 13, Type (0, 1), BuildingBlock: XUDNAN_clean_linker_2, # of connection points: 2
#     Edge 14, Type (0, 1), BuildingBlock: XUDNAN_clean_linker_2, # of connection points: 2
#     Edge 15, Type (0, 1), BuildingBlock: XUDNAN_clean_linker_2, # of connection points: 2
#     Edge 16, Type (0, 1), BuildingBlock: XUDNAN_clean_linker_2, # of connection points: 2
#     Edge 17, Type (0, 1), BuildingBlock: XUDNAN_clean_linker_2, # of connection points: 2
#     Edge 18, Type (0, 1), BuildingBlock: XUDNAN_clean_linker_2, # of connection points: 2
#     Edge 19, Type (0, 1), BuildingBlock: XUDNAN_clean_linker_2, # of connection points: 2
#     Edge 20, Type (0, 1), BuildingBlock: XUDNAN_clean_linker_2, # of connection points: 2
#     Edge 21, Type (0, 1), BuildingBlock: XUDNAN_clean_linker_2, # of connection points: 2
#     Edge 22, Type (0, 1), BuildingBlock: XUDNAN_clean_linker_2, # of connection points: 2
#     Edge 23, Type (0, 1), BuildingBlock: XUDNAN_clean_linker_2, # of connection points: 2
#     Edge 24, Type (0, 1), BuildingBlock: XUDNAN_clean_linker_2, # of connection points: 2
#     Edge 25, Type (0, 1), BuildingBlock: XUDNAN_clean_linker_2, # of connection points: 2
#     Edge 26, Type (0, 1), BuildingBlock: XUDNAN_clean_linker_2, # of connection points: 2
# Relax obj value: 0.149
# Max RMSD: 0.167
# Mean RMSD: 0.136
data_MOF--net-anh--node1-BETDEL_clean_sbu_0--node2-ESEHIV_clean_linker_0--edge1-XUDNAN_clean_linker_2
_symmetry_space_group_name_H-M    P1
_symmetry_Int_Tables_number       1
_symmetry_cell_setting            triclinic
loop_
_symmetry_equiv_pos_as_xyz
'x, y, z'
_cell_length_a     27.413786
_cell_length_b     27.502483
_cell_length_c     49.508733
_cell_angle_alpha  89.833133
_cell_angle_beta   90.015177
_cell_angle_gamma 119.93259
loop_
_atom_site_label
_atom_site_type_symbol
_atom_site_fract_x
_atom_site_fract_y
_atom_site_fract_z
_atom_type_partial_charge
Dy0 Dy 0.06326 0.51025 0.161 0.0
C1 C 0.92099 0.60141 0.1844 0.0
C2 C 0.13322 0.47798 0.13846 0.0
Dy3 Dy 0.9993 0.57527 0.16664 0.0
O4 O 0.12043 0.47323 0.164 0.0
O5 O 0.10719 0.49929 0.12554 0.0
O6 O 0.04475 0.48158 0.20433 0.0
O7 O 0.05297 0.55889 0.19236 0.0
C8 C 0.0391 0.52411 0.21141 0.0
C9 C 1.0216 0.56006 0.11573 0.0
O10 O 0.0869 0.64714 0.17523 0.0
O11 O 0.13257 0.60186 0.1581 0.0
O12 O 0.95724 0.62782 0.16521 0.0
O13 O 0.92945 0.56259 0.19434 0.0
O14 O 1.01717 0.60294 0.12324 0.0
O15 O 1.00828 0.52559 0.13499 0.0
O16 O 0.97572 0.4349 0.1596 0.0
O17 O 0.92944 0.48433 0.16959 0.0
C18 C 0.13358 0.64823 0.16678 0.0
C19 C 0.92914 0.43638 0.16552 0.0
Dy20 Dy 0.50118 0.03969 0.50134 0.0
C21 C 0.73607 0.17688 0.51506 0.0
C22 C 0.39088 0.97099 0.48932 0.0
Dy23 Dy 0.62625 0.10405 0.50273 0.0
O24 O 0.40954 0.99709 0.51204 0.0
O25 O 0.43247 0.98222 0.47314 0.0
O26 O 0.49828 0.0721 0.54217 0.0
O27 O 0.56301 0.05434 0.53276 0.0
C28 C 0.54429 0.07419 0.55021 0.0
C29 C 0.58334 0.07483 0.4527 0.0
O30 O 0.6165 0.01932 0.51068 0.0
O31 O 0.52121 0.96848 0.50076 0.0
O32 O 0.71842 0.14772 0.49306 0.0
O33 O 0.69352 0.16561 0.53053 0.0
O34 O 0.63064 0.07894 0.46006 0.0
O35 O 0.56414 0.09118 0.47154 0.0
O36 O 0.51283 0.12533 0.49294 0.0
O37 O 0.6052 0.17384 0.50746 0.0
C38 C 0.56992 0.97088 0.50619 0.0
C39 C 0.55781 0.17278 0.50058 0.0
Dy40 Dy 0.61241 0.60212 0.83642 0.0
C41 C 0.5106 0.36241 0.85543 0.0
C42 C 0.65038 0.71246 0.82676 0.0
Dy43 Dy 0.5489 0.46911 0.83763 0.0
O44 O 0.61875 0.68411 0.84701 0.0
O45 O 0.6614 0.68056 0.81161 0.0
O46 O 0.65328 0.60478 0.87575 0.0
O47 O 0.57315 0.5362 0.86698 0.0
C48 C 0.61403 0.55521 0.88324 0.0
C49 C 0.56392 0.50738 0.78619 0.0
O50 O 0.47595 0.48291 0.84517 0.0
O51 O 0.52033 0.57882 0.83517 0.0
O52 O 0.48323 0.37778 0.8393 0.0
O53 O 0.55827 0.40576 0.86219 0.0
O54 O 0.53885 0.45432 0.79233 0.0
O55 O 0.57871 0.53471 0.80782 0.0
O56 O 0.68541 0.58829 0.82775 0.0
O57 O 0.64024 0.49213 0.83726 0.0
C58 C 0.47446 0.52991 0.84082 0.0
C59 C 0.68619 0.54077 0.83174 0.0
H60 H 0.44941 0.9698 0.2525 0.0
H61 H 0.60922 0.12166 0.25227 0.0
H62 H 0.53155 0.04326 0.17679 0.0
C63 C 0.48408 1.00276 0.24121 0.0
C64 C 0.48422 1.00042 0.21282 0.0
C65 C 0.52896 0.04597 0.25548 0.0
C66 C 0.5753 0.08765 0.24119 0.0
C67 C 0.57684 0.0878 0.21276 0.0
C68 C 0.53094 0.04371 0.19866 0.0
H69 H 0.56804 0.65074 0.58697 0.0
H70 H 0.57283 0.49697 0.58663 0.0
H71 H 0.5633 0.57126 0.51144 0.0
C72 C 0.56785 0.61666 0.57595 0.0
C73 C 0.56544 0.61662 0.54758 0.0
C74 C 0.57114 0.57414 0.59023 0.0
C75 C 0.57067 0.53002 0.5757 0.0
C76 C 0.56725 0.5277 0.54731 0.0
C77 C 0.56508 0.57175 0.5333 0.0
H78 H 1.00854 0.55602 0.91618 0.0
H79 H 0.16037 0.54742 0.91885 0.0
H80 H 0.08602 0.54655 0.84199 0.0
C81 C 0.04288 0.55554 0.90556 0.0
C82 C 0.04238 0.55331 0.87715 0.0
C83 C 0.08466 0.55254 0.92058 0.0
C84 C 0.1284 0.55014 0.90711 0.0
C85 C 0.13007 0.54877 0.87876 0.0
C86 C 0.08602 0.54908 0.86382 0.0
H87 H 0.94845 0.48158 0.41341 0.0
H88 H 0.05233 0.65849 0.3989 0.0
H89 H 0.04158 0.5929 0.47867 0.0
C90 C 0.97722 0.52329 0.42088 0.0
C91 C 0.99195 0.53157 0.44844 0.0
C92 C 0.9987 0.56889 0.40288 0.0
C93 C 0.03468 0.62307 0.41268 0.0
C94 C 0.0496 0.63194 0.44 0.0
C95 C 0.02824 0.58615 0.45775 0.0
H96 H 0.56535 0.12784 0.75418 0.0
H97 H 0.66487 0.04999 0.73858 0.0
H98 H 0.61302 0.0585 0.81982 0.0
C99 C 0.58771 0.10709 0.76133 0.0
C100 C 0.58635 0.09507 0.78892 0.0
C101 C 0.61711 0.09221 0.74302 0.0
C102 C 0.64376 0.06329 0.7527 0.0
C103 C 0.64171 0.04976 0.78029 0.0
C104 C 0.61422 0.06747 0.79842 0.0
H105 H 0.46514 0.44157 0.05269 0.0
H106 H 0.61824 0.46894 0.09056 0.0
H107 H 0.50128 0.49812 0.13482 0.0
C108 C 0.49217 0.45213 0.07012 0.0
C109 C 0.47515 0.46616 0.0943 0.0
C110 C 0.54473 0.4549 0.06789 0.0
C111 C 0.57815 0.46769 0.09125 0.0
C112 C 0.56295 0.48407 0.11514 0.0
C113 C 0.51163 0.48335 0.11662 0.0
H114 H 0.20071 0.44381 0.16336 0.0
H115 H 0.16535 0.49419 0.08598 0.0
H116 H 0.24665 0.49244 0.06588 0.0
H117 H 0.34726 0.52517 0.15994 0.0
H118 H 0.36182 0.47417 0.17519 0.0
H119 H 0.29767 0.47388 0.18329 0.0
H120 H 0.23902 0.36998 0.16847 0.0
H121 H 0.30309 0.36969 0.16067 0.0
H122 H 0.24942 0.34998 0.13526 0.0
H123 H 0.33721 0.49712 0.05567 0.0
H124 H 0.42724 0.49824 0.05432 0.0
H125 H 0.40161 0.43785 0.13726 0.0
C126 C 0.20947 0.4532 0.14206 0.0
C127 C 0.17694 0.46908 0.12617 0.0
C128 C 0.1898 0.48178 0.09846 0.0
C129 C 0.23589 0.48098 0.08686 0.0
C130 C 0.26819 0.46675 0.1032 0.0
C131 C 0.2552 0.45215 0.13006 0.0
C132 C 0.29819 0.44036 0.14322 0.0
C133 C 0.32798 0.48082 0.1668 0.0
C134 C 0.27078 0.37884 0.15244 0.0
C135 C 0.33799 0.45206 0.11972 0.0
C136 C 0.31981 0.46729 0.09689 0.0
C137 C 0.35118 0.4837 0.07316 0.0
C138 C 0.40221 0.48379 0.07257 0.0
C139 C 0.42118 0.46672 0.09546 0.0
C140 C 0.38841 0.45088 0.11936 0.0
H141 H 0.82345 0.21171 0.48035 0.0
H142 H 0.77166 0.25617 0.55452 0.0
H143 H 0.85042 0.35312 0.55018 0.0
H144 H 0.98418 0.32179 0.48646 0.0
H145 H 0.98725 0.33287 0.45046 0.0
H146 H 0.94111 0.26412 0.46434 0.0
H147 H 0.85746 0.26224 0.43916 0.0
H148 H 0.90243 0.33119 0.42587 0.0
H149 H 0.84109 0.31718 0.44526 0.0
H150 H 0.91155 0.4467 0.53091 0.0
H151 H 0.95738 0.52858 0.50072 0.0
H152 H 0.97335 0.42534 0.43912 0.0
C153 C 0.83081 0.2412 0.49643 0.0
C154 C 0.79191 0.2269 0.51773 0.0
C155 C 0.80151 0.26645 0.53816 0.0
C156 C 0.84619 0.32163 0.53584 0.0
C157 C 0.88117 0.33593 0.51326 0.0
C158 C 0.87502 0.29643 0.49424 0.0
C159 C 0.91125 0.32391 0.46959 0.0
C160 C 0.95879 0.30985 0.46761 0.0
C161 C 0.87591 0.30768 0.44347 0.0
C162 C 0.93421 0.38497 0.47653 0.0
C163 C 0.91772 0.39111 0.50209 0.0
C164 C 0.92676 0.44275 0.51133 0.0
C165 C 0.95276 0.48909 0.49396 0.0
C166 C 0.9693 0.48352 0.46755 0.0
C167 C 0.96116 0.43099 0.45915 0.0
H168 H 0.60095 0.76958 0.84569 0.0
H169 H 0.73503 0.78559 0.79343 0.0
H170 H 0.75748 0.88203 0.78112 0.0
H171 H 0.55073 0.8306 0.80098 0.0
H172 H 0.53086 0.86443 0.82632 0.0
H173 H 0.53271 0.80175 0.83463 0.0
H174 H 0.6013 0.85386 0.87408 0.0
H175 H 0.59988 0.91699 0.86572 0.0
H176 H 0.6661 0.91809 0.86741 0.0
H177 H 0.75993 0.97337 0.772 0.0
H178 H 0.73604 0.04722 0.76273 0.0
H179 H 0.59442 0.96575 0.818 0.0
C180 C 0.63602 0.79404 0.83222 0.0
C181 C 0.66697 0.77098 0.82077 0.0
C182 C 0.71131 0.80313 0.80254 0.0
C183 C 0.7245 0.85789 0.7956 0.0
C184 C 0.69253 0.87927 0.80697 0.0
C185 C 0.64886 0.84805 0.82471 0.0
C186 C 0.61604 0.87726 0.8313 0.0
C187 C 0.55395 0.84139 0.82278 0.0
C188 C 0.62117 0.89246 0.86142 0.0
C189 C 0.64703 0.92913 0.8139 0.0
C190 C 0.6919 0.93033 0.80057 0.0
C191 C 0.725 0.97295 0.7824 0.0
C192 C 0.71078 1.01446 0.77711 0.0
C193 C 0.66304 1.01226 0.78947 0.0
C194 C 0.63187 0.96966 0.80861 0.0
H195 H 0.82101 0.50863 0.19225 0.0
H196 H 0.89839 0.68714 0.17748 0.0
H197 H 0.80424 0.67618 0.1694 0.0
H198 H 0.74167 0.47374 0.13796 0.0
H199 H 0.68125 0.41175 0.15112 0.0
H200 H 0.74931 0.43505 0.16552 0.0
H201 H 0.71171 0.43947 0.21285 0.0
H202 H 0.64286 0.41552 0.19864 0.0
H203 H 0.67698 0.47979 0.21771 0.0
H204 H 0.70626 0.64394 0.15437 0.0
H205 H 0.61767 0.59393 0.12847 0.0
H206 H 0.6072 0.43529 0.14731 0.0
C207 C 0.81771 0.54581 0.18883 0.0
C208 C 0.86638 0.59901 0.18631 0.0
C209 C 0.86119 0.64636 0.18017 0.0
C210 C 0.80789 0.64039 0.17564 0.0
C211 C 0.76063 0.58666 0.17684 0.0
C212 C 0.76523 0.54005 0.18315 0.0
C213 C 0.71131 0.48603 0.17701 0.0
C214 C 0.72153 0.4496 0.15669 0.0
C215 C 0.6841 0.45329 0.20311 0.0
C216 C 0.67666 0.50935 0.16478 0.0
C217 C 0.70482 0.5674 0.166 0.0
C218 C 0.68333 0.59856 0.15386 0.0
C219 C 0.633 0.5699 0.13926 0.0
C220 C 0.6057 0.51097 0.13642 0.0
C221 C 0.62688 0.48027 0.14991 0.0
H222 H 0.34875 0.90582 0.44475 0.0
H223 H 0.30088 0.94276 0.52219 0.0
H224 H 0.20343 0.86525 0.51549 0.0
H225 H 0.21226 0.86018 0.40947 0.0
H226 H 0.21698 0.80568 0.39158 0.0
H227 H 0.28018 0.86951 0.40056 0.0
H228 H 0.31733 0.81123 0.42531 0.0
H229 H 0.25427 0.74744 0.41661 0.0
H230 H 0.27508 0.76269 0.45149 0.0
H231 H 0.11571 0.77663 0.50323 0.0
H232 H 0.04301 0.68452 0.48559 0.0
H233 H 0.1493 0.70587 0.41652 0.0
C234 C 0.31732 0.89849 0.45993 0.0
C235 C 0.3318 0.93006 0.48389 0.0
C236 C 0.29016 0.91894 0.50361 0.0
C237 C 0.23482 0.8752 0.49995 0.0
C238 C 0.22211 0.84361 0.47639 0.0
C239 C 0.26207 0.85503 0.4566 0.0
C240 C 0.23921 0.81175 0.43439 0.0
C241 C 0.23702 0.83838 0.40741 0.0
C242 C 0.2735 0.7815 0.43183 0.0
C243 C 0.18083 0.77309 0.44526 0.0
C244 C 0.17145 0.79245 0.46932 0.0
C245 C 0.12209 0.76151 0.48415 0.0
C246 C 0.08134 0.70922 0.47413 0.0
C247 C 0.09054 0.68863 0.44962 0.0
C248 C 0.14064 0.72134 0.43495 0.0
H249 H 0.5821 0.32831 0.87312 0.0
H250 H 0.41444 0.26705 0.84122 0.0
H251 H 0.40721 0.17589 0.83139 0.0
H252 H 0.62776 0.28657 0.82387 0.0
H253 H 0.67166 0.2659 0.84194 0.0
H254 H 0.65658 0.31655 0.85639 0.0
H255 H 0.6163 0.25549 0.89938 0.0
H256 H 0.63233 0.20465 0.88527 0.0
H257 H 0.56179 0.18313 0.89639 0.0
H258 H 0.42868 0.10681 0.8122 0.0
H259 H 0.47534 0.0635 0.78737 0.0
H260 H 0.63009 0.1681 0.83065 0.0
C261 C 0.54269 0.29447 0.86554 0.0
C262 C 0.49867 0.30422 0.85806 0.0
C263 C 0.44835 0.25998 0.84733 0.0
C264 C 0.44392 0.20802 0.84173 0.0
C265 C 0.49005 0.20108 0.84718 0.0
C266 C 0.53824 0.24282 0.85939 0.0
C267 C 0.58581 0.22981 0.85813 0.0
C268 C 0.63845 0.2775 0.84424 0.0
C269 C 0.59986 0.21752 0.88649 0.0
C270 C 0.55864 0.17721 0.84111 0.0
C271 C 0.50279 0.16025 0.83578 0.0
C272 C 0.47158 0.11826 0.81705 0.0
C273 C 0.4984 0.09414 0.80292 0.0
C274 C 0.55579 0.11216 0.80757 0.0
C275 C 0.58563 0.15263 0.82753 0.0
H276 H 0.5003 0.87055 0.53269 0.0
H277 H 0.64866 0.95329 0.48196 0.0
H278 H 0.65781 0.86822 0.48324 0.0
H279 H 0.5561 0.80544 0.57588 0.0
H280 H 0.48969 0.74208 0.58107 0.0
H281 H 0.49124 0.80701 0.57379 0.0
H282 H 0.42483 0.76038 0.53308 0.0
H283 H 0.42339 0.69534 0.54016 0.0
H284 H 0.4444 0.72726 0.50722 0.0
H285 H 0.65137 0.77345 0.49038 0.0
H286 H 0.63771 0.68288 0.50775 0.0
H287 H 0.49853 0.66388 0.55699 0.0
C288 C 0.53414 0.87028 0.52154 0.0
C289 C 0.57334 0.91835 0.50684 0.0
C290 C 0.618 0.91693 0.49318 0.0
C291 C 0.62336 0.86862 0.49371 0.0
C292 C 0.58432 0.82197 0.50844 0.0
C293 C 0.54106 0.82271 0.5225 0.0
C294 C 0.50798 0.76888 0.53878 0.0
C295 C 0.51148 0.78163 0.56918 0.0
C296 C 0.4465 0.73603 0.52923 0.0
C297 C 0.53941 0.73796 0.53177 0.0
C298 C 0.58261 0.76882 0.5138 0.0
C299 C 0.61761 0.749 0.50446 0.0
C300 C 0.60929 0.6972 0.51426 0.0
C301 C 0.56696 0.66593 0.53362 0.0
C302 C 0.53115 0.68657 0.5421 0.0
H303 H 0.78475 0.61173 0.85839 0.0
H304 H 0.70919 0.46794 0.80518 0.0
H305 H 0.79611 0.46158 0.8072 0.0
H306 H 0.93202 0.67321 0.83521 0.0
H307 H 0.96022 0.69183 0.86889 0.0
H308 H 0.89514 0.68958 0.8605 0.0
H309 H 0.8451 0.61987 0.89985 0.0
H310 H 0.90996 0.62194 0.90836 0.0
H311 H 0.8477 0.55571 0.90145 0.0
H312 H 0.89076 0.46851 0.81665 0.0
H313 H 0.97985 0.482 0.83615 0.0
H314 H 0.99204 0.61766 0.88548 0.0
C315 C 0.78729 0.57998 0.84657 0.0
C316 C 0.74075 0.54121 0.831 0.0
C317 C 0.74466 0.49863 0.81682 0.0
C318 C 0.79395 0.49476 0.81785 0.0
C319 C 0.83896 0.5332 0.83358 0.0
C320 C 0.83584 0.57468 0.84793 0.0
C321 C 0.8878 0.60703 0.86546 0.0
C322 C 0.92074 0.6691 0.857 0.0
C323 C 0.87166 0.60075 0.89556 0.0
C324 C 0.92047 0.57725 0.85882 0.0
C325 C 0.89203 0.53535 0.84007 0.0
C326 C 0.91345 0.50144 0.83125 0.0
C327 C 0.96444 0.50967 0.8423 0.0
C328 C 0.99339 0.55097 0.86231 0.0
C329 C 0.97115 0.58568 0.87023 0.0
H330 H 0.1661 0.74293 0.19865 0.0
H331 H 0.22863 0.67408 0.138 0.0
H332 H 0.32238 0.759 0.14059 0.0
H333 H 0.24952 0.89056 0.17779 0.0
H334 H 0.26253 0.9165 0.21195 0.0
H335 H 0.19902 0.85212 0.204 0.0
H336 H 0.2231 0.79988 0.24054 0.0
H337 H 0.28656 0.86407 0.24862 0.0
H338 H 0.29016 0.80262 0.23934 0.0
H339 H 0.4116 0.85145 0.1507 0.0
H340 H 0.48884 0.93935 0.16981 0.0
H341 H 0.36998 0.94821 0.22456 0.0
C342 C 0.19929 0.74607 0.18563 0.0
C343 C 0.1894 0.70155 0.16793 0.0
C344 C 0.23467 0.70725 0.1517 0.0
C345 C 0.28827 0.75562 0.15296 0.0
C346 C 0.29678 0.79843 0.17072 0.0
C347 C 0.25359 0.79401 0.1869 0.0
C348 C 0.2749 0.8447 0.2054 0.0
C349 C 0.24469 0.87794 0.19942 0.0
C350 C 0.26829 0.82673 0.23524 0.0
C351 C 0.33669 0.87793 0.19725 0.0
C352 C 0.34834 0.85085 0.17699 0.0
C353 C 0.40275 0.87305 0.16651 0.0
C354 C 0.44647 0.92342 0.17737 0.0
C355 C 0.43611 0.95124 0.19877 0.0
C356 C 0.37989 0.92817 0.20837 0.0
H357 H 0.62303 0.26841 0.53065 0.0
H358 H 0.48455 0.19664 0.4737 0.0
H359 H 0.47666 0.28224 0.47666 0.0
H360 H 0.56384 0.33014 0.57317 0.0
H361 H 0.63024 0.39157 0.58092 0.0
H362 H 0.6278 0.32669 0.57263 0.0
H363 H 0.70029 0.3769 0.53429 0.0
H364 H 0.7028 0.44195 0.54241 0.0
H365 H 0.68588 0.41455 0.50857 0.0
H366 H 0.48261 0.37638 0.48676 0.0
H367 H 0.49671 0.46567 0.50583 0.0
H368 H 0.62928 0.47503 0.5572 0.0
C369 C 0.59159 0.27101 0.51847 0.0
C370 C 0.55481 0.2257 0.50166 0.0
C371 C 0.5134 0.23059 0.48663 0.0
C372 C 0.50871 0.27928 0.48812 0.0
C373 C 0.54536 0.323 0.50496 0.0
C374 C 0.58575 0.31908 0.52004 0.0
C375 C 0.61759 0.37043 0.53788 0.0
C376 C 0.60936 0.3537 0.56793 0.0
C377 C 0.68037 0.40288 0.53033 0.0
C378 C 0.58871 0.40371 0.53063 0.0
C379 C 0.5476 0.37602 0.51135 0.0
C380 C 0.51486 0.39838 0.50181 0.0
C381 C 0.52345 0.4495 0.51262 0.0
C382 C 0.56405 0.47782 0.53308 0.0
C383 C 0.5976 0.45459 0.54173 0.0
H384 H 0.44638 0.60482 0.86345 0.0
H385 H 0.37543 0.44695 0.82051 0.0
H386 H 0.28162 0.43931 0.82171 0.0
H387 H 0.32934 0.55997 0.9086 0.0
H388 H 0.33348 0.6274 0.91009 0.0
H389 H 0.39588 0.62327 0.90349 0.0
H390 H 0.41269 0.68065 0.85947 0.0
H391 H 0.35006 0.68464 0.86588 0.0
H392 H 0.35784 0.65644 0.8344 0.0
H393 H 0.19439 0.44871 0.82768 0.0
H394 H 0.1196 0.4677 0.84333 0.0
H395 H 0.24474 0.6149 0.88584 0.0
C396 C 0.41116 0.56906 0.85401 0.0
C397 C 0.41846 0.52676 0.84155 0.0
C398 C 0.37098 0.47991 0.83006 0.0
C399 C 0.31751 0.47537 0.83053 0.0
C400 C 0.31154 0.51755 0.84302 0.0
C401 C 0.35694 0.56307 0.85497 0.0
C402 C 0.33809 0.59997 0.86913 0.0
C403 C 0.34989 0.60279 0.89964 0.0
C404 C 0.36636 0.65892 0.85646 0.0
C405 C 0.27517 0.56806 0.86337 0.0
C406 C 0.26088 0.52124 0.8478 0.0
C407 C 0.20522 0.48528 0.8399 0.0
C408 C 0.16296 0.49657 0.8487 0.0
C409 C 0.17616 0.54286 0.86567 0.0
C410 C 0.2333 0.57932 0.87276 0.0
H411 H 0.89784 0.33843 0.19441 0.0
H412 H 0.83338 0.41636 0.13982 0.0
H413 H 0.73848 0.33249 0.14278 0.0
H414 H 0.80783 0.19197 0.17301 0.0
H415 H 0.79706 0.16449 0.20694 0.0
H416 H 0.8612 0.22787 0.19833 0.0
H417 H 0.84332 0.28053 0.23686 0.0
H418 H 0.77925 0.21734 0.2456 0.0
H419 H 0.77763 0.28062 0.23792 0.0
H420 H 0.64923 0.23958 0.15211 0.0
H421 H 0.5717 0.1515 0.17125 0.0
H422 H 0.69126 0.13619 0.22278 0.0
C423 C 0.86392 0.33712 0.18263 0.0
C424 C 0.87339 0.38348 0.16629 0.0
C425 C 0.82738 0.38108 0.15207 0.0
C426 C 0.77326 0.33348 0.15361 0.0
C427 C 0.76506 0.28854 0.16994 0.0
C428 C 0.80897 0.29026 0.18453 0.0
C429 C 0.78757 0.23856 0.20252 0.0
C430 C 0.81506 0.20366 0.19473 0.0
C431 C 0.79753 0.25527 0.2325 0.0
C432 C 0.72502 0.20761 0.19577 0.0
C433 C 0.71309 0.23671 0.17657 0.0
C434 C 0.65823 0.21651 0.16715 0.0
C435 C 0.61436 0.16609 0.178 0.0
C436 C 0.625 0.13648 0.19847 0.0
C437 C 0.6815 0.15761 0.20714 0.0
H438 H 0.04223 0.62793 0.07162 0.0
H439 H 1.01961 0.46628 0.09586 0.0
H440 H 0.03935 0.44973 0.04912 0.0
H441 H 0.97025 0.57898 0.00809 0.0
H442 H 1.01516 0.64362 0.99042 0.0
H443 H 1.0035 0.64453 0.02617 0.0
H444 H 0.11117 0.69551 0.03437 0.0
H445 H 0.12316 0.69455 0.99865 0.0
H446 H 0.15147 0.66468 0.02205 0.0
H447 H 0.06354 0.45183 -0.00012 0.0
H448 H 0.07933 0.46715 0.95062 0.0
H449 H 0.07684 0.62299 0.95739 0.0
C450 C 0.04175 0.58919 0.0671 0.0
C451 C 0.03134 0.54917 0.08755 0.0
C452 C 0.02959 0.49839 0.08073 0.0
C453 C 0.04037 0.48847 0.05419 0.0
C454 C 0.05134 0.52915 0.03457 0.0
C455 C 0.05105 0.57804 0.04058 0.0
C456 C 0.06048 0.61328 0.01542 0.0
C457 C 1.00929 0.6205 0.00969 0.0
C458 C 0.1148 0.67039 0.01777 0.0
C459 C 0.06633 0.57668 0.99433 0.0
C460 C 0.06177 0.52875 0.00589 0.0
C461 C 0.06688 0.48905 0.99059 0.0
C462 C 0.07613 0.4982 0.96271 0.0
C463 C 0.07931 0.54618 0.95035 0.0
C464 C 0.07443 0.58592 0.96641 0.0
H465 H 0.63952 0.07236 0.40746 0.0
H466 H 0.48397 0.06247 0.43387 0.0
H467 H 0.45207 0.05174 0.38637 0.0
H468 H 0.65729 0.15572 0.34848 0.0
H469 H 0.68652 0.12214 0.32819 0.0
H470 H 0.69566 0.12588 0.3643 0.0
H471 H 0.651 0.0178 0.36666 0.0
H472 H 0.64185 1.01373 0.33055 0.0
H473 H 0.5822 0.97374 0.35236 0.0
H474 H 0.43711 0.0414 0.33587 0.0
H475 H 0.44211 0.03732 0.2861 0.0
H476 H 0.60984 0.05957 0.29242 0.0
C477 C 0.59856 0.06752 0.40325 0.0
C478 C 0.56381 0.06753 0.42435 0.0
C479 C 0.51092 0.06197 0.41802 0.0
C480 C 0.49254 0.05596 0.39111 0.0
C481 C 0.52792 0.05635 0.37075 0.0
C482 C 0.58002 0.06244 0.37648 0.0
C483 C 0.61092 0.06379 0.35083 0.0
C484 C 0.66584 0.12024 0.34778 0.0
C485 C 0.62213 1.01431 0.35006 0.0
C486 C 0.56804 0.05736 0.32974 0.0
C487 C 0.52024 0.05261 0.34166 0.0
C488 C 0.4744 0.04525 0.32633 0.0
C489 C 0.47753 0.04279 0.29811 0.0
C490 C 0.52637 0.04827 0.28544 0.0
C491 C 0.5722 0.0558 0.30155 0.0
H492 H 0.5201 0.44789 0.74005 0.0
H493 H 0.62456 0.61727 0.7696 0.0
H494 H 0.63739 0.65356 0.72271 0.0
H495 H 0.59749 0.46253 0.67955 0.0
H496 H 0.53583 0.41951 0.65953 0.0
H497 H 0.53487 0.40752 0.69535 0.0
H498 H 0.44724 0.41933 0.70046 0.0
H499 H 0.44784 0.43119 0.66463 0.0
H500 H 0.44988 0.48228 0.68802 0.0
H501 H 0.64048 0.67022 0.67203 0.0
H502 H 0.63211 0.66677 0.62236 0.0
H503 H 0.5217 0.48619 0.62654 0.0
C504 C 0.54566 0.49267 0.73666 0.0
C505 C 0.5715 0.52997 0.75841 0.0
C506 C 0.6044 0.58817 0.75321 0.0
C507 C 0.61191 0.60902 0.72664 0.0
C508 C 0.58589 0.57101 0.70559 0.0
C509 C 0.55318 0.51406 0.71036 0.0
C510 C 0.52947 0.48196 0.68434 0.0
C511 C 0.5507 0.44044 0.67941 0.0
C512 C 0.46477 0.45193 0.68437 0.0
C513 C 0.55427 0.52963 0.66407 0.0
C514 C 0.58675 0.58066 0.67668 0.0
C515 C 0.61471 0.63051 0.662 0.0
C516 C 0.60934 0.62813 0.63375 0.0
C517 C 0.57596 0.57625 0.62034 0.0
C518 C 0.54804 0.52652 0.63595 0.0
H519 H 0.57507 0.01923 0.58602 0.0
H520 H 0.56282 0.16908 0.57514 0.0
H521 H 0.59253 0.19634 0.62253 0.0
H522 H 0.51127 0.98703 0.64902 0.0
H523 H 0.55263 0.95878 0.66308 0.0
H524 H 0.54156 0.95665 0.62721 0.0
H525 H 0.64939 1.00964 0.61923 0.0
H526 H 0.66085 1.01181 0.65517 0.0
H527 H 0.69289 0.0759 0.63574 0.0
H528 H 0.616 0.20328 0.67156 0.0
H529 H 0.62435 0.18645 0.71979 0.0
H530 H 0.61058 0.02633 0.69975 0.0
C531 C 0.5805 0.05859 0.59353 0.0
C532 C 0.56798 0.09287 0.57716 0.0
C533 C 0.57302 0.14291 0.58759 0.0
C534 C 0.59005 0.15873 0.61434 0.0
C535 C 0.60084 0.12339 0.63035 0.0
C536 C 0.59586 0.07411 0.62043 0.0
C537 C 0.60232 0.03996 0.64272 0.0
C538 C 0.54876 0.98222 0.64568 0.0
C539 C 0.65448 0.034 0.63792 0.0
C540 C 0.61046 0.07712 0.66678 0.0
C541 C 0.61079 0.1256 0.6591 0.0
C542 C 0.61591 0.16551 0.67784 0.0
C543 C 0.62002 0.15525 0.70523 0.0
C544 C 0.61773 0.10485 0.71374 0.0
C545 C 0.61357 0.06576 0.69406 0.0
H546 H 0.52672 0.46864 0.91076 0.0
H547 H 0.70687 0.58298 0.91289 0.0
H548 H 0.71106 0.55054 0.95872 0.0
H549 H 0.49868 0.49371 0.97291 0.0
H550 H 0.44548 0.42345 0.98205 0.0
H551 H 0.45787 0.44358 0.94712 0.0
H552 H 0.47595 0.36151 0.93705 0.0
H553 H 0.46308 0.34068 0.97209 0.0
H554 H 0.52804 0.35463 0.95627 0.0
H555 H 0.69338 0.52598 0.00628 0.0
H556 H 0.65629 0.50985 0.05197 0.0
H557 H 0.48736 0.40149 0.02069 0.0
C558 C 0.56718 0.48504 0.9206 0.0
C559 C 0.61645 0.52825 0.90849 0.0
C560 C 0.66863 0.54993 0.92197 0.0
C561 C 0.67151 0.5314 0.94791 0.0
C562 C 0.62189 0.49062 0.95997 0.0
C563 C 0.57071 0.46692 0.94668 0.0
C564 C 0.52286 0.42983 0.96563 0.0
C565 C 0.47868 0.44883 0.967 0.0
C566 C 0.49589 0.36798 0.95726 0.0
C567 C 0.55469 0.44043 0.99204 0.0
C568 C 0.61187 0.47449 0.9881 0.0
C569 C 0.64898 0.49745 0.00964 0.0
C570 C 0.62709 0.48743 0.03585 0.0
C571 C 0.56826 0.45397 0.04064 0.0
C572 C 0.53233 0.42789 0.01822 0.0
H573 H 0.02493 0.46304 0.25756 0.0
H574 H 1.01815 0.60692 0.22613 0.0
H575 H 0.99083 0.62352 0.27104 0.0
H576 H 0.9113 0.41766 0.30884 0.0
H577 H 0.94935 0.40118 0.33348 0.0
H578 H 0.95883 0.39415 0.29795 0.0
H579 H 0.06647 0.46021 0.30297 0.0
H580 H 0.05731 0.46699 0.33846 0.0
H581 H 0.09243 0.52881 0.31751 0.0
H582 H 0.97146 0.62932 0.31926 0.0
H583 H 0.973 0.63151 0.36902 0.0
H584 H 0.9999 0.48881 0.37044 0.0
C585 C 1.0165 0.49726 0.26011 0.0
C586 C 1.02203 0.5328 0.2383 0.0
C587 C 1.01261 0.57833 0.24245 0.0
C588 C 0.99699 0.58804 0.26787 0.0
C589 C 0.99184 0.55232 0.28901 0.0
C590 C 1.00205 0.50831 0.28557 0.0
C591 C 1.00072 0.48089 0.31236 0.0
C592 C 0.95215 0.41985 0.3132 0.0
C593 C 0.05761 0.48448 0.31816 0.0
C594 C 0.98995 0.51756 0.33142 0.0
C595 C 0.98349 0.5575 0.3174 0.0
C596 C 0.97614 0.59809 0.3305 0.0
C597 C 0.97736 0.59918 0.35874 0.0
C598 C 0.98688 0.56056 0.37354 0.0
C599 C 0.99158 0.51823 0.35967 0.0
loop_
_geom_bond_atom_site_label_1
_geom_bond_atom_site_label_2
_geom_bond_distance
_geom_bond_site_symmetry_2
_ccdc_geom_bond_type
Dy0 O4 2.398 . S
Dy0 O5 2.491 . S
Dy0 O6 2.403 . S
Dy0 O7 2.664 . S
Dy0 O11 2.326 . S
Dy0 O15 2.310 . S
Dy0 O16 2.351 1_455 S
C1 O12 1.185 . S
C1 O13 1.355 . S
C2 O4 1.185 . S
C2 O5 1.355 . S
Dy3 O7 2.310 1_655 S
Dy3 O10 2.351 1_655 S
Dy3 O12 2.398 . S
Dy3 O13 2.491 . S
Dy3 O14 2.405 . S
Dy3 O15 2.664 1_655 S
Dy3 O17 2.326 . S
O4 Dy0 2.398 . S
O4 C2 1.185 . S
O5 Dy0 2.491 . S
O5 C2 1.355 . S
O6 Dy0 2.403 . S
O6 C8 1.254 . S
O7 Dy0 2.664 . S
O7 Dy3 2.310 1_455 S
O7 C8 1.268 . S
C8 O6 1.254 . S
C8 O7 1.268 . S
C9 O14 1.242 1_455 S
C9 O15 1.268 . S
O10 Dy3 2.351 1_455 S
O10 C18 1.249 . S
O11 Dy0 2.326 . S
O11 C18 1.267 . S
O12 C1 1.185 . S
O12 Dy3 2.398 . S
O13 C1 1.355 . S
O13 Dy3 2.491 . S
O14 Dy3 2.405 . S
O14 C9 1.242 1_655 S
O15 Dy0 2.310 . S
O15 Dy3 2.664 1_455 S
O15 C9 1.268 . S
O16 Dy0 2.351 1_655 S
O16 C19 1.249 . S
O17 Dy3 2.326 . S
O17 C19 1.267 . S
C18 O10 1.249 . S
C18 O11 1.267 . S
C19 O16 1.249 . S
C19 O17 1.267 . S
Dy20 O24 2.398 . S
Dy20 O25 2.491 . S
Dy20 O26 2.403 1_565 S
Dy20 O27 2.664 1_565 S
Dy20 O31 2.326 . S
Dy20 O35 2.310 1_565 S
Dy20 O36 2.351 1_565 S
C21 O32 1.185 . S
C21 O33 1.355 . S
C22 O24 1.185 . S
C22 O25 1.355 . S
Dy23 O27 2.310 . S
Dy23 O30 2.351 1_545 S
Dy23 O32 2.398 . S
Dy23 O33 2.491 . S
Dy23 O34 2.403 . S
Dy23 O35 2.664 . S
Dy23 O37 2.326 . S
O24 Dy20 2.398 . S
O24 C22 1.185 . S
O25 Dy20 2.491 . S
O25 C22 1.355 . S
O26 Dy20 2.403 1_545 S
O26 C28 1.254 . S
O27 Dy20 2.664 1_545 S
O27 Dy23 2.310 . S
O27 C28 1.268 . S
C28 O26 1.254 . S
C28 O27 1.268 . S
C29 O34 1.254 . S
C29 O35 1.268 . S
O30 Dy23 2.351 1_565 S
O30 C38 1.249 . S
O31 Dy20 2.326 . S
O31 C38 1.267 . S
O32 C21 1.185 . S
O32 Dy23 2.398 . S
O33 C21 1.355 . S
O33 Dy23 2.491 . S
O34 Dy23 2.403 . S
O34 C29 1.254 . S
O35 Dy20 2.310 1_545 S
O35 Dy23 2.664 . S
O35 C29 1.268 . S
O36 Dy20 2.351 1_545 S
O36 C39 1.249 . S
O37 Dy23 2.326 . S
O37 C39 1.267 . S
C38 O30 1.249 . S
C38 O31 1.267 . S
C39 O36 1.249 . S
C39 O37 1.267 . S
Dy40 O44 2.398 . S
Dy40 O45 2.491 . S
Dy40 O46 2.403 . S
Dy40 O47 2.664 . S
Dy40 O51 2.326 . S
Dy40 O55 2.310 . S
Dy40 O56 2.351 . S
C41 O52 1.185 . S
C41 O53 1.355 . S
C42 O44 1.185 . S
C42 O45 1.355 . S
Dy43 O47 2.310 . S
Dy43 O50 2.351 . S
Dy43 O52 2.398 . S
Dy43 O53 2.491 . S
Dy43 O54 2.403 . S
Dy43 O55 2.664 . S
Dy43 O57 2.326 . S
O44 Dy40 2.398 . S
O44 C42 1.185 . S
O45 Dy40 2.491 . S
O45 C42 1.355 . S
O46 Dy40 2.403 . S
O46 C48 1.254 . S
O47 Dy40 2.664 . S
O47 Dy43 2.310 . S
O47 C48 1.268 . S
C48 O46 1.254 . S
C48 O47 1.268 . S
C49 O54 1.254 . S
C49 O55 1.268 . S
O50 Dy43 2.351 . S
O50 C58 1.249 . S
O51 Dy40 2.326 . S
O51 C58 1.267 . S
O52 C41 1.185 . S
O52 Dy43 2.398 . S
O53 C41 1.355 . S
O53 Dy43 2.491 . S
O54 Dy43 2.403 . S
O54 C49 1.254 . S
O55 Dy40 2.310 . S
O55 Dy43 2.664 . S
O55 C49 1.268 . S
O56 Dy40 2.351 . S
O56 C59 1.249 . S
O57 Dy43 2.326 . S
O57 C59 1.267 . S
C58 O50 1.249 . S
C58 O51 1.267 . S
C59 O56 1.249 . S
C59 O57 1.267 . S
H60 C63 0.931 . S
H61 C66 0.928 . S
H62 C68 0.930 . S
C63 H60 0.931 . S
C63 C64 1.413 . S
C63 C65 1.360 1_565 S
C64 C63 1.413 . S
C64 C68 1.429 1_565 S
C65 C63 1.360 1_545 S
C65 C66 1.372 . S
C66 H61 0.928 . S
C66 C65 1.372 . S
C66 C67 1.404 . S
C67 C66 1.404 . S
C67 C68 1.391 . S
C68 H62 0.930 . S
C68 C64 1.429 1_545 S
C68 C67 1.391 . S
H69 C72 0.931 . S
H70 C75 0.928 . S
H71 C77 0.930 . S
C72 H69 0.931 . S
C72 C73 1.413 . S
C72 C74 1.360 . S
C73 C72 1.413 . S
C73 C77 1.429 . S
C74 C72 1.360 . S
C74 C75 1.372 . S
C75 H70 0.928 . S
C75 C74 1.372 . S
C75 C76 1.404 . S
C76 C75 1.404 . S
C76 C77 1.391 . S
C77 H71 0.930 . S
C77 C73 1.429 . S
C77 C76 1.391 . S
H78 C81 0.931 1_655 S
H79 C84 0.928 . S
H80 C86 0.930 . S
C81 H78 0.931 1_455 S
C81 C82 1.413 . S
C81 C83 1.360 . S
C82 C81 1.413 . S
C82 C86 1.429 . S
C83 C81 1.360 . S
C83 C84 1.372 . S
C84 H79 0.928 . S
C84 C83 1.372 . S
C84 C85 1.404 . S
C85 C84 1.404 . S
C85 C86 1.391 . S
C86 H80 0.930 . S
C86 C82 1.429 . S
C86 C85 1.391 . S
H87 C90 0.931 . S
H88 C93 0.928 . S
H89 C95 0.930 . S
C90 H87 0.931 . S
C90 C91 1.413 . S
C90 C92 1.360 1_655 S
C91 C90 1.413 . S
C91 C95 1.429 1_655 S
C92 C90 1.360 1_455 S
C92 C93 1.372 . S
C93 H88 0.928 . S
C93 C92 1.372 . S
C93 C94 1.404 . S
C94 C93 1.404 . S
C94 C95 1.391 . S
C95 H89 0.930 . S
C95 C91 1.429 1_455 S
C95 C94 1.391 . S
H96 C99 0.931 . S
H97 C102 0.928 1_565 S
H98 C104 0.930 . S
C99 H96 0.931 . S
C99 C100 1.413 . S
C99 C101 1.360 . S
C100 C99 1.413 . S
C100 C104 1.429 . S
C101 C99 1.360 . S
C101 C102 1.372 . S
C102 H97 0.928 1_545 S
C102 C101 1.372 . S
C102 C103 1.404 . S
C103 C102 1.404 . S
C103 C104 1.391 . S
C104 H98 0.930 . S
C104 C100 1.429 . S
C104 C103 1.391 . S
H105 C108 0.931 . S
H106 C111 0.928 . S
H107 C113 0.930 . S
C108 H105 0.931 . S
C108 C109 1.413 . S
C108 C110 1.360 . S
C109 C108 1.413 . S
C109 C113 1.429 . S
C110 C108 1.360 . S
C110 C111 1.372 . S
C111 H106 0.928 . S
C111 C110 1.372 . S
C111 C112 1.404 . S
C112 C111 1.404 . S
C112 C113 1.391 . S
C113 H107 0.930 . S
C113 C109 1.429 . S
C113 C112 1.391 . S
H114 C126 0.930 . S
H115 C128 0.930 . S
H116 C129 0.930 . S
H117 C133 0.959 . S
H118 C133 0.959 . S
H119 C133 0.961 . S
H120 C134 0.960 . S
H121 C134 0.961 . S
H122 C134 0.959 . S
H123 C137 0.929 . S
H124 C138 0.931 . S
H125 C140 0.930 . S
C126 H114 0.930 . S
C126 C127 1.399 . S
C126 C131 1.399 . S
C127 C126 1.399 . S
C127 C128 1.376 . S
C128 H115 0.930 . S
C128 C127 1.376 . S
C128 C129 1.388 . S
C129 H116 0.930 . S
C129 C128 1.388 . S
C129 C130 1.390 . S
C130 C129 1.390 . S
C130 C131 1.394 . S
C130 C136 1.465 . S
C131 C126 1.399 . S
C131 C130 1.394 . S
C131 C132 1.516 . S
C132 C131 1.516 . S
C132 C133 1.502 . S
C132 C134 1.561 . S
C132 C135 1.526 . S
C133 H117 0.959 . S
C133 H118 0.959 . S
C133 H119 0.961 . S
C133 C132 1.502 . S
C134 H120 0.960 . S
C134 H121 0.961 . S
C134 H122 0.959 . S
C134 C132 1.561 . S
C135 C132 1.526 . S
C135 C136 1.396 . S
C135 C140 1.390 . S
C136 C130 1.465 . S
C136 C135 1.396 . S
C136 C137 1.399 . S
C137 H123 0.929 . S
C137 C136 1.399 . S
C137 C138 1.385 . S
C138 H124 0.931 . S
C138 C137 1.385 . S
C138 C139 1.389 . S
C139 C138 1.389 . S
C139 C140 1.387 . S
C140 H125 0.930 . S
C140 C135 1.390 . S
C140 C139 1.387 . S
H141 C153 0.930 . S
H142 C155 0.930 . S
H143 C156 0.930 . S
H144 C160 0.959 . S
H145 C160 0.959 . S
H146 C160 0.961 . S
H147 C161 0.960 . S
H148 C161 0.961 . S
H149 C161 0.959 . S
H150 C164 0.929 . S
H151 C165 0.931 . S
H152 C167 0.930 . S
C153 H141 0.930 . S
C153 C154 1.399 . S
C153 C158 1.399 . S
C154 C153 1.399 . S
C154 C155 1.376 . S
C155 H142 0.930 . S
C155 C154 1.376 . S
C155 C156 1.388 . S
C156 H143 0.930 . S
C156 C155 1.388 . S
C156 C157 1.390 . S
C157 C156 1.390 . S
C157 C158 1.394 . S
C157 C163 1.465 . S
C158 C153 1.399 . S
C158 C157 1.394 . S
C158 C159 1.516 . S
C159 C158 1.516 . S
C159 C160 1.502 . S
C159 C161 1.561 . S
C159 C162 1.526 . S
C160 H144 0.959 . S
C160 H145 0.959 . S
C160 H146 0.961 . S
C160 C159 1.502 . S
C161 H147 0.960 . S
C161 H148 0.961 . S
C161 H149 0.959 . S
C161 C159 1.561 . S
C162 C159 1.526 . S
C162 C163 1.396 . S
C162 C167 1.390 . S
C163 C157 1.465 . S
C163 C162 1.396 . S
C163 C164 1.399 . S
C164 H150 0.929 . S
C164 C163 1.399 . S
C164 C165 1.385 . S
C165 H151 0.931 . S
C165 C164 1.385 . S
C165 C166 1.389 . S
C166 C165 1.389 . S
C166 C167 1.387 . S
C167 H152 0.930 . S
C167 C162 1.390 . S
C167 C166 1.387 . S
H168 C180 0.930 . S
H169 C182 0.930 . S
H170 C183 0.930 . S
H171 C187 0.959 . S
H172 C187 0.959 . S
H173 C187 0.961 . S
H174 C188 0.960 . S
H175 C188 0.961 . S
H176 C188 0.959 . S
H177 C191 0.929 . S
H178 C192 0.931 . S
H179 C194 0.930 . S
C180 H168 0.930 . S
C180 C181 1.399 . S
C180 C185 1.399 . S
C181 C180 1.399 . S
C181 C182 1.376 . S
C182 H169 0.930 . S
C182 C181 1.376 . S
C182 C183 1.388 . S
C183 H170 0.930 . S
C183 C182 1.388 . S
C183 C184 1.390 . S
C184 C183 1.390 . S
C184 C185 1.394 . S
C184 C190 1.465 . S
C185 C180 1.399 . S
C185 C184 1.394 . S
C185 C186 1.516 . S
C186 C185 1.516 . S
C186 C187 1.502 . S
C186 C188 1.561 . S
C186 C189 1.526 . S
C187 H171 0.959 . S
C187 H172 0.959 . S
C187 H173 0.961 . S
C187 C186 1.502 . S
C188 H174 0.960 . S
C188 H175 0.961 . S
C188 H176 0.959 . S
C188 C186 1.561 . S
C189 C186 1.526 . S
C189 C190 1.396 . S
C189 C194 1.390 . S
C190 C184 1.465 . S
C190 C189 1.396 . S
C190 C191 1.399 . S
C191 H177 0.929 . S
C191 C190 1.399 . S
C191 C192 1.385 . S
C192 H178 0.931 . S
C192 C191 1.385 . S
C192 C193 1.389 . S
C193 C192 1.389 . S
C193 C194 1.387 . S
C194 H179 0.930 . S
C194 C189 1.390 . S
C194 C193 1.387 . S
H195 C207 0.930 . S
H196 C209 0.930 . S
H197 C210 0.930 . S
H198 C214 0.959 . S
H199 C214 0.959 . S
H200 C214 0.961 . S
H201 C215 0.960 . S
H202 C215 0.961 . S
H203 C215 0.959 . S
H204 C218 0.929 . S
H205 C219 0.931 . S
H206 C221 0.930 . S
C207 H195 0.930 . S
C207 C208 1.399 . S
C207 C212 1.399 . S
C208 C207 1.399 . S
C208 C209 1.376 . S
C209 H196 0.930 . S
C209 C208 1.376 . S
C209 C210 1.388 . S
C210 H197 0.930 . S
C210 C209 1.388 . S
C210 C211 1.390 . S
C211 C210 1.390 . S
C211 C212 1.394 . S
C211 C217 1.465 . S
C212 C207 1.399 . S
C212 C211 1.394 . S
C212 C213 1.516 . S
C213 C212 1.516 . S
C213 C214 1.502 . S
C213 C215 1.561 . S
C213 C216 1.526 . S
C214 H198 0.959 . S
C214 H199 0.959 . S
C214 H200 0.961 . S
C214 C213 1.502 . S
C215 H201 0.960 . S
C215 H202 0.961 . S
C215 H203 0.959 . S
C215 C213 1.561 . S
C216 C213 1.526 . S
C216 C217 1.396 . S
C216 C221 1.390 . S
C217 C211 1.465 . S
C217 C216 1.396 . S
C217 C218 1.399 . S
C218 H204 0.929 . S
C218 C217 1.399 . S
C218 C219 1.385 . S
C219 H205 0.931 . S
C219 C218 1.385 . S
C219 C220 1.389 . S
C220 C219 1.389 . S
C220 C221 1.387 . S
C221 H206 0.930 . S
C221 C216 1.390 . S
C221 C220 1.387 . S
H222 C234 0.930 . S
H223 C236 0.930 . S
H224 C237 0.930 . S
H225 C241 0.959 . S
H226 C241 0.959 . S
H227 C241 0.961 . S
H228 C242 0.960 . S
H229 C242 0.961 . S
H230 C242 0.959 . S
H231 C245 0.929 . S
H232 C246 0.931 . S
H233 C248 0.930 . S
C234 H222 0.930 . S
C234 C235 1.399 . S
C234 C239 1.399 . S
C235 C234 1.399 . S
C235 C236 1.376 . S
C236 H223 0.930 . S
C236 C235 1.376 . S
C236 C237 1.388 . S
C237 H224 0.930 . S
C237 C236 1.388 . S
C237 C238 1.390 . S
C238 C237 1.390 . S
C238 C239 1.394 . S
C238 C244 1.465 . S
C239 C234 1.399 . S
C239 C238 1.394 . S
C239 C240 1.516 . S
C240 C239 1.516 . S
C240 C241 1.502 . S
C240 C242 1.561 . S
C240 C243 1.526 . S
C241 H225 0.959 . S
C241 H226 0.959 . S
C241 H227 0.961 . S
C241 C240 1.502 . S
C242 H228 0.960 . S
C242 H229 0.961 . S
C242 H230 0.959 . S
C242 C240 1.561 . S
C243 C240 1.526 . S
C243 C244 1.396 . S
C243 C248 1.390 . S
C244 C238 1.465 . S
C244 C243 1.396 . S
C244 C245 1.399 . S
C245 H231 0.929 . S
C245 C244 1.399 . S
C245 C246 1.385 . S
C246 H232 0.931 . S
C246 C245 1.385 . S
C246 C247 1.389 . S
C247 C246 1.389 . S
C247 C248 1.387 . S
C248 H233 0.930 . S
C248 C243 1.390 . S
C248 C247 1.387 . S
H249 C261 0.930 . S
H250 C263 0.930 . S
H251 C264 0.930 . S
H252 C268 0.959 . S
H253 C268 0.959 . S
H254 C268 0.961 . S
H255 C269 0.960 . S
H256 C269 0.961 . S
H257 C269 0.959 . S
H258 C272 0.929 . S
H259 C273 0.931 . S
H260 C275 0.930 . S
C261 H249 0.930 . S
C261 C262 1.399 . S
C261 C266 1.399 . S
C262 C261 1.399 . S
C262 C263 1.376 . S
C263 H250 0.930 . S
C263 C262 1.376 . S
C263 C264 1.388 . S
C264 H251 0.930 . S
C264 C263 1.388 . S
C264 C265 1.390 . S
C265 C264 1.390 . S
C265 C266 1.394 . S
C265 C271 1.465 . S
C266 C261 1.399 . S
C266 C265 1.394 . S
C266 C267 1.516 . S
C267 C266 1.516 . S
C267 C268 1.502 . S
C267 C269 1.561 . S
C267 C270 1.526 . S
C268 H252 0.959 . S
C268 H253 0.959 . S
C268 H254 0.961 . S
C268 C267 1.502 . S
C269 H255 0.960 . S
C269 H256 0.961 . S
C269 H257 0.959 . S
C269 C267 1.561 . S
C270 C267 1.526 . S
C270 C271 1.396 . S
C270 C275 1.390 . S
C271 C265 1.465 . S
C271 C270 1.396 . S
C271 C272 1.399 . S
C272 H258 0.929 . S
C272 C271 1.399 . S
C272 C273 1.385 . S
C273 H259 0.931 . S
C273 C272 1.385 . S
C273 C274 1.389 . S
C274 C273 1.389 . S
C274 C275 1.387 . S
C275 H260 0.930 . S
C275 C270 1.390 . S
C275 C274 1.387 . S
H276 C288 0.930 . S
H277 C290 0.930 . S
H278 C291 0.930 . S
H279 C295 0.959 . S
H280 C295 0.959 . S
H281 C295 0.961 . S
H282 C296 0.960 . S
H283 C296 0.961 . S
H284 C296 0.959 . S
H285 C299 0.929 . S
H286 C300 0.931 . S
H287 C302 0.930 . S
C288 H276 0.930 . S
C288 C289 1.399 . S
C288 C293 1.399 . S
C289 C288 1.399 . S
C289 C290 1.376 . S
C290 H277 0.930 . S
C290 C289 1.376 . S
C290 C291 1.388 . S
C291 H278 0.930 . S
C291 C290 1.388 . S
C291 C292 1.390 . S
C292 C291 1.390 . S
C292 C293 1.394 . S
C292 C298 1.465 . S
C293 C288 1.399 . S
C293 C292 1.394 . S
C293 C294 1.516 . S
C294 C293 1.516 . S
C294 C295 1.502 . S
C294 C296 1.561 . S
C294 C297 1.526 . S
C295 H279 0.959 . S
C295 H280 0.959 . S
C295 H281 0.961 . S
C295 C294 1.502 . S
C296 H282 0.960 . S
C296 H283 0.961 . S
C296 H284 0.959 . S
C296 C294 1.561 . S
C297 C294 1.526 . S
C297 C298 1.396 . S
C297 C302 1.390 . S
C298 C292 1.465 . S
C298 C297 1.396 . S
C298 C299 1.399 . S
C299 H285 0.929 . S
C299 C298 1.399 . S
C299 C300 1.385 . S
C300 H286 0.931 . S
C300 C299 1.385 . S
C300 C301 1.389 . S
C301 C300 1.389 . S
C301 C302 1.387 . S
C302 H287 0.930 . S
C302 C297 1.390 . S
C302 C301 1.387 . S
H303 C315 0.930 . S
H304 C317 0.930 . S
H305 C318 0.930 . S
H306 C322 0.959 . S
H307 C322 0.959 . S
H308 C322 0.961 . S
H309 C323 0.960 . S
H310 C323 0.961 . S
H311 C323 0.959 . S
H312 C326 0.929 . S
H313 C327 0.931 . S
H314 C329 0.930 . S
C315 H303 0.930 . S
C315 C316 1.399 . S
C315 C320 1.399 . S
C316 C315 1.399 . S
C316 C317 1.376 . S
C317 H304 0.930 . S
C317 C316 1.376 . S
C317 C318 1.388 . S
C318 H305 0.930 . S
C318 C317 1.388 . S
C318 C319 1.390 . S
C319 C318 1.390 . S
C319 C320 1.394 . S
C319 C325 1.465 . S
C320 C315 1.399 . S
C320 C319 1.394 . S
C320 C321 1.516 . S
C321 C320 1.516 . S
C321 C322 1.502 . S
C321 C323 1.561 . S
C321 C324 1.526 . S
C322 H306 0.959 . S
C322 H307 0.959 . S
C322 H308 0.961 . S
C322 C321 1.502 . S
C323 H309 0.960 . S
C323 H310 0.961 . S
C323 H311 0.959 . S
C323 C321 1.561 . S
C324 C321 1.526 . S
C324 C325 1.396 . S
C324 C329 1.390 . S
C325 C319 1.465 . S
C325 C324 1.396 . S
C325 C326 1.399 . S
C326 H312 0.929 . S
C326 C325 1.399 . S
C326 C327 1.385 . S
C327 H313 0.931 . S
C327 C326 1.385 . S
C327 C328 1.389 . S
C328 C327 1.389 . S
C328 C329 1.387 . S
C329 H314 0.930 . S
C329 C324 1.390 . S
C329 C328 1.387 . S
H330 C342 0.930 . S
H331 C344 0.930 . S
H332 C345 0.930 . S
H333 C349 0.959 . S
H334 C349 0.959 . S
H335 C349 0.961 . S
H336 C350 0.960 . S
H337 C350 0.961 . S
H338 C350 0.959 . S
H339 C353 0.929 . S
H340 C354 0.931 . S
H341 C356 0.930 . S
C342 H330 0.930 . S
C342 C343 1.399 . S
C342 C347 1.399 . S
C343 C342 1.399 . S
C343 C344 1.376 . S
C344 H331 0.930 . S
C344 C343 1.376 . S
C344 C345 1.388 . S
C345 H332 0.930 . S
C345 C344 1.388 . S
C345 C346 1.390 . S
C346 C345 1.390 . S
C346 C347 1.394 . S
C346 C352 1.465 . S
C347 C342 1.399 . S
C347 C346 1.394 . S
C347 C348 1.516 . S
C348 C347 1.516 . S
C348 C349 1.502 . S
C348 C350 1.561 . S
C348 C351 1.526 . S
C349 H333 0.959 . S
C349 H334 0.959 . S
C349 H335 0.961 . S
C349 C348 1.502 . S
C350 H336 0.960 . S
C350 H337 0.961 . S
C350 H338 0.959 . S
C350 C348 1.561 . S
C351 C348 1.526 . S
C351 C352 1.396 . S
C351 C356 1.390 . S
C352 C346 1.465 . S
C352 C351 1.396 . S
C352 C353 1.399 . S
C353 H339 0.929 . S
C353 C352 1.399 . S
C353 C354 1.385 . S
C354 H340 0.931 . S
C354 C353 1.385 . S
C354 C355 1.389 . S
C355 C354 1.389 . S
C355 C356 1.387 . S
C356 H341 0.930 . S
C356 C351 1.390 . S
C356 C355 1.387 . S
H357 C369 0.930 . S
H358 C371 0.930 . S
H359 C372 0.930 . S
H360 C376 0.959 . S
H361 C376 0.959 . S
H362 C376 0.961 . S
H363 C377 0.960 . S
H364 C377 0.961 . S
H365 C377 0.959 . S
H366 C380 0.929 . S
H367 C381 0.931 . S
H368 C383 0.930 . S
C369 H357 0.930 . S
C369 C370 1.399 . S
C369 C374 1.399 . S
C370 C369 1.399 . S
C370 C371 1.376 . S
C371 H358 0.930 . S
C371 C370 1.376 . S
C371 C372 1.388 . S
C372 H359 0.930 . S
C372 C371 1.388 . S
C372 C373 1.390 . S
C373 C372 1.390 . S
C373 C374 1.394 . S
C373 C379 1.465 . S
C374 C369 1.399 . S
C374 C373 1.394 . S
C374 C375 1.516 . S
C375 C374 1.516 . S
C375 C376 1.502 . S
C375 C377 1.561 . S
C375 C378 1.526 . S
C376 H360 0.959 . S
C376 H361 0.959 . S
C376 H362 0.961 . S
C376 C375 1.502 . S
C377 H363 0.960 . S
C377 H364 0.961 . S
C377 H365 0.959 . S
C377 C375 1.561 . S
C378 C375 1.526 . S
C378 C379 1.396 . S
C378 C383 1.390 . S
C379 C373 1.465 . S
C379 C378 1.396 . S
C379 C380 1.399 . S
C380 H366 0.929 . S
C380 C379 1.399 . S
C380 C381 1.385 . S
C381 H367 0.931 . S
C381 C380 1.385 . S
C381 C382 1.389 . S
C382 C381 1.389 . S
C382 C383 1.387 . S
C383 H368 0.930 . S
C383 C378 1.390 . S
C383 C382 1.387 . S
H384 C396 0.930 . S
H385 C398 0.930 . S
H386 C399 0.930 . S
H387 C403 0.959 . S
H388 C403 0.959 . S
H389 C403 0.961 . S
H390 C404 0.960 . S
H391 C404 0.961 . S
H392 C404 0.959 . S
H393 C407 0.929 . S
H394 C408 0.931 . S
H395 C410 0.930 . S
C396 H384 0.930 . S
C396 C397 1.399 . S
C396 C401 1.399 . S
C397 C396 1.399 . S
C397 C398 1.376 . S
C398 H385 0.930 . S
C398 C397 1.376 . S
C398 C399 1.388 . S
C399 H386 0.930 . S
C399 C398 1.388 . S
C399 C400 1.390 . S
C400 C399 1.390 . S
C400 C401 1.394 . S
C400 C406 1.465 . S
C401 C396 1.399 . S
C401 C400 1.394 . S
C401 C402 1.516 . S
C402 C401 1.516 . S
C402 C403 1.502 . S
C402 C404 1.561 . S
C402 C405 1.526 . S
C403 H387 0.959 . S
C403 H388 0.959 . S
C403 H389 0.961 . S
C403 C402 1.502 . S
C404 H390 0.960 . S
C404 H391 0.961 . S
C404 H392 0.959 . S
C404 C402 1.561 . S
C405 C402 1.526 . S
C405 C406 1.396 . S
C405 C410 1.390 . S
C406 C400 1.465 . S
C406 C405 1.396 . S
C406 C407 1.399 . S
C407 H393 0.929 . S
C407 C406 1.399 . S
C407 C408 1.385 . S
C408 H394 0.931 . S
C408 C407 1.385 . S
C408 C409 1.389 . S
C409 C408 1.389 . S
C409 C410 1.387 . S
C410 H395 0.930 . S
C410 C405 1.390 . S
C410 C409 1.387 . S
H411 C423 0.930 . S
H412 C425 0.930 . S
H413 C426 0.930 . S
H414 C430 0.959 . S
H415 C430 0.959 . S
H416 C430 0.961 . S
H417 C431 0.960 . S
H418 C431 0.961 . S
H419 C431 0.959 . S
H420 C434 0.929 . S
H421 C435 0.931 . S
H422 C437 0.930 . S
C423 H411 0.930 . S
C423 C424 1.399 . S
C423 C428 1.399 . S
C424 C423 1.399 . S
C424 C425 1.376 . S
C425 H412 0.930 . S
C425 C424 1.376 . S
C425 C426 1.388 . S
C426 H413 0.930 . S
C426 C425 1.388 . S
C426 C427 1.390 . S
C427 C426 1.390 . S
C427 C428 1.394 . S
C427 C433 1.465 . S
C428 C423 1.399 . S
C428 C427 1.394 . S
C428 C429 1.516 . S
C429 C428 1.516 . S
C429 C430 1.502 . S
C429 C431 1.561 . S
C429 C432 1.526 . S
C430 H414 0.959 . S
C430 H415 0.959 . S
C430 H416 0.961 . S
C430 C429 1.502 . S
C431 H417 0.960 . S
C431 H418 0.961 . S
C431 H419 0.959 . S
C431 C429 1.561 . S
C432 C429 1.526 . S
C432 C433 1.396 . S
C432 C437 1.390 . S
C433 C427 1.465 . S
C433 C432 1.396 . S
C433 C434 1.399 . S
C434 H420 0.929 . S
C434 C433 1.399 . S
C434 C435 1.385 . S
C435 H421 0.931 . S
C435 C434 1.385 . S
C435 C436 1.389 . S
C436 C435 1.389 . S
C436 C437 1.387 . S
C437 H422 0.930 . S
C437 C432 1.390 . S
C437 C436 1.387 . S
H438 C450 0.930 . S
H439 C452 0.930 . S
H440 C453 0.930 . S
H441 C457 0.959 1_655 S
H442 C457 0.959 . S
H443 C457 0.961 . S
H444 C458 0.960 . S
H445 C458 0.961 . S
H446 C458 0.959 . S
H447 C461 0.929 . S
H448 C462 0.931 . S
H449 C464 0.930 . S
C450 H438 0.930 . S
C450 C451 1.399 . S
C450 C455 1.399 . S
C451 C450 1.399 . S
C451 C452 1.376 . S
C452 H439 0.930 . S
C452 C451 1.376 . S
C452 C453 1.388 . S
C453 H440 0.930 . S
C453 C452 1.388 . S
C453 C454 1.390 . S
C454 C453 1.390 . S
C454 C455 1.394 . S
C454 C460 1.465 . S
C455 C450 1.399 . S
C455 C454 1.394 . S
C455 C456 1.516 . S
C456 C455 1.516 . S
C456 C457 1.502 . S
C456 C458 1.561 . S
C456 C459 1.526 1_554 S
C457 H441 0.959 1_455 S
C457 H442 0.959 . S
C457 H443 0.961 . S
C457 C456 1.502 . S
C458 H444 0.960 . S
C458 H445 0.961 . S
C458 H446 0.959 . S
C458 C456 1.561 . S
C459 C456 1.526 1_556 S
C459 C460 1.396 1_556 S
C459 C464 1.390 . S
C460 C454 1.465 . S
C460 C459 1.396 1_554 S
C460 C461 1.399 1_554 S
C461 H447 0.929 . S
C461 C460 1.399 1_556 S
C461 C462 1.385 . S
C462 H448 0.931 . S
C462 C461 1.385 . S
C462 C463 1.389 . S
C463 C462 1.389 . S
C463 C464 1.387 . S
C464 H449 0.930 . S
C464 C459 1.390 . S
C464 C463 1.387 . S
H465 C477 0.930 . S
H466 C479 0.930 . S
H467 C480 0.930 . S
H468 C484 0.959 . S
H469 C484 0.959 . S
H470 C484 0.961 . S
H471 C485 0.960 . S
H472 C485 0.961 . S
H473 C485 0.959 . S
H474 C488 0.929 . S
H475 C489 0.931 . S
H476 C491 0.930 . S
C477 H465 0.930 . S
C477 C478 1.399 1_565 S
C477 C482 1.399 . S
C478 C477 1.399 1_545 S
C478 C479 1.376 . S
C479 H466 0.930 . S
C479 C478 1.376 . S
C479 C480 1.388 . S
C480 H467 0.930 . S
C480 C479 1.388 . S
C480 C481 1.390 . S
C481 C480 1.390 . S
C481 C482 1.394 1_545 S
C481 C487 1.465 . S
C482 C477 1.399 . S
C482 C481 1.394 1_565 S
C482 C483 1.516 . S
C483 C482 1.516 . S
C483 C484 1.502 . S
C483 C485 1.561 . S
C483 C486 1.526 . S
C484 H468 0.959 . S
C484 H469 0.959 . S
C484 H470 0.961 . S
C484 C483 1.502 . S
C485 H471 0.960 . S
C485 H472 0.961 . S
C485 H473 0.959 . S
C485 C483 1.561 . S
C486 C483 1.526 . S
C486 C487 1.396 1_565 S
C486 C491 1.390 . S
C487 C481 1.465 . S
C487 C486 1.396 1_545 S
C487 C488 1.399 . S
C488 H474 0.929 . S
C488 C487 1.399 . S
C488 C489 1.385 . S
C489 H475 0.931 . S
C489 C488 1.385 . S
C489 C490 1.389 . S
C490 C489 1.389 . S
C490 C491 1.387 1_545 S
C491 H476 0.930 . S
C491 C486 1.390 . S
C491 C490 1.387 1_565 S
H492 C504 0.930 . S
H493 C506 0.930 . S
H494 C507 0.930 . S
H495 C511 0.959 . S
H496 C511 0.959 . S
H497 C511 0.961 . S
H498 C512 0.960 . S
H499 C512 0.961 . S
H500 C512 0.959 . S
H501 C515 0.929 . S
H502 C516 0.931 . S
H503 C518 0.930 . S
C504 H492 0.930 . S
C504 C505 1.399 . S
C504 C509 1.399 . S
C505 C504 1.399 . S
C505 C506 1.376 . S
C506 H493 0.930 . S
C506 C505 1.376 . S
C506 C507 1.388 . S
C507 H494 0.930 . S
C507 C506 1.388 . S
C507 C508 1.390 . S
C508 C507 1.390 . S
C508 C509 1.394 . S
C508 C514 1.465 . S
C509 C504 1.399 . S
C509 C508 1.394 . S
C509 C510 1.516 . S
C510 C509 1.516 . S
C510 C511 1.502 . S
C510 C512 1.561 . S
C510 C513 1.526 . S
C511 H495 0.959 . S
C511 H496 0.959 . S
C511 H497 0.961 . S
C511 C510 1.502 . S
C512 H498 0.960 . S
C512 H499 0.961 . S
C512 H500 0.959 . S
C512 C510 1.561 . S
C513 C510 1.526 . S
C513 C514 1.396 . S
C513 C518 1.390 . S
C514 C508 1.465 . S
C514 C513 1.396 . S
C514 C515 1.399 . S
C515 H501 0.929 . S
C515 C514 1.399 . S
C515 C516 1.385 . S
C516 H502 0.931 . S
C516 C515 1.385 . S
C516 C517 1.389 . S
C517 C516 1.389 . S
C517 C518 1.387 . S
C518 H503 0.930 . S
C518 C513 1.390 . S
C518 C517 1.387 . S
H519 C531 0.930 1_565 S
H520 C533 0.930 . S
H521 C534 0.930 . S
H522 C538 0.959 . S
H523 C538 0.959 . S
H524 C538 0.961 . S
H525 C539 0.960 . S
H526 C539 0.961 . S
H527 C539 0.959 . S
H528 C542 0.929 . S
H529 C543 0.931 . S
H530 C545 0.930 1_565 S
C531 H519 0.930 1_545 S
C531 C532 1.399 . S
C531 C536 1.399 . S
C532 C531 1.399 . S
C532 C533 1.376 . S
C533 H520 0.930 . S
C533 C532 1.376 . S
C533 C534 1.388 . S
C534 H521 0.930 . S
C534 C533 1.388 . S
C534 C535 1.390 . S
C535 C534 1.390 . S
C535 C536 1.394 . S
C535 C541 1.465 . S
C536 C531 1.399 . S
C536 C535 1.394 . S
C536 C537 1.516 1_545 S
C537 C536 1.516 1_565 S
C537 C538 1.502 . S
C537 C539 1.561 . S
C537 C540 1.526 1_565 S
C538 H522 0.959 . S
C538 H523 0.959 . S
C538 H524 0.961 . S
C538 C537 1.502 . S
C539 H525 0.960 . S
C539 H526 0.961 . S
C539 H527 0.959 . S
C539 C537 1.561 . S
C540 C537 1.526 1_545 S
C540 C541 1.396 . S
C540 C545 1.390 . S
C541 C535 1.465 . S
C541 C540 1.396 . S
C541 C542 1.399 . S
C542 H528 0.929 . S
C542 C541 1.399 . S
C542 C543 1.385 . S
C543 H529 0.931 . S
C543 C542 1.385 . S
C543 C544 1.389 . S
C544 C543 1.389 . S
C544 C545 1.387 . S
C545 H530 0.930 1_545 S
C545 C540 1.390 . S
C545 C544 1.387 . S
H546 C558 0.930 . S
H547 C560 0.930 . S
H548 C561 0.930 . S
H549 C565 0.959 . S
H550 C565 0.959 . S
H551 C565 0.961 . S
H552 C566 0.960 . S
H553 C566 0.961 . S
H554 C566 0.959 . S
H555 C569 0.929 . S
H556 C570 0.931 . S
H557 C572 0.930 . S
C558 H546 0.930 . S
C558 C559 1.399 . S
C558 C563 1.399 . S
C559 C558 1.399 . S
C559 C560 1.376 . S
C560 H547 0.930 . S
C560 C559 1.376 . S
C560 C561 1.388 . S
C561 H548 0.930 . S
C561 C560 1.388 . S
C561 C562 1.390 . S
C562 C561 1.390 . S
C562 C563 1.394 . S
C562 C568 1.465 . S
C563 C558 1.399 . S
C563 C562 1.394 . S
C563 C564 1.516 . S
C564 C563 1.516 . S
C564 C565 1.502 . S
C564 C566 1.561 . S
C564 C567 1.526 1_556 S
C565 H549 0.959 . S
C565 H550 0.959 . S
C565 H551 0.961 . S
C565 C564 1.502 . S
C566 H552 0.960 . S
C566 H553 0.961 . S
C566 H554 0.959 . S
C566 C564 1.561 . S
C567 C564 1.526 1_554 S
C567 C568 1.396 1_554 S
C567 C572 1.390 . S
C568 C562 1.465 . S
C568 C567 1.396 1_556 S
C568 C569 1.399 1_556 S
C569 H555 0.929 . S
C569 C568 1.399 1_554 S
C569 C570 1.385 . S
C570 H556 0.931 . S
C570 C569 1.385 . S
C570 C571 1.389 . S
C571 C570 1.389 . S
C571 C572 1.387 . S
C572 H557 0.930 . S
C572 C567 1.390 . S
C572 C571 1.387 . S
H573 C585 0.930 . S
H574 C587 0.930 . S
H575 C588 0.930 . S
H576 C592 0.959 . S
H577 C592 0.959 . S
H578 C592 0.961 . S
H579 C593 0.960 . S
H580 C593 0.961 . S
H581 C593 0.959 1_455 S
H582 C596 0.929 . S
H583 C597 0.931 . S
H584 C599 0.930 . S
C585 H573 0.930 . S
C585 C586 1.399 1_655 S
C585 C590 1.399 1_655 S
C586 C585 1.399 1_455 S
C586 C587 1.376 . S
C587 H574 0.930 . S
C587 C586 1.376 . S
C587 C588 1.388 . S
C588 H575 0.930 . S
C588 C587 1.388 . S
C588 C589 1.390 . S
C589 C588 1.390 . S
C589 C590 1.394 . S
C589 C595 1.465 . S
C590 C585 1.399 1_455 S
C590 C589 1.394 . S
C590 C591 1.516 1_455 S
C591 C590 1.516 1_655 S
C591 C592 1.502 . S
C591 C593 1.561 . S
C591 C594 1.526 . S
C592 H576 0.959 . S
C592 H577 0.959 . S
C592 H578 0.961 . S
C592 C591 1.502 . S
C593 H579 0.960 . S
C593 H580 0.961 . S
C593 H581 0.959 1_655 S
C593 C591 1.561 . S
C594 C591 1.526 . S
C594 C595 1.396 1_655 S
C594 C599 1.390 . S
C595 C589 1.465 . S
C595 C594 1.396 1_455 S
C595 C596 1.399 . S
C596 H582 0.929 . S
C596 C595 1.399 . S
C596 C597 1.385 . S
C597 H583 0.931 . S
C597 C596 1.385 . S
C597 C598 1.389 . S
C598 C597 1.389 . S
C598 C599 1.387 1_455 S
C599 H584 0.930 . S
C599 C594 1.390 . S
C599 C598 1.387 1_655 S
C127 C2 1.035 . S
C139 C109 1.017 . S
C154 C21 0.975 . S
C166 C91 0.992 . S
C181 C42 0.975 . S
C193 C103 0.993 1_565 S
C208 C1 0.974 . S
C220 C112 0.994 . S
C247 C94 1.043 . S
C235 C22 1.037 . S
C274 C100 1.017 . S
C262 C41 1.017 . S
C289 C38 1.765 . S
C301 C73 1.783 . S
C316 C59 1.864 . S
C328 C82 1.829 1_655 S
C343 C18 1.807 . S
C355 C64 1.817 . S
C382 C76 1.805 . S
C370 C39 1.844 . S
C409 C85 1.792 . S
C397 C58 1.788 . S
C424 C19 1.848 . S
C436 C67 1.834 . S
C463 C83 1.569 . S
C451 C9 1.544 . S
C478 C29 1.523 . S
C490 C65 1.567 . S
C505 C49 1.528 . S
C517 C74 1.570 . S
C544 C101 1.385 . S
C532 C28 1.385 . S
C571 C110 1.380 . S
C559 C48 1.337 . S
C586 C8 1.341 . S
C598 C92 1.382 . S
