# Generated by pormake.
# Topology anh, (6,3)-cn, num edge types: 1
# Building blocks:
#     Node 0, Type 0, BuildingBlock: BETDAH_clean_sbu_0, # of connection points: 6
#     Node 1, Type 0, BuildingBlock: BETDAH_clean_sbu_0, # of connection points: 6
#     Node 2, Type 0, BuildingBlock: BETDAH_clean_sbu_0, # of connection points: 6
#     Node 3, Type 1, BuildingBlock: QEWDON_clean_linker_0, # of connection points: 3
#     Node 4, Type 1, BuildingBlock: QEWDON_clean_linker_0, # of connection points: 3
#     Node 5, Type 1, BuildingBlock: QEWDON_clean_linker_0, # of connection points: 3
#     Node 6, Type 1, BuildingBlock: QEWDON_clean_linker_0, # of connection points: 3
#     Node 7, Type 1, BuildingBlock: QEWDON_clean_linker_0, # of connection points: 3
#     Node 8, Type 1, BuildingBlock: QEWDON_clean_linker_0, # of connection points: 3
#     Edge 9, Type (0, 1), BuildingBlock: TEMPAE_clean_linker_10, # of connection points: 2
#     Edge 10, Type (0, 1), BuildingBlock: TEMPAE_clean_linker_10, # of connection points: 2
#     Edge 11, Type (0, 1), BuildingBlock: TEMPAE_clean_linker_10, # of connection points: 2
#     Edge 12, Type (0, 1), BuildingBlock: TEMPAE_clean_linker_10, # of connection points: 2
#     Edge 13, Type (0, 1), BuildingBlock: TEMPAE_clean_linker_10, # of connection points: 2
#     Edge 14, Type (0, 1), BuildingBlock: TEMPAE_clean_linker_10, # of connection points: 2
#     Edge 15, Type (0, 1), BuildingBlock: TEMPAE_clean_linker_10, # of connection points: 2
#     Edge 16, Type (0, 1), BuildingBlock: TEMPAE_clean_linker_10, # of connection points: 2
#     Edge 17, Type (0, 1), BuildingBlock: TEMPAE_clean_linker_10, # of connection points: 2
#     Edge 18, Type (0, 1), BuildingBlock: TEMPAE_clean_linker_10, # of connection points: 2
#     Edge 19, Type (0, 1), BuildingBlock: TEMPAE_clean_linker_10, # of connection points: 2
#     Edge 20, Type (0, 1), BuildingBlock: TEMPAE_clean_linker_10, # of connection points: 2
#     Edge 21, Type (0, 1), BuildingBlock: TEMPAE_clean_linker_10, # of connection points: 2
#     Edge 22, Type (0, 1), BuildingBlock: TEMPAE_clean_linker_10, # of connection points: 2
#     Edge 23, Type (0, 1), BuildingBlock: TEMPAE_clean_linker_10, # of connection points: 2
#     Edge 24, Type (0, 1), BuildingBlock: TEMPAE_clean_linker_10, # of connection points: 2
#     Edge 25, Type (0, 1), BuildingBlock: TEMPAE_clean_linker_10, # of connection points: 2
#     Edge 26, Type (0, 1), BuildingBlock: TEMPAE_clean_linker_10, # of connection points: 2
# Relax obj value: 0.134
# Max RMSD: 0.176
# Mean RMSD: 0.126
data_MOF--net-anh--node1-BETDAH_clean_sbu_0--node2-QEWDON_clean_linker_0--edge1-TEMPAE_clean_linker_10
_symmetry_space_group_name_H-M    P1
_symmetry_Int_Tables_number       1
_symmetry_cell_setting            triclinic
loop_
_symmetry_equiv_pos_as_xyz
'x, y, z'
_cell_length_a     32.641716
_cell_length_b     39.758123
_cell_length_c     48.665179
_cell_angle_alpha  96.354126
_cell_angle_beta   91.992355
_cell_angle_gamma 129.66722
loop_
_atom_site_label
_atom_site_type_symbol
_atom_site_fract_x
_atom_site_fract_y
_atom_site_fract_z
_atom_type_partial_charge
Ho0 Ho 0.11824 0.50498 0.13378 0.0
Ho1 Ho 1.06146 0.53449 0.16252 0.0
C2 C 0.17948 0.61173 0.15117 0.0
C3 C 0.1766 0.50022 0.10226 0.0
C4 C 0.23515 0.53184 0.10399 0.0
C5 C 0.26104 0.53011 0.08225 0.0
C6 C 0.31719 0.56033 0.08477 0.0
C7 C 0.34777 0.59275 0.10897 0.0
C8 C 0.32131 0.59514 0.1302 0.0
C9 C 0.26554 0.56482 0.12778 0.0
C10 C 0.1291 0.51489 0.1899 0.0
C11 C 0.99779 0.42803 0.14294 0.0
C12 C 1.00936 0.5405 0.19836 0.0
C13 C 0.95319 0.50899 0.20313 0.0
C14 C 0.93854 0.51196 0.22942 0.0
C15 C 0.88424 0.48473 0.23301 0.0
C16 C 0.84408 0.45449 0.21024 0.0
C17 C 0.8596 0.44909 0.18462 0.0
C18 C 0.91364 0.47611 0.18112 0.0
C19 C 1.05278 0.52775 0.10661 0.0
O20 O 0.17764 0.58027 0.13681 0.0
O21 O 0.14101 0.60236 0.16577 0.0
O22 O 0.15843 0.47925 0.12346 0.0
O23 O 0.15312 0.51571 0.09539 0.0
O24 O 0.12594 0.48469 0.17402 0.0
O25 O 0.13003 0.53949 0.17536 0.0
O26 O 1.00117 0.45952 0.15846 0.0
O27 O 1.03626 0.43757 0.12814 0.0
O28 O 1.01721 0.55565 0.17479 0.0
O29 O 1.03807 0.52908 0.20388 0.0
O30 O 1.05317 0.55594 0.12323 0.0
O31 O 1.05132 0.50193 0.12028 0.0
H32 H 0.23799 0.50508 0.06365 0.0
H33 H 0.33676 0.55787 0.06812 0.0
H34 H 0.34376 0.6191 0.1493 0.0
H35 H 0.24611 0.56648 0.14483 0.0
H36 H 0.96883 0.53659 0.2468 0.0
H37 H 0.87356 0.4894 0.25305 0.0
H38 H 0.83005 0.42679 0.16646 0.0
H39 H 0.92436 0.47293 0.16075 0.0
Ho40 Ho 0.6972 0.07468 0.48149 0.0
Ho41 Ho 0.62268 0.09267 0.46747 0.0
C42 C 0.56725 0.99272 0.46875 0.0
C43 C 0.74196 0.04552 0.50114 0.0
C44 C 0.72342 1.00152 0.5047 0.0
C45 C 0.67525 0.971 0.51538 0.0
C46 C 0.65805 0.92919 0.51808 0.0
C47 C 0.68838 0.91684 0.50993 0.0
C48 C 0.73646 0.94754 0.49912 0.0
C49 C 0.75382 0.98944 0.49664 0.0
C50 C 0.68071 0.07612 0.42714 0.0
C51 C 0.75342 0.17506 0.47976 0.0
C52 C 0.57923 0.12224 0.44698 0.0
C53 C 0.59056 0.16464 0.45402 0.0
C54 C 0.57154 0.17763 0.43521 0.0
C55 C 0.58048 0.21713 0.44248 0.0
C56 C 0.60819 0.24395 0.46878 0.0
C57 C 0.62838 0.23133 0.48725 0.0
C58 C 0.61992 0.19216 0.47987 0.0
C59 C 0.63866 0.09284 0.52223 0.0
O60 O 0.61429 1.00839 0.48144 0.0
O61 O 0.56175 0.01852 0.45735 0.0
O62 O 0.74211 0.05206 0.47542 0.0
O63 O 0.72397 0.06132 0.51668 0.0
O64 O 0.72666 0.09206 0.44008 0.0
O65 O 0.64539 0.05857 0.44324 0.0
O66 O 0.70517 0.15974 0.46949 0.0
O67 O 0.76073 0.14892 0.48897 0.0
O68 O 0.56027 0.09728 0.46625 0.0
O69 O 0.6166 0.1243 0.43595 0.0
O70 O 0.59438 0.08005 0.50924 0.0
O71 O 0.67414 0.10873 0.50612 0.0
H72 H 0.65077 0.97934 0.52162 0.0
H73 H 0.62115 0.9067 0.52676 0.0
H74 H 0.76034 0.93899 0.49207 0.0
H75 H 0.79084 0.01232 0.48813 0.0
H76 H 0.54909 0.1569 0.41511 0.0
H77 H 0.56429 0.22601 0.42792 0.0
H78 H 0.65041 0.25166 0.5075 0.0
H79 H 0.63555 0.18295 0.49454 0.0
Ho80 Ho 0.67697 0.6168 0.83489 0.0
Ho81 Ho 0.59951 0.52132 0.84115 0.0
C82 C 0.54962 0.56925 0.84156 0.0
C83 C 0.72559 0.6925 0.81882 0.0
C84 C 0.7142 0.72222 0.81577 0.0
C85 C 0.74608 0.75708 0.8009 0.0
C86 C 0.73553 0.78554 0.79772 0.0
C87 C 0.69276 0.77943 0.80932 0.0
C88 C 0.6608 0.74422 0.82417 0.0
C89 C 0.67156 0.71595 0.82743 0.0
C90 C 0.67449 0.60174 0.88741 0.0
C91 C 0.72759 0.56933 0.83709 0.0
C92 C 0.5555 0.44523 0.85516 0.0
C93 C 0.567 0.41524 0.84872 0.0
C94 C 0.55066 0.38256 0.8649 0.0
C95 C 0.56163 0.35402 0.85845 0.0
C96 C 0.58879 0.35772 0.83562 0.0
C97 C 0.60598 0.39114 0.81985 0.0
C98 C 0.59539 0.41976 0.82641 0.0
C99 C 0.60391 0.53618 0.78815 0.0
O100 O 0.5953 0.60153 0.83258 0.0
O101 O 0.54426 0.53613 0.84998 0.0
O102 O 0.73304 0.68838 0.84439 0.0
O103 O 0.69521 0.65452 0.80167 0.0
O104 O 0.71849 0.63146 0.8778 0.0
O105 O 0.63426 0.58281 0.86929 0.0
O106 O 0.68047 0.53605 0.84419 0.0
O107 O 0.73454 0.60346 0.82932 0.0
O108 O 0.53563 0.45025 0.83375 0.0
O109 O 0.59359 0.4829 0.87149 0.0
O110 O 0.55997 0.50556 0.79735 0.0
O111 O 0.64327 0.55537 0.8069 0.0
H112 H 0.77923 0.76238 0.79181 0.0
H113 H 0.76125 0.8126 0.78645 0.0
H114 H 0.62707 0.73818 0.83302 0.0
H115 H 0.64662 0.68923 0.83904 0.0
H116 H 0.52915 0.37893 0.88234 0.0
H117 H 0.5478 0.32843 0.87087 0.0
H118 H 0.62766 0.39513 0.80241 0.0
H119 H 0.60905 0.44527 0.81393 0.0
H120 H 0.62347 0.06668 0.20675 0.0
C121 C 0.59169 0.03132 0.19993 0.0
C122 C 0.57696 1.00252 0.21903 0.0
C123 C 0.56447 0.01509 0.17254 0.0
H124 H 0.52434 0.93476 0.22511 0.0
C125 C 0.53508 0.95677 0.21034 0.0
C126 C 0.50563 0.93934 0.18343 0.0
C127 C 0.52133 0.96893 0.16451 0.0
C128 C 0.57825 0.04696 0.15333 0.0
H129 H 0.49919 0.95626 0.14373 0.0
C130 C 0.632 0.08597 0.15321 0.0
C131 C 0.64408 0.11748 0.13648 0.0
C132 C 0.53697 0.03973 0.13608 0.0
H133 H 0.49528 0.01099 0.13605 0.0
C134 C 0.54858 0.07037 0.11937 0.0
H135 H 0.66436 0.09161 0.16596 0.0
C136 C 0.60137 0.10896 0.11968 0.0
H137 H 0.60842 0.13265 0.10715 0.0
H138 H 0.51625 0.06461 0.1065 0.0
H139 H 0.578 0.56379 0.57531 0.0
C140 C 0.58923 0.54569 0.565 0.0
C141 C 0.60886 0.52993 0.58093 0.0
C142 C 0.58033 0.53545 0.53567 0.0
H143 H 0.63707 0.49318 0.57874 0.0
C144 C 0.6215 0.50528 0.56691 0.0
C145 C 0.61145 0.4938 0.53773 0.0
C146 C 0.59123 0.50925 0.52227 0.0
C147 C 0.55619 0.54934 0.51885 0.0
H148 H 0.58363 0.50055 0.49969 0.0
C149 C 0.577 0.59364 0.52308 0.0
C150 C 0.55586 0.60675 0.50561 0.0
C151 C 0.5128 0.51813 0.49769 0.0
H152 H 0.49553 0.48374 0.49426 0.0
C153 C 0.49113 0.53086 0.48079 0.0
H154 H 0.61084 0.61813 0.5391 0.0
C155 C 0.51269 0.57491 0.48454 0.0
H156 H 0.49547 0.58414 0.47103 0.0
H157 H 0.45773 0.50655 0.46457 0.0
H158 H 0.14663 0.55752 0.89596 0.0
C159 C 0.11702 0.55873 0.88686 0.0
C160 C 1.07717 0.5505 0.90283 0.0
C161 C 0.11949 0.56925 0.85984 0.0
H162 H 1.01012 0.54868 0.90485 0.0
C163 C 1.03963 0.55384 0.89207 0.0
C164 C 1.0396 0.56451 0.86557 0.0
C165 C 1.07889 0.57092 0.84916 0.0
C166 C 0.16625 0.58124 0.84403 0.0
H167 H 1.07789 0.57792 0.82845 0.0
C168 C 0.19931 0.56962 0.8501 0.0
C169 C 0.2433 0.58308 0.83496 0.0
C170 C 0.18015 0.60716 0.82298 0.0
H171 H 0.15934 0.61903 0.81803 0.0
C172 C 0.22249 0.61991 0.80819 0.0
H173 H 0.19075 0.54968 0.86593 0.0
C174 C 0.25335 0.60801 0.81396 0.0
H175 H 0.2862 0.61912 0.80207 0.0
H176 H 0.23194 0.63982 0.79216 0.0
H177 H 0.11281 0.53964 0.41077 0.0
C178 C 0.14952 0.57352 0.41757 0.0
C179 C 0.18635 0.59552 0.39863 0.0
C180 C 0.15876 0.59535 0.44477 0.0
H181 H 0.26178 0.65632 0.39261 0.0
C182 C 0.23343 0.63977 0.40726 0.0
C183 C 0.24328 0.66334 0.43392 0.0
C184 C 0.20587 0.64038 0.45269 0.0
C185 C 0.11713 0.57214 0.46399 0.0
H186 H 0.21273 0.65781 0.4733 0.0
C187 C 0.08587 0.52608 0.46425 0.0
C188 C 1.04515 0.50437 0.48165 0.0
C189 C 0.10675 0.59587 0.48149 0.0
H190 H 0.12837 0.63072 0.48137 0.0
C191 C 1.06701 0.57474 0.49881 0.0
H192 H 0.09355 0.50722 0.45122 0.0
C193 C 1.03638 0.52951 0.49887 0.0
H194 H 1.00483 0.514 0.51202 0.0
H195 H 1.05926 0.59344 0.51196 0.0
H196 H 0.62726 0.03922 0.73268 0.0
C197 C 0.62905 0.06586 0.74277 0.0
C198 C 0.646 0.10138 0.72892 0.0
C199 C 0.61171 0.06332 0.76913 0.0
H200 H 0.65662 0.16139 0.73181 0.0
C201 C 0.64693 0.13512 0.74252 0.0
C202 C 0.63164 0.13384 0.76921 0.0
C203 C 0.61455 0.0981 0.78242 0.0
C204 C 0.58587 0.0227 0.7818 0.0
H205 H 0.60247 0.097 0.80299 0.0
C206 C 0.60618 1.00024 0.78096 0.0
C207 C 0.58009 0.96112 0.7924 0.0
C208 C 0.53914 1.00543 0.79423 0.0
H209 H 0.5217 0.02122 0.79467 0.0
C210 C 0.51362 0.96705 0.8058 0.0
H211 H 0.64195 0.013 0.77134 0.0
C212 C 0.53387 0.94503 0.80495 0.0
H213 H 0.51353 0.9155 0.81436 0.0
H214 H 0.47783 0.95421 0.81538 0.0
H215 H 0.68402 0.6157 0.10087 0.0
C216 C 0.67754 0.58751 0.10712 0.0
C217 C 0.66793 0.55429 0.08675 0.0
C218 C 0.68016 0.58541 0.13568 0.0
H219 H 0.65402 0.4927 0.08056 0.0
C220 C 0.65924 0.51785 0.09555 0.0
C221 C 0.65937 0.51443 0.12395 0.0
C222 C 0.66989 0.54827 0.14385 0.0
C223 C 0.6945 0.62248 0.15689 0.0
H224 H 0.67176 0.54627 0.16585 0.0
C225 C 0.67223 0.64242 0.1526 0.0
C226 C 0.68443 0.67701 0.17247 0.0
C227 C 0.73006 0.63811 0.18145 0.0
H228 H 0.74855 0.62382 0.18521 0.0
C229 C 0.74238 0.67267 0.20134 0.0
H230 H 0.64328 0.62967 0.13425 0.0
C231 C 0.71924 0.69185 0.19705 0.0
H232 H 0.72807 0.71786 0.21287 0.0
H233 H 0.76953 0.6843 0.22024 0.0
C234 C 0.43993 0.66513 0.12635 0.0
C235 C 0.40675 0.6202 0.11405 0.0
C236 C 0.49426 0.68891 0.13625 0.0
C237 C 0.51518 0.66681 0.13416 0.0
C238 C 0.48261 0.62226 0.12011 0.0
C239 C 0.42887 0.59963 0.1101 0.0
C240 C 0.52793 0.73664 0.15031 0.0
C241 C 0.50333 0.59735 0.11733 0.0
C242 C 0.65494 0.70725 0.14331 0.0
C243 C 0.6546 0.69265 0.16827 0.0
C244 C 0.61258 0.70543 0.13354 0.0
C245 C 0.56881 0.68755 0.14887 0.0
C246 C 0.57237 0.67894 0.17596 0.0
C247 C 0.6157 0.68183 0.18545 0.0
C248 C 0.61138 0.71696 0.10519 0.0
C249 C 0.52688 0.66046 0.19318 0.0
H250 H 0.42291 0.68121 0.12913 0.0
H251 H 0.4032 0.56482 0.10086 0.0
H252 H 0.52726 0.73807 0.17317 0.0
H253 H 0.57038 0.75644 0.14653 0.0
H254 H 0.51188 0.75221 0.14297 0.0
H255 H 0.47327 0.5634 0.10498 0.0
H256 H 0.54018 0.61561 0.10709 0.0
H257 H 0.51407 0.59453 0.13835 0.0
H258 H 0.68557 0.71602 0.1302 0.0
H259 H 0.61569 0.6706 0.20478 0.0
H260 H 0.59223 0.73204 0.10461 0.0
H261 H 0.5874 0.68627 0.08926 0.0
H262 H 0.65247 0.74024 0.09939 0.0
H263 H 0.51151 0.67851 0.19282 0.0
H264 H 0.53939 0.6624 0.21523 0.0
H265 H 0.49326 0.62511 0.18419 0.0
C266 C 0.79062 0.25251 0.47736 0.0
C267 C 0.79981 0.22309 0.4808 0.0
C268 C 0.83333 0.29774 0.47742 0.0
C269 C 0.88693 0.31427 0.48065 0.0
C270 C 0.8966 0.2848 0.48408 0.0
C271 C 0.853 0.23966 0.48431 0.0
C272 C 0.82095 0.32789 0.47412 0.0
C273 C 0.95301 0.30093 0.48734 0.0
C274 C 0.98887 0.42523 0.4564 0.0
C275 C 1.01005 0.45546 0.48153 0.0
C276 C 0.95049 0.37909 0.45591 0.0
C277 C 0.93253 0.36264 0.4811 0.0
C278 C 0.95552 0.39289 0.50662 0.0
C279 C 0.99406 0.43871 0.50654 0.0
C280 C 0.92748 0.34805 0.42826 0.0
C281 C 0.93768 0.37702 0.53398 0.0
H282 H 0.74979 0.24026 0.47477 0.0
H283 H 0.86056 0.21722 0.48677 0.0
H284 H 0.84117 0.35497 0.49247 0.0
H285 H 0.8368 0.34358 0.45543 0.0
H286 H 0.77715 0.30993 0.47197 0.0
H287 H 0.95385 0.27381 0.48936 0.0
H288 H 0.97275 0.31596 0.46904 0.0
H289 H 0.97718 0.32716 0.50607 0.0
H290 H 1.00054 0.43765 0.43694 0.0
H291 H 1.01091 0.46161 0.52615 0.0
H292 H 0.88466 0.33225 0.42311 0.0
H293 H 0.92891 0.32111 0.4295 0.0
H294 H 0.94934 0.36549 0.411 0.0
H295 H 0.89487 0.36149 0.53391 0.0
H296 H 0.96185 0.40444 0.55217 0.0
H297 H 0.94074 0.35134 0.53672 0.0
C298 C 0.6672 0.82408 0.82827 0.0
C299 C 0.68127 0.80951 0.8059 0.0
C300 C 0.65413 0.851 0.8251 0.0
C301 C 0.65535 0.86385 0.79894 0.0
C302 C 0.67082 0.85021 0.77646 0.0
C303 C 0.68349 0.82311 0.78018 0.0
C304 C 0.63787 0.8649 0.8496 0.0
C305 C 0.67262 0.86328 0.74827 0.0
C306 C 0.56463 0.89037 0.78487 0.0
C307 C 0.60063 0.93682 0.79158 0.0
C308 C 0.58224 0.86634 0.78644 0.0
C309 C 0.63731 0.88932 0.79481 0.0
C310 C 0.67428 0.93629 0.80058 0.0
C311 C 0.65547 0.95954 0.7989 0.0
C312 C 0.54158 0.81627 0.77997 0.0
C313 C 0.73334 0.9619 0.80945 0.0
H314 H 0.66635 0.81438 0.84834 0.0
H315 H 0.69381 0.81164 0.76272 0.0
H316 H 0.66343 0.90154 0.85393 0.0
H317 H 0.59571 0.85087 0.84454 0.0
H318 H 0.64114 0.85366 0.86884 0.0
H319 H 0.68904 0.85255 0.73353 0.0
H320 H 0.63153 0.84812 0.73902 0.0
H321 H 0.69764 0.89978 0.75052 0.0
H322 H 0.52234 0.8727 0.77871 0.0
H323 H 0.68341 0.99542 0.80427 0.0
H324 H 0.53959 0.80251 0.799 0.0
H325 H 0.554 0.80357 0.76385 0.0
H326 H 0.50071 0.80358 0.77245 0.0
H327 H 0.7391 0.95496 0.83005 0.0
H328 H 0.75736 0.99827 0.8111 0.0
H329 H 0.7492 0.95111 0.79437 0.0
C330 C 0.74511 0.39714 0.19382 0.0
C331 C 0.78843 0.43773 0.21041 0.0
C332 C 0.70039 0.39111 0.18227 0.0
C333 C 0.70047 0.42685 0.18705 0.0
C334 C 0.73799 0.46331 0.20857 0.0
C335 C 0.78161 0.46817 0.22021 0.0
C336 C 0.65736 0.34935 0.16197 0.0
C337 C 0.73764 0.50106 0.21581 0.0
C338 C 0.6969 0.47712 0.12744 0.0
C339 C 0.65745 0.47967 0.13368 0.0
C340 C 0.70739 0.4551 0.14282 0.0
C341 C 0.67653 0.43426 0.16454 0.0
C342 C 0.63148 0.43124 0.168 0.0
C343 C 0.62312 0.45494 0.1529 0.0
C344 C 0.75572 0.45901 0.13795 0.0
C345 C 0.59458 0.40628 0.18908 0.0
H346 H 0.74891 0.37237 0.18725 0.0
H347 H 0.81398 0.49906 0.23373 0.0
H348 H 0.61873 0.34279 0.16077 0.0
H349 H 0.66992 0.35278 0.14086 0.0
H350 H 0.65113 0.32043 0.1681 0.0
H351 H 0.76672 0.52493 0.23458 0.0
H352 H 0.74821 0.5193 0.19803 0.0
H353 H 0.69704 0.48811 0.21977 0.0
H354 H 0.72316 0.49612 0.11244 0.0
H355 H 0.59171 0.45618 0.15725 0.0
H356 H 0.7442 0.42579 0.13443 0.0
H357 H 0.78681 0.47902 0.1566 0.0
H358 H 0.77404 0.47502 0.11963 0.0
H359 H 0.59951 0.38359 0.19667 0.0
H360 H 0.55212 0.3866 0.1797 0.0
H361 H 0.60242 0.4302 0.20713 0.0
C362 C 0.46824 0.93018 0.46613 0.0
C363 C 0.52033 0.94477 0.46644 0.0
C364 C 0.42338 0.88478 0.46365 0.0
C365 C 0.43046 0.85295 0.46025 0.0
C366 C 0.48316 0.86764 0.46078 0.0
C367 C 0.52747 0.91337 0.46437 0.0
C368 C 0.36829 0.87087 0.46438 0.0
C369 C 0.49269 0.83504 0.45638 0.0
C370 C 0.31732 0.7327 0.46878 0.0
C371 C 0.29117 0.71222 0.44122 0.0
C372 C 0.36195 0.77851 0.47544 0.0
C373 C 0.38255 0.80441 0.45395 0.0
C374 C 0.35687 0.78402 0.42615 0.0
C375 C 0.311 0.73885 0.4203 0.0
C376 C 0.38684 0.79924 0.50553 0.0
C377 C 0.37798 0.80991 0.40239 0.0
H378 H 0.4626 0.95438 0.46815 0.0
H379 H 0.56768 0.92448 0.46457 0.0
H380 H 0.344 0.8531 0.44351 0.0
H381 H 0.34692 0.84762 0.47934 0.0
H382 H 0.37021 0.89966 0.47045 0.0
H383 H 0.53615 0.85179 0.45838 0.0
H384 H 0.4741 0.81212 0.47168 0.0
H385 H 0.47336 0.81454 0.43526 0.0
H386 H 0.30333 0.71303 0.48527 0.0
H387 H 0.29056 0.72465 0.3991 0.0
H388 H 0.38885 0.82807 0.51152 0.0
H389 H 0.4286 0.81181 0.50826 0.0
H390 H 0.36391 0.77539 0.52001 0.0
H391 H 0.37422 0.83586 0.40493 0.0
H392 H 0.35609 0.78843 0.3817 0.0
H393 H 0.42128 0.82695 0.40259 0.0
C394 C 0.58478 0.3055 0.79964 0.0
C395 C 0.59771 0.32599 0.82756 0.0
C396 C 0.59228 0.27503 0.79148 0.0
C397 C 0.61375 0.26512 0.81169 0.0
C398 C 0.62743 0.28606 0.8399 0.0
C399 C 0.61887 0.31607 0.84755 0.0
C400 C 0.57656 0.253 0.76125 0.0
C401 C 0.65103 0.27671 0.86195 0.0
C402 C 0.58272 0.15507 0.79316 0.0
C403 C 0.6291 0.16796 0.78218 0.0
C404 C 0.57785 0.18653 0.80359 0.0
C405 C 0.62055 0.23201 0.80321 0.0
C406 C 0.6682 0.24537 0.793 0.0
C407 C 0.67178 0.21312 0.78244 0.0
C408 C 0.52617 0.17091 0.81403 0.0
C409 C 0.71481 0.29361 0.79255 0.0
H410 H 0.56784 0.31276 0.78421 0.0
H411 H 0.62933 0.33222 0.8691 0.0
H412 H 0.61181 0.25991 0.75264 0.0
H413 H 0.54545 0.21649 0.75961 0.0
H414 H 0.5606 0.26451 0.74814 0.0
H415 H 0.66084 0.29662 0.88279 0.0
H416 H 0.62229 0.24103 0.86359 0.0
H417 H 0.68817 0.28408 0.85594 0.0
H418 H 0.54938 0.12014 0.79267 0.0
H419 H 0.70785 0.22316 0.77418 0.0
H420 H 0.50589 0.17838 0.80038 0.0
H421 H 0.53473 0.18887 0.8354 0.0
H422 H 0.49805 0.13471 0.81438 0.0
H423 H 0.70272 0.30626 0.7779 0.0
H424 H 0.7505 0.2988 0.78599 0.0
H425 H 0.72642 0.31372 0.81353 0.0
C426 C 0.70673 0.86638 0.5197 0.0
C427 C 0.66968 0.87194 0.51219 0.0
C428 C 0.69007 0.82407 0.5204 0.0
C429 C 0.63486 0.78631 0.51389 0.0
C430 C 0.59701 0.79173 0.50718 0.0
C431 C 0.61488 0.83436 0.5062 0.0
C432 C 0.73175 0.81969 0.52739 0.0
C433 C 0.5377 0.75235 0.50032 0.0
C434 C 0.59377 0.67449 0.48497 0.0
C435 C 0.57928 0.65369 0.50848 0.0
C436 C 0.61296 0.71794 0.48664 0.0
C437 C 0.617 0.74097 0.51238 0.0
C438 C 0.60312 0.72033 0.53632 0.0
C439 C 0.58484 0.67698 0.53414 0.0
C440 C 0.62832 0.73899 0.46075 0.0
C441 C 0.60622 0.74359 0.56402 0.0
H442 H 0.74901 0.89517 0.52493 0.0
H443 H 0.58589 0.83804 0.50001 0.0
H444 H 0.72181 0.80144 0.54508 0.0
H445 H 0.73176 0.80015 0.50925 0.0
H446 H 0.77285 0.85241 0.53295 0.0
H447 H 0.51315 0.76243 0.49757 0.0
H448 H 0.53019 0.73086 0.48079 0.0
H449 H 0.52388 0.73207 0.51715 0.0
H450 H 0.58996 0.65661 0.46518 0.0
H451 H 0.57328 0.66075 0.55227 0.0
H452 H 0.67024 0.77093 0.46486 0.0
H453 H 0.60199 0.74642 0.45498 0.0
H454 H 0.62496 0.7173 0.44267 0.0
H455 H 0.64738 0.77587 0.5704 0.0
H456 H 0.59539 0.72349 0.5808 0.0
H457 H 0.57858 0.75073 0.562 0.0
C458 C 0.82292 0.6014 0.82914 0.0
C459 C 0.77351 0.5682 0.83807 0.0
C460 C 0.8666 0.60144 0.83079 0.0
C461 C 0.86205 0.56768 0.84191 0.0
C462 C 0.81197 0.53371 0.85056 0.0
C463 C 0.76881 0.53428 0.84848 0.0
C464 C 0.91825 0.63826 0.82096 0.0
C465 C 0.80423 0.49699 0.86272 0.0
C466 C 0.96395 0.54806 0.83146 0.0
C467 C 0.99864 0.56983 0.85697 0.0
C468 C 0.9204 0.54777 0.82596 0.0
C469 C 0.91039 0.5696 0.84636 0.0
C470 C 0.94652 0.59284 0.87165 0.0
C471 C 0.98966 0.59289 0.87646 0.0
C472 C 0.884 0.52289 0.79852 0.0
C473 C 0.93872 0.61679 0.89426 0.0
H474 H 0.82778 0.62783 0.82093 0.0
H475 H 0.73136 0.50823 0.85549 0.0
H476 H 0.95087 0.65864 0.83891 0.0
H477 H 0.93043 0.62418 0.80577 0.0
H478 H 0.91467 0.66027 0.81101 0.0
H479 H 0.76242 0.47167 0.86708 0.0
H480 H 0.81421 0.48038 0.84818 0.0
H481 H 0.83202 0.51117 0.88247 0.0
H482 H 0.9695 0.52975 0.81617 0.0
H483 H 1.01604 0.61042 0.89616 0.0
H484 H 0.88 0.54455 0.78843 0.0
H485 H 0.84324 0.49411 0.80222 0.0
H486 H 0.899 0.51063 0.78393 0.0
H487 H 0.93841 0.64148 0.8859 0.0
H488 H 0.97064 0.63415 0.91252 0.0
H489 H 0.89923 0.59275 0.90148 0.0
C490 C 0.22138 0.69058 0.15066 0.0
C491 C 0.22733 0.65886 0.15202 0.0
C492 C 0.26644 0.73576 0.15252 0.0
C493 C 0.31884 0.74987 0.15707 0.0
C494 C 0.32496 0.71774 0.15812 0.0
C495 C 0.27909 0.67253 0.15504 0.0
C496 C 0.25788 0.7685 0.1502 0.0
C497 C 0.37985 0.73124 0.1638 0.0
C498 C 0.44195 0.86714 0.14868 0.0
C499 C 0.4572 0.89073 0.17603 0.0
C500 C 0.39664 0.82153 0.14202 0.0
C501 C 0.36675 0.79837 0.16333 0.0
C502 C 0.38203 0.82177 0.19091 0.0
C503 C 0.42583 0.86752 0.19672 0.0
C504 C 0.38054 0.79821 0.11213 0.0
C505 C 0.35219 0.79845 0.21448 0.0
H506 H 0.18134 0.67998 0.14798 0.0
H507 H 0.28375 0.64807 0.15626 0.0
H508 H 0.27019 0.78971 0.1708 0.0
H509 H 0.28316 0.79066 0.13537 0.0
H510 H 0.21522 0.75174 0.14308 0.0
H511 H 0.37775 0.70224 0.16387 0.0
H512 H 0.40495 0.75018 0.14783 0.0
H513 H 0.4005 0.75338 0.18437 0.0
H514 H 0.46557 0.8841 0.13242 0.0
H515 H 0.43512 0.88505 0.2177 0.0
H516 H 0.33788 0.78156 0.10521 0.0
H517 H 0.384 0.77209 0.11043 0.0
H518 H 0.4058 0.82138 0.09771 0.0
H519 H 0.31045 0.78582 0.21094 0.0
H520 H 0.37171 0.82063 0.23512 0.0
H521 H 0.3498 0.76944 0.21519 0.0
C522 C 0.63172 0.31523 0.46011 0.0
C523 C 0.6136 0.28372 0.47757 0.0
C524 C 0.63567 0.35238 0.46818 0.0
C525 C 0.62014 0.35758 0.49407 0.0
C526 C 0.602 0.32587 0.51178 0.0
C527 C 0.59934 0.28954 0.5034 0.0
C528 C 0.65609 0.3859 0.44898 0.0
C529 C 0.58428 0.32977 0.53936 0.0
C530 C 0.6631 0.46734 0.53044 0.0
C531 C 0.61679 0.46183 0.52382 0.0
C532 C 0.66588 0.43463 0.51973 0.0
C533 C 0.62088 0.39518 0.50243 0.0
C534 C 0.57471 0.39017 0.49495 0.0
C535 C 0.57338 0.4237 0.50559 0.0
C536 C 0.71619 0.44157 0.52776 0.0
C537 C 0.5256 0.3484 0.47689 0.0
H538 H 0.64316 0.31094 0.44022 0.0
H539 H 0.58473 0.26494 0.51679 0.0
H540 H 0.62415 0.38684 0.44205 0.0
H541 H 0.69056 0.41955 0.4603 0.0
H542 H 0.66903 0.3782 0.43023 0.0
H543 H 0.57158 0.30246 0.55077 0.0
H544 H 0.61747 0.36183 0.55281 0.0
H545 H 0.55017 0.32935 0.53581 0.0
H546 H 0.69683 0.49695 0.54439 0.0
H547 H 0.53727 0.41911 0.50071 0.0
H548 H 0.72966 0.43476 0.50894 0.0
H549 H 0.7076 0.41799 0.54163 0.0
H550 H 0.74953 0.47584 0.53882 0.0
H551 H 0.53675 0.34097 0.45728 0.0
H552 H 0.49436 0.3509 0.47151 0.0
H553 H 0.50795 0.31993 0.48803 0.0
C554 C 0.50783 0.60541 0.83474 0.0
C555 C 0.50367 0.57032 0.84258 0.0
C556 C 0.46484 0.60623 0.83532 0.0
C557 C 0.41524 0.571 0.84379 0.0
C558 C 0.41096 0.53565 0.85188 0.0
C559 C 0.45465 0.53579 0.85125 0.0
C560 C 0.47247 0.64493 0.82655 0.0
C561 C 0.3596 0.49706 0.86092 0.0
C562 C 0.31616 0.59019 0.86445 0.0
C563 C 0.28045 0.57268 0.83961 0.0
C564 C 0.35914 0.58918 0.86635 0.0
C565 C 0.36741 0.57015 0.84292 0.0
C566 C 0.3301 0.55096 0.8182 0.0
C567 C 0.28794 0.55268 0.81684 0.0
C568 C 0.39718 0.61021 0.89323 0.0
C569 C 0.33577 0.52978 0.79261 0.0
H570 H 0.54486 0.63244 0.82795 0.0
H571 H 0.45003 0.50828 0.85741 0.0
H572 H 0.44341 0.63311 0.80778 0.0
H573 H 0.46422 0.66034 0.84334 0.0
H574 H 0.51377 0.6707 0.82171 0.0
H575 H 0.36267 0.47277 0.86747 0.0
H576 H 0.34898 0.50917 0.87856 0.0
H577 H 0.32615 0.47973 0.84351 0.0
H578 H 0.3122 0.60674 0.88204 0.0
H579 H 0.2615 0.53954 0.79735 0.0
H580 H 0.4378 0.63944 0.88969 0.0
H581 H 0.40079 0.58652 0.90032 0.0
H582 H 0.38395 0.62112 0.9101 0.0
H583 H 0.37405 0.55521 0.78484 0.0
H584 H 0.30215 0.51412 0.77551 0.0
H585 H 0.33733 0.50416 0.79793 0.0
C586 C 0.90044 0.3715 0.14807 0.0
C587 C 0.94812 0.3811 0.14156 0.0
C588 C 0.85298 0.32763 0.14723 0.0
C589 C 0.85313 0.29216 0.14026 0.0
C590 C 0.90131 0.30159 0.13399 0.0
C591 C 0.94805 0.34589 0.13439 0.0
C592 C 0.80242 0.31926 0.15348 0.0
C593 C 0.90356 0.26489 0.12706 0.0
C594 C 0.73624 0.18343 0.16199 0.0
C595 C 0.70032 0.16002 0.13701 0.0
C596 C 0.78709 0.22556 0.1631 0.0
C597 C 0.80229 0.2453 0.13879 0.0
C598 C 0.76707 0.22127 0.11335 0.0
C599 C 0.7171 0.1789 0.1127 0.0
C600 C 0.8238 0.24962 0.19055 0.0
C601 C 0.78117 0.24108 0.08698 0.0
H602 H 0.89989 0.39835 0.15346 0.0
H603 H 0.98481 0.35301 0.12959 0.0
H604 H 0.77043 0.29761 0.13533 0.0
H605 H 0.7875 0.30164 0.17153 0.0
H606 H 0.80885 0.35042 0.15828 0.0
H607 H 0.94446 0.27775 0.12366 0.0
H608 H 0.89081 0.24535 0.14425 0.0
H609 H 0.8752 0.24182 0.10796 0.0
H610 H 0.72396 0.16965 0.18099 0.0
H611 H 0.6906 0.16086 0.09308 0.0
H612 H 0.82718 0.2787 0.19836 0.0
H613 H 0.86479 0.26227 0.1877 0.0
H614 H 0.80891 0.22801 0.20668 0.0
H615 H 0.78505 0.27113 0.08991 0.0
H616 H 0.75041 0.21749 0.06864 0.0
H617 H 0.8205 0.2516 0.08234 0.0
C618 C 1.05863 0.55869 0.06364 0.0
C619 C 1.05591 0.52747 0.07633 0.0
C620 C 1.06306 0.5599 0.03511 0.0
C621 C 1.06589 0.52969 0.01893 0.0
C622 C 1.06343 0.4982 0.0317 0.0
C623 C 1.05753 0.49698 0.06016 0.0
C624 C 1.06435 0.59339 0.02223 0.0
C625 C 1.06734 0.466 0.01535 0.0
C626 C 1.02575 0.50933 0.94089 0.0
C627 C 1.07544 0.54056 0.93171 0.0
C628 C 1.02223 0.50438 0.96903 0.0
C629 C 1.06968 0.53045 0.9885 0.0
C630 C 0.12026 0.55979 0.97908 0.0
C631 C 0.12255 0.56479 0.95085 0.0
C632 C 0.96743 0.47297 0.97814 0.0
C633 C 0.17188 0.58743 -0.00093 0.0
H634 H 1.05717 0.58222 0.07604 0.0
H635 H 1.05471 0.4724 0.06981 0.0
H636 H 0.10238 0.61558 0.01334 0.0
H637 H 1.03088 0.57608 0.00482 0.0
H638 H 1.06093 0.61408 0.03757 0.0
H639 H 1.0677 0.44524 0.0287 0.0
H640 H 1.03287 0.44385 -0.00158 0.0
H641 H 0.10449 0.48434 0.00532 0.0
H642 H 0.98919 0.48965 0.92616 0.0
H643 H 0.16113 0.58914 0.94409 0.0
H644 H 0.96011 0.49218 -0.00787 0.0
H645 H 0.96545 0.44998 0.99019 0.0
H646 H 0.93468 0.45309 0.96019 0.0
H647 H 0.17513 0.61314 0.01322 0.0
H648 H 0.2078 0.60422 0.98802 0.0
H649 H 0.17204 0.56647 0.01228 0.0
C650 C 0.61607 0.04336 0.38355 0.0
C651 C 0.66925 0.07109 0.39669 0.0
C652 C 0.60448 0.03559 0.35438 0.0
C653 C 0.64717 0.05661 0.33806 0.0
C654 C 0.70101 0.08597 0.35136 0.0
C655 C 0.71141 0.09264 0.38055 0.0
C656 C 0.54652 1.00383 0.34099 0.0
C657 C 0.74756 0.10957 0.33471 0.0
C658 C 0.61307 0.99777 0.26348 0.0
C659 C 0.60172 0.02004 0.24884 0.0
C660 C 0.62931 1.01013 0.29242 0.0
C661 C 0.63517 0.04609 0.30706 0.0
C662 C 0.62654 0.0702 0.29222 0.0
C663 C 0.6096 0.05673 0.26332 0.0
C664 C 0.63806 0.98352 0.30748 0.0
C665 C 0.63305 0.1091 0.30705 0.0
H666 H 0.58341 0.02674 0.39601 0.0
H667 H 0.7526 0.11438 0.39074 0.0
H668 H 0.53868 0.02036 0.32746 0.0
H669 H 0.53813 0.97513 0.32749 0.0
H670 H 0.51809 0.99122 0.35667 0.0
H671 H 0.78691 0.13362 0.34829 0.0
H672 H 0.74751 0.08498 0.32145 0.0
H673 H 0.74336 0.12753 0.32055 0.0
H674 H 0.60799 0.96989 0.25238 0.0
H675 H 0.60036 0.07385 0.25228 0.0
H676 H 0.60821 0.96694 0.32223 0.0
H677 H 0.67852 1.00572 0.31997 0.0
H678 H 0.63417 0.95778 0.2929 0.0
H679 H 0.60133 0.09725 0.32071 0.0
H680 H 0.63022 0.12708 0.29221 0.0
H681 H 0.67238 0.13275 0.32061 0.0
C682 C 0.56221 0.52562 0.74071 0.0
C683 C 0.608 0.54224 0.75873 0.0
C684 C 0.56451 0.5285 0.71224 0.0
C685 C 0.6135 0.54746 0.70146 0.0
C686 C 0.66027 0.56548 0.7198 0.0
C687 C 0.65708 0.56312 0.74833 0.0
C688 C 0.51404 0.50985 0.69352 0.0
C689 C 0.71298 0.58513 0.70909 0.0
C690 C 0.59854 0.50132 0.62589 0.0
C691 C 0.61189 0.53568 0.61202 0.0
C692 C 0.60044 0.50542 0.65496 0.0
C693 C 0.61431 0.54426 0.67073 0.0
C694 C 0.62732 0.57898 0.65703 0.0
C695 C 0.62649 0.57448 0.62787 0.0
C696 C 0.58691 0.46778 0.66876 0.0
C697 C 0.6413 0.62054 0.67313 0.0
H698 H 0.52438 0.50994 0.74884 0.0
H699 H 0.69255 0.57604 0.76231 0.0
H700 H 0.52226 0.53419 0.68043 0.0
H701 H 0.50012 0.47964 0.6792 0.0
H702 H 0.48102 0.50095 0.70558 0.0
H703 H 0.74647 0.60085 0.72628 0.0
H704 H 0.70911 0.55865 0.69551 0.0
H705 H 0.72348 0.6103 0.69618 0.0
H706 H 0.58553 0.47058 0.614 0.0
H707 H 0.63733 0.60142 0.61752 0.0
H708 H 0.54997 0.45313 0.67863 0.0
H709 H 0.6198 0.48036 0.68552 0.0
H710 H 0.58036 0.44109 0.65373 0.0
H711 H 0.60728 0.61182 0.68414 0.0
H712 H 0.65056 0.64454 0.65941 0.0
H713 H 0.67651 0.63702 0.68928 0.0
C714 C 0.69281 0.10485 0.56593 0.0
C715 C 0.64836 0.09772 0.55285 0.0
C716 C 0.69905 0.10573 0.59483 0.0
C717 C 0.66155 0.10196 0.61111 0.0
C718 C 0.61818 0.09711 0.59809 0.0
C719 C 0.6115 0.09407 0.56909 0.0
C720 C 0.74461 0.10923 0.60775 0.0
C721 C 0.57845 0.09478 0.61476 0.0
C722 C 0.62962 0.06152 0.68033 0.0
C723 C 0.65753 0.10148 0.69936 0.0
C724 C 0.63458 0.0614 0.65179 0.0
C725 C 0.66622 0.10205 0.64167 0.0
C726 C 0.69663 0.14249 0.66075 0.0
C727 C 0.69301 0.14168 0.68937 0.0
C728 C 0.60321 0.01753 0.63223 0.0
C729 C 0.7297 0.18661 0.65084 0.0
H730 H 0.72201 0.10875 0.55355 0.0
H731 H 0.57742 0.08919 0.55914 0.0
H732 H 0.77005 0.13849 0.62468 0.0
H733 H 0.72811 0.07949 0.61733 0.0
H734 H 0.77033 0.11197 0.59221 0.0
H735 H 0.54998 0.09505 0.60181 0.0
H736 H 0.5549 0.06399 0.62389 0.0
H737 H 0.60001 0.12323 0.6323 0.0
H738 H 0.60165 0.03004 0.68729 0.0
H739 H 0.71651 0.17287 0.70377 0.0
H740 H 0.62811 0.01897 0.61665 0.0
H741 H 0.56761 1.00999 0.62065 0.0
H742 H 0.58902 0.98987 0.64364 0.0
H743 H 0.75562 0.1887 0.63576 0.0
H744 H 0.75545 0.21501 0.66836 0.0
H745 H 0.70239 0.18992 0.63981 0.0
C746 C 0.71035 0.59011 0.9277 0.0
C747 C 0.67175 0.59107 0.91553 0.0
C748 C 0.70827 0.58013 0.95465 0.0
C749 C 0.66812 0.57311 0.97008 0.0
C750 C 0.62893 0.57397 0.95769 0.0
C751 C 0.63052 0.58194 0.93023 0.0
C752 C 0.74923 0.57748 0.96666 0.0
C753 C 0.58672 0.5683 0.97379 0.0
C754 C 0.63637 0.52104 0.0355 0.0
C755 C 0.66893 0.55868 0.05661 0.0
C756 C 0.63704 0.5251 0.00717 0.0
C757 C 0.66918 0.56782 -0.00023 0.0
C758 C 0.70187 0.60588 0.02083 0.0
C759 C 0.70245 0.60083 0.04883 0.0
C760 C 0.6032 0.48371 0.98519 0.0
C761 C 0.73572 0.6521 0.01386 0.0
H762 H 0.74165 0.59649 0.91597 0.0
H763 H 0.60076 0.58276 0.92061 0.0
H764 H 0.77659 0.60541 0.98419 0.0
H765 H 0.72888 0.54628 0.97517 0.0
H766 H 0.7738 0.57881 0.95087 0.0
H767 H 0.55904 0.56962 0.96102 0.0
H768 H 0.56266 0.53615 0.98135 0.0
H769 H 0.60647 0.59486 -0.00756 0.0
H770 H 0.60976 0.48827 0.041 0.0
H771 H 0.72942 0.63025 0.0646 0.0
H772 H 0.62811 0.48552 0.96947 0.0
H773 H 0.57075 0.48096 0.97401 0.0
H774 H 0.58458 0.45316 -0.00575 0.0
H775 H 0.76644 0.65785 0.00104 0.0
H776 H 0.75653 0.6782 0.03282 0.0
H777 H 0.71012 0.65578 0.00133 0.0
C778 C 0.1255 0.48975 0.23534 0.0
C779 C 0.13517 0.52209 0.22068 0.0
C780 C 0.13094 0.49655 0.26468 0.0
C781 C 0.14717 0.53688 0.27955 0.0
C782 C 0.15705 0.56961 0.26473 0.0
C783 C 0.15062 0.56169 0.23548 0.0
C784 C 0.11925 0.46064 0.27975 0.0
C785 C 0.17489 0.61323 0.27976 0.0
C786 C 0.12265 0.55078 0.35404 0.0
C787 C 0.17393 0.57417 0.36894 0.0
C788 C 0.11249 0.53615 0.32509 0.0
C789 C 0.15475 0.54558 0.31063 0.0
C790 C 0.20581 0.56715 0.32573 0.0
C791 C 0.21465 0.58088 0.35471 0.0
C792 C 1.0573 0.51278 0.30978 0.0
C793 C 0.25202 0.57799 0.31109 0.0
H794 H 0.11324 0.45901 0.22387 0.0
H795 H 0.15822 0.58679 0.22416 0.0
H796 H 0.15569 0.47344 0.29372 0.0
H797 H 0.0875 0.45061 0.2931 0.0
H798 H 0.10592 0.43083 0.26512 0.0
H799 H 0.18131 0.6353 0.26512 0.0
H800 H 0.14432 0.60721 0.29283 0.0
H801 H 0.21292 0.6308 0.29393 0.0
H802 H 0.09103 0.54578 0.36474 0.0
H803 H 0.2541 0.59819 0.36613 0.0
H804 H 1.04323 0.4826 0.29536 0.0
H805 H 1.05907 0.53498 0.29695 0.0
H806 H 1.0273 0.50312 0.3243 0.0
H807 H 0.23985 0.54798 0.29733 0.0
H808 H 0.28784 0.59159 0.32603 0.0
H809 H 0.26358 0.60285 0.29765 0.0
loop_
_geom_bond_atom_site_label_1
_geom_bond_atom_site_label_2
_geom_bond_distance
_geom_bond_site_symmetry_2
_ccdc_geom_bond_type
Ho0 C3 2.811 . S
Ho0 O20 2.322 . S
Ho0 O22 2.378 . S
Ho0 O23 2.524 . S
Ho0 O24 2.381 . S
Ho0 O25 2.669 . S
Ho0 O27 2.346 1_455 S
Ho0 O31 2.305 . S
Ho1 C12 2.811 1_455 S
Ho1 O21 2.346 . S
Ho1 O25 2.305 . S
Ho1 O26 2.322 1_455 S
Ho1 O28 2.378 1_455 S
Ho1 O29 2.524 1_455 S
Ho1 O30 2.381 . S
Ho1 O31 2.669 . S
C2 O20 1.259 . S
C2 O21 1.268 . S
C3 Ho0 2.811 . S
C3 C4 1.488 . S
C3 O22 1.215 . S
C3 O23 1.289 . S
C4 C3 1.488 . S
C4 C5 1.348 . S
C4 C9 1.413 . S
C5 C4 1.348 . S
C5 C6 1.442 . S
C5 H32 0.930 . S
C6 C5 1.442 . S
C6 C7 1.381 . S
C6 H33 0.931 . S
C7 C6 1.381 . S
C7 C8 1.321 . S
C8 C7 1.321 . S
C8 C9 1.403 . S
C8 H34 0.934 . S
C9 C4 1.413 . S
C9 C8 1.403 . S
C9 H35 0.930 . S
C10 O24 1.275 . S
C10 O25 1.256 . S
C11 O26 1.259 . S
C11 O27 1.268 . S
C12 Ho1 2.811 1_655 S
C12 C13 1.488 . S
C12 O28 1.215 . S
C12 O29 1.289 . S
C13 C12 1.488 . S
C13 C14 1.348 . S
C13 C18 1.413 . S
C14 C13 1.348 . S
C14 C15 1.442 . S
C14 H36 0.930 . S
C15 C14 1.442 . S
C15 C16 1.381 . S
C15 H37 0.931 . S
C16 C15 1.381 . S
C16 C17 1.321 . S
C17 C16 1.321 . S
C17 C18 1.403 . S
C17 H38 0.934 . S
C18 C13 1.413 . S
C18 C17 1.403 . S
C18 H39 0.930 . S
C19 O30 1.275 . S
C19 O31 1.256 . S
O20 Ho0 2.322 . S
O20 C2 1.259 . S
O21 Ho1 2.346 . S
O21 C2 1.268 . S
O22 Ho0 2.378 . S
O22 C3 1.215 . S
O23 Ho0 2.524 . S
O23 C3 1.289 . S
O24 Ho0 2.381 . S
O24 C10 1.275 . S
O25 Ho0 2.669 . S
O25 Ho1 2.305 . S
O25 C10 1.256 . S
O26 Ho1 2.322 1_655 S
O26 C11 1.259 . S
O27 Ho0 2.346 1_655 S
O27 C11 1.268 . S
O28 Ho1 2.378 1_655 S
O28 C12 1.215 . S
O29 Ho1 2.524 1_655 S
O29 C12 1.289 . S
O30 Ho1 2.381 . S
O30 C19 1.275 . S
O31 Ho0 2.305 . S
O31 Ho1 2.669 . S
O31 C19 1.256 . S
H32 C5 0.930 . S
H33 C6 0.931 . S
H34 C8 0.934 . S
H35 C9 0.930 . S
H36 C14 0.930 . S
H37 C15 0.931 . S
H38 C17 0.934 . S
H39 C18 0.930 . S
Ho40 C43 2.811 1_545 S
Ho40 O60 2.322 1_545 S
Ho40 O62 2.378 1_545 S
Ho40 O63 2.524 1_545 S
Ho40 O64 2.381 . S
Ho40 O65 2.669 . S
Ho40 O67 2.346 . S
Ho40 O71 2.305 . S
Ho41 C52 2.811 . S
Ho41 O61 2.346 1_545 S
Ho41 O65 2.305 . S
Ho41 O66 2.322 . S
Ho41 O68 2.378 . S
Ho41 O69 2.524 . S
Ho41 O70 2.381 . S
Ho41 O71 2.669 . S
C42 O60 1.259 . S
C42 O61 1.268 . S
C43 Ho40 2.811 1_565 S
C43 C44 1.488 . S
C43 O62 1.215 . S
C43 O63 1.289 . S
C44 C43 1.488 . S
C44 C45 1.348 . S
C44 C49 1.413 . S
C45 C44 1.348 . S
C45 C46 1.442 . S
C45 H72 0.930 . S
C46 C45 1.442 . S
C46 C47 1.381 . S
C46 H73 0.931 . S
C47 C46 1.381 . S
C47 C48 1.321 . S
C48 C47 1.321 . S
C48 C49 1.403 . S
C48 H74 0.934 . S
C49 C44 1.413 . S
C49 C48 1.403 . S
C49 H75 0.930 . S
C50 O64 1.275 . S
C50 O65 1.256 . S
C51 O66 1.259 . S
C51 O67 1.268 . S
C52 Ho41 2.811 . S
C52 C53 1.488 . S
C52 O68 1.215 . S
C52 O69 1.289 . S
C53 C52 1.488 . S
C53 C54 1.348 . S
C53 C58 1.413 . S
C54 C53 1.348 . S
C54 C55 1.442 . S
C54 H76 0.930 . S
C55 C54 1.442 . S
C55 C56 1.381 . S
C55 H77 0.931 . S
C56 C55 1.381 . S
C56 C57 1.321 . S
C57 C56 1.321 . S
C57 C58 1.403 . S
C57 H78 0.934 . S
C58 C53 1.413 . S
C58 C57 1.403 . S
C58 H79 0.930 . S
C59 O70 1.275 . S
C59 O71 1.256 . S
O60 Ho40 2.322 1_565 S
O60 C42 1.259 . S
O61 Ho41 2.346 1_565 S
O61 C42 1.268 . S
O62 Ho40 2.378 1_565 S
O62 C43 1.215 . S
O63 Ho40 2.524 1_565 S
O63 C43 1.289 . S
O64 Ho40 2.381 . S
O64 C50 1.275 . S
O65 Ho40 2.669 . S
O65 Ho41 2.305 . S
O65 C50 1.256 . S
O66 Ho41 2.322 . S
O66 C51 1.259 . S
O67 Ho40 2.346 . S
O67 C51 1.268 . S
O68 Ho41 2.378 . S
O68 C52 1.215 . S
O69 Ho41 2.524 . S
O69 C52 1.289 . S
O70 Ho41 2.381 . S
O70 C59 1.275 . S
O71 Ho40 2.305 . S
O71 Ho41 2.669 . S
O71 C59 1.256 . S
H72 C45 0.930 . S
H73 C46 0.931 . S
H74 C48 0.934 . S
H75 C49 0.930 . S
H76 C54 0.930 . S
H77 C55 0.931 . S
H78 C57 0.934 . S
H79 C58 0.930 . S
Ho80 C83 2.811 . S
Ho80 O100 2.322 . S
Ho80 O102 2.378 . S
Ho80 O103 2.524 . S
Ho80 O104 2.381 . S
Ho80 O105 2.669 . S
Ho80 O107 2.346 . S
Ho80 O111 2.305 . S
Ho81 C92 2.811 . S
Ho81 O101 2.346 . S
Ho81 O105 2.305 . S
Ho81 O106 2.322 . S
Ho81 O108 2.378 . S
Ho81 O109 2.524 . S
Ho81 O110 2.381 . S
Ho81 O111 2.669 . S
C82 O100 1.259 . S
C82 O101 1.268 . S
C83 Ho80 2.811 . S
C83 C84 1.488 . S
C83 O102 1.215 . S
C83 O103 1.289 . S
C84 C83 1.488 . S
C84 C85 1.348 . S
C84 C89 1.413 . S
C85 C84 1.348 . S
C85 C86 1.442 . S
C85 H112 0.930 . S
C86 C85 1.442 . S
C86 C87 1.381 . S
C86 H113 0.931 . S
C87 C86 1.381 . S
C87 C88 1.321 . S
C88 C87 1.321 . S
C88 C89 1.403 . S
C88 H114 0.934 . S
C89 C84 1.413 . S
C89 C88 1.403 . S
C89 H115 0.930 . S
C90 O104 1.275 . S
C90 O105 1.256 . S
C91 O106 1.259 . S
C91 O107 1.268 . S
C92 Ho81 2.811 . S
C92 C93 1.488 . S
C92 O108 1.215 . S
C92 O109 1.289 . S
C93 C92 1.488 . S
C93 C94 1.348 . S
C93 C98 1.413 . S
C94 C93 1.348 . S
C94 C95 1.442 . S
C94 H116 0.930 . S
C95 C94 1.442 . S
C95 C96 1.381 . S
C95 H117 0.931 . S
C96 C95 1.381 . S
C96 C97 1.321 . S
C97 C96 1.321 . S
C97 C98 1.403 . S
C97 H118 0.934 . S
C98 C93 1.413 . S
C98 C97 1.403 . S
C98 H119 0.930 . S
C99 O110 1.275 . S
C99 O111 1.256 . S
O100 Ho80 2.322 . S
O100 C82 1.259 . S
O101 Ho81 2.346 . S
O101 C82 1.268 . S
O102 Ho80 2.378 . S
O102 C83 1.215 . S
O103 Ho80 2.524 . S
O103 C83 1.289 . S
O104 Ho80 2.381 . S
O104 C90 1.275 . S
O105 Ho80 2.669 . S
O105 Ho81 2.305 . S
O105 C90 1.256 . S
O106 Ho81 2.322 . S
O106 C91 1.259 . S
O107 Ho80 2.346 . S
O107 C91 1.268 . S
O108 Ho81 2.378 . S
O108 C92 1.215 . S
O109 Ho81 2.524 . S
O109 C92 1.289 . S
O110 Ho81 2.381 . S
O110 C99 1.275 . S
O111 Ho80 2.305 . S
O111 Ho81 2.669 . S
O111 C99 1.256 . S
H112 C85 0.930 . S
H113 C86 0.931 . S
H114 C88 0.934 . S
H115 C89 0.930 . S
H116 C94 0.930 . S
H117 C95 0.931 . S
H118 C97 0.934 . S
H119 C98 0.930 . S
H120 C121 0.949 . S
C121 H120 0.949 . S
C121 C122 1.395 . S
C121 C123 1.391 . S
C122 C121 1.395 . S
C122 C125 1.387 1_545 S
C123 C121 1.391 . S
C123 C127 1.387 . S
C123 C128 1.491 . S
H124 C125 0.953 . S
C125 C122 1.387 1_565 S
C125 H124 0.953 . S
C125 C126 1.378 . S
C126 C125 1.378 . S
C126 C127 1.409 1_565 S
C127 C123 1.387 . S
C127 C126 1.409 1_545 S
C127 H129 0.951 . S
C128 C123 1.491 . S
C128 C130 1.382 . S
C128 C132 1.404 . S
H129 C127 0.951 . S
C130 C128 1.382 . S
C130 C131 1.390 . S
C130 H135 0.949 . S
C131 C130 1.390 . S
C131 C136 1.399 . S
C132 C128 1.404 . S
C132 H133 0.950 . S
C132 C134 1.375 . S
H133 C132 0.950 . S
C134 C132 1.375 . S
C134 C136 1.382 . S
C134 H138 0.950 . S
H135 C130 0.949 . S
C136 C131 1.399 . S
C136 C134 1.382 . S
C136 H137 0.952 . S
H137 C136 0.952 . S
H138 C134 0.950 . S
H139 C140 0.949 . S
C140 H139 0.949 . S
C140 C141 1.395 . S
C140 C142 1.391 . S
C141 C140 1.395 . S
C141 C144 1.390 . S
C142 C140 1.391 . S
C142 C146 1.387 . S
C142 C147 1.491 . S
H143 C144 0.950 . S
C144 C141 1.390 . S
C144 H143 0.950 . S
C144 C145 1.378 . S
C145 C144 1.378 . S
C145 C146 1.409 . S
C146 C142 1.387 . S
C146 C145 1.409 . S
C146 H148 0.951 . S
C147 C142 1.491 . S
C147 C149 1.382 . S
C147 C151 1.404 . S
H148 C146 0.951 . S
C149 C147 1.382 . S
C149 C150 1.390 . S
C149 H154 0.949 . S
C150 C149 1.390 . S
C150 C155 1.399 . S
C151 C147 1.404 . S
C151 H152 0.950 . S
C151 C153 1.375 . S
H152 C151 0.950 . S
C153 C151 1.375 . S
C153 C155 1.382 . S
C153 H157 0.950 . S
H154 C149 0.949 . S
C155 C150 1.399 . S
C155 C153 1.382 . S
C155 H156 0.952 . S
H156 C155 0.952 . S
H157 C153 0.950 . S
H158 C159 0.949 . S
C159 H158 0.949 . S
C159 C160 1.395 . S
C159 C161 1.391 . S
C160 C159 1.395 . S
C160 C163 1.390 . S
C161 C159 1.391 . S
C161 C165 1.387 . S
C161 C166 1.491 . S
H162 C163 0.950 1_655 S
C163 C160 1.390 . S
C163 H162 0.950 1_455 S
C163 C164 1.378 . S
C164 C163 1.378 . S
C164 C165 1.409 . S
C165 C161 1.387 . S
C165 C164 1.409 . S
C165 H167 0.951 . S
C166 C161 1.491 . S
C166 C168 1.382 . S
C166 C170 1.404 . S
H167 C165 0.951 . S
C168 C166 1.382 . S
C168 C169 1.390 . S
C168 H173 0.949 . S
C169 C168 1.390 . S
C169 C174 1.399 . S
C170 C166 1.404 . S
C170 H171 0.950 . S
C170 C172 1.375 . S
H171 C170 0.950 . S
C172 C170 1.375 . S
C172 C174 1.382 . S
C172 H176 0.950 . S
H173 C168 0.949 . S
C174 C169 1.399 . S
C174 C172 1.382 . S
C174 H175 0.952 . S
H175 C174 0.952 . S
H176 C172 0.950 . S
H177 C178 0.959 . S
C178 H177 0.959 . S
C178 C179 1.382 1_655 S
C178 C180 1.395 1_655 S
C179 C178 1.382 1_455 S
C179 C182 1.390 . S
C180 C178 1.395 1_455 S
C180 C184 1.387 . S
C180 C185 1.491 1_455 S
H181 C182 0.950 . S
C182 C179 1.390 . S
C182 H181 0.950 . S
C182 C183 1.378 . S
C183 C182 1.378 . S
C183 C184 1.409 . S
C184 C180 1.387 . S
C184 C183 1.409 . S
C184 H186 0.951 . S
C185 C180 1.491 1_655 S
C185 C187 1.382 . S
C185 C189 1.404 . S
H186 C184 0.951 . S
C187 C185 1.382 . S
C187 C188 1.390 . S
C187 H192 0.949 . S
C188 C187 1.390 . S
C188 C193 1.399 . S
C189 C185 1.404 . S
C189 H190 0.950 . S
C189 C191 1.375 . S
H190 C189 0.950 . S
C191 C189 1.375 . S
C191 C193 1.382 . S
C191 H195 0.950 . S
H192 C187 0.949 . S
C193 C188 1.399 . S
C193 C191 1.382 . S
C193 H194 0.952 . S
H194 C193 0.952 . S
H195 C191 0.950 . S
H196 C197 0.949 . S
C197 H196 0.949 . S
C197 C198 1.395 . S
C197 C199 1.391 . S
C198 C197 1.395 . S
C198 C201 1.390 . S
C199 C197 1.391 . S
C199 C203 1.387 . S
C199 C204 1.491 . S
H200 C201 0.950 . S
C201 C198 1.390 . S
C201 H200 0.950 . S
C201 C202 1.378 . S
C202 C201 1.378 . S
C202 C203 1.409 . S
C203 C199 1.387 . S
C203 C202 1.409 . S
C203 H205 0.951 . S
C204 C199 1.491 . S
C204 C206 1.382 1_545 S
C204 C208 1.404 1_545 S
H205 C203 0.951 . S
C206 C204 1.382 1_565 S
C206 C207 1.390 . S
C206 H211 0.949 . S
C207 C206 1.390 . S
C207 C212 1.399 . S
C208 C204 1.404 1_565 S
C208 H209 0.950 1_565 S
C208 C210 1.375 . S
H209 C208 0.950 1_545 S
C210 C208 1.375 . S
C210 C212 1.382 . S
C210 H214 0.950 . S
H211 C206 0.949 . S
C212 C207 1.399 . S
C212 C210 1.382 . S
C212 H213 0.952 . S
H213 C212 0.952 . S
H214 C210 0.950 . S
H215 C216 0.949 . S
C216 H215 0.949 . S
C216 C217 1.395 . S
C216 C218 1.391 . S
C217 C216 1.395 . S
C217 C220 1.390 . S
C218 C216 1.391 . S
C218 C222 1.387 . S
C218 C223 1.491 . S
H219 C220 0.950 . S
C220 C217 1.390 . S
C220 H219 0.950 . S
C220 C221 1.378 . S
C221 C220 1.378 . S
C221 C222 1.409 . S
C222 C218 1.387 . S
C222 C221 1.409 . S
C222 H224 0.951 . S
C223 C218 1.491 . S
C223 C225 1.382 . S
C223 C227 1.404 . S
H224 C222 0.951 . S
C225 C223 1.382 . S
C225 C226 1.390 . S
C225 H230 0.949 . S
C226 C225 1.390 . S
C226 C231 1.399 . S
C227 C223 1.404 . S
C227 H228 0.950 . S
C227 C229 1.375 . S
H228 C227 0.950 . S
C229 C227 1.375 . S
C229 C231 1.382 . S
C229 H233 0.950 . S
H230 C225 0.949 . S
C231 C226 1.399 . S
C231 C229 1.382 . S
C231 H232 0.952 . S
H232 C231 0.952 . S
H233 C229 0.950 . S
C234 C235 1.391 . S
C234 C236 1.394 . S
C234 H250 0.931 . S
C235 C234 1.391 . S
C235 C239 1.376 . S
C236 C234 1.394 . S
C236 C237 1.369 . S
C236 C240 1.531 . S
C237 C236 1.369 . S
C237 C238 1.410 . S
C237 C245 1.503 . S
C238 C237 1.410 . S
C238 C239 1.392 . S
C238 C241 1.511 . S
C239 C235 1.376 . S
C239 C238 1.392 . S
C239 H251 0.929 . S
C240 C236 1.531 . S
C240 H252 0.960 . S
C240 H253 0.962 . S
C240 H254 0.960 . S
C241 C238 1.511 . S
C241 H255 0.961 . S
C241 H256 0.961 . S
C241 H257 0.961 . S
C242 C243 1.370 . S
C242 C244 1.363 . S
C242 H258 0.931 . S
C243 C242 1.370 . S
C243 C247 1.408 . S
C244 C242 1.363 . S
C244 C245 1.370 . S
C244 C248 1.524 . S
C245 C237 1.503 . S
C245 C244 1.370 . S
C245 C246 1.403 . S
C246 C245 1.403 . S
C246 C247 1.404 . S
C246 C249 1.539 . S
C247 C243 1.408 . S
C247 C246 1.404 . S
C247 H259 0.930 . S
C248 C244 1.524 . S
C248 H260 0.956 . S
C248 H261 0.961 . S
C248 H262 0.961 . S
C249 C246 1.539 . S
C249 H263 0.958 . S
C249 H264 0.961 . S
C249 H265 0.960 . S
H250 C234 0.931 . S
H251 C239 0.929 . S
H252 C240 0.960 . S
H253 C240 0.962 . S
H254 C240 0.960 . S
H255 C241 0.961 . S
H256 C241 0.961 . S
H257 C241 0.961 . S
H258 C242 0.931 . S
H259 C247 0.930 . S
H260 C248 0.956 . S
H261 C248 0.961 . S
H262 C248 0.961 . S
H263 C249 0.958 . S
H264 C249 0.961 . S
H265 C249 0.960 . S
C266 C267 1.391 . S
C266 C268 1.394 . S
C266 H282 0.931 . S
C267 C266 1.391 . S
C267 C271 1.376 . S
C268 C266 1.394 . S
C268 C269 1.369 . S
C268 C272 1.531 . S
C269 C268 1.369 . S
C269 C270 1.410 . S
C269 C277 1.503 . S
C270 C269 1.410 . S
C270 C271 1.392 . S
C270 C273 1.511 . S
C271 C267 1.376 . S
C271 C270 1.392 . S
C271 H283 0.929 . S
C272 C268 1.531 . S
C272 H284 0.960 . S
C272 H285 0.962 . S
C272 H286 0.960 . S
C273 C270 1.511 . S
C273 H287 0.961 . S
C273 H288 0.961 . S
C273 H289 0.961 . S
C274 C275 1.370 . S
C274 C276 1.363 . S
C274 H290 0.931 . S
C275 C274 1.370 . S
C275 C279 1.408 . S
C276 C274 1.363 . S
C276 C277 1.370 . S
C276 C280 1.524 . S
C277 C269 1.503 . S
C277 C276 1.370 . S
C277 C278 1.403 . S
C278 C277 1.403 . S
C278 C279 1.404 . S
C278 C281 1.539 . S
C279 C275 1.408 . S
C279 C278 1.404 . S
C279 H291 0.930 . S
C280 C276 1.524 . S
C280 H292 0.956 . S
C280 H293 0.961 . S
C280 H294 0.961 . S
C281 C278 1.539 . S
C281 H295 0.958 . S
C281 H296 0.961 . S
C281 H297 0.960 . S
H282 C266 0.931 . S
H283 C271 0.929 . S
H284 C272 0.960 . S
H285 C272 0.962 . S
H286 C272 0.960 . S
H287 C273 0.961 . S
H288 C273 0.961 . S
H289 C273 0.961 . S
H290 C274 0.931 . S
H291 C279 0.930 . S
H292 C280 0.956 . S
H293 C280 0.961 . S
H294 C280 0.961 . S
H295 C281 0.958 . S
H296 C281 0.961 . S
H297 C281 0.960 . S
C298 C299 1.391 . S
C298 C300 1.394 . S
C298 H314 0.931 . S
C299 C298 1.391 . S
C299 C303 1.376 . S
C300 C298 1.394 . S
C300 C301 1.369 . S
C300 C304 1.531 . S
C301 C300 1.369 . S
C301 C302 1.410 . S
C301 C309 1.503 . S
C302 C301 1.410 . S
C302 C303 1.392 . S
C302 C305 1.511 . S
C303 C299 1.376 . S
C303 C302 1.392 . S
C303 H315 0.929 . S
C304 C300 1.531 . S
C304 H316 0.960 . S
C304 H317 0.962 . S
C304 H318 0.960 . S
C305 C302 1.511 . S
C305 H319 0.961 . S
C305 H320 0.961 . S
C305 H321 0.961 . S
C306 C307 1.370 . S
C306 C308 1.363 . S
C306 H322 0.931 . S
C307 C306 1.370 . S
C307 C311 1.408 . S
C308 C306 1.363 . S
C308 C309 1.370 . S
C308 C312 1.524 . S
C309 C301 1.503 . S
C309 C308 1.370 . S
C309 C310 1.403 . S
C310 C309 1.403 . S
C310 C311 1.404 . S
C310 C313 1.539 . S
C311 C307 1.408 . S
C311 C310 1.404 . S
C311 H323 0.930 . S
C312 C308 1.524 . S
C312 H324 0.956 . S
C312 H325 0.961 . S
C312 H326 0.961 . S
C313 C310 1.539 . S
C313 H327 0.958 . S
C313 H328 0.961 . S
C313 H329 0.960 . S
H314 C298 0.931 . S
H315 C303 0.929 . S
H316 C304 0.960 . S
H317 C304 0.962 . S
H318 C304 0.960 . S
H319 C305 0.961 . S
H320 C305 0.961 . S
H321 C305 0.961 . S
H322 C306 0.931 . S
H323 C311 0.930 . S
H324 C312 0.956 . S
H325 C312 0.961 . S
H326 C312 0.961 . S
H327 C313 0.958 . S
H328 C313 0.961 . S
H329 C313 0.960 . S
C330 C331 1.391 . S
C330 C332 1.394 . S
C330 H346 0.931 . S
C331 C330 1.391 . S
C331 C335 1.376 . S
C332 C330 1.394 . S
C332 C333 1.369 . S
C332 C336 1.531 . S
C333 C332 1.369 . S
C333 C334 1.410 . S
C333 C341 1.503 . S
C334 C333 1.410 . S
C334 C335 1.392 . S
C334 C337 1.511 . S
C335 C331 1.376 . S
C335 C334 1.392 . S
C335 H347 0.929 . S
C336 C332 1.531 . S
C336 H348 0.960 . S
C336 H349 0.962 . S
C336 H350 0.960 . S
C337 C334 1.511 . S
C337 H351 0.961 . S
C337 H352 0.961 . S
C337 H353 0.961 . S
C338 C339 1.370 . S
C338 C340 1.363 . S
C338 H354 0.931 . S
C339 C338 1.370 . S
C339 C343 1.408 . S
C340 C338 1.363 . S
C340 C341 1.370 . S
C340 C344 1.524 . S
C341 C333 1.503 . S
C341 C340 1.370 . S
C341 C342 1.403 . S
C342 C341 1.403 . S
C342 C343 1.404 . S
C342 C345 1.539 . S
C343 C339 1.408 . S
C343 C342 1.404 . S
C343 H355 0.930 . S
C344 C340 1.524 . S
C344 H356 0.956 . S
C344 H357 0.961 . S
C344 H358 0.961 . S
C345 C342 1.539 . S
C345 H359 0.958 . S
C345 H360 0.961 . S
C345 H361 0.960 . S
H346 C330 0.931 . S
H347 C335 0.929 . S
H348 C336 0.960 . S
H349 C336 0.962 . S
H350 C336 0.960 . S
H351 C337 0.961 . S
H352 C337 0.961 . S
H353 C337 0.961 . S
H354 C338 0.931 . S
H355 C343 0.930 . S
H356 C344 0.956 . S
H357 C344 0.961 . S
H358 C344 0.961 . S
H359 C345 0.958 . S
H360 C345 0.961 . S
H361 C345 0.960 . S
C362 C363 1.391 . S
C362 C364 1.394 . S
C362 H378 0.931 . S
C363 C362 1.391 . S
C363 C367 1.376 . S
C364 C362 1.394 . S
C364 C365 1.369 . S
C364 C368 1.531 . S
C365 C364 1.369 . S
C365 C366 1.410 . S
C365 C373 1.503 . S
C366 C365 1.410 . S
C366 C367 1.392 . S
C366 C369 1.511 . S
C367 C363 1.376 . S
C367 C366 1.392 . S
C367 H379 0.929 . S
C368 C364 1.531 . S
C368 H380 0.960 . S
C368 H381 0.962 . S
C368 H382 0.960 . S
C369 C366 1.511 . S
C369 H383 0.961 . S
C369 H384 0.961 . S
C369 H385 0.961 . S
C370 C371 1.370 . S
C370 C372 1.363 . S
C370 H386 0.931 . S
C371 C370 1.370 . S
C371 C375 1.408 . S
C372 C370 1.363 . S
C372 C373 1.370 . S
C372 C376 1.524 . S
C373 C365 1.503 . S
C373 C372 1.370 . S
C373 C374 1.403 . S
C374 C373 1.403 . S
C374 C375 1.404 . S
C374 C377 1.539 . S
C375 C371 1.408 . S
C375 C374 1.404 . S
C375 H387 0.930 . S
C376 C372 1.524 . S
C376 H388 0.956 . S
C376 H389 0.961 . S
C376 H390 0.961 . S
C377 C374 1.539 . S
C377 H391 0.958 . S
C377 H392 0.961 . S
C377 H393 0.960 . S
H378 C362 0.931 . S
H379 C367 0.929 . S
H380 C368 0.960 . S
H381 C368 0.962 . S
H382 C368 0.960 . S
H383 C369 0.961 . S
H384 C369 0.961 . S
H385 C369 0.961 . S
H386 C370 0.931 . S
H387 C375 0.930 . S
H388 C376 0.956 . S
H389 C376 0.961 . S
H390 C376 0.961 . S
H391 C377 0.958 . S
H392 C377 0.961 . S
H393 C377 0.960 . S
C394 C395 1.391 . S
C394 C396 1.394 . S
C394 H410 0.931 . S
C395 C394 1.391 . S
C395 C399 1.376 . S
C396 C394 1.394 . S
C396 C397 1.369 . S
C396 C400 1.531 . S
C397 C396 1.369 . S
C397 C398 1.410 . S
C397 C405 1.503 . S
C398 C397 1.410 . S
C398 C399 1.392 . S
C398 C401 1.511 . S
C399 C395 1.376 . S
C399 C398 1.392 . S
C399 H411 0.929 . S
C400 C396 1.531 . S
C400 H412 0.960 . S
C400 H413 0.962 . S
C400 H414 0.960 . S
C401 C398 1.511 . S
C401 H415 0.961 . S
C401 H416 0.961 . S
C401 H417 0.961 . S
C402 C403 1.370 . S
C402 C404 1.363 . S
C402 H418 0.931 . S
C403 C402 1.370 . S
C403 C407 1.408 . S
C404 C402 1.363 . S
C404 C405 1.370 . S
C404 C408 1.524 . S
C405 C397 1.503 . S
C405 C404 1.370 . S
C405 C406 1.403 . S
C406 C405 1.403 . S
C406 C407 1.404 . S
C406 C409 1.539 . S
C407 C403 1.408 . S
C407 C406 1.404 . S
C407 H419 0.930 . S
C408 C404 1.524 . S
C408 H420 0.956 . S
C408 H421 0.961 . S
C408 H422 0.961 . S
C409 C406 1.539 . S
C409 H423 0.958 . S
C409 H424 0.961 . S
C409 H425 0.960 . S
H410 C394 0.931 . S
H411 C399 0.929 . S
H412 C400 0.960 . S
H413 C400 0.962 . S
H414 C400 0.960 . S
H415 C401 0.961 . S
H416 C401 0.961 . S
H417 C401 0.961 . S
H418 C402 0.931 . S
H419 C407 0.930 . S
H420 C408 0.956 . S
H421 C408 0.961 . S
H422 C408 0.961 . S
H423 C409 0.958 . S
H424 C409 0.961 . S
H425 C409 0.960 . S
C426 C427 1.391 . S
C426 C428 1.394 . S
C426 H442 0.931 . S
C427 C426 1.391 . S
C427 C431 1.376 . S
C428 C426 1.394 . S
C428 C429 1.369 . S
C428 C432 1.531 . S
C429 C428 1.369 . S
C429 C430 1.410 . S
C429 C437 1.503 . S
C430 C429 1.410 . S
C430 C431 1.392 . S
C430 C433 1.511 . S
C431 C427 1.376 . S
C431 C430 1.392 . S
C431 H443 0.929 . S
C432 C428 1.531 . S
C432 H444 0.960 . S
C432 H445 0.962 . S
C432 H446 0.960 . S
C433 C430 1.511 . S
C433 H447 0.961 . S
C433 H448 0.961 . S
C433 H449 0.961 . S
C434 C435 1.370 . S
C434 C436 1.363 . S
C434 H450 0.931 . S
C435 C434 1.370 . S
C435 C439 1.408 . S
C436 C434 1.363 . S
C436 C437 1.370 . S
C436 C440 1.524 . S
C437 C429 1.503 . S
C437 C436 1.370 . S
C437 C438 1.403 . S
C438 C437 1.403 . S
C438 C439 1.404 . S
C438 C441 1.539 . S
C439 C435 1.408 . S
C439 C438 1.404 . S
C439 H451 0.930 . S
C440 C436 1.524 . S
C440 H452 0.956 . S
C440 H453 0.961 . S
C440 H454 0.961 . S
C441 C438 1.539 . S
C441 H455 0.958 . S
C441 H456 0.961 . S
C441 H457 0.960 . S
H442 C426 0.931 . S
H443 C431 0.929 . S
H444 C432 0.960 . S
H445 C432 0.962 . S
H446 C432 0.960 . S
H447 C433 0.961 . S
H448 C433 0.961 . S
H449 C433 0.961 . S
H450 C434 0.931 . S
H451 C439 0.930 . S
H452 C440 0.956 . S
H453 C440 0.961 . S
H454 C440 0.961 . S
H455 C441 0.958 . S
H456 C441 0.961 . S
H457 C441 0.960 . S
C458 C459 1.391 . S
C458 C460 1.394 . S
C458 H474 0.931 . S
C459 C458 1.391 . S
C459 C463 1.376 . S
C460 C458 1.394 . S
C460 C461 1.369 . S
C460 C464 1.531 . S
C461 C460 1.369 . S
C461 C462 1.410 . S
C461 C469 1.503 . S
C462 C461 1.410 . S
C462 C463 1.392 . S
C462 C465 1.511 . S
C463 C459 1.376 . S
C463 C462 1.392 . S
C463 H475 0.929 . S
C464 C460 1.531 . S
C464 H476 0.960 . S
C464 H477 0.962 . S
C464 H478 0.960 . S
C465 C462 1.511 . S
C465 H479 0.961 . S
C465 H480 0.961 . S
C465 H481 0.961 . S
C466 C467 1.370 . S
C466 C468 1.363 . S
C466 H482 0.931 . S
C467 C466 1.370 . S
C467 C471 1.408 . S
C468 C466 1.363 . S
C468 C469 1.370 . S
C468 C472 1.524 . S
C469 C461 1.503 . S
C469 C468 1.370 . S
C469 C470 1.403 . S
C470 C469 1.403 . S
C470 C471 1.404 . S
C470 C473 1.539 . S
C471 C467 1.408 . S
C471 C470 1.404 . S
C471 H483 0.930 . S
C472 C468 1.524 . S
C472 H484 0.956 . S
C472 H485 0.961 . S
C472 H486 0.961 . S
C473 C470 1.539 . S
C473 H487 0.958 . S
C473 H488 0.961 . S
C473 H489 0.960 . S
H474 C458 0.931 . S
H475 C463 0.929 . S
H476 C464 0.960 . S
H477 C464 0.962 . S
H478 C464 0.960 . S
H479 C465 0.961 . S
H480 C465 0.961 . S
H481 C465 0.961 . S
H482 C466 0.931 . S
H483 C471 0.930 . S
H484 C472 0.956 . S
H485 C472 0.961 . S
H486 C472 0.961 . S
H487 C473 0.958 . S
H488 C473 0.961 . S
H489 C473 0.960 . S
C490 C491 1.391 . S
C490 C492 1.394 . S
C490 H506 0.931 . S
C491 C490 1.391 . S
C491 C495 1.376 . S
C492 C490 1.394 . S
C492 C493 1.369 . S
C492 C496 1.531 . S
C493 C492 1.369 . S
C493 C494 1.410 . S
C493 C501 1.503 . S
C494 C493 1.410 . S
C494 C495 1.392 . S
C494 C497 1.511 . S
C495 C491 1.376 . S
C495 C494 1.392 . S
C495 H507 0.929 . S
C496 C492 1.531 . S
C496 H508 0.960 . S
C496 H509 0.962 . S
C496 H510 0.960 . S
C497 C494 1.511 . S
C497 H511 0.961 . S
C497 H512 0.961 . S
C497 H513 0.961 . S
C498 C499 1.370 . S
C498 C500 1.363 . S
C498 H514 0.931 . S
C499 C498 1.370 . S
C499 C503 1.408 . S
C500 C498 1.363 . S
C500 C501 1.370 . S
C500 C504 1.524 . S
C501 C493 1.503 . S
C501 C500 1.370 . S
C501 C502 1.403 . S
C502 C501 1.403 . S
C502 C503 1.404 . S
C502 C505 1.539 . S
C503 C499 1.408 . S
C503 C502 1.404 . S
C503 H515 0.930 . S
C504 C500 1.524 . S
C504 H516 0.956 . S
C504 H517 0.961 . S
C504 H518 0.961 . S
C505 C502 1.539 . S
C505 H519 0.958 . S
C505 H520 0.961 . S
C505 H521 0.960 . S
H506 C490 0.931 . S
H507 C495 0.929 . S
H508 C496 0.960 . S
H509 C496 0.962 . S
H510 C496 0.960 . S
H511 C497 0.961 . S
H512 C497 0.961 . S
H513 C497 0.961 . S
H514 C498 0.931 . S
H515 C503 0.930 . S
H516 C504 0.956 . S
H517 C504 0.961 . S
H518 C504 0.961 . S
H519 C505 0.958 . S
H520 C505 0.961 . S
H521 C505 0.960 . S
C522 C523 1.391 . S
C522 C524 1.394 . S
C522 H538 0.931 . S
C523 C522 1.391 . S
C523 C527 1.376 . S
C524 C522 1.394 . S
C524 C525 1.369 . S
C524 C528 1.531 . S
C525 C524 1.369 . S
C525 C526 1.410 . S
C525 C533 1.503 . S
C526 C525 1.410 . S
C526 C527 1.392 . S
C526 C529 1.511 . S
C527 C523 1.376 . S
C527 C526 1.392 . S
C527 H539 0.929 . S
C528 C524 1.531 . S
C528 H540 0.960 . S
C528 H541 0.962 . S
C528 H542 0.960 . S
C529 C526 1.511 . S
C529 H543 0.961 . S
C529 H544 0.961 . S
C529 H545 0.961 . S
C530 C531 1.370 . S
C530 C532 1.363 . S
C530 H546 0.931 . S
C531 C530 1.370 . S
C531 C535 1.408 . S
C532 C530 1.363 . S
C532 C533 1.370 . S
C532 C536 1.524 . S
C533 C525 1.503 . S
C533 C532 1.370 . S
C533 C534 1.403 . S
C534 C533 1.403 . S
C534 C535 1.404 . S
C534 C537 1.539 . S
C535 C531 1.408 . S
C535 C534 1.404 . S
C535 H547 0.930 . S
C536 C532 1.524 . S
C536 H548 0.956 . S
C536 H549 0.961 . S
C536 H550 0.961 . S
C537 C534 1.539 . S
C537 H551 0.958 . S
C537 H552 0.961 . S
C537 H553 0.960 . S
H538 C522 0.931 . S
H539 C527 0.929 . S
H540 C528 0.960 . S
H541 C528 0.962 . S
H542 C528 0.960 . S
H543 C529 0.961 . S
H544 C529 0.961 . S
H545 C529 0.961 . S
H546 C530 0.931 . S
H547 C535 0.930 . S
H548 C536 0.956 . S
H549 C536 0.961 . S
H550 C536 0.961 . S
H551 C537 0.958 . S
H552 C537 0.961 . S
H553 C537 0.960 . S
C554 C555 1.391 . S
C554 C556 1.394 . S
C554 H570 0.931 . S
C555 C554 1.391 . S
C555 C559 1.376 . S
C556 C554 1.394 . S
C556 C557 1.369 . S
C556 C560 1.531 . S
C557 C556 1.369 . S
C557 C558 1.410 . S
C557 C565 1.503 . S
C558 C557 1.410 . S
C558 C559 1.392 . S
C558 C561 1.511 . S
C559 C555 1.376 . S
C559 C558 1.392 . S
C559 H571 0.929 . S
C560 C556 1.531 . S
C560 H572 0.960 . S
C560 H573 0.962 . S
C560 H574 0.960 . S
C561 C558 1.511 . S
C561 H575 0.961 . S
C561 H576 0.961 . S
C561 H577 0.961 . S
C562 C563 1.370 . S
C562 C564 1.363 . S
C562 H578 0.931 . S
C563 C562 1.370 . S
C563 C567 1.408 . S
C564 C562 1.363 . S
C564 C565 1.370 . S
C564 C568 1.524 . S
C565 C557 1.503 . S
C565 C564 1.370 . S
C565 C566 1.403 . S
C566 C565 1.403 . S
C566 C567 1.404 . S
C566 C569 1.539 . S
C567 C563 1.408 . S
C567 C566 1.404 . S
C567 H579 0.930 . S
C568 C564 1.524 . S
C568 H580 0.956 . S
C568 H581 0.961 . S
C568 H582 0.961 . S
C569 C566 1.539 . S
C569 H583 0.958 . S
C569 H584 0.961 . S
C569 H585 0.960 . S
H570 C554 0.931 . S
H571 C559 0.929 . S
H572 C560 0.960 . S
H573 C560 0.962 . S
H574 C560 0.960 . S
H575 C561 0.961 . S
H576 C561 0.961 . S
H577 C561 0.961 . S
H578 C562 0.931 . S
H579 C567 0.930 . S
H580 C568 0.956 . S
H581 C568 0.961 . S
H582 C568 0.961 . S
H583 C569 0.958 . S
H584 C569 0.961 . S
H585 C569 0.960 . S
C586 C587 1.391 . S
C586 C588 1.394 . S
C586 H602 0.931 . S
C587 C586 1.391 . S
C587 C591 1.376 . S
C588 C586 1.394 . S
C588 C589 1.369 . S
C588 C592 1.531 . S
C589 C588 1.369 . S
C589 C590 1.410 . S
C589 C597 1.503 . S
C590 C589 1.410 . S
C590 C591 1.392 . S
C590 C593 1.511 . S
C591 C587 1.376 . S
C591 C590 1.392 . S
C591 H603 0.929 . S
C592 C588 1.531 . S
C592 H604 0.960 . S
C592 H605 0.962 . S
C592 H606 0.960 . S
C593 C590 1.511 . S
C593 H607 0.961 . S
C593 H608 0.961 . S
C593 H609 0.961 . S
C594 C595 1.370 . S
C594 C596 1.363 . S
C594 H610 0.931 . S
C595 C594 1.370 . S
C595 C599 1.408 . S
C596 C594 1.363 . S
C596 C597 1.370 . S
C596 C600 1.524 . S
C597 C589 1.503 . S
C597 C596 1.370 . S
C597 C598 1.403 . S
C598 C597 1.403 . S
C598 C599 1.404 . S
C598 C601 1.539 . S
C599 C595 1.408 . S
C599 C598 1.404 . S
C599 H611 0.930 . S
C600 C596 1.524 . S
C600 H612 0.956 . S
C600 H613 0.961 . S
C600 H614 0.961 . S
C601 C598 1.539 . S
C601 H615 0.958 . S
C601 H616 0.961 . S
C601 H617 0.960 . S
H602 C586 0.931 . S
H603 C591 0.929 . S
H604 C592 0.960 . S
H605 C592 0.962 . S
H606 C592 0.960 . S
H607 C593 0.961 . S
H608 C593 0.961 . S
H609 C593 0.961 . S
H610 C594 0.931 . S
H611 C599 0.930 . S
H612 C600 0.956 . S
H613 C600 0.961 . S
H614 C600 0.961 . S
H615 C601 0.958 . S
H616 C601 0.961 . S
H617 C601 0.960 . S
C618 C619 1.391 . S
C618 C620 1.394 . S
C618 H634 0.931 . S
C619 C618 1.391 . S
C619 C623 1.376 . S
C620 C618 1.394 . S
C620 C621 1.369 . S
C620 C624 1.531 . S
C621 C620 1.369 . S
C621 C622 1.410 . S
C621 C629 1.503 1_554 S
C622 C621 1.410 . S
C622 C623 1.392 . S
C622 C625 1.511 . S
C623 C619 1.376 . S
C623 C622 1.392 . S
C623 H635 0.929 . S
C624 C620 1.531 . S
C624 H636 0.960 . S
C624 H637 0.962 1_455 S
C624 H638 0.960 . S
C625 C622 1.511 . S
C625 H639 0.961 . S
C625 H640 0.961 . S
C625 H641 0.961 . S
C626 C627 1.370 . S
C626 C628 1.363 . S
C626 H642 0.931 1_455 S
C627 C626 1.370 . S
C627 C631 1.408 . S
C628 C626 1.363 . S
C628 C629 1.370 . S
C628 C632 1.524 1_455 S
C629 C621 1.503 1_556 S
C629 C628 1.370 . S
C629 C630 1.403 . S
C630 C629 1.403 . S
C630 C631 1.404 . S
C630 C633 1.539 1_556 S
C631 C627 1.408 . S
C631 C630 1.404 . S
C631 H643 0.930 . S
C632 C628 1.524 1_655 S
C632 H644 0.956 . S
C632 H645 0.961 1_556 S
C632 H646 0.961 . S
C633 C630 1.539 1_554 S
C633 H647 0.958 . S
C633 H648 0.961 1_554 S
C633 H649 0.960 . S
H634 C618 0.931 . S
H635 C623 0.929 . S
H636 C624 0.960 . S
H637 C624 0.962 1_655 S
H638 C624 0.960 . S
H639 C625 0.961 . S
H640 C625 0.961 . S
H641 C625 0.961 . S
H642 C626 0.931 1_655 S
H643 C631 0.930 . S
H644 C632 0.956 . S
H645 C632 0.961 1_554 S
H646 C632 0.961 . S
H647 C633 0.958 . S
H648 C633 0.961 1_556 S
H649 C633 0.960 . S
C650 C651 1.391 . S
C650 C652 1.394 . S
C650 H666 0.931 . S
C651 C650 1.391 . S
C651 C655 1.376 . S
C652 C650 1.394 . S
C652 C653 1.369 . S
C652 C656 1.531 . S
C653 C652 1.369 . S
C653 C654 1.410 . S
C653 C661 1.503 . S
C654 C653 1.410 . S
C654 C655 1.392 . S
C654 C657 1.511 . S
C655 C651 1.376 . S
C655 C654 1.392 . S
C655 H667 0.929 . S
C656 C652 1.531 . S
C656 H668 0.960 1_545 S
C656 H669 0.962 . S
C656 H670 0.960 1_545 S
C657 C654 1.511 . S
C657 H671 0.961 . S
C657 H672 0.961 . S
C657 H673 0.961 . S
C658 C659 1.370 . S
C658 C660 1.363 . S
C658 H674 0.931 . S
C659 C658 1.370 . S
C659 C663 1.408 . S
C660 C658 1.363 . S
C660 C661 1.370 . S
C660 C664 1.524 . S
C661 C653 1.503 . S
C661 C660 1.370 . S
C661 C662 1.403 . S
C662 C661 1.403 . S
C662 C663 1.404 . S
C662 C665 1.539 1_545 S
C663 C659 1.408 . S
C663 C662 1.404 . S
C663 H675 0.930 1_545 S
C664 C660 1.524 . S
C664 H676 0.956 . S
C664 H677 0.961 . S
C664 H678 0.961 . S
C665 C662 1.539 1_565 S
C665 H679 0.958 . S
C665 H680 0.961 . S
C665 H681 0.960 . S
H666 C650 0.931 . S
H667 C655 0.929 . S
H668 C656 0.960 1_565 S
H669 C656 0.962 . S
H670 C656 0.960 1_565 S
H671 C657 0.961 . S
H672 C657 0.961 . S
H673 C657 0.961 . S
H674 C658 0.931 . S
H675 C663 0.930 1_565 S
H676 C664 0.956 . S
H677 C664 0.961 . S
H678 C664 0.961 . S
H679 C665 0.958 . S
H680 C665 0.961 . S
H681 C665 0.960 . S
C682 C683 1.391 . S
C682 C684 1.394 . S
C682 H698 0.931 . S
C683 C682 1.391 . S
C683 C687 1.376 . S
C684 C682 1.394 . S
C684 C685 1.369 . S
C684 C688 1.531 . S
C685 C684 1.369 . S
C685 C686 1.410 . S
C685 C693 1.503 . S
C686 C685 1.410 . S
C686 C687 1.392 . S
C686 C689 1.511 . S
C687 C683 1.376 . S
C687 C686 1.392 . S
C687 H699 0.929 . S
C688 C684 1.531 . S
C688 H700 0.960 . S
C688 H701 0.962 . S
C688 H702 0.960 . S
C689 C686 1.511 . S
C689 H703 0.961 . S
C689 H704 0.961 . S
C689 H705 0.961 . S
C690 C691 1.370 . S
C690 C692 1.363 . S
C690 H706 0.931 . S
C691 C690 1.370 . S
C691 C695 1.408 . S
C692 C690 1.363 . S
C692 C693 1.370 . S
C692 C696 1.524 . S
C693 C685 1.503 . S
C693 C692 1.370 . S
C693 C694 1.403 . S
C694 C693 1.403 . S
C694 C695 1.404 . S
C694 C697 1.539 . S
C695 C691 1.408 . S
C695 C694 1.404 . S
C695 H707 0.930 . S
C696 C692 1.524 . S
C696 H708 0.956 . S
C696 H709 0.961 . S
C696 H710 0.961 . S
C697 C694 1.539 . S
C697 H711 0.958 . S
C697 H712 0.961 . S
C697 H713 0.960 . S
H698 C682 0.931 . S
H699 C687 0.929 . S
H700 C688 0.960 . S
H701 C688 0.962 . S
H702 C688 0.960 . S
H703 C689 0.961 . S
H704 C689 0.961 . S
H705 C689 0.961 . S
H706 C690 0.931 . S
H707 C695 0.930 . S
H708 C696 0.956 . S
H709 C696 0.961 . S
H710 C696 0.961 . S
H711 C697 0.958 . S
H712 C697 0.961 . S
H713 C697 0.960 . S
C714 C715 1.391 . S
C714 C716 1.394 . S
C714 H730 0.931 . S
C715 C714 1.391 . S
C715 C719 1.376 . S
C716 C714 1.394 . S
C716 C717 1.369 . S
C716 C720 1.531 . S
C717 C716 1.369 . S
C717 C718 1.410 . S
C717 C725 1.503 . S
C718 C717 1.410 . S
C718 C719 1.392 . S
C718 C721 1.511 . S
C719 C715 1.376 . S
C719 C718 1.392 . S
C719 H731 0.929 . S
C720 C716 1.531 . S
C720 H732 0.960 . S
C720 H733 0.962 . S
C720 H734 0.960 . S
C721 C718 1.511 . S
C721 H735 0.961 . S
C721 H736 0.961 . S
C721 H737 0.961 . S
C722 C723 1.370 . S
C722 C724 1.363 . S
C722 H738 0.931 1_545 S
C723 C722 1.370 . S
C723 C727 1.408 . S
C724 C722 1.363 . S
C724 C725 1.370 . S
C724 C728 1.524 1_545 S
C725 C717 1.503 . S
C725 C724 1.370 . S
C725 C726 1.403 . S
C726 C725 1.403 . S
C726 C727 1.404 . S
C726 C729 1.539 . S
C727 C723 1.408 . S
C727 C726 1.404 . S
C727 H739 0.930 . S
C728 C724 1.524 1_565 S
C728 H740 0.956 . S
C728 H741 0.961 . S
C728 H742 0.961 . S
C729 C726 1.539 . S
C729 H743 0.958 . S
C729 H744 0.961 . S
C729 H745 0.960 . S
H730 C714 0.931 . S
H731 C719 0.929 . S
H732 C720 0.960 . S
H733 C720 0.962 . S
H734 C720 0.960 . S
H735 C721 0.961 . S
H736 C721 0.961 . S
H737 C721 0.961 . S
H738 C722 0.931 1_565 S
H739 C727 0.930 . S
H740 C728 0.956 . S
H741 C728 0.961 . S
H742 C728 0.961 . S
H743 C729 0.958 . S
H744 C729 0.961 . S
H745 C729 0.960 . S
C746 C747 1.391 . S
C746 C748 1.394 . S
C746 H762 0.931 . S
C747 C746 1.391 . S
C747 C751 1.376 . S
C748 C746 1.394 . S
C748 C749 1.369 . S
C748 C752 1.531 . S
C749 C748 1.369 . S
C749 C750 1.410 . S
C749 C757 1.503 . S
C750 C749 1.410 . S
C750 C751 1.392 . S
C750 C753 1.511 . S
C751 C747 1.376 . S
C751 C750 1.392 . S
C751 H763 0.929 . S
C752 C748 1.531 . S
C752 H764 0.960 1_556 S
C752 H765 0.962 . S
C752 H766 0.960 . S
C753 C750 1.511 . S
C753 H767 0.961 . S
C753 H768 0.961 . S
C753 H769 0.961 . S
C754 C755 1.370 . S
C754 C756 1.363 . S
C754 H770 0.931 . S
C755 C754 1.370 . S
C755 C759 1.408 . S
C756 C754 1.363 . S
C756 C757 1.370 1_554 S
C756 C760 1.524 1_554 S
C757 C749 1.503 . S
C757 C756 1.370 1_556 S
C757 C758 1.403 1_556 S
C758 C757 1.403 1_554 S
C758 C759 1.404 . S
C758 C761 1.539 1_554 S
C759 C755 1.408 . S
C759 C758 1.404 . S
C759 H771 0.930 . S
C760 C756 1.524 1_556 S
C760 H772 0.956 . S
C760 H773 0.961 . S
C760 H774 0.961 1_556 S
C761 C758 1.539 1_556 S
C761 H775 0.958 1_556 S
C761 H776 0.961 1_556 S
C761 H777 0.960 . S
H762 C746 0.931 . S
H763 C751 0.929 . S
H764 C752 0.960 1_554 S
H765 C752 0.962 . S
H766 C752 0.960 . S
H767 C753 0.961 . S
H768 C753 0.961 . S
H769 C753 0.961 . S
H770 C754 0.931 . S
H771 C759 0.930 . S
H772 C760 0.956 . S
H773 C760 0.961 . S
H774 C760 0.961 1_554 S
H775 C761 0.958 1_554 S
H776 C761 0.961 1_554 S
H777 C761 0.960 . S
C778 C779 1.395 . S
C778 C780 1.393 1_455 S
C778 H794 0.927 1_455 S
C779 C778 1.395 . S
C779 C783 1.376 . S
C780 C778 1.393 1_655 S
C780 C781 1.369 1_655 S
C780 C784 1.531 . S
C781 C780 1.369 1_455 S
C781 C782 1.410 . S
C781 C789 1.503 . S
C782 C781 1.410 . S
C782 C783 1.392 . S
C782 C785 1.511 . S
C783 C779 1.376 . S
C783 C782 1.392 . S
C783 H795 0.929 . S
C784 C780 1.531 . S
C784 H796 0.960 . S
C784 H797 0.962 . S
C784 H798 0.960 . S
C785 C782 1.511 . S
C785 H799 0.961 . S
C785 H800 0.961 . S
C785 H801 0.961 . S
C786 C787 1.370 . S
C786 C788 1.363 . S
C786 H802 0.931 . S
C787 C786 1.370 . S
C787 C791 1.408 . S
C788 C786 1.363 . S
C788 C789 1.370 . S
C788 C792 1.524 . S
C789 C781 1.503 . S
C789 C788 1.370 . S
C789 C790 1.403 . S
C790 C789 1.403 . S
C790 C791 1.404 . S
C790 C793 1.539 . S
C791 C787 1.408 . S
C791 C790 1.404 . S
C791 H803 0.930 . S
C792 C788 1.524 . S
C792 H804 0.956 . S
C792 H805 0.961 . S
C792 H806 0.961 . S
C793 C790 1.539 . S
C793 H807 0.958 . S
C793 H808 0.961 . S
C793 H809 0.960 . S
H794 C778 0.927 1_655 S
H795 C783 0.929 . S
H796 C784 0.960 . S
H797 C784 0.962 . S
H798 C784 0.960 . S
H799 C785 0.961 . S
H800 C785 0.961 . S
H801 C785 0.961 . S
H802 C786 0.931 . S
H803 C791 0.930 . S
H804 C792 0.956 . S
H805 C792 0.961 . S
H806 C792 0.961 . S
H807 C793 0.958 . S
H808 C793 0.961 . S
H809 C793 0.960 . S
C235 C7 0.771 . S
C243 C226 0.775 . S
C267 C51 1.984 . S
C275 C188 1.943 . S
C299 C87 1.287 . S
C307 C207 1.260 . S
C331 C16 0.377 . S
C339 C221 0.215 . S
C371 C183 1.861 . S
C363 C42 1.886 . S
C403 C202 1.115 . S
C395 C96 1.117 . S
C427 C47 1.337 . S
C435 C150 1.266 . S
C459 C91 3.064 . S
C467 C164 3.024 1_655 S
C491 C2 1.897 . S
C499 C126 1.889 . S
C531 C145 1.115 . S
C523 C56 1.124 . S
C563 C169 3.044 . S
C555 C82 3.108 . S
C587 C11 1.991 . S
C595 C131 1.955 . S
C627 C160 1.720 . S
C619 C19 1.697 . S
C651 C50 1.477 . S
C659 C122 1.519 . S
C683 C99 1.573 . S
C691 C141 1.573 . S
C723 C198 1.549 . S
C715 C59 1.553 . S
C755 C217 1.375 . S
C747 C90 1.321 . S
C779 C10 1.409 . S
C787 C179 1.486 . S
