# Generated by pormake.
# Topology nom, (4,4)-cn, num edge types: 1
# Building blocks:
#     Node 0, Type 0, BuildingBlock: MUDLON_clean_linker_0, # of connection points: 4
#     Node 1, Type 0, BuildingBlock: MUDLON_clean_linker_0, # of connection points: 4
#     Node 2, Type 0, BuildingBlock: MUDLON_clean_linker_0, # of connection points: 4
#     Node 3, Type 0, BuildingBlock: MUDLON_clean_linker_0, # of connection points: 4
#     Node 4, Type 0, BuildingBlock: MUDLON_clean_linker_0, # of connection points: 4
#     Node 5, Type 0, BuildingBlock: MUDLON_clean_linker_0, # of connection points: 4
#     Node 6, Type 1, BuildingBlock: UXUYUI_clean_sbu_0, # of connection points: 4
#     Node 7, Type 1, BuildingBlock: UXUYUI_clean_sbu_0, # of connection points: 4
#     Node 8, Type 1, BuildingBlock: UXUYUI_clean_sbu_0, # of connection points: 4
#     Node 9, Type 1, BuildingBlock: UXUYUI_clean_sbu_0, # of connection points: 4
#     Node 10, Type 1, BuildingBlock: UXUYUI_clean_sbu_0, # of connection points: 4
#     Node 11, Type 1, BuildingBlock: UXUYUI_clean_sbu_0, # of connection points: 4
#     Edge 12, Type (0, 1), BuildingBlock: OJICUG_clean_linker_0, # of connection points: 2
#     Edge 13, Type (0, 1), BuildingBlock: OJICUG_clean_linker_0, # of connection points: 2
#     Edge 14, Type (0, 1), BuildingBlock: OJICUG_clean_linker_0, # of connection points: 2
#     Edge 15, Type (0, 1), BuildingBlock: OJICUG_clean_linker_0, # of connection points: 2
#     Edge 16, Type (0, 1), BuildingBlock: OJICUG_clean_linker_0, # of connection points: 2
#     Edge 17, Type (0, 1), BuildingBlock: OJICUG_clean_linker_0, # of connection points: 2
#     Edge 18, Type (0, 1), BuildingBlock: OJICUG_clean_linker_0, # of connection points: 2
#     Edge 19, Type (0, 1), BuildingBlock: OJICUG_clean_linker_0, # of connection points: 2
#     Edge 20, Type (0, 1), BuildingBlock: OJICUG_clean_linker_0, # of connection points: 2
#     Edge 21, Type (0, 1), BuildingBlock: OJICUG_clean_linker_0, # of connection points: 2
#     Edge 22, Type (0, 1), BuildingBlock: OJICUG_clean_linker_0, # of connection points: 2
#     Edge 23, Type (0, 1), BuildingBlock: OJICUG_clean_linker_0, # of connection points: 2
#     Edge 24, Type (0, 1), BuildingBlock: OJICUG_clean_linker_0, # of connection points: 2
#     Edge 25, Type (0, 1), BuildingBlock: OJICUG_clean_linker_0, # of connection points: 2
#     Edge 26, Type (0, 1), BuildingBlock: OJICUG_clean_linker_0, # of connection points: 2
#     Edge 27, Type (0, 1), BuildingBlock: OJICUG_clean_linker_0, # of connection points: 2
#     Edge 28, Type (0, 1), BuildingBlock: OJICUG_clean_linker_0, # of connection points: 2
#     Edge 29, Type (0, 1), BuildingBlock: OJICUG_clean_linker_0, # of connection points: 2
#     Edge 30, Type (0, 1), BuildingBlock: OJICUG_clean_linker_0, # of connection points: 2
#     Edge 31, Type (0, 1), BuildingBlock: OJICUG_clean_linker_0, # of connection points: 2
#     Edge 32, Type (0, 1), BuildingBlock: OJICUG_clean_linker_0, # of connection points: 2
#     Edge 33, Type (0, 1), BuildingBlock: OJICUG_clean_linker_0, # of connection points: 2
#     Edge 34, Type (0, 1), BuildingBlock: OJICUG_clean_linker_0, # of connection points: 2
#     Edge 35, Type (0, 1), BuildingBlock: OJICUG_clean_linker_0, # of connection points: 2
# Relax obj value: 0.039
# Max RMSD: 0.151
# Mean RMSD: 0.119
data_MOF--net-nom--node1-UXUYUI_clean_sbu_0--node2-MUDLON_clean_linker_0--edge1-OJICUG_clean_linker_0
_symmetry_space_group_name_H-M    P1
_symmetry_Int_Tables_number       1
_symmetry_cell_setting            triclinic
loop_
_symmetry_equiv_pos_as_xyz
'x, y, z'
_cell_length_a     58.648522
_cell_length_b     59.267742
_cell_length_c     59.179421
_cell_angle_alpha  90.322245
_cell_angle_beta   89.849637
_cell_angle_gamma 120.34942
loop_
_atom_site_label
_atom_site_type_symbol
_atom_site_fract_x
_atom_site_fract_y
_atom_site_fract_z
_atom_type_partial_charge
H0 H 0.15491 0.54808 0.33003 0.0
N1 N 0.1108 0.54694 0.3419 0.0
H2 H 0.19269 0.58281 0.30957 0.0
H3 H 0.11203 0.58878 0.32064 0.0
H4 H 0.14949 0.62305 0.29956 0.0
H5 H 0.12294 0.59143 0.36542 0.0
H6 H 0.14155 0.6025 0.40343 0.0
H7 H 0.11371 0.51485 0.37135 0.0
H8 H 0.13136 0.52528 0.40984 0.0
H9 H 0.08221 0.50174 0.32075 0.0
H10 H 0.07764 0.56624 0.34948 0.0
H11 H 0.03535 0.47981 0.31119 0.0
H12 H 0.03086 0.54503 0.33918 0.0
H13 H 0.88743 0.40196 0.28667 0.0
H14 H 0.86652 0.39374 0.24947 0.0
H15 H 0.90412 0.47705 0.23853 0.0
H16 H 0.92461 0.48499 0.27592 0.0
H17 H 0.90277 0.48509 0.31032 0.0
H18 H 0.86568 0.48151 0.33196 0.0
H19 H 0.85363 0.40974 0.36166 0.0
H20 H 0.8897 0.41271 0.33862 0.0
H21 H 0.95709 0.45377 0.28031 0.0
H22 H 0.00417 0.48065 0.28698 0.0
H23 H 0.98877 0.50878 0.34934 0.0
N24 N 0.91716 0.44782 0.30703 0.0
H25 H 0.94177 0.48305 0.34221 0.0
C26 C 0.13056 0.56559 0.32674 0.0
C27 C 0.15339 0.56412 0.32304 0.0
C28 C 0.17491 0.58394 0.31149 0.0
C29 C 0.17381 0.60542 0.30306 0.0
C30 C 0.15059 0.60648 0.3058 0.0
C31 C 0.12917 0.58684 0.3178 0.0
C32 C 0.11716 0.55232 0.36553 0.0
C33 C 0.12427 0.57674 0.37516 0.0
C34 C 0.13486 0.58301 0.39698 0.0
C35 C 0.13833 0.5649 0.40965 0.0
C36 C 0.12956 0.53991 0.40041 0.0
C37 C 0.11918 0.53377 0.37854 0.0
C38 C 0.08341 0.53555 0.33568 0.0
C39 C 0.07107 0.5113 0.32467 0.0
C40 C 0.04431 0.49893 0.31908 0.0
C41 C 0.02921 0.5107 0.32422 0.0
C42 C 0.04175 0.53525 0.33513 0.0
C43 C 0.06858 0.54754 0.34089 0.0
C44 C 0.90748 0.44396 0.28407 0.0
C45 C 0.89138 0.41839 0.27607 0.0
C46 C 0.87955 0.41377 0.25479 0.0
C47 C 0.88357 0.43475 0.24103 0.0
C48 C 0.90031 0.46046 0.24884 0.0
C49 C 0.91213 0.46505 0.27016 0.0
C50 C 0.89862 0.4488 0.32255 0.0
C51 C 0.89217 0.46864 0.32152 0.0
C52 C 0.87106 0.46667 0.33417 0.0
C53 C 0.85622 0.44507 0.34838 0.0
C54 C 0.86402 0.42626 0.35045 0.0
C55 C 0.88484 0.42804 0.33753 0.0
C56 C 0.94517 0.46666 0.31013 0.0
C57 C 0.96365 0.46633 0.29509 0.0
C58 C 0.99077 0.48147 0.29913 0.0
C59 C 1.00041 0.49686 0.31878 0.0
C60 C 0.98215 0.49756 0.3338 0.0
C61 C 0.95495 0.48262 0.32964 0.0
H62 H 0.49776 0.88465 0.48452 0.0
N63 N 0.49186 0.92312 0.46889 0.0
H64 H 0.46561 0.8464 0.50581 0.0
H65 H 0.44643 0.91687 0.48811 0.0
H66 H 0.41383 0.87839 0.50913 0.0
H67 H 0.44524 0.90779 0.44684 0.0
H68 H 0.43367 0.88914 0.40907 0.0
H69 H 0.5243 0.92176 0.43817 0.0
H70 H 0.51333 0.90423 0.39964 0.0
H71 H 0.53446 0.95274 0.49345 0.0
H72 H 0.47116 0.95421 0.45802 0.0
H73 H 0.5542 0.99918 0.50239 0.0
H74 H 0.49135 0.00096 0.46589 0.0
H75 H 0.62461 0.14238 0.52238 0.0
H76 H 0.63316 0.16126 0.56044 0.0
H77 H 0.54905 0.1235 0.57234 0.0
H78 H 0.5408 0.10527 0.5342 0.0
H79 H 0.53835 0.12599 0.49976 0.0
H80 H 0.53943 0.1618 0.47867 0.0
H81 H 0.61503 0.18068 0.45037 0.0
H82 H 0.61339 0.14439 0.47119 0.0
H83 H 0.59991 0.08645 0.49139 0.0
H84 H 0.57771 0.03958 0.48353 0.0
H85 H 0.50204 0.03407 0.49393 0.0
N86 N 0.57823 0.1148 0.502 0.0
H87 H 0.52452 0.08119 0.50069 0.0
C88 C 0.4745 0.90349 0.48469 0.0
C89 C 0.47974 0.88365 0.49033 0.0
C90 C 0.46125 0.86175 0.50228 0.0
C91 C 0.437 0.85919 0.50883 0.0
C92 C 0.43237 0.87983 0.50436 0.0
C93 C 0.45096 0.90182 0.49233 0.0
C94 C 0.48565 0.91591 0.44544 0.0
C95 C 0.46032 0.90736 0.43662 0.0
C96 C 0.45377 0.89682 0.41484 0.0
C97 C 0.47247 0.89488 0.40127 0.0
C98 C 0.49824 0.90485 0.40974 0.0
C99 C 0.50467 0.91514 0.43164 0.0
C100 C 0.50164 0.95008 0.47487 0.0
C101 C 0.52487 0.96317 0.4876 0.0
C102 C 0.53623 0.98978 0.49247 0.0
C103 C 0.52467 0.00405 0.48451 0.0
C104 C 0.50078 0.99065 0.47237 0.0
C105 C 0.48927 0.96387 0.46769 0.0
C106 C 0.58219 0.12245 0.52544 0.0
C107 C 0.60808 0.13786 0.53341 0.0
C108 C 0.61289 0.14854 0.55517 0.0
C109 C 0.59177 0.144 0.56942 0.0
C110 C 0.56575 0.12769 0.56168 0.0
C111 C 0.56099 0.11705 0.53988 0.0
C112 C 0.57585 0.13248 0.48695 0.0
C113 C 0.55478 0.13733 0.48855 0.0
C114 C 0.55557 0.15805 0.47664 0.0
C115 C 0.57743 0.17432 0.46297 0.0
C116 C 0.59774 0.16843 0.46051 0.0
C117 C 0.5969 0.14773 0.4724 0.0
C118 C 0.56401 0.08729 0.49679 0.0
C119 C 0.57853 0.07507 0.49184 0.0
C120 C 0.56576 0.04823 0.48758 0.0
C121 C 0.53802 0.03285 0.48841 0.0
C122 C 0.5234 0.04526 0.49303 0.0
C123 C 0.53627 0.07226 0.4971 0.0
H124 H 0.48921 0.62719 0.65343 0.0
N125 N 0.48666 0.58671 0.67447 0.0
H126 H 0.45445 0.62824 0.63163 0.0
H127 H 0.43985 0.54393 0.66155 0.0
H128 H 0.40486 0.54464 0.63956 0.0
H129 H 0.44495 0.55464 0.70167 0.0
H130 H 0.43633 0.56493 0.73953 0.0
H131 H 0.5187 0.62778 0.69978 0.0
H132 H 0.51034 0.63824 0.73797 0.0
H133 H 0.52913 0.60096 0.64935 0.0
H134 H 0.46976 0.53629 0.68777 0.0
H135 H 0.551 0.57606 0.64097 0.0
H136 H 0.49202 0.51161 0.68037 0.0
H137 H 0.62724 0.49888 0.62725 0.0
H138 H 0.63648 0.48827 0.58967 0.0
H139 H 0.55521 0.45953 0.57054 0.0
H140 H 0.54599 0.46907 0.60841 0.0
H141 H 0.5432 0.43644 0.63909 0.0
H142 H 0.54178 0.39995 0.65937 0.0
H143 H 0.60701 0.45451 0.70112 0.0
H144 H 0.60827 0.49098 0.68069 0.0
H145 H 0.60082 0.53852 0.65225 0.0
H146 H 0.57705 0.56178 0.65961 0.0
H147 H 0.50282 0.48922 0.65233 0.0
N148 N 0.58088 0.48808 0.64403 0.0
H149 H 0.52691 0.46607 0.6459 0.0
C150 C 0.46713 0.58562 0.65911 0.0
C151 C 0.47102 0.60906 0.65004 0.0
C152 C 0.45115 0.60956 0.63754 0.0
C153 C 0.42681 0.58652 0.63388 0.0
C154 C 0.42327 0.56277 0.64229 0.0
C155 C 0.44329 0.5623 0.65477 0.0
C156 C 0.4826 0.5905 0.69789 0.0
C157 C 0.45961 0.57266 0.70958 0.0
C158 C 0.45471 0.57857 0.73131 0.0
C159 C 0.47259 0.60247 0.74173 0.0
C160 C 0.49603 0.61981 0.7303 0.0
C161 C 0.50095 0.61382 0.7086 0.0
C162 C 0.49808 0.57073 0.66935 0.0
C163 C 0.5209 0.58139 0.65602 0.0
C164 C 0.53346 0.56717 0.65144 0.0
C165 C 0.52353 0.5419 0.66025 0.0
C166 C 0.50017 0.53093 0.67318 0.0
C167 C 0.48748 0.54515 0.6776 0.0
C168 C 0.58609 0.48501 0.6207 0.0
C169 C 0.61158 0.49069 0.61478 0.0
C170 C 0.6168 0.48467 0.59323 0.0
C171 C 0.59658 0.47292 0.57698 0.0
C172 C 0.57119 0.46814 0.58269 0.0
C173 C 0.56593 0.47393 0.60437 0.0
C174 C 0.57603 0.4665 0.65834 0.0
C175 C 0.55675 0.44061 0.65296 0.0
C176 C 0.55607 0.41974 0.66447 0.0
C177 C 0.57448 0.42437 0.68166 0.0
C178 C 0.59247 0.45031 0.68806 0.0
C179 C 0.59325 0.47115 0.67642 0.0
C180 C 0.56577 0.5007 0.64845 0.0
C181 C 0.57942 0.5277 0.65232 0.0
C182 C 0.56574 0.54095 0.65633 0.0
C183 C 0.53793 0.52745 0.65636 0.0
C184 C 0.52421 0.50023 0.65264 0.0
C185 C 0.53798 0.48695 0.64879 0.0
H186 H 0.14734 0.62644 0.83118 0.0
N187 N 0.11045 0.58643 0.80787 0.0
H188 H 0.1836 0.62805 0.85272 0.0
H189 H 0.11557 0.54425 0.81855 0.0
H190 H 0.1514 0.54543 0.84045 0.0
H191 H 0.11485 0.55283 0.77873 0.0
H192 H 0.13495 0.56356 0.74127 0.0
H193 H 0.12535 0.62999 0.78488 0.0
H194 H 0.14542 0.64094 0.74719 0.0
H195 H 0.08201 0.60471 0.82658 0.0
H196 H 0.07619 0.53414 0.8001 0.0
H197 H 0.03471 0.58098 0.8348 0.0
H198 H 0.02907 0.50996 0.80894 0.0
H199 H 0.88519 0.50912 0.85989 0.0
H200 H 0.86482 0.49604 0.89721 0.0
H201 H 0.90508 0.45274 0.90773 0.0
H202 H 0.92476 0.46542 0.87012 0.0
H203 H 0.90628 0.4442 0.83449 0.0
H204 H 0.87006 0.4088 0.81313 0.0
H205 H 0.84694 0.46306 0.78905 0.0
H206 H 0.88325 0.49828 0.81046 0.0
H207 H 0.95552 0.52883 0.86575 0.0
H208 H 0.00268 0.54913 0.85932 0.0
H209 H 0.98779 0.50583 0.7969 0.0
N210 N 0.91571 0.49423 0.83917 0.0
H211 H 0.94072 0.48477 0.80356 0.0
C212 C 0.12879 0.58535 0.82329 0.0
C213 C 0.14787 0.6086 0.83358 0.0
C214 C 0.16851 0.60942 0.84594 0.0
C215 C 0.17051 0.58686 0.84827 0.0
C216 C 0.15066 0.56323 0.83873 0.0
C217 C 0.12999 0.56247 0.82632 0.0
C218 C 0.11849 0.59066 0.78456 0.0
C219 C 0.12084 0.57186 0.77181 0.0
C220 C 0.13238 0.57805 0.75034 0.0
C221 C 0.14194 0.60317 0.74133 0.0
C222 C 0.13856 0.62153 0.75379 0.0
C223 C 0.12692 0.61528 0.77519 0.0
C224 C 0.08267 0.5713 0.81286 0.0
C225 C 0.0705 0.584 0.82277 0.0
C226 C 0.04351 0.57033 0.8276 0.0
C227 C 0.02802 0.54344 0.8227 0.0
C228 C 0.04032 0.53067 0.81277 0.0
C229 C 0.0674 0.54447 0.80785 0.0
C230 C 0.90643 0.48831 0.86223 0.0
C231 C 0.88982 0.49708 0.87042 0.0
C232 C 0.87832 0.48966 0.8918 0.0
C233 C 0.88325 0.47328 0.90551 0.0
C234 C 0.90052 0.46504 0.8975 0.0
C235 C 0.91192 0.47238 0.87604 0.0
C236 C 0.89734 0.4739 0.82411 0.0
C237 C 0.8936 0.4485 0.8244 0.0
C238 C 0.87285 0.42829 0.81223 0.0
C239 C 0.85549 0.43307 0.79951 0.0
C240 C 0.86009 0.45875 0.79845 0.0
C241 C 0.88077 0.47889 0.81068 0.0
C242 C 0.94384 0.50403 0.83589 0.0
C243 C 0.9622 0.52294 0.85098 0.0
C244 C 0.98935 0.53495 0.8471 0.0
C245 C 0.99913 0.5291 0.82761 0.0
C246 C 0.981 0.51039 0.81237 0.0
C247 C 0.95378 0.4982 0.8163 0.0
H248 H 0.53289 0.15459 0.99157 0.0
N249 N 0.53683 0.11564 0.97377 0.0
H250 H 0.56471 0.18978 0.01595 0.0
H251 H 0.58027 0.11793 0.99343 0.0
H252 H 0.61208 0.15281 0.0182 0.0
H253 H 0.5832 0.12768 0.95256 0.0
H254 H 0.59709 0.14678 0.91507 0.0
H255 H 0.50794 0.12273 0.94328 0.0
H256 H 0.52178 0.14212 0.90569 0.0
H257 H 0.49096 0.08647 0.99416 0.0
H258 H 0.55609 0.08292 0.96414 0.0
H259 H 0.46869 0.03961 0.00202 0.0
H260 H 0.53408 0.03605 0.97207 0.0
H261 H 0.39223 0.89532 0.02486 0.0
H262 H 0.38548 0.87453 0.06181 0.0
H263 H 0.4699 0.90799 0.06865 0.0
H264 H 0.47634 0.92841 0.03157 0.0
H265 H 0.48054 0.91774 0.99329 0.0
H266 H 0.48019 0.88206 0.97205 0.0
H267 H 0.39716 0.85011 0.95765 0.0
H268 H 0.39812 0.88635 0.97819 0.0
H269 H 0.44648 0.96185 0.03183 0.0
H270 H 0.47292 0.00856 0.02581 0.0
H271 H 0.49395 0.99497 0.95929 0.0
N272 N 0.43746 0.92277 0.0026 0.0
H273 H 0.46784 0.94817 0.96518 0.0
C274 C 0.55415 0.13372 0.99068 0.0
C275 C 0.54989 0.15387 0.99772 0.0
C276 C 0.56807 0.17389 0.01173 0.0
C277 C 0.59103 0.17417 0.01902 0.0
C278 C 0.59477 0.15333 0.01268 0.0
C279 C 0.57649 0.13327 0.99862 0.0
C280 C 0.54444 0.12382 0.95075 0.0
C281 C 0.56949 0.13034 0.94235 0.0
C282 C 0.5775 0.14146 0.92095 0.0
C283 C 0.56063 0.14618 0.90749 0.0
C284 C 0.53517 0.13856 0.91555 0.0
C285 C 0.52723 0.12753 0.937 0.0
C286 C 0.52502 0.08817 0.97853 0.0
C287 C 0.50049 0.07555 0.98941 0.0
C288 C 0.48791 0.04883 0.99398 0.0
C289 C 0.49966 0.0341 0.98773 0.0
C290 C 0.52442 0.04682 0.97692 0.0
C291 C 0.53708 0.07366 0.97244 0.0
C292 C 0.43466 0.91328 0.02546 0.0
C293 C 0.40924 0.8984 0.03453 0.0
C294 C 0.40547 0.88665 0.05565 0.0
C295 C 0.42716 0.88952 0.06815 0.0
C296 C 0.45276 0.90509 0.0593 0.0
C297 C 0.4565 0.91684 0.03815 0.0
C298 C 0.43928 0.90473 0.9872 0.0
C299 C 0.46244 0.90332 0.98515 0.0
C300 C 0.46213 0.88276 0.97313 0.0
C301 C 0.43859 0.86298 0.96322 0.0
C302 C 0.41578 0.86511 0.96466 0.0
C303 C 0.41621 0.88578 0.97645 0.0
C304 C 0.45595 0.95067 0.99963 0.0
C305 C 0.45741 0.9686 0.01617 0.0
C306 C 0.47229 0.99552 0.0126 0.0
C307 C 0.48572 0.00551 0.99214 0.0
C308 C 0.48435 0.9879 0.97547 0.0
C309 C 0.46937 0.96088 0.97899 0.0
H310 H 0.53745 0.40721 0.15409 0.0
N311 N 0.53826 0.44795 0.17351 0.0
H312 H 0.57259 0.40678 0.13214 0.0
H313 H 0.58361 0.49118 0.15896 0.0
H314 H 0.61902 0.49103 0.13695 0.0
H315 H 0.58178 0.48043 0.19895 0.0
H316 H 0.59133 0.47202 0.23689 0.0
H317 H 0.50549 0.41012 0.20113 0.0
H318 H 0.5143 0.40205 0.23978 0.0
H319 H 0.49708 0.43316 0.14663 0.0
H320 H 0.55312 0.49779 0.18755 0.0
H321 H 0.4745 0.45708 0.13753 0.0
H322 H 0.52999 0.52146 0.17949 0.0
H323 H 0.394 0.53091 0.12394 0.0
H324 H 0.3858 0.54258 0.08656 0.0
H325 H 0.46784 0.57281 0.06916 0.0
H326 H 0.476 0.56223 0.10685 0.0
H327 H 0.47457 0.5943 0.13757 0.0
H328 H 0.47348 0.62866 0.15944 0.0
H329 H 0.41297 0.5701 0.20242 0.0
H330 H 0.41324 0.53579 0.17947 0.0
H331 H 0.42148 0.49129 0.14794 0.0
H332 H 0.44645 0.46938 0.15547 0.0
H333 H 0.51932 0.54372 0.15158 0.0
N334 N 0.43996 0.54173 0.14154 0.0
H335 H 0.49391 0.5655 0.145 0.0
C336 C 0.55792 0.44909 0.15818 0.0
C337 C 0.55501 0.42558 0.15 0.0
C338 C 0.57508 0.42542 0.13742 0.0
C339 C 0.59864 0.44889 0.13284 0.0
C340 C 0.6012 0.47262 0.14039 0.0
C341 C 0.58095 0.47275 0.15288 0.0
C342 C 0.54295 0.44564 0.19706 0.0
C343 C 0.56683 0.4634 0.20775 0.0
C344 C 0.57219 0.45864 0.22964 0.0
C345 C 0.5537 0.43618 0.24143 0.0
C346 C 0.52925 0.41923 0.23108 0.0
C347 C 0.52403 0.42391 0.20909 0.0
C348 C 0.52646 0.46343 0.16796 0.0
C349 C 0.50442 0.45252 0.15369 0.0
C350 C 0.49144 0.46617 0.1487 0.0
C351 C 0.50012 0.49109 0.15807 0.0
C352 C 0.5228 0.50239 0.17188 0.0
C353 C 0.53596 0.48876 0.17668 0.0
C354 C 0.43545 0.54548 0.11825 0.0
C355 C 0.41006 0.53967 0.11187 0.0
C356 C 0.40543 0.54628 0.09044 0.0
C357 C 0.42618 0.55877 0.07477 0.0
C358 C 0.45147 0.56363 0.08089 0.0
C359 C 0.45613 0.55726 0.10245 0.0
C360 C 0.44355 0.56241 0.15668 0.0
C361 C 0.46132 0.58886 0.15187 0.0
C362 C 0.46079 0.60856 0.16456 0.0
C363 C 0.44278 0.60223 0.18253 0.0
C364 C 0.42657 0.57574 0.18834 0.0
C365 C 0.42687 0.55608 0.17544 0.0
C366 C 0.45574 0.52986 0.1458 0.0
C367 C 0.44284 0.50278 0.14874 0.0
C368 C 0.45721 0.49032 0.15286 0.0
C369 C 0.485 0.50471 0.15392 0.0
C370 C 0.49797 0.53202 0.15108 0.0
C371 C 0.48347 0.54451 0.14714 0.0
Li372 Li 0.63737 0.40355 0.42753 0.0
Li373 Li 0.62987 0.36241 0.4107 0.0
Li374 Li 0.67006 0.40455 0.40277 0.0
Li375 Li 0.629 0.39657 0.38626 0.0
C376 C 0.66312 0.38751 0.45409 0.0
N377 N 0.67254 0.3914 0.50004 0.0
C378 C 0.64714 0.36653 0.4682 0.0
C379 C 0.68412 0.41032 0.46326 0.0
C380 C 0.65217 0.36892 0.49142 0.0
C381 C 0.68849 0.41195 0.48656 0.0
C382 C 0.58043 0.35917 0.40365 0.0
C383 C 0.55228 0.32548 0.37718 0.0
N384 N 0.53088 0.32534 0.38626 0.0
C385 C 0.5582 0.35875 0.4127 0.0
C386 C 0.5775 0.34245 0.38573 0.0
C387 C 0.5333 0.34148 0.40369 0.0
C388 C 0.63979 0.44344 0.45628 0.0
N389 N 0.63008 0.41732 0.45398 0.0
C390 C 0.60853 0.4093 0.48982 0.0
C391 C 0.6144 0.40023 0.47009 0.0
C392 C 0.61844 0.43624 0.49285 0.0
C393 C 0.63419 0.45337 0.47564 0.0
H394 H 0.65167 0.45658 0.44299 0.0
H395 H 0.60649 0.37949 0.46761 0.0
C396 C 0.63232 0.31637 0.4131 0.0
N397 N 0.6161 0.32616 0.41681 0.0
C398 C 0.62425 0.29055 0.41874 0.0
C399 C 0.58296 0.28534 0.43225 0.0
C400 C 0.59183 0.31128 0.4263 0.0
C401 C 0.59932 0.27469 0.42861 0.0
H402 H 0.65191 0.3289 0.40645 0.0
H403 H 0.57958 0.31968 0.4298 0.0
C404 C 0.67544 0.4529 0.39782 0.0
N405 N 0.71631 0.50267 0.38828 0.0
C406 C 0.67653 0.46424 0.3769 0.0
C407 C 0.69498 0.46696 0.41397 0.0
C408 C 0.69739 0.48941 0.37238 0.0
C409 C 0.71553 0.49207 0.4088 0.0
C410 C 0.66442 0.38068 0.36356 0.0
C411 C 0.6716 0.40136 0.34857 0.0
C412 C 0.67615 0.36527 0.36157 0.0
C413 C 0.69037 0.40627 0.33184 0.0
C414 C 0.69493 0.37087 0.34466 0.0
N415 N 0.70159 0.39108 0.33027 0.0
C416 C 0.71729 0.4044 0.40704 0.0
C417 C 0.72162 0.43772 0.38242 0.0
C418 C 0.74273 0.40975 0.40159 0.0
N419 N 0.7071 0.41809 0.39723 0.0
C420 C 0.74729 0.44399 0.37675 0.0
C421 C 0.75791 0.42954 0.38602 0.0
H422 H 0.7052 0.38853 0.41839 0.0
H423 H 0.71295 0.44768 0.37404 0.0
C424 C 0.60423 0.41999 0.36323 0.0
N425 N 0.61173 0.40179 0.3614 0.0
C426 C 0.59258 0.4251 0.34488 0.0
C427 C 0.59607 0.39219 0.32336 0.0
C428 C 0.60746 0.38761 0.34215 0.0
C429 C 0.58865 0.41134 0.32446 0.0
H430 H 0.60766 0.43078 0.37886 0.0
H431 H 0.61339 0.37306 0.34125 0.0
O432 O 0.6583 0.3857 0.43137 0.0
O433 O 0.60495 0.37622 0.41213 0.0
O434 O 0.65505 0.42836 0.40259 0.0
O435 O 0.64666 0.37613 0.3805 0.0
H436 H 0.63086 0.3487 0.46135 0.0
H437 H 0.6969 0.42656 0.4525 0.0
H438 H 0.63984 0.35292 0.50258 0.0
H439 H 0.70459 0.42954 0.49392 0.0
H440 H 0.54971 0.31242 0.36332 0.0
H441 H 0.56019 0.37166 0.42653 0.0
H442 H 0.5945 0.34253 0.37849 0.0
H443 H 0.5159 0.34092 0.41053 0.0
H444 H 0.5966 0.3953 0.50265 0.0
H445 H 0.64182 0.47421 0.47694 0.0
H446 H 0.63781 0.28341 0.41617 0.0
H447 H 0.56361 0.27385 0.43984 0.0
H448 H 0.66152 0.45369 0.36423 0.0
H449 H 0.69431 0.45856 0.43029 0.0
H450 H 0.69856 0.49838 0.35623 0.0
H451 H 0.73086 0.50313 0.4211 0.0
H452 H 0.6632 0.41385 0.35011 0.0
H453 H 0.671 0.34927 0.37301 0.0
H454 H 0.6962 0.42231 0.32023 0.0
H455 H 0.70425 0.35918 0.34302 0.0
H456 H 0.75024 0.39816 0.40909 0.0
H457 H 0.75817 0.45904 0.36433 0.0
H458 H 0.58679 0.4397 0.34669 0.0
H459 H 0.5938 0.3813 0.30796 0.0
Li460 Li 0.25695 0.64509 0.59546 0.0
Li461 Li 0.28865 0.63452 0.57836 0.0
Li462 Li 0.2911 0.6761 0.5691 0.0
Li463 Li 0.25603 0.63516 0.5549 0.0
C464 C 0.3199 0.68139 0.60781 0.0
N465 N 0.36912 0.7173 0.62474 0.0
C466 C 0.34267 0.68277 0.59889 0.0
C467 C 0.32221 0.69823 0.62545 0.0
C468 C 0.36735 0.70107 0.60764 0.0
C469 C 0.34725 0.71626 0.63374 0.0
C470 C 0.24796 0.58954 0.58891 0.0
C471 C 0.25238 0.55156 0.58348 0.0
N472 N 0.2467 0.54552 0.6057 0.0
C473 C 0.24205 0.58289 0.61166 0.0
C474 C 0.25304 0.57369 0.57466 0.0
C475 C 0.24154 0.56057 0.61983 0.0
C476 C 0.20967 0.63058 0.61884 0.0
N477 N 0.23606 0.64043 0.62147 0.0
C478 C 0.23199 0.64088 0.6616 0.0
C479 C 0.24742 0.64567 0.64226 0.0
C480 C 0.20457 0.63036 0.65949 0.0
C481 C 0.19345 0.62532 0.63774 0.0
H482 H 0.20122 0.62649 0.60205 0.0
H483 H 0.26839 0.65305 0.64381 0.0
C484 C 0.32394 0.61539 0.56936 0.0
N485 N 0.30967 0.61921 0.58548 0.0
C486 C 0.34129 0.60675 0.57539 0.0
C487 C 0.32853 0.60574 0.6144 0.0
C488 C 0.3115 0.61442 0.60763 0.0
C489 C 0.34405 0.60216 0.59824 0.0
H490 H 0.32248 0.6198 0.55192 0.0
H491 H 0.3003 0.61815 0.62013 0.0
C492 C 0.24784 0.68301 0.57684 0.0
N493 N 0.23759 0.72098 0.59263 0.0
C494 C 0.23189 0.68962 0.56434 0.0
C495 C 0.25845 0.69561 0.59742 0.0
C496 C 0.227 0.70892 0.57258 0.0
C497 C 0.25306 0.71476 0.60512 0.0
C498 C 0.29317 0.64843 0.5258 0.0
C499 C 0.2956 0.66862 0.51203 0.0
C500 C 0.28836 0.62491 0.516 0.0
C501 C 0.29312 0.6649 0.48863 0.0
C502 C 0.28596 0.62194 0.49254 0.0
N503 N 0.28837 0.64183 0.47946 0.0
C504 C 0.33999 0.71508 0.55443 0.0
C505 C 0.31164 0.732 0.561 0.0
C506 C 0.36003 0.73938 0.54702 0.0
N507 N 0.31636 0.71175 0.56132 0.0
C508 C 0.33115 0.75672 0.55354 0.0
C509 C 0.35568 0.76059 0.54619 0.0
H510 H 0.34311 0.69861 0.55419 0.0
H511 H 0.29262 0.72906 0.56588 0.0
C512 C 0.22125 0.59421 0.5247 0.0
N513 N 0.23284 0.62012 0.52969 0.0
C514 C 0.20473 0.58392 0.50586 0.0
C515 C 0.21195 0.62703 0.49801 0.0
C516 C 0.22845 0.6365 0.51687 0.0
C517 C 0.19991 0.60042 0.49224 0.0
H518 H 0.22493 0.58158 0.53525 0.0
H519 H 0.23808 0.65705 0.52118 0.0
O520 O 0.29549 0.66362 0.59947 0.0
O521 O 0.24908 0.61161 0.58069 0.0
O522 O 0.25239 0.66382 0.56914 0.0
O523 O 0.29477 0.65143 0.54878 0.0
H524 H 0.34141 0.67016 0.58511 0.0
H525 H 0.30488 0.69742 0.63272 0.0
H526 H 0.38511 0.70241 0.60078 0.0
H527 H 0.3493 0.72941 0.64736 0.0
H528 H 0.2565 0.53926 0.57269 0.0
H529 H 0.23806 0.59489 0.62294 0.0
H530 H 0.25793 0.57869 0.55707 0.0
H531 H 0.2371 0.55525 0.63742 0.0
H532 H 0.2413 0.64466 0.67805 0.0
H533 H 0.17245 0.6174 0.63537 0.0
H534 H 0.35275 0.60412 0.56235 0.0
H535 H 0.33034 0.60296 0.63224 0.0
H536 H 0.22332 0.67991 0.54846 0.0
H537 H 0.27081 0.69078 0.60729 0.0
H538 H 0.21472 0.71426 0.56306 0.0
H539 H 0.26121 0.7247 0.621 0.0
H540 H 0.29898 0.68683 0.51932 0.0
H541 H 0.28606 0.60895 0.52641 0.0
H542 H 0.29483 0.68031 0.47778 0.0
H543 H 0.28206 0.60378 0.48474 0.0
H544 H 0.37868 0.7414 0.54179 0.0
H545 H 0.32673 0.77237 0.55285 0.0
H546 H 0.19566 0.56324 0.50211 0.0
H547 H 0.20909 0.64051 0.48779 0.0
Li548 Li 0.66901 0.29026 0.74316 0.0
Li549 Li 0.62763 0.25614 0.75874 0.0
Li550 Li 0.63538 0.25597 0.71766 0.0
Li551 Li 0.62536 0.2881 0.73491 0.0
C552 C 0.67453 0.24652 0.73576 0.0
N553 N 0.71287 0.23601 0.72066 0.0
C554 C 0.68113 0.23089 0.74859 0.0
C555 C 0.6873 0.25661 0.71519 0.0
C556 C 0.70061 0.22586 0.74069 0.0
C557 C 0.70664 0.25112 0.70785 0.0
C558 C 0.64234 0.29534 0.78676 0.0
C559 C 0.61779 0.29475 0.81971 0.0
N560 N 0.63665 0.29486 0.83312 0.0
C561 C 0.6616 0.29569 0.80085 0.0
C562 C 0.62035 0.29507 0.79622 0.0
C563 C 0.65832 0.29536 0.82426 0.0
C564 C 0.71445 0.33981 0.74517 0.0
N565 N 0.70535 0.31412 0.74934 0.0
C566 C 0.74674 0.32441 0.76574 0.0
C567 C 0.7209 0.30614 0.75935 0.0
C568 C 0.75658 0.35119 0.76207 0.0
C569 C 0.74012 0.35875 0.75135 0.0
H570 H 0.70145 0.34563 0.73758 0.0
H571 H 0.71306 0.2857 0.76302 0.0
C572 C 0.58822 0.22412 0.79136 0.0
N573 N 0.61385 0.23467 0.7849 0.0
C574 C 0.57911 0.20902 0.81093 0.0
C575 C 0.62286 0.21564 0.81666 0.0
C576 C 0.63111 0.23065 0.79704 0.0
C577 C 0.59653 0.20465 0.82392 0.0
H578 H 0.57486 0.22756 0.78148 0.0
H579 H 0.65143 0.2394 0.79158 0.0
C580 C 0.66519 0.30747 0.69442 0.0
N581 N 0.68666 0.33465 0.65481 0.0
C582 C 0.64962 0.31212 0.67947 0.0
C583 C 0.69183 0.31703 0.68934 0.0
C584 C 0.66078 0.32577 0.6595 0.0
C585 C 0.70227 0.33062 0.66921 0.0
C586 C 0.57716 0.24246 0.73006 0.0
C587 C 0.56372 0.22786 0.71095 0.0
C588 C 0.56428 0.25036 0.74531 0.0
C589 C 0.53758 0.22147 0.70738 0.0
C590 C 0.53814 0.24359 0.74114 0.0
N591 N 0.52545 0.22941 0.72241 0.0
C592 C 0.62967 0.21248 0.69194 0.0
C593 C 0.62145 0.24226 0.67211 0.0
C594 C 0.62359 0.19663 0.67272 0.0
N595 N 0.62873 0.23494 0.69122 0.0
C596 C 0.61516 0.22703 0.65256 0.0
C597 C 0.61609 0.2038 0.65269 0.0
H598 H 0.63478 0.20666 0.70752 0.0
H599 H 0.61995 0.25966 0.67217 0.0
C600 C 0.62064 0.33296 0.73933 0.0
N601 N 0.61025 0.30943 0.72867 0.0
C602 C 0.61251 0.35063 0.7334 0.0
C603 C 0.58236 0.31906 0.70631 0.0
C604 C 0.59133 0.30221 0.71253 0.0
C605 C 0.5934 0.34396 0.71637 0.0
H606 H 0.63597 0.33839 0.75186 0.0
H607 H 0.58384 0.28375 0.70381 0.0
O608 O 0.65562 0.25176 0.74338 0.0
O609 O 0.64482 0.29487 0.76382 0.0
O610 O 0.65472 0.29455 0.7143 0.0
O611 O 0.60285 0.2491 0.73366 0.0
H612 H 0.67135 0.22277 0.76449 0.0
H613 H 0.68205 0.26821 0.70485 0.0
H614 H 0.70597 0.21388 0.75048 0.0
H615 H 0.71664 0.25879 0.69194 0.0
H616 H 0.6008 0.29439 0.82728 0.0
H617 H 0.6787 0.29584 0.79376 0.0
H618 H 0.6054 0.29504 0.78553 0.0
H619 H 0.67295 0.29539 0.83537 0.0
H620 H 0.75873 0.31763 0.77379 0.0
H621 H 0.7466 0.37915 0.74854 0.0
H622 H 0.55875 0.20127 0.81602 0.0
H623 H 0.63694 0.21257 0.82595 0.0
H624 H 0.62905 0.30502 0.68309 0.0
H625 H 0.70441 0.31412 0.70083 0.0
H626 H 0.64886 0.32931 0.64773 0.0
H627 H 0.72282 0.33803 0.66506 0.0
H628 H 0.57335 0.2215 0.69902 0.0
H629 H 0.57449 0.26193 0.76003 0.0
H630 H 0.52695 0.2102 0.69265 0.0
H631 H 0.52799 0.2497 0.75274 0.0
H632 H 0.62416 0.17868 0.67368 0.0
H633 H 0.60966 0.23342 0.63748 0.0
H634 H 0.62195 0.3697 0.74141 0.0
H635 H 0.56733 0.31281 0.69336 0.0
Li636 Li 0.39037 0.636 0.92891 0.0
Li637 Li 0.39873 0.67718 0.91334 0.0
Li638 Li 0.35833 0.63617 0.90389 0.0
Li639 Li 0.40142 0.64576 0.88779 0.0
C640 C 0.36544 0.65138 0.95625 0.0
N641 N 0.35845 0.64654 0.00252 0.0
C642 C 0.38004 0.67301 0.97033 0.0
C643 C 0.34718 0.62733 0.96569 0.0
C644 C 0.37622 0.67015 0.99369 0.0
C645 C 0.34398 0.62526 0.98912 0.0
C646 C 0.44977 0.68181 0.91266 0.0
C647 C 0.48674 0.71231 0.89001 0.0
N648 N 0.50288 0.7182 0.90824 0.0
C649 C 0.46675 0.68804 0.93114 0.0
C650 C 0.45985 0.69394 0.89189 0.0
C651 C 0.49353 0.70655 0.92858 0.0
C652 C 0.38685 0.5943 0.95539 0.0
N653 N 0.39646 0.6205 0.95461 0.0
C654 C 0.41624 0.62627 0.991 0.0
C655 C 0.4111 0.63652 0.97181 0.0
C656 C 0.40664 0.59925 0.9924 0.0
C657 C 0.39175 0.5832 0.9742 0.0
H658 H 0.37558 0.58205 0.94132 0.0
H659 H 0.41869 0.65731 0.97067 0.0
C660 C 0.39114 0.71861 0.92339 0.0
N661 N 0.41093 0.71339 0.91979 0.0
C662 C 0.39684 0.74395 0.92845 0.0
C663 C 0.44335 0.75823 0.92679 0.0
C664 C 0.43673 0.73262 0.92138 0.0
C665 C 0.42323 0.76412 0.93034 0.0
H666 H 0.3708 0.70292 0.92259 0.0
H667 H 0.45226 0.72826 0.91875 0.0
C668 C 0.35248 0.59057 0.89428 0.0
N669 N 0.30851 0.54659 0.87744 0.0
C670 C 0.3508 0.5845 0.87127 0.0
C671 C 0.33191 0.57419 0.90876 0.0
C672 C 0.32839 0.56218 0.86308 0.0
C673 C 0.30981 0.55208 0.89991 0.0
C674 C 0.38127 0.68532 0.87416 0.0
C675 C 0.35865 0.68732 0.8768 0.0
C676 C 0.40327 0.70513 0.86299 0.0
C677 C 0.35852 0.70924 0.86841 0.0
C678 C 0.40238 0.72676 0.85486 0.0
N679 N 0.38022 0.72835 0.85772 0.0
C680 C 0.30362 0.617 0.91243 0.0
C681 C 0.31532 0.61672 0.87411 0.0
C682 C 0.27744 0.60824 0.9063 0.0
N683 N 0.32192 0.62122 0.89634 0.0
C684 C 0.28943 0.60801 0.86723 0.0
C685 C 0.27011 0.60398 0.88338 0.0
H686 H 0.30946 0.62106 0.92995 0.0
H687 H 0.33041 0.6207 0.86166 0.0
C688 C 0.43119 0.62733 0.86485 0.0
N689 N 0.41782 0.64036 0.86232 0.0
C690 C 0.44204 0.62182 0.84603 0.0
C691 C 0.42547 0.64362 0.82251 0.0
C692 C 0.41482 0.64856 0.84174 0.0
C693 C 0.43913 0.62991 0.82448 0.0
H694 H 0.4331 0.62094 0.88147 0.0
H695 H 0.40375 0.65855 0.84022 0.0
O696 O 0.36914 0.65369 0.93335 0.0
O697 O 0.42355 0.66357 0.91487 0.0
O698 O 0.37397 0.61267 0.90253 0.0
O699 O 0.38195 0.66422 0.88263 0.0
H700 H 0.39439 0.69173 0.96337 0.0
H701 H 0.33586 0.61035 0.95505 0.0
H702 H 0.38747 0.68669 0.0048 0.0
H703 H 0.33005 0.60672 0.99666 0.0
H704 H 0.49477 0.72191 0.87405 0.0
H705 H 0.45934 0.67871 0.9473 0.0
H706 H 0.44707 0.68935 0.87742 0.0
H707 H 0.50688 0.71162 0.94276 0.0
H708 H 0.42741 0.63941 0.00469 0.0
H709 H 0.38427 0.56235 0.97432 0.0
H710 H 0.38074 0.74758 0.93148 0.0
H711 H 0.46396 0.77329 0.92814 0.0
H712 H 0.36651 0.59701 0.85981 0.0
H713 H 0.33287 0.57866 0.9266 0.0
H714 H 0.32675 0.55731 0.84529 0.0
H715 H 0.29365 0.53931 0.91089 0.0
H716 H 0.34151 0.67236 0.88559 0.0
H717 H 0.4209 0.70393 0.86067 0.0
H718 H 0.34122 0.71111 0.87049 0.0
H719 H 0.41931 0.74229 0.84628 0.0
H720 H 0.26319 0.6052 0.91934 0.0
H721 H 0.28489 0.6055 0.84935 0.0
H722 H 0.45258 0.61136 0.84831 0.0
H723 H 0.42239 0.64984 0.80619 0.0
Li724 Li 0.73828 0.40327 0.07696 0.0
Li725 Li 0.7712 0.39452 0.09308 0.0
Li726 Li 0.76817 0.39985 0.05245 0.0
Li727 Li 0.73408 0.36006 0.06952 0.0
C728 C 0.77902 0.44957 0.08035 0.0
N729 N 0.78028 0.49622 0.08802 0.0
C730 C 0.78286 0.45992 0.1022 0.0
C731 C 0.77614 0.4631 0.06236 0.0
C732 C 0.78335 0.48348 0.10575 0.0
C733 C 0.77676 0.48661 0.06658 0.0
C734 C 0.72524 0.35802 0.11598 0.0
C735 C 0.72979 0.32492 0.13554 0.0
N736 N 0.71036 0.32161 0.15009 0.0
C737 C 0.70534 0.35431 0.13112 0.0
C738 C 0.7376 0.34323 0.11818 0.0
C739 C 0.69809 0.3358 0.14826 0.0
C740 C 0.70308 0.42219 0.06805 0.0
N741 N 0.71753 0.41876 0.08414 0.0
C742 C 0.69868 0.43255 0.11307 0.0
C743 C 0.71586 0.42397 0.10627 0.0
C744 C 0.68286 0.43555 0.09694 0.0
C745 C 0.68558 0.43069 0.0741 0.0
H746 H 0.70446 0.41752 0.05063 0.0
H747 H 0.72727 0.42063 0.11875 0.0
C748 C 0.8147 0.39885 0.11861 0.0
N749 N 0.79249 0.40062 0.11922 0.0
C750 C 0.83038 0.40441 0.13793 0.0
C751 C 0.79965 0.41288 0.15823 0.0
C752 C 0.78463 0.40719 0.13855 0.0
C753 C 0.82303 0.41177 0.15807 0.0
H754 H 0.82037 0.39328 0.10312 0.0
H755 H 0.7667 0.40817 0.13862 0.0
C756 C 0.72499 0.38267 0.02584 0.0
N757 N 0.71649 0.38172 0.97984 0.0
C758 C 0.71497 0.35924 0.0137 0.0
C759 C 0.73049 0.40555 0.01459 0.0
C760 C 0.71084 0.35918 0.99045 0.0
C761 C 0.72615 0.40469 0.99133 0.0
C762 C 0.78743 0.36817 0.05287 0.0
C763 C 0.77575 0.34781 0.03706 0.0
C764 C 0.81475 0.3853 0.05235 0.0
C765 C 0.79163 0.34481 0.02111 0.0
C766 C 0.82994 0.38168 0.03609 0.0
N767 N 0.81816 0.36167 0.02095 0.0
C768 C 0.81105 0.43823 0.02664 0.0
C769 C 0.78402 0.3988 0.00669 0.0
C770 C 0.82768 0.44874 0.00791 0.0
N771 N 0.78959 0.41371 0.02568 0.0
C772 C 0.79999 0.40853 0.98759 0.0
C773 C 0.82223 0.43382 0.988 0.0
H774 H 0.81548 0.44953 0.04207 0.0
H775 H 0.76736 0.37915 0.00637 0.0
C776 C 0.68362 0.31783 0.06227 0.0
N777 N 0.7088 0.32385 0.06665 0.0
C778 C 0.66411 0.29204 0.05783 0.0
C779 C 0.69652 0.27887 0.06358 0.0
C780 C 0.71542 0.30497 0.06804 0.0
C781 C 0.67057 0.27221 0.05797 0.0
H782 H 0.67895 0.33328 0.06143 0.0
H783 H 0.73552 0.31027 0.07203 0.0
O784 O 0.77782 0.42619 0.0766 0.0
O785 O 0.7325 0.37608 0.09914 0.0
O786 O 0.72901 0.38307 0.04865 0.0
O787 O 0.77215 0.37162 0.06845 0.0
H788 H 0.78524 0.44979 0.11631 0.0
H789 H 0.77345 0.45552 0.04532 0.0
H790 H 0.78613 0.49163 0.1226 0.0
H791 H 0.77444 0.49722 0.05282 0.0
H792 H 0.73918 0.31333 0.13744 0.0
H793 H 0.6956 0.36564 0.12963 0.0
H794 H 0.75308 0.34586 0.10665 0.0
H795 H 0.6827 0.33272 0.16011 0.0
H796 H 0.69693 0.43562 0.1309 0.0
H797 H 0.6739 0.4329 0.0611 0.0
H798 H 0.84829 0.40341 0.13698 0.0
H799 H 0.7929 0.41792 0.17346 0.0
H800 H 0.71079 0.34136 0.02201 0.0
H801 H 0.7382 0.42383 0.02367 0.0
H802 H 0.70324 0.34122 0.98083 0.0
H803 H 0.73046 0.42229 0.9824 0.0
H804 H 0.7546 0.33482 0.03674 0.0
H805 H 0.82407 0.40154 0.06407 0.0
H806 H 0.78281 0.32921 0.00872 0.0
H807 H 0.85107 0.39487 0.03542 0.0
H808 H 0.84484 0.46817 0.00916 0.0
H809 H 0.79478 0.39637 0.97259 0.0
H810 H 0.64445 0.28787 0.05336 0.0
H811 H 0.70223 0.26412 0.06416 0.0
Li812 Li 0.39926 0.77897 0.25573 0.0
Li813 Li 0.35679 0.74502 0.24112 0.0
Li814 Li 0.39917 0.74503 0.23222 0.0
Li815 Li 0.38982 0.77703 0.21444 0.0
C816 C 0.38705 0.73991 0.28389 0.0
N817 N 0.39957 0.73948 0.32881 0.0
C818 C 0.37007 0.73914 0.30087 0.0
C819 C 0.41017 0.74002 0.28974 0.0
C820 C 0.37681 0.73906 0.32348 0.0
C821 C 0.41621 0.73991 0.31254 0.0
C822 C 0.35138 0.78834 0.23663 0.0
C823 C 0.31778 0.7871 0.21234 0.0
N824 N 0.31025 0.79756 0.22927 0.0
C825 C 0.34345 0.79929 0.25372 0.0
C826 C 0.33854 0.78236 0.21574 0.0
C827 C 0.32257 0.80372 0.24969 0.0
C828 C 0.44146 0.81565 0.28403 0.0
N829 N 0.41483 0.80162 0.2811 0.0
C830 C 0.4081 0.81965 0.31496 0.0
C831 C 0.39815 0.80333 0.29608 0.0
C832 C 0.4355 0.83422 0.31855 0.0
C833 C 0.45228 0.83202 0.30285 0.0
H834 H 0.45433 0.81424 0.27176 0.0
H835 H 0.37706 0.79174 0.29346 0.0
C836 C 0.30626 0.69936 0.23816 0.0
N837 N 0.3205 0.72296 0.24863 0.0
C838 C 0.28066 0.68155 0.24542 0.0
C839 C 0.28492 0.7126 0.27416 0.0
C840 C 0.31024 0.72998 0.26609 0.0
C841 C 0.26999 0.6879 0.26398 0.0
H842 H 0.31514 0.69392 0.22478 0.0
H843 H 0.32216 0.74865 0.27439 0.0
C844 C 0.44751 0.78852 0.22427 0.0
N845 N 0.49722 0.79771 0.21286 0.0
C846 C 0.45821 0.79861 0.20304 0.0
C847 C 0.46224 0.78338 0.23977 0.0
C848 C 0.48334 0.80306 0.19757 0.0
C849 C 0.48729 0.78807 0.23366 0.0
C850 C 0.35907 0.72798 0.1912 0.0
C851 C 0.37252 0.71989 0.17678 0.0
C852 C 0.33478 0.72478 0.18443 0.0
C853 C 0.36181 0.70939 0.15561 0.0
C854 C 0.3247 0.71417 0.16314 0.0
N855 N 0.33833 0.7068 0.14927 0.0
C856 C 0.4017 0.69969 0.23943 0.0
C857 C 0.4305 0.72647 0.21047 0.0
C858 C 0.40823 0.68048 0.23497 0.0
N859 N 0.41265 0.72203 0.22708 0.0
C860 C 0.43777 0.70787 0.20557 0.0
C861 C 0.4262 0.68429 0.21761 0.0
H862 H 0.38724 0.69644 0.25229 0.0
H863 H 0.43825 0.74387 0.2003 0.0
C864 C 0.39662 0.82081 0.18975 0.0
N865 N 0.39575 0.7975 0.18788 0.0
C866 C 0.40186 0.83668 0.17081 0.0
C867 C 0.40573 0.80452 0.14847 0.0
C868 C 0.40036 0.78929 0.1678 0.0
C869 C 0.4066 0.82862 0.14982 0.0
H870 H 0.3935 0.82721 0.20602 0.0
H871 H 0.40054 0.77121 0.16686 0.0
O872 O 0.38108 0.74056 0.26165 0.0
O873 O 0.37159 0.78355 0.24037 0.0
O874 O 0.42286 0.78392 0.22985 0.0
O875 O 0.36922 0.73811 0.21208 0.0
H876 H 0.35204 0.73891 0.29666 0.0
H877 H 0.42327 0.7401 0.27683 0.0
H878 H 0.36396 0.73871 0.3368 0.0
H879 H 0.43411 0.74012 0.31731 0.0
H880 H 0.30769 0.78252 0.19624 0.0
H881 H 0.35325 0.8043 0.26994 0.0
H882 H 0.34471 0.77438 0.2022 0.0
H883 H 0.31617 0.81207 0.26281 0.0
H884 H 0.39448 0.82051 0.32685 0.0
H885 H 0.47354 0.84309 0.30496 0.0
H886 H 0.26988 0.6625 0.23741 0.0
H887 H 0.27735 0.71812 0.28857 0.0
H888 H 0.44728 0.803 0.19092 0.0
H889 H 0.4544 0.77576 0.25631 0.0
H890 H 0.4918 0.81078 0.18118 0.0
H891 H 0.49882 0.78404 0.24547 0.0
H892 H 0.3912 0.72198 0.18174 0.0
H893 H 0.3236 0.7301 0.19556 0.0
H894 H 0.37216 0.70329 0.14423 0.0
H895 H 0.30596 0.71168 0.15768 0.0
H896 H 0.39891 0.66258 0.24468 0.0
H897 H 0.45129 0.71136 0.19175 0.0
H898 H 0.40274 0.85529 0.17269 0.0
H899 H 0.40912 0.79745 0.13263 0.0
C900 C 0.19848 0.63379 0.27013 0.0
C901 C 0.19768 0.62751 0.29306 0.0
H902 H 0.22238 0.6579 0.24275 0.0
C903 C 0.22025 0.64186 0.30647 0.0
H904 H 0.18123 0.62286 0.25952 0.0
C905 C 0.24343 0.66205 0.2971 0.0
C906 C 0.2446 0.66794 0.27402 0.0
H907 H 0.21998 0.63729 0.32421 0.0
H908 H 0.26072 0.67254 0.30775 0.0
C909 C 0.22191 0.65369 0.26059 0.0
C910 C 0.59172 0.20717 0.43149 0.0
C911 C 0.58033 0.19864 0.45297 0.0
H912 H 0.60624 0.23763 0.40679 0.0
C913 C 0.5736 0.21459 0.46564 0.0
H914 H 0.59679 0.19521 0.42115 0.0
C915 C 0.57898 0.23885 0.45741 0.0
C916 C 0.59128 0.24782 0.43631 0.0
H917 H 0.56523 0.20888 0.4824 0.0
H918 H 0.57453 0.25106 0.46804 0.0
C919 C 0.59715 0.23149 0.42328 0.0
C920 C 0.40964 0.60454 0.60436 0.0
C921 C 0.40476 0.58784 0.6228 0.0
H922 H 0.39445 0.62225 0.58224 0.0
C923 C 0.37906 0.57409 0.63179 0.0
H924 H 0.42913 0.61518 0.59686 0.0
C925 C 0.35907 0.57793 0.62324 0.0
C926 C 0.36428 0.59558 0.60549 0.0
H927 H 0.37464 0.56122 0.6461 0.0
H928 H 0.33965 0.56749 0.63089 0.0
C929 C 0.38965 0.60837 0.59581 0.0
C930 C 0.82301 0.414 0.7674 0.0
C931 C 0.83152 0.41117 0.78883 0.0
H932 H 0.79308 0.39712 0.74188 0.0
C933 C 0.81597 0.38783 0.80075 0.0
H934 H 0.83472 0.43162 0.75767 0.0
C935 C 0.79205 0.36814 0.79179 0.0
C936 C 0.78312 0.37125 0.77064 0.0
H937 H 0.82171 0.38518 0.81746 0.0
H938 H 0.78009 0.35093 0.8019 0.0
C939 C 0.79912 0.39425 0.75838 0.0
C940 C 0.45085 0.82792 0.96274 0.0
C941 C 0.43711 0.83922 0.95298 0.0
H942 H 0.45728 0.7954 0.96316 0.0
C943 C 0.42039 0.82647 0.93445 0.0
H944 H 0.46357 0.83687 0.97724 0.0
C945 C 0.41647 0.80244 0.92668 0.0
C946 C 0.42947 0.79079 0.93702 0.0
H947 H 0.40992 0.8348 0.92616 0.0
H948 H 0.40298 0.79278 0.91275 0.0
C949 C 0.44718 0.80406 0.95476 0.0
C950 C 0.61633 0.431 0.10346 0.0
C951 C 0.62097 0.44813 0.12166 0.0
H952 H 0.63214 0.41356 0.08144 0.0
C953 C 0.64675 0.46287 0.13034 0.0
H954 H 0.59675 0.41957 0.09625 0.0
C955 C 0.66713 0.45957 0.12175 0.0
C956 C 0.6622 0.44155 0.10422 0.0
H957 H 0.65094 0.4761 0.14447 0.0
H958 H 0.68662 0.47071 0.12918 0.0
C959 C 0.6367 0.42776 0.09482 0.0
C960 C 0.40071 0.83383 0.53712 0.0
C961 C 0.41603 0.83421 0.51865 0.0
H962 H 0.36995 0.81031 0.56064 0.0
C963 C 0.41097 0.81034 0.50915 0.0
H964 H 0.4042 0.85193 0.54482 0.0
C965 C 0.39134 0.78665 0.51801 0.0
C966 C 0.37627 0.78611 0.53673 0.0
H967 H 0.42195 0.80995 0.49455 0.0
H968 H 0.38776 0.76871 0.50992 0.0
C969 C 0.38106 0.81001 0.54612 0.0
C970 C 0.581 0.40116 0.71435 0.0
C971 C 0.57686 0.40249 0.69113 0.0
H972 H 0.58866 0.38123 0.74069 0.0
C973 C 0.57697 0.38379 0.67654 0.0
H974 H 0.58087 0.41524 0.72601 0.0
C975 C 0.58183 0.36461 0.68482 0.0
C976 C 0.58645 0.36342 0.708 0.0
H977 H 0.5744 0.38461 0.6585 0.0
H978 H 0.58292 0.35133 0.67283 0.0
C979 C 0.5856 0.38174 0.72271 0.0
C980 C 0.20606 0.60485 0.878 0.0
C981 C 0.19428 0.58866 0.85905 0.0
H982 H 0.2392 0.62255 0.90039 0.0
C983 C 0.20659 0.57581 0.84938 0.0
H984 H 0.19694 0.61478 0.88606 0.0
C985 C 0.23067 0.57996 0.85781 0.0
C986 C 0.24307 0.59712 0.8761 0.0
H987 H 0.19823 0.56337 0.83466 0.0
H988 H 0.23985 0.57013 0.84969 0.0
C989 C 0.23017 0.60906 0.8864 0.0
C990 C 0.60494 0.21016 0.04783 0.0
C991 C 0.61182 0.19724 0.03156 0.0
H992 H 0.61815 0.24374 0.06926 0.0
C993 C 0.63862 0.20793 0.02587 0.0
H994 H 0.58455 0.20222 0.05292 0.0
C995 C 0.65787 0.23165 0.03532 0.0
C996 C 0.65076 0.24527 0.05062 0.0
H997 H 0.64461 0.1987 0.0132 0.0
H998 H 0.67813 0.23999 0.02969 0.0
C999 C 0.62418 0.23393 0.05722 0.0
C1000 C 0.41372 0.61761 0.19961 0.0
C1001 C 0.4392 0.62285 0.1937 0.0
H1002 H 0.38974 0.63282 0.21172 0.0
C1003 C 0.4607 0.64832 0.19709 0.0
H1004 H 0.39657 0.59847 0.1968 0.0
C1005 C 0.45665 0.66819 0.2054 0.0
C1006 C 0.43108 0.66296 0.21074 0.0
H1007 H 0.48064 0.65301 0.19307 0.0
H1008 H 0.4735 0.6877 0.20746 0.0
C1009 C 0.40974 0.63737 0.20812 0.0
C1010 C 0.82962 0.46264 0.36734 0.0
C1011 C 0.83171 0.44121 0.35968 0.0
H1012 H 0.80465 0.47577 0.38171 0.0
C1013 C 0.80955 0.41591 0.36179 0.0
H1014 H 0.84631 0.48236 0.36635 0.0
C1015 C 0.78594 0.41219 0.37099 0.0
C1016 C 0.78372 0.43364 0.37804 0.0
H1017 H 0.81004 0.39893 0.35563 0.0
H1018 H 0.76908 0.39252 0.3718 0.0
C1019 C 0.80581 0.4589 0.37625 0.0
C1020 C 0.17081 0.56454 0.43706 0.0
C1021 C 0.15273 0.57269 0.43161 0.0
H1022 H 0.1999 0.567 0.46031 0.0
C1023 C 0.14963 0.58931 0.44676 0.0
H1024 H 0.17416 0.55219 0.42562 0.0
C1025 C 0.16463 0.59801 0.46659 0.0
C1026 C 0.18298 0.59017 0.4718 0.0
H1027 H 0.13563 0.59568 0.44329 0.0
H1028 H 0.16186 0.61088 0.47788 0.0
C1029 C 0.18567 0.5731 0.45694 0.0
C1030 C 0.6179 0.16103 0.60545 0.0
C1031 C 0.59694 0.15767 0.5916 0.0
H1032 H 0.64048 0.17832 0.63551 0.0
C1033 C 0.58172 0.1687 0.5985 0.0
H1034 H 0.62985 0.15258 0.60073 0.0
C1035 C 0.58766 0.18323 0.61849 0.0
C1036 C 0.60901 0.18715 0.63207 0.0
H1037 H 0.56563 0.16677 0.58813 0.0
H1038 H 0.57558 0.19153 0.62324 0.0
C1039 C 0.62384 0.17557 0.62549 0.0
C1040 C 0.45408 0.59164 0.78114 0.0
C1041 C 0.4659 0.60999 0.76369 0.0
H1042 H 0.43637 0.58353 0.81401 0.0
C1043 C 0.47002 0.63532 0.76689 0.0
H1044 H 0.45082 0.57204 0.77926 0.0
C1045 C 0.46185 0.64192 0.78679 0.0
C1046 C 0.44946 0.62341 0.80402 0.0
H1047 H 0.47881 0.64984 0.75369 0.0
H1048 H 0.46503 0.66151 0.78861 0.0
C1049 C 0.44602 0.5983 0.80112 0.0
C1050 C 0.85946 0.43773 0.93416 0.0
C1051 C 0.86934 0.46379 0.92753 0.0
H1052 H 0.83742 0.40803 0.95854 0.0
C1053 C 0.86467 0.48028 0.94157 0.0
H1054 H 0.86242 0.42438 0.9237 0.0
C1055 C 0.84985 0.47074 0.96138 0.0
C1056 C 0.83939 0.44448 0.96769 0.0
H1057 H 0.87229 0.50056 0.93715 0.0
H1058 H 0.846 0.48378 0.97142 0.0
C1059 C 0.84476 0.42823 0.95401 0.0
C1060 C 0.43722 0.86266 0.09448 0.0
C1061 C 0.42289 0.87523 0.08974 0.0
H1062 H 0.44355 0.83841 0.1172 0.0
C1063 C 0.40372 0.87305 0.10531 0.0
H1064 H 0.45192 0.8637 0.08275 0.0
C1065 C 0.39869 0.85826 0.12496 0.0
C1066 C 0.41265 0.84525 0.12945 0.0
H1067 H 0.39252 0.88269 0.10226 0.0
H1068 H 0.38342 0.85652 0.13637 0.0
C1069 C 0.43217 0.84786 0.11409 0.0
C1070 C 0.5764 0.44942 0.27932 0.0
C1071 C 0.56065 0.42965 0.2637 0.0
H1072 H 0.59789 0.45932 0.31041 0.0
C1073 C 0.55287 0.40361 0.26897 0.0
H1074 H 0.58247 0.46964 0.27603 0.0
C1075 C 0.56124 0.3976 0.28896 0.0
C1076 C 0.57783 0.41748 0.30416 0.0
H1077 H 0.54101 0.38785 0.2573 0.0
H1078 H 0.55493 0.37734 0.29235 0.0
C1079 C 0.58497 0.44343 0.29924 0.0
C1080 C 0.47441 0.86476 0.37217 0.0
C1081 C 0.46458 0.88102 0.37907 0.0
H1082 H 0.47292 0.83727 0.34769 0.0
C1083 C 0.44604 0.88267 0.36519 0.0
H1084 H 0.48832 0.86257 0.38257 0.0
C1085 C 0.43691 0.86779 0.34537 0.0
C1086 C 0.44634 0.85117 0.33882 0.0
H1087 H 0.4384 0.89534 0.36968 0.0
H1088 H 0.4224 0.86925 0.33517 0.0
C1089 C 0.4655 0.85013 0.35222 0.0
C1090 C 0.58245 0.44079 0.5447 0.0
C1091 C 0.60166 0.46441 0.55469 0.0
H1092 H 0.57234 0.41374 0.5173 0.0
C1093 C 0.62613 0.47914 0.54371 0.0
H1094 H 0.5635 0.42869 0.55274 0.0
C1095 C 0.63149 0.47017 0.52361 0.0
C1096 C 0.61242 0.44633 0.51382 0.0
H1097 H 0.6413 0.4976 0.5507 0.0
H1098 H 0.65083 0.4817 0.51604 0.0
C1099 C 0.58771 0.43195 0.5245 0.0
C1100 C 0.18069 0.63482 0.71806 0.0
C1101 C 0.15698 0.61072 0.71977 0.0
H1102 H 0.21418 0.65996 0.69767 0.0
C1103 C 0.14854 0.59353 0.70116 0.0
H1104 H 0.18791 0.64836 0.73218 0.0
C1105 C 0.16367 0.60015 0.68141 0.0
C1106 C 0.18768 0.624 0.67991 0.0
H1107 H 0.13029 0.5749 0.70193 0.0
H1108 H 0.15692 0.58628 0.66752 0.0
C1109 C 0.19589 0.64135 0.69838 0.0
C1110 C 0.55355 0.15258 0.86666 0.0
C1111 C 0.57007 0.16039 0.88575 0.0
H1112 H 0.54907 0.16006 0.83208 0.0
C1113 C 0.59545 0.18257 0.88424 0.0
H1114 H 0.53398 0.13542 0.86724 0.0
C1115 C 0.60403 0.1968 0.86419 0.0
C1116 C 0.58748 0.18913 0.84511 0.0
H1117 H 0.60847 0.18939 0.89876 0.0
H1118 H 0.62344 0.21418 0.86384 0.0
C1119 C 0.56218 0.16676 0.84655 0.0
C1120 C 0.39773 0.55376 0.04105 0.0
C1121 C 0.42177 0.56814 0.05278 0.0
H1122 H 0.37389 0.55236 0.01317 0.0
C1123 C 0.44115 0.59229 0.0439 0.0
H1124 H 0.38246 0.53492 0.04717 0.0
C1125 C 0.43646 0.60202 0.02411 0.0
C1126 C 0.41213 0.58804 0.01274 0.0
H1127 H 0.45978 0.60413 0.05255 0.0
H1128 H 0.45193 0.62066 0.0178 0.0
C1129 C 0.39293 0.56362 0.02133 0.0
C1130 C 0.86599 0.4092 0.20483 0.0
C1131 C 0.86935 0.42971 0.21912 0.0
H1132 H 0.84863 0.38731 0.17453 0.0
C1133 C 0.85804 0.44475 0.21278 0.0
H1134 H 0.87466 0.39741 0.20909 0.0
C1135 C 0.84335 0.43913 0.19288 0.0
C1136 C 0.83955 0.41831 0.17879 0.0
H1137 H 0.85998 0.46051 0.22349 0.0
H1138 H 0.83492 0.45112 0.18853 0.0
C1139 C 0.85128 0.40358 0.18489 0.0
loop_
_geom_bond_atom_site_label_1
_geom_bond_atom_site_label_2
_geom_bond_distance
_geom_bond_site_symmetry_2
_ccdc_geom_bond_type
H0 C27 0.929 . S
N1 C26 1.433 . S
N1 C32 1.435 . S
N1 C38 1.423 . S
H2 C28 0.930 . S
H3 C31 0.931 . S
H4 C30 0.929 . S
H5 C33 0.930 . S
H6 C34 0.932 . S
H7 C37 0.929 . S
H8 C36 0.931 . S
H9 C39 0.929 . S
H10 C43 0.932 . S
H11 C40 0.931 . S
H12 C42 0.929 . S
H13 C45 0.929 . S
H14 C46 0.930 . S
H15 C48 0.929 . S
H16 C49 0.931 . S
H17 C51 0.930 . S
H18 C52 0.932 . S
H19 C54 0.931 . S
H20 C55 0.929 . S
H21 C57 0.929 . S
H22 C58 0.963 . S
H23 C60 0.929 . S
N24 C44 1.433 . S
N24 C50 1.435 . S
N24 C56 1.423 . S
H25 C61 0.932 . S
C26 N1 1.433 . S
C26 C27 1.363 . S
C26 C31 1.370 . S
C27 H0 0.929 . S
C27 C26 1.363 . S
C27 C28 1.385 . S
C28 H2 0.930 . S
C28 C27 1.385 . S
C28 C29 1.357 . S
C29 C28 1.357 . S
C29 C30 1.406 . S
C30 H4 0.929 . S
C30 C29 1.406 . S
C30 C31 1.391 . S
C31 H3 0.931 . S
C31 C26 1.370 . S
C31 C30 1.391 . S
C32 N1 1.435 . S
C32 C33 1.358 . S
C32 C37 1.371 . S
C33 H5 0.930 . S
C33 C32 1.358 . S
C33 C34 1.405 . S
C34 H6 0.932 . S
C34 C33 1.405 . S
C34 C35 1.383 . S
C35 C34 1.383 . S
C35 C36 1.393 . S
C36 H8 0.931 . S
C36 C35 1.393 . S
C36 C37 1.382 . S
C37 H7 0.929 . S
C37 C32 1.371 . S
C37 C36 1.382 . S
C38 N1 1.423 . S
C38 C39 1.362 . S
C38 C43 1.388 . S
C39 H9 0.929 . S
C39 C38 1.362 . S
C39 C40 1.376 . S
C40 H11 0.931 . S
C40 C39 1.376 . S
C40 C41 1.396 . S
C41 C40 1.396 . S
C41 C42 1.348 . S
C41 C59 1.472 1_455 S
C42 H12 0.929 . S
C42 C41 1.348 . S
C42 C43 1.443 . S
C43 H10 0.932 . S
C43 C38 1.388 . S
C43 C42 1.443 . S
C44 N24 1.433 . S
C44 C45 1.363 . S
C44 C49 1.370 . S
C45 H13 0.929 . S
C45 C44 1.363 . S
C45 C46 1.385 . S
C46 H14 0.930 . S
C46 C45 1.385 . S
C46 C47 1.357 . S
C47 C46 1.357 . S
C47 C48 1.406 . S
C48 H15 0.929 . S
C48 C47 1.406 . S
C48 C49 1.391 . S
C49 H16 0.931 . S
C49 C44 1.370 . S
C49 C48 1.391 . S
C50 N24 1.435 . S
C50 C51 1.358 . S
C50 C55 1.371 . S
C51 H17 0.930 . S
C51 C50 1.358 . S
C51 C52 1.405 . S
C52 H18 0.932 . S
C52 C51 1.405 . S
C52 C53 1.383 . S
C53 C52 1.383 . S
C53 C54 1.393 . S
C54 H19 0.931 . S
C54 C53 1.393 . S
C54 C55 1.382 . S
C55 H20 0.929 . S
C55 C50 1.371 . S
C55 C54 1.382 . S
C56 N24 1.423 . S
C56 C57 1.362 . S
C56 C61 1.388 . S
C57 H21 0.929 . S
C57 C56 1.362 . S
C57 C58 1.376 . S
C58 H22 0.963 . S
C58 C57 1.376 . S
C58 C59 1.396 . S
C59 C41 1.472 1_655 S
C59 C58 1.396 . S
C59 C60 1.348 . S
C60 H23 0.929 . S
C60 C59 1.348 . S
C60 C61 1.443 . S
C61 H25 0.932 . S
C61 C56 1.388 . S
C61 C60 1.443 . S
H62 C89 0.929 . S
N63 C88 1.433 . S
N63 C94 1.435 . S
N63 C100 1.423 . S
H64 C90 0.930 . S
H65 C93 0.931 . S
H66 C92 0.929 . S
H67 C95 0.930 . S
H68 C96 0.932 . S
H69 C99 0.929 . S
H70 C98 0.931 . S
H71 C101 0.929 . S
H72 C105 0.932 . S
H73 C102 0.931 . S
H74 C104 0.963 . S
H75 C107 0.929 . S
H76 C108 0.930 . S
H77 C110 0.929 . S
H78 C111 0.931 . S
H79 C113 0.930 . S
H80 C114 0.932 . S
H81 C116 0.931 . S
H82 C117 0.929 . S
H83 C119 0.929 . S
H84 C120 0.931 . S
H85 C122 0.929 . S
N86 C106 1.433 . S
N86 C112 1.435 . S
N86 C118 1.423 . S
H87 C123 0.932 . S
C88 N63 1.433 . S
C88 C89 1.363 . S
C88 C93 1.370 . S
C89 H62 0.929 . S
C89 C88 1.363 . S
C89 C90 1.385 . S
C90 H64 0.930 . S
C90 C89 1.385 . S
C90 C91 1.357 . S
C91 C90 1.357 . S
C91 C92 1.406 . S
C92 H66 0.929 . S
C92 C91 1.406 . S
C92 C93 1.391 . S
C93 H65 0.931 . S
C93 C88 1.370 . S
C93 C92 1.391 . S
C94 N63 1.435 . S
C94 C95 1.358 . S
C94 C99 1.371 . S
C95 H67 0.930 . S
C95 C94 1.358 . S
C95 C96 1.405 . S
C96 H68 0.932 . S
C96 C95 1.405 . S
C96 C97 1.383 . S
C97 C96 1.383 . S
C97 C98 1.393 . S
C98 H70 0.931 . S
C98 C97 1.393 . S
C98 C99 1.382 . S
C99 H69 0.929 . S
C99 C94 1.371 . S
C99 C98 1.382 . S
C100 N63 1.423 . S
C100 C101 1.362 . S
C100 C105 1.388 . S
C101 H71 0.929 . S
C101 C100 1.362 . S
C101 C102 1.376 . S
C102 H73 0.931 . S
C102 C101 1.376 . S
C102 C103 1.396 1_565 S
C103 C102 1.396 1_545 S
C103 C104 1.348 . S
C103 C121 1.472 . S
C104 H74 0.963 . S
C104 C103 1.348 . S
C104 C105 1.412 1_545 S
C105 H72 0.932 . S
C105 C100 1.388 . S
C105 C104 1.412 1_565 S
C106 N86 1.433 . S
C106 C107 1.363 . S
C106 C111 1.370 . S
C107 H75 0.929 . S
C107 C106 1.363 . S
C107 C108 1.385 . S
C108 H76 0.930 . S
C108 C107 1.385 . S
C108 C109 1.357 . S
C109 C108 1.357 . S
C109 C110 1.406 . S
C110 H77 0.929 . S
C110 C109 1.406 . S
C110 C111 1.391 . S
C111 H78 0.931 . S
C111 C106 1.370 . S
C111 C110 1.391 . S
C112 N86 1.435 . S
C112 C113 1.358 . S
C112 C117 1.371 . S
C113 H79 0.930 . S
C113 C112 1.358 . S
C113 C114 1.405 . S
C114 H80 0.932 . S
C114 C113 1.405 . S
C114 C115 1.383 . S
C115 C114 1.383 . S
C115 C116 1.393 . S
C116 H81 0.931 . S
C116 C115 1.393 . S
C116 C117 1.382 . S
C117 H82 0.929 . S
C117 C112 1.371 . S
C117 C116 1.382 . S
C118 N86 1.423 . S
C118 C119 1.362 . S
C118 C123 1.388 . S
C119 H83 0.929 . S
C119 C118 1.362 . S
C119 C120 1.376 . S
C120 H84 0.931 . S
C120 C119 1.376 . S
C120 C121 1.396 . S
C121 C103 1.472 . S
C121 C120 1.396 . S
C121 C122 1.348 . S
C122 H85 0.929 . S
C122 C121 1.348 . S
C122 C123 1.443 . S
C123 H87 0.932 . S
C123 C118 1.388 . S
C123 C122 1.443 . S
H124 C151 0.929 . S
N125 C150 1.433 . S
N125 C156 1.435 . S
N125 C162 1.423 . S
H126 C152 0.930 . S
H127 C155 0.931 . S
H128 C154 0.929 . S
H129 C157 0.930 . S
H130 C158 0.932 . S
H131 C161 0.929 . S
H132 C160 0.931 . S
H133 C163 0.929 . S
H134 C167 0.932 . S
H135 C164 0.931 . S
H136 C166 0.929 . S
H137 C169 0.929 . S
H138 C170 0.930 . S
H139 C172 0.929 . S
H140 C173 0.931 . S
H141 C175 0.930 . S
H142 C176 0.932 . S
H143 C178 0.931 . S
H144 C179 0.929 . S
H145 C181 0.929 . S
H146 C182 0.931 . S
H147 C184 0.929 . S
N148 C168 1.433 . S
N148 C174 1.435 . S
N148 C180 1.423 . S
H149 C185 0.932 . S
C150 N125 1.433 . S
C150 C151 1.363 . S
C150 C155 1.370 . S
C151 H124 0.929 . S
C151 C150 1.363 . S
C151 C152 1.385 . S
C152 H126 0.930 . S
C152 C151 1.385 . S
C152 C153 1.357 . S
C153 C152 1.357 . S
C153 C154 1.406 . S
C154 H128 0.929 . S
C154 C153 1.406 . S
C154 C155 1.391 . S
C155 H127 0.931 . S
C155 C150 1.370 . S
C155 C154 1.391 . S
C156 N125 1.435 . S
C156 C157 1.358 . S
C156 C161 1.371 . S
C157 H129 0.930 . S
C157 C156 1.358 . S
C157 C158 1.405 . S
C158 H130 0.932 . S
C158 C157 1.405 . S
C158 C159 1.383 . S
C159 C158 1.383 . S
C159 C160 1.393 . S
C160 H132 0.931 . S
C160 C159 1.393 . S
C160 C161 1.382 . S
C161 H131 0.929 . S
C161 C156 1.371 . S
C161 C160 1.382 . S
C162 N125 1.423 . S
C162 C163 1.362 . S
C162 C167 1.388 . S
C163 H133 0.929 . S
C163 C162 1.362 . S
C163 C164 1.376 . S
C164 H135 0.931 . S
C164 C163 1.376 . S
C164 C165 1.396 . S
C165 C164 1.396 . S
C165 C166 1.348 . S
C165 C183 1.472 . S
C166 H136 0.929 . S
C166 C165 1.348 . S
C166 C167 1.443 . S
C167 H134 0.932 . S
C167 C162 1.388 . S
C167 C166 1.443 . S
C168 N148 1.433 . S
C168 C169 1.363 . S
C168 C173 1.370 . S
C169 H137 0.929 . S
C169 C168 1.363 . S
C169 C170 1.385 . S
C170 H138 0.930 . S
C170 C169 1.385 . S
C170 C171 1.357 . S
C171 C170 1.357 . S
C171 C172 1.406 . S
C172 H139 0.929 . S
C172 C171 1.406 . S
C172 C173 1.391 . S
C173 H140 0.931 . S
C173 C168 1.370 . S
C173 C172 1.391 . S
C174 N148 1.435 . S
C174 C175 1.358 . S
C174 C179 1.371 . S
C175 H141 0.930 . S
C175 C174 1.358 . S
C175 C176 1.405 . S
C176 H142 0.932 . S
C176 C175 1.405 . S
C176 C177 1.383 . S
C177 C176 1.383 . S
C177 C178 1.393 . S
C178 H143 0.931 . S
C178 C177 1.393 . S
C178 C179 1.382 . S
C179 H144 0.929 . S
C179 C174 1.371 . S
C179 C178 1.382 . S
C180 N148 1.423 . S
C180 C181 1.362 . S
C180 C185 1.388 . S
C181 H145 0.929 . S
C181 C180 1.362 . S
C181 C182 1.376 . S
C182 H146 0.931 . S
C182 C181 1.376 . S
C182 C183 1.396 . S
C183 C165 1.472 . S
C183 C182 1.396 . S
C183 C184 1.348 . S
C184 H147 0.929 . S
C184 C183 1.348 . S
C184 C185 1.443 . S
C185 H149 0.932 . S
C185 C180 1.388 . S
C185 C184 1.443 . S
H186 C213 0.929 . S
N187 C212 1.433 . S
N187 C218 1.435 . S
N187 C224 1.423 . S
H188 C214 0.930 . S
H189 C217 0.931 . S
H190 C216 0.929 . S
H191 C219 0.930 . S
H192 C220 0.932 . S
H193 C223 0.929 . S
H194 C222 0.931 . S
H195 C225 0.929 . S
H196 C229 0.932 . S
H197 C226 0.931 . S
H198 C228 0.929 . S
H199 C231 0.929 . S
H200 C232 0.930 . S
H201 C234 0.929 . S
H202 C235 0.931 . S
H203 C237 0.930 . S
H204 C238 0.932 . S
H205 C240 0.931 . S
H206 C241 0.929 . S
H207 C243 0.929 . S
H208 C244 0.939 . S
H209 C246 0.929 . S
N210 C230 1.433 . S
N210 C236 1.435 . S
N210 C242 1.423 . S
H211 C247 0.932 . S
C212 N187 1.433 . S
C212 C213 1.363 . S
C212 C217 1.370 . S
C213 H186 0.929 . S
C213 C212 1.363 . S
C213 C214 1.385 . S
C214 H188 0.930 . S
C214 C213 1.385 . S
C214 C215 1.357 . S
C215 C214 1.357 . S
C215 C216 1.406 . S
C216 H190 0.929 . S
C216 C215 1.406 . S
C216 C217 1.391 . S
C217 H189 0.931 . S
C217 C212 1.370 . S
C217 C216 1.391 . S
C218 N187 1.435 . S
C218 C219 1.358 . S
C218 C223 1.371 . S
C219 H191 0.930 . S
C219 C218 1.358 . S
C219 C220 1.405 . S
C220 H192 0.932 . S
C220 C219 1.405 . S
C220 C221 1.383 . S
C221 C220 1.383 . S
C221 C222 1.393 . S
C222 H194 0.931 . S
C222 C221 1.393 . S
C222 C223 1.382 . S
C223 H193 0.929 . S
C223 C218 1.371 . S
C223 C222 1.382 . S
C224 N187 1.423 . S
C224 C225 1.362 . S
C224 C229 1.388 . S
C225 H195 0.929 . S
C225 C224 1.362 . S
C225 C226 1.376 . S
C226 H197 0.931 . S
C226 C225 1.376 . S
C226 C227 1.396 . S
C227 C226 1.396 . S
C227 C228 1.348 . S
C227 C245 1.472 1_455 S
C228 H198 0.929 . S
C228 C227 1.348 . S
C228 C229 1.443 . S
C229 H196 0.932 . S
C229 C224 1.388 . S
C229 C228 1.443 . S
C230 N210 1.433 . S
C230 C231 1.363 . S
C230 C235 1.370 . S
C231 H199 0.929 . S
C231 C230 1.363 . S
C231 C232 1.385 . S
C232 H200 0.930 . S
C232 C231 1.385 . S
C232 C233 1.357 . S
C233 C232 1.357 . S
C233 C234 1.406 . S
C234 H201 0.929 . S
C234 C233 1.406 . S
C234 C235 1.391 . S
C235 H202 0.931 . S
C235 C230 1.370 . S
C235 C234 1.391 . S
C236 N210 1.435 . S
C236 C237 1.358 . S
C236 C241 1.371 . S
C237 H203 0.930 . S
C237 C236 1.358 . S
C237 C238 1.405 . S
C238 H204 0.932 . S
C238 C237 1.405 . S
C238 C239 1.383 . S
C239 C238 1.383 . S
C239 C240 1.393 . S
C240 H205 0.931 . S
C240 C239 1.393 . S
C240 C241 1.382 . S
C241 H206 0.929 . S
C241 C236 1.371 . S
C241 C240 1.382 . S
C242 N210 1.423 . S
C242 C243 1.362 . S
C242 C247 1.388 . S
C243 H207 0.929 . S
C243 C242 1.362 . S
C243 C244 1.376 . S
C244 H208 0.939 . S
C244 C243 1.376 . S
C244 C245 1.396 . S
C245 C227 1.472 1_655 S
C245 C244 1.396 . S
C245 C246 1.348 . S
C246 H209 0.929 . S
C246 C245 1.348 . S
C246 C247 1.443 . S
C247 H211 0.932 . S
C247 C242 1.388 . S
C247 C246 1.443 . S
H248 C275 0.929 . S
N249 C274 1.433 . S
N249 C280 1.435 . S
N249 C286 1.423 . S
H250 C276 0.930 . S
H251 C279 0.931 . S
H252 C278 0.929 . S
H253 C281 0.930 . S
H254 C282 0.932 . S
H255 C285 0.929 . S
H256 C284 0.931 . S
H257 C287 0.929 . S
H258 C291 0.932 . S
H259 C288 0.960 . S
H260 C290 0.929 . S
H261 C293 0.929 . S
H262 C294 0.930 . S
H263 C296 0.929 . S
H264 C297 0.931 . S
H265 C299 0.930 . S
H266 C300 0.932 . S
H267 C302 0.931 . S
H268 C303 0.929 . S
H269 C305 0.929 . S
H270 C306 0.931 1_545 S
H271 C308 0.929 . S
N272 C292 1.433 . S
N272 C298 1.435 1_554 S
N272 C304 1.423 . S
H273 C309 0.932 . S
C274 N249 1.433 . S
C274 C275 1.363 . S
C274 C279 1.411 . S
C275 H248 0.929 . S
C275 C274 1.363 . S
C275 C276 1.385 . S
C276 H250 0.930 . S
C276 C275 1.385 . S
C276 C277 1.357 1_556 S
C277 C276 1.357 1_554 S
C277 C278 1.406 . S
C278 H252 0.929 . S
C278 C277 1.406 . S
C278 C279 1.352 1_554 S
C279 H251 0.931 . S
C279 C274 1.411 . S
C279 C278 1.352 1_556 S
C280 N249 1.435 . S
C280 C281 1.358 . S
C280 C285 1.371 . S
C281 H253 0.930 . S
C281 C280 1.358 . S
C281 C282 1.405 . S
C282 H254 0.932 . S
C282 C281 1.405 . S
C282 C283 1.383 . S
C283 C282 1.383 . S
C283 C284 1.393 . S
C284 H256 0.931 . S
C284 C283 1.393 . S
C284 C285 1.382 . S
C285 H255 0.929 . S
C285 C280 1.371 . S
C285 C284 1.382 . S
C286 N249 1.423 . S
C286 C287 1.362 . S
C286 C291 1.388 . S
C287 H257 0.929 . S
C287 C286 1.362 . S
C287 C288 1.376 . S
C288 H259 0.960 . S
C288 C287 1.376 . S
C288 C289 1.396 . S
C289 C288 1.396 . S
C289 C290 1.348 . S
C289 C307 1.452 1_545 S
C290 H260 0.929 . S
C290 C289 1.348 . S
C290 C291 1.443 . S
C291 H258 0.932 . S
C291 C286 1.388 . S
C291 C290 1.443 . S
C292 N272 1.433 . S
C292 C293 1.363 . S
C292 C297 1.370 . S
C293 H261 0.929 . S
C293 C292 1.363 . S
C293 C294 1.385 . S
C294 H262 0.930 . S
C294 C293 1.385 . S
C294 C295 1.357 . S
C295 C294 1.357 . S
C295 C296 1.406 . S
C296 H263 0.929 . S
C296 C295 1.406 . S
C296 C297 1.391 . S
C297 H264 0.931 . S
C297 C292 1.370 . S
C297 C296 1.391 . S
C298 N272 1.435 1_556 S
C298 C299 1.358 1_556 S
C298 C303 1.371 . S
C299 H265 0.930 . S
C299 C298 1.358 1_554 S
C299 C300 1.405 1_554 S
C300 H266 0.932 . S
C300 C299 1.405 1_556 S
C300 C301 1.383 . S
C301 C300 1.383 . S
C301 C302 1.393 . S
C302 H267 0.931 . S
C302 C301 1.393 . S
C302 C303 1.382 . S
C303 H268 0.929 . S
C303 C298 1.371 . S
C303 C302 1.382 . S
C304 N272 1.423 . S
C304 C305 1.362 . S
C304 C309 1.388 1_554 S
C305 H269 0.929 . S
C305 C304 1.362 . S
C305 C306 1.376 . S
C306 H270 0.931 1_565 S
C306 C305 1.376 . S
C306 C307 1.396 1_554 S
C307 C289 1.452 1_565 S
C307 C306 1.396 1_556 S
C307 C308 1.370 . S
C308 H271 0.929 . S
C308 C307 1.370 . S
C308 C309 1.443 . S
C309 H273 0.932 . S
C309 C304 1.388 1_556 S
C309 C308 1.443 . S
H310 C337 0.929 . S
N311 C336 1.433 . S
N311 C342 1.435 . S
N311 C348 1.423 . S
H312 C338 0.930 . S
H313 C341 0.931 . S
H314 C340 0.929 . S
H315 C343 0.930 . S
H316 C344 0.932 . S
H317 C347 0.929 . S
H318 C346 0.931 . S
H319 C349 0.929 . S
H320 C353 0.932 . S
H321 C350 0.931 . S
H322 C352 0.929 . S
H323 C355 0.929 . S
H324 C356 0.930 . S
H325 C358 0.929 . S
H326 C359 0.931 . S
H327 C361 0.930 . S
H328 C362 0.932 . S
H329 C364 0.931 . S
H330 C365 0.929 . S
H331 C367 0.929 . S
H332 C368 0.931 . S
H333 C370 0.929 . S
N334 C354 1.433 . S
N334 C360 1.435 . S
N334 C366 1.423 . S
H335 C371 0.932 . S
C336 N311 1.433 . S
C336 C337 1.363 . S
C336 C341 1.370 . S
C337 H310 0.929 . S
C337 C336 1.363 . S
C337 C338 1.385 . S
C338 H312 0.930 . S
C338 C337 1.385 . S
C338 C339 1.357 . S
C339 C338 1.357 . S
C339 C340 1.406 . S
C340 H314 0.929 . S
C340 C339 1.406 . S
C340 C341 1.391 . S
C341 H313 0.931 . S
C341 C336 1.370 . S
C341 C340 1.391 . S
C342 N311 1.435 . S
C342 C343 1.358 . S
C342 C347 1.371 . S
C343 H315 0.930 . S
C343 C342 1.358 . S
C343 C344 1.405 . S
C344 H316 0.932 . S
C344 C343 1.405 . S
C344 C345 1.383 . S
C345 C344 1.383 . S
C345 C346 1.393 . S
C346 H318 0.931 . S
C346 C345 1.393 . S
C346 C347 1.382 . S
C347 H317 0.929 . S
C347 C342 1.371 . S
C347 C346 1.382 . S
C348 N311 1.423 . S
C348 C349 1.362 . S
C348 C353 1.388 . S
C349 H319 0.929 . S
C349 C348 1.362 . S
C349 C350 1.376 . S
C350 H321 0.931 . S
C350 C349 1.376 . S
C350 C351 1.396 . S
C351 C350 1.396 . S
C351 C352 1.348 . S
C351 C369 1.472 . S
C352 H322 0.929 . S
C352 C351 1.348 . S
C352 C353 1.443 . S
C353 H320 0.932 . S
C353 C348 1.388 . S
C353 C352 1.443 . S
C354 N334 1.433 . S
C354 C355 1.363 . S
C354 C359 1.370 . S
C355 H323 0.929 . S
C355 C354 1.363 . S
C355 C356 1.385 . S
C356 H324 0.930 . S
C356 C355 1.385 . S
C356 C357 1.357 . S
C357 C356 1.357 . S
C357 C358 1.406 . S
C358 H325 0.929 . S
C358 C357 1.406 . S
C358 C359 1.391 . S
C359 H326 0.931 . S
C359 C354 1.370 . S
C359 C358 1.391 . S
C360 N334 1.435 . S
C360 C361 1.358 . S
C360 C365 1.371 . S
C361 H327 0.930 . S
C361 C360 1.358 . S
C361 C362 1.405 . S
C362 H328 0.932 . S
C362 C361 1.405 . S
C362 C363 1.383 . S
C363 C362 1.383 . S
C363 C364 1.393 . S
C364 H329 0.931 . S
C364 C363 1.393 . S
C364 C365 1.382 . S
C365 H330 0.929 . S
C365 C360 1.371 . S
C365 C364 1.382 . S
C366 N334 1.423 . S
C366 C367 1.362 . S
C366 C371 1.388 . S
C367 H331 0.929 . S
C367 C366 1.362 . S
C367 C368 1.376 . S
C368 H332 0.931 . S
C368 C367 1.376 . S
C368 C369 1.396 . S
C369 C351 1.472 . S
C369 C368 1.396 . S
C369 C370 1.348 . S
C370 H333 0.929 . S
C370 C369 1.348 . S
C370 C371 1.443 . S
C371 H335 0.932 . S
C371 C366 1.388 . S
C371 C370 1.443 . S
Li372 N389 1.990 . S
Li372 O432 1.956 . S
Li372 O433 1.970 . S
Li372 O434 1.961 . S
Li373 N397 1.990 . S
Li373 O432 1.970 . S
Li373 O433 1.956 . S
Li373 O435 1.961 . S
Li374 N419 1.990 . S
Li374 O432 1.961 . S
Li374 O434 1.956 . S
Li374 O435 1.970 . S
Li375 N425 1.990 . S
Li375 O433 1.961 . S
Li375 O434 1.970 . S
Li375 O435 1.956 . S
C376 C378 1.348 . S
C376 C379 1.356 . S
C376 O432 1.325 . S
N377 C380 1.314 . S
N377 C381 1.279 . S
C378 C376 1.348 . S
C378 C380 1.353 . S
C378 H436 0.929 . S
C379 C376 1.356 . S
C379 C381 1.358 . S
C379 H437 0.930 . S
C380 N377 1.314 . S
C380 C378 1.353 . S
C380 H438 0.930 . S
C381 N377 1.279 . S
C381 C379 1.358 . S
C381 H439 0.930 . S
C382 C385 1.348 . S
C382 C386 1.356 . S
C382 O433 1.325 . S
C383 N384 1.279 . S
C383 C386 1.358 . S
C383 H440 0.930 . S
N384 C383 1.279 . S
N384 C387 1.314 . S
C385 C382 1.348 . S
C385 C387 1.353 . S
C385 H441 0.929 . S
C386 C382 1.356 . S
C386 C383 1.358 . S
C386 H442 0.930 . S
C387 N384 1.314 . S
C387 C385 1.353 . S
C387 H443 0.930 . S
C388 N389 1.314 . S
C388 C393 1.353 . S
C388 H394 0.930 . S
N389 Li372 1.990 . S
N389 C388 1.314 . S
N389 C391 1.279 . S
C390 C391 1.358 . S
C390 C392 1.356 . S
C390 H444 0.930 . S
C391 N389 1.279 . S
C391 C390 1.358 . S
C391 H395 0.930 . S
C392 C390 1.356 . S
C392 C393 1.348 . S
C393 C388 1.353 . S
C393 C392 1.348 . S
C393 H445 0.929 . S
H394 C388 0.930 . S
H395 C391 0.930 . S
C396 N397 1.314 . S
C396 C398 1.353 . S
C396 H402 0.930 . S
N397 Li373 1.990 . S
N397 C396 1.314 . S
N397 C400 1.279 . S
C398 C396 1.353 . S
C398 C401 1.348 . S
C398 H446 0.929 . S
C399 C400 1.358 . S
C399 C401 1.356 . S
C399 H447 0.930 . S
C400 N397 1.279 . S
C400 C399 1.358 . S
C400 H403 0.930 . S
C401 C398 1.348 . S
C401 C399 1.356 . S
H402 C396 0.930 . S
H403 C400 0.930 . S
C404 C406 1.348 . S
C404 C407 1.356 . S
C404 O434 1.325 . S
N405 C408 1.314 . S
N405 C409 1.279 . S
C406 C404 1.348 . S
C406 C408 1.353 . S
C406 H448 0.929 . S
C407 C404 1.356 . S
C407 C409 1.358 . S
C407 H449 0.930 . S
C408 N405 1.314 . S
C408 C406 1.353 . S
C408 H450 0.930 . S
C409 N405 1.279 . S
C409 C407 1.358 . S
C409 H451 0.930 . S
C410 C411 1.348 . S
C410 C412 1.356 . S
C410 O435 1.325 . S
C411 C410 1.348 . S
C411 C413 1.353 . S
C411 H452 0.929 . S
C412 C410 1.356 . S
C412 C414 1.358 . S
C412 H453 0.930 . S
C413 C411 1.353 . S
C413 N415 1.314 . S
C413 H454 0.930 . S
C414 C412 1.358 . S
C414 N415 1.279 . S
C414 H455 0.930 . S
N415 C413 1.314 . S
N415 C414 1.279 . S
C416 C418 1.353 . S
C416 N419 1.314 . S
C416 H422 0.930 . S
C417 N419 1.279 . S
C417 C420 1.358 . S
C417 H423 0.930 . S
C418 C416 1.353 . S
C418 C421 1.348 . S
C418 H456 0.929 . S
N419 Li374 1.990 . S
N419 C416 1.314 . S
N419 C417 1.279 . S
C420 C417 1.358 . S
C420 C421 1.356 . S
C420 H457 0.930 . S
C421 C418 1.348 . S
C421 C420 1.356 . S
H422 C416 0.930 . S
H423 C417 0.930 . S
C424 N425 1.314 . S
C424 C426 1.353 . S
C424 H430 0.930 . S
N425 Li375 1.990 . S
N425 C424 1.314 . S
N425 C428 1.279 . S
C426 C424 1.353 . S
C426 C429 1.348 . S
C426 H458 0.929 . S
C427 C428 1.358 . S
C427 C429 1.356 . S
C427 H459 0.930 . S
C428 N425 1.279 . S
C428 C427 1.358 . S
C428 H431 0.930 . S
C429 C426 1.348 . S
C429 C427 1.356 . S
H430 C424 0.930 . S
H431 C428 0.930 . S
O432 Li372 1.956 . S
O432 Li373 1.970 . S
O432 Li374 1.961 . S
O432 C376 1.325 . S
O433 Li372 1.970 . S
O433 Li373 1.956 . S
O433 Li375 1.961 . S
O433 C382 1.325 . S
O434 Li372 1.961 . S
O434 Li374 1.956 . S
O434 Li375 1.970 . S
O434 C404 1.325 . S
O435 Li373 1.961 . S
O435 Li374 1.970 . S
O435 Li375 1.956 . S
O435 C410 1.325 . S
H436 C378 0.929 . S
H437 C379 0.930 . S
H438 C380 0.930 . S
H439 C381 0.930 . S
H440 C383 0.930 . S
H441 C385 0.929 . S
H442 C386 0.930 . S
H443 C387 0.930 . S
H444 C390 0.930 . S
H445 C393 0.929 . S
H446 C398 0.929 . S
H447 C399 0.930 . S
H448 C406 0.929 . S
H449 C407 0.930 . S
H450 C408 0.930 . S
H451 C409 0.930 . S
H452 C411 0.929 . S
H453 C412 0.930 . S
H454 C413 0.930 . S
H455 C414 0.930 . S
H456 C418 0.929 . S
H457 C420 0.930 . S
H458 C426 0.929 . S
H459 C427 0.930 . S
Li460 N477 1.990 . S
Li460 O520 1.956 . S
Li460 O521 1.970 . S
Li460 O522 1.961 . S
Li461 N485 1.990 . S
Li461 O520 1.970 . S
Li461 O521 1.956 . S
Li461 O523 1.961 . S
Li462 N507 1.990 . S
Li462 O520 1.961 . S
Li462 O522 1.956 . S
Li462 O523 1.970 . S
Li463 N513 1.990 . S
Li463 O521 1.961 . S
Li463 O522 1.970 . S
Li463 O523 1.956 . S
C464 C466 1.348 . S
C464 C467 1.356 . S
C464 O520 1.325 . S
N465 C468 1.314 . S
N465 C469 1.279 . S
C466 C464 1.348 . S
C466 C468 1.353 . S
C466 H524 0.929 . S
C467 C464 1.356 . S
C467 C469 1.358 . S
C467 H525 0.930 . S
C468 N465 1.314 . S
C468 C466 1.353 . S
C468 H526 0.930 . S
C469 N465 1.279 . S
C469 C467 1.358 . S
C469 H527 0.930 . S
C470 C473 1.348 . S
C470 C474 1.356 . S
C470 O521 1.325 . S
C471 N472 1.279 . S
C471 C474 1.358 . S
C471 H528 0.930 . S
N472 C471 1.279 . S
N472 C475 1.314 . S
C473 C470 1.348 . S
C473 C475 1.353 . S
C473 H529 0.929 . S
C474 C470 1.356 . S
C474 C471 1.358 . S
C474 H530 0.930 . S
C475 N472 1.314 . S
C475 C473 1.353 . S
C475 H531 0.930 . S
C476 N477 1.314 . S
C476 C481 1.353 . S
C476 H482 0.930 . S
N477 Li460 1.990 . S
N477 C476 1.314 . S
N477 C479 1.279 . S
C478 C479 1.358 . S
C478 C480 1.356 . S
C478 H532 0.930 . S
C479 N477 1.279 . S
C479 C478 1.358 . S
C479 H483 0.930 . S
C480 C478 1.356 . S
C480 C481 1.348 . S
C481 C476 1.353 . S
C481 C480 1.348 . S
C481 H533 0.929 . S
H482 C476 0.930 . S
H483 C479 0.930 . S
C484 N485 1.314 . S
C484 C486 1.353 . S
C484 H490 0.930 . S
N485 Li461 1.990 . S
N485 C484 1.314 . S
N485 C488 1.279 . S
C486 C484 1.353 . S
C486 C489 1.348 . S
C486 H534 0.929 . S
C487 C488 1.358 . S
C487 C489 1.356 . S
C487 H535 0.930 . S
C488 N485 1.279 . S
C488 C487 1.358 . S
C488 H491 0.930 . S
C489 C486 1.348 . S
C489 C487 1.356 . S
H490 C484 0.930 . S
H491 C488 0.930 . S
C492 C494 1.348 . S
C492 C495 1.356 . S
C492 O522 1.325 . S
N493 C496 1.314 . S
N493 C497 1.279 . S
C494 C492 1.348 . S
C494 C496 1.353 . S
C494 H536 0.929 . S
C495 C492 1.356 . S
C495 C497 1.358 . S
C495 H537 0.930 . S
C496 N493 1.314 . S
C496 C494 1.353 . S
C496 H538 0.930 . S
C497 N493 1.279 . S
C497 C495 1.358 . S
C497 H539 0.930 . S
C498 C499 1.348 . S
C498 C500 1.356 . S
C498 O523 1.325 . S
C499 C498 1.348 . S
C499 C501 1.353 . S
C499 H540 0.929 . S
C500 C498 1.356 . S
C500 C502 1.358 . S
C500 H541 0.930 . S
C501 C499 1.353 . S
C501 N503 1.314 . S
C501 H542 0.930 . S
C502 C500 1.358 . S
C502 N503 1.279 . S
C502 H543 0.930 . S
N503 C501 1.314 . S
N503 C502 1.279 . S
C504 C506 1.353 . S
C504 N507 1.314 . S
C504 H510 0.930 . S
C505 N507 1.279 . S
C505 C508 1.358 . S
C505 H511 0.930 . S
C506 C504 1.353 . S
C506 C509 1.348 . S
C506 H544 0.929 . S
N507 Li462 1.990 . S
N507 C504 1.314 . S
N507 C505 1.279 . S
C508 C505 1.358 . S
C508 C509 1.356 . S
C508 H545 0.930 . S
C509 C506 1.348 . S
C509 C508 1.356 . S
H510 C504 0.930 . S
H511 C505 0.930 . S
C512 N513 1.314 . S
C512 C514 1.353 . S
C512 H518 0.930 . S
N513 Li463 1.990 . S
N513 C512 1.314 . S
N513 C516 1.279 . S
C514 C512 1.353 . S
C514 C517 1.348 . S
C514 H546 0.929 . S
C515 C516 1.358 . S
C515 C517 1.356 . S
C515 H547 0.930 . S
C516 N513 1.279 . S
C516 C515 1.358 . S
C516 H519 0.930 . S
C517 C514 1.348 . S
C517 C515 1.356 . S
H518 C512 0.930 . S
H519 C516 0.930 . S
O520 Li460 1.956 . S
O520 Li461 1.970 . S
O520 Li462 1.961 . S
O520 C464 1.325 . S
O521 Li460 1.970 . S
O521 Li461 1.956 . S
O521 Li463 1.961 . S
O521 C470 1.325 . S
O522 Li460 1.961 . S
O522 Li462 1.956 . S
O522 Li463 1.970 . S
O522 C492 1.325 . S
O523 Li461 1.961 . S
O523 Li462 1.970 . S
O523 Li463 1.956 . S
O523 C498 1.325 . S
H524 C466 0.929 . S
H525 C467 0.930 . S
H526 C468 0.930 . S
H527 C469 0.930 . S
H528 C471 0.930 . S
H529 C473 0.929 . S
H530 C474 0.930 . S
H531 C475 0.930 . S
H532 C478 0.930 . S
H533 C481 0.929 . S
H534 C486 0.929 . S
H535 C487 0.930 . S
H536 C494 0.929 . S
H537 C495 0.930 . S
H538 C496 0.930 . S
H539 C497 0.930 . S
H540 C499 0.929 . S
H541 C500 0.930 . S
H542 C501 0.930 . S
H543 C502 0.930 . S
H544 C506 0.929 . S
H545 C508 0.930 . S
H546 C514 0.929 . S
H547 C515 0.930 . S
Li548 N565 1.990 . S
Li548 O608 1.956 . S
Li548 O609 1.970 . S
Li548 O610 1.961 . S
Li549 N573 1.990 . S
Li549 O608 1.970 . S
Li549 O609 1.956 . S
Li549 O611 1.961 . S
Li550 N595 1.990 . S
Li550 O608 1.961 . S
Li550 O610 1.956 . S
Li550 O611 1.970 . S
Li551 N601 1.990 . S
Li551 O609 1.961 . S
Li551 O610 1.970 . S
Li551 O611 1.956 . S
C552 C554 1.348 . S
C552 C555 1.356 . S
C552 O608 1.325 . S
N553 C556 1.314 . S
N553 C557 1.279 . S
C554 C552 1.348 . S
C554 C556 1.353 . S
C554 H612 0.929 . S
C555 C552 1.356 . S
C555 C557 1.358 . S
C555 H613 0.930 . S
C556 N553 1.314 . S
C556 C554 1.353 . S
C556 H614 0.930 . S
C557 N553 1.279 . S
C557 C555 1.358 . S
C557 H615 0.930 . S
C558 C561 1.348 . S
C558 C562 1.356 . S
C558 O609 1.325 . S
C559 N560 1.279 . S
C559 C562 1.358 . S
C559 H616 0.930 . S
N560 C559 1.279 . S
N560 C563 1.314 . S
C561 C558 1.348 . S
C561 C563 1.353 . S
C561 H617 0.929 . S
C562 C558 1.356 . S
C562 C559 1.358 . S
C562 H618 0.930 . S
C563 N560 1.314 . S
C563 C561 1.353 . S
C563 H619 0.930 . S
C564 N565 1.314 . S
C564 C569 1.353 . S
C564 H570 0.930 . S
N565 Li548 1.990 . S
N565 C564 1.314 . S
N565 C567 1.279 . S
C566 C567 1.358 . S
C566 C568 1.356 . S
C566 H620 0.930 . S
C567 N565 1.279 . S
C567 C566 1.358 . S
C567 H571 0.930 . S
C568 C566 1.356 . S
C568 C569 1.348 . S
C569 C564 1.353 . S
C569 C568 1.348 . S
C569 H621 0.929 . S
H570 C564 0.930 . S
H571 C567 0.930 . S
C572 N573 1.314 . S
C572 C574 1.353 . S
C572 H578 0.930 . S
N573 Li549 1.990 . S
N573 C572 1.314 . S
N573 C576 1.279 . S
C574 C572 1.353 . S
C574 C577 1.348 . S
C574 H622 0.929 . S
C575 C576 1.358 . S
C575 C577 1.356 . S
C575 H623 0.930 . S
C576 N573 1.279 . S
C576 C575 1.358 . S
C576 H579 0.930 . S
C577 C574 1.348 . S
C577 C575 1.356 . S
H578 C572 0.930 . S
H579 C576 0.930 . S
C580 C582 1.348 . S
C580 C583 1.356 . S
C580 O610 1.325 . S
N581 C584 1.314 . S
N581 C585 1.279 . S
C582 C580 1.348 . S
C582 C584 1.353 . S
C582 H624 0.929 . S
C583 C580 1.356 . S
C583 C585 1.358 . S
C583 H625 0.930 . S
C584 N581 1.314 . S
C584 C582 1.353 . S
C584 H626 0.930 . S
C585 N581 1.279 . S
C585 C583 1.358 . S
C585 H627 0.930 . S
C586 C587 1.348 . S
C586 C588 1.356 . S
C586 O611 1.325 . S
C587 C586 1.348 . S
C587 C589 1.353 . S
C587 H628 0.929 . S
C588 C586 1.356 . S
C588 C590 1.358 . S
C588 H629 0.930 . S
C589 C587 1.353 . S
C589 N591 1.314 . S
C589 H630 0.930 . S
C590 C588 1.358 . S
C590 N591 1.279 . S
C590 H631 0.930 . S
N591 C589 1.314 . S
N591 C590 1.279 . S
C592 C594 1.353 . S
C592 N595 1.314 . S
C592 H598 0.930 . S
C593 N595 1.279 . S
C593 C596 1.358 . S
C593 H599 0.930 . S
C594 C592 1.353 . S
C594 C597 1.348 . S
C594 H632 0.929 . S
N595 Li550 1.990 . S
N595 C592 1.314 . S
N595 C593 1.279 . S
C596 C593 1.358 . S
C596 C597 1.356 . S
C596 H633 0.930 . S
C597 C594 1.348 . S
C597 C596 1.356 . S
H598 C592 0.930 . S
H599 C593 0.930 . S
C600 N601 1.314 . S
C600 C602 1.353 . S
C600 H606 0.930 . S
N601 Li551 1.990 . S
N601 C600 1.314 . S
N601 C604 1.279 . S
C602 C600 1.353 . S
C602 C605 1.348 . S
C602 H634 0.929 . S
C603 C604 1.358 . S
C603 C605 1.356 . S
C603 H635 0.930 . S
C604 N601 1.279 . S
C604 C603 1.358 . S
C604 H607 0.930 . S
C605 C602 1.348 . S
C605 C603 1.356 . S
H606 C600 0.930 . S
H607 C604 0.930 . S
O608 Li548 1.956 . S
O608 Li549 1.970 . S
O608 Li550 1.961 . S
O608 C552 1.325 . S
O609 Li548 1.970 . S
O609 Li549 1.956 . S
O609 Li551 1.961 . S
O609 C558 1.325 . S
O610 Li548 1.961 . S
O610 Li550 1.956 . S
O610 Li551 1.970 . S
O610 C580 1.325 . S
O611 Li549 1.961 . S
O611 Li550 1.970 . S
O611 Li551 1.956 . S
O611 C586 1.325 . S
H612 C554 0.929 . S
H613 C555 0.930 . S
H614 C556 0.930 . S
H615 C557 0.930 . S
H616 C559 0.930 . S
H617 C561 0.929 . S
H618 C562 0.930 . S
H619 C563 0.930 . S
H620 C566 0.930 . S
H621 C569 0.929 . S
H622 C574 0.929 . S
H623 C575 0.930 . S
H624 C582 0.929 . S
H625 C583 0.930 . S
H626 C584 0.930 . S
H627 C585 0.930 . S
H628 C587 0.929 . S
H629 C588 0.930 . S
H630 C589 0.930 . S
H631 C590 0.930 . S
H632 C594 0.929 . S
H633 C596 0.930 . S
H634 C602 0.929 . S
H635 C603 0.930 . S
Li636 N653 1.990 . S
Li636 O696 1.956 . S
Li636 O697 1.970 . S
Li636 O698 1.961 . S
Li637 N661 1.990 . S
Li637 O696 1.970 . S
Li637 O697 1.956 . S
Li637 O699 1.961 . S
Li638 N683 1.990 . S
Li638 O696 1.961 . S
Li638 O698 1.956 . S
Li638 O699 1.970 . S
Li639 N689 1.990 . S
Li639 O697 1.961 . S
Li639 O698 1.970 . S
Li639 O699 1.956 . S
C640 C642 1.348 . S
C640 C643 1.356 . S
C640 O696 1.325 . S
N641 C644 1.314 . S
N641 C645 1.279 . S
C642 C640 1.348 . S
C642 C644 1.353 . S
C642 H700 0.929 . S
C643 C640 1.356 . S
C643 C645 1.358 . S
C643 H701 0.930 . S
C644 N641 1.314 . S
C644 C642 1.353 . S
C644 H702 0.930 . S
C645 N641 1.279 . S
C645 C643 1.358 . S
C645 H703 0.930 . S
C646 C649 1.348 . S
C646 C650 1.356 . S
C646 O697 1.325 . S
C647 N648 1.279 . S
C647 C650 1.358 . S
C647 H704 0.930 . S
N648 C647 1.279 . S
N648 C651 1.314 . S
C649 C646 1.348 . S
C649 C651 1.353 . S
C649 H705 0.929 . S
C650 C646 1.356 . S
C650 C647 1.358 . S
C650 H706 0.930 . S
C651 N648 1.314 . S
C651 C649 1.353 . S
C651 H707 0.930 . S
C652 N653 1.314 . S
C652 C657 1.353 . S
C652 H658 0.930 . S
N653 Li636 1.990 . S
N653 C652 1.314 . S
N653 C655 1.279 . S
C654 C655 1.358 1_554 S
C654 C656 1.356 . S
C654 H708 0.930 . S
C655 N653 1.279 . S
C655 C654 1.358 1_556 S
C655 H659 0.930 . S
C656 C654 1.356 . S
C656 C657 1.348 1_554 S
C657 C652 1.353 . S
C657 C656 1.348 1_556 S
C657 H709 0.929 . S
H658 C652 0.930 . S
H659 C655 0.930 . S
C660 N661 1.314 . S
C660 C662 1.353 . S
C660 H666 0.930 . S
N661 Li637 1.990 . S
N661 C660 1.314 . S
N661 C664 1.279 . S
C662 C660 1.353 . S
C662 C665 1.348 . S
C662 H710 0.929 . S
C663 C664 1.358 . S
C663 C665 1.356 . S
C663 H711 0.930 . S
C664 N661 1.279 . S
C664 C663 1.358 . S
C664 H667 0.930 . S
C665 C662 1.348 . S
C665 C663 1.356 . S
H666 C660 0.930 . S
H667 C664 0.930 . S
C668 C670 1.348 . S
C668 C671 1.356 . S
C668 O698 1.325 . S
N669 C672 1.314 . S
N669 C673 1.279 . S
C670 C668 1.348 . S
C670 C672 1.353 . S
C670 H712 0.929 . S
C671 C668 1.356 . S
C671 C673 1.358 . S
C671 H713 0.930 . S
C672 N669 1.314 . S
C672 C670 1.353 . S
C672 H714 0.930 . S
C673 N669 1.279 . S
C673 C671 1.358 . S
C673 H715 0.930 . S
C674 C675 1.348 . S
C674 C676 1.356 . S
C674 O699 1.325 . S
C675 C674 1.348 . S
C675 C677 1.353 . S
C675 H716 0.929 . S
C676 C674 1.356 . S
C676 C678 1.358 . S
C676 H717 0.930 . S
C677 C675 1.353 . S
C677 N679 1.314 . S
C677 H718 0.930 . S
C678 C676 1.358 . S
C678 N679 1.279 . S
C678 H719 0.930 . S
N679 C677 1.314 . S
N679 C678 1.279 . S
C680 C682 1.353 . S
C680 N683 1.314 . S
C680 H686 0.930 . S
C681 N683 1.279 . S
C681 C684 1.358 . S
C681 H687 0.930 . S
C682 C680 1.353 . S
C682 C685 1.348 . S
C682 H720 0.929 . S
N683 Li638 1.990 . S
N683 C680 1.314 . S
N683 C681 1.279 . S
C684 C681 1.358 . S
C684 C685 1.356 . S
C684 H721 0.930 . S
C685 C682 1.348 . S
C685 C684 1.356 . S
H686 C680 0.930 . S
H687 C681 0.930 . S
C688 N689 1.314 . S
C688 C690 1.353 . S
C688 H694 0.930 . S
N689 Li639 1.990 . S
N689 C688 1.314 . S
N689 C692 1.279 . S
C690 C688 1.353 . S
C690 C693 1.348 . S
C690 H722 0.929 . S
C691 C692 1.358 . S
C691 C693 1.356 . S
C691 H723 0.930 . S
C692 N689 1.279 . S
C692 C691 1.358 . S
C692 H695 0.930 . S
C693 C690 1.348 . S
C693 C691 1.356 . S
H694 C688 0.930 . S
H695 C692 0.930 . S
O696 Li636 1.956 . S
O696 Li637 1.970 . S
O696 Li638 1.961 . S
O696 C640 1.325 . S
O697 Li636 1.970 . S
O697 Li637 1.956 . S
O697 Li639 1.961 . S
O697 C646 1.325 . S
O698 Li636 1.961 . S
O698 Li638 1.956 . S
O698 Li639 1.970 . S
O698 C668 1.325 . S
O699 Li637 1.961 . S
O699 Li638 1.970 . S
O699 Li639 1.956 . S
O699 C674 1.325 . S
H700 C642 0.929 . S
H701 C643 0.930 . S
H702 C644 0.930 . S
H703 C645 0.930 . S
H704 C647 0.930 . S
H705 C649 0.929 . S
H706 C650 0.930 . S
H707 C651 0.930 . S
H708 C654 0.930 . S
H709 C657 0.929 . S
H710 C662 0.929 . S
H711 C663 0.930 . S
H712 C670 0.929 . S
H713 C671 0.930 . S
H714 C672 0.930 . S
H715 C673 0.930 . S
H716 C675 0.929 . S
H717 C676 0.930 . S
H718 C677 0.930 . S
H719 C678 0.930 . S
H720 C682 0.929 . S
H721 C684 0.930 . S
H722 C690 0.929 . S
H723 C691 0.930 . S
Li724 N741 1.990 . S
Li724 O784 1.956 . S
Li724 O785 1.970 . S
Li724 O786 1.961 . S
Li725 N749 1.990 . S
Li725 O784 1.970 . S
Li725 O785 1.956 . S
Li725 O787 1.961 . S
Li726 N771 1.990 . S
Li726 O784 1.961 . S
Li726 O786 1.956 . S
Li726 O787 1.970 . S
Li727 N777 1.990 . S
Li727 O785 1.961 . S
Li727 O786 1.970 . S
Li727 O787 1.956 . S
C728 C730 1.348 . S
C728 C731 1.356 . S
C728 O784 1.325 . S
N729 C732 1.314 . S
N729 C733 1.279 . S
C730 C728 1.348 . S
C730 C732 1.353 . S
C730 H788 0.929 . S
C731 C728 1.356 . S
C731 C733 1.358 . S
C731 H789 0.930 . S
C732 N729 1.314 . S
C732 C730 1.353 . S
C732 H790 0.930 . S
C733 N729 1.279 . S
C733 C731 1.358 . S
C733 H791 0.930 . S
C734 C737 1.348 . S
C734 C738 1.356 . S
C734 O785 1.325 . S
C735 N736 1.279 . S
C735 C738 1.358 . S
C735 H792 0.930 . S
N736 C735 1.279 . S
N736 C739 1.314 . S
C737 C734 1.348 . S
C737 C739 1.353 . S
C737 H793 0.929 . S
C738 C734 1.356 . S
C738 C735 1.358 . S
C738 H794 0.930 . S
C739 N736 1.314 . S
C739 C737 1.353 . S
C739 H795 0.930 . S
C740 N741 1.314 . S
C740 C745 1.353 . S
C740 H746 0.930 . S
N741 Li724 1.990 . S
N741 C740 1.314 . S
N741 C743 1.279 . S
C742 C743 1.358 . S
C742 C744 1.356 . S
C742 H796 0.930 . S
C743 N741 1.279 . S
C743 C742 1.358 . S
C743 H747 0.930 . S
C744 C742 1.356 . S
C744 C745 1.348 . S
C745 C740 1.353 . S
C745 C744 1.348 . S
C745 H797 0.929 . S
H746 C740 0.930 . S
H747 C743 0.930 . S
C748 N749 1.314 . S
C748 C750 1.353 . S
C748 H754 0.930 . S
N749 Li725 1.990 . S
N749 C748 1.314 . S
N749 C752 1.279 . S
C750 C748 1.353 . S
C750 C753 1.348 . S
C750 H798 0.929 . S
C751 C752 1.358 . S
C751 C753 1.356 . S
C751 H799 0.930 . S
C752 N749 1.279 . S
C752 C751 1.358 . S
C752 H755 0.930 . S
C753 C750 1.348 . S
C753 C751 1.356 . S
H754 C748 0.930 . S
H755 C752 0.930 . S
C756 C758 1.348 . S
C756 C759 1.356 . S
C756 O786 1.325 . S
N757 C760 1.305 1_556 S
N757 C761 1.279 1_556 S
C758 C756 1.348 . S
C758 C760 1.370 . S
C758 H800 0.929 . S
C759 C756 1.356 . S
C759 C761 1.358 . S
C759 H801 0.930 . S
C760 N757 1.305 1_554 S
C760 C758 1.370 . S
C760 H802 0.921 1_554 S
C761 N757 1.279 1_554 S
C761 C759 1.358 . S
C761 H803 0.930 1_554 S
C762 C763 1.348 . S
C762 C764 1.356 . S
C762 O787 1.325 . S
C763 C762 1.348 . S
C763 C765 1.353 . S
C763 H804 0.929 . S
C764 C762 1.356 . S
C764 C766 1.358 . S
C764 H805 0.930 . S
C765 C763 1.353 . S
C765 N767 1.314 . S
C765 H806 0.930 . S
C766 C764 1.358 . S
C766 N767 1.279 . S
C766 H807 0.930 . S
N767 C765 1.314 . S
N767 C766 1.279 . S
C768 C770 1.353 . S
C768 N771 1.314 . S
C768 H774 0.930 . S
C769 N771 1.279 . S
C769 C772 1.358 1_554 S
C769 H775 0.926 1_554 S
C770 C768 1.353 . S
C770 C773 1.348 1_554 S
C770 H808 0.929 . S
N771 Li726 1.990 . S
N771 C768 1.314 . S
N771 C769 1.279 . S
C772 C769 1.358 1_556 S
C772 C773 1.356 . S
C772 H809 0.930 . S
C773 C770 1.348 1_556 S
C773 C772 1.356 . S
H774 C768 0.930 . S
H775 C769 0.926 1_556 S
C776 N777 1.314 . S
C776 C778 1.353 . S
C776 H782 0.930 . S
N777 Li727 1.990 . S
N777 C776 1.314 . S
N777 C780 1.279 . S
C778 C776 1.353 . S
C778 C781 1.348 . S
C778 H810 0.929 . S
C779 C780 1.358 . S
C779 C781 1.356 . S
C779 H811 0.930 . S
C780 N777 1.279 . S
C780 C779 1.358 . S
C780 H783 0.930 . S
C781 C778 1.348 . S
C781 C779 1.356 . S
H782 C776 0.930 . S
H783 C780 0.930 . S
O784 Li724 1.956 . S
O784 Li725 1.970 . S
O784 Li726 1.961 . S
O784 C728 1.325 . S
O785 Li724 1.970 . S
O785 Li725 1.956 . S
O785 Li727 1.961 . S
O785 C734 1.325 . S
O786 Li724 1.961 . S
O786 Li726 1.956 . S
O786 Li727 1.970 . S
O786 C756 1.325 . S
O787 Li725 1.961 . S
O787 Li726 1.970 . S
O787 Li727 1.956 . S
O787 C762 1.325 . S
H788 C730 0.929 . S
H789 C731 0.930 . S
H790 C732 0.930 . S
H791 C733 0.930 . S
H792 C735 0.930 . S
H793 C737 0.929 . S
H794 C738 0.930 . S
H795 C739 0.930 . S
H796 C742 0.930 . S
H797 C745 0.929 . S
H798 C750 0.929 . S
H799 C751 0.930 . S
H800 C758 0.929 . S
H801 C759 0.930 . S
H802 C760 0.921 1_556 S
H803 C761 0.930 1_556 S
H804 C763 0.929 . S
H805 C764 0.930 . S
H806 C765 0.930 . S
H807 C766 0.930 . S
H808 C770 0.929 . S
H809 C772 0.930 . S
H810 C778 0.929 . S
H811 C779 0.930 . S
Li812 N829 1.990 . S
Li812 O872 1.956 . S
Li812 O873 1.970 . S
Li812 O874 1.961 . S
Li813 N837 1.990 . S
Li813 O872 1.970 . S
Li813 O873 1.956 . S
Li813 O875 1.961 . S
Li814 N859 1.990 . S
Li814 O872 1.961 . S
Li814 O874 1.956 . S
Li814 O875 1.970 . S
Li815 N865 1.990 . S
Li815 O873 1.961 . S
Li815 O874 1.970 . S
Li815 O875 1.956 . S
C816 C818 1.348 . S
C816 C819 1.356 . S
C816 O872 1.325 . S
N817 C820 1.314 . S
N817 C821 1.279 . S
C818 C816 1.348 . S
C818 C820 1.353 . S
C818 H876 0.929 . S
C819 C816 1.356 . S
C819 C821 1.358 . S
C819 H877 0.930 . S
C820 N817 1.314 . S
C820 C818 1.353 . S
C820 H878 0.930 . S
C821 N817 1.279 . S
C821 C819 1.358 . S
C821 H879 0.930 . S
C822 C825 1.348 . S
C822 C826 1.356 . S
C822 O873 1.325 . S
C823 N824 1.279 . S
C823 C826 1.358 . S
C823 H880 0.930 . S
N824 C823 1.279 . S
N824 C827 1.314 . S
C825 C822 1.348 . S
C825 C827 1.353 . S
C825 H881 0.929 . S
C826 C822 1.356 . S
C826 C823 1.358 . S
C826 H882 0.930 . S
C827 N824 1.314 . S
C827 C825 1.353 . S
C827 H883 0.930 . S
C828 N829 1.314 . S
C828 C833 1.353 . S
C828 H834 0.930 . S
N829 Li812 1.990 . S
N829 C828 1.314 . S
N829 C831 1.279 . S
C830 C831 1.358 . S
C830 C832 1.356 . S
C830 H884 0.930 . S
C831 N829 1.279 . S
C831 C830 1.358 . S
C831 H835 0.930 . S
C832 C830 1.356 . S
C832 C833 1.348 . S
C833 C828 1.353 . S
C833 C832 1.348 . S
C833 H885 0.929 . S
H834 C828 0.930 . S
H835 C831 0.930 . S
C836 N837 1.314 . S
C836 C838 1.353 . S
C836 H842 0.930 . S
N837 Li813 1.990 . S
N837 C836 1.314 . S
N837 C840 1.279 . S
C838 C836 1.353 . S
C838 C841 1.348 . S
C838 H886 0.929 . S
C839 C840 1.358 . S
C839 C841 1.356 . S
C839 H887 0.930 . S
C840 N837 1.279 . S
C840 C839 1.358 . S
C840 H843 0.930 . S
C841 C838 1.348 . S
C841 C839 1.356 . S
H842 C836 0.930 . S
H843 C840 0.930 . S
C844 C846 1.348 . S
C844 C847 1.356 . S
C844 O874 1.325 . S
N845 C848 1.314 . S
N845 C849 1.279 . S
C846 C844 1.348 . S
C846 C848 1.353 . S
C846 H888 0.929 . S
C847 C844 1.356 . S
C847 C849 1.358 . S
C847 H889 0.930 . S
C848 N845 1.314 . S
C848 C846 1.353 . S
C848 H890 0.930 . S
C849 N845 1.279 . S
C849 C847 1.358 . S
C849 H891 0.930 . S
C850 C851 1.348 . S
C850 C852 1.356 . S
C850 O875 1.325 . S
C851 C850 1.348 . S
C851 C853 1.353 . S
C851 H892 0.929 . S
C852 C850 1.356 . S
C852 C854 1.358 . S
C852 H893 0.930 . S
C853 C851 1.353 . S
C853 N855 1.314 . S
C853 H894 0.930 . S
C854 C852 1.358 . S
C854 N855 1.279 . S
C854 H895 0.930 . S
N855 C853 1.314 . S
N855 C854 1.279 . S
C856 C858 1.353 . S
C856 N859 1.314 . S
C856 H862 0.930 . S
C857 N859 1.279 . S
C857 C860 1.358 . S
C857 H863 0.930 . S
C858 C856 1.353 . S
C858 C861 1.348 . S
C858 H896 0.929 . S
N859 Li814 1.990 . S
N859 C856 1.314 . S
N859 C857 1.279 . S
C860 C857 1.358 . S
C860 C861 1.356 . S
C860 H897 0.930 . S
C861 C858 1.348 . S
C861 C860 1.356 . S
H862 C856 0.930 . S
H863 C857 0.930 . S
C864 N865 1.314 . S
C864 C866 1.353 . S
C864 H870 0.930 . S
N865 Li815 1.990 . S
N865 C864 1.314 . S
N865 C868 1.279 . S
C866 C864 1.353 . S
C866 C869 1.348 . S
C866 H898 0.929 . S
C867 C868 1.358 . S
C867 C869 1.356 . S
C867 H899 0.930 . S
C868 N865 1.279 . S
C868 C867 1.358 . S
C868 H871 0.930 . S
C869 C866 1.348 . S
C869 C867 1.356 . S
H870 C864 0.930 . S
H871 C868 0.930 . S
O872 Li812 1.956 . S
O872 Li813 1.970 . S
O872 Li814 1.961 . S
O872 C816 1.325 . S
O873 Li812 1.970 . S
O873 Li813 1.956 . S
O873 Li815 1.961 . S
O873 C822 1.325 . S
O874 Li812 1.961 . S
O874 Li814 1.956 . S
O874 Li815 1.970 . S
O874 C844 1.325 . S
O875 Li813 1.961 . S
O875 Li814 1.970 . S
O875 Li815 1.956 . S
O875 C850 1.325 . S
H876 C818 0.929 . S
H877 C819 0.930 . S
H878 C820 0.930 . S
H879 C821 0.930 . S
H880 C823 0.930 . S
H881 C825 0.929 . S
H882 C826 0.930 . S
H883 C827 0.930 . S
H884 C830 0.930 . S
H885 C833 0.929 . S
H886 C838 0.929 . S
H887 C839 0.930 . S
H888 C846 0.929 . S
H889 C847 0.930 . S
H890 C848 0.930 . S
H891 C849 0.930 . S
H892 C851 0.929 . S
H893 C852 0.930 . S
H894 C853 0.930 . S
H895 C854 0.930 . S
H896 C858 0.929 . S
H897 C860 0.930 . S
H898 C866 0.929 . S
H899 C867 0.930 . S
C900 C901 1.387 . S
C900 H904 0.950 . S
C900 C909 1.390 . S
C901 C900 1.387 . S
C901 C903 1.387 . S
H902 C909 0.950 . S
C903 C901 1.387 . S
C903 C905 1.390 . S
C903 H907 0.950 . S
H904 C900 0.950 . S
C905 C903 1.390 . S
C905 C906 1.387 . S
C905 H908 0.950 . S
C906 C905 1.387 . S
C906 C909 1.387 . S
H907 C903 0.950 . S
H908 C905 0.950 . S
C909 C900 1.390 . S
C909 H902 0.950 . S
C909 C906 1.387 . S
C910 C911 1.387 . S
C910 H914 0.950 . S
C910 C919 1.390 . S
C911 C910 1.387 . S
C911 C913 1.387 . S
H912 C919 0.950 . S
C913 C911 1.387 . S
C913 C915 1.390 . S
C913 H917 0.950 . S
H914 C910 0.950 . S
C915 C913 1.390 . S
C915 C916 1.387 . S
C915 H918 0.950 . S
C916 C915 1.387 . S
C916 C919 1.387 . S
H917 C913 0.950 . S
H918 C915 0.950 . S
C919 C910 1.390 . S
C919 H912 0.950 . S
C919 C916 1.387 . S
C920 C921 1.387 . S
C920 H924 0.950 . S
C920 C929 1.390 . S
C921 C920 1.387 . S
C921 C923 1.387 . S
H922 C929 0.950 . S
C923 C921 1.387 . S
C923 C925 1.390 . S
C923 H927 0.950 . S
H924 C920 0.950 . S
C925 C923 1.390 . S
C925 C926 1.387 . S
C925 H928 0.950 . S
C926 C925 1.387 . S
C926 C929 1.387 . S
H927 C923 0.950 . S
H928 C925 0.950 . S
C929 C920 1.390 . S
C929 H922 0.950 . S
C929 C926 1.387 . S
C930 C931 1.387 . S
C930 H934 0.950 . S
C930 C939 1.390 . S
C931 C930 1.387 . S
C931 C933 1.387 . S
H932 C939 0.950 . S
C933 C931 1.387 . S
C933 C935 1.390 . S
C933 H937 0.950 . S
H934 C930 0.950 . S
C935 C933 1.390 . S
C935 C936 1.387 . S
C935 H938 0.950 . S
C936 C935 1.387 . S
C936 C939 1.387 . S
H937 C933 0.950 . S
H938 C935 0.950 . S
C939 C930 1.390 . S
C939 H932 0.950 . S
C939 C936 1.387 . S
C940 C941 1.387 . S
C940 H944 0.950 . S
C940 C949 1.390 . S
C941 C940 1.387 . S
C941 C943 1.387 . S
H942 C949 0.950 . S
C943 C941 1.387 . S
C943 C945 1.390 . S
C943 H947 0.950 . S
H944 C940 0.950 . S
C945 C943 1.390 . S
C945 C946 1.387 . S
C945 H948 0.950 . S
C946 C945 1.387 . S
C946 C949 1.387 . S
H947 C943 0.950 . S
H948 C945 0.950 . S
C949 C940 1.390 . S
C949 H942 0.950 . S
C949 C946 1.387 . S
C950 C951 1.387 . S
C950 H954 0.950 . S
C950 C959 1.390 . S
C951 C950 1.387 . S
C951 C953 1.387 . S
H952 C959 0.950 . S
C953 C951 1.387 . S
C953 C955 1.390 . S
C953 H957 0.950 . S
H954 C950 0.950 . S
C955 C953 1.390 . S
C955 C956 1.387 . S
C955 H958 0.950 . S
C956 C955 1.387 . S
C956 C959 1.387 . S
H957 C953 0.950 . S
H958 C955 0.950 . S
C959 C950 1.390 . S
C959 H952 0.950 . S
C959 C956 1.387 . S
C960 C961 1.387 . S
C960 H964 0.950 . S
C960 C969 1.390 . S
C961 C960 1.387 . S
C961 C963 1.387 . S
H962 C969 0.950 . S
C963 C961 1.387 . S
C963 C965 1.390 . S
C963 H967 0.950 . S
H964 C960 0.950 . S
C965 C963 1.390 . S
C965 C966 1.387 . S
C965 H968 0.950 . S
C966 C965 1.387 . S
C966 C969 1.387 . S
H967 C963 0.950 . S
H968 C965 0.950 . S
C969 C960 1.390 . S
C969 H962 0.950 . S
C969 C966 1.387 . S
C970 C971 1.387 . S
C970 H974 0.950 . S
C970 C979 1.390 . S
C971 C970 1.387 . S
C971 C973 1.387 . S
H972 C979 0.950 . S
C973 C971 1.387 . S
C973 C975 1.390 . S
C973 H977 0.950 . S
H974 C970 0.950 . S
C975 C973 1.390 . S
C975 C976 1.387 . S
C975 H978 0.950 . S
C976 C975 1.387 . S
C976 C979 1.387 . S
H977 C973 0.950 . S
H978 C975 0.950 . S
C979 C970 1.390 . S
C979 H972 0.950 . S
C979 C976 1.387 . S
C980 C981 1.387 . S
C980 H984 0.950 . S
C980 C989 1.390 . S
C981 C980 1.387 . S
C981 C983 1.387 . S
H982 C989 0.950 . S
C983 C981 1.387 . S
C983 C985 1.390 . S
C983 H987 0.950 . S
H984 C980 0.950 . S
C985 C983 1.390 . S
C985 C986 1.387 . S
C985 H988 0.950 . S
C986 C985 1.387 . S
C986 C989 1.387 . S
H987 C983 0.950 . S
H988 C985 0.950 . S
C989 C980 1.390 . S
C989 H982 0.950 . S
C989 C986 1.387 . S
C990 C991 1.387 . S
C990 H994 0.950 . S
C990 C999 1.390 . S
C991 C990 1.387 . S
C991 C993 1.387 . S
H992 C999 0.950 . S
C993 C991 1.387 . S
C993 C995 1.390 . S
C993 H997 0.950 . S
H994 C990 0.950 . S
C995 C993 1.390 . S
C995 C996 1.387 . S
C995 H998 0.950 . S
C996 C995 1.387 . S
C996 C999 1.387 . S
H997 C993 0.950 . S
H998 C995 0.950 . S
C999 C990 1.390 . S
C999 H992 0.950 . S
C999 C996 1.387 . S
C1000 C1001 1.387 . S
C1000 H1004 0.950 . S
C1000 C1009 1.390 . S
C1001 C1000 1.387 . S
C1001 C1003 1.387 . S
H1002 C1009 0.950 . S
C1003 C1001 1.387 . S
C1003 C1005 1.390 . S
C1003 H1007 0.950 . S
H1004 C1000 0.950 . S
C1005 C1003 1.390 . S
C1005 C1006 1.387 . S
C1005 H1008 0.950 . S
C1006 C1005 1.387 . S
C1006 C1009 1.387 . S
H1007 C1003 0.950 . S
H1008 C1005 0.950 . S
C1009 C1000 1.390 . S
C1009 H1002 0.950 . S
C1009 C1006 1.387 . S
C1010 C1011 1.387 . S
C1010 H1014 0.950 . S
C1010 C1019 1.390 . S
C1011 C1010 1.387 . S
C1011 C1013 1.387 . S
H1012 C1019 0.950 . S
C1013 C1011 1.387 . S
C1013 C1015 1.390 . S
C1013 H1017 0.950 . S
H1014 C1010 0.950 . S
C1015 C1013 1.390 . S
C1015 C1016 1.387 . S
C1015 H1018 0.950 . S
C1016 C1015 1.387 . S
C1016 C1019 1.387 . S
H1017 C1013 0.950 . S
H1018 C1015 0.950 . S
C1019 C1010 1.390 . S
C1019 H1012 0.950 . S
C1019 C1016 1.387 . S
C1020 C1021 1.387 . S
C1020 H1024 0.950 . S
C1020 C1029 1.390 . S
C1021 C1020 1.387 . S
C1021 C1023 1.387 . S
H1022 C1029 0.950 . S
C1023 C1021 1.387 . S
C1023 C1025 1.390 . S
C1023 H1027 0.950 . S
H1024 C1020 0.950 . S
C1025 C1023 1.390 . S
C1025 C1026 1.387 . S
C1025 H1028 0.950 . S
C1026 C1025 1.387 . S
C1026 C1029 1.387 . S
H1027 C1023 0.950 . S
H1028 C1025 0.950 . S
C1029 C1020 1.390 . S
C1029 H1022 0.950 . S
C1029 C1026 1.387 . S
C1030 C1031 1.387 . S
C1030 H1034 0.950 . S
C1030 C1039 1.390 . S
C1031 C1030 1.387 . S
C1031 C1033 1.387 . S
H1032 C1039 0.950 . S
C1033 C1031 1.387 . S
C1033 C1035 1.390 . S
C1033 H1037 0.950 . S
H1034 C1030 0.950 . S
C1035 C1033 1.390 . S
C1035 C1036 1.387 . S
C1035 H1038 0.950 . S
C1036 C1035 1.387 . S
C1036 C1039 1.387 . S
H1037 C1033 0.950 . S
H1038 C1035 0.950 . S
C1039 C1030 1.390 . S
C1039 H1032 0.950 . S
C1039 C1036 1.387 . S
C1040 C1041 1.387 . S
C1040 H1044 0.950 . S
C1040 C1049 1.390 . S
C1041 C1040 1.387 . S
C1041 C1043 1.387 . S
H1042 C1049 0.950 . S
C1043 C1041 1.387 . S
C1043 C1045 1.390 . S
C1043 H1047 0.950 . S
H1044 C1040 0.950 . S
C1045 C1043 1.390 . S
C1045 C1046 1.387 . S
C1045 H1048 0.950 . S
C1046 C1045 1.387 . S
C1046 C1049 1.387 . S
H1047 C1043 0.950 . S
H1048 C1045 0.950 . S
C1049 C1040 1.390 . S
C1049 H1042 0.950 . S
C1049 C1046 1.387 . S
C1050 C1051 1.387 . S
C1050 H1054 0.950 . S
C1050 C1059 1.390 . S
C1051 C1050 1.387 . S
C1051 C1053 1.387 . S
H1052 C1059 0.950 . S
C1053 C1051 1.387 . S
C1053 C1055 1.390 . S
C1053 H1057 0.950 . S
H1054 C1050 0.950 . S
C1055 C1053 1.390 . S
C1055 C1056 1.387 . S
C1055 H1058 0.950 . S
C1056 C1055 1.387 . S
C1056 C1059 1.387 . S
H1057 C1053 0.950 . S
H1058 C1055 0.950 . S
C1059 C1050 1.390 . S
C1059 H1052 0.950 . S
C1059 C1056 1.387 . S
C1060 C1061 1.387 . S
C1060 H1064 0.950 . S
C1060 C1069 1.390 . S
C1061 C1060 1.387 . S
C1061 C1063 1.387 . S
H1062 C1069 0.950 . S
C1063 C1061 1.387 . S
C1063 C1065 1.390 . S
C1063 H1067 0.950 . S
H1064 C1060 0.950 . S
C1065 C1063 1.390 . S
C1065 C1066 1.387 . S
C1065 H1068 0.950 . S
C1066 C1065 1.387 . S
C1066 C1069 1.387 . S
H1067 C1063 0.950 . S
H1068 C1065 0.950 . S
C1069 C1060 1.390 . S
C1069 H1062 0.950 . S
C1069 C1066 1.387 . S
C1070 C1071 1.387 . S
C1070 H1074 0.950 . S
C1070 C1079 1.390 . S
C1071 C1070 1.387 . S
C1071 C1073 1.387 . S
H1072 C1079 0.950 . S
C1073 C1071 1.387 . S
C1073 C1075 1.390 . S
C1073 H1077 0.950 . S
H1074 C1070 0.950 . S
C1075 C1073 1.390 . S
C1075 C1076 1.387 . S
C1075 H1078 0.950 . S
C1076 C1075 1.387 . S
C1076 C1079 1.387 . S
H1077 C1073 0.950 . S
H1078 C1075 0.950 . S
C1079 C1070 1.390 . S
C1079 H1072 0.950 . S
C1079 C1076 1.387 . S
C1080 C1081 1.387 . S
C1080 H1084 0.950 . S
C1080 C1089 1.390 . S
C1081 C1080 1.387 . S
C1081 C1083 1.387 . S
H1082 C1089 0.950 . S
C1083 C1081 1.387 . S
C1083 C1085 1.390 . S
C1083 H1087 0.950 . S
H1084 C1080 0.950 . S
C1085 C1083 1.390 . S
C1085 C1086 1.387 . S
C1085 H1088 0.950 . S
C1086 C1085 1.387 . S
C1086 C1089 1.387 . S
H1087 C1083 0.950 . S
H1088 C1085 0.950 . S
C1089 C1080 1.390 . S
C1089 H1082 0.950 . S
C1089 C1086 1.387 . S
C1090 C1091 1.387 . S
C1090 H1094 0.950 . S
C1090 C1099 1.390 . S
C1091 C1090 1.387 . S
C1091 C1093 1.387 . S
H1092 C1099 0.950 . S
C1093 C1091 1.387 . S
C1093 C1095 1.390 . S
C1093 H1097 0.950 . S
H1094 C1090 0.950 . S
C1095 C1093 1.390 . S
C1095 C1096 1.387 . S
C1095 H1098 0.950 . S
C1096 C1095 1.387 . S
C1096 C1099 1.387 . S
H1097 C1093 0.950 . S
H1098 C1095 0.950 . S
C1099 C1090 1.390 . S
C1099 H1092 0.950 . S
C1099 C1096 1.387 . S
C1100 C1101 1.387 . S
C1100 H1104 0.950 . S
C1100 C1109 1.390 . S
C1101 C1100 1.387 . S
C1101 C1103 1.387 . S
H1102 C1109 0.950 . S
C1103 C1101 1.387 . S
C1103 C1105 1.390 . S
C1103 H1107 0.950 . S
H1104 C1100 0.950 . S
C1105 C1103 1.390 . S
C1105 C1106 1.387 . S
C1105 H1108 0.950 . S
C1106 C1105 1.387 . S
C1106 C1109 1.387 . S
H1107 C1103 0.950 . S
H1108 C1105 0.950 . S
C1109 C1100 1.390 . S
C1109 H1102 0.950 . S
C1109 C1106 1.387 . S
C1110 C1111 1.387 . S
C1110 H1114 0.950 . S
C1110 C1119 1.390 . S
C1111 C1110 1.387 . S
C1111 C1113 1.387 . S
H1112 C1119 0.950 . S
C1113 C1111 1.387 . S
C1113 C1115 1.390 . S
C1113 H1117 0.950 . S
H1114 C1110 0.950 . S
C1115 C1113 1.390 . S
C1115 C1116 1.387 . S
C1115 H1118 0.950 . S
C1116 C1115 1.387 . S
C1116 C1119 1.387 . S
H1117 C1113 0.950 . S
H1118 C1115 0.950 . S
C1119 C1110 1.390 . S
C1119 H1112 0.950 . S
C1119 C1116 1.387 . S
C1120 C1121 1.387 . S
C1120 H1124 0.950 . S
C1120 C1129 1.390 . S
C1121 C1120 1.387 . S
C1121 C1123 1.387 . S
H1122 C1129 0.950 1_556 S
C1123 C1121 1.387 . S
C1123 C1125 1.390 . S
C1123 H1127 0.950 . S
H1124 C1120 0.950 . S
C1125 C1123 1.390 . S
C1125 C1126 1.387 . S
C1125 H1128 0.950 . S
C1126 C1125 1.387 . S
C1126 C1129 1.387 . S
H1127 C1123 0.950 . S
H1128 C1125 0.950 . S
C1129 C1120 1.390 . S
C1129 H1122 0.950 1_554 S
C1129 C1126 1.387 . S
C1130 C1131 1.387 . S
C1130 H1134 0.950 . S
C1130 C1139 1.390 . S
C1131 C1130 1.387 . S
C1131 C1133 1.387 . S
H1132 C1139 0.950 . S
C1133 C1131 1.387 . S
C1133 C1135 1.390 . S
C1133 H1137 0.950 . S
H1134 C1130 0.950 . S
C1135 C1133 1.390 . S
C1135 C1136 1.387 . S
C1135 H1138 0.950 . S
C1136 C1135 1.387 . S
C1136 C1139 1.387 . S
H1137 C1133 0.950 . S
H1138 C1135 0.950 . S
C1139 C1130 1.390 . S
C1139 H1132 0.950 . S
C1139 C1136 1.387 . S
C906 C841 1.825 . S
C901 C29 1.807 . S
C911 C115 1.774 . S
C916 C401 1.755 . S
C921 C153 1.729 . S
C926 C489 1.769 . S
C931 C239 1.808 . S
C936 C568 1.778 . S
C946 C665 1.760 . S
C941 C301 1.760 . S
C951 C339 1.988 . S
C956 C744 2.045 . S
C961 C91 1.732 . S
C966 C509 1.768 . S
C971 C177 1.775 . S
C976 C605 1.755 . S
C981 C215 1.805 . S
C986 C685 1.825 . S
C996 C781 2.045 . S
C991 C277 1.989 . S
C1006 C861 1.760 . S
C1001 C363 1.759 . S
C1016 C421 1.775 . S
C1011 C53 1.808 . S
C1021 C35 1.545 . S
C1026 C517 1.579 . S
C1031 C109 1.386 . S
C1036 C597 1.541 . S
C1046 C693 1.445 . S
C1041 C159 1.420 . S
C1051 C233 1.594 . S
C1056 C773 1.759 . S
C1066 C869 1.616 . S
C1061 C295 1.424 . S
C1076 C429 1.382 . S
C1071 C345 1.364 . S
C1086 C832 1.444 . S
C1081 C97 1.422 . S
C1091 C171 1.381 . S
C1096 C392 1.539 . S
C1106 C480 1.578 . S
C1101 C221 1.544 . S
C1111 C283 1.365 . S
C1116 C577 1.382 . S
C1121 C357 1.427 . S
C1126 C656 1.618 . S
C1131 C47 1.598 . S
C1136 C753 1.760 . S
