# Generated by pormake.
# Topology cml, (3,6)-cn, num edge types: 1
# Building blocks:
#     Node 0, Type 0, BuildingBlock: MIDCAF_clean_linker_0, # of connection points: 3
#     Node 1, Type 0, BuildingBlock: MIDCAF_clean_linker_0, # of connection points: 3
#     Node 2, Type 0, BuildingBlock: MIDCAF_clean_linker_0, # of connection points: 3
#     Node 3, Type 0, BuildingBlock: MIDCAF_clean_linker_0, # of connection points: 3
#     Node 4, Type 0, BuildingBlock: MIDCAF_clean_linker_0, # of connection points: 3
#     Node 5, Type 0, BuildingBlock: MIDCAF_clean_linker_0, # of connection points: 3
#     Node 6, Type 0, BuildingBlock: MIDCAF_clean_linker_0, # of connection points: 3
#     Node 7, Type 0, BuildingBlock: MIDCAF_clean_linker_0, # of connection points: 3
#     Node 8, Type 1, BuildingBlock: IZENUY_clean_sbu_0, # of connection points: 6
#     Node 9, Type 1, BuildingBlock: IZENUY_clean_sbu_0, # of connection points: 6
#     Node 10, Type 1, BuildingBlock: IZENUY_clean_sbu_0, # of connection points: 6
#     Node 11, Type 1, BuildingBlock: IZENUY_clean_sbu_0, # of connection points: 6
#     Edge 12, Type (0, 1), BuildingBlock: OJICUG_clean_linker_0, # of connection points: 2
#     Edge 13, Type (0, 1), BuildingBlock: OJICUG_clean_linker_0, # of connection points: 2
#     Edge 14, Type (0, 1), BuildingBlock: OJICUG_clean_linker_0, # of connection points: 2
#     Edge 15, Type (0, 1), BuildingBlock: OJICUG_clean_linker_0, # of connection points: 2
#     Edge 16, Type (0, 1), BuildingBlock: OJICUG_clean_linker_0, # of connection points: 2
#     Edge 17, Type (0, 1), BuildingBlock: OJICUG_clean_linker_0, # of connection points: 2
#     Edge 18, Type (0, 1), BuildingBlock: OJICUG_clean_linker_0, # of connection points: 2
#     Edge 19, Type (0, 1), BuildingBlock: OJICUG_clean_linker_0, # of connection points: 2
#     Edge 20, Type (0, 1), BuildingBlock: OJICUG_clean_linker_0, # of connection points: 2
#     Edge 21, Type (0, 1), BuildingBlock: OJICUG_clean_linker_0, # of connection points: 2
#     Edge 22, Type (0, 1), BuildingBlock: OJICUG_clean_linker_0, # of connection points: 2
#     Edge 23, Type (0, 1), BuildingBlock: OJICUG_clean_linker_0, # of connection points: 2
#     Edge 24, Type (0, 1), BuildingBlock: OJICUG_clean_linker_0, # of connection points: 2
#     Edge 25, Type (0, 1), BuildingBlock: OJICUG_clean_linker_0, # of connection points: 2
#     Edge 26, Type (0, 1), BuildingBlock: OJICUG_clean_linker_0, # of connection points: 2
#     Edge 27, Type (0, 1), BuildingBlock: OJICUG_clean_linker_0, # of connection points: 2
#     Edge 28, Type (0, 1), BuildingBlock: OJICUG_clean_linker_0, # of connection points: 2
#     Edge 29, Type (0, 1), BuildingBlock: OJICUG_clean_linker_0, # of connection points: 2
#     Edge 30, Type (0, 1), BuildingBlock: OJICUG_clean_linker_0, # of connection points: 2
#     Edge 31, Type (0, 1), BuildingBlock: OJICUG_clean_linker_0, # of connection points: 2
#     Edge 32, Type (0, 1), BuildingBlock: OJICUG_clean_linker_0, # of connection points: 2
#     Edge 33, Type (0, 1), BuildingBlock: OJICUG_clean_linker_0, # of connection points: 2
#     Edge 34, Type (0, 1), BuildingBlock: OJICUG_clean_linker_0, # of connection points: 2
#     Edge 35, Type (0, 1), BuildingBlock: OJICUG_clean_linker_0, # of connection points: 2
# Relax obj value: 0.057
# Max RMSD: 0.073
# Mean RMSD: 0.069
data_MOF--net-cml--node1-IZENUY_clean_sbu_0--node2-MIDCAF_clean_linker_0--edge1-OJICUG_clean_linker_0
_symmetry_space_group_name_H-M    P1
_symmetry_Int_Tables_number       1
_symmetry_cell_setting            triclinic
loop_
_symmetry_equiv_pos_as_xyz
'x, y, z'
_cell_length_a     33.633837
_cell_length_b     39.17032
_cell_length_c     36.470204
_cell_angle_alpha  90.013884
_cell_angle_beta   90.054084
_cell_angle_gamma 90.121148
loop_
_atom_site_label
_atom_site_type_symbol
_atom_site_fract_x
_atom_site_fract_y
_atom_site_fract_z
_atom_type_partial_charge
C0 C 0.34865 0.39416 0.12894 0.0
C1 C 0.34689 0.36128 0.14424 0.0
C2 C 0.3264 0.33548 0.1251 0.0
C3 C 0.30855 0.34238 0.09115 0.0
H4 H 0.24871 0.29809 0.99788 0.0
H5 H 0.20263 0.25913 0.96773 0.0
H6 H 0.1543 0.3434 0.90541 0.0
H7 H 0.20194 0.38173 0.93404 0.0
H8 H 0.30772 0.42654 0.91371 0.0
H9 H 0.3419 0.47437 0.88454 0.0
H10 H 0.34146 0.52881 0.98776 0.0
H11 H 0.30958 0.4802 0.01708 0.0
H12 H 0.3337 0.42659 0.08409 0.0
H13 H 0.36469 0.41452 0.14262 0.0
H14 H 0.32432 0.30993 0.13629 0.0
H15 H 0.29347 0.32186 0.07685 0.0
N16 N 0.27059 0.3599 0.02108 0.0
N17 N 0.26791 0.39608 0.96966 0.0
N18 N 0.30548 0.41175 0.0211 0.0
C19 C 0.25664 0.36679 0.98679 0.0
C20 C 0.29232 0.41865 0.98676 0.0
C21 C 0.29497 0.38245 0.03848 0.0
C22 C 0.22894 0.34296 0.96835 0.0
C23 C 0.22831 0.30818 0.97761 0.0
C24 C 0.20165 0.28589 0.96042 0.0
C25 C 0.17437 0.29798 0.93413 0.0
C26 C 0.17524 0.33286 0.9249 0.0
C27 C 0.20243 0.35498 0.94154 0.0
C28 C 0.30664 0.44953 0.96774 0.0
C29 C 0.31449 0.44899 0.92993 0.0
C30 C 0.33394 0.47651 0.9132 0.0
C31 C 0.34524 0.50529 0.93391 0.0
C32 C 0.33448 0.50666 0.97117 0.0
C33 C 0.31592 0.47892 0.98798 0.0
C34 C 0.31121 0.37515 0.07552 0.0
C35 C 0.33111 0.401 0.09509 0.0
C36 C 0.65298 0.60761 0.63119 0.0
C37 C 0.65651 0.63996 0.64749 0.0
C38 C 0.67813 0.66553 0.62911 0.0
C39 C 0.69533 0.65893 0.59485 0.0
H40 H 0.78846 0.68626 0.52198 0.0
H41 H 0.83792 0.72316 0.49384 0.0
H42 H 0.81906 0.67293 0.38973 0.0
H43 H 0.77037 0.63525 0.4181 0.0
H44 H 0.72059 0.56401 0.41686 0.0
H45 H 0.69102 0.51524 0.38476 0.0
H46 H 0.61991 0.49276 0.48039 0.0
H47 H 0.64966 0.54026 0.51246 0.0
H48 H 0.66581 0.57598 0.58515 0.0
H49 H 0.63606 0.5875 0.64432 0.0
H50 H 0.6815 0.69066 0.64112 0.0
H51 H 0.71128 0.67926 0.58107 0.0
N52 N 0.73276 0.64106 0.5245 0.0
N53 N 0.73125 0.60718 0.47123 0.0
N54 N 0.69202 0.59264 0.52185 0.0
C55 C 0.74572 0.63474 0.48978 0.0
C56 C 0.70433 0.58598 0.4872 0.0
C57 C 0.70591 0.61999 0.54072 0.0
C58 C 0.77537 0.65767 0.47237 0.0
C59 C 0.79474 0.68305 0.49306 0.0
C60 C 0.823 0.70441 0.47685 0.0
C61 C 0.83247 0.70112 0.43946 0.0
C62 C 0.81294 0.67587 0.41871 0.0
C63 C 0.78483 0.65435 0.43498 0.0
C64 C 0.68762 0.55615 0.46731 0.0
C65 C 0.69885 0.54846 0.43107 0.0
C66 C 0.68181 0.52061 0.41261 0.0
C67 C 0.65336 0.49989 0.4301 0.0
C68 C 0.64239 0.50762 0.46631 0.0
C69 C 0.65931 0.53522 0.48466 0.0
C70 C 0.69076 0.62677 0.57817 0.0
C71 C 0.6698 0.60112 0.597 0.0
C72 C 0.64337 0.38725 0.12467 0.0
C73 C 0.65223 0.35675 0.14317 0.0
C74 C 0.6788 0.33359 0.12686 0.0
C75 C 0.69651 0.34116 0.09294 0.0
H76 H 0.76803 0.30296 0.0081 0.0
H77 H 0.8147 0.26509 0.97765 0.0
H78 H 0.83446 0.34108 0.89375 0.0
H79 H 0.78702 0.37876 0.92366 0.0
H80 H 0.72235 0.44121 0.9184 0.0
H81 H 0.69381 0.49163 0.88907 0.0
H82 H 0.64069 0.52121 0.99206 0.0
H83 H 0.66962 0.47168 0.02143 0.0
H84 H 0.65299 0.41862 0.07801 0.0
H85 H 0.62225 0.40529 0.13587 0.0
H86 H 0.6862 0.30986 0.14046 0.0
H87 H 0.71697 0.32294 0.08107 0.0
N88 N 0.73075 0.35912 0.02106 0.0
N89 N 0.73587 0.39789 0.97198 0.0
N90 N 0.69599 0.41078 0.02258 0.0
C91 C 0.74612 0.36759 0.98768 0.0
C92 C 0.71084 0.41967 0.98943 0.0
C93 C 0.70558 0.38072 0.03867 0.0
C94 C 0.77383 0.34409 0.96856 0.0
C95 C 0.78217 0.31165 0.98311 0.0
C96 C 0.80911 0.28994 0.9657 0.0
C97 C 0.82858 0.30012 0.93336 0.0
C98 C 0.81971 0.33227 0.91839 0.0
C99 C 0.79264 0.35399 0.93575 0.0
C100 C 0.69785 0.45206 0.97216 0.0
C101 C 0.70514 0.45878 0.9349 0.0
C102 C 0.68866 0.48759 0.91806 0.0
C103 C 0.66474 0.51032 0.93817 0.0
C104 C 0.65927 0.50449 0.97581 0.0
C105 C 0.67559 0.47576 0.99258 0.0
C106 C 0.68775 0.37194 0.07472 0.0
C107 C 0.66091 0.39478 0.09112 0.0
C108 C 0.35724 0.61072 0.63365 0.0
C109 C 0.34977 0.64213 0.6509 0.0
C110 C 0.32462 0.66571 0.63336 0.0
C111 C 0.30746 0.65792 0.59925 0.0
H112 H 0.20754 0.6758 0.52386 0.0
H113 H 0.16012 0.71253 0.49292 0.0
H114 H 0.20423 0.67802 0.38788 0.0
H115 H 0.25009 0.63976 0.41914 0.0
H116 H 0.28783 0.56091 0.42213 0.0
H117 H 0.31725 0.51159 0.39158 0.0
H118 H 0.37515 0.48288 0.49272 0.0
H119 H 0.34539 0.53141 0.52337 0.0
H120 H 0.34725 0.57856 0.58755 0.0
H121 H 0.37714 0.59221 0.64585 0.0
H122 H 0.31819 0.6901 0.646 0.0
H123 H 0.28848 0.67668 0.58627 0.0
N124 N 0.27362 0.63936 0.52752 0.0
N125 N 0.27384 0.60308 0.47606 0.0
N126 N 0.31192 0.58952 0.52773 0.0
C127 C 0.26068 0.63188 0.49301 0.0
C128 C 0.29932 0.58162 0.49344 0.0
C129 C 0.29947 0.61825 0.545 0.0
C130 C 0.23256 0.65489 0.47398 0.0
C131 C 0.20713 0.67611 0.49416 0.0
C132 C 0.18008 0.69741 0.47629 0.0
C133 C 0.17833 0.69864 0.4377 0.0
C134 C 0.2041 0.67749 0.41755 0.0
C135 C 0.23064 0.65566 0.43548 0.0
C136 C 0.31451 0.55043 0.47515 0.0
C137 C 0.30646 0.54387 0.43796 0.0
C138 C 0.32343 0.51566 0.4204 0.0
C139 C 0.34866 0.49336 0.43968 0.0
C140 C 0.35548 0.49926 0.47714 0.0
C141 C 0.33865 0.5274 0.49464 0.0
C142 C 0.31539 0.62651 0.58197 0.0
C143 C 0.34026 0.60299 0.59984 0.0
C144 C 0.86255 0.88561 0.1311 0.0
C145 C 0.85391 0.85473 0.14902 0.0
C146 C 0.82835 0.83121 0.13175 0.0
C147 C 0.81155 0.83871 0.09742 0.0
H148 H 0.73996 0.80071 0.01203 0.0
H149 H 0.69269 0.76346 0.98107 0.0
H150 H 0.67657 0.83922 0.89631 0.0
H151 H 0.72456 0.87621 0.92668 0.0
H152 H 0.78548 0.93861 0.92284 0.0
H153 H 0.8133 0.98875 0.89248 0.0
H154 H 0.87369 0.01682 0.99267 0.0
H155 H 0.84553 0.96736 0.02318 0.0
H156 H 0.85366 0.91717 0.08441 0.0
H157 H 0.88287 0.90398 0.14308 0.0
H158 H 0.82111 0.80719 0.14487 0.0
H159 H 0.79195 0.82014 0.0848 0.0
N160 N 0.77833 0.85671 0.02527 0.0
N161 N 0.77493 0.89488 0.97562 0.0
N162 N 0.81412 0.90805 0.02669 0.0
C163 C 0.76381 0.86492 0.99149 0.0
C164 C 0.80006 0.91661 0.99311 0.0
C165 C 0.80355 0.87828 0.04306 0.0
C166 C 0.73596 0.84164 0.97209 0.0
C167 C 0.72652 0.80945 0.98673 0.0
C168 C 0.69926 0.7881 0.96901 0.0
C169 C 0.68059 0.79845 0.93632 0.0
C170 C 0.69068 0.83029 0.92122 0.0
C171 C 0.71805 0.85162 0.93886 0.0
C172 C 0.81362 0.94864 0.97536 0.0
C173 C 0.80426 0.9557 0.93855 0.0
C174 C 0.8203 0.98438 0.92109 0.0
C175 C 0.84587 0.00667 0.94011 0.0
C176 C 0.85376 0.00041 0.97732 0.0
C177 C 0.83785 0.97177 0.99473 0.0
C178 C 0.82025 0.86977 0.07967 0.0
C179 C 0.84593 0.89305 0.09709 0.0
C180 C 0.14055 0.11402 0.62363 0.0
C181 C 0.15051 0.14363 0.64333 0.0
C182 C 0.17833 0.16648 0.62815 0.0
C183 C 0.19627 0.15938 0.59422 0.0
H184 H 0.26947 0.19844 0.50991 0.0
H185 H 0.31646 0.23632 0.47952 0.0
H186 H 0.33394 0.16119 0.39435 0.0
H187 H 0.28629 0.12359 0.42413 0.0
H188 H 0.22217 0.06146 0.41826 0.0
H189 H 0.19421 0.01095 0.38841 0.0
H190 H 0.14144 0.97987 0.49109 0.0
H191 H 0.16972 0.02956 0.52096 0.0
H192 H 0.14954 0.08374 0.57607 0.0
H193 H 0.11845 0.09629 0.63392 0.0
H194 H 0.18658 0.18955 0.64268 0.0
H195 H 0.21778 0.17727 0.58328 0.0
N196 N 0.23036 0.14259 0.52179 0.0
N197 N 0.23586 0.10408 0.47251 0.0
N198 N 0.19532 0.0909 0.52256 0.0
C199 C 0.24608 0.13428 0.48849 0.0
C200 C 0.21055 0.0822 0.48952 0.0
C201 C 0.20484 0.12088 0.53897 0.0
C202 C 0.27411 0.1578 0.46966 0.0
C203 C 0.28318 0.18997 0.48465 0.0
C204 C 0.3103 0.21168 0.46727 0.0
C205 C 0.32917 0.20175 0.43455 0.0
C206 C 0.31964 0.16984 0.41925 0.0
C207 C 0.29244 0.14815 0.43656 0.0
C208 C 0.19778 0.04987 0.47191 0.0
C209 C 0.20515 0.04355 0.43458 0.0
C210 C 0.189 0.01469 0.41744 0.0
C211 C 0.16541 0.99149 0.43734 0.0
C212 C 0.1598 0.99697 0.47502 0.0
C213 C 0.17574 0.02577 0.49207 0.0
C214 C 0.18652 0.12937 0.57488 0.0
C215 C 0.15832 0.10694 0.59009 0.0
C216 C 0.15334 0.8913 0.13054 0.0
C217 C 0.15647 0.85874 0.14636 0.0
C218 C 0.17735 0.83315 0.12743 0.0
C219 C 0.19426 0.83997 0.09307 0.0
H220 H 0.28602 0.81292 0.01945 0.0
H221 H 0.33489 0.77598 0.99092 0.0
H222 H 0.31732 0.82767 0.88752 0.0
H223 H 0.26909 0.86543 0.91633 0.0
H224 H 0.21911 0.93708 0.9163 0.0
H225 H 0.18896 0.98593 0.88498 0.0
H226 H 0.11675 0.00561 0.98057 0.0
H227 H 0.14708 0.95813 0.01187 0.0
H228 H 0.16617 0.92331 0.0848 0.0
H229 H 0.13697 0.91144 0.14414 0.0
H230 H 0.18038 0.80785 0.13906 0.0
H231 H 0.20964 0.81964 0.07884 0.0
N232 N 0.23144 0.85851 0.02276 0.0
N233 N 0.22946 0.89271 0.96975 0.0
N234 N 0.19075 0.9068 0.02084 0.0
C235 C 0.24408 0.86507 0.98798 0.0
C236 C 0.2027 0.91372 0.98614 0.0
C237 C 0.20481 0.87939 0.03937 0.0
C238 C 0.27352 0.84225 0.97025 0.0
C239 C 0.29242 0.81647 0.99061 0.0
C240 C 0.32036 0.79507 0.97416 0.0
C241 C 0.32998 0.79871 0.93685 0.0
C242 C 0.31101 0.82442 0.91642 0.0
C243 C 0.28317 0.84598 0.93294 0.0
C244 C 0.18566 0.94359 0.96667 0.0
C245 C 0.197 0.95204 0.93066 0.0
C246 C 0.17964 0.97993 0.91265 0.0
C247 C 0.15069 0.9999 0.93037 0.0
C248 C 0.1396 0.99138 0.96634 0.0
C249 C 0.15687 0.96378 0.98424 0.0
C250 C 0.19006 0.87235 0.07688 0.0
C251 C 0.16983 0.898 0.09627 0.0
C252 C 0.84699 0.10572 0.62952 0.0
C253 C 0.84531 0.13867 0.64467 0.0
C254 C 0.82511 0.16441 0.62533 0.0
C255 C 0.80764 0.15742 0.59122 0.0
H256 H 0.71999 0.18858 0.51542 0.0
H257 H 0.67263 0.22634 0.4858 0.0
H258 H 0.68803 0.17178 0.38382 0.0
H259 H 0.73469 0.1333 0.41368 0.0
H260 H 0.81317 0.07512 0.41256 0.0
H261 H 0.84759 0.02723 0.38377 0.0
H262 H 0.84459 0.97252 0.48674 0.0
H263 H 0.81241 0.02103 0.51565 0.0
H264 H 0.83251 0.07322 0.5845 0.0
H265 H 0.86278 0.0854 0.64342 0.0
H266 H 0.82309 0.18999 0.63642 0.0
H267 H 0.79292 0.17793 0.57669 0.0
N268 N 0.77101 0.13989 0.52062 0.0
N269 N 0.77163 0.10522 0.46798 0.0
N270 N 0.8072 0.0889 0.52038 0.0
C271 C 0.75877 0.13379 0.4856 0.0
C272 C 0.79564 0.08259 0.4854 0.0
C273 C 0.79533 0.11753 0.53816 0.0
C274 C 0.73118 0.15775 0.46703 0.0
C275 C 0.71349 0.18464 0.48664 0.0
C276 C 0.68642 0.20648 0.46956 0.0
C277 C 0.67648 0.20217 0.43237 0.0
C278 C 0.69454 0.17556 0.41262 0.0
C279 C 0.7215 0.15358 0.42975 0.0
C280 C 0.81075 0.05195 0.46643 0.0
C281 C 0.81951 0.05262 0.4288 0.0
C282 C 0.83908 0.02508 0.4123 0.0
C283 C 0.84963 0.99615 0.43305 0.0
C284 C 0.83819 0.99475 0.47013 0.0
C285 C 0.81946 0.02246 0.4867 0.0
C286 C 0.81044 0.12464 0.57564 0.0
C287 C 0.82986 0.09881 0.59548 0.0
Fe288 Fe 0.00585 0.79969 0.31624 0.0
Fe289 Fe 0.00775 0.83961 0.38901 0.0
O290 O 0.00647 0.83914 0.34046 0.0
Fe291 Fe 0.006 0.87833 0.31635 0.0
O292 O 0.97581 0.86245 0.27837 0.0
O293 O 0.95923 0.80994 0.29341 0.0
O294 O 0.97626 0.77709 0.35113 0.0
C295 C 0.95415 0.78829 0.37661 0.0
C296 C 0.05758 0.84154 0.27398 0.0
O297 O 0.96095 0.81683 0.39142 0.0
C298 C 0.06028 0.89094 0.37419 0.0
O299 O 0.05247 0.78626 0.33697 0.0
O300 O 0.03644 0.80025 0.39339 0.0
O301 O 0.05186 0.86784 0.29317 0.0
O302 O 0.03525 0.81557 0.27717 0.0
C303 C 0.95573 0.8943 0.37224 0.0
O304 O 0.05476 0.86249 0.3896 0.0
O305 O 0.03635 0.90151 0.34994 0.0
C306 C 0.05906 0.78519 0.371 0.0
O307 O 0.97932 0.87924 0.39387 0.0
O308 O 0.95992 0.89155 0.33803 0.0
C309 C 0.95294 0.83695 0.2755 0.0
Fe310 Fe 1.0008 0.15834 0.88486 0.0
Fe311 Fe 0.99863 0.11959 0.81206 0.0
O312 O 0.99996 0.15875 0.83629 0.0
Fe313 Fe 1.00003 0.19816 0.81208 0.0
O314 O 0.03149 0.22059 0.84588 0.0
O315 O 0.04761 0.18085 0.88591 0.0
O316 O 0.02946 0.11872 0.88855 0.0
C317 C 0.05178 0.10361 0.86583 0.0
C318 C 0.94949 0.2135 0.86868 0.0
O319 O 0.04534 0.1057 0.83186 0.0
C320 C 0.94603 0.15684 0.77137 0.0
O321 O 0.95374 0.13567 0.8872 0.0
O322 O 0.96967 0.09661 0.84671 0.0
O323 O 0.95437 0.21185 0.83442 0.0
O324 O 0.97269 0.19796 0.89023 0.0
C325 C 0.05071 0.16044 0.76966 0.0
O326 O 0.95189 0.13064 0.79066 0.0
O327 O 0.96886 0.18256 0.77392 0.0
C328 C 0.94729 0.10722 0.87212 0.0
O329 O 0.02737 0.13528 0.77301 0.0
O330 O 0.04555 0.18747 0.78783 0.0
C331 C 0.05404 0.20937 0.87107 0.0
Fe332 Fe 0.50097 0.30167 0.31164 0.0
Fe333 Fe 0.50373 0.34151 0.38423 0.0
O334 O 0.50198 0.34116 0.33572 0.0
Fe335 Fe 0.50097 0.38026 0.31145 0.0
O336 O 0.45391 0.36948 0.29029 0.0
O337 O 0.47006 0.31746 0.27354 0.0
O338 O 0.45516 0.28881 0.33436 0.0
C339 C 0.45087 0.28714 0.3687 0.0
C340 C 0.55221 0.33883 0.26902 0.0
O341 O 0.47511 0.30204 0.3899 0.0
C342 C 0.55493 0.39607 0.36478 0.0
O343 O 0.53201 0.27883 0.34538 0.0
O344 O 0.55044 0.31878 0.38424 0.0
O345 O 0.52931 0.36422 0.27237 0.0
O346 O 0.54658 0.31178 0.28711 0.0
C347 C 0.45054 0.39294 0.37214 0.0
O348 O 0.53284 0.38094 0.38768 0.0
O349 O 0.54803 0.39405 0.33089 0.0
C350 C 0.55591 0.29007 0.3695 0.0
O351 O 0.45702 0.36455 0.38734 0.0
O352 O 0.47252 0.40336 0.34629 0.0
C353 C 0.44762 0.34332 0.27099 0.0
Fe354 Fe 0.50475 0.66037 0.88898 0.0
Fe355 Fe 0.50428 0.62097 0.81676 0.0
O356 O 0.50454 0.66033 0.84045 0.0
Fe357 Fe 0.50479 0.69958 0.81601 0.0
O358 O 0.5513 0.71274 0.83756 0.0
O359 O 0.53262 0.70022 0.89352 0.0
O360 O 0.55198 0.63795 0.89054 0.0
C361 C 0.55794 0.60944 0.87532 0.0
C362 C 0.45142 0.71115 0.87505 0.0
O363 O 0.5343 0.5984 0.85097 0.0
C364 C 0.45197 0.66207 0.77503 0.0
O365 O 0.47681 0.6205 0.89392 0.0
O366 O 0.45786 0.60784 0.83809 0.0
O367 O 0.47457 0.7224 0.85031 0.0
O368 O 0.45768 0.68264 0.8901 0.0
C369 C 0.55664 0.65737 0.77452 0.0
O370 O 0.47449 0.63647 0.77839 0.0
O371 O 0.4585 0.68935 0.79248 0.0
C372 C 0.4533 0.60536 0.87227 0.0
O373 O 0.55043 0.6312 0.79381 0.0
O374 O 0.53468 0.68349 0.77747 0.0
C375 C 0.55642 0.71479 0.87178 0.0
C376 C 0.12783 0.24771 0.93778 0.0
C377 C 0.14441 0.27461 0.91725 0.0
H378 H 0.0868 0.20602 0.93924 0.0
C379 C 0.13135 0.27937 0.88088 0.0
H380 H 0.13629 0.24357 0.96607 0.0
C381 C 0.10199 0.25825 0.86577 0.0
C382 C 0.0856 0.23148 0.88644 0.0
H383 H 0.14388 0.29932 0.86389 0.0
H384 H 0.09237 0.26268 0.83782 0.0
C385 C 0.09912 0.22625 0.92246 0.0
C386 C 0.86557 0.75836 0.43229 0.0
C387 C 0.86288 0.72373 0.42238 0.0
H388 H 0.89623 0.80584 0.42563 0.0
C389 C 0.8899 0.71077 0.39648 0.0
H390 H 0.84481 0.76938 0.45163 0.0
C391 C 0.91913 0.73181 0.3812 0.0
C392 C 0.92223 0.76627 0.39166 0.0
H393 H 0.88906 0.68414 0.38854 0.0
H394 H 0.93974 0.72087 0.36167 0.0
C395 C 0.89494 0.77934 0.41721 0.0
C396 C 0.88608 0.25983 0.93846 0.0
C397 C 0.85914 0.27777 0.91625 0.0
H398 H 0.93534 0.22575 0.94104 0.0
C399 C 0.86213 0.2745 0.8779 0.0
H400 H 0.88518 0.26222 0.96804 0.0
C401 C 0.89137 0.25366 0.86221 0.0
C402 C 0.91825 0.23571 0.88457 0.0
H403 H 0.8416 0.28774 0.86001 0.0
H404 H 0.89283 0.25155 0.83263 0.0
C405 C 0.91513 0.23906 0.92287 0.0
C406 C 0.13923 0.75328 0.43464 0.0
C407 C 0.14955 0.72175 0.41883 0.0
H408 H 0.10252 0.79774 0.43192 0.0
C409 C 0.13135 0.7123 0.38546 0.0
H410 H 0.15334 0.76211 0.4596 0.0
C411 C 0.10296 0.73345 0.36894 0.0
C412 C 0.09161 0.76409 0.38585 0.0
H413 H 0.13806 0.6881 0.37257 0.0
H414 H 0.08879 0.72521 0.34375 0.0
C415 C 0.11032 0.77394 0.4186 0.0
C416 C 0.64641 0.77329 0.88079 0.0
C417 C 0.64931 0.77681 0.91914 0.0
H418 H 0.61491 0.75085 0.83553 0.0
C419 C 0.6214 0.75997 0.94133 0.0
H420 H 0.66766 0.78574 0.86293 0.0
C421 C 0.59151 0.74 0.92576 0.0
C422 C 0.58847 0.73638 0.88747 0.0
H423 H 0.62219 0.76262 0.97089 0.0
H424 H 0.5706 0.72752 0.94395 0.0
C425 C 0.61629 0.75323 0.86509 0.0
C426 C 0.36215 0.2275 0.37887 0.0
C427 C 0.35973 0.22405 0.41724 0.0
H428 H 0.39266 0.25018 0.33331 0.0
C429 C 0.38736 0.24161 0.43919 0.0
H430 H 0.34107 0.2146 0.36118 0.0
C431 C 0.41665 0.26206 0.4233 0.0
C432 C 0.41929 0.26544 0.38497 0.0
H433 H 0.38685 0.23911 0.46876 0.0
H434 H 0.43745 0.27504 0.44124 0.0
C435 C 0.39162 0.248 0.3629 0.0
C436 C 0.36191 0.7412 0.9291 0.0
C437 C 0.36002 0.77596 0.9196 0.0
H438 H 0.39197 0.69355 0.92247 0.0
C439 C 0.38764 0.78892 0.8942 0.0
H440 H 0.34064 0.73019 0.948 0.0
C441 C 0.41686 0.76777 0.87919 0.0
C442 C 0.41929 0.73323 0.88942 0.0
H443 H 0.38736 0.81563 0.88656 0.0
H444 H 0.43803 0.77871 0.86014 0.0
C445 C 0.39124 0.72013 0.91429 0.0
C446 C 0.61864 0.21187 0.38976 0.0
C447 C 0.64685 0.225 0.41459 0.0
H448 H 0.56793 0.22202 0.35595 0.0
C449 C 0.64583 0.26 0.4231 0.0
H450 H 0.61825 0.18498 0.38288 0.0
C451 C 0.61674 0.28114 0.40797 0.0
C452 C 0.58802 0.26787 0.38378 0.0
H453 H 0.66755 0.27113 0.44152 0.0
H454 H 0.61665 0.30791 0.41547 0.0
C455 C 0.58964 0.23309 0.37444 0.0
C456 C 0.36766 0.54236 0.88092 0.0
C457 C 0.37116 0.53231 0.91787 0.0
H458 H 0.39087 0.57341 0.83733 0.0
C459 C 0.40125 0.54717 0.93942 0.0
H460 H 0.34462 0.53172 0.86358 0.0
C461 C 0.42709 0.57129 0.92463 0.0
C462 C 0.42413 0.58092 0.88764 0.0
H463 H 0.40576 0.53953 0.96765 0.0
H464 H 0.45012 0.58174 0.94216 0.0
C465 C 0.39402 0.56634 0.8659 0.0
C466 C 0.62058 0.47428 0.37431 0.0
C467 C 0.63364 0.47099 0.41081 0.0
H468 H 0.58551 0.45286 0.33079 0.0
C469 C 0.62452 0.44088 0.43005 0.0
H470 H 0.62698 0.49719 0.35876 0.0
C471 C 0.60037 0.4159 0.41431 0.0
C472 C 0.58523 0.42015 0.37873 0.0
H473 H 0.63502 0.43707 0.45783 0.0
H474 H 0.59262 0.39363 0.43044 0.0
C475 C 0.59671 0.44896 0.35833 0.0
C476 C 0.62269 0.53131 0.88628 0.0
C477 C 0.64215 0.53795 0.91962 0.0
H478 H 0.58117 0.54867 0.84616 0.0
C479 C 0.63645 0.56981 0.93667 0.0
H480 H 0.62603 0.50694 0.87259 0.0
C481 C 0.61031 0.59379 0.92163 0.0
C482 C 0.58921 0.58628 0.88932 0.0
H483 H 0.65145 0.57586 0.96215 0.0
H484 H 0.60561 0.61764 0.93599 0.0
C485 C 0.59658 0.55517 0.87132 0.0
C486 C 0.38819 0.47213 0.38624 0.0
C487 C 0.3705 0.46572 0.42042 0.0
H488 H 0.42701 0.45419 0.3442 0.0
C489 C 0.37668 0.43383 0.43724 0.0
H490 H 0.38441 0.49651 0.37269 0.0
C491 C 0.40146 0.4095 0.42098 0.0
C492 C 0.42069 0.41665 0.38764 0.0
H493 H 0.363 0.42795 0.46336 0.0
H494 H 0.40651 0.38558 0.43511 0.0
C495 C 0.41296 0.44791 0.37006 0.0
C496 C 0.88442 0.02821 0.88622 0.0
C497 C 0.86725 0.03447 0.92065 0.0
H498 H 0.92286 0.04629 0.84388 0.0
C499 C 0.87373 0.0663 0.93754 0.0
H500 H 0.88037 0.00386 0.87261 0.0
C501 C 0.8984 0.09069 0.92112 0.0
C502 C 0.91724 0.08362 0.88759 0.0
H503 H 0.86046 0.07204 0.96387 0.0
H504 H 0.90379 0.11454 0.93534 0.0
C505 C 0.90911 0.05247 0.86989 0.0
C506 C 0.12353 0.97019 0.3854 0.0
C507 C 0.14335 0.96362 0.41856 0.0
H508 H 0.08203 0.95238 0.34538 0.0
C509 C 0.13851 0.93151 0.43527 0.0
H510 H 0.12626 0.99474 0.37198 0.0
C511 C 0.1128 0.90716 0.42013 0.0
C512 C 0.09127 0.91456 0.38806 0.0
H513 H 0.15382 0.92553 0.4606 0.0
H514 H 0.10875 0.88309 0.43427 0.0
C515 C 0.09781 0.94596 0.37034 0.0
C516 C 0.12059 0.05836 0.93134 0.0
C517 C 0.1306 0.0288 0.91153 0.0
H518 H 0.0879 0.10509 0.93234 0.0
C519 C 0.11815 0.026 0.87481 0.0
H520 H 0.13059 0.06182 0.95934 0.0
C521 C 0.09413 0.05124 0.85907 0.0
C522 C 0.08185 0.07949 0.87993 0.0
H523 H 0.1252 0.00352 0.85881 0.0
H524 H 0.08353 0.04772 0.83126 0.0
C525 C 0.09626 0.08325 0.91583 0.0
C526 C 0.90457 0.95338 0.43906 0.0
C527 C 0.87515 0.96878 0.41723 0.0
H528 H 0.9524 0.91791 0.44223 0.0
C529 C 0.87171 0.9587 0.38028 0.0
H530 H 0.90898 0.96097 0.46732 0.0
C531 C 0.89747 0.93419 0.36553 0.0
C532 C 0.92696 0.91909 0.38752 0.0
H533 H 0.84915 0.96973 0.36274 0.0
H534 H 0.89438 0.92717 0.33694 0.0
C535 C 0.92985 0.92874 0.42452 0.0
C536 C 0.39175 0.32457 0.18278 0.0
C537 C 0.36826 0.35403 0.17909 0.0
H538 H 0.43516 0.29793 0.21478 0.0
C539 C 0.36805 0.37803 0.20776 0.0
H540 H 0.39275 0.30569 0.16111 0.0
C541 C 0.3925 0.37373 0.23837 0.0
C542 C 0.41775 0.34528 0.24112 0.0
H543 H 0.3497 0.40067 0.20609 0.0
H544 H 0.39248 0.39332 0.25935 0.0
C545 C 0.41621 0.32022 0.2135 0.0
C546 C 0.61286 0.67682 0.68682 0.0
C547 C 0.63559 0.64702 0.68251 0.0
H548 H 0.57007 0.70359 0.71934 0.0
C549 C 0.63521 0.62244 0.71057 0.0
H550 H 0.61236 0.69614 0.66558 0.0
C551 C 0.61086 0.62656 0.74121 0.0
C552 C 0.58629 0.65539 0.74455 0.0
H553 H 0.65296 0.59949 0.70835 0.0
H554 H 0.61041 0.60657 0.76173 0.0
C555 C 0.58846 0.68098 0.71755 0.0
C556 C 0.62684 0.3764 0.20398 0.0
C557 C 0.63262 0.34961 0.17889 0.0
H558 H 0.59678 0.39373 0.25207 0.0
C559 C 0.61603 0.31739 0.18671 0.0
H560 H 0.64011 0.40125 0.19938 0.0
C561 C 0.5917 0.31289 0.2176 0.0
C562 C 0.58338 0.34067 0.24071 0.0
H563 H 0.61991 0.29625 0.16791 0.0
H564 H 0.57746 0.28842 0.22206 0.0
C565 C 0.6022 0.37208 0.23426 0.0
C566 C 0.37494 0.6241 0.7125 0.0
C567 C 0.36981 0.65006 0.68631 0.0
H568 H 0.40504 0.60782 0.76107 0.0
C569 C 0.38757 0.68213 0.69269 0.0
H570 H 0.36081 0.59943 0.70904 0.0
C571 C 0.41238 0.68716 0.72319 0.0
C572 C 0.42004 0.66007 0.74739 0.0
H573 H 0.38427 0.70264 0.67302 0.0
H574 H 0.42755 0.71139 0.72646 0.0
C575 C 0.40008 0.62894 0.74242 0.0
C576 C 0.87779 0.87394 0.21065 0.0
C577 C 0.87291 0.84743 0.18504 0.0
H578 H 0.90696 0.89113 0.2594 0.0
C579 C 0.88993 0.81537 0.19264 0.0
H580 H 0.86418 0.89864 0.20622 0.0
C581 C 0.9139 0.81087 0.22379 0.0
C582 C 0.92142 0.83846 0.24743 0.0
H583 H 0.88676 0.79445 0.17344 0.0
H584 H 0.92864 0.78661 0.22797 0.0
C585 C 0.90208 0.86961 0.24124 0.0
C586 C 0.1237 0.12274 0.70316 0.0
C587 C 0.13084 0.15015 0.67916 0.0
H588 H 0.0927 0.10474 0.7505 0.0
C589 C 0.11563 0.18255 0.68815 0.0
H590 H 0.1359 0.09768 0.69767 0.0
C591 C 0.09135 0.18674 0.71911 0.0
C592 C 0.08169 0.15849 0.74115 0.0
H593 H 0.1206 0.20417 0.67021 0.0
H594 H 0.07825 0.21148 0.72448 0.0
C595 C 0.09911 0.12678 0.73353 0.0
C596 C 0.11237 0.82206 0.18559 0.0
C597 C 0.13587 0.85153 0.1815 0.0
H598 H 0.06915 0.79566 0.21811 0.0
C599 C 0.13651 0.87576 0.20991 0.0
H600 H 0.11111 0.80302 0.16407 0.0
C601 C 0.11237 0.87169 0.24069 0.0
C602 C 0.087 0.84326 0.24382 0.0
H603 H 0.15487 0.89843 0.20783 0.0
H604 H 0.1127 0.89144 0.26149 0.0
C605 C 0.08817 0.81795 0.21648 0.0
C606 C 0.89052 0.17542 0.68299 0.0
C607 C 0.86661 0.1461 0.67952 0.0
H608 H 0.93434 0.20198 0.71481 0.0
C609 C 0.86595 0.12236 0.7084 0.0
H610 H 0.89186 0.1941 0.66113 0.0
C611 C 0.89039 0.12673 0.739 0.0
C612 C 0.91611 0.155 0.74152 0.0
H613 H 0.84727 0.09984 0.70688 0.0
H614 H 0.89002 0.10732 0.76015 0.0
C615 C 0.91502 0.17984 0.7137 0.0
loop_
_geom_bond_atom_site_label_1
_geom_bond_atom_site_label_2
_geom_bond_distance
_geom_bond_site_symmetry_2
_ccdc_geom_bond_type
C0 C1 1.384 . S
C0 H13 0.947 . S
C0 C35 1.382 . S
C1 C0 1.384 . S
C1 C2 1.378 . S
C2 C1 1.378 . S
C2 C3 1.378 . S
C2 H14 0.952 . S
C3 C2 1.378 . S
C3 H15 0.950 . S
C3 C34 1.383 . S
H4 C23 0.947 1_554 S
H5 C24 0.946 . S
H6 C26 0.953 . S
H7 C27 0.945 . S
H8 C29 0.952 . S
H9 C30 0.949 . S
H10 C32 0.950 . S
H11 C33 0.948 1_554 S
H12 C35 0.951 . S
H13 C0 0.947 . S
H14 C2 0.952 . S
H15 C3 0.950 . S
N16 C19 1.382 1_554 S
N16 C21 1.363 . S
N17 C19 1.371 . S
N17 C20 1.372 . S
N18 C20 1.361 1_554 S
N18 C21 1.377 . S
C19 N16 1.382 1_556 S
C19 N17 1.371 . S
C19 C22 1.480 . S
C20 N17 1.372 . S
C20 N18 1.361 1_556 S
C20 C28 1.457 . S
C21 N16 1.363 . S
C21 N18 1.377 . S
C21 C34 1.479 . S
C22 C19 1.480 . S
C22 C23 1.383 . S
C22 C27 1.385 . S
C23 H4 0.947 1_556 S
C23 C22 1.383 . S
C23 C24 1.388 . S
C24 H5 0.946 . S
C24 C23 1.388 . S
C24 C25 1.384 . S
C25 C24 1.384 . S
C25 C26 1.377 . S
C26 H6 0.953 . S
C26 C25 1.377 . S
C26 C27 1.369 . S
C27 H7 0.945 . S
C27 C22 1.385 . S
C27 C26 1.369 . S
C28 C20 1.457 . S
C28 C29 1.372 . S
C28 C33 1.364 . S
C29 H8 0.952 . S
C29 C28 1.372 . S
C29 C30 1.389 . S
C30 H9 0.949 . S
C30 C29 1.389 . S
C30 C31 1.387 . S
C31 C30 1.387 . S
C31 C32 1.372 . S
C32 H10 0.950 . S
C32 C31 1.372 . S
C32 C33 1.379 . S
C33 H11 0.948 1_556 S
C33 C28 1.364 . S
C33 C32 1.379 . S
C34 C3 1.383 . S
C34 C21 1.479 . S
C34 C35 1.398 . S
C35 C0 1.382 . S
C35 H12 0.951 . S
C35 C34 1.398 . S
C36 C37 1.384 . S
C36 H49 0.947 . S
C36 C71 1.382 . S
C37 C36 1.384 . S
C37 C38 1.378 . S
C38 C37 1.378 . S
C38 C39 1.378 . S
C38 H50 0.952 . S
C39 C38 1.378 . S
C39 H51 0.950 . S
C39 C70 1.383 . S
H40 C59 0.947 . S
H41 C60 0.946 . S
H42 C62 0.953 . S
H43 C63 0.945 . S
H44 C65 0.952 . S
H45 C66 0.949 . S
H46 C68 0.950 . S
H47 C69 0.948 . S
H48 C71 0.951 . S
H49 C36 0.947 . S
H50 C38 0.952 . S
H51 C39 0.950 . S
N52 C55 1.382 . S
N52 C57 1.363 . S
N53 C55 1.371 . S
N53 C56 1.372 . S
N54 C56 1.361 . S
N54 C57 1.377 . S
C55 N52 1.382 . S
C55 N53 1.371 . S
C55 C58 1.480 . S
C56 N53 1.372 . S
C56 N54 1.361 . S
C56 C64 1.457 . S
C57 N52 1.363 . S
C57 N54 1.377 . S
C57 C70 1.479 . S
C58 C55 1.480 . S
C58 C59 1.383 . S
C58 C63 1.385 . S
C59 H40 0.947 . S
C59 C58 1.383 . S
C59 C60 1.388 . S
C60 H41 0.946 . S
C60 C59 1.388 . S
C60 C61 1.384 . S
C61 C60 1.384 . S
C61 C62 1.377 . S
C62 H42 0.953 . S
C62 C61 1.377 . S
C62 C63 1.369 . S
C63 H43 0.945 . S
C63 C58 1.385 . S
C63 C62 1.369 . S
C64 C56 1.457 . S
C64 C65 1.372 . S
C64 C69 1.364 . S
C65 H44 0.952 . S
C65 C64 1.372 . S
C65 C66 1.389 . S
C66 H45 0.949 . S
C66 C65 1.389 . S
C66 C67 1.387 . S
C67 C66 1.387 . S
C67 C68 1.372 . S
C68 H46 0.950 . S
C68 C67 1.372 . S
C68 C69 1.379 . S
C69 H47 0.948 . S
C69 C64 1.364 . S
C69 C68 1.379 . S
C70 C39 1.383 . S
C70 C57 1.479 . S
C70 C71 1.398 . S
C71 C36 1.382 . S
C71 H48 0.951 . S
C71 C70 1.398 . S
C72 C73 1.384 . S
C72 H85 0.947 . S
C72 C107 1.382 . S
C73 C72 1.384 . S
C73 C74 1.378 . S
C74 C73 1.378 . S
C74 C75 1.378 . S
C74 H86 0.952 . S
C75 C74 1.378 . S
C75 H87 0.950 . S
C75 C106 1.383 . S
H76 C95 0.947 1_554 S
H77 C96 0.946 . S
H78 C98 0.953 . S
H79 C99 0.945 . S
H80 C101 0.952 . S
H81 C102 0.949 . S
H82 C104 0.950 . S
H83 C105 0.948 1_554 S
H84 C107 0.951 . S
H85 C72 0.947 . S
H86 C74 0.952 . S
H87 C75 0.950 . S
N88 C91 1.382 1_554 S
N88 C93 1.363 . S
N89 C91 1.371 . S
N89 C92 1.372 . S
N90 C92 1.361 1_554 S
N90 C93 1.377 . S
C91 N88 1.382 1_556 S
C91 N89 1.371 . S
C91 C94 1.480 . S
C92 N89 1.372 . S
C92 N90 1.361 1_556 S
C92 C100 1.457 . S
C93 N88 1.363 . S
C93 N90 1.377 . S
C93 C106 1.479 . S
C94 C91 1.480 . S
C94 C95 1.383 . S
C94 C99 1.385 . S
C95 H76 0.947 1_556 S
C95 C94 1.383 . S
C95 C96 1.388 . S
C96 H77 0.946 . S
C96 C95 1.388 . S
C96 C97 1.384 . S
C97 C96 1.384 . S
C97 C98 1.377 . S
C98 H78 0.953 . S
C98 C97 1.377 . S
C98 C99 1.369 . S
C99 H79 0.945 . S
C99 C94 1.385 . S
C99 C98 1.369 . S
C100 C92 1.457 . S
C100 C101 1.372 . S
C100 C105 1.364 . S
C101 H80 0.952 . S
C101 C100 1.372 . S
C101 C102 1.389 . S
C102 H81 0.949 . S
C102 C101 1.389 . S
C102 C103 1.387 . S
C103 C102 1.387 . S
C103 C104 1.372 . S
C104 H82 0.950 . S
C104 C103 1.372 . S
C104 C105 1.379 . S
C105 H83 0.948 1_556 S
C105 C100 1.364 . S
C105 C104 1.379 . S
C106 C75 1.383 . S
C106 C93 1.479 . S
C106 C107 1.398 . S
C107 C72 1.382 . S
C107 H84 0.951 . S
C107 C106 1.398 . S
C108 C109 1.384 . S
C108 H121 0.947 . S
C108 C143 1.382 . S
C109 C108 1.384 . S
C109 C110 1.378 . S
C110 C109 1.378 . S
C110 C111 1.378 . S
C110 H122 0.952 . S
C111 C110 1.378 . S
C111 H123 0.950 . S
C111 C142 1.383 . S
H112 C131 0.947 . S
H113 C132 0.946 . S
H114 C134 0.953 . S
H115 C135 0.945 . S
H116 C137 0.952 . S
H117 C138 0.949 . S
H118 C140 0.950 . S
H119 C141 0.948 . S
H120 C143 0.951 . S
H121 C108 0.947 . S
H122 C110 0.952 . S
H123 C111 0.950 . S
N124 C127 1.382 . S
N124 C129 1.363 . S
N125 C127 1.371 . S
N125 C128 1.372 . S
N126 C128 1.361 . S
N126 C129 1.377 . S
C127 N124 1.382 . S
C127 N125 1.371 . S
C127 C130 1.480 . S
C128 N125 1.372 . S
C128 N126 1.361 . S
C128 C136 1.457 . S
C129 N124 1.363 . S
C129 N126 1.377 . S
C129 C142 1.479 . S
C130 C127 1.480 . S
C130 C131 1.383 . S
C130 C135 1.385 . S
C131 H112 0.947 . S
C131 C130 1.383 . S
C131 C132 1.388 . S
C132 H113 0.946 . S
C132 C131 1.388 . S
C132 C133 1.384 . S
C133 C132 1.384 . S
C133 C134 1.377 . S
C134 H114 0.953 . S
C134 C133 1.377 . S
C134 C135 1.369 . S
C135 H115 0.945 . S
C135 C130 1.385 . S
C135 C134 1.369 . S
C136 C128 1.457 . S
C136 C137 1.372 . S
C136 C141 1.364 . S
C137 H116 0.952 . S
C137 C136 1.372 . S
C137 C138 1.389 . S
C138 H117 0.949 . S
C138 C137 1.389 . S
C138 C139 1.387 . S
C139 C138 1.387 . S
C139 C140 1.372 . S
C140 H118 0.950 . S
C140 C139 1.372 . S
C140 C141 1.379 . S
C141 H119 0.948 . S
C141 C136 1.364 . S
C141 C140 1.379 . S
C142 C111 1.383 . S
C142 C129 1.479 . S
C142 C143 1.398 . S
C143 C108 1.382 . S
C143 H120 0.951 . S
C143 C142 1.398 . S
C144 C145 1.384 . S
C144 H157 0.947 . S
C144 C179 1.382 . S
C145 C144 1.384 . S
C145 C146 1.378 . S
C146 C145 1.378 . S
C146 C147 1.378 . S
C146 H158 0.952 . S
C147 C146 1.378 . S
C147 H159 0.950 . S
C147 C178 1.383 . S
H148 C167 0.947 1_554 S
H149 C168 0.946 . S
H150 C170 0.953 . S
H151 C171 0.945 . S
H152 C173 0.952 . S
H153 C174 0.949 . S
H154 C176 0.950 1_545 S
H155 C177 0.948 1_554 S
H156 C179 0.951 . S
H157 C144 0.947 . S
H158 C146 0.952 . S
H159 C147 0.950 . S
N160 C163 1.382 1_554 S
N160 C165 1.363 . S
N161 C163 1.371 . S
N161 C164 1.372 . S
N162 C164 1.361 1_554 S
N162 C165 1.377 . S
C163 N160 1.382 1_556 S
C163 N161 1.371 . S
C163 C166 1.480 . S
C164 N161 1.372 . S
C164 N162 1.361 1_556 S
C164 C172 1.457 . S
C165 N160 1.363 . S
C165 N162 1.377 . S
C165 C178 1.479 . S
C166 C163 1.480 . S
C166 C167 1.383 . S
C166 C171 1.385 . S
C167 H148 0.947 1_556 S
C167 C166 1.383 . S
C167 C168 1.388 . S
C168 H149 0.946 . S
C168 C167 1.388 . S
C168 C169 1.384 . S
C169 C168 1.384 . S
C169 C170 1.377 . S
C170 H150 0.953 . S
C170 C169 1.377 . S
C170 C171 1.369 . S
C171 H151 0.945 . S
C171 C166 1.385 . S
C171 C170 1.369 . S
C172 C164 1.457 . S
C172 C173 1.372 . S
C172 C177 1.364 . S
C173 H152 0.952 . S
C173 C172 1.372 . S
C173 C174 1.389 . S
C174 H153 0.949 . S
C174 C173 1.389 . S
C174 C175 1.387 1_565 S
C175 C174 1.387 1_545 S
C175 C176 1.372 1_545 S
C176 H154 0.950 1_565 S
C176 C175 1.372 1_565 S
C176 C177 1.379 . S
C177 H155 0.948 1_556 S
C177 C172 1.364 . S
C177 C176 1.379 . S
C178 C147 1.383 . S
C178 C165 1.479 . S
C178 C179 1.398 . S
C179 C144 1.382 . S
C179 H156 0.951 . S
C179 C178 1.398 . S
C180 C181 1.384 . S
C180 H193 0.947 . S
C180 C215 1.382 . S
C181 C180 1.384 . S
C181 C182 1.378 . S
C182 C181 1.378 . S
C182 C183 1.378 . S
C182 H194 0.952 . S
C183 C182 1.378 . S
C183 H195 0.950 . S
C183 C214 1.383 . S
H184 C203 0.947 . S
H185 C204 0.946 . S
H186 C206 0.953 . S
H187 C207 0.945 . S
H188 C209 0.952 . S
H189 C210 0.949 . S
H190 C212 0.950 1_565 S
H191 C213 0.948 . S
H192 C215 0.951 . S
H193 C180 0.947 . S
H194 C182 0.952 . S
H195 C183 0.950 . S
N196 C199 1.382 . S
N196 C201 1.363 . S
N197 C199 1.371 . S
N197 C200 1.372 . S
N198 C200 1.361 . S
N198 C201 1.377 . S
C199 N196 1.382 . S
C199 N197 1.371 . S
C199 C202 1.480 . S
C200 N197 1.372 . S
C200 N198 1.361 . S
C200 C208 1.457 . S
C201 N196 1.363 . S
C201 N198 1.377 . S
C201 C214 1.479 . S
C202 C199 1.480 . S
C202 C203 1.383 . S
C202 C207 1.385 . S
C203 H184 0.947 . S
C203 C202 1.383 . S
C203 C204 1.388 . S
C204 H185 0.946 . S
C204 C203 1.388 . S
C204 C205 1.384 . S
C205 C204 1.384 . S
C205 C206 1.377 . S
C206 H186 0.953 . S
C206 C205 1.377 . S
C206 C207 1.369 . S
C207 H187 0.945 . S
C207 C202 1.385 . S
C207 C206 1.369 . S
C208 C200 1.457 . S
C208 C209 1.372 . S
C208 C213 1.364 . S
C209 H188 0.952 . S
C209 C208 1.372 . S
C209 C210 1.389 . S
C210 H189 0.949 . S
C210 C209 1.389 . S
C210 C211 1.387 1_545 S
C211 C210 1.387 1_565 S
C211 C212 1.372 1_565 S
C212 H190 0.950 1_545 S
C212 C211 1.372 1_545 S
C212 C213 1.379 . S
C213 H191 0.948 . S
C213 C208 1.364 . S
C213 C212 1.379 . S
C214 C183 1.383 . S
C214 C201 1.479 . S
C214 C215 1.398 . S
C215 C180 1.382 . S
C215 H192 0.951 . S
C215 C214 1.398 . S
C216 C217 1.384 . S
C216 H229 0.947 . S
C216 C251 1.382 . S
C217 C216 1.384 . S
C217 C218 1.378 . S
C218 C217 1.378 . S
C218 C219 1.378 . S
C218 H230 0.952 . S
C219 C218 1.378 . S
C219 H231 0.950 . S
C219 C250 1.383 . S
H220 C239 0.947 1_554 S
H221 C240 0.946 . S
H222 C242 0.953 . S
H223 C243 0.945 . S
H224 C245 0.952 . S
H225 C246 0.949 . S
H226 C248 0.950 . S
H227 C249 0.948 1_554 S
H228 C251 0.951 . S
H229 C216 0.947 . S
H230 C218 0.952 . S
H231 C219 0.950 . S
N232 C235 1.382 1_554 S
N232 C237 1.363 . S
N233 C235 1.371 . S
N233 C236 1.372 . S
N234 C236 1.361 1_554 S
N234 C237 1.377 . S
C235 N232 1.382 1_556 S
C235 N233 1.371 . S
C235 C238 1.480 . S
C236 N233 1.372 . S
C236 N234 1.361 1_556 S
C236 C244 1.457 . S
C237 N232 1.363 . S
C237 N234 1.377 . S
C237 C250 1.479 . S
C238 C235 1.480 . S
C238 C239 1.383 . S
C238 C243 1.385 . S
C239 H220 0.947 1_556 S
C239 C238 1.383 . S
C239 C240 1.388 . S
C240 H221 0.946 . S
C240 C239 1.388 . S
C240 C241 1.384 . S
C241 C240 1.384 . S
C241 C242 1.377 . S
C242 H222 0.953 . S
C242 C241 1.377 . S
C242 C243 1.369 . S
C243 H223 0.945 . S
C243 C238 1.385 . S
C243 C242 1.369 . S
C244 C236 1.457 . S
C244 C245 1.372 . S
C244 C249 1.364 . S
C245 H224 0.952 . S
C245 C244 1.372 . S
C245 C246 1.389 . S
C246 H225 0.949 . S
C246 C245 1.389 . S
C246 C247 1.387 1_565 S
C247 C246 1.387 1_545 S
C247 C248 1.372 . S
C248 H226 0.950 . S
C248 C247 1.372 . S
C248 C249 1.379 1_545 S
C249 H227 0.948 1_556 S
C249 C244 1.364 . S
C249 C248 1.379 1_565 S
C250 C219 1.383 . S
C250 C237 1.479 . S
C250 C251 1.398 . S
C251 C216 1.382 . S
C251 H228 0.951 . S
C251 C250 1.398 . S
C252 C253 1.384 . S
C252 H265 0.947 . S
C252 C287 1.382 . S
C253 C252 1.384 . S
C253 C254 1.378 . S
C254 C253 1.378 . S
C254 C255 1.378 . S
C254 H266 0.952 . S
C255 C254 1.378 . S
C255 H267 0.950 . S
C255 C286 1.383 . S
H256 C275 0.947 . S
H257 C276 0.946 . S
H258 C278 0.953 . S
H259 C279 0.945 . S
H260 C281 0.952 . S
H261 C282 0.949 . S
H262 C284 0.950 . S
H263 C285 0.948 . S
H264 C287 0.951 . S
H265 C252 0.947 . S
H266 C254 0.952 . S
H267 C255 0.950 . S
N268 C271 1.382 . S
N268 C273 1.363 . S
N269 C271 1.371 . S
N269 C272 1.372 . S
N270 C272 1.361 . S
N270 C273 1.377 . S
C271 N268 1.382 . S
C271 N269 1.371 . S
C271 C274 1.480 . S
C272 N269 1.372 . S
C272 N270 1.361 . S
C272 C280 1.457 . S
C273 N268 1.363 . S
C273 N270 1.377 . S
C273 C286 1.479 . S
C274 C271 1.480 . S
C274 C275 1.383 . S
C274 C279 1.385 . S
C275 H256 0.947 . S
C275 C274 1.383 . S
C275 C276 1.388 . S
C276 H257 0.946 . S
C276 C275 1.388 . S
C276 C277 1.384 . S
C277 C276 1.384 . S
C277 C278 1.377 . S
C278 H258 0.953 . S
C278 C277 1.377 . S
C278 C279 1.369 . S
C279 H259 0.945 . S
C279 C274 1.385 . S
C279 C278 1.369 . S
C280 C272 1.457 . S
C280 C281 1.372 . S
C280 C285 1.364 . S
C281 H260 0.952 . S
C281 C280 1.372 . S
C281 C282 1.389 . S
C282 H261 0.949 . S
C282 C281 1.389 . S
C282 C283 1.387 1_545 S
C283 C282 1.387 1_565 S
C283 C284 1.372 . S
C284 H262 0.950 . S
C284 C283 1.372 . S
C284 C285 1.379 1_565 S
C285 H263 0.948 . S
C285 C280 1.364 . S
C285 C284 1.379 1_545 S
C286 C255 1.383 . S
C286 C273 1.479 . S
C286 C287 1.398 . S
C287 C252 1.382 . S
C287 H264 0.951 . S
C287 C286 1.398 . S
Fe288 O290 1.918 . S
Fe288 O293 1.997 1_455 S
Fe288 O294 2.002 1_455 S
Fe288 O299 1.976 . S
Fe288 O302 1.996 . S
Fe289 O290 1.918 . S
Fe289 O297 1.997 1_455 S
Fe289 O300 1.996 . S
Fe289 O304 1.976 . S
Fe289 O307 2.002 1_455 S
O290 Fe288 1.918 . S
O290 Fe289 1.918 . S
O290 Fe291 1.918 . S
Fe291 O290 1.918 . S
Fe291 O292 2.002 1_455 S
Fe291 O301 1.976 . S
Fe291 O305 1.996 . S
Fe291 O308 1.997 1_455 S
O292 Fe291 2.002 1_655 S
O292 C309 1.295 . S
O293 Fe288 1.997 1_655 S
O293 C309 1.235 . S
O294 Fe288 2.002 1_655 S
O294 C295 1.295 . S
C295 O294 1.295 . S
C295 O297 1.235 . S
C296 O301 1.287 . S
C296 O302 1.255 . S
O297 Fe289 1.997 1_655 S
O297 C295 1.235 . S
C298 O304 1.287 . S
C298 O305 1.255 . S
O299 Fe288 1.976 . S
O299 C306 1.287 . S
O300 Fe289 1.996 . S
O300 C306 1.255 . S
O301 Fe291 1.976 . S
O301 C296 1.287 . S
O302 Fe288 1.996 . S
O302 C296 1.255 . S
C303 O307 1.295 . S
C303 O308 1.235 . S
O304 Fe289 1.976 . S
O304 C298 1.287 . S
O305 Fe291 1.996 . S
O305 C298 1.255 . S
C306 O299 1.287 . S
C306 O300 1.255 . S
O307 Fe289 2.002 1_655 S
O307 C303 1.295 . S
O308 Fe291 1.997 1_655 S
O308 C303 1.235 . S
C309 O292 1.295 . S
C309 O293 1.235 . S
Fe310 O312 1.918 . S
Fe310 O315 1.997 1_655 S
Fe310 O316 2.002 1_655 S
Fe310 O321 1.976 . S
Fe310 O324 1.996 . S
Fe311 O312 1.918 . S
Fe311 O319 1.997 1_655 S
Fe311 O322 1.996 . S
Fe311 O326 1.976 . S
Fe311 O329 2.002 1_655 S
O312 Fe310 1.918 . S
O312 Fe311 1.918 . S
O312 Fe313 1.918 . S
Fe313 O312 1.918 . S
Fe313 O314 2.002 1_655 S
Fe313 O323 1.976 . S
Fe313 O327 1.996 . S
Fe313 O330 1.997 1_655 S
O314 Fe313 2.002 1_455 S
O314 C331 1.295 . S
O315 Fe310 1.997 1_455 S
O315 C331 1.235 . S
O316 Fe310 2.002 1_455 S
O316 C317 1.295 . S
C317 O316 1.295 . S
C317 O319 1.235 . S
C318 O323 1.287 . S
C318 O324 1.255 . S
O319 Fe311 1.997 1_455 S
O319 C317 1.235 . S
C320 O326 1.287 . S
C320 O327 1.255 . S
O321 Fe310 1.976 . S
O321 C328 1.287 . S
O322 Fe311 1.996 . S
O322 C328 1.255 . S
O323 Fe313 1.976 . S
O323 C318 1.287 . S
O324 Fe310 1.996 . S
O324 C318 1.255 . S
C325 O329 1.295 . S
C325 O330 1.235 . S
O326 Fe311 1.976 . S
O326 C320 1.287 . S
O327 Fe313 1.996 . S
O327 C320 1.255 . S
C328 O321 1.287 . S
C328 O322 1.255 . S
O329 Fe311 2.002 1_455 S
O329 C325 1.295 . S
O330 Fe313 1.997 1_455 S
O330 C325 1.235 . S
C331 O314 1.295 . S
C331 O315 1.235 . S
Fe332 O334 1.918 . S
Fe332 O337 1.997 . S
Fe332 O338 2.002 . S
Fe332 O343 1.976 . S
Fe332 O346 1.996 . S
Fe333 O334 1.918 . S
Fe333 O341 1.997 . S
Fe333 O344 1.996 . S
Fe333 O348 1.976 . S
Fe333 O351 2.002 . S
O334 Fe332 1.918 . S
O334 Fe333 1.918 . S
O334 Fe335 1.918 . S
Fe335 O334 1.918 . S
Fe335 O336 2.002 . S
Fe335 O345 1.976 . S
Fe335 O349 1.996 . S
Fe335 O352 1.997 . S
O336 Fe335 2.002 . S
O336 C353 1.295 . S
O337 Fe332 1.997 . S
O337 C353 1.235 . S
O338 Fe332 2.002 . S
O338 C339 1.295 . S
C339 O338 1.295 . S
C339 O341 1.235 . S
C340 O345 1.287 . S
C340 O346 1.255 . S
O341 Fe333 1.997 . S
O341 C339 1.235 . S
C342 O348 1.287 . S
C342 O349 1.255 . S
O343 Fe332 1.976 . S
O343 C350 1.287 . S
O344 Fe333 1.996 . S
O344 C350 1.255 . S
O345 Fe335 1.976 . S
O345 C340 1.287 . S
O346 Fe332 1.996 . S
O346 C340 1.255 . S
C347 O351 1.295 . S
C347 O352 1.235 . S
O348 Fe333 1.976 . S
O348 C342 1.287 . S
O349 Fe335 1.996 . S
O349 C342 1.255 . S
C350 O343 1.287 . S
C350 O344 1.255 . S
O351 Fe333 2.002 . S
O351 C347 1.295 . S
O352 Fe335 1.997 . S
O352 C347 1.235 . S
C353 O336 1.295 . S
C353 O337 1.235 . S
Fe354 O356 1.918 . S
Fe354 O359 1.997 . S
Fe354 O360 2.002 . S
Fe354 O365 1.976 . S
Fe354 O368 1.996 . S
Fe355 O356 1.918 . S
Fe355 O363 1.997 . S
Fe355 O366 1.996 . S
Fe355 O370 1.976 . S
Fe355 O373 2.002 . S
O356 Fe354 1.918 . S
O356 Fe355 1.918 . S
O356 Fe357 1.918 . S
Fe357 O356 1.918 . S
Fe357 O358 2.002 . S
Fe357 O367 1.976 . S
Fe357 O371 1.996 . S
Fe357 O374 1.997 . S
O358 Fe357 2.002 . S
O358 C375 1.295 . S
O359 Fe354 1.997 . S
O359 C375 1.235 . S
O360 Fe354 2.002 . S
O360 C361 1.295 . S
C361 O360 1.295 . S
C361 O363 1.235 . S
C362 O367 1.287 . S
C362 O368 1.255 . S
O363 Fe355 1.997 . S
O363 C361 1.235 . S
C364 O370 1.287 . S
C364 O371 1.255 . S
O365 Fe354 1.976 . S
O365 C372 1.287 . S
O366 Fe355 1.996 . S
O366 C372 1.255 . S
O367 Fe357 1.976 . S
O367 C362 1.287 . S
O368 Fe354 1.996 . S
O368 C362 1.255 . S
C369 O373 1.295 . S
C369 O374 1.235 . S
O370 Fe355 1.976 . S
O370 C364 1.287 . S
O371 Fe357 1.996 . S
O371 C364 1.255 . S
C372 O365 1.287 . S
C372 O366 1.255 . S
O373 Fe355 2.002 . S
O373 C369 1.295 . S
O374 Fe357 1.997 . S
O374 C369 1.235 . S
C375 O358 1.295 . S
C375 O359 1.235 . S
C376 C377 1.387 . S
C376 H380 0.950 . S
C376 C385 1.390 . S
C377 C376 1.387 . S
C377 C379 1.387 . S
H378 C385 0.950 . S
C379 C377 1.387 . S
C379 C381 1.390 . S
C379 H383 0.950 . S
H380 C376 0.950 . S
C381 C379 1.390 . S
C381 C382 1.387 . S
C381 H384 0.950 . S
C382 C381 1.387 . S
C382 C385 1.387 . S
H383 C379 0.950 . S
H384 C381 0.950 . S
C385 C376 1.390 . S
C385 H378 0.950 . S
C385 C382 1.387 . S
C386 C387 1.387 . S
C386 H390 0.950 . S
C386 C395 1.390 . S
C387 C386 1.387 . S
C387 C389 1.387 . S
H388 C395 0.950 . S
C389 C387 1.387 . S
C389 C391 1.390 . S
C389 H393 0.950 . S
H390 C386 0.950 . S
C391 C389 1.390 . S
C391 C392 1.387 . S
C391 H394 0.950 . S
C392 C391 1.387 . S
C392 C395 1.387 . S
H393 C389 0.950 . S
H394 C391 0.950 . S
C395 C386 1.390 . S
C395 H388 0.950 . S
C395 C392 1.387 . S
C396 C397 1.387 . S
C396 H400 0.950 . S
C396 C405 1.390 . S
C397 C396 1.387 . S
C397 C399 1.387 . S
H398 C405 0.950 . S
C399 C397 1.387 . S
C399 C401 1.390 . S
C399 H403 0.950 . S
H400 C396 0.950 . S
C401 C399 1.390 . S
C401 C402 1.387 . S
C401 H404 0.950 . S
C402 C401 1.387 . S
C402 C405 1.387 . S
H403 C399 0.950 . S
H404 C401 0.950 . S
C405 C396 1.390 . S
C405 H398 0.950 . S
C405 C402 1.387 . S
C406 C407 1.387 . S
C406 H410 0.950 . S
C406 C415 1.390 . S
C407 C406 1.387 . S
C407 C409 1.387 . S
H408 C415 0.950 . S
C409 C407 1.387 . S
C409 C411 1.390 . S
C409 H413 0.950 . S
H410 C406 0.950 . S
C411 C409 1.390 . S
C411 C412 1.387 . S
C411 H414 0.950 . S
C412 C411 1.387 . S
C412 C415 1.387 . S
H413 C409 0.950 . S
H414 C411 0.950 . S
C415 C406 1.390 . S
C415 H408 0.950 . S
C415 C412 1.387 . S
C416 C417 1.387 . S
C416 H420 0.950 . S
C416 C425 1.390 . S
C417 C416 1.387 . S
C417 C419 1.387 . S
H418 C425 0.950 . S
C419 C417 1.387 . S
C419 C421 1.390 . S
C419 H423 0.950 . S
H420 C416 0.950 . S
C421 C419 1.390 . S
C421 C422 1.387 . S
C421 H424 0.950 . S
C422 C421 1.387 . S
C422 C425 1.387 . S
H423 C419 0.950 . S
H424 C421 0.950 . S
C425 C416 1.390 . S
C425 H418 0.950 . S
C425 C422 1.387 . S
C426 C427 1.387 . S
C426 H430 0.950 . S
C426 C435 1.390 . S
C427 C426 1.387 . S
C427 C429 1.387 . S
H428 C435 0.950 . S
C429 C427 1.387 . S
C429 C431 1.390 . S
C429 H433 0.950 . S
H430 C426 0.950 . S
C431 C429 1.390 . S
C431 C432 1.387 . S
C431 H434 0.950 . S
C432 C431 1.387 . S
C432 C435 1.387 . S
H433 C429 0.950 . S
H434 C431 0.950 . S
C435 C426 1.390 . S
C435 H428 0.950 . S
C435 C432 1.387 . S
C436 C437 1.387 . S
C436 H440 0.950 . S
C436 C445 1.390 . S
C437 C436 1.387 . S
C437 C439 1.387 . S
H438 C445 0.950 . S
C439 C437 1.387 . S
C439 C441 1.390 . S
C439 H443 0.950 . S
H440 C436 0.950 . S
C441 C439 1.390 . S
C441 C442 1.387 . S
C441 H444 0.950 . S
C442 C441 1.387 . S
C442 C445 1.387 . S
H443 C439 0.950 . S
H444 C441 0.950 . S
C445 C436 1.390 . S
C445 H438 0.950 . S
C445 C442 1.387 . S
C446 C447 1.387 . S
C446 H450 0.950 . S
C446 C455 1.390 . S
C447 C446 1.387 . S
C447 C449 1.387 . S
H448 C455 0.950 . S
C449 C447 1.387 . S
C449 C451 1.390 . S
C449 H453 0.950 . S
H450 C446 0.950 . S
C451 C449 1.390 . S
C451 C452 1.387 . S
C451 H454 0.950 . S
C452 C451 1.387 . S
C452 C455 1.387 . S
H453 C449 0.950 . S
H454 C451 0.950 . S
C455 C446 1.390 . S
C455 H448 0.950 . S
C455 C452 1.387 . S
C456 C457 1.387 . S
C456 H460 0.950 . S
C456 C465 1.390 . S
C457 C456 1.387 . S
C457 C459 1.387 . S
H458 C465 0.950 . S
C459 C457 1.387 . S
C459 C461 1.390 . S
C459 H463 0.950 . S
H460 C456 0.950 . S
C461 C459 1.390 . S
C461 C462 1.387 . S
C461 H464 0.950 . S
C462 C461 1.387 . S
C462 C465 1.387 . S
H463 C459 0.950 . S
H464 C461 0.950 . S
C465 C456 1.390 . S
C465 H458 0.950 . S
C465 C462 1.387 . S
C466 C467 1.387 . S
C466 H470 0.950 . S
C466 C475 1.390 . S
C467 C466 1.387 . S
C467 C469 1.387 . S
H468 C475 0.950 . S
C469 C467 1.387 . S
C469 C471 1.390 . S
C469 H473 0.950 . S
H470 C466 0.950 . S
C471 C469 1.390 . S
C471 C472 1.387 . S
C471 H474 0.950 . S
C472 C471 1.387 . S
C472 C475 1.387 . S
H473 C469 0.950 . S
H474 C471 0.950 . S
C475 C466 1.390 . S
C475 H468 0.950 . S
C475 C472 1.387 . S
C476 C477 1.387 . S
C476 H480 0.950 . S
C476 C485 1.390 . S
C477 C476 1.387 . S
C477 C479 1.387 . S
H478 C485 0.950 . S
C479 C477 1.387 . S
C479 C481 1.390 . S
C479 H483 0.950 . S
H480 C476 0.950 . S
C481 C479 1.390 . S
C481 C482 1.387 . S
C481 H484 0.950 . S
C482 C481 1.387 . S
C482 C485 1.387 . S
H483 C479 0.950 . S
H484 C481 0.950 . S
C485 C476 1.390 . S
C485 H478 0.950 . S
C485 C482 1.387 . S
C486 C487 1.387 . S
C486 H490 0.950 . S
C486 C495 1.390 . S
C487 C486 1.387 . S
C487 C489 1.387 . S
H488 C495 0.950 . S
C489 C487 1.387 . S
C489 C491 1.390 . S
C489 H493 0.950 . S
H490 C486 0.950 . S
C491 C489 1.390 . S
C491 C492 1.387 . S
C491 H494 0.950 . S
C492 C491 1.387 . S
C492 C495 1.387 . S
H493 C489 0.950 . S
H494 C491 0.950 . S
C495 C486 1.390 . S
C495 H488 0.950 . S
C495 C492 1.387 . S
C496 C497 1.387 . S
C496 H500 0.950 . S
C496 C505 1.390 . S
C497 C496 1.387 . S
C497 C499 1.387 . S
H498 C505 0.950 . S
C499 C497 1.387 . S
C499 C501 1.390 . S
C499 H503 0.950 . S
H500 C496 0.950 . S
C501 C499 1.390 . S
C501 C502 1.387 . S
C501 H504 0.950 . S
C502 C501 1.387 . S
C502 C505 1.387 . S
H503 C499 0.950 . S
H504 C501 0.950 . S
C505 C496 1.390 . S
C505 H498 0.950 . S
C505 C502 1.387 . S
C506 C507 1.387 . S
C506 H510 0.950 . S
C506 C515 1.390 . S
C507 C506 1.387 . S
C507 C509 1.387 . S
H508 C515 0.950 . S
C509 C507 1.387 . S
C509 C511 1.390 . S
C509 H513 0.950 . S
H510 C506 0.950 . S
C511 C509 1.390 . S
C511 C512 1.387 . S
C511 H514 0.950 . S
C512 C511 1.387 . S
C512 C515 1.387 . S
H513 C509 0.950 . S
H514 C511 0.950 . S
C515 C506 1.390 . S
C515 H508 0.950 . S
C515 C512 1.387 . S
C516 C517 1.387 . S
C516 H520 0.950 . S
C516 C525 1.390 . S
C517 C516 1.387 . S
C517 C519 1.387 . S
H518 C525 0.950 . S
C519 C517 1.387 . S
C519 C521 1.390 . S
C519 H523 0.950 . S
H520 C516 0.950 . S
C521 C519 1.390 . S
C521 C522 1.387 . S
C521 H524 0.950 . S
C522 C521 1.387 . S
C522 C525 1.387 . S
H523 C519 0.950 . S
H524 C521 0.950 . S
C525 C516 1.390 . S
C525 H518 0.950 . S
C525 C522 1.387 . S
C526 C527 1.387 . S
C526 H530 0.950 . S
C526 C535 1.390 . S
C527 C526 1.387 . S
C527 C529 1.387 . S
H528 C535 0.950 . S
C529 C527 1.387 . S
C529 C531 1.390 . S
C529 H533 0.950 . S
H530 C526 0.950 . S
C531 C529 1.390 . S
C531 C532 1.387 . S
C531 H534 0.950 . S
C532 C531 1.387 . S
C532 C535 1.387 . S
H533 C529 0.950 . S
H534 C531 0.950 . S
C535 C526 1.390 . S
C535 H528 0.950 . S
C535 C532 1.387 . S
C536 C537 1.387 . S
C536 H540 0.950 . S
C536 C545 1.390 . S
C537 C536 1.387 . S
C537 C539 1.387 . S
H538 C545 0.950 . S
C539 C537 1.387 . S
C539 C541 1.390 . S
C539 H543 0.950 . S
H540 C536 0.950 . S
C541 C539 1.390 . S
C541 C542 1.387 . S
C541 H544 0.950 . S
C542 C541 1.387 . S
C542 C545 1.387 . S
H543 C539 0.950 . S
H544 C541 0.950 . S
C545 C536 1.390 . S
C545 H538 0.950 . S
C545 C542 1.387 . S
C546 C547 1.387 . S
C546 H550 0.950 . S
C546 C555 1.390 . S
C547 C546 1.387 . S
C547 C549 1.387 . S
H548 C555 0.950 . S
C549 C547 1.387 . S
C549 C551 1.390 . S
C549 H553 0.950 . S
H550 C546 0.950 . S
C551 C549 1.390 . S
C551 C552 1.387 . S
C551 H554 0.950 . S
C552 C551 1.387 . S
C552 C555 1.387 . S
H553 C549 0.950 . S
H554 C551 0.950 . S
C555 C546 1.390 . S
C555 H548 0.950 . S
C555 C552 1.387 . S
C556 C557 1.387 . S
C556 H560 0.950 . S
C556 C565 1.390 . S
C557 C556 1.387 . S
C557 C559 1.387 . S
H558 C565 0.950 . S
C559 C557 1.387 . S
C559 C561 1.390 . S
C559 H563 0.950 . S
H560 C556 0.950 . S
C561 C559 1.390 . S
C561 C562 1.387 . S
C561 H564 0.950 . S
C562 C561 1.387 . S
C562 C565 1.387 . S
H563 C559 0.950 . S
H564 C561 0.950 . S
C565 C556 1.390 . S
C565 H558 0.950 . S
C565 C562 1.387 . S
C566 C567 1.387 . S
C566 H570 0.950 . S
C566 C575 1.390 . S
C567 C566 1.387 . S
C567 C569 1.387 . S
H568 C575 0.950 . S
C569 C567 1.387 . S
C569 C571 1.390 . S
C569 H573 0.950 . S
H570 C566 0.950 . S
C571 C569 1.390 . S
C571 C572 1.387 . S
C571 H574 0.950 . S
C572 C571 1.387 . S
C572 C575 1.387 . S
H573 C569 0.950 . S
H574 C571 0.950 . S
C575 C566 1.390 . S
C575 H568 0.950 . S
C575 C572 1.387 . S
C576 C577 1.387 . S
C576 H580 0.950 . S
C576 C585 1.390 . S
C577 C576 1.387 . S
C577 C579 1.387 . S
H578 C585 0.950 . S
C579 C577 1.387 . S
C579 C581 1.390 . S
C579 H583 0.950 . S
H580 C576 0.950 . S
C581 C579 1.390 . S
C581 C582 1.387 . S
C581 H584 0.950 . S
C582 C581 1.387 . S
C582 C585 1.387 . S
H583 C579 0.950 . S
H584 C581 0.950 . S
C585 C576 1.390 . S
C585 H578 0.950 . S
C585 C582 1.387 . S
C586 C587 1.387 . S
C586 H590 0.950 . S
C586 C595 1.390 . S
C587 C586 1.387 . S
C587 C589 1.387 . S
H588 C595 0.950 . S
C589 C587 1.387 . S
C589 C591 1.390 . S
C589 H593 0.950 . S
H590 C586 0.950 . S
C591 C589 1.390 . S
C591 C592 1.387 . S
C591 H594 0.950 . S
C592 C591 1.387 . S
C592 C595 1.387 . S
H593 C589 0.950 . S
H594 C591 0.950 . S
C595 C586 1.390 . S
C595 H588 0.950 . S
C595 C592 1.387 . S
C596 C597 1.387 . S
C596 H600 0.950 . S
C596 C605 1.390 . S
C597 C596 1.387 . S
C597 C599 1.387 . S
H598 C605 0.950 . S
C599 C597 1.387 . S
C599 C601 1.390 . S
C599 H603 0.950 . S
H600 C596 0.950 . S
C601 C599 1.390 . S
C601 C602 1.387 . S
C601 H604 0.950 . S
C602 C601 1.387 . S
C602 C605 1.387 . S
H603 C599 0.950 . S
H604 C601 0.950 . S
C605 C596 1.390 . S
C605 H598 0.950 . S
C605 C602 1.387 . S
C606 C607 1.387 . S
C606 H610 0.950 . S
C606 C615 1.390 . S
C607 C606 1.387 . S
C607 C609 1.387 . S
H608 C615 0.950 . S
C609 C607 1.387 . S
C609 C611 1.390 . S
C609 H613 0.950 . S
H610 C606 0.950 . S
C611 C609 1.390 . S
C611 C612 1.387 . S
C611 H614 0.950 . S
C612 C611 1.387 . S
C612 C615 1.387 . S
H613 C609 0.950 . S
H614 C611 0.950 . S
C615 C606 1.390 . S
C615 H608 0.950 . S
C615 C612 1.387 . S
C377 C25 1.542 . S
C382 C331 1.551 . S
C392 C295 1.551 . S
C387 C61 1.542 . S
C402 C318 1.550 . S
C397 C97 1.564 . S
C412 C306 1.550 . S
C407 C133 1.565 . S
C422 C375 1.553 . S
C417 C169 1.544 . S
C432 C339 1.552 . S
C427 C205 1.544 . S
C437 C241 1.565 . S
C442 C362 1.550 . S
C452 C350 1.549 . S
C447 C277 1.564 . S
C457 C31 1.515 . S
C462 C372 1.580 . S
C472 C342 1.580 . S
C467 C67 1.513 . S
C477 C103 1.575 . S
C482 C361 1.610 . S
C487 C139 1.575 . S
C492 C347 1.610 . S
C502 C328 1.579 . S
C497 C175 1.513 . S
C507 C211 1.513 . S
C512 C298 1.579 . S
C522 C317 1.611 . S
C517 C247 1.574 . S
C532 C303 1.610 . S
C527 C283 1.574 . S
C542 C353 1.585 . S
C537 C1 1.542 . S
C552 C369 1.585 . S
C547 C37 1.541 . S
C557 C73 1.548 . S
C562 C340 1.564 . S
C572 C364 1.565 . S
C567 C109 1.548 . S
C582 C309 1.585 . S
C577 C145 1.539 . S
C587 C181 1.539 . S
C592 C325 1.585 . S
C597 C217 1.546 . S
C602 C296 1.564 . S
C607 C253 1.546 . S
C612 C320 1.564 . S
