# Generated by pormake.
# Topology zzz, (3,6)-cn, num edge types: 1
# Building blocks:
#     Node 0, Type 0, BuildingBlock: BETDAH_clean_linker_0, # of connection points: 3
#     Node 1, Type 0, BuildingBlock: BETDAH_clean_linker_0, # of connection points: 3
#     Node 2, Type 0, BuildingBlock: BETDAH_clean_linker_0, # of connection points: 3
#     Node 3, Type 0, BuildingBlock: BETDAH_clean_linker_0, # of connection points: 3
#     Node 4, Type 0, BuildingBlock: BETDAH_clean_linker_0, # of connection points: 3
#     Node 5, Type 0, BuildingBlock: BETDAH_clean_linker_0, # of connection points: 3
#     Node 6, Type 0, BuildingBlock: BETDAH_clean_linker_0, # of connection points: 3
#     Node 7, Type 0, BuildingBlock: BETDAH_clean_linker_0, # of connection points: 3
#     Node 8, Type 1, BuildingBlock: PAMTOO_clean_sbu_0, # of connection points: 6
#     Node 9, Type 1, BuildingBlock: PAMTOO_clean_sbu_0, # of connection points: 6
#     Node 10, Type 1, BuildingBlock: PAMTOO_clean_sbu_0, # of connection points: 6
#     Node 11, Type 1, BuildingBlock: PAMTOO_clean_sbu_0, # of connection points: 6
#     Edge 12, Type (0, 1), BuildingBlock: TEMPAE_clean_linker_10, # of connection points: 2
#     Edge 13, Type (0, 1), BuildingBlock: TEMPAE_clean_linker_10, # of connection points: 2
#     Edge 14, Type (0, 1), BuildingBlock: TEMPAE_clean_linker_10, # of connection points: 2
#     Edge 15, Type (0, 1), BuildingBlock: TEMPAE_clean_linker_10, # of connection points: 2
#     Edge 16, Type (0, 1), BuildingBlock: TEMPAE_clean_linker_10, # of connection points: 2
#     Edge 17, Type (0, 1), BuildingBlock: TEMPAE_clean_linker_10, # of connection points: 2
#     Edge 18, Type (0, 1), BuildingBlock: TEMPAE_clean_linker_10, # of connection points: 2
#     Edge 19, Type (0, 1), BuildingBlock: TEMPAE_clean_linker_10, # of connection points: 2
#     Edge 20, Type (0, 1), BuildingBlock: TEMPAE_clean_linker_10, # of connection points: 2
#     Edge 21, Type (0, 1), BuildingBlock: TEMPAE_clean_linker_10, # of connection points: 2
#     Edge 22, Type (0, 1), BuildingBlock: TEMPAE_clean_linker_10, # of connection points: 2
#     Edge 23, Type (0, 1), BuildingBlock: TEMPAE_clean_linker_10, # of connection points: 2
#     Edge 24, Type (0, 1), BuildingBlock: TEMPAE_clean_linker_10, # of connection points: 2
#     Edge 25, Type (0, 1), BuildingBlock: TEMPAE_clean_linker_10, # of connection points: 2
#     Edge 26, Type (0, 1), BuildingBlock: TEMPAE_clean_linker_10, # of connection points: 2
#     Edge 27, Type (0, 1), BuildingBlock: TEMPAE_clean_linker_10, # of connection points: 2
#     Edge 28, Type (0, 1), BuildingBlock: TEMPAE_clean_linker_10, # of connection points: 2
#     Edge 29, Type (0, 1), BuildingBlock: TEMPAE_clean_linker_10, # of connection points: 2
#     Edge 30, Type (0, 1), BuildingBlock: TEMPAE_clean_linker_10, # of connection points: 2
#     Edge 31, Type (0, 1), BuildingBlock: TEMPAE_clean_linker_10, # of connection points: 2
#     Edge 32, Type (0, 1), BuildingBlock: TEMPAE_clean_linker_10, # of connection points: 2
#     Edge 33, Type (0, 1), BuildingBlock: TEMPAE_clean_linker_10, # of connection points: 2
#     Edge 34, Type (0, 1), BuildingBlock: TEMPAE_clean_linker_10, # of connection points: 2
#     Edge 35, Type (0, 1), BuildingBlock: TEMPAE_clean_linker_10, # of connection points: 2
# Relax obj value: 0.218
# Max RMSD: 0.237
# Mean RMSD: 0.126
data_MOF--net-zzz--node1-PAMTOO_clean_sbu_0--node2-BETDAH_clean_linker_0--edge1-TEMPAE_clean_linker_10
_symmetry_space_group_name_H-M    P1
_symmetry_Int_Tables_number       1
_symmetry_cell_setting            triclinic
loop_
_symmetry_equiv_pos_as_xyz
'x, y, z'
_cell_length_a     58.208855
_cell_length_b     49.973148
_cell_length_c     15.872639
_cell_angle_alpha  92.163669
_cell_angle_beta   79.777796
_cell_angle_gamma 85.834617
loop_
_atom_site_label
_atom_site_type_symbol
_atom_site_fract_x
_atom_site_fract_y
_atom_site_fract_z
_atom_type_partial_charge
H0 H 0.84035 0.4757 0.4587 0.0
H1 H 0.77392 0.49101 0.38101 0.0
H2 H 0.78388 0.51993 0.63095 0.0
C3 C 0.82232 0.48421 0.47308 0.0
C4 C 0.81396 0.49779 0.55261 0.0
C5 C 0.80818 0.48204 0.41064 0.0
C6 C 0.7848 0.49274 0.42935 0.0
C7 C 0.77582 0.50638 0.50912 0.0
C8 C 0.79062 0.50916 0.57002 0.0
N9 N 0.75219 0.51773 0.52928 0.0
C10 C 0.73602 0.51614 0.47427 0.0
H11 H 0.98055 0.79077 0.47375 0.0
H12 H 0.99343 0.71105 0.35745 0.0
H13 H 0.01405 0.72894 0.60071 0.0
C14 C 0.98615 0.76972 0.47751 0.0
C15 C 0.99664 0.76199 0.54634 0.0
C16 C 0.98521 0.75159 0.40895 0.0
C17 C 0.99384 0.7248 0.41148 0.0
C18 C 1.00379 0.71621 0.48172 0.0
C19 C 1.00555 0.7351 0.54833 0.0
N20 N 1.01293 0.68911 0.48504 0.0
C21 C 1.01247 0.66927 0.4212 0.0
H22 H 0.70339 0.0154 0.30606 0.0
H23 H 0.77593 0.0089 0.18709 0.0
H24 H 0.75581 0.99304 0.45528 0.0
C25 C 0.72167 0.01118 0.31089 0.0
C26 C 0.72733 0.00434 0.3896 0.0
C27 C 0.73897 0.01246 0.23791 0.0
C28 C 0.76265 0.00756 0.24364 0.0
C29 C 0.76895 1.00042 0.32219 0.0
C30 C 0.75111 0.99855 0.39482 0.0
N31 N 0.79285 0.99495 0.33037 0.0
C32 C 0.81227 0.99614 0.26479 0.0
H33 H 0.5461 0.66139 0.15187 0.0
H34 H 0.52668 0.74298 0.10699 0.0
H35 H 0.5336 0.7212 0.3614 0.0
C36 C 0.54178 0.68192 0.17709 0.0
C37 C 0.53952 0.68808 0.26537 0.0
C38 C 0.53601 0.70122 0.12111 0.0
C39 C 0.53139 0.72817 0.15037 0.0
C40 C 0.53203 0.73559 0.23639 0.0
C41 C 0.5352 0.71541 0.2941 0.0
N42 N 0.52831 0.76292 0.26777 0.0
C43 C 0.52778 0.78473 0.21564 0.0
H44 H 0.17354 0.53409 0.16381 0.0
H45 H 0.2394 0.51845 0.24519 0.0
H46 H 0.22721 0.48055 0.01007 0.0
C47 C 0.19088 0.52367 0.15366 0.0
C48 C 0.19801 0.50603 0.08144 0.0
C49 C 0.20531 0.52762 0.21434 0.0
C50 C 0.22825 0.51552 0.19837 0.0
C51 C 0.23648 0.49898 0.12361 0.0
C52 C 0.22119 0.49411 0.06575 0.0
N53 N 0.25972 0.48638 0.10656 0.0
C54 C 0.27601 0.48925 0.16054 0.0
H55 H 0.03314 0.2188 0.15177 0.0
H56 H 0.02965 0.30239 0.22507 0.0
H57 H 0.01968 0.27716 0.97096 0.0
C58 C 0.03146 0.2396 0.13473 0.0
C59 C 0.0263 0.24534 0.05441 0.0
C60 C 0.03264 0.26005 0.19592 0.0
C61 C 0.02938 0.28686 0.17594 0.0
C62 C 0.02528 0.29335 0.0938 0.0
C63 C 0.02372 0.27239 0.033 0.0
N64 N 0.02176 0.32064 0.07258 0.0
C65 C 0.02173 0.34228 0.13092 0.0
H66 H 0.32728 0.99241 0.30462 0.0
H67 H 0.25366 0.99882 0.40375 0.0
H68 H 0.27904 0.01403 0.13786 0.0
C69 C 0.30951 0.99645 0.29381 0.0
C70 C 0.30572 1.00291 0.21221 0.0
C71 C 0.29094 0.99499 0.36219 0.0
C72 C 0.26786 1.00023 0.35025 0.0
C73 C 0.26333 0.00733 0.26922 0.0
C74 C 0.28241 0.00884 0.20042 0.0
N75 N 0.23994 0.01276 0.25493 0.0
C76 C 0.21968 0.01096 0.31641 0.0
H77 H 0.5249 0.32859 0.32316 0.0
H78 H 0.52459 0.25056 0.42746 0.0
H79 H 0.48698 0.26824 0.22176 0.0
C80 C 0.51957 0.30821 0.32255 0.0
C81 C 0.50495 0.30074 0.26636 0.0
C82 C 0.52691 0.29024 0.3798 0.0
C83 C 0.51939 0.26417 0.38147 0.0
C84 C 0.50515 0.25596 0.32335 0.0
C85 C 0.49818 0.27434 0.26555 0.0
N86 N 0.49716 0.22972 0.32188 0.0
C87 C 0.50144 0.20984 0.3777 0.0
Dy88 Dy 1.00456 0.01063 0.71066 0.0
Dy89 Dy 0.02744 0.99516 0.87561 0.0
C90 C 0.06064 0.00508 0.69723 0.0
O91 O 1.01308 0.96616 0.69128 0.0
O92 O 0.01336 0.95756 0.83165 0.0
O93 O 1.00573 0.01213 0.57404 0.0
O94 O 0.97585 0.03094 0.66288 0.0
O95 O 0.98916 0.00675 0.92377 0.0
O96 O 0.97508 0.99573 0.80308 0.0
O97 O 0.0343 0.03836 0.86097 0.0
O98 O 1.00423 0.04879 0.78989 0.0
O99 O 0.028 0.99997 0.01122 0.0
O100 O 0.05157 0.96975 0.93189 0.0
C101 C 1.0129 0.94918 0.75262 0.0
O102 O 0.04254 0.01808 0.67389 0.0
O103 O 0.05808 0.99132 0.76672 0.0
C104 C 0.99221 0.05615 0.55115 0.0
C105 C 0.99873 0.1097 0.5109 0.0
C106 C 0.01506 0.0949 0.54953 0.0
C107 C 1.01178 0.06847 0.56965 0.0
C108 C 0.97592 0.07064 0.51171 0.0
C109 C 0.97922 0.09727 0.49125 0.0
C110 C 0.98762 0.02977 0.58476 0.0
C111 C 0.97167 1.0007 0.88636 0.0
C112 C 0.02018 0.05625 0.83295 0.0
C113 C 0.03112 0.95623 0.06005 0.0
C114 C 0.01356 0.90825 0.12071 0.0
C115 C 0.99902 0.9275 0.08891 0.0
C116 C 1.00773 0.95124 0.05872 0.0
C117 C 0.04544 0.93761 0.09503 0.0
C118 C 0.03668 0.9138 0.12555 0.0
C119 C 0.04141 0.97777 0.00951 0.0
H120 H 0.03045 0.10372 0.56414 0.0
H121 H 0.02434 0.05786 0.60169 0.0
H122 H 0.96045 0.06163 0.49881 0.0
H123 H 0.96629 0.10832 0.46186 0.0
H124 H 0.98106 0.92392 0.08549 0.0
H125 H 0.99646 0.96509 0.03041 0.0
H126 H 0.06366 0.94084 0.09471 0.0
H127 H 0.04833 0.89918 0.14918 0.0
Dy128 Dy 0.51241 0.98188 0.7264 0.0
Dy129 Dy 0.52359 0.01727 0.8882 0.0
C130 C 0.5131 0.04503 0.72072 0.0
O131 O 0.54971 0.99094 0.68359 0.0
O132 O 0.55892 1.00092 0.81537 0.0
O133 O 0.50937 0.97555 0.59342 0.0
O134 O 0.50231 0.94399 0.6818 0.0
O135 O 0.51403 0.97715 0.93466 0.0
O136 O 0.52923 0.95413 0.80914 0.0
O137 O 0.48426 0.02214 0.90849 0.0
O138 O 0.47795 0.98767 0.81713 0.0
O139 O 0.53736 0.01827 0.00545 0.0
O140 O 0.52434 0.05531 0.95699 0.0
C141 C 0.56527 0.99538 0.73232 0.0
O142 O 0.50116 0.0246 0.70596 0.0
O143 O 0.52717 0.04361 0.77669 0.0
C144 C 0.47662 0.9506 0.58395 0.0
C145 C 0.42967 0.95126 0.56064 0.0
C146 C 0.44454 0.96978 0.52052 0.0
C147 C 0.46778 0.96942 0.53183 0.0
C148 C 0.46204 0.93126 0.62074 0.0
C149 C 0.43875 0.93168 0.60962 0.0
C150 C 0.49993 0.95282 0.60733 0.0
C151 C 0.52244 0.9545 0.89242 0.0
C152 C 0.47014 0.00625 0.87853 0.0
C153 C 0.55858 0.05552 0.01844 0.0
C154 C 0.60518 0.06618 0.02546 0.0
C155 C 0.59033 0.05755 0.0978 0.0
C156 C 0.56728 0.05247 0.09438 0.0
C157 C 0.57285 0.06521 0.94697 0.0
C158 C 0.59588 0.07074 0.95072 0.0
C159 C 0.53629 0.04444 0.01098 0.0
H160 H 0.43799 0.98525 0.48284 0.0
H161 H 0.47852 0.98454 0.50226 0.0
H162 H 0.4684 0.91631 0.6606 0.0
H163 H 0.42777 0.91691 0.64013 0.0
H164 H 0.5968 0.05305 0.15597 0.0
H165 H 0.55668 0.04459 0.14965 0.0
H166 H 0.56656 0.06738 0.88711 0.0
H167 H 0.60658 0.07768 0.89413 0.0
Dy168 Dy 0.54211 0.49887 0.80906 0.0
Dy169 Dy 0.48928 0.49129 0.74676 0.0
C170 C 0.50531 0.4589 0.90216 0.0
O171 O 0.5505 0.4696 0.69618 0.0
O172 O 0.51348 0.45529 0.6997 0.0
O173 O 0.57565 0.48408 0.83683 0.0
O174 O 0.56404 0.52632 0.8603 0.0
O175 O 0.5075 0.51792 0.65063 0.0
O176 O 0.54138 0.52662 0.70228 0.0
O177 O 0.48916 0.5332 0.79912 0.0
O178 O 0.51215 0.52177 0.89571 0.0
O179 O 0.45108 0.49622 0.76853 0.0
O180 O 0.47091 0.47412 0.65473 0.0
C181 C 0.53628 0.45237 0.67455 0.0
O182 O 0.52718 0.46467 0.87961 0.0
O183 O 0.48788 0.47103 0.87146 0.0
C184 C 0.59132 0.50832 0.94422 0.0
C185 C 0.61861 0.50967 0.07581 0.0
C186 C 0.609 0.48586 0.05377 0.0
C187 C 0.59553 0.48517 0.98872 0.0
C188 C 0.60024 0.53229 0.96812 0.0
C189 C 0.61365 0.53299 0.03313 0.0
C190 C 0.58018 0.50739 0.86693 0.0
C191 C 0.52666 0.53064 0.64902 0.0
C192 C 0.49857 0.53964 0.86531 0.0
C193 C 0.43255 0.49229 0.64436 0.0
C194 C 0.39816 0.49905 0.53881 0.0
C195 C 0.42203 0.50097 0.50522 0.0
C196 C 0.43903 0.49765 0.55733 0.0
C197 C 0.40867 0.49162 0.67887 0.0
C198 C 0.39167 0.49504 0.6269 0.0
C199 C 0.45023 0.48317 0.69622 0.0
H200 H 0.61214 0.4676 0.08606 0.0
H201 H 0.58897 0.46633 0.97191 0.0
H202 H 0.59753 0.55036 0.93431 0.0
H203 H 0.62094 0.55161 0.04743 0.0
H204 H 0.42765 0.50447 0.43805 0.0
H205 H 0.4573 0.49823 0.52862 0.0
H206 H 0.40322 0.48717 0.7454 0.0
H207 H 0.37352 0.4932 0.65498 0.0
Dy208 Dy 0.01643 0.53225 0.72028 0.0
Dy209 Dy 1.00569 0.48097 0.83856 0.0
C210 C 0.01491 0.4736 0.63477 0.0
O211 O 0.98075 0.52224 0.70319 0.0
O212 O 0.97049 0.50134 0.82894 0.0
O213 O 0.03441 0.54929 0.6068 0.0
O214 O 1.01058 0.57474 0.70184 0.0
O215 O 0.01348 0.5135 0.92747 0.0
O216 O 1.00193 0.54881 0.85375 0.0
O217 O 0.04496 0.47954 0.80508 0.0
O218 O 0.04837 0.52395 0.77817 0.0
O219 O 0.99102 0.46528 0.95915 0.0
O220 O 1.0079 0.43804 0.85303 0.0
C221 C 0.96483 0.51272 0.76112 0.0
O222 O 0.0261 0.49557 0.63107 0.0
O223 O 1.00202 0.46732 0.70657 0.0
C224 C 0.04578 0.59178 0.63595 0.0
C225 C 0.09024 0.61179 0.62136 0.0
C226 C 0.07786 0.61267 0.55244 0.0
C227 C 0.05585 0.60276 0.55983 0.0
C228 C 0.05672 0.5935 0.70782 0.0
C229 C 0.07868 0.60374 0.70086 0.0
C230 C 0.027 0.57384 0.63408 0.0
C231 C 1.00723 0.53913 0.92425 0.0
C232 C 0.05743 0.50055 0.7969 0.0
C233 C 0.97382 0.42524 0.94211 0.0
C234 C 0.92816 0.40835 0.98261 0.0
C235 C 0.94287 0.40865 0.04441 0.0
C236 C 0.96545 0.41694 0.02416 0.0
C237 C 0.96008 0.42305 0.87818 0.0
C238 C 0.93751 0.4144 0.89806 0.0
C239 C 0.99472 0.44041 0.92899 0.0
H240 H 0.08599 0.61836 0.48967 0.0
H241 H 0.04769 0.60146 0.50365 0.0
H242 H 0.04918 0.58506 0.76738 0.0
H243 H 0.08733 0.6033 0.75587 0.0
H244 H 0.93642 0.40473 0.11067 0.0
H245 H 0.97572 0.41882 0.07444 0.0
H246 H 0.9662 0.42955 0.8143 0.0
H247 H 0.92695 0.41399 0.84841 0.0
C248 C 0.18342 0.98857 0.3653 0.0
C249 C 0.19765 0.00943 0.37556 0.0
C250 C 0.16146 0.98751 0.41905 0.0
C251 C 0.1535 0.00786 0.4847 0.0
C252 C 0.16809 0.02881 0.49573 0.0
C253 C 0.18997 0.02935 0.44095 0.0
C254 C 0.14663 0.9648 0.40471 0.0
C255 C 0.16043 0.05089 0.56466 0.0
C256 C 0.08747 0.01982 0.56732 0.0
C257 C 0.08449 0.00614 0.64383 0.0
C258 C 0.10972 0.02063 0.51549 0.0
C259 C 0.12973 0.00753 0.54033 0.0
C260 C 0.12689 0.99387 0.61777 0.0
C261 C 0.1044 0.9933 0.66831 0.0
C262 C 0.1118 0.03539 0.43358 0.0
C263 C 0.14765 0.9797 0.64712 0.0
H264 H 0.18935 0.97321 0.31445 0.0
H265 H 0.20098 0.04554 0.44866 0.0
H266 H 0.14227 0.95396 0.46447 0.0
H267 H 0.12985 0.97297 0.38811 0.0
H268 H 0.15553 0.9502 0.35253 0.0
H269 H 0.17402 0.06528 0.56668 0.0
H270 H 0.14418 0.06211 0.55347 0.0
H271 H 0.15633 0.04213 0.62828 0.0
H272 H 0.07233 0.02983 0.54736 0.0
H273 H 0.10246 0.98269 0.72714 0.0
H274 H 0.11909 0.0213 0.378 0.0
H275 H 0.12411 0.0513 0.43453 0.0
H276 H 0.09467 0.04481 0.42358 0.0
H277 H 0.15608 0.96381 0.59844 0.0
H278 H 0.14266 0.97035 0.70945 0.0
H279 H 0.16092 0.99412 0.65366 0.0
C280 C 0.52147 0.16644 0.40271 0.0
C281 C 0.50428 0.18742 0.43116 0.0
C282 C 0.52323 0.14348 0.45056 0.0
C283 C 0.50734 0.14152 0.52852 0.0
C284 C 0.49015 0.16301 0.55786 0.0
C285 C 0.48881 0.18572 0.50861 0.0
C286 C 0.54183 0.12113 0.41698 0.0
C287 C 0.47291 0.1618 0.6405 0.0
C288 C 0.49707 0.07167 0.60956 0.0
C289 C 0.51125 0.06983 0.67234 0.0
C290 C 0.49556 0.09488 0.56262 0.0
C291 C 0.50853 0.11687 0.57869 0.0
C292 C 0.52276 0.1152 0.64227 0.0
C293 C 0.52395 0.09177 0.68819 0.0
C294 C 0.48017 0.09582 0.49542 0.0
C295 C 0.53684 0.13815 0.66157 0.0
H296 H 0.53329 0.1678 0.34226 0.0
H297 H 0.47541 0.20198 0.52998 0.0
H298 H 0.55301 0.11692 0.4655 0.0
H299 H 0.53347 0.10243 0.40506 0.0
H300 H 0.55318 0.12603 0.35649 0.0
H301 H 0.46102 0.18044 0.65551 0.0
H302 H 0.46215 0.14453 0.63625 0.0
H303 H 0.48241 0.15854 0.69445 0.0
H304 H 0.48718 0.05489 0.59665 0.0
H305 H 0.53496 0.09066 0.73651 0.0
H306 H 0.49087 0.09876 0.43178 0.0
H307 H 0.46683 0.11316 0.51017 0.0
H308 H 0.47105 0.07718 0.4911 0.0
H309 H 0.54931 0.1424 0.60312 0.0
H310 H 0.54688 0.13383 0.71353 0.0
H311 H 0.52505 0.15665 0.6808 0.0
C312 C 0.30792 0.51277 0.20699 0.0
C313 C 0.29314 0.4918 0.21597 0.0
C314 C 0.32497 0.51512 0.25914 0.0
C315 C 0.32724 0.49601 0.32162 0.0
C316 C 0.31208 0.4749 0.33104 0.0
C317 C 0.2952 0.47307 0.27802 0.0
C318 C 0.34069 0.53791 0.24688 0.0
C319 C 0.31384 0.4541 0.39663 0.0
C320 C 0.38523 0.48548 0.40118 0.0
C321 C 0.3803 0.49952 0.48152 0.0
C322 C 0.36825 0.48442 0.34834 0.0
C323 C 0.34569 0.49776 0.37606 0.0
C324 C 0.34069 0.5123 0.45647 0.0
C325 C 0.35799 0.51296 0.50819 0.0
C326 C 0.37435 0.46856 0.26342 0.0
C327 C 0.31695 0.52696 0.48831 0.0
H328 H 0.30624 0.52724 0.1588 0.0
H329 H 0.28368 0.45687 0.28473 0.0
H330 H 0.33919 0.54995 0.30806 0.0
H331 H 0.35922 0.52977 0.22824 0.0
H332 H 0.33638 0.55142 0.1969 0.0
H333 H 0.30056 0.43921 0.39683 0.0
H334 H 0.33152 0.44324 0.38338 0.0
H335 H 0.31151 0.46404 0.46162 0.0
H336 H 0.40224 0.47465 0.3804 0.0
H337 H 0.35404 0.52408 0.56966 0.0
H338 H 0.3714 0.48159 0.21066 0.0
H339 H 0.36274 0.45192 0.26288 0.0
H340 H 0.39284 0.45991 0.25005 0.0
H341 H 0.31278 0.54154 0.44113 0.0
H342 H 0.31599 0.53792 0.5512 0.0
H343 H 0.30326 0.51246 0.49494 0.0
C344 C 0.03923 0.36191 0.24697 0.0
C345 C 0.02182 0.36322 0.19651 0.0
C346 C 0.03878 0.38094 0.31496 0.0
C347 C 0.02047 0.4018 0.33263 0.0
C348 C 1.00312 0.40347 0.28007 0.0
C349 C 1.00397 0.38404 0.2127 0.0
C350 C 0.05753 0.37826 0.36941 0.0
C351 C 0.98335 0.42535 0.29634 0.0
C352 C 1.00508 0.43159 0.56196 0.0
C353 C 0.01634 0.45557 0.55665 0.0
C354 C 1.00613 0.41416 0.48958 0.0
C355 C 0.01871 0.42075 0.40925 0.0
C356 C 0.02997 0.445 0.40305 0.0
C357 C 0.0287 0.46209 0.47677 0.0
C358 C 0.99389 0.38851 0.49935 0.0
C359 C 0.04348 0.45283 0.3186 0.0
H360 H 0.05298 0.34567 0.23426 0.0
H361 H 0.99046 0.38485 0.17363 0.0
H362 H 0.06609 0.39733 0.37209 0.0
H363 H 0.04951 0.37425 0.43604 0.0
H364 H 0.07117 0.36176 0.34473 0.0
H365 H 0.97196 0.42467 0.24717 0.0
H366 H 0.97242 0.42336 0.36024 0.0
H367 H 0.99046 0.44535 0.29707 0.0
H368 H 0.99544 0.42627 0.62309 0.0
H369 H 0.03739 0.48057 0.47168 0.0
H370 H 1.00683 0.37092 0.48118 0.0
H371 H 0.98104 0.38784 0.45555 0.0
H372 H 0.98457 0.38648 0.56592 0.0
H373 H 0.05811 0.43742 0.2947 0.0
H374 H 0.05078 0.47264 0.32388 0.0
H375 H 0.03195 0.45367 0.26996 0.0
C376 C 0.84875 0.97291 0.18172 0.0
C377 C 0.83406 0.99652 0.20342 0.0
C378 C 0.87074 0.97316 0.1276 0.0
C379 C 0.87828 0.99767 0.09446 0.0
C380 C 0.86318 0.02152 0.1153 0.0
C381 C 0.84126 0.02065 0.16964 0.0
C382 C 0.88613 0.94726 0.10733 0.0
C383 C 0.87038 0.04807 0.08162 0.0
C384 C 0.94415 0.00374 0.02892 0.0
C385 C 0.94774 0.99982 0.93923 0.0
C386 C 0.92175 0.00312 0.0798 0.0
C387 C 0.90223 0.99849 0.04058 0.0
C388 C 0.90571 0.99448 0.95012 0.0
C389 C 0.92834 0.99516 0.90072 0.0
C390 C 0.919 0.00742 0.17584 0.0
C391 C 0.88549 0.98945 0.90543 0.0
H392 H 0.8432 0.95426 0.20833 0.0
H393 H 0.82992 0.03895 0.18686 0.0
H394 H 0.89105 0.94341 0.03691 0.0
H395 H 0.90258 0.94893 0.13264 0.0
H396 H 0.87741 0.92976 0.13532 0.0
H397 H 0.85633 0.06455 0.10074 0.0
H398 H 0.88621 0.05353 0.10617 0.0
H399 H 0.87502 0.04642 0.01064 0.0
H400 H 0.95892 0.00727 0.05977 0.0
H401 H 0.93078 0.9921 0.83165 0.0
H402 H 0.91178 0.98967 0.20769 0.0
H403 H 0.90636 0.025 0.19849 0.0
H404 H 0.93584 0.01083 0.19661 0.0
H405 H 0.87727 0.97118 0.92931 0.0
H406 H 0.891 0.9868 0.83474 0.0
H407 H 0.87187 0.00651 0.92022 0.0
C408 C 0.50788 0.81593 0.12957 0.0
C409 C 0.52753 0.80824 0.16508 0.0
C410 C 0.50709 0.83938 0.08336 0.0
C411 C 0.52644 0.85541 0.07269 0.0
C412 C 0.54645 0.84737 0.10789 0.0
C413 C 0.54673 0.82384 0.15381 0.0
C414 C 0.48545 0.84717 0.04691 0.0
C415 C 0.56745 0.86379 0.09797 0.0
C416 C 0.53262 0.90477 0.89391 0.0
C417 C 0.52381 0.92921 0.93861 0.0
C418 C 0.53361 0.88065 0.93661 0.0
C419 C 0.52556 0.88087 0.02629 0.0
C420 C 0.51671 0.90547 0.07181 0.0
C421 C 0.51595 0.92929 0.02753 0.0
C422 C 0.54321 0.85489 0.88566 0.0
C423 C 0.50795 0.90663 0.1674 0.0
H424 H 0.49305 0.80375 0.13866 0.0
H425 H 0.5619 0.81777 0.18164 0.0
H426 H 0.47743 0.867 0.07567 0.0
H427 H 0.4902 0.84922 0.97674 0.0
H428 H 0.47216 0.83224 0.05902 0.0
H429 H 0.58185 0.85445 0.12726 0.0
H430 H 0.57419 0.86625 0.02904 0.0
H431 H 0.56226 0.88418 0.1285 0.0
H432 H 0.53872 0.90441 0.82524 0.0
H433 H 0.50908 0.948 0.0628 0.0
H434 H 0.52972 0.84015 0.89262 0.0
H435 H 0.55843 0.84583 0.91087 0.0
H436 H 0.54882 0.85808 0.81639 0.0
H437 H 0.49343 0.89341 0.18273 0.0
H438 H 0.5016 0.92732 0.19344 0.0
H439 H 0.52216 0.89909 0.2007 0.0
C440 C 0.69756 0.50381 0.44685 0.0
C441 C 0.71881 0.51488 0.41866 0.0
C442 C 0.68056 0.50271 0.39401 0.0
C443 C 0.68497 0.51299 0.31109 0.0
C444 C 0.70653 0.52423 0.28271 0.0
C445 C 0.72321 0.52501 0.33691 0.0
C446 C 0.65792 0.49049 0.42681 0.0
C447 C 0.71197 0.53545 0.19506 0.0
C448 C 0.65178 0.48855 0.13981 0.0
C449 C 0.63473 0.50994 0.1396 0.0
C450 C 0.66796 0.48913 0.19594 0.0
C451 C 0.66722 0.51167 0.25354 0.0
C452 C 0.64981 0.53312 0.25483 0.0
C453 C 0.63383 0.532 0.19799 0.0
C454 C 0.68614 0.46578 0.19247 0.0
C455 C 0.64824 0.55746 0.31551 0.0
H456 H 0.69422 0.49602 0.51034 0.0
H457 H 0.7397 0.53359 0.31541 0.0
H458 H 0.64285 0.50542 0.42671 0.0
H459 H 0.65585 0.47318 0.38371 0.0
H460 H 0.65712 0.48351 0.4928 0.0
H461 H 0.72941 0.54369 0.18285 0.0
H462 H 0.71155 0.51951 0.14491 0.0
H463 H 0.69842 0.55166 0.18847 0.0
H464 H 0.65291 0.47157 0.09431 0.0
H465 H 0.62057 0.54848 0.19933 0.0
H466 H 0.68525 0.45761 0.2569 0.0
H467 H 0.70391 0.47271 0.17331 0.0
H468 H 0.68385 0.44931 0.14644 0.0
H469 H 0.64619 0.55124 0.38261 0.0
H470 H 0.63334 0.57212 0.3102 0.0
H471 H 0.6647 0.56767 0.30198 0.0
C472 C 0.03223 0.63947 0.29806 0.0
C473 C 1.01165 0.64938 0.35322 0.0
C474 C 0.03157 0.62091 0.22974 0.0
C475 C 1.00978 0.61211 0.21665 0.0
C476 C 0.98898 0.62194 0.27341 0.0
C477 C 0.99018 0.64054 0.34099 0.0
C478 C 0.05414 0.61103 0.17081 0.0
C479 C 0.96543 0.61304 0.26211 0.0
C480 C 1.00475 0.58564 0.99273 0.0
C481 C 1.00711 0.5577 1.00001 0.0
C482 C 1.00558 0.60349 0.06258 0.0
C483 C 1.00868 0.59326 0.14221 0.0
C484 C 1.01084 0.56509 0.15032 0.0
C485 C 1.01014 0.54767 0.07915 0.0
C486 C 1.00339 0.63336 0.05083 0.0
C487 C 0.01402 0.55333 0.23413 0.0
H488 H 0.04882 0.64645 0.30784 0.0
H489 H 0.97429 0.64836 0.38391 0.0
H490 H 0.05652 0.58878 0.16926 0.0
H491 H 0.0534 0.61682 0.10448 0.0
H492 H 0.06965 0.61932 0.19082 0.0
H493 H 0.95104 0.62186 0.31329 0.0
H494 H 0.96157 0.61902 0.19916 0.0
H495 H 0.9657 0.59082 0.26233 0.0
H496 H 1.00259 0.59365 0.93186 0.0
H497 H 1.01198 0.52615 0.08563 0.0
H498 H 0.01931 0.64241 0.0642 0.0
H499 H 0.98827 0.64305 0.09713 0.0
H500 H 1.001 0.63811 0.98496 0.0
H501 H 0.03028 0.55987 0.25305 0.0
H502 H 0.01505 0.53102 0.23044 0.0
H503 H 0.99922 0.56086 0.28562 0.0
C504 C 1.0124 0.25583 0.34406 0.0
C505 C 0.03323 0.25216 0.28389 0.0
C506 C 1.00731 0.2372 0.40726 0.0
C507 C 0.02348 0.21477 0.40879 0.0
C508 C 0.04628 0.21421 0.35922 0.0
C509 C 0.05093 0.23311 0.29689 0.0
C510 C 0.98329 0.23919 0.46247 0.0
C511 C 0.0644 0.19121 0.36164 0.0
C512 C 1.01079 0.15529 0.54642 0.0
C513 C 1.00268 0.13773 0.48908 0.0
C514 C 0.01691 0.18097 0.52297 0.0
C515 C 0.0148 0.18916 0.44027 0.0
C516 C 1.00585 0.17182 0.3832 0.0
C517 C 0.99986 0.14636 0.40852 0.0
C518 C 0.02574 0.19905 0.58649 0.0
C519 C 1.00362 0.17958 0.29359 0.0
H520 H 0.99881 0.27082 0.33441 0.0
H521 H 0.06717 0.23063 0.25069 0.0
H522 H 0.97187 0.22622 0.4329 0.0
H523 H 0.98412 0.23212 0.52735 0.0
H524 H 0.97511 0.26013 0.46857 0.0
H525 H 0.08227 0.1964 0.33321 0.0
H526 H 0.06434 0.18531 0.42835 0.0
H527 H 0.0602 0.17354 0.32435 0.0
H528 H 1.01273 0.14876 0.60921 0.0
H529 H 0.9939 0.13273 0.3637 0.0
H530 H 1.0114 0.21419 0.61588 0.0
H531 H 0.04052 0.21005 0.55487 0.0
H532 H 0.03153 0.18762 0.63868 0.0
H533 H 0.99318 0.19914 0.2958 0.0
H534 H 0.99517 0.16437 0.25925 0.0
H535 H 0.02125 0.18184 0.25569 0.0
C536 C 0.30156 0.9598 0.4556 0.0
C537 C 0.29706 0.9872 0.44428 0.0
C538 C 0.3191 0.95106 0.50081 0.0
C539 C 0.33232 0.97029 0.53381 0.0
C540 C 0.32477 0.99792 0.53585 0.0
C541 C 0.3071 0.00611 0.49064 0.0
C542 C 0.32591 0.92138 0.50101 0.0
C543 C 0.33782 0.01905 0.57331 0.0
C544 C 0.38707 0.95167 0.62584 0.0
C545 C 0.40458 0.95316 0.5533 0.0
C546 C 0.36326 0.95627 0.62076 0.0
C547 C 0.35697 0.96255 0.54126 0.0
C548 C 0.37463 0.96293 0.46716 0.0
C549 C 0.39815 0.95816 0.47421 0.0
C550 C 0.34516 0.95562 0.70133 0.0
C551 C 0.36883 0.96947 0.38066 0.0
H552 H 0.29371 0.94521 0.4196 0.0
H553 H 0.30353 0.02732 0.48166 0.0
H554 H 0.34069 0.91571 0.44733 0.0
H555 H 0.33178 0.91623 0.56163 0.0
H556 H 0.31112 0.9093 0.49246 0.0
H557 H 0.32722 0.03867 0.58532 0.0
H558 H 0.3428 0.01271 0.63426 0.0
H559 H 0.35417 0.0219 0.52767 0.0
H560 H 0.39198 0.94786 0.68729 0.0
H561 H 0.41163 0.95881 0.41777 0.0
H562 H 0.32854 0.94846 0.6876 0.0
H563 H 0.3413 0.97623 0.73147 0.0
H564 H 0.35168 0.94255 0.74857 0.0
H565 H 0.35593 0.95599 0.36299 0.0
H566 H 0.38454 0.96749 0.32889 0.0
H567 H 0.36088 0.99042 0.38363 0.0
C568 C 0.56117 0.31264 0.41123 0.0
C569 C 0.5403 0.30103 0.44229 0.0
C570 C 0.56806 0.33441 0.4565 0.0
C571 C 0.5536 0.34461 0.53383 0.0
C572 C 0.53497 0.32981 0.57231 0.0
C573 C 0.52846 0.30807 0.52565 0.0
C574 C 0.58864 0.34888 0.41499 0.0
C575 C 0.51965 0.33941 0.65644 0.0
C576 C 0.56158 0.40933 0.65629 0.0
C577 C 0.54564 0.42718 0.62582 0.0
C578 C 0.56554 0.38243 0.624 0.0
C579 C 0.55331 0.37357 0.55988 0.0
C580 C 0.53863 0.3923 0.52454 0.0
C581 C 0.53485 0.41879 0.55859 0.0
C582 C 0.58142 0.36331 0.66314 0.0
C583 C 0.52562 0.38403 0.4545 0.0
H584 H 0.57041 0.30701 0.34675 0.0
H585 H 0.51236 0.29902 0.54973 0.0
H586 H 0.58225 0.36577 0.37949 0.0
H587 H 0.59794 0.35739 0.46378 0.0
H588 H 0.60121 0.3353 0.36877 0.0
H589 H 0.50914 0.32329 0.68541 0.0
H590 H 0.53036 0.34661 0.70262 0.0
H591 H 0.50742 0.3565 0.64552 0.0
H592 H 0.5696 0.4158 0.70944 0.0
H593 H 0.52247 0.43271 0.53552 0.0
H594 H 0.59048 0.34736 0.61582 0.0
H595 H 0.57079 0.35346 0.71644 0.0
H596 H 0.59475 0.37411 0.68991 0.0
H597 H 0.51597 0.4014 0.43112 0.0
H598 H 0.51284 0.36944 0.47876 0.0
H599 H 0.53802 0.37401 0.39927 0.0
C600 C 0.2082 0.56128 0.33455 0.0
C601 C 0.19536 0.54309 0.2962 0.0
C602 C 0.19765 0.57735 0.408 0.0
C603 C 0.17358 0.5757 0.44175 0.0
C604 C 0.16095 0.55649 0.40508 0.0
C605 C 0.17218 0.54007 0.33464 0.0
C606 C 0.21231 0.5964 0.44676 0.0
C607 C 0.13519 0.55373 0.43771 0.0
C608 C 0.13047 0.59379 0.63752 0.0
C609 C 0.1162 0.6129 0.60322 0.0
C610 C 0.15289 0.58505 0.59253 0.0
C611 C 0.16043 0.5948 0.51066 0.0
C612 C 0.14858 0.6182 0.4865 0.0
C613 C 0.12665 0.62742 0.53456 0.0
C614 C 0.16654 0.56215 0.62534 0.0
C615 C 0.15695 0.63057 0.40249 0.0
H616 H 0.22626 0.56354 0.30604 0.0
H617 H 0.16245 0.52519 0.30793 0.0
H618 H 0.21499 0.61384 0.40586 0.0
H619 H 0.20419 0.60385 0.51283 0.0
H620 H 0.2299 0.58637 0.44806 0.0
H621 H 0.12772 0.53925 0.39726 0.0
H622 H 0.13265 0.54664 0.50381 0.0
H623 H 0.12499 0.57344 0.43937 0.0
H624 H 0.1233 0.58303 0.69286 0.0
H625 H 0.11643 0.6436 0.51128 0.0
H626 H 0.18563 0.56264 0.6016 0.0
H627 H 0.16102 0.54278 0.60255 0.0
H628 H 0.16313 0.5629 0.69655 0.0
H629 H 0.17605 0.63262 0.39349 0.0
H630 H 0.14778 0.65066 0.39875 0.0
H631 H 0.15367 0.61727 0.34897 0.0
C632 C 0.96082 0.78215 0.33467 0.0
C633 C 0.97982 0.76287 0.32931 0.0
C634 C 0.962 0.80328 0.27898 0.0
C635 C 0.98252 0.80464 0.21699 0.0
C636 C 0.99919 0.78218 0.20001 0.0
C637 C 0.99769 0.76136 0.25702 0.0
C638 C 0.9432 0.82622 0.29604 0.0
C639 C 0.02065 0.78225 0.1311 0.0
C640 C 0.99236 0.8678 0.09357 0.0
C641 C 1.00491 0.88206 0.14576 0.0
C642 C 0.98472 0.84255 0.11545 0.0
C643 C 0.98982 0.83142 0.19126 0.0
C644 C 1.00223 0.84596 0.24469 0.0
C645 C 1.00961 0.87107 0.22116 0.0
C646 C 0.97187 0.82772 0.05597 0.0
C647 C 1.00775 0.83509 0.32715 0.0
H648 H 0.94666 0.78285 0.38951 0.0
H649 H 1.01221 0.74615 0.25168 0.0
H650 H 0.94888 0.84226 0.33621 0.0
H651 H 0.9402 0.83498 0.23533 0.0
H652 H 0.92642 0.81966 0.33079 0.0
H653 H 0.02895 0.76159 0.11351 0.0
H654 H 0.0162 0.79141 0.07289 0.0
H655 H 0.03363 0.7944 0.15486 0.0
H656 H 0.98886 0.87618 0.0347 0.0
H657 H 0.01896 0.88225 0.2622 0.0
H658 H 0.95871 0.8153 0.09135 0.0
H659 H 0.98469 0.81414 0.01083 0.0
H660 H 0.96294 0.84184 0.01744 0.0
H661 H 0.99124 0.83259 0.37224 0.0
H662 H 0.01832 0.84853 0.35909 0.0
H663 H 0.01761 0.81508 0.31438 0.0
C664 C 0.71491 0.0031 0.1291 0.0
C665 C 0.73108 0.01909 0.15733 0.0
C666 C 0.69894 0.01382 0.08069 0.0
C667 C 0.69973 0.04096 0.05829 0.0
C668 C 0.71879 0.05542 0.07323 0.0
C669 C 0.73414 0.04445 0.12444 0.0
C670 C 0.67925 0.9973 0.0647 0.0
C671 C 0.7215 0.08348 0.04343 0.0
C672 C 0.6476 0.0585 0.9539 0.0
C673 C 0.6307 0.06724 0.02637 0.0
C674 C 0.67124 0.05307 0.96039 0.0
C675 C 0.67786 0.0554 0.04172 0.0
C676 C 0.66141 0.06698 0.1128 0.0
C677 C 0.63823 0.07344 0.10344 0.0
C678 C 0.6885 0.04284 0.88134 0.0
C679 C 0.66755 0.06997 0.2012 0.0
H680 H 0.71289 0.98331 0.15392 0.0
H681 H 0.7469 0.0567 0.1454 0.0
H682 H 0.66249 0.00602 0.10404 0.0
H683 H 0.67737 0.99762 0.99651 0.0
H684 H 0.68212 0.97605 0.08108 0.0
H685 H 0.74018 0.08794 0.03258 0.0
H686 H 0.71452 0.08632 0.98337 0.0
H687 H 0.71169 0.09821 0.09335 0.0
H688 H 0.6423 0.05414 0.89318 0.0
H689 H 0.62561 0.0816 0.15861 0.0
H690 H 0.687 0.02107 0.86957 0.0
H691 H 0.70683 0.04586 0.88772 0.0
H692 H 0.6845 0.05313 0.8242 0.0
H693 H 0.67245 0.0499 0.22345 0.0
H694 H 0.65279 0.07975 0.24913 0.0
H695 H 0.68279 0.08211 0.19948 0.0
C696 C 0.5056 0.68981 0.03982 0.0
C697 C 0.52952 0.69104 0.04084 0.0
C698 C 0.49779 0.66881 0.99395 0.0
C699 C 0.51441 0.64914 0.94744 0.0
C700 C 0.53855 0.65326 0.93603 0.0
C701 C 0.5459 0.67416 0.9837 0.0
C702 C 0.47187 0.66558 0.00554 0.0
C703 C 0.55676 0.63351 0.88292 0.0
C704 C 0.50433 0.57559 0.97085 0.0
C705 C 0.49878 0.56828 0.89146 0.0
C706 C 0.50824 0.60222 0.99105 0.0
C707 C 0.50726 0.62187 0.92921 0.0
C708 C 0.50078 0.61481 0.85007 0.0
C709 C 0.49633 0.58812 0.83262 0.0
C710 C 0.51442 0.60901 0.07744 0.0
C711 C 0.50003 0.63468 0.78117 0.0
H712 H 0.49293 0.7029 0.08409 0.0
H713 H 0.56441 0.67522 0.98437 0.0
H714 H 0.467 0.65848 0.94449 0.0
H715 H 0.46731 0.65026 0.05326 0.0
H716 H 0.46132 0.68469 0.02888 0.0
H717 H 0.57397 0.64212 0.86697 0.0
H718 H 0.55906 0.61528 0.91938 0.0
H719 H 0.55106 0.62723 0.82255 0.0
H720 H 0.50617 0.56032 0.01651 0.0
H721 H 0.4922 0.58257 0.7708 0.0
H722 H 0.50356 0.62708 0.10852 0.0
H723 H 0.53304 0.61361 0.06911 0.0
H724 H 0.51183 0.59222 0.12111 0.0
H725 H 0.48741 0.62941 0.73948 0.0
H726 H 0.51763 0.63407 0.74022 0.0
H727 H 0.49525 0.65554 0.80818 0.0
C728 C 0.84099 0.47581 0.28664 0.0
C729 C 0.81871 0.46932 0.32529 0.0
C730 C 0.85348 0.46111 0.21438 0.0
C731 C 0.8431 0.43979 0.1776 0.0
C732 C 0.81969 0.43475 0.21144 0.0
C733 C 0.8078 0.44945 0.28582 0.0
C734 C 0.87832 0.46767 0.18051 0.0
C735 C 0.80736 0.41326 0.17237 0.0
C736 C 0.88642 0.42428 0.97869 0.0
C737 C 0.90246 0.4069 0.01131 0.0
C738 C 0.86395 0.43129 0.02644 0.0
C739 C 0.85812 0.42186 0.10966 0.0
C740 C 0.87228 0.40048 0.13474 0.0
C741 C 0.8942 0.39281 0.08402 0.0
C742 C 0.84791 0.45176 0.99343 0.0
C743 C 0.86602 0.38865 0.22105 0.0
H744 H 0.84912 0.49183 0.31539 0.0
H745 H 0.79041 0.44457 0.31493 0.0
H746 H 0.87982 0.47395 0.11362 0.0
H747 H 0.88397 0.4841 0.2193 0.0
H748 H 0.89067 0.44966 0.18025 0.0
H749 H 0.78867 0.42017 0.17456 0.0
H750 H 0.81555 0.4075 0.10496 0.0
H751 H 0.80769 0.39516 0.21068 0.0
H752 H 0.89199 0.43476 0.92101 0.0
H753 H 0.90587 0.37798 0.10673 0.0
H754 H 0.85152 0.47223 0.0143 0.0
H755 H 0.82926 0.44895 0.01905 0.0
H756 H 0.85077 0.45036 0.92228 0.0
H757 H 0.86862 0.4034 0.27195 0.0
H758 H 0.87701 0.36984 0.22588 0.0
H759 H 0.84735 0.38431 0.23337 0.0
C760 C 1.00454 0.20542 0.03385 0.0
C761 C 0.02175 0.22224 0.99957 0.0
C762 C 1.0038 0.17949 0.99796 0.0
C763 C 0.02053 0.17009 0.92493 0.0
C764 C 0.0368 0.18778 0.88583 0.0
C765 C 0.03735 0.21365 0.9241 0.0
C766 C 0.9862 0.16148 0.04237 0.0
C767 C 0.05476 0.1788 0.80732 0.0
C768 C 0.03565 0.09429 0.90903 0.0
C769 C 0.02149 0.08549 0.85231 0.0
C770 C 0.03605 0.1218 0.9309 0.0
C771 C 0.02208 0.14112 0.89493 0.0
C772 C 1.00831 0.13243 0.83564 0.0
C773 C 1.00817 0.1048 0.81508 0.0
C774 C 0.05092 0.13015 0.99469 0.0
C775 C 0.9932 0.1523 0.79575 0.0
H776 H 0.99259 0.21197 0.09271 0.0
H777 H 0.0509 0.22641 0.8982 0.0
H778 H 0.97683 0.15196 0.99556 0.0
H779 H 0.99546 0.14512 0.07179 0.0
H780 H 0.97308 0.17257 0.09357 0.0
H781 H 0.06197 0.1962 0.77311 0.0
H782 H 0.06944 0.16664 0.82699 0.0
H783 H 0.04719 0.16603 0.76227 0.0
H784 H 0.04607 0.07964 0.93794 0.0
H785 H 0.99736 0.09834 0.77036 0.0
H786 H 0.03954 0.1399 0.05291 0.0
H787 H 0.0629 0.14512 0.96699 0.0
H788 H 0.06154 0.11286 0.01413 0.0
H789 H 0.97928 0.16239 0.84612 0.0
H790 H 0.98476 0.14257 0.74641 0.0
H791 H 1.00385 0.16816 0.76599 0.0
C792 C 0.34418 0.98133 0.13409 0.0
C793 C 0.32682 1.00283 0.14245 0.0
C794 C 0.36649 0.98279 0.08397 0.0
C795 C 0.37175 0.00622 0.03931 0.0
C796 C 0.35379 0.02728 0.04249 0.0
C797 C 0.33156 0.02541 0.09428 0.0
C798 C 0.38483 0.95971 0.08257 0.0
C799 C 0.35839 0.05227 0.99395 0.0
C800 C 0.43656 0.01988 1.00004 0.0
C801 C 0.44461 0.00847 0.91691 0.0
C802 C 0.41281 0.02002 0.0394 0.0
C803 C 0.39643 0.00903 0.99415 0.0
C804 C 0.40427 0.99864 0.90866 0.0
C805 C 0.42822 0.99812 0.87172 0.0
C806 C 0.40544 0.03097 0.13094 0.0
C807 C 0.38764 0.9871 0.85668 0.0
H808 H 0.34062 0.96367 0.17042 0.0
H809 H 0.31835 0.04216 0.10055 0.0
H810 H 0.39218 0.95261 0.0155 0.0
H811 H 0.39948 0.96659 0.11183 0.0
H812 H 0.37773 0.9425 0.11809 0.0
H813 H 0.34217 0.06565 0.99615 0.0
H814 H 0.3712 0.06362 0.02176 0.0
H815 H 0.36623 0.04679 0.92598 0.0
H816 H 0.449 0.02784 0.03578 0.0
H817 H 0.43411 0.98942 0.80718 0.0
H818 H 0.39948 0.01453 0.17253 0.0
H819 H 0.39047 0.04635 0.13602 0.0
H820 H 0.41991 0.04009 0.15589 0.0
H821 H 0.3853 0.96597 0.87321 0.0
H822 H 0.39457 0.98723 0.78684 0.0
H823 H 0.37017 0.99841 0.87046 0.0
C824 C 0.48677 0.34633 0.24823 0.0
C825 C 0.49698 0.32141 0.2108 0.0
C826 C 0.4842 0.36854 0.19828 0.0
C827 C 0.49214 0.36581 0.10855 0.0
C828 C 0.50074 0.34013 0.06968 0.0
C829 C 0.50303 0.31815 0.12142 0.0
C830 C 0.47482 0.39539 0.24261 0.0
C831 C 0.5093 0.33633 0.97421 0.0
C832 C 0.4797 0.42394 0.96918 0.0
C833 C 0.50075 0.43651 0.96051 0.0
C834 C 0.4765 0.40094 0.01734 0.0
C835 C 0.49473 0.39034 0.05791 0.0
C836 C 0.51574 0.40337 0.05108 0.0
C837 C 0.51848 0.42618 0.00263 0.0
C838 C 0.45381 0.38771 0.02355 0.0
C839 C 0.53556 0.39298 0.09407 0.0
H840 H 0.48201 0.34882 0.31747 0.0
H841 H 0.51107 0.29895 0.0925 0.0
H842 H 0.48949 0.40836 0.2431 0.0
H843 H 0.46216 0.4058 0.20775 0.0
H844 H 0.46609 0.39335 0.30996 0.0
H845 H 0.51225 0.31475 0.95261 0.0
H846 H 0.49657 0.34635 0.93878 0.0
H847 H 0.52607 0.34575 0.9569 0.0
H848 H 0.46596 0.43162 0.93649 0.0
H849 H 0.53478 0.43574 0.99689 0.0
H850 H 0.44573 0.38613 0.09177 0.0
H851 H 0.45732 0.36696 0.99431 0.0
H852 H 0.44105 0.39891 0.99081 0.0
H853 H 0.52935 0.39248 0.16421 0.0
H854 H 0.5507 0.40552 0.0829 0.0
H855 H 0.54167 0.37211 0.0697 0.0
C856 C 0.18555 0.49899 0.9371 0.0
C857 C 0.1803 0.49979 0.02704 0.0
C858 C 0.16775 0.49661 0.88771 0.0
C859 C 0.14417 0.49539 0.9293 0.0
C860 C 0.13907 0.49494 0.01977 0.0
C861 C 0.15715 0.49665 0.06699 0.0
C862 C 0.17406 0.49627 0.79129 0.0
C863 C 0.11426 0.49392 0.06743 0.0
C864 C 0.09203 0.52236 0.83449 0.0
C865 C 0.08142 0.49878 0.81838 0.0
C866 C 0.11318 0.52146 0.8659 0.0
C867 C 0.12438 0.49633 0.88026 0.0
C868 C 0.11464 0.47239 0.85831 0.0
C869 C 0.09315 0.47389 0.8287 0.0
C870 C 0.12264 0.54756 0.88919 0.0
C871 C 0.12633 0.44517 0.86985 0.0
H872 H 0.20334 0.50124 0.90546 0.0
H873 H 0.15296 0.49638 0.13628 0.0
H874 H 0.16598 0.47966 0.76197 0.0
H875 H 0.16705 0.51531 0.76819 0.0
H876 H 0.1933 0.49392 0.76842 0.0
H877 H 0.11327 0.49345 0.1379 0.0
H878 H 0.10329 0.51179 0.05388 0.0
H879 H 0.10653 0.47589 0.04526 0.0
H880 H 0.08325 0.54174 0.82657 0.0
H881 H 0.08531 0.45554 0.81545 0.0
H882 H 0.1415 0.54746 0.86114 0.0
H883 H 0.12099 0.5499 0.95989 0.0
H884 H 0.11315 0.56526 0.86687 0.0
H885 H 0.11902 0.42881 0.83614 0.0
H886 H 0.12379 0.44121 0.93905 0.0
H887 H 0.14547 0.44456 0.84571 0.0
C888 C 0.02284 0.79202 0.6065 0.0
C889 C 1.00031 0.78367 0.60805 0.0
C890 C 0.02606 0.81762 0.64081 0.0
C891 C 1.00627 0.83519 0.67742 0.0
C892 C 0.98364 0.82579 0.68596 0.0
C893 C 0.98093 0.80022 0.6508 0.0
C894 C 0.05052 0.82662 0.63171 0.0
C895 C 0.96209 0.84356 0.72588 0.0
C896 C 1.01276 0.90128 0.79692 0.0
C897 C 1.0116 0.91993 0.73326 0.0
C898 C 1.01161 0.87361 0.77953 0.0
C899 C 1.00888 0.86427 0.69681 0.0
C900 C 1.00786 0.88295 0.63221 0.0
C901 C 1.0093 0.91045 0.65108 0.0
C902 C 1.01284 0.85454 0.85042 0.0
C903 C 1.00506 0.8739 0.54299 0.0
H904 H 0.03782 0.77948 0.57223 0.0
H905 H 0.96348 0.7939 0.6512 0.0
H906 H 0.053 0.84172 0.58204 0.0
H907 H 0.05322 0.83639 0.69275 0.0
H908 H 0.06409 0.80963 0.61281 0.0
H909 H 0.94611 0.83234 0.73634 0.0
H910 H 0.9644 0.85276 0.78823 0.0
H911 H 0.95934 0.86016 0.68329 0.0
H912 H 0.01458 0.90826 0.86074 0.0
H913 H 1.00843 0.92455 0.60131 0.0
H914 H 0.02368 0.83573 0.82617 0.0
H915 H 0.99494 0.84904 0.87658 0.0
H916 H 0.02018 0.86374 0.90361 0.0
H917 H 0.01945 0.8586 0.51523 0.0
H918 H 1.00514 0.89076 0.49933 0.0
H919 H 0.98835 0.8643 0.54571 0.0
C920 C 0.70185 0.97884 0.49856 0.0
C921 C 0.70758 0.00333 0.46339 0.0
C922 C 0.6799 0.9765 0.55149 0.0
C923 C 0.66331 0.99919 0.56966 0.0
C924 C 0.66976 0.02433 0.53883 0.0
C925 C 0.69169 0.02604 0.48607 0.0
C926 C 0.67391 0.94937 0.58337 0.0
C927 C 0.6529 0.04914 0.55669 0.0
C928 C 0.59774 0.98992 0.60309 0.0
C929 C 0.59064 0.9948 0.69201 0.0
C930 C 0.62132 0.99066 0.56324 0.0
C931 C 0.63851 0.99631 0.6131 0.0
C932 C 0.63159 1.00064 0.70314 0.0
C933 C 0.60782 0.99996 0.74137 0.0
C934 C 0.62774 0.98599 0.46709 0.0
C935 C 0.6492 0.00671 0.75897 0.0
H936 H 0.71387 0.96114 0.48019 0.0
H937 H 0.69597 0.04498 0.45844 0.0
H938 H 0.66624 0.95108 0.6527 0.0
H939 H 0.66056 0.94153 0.54908 0.0
H940 H 0.68948 0.93458 0.57297 0.0
H941 H 0.66133 0.06758 0.53549 0.0
H942 H 0.63803 0.0468 0.5226 0.0
H943 H 0.64556 0.05184 0.62618 0.0
H944 H 0.58478 0.98592 0.56395 0.0
H945 H 0.60268 0.00384 0.81003 0.0
H946 H 0.64188 0.96955 0.45045 0.0
H947 H 0.63453 0.00436 0.43807 0.0
H948 H 0.61258 0.98072 0.43776 0.0
H949 H 0.6648 0.99205 0.7439 0.0
H950 H 0.64173 0.00632 0.82832 0.0
H951 H 0.6553 0.02692 0.74585 0.0
C952 C 0.53247 0.64031 0.30245 0.0
C953 C 0.53961 0.66551 0.32572 0.0
C954 C 0.53289 0.61852 0.35508 0.0
C955 C 0.53873 0.62216 0.4371 0.0
C956 C 0.54528 0.64755 0.46313 0.0
C957 C 0.54609 0.66875 0.40658 0.0
C958 C 0.52642 0.59169 0.32307 0.0
C959 C 0.55048 0.6527 0.55185 0.0
C960 C 0.51095 0.57159 0.58759 0.0
C961 C 0.53009 0.55343 0.59264 0.0
C962 C 0.51389 0.59501 0.54218 0.0
C963 C 0.53632 0.59967 0.49651 0.0
C964 C 0.55572 0.58114 0.50034 0.0
C965 C 0.55246 0.55857 0.55032 0.0
C966 C 0.49291 0.61471 0.54276 0.0
C967 C 0.57969 0.58464 0.44929 0.0
H968 H 0.52599 0.63736 0.24328 0.0
H969 H 0.55163 0.68785 0.42638 0.0
H970 H 0.53789 0.57492 0.34088 0.0
H971 H 0.5081 0.58867 0.35243 0.0
H972 H 0.52783 0.59051 0.25237 0.0
H973 H 0.55885 0.6718 0.55772 0.0
H974 H 0.53383 0.65392 0.59886 0.0
H975 H 0.56201 0.63599 0.56955 0.0
H976 H 0.49369 0.56789 0.62148 0.0
H977 H 0.56729 0.54459 0.55472 0.0
H978 H 0.48811 0.61464 0.47821 0.0
H979 H 0.49719 0.63538 0.55858 0.0
H980 H 0.47743 0.60982 0.58971 0.0
H981 H 0.57896 0.58367 0.37982 0.0
H982 H 0.59309 0.56897 0.46135 0.0
H983 H 0.58532 0.60467 0.46498 0.0
C984 C 0.84525 0.4782 0.62704 0.0
C985 C 0.83068 0.50064 0.6131 0.0
C986 C 0.86511 0.48103 0.66457 0.0
C987 C 0.87052 0.50696 0.68986 0.0
C988 C 0.85465 0.52942 0.68362 0.0
C989 C 0.83494 0.52603 0.64489 0.0
C990 C 0.88122 0.45642 0.67133 0.0
C991 C 0.85929 0.55726 0.71279 0.0
C992 C 0.92161 0.50885 0.81183 0.0
C993 C 0.94028 0.51311 0.74577 0.0
C994 C 0.8986 0.50779 0.79575 0.0
C995 C 0.89419 0.51068 0.71135 0.0
C996 C 0.91298 0.51528 0.64481 0.0
C997 C 0.93564 0.51668 0.66295 0.0
C998 C 0.87909 0.50376 0.86931 0.0
C999 C 0.90935 0.51777 0.55341 0.0
H1000 H 0.84184 0.45845 0.60382 0.0
H1001 H 0.82378 0.54347 0.63445 0.0
H1002 H 0.89816 0.45765 0.62727 0.0
H1003 H 0.88499 0.45545 0.73731 0.0
H1004 H 0.87369 0.43754 0.65476 0.0
H1005 H 0.84381 0.57186 0.71543 0.0
H1006 H 0.86426 0.557 0.77712 0.0
H1007 H 0.87419 0.56434 0.66779 0.0
H1008 H 0.92495 0.5063 0.8762 0.0
H1009 H 0.94991 0.51976 0.61119 0.0
H1010 H 0.86702 0.48945 0.85031 0.0
H1011 H 0.86872 0.52323 0.88839 0.0
H1012 H 0.88589 0.49631 0.926 0.0
H1013 H 0.90298 0.49893 0.53023 0.0
H1014 H 0.92567 0.52177 0.50933 0.0
H1015 H 0.89578 0.53427 0.55008 0.0
loop_
_geom_bond_atom_site_label_1
_geom_bond_atom_site_label_2
_geom_bond_distance
_geom_bond_site_symmetry_2
_ccdc_geom_bond_type
H0 C3 0.929 . S
H1 C6 0.929 . S
H2 C8 0.930 . S
C3 H0 0.929 . S
C3 C4 1.398 . S
C3 C5 1.396 . S
C4 C3 1.398 . S
C4 C8 1.407 . S
C5 C3 1.396 . S
C5 C6 1.394 . S
C6 H1 0.929 . S
C6 C5 1.394 . S
C6 C7 1.382 . S
C7 C6 1.382 . S
C7 C8 1.392 . S
C7 N9 1.420 . S
C8 H2 0.930 . S
C8 C4 1.407 . S
C8 C7 1.392 . S
N9 C7 1.420 . S
N9 C10 1.244 . S
C10 N9 1.244 . S
H11 C14 0.929 . S
H12 C17 0.926 . S
H13 C19 0.930 1_455 S
C14 H11 0.929 . S
C14 C15 1.398 . S
C14 C16 1.396 . S
C15 C14 1.398 . S
C15 C19 1.407 . S
C16 C14 1.396 . S
C16 C17 1.394 . S
C17 H12 0.926 . S
C17 C16 1.394 . S
C17 C18 1.390 . S
C18 C17 1.390 . S
C18 C19 1.384 . S
C18 N20 1.419 1_655 S
C19 H13 0.930 1_655 S
C19 C15 1.407 . S
C19 C18 1.384 . S
N20 C18 1.419 1_455 S
N20 C21 1.244 1_455 S
C21 N20 1.244 1_655 S
H22 C25 0.929 . S
H23 C28 0.929 . S
H24 C30 0.930 . S
C25 H22 0.929 . S
C25 C26 1.395 1_565 S
C25 C27 1.393 1_565 S
C26 C25 1.395 1_545 S
C26 C30 1.416 . S
C27 C25 1.393 1_545 S
C27 C28 1.398 . S
C28 H23 0.929 . S
C28 C27 1.398 . S
C28 C29 1.382 . S
C29 C28 1.382 . S
C29 C30 1.392 . S
C29 N31 1.420 . S
C30 H24 0.930 . S
C30 C26 1.416 . S
C30 C29 1.392 . S
N31 C29 1.420 . S
N31 C32 1.234 1_545 S
C32 N31 1.234 1_565 S
H33 C36 0.929 . S
H34 C39 0.929 . S
H35 C41 0.930 . S
C36 H33 0.929 . S
C36 C37 1.398 . S
C36 C38 1.396 . S
C37 C36 1.398 . S
C37 C41 1.407 . S
C38 C36 1.396 . S
C38 C39 1.394 . S
C39 H34 0.929 . S
C39 C38 1.394 . S
C39 C40 1.382 . S
C40 C39 1.382 . S
C40 C41 1.392 . S
C40 N42 1.420 . S
C41 H35 0.930 . S
C41 C37 1.407 . S
C41 C40 1.392 . S
N42 C40 1.420 . S
N42 C43 1.244 . S
C43 N42 1.244 . S
H44 C47 0.929 . S
H45 C50 0.929 . S
H46 C52 0.930 . S
C47 H44 0.929 . S
C47 C48 1.398 . S
C47 C49 1.396 1_556 S
C48 C47 1.398 . S
C48 C52 1.407 . S
C49 C47 1.396 1_554 S
C49 C50 1.394 . S
C50 H45 0.929 . S
C50 C49 1.394 . S
C50 C51 1.382 1_554 S
C51 C50 1.382 1_556 S
C51 C52 1.392 . S
C51 N53 1.420 . S
C52 H46 0.930 . S
C52 C48 1.407 . S
C52 C51 1.392 . S
N53 C51 1.420 . S
N53 C54 1.244 1_556 S
C54 N53 1.244 1_554 S
H55 C58 0.929 . S
H56 C61 0.929 . S
H57 C63 0.930 1_556 S
C58 H55 0.929 . S
C58 C59 1.398 . S
C58 C60 1.396 . S
C59 C58 1.398 . S
C59 C63 1.407 . S
C60 C58 1.396 . S
C60 C61 1.394 . S
C61 H56 0.929 . S
C61 C60 1.394 . S
C61 C62 1.382 . S
C62 C61 1.382 . S
C62 C63 1.392 . S
C62 N64 1.420 . S
C63 H57 0.930 1_554 S
C63 C59 1.407 . S
C63 C62 1.392 . S
N64 C62 1.420 . S
N64 C65 1.244 . S
C65 N64 1.244 . S
H66 C69 0.929 . S
H67 C72 0.929 . S
H68 C74 0.930 . S
C69 H66 0.929 . S
C69 C70 1.395 1_565 S
C69 C71 1.396 1_565 S
C70 C69 1.395 1_545 S
C70 C74 1.412 . S
C71 C69 1.396 1_545 S
C71 C72 1.396 . S
C72 H67 0.929 . S
C72 C71 1.396 . S
C72 C73 1.382 . S
C73 C72 1.382 . S
C73 C74 1.392 . S
C73 N75 1.420 . S
C74 H68 0.930 . S
C74 C70 1.412 . S
C74 C73 1.392 . S
N75 C73 1.420 . S
N75 C76 1.235 1_545 S
C76 N75 1.235 1_565 S
H77 C80 0.929 . S
H78 C83 0.929 . S
H79 C85 0.930 . S
C80 H77 0.929 . S
C80 C81 1.398 . S
C80 C82 1.396 . S
C81 C80 1.398 . S
C81 C85 1.407 . S
C82 C80 1.396 . S
C82 C83 1.394 . S
C83 H78 0.929 . S
C83 C82 1.394 . S
C83 C84 1.382 . S
C84 C83 1.382 . S
C84 C85 1.392 . S
C84 N86 1.420 . S
C85 H79 0.930 . S
C85 C81 1.407 . S
C85 C84 1.392 . S
N86 C84 1.420 . S
N86 C87 1.244 . S
C87 N86 1.244 . S
Dy88 O91 2.307 1_545 S
Dy88 O93 2.395 1_655 S
Dy88 O94 2.379 . S
Dy88 O96 2.339 . S
Dy88 O98 2.298 . S
Dy88 O102 2.275 1_655 S
Dy88 C110 2.738 . S
Dy89 O92 2.298 . S
Dy89 O95 2.275 1_455 S
Dy89 O97 2.307 1_565 S
Dy89 O99 2.395 1_455 S
Dy89 O100 2.379 . S
Dy89 O103 2.339 . S
Dy89 C119 2.738 . S
C90 O102 1.254 1_565 S
C90 O103 1.257 . S
O91 Dy88 2.307 1_565 S
O91 C101 1.266 . S
O92 Dy89 2.298 . S
O92 C101 1.236 1_455 S
O93 Dy88 2.395 1_455 S
O93 C110 1.255 1_455 S
O94 Dy88 2.379 . S
O94 C110 1.249 . S
O95 Dy89 2.275 1_655 S
O95 C111 1.254 1_565 S
O96 Dy88 2.339 . S
O96 C111 1.257 . S
O97 Dy89 2.307 1_545 S
O97 C112 1.266 . S
O98 Dy88 2.298 . S
O98 C112 1.236 1_655 S
O99 Dy89 2.395 1_655 S
O99 C119 1.255 1_655 S
O100 Dy89 2.379 . S
O100 C119 1.249 . S
C101 O91 1.266 . S
C101 O92 1.236 1_655 S
O102 Dy88 2.275 1_455 S
O102 C90 1.254 1_545 S
O103 Dy89 2.339 . S
O103 C90 1.257 . S
C104 C107 1.344 1_655 S
C104 C108 1.328 . S
C104 C110 1.516 . S
C105 C106 1.304 1_655 S
C105 C109 1.323 . S
C106 C105 1.304 1_455 S
C106 C107 1.371 . S
C106 H120 0.930 . S
C107 C104 1.344 1_455 S
C107 C106 1.371 . S
C107 H121 0.931 . S
C108 C104 1.328 . S
C108 C109 1.433 . S
C108 H122 0.931 . S
C109 C105 1.323 . S
C109 C108 1.433 . S
C109 H123 0.933 . S
C110 Dy88 2.738 . S
C110 O93 1.255 1_655 S
C110 O94 1.249 . S
C110 C104 1.516 . S
C111 O95 1.254 1_545 S
C111 O96 1.257 . S
C112 O97 1.266 . S
C112 O98 1.236 1_455 S
C113 C116 1.344 1_455 S
C113 C117 1.328 . S
C113 C119 1.516 1_554 S
C114 C115 1.304 1_455 S
C114 C118 1.323 . S
C115 C114 1.304 1_655 S
C115 C116 1.371 . S
C115 H124 0.930 . S
C116 C113 1.344 1_655 S
C116 C115 1.371 . S
C116 H125 0.931 . S
C117 C113 1.328 . S
C117 C118 1.433 . S
C117 H126 0.931 . S
C118 C114 1.323 . S
C118 C117 1.433 . S
C118 H127 0.933 . S
C119 Dy89 2.738 . S
C119 O99 1.255 1_455 S
C119 O100 1.249 . S
C119 C113 1.516 1_556 S
H120 C106 0.930 . S
H121 C107 0.931 . S
H122 C108 0.931 . S
H123 C109 0.933 . S
H124 C115 0.930 . S
H125 C116 0.931 . S
H126 C117 0.931 . S
H127 C118 0.933 . S
Dy128 O131 2.307 . S
Dy128 O133 2.395 1_565 S
Dy128 O134 2.379 . S
Dy128 O136 2.339 . S
Dy128 O138 2.298 . S
Dy128 O142 2.275 1_565 S
Dy128 C150 2.738 . S
Dy129 O132 2.298 . S
Dy129 O135 2.275 1_545 S
Dy129 O137 2.307 . S
Dy129 O139 2.395 1_545 S
Dy129 O140 2.379 . S
Dy129 O143 2.339 . S
Dy129 C159 2.738 . S
C130 O142 1.254 . S
C130 O143 1.257 . S
O131 Dy128 2.307 . S
O131 C141 1.266 . S
O132 Dy129 2.298 . S
O132 C141 1.236 1_545 S
O133 Dy128 2.395 1_545 S
O133 C150 1.255 1_545 S
O134 Dy128 2.379 . S
O134 C150 1.249 . S
O135 Dy129 2.275 1_565 S
O135 C151 1.254 . S
O136 Dy128 2.339 . S
O136 C151 1.257 . S
O137 Dy129 2.307 . S
O137 C152 1.266 . S
O138 Dy128 2.298 . S
O138 C152 1.236 1_565 S
O139 Dy129 2.395 1_565 S
O139 C159 1.255 1_565 S
O140 Dy129 2.379 . S
O140 C159 1.249 . S
C141 O131 1.266 . S
C141 O132 1.236 1_565 S
O142 Dy128 2.275 1_545 S
O142 C130 1.254 . S
O143 Dy129 2.339 . S
O143 C130 1.257 . S
C144 C147 1.344 1_565 S
C144 C148 1.328 . S
C144 C150 1.516 . S
C145 C146 1.304 1_565 S
C145 C149 1.323 . S
C146 C145 1.304 1_545 S
C146 C147 1.371 . S
C146 H160 0.930 . S
C147 C144 1.344 1_545 S
C147 C146 1.371 . S
C147 H161 0.931 . S
C148 C144 1.328 . S
C148 C149 1.433 . S
C148 H162 0.931 . S
C149 C145 1.323 . S
C149 C148 1.433 . S
C149 H163 0.933 . S
C150 Dy128 2.738 . S
C150 O133 1.255 1_565 S
C150 O134 1.249 . S
C150 C144 1.516 . S
C151 O135 1.254 . S
C151 O136 1.257 . S
C152 O137 1.266 . S
C152 O138 1.236 1_545 S
C153 C156 1.344 1_546 S
C153 C157 1.328 1_556 S
C153 C159 1.516 . S
C154 C155 1.304 1_545 S
C154 C158 1.323 . S
C155 C154 1.304 1_565 S
C155 C156 1.371 . S
C155 H164 0.930 . S
C156 C153 1.344 1_564 S
C156 C155 1.371 . S
C156 H165 0.931 1_554 S
C157 C153 1.328 1_554 S
C157 C158 1.433 . S
C157 H166 0.931 . S
C158 C154 1.323 . S
C158 C157 1.433 . S
C158 H167 0.933 . S
C159 Dy129 2.738 . S
C159 O139 1.255 1_545 S
C159 O140 1.249 . S
C159 C153 1.516 . S
H160 C146 0.930 . S
H161 C147 0.931 . S
H162 C148 0.931 . S
H163 C149 0.933 . S
H164 C155 0.930 . S
H165 C156 0.931 1_556 S
H166 C157 0.931 . S
H167 C158 0.933 . S
Dy168 O171 2.307 . S
Dy168 O173 2.395 . S
Dy168 O174 2.379 . S
Dy168 O176 2.339 . S
Dy168 O178 2.298 . S
Dy168 O182 2.275 . S
Dy168 C190 2.738 . S
Dy169 O172 2.298 . S
Dy169 O175 2.275 . S
Dy169 O177 2.307 . S
Dy169 O179 2.395 . S
Dy169 O180 2.379 . S
Dy169 O183 2.339 . S
Dy169 C199 2.738 . S
C170 O182 1.254 . S
C170 O183 1.257 . S
O171 Dy168 2.307 . S
O171 C181 1.266 . S
O172 Dy169 2.298 . S
O172 C181 1.236 . S
O173 Dy168 2.395 . S
O173 C190 1.255 . S
O174 Dy168 2.379 . S
O174 C190 1.249 . S
O175 Dy169 2.275 . S
O175 C191 1.254 . S
O176 Dy168 2.339 . S
O176 C191 1.257 . S
O177 Dy169 2.307 . S
O177 C192 1.266 . S
O178 Dy168 2.298 . S
O178 C192 1.236 . S
O179 Dy169 2.395 . S
O179 C199 1.255 . S
O180 Dy169 2.379 . S
O180 C199 1.249 . S
C181 O171 1.266 . S
C181 O172 1.236 . S
O182 Dy168 2.275 . S
O182 C170 1.254 . S
O183 Dy169 2.339 . S
O183 C170 1.257 . S
C184 C187 1.344 1_556 S
C184 C188 1.328 . S
C184 C190 1.516 . S
C185 C186 1.304 . S
C185 C189 1.323 1_554 S
C186 C185 1.304 . S
C186 C187 1.371 . S
C186 H200 0.930 . S
C187 C184 1.344 1_554 S
C187 C186 1.371 . S
C187 H201 0.931 . S
C188 C184 1.328 . S
C188 C189 1.433 . S
C188 H202 0.931 . S
C189 C185 1.323 1_556 S
C189 C188 1.433 . S
C189 H203 0.933 . S
C190 Dy168 2.738 . S
C190 O173 1.255 . S
C190 O174 1.249 . S
C190 C184 1.516 . S
C191 O175 1.254 . S
C191 O176 1.257 . S
C192 O177 1.266 . S
C192 O178 1.236 . S
C193 C196 1.344 . S
C193 C197 1.328 . S
C193 C199 1.516 . S
C194 C195 1.304 . S
C194 C198 1.323 . S
C195 C194 1.304 . S
C195 C196 1.371 . S
C195 H204 0.930 . S
C196 C193 1.344 . S
C196 C195 1.371 . S
C196 H205 0.931 . S
C197 C193 1.328 . S
C197 C198 1.433 . S
C197 H206 0.931 . S
C198 C194 1.323 . S
C198 C197 1.433 . S
C198 H207 0.933 . S
C199 Dy169 2.738 . S
C199 O179 1.255 . S
C199 O180 1.249 . S
C199 C193 1.516 . S
H200 C186 0.930 . S
H201 C187 0.931 . S
H202 C188 0.931 . S
H203 C189 0.933 . S
H204 C195 0.930 . S
H205 C196 0.931 . S
H206 C197 0.931 . S
H207 C198 0.933 . S
Dy208 O211 2.307 1_455 S
Dy208 O213 2.395 . S
Dy208 O214 2.379 . S
Dy208 O216 2.339 . S
Dy208 O218 2.298 . S
Dy208 O222 2.275 . S
Dy208 C230 2.738 . S
Dy209 O212 2.298 . S
Dy209 O215 2.275 . S
Dy209 O217 2.307 1_655 S
Dy209 O219 2.395 . S
Dy209 O220 2.379 . S
Dy209 O223 2.339 . S
Dy209 C239 2.738 . S
C210 O222 1.258 . S
C210 O223 1.252 1_455 S
O211 Dy208 2.307 1_655 S
O211 C221 1.266 . S
O212 Dy209 2.298 . S
O212 C221 1.236 . S
O213 Dy208 2.395 . S
O213 C230 1.255 . S
O214 Dy208 2.379 . S
O214 C230 1.249 . S
O215 Dy209 2.275 . S
O215 C231 1.254 1_655 S
O216 Dy208 2.339 . S
O216 C231 1.257 . S
O217 Dy209 2.307 1_455 S
O217 C232 1.266 . S
O218 Dy208 2.298 . S
O218 C232 1.236 . S
O219 Dy209 2.395 . S
O219 C239 1.255 . S
O220 Dy209 2.379 . S
O220 C239 1.249 . S
C221 O211 1.266 . S
C221 O212 1.236 . S
O222 Dy208 2.275 . S
O222 C210 1.258 . S
O223 Dy209 2.339 . S
O223 C210 1.252 1_655 S
C224 C227 1.344 . S
C224 C228 1.328 . S
C224 C230 1.516 . S
C225 C226 1.304 . S
C225 C229 1.323 . S
C226 C225 1.304 . S
C226 C227 1.371 . S
C226 H240 0.930 . S
C227 C224 1.344 . S
C227 C226 1.371 . S
C227 H241 0.931 . S
C228 C224 1.328 . S
C228 C229 1.433 . S
C228 H242 0.931 . S
C229 C225 1.323 . S
C229 C228 1.433 . S
C229 H243 0.933 . S
C230 Dy208 2.738 . S
C230 O213 1.255 . S
C230 O214 1.249 . S
C230 C224 1.516 . S
C231 O215 1.254 1_455 S
C231 O216 1.257 . S
C232 O217 1.266 . S
C232 O218 1.236 . S
C233 C236 1.344 . S
C233 C237 1.328 . S
C233 C239 1.516 1_554 S
C234 C235 1.304 . S
C234 C238 1.323 . S
C235 C234 1.304 . S
C235 C236 1.371 . S
C235 H244 0.930 . S
C236 C233 1.344 . S
C236 C235 1.371 . S
C236 H245 0.931 . S
C237 C233 1.328 . S
C237 C238 1.433 . S
C237 H246 0.931 . S
C238 C234 1.323 . S
C238 C237 1.433 . S
C238 H247 0.933 . S
C239 Dy209 2.738 . S
C239 O219 1.255 . S
C239 O220 1.249 . S
C239 C233 1.516 1_556 S
H240 C226 0.930 . S
H241 C227 0.931 . S
H242 C228 0.931 . S
H243 C229 0.933 . S
H244 C235 0.930 . S
H245 C236 0.931 . S
H246 C237 0.931 . S
H247 C238 0.933 . S
C248 C249 1.393 1_565 S
C248 C250 1.394 . S
C248 H264 0.931 . S
C249 C248 1.393 1_545 S
C249 C253 1.374 . S
C250 C248 1.394 . S
C250 C251 1.381 . S
C250 C254 1.531 . S
C251 C250 1.381 . S
C251 C252 1.396 1_565 S
C251 C259 1.505 1_565 S
C252 C251 1.396 1_545 S
C252 C253 1.392 . S
C252 C255 1.511 . S
C253 C249 1.374 . S
C253 C252 1.392 . S
C253 H265 0.929 . S
C254 C250 1.531 . S
C254 H266 0.960 . S
C254 H267 0.962 . S
C254 H268 0.960 . S
C255 C252 1.511 . S
C255 H269 0.961 . S
C255 H270 0.961 . S
C255 H271 0.961 . S
C256 C257 1.370 . S
C256 C258 1.363 . S
C256 H272 0.931 . S
C257 C256 1.370 . S
C257 C261 1.408 1_545 S
C258 C256 1.363 . S
C258 C259 1.370 . S
C258 C262 1.524 . S
C259 C251 1.505 1_545 S
C259 C258 1.370 . S
C259 C260 1.402 1_545 S
C260 C259 1.402 1_565 S
C260 C261 1.404 . S
C260 C263 1.539 . S
C261 C257 1.408 1_565 S
C261 C260 1.404 . S
C261 H273 0.930 . S
C262 C258 1.524 . S
C262 H274 0.956 1_545 S
C262 H275 0.961 . S
C262 H276 0.961 . S
C263 C260 1.539 . S
C263 H277 0.958 . S
C263 H278 0.961 1_565 S
C263 H279 0.960 1_565 S
H264 C248 0.931 . S
H265 C253 0.929 . S
H266 C254 0.960 . S
H267 C254 0.962 . S
H268 C254 0.960 . S
H269 C255 0.961 . S
H270 C255 0.961 . S
H271 C255 0.961 . S
H272 C256 0.931 . S
H273 C261 0.930 . S
H274 C262 0.956 1_565 S
H275 C262 0.961 . S
H276 C262 0.961 . S
H277 C263 0.958 . S
H278 C263 0.961 1_545 S
H279 C263 0.960 1_545 S
C280 C281 1.391 . S
C280 C282 1.394 . S
C280 H296 0.931 . S
C281 C280 1.391 . S
C281 C285 1.376 . S
C282 C280 1.394 . S
C282 C283 1.369 . S
C282 C286 1.531 . S
C283 C282 1.369 . S
C283 C284 1.410 . S
C283 C291 1.503 . S
C284 C283 1.410 . S
C284 C285 1.392 . S
C284 C287 1.511 . S
C285 C281 1.376 . S
C285 C284 1.392 . S
C285 H297 0.929 . S
C286 C282 1.531 . S
C286 H298 0.960 . S
C286 H299 0.962 . S
C286 H300 0.960 . S
C287 C284 1.511 . S
C287 H301 0.961 . S
C287 H302 0.961 . S
C287 H303 0.961 . S
C288 C289 1.370 . S
C288 C290 1.363 . S
C288 H304 0.931 . S
C289 C288 1.370 . S
C289 C293 1.408 . S
C290 C288 1.363 . S
C290 C291 1.370 . S
C290 C294 1.524 . S
C291 C283 1.503 . S
C291 C290 1.370 . S
C291 C292 1.403 . S
C292 C291 1.403 . S
C292 C293 1.404 . S
C292 C295 1.539 . S
C293 C289 1.408 . S
C293 C292 1.404 . S
C293 H305 0.930 . S
C294 C290 1.524 . S
C294 H306 0.956 . S
C294 H307 0.961 . S
C294 H308 0.961 . S
C295 C292 1.539 . S
C295 H309 0.958 . S
C295 H310 0.961 . S
C295 H311 0.960 . S
H296 C280 0.931 . S
H297 C285 0.929 . S
H298 C286 0.960 . S
H299 C286 0.962 . S
H300 C286 0.960 . S
H301 C287 0.961 . S
H302 C287 0.961 . S
H303 C287 0.961 . S
H304 C288 0.931 . S
H305 C293 0.930 . S
H306 C294 0.956 . S
H307 C294 0.961 . S
H308 C294 0.961 . S
H309 C295 0.958 . S
H310 C295 0.961 . S
H311 C295 0.960 . S
C312 C313 1.391 . S
C312 C314 1.394 . S
C312 H328 0.931 . S
C313 C312 1.391 . S
C313 C317 1.376 . S
C314 C312 1.394 . S
C314 C315 1.369 . S
C314 C318 1.531 . S
C315 C314 1.369 . S
C315 C316 1.410 . S
C315 C323 1.503 . S
C316 C315 1.410 . S
C316 C317 1.392 . S
C316 C319 1.511 . S
C317 C313 1.376 . S
C317 C316 1.392 . S
C317 H329 0.929 . S
C318 C314 1.531 . S
C318 H330 0.960 . S
C318 H331 0.962 . S
C318 H332 0.960 . S
C319 C316 1.511 . S
C319 H333 0.961 . S
C319 H334 0.961 . S
C319 H335 0.961 . S
C320 C321 1.370 . S
C320 C322 1.363 . S
C320 H336 0.931 . S
C321 C320 1.370 . S
C321 C325 1.408 . S
C322 C320 1.363 . S
C322 C323 1.370 . S
C322 C326 1.524 . S
C323 C315 1.503 . S
C323 C322 1.370 . S
C323 C324 1.403 . S
C324 C323 1.403 . S
C324 C325 1.404 . S
C324 C327 1.539 . S
C325 C321 1.408 . S
C325 C324 1.404 . S
C325 H337 0.930 . S
C326 C322 1.524 . S
C326 H338 0.956 . S
C326 H339 0.961 . S
C326 H340 0.961 . S
C327 C324 1.539 . S
C327 H341 0.958 . S
C327 H342 0.961 . S
C327 H343 0.960 . S
H328 C312 0.931 . S
H329 C317 0.929 . S
H330 C318 0.960 . S
H331 C318 0.962 . S
H332 C318 0.960 . S
H333 C319 0.961 . S
H334 C319 0.961 . S
H335 C319 0.961 . S
H336 C320 0.931 . S
H337 C325 0.930 . S
H338 C326 0.956 . S
H339 C326 0.961 . S
H340 C326 0.961 . S
H341 C327 0.958 . S
H342 C327 0.961 . S
H343 C327 0.960 . S
C344 C345 1.391 . S
C344 C346 1.394 . S
C344 H360 0.931 . S
C345 C344 1.391 . S
C345 C349 1.376 1_455 S
C346 C344 1.394 . S
C346 C347 1.369 . S
C346 C350 1.531 . S
C347 C346 1.369 . S
C347 C348 1.410 1_455 S
C347 C355 1.503 . S
C348 C347 1.410 1_655 S
C348 C349 1.392 . S
C348 C351 1.511 . S
C349 C345 1.376 1_655 S
C349 C348 1.392 . S
C349 H361 0.929 . S
C350 C346 1.531 . S
C350 H362 0.960 . S
C350 H363 0.962 . S
C350 H364 0.960 . S
C351 C348 1.511 . S
C351 H365 0.961 . S
C351 H366 0.961 . S
C351 H367 0.961 . S
C352 C353 1.371 . S
C352 C354 1.372 . S
C352 H368 0.931 1_455 S
C353 C352 1.371 . S
C353 C357 1.408 . S
C354 C352 1.372 . S
C354 C355 1.380 . S
C354 C358 1.508 1_455 S
C355 C347 1.503 . S
C355 C354 1.380 . S
C355 C356 1.403 . S
C356 C355 1.403 . S
C356 C357 1.404 . S
C356 C359 1.539 . S
C357 C353 1.408 . S
C357 C356 1.404 . S
C357 H369 0.930 . S
C358 C354 1.508 1_655 S
C358 H370 0.956 1_655 S
C358 H371 0.961 . S
C358 H372 0.961 . S
C359 C356 1.539 . S
C359 H373 0.958 . S
C359 H374 0.961 . S
C359 H375 0.960 . S
H360 C344 0.931 . S
H361 C349 0.929 . S
H362 C350 0.960 . S
H363 C350 0.962 . S
H364 C350 0.960 . S
H365 C351 0.961 . S
H366 C351 0.961 . S
H367 C351 0.961 . S
H368 C352 0.931 1_655 S
H369 C357 0.930 . S
H370 C358 0.956 1_455 S
H371 C358 0.961 . S
H372 C358 0.961 . S
H373 C359 0.958 . S
H374 C359 0.961 . S
H375 C359 0.960 . S
C376 C377 1.391 . S
C376 C378 1.394 . S
C376 H392 0.931 . S
C377 C376 1.391 . S
C377 C381 1.376 1_565 S
C378 C376 1.394 . S
C378 C379 1.369 . S
C378 C382 1.531 . S
C379 C378 1.369 . S
C379 C380 1.410 1_565 S
C379 C387 1.503 . S
C380 C379 1.410 1_545 S
C380 C381 1.392 . S
C380 C383 1.511 . S
C381 C377 1.376 1_545 S
C381 C380 1.392 . S
C381 H393 0.929 . S
C382 C378 1.531 . S
C382 H394 0.960 . S
C382 H395 0.962 . S
C382 H396 0.960 . S
C383 C380 1.511 . S
C383 H397 0.961 . S
C383 H398 0.961 . S
C383 H399 0.961 1_554 S
C384 C385 1.370 1_544 S
C384 C386 1.363 . S
C384 H400 0.931 . S
C385 C384 1.370 1_566 S
C385 C389 1.408 . S
C386 C384 1.363 . S
C386 C387 1.370 1_545 S
C386 C390 1.524 . S
C387 C379 1.503 . S
C387 C386 1.370 1_565 S
C387 C388 1.403 1_554 S
C388 C387 1.403 1_556 S
C388 C389 1.404 . S
C388 C391 1.539 . S
C389 C385 1.408 . S
C389 C388 1.404 . S
C389 H401 0.930 . S
C390 C386 1.524 . S
C390 H402 0.956 . S
C390 H403 0.961 . S
C390 H404 0.961 . S
C391 C388 1.539 . S
C391 H405 0.958 . S
C391 H406 0.961 . S
C391 H407 0.960 . S
H392 C376 0.931 . S
H393 C381 0.929 . S
H394 C382 0.960 . S
H395 C382 0.962 . S
H396 C382 0.960 . S
H397 C383 0.961 . S
H398 C383 0.961 . S
H399 C383 0.961 1_556 S
H400 C384 0.931 . S
H401 C389 0.930 . S
H402 C390 0.956 . S
H403 C390 0.961 . S
H404 C390 0.961 . S
H405 C391 0.958 . S
H406 C391 0.961 . S
H407 C391 0.960 . S
C408 C409 1.391 . S
C408 C410 1.394 . S
C408 H424 0.931 . S
C409 C408 1.391 . S
C409 C413 1.376 . S
C410 C408 1.394 . S
C410 C411 1.369 . S
C410 C414 1.531 1_554 S
C411 C410 1.369 . S
C411 C412 1.410 . S
C411 C419 1.503 1_554 S
C412 C411 1.410 . S
C412 C413 1.392 . S
C412 C415 1.511 . S
C413 C409 1.376 . S
C413 C412 1.392 . S
C413 H425 0.929 . S
C414 C410 1.531 1_556 S
C414 H426 0.960 . S
C414 H427 0.962 . S
C414 H428 0.960 . S
C415 C412 1.511 . S
C415 H429 0.961 . S
C415 H430 0.961 . S
C415 H431 0.961 . S
C416 C417 1.370 . S
C416 C418 1.363 . S
C416 H432 0.931 . S
C417 C416 1.370 . S
C417 C421 1.408 . S
C418 C416 1.363 . S
C418 C419 1.370 . S
C418 C422 1.524 . S
C419 C411 1.503 1_556 S
C419 C418 1.370 . S
C419 C420 1.403 1_556 S
C420 C419 1.403 1_554 S
C420 C421 1.404 1_554 S
C420 C423 1.539 . S
C421 C417 1.408 . S
C421 C420 1.404 1_556 S
C421 H433 0.930 . S
C422 C418 1.524 . S
C422 H434 0.956 . S
C422 H435 0.961 . S
C422 H436 0.961 . S
C423 C420 1.539 . S
C423 H437 0.958 . S
C423 H438 0.961 . S
C423 H439 0.960 . S
H424 C408 0.931 . S
H425 C413 0.929 . S
H426 C414 0.960 . S
H427 C414 0.962 . S
H428 C414 0.960 . S
H429 C415 0.961 . S
H430 C415 0.961 . S
H431 C415 0.961 . S
H432 C416 0.931 . S
H433 C421 0.930 . S
H434 C422 0.956 . S
H435 C422 0.961 . S
H436 C422 0.961 . S
H437 C423 0.958 . S
H438 C423 0.961 . S
H439 C423 0.960 . S
C440 C441 1.391 . S
C440 C442 1.394 . S
C440 H456 0.931 . S
C441 C440 1.391 . S
C441 C445 1.376 . S
C442 C440 1.394 . S
C442 C443 1.369 . S
C442 C446 1.531 . S
C443 C442 1.369 . S
C443 C444 1.410 . S
C443 C451 1.503 . S
C444 C443 1.410 . S
C444 C445 1.392 . S
C444 C447 1.511 . S
C445 C441 1.376 . S
C445 C444 1.392 . S
C445 H457 0.929 . S
C446 C442 1.531 . S
C446 H458 0.960 . S
C446 H459 0.962 . S
C446 H460 0.960 . S
C447 C444 1.511 . S
C447 H461 0.961 . S
C447 H462 0.961 . S
C447 H463 0.961 . S
C448 C449 1.370 . S
C448 C450 1.363 . S
C448 H464 0.931 . S
C449 C448 1.370 . S
C449 C453 1.408 . S
C450 C448 1.363 . S
C450 C451 1.370 . S
C450 C454 1.524 . S
C451 C443 1.503 . S
C451 C450 1.370 . S
C451 C452 1.403 . S
C452 C451 1.403 . S
C452 C453 1.404 . S
C452 C455 1.539 . S
C453 C449 1.408 . S
C453 C452 1.404 . S
C453 H465 0.930 . S
C454 C450 1.524 . S
C454 H466 0.956 . S
C454 H467 0.961 . S
C454 H468 0.961 . S
C455 C452 1.539 . S
C455 H469 0.958 . S
C455 H470 0.961 . S
C455 H471 0.960 . S
H456 C440 0.931 . S
H457 C445 0.929 . S
H458 C446 0.960 . S
H459 C446 0.962 . S
H460 C446 0.960 . S
H461 C447 0.961 . S
H462 C447 0.961 . S
H463 C447 0.961 . S
H464 C448 0.931 . S
H465 C453 0.930 . S
H466 C454 0.956 . S
H467 C454 0.961 . S
H468 C454 0.961 . S
H469 C455 0.958 . S
H470 C455 0.961 . S
H471 C455 0.960 . S
C472 C473 1.391 . S
C472 C474 1.394 . S
C472 H488 0.931 1_655 S
C473 C472 1.391 . S
C473 C477 1.376 . S
C474 C472 1.394 . S
C474 C475 1.369 . S
C474 C478 1.531 1_655 S
C475 C474 1.369 . S
C475 C476 1.410 . S
C475 C483 1.503 . S
C476 C475 1.410 . S
C476 C477 1.392 . S
C476 C479 1.511 . S
C477 C473 1.376 . S
C477 C476 1.392 . S
C477 H489 0.929 . S
C478 C474 1.531 1_455 S
C478 H490 0.960 1_455 S
C478 H491 0.962 . S
C478 H492 0.960 . S
C479 C476 1.511 . S
C479 H493 0.961 . S
C479 H494 0.961 . S
C479 H495 0.961 . S
C480 C481 1.370 1_455 S
C480 C482 1.363 1_556 S
C480 H496 0.931 . S
C481 C480 1.370 1_655 S
C481 C485 1.408 1_556 S
C482 C480 1.363 1_554 S
C482 C483 1.370 1_455 S
C482 C486 1.524 . S
C483 C475 1.503 . S
C483 C482 1.370 1_655 S
C483 C484 1.403 . S
C484 C483 1.403 . S
C484 C485 1.404 . S
C484 C487 1.539 . S
C485 C481 1.408 1_554 S
C485 C484 1.404 . S
C485 H497 0.930 1_554 S
C486 C482 1.524 . S
C486 H498 0.956 . S
C486 H499 0.961 . S
C486 H500 0.961 . S
C487 C484 1.539 . S
C487 H501 0.958 . S
C487 H502 0.961 . S
C487 H503 0.960 . S
H488 C472 0.931 1_455 S
H489 C477 0.929 . S
H490 C478 0.960 1_655 S
H491 C478 0.962 . S
H492 C478 0.960 . S
H493 C479 0.961 . S
H494 C479 0.961 . S
H495 C479 0.961 . S
H496 C480 0.931 . S
H497 C485 0.930 1_556 S
H498 C486 0.956 . S
H499 C486 0.961 . S
H500 C486 0.961 . S
H501 C487 0.958 . S
H502 C487 0.961 . S
H503 C487 0.960 . S
C504 C505 1.390 1_655 S
C504 C506 1.395 . S
C504 H520 0.930 . S
C505 C504 1.390 1_455 S
C505 C509 1.376 . S
C506 C504 1.395 . S
C506 C507 1.369 . S
C506 C510 1.531 . S
C507 C506 1.369 . S
C507 C508 1.410 1_655 S
C507 C515 1.503 . S
C508 C507 1.410 1_455 S
C508 C509 1.392 . S
C508 C511 1.511 . S
C509 C505 1.376 . S
C509 C508 1.392 . S
C509 H521 0.929 . S
C510 C506 1.531 . S
C510 H522 0.960 . S
C510 H523 0.962 . S
C510 H524 0.960 . S
C511 C508 1.511 . S
C511 H525 0.961 . S
C511 H526 0.961 . S
C511 H527 0.961 1_455 S
C512 C513 1.370 1_455 S
C512 C514 1.363 . S
C512 H528 0.931 . S
C513 C512 1.370 1_655 S
C513 C517 1.408 . S
C514 C512 1.363 . S
C514 C515 1.370 1_455 S
C514 C518 1.524 . S
C515 C507 1.503 . S
C515 C514 1.370 1_655 S
C515 C516 1.403 . S
C516 C515 1.403 . S
C516 C517 1.404 . S
C516 C519 1.539 . S
C517 C513 1.408 . S
C517 C516 1.404 . S
C517 H529 0.930 . S
C518 C514 1.524 . S
C518 H530 0.956 . S
C518 H531 0.961 . S
C518 H532 0.961 . S
C519 C516 1.539 . S
C519 H533 0.958 . S
C519 H534 0.961 . S
C519 H535 0.960 . S
H520 C504 0.930 . S
H521 C509 0.929 . S
H522 C510 0.960 . S
H523 C510 0.962 . S
H524 C510 0.960 . S
H525 C511 0.961 . S
H526 C511 0.961 . S
H527 C511 0.961 1_655 S
H528 C512 0.931 . S
H529 C517 0.930 . S
H530 C518 0.956 . S
H531 C518 0.961 . S
H532 C518 0.961 . S
H533 C519 0.958 . S
H534 C519 0.961 . S
H535 C519 0.960 . S
C536 C537 1.391 1_565 S
C536 C538 1.394 . S
C536 H552 0.931 . S
C537 C536 1.391 1_545 S
C537 C541 1.376 . S
C538 C536 1.394 . S
C538 C539 1.369 . S
C538 C542 1.531 . S
C539 C538 1.369 . S
C539 C540 1.410 1_565 S
C539 C547 1.503 . S
C540 C539 1.410 1_545 S
C540 C541 1.392 . S
C540 C543 1.511 . S
C541 C537 1.376 . S
C541 C540 1.392 . S
C541 H553 0.929 . S
C542 C538 1.531 . S
C542 H554 0.960 . S
C542 H555 0.962 . S
C542 H556 0.960 . S
C543 C540 1.511 . S
C543 H557 0.961 . S
C543 H558 0.961 . S
C543 H559 0.961 . S
C544 C545 1.370 . S
C544 C546 1.363 . S
C544 H560 0.931 . S
C545 C544 1.370 . S
C545 C549 1.408 . S
C546 C544 1.363 . S
C546 C547 1.370 . S
C546 C550 1.524 . S
C547 C539 1.503 . S
C547 C546 1.370 . S
C547 C548 1.421 . S
C548 C547 1.421 . S
C548 C549 1.410 . S
C548 C551 1.514 1_565 S
C549 C545 1.408 . S
C549 C548 1.410 . S
C549 H561 0.930 1_565 S
C550 C546 1.524 . S
C550 H562 0.956 . S
C550 H563 0.961 . S
C550 H564 0.961 . S
C551 C548 1.514 1_545 S
C551 H565 0.958 . S
C551 H566 0.961 . S
C551 H567 0.960 . S
H552 C536 0.931 . S
H553 C541 0.929 . S
H554 C542 0.960 . S
H555 C542 0.962 . S
H556 C542 0.960 . S
H557 C543 0.961 . S
H558 C543 0.961 . S
H559 C543 0.961 . S
H560 C544 0.931 . S
H561 C549 0.930 1_545 S
H562 C550 0.956 . S
H563 C550 0.961 . S
H564 C550 0.961 . S
H565 C551 0.958 . S
H566 C551 0.961 . S
H567 C551 0.960 . S
C568 C569 1.391 . S
C568 C570 1.394 . S
C568 H584 0.931 . S
C569 C568 1.391 . S
C569 C573 1.376 . S
C570 C568 1.394 . S
C570 C571 1.369 . S
C570 C574 1.531 . S
C571 C570 1.369 . S
C571 C572 1.410 . S
C571 C579 1.503 . S
C572 C571 1.410 . S
C572 C573 1.392 . S
C572 C575 1.511 . S
C573 C569 1.376 . S
C573 C572 1.392 . S
C573 H585 0.929 . S
C574 C570 1.531 . S
C574 H586 0.960 . S
C574 H587 0.962 . S
C574 H588 0.960 . S
C575 C572 1.511 . S
C575 H589 0.961 . S
C575 H590 0.961 . S
C575 H591 0.961 . S
C576 C577 1.370 . S
C576 C578 1.363 . S
C576 H592 0.931 . S
C577 C576 1.370 . S
C577 C581 1.408 . S
C578 C576 1.363 . S
C578 C579 1.370 . S
C578 C582 1.524 . S
C579 C571 1.503 . S
C579 C578 1.370 . S
C579 C580 1.403 . S
C580 C579 1.403 . S
C580 C581 1.404 . S
C580 C583 1.539 . S
C581 C577 1.408 . S
C581 C580 1.404 . S
C581 H593 0.930 . S
C582 C578 1.524 . S
C582 H594 0.956 . S
C582 H595 0.961 . S
C582 H596 0.961 . S
C583 C580 1.539 . S
C583 H597 0.958 . S
C583 H598 0.961 . S
C583 H599 0.960 . S
H584 C568 0.931 . S
H585 C573 0.929 . S
H586 C574 0.960 . S
H587 C574 0.962 . S
H588 C574 0.960 . S
H589 C575 0.961 . S
H590 C575 0.961 . S
H591 C575 0.961 . S
H592 C576 0.931 . S
H593 C581 0.930 . S
H594 C582 0.956 . S
H595 C582 0.961 . S
H596 C582 0.961 . S
H597 C583 0.958 . S
H598 C583 0.961 . S
H599 C583 0.960 . S
C600 C601 1.391 . S
C600 C602 1.394 . S
C600 H616 0.931 . S
C601 C600 1.391 . S
C601 C605 1.376 . S
C602 C600 1.394 . S
C602 C603 1.369 . S
C602 C606 1.531 . S
C603 C602 1.369 . S
C603 C604 1.410 . S
C603 C611 1.503 . S
C604 C603 1.410 . S
C604 C605 1.392 . S
C604 C607 1.511 . S
C605 C601 1.376 . S
C605 C604 1.392 . S
C605 H617 0.929 . S
C606 C602 1.531 . S
C606 H618 0.960 . S
C606 H619 0.962 . S
C606 H620 0.960 . S
C607 C604 1.511 . S
C607 H621 0.961 . S
C607 H622 0.961 . S
C607 H623 0.961 . S
C608 C609 1.370 . S
C608 C610 1.363 . S
C608 H624 0.931 . S
C609 C608 1.370 . S
C609 C613 1.408 . S
C610 C608 1.363 . S
C610 C611 1.370 . S
C610 C614 1.524 . S
C611 C603 1.503 . S
C611 C610 1.370 . S
C611 C612 1.403 . S
C612 C611 1.403 . S
C612 C613 1.404 . S
C612 C615 1.539 . S
C613 C609 1.408 . S
C613 C612 1.404 . S
C613 H625 0.930 . S
C614 C610 1.524 . S
C614 H626 0.956 . S
C614 H627 0.961 . S
C614 H628 0.961 . S
C615 C612 1.539 . S
C615 H629 0.958 . S
C615 H630 0.961 . S
C615 H631 0.960 . S
H616 C600 0.931 . S
H617 C605 0.929 . S
H618 C606 0.960 . S
H619 C606 0.962 . S
H620 C606 0.960 . S
H621 C607 0.961 . S
H622 C607 0.961 . S
H623 C607 0.961 . S
H624 C608 0.931 . S
H625 C613 0.930 . S
H626 C614 0.956 . S
H627 C614 0.961 . S
H628 C614 0.961 . S
H629 C615 0.958 . S
H630 C615 0.961 . S
H631 C615 0.960 . S
C632 C633 1.391 . S
C632 C634 1.394 . S
C632 H648 0.931 . S
C633 C632 1.391 . S
C633 C637 1.376 1_655 S
C634 C632 1.394 . S
C634 C635 1.369 1_655 S
C634 C638 1.531 . S
C635 C634 1.369 1_455 S
C635 C636 1.410 . S
C635 C643 1.503 . S
C636 C635 1.410 . S
C636 C637 1.392 . S
C636 C639 1.511 . S
C637 C633 1.376 1_455 S
C637 C636 1.392 . S
C637 H649 0.929 . S
C638 C634 1.531 . S
C638 H650 0.960 . S
C638 H651 0.962 . S
C638 H652 0.960 . S
C639 C636 1.511 . S
C639 H653 0.961 . S
C639 H654 0.961 . S
C639 H655 0.961 . S
C640 C641 1.370 . S
C640 C642 1.357 1_455 S
C640 H656 0.931 1_455 S
C641 C640 1.370 . S
C641 C645 1.408 . S
C642 C640 1.357 1_655 S
C642 C643 1.340 1_655 S
C642 C646 1.562 . S
C643 C635 1.503 . S
C643 C642 1.340 1_455 S
C643 C644 1.403 . S
C644 C643 1.403 . S
C644 C645 1.404 . S
C644 C647 1.539 . S
C645 C641 1.408 . S
C645 C644 1.404 . S
C645 H657 0.930 . S
C646 C642 1.562 . S
C646 H658 0.956 . S
C646 H659 0.961 . S
C646 H660 0.961 . S
C647 C644 1.539 . S
C647 H661 0.958 . S
C647 H662 0.961 . S
C647 H663 0.960 . S
H648 C632 0.931 . S
H649 C637 0.929 . S
H650 C638 0.960 . S
H651 C638 0.962 . S
H652 C638 0.960 . S
H653 C639 0.961 . S
H654 C639 0.961 . S
H655 C639 0.961 . S
H656 C640 0.931 1_655 S
H657 C645 0.930 . S
H658 C646 0.956 . S
H659 C646 0.961 . S
H660 C646 0.961 . S
H661 C647 0.958 . S
H662 C647 0.961 . S
H663 C647 0.960 . S
C664 C665 1.391 . S
C664 C666 1.394 . S
C664 H680 0.931 . S
C665 C664 1.391 . S
C665 C669 1.376 1_565 S
C666 C664 1.394 . S
C666 C667 1.369 1_565 S
C666 C670 1.531 . S
C667 C666 1.369 1_545 S
C667 C668 1.410 . S
C667 C675 1.503 . S
C668 C667 1.410 . S
C668 C669 1.392 . S
C668 C671 1.511 . S
C669 C665 1.376 1_545 S
C669 C668 1.392 . S
C669 H681 0.929 . S
C670 C666 1.531 . S
C670 H682 0.960 . S
C670 H683 0.962 . S
C670 H684 0.960 . S
C671 C668 1.511 . S
C671 H685 0.961 . S
C671 H686 0.961 . S
C671 H687 0.961 . S
C672 C673 1.370 . S
C672 C674 1.363 . S
C672 H688 0.931 . S
C673 C672 1.370 . S
C673 C677 1.408 . S
C674 C672 1.363 . S
C674 C675 1.370 . S
C674 C678 1.524 . S
C675 C667 1.503 . S
C675 C674 1.370 . S
C675 C676 1.403 . S
C676 C675 1.403 . S
C676 C677 1.404 . S
C676 C679 1.539 1_545 S
C677 C673 1.408 . S
C677 C676 1.404 . S
C677 H689 0.930 . S
C678 C674 1.524 . S
C678 H690 0.956 . S
C678 H691 0.961 . S
C678 H692 0.961 . S
C679 C676 1.539 1_565 S
C679 H693 0.958 . S
C679 H694 0.961 . S
C679 H695 0.960 . S
H680 C664 0.931 . S
H681 C669 0.929 . S
H682 C670 0.960 . S
H683 C670 0.962 . S
H684 C670 0.960 . S
H685 C671 0.961 . S
H686 C671 0.961 . S
H687 C671 0.961 . S
H688 C672 0.931 . S
H689 C677 0.930 . S
H690 C678 0.956 . S
H691 C678 0.961 . S
H692 C678 0.961 . S
H693 C679 0.958 . S
H694 C679 0.961 . S
H695 C679 0.960 . S
C696 C697 1.391 . S
C696 C698 1.394 . S
C696 H712 0.931 . S
C697 C696 1.391 . S
C697 C701 1.376 . S
C698 C696 1.394 . S
C698 C699 1.369 . S
C698 C702 1.531 1_554 S
C699 C698 1.369 . S
C699 C700 1.410 . S
C699 C707 1.503 1_554 S
C700 C699 1.410 . S
C700 C701 1.392 . S
C700 C703 1.511 . S
C701 C697 1.376 . S
C701 C700 1.392 . S
C701 H713 0.929 . S
C702 C698 1.531 1_556 S
C702 H714 0.960 . S
C702 H715 0.962 . S
C702 H716 0.960 . S
C703 C700 1.511 . S
C703 H717 0.961 . S
C703 H718 0.961 . S
C703 H719 0.961 . S
C704 C705 1.370 1_554 S
C704 C706 1.363 . S
C704 H720 0.931 . S
C705 C704 1.370 1_556 S
C705 C709 1.408 . S
C706 C704 1.363 . S
C706 C707 1.370 1_554 S
C706 C710 1.524 . S
C707 C699 1.503 1_556 S
C707 C706 1.370 1_556 S
C707 C708 1.403 . S
C708 C707 1.403 . S
C708 C709 1.404 . S
C708 C711 1.539 . S
C709 C705 1.408 . S
C709 C708 1.404 . S
C709 H721 0.930 . S
C710 C706 1.524 . S
C710 H722 0.956 . S
C710 H723 0.961 . S
C710 H724 0.961 . S
C711 C708 1.539 . S
C711 H725 0.958 . S
C711 H726 0.961 . S
C711 H727 0.960 . S
H712 C696 0.931 . S
H713 C701 0.929 . S
H714 C702 0.960 . S
H715 C702 0.962 . S
H716 C702 0.960 . S
H717 C703 0.961 . S
H718 C703 0.961 . S
H719 C703 0.961 . S
H720 C704 0.931 . S
H721 C709 0.930 . S
H722 C710 0.956 . S
H723 C710 0.961 . S
H724 C710 0.961 . S
H725 C711 0.958 . S
H726 C711 0.961 . S
H727 C711 0.960 . S
C728 C729 1.391 . S
C728 C730 1.394 . S
C728 H744 0.931 . S
C729 C728 1.391 . S
C729 C733 1.376 . S
C730 C728 1.394 . S
C730 C731 1.369 . S
C730 C734 1.531 . S
C731 C730 1.369 . S
C731 C732 1.410 . S
C731 C739 1.503 . S
C732 C731 1.410 . S
C732 C733 1.392 . S
C732 C735 1.511 . S
C733 C729 1.376 . S
C733 C732 1.392 . S
C733 H745 0.929 . S
C734 C730 1.531 . S
C734 H746 0.960 . S
C734 H747 0.962 . S
C734 H748 0.960 . S
C735 C732 1.511 . S
C735 H749 0.961 . S
C735 H750 0.961 . S
C735 H751 0.961 . S
C736 C737 1.370 . S
C736 C738 1.363 . S
C736 H752 0.931 . S
C737 C736 1.370 . S
C737 C741 1.408 . S
C738 C736 1.363 . S
C738 C739 1.370 . S
C738 C742 1.524 . S
C739 C731 1.503 . S
C739 C738 1.370 . S
C739 C740 1.403 . S
C740 C739 1.403 . S
C740 C741 1.404 . S
C740 C743 1.539 . S
C741 C737 1.408 . S
C741 C740 1.404 . S
C741 H753 0.930 . S
C742 C738 1.524 . S
C742 H754 0.956 . S
C742 H755 0.961 . S
C742 H756 0.961 . S
C743 C740 1.539 . S
C743 H757 0.958 . S
C743 H758 0.961 . S
C743 H759 0.960 . S
H744 C728 0.931 . S
H745 C733 0.929 . S
H746 C734 0.960 . S
H747 C734 0.962 . S
H748 C734 0.960 . S
H749 C735 0.961 . S
H750 C735 0.961 . S
H751 C735 0.961 . S
H752 C736 0.931 . S
H753 C741 0.930 . S
H754 C742 0.956 . S
H755 C742 0.961 . S
H756 C742 0.961 . S
H757 C743 0.958 . S
H758 C743 0.961 . S
H759 C743 0.960 . S
C760 C761 1.391 1_654 S
C760 C762 1.394 . S
C760 H776 0.931 . S
C761 C760 1.391 1_456 S
C761 C765 1.376 . S
C762 C760 1.394 . S
C762 C763 1.369 1_654 S
C762 C766 1.531 . S
C763 C762 1.369 1_456 S
C763 C764 1.410 . S
C763 C771 1.503 . S
C764 C763 1.410 . S
C764 C765 1.392 . S
C764 C767 1.511 . S
C765 C761 1.376 . S
C765 C764 1.392 . S
C765 H777 0.929 . S
C766 C762 1.531 . S
C766 H778 0.960 . S
C766 H779 0.962 . S
C766 H780 0.960 . S
C767 C764 1.511 . S
C767 H781 0.961 . S
C767 H782 0.961 . S
C767 H783 0.961 . S
C768 C769 1.370 . S
C768 C770 1.363 . S
C768 H784 0.931 . S
C769 C768 1.370 . S
C769 C773 1.408 1_455 S
C770 C768 1.363 . S
C770 C771 1.370 . S
C770 C774 1.524 . S
C771 C763 1.503 . S
C771 C770 1.370 . S
C771 C772 1.403 1_455 S
C772 C771 1.403 1_655 S
C772 C773 1.404 . S
C772 C775 1.539 . S
C773 C769 1.408 1_655 S
C773 C772 1.404 . S
C773 H785 0.930 . S
C774 C770 1.524 . S
C774 H786 0.956 1_556 S
C774 H787 0.961 . S
C774 H788 0.961 . S
C775 C772 1.539 . S
C775 H789 0.958 . S
C775 H790 0.961 . S
C775 H791 0.960 . S
H776 C760 0.931 . S
H777 C765 0.929 . S
H778 C766 0.960 . S
H779 C766 0.962 . S
H780 C766 0.960 . S
H781 C767 0.961 . S
H782 C767 0.961 . S
H783 C767 0.961 . S
H784 C768 0.931 . S
H785 C773 0.930 . S
H786 C774 0.956 1_554 S
H787 C774 0.961 . S
H788 C774 0.961 . S
H789 C775 0.958 . S
H790 C775 0.961 . S
H791 C775 0.960 . S
C792 C793 1.395 . S
C792 C794 1.394 . S
C792 H808 0.931 . S
C793 C792 1.395 . S
C793 C797 1.371 1_564 S
C794 C792 1.394 . S
C794 C795 1.383 1_554 S
C794 C798 1.531 . S
C795 C794 1.383 1_556 S
C795 C796 1.397 1_565 S
C795 C803 1.500 1_565 S
C796 C795 1.397 1_545 S
C796 C797 1.392 . S
C796 C799 1.511 . S
C797 C793 1.371 1_546 S
C797 C796 1.392 . S
C797 H809 0.929 . S
C798 C794 1.531 . S
C798 H810 0.960 . S
C798 H811 0.962 . S
C798 H812 0.960 . S
C799 C796 1.511 . S
C799 H813 0.961 . S
C799 H814 0.961 . S
C799 H815 0.961 . S
C800 C801 1.370 . S
C800 C802 1.363 1_556 S
C800 H816 0.931 1_556 S
C801 C800 1.370 . S
C801 C805 1.408 1_545 S
C802 C800 1.363 1_554 S
C802 C803 1.370 1_554 S
C802 C806 1.524 . S
C803 C795 1.500 1_545 S
C803 C802 1.370 1_556 S
C803 C804 1.403 1_545 S
C804 C803 1.403 1_565 S
C804 C805 1.404 . S
C804 C807 1.539 . S
C805 C801 1.408 1_565 S
C805 C804 1.404 . S
C805 H817 0.930 . S
C806 C802 1.524 . S
C806 H818 0.956 . S
C806 H819 0.961 . S
C806 H820 0.961 . S
C807 C804 1.539 . S
C807 H821 0.958 . S
C807 H822 0.961 . S
C807 H823 0.960 . S
H808 C792 0.931 . S
H809 C797 0.929 . S
H810 C798 0.960 . S
H811 C798 0.962 . S
H812 C798 0.960 . S
H813 C799 0.961 . S
H814 C799 0.961 . S
H815 C799 0.961 . S
H816 C800 0.931 1_554 S
H817 C805 0.930 . S
H818 C806 0.956 . S
H819 C806 0.961 . S
H820 C806 0.961 . S
H821 C807 0.958 . S
H822 C807 0.961 . S
H823 C807 0.960 . S
C824 C825 1.391 . S
C824 C826 1.394 . S
C824 H840 0.931 . S
C825 C824 1.391 . S
C825 C829 1.376 . S
C826 C824 1.394 . S
C826 C827 1.369 . S
C826 C830 1.531 . S
C827 C826 1.369 . S
C827 C828 1.410 . S
C827 C835 1.503 . S
C828 C827 1.410 . S
C828 C829 1.392 . S
C828 C831 1.511 . S
C829 C825 1.376 . S
C829 C828 1.392 . S
C829 H841 0.929 . S
C830 C826 1.531 . S
C830 H842 0.960 . S
C830 H843 0.962 . S
C830 H844 0.960 . S
C831 C828 1.511 . S
C831 H845 0.961 1_554 S
C831 H846 0.961 1_554 S
C831 H847 0.961 1_554 S
C832 C833 1.370 1_554 S
C832 C834 1.363 . S
C832 H848 0.931 1_554 S
C833 C832 1.370 1_556 S
C833 C837 1.408 1_556 S
C834 C832 1.363 . S
C834 C835 1.370 . S
C834 C838 1.524 . S
C835 C827 1.503 . S
C835 C834 1.370 . S
C835 C836 1.403 . S
C836 C835 1.403 . S
C836 C837 1.404 . S
C836 C839 1.539 . S
C837 C833 1.408 1_554 S
C837 C836 1.404 . S
C837 H849 0.930 . S
C838 C834 1.524 . S
C838 H850 0.956 . S
C838 H851 0.961 . S
C838 H852 0.961 . S
C839 C836 1.539 . S
C839 H853 0.958 . S
C839 H854 0.961 . S
C839 H855 0.960 . S
H840 C824 0.931 . S
H841 C829 0.929 . S
H842 C830 0.960 . S
H843 C830 0.962 . S
H844 C830 0.960 . S
H845 C831 0.961 1_556 S
H846 C831 0.961 1_556 S
H847 C831 0.961 1_556 S
H848 C832 0.931 1_556 S
H849 C837 0.930 . S
H850 C838 0.956 . S
H851 C838 0.961 . S
H852 C838 0.961 . S
H853 C839 0.958 . S
H854 C839 0.961 . S
H855 C839 0.960 . S
C856 C857 1.391 . S
C856 C858 1.394 . S
C856 H872 0.931 . S
C857 C856 1.391 . S
C857 C861 1.376 . S
C858 C856 1.394 . S
C858 C859 1.369 . S
C858 C862 1.531 . S
C859 C858 1.369 . S
C859 C860 1.410 . S
C859 C867 1.503 . S
C860 C859 1.410 . S
C860 C861 1.392 . S
C860 C863 1.511 1_556 S
C861 C857 1.376 . S
C861 C860 1.392 . S
C861 H873 0.929 . S
C862 C858 1.531 . S
C862 H874 0.960 . S
C862 H875 0.962 . S
C862 H876 0.960 . S
C863 C860 1.511 1_554 S
C863 H877 0.961 . S
C863 H878 0.959 1_554 S
C863 H879 0.961 . S
C864 C865 1.370 . S
C864 C866 1.363 . S
C864 H880 0.931 . S
C865 C864 1.370 . S
C865 C869 1.408 . S
C866 C864 1.363 . S
C866 C867 1.370 . S
C866 C870 1.524 . S
C867 C859 1.503 . S
C867 C866 1.370 . S
C867 C868 1.403 . S
C868 C867 1.403 . S
C868 C869 1.404 . S
C868 C871 1.539 . S
C869 C865 1.408 . S
C869 C868 1.404 . S
C869 H881 0.930 . S
C870 C866 1.524 . S
C870 H882 0.956 . S
C870 H883 0.961 . S
C870 H884 0.961 . S
C871 C868 1.539 . S
C871 H885 0.958 . S
C871 H886 0.961 . S
C871 H887 0.960 . S
H872 C856 0.931 . S
H873 C861 0.929 . S
H874 C862 0.960 . S
H875 C862 0.962 . S
H876 C862 0.960 . S
H877 C863 0.961 . S
H878 C863 0.959 1_556 S
H879 C863 0.961 . S
H880 C864 0.931 . S
H881 C869 0.930 . S
H882 C870 0.956 . S
H883 C870 0.961 . S
H884 C870 0.961 . S
H885 C871 0.958 . S
H886 C871 0.961 . S
H887 C871 0.960 . S
C888 C889 1.391 1_455 S
C888 C890 1.394 . S
C888 H904 0.931 . S
C889 C888 1.391 1_655 S
C889 C893 1.376 . S
C890 C888 1.394 . S
C890 C891 1.369 1_455 S
C890 C894 1.531 . S
C891 C890 1.369 1_655 S
C891 C892 1.410 . S
C891 C899 1.503 . S
C892 C891 1.410 . S
C892 C893 1.392 . S
C892 C895 1.511 . S
C893 C889 1.376 . S
C893 C892 1.392 . S
C893 H905 0.929 . S
C894 C890 1.531 . S
C894 H906 0.960 . S
C894 H907 0.962 . S
C894 H908 0.960 . S
C895 C892 1.511 . S
C895 H909 0.961 . S
C895 H910 0.961 . S
C895 H911 0.961 . S
C896 C897 1.370 1_455 S
C896 C898 1.363 . S
C896 H912 0.931 . S
C897 C896 1.370 1_655 S
C897 C901 1.408 . S
C898 C896 1.363 . S
C898 C899 1.370 1_455 S
C898 C902 1.524 . S
C899 C891 1.503 . S
C899 C898 1.370 1_655 S
C899 C900 1.403 . S
C900 C899 1.403 . S
C900 C901 1.404 . S
C900 C903 1.539 . S
C901 C897 1.408 . S
C901 C900 1.404 . S
C901 H913 0.930 . S
C902 C898 1.524 . S
C902 H914 0.956 . S
C902 H915 0.988 . S
C902 H916 0.961 . S
C903 C900 1.539 . S
C903 H917 0.958 . S
C903 H918 0.961 . S
C903 H919 0.960 . S
H904 C888 0.931 . S
H905 C893 0.929 . S
H906 C894 0.960 . S
H907 C894 0.962 . S
H908 C894 0.960 . S
H909 C895 0.961 . S
H910 C895 0.961 . S
H911 C895 0.961 . S
H912 C896 0.931 . S
H913 C901 0.930 . S
H914 C902 0.956 . S
H915 C902 0.988 . S
H916 C902 0.961 . S
H917 C903 0.958 . S
H918 C903 0.961 . S
H919 C903 0.960 . S
C920 C921 1.387 . S
C920 C922 1.394 . S
C920 H936 0.931 . S
C921 C920 1.387 . S
C921 C925 1.379 1_565 S
C922 C920 1.394 . S
C922 C923 1.369 . S
C922 C926 1.531 . S
C923 C922 1.369 . S
C923 C924 1.410 1_565 S
C923 C931 1.503 . S
C924 C923 1.410 1_545 S
C924 C925 1.392 . S
C924 C927 1.511 . S
C925 C921 1.379 1_545 S
C925 C924 1.392 . S
C925 H937 0.929 . S
C926 C922 1.531 . S
C926 H938 0.960 . S
C926 H939 0.962 . S
C926 H940 0.960 . S
C927 C924 1.511 . S
C927 H941 0.961 . S
C927 H942 0.961 . S
C927 H943 0.961 . S
C928 C929 1.370 . S
C928 C930 1.363 . S
C928 H944 0.931 . S
C929 C928 1.370 . S
C929 C933 1.408 1_565 S
C930 C928 1.363 . S
C930 C931 1.370 . S
C930 C934 1.524 . S
C931 C923 1.503 . S
C931 C930 1.370 . S
C931 C932 1.403 1_565 S
C932 C931 1.403 1_545 S
C932 C933 1.404 . S
C932 C935 1.539 . S
C933 C929 1.408 1_545 S
C933 C932 1.404 . S
C933 H945 0.930 . S
C934 C930 1.524 . S
C934 H946 0.956 . S
C934 H947 0.961 . S
C934 H948 0.961 . S
C935 C932 1.539 . S
C935 H949 0.958 . S
C935 H950 0.961 . S
C935 H951 0.960 . S
H936 C920 0.931 . S
H937 C925 0.929 . S
H938 C926 0.960 . S
H939 C926 0.962 . S
H940 C926 0.960 . S
H941 C927 0.961 . S
H942 C927 0.961 . S
H943 C927 0.961 . S
H944 C928 0.931 . S
H945 C933 0.930 . S
H946 C934 0.956 . S
H947 C934 0.961 . S
H948 C934 0.961 . S
H949 C935 0.958 . S
H950 C935 0.961 . S
H951 C935 0.960 . S
C952 C953 1.391 . S
C952 C954 1.394 . S
C952 H968 0.931 . S
C953 C952 1.391 . S
C953 C957 1.376 . S
C954 C952 1.394 . S
C954 C955 1.369 . S
C954 C958 1.531 . S
C955 C954 1.369 . S
C955 C956 1.410 . S
C955 C963 1.503 . S
C956 C955 1.410 . S
C956 C957 1.392 . S
C956 C959 1.511 . S
C957 C953 1.376 . S
C957 C956 1.392 . S
C957 H969 0.929 . S
C958 C954 1.531 . S
C958 H970 0.960 . S
C958 H971 0.962 . S
C958 H972 0.960 . S
C959 C956 1.511 . S
C959 H973 0.961 . S
C959 H974 0.961 . S
C959 H975 0.961 . S
C960 C961 1.370 . S
C960 C962 1.363 . S
C960 H976 0.931 . S
C961 C960 1.370 . S
C961 C965 1.408 . S
C962 C960 1.363 . S
C962 C963 1.370 . S
C962 C966 1.524 . S
C963 C955 1.503 . S
C963 C962 1.370 . S
C963 C964 1.403 . S
C964 C963 1.403 . S
C964 C965 1.404 . S
C964 C967 1.539 . S
C965 C961 1.408 . S
C965 C964 1.404 . S
C965 H977 0.930 . S
C966 C962 1.524 . S
C966 H978 0.956 . S
C966 H979 0.961 . S
C966 H980 0.961 . S
C967 C964 1.539 . S
C967 H981 0.958 . S
C967 H982 0.961 . S
C967 H983 0.960 . S
H968 C952 0.931 . S
H969 C957 0.929 . S
H970 C958 0.960 . S
H971 C958 0.962 . S
H972 C958 0.960 . S
H973 C959 0.961 . S
H974 C959 0.961 . S
H975 C959 0.961 . S
H976 C960 0.931 . S
H977 C965 0.930 . S
H978 C966 0.956 . S
H979 C966 0.961 . S
H980 C966 0.961 . S
H981 C967 0.958 . S
H982 C967 0.961 . S
H983 C967 0.960 . S
C984 C985 1.391 . S
C984 C986 1.394 . S
C984 H1000 0.931 . S
C985 C984 1.391 . S
C985 C989 1.376 . S
C986 C984 1.394 . S
C986 C987 1.369 . S
C986 C990 1.531 . S
C987 C986 1.369 . S
C987 C988 1.410 . S
C987 C995 1.503 . S
C988 C987 1.410 . S
C988 C989 1.392 . S
C988 C991 1.511 . S
C989 C985 1.376 . S
C989 C988 1.392 . S
C989 H1001 0.929 . S
C990 C986 1.531 . S
C990 H1002 0.960 . S
C990 H1003 0.962 . S
C990 H1004 0.960 . S
C991 C988 1.511 . S
C991 H1005 0.961 . S
C991 H1006 0.961 . S
C991 H1007 0.961 . S
C992 C993 1.370 . S
C992 C994 1.363 . S
C992 H1008 0.931 . S
C993 C992 1.370 . S
C993 C997 1.408 . S
C994 C992 1.363 . S
C994 C995 1.370 . S
C994 C998 1.524 . S
C995 C987 1.503 . S
C995 C994 1.370 . S
C995 C996 1.403 . S
C996 C995 1.403 . S
C996 C997 1.404 . S
C996 C999 1.539 . S
C997 C993 1.408 . S
C997 C996 1.404 . S
C997 H1009 0.930 . S
C998 C994 1.524 . S
C998 H1010 0.956 . S
C998 H1011 0.961 . S
C998 H1012 0.961 . S
C999 C996 1.539 . S
C999 H1013 0.958 . S
C999 H1014 0.961 . S
C999 H1015 0.960 . S
H1000 C984 0.931 . S
H1001 C989 0.929 . S
H1002 C990 0.960 . S
H1003 C990 0.962 . S
H1004 C990 0.960 . S
H1005 C991 0.961 . S
H1006 C991 0.961 . S
H1007 C991 0.961 . S
H1008 C992 0.931 . S
H1009 C997 0.930 . S
H1010 C998 0.956 . S
H1011 C998 0.961 . S
H1012 C998 0.961 . S
H1013 C999 0.958 . S
H1014 C999 0.961 . S
H1015 C999 0.960 . S
C249 C76 1.951 1_545 S
C257 C90 2.039 1_545 S
C289 C130 2.042 . S
C281 C87 1.985 . S
C321 C194 1.903 . S
C313 C54 1.749 . S
C353 C210 1.638 . S
C345 C65 1.531 . S
C385 C111 2.041 1_565 S
C377 C32 1.953 . S
C409 C43 2.024 . S
C417 C151 2.050 . S
C441 C10 1.784 . S
C449 C185 1.896 . S
C473 C21 1.502 . S
C481 C231 1.647 1_655 S
C513 C105 0.470 . S
C505 C60 0.382 . S
C545 C145 0.713 . S
C537 C71 0.687 . S
C577 C181 0.703 . S
C569 C82 0.730 . S
C601 C49 0.538 . S
C609 C225 0.615 . S
C633 C16 0.356 . S
C641 C114 0.470 . S
C673 C154 0.722 . S
C665 C27 0.682 1_565 S
C705 C192 0.689 . S
C697 C38 0.788 . S
C729 C5 0.509 . S
C737 C234 0.649 . S
C761 C59 1.828 1_556 S
C769 C112 2.010 . S
C793 C70 1.895 1_565 S
C801 C152 2.029 . S
C833 C170 1.630 . S
C825 C81 1.588 . S
C865 C232 2.421 . S
C857 C48 2.165 . S
C889 C15 1.773 . S
C897 C101 2.030 . S
C929 C141 2.029 . S
C921 C26 1.892 1_565 S
C961 C191 1.625 . S
C953 C37 1.575 . S
C985 C4 2.127 . S
C993 C221 2.413 . S
