# Generated by pormake.
# Topology anh, (6,3)-cn, num edge types: 1
# Building blocks:
#     Node 0, Type 0, BuildingBlock: CUKXOW_clean_sbu_0, # of connection points: 6
#     Node 1, Type 0, BuildingBlock: CUKXOW_clean_sbu_0, # of connection points: 6
#     Node 2, Type 0, BuildingBlock: CUKXOW_clean_sbu_0, # of connection points: 6
#     Node 3, Type 1, BuildingBlock: QEWDON_clean_linker_0, # of connection points: 3
#     Node 4, Type 1, BuildingBlock: QEWDON_clean_linker_0, # of connection points: 3
#     Node 5, Type 1, BuildingBlock: QEWDON_clean_linker_0, # of connection points: 3
#     Node 6, Type 1, BuildingBlock: QEWDON_clean_linker_0, # of connection points: 3
#     Node 7, Type 1, BuildingBlock: QEWDON_clean_linker_0, # of connection points: 3
#     Node 8, Type 1, BuildingBlock: QEWDON_clean_linker_0, # of connection points: 3
#     Edge 9, Type (0, 1), BuildingBlock: KIFKEQ_clean_linker_1, # of connection points: 2
#     Edge 10, Type (0, 1), BuildingBlock: KIFKEQ_clean_linker_1, # of connection points: 2
#     Edge 11, Type (0, 1), BuildingBlock: KIFKEQ_clean_linker_1, # of connection points: 2
#     Edge 12, Type (0, 1), BuildingBlock: KIFKEQ_clean_linker_1, # of connection points: 2
#     Edge 13, Type (0, 1), BuildingBlock: KIFKEQ_clean_linker_1, # of connection points: 2
#     Edge 14, Type (0, 1), BuildingBlock: KIFKEQ_clean_linker_1, # of connection points: 2
#     Edge 15, Type (0, 1), BuildingBlock: KIFKEQ_clean_linker_1, # of connection points: 2
#     Edge 16, Type (0, 1), BuildingBlock: KIFKEQ_clean_linker_1, # of connection points: 2
#     Edge 17, Type (0, 1), BuildingBlock: KIFKEQ_clean_linker_1, # of connection points: 2
#     Edge 18, Type (0, 1), BuildingBlock: KIFKEQ_clean_linker_1, # of connection points: 2
#     Edge 19, Type (0, 1), BuildingBlock: KIFKEQ_clean_linker_1, # of connection points: 2
#     Edge 20, Type (0, 1), BuildingBlock: KIFKEQ_clean_linker_1, # of connection points: 2
#     Edge 21, Type (0, 1), BuildingBlock: KIFKEQ_clean_linker_1, # of connection points: 2
#     Edge 22, Type (0, 1), BuildingBlock: KIFKEQ_clean_linker_1, # of connection points: 2
#     Edge 23, Type (0, 1), BuildingBlock: KIFKEQ_clean_linker_1, # of connection points: 2
#     Edge 24, Type (0, 1), BuildingBlock: KIFKEQ_clean_linker_1, # of connection points: 2
#     Edge 25, Type (0, 1), BuildingBlock: KIFKEQ_clean_linker_1, # of connection points: 2
#     Edge 26, Type (0, 1), BuildingBlock: KIFKEQ_clean_linker_1, # of connection points: 2
# Relax obj value: 0.062
# Max RMSD: 0.137
# Mean RMSD: 0.109
data_MOF--net-anh--node1-CUKXOW_clean_sbu_0--node2-QEWDON_clean_linker_0--edge1-KIFKEQ_clean_linker_1
_symmetry_space_group_name_H-M    P1
_symmetry_Int_Tables_number       1
_symmetry_cell_setting            triclinic
loop_
_symmetry_equiv_pos_as_xyz
'x, y, z'
_cell_length_a     30.765758
_cell_length_b     29.823403
_cell_length_c     48.361271
_cell_angle_alpha  98.719998
_cell_angle_beta   93.560592
_cell_angle_gamma 113.09972
loop_
_atom_site_label
_atom_site_type_symbol
_atom_site_fract_x
_atom_site_fract_y
_atom_site_fract_z
_atom_type_partial_charge
Tb0 Tb 0.11522 0.60211 0.15991 0.0
C1 C 0.07425 0.54989 0.20982 0.0
Tb2 Tb 0.05007 0.48863 0.14623 0.0
O3 O 0.05811 0.63025 0.15993 0.0
O4 O 0.04222 0.55602 0.15128 0.0
O5 O 0.10557 0.59022 0.20251 0.0
C6 C 0.9743 0.40212 0.13902 0.0
O7 O 0.04753 0.50828 0.19152 0.0
C8 C 0.14259 0.51165 0.14509 0.0
C9 C 0.08468 0.54444 0.09712 0.0
O10 O 1.01191 0.41574 0.15744 0.0
O11 O 0.9801 0.43669 0.12448 0.0
O12 O 0.10866 0.47059 0.13133 0.0
O13 O 0.12355 0.53445 0.16093 0.0
O14 O 0.04876 0.50842 0.10484 0.0
O15 O 0.11947 0.5792 0.11564 0.0
C16 C 0.19352 0.68636 0.16821 0.0
O17 O 0.16123 0.66965 0.14628 0.0
O18 O 0.18135 0.65607 0.18578 0.0
C19 C 1.02295 0.58649 0.1537 0.0
Tb20 Tb 0.55767 0.04158 0.49436 0.0
C21 C 0.60563 0.08106 0.44318 0.0
Tb22 Tb 0.66124 0.11887 0.50601 0.0
O23 O 0.53379 0.0965 0.48179 0.0
O24 O 0.59356 0.11833 0.51195 0.0
O25 O 0.57267 0.04271 0.45127 0.0
C26 C 0.73734 0.20469 0.51168 0.0
O27 O 0.64023 0.11744 0.4614 0.0
C28 C 0.64952 0.02597 0.50124 0.0
C29 C 0.6133 0.07762 0.55721 0.0
O30 O 0.73408 0.16222 0.498 0.0
O31 O 0.69824 0.19846 0.52232 0.0
O32 O 0.68599 0.06274 0.51659 0.0
O33 O 0.62516 0.04299 0.48778 0.0
O34 O 0.64861 0.1142 0.54936 0.0
O35 O 0.57679 0.04371 0.53913 0.0
C36 C 0.47705 0.96036 0.48955 0.0
O37 O 0.48053 1.00569 0.49448 0.0
O38 O 0.51891 0.96069 0.4872 0.0
C39 C 0.56924 0.13397 0.49724 0.0
Tb40 Tb 0.5201 0.53945 0.81999 0.0
C41 C 0.58127 0.54491 0.87661 0.0
Tb42 Tb 0.62526 0.54469 0.81902 0.0
O43 O 0.494 0.46312 0.82812 0.0
O44 O 0.55387 0.49164 0.80766 0.0
O45 O 0.54581 0.55378 0.86491 0.0
C46 C 0.69621 0.51741 0.81063 0.0
O47 O 0.61311 0.53541 0.86211 0.0
C48 C 0.62202 0.63348 0.82853 0.0
C49 C 0.56552 0.54108 0.7629 0.0
O50 O 0.66784 0.50418 0.82954 0.0
O51 O 0.68558 0.54715 0.79732 0.0
O52 O 0.66191 0.62786 0.82844 0.0
O53 O 0.58999 0.5907 0.82455 0.0
O54 O 0.59805 0.52826 0.77456 0.0
O55 O 0.53466 0.55245 0.77738 0.0
C56 C 0.44987 0.56941 0.81962 0.0
O57 O 0.45021 0.5321 0.80185 0.0
O58 O 0.4881 0.58838 0.83792 0.0
C59 C 0.52989 0.45566 0.81867 0.0
H60 H 0.60477 0.12218 0.22171 0.0
C61 C 0.57701 0.08514 0.21471 0.0
C62 C 0.557 0.05644 0.23482 0.0
C63 C 0.55876 0.06725 0.18584 0.0
H64 H 0.5037 0.98778 0.2417 0.0
C65 C 0.51976 1.00935 0.22602 0.0
C66 C 0.50143 0.99088 0.1975 0.0
C67 C 0.52127 0.01974 0.17749 0.0
C68 C 0.57588 0.09912 0.16453 0.0
H69 H 0.50704 1.00521 0.15539 0.0
C70 C 0.62463 0.12963 0.1654 0.0
C71 C 0.63999 0.15999 0.1452 0.0
C72 C 0.54281 0.09954 0.14319 0.0
H73 H 0.50498 0.07752 0.14227 0.0
C74 C 0.55796 0.12895 0.12298 0.0
H75 H 0.65048 0.13 0.1818 0.0
C76 C 0.60613 0.15889 0.12388 0.0
H77 H 0.61693 0.18112 0.10776 0.0
H78 H 0.53219 0.12872 0.1066 0.0
H79 H 0.56849 0.59944 0.54653 0.0
C80 C 0.57694 0.56823 0.53861 0.0
C81 C 0.58881 0.5428 0.55786 0.0
C82 C 0.57467 0.55267 0.50935 0.0
H83 H 0.60561 0.48067 0.56283 0.0
C84 C 0.5982 0.50135 0.54792 0.0
C85 C 0.59444 0.48391 0.51895 0.0
C86 C 0.58302 0.50987 0.49971 0.0
C87 C 0.56095 0.57947 0.48903 0.0
H88 H 0.58073 0.49657 0.47732 0.0
C89 C 0.57593 0.63167 0.49525 0.0
C90 C 0.56056 0.6563 0.47667 0.0
C91 C 0.53109 0.55261 0.46361 0.0
H92 H 0.51796 0.51254 0.45834 0.0
C93 C 0.51663 0.57693 0.44493 0.0
H94 H 0.59897 0.65311 0.51468 0.0
C95 C 0.53104 0.62826 0.45137 0.0
H96 H 0.51923 0.64611 0.43643 0.0
H97 H 0.49367 0.55579 0.42545 0.0
H98 H 0.14093 0.6687 0.90475 0.0
C99 C 0.10804 0.64698 0.89065 0.0
C100 C 0.07098 0.60832 0.89927 0.0
C101 C 0.10228 0.65826 0.86391 0.0
H102 H 0.99999 0.55114 0.88723 0.0
C103 C 1.02883 0.5806 0.88055 0.0
C104 C 1.02302 0.59141 0.85367 0.0
C105 C 0.06014 0.63033 0.8455 0.0
C106 C 0.14165 0.69614 0.85379 0.0
H107 H 0.05664 0.63867 0.82462 0.0
C108 C 0.17755 0.68359 0.84353 0.0
C109 C 0.21313 0.7165 0.83077 0.0
C110 C 0.14139 0.74243 0.85177 0.0
H111 H 0.11321 0.75224 0.85922 0.0
C112 C 0.17755 0.77611 0.83983 0.0
H113 H 0.17729 0.64763 0.84524 0.0
C114 C 0.21339 0.7633 0.82934 0.0
H115 H 0.24073 0.78948 0.81978 0.0
H116 H 0.17747 0.81194 0.83837 0.0
H117 H 1.03169 0.56763 0.43158 0.0
C118 C 0.06849 0.593 0.43883 0.0
C119 C 0.1011 0.60441 0.41926 0.0
C120 C 0.08299 0.61541 0.46751 0.0
H121 H 0.17242 0.64925 0.4128 0.0
C122 C 0.14823 0.63877 0.42835 0.0
C123 C 0.16322 0.66225 0.4568 0.0
C124 C 0.13049 0.64958 0.47631 0.0
C125 C 0.04812 0.60529 0.48809 0.0
H126 H 0.14187 0.6666 0.49844 0.0
C127 C 1.01545 0.5565 0.48813 0.0
C128 C 0.98193 0.54722 0.50738 0.0
C129 C 0.04701 0.64473 0.50765 0.0
H130 H 0.07132 0.68273 0.50789 0.0
C131 C 1.0139 0.63567 0.5268 0.0
H132 H 1.01598 0.52583 0.47313 0.0
C133 C 0.98148 0.58729 0.52668 0.0
H134 H 0.95634 0.58113 0.54189 0.0
H135 H 1.01329 0.66629 0.54174 0.0
H136 H 0.57572 1.00996 0.77042 0.0
C137 C 0.57922 0.04674 0.77988 0.0
C138 C 0.59329 0.08445 0.76389 0.0
C139 C 0.56865 0.0562 0.80758 0.0
H140 H 0.60512 0.16006 0.76249 0.0
C141 C 0.59612 0.13167 0.77535 0.0
C142 C 0.58391 0.14156 0.8023 0.0
C143 C 0.57094 0.10406 0.81849 0.0
C144 C 0.55353 0.01596 0.82469 0.0
H145 H 0.56286 0.11262 0.8396 0.0
C146 C 0.57157 0.97867 0.82217 0.0
C147 C 0.55767 0.94181 0.83894 0.0
C148 C 0.52049 0.01452 0.84383 0.0
H149 H 0.5043 0.04097 0.84576 0.0
C150 C 0.50706 0.97835 0.86054 0.0
H151 H 0.59716 0.97873 0.80776 0.0
C152 C 0.52566 0.94244 0.85828 0.0
H153 H 0.51417 0.91436 0.87125 0.0
H154 H 0.48173 0.97791 0.87518 0.0
H155 H 0.55867 0.55554 0.09694 0.0
C156 C 0.59071 0.5521 0.10483 0.0
C157 C 0.62002 0.54318 0.08549 0.0
C158 C 0.6033 0.5585 0.1341 0.0
H159 H 0.68582 0.53543 0.08048 0.0
C160 C 0.66249 0.54024 0.09546 0.0
C161 C 0.67688 0.54654 0.12442 0.0
C162 C 0.64689 0.55555 0.14367 0.0
C163 C 0.57319 0.57282 0.15438 0.0
H164 H 0.65758 0.56003 0.16601 0.0
C165 C 0.52264 0.55704 0.14797 0.0
C166 C 0.4962 0.57395 0.16699 0.0
C167 C 0.59607 0.60574 0.18002 0.0
H168 H 0.63434 0.62022 0.18554 0.0
C169 C 0.5705 0.62248 0.19861 0.0
H170 H 0.50383 0.53126 0.12857 0.0
C171 C 0.52148 0.60716 0.19219 0.0
H172 H 0.50353 0.62244 0.20698 0.0
H173 H 0.58904 0.64835 0.21804 0.0
H174 H 0.18639 0.46901 0.10876 0.0
H175 H 0.21714 0.57894 0.18456 0.0
H176 H 0.27054 0.48231 0.11211 0.0
H177 H 0.30129 0.59195 0.18816 0.0
H178 H 0.4312 0.55485 0.20497 0.0
H179 H 0.34819 0.54285 0.19849 0.0
H180 H 0.35432 0.54499 0.10986 0.0
H181 H 0.43889 0.55898 0.11652 0.0
C182 C 0.21119 0.49628 0.12609 0.0
C183 C 0.19476 0.52274 0.14645 0.0
C184 C 0.2596 0.50406 0.12794 0.0
C185 C 0.29308 0.53797 0.15051 0.0
C186 C 0.27667 0.56507 0.17064 0.0
C187 C 0.22836 0.55786 0.16851 0.0
C188 C 0.41538 0.55331 0.18403 0.0
C189 C 0.44284 0.55903 0.16141 0.0
C190 C 0.36739 0.54639 0.18035 0.0
C191 C 0.34433 0.54385 0.15377 0.0
C192 C 0.37077 0.54692 0.13071 0.0
C193 C 0.41935 0.55463 0.13449 0.0
H194 H 0.74815 0.2928 0.54266 0.0
H195 H 0.81424 0.22639 0.48265 0.0
H196 H 0.80898 0.37477 0.54204 0.0
H197 H 0.87456 0.30889 0.48115 0.0
H198 H 0.99913 0.46351 0.50532 0.0
H199 H 0.94216 0.37979 0.50732 0.0
H200 H 0.82938 0.43182 0.51068 0.0
H201 H 0.88646 0.51532 0.50933 0.0
C202 C 0.7759 0.29584 0.52939 0.0
C203 C 0.77659 0.25342 0.51268 0.0
C204 C 0.81052 0.34284 0.52881 0.0
C205 C 0.84637 0.34857 0.51126 0.0
C206 C 0.84771 0.30582 0.49507 0.0
C207 C 0.81315 0.25861 0.49584 0.0
C208 C 0.96206 0.45681 0.50632 0.0
C209 C 0.94724 0.49594 0.50737 0.0
C210 C 0.92942 0.40888 0.50742 0.0
C211 C 0.88123 0.3991 0.50943 0.0
C212 C 0.8664 0.4382 0.50986 0.0
C213 C 0.89904 0.48604 0.50897 0.0
H214 H 0.68578 0.72747 0.85229 0.0
H215 H 0.54434 0.64526 0.8068 0.0
H216 H 0.67492 0.80513 0.85388 0.0
H217 H 0.53337 0.72242 0.80832 0.0
H218 H 0.55141 0.8762 0.79126 0.0
H219 H 0.56961 0.80259 0.78807 0.0
H220 H 0.62005 0.84245 0.87735 0.0
H221 H 0.60119 0.91544 0.88056 0.0
C222 C 0.65235 0.72605 0.84275 0.0
C223 C 0.61553 0.68034 0.82992 0.0
C224 C 0.64611 0.77038 0.84366 0.0
C225 C 0.60333 0.76988 0.83117 0.0
C226 C 0.56685 0.72408 0.81796 0.0
C227 C 0.57283 0.67981 0.81746 0.0
C228 C 0.56716 0.86959 0.81005 0.0
C229 C 0.57495 0.90147 0.83614 0.0
C230 C 0.57718 0.82732 0.8083 0.0
C231 C 0.59604 0.81664 0.8325 0.0
C232 C 0.60578 0.84981 0.85833 0.0
C233 C 0.59492 0.89148 0.86018 0.0
H234 H 0.98472 0.65496 0.1588 0.0
H235 H 0.94317 0.49673 0.14444 0.0
H236 H 0.9013 0.6424 0.15496 0.0
H237 H 0.85898 0.48365 0.14073 0.0
H238 H 0.71526 0.48202 0.10215 0.0
H239 H 0.79683 0.48932 0.11092 0.0
H240 H 0.82975 0.61808 0.17629 0.0
H241 H 0.74806 0.61139 0.16685 0.0
C242 C 0.95769 0.61727 0.15492 0.0
C243 C 0.971 0.57685 0.15167 0.0
C244 C 0.90951 0.61002 0.15294 0.0
C245 C 0.87259 0.56194 0.14758 0.0
C246 C 0.88597 0.52132 0.14454 0.0
C247 C 0.93443 0.5287 0.14667 0.0
C248 C 0.73972 0.51173 0.11861 0.0
C249 C 0.72471 0.54637 0.13359 0.0
C250 C 0.78674 0.51573 0.1238 0.0
C251 C 0.82079 0.55468 0.14414 0.0
C252 C 0.80519 0.58804 0.16006 0.0
C253 C 0.75793 0.58385 0.15494 0.0
H254 H 0.38713 0.95581 0.48799 0.0
H255 H 0.46686 0.86447 0.48519 0.0
H256 H 0.31294 0.88208 0.48238 0.0
H257 H 0.39265 0.79041 0.48073 0.0
H258 H 0.24751 0.66782 0.43831 0.0
H259 H 0.32407 0.73911 0.4477 0.0
H260 H 0.26586 0.81917 0.50555 0.0
H261 H 0.1886 0.74938 0.49465 0.0
C262 C 0.38869 0.91987 0.48647 0.0
C263 C 0.43252 0.91567 0.48693 0.0
C264 C 0.34622 0.87758 0.48351 0.0
C265 C 0.3467 0.83017 0.48126 0.0
C266 C 0.39086 0.8262 0.48205 0.0
C267 C 0.43336 0.86857 0.48474 0.0
C268 C 0.25101 0.7007 0.45297 0.0
C269 C 0.21163 0.70291 0.46546 0.0
C270 C 0.29515 0.74142 0.45865 0.0
C271 C 0.30112 0.78519 0.47718 0.0
C272 C 0.26235 0.78648 0.49071 0.0
C273 C 0.21812 0.74601 0.48481 0.0
H274 H 0.59009 0.42721 0.78915 0.0
H275 H 0.49373 0.38509 0.85089 0.0
H276 H 0.6059 0.35357 0.78944 0.0
H277 H 0.51105 0.31213 0.85239 0.0
H278 H 0.50746 0.1564 0.82007 0.0
H279 H 0.49638 0.23372 0.82683 0.0
H280 H 0.64239 0.31306 0.81317 0.0
H281 H 0.65215 0.235 0.80498 0.0
C282 C 0.57277 0.40238 0.80311 0.0
C283 C 0.54049 0.41166 0.81987 0.0
C284 C 0.58214 0.36022 0.80351 0.0
C285 C 0.55993 0.32645 0.82101 0.0
C286 C 0.52827 0.33655 0.83825 0.0
C287 C 0.51844 0.3785 0.83753 0.0
C288 C 0.53738 0.19062 0.8191 0.0
C289 C 0.58058 0.18973 0.81191 0.0
C290 C 0.53114 0.23514 0.823 0.0
C291 C 0.56823 0.28001 0.82016 0.0
C292 C 0.61246 0.27929 0.81472 0.0
C293 C 0.61837 0.23465 0.81035 0.0
H294 H 0.59013 0.95033 0.46001 0.0
H295 H 0.68528 0.98121 0.53649 0.0
H296 H 0.56944 0.86185 0.4561 0.0
H297 H 0.66427 0.89199 0.53284 0.0
H298 H 0.64883 0.7307 0.49763 0.0
H299 H 0.67173 0.82051 0.50488 0.0
H300 H 0.52571 0.79477 0.47871 0.0
H301 H 0.5032 0.70557 0.47119 0.0
C302 C 0.60634 0.93804 0.47615 0.0
C303 C 0.63882 0.97254 0.49874 0.0
C304 C 0.59439 0.88725 0.47398 0.0
C305 C 0.61471 0.86953 0.49434 0.0
C306 C 0.64811 0.90428 0.5167 0.0
C307 C 0.66008 0.95532 0.51885 0.0
C308 C 0.62162 0.74434 0.49375 0.0
C309 C 0.57432 0.71097 0.48346 0.0
C310 C 0.6347 0.79582 0.49792 0.0
C311 C 0.60073 0.81501 0.49199 0.0
C312 C 0.55312 0.78145 0.48278 0.0
C313 C 0.54015 0.73023 0.47852 0.0
H314 H 0.74923 0.53324 0.76767 0.0
H315 H 0.73595 0.47494 0.84464 0.0
H316 H 0.82814 0.53259 0.76679 0.0
H317 H 0.8154 0.4756 0.84431 0.0
H318 H 0.96301 0.49228 0.84476 0.0
H319 H 0.8792 0.45494 0.82405 0.0
H320 H 0.89505 0.59421 0.80065 0.0
H321 H 0.97735 0.63152 0.82173 0.0
C322 C 0.76284 0.51916 0.78402 0.0
C323 C 0.73757 0.5056 0.80672 0.0
C324 C 0.80781 0.5186 0.78345 0.0
C325 C 0.82828 0.50515 0.80579 0.0
C326 C 0.80052 0.48608 0.82674 0.0
C327 C 0.75526 0.48619 0.82715 0.0
C328 C 0.94864 0.51456 0.83474 0.0
C329 C 0.97649 0.56519 0.83546 0.0
C330 C 0.90088 0.49305 0.82272 0.0
C331 C 0.88054 0.52174 0.81098 0.0
C332 C 0.90976 0.57083 0.8092 0.0
C333 C 0.95716 0.59238 0.8214 0.0
H334 H 0.26097 0.72828 0.2144 0.0
H335 H 0.2278 0.74341 0.12919 0.0
H336 H 0.33658 0.80052 0.21942 0.0
H337 H 0.30417 0.81447 0.13364 0.0
H338 H 0.41932 0.97322 0.16446 0.0
H339 H 0.345 0.89892 0.15647 0.0
H340 H 0.41316 0.8272 0.20415 0.0
H341 H 0.48698 0.90228 0.21279 0.0
C342 C 0.27004 0.74706 0.19673 0.0
C343 C 0.23862 0.7306 0.17149 0.0
C344 C 0.31354 0.78812 0.19945 0.0
C345 C 0.3267 0.81322 0.17686 0.0
C346 C 0.29501 0.79649 0.15159 0.0
C347 C 0.25132 0.75571 0.14898 0.0
C348 C 0.41853 0.94119 0.17277 0.0
C349 C 0.45875 0.94343 0.1893 0.0
C350 C 0.37596 0.89858 0.16822 0.0
C351 C 0.37288 0.85717 0.17991 0.0
C352 C 0.4139 0.8588 0.1954 0.0
C353 C 0.45629 0.90158 0.20017 0.0
H354 H 0.62007 0.21418 0.53905 0.0
H355 H 0.53916 0.17219 0.45627 0.0
H356 H 0.63077 0.30003 0.54072 0.0
H357 H 0.55151 0.25829 0.45707 0.0
H358 H 0.52833 0.40122 0.48442 0.0
H359 H 0.52591 0.31762 0.47711 0.0
H360 H 0.66624 0.37442 0.52511 0.0
H361 H 0.66702 0.45754 0.53353 0.0
C362 C 0.60538 0.22364 0.52098 0.0
C363 C 0.57864 0.18662 0.49761 0.0
C364 C 0.61169 0.27299 0.52178 0.0
C365 C 0.59191 0.28662 0.49904 0.0
C366 C 0.56643 0.24942 0.47528 0.0
C367 C 0.55952 0.20001 0.47471 0.0
C368 C 0.55904 0.39585 0.49281 0.0
C369 C 0.59782 0.43576 0.50952 0.0
C370 C 0.55778 0.34782 0.48866 0.0
C371 C 0.59566 0.33865 0.5008 0.0
C372 C 0.63579 0.37946 0.51605 0.0
C373 C 0.63662 0.4273 0.52059 0.0
H374 H 0.37984 0.54834 0.7761 0.0
H375 H 0.44439 0.64272 0.85749 0.0
H376 H 0.32665 0.59068 0.77142 0.0
H377 H 0.3905 0.68359 0.85351 0.0
H378 H 0.30955 0.77065 0.8384 0.0
H379 H 0.37025 0.73849 0.82978 0.0
H380 H 0.25978 0.59476 0.79175 0.0
H381 H 0.19985 0.62776 0.79883 0.0
C382 C 0.3822 0.57778 0.79307 0.0
C383 C 0.41564 0.59205 0.81727 0.0
C384 C 0.35199 0.60214 0.79038 0.0
C385 C 0.35458 0.64083 0.81198 0.0
C386 C 0.38828 0.65488 0.83614 0.0
C387 C 0.41865 0.63091 0.83866 0.0
C388 C 0.29855 0.73275 0.82731 0.0
C389 C 0.25008 0.70129 0.81991 0.0
C390 C 0.33316 0.7141 0.82269 0.0
C391 C 0.31972 0.66367 0.81082 0.0
C392 C 0.27148 0.6337 0.80099 0.0
C393 C 0.23704 0.65246 0.80533 0.0
H394 H 0.94972 0.33637 0.17515 0.0
H395 H 0.89563 0.37245 0.10095 0.0
H396 H 0.86951 0.27452 0.17735 0.0
H397 H 0.81621 0.3106 0.10282 0.0
H398 H 0.6761 0.25602 0.13821 0.0
H399 H 0.7585 0.30965 0.13596 0.0
H400 H 0.8023 0.19418 0.15247 0.0
H401 H 0.71906 0.13992 0.15462 0.0
C402 C 0.92091 0.33028 0.159 0.0
C403 C 0.92864 0.35933 0.13801 0.0
C404 C 0.87508 0.29494 0.16024 0.0
C405 C 0.83645 0.28837 0.14055 0.0
C406 C 0.84505 0.3156 0.11867 0.0
C407 C 0.89059 0.35074 0.11746 0.0
C408 C 0.70319 0.24187 0.14122 0.0
C409 C 0.69096 0.19347 0.14618 0.0
C410 C 0.75042 0.27258 0.13988 0.0
C411 C 0.78677 0.2558 0.14351 0.0
C412 C 0.775 0.20808 0.14957 0.0
C413 C 0.72744 0.17712 0.15086 0.0
H414 H 1.01485 0.48941 0.05276 0.0
H415 H 0.15632 0.6075 0.07322 0.0
H416 H 1.01346 0.50147 0.00397 0.0
H417 H 0.15445 0.61988 0.02469 0.0
H418 H 0.14744 0.60253 0.92835 0.0
H419 H 0.15249 0.58195 0.97523 0.0
H420 H 1.00861 0.56857 0.9815 0.0
H421 H 1.00372 0.58942 0.93506 0.0
C422 C 0.04581 0.51755 0.04683 0.0
C423 C 0.08547 0.54779 0.06696 0.0
C424 C 0.04489 0.52464 0.01893 0.0
C425 C 0.08368 0.56195 0.0106 0.0
C426 C 0.12416 0.59064 0.03042 0.0
C427 C 0.12503 0.5837 0.05831 0.0
C428 C 0.1171 0.59552 0.93988 0.0
C429 C 0.07511 0.59729 0.92796 0.0
C430 C 0.1199 0.58355 0.96662 0.0
C431 C 0.08073 0.57309 0.98187 0.0
C432 C 0.03897 0.57526 0.96999 0.0
C433 C 0.03624 0.58734 0.94341 0.0
H434 H 0.53338 0.02178 0.40154 0.0
H435 H 0.67129 0.14579 0.41598 0.0
H436 H 0.52682 0.02598 0.35187 0.0
H437 H 0.66437 0.14987 0.36569 0.0
H438 H 0.64358 0.08167 0.26581 0.0
H439 H 0.65961 0.09474 0.31755 0.0
H440 H 0.51727 0.08631 0.32379 0.0
H441 H 0.50142 0.07281 0.2725 0.0
C442 C 0.5624 0.04997 0.39416 0.0
C443 C 0.60284 0.08351 0.41281 0.0
C444 C 0.55843 0.0526 0.36567 0.0
C445 C 0.59483 0.08867 0.35499 0.0
C446 C 0.63578 0.12177 0.37341 0.0
C447 C 0.63961 0.11946 0.40216 0.0
C448 C 0.61645 0.08414 0.27845 0.0
C449 C 0.57122 0.07588 0.26542 0.0
C450 C 0.6255 0.0915 0.30794 0.0
C451 C 0.58932 0.09056 0.32458 0.0
C452 C 0.54546 0.08622 0.31145 0.0
C453 C 0.53648 0.07883 0.28218 0.0
H454 H 0.60537 0.49812 0.72472 0.0
H455 H 0.52528 0.58936 0.73257 0.0
H456 H 0.61166 0.5067 0.67602 0.0
H457 H 0.53255 0.59891 0.68335 0.0
H458 H 0.51468 0.54873 0.58393 0.0
H459 H 0.50751 0.55244 0.63431 0.0
H460 H 0.65372 0.57034 0.65059 0.0
H461 H 0.66 0.56489 0.60029 0.0
C462 C 0.58914 0.52018 0.71605 0.0
C463 C 0.56509 0.54335 0.73259 0.0
C464 C 0.59314 0.52548 0.68812 0.0
C465 C 0.57358 0.55446 0.67596 0.0
C466 C 0.54812 0.57645 0.69216 0.0
C467 C 0.54386 0.5709 0.72028 0.0
C468 C 0.5455 0.55469 0.5985 0.0
C469 C 0.58776 0.55612 0.58841 0.0
C470 C 0.54143 0.55677 0.62729 0.0
C471 C 0.57971 0.56057 0.64635 0.0
C472 C 0.62314 0.56599 0.63635 0.0
C473 C 0.62697 0.56334 0.60764 0.0
H474 H 0.56847 0.99618 0.58045 0.0
H475 H 0.65984 0.15266 0.60235 0.0
H476 H 0.5684 0.9918 0.63034 0.0
H477 H 0.65789 0.14918 0.65214 0.0
H478 H 0.67381 0.12954 0.74077 0.0
H479 H 0.68265 0.12317 0.6907 0.0
H480 H 0.53679 0.01395 0.67004 0.0
H481 H 0.5295 0.01863 0.72021 0.0
C482 C 0.58831 0.02973 0.59597 0.0
C483 C 0.61405 0.0748 0.58749 0.0
C484 C 0.58813 0.02731 0.62462 0.0
C485 C 0.61304 0.07012 0.64551 0.0
C486 C 0.63909 0.11511 0.63685 0.0
C487 C 0.63994 0.11729 0.60822 0.0
C488 C 0.64421 0.10333 0.7254 0.0
C489 C 0.6011 0.0744 0.73417 0.0
C490 C 0.64893 0.10008 0.6967 0.0
C491 C 0.61019 0.06866 0.67609 0.0
C492 C 0.56766 0.03814 0.68512 0.0
C493 C 0.56332 0.04076 0.71388 0.0
H494 H 0.64815 0.52858 0.90865 0.0
H495 H 0.52301 0.56027 0.91432 0.0
H496 H 0.65393 0.5266 0.95874 0.0
H497 H 0.5284 0.55727 0.9645 0.0
H498 H 0.58954 0.6034 0.05975 0.0
H499 H 0.57806 0.60307 0.0093 0.0
H500 H 0.61298 0.47565 0.99135 0.0
H501 H 0.62471 0.47624 0.04176 0.0
C502 C 0.62174 0.535 0.92051 0.0
C503 C 0.58509 0.54459 0.90733 0.0
C504 C 0.62487 0.53347 0.94926 0.0
C505 C 0.59143 0.54141 0.96564 0.0
C506 C 0.55497 0.55138 0.95256 0.0
C507 C 0.5518 0.55291 0.92373 0.0
C508 C 0.59395 0.57481 0.04499 0.0
C509 C 0.60827 0.53999 0.05475 0.0
C510 C 0.58744 0.57466 0.01606 0.0
C511 C 0.59508 0.53965 -0.00373 0.0
C512 C 0.6078 0.5038 0.00604 0.0
C513 C 0.61436 0.50401 0.03491 0.0
H514 H 0.08778 0.63094 0.24933 0.0
H515 H 0.04944 0.47301 0.23848 0.0
H516 H 0.08429 0.63556 0.29995 0.0
H517 H 0.04716 0.47807 0.2895 0.0
H518 H 0.13559 0.54992 0.38417 0.0
H519 H 0.11991 0.52935 0.33247 0.0
H520 H 1.01883 0.59687 0.33408 0.0
H521 H 1.0337 0.61633 0.38585 0.0
C522 C 0.07839 0.59719 0.25777 0.0
C523 C 0.06911 0.55166 0.24005 0.0
C524 C 0.07604 0.5998 0.28666 0.0
C525 C 0.06532 0.55713 0.29847 0.0
C526 C 0.05539 0.5114 0.28077 0.0
C527 C 0.05663 0.50856 0.25169 0.0
C528 C 0.10909 0.55904 0.37341 0.0
C529 C 0.08568 0.58447 0.38877 0.0
C530 C 0.10005 0.54722 0.34395 0.0
C531 C 0.06827 0.56168 0.32945 0.0
C532 C 0.04345 0.58536 0.34488 0.0
C533 C 0.05175 0.59624 0.37437 0.0
loop_
_geom_bond_atom_site_label_1
_geom_bond_atom_site_label_2
_geom_bond_distance
_geom_bond_site_symmetry_2
_ccdc_geom_bond_type
Tb0 O3 2.453 1_455 S
Tb0 O4 2.596 1_455 S
Tb0 O5 2.374 . S
Tb0 O13 2.343 . S
Tb0 O15 2.353 . S
Tb0 O17 2.427 . S
Tb0 O18 2.513 . S
C1 O5 1.251 . S
C1 O7 1.263 . S
Tb2 O4 2.343 1_455 S
Tb2 O7 2.353 . S
Tb2 O10 2.427 1_455 S
Tb2 O11 2.513 1_455 S
Tb2 O12 2.453 . S
Tb2 O13 2.596 . S
Tb2 O14 2.374 . S
O3 Tb0 2.453 1_655 S
O3 C19 1.245 . S
O4 Tb0 2.596 1_655 S
O4 Tb2 2.343 1_655 S
O4 C19 1.259 . S
O5 Tb0 2.374 . S
O5 C1 1.251 . S
C6 O10 1.275 . S
C6 O11 1.246 . S
O7 C1 1.263 . S
O7 Tb2 2.353 . S
C8 O12 1.245 . S
C8 O13 1.259 . S
C9 O14 1.250 . S
C9 O15 1.263 . S
O10 Tb2 2.427 1_655 S
O10 C6 1.275 . S
O11 Tb2 2.513 1_655 S
O11 C6 1.246 . S
O12 Tb2 2.453 . S
O12 C8 1.245 . S
O13 Tb0 2.343 . S
O13 Tb2 2.596 . S
O13 C8 1.259 . S
O14 Tb2 2.374 . S
O14 C9 1.250 . S
O15 Tb0 2.353 . S
O15 C9 1.263 . S
C16 O17 1.275 . S
C16 O18 1.246 . S
O17 Tb0 2.427 . S
O17 C16 1.275 . S
O18 Tb0 2.513 . S
O18 C16 1.246 . S
C19 O3 1.245 . S
C19 O4 1.259 . S
Tb20 O23 2.453 . S
Tb20 O24 2.596 . S
Tb20 O25 2.374 . S
Tb20 O33 2.343 . S
Tb20 O35 2.353 . S
Tb20 O37 2.427 1_545 S
Tb20 O38 2.513 1_545 S
C21 O25 1.251 . S
C21 O27 1.263 . S
Tb22 O24 2.343 . S
Tb22 O27 2.353 . S
Tb22 O30 2.427 . S
Tb22 O31 2.513 . S
Tb22 O32 2.453 . S
Tb22 O33 2.596 . S
Tb22 O34 2.374 . S
O23 Tb20 2.453 . S
O23 C39 1.245 . S
O24 Tb20 2.596 . S
O24 Tb22 2.343 . S
O24 C39 1.259 . S
O25 Tb20 2.374 . S
O25 C21 1.251 . S
C26 O30 1.275 . S
C26 O31 1.246 . S
O27 C21 1.263 . S
O27 Tb22 2.353 . S
C28 O32 1.245 1_565 S
C28 O33 1.259 1_565 S
C29 O34 1.250 . S
C29 O35 1.263 . S
O30 Tb22 2.427 . S
O30 C26 1.275 . S
O31 Tb22 2.513 . S
O31 C26 1.246 . S
O32 Tb22 2.453 . S
O32 C28 1.245 1_545 S
O33 Tb20 2.343 . S
O33 Tb22 2.596 . S
O33 C28 1.259 1_545 S
O34 Tb22 2.374 . S
O34 C29 1.250 . S
O35 Tb20 2.353 . S
O35 C29 1.263 . S
C36 O37 1.275 . S
C36 O38 1.246 . S
O37 Tb20 2.427 1_565 S
O37 C36 1.275 . S
O38 Tb20 2.513 1_565 S
O38 C36 1.246 . S
C39 O23 1.245 . S
C39 O24 1.259 . S
Tb40 O43 2.453 . S
Tb40 O44 2.596 . S
Tb40 O45 2.374 . S
Tb40 O53 2.343 . S
Tb40 O55 2.353 . S
Tb40 O57 2.427 . S
Tb40 O58 2.513 . S
C41 O45 1.251 . S
C41 O47 1.263 . S
Tb42 O44 2.343 . S
Tb42 O47 2.353 . S
Tb42 O50 2.427 . S
Tb42 O51 2.513 . S
Tb42 O52 2.453 . S
Tb42 O53 2.596 . S
Tb42 O54 2.374 . S
O43 Tb40 2.453 . S
O43 C59 1.245 . S
O44 Tb40 2.596 . S
O44 Tb42 2.343 . S
O44 C59 1.259 . S
O45 Tb40 2.374 . S
O45 C41 1.251 . S
C46 O50 1.275 . S
C46 O51 1.246 . S
O47 C41 1.263 . S
O47 Tb42 2.353 . S
C48 O52 1.245 . S
C48 O53 1.259 . S
C49 O54 1.250 . S
C49 O55 1.263 . S
O50 Tb42 2.427 . S
O50 C46 1.275 . S
O51 Tb42 2.513 . S
O51 C46 1.246 . S
O52 Tb42 2.453 . S
O52 C48 1.245 . S
O53 Tb40 2.343 . S
O53 Tb42 2.596 . S
O53 C48 1.259 . S
O54 Tb42 2.374 . S
O54 C49 1.250 . S
O55 Tb40 2.353 . S
O55 C49 1.263 . S
C56 O57 1.275 . S
C56 O58 1.246 . S
O57 Tb40 2.427 . S
O57 C56 1.275 . S
O58 Tb40 2.513 . S
O58 C56 1.246 . S
C59 O43 1.245 . S
C59 O44 1.259 . S
H60 C61 0.949 . S
C61 H60 0.949 . S
C61 C62 1.395 . S
C61 C63 1.391 . S
C62 C61 1.395 . S
C62 C65 1.390 . S
C63 C61 1.391 . S
C63 C67 1.387 . S
C63 C68 1.491 . S
H64 C65 0.950 . S
C65 C62 1.390 . S
C65 H64 0.950 . S
C65 C66 1.378 . S
C66 C65 1.378 . S
C66 C67 1.409 . S
C67 C63 1.387 . S
C67 C66 1.409 . S
C67 H69 0.951 . S
C68 C63 1.491 . S
C68 C70 1.382 . S
C68 C72 1.404 . S
H69 C67 0.951 . S
C70 C68 1.382 . S
C70 C71 1.390 . S
C70 H75 0.949 . S
C71 C70 1.390 . S
C71 C76 1.399 . S
C72 C68 1.404 . S
C72 H73 0.950 . S
C72 C74 1.375 . S
H73 C72 0.950 . S
C74 C72 1.375 . S
C74 C76 1.382 . S
C74 H78 0.950 . S
H75 C70 0.949 . S
C76 C71 1.399 . S
C76 C74 1.382 . S
C76 H77 0.952 . S
H77 C76 0.952 . S
H78 C74 0.950 . S
H79 C80 0.949 . S
C80 H79 0.949 . S
C80 C81 1.395 . S
C80 C82 1.391 . S
C81 C80 1.395 . S
C81 C84 1.390 . S
C82 C80 1.391 . S
C82 C86 1.387 . S
C82 C87 1.491 . S
H83 C84 0.950 . S
C84 C81 1.390 . S
C84 H83 0.950 . S
C84 C85 1.378 . S
C85 C84 1.378 . S
C85 C86 1.409 . S
C86 C82 1.387 . S
C86 C85 1.409 . S
C86 H88 0.951 . S
C87 C82 1.491 . S
C87 C89 1.382 . S
C87 C91 1.404 . S
H88 C86 0.951 . S
C89 C87 1.382 . S
C89 C90 1.390 . S
C89 H94 0.949 . S
C90 C89 1.390 . S
C90 C95 1.399 . S
C91 C87 1.404 . S
C91 H92 0.950 . S
C91 C93 1.375 . S
H92 C91 0.950 . S
C93 C91 1.375 . S
C93 C95 1.382 . S
C93 H97 0.950 . S
H94 C89 0.949 . S
C95 C90 1.399 . S
C95 C93 1.382 . S
C95 H96 0.952 . S
H96 C95 0.952 . S
H97 C93 0.950 . S
H98 C99 0.949 . S
C99 H98 0.949 . S
C99 C100 1.395 . S
C99 C101 1.391 . S
C100 C99 1.395 . S
C100 C103 1.390 . S
C101 C99 1.391 . S
C101 C105 1.387 . S
C101 C106 1.491 . S
H102 C103 0.950 . S
C103 C100 1.390 . S
C103 H102 0.950 . S
C103 C104 1.378 . S
C104 C103 1.378 . S
C104 C105 1.409 . S
C105 C101 1.387 . S
C105 C104 1.409 . S
C105 H107 0.951 . S
C106 C101 1.491 . S
C106 C108 1.382 . S
C106 C110 1.404 . S
H107 C105 0.951 . S
C108 C106 1.382 . S
C108 C109 1.390 . S
C108 H113 0.949 . S
C109 C108 1.390 . S
C109 C114 1.399 . S
C110 C106 1.404 . S
C110 H111 0.950 . S
C110 C112 1.375 . S
H111 C110 0.950 . S
C112 C110 1.375 . S
C112 C114 1.382 . S
C112 H116 0.950 . S
H113 C108 0.949 . S
C114 C109 1.399 . S
C114 C112 1.382 . S
C114 H115 0.952 . S
H115 C114 0.952 . S
H116 C112 0.950 . S
H117 C118 0.949 . S
C118 H117 0.949 . S
C118 C119 1.395 1_655 S
C118 C120 1.391 . S
C119 C118 1.395 1_455 S
C119 C122 1.390 . S
C120 C118 1.391 . S
C120 C124 1.388 1_655 S
C120 C125 1.491 . S
H121 C122 0.950 . S
C122 C119 1.390 . S
C122 H121 0.950 . S
C122 C123 1.378 . S
C123 C122 1.378 . S
C123 C124 1.409 . S
C124 C120 1.388 1_455 S
C124 C123 1.409 . S
C124 H126 0.951 . S
C125 C120 1.491 . S
C125 C127 1.382 . S
C125 C129 1.404 . S
H126 C124 0.951 . S
C127 C125 1.382 . S
C127 C128 1.390 . S
C127 H132 0.949 . S
C128 C127 1.390 . S
C128 C133 1.399 . S
C129 C125 1.404 . S
C129 H130 0.950 . S
C129 C131 1.375 . S
H130 C129 0.950 . S
C131 C129 1.375 . S
C131 C133 1.382 . S
C131 H135 0.950 . S
H132 C127 0.949 . S
C133 C128 1.399 . S
C133 C131 1.382 . S
C133 H134 0.952 . S
H134 C133 0.952 . S
H135 C131 0.950 . S
H136 C137 0.949 1_565 S
C137 H136 0.949 1_545 S
C137 C138 1.395 . S
C137 C139 1.391 . S
C138 C137 1.395 . S
C138 C141 1.390 . S
C139 C137 1.391 . S
C139 C143 1.387 . S
C139 C144 1.487 1_545 S
H140 C141 0.950 . S
C141 C138 1.390 . S
C141 H140 0.950 . S
C141 C142 1.378 . S
C142 C141 1.378 . S
C142 C143 1.409 . S
C143 C139 1.387 . S
C143 C142 1.409 . S
C143 H145 0.951 . S
C144 C139 1.487 1_565 S
C144 C146 1.386 . S
C144 C148 1.404 . S
H145 C143 0.951 . S
C146 C144 1.386 . S
C146 C147 1.390 . S
C146 H151 0.949 . S
C147 C146 1.390 . S
C147 C152 1.399 . S
C148 C144 1.404 . S
C148 H149 0.950 1_565 S
C148 C150 1.375 . S
H149 C148 0.950 1_545 S
C150 C148 1.375 . S
C150 C152 1.382 . S
C150 H154 0.950 . S
H151 C146 0.949 . S
C152 C147 1.399 . S
C152 C150 1.382 . S
C152 H153 0.952 . S
H153 C152 0.952 . S
H154 C150 0.950 . S
H155 C156 0.949 . S
C156 H155 0.949 . S
C156 C157 1.395 . S
C156 C158 1.391 . S
C157 C156 1.395 . S
C157 C160 1.390 . S
C158 C156 1.391 . S
C158 C162 1.387 . S
C158 C163 1.491 . S
H159 C160 0.950 . S
C160 C157 1.390 . S
C160 H159 0.950 . S
C160 C161 1.378 . S
C161 C160 1.378 . S
C161 C162 1.409 . S
C162 C158 1.387 . S
C162 C161 1.409 . S
C162 H164 0.951 . S
C163 C158 1.491 . S
C163 C165 1.382 . S
C163 C167 1.404 . S
H164 C162 0.951 . S
C165 C163 1.382 . S
C165 C166 1.390 . S
C165 H170 0.949 . S
C166 C165 1.390 . S
C166 C171 1.399 . S
C167 C163 1.404 . S
C167 H168 0.950 . S
C167 C169 1.375 . S
H168 C167 0.950 . S
C169 C167 1.375 . S
C169 C171 1.382 . S
C169 H173 0.950 . S
H170 C165 0.949 . S
C171 C166 1.399 . S
C171 C169 1.382 . S
C171 H172 0.952 . S
H172 C171 0.952 . S
H173 C169 0.950 . S
H174 C182 0.950 . S
H175 C187 0.950 . S
H176 C184 0.950 . S
H177 C186 0.950 . S
H178 C188 0.950 . S
H179 C190 0.950 . S
H180 C192 0.950 . S
H181 C193 0.950 . S
C182 H174 0.950 . S
C182 C183 1.386 . S
C182 C184 1.391 . S
C183 C182 1.386 . S
C183 C187 1.393 . S
C184 H176 0.950 . S
C184 C182 1.391 . S
C184 C185 1.400 . S
C185 C184 1.400 . S
C185 C186 1.398 . S
C185 C191 1.491 . S
C186 H177 0.950 . S
C186 C185 1.398 . S
C186 C187 1.391 . S
C187 H175 0.950 . S
C187 C183 1.393 . S
C187 C186 1.391 . S
C188 H178 0.950 . S
C188 C189 1.386 . S
C188 C190 1.391 . S
C189 C188 1.386 . S
C189 C193 1.393 . S
C190 H179 0.950 . S
C190 C188 1.391 . S
C190 C191 1.400 . S
C191 C185 1.491 . S
C191 C190 1.400 . S
C191 C192 1.398 . S
C192 H180 0.950 . S
C192 C191 1.398 . S
C192 C193 1.391 . S
C193 H181 0.950 . S
C193 C189 1.393 . S
C193 C192 1.391 . S
H194 C202 0.950 . S
H195 C207 0.950 . S
H196 C204 0.950 . S
H197 C206 0.950 . S
H198 C208 0.950 . S
H199 C210 0.950 . S
H200 C212 0.950 . S
H201 C213 0.950 . S
C202 H194 0.950 . S
C202 C203 1.386 . S
C202 C204 1.391 . S
C203 C202 1.386 . S
C203 C207 1.393 . S
C204 H196 0.950 . S
C204 C202 1.391 . S
C204 C205 1.400 . S
C205 C204 1.400 . S
C205 C206 1.398 . S
C205 C211 1.491 . S
C206 H197 0.950 . S
C206 C205 1.398 . S
C206 C207 1.391 . S
C207 H195 0.950 . S
C207 C203 1.393 . S
C207 C206 1.391 . S
C208 H198 0.950 . S
C208 C209 1.386 . S
C208 C210 1.391 . S
C209 C208 1.386 . S
C209 C213 1.393 . S
C210 H199 0.950 . S
C210 C208 1.391 . S
C210 C211 1.400 . S
C211 C205 1.491 . S
C211 C210 1.400 . S
C211 C212 1.398 . S
C212 H200 0.950 . S
C212 C211 1.398 . S
C212 C213 1.391 . S
C213 H201 0.950 . S
C213 C209 1.393 . S
C213 C212 1.391 . S
H214 C222 0.950 . S
H215 C227 0.950 . S
H216 C224 0.950 . S
H217 C226 0.950 . S
H218 C228 0.950 . S
H219 C230 0.950 . S
H220 C232 0.950 . S
H221 C233 0.950 . S
C222 H214 0.950 . S
C222 C223 1.386 . S
C222 C224 1.391 . S
C223 C222 1.386 . S
C223 C227 1.393 . S
C224 H216 0.950 . S
C224 C222 1.391 . S
C224 C225 1.400 . S
C225 C224 1.400 . S
C225 C226 1.398 . S
C225 C231 1.491 . S
C226 H217 0.950 . S
C226 C225 1.398 . S
C226 C227 1.391 . S
C227 H215 0.950 . S
C227 C223 1.393 . S
C227 C226 1.391 . S
C228 H218 0.950 . S
C228 C229 1.386 . S
C228 C230 1.391 . S
C229 C228 1.386 . S
C229 C233 1.393 . S
C230 H219 0.950 . S
C230 C228 1.391 . S
C230 C231 1.400 . S
C231 C225 1.491 . S
C231 C230 1.400 . S
C231 C232 1.398 . S
C232 H220 0.950 . S
C232 C231 1.398 . S
C232 C233 1.391 . S
C233 H221 0.950 . S
C233 C229 1.393 . S
C233 C232 1.391 . S
H234 C242 0.950 . S
H235 C247 0.950 . S
H236 C244 0.950 . S
H237 C246 0.950 . S
H238 C248 0.950 . S
H239 C250 0.950 . S
H240 C252 0.950 . S
H241 C253 0.950 . S
C242 H234 0.950 . S
C242 C243 1.386 . S
C242 C244 1.391 . S
C243 C242 1.386 . S
C243 C247 1.393 . S
C244 H236 0.950 . S
C244 C242 1.391 . S
C244 C245 1.400 . S
C245 C244 1.400 . S
C245 C246 1.398 . S
C245 C251 1.491 . S
C246 H237 0.950 . S
C246 C245 1.398 . S
C246 C247 1.391 . S
C247 H235 0.950 . S
C247 C243 1.393 . S
C247 C246 1.391 . S
C248 H238 0.950 . S
C248 C249 1.386 . S
C248 C250 1.391 . S
C249 C248 1.386 . S
C249 C253 1.393 . S
C250 H239 0.950 . S
C250 C248 1.391 . S
C250 C251 1.400 . S
C251 C245 1.491 . S
C251 C250 1.400 . S
C251 C252 1.398 . S
C252 H240 0.950 . S
C252 C251 1.398 . S
C252 C253 1.391 . S
C253 H241 0.950 . S
C253 C249 1.393 . S
C253 C252 1.391 . S
H254 C262 0.950 . S
H255 C267 0.950 . S
H256 C264 0.950 . S
H257 C266 0.950 . S
H258 C268 0.950 . S
H259 C270 0.950 . S
H260 C272 0.950 . S
H261 C273 0.950 . S
C262 H254 0.950 . S
C262 C263 1.386 . S
C262 C264 1.391 . S
C263 C262 1.386 . S
C263 C267 1.393 . S
C264 H256 0.950 . S
C264 C262 1.391 . S
C264 C265 1.400 . S
C265 C264 1.400 . S
C265 C266 1.398 . S
C265 C271 1.491 . S
C266 H257 0.950 . S
C266 C265 1.398 . S
C266 C267 1.391 . S
C267 H255 0.950 . S
C267 C263 1.393 . S
C267 C266 1.391 . S
C268 H258 0.950 . S
C268 C269 1.386 . S
C268 C270 1.391 . S
C269 C268 1.386 . S
C269 C273 1.393 . S
C270 H259 0.950 . S
C270 C268 1.391 . S
C270 C271 1.400 . S
C271 C265 1.491 . S
C271 C270 1.400 . S
C271 C272 1.398 . S
C272 H260 0.950 . S
C272 C271 1.398 . S
C272 C273 1.391 . S
C273 H261 0.950 . S
C273 C269 1.393 . S
C273 C272 1.391 . S
H274 C282 0.950 . S
H275 C287 0.950 . S
H276 C284 0.950 . S
H277 C286 0.950 . S
H278 C288 0.950 . S
H279 C290 0.950 . S
H280 C292 0.950 . S
H281 C293 0.950 . S
C282 H274 0.950 . S
C282 C283 1.386 . S
C282 C284 1.391 . S
C283 C282 1.386 . S
C283 C287 1.393 . S
C284 H276 0.950 . S
C284 C282 1.391 . S
C284 C285 1.400 . S
C285 C284 1.400 . S
C285 C286 1.398 . S
C285 C291 1.491 . S
C286 H277 0.950 . S
C286 C285 1.398 . S
C286 C287 1.391 . S
C287 H275 0.950 . S
C287 C283 1.393 . S
C287 C286 1.391 . S
C288 H278 0.950 . S
C288 C289 1.386 . S
C288 C290 1.391 . S
C289 C288 1.386 . S
C289 C293 1.393 . S
C290 H279 0.950 . S
C290 C288 1.391 . S
C290 C291 1.400 . S
C291 C285 1.491 . S
C291 C290 1.400 . S
C291 C292 1.398 . S
C292 H280 0.950 . S
C292 C291 1.398 . S
C292 C293 1.391 . S
C293 H281 0.950 . S
C293 C289 1.393 . S
C293 C292 1.391 . S
H294 C302 0.950 . S
H295 C307 0.950 . S
H296 C304 0.950 . S
H297 C306 0.950 . S
H298 C308 0.950 . S
H299 C310 0.950 . S
H300 C312 0.950 . S
H301 C313 0.950 . S
C302 H294 0.950 . S
C302 C303 1.386 . S
C302 C304 1.391 . S
C303 C302 1.386 . S
C303 C307 1.393 . S
C304 H296 0.950 . S
C304 C302 1.391 . S
C304 C305 1.400 . S
C305 C304 1.400 . S
C305 C306 1.398 . S
C305 C311 1.491 . S
C306 H297 0.950 . S
C306 C305 1.398 . S
C306 C307 1.391 . S
C307 H295 0.950 . S
C307 C303 1.393 . S
C307 C306 1.391 . S
C308 H298 0.950 . S
C308 C309 1.386 . S
C308 C310 1.391 . S
C309 C308 1.386 . S
C309 C313 1.393 . S
C310 H299 0.950 . S
C310 C308 1.391 . S
C310 C311 1.400 . S
C311 C305 1.491 . S
C311 C310 1.400 . S
C311 C312 1.398 . S
C312 H300 0.950 . S
C312 C311 1.398 . S
C312 C313 1.391 . S
C313 H301 0.950 . S
C313 C309 1.393 . S
C313 C312 1.391 . S
H314 C322 0.950 . S
H315 C327 0.950 . S
H316 C324 0.950 . S
H317 C326 0.950 . S
H318 C328 0.950 . S
H319 C330 0.950 . S
H320 C332 0.950 . S
H321 C333 0.950 . S
C322 H314 0.950 . S
C322 C323 1.386 . S
C322 C324 1.391 . S
C323 C322 1.386 . S
C323 C327 1.393 . S
C324 H316 0.950 . S
C324 C322 1.391 . S
C324 C325 1.400 . S
C325 C324 1.400 . S
C325 C326 1.398 . S
C325 C331 1.491 . S
C326 H317 0.950 . S
C326 C325 1.398 . S
C326 C327 1.391 . S
C327 H315 0.950 . S
C327 C323 1.393 . S
C327 C326 1.391 . S
C328 H318 0.950 . S
C328 C329 1.386 . S
C328 C330 1.391 . S
C329 C328 1.386 . S
C329 C333 1.393 . S
C330 H319 0.950 . S
C330 C328 1.391 . S
C330 C331 1.400 . S
C331 C325 1.491 . S
C331 C330 1.400 . S
C331 C332 1.398 . S
C332 H320 0.950 . S
C332 C331 1.398 . S
C332 C333 1.391 . S
C333 H321 0.950 . S
C333 C329 1.393 . S
C333 C332 1.391 . S
H334 C342 0.950 . S
H335 C347 0.950 . S
H336 C344 0.950 . S
H337 C346 0.950 . S
H338 C348 0.950 . S
H339 C350 0.950 . S
H340 C352 0.950 . S
H341 C353 0.950 . S
C342 H334 0.950 . S
C342 C343 1.386 . S
C342 C344 1.391 . S
C343 C342 1.386 . S
C343 C347 1.393 . S
C344 H336 0.950 . S
C344 C342 1.391 . S
C344 C345 1.400 . S
C345 C344 1.400 . S
C345 C346 1.398 . S
C345 C351 1.491 . S
C346 H337 0.950 . S
C346 C345 1.398 . S
C346 C347 1.391 . S
C347 H335 0.950 . S
C347 C343 1.393 . S
C347 C346 1.391 . S
C348 H338 0.950 . S
C348 C349 1.386 . S
C348 C350 1.391 . S
C349 C348 1.386 . S
C349 C353 1.393 . S
C350 H339 0.950 . S
C350 C348 1.391 . S
C350 C351 1.400 . S
C351 C345 1.491 . S
C351 C350 1.400 . S
C351 C352 1.398 . S
C352 H340 0.950 . S
C352 C351 1.398 . S
C352 C353 1.391 . S
C353 H341 0.950 . S
C353 C349 1.393 . S
C353 C352 1.391 . S
H354 C362 0.950 . S
H355 C367 0.950 . S
H356 C364 0.950 . S
H357 C366 0.950 . S
H358 C368 0.950 . S
H359 C370 0.950 . S
H360 C372 0.950 . S
H361 C373 0.950 . S
C362 H354 0.950 . S
C362 C363 1.386 . S
C362 C364 1.391 . S
C363 C362 1.386 . S
C363 C367 1.393 . S
C364 H356 0.950 . S
C364 C362 1.391 . S
C364 C365 1.400 . S
C365 C364 1.400 . S
C365 C366 1.398 . S
C365 C371 1.491 . S
C366 H357 0.950 . S
C366 C365 1.398 . S
C366 C367 1.391 . S
C367 H355 0.950 . S
C367 C363 1.393 . S
C367 C366 1.391 . S
C368 H358 0.950 . S
C368 C369 1.386 . S
C368 C370 1.391 . S
C369 C368 1.386 . S
C369 C373 1.393 . S
C370 H359 0.950 . S
C370 C368 1.391 . S
C370 C371 1.400 . S
C371 C365 1.491 . S
C371 C370 1.400 . S
C371 C372 1.398 . S
C372 H360 0.950 . S
C372 C371 1.398 . S
C372 C373 1.391 . S
C373 H361 0.950 . S
C373 C369 1.393 . S
C373 C372 1.391 . S
H374 C382 0.950 . S
H375 C387 0.950 . S
H376 C384 0.950 . S
H377 C386 0.950 . S
H378 C388 0.950 . S
H379 C390 0.950 . S
H380 C392 0.950 . S
H381 C393 0.950 . S
C382 H374 0.950 . S
C382 C383 1.386 . S
C382 C384 1.391 . S
C383 C382 1.386 . S
C383 C387 1.393 . S
C384 H376 0.950 . S
C384 C382 1.391 . S
C384 C385 1.400 . S
C385 C384 1.400 . S
C385 C386 1.398 . S
C385 C391 1.491 . S
C386 H377 0.950 . S
C386 C385 1.398 . S
C386 C387 1.391 . S
C387 H375 0.950 . S
C387 C383 1.393 . S
C387 C386 1.391 . S
C388 H378 0.950 . S
C388 C389 1.386 . S
C388 C390 1.391 . S
C389 C388 1.386 . S
C389 C393 1.393 . S
C390 H379 0.950 . S
C390 C388 1.391 . S
C390 C391 1.400 . S
C391 C385 1.491 . S
C391 C390 1.400 . S
C391 C392 1.398 . S
C392 H380 0.950 . S
C392 C391 1.398 . S
C392 C393 1.391 . S
C393 H381 0.950 . S
C393 C389 1.393 . S
C393 C392 1.391 . S
H394 C402 0.950 . S
H395 C407 0.950 . S
H396 C404 0.950 . S
H397 C406 0.950 . S
H398 C408 0.950 . S
H399 C410 0.950 . S
H400 C412 0.950 . S
H401 C413 0.950 . S
C402 H394 0.950 . S
C402 C403 1.386 . S
C402 C404 1.391 . S
C403 C402 1.386 . S
C403 C407 1.393 . S
C404 H396 0.950 . S
C404 C402 1.391 . S
C404 C405 1.400 . S
C405 C404 1.400 . S
C405 C406 1.398 . S
C405 C411 1.491 . S
C406 H397 0.950 . S
C406 C405 1.398 . S
C406 C407 1.391 . S
C407 H395 0.950 . S
C407 C403 1.393 . S
C407 C406 1.391 . S
C408 H398 0.950 . S
C408 C409 1.386 . S
C408 C410 1.391 . S
C409 C408 1.386 . S
C409 C413 1.393 . S
C410 H399 0.950 . S
C410 C408 1.391 . S
C410 C411 1.400 . S
C411 C405 1.491 . S
C411 C410 1.400 . S
C411 C412 1.398 . S
C412 H400 0.950 . S
C412 C411 1.398 . S
C412 C413 1.391 . S
C413 H401 0.950 . S
C413 C409 1.393 . S
C413 C412 1.391 . S
H414 C422 0.950 . S
H415 C427 0.950 . S
H416 C424 0.950 . S
H417 C426 0.950 . S
H418 C428 0.950 . S
H419 C430 0.950 . S
H420 C432 0.950 . S
H421 C433 0.950 . S
C422 H414 0.950 . S
C422 C423 1.386 . S
C422 C424 1.391 . S
C423 C422 1.386 . S
C423 C427 1.393 . S
C424 H416 0.950 . S
C424 C422 1.391 . S
C424 C425 1.400 . S
C425 C424 1.400 . S
C425 C426 1.398 . S
C425 C431 1.491 1_554 S
C426 H417 0.950 . S
C426 C425 1.398 . S
C426 C427 1.391 . S
C427 H415 0.950 . S
C427 C423 1.393 . S
C427 C426 1.391 . S
C428 H418 0.950 . S
C428 C429 1.386 . S
C428 C430 1.391 . S
C429 C428 1.386 . S
C429 C433 1.393 . S
C430 H419 0.950 . S
C430 C428 1.391 . S
C430 C431 1.400 . S
C431 C425 1.491 1_556 S
C431 C430 1.400 . S
C431 C432 1.398 . S
C432 H420 0.950 . S
C432 C431 1.398 . S
C432 C433 1.391 . S
C433 H421 0.950 . S
C433 C429 1.393 . S
C433 C432 1.391 . S
H434 C442 0.950 . S
H435 C447 0.950 . S
H436 C444 0.950 . S
H437 C446 0.950 . S
H438 C448 0.950 . S
H439 C450 0.950 . S
H440 C452 0.950 . S
H441 C453 0.950 . S
C442 H434 0.950 . S
C442 C443 1.386 . S
C442 C444 1.391 . S
C443 C442 1.386 . S
C443 C447 1.393 . S
C444 H436 0.950 . S
C444 C442 1.391 . S
C444 C445 1.400 . S
C445 C444 1.400 . S
C445 C446 1.398 . S
C445 C451 1.491 . S
C446 H437 0.950 . S
C446 C445 1.398 . S
C446 C447 1.391 . S
C447 H435 0.950 . S
C447 C443 1.393 . S
C447 C446 1.391 . S
C448 H438 0.950 . S
C448 C449 1.386 . S
C448 C450 1.391 . S
C449 C448 1.386 . S
C449 C453 1.393 . S
C450 H439 0.950 . S
C450 C448 1.391 . S
C450 C451 1.400 . S
C451 C445 1.491 . S
C451 C450 1.400 . S
C451 C452 1.398 . S
C452 H440 0.950 . S
C452 C451 1.398 . S
C452 C453 1.391 . S
C453 H441 0.950 . S
C453 C449 1.393 . S
C453 C452 1.391 . S
H454 C462 0.950 . S
H455 C467 0.950 . S
H456 C464 0.950 . S
H457 C466 0.950 . S
H458 C468 0.950 . S
H459 C470 0.950 . S
H460 C472 0.950 . S
H461 C473 0.950 . S
C462 H454 0.950 . S
C462 C463 1.386 . S
C462 C464 1.391 . S
C463 C462 1.386 . S
C463 C467 1.393 . S
C464 H456 0.950 . S
C464 C462 1.391 . S
C464 C465 1.400 . S
C465 C464 1.400 . S
C465 C466 1.398 . S
C465 C471 1.491 . S
C466 H457 0.950 . S
C466 C465 1.398 . S
C466 C467 1.391 . S
C467 H455 0.950 . S
C467 C463 1.393 . S
C467 C466 1.391 . S
C468 H458 0.950 . S
C468 C469 1.386 . S
C468 C470 1.391 . S
C469 C468 1.386 . S
C469 C473 1.393 . S
C470 H459 0.950 . S
C470 C468 1.391 . S
C470 C471 1.400 . S
C471 C465 1.491 . S
C471 C470 1.400 . S
C471 C472 1.398 . S
C472 H460 0.950 . S
C472 C471 1.398 . S
C472 C473 1.391 . S
C473 H461 0.950 . S
C473 C469 1.393 . S
C473 C472 1.391 . S
H474 C482 0.950 1_565 S
H475 C487 0.950 . S
H476 C484 0.950 1_565 S
H477 C486 0.950 . S
H478 C488 0.950 . S
H479 C490 0.950 . S
H480 C492 0.950 1_565 S
H481 C493 0.950 1_565 S
C482 H474 0.950 1_545 S
C482 C483 1.386 . S
C482 C484 1.391 . S
C483 C482 1.386 . S
C483 C487 1.393 . S
C484 H476 0.950 1_545 S
C484 C482 1.391 . S
C484 C485 1.400 . S
C485 C484 1.400 . S
C485 C486 1.398 . S
C485 C491 1.491 . S
C486 H477 0.950 . S
C486 C485 1.398 . S
C486 C487 1.391 . S
C487 H475 0.950 . S
C487 C483 1.393 . S
C487 C486 1.391 . S
C488 H478 0.950 . S
C488 C489 1.386 . S
C488 C490 1.391 . S
C489 C488 1.386 . S
C489 C493 1.393 . S
C490 H479 0.950 . S
C490 C488 1.391 . S
C490 C491 1.400 . S
C491 C485 1.491 . S
C491 C490 1.400 . S
C491 C492 1.398 . S
C492 H480 0.950 1_545 S
C492 C491 1.398 . S
C492 C493 1.391 . S
C493 H481 0.950 1_545 S
C493 C489 1.393 . S
C493 C492 1.391 . S
H494 C502 0.950 . S
H495 C507 0.950 . S
H496 C504 0.950 . S
H497 C506 0.950 . S
H498 C508 0.950 . S
H499 C510 0.950 . S
H500 C512 0.950 . S
H501 C513 0.950 . S
C502 H494 0.950 . S
C502 C503 1.386 . S
C502 C504 1.391 . S
C503 C502 1.386 . S
C503 C507 1.393 . S
C504 H496 0.950 . S
C504 C502 1.391 . S
C504 C505 1.400 . S
C505 C504 1.400 . S
C505 C506 1.398 . S
C505 C511 1.491 1_556 S
C506 H497 0.950 . S
C506 C505 1.398 . S
C506 C507 1.391 . S
C507 H495 0.950 . S
C507 C503 1.393 . S
C507 C506 1.391 . S
C508 H498 0.950 . S
C508 C509 1.386 . S
C508 C510 1.391 . S
C509 C508 1.386 . S
C509 C513 1.393 . S
C510 H499 0.950 . S
C510 C508 1.391 . S
C510 C511 1.400 . S
C511 C505 1.491 1_554 S
C511 C510 1.400 . S
C511 C512 1.398 . S
C512 H500 0.950 . S
C512 C511 1.398 . S
C512 C513 1.391 . S
C513 H501 0.950 . S
C513 C509 1.393 . S
C513 C512 1.391 . S
H514 C522 0.950 1_655 S
H515 C527 0.950 . S
H516 C524 0.950 1_655 S
H517 C526 0.950 . S
H518 C528 0.950 . S
H519 C530 0.950 . S
H520 C532 0.950 1_655 S
H521 C533 0.950 1_655 S
C522 H514 0.950 1_455 S
C522 C523 1.386 . S
C522 C524 1.391 . S
C523 C522 1.386 . S
C523 C527 1.393 . S
C524 H516 0.950 1_455 S
C524 C522 1.391 . S
C524 C525 1.400 . S
C525 C524 1.400 . S
C525 C526 1.398 . S
C525 C531 1.491 . S
C526 H517 0.950 . S
C526 C525 1.398 . S
C526 C527 1.391 . S
C527 H515 0.950 . S
C527 C523 1.393 . S
C527 C526 1.391 . S
C528 H518 0.950 . S
C528 C529 1.386 . S
C528 C530 1.391 . S
C529 C528 1.386 . S
C529 C533 1.393 . S
C530 H519 0.950 . S
C530 C528 1.391 . S
C530 C531 1.400 . S
C531 C525 1.491 . S
C531 C530 1.400 . S
C531 C532 1.398 . S
C532 H520 0.950 1_455 S
C532 C531 1.398 . S
C532 C533 1.391 . S
C533 H521 0.950 1_455 S
C533 C529 1.393 . S
C533 C532 1.391 . S
C183 C8 2.112 . S
C189 C166 2.134 . S
C203 C26 1.436 . S
C209 C128 1.409 . S
C223 C48 1.605 . S
C229 C147 1.604 . S
C243 C19 1.707 . S
C249 C161 1.747 . S
C269 C123 1.366 . S
C263 C36 1.354 . S
C289 C142 1.548 . S
C283 C59 1.522 . S
C303 C28 1.604 . S
C309 C90 1.623 . S
C323 C46 1.093 . S
C329 C104 1.113 1_655 S
C343 C16 1.371 . S
C349 C66 1.350 1_565 S
C369 C85 1.531 . S
C363 C39 1.521 . S
C389 C109 1.065 . S
C383 C56 1.085 . S
C403 C6 1.446 . S
C409 C71 1.406 . S
C429 C100 1.489 . S
C423 C9 1.498 . S
C443 C21 1.570 . S
C449 C62 1.564 . S
C463 C49 1.553 . S
C469 C81 1.545 . S
C489 C138 1.530 . S
C483 C29 1.548 . S
C509 C157 1.649 . S
C503 C41 1.614 . S
C523 C1 1.531 . S
C529 C119 1.523 . S
