# Generated by pormake.
# Topology apo, (3,6)-cn, num edge types: 1
# Building blocks:
#     Node 0, Type 0, BuildingBlock: BETDAH_clean_linker_0, # of connection points: 3
#     Node 1, Type 0, BuildingBlock: BETDAH_clean_linker_0, # of connection points: 3
#     Node 2, Type 0, BuildingBlock: BETDAH_clean_linker_0, # of connection points: 3
#     Node 3, Type 0, BuildingBlock: BETDAH_clean_linker_0, # of connection points: 3
#     Node 4, Type 0, BuildingBlock: BETDAH_clean_linker_0, # of connection points: 3
#     Node 5, Type 0, BuildingBlock: BETDAH_clean_linker_0, # of connection points: 3
#     Node 6, Type 0, BuildingBlock: BETDAH_clean_linker_0, # of connection points: 3
#     Node 7, Type 0, BuildingBlock: BETDAH_clean_linker_0, # of connection points: 3
#     Node 8, Type 1, BuildingBlock: KUMBUR_clean_sbu_1, # of connection points: 6
#     Node 9, Type 1, BuildingBlock: KUMBUR_clean_sbu_1, # of connection points: 6
#     Node 10, Type 1, BuildingBlock: KUMBUR_clean_sbu_1, # of connection points: 6
#     Node 11, Type 1, BuildingBlock: KUMBUR_clean_sbu_1, # of connection points: 6
#     Edge 12, Type (0, 1), None
#     Edge 13, Type (0, 1), None
#     Edge 14, Type (0, 1), None
#     Edge 15, Type (0, 1), None
#     Edge 16, Type (0, 1), None
#     Edge 17, Type (0, 1), None
#     Edge 18, Type (0, 1), None
#     Edge 19, Type (0, 1), None
#     Edge 20, Type (0, 1), None
#     Edge 21, Type (0, 1), None
#     Edge 22, Type (0, 1), None
#     Edge 23, Type (0, 1), None
#     Edge 24, Type (0, 1), None
#     Edge 25, Type (0, 1), None
#     Edge 26, Type (0, 1), None
#     Edge 27, Type (0, 1), None
#     Edge 28, Type (0, 1), None
#     Edge 29, Type (0, 1), None
#     Edge 30, Type (0, 1), None
#     Edge 31, Type (0, 1), None
#     Edge 32, Type (0, 1), None
#     Edge 33, Type (0, 1), None
#     Edge 34, Type (0, 1), None
#     Edge 35, Type (0, 1), None
# Relax obj value: 0.036
# Max RMSD: 0.291
# Mean RMSD: 0.198
data_MOF--net-apo--node1-KUMBUR_clean_sbu_1--node2-BETDAH_clean_linker_0--edge1-none
_symmetry_space_group_name_H-M    P1
_symmetry_Int_Tables_number       1
_symmetry_cell_setting            triclinic
loop_
_symmetry_equiv_pos_as_xyz
'x, y, z'
_cell_length_a     12.735174
_cell_length_b     18.351525
_cell_length_c     26.262221
_cell_angle_alpha  89.096447
_cell_angle_beta   90.319816
_cell_angle_gamma 90.022952
loop_
_atom_site_label
_atom_site_type_symbol
_atom_site_fract_x
_atom_site_fract_y
_atom_site_fract_z
_atom_type_partial_charge
H0 H 0.3704 0.52494 0.41813 0.0
H1 H 0.35947 0.35126 0.30955 0.0
H2 H 0.25818 0.31269 0.46365 0.0
C3 C 0.3504 0.46928 0.40867 0.0
C4 C 0.31126 0.4221 0.44667 0.0
C5 C 0.3664 0.44458 0.35892 0.0
C6 C 0.34172 0.3718 0.34701 0.0
C7 C 0.30156 0.32396 0.3846 0.0
C8 C 0.28739 0.34958 0.43435 0.0
N9 N 0.29598 0.24754 0.37608 0.0
C10 C 0.22207 0.21218 0.34554 0.0
H11 H 0.15754 0.96957 0.92871 0.0
H12 H 0.17842 0.14649 0.81931 0.0
H13 H 0.25822 0.18172 0.97619 0.0
C14 C 0.1747 0.0262 0.91974 0.0
C15 C 0.2073 0.07273 0.95856 0.0
C16 C 0.16459 0.05218 0.86949 0.0
C17 C 0.19003 0.12524 0.85756 0.0
C18 C 0.22475 0.1722 0.89593 0.0
C19 C 0.2315 0.14573 0.94645 0.0
N20 N 0.24253 0.24779 0.88615 0.0
C21 C 0.30308 0.27771 0.84674 0.0
H22 H 0.85308 -0.00126 0.63699 0.0
H23 H 0.85639 0.14256 0.76472 0.0
H24 H 0.7298 0.21659 0.62176 0.0
C25 C 0.83397 0.05068 0.65374 0.0
C26 C 0.78675 0.10578 0.6239 0.0
C27 C 0.85571 0.06293 0.70542 0.0
C28 C 0.83437 0.1314 0.72591 0.0
C29 C 0.789 0.18658 0.69575 0.0
C30 C 0.7636 0.17327 0.64517 0.0
N31 N 0.78062 0.25771 0.7147 0.0
C32 C 0.68483 0.2923 0.72061 0.0
H33 H 0.66782 0.49485 0.13305 0.0
H34 H 0.69321 0.34873 0.26237 0.0
H35 H 0.77869 0.27589 0.11434 0.0
C36 C 0.68661 0.44195 0.14965 0.0
C37 C 0.72609 0.38734 0.11852 0.0
C38 C 0.67344 0.4286 0.20203 0.0
C39 C 0.70168 0.35986 0.22233 0.0
C40 C 0.73826 0.30461 0.19062 0.0
C41 C 0.75049 0.31864 0.13883 0.0
N42 N 0.74962 0.23257 0.20935 0.0
C43 C 0.84587 0.2031 0.22365 0.0
H44 H 0.67597 0.47298 0.65037 0.0
H45 H 0.66786 0.65191 0.75436 0.0
H46 H 0.78461 0.68542 0.60314 0.0
C47 C 0.69293 0.52937 0.65913 0.0
C48 C 0.73308 0.57605 0.62118 0.0
C49 C 0.67039 0.556 0.70755 0.0
C50 C 0.69129 0.62949 0.71842 0.0
C51 C 0.73579 0.67575 0.68134 0.0
C52 C 0.75373 0.64917 0.63238 0.0
N53 N 0.74948 0.75127 0.69014 0.0
C54 C 0.81335 0.78037 0.72807 0.0
H55 H 0.84863 0.03328 0.16448 0.0
H56 H 0.78821 0.82614 0.09566 0.0
H57 H 0.86303 0.83566 0.25476 0.0
C58 C 0.83975 0.97473 0.16804 0.0
C59 C 0.85739 0.93968 0.21527 0.0
C60 C 0.81654 0.93392 0.12449 0.0
C61 C 0.80659 0.85795 0.12899 0.0
C62 C 0.81722 0.82276 0.1765 0.0
C63 C 0.84529 0.86358 0.21928 0.0
N64 N 0.81093 0.74554 0.1791 0.0
C65 C 0.74223 0.707 0.2107 0.0
H66 H 0.05808 0.92825 0.44343 0.0
H67 H 0.30504 0.90102 0.33546 0.0
H68 H 0.29014 0.76389 0.4678 0.0
C69 C 0.12219 0.89736 0.42821 0.0
C70 C 0.16216 0.83957 0.4576 0.0
C71 C 0.16742 0.91692 0.38125 0.0
C72 C 0.26138 0.88218 0.36769 0.0
C73 C 0.30588 0.82747 0.39885 0.0
C74 C 0.25437 0.80478 0.443 0.0
N75 N 0.41133 0.80659 0.39181 0.0
C76 C 0.4403 0.74869 0.36193 0.0
H77 H 0.36535 0.49839 0.93696 0.0
H78 H 0.27525 0.7215 0.95882 0.0
H79 H 0.35372 0.64921 0.8102 0.0
C80 C 0.35106 0.55242 0.92116 0.0
C81 C 0.36406 0.56661 0.8686 0.0
C82 C 0.31928 0.60829 0.95359 0.0
C83 C 0.29964 0.67816 0.93388 0.0
C84 C 0.3111 0.69256 0.88207 0.0
C85 C 0.34309 0.63705 0.84975 0.0
N86 N 0.29971 0.76449 0.86321 0.0
C87 C 0.20208 0.79441 0.85222 0.0
Tb88 Tb 0.11893 0.04631 0.23 0.0
C89 C 0.66751 0.07667 0.33907 0.0
N90 N 0.74534 0.12648 0.33129 0.0
C91 C 0.61558 0.21853 0.31318 0.0
C92 C 0.56076 0.09601 0.33258 0.0
C93 C 0.72031 0.19767 0.32103 0.0
C94 C 0.53597 0.167 0.31718 0.0
C95 C 0.61399 0.96398 0.38083 0.0
C96 C 0.69378 0.0103 0.36189 0.0
C97 C 0.50848 0.98175 0.37196 0.0
C98 C 0.48174 0.04683 0.34698 0.0
Tb99 Tb 0.91178 0.08725 0.35113 0.0
N100 N 0.79666 0.99646 0.3723 0.0
C101 C 0.64196 0.90528 0.41264 0.0
C102 C 0.82342 0.94027 0.40442 0.0
C103 C 0.74686 0.89482 0.42576 0.0
H104 H 0.78086 0.23899 0.32029 0.0
H105 H 0.76926 0.8509 0.45161 0.0
H106 H 0.25229 0.89238 0.2495 0.0
H107 H 0.22547 0.27269 0.11443 0.0
H108 H 0.90316 0.93102 0.41498 0.0
H109 H 0.58306 0.86991 0.42934 0.0
H110 H 0.1059 0.1988 0.16749 0.0
H111 H 0.59476 0.27471 0.30611 0.0
H112 H 0.44692 0.94817 0.38754 0.0
H113 H 0.39954 0.06103 0.3425 0.0
H114 H 0.43836 0.85351 0.25273 0.0
H115 H 0.45507 0.18393 0.31201 0.0
H116 H 0.41819 0.25369 0.12085 0.0
N117 N 0.28822 0.00361 0.2338 0.0
C118 C 0.36386 0.05151 0.21945 0.0
C119 C 0.41863 0.90963 0.24383 0.0
C120 C 0.47059 0.03083 0.21781 0.0
C121 C 0.31355 0.93211 0.24267 0.0
C122 C 0.49784 0.95965 0.23232 0.0
N123 N 0.22803 0.13343 0.19915 0.0
C124 C 0.18956 0.18947 0.17 0.0
C125 C 0.40468 0.16312 0.17403 0.0
C126 C 0.33222 0.11796 0.19965 0.0
C127 C 0.36567 0.21993 0.14339 0.0
C128 C 0.25713 0.23115 0.13989 0.0
H129 H 0.57896 0.9418 0.23206 0.0
H130 H 0.62783 0.06576 0.19759 0.0
H131 H 0.56914 0.18068 0.15694 0.0
O132 O 0.0662 0.05876 0.15359 0.0
O133 O 0.16704 0.14153 0.27462 0.0
O134 O 0.06698 0.14215 0.35019 0.0
O135 O 0.13773 0.95956 0.17922 0.0
O136 O 0.9757 0.11209 0.21933 0.0
O137 O 0.94894 0.17165 0.2948 0.0
O138 O 0.94151 0.0731 0.42964 0.0
O139 O 0.85055 0.02508 0.28551 0.0
O140 O 1.0055 0.9742 0.26557 0.0
O141 O 0.85707 0.16675 0.40158 0.0
O142 O 0.02755 0.00103 0.36514 0.0
O143 O 0.15688 0.98679 0.3021 0.0
C144 C 0.14856 0.16214 0.32187 0.0
C145 C 0.18575 0.0033 0.09654 0.0
C146 C 0.23266 0.04166 1.00953 0.0
C147 C 0.3338 0.01352 1.01725 0.0
C148 C 0.28806 0.97515 0.10263 0.0
C149 C 0.36125 0.98073 0.06353 0.0
C150 C 0.15818 0.03669 0.04928 0.0
C151 C 0.93361 0.16484 0.24573 0.0
C152 C 0.10978 -0.00161 0.13961 0.0
C153 C 0.5453 0.08007 0.19835 0.0
C154 C 0.51208 0.14573 0.17559 0.0
C155 C 0.90511 0.98006 0.25773 0.0
C156 C 0.80537 0.11585 0.48126 0.0
C157 C 0.76034 0.0953 0.57022 0.0
C158 C 0.65453 0.0873 0.55661 0.0
C159 C 0.69819 0.11138 0.46873 0.0
C160 C 0.83621 0.10775 0.53244 0.0
C161 C 0.62375 0.09503 0.5059 0.0
C162 C 0.11698 0.97408 0.34818 0.0
C163 C 0.88542 0.12928 0.44178 0.0
H164 H 0.39145 0.01628 0.98705 0.0
H165 H 0.31224 0.94823 0.13757 0.0
H166 H 0.43955 0.95892 0.06901 0.0
H167 H 0.07969 0.05817 0.04339 0.0
H168 H 0.59529 0.07886 0.58558 0.0
H169 H 0.67109 0.12233 0.43066 0.0
H170 H 0.91798 0.11468 0.54312 0.0
H171 H 0.54154 0.09119 0.49562 0.0
Tb172 Tb 0.39973 0.44185 0.72164 0.0
C173 C 0.84452 0.41259 0.83211 0.0
N174 N 0.76983 0.35955 0.83034 0.0
C175 C 0.90378 0.26788 0.82793 0.0
C176 C 0.95225 0.39488 0.83274 0.0
C177 C 0.79766 0.28779 0.82837 0.0
C178 C 0.98128 0.32161 0.82959 0.0
C179 C 0.88771 0.54045 0.84306 0.0
C180 C 0.81282 0.48454 0.83843 0.0
C181 C 0.99494 0.52277 0.84466 0.0
C182 C 0.02717 0.45023 0.83938 0.0
Tb183 Tb 0.6019 0.39949 0.84049 0.0
N184 N 0.70808 0.49919 0.84103 0.0
C185 C 0.85228 0.61236 0.84608 0.0
C186 C 0.67314 0.56855 0.84777 0.0
C187 C 0.74445 0.62637 0.8475 0.0
H188 H 0.73787 0.24588 0.82861 0.0
H189 H 0.71583 0.68173 0.8475 0.0
H190 H 0.25865 0.58808 0.75011 0.0
H191 H 0.30011 0.19947 0.6228 0.0
H192 H 0.59029 0.57958 0.85057 0.0
H193 H 0.9074 0.65729 0.84711 0.0
H194 H 0.41869 0.2833 0.66813 0.0
H195 H 0.92618 0.21109 0.82781 0.0
H196 H 0.05369 0.56486 0.84957 0.0
H197 H 0.11026 0.43751 0.84063 0.0
H198 H 0.07296 0.62426 0.74843 0.0
H199 H 0.06319 0.30577 0.82998 0.0
H200 H 0.10797 0.21941 0.62441 0.0
N201 N 0.22912 0.47879 0.72818 0.0
C202 C 0.15615 0.43072 0.71154 0.0
C203 C 0.09505 0.56935 0.73847 0.0
C204 C 0.04902 0.44993 0.7081 0.0
C205 C 0.20032 0.5479 0.74087 0.0
C206 C 0.0188 0.51997 0.72239 0.0
N207 N 0.29507 0.35002 0.69489 0.0
C208 C 0.33494 0.29191 0.66971 0.0
C209 C 0.11951 0.31705 0.66934 0.0
C210 C 0.19053 0.36457 0.69335 0.0
C211 C 0.1596 0.25629 0.64444 0.0
C212 C 0.26803 0.24489 0.6434 0.0
H213 H 0.93737 0.53695 0.7201 0.0
H214 H 0.8939 0.41371 0.68543 0.0
H215 H 0.9562 0.29819 0.64998 0.0
O216 O 0.44805 0.43042 0.64484 0.0
O217 O 0.3352 0.36709 0.78112 0.0
O218 O 0.47524 0.31832 0.82997 0.0
O219 O 0.36453 0.52507 0.66873 0.0
O220 O 0.5416 0.37376 0.71047 0.0
O221 O 0.5705 0.31383 0.78683 0.0
O222 O 0.57682 0.43302 0.91575 0.0
O223 O 0.65926 0.45962 0.77157 0.0
O224 O 0.51179 0.52081 0.74854 0.0
O225 O 0.65749 0.33256 0.90066 0.0
O226 O 0.45421 0.45472 0.85656 0.0
O227 O 0.40662 0.52103 0.78449 0.0
C228 C 0.37451 0.32248 0.81671 0.0
C229 C 0.32356 0.48273 0.58597 0.0
C230 C 0.28318 0.45111 0.49728 0.0
C231 C 0.18215 0.47978 0.50305 0.0
C232 C 0.22099 0.51056 0.59022 0.0
C233 C 0.15174 0.50951 0.5491 0.0
C234 C 0.35468 0.45294 0.53885 0.0
C235 C 0.58834 0.32256 0.73822 0.0
C236 C 0.39779 0.4888 0.62989 0.0
C237 C 0.97664 0.40021 0.68794 0.0
C238 C 0.01201 0.33425 0.66802 0.0
C239 C 0.61166 0.50981 0.74366 0.0
C240 C 0.7056 0.39488 0.97563 0.0
C241 C 0.75019 0.40284 0.06531 0.0
C242 C 0.85194 0.42544 0.05289 0.0
C243 C 0.80868 0.41612 0.96396 0.0
C244 C 0.67653 0.38823 1.02686 0.0
C245 C 0.881 0.43211 1.00217 0.0
C246 C 0.40584 0.50968 0.83448 0.0
C247 C 0.62834 0.37791 0.93544 0.0
H248 H 0.1269 0.47985 0.4715 0.0
H249 H 0.19405 0.53472 0.6251 0.0
H250 H 0.07452 0.53303 0.55287 0.0
H251 H 0.43372 0.43219 0.53439 0.0
H252 H 0.90945 0.43591 0.08248 0.0
H253 H 0.83479 0.41929 0.92578 0.0
H254 H 0.59812 0.37004 1.03683 0.0
H255 H 0.96023 0.44826 0.99239 0.0
Tb256 Tb 0.12222 0.90559 0.73432 0.0
C257 C 0.66584 0.92036 0.86986 0.0
N258 N 0.7366 0.96914 0.85145 0.0
C259 C 0.59992 0.05858 0.84108 0.0
C260 C 0.55851 0.93837 0.87384 0.0
C261 C 0.70564 0.03847 0.83859 0.0
C262 C 0.52565 0.00797 0.85813 0.0
C263 C 0.6345 0.80595 0.91438 0.0
C264 C 0.70279 0.85448 0.88888 0.0
C265 C 0.52686 0.82218 0.91666 0.0
C266 C 0.48869 0.88792 0.89589 0.0
Tb267 Tb 0.90823 0.93212 0.85384 0.0
N268 N 0.80729 0.84082 0.88619 0.0
C269 C 0.67744 0.74477 0.93929 0.0
C270 C 0.84995 0.78156 0.91052 0.0
C271 C 0.78596 0.73329 0.93811 0.0
H272 H 0.7629 0.07909 0.82772 0.0
H273 H 0.82012 0.68667 0.95777 0.0
H274 H 0.23371 0.74055 0.74486 0.0
H275 H 0.28234 0.17717 0.73224 0.0
H276 H 0.93381 0.77283 0.91001 0.0
H277 H 0.62788 0.70676 0.96007 0.0
H278 H 0.14022 0.08663 0.72863 0.0
H279 H 0.57599 0.11331 0.83029 0.0
H280 H 0.47323 0.78546 0.93601 0.0
H281 H 0.40593 0.90068 0.89917 0.0
H282 H 0.41522 0.69215 0.73841 0.0
H283 H 0.44388 0.02389 0.86051 0.0
H284 H 0.46804 0.13786 0.72931 0.0
N285 N 0.28303 0.85148 0.74402 0.0
C286 C 0.36561 0.8985 0.74077 0.0
C287 C 0.40183 0.75004 0.74177 0.0
C288 C 0.46989 0.87271 0.74002 0.0
C289 C 0.29972 0.77771 0.74503 0.0
C290 C 0.48715 0.79754 0.74111 0.0
N291 N 0.24411 0.99605 0.73507 0.0
C292 C 0.22082 0.06844 0.73008 0.0
C293 C 0.42926 0.02294 0.7323 0.0
C294 C 0.34562 0.97284 0.73602 0.0
C295 C 0.40599 0.09744 0.73036 0.0
C296 C 0.30134 0.12005 0.73063 0.0
H297 H 0.56583 0.7756 0.73963 0.0
H298 H 0.63393 0.90347 0.73478 0.0
H299 H 0.59832 0.03489 0.72779 0.0
O300 O 0.09448 0.94116 0.65839 0.0
O301 O 0.17745 0.96295 0.80281 0.0
O302 O 0.01876 0.00849 0.82114 0.0
O303 O 0.18613 0.84548 0.6754 0.0
O304 O 1.00547 0.99022 0.72037 0.0
O305 O 0.86921 0.98925 0.78119 0.0
O306 O 0.95013 0.92294 0.93179 0.0
O307 O 0.85994 0.84267 0.80402 0.0
O308 O 0.97105 0.84583 0.73193 0.0
O309 O 0.89208 0.02369 0.90006 0.0
O310 O 0.05359 0.86841 0.86513 0.0
O311 O 0.08041 0.81846 0.78699 0.0
C312 C 0.11848 0.00453 0.83086 0.0
C313 C 0.1019 0.84791 0.59683 0.0
C314 C 0.11526 0.8222 0.50702 0.0
C315 C 0.05205 0.76031 0.51372 0.0
C316 C 0.03784 0.78616 0.60365 0.0
C317 C 0.01273 0.74274 0.56197 0.0
C318 C 0.13872 0.86633 0.54839 0.0
C319 C 0.91095 0.00761 0.73646 0.0
C320 C 0.14668 0.88669 0.6399 0.0
C321 C 0.55337 0.9224 0.73554 0.0
C322 C 0.53307 -0.00275 0.73135 0.0
C323 C 0.88507 0.82517 0.75682 0.0
C324 C 0.84245 0.99524 0.98541 0.0
C325 C 0.79753 0.97105 0.0748 0.0
C326 C 0.71182 0.01855 0.06982 0.0
C327 C 0.75471 0.04172 0.98145 0.0
C328 C 0.8628 0.9592 1.0324 0.0
C329 C 0.6901 0.05302 1.02331 0.0
C330 C 0.10258 0.82259 0.83544 0.0
C331 C 0.91535 0.98782 0.94171 0.0
H332 H 0.03423 0.7255 0.4819 0.0
H333 H 0.01073 0.77018 0.64121 0.0
H334 H 0.96527 0.69432 0.56728 0.0
H335 H 0.19039 0.91293 0.54327 0.0
H336 H 0.66078 0.0282 0.10187 0.0
H337 H 0.73639 0.07042 0.94621 0.0
H338 H 0.93015 0.92338 1.03633 0.0
H339 H 0.6232 0.08914 1.01977 0.0
Tb340 Tb 0.43912 0.60896 0.2301 0.0
C341 C 0.88757 0.56097 0.3556 0.0
N342 N 0.80958 0.5133 0.34475 0.0
C343 C 0.93363 0.41486 0.34518 0.0
C344 C 0.99196 0.53731 0.36286 0.0
C345 C 0.8309 0.44091 0.33925 0.0
C346 C 0.01444 0.46317 0.3575 0.0
C347 C 0.94234 0.6862 0.36584 0.0
C348 C 0.86287 0.63412 0.35779 0.0
C349 C 0.04561 0.66287 0.37583 0.0
C350 C 0.07042 0.58849 0.37432 0.0
Tb351 Tb 0.64429 0.56096 0.34294 0.0
N352 N 0.76175 0.65447 0.34903 0.0
C353 C 0.91674 0.75998 0.36016 0.0
C354 C 0.73555 0.72648 0.34623 0.0
C355 C 0.81362 0.77955 0.34805 0.0
H356 H 0.76812 0.40267 0.33268 0.0
H357 H 0.79402 0.83531 0.33882 0.0
H358 H 0.30567 0.75707 0.26482 0.0
H359 H 0.32141 0.35486 0.16166 0.0
H360 H 0.65614 0.74313 0.3387 0.0
H361 H 0.97647 0.80182 0.36282 0.0
H362 H 0.44573 0.44388 0.18839 0.0
H363 H 0.95002 0.35736 0.34124 0.0
H364 H 0.10757 0.70209 0.38257 0.0
H365 H 0.15101 0.57139 0.38041 0.0
H366 H 0.11975 0.79158 0.27339 0.0
H367 H 0.09377 0.44282 0.36248 0.0
H368 H 0.12975 0.36868 0.1785 0.0
N369 N 0.27263 0.64576 0.24949 0.0
C370 C 0.19682 0.59441 0.24299 0.0
C371 C 0.14057 0.73589 0.26495 0.0
C372 C 0.08944 0.61249 0.24552 0.0
C373 C 0.24612 0.71572 0.26107 0.0
C374 C 0.06197 0.68439 0.25624 0.0
N375 N 0.33138 0.51253 0.2211 0.0
C376 C 0.36456 0.45116 0.19812 0.0
C377 C 0.15116 0.47341 0.21403 0.0
C378 C 0.22714 0.52549 0.22776 0.0
C379 C 0.18537 0.40904 0.19163 0.0
C380 C 0.29248 0.39944 0.18272 0.0
H381 H 0.98035 0.70082 0.25748 0.0
H382 H 0.93034 0.57222 0.23666 0.0
H383 H 0.98443 0.45058 0.20867 0.0
O384 O 0.47345 0.59355 0.15264 0.0
O385 O 0.38288 0.54462 0.29743 0.0
O386 O 0.52826 0.47991 0.32202 0.0
O387 O 0.36783 0.67804 0.17502 0.0
O388 O 0.57239 0.5376 0.21153 0.0
O389 O 0.63354 0.47721 0.28454 0.0
O390 O 0.61982 0.59363 0.41908 0.0
O391 O 0.71066 0.61742 0.27526 0.0
O392 O 0.57096 0.68384 0.24183 0.0
O393 O 0.66144 0.48328 0.40148 0.0
O394 O 0.50425 0.6288 0.35571 0.0
O395 O 0.47274 0.69605 0.28244 0.0
C396 C 0.42729 0.49049 0.3231 0.0
C397 C 0.3328 0.6193 0.09664 0.0
C398 C 0.29656 0.59406 1.00745 0.0
C399 C 0.19663 0.56821 1.02043 0.0
C400 C 0.22975 0.59772 0.10819 0.0
C401 C 0.16329 0.57034 0.07072 0.0
C402 C 0.36557 0.61826 0.04566 0.0
C403 C 0.62685 0.48532 0.23453 0.0
C404 C 0.40657 0.64263 0.13696 0.0
C405 C 0.01326 0.55939 0.23464 0.0
C406 C 0.04404 0.48997 0.21893 0.0
C407 C 0.67127 0.66695 0.2435 0.0
C408 C 0.72108 0.52649 0.48103 0.0
C409 C 0.76018 0.54684 0.57096 0.0
C410 C 0.85144 0.50494 0.56678 0.0
C411 C 0.814 0.48535 0.47784 0.0
C412 C 0.69474 0.55775 0.52801 0.0
C413 C 0.87815 0.47458 0.52039 0.0
C414 C 0.47071 0.68789 0.33203 0.0
C415 C 0.6464 0.52979 0.43753 0.0
H416 H 0.14236 0.55044 0.99119 0.0
H417 H 0.19908 0.60365 0.14565 0.0
H418 H 0.08446 0.55317 0.08043 0.0
H419 H 0.44288 0.63838 1.0355 0.0
H420 H 0.9018 0.49551 0.5996 0.0
H421 H 0.83592 0.45914 0.44303 0.0
H422 H 0.62235 0.5883 0.53158 0.0
H423 H 0.94791 0.44133 0.51753 0.0
loop_
_geom_bond_atom_site_label_1
_geom_bond_atom_site_label_2
_geom_bond_distance
_geom_bond_site_symmetry_2
_ccdc_geom_bond_type
H0 C3 0.929 . S
H1 C6 0.929 . S
H2 C8 0.930 . S
C3 H0 0.929 . S
C3 C4 1.398 . S
C3 C5 1.396 . S
C4 C3 1.398 . S
C4 C8 1.407 . S
C5 C3 1.396 . S
C5 C6 1.394 . S
C6 H1 0.929 . S
C6 C5 1.394 . S
C6 C7 1.382 . S
C7 C6 1.382 . S
C7 C8 1.392 . S
C7 N9 1.420 . S
C8 H2 0.930 . S
C8 C4 1.407 . S
C8 C7 1.392 . S
N9 C7 1.420 . S
N9 C10 1.244 . S
C10 N9 1.244 . S
H11 C14 0.929 . S
H12 C17 0.929 . S
H13 C19 0.930 . S
C14 H11 0.929 . S
C14 C15 1.398 . S
C14 C16 1.396 . S
C15 C14 1.398 . S
C15 C19 1.407 . S
C16 C14 1.396 . S
C16 C17 1.394 . S
C17 H12 0.929 . S
C17 C16 1.394 . S
C17 C18 1.382 . S
C18 C17 1.382 . S
C18 C19 1.392 . S
C18 N20 1.420 . S
C19 H13 0.930 . S
C19 C15 1.407 . S
C19 C18 1.392 . S
N20 C18 1.420 . S
N20 C21 1.244 . S
C21 N20 1.244 . S
H22 C25 0.929 . S
H23 C28 0.929 . S
H24 C30 0.930 . S
C25 H22 0.929 . S
C25 C26 1.398 . S
C25 C27 1.396 . S
C26 C25 1.398 . S
C26 C30 1.407 . S
C27 C25 1.396 . S
C27 C28 1.394 . S
C28 H23 0.929 . S
C28 C27 1.394 . S
C28 C29 1.382 . S
C29 C28 1.382 . S
C29 C30 1.392 . S
C29 N31 1.420 . S
C30 H24 0.930 . S
C30 C26 1.407 . S
C30 C29 1.392 . S
N31 C29 1.420 . S
N31 C32 1.244 . S
C32 N31 1.244 . S
H33 C36 0.929 . S
H34 C39 0.929 . S
H35 C41 0.930 . S
C36 H33 0.929 . S
C36 C37 1.398 . S
C36 C38 1.396 . S
C37 C36 1.398 . S
C37 C41 1.407 . S
C38 C36 1.396 . S
C38 C39 1.394 . S
C39 H34 0.929 . S
C39 C38 1.394 . S
C39 C40 1.382 . S
C40 C39 1.382 . S
C40 C41 1.392 . S
C40 N42 1.420 . S
C41 H35 0.930 . S
C41 C37 1.407 . S
C41 C40 1.392 . S
N42 C40 1.420 . S
N42 C43 1.244 . S
C43 N42 1.244 . S
H44 C47 0.929 . S
H45 C50 0.929 . S
H46 C52 0.930 . S
C47 H44 0.929 . S
C47 C48 1.398 . S
C47 C49 1.396 . S
C48 C47 1.398 . S
C48 C52 1.407 . S
C49 C47 1.396 . S
C49 C50 1.394 . S
C50 H45 0.929 . S
C50 C49 1.394 . S
C50 C51 1.382 . S
C51 C50 1.382 . S
C51 C52 1.392 . S
C51 N53 1.420 . S
C52 H46 0.930 . S
C52 C48 1.407 . S
C52 C51 1.392 . S
N53 C51 1.420 . S
N53 C54 1.244 . S
C54 N53 1.244 . S
H55 C58 0.929 . S
H56 C61 0.929 . S
H57 C63 0.930 . S
C58 H55 0.929 . S
C58 C59 1.398 . S
C58 C60 1.396 . S
C59 C58 1.398 . S
C59 C63 1.407 . S
C60 C58 1.396 . S
C60 C61 1.394 . S
C61 H56 0.929 . S
C61 C60 1.394 . S
C61 C62 1.382 . S
C62 C61 1.382 . S
C62 C63 1.392 . S
C62 N64 1.420 . S
C63 H57 0.930 . S
C63 C59 1.407 . S
C63 C62 1.392 . S
N64 C62 1.420 . S
N64 C65 1.244 . S
C65 N64 1.244 . S
H66 C69 0.929 . S
H67 C72 0.929 . S
H68 C74 0.930 . S
C69 H66 0.929 . S
C69 C70 1.398 . S
C69 C71 1.396 . S
C70 C69 1.398 . S
C70 C74 1.407 . S
C71 C69 1.396 . S
C71 C72 1.394 . S
C72 H67 0.929 . S
C72 C71 1.394 . S
C72 C73 1.382 . S
C73 C72 1.382 . S
C73 C74 1.392 . S
C73 N75 1.420 . S
C74 H68 0.930 . S
C74 C70 1.407 . S
C74 C73 1.392 . S
N75 C73 1.420 . S
N75 C76 1.244 . S
C76 N75 1.244 . S
H77 C80 0.929 . S
H78 C83 0.929 . S
H79 C85 0.930 . S
C80 H77 0.929 . S
C80 C81 1.398 . S
C80 C82 1.396 . S
C81 C80 1.398 . S
C81 C85 1.407 . S
C82 C80 1.396 . S
C82 C83 1.394 . S
C83 H78 0.929 . S
C83 C82 1.394 . S
C83 C84 1.382 . S
C84 C83 1.382 . S
C84 C85 1.392 . S
C84 N86 1.420 . S
C85 H79 0.930 . S
C85 C81 1.407 . S
C85 C84 1.392 . S
N86 C84 1.420 . S
N86 C87 1.244 . S
C87 N86 1.244 . S
Tb88 N117 2.617 . S
Tb88 N123 2.572 . S
Tb88 O132 2.465 . S
Tb88 O133 2.387 . S
Tb88 O135 2.428 . S
Tb88 O136 2.306 1_455 S
Tb88 O140 2.349 1_455 S
Tb88 O143 2.393 1_545 S
Tb88 C152 2.802 . S
C89 N90 1.379 . S
C89 C92 1.416 . S
C89 C96 1.424 1_545 S
N90 C89 1.379 . S
N90 C93 1.334 . S
N90 Tb99 2.617 . S
C91 C93 1.390 . S
C91 C94 1.339 . S
C91 H111 0.930 . S
C92 C89 1.416 . S
C92 C94 1.416 . S
C92 C98 1.448 1_545 S
C93 N90 1.334 . S
C93 C91 1.390 . S
C93 H104 0.930 . S
C94 C91 1.339 . S
C94 C92 1.416 . S
C94 H115 0.930 . S
C95 C96 1.413 . S
C95 C97 1.427 . S
C95 C101 1.416 . S
C96 C89 1.424 1_565 S
C96 C95 1.413 . S
C96 N100 1.361 . S
C97 C95 1.427 . S
C97 C98 1.328 . S
C97 H112 0.929 . S
C98 C92 1.448 1_565 S
C98 C97 1.328 . S
C98 H113 0.930 . S
Tb99 N90 2.617 . S
Tb99 N100 2.572 1_545 S
Tb99 O134 2.349 1_655 S
Tb99 O137 2.393 . S
Tb99 O138 2.465 . S
Tb99 O139 2.387 . S
Tb99 O141 2.428 . S
Tb99 O142 2.308 1_655 S
Tb99 C163 2.802 . S
N100 C96 1.361 . S
N100 Tb99 2.572 1_565 S
N100 C102 1.340 . S
C101 C95 1.416 . S
C101 C103 1.332 . S
C101 H109 0.931 . S
C102 N100 1.340 . S
C102 C103 1.407 . S
C102 H108 0.930 . S
C103 C101 1.332 . S
C103 C102 1.407 . S
C103 H105 0.929 . S
H104 C93 0.930 . S
H105 C103 0.929 . S
H106 C121 0.930 1_565 S
H107 C128 0.929 . S
H108 C102 0.930 . S
H109 C101 0.931 . S
H110 C124 0.930 . S
H111 C91 0.930 . S
H112 C97 0.929 . S
H113 C98 0.930 . S
H114 C119 0.930 1_565 S
H115 C94 0.930 . S
H116 C127 0.931 . S
N117 Tb88 2.617 . S
N117 C118 1.379 . S
N117 C121 1.334 . S
C118 N117 1.379 . S
C118 C120 1.416 . S
C118 C126 1.424 . S
C119 H114 0.930 1_545 S
C119 C121 1.390 . S
C119 C122 1.339 . S
C120 C118 1.416 . S
C120 C122 1.416 . S
C120 C153 1.448 . S
C121 H106 0.930 1_545 S
C121 N117 1.334 . S
C121 C119 1.390 . S
C122 C119 1.339 . S
C122 C120 1.416 . S
C122 H129 0.930 . S
N123 Tb88 2.572 . S
N123 C124 1.340 . S
N123 C126 1.361 . S
C124 H110 0.930 . S
C124 N123 1.340 . S
C124 C128 1.407 . S
C125 C126 1.413 . S
C125 C127 1.416 . S
C125 C154 1.427 . S
C126 C118 1.424 . S
C126 N123 1.361 . S
C126 C125 1.413 . S
C127 H116 0.931 . S
C127 C125 1.416 . S
C127 C128 1.332 . S
C128 H107 0.929 . S
C128 C124 1.407 . S
C128 C127 1.332 . S
H129 C122 0.930 . S
H130 C153 0.930 . S
H131 C154 0.929 . S
O132 Tb88 2.465 . S
O132 C152 1.264 . S
O133 Tb88 2.387 . S
O133 C144 1.264 . S
O134 Tb99 2.349 1_455 S
O134 C144 1.243 . S
O135 Tb88 2.428 . S
O135 C152 1.256 . S
O136 Tb88 2.306 1_655 S
O136 C151 1.268 . S
O137 Tb99 2.393 . S
O137 C151 1.248 . S
O138 Tb99 2.465 . S
O138 C163 1.264 . S
O139 Tb99 2.387 . S
O139 C155 1.264 1_545 S
O140 Tb88 2.349 1_655 S
O140 C155 1.243 1_545 S
O141 Tb99 2.428 . S
O141 C163 1.256 . S
O142 Tb99 2.308 1_455 S
O142 C162 1.266 1_545 S
O143 Tb88 2.393 1_565 S
O143 C162 1.248 . S
C144 O133 1.264 . S
C144 O134 1.243 . S
C145 C148 1.399 1_545 S
C145 C150 1.383 . S
C145 C152 1.496 . S
C146 C147 1.399 . S
C146 C150 1.389 1_556 S
C147 C146 1.399 . S
C147 C149 1.380 1_546 S
C147 H164 0.929 1_545 S
C148 C145 1.399 1_565 S
C148 C149 1.391 . S
C148 H165 0.929 . S
C149 C147 1.380 1_564 S
C149 C148 1.391 . S
C149 H166 0.930 1_554 S
C150 C145 1.383 . S
C150 C146 1.389 1_554 S
C150 H167 0.931 . S
C151 O136 1.268 . S
C151 O137 1.248 . S
C152 Tb88 2.802 . S
C152 O132 1.264 . S
C152 O135 1.256 . S
C152 C145 1.496 . S
C153 C120 1.448 . S
C153 H130 0.930 . S
C153 C154 1.328 . S
C154 C125 1.427 . S
C154 H131 0.929 . S
C154 C153 1.328 . S
C155 O139 1.264 1_565 S
C155 O140 1.243 1_565 S
C156 C159 1.399 . S
C156 C160 1.383 . S
C156 C163 1.496 . S
C157 C158 1.399 . S
C157 C160 1.389 . S
C158 C157 1.399 . S
C158 C161 1.380 . S
C158 H168 0.929 . S
C159 C156 1.399 . S
C159 C161 1.392 . S
C159 H169 0.929 . S
C160 C156 1.383 . S
C160 C157 1.389 . S
C160 H170 0.931 . S
C161 C158 1.380 . S
C161 C159 1.392 . S
C161 H171 0.929 . S
C162 O142 1.266 1_565 S
C162 O143 1.248 . S
C163 Tb99 2.802 . S
C163 O138 1.264 . S
C163 O141 1.256 . S
C163 C156 1.496 . S
H164 C147 0.929 1_565 S
H165 C148 0.929 . S
H166 C149 0.930 1_556 S
H167 C150 0.931 . S
H168 C158 0.929 . S
H169 C159 0.929 . S
H170 C160 0.931 . S
H171 C161 0.929 . S
Tb172 N201 2.617 . S
Tb172 N207 2.572 . S
Tb172 O216 2.465 . S
Tb172 O217 2.387 . S
Tb172 O219 2.428 . S
Tb172 O220 2.308 . S
Tb172 O224 2.349 . S
Tb172 O227 2.393 . S
Tb172 C236 2.802 . S
C173 N174 1.379 . S
C173 C176 1.415 1_655 S
C173 C180 1.424 . S
N174 C173 1.379 . S
N174 C177 1.334 . S
N174 Tb183 2.617 . S
C175 C177 1.390 . S
C175 C178 1.339 1_655 S
C175 H195 0.930 1_655 S
C176 C173 1.415 1_455 S
C176 C178 1.417 . S
C176 C182 1.449 . S
C177 N174 1.334 . S
C177 C175 1.390 . S
C177 H188 0.930 . S
C178 C175 1.339 1_455 S
C178 C176 1.417 . S
C178 H199 0.930 . S
C179 C180 1.413 . S
C179 C181 1.427 1_655 S
C179 C185 1.416 . S
C180 C173 1.424 . S
C180 C179 1.413 . S
C180 N184 1.361 . S
C181 C179 1.427 1_455 S
C181 C182 1.328 . S
C181 H196 0.929 . S
C182 C176 1.449 . S
C182 C181 1.328 . S
C182 H197 0.930 . S
Tb183 N174 2.617 . S
Tb183 N184 2.572 . S
Tb183 O218 2.349 . S
Tb183 O221 2.393 . S
Tb183 O222 2.465 . S
Tb183 O223 2.387 . S
Tb183 O225 2.428 . S
Tb183 O226 2.308 . S
Tb183 C247 2.802 . S
N184 C180 1.361 . S
N184 Tb183 2.572 . S
N184 C186 1.340 . S
C185 C179 1.416 . S
C185 C187 1.332 . S
C185 H193 0.931 . S
C186 N184 1.340 . S
C186 C187 1.407 . S
C186 H192 0.930 . S
C187 C185 1.332 . S
C187 C186 1.407 . S
C187 H189 0.929 . S
H188 C177 0.930 . S
H189 C187 0.929 . S
H190 C205 0.930 . S
H191 C212 0.929 . S
H192 C186 0.930 . S
H193 C185 0.931 . S
H194 C208 0.930 . S
H195 C175 0.930 1_455 S
H196 C181 0.929 . S
H197 C182 0.930 . S
H198 C203 0.930 . S
H199 C178 0.930 . S
H200 C211 0.931 . S
N201 Tb172 2.617 . S
N201 C202 1.379 . S
N201 C205 1.334 . S
C202 N201 1.379 . S
C202 C204 1.416 . S
C202 C210 1.424 . S
C203 H198 0.930 . S
C203 C205 1.390 . S
C203 C206 1.339 1_455 S
C204 C202 1.416 . S
C204 C206 1.416 1_455 S
C204 C237 1.448 1_455 S
C205 H190 0.930 . S
C205 N201 1.334 . S
C205 C203 1.390 . S
C206 C203 1.339 1_655 S
C206 C204 1.416 1_655 S
C206 H213 0.930 . S
N207 Tb172 2.572 . S
N207 C208 1.340 . S
N207 C210 1.361 . S
C208 H194 0.930 . S
C208 N207 1.340 . S
C208 C212 1.407 . S
C209 C210 1.413 . S
C209 C211 1.416 . S
C209 C238 1.427 . S
C210 C202 1.424 . S
C210 N207 1.361 . S
C210 C209 1.413 . S
C211 H200 0.931 . S
C211 C209 1.416 . S
C211 C212 1.332 . S
C212 H191 0.929 . S
C212 C208 1.407 . S
C212 C211 1.332 . S
H213 C206 0.930 . S
H214 C237 0.930 . S
H215 C238 0.929 1_655 S
O216 Tb172 2.465 . S
O216 C236 1.264 . S
O217 Tb172 2.387 . S
O217 C228 1.264 . S
O218 Tb183 2.349 . S
O218 C228 1.243 . S
O219 Tb172 2.428 . S
O219 C236 1.256 . S
O220 Tb172 2.308 . S
O220 C235 1.266 . S
O221 Tb183 2.393 . S
O221 C235 1.248 . S
O222 Tb183 2.465 . S
O222 C247 1.264 . S
O223 Tb183 2.387 . S
O223 C239 1.264 . S
O224 Tb172 2.349 . S
O224 C239 1.243 . S
O225 Tb183 2.428 . S
O225 C247 1.256 . S
O226 Tb183 2.308 . S
O226 C246 1.266 . S
O227 Tb172 2.393 . S
O227 C246 1.248 . S
C228 O217 1.264 . S
C228 O218 1.243 . S
C229 C232 1.399 . S
C229 C234 1.383 . S
C229 C236 1.496 . S
C230 C231 1.399 . S
C230 C234 1.389 . S
C231 C230 1.399 . S
C231 C233 1.380 . S
C231 H248 0.929 . S
C232 C229 1.399 . S
C232 C233 1.392 . S
C232 H249 0.929 . S
C233 C231 1.380 . S
C233 C232 1.392 . S
C233 H250 0.929 . S
C234 C229 1.383 . S
C234 C230 1.389 . S
C234 H251 0.931 . S
C235 O220 1.266 . S
C235 O221 1.248 . S
C236 Tb172 2.802 . S
C236 O216 1.264 . S
C236 O219 1.256 . S
C236 C229 1.496 . S
C237 C204 1.448 1_655 S
C237 H214 0.930 . S
C237 C238 1.328 1_655 S
C238 C209 1.427 . S
C238 H215 0.929 1_455 S
C238 C237 1.328 1_455 S
C239 O223 1.264 . S
C239 O224 1.243 . S
C240 C243 1.399 . S
C240 C244 1.383 . S
C240 C247 1.496 . S
C241 C242 1.399 . S
C241 C244 1.389 1_554 S
C242 C241 1.399 . S
C242 C245 1.380 . S
C242 H252 0.929 . S
C243 C240 1.399 . S
C243 C245 1.392 1_556 S
C243 H253 0.929 . S
C244 C240 1.383 . S
C244 C241 1.389 1_556 S
C244 H254 0.931 . S
C245 C242 1.380 . S
C245 C243 1.392 1_554 S
C245 H255 0.929 . S
C246 O226 1.266 . S
C246 O227 1.248 . S
C247 Tb183 2.802 . S
C247 O222 1.264 . S
C247 O225 1.256 . S
C247 C240 1.496 . S
H248 C231 0.929 . S
H249 C232 0.929 . S
H250 C233 0.929 . S
H251 C234 0.931 . S
H252 C242 0.929 . S
H253 C243 0.929 . S
H254 C244 0.931 . S
H255 C245 0.929 . S
Tb256 N285 2.617 . S
Tb256 N291 2.572 1_565 S
Tb256 O300 2.465 . S
Tb256 O301 2.387 . S
Tb256 O303 2.428 . S
Tb256 O304 2.308 1_455 S
Tb256 O308 2.349 1_455 S
Tb256 O311 2.393 . S
Tb256 C320 2.802 . S
C257 N258 1.379 . S
C257 C260 1.416 . S
C257 C264 1.424 . S
N258 C257 1.379 . S
N258 C261 1.334 . S
N258 Tb267 2.617 . S
C259 C261 1.390 . S
C259 C262 1.339 . S
C259 H279 0.930 1_565 S
C260 C257 1.416 . S
C260 C262 1.416 . S
C260 C266 1.448 . S
C261 N258 1.334 . S
C261 C259 1.390 . S
C261 H272 0.930 1_565 S
C262 C259 1.339 . S
C262 C260 1.416 . S
C262 H283 0.930 . S
C263 C264 1.413 . S
C263 C265 1.427 . S
C263 C269 1.416 . S
C264 C257 1.424 . S
C264 C263 1.413 . S
C264 N268 1.361 . S
C265 C263 1.427 . S
C265 C266 1.328 . S
C265 H280 0.929 . S
C266 C260 1.448 . S
C266 C265 1.328 . S
C266 H281 0.930 . S
Tb267 N258 2.617 . S
Tb267 N268 2.572 . S
Tb267 O302 2.349 1_655 S
Tb267 O305 2.393 1_565 S
Tb267 O306 2.465 . S
Tb267 O307 2.387 . S
Tb267 O309 2.428 . S
Tb267 O310 2.308 1_655 S
Tb267 C331 2.802 . S
N268 C264 1.361 . S
N268 Tb267 2.572 . S
N268 C270 1.340 . S
C269 C263 1.416 . S
C269 C271 1.332 . S
C269 H277 0.931 . S
C270 N268 1.340 . S
C270 C271 1.407 . S
C270 H276 0.930 . S
C271 C269 1.332 . S
C271 C270 1.407 . S
C271 H273 0.929 . S
H272 C261 0.930 1_545 S
H273 C271 0.929 . S
H274 C289 0.930 . S
H275 C296 0.929 . S
H276 C270 0.930 . S
H277 C269 0.931 . S
H278 C292 0.930 . S
H279 C259 0.930 1_545 S
H280 C265 0.929 . S
H281 C266 0.930 . S
H282 C287 0.930 . S
H283 C262 0.930 . S
H284 C295 0.931 . S
N285 Tb256 2.617 . S
N285 C286 1.379 . S
N285 C289 1.334 . S
C286 N285 1.379 . S
C286 C288 1.416 . S
C286 C294 1.424 1_565 S
C287 H282 0.930 . S
C287 C289 1.390 . S
C287 C290 1.339 . S
C288 C286 1.416 . S
C288 C290 1.416 . S
C288 C321 1.448 1_565 S
C289 H274 0.930 . S
C289 N285 1.334 . S
C289 C287 1.390 . S
C290 C287 1.339 . S
C290 C288 1.416 . S
C290 H297 0.930 . S
N291 Tb256 2.572 1_545 S
N291 C292 1.340 . S
N291 C294 1.361 . S
C292 H278 0.930 . S
C292 N291 1.340 . S
C292 C296 1.407 . S
C293 C294 1.413 . S
C293 C295 1.416 . S
C293 C322 1.427 . S
C294 C286 1.424 1_545 S
C294 N291 1.361 . S
C294 C293 1.413 . S
C295 H284 0.931 . S
C295 C293 1.416 . S
C295 C296 1.332 . S
C296 H275 0.929 . S
C296 C292 1.407 . S
C296 C295 1.332 . S
H297 C290 0.930 . S
H298 C321 0.930 . S
H299 C322 0.929 . S
O300 Tb256 2.465 . S
O300 C320 1.264 . S
O301 Tb256 2.387 . S
O301 C312 1.264 1_565 S
O302 Tb267 2.349 1_455 S
O302 C312 1.243 1_565 S
O303 Tb256 2.428 . S
O303 C320 1.256 . S
O304 Tb256 2.308 1_655 S
O304 C319 1.266 1_565 S
O305 Tb267 2.393 1_545 S
O305 C319 1.248 . S
O306 Tb267 2.465 . S
O306 C331 1.264 . S
O307 Tb267 2.387 . S
O307 C323 1.264 . S
O308 Tb256 2.349 1_655 S
O308 C323 1.243 . S
O309 Tb267 2.428 . S
O309 C331 1.256 . S
O310 Tb267 2.308 1_455 S
O310 C330 1.266 . S
O311 Tb256 2.393 . S
O311 C330 1.248 . S
C312 O301 1.264 1_545 S
C312 O302 1.243 1_545 S
C313 C316 1.399 . S
C313 C318 1.383 . S
C313 C320 1.496 . S
C314 C315 1.399 . S
C314 C318 1.389 . S
C315 C314 1.399 . S
C315 C317 1.380 . S
C315 H332 0.929 . S
C316 C313 1.399 . S
C316 C317 1.392 . S
C316 H333 0.929 . S
C317 C315 1.380 . S
C317 C316 1.392 . S
C317 H334 0.929 . S
C318 C313 1.383 . S
C318 C314 1.389 . S
C318 H335 0.931 . S
C319 O304 1.266 1_545 S
C319 O305 1.248 . S
C320 Tb256 2.802 . S
C320 O300 1.264 . S
C320 O303 1.256 . S
C320 C313 1.496 . S
C321 C288 1.448 1_545 S
C321 H298 0.930 . S
C321 C322 1.328 . S
C322 C293 1.427 . S
C322 H299 0.929 . S
C322 C321 1.328 . S
C323 O307 1.264 . S
C323 O308 1.243 . S
C324 C327 1.399 1_565 S
C324 C328 1.383 . S
C324 C331 1.496 . S
C325 C326 1.399 . S
C325 C328 1.389 1_554 S
C326 C325 1.399 . S
C326 C329 1.380 1_565 S
C326 H336 0.929 1_565 S
C327 C324 1.399 1_545 S
C327 C329 1.392 1_556 S
C327 H337 0.929 . S
C328 C324 1.383 . S
C328 C325 1.389 1_556 S
C328 H338 0.931 . S
C329 C326 1.380 1_545 S
C329 C327 1.392 1_554 S
C329 H339 0.929 . S
C330 O310 1.266 . S
C330 O311 1.248 . S
C331 Tb267 2.802 . S
C331 O306 1.264 . S
C331 O309 1.256 . S
C331 C324 1.496 . S
H332 C315 0.929 . S
H333 C316 0.929 . S
H334 C317 0.929 . S
H335 C318 0.931 . S
H336 C326 0.929 1_545 S
H337 C327 0.929 . S
H338 C328 0.931 . S
H339 C329 0.929 . S
Tb340 N369 2.617 . S
Tb340 N375 2.572 . S
Tb340 O384 2.465 . S
Tb340 O385 2.387 . S
Tb340 O387 2.428 . S
Tb340 O388 2.308 . S
Tb340 O392 2.349 . S
Tb340 O395 2.393 . S
Tb340 C404 2.802 . S
C341 N342 1.379 . S
C341 C344 1.416 . S
C341 C348 1.424 . S
N342 C341 1.379 . S
N342 C345 1.334 . S
N342 Tb351 2.617 . S
C343 C345 1.390 . S
C343 C346 1.339 1_655 S
C343 H363 0.930 1_655 S
C344 C341 1.416 . S
C344 C346 1.416 1_655 S
C344 C350 1.448 1_655 S
C345 N342 1.334 . S
C345 C343 1.390 . S
C345 H356 0.930 . S
C346 C343 1.339 1_455 S
C346 C344 1.416 1_455 S
C346 H367 0.930 . S
C347 C348 1.413 . S
C347 C349 1.427 . S
C347 C353 1.416 . S
C348 C341 1.424 . S
C348 C347 1.413 . S
C348 N352 1.361 . S
C349 C347 1.427 . S
C349 C350 1.328 1_655 S
C349 H364 0.929 1_655 S
C350 C344 1.448 1_455 S
C350 C349 1.328 1_455 S
C350 H365 0.930 . S
Tb351 N342 2.617 . S
Tb351 N352 2.572 . S
Tb351 O386 2.349 . S
Tb351 O389 2.393 . S
Tb351 O390 2.465 . S
Tb351 O391 2.387 . S
Tb351 O393 2.428 . S
Tb351 O394 2.308 . S
Tb351 C415 2.802 . S
N352 C348 1.361 . S
N352 Tb351 2.572 . S
N352 C354 1.340 . S
C353 C347 1.416 . S
C353 C355 1.332 . S
C353 H361 0.931 . S
C354 N352 1.340 . S
C354 C355 1.407 . S
C354 H360 0.930 . S
C355 C353 1.332 . S
C355 C354 1.407 . S
C355 H357 0.929 . S
H356 C345 0.930 . S
H357 C355 0.929 . S
H358 C373 0.930 . S
H359 C380 0.929 . S
H360 C354 0.930 . S
H361 C353 0.931 . S
H362 C376 0.930 . S
H363 C343 0.930 1_455 S
H364 C349 0.929 1_455 S
H365 C350 0.930 . S
H366 C371 0.930 1_655 S
H367 C346 0.930 . S
H368 C379 0.931 . S
N369 Tb340 2.617 . S
N369 C370 1.379 . S
N369 C373 1.334 . S
C370 N369 1.379 . S
C370 C372 1.416 . S
C370 C378 1.424 . S
C371 H366 0.930 1_455 S
C371 C373 1.390 . S
C371 C374 1.339 1_455 S
C372 C370 1.416 . S
C372 C374 1.416 1_455 S
C372 C405 1.448 1_455 S
C373 H358 0.930 . S
C373 N369 1.334 . S
C373 C371 1.390 . S
C374 C371 1.339 1_655 S
C374 C372 1.416 1_655 S
C374 H381 0.930 . S
N375 Tb340 2.572 . S
N375 C376 1.340 . S
N375 C378 1.361 . S
C376 H362 0.930 . S
C376 N375 1.340 . S
C376 C380 1.407 . S
C377 C378 1.413 . S
C377 C379 1.416 . S
C377 C406 1.427 . S
C378 C370 1.424 . S
C378 N375 1.361 . S
C378 C377 1.413 . S
C379 H368 0.931 . S
C379 C377 1.416 . S
C379 C380 1.332 . S
C380 H359 0.929 . S
C380 C376 1.407 . S
C380 C379 1.332 . S
H381 C374 0.930 . S
H382 C405 0.930 . S
H383 C406 0.929 1_655 S
O384 Tb340 2.465 . S
O384 C404 1.264 . S
O385 Tb340 2.387 . S
O385 C396 1.264 . S
O386 Tb351 2.349 . S
O386 C396 1.243 . S
O387 Tb340 2.428 . S
O387 C404 1.256 . S
O388 Tb340 2.308 . S
O388 C403 1.266 . S
O389 Tb351 2.393 . S
O389 C403 1.248 . S
O390 Tb351 2.465 . S
O390 C415 1.264 . S
O391 Tb351 2.387 . S
O391 C407 1.264 . S
O392 Tb340 2.349 . S
O392 C407 1.243 . S
O393 Tb351 2.428 . S
O393 C415 1.256 . S
O394 Tb351 2.308 . S
O394 C414 1.266 . S
O395 Tb340 2.393 . S
O395 C414 1.248 . S
C396 O385 1.264 . S
C396 O386 1.243 . S
C397 C400 1.399 . S
C397 C402 1.383 . S
C397 C404 1.496 . S
C398 C399 1.399 . S
C398 C402 1.389 1_556 S
C399 C398 1.399 . S
C399 C401 1.380 . S
C399 H416 0.929 . S
C400 C397 1.399 . S
C400 C401 1.392 1_554 S
C400 H417 0.929 . S
C401 C399 1.380 . S
C401 C400 1.392 1_556 S
C401 H418 0.929 . S
C402 C397 1.383 . S
C402 C398 1.389 1_554 S
C402 H419 0.931 . S
C403 O388 1.266 . S
C403 O389 1.248 . S
C404 Tb340 2.802 . S
C404 O384 1.264 . S
C404 O387 1.256 . S
C404 C397 1.496 . S
C405 C372 1.448 1_655 S
C405 H382 0.930 . S
C405 C406 1.328 1_655 S
C406 C377 1.427 . S
C406 H383 0.929 1_455 S
C406 C405 1.328 1_455 S
C407 O391 1.264 . S
C407 O392 1.243 . S
C408 C411 1.399 . S
C408 C412 1.383 . S
C408 C415 1.496 . S
C409 C410 1.399 . S
C409 C412 1.389 . S
C410 C409 1.399 . S
C410 C413 1.380 . S
C410 H420 0.929 . S
C411 C408 1.399 . S
C411 C413 1.392 . S
C411 H421 0.929 . S
C412 C408 1.383 . S
C412 C409 1.389 . S
C412 H422 0.931 . S
C413 C410 1.380 . S
C413 C411 1.392 . S
C413 H423 0.929 . S
C414 O394 1.266 . S
C414 O395 1.248 . S
C415 Tb351 2.802 . S
C415 O390 1.264 . S
C415 O393 1.256 . S
C415 C408 1.496 . S
H416 C399 0.929 . S
H417 C400 0.929 . S
H418 C401 0.929 . S
H419 C402 0.931 . S
H420 C410 0.929 . S
H421 C411 0.929 . S
H422 C412 0.931 . S
H423 C413 0.929 . S
C71 C162 1.885 . S
C246 C81 1.910 . S
C239 C49 1.819 . S
C59 C155 1.826 . S
C319 C27 1.905 . S
C403 C38 1.931 . S
C5 C396 1.834 . S
C16 C312 1.881 . S
C146 C15 1.482 . S
C230 C4 1.561 . S
C241 C37 1.264 . S
C157 C26 1.284 . S
C325 C60 1.620 . S
C48 C409 1.612 . S
C398 C82 1.324 . S
C70 C314 1.350 . S
C144 C10 1.526 . S
C228 C21 1.568 . S
C32 C235 1.393 . S
C151 C43 1.441 . S
C323 C54 1.576 . S
C65 C407 1.576 . S
C76 C414 1.507 . S
C87 C330 1.575 . S
