# Generated by pormake.
# Topology pyr, (3,6)-cn, num edge types: 1
# Building blocks:
#     Node 0, Type 0, BuildingBlock: BETDIP_clean_linker_0, # of connection points: 3
#     Node 1, Type 0, BuildingBlock: BETDIP_clean_linker_0, # of connection points: 3
#     Node 2, Type 0, BuildingBlock: BETDIP_clean_linker_0, # of connection points: 3
#     Node 3, Type 0, BuildingBlock: BETDIP_clean_linker_0, # of connection points: 3
#     Node 4, Type 0, BuildingBlock: BETDIP_clean_linker_0, # of connection points: 3
#     Node 5, Type 0, BuildingBlock: BETDIP_clean_linker_0, # of connection points: 3
#     Node 6, Type 0, BuildingBlock: BETDIP_clean_linker_0, # of connection points: 3
#     Node 7, Type 0, BuildingBlock: BETDIP_clean_linker_0, # of connection points: 3
#     Node 8, Type 1, BuildingBlock: BETGAK_clean_sbu_0, # of connection points: 6
#     Node 9, Type 1, BuildingBlock: BETGAK_clean_sbu_0, # of connection points: 6
#     Node 10, Type 1, BuildingBlock: BETGAK_clean_sbu_0, # of connection points: 6
#     Node 11, Type 1, BuildingBlock: BETGAK_clean_sbu_0, # of connection points: 6
#     Edge 12, Type (0, 1), BuildingBlock: AJUNOK_clean_linker_0, # of connection points: 2
#     Edge 13, Type (0, 1), BuildingBlock: AJUNOK_clean_linker_0, # of connection points: 2
#     Edge 14, Type (0, 1), BuildingBlock: AJUNOK_clean_linker_0, # of connection points: 2
#     Edge 15, Type (0, 1), BuildingBlock: AJUNOK_clean_linker_0, # of connection points: 2
#     Edge 16, Type (0, 1), BuildingBlock: AJUNOK_clean_linker_0, # of connection points: 2
#     Edge 17, Type (0, 1), BuildingBlock: AJUNOK_clean_linker_0, # of connection points: 2
#     Edge 18, Type (0, 1), BuildingBlock: AJUNOK_clean_linker_0, # of connection points: 2
#     Edge 19, Type (0, 1), BuildingBlock: AJUNOK_clean_linker_0, # of connection points: 2
#     Edge 20, Type (0, 1), BuildingBlock: AJUNOK_clean_linker_0, # of connection points: 2
#     Edge 21, Type (0, 1), BuildingBlock: AJUNOK_clean_linker_0, # of connection points: 2
#     Edge 22, Type (0, 1), BuildingBlock: AJUNOK_clean_linker_0, # of connection points: 2
#     Edge 23, Type (0, 1), BuildingBlock: AJUNOK_clean_linker_0, # of connection points: 2
#     Edge 24, Type (0, 1), BuildingBlock: AJUNOK_clean_linker_0, # of connection points: 2
#     Edge 25, Type (0, 1), BuildingBlock: AJUNOK_clean_linker_0, # of connection points: 2
#     Edge 26, Type (0, 1), BuildingBlock: AJUNOK_clean_linker_0, # of connection points: 2
#     Edge 27, Type (0, 1), BuildingBlock: AJUNOK_clean_linker_0, # of connection points: 2
#     Edge 28, Type (0, 1), BuildingBlock: AJUNOK_clean_linker_0, # of connection points: 2
#     Edge 29, Type (0, 1), BuildingBlock: AJUNOK_clean_linker_0, # of connection points: 2
#     Edge 30, Type (0, 1), BuildingBlock: AJUNOK_clean_linker_0, # of connection points: 2
#     Edge 31, Type (0, 1), BuildingBlock: AJUNOK_clean_linker_0, # of connection points: 2
#     Edge 32, Type (0, 1), BuildingBlock: AJUNOK_clean_linker_0, # of connection points: 2
#     Edge 33, Type (0, 1), BuildingBlock: AJUNOK_clean_linker_0, # of connection points: 2
#     Edge 34, Type (0, 1), BuildingBlock: AJUNOK_clean_linker_0, # of connection points: 2
#     Edge 35, Type (0, 1), BuildingBlock: AJUNOK_clean_linker_0, # of connection points: 2
# Relax obj value: 0.192
# Max RMSD: 0.179
# Mean RMSD: 0.138
data_MOF--net-pyr--node1-BETGAK_clean_sbu_0--node2-BETDIP_clean_linker_0--edge1-AJUNOK_clean_linker_0
_symmetry_space_group_name_H-M    P1
_symmetry_Int_Tables_number       1
_symmetry_cell_setting            triclinic
loop_
_symmetry_equiv_pos_as_xyz
'x, y, z'
_cell_length_a     27.863123
_cell_length_b     28.705025
_cell_length_c     27.643857
_cell_angle_alpha  91.722449
_cell_angle_beta   86.680697
_cell_angle_gamma 109.19445
loop_
_atom_site_label
_atom_site_type_symbol
_atom_site_fract_x
_atom_site_fract_y
_atom_site_fract_z
_atom_type_partial_charge
H0 H 0.39474 0.38108 0.29184 0.0
H1 H 0.46589 0.34353 0.16256 0.0
H2 H 0.49 0.29088 0.29965 0.0
H3 H 0.40331 0.45188 0.25193 0.0
C4 C 0.39064 0.43416 0.21749 0.0
C5 C 0.42265 0.36611 0.27511 0.0
C6 C 0.44062 0.33518 0.302 0.0
C7 C 0.43472 0.37212 0.22519 0.0
C8 C 0.46224 0.3443 0.2018 0.0
C9 C 0.48137 0.31438 0.22884 0.0
C10 C 0.47497 0.3142 0.27928 0.0
N11 N 0.41235 0.39922 0.19705 0.0
H12 H 0.1535 0.87463 0.76014 0.0
H13 H 0.17513 0.79897 0.62787 0.0
H14 H 0.29288 0.84359 0.7296 0.0
H15 H 0.11496 0.83498 0.60111 0.0
C16 C 0.1072 0.8553 0.6327 0.0
C17 C 0.1764 0.85791 0.73719 0.0
C18 C 0.22552 0.86208 0.74951 0.0
C19 C 0.15827 0.83578 0.69321 0.0
C20 C 0.18879 0.81608 0.6621 0.0
C21 C 0.23735 0.81904 0.67549 0.0
C22 C 0.2552 0.84151 0.71929 0.0
N23 N 0.11136 0.83821 0.67908 0.0
H24 H 0.7621 0.50093 0.89076 0.0
H25 H 0.63543 0.36807 0.87134 0.0
H26 H 0.74914 0.37065 0.97126 0.0
H27 H 0.63523 0.40373 0.79492 0.0
C28 C 0.6479 0.44345 0.80039 0.0
C29 C 0.74246 0.46262 0.89952 0.0
C30 C 0.76174 0.43969 0.93499 0.0
C31 C 0.6979 0.43723 0.87494 0.0
C32 C 0.67051 0.38765 0.88841 0.0
C33 C 0.68804 0.36357 0.92468 0.0
C34 C 0.73454 0.38967 0.94566 0.0
N35 N 0.68134 0.4639 0.83912 0.0
H36 H 0.82467 0.67091 0.39018 0.0
H37 H 0.94746 0.80773 0.36665 0.0
H38 H 0.83681 0.79383 0.48592 0.0
H39 H 0.96179 0.76924 0.29311 0.0
C40 C 0.94473 0.7296 0.29689 0.0
C41 C 0.84375 0.70904 0.40021 0.0
C42 C 0.82426 0.72992 0.44021 0.0
C43 C 0.88829 0.73615 0.37335 0.0
C44 C 0.91338 0.78616 0.38686 0.0
C45 C 0.89413 0.80813 0.42709 0.0
C46 C 0.85064 0.77869 0.45382 0.0
N47 N 0.90634 0.71038 0.33469 0.0
H48 H 0.60408 0.80298 0.99454 0.0
H49 H 0.69254 0.78192 0.8689 0.0
H50 H 0.60938 0.88312 0.86427 0.0
H51 H 0.66543 0.69887 0.90261 0.0
C52 C 0.68252 0.71671 0.93559 0.0
C53 C 0.61486 0.80922 0.95638 0.0
C54 C 0.60195 0.84528 0.93165 0.0
C55 C 0.64493 0.78381 0.93278 0.0
C56 C 0.6642 0.79666 0.88524 0.0
C57 C 0.65263 0.83339 0.8611 0.0
C58 C 0.61778 0.85419 0.88289 0.0
N59 N 0.66217 0.75123 0.95926 0.0
H60 H 0.91118 0.27853 0.39624 0.0
H61 H 0.87536 0.34795 0.5269 0.0
H62 H 0.75724 0.27255 0.43109 0.0
H63 H 0.96323 0.3361 0.5498 0.0
C64 C 0.96584 0.31516 0.51695 0.0
C65 C 0.88324 0.28653 0.42105 0.0
C66 C 0.8321 0.27106 0.41007 0.0
C67 C 0.89861 0.31339 0.46353 0.0
C68 C 0.86286 0.32534 0.49497 0.0
C69 C 0.81155 0.31055 0.48351 0.0
C70 C 0.79637 0.28258 0.4414 0.0
N71 N 0.95057 0.32948 0.47363 0.0
H72 H 0.33193 0.6888 0.25406 0.0
H73 H 0.46803 0.81401 0.26323 0.0
H74 H 0.35354 0.81362 0.16367 0.0
H75 H 0.46061 0.78109 0.34698 0.0
C76 C 0.44844 0.74148 0.34065 0.0
C77 C 0.35465 0.72546 0.24225 0.0
C78 C 0.33651 0.74847 0.20619 0.0
C79 C 0.40107 0.74916 0.26449 0.0
C80 C 0.4312 0.79727 0.24836 0.0
C81 C 0.41485 0.82186 0.21126 0.0
C82 C 0.36717 0.7963 0.19149 0.0
N83 N 0.41664 0.7219 0.30054 0.0
H84 H 0.13938 0.36375 0.77367 0.0
H85 H 0.26078 0.5022 0.75544 0.0
H86 H 0.25119 0.38341 0.65478 0.0
H87 H 0.24044 0.51442 0.83243 0.0
C88 C 0.20006 0.49645 0.84007 0.0
C89 C 0.17275 0.38649 0.75328 0.0
C90 C 0.19173 0.36692 0.7115 0.0
C91 C 0.19711 0.43513 0.77017 0.0
C92 C 0.24205 0.46441 0.74449 0.0
C93 C 0.26216 0.44562 0.70307 0.0
C94 C 0.23625 0.39735 0.68702 0.0
N95 N 0.17474 0.45343 0.81193 0.0
La96 La 0.08408 0.10236 0.53055 0.0
La97 La 1.00355 1.07118 0.60819 0.0
C98 C 0.13624 0.1356 0.45566 0.0
C99 C 0.18372 0.17657 0.45053 0.0
C100 C 0.22192 0.18337 0.48375 0.0
C101 C 0.26918 0.21925 0.47552 0.0
C102 C 0.27794 0.24912 0.43477 0.0
C103 C 0.23817 0.24554 0.4044 0.0
C104 C 0.19118 0.20913 0.41215 0.0
C105 C 0.10333 1.04945 0.5979 0.0
C106 C 0.09808 0.17123 0.62221 0.0
C107 C 0.95308 1.04136 0.68507 0.0
C108 C 0.90781 0.99952 0.69673 0.0
C109 C 0.86375 0.98967 0.67042 0.0
C110 C 0.8188 0.95409 0.68665 0.0
C111 C 0.81812 0.92779 0.72855 0.0
C112 C 0.86316 0.93445 0.75211 0.0
C113 C 0.90792 0.97039 0.73629 0.0
C114 C 0.98419 0.12425 0.54124 0.0
C115 C 0.99007 1.00247 0.51632 0.0
O116 O 0.13901 0.09708 0.47806 0.0
O117 O 0.09646 0.14793 0.47023 0.0
O118 O 0.13777 0.08497 0.57511 0.0
O119 O 0.06127 1.04395 0.58032 0.0
O120 O 0.11527 0.1665 0.5774 0.0
O121 O 0.05774 0.13699 0.6419 0.0
O122 O 0.94642 0.07548 0.65849 0.0
O123 O 0.99391 1.0304 0.67155 0.0
O124 O 0.95007 0.08763 0.56297 0.0
O125 O 1.02631 0.12976 0.55882 0.0
O126 O 0.97392 1.00629 0.56178 0.0
O127 O 1.0294 1.03744 0.49606 0.0
H128 H 0.21625 0.15933 0.51454 0.0
H129 H 0.29989 0.22114 0.49862 0.0
H130 H 0.24492 0.26788 0.37219 0.0
H131 H 0.1616 0.20485 0.38695 0.0
H132 H 0.86322 1.01121 0.63906 0.0
H133 H 0.78393 0.94973 0.66882 0.0
H134 H 0.86266 0.91481 0.78511 0.0
H135 H 0.94185 0.97726 0.75644 0.0
La136 La 0.59732 0.0993 0.08296 0.0
La137 La 0.50218 0.08767 1.04536 0.0
C138 C 0.69016 0.13347 0.0987 0.0
C139 C 0.71872 0.14323 0.14222 0.0
C140 C 0.69662 0.11987 0.18577 0.0
C141 C 0.71995 0.13648 0.22907 0.0
C142 C 0.765 0.17677 0.22885 0.0
C143 C 0.78846 0.19827 0.18506 0.0
C144 C 0.76535 0.18143 0.14176 0.0
C145 C 0.5332 1.02045 0.12999 0.0
C146 C 0.52376 0.14688 0.13925 0.0
C147 C 0.42033 1.07126 1.00455 0.0
C148 C 0.38244 1.03174 0.98073 0.0
C149 C 0.33907 1.04064 0.96622 0.0
C150 C 0.30722 1.00788 0.9346 0.0
C151 C 0.31898 0.96637 0.91755 0.0
C152 C 0.36067 0.95583 0.93443 0.0
C153 C 0.39237 0.98846 0.96631 0.0
C154 C 0.57275 0.17387 1.02128 0.0
C155 C 0.56282 1.01968 1.00636 0.0
O156 O 0.66687 0.08707 0.0883 0.0
O157 O 0.66116 0.16079 0.09483 0.0
O158 O 0.58046 1.04191 0.13834 0.0
O159 O 0.52142 1.04543 0.09838 0.0
O160 O 0.57157 0.15043 0.12889 0.0
O161 O 0.48716 0.11511 0.11582 0.0
O162 O 0.46518 0.08579 0.98184 0.0
O163 O 0.42263 1.06735 1.05129 0.0
O164 O 0.52761 0.16754 1.03928 0.0
O165 O 0.57889 0.13175 1.01995 0.0
O166 O 0.51686 1.02173 1.01629 0.0
O167 O 0.60253 1.05612 1.01934 0.0
H168 H 0.66018 0.09074 0.18669 0.0
H169 H 0.70127 0.1201 0.26287 0.0
H170 H 0.82314 0.22971 0.18475 0.0
H171 H 0.78232 0.20003 0.10836 0.0
H172 H 0.33163 0.07437 0.97691 0.0
H173 H 0.27563 1.01668 0.9208 0.0
H174 H 0.3704 0.92419 0.92054 0.0
H175 H 0.42612 0.98156 0.97716 0.0
La176 La 0.53902 0.54839 0.54059 0.0
La177 La 0.54745 0.63157 0.60334 0.0
C178 C 0.56122 0.48162 0.49324 0.0
C179 C 0.59393 0.45305 0.50437 0.0
C180 C 0.58651 0.40676 0.48274 0.0
C181 C 0.61938 0.38067 0.49154 0.0
C182 C 0.65953 0.40032 0.5228 0.0
C183 C 0.66558 0.44597 0.54574 0.0
C184 C 0.63343 0.47238 0.53616 0.0
C185 C 0.45198 0.54218 0.58855 0.0
C186 C 0.5833 0.55121 0.64828 0.0
C187 C 0.5225 0.69653 0.65061 0.0
C188 C 0.4815 0.71587 0.6415 0.0
C189 C 0.48308 0.76248 0.65897 0.0
C190 C 0.44282 0.77974 0.65136 0.0
C191 C 0.40089 0.75072 0.62562 0.0
C192 C 0.40029 0.70464 0.60698 0.0
C193 C 0.44015 0.68723 0.61507 0.0
C194 C 0.63446 0.63801 0.55559 0.0
C195 C 0.50504 0.62977 0.4951 0.0
O196 O 0.51973 0.47343 0.5209 0.0
O197 O 0.58489 0.52869 0.48677 0.0
O198 O 0.45607 0.52845 0.54376 0.0
O199 O 0.49605 0.55765 0.60484 0.0
O200 O 0.57515 0.53033 0.60454 0.0
O201 O 0.57323 0.59251 0.65784 0.0
O202 O 0.56002 0.70686 0.61778 0.0
O203 O 0.5071 0.6501 0.66274 0.0
O204 O 0.63044 0.65284 0.60001 0.0
O205 O 0.59042 0.62234 0.53929 0.0
O206 O 0.50983 0.64873 0.53982 0.0
O207 O 0.51728 0.58966 0.48514 0.0
H208 H 0.55634 0.39153 0.45794 0.0
H209 H 0.61474 0.34627 0.47212 0.0
H210 H 0.69631 0.46204 0.56974 0.0
H211 H 0.6406 0.50857 0.55248 0.0
H212 H 0.51471 0.78489 0.67946 0.0
H213 H 0.44355 0.81485 0.66738 0.0
H214 H 0.36832 0.68152 0.58737 0.0
H215 H 0.43797 0.65081 0.60165 0.0
La216 La 0.04818 0.54769 0.09073 0.0
La217 La 0.05485 0.64295 1.04124 0.0
C218 C 0.06852 0.47054 0.10452 0.0
C219 C 0.11542 0.46323 0.11878 0.0
C220 C 0.1136 0.43317 0.15831 0.0
C221 C 0.1583 0.42801 0.17396 0.0
C222 C 0.20519 0.4524 0.14977 0.0
C223 C 0.20707 0.48255 0.1103 0.0
C224 C 0.16257 0.48818 0.09502 0.0
C225 C 1.0094 0.60276 0.15156 0.0
C226 C 0.1428 0.64636 0.10948 0.0
C227 C 1.03172 0.71434 1.01185 0.0
C228 C 0.98329 0.71711 0.99605 0.0
C229 C 0.94977 0.6772 0.97149 0.0
C230 C 0.9014 0.67736 0.96164 0.0
C231 C 0.88609 0.71829 0.97451 0.0
C232 C 0.92013 0.75871 0.99828 0.0
C233 C 0.96822 0.75792 1.00929 0.0
C234 C 0.10672 0.59056 0.99552 0.0
C235 C 0.95511 0.54453 1.03006 0.0
O236 O 0.04579 0.49065 0.13754 0.0
O237 O 0.07046 0.4894 0.06165 0.0
O238 O 1.01006 0.55892 0.16077 0.0
O239 O 1.02838 0.61151 0.10887 0.0
O240 O 0.12537 0.59724 0.10792 0.0
O241 O 0.11804 0.67263 0.08934 0.0
O242 O 0.05366 0.68871 0.98399 0.0
O243 O 1.03156 0.70432 1.05772 0.0
O244 O 0.12161 0.63849 0.9982 0.0
O245 O 0.06319 0.57409 1.01736 0.0
O246 O 0.98005 0.59155 1.01958 0.0
O247 O 0.97408 0.51923 1.05845 0.0
H248 H 0.07766 0.41415 0.17735 0.0
H249 H 0.15629 0.40476 0.20468 0.0
H250 H 0.24309 0.5023 0.09179 0.0
H251 H 0.16525 0.51243 0.06496 0.0
H252 H 0.96053 0.64544 0.96044 0.0
H253 H 0.87574 0.64493 0.94468 0.0
H254 H 0.90953 0.79086 1.0085 0.0
H255 H 0.99341 0.78887 1.02866 0.0
C256 C 0.39279 0.34404 0.37937 0.0
C257 C 0.41198 0.31419 0.34759 0.0
C258 C 0.3514 0.32298 0.41191 0.0
C259 C 0.32985 0.27167 0.41496 0.0
H260 H 0.40676 0.3838 0.37598 0.0
H261 H 0.33399 0.34668 0.43216 0.0
S262 S 0.36916 0.17684 0.34585 0.0
N263 N 0.40754 0.22992 0.32482 0.0
N264 N 0.33302 0.19139 0.38895 0.0
C265 C 0.35216 0.24153 0.38794 0.0
C266 C 0.39273 0.26255 0.35358 0.0
C267 C 0.22345 0.8791 0.83826 0.0
C268 C 0.24786 0.89063 0.79215 0.0
C269 C 0.24663 0.90383 0.87948 0.0
C270 C 0.29452 0.94028 0.87511 0.0
H271 H 0.18697 0.85018 0.84247 0.0
H272 H 0.2275 0.89417 0.91481 0.0
S273 S 0.37167 0.98686 0.76253 0.0
N274 N 0.32052 0.94322 0.7443 0.0
N275 N 0.3644 0.98896 0.82217 0.0
C276 C 0.31862 0.95299 0.82932 0.0
C277 C 0.2951 0.92829 0.78757 0.0
C278 C 0.61424 0.45083 0.7186 0.0
C279 C 0.63424 0.47394 0.76235 0.0
C280 C 0.59918 0.47613 0.68218 0.0
C281 C 0.60215 0.5261 0.6875 0.0
H282 H 0.61006 0.41231 0.71228 0.0
H283 H 0.58411 0.45576 0.64974 0.0
S284 S 0.65192 0.6049 0.79483 0.0
N285 N 0.65686 0.55097 0.80816 0.0
N286 N 0.62759 0.59796 0.74093 0.0
C287 C 0.6222 0.54992 0.7311 0.0
C288 C 0.63844 0.5242 0.76799 0.0
C289 C 0.98997 0.71642 0.21756 0.0
C290 C 0.95935 0.69626 0.25942 0.0
C291 C 1.00506 0.68648 0.18208 0.0
C292 C 0.9905 0.63487 0.18686 0.0
H293 H 1.00274 0.75592 0.21226 0.0
H294 H 1.0295 0.70416 0.15149 0.0
S295 S 0.9112 0.56312 0.28953 0.0
N296 N 0.91552 0.6207 0.30302 0.0
N297 N 0.94372 0.56517 0.23736 0.0
C298 C 0.95995 0.61435 0.2285 0.0
C299 C 0.9444 0.64467 0.26435 0.0
C300 C 0.54248 0.27189 0.1984 0.0
C301 C 0.49246 0.27219 0.20557 0.0
C302 C 0.55228 0.2299 0.17942 0.0
C303 C 0.51225 0.18679 0.1676 0.0
H304 H 0.57406 0.30434 0.2072 0.0
H305 H 0.59158 0.23189 0.17272 0.0
S306 S 0.37403 0.16826 0.18604 0.0
N307 N 0.40243 0.22576 0.2036 0.0
N308 N 0.42027 0.14638 0.16869 0.0
C309 C 0.46185 0.18631 0.17692 0.0
C310 C 0.4521 0.22918 0.19567 0.0
C311 C 0.12692 0.92924 0.58158 0.0
C312 C 0.11038 0.90716 0.62684 0.0
C313 C 0.1288 0.97764 0.57369 0.0
C314 C 0.11416 1.00534 0.61086 0.0
H315 H 0.13744 0.9086 0.55174 0.0
H316 H 0.13915 0.99259 0.53757 0.0
S317 S 0.07052 0.96624 0.7364 0.0
N318 N 0.08118 0.91784 0.71014 0.0
N319 N 0.08471 1.00908 0.69447 0.0
C320 C 0.09926 0.98466 0.6566 0.0
C321 C 0.09746 0.9354 0.6649 0.0
C322 C 0.85137 0.50356 0.93638 0.0
C323 C 0.8102 0.46771 0.96078 0.0
C324 C 0.89726 0.52875 0.95911 0.0
C325 C 0.90507 0.51887 1.00721 0.0
H326 H 0.84879 0.51172 0.89885 0.0
H327 H 0.92752 0.55524 0.93819 0.0
S328 S 0.80879 0.43343 0.08994 0.0
N329 N 0.77973 0.42851 1.03877 0.0
N330 N 0.8665 0.47296 0.07945 0.0
C331 C 0.86433 0.48397 1.03235 0.0
C332 C 0.81705 0.45927 1.0098 0.0
C333 C 0.77446 0.70296 0.51958 0.0
C334 C 0.77628 0.7016 0.46849 0.0
C335 C 0.72892 0.68091 0.54714 0.0
C336 C 0.68288 0.65656 0.52502 0.0
H337 H 0.80854 0.72183 0.53858 0.0
H338 H 0.72971 0.68392 0.58626 0.0
S339 S 0.66657 0.64187 0.39253 0.0
N340 N 0.7276 0.67319 0.39697 0.0
N341 N 0.64229 0.63166 0.44865 0.0
C342 C 0.68427 0.65382 0.47402 0.0
C343 C 0.73079 0.67627 0.44587 0.0
C344 C 0.31249 0.45736 0.22937 0.0
C345 C 0.34431 0.43923 0.19845 0.0
C346 C 0.26702 0.46088 0.21356 0.0
C347 C 0.25245 0.44712 0.16607 0.0
H348 H 0.32248 0.46827 0.2663 0.0
H349 H 0.24337 0.47496 0.23839 0.0
S350 S 0.32244 0.39794 0.0708 0.0
N351 N 0.3581 0.4074 0.11815 0.0
N352 N 0.27285 0.41486 0.08822 0.0
C353 C 0.28404 0.42936 0.13465 0.0
C354 C 0.32997 0.42513 0.15091 0.0
C355 C 0.68082 0.27721 0.95436 0.0
C356 C 0.65728 0.31258 0.94401 0.0
C357 C 0.65381 0.23191 0.9778 0.0
C358 C 0.60195 0.21991 0.99276 0.0
H359 H 0.72087 0.28486 0.94475 0.0
H360 H 0.67409 0.20682 0.98539 0.0
S361 S 0.52166 0.29861 0.97419 0.0
N362 N 0.57816 0.33092 0.95061 0.0
N363 N 0.52802 0.24742 0.99392 0.0
C364 C 0.5779 0.25457 0.9818 0.0
C365 C 0.60517 0.30017 0.95766 0.0
C366 C 0.97236 0.88142 0.44604 0.0
C367 C 0.91903 0.86096 0.44358 0.0
C368 C 0.99536 0.92814 0.46781 0.0
C369 C 0.96596 0.95592 0.48878 0.0
H370 H 0.99647 0.86041 0.43286 0.0
H371 H 1.03634 0.94164 0.47012 0.0
S372 S 0.82613 0.92346 0.48651 0.0
N373 N 0.83845 0.87662 0.45874 0.0
N374 N 0.8816 0.96174 0.50246 0.0
C375 C 0.91313 0.937 0.48512 0.0
C376 C 0.88977 0.8904 0.46176 0.0
C377 C 0.26611 0.74908 0.65068 0.0
C378 C 0.27115 0.7989 0.64554 0.0
C379 C 0.30757 0.73262 0.63997 0.0
C380 C 0.35516 0.76568 0.62401 0.0
H381 H 0.23165 0.72387 0.66753 0.0
H382 H 0.30347 0.69484 0.64836 0.0
S383 S 0.38441 0.89782 0.5967 0.0
N384 N 0.32456 0.87968 0.61788 0.0
N385 N 0.40246 0.84847 0.59647 0.0
C386 C 0.35889 0.81438 0.61402 0.0
C387 C 0.31677 0.83108 0.62508 0.0
C388 C 0.7024 0.83161 0.78312 0.0
C389 C 0.68735 0.85888 0.82074 0.0
C390 C 0.74353 0.85441 0.75085 0.0
C391 C 0.76999 0.90493 0.75541 0.0
H392 H 0.68388 0.7921 0.78019 0.0
H393 H 0.75607 0.83228 0.72376 0.0
S394 S 0.74621 0.99292 0.84642 0.0
N395 N 0.70305 0.9394 0.86016 0.0
N396 N 0.77844 0.98206 0.79792 0.0
C397 C 0.75404 0.93299 0.79103 0.0
C398 C 0.71304 0.90999 0.82417 0.0
C399 C 0.82043 0.20104 0.35177 0.0
C400 C 0.81646 0.24763 0.36332 0.0
C401 C 0.80347 0.17772 0.30783 0.0
C402 C 0.78328 0.20112 0.27443 0.0
H403 H 0.83585 0.18236 0.37715 0.0
H404 H 0.80624 0.1415 0.29979 0.0
S405 S 0.76492 0.3229 0.28823 0.0
N406 N 0.79101 0.31618 0.33854 0.0
N407 N 0.75939 0.27241 0.25563 0.0
C408 C 0.7794 0.2477 0.28557 0.0
C409 C 0.79607 0.27107 0.33023 0.0
C410 C 0.47496 0.73113 0.42514 0.0
C411 C 0.45983 0.70994 0.37928 0.0
C412 C 0.48799 0.70482 0.4621 0.0
C413 C 0.48785 0.65577 0.45531 0.0
H414 H 0.47685 0.76891 0.43271 0.0
H415 H 0.49933 0.72376 0.49616 0.0
S416 S 0.45124 0.58203 0.34213 0.0
N417 N 0.44485 0.63563 0.32987 0.0
N418 N 0.47051 0.58695 0.39804 0.0
C419 C 0.47267 0.63388 0.40958 0.0
C420 C 0.4584 0.66054 0.37213 0.0
C421 C 0.12353 0.49669 0.89761 0.0
C422 C 0.17507 0.51773 0.88125 0.0
C423 C 0.10163 0.51884 0.93582 0.0
C424 C 0.13019 0.56317 0.9589 0.0
H425 H 0.09981 0.46324 0.88058 0.0
H426 H 0.06174 0.50188 0.94637 0.0
S427 S 0.26692 0.63155 0.93159 0.0
N428 N 0.25396 0.58449 0.89316 0.0
N429 N 0.2133 0.62551 0.9634 0.0
C430 C 0.18173 0.58361 0.94339 0.0
C431 C 0.20391 0.56114 0.90512 0.0
C432 C 0.54465 0.89672 0.94207 0.0
C433 C 0.58538 0.88335 0.95805 0.0
C434 C 0.53657 0.94047 0.95852 0.0
C435 C 0.56997 0.97285 0.99019 0.0
H436 H 0.52018 0.87413 0.91527 0.0
H437 H 0.50529 0.94992 0.94493 0.0
S438 S 0.68027 0.95309 1.04499 0.0
N439 N 0.65769 0.9047 1.00916 0.0
N440 N 0.64279 0.98659 1.03995 0.0
C441 C 0.60957 0.95885 1.0078 0.0
C442 C 0.6172 0.91416 0.99177 0.0
C443 C 0.9539 0.2406 0.56542 0.0
C444 C 0.96745 0.26463 0.52082 0.0
C445 C 0.95592 0.19306 0.57069 0.0
C446 C 0.97198 0.16846 0.53157 0.0
H447 H 0.9422 0.25886 0.59655 0.0
H448 H 0.94705 0.17628 0.60613 0.0
S449 S 1.01161 0.21486 0.40757 0.0
N450 N 0.9969 0.25992 0.43657 0.0
N451 N 1.00143 0.17047 0.44739 0.0
C452 C 0.98496 0.19151 0.48677 0.0
C453 C 0.9824 0.23972 0.48109 0.0
C454 C 0.27093 0.67174 0.17042 0.0
C455 C 0.28592 0.72248 0.18304 0.0
C456 C 0.22507 0.64754 0.14707 0.0
C457 C 0.19164 0.67272 0.1347 0.0
H458 H 0.29533 0.65049 0.1778 0.0
H459 H 0.21614 0.60872 0.13811 0.0
S460 S 0.20953 0.80446 0.1638 0.0
N461 N 0.26014 0.79565 0.18462 0.0
N462 N 0.17605 0.75118 0.13984 0.0
C463 C 0.20564 0.72314 0.14793 0.0
C464 C 0.25195 0.74761 0.17217 0.0
C465 C 0.31197 0.47577 0.62422 0.0
C466 C 0.31009 0.47553 0.67534 0.0
C467 C 0.35745 0.49879 0.59686 0.0
C468 C 0.40349 0.52272 0.61914 0.0
H469 H 0.27797 0.45729 0.60496 0.0
H470 H 0.35662 0.49683 0.55771 0.0
S471 S 0.41972 0.53397 0.75178 0.0
N472 N 0.35879 0.50238 0.74707 0.0
N473 N 0.44394 0.54583 0.69579 0.0
C474 C 0.40203 0.52408 0.67021 0.0
C475 C 0.35555 0.50057 0.69818 0.0
C476 C 0.7557 0.73432 0.98986 0.0
C477 C 0.734 0.71638 0.94555 0.0
C478 C 0.80497 0.73505 0.99894 0.0
C479 C 0.83446 0.71838 0.9638 0.0
H480 H 0.73439 0.74749 1.0179 0.0
H481 H 0.81977 0.74815 1.034 0.0
S482 S 0.79631 0.67182 0.84037 0.0
N483 N 0.74617 0.6834 0.86555 0.0
N484 N 0.83929 0.68648 0.8818 0.0
C485 C 0.81342 0.70137 0.91897 0.0
C486 C 0.76309 0.69996 0.91006 0.0
C487 C 0.44113 0.88678 0.14325 0.0
C488 C 0.44617 0.87339 0.1915 0.0
C489 C 0.46694 0.93449 0.12438 0.0
C490 C 0.50101 0.97153 0.15183 0.0
H491 H 0.41769 0.85996 0.11874 0.0
H492 H 0.46154 0.94173 0.0872 0.0
S493 S 0.53024 0.95891 0.27905 0.0
N494 N 0.48844 0.90473 0.2662 0.0
N495 N 0.5392 0.99184 0.22941 0.0
C496 C 0.50757 0.95904 0.19938 0.0
C497 C 0.48001 0.91097 0.21935 0.0
C498 C 0.19605 0.28748 0.67106 0.0
C499 C 0.16628 0.315 0.69251 0.0
C500 C 0.17391 0.241 0.64901 0.0
C501 C 0.12088 0.21874 0.64884 0.0
H502 H 0.23716 0.30202 0.67081 0.0
H503 H 0.1986 0.22226 0.63201 0.0
S504 S 1.0248 0.27388 0.69815 0.0
N505 N 0.07986 0.31582 0.7098 0.0
N506 N 0.03877 0.22747 0.6713 0.0
C507 C 0.09042 0.24476 0.671 0.0
C508 C 0.11289 0.29287 0.69223 0.0
C509 C 0.78822 0.38363 0.51009 0.0
C510 C 0.77552 0.33209 0.50866 0.0
C511 C 0.75061 0.40566 0.51839 0.0
C512 C 0.69913 0.37683 0.52581 0.0
H513 H 0.82664 0.40701 0.50034 0.0
H514 H 0.76157 0.44534 0.5151 0.0
S515 S 0.64812 0.24087 0.53601 0.0
N516 N 0.70955 0.25306 0.52262 0.0
N517 N 0.63866 0.29475 0.53934 0.0
C518 C 0.68677 0.32555 0.52947 0.0
C519 C 0.72507 0.30308 0.52072 0.0
loop_
_geom_bond_atom_site_label_1
_geom_bond_atom_site_label_2
_geom_bond_distance
_geom_bond_site_symmetry_2
_ccdc_geom_bond_type
H0 C5 0.930 . S
H1 C8 0.930 . S
H2 C10 0.930 . S
H3 C4 1.016 . S
C4 H3 1.016 . S
C4 N11 1.286 . S
C5 H0 0.930 . S
C5 C6 1.397 . S
C5 C7 1.361 . S
C6 C5 1.397 . S
C6 C10 1.390 . S
C7 C5 1.361 . S
C7 C8 1.393 . S
C7 N11 1.413 . S
C8 H1 0.930 . S
C8 C7 1.393 . S
C8 C9 1.399 . S
C9 C8 1.399 . S
C9 C10 1.381 . S
C10 H2 0.930 . S
C10 C6 1.390 . S
C10 C9 1.381 . S
N11 C4 1.286 . S
N11 C7 1.413 . S
H12 C17 0.930 . S
H13 C20 0.930 . S
H14 C22 0.930 . S
H15 C16 1.016 . S
C16 H15 1.016 . S
C16 N23 1.286 . S
C17 H12 0.930 . S
C17 C18 1.397 . S
C17 C19 1.361 . S
C18 C17 1.397 . S
C18 C22 1.390 . S
C19 C17 1.361 . S
C19 C20 1.393 . S
C19 N23 1.413 . S
C20 H13 0.930 . S
C20 C19 1.393 . S
C20 C21 1.399 . S
C21 C20 1.399 . S
C21 C22 1.381 . S
C22 H14 0.930 . S
C22 C18 1.390 . S
C22 C21 1.381 . S
N23 C16 1.286 . S
N23 C19 1.413 . S
H24 C29 0.930 . S
H25 C32 0.930 . S
H26 C34 0.930 . S
H27 C28 1.016 . S
C28 H27 1.016 . S
C28 N35 1.286 . S
C29 H24 0.930 . S
C29 C30 1.397 . S
C29 C31 1.361 . S
C30 C29 1.397 . S
C30 C34 1.390 . S
C31 C29 1.361 . S
C31 C32 1.393 . S
C31 N35 1.413 . S
C32 H25 0.930 . S
C32 C31 1.393 . S
C32 C33 1.399 . S
C33 C32 1.399 . S
C33 C34 1.381 . S
C34 H26 0.930 . S
C34 C30 1.390 . S
C34 C33 1.381 . S
N35 C28 1.286 . S
N35 C31 1.413 . S
H36 C41 0.930 . S
H37 C44 0.930 . S
H38 C46 0.930 . S
H39 C40 1.016 . S
C40 H39 1.016 . S
C40 N47 1.286 . S
C41 H36 0.930 . S
C41 C42 1.397 . S
C41 C43 1.361 . S
C42 C41 1.397 . S
C42 C46 1.390 . S
C43 C41 1.361 . S
C43 C44 1.393 . S
C43 N47 1.413 . S
C44 H37 0.930 . S
C44 C43 1.393 . S
C44 C45 1.399 . S
C45 C44 1.399 . S
C45 C46 1.381 . S
C46 H38 0.930 . S
C46 C42 1.390 . S
C46 C45 1.381 . S
N47 C40 1.286 . S
N47 C43 1.413 . S
H48 C53 0.930 . S
H49 C56 0.930 . S
H50 C58 0.930 . S
H51 C52 1.016 . S
C52 H51 1.016 . S
C52 N59 1.286 . S
C53 H48 0.930 . S
C53 C54 1.397 . S
C53 C55 1.361 . S
C54 C53 1.397 . S
C54 C58 1.390 . S
C55 C53 1.361 . S
C55 C56 1.393 . S
C55 N59 1.413 . S
C56 H49 0.930 . S
C56 C55 1.393 . S
C56 C57 1.399 . S
C57 C56 1.399 . S
C57 C58 1.381 . S
C58 H50 0.930 . S
C58 C54 1.390 . S
C58 C57 1.381 . S
N59 C52 1.286 . S
N59 C55 1.413 . S
H60 C65 0.930 . S
H61 C68 0.930 . S
H62 C70 0.930 . S
H63 C64 1.016 . S
C64 H63 1.016 . S
C64 N71 1.286 . S
C65 H60 0.930 . S
C65 C66 1.397 . S
C65 C67 1.361 . S
C66 C65 1.397 . S
C66 C70 1.390 . S
C67 C65 1.361 . S
C67 C68 1.393 . S
C67 N71 1.413 . S
C68 H61 0.930 . S
C68 C67 1.393 . S
C68 C69 1.399 . S
C69 C68 1.399 . S
C69 C70 1.381 . S
C70 H62 0.930 . S
C70 C66 1.390 . S
C70 C69 1.381 . S
N71 C64 1.286 . S
N71 C67 1.413 . S
H72 C77 0.930 . S
H73 C80 0.930 . S
H74 C82 0.930 . S
H75 C76 1.016 . S
C76 H75 1.016 . S
C76 N83 1.286 . S
C77 H72 0.930 . S
C77 C78 1.397 . S
C77 C79 1.361 . S
C78 C77 1.397 . S
C78 C82 1.390 . S
C79 C77 1.361 . S
C79 C80 1.393 . S
C79 N83 1.413 . S
C80 H73 0.930 . S
C80 C79 1.393 . S
C80 C81 1.399 . S
C81 C80 1.399 . S
C81 C82 1.381 . S
C82 H74 0.930 . S
C82 C78 1.390 . S
C82 C81 1.381 . S
N83 C76 1.286 . S
N83 C79 1.413 . S
H84 C89 0.930 . S
H85 C92 0.930 . S
H86 C94 0.930 . S
H87 C88 1.016 . S
C88 H87 1.016 . S
C88 N95 1.286 . S
C89 H84 0.930 . S
C89 C90 1.397 . S
C89 C91 1.361 . S
C90 C89 1.397 . S
C90 C94 1.390 . S
C91 C89 1.361 . S
C91 C92 1.393 . S
C91 N95 1.413 . S
C92 H85 0.930 . S
C92 C91 1.393 . S
C92 C93 1.399 . S
C93 C92 1.399 . S
C93 C94 1.381 . S
C94 H86 0.930 . S
C94 C90 1.390 . S
C94 C93 1.381 . S
N95 C88 1.286 . S
N95 C91 1.413 . S
La96 C98 2.928 . S
La96 O116 2.521 . S
La96 O117 2.628 . S
La96 O118 2.554 1_545 S
La96 O119 2.757 1_545 S
La96 O120 2.470 . S
La96 O125 2.482 1_455 S
La96 O127 2.503 1_445 S
La97 C107 2.928 1_545 S
La97 O119 2.482 1_645 S
La97 O121 2.503 1_655 S
La97 O122 2.521 1_545 S
La97 O123 2.628 1_545 S
La97 O124 2.554 . S
La97 O125 2.757 . S
La97 O126 2.470 1_545 S
C98 La96 2.928 . S
C98 C99 1.503 . S
C98 O116 1.261 . S
C98 O117 1.243 . S
C99 C98 1.503 . S
C99 C100 1.394 . S
C99 C104 1.373 . S
C100 C99 1.394 . S
C100 C101 1.380 . S
C100 H128 0.930 . S
C101 C100 1.380 . S
C101 C102 1.376 . S
C101 H129 0.930 . S
C102 C101 1.376 . S
C102 C103 1.370 . S
C103 C102 1.370 . S
C103 C104 1.396 . S
C103 H130 0.929 . S
C104 C99 1.373 . S
C104 C103 1.396 . S
C104 H131 0.929 . S
C105 O118 1.240 . S
C105 O119 1.289 . S
C106 O120 1.258 . S
C106 O121 1.256 . S
C107 La97 2.928 1_565 S
C107 C108 1.503 . S
C107 O122 1.261 . S
C107 O123 1.243 . S
C108 C107 1.503 . S
C108 C109 1.394 . S
C108 C113 1.373 . S
C109 C108 1.394 . S
C109 C110 1.380 . S
C109 H132 0.930 . S
C110 C109 1.380 . S
C110 C111 1.376 . S
C110 H133 0.930 . S
C111 C110 1.376 . S
C111 C112 1.370 . S
C112 C111 1.370 . S
C112 C113 1.396 . S
C112 H134 0.929 . S
C113 C108 1.373 . S
C113 C112 1.396 . S
C113 H135 0.929 . S
C114 O124 1.240 . S
C114 O125 1.289 . S
C115 O126 1.258 . S
C115 O127 1.256 . S
O116 La96 2.521 . S
O116 C98 1.261 . S
O117 La96 2.628 . S
O117 C98 1.243 . S
O118 La96 2.554 1_565 S
O118 C105 1.240 . S
O119 La96 2.757 1_565 S
O119 La97 2.482 1_465 S
O119 C105 1.289 . S
O120 La96 2.470 . S
O120 C106 1.258 . S
O121 La97 2.503 1_455 S
O121 C106 1.256 . S
O122 La97 2.521 1_565 S
O122 C107 1.261 . S
O123 La97 2.628 1_565 S
O123 C107 1.243 . S
O124 La97 2.554 . S
O124 C114 1.240 . S
O125 La96 2.482 1_655 S
O125 La97 2.757 . S
O125 C114 1.289 . S
O126 La97 2.470 1_565 S
O126 C115 1.258 . S
O127 La96 2.503 1_665 S
O127 C115 1.256 . S
H128 C100 0.930 . S
H129 C101 0.930 . S
H130 C103 0.929 . S
H131 C104 0.929 . S
H132 C109 0.930 . S
H133 C110 0.930 . S
H134 C112 0.929 . S
H135 C113 0.929 . S
La136 C138 2.928 . S
La136 O156 2.521 . S
La136 O157 2.628 . S
La136 O158 2.554 1_545 S
La136 O159 2.757 1_545 S
La136 O160 2.470 . S
La136 O165 2.472 1_554 S
La136 O167 2.503 1_544 S
La137 C147 2.928 1_545 S
La137 O159 2.482 1_546 S
La137 O161 2.503 1_556 S
La137 O162 2.521 1_545 S
La137 O163 2.628 1_545 S
La137 O164 2.554 . S
La137 O165 2.760 . S
La137 O166 2.470 1_545 S
C138 La136 2.928 . S
C138 C139 1.503 . S
C138 O156 1.261 . S
C138 O157 1.243 . S
C139 C138 1.503 . S
C139 C140 1.394 . S
C139 C144 1.373 . S
C140 C139 1.394 . S
C140 C141 1.380 . S
C140 H168 0.930 . S
C141 C140 1.380 . S
C141 C142 1.376 . S
C141 H169 0.930 . S
C142 C141 1.376 . S
C142 C143 1.370 . S
C143 C142 1.370 . S
C143 C144 1.396 . S
C143 H170 0.929 . S
C144 C139 1.373 . S
C144 C143 1.396 . S
C144 H171 0.929 . S
C145 O158 1.240 . S
C145 O159 1.289 . S
C146 O160 1.258 . S
C146 O161 1.256 . S
C147 La137 2.928 1_565 S
C147 C148 1.503 . S
C147 O162 1.261 . S
C147 O163 1.243 . S
C148 C147 1.503 . S
C148 C149 1.394 . S
C148 C153 1.373 . S
C149 C148 1.394 . S
C149 C150 1.380 . S
C149 H172 0.930 . S
C150 C149 1.380 . S
C150 C151 1.376 . S
C150 H173 0.930 . S
C151 C150 1.376 . S
C151 C152 1.370 . S
C152 C151 1.370 . S
C152 C153 1.396 . S
C152 H174 0.929 . S
C153 C148 1.373 . S
C153 C152 1.396 . S
C153 H175 0.929 . S
C154 O164 1.240 . S
C154 O165 1.301 . S
C155 O166 1.258 . S
C155 O167 1.256 . S
O156 La136 2.521 . S
O156 C138 1.261 . S
O157 La136 2.628 . S
O157 C138 1.243 . S
O158 La136 2.554 1_565 S
O158 C145 1.240 . S
O159 La136 2.757 1_565 S
O159 La137 2.482 1_564 S
O159 C145 1.289 . S
O160 La136 2.470 . S
O160 C146 1.258 . S
O161 La137 2.503 1_554 S
O161 C146 1.256 . S
O162 La137 2.521 1_565 S
O162 C147 1.261 . S
O163 La137 2.628 1_565 S
O163 C147 1.243 . S
O164 La137 2.554 . S
O164 C154 1.240 . S
O165 La136 2.472 1_556 S
O165 La137 2.760 . S
O165 C154 1.301 . S
O166 La137 2.470 1_565 S
O166 C155 1.258 . S
O167 La136 2.503 1_566 S
O167 C155 1.256 . S
H168 C140 0.930 . S
H169 C141 0.930 . S
H170 C143 0.929 . S
H171 C144 0.929 . S
H172 C149 0.930 . S
H173 C150 0.930 . S
H174 C152 0.929 . S
H175 C153 0.929 . S
La176 C178 2.928 . S
La176 O196 2.521 . S
La176 O197 2.628 . S
La176 O198 2.554 . S
La176 O199 2.757 . S
La176 O200 2.470 . S
La176 O205 2.482 . S
La176 O207 2.503 . S
La177 C187 2.928 . S
La177 O199 2.482 . S
La177 O201 2.503 . S
La177 O202 2.521 . S
La177 O203 2.628 . S
La177 O204 2.554 . S
La177 O205 2.757 . S
La177 O206 2.470 . S
C178 La176 2.928 . S
C178 C179 1.503 . S
C178 O196 1.261 . S
C178 O197 1.243 . S
C179 C178 1.503 . S
C179 C180 1.394 . S
C179 C184 1.373 . S
C180 C179 1.394 . S
C180 C181 1.380 . S
C180 H208 0.930 . S
C181 C180 1.380 . S
C181 C182 1.376 . S
C181 H209 0.930 . S
C182 C181 1.376 . S
C182 C183 1.370 . S
C183 C182 1.370 . S
C183 C184 1.396 . S
C183 H210 0.929 . S
C184 C179 1.373 . S
C184 C183 1.396 . S
C184 H211 0.929 . S
C185 O198 1.240 . S
C185 O199 1.289 . S
C186 O200 1.258 . S
C186 O201 1.256 . S
C187 La177 2.928 . S
C187 C188 1.503 . S
C187 O202 1.261 . S
C187 O203 1.243 . S
C188 C187 1.503 . S
C188 C189 1.394 . S
C188 C193 1.373 . S
C189 C188 1.394 . S
C189 C190 1.380 . S
C189 H212 0.930 . S
C190 C189 1.380 . S
C190 C191 1.376 . S
C190 H213 0.930 . S
C191 C190 1.376 . S
C191 C192 1.370 . S
C192 C191 1.370 . S
C192 C193 1.396 . S
C192 H214 0.929 . S
C193 C188 1.373 . S
C193 C192 1.396 . S
C193 H215 0.929 . S
C194 O204 1.240 . S
C194 O205 1.289 . S
C195 O206 1.258 . S
C195 O207 1.256 . S
O196 La176 2.521 . S
O196 C178 1.261 . S
O197 La176 2.628 . S
O197 C178 1.243 . S
O198 La176 2.554 . S
O198 C185 1.240 . S
O199 La176 2.757 . S
O199 La177 2.482 . S
O199 C185 1.289 . S
O200 La176 2.470 . S
O200 C186 1.258 . S
O201 La177 2.503 . S
O201 C186 1.256 . S
O202 La177 2.521 . S
O202 C187 1.261 . S
O203 La177 2.628 . S
O203 C187 1.243 . S
O204 La177 2.554 . S
O204 C194 1.240 . S
O205 La176 2.482 . S
O205 La177 2.757 . S
O205 C194 1.289 . S
O206 La177 2.470 . S
O206 C195 1.258 . S
O207 La176 2.503 . S
O207 C195 1.256 . S
H208 C180 0.930 . S
H209 C181 0.930 . S
H210 C183 0.929 . S
H211 C184 0.929 . S
H212 C189 0.930 . S
H213 C190 0.930 . S
H214 C192 0.929 . S
H215 C193 0.929 . S
La216 C218 2.928 . S
La216 O236 2.521 . S
La216 O237 2.628 . S
La216 O238 2.554 1_455 S
La216 O239 2.757 1_455 S
La216 O240 2.470 . S
La216 O245 2.482 1_554 S
La216 O247 2.503 1_454 S
La217 C227 2.928 1_455 S
La217 O239 2.482 1_456 S
La217 O241 2.503 1_556 S
La217 O242 2.521 1_455 S
La217 O243 2.628 1_455 S
La217 O244 2.554 . S
La217 O245 2.757 . S
La217 O246 2.470 1_455 S
C218 La216 2.928 . S
C218 C219 1.503 . S
C218 O236 1.261 . S
C218 O237 1.243 . S
C219 C218 1.503 . S
C219 C220 1.394 . S
C219 C224 1.373 . S
C220 C219 1.394 . S
C220 C221 1.380 . S
C220 H248 0.930 . S
C221 C220 1.380 . S
C221 C222 1.376 . S
C221 H249 0.930 . S
C222 C221 1.376 . S
C222 C223 1.370 . S
C223 C222 1.370 . S
C223 C224 1.396 . S
C223 H250 0.929 . S
C224 C219 1.373 . S
C224 C223 1.396 . S
C224 H251 0.929 . S
C225 O238 1.240 . S
C225 O239 1.289 . S
C226 O240 1.258 . S
C226 O241 1.256 . S
C227 La217 2.928 1_655 S
C227 C228 1.503 . S
C227 O242 1.261 . S
C227 O243 1.243 . S
C228 C227 1.503 . S
C228 C229 1.394 . S
C228 C233 1.373 . S
C229 C228 1.394 . S
C229 C230 1.380 . S
C229 H252 0.930 . S
C230 C229 1.380 . S
C230 C231 1.376 . S
C230 H253 0.930 . S
C231 C230 1.376 . S
C231 C232 1.370 . S
C232 C231 1.370 . S
C232 C233 1.396 . S
C232 H254 0.929 . S
C233 C228 1.373 . S
C233 C232 1.396 . S
C233 H255 0.929 . S
C234 O244 1.240 . S
C234 O245 1.289 . S
C235 O246 1.258 . S
C235 O247 1.256 . S
O236 La216 2.521 . S
O236 C218 1.261 . S
O237 La216 2.628 . S
O237 C218 1.243 . S
O238 La216 2.554 1_655 S
O238 C225 1.240 . S
O239 La216 2.757 1_655 S
O239 La217 2.482 1_654 S
O239 C225 1.289 . S
O240 La216 2.470 . S
O240 C226 1.258 . S
O241 La217 2.503 1_554 S
O241 C226 1.256 . S
O242 La217 2.521 1_655 S
O242 C227 1.261 . S
O243 La217 2.628 1_655 S
O243 C227 1.243 . S
O244 La217 2.554 . S
O244 C234 1.240 . S
O245 La216 2.482 1_556 S
O245 La217 2.757 . S
O245 C234 1.289 . S
O246 La217 2.470 1_655 S
O246 C235 1.258 . S
O247 La216 2.503 1_656 S
O247 C235 1.256 . S
H248 C220 0.930 . S
H249 C221 0.930 . S
H250 C223 0.929 . S
H251 C224 0.929 . S
H252 C229 0.930 . S
H253 C230 0.930 . S
H254 C232 0.929 . S
H255 C233 0.929 . S
C256 C257 1.369 . S
C256 C258 1.419 . S
C256 H260 0.930 . S
C257 C256 1.369 . S
C257 C266 1.429 . S
C258 C256 1.419 . S
C258 C259 1.363 . S
C258 H261 0.929 . S
C259 C258 1.363 . S
C259 C265 1.428 . S
H260 C256 0.930 . S
H261 C258 0.929 . S
S262 N263 1.613 . S
S262 N264 1.610 . S
N263 S262 1.613 . S
N263 C266 1.350 . S
N264 S262 1.610 . S
N264 C265 1.351 . S
C265 C259 1.428 . S
C265 N264 1.351 . S
C265 C266 1.434 . S
C266 C257 1.429 . S
C266 N263 1.350 . S
C266 C265 1.434 . S
C267 C268 1.369 . S
C267 C269 1.419 . S
C267 H271 0.930 . S
C268 C267 1.369 . S
C268 C277 1.429 . S
C269 C267 1.419 . S
C269 C270 1.363 . S
C269 H272 0.929 . S
C270 C269 1.363 . S
C270 C276 1.428 . S
H271 C267 0.930 . S
H272 C269 0.929 . S
S273 N274 1.613 . S
S273 N275 1.610 . S
N274 S273 1.613 . S
N274 C277 1.350 . S
N275 S273 1.610 . S
N275 C276 1.351 . S
C276 C270 1.428 . S
C276 N275 1.351 . S
C276 C277 1.434 . S
C277 C268 1.429 . S
C277 N274 1.350 . S
C277 C276 1.434 . S
C278 C279 1.369 . S
C278 C280 1.419 . S
C278 H282 0.930 . S
C279 C278 1.369 . S
C279 C288 1.429 . S
C280 C278 1.419 . S
C280 C281 1.363 . S
C280 H283 0.929 . S
C281 C280 1.363 . S
C281 C287 1.428 . S
H282 C278 0.930 . S
H283 C280 0.929 . S
S284 N285 1.613 . S
S284 N286 1.610 . S
N285 S284 1.613 . S
N285 C288 1.350 . S
N286 S284 1.610 . S
N286 C287 1.351 . S
C287 C281 1.428 . S
C287 N286 1.351 . S
C287 C288 1.434 . S
C288 C279 1.429 . S
C288 N285 1.350 . S
C288 C287 1.434 . S
C289 C290 1.369 . S
C289 C291 1.419 . S
C289 H293 0.930 . S
C290 C289 1.369 . S
C290 C299 1.429 . S
C291 C289 1.419 . S
C291 C292 1.363 . S
C291 H294 0.929 . S
C292 C291 1.363 . S
C292 C298 1.428 . S
H293 C289 0.930 . S
H294 C291 0.929 . S
S295 N296 1.613 1_455 S
S295 N297 1.610 . S
N296 S295 1.613 1_655 S
N296 C299 1.350 . S
N297 S295 1.610 . S
N297 C298 1.351 1_455 S
C298 C292 1.428 . S
C298 N297 1.351 1_655 S
C298 C299 1.434 . S
C299 C290 1.429 . S
C299 N296 1.350 . S
C299 C298 1.434 . S
C300 C301 1.369 . S
C300 C302 1.419 . S
C300 H304 0.930 . S
C301 C300 1.369 . S
C301 C310 1.429 . S
C302 C300 1.419 . S
C302 C303 1.363 . S
C302 H305 0.929 . S
C303 C302 1.363 . S
C303 C309 1.428 . S
H304 C300 0.930 . S
H305 C302 0.929 . S
S306 N307 1.613 . S
S306 N308 1.610 . S
N307 S306 1.613 . S
N307 C310 1.350 . S
N308 S306 1.610 . S
N308 C309 1.351 . S
C309 C303 1.428 . S
C309 N308 1.351 . S
C309 C310 1.434 . S
C310 C301 1.429 . S
C310 N307 1.350 . S
C310 C309 1.434 . S
C311 C312 1.369 . S
C311 C313 1.419 . S
C311 H315 0.930 . S
C312 C311 1.369 . S
C312 C321 1.429 . S
C313 C311 1.419 . S
C313 C314 1.363 . S
C313 H316 0.929 . S
C314 C313 1.363 . S
C314 C320 1.428 . S
H315 C311 0.930 . S
H316 C313 0.929 . S
S317 N318 1.613 . S
S317 N319 1.610 . S
N318 S317 1.613 . S
N318 C321 1.350 . S
N319 S317 1.610 . S
N319 C320 1.351 . S
C320 C314 1.428 . S
C320 N319 1.351 . S
C320 C321 1.434 . S
C321 C312 1.429 . S
C321 N318 1.350 . S
C321 C320 1.434 . S
C322 C323 1.369 . S
C322 C324 1.419 . S
C322 H326 0.930 . S
C323 C322 1.369 . S
C323 C332 1.429 . S
C324 C322 1.419 . S
C324 C325 1.363 . S
C324 H327 0.929 . S
C325 C324 1.363 . S
C325 C331 1.428 . S
H326 C322 0.930 . S
H327 C324 0.929 . S
S328 N329 1.613 1_554 S
S328 N330 1.610 . S
N329 S328 1.613 1_556 S
N329 C332 1.350 . S
N330 S328 1.610 . S
N330 C331 1.351 1_554 S
C331 C325 1.428 . S
C331 N330 1.351 1_556 S
C331 C332 1.434 . S
C332 C323 1.429 . S
C332 N329 1.350 . S
C332 C331 1.434 . S
C333 C334 1.369 . S
C333 C335 1.419 . S
C333 H337 0.930 . S
C334 C333 1.369 . S
C334 C343 1.429 . S
C335 C333 1.419 . S
C335 C336 1.363 . S
C335 H338 0.929 . S
C336 C335 1.363 . S
C336 C342 1.428 . S
H337 C333 0.930 . S
H338 C335 0.929 . S
S339 N340 1.613 . S
S339 N341 1.610 . S
N340 S339 1.613 . S
N340 C343 1.350 . S
N341 S339 1.610 . S
N341 C342 1.351 . S
C342 C336 1.428 . S
C342 N341 1.351 . S
C342 C343 1.434 . S
C343 C334 1.429 . S
C343 N340 1.350 . S
C343 C342 1.434 . S
C344 C345 1.369 . S
C344 C346 1.419 . S
C344 H348 0.930 . S
C345 C344 1.369 . S
C345 C354 1.429 . S
C346 C344 1.419 . S
C346 C347 1.363 . S
C346 H349 0.929 . S
C347 C346 1.363 . S
C347 C353 1.428 . S
H348 C344 0.930 . S
H349 C346 0.929 . S
S350 N351 1.613 . S
S350 N352 1.610 . S
N351 S350 1.613 . S
N351 C354 1.350 . S
N352 S350 1.610 . S
N352 C353 1.351 . S
C353 C347 1.428 . S
C353 N352 1.351 . S
C353 C354 1.434 . S
C354 C345 1.429 . S
C354 N351 1.350 . S
C354 C353 1.434 . S
C355 C356 1.369 . S
C355 C357 1.419 . S
C355 H359 0.930 . S
C356 C355 1.369 . S
C356 C365 1.429 . S
C357 C355 1.419 . S
C357 C358 1.363 . S
C357 H360 0.929 . S
C358 C357 1.363 . S
C358 C364 1.428 . S
H359 C355 0.930 . S
H360 C357 0.929 . S
S361 N362 1.613 . S
S361 N363 1.610 . S
N362 S361 1.613 . S
N362 C365 1.350 . S
N363 S361 1.610 . S
N363 C364 1.351 . S
C364 C358 1.428 . S
C364 N363 1.351 . S
C364 C365 1.434 . S
C365 C356 1.429 . S
C365 N362 1.350 . S
C365 C364 1.434 . S
C366 C367 1.369 . S
C366 C368 1.419 . S
C366 H370 0.930 . S
C367 C366 1.369 . S
C367 C376 1.429 . S
C368 C366 1.419 . S
C368 C369 1.363 . S
C368 H371 0.929 . S
C369 C368 1.363 . S
C369 C375 1.428 . S
H370 C366 0.930 . S
H371 C368 0.929 . S
S372 N373 1.613 . S
S372 N374 1.610 . S
N373 S372 1.613 . S
N373 C376 1.350 . S
N374 S372 1.610 . S
N374 C375 1.351 . S
C375 C369 1.428 . S
C375 N374 1.351 . S
C375 C376 1.434 . S
C376 C367 1.429 . S
C376 N373 1.350 . S
C376 C375 1.434 . S
C377 C378 1.369 . S
C377 C379 1.419 . S
C377 H381 0.930 . S
C378 C377 1.369 . S
C378 C387 1.429 . S
C379 C377 1.419 . S
C379 C380 1.363 . S
C379 H382 0.929 . S
C380 C379 1.363 . S
C380 C386 1.428 . S
H381 C377 0.930 . S
H382 C379 0.929 . S
S383 N384 1.613 . S
S383 N385 1.610 . S
N384 S383 1.613 . S
N384 C387 1.350 . S
N385 S383 1.610 . S
N385 C386 1.351 . S
C386 C380 1.428 . S
C386 N385 1.351 . S
C386 C387 1.434 . S
C387 C378 1.429 . S
C387 N384 1.350 . S
C387 C386 1.434 . S
C388 C389 1.369 . S
C388 C390 1.419 . S
C388 H392 0.930 . S
C389 C388 1.369 . S
C389 C398 1.429 . S
C390 C388 1.419 . S
C390 C391 1.363 . S
C390 H393 0.929 . S
C391 C390 1.363 . S
C391 C397 1.428 . S
H392 C388 0.930 . S
H393 C390 0.929 . S
S394 N395 1.613 . S
S394 N396 1.610 . S
N395 S394 1.613 . S
N395 C398 1.350 . S
N396 S394 1.610 . S
N396 C397 1.351 . S
C397 C391 1.428 . S
C397 N396 1.351 . S
C397 C398 1.434 . S
C398 C389 1.429 . S
C398 N395 1.350 . S
C398 C397 1.434 . S
C399 C400 1.369 . S
C399 C401 1.419 . S
C399 H403 0.930 . S
C400 C399 1.369 . S
C400 C409 1.429 . S
C401 C399 1.419 . S
C401 C402 1.363 . S
C401 H404 0.929 . S
C402 C401 1.363 . S
C402 C408 1.428 . S
H403 C399 0.930 . S
H404 C401 0.929 . S
S405 N406 1.613 . S
S405 N407 1.610 . S
N406 S405 1.613 . S
N406 C409 1.350 . S
N407 S405 1.610 . S
N407 C408 1.351 . S
C408 C402 1.428 . S
C408 N407 1.351 . S
C408 C409 1.434 . S
C409 C400 1.429 . S
C409 N406 1.350 . S
C409 C408 1.434 . S
C410 C411 1.369 . S
C410 C412 1.419 . S
C410 H414 0.930 . S
C411 C410 1.369 . S
C411 C420 1.429 . S
C412 C410 1.419 . S
C412 C413 1.363 . S
C412 H415 0.929 . S
C413 C412 1.363 . S
C413 C419 1.428 . S
H414 C410 0.930 . S
H415 C412 0.929 . S
S416 N417 1.613 . S
S416 N418 1.610 . S
N417 S416 1.613 . S
N417 C420 1.350 . S
N418 S416 1.610 . S
N418 C419 1.351 . S
C419 C413 1.428 . S
C419 N418 1.351 . S
C419 C420 1.434 . S
C420 C411 1.429 . S
C420 N417 1.350 . S
C420 C419 1.434 . S
C421 C422 1.369 . S
C421 C423 1.419 . S
C421 H425 0.930 . S
C422 C421 1.369 . S
C422 C431 1.429 . S
C423 C421 1.419 . S
C423 C424 1.363 . S
C423 H426 0.929 . S
C424 C423 1.363 . S
C424 C430 1.428 . S
H425 C421 0.930 . S
H426 C423 0.929 . S
S427 N428 1.613 . S
S427 N429 1.610 . S
N428 S427 1.613 . S
N428 C431 1.350 . S
N429 S427 1.610 . S
N429 C430 1.351 . S
C430 C424 1.428 . S
C430 N429 1.351 . S
C430 C431 1.434 . S
C431 C422 1.429 . S
C431 N428 1.350 . S
C431 C430 1.434 . S
C432 C433 1.369 . S
C432 C434 1.419 . S
C432 H436 0.930 . S
C433 C432 1.369 . S
C433 C442 1.429 . S
C434 C432 1.419 . S
C434 C435 1.363 . S
C434 H437 0.929 . S
C435 C434 1.363 . S
C435 C441 1.428 . S
H436 C432 0.930 . S
H437 C434 0.929 . S
S438 N439 1.613 . S
S438 N440 1.610 . S
N439 S438 1.613 . S
N439 C442 1.350 . S
N440 S438 1.610 . S
N440 C441 1.351 . S
C441 C435 1.428 . S
C441 N440 1.351 . S
C441 C442 1.434 . S
C442 C433 1.429 . S
C442 N439 1.350 . S
C442 C441 1.434 . S
C443 C444 1.369 . S
C443 C445 1.419 . S
C443 H447 0.930 . S
C444 C443 1.369 . S
C444 C453 1.429 . S
C445 C443 1.419 . S
C445 C446 1.363 . S
C445 H448 0.929 . S
C446 C445 1.363 . S
C446 C452 1.428 . S
H447 C443 0.930 . S
H448 C445 0.929 . S
S449 N450 1.613 1_455 S
S449 N451 1.610 1_455 S
N450 S449 1.613 1_655 S
N450 C453 1.350 . S
N451 S449 1.610 1_655 S
N451 C452 1.351 . S
C452 C446 1.428 . S
C452 N451 1.351 . S
C452 C453 1.434 . S
C453 C444 1.429 . S
C453 N450 1.350 . S
C453 C452 1.434 . S
C454 C455 1.369 . S
C454 C456 1.419 . S
C454 H458 0.930 . S
C455 C454 1.369 . S
C455 C464 1.429 . S
C456 C454 1.419 . S
C456 C457 1.363 . S
C456 H459 0.929 . S
C457 C456 1.363 . S
C457 C463 1.428 . S
H458 C454 0.930 . S
H459 C456 0.929 . S
S460 N461 1.613 . S
S460 N462 1.610 . S
N461 S460 1.613 . S
N461 C464 1.350 . S
N462 S460 1.610 . S
N462 C463 1.351 . S
C463 C457 1.428 . S
C463 N462 1.351 . S
C463 C464 1.434 . S
C464 C455 1.429 . S
C464 N461 1.350 . S
C464 C463 1.434 . S
C465 C466 1.369 . S
C465 C467 1.419 . S
C465 H469 0.930 . S
C466 C465 1.369 . S
C466 C475 1.429 . S
C467 C465 1.419 . S
C467 C468 1.363 . S
C467 H470 0.929 . S
C468 C467 1.363 . S
C468 C474 1.428 . S
H469 C465 0.930 . S
H470 C467 0.929 . S
S471 N472 1.613 . S
S471 N473 1.610 . S
N472 S471 1.613 . S
N472 C475 1.350 . S
N473 S471 1.610 . S
N473 C474 1.351 . S
C474 C468 1.428 . S
C474 N473 1.351 . S
C474 C475 1.434 . S
C475 C466 1.429 . S
C475 N472 1.350 . S
C475 C474 1.434 . S
C476 C477 1.369 . S
C476 C478 1.419 . S
C476 H480 0.930 . S
C477 C476 1.369 . S
C477 C486 1.429 . S
C478 C476 1.419 . S
C478 C479 1.363 . S
C478 H481 0.929 . S
C479 C478 1.363 . S
C479 C485 1.428 . S
H480 C476 0.930 . S
H481 C478 0.929 . S
S482 N483 1.613 . S
S482 N484 1.610 . S
N483 S482 1.613 . S
N483 C486 1.350 . S
N484 S482 1.610 . S
N484 C485 1.351 . S
C485 C479 1.428 . S
C485 N484 1.351 . S
C485 C486 1.434 . S
C486 C477 1.429 . S
C486 N483 1.350 . S
C486 C485 1.434 . S
C487 C488 1.369 . S
C487 C489 1.419 . S
C487 H491 0.930 . S
C488 C487 1.369 . S
C488 C497 1.429 . S
C489 C487 1.419 . S
C489 C490 1.363 . S
C489 H492 0.929 . S
C490 C489 1.363 . S
C490 C496 1.428 . S
H491 C487 0.930 . S
H492 C489 0.929 . S
S493 N494 1.613 . S
S493 N495 1.610 . S
N494 S493 1.613 . S
N494 C497 1.350 . S
N495 S493 1.610 . S
N495 C496 1.351 . S
C496 C490 1.428 . S
C496 N495 1.351 . S
C496 C497 1.434 . S
C497 C488 1.429 . S
C497 N494 1.350 . S
C497 C496 1.434 . S
C498 C499 1.369 . S
C498 C500 1.419 . S
C498 H502 0.930 . S
C499 C498 1.369 . S
C499 C508 1.429 . S
C500 C498 1.419 . S
C500 C501 1.363 . S
C500 H503 0.929 . S
C501 C500 1.363 . S
C501 C507 1.428 . S
H502 C498 0.930 . S
H503 C500 0.929 . S
S504 N505 1.613 . S
S504 N506 1.610 . S
N505 S504 1.613 . S
N505 C508 1.350 . S
N506 S504 1.610 . S
N506 C507 1.351 . S
C507 C501 1.428 . S
C507 N506 1.351 . S
C507 C508 1.434 . S
C508 C499 1.429 . S
C508 N505 1.350 . S
C508 C507 1.434 . S
C509 C510 1.369 . S
C509 C511 1.419 . S
C509 H513 0.930 . S
C510 C509 1.369 . S
C510 C519 1.429 . S
C511 C509 1.419 . S
C511 C512 1.363 . S
C511 H514 0.929 . S
C512 C511 1.363 . S
C512 C518 1.428 . S
H513 C509 0.930 . S
H514 C511 0.929 . S
S515 N516 1.613 . S
S515 N517 1.610 . S
N516 S515 1.613 . S
N516 C519 1.350 . S
N517 S515 1.610 . S
N517 C518 1.351 . S
C518 C512 1.428 . S
C518 N517 1.351 . S
C518 C519 1.434 . S
C519 C510 1.429 . S
C519 N516 1.350 . S
C519 C518 1.434 . S
C257 C6 1.037 . S
C259 C102 1.064 . S
C268 C18 1.244 . S
C270 C151 1.239 . S
C281 C186 2.597 . S
C279 C28 2.681 . S
C290 C40 1.988 . S
C292 C225 1.939 . S
C303 C146 2.225 . S
C301 C9 2.048 . S
C314 C105 0.876 . S
C312 C16 0.888 . S
C325 C235 1.935 . S
C323 C30 1.982 . S
C336 C194 1.479 . S
C334 C42 1.511 . S
C345 C4 1.497 . S
C347 C222 1.537 . S
C358 C154 2.522 . S
C356 C33 2.621 . S
C367 C45 2.124 . S
C369 C115 2.109 . S
C378 C21 1.204 . S
C380 C191 1.239 . S
C391 C111 1.074 . S
C389 C57 1.064 . S
C400 C66 1.290 . S
C402 C142 1.274 . S
C411 C76 2.730 . S
C413 C195 2.635 . S
C422 C88 1.924 . S
C424 C234 1.896 . S
C433 C54 2.049 . S
C435 C155 2.222 . S
C446 C114 0.988 . S
C444 C64 1.010 . S
C457 C226 1.853 . S
C455 C78 1.925 . S
C468 C185 1.525 . S
C466 C93 1.556 . S
C477 C52 1.448 . S
C479 C231 1.576 . S
C490 C145 2.509 . S
C488 C81 2.612 . S
C501 C106 2.098 . S
C499 C90 2.106 . S
C510 C69 1.169 . S
C512 C182 1.246 . S
