# Generated by pormake.
# Topology ssb, (4,4)-cn, num edge types: 1
# Building blocks:
#     Node 0, Type 0, BuildingBlock: GIZVER_clean_linker_0, # of connection points: 4
#     Node 1, Type 0, BuildingBlock: GIZVER_clean_linker_0, # of connection points: 4
#     Node 2, Type 0, BuildingBlock: GIZVER_clean_linker_0, # of connection points: 4
#     Node 3, Type 0, BuildingBlock: GIZVER_clean_linker_0, # of connection points: 4
#     Node 4, Type 0, BuildingBlock: GIZVER_clean_linker_0, # of connection points: 4
#     Node 5, Type 0, BuildingBlock: GIZVER_clean_linker_0, # of connection points: 4
#     Node 6, Type 0, BuildingBlock: GIZVER_clean_linker_0, # of connection points: 4
#     Node 7, Type 0, BuildingBlock: GIZVER_clean_linker_0, # of connection points: 4
#     Node 8, Type 1, BuildingBlock: KOZSID_clean_sbu_0, # of connection points: 4
#     Node 9, Type 1, BuildingBlock: KOZSID_clean_sbu_0, # of connection points: 4
#     Node 10, Type 1, BuildingBlock: KOZSID_clean_sbu_0, # of connection points: 4
#     Node 11, Type 1, BuildingBlock: KOZSID_clean_sbu_0, # of connection points: 4
#     Node 12, Type 1, BuildingBlock: KOZSID_clean_sbu_0, # of connection points: 4
#     Node 13, Type 1, BuildingBlock: KOZSID_clean_sbu_0, # of connection points: 4
#     Node 14, Type 1, BuildingBlock: KOZSID_clean_sbu_0, # of connection points: 4
#     Node 15, Type 1, BuildingBlock: KOZSID_clean_sbu_0, # of connection points: 4
#     Edge 16, Type (0, 1), BuildingBlock: UVAHIK_clean_linker_0, # of connection points: 2
#     Edge 17, Type (0, 1), BuildingBlock: UVAHIK_clean_linker_0, # of connection points: 2
#     Edge 18, Type (0, 1), BuildingBlock: UVAHIK_clean_linker_0, # of connection points: 2
#     Edge 19, Type (0, 1), BuildingBlock: UVAHIK_clean_linker_0, # of connection points: 2
#     Edge 20, Type (0, 1), BuildingBlock: UVAHIK_clean_linker_0, # of connection points: 2
#     Edge 21, Type (0, 1), BuildingBlock: UVAHIK_clean_linker_0, # of connection points: 2
#     Edge 22, Type (0, 1), BuildingBlock: UVAHIK_clean_linker_0, # of connection points: 2
#     Edge 23, Type (0, 1), BuildingBlock: UVAHIK_clean_linker_0, # of connection points: 2
#     Edge 24, Type (0, 1), BuildingBlock: UVAHIK_clean_linker_0, # of connection points: 2
#     Edge 25, Type (0, 1), BuildingBlock: UVAHIK_clean_linker_0, # of connection points: 2
#     Edge 26, Type (0, 1), BuildingBlock: UVAHIK_clean_linker_0, # of connection points: 2
#     Edge 27, Type (0, 1), BuildingBlock: UVAHIK_clean_linker_0, # of connection points: 2
#     Edge 28, Type (0, 1), BuildingBlock: UVAHIK_clean_linker_0, # of connection points: 2
#     Edge 29, Type (0, 1), BuildingBlock: UVAHIK_clean_linker_0, # of connection points: 2
#     Edge 30, Type (0, 1), BuildingBlock: UVAHIK_clean_linker_0, # of connection points: 2
#     Edge 31, Type (0, 1), BuildingBlock: UVAHIK_clean_linker_0, # of connection points: 2
#     Edge 32, Type (0, 1), BuildingBlock: UVAHIK_clean_linker_0, # of connection points: 2
#     Edge 33, Type (0, 1), BuildingBlock: UVAHIK_clean_linker_0, # of connection points: 2
#     Edge 34, Type (0, 1), BuildingBlock: UVAHIK_clean_linker_0, # of connection points: 2
#     Edge 35, Type (0, 1), BuildingBlock: UVAHIK_clean_linker_0, # of connection points: 2
#     Edge 36, Type (0, 1), BuildingBlock: UVAHIK_clean_linker_0, # of connection points: 2
#     Edge 37, Type (0, 1), BuildingBlock: UVAHIK_clean_linker_0, # of connection points: 2
#     Edge 38, Type (0, 1), BuildingBlock: UVAHIK_clean_linker_0, # of connection points: 2
#     Edge 39, Type (0, 1), BuildingBlock: UVAHIK_clean_linker_0, # of connection points: 2
#     Edge 40, Type (0, 1), BuildingBlock: UVAHIK_clean_linker_0, # of connection points: 2
#     Edge 41, Type (0, 1), BuildingBlock: UVAHIK_clean_linker_0, # of connection points: 2
#     Edge 42, Type (0, 1), BuildingBlock: UVAHIK_clean_linker_0, # of connection points: 2
#     Edge 43, Type (0, 1), BuildingBlock: UVAHIK_clean_linker_0, # of connection points: 2
#     Edge 44, Type (0, 1), BuildingBlock: UVAHIK_clean_linker_0, # of connection points: 2
#     Edge 45, Type (0, 1), BuildingBlock: UVAHIK_clean_linker_0, # of connection points: 2
#     Edge 46, Type (0, 1), BuildingBlock: UVAHIK_clean_linker_0, # of connection points: 2
#     Edge 47, Type (0, 1), BuildingBlock: UVAHIK_clean_linker_0, # of connection points: 2
# Relax obj value: 0.002
# Max RMSD: 0.042
# Mean RMSD: 0.021
data_MOF--net-ssb--node1-KOZSID_clean_sbu_0--node2-GIZVER_clean_linker_0--edge1-UVAHIK_clean_linker_0
_symmetry_space_group_name_H-M    P1
_symmetry_Int_Tables_number       1
_symmetry_cell_setting            triclinic
loop_
_symmetry_equiv_pos_as_xyz
'x, y, z'
_cell_length_a     69.022241
_cell_length_b     68.663246
_cell_length_c     50.74246
_cell_angle_alpha  92.254203
_cell_angle_beta   94.135718
_cell_angle_gamma 89.986744
loop_
_atom_site_label
_atom_site_type_symbol
_atom_site_fract_x
_atom_site_fract_y
_atom_site_fract_z
_atom_type_partial_charge
H0 H 0.25607 0.20583 0.28071 0.0
H1 H 0.21325 0.25148 0.27924 0.0
H2 H 0.2255 0.21985 0.34988 0.0
H3 H 0.24147 0.21721 0.23862 0.0
H4 H 0.22272 0.23501 0.23801 0.0
H5 H 0.27606 0.22709 0.24346 0.0
H6 H 0.28811 0.2842 0.21695 0.0
H7 H 0.23029 0.26963 0.23589 0.0
C8 C 0.2459 0.21494 0.29086 0.0
C9 C 0.24253 0.21149 0.31733 0.0
C10 C 0.2356 0.2296 0.27708 0.0
C11 C 0.22177 0.24073 0.29003 0.0
C12 C 0.21817 0.23738 0.31638 0.0
C13 C 0.22889 0.22305 0.32995 0.0
C14 C 0.23721 0.23146 0.24768 0.0
C15 C 0.25171 0.24686 0.24143 0.0
C16 C 0.27131 0.24177 0.23932 0.0
C17 C 0.28455 0.25524 0.23063 0.0
C18 C 0.27813 0.27407 0.22476 0.0
C19 C 0.25862 0.27945 0.22647 0.0
C20 C 0.24547 0.26578 0.23501 0.0
H21 H 0.80957 0.24609 0.25901 0.0
H22 H 0.76516 0.20188 0.25289 0.0
H23 H 0.79704 0.21454 0.32746 0.0
H24 H 0.79712 0.2328 0.21565 0.0
H25 H 0.7799 0.21326 0.21303 0.0
H26 H 0.78633 0.26684 0.22264 0.0
H27 H 0.72632 0.27873 0.20025 0.0
H28 H 0.74503 0.21976 0.21144 0.0
C29 C 0.80114 0.23529 0.26824 0.0
C30 C 0.80486 0.23191 0.29529 0.0
C31 C 0.78678 0.22455 0.25289 0.0
C32 C 0.77604 0.21037 0.26477 0.0
C33 C 0.77952 0.2069 0.29175 0.0
C34 C 0.79379 0.21783 0.30689 0.0
C35 C 0.78358 0.22742 0.22361 0.0
C36 C 0.76741 0.24177 0.21801 0.0
C37 C 0.77152 0.26181 0.21821 0.0
C38 C 0.75676 0.27528 0.21191 0.0
C39 C 0.73766 0.26853 0.2062 0.0
C40 C 0.7333 0.24856 0.20586 0.0
C41 C 0.74824 0.23523 0.21192 0.0
H42 H 0.76713 0.73104 0.31153 0.0
H43 H 0.71997 0.77105 0.32121 0.0
H44 H 0.77867 0.7896 0.34202 0.0
H45 H 0.7331 0.71952 0.31695 0.0
H46 H 0.7135 0.73644 0.31553 0.0
H47 H 0.74668 0.70683 0.27673 0.0
H48 H 0.71369 0.71636 0.20322 0.0
H49 H 0.70221 0.75074 0.27302 0.0
C50 C 0.76209 0.74553 0.31679 0.0
C51 C 0.7755 0.75996 0.32647 0.0
C52 C 0.74206 0.74942 0.31479 0.0
C53 C 0.73543 0.76809 0.32218 0.0
C54 C 0.74865 0.78277 0.33156 0.0
C55 C 0.7686 0.7786 0.33342 0.0
C56 C 0.72779 0.73308 0.30756 0.0
C57 C 0.72493 0.72938 0.278 0.0
C58 C 0.73569 0.71483 0.26532 0.0
C59 C 0.73188 0.71018 0.23819 0.0
C60 C 0.71737 0.72052 0.2238 0.0
C61 C 0.70653 0.73511 0.23613 0.0
C62 C 0.71058 0.73962 0.26321 0.0
H63 H 0.19554 0.75467 0.23232 0.0
H64 H 0.24207 0.79617 0.2305 0.0
H65 H 0.21501 0.78775 0.30296 0.0
H66 H 0.20628 0.76392 0.19039 0.0
H67 H 0.22207 0.78445 0.18913 0.0
H68 H 0.22063 0.73111 0.20188 0.0
H69 H 0.27792 0.72136 0.17597 0.0
H70 H 0.25608 0.77973 0.18379 0.0
C71 C 0.2054 0.76523 0.24248 0.0
C72 C 0.20394 0.76975 0.2695 0.0
C73 C 0.21926 0.7746 0.2284 0.0
C74 C 0.23165 0.78864 0.24149 0.0
C75 C 0.23033 0.79333 0.26846 0.0
C76 C 0.21665 0.78359 0.2824 0.0
C77 C 0.22013 0.77051 0.19913 0.0
C78 C 0.23667 0.75691 0.19382 0.0
C79 C 0.23425 0.73672 0.19592 0.0
C80 C 0.24915 0.72378 0.1897 0.0
C81 C 0.26657 0.73128 0.18156 0.0
C82 C 0.26918 0.75138 0.17919 0.0
C83 C 0.2543 0.76419 0.1859 0.0
H84 H 0.29692 0.76066 0.75742 0.0
H85 H 0.25606 0.71311 0.75341 0.0
H86 H 0.28834 0.72852 0.82678 0.0
H87 H 0.28727 0.74264 0.71492 0.0
H88 H 0.26791 0.72539 0.71305 0.0
H89 H 0.28073 0.77744 0.71156 0.0
H90 H 0.22236 0.79378 0.68627 0.0
H91 H 0.23387 0.73633 0.7141 0.0
C92 C 0.28936 0.74948 0.76719 0.0
C93 C 0.29411 0.7463 0.79408 0.0
C94 C 0.27561 0.73766 0.75237 0.0
C95 C 0.26626 0.72267 0.76486 0.0
C96 C 0.2705 0.71962 0.79193 0.0
C97 C 0.28428 0.73161 0.80633 0.0
C98 C 0.27299 0.73949 0.72273 0.0
C99 C 0.25877 0.75536 0.7148 0.0
C100 C 0.26536 0.77407 0.70906 0.0
C101 C 0.25223 0.78815 0.69906 0.0
C102 C 0.23241 0.78339 0.69524 0.0
C103 C 0.22571 0.76471 0.70033 0.0
C104 C 0.23891 0.75089 0.71056 0.0
H105 H 0.26081 0.21817 0.84671 0.0
H106 H 0.21678 0.26248 0.84074 0.0
H107 H 0.27625 0.27845 0.86184 0.0
H108 H 0.2263 0.20939 0.84535 0.0
H109 H 0.20804 0.22787 0.84488 0.0
H110 H 0.23985 0.19755 0.80423 0.0
H111 H 0.20782 0.21002 0.7311 0.0
H112 H 0.19532 0.24147 0.80292 0.0
C113 C 0.25674 0.23342 0.84749 0.0
C114 C 0.27097 0.24775 0.85425 0.0
C115 C 0.23718 0.23869 0.84228 0.0
C116 C 0.23191 0.25842 0.8441 0.0
C117 C 0.24596 0.27285 0.85094 0.0
C118 C 0.26548 0.26743 0.85549 0.0
C119 C 0.22177 0.2233 0.83623 0.0
C120 C 0.21805 0.21994 0.80676 0.0
C121 C 0.22886 0.20592 0.79332 0.0
C122 C 0.22533 0.20242 0.76599 0.0
C123 C 0.21107 0.21329 0.75204 0.0
C124 C 0.20002 0.22731 0.76514 0.0
C125 C 0.20372 0.23068 0.79256 0.0
H126 H 0.70824 0.25426 0.77089 0.0
H127 H 0.74909 0.30168 0.77273 0.0
H128 H 0.71804 0.2912 0.84112 0.0
H129 H 0.71686 0.26968 0.72957 0.0
H130 H 0.73546 0.28771 0.73064 0.0
H131 H 0.72471 0.23522 0.72777 0.0
H132 H 0.78281 0.21966 0.71028 0.0
H133 H 0.7702 0.27839 0.73618 0.0
C134 C 0.71587 0.26621 0.78171 0.0
C135 C 0.71183 0.27095 0.808 0.0
C136 C 0.72923 0.27728 0.76884 0.0
C137 C 0.73899 0.29296 0.7827 0.0
C138 C 0.73528 0.29782 0.80902 0.0
C139 C 0.72173 0.28673 0.8214 0.0
C140 C 0.73122 0.27393 0.73954 0.0
C141 C 0.74597 0.25836 0.7337 0.0
C142 C 0.7399 0.23907 0.72732 0.0
C143 C 0.7532 0.22498 0.71908 0.0
C144 C 0.77275 0.23025 0.71788 0.0
C145 C 0.77903 0.24948 0.72378 0.0
C146 C 0.76559 0.26343 0.73204 0.0
H147 H 0.75504 0.71079 0.76155 0.0
H148 H 0.70668 0.74999 0.75109 0.0
H149 H 0.72083 0.72607 0.82691 0.0
H150 H 0.73962 0.71685 0.71691 0.0
H151 H 0.72073 0.7345 0.71271 0.0
H152 H 0.77266 0.72646 0.71406 0.0
H153 H 0.78583 0.78656 0.70204 0.0
H154 H 0.72893 0.77044 0.7228 0.0
C155 C 0.74328 0.71892 0.76976 0.0
C156 C 0.73967 0.71721 0.79648 0.0
C157 C 0.73145 0.73073 0.75331 0.0
C158 C 0.71602 0.7411 0.76381 0.0
C159 C 0.71243 0.73979 0.79054 0.0
C160 C 0.72433 0.7279 0.80667 0.0
C161 C 0.73461 0.73134 0.72428 0.0
C162 C 0.74929 0.7468 0.71938 0.0
C163 C 0.76837 0.74165 0.71404 0.0
C164 C 0.78173 0.75593 0.70786 0.0
C165 C 0.77593 0.77554 0.70791 0.0
C166 C 0.75694 0.78091 0.71324 0.0
C167 C 0.74371 0.76646 0.71906 0.0
C168 C 0.03204 0.28824 0.57464 0.0
C169 C 0.03816 0.3059 0.58668 0.0
C170 C 0.02829 0.32013 0.57335 0.0
C171 C 0.01671 0.31038 0.5541 0.0
N172 N 0.01856 0.29077 0.55427 0.0
Co173 Co 0.00408 0.27104 0.53006 0.0
N174 N 0.99008 0.29203 0.5099 0.0
C175 C 0.99264 0.31149 0.51364 0.0
C176 C 0.98115 0.32227 0.49657 0.0
C177 C 0.97058 0.30891 0.48096 0.0
C178 C 0.97623 0.29068 0.48954 0.0
N179 N 0.9891 0.2513 0.50646 0.0
C180 C 0.975 0.25382 0.48689 0.0
C181 C 0.96781 0.23611 0.47615 0.0
C182 C 0.9777 0.22189 0.48942 0.0
C183 C 0.99023 0.23166 0.50748 0.0
N184 N 0.01851 0.25005 0.54969 0.0
C185 C 0.01709 0.2306 0.54456 0.0
C186 C 0.02925 0.21982 0.56079 0.0
C187 C 0.03914 0.23318 0.57719 0.0
C188 C 0.03235 0.25141 0.57004 0.0
N189 N 0.98314 0.2706 0.55497 0.0
C190 C 0.95231 0.26968 0.58859 0.0
C191 C 0.96128 0.25252 0.58016 0.0
C192 C 0.97655 0.25331 0.5636 0.0
C193 C 0.95933 0.28735 0.58032 0.0
C194 C 0.97461 0.28748 0.56363 0.0
N195 N 0.02504 0.27147 0.50507 0.0
C196 C 0.04496 0.25469 0.47406 0.0
C197 C 0.05515 0.27178 0.47028 0.0
C198 C 0.05001 0.28876 0.48409 0.0
C199 C 0.03489 0.28833 0.50101 0.0
C200 C 0.03023 0.25481 0.49154 0.0
H201 H 0.03147 0.30184 0.51059 0.0
H202 H 0.02337 0.24119 0.49385 0.0
H203 H 0.98271 0.23971 0.55794 0.0
H204 H 0.97912 0.3014 0.55777 0.0
C205 C 0.00485 0.31922 0.53458 0.0
C206 C 0.03969 0.26952 0.58303 0.0
C207 C 0.96779 0.27258 0.47796 0.0
C208 C 0.00364 0.22283 0.52512 0.0
H209 H 0.04881 0.30825 0.60323 0.0
H210 H 0.02964 0.33572 0.57699 0.0
H211 H 0.98027 0.33799 0.4959 0.0
H212 H 0.95978 0.31218 0.46523 0.0
H213 H 0.95654 0.23372 0.46039 0.0
H214 H 0.97597 0.20628 0.48626 0.0
H215 H 0.03066 0.20412 0.56078 0.0
H216 H 0.05013 0.22988 0.59267 0.0
H217 H 0.95662 0.23847 0.5864 0.0
H218 H 0.95279 0.30105 0.58618 0.0
H219 H 0.04861 0.24113 0.46395 0.0
H220 H 0.05744 0.30238 0.48157 0.0
C221 C 0.71091 0.0367 0.55614 0.0
C222 C 0.6932 0.04331 0.56431 0.0
C223 C 0.67913 0.0325 0.5503 0.0
C224 C 0.68898 0.01979 0.53469 0.0
N225 N 0.70852 0.02177 0.53788 0.0
Co226 Co 0.72825 0.00516 0.52043 0.0
N227 N 0.70749 0.98964 0.49932 0.0
C228 C 0.68815 0.99301 0.49837 0.0
C229 C 0.67749 0.98055 0.48127 0.0
C230 C 0.69079 0.96843 0.47067 0.0
C231 C 0.70888 0.9741 0.48218 0.0
N232 N 0.74797 0.98785 0.50404 0.0
C233 C 0.74553 0.97174 0.48774 0.0
C234 C 0.76322 0.9631 0.48297 0.0
C235 C 0.7773 0.97423 0.4964 0.0
C236 C 0.76749 0.98883 0.50884 0.0
N237 N 0.74904 0.02125 0.54063 0.0
C238 C 0.76843 0.01949 0.5389 0.0
C239 C 0.77915 0.03341 0.55348 0.0
C240 C 0.76583 0.04488 0.56516 0.0
C241 C 0.74765 0.03711 0.55723 0.0
N242 N 0.72776 0.98696 0.54975 0.0
C243 C 0.72741 0.95947 0.58952 0.0
C244 C 0.74475 0.96813 0.58335 0.0
C245 C 0.74459 0.98178 0.56367 0.0
C246 C 0.71018 0.96523 0.57587 0.0
C247 C 0.71068 0.97887 0.55622 0.0
N248 N 0.72876 0.02342 0.49103 0.0
C249 C 0.74639 0.03966 0.45867 0.0
C250 C 0.73007 0.05062 0.45106 0.0
C251 C 0.71297 0.04753 0.46336 0.0
C252 C 0.71256 0.0338 0.48292 0.0
C253 C 0.74547 0.02636 0.47863 0.0
H254 H 0.699 0.03199 0.49127 0.0
H255 H 0.75857 0.01884 0.48384 0.0
H256 H 0.75831 0.98771 0.5598 0.0
H257 H 0.69708 0.98249 0.54633 0.0
C258 C 0.68034 0.00675 0.51557 0.0
C259 C 0.72952 0.04545 0.56578 0.0
C260 C 0.72685 0.96403 0.47653 0.0
C261 C 0.77619 0.00405 0.52444 0.0
H262 H 0.69066 0.05492 0.57869 0.0
H263 H 0.66356 0.03395 0.55109 0.0
H264 H 0.66186 0.98003 0.47744 0.0
H265 H 0.6875 0.95658 0.45635 0.0
H266 H 0.76576 0.95003 0.47112 0.0
H267 H 0.79284 0.97192 0.49707 0.0
H268 H 0.79479 0.03501 0.55545 0.0
H269 H 0.7692 0.05757 0.57797 0.0
H270 H 0.75855 0.96403 0.59309 0.0
H271 H 0.69631 0.95921 0.5802 0.0
H272 H 0.76001 0.04173 0.44976 0.0
H273 H 0.69991 0.05561 0.45782 0.0
C274 C 0.0333 0.75892 0.54438 0.0
C275 C 0.04058 0.77719 0.5527 0.0
C276 C 0.02971 0.79054 0.53909 0.0
C277 C 0.01661 0.77978 0.52308 0.0
N278 N 0.01829 0.7603 0.52573 0.0
Co279 Co 0.0033 0.73937 0.50431 0.0
N280 N 0.98744 0.75916 0.48422 0.0
C281 C 0.98876 0.77879 0.4873 0.0
C282 C 0.97571 0.7886 0.47112 0.0
C283 C 0.96515 0.77439 0.45714 0.0
C284 C 0.97237 0.75667 0.46576 0.0
N285 N 0.98873 0.71846 0.48231 0.0
C286 C 0.97369 0.71984 0.46371 0.0
C287 C 0.96764 0.70161 0.4535 0.0
C288 C 0.97922 0.68826 0.46608 0.0
C289 C 0.99161 0.69901 0.48325 0.0
N290 N 0.01865 0.71959 0.52508 0.0
C291 C 0.01673 0.69997 0.52268 0.0
C292 C 0.02869 0.69016 0.5403 0.0
C293 C 0.039 0.70433 0.55474 0.0
C294 C 0.03285 0.72204 0.54483 0.0
N295 N 0.98336 0.73924 0.5306 0.0
C296 C 0.95332 0.73903 0.56546 0.0
C297 C 0.96048 0.72165 0.55472 0.0
C298 C 0.97533 0.72209 0.53749 0.0
C299 C 0.96186 0.75651 0.55898 0.0
C300 C 0.97677 0.75628 0.54172 0.0
N301 N 0.02325 0.73947 0.47787 0.0
C302 C 0.04705 0.72254 0.45268 0.0
C303 C 0.05147 0.73962 0.44036 0.0
C304 C 0.04163 0.75663 0.44714 0.0
C305 C 0.02785 0.75628 0.46595 0.0
C306 C 0.03288 0.72274 0.47103 0.0
H307 H 0.02121 0.76984 0.47053 0.0
H308 H 0.03 0.70916 0.47935 0.0
H309 H 0.97991 0.70835 0.52978 0.0
H310 H 0.98255 0.77008 0.53733 0.0
C311 C 0.00262 0.78756 0.5053 0.0
C312 C 0.0415 0.7407 0.55415 0.0
C313 C 0.96406 0.73794 0.45626 0.0
C314 C 0.00443 0.6912 0.50259 0.0
H315 H 0.05269 0.78063 0.56683 0.0
H316 H 0.03135 0.80624 0.54044 0.0
H317 H 0.97401 0.80421 0.46975 0.0
H318 H 0.95334 0.77681 0.44242 0.0
H319 H 0.95573 0.69822 0.43902 0.0
H320 H 0.9782 0.67254 0.46379 0.0
H321 H 0.03002 0.67455 0.54209 0.0
H322 H 0.05004 0.70187 0.57049 0.0
H323 H 0.95465 0.70769 0.55951 0.0
H324 H 0.95675 0.77039 0.5666 0.0
H325 H 0.05428 0.70899 0.44786 0.0
H326 H 0.0448 0.77027 0.43829 0.0
C327 C 0.29412 0.97186 0.5507 0.0
C328 C 0.31203 0.96665 0.5626 0.0
C329 C 0.32554 0.97847 0.55304 0.0
C330 C 0.31518 0.99034 0.53615 0.0
N331 N 0.29584 0.98683 0.53429 0.0
Co332 Co 0.27547 0.00183 0.5134 0.0
N333 N 0.2955 0.01843 0.49816 0.0
C334 C 0.315 0.01649 0.50173 0.0
C335 C 0.32513 0.02943 0.48806 0.0
C336 C 0.31128 0.04028 0.47487 0.0
C337 C 0.29342 0.03339 0.48145 0.0
N338 N 0.25502 0.0176 0.49379 0.0
C339 C 0.25669 0.03325 0.47855 0.0
C340 C 0.23863 0.04055 0.47009 0.0
C341 C 0.22508 0.02906 0.48017 0.0
C342 C 0.23556 0.01557 0.49434 0.0
N343 N 0.25547 0.98448 0.52736 0.0
C344 C 0.23608 0.98494 0.52123 0.0
C345 C 0.22605 0.97042 0.53206 0.0
C346 C 0.23984 0.95993 0.54586 0.0
C347 C 0.25759 0.96886 0.54293 0.0
N348 N 0.27415 0.02038 0.5442 0.0
C349 C 0.27199 0.04756 0.58686 0.0
C350 C 0.25578 0.03656 0.57744 0.0
C351 C 0.25712 0.02326 0.55613 0.0
C352 C 0.28937 0.04458 0.57489 0.0
C353 C 0.29018 0.03088 0.55393 0.0
N354 N 0.27679 0.98327 0.4826 0.0
C355 C 0.26105 0.96565 0.4448 0.0
C356 C 0.27817 0.95565 0.44033 0.0
C357 C 0.2947 0.95993 0.45698 0.0
C358 C 0.29377 0.97386 0.47766 0.0
C359 C 0.26064 0.97918 0.46598 0.0
H360 H 0.30695 0.97664 0.48946 0.0
H361 H 0.24699 0.98594 0.46864 0.0
H362 H 0.24412 0.01562 0.54954 0.0
H363 H 0.30393 0.02914 0.54588 0.0
C364 C 0.32328 0.00373 0.52007 0.0
C365 C 0.27599 0.96193 0.55533 0.0
C366 C 0.27496 0.04173 0.47159 0.0
C367 C 0.22764 0.99992 0.50662 0.0
H368 H 0.31507 0.95534 0.57656 0.0
H369 H 0.34111 0.9782 0.55749 0.0
H370 H 0.34073 0.03109 0.48817 0.0
H371 H 0.31402 0.05209 0.46211 0.0
H372 H 0.23554 0.05286 0.4578 0.0
H373 H 0.20944 0.03025 0.47724 0.0
H374 H 0.21053 0.96785 0.5303 0.0
H375 H 0.23707 0.94716 0.55684 0.0
H376 H 0.24197 0.03855 0.58606 0.0
H377 H 0.30234 0.0527 0.58179 0.0
H378 H 0.24784 0.96262 0.43246 0.0
H379 H 0.30832 0.9526 0.454 0.0
C380 C 0.53293 0.79468 0.05417 0.0
C381 C 0.54009 0.81213 0.0657 0.0
C382 C 0.5307 0.82668 0.05243 0.0
C383 C 0.51835 0.81731 0.03371 0.0
N384 N 0.5192 0.79764 0.03426 0.0
Co385 Co 0.50359 0.77839 0.01068 0.0
N386 N 0.49056 0.7998 0.99026 0.0
C387 C 0.49408 0.81915 0.99357 0.0
C388 C 0.48282 0.83028 0.97667 0.0
C389 C 0.4713 0.81728 0.96176 0.0
C390 C 0.47622 0.79891 0.97054 0.0
N391 N 0.48754 0.75913 0.98763 0.0
C392 C 0.47317 0.76217 0.96861 0.0
C393 C 0.4651 0.74475 0.95817 0.0
C394 C 0.47459 0.73017 0.97123 0.0
C395 C 0.4878 0.73947 0.98885 0.0
N396 N 0.51699 0.75694 0.03064 0.0
C397 C 0.51444 0.73751 0.02611 0.0
C398 C 0.52619 0.72636 0.04236 0.0
C399 C 0.53706 0.7394 0.05808 0.0
C400 C 0.53123 0.75784 0.05052 0.0
N401 N 0.48272 0.77939 0.03566 0.0
C402 C 0.44967 0.78033 0.06515 0.0
C403 C 0.45852 0.7627 0.05853 0.0
C404 C 0.47495 0.76257 0.04407 0.0
C405 C 0.45836 0.79758 0.05819 0.0
C406 C 0.4748 0.79678 0.04359 0.0
N407 N 0.52436 0.77736 0.98545 0.0
C408 C 0.54343 0.759 0.95498 0.0
C409 C 0.55384 0.77566 0.94957 0.0
C410 C 0.54913 0.79324 0.96241 0.0
C411 C 0.53443 0.79377 0.98002 0.0
C412 C 0.52903 0.76015 0.9729 0.0
H413 H 0.53155 0.80762 0.98904 0.0
H414 H 0.52188 0.74685 0.97619 0.0
H415 H 0.4808 0.74863 0.03937 0.0
H416 H 0.48051 0.81039 0.03832 0.0
C417 C 0.50679 0.82652 0.01421 0.0
C418 C 0.53999 0.77571 0.06242 0.0
C419 C 0.46634 0.78118 0.96024 0.0
C420 C 0.50065 0.73019 0.00678 0.0
H421 H 0.55117 0.81413 0.0818 0.0
H422 H 0.53292 0.84222 0.05566 0.0
H423 H 0.48259 0.846 0.97583 0.0
H424 H 0.46024 0.8209 0.94653 0.0
H425 H 0.45343 0.74281 0.94287 0.0
H426 H 0.47202 0.71466 0.96842 0.0
H427 H 0.52682 0.71062 0.04266 0.0
H428 H 0.54813 0.73574 0.07327 0.0
H429 H 0.4526 0.74897 0.06412 0.0
H430 H 0.45207 0.81162 0.063 0.0
H431 H 0.54617 0.74506 0.94525 0.0
H432 H 0.5569 0.80655 0.95924 0.0
C433 C 0.22094 0.53062 0.05417 0.0
C434 C 0.20346 0.53738 0.06296 0.0
C435 C 0.18904 0.52829 0.04733 0.0
C436 C 0.19845 0.51659 0.02992 0.0
N437 N 0.21805 0.51762 0.03345 0.0
Co438 Co 0.23726 0.50293 0.01245 0.0
N439 N 0.21597 0.49022 0.98893 0.0
C440 C 0.19673 0.49394 0.98885 0.0
C441 C 0.18568 0.48322 0.97 0.0
C442 C 0.19862 0.47178 0.95748 0.0
C443 C 0.21685 0.47611 0.96965 0.0
N444 N 0.25643 0.48753 0.99216 0.0
C445 C 0.2534 0.47288 0.97359 0.0
C446 C 0.27082 0.46484 0.96634 0.0
C447 C 0.28532 0.47475 0.98079 0.0
C448 C 0.27602 0.48806 0.99617 0.0
N449 N 0.2586 0.51618 0.03537 0.0
C450 C 0.27794 0.51413 0.0334 0.0
C451 C 0.28907 0.5253 0.05163 0.0
C452 C 0.27607 0.5353 0.06594 0.0
C453 C 0.25768 0.52967 0.05548 0.0
N454 N 0.23655 0.48132 0.03739 0.0
C455 C 0.23583 0.45032 0.07246 0.0
C456 C 0.25334 0.45888 0.06672 0.0
C457 C 0.25337 0.47417 0.04933 0.0
C458 C 0.21865 0.45757 0.06018 0.0
C459 C 0.21933 0.47297 0.04291 0.0
N460 N 0.238 0.52464 0.98739 0.0
C461 C 0.25576 0.54457 0.95883 0.0
C462 C 0.23931 0.55576 0.95253 0.0
C463 C 0.22216 0.55107 0.96391 0.0
C464 C 0.22179 0.53552 0.98094 0.0
C465 C 0.25484 0.52934 0.97625 0.0
H466 H 0.20818 0.53268 0.98863 0.0
H467 H 0.26804 0.52172 0.9805 0.0
H468 H 0.26723 0.4799 0.04574 0.0
H469 H 0.20574 0.4779 0.03423 0.0
C470 C 0.18934 0.50584 0.00862 0.0
C471 C 0.23986 0.53779 0.06513 0.0
C472 C 0.23435 0.46559 0.9633 0.0
C473 C 0.28523 0.50083 0.01516 0.0
H474 H 0.20127 0.54813 0.07861 0.0
H475 H 0.17354 0.53041 0.04805 0.0
H476 H 0.17003 0.48317 0.96648 0.0
H477 H 0.19501 0.46103 0.94171 0.0
H478 H 0.27295 0.45278 0.95253 0.0
H479 H 0.30079 0.47219 0.98062 0.0
H480 H 0.30476 0.52596 0.05434 0.0
H481 H 0.27972 0.54558 0.08226 0.0
H482 H 0.2671 0.45363 0.07527 0.0
H483 H 0.20468 0.45159 0.06411 0.0
H484 H 0.26947 0.54778 0.95078 0.0
H485 H 0.20896 0.55921 0.95945 0.0
C486 C 0.47232 0.25098 0.99078 0.0
C487 C 0.4654 0.26925 0.98401 0.0
C488 C 0.47718 0.28262 0.99775 0.0
C489 C 0.49048 0.27185 0.01221 0.0
N490 N 0.48808 0.25236 0.00837 0.0
Co491 Co 0.50349 0.2314 0.02681 0.0
N492 N 0.51959 0.25117 0.04897 0.0
C493 C 0.51794 0.2708 0.04855 0.0
C494 C 0.53153 0.28063 0.06498 0.0
C495 C 0.54268 0.26647 0.07647 0.0
C496 C 0.53513 0.2487 0.06648 0.0
N497 N 0.51891 0.21045 0.0451 0.0
C498 C 0.53429 0.21182 0.06328 0.0
C499 C 0.54069 0.19358 0.07096 0.0
C500 C 0.52929 0.18019 0.05664 0.0
C501 C 0.51655 0.19096 0.04123 0.0
N502 N 0.48735 0.21164 0.0048 0.0
C503 C 0.48909 0.19202 0.00498 0.0
C504 C 0.47593 0.18224 0.98779 0.0
C505 C 0.46488 0.19644 0.97621 0.0
C506 C 0.4719 0.21413 0.98721 0.0
N507 N 0.52268 0.23171 0.99933 0.0
C508 C 0.55127 0.23225 0.96205 0.0
C509 C 0.54294 0.21473 0.96887 0.0
C510 C 0.52891 0.21479 0.98746 0.0
C511 C 0.54476 0.24949 0.97408 0.0
C512 C 0.53051 0.2489 0.99222 0.0
N513 N 0.48432 0.23112 0.05427 0.0
C514 C 0.4629 0.21356 0.08081 0.0
C515 C 0.45588 0.23099 0.09165 0.0
C516 C 0.46357 0.24844 0.08365 0.0
C517 C 0.47763 0.24817 0.06519 0.0
C518 C 0.47701 0.21395 0.06236 0.0
H519 H 0.48268 0.262 0.05985 0.0
H520 H 0.48166 0.20019 0.05478 0.0
H521 H 0.52342 0.20093 0.99201 0.0
H522 H 0.52627 0.26257 1.00046 0.0
C523 C 0.50437 0.27961 0.0311 0.0
C524 C 0.46285 0.23278 0.98108 0.0
C525 C 0.54378 0.22993 0.07317 0.0
C526 C 0.5027 0.18318 0.02233 0.0
H527 H 0.45283 0.27268 0.97107 0.0
H528 H 0.47577 0.29833 0.9979 0.0
H529 H 0.5335 0.29624 0.06763 0.0
H530 H 0.55526 0.26907 0.09011 0.0
H531 H 0.55258 0.19029 0.08516 0.0
H532 H 0.53037 0.16448 0.05706 0.0
H533 H 0.47431 0.16664 0.98449 0.0
H534 H 0.45277 0.19404 0.96168 0.0
H535 H 0.54713 0.20095 0.95989 0.0
H536 H 0.55086 0.26349 0.97001 0.0
H537 H 0.45761 0.19962 0.08659 0.0
H538 H 0.45846 0.26238 0.0911 0.0
C539 C 0.75451 0.53482 0.06485 0.0
C540 C 0.73677 0.54119 0.07318 0.0
C541 C 0.72274 0.53137 0.05768 0.0
C542 C 0.73265 0.51961 0.04089 0.0
N543 N 0.7522 0.52126 0.04471 0.0
Co544 Co 0.77207 0.50651 0.0249 0.0
N545 N 0.75138 0.49293 0.00112 0.0
C546 C 0.732 0.496 1.00077 0.0
C547 C 0.72139 0.48464 0.98218 0.0
C548 C 0.73477 0.4736 0.96992 0.0
C549 C 0.75285 0.4789 0.98179 0.0
N550 N 0.7919 0.49105 0.00592 0.0
C551 C 0.78951 0.47661 0.98693 0.0
C552 C 0.8072 0.46912 0.97997 0.0
C553 C 0.82127 0.47901 0.99532 0.0
C554 C 0.81143 0.49189 0.01072 0.0
N555 N 0.79278 0.52071 0.04795 0.0
C556 C 0.81221 0.51899 0.04664 0.0
C557 C 0.8228 0.53124 0.06415 0.0
C558 C 0.80934 0.54157 0.07726 0.0
C559 C 0.79125 0.53498 0.06696 0.0
N560 N 0.77136 0.48553 0.05059 0.0
C561 C 0.77033 0.4549 0.08583 0.0
C562 C 0.7879 0.46368 0.08093 0.0
C563 C 0.78808 0.47887 0.0634 0.0
C564 C 0.75327 0.46196 0.07313 0.0
C565 C 0.75411 0.47713 0.05575 0.0
N566 N 0.77282 0.52759 0.99922 0.0
C567 C 0.79072 0.54782 0.97133 0.0
C568 C 0.77428 0.5591 0.96563 0.0
C569 C 0.757 0.55411 0.97629 0.0
C570 C 0.75653 0.53826 0.99258 0.0
C571 C 0.78973 0.53234 0.98827 0.0
H572 H 0.74281 0.53508 0.99972 0.0
H573 H 0.80291 0.52464 0.99243 0.0
H574 H 0.80193 0.48485 0.06033 0.0
H575 H 0.7406 0.48172 0.04661 0.0
C576 C 0.72408 0.50815 0.01988 0.0
C577 C 0.77308 0.54279 0.07585 0.0
C578 C 0.77088 0.46954 0.97485 0.0
C579 C 0.82006 0.50531 0.02936 0.0
H580 H 0.73421 0.55211 0.08849 0.0
H581 H 0.70716 0.53302 0.05811 0.0
H582 H 0.70575 0.484 0.97858 0.0
H583 H 0.7315 0.46257 0.95442 0.0
H584 H 0.80966 0.45769 0.9653 0.0
H585 H 0.83683 0.47703 0.99527 0.0
H586 H 0.83845 0.53247 0.06706 0.0
H587 H 0.81246 0.55273 0.09266 0.0
H588 H 0.80154 0.45861 0.09009 0.0
H589 H 0.73925 0.45588 0.07662 0.0
H590 H 0.8044 0.55127 0.96336 0.0
H591 H 0.74387 0.56239 0.97197 0.0
C592 C 0.20373 0.25425 0.35515 0.0
C593 C 0.20157 0.24678 0.32891 0.0
C594 C 0.18748 0.26015 0.36837 0.0
C595 C 0.13642 0.24802 0.36971 0.0
H596 H 0.13311 0.29466 0.41473 0.0
C597 C 0.06849 0.26313 0.42672 0.0
C598 C 0.07117 0.27171 0.45228 0.0
C599 C 0.0838 0.26222 0.41013 0.0
C600 C 0.13387 0.28143 0.40252 0.0
H601 H 0.18079 0.24024 0.29566 0.0
H602 H 0.15239 0.25042 0.31882 0.0
H603 H 0.16117 0.28978 0.3885 0.0
H604 H 0.0919 0.28618 0.48055 0.0
H605 H 0.1189 0.28397 0.45209 0.0
H606 H 0.10977 0.23907 0.38439 0.0
C607 C 0.16666 0.25177 0.32911 0.0
C608 C 0.14991 0.27873 0.38737 0.0
C609 C 0.18293 0.24612 0.31578 0.0
C610 C 0.08941 0.27962 0.46082 0.0
C611 C 0.10485 0.27843 0.4444 0.0
C612 C 0.12056 0.25055 0.38511 0.0
C613 C 0.16873 0.25842 0.35572 0.0
C614 C 0.15135 0.26198 0.37084 0.0
C615 C 0.10233 0.26955 0.41887 0.0
C616 C 0.11904 0.26727 0.40181 0.0
H617 H 0.21794 0.25491 0.36572 0.0
H618 H 0.1895 0.26514 0.38891 0.0
H619 H 0.1373 0.23479 0.35751 0.0
H620 H 0.05448 0.25714 0.41952 0.0
H621 H 0.08107 0.25571 0.39043 0.0
C622 C 0.76919 0.17198 0.29181 0.0
C623 C 0.76954 0.19076 0.30385 0.0
C624 C 0.76197 0.15623 0.30474 0.0
C625 C 0.73177 0.14224 0.35772 0.0
H626 H 0.76764 0.09905 0.36561 0.0
C627 C 0.72477 0.08469 0.43638 0.0
C628 C 0.73118 0.06563 0.43107 0.0
C629 C 0.72727 0.09928 0.41848 0.0
C630 C 0.7572 0.11073 0.3632 0.0
H631 H 0.76176 0.20803 0.33814 0.0
H632 H 0.74886 0.18047 0.36064 0.0
H633 H 0.7752 0.12573 0.33794 0.0
H634 H 0.74436 0.04659 0.40245 0.0
H635 H 0.74811 0.07183 0.37067 0.0
H636 H 0.71368 0.12725 0.38282 0.0
C637 C 0.75424 0.17795 0.34127 0.0
C638 C 0.7616 0.12607 0.34738 0.0
C639 C 0.76171 0.19366 0.3285 0.0
C640 C 0.73951 0.06125 0.40712 0.0
C641 C 0.74174 0.07576 0.38902 0.0
C642 C 0.72721 0.12674 0.37327 0.0
C643 C 0.75473 0.15902 0.32978 0.0
C644 C 0.74908 0.14209 0.34478 0.0
C645 C 0.736 0.09507 0.39468 0.0
C646 C 0.74001 0.11091 0.37654 0.0
H647 H 0.77528 0.16932 0.27291 0.0
H648 H 0.7624 0.14178 0.2954 0.0
H649 H 0.7218 0.15438 0.35585 0.0
H650 H 0.71848 0.08847 0.45485 0.0
H651 H 0.72296 0.11399 0.4238 0.0
C652 C 0.80191 0.73764 0.34386 0.0
C653 C 0.79641 0.75525 0.33219 0.0
C654 C 0.82121 0.73447 0.35302 0.0
C655 C 0.86311 0.76231 0.38047 0.0
H656 H 0.89101 0.71342 0.37504 0.0
C657 C 0.92841 0.74434 0.45186 0.0
C658 C 0.94512 0.73755 0.44035 0.0
C659 C 0.91084 0.74569 0.4366 0.0
C660 C 0.88341 0.72718 0.37657 0.0
H661 H 0.80722 0.78268 0.31919 0.0
H662 H 0.84082 0.77726 0.33566 0.0
H663 H 0.85956 0.71717 0.34998 0.0
H664 H 0.95679 0.7266 0.40421 0.0
H665 H 0.92576 0.72848 0.37743 0.0
H666 H 0.88665 0.77221 0.40745 0.0
C667 C 0.83012 0.76602 0.33794 0.0
C668 C 0.86542 0.72929 0.36236 0.0
C669 C 0.81087 0.76913 0.32857 0.0
C670 C 0.94395 0.73168 0.41348 0.0
C671 C 0.92628 0.73277 0.39824 0.0
C672 C 0.88091 0.76011 0.39491 0.0
C673 C 0.83537 0.7489 0.35089 0.0
C674 C 0.85506 0.74686 0.36429 0.0
C675 C 0.90964 0.74008 0.40959 0.0
C676 C 0.89115 0.74248 0.3933 0.0
H677 H 0.79115 0.72672 0.34729 0.0
H678 H 0.82481 0.72119 0.36311 0.0
H679 H 0.85537 0.77594 0.3826 0.0
H680 H 0.92907 0.74898 0.47257 0.0
H681 H 0.89819 0.75119 0.4459 0.0
C682 C 0.25043 0.80823 0.30722 0.0
C683 C 0.24157 0.80983 0.28158 0.0
C684 C 0.25854 0.82461 0.32104 0.0
C685 C 0.25065 0.87662 0.32631 0.0
H686 H 0.29865 0.87793 0.37101 0.0
C687 C 0.27054 0.94386 0.39347 0.0
C688 C 0.27843 0.94031 0.41908 0.0
C689 C 0.26926 0.92888 0.37399 0.0
C690 C 0.28512 0.87776 0.35879 0.0
H691 H 0.23495 0.8296 0.2499 0.0
H692 H 0.24906 0.85824 0.27413 0.0
H693 H 0.29094 0.84948 0.34165 0.0
H694 H 0.29153 0.91853 0.4444 0.0
H695 H 0.28869 0.89216 0.41079 0.0
H696 H 0.24416 0.90425 0.34418 0.0
C697 C 0.24974 0.84431 0.28348 0.0
C698 C 0.28079 0.86151 0.3419 0.0
C699 C 0.24181 0.8279 0.26956 0.0
C700 C 0.28553 0.92166 0.4247 0.0
C701 C 0.28398 0.90659 0.40535 0.0
C702 C 0.25483 0.89272 0.34339 0.0
C703 C 0.25774 0.84292 0.30958 0.0
C704 C 0.26341 0.86073 0.3257 0.0
C705 C 0.27552 0.90991 0.37985 0.0
C706 C 0.27201 0.89343 0.36011 0.0
H707 H 0.25052 0.79443 0.31686 0.0
H708 H 0.26452 0.82315 0.3412 0.0
H709 H 0.23698 0.87627 0.31436 0.0
H710 H 0.26518 0.95821 0.38859 0.0
H711 H 0.26309 0.93213 0.35443 0.0
C712 C 0.20243 0.74271 0.67364 0.0
C713 C 0.20559 0.75896 0.69113 0.0
C714 C 0.18399 0.73895 0.66132 0.0
C715 C 0.13209 0.7469 0.66341 0.0
H716 H 0.13137 0.74703 0.58695 0.0
C717 C 0.06024 0.74981 0.59721 0.0
C718 C 0.05971 0.741 0.57175 0.0
C719 C 0.07766 0.75087 0.6131 0.0
C720 C 0.13122 0.7465 0.60822 0.0
H721 H 0.19186 0.78341 0.71052 0.0
H722 H 0.15932 0.77646 0.68941 0.0
H723 H 0.16212 0.7499 0.61329 0.0
H724 H 0.07651 0.72556 0.54331 0.0
H725 H 0.10665 0.72628 0.57144 0.0
H726 H 0.10129 0.74292 0.6585 0.0
C727 C 0.1712 0.76679 0.68516 0.0
C728 C 0.14889 0.74829 0.6233 0.0
C729 C 0.18975 0.77078 0.69715 0.0
C730 C 0.07666 0.73258 0.56282 0.0
C731 C 0.09396 0.73322 0.57889 0.0
C732 C 0.11437 0.74469 0.64829 0.0
C733 C 0.16831 0.75117 0.66659 0.0
C734 C 0.14948 0.74859 0.65099 0.0
C735 C 0.09483 0.74272 0.60409 0.0
C736 C 0.11368 0.74455 0.62044 0.0
H737 H 0.21442 0.7335 0.6684 0.0
H738 H 0.18207 0.72679 0.6471 0.0
H739 H 0.13223 0.74704 0.68478 0.0
H740 H 0.04724 0.75626 0.60453 0.0
H741 H 0.07769 0.75851 0.63217 0.0
C742 C 0.23531 0.1675 0.76194 0.0
C743 C 0.23526 0.18635 0.75213 0.0
C744 C 0.24225 0.15176 0.7471 0.0
C745 C 0.27197 0.13772 0.69228 0.0
H746 H 0.23479 0.09558 0.67857 0.0
C747 C 0.27739 0.08144 0.60582 0.0
C748 C 0.27061 0.06241 0.60856 0.0
C749 C 0.27511 0.09579 0.62563 0.0
C750 C 0.24558 0.10695 0.68256 0.0
H751 H 0.24332 0.20376 0.71994 0.0
H752 H 0.25575 0.17624 0.69412 0.0
H753 H 0.22808 0.12197 0.70993 0.0
H754 H 0.25687 0.04318 0.63445 0.0
H755 H 0.25347 0.06801 0.66953 0.0
H756 H 0.28958 0.12271 0.66508 0.0
C757 C 0.25035 0.17364 0.7132 0.0
C758 C 0.24167 0.12212 0.7005 0.0
C759 C 0.24315 0.18934 0.72786 0.0
C760 C 0.262 0.05783 0.63176 0.0
C761 C 0.25999 0.0721 0.65177 0.0
C762 C 0.27605 0.12238 0.6746 0.0
C763 C 0.2495 0.15465 0.72238 0.0
C764 C 0.25468 0.13779 0.70523 0.0
C765 C 0.26624 0.09136 0.6488 0.0
C766 C 0.26274 0.10694 0.66916 0.0
H767 H 0.22915 0.16479 0.7805 0.0
H768 H 0.24154 0.13726 0.75465 0.0
H769 H 0.2823 0.14958 0.69576 0.0
H770 H 0.2839 0.08537 0.58797 0.0
H771 H 0.27979 0.11049 0.62234 0.0
C772 C 0.81492 0.24339 0.72504 0.0
C773 C 0.79895 0.25519 0.71774 0.0
C774 C 0.83303 0.24669 0.7153 0.0
C775 C 0.86347 0.24646 0.67547 0.0
H776 H 0.88288 0.29723 0.65909 0.0
C777 C 0.92103 0.25474 0.60028 0.0
C778 C 0.93556 0.269 0.60544 0.0
C779 C 0.90534 0.25388 0.6161 0.0
C780 C 0.8778 0.28294 0.66377 0.0
H781 H 0.78962 0.2802 0.69542 0.0
H782 H 0.82109 0.28582 0.67812 0.0
H783 H 0.85458 0.29497 0.68502 0.0
H784 H 0.94496 0.29355 0.63142 0.0
H785 H 0.91759 0.29195 0.65924 0.0
H786 H 0.88674 0.23441 0.65456 0.0
C787 C 0.8198 0.27421 0.69173 0.0
C788 C 0.86143 0.28164 0.67842 0.0
C789 C 0.80172 0.27101 0.70166 0.0
C790 C 0.93392 0.2825 0.62675 0.0
C791 C 0.91822 0.28159 0.64269 0.0
C792 C 0.87983 0.24777 0.66095 0.0
C793 C 0.83554 0.26173 0.69778 0.0
C794 C 0.85391 0.26337 0.68419 0.0
C795 C 0.90376 0.2672 0.63763 0.0
C796 C 0.88704 0.266 0.65453 0.0
H797 H 0.81324 0.2312 0.73761 0.0
H798 H 0.84493 0.23707 0.72092 0.0
H799 H 0.858 0.23212 0.67915 0.0
H800 H 0.92164 0.24437 0.58371 0.0
H801 H 0.89428 0.24288 0.61121 0.0
C802 C 0.76232 0.81689 0.72028 0.0
C803 C 0.7506 0.80133 0.70982 0.0
C804 C 0.75783 0.83602 0.71373 0.0
C805 C 0.7197 0.86706 0.68029 0.0
H806 H 0.76429 0.8963 0.66112 0.0
C807 C 0.71539 0.92748 0.60441 0.0
C808 C 0.72749 0.94391 0.60911 0.0
C809 C 0.7166 0.91206 0.62159 0.0
C810 C 0.7517 0.88851 0.66681 0.0
H811 H 0.72458 0.79361 0.68517 0.0
H812 H 0.71692 0.82686 0.67328 0.0
H813 H 0.76922 0.86568 0.68301 0.0
H814 H 0.74962 0.95742 0.63644 0.0
H815 H 0.75197 0.93029 0.66617 0.0
H816 H 0.7022 0.88961 0.6628 0.0
C817 C 0.72936 0.82445 0.68699 0.0
C818 C 0.75451 0.87094 0.67946 0.0
C819 C 0.73376 0.80534 0.69376 0.0
C820 C 0.74036 0.94482 0.63192 0.0
C821 C 0.74166 0.92933 0.64902 0.0
C822 C 0.71689 0.88459 0.66742 0.0
C823 C 0.74163 0.83998 0.69632 0.0
C824 C 0.73855 0.85979 0.68591 0.0
C825 C 0.73001 0.91266 0.64379 0.0
C826 C 0.73286 0.8953 0.66012 0.0
H827 H 0.77527 0.81418 0.73296 0.0
H828 H 0.76736 0.84766 0.72174 0.0
H829 H 0.70709 0.85903 0.68538 0.0
H830 H 0.70551 0.92612 0.58686 0.0
H831 H 0.70763 0.89928 0.61684 0.0
C832 C 0.81754 0.76187 0.70598 0.0
C833 C 0.801 0.75044 0.69851 0.0
C834 C 0.83495 0.7585 0.69409 0.0
C835 C 0.85195 0.73863 0.63173 0.0
H836 H 0.9032 0.74393 0.66796 0.0
C837 C 0.92114 0.72582 0.57672 0.0
C838 C 0.93669 0.73888 0.58258 0.0
C839 C 0.90526 0.7259 0.5923 0.0
C840 C 0.88898 0.74258 0.65753 0.0
H841 H 0.79005 0.72594 0.67353 0.0
H842 H 0.82051 0.71981 0.65319 0.0
H843 H 0.87445 0.74574 0.6934 0.0
H844 H 0.94784 0.76203 0.60983 0.0
H845 H 0.91986 0.76251 0.63663 0.0
H846 H 0.86631 0.73587 0.59586 0.0
C847 C 0.81993 0.73157 0.66798 0.0
C848 C 0.87253 0.74357 0.67211 0.0
C849 C 0.80254 0.73492 0.67989 0.0
C850 C 0.93602 0.75192 0.60458 0.0
C851 C 0.92009 0.75202 0.62015 0.0
C852 C 0.86835 0.73771 0.61717 0.0
C853 C 0.83618 0.74364 0.67442 0.0
C854 C 0.85381 0.74165 0.65935 0.0
C855 C 0.90445 0.7391 0.61408 0.0
C856 C 0.88708 0.73972 0.62985 0.0
H857 H 0.81685 0.77383 0.72047 0.0
H858 H 0.84716 0.76811 0.69944 0.0
H859 H 0.83775 0.73752 0.6212 0.0
H860 H 0.92102 0.71574 0.55976 0.0
H861 H 0.8936 0.71558 0.58723 0.0
C862 C 0.2738 0.80726 0.67167 0.0
C863 C 0.25909 0.80698 0.68942 0.0
C864 C 0.27803 0.82441 0.65911 0.0
C865 C 0.27237 0.87803 0.66169 0.0
H866 H 0.27279 0.87288 0.58539 0.0
C867 C 0.26689 0.94518 0.59592 0.0
C868 C 0.27625 0.9446 0.57225 0.0
C869 C 0.26641 0.92866 0.61122 0.0
C870 C 0.27311 0.87465 0.60671 0.0
H871 H 0.23799 0.82468 0.70894 0.0
H872 H 0.24563 0.85472 0.68742 0.0
H873 H 0.27006 0.8439 0.61099 0.0
H874 H 0.29285 0.92658 0.54626 0.0
H875 H 0.29278 0.89793 0.57335 0.0
H876 H 0.27562 0.90873 0.65757 0.0
C877 C 0.25382 0.84167 0.68309 0.0
C878 C 0.27148 0.85796 0.6214 0.0
C879 C 0.2494 0.82446 0.69535 0.0
C880 C 0.2855 0.92734 0.56444 0.0
C881 C 0.28526 0.91089 0.57988 0.0
C882 C 0.27425 0.89472 0.64704 0.0
C883 C 0.26784 0.84173 0.6643 0.0
C884 C 0.2709 0.85945 0.64903 0.0
C885 C 0.27552 0.9112 0.60338 0.0
C886 C 0.27444 0.89333 0.61926 0.0
H887 H 0.28136 0.79399 0.66647 0.0
H888 H 0.28903 0.82404 0.64491 0.0
H889 H 0.27213 0.87964 0.68299 0.0
H890 H 0.25967 0.95835 0.60235 0.0
H891 H 0.25849 0.92951 0.62888 0.0
C892 C 0.18599 0.2438 0.72483 0.0
C893 C 0.18371 0.23712 0.75026 0.0
C894 C 0.17003 0.25057 0.70931 0.0
C895 C 0.11723 0.24422 0.70032 0.0
H896 H 0.12002 0.28667 0.65255 0.0
C897 C 0.05155 0.2648 0.63009 0.0
C898 C 0.05561 0.26886 0.60421 0.0
C899 C 0.06667 0.26326 0.64977 0.0
C900 C 0.11904 0.27469 0.66564 0.0
H901 H 0.16301 0.23308 0.77976 0.0
H902 H 0.13516 0.24514 0.75277 0.0
H903 H 0.14749 0.28041 0.68412 0.0
H904 H 0.07822 0.27474 0.57829 0.0
H905 H 0.10482 0.27176 0.61251 0.0
H906 H 0.08907 0.23811 0.68146 0.0
C907 C 0.14928 0.24493 0.74474 0.0
C908 C 0.13477 0.27113 0.68377 0.0
C909 C 0.16527 0.23823 0.76031 0.0
C910 C 0.07489 0.27167 0.59825 0.0
C911 C 0.09003 0.27009 0.61788 0.0
C912 C 0.10155 0.24772 0.68215 0.0
C913 C 0.1514 0.25077 0.71884 0.0
C914 C 0.13413 0.25571 0.70112 0.0
C915 C 0.08612 0.26569 0.64386 0.0
C916 C 0.10234 0.26285 0.66435 0.0
H917 H 0.20005 0.24328 0.71663 0.0
H918 H 0.17216 0.25484 0.6894 0.0
H919 H 0.11638 0.23202 0.71308 0.0
H920 H 0.03669 0.26264 0.63496 0.0
H921 H 0.06311 0.26013 0.66961 0.0
C922 C 0.73161 0.20409 0.68792 0.0
C923 C 0.74656 0.20553 0.70822 0.0
C924 C 0.72758 0.18628 0.67428 0.0
C925 C 0.73356 0.13317 0.6761 0.0
H926 H 0.73544 0.13544 0.6001 0.0
C927 C 0.73861 0.06339 0.60907 0.0
C928 C 0.72993 0.06346 0.58321 0.0
C929 C 0.73938 0.08046 0.62513 0.0
C930 C 0.73445 0.13447 0.6212 0.0
H931 H 0.76829 0.18933 0.73113 0.0
H932 H 0.76092 0.15803 0.70769 0.0
H933 H 0.73776 0.16536 0.6274 0.0
H934 H 0.7148 0.08109 0.55398 0.0
H935 H 0.71522 0.11067 0.58226 0.0
H936 H 0.72987 0.10235 0.67001 0.0
C937 C 0.75243 0.17071 0.70223 0.0
C938 C 0.73587 0.15168 0.63686 0.0
C939 C 0.75668 0.18859 0.71559 0.0
C940 C 0.72165 0.08075 0.57386 0.0
C941 C 0.72209 0.09773 0.59003 0.0
C942 C 0.7318 0.11594 0.66039 0.0
C943 C 0.73823 0.1695 0.68094 0.0
C944 C 0.73558 0.15121 0.66447 0.0
C945 C 0.73116 0.09792 0.61584 0.0
C946 C 0.73238 0.11631 0.63269 0.0
H947 H 0.72373 0.21694 0.68162 0.0
H948 H 0.71647 0.18572 0.65807 0.0
H949 H 0.7332 0.13242 0.69734 0.0
H950 H 0.74504 0.05016 0.61669 0.0
H951 H 0.74677 0.07999 0.64465 0.0
C952 C 0.83956 0.24328 0.30076 0.0
C953 C 0.82131 0.24171 0.31113 0.0
C954 C 0.85568 0.2501 0.31677 0.0
C955 C 0.87081 0.27563 0.38094 0.0
H956 H 0.91711 0.244 0.37679 0.0
C957 C 0.93242 0.27537 0.46437 0.0
C958 C 0.95154 0.2731 0.45724 0.0
C959 C 0.91692 0.27422 0.44504 0.0
C960 C 0.90445 0.25323 0.37795 0.0
H961 H 0.80543 0.24717 0.34601 0.0
H962 H 0.83356 0.25883 0.37402 0.0
H963 H 0.88931 0.23771 0.34539 0.0
H964 H 0.96982 0.26842 0.42477 0.0
H965 H 0.94278 0.2667 0.3907 0.0
H966 H 0.88589 0.29092 0.41388 0.0
C967 C 0.83545 0.25486 0.3535 0.0
C968 C 0.88848 0.24962 0.3599 0.0
C969 C 0.81935 0.24801 0.33751 0.0
C970 C 0.9551 0.27019 0.43054 0.0
C971 C 0.93962 0.26908 0.41117 0.0
C972 C 0.88682 0.27928 0.399 0.0
C973 C 0.8539 0.25555 0.3435 0.0
C974 C 0.87138 0.26061 0.36137 0.0
C975 C 0.92031 0.27079 0.41821 0.0
C976 C 0.90376 0.26795 0.39793 0.0
H977 H 0.84161 0.23842 0.28059 0.0
H978 H 0.86964 0.2507 0.30836 0.0
H979 H 0.85794 0.28453 0.3824 0.0
H980 H 0.92947 0.27751 0.48497 0.0
H981 H 0.90226 0.27534 0.45123 0.0
C982 C 0.72793 0.80279 0.36088 0.0
C983 C 0.74186 0.8019 0.342 0.0
C984 C 0.72363 0.82055 0.37364 0.0
C985 C 0.72723 0.87401 0.37012 0.0
H986 H 0.73066 0.87365 0.44669 0.0
C987 C 0.73432 0.9451 0.43511 0.0
C988 C 0.72612 0.94576 0.45963 0.0
C989 C 0.73437 0.92771 0.41979 0.0
C990 C 0.72925 0.87405 0.42533 0.0
H991 H 0.76149 0.819 0.32071 0.0
H992 H 0.75376 0.85009 0.34269 0.0
H993 H 0.73314 0.84317 0.42105 0.0
H994 H 0.71095 0.92915 0.48707 0.0
H995 H 0.71028 0.89889 0.45998 0.0
H996 H 0.72317 0.90484 0.37427 0.0
C997 C 0.74622 0.83706 0.34772 0.0
C998 C 0.73074 0.85652 0.41063 0.0
C999 C 0.75071 0.81927 0.33522 0.0
C1000 C 0.71746 0.92891 0.46826 0.0
C1001 C 0.71726 0.91156 0.45281 0.0
C1002 C 0.72549 0.89154 0.38481 0.0
C1003 C 0.73298 0.83782 0.36752 0.0
C1004 C 0.72996 0.85633 0.38288 0.0
C1005 C 0.72594 0.91063 0.42848 0.0
C1006 C 0.72671 0.89185 0.41266 0.0
H1007 H 0.72101 0.78962 0.36668 0.0
H1008 H 0.71325 0.82073 0.38867 0.0
H1009 H 0.7264 0.87428 0.34873 0.0
H1010 H 0.74101 0.95799 0.42805 0.0
H1011 H 0.74144 0.92759 0.40143 0.0
C1012 C 0.16866 0.76284 0.27311 0.0
C1013 C 0.18796 0.76171 0.28382 0.0
C1014 C 0.1533 0.7579 0.28808 0.0
C1015 C 0.13986 0.7316 0.34575 0.0
H1016 H 0.10112 0.7721 0.35191 0.0
C1017 C 0.08479 0.73183 0.42643 0.0
C1018 C 0.06631 0.73983 0.4207 0.0
C1019 C 0.09909 0.7329 0.40836 0.0
C1020 C 0.11152 0.76042 0.35008 0.0
H1021 H 0.20639 0.75358 0.31797 0.0
H1022 H 0.17949 0.7446 0.34406 0.0
H1023 H 0.12676 0.77584 0.32208 0.0
H1024 H 0.04799 0.75447 0.39128 0.0
H1025 H 0.0726 0.75571 0.35928 0.0
H1026 H 0.12454 0.71601 0.37346 0.0
C1027 C 0.17628 0.74941 0.32414 0.0
C1028 C 0.12628 0.76263 0.33301 0.0
C1029 C 0.19164 0.75462 0.3093 0.0
C1030 C 0.06222 0.74843 0.3963 0.0
C1031 C 0.07639 0.74922 0.37805 0.0
C1032 C 0.1249 0.72923 0.36257 0.0
C1033 C 0.15696 0.75148 0.31392 0.0
C1034 C 0.14069 0.74834 0.33084 0.0
C1035 C 0.09514 0.74173 0.38397 0.0
C1036 C 0.11062 0.7437 0.36517 0.0
H1037 H 0.1654 0.76843 0.25361 0.0
H1038 H 0.13854 0.7595 0.27969 0.0
H1039 H 0.15075 0.72032 0.3443 0.0
H1040 H 0.08835 0.72526 0.44523 0.0
H1041 H 0.11339 0.72726 0.41389 0.0
C1042 C 0.25836 0.19667 0.35793 0.0
C1043 C 0.25132 0.19456 0.33127 0.0
C1044 C 0.26364 0.18034 0.37245 0.0
C1045 C 0.27381 0.12688 0.36676 0.0
H1046 H 0.25695 0.12783 0.43805 0.0
C1047 C 0.26913 0.05742 0.42784 0.0
C1048 C 0.27468 0.05916 0.45498 0.0
C1049 C 0.26805 0.07394 0.41245 0.0
C1050 C 0.26201 0.12738 0.41832 0.0
H1051 H 0.24499 0.17366 0.29871 0.0
H1052 H 0.25403 0.14512 0.32403 0.0
H1053 H 0.25249 0.15651 0.4117 0.0
H1054 H 0.28374 0.07923 0.48739 0.0
H1055 H 0.28198 0.1082 0.46061 0.0
H1056 H 0.28295 0.0975 0.37337 0.0
C1057 C 0.25575 0.15941 0.3337 0.0
C1058 C 0.25949 0.14389 0.40316 0.0
C1059 C 0.25059 0.1758 0.31912 0.0
C1060 C 0.2794 0.07761 0.46647 0.0
C1061 C 0.27827 0.09415 0.45115 0.0
C1062 C 0.27626 0.1103 0.38193 0.0
C1063 C 0.26187 0.16142 0.36077 0.0
C1064 C 0.26532 0.14391 0.37712 0.0
C1065 C 0.27243 0.09257 0.42396 0.0
C1066 C 0.27034 0.11032 0.4079 0.0
H1067 H 0.25928 0.21096 0.36778 0.0
H1068 H 0.26875 0.18255 0.39302 0.0
H1069 H 0.2787 0.12638 0.34694 0.0
H1070 H 0.26538 0.04328 0.41864 0.0
H1071 H 0.26331 0.07219 0.39169 0.0
C1072 C 0.69717 0.75928 0.82625 0.0
C1073 C 0.69529 0.74927 0.80151 0.0
C1074 C 0.68072 0.76545 0.83871 0.0
C1075 C 0.63072 0.75046 0.84317 0.0
H1076 H 0.6265 0.79853 0.88514 0.0
C1077 C 0.5814 0.75795 0.9294 0.0
C1078 C 0.5695 0.77455 0.9308 0.0
C1079 C 0.5957 0.75654 0.91133 0.0
C1080 C 0.6274 0.78512 0.87331 0.0
H1081 H 0.67482 0.73866 0.76982 0.0
H1082 H 0.64597 0.7494 0.79168 0.0
H1083 H 0.6533 0.7943 0.85627 0.0
H1084 H 0.56358 0.80279 0.91417 0.0
H1085 H 0.58904 0.80049 0.88312 0.0
H1086 H 0.60522 0.74103 0.86073 0.0
C1087 C 0.6602 0.75244 0.80142 0.0
C1088 C 0.64276 0.78267 0.85692 0.0
C1089 C 0.67668 0.74645 0.78882 0.0
C1090 C 0.5726 0.78989 0.91393 0.0
C1091 C 0.58711 0.78856 0.89605 0.0
C1092 C 0.61554 0.75281 0.85976 0.0
C1093 C 0.66204 0.76155 0.82679 0.0
C1094 C 0.64471 0.7652 0.84194 0.0
C1095 C 0.59866 0.77178 0.89441 0.0
C1096 C 0.61389 0.77004 0.87529 0.0
H1097 H 0.71138 0.7617 0.83639 0.0
H1098 H 0.68261 0.77232 0.85831 0.0
H1099 H 0.63195 0.73675 0.83209 0.0
H1100 H 0.57982 0.74605 0.94246 0.0
H1101 H 0.60465 0.74358 0.91084 0.0
C1102 C 0.25421 0.70564 0.82955 0.0
C1103 C 0.26229 0.70282 0.80508 0.0
C1104 C 0.24923 0.68971 0.84407 0.0
C1105 C 0.24321 0.63525 0.84048 0.0
H1106 H 0.2536 0.64141 0.91648 0.0
C1107 C 0.24957 0.57036 0.91092 0.0
C1108 C 0.24013 0.57235 0.93455 0.0
C1109 C 0.25068 0.58608 0.8943 0.0
C1110 C 0.25043 0.6395 0.89532 0.0
H1111 H 0.2711 0.68111 0.77631 0.0
H1112 H 0.26295 0.65323 0.80184 0.0
H1113 H 0.25806 0.66898 0.88887 0.0
H1114 H 0.22453 0.59248 0.95923 0.0
H1115 H 0.22667 0.61999 0.93036 0.0
H1116 H 0.2363 0.60545 0.84717 0.0
C1117 C 0.25994 0.66772 0.80967 0.0
C1118 C 0.25289 0.65537 0.87939 0.0
C1119 C 0.26464 0.6837 0.79496 0.0
C1120 C 0.23178 0.59043 0.94109 0.0
C1121 C 0.23313 0.60622 0.92466 0.0
C1122 C 0.24101 0.61929 0.85643 0.0
C1123 C 0.25256 0.67048 0.83475 0.0
C1124 C 0.24931 0.65354 0.8517 0.0
C1125 C 0.24263 0.60425 0.90109 0.0
C1126 C 0.2446 0.62124 0.88404 0.0
H1127 H 0.25216 0.72025 0.83775 0.0
H1128 H 0.24308 0.69253 0.86287 0.0
H1129 H 0.24001 0.63324 0.81935 0.0
H1130 H 0.25602 0.55659 0.90523 0.0
H1131 H 0.25821 0.58413 0.87638 0.0
C1132 C 0.30699 0.25213 0.85337 0.0
C1133 C 0.29118 0.24234 0.86284 0.0
C1134 C 0.32589 0.24897 0.86419 0.0
C1135 C 0.35132 0.23672 0.92633 0.0
H1136 H 0.39627 0.22853 0.88568 0.0
C1137 C 0.42731 0.22519 0.97796 0.0
C1138 C 0.44334 0.23302 0.96657 0.0
C1139 C 0.40896 0.22504 0.96439 0.0
C1140 C 0.38393 0.2311 0.89736 0.0
H1141 H 0.28276 0.22122 0.89054 0.0
H1142 H 0.31581 0.21585 0.90967 0.0
H1143 H 0.36393 0.23018 0.86291 0.0
H1144 H 0.45307 0.2465 0.93205 0.0
H1145 H 0.42085 0.2472 0.90868 0.0
H1146 H 0.37109 0.23849 0.96068 0.0
C1147 C 0.31356 0.22588 0.89379 0.0
C1148 C 0.3654 0.2319 0.88427 0.0
C1149 C 0.2947 0.22882 0.88269 0.0
C1150 C 0.44081 0.24057 0.94128 0.0
C1151 C 0.42239 0.24073 0.92783 0.0
C1152 C 0.36983 0.23622 0.93939 0.0
C1153 C 0.32929 0.2362 0.88498 0.0
C1154 C 0.34893 0.23467 0.89866 0.0
C1155 C 0.40617 0.23297 0.93921 0.0
C1156 C 0.38642 0.23337 0.92512 0.0
H1157 H 0.30465 0.26262 0.83807 0.0
H1158 H 0.33774 0.25718 0.85712 0.0
H1159 H 0.33889 0.23922 0.93788 0.0
H1160 H 0.42902 0.21911 0.99737 0.0
H1161 H 0.39701 0.21854 0.97361 0.0
C1162 C 0.75059 0.31481 0.85005 0.0
C1163 C 0.74405 0.31543 0.82321 0.0
C1164 C 0.75635 0.33185 0.86449 0.0
C1165 C 0.74785 0.38473 0.86496 0.0
H1166 H 0.78949 0.38613 0.92054 0.0
C1167 C 0.76639 0.45479 0.92882 0.0
C1168 C 0.77021 0.45239 0.95601 0.0
C1169 C 0.76513 0.43855 0.91122 0.0
C1170 C 0.77772 0.38594 0.90523 0.0
H1171 H 0.73915 0.33439 0.79023 0.0
H1172 H 0.74951 0.36414 0.81534 0.0
H1173 H 0.78452 0.35692 0.89187 0.0
H1174 H 0.776 0.4315 0.98634 0.0
H1175 H 0.77361 0.40299 0.95574 0.0
H1176 H 0.74077 0.41356 0.8786 0.0
C1177 C 0.74995 0.35047 0.8253 0.0
C1178 C 0.77489 0.3692 0.88875 0.0
C1179 C 0.74424 0.33338 0.81082 0.0
C1180 C 0.77307 0.4336 0.96537 0.0
C1181 C 0.77182 0.41735 0.94782 0.0
C1182 C 0.75066 0.40145 0.88145 0.0
C1183 C 0.75569 0.34996 0.85245 0.0
C1184 C 0.75978 0.3683 0.8686 0.0
C1185 C 0.7677 0.41959 0.92052 0.0
C1186 C 0.76548 0.4022 0.902 0.0
H1187 H 0.75075 0.30118 0.86011 0.0
H1188 H 0.76054 0.33091 0.88538 0.0
H1189 H 0.73587 0.38444 0.84995 0.0
H1190 H 0.76424 0.46923 0.92126 0.0
H1191 H 0.7622 0.44085 0.89032 0.0
C1192 C 0.69709 0.25066 0.20662 0.0
C1193 C 0.7135 0.24183 0.19647 0.0
C1194 C 0.67848 0.24639 0.19514 0.0
C1195 C 0.65445 0.23317 0.13121 0.0
H1196 H 0.60924 0.22308 0.16974 0.0
C1197 C 0.57913 0.22157 0.07634 0.0
C1198 C 0.56298 0.22917 0.08843 0.0
C1199 C 0.59729 0.221 0.09037 0.0
C1200 C 0.62165 0.22614 0.15867 0.0
H1201 H 0.72332 0.22121 0.16692 0.0
H1202 H 0.69074 0.21391 0.14658 0.0
H1203 H 0.64129 0.22558 0.19343 0.0
H1204 H 0.55281 0.24167 0.12467 0.0
H1205 H 0.58469 0.24167 0.14897 0.0
H1206 H 0.63502 0.23473 0.09671 0.0
C1207 C 0.69231 0.22404 0.16352 0.0
C1208 C 0.64002 0.22742 0.17227 0.0
C1209 C 0.7109 0.22808 0.17527 0.0
C1210 C 0.56517 0.23591 0.11492 0.0
C1211 C 0.5834 0.23567 0.12887 0.0
C1212 C 0.6361 0.23221 0.11769 0.0
C1213 C 0.67597 0.23344 0.17301 0.0
C1214 C 0.65658 0.23098 0.15865 0.0
C1215 C 0.59977 0.2283 0.11674 0.0
C1216 C 0.6194 0.22873 0.13121 0.0
H1217 H 0.69873 0.26131 0.22296 0.0
H1218 H 0.66614 0.25392 0.20275 0.0
H1219 H 0.66695 0.23626 0.1203 0.0
H1220 H 0.57768 0.21611 0.05596 0.0
H1221 H 0.60936 0.21479 0.08048 0.0
C1222 C 0.74356 0.67548 0.23743 0.0
C1223 C 0.74161 0.69343 0.22511 0.0
C1224 C 0.75026 0.65902 0.22373 0.0
C1225 C 0.77494 0.64263 0.16392 0.0
H1226 H 0.74445 0.59567 0.16881 0.0
C1227 C 0.77499 0.57863 0.08639 0.0
C1228 C 0.77331 0.55964 0.09511 0.0
C1229 C 0.77364 0.59464 0.10407 0.0
C1230 C 0.75336 0.60852 0.16751 0.0
H1231 H 0.74623 0.70841 0.18926 0.0
H1232 H 0.75772 0.67971 0.16528 0.0
H1233 H 0.73813 0.6242 0.19681 0.0
H1234 H 0.76939 0.54217 0.12883 0.0
H1235 H 0.76731 0.57013 0.16005 0.0
H1236 H 0.78996 0.627 0.13426 0.0
C1237 C 0.75414 0.67832 0.18556 0.0
C1238 C 0.74973 0.62492 0.18361 0.0
C1239 C 0.74739 0.69475 0.19922 0.0
C1240 C 0.77072 0.55678 0.12182 0.0
C1241 C 0.7694 0.57277 0.13954 0.0
C1242 C 0.7786 0.6262 0.14783 0.0
C1243 C 0.75524 0.66014 0.19742 0.0
C1244 C 0.7603 0.64226 0.1818 0.0
C1245 C 0.77058 0.59193 0.13083 0.0
C1246 C 0.76769 0.60901 0.14919 0.0
H1247 H 0.73909 0.67392 0.25727 0.0
H1248 H 0.75118 0.64531 0.23358 0.0
H1249 H 0.78353 0.65567 0.16228 0.0
H1250 H 0.77686 0.58106 0.06575 0.0
H1251 H 0.77435 0.60915 0.09656 0.0
C1252 C 0.293 0.7492 0.1445 0.0
C1253 C 0.28681 0.75855 0.16753 0.0
C1254 C 0.30994 0.75511 0.13374 0.0
C1255 C 0.35674 0.77904 0.151 0.0
H1256 H 0.35881 0.77864 0.0748 0.0
C1257 C 0.42743 0.79399 0.09856 0.0
C1258 C 0.43092 0.78055 0.07781 0.0
C1259 C 0.40955 0.79411 0.11002 0.0
C1260 C 0.35848 0.77878 0.09612 0.0
H1261 H 0.29329 0.78169 0.19708 0.0
H1262 H 0.32319 0.79214 0.17813 0.0
H1263 H 0.32773 0.77443 0.09377 0.0
H1264 H 0.4183 0.75698 0.0525 0.0
H1265 H 0.38733 0.75707 0.07253 0.0
H1266 H 0.38766 0.78297 0.1532 0.0
C1267 C 0.31488 0.78013 0.16857 0.0
C1268 C 0.34068 0.77638 0.10699 0.0
C1269 C 0.29775 0.77426 0.1793 0.0
C1270 C 0.41616 0.76735 0.06868 0.0
C1271 C 0.39832 0.76757 0.07993 0.0
C1272 C 0.37461 0.78149 0.14008 0.0
C1273 C 0.32117 0.77055 0.14569 0.0
C1274 C 0.33966 0.77593 0.13452 0.0
C1275 C 0.39477 0.78096 0.10068 0.0
C1276 C 0.37571 0.78083 0.1125 0.0
H1277 H 0.28473 0.73721 0.13479 0.0
H1278 H 0.31448 0.74724 0.11632 0.0
H1279 H 0.35645 0.77864 0.17229 0.0
H1280 H 0.43858 0.80428 0.10608 0.0
H1281 H 0.4072 0.80462 0.12594 0.0
C1282 C 0.23654 0.2998 0.19708 0.0
C1283 C 0.2521 0.29865 0.21642 0.0
C1284 C 0.23281 0.31715 0.18393 0.0
C1285 C 0.25882 0.3617 0.16709 0.0
H1286 H 0.20771 0.37921 0.1416 0.0
C1287 C 0.24859 0.43391 0.11371 0.0
C1288 C 0.23567 0.43392 0.09096 0.0
C1289 C 0.24926 0.41814 0.13038 0.0
C1290 C 0.2221 0.37442 0.14841 0.0
H1291 H 0.27501 0.31516 0.23851 0.0
H1292 H 0.26825 0.3455 0.21622 0.0
H1293 H 0.21081 0.35074 0.16909 0.0
H1294 H 0.21306 0.41728 0.06827 0.0
H1295 H 0.21422 0.38975 0.09741 0.0
H1296 H 0.27016 0.38517 0.14634 0.0
C1297 C 0.25926 0.33289 0.21053 0.0
C1298 C 0.22388 0.35809 0.1642 0.0
C1299 C 0.26305 0.31555 0.22349 0.0
C1300 C 0.22306 0.41789 0.08573 0.0
C1301 C 0.22373 0.40208 0.10246 0.0
C1302 C 0.25704 0.37799 0.15142 0.0
C1303 C 0.24451 0.33378 0.18994 0.0
C1304 C 0.24229 0.35151 0.17377 0.0
C1305 C 0.23703 0.40189 0.12483 0.0
C1306 C 0.23868 0.3846 0.14184 0.0
H1307 H 0.22798 0.28696 0.19099 0.0
H1308 H 0.22141 0.31721 0.16813 0.0
H1309 H 0.27327 0.35684 0.17347 0.0
H1310 H 0.25823 0.44616 0.11872 0.0
H1311 H 0.25941 0.4187 0.14771 0.0
C1312 C 0.30722 0.23256 0.20821 0.0
C1313 C 0.30445 0.24928 0.22436 0.0
C1314 C 0.32526 0.22887 0.1981 0.0
C1315 C 0.36887 0.25583 0.18178 0.0
H1316 H 0.38874 0.20421 0.16585 0.0
C1317 C 0.44069 0.24488 0.13191 0.0
C1318 C 0.44034 0.2311 0.11061 0.0
C1319 C 0.42547 0.24588 0.14866 0.0
C1320 C 0.38332 0.21872 0.17008 0.0
H1321 H 0.3187 0.27445 0.24417 0.0
H1322 H 0.35033 0.26778 0.22719 0.0
H1323 H 0.36006 0.20783 0.19118 0.0
H1324 H 0.42376 0.20733 0.09062 0.0
H1325 H 0.39728 0.20901 0.11996 0.0
H1326 H 0.39195 0.26671 0.16051 0.0
C1327 C 0.33846 0.2578 0.22163 0.0
C1328 C 0.36687 0.2208 0.18458 0.0
C1329 C 0.32039 0.26156 0.23154 0.0
C1330 C 0.42465 0.21796 0.107 0.0
C1331 C 0.40944 0.21893 0.12382 0.0
C1332 C 0.38533 0.25375 0.16744 0.0
C1333 C 0.34097 0.24177 0.20406 0.0
C1334 C 0.35931 0.2394 0.19041 0.0
C1335 C 0.40953 0.2331 0.14461 0.0
C1336 C 0.39265 0.23517 0.16118 0.0
H1337 H 0.29514 0.22296 0.20206 0.0
H1338 H 0.32655 0.21649 0.18446 0.0
H1339 H 0.36327 0.27036 0.18532 0.0
H1340 H 0.45272 0.25497 0.13563 0.0
H1341 H 0.42614 0.25675 0.16476 0.0
C1342 C 0.77699 0.30104 0.1935 0.0
C1343 C 0.76139 0.29607 0.20826 0.0
C1344 C 0.77943 0.3202 0.18605 0.0
C1345 C 0.78481 0.36348 0.17817 0.0
H1346 H 0.73667 0.38659 0.15043 0.0
C1347 C 0.78182 0.43775 0.12706 0.0
C1348 C 0.76976 0.43818 0.10351 0.0
C1349 C 0.78126 0.42187 0.14346 0.0
C1350 C 0.75024 0.38034 0.15809 0.0
H1351 H 0.73703 0.30754 0.22859 0.0
H1352 H 0.74138 0.34109 0.21581 0.0
H1353 H 0.73573 0.35645 0.1739 0.0
H1354 H 0.74801 0.42204 0.0785 0.0
H1355 H 0.747 0.39451 0.10706 0.0
H1356 H 0.79931 0.38703 0.16121 0.0
C1357 C 0.75148 0.33008 0.20949 0.0
C1358 C 0.7497 0.36319 0.17188 0.0
C1359 C 0.74901 0.3109 0.21687 0.0
C1360 C 0.75719 0.42239 0.09675 0.0
C1361 C 0.75661 0.40659 0.11314 0.0
C1362 C 0.78534 0.38069 0.16437 0.0
C1363 C 0.76633 0.33483 0.19326 0.0
C1364 C 0.76699 0.35433 0.18164 0.0
C1365 C 0.7686 0.40615 0.13669 0.0
C1366 C 0.76807 0.38905 0.15367 0.0
H1367 H 0.78664 0.28991 0.18631 0.0
H1368 H 0.7909 0.32329 0.17333 0.0
H1369 H 0.79837 0.35713 0.18567 0.0
H1370 H 0.79151 0.44978 0.13298 0.0
H1371 H 0.79057 0.42201 0.16159 0.0
C1372 C 0.69137 0.7496 0.19488 0.0
C1373 C 0.68981 0.74415 0.22106 0.0
C1374 C 0.67503 0.75582 0.17961 0.0
C1375 C 0.62204 0.75014 0.17412 0.0
H1376 H 0.62357 0.79101 0.12372 0.0
C1377 C 0.554 0.77116 0.1086 0.0
C1378 C 0.55684 0.77454 0.08211 0.0
C1379 C 0.56995 0.76939 0.12695 0.0
C1380 C 0.62295 0.77945 0.13755 0.0
H1381 H 0.66997 0.74156 0.252 0.0
H1382 H 0.64151 0.75269 0.22546 0.0
H1383 H 0.65208 0.785 0.15362 0.0
H1384 H 0.57813 0.77893 0.05371 0.0
H1385 H 0.60616 0.77555 0.0856 0.0
H1386 H 0.59313 0.74424 0.15774 0.0
C1387 C 0.65535 0.75196 0.21667 0.0
C1388 C 0.63927 0.77604 0.15471 0.0
C1389 C 0.6717 0.74581 0.23197 0.0
C1390 C 0.57574 0.77639 0.07416 0.0
C1391 C 0.59171 0.77457 0.09246 0.0
C1392 C 0.60575 0.75349 0.15692 0.0
C1393 C 0.65675 0.75666 0.19015 0.0
C1394 C 0.63905 0.76124 0.17305 0.0
C1395 C 0.58903 0.77092 0.11907 0.0
C1396 C 0.60605 0.76808 0.13825 0.0
H1397 H 0.70516 0.74861 0.18599 0.0
H1398 H 0.67659 0.75921 0.1592 0.0
H1399 H 0.62149 0.73839 0.18769 0.0
H1400 H 0.53944 0.76976 0.11501 0.0
H1401 H 0.56734 0.76685 0.14732 0.0
C1402 C 0.2291 0.69425 0.17574 0.0
C1403 C 0.24608 0.70236 0.18867 0.0
C1404 C 0.22792 0.67423 0.16962 0.0
C1405 C 0.22772 0.62972 0.16345 0.0
H1406 H 0.27342 0.6132 0.12835 0.0
C1407 C 0.23523 0.55387 0.10955 0.0
C1408 C 0.241 0.55506 0.08369 0.0
C1409 C 0.23609 0.57037 0.12668 0.0
C1410 C 0.26062 0.61756 0.13824 0.0
H1411 H 0.27428 0.69569 0.20776 0.0
H1412 H 0.27223 0.66074 0.19701 0.0
H1413 H 0.27365 0.64442 0.15286 0.0
H1414 H 0.25235 0.57398 0.05536 0.0
H1415 H 0.25422 0.60278 0.0854 0.0
H1416 H 0.21452 0.603 0.14785 0.0
C1417 C 0.26 0.66989 0.19118 0.0
C1418 C 0.2608 0.63534 0.15252 0.0
C1419 C 0.26116 0.68987 0.19733 0.0
C1420 C 0.2479 0.57281 0.07529 0.0
C1421 C 0.24902 0.58918 0.09247 0.0
C1422 C 0.22761 0.61179 0.14934 0.0
C1423 C 0.2437 0.662 0.17631 0.0
C1424 C 0.24421 0.64184 0.16476 0.0
C1425 C 0.24307 0.58816 0.11829 0.0
C1426 C 0.2439 0.60582 0.13603 0.0
H1427 H 0.2173 0.7035 0.16864 0.0
H1428 H 0.21522 0.66861 0.158 0.0
H1429 H 0.21477 0.63433 0.17279 0.0
H1430 H 0.22997 0.54023 0.11636 0.0
H1431 H 0.2315 0.56921 0.14653 0.0
C1432 C 0.31041 0.76187 0.83563 0.0
C1433 C 0.31093 0.75644 0.80867 0.0
C1434 C 0.32721 0.76845 0.85034 0.0
C1435 C 0.38023 0.76352 0.85009 0.0
H1436 H 0.38084 0.80153 0.90871 0.0
C1437 C 0.45058 0.78165 0.91438 0.0
C1438 C 0.44884 0.78241 0.94172 0.0
C1439 C 0.43396 0.78137 0.89691 0.0
C1440 C 0.38087 0.79082 0.89246 0.0
H1441 H 0.32938 0.75467 0.77579 0.0
H1442 H 0.35845 0.76669 0.80123 0.0
H1443 H 0.35117 0.79657 0.87991 0.0
H1444 H 0.42886 0.7838 0.97262 0.0
H1445 H 0.39965 0.78316 0.94214 0.0
H1446 H 0.40973 0.75747 0.86284 0.0
C1447 C 0.34514 0.76549 0.81113 0.0
C1448 C 0.36388 0.78798 0.87596 0.0
C1449 C 0.32837 0.75885 0.79644 0.0
C1450 C 0.43038 0.78332 0.9515 0.0
C1451 C 0.41375 0.78306 0.93406 0.0
C1452 C 0.39718 0.76638 0.86651 0.0
C1453 C 0.34491 0.7698 0.83842 0.0
C1454 C 0.3633 0.77413 0.85475 0.0
C1455 C 0.41534 0.78181 0.90655 0.0
C1456 C 0.39765 0.77989 0.88808 0.0
H1457 H 0.29715 0.76041 0.84557 0.0
H1458 H 0.32651 0.77156 0.87134 0.0
H1459 H 0.38022 0.75245 0.83428 0.0
H1460 H 0.46478 0.78093 0.90659 0.0
H1461 H 0.43569 0.78063 0.87584 0.0
C1462 C 0.2255 0.29731 0.8737 0.0
C1463 C 0.24016 0.29327 0.85649 0.0
C1464 C 0.222 0.31644 0.8824 0.0
C1465 C 0.22897 0.36806 0.87014 0.0
H1466 H 0.23375 0.37449 0.94659 0.0
C1467 C 0.23979 0.44355 0.92385 0.0
C1468 C 0.2325 0.44642 0.94878 0.0
C1469 C 0.23872 0.42518 0.91094 0.0
C1470 C 0.23193 0.37303 0.92523 0.0
H1471 H 0.26186 0.30606 0.83361 0.0
H1472 H 0.25549 0.33969 0.84855 0.0
H1473 H 0.23443 0.34201 0.92599 0.0
H1474 H 0.21729 0.43299 0.97916 0.0
H1475 H 0.21446 0.40114 0.95622 0.0
H1476 H 0.22618 0.39906 0.86929 0.0
C1477 C 0.24682 0.32801 0.85537 0.0
C1478 C 0.23242 0.35437 0.91346 0.0
C1479 C 0.25052 0.30882 0.84695 0.0
C1480 C 0.22326 0.43096 0.96007 0.0
C1481 C 0.22183 0.4127 0.94699 0.0
C1482 C 0.22815 0.38678 0.88194 0.0
C1483 C 0.23292 0.3319 0.87377 0.0
C1484 C 0.23111 0.35171 0.88584 0.0
C1485 C 0.2299 0.40943 0.92249 0.0
C1486 C 0.2298 0.38952 0.90967 0.0
H1487 H 0.21743 0.28559 0.88155 0.0
H1488 H 0.21114 0.31911 0.89649 0.0
H1489 H 0.22787 0.36633 0.84877 0.0
H1490 H 0.24669 0.45544 0.91464 0.0
H1491 H 0.24527 0.42325 0.89227 0.0
C1492 C 0.69785 0.25803 0.84836 0.0
C1493 C 0.69611 0.26085 0.82097 0.0
C1494 C 0.68211 0.2514 0.86137 0.0
C1495 C 0.6282 0.24857 0.85291 0.0
H1496 H 0.63513 0.22194 0.91883 0.0
C1497 C 0.56836 0.2484 0.92638 0.0
C1498 C 0.56682 0.23264 0.94302 0.0
C1499 C 0.58356 0.2494 0.9097 0.0
C1500 C 0.63277 0.22909 0.90024 0.0
H1501 H 0.67655 0.25761 0.78561 0.0
H1502 H 0.6495 0.24497 0.808 0.0
H1503 H 0.6627 0.22625 0.89257 0.0
H1504 H 0.58011 0.20528 0.95444 0.0
H1505 H 0.60587 0.20647 0.92437 0.0
H1506 H 0.59814 0.25076 0.86005 0.0
C1507 C 0.66285 0.24863 0.81966 0.0
C1508 C 0.64874 0.23187 0.88532 0.0
C1509 C 0.67854 0.25558 0.80668 0.0
C1510 C 0.58061 0.21758 0.94181 0.0
C1511 C 0.59565 0.21843 0.92479 0.0
C1512 C 0.61217 0.2455 0.8676 0.0
C1513 C 0.66421 0.247 0.84732 0.0
C1514 C 0.64681 0.24205 0.86173 0.0
C1515 C 0.59752 0.23449 0.90874 0.0
C1516 C 0.61428 0.23612 0.89181 0.0
H1517 H 0.71126 0.26154 0.85998 0.0
H1518 H 0.68382 0.25054 0.88266 0.0
H1519 H 0.62602 0.25665 0.83506 0.0
H1520 H 0.55787 0.26012 0.92624 0.0
H1521 H 0.58454 0.26217 0.89802 0.0
C1522 C 0.75466 0.70726 0.84045 0.0
C1523 C 0.75039 0.70294 0.81332 0.0
C1524 C 0.76125 0.69272 0.85733 0.0
C1525 C 0.78237 0.64392 0.86222 0.0
H1526 H 0.74739 0.63821 0.91788 0.0
C1527 C 0.78052 0.57436 0.92307 0.0
C1528 C 0.77511 0.57627 0.94915 0.0
C1529 C 0.77998 0.59051 0.90705 0.0
C1530 C 0.75764 0.63974 0.90292 0.0
H1531 H 0.75114 0.68021 0.78243 0.0
H1532 H 0.76318 0.65497 0.81194 0.0
H1533 H 0.7436 0.66559 0.8892 0.0
H1534 H 0.76591 0.59644 0.97957 0.0
H1535 H 0.76588 0.62483 0.95227 0.0
H1536 H 0.79664 0.61821 0.87614 0.0
C1537 C 0.76124 0.66962 0.82004 0.0
C1538 C 0.75537 0.65544 0.88638 0.0
C1539 C 0.75441 0.68411 0.80315 0.0
C1540 C 0.76989 0.59464 0.95935 0.0
C1541 C 0.76975 0.61084 0.94359 0.0
C1542 C 0.7849 0.62833 0.87913 0.0
C1543 C 0.76401 0.67364 0.8474 0.0
C1544 C 0.7676 0.65761 0.86578 0.0
C1545 C 0.77437 0.60895 0.91701 0.0
C1546 C 0.77244 0.62595 0.89959 0.0
H1547 H 0.75216 0.72171 0.84884 0.0
H1548 H 0.76354 0.69622 0.87833 0.0
H1549 H 0.792 0.64533 0.84646 0.0
H1550 H 0.78453 0.56026 0.91483 0.0
H1551 H 0.78339 0.58836 0.88665 0.0
loop_
_geom_bond_atom_site_label_1
_geom_bond_atom_site_label_2
_geom_bond_distance
_geom_bond_site_symmetry_2
_ccdc_geom_bond_type
H0 C8 0.930 . S
H1 C11 0.930 . S
H2 C13 0.930 . S
H3 C14 0.970 . S
H4 C14 0.970 . S
H5 C16 0.930 . S
H6 C18 0.930 . S
H7 C20 0.930 . S
C8 H0 0.930 . S
C8 C9 1.382 . S
C8 C10 1.426 . S
C9 C8 1.382 . S
C9 C13 1.389 . S
C10 C8 1.426 . S
C10 C11 1.375 . S
C10 C14 1.532 . S
C11 H1 0.930 . S
C11 C10 1.375 . S
C11 C12 1.416 . S
C12 C11 1.416 . S
C12 C13 1.371 . S
C13 H2 0.930 . S
C13 C9 1.389 . S
C13 C12 1.371 . S
C14 H3 0.970 . S
C14 H4 0.970 . S
C14 C10 1.532 . S
C14 C15 1.499 . S
C15 C14 1.499 . S
C15 C16 1.370 . S
C15 C20 1.415 . S
C16 H5 0.930 . S
C16 C15 1.370 . S
C16 C17 1.407 . S
C17 C16 1.407 . S
C17 C18 1.365 . S
C18 H6 0.930 . S
C18 C17 1.365 . S
C18 C19 1.393 . S
C19 C18 1.393 . S
C19 C20 1.387 . S
C20 H7 0.930 . S
C20 C15 1.415 . S
C20 C19 1.387 . S
H21 C29 0.930 . S
H22 C32 0.930 . S
H23 C34 0.930 . S
H24 C35 0.970 . S
H25 C35 0.970 . S
H26 C37 0.930 . S
H27 C39 0.930 . S
H28 C41 0.930 . S
C29 H21 0.930 . S
C29 C30 1.382 . S
C29 C31 1.426 . S
C30 C29 1.382 . S
C30 C34 1.389 . S
C31 C29 1.426 . S
C31 C32 1.375 . S
C31 C35 1.532 . S
C32 H22 0.930 . S
C32 C31 1.375 . S
C32 C33 1.416 . S
C33 C32 1.416 . S
C33 C34 1.371 . S
C34 H23 0.930 . S
C34 C30 1.389 . S
C34 C33 1.371 . S
C35 H24 0.970 . S
C35 H25 0.970 . S
C35 C31 1.532 . S
C35 C36 1.499 . S
C36 C35 1.499 . S
C36 C37 1.370 . S
C36 C41 1.415 . S
C37 H26 0.930 . S
C37 C36 1.370 . S
C37 C38 1.407 . S
C38 C37 1.407 . S
C38 C39 1.365 . S
C39 H27 0.930 . S
C39 C38 1.365 . S
C39 C40 1.393 . S
C40 C39 1.393 . S
C40 C41 1.387 . S
C41 H28 0.930 . S
C41 C36 1.415 . S
C41 C40 1.387 . S
H42 C50 0.930 . S
H43 C53 0.930 . S
H44 C55 0.930 . S
H45 C56 0.970 . S
H46 C56 0.970 . S
H47 C58 0.930 . S
H48 C60 0.930 . S
H49 C62 0.930 . S
C50 H42 0.930 . S
C50 C51 1.382 . S
C50 C52 1.426 . S
C51 C50 1.382 . S
C51 C55 1.389 . S
C52 C50 1.426 . S
C52 C53 1.375 . S
C52 C56 1.532 . S
C53 H43 0.930 . S
C53 C52 1.375 . S
C53 C54 1.416 . S
C54 C53 1.416 . S
C54 C55 1.371 . S
C55 H44 0.930 . S
C55 C51 1.389 . S
C55 C54 1.371 . S
C56 H45 0.970 . S
C56 H46 0.970 . S
C56 C52 1.532 . S
C56 C57 1.499 . S
C57 C56 1.499 . S
C57 C58 1.370 . S
C57 C62 1.415 . S
C58 H47 0.930 . S
C58 C57 1.370 . S
C58 C59 1.407 . S
C59 C58 1.407 . S
C59 C60 1.365 . S
C60 H48 0.930 . S
C60 C59 1.365 . S
C60 C61 1.393 . S
C61 C60 1.393 . S
C61 C62 1.387 . S
C62 H49 0.930 . S
C62 C57 1.415 . S
C62 C61 1.387 . S
H63 C71 0.930 . S
H64 C74 0.930 . S
H65 C76 0.930 . S
H66 C77 0.970 . S
H67 C77 0.970 . S
H68 C79 0.930 . S
H69 C81 0.930 . S
H70 C83 0.930 . S
C71 H63 0.930 . S
C71 C72 1.382 . S
C71 C73 1.426 . S
C72 C71 1.382 . S
C72 C76 1.389 . S
C73 C71 1.426 . S
C73 C74 1.375 . S
C73 C77 1.532 . S
C74 H64 0.930 . S
C74 C73 1.375 . S
C74 C75 1.416 . S
C75 C74 1.416 . S
C75 C76 1.371 . S
C76 H65 0.930 . S
C76 C72 1.389 . S
C76 C75 1.371 . S
C77 H66 0.970 . S
C77 H67 0.970 . S
C77 C73 1.532 . S
C77 C78 1.499 . S
C78 C77 1.499 . S
C78 C79 1.370 . S
C78 C83 1.415 . S
C79 H68 0.930 . S
C79 C78 1.370 . S
C79 C80 1.407 . S
C80 C79 1.407 . S
C80 C81 1.365 . S
C81 H69 0.930 . S
C81 C80 1.365 . S
C81 C82 1.393 . S
C82 C81 1.393 . S
C82 C83 1.387 . S
C83 H70 0.930 . S
C83 C78 1.415 . S
C83 C82 1.387 . S
H84 C92 0.930 . S
H85 C95 0.930 . S
H86 C97 0.930 . S
H87 C98 0.970 . S
H88 C98 0.970 . S
H89 C100 0.930 . S
H90 C102 0.930 . S
H91 C104 0.930 . S
C92 H84 0.930 . S
C92 C93 1.382 . S
C92 C94 1.426 . S
C93 C92 1.382 . S
C93 C97 1.389 . S
C94 C92 1.426 . S
C94 C95 1.375 . S
C94 C98 1.532 . S
C95 H85 0.930 . S
C95 C94 1.375 . S
C95 C96 1.416 . S
C96 C95 1.416 . S
C96 C97 1.371 . S
C97 H86 0.930 . S
C97 C93 1.389 . S
C97 C96 1.371 . S
C98 H87 0.970 . S
C98 H88 0.970 . S
C98 C94 1.532 . S
C98 C99 1.499 . S
C99 C98 1.499 . S
C99 C100 1.370 . S
C99 C104 1.415 . S
C100 H89 0.930 . S
C100 C99 1.370 . S
C100 C101 1.407 . S
C101 C100 1.407 . S
C101 C102 1.365 . S
C102 H90 0.930 . S
C102 C101 1.365 . S
C102 C103 1.393 . S
C103 C102 1.393 . S
C103 C104 1.387 . S
C104 H91 0.930 . S
C104 C99 1.415 . S
C104 C103 1.387 . S
H105 C113 0.930 . S
H106 C116 0.930 . S
H107 C118 0.930 . S
H108 C119 0.970 . S
H109 C119 0.970 . S
H110 C121 0.930 . S
H111 C123 0.930 . S
H112 C125 0.930 . S
C113 H105 0.930 . S
C113 C114 1.382 . S
C113 C115 1.426 . S
C114 C113 1.382 . S
C114 C118 1.389 . S
C115 C113 1.426 . S
C115 C116 1.375 . S
C115 C119 1.532 . S
C116 H106 0.930 . S
C116 C115 1.375 . S
C116 C117 1.416 . S
C117 C116 1.416 . S
C117 C118 1.371 . S
C118 H107 0.930 . S
C118 C114 1.389 . S
C118 C117 1.371 . S
C119 H108 0.970 . S
C119 H109 0.970 . S
C119 C115 1.532 . S
C119 C120 1.499 . S
C120 C119 1.499 . S
C120 C121 1.370 . S
C120 C125 1.415 . S
C121 H110 0.930 . S
C121 C120 1.370 . S
C121 C122 1.407 . S
C122 C121 1.407 . S
C122 C123 1.365 . S
C123 H111 0.930 . S
C123 C122 1.365 . S
C123 C124 1.393 . S
C124 C123 1.393 . S
C124 C125 1.387 . S
C125 H112 0.930 . S
C125 C120 1.415 . S
C125 C124 1.387 . S
H126 C134 0.930 . S
H127 C137 0.930 . S
H128 C139 0.930 . S
H129 C140 0.970 . S
H130 C140 0.970 . S
H131 C142 0.930 . S
H132 C144 0.930 . S
H133 C146 0.930 . S
C134 H126 0.930 . S
C134 C135 1.382 . S
C134 C136 1.426 . S
C135 C134 1.382 . S
C135 C139 1.389 . S
C136 C134 1.426 . S
C136 C137 1.375 . S
C136 C140 1.532 . S
C137 H127 0.930 . S
C137 C136 1.375 . S
C137 C138 1.416 . S
C138 C137 1.416 . S
C138 C139 1.371 . S
C139 H128 0.930 . S
C139 C135 1.389 . S
C139 C138 1.371 . S
C140 H129 0.970 . S
C140 H130 0.970 . S
C140 C136 1.532 . S
C140 C141 1.499 . S
C141 C140 1.499 . S
C141 C142 1.370 . S
C141 C146 1.415 . S
C142 H131 0.930 . S
C142 C141 1.370 . S
C142 C143 1.407 . S
C143 C142 1.407 . S
C143 C144 1.365 . S
C144 H132 0.930 . S
C144 C143 1.365 . S
C144 C145 1.393 . S
C145 C144 1.393 . S
C145 C146 1.387 . S
C146 H133 0.930 . S
C146 C141 1.415 . S
C146 C145 1.387 . S
H147 C155 0.930 . S
H148 C158 0.930 . S
H149 C160 0.930 . S
H150 C161 0.970 . S
H151 C161 0.970 . S
H152 C163 0.930 . S
H153 C165 0.930 . S
H154 C167 0.930 . S
C155 H147 0.930 . S
C155 C156 1.382 . S
C155 C157 1.426 . S
C156 C155 1.382 . S
C156 C160 1.389 . S
C157 C155 1.426 . S
C157 C158 1.375 . S
C157 C161 1.532 . S
C158 H148 0.930 . S
C158 C157 1.375 . S
C158 C159 1.416 . S
C159 C158 1.416 . S
C159 C160 1.371 . S
C160 H149 0.930 . S
C160 C156 1.389 . S
C160 C159 1.371 . S
C161 H150 0.970 . S
C161 H151 0.970 . S
C161 C157 1.532 . S
C161 C162 1.499 . S
C162 C161 1.499 . S
C162 C163 1.370 . S
C162 C167 1.415 . S
C163 H152 0.930 . S
C163 C162 1.370 . S
C163 C164 1.407 . S
C164 C163 1.407 . S
C164 C165 1.365 . S
C165 H153 0.930 . S
C165 C164 1.365 . S
C165 C166 1.393 . S
C166 C165 1.393 . S
C166 C167 1.387 . S
C167 H154 0.930 . S
C167 C162 1.415 . S
C167 C166 1.387 . S
C168 C169 1.443 . S
C168 N172 1.376 . S
C168 C206 1.389 . S
C169 C168 1.443 . S
C169 C170 1.340 . S
C169 H209 0.951 . S
C170 C169 1.340 . S
C170 C171 1.439 . S
C170 H210 0.950 . S
C171 C170 1.439 . S
C171 N172 1.374 . S
C171 C205 1.395 . S
N172 C168 1.376 . S
N172 C171 1.374 . S
N172 Co173 2.008 . S
Co173 N172 2.008 . S
Co173 N174 1.995 1_455 S
Co173 N179 2.008 1_455 S
Co173 N184 1.995 . S
Co173 N189 2.282 1_455 S
Co173 N195 2.282 . S
N174 Co173 1.995 1_655 S
N174 C175 1.376 . S
N174 C178 1.383 . S
C175 N174 1.376 . S
C175 C176 1.446 . S
C175 C205 1.391 1_655 S
C176 C175 1.446 . S
C176 C177 1.339 . S
C176 H211 0.949 . S
C177 C176 1.339 . S
C177 C178 1.439 . S
C177 H212 0.950 . S
C178 N174 1.383 . S
C178 C177 1.439 . S
C178 C207 1.392 . S
N179 Co173 2.008 1_655 S
N179 C180 1.376 . S
N179 C183 1.374 . S
C180 N179 1.376 . S
C180 C181 1.443 . S
C180 C207 1.389 . S
C181 C180 1.443 . S
C181 C182 1.340 . S
C181 H213 0.951 . S
C182 C181 1.340 . S
C182 C183 1.439 . S
C182 H214 0.950 . S
C183 N179 1.374 . S
C183 C182 1.439 . S
C183 C208 1.401 . S
N184 Co173 1.995 . S
N184 C185 1.376 . S
N184 C188 1.383 . S
C185 N184 1.376 . S
C185 C186 1.446 . S
C185 C208 1.385 1_455 S
C186 C185 1.446 . S
C186 C187 1.339 . S
C186 H215 0.949 . S
C187 C186 1.339 . S
C187 C188 1.439 . S
C187 H216 0.950 . S
C188 N184 1.383 . S
C188 C187 1.439 . S
C188 C206 1.392 . S
N189 Co173 2.282 1_655 S
N189 C192 1.332 . S
N189 C194 1.332 . S
C190 C191 1.386 . S
C190 C193 1.388 . S
C191 C190 1.386 . S
C191 C192 1.382 . S
C191 H217 0.950 . S
C192 N189 1.332 . S
C192 C191 1.382 . S
C192 H203 0.952 . S
C193 C190 1.388 . S
C193 C194 1.382 . S
C193 H218 0.950 . S
C194 N189 1.332 . S
C194 C193 1.382 . S
C194 H204 0.948 . S
N195 Co173 2.282 . S
N195 C199 1.332 . S
N195 C200 1.332 . S
C196 C197 1.388 . S
C196 C200 1.382 . S
C196 H219 0.950 . S
C197 C196 1.388 . S
C197 C198 1.386 . S
C198 C197 1.386 . S
C198 C199 1.382 . S
C198 H220 0.950 . S
C199 N195 1.332 . S
C199 C198 1.382 . S
C199 H201 0.952 . S
C200 N195 1.332 . S
C200 C196 1.382 . S
C200 H202 0.948 . S
H201 C199 0.952 . S
H202 C200 0.948 . S
H203 C192 0.952 . S
H204 C194 0.948 . S
C205 C171 1.395 . S
C205 C175 1.391 1_455 S
C206 C168 1.389 . S
C206 C188 1.392 . S
C207 C178 1.392 . S
C207 C180 1.389 . S
C208 C183 1.401 . S
C208 C185 1.385 1_655 S
H209 C169 0.951 . S
H210 C170 0.950 . S
H211 C176 0.949 . S
H212 C177 0.950 . S
H213 C181 0.951 . S
H214 C182 0.950 . S
H215 C186 0.949 . S
H216 C187 0.950 . S
H217 C191 0.950 . S
H218 C193 0.950 . S
H219 C196 0.950 . S
H220 C198 0.950 . S
C221 C222 1.443 . S
C221 N225 1.376 . S
C221 C259 1.389 . S
C222 C221 1.443 . S
C222 C223 1.340 . S
C222 H262 0.951 . S
C223 C222 1.340 . S
C223 C224 1.439 . S
C223 H263 0.950 . S
C224 C223 1.439 . S
C224 N225 1.374 . S
C224 C258 1.395 . S
N225 C221 1.376 . S
N225 C224 1.374 . S
N225 Co226 2.008 . S
Co226 N225 2.008 . S
Co226 N227 1.995 1_545 S
Co226 N232 2.008 1_545 S
Co226 N237 1.995 . S
Co226 N242 2.282 1_545 S
Co226 N248 2.282 . S
N227 Co226 1.995 1_565 S
N227 C228 1.376 . S
N227 C231 1.383 . S
C228 N227 1.376 . S
C228 C229 1.446 . S
C228 C258 1.391 1_565 S
C229 C228 1.446 . S
C229 C230 1.339 . S
C229 H264 0.949 . S
C230 C229 1.339 . S
C230 C231 1.439 . S
C230 H265 0.950 . S
C231 N227 1.383 . S
C231 C230 1.439 . S
C231 C260 1.392 . S
N232 Co226 2.008 1_565 S
N232 C233 1.376 . S
N232 C236 1.374 . S
C233 N232 1.376 . S
C233 C234 1.443 . S
C233 C260 1.389 . S
C234 C233 1.443 . S
C234 C235 1.340 . S
C234 H266 0.951 . S
C235 C234 1.340 . S
C235 C236 1.439 . S
C235 H267 0.950 . S
C236 N232 1.374 . S
C236 C235 1.439 . S
C236 C261 1.357 1_565 S
N237 Co226 1.995 . S
N237 C238 1.376 . S
N237 C241 1.383 . S
C238 N237 1.376 . S
C238 C239 1.446 . S
C238 C261 1.433 . S
C239 C238 1.446 . S
C239 C240 1.339 . S
C239 H268 0.949 . S
C240 C239 1.339 . S
C240 C241 1.439 . S
C240 H269 0.950 . S
C241 N237 1.383 . S
C241 C240 1.439 . S
C241 C259 1.392 . S
N242 Co226 2.282 1_565 S
N242 C245 1.332 . S
N242 C247 1.332 . S
C243 C244 1.386 . S
C243 C246 1.388 . S
C244 C243 1.386 . S
C244 C245 1.382 . S
C244 H270 0.950 . S
C245 N242 1.332 . S
C245 C244 1.382 . S
C245 H256 0.952 . S
C246 C243 1.388 . S
C246 C247 1.382 . S
C246 H271 0.950 . S
C247 N242 1.332 . S
C247 C246 1.382 . S
C247 H257 0.948 . S
N248 Co226 2.282 . S
N248 C252 1.332 . S
N248 C253 1.332 . S
C249 C250 1.388 . S
C249 C253 1.382 . S
C249 H272 0.950 . S
C250 C249 1.388 . S
C250 C251 1.386 . S
C251 C250 1.386 . S
C251 C252 1.382 . S
C251 H273 0.950 . S
C252 N248 1.332 . S
C252 C251 1.382 . S
C252 H254 0.952 . S
C253 N248 1.332 . S
C253 C249 1.382 . S
C253 H255 0.948 . S
H254 C252 0.952 . S
H255 C253 0.948 . S
H256 C245 0.952 . S
H257 C247 0.948 . S
C258 C224 1.395 . S
C258 C228 1.391 1_545 S
C259 C221 1.389 . S
C259 C241 1.392 . S
C260 C231 1.392 . S
C260 C233 1.389 . S
C261 C236 1.357 1_545 S
C261 C238 1.433 . S
H262 C222 0.951 . S
H263 C223 0.950 . S
H264 C229 0.949 . S
H265 C230 0.950 . S
H266 C234 0.951 . S
H267 C235 0.950 . S
H268 C239 0.949 . S
H269 C240 0.950 . S
H270 C244 0.950 . S
H271 C246 0.950 . S
H272 C249 0.950 . S
H273 C251 0.950 . S
C274 C275 1.443 . S
C274 N278 1.376 . S
C274 C312 1.389 . S
C275 C274 1.443 . S
C275 C276 1.340 . S
C275 H315 0.951 . S
C276 C275 1.340 . S
C276 C277 1.439 . S
C276 H316 0.950 . S
C277 C276 1.439 . S
C277 N278 1.374 . S
C277 C311 1.395 . S
N278 C274 1.376 . S
N278 C277 1.374 . S
N278 Co279 2.034 . S
Co279 N278 2.034 . S
Co279 N280 1.972 1_455 S
Co279 N285 1.983 1_455 S
Co279 N290 2.018 . S
Co279 N295 2.249 1_455 S
Co279 N301 2.316 . S
N280 Co279 1.972 1_655 S
N280 C281 1.376 . S
N280 C284 1.383 . S
C281 N280 1.376 . S
C281 C282 1.446 . S
C281 C311 1.391 1_655 S
C282 C281 1.446 . S
C282 C283 1.339 . S
C282 H317 0.949 . S
C283 C282 1.339 . S
C283 C284 1.439 . S
C283 H318 0.950 . S
C284 N280 1.383 . S
C284 C283 1.439 . S
C284 C313 1.392 . S
N285 Co279 1.983 1_655 S
N285 C286 1.376 . S
N285 C289 1.374 . S
C286 N285 1.376 . S
C286 C287 1.443 . S
C286 C313 1.389 . S
C287 C286 1.443 . S
C287 C288 1.340 . S
C287 H319 0.951 . S
C288 C287 1.340 . S
C288 C289 1.439 . S
C288 H320 0.950 . S
C289 N285 1.374 . S
C289 C288 1.439 . S
C289 C314 1.395 . S
N290 Co279 2.018 . S
N290 C291 1.376 . S
N290 C294 1.383 . S
C291 N290 1.376 . S
C291 C292 1.446 . S
C291 C314 1.391 1_455 S
C292 C291 1.446 . S
C292 C293 1.339 . S
C292 H321 0.949 . S
C293 C292 1.339 . S
C293 C294 1.439 . S
C293 H322 0.950 . S
C294 N290 1.383 . S
C294 C293 1.439 . S
C294 C312 1.392 . S
N295 Co279 2.249 1_655 S
N295 C298 1.332 . S
N295 C300 1.332 . S
C296 C297 1.386 . S
C296 C299 1.388 . S
C297 C296 1.386 . S
C297 C298 1.382 . S
C297 H323 0.950 . S
C298 N295 1.332 . S
C298 C297 1.382 . S
C298 H309 0.952 . S
C299 C296 1.388 . S
C299 C300 1.382 . S
C299 H324 0.950 . S
C300 N295 1.332 . S
C300 C299 1.382 . S
C300 H310 0.948 . S
N301 Co279 2.316 . S
N301 C305 1.332 . S
N301 C306 1.332 . S
C302 C303 1.388 . S
C302 C306 1.382 . S
C302 H325 0.950 . S
C303 C302 1.388 . S
C303 C304 1.386 . S
C304 C303 1.386 . S
C304 C305 1.382 . S
C304 H326 0.950 . S
C305 N301 1.332 . S
C305 C304 1.382 . S
C305 H307 0.952 . S
C306 N301 1.332 . S
C306 C302 1.382 . S
C306 H308 0.948 . S
H307 C305 0.952 . S
H308 C306 0.948 . S
H309 C298 0.952 . S
H310 C300 0.948 . S
C311 C277 1.395 . S
C311 C281 1.391 1_455 S
C312 C274 1.389 . S
C312 C294 1.392 . S
C313 C284 1.392 . S
C313 C286 1.389 . S
C314 C289 1.395 . S
C314 C291 1.391 1_655 S
H315 C275 0.951 . S
H316 C276 0.950 . S
H317 C282 0.949 . S
H318 C283 0.950 . S
H319 C287 0.951 . S
H320 C288 0.950 . S
H321 C292 0.949 . S
H322 C293 0.950 . S
H323 C297 0.950 . S
H324 C299 0.950 . S
H325 C302 0.950 . S
H326 C304 0.950 . S
C327 C328 1.443 . S
C327 N331 1.376 . S
C327 C365 1.389 . S
C328 C327 1.443 . S
C328 C329 1.340 . S
C328 H368 0.951 . S
C329 C328 1.340 . S
C329 C330 1.439 . S
C329 H369 0.950 . S
C330 C329 1.439 . S
C330 N331 1.374 . S
C330 C364 1.417 . S
N331 C327 1.376 . S
N331 C330 1.374 . S
N331 Co332 2.008 1_565 S
Co332 N331 2.008 1_545 S
Co332 N333 1.995 . S
Co332 N338 2.008 . S
Co332 N343 1.995 1_545 S
Co332 N348 2.282 . S
Co332 N354 2.282 1_545 S
N333 Co332 1.995 . S
N333 C334 1.376 . S
N333 C337 1.383 . S
C334 N333 1.376 . S
C334 C335 1.446 . S
C334 C364 1.368 1_545 S
C335 C334 1.446 . S
C335 C336 1.339 . S
C335 H370 0.949 . S
C336 C335 1.339 . S
C336 C337 1.439 . S
C336 H371 0.950 . S
C337 N333 1.383 . S
C337 C336 1.439 . S
C337 C366 1.392 . S
N338 Co332 2.008 . S
N338 C339 1.376 . S
N338 C342 1.374 . S
C339 N338 1.376 . S
C339 C340 1.443 . S
C339 C366 1.389 . S
C340 C339 1.443 . S
C340 C341 1.340 . S
C340 H372 0.951 . S
C341 C340 1.340 . S
C341 C342 1.439 . S
C341 H373 0.950 . S
C342 N338 1.374 . S
C342 C341 1.439 . S
C342 C367 1.395 . S
N343 Co332 1.995 1_565 S
N343 C344 1.376 . S
N343 C347 1.383 . S
C344 N343 1.376 . S
C344 C345 1.446 . S
C344 C367 1.391 1_565 S
C345 C344 1.446 . S
C345 C346 1.339 . S
C345 H374 0.949 . S
C346 C345 1.339 . S
C346 C347 1.439 . S
C346 H375 0.950 . S
C347 N343 1.383 . S
C347 C346 1.439 . S
C347 C365 1.392 . S
N348 Co332 2.282 . S
N348 C351 1.332 . S
N348 C353 1.332 . S
C349 C350 1.386 . S
C349 C352 1.388 . S
C350 C349 1.386 . S
C350 C351 1.382 . S
C350 H376 0.950 . S
C351 N348 1.332 . S
C351 C350 1.382 . S
C351 H362 0.952 . S
C352 C349 1.388 . S
C352 C353 1.382 . S
C352 H377 0.950 . S
C353 N348 1.332 . S
C353 C352 1.382 . S
C353 H363 0.948 . S
N354 Co332 2.282 1_565 S
N354 C358 1.332 . S
N354 C359 1.332 . S
C355 C356 1.388 . S
C355 C359 1.382 . S
C355 H378 0.950 . S
C356 C355 1.388 . S
C356 C357 1.386 . S
C357 C356 1.386 . S
C357 C358 1.382 . S
C357 H379 0.950 . S
C358 N354 1.332 . S
C358 C357 1.382 . S
C358 H360 0.952 . S
C359 N354 1.332 . S
C359 C355 1.382 . S
C359 H361 0.948 . S
H360 C358 0.952 . S
H361 C359 0.948 . S
H362 C351 0.952 . S
H363 C353 0.948 . S
C364 C330 1.417 . S
C364 C334 1.368 1_565 S
C365 C327 1.389 . S
C365 C347 1.392 . S
C366 C337 1.392 . S
C366 C339 1.389 . S
C367 C342 1.395 . S
C367 C344 1.391 1_545 S
H368 C328 0.951 . S
H369 C329 0.950 . S
H370 C335 0.949 . S
H371 C336 0.950 . S
H372 C340 0.951 . S
H373 C341 0.950 . S
H374 C345 0.949 . S
H375 C346 0.950 . S
H376 C350 0.950 . S
H377 C352 0.950 . S
H378 C355 0.950 . S
H379 C357 0.950 . S
C380 C381 1.443 . S
C380 N384 1.376 . S
C380 C418 1.389 . S
C381 C380 1.443 . S
C381 C382 1.340 . S
C381 H421 0.951 . S
C382 C381 1.340 . S
C382 C383 1.439 . S
C382 H422 0.950 . S
C383 C382 1.439 . S
C383 N384 1.374 . S
C383 C417 1.403 . S
N384 C380 1.376 . S
N384 C383 1.374 . S
N384 Co385 2.008 . S
Co385 N384 2.008 . S
Co385 N386 1.995 1_554 S
Co385 N391 2.008 1_554 S
Co385 N396 1.995 . S
Co385 N401 2.282 . S
Co385 N407 2.282 1_554 S
N386 Co385 1.995 1_556 S
N386 C387 1.376 . S
N386 C390 1.383 . S
C387 N386 1.376 . S
C387 C388 1.446 . S
C387 C417 1.384 1_556 S
C388 C387 1.446 . S
C388 C389 1.339 . S
C388 H423 0.949 . S
C389 C388 1.339 . S
C389 C390 1.439 . S
C389 H424 0.950 . S
C390 N386 1.383 . S
C390 C389 1.439 . S
C390 C419 1.392 . S
N391 Co385 2.008 1_556 S
N391 C392 1.376 . S
N391 C395 1.374 . S
C392 N391 1.376 . S
C392 C393 1.443 . S
C392 C419 1.389 . S
C393 C392 1.443 . S
C393 C394 1.340 . S
C393 H425 0.951 . S
C394 C393 1.340 . S
C394 C395 1.439 . S
C394 H426 0.950 . S
C395 N391 1.374 . S
C395 C394 1.439 . S
C395 C420 1.395 1_556 S
N396 Co385 1.995 . S
N396 C397 1.376 . S
N396 C400 1.383 . S
C397 N396 1.376 . S
C397 C398 1.446 . S
C397 C420 1.391 . S
C398 C397 1.446 . S
C398 C399 1.339 . S
C398 H427 0.949 . S
C399 C398 1.339 . S
C399 C400 1.439 . S
C399 H428 0.950 . S
C400 N396 1.383 . S
C400 C399 1.439 . S
C400 C418 1.392 . S
N401 Co385 2.282 . S
N401 C404 1.332 . S
N401 C406 1.332 . S
C402 C403 1.386 . S
C402 C405 1.388 . S
C403 C402 1.386 . S
C403 C404 1.382 . S
C403 H429 0.950 . S
C404 N401 1.332 . S
C404 C403 1.382 . S
C404 H415 0.952 . S
C405 C402 1.388 . S
C405 C406 1.382 . S
C405 H430 0.950 . S
C406 N401 1.332 . S
C406 C405 1.382 . S
C406 H416 0.948 . S
N407 Co385 2.282 1_556 S
N407 C411 1.332 . S
N407 C412 1.332 . S
C408 C409 1.388 . S
C408 C412 1.382 . S
C408 H431 0.950 . S
C409 C408 1.388 . S
C409 C410 1.386 . S
C410 C409 1.386 . S
C410 C411 1.382 . S
C410 H432 0.950 . S
C411 N407 1.332 . S
C411 C410 1.382 . S
C411 H413 0.952 . S
C412 N407 1.332 . S
C412 C408 1.382 . S
C412 H414 0.948 . S
H413 C411 0.952 . S
H414 C412 0.948 . S
H415 C404 0.952 . S
H416 C406 0.948 . S
C417 C383 1.403 . S
C417 C387 1.384 1_554 S
C418 C380 1.389 . S
C418 C400 1.392 . S
C419 C390 1.392 . S
C419 C392 1.389 . S
C420 C395 1.395 1_554 S
C420 C397 1.391 . S
H421 C381 0.951 . S
H422 C382 0.950 . S
H423 C388 0.949 . S
H424 C389 0.950 . S
H425 C393 0.951 . S
H426 C394 0.950 . S
H427 C398 0.949 . S
H428 C399 0.950 . S
H429 C403 0.950 . S
H430 C405 0.950 . S
H431 C408 0.950 . S
H432 C410 0.950 . S
C433 C434 1.443 . S
C433 N437 1.376 . S
C433 C471 1.389 . S
C434 C433 1.443 . S
C434 C435 1.340 . S
C434 H474 0.951 . S
C435 C434 1.340 . S
C435 C436 1.439 . S
C435 H475 0.950 . S
C436 C435 1.439 . S
C436 N437 1.374 . S
C436 C470 1.395 . S
N437 C433 1.376 . S
N437 C436 1.374 . S
N437 Co438 2.008 . S
Co438 N437 2.008 . S
Co438 N439 1.995 1_554 S
Co438 N444 2.008 . S
Co438 N449 1.995 . S
Co438 N454 2.282 . S
Co438 N460 2.282 1_554 S
N439 Co438 1.995 1_556 S
N439 C440 1.376 . S
N439 C443 1.383 . S
C440 N439 1.376 . S
C440 C441 1.446 . S
C440 C470 1.391 1_556 S
C441 C440 1.446 . S
C441 C442 1.339 . S
C441 H476 0.949 . S
C442 C441 1.339 . S
C442 C443 1.439 . S
C442 H477 0.950 . S
C443 N439 1.383 . S
C443 C442 1.439 . S
C443 C472 1.392 . S
N444 Co438 2.008 . S
N444 C445 1.376 1_554 S
N444 C448 1.374 . S
C445 N444 1.376 1_556 S
C445 C446 1.443 . S
C445 C472 1.389 . S
C446 C445 1.443 . S
C446 C447 1.340 1_556 S
C446 H478 0.951 . S
C447 C446 1.340 1_554 S
C447 C448 1.439 . S
C447 H479 0.950 . S
C448 N444 1.374 . S
C448 C447 1.439 . S
C448 C473 1.395 . S
N449 Co438 1.995 . S
N449 C450 1.376 . S
N449 C453 1.383 . S
C450 N449 1.376 . S
C450 C451 1.446 . S
C450 C473 1.391 . S
C451 C450 1.446 . S
C451 C452 1.339 . S
C451 H480 0.949 . S
C452 C451 1.339 . S
C452 C453 1.439 . S
C452 H481 0.950 . S
C453 N449 1.383 . S
C453 C452 1.439 . S
C453 C471 1.392 . S
N454 Co438 2.282 . S
N454 C457 1.332 . S
N454 C459 1.332 . S
C455 C456 1.386 . S
C455 C458 1.388 . S
C456 C455 1.386 . S
C456 C457 1.382 . S
C456 H482 0.950 . S
C457 N454 1.332 . S
C457 C456 1.382 . S
C457 H468 0.952 . S
C458 C455 1.388 . S
C458 C459 1.382 . S
C458 H483 0.950 . S
C459 N454 1.332 . S
C459 C458 1.382 . S
C459 H469 0.948 . S
N460 Co438 2.282 1_556 S
N460 C464 1.332 . S
N460 C465 1.332 . S
C461 C462 1.388 . S
C461 C465 1.382 . S
C461 H484 0.950 . S
C462 C461 1.388 . S
C462 C463 1.386 . S
C463 C462 1.386 . S
C463 C464 1.382 . S
C463 H485 0.950 . S
C464 N460 1.332 . S
C464 C463 1.382 . S
C464 H466 0.952 . S
C465 N460 1.332 . S
C465 C461 1.382 . S
C465 H467 0.948 . S
H466 C464 0.952 . S
H467 C465 0.948 . S
H468 C457 0.952 . S
H469 C459 0.948 . S
C470 C436 1.395 . S
C470 C440 1.391 1_554 S
C471 C433 1.389 . S
C471 C453 1.392 . S
C472 C443 1.392 . S
C472 C445 1.389 . S
C473 C448 1.395 . S
C473 C450 1.391 . S
H474 C434 0.951 . S
H475 C435 0.950 . S
H476 C441 0.949 . S
H477 C442 0.950 . S
H478 C446 0.951 . S
H479 C447 0.950 . S
H480 C451 0.949 . S
H481 C452 0.950 . S
H482 C456 0.950 . S
H483 C458 0.950 . S
H484 C461 0.950 . S
H485 C463 0.950 . S
C486 C487 1.443 1_554 S
C486 N490 1.379 . S
C486 C524 1.387 1_554 S
C487 C486 1.443 1_556 S
C487 C488 1.340 1_556 S
C487 H527 0.951 . S
C488 C487 1.340 1_554 S
C488 C489 1.439 . S
C488 H528 0.950 . S
C489 C488 1.439 . S
C489 N490 1.374 . S
C489 C523 1.395 . S
N490 C486 1.379 . S
N490 C489 1.374 . S
N490 Co491 2.008 . S
Co491 N490 2.008 . S
Co491 N492 1.995 . S
Co491 N497 2.008 . S
Co491 N502 1.995 . S
Co491 N507 2.285 1_554 S
Co491 N513 2.282 . S
N492 Co491 1.995 . S
N492 C493 1.376 . S
N492 C496 1.383 . S
C493 N492 1.376 . S
C493 C494 1.446 . S
C493 C523 1.391 . S
C494 C493 1.446 . S
C494 C495 1.339 . S
C494 H529 0.949 . S
C495 C494 1.339 . S
C495 C496 1.439 . S
C495 H530 0.950 . S
C496 N492 1.383 . S
C496 C495 1.439 . S
C496 C525 1.392 . S
N497 Co491 2.008 . S
N497 C498 1.376 . S
N497 C501 1.374 . S
C498 N497 1.376 . S
C498 C499 1.443 . S
C498 C525 1.389 . S
C499 C498 1.443 . S
C499 C500 1.340 . S
C499 H531 0.951 . S
C500 C499 1.340 . S
C500 C501 1.439 . S
C500 H532 0.950 . S
C501 N497 1.374 . S
C501 C500 1.439 . S
C501 C526 1.395 . S
N502 Co491 1.995 . S
N502 C503 1.376 . S
N502 C506 1.383 1_554 S
C503 N502 1.376 . S
C503 C504 1.446 1_554 S
C503 C526 1.391 . S
C504 C503 1.446 1_556 S
C504 C505 1.339 . S
C504 H533 0.949 . S
C505 C504 1.339 . S
C505 C506 1.439 . S
C505 H534 0.950 . S
C506 N502 1.383 1_556 S
C506 C505 1.439 . S
C506 C524 1.392 . S
N507 Co491 2.285 1_556 S
N507 C510 1.330 . S
N507 C512 1.332 . S
C508 C509 1.386 . S
C508 C511 1.388 . S
C509 C508 1.386 . S
C509 C510 1.382 . S
C509 H535 0.950 . S
C510 N507 1.330 . S
C510 C509 1.382 . S
C510 H521 0.952 . S
C511 C508 1.388 . S
C511 C512 1.382 . S
C511 H536 0.950 . S
C512 N507 1.332 . S
C512 C511 1.382 . S
C512 H522 0.948 1_556 S
N513 Co491 2.282 . S
N513 C517 1.332 . S
N513 C518 1.332 . S
C514 C515 1.388 . S
C514 C518 1.382 . S
C514 H537 0.950 . S
C515 C514 1.388 . S
C515 C516 1.386 . S
C516 C515 1.386 . S
C516 C517 1.382 . S
C516 H538 0.950 . S
C517 N513 1.332 . S
C517 C516 1.382 . S
C517 H519 0.952 . S
C518 N513 1.332 . S
C518 C514 1.382 . S
C518 H520 0.948 . S
H519 C517 0.952 . S
H520 C518 0.948 . S
H521 C510 0.952 . S
H522 C512 0.948 1_554 S
C523 C489 1.395 . S
C523 C493 1.391 . S
C524 C486 1.387 1_556 S
C524 C506 1.392 . S
C525 C496 1.392 . S
C525 C498 1.389 . S
C526 C501 1.395 . S
C526 C503 1.391 . S
H527 C487 0.951 . S
H528 C488 0.950 . S
H529 C494 0.949 . S
H530 C495 0.950 . S
H531 C499 0.951 . S
H532 C500 0.950 . S
H533 C504 0.949 . S
H534 C505 0.950 . S
H535 C509 0.950 . S
H536 C511 0.950 . S
H537 C514 0.950 . S
H538 C516 0.950 . S
C539 C540 1.443 . S
C539 N543 1.376 . S
C539 C577 1.389 . S
C540 C539 1.443 . S
C540 C541 1.340 . S
C540 H580 0.951 . S
C541 C540 1.340 . S
C541 C542 1.439 . S
C541 H581 0.950 . S
C542 C541 1.439 . S
C542 N543 1.374 . S
C542 C576 1.395 . S
N543 C539 1.376 . S
N543 C542 1.374 . S
N543 Co544 2.008 . S
Co544 N543 2.008 . S
Co544 N545 1.995 1_554 S
Co544 N550 2.008 1_554 S
Co544 N555 1.995 . S
Co544 N560 2.282 . S
Co544 N566 2.282 1_554 S
N545 Co544 1.995 1_556 S
N545 C546 1.376 . S
N545 C549 1.383 . S
C546 N545 1.376 . S
C546 C547 1.446 . S
C546 C576 1.391 1_556 S
C547 C546 1.446 . S
C547 C548 1.339 . S
C547 H582 0.949 . S
C548 C547 1.339 . S
C548 C549 1.439 . S
C548 H583 0.950 . S
C549 N545 1.383 . S
C549 C548 1.439 . S
C549 C578 1.392 . S
N550 Co544 2.008 1_556 S
N550 C551 1.376 . S
N550 C554 1.374 1_556 S
C551 N550 1.376 . S
C551 C552 1.443 . S
C551 C578 1.389 . S
C552 C551 1.443 . S
C552 C553 1.340 . S
C552 H584 0.951 . S
C553 C552 1.340 . S
C553 C554 1.439 1_556 S
C553 H585 0.950 . S
C554 N550 1.374 1_554 S
C554 C553 1.439 1_554 S
C554 C579 1.395 . S
N555 Co544 1.995 . S
N555 C556 1.376 . S
N555 C559 1.383 . S
C556 N555 1.376 . S
C556 C557 1.446 . S
C556 C579 1.391 . S
C557 C556 1.446 . S
C557 C558 1.339 . S
C557 H586 0.949 . S
C558 C557 1.339 . S
C558 C559 1.439 . S
C558 H587 0.950 . S
C559 N555 1.383 . S
C559 C558 1.439 . S
C559 C577 1.392 . S
N560 Co544 2.282 . S
N560 C563 1.332 . S
N560 C565 1.332 . S
C561 C562 1.386 . S
C561 C564 1.388 . S
C562 C561 1.386 . S
C562 C563 1.382 . S
C562 H588 0.950 . S
C563 N560 1.332 . S
C563 C562 1.382 . S
C563 H574 0.952 . S
C564 C561 1.388 . S
C564 C565 1.382 . S
C564 H589 0.950 . S
C565 N560 1.332 . S
C565 C564 1.382 . S
C565 H575 0.948 . S
N566 Co544 2.282 1_556 S
N566 C570 1.332 . S
N566 C571 1.332 . S
C567 C568 1.388 . S
C567 C571 1.382 . S
C567 H590 0.950 . S
C568 C567 1.388 . S
C568 C569 1.386 . S
C569 C568 1.386 . S
C569 C570 1.382 . S
C569 H591 0.950 . S
C570 N566 1.332 . S
C570 C569 1.382 . S
C570 H572 0.952 . S
C571 N566 1.332 . S
C571 C567 1.382 . S
C571 H573 0.948 . S
H572 C570 0.952 . S
H573 C571 0.948 . S
H574 C563 0.952 . S
H575 C565 0.948 . S
C576 C542 1.395 . S
C576 C546 1.391 1_554 S
C577 C539 1.389 . S
C577 C559 1.392 . S
C578 C549 1.392 . S
C578 C551 1.389 . S
C579 C554 1.395 . S
C579 C556 1.391 . S
H580 C540 0.951 . S
H581 C541 0.950 . S
H582 C547 0.949 . S
H583 C548 0.950 . S
H584 C552 0.951 . S
H585 C553 0.950 . S
H586 C557 0.949 . S
H587 C558 0.950 . S
H588 C562 0.950 . S
H589 C564 0.950 . S
H590 C567 0.950 . S
H591 C569 0.950 . S
C592 C593 1.349 . S
C592 C594 1.327 . S
C592 H617 0.950 . S
C593 C592 1.349 . S
C593 C609 1.349 . S
C594 C592 1.327 . S
C594 C613 1.429 . S
C594 H618 0.950 . S
C595 C612 1.574 . S
C595 C614 1.368 . S
C595 H619 0.949 . S
H596 C600 0.949 . S
C597 C598 1.349 . S
C597 C599 1.327 . S
C597 H620 0.950 . S
C598 C597 1.349 . S
C598 C610 1.349 . S
C599 C597 1.327 . S
C599 C615 1.429 . S
C599 H621 0.950 . S
C600 H596 0.949 . S
C600 C608 1.574 . S
C600 C616 1.368 . S
H601 C609 0.950 . S
H602 C607 0.950 . S
H603 C608 0.949 . S
H604 C610 0.950 . S
H605 C611 0.950 . S
H606 C612 0.949 . S
C607 H602 0.950 . S
C607 C609 1.327 . S
C607 C613 1.429 . S
C608 C600 1.574 . S
C608 H603 0.949 . S
C608 C614 1.368 . S
C609 C593 1.349 . S
C609 H601 0.950 . S
C609 C607 1.327 . S
C610 C598 1.349 . S
C610 H604 0.950 . S
C610 C611 1.327 . S
C611 H605 0.950 . S
C611 C610 1.327 . S
C611 C615 1.429 . S
C612 C595 1.574 . S
C612 H606 0.949 . S
C612 C616 1.368 . S
C613 C594 1.429 . S
C613 C607 1.429 . S
C613 C614 1.523 . S
C614 C595 1.368 . S
C614 C608 1.368 . S
C614 C613 1.523 . S
C615 C599 1.429 . S
C615 C611 1.429 . S
C615 C616 1.523 . S
C616 C600 1.368 . S
C616 C612 1.368 . S
C616 C615 1.523 . S
H617 C592 0.950 . S
H618 C594 0.950 . S
H619 C595 0.949 . S
H620 C597 0.950 . S
H621 C599 0.950 . S
C622 C623 1.349 . S
C622 C624 1.327 . S
C622 H647 0.950 . S
C623 C622 1.349 . S
C623 C639 1.349 . S
C624 C622 1.327 . S
C624 C643 1.429 . S
C624 H648 0.950 . S
C625 C642 1.574 . S
C625 C644 1.368 . S
C625 H649 0.949 . S
H626 C630 0.949 . S
C627 C628 1.349 . S
C627 C629 1.327 . S
C627 H650 0.950 . S
C628 C627 1.349 . S
C628 C640 1.349 . S
C629 C627 1.327 . S
C629 C645 1.429 . S
C629 H651 0.950 . S
C630 H626 0.949 . S
C630 C638 1.574 . S
C630 C646 1.368 . S
H631 C639 0.950 . S
H632 C637 0.950 . S
H633 C638 0.949 . S
H634 C640 0.950 . S
H635 C641 0.950 . S
H636 C642 0.949 . S
C637 H632 0.950 . S
C637 C639 1.327 . S
C637 C643 1.429 . S
C638 C630 1.574 . S
C638 H633 0.949 . S
C638 C644 1.368 . S
C639 C623 1.349 . S
C639 H631 0.950 . S
C639 C637 1.327 . S
C640 C628 1.349 . S
C640 H634 0.950 . S
C640 C641 1.327 . S
C641 H635 0.950 . S
C641 C640 1.327 . S
C641 C645 1.429 . S
C642 C625 1.574 . S
C642 H636 0.949 . S
C642 C646 1.368 . S
C643 C624 1.429 . S
C643 C637 1.429 . S
C643 C644 1.523 . S
C644 C625 1.368 . S
C644 C638 1.368 . S
C644 C643 1.523 . S
C645 C629 1.429 . S
C645 C641 1.429 . S
C645 C646 1.523 . S
C646 C630 1.368 . S
C646 C642 1.368 . S
C646 C645 1.523 . S
H647 C622 0.950 . S
H648 C624 0.950 . S
H649 C625 0.949 . S
H650 C627 0.950 . S
H651 C629 0.950 . S
C652 C653 1.349 . S
C652 C654 1.327 . S
C652 H677 0.950 . S
C653 C652 1.349 . S
C653 C669 1.349 . S
C654 C652 1.327 . S
C654 C673 1.429 . S
C654 H678 0.950 . S
C655 C672 1.574 . S
C655 C674 1.368 . S
C655 H679 0.949 . S
H656 C660 0.949 . S
C657 C658 1.349 . S
C657 C659 1.327 . S
C657 H680 0.950 . S
C658 C657 1.349 . S
C658 C670 1.349 . S
C659 C657 1.327 . S
C659 C675 1.429 . S
C659 H681 0.950 . S
C660 H656 0.949 . S
C660 C668 1.574 . S
C660 C676 1.368 . S
H661 C669 0.950 . S
H662 C667 0.950 . S
H663 C668 0.949 . S
H664 C670 0.950 . S
H665 C671 0.950 . S
H666 C672 0.949 . S
C667 H662 0.950 . S
C667 C669 1.327 . S
C667 C673 1.429 . S
C668 C660 1.574 . S
C668 H663 0.949 . S
C668 C674 1.368 . S
C669 C653 1.349 . S
C669 H661 0.950 . S
C669 C667 1.327 . S
C670 C658 1.349 . S
C670 H664 0.950 . S
C670 C671 1.327 . S
C671 H665 0.950 . S
C671 C670 1.327 . S
C671 C675 1.429 . S
C672 C655 1.574 . S
C672 H666 0.949 . S
C672 C676 1.368 . S
C673 C654 1.429 . S
C673 C667 1.429 . S
C673 C674 1.523 . S
C674 C655 1.368 . S
C674 C668 1.368 . S
C674 C673 1.523 . S
C675 C659 1.429 . S
C675 C671 1.429 . S
C675 C676 1.523 . S
C676 C660 1.368 . S
C676 C672 1.368 . S
C676 C675 1.523 . S
H677 C652 0.950 . S
H678 C654 0.950 . S
H679 C655 0.949 . S
H680 C657 0.950 . S
H681 C659 0.950 . S
C682 C683 1.349 . S
C682 C684 1.327 . S
C682 H707 0.950 . S
C683 C682 1.349 . S
C683 C699 1.349 . S
C684 C682 1.327 . S
C684 C703 1.429 . S
C684 H708 0.950 . S
C685 C702 1.574 . S
C685 C704 1.368 . S
C685 H709 0.949 . S
H686 C690 0.949 . S
C687 C688 1.349 . S
C687 C689 1.327 . S
C687 H710 0.950 . S
C688 C687 1.349 . S
C688 C700 1.349 . S
C689 C687 1.327 . S
C689 C705 1.429 . S
C689 H711 0.950 . S
C690 H686 0.949 . S
C690 C698 1.574 . S
C690 C706 1.368 . S
H691 C699 0.950 . S
H692 C697 0.950 . S
H693 C698 0.949 . S
H694 C700 0.950 . S
H695 C701 0.950 . S
H696 C702 0.949 . S
C697 H692 0.950 . S
C697 C699 1.327 . S
C697 C703 1.429 . S
C698 C690 1.574 . S
C698 H693 0.949 . S
C698 C704 1.368 . S
C699 C683 1.349 . S
C699 H691 0.950 . S
C699 C697 1.327 . S
C700 C688 1.349 . S
C700 H694 0.950 . S
C700 C701 1.327 . S
C701 H695 0.950 . S
C701 C700 1.327 . S
C701 C705 1.429 . S
C702 C685 1.574 . S
C702 H696 0.949 . S
C702 C706 1.368 . S
C703 C684 1.429 . S
C703 C697 1.429 . S
C703 C704 1.523 . S
C704 C685 1.368 . S
C704 C698 1.368 . S
C704 C703 1.523 . S
C705 C689 1.429 . S
C705 C701 1.429 . S
C705 C706 1.523 . S
C706 C690 1.368 . S
C706 C702 1.368 . S
C706 C705 1.523 . S
H707 C682 0.950 . S
H708 C684 0.950 . S
H709 C685 0.949 . S
H710 C687 0.950 . S
H711 C689 0.950 . S
C712 C713 1.349 . S
C712 C714 1.327 . S
C712 H737 0.950 . S
C713 C712 1.349 . S
C713 C729 1.349 . S
C714 C712 1.327 . S
C714 C733 1.429 . S
C714 H738 0.950 . S
C715 C732 1.574 . S
C715 C734 1.368 . S
C715 H739 0.949 . S
H716 C720 0.949 . S
C717 C718 1.349 . S
C717 C719 1.327 . S
C717 H740 0.950 . S
C718 C717 1.349 . S
C718 C730 1.349 . S
C719 C717 1.327 . S
C719 C735 1.429 . S
C719 H741 0.950 . S
C720 H716 0.949 . S
C720 C728 1.574 . S
C720 C736 1.368 . S
H721 C729 0.950 . S
H722 C727 0.950 . S
H723 C728 0.949 . S
H724 C730 0.950 . S
H725 C731 0.950 . S
H726 C732 0.949 . S
C727 H722 0.950 . S
C727 C729 1.327 . S
C727 C733 1.429 . S
C728 C720 1.574 . S
C728 H723 0.949 . S
C728 C734 1.368 . S
C729 C713 1.349 . S
C729 H721 0.950 . S
C729 C727 1.327 . S
C730 C718 1.349 . S
C730 H724 0.950 . S
C730 C731 1.327 . S
C731 H725 0.950 . S
C731 C730 1.327 . S
C731 C735 1.429 . S
C732 C715 1.574 . S
C732 H726 0.949 . S
C732 C736 1.368 . S
C733 C714 1.429 . S
C733 C727 1.429 . S
C733 C734 1.523 . S
C734 C715 1.368 . S
C734 C728 1.368 . S
C734 C733 1.523 . S
C735 C719 1.429 . S
C735 C731 1.429 . S
C735 C736 1.523 . S
C736 C720 1.368 . S
C736 C732 1.368 . S
C736 C735 1.523 . S
H737 C712 0.950 . S
H738 C714 0.950 . S
H739 C715 0.949 . S
H740 C717 0.950 . S
H741 C719 0.950 . S
C742 C743 1.349 . S
C742 C744 1.327 . S
C742 H767 0.950 . S
C743 C742 1.349 . S
C743 C759 1.349 . S
C744 C742 1.327 . S
C744 C763 1.429 . S
C744 H768 0.950 . S
C745 C762 1.574 . S
C745 C764 1.368 . S
C745 H769 0.949 . S
H746 C750 0.949 . S
C747 C748 1.349 . S
C747 C749 1.327 . S
C747 H770 0.950 . S
C748 C747 1.349 . S
C748 C760 1.349 . S
C749 C747 1.327 . S
C749 C765 1.429 . S
C749 H771 0.950 . S
C750 H746 0.949 . S
C750 C758 1.574 . S
C750 C766 1.368 . S
H751 C759 0.950 . S
H752 C757 0.950 . S
H753 C758 0.949 . S
H754 C760 0.950 . S
H755 C761 0.950 . S
H756 C762 0.949 . S
C757 H752 0.950 . S
C757 C759 1.327 . S
C757 C763 1.429 . S
C758 C750 1.574 . S
C758 H753 0.949 . S
C758 C764 1.368 . S
C759 C743 1.349 . S
C759 H751 0.950 . S
C759 C757 1.327 . S
C760 C748 1.349 . S
C760 H754 0.950 . S
C760 C761 1.327 . S
C761 H755 0.950 . S
C761 C760 1.327 . S
C761 C765 1.429 . S
C762 C745 1.574 . S
C762 H756 0.949 . S
C762 C766 1.368 . S
C763 C744 1.429 . S
C763 C757 1.429 . S
C763 C764 1.523 . S
C764 C745 1.368 . S
C764 C758 1.368 . S
C764 C763 1.523 . S
C765 C749 1.429 . S
C765 C761 1.429 . S
C765 C766 1.523 . S
C766 C750 1.368 . S
C766 C762 1.368 . S
C766 C765 1.523 . S
H767 C742 0.950 . S
H768 C744 0.950 . S
H769 C745 0.949 . S
H770 C747 0.950 . S
H771 C749 0.950 . S
C772 C773 1.349 . S
C772 C774 1.327 . S
C772 H797 0.950 . S
C773 C772 1.349 . S
C773 C789 1.349 . S
C774 C772 1.327 . S
C774 C793 1.429 . S
C774 H798 0.950 . S
C775 C792 1.574 . S
C775 C794 1.368 . S
C775 H799 0.949 . S
H776 C780 0.949 . S
C777 C778 1.349 . S
C777 C779 1.327 . S
C777 H800 0.950 . S
C778 C777 1.349 . S
C778 C790 1.349 . S
C779 C777 1.327 . S
C779 C795 1.429 . S
C779 H801 0.950 . S
C780 H776 0.949 . S
C780 C788 1.574 . S
C780 C796 1.368 . S
H781 C789 0.950 . S
H782 C787 0.950 . S
H783 C788 0.949 . S
H784 C790 0.950 . S
H785 C791 0.950 . S
H786 C792 0.949 . S
C787 H782 0.950 . S
C787 C789 1.327 . S
C787 C793 1.429 . S
C788 C780 1.574 . S
C788 H783 0.949 . S
C788 C794 1.368 . S
C789 C773 1.349 . S
C789 H781 0.950 . S
C789 C787 1.327 . S
C790 C778 1.349 . S
C790 H784 0.950 . S
C790 C791 1.327 . S
C791 H785 0.950 . S
C791 C790 1.327 . S
C791 C795 1.429 . S
C792 C775 1.574 . S
C792 H786 0.949 . S
C792 C796 1.368 . S
C793 C774 1.429 . S
C793 C787 1.429 . S
C793 C794 1.523 . S
C794 C775 1.368 . S
C794 C788 1.368 . S
C794 C793 1.523 . S
C795 C779 1.429 . S
C795 C791 1.429 . S
C795 C796 1.523 . S
C796 C780 1.368 . S
C796 C792 1.368 . S
C796 C795 1.523 . S
H797 C772 0.950 . S
H798 C774 0.950 . S
H799 C775 0.949 . S
H800 C777 0.950 . S
H801 C779 0.950 . S
C802 C803 1.349 . S
C802 C804 1.327 . S
C802 H827 0.950 . S
C803 C802 1.349 . S
C803 C819 1.349 . S
C804 C802 1.327 . S
C804 C823 1.429 . S
C804 H828 0.950 . S
C805 C822 1.574 . S
C805 C824 1.368 . S
C805 H829 0.949 . S
H806 C810 0.949 . S
C807 C808 1.349 . S
C807 C809 1.327 . S
C807 H830 0.950 . S
C808 C807 1.349 . S
C808 C820 1.349 . S
C809 C807 1.327 . S
C809 C825 1.429 . S
C809 H831 0.950 . S
C810 H806 0.949 . S
C810 C818 1.574 . S
C810 C826 1.368 . S
H811 C819 0.950 . S
H812 C817 0.950 . S
H813 C818 0.949 . S
H814 C820 0.950 . S
H815 C821 0.950 . S
H816 C822 0.949 . S
C817 H812 0.950 . S
C817 C819 1.327 . S
C817 C823 1.429 . S
C818 C810 1.574 . S
C818 H813 0.949 . S
C818 C824 1.368 . S
C819 C803 1.349 . S
C819 H811 0.950 . S
C819 C817 1.327 . S
C820 C808 1.349 . S
C820 H814 0.950 . S
C820 C821 1.327 . S
C821 H815 0.950 . S
C821 C820 1.327 . S
C821 C825 1.429 . S
C822 C805 1.574 . S
C822 H816 0.949 . S
C822 C826 1.368 . S
C823 C804 1.429 . S
C823 C817 1.429 . S
C823 C824 1.523 . S
C824 C805 1.368 . S
C824 C818 1.368 . S
C824 C823 1.523 . S
C825 C809 1.429 . S
C825 C821 1.429 . S
C825 C826 1.523 . S
C826 C810 1.368 . S
C826 C822 1.368 . S
C826 C825 1.523 . S
H827 C802 0.950 . S
H828 C804 0.950 . S
H829 C805 0.949 . S
H830 C807 0.950 . S
H831 C809 0.950 . S
C832 C833 1.349 . S
C832 C834 1.327 . S
C832 H857 0.950 . S
C833 C832 1.349 . S
C833 C849 1.349 . S
C834 C832 1.327 . S
C834 C853 1.429 . S
C834 H858 0.950 . S
C835 C852 1.574 . S
C835 C854 1.368 . S
C835 H859 0.949 . S
H836 C840 0.949 . S
C837 C838 1.349 . S
C837 C839 1.327 . S
C837 H860 0.950 . S
C838 C837 1.349 . S
C838 C850 1.349 . S
C839 C837 1.327 . S
C839 C855 1.429 . S
C839 H861 0.950 . S
C840 H836 0.949 . S
C840 C848 1.574 . S
C840 C856 1.368 . S
H841 C849 0.950 . S
H842 C847 0.950 . S
H843 C848 0.949 . S
H844 C850 0.950 . S
H845 C851 0.950 . S
H846 C852 0.949 . S
C847 H842 0.950 . S
C847 C849 1.327 . S
C847 C853 1.429 . S
C848 C840 1.574 . S
C848 H843 0.949 . S
C848 C854 1.368 . S
C849 C833 1.349 . S
C849 H841 0.950 . S
C849 C847 1.327 . S
C850 C838 1.349 . S
C850 H844 0.950 . S
C850 C851 1.327 . S
C851 H845 0.950 . S
C851 C850 1.327 . S
C851 C855 1.429 . S
C852 C835 1.574 . S
C852 H846 0.949 . S
C852 C856 1.368 . S
C853 C834 1.429 . S
C853 C847 1.429 . S
C853 C854 1.523 . S
C854 C835 1.368 . S
C854 C848 1.368 . S
C854 C853 1.523 . S
C855 C839 1.429 . S
C855 C851 1.429 . S
C855 C856 1.523 . S
C856 C840 1.368 . S
C856 C852 1.368 . S
C856 C855 1.523 . S
H857 C832 0.950 . S
H858 C834 0.950 . S
H859 C835 0.949 . S
H860 C837 0.950 . S
H861 C839 0.950 . S
C862 C863 1.349 . S
C862 C864 1.327 . S
C862 H887 0.950 . S
C863 C862 1.349 . S
C863 C879 1.349 . S
C864 C862 1.327 . S
C864 C883 1.429 . S
C864 H888 0.950 . S
C865 C882 1.574 . S
C865 C884 1.368 . S
C865 H889 0.949 . S
H866 C870 0.949 . S
C867 C868 1.349 . S
C867 C869 1.327 . S
C867 H890 0.950 . S
C868 C867 1.349 . S
C868 C880 1.349 . S
C869 C867 1.327 . S
C869 C885 1.429 . S
C869 H891 0.950 . S
C870 H866 0.949 . S
C870 C878 1.574 . S
C870 C886 1.368 . S
H871 C879 0.950 . S
H872 C877 0.950 . S
H873 C878 0.949 . S
H874 C880 0.950 . S
H875 C881 0.950 . S
H876 C882 0.949 . S
C877 H872 0.950 . S
C877 C879 1.327 . S
C877 C883 1.429 . S
C878 C870 1.574 . S
C878 H873 0.949 . S
C878 C884 1.368 . S
C879 C863 1.349 . S
C879 H871 0.950 . S
C879 C877 1.327 . S
C880 C868 1.349 . S
C880 H874 0.950 . S
C880 C881 1.327 . S
C881 H875 0.950 . S
C881 C880 1.327 . S
C881 C885 1.429 . S
C882 C865 1.574 . S
C882 H876 0.949 . S
C882 C886 1.368 . S
C883 C864 1.429 . S
C883 C877 1.429 . S
C883 C884 1.523 . S
C884 C865 1.368 . S
C884 C878 1.368 . S
C884 C883 1.523 . S
C885 C869 1.429 . S
C885 C881 1.429 . S
C885 C886 1.523 . S
C886 C870 1.368 . S
C886 C882 1.368 . S
C886 C885 1.523 . S
H887 C862 0.950 . S
H888 C864 0.950 . S
H889 C865 0.949 . S
H890 C867 0.950 . S
H891 C869 0.950 . S
C892 C893 1.349 . S
C892 C894 1.327 . S
C892 H917 0.950 . S
C893 C892 1.349 . S
C893 C909 1.349 . S
C894 C892 1.327 . S
C894 C913 1.429 . S
C894 H918 0.950 . S
C895 C912 1.574 . S
C895 C914 1.368 . S
C895 H919 0.949 . S
H896 C900 0.949 . S
C897 C898 1.349 . S
C897 C899 1.327 . S
C897 H920 0.950 . S
C898 C897 1.349 . S
C898 C910 1.349 . S
C899 C897 1.327 . S
C899 C915 1.429 . S
C899 H921 0.950 . S
C900 H896 0.949 . S
C900 C908 1.574 . S
C900 C916 1.368 . S
H901 C909 0.950 . S
H902 C907 0.950 . S
H903 C908 0.949 . S
H904 C910 0.950 . S
H905 C911 0.950 . S
H906 C912 0.949 . S
C907 H902 0.950 . S
C907 C909 1.327 . S
C907 C913 1.429 . S
C908 C900 1.574 . S
C908 H903 0.949 . S
C908 C914 1.368 . S
C909 C893 1.349 . S
C909 H901 0.950 . S
C909 C907 1.327 . S
C910 C898 1.349 . S
C910 H904 0.950 . S
C910 C911 1.327 . S
C911 H905 0.950 . S
C911 C910 1.327 . S
C911 C915 1.429 . S
C912 C895 1.574 . S
C912 H906 0.949 . S
C912 C916 1.368 . S
C913 C894 1.429 . S
C913 C907 1.429 . S
C913 C914 1.523 . S
C914 C895 1.368 . S
C914 C908 1.368 . S
C914 C913 1.523 . S
C915 C899 1.429 . S
C915 C911 1.429 . S
C915 C916 1.523 . S
C916 C900 1.368 . S
C916 C912 1.368 . S
C916 C915 1.523 . S
H917 C892 0.950 . S
H918 C894 0.950 . S
H919 C895 0.949 . S
H920 C897 0.950 . S
H921 C899 0.950 . S
C922 C923 1.349 . S
C922 C924 1.327 . S
C922 H947 0.950 . S
C923 C922 1.349 . S
C923 C939 1.349 . S
C924 C922 1.327 . S
C924 C943 1.429 . S
C924 H948 0.950 . S
C925 C942 1.574 . S
C925 C944 1.368 . S
C925 H949 0.949 . S
H926 C930 0.949 . S
C927 C928 1.349 . S
C927 C929 1.327 . S
C927 H950 0.950 . S
C928 C927 1.349 . S
C928 C940 1.349 . S
C929 C927 1.327 . S
C929 C945 1.429 . S
C929 H951 0.950 . S
C930 H926 0.949 . S
C930 C938 1.574 . S
C930 C946 1.368 . S
H931 C939 0.950 . S
H932 C937 0.950 . S
H933 C938 0.949 . S
H934 C940 0.950 . S
H935 C941 0.950 . S
H936 C942 0.949 . S
C937 H932 0.950 . S
C937 C939 1.327 . S
C937 C943 1.429 . S
C938 C930 1.574 . S
C938 H933 0.949 . S
C938 C944 1.368 . S
C939 C923 1.349 . S
C939 H931 0.950 . S
C939 C937 1.327 . S
C940 C928 1.349 . S
C940 H934 0.950 . S
C940 C941 1.327 . S
C941 H935 0.950 . S
C941 C940 1.327 . S
C941 C945 1.429 . S
C942 C925 1.574 . S
C942 H936 0.949 . S
C942 C946 1.368 . S
C943 C924 1.429 . S
C943 C937 1.429 . S
C943 C944 1.523 . S
C944 C925 1.368 . S
C944 C938 1.368 . S
C944 C943 1.523 . S
C945 C929 1.429 . S
C945 C941 1.429 . S
C945 C946 1.523 . S
C946 C930 1.368 . S
C946 C942 1.368 . S
C946 C945 1.523 . S
H947 C922 0.950 . S
H948 C924 0.950 . S
H949 C925 0.949 . S
H950 C927 0.950 . S
H951 C929 0.950 . S
C952 C953 1.349 . S
C952 C954 1.327 . S
C952 H977 0.950 . S
C953 C952 1.349 . S
C953 C969 1.349 . S
C954 C952 1.327 . S
C954 C973 1.429 . S
C954 H978 0.950 . S
C955 C972 1.574 . S
C955 C974 1.368 . S
C955 H979 0.949 . S
H956 C960 0.949 . S
C957 C958 1.349 . S
C957 C959 1.327 . S
C957 H980 0.950 . S
C958 C957 1.349 . S
C958 C970 1.349 . S
C959 C957 1.327 . S
C959 C975 1.429 . S
C959 H981 0.950 . S
C960 H956 0.949 . S
C960 C968 1.574 . S
C960 C976 1.368 . S
H961 C969 0.950 . S
H962 C967 0.950 . S
H963 C968 0.949 . S
H964 C970 0.950 . S
H965 C971 0.950 . S
H966 C972 0.949 . S
C967 H962 0.950 . S
C967 C969 1.327 . S
C967 C973 1.429 . S
C968 C960 1.574 . S
C968 H963 0.949 . S
C968 C974 1.368 . S
C969 C953 1.349 . S
C969 H961 0.950 . S
C969 C967 1.327 . S
C970 C958 1.349 . S
C970 H964 0.950 . S
C970 C971 1.327 . S
C971 H965 0.950 . S
C971 C970 1.327 . S
C971 C975 1.429 . S
C972 C955 1.574 . S
C972 H966 0.949 . S
C972 C976 1.368 . S
C973 C954 1.429 . S
C973 C967 1.429 . S
C973 C974 1.523 . S
C974 C955 1.368 . S
C974 C968 1.368 . S
C974 C973 1.523 . S
C975 C959 1.429 . S
C975 C971 1.429 . S
C975 C976 1.523 . S
C976 C960 1.368 . S
C976 C972 1.368 . S
C976 C975 1.523 . S
H977 C952 0.950 . S
H978 C954 0.950 . S
H979 C955 0.949 . S
H980 C957 0.950 . S
H981 C959 0.950 . S
C982 C983 1.349 . S
C982 C984 1.327 . S
C982 H1007 0.950 . S
C983 C982 1.349 . S
C983 C999 1.349 . S
C984 C982 1.327 . S
C984 C1003 1.429 . S
C984 H1008 0.950 . S
C985 C1002 1.574 . S
C985 C1004 1.368 . S
C985 H1009 0.949 . S
H986 C990 0.949 . S
C987 C988 1.349 . S
C987 C989 1.327 . S
C987 H1010 0.950 . S
C988 C987 1.349 . S
C988 C1000 1.349 . S
C989 C987 1.327 . S
C989 C1005 1.429 . S
C989 H1011 0.950 . S
C990 H986 0.949 . S
C990 C998 1.574 . S
C990 C1006 1.368 . S
H991 C999 0.950 . S
H992 C997 0.950 . S
H993 C998 0.949 . S
H994 C1000 0.950 . S
H995 C1001 0.950 . S
H996 C1002 0.949 . S
C997 H992 0.950 . S
C997 C999 1.327 . S
C997 C1003 1.429 . S
C998 C990 1.574 . S
C998 H993 0.949 . S
C998 C1004 1.368 . S
C999 C983 1.349 . S
C999 H991 0.950 . S
C999 C997 1.327 . S
C1000 C988 1.349 . S
C1000 H994 0.950 . S
C1000 C1001 1.327 . S
C1001 H995 0.950 . S
C1001 C1000 1.327 . S
C1001 C1005 1.429 . S
C1002 C985 1.574 . S
C1002 H996 0.949 . S
C1002 C1006 1.368 . S
C1003 C984 1.429 . S
C1003 C997 1.429 . S
C1003 C1004 1.523 . S
C1004 C985 1.368 . S
C1004 C998 1.368 . S
C1004 C1003 1.523 . S
C1005 C989 1.429 . S
C1005 C1001 1.429 . S
C1005 C1006 1.523 . S
C1006 C990 1.368 . S
C1006 C1002 1.368 . S
C1006 C1005 1.523 . S
H1007 C982 0.950 . S
H1008 C984 0.950 . S
H1009 C985 0.949 . S
H1010 C987 0.950 . S
H1011 C989 0.950 . S
C1012 C1013 1.349 . S
C1012 C1014 1.327 . S
C1012 H1037 0.950 . S
C1013 C1012 1.349 . S
C1013 C1029 1.349 . S
C1014 C1012 1.327 . S
C1014 C1033 1.429 . S
C1014 H1038 0.950 . S
C1015 C1032 1.574 . S
C1015 C1034 1.368 . S
C1015 H1039 0.949 . S
H1016 C1020 0.949 . S
C1017 C1018 1.349 . S
C1017 C1019 1.327 . S
C1017 H1040 0.950 . S
C1018 C1017 1.349 . S
C1018 C1030 1.349 . S
C1019 C1017 1.327 . S
C1019 C1035 1.429 . S
C1019 H1041 0.950 . S
C1020 H1016 0.949 . S
C1020 C1028 1.574 . S
C1020 C1036 1.368 . S
H1021 C1029 0.950 . S
H1022 C1027 0.950 . S
H1023 C1028 0.949 . S
H1024 C1030 0.950 . S
H1025 C1031 0.950 . S
H1026 C1032 0.949 . S
C1027 H1022 0.950 . S
C1027 C1029 1.327 . S
C1027 C1033 1.429 . S
C1028 C1020 1.574 . S
C1028 H1023 0.949 . S
C1028 C1034 1.368 . S
C1029 C1013 1.349 . S
C1029 H1021 0.950 . S
C1029 C1027 1.327 . S
C1030 C1018 1.349 . S
C1030 H1024 0.950 . S
C1030 C1031 1.327 . S
C1031 H1025 0.950 . S
C1031 C1030 1.327 . S
C1031 C1035 1.429 . S
C1032 C1015 1.574 . S
C1032 H1026 0.949 . S
C1032 C1036 1.368 . S
C1033 C1014 1.429 . S
C1033 C1027 1.429 . S
C1033 C1034 1.523 . S
C1034 C1015 1.368 . S
C1034 C1028 1.368 . S
C1034 C1033 1.523 . S
C1035 C1019 1.429 . S
C1035 C1031 1.429 . S
C1035 C1036 1.523 . S
C1036 C1020 1.368 . S
C1036 C1032 1.368 . S
C1036 C1035 1.523 . S
H1037 C1012 0.950 . S
H1038 C1014 0.950 . S
H1039 C1015 0.949 . S
H1040 C1017 0.950 . S
H1041 C1019 0.950 . S
C1042 C1043 1.349 . S
C1042 C1044 1.327 . S
C1042 H1067 0.950 . S
C1043 C1042 1.349 . S
C1043 C1059 1.349 . S
C1044 C1042 1.327 . S
C1044 C1063 1.429 . S
C1044 H1068 0.950 . S
C1045 C1062 1.574 . S
C1045 C1064 1.368 . S
C1045 H1069 0.949 . S
H1046 C1050 0.949 . S
C1047 C1048 1.349 . S
C1047 C1049 1.327 . S
C1047 H1070 0.950 . S
C1048 C1047 1.349 . S
C1048 C1060 1.349 . S
C1049 C1047 1.327 . S
C1049 C1065 1.429 . S
C1049 H1071 0.950 . S
C1050 H1046 0.949 . S
C1050 C1058 1.574 . S
C1050 C1066 1.368 . S
H1051 C1059 0.950 . S
H1052 C1057 0.950 . S
H1053 C1058 0.949 . S
H1054 C1060 0.950 . S
H1055 C1061 0.950 . S
H1056 C1062 0.949 . S
C1057 H1052 0.950 . S
C1057 C1059 1.327 . S
C1057 C1063 1.429 . S
C1058 C1050 1.574 . S
C1058 H1053 0.949 . S
C1058 C1064 1.368 . S
C1059 C1043 1.349 . S
C1059 H1051 0.950 . S
C1059 C1057 1.327 . S
C1060 C1048 1.349 . S
C1060 H1054 0.950 . S
C1060 C1061 1.327 . S
C1061 H1055 0.950 . S
C1061 C1060 1.327 . S
C1061 C1065 1.429 . S
C1062 C1045 1.574 . S
C1062 H1056 0.949 . S
C1062 C1066 1.368 . S
C1063 C1044 1.429 . S
C1063 C1057 1.429 . S
C1063 C1064 1.523 . S
C1064 C1045 1.368 . S
C1064 C1058 1.368 . S
C1064 C1063 1.523 . S
C1065 C1049 1.429 . S
C1065 C1061 1.429 . S
C1065 C1066 1.523 . S
C1066 C1050 1.368 . S
C1066 C1062 1.368 . S
C1066 C1065 1.523 . S
H1067 C1042 0.950 . S
H1068 C1044 0.950 . S
H1069 C1045 0.949 . S
H1070 C1047 0.950 . S
H1071 C1049 0.950 . S
C1072 C1073 1.349 . S
C1072 C1074 1.327 . S
C1072 H1097 0.950 . S
C1073 C1072 1.349 . S
C1073 C1089 1.349 . S
C1074 C1072 1.327 . S
C1074 C1093 1.429 . S
C1074 H1098 0.950 . S
C1075 C1092 1.574 . S
C1075 C1094 1.368 . S
C1075 H1099 0.949 . S
H1076 C1080 0.949 . S
C1077 C1078 1.349 . S
C1077 C1079 1.327 . S
C1077 H1100 0.950 . S
C1078 C1077 1.349 . S
C1078 C1090 1.349 . S
C1079 C1077 1.327 . S
C1079 C1095 1.429 . S
C1079 H1101 0.950 . S
C1080 H1076 0.949 . S
C1080 C1088 1.574 . S
C1080 C1096 1.368 . S
H1081 C1089 0.950 . S
H1082 C1087 0.950 . S
H1083 C1088 0.949 . S
H1084 C1090 0.950 . S
H1085 C1091 0.950 . S
H1086 C1092 0.949 . S
C1087 H1082 0.950 . S
C1087 C1089 1.327 . S
C1087 C1093 1.429 . S
C1088 C1080 1.574 . S
C1088 H1083 0.949 . S
C1088 C1094 1.368 . S
C1089 C1073 1.349 . S
C1089 H1081 0.950 . S
C1089 C1087 1.327 . S
C1090 C1078 1.349 . S
C1090 H1084 0.950 . S
C1090 C1091 1.327 . S
C1091 H1085 0.950 . S
C1091 C1090 1.327 . S
C1091 C1095 1.429 . S
C1092 C1075 1.574 . S
C1092 H1086 0.949 . S
C1092 C1096 1.368 . S
C1093 C1074 1.429 . S
C1093 C1087 1.429 . S
C1093 C1094 1.523 . S
C1094 C1075 1.368 . S
C1094 C1088 1.368 . S
C1094 C1093 1.523 . S
C1095 C1079 1.429 . S
C1095 C1091 1.429 . S
C1095 C1096 1.523 . S
C1096 C1080 1.368 . S
C1096 C1092 1.368 . S
C1096 C1095 1.523 . S
H1097 C1072 0.950 . S
H1098 C1074 0.950 . S
H1099 C1075 0.949 . S
H1100 C1077 0.950 . S
H1101 C1079 0.950 . S
C1102 C1103 1.349 . S
C1102 C1104 1.327 . S
C1102 H1127 0.950 . S
C1103 C1102 1.349 . S
C1103 C1119 1.349 . S
C1104 C1102 1.327 . S
C1104 C1123 1.429 . S
C1104 H1128 0.950 . S
C1105 C1122 1.574 . S
C1105 C1124 1.368 . S
C1105 H1129 0.949 . S
H1106 C1110 0.949 . S
C1107 C1108 1.349 . S
C1107 C1109 1.327 . S
C1107 H1130 0.950 . S
C1108 C1107 1.349 . S
C1108 C1120 1.349 . S
C1109 C1107 1.327 . S
C1109 C1125 1.429 . S
C1109 H1131 0.950 . S
C1110 H1106 0.949 . S
C1110 C1118 1.574 . S
C1110 C1126 1.368 . S
H1111 C1119 0.950 . S
H1112 C1117 0.950 . S
H1113 C1118 0.949 . S
H1114 C1120 0.950 . S
H1115 C1121 0.950 . S
H1116 C1122 0.949 . S
C1117 H1112 0.950 . S
C1117 C1119 1.327 . S
C1117 C1123 1.429 . S
C1118 C1110 1.574 . S
C1118 H1113 0.949 . S
C1118 C1124 1.368 . S
C1119 C1103 1.349 . S
C1119 H1111 0.950 . S
C1119 C1117 1.327 . S
C1120 C1108 1.349 . S
C1120 H1114 0.950 . S
C1120 C1121 1.327 . S
C1121 H1115 0.950 . S
C1121 C1120 1.327 . S
C1121 C1125 1.429 . S
C1122 C1105 1.574 . S
C1122 H1116 0.949 . S
C1122 C1126 1.368 . S
C1123 C1104 1.429 . S
C1123 C1117 1.429 . S
C1123 C1124 1.523 . S
C1124 C1105 1.368 . S
C1124 C1118 1.368 . S
C1124 C1123 1.523 . S
C1125 C1109 1.429 . S
C1125 C1121 1.429 . S
C1125 C1126 1.523 . S
C1126 C1110 1.368 . S
C1126 C1122 1.368 . S
C1126 C1125 1.523 . S
H1127 C1102 0.950 . S
H1128 C1104 0.950 . S
H1129 C1105 0.949 . S
H1130 C1107 0.950 . S
H1131 C1109 0.950 . S
C1132 C1133 1.349 . S
C1132 C1134 1.327 . S
C1132 H1157 0.950 . S
C1133 C1132 1.349 . S
C1133 C1149 1.349 . S
C1134 C1132 1.327 . S
C1134 C1153 1.429 . S
C1134 H1158 0.950 . S
C1135 C1152 1.574 . S
C1135 C1154 1.368 . S
C1135 H1159 0.949 . S
H1136 C1140 0.949 . S
C1137 C1138 1.349 . S
C1137 C1139 1.327 . S
C1137 H1160 0.950 . S
C1138 C1137 1.349 . S
C1138 C1150 1.349 . S
C1139 C1137 1.327 . S
C1139 C1155 1.429 . S
C1139 H1161 0.950 . S
C1140 H1136 0.949 . S
C1140 C1148 1.574 . S
C1140 C1156 1.368 . S
H1141 C1149 0.950 . S
H1142 C1147 0.950 . S
H1143 C1148 0.949 . S
H1144 C1150 0.950 . S
H1145 C1151 0.950 . S
H1146 C1152 0.949 . S
C1147 H1142 0.950 . S
C1147 C1149 1.327 . S
C1147 C1153 1.429 . S
C1148 C1140 1.574 . S
C1148 H1143 0.949 . S
C1148 C1154 1.368 . S
C1149 C1133 1.349 . S
C1149 H1141 0.950 . S
C1149 C1147 1.327 . S
C1150 C1138 1.349 . S
C1150 H1144 0.950 . S
C1150 C1151 1.327 . S
C1151 H1145 0.950 . S
C1151 C1150 1.327 . S
C1151 C1155 1.429 . S
C1152 C1135 1.574 . S
C1152 H1146 0.949 . S
C1152 C1156 1.368 . S
C1153 C1134 1.429 . S
C1153 C1147 1.429 . S
C1153 C1154 1.523 . S
C1154 C1135 1.368 . S
C1154 C1148 1.368 . S
C1154 C1153 1.523 . S
C1155 C1139 1.429 . S
C1155 C1151 1.429 . S
C1155 C1156 1.523 . S
C1156 C1140 1.368 . S
C1156 C1152 1.368 . S
C1156 C1155 1.523 . S
H1157 C1132 0.950 . S
H1158 C1134 0.950 . S
H1159 C1135 0.949 . S
H1160 C1137 0.950 . S
H1161 C1139 0.950 . S
C1162 C1163 1.349 . S
C1162 C1164 1.327 . S
C1162 H1187 0.950 . S
C1163 C1162 1.349 . S
C1163 C1179 1.349 . S
C1164 C1162 1.327 . S
C1164 C1183 1.429 . S
C1164 H1188 0.950 . S
C1165 C1182 1.574 . S
C1165 C1184 1.368 . S
C1165 H1189 0.949 . S
H1166 C1170 0.949 . S
C1167 C1168 1.349 . S
C1167 C1169 1.327 . S
C1167 H1190 0.950 . S
C1168 C1167 1.349 . S
C1168 C1180 1.349 . S
C1169 C1167 1.327 . S
C1169 C1185 1.429 . S
C1169 H1191 0.950 . S
C1170 H1166 0.949 . S
C1170 C1178 1.574 . S
C1170 C1186 1.368 . S
H1171 C1179 0.950 . S
H1172 C1177 0.950 . S
H1173 C1178 0.949 . S
H1174 C1180 0.950 . S
H1175 C1181 0.950 . S
H1176 C1182 0.949 . S
C1177 H1172 0.950 . S
C1177 C1179 1.327 . S
C1177 C1183 1.429 . S
C1178 C1170 1.574 . S
C1178 H1173 0.949 . S
C1178 C1184 1.368 . S
C1179 C1163 1.349 . S
C1179 H1171 0.950 . S
C1179 C1177 1.327 . S
C1180 C1168 1.349 . S
C1180 H1174 0.950 . S
C1180 C1181 1.327 . S
C1181 H1175 0.950 . S
C1181 C1180 1.327 . S
C1181 C1185 1.429 . S
C1182 C1165 1.574 . S
C1182 H1176 0.949 . S
C1182 C1186 1.368 . S
C1183 C1164 1.429 . S
C1183 C1177 1.429 . S
C1183 C1184 1.523 . S
C1184 C1165 1.368 . S
C1184 C1178 1.368 . S
C1184 C1183 1.523 . S
C1185 C1169 1.429 . S
C1185 C1181 1.429 . S
C1185 C1186 1.523 . S
C1186 C1170 1.368 . S
C1186 C1182 1.368 . S
C1186 C1185 1.523 . S
H1187 C1162 0.950 . S
H1188 C1164 0.950 . S
H1189 C1165 0.949 . S
H1190 C1167 0.950 . S
H1191 C1169 0.950 . S
C1192 C1193 1.349 . S
C1192 C1194 1.327 . S
C1192 H1217 0.950 . S
C1193 C1192 1.349 . S
C1193 C1209 1.349 . S
C1194 C1192 1.327 . S
C1194 C1213 1.429 . S
C1194 H1218 0.950 . S
C1195 C1212 1.574 . S
C1195 C1214 1.368 . S
C1195 H1219 0.949 . S
H1196 C1200 0.949 . S
C1197 C1198 1.349 . S
C1197 C1199 1.327 . S
C1197 H1220 0.950 . S
C1198 C1197 1.349 . S
C1198 C1210 1.349 . S
C1199 C1197 1.327 . S
C1199 C1215 1.429 . S
C1199 H1221 0.950 . S
C1200 H1196 0.949 . S
C1200 C1208 1.574 . S
C1200 C1216 1.368 . S
H1201 C1209 0.950 . S
H1202 C1207 0.950 . S
H1203 C1208 0.949 . S
H1204 C1210 0.950 . S
H1205 C1211 0.950 . S
H1206 C1212 0.949 . S
C1207 H1202 0.950 . S
C1207 C1209 1.327 . S
C1207 C1213 1.429 . S
C1208 C1200 1.574 . S
C1208 H1203 0.949 . S
C1208 C1214 1.368 . S
C1209 C1193 1.349 . S
C1209 H1201 0.950 . S
C1209 C1207 1.327 . S
C1210 C1198 1.349 . S
C1210 H1204 0.950 . S
C1210 C1211 1.327 . S
C1211 H1205 0.950 . S
C1211 C1210 1.327 . S
C1211 C1215 1.429 . S
C1212 C1195 1.574 . S
C1212 H1206 0.949 . S
C1212 C1216 1.368 . S
C1213 C1194 1.429 . S
C1213 C1207 1.429 . S
C1213 C1214 1.523 . S
C1214 C1195 1.368 . S
C1214 C1208 1.368 . S
C1214 C1213 1.523 . S
C1215 C1199 1.429 . S
C1215 C1211 1.429 . S
C1215 C1216 1.523 . S
C1216 C1200 1.368 . S
C1216 C1212 1.368 . S
C1216 C1215 1.523 . S
H1217 C1192 0.950 . S
H1218 C1194 0.950 . S
H1219 C1195 0.949 . S
H1220 C1197 0.950 . S
H1221 C1199 0.950 . S
C1222 C1223 1.349 . S
C1222 C1224 1.327 . S
C1222 H1247 0.950 . S
C1223 C1222 1.349 . S
C1223 C1239 1.349 . S
C1224 C1222 1.327 . S
C1224 C1243 1.429 . S
C1224 H1248 0.950 . S
C1225 C1242 1.574 . S
C1225 C1244 1.368 . S
C1225 H1249 0.949 . S
H1226 C1230 0.949 . S
C1227 C1228 1.349 . S
C1227 C1229 1.327 . S
C1227 H1250 0.950 . S
C1228 C1227 1.349 . S
C1228 C1240 1.349 . S
C1229 C1227 1.327 . S
C1229 C1245 1.429 . S
C1229 H1251 0.950 . S
C1230 H1226 0.949 . S
C1230 C1238 1.574 . S
C1230 C1246 1.368 . S
H1231 C1239 0.950 . S
H1232 C1237 0.950 . S
H1233 C1238 0.949 . S
H1234 C1240 0.950 . S
H1235 C1241 0.950 . S
H1236 C1242 0.949 . S
C1237 H1232 0.950 . S
C1237 C1239 1.327 . S
C1237 C1243 1.429 . S
C1238 C1230 1.574 . S
C1238 H1233 0.949 . S
C1238 C1244 1.368 . S
C1239 C1223 1.349 . S
C1239 H1231 0.950 . S
C1239 C1237 1.327 . S
C1240 C1228 1.349 . S
C1240 H1234 0.950 . S
C1240 C1241 1.327 . S
C1241 H1235 0.950 . S
C1241 C1240 1.327 . S
C1241 C1245 1.429 . S
C1242 C1225 1.574 . S
C1242 H1236 0.949 . S
C1242 C1246 1.368 . S
C1243 C1224 1.429 . S
C1243 C1237 1.429 . S
C1243 C1244 1.523 . S
C1244 C1225 1.368 . S
C1244 C1238 1.368 . S
C1244 C1243 1.523 . S
C1245 C1229 1.429 . S
C1245 C1241 1.429 . S
C1245 C1246 1.523 . S
C1246 C1230 1.368 . S
C1246 C1242 1.368 . S
C1246 C1245 1.523 . S
H1247 C1222 0.950 . S
H1248 C1224 0.950 . S
H1249 C1225 0.949 . S
H1250 C1227 0.950 . S
H1251 C1229 0.950 . S
C1252 C1253 1.349 . S
C1252 C1254 1.327 . S
C1252 H1277 0.950 . S
C1253 C1252 1.349 . S
C1253 C1269 1.349 . S
C1254 C1252 1.327 . S
C1254 C1273 1.429 . S
C1254 H1278 0.950 . S
C1255 C1272 1.574 . S
C1255 C1274 1.368 . S
C1255 H1279 0.949 . S
H1256 C1260 0.949 . S
C1257 C1258 1.349 . S
C1257 C1259 1.327 . S
C1257 H1280 0.950 . S
C1258 C1257 1.349 . S
C1258 C1270 1.349 . S
C1259 C1257 1.327 . S
C1259 C1275 1.429 . S
C1259 H1281 0.950 . S
C1260 H1256 0.949 . S
C1260 C1268 1.574 . S
C1260 C1276 1.368 . S
H1261 C1269 0.950 . S
H1262 C1267 0.950 . S
H1263 C1268 0.949 . S
H1264 C1270 0.950 . S
H1265 C1271 0.950 . S
H1266 C1272 0.949 . S
C1267 H1262 0.950 . S
C1267 C1269 1.327 . S
C1267 C1273 1.429 . S
C1268 C1260 1.574 . S
C1268 H1263 0.949 . S
C1268 C1274 1.368 . S
C1269 C1253 1.349 . S
C1269 H1261 0.950 . S
C1269 C1267 1.327 . S
C1270 C1258 1.349 . S
C1270 H1264 0.950 . S
C1270 C1271 1.327 . S
C1271 H1265 0.950 . S
C1271 C1270 1.327 . S
C1271 C1275 1.429 . S
C1272 C1255 1.574 . S
C1272 H1266 0.949 . S
C1272 C1276 1.368 . S
C1273 C1254 1.429 . S
C1273 C1267 1.429 . S
C1273 C1274 1.523 . S
C1274 C1255 1.368 . S
C1274 C1268 1.368 . S
C1274 C1273 1.523 . S
C1275 C1259 1.429 . S
C1275 C1271 1.429 . S
C1275 C1276 1.523 . S
C1276 C1260 1.368 . S
C1276 C1272 1.368 . S
C1276 C1275 1.523 . S
H1277 C1252 0.950 . S
H1278 C1254 0.950 . S
H1279 C1255 0.949 . S
H1280 C1257 0.950 . S
H1281 C1259 0.950 . S
C1282 C1283 1.349 . S
C1282 C1284 1.327 . S
C1282 H1307 0.950 . S
C1283 C1282 1.349 . S
C1283 C1299 1.349 . S
C1284 C1282 1.327 . S
C1284 C1303 1.429 . S
C1284 H1308 0.950 . S
C1285 C1302 1.574 . S
C1285 C1304 1.368 . S
C1285 H1309 0.949 . S
H1286 C1290 0.949 . S
C1287 C1288 1.349 . S
C1287 C1289 1.327 . S
C1287 H1310 0.950 . S
C1288 C1287 1.349 . S
C1288 C1300 1.349 . S
C1289 C1287 1.327 . S
C1289 C1305 1.429 . S
C1289 H1311 0.950 . S
C1290 H1286 0.949 . S
C1290 C1298 1.574 . S
C1290 C1306 1.368 . S
H1291 C1299 0.950 . S
H1292 C1297 0.950 . S
H1293 C1298 0.949 . S
H1294 C1300 0.950 . S
H1295 C1301 0.950 . S
H1296 C1302 0.949 . S
C1297 H1292 0.950 . S
C1297 C1299 1.327 . S
C1297 C1303 1.429 . S
C1298 C1290 1.574 . S
C1298 H1293 0.949 . S
C1298 C1304 1.368 . S
C1299 C1283 1.349 . S
C1299 H1291 0.950 . S
C1299 C1297 1.327 . S
C1300 C1288 1.349 . S
C1300 H1294 0.950 . S
C1300 C1301 1.327 . S
C1301 H1295 0.950 . S
C1301 C1300 1.327 . S
C1301 C1305 1.429 . S
C1302 C1285 1.574 . S
C1302 H1296 0.949 . S
C1302 C1306 1.368 . S
C1303 C1284 1.429 . S
C1303 C1297 1.429 . S
C1303 C1304 1.523 . S
C1304 C1285 1.368 . S
C1304 C1298 1.368 . S
C1304 C1303 1.523 . S
C1305 C1289 1.429 . S
C1305 C1301 1.429 . S
C1305 C1306 1.523 . S
C1306 C1290 1.368 . S
C1306 C1302 1.368 . S
C1306 C1305 1.523 . S
H1307 C1282 0.950 . S
H1308 C1284 0.950 . S
H1309 C1285 0.949 . S
H1310 C1287 0.950 . S
H1311 C1289 0.950 . S
C1312 C1313 1.349 . S
C1312 C1314 1.327 . S
C1312 H1337 0.950 . S
C1313 C1312 1.349 . S
C1313 C1329 1.349 . S
C1314 C1312 1.327 . S
C1314 C1333 1.429 . S
C1314 H1338 0.950 . S
C1315 C1332 1.574 . S
C1315 C1334 1.368 . S
C1315 H1339 0.949 . S
H1316 C1320 0.949 . S
C1317 C1318 1.349 . S
C1317 C1319 1.327 . S
C1317 H1340 0.950 . S
C1318 C1317 1.349 . S
C1318 C1330 1.349 . S
C1319 C1317 1.327 . S
C1319 C1335 1.429 . S
C1319 H1341 0.950 . S
C1320 H1316 0.949 . S
C1320 C1328 1.574 . S
C1320 C1336 1.368 . S
H1321 C1329 0.950 . S
H1322 C1327 0.950 . S
H1323 C1328 0.949 . S
H1324 C1330 0.950 . S
H1325 C1331 0.950 . S
H1326 C1332 0.949 . S
C1327 H1322 0.950 . S
C1327 C1329 1.327 . S
C1327 C1333 1.429 . S
C1328 C1320 1.574 . S
C1328 H1323 0.949 . S
C1328 C1334 1.368 . S
C1329 C1313 1.349 . S
C1329 H1321 0.950 . S
C1329 C1327 1.327 . S
C1330 C1318 1.349 . S
C1330 H1324 0.950 . S
C1330 C1331 1.327 . S
C1331 H1325 0.950 . S
C1331 C1330 1.327 . S
C1331 C1335 1.429 . S
C1332 C1315 1.574 . S
C1332 H1326 0.949 . S
C1332 C1336 1.368 . S
C1333 C1314 1.429 . S
C1333 C1327 1.429 . S
C1333 C1334 1.523 . S
C1334 C1315 1.368 . S
C1334 C1328 1.368 . S
C1334 C1333 1.523 . S
C1335 C1319 1.429 . S
C1335 C1331 1.429 . S
C1335 C1336 1.523 . S
C1336 C1320 1.368 . S
C1336 C1332 1.368 . S
C1336 C1335 1.523 . S
H1337 C1312 0.950 . S
H1338 C1314 0.950 . S
H1339 C1315 0.949 . S
H1340 C1317 0.950 . S
H1341 C1319 0.950 . S
C1342 C1343 1.349 . S
C1342 C1344 1.327 . S
C1342 H1367 0.950 . S
C1343 C1342 1.349 . S
C1343 C1359 1.349 . S
C1344 C1342 1.327 . S
C1344 C1363 1.429 . S
C1344 H1368 0.950 . S
C1345 C1362 1.574 . S
C1345 C1364 1.368 . S
C1345 H1369 0.949 . S
H1346 C1350 0.949 . S
C1347 C1348 1.349 . S
C1347 C1349 1.327 . S
C1347 H1370 0.950 . S
C1348 C1347 1.349 . S
C1348 C1360 1.349 . S
C1349 C1347 1.327 . S
C1349 C1365 1.429 . S
C1349 H1371 0.950 . S
C1350 H1346 0.949 . S
C1350 C1358 1.574 . S
C1350 C1366 1.368 . S
H1351 C1359 0.950 . S
H1352 C1357 0.950 . S
H1353 C1358 0.949 . S
H1354 C1360 0.950 . S
H1355 C1361 0.950 . S
H1356 C1362 0.949 . S
C1357 H1352 0.950 . S
C1357 C1359 1.327 . S
C1357 C1363 1.429 . S
C1358 C1350 1.574 . S
C1358 H1353 0.949 . S
C1358 C1364 1.368 . S
C1359 C1343 1.349 . S
C1359 H1351 0.950 . S
C1359 C1357 1.327 . S
C1360 C1348 1.349 . S
C1360 H1354 0.950 . S
C1360 C1361 1.327 . S
C1361 H1355 0.950 . S
C1361 C1360 1.327 . S
C1361 C1365 1.429 . S
C1362 C1345 1.574 . S
C1362 H1356 0.949 . S
C1362 C1366 1.368 . S
C1363 C1344 1.429 . S
C1363 C1357 1.429 . S
C1363 C1364 1.523 . S
C1364 C1345 1.368 . S
C1364 C1358 1.368 . S
C1364 C1363 1.523 . S
C1365 C1349 1.429 . S
C1365 C1361 1.429 . S
C1365 C1366 1.523 . S
C1366 C1350 1.368 . S
C1366 C1362 1.368 . S
C1366 C1365 1.523 . S
H1367 C1342 0.950 . S
H1368 C1344 0.950 . S
H1369 C1345 0.949 . S
H1370 C1347 0.950 . S
H1371 C1349 0.950 . S
C1372 C1373 1.349 . S
C1372 C1374 1.327 . S
C1372 H1397 0.950 . S
C1373 C1372 1.349 . S
C1373 C1389 1.349 . S
C1374 C1372 1.327 . S
C1374 C1393 1.429 . S
C1374 H1398 0.950 . S
C1375 C1392 1.574 . S
C1375 C1394 1.368 . S
C1375 H1399 0.949 . S
H1376 C1380 0.949 . S
C1377 C1378 1.349 . S
C1377 C1379 1.327 . S
C1377 H1400 0.950 . S
C1378 C1377 1.349 . S
C1378 C1390 1.349 . S
C1379 C1377 1.327 . S
C1379 C1395 1.429 . S
C1379 H1401 0.950 . S
C1380 H1376 0.949 . S
C1380 C1388 1.574 . S
C1380 C1396 1.368 . S
H1381 C1389 0.950 . S
H1382 C1387 0.950 . S
H1383 C1388 0.949 . S
H1384 C1390 0.950 . S
H1385 C1391 0.950 . S
H1386 C1392 0.949 . S
C1387 H1382 0.950 . S
C1387 C1389 1.327 . S
C1387 C1393 1.429 . S
C1388 C1380 1.574 . S
C1388 H1383 0.949 . S
C1388 C1394 1.368 . S
C1389 C1373 1.349 . S
C1389 H1381 0.950 . S
C1389 C1387 1.327 . S
C1390 C1378 1.349 . S
C1390 H1384 0.950 . S
C1390 C1391 1.327 . S
C1391 H1385 0.950 . S
C1391 C1390 1.327 . S
C1391 C1395 1.429 . S
C1392 C1375 1.574 . S
C1392 H1386 0.949 . S
C1392 C1396 1.368 . S
C1393 C1374 1.429 . S
C1393 C1387 1.429 . S
C1393 C1394 1.523 . S
C1394 C1375 1.368 . S
C1394 C1388 1.368 . S
C1394 C1393 1.523 . S
C1395 C1379 1.429 . S
C1395 C1391 1.429 . S
C1395 C1396 1.523 . S
C1396 C1380 1.368 . S
C1396 C1392 1.368 . S
C1396 C1395 1.523 . S
H1397 C1372 0.950 . S
H1398 C1374 0.950 . S
H1399 C1375 0.949 . S
H1400 C1377 0.950 . S
H1401 C1379 0.950 . S
C1402 C1403 1.349 . S
C1402 C1404 1.327 . S
C1402 H1427 0.950 . S
C1403 C1402 1.349 . S
C1403 C1419 1.349 . S
C1404 C1402 1.327 . S
C1404 C1423 1.429 . S
C1404 H1428 0.950 . S
C1405 C1422 1.574 . S
C1405 C1424 1.368 . S
C1405 H1429 0.949 . S
H1406 C1410 0.949 . S
C1407 C1408 1.349 . S
C1407 C1409 1.327 . S
C1407 H1430 0.950 . S
C1408 C1407 1.349 . S
C1408 C1420 1.349 . S
C1409 C1407 1.327 . S
C1409 C1425 1.429 . S
C1409 H1431 0.950 . S
C1410 H1406 0.949 . S
C1410 C1418 1.574 . S
C1410 C1426 1.368 . S
H1411 C1419 0.950 . S
H1412 C1417 0.950 . S
H1413 C1418 0.949 . S
H1414 C1420 0.950 . S
H1415 C1421 0.950 . S
H1416 C1422 0.949 . S
C1417 H1412 0.950 . S
C1417 C1419 1.327 . S
C1417 C1423 1.429 . S
C1418 C1410 1.574 . S
C1418 H1413 0.949 . S
C1418 C1424 1.368 . S
C1419 C1403 1.349 . S
C1419 H1411 0.950 . S
C1419 C1417 1.327 . S
C1420 C1408 1.349 . S
C1420 H1414 0.950 . S
C1420 C1421 1.327 . S
C1421 H1415 0.950 . S
C1421 C1420 1.327 . S
C1421 C1425 1.429 . S
C1422 C1405 1.574 . S
C1422 H1416 0.949 . S
C1422 C1426 1.368 . S
C1423 C1404 1.429 . S
C1423 C1417 1.429 . S
C1423 C1424 1.523 . S
C1424 C1405 1.368 . S
C1424 C1418 1.368 . S
C1424 C1423 1.523 . S
C1425 C1409 1.429 . S
C1425 C1421 1.429 . S
C1425 C1426 1.523 . S
C1426 C1410 1.368 . S
C1426 C1422 1.368 . S
C1426 C1425 1.523 . S
H1427 C1402 0.950 . S
H1428 C1404 0.950 . S
H1429 C1405 0.949 . S
H1430 C1407 0.950 . S
H1431 C1409 0.950 . S
C1432 C1433 1.349 . S
C1432 C1434 1.327 . S
C1432 H1457 0.950 . S
C1433 C1432 1.349 . S
C1433 C1449 1.349 . S
C1434 C1432 1.327 . S
C1434 C1453 1.429 . S
C1434 H1458 0.950 . S
C1435 C1452 1.574 . S
C1435 C1454 1.368 . S
C1435 H1459 0.949 . S
H1436 C1440 0.949 . S
C1437 C1438 1.349 . S
C1437 C1439 1.327 . S
C1437 H1460 0.950 . S
C1438 C1437 1.349 . S
C1438 C1450 1.349 . S
C1439 C1437 1.327 . S
C1439 C1455 1.429 . S
C1439 H1461 0.950 . S
C1440 H1436 0.949 . S
C1440 C1448 1.574 . S
C1440 C1456 1.368 . S
H1441 C1449 0.950 . S
H1442 C1447 0.950 . S
H1443 C1448 0.949 . S
H1444 C1450 0.950 . S
H1445 C1451 0.950 . S
H1446 C1452 0.949 . S
C1447 H1442 0.950 . S
C1447 C1449 1.327 . S
C1447 C1453 1.429 . S
C1448 C1440 1.574 . S
C1448 H1443 0.949 . S
C1448 C1454 1.368 . S
C1449 C1433 1.349 . S
C1449 H1441 0.950 . S
C1449 C1447 1.327 . S
C1450 C1438 1.349 . S
C1450 H1444 0.950 . S
C1450 C1451 1.327 . S
C1451 H1445 0.950 . S
C1451 C1450 1.327 . S
C1451 C1455 1.429 . S
C1452 C1435 1.574 . S
C1452 H1446 0.949 . S
C1452 C1456 1.368 . S
C1453 C1434 1.429 . S
C1453 C1447 1.429 . S
C1453 C1454 1.523 . S
C1454 C1435 1.368 . S
C1454 C1448 1.368 . S
C1454 C1453 1.523 . S
C1455 C1439 1.429 . S
C1455 C1451 1.429 . S
C1455 C1456 1.523 . S
C1456 C1440 1.368 . S
C1456 C1452 1.368 . S
C1456 C1455 1.523 . S
H1457 C1432 0.950 . S
H1458 C1434 0.950 . S
H1459 C1435 0.949 . S
H1460 C1437 0.950 . S
H1461 C1439 0.950 . S
C1462 C1463 1.349 . S
C1462 C1464 1.327 . S
C1462 H1487 0.950 . S
C1463 C1462 1.349 . S
C1463 C1479 1.349 . S
C1464 C1462 1.327 . S
C1464 C1483 1.429 . S
C1464 H1488 0.950 . S
C1465 C1482 1.574 . S
C1465 C1484 1.368 . S
C1465 H1489 0.949 . S
H1466 C1470 0.949 . S
C1467 C1468 1.349 . S
C1467 C1469 1.327 . S
C1467 H1490 0.950 . S
C1468 C1467 1.349 . S
C1468 C1480 1.349 . S
C1469 C1467 1.327 . S
C1469 C1485 1.429 . S
C1469 H1491 0.950 . S
C1470 H1466 0.949 . S
C1470 C1478 1.574 . S
C1470 C1486 1.368 . S
H1471 C1479 0.950 . S
H1472 C1477 0.950 . S
H1473 C1478 0.949 . S
H1474 C1480 0.950 . S
H1475 C1481 0.950 . S
H1476 C1482 0.949 . S
C1477 H1472 0.950 . S
C1477 C1479 1.327 . S
C1477 C1483 1.429 . S
C1478 C1470 1.574 . S
C1478 H1473 0.949 . S
C1478 C1484 1.368 . S
C1479 C1463 1.349 . S
C1479 H1471 0.950 . S
C1479 C1477 1.327 . S
C1480 C1468 1.349 . S
C1480 H1474 0.950 . S
C1480 C1481 1.327 . S
C1481 H1475 0.950 . S
C1481 C1480 1.327 . S
C1481 C1485 1.429 . S
C1482 C1465 1.574 . S
C1482 H1476 0.949 . S
C1482 C1486 1.368 . S
C1483 C1464 1.429 . S
C1483 C1477 1.429 . S
C1483 C1484 1.523 . S
C1484 C1465 1.368 . S
C1484 C1478 1.368 . S
C1484 C1483 1.523 . S
C1485 C1469 1.429 . S
C1485 C1481 1.429 . S
C1485 C1486 1.523 . S
C1486 C1470 1.368 . S
C1486 C1482 1.368 . S
C1486 C1485 1.523 . S
H1487 C1462 0.950 . S
H1488 C1464 0.950 . S
H1489 C1465 0.949 . S
H1490 C1467 0.950 . S
H1491 C1469 0.950 . S
C1492 C1493 1.349 . S
C1492 C1494 1.327 . S
C1492 H1517 0.950 . S
C1493 C1492 1.349 . S
C1493 C1509 1.349 . S
C1494 C1492 1.327 . S
C1494 C1513 1.429 . S
C1494 H1518 0.950 . S
C1495 C1512 1.574 . S
C1495 C1514 1.368 . S
C1495 H1519 0.949 . S
H1496 C1500 0.949 . S
C1497 C1498 1.349 . S
C1497 C1499 1.327 . S
C1497 H1520 0.950 . S
C1498 C1497 1.349 . S
C1498 C1510 1.349 . S
C1499 C1497 1.327 . S
C1499 C1515 1.429 . S
C1499 H1521 0.950 . S
C1500 H1496 0.949 . S
C1500 C1508 1.574 . S
C1500 C1516 1.368 . S
H1501 C1509 0.950 . S
H1502 C1507 0.950 . S
H1503 C1508 0.949 . S
H1504 C1510 0.950 . S
H1505 C1511 0.950 . S
H1506 C1512 0.949 . S
C1507 H1502 0.950 . S
C1507 C1509 1.327 . S
C1507 C1513 1.429 . S
C1508 C1500 1.574 . S
C1508 H1503 0.949 . S
C1508 C1514 1.368 . S
C1509 C1493 1.349 . S
C1509 H1501 0.950 . S
C1509 C1507 1.327 . S
C1510 C1498 1.349 . S
C1510 H1504 0.950 . S
C1510 C1511 1.327 . S
C1511 H1505 0.950 . S
C1511 C1510 1.327 . S
C1511 C1515 1.429 . S
C1512 C1495 1.574 . S
C1512 H1506 0.949 . S
C1512 C1516 1.368 . S
C1513 C1494 1.429 . S
C1513 C1507 1.429 . S
C1513 C1514 1.523 . S
C1514 C1495 1.368 . S
C1514 C1508 1.368 . S
C1514 C1513 1.523 . S
C1515 C1499 1.429 . S
C1515 C1511 1.429 . S
C1515 C1516 1.523 . S
C1516 C1500 1.368 . S
C1516 C1512 1.368 . S
C1516 C1515 1.523 . S
H1517 C1492 0.950 . S
H1518 C1494 0.950 . S
H1519 C1495 0.949 . S
H1520 C1497 0.950 . S
H1521 C1499 0.950 . S
C1522 C1523 1.349 . S
C1522 C1524 1.327 . S
C1522 H1547 0.950 . S
C1523 C1522 1.349 . S
C1523 C1539 1.349 . S
C1524 C1522 1.327 . S
C1524 C1543 1.429 . S
C1524 H1548 0.950 . S
C1525 C1542 1.574 . S
C1525 C1544 1.368 . S
C1525 H1549 0.949 . S
H1526 C1530 0.949 . S
C1527 C1528 1.349 . S
C1527 C1529 1.327 . S
C1527 H1550 0.950 . S
C1528 C1527 1.349 . S
C1528 C1540 1.349 . S
C1529 C1527 1.327 . S
C1529 C1545 1.429 . S
C1529 H1551 0.950 . S
C1530 H1526 0.949 . S
C1530 C1538 1.574 . S
C1530 C1546 1.368 . S
H1531 C1539 0.950 . S
H1532 C1537 0.950 . S
H1533 C1538 0.949 . S
H1534 C1540 0.950 . S
H1535 C1541 0.950 . S
H1536 C1542 0.949 . S
C1537 H1532 0.950 . S
C1537 C1539 1.327 . S
C1537 C1543 1.429 . S
C1538 C1530 1.574 . S
C1538 H1533 0.949 . S
C1538 C1544 1.368 . S
C1539 C1523 1.349 . S
C1539 H1531 0.950 . S
C1539 C1537 1.327 . S
C1540 C1528 1.349 . S
C1540 H1534 0.950 . S
C1540 C1541 1.327 . S
C1541 H1535 0.950 . S
C1541 C1540 1.327 . S
C1541 C1545 1.429 . S
C1542 C1525 1.574 . S
C1542 H1536 0.949 . S
C1542 C1546 1.368 . S
C1543 C1524 1.429 . S
C1543 C1537 1.429 . S
C1543 C1544 1.523 . S
C1544 C1525 1.368 . S
C1544 C1538 1.368 . S
C1544 C1543 1.523 . S
C1545 C1529 1.429 . S
C1545 C1541 1.429 . S
C1545 C1546 1.523 . S
C1546 C1530 1.368 . S
C1546 C1542 1.368 . S
C1546 C1545 1.523 . S
H1547 C1522 0.950 . S
H1548 C1524 0.950 . S
H1549 C1525 0.949 . S
H1550 C1527 0.950 . S
H1551 C1529 0.950 . S
C598 C197 1.502 . S
C593 C12 1.384 . S
C628 C250 1.315 . S
C623 C33 1.221 . S
C658 C313 1.545 . S
C653 C51 1.470 . S
C688 C356 1.290 . S
C683 C75 1.201 . S
C713 C103 1.479 . S
C718 C312 1.546 . S
C748 C349 1.330 . S
C743 C122 1.248 . S
C778 C190 1.488 . S
C773 C145 1.419 . S
C808 C243 1.254 . S
C803 C166 1.194 . S
C838 C296 1.546 . S
C833 C164 1.428 . S
C868 C365 1.829 . S
C863 C101 1.721 . S
C898 C206 1.583 . S
C893 C124 1.503 . S
C928 C259 1.765 . S
C923 C143 1.649 . S
C958 C207 1.585 . S
C953 C30 1.491 . S
C988 C260 1.822 . S
C983 C54 1.698 . S
C1018 C303 1.542 . S
C1013 C72 1.443 . S
C1048 C366 1.776 . S
C1043 C9 1.660 . S
C1078 C409 1.484 . S
C1073 C159 1.362 . S
C1103 C96 1.585 . S
C1108 C462 1.704 . S
C1133 C114 1.487 . S
C1138 C524 1.563 . S
C1163 C138 1.579 . S
C1168 C578 1.697 . S
C1193 C40 1.453 . S
C1198 C525 1.518 . S
C1223 C59 1.639 . S
C1228 C577 1.748 . S
C1253 C82 1.438 . S
C1258 C402 1.507 . S
C1288 C455 1.644 . S
C1283 C19 1.556 . S
C1318 C515 1.522 . S
C1313 C17 1.406 . S
C1343 C38 1.295 . S
C1348 C561 1.392 . S
C1373 C61 1.525 . S
C1378 C418 1.602 . S
C1403 C80 1.282 . S
C1408 C471 1.367 . S
C1438 C419 1.561 . S
C1433 C93 1.464 . S
C1468 C472 1.425 . S
C1463 C117 1.333 . S
C1493 C135 1.460 . S
C1498 C508 1.558 . S
C1528 C568 1.338 . S
C1523 C156 1.248 . S
