# Generated by pormake.
# Topology zzz, (3,6)-cn, num edge types: 1
# Building blocks:
#     Node 0, Type 0, BuildingBlock: QEWDON_clean_linker_0, # of connection points: 3
#     Node 1, Type 0, BuildingBlock: QEWDON_clean_linker_0, # of connection points: 3
#     Node 2, Type 0, BuildingBlock: QEWDON_clean_linker_0, # of connection points: 3
#     Node 3, Type 0, BuildingBlock: QEWDON_clean_linker_0, # of connection points: 3
#     Node 4, Type 0, BuildingBlock: QEWDON_clean_linker_0, # of connection points: 3
#     Node 5, Type 0, BuildingBlock: QEWDON_clean_linker_0, # of connection points: 3
#     Node 6, Type 0, BuildingBlock: QEWDON_clean_linker_0, # of connection points: 3
#     Node 7, Type 0, BuildingBlock: QEWDON_clean_linker_0, # of connection points: 3
#     Node 8, Type 1, BuildingBlock: PAMTOO_clean_sbu_0, # of connection points: 6
#     Node 9, Type 1, BuildingBlock: PAMTOO_clean_sbu_0, # of connection points: 6
#     Node 10, Type 1, BuildingBlock: PAMTOO_clean_sbu_0, # of connection points: 6
#     Node 11, Type 1, BuildingBlock: PAMTOO_clean_sbu_0, # of connection points: 6
#     Edge 12, Type (0, 1), BuildingBlock: ZUJKAS_clean_linker_0, # of connection points: 2
#     Edge 13, Type (0, 1), BuildingBlock: ZUJKAS_clean_linker_0, # of connection points: 2
#     Edge 14, Type (0, 1), BuildingBlock: ZUJKAS_clean_linker_0, # of connection points: 2
#     Edge 15, Type (0, 1), BuildingBlock: ZUJKAS_clean_linker_0, # of connection points: 2
#     Edge 16, Type (0, 1), BuildingBlock: ZUJKAS_clean_linker_0, # of connection points: 2
#     Edge 17, Type (0, 1), BuildingBlock: ZUJKAS_clean_linker_0, # of connection points: 2
#     Edge 18, Type (0, 1), BuildingBlock: ZUJKAS_clean_linker_0, # of connection points: 2
#     Edge 19, Type (0, 1), BuildingBlock: ZUJKAS_clean_linker_0, # of connection points: 2
#     Edge 20, Type (0, 1), BuildingBlock: ZUJKAS_clean_linker_0, # of connection points: 2
#     Edge 21, Type (0, 1), BuildingBlock: ZUJKAS_clean_linker_0, # of connection points: 2
#     Edge 22, Type (0, 1), BuildingBlock: ZUJKAS_clean_linker_0, # of connection points: 2
#     Edge 23, Type (0, 1), BuildingBlock: ZUJKAS_clean_linker_0, # of connection points: 2
#     Edge 24, Type (0, 1), BuildingBlock: ZUJKAS_clean_linker_0, # of connection points: 2
#     Edge 25, Type (0, 1), BuildingBlock: ZUJKAS_clean_linker_0, # of connection points: 2
#     Edge 26, Type (0, 1), BuildingBlock: ZUJKAS_clean_linker_0, # of connection points: 2
#     Edge 27, Type (0, 1), BuildingBlock: ZUJKAS_clean_linker_0, # of connection points: 2
#     Edge 28, Type (0, 1), BuildingBlock: ZUJKAS_clean_linker_0, # of connection points: 2
#     Edge 29, Type (0, 1), BuildingBlock: ZUJKAS_clean_linker_0, # of connection points: 2
#     Edge 30, Type (0, 1), BuildingBlock: ZUJKAS_clean_linker_0, # of connection points: 2
#     Edge 31, Type (0, 1), BuildingBlock: ZUJKAS_clean_linker_0, # of connection points: 2
#     Edge 32, Type (0, 1), BuildingBlock: ZUJKAS_clean_linker_0, # of connection points: 2
#     Edge 33, Type (0, 1), BuildingBlock: ZUJKAS_clean_linker_0, # of connection points: 2
#     Edge 34, Type (0, 1), BuildingBlock: ZUJKAS_clean_linker_0, # of connection points: 2
#     Edge 35, Type (0, 1), BuildingBlock: ZUJKAS_clean_linker_0, # of connection points: 2
# Relax obj value: 0.129
# Max RMSD: 0.249
# Mean RMSD: 0.079
data_MOF--net-zzz--node1-PAMTOO_clean_sbu_0--node2-QEWDON_clean_linker_0--edge1-ZUJKAS_clean_linker_0
_symmetry_space_group_name_H-M    P1
_symmetry_Int_Tables_number       1
_symmetry_cell_setting            triclinic
loop_
_symmetry_equiv_pos_as_xyz
'x, y, z'
_cell_length_a     76.442547
_cell_length_b     68.499601
_cell_length_c     19.611413
_cell_angle_alpha  90.952835
_cell_angle_beta   81.460202
_cell_angle_gamma 87.020291
loop_
_atom_site_label
_atom_site_type_symbol
_atom_site_fract_x
_atom_site_fract_y
_atom_site_fract_z
_atom_type_partial_charge
H0 H 0.78642 0.53755 0.35214 0.0
C1 C 0.79573 0.5333 0.38642 0.0
C2 C 0.81271 0.54042 0.37371 0.0
C3 C 0.79094 0.52085 0.44191 0.0
H4 H 0.8383 0.54087 0.40691 0.0
C5 C 0.825 0.53574 0.41791 0.0
C6 C 0.82086 0.52338 0.47318 0.0
C7 C 0.80389 0.51578 0.48494 0.0
C8 C 0.77256 0.51332 0.45422 0.0
H9 H 0.80107 0.50567 0.52645 0.0
C10 C 0.7622 0.51142 0.4 0.0
C11 C 0.74467 0.50525 0.41289 0.0
C12 C 0.76487 0.50861 0.52129 0.0
H13 H 0.77187 0.51035 0.56486 0.0
C14 C 0.74774 0.50206 0.5339 0.0
H15 H 0.76769 0.51442 0.34741 0.0
C16 C 0.73771 0.50042 0.48045 0.0
H17 H 0.72428 0.49581 0.4924 0.0
H18 H 0.74206 0.49857 0.58587 0.0
H19 H 0.99778 0.73778 0.2695 0.0
C20 C 1.00108 0.74778 0.30841 0.0
C21 C 1.00357 0.76724 0.29087 0.0
C22 C 1.00221 0.74146 0.37581 0.0
H23 H 1.00927 0.7957 0.3269 0.0
C24 C 1.00721 0.78063 0.34076 0.0
C25 C 1.00825 0.77498 0.40825 0.0
C26 C 1.00569 0.75537 0.42595 0.0
C27 C 0.99923 0.72054 0.39313 0.0
H28 H 1.00677 0.75101 0.47803 0.0
C29 C 1.00365 0.70539 0.34246 0.0
C30 C 0.99934 0.68594 0.35633 0.0
C31 C 0.99108 0.7156 0.45922 0.0
H32 H 0.98712 0.72669 0.49923 0.0
C33 C 0.98732 0.69626 0.47404 0.0
H34 H 1.01051 0.70866 0.29196 0.0
C35 C 0.99126 0.68157 0.42308 0.0
H36 H 0.98754 0.66687 0.43561 0.0
H37 H 0.98091 0.69271 0.52497 0.0
H38 H 0.77492 0.00934 0.13311 0.0
C39 C 0.76526 0.00886 0.17932 0.0
C40 C 0.74845 0.01827 0.18001 0.0
C41 C 0.76933 0.99832 0.23676 0.0
H42 H 0.72229 0.02342 0.23758 0.0
C43 C 0.73554 0.01699 0.23827 0.0
C44 C 0.73888 0.00629 0.29539 0.0
C45 C 0.75583 0.99708 0.29481 0.0
C46 C 0.78718 0.98766 0.23429 0.0
H47 H 0.75838 0.9891 0.33978 0.0
C48 C 0.8029 0.99458 0.19623 0.0
C49 C 0.81947 0.98413 0.19465 0.0
C50 C 0.7885 0.96995 0.26913 0.0
H51 H 0.77689 0.96363 0.29653 0.0
C52 C 0.80479 0.95973 0.26791 0.0
H53 H 0.80243 0.00818 0.16909 0.0
C54 C 0.82011 0.96673 0.23134 0.0
H55 H 0.83251 0.95825 0.23059 0.0
H56 H 0.8055 0.94613 0.29497 0.0
H57 H 0.53562 0.73223 0.06527 0.0
C58 C 0.53586 0.7244 0.11271 0.0
C59 C 0.5268 0.70712 0.12251 0.0
C60 C 0.5458 0.73106 0.16282 0.0
H61 H 0.52136 0.6826 0.18759 0.0
C62 C 0.52771 0.69641 0.18212 0.0
C63 C 0.53793 0.70227 0.23155 0.0
C64 C 0.54682 0.7197 0.22207 0.0
C65 C 0.556 0.74909 0.15162 0.0
H66 H 0.55453 0.72433 0.2609 0.0
C67 C 0.54912 0.76592 0.12137 0.0
C68 C 0.55885 0.78294 0.11324 0.0
C69 C 0.57295 0.74949 0.1714 0.0
H70 H 0.57893 0.73675 0.19272 0.0
C71 C 0.5826 0.76621 0.16302 0.0
H72 H 0.53607 0.76601 0.10599 0.0
C73 C 0.5756 0.78283 0.13457 0.0
H74 H 0.58347 0.79556 0.12817 0.0
H75 H 0.59562 0.76626 0.17844 0.0
H76 H 0.25582 0.48617 0.18601 0.0
C77 C 0.24685 0.48787 0.14855 0.0
C78 C 0.22875 0.48948 0.17333 0.0
C79 C 0.25317 0.48822 0.07731 0.0
H80 H 0.20246 0.49185 0.14739 0.0
C81 C 0.21649 0.49069 0.12718 0.0
C82 C 0.22204 0.49102 0.05578 0.0
C83 C 0.24044 0.4898 0.03096 0.0
C84 C 0.2729 0.48672 0.05277 0.0
H85 H 0.24465 0.49067 0.97602 0.0
C86 C 0.28532 0.49193 0.09656 0.0
C87 C 0.3038 0.4888 0.07581 0.0
C88 C 0.27962 0.47913 0.98634 0.0
H89 H 0.27092 0.47442 0.95133 0.0
C90 C 0.29784 0.47692 0.96428 0.0
H91 H 0.28076 0.49809 0.1475 0.0
C92 C 0.30981 0.4816 0.0084 0.0
H93 H 0.32384 0.47954 0.98946 0.0
H94 H 0.30274 0.47116 0.91285 0.0
H95 H 0.02135 0.27698 0.17899 0.0
C96 C 0.02589 0.26572 0.14008 0.0
C97 C 0.02322 0.24623 0.1571 0.0
C98 C 0.03363 0.27062 0.07303 0.0
H99 H 0.02625 0.21628 0.12035 0.0
C100 C 0.02824 0.23141 0.10709 0.0
C101 C 0.03575 0.23573 0.04013 0.0
C102 C 0.03851 0.25531 0.02301 0.0
C103 C 0.03596 0.29167 0.05535 0.0
H104 H 0.04466 0.2584 0.97128 0.0
C105 C 0.03839 0.30582 0.10622 0.0
C106 C 0.0391 0.32584 0.09088 0.0
C107 C 0.03493 0.29801 0.98804 0.0
H108 H 0.03261 0.28792 0.94773 0.0
C109 C 0.03632 0.31768 0.97197 0.0
H110 H 0.03935 0.30141 0.1583 0.0
C111 C 0.03831 0.33151 0.02283 0.0
H112 H 0.03917 0.3467 0.00883 0.0
H113 H 0.03553 0.3223 0.91994 0.0
H114 H 0.2763 1.00013 0.30727 0.0
C115 C 0.28633 0.00468 0.26658 0.0
C116 C 0.30346 0.00718 0.28154 0.0
C117 C 0.28233 0.00746 0.19927 0.0
H118 H 0.33024 0.01318 0.24026 0.0
C119 C 0.31684 0.01213 0.22895 0.0
C120 C 0.31362 0.01435 0.16116 0.0
C121 C 0.2963 0.01216 0.14645 0.0
C122 C 0.26391 0.00447 0.18386 0.0
H123 H 0.29381 0.0143 0.09412 0.0
C124 C 0.24857 0.00843 0.23398 0.0
C125 C 0.23141 0.00527 0.21838 0.0
C126 C 0.26157 0.99705 0.11863 0.0
H127 H 0.2728 0.99312 0.07953 0.0
C128 C 0.2447 0.99404 0.10305 0.0
H129 H 0.24984 0.01431 0.28448 0.0
C130 C 0.22978 0.99813 0.15218 0.0
H131 H 0.21689 0.9953 0.13869 0.0
H132 H 0.24319 0.98828 0.05265 0.0
H133 H 0.53207 0.26523 0.35242 0.0
C134 C 0.52729 0.27449 0.31411 0.0
C135 C 0.52378 0.29455 0.3292 0.0
C136 C 0.52524 0.26663 0.24892 0.0
H137 H 0.51643 0.32243 0.28986 0.0
C138 C 0.51833 0.30681 0.27907 0.0
C139 C 0.51685 0.29961 0.21329 0.0
C140 C 0.52016 0.27949 0.19841 0.0
C141 C 0.52932 0.24531 0.23221 0.0
H142 H 0.51876 0.27399 0.14753 0.0
C143 C 0.52532 0.23081 0.28211 0.0
C144 C 0.52898 0.21076 0.26468 0.0
C145 C 0.53746 0.2393 0.16547 0.0
H146 H 0.54128 0.24989 0.12641 0.0
C147 C 0.5411 0.21955 0.14826 0.0
H148 H 0.51897 0.235 0.33375 0.0
C149 C 0.53685 0.20538 0.19718 0.0
H150 H 0.54002 0.19014 0.18249 0.0
H151 H 0.54737 0.21519 0.09671 0.0
Dy152 Dy 0.01716 0.0127 0.65609 0.0
Dy153 Dy 0.03512 0.99697 0.78602 0.0
C154 C 0.05933 0.00728 0.64438 0.0
O155 O 0.02274 0.9806 0.63268 0.0
O156 O 0.0229 0.9713 0.74412 0.0
O157 O 0.01778 0.01924 0.54823 0.0
O158 O 0.9941 0.0263 0.62138 0.0
O159 O 1.00666 0.00544 0.82781 0.0
O160 O 0.99507 1.00069 0.72864 0.0
O161 O 0.04099 0.02858 0.78367 0.0
O162 O 0.01832 0.03867 0.72597 0.0
O163 O 0.03536 0.99401 0.89567 0.0
O164 O 0.05583 0.9792 0.82216 0.0
C165 C 0.02217 0.96694 0.67923 0.0
O166 O 0.04601 0.01831 0.62853 0.0
O167 O 0.05698 0.99521 0.69582 0.0
C168 C 1.00277 0.04994 0.54186 0.0
C169 C 1.00062 0.09081 0.52754 0.0
C170 C 1.01528 0.08156 0.55164 0.0
C171 C 0.0163 0.06134 0.55906 0.0
C172 C 0.98825 0.059 0.51681 0.0
C173 C 0.98718 0.07929 0.50958 0.0
C174 C 1.0026 0.02928 0.5602 0.0
C175 C 0.99297 1.0027 0.79608 0.0
C176 C 0.03072 0.04258 0.76314 0.0
C177 C 0.04299 0.96076 0.91229 0.0
C178 C 0.03543 0.92122 0.92958 0.0
C179 C 0.02194 0.93523 0.92072 0.0
C180 C 0.02569 0.95479 0.91188 0.0
C181 C 0.05633 0.94698 0.92421 0.0
C182 C 0.05258 0.92733 0.93285 0.0
C183 C 0.04774 0.97997 0.88546 0.0
H184 H 0.02599 0.08992 0.56494 0.0
H185 H 0.02746 0.05466 0.57999 0.0
H186 H 0.97749 0.05048 0.50494 0.0
H187 H 0.9756 0.08598 0.49167 0.0
H188 H 1.00865 0.93094 0.91726 0.0
H189 H 1.01525 0.96504 0.90086 0.0
H190 H 0.06982 0.95123 0.92332 0.0
H191 H 0.06317 0.91687 0.94064 0.0
Dy192 Dy 0.52034 0.99129 0.66729 0.0
Dy193 Dy 0.53349 0.01328 0.79782 0.0
C194 C 0.5237 0.03711 0.67021 0.0
O195 O 0.54893 0.99604 0.62824 0.0
O196 O 0.55845 1.00112 0.73269 0.0
O197 O 0.51386 0.99084 0.56361 0.0
O198 O 0.50951 0.96568 0.62791 0.0
O199 O 0.52677 0.98296 0.83 0.0
O200 O 0.53375 0.96828 0.72381 0.0
O201 O 0.5039 0.01908 0.81722 0.0
O202 O 0.49691 0.99354 0.75113 0.0
O203 O 0.54372 0.01144 0.89438 0.0
O204 O 0.53952 0.03968 0.85024 0.0
C205 C 0.56178 0.99794 0.66547 0.0
O206 O 0.51316 0.02321 0.65962 0.0
O207 O 0.53561 0.0343 0.71125 0.0
C208 C 0.48713 0.97525 0.56503 0.0
C209 C 0.45039 0.975 0.56239 0.0
C210 C 0.45727 0.98897 0.6029 0.0
C211 C 0.47545 0.98911 0.60409 0.0
C212 C 0.48042 0.96129 0.5244 0.0
C213 C 0.46217 0.96119 0.52289 0.0
C214 C 0.50596 0.97444 0.57274 0.0
C215 C 0.53113 0.96714 0.7912 0.0
C216 C 0.4922 0.00746 0.79819 0.0
C217 C 0.56576 0.03403 0.89806 0.0
C218 C 0.60157 0.0424 0.89742 0.0
C219 C 0.59713 0.02472 0.86876 0.0
C220 C 0.57946 0.02061 0.86896 0.0
C221 C 0.57006 0.05174 0.92657 0.0
C222 C 0.58783 0.05589 0.92643 0.0
C223 C 0.54715 0.02987 0.89512 0.0
H224 H 0.44857 0.99961 0.63473 0.0
H225 H 0.48037 0.99984 0.63664 0.0
H226 H 0.48925 0.95035 0.49461 0.0
H227 H 0.4573 0.95039 0.49051 0.0
H228 H 0.60731 0.01381 0.84724 0.0
H229 H 0.57654 0.00685 0.84632 0.0
H230 H 0.55969 0.06238 0.94857 0.0
H231 H 0.59081 0.0697 0.94855 0.0
Dy232 Dy 0.5483 0.5046 0.75329 0.0
Dy233 Dy 0.50923 0.49906 0.69133 0.0
C234 C 0.52045 0.47493 0.8228 0.0
O235 O 0.54986 0.47541 0.70053 0.0
O236 O 0.53128 0.48273 0.62282 0.0
O237 O 0.57351 0.49224 0.77451 0.0
O238 O 0.56776 0.52346 0.78567 0.0
O239 O 0.51949 0.52651 0.64704 0.0
O240 O 0.54916 0.52053 0.65306 0.0
O241 O 0.50358 0.52509 0.76321 0.0
O242 O 0.52913 0.52616 0.81418 0.0
O243 O 0.48053 0.49664 0.70249 0.0
O244 O 0.49711 0.491 0.60357 0.0
C245 C 0.54306 0.47091 0.64533 0.0
O246 O 0.53241 0.48737 0.83361 0.0
O247 O 0.51194 0.47584 0.76903 0.0
C248 C 0.59012 0.50975 0.84744 0.0
C249 C 0.6139 0.50942 0.94627 0.0
C250 C 0.59888 0.49801 0.95496 0.0
C251 C 0.58714 0.49813 0.90599 0.0
C252 C 0.60482 0.52138 0.83936 0.0
C253 C 0.61655 0.5212 0.88782 0.0
C254 C 0.57922 0.50902 0.79091 0.0
C255 C 0.53612 0.53072 0.63057 0.0
C256 C 0.51308 0.53285 0.80656 0.0
C257 C 0.4664 0.49904 0.59954 0.0
C258 C 0.43845 0.50432 0.51924 0.0
C259 C 0.4561 0.50735 0.49088 0.0
C260 C 0.46988 0.50476 0.53041 0.0
C261 C 0.44869 0.49688 0.62884 0.0
C262 C 0.43488 0.49959 0.58938 0.0
C263 C 0.48102 0.49206 0.63719 0.0
H264 H 0.59618 0.48893 0.99955 0.0
H265 H 0.57592 0.48896 0.91339 0.0
H266 H 0.60752 0.53029 0.79424 0.0
H267 H 0.62803 0.52992 0.87811 0.0
H268 H 0.45935 0.51131 0.43744 0.0
H269 H 0.48334 0.50647 0.50578 0.0
H270 H 0.44557 0.49218 0.68152 0.0
H271 H 0.4215 0.497 0.61297 0.0
Dy272 Dy 0.03212 0.51986 0.67486 0.0
Dy273 Dy 0.01904 0.48743 0.78804 0.0
C274 C 0.03225 0.4739 0.62886 0.0
O275 O 1.00528 0.51339 0.65096 0.0
O276 O 0.99473 0.50331 0.75907 0.0
O277 O 0.04906 0.52812 0.58317 0.0
O278 O 0.03211 0.55012 0.64438 0.0
O279 O 0.02254 0.51462 0.84798 0.0
O280 O 0.01745 0.5366 0.76653 0.0
O281 O 0.04858 0.48286 0.7741 0.0
O282 O 0.05425 0.51371 0.73694 0.0
O283 O 0.01754 0.47571 0.89041 0.0
O284 O 1.00207 0.46382 0.81751 0.0
C285 C 0.99199 0.50893 0.6975 0.0
O286 O 0.03628 0.49184 0.61255 0.0
O287 O 0.02542 0.46925 0.69154 0.0
C288 C 0.06158 0.55739 0.60328 0.0
C289 C 0.0971 0.56451 0.6113 0.0
C290 C 0.09062 0.56558 0.54776 0.0
C291 C 0.07298 0.56197 0.54381 0.0
C292 C 0.06745 0.55862 0.66777 0.0
C293 C 0.08508 0.56223 0.67177 0.0
C294 C 0.04574 0.54675 0.59648 0.0
C295 C 0.01854 0.53251 0.83083 0.0
C296 C 0.05943 0.49711 0.7626 0.0
C297 C 0.98699 0.47211 0.92806 0.0
C298 C 0.95508 0.49307 0.98159 0.0
C299 C 0.97102 0.49753 0.00435 0.0
C300 C 0.98682 0.48714 0.97798 0.0
C301 C 0.97076 0.46634 0.91091 0.0
C302 C 0.95496 0.4768 0.93711 0.0
C303 C 1.00366 0.46607 0.88246 0.0
H304 H 0.09954 0.5671 0.50003 0.0
H305 H 0.06875 0.56089 0.49361 0.0
H306 H 0.05887 0.55501 0.71442 0.0
H307 H 0.08966 0.56149 0.7214 0.0
H308 H 0.97142 0.50961 0.04032 0.0
H309 H 0.99902 0.4919 0.99303 0.0
H310 H 0.97045 0.45479 0.87275 0.0
H311 H 0.94287 0.47294 0.91888 0.0
H312 H 0.2004 0.02478 0.2002 0.0
H313 H 0.1722 0.02677 0.2778 0.0
H314 H 0.19654 0.99487 0.43003 0.0
H315 H 0.22498 0.9932 0.35265 0.0
H316 H 0.15266 0.99749 0.32254 0.0
H317 H 0.16916 0.03722 0.55096 0.0
H318 H 0.18371 0.03585 0.46946 0.0
H319 H 0.18329 0.0157 0.52729 0.0
C320 C 0.19984 0.01845 0.25068 0.0
C321 C 0.215 0.00883 0.27014 0.0
C322 C 0.18365 0.01957 0.29509 0.0
C323 C 0.18209 0.0111 0.36036 0.0
C324 C 0.19735 1.00193 0.38079 0.0
H325 H 0.09056 0.98892 0.66866 0.0
H326 H 0.12004 0.99011 0.60065 0.0
C327 C 0.21365 1.00096 0.33642 0.0
C328 C 0.16425 0.0108 0.40424 0.0
H329 H 0.14119 0.02282 0.56424 0.0
C330 C 0.15019 1.00316 0.37524 0.0
C331 C 0.16086 0.0181 0.47333 0.0
C332 C 0.175 0.02735 0.50698 0.0
C333 C 0.13307 1.00244 0.41312 0.0
C334 C 0.12969 0.00973 0.48206 0.0
C335 C 0.14373 0.01724 0.51142 0.0
C336 C 0.11171 0.00954 0.52439 0.0
C337 C 0.1188 0.99347 0.37938 0.0
C338 C 0.09712 0.02029 0.50501 0.0
C339 C 0.08019 0.01969 0.54399 0.0
C340 C 0.07739 0.00831 0.6034 0.0
C341 C 0.0921 0.99778 0.62315 0.0
C342 C 0.10904 0.99848 0.58435 0.0
H343 H 0.12441 0.98445 0.3329 0.0
H344 H 0.11064 0.98418 0.41601 0.0
H345 H 0.10994 0.0053 0.36317 0.0
H346 H 0.09884 0.02919 0.45963 0.0
H347 H 0.06926 0.02807 0.52723 0.0
H348 H 0.51164 0.17758 0.24872 0.0
H349 H 0.50857 0.14975 0.32514 0.0
H350 H 0.53518 0.18013 0.47091 0.0
H351 H 0.53786 0.20829 0.39498 0.0
H352 H 0.53468 0.12713 0.3604 0.0
H353 H 0.49517 0.15908 0.59975 0.0
H354 H 0.49748 0.17173 0.51918 0.0
H355 H 0.51481 0.17181 0.57207 0.0
C356 C 0.51656 0.17846 0.29766 0.0
C357 C 0.525 0.19514 0.31585 0.0
C358 C 0.51482 0.16252 0.34132 0.0
C359 C 0.52152 0.16277 0.40427 0.0
C360 C 0.52952 0.17966 0.42352 0.0
H361 H 0.54087 0.07047 0.68974 0.0
H362 H 0.53984 0.10102 0.62689 0.0
C363 C 0.53109 0.19576 0.38002 0.0
C364 C 0.5213 0.14476 0.44642 0.0
H365 H 0.50848 0.12706 0.60738 0.0
C366 C 0.52882 0.12715 0.41427 0.0
C367 C 0.51374 0.14468 0.51694 0.0
C368 C 0.50469 0.16279 0.55391 0.0
C369 C 0.52913 0.10962 0.45048 0.0
C370 C 0.52163 0.10956 0.52085 0.0
C371 C 0.51422 0.12713 0.55338 0.0
C372 C 0.52149 0.09133 0.56123 0.0
C373 C 0.53775 0.0913 0.41348 0.0
C374 C 0.51129 0.07581 0.54595 0.0
C375 C 0.51177 0.05833 0.58199 0.0
C376 C 0.52253 0.05597 0.63395 0.0
C377 C 0.53249 0.07171 0.64988 0.0
C378 C 0.5319 0.08923 0.61415 0.0
H379 H 0.54592 0.09454 0.36366 0.0
H380 H 0.54626 0.08329 0.44614 0.0
H381 H 0.52731 0.08151 0.40267 0.0
H382 H 0.50303 0.07718 0.50574 0.0
H383 H 0.50389 0.04657 0.56838 0.0
H384 H 0.33448 0.46714 0.08722 0.0
H385 H 0.35605 0.47261 0.16467 0.0
H386 H 0.32435 0.52282 0.25578 0.0
H387 H 0.30285 0.51798 0.17645 0.0
H388 H 0.37288 0.51461 0.18463 0.0
H389 H 0.33615 0.48047 0.41512 0.0
H390 H 0.33365 0.47267 0.32876 0.0
H391 H 0.32439 0.49608 0.3619 0.0
C392 C 0.33211 0.47957 0.1228 0.0
C393 C 0.31684 0.49219 0.12465 0.0
C394 C 0.34445 0.48256 0.16757 0.0
C395 C 0.34182 0.49809 0.2161 0.0
C396 C 0.32661 0.51068 0.21889 0.0
H397 H 0.40415 0.52009 0.5502 0.0
H398 H 0.38065 0.52016 0.47751 0.0
C399 C 0.31426 0.50779 0.17364 0.0
C400 C 0.35516 0.50106 0.26306 0.0
H401 H 0.36443 0.49122 0.42472 0.0
C402 C 0.37101 0.50961 0.23728 0.0
C403 C 0.35265 0.4947 0.33184 0.0
C404 C 0.33584 0.48541 0.36163 0.0
C405 C 0.38449 0.51183 0.27823 0.0
C406 C 0.38233 0.50473 0.34641 0.0
C407 C 0.36623 0.49659 0.37258 0.0
C408 C 0.39677 0.50506 0.39046 0.0
C409 C 0.40078 0.52204 0.2481 0.0
C410 C 0.41368 0.49636 0.36662 0.0
C411 C 0.42716 0.49642 0.4079 0.0
C412 C 0.42407 0.50493 0.47478 0.0
C413 C 0.40704 0.51338 0.49911 0.0
C414 C 0.39357 0.51345 0.45746 0.0
H415 H 0.3979 0.53215 0.20695 0.0
H416 H 0.40617 0.53051 0.28827 0.0
H417 H 0.41112 0.51098 0.22451 0.0
H418 H 0.41643 0.48918 0.31628 0.0
H419 H 0.43994 0.48935 0.38791 0.0
H420 H 0.02088 0.36143 0.10929 0.0
H421 H 0.02164 0.38623 0.19941 0.0
H422 H 0.05883 0.34919 0.29012 0.0
H423 H 0.05861 0.32446 0.19847 0.0
H424 H 1.01219 0.38305 0.33908 0.0
H425 H 0.08258 0.40147 0.27805 0.0
H426 H 0.0716 0.38783 0.21884 0.0
H427 H 0.07933 0.37591 0.29059 0.0
C428 C 0.02949 0.35864 0.14761 0.0
C429 C 0.03981 0.34096 0.14607 0.0
C430 C 0.02979 0.37281 0.1995 0.0
C431 C 0.04047 0.36973 0.2511 0.0
C432 C 0.05074 0.35208 0.25016 0.0
H433 H 0.02631 0.43493 0.64263 0.0
H434 H 0.02897 0.40965 0.55194 0.0
C435 C 0.05044 0.33785 0.19813 0.0
C436 C 0.04023 0.38477 0.30702 0.0
H437 H 0.06621 0.41564 0.3809 0.0
C438 C 0.02401 0.39016 0.34821 0.0
C439 C 0.05561 0.39424 0.3184 0.0
C440 C 0.07325 0.38974 0.27382 0.0
C441 C 0.02275 0.40461 0.4007 0.0
C442 C 0.0382 0.41373 0.41328 0.0
C443 C 0.05441 0.40851 0.37166 0.0
C444 C 0.03767 0.42891 0.46886 0.0
C445 C 1.00479 0.41027 0.44127 0.0
C446 C 0.04228 0.44806 0.45277 0.0
C447 C 0.04087 0.46261 0.50472 0.0
C448 C 0.03489 0.45828 0.57395 0.0
C449 C 0.03082 0.43891 0.58998 0.0
C450 C 0.03225 0.4244 0.53807 0.0
H451 H 0.99387 0.40568 0.41403 0.0
H452 H 1.00349 0.40298 0.49173 0.0
H453 H 1.00316 0.42631 0.45119 0.0
H454 H 0.04658 0.45186 0.39975 0.0
H455 H 0.04417 0.47732 0.49034 0.0
H456 H 0.85143 0.98742 0.23888 0.0
H457 H 0.88003 0.99294 0.17 0.0
H458 H 0.85458 0.99978 0.98912 0.0
H459 H 0.82577 0.99467 0.05866 0.0
H460 H 0.89699 0.97054 0.06728 0.0
H461 H 0.88645 0.04468 0.96683 0.0
H462 H 0.87128 0.03497 0.03568 0.0
H463 H 0.87041 0.02805 0.94737 0.0
C464 C 0.85187 0.99047 0.18464 0.0
C465 C 0.83627 0.99064 0.15436 0.0
C466 C 0.86828 0.99357 0.14515 0.0
C467 C 0.86964 0.99691 0.07408 0.0
C468 C 0.85398 0.99768 0.04398 0.0
H469 H 0.96108 1.00129 0.74773 0.0
H470 H 0.93144 0.99993 0.81443 0.0
C471 C 0.83746 0.99474 0.0838 0.0
C472 C 0.88756 0.99815 0.03152 0.0
H473 H 0.91285 0.02653 0.91774 0.0
C474 C 0.90043 0.98288 0.03496 0.0
C475 C 0.8922 0.01415 0.98877 0.0
C476 C 0.87943 0.03148 0.98479 0.0
C477 C 0.91758 0.98306 0.9969 0.0
C478 C 0.92222 0.99905 0.9544 0.0
C479 C 0.90935 0.01426 0.95028 0.0
C480 C 0.94036 1.00021 0.914 0.0
C481 C 0.9305 0.96589 0.00154 0.0
C482 C 0.95536 1.00105 0.9475 0.0
C483 C 0.97238 1.00187 0.90945 0.0
C484 C 0.97486 1.00188 0.83682 0.0
C485 C 0.95977 1.00121 0.80347 0.0
C486 C 0.94275 1.0005 0.8416 0.0
H487 H 0.9237 0.95283 0.02238 0.0
H488 H 0.9382 0.96194 0.95015 0.0
H489 H 0.93997 0.96987 0.03655 0.0
H490 H 0.9539 1.00115 0.00328 0.0
H491 H 0.98361 1.00244 0.93707 0.0
H492 H 0.54519 0.78631 0.99182 0.0
H493 H 0.53787 0.81669 0.93422 0.0
H494 H 0.5501 0.85055 0.10653 0.0
H495 H 0.55746 0.82038 0.16397 0.0
H496 H 0.51666 0.86266 0.04621 0.0
H497 H 0.57891 0.85455 0.85792 0.0
H498 H 0.56538 0.83378 0.87077 0.0
H499 H 0.57641 0.84225 0.93928 0.0
C500 C 0.54599 0.80023 0.01784 0.0
C501 C 0.55198 0.80097 0.08223 0.0
C502 C 0.54194 0.81756 0.98474 0.0
C503 C 0.54363 0.83588 0.01583 0.0
C504 C 0.54878 0.83659 0.0815 0.0
H505 H 0.53106 0.95934 0.92803 0.0
H506 H 0.5334 0.92742 0.9809 0.0
C507 C 0.553 0.81935 0.11417 0.0
C508 C 0.54087 0.85436 0.97912 0.0
H509 H 0.56044 0.88269 0.8508 0.0
C510 C 0.52615 0.86702 0.00321 0.0
C511 C 0.55326 0.86 0.923 0.0
C512 C 0.56947 0.84707 0.89605 0.0
C513 C 0.52346 0.88517 0.97254 0.0
C514 C 0.53614 0.89112 0.91761 0.0
C515 C 0.55073 0.87825 0.89294 0.0
C516 C 0.5347 0.91066 0.88548 0.0
C517 C 0.50686 0.8976 0.99867 0.0
C518 C 0.53531 0.91207 0.81376 0.0
C519 C 0.53428 0.93036 0.78317 0.0
C520 C 0.5326 0.94773 0.82361 0.0
C521 C 0.53217 0.9463 0.89533 0.0
C522 C 0.53336 0.928 0.92579 0.0
H523 H 0.49617 0.88859 0.02386 0.0
H524 H 0.50982 0.90836 0.03772 0.0
H525 H 0.50188 0.9057 0.95624 0.0
H526 H 0.53647 0.89897 0.78132 0.0
H527 H 0.53465 0.93086 0.72781 0.0
H528 H 0.72322 0.47619 0.385 0.0
H529 H 0.70216 0.47635 0.30248 0.0
H530 H 0.71824 0.53318 0.23514 0.0
H531 H 0.73966 0.53284 0.31653 0.0
H532 H 0.67396 0.49966 0.29815 0.0
H533 H 0.71877 0.50688 0.05198 0.0
H534 H 0.72697 0.50126 0.13144 0.0
H535 H 0.72077 0.52613 0.11293 0.0
C536 C 0.72244 0.48863 0.35198 0.0
C537 C 0.73321 0.50448 0.35733 0.0
C538 C 0.71035 0.48872 0.30474 0.0
C539 C 0.70862 0.50467 0.26156 0.0
C540 C 0.71955 0.52043 0.2662 0.0
H541 H 0.63283 0.53943 0.98857 0.0
H542 H 0.65552 0.53786 0.06426 0.0
C543 C 0.73181 0.52025 0.31301 0.0
C544 C 0.69473 0.50519 0.2149 0.0
H545 H 0.68782 0.51205 0.04807 0.0
C546 C 0.67708 0.50222 0.24338 0.0
C547 C 0.69863 0.50854 0.14317 0.0
C548 C 0.71734 0.51068 0.10791 0.0
C549 C 0.66332 0.50281 0.20279 0.0
C550 C 0.66721 0.50639 0.13145 0.0
C551 C 0.68481 0.50937 0.1028 0.0
C552 C 0.65318 0.50719 0.08582 0.0
C553 C 0.64462 0.49999 0.2368 0.0
C554 C 0.64426 0.49045 0.07232 0.0
C555 C 0.63137 0.4912 0.02815 0.0
C556 C 0.62704 0.50875 0.99632 0.0
C557 C 0.63592 0.52554 0.01082 0.0
C558 C 0.64888 0.52472 0.05454 0.0
H559 H 0.64325 0.5013 0.29391 0.0
H560 H 0.63521 0.51086 0.21835 0.0
H561 H 0.64079 0.48519 0.223 0.0
H562 H 0.64749 0.47667 0.09505 0.0
H563 H 0.62514 0.47787 0.01765 0.0
H564 H 0.99506 0.68913 0.22022 0.0
H565 H 0.99855 0.66328 0.1309 0.0
H566 H 1.01371 0.6216 0.2766 0.0
H567 H 1.01059 0.6474 0.36604 0.0
H568 H 0.02868 0.63784 0.07913 0.0
H569 H 0.972 0.59676 0.20143 0.0
H570 H 0.97517 0.6217 0.22597 0.0
H571 H 0.9881 0.60194 0.2564 0.0
C572 C 0.99939 0.67454 0.2332 0.0
C573 C 1.00246 0.6704 0.3007 0.0
C574 C 1.00126 0.65974 0.18208 0.0
C575 C 1.00609 0.64043 0.19734 0.0
C576 C 1.00959 0.6363 0.26403 0.0
H577 H 0.02036 0.52957 0.96882 0.0
H578 H 0.01746 0.55594 0.05594 0.0
C579 C 1.00779 0.6511 0.31515 0.0
C580 C 1.00745 0.62463 0.1435 0.0
H581 H 0.98981 0.5818 0.10354 0.0
C582 C 0.02015 0.62562 0.08426 0.0
C583 C 0.99632 0.60868 0.15033 0.0
C584 C 0.98201 0.60719 0.21162 0.0
C585 C 0.02227 0.61089 0.03236 0.0
C586 C 1.0111 0.59494 0.03907 0.0
C587 C 0.99837 0.594 0.0983 0.0
C588 C 1.01255 0.57894 0.98573 0.0
C589 C 0.0368 0.61229 0.97179 0.0
C590 C 1.0104 0.58297 0.91735 0.0
C591 C 1.01213 0.5679 0.8672 0.0
C592 C 1.01589 0.54843 0.8845 0.0
C593 C 0.01756 0.54438 0.95345 0.0
C594 C 1.01588 0.55946 0.00346 0.0
H595 H 0.04711 0.62215 0.9836 0.0
H596 H 0.04326 0.59767 0.95612 0.0
H597 H 0.03104 0.61832 0.92736 0.0
H598 H 1.00736 0.59779 0.90268 0.0
H599 H 1.01064 0.57157 0.8148 0.0
H600 H 0.99525 0.22387 0.19202 0.0
H601 H 0.98739 0.2078 0.30099 0.0
H602 H 0.026 0.23984 0.38986 0.0
H603 H 0.03421 0.25573 0.27917 0.0
H604 H 0.03265 0.20204 0.396 0.0
H605 H 0.96193 0.21531 0.4926 0.0
H606 H 0.96414 0.20991 0.40204 0.0
H607 H 0.97376 0.23138 0.43206 0.0
C608 C 1.00163 0.22796 0.23552 0.0
C609 C 1.01545 0.24081 0.22728 0.0
C610 C 0.99698 0.21896 0.29823 0.0
C611 C 1.00595 0.22275 0.35415 0.0
C612 C 0.01879 0.23684 0.34764 0.0
H613 H 1.00998 0.11903 0.61464 0.0
H614 H 1.0105 0.15433 0.59616 0.0
C615 C 0.02345 0.24591 0.28457 0.0
C616 C 1.00448 0.20895 0.41188 0.0
H617 H 0.9739 0.18084 0.50157 0.0
C618 C 0.01987 0.19788 0.42161 0.0
C619 C 0.98786 0.2036 0.44597 0.0
C620 C 0.97105 0.21589 0.44307 0.0
C621 C 0.01883 0.18024 0.45681 0.0
C622 C 1.00199 0.17366 0.48302 0.0
C623 C 0.98678 0.18582 0.48036 0.0
C624 C 0.99983 0.15296 0.50018 0.0
C625 C 0.03558 0.16778 0.45959 0.0
C626 C 0.99338 0.14067 0.45287 0.0
C627 C 0.99328 0.12057 0.46261 0.0
C628 C 0.99955 0.11236 0.52017 0.0
C629 C 1.00537 0.12486 0.56904 0.0
C630 C 1.00555 0.14502 0.559 0.0
H631 H 0.0476 0.1748 0.43468 0.0
H632 H 0.03702 0.16503 0.51413 0.0
H633 H 0.03483 0.1534 0.4335 0.0
H634 H 0.98907 0.14657 0.4068 0.0
H635 H 0.98891 0.11141 0.42359 0.0
H636 H 0.3198 0.03072 0.36185 0.0
H637 H 0.33761 0.0197 0.4487 0.0
H638 H 0.31693 0.96243 0.44115 0.0
H639 H 0.29935 0.97336 0.3524 0.0
H640 H 0.33573 1.00025 0.57572 0.0
H641 H 0.3688 0.95387 0.35186 0.0
H642 H 0.35193 0.97259 0.34257 0.0
H643 H 0.34595 0.94999 0.38261 0.0
C644 C 0.31853 0.01601 0.38074 0.0
C645 C 0.3085 1.00277 0.34977 0.0
C646 C 0.32869 0.00972 0.43043 0.0
C647 C 0.32895 0.99011 0.44989 0.0
C648 C 0.31714 0.97754 0.42574 0.0
H649 H 0.42949 0.94358 0.56311 0.0
H650 H 0.39789 0.94401 0.55329 0.0
C651 C 0.30699 0.98383 0.37559 0.0
C652 C 0.34387 0.98245 0.4838 0.0
H653 H 0.38415 0.95778 0.44425 0.0
C654 C 0.34616 0.99057 0.54787 0.0
C655 C 0.35749 0.96983 0.44725 0.0
C656 C 0.35608 0.96111 0.37711 0.0
C657 C 0.36211 0.98729 0.57448 0.0
C658 C 0.37616 0.97588 0.53536 0.0
C659 C 0.37336 0.96656 0.47403 0.0
C660 C 0.39452 0.97555 0.55133 0.0
C661 C 0.36396 0.99662 0.64305 0.0
C662 C 0.40312 0.99311 0.55314 0.0
C663 C 0.42115 0.99291 0.55805 0.0
C664 C 0.43102 0.97511 0.56069 0.0
C665 C 0.42231 0.95752 0.56024 0.0
C666 C 0.40423 0.95774 0.55539 0.0
H667 H 0.35094 0.99837 0.67689 0.0
H668 H 0.37333 0.98787 0.67013 0.0
H669 H 0.36903 0.01141 0.6345 0.0
H670 H 0.39607 0.00699 0.5477 0.0
H671 H 0.42749 0.0067 0.55713 0.0
H672 H 0.50126 0.31665 0.42319 0.0
H673 H 0.51005 0.34216 0.49768 0.0
H674 H 0.5645 0.32023 0.4502 0.0
H675 H 0.55571 0.29478 0.37456 0.0
H676 H 0.53026 0.3476 0.6075 0.0
H677 H 0.56265 0.37351 0.35412 0.0
H678 H 0.54781 0.35379 0.36065 0.0
H679 H 0.56999 0.34971 0.3793 0.0
C680 C 0.51497 0.31673 0.43128 0.0
C681 C 0.52784 0.30392 0.39293 0.0
C682 C 0.52001 0.33134 0.47361 0.0
C683 C 0.53797 0.33335 0.47799 0.0
C684 C 0.55059 0.31906 0.44657 0.0
H685 H 0.56336 0.44081 0.68875 0.0
H686 H 0.56515 0.40654 0.65011 0.0
C687 C 0.54555 0.3044 0.40407 0.0
C688 C 0.54342 0.35209 0.50466 0.0
H689 H 0.56106 0.39488 0.44916 0.0
C690 C 0.53731 0.35784 0.57344 0.0
C691 C 0.55234 0.36551 0.45945 0.0
C692 C 0.5585 0.36048 0.38413 0.0
C693 C 0.53937 0.37688 0.59769 0.0
C694 C 0.54793 0.39039 0.55197 0.0
C695 C 0.55461 0.38441 0.484 0.0
C696 C 0.54844 0.41131 0.57145 0.0
C697 C 0.5315 0.38272 0.67082 0.0
C698 C 0.53913 0.42546 0.53782 0.0
C699 C 0.53817 0.44507 0.55931 0.0
C700 C 0.54658 0.45092 0.61476 0.0
C701 C 0.55669 0.43683 0.64593 0.0
C702 C 0.55762 0.41719 0.6244 0.0
H703 H 0.52262 0.37166 0.69533 0.0
H704 H 0.54234 0.38433 0.70204 0.0
H705 H 0.52387 0.39701 0.67235 0.0
H706 H 0.53205 0.4212 0.49649 0.0
H707 H 0.53028 0.4555 0.53413 0.0
H708 H 0.23553 0.519 0.2567 0.0
H709 H 0.21915 0.52819 0.37001 0.0
H710 H 0.19154 0.47474 0.3712 0.0
H711 H 0.20727 0.46617 0.25558 0.0
H712 H 0.16951 0.50387 0.38004 0.0
H713 H 0.21357 0.51868 0.5706 0.0
H714 H 0.22073 0.53129 0.49301 0.0
H715 H 0.22127 0.50492 0.49151 0.0
C716 C 0.22641 0.50893 0.28244 0.0
C717 C 0.22246 0.49201 0.2478 0.0
C718 C 0.21718 0.51407 0.34762 0.0
C719 C 0.20415 0.50211 0.37968 0.0
C720 C 0.20153 0.48419 0.34758 0.0
H721 H 0.11331 0.53634 0.67962 0.0
H722 H 0.14311 0.52199 0.64417 0.0
C723 C 0.21045 0.4793 0.28166 0.0
C724 C 0.19072 0.51032 0.43675 0.0
H725 H 0.18515 0.53811 0.58584 0.0
C726 C 0.17297 0.51083 0.42591 0.0
C727 C 0.19513 0.51959 0.49661 0.0
C728 C 0.21372 0.51839 0.51384 0.0
C729 C 0.1597 0.52118 0.47085 0.0
C730 C 0.1643 0.5316 0.52775 0.0
C731 C 0.18182 0.53037 0.54122 0.0
C732 C 0.15071 0.5443 0.5707 0.0
C733 C 0.14088 0.52159 0.45552 0.0
C734 C 0.14573 0.56242 0.54501 0.0
C735 C 0.12863 0.57071 0.5652 0.0
C736 C 0.1164 0.56092 0.61123 0.0
C737 C 0.12241 0.54434 0.64445 0.0
C738 C 0.1395 0.53606 0.62423 0.0
H739 H 0.13932 0.51128 0.41278 0.0
H740 H 0.13169 0.51776 0.50207 0.0
H741 H 0.13683 0.53655 0.44093 0.0
H742 H 0.15427 0.56892 0.50341 0.0
H743 H 0.12443 0.58363 0.53951 0.0
H744 H 0.02157 0.75122 0.17032 0.0
H745 H 0.02635 0.76739 0.05868 0.0
H746 H 0.98958 0.81477 0.14219 0.0
H747 H 0.98448 0.79851 0.25236 0.0
H748 H 0.99002 0.80751 0.99873 0.0
H749 H 0.05774 0.81371 0.06932 0.0
H750 H 0.05007 0.78979 0.05584 0.0
H751 H 0.04009 0.80452 0.1294 0.0
C752 C 1.01404 0.76472 0.16372 0.0
C753 C 1.00297 0.77392 0.22 0.0
C754 C 0.01684 0.77396 0.10021 0.0
C755 C 1.00864 0.79247 0.09286 0.0
C756 C 0.99611 0.80053 0.14685 0.0
H757 H 1.00679 0.90518 0.0026 0.0
H758 H 1.00111 0.87065 0.01411 0.0
C759 C 0.9933 0.79133 0.20994 0.0
C760 C 1.01515 0.80537 0.03605 0.0
H761 H 0.04798 0.83696 0.99705 0.0
C762 C 1.00292 0.81356 0.99639 0.0
C763 C 0.03208 0.81311 0.03249 0.0
C764 C 0.0458 0.80495 0.07401 0.0
C765 C 1.0065 0.83054 0.95898 0.0
C766 C 0.02255 0.8396 0.96251 0.0
C767 C 0.03559 0.83008 0.99515 0.0
C768 C 0.02477 0.86036 0.94536 0.0
C769 C 0.99263 0.83926 0.91952 0.0
C770 C 0.04012 0.86609 0.90385 0.0
C771 C 0.0435 0.8859 0.89789 0.0
C772 C 0.03163 0.90026 0.93372 0.0
C773 C 1.01607 0.89447 0.9738 0.0
C774 C 1.01273 0.87473 0.97981 0.0
H775 H 0.9852 0.8276 0.89858 0.0
H776 H 0.98296 0.84872 0.95496 0.0
H777 H 0.9986 0.84821 0.87631 0.0
H778 H 0.04968 0.85522 0.87757 0.0
H779 H 0.05547 0.88997 0.86572 0.0
H780 H 0.75334 1.00348 0.04771 0.0
H781 H 0.73604 0.01341 0.95748 0.0
H782 H 0.71264 0.06265 0.08547 0.0
H783 H 0.73059 0.05344 0.17325 0.0
H784 H 0.70267 0.01038 0.98431 0.0
H785 H 0.71107 0.08617 0.90472 0.0
H786 H 0.72725 0.07301 0.94745 0.0
H787 H 0.7082 0.08594 0.9969 0.0
C788 C 0.74525 0.01702 0.0548 0.0
C789 C 0.74307 0.02752 0.11791 0.0
C790 C 0.73525 0.02263 0.00338 0.0
C791 C 0.72291 0.03876 0.01447 0.0
C792 C 0.72223 0.0504 0.07452 0.0
H793 H 0.61583 0.05864 0.00371 0.0
H794 H 0.64721 0.05992 0.01435 0.0
C795 C 0.73238 0.04497 0.12531 0.0
C796 C 0.70818 0.04082 0.9729 0.0
H797 H 0.68043 0.07503 0.91296 0.0
C798 C 0.69819 0.02441 0.9665 0.0
C799 C 0.70217 0.05911 0.94971 0.0
C800 C 0.71291 0.07695 0.94948 0.0
C801 C 0.68176 0.02609 0.94304 0.0
C802 C 0.67511 0.04465 0.9255 0.0
C803 C 0.68552 0.06086 0.92732 0.0
C804 C 0.65661 0.04752 0.9126 0.0
C805 C 0.67102 0.00824 0.94154 0.0
C806 C 0.65162 0.04069 0.85097 0.0
C807 C 0.6337 0.04003 0.84453 0.0
C808 C 0.62048 0.04607 0.89987 0.0
C809 C 0.62562 0.05402 0.95994 0.0
C810 C 0.64355 0.05475 0.96617 0.0
H811 H 0.67768 0.99506 0.96064 0.0
H812 H 0.65785 0.01099 0.97364 0.0
H813 H 0.66877 0.00511 0.8879 0.0
H814 H 0.66157 0.03507 0.80911 0.0
H815 H 0.63018 0.03418 0.79703 0.0
H816 H 0.54307 0.69192 0.99995 0.0
H817 H 0.53176 0.66632 0.93324 0.0
H818 H 0.48035 0.67511 0.05781 0.0
H819 H 0.49199 0.7002 0.12648 0.0
H820 H 0.49187 0.63951 0.06612 0.0
H821 H 0.50173 0.65578 0.78973 0.0
H822 H 0.52191 0.65912 0.82344 0.0
H823 H 0.50241 0.67448 0.85516 0.0
C824 C 0.52913 0.68908 0.01062 0.0
C825 C 0.51834 0.69806 0.06781 0.0
C826 C 0.52262 0.67441 0.97242 0.0
C827 C 0.50513 0.66875 0.99011 0.0
C828 C 0.49386 0.6792 0.04302 0.0
H829 H 0.48681 0.55885 0.77717 0.0
H830 H 0.48007 0.5922 0.82457 0.0
C831 C 0.50045 0.69365 0.08186 0.0
C832 C 0.4999 0.6498 0.9633 0.0
H833 H 0.50398 0.62096 0.81752 0.0
C834 C 0.49407 0.63568 0.01151 0.0
C835 C 0.50248 0.64467 0.89217 0.0
C836 C 0.50729 0.65944 0.8373 0.0
C837 C 0.49209 0.61632 0.991 0.0
C838 C 0.49647 0.61075 0.92058 0.0
C839 C 0.5009 0.62515 0.87175 0.0
C840 C 0.4986 0.58989 0.89774 0.0
C841 C 0.48589 0.60186 0.04539 0.0
C842 C 0.51103 0.57743 0.92393 0.0
C843 C 0.51486 0.55843 0.89728 0.0
C844 C 0.50643 0.55146 0.84338 0.0
C845 C 0.49341 0.56366 0.81916 0.0
C846 C 0.48962 0.58278 0.84581 0.0
H847 H 0.47719 0.60925 0.08976 0.0
H848 H 0.47857 0.59015 0.02426 0.0
H849 H 0.49756 0.59501 0.06519 0.0
H850 H 0.5184 0.58269 0.96297 0.0
H851 H 0.52498 0.54948 0.91708 0.0
H852 H 0.82759 0.57571 0.35449 0.0
H853 H 0.84815 0.5839 0.25243 0.0
H854 H 0.83434 0.53241 0.14653 0.0
H855 H 0.81318 0.52512 0.24611 0.0
H856 H 0.87463 0.56083 0.23236 0.0
H857 H 0.85106 0.56168 0.98284 0.0
H858 H 0.83588 0.56596 0.06212 0.0
H859 H 0.84127 0.54142 0.02707 0.0
C860 C 0.82822 0.56692 0.30766 0.0
C861 C 0.81905 0.54969 0.30798 0.0
C862 C 0.83998 0.57155 0.24938 0.0
C863 C 0.84307 0.55868 0.19168 0.0
C864 C 0.83211 0.54288 0.18927 0.0
H865 H 0.92095 0.48261 0.01815 0.0
H866 H 0.89461 0.50427 0.05389 0.0
C867 C 0.82003 0.53856 0.24678 0.0
C868 C 0.8604 0.55797 0.14571 0.0
H869 H 0.87943 0.541 0.98582 0.0
C870 C 0.87571 0.55736 0.17771 0.0
C871 C 0.86206 0.55351 0.07422 0.0
C872 C 0.84662 0.55592 0.03481 0.0
C873 C 0.89208 0.55009 0.14257 0.0
C874 C 0.89316 0.54333 0.07366 0.0
C875 C 0.8784 0.54586 0.03926 0.0
C876 C 0.9086 0.53094 0.04132 0.0
C877 C 0.90772 0.54795 0.18128 0.0
C878 C 0.92505 0.53888 0.02169 0.0
C879 C 0.94011 0.52655 0.0015 0.0
C880 C 0.93894 0.50609 1.00084 0.0
C881 C 0.92228 0.49827 0.01804 0.0
C882 C 0.90723 0.51062 0.03812 0.0
H883 H 0.90436 0.55303 0.23599 0.0
H884 H 0.9127 0.53241 0.17999 0.0
H885 H 0.91863 0.5566 0.15601 0.0
H886 H 0.92629 0.55455 0.02388 0.0
H887 H 0.95271 0.53303 0.98682 0.0
H888 H 0.01866 0.22676 0.93215 0.0
H889 H 0.0201 0.19478 0.87202 0.0
H890 H 0.06321 0.17517 0.97746 0.0
H891 H 0.06147 0.20687 0.03861 0.0
H892 H 0.04596 0.16977 0.78903 0.0
H893 H 0.02426 0.13826 0.04452 0.0
H894 H 0.0239 0.16426 0.03118 0.0
H895 H 0.04431 0.15099 0.04039 0.0
C896 C 0.02883 0.21581 0.94046 0.0
C897 C 0.04003 0.21924 0.98954 0.0
C898 C 0.02957 0.19752 0.90655 0.0
C899 C 0.04149 0.18241 0.92145 0.0
C900 C 0.05367 0.18645 0.96618 0.0
H901 H 0.05378 0.05686 0.84405 0.0
H902 H 0.05699 0.09095 0.87684 0.0
C903 C 0.05282 0.20462 1.00044 0.0
C904 C 0.04016 0.16205 0.8956 0.0
H905 H 0.03205 0.11584 0.95066 0.0
C906 C 0.0429 0.15797 0.82426 0.0
C907 C 0.03596 0.14666 0.9416 0.0
C908 C 0.03176 0.15023 0.01864 0.0
C909 C 0.04205 0.13883 0.79783 0.0
C910 C 0.03814 0.12341 0.84403 0.0
C911 C 0.03524 0.12758 0.91525 0.0
C912 C 0.0368 0.10283 0.82023 0.0
C913 C 0.04573 0.13525 0.72078 0.0
C914 C 0.02431 0.09806 0.77775 0.0
C915 C 0.02244 0.07855 0.7589 0.0
C916 C 0.03292 0.06331 0.7826 0.0
C917 C 0.04547 0.06815 0.82491 0.0
C918 C 0.04733 0.08767 0.84367 0.0
H919 H 0.05331 0.14708 0.69435 0.0
H920 H 0.05327 0.12106 0.70756 0.0
H921 H 0.03297 0.13483 0.70034 0.0
H922 H 1.01573 0.10938 0.76022 0.0
H923 H 1.01264 0.07543 0.72617 0.0
H924 H 0.32584 0.99223 0.04396 0.0
H925 H 0.35532 0.99282 0.97382 0.0
H926 H 0.36624 0.04382 0.08872 0.0
H927 H 0.33703 0.04309 0.15912 0.0
H928 H 0.37493 0.02042 0.89102 0.0
H929 H 0.40522 1.00387 0.12497 0.0
H930 H 0.38188 1.00201 0.12224 0.0
H931 H 0.39068 0.02548 0.13393 0.0
C932 C 0.33433 1.0039 0.05274 0.0
C933 C 0.32911 0.0176 0.10717 0.0
C934 C 0.35125 1.00414 0.01302 0.0
C935 C 0.36325 0.01806 0.02708 0.0
C936 C 0.35746 0.03263 0.07785 0.0
H937 H 0.47627 0.0339 0.89935 0.0
H938 H 0.44497 0.0371 0.951 0.0
C939 C 0.34067 0.03234 0.11762 0.0
C940 C 0.3821 0.01673 0.99219 0.0
H941 H 0.42485 0.01116 0.02476 0.0
C942 C 0.38584 0.01834 0.92021 0.0
C943 C 0.39643 0.01394 0.03005 0.0
C944 C 0.39341 0.01103 0.10696 0.0
C945 C 0.40344 0.01772 0.88547 0.0
C946 C 0.41777 0.01506 0.92351 0.0
C947 C 0.41398 0.01336 0.99542 0.0
C948 C 0.43677 0.01356 0.89 0.0
C949 C 0.40647 0.02041 0.80848 0.0
C950 C 0.4428 0.99913 0.83895 0.0
C951 C 0.46069 0.99729 0.80932 0.0
C952 C 0.47316 0.0097 0.83031 0.0
C953 C 0.46713 0.02408 0.88175 0.0
C954 C 0.44918 0.02593 0.91136 0.0
H955 H 0.39487 0.02812 0.79074 0.0
H956 H 0.41837 0.0288 0.79243 0.0
H957 H 0.40851 0.00585 0.78197 0.0
H958 H 0.43372 0.98903 0.82262 0.0
H959 H 0.46473 0.98597 0.7701 0.0
H960 H 0.53815 0.30598 0.09218 0.0
H961 H 0.53713 0.33521 0.02171 0.0
H962 H 0.48782 0.35528 0.14519 0.0
H963 H 0.48911 0.32642 0.21674 0.0
H964 H 0.5148 0.35334 0.94332 0.0
H965 H 0.51918 0.39943 0.17445 0.0
H966 H 0.5221 0.37314 0.174 0.0
H967 H 0.50019 0.38483 0.18491 0.0
C968 C 0.52684 0.31636 0.10284 0.0
C969 C 0.51372 0.31398 0.15989 0.0
C970 C 0.52633 0.33314 0.06296 0.0
C971 C 0.51267 0.34777 0.07941 0.0
C972 C 0.49877 0.34452 0.13272 0.0
H973 H 0.49447 0.44869 0.82778 0.0
H974 H 0.49237 0.41819 0.89038 0.0
C975 C 0.49939 0.3279 0.173 0.0
C976 C 0.51351 0.36686 0.04391 0.0
H977 H 0.51415 0.41616 0.0736 0.0
C978 C 0.51466 0.36707 0.97179 0.0
C979 C 0.51377 0.3848 0.08081 0.0
C980 C 0.51394 0.38559 0.1577 0.0
C981 C 0.5157 0.38469 0.93582 0.0
C982 C 0.51514 0.40269 0.9731 0.0
C983 C 0.51432 0.40244 0.04505 0.0
C984 C 0.51575 0.42191 0.93837 0.0
C985 C 0.51785 0.38378 0.85805 0.0
C986 C 0.52903 0.43477 0.94724 0.0
C987 C 0.5301 0.45246 0.91232 0.0
C988 C 0.51791 0.45768 0.86769 0.0
C989 C 0.50419 0.44513 0.86122 0.0
C990 C 0.50307 0.42753 0.89649 0.0
H991 H 0.52326 0.36917 0.83712 0.0
H992 H 0.50473 0.38654 0.8413 0.0
H993 H 0.52679 0.395 0.83517 0.0
H994 H 0.53888 0.43087 0.97977 0.0
H995 H 0.54088 0.46169 0.91842 0.0
H996 H 0.21859 0.46918 0.93918 0.0
H997 H 0.19275 0.46934 0.87752 0.0
H998 H 0.16799 0.51733 0.00806 0.0
H999 H 0.1936 0.51728 0.06907 0.0
H1000 H 0.14649 0.48584 0.00534 0.0
H1001 H 0.17337 0.50692 0.7394 0.0
H1002 H 0.18531 0.48709 0.77434 0.0
H1003 H 0.18475 0.51118 0.81225 0.0
C1004 C 0.20784 0.48008 0.9534 0.0
C1005 C 0.20814 0.49312 0.00943 0.0
C1006 C 0.19303 0.48015 0.91821 0.0
C1007 C 0.17832 0.49335 0.93808 0.0
C1008 C 0.17906 0.50693 0.99181 0.0
H1009 H 0.08417 0.52488 0.75772 0.0
H1010 H 0.11301 0.52258 0.79755 0.0
C1011 C 0.19375 0.50688 0.02671 0.0
C1012 C 0.16155 0.49224 0.90742 0.0
H1013 H 0.14347 0.4984 0.75899 0.0
C1014 C 0.14588 0.48848 0.95135 0.0
C1015 C 0.16063 0.49587 0.83711 0.0
C1016 C 0.17685 0.50065 0.78787 0.0
C1017 C 0.1294 0.48837 0.92735 0.0
C1018 C 0.12846 0.49181 0.85691 0.0
C1019 C 0.14415 0.49555 0.81279 0.0
C1020 C 0.11119 0.49259 0.8292 0.0
C1021 C 0.11303 0.48521 0.9784 0.0
C1022 C 0.1005 0.47641 0.83269 0.0
C1023 C 0.08384 0.47771 0.81031 0.0
C1024 C 0.07751 0.49519 0.7833 0.0
C1025 C 0.0885 0.51117 0.77813 0.0
C1026 C 0.10509 0.50987 0.80074 0.0
H1027 H 0.11534 0.4875 0.0325 0.0
H1028 H 0.1018 0.49524 0.96893 0.0
H1029 H 0.10913 0.46996 0.97266 0.0
H1030 H 0.10498 0.46278 0.85324 0.0
H1031 H 0.07587 0.46505 0.81476 0.0
H1032 H 0.03665 0.79745 0.39942 0.0
H1033 H 0.03892 0.82794 0.46321 0.0
H1034 H 0.98926 0.81856 0.59119 0.0
H1035 H 0.98692 0.78793 0.52656 0.0
H1036 H 0.98961 0.85448 0.53008 0.0
H1037 H 0.04977 0.84308 0.65316 0.0
H1038 H 0.05369 0.83647 0.56304 0.0
H1039 H 0.03856 0.82304 0.62123 0.0
C1040 C 0.02654 0.80156 0.44277 0.0
C1041 C 1.01169 0.79026 0.45853 0.0
C1042 C 0.02784 0.819 0.47929 0.0
C1043 C 1.01434 0.82555 0.53247 0.0
C1044 C 0.9999 0.81376 0.55065 0.0
H1045 H 0.02129 0.93513 0.76222 0.0
H1046 H 0.01844 0.90095 0.73063 0.0
C1047 C 0.99865 0.79618 0.51424 0.0
C1048 C 1.01442 0.84563 0.56296 0.0
H1049 H 0.04006 0.8765 0.63847 0.0
C1050 C 1.00054 0.85922 0.55461 0.0
C1051 C 0.02859 0.85186 0.59546 0.0
C1052 C 0.04341 0.83779 0.60943 0.0
C1053 C 1.00076 0.87896 0.57537 0.0
C1054 C 1.01542 0.88542 0.60428 0.0
C1055 C 0.02895 0.87167 0.61528 0.0
C1056 C 0.01698 0.90637 0.62321 0.0
C1057 C 0.98524 0.89269 0.56626 0.0
C1058 C 0.01734 0.9209 0.57324 0.0
C1059 C 0.01895 0.94057 0.59115 0.0
C1060 C 0.02034 0.94613 0.65943 0.0
C1061 C 0.02015 0.93148 0.70917 0.0
C1062 C 0.01856 0.91186 0.6912 0.0
H1063 H 0.97316 0.88465 0.5624 0.0
H1064 H 0.98224 0.90351 0.60979 0.0
H1065 H 0.98851 0.90078 0.51787 0.0
H1066 H 0.01654 0.917 0.52009 0.0
H1067 H 0.01917 0.95138 0.55141 0.0
H1068 H 0.71842 0.03507 0.3708 0.0
H1069 H 0.68966 0.03207 0.44244 0.0
H1070 H 0.69529 0.96939 0.41319 0.0
H1071 H 0.72436 0.97241 0.34284 0.0
H1072 H 0.66136 0.01913 0.3983 0.0
H1073 H 0.67568 0.97316 0.61507 0.0
H1074 H 0.69287 0.98442 0.5584 0.0
H1075 H 0.684 0.96214 0.53217 0.0
C1076 C 0.71378 0.0206 0.38166 0.0
C1077 C 0.72377 1.00396 0.35186 0.0
C1078 C 0.69724 0.01889 0.42217 0.0
C1079 C 0.69016 1.00049 0.43379 0.0
C1080 C 0.70049 0.98374 0.40654 0.0
H1081 H 0.57515 0.98805 0.53014 0.0
H1082 H 0.60602 0.98768 0.47409 0.0
C1083 C 0.71717 0.98545 0.36638 0.0
C1084 C 0.67143 0.99919 0.46879 0.0
H1085 H 0.6453 0.97803 0.60134 0.0
C1086 C 0.6579 0.01016 0.44286 0.0
C1087 C 0.66677 0.98766 0.52739 0.0
C1088 C 0.6806 0.97632 0.56039 0.0
C1089 C 0.64003 0.00991 0.47333 0.0
C1090 C 0.63528 0.99792 0.5306 0.0
C1091 C 0.6488 0.98704 0.55698 0.0
C1092 C 0.61649 0.99705 0.56528 0.0
C1093 C 0.62649 0.02299 0.44485 0.0
C1094 C 0.61199 1.00168 0.63599 0.0
C1095 C 0.59435 1.00165 0.6684 0.0
C1096 C 0.58066 0.99696 0.63108 0.0
C1097 C 0.58524 0.9919 0.56056 0.0
C1098 C 0.60294 0.99181 0.52824 0.0
H1099 H 0.63275 0.0351 0.41493 0.0
H1100 H 0.61969 0.01427 0.40958 0.0
H1101 H 0.61636 0.02942 0.48678 0.0
H1102 H 0.6221 0.00573 0.66604 0.0
H1103 H 0.59144 0.00566 0.72263 0.0
H1104 H 0.56908 0.68847 0.27124 0.0
H1105 H 0.57314 0.66044 0.34524 0.0
H1106 H 0.51652 0.6568 0.39085 0.0
H1107 H 0.51237 0.68475 0.3176 0.0
H1108 H 0.55045 0.65111 0.50397 0.0
H1109 H 0.54505 0.60414 0.2742 0.0
H1110 H 0.55396 0.62806 0.26636 0.0
H1111 H 0.53061 0.62589 0.29039 0.0
C1112 C 0.55751 0.68212 0.29901 0.0
C1113 C 0.5404 0.68876 0.28848 0.0
C1114 C 0.55985 0.66605 0.34089 0.0
C1115 C 0.54512 0.65651 0.37302 0.0
C1116 C 0.52804 0.66397 0.3664 0.0
H1117 H 0.51364 0.55064 0.55724 0.0
H1118 H 0.51846 0.58076 0.49461 0.0
C1119 C 0.5257 0.67993 0.32459 0.0
C1120 C 0.54734 0.63757 0.40716 0.0
H1121 H 0.54446 0.5885 0.38068 0.0
C1122 C 0.54945 0.63736 0.47699 0.0
C1123 C 0.54594 0.61972 0.37166 0.0
C1124 C 0.54384 0.61926 0.29637 0.0
C1125 C 0.5495 0.61973 0.513 0.0
C1126 C 0.54757 0.6019 0.47789 0.0
C1127 C 0.54602 0.60214 0.40747 0.0
C1128 C 0.54535 0.58313 0.51448 0.0
C1129 C 0.55073 0.62036 0.58905 0.0
C1130 C 0.55903 0.57413 0.54542 0.0
C1131 C 0.55635 0.5567 0.58132 0.0
C1132 C 0.53991 0.54802 0.587 0.0
C1133 C 0.52645 0.55688 0.55432 0.0
C1134 C 0.52917 0.57416 0.51836 0.0
H1135 H 0.54937 0.63555 0.61074 0.0
H1136 H 0.54031 0.61171 0.61795 0.0
H1137 H 0.56379 0.61378 0.59739 0.0
H1138 H 0.57173 0.58064 0.54217 0.0
H1139 H 0.56699 0.55031 0.60598 0.0
H1140 H 0.84674 0.49449 0.44398 0.0
H1141 H 0.87442 0.49085 0.49284 0.0
H1142 H 0.85594 0.53778 0.6393 0.0
H1143 H 0.82833 0.54158 0.58936 0.0
H1144 H 0.88859 0.54369 0.57275 0.0
H1145 H 0.88843 0.46796 0.66656 0.0
H1146 H 0.88507 0.46929 0.57811 0.0
H1147 H 0.8688 0.48065 0.64467 0.0
C1148 C 0.84834 0.50349 0.48836 0.0
C1149 C 0.83518 0.51793 0.51422 0.0
C1150 C 0.86421 0.50146 0.51623 0.0
C1151 C 0.86731 0.51385 0.57062 0.0
C1152 C 0.85389 0.52792 0.59782 0.0
H1153 H 0.96106 0.50108 0.78104 0.0
H1154 H 0.93087 0.50285 0.75294 0.0
C1155 C 0.83801 0.52995 0.56987 0.0
C1156 C 0.88507 0.51332 0.59466 0.0
H1157 H 0.91624 0.48305 0.65425 0.0
C1158 C 0.89454 0.53044 0.59109 0.0
C1159 C 0.89292 0.49614 0.61929 0.0
C1160 C 0.88322 0.47752 0.62811 0.0
C1161 C 0.91165 0.53074 0.60966 0.0
C1162 C 0.91981 0.51335 0.63143 0.0
C1163 C 0.91017 0.49635 0.63683 0.0
C1164 C 0.9383 0.5125 0.64864 0.0
C1165 C 0.92074 0.5498 0.6065 0.0
C1166 C 0.95272 0.51715 0.59941 0.0
C1167 C 0.97005 0.51621 0.61539 0.0
C1168 C 0.97347 0.51047 0.68098 0.0
C1169 C 0.95901 0.50568 0.73009 0.0
C1170 C 0.94168 0.50662 0.71402 0.0
H1171 H 0.91106 0.56256 0.60853 0.0
H1172 H 0.92853 0.55132 0.64958 0.0
H1173 H 0.92993 0.55023 0.55718 0.0
H1174 H 0.95061 0.5213 0.5481 0.0
H1175 H 0.98079 0.51984 0.57596 0.0
loop_
_geom_bond_atom_site_label_1
_geom_bond_atom_site_label_2
_geom_bond_distance
_geom_bond_site_symmetry_2
_ccdc_geom_bond_type
H0 C1 0.949 . S
C1 H0 0.949 . S
C1 C2 1.395 . S
C1 C3 1.391 . S
C2 C1 1.395 . S
C2 C5 1.390 . S
C3 C1 1.391 . S
C3 C7 1.387 . S
C3 C8 1.491 . S
H4 C5 0.950 . S
C5 C2 1.390 . S
C5 H4 0.950 . S
C5 C6 1.378 . S
C6 C5 1.378 . S
C6 C7 1.409 . S
C7 C3 1.387 . S
C7 C6 1.409 . S
C7 H9 0.951 . S
C8 C3 1.491 . S
C8 C10 1.382 . S
C8 C12 1.404 . S
H9 C7 0.951 . S
C10 C8 1.382 . S
C10 C11 1.390 . S
C10 H15 0.949 . S
C11 C10 1.390 . S
C11 C16 1.399 . S
C12 C8 1.404 . S
C12 H13 0.950 . S
C12 C14 1.375 . S
H13 C12 0.950 . S
C14 C12 1.375 . S
C14 C16 1.382 . S
C14 H18 0.950 . S
H15 C10 0.949 . S
C16 C11 1.399 . S
C16 C14 1.382 . S
C16 H17 0.952 . S
H17 C16 0.952 . S
H18 C14 0.950 . S
H19 C20 0.949 . S
C20 H19 0.949 . S
C20 C21 1.395 . S
C20 C22 1.391 . S
C21 C20 1.395 . S
C21 C24 1.390 . S
C22 C20 1.391 . S
C22 C26 1.387 . S
C22 C27 1.491 . S
H23 C24 0.950 . S
C24 C21 1.390 . S
C24 H23 0.950 . S
C24 C25 1.378 . S
C25 C24 1.378 . S
C25 C26 1.409 . S
C26 C22 1.387 . S
C26 C25 1.409 . S
C26 H28 0.951 . S
C27 C22 1.491 . S
C27 C29 1.382 . S
C27 C31 1.404 . S
H28 C26 0.951 . S
C29 C27 1.382 . S
C29 C30 1.390 . S
C29 H34 0.913 1_655 S
C30 C29 1.390 . S
C30 C35 1.399 . S
C31 C27 1.404 . S
C31 H32 0.950 . S
C31 C33 1.375 . S
H32 C31 0.950 . S
C33 C31 1.375 . S
C33 C35 1.382 . S
C33 H37 0.950 . S
H34 C29 0.913 1_455 S
C35 C30 1.399 . S
C35 C33 1.382 . S
C35 H36 0.952 . S
H36 C35 0.952 . S
H37 C33 0.950 . S
H38 C39 0.949 . S
C39 H38 0.949 . S
C39 C40 1.395 . S
C39 C41 1.391 . S
C40 C39 1.395 . S
C40 C43 1.390 . S
C41 C39 1.391 . S
C41 C45 1.387 . S
C41 C46 1.491 . S
H42 C43 0.950 . S
C43 C40 1.390 . S
C43 H42 0.950 . S
C43 C44 1.378 . S
C44 C43 1.378 . S
C44 C45 1.409 . S
C45 C41 1.387 . S
C45 C44 1.409 . S
C45 H47 0.951 . S
C46 C41 1.491 . S
C46 C48 1.382 . S
C46 C50 1.404 . S
H47 C45 0.951 . S
C48 C46 1.382 . S
C48 C49 1.390 . S
C48 H53 0.949 1_565 S
C49 C48 1.390 . S
C49 C54 1.399 . S
C50 C46 1.404 . S
C50 H51 0.950 . S
C50 C52 1.375 . S
H51 C50 0.950 . S
C52 C50 1.375 . S
C52 C54 1.382 . S
C52 H56 0.950 . S
H53 C48 0.949 1_545 S
C54 C49 1.399 . S
C54 C52 1.382 . S
C54 H55 0.952 . S
H55 C54 0.952 . S
H56 C52 0.950 . S
H57 C58 0.949 . S
C58 H57 0.949 . S
C58 C59 1.395 . S
C58 C60 1.391 . S
C59 C58 1.395 . S
C59 C62 1.390 . S
C60 C58 1.391 . S
C60 C64 1.387 . S
C60 C65 1.491 . S
H61 C62 0.950 . S
C62 C59 1.390 . S
C62 H61 0.950 . S
C62 C63 1.378 . S
C63 C62 1.378 . S
C63 C64 1.409 . S
C64 C60 1.387 . S
C64 C63 1.409 . S
C64 H66 0.951 . S
C65 C60 1.491 . S
C65 C67 1.382 . S
C65 C69 1.404 . S
H66 C64 0.951 . S
C67 C65 1.382 . S
C67 C68 1.390 . S
C67 H72 0.949 . S
C68 C67 1.390 . S
C68 C73 1.399 . S
C69 C65 1.404 . S
C69 H70 0.950 . S
C69 C71 1.375 . S
H70 C69 0.950 . S
C71 C69 1.375 . S
C71 C73 1.382 . S
C71 H75 0.950 . S
H72 C67 0.949 . S
C73 C68 1.399 . S
C73 C71 1.382 . S
C73 H74 0.952 . S
H74 C73 0.952 . S
H75 C71 0.950 . S
H76 C77 0.949 . S
C77 H76 0.949 . S
C77 C78 1.395 . S
C77 C79 1.391 1_554 S
C78 C77 1.395 . S
C78 C81 1.390 1_554 S
C79 C77 1.391 1_556 S
C79 C83 1.387 . S
C79 C84 1.491 . S
H80 C81 0.950 . S
C81 C78 1.390 1_556 S
C81 H80 0.950 . S
C81 C82 1.378 . S
C82 C81 1.378 . S
C82 C83 1.409 . S
C83 C79 1.387 . S
C83 C82 1.409 . S
C83 H85 0.951 . S
C84 C79 1.491 . S
C84 C86 1.382 1_556 S
C84 C88 1.404 . S
H85 C83 0.951 . S
C86 C84 1.382 1_554 S
C86 C87 1.390 . S
C86 H91 0.949 . S
C87 C86 1.390 . S
C87 C92 1.399 1_554 S
C88 C84 1.404 . S
C88 H89 0.950 . S
C88 C90 1.375 . S
H89 C88 0.950 . S
C90 C88 1.375 . S
C90 C92 1.382 . S
C90 H94 0.950 . S
H91 C86 0.949 . S
C92 C87 1.399 1_556 S
C92 C90 1.382 . S
C92 H93 0.952 . S
H93 C92 0.952 . S
H94 C90 0.950 . S
H95 C96 0.949 . S
C96 H95 0.949 . S
C96 C97 1.395 . S
C96 C98 1.391 . S
C97 C96 1.395 . S
C97 C100 1.390 . S
C98 C96 1.391 . S
C98 C102 1.387 . S
C98 C103 1.491 . S
H99 C100 0.950 . S
C100 C97 1.390 . S
C100 H99 0.950 . S
C100 C101 1.378 . S
C101 C100 1.378 . S
C101 C102 1.409 . S
C102 C98 1.387 . S
C102 C101 1.409 . S
C102 H104 0.951 1_554 S
C103 C98 1.491 . S
C103 C105 1.382 . S
C103 C107 1.404 . S
H104 C102 0.951 1_556 S
C105 C103 1.382 . S
C105 C106 1.390 . S
C105 H110 0.949 . S
C106 C105 1.390 . S
C106 C111 1.399 . S
C107 C103 1.404 . S
C107 H108 0.918 1_455 S
C107 C109 1.382 . S
H108 C107 0.918 1_655 S
C109 C107 1.382 . S
C109 C111 1.408 . S
C109 H113 0.918 1_455 S
H110 C105 0.949 . S
C111 C106 1.399 . S
C111 C109 1.408 . S
C111 H112 0.952 . S
H112 C111 0.952 . S
H113 C109 0.918 1_655 S
H114 C115 0.949 . S
C115 H114 0.949 . S
C115 C116 1.395 . S
C115 C117 1.391 . S
C116 C115 1.395 . S
C116 C119 1.390 . S
C117 C115 1.391 . S
C117 C121 1.387 . S
C117 C122 1.491 1_545 S
H118 C119 0.950 . S
C119 C116 1.390 . S
C119 H118 0.950 . S
C119 C120 1.378 . S
C120 C119 1.378 . S
C120 C121 1.409 . S
C121 C117 1.387 . S
C121 C120 1.409 . S
C121 H123 0.951 . S
C122 C117 1.491 1_565 S
C122 C124 1.382 1_565 S
C122 C126 1.404 . S
H123 C121 0.951 . S
C124 C122 1.382 1_545 S
C124 C125 1.390 . S
C124 H129 0.949 . S
C125 C124 1.390 . S
C125 C130 1.399 1_545 S
C126 C122 1.404 . S
C126 H127 0.950 . S
C126 C128 1.375 . S
H127 C126 0.950 . S
C128 C126 1.375 . S
C128 C130 1.382 . S
C128 H132 0.950 . S
H129 C124 0.949 . S
C130 C125 1.399 1_565 S
C130 C128 1.382 . S
C130 H131 0.952 . S
H131 C130 0.952 . S
H132 C128 0.950 . S
H133 C134 0.949 . S
C134 H133 0.949 . S
C134 C135 1.395 . S
C134 C136 1.391 . S
C135 C134 1.395 . S
C135 C138 1.390 . S
C136 C134 1.391 . S
C136 C140 1.387 . S
C136 C141 1.491 . S
H137 C138 0.950 . S
C138 C135 1.390 . S
C138 H137 0.950 . S
C138 C139 1.378 . S
C139 C138 1.378 . S
C139 C140 1.409 . S
C140 C136 1.387 . S
C140 C139 1.409 . S
C140 H142 0.951 . S
C141 C136 1.491 . S
C141 C143 1.382 . S
C141 C145 1.404 . S
H142 C140 0.951 . S
C143 C141 1.382 . S
C143 C144 1.390 . S
C143 H148 0.949 . S
C144 C143 1.390 . S
C144 C149 1.399 . S
C145 C141 1.404 . S
C145 H146 0.950 . S
C145 C147 1.375 . S
H146 C145 0.950 . S
C147 C145 1.375 . S
C147 C149 1.382 . S
C147 H151 0.950 . S
H148 C143 0.949 . S
C149 C144 1.399 . S
C149 C147 1.382 . S
C149 H150 0.952 . S
H150 C149 0.952 . S
H151 C147 0.950 . S
Dy152 O155 2.302 1_445 S
Dy152 O157 2.395 . S
Dy152 O158 2.379 1_455 S
Dy152 O160 2.339 1_455 S
Dy152 O162 2.298 . S
Dy152 O166 2.275 . S
Dy152 C174 2.738 . S
Dy153 O156 2.298 . S
Dy153 O159 2.275 1_455 S
Dy153 O161 2.307 1_565 S
Dy153 O163 2.395 . S
Dy153 O164 2.379 . S
Dy153 O167 2.339 . S
Dy153 C183 2.738 . S
C154 O166 1.251 1_565 S
C154 O167 1.263 . S
O155 Dy152 2.302 1_665 S
O155 C165 1.250 1_655 S
O156 Dy153 2.298 . S
O156 C165 1.236 . S
O157 Dy152 2.395 . S
O157 C174 1.255 . S
O158 Dy152 2.379 1_655 S
O158 C174 1.249 1_655 S
O159 Dy153 2.275 1_655 S
O159 C175 1.254 1_565 S
O160 Dy152 2.339 1_655 S
O160 C175 1.257 . S
O161 Dy153 2.307 1_545 S
O161 C176 1.266 . S
O162 Dy152 2.298 . S
O162 C176 1.236 . S
O163 Dy153 2.395 . S
O163 C183 1.255 . S
O164 Dy153 2.379 . S
O164 C183 1.249 . S
C165 O155 1.250 1_455 S
C165 O156 1.236 . S
O166 Dy152 2.275 . S
O166 C154 1.251 1_545 S
O167 Dy153 2.339 . S
O167 C154 1.263 . S
C168 C171 1.344 . S
C168 C172 1.328 1_455 S
C168 C174 1.516 . S
C169 C170 1.304 . S
C169 C173 1.323 1_455 S
C170 C169 1.304 . S
C170 C171 1.371 . S
C170 H184 0.930 . S
C171 C168 1.344 . S
C171 C170 1.371 . S
C171 H185 0.931 . S
C172 C168 1.328 1_655 S
C172 C173 1.433 . S
C172 H186 0.931 . S
C173 C169 1.323 1_655 S
C173 C172 1.433 . S
C173 H187 0.933 . S
C174 Dy152 2.738 . S
C174 O157 1.255 . S
C174 O158 1.249 1_455 S
C174 C168 1.516 . S
C175 O159 1.254 1_545 S
C175 O160 1.257 . S
C176 O161 1.266 . S
C176 O162 1.236 . S
C177 C180 1.344 . S
C177 C181 1.328 . S
C177 C183 1.516 . S
C178 C179 1.337 . S
C178 C182 1.323 . S
C179 C178 1.337 . S
C179 C180 1.371 . S
C179 H188 0.896 1_455 S
C180 C177 1.344 . S
C180 C179 1.371 . S
C180 H189 0.931 1_455 S
C181 C177 1.328 . S
C181 C182 1.433 . S
C181 H190 0.931 . S
C182 C178 1.323 . S
C182 C181 1.433 . S
C182 H191 0.933 . S
C183 Dy153 2.738 . S
C183 O163 1.255 . S
C183 O164 1.249 . S
C183 C177 1.516 . S
H184 C170 0.930 . S
H185 C171 0.931 . S
H186 C172 0.931 . S
H187 C173 0.933 . S
H188 C179 0.896 1_655 S
H189 C180 0.931 1_655 S
H190 C181 0.931 . S
H191 C182 0.933 . S
Dy192 O195 2.307 . S
Dy192 O197 2.395 1_565 S
Dy192 O198 2.379 . S
Dy192 O200 2.339 . S
Dy192 O202 2.298 . S
Dy192 O206 2.275 1_565 S
Dy192 C214 2.738 . S
Dy193 O196 2.298 . S
Dy193 O199 2.275 1_545 S
Dy193 O201 2.307 . S
Dy193 O203 2.395 1_545 S
Dy193 O204 2.379 . S
Dy193 O207 2.339 . S
Dy193 C223 2.738 . S
C194 O206 1.254 . S
C194 O207 1.257 . S
O195 Dy192 2.307 . S
O195 C205 1.266 . S
O196 Dy193 2.298 . S
O196 C205 1.236 1_545 S
O197 Dy192 2.395 1_545 S
O197 C214 1.255 1_545 S
O198 Dy192 2.379 . S
O198 C214 1.249 . S
O199 Dy193 2.275 1_565 S
O199 C215 1.254 . S
O200 Dy192 2.339 . S
O200 C215 1.257 . S
O201 Dy193 2.307 . S
O201 C216 1.266 . S
O202 Dy192 2.298 . S
O202 C216 1.236 1_565 S
O203 Dy193 2.395 1_565 S
O203 C223 1.255 1_565 S
O204 Dy193 2.379 . S
O204 C223 1.249 . S
C205 O195 1.266 . S
C205 O196 1.236 1_565 S
O206 Dy192 2.275 1_545 S
O206 C194 1.254 . S
O207 Dy193 2.339 . S
O207 C194 1.257 . S
C208 C211 1.344 1_565 S
C208 C212 1.328 . S
C208 C214 1.516 . S
C209 C210 1.304 1_565 S
C209 C213 1.323 . S
C210 C209 1.304 1_545 S
C210 C211 1.371 . S
C210 H224 0.930 . S
C211 C208 1.344 1_545 S
C211 C210 1.371 . S
C211 H225 0.931 . S
C212 C208 1.328 . S
C212 C213 1.433 . S
C212 H226 0.931 . S
C213 C209 1.323 . S
C213 C212 1.433 . S
C213 H227 0.933 . S
C214 Dy192 2.738 . S
C214 O197 1.255 1_565 S
C214 O198 1.249 . S
C214 C208 1.516 . S
C215 O199 1.254 . S
C215 O200 1.257 . S
C216 O201 1.266 . S
C216 O202 1.236 1_545 S
C217 C220 1.344 1_545 S
C217 C221 1.328 . S
C217 C223 1.516 . S
C218 C219 1.304 1_545 S
C218 C222 1.323 . S
C219 C218 1.304 1_565 S
C219 C220 1.371 . S
C219 H228 0.930 . S
C220 C217 1.344 1_565 S
C220 C219 1.371 . S
C220 H229 0.931 . S
C221 C217 1.328 . S
C221 C222 1.433 . S
C221 H230 0.931 . S
C222 C218 1.323 . S
C222 C221 1.433 . S
C222 H231 0.933 . S
C223 Dy193 2.738 . S
C223 O203 1.255 1_545 S
C223 O204 1.249 . S
C223 C217 1.516 . S
H224 C210 0.930 . S
H225 C211 0.931 . S
H226 C212 0.931 . S
H227 C213 0.933 . S
H228 C219 0.930 . S
H229 C220 0.931 . S
H230 C221 0.931 . S
H231 C222 0.933 . S
Dy232 O235 2.307 . S
Dy232 O237 2.395 . S
Dy232 O238 2.379 . S
Dy232 O240 2.339 . S
Dy232 O242 2.298 . S
Dy232 O246 2.275 . S
Dy232 C254 2.738 . S
Dy233 O236 2.298 . S
Dy233 O239 2.275 . S
Dy233 O241 2.307 . S
Dy233 O243 2.395 . S
Dy233 O244 2.379 . S
Dy233 O247 2.339 . S
Dy233 C263 2.738 . S
C234 O246 1.254 . S
C234 O247 1.257 . S
O235 Dy232 2.307 . S
O235 C245 1.266 . S
O236 Dy233 2.298 . S
O236 C245 1.236 . S
O237 Dy232 2.395 . S
O237 C254 1.255 . S
O238 Dy232 2.379 . S
O238 C254 1.249 . S
O239 Dy233 2.275 . S
O239 C255 1.254 . S
O240 Dy232 2.339 . S
O240 C255 1.257 . S
O241 Dy233 2.307 . S
O241 C256 1.266 . S
O242 Dy232 2.298 . S
O242 C256 1.236 . S
O243 Dy233 2.395 . S
O243 C263 1.255 . S
O244 Dy233 2.379 . S
O244 C263 1.249 . S
C245 O235 1.266 . S
C245 O236 1.236 . S
O246 Dy232 2.275 . S
O246 C234 1.254 . S
O247 Dy233 2.339 . S
O247 C234 1.257 . S
C248 C251 1.344 . S
C248 C252 1.328 . S
C248 C254 1.516 . S
C249 C250 1.304 . S
C249 C253 1.323 . S
C250 C249 1.304 . S
C250 C251 1.371 . S
C250 H264 0.930 . S
C251 C248 1.344 . S
C251 C250 1.371 . S
C251 H265 0.931 . S
C252 C248 1.328 . S
C252 C253 1.433 . S
C252 H266 0.931 . S
C253 C249 1.323 . S
C253 C252 1.433 . S
C253 H267 0.933 . S
C254 Dy232 2.738 . S
C254 O237 1.255 . S
C254 O238 1.249 . S
C254 C248 1.516 . S
C255 O239 1.254 . S
C255 O240 1.257 . S
C256 O241 1.266 . S
C256 O242 1.236 . S
C257 C260 1.344 . S
C257 C261 1.328 . S
C257 C263 1.516 . S
C258 C259 1.304 . S
C258 C262 1.323 . S
C259 C258 1.304 . S
C259 C260 1.371 . S
C259 H268 0.930 . S
C260 C257 1.344 . S
C260 C259 1.371 . S
C260 H269 0.931 . S
C261 C257 1.328 . S
C261 C262 1.433 . S
C261 H270 0.931 . S
C262 C258 1.323 . S
C262 C261 1.433 . S
C262 H271 0.933 . S
C263 Dy233 2.738 . S
C263 O243 1.255 . S
C263 O244 1.249 . S
C263 C257 1.516 . S
H264 C250 0.930 . S
H265 C251 0.931 . S
H266 C252 0.931 . S
H267 C253 0.933 . S
H268 C259 0.930 . S
H269 C260 0.931 . S
H270 C261 0.931 . S
H271 C262 0.933 . S
Dy272 O275 2.307 1_455 S
Dy272 O277 2.395 . S
Dy272 O278 2.379 . S
Dy272 O280 2.339 . S
Dy272 O282 2.298 . S
Dy272 O286 2.275 . S
Dy272 C294 2.738 . S
Dy273 O276 2.298 . S
Dy273 O279 2.275 1_655 S
Dy273 O281 2.307 1_655 S
Dy273 O283 2.395 . S
Dy273 O284 2.379 . S
Dy273 O287 2.339 1_655 S
Dy273 C303 2.738 . S
C274 O286 1.254 . S
C274 O287 1.265 . S
O275 Dy272 2.307 1_655 S
O275 C285 1.266 . S
O276 Dy273 2.298 . S
O276 C285 1.236 . S
O277 Dy272 2.395 . S
O277 C294 1.255 . S
O278 Dy272 2.379 . S
O278 C294 1.249 . S
O279 Dy273 2.275 1_455 S
O279 C295 1.254 . S
O280 Dy272 2.339 . S
O280 C295 1.257 . S
O281 Dy273 2.307 1_455 S
O281 C296 1.266 . S
O282 Dy272 2.298 . S
O282 C296 1.236 . S
O283 Dy273 2.395 . S
O283 C303 1.255 . S
O284 Dy273 2.379 . S
O284 C303 1.249 . S
C285 O275 1.266 . S
C285 O276 1.236 . S
O286 Dy272 2.275 . S
O286 C274 1.254 . S
O287 Dy273 2.339 1_455 S
O287 C274 1.265 . S
C288 C291 1.344 . S
C288 C292 1.328 . S
C288 C294 1.516 . S
C289 C290 1.304 . S
C289 C293 1.323 . S
C290 C289 1.304 . S
C290 C291 1.371 . S
C290 H304 0.930 . S
C291 C288 1.344 . S
C291 C290 1.371 . S
C291 H305 0.931 . S
C292 C288 1.328 . S
C292 C293 1.433 . S
C292 H306 0.931 . S
C293 C289 1.323 . S
C293 C292 1.433 . S
C293 H307 0.933 . S
C294 Dy272 2.738 . S
C294 O277 1.255 . S
C294 O278 1.249 . S
C294 C288 1.516 . S
C295 O279 1.254 . S
C295 O280 1.257 . S
C296 O281 1.266 . S
C296 O282 1.236 . S
C297 C300 1.344 . S
C297 C301 1.328 . S
C297 C303 1.516 . S
C298 C299 1.304 . S
C298 C302 1.325 . S
C299 C298 1.304 . S
C299 C300 1.371 1_554 S
C299 H308 0.930 . S
C300 C297 1.344 . S
C300 C299 1.371 1_556 S
C300 H309 0.931 . S
C301 C297 1.328 . S
C301 C302 1.429 1_556 S
C301 H310 0.931 . S
C302 C298 1.325 . S
C302 C301 1.429 1_554 S
C302 H311 0.934 . S
C303 Dy273 2.738 . S
C303 O283 1.255 . S
C303 O284 1.249 . S
C303 C297 1.516 . S
H304 C290 0.930 . S
H305 C291 0.931 . S
H306 C292 0.931 . S
H307 C293 0.933 . S
H308 C299 0.930 . S
H309 C300 0.931 . S
H310 C301 0.931 . S
H311 C302 0.934 . S
H312 C320 0.929 . S
H313 C322 0.930 . S
H314 C324 0.930 . S
H315 C327 0.929 . S
H316 C330 0.930 . S
H317 C332 0.960 . S
H318 C332 0.960 . S
H319 C332 0.960 1_565 S
C320 H312 0.929 . S
C320 C321 1.377 . S
C320 C322 1.384 . S
C321 C320 1.377 . S
C321 C327 1.390 1_545 S
C322 H313 0.930 . S
C322 C320 1.384 . S
C322 C323 1.372 . S
C323 C322 1.372 . S
C323 C324 1.400 1_545 S
C323 C328 1.490 . S
C324 H314 0.930 . S
C324 C323 1.400 1_565 S
C324 C327 1.386 . S
H325 C341 0.930 . S
H326 C342 0.931 . S
C327 H315 0.929 . S
C327 C321 1.390 1_565 S
C327 C324 1.386 . S
C328 C323 1.490 . S
C328 C330 1.395 . S
C328 C331 1.403 . S
H329 C335 0.930 . S
C330 H316 0.930 . S
C330 C328 1.395 . S
C330 C333 1.403 . S
C331 C328 1.403 . S
C331 C332 1.524 . S
C331 C335 1.400 . S
C332 H317 0.960 . S
C332 H318 0.960 . S
C332 H319 0.960 1_545 S
C332 C331 1.524 . S
C333 C330 1.403 . S
C333 C334 1.392 . S
C333 C337 1.495 . S
C334 C333 1.392 . S
C334 C335 1.385 . S
C334 C336 1.478 . S
C335 H329 0.930 . S
C335 C331 1.400 . S
C335 C334 1.385 . S
C336 C334 1.478 . S
C336 C338 1.381 . S
C336 C342 1.383 1_545 S
C337 C333 1.495 . S
C337 H343 0.959 . S
C337 H344 0.961 1_545 S
C337 H345 0.960 . S
C338 C336 1.381 . S
C338 C339 1.394 . S
C338 H346 0.930 . S
C339 C338 1.394 . S
C339 C340 1.383 . S
C339 H347 0.929 . S
C340 C339 1.383 . S
C340 C341 1.377 1_545 S
C341 H325 0.930 . S
C341 C340 1.377 1_565 S
C341 C342 1.379 . S
C342 H326 0.931 . S
C342 C336 1.383 1_565 S
C342 C341 1.379 . S
H343 C337 0.959 . S
H344 C337 0.961 1_565 S
H345 C337 0.960 . S
H346 C338 0.930 . S
H347 C339 0.929 . S
H348 C356 0.929 . S
H349 C358 0.930 . S
H350 C360 0.930 . S
H351 C363 0.929 . S
H352 C366 0.930 . S
H353 C368 0.960 . S
H354 C368 0.960 . S
H355 C368 0.960 . S
C356 H348 0.929 . S
C356 C357 1.377 . S
C356 C358 1.384 . S
C357 C356 1.377 . S
C357 C363 1.390 . S
C358 H349 0.930 . S
C358 C356 1.384 . S
C358 C359 1.372 . S
C359 C358 1.372 . S
C359 C360 1.400 . S
C359 C364 1.490 . S
C360 H350 0.930 . S
C360 C359 1.400 . S
C360 C363 1.386 . S
H361 C377 0.930 . S
H362 C378 0.931 . S
C363 H351 0.929 . S
C363 C357 1.390 . S
C363 C360 1.386 . S
C364 C359 1.490 . S
C364 C366 1.395 . S
C364 C367 1.403 . S
H365 C371 0.930 . S
C366 H352 0.930 . S
C366 C364 1.395 . S
C366 C369 1.403 . S
C367 C364 1.403 . S
C367 C368 1.524 . S
C367 C371 1.400 . S
C368 H353 0.960 . S
C368 H354 0.960 . S
C368 H355 0.960 . S
C368 C367 1.524 . S
C369 C366 1.403 . S
C369 C370 1.392 . S
C369 C373 1.495 . S
C370 C369 1.392 . S
C370 C371 1.385 . S
C370 C372 1.478 . S
C371 H365 0.930 . S
C371 C367 1.400 . S
C371 C370 1.385 . S
C372 C370 1.478 . S
C372 C374 1.381 . S
C372 C378 1.383 . S
C373 C369 1.495 . S
C373 H379 0.959 . S
C373 H380 0.961 . S
C373 H381 0.960 . S
C374 C372 1.381 . S
C374 C375 1.394 . S
C374 H382 0.930 . S
C375 C374 1.394 . S
C375 C376 1.383 . S
C375 H383 0.929 . S
C376 C375 1.383 . S
C376 C377 1.377 . S
C377 H361 0.930 . S
C377 C376 1.377 . S
C377 C378 1.379 . S
C378 H362 0.931 . S
C378 C372 1.383 . S
C378 C377 1.379 . S
H379 C373 0.959 . S
H380 C373 0.961 . S
H381 C373 0.960 . S
H382 C374 0.930 . S
H383 C375 0.929 . S
H384 C392 0.929 . S
H385 C394 0.930 . S
H386 C396 0.930 . S
H387 C399 0.929 . S
H388 C402 0.930 . S
H389 C404 0.960 . S
H390 C404 0.960 . S
H391 C404 0.960 . S
C392 H384 0.929 . S
C392 C393 1.377 . S
C392 C394 1.384 . S
C393 C392 1.377 . S
C393 C399 1.390 . S
C394 H385 0.930 . S
C394 C392 1.384 . S
C394 C395 1.372 . S
C395 C394 1.372 . S
C395 C396 1.400 . S
C395 C400 1.490 . S
C396 H386 0.930 . S
C396 C395 1.400 . S
C396 C399 1.386 . S
H397 C413 0.930 . S
H398 C414 0.931 . S
C399 H387 0.929 . S
C399 C393 1.390 . S
C399 C396 1.386 . S
C400 C395 1.490 . S
C400 C402 1.395 . S
C400 C403 1.403 . S
H401 C407 0.930 . S
C402 H388 0.930 . S
C402 C400 1.395 . S
C402 C405 1.403 . S
C403 C400 1.403 . S
C403 C404 1.524 . S
C403 C407 1.400 . S
C404 H389 0.960 . S
C404 H390 0.960 . S
C404 H391 0.960 . S
C404 C403 1.524 . S
C405 C402 1.403 . S
C405 C406 1.392 . S
C405 C409 1.495 . S
C406 C405 1.392 . S
C406 C407 1.385 . S
C406 C408 1.478 . S
C407 H401 0.930 . S
C407 C403 1.400 . S
C407 C406 1.385 . S
C408 C406 1.478 . S
C408 C410 1.381 . S
C408 C414 1.383 . S
C409 C405 1.495 . S
C409 H415 0.959 . S
C409 H416 0.961 . S
C409 H417 0.960 . S
C410 C408 1.381 . S
C410 C411 1.394 . S
C410 H418 0.930 . S
C411 C410 1.394 . S
C411 C412 1.383 . S
C411 H419 0.929 . S
C412 C411 1.383 . S
C412 C413 1.377 . S
C413 H397 0.930 . S
C413 C412 1.377 . S
C413 C414 1.379 . S
C414 H398 0.931 . S
C414 C408 1.383 . S
C414 C413 1.379 . S
H415 C409 0.959 . S
H416 C409 0.961 . S
H417 C409 0.960 . S
H418 C410 0.930 . S
H419 C411 0.929 . S
H420 C428 0.935 1_655 S
H421 C430 0.930 1_655 S
H422 C432 0.930 . S
H423 C435 0.929 . S
H424 C438 0.930 1_655 S
H425 C440 0.960 . S
H426 C440 0.960 . S
H427 C440 0.960 . S
C428 H420 0.935 1_455 S
C428 C429 1.377 . S
C428 C430 1.384 . S
C429 C428 1.377 . S
C429 C435 1.390 . S
C430 H421 0.930 1_455 S
C430 C428 1.384 . S
C430 C431 1.372 . S
C431 C430 1.372 . S
C431 C432 1.400 . S
C431 C436 1.490 . S
C432 H422 0.930 . S
C432 C431 1.400 . S
C432 C435 1.386 . S
H433 C449 0.930 . S
H434 C450 0.931 . S
C435 H423 0.929 . S
C435 C429 1.390 . S
C435 C432 1.386 . S
C436 C431 1.490 . S
C436 C438 1.395 . S
C436 C439 1.403 . S
H437 C443 0.930 . S
C438 H424 0.930 1_455 S
C438 C436 1.395 . S
C438 C441 1.403 . S
C439 C436 1.403 . S
C439 C440 1.524 . S
C439 C443 1.400 . S
C440 H425 0.960 . S
C440 H426 0.960 . S
C440 H427 0.960 . S
C440 C439 1.524 . S
C441 C438 1.403 . S
C441 C442 1.392 . S
C441 C445 1.495 1_455 S
C442 C441 1.392 . S
C442 C443 1.385 . S
C442 C444 1.478 . S
C443 H437 0.930 . S
C443 C439 1.400 . S
C443 C442 1.385 . S
C444 C442 1.478 . S
C444 C446 1.342 1_455 S
C444 C450 1.383 . S
C445 C441 1.495 1_655 S
C445 H451 0.959 . S
C445 H452 0.961 . S
C445 H453 0.960 . S
C446 C444 1.342 1_655 S
C446 C447 1.389 . S
C446 H454 0.977 . S
C447 C446 1.389 . S
C447 C448 1.383 1_655 S
C447 H455 0.929 . S
C448 C447 1.383 1_455 S
C448 C449 1.377 . S
C449 H433 0.930 . S
C449 C448 1.377 . S
C449 C450 1.379 . S
C450 H434 0.931 . S
C450 C444 1.383 . S
C450 C449 1.379 . S
H451 C445 0.959 . S
H452 C445 0.961 . S
H453 C445 0.960 . S
H454 C446 0.977 . S
H455 C447 0.929 . S
H456 C464 0.929 . S
H457 C466 0.930 . S
H458 C468 0.930 1_556 S
H459 C471 0.929 . S
H460 C474 0.930 . S
H461 C476 0.960 . S
H462 C476 0.960 . S
H463 C476 0.960 . S
C464 H456 0.929 . S
C464 C465 1.377 1_545 S
C464 C466 1.384 . S
C465 C464 1.377 1_565 S
C465 C471 1.390 . S
C466 H457 0.930 . S
C466 C464 1.384 . S
C466 C467 1.372 1_545 S
C467 C466 1.372 1_565 S
C467 C468 1.400 . S
C467 C472 1.490 . S
C468 H458 0.930 1_554 S
C468 C467 1.400 . S
C468 C471 1.386 . S
H469 C485 0.930 . S
H470 C486 0.931 . S
C471 H459 0.929 . S
C471 C465 1.390 . S
C471 C468 1.386 . S
C472 C467 1.490 . S
C472 C474 1.395 . S
C472 C475 1.403 1_564 S
H473 C479 0.930 . S
C474 H460 0.930 . S
C474 C472 1.395 . S
C474 C477 1.403 . S
C475 C472 1.403 1_546 S
C475 C476 1.524 . S
C475 C479 1.400 . S
C476 H461 0.960 . S
C476 H462 0.960 . S
C476 H463 0.960 . S
C476 C475 1.524 . S
C477 C474 1.403 . S
C477 C478 1.392 1_554 S
C477 C481 1.495 . S
C478 C477 1.392 1_556 S
C478 C479 1.385 1_565 S
C478 C480 1.478 . S
C479 H473 0.930 . S
C479 C475 1.400 . S
C479 C478 1.385 1_545 S
C480 C478 1.478 . S
C480 C482 1.381 1_565 S
C480 C486 1.383 . S
C481 C477 1.495 . S
C481 H487 0.959 . S
C481 H488 0.961 . S
C481 H489 0.960 . S
C482 C480 1.381 1_545 S
C482 C483 1.394 . S
C482 H490 0.930 . S
C483 C482 1.394 . S
C483 C484 1.383 1_545 S
C483 H491 0.929 . S
C484 C483 1.383 1_565 S
C484 C485 1.377 . S
C485 H469 0.930 . S
C485 C484 1.377 . S
C485 C486 1.379 . S
C486 H470 0.931 . S
C486 C480 1.383 . S
C486 C485 1.379 . S
H487 C481 0.959 . S
H488 C481 0.961 . S
H489 C481 0.960 . S
H490 C482 0.930 . S
H491 C483 0.929 . S
H492 C500 0.929 . S
H493 C502 0.930 . S
H494 C504 0.930 . S
H495 C507 0.929 . S
H496 C510 0.930 . S
H497 C512 0.960 . S
H498 C512 0.960 . S
H499 C512 0.960 . S
C500 H492 0.929 . S
C500 C501 1.377 1_556 S
C500 C502 1.384 . S
C501 C500 1.377 1_554 S
C501 C507 1.390 . S
C502 H493 0.930 . S
C502 C500 1.384 . S
C502 C503 1.372 . S
C503 C502 1.372 . S
C503 C504 1.400 1_556 S
C503 C508 1.490 . S
C504 H494 0.930 . S
C504 C503 1.400 1_554 S
C504 C507 1.386 . S
H505 C521 0.930 . S
H506 C522 0.931 . S
C507 H495 0.929 . S
C507 C501 1.390 . S
C507 C504 1.386 . S
C508 C503 1.490 . S
C508 C510 1.395 . S
C508 C511 1.403 . S
H509 C515 0.930 . S
C510 H496 0.930 . S
C510 C508 1.395 . S
C510 C513 1.403 . S
C511 C508 1.403 . S
C511 C512 1.524 . S
C511 C515 1.400 . S
C512 H497 0.960 . S
C512 H498 0.960 . S
C512 H499 0.960 . S
C512 C511 1.524 . S
C513 C510 1.403 . S
C513 C514 1.392 . S
C513 C517 1.495 . S
C514 C513 1.392 . S
C514 C515 1.385 . S
C514 C516 1.478 . S
C515 H509 0.930 . S
C515 C511 1.400 . S
C515 C514 1.385 . S
C516 C514 1.478 . S
C516 C518 1.381 . S
C516 C522 1.383 . S
C517 C513 1.495 . S
C517 H523 0.959 . S
C517 H524 0.961 . S
C517 H525 0.960 . S
C518 C516 1.381 . S
C518 C519 1.394 . S
C518 H526 0.930 . S
C519 C518 1.394 . S
C519 C520 1.383 . S
C519 H527 0.929 . S
C520 C519 1.383 . S
C520 C521 1.377 . S
C521 H505 0.930 . S
C521 C520 1.377 . S
C521 C522 1.379 . S
C522 H506 0.931 . S
C522 C516 1.383 . S
C522 C521 1.379 . S
H523 C517 0.959 . S
H524 C517 0.961 . S
H525 C517 0.960 . S
H526 C518 0.930 . S
H527 C519 0.929 . S
H528 C536 0.929 . S
H529 C538 0.930 . S
H530 C540 0.930 . S
H531 C543 0.929 . S
H532 C546 0.930 . S
H533 C548 0.960 . S
H534 C548 0.960 . S
H535 C548 0.960 . S
C536 H528 0.929 . S
C536 C537 1.377 . S
C536 C538 1.384 . S
C537 C536 1.377 . S
C537 C543 1.390 . S
C538 H529 0.930 . S
C538 C536 1.384 . S
C538 C539 1.372 . S
C539 C538 1.372 . S
C539 C540 1.400 . S
C539 C544 1.490 . S
C540 H530 0.930 . S
C540 C539 1.400 . S
C540 C543 1.386 . S
H541 C557 0.930 . S
H542 C558 0.931 . S
C543 H531 0.929 . S
C543 C537 1.390 . S
C543 C540 1.386 . S
C544 C539 1.490 . S
C544 C546 1.395 . S
C544 C547 1.403 . S
H545 C551 0.930 . S
C546 H532 0.930 . S
C546 C544 1.395 . S
C546 C549 1.403 . S
C547 C544 1.403 . S
C547 C548 1.524 . S
C547 C551 1.400 . S
C548 H533 0.960 . S
C548 H534 0.960 . S
C548 H535 0.960 . S
C548 C547 1.524 . S
C549 C546 1.403 . S
C549 C550 1.392 . S
C549 C553 1.495 . S
C550 C549 1.392 . S
C550 C551 1.385 . S
C550 C552 1.478 . S
C551 H545 0.930 . S
C551 C547 1.400 . S
C551 C550 1.385 . S
C552 C550 1.478 . S
C552 C554 1.381 . S
C552 C558 1.383 . S
C553 C549 1.495 . S
C553 H559 0.959 . S
C553 H560 0.961 . S
C553 H561 0.960 . S
C554 C552 1.381 . S
C554 C555 1.394 . S
C554 H562 0.930 . S
C555 C554 1.394 . S
C555 C556 1.383 1_554 S
C555 H563 0.929 . S
C556 C555 1.383 1_556 S
C556 C557 1.377 . S
C557 H541 0.930 . S
C557 C556 1.377 . S
C557 C558 1.379 1_556 S
C558 H542 0.931 . S
C558 C552 1.383 . S
C558 C557 1.379 1_554 S
H559 C553 0.959 . S
H560 C553 0.961 . S
H561 C553 0.960 . S
H562 C554 0.930 . S
H563 C555 0.929 . S
H564 C572 0.929 . S
H565 C574 0.930 . S
H566 C576 0.930 . S
H567 C579 0.929 . S
H568 C582 0.930 . S
H569 C584 0.960 . S
H570 C584 0.960 . S
H571 C584 0.960 . S
C572 H564 0.929 . S
C572 C573 1.377 . S
C572 C574 1.384 . S
C573 C572 1.377 . S
C573 C579 1.390 1_655 S
C574 H565 0.930 . S
C574 C572 1.384 . S
C574 C575 1.372 . S
C575 C574 1.372 . S
C575 C576 1.400 1_655 S
C575 C580 1.490 . S
C576 H566 0.930 . S
C576 C575 1.400 1_455 S
C576 C579 1.386 . S
H577 C593 0.930 . S
H578 C594 0.931 . S
C579 H567 0.929 . S
C579 C573 1.390 1_455 S
C579 C576 1.386 . S
C580 C575 1.490 . S
C580 C582 1.395 1_655 S
C580 C583 1.403 . S
H581 C587 0.930 . S
C582 H568 0.930 . S
C582 C580 1.395 1_455 S
C582 C585 1.403 1_554 S
C583 C580 1.403 . S
C583 C584 1.524 . S
C583 C587 1.400 . S
C584 H569 0.960 . S
C584 H570 0.960 . S
C584 H571 0.960 . S
C584 C583 1.524 . S
C585 C582 1.403 1_556 S
C585 C586 1.392 . S
C585 C589 1.495 . S
C586 C585 1.392 . S
C586 C587 1.385 1_456 S
C586 C588 1.478 . S
C587 H581 0.930 . S
C587 C583 1.400 . S
C587 C586 1.385 1_654 S
C588 C586 1.478 . S
C588 C590 1.381 1_455 S
C588 C594 1.383 . S
C589 C585 1.495 . S
C589 H595 0.959 . S
C589 H596 0.961 . S
C589 H597 0.951 1_455 S
C590 C588 1.381 1_655 S
C590 C591 1.394 . S
C590 H598 0.930 . S
C591 C590 1.394 . S
C591 C592 1.383 1_655 S
C591 H599 0.929 . S
C592 C591 1.383 1_455 S
C592 C593 1.377 . S
C593 H577 0.930 . S
C593 C592 1.377 . S
C593 C594 1.379 . S
C594 H578 0.931 . S
C594 C588 1.383 . S
C594 C593 1.379 . S
H595 C589 0.959 . S
H596 C589 0.961 . S
H597 C589 0.951 1_655 S
H598 C590 0.930 . S
H599 C591 0.929 . S
H600 C608 0.929 . S
H601 C610 0.930 . S
H602 C612 0.930 . S
H603 C615 0.929 . S
H604 C618 0.930 . S
H605 C620 0.960 . S
H606 C620 0.960 . S
H607 C620 0.932 1_455 S
C608 H600 0.929 . S
C608 C609 1.377 . S
C608 C610 1.384 . S
C609 C608 1.377 . S
C609 C615 1.390 . S
C610 H601 0.930 . S
C610 C608 1.384 . S
C610 C611 1.372 . S
C611 C610 1.372 . S
C611 C612 1.400 . S
C611 C616 1.490 . S
C612 H602 0.930 . S
C612 C611 1.400 . S
C612 C615 1.386 . S
H613 C629 0.930 . S
H614 C630 0.931 . S
C615 H603 0.929 . S
C615 C609 1.390 . S
C615 C612 1.386 . S
C616 C611 1.490 . S
C616 C618 1.395 . S
C616 C619 1.403 . S
H617 C623 0.930 1_655 S
C618 H604 0.930 . S
C618 C616 1.395 . S
C618 C621 1.403 . S
C619 C616 1.403 . S
C619 C620 1.524 1_455 S
C619 C623 1.400 . S
C620 H605 0.960 . S
C620 H606 0.960 . S
C620 H607 0.932 1_655 S
C620 C619 1.524 1_655 S
C621 C618 1.403 . S
C621 C622 1.392 . S
C621 C625 1.495 . S
C622 C621 1.392 . S
C622 C623 1.385 . S
C622 C624 1.478 . S
C623 H617 0.930 1_455 S
C623 C619 1.400 . S
C623 C622 1.385 . S
C624 C622 1.478 . S
C624 C626 1.381 . S
C624 C630 1.383 . S
C625 C621 1.495 . S
C625 H631 0.959 . S
C625 H632 0.961 . S
C625 H633 0.960 . S
C626 C624 1.381 . S
C626 C627 1.394 1_455 S
C626 H634 0.909 1_455 S
C627 C626 1.394 1_655 S
C627 C628 1.383 1_655 S
C627 H635 0.929 . S
C628 C627 1.383 1_455 S
C628 C629 1.377 . S
C629 H613 0.930 . S
C629 C628 1.377 . S
C629 C630 1.379 . S
C630 H614 0.931 . S
C630 C624 1.383 . S
C630 C629 1.379 . S
H631 C625 0.959 . S
H632 C625 0.961 . S
H633 C625 0.960 . S
H634 C626 0.909 1_655 S
H635 C627 0.929 . S
H636 C644 0.929 . S
H637 C646 0.930 . S
H638 C648 0.930 . S
H639 C651 0.929 . S
H640 C654 0.930 . S
H641 C656 0.960 . S
H642 C656 0.960 1_545 S
H643 C656 0.960 . S
C644 H636 0.929 . S
C644 C645 1.377 . S
C644 C646 1.384 . S
C645 C644 1.377 . S
C645 C651 1.390 1_545 S
C646 H637 0.930 . S
C646 C644 1.384 . S
C646 C647 1.372 . S
C647 C646 1.372 . S
C647 C648 1.400 1_545 S
C647 C652 1.490 . S
C648 H638 0.930 . S
C648 C647 1.400 1_565 S
C648 C651 1.386 . S
H649 C665 0.930 . S
H650 C666 0.931 . S
C651 H639 0.929 . S
C651 C645 1.390 1_565 S
C651 C648 1.386 . S
C652 C647 1.490 . S
C652 C654 1.395 . S
C652 C655 1.403 1_545 S
H653 C659 0.930 . S
C654 H640 0.930 . S
C654 C652 1.395 . S
C654 C657 1.403 . S
C655 C652 1.403 1_565 S
C655 C656 1.524 . S
C655 C659 1.400 . S
C656 H641 0.960 . S
C656 H642 0.960 1_565 S
C656 H643 0.960 . S
C656 C655 1.524 . S
C657 C654 1.403 . S
C657 C658 1.392 1_545 S
C657 C661 1.495 . S
C658 C657 1.392 1_565 S
C658 C659 1.385 . S
C658 C660 1.478 . S
C659 H653 0.930 . S
C659 C655 1.400 . S
C659 C658 1.385 . S
C660 C658 1.478 . S
C660 C662 1.381 1_565 S
C660 C666 1.383 . S
C661 C657 1.495 . S
C661 H667 0.959 . S
C661 H668 0.961 1_545 S
C661 H669 0.960 . S
C662 C660 1.381 1_545 S
C662 C663 1.394 . S
C662 H670 0.930 . S
C663 C662 1.394 . S
C663 C664 1.383 1_545 S
C663 H671 0.929 . S
C664 C663 1.383 1_565 S
C664 C665 1.377 . S
C665 H649 0.930 . S
C665 C664 1.377 . S
C665 C666 1.379 . S
C666 H650 0.931 . S
C666 C660 1.383 . S
C666 C665 1.379 . S
H667 C661 0.959 . S
H668 C661 0.961 1_565 S
H669 C661 0.960 . S
H670 C662 0.930 . S
H671 C663 0.929 . S
H672 C680 0.929 . S
H673 C682 0.930 . S
H674 C684 0.930 . S
H675 C687 0.929 . S
H676 C690 0.930 . S
H677 C692 0.960 . S
H678 C692 0.960 . S
H679 C692 0.960 . S
C680 H672 0.929 . S
C680 C681 1.377 . S
C680 C682 1.384 . S
C681 C680 1.377 . S
C681 C687 1.390 . S
C682 H673 0.930 . S
C682 C680 1.384 . S
C682 C683 1.372 . S
C683 C682 1.372 . S
C683 C684 1.400 . S
C683 C688 1.490 . S
C684 H674 0.930 . S
C684 C683 1.400 . S
C684 C687 1.386 . S
H685 C701 0.930 . S
H686 C702 0.931 . S
C687 H675 0.929 . S
C687 C681 1.390 . S
C687 C684 1.386 . S
C688 C683 1.490 . S
C688 C690 1.395 . S
C688 C691 1.403 . S
H689 C695 0.930 . S
C690 H676 0.930 . S
C690 C688 1.395 . S
C690 C693 1.403 . S
C691 C688 1.403 . S
C691 C692 1.524 . S
C691 C695 1.400 . S
C692 H677 0.960 . S
C692 H678 0.960 . S
C692 H679 0.960 . S
C692 C691 1.524 . S
C693 C690 1.403 . S
C693 C694 1.392 . S
C693 C697 1.495 . S
C694 C693 1.392 . S
C694 C695 1.385 . S
C694 C696 1.478 . S
C695 H689 0.930 . S
C695 C691 1.400 . S
C695 C694 1.385 . S
C696 C694 1.478 . S
C696 C698 1.381 . S
C696 C702 1.383 . S
C697 C693 1.495 . S
C697 H703 0.959 . S
C697 H704 0.961 . S
C697 H705 0.960 . S
C698 C696 1.381 . S
C698 C699 1.394 . S
C698 H706 0.930 . S
C699 C698 1.394 . S
C699 C700 1.383 . S
C699 H707 0.929 . S
C700 C699 1.383 . S
C700 C701 1.377 . S
C701 H685 0.930 . S
C701 C700 1.377 . S
C701 C702 1.379 . S
C702 H686 0.931 . S
C702 C696 1.383 . S
C702 C701 1.379 . S
H703 C697 0.959 . S
H704 C697 0.961 . S
H705 C697 0.960 . S
H706 C698 0.930 . S
H707 C699 0.929 . S
H708 C716 0.929 1_556 S
H709 C718 0.930 . S
H710 C720 0.930 . S
H711 C723 0.929 . S
H712 C726 0.930 . S
H713 C728 0.960 . S
H714 C728 0.960 . S
H715 C728 0.960 . S
C716 H708 0.929 1_554 S
C716 C717 1.377 . S
C716 C718 1.384 . S
C717 C716 1.377 . S
C717 C723 1.390 . S
C718 H709 0.930 . S
C718 C716 1.384 . S
C718 C719 1.372 . S
C719 C718 1.372 . S
C719 C720 1.400 . S
C719 C724 1.490 . S
C720 H710 0.930 . S
C720 C719 1.400 . S
C720 C723 1.386 . S
H721 C737 0.930 . S
H722 C738 0.931 . S
C723 H711 0.929 . S
C723 C717 1.390 . S
C723 C720 1.386 . S
C724 C719 1.490 . S
C724 C726 1.395 . S
C724 C727 1.403 . S
H725 C731 0.930 . S
C726 H712 0.930 . S
C726 C724 1.395 . S
C726 C729 1.403 . S
C727 C724 1.403 . S
C727 C728 1.524 . S
C727 C731 1.400 . S
C728 H713 0.960 . S
C728 H714 0.960 . S
C728 H715 0.960 . S
C728 C727 1.524 . S
C729 C726 1.403 . S
C729 C730 1.392 . S
C729 C733 1.495 . S
C730 C729 1.392 . S
C730 C731 1.385 . S
C730 C732 1.478 . S
C731 H725 0.930 . S
C731 C727 1.400 . S
C731 C730 1.385 . S
C732 C730 1.478 . S
C732 C734 1.381 . S
C732 C738 1.383 . S
C733 C729 1.495 . S
C733 H739 0.959 . S
C733 H740 0.961 . S
C733 H741 0.960 . S
C734 C732 1.381 . S
C734 C735 1.394 . S
C734 H742 0.930 . S
C735 C734 1.394 . S
C735 C736 1.383 . S
C735 H743 0.929 . S
C736 C735 1.383 . S
C736 C737 1.377 . S
C737 H721 0.930 . S
C737 C736 1.377 . S
C737 C738 1.379 . S
C738 H722 0.931 . S
C738 C732 1.383 . S
C738 C737 1.379 . S
H739 C733 0.959 . S
H740 C733 0.961 . S
H741 C733 0.960 . S
H742 C734 0.930 . S
H743 C735 0.929 . S
H744 C752 0.929 . S
H745 C754 0.930 . S
H746 C756 0.930 . S
H747 C759 0.929 . S
H748 C762 0.930 . S
H749 C764 0.960 . S
H750 C764 0.960 . S
H751 C764 0.960 . S
C752 H744 0.929 . S
C752 C753 1.377 1_455 S
C752 C754 1.384 . S
C753 C752 1.377 1_655 S
C753 C759 1.390 . S
C754 H745 0.930 . S
C754 C752 1.384 . S
C754 C755 1.358 1_455 S
C755 C754 1.358 1_655 S
C755 C756 1.421 . S
C755 C760 1.486 1_655 S
C756 H746 0.930 . S
C756 C755 1.421 . S
C756 C759 1.386 . S
H757 C773 0.930 1_655 S
H758 C774 0.914 1_655 S
C759 H747 0.929 . S
C759 C753 1.390 . S
C759 C756 1.386 . S
C760 C755 1.486 1_455 S
C760 C762 1.395 1_455 S
C760 C763 1.403 . S
H761 C767 0.930 . S
C762 H748 0.930 . S
C762 C760 1.395 1_655 S
C762 C765 1.406 . S
C763 C760 1.403 . S
C763 C764 1.524 . S
C763 C767 1.400 . S
C764 H749 0.960 . S
C764 H750 0.960 . S
C764 H751 0.960 . S
C764 C763 1.524 . S
C765 C762 1.406 . S
C765 C766 1.380 1_655 S
C765 C769 1.507 . S
C766 C765 1.380 1_455 S
C766 C767 1.385 . S
C766 C768 1.478 . S
C767 H761 0.930 . S
C767 C763 1.400 . S
C767 C766 1.385 . S
C768 C766 1.478 . S
C768 C770 1.381 1_554 S
C768 C774 1.395 . S
C769 C765 1.507 . S
C769 H775 0.959 1_554 S
C769 H776 0.961 1_554 S
C769 H777 0.960 1_654 S
C770 C768 1.381 1_556 S
C770 C771 1.394 . S
C770 H778 0.930 . S
C771 C770 1.394 . S
C771 C772 1.383 . S
C771 H779 0.929 . S
C772 C771 1.383 . S
C772 C773 1.377 1_556 S
C773 H757 0.930 1_455 S
C773 C772 1.377 1_554 S
C773 C774 1.385 . S
C774 H758 0.914 1_455 S
C774 C768 1.395 . S
C774 C773 1.385 . S
H775 C769 0.959 1_556 S
H776 C769 0.961 1_556 S
H777 C769 0.960 1_456 S
H778 C770 0.930 . S
H779 C771 0.929 . S
H780 C788 0.929 . S
H781 C790 0.930 . S
H782 C792 0.930 . S
H783 C795 0.936 . S
H784 C798 0.930 . S
H785 C800 0.960 . S
H786 C800 0.960 . S
H787 C800 0.960 . S
C788 H780 0.929 . S
C788 C789 1.377 . S
C788 C790 1.384 . S
C789 C788 1.377 . S
C789 C795 1.382 1_565 S
C790 H781 0.930 . S
C790 C788 1.384 . S
C790 C791 1.377 . S
C791 C790 1.377 . S
C791 C792 1.396 1_565 S
C791 C796 1.489 1_565 S
C792 H782 0.930 . S
C792 C791 1.396 1_545 S
C792 C795 1.389 . S
H793 C809 0.930 . S
H794 C810 0.931 . S
C795 H783 0.936 . S
C795 C789 1.382 1_545 S
C795 C792 1.389 . S
C796 C791 1.489 1_545 S
C796 C798 1.395 1_545 S
C796 C799 1.403 . S
H797 C803 0.930 . S
C798 H784 0.930 . S
C798 C796 1.395 1_565 S
C798 C801 1.403 . S
C799 C796 1.403 . S
C799 C800 1.524 . S
C799 C803 1.400 . S
C800 H785 0.960 . S
C800 H786 0.960 . S
C800 H787 0.960 . S
C800 C799 1.524 . S
C801 C798 1.403 . S
C801 C802 1.392 1_565 S
C801 C805 1.495 . S
C802 C801 1.392 1_545 S
C802 C803 1.385 . S
C802 C804 1.478 . S
C803 H797 0.930 . S
C803 C799 1.400 . S
C803 C802 1.385 . S
C804 C802 1.478 . S
C804 C806 1.381 1_554 S
C804 C810 1.383 . S
C805 C801 1.495 . S
C805 H811 0.959 . S
C805 H812 0.961 . S
C805 H813 0.960 1_554 S
C806 C804 1.381 1_556 S
C806 C807 1.394 . S
C806 H814 0.930 . S
C807 C806 1.394 . S
C807 C808 1.383 . S
C807 H815 0.929 . S
C808 C807 1.383 . S
C808 C809 1.377 1_556 S
C809 H793 0.930 . S
C809 C808 1.377 1_554 S
C809 C810 1.379 . S
C810 H794 0.931 . S
C810 C804 1.383 . S
C810 C809 1.379 . S
H811 C805 0.959 . S
H812 C805 0.961 . S
H813 C805 0.960 1_556 S
H814 C806 0.930 . S
H815 C807 0.929 . S
H816 C824 0.929 . S
H817 C826 0.930 . S
H818 C828 0.930 . S
H819 C831 0.929 . S
H820 C834 0.930 . S
H821 C836 0.960 . S
H822 C836 0.960 . S
H823 C836 0.960 . S
C824 H816 0.929 . S
C824 C825 1.377 . S
C824 C826 1.384 . S
C825 C824 1.377 . S
C825 C831 1.390 1_554 S
C826 H817 0.930 . S
C826 C824 1.384 . S
C826 C827 1.372 1_554 S
C827 C826 1.372 1_556 S
C827 C828 1.400 . S
C827 C832 1.490 . S
C828 H818 0.930 . S
C828 C827 1.400 . S
C828 C831 1.386 . S
H829 C845 0.930 . S
H830 C846 0.931 . S
C831 H819 0.929 . S
C831 C825 1.390 1_556 S
C831 C828 1.386 . S
C832 C827 1.490 . S
C832 C834 1.395 1_556 S
C832 C835 1.403 . S
H833 C839 0.930 . S
C834 H820 0.930 . S
C834 C832 1.395 1_554 S
C834 C837 1.406 . S
C835 C832 1.403 . S
C835 C836 1.524 . S
C835 C839 1.400 . S
C836 H821 0.960 . S
C836 H822 0.960 . S
C836 H823 0.960 . S
C836 C835 1.524 . S
C837 C834 1.406 . S
C837 C838 1.386 1_554 S
C837 C841 1.499 . S
C838 C837 1.386 1_556 S
C838 C839 1.385 . S
C838 C840 1.478 . S
C839 H833 0.930 . S
C839 C835 1.400 . S
C839 C838 1.385 . S
C840 C838 1.478 . S
C840 C842 1.381 . S
C840 C846 1.383 . S
C841 C837 1.499 . S
C841 H847 0.959 . S
C841 H848 0.961 . S
C841 H849 0.960 . S
C842 C840 1.381 . S
C842 C843 1.394 . S
C842 H850 0.930 . S
C843 C842 1.394 . S
C843 C844 1.383 . S
C843 H851 0.929 . S
C844 C843 1.383 . S
C844 C845 1.377 . S
C845 H829 0.930 . S
C845 C844 1.377 . S
C845 C846 1.379 . S
C846 H830 0.931 . S
C846 C840 1.383 . S
C846 C845 1.379 . S
H847 C841 0.959 . S
H848 C841 0.961 . S
H849 C841 0.960 . S
H850 C842 0.930 . S
H851 C843 0.929 . S
H852 C860 0.929 . S
H853 C862 0.930 . S
H854 C864 0.930 . S
H855 C867 0.929 . S
H856 C870 0.930 . S
H857 C872 0.960 . S
H858 C872 0.960 . S
H859 C872 0.960 . S
C860 H852 0.929 . S
C860 C861 1.377 . S
C860 C862 1.384 . S
C861 C860 1.377 . S
C861 C867 1.390 . S
C862 H853 0.930 . S
C862 C860 1.384 . S
C862 C863 1.372 . S
C863 C862 1.372 . S
C863 C864 1.400 . S
C863 C868 1.490 . S
C864 H854 0.930 . S
C864 C863 1.400 . S
C864 C867 1.386 . S
H865 C881 0.930 . S
H866 C882 0.931 . S
C867 H855 0.929 . S
C867 C861 1.390 . S
C867 C864 1.386 . S
C868 C863 1.490 . S
C868 C870 1.395 . S
C868 C871 1.403 . S
H869 C875 0.930 . S
C870 H856 0.930 . S
C870 C868 1.395 . S
C870 C873 1.403 . S
C871 C868 1.403 . S
C871 C872 1.524 . S
C871 C875 1.400 . S
C872 H857 0.960 . S
C872 H858 0.960 . S
C872 H859 0.960 . S
C872 C871 1.524 . S
C873 C870 1.403 . S
C873 C874 1.392 . S
C873 C877 1.495 . S
C874 C873 1.392 . S
C874 C875 1.385 . S
C874 C876 1.478 . S
C875 H869 0.930 . S
C875 C871 1.400 . S
C875 C874 1.385 . S
C876 C874 1.478 . S
C876 C878 1.381 . S
C876 C882 1.383 . S
C877 C873 1.495 . S
C877 H883 0.959 . S
C877 H884 0.961 . S
C877 H885 0.960 . S
C878 C876 1.381 . S
C878 C879 1.394 . S
C878 H886 0.930 . S
C879 C878 1.394 . S
C879 C880 1.383 . S
C879 H887 0.929 . S
C880 C879 1.383 . S
C880 C881 1.377 . S
C881 H865 0.930 . S
C881 C880 1.377 . S
C881 C882 1.379 . S
C882 H866 0.931 . S
C882 C876 1.383 . S
C882 C881 1.379 . S
H883 C877 0.959 . S
H884 C877 0.961 . S
H885 C877 0.960 . S
H886 C878 0.930 . S
H887 C879 0.929 . S
H888 C896 0.949 . S
H889 C898 0.930 1_655 S
H890 C900 0.930 . S
H891 C903 0.929 . S
H892 C906 0.930 . S
H893 C908 0.960 . S
H894 C908 0.960 . S
H895 C908 0.960 . S
C896 H888 0.949 . S
C896 C897 1.377 . S
C896 C898 1.384 . S
C897 C896 1.377 . S
C897 C903 1.390 . S
C898 H889 0.930 1_455 S
C898 C896 1.384 . S
C898 C899 1.372 . S
C899 C898 1.372 . S
C899 C900 1.400 . S
C899 C904 1.490 . S
C900 H890 0.930 . S
C900 C899 1.400 . S
C900 C903 1.386 . S
H901 C917 0.930 . S
H902 C918 0.931 . S
C903 H891 0.929 . S
C903 C897 1.390 . S
C903 C900 1.386 . S
C904 C899 1.490 . S
C904 C906 1.395 . S
C904 C907 1.403 . S
H905 C911 0.930 . S
C906 H892 0.930 . S
C906 C904 1.395 . S
C906 C909 1.403 . S
C907 C904 1.403 . S
C907 C908 1.524 1_556 S
C907 C911 1.400 . S
C908 H893 0.960 . S
C908 H894 0.960 . S
C908 H895 0.960 . S
C908 C907 1.524 1_554 S
C909 C906 1.403 . S
C909 C910 1.392 . S
C909 C913 1.495 . S
C910 C909 1.392 . S
C910 C911 1.385 . S
C910 C912 1.478 . S
C911 H905 0.930 . S
C911 C907 1.400 . S
C911 C910 1.385 . S
C912 C910 1.478 . S
C912 C914 1.381 . S
C912 C918 1.383 . S
C913 C909 1.495 . S
C913 H919 0.959 . S
C913 H920 0.961 . S
C913 H921 0.960 . S
C914 C912 1.381 . S
C914 C915 1.394 . S
C914 H922 0.930 1_455 S
C915 C914 1.394 . S
C915 C916 1.383 . S
C915 H923 0.929 1_455 S
C916 C915 1.383 . S
C916 C917 1.377 . S
C917 H901 0.930 . S
C917 C916 1.377 . S
C917 C918 1.379 . S
C918 H902 0.931 . S
C918 C912 1.383 . S
C918 C917 1.379 . S
H919 C913 0.959 . S
H920 C913 0.961 . S
H921 C913 0.960 . S
H922 C914 0.930 1_655 S
H923 C915 0.929 1_655 S
H924 C932 0.929 . S
H925 C934 0.930 . S
H926 C936 0.930 . S
H927 C939 0.929 . S
H928 C942 0.930 . S
H929 C944 0.960 . S
H930 C944 0.960 1_565 S
H931 C944 0.960 . S
C932 H924 0.929 . S
C932 C933 1.377 1_565 S
C932 C934 1.384 1_554 S
C933 C932 1.377 1_545 S
C933 C939 1.390 . S
C934 H925 0.930 . S
C934 C932 1.384 1_556 S
C934 C935 1.372 1_566 S
C935 C934 1.372 1_544 S
C935 C936 1.400 . S
C935 C940 1.490 1_554 S
C936 H926 0.930 . S
C936 C935 1.400 . S
C936 C939 1.386 . S
H937 C953 0.930 . S
H938 C954 0.931 . S
C939 H927 0.929 . S
C939 C933 1.390 . S
C939 C936 1.386 . S
C940 C935 1.490 1_556 S
C940 C942 1.395 . S
C940 C943 1.403 1_556 S
H941 C947 0.930 1_554 S
C942 H928 0.930 . S
C942 C940 1.395 . S
C942 C945 1.403 . S
C943 C940 1.403 1_554 S
C943 C944 1.524 . S
C943 C947 1.400 1_554 S
C944 H929 0.960 . S
C944 H930 0.960 1_545 S
C944 H931 0.960 . S
C944 C943 1.524 . S
C945 C942 1.403 . S
C945 C946 1.392 . S
C945 C949 1.495 . S
C946 C945 1.392 . S
C946 C947 1.385 . S
C946 C948 1.478 . S
C947 H941 0.930 1_556 S
C947 C943 1.400 1_556 S
C947 C946 1.385 . S
C948 C946 1.478 . S
C948 C950 1.381 1_545 S
C948 C954 1.383 . S
C949 C945 1.495 . S
C949 H955 0.959 . S
C949 H956 0.961 . S
C949 H957 0.960 . S
C950 C948 1.381 1_565 S
C950 C951 1.394 . S
C950 H958 0.930 . S
C951 C950 1.394 . S
C951 C952 1.383 1_565 S
C951 H959 0.929 . S
C952 C951 1.383 1_545 S
C952 C953 1.377 . S
C953 H937 0.930 . S
C953 C952 1.377 . S
C953 C954 1.379 . S
C954 H938 0.931 . S
C954 C948 1.383 . S
C954 C953 1.379 . S
H955 C949 0.959 . S
H956 C949 0.961 . S
H957 C949 0.960 . S
H958 C950 0.930 . S
H959 C951 0.929 . S
H960 C968 0.929 . S
H961 C970 0.930 . S
H962 C972 0.930 . S
H963 C975 0.929 . S
H964 C978 0.930 . S
H965 C980 0.960 . S
H966 C980 0.960 . S
H967 C980 0.960 . S
C968 H960 0.929 . S
C968 C969 1.377 . S
C968 C970 1.384 . S
C969 C968 1.377 . S
C969 C975 1.390 . S
C970 H961 0.930 . S
C970 C968 1.384 . S
C970 C971 1.372 . S
C971 C970 1.372 . S
C971 C972 1.400 . S
C971 C976 1.490 . S
C972 H962 0.930 . S
C972 C971 1.400 . S
C972 C975 1.386 . S
H973 C989 0.930 . S
H974 C990 0.931 . S
C975 H963 0.929 . S
C975 C969 1.390 . S
C975 C972 1.386 . S
C976 C971 1.490 . S
C976 C978 1.395 . S
C976 C979 1.403 . S
H977 C983 0.930 . S
C978 H964 0.930 . S
C978 C976 1.395 . S
C978 C981 1.403 1_554 S
C979 C976 1.403 . S
C979 C980 1.524 . S
C979 C983 1.400 . S
C980 H965 0.960 . S
C980 H966 0.960 . S
C980 H967 0.960 . S
C980 C979 1.524 . S
C981 C978 1.403 1_556 S
C981 C982 1.392 1_556 S
C981 C985 1.495 . S
C982 C981 1.392 1_554 S
C982 C983 1.385 . S
C982 C984 1.478 1_554 S
C983 H977 0.930 . S
C983 C979 1.400 . S
C983 C982 1.385 . S
C984 C982 1.478 1_556 S
C984 C986 1.381 . S
C984 C990 1.383 . S
C985 C981 1.495 . S
C985 H991 0.959 . S
C985 H992 0.961 . S
C985 H993 0.960 . S
C986 C984 1.381 . S
C986 C987 1.394 . S
C986 H994 0.930 . S
C987 C986 1.394 . S
C987 C988 1.383 . S
C987 H995 0.929 . S
C988 C987 1.383 . S
C988 C989 1.377 . S
C989 H973 0.930 . S
C989 C988 1.377 . S
C989 C990 1.379 . S
C990 H974 0.931 . S
C990 C984 1.383 . S
C990 C989 1.379 . S
H991 C985 0.959 . S
H992 C985 0.961 . S
H993 C985 0.960 . S
H994 C986 0.930 . S
H995 C987 0.929 . S
H996 C1004 0.929 . S
H997 C1006 0.930 . S
H998 C1008 0.930 . S
H999 C1011 0.929 . S
H1000 C1014 0.930 . S
H1001 C1016 0.960 . S
H1002 C1016 0.960 . S
H1003 C1016 0.960 . S
C1004 H996 0.929 . S
C1004 C1005 1.377 . S
C1004 C1006 1.384 . S
C1005 C1004 1.377 . S
C1005 C1011 1.390 . S
C1006 H997 0.930 . S
C1006 C1004 1.384 . S
C1006 C1007 1.372 . S
C1007 C1006 1.372 . S
C1007 C1008 1.400 . S
C1007 C1012 1.490 . S
C1008 H998 0.930 . S
C1008 C1007 1.400 . S
C1008 C1011 1.386 . S
H1009 C1025 0.930 . S
H1010 C1026 0.931 . S
C1011 H999 0.929 . S
C1011 C1005 1.390 . S
C1011 C1008 1.386 . S
C1012 C1007 1.490 . S
C1012 C1014 1.395 . S
C1012 C1015 1.403 . S
H1013 C1019 0.930 . S
C1014 H1000 0.930 . S
C1014 C1012 1.395 . S
C1014 C1017 1.403 . S
C1015 C1012 1.403 . S
C1015 C1016 1.524 . S
C1015 C1019 1.400 . S
C1016 H1001 0.960 . S
C1016 H1002 0.960 . S
C1016 H1003 0.960 . S
C1016 C1015 1.524 . S
C1017 C1014 1.403 . S
C1017 C1018 1.392 . S
C1017 C1021 1.495 . S
C1018 C1017 1.392 . S
C1018 C1019 1.385 . S
C1018 C1020 1.478 . S
C1019 H1013 0.930 . S
C1019 C1015 1.400 . S
C1019 C1018 1.385 . S
C1020 C1018 1.478 . S
C1020 C1022 1.381 . S
C1020 C1026 1.383 . S
C1021 C1017 1.495 . S
C1021 H1027 0.959 1_556 S
C1021 H1028 0.961 . S
C1021 H1029 0.960 . S
C1022 C1020 1.381 . S
C1022 C1023 1.394 . S
C1022 H1030 0.930 . S
C1023 C1022 1.394 . S
C1023 C1024 1.383 . S
C1023 H1031 0.929 . S
C1024 C1023 1.383 . S
C1024 C1025 1.377 . S
C1025 H1009 0.930 . S
C1025 C1024 1.377 . S
C1025 C1026 1.379 . S
C1026 H1010 0.931 . S
C1026 C1020 1.383 . S
C1026 C1025 1.379 . S
H1027 C1021 0.959 1_554 S
H1028 C1021 0.961 . S
H1029 C1021 0.960 . S
H1030 C1022 0.930 . S
H1031 C1023 0.929 . S
H1032 C1040 0.929 . S
H1033 C1042 0.930 . S
H1034 C1044 0.930 . S
H1035 C1047 0.929 . S
H1036 C1050 0.930 . S
H1037 C1052 0.960 . S
H1038 C1052 0.960 . S
H1039 C1052 0.960 . S
C1040 H1032 0.929 . S
C1040 C1041 1.377 1_455 S
C1040 C1042 1.384 . S
C1041 C1040 1.377 1_655 S
C1041 C1047 1.390 . S
C1042 H1033 0.930 . S
C1042 C1040 1.384 . S
C1042 C1043 1.372 1_455 S
C1043 C1042 1.372 1_655 S
C1043 C1044 1.400 . S
C1043 C1048 1.490 . S
C1044 H1034 0.930 . S
C1044 C1043 1.400 . S
C1044 C1047 1.386 . S
H1045 C1061 0.930 . S
H1046 C1062 0.931 . S
C1047 H1035 0.929 . S
C1047 C1041 1.390 . S
C1047 C1044 1.386 . S
C1048 C1043 1.490 . S
C1048 C1050 1.395 . S
C1048 C1051 1.403 1_655 S
H1049 C1055 0.930 . S
C1050 H1036 0.930 . S
C1050 C1048 1.395 . S
C1050 C1053 1.403 . S
C1051 C1048 1.403 1_455 S
C1051 C1052 1.524 . S
C1051 C1055 1.400 . S
C1052 H1037 0.960 . S
C1052 H1038 0.960 . S
C1052 H1039 0.960 . S
C1052 C1051 1.524 . S
C1053 C1050 1.403 . S
C1053 C1054 1.392 . S
C1053 C1057 1.495 . S
C1054 C1053 1.392 . S
C1054 C1055 1.385 1_655 S
C1054 C1056 1.478 . S
C1055 H1049 0.930 . S
C1055 C1051 1.400 . S
C1055 C1054 1.385 1_455 S
C1056 C1054 1.478 . S
C1056 C1058 1.381 1_655 S
C1056 C1062 1.383 . S
C1057 C1053 1.495 . S
C1057 H1063 0.959 . S
C1057 H1064 0.961 . S
C1057 H1065 0.960 . S
C1058 C1056 1.381 1_455 S
C1058 C1059 1.394 . S
C1058 H1066 0.930 . S
C1059 C1058 1.394 . S
C1059 C1060 1.401 . S
C1059 H1067 0.929 . S
C1060 C1059 1.401 . S
C1060 C1061 1.352 1_455 S
C1061 H1045 0.930 . S
C1061 C1060 1.352 1_655 S
C1061 C1062 1.379 . S
C1062 H1046 0.931 . S
C1062 C1056 1.383 . S
C1062 C1061 1.379 . S
H1063 C1057 0.959 . S
H1064 C1057 0.961 . S
H1065 C1057 0.960 . S
H1066 C1058 0.930 . S
H1067 C1059 0.929 . S
H1068 C1076 0.929 . S
H1069 C1078 0.930 . S
H1070 C1080 0.930 . S
H1071 C1083 0.929 . S
H1072 C1086 0.930 . S
H1073 C1088 0.960 . S
H1074 C1088 0.960 . S
H1075 C1088 0.960 . S
C1076 H1068 0.929 . S
C1076 C1077 1.377 1_545 S
C1076 C1078 1.384 . S
C1077 C1076 1.377 1_565 S
C1077 C1083 1.390 . S
C1078 H1069 0.930 . S
C1078 C1076 1.384 . S
C1078 C1079 1.372 1_545 S
C1079 C1078 1.372 1_565 S
C1079 C1080 1.400 . S
C1079 C1084 1.490 . S
C1080 H1070 0.930 . S
C1080 C1079 1.400 . S
C1080 C1083 1.386 . S
H1081 C1097 0.930 . S
H1082 C1098 0.931 . S
C1083 H1071 0.929 . S
C1083 C1077 1.390 . S
C1083 C1080 1.386 . S
C1084 C1079 1.490 . S
C1084 C1086 1.395 1_565 S
C1084 C1087 1.403 . S
H1085 C1091 0.930 . S
C1086 H1072 0.930 . S
C1086 C1084 1.395 1_545 S
C1086 C1089 1.403 . S
C1087 C1084 1.403 . S
C1087 C1088 1.524 . S
C1087 C1091 1.400 . S
C1088 H1073 0.960 . S
C1088 H1074 0.960 . S
C1088 H1075 0.960 . S
C1088 C1087 1.524 . S
C1089 C1086 1.403 . S
C1089 C1090 1.392 1_545 S
C1089 C1093 1.495 . S
C1090 C1089 1.392 1_565 S
C1090 C1091 1.385 . S
C1090 C1092 1.478 . S
C1091 H1085 0.930 . S
C1091 C1087 1.400 . S
C1091 C1090 1.385 . S
C1092 C1090 1.478 . S
C1092 C1094 1.381 1_565 S
C1092 C1098 1.383 . S
C1093 C1089 1.495 . S
C1093 H1099 0.959 . S
C1093 H1100 0.961 . S
C1093 H1101 0.960 . S
C1094 C1092 1.381 1_545 S
C1094 C1095 1.394 . S
C1094 H1102 0.930 . S
C1095 C1094 1.394 . S
C1095 C1096 1.383 1_545 S
C1095 H1103 0.929 . S
C1096 C1095 1.383 1_565 S
C1096 C1097 1.377 . S
C1097 H1081 0.930 . S
C1097 C1096 1.377 . S
C1097 C1098 1.379 . S
C1098 H1082 0.931 . S
C1098 C1092 1.383 . S
C1098 C1097 1.379 . S
H1099 C1093 0.959 . S
H1100 C1093 0.961 . S
H1101 C1093 0.960 . S
H1102 C1094 0.930 . S
H1103 C1095 0.929 . S
H1104 C1112 0.929 . S
H1105 C1114 0.930 . S
H1106 C1116 0.930 . S
H1107 C1119 0.929 . S
H1108 C1122 0.930 . S
H1109 C1124 0.960 . S
H1110 C1124 0.960 . S
H1111 C1124 0.960 . S
C1112 H1104 0.929 . S
C1112 C1113 1.377 . S
C1112 C1114 1.384 . S
C1113 C1112 1.377 . S
C1113 C1119 1.390 . S
C1114 H1105 0.930 . S
C1114 C1112 1.384 . S
C1114 C1115 1.372 . S
C1115 C1114 1.372 . S
C1115 C1116 1.400 . S
C1115 C1120 1.490 . S
C1116 H1106 0.930 . S
C1116 C1115 1.400 . S
C1116 C1119 1.386 . S
H1117 C1133 0.930 . S
H1118 C1134 0.931 . S
C1119 H1107 0.929 . S
C1119 C1113 1.390 . S
C1119 C1116 1.386 . S
C1120 C1115 1.490 . S
C1120 C1122 1.395 . S
C1120 C1123 1.403 . S
H1121 C1127 0.930 . S
C1122 H1108 0.930 . S
C1122 C1120 1.395 . S
C1122 C1125 1.403 . S
C1123 C1120 1.403 . S
C1123 C1124 1.524 . S
C1123 C1127 1.400 . S
C1124 H1109 0.960 . S
C1124 H1110 0.960 . S
C1124 H1111 0.960 . S
C1124 C1123 1.524 . S
C1125 C1122 1.403 . S
C1125 C1126 1.392 . S
C1125 C1129 1.495 . S
C1126 C1125 1.392 . S
C1126 C1127 1.385 . S
C1126 C1128 1.478 . S
C1127 H1121 0.930 . S
C1127 C1123 1.400 . S
C1127 C1126 1.385 . S
C1128 C1126 1.478 . S
C1128 C1130 1.381 . S
C1128 C1134 1.383 . S
C1129 C1125 1.495 . S
C1129 H1135 0.959 . S
C1129 H1136 0.961 . S
C1129 H1137 0.960 . S
C1130 C1128 1.381 . S
C1130 C1131 1.394 . S
C1130 H1138 0.930 . S
C1131 C1130 1.394 . S
C1131 C1132 1.383 . S
C1131 H1139 0.929 . S
C1132 C1131 1.383 . S
C1132 C1133 1.377 . S
C1133 H1117 0.930 . S
C1133 C1132 1.377 . S
C1133 C1134 1.379 . S
C1134 H1118 0.931 . S
C1134 C1128 1.383 . S
C1134 C1133 1.379 . S
H1135 C1129 0.959 . S
H1136 C1129 0.961 . S
H1137 C1129 0.960 . S
H1138 C1130 0.930 . S
H1139 C1131 0.929 . S
H1140 C1148 0.929 . S
H1141 C1150 0.930 . S
H1142 C1152 0.930 . S
H1143 C1155 0.929 . S
H1144 C1158 0.930 . S
H1145 C1160 0.960 . S
H1146 C1160 0.960 . S
H1147 C1160 0.960 . S
C1148 H1140 0.929 . S
C1148 C1149 1.377 . S
C1148 C1150 1.384 . S
C1149 C1148 1.377 . S
C1149 C1155 1.390 . S
C1150 H1141 0.930 . S
C1150 C1148 1.384 . S
C1150 C1151 1.372 . S
C1151 C1150 1.372 . S
C1151 C1152 1.400 . S
C1151 C1156 1.490 . S
C1152 H1142 0.930 . S
C1152 C1151 1.400 . S
C1152 C1155 1.386 . S
H1153 C1169 0.930 . S
H1154 C1170 0.931 . S
C1155 H1143 0.929 . S
C1155 C1149 1.390 . S
C1155 C1152 1.386 . S
C1156 C1151 1.490 . S
C1156 C1158 1.395 . S
C1156 C1159 1.403 . S
H1157 C1163 0.930 . S
C1158 H1144 0.930 . S
C1158 C1156 1.395 . S
C1158 C1161 1.403 . S
C1159 C1156 1.403 . S
C1159 C1160 1.524 . S
C1159 C1163 1.400 . S
C1160 H1145 0.960 . S
C1160 H1146 0.960 . S
C1160 H1147 0.960 . S
C1160 C1159 1.524 . S
C1161 C1158 1.403 . S
C1161 C1162 1.392 . S
C1161 C1165 1.495 . S
C1162 C1161 1.392 . S
C1162 C1163 1.385 . S
C1162 C1164 1.478 . S
C1163 H1157 0.930 . S
C1163 C1159 1.400 . S
C1163 C1162 1.385 . S
C1164 C1162 1.478 . S
C1164 C1166 1.381 . S
C1164 C1170 1.383 . S
C1165 C1161 1.495 . S
C1165 H1171 0.959 . S
C1165 H1172 0.961 . S
C1165 H1173 0.960 . S
C1166 C1164 1.381 . S
C1166 C1167 1.394 . S
C1166 H1174 0.930 . S
C1167 C1166 1.394 . S
C1167 C1168 1.383 . S
C1167 H1175 0.929 . S
C1168 C1167 1.383 . S
C1168 C1169 1.377 . S
C1169 H1153 0.930 . S
C1169 C1168 1.377 . S
C1169 C1170 1.379 . S
C1170 H1154 0.931 . S
C1170 C1164 1.383 . S
C1170 C1169 1.379 . S
H1171 C1165 0.959 . S
H1172 C1165 0.961 . S
H1173 C1165 0.960 . S
H1174 C1166 0.930 . S
H1175 C1167 0.929 . S
C321 C125 1.895 . S
C340 C154 1.948 1_545 S
C376 C194 2.122 . S
C357 C144 2.004 . S
C412 C258 1.820 . S
C393 C87 1.811 . S
C448 C274 1.455 . S
C429 C106 1.422 . S
C484 C175 1.957 1_565 S
C465 C49 1.905 . S
C501 C68 2.072 . S
C520 C215 2.106 . S
C537 C11 1.858 . S
C556 C249 1.821 . S
C573 C30 1.446 . S
C592 C295 1.461 . S
C628 C169 0.291 . S
C609 C97 0.371 . S
C664 C209 0.648 . S
C645 C116 0.675 . S
C700 C245 0.546 . S
C681 C135 0.558 . S
C717 C78 0.432 . S
C736 C289 0.410 . S
C753 C21 0.375 . S
C772 C178 0.271 . S
C808 C218 0.636 . S
C789 C40 0.690 . S
C844 C256 0.619 . S
C825 C59 0.574 . S
C861 C2 0.458 . S
C880 C298 0.432 . S
C897 C101 1.833 1_556 S
C916 C176 1.969 . S
C933 C120 1.827 . S
C952 C216 1.929 . S
C988 C234 1.447 . S
C969 C139 1.467 . S
C1024 C296 2.371 . S
C1005 C82 2.198 . S
C1041 C25 1.836 . S
C1060 C165 1.995 . S
C1096 C205 1.929 . S
C1077 C44 1.834 . S
C1132 C255 1.450 . S
C1113 C63 1.469 . S
C1149 C6 2.194 . S
C1168 C285 2.379 . S
