# Generated by pormake.
# Topology llk, (3,12)-cn, num edge types: 1
# Building blocks:
#     Node 0, Type 0, BuildingBlock: QEWDON_clean_linker_0, # of connection points: 3
#     Node 1, Type 0, BuildingBlock: QEWDON_clean_linker_0, # of connection points: 3
#     Node 2, Type 0, BuildingBlock: QEWDON_clean_linker_0, # of connection points: 3
#     Node 3, Type 0, BuildingBlock: QEWDON_clean_linker_0, # of connection points: 3
#     Node 4, Type 0, BuildingBlock: QEWDON_clean_linker_0, # of connection points: 3
#     Node 5, Type 0, BuildingBlock: QEWDON_clean_linker_0, # of connection points: 3
#     Node 6, Type 0, BuildingBlock: QEWDON_clean_linker_0, # of connection points: 3
#     Node 7, Type 0, BuildingBlock: QEWDON_clean_linker_0, # of connection points: 3
#     Node 8, Type 0, BuildingBlock: QEWDON_clean_linker_0, # of connection points: 3
#     Node 9, Type 0, BuildingBlock: QEWDON_clean_linker_0, # of connection points: 3
#     Node 10, Type 0, BuildingBlock: QEWDON_clean_linker_0, # of connection points: 3
#     Node 11, Type 0, BuildingBlock: QEWDON_clean_linker_0, # of connection points: 3
#     Node 12, Type 0, BuildingBlock: QEWDON_clean_linker_0, # of connection points: 3
#     Node 13, Type 0, BuildingBlock: QEWDON_clean_linker_0, # of connection points: 3
#     Node 14, Type 0, BuildingBlock: QEWDON_clean_linker_0, # of connection points: 3
#     Node 15, Type 0, BuildingBlock: QEWDON_clean_linker_0, # of connection points: 3
#     Node 16, Type 0, BuildingBlock: QEWDON_clean_linker_0, # of connection points: 3
#     Node 17, Type 0, BuildingBlock: QEWDON_clean_linker_0, # of connection points: 3
#     Node 18, Type 0, BuildingBlock: QEWDON_clean_linker_0, # of connection points: 3
#     Node 19, Type 0, BuildingBlock: QEWDON_clean_linker_0, # of connection points: 3
#     Node 20, Type 0, BuildingBlock: QEWDON_clean_linker_0, # of connection points: 3
#     Node 21, Type 0, BuildingBlock: QEWDON_clean_linker_0, # of connection points: 3
#     Node 22, Type 0, BuildingBlock: QEWDON_clean_linker_0, # of connection points: 3
#     Node 23, Type 0, BuildingBlock: QEWDON_clean_linker_0, # of connection points: 3
#     Node 24, Type 1, BuildingBlock: EZIPEK_clean_sbu_0, # of connection points: 12
#     Node 25, Type 1, BuildingBlock: EZIPEK_clean_sbu_0, # of connection points: 12
#     Node 26, Type 1, BuildingBlock: EZIPEK_clean_sbu_0, # of connection points: 12
#     Node 27, Type 1, BuildingBlock: EZIPEK_clean_sbu_0, # of connection points: 12
#     Node 28, Type 1, BuildingBlock: EZIPEK_clean_sbu_0, # of connection points: 12
#     Node 29, Type 1, BuildingBlock: EZIPEK_clean_sbu_0, # of connection points: 12
#     Edge 30, Type (0, 1), BuildingBlock: XIVTED_clean_linker_0, # of connection points: 2
#     Edge 31, Type (0, 1), BuildingBlock: XIVTED_clean_linker_0, # of connection points: 2
#     Edge 32, Type (0, 1), BuildingBlock: XIVTED_clean_linker_0, # of connection points: 2
#     Edge 33, Type (0, 1), BuildingBlock: XIVTED_clean_linker_0, # of connection points: 2
#     Edge 34, Type (0, 1), BuildingBlock: XIVTED_clean_linker_0, # of connection points: 2
#     Edge 35, Type (0, 1), BuildingBlock: XIVTED_clean_linker_0, # of connection points: 2
#     Edge 36, Type (0, 1), BuildingBlock: XIVTED_clean_linker_0, # of connection points: 2
#     Edge 37, Type (0, 1), BuildingBlock: XIVTED_clean_linker_0, # of connection points: 2
#     Edge 38, Type (0, 1), BuildingBlock: XIVTED_clean_linker_0, # of connection points: 2
#     Edge 39, Type (0, 1), BuildingBlock: XIVTED_clean_linker_0, # of connection points: 2
#     Edge 40, Type (0, 1), BuildingBlock: XIVTED_clean_linker_0, # of connection points: 2
#     Edge 41, Type (0, 1), BuildingBlock: XIVTED_clean_linker_0, # of connection points: 2
#     Edge 42, Type (0, 1), BuildingBlock: XIVTED_clean_linker_0, # of connection points: 2
#     Edge 43, Type (0, 1), BuildingBlock: XIVTED_clean_linker_0, # of connection points: 2
#     Edge 44, Type (0, 1), BuildingBlock: XIVTED_clean_linker_0, # of connection points: 2
#     Edge 45, Type (0, 1), BuildingBlock: XIVTED_clean_linker_0, # of connection points: 2
#     Edge 46, Type (0, 1), BuildingBlock: XIVTED_clean_linker_0, # of connection points: 2
#     Edge 47, Type (0, 1), BuildingBlock: XIVTED_clean_linker_0, # of connection points: 2
#     Edge 48, Type (0, 1), BuildingBlock: XIVTED_clean_linker_0, # of connection points: 2
#     Edge 49, Type (0, 1), BuildingBlock: XIVTED_clean_linker_0, # of connection points: 2
#     Edge 50, Type (0, 1), BuildingBlock: XIVTED_clean_linker_0, # of connection points: 2
#     Edge 51, Type (0, 1), BuildingBlock: XIVTED_clean_linker_0, # of connection points: 2
#     Edge 52, Type (0, 1), BuildingBlock: XIVTED_clean_linker_0, # of connection points: 2
#     Edge 53, Type (0, 1), BuildingBlock: XIVTED_clean_linker_0, # of connection points: 2
#     Edge 54, Type (0, 1), BuildingBlock: XIVTED_clean_linker_0, # of connection points: 2
#     Edge 55, Type (0, 1), BuildingBlock: XIVTED_clean_linker_0, # of connection points: 2
#     Edge 56, Type (0, 1), BuildingBlock: XIVTED_clean_linker_0, # of connection points: 2
#     Edge 57, Type (0, 1), BuildingBlock: XIVTED_clean_linker_0, # of connection points: 2
#     Edge 58, Type (0, 1), BuildingBlock: XIVTED_clean_linker_0, # of connection points: 2
#     Edge 59, Type (0, 1), BuildingBlock: XIVTED_clean_linker_0, # of connection points: 2
#     Edge 60, Type (0, 1), BuildingBlock: XIVTED_clean_linker_0, # of connection points: 2
#     Edge 61, Type (0, 1), BuildingBlock: XIVTED_clean_linker_0, # of connection points: 2
#     Edge 62, Type (0, 1), BuildingBlock: XIVTED_clean_linker_0, # of connection points: 2
#     Edge 63, Type (0, 1), BuildingBlock: XIVTED_clean_linker_0, # of connection points: 2
#     Edge 64, Type (0, 1), BuildingBlock: XIVTED_clean_linker_0, # of connection points: 2
#     Edge 65, Type (0, 1), BuildingBlock: XIVTED_clean_linker_0, # of connection points: 2
#     Edge 66, Type (0, 1), BuildingBlock: XIVTED_clean_linker_0, # of connection points: 2
#     Edge 67, Type (0, 1), BuildingBlock: XIVTED_clean_linker_0, # of connection points: 2
#     Edge 68, Type (0, 1), BuildingBlock: XIVTED_clean_linker_0, # of connection points: 2
#     Edge 69, Type (0, 1), BuildingBlock: XIVTED_clean_linker_0, # of connection points: 2
#     Edge 70, Type (0, 1), BuildingBlock: XIVTED_clean_linker_0, # of connection points: 2
#     Edge 71, Type (0, 1), BuildingBlock: XIVTED_clean_linker_0, # of connection points: 2
#     Edge 72, Type (0, 1), BuildingBlock: XIVTED_clean_linker_0, # of connection points: 2
#     Edge 73, Type (0, 1), BuildingBlock: XIVTED_clean_linker_0, # of connection points: 2
#     Edge 74, Type (0, 1), BuildingBlock: XIVTED_clean_linker_0, # of connection points: 2
#     Edge 75, Type (0, 1), BuildingBlock: XIVTED_clean_linker_0, # of connection points: 2
#     Edge 76, Type (0, 1), BuildingBlock: XIVTED_clean_linker_0, # of connection points: 2
#     Edge 77, Type (0, 1), BuildingBlock: XIVTED_clean_linker_0, # of connection points: 2
#     Edge 78, Type (0, 1), BuildingBlock: XIVTED_clean_linker_0, # of connection points: 2
#     Edge 79, Type (0, 1), BuildingBlock: XIVTED_clean_linker_0, # of connection points: 2
#     Edge 80, Type (0, 1), BuildingBlock: XIVTED_clean_linker_0, # of connection points: 2
#     Edge 81, Type (0, 1), BuildingBlock: XIVTED_clean_linker_0, # of connection points: 2
#     Edge 82, Type (0, 1), BuildingBlock: XIVTED_clean_linker_0, # of connection points: 2
#     Edge 83, Type (0, 1), BuildingBlock: XIVTED_clean_linker_0, # of connection points: 2
#     Edge 84, Type (0, 1), BuildingBlock: XIVTED_clean_linker_0, # of connection points: 2
#     Edge 85, Type (0, 1), BuildingBlock: XIVTED_clean_linker_0, # of connection points: 2
#     Edge 86, Type (0, 1), BuildingBlock: XIVTED_clean_linker_0, # of connection points: 2
#     Edge 87, Type (0, 1), BuildingBlock: XIVTED_clean_linker_0, # of connection points: 2
#     Edge 88, Type (0, 1), BuildingBlock: XIVTED_clean_linker_0, # of connection points: 2
#     Edge 89, Type (0, 1), BuildingBlock: XIVTED_clean_linker_0, # of connection points: 2
#     Edge 90, Type (0, 1), BuildingBlock: XIVTED_clean_linker_0, # of connection points: 2
#     Edge 91, Type (0, 1), BuildingBlock: XIVTED_clean_linker_0, # of connection points: 2
#     Edge 92, Type (0, 1), BuildingBlock: XIVTED_clean_linker_0, # of connection points: 2
#     Edge 93, Type (0, 1), BuildingBlock: XIVTED_clean_linker_0, # of connection points: 2
#     Edge 94, Type (0, 1), BuildingBlock: XIVTED_clean_linker_0, # of connection points: 2
#     Edge 95, Type (0, 1), BuildingBlock: XIVTED_clean_linker_0, # of connection points: 2
#     Edge 96, Type (0, 1), BuildingBlock: XIVTED_clean_linker_0, # of connection points: 2
#     Edge 97, Type (0, 1), BuildingBlock: XIVTED_clean_linker_0, # of connection points: 2
#     Edge 98, Type (0, 1), BuildingBlock: XIVTED_clean_linker_0, # of connection points: 2
#     Edge 99, Type (0, 1), BuildingBlock: XIVTED_clean_linker_0, # of connection points: 2
#     Edge 100, Type (0, 1), BuildingBlock: XIVTED_clean_linker_0, # of connection points: 2
#     Edge 101, Type (0, 1), BuildingBlock: XIVTED_clean_linker_0, # of connection points: 2
# Relax obj value: 0.088
# Max RMSD: 0.249
# Mean RMSD: 0.190
data_MOF--net-llk--node1-EZIPEK_clean_sbu_0--node2-QEWDON_clean_linker_0--edge1-XIVTED_clean_linker_0
_symmetry_space_group_name_H-M    P1
_symmetry_Int_Tables_number       1
_symmetry_cell_setting            triclinic
loop_
_symmetry_equiv_pos_as_xyz
'x, y, z'
_cell_length_a     49.681142
_cell_length_b     49.213729
_cell_length_c     48.720123
_cell_angle_alpha  89.968347
_cell_angle_beta   89.994999
_cell_angle_gamma 89.960116
loop_
_atom_site_label
_atom_site_type_symbol
_atom_site_fract_x
_atom_site_fract_y
_atom_site_fract_z
_atom_type_partial_charge
H0 H 0.99987 0.2957 0.27603 0.0
C1 C 1.00379 0.27661 0.28633 0.0
C2 C 0.01136 0.27694 0.31406 0.0
C3 C 1.00104 0.25188 0.27203 0.0
H4 H 0.01957 0.25242 0.34957 0.0
C5 C 0.01536 0.25223 0.32775 0.0
C6 C 0.0129 0.22733 0.31404 0.0
C7 C 0.00595 0.2273 0.28608 0.0
C8 C 0.99245 0.25183 0.24269 0.0
H9 H 0.00465 0.20813 0.27526 0.0
C10 C 1.00029 0.27298 0.22488 0.0
C11 C 0.99084 0.27409 0.1977 0.0
C12 C 0.97555 0.23122 0.23249 0.0
H13 H 0.96859 0.21493 0.24562 0.0
C14 C 0.96676 0.23179 0.20529 0.0
H15 H 0.01392 0.2886 0.23204 0.0
C16 C 0.9742 0.2531 0.188 0.0
H17 H 0.96638 0.25349 0.16725 0.0
H18 H 0.95365 0.2159 0.19773 0.0
H19 H 0.74585 0.02216 0.30137 0.0
C20 C 0.7358 0.01647 0.2825 0.0
C21 C 0.70778 0.01297 0.28266 0.0
C22 C 0.75054 0.01419 0.25788 0.0
H23 H 0.67277 0.00454 0.25822 0.0
C24 C 0.69447 0.00685 0.25807 0.0
C25 C 0.70858 0.0043 0.23329 0.0
C26 C 0.73666 0.00781 0.23338 0.0
C27 C 0.78007 0.01994 0.25747 0.0
H28 H 0.74766 0.00542 0.21434 0.0
C29 C 0.79677 0.01299 0.27991 0.0
C30 C 0.82443 0.01944 0.27974 0.0
C31 C 0.79163 0.03336 0.23484 0.0
H32 H 0.77945 0.03974 0.21757 0.0
C33 C 0.81901 0.03948 0.23444 0.0
H34 H 0.7884 0.00225 0.29734 0.0
C35 C 0.8353 0.03266 0.25668 0.0
H36 H 0.85635 0.03832 0.25604 0.0
H37 H 0.82758 0.04995 0.21696 0.0
H38 H 1.00229 0.73498 0.30323 0.0
C39 C 0.00427 0.72411 0.28403 0.0
C40 C 0.01136 0.69653 0.28473 0.0
C41 C 0.99931 0.73742 0.25885 0.0
H42 H 0.0173 0.66045 0.26058 0.0
C43 C 0.0126 0.68196 0.26011 0.0
C44 C 0.00699 0.69442 0.23492 0.0
C45 C 1.00113 0.72232 0.23428 0.0
C46 C 0.99107 0.76663 0.25848 0.0
H47 H 0.99739 0.73197 0.21467 0.0
C48 C 1.00045 0.78478 0.27873 0.0
C49 C 0.9911 0.81174 0.27988 0.0
C50 C 0.97281 0.77638 0.23866 0.0
H51 H 0.9645 0.76307 0.22316 0.0
C52 C 0.96427 0.80339 0.23908 0.0
H53 H 0.01509 0.77803 0.29373 0.0
C54 C 0.97317 0.82095 0.25961 0.0
H55 H 0.96539 0.84151 0.26005 0.0
H56 H 0.95012 0.81057 0.2238 0.0
H57 H 0.28743 0.98236 0.3016 0.0
C58 C 0.29669 0.98793 0.28227 0.0
C59 C 0.32457 0.99225 0.28141 0.0
C60 C 0.28103 0.98948 0.25821 0.0
H61 H 0.35847 1.00123 0.25553 0.0
C62 C 0.33688 0.99817 0.25622 0.0
C63 C 0.32186 0.99973 0.2319 0.0
C64 C 0.2939 0.9955 0.23305 0.0
C65 C 0.25152 0.98386 0.25932 0.0
H66 H 0.2822 0.99724 0.21438 0.0
C67 C 0.23604 0.9913 0.28248 0.0
C68 C 0.20841 0.98514 0.28389 0.0
C69 C 0.23872 0.97028 0.23752 0.0
H70 H 0.24995 0.96359 0.21972 0.0
C71 C 0.21127 0.96447 0.23867 0.0
H72 H 0.24531 0.00227 0.29927 0.0
C73 C 0.19619 0.97179 0.26165 0.0
H74 H 0.17504 0.9665 0.26223 0.0
H75 H 0.2017 0.95391 0.22182 0.0
H76 H 0.99914 0.70666 0.74036 0.0
C77 C 1.00132 0.72568 0.72944 0.0
C78 C 0.0085 0.725 0.70161 0.0
C79 C 0.99658 0.75059 0.74296 0.0
H80 H 0.01487 0.74899 0.66528 0.0
C81 C 0.01005 0.74943 0.68697 0.0
C82 C 0.00466 0.77439 0.69964 0.0
C83 C 0.99868 0.77495 0.7278 0.0
C84 C 0.98833 0.75086 0.77245 0.0
H85 H 0.99509 0.79434 0.73762 0.0
C86 C 0.99735 0.73045 0.79059 0.0
C87 C 0.98785 0.72907 0.81772 0.0
C88 C 0.97037 0.77068 0.78247 0.0
H89 H 0.96235 0.78634 0.76919 0.0
C90 C 0.96176 0.77007 0.80974 0.0
H91 H 0.01181 0.71547 0.7837 0.0
C92 C 0.97026 0.74933 0.82725 0.0
H93 H 0.96242 0.74873 0.84798 0.0
H94 H 0.94786 0.78535 0.81714 0.0
H95 H 0.28373 0.01078 0.71179 0.0
C96 C 0.29434 0.00935 0.73113 0.0
C97 C 0.32192 0.00318 0.73079 0.0
C98 C 0.28071 0.01418 0.75608 0.0
H99 H 0.35765 0.99883 0.75534 0.0
C100 C 0.33618 0.00275 0.75558 0.0
C101 C 0.32343 0.00817 0.78063 0.0
C102 C 0.29554 0.01302 0.78088 0.0
C103 C 0.25151 0.02192 0.75596 0.0
H104 H 0.28571 0.01657 0.80037 0.0
C105 C 0.23387 0.01258 0.73519 0.0
C106 C 0.20687 0.02134 0.73412 0.0
C107 C 0.24125 0.03981 0.77598 0.0
H108 H 0.25406 0.04825 0.79176 0.0
C109 C 0.21435 0.04788 0.77546 0.0
H110 H 0.24093 0.99836 0.71985 0.0
C111 C 0.19728 0.03885 0.75469 0.0
H112 H 0.17674 0.04622 0.75432 0.0
H113 H 0.20682 0.06172 0.79093 0.0
H114 H 0.99941 0.26892 0.71385 0.0
C115 C 0.004 0.27904 0.73299 0.0
C116 C 0.01179 0.30645 0.73228 0.0
C117 C 1.00195 0.26498 0.75818 0.0
H118 H 0.02033 0.34185 0.7565 0.0
C119 C 0.01624 0.32023 0.757 0.0
C120 C 0.01432 0.30691 0.7823 0.0
C121 C 0.00774 0.27917 0.78271 0.0
C122 C 0.99323 0.23583 0.75908 0.0
H123 H 0.00729 0.26874 0.80227 0.0
C124 C 0.99855 0.2179 0.73706 0.0
C125 C 0.98973 0.19066 0.73775 0.0
C126 C 0.97893 0.22581 0.78192 0.0
H127 H 0.97342 0.23889 0.79885 0.0
C128 C 0.97104 0.19869 0.78317 0.0
H129 H 0.00928 0.22515 0.7192 0.0
C130 C 0.97647 0.1812 0.76141 0.0
H131 H 0.97016 0.16022 0.7632 0.0
H132 H 0.96038 0.19123 0.80104 0.0
H133 H 0.72204 0.01568 0.73871 0.0
C134 C 0.74067 0.01098 0.72827 0.0
C135 C 0.74005 0.00834 0.69962 0.0
C136 C 0.76516 0.00906 0.74293 0.0
H137 H 0.76367 0.00215 0.66319 0.0
C138 C 0.76417 0.00435 0.68533 0.0
C139 C 0.78893 0.00345 0.69903 0.0
C140 C 0.78919 0.00467 0.72784 0.0
C141 C 0.76582 0.01328 0.77351 0.0
H142 H 0.80834 0.00296 0.73821 0.0
C143 C 0.74278 0.00871 0.79007 0.0
C144 C 0.74302 0.01454 0.81842 0.0
C145 C 0.7893 0.02315 0.78638 0.0
H146 H 0.80717 0.02821 0.77482 0.0
C147 C 0.79007 0.02749 0.81461 0.0
H148 H 0.72439 1.00121 0.78099 0.0
C149 C 0.76722 0.02321 0.83053 0.0
H150 H 0.76849 0.027 0.85238 0.0
H151 H 0.80838 0.03476 0.82415 0.0
H152 H 0.28805 0.29583 0.01997 0.0
C153 C 0.29748 0.2766 0.01508 0.0
C154 C 0.32544 0.27582 0.01116 0.0
C155 C 0.28199 0.25265 0.01419 0.0
H156 H 0.3597 0.25019 0.00362 0.0
C157 C 0.33806 0.25077 0.00632 0.0
C158 C 0.32332 0.22646 0.00543 0.0
C159 C 0.29522 0.2276 0.0092 0.0
C160 C 0.25236 0.25379 0.0199 0.0
H161 H 0.28373 0.20896 0.00794 0.0
C162 C 0.23664 0.27672 0.01248 0.0
C163 C 0.20899 0.27807 0.01908 0.0
C164 C 0.23974 0.23227 0.03391 0.0
H165 H 0.25106 0.21473 0.04074 0.0
C166 C 0.21238 0.23338 0.04014 0.0
H167 H 0.24569 0.29337 0.00125 0.0
C168 C 0.19712 0.25603 0.03288 0.0
H169 H 0.17607 0.25652 0.03864 0.0
H170 H 0.20301 0.21672 0.05108 0.0
H171 H 0.28783 0.7061 0.99662 0.0
C172 C 0.29736 0.72549 0.00024 0.0
C173 C 0.32505 0.72589 0.00603 0.0
C174 C 0.28223 0.74977 -0.00092 0.0
H175 H 0.35973 0.75126 0.01205 0.0
C176 C 0.33809 0.75095 0.00931 0.0
C177 C 0.32385 0.77553 0.00828 0.0
C178 C 0.29587 0.77472 0.00372 0.0
C179 C 0.25259 0.7492 0.99235 0.0
H180 H 0.28487 0.79368 0.00422 0.0
C181 C 0.23635 0.72586 0.99716 0.0
C182 C 0.20886 0.72537 0.98953 0.0
C183 C 0.24037 0.77202 0.98003 0.0
H184 H 0.25182 0.78992 0.97466 0.0
C185 C 0.21304 0.77211 0.97377 0.0
H186 H 0.24495 0.70791 0.00643 0.0
C187 C 0.1974 0.74918 0.97857 0.0
H188 H 0.17621 0.75015 0.97348 0.0
H189 H 0.20398 0.79002 0.96473 0.0
H190 H 0.72138 0.27336 0.01935 0.0
C191 C 0.74063 0.28303 0.01574 0.0
C192 C 0.74128 0.31129 0.01226 0.0
C193 C 0.76456 0.26762 0.01634 0.0
H194 H 0.76671 0.3462 0.00662 0.0
C195 C 0.76619 0.32436 0.00956 0.0
C196 C 0.79045 0.30986 0.01107 0.0
C197 C 0.7895 0.28137 0.01356 0.0
C198 C 0.76332 0.23768 0.02204 0.0
H199 H 0.80825 0.27018 0.01417 0.0
C200 C 0.74074 0.22191 0.01414 0.0
C201 C 0.73882 0.19421 0.02131 0.0
C202 C 0.78412 0.22485 0.03685 0.0
H203 H 0.80135 0.23613 0.04419 0.0
C204 C 0.7826 0.19731 0.04336 0.0
H205 H 0.72465 0.23096 0.00226 0.0
C206 C 0.76016 0.18211 0.03579 0.0
H207 H 0.75923 0.16097 0.04191 0.0
H208 H 0.79869 0.18781 0.05488 0.0
H209 H 0.71978 0.72905 0.00154 0.0
C210 C 0.7391 0.71903 0.00311 0.0
C211 C 0.73964 0.69107 0.00867 0.0
C212 C 0.76304 0.73386 -0.00091 0.0
H213 H 0.76496 0.65582 0.0129 0.0
C214 C 0.76449 0.67756 0.00939 0.0
C215 C 0.78873 0.69151 0.00486 0.0
C216 C 0.78793 0.7198 0.00055 0.0
C217 C 0.7617 0.76347 0.9917 0.0
H218 H 0.80671 0.73054 0.99761 0.0
C219 C 0.73993 0.78008 0.00032 0.0
C220 C 0.73768 0.80728 0.99153 0.0
C221 C 0.78145 0.77509 0.97458 0.0
H222 H 0.79799 0.76315 0.96664 0.0
C223 C 0.77972 0.80223 0.96653 0.0
H224 H 0.72472 0.7721 0.01403 0.0
C225 C 0.75801 0.81819 0.9748 0.0
H226 H 0.75679 0.83894 0.96745 0.0
H227 H 0.79501 0.81078 0.95327 0.0
H228 H 0.50211 0.79626 0.77461 0.0
C229 C 0.50486 0.77735 0.78555 0.0
C230 C 0.51212 0.77851 0.81336 0.0
C231 C 0.501 0.75212 0.77222 0.0
H232 H 0.51862 0.75524 0.85014 0.0
C233 C 0.51401 0.75437 0.8284 0.0
C234 C 0.50925 0.72916 0.81613 0.0
C235 C 0.50387 0.72804 0.78787 0.0
C236 C 0.49318 0.75092 0.74245 0.0
H237 H 0.50133 0.70832 0.77847 0.0
C238 C 0.49968 0.77225 0.72413 0.0
C239 C 0.4913 0.77165 0.69648 0.0
C240 C 0.47841 0.72867 0.73217 0.0
H241 H 0.47181 0.7123 0.74535 0.0
C242 C 0.47127 0.72732 0.70456 0.0
H243 H 0.51085 0.78964 0.73135 0.0
C244 C 0.47769 0.74851 0.68681 0.0
H245 H 0.47175 0.74679 0.66551 0.0
H246 H 0.46026 0.7099 0.69695 0.0
H247 H 0.24573 0.52204 0.80122 0.0
C248 C 0.23576 0.51618 0.78236 0.0
C249 C 0.20774 0.51272 0.78242 0.0
C250 C 0.25061 0.51359 0.75784 0.0
H251 H 0.17284 0.50386 0.75797 0.0
C252 C 0.19453 0.50626 0.75789 0.0
C253 C 0.20872 0.50342 0.73321 0.0
C254 C 0.2368 0.50702 0.73332 0.0
C255 C 0.28017 0.5192 0.75758 0.0
H256 H 0.24784 0.5045 0.71432 0.0
C257 C 0.29673 0.51232 0.78018 0.0
C258 C 0.32443 0.51863 0.78013 0.0
C259 C 0.29191 0.53243 0.73493 0.0
H260 H 0.27985 0.53873 0.71755 0.0
C261 C 0.31931 0.53845 0.73468 0.0
H262 H 0.28822 0.50172 0.79762 0.0
C263 C 0.33546 0.5317 0.75705 0.0
H264 H 0.35653 0.53728 0.75648 0.0
H265 H 0.32802 0.54879 0.71719 0.0
H266 H 0.50297 0.23445 0.80314 0.0
C267 C 0.5046 0.22368 0.78385 0.0
C268 C 0.5117 0.1961 0.78426 0.0
C269 C 0.49924 0.23714 0.75883 0.0
H270 H 0.51716 0.16013 0.75984 0.0
C271 C 0.51247 0.18165 0.75956 0.0
C272 C 0.50642 0.19424 0.73455 0.0
C273 C 0.50062 0.22216 0.73415 0.0
C274 C 0.49104 0.26637 0.75875 0.0
H275 H 0.49658 0.2319 0.71465 0.0
C276 C 0.50071 0.28439 0.77899 0.0
C277 C 0.49146 0.31137 0.78039 0.0
C278 C 0.47258 0.27628 0.73921 0.0
H279 H 0.46404 0.26309 0.72374 0.0
C280 C 0.46413 0.30332 0.73987 0.0
H281 H 0.51549 0.27753 0.79379 0.0
C282 C 0.47334 0.32075 0.76037 0.0
H283 H 0.46563 0.34133 0.76101 0.0
H284 H 0.44984 0.31063 0.7248 0.0
H285 H 0.78681 0.49158 0.80246 0.0
C286 C 0.7962 0.49601 0.78295 0.0
C287 C 0.82357 0.50304 0.78265 0.0
C288 C 0.7812 0.4946 0.7584 0.0
H289 H 0.85788 0.51119 0.7571 0.0
C290 C 0.83639 0.50742 0.75743 0.0
C291 C 0.82217 0.50602 0.73263 0.0
C292 C 0.79451 0.50008 0.7333 0.0
C293 C 0.75198 0.48685 0.75893 0.0
H294 H 0.78345 0.50007 0.71416 0.0
C295 C 0.73563 0.49203 0.78218 0.0
C296 C 0.70856 0.48345 0.78309 0.0
C297 C 0.74034 0.47333 0.73637 0.0
H298 H 0.75209 0.46796 0.71849 0.0
C299 C 0.71329 0.46591 0.73667 0.0
H300 H 0.74394 0.50235 0.79981 0.0
C301 C 0.69749 0.47093 0.75972 0.0
H302 H 0.67656 0.46485 0.75921 0.0
H303 H 0.7046 0.45581 0.71904 0.0
H304 H 0.49969 0.20631 0.24155 0.0
C305 C 0.50159 0.22523 0.23038 0.0
C306 C 0.50832 0.22426 0.20246 0.0
C307 C 0.49699 0.25028 0.24369 0.0
H308 H 0.51392 0.24778 0.16569 0.0
C309 C 0.50944 0.24849 0.18746 0.0
C310 C 0.50413 0.27358 0.19987 0.0
C311 C 0.4987 0.27447 0.22815 0.0
C312 C 0.48933 0.25087 0.27338 0.0
H313 H 0.49524 0.29398 0.23777 0.0
C314 C 0.49858 0.2306 0.29159 0.0
C315 C 0.48969 0.22966 0.31898 0.0
C316 C 0.47172 0.27093 0.28355 0.0
H317 H 0.46349 0.28648 0.27027 0.0
C318 C 0.4637 0.27073 0.31101 0.0
H319 H 0.51277 0.2154 0.2846 0.0
C320 C 0.47245 0.25019 0.32861 0.0
H321 H 0.46505 0.24993 0.34952 0.0
H322 H 0.45006 0.2862 0.31851 0.0
H323 H 0.78523 0.5178 0.21412 0.0
C324 C 0.79528 0.51231 0.23306 0.0
C325 C 0.82326 0.50848 0.23285 0.0
C326 C 0.78058 0.5105 0.25775 0.0
H327 H 0.85824 0.49987 0.25731 0.0
C328 C 0.83659 0.50256 0.25748 0.0
C329 C 0.82257 0.50062 0.28236 0.0
C330 C 0.79452 0.50447 0.28234 0.0
C331 C 0.75101 0.51619 0.25801 0.0
H332 H 0.7836 0.50252 0.30147 0.0
C333 C 0.73441 0.50899 0.23559 0.0
C334 C 0.70671 0.51532 0.23559 0.0
C335 C 0.7393 0.52974 0.28048 0.0
H336 H 0.75138 0.5363 0.29774 0.0
C337 C 0.71188 0.53572 0.28073 0.0
H338 H 0.74286 0.49813 0.21828 0.0
C339 C 0.69569 0.52865 0.2585 0.0
H340 H 0.67459 0.5342 0.25902 0.0
H341 H 0.70319 0.54628 0.29809 0.0
H342 H 0.49979 0.76905 0.21343 0.0
C343 C 0.50397 0.77935 0.23258 0.0
C344 C 0.51169 0.80675 0.23196 0.0
C345 C 0.50132 0.76539 0.25772 0.0
H346 H 0.52024 0.84203 0.25638 0.0
C347 C 0.51598 0.82045 0.25677 0.0
C348 C 0.51362 0.80708 0.28206 0.0
C349 C 0.50654 0.77945 0.28238 0.0
C350 C 0.49235 0.73646 0.25816 0.0
H351 H 0.50529 0.76891 0.30185 0.0
C352 C 0.49977 0.71849 0.23694 0.0
C353 C 0.49 0.69167 0.2363 0.0
C354 C 0.4755 0.72683 0.27926 0.0
H355 H 0.46883 0.74011 0.29561 0.0
C356 C 0.46637 0.70003 0.27914 0.0
H357 H 0.51332 0.72523 0.22092 0.0
C358 C 0.47343 0.68256 0.25779 0.0
H359 H 0.46535 0.66212 0.25776 0.0
H360 H 0.45331 0.69292 0.29541 0.0
H361 H 0.22163 0.51387 0.23853 0.0
C362 C 0.24055 0.51032 0.22811 0.0
C363 C 0.24036 0.50718 0.19953 0.0
C364 C 0.26499 0.51053 0.24288 0.0
H365 H 0.26466 0.50161 0.16346 0.0
C366 C 0.26481 0.50436 0.18554 0.0
C367 C 0.28947 0.5055 0.19943 0.0
C368 C 0.28945 0.50773 0.22821 0.0
C369 C 0.26483 0.51558 0.27319 0.0
H370 H 0.30852 0.50805 0.23892 0.0
C371 C 0.24288 0.50728 0.28968 0.0
C372 C 0.24183 0.51377 0.31781 0.0
C373 C 0.286 0.53002 0.28571 0.0
H374 H 0.30282 0.53759 0.27386 0.0
C375 C 0.2854 0.53579 0.31372 0.0
H376 H 0.22658 0.49563 0.28081 0.0
C377 C 0.26349 0.52786 0.32967 0.0
H378 H 0.26318 0.53343 0.35117 0.0
H379 H 0.30177 0.54702 0.323 0.0
H380 H 0.78888 0.79607 0.52136 0.0
C381 C 0.79835 0.77687 0.51637 0.0
C382 C 0.82632 0.77614 0.51252 0.0
C383 C 0.78289 0.75291 0.51529 0.0
H384 H 0.86062 0.75059 0.50492 0.0
C385 C 0.83897 0.75114 0.50753 0.0
C386 C 0.82425 0.72684 0.50638 0.0
C387 C 0.79615 0.72792 0.51009 0.0
C388 C 0.75328 0.75392 0.52103 0.0
H389 H 0.78466 0.70929 0.50865 0.0
C390 C 0.73747 0.77681 0.51373 0.0
C391 C 0.70983 0.77801 0.52033 0.0
C392 C 0.74075 0.73228 0.53497 0.0
H393 H 0.75215 0.71476 0.54171 0.0
C394 C 0.71339 0.73324 0.54121 0.0
H395 H 0.74646 0.79354 0.50258 0.0
C396 C 0.69805 0.75586 0.53405 0.0
H397 H 0.67699 0.75624 0.53981 0.0
H398 H 0.7041 0.7165 0.55208 0.0
H399 H 0.78591 0.20598 0.49854 0.0
C400 C 0.7959 0.22534 0.50052 0.0
C401 C 0.82377 0.22528 0.50532 0.0
C402 C 0.78136 0.24994 0.4981 0.0
H403 H 0.85928 0.24996 0.50896 0.0
C404 C 0.83763 0.25003 0.5062 0.0
C405 C 0.82419 0.27485 0.50294 0.0
C406 C 0.79599 0.27473 0.5001 0.0
C407 C 0.75143 0.24968 0.4923 0.0
H408 H 0.78587 0.29411 0.49884 0.0
C409 C 0.73506 0.22652 0.4977 0.0
C410 C 0.70745 0.22609 0.49057 0.0
C411 C 0.73898 0.27248 0.4801 0.0
H412 H 0.75026 0.29029 0.47416 0.0
C413 C 0.71151 0.27271 0.47455 0.0
H414 H 0.74359 0.20855 0.50695 0.0
C415 C 0.69586 0.24989 0.47979 0.0
H416 H 0.67458 0.25091 0.47511 0.0
H417 H 0.70234 0.29061 0.4656 0.0
H418 H 0.22087 0.77324 0.519 0.0
C419 C 0.24005 0.78302 0.51537 0.0
C420 C 0.24066 0.81135 0.51237 0.0
C421 C 0.26403 0.76765 0.51552 0.0
H422 H 0.26599 0.84636 0.50693 0.0
C423 C 0.26553 0.82449 0.50954 0.0
C424 C 0.28983 0.81 0.51047 0.0
C425 C 0.28892 0.78148 0.51259 0.0
C426 C 0.26302 0.73765 0.52098 0.0
H427 H 0.30768 0.7703 0.5128 0.0
C428 C 0.24058 0.72168 0.51301 0.0
C429 C 0.23917 0.69381 0.51969 0.0
C430 C 0.28401 0.72493 0.53559 0.0
H431 H 0.30111 0.73635 0.54303 0.0
C432 C 0.28292 0.6973 0.54174 0.0
H433 H 0.22429 0.73069 0.50139 0.0
C434 C 0.26073 0.68185 0.53395 0.0
H435 H 0.26017 0.6606 0.53972 0.0
H436 H 0.29918 0.68789 0.55309 0.0
H437 H 0.22112 0.22919 0.49713 0.0
C438 C 0.24038 0.2195 0.50065 0.0
C439 C 0.24113 0.19121 0.50382 0.0
C440 C 0.26428 0.23496 0.50029 0.0
H441 H 0.26667 0.1563 0.50916 0.0
C442 C 0.26607 0.17816 0.50645 0.0
C443 C 0.29029 0.19273 0.50518 0.0
C444 C 0.28926 0.22123 0.50299 0.0
C445 C 0.263 0.26497 0.495 0.0
H446 H 0.30797 0.23247 0.50257 0.0
C447 C 0.24042 0.28062 0.50316 0.0
C448 C 0.23851 0.30844 0.49649 0.0
C449 C 0.28379 0.278 0.48039 0.0
H450 H 0.30102 0.26682 0.47286 0.0
C451 C 0.28227 0.30565 0.47434 0.0
H452 H 0.22434 0.27139 0.5149 0.0
C453 C 0.25984 0.32076 0.48221 0.0
H454 H 0.2589 0.34201 0.47647 0.0
H455 H 0.29835 0.31532 0.46297 0.0
C456 C 0.01318 0.93224 0.57 0.0
C457 C 0.01751 0.94022 0.43704 0.0
C458 C 0.01295 0.06357 0.57814 0.0
C459 C 0.01704 0.0712 0.44512 0.0
C460 C 0.95073 0.06778 0.51006 0.0
C461 C 0.95088 0.93583 0.50506 0.0
C462 C 0.08142 0.06723 0.51036 0.0
C463 C 0.0812 0.93598 0.50796 0.0
C464 C 0.08232 0.00558 0.44284 0.0
C465 C 0.95218 0.00409 0.43884 0.0
C466 C 0.07877 0.99927 0.57635 0.0
C467 C 0.9481 0.99966 0.57177 0.0
Eu468 Eu 0.01603 0.95047 0.50441 0.0
O469 O 0.99228 0.97889 0.48099 0.0
O470 O 0.03885 0.97626 0.53133 0.0
Eu471 Eu 0.96463 0.00192 0.50574 0.0
Eu472 Eu 0.06659 0.00164 0.50919 0.0
O473 O 0.9912 0.97649 0.5294 0.0
O474 O 0.04051 0.97905 0.48237 0.0
Eu475 Eu 0.0139 0.99872 0.55945 0.0
Eu476 Eu 0.01687 0.00486 0.45607 0.0
O477 O 0.99119 0.02443 0.53231 0.0
O478 O 0.99243 0.02779 0.48413 0.0
O479 O 0.04009 0.02711 0.4857 0.0
O480 O 0.03906 0.02451 0.53446 0.0
Eu481 Eu 0.01605 0.05334 0.51092 0.0
O482 O 0.01426 0.92561 0.54345 0.0
O483 O 0.01652 0.93016 0.46252 0.0
O484 O 0.01549 0.07365 0.55281 0.0
O485 O 0.01721 0.07814 0.47164 0.0
O486 O 0.94229 0.04221 0.50671 0.0
O487 O 0.94221 0.96156 0.50536 0.0
O488 O 0.08912 0.0413 0.50948 0.0
O489 O 0.08897 0.96184 0.50975 0.0
O490 O 0.05684 0.00722 0.43438 0.0
O491 O 0.97809 0.00497 0.43162 0.0
O492 O 0.05287 0.99799 0.58361 0.0
O493 O 0.97329 0.99759 0.58121 0.0
O494 O 0.056 0.07604 0.51174 0.0
O495 O 0.97633 0.07574 0.51231 0.0
O496 O 0.05581 0.92742 0.50519 0.0
O497 O 0.97655 0.92792 0.5041 0.0
O498 O 0.01815 0.96656 0.4306 0.0
O499 O 0.01647 0.04592 0.43532 0.0
O500 O 0.01313 0.95746 0.58005 0.0
O501 O 0.01163 0.03726 0.58464 0.0
O502 O 0.94109 0.00162 0.5454 0.0
O503 O 0.94304 0.00306 0.46461 0.0
O504 O 0.0879 1.00098 0.55057 0.0
O505 O 0.09026 0.00266 0.46894 0.0
C506 C 0.5149 0.93586 0.07433 0.0
C507 C 0.51612 0.06727 0.07424 0.0
C508 C 0.51686 0.93578 0.94125 0.0
C509 C 0.51764 0.06737 0.94153 0.0
C510 C 0.58231 0.00197 0.94298 0.0
C511 C 0.57937 1.00034 0.07581 0.0
C512 C 0.45139 0.00259 0.93998 0.0
C513 C 0.44892 0.00349 0.0732 0.0
C514 C 0.45022 0.0676 0.00529 0.0
C515 C 0.58132 0.0672 0.00748 0.0
C516 C 0.45041 0.93491 0.0083 0.0
C517 C 0.58149 0.93583 0.00979 0.0
Eu518 Eu 0.51441 0.00168 0.05958 0.0
O519 O 0.53909 0.02598 0.0329 0.0
O520 O 0.49112 0.97724 0.03167 0.0
Eu521 Eu 0.56627 0.00155 0.0091 0.0
Eu522 Eu 0.4642 1.00127 0.00684 0.0
O523 O 0.53883 0.9774 0.03271 0.0
O524 O 0.49094 0.02575 0.03148 0.0
Eu525 Eu 0.5158 0.94985 0.00791 0.0
Eu526 Eu 0.51569 0.05301 0.00775 0.0
O527 O 0.54008 0.97722 0.98395 0.0
O528 O 0.53983 0.02552 0.98397 0.0
O529 O 0.4922 0.02532 0.9832 0.0
O530 O 0.49204 0.9771 0.98298 0.0
Eu531 Eu 0.51662 1.00137 0.95589 0.0
O532 O 0.51428 0.96173 0.0825 0.0
O533 O 0.51511 0.04153 0.08279 0.0
O534 O 0.51613 0.96155 0.93277 0.0
O535 O 0.51844 0.04154 0.93316 0.0
O536 O 0.58959 0.00239 0.96933 0.0
O537 O 0.58821 0.00151 0.04996 0.0
O538 O 0.44249 1.00132 0.96582 0.0
O539 O 0.44086 0.00218 0.04706 0.0
O540 O 0.47591 0.07561 0.00602 0.0
O541 O 0.55578 0.07593 0.00724 0.0
O542 O 0.47616 0.92705 0.00858 0.0
O543 O 0.55598 0.92707 0.00895 0.0
O544 O 0.47724 0.00309 0.93235 0.0
O545 O 0.55702 1.00088 0.93366 0.0
O546 O 0.47444 0.00347 0.08175 0.0
O547 O 0.55355 1.00009 0.08347 0.0
O548 O 0.51636 0.07553 0.04815 0.0
O549 O 0.51611 0.07575 0.9675 0.0
O550 O 0.51531 0.92721 0.04838 0.0
O551 O 0.5171 0.92743 0.96733 0.0
O552 O 0.58905 0.96184 0.00988 0.0
O553 O 0.58896 0.04123 0.00852 0.0
O554 O 0.4418 0.96069 0.00718 0.0
O555 O 0.44172 0.04179 0.00581 0.0
C556 C 0.01625 0.43181 0.06994 0.0
C557 C 0.01522 0.43964 0.93756 0.0
C558 C 0.01565 0.56366 0.07775 0.0
C559 C 0.01446 0.57155 0.94529 0.0
C560 C 0.94983 0.56748 0.00945 0.0
C561 C 0.94973 0.43591 0.00746 0.0
C562 C 0.08083 0.56771 0.00831 0.0
C563 C 0.0804 0.43522 0.00318 0.0
C564 C 0.07998 0.50668 0.94035 0.0
C565 C 0.9495 0.50466 0.94228 0.0
C566 C 0.08207 0.50061 0.07288 0.0
C567 C 0.95167 0.5013 0.07518 0.0
Eu568 Eu 0.01511 0.45041 0.00455 0.0
O569 O 0.99103 0.47899 0.98191 0.0
O570 O 0.03993 0.47596 0.03011 0.0
Eu571 Eu 0.9647 0.50164 0.00845 0.0
Eu572 Eu 0.06663 0.50152 0.00671 0.0
O573 O 0.99195 0.4762 0.03116 0.0
O574 O 0.03901 0.47894 0.98146 0.0
Eu575 Eu 0.01667 0.49857 0.05954 0.0
Eu576 Eu 0.01489 0.50478 0.95572 0.0
O577 O 0.99222 0.52422 0.03376 0.0
O578 O 0.99138 0.52715 0.98512 0.0
O579 O 0.03901 0.52711 0.98451 0.0
O580 O 0.03997 0.5244 0.03291 0.0
Eu581 Eu 0.01543 0.55309 0.01069 0.0
O582 O 0.01606 0.4254 0.04335 0.0
O583 O 0.01414 0.42996 0.9631 0.0
O584 O 0.01576 0.57353 0.05225 0.0
O585 O 0.01502 0.578 0.97186 0.0
O586 O 0.94215 0.54153 0.00823 0.0
O587 O 0.94209 0.46184 0.00926 0.0
O588 O 0.08931 0.54189 0.00757 0.0
O589 O 0.08904 0.46092 0.00514 0.0
O590 O 0.05425 0.50775 0.93251 0.0
O591 O 0.97494 0.50635 0.93367 0.0
O592 O 0.05679 0.4987 0.08205 0.0
O593 O 0.97738 0.49935 0.08293 0.0
O594 O 0.05516 0.57573 0.0096 0.0
O595 O 0.97534 0.57607 0.01123 0.0
O596 O 0.05462 0.42756 0.00234 0.0
O597 O 0.97517 0.42732 0.00485 0.0
O598 O 0.01604 0.4659 0.93055 0.0
O599 O 0.01411 0.54631 0.93515 0.0
O600 O 0.01634 0.45704 0.08012 0.0
O601 O 0.01604 0.53737 0.08457 0.0
O602 O 0.94281 0.50221 0.04932 0.0
O603 O 0.9415 0.50202 0.96831 0.0
O604 O 0.0895 0.5016 0.04661 0.0
O605 O 0.08867 0.50374 0.9661 0.0
C606 C 0.51427 0.43184 0.07075 0.0
C607 C 0.51364 0.56297 0.07843 0.0
C608 C 0.51796 0.43949 0.93766 0.0
C609 C 0.51579 0.57058 0.94527 0.0
C610 C 0.58224 0.50245 0.94288 0.0
C611 C 0.57929 0.49884 0.07635 0.0
C612 C 0.45209 0.50292 0.93942 0.0
C613 C 0.44867 0.49885 0.07262 0.0
C614 C 0.44968 0.56616 0.01005 0.0
C615 C 0.58014 0.56793 0.01359 0.0
C616 C 0.45201 0.43415 0.00563 0.0
C617 C 0.58242 0.43674 0.00847 0.0
Eu618 Eu 0.51434 0.4982 0.05969 0.0
O619 O 0.5387 0.52433 0.03443 0.0
O620 O 0.4917 0.47543 0.02998 0.0
Eu621 Eu 0.56678 0.50219 0.00937 0.0
Eu622 Eu 0.46464 0.50047 0.00636 0.0
O623 O 0.53961 0.47615 0.03158 0.0
O624 O 0.49088 0.5235 0.03277 0.0
Eu625 Eu 0.51695 0.44983 0.00505 0.0
Eu626 Eu 0.51513 0.55268 0.01106 0.0
O627 O 0.54073 0.47903 0.98304 0.0
O628 O 0.54009 0.52736 0.98553 0.0
O629 O 0.49203 0.52654 0.9845 0.0
O630 O 0.4928 0.47793 0.98161 0.0
Eu631 Eu 0.51691 0.50422 0.95641 0.0
O632 O 0.51385 0.45713 0.08056 0.0
O633 O 0.51371 0.53664 0.08495 0.0
O634 O 0.51764 0.46581 0.93111 0.0
O635 O 0.51733 0.54531 0.93548 0.0
O636 O 0.5904 0.50274 0.96906 0.0
O637 O 0.5883 0.50107 0.05059 0.0
O638 O 0.44301 0.50133 0.9652 0.0
O639 O 0.44135 0.50019 0.04628 0.0
O640 O 0.47513 0.57449 0.01246 0.0
O641 O 0.55452 0.57618 0.0128 0.0
O642 O 0.47781 0.42667 0.0047 0.0
O643 O 0.5572 0.42764 0.00584 0.0
O644 O 0.47797 0.5044 0.93216 0.0
O645 O 0.55675 0.50325 0.93437 0.0
O646 O 0.47398 0.49737 0.0818 0.0
O647 O 0.55343 0.4972 0.08368 0.0
O648 O 0.51405 0.57302 0.05294 0.0
O649 O 0.51455 0.57737 0.97179 0.0
O650 O 0.51551 0.42502 0.04425 0.0
O651 O 0.51778 0.42946 0.96317 0.0
O652 O 0.58974 0.46275 0.01003 0.0
O653 O 0.58855 0.54222 0.01255 0.0
O654 O 0.44291 0.45973 0.00595 0.0
O655 O 0.44162 0.54045 0.00684 0.0
C656 C 0.01357 0.43583 0.57489 0.0
C657 C 0.01777 0.43468 0.44224 0.0
C658 C 0.01655 0.56749 0.57374 0.0
C659 C 0.01757 0.56631 0.44089 0.0
C660 C 0.95057 0.56757 0.50523 0.0
C661 C 0.95019 0.43505 0.50631 0.0
C662 C 0.08148 0.56679 0.50679 0.0
C663 C 0.08113 0.43535 0.51168 0.0
C664 C 0.08232 0.49871 0.44292 0.0
C665 C 0.9512 0.49979 0.44042 0.0
C666 C 0.07983 0.50081 0.57564 0.0
C667 C 0.94912 0.50362 0.57357 0.0
Eu668 Eu 0.01562 0.44971 0.50853 0.0
O669 O 0.99206 0.47692 0.48358 0.0
O670 O 0.03892 0.47724 0.53311 0.0
Eu671 Eu 0.96435 0.50126 0.50723 0.0
Eu672 Eu 0.06632 0.50107 0.50902 0.0
O673 O 0.99107 0.47722 0.53231 0.0
O674 O 0.03994 0.47667 0.48424 0.0
Eu675 Eu 0.01465 0.50167 0.55995 0.0
Eu676 Eu 0.01654 0.50049 0.45591 0.0
O677 O 0.99132 0.52568 0.5316 0.0
O678 O 0.9922 0.52494 0.48298 0.0
O679 O 0.04 0.52494 0.48362 0.0
O680 O 0.03915 0.52561 0.5327 0.0
Eu681 Eu 0.01592 0.5526 0.50732 0.0
O682 O 0.01357 0.42722 0.54894 0.0
O683 O 0.01802 0.42678 0.46844 0.0
O684 O 0.01674 0.57547 0.54756 0.0
O685 O 0.01646 0.57496 0.4668 0.0
O686 O 0.94197 0.54181 0.50609 0.0
O687 O 0.94171 0.46086 0.50725 0.0
O688 O 0.08916 0.5408 0.5075 0.0
O689 O 0.08885 0.4613 0.51137 0.0
O690 O 0.05696 0.4995 0.43367 0.0
O691 O 0.97697 0.49954 0.43248 0.0
O692 O 0.05408 0.50024 0.58357 0.0
O693 O 0.97464 0.5038 0.58219 0.0
O694 O 0.05594 0.57545 0.50686 0.0
O695 O 0.9763 0.57544 0.50563 0.0
O696 O 0.05561 0.42669 0.51056 0.0
O697 O 0.97592 0.42711 0.50622 0.0
O698 O 0.01665 0.46029 0.43332 0.0
O699 O 0.01791 0.5404 0.43275 0.0
O700 O 0.01404 0.46172 0.58308 0.0
O701 O 0.01552 0.54184 0.5826 0.0
O702 O 0.94112 0.50215 0.54743 0.0
O703 O 0.94251 0.50078 0.46634 0.0
O704 O 0.08842 0.50195 0.5497 0.0
O705 O 0.08959 0.49895 0.46928 0.0
C706 C 0.51473 0.93149 0.5705 0.0
C707 C 0.51691 0.93868 0.43811 0.0
C708 C 0.51411 0.06326 0.57764 0.0
C709 C 0.5147 0.07053 0.44506 0.0
C710 C 0.44983 0.06689 0.50877 0.0
C711 C 0.44984 0.93536 0.50673 0.0
C712 C 0.58068 0.06728 0.50904 0.0
C713 C 0.58069 0.93467 0.50476 0.0
C714 C 0.58104 0.00637 0.44152 0.0
C715 C 0.4508 1.00061 0.44109 0.0
C716 C 0.58114 1.00084 0.57426 0.0
C717 C 0.45059 0.99716 0.57398 0.0
Eu718 Eu 0.51534 0.94972 0.505 0.0
O719 O 0.49167 0.97828 0.48198 0.0
O720 O 0.53986 0.97531 0.53091 0.0
Eu721 Eu 0.46479 1.00113 0.50767 0.0
Eu722 Eu 0.56682 1.00096 0.50776 0.0
O723 O 0.49191 0.97593 0.53075 0.0
O724 O 0.53963 0.97817 0.48218 0.0
Eu725 Eu 0.51598 0.99807 0.55977 0.0
Eu726 Eu 0.51581 0.00383 0.45597 0.0
O727 O 0.49174 0.02375 0.53365 0.0
O728 O 0.49163 0.02661 0.48453 0.0
O729 O 0.53936 0.02631 0.48508 0.0
O730 O 0.53956 0.02383 0.53334 0.0
Eu731 Eu 0.5153 0.05244 0.51064 0.0
O732 O 0.51391 0.92494 0.54396 0.0
O733 O 0.515 0.9291 0.46363 0.0
O734 O 0.51521 0.07302 0.55212 0.0
O735 O 0.51526 0.07715 0.47159 0.0
O736 O 0.44218 0.04095 0.50722 0.0
O737 O 0.44221 0.96131 0.5083 0.0
O738 O 0.58929 0.04149 0.50865 0.0
O739 O 0.58929 0.9604 0.50652 0.0
O740 O 0.5554 0.00734 0.4334 0.0
O741 O 0.47642 0.00207 0.43302 0.0
O742 O 0.5557 0.99899 0.58296 0.0
O743 O 0.47616 0.99524 0.58221 0.0
O744 O 0.55496 0.07518 0.50993 0.0
O745 O 0.47529 0.07549 0.51095 0.0
O746 O 0.55494 0.92694 0.50386 0.0
O747 O 0.4753 0.92671 0.5045 0.0
O748 O 0.51822 0.96489 0.43105 0.0
O749 O 0.51436 0.04521 0.4351 0.0
O750 O 0.51646 0.95666 0.58062 0.0
O751 O 0.5139 0.03698 0.58457 0.0
O752 O 0.44229 1.00042 0.54812 0.0
O753 O 0.44224 1.00041 0.46709 0.0
O754 O 0.58905 1.00147 0.5481 0.0
O755 O 0.58946 0.0033 0.46737 0.0
H756 H 0.23285 0.14391 0.47603 0.0
H757 H 0.08076 0.12147 0.52522 0.0
H758 H 0.19223 0.20136 0.52862 0.0
H759 H 0.13208 0.05921 0.49102 0.0
H760 H 0.11854 0.1537 0.52216 0.0
H761 H 0.19294 0.11541 0.47641 0.0
C762 C 0.21553 0.15047 0.4878 0.0
C763 C 0.21607 0.1748 0.50275 0.0
C764 C 0.12137 0.13295 0.51537 0.0
C765 C 0.16995 0.14229 0.50301 0.0
C766 C 0.09986 0.1146 0.51704 0.0
C767 C 0.10331 0.08753 0.50862 0.0
C768 C 0.14623 0.12414 0.50484 0.0
C769 C 0.12848 0.07972 0.49815 0.0
C770 C 0.19266 0.13423 0.48792 0.0
C771 C 0.19267 0.18269 0.51689 0.0
N772 N 0.14885 0.0979 0.49655 0.0
N773 N 0.17053 0.16636 0.51683 0.0
H774 H 0.81905 0.17779 0.4757 0.0
H775 H 0.95524 0.11707 0.53495 0.0
H776 H 0.86335 0.21404 0.54251 0.0
H777 H 0.89936 0.06771 0.48898 0.0
H778 H 0.92208 0.15346 0.53617 0.0
H779 H 0.84786 0.13743 0.47904 0.0
C780 C 0.83455 0.17713 0.49131 0.0
C781 C 0.83901 0.19949 0.50864 0.0
C782 C 0.91695 0.13464 0.52595 0.0
C783 C 0.87224 0.1537 0.51219 0.0
C784 C 0.93596 0.11388 0.52508 0.0
C785 C 0.93013 0.08938 0.51167 0.0
C786 C 0.89197 0.13112 0.51297 0.0
C787 C 0.90465 0.08629 0.49956 0.0
C788 C 0.85105 0.15415 0.49311 0.0
C789 C 0.85957 0.19757 0.52831 0.0
N790 N 0.88656 0.10707 0.50024 0.0
N791 N 0.87556 0.17524 0.52935 0.0
H792 H 0.87421 0.78299 0.53907 0.0
H793 H 0.89641 0.93769 0.49373 0.0
H794 H 0.81572 0.82658 0.49052 0.0
H795 H 0.95935 0.88374 0.52163 0.0
H796 H 0.86412 0.89999 0.49764 0.0
H797 H 0.90306 0.82293 0.53871 0.0
C798 C 0.86745 0.80099 0.52826 0.0
C799 C 0.84273 0.80128 0.51437 0.0
C800 C 0.88503 0.89656 0.50287 0.0
C801 C 0.87566 0.84733 0.5141 0.0
C802 C 0.90343 0.91802 0.50069 0.0
C803 C 0.93069 0.91382 0.50711 0.0
C804 C 0.89397 0.87098 0.51191 0.0
C805 C 0.93867 0.88793 0.51608 0.0
C806 C 0.88391 0.82384 0.52813 0.0
C807 C 0.83467 0.82549 0.50143 0.0
N808 N 0.92043 0.8676 0.51824 0.0
N809 N 0.85119 0.84756 0.50144 0.0
H810 H 0.23256 0.85815 0.54104 0.0
H811 H 0.08078 0.8823 0.49124 0.0
H812 H 0.19158 0.80166 0.48779 0.0
H813 H 0.13121 0.94292 0.52945 0.0
H814 H 0.11842 0.84986 0.49393 0.0
H815 H 0.19265 0.88671 0.54147 0.0
C816 C 0.21514 0.85181 0.5293 0.0
C817 C 0.21559 0.82773 0.51393 0.0
C818 C 0.12109 0.87028 0.50172 0.0
C819 C 0.16946 0.86034 0.51456 0.0
C820 C 0.09965 0.88875 0.50027 0.0
C821 C 0.10291 0.91545 0.50989 0.0
C822 C 0.14572 0.87857 0.51319 0.0
C823 C 0.12778 0.92271 0.5214 0.0
C824 C 0.19227 0.86809 0.52965 0.0
C825 C 0.19209 0.82013 0.49983 0.0
N826 N 0.14812 0.90443 0.52271 0.0
N827 N 0.16997 0.8365 0.50031 0.0
H828 H 0.47974 0.17661 0.20723 0.0
H829 H 0.53936 0.11705 0.06956 0.0
H830 H 0.54741 0.21232 0.16494 0.0
H831 H 0.49637 0.06608 0.12683 0.0
H832 H 0.54062 0.153 0.10389 0.0
H833 H 0.48431 0.136 0.1785 0.0
C834 C 0.49584 0.17573 0.19227 0.0
C835 C 0.51297 0.19806 0.18817 0.0
C836 C 0.53108 0.1339 0.10906 0.0
C837 C 0.51789 0.15206 0.155 0.0
C838 C 0.53016 0.11344 0.0894 0.0
C839 C 0.51757 0.08865 0.09534 0.0
C840 C 0.51891 0.12975 0.13473 0.0
C841 C 0.50629 0.08493 0.12149 0.0
C842 C 0.49834 0.15262 0.17581 0.0
C843 C 0.53334 0.19587 0.16833 0.0
N844 N 0.50693 0.10544 0.14019 0.0
N845 N 0.53499 0.17347 0.15224 0.0
H846 H 0.81226 0.48727 0.18182 0.0
H847 H 0.96027 0.51774 0.12779 0.0
H848 H 0.87052 0.53565 0.22562 0.0
H849 H 0.89725 0.49083 0.07315 0.0
H850 H 0.92734 0.52224 0.16435 0.0
H851 H 0.84222 0.4873 0.14166 0.0
C852 C 0.83115 0.49819 0.18284 0.0
C853 C 0.83916 0.51107 0.20721 0.0
C854 C 0.92062 0.51543 0.14437 0.0
C855 C 0.87349 0.51086 0.16176 0.0
C856 C 0.93949 0.51263 0.12349 0.0
C857 C 0.93155 0.50372 0.09738 0.0
C858 C 0.89354 0.50899 0.13934 0.0
C859 C 0.90422 0.49778 0.09299 0.0
C860 C 0.84826 0.4981 0.16002 0.0
C861 C 0.86385 0.52488 0.20748 0.0
N862 N 0.88617 0.50033 0.11386 0.0
N863 N 0.88022 0.52416 0.18525 0.0
H864 H 0.47941 0.80433 0.18598 0.0
H865 H 0.53703 0.94086 0.12504 0.0
H866 H 0.55045 0.84357 0.21812 0.0
H867 H 0.49526 0.88378 0.07303 0.0
H868 H 0.53843 0.90675 0.16132 0.0
H869 H 0.48196 0.83371 0.14537 0.0
C870 C 0.49576 0.81879 0.18434 0.0
C871 C 0.51451 0.8218 0.2057 0.0
C872 C 0.52908 0.90161 0.14192 0.0
C873 C 0.5171 0.85568 0.15978 0.0
C874 C 0.52808 0.92113 0.1213 0.0
C875 C 0.51592 0.91511 0.09609 0.0
C876 C 0.51739 0.87604 0.13752 0.0
C877 C 0.5049 0.88913 0.09221 0.0
C878 C 0.4971 0.83559 0.16124 0.0
C879 C 0.53514 0.84103 0.20252 0.0
N880 N 0.50562 0.87055 0.11289 0.0
N881 N 0.53565 0.85748 0.18022 0.0
H882 H 0.192 0.48204 0.21065 0.0
H883 H 0.13168 0.52218 0.06466 0.0
H884 H 0.23071 0.53544 0.15253 0.0
H885 H 0.08256 0.48478 0.12731 0.0
H886 H 0.16838 0.52563 0.09713 0.0
H887 H 0.15157 0.48191 0.18148 0.0
C888 C 0.19189 0.49391 0.19192 0.0
C889 C 0.21488 0.50839 0.18372 0.0
C890 C 0.14961 0.51672 0.10394 0.0
C891 C 0.16907 0.50818 0.15039 0.0
C892 C 0.12861 0.51455 0.08529 0.0
C893 C 0.10404 0.50291 0.09319 0.0
C894 C 0.1463 0.50698 0.1308 0.0
C895 C 0.10121 0.49385 0.12038 0.0
C896 C 0.1689 0.49377 0.1753 0.0
C897 C 0.21371 0.52343 0.1593 0.0
N898 N 0.12223 0.49587 0.13824 0.0
N899 N 0.19132 0.52276 0.14346 0.0
H900 H 0.55219 0.79097 0.84944 0.0
H901 H 0.49703 0.93807 0.8888 0.0
H902 H 0.48236 0.82563 0.80997 0.0
H903 H 0.53927 0.88541 0.94513 0.0
H904 H 0.49852 0.90189 0.8541 0.0
H905 H 0.55537 0.83116 0.87855 0.0
C906 C 0.53764 0.80716 0.84675 0.0
C907 C 0.51665 0.80472 0.82763 0.0
C908 C 0.50751 0.89842 0.87405 0.0
C909 C 0.52039 0.85086 0.86067 0.0
C910 C 0.50673 0.91898 0.89379 0.0
C911 C 0.51787 0.91459 0.91991 0.0
C912 C 0.52 0.87362 0.88038 0.0
C913 C 0.53015 0.88951 0.92537 0.0
C914 C 0.53949 0.83005 0.86335 0.0
C915 C 0.49882 0.82666 0.82448 0.0
N916 N 0.53096 0.87001 0.90574 0.0
N917 N 0.50094 0.8488 0.84106 0.0
H918 H 0.16138 0.54167 0.78849 0.0
H919 H 0.13384 0.49391 0.94285 0.0
H920 H 0.2174 0.49191 0.83385 0.0
H921 H 0.0731 0.526 0.88826 0.0
H922 H 0.16716 0.49855 0.90606 0.0
H923 H 0.13164 0.54242 0.82824 0.0
C924 C 0.16746 0.53099 0.80694 0.0
C925 C 0.19164 0.51629 0.80776 0.0
C926 C 0.14653 0.5046 0.90224 0.0
C927 C 0.15769 0.5171 0.85342 0.0
C928 C 0.1275 0.502 0.92321 0.0
C929 C 0.10055 0.50941 0.91859 0.0
C930 C 0.13859 0.51496 0.87664 0.0
C931 C 0.09353 0.51975 0.89272 0.0
C932 C 0.15048 0.53142 0.82962 0.0
C933 C 0.19887 0.5034 0.83239 0.0
N934 N 0.11242 0.52222 0.87278 0.0
N935 N 0.1818 0.50387 0.85424 0.0
H936 H 0.55132 0.15908 0.795 0.0
H937 H 0.49804 0.11931 0.94418 0.0
H938 H 0.48364 0.19946 0.8328 0.0
H939 H 0.53988 0.06376 0.89045 0.0
H940 H 0.49961 0.15394 0.90801 0.0
H941 H 0.55495 0.12951 0.83506 0.0
C942 C 0.53735 0.16187 0.81185 0.0
C943 C 0.51682 0.18143 0.81035 0.0
C944 C 0.50851 0.13418 0.90427 0.0
C945 C 0.52108 0.14784 0.85631 0.0
C946 C 0.50769 0.11446 0.92485 0.0
C947 C 0.51871 0.08859 0.92019 0.0
C948 C 0.52085 0.12808 0.87912 0.0
C949 C 0.53087 0.08334 0.89478 0.0
C950 C 0.53946 0.145 0.83467 0.0
C951 C 0.49975 0.18465 0.83309 0.0
N952 N 0.53169 0.10296 0.87521 0.0
N953 N 0.50211 0.16782 0.85511 0.0
H954 H 0.8607 0.54183 0.79546 0.0
H955 H 0.89862 0.48282 0.94315 0.0
H956 H 0.82199 0.47057 0.82885 0.0
H957 H 0.95277 0.52991 0.89274 0.0
H958 H 0.86522 0.48417 0.90591 0.0
H959 H 0.88937 0.54394 0.83596 0.0
C960 C 0.85822 0.5266 0.81132 0.0
C961 C 0.83922 0.50569 0.80849 0.0
C962 C 0.88441 0.49424 0.90317 0.0
C963 C 0.87174 0.50832 0.85519 0.0
C964 C 0.90338 0.49358 0.92437 0.0
C965 C 0.92855 0.50607 0.92088 0.0
C966 C 0.89057 0.50793 0.87867 0.0
C967 C 0.93375 0.5197 0.89616 0.0
C968 C 0.87453 0.5279 0.83447 0.0
C969 C 0.83635 0.48704 0.83015 0.0
N970 N 0.91492 0.5203 0.87605 0.0
N971 N 0.85259 0.48869 0.85258 0.0
H972 H 0.72962 0.6506 0.04588 0.0
H973 H 0.57934 0.62076 0.99518 0.0
H974 H 0.69174 0.69607 0.98061 0.0
H975 H 0.62937 0.56229 0.0372 0.0
H976 H 0.61681 0.65337 0.99654 0.0
H977 H 0.68921 0.62272 0.04973 0.0
C978 C 0.71281 0.65475 0.03236 0.0
C979 C 0.71427 0.67552 0.01266 0.0
C980 C 0.61942 0.63343 0.00557 0.0
C981 C 0.66772 0.64391 0.01729 0.0
C982 C 0.59807 0.61491 0.00492 0.0
C983 C 0.6014 0.58874 0.01584 0.0
C984 C 0.64397 0.62577 0.01764 0.0
C985 C 0.62608 0.58213 0.02817 0.0
C986 C 0.6897 0.6389 0.03466 0.0
C987 C 0.69151 0.68041 0.9962 0.0
N988 N 0.64639 0.6005 0.02873 0.0
N989 N 0.6692 0.66461 0.99879 0.0
H990 H 0.36361 0.71414 0.04411 0.0
H991 H 0.39886 0.56588 0.98749 0.0
H992 H 0.32224 0.67918 0.97467 0.0
H993 H 0.45318 0.61532 0.03528 0.0
H994 H 0.36602 0.60331 0.98805 0.0
H995 H 0.39194 0.67384 0.04673 0.0
C996 C 0.3605 0.69799 0.02935 0.0
C997 C 0.34079 0.70031 0.00883 0.0
C998 C 0.38512 0.60581 0.99846 0.0
C999 C 0.373 0.65376 0.01204 0.0
C1000 C 0.40378 0.58447 0.99826 0.0
C1001 C 0.42885 0.58759 0.01118 0.0
C1002 C 0.39149 0.63013 0.01207 0.0
C1003 C 0.43424 0.61213 0.02476 0.0
C1004 C 0.37663 0.67493 0.03095 0.0
C1005 C 0.33716 0.67829 0.99083 0.0
N1006 N 0.41573 0.63238 0.02487 0.0
N1007 N 0.35325 0.65594 0.99275 0.0
H1008 H 0.31445 0.32618 0.98916 0.0
H1009 H 0.46127 0.38217 0.02211 0.0
H1010 H 0.3738 0.28286 0.03688 0.0
H1011 H 0.39761 0.43512 0.99397 0.0
H1012 H 0.42926 0.34515 0.02533 0.0
H1013 H 0.34393 0.36622 0.98926 0.0
C1014 C 0.33353 0.32517 -0.00013 0.0
C1015 C 0.34186 0.301 0.01269 0.0
C1016 C 0.42217 0.36485 0.0185 0.0
C1017 C 0.37566 0.34645 0.01258 0.0
C1018 C 0.44053 0.38603 0.01646 0.0
C1019 C 0.43219 0.41182 0.00754 0.0
C1020 C 0.39516 0.3692 0.01134 0.0
C1021 C 0.40491 0.41556 0.00093 0.0
C1022 C 0.35035 0.34796 -0.00018 0.0
C1023 C 0.36682 0.30079 0.02614 0.0
N1024 N 0.38734 0.39438 0.00277 0.0
N1025 N 0.38287 0.32305 0.02554 0.0
H1026 H 0.69251 0.30072 0.98751 0.0
H1027 H 0.63191 0.44467 0.03071 0.0
H1028 H 0.73276 0.35889 0.03951 0.0
H1029 H 0.58337 0.38321 0.99136 0.0
H1030 H 0.66907 0.4129 0.03303 0.0
H1031 H 0.65218 0.32968 0.98802 0.0
C1032 C 0.6928 0.31947 -0.00085 0.0
C1033 C 0.71616 0.32762 0.01315 0.0
C1034 C 0.65032 0.40619 0.02393 0.0
C1035 C 0.67036 0.36074 0.01369 0.0
C1036 C 0.62905 0.42444 0.02245 0.0
C1037 C 0.60451 0.4167 0.01056 0.0
C1038 C 0.64732 0.37989 0.01327 0.0
C1039 C 0.60197 0.39002 0.00066 0.0
C1040 C 0.66984 0.33597 -0.00063 0.0
C1041 C 0.71547 0.3521 0.02786 0.0
N1042 N 0.62324 0.37257 0.00204 0.0
N1043 N 0.69306 0.36779 0.02761 0.0
H1044 H 0.97978 0.6774 0.70602 0.0
H1045 H 0.03951 0.6174 0.56858 0.0
H1046 H 0.04749 0.71318 0.66383 0.0
H1047 H 0.99692 0.56665 0.62635 0.0
H1048 H 0.04062 0.65366 0.60264 0.0
H1049 H 0.98438 0.63685 0.67729 0.0
C1050 C 0.99589 0.67657 0.69108 0.0
C1051 C 0.01304 0.6989 0.68706 0.0
C1052 C 0.03119 0.63453 0.60797 0.0
C1053 C 0.01797 0.65293 0.65383 0.0
C1054 C 0.03037 0.61391 0.58846 0.0
C1055 C 0.01794 0.58908 0.59463 0.0
C1056 C 0.01909 0.63051 0.63368 0.0
C1057 C 0.00672 0.58551 0.62083 0.0
C1058 C 0.9984 0.65349 0.67461 0.0
C1059 C 0.03339 0.69675 0.66718 0.0
N1060 N 0.00727 0.60617 0.63936 0.0
N1061 N 0.03505 0.67435 0.65107 0.0
H1062 H 0.31743 0.03145 0.68224 0.0
H1063 H 0.45477 0.97331 0.62434 0.0
H1064 H 0.36028 0.96483 0.71994 0.0
H1065 H 0.3989 0.01686 0.57258 0.0
H1066 H 0.42072 0.97167 0.66032 0.0
H1067 H 0.3466 0.02737 0.64189 0.0
C1068 C 0.33262 0.01566 0.68185 0.0
C1069 C 0.33666 0.99868 0.70467 0.0
C1070 C 0.41581 0.98142 0.64102 0.0
C1071 C 0.37038 0.99437 0.65894 0.0
C1072 C 0.43532 0.98255 0.62054 0.0
C1073 C 0.42972 0.9954 0.59549 0.0
C1074 C 0.39062 0.99361 0.63666 0.0
C1075 C 0.40404 0.00673 0.5916 0.0
C1076 C 0.34935 0.01346 0.65889 0.0
C1077 C 0.35686 0.97877 0.7031 0.0
N1078 N 0.38549 0.00584 0.61211 0.0
N1079 N 0.37316 0.9774 0.68081 0.0
H1080 H 0.05149 0.34202 0.71832 0.0
H1081 H 0.99238 0.38447 0.57272 0.0
H1082 H 0.97894 0.30538 0.68662 0.0
H1083 H 0.03548 0.43941 0.62596 0.0
H1084 H 0.99354 0.34992 0.60916 0.0
H1085 H 0.05286 0.37199 0.6785 0.0
C1086 C 0.03591 0.34018 0.70289 0.0
C1087 C 0.01474 0.32156 0.70609 0.0
C1088 C 1.00271 0.36956 0.61272 0.0
C1089 C 0.01648 0.35557 0.66028 0.0
C1090 C 1.00213 0.38921 0.59202 0.0
C1091 C 0.01373 0.41485 0.59647 0.0
C1092 C 0.01552 0.37548 0.63766 0.0
C1093 C 0.02605 0.42001 0.6218 0.0
C1094 C 0.03674 0.35727 0.68019 0.0
C1095 C 0.99557 0.31949 0.685 0.0
N1096 N 0.02676 0.40043 0.64139 0.0
N1097 N 0.99678 0.33649 0.66298 0.0
H1098 H 0.73098 0.03814 0.65345 0.0
H1099 H 0.58027 0.98606 0.62895 0.0
H1100 H 0.69107 0.98442 0.71039 0.0
H1101 H 0.63114 0.02199 0.56689 0.0
H1102 H 0.61739 0.99043 0.6621 0.0
H1103 H 0.69083 0.0383 0.62486 0.0
C1104 C 0.71368 0.02638 0.65994 0.0
C1105 C 0.71452 0.01083 0.68404 0.0
C1106 C 0.62027 0.99735 0.64121 0.0
C1107 C 0.66829 0.01098 0.65139 0.0
C1108 C 0.59914 0.99491 0.62232 0.0
C1109 C 0.6027 0.0034 0.59503 0.0
C1110 C 0.64485 0.00872 0.63273 0.0
C1111 C 0.62754 0.01477 0.58756 0.0
C1112 C 0.69073 0.02651 0.64364 0.0
C1113 C 0.69125 0.99659 0.69187 0.0
N1114 N 0.64756 0.01709 0.60627 0.0
N1115 N 0.66908 0.99678 0.67542 0.0
H1116 H 0.97993 0.32307 0.31145 0.0
H1117 H 0.04121 0.385 0.44732 0.0
H1118 H 0.05021 0.28987 0.35147 0.0
H1119 H 0.99712 0.43505 0.39005 0.0
H1120 H 0.04186 0.34846 0.41355 0.0
H1121 H 0.9836 0.36359 0.34045 0.0
C1122 C 0.99633 0.32443 0.32602 0.0
C1123 C 0.01457 0.30285 0.3293 0.0
C1124 C 0.0322 0.3675 0.40827 0.0
C1125 C 0.01848 0.34875 0.36277 0.0
C1126 C 0.03166 0.38828 0.42759 0.0
C1127 C 0.019 0.413 0.42146 0.0
C1128 C 0.01956 0.37125 0.38279 0.0
C1129 C 0.00718 0.41628 0.39549 0.0
C1130 C 0.99832 0.34749 0.34262 0.0
C1131 C 0.03528 0.30566 0.34871 0.0
N1132 N 0.00746 0.39547 0.37714 0.0
N1133 N 0.03646 0.328 0.36492 0.0
H1134 H 0.66147 0.04185 0.28935 0.0
H1135 H 0.63491 0.99321 0.44374 0.0
H1136 H 0.71779 0.99169 0.33386 0.0
H1137 H 0.5743 0.02676 0.38991 0.0
H1138 H 0.6681 0.99788 0.40672 0.0
H1139 H 0.6322 0.0426 0.32944 0.0
C1140 C 0.6677 0.03105 0.30767 0.0
C1141 C 0.69184 0.01627 0.30816 0.0
C1142 C 0.64753 0.00425 0.40315 0.0
C1143 C 0.65841 0.01708 0.35425 0.0
C1144 C 0.62859 0.00164 0.42424 0.0
C1145 C 0.6017 0.00939 0.41987 0.0
C1146 C 0.63954 0.01498 0.3777 0.0
C1147 C 0.59467 0.02019 0.39419 0.0
C1148 C 0.65099 0.0315 0.33057 0.0
C1149 C 0.69927 0.00324 0.33265 0.0
N1150 N 0.61344 0.02265 0.37415 0.0
N1151 N 0.68246 0.00372 0.35472 0.0
H1152 H 0.9825 0.70038 0.33276 0.0
H1153 H 0.03987 0.56182 0.38998 0.0
H1154 H 0.05048 0.65922 0.29641 0.0
H1155 H 0.99836 0.61846 0.44279 0.0
H1156 H 0.04149 0.59653 0.35421 0.0
H1157 H 0.9864 0.67074 0.373 0.0
C1158 C 0.99855 0.6855 0.33345 0.0
C1159 C 0.01594 0.68198 0.31101 0.0
C1160 C 0.03218 0.60143 0.37369 0.0
C1161 C 0.02004 0.64772 0.35652 0.0
C1162 C 0.03105 0.58156 0.39401 0.0
C1163 C 0.01885 0.58726 0.4193 0.0
C1164 C 0.02062 0.62703 0.3785 0.0
C1165 C 0.00801 0.61328 0.42356 0.0
C1166 C 1.00065 0.6685 0.35633 0.0
C1167 C 0.03622 0.66219 0.31295 0.0
N1168 N 0.00889 0.63218 0.40322 0.0
N1169 N 0.03746 0.64554 0.33509 0.0
H1170 H 0.37294 0.96664 0.28734 0.0
H1171 H 0.39628 0.0109 0.44354 0.0
H1172 H 0.31407 0.01285 0.3328 0.0
H1173 H 0.45903 0.98415 0.38843 0.0
H1174 H 0.36362 0.00647 0.40591 0.0
H1175 H 0.40233 0.96698 0.32732 0.0
C1176 C 0.36621 0.97689 0.30578 0.0
C1177 C 0.34123 0.99015 0.30659 0.0
C1178 C 0.38457 0.00158 0.4022 0.0
C1179 C 0.37475 0.99044 0.35263 0.0
C1180 C 0.40318 0.00405 0.42362 0.0
C1181 C 0.43047 0.9981 0.41908 0.0
C1182 C 0.39334 0.99275 0.37627 0.0
C1183 C 0.4383 0.98931 0.39286 0.0
C1184 C 0.38297 0.97702 0.32864 0.0
C1185 C 0.33321 0.00243 0.33131 0.0
N1186 N 0.41985 0.98688 0.37254 0.0
N1187 N 0.35004 0.00246 0.35336 0.0
H1188 H 0.98355 0.18006 0.31019 0.0
H1189 H 0.03719 0.12243 0.45172 0.0
H1190 H 0.05027 0.21603 0.35383 0.0
H1191 H 0.99877 0.07041 0.39213 0.0
H1192 H 0.03857 0.15879 0.41753 0.0
H1193 H 0.98619 0.14053 0.34066 0.0
C1194 C 0.99902 0.1795 0.32585 0.0
C1195 C 0.01646 0.20163 0.32968 0.0
C1196 C 0.02995 0.13936 0.41192 0.0
C1197 C 0.01906 0.15687 0.36495 0.0
C1198 C 0.02896 0.11869 0.43148 0.0
C1199 C 0.0178 0.0934 0.42476 0.0
C1200 C 0.01928 0.13487 0.38563 0.0
C1201 C 0.00765 0.08959 0.39812 0.0
C1202 C 1.00038 0.15702 0.34332 0.0
C1203 C 0.03593 0.19981 0.35054 0.0
N1204 N 0.00841 0.1102 0.37956 0.0
N1205 N 0.03645 0.17803 0.3676 0.0
H1206 H 0.87603 0.99976 0.27936 0.0
H1207 H 0.89719 0.0111 0.44207 0.0
H1208 H 0.81308 0.0251 0.33478 0.0
H1209 H 0.96128 0.99718 0.38381 0.0
H1210 H 0.86498 0.01204 0.404 0.0
H1211 H 0.90624 0.99409 0.31838 0.0
C1212 C 0.86853 0.00411 0.29977 0.0
C1213 C 0.84203 0.01324 0.30371 0.0
C1214 C 0.88609 0.00872 0.39963 0.0
C1215 C 0.87662 0.00663 0.34871 0.0
C1216 C 0.90452 0.00814 0.42136 0.0
C1217 C 0.9321 0.00421 0.41623 0.0
C1218 C 0.89525 0.00516 0.37257 0.0
C1219 C 0.94032 1.00051 0.38888 0.0
C1220 C 0.8858 1.0008 0.32209 0.0
C1221 C 0.8333 0.01793 0.33075 0.0
N1222 N 0.92202 1.0011 0.36818 0.0
N1223 N 0.8506 0.01476 0.3522 0.0
H1224 H 0.9953 0.79852 0.33435 0.0
H1225 H 0.02213 0.95149 0.38213 0.0
H1226 H 0.00402 0.86599 0.27841 0.0
H1227 H 0.012 0.88456 0.43866 0.0
H1228 H 0.01881 0.91982 0.34398 0.0
H1229 H 0.00493 0.82897 0.37266 0.0
C1230 C 0.99959 0.81968 0.33007 0.0
C1231 C 0.99877 0.82973 0.30308 0.0
C1232 C 0.01743 0.91202 0.36472 0.0
C1233 C 0.00941 0.86481 0.34697 0.0
C1234 C 0.01931 0.93012 0.38662 0.0
C1235 C 0.01714 0.92078 0.4138 0.0
C1236 C 0.01328 0.88428 0.36989 0.0
C1237 C 0.01369 0.89277 0.41812 0.0
C1238 C 0.0049 0.8371 0.352 0.0
C1239 C 0.00406 0.85743 0.29888 0.0
N1240 N 0.01172 0.87555 0.39639 0.0
N1241 N 0.00905 0.87401 0.32059 0.0
H1242 H 0.22189 0.97849 0.33825 0.0
H1243 H 0.07596 0.02399 0.39048 0.0
H1244 H 0.15803 0.00744 0.28582 0.0
H1245 H 0.1358 0.98987 0.44481 0.0
H1246 H 0.10812 0.02233 0.3531 0.0
H1247 H 0.19312 0.98675 0.37838 0.0
C1248 C 0.20195 0.98688 0.33521 0.0
C1249 C 0.19225 0.99206 0.30861 0.0
C1250 C 0.11437 0.01527 0.37317 0.0
C1251 C 0.15925 1.00139 0.35434 0.0
C1252 C 0.09594 0.01616 0.39464 0.0
C1253 C 0.103 0.00669 0.42088 0.0
C1254 C 0.14023 0.00472 0.37768 0.0
C1255 C 0.12942 0.99727 0.42492 0.0
C1256 C 0.18551 0.99144 0.3581 0.0
C1257 C 0.16619 0.00271 0.30587 0.0
N1258 N 0.14704 0.99629 0.40347 0.0
N1259 N 0.15063 0.00691 0.32838 0.0
H1260 H 0.02605 0.82483 0.71125 0.0
H1261 H 0.99896 0.87969 0.55966 0.0
H1262 H 0.98159 0.78096 0.64942 0.0
H1263 H 0.02303 0.93309 0.62558 0.0
H1264 H 0.99557 0.84251 0.59232 0.0
H1265 H 0.02728 0.8645 0.68057 0.0
C1266 C 0.01638 0.82362 0.69137 0.0
C1267 C 0.00408 0.79943 0.68268 0.0
C1268 C 1.00153 0.86236 0.59972 0.0
C1269 C 0.00567 0.84436 0.64757 0.0
C1270 C 1.00363 0.88362 0.58101 0.0
C1271 C 0.01134 0.90958 0.58985 0.0
C1272 C 0.00742 0.86691 0.62752 0.0
C1273 C 0.01692 0.91341 0.61787 0.0
C1274 C 0.01717 0.84618 0.67386 0.0
C1275 C 0.9919 0.79894 0.65669 0.0
N1276 N 0.01498 0.89224 0.63574 0.0
N1277 N 0.99319 0.82094 0.64003 0.0
H1278 H 0.15385 0.00601 0.73633 0.0
H1279 H 0.13392 0.00513 0.57307 0.0
H1280 H 0.21884 0.01914 0.6791 0.0
H1281 H 0.06959 0.99344 0.63158 0.0
H1282 H 0.16598 0.00712 0.61115 0.0
H1283 H 0.12346 0.99795 0.69782 0.0
C1284 C 0.16176 0.00709 0.71564 0.0
C1285 C 0.18891 0.01349 0.71097 0.0
C1286 C 0.14485 0.004 0.6156 0.0
C1287 C 0.15413 0.00427 0.6666 0.0
C1288 C 0.12648 0.00286 0.59384 0.0
C1289 C 0.09886 0.99931 0.59899 0.0
C1290 C 0.13559 0.00156 0.64275 0.0
C1291 C 0.09058 0.99641 0.62644 0.0
C1292 C 0.1444 0.00243 0.69362 0.0
C1293 C 0.19811 0.01413 0.68369 0.0
N1294 N 0.1088 0.99771 0.64719 0.0
N1295 N 0.18071 0.00983 0.66254 0.0
H1296 H 0.95561 0.15081 0.71921 0.0
H1297 H 0.0337 0.11521 0.58201 0.0
H1298 H 0.032 0.18859 0.70061 0.0
H1299 H 0.98639 0.05625 0.62644 0.0
H1300 H 0.02874 0.14687 0.62078 0.0
H1301 H 0.96204 0.12023 0.68057 0.0
C1302 C 0.97389 0.15261 0.70727 0.0
C1303 C 0.99345 0.17226 0.71365 0.0
C1304 C 0.01957 0.12694 0.62194 0.0
C1305 C 1.00036 0.13767 0.66851 0.0
C1306 C 0.02226 0.10897 0.59986 0.0
C1307 C 0.01052 0.08305 0.60109 0.0
C1308 C 0.00449 0.11911 0.645 0.0
C1309 C 0.99598 0.07593 0.62472 0.0
C1310 C 0.9774 0.1352 0.68503 0.0
C1311 C 0.0162 0.17405 0.69649 0.0
N1312 N 0.99319 0.09393 0.64562 0.0
N1313 N 0.01899 0.15703 0.67464 0.0
H1314 H 0.83613 0.97449 0.70782 0.0
H1315 H 0.89764 0.01956 0.56362 0.0
H1316 H 0.79975 0.03291 0.65307 0.0
H1317 H 0.94738 0.98218 0.62578 0.0
H1318 H 0.86049 0.0209 0.59584 0.0
H1319 H 0.87642 0.9741 0.67831 0.0
C1320 C 0.83663 0.98729 0.68975 0.0
C1321 C 0.81427 0.00336 0.68265 0.0
C1322 C 0.87951 0.01244 0.60258 0.0
C1323 C 0.86 0.00283 0.64888 0.0
C1324 C 0.90078 0.01151 0.58407 0.0
C1325 C 0.92573 1.00061 0.59191 0.0
C1326 C 0.88287 0.00219 0.62925 0.0
C1327 C 0.92851 0.99082 0.61889 0.0
C1328 C 0.85957 0.98701 0.67292 0.0
C1329 C 0.81609 0.01957 0.65899 0.0
N1330 N 0.90724 0.99166 0.6366 0.0
N1331 N 0.83835 0.01872 0.64296 0.0
H1332 H 0.31421 0.9742 0.18221 0.0
H1333 H 0.45419 0.02597 0.12394 0.0
H1334 H 0.36222 0.0361 0.22134 0.0
H1335 H 0.39612 0.98629 0.07168 0.0
H1336 H 0.42058 0.02844 0.16019 0.0
H1337 H 0.34291 0.97773 0.14133 0.0
C1338 C 0.33045 0.98887 0.18204 0.0
C1339 C 0.33607 0.00457 0.20543 0.0
C1340 C 0.41505 0.01932 0.14077 0.0
C1341 C 0.36921 0.00829 0.15904 0.0
C1342 C 0.43433 0.01772 0.12008 0.0
C1343 C 0.42804 0.0057 0.09478 0.0
C1344 C 0.38928 0.00846 0.13643 0.0
C1345 C 0.40182 0.99572 0.09089 0.0
C1346 C 0.3469 0.99075 0.15877 0.0
C1347 C 0.35751 0.0231 0.20407 0.0
N1348 N 0.38344 0.99704 0.11163 0.0
N1349 N 0.37345 0.02418 0.18148 0.0
H1350 H 0.99206 0.32804 0.21162 0.0
H1351 H 0.02246 0.37772 0.05848 0.0
H1352 H 0.00449 0.27388 0.14312 0.0
H1353 H 0.00872 0.43294 0.12599 0.0
H1354 H 0.01874 0.33967 0.09002 0.0
H1355 H 1.00102 0.36671 0.18148 0.0
C1356 C 0.99696 0.32425 0.1903 0.0
C1357 C 0.99746 0.29764 0.17986 0.0
C1358 C 0.01662 0.36009 0.098 0.0
C1359 C 0.00741 0.34188 0.14518 0.0
C1360 C 0.01872 0.38194 0.07997 0.0
C1361 C 0.01568 0.40872 0.08949 0.0
C1362 C 0.01137 0.36487 0.12588 0.0
C1363 C 0.01114 0.41271 0.11766 0.0
C1364 C 1.00191 0.34636 0.17308 0.0
C1365 C 1.00351 0.29402 0.15197 0.0
N1366 N 0.00897 0.391 0.13484 0.0
N1367 N 0.00818 0.31588 0.13561 0.0
H1368 H 0.71605 0.02808 0.18267 0.0
H1369 H 0.57273 0.98141 0.12811 0.0
H1370 H 0.66592 0.96995 0.22495 0.0
H1371 H 0.63263 0.01551 0.07392 0.0
H1372 H 0.60632 0.97919 0.16452 0.0
H1373 H 0.68623 0.02488 0.1427 0.0
C1374 C 0.69909 0.01429 0.18341 0.0
C1375 C 0.6933 0.99956 0.20741 0.0
C1376 C 0.61219 0.98704 0.14463 0.0
C1377 C 0.65881 0.99632 0.16201 0.0
C1378 C 0.59294 0.9885 0.12385 0.0
C1379 C 0.5998 0.99879 0.09792 0.0
C1380 C 0.63847 0.99631 0.13968 0.0
C1381 C 0.62645 0.0074 0.09359 0.0
C1382 C 0.68198 0.01262 0.16065 0.0
C1383 C 0.67084 0.98221 0.2072 0.0
N1384 N 0.64477 0.0062 0.11435 0.0
N1385 N 0.65428 0.98135 0.18505 0.0
H1386 H 0.02867 0.70509 0.18392 0.0
H1387 H 1.0014 0.5542 0.13106 0.0
H1388 H 0.9831 0.6451 0.2288 0.0
H1389 H 0.02628 0.61846 0.0762 0.0
H1390 H 0.99785 0.58721 0.16802 0.0
H1391 H 0.03015 0.674 0.14444 0.0
C1392 C 0.01878 0.68554 0.18535 0.0
C1393 C 0.00614 0.67746 0.20979 0.0
C1394 C 0.00405 0.59414 0.14789 0.0
C1395 C 0.00804 0.64187 0.16514 0.0
C1396 C 0.00626 0.57524 0.12678 0.0
C1397 C 0.0142 0.58353 0.10045 0.0
C1398 C 0.01005 0.62157 0.14282 0.0
C1399 C 0.02 0.61117 0.09616 0.0
C1400 C 0.01973 0.66779 0.16293 0.0
C1401 C 0.99366 0.65189 0.2106 0.0
N1402 N 0.01793 0.62923 0.11719 0.0
N1403 N 0.99513 0.63497 0.18875 0.0
H1404 H 0.37105 0.03472 0.78678 0.0
H1405 H 0.39728 0.99027 0.94243 0.0
H1406 H 0.3138 0.98644 0.8321 0.0
H1407 H 0.45888 0.01857 0.88679 0.0
H1408 H 0.36432 0.99331 0.90499 0.0
H1409 H 0.40096 0.03432 0.82628 0.0
C1410 C 0.36477 0.02397 0.80511 0.0
C1411 C 0.34009 0.01012 0.80593 0.0
C1412 C 0.38507 0.99883 0.90109 0.0
C1413 C 0.37434 0.0098 0.85158 0.0
C1414 C 0.4039 0.99717 0.92242 0.0
C1415 C 0.43099 0.00408 0.91778 0.0
C1416 C 0.39333 0.00781 0.87505 0.0
C1417 C 0.43835 0.0128 0.89139 0.0
C1418 C 0.38188 0.02379 0.8277 0.0
C1419 C 0.33269 0.99727 0.83056 0.0
N1420 N 0.41966 0.01448 0.87115 0.0
N1421 N 0.34986 0.99724 0.85241 0.0
H1422 H 0.98507 0.30327 0.83009 0.0
H1423 H 0.03564 0.44571 0.88575 0.0
H1424 H 0.05095 0.34724 0.79306 0.0
H1425 H 0.9969 0.38723 0.93871 0.0
H1426 H 0.03787 0.41127 0.84963 0.0
H1427 H 0.98666 0.33441 0.86924 0.0
C1428 C 1.00017 0.31913 0.83037 0.0
C1429 C 0.01766 0.32283 0.80802 0.0
C1430 C 0.02897 0.40598 0.86921 0.0
C1431 C 0.01901 0.35892 0.85233 0.0
C1432 C 0.02748 0.42568 0.88973 0.0
C1433 C 0.01604 0.41934 0.91525 0.0
C1434 C 0.01854 0.3799 0.87408 0.0
C1435 C 0.00601 0.39295 0.91937 0.0
C1436 C 1.00091 0.33702 0.85262 0.0
C1437 C 0.0366 0.344 0.80946 0.0
N1438 N 0.0073 0.37424 0.89891 0.0
N1439 N 0.03652 0.36145 0.83102 0.0
H1440 H 0.72725 0.04894 0.85948 0.0
H1441 H 0.58419 0.98242 0.88988 0.0
H1442 H 0.701 0.97744 0.8156 0.0
H1443 H 0.63101 0.0259 0.95016 0.0
H1444 H 0.6225 0.98543 0.85782 0.0
H1445 H 0.68746 0.04595 0.8883 0.0
C1446 C 0.7133 0.03241 0.85599 0.0
C1447 C 0.71796 0.01307 0.83531 0.0
C1448 C 0.62424 0.99424 0.87811 0.0
C1449 C 0.67161 0.01011 0.86801 0.0
C1450 C 0.60241 0.99266 0.89631 0.0
C1451 C 0.60449 0.00378 0.92278 0.0
C1452 C 0.64791 0.00757 0.88632 0.0
C1453 C 0.62858 0.01677 0.9301 0.0
C1454 C 0.69042 0.03087 0.87239 0.0
C1455 C 0.69834 0.99283 0.83122 0.0
N1456 N 0.64922 0.01842 0.91197 0.0
N1457 N 0.67601 0.99184 0.84746 0.0
H1458 H 0.99055 0.67529 0.80359 0.0
H1459 H 0.02152 0.62554 0.95657 0.0
H1460 H 1.00121 0.72943 0.8724 0.0
H1461 H 0.00578 0.57045 0.88942 0.0
H1462 H 0.01778 0.66362 0.92505 0.0
H1463 H 0.99991 0.63669 0.83367 0.0
C1464 C 0.99518 0.6791 0.82497 0.0
C1465 C 0.99506 0.70567 0.83551 0.0
C1466 C 0.01521 0.64322 0.91715 0.0
C1467 C 0.00543 0.66149 0.87013 0.0
C1468 C 0.0173 0.62136 0.93518 0.0
C1469 C 0.0137 0.59462 0.92575 0.0
C1470 C 0.00943 0.63848 0.88939 0.0
C1471 C 0.00863 0.59066 0.89767 0.0
C1472 C 1.00034 0.65702 0.84216 0.0
C1473 C 1.00076 0.7093 0.86347 0.0
N1474 N 0.00649 0.61238 0.88051 0.0
N1475 N 0.00565 0.68746 0.8798 0.0
H1476 H 0.22207 0.33229 0.02473 0.0
H1477 H 0.07212 0.38175 0.99037 0.0
H1478 H 0.15775 0.27953 0.99844 0.0
H1479 H 0.13516 0.43752 0.01373 0.0
H1480 H 0.10448 0.3448 0.99104 0.0
H1481 H 0.19219 0.37158 0.01816 0.0
C1482 C 0.20181 0.32897 0.01723 0.0
C1483 C 0.19235 0.30248 0.0124 0.0
C1484 C 0.11138 0.36509 0.99593 0.0
C1485 C 0.15797 0.34733 0.00513 0.0
C1486 C 0.09281 0.38634 0.99562 0.0
C1487 C 0.10075 0.41296 0.00221 0.0
C1488 C 0.1383 0.37018 0.00303 0.0
C1489 C 0.12803 0.41739 0.00854 0.0
C1490 C 0.18471 0.35141 0.01366 0.0
C1491 C 0.16582 0.29947 0.00292 0.0
N1492 N 0.14578 0.3962 0.00898 0.0
N1493 N 0.14962 0.3215 -0.00023 0.0
H1494 H 0.16934 0.70777 0.95448 0.0
H1495 H 0.13352 0.56763 0.02657 0.0
H1496 H 0.20994 0.68469 0.02938 0.0
H1497 H 0.07478 0.61771 0.98532 0.0
H1498 H 0.16646 0.60497 0.02246 0.0
H1499 H 0.13945 0.66908 0.95973 0.0
C1500 C 0.17195 0.69477 0.97222 0.0
C1501 C 0.19197 0.7002 0.9919 0.0
C1502 C 0.14631 0.60766 0.01442 0.0
C1503 C 0.15799 0.65484 0.99738 0.0
C1504 C 0.12758 0.58639 0.01662 0.0
C1505 C 0.10132 0.5896 0.00637 0.0
C1506 C 0.13886 0.63191 0.0012 0.0
C1507 C 0.09467 0.61437 0.99375 0.0
C1508 C 0.15489 0.67249 0.97504 0.0
C1509 C 0.19488 0.68154 0.01368 0.0
N1510 N 0.11333 0.63439 0.99132 0.0
N1511 N 0.17804 0.6597 0.01587 0.0
H1512 H 0.31527 0.1775 0.03202 0.0
H1513 H 0.45677 0.11852 0.98425 0.0
H1514 H 0.36523 0.21539 0.9705 0.0
H1515 H 0.39685 0.06676 0.02135 0.0
H1516 H 0.42371 0.15499 0.98161 0.0
H1517 H 0.34423 0.13702 0.03004 0.0
C1518 C 0.33201 0.17719 0.01778 0.0
C1519 C 0.33799 0.20016 0.00171 0.0
C1520 C 0.41767 0.13565 0.99023 0.0
C1521 C 0.3715 0.15413 -0.00018 0.0
C1522 C 0.43663 0.1148 0.99192 0.0
C1523 C 0.42967 0.0895 0.00318 0.0
C1524 C 0.39148 0.13151 0.00025 0.0
C1525 C 0.40309 0.08591 0.01246 0.0
C1526 C 0.34862 0.15413 0.01681 0.0
C1527 C 0.36014 0.19855 0.98381 0.0
N1528 N 0.38502 0.10677 0.01106 0.0
N1529 N 0.37619 0.17618 0.98361 0.0
H1530 H 0.83875 0.29956 0.98423 0.0
H1531 H 0.89992 0.44282 0.0295 0.0
H1532 H 0.80119 0.35529 0.04084 0.0
H1533 H 0.94929 0.38232 0.98969 0.0
H1534 H 0.8632 0.41054 0.03158 0.0
H1535 H 0.87935 0.32845 0.98439 0.0
C1536 C 0.8391 0.31768 0.99682 0.0
C1537 C 0.8163 0.32527 0.01212 0.0
C1538 C 0.88203 0.40412 0.02244 0.0
C1539 C 0.8624 0.35834 0.01227 0.0
C1540 C 0.90309 0.42269 0.0211 0.0
C1541 C 0.92781 0.41542 0.00924 0.0
C1542 C 0.88532 0.37788 0.01163 0.0
C1543 C 0.9306 0.3888 0.99905 0.0
C1544 C 0.86221 0.33417 0.99684 0.0
C1545 C 0.81793 0.34894 0.02812 0.0
N1546 N 0.90952 0.37101 0.00028 0.0
N1547 N 0.84035 0.36461 0.02759 0.0
H1548 H 0.6841 0.79293 0.99072 0.0
H1549 H 0.6345 0.94481 0.02152 0.0
H1550 H 0.73673 0.86038 0.00829 0.0
H1551 H 0.57947 0.88037 -9e-05 0.0
H1552 H 0.67142 0.9126 0.02042 0.0
H1553 H 0.64512 0.82282 0.99798 0.0
C1554 C 0.68747 0.81391 0.99648 0.0
C1555 C 0.71378 0.82421 0.9987 0.0
C1556 C 0.65131 0.90536 0.01597 0.0
C1557 C 0.66927 0.85855 0.00677 0.0
C1558 C 0.63007 0.92384 0.01653 0.0
C1559 C 0.60367 0.91547 0.01052 0.0
C1560 C 0.64643 0.87808 0.00926 0.0
C1561 C 0.59944 0.88782 0.00461 0.0
C1562 C 0.6652 0.83099 0.00043 0.0
C1563 C 0.71688 0.85163 0.00594 0.0
N1564 N 0.62062 0.87014 0.00395 0.0
N1565 N 0.69498 0.86778 0.00959 0.0
H1566 H 0.79732 0.64416 0.97739 0.0
H1567 H 0.95061 0.62204 0.02398 0.0
H1568 H 0.8386 0.70285 0.02783 0.0
H1569 H 0.89865 0.55979 0.99101 0.0
H1570 H 0.91277 0.65441 0.02141 0.0
H1571 H 0.8374 0.61587 0.97739 0.0
C1572 C 0.81486 0.65109 0.98857 0.0
C1573 C 0.81434 0.67571 0.00309 0.0
C1574 C 0.90981 0.63364 0.01476 0.0
C1575 C 0.86084 0.64323 0.003 0.0
C1576 C 0.93138 0.61517 0.01615 0.0
C1577 C 0.92785 0.58801 0.0079 0.0
C1578 C 0.88472 0.62493 0.00468 0.0
C1579 C 0.90243 0.58033 0.99794 0.0
C1580 C 0.83785 0.63491 0.98851 0.0
C1581 C 0.83807 0.68396 0.01647 0.0
N1582 N 0.88203 0.59861 0.99659 0.0
N1583 N 0.86034 0.66765 0.01629 0.0
H1584 H 0.31673 0.82376 0.97994 0.0
H1585 H 0.45678 0.8843 0.03011 0.0
H1586 H 0.36544 0.78731 0.04343 0.0
H1587 H 0.39746 0.93515 0.99066 0.0
H1588 H 0.42398 0.84763 0.03231 0.0
H1589 H 0.34561 0.86427 0.98158 0.0
C1590 C 0.3332 0.82436 0.99449 0.0
C1591 C 0.33882 0.80178 0.01128 0.0
C1592 C 0.41801 0.86682 0.02326 0.0
C1593 C 0.37224 0.84788 0.0128 0.0
C1594 C 0.43683 0.88778 0.02182 0.0
C1595 C 0.42997 0.91289 0.01004 0.0
C1596 C 0.39207 0.87062 0.01247 0.0
C1597 C 0.40363 0.91616 -4e-05 0.0
C1598 C 0.34976 0.84745 0.99528 0.0
C1599 C 0.36064 0.8038 0.02956 0.0
N1600 N 0.38569 0.89517 0.00115 0.0
N1601 N 0.37663 0.82619 0.02958 0.0
H1602 H 0.68546 0.20876 0.0265 0.0
H1603 H 0.6339 0.05804 0.99436 0.0
H1604 H 0.73645 0.14226 0.00147 0.0
H1605 H 0.57963 0.12265 0.01757 0.0
H1606 H 0.67087 0.0901 0.99429 0.0
H1607 H 0.64593 0.1794 0.02034 0.0
C1608 C 0.68833 0.18813 0.01934 0.0
C1609 C 0.71438 0.17789 0.01475 0.0
C1610 C 0.65092 0.09743 -0.00065 0.0
C1611 C 0.66928 0.14414 0.00795 0.0
C1612 C 0.62966 0.07903 -0.00051 0.0
C1613 C 0.60348 0.0875 0.00627 0.0
C1614 C 0.64631 0.12473 0.00621 0.0
C1615 C 0.59945 0.11515 0.01229 0.0
C1616 C 0.66576 0.17134 0.016 0.0
C1617 C 0.71685 0.15092 0.00572 0.0
N1618 N 0.62068 0.13276 0.01233 0.0
N1619 N 0.69469 0.13504 0.00279 0.0
H1620 H 0.4848 0.72343 0.86571 0.0
H1621 H 0.5281 0.56905 0.8902 0.0
H1622 H 0.53154 0.67862 0.80631 0.0
H1623 H 0.50112 0.62338 0.95419 0.0
H1624 H 0.52552 0.6067 0.85734 0.0
H1625 H 0.48606 0.68441 0.89628 0.0
C1626 C 0.49546 0.70535 0.85914 0.0
C1627 C 0.50852 0.70446 0.83361 0.0
C1628 C 0.52023 0.61029 0.8786 0.0
C1629 C 0.50973 0.6594 0.86853 0.0
C1630 C 0.52163 0.58883 0.89737 0.0
C1631 C 0.51486 0.59304 0.92507 0.0
C1632 C 0.5117 0.63599 0.88755 0.0
C1633 C 0.5067 0.61913 0.93315 0.0
C1634 C 0.49609 0.68303 0.8766 0.0
C1635 C 0.52126 0.68017 0.82584 0.0
N1636 N 0.50527 0.63953 0.91448 0.0
N1637 N 0.52168 0.65857 0.84333 0.0
H1638 H 0.37595 0.49874 0.77992 0.0
H1639 H 0.39706 0.50985 0.9427 0.0
H1640 H 0.313 0.52438 0.8352 0.0
H1641 H 0.46113 0.49613 0.88438 0.0
H1642 H 0.36483 0.51092 0.90461 0.0
H1643 H 0.40608 0.49301 0.81898 0.0
C1644 C 0.36843 0.50315 0.8003 0.0
C1645 C 0.34195 0.51239 0.80417 0.0
C1646 C 0.38594 0.50762 0.90022 0.0
C1647 C 0.37647 0.50569 0.84926 0.0
C1648 C 0.40438 0.50695 0.92196 0.0
C1649 C 0.43197 0.50305 0.91683 0.0
C1650 C 0.39509 0.50415 0.87315 0.0
C1651 C 0.44017 0.49945 0.88946 0.0
C1652 C 0.38565 0.4998 0.82265 0.0
C1653 C 0.3332 0.51713 0.8312 0.0
N1654 N 0.42187 0.5001 0.86876 0.0
N1655 N 0.35047 0.51391 0.8527 0.0
H1656 H 0.49595 0.29791 0.83477 0.0
H1657 H 0.5237 0.45062 0.88285 0.0
H1658 H 0.50473 0.36553 0.77902 0.0
H1659 H 0.51195 0.38389 0.93927 0.0
H1660 H 0.5206 0.41896 0.84468 0.0
H1661 H 0.50584 0.32821 0.87314 0.0
C1662 C 0.50032 0.31907 0.83054 0.0
C1663 C 0.49942 0.32921 0.8036 0.0
C1664 C 0.51881 0.4112 0.8654 0.0
C1665 C 0.51036 0.36411 0.84756 0.0
C1666 C 0.52053 0.4293 0.8873 0.0
C1667 C 0.51781 0.42002 0.91445 0.0
C1668 C 0.51425 0.38352 0.87052 0.0
C1669 C 0.51406 0.39205 0.91875 0.0
C1670 C 0.50578 0.33639 0.85251 0.0
C1671 C 0.50483 0.3569 0.79946 0.0
N1672 N 0.51222 0.37482 0.897 0.0
N1673 N 0.50996 0.37339 0.8212 0.0
H1674 H 0.70852 0.52528 0.82136 0.0
H1675 H 0.57653 0.47429 0.89566 0.0
H1676 H 0.67092 0.44813 0.80352 0.0
H1677 H 0.63397 0.52313 0.94006 0.0
H1678 H 0.60872 0.4695 0.85833 0.0
H1679 H 0.6799 0.52936 0.86226 0.0
C1680 C 0.69447 0.50912 0.82601 0.0
C1681 C 0.69199 0.48647 0.80853 0.0
C1682 C 0.6144 0.48121 0.87624 0.0
C1683 C 0.65892 0.49141 0.85499 0.0
C1684 C 0.59597 0.4841 0.89751 0.0
C1685 C 0.60257 0.49924 0.92095 0.0
C1686 C 0.63957 0.49393 0.87802 0.0
C1687 C 0.62818 0.51123 0.92235 0.0
C1688 C 0.67813 0.51155 0.84934 0.0
C1689 C 0.67313 0.46638 0.81569 0.0
N1690 N 0.64575 0.50858 0.90096 0.0
N1691 N 0.65723 0.46947 0.8381 0.0
H1692 H 0.48017 0.27943 0.14997 0.0
H1693 H 0.52419 0.43364 0.12623 0.0
H1694 H 0.52572 0.32422 0.21028 0.0
H1695 H 0.50026 0.37896 0.06135 0.0
H1696 H 0.52027 0.39617 0.15914 0.0
H1697 H 0.48209 0.31845 0.11936 0.0
C1698 C 0.49065 0.29752 0.15676 0.0
C1699 C 0.50325 0.29839 0.18253 0.0
C1700 C 0.51594 0.39246 0.13769 0.0
C1701 C 0.50524 0.3434 0.14758 0.0
C1702 C 0.5181 0.4138 0.11888 0.0
C1703 C 0.51261 0.40943 0.09093 0.0
C1704 C 0.50789 0.36669 0.1285 0.0
C1705 C 0.5049 0.38329 0.08261 0.0
C1706 C 0.49169 0.31981 0.13927 0.0
C1707 C 0.5158 0.32267 0.19056 0.0
N1708 N 0.50268 0.36298 0.10132 0.0
N1709 N 0.51662 0.34424 0.17304 0.0
H1710 H 0.65538 0.49501 0.23591 0.0
H1711 H 0.63392 0.50851 0.07337 0.0
H1712 H 0.71808 0.52108 0.18058 0.0
H1713 H 0.57086 0.48852 0.131 0.0
H1714 H 0.6661 0.50962 0.11142 0.0
H1715 H 0.62537 0.48874 0.19682 0.0
C1716 C 0.66287 0.49938 0.2155 0.0
C1717 C 0.68924 0.50887 0.2116 0.0
C1718 C 0.64523 0.50489 0.11566 0.0
C1719 C 0.65487 0.50162 0.16651 0.0
C1720 C 0.6268 0.50421 0.09393 0.0
C1721 C 0.59949 0.49856 0.09888 0.0
C1722 C 0.63634 0.4998 0.14257 0.0
C1723 C 0.59159 0.49318 0.12605 0.0
C1724 C 0.64572 0.49572 0.19314 0.0
C1725 C 0.69796 0.51363 0.18457 0.0
N1726 N 0.60986 0.494 0.14677 0.0
N1727 N 0.68077 0.51016 0.16308 0.0
H1728 H 0.49108 0.70468 0.18157 0.0
H1729 H 0.5185 0.55187 0.1333 0.0
H1730 H 0.50281 0.63742 0.23722 0.0
H1731 H 0.50653 0.61848 0.07675 0.0
H1732 H 0.515 0.58352 0.17141 0.0
H1733 H 0.49918 0.67413 0.14291 0.0
C1734 C 0.49565 0.68354 0.18569 0.0
C1735 C 0.4962 0.67359 0.21272 0.0
C1736 C 0.51321 0.59127 0.15068 0.0
C1737 C 0.50513 0.63843 0.16848 0.0
C1738 C 0.51516 0.57316 0.1288 0.0
C1739 C 0.51265 0.58242 0.10163 0.0
C1740 C 0.50861 0.61894 0.14551 0.0
C1741 C 0.50858 0.61035 0.09729 0.0
C1742 C 0.5001 0.66608 0.16358 0.0
C1743 C 0.50181 0.64592 0.21675 0.0
N1744 N 0.50656 0.6276 0.11901 0.0
N1745 N 0.50598 0.62932 0.19488 0.0
H1746 H 0.29908 0.53482 0.15316 0.0
H1747 H 0.44962 0.48363 0.12725 0.0
H1748 H 0.33778 0.47869 0.20866 0.0
H1749 H 0.39735 0.51686 0.06484 0.0
H1750 H 0.41216 0.4862 0.16023 0.0
H1751 H 0.3386 0.53372 0.12387 0.0
C1752 C 0.31591 0.52212 0.15916 0.0
C1753 C 0.31482 0.50633 0.18313 0.0
C1754 C 0.40903 0.49286 0.13928 0.0
C1755 C 0.36061 0.50528 0.14961 0.0
C1756 C 0.43037 0.49148 0.12048 0.0
C1757 C 0.42664 0.49992 0.09315 0.0
C1758 C 0.38401 0.50316 0.13075 0.0
C1759 C 0.40122 0.50987 0.08554 0.0
C1760 C 0.33855 0.52158 0.14241 0.0
C1761 C 0.3377 0.49105 0.19028 0.0
N1762 N 0.38103 0.51129 0.10421 0.0
N1763 N 0.35968 0.49075 0.17346 0.0
H1764 H 0.86124 0.54346 0.7207 0.0
H1765 H 0.89668 0.48571 0.57164 0.0
H1766 H 0.81704 0.47705 0.68449 0.0
H1767 H 0.95358 0.52664 0.62425 0.0
H1768 H 0.8628 0.48891 0.60831 0.0
H1769 H 0.89031 0.54469 0.68038 0.0
C1770 C 0.85753 0.52921 0.70419 0.0
C1771 C 0.83695 0.50976 0.70628 0.0
C1772 C 0.8827 0.49723 0.61168 0.0
C1773 C 0.87009 0.51131 0.6598 0.0
C1774 C 0.902 0.49548 0.5908 0.0
C1775 C 0.92807 0.50573 0.59498 0.0
C1776 C 0.88942 0.50979 0.63664 0.0
C1777 C 0.93387 0.51815 0.62022 0.0
C1778 C 0.87413 0.52996 0.68117 0.0
C1779 C 0.83265 0.49237 0.68381 0.0
N1780 N 0.91471 0.51989 0.64001 0.0
N1781 N 0.84924 0.4934 0.66156 0.0
H1782 H 0.45761 0.79056 0.65615 0.0
H1783 H 0.53512 0.92732 0.62293 0.0
H1784 H 0.53394 0.80807 0.69491 0.0
H1785 H 0.48856 0.88375 0.5625 0.0
H1786 H 0.53032 0.88836 0.65438 0.0
H1787 H 0.46413 0.82941 0.62608 0.0
C1788 C 0.47592 0.80229 0.65824 0.0
C1789 C 0.49541 0.79556 0.67804 0.0
C1790 C 0.5213 0.88746 0.63417 0.0
C1791 C 0.50239 0.84097 0.64408 0.0
C1792 C 0.52389 0.90964 0.61633 0.0
C1793 C 0.51234 0.90866 0.59005 0.0
C1794 C 0.50649 0.86461 0.6258 0.0
C1795 C 0.49803 0.88526 0.58245 0.0
C1796 C 0.47947 0.82467 0.64115 0.0
C1797 C 0.51819 0.81246 0.68024 0.0
N1798 N 0.49534 0.86429 0.6003 0.0
N1799 N 0.52101 0.83447 0.66352 0.0
H1800 H 0.167 0.46795 0.72531 0.0
H1801 H 0.13276 0.51673 0.57269 0.0
H1802 H 0.21519 0.52734 0.68252 0.0
H1803 H 0.07447 0.48178 0.62815 0.0
H1804 H 0.16668 0.51431 0.60918 0.0
H1805 H 0.13695 0.46556 0.68578 0.0
C1806 C 0.1714 0.48034 0.70749 0.0
C1807 C 0.19342 0.49824 0.70745 0.0
C1808 C 0.14646 0.50716 0.61327 0.0
C1809 C 0.15908 0.49543 0.66196 0.0
C1810 C 0.12709 0.50848 0.59248 0.0
C1811 C 0.10064 0.49961 0.59741 0.0
C1812 C 0.13946 0.49647 0.63901 0.0
C1813 C 0.09449 0.48914 0.62347 0.0
C1814 C 0.1542 0.47898 0.68494 0.0
C1815 C 0.19848 0.51327 0.68347 0.0
N1816 N 0.11375 0.48779 0.64322 0.0
N1817 N 0.18129 0.51171 0.66174 0.0
H1818 H 0.52766 0.20488 0.68337 0.0
H1819 H 0.49887 0.05419 0.63075 0.0
H1820 H 0.48194 0.14525 0.72855 0.0
H1821 H 0.52511 0.11798 0.576 0.0
H1822 H 0.49528 0.08735 0.66756 0.0
H1823 H 0.52859 0.1738 0.64385 0.0
C1824 C 0.5176 0.18542 0.68485 0.0
C1825 C 0.5051 0.17741 0.70937 0.0
C1826 C 0.50176 0.09416 0.64748 0.0
C1827 C 0.50635 0.14185 0.66469 0.0
C1828 C 0.50399 0.07516 0.62646 0.0
C1829 C 0.51236 0.08326 0.60021 0.0
C1830 C 0.50816 0.12149 0.64241 0.0
C1831 C 0.51849 0.11083 0.59589 0.0
C1832 C 0.51823 0.16768 0.6624 0.0
C1833 C 0.49238 0.15197 0.71026 0.0
N1834 N 0.5164 0.12897 0.61684 0.0
N1835 N 0.49354 0.13505 0.68838 0.0
H1836 H 0.86431 0.46521 0.291 0.0
H1837 H 0.8983 0.51598 0.44294 0.0
H1838 H 0.81632 0.52567 0.33252 0.0
H1839 H 0.9567 0.48019 0.38817 0.0
H1840 H 0.86452 0.51337 0.4063 0.0
H1841 H 0.89433 0.46344 0.33058 0.0
C1842 C 0.85996 0.478 0.30854 0.0
C1843 C 0.83799 0.49599 0.30819 0.0
C1844 C 0.88473 0.50607 0.4024 0.0
C1845 C 0.87228 0.49384 0.35379 0.0
C1846 C 0.90401 0.50749 0.42327 0.0
C1847 C 0.93046 0.49844 0.41858 0.0
C1848 C 0.89182 0.49509 0.37681 0.0
C1849 C 0.93669 0.48769 0.39266 0.0
C1850 C 0.87713 0.47697 0.33113 0.0
C1851 C 0.83299 0.51151 0.33186 0.0
N1852 N 0.91751 0.48624 0.37283 0.0
N1853 N 0.85014 0.51024 0.35365 0.0
H1854 H 0.48416 0.80386 0.32976 0.0
H1855 H 0.53805 0.94449 0.38657 0.0
H1856 H 0.55105 0.84652 0.29305 0.0
H1857 H 0.49794 0.88652 0.43905 0.0
H1858 H 0.5397 0.91024 0.35026 0.0
H1859 H 0.48659 0.83456 0.36921 0.0
C1860 C 0.49963 0.81935 0.33016 0.0
C1861 C 0.51719 0.82282 0.30784 0.0
C1862 C 0.53066 0.905 0.36979 0.0
C1863 C 0.51953 0.85839 0.3525 0.0
C1864 C 0.52952 0.9246 0.39043 0.0
C1865 C 0.51782 0.91835 0.41584 0.0
C1866 C 0.51961 0.87914 0.37444 0.0
C1867 C 0.50727 0.89215 0.41979 0.0
C1868 C 0.50087 0.83697 0.35259 0.0
C1869 C 0.53664 0.84349 0.30944 0.0
N1870 N 0.50822 0.87355 0.39921 0.0
N1871 N 0.53705 0.8607 0.33117 0.0
H1872 H 0.24043 0.49339 0.37009 0.0
H1873 H 0.08053 0.50829 0.38704 0.0
H1874 H 0.1884 0.5191 0.30409 0.0
H1875 H 0.13518 0.48668 0.45247 0.0
H1876 H 0.11869 0.50863 0.35503 0.0
H1877 H 0.20103 0.4869 0.3992 0.0
C1878 C 0.22067 0.49759 0.36169 0.0
C1879 C 0.21776 0.50705 0.33469 0.0
C1880 C 0.12222 0.50369 0.37639 0.0
C1881 C 0.17234 0.49966 0.36799 0.0
C1882 C 0.10043 0.50344 0.39467 0.0
C1883 C 0.10459 0.49768 0.42261 0.0
C1884 C 0.14829 0.49802 0.3861 0.0
C1885 C 0.1309 0.49157 0.43126 0.0
C1886 C 0.19813 0.49382 0.37831 0.0
C1887 C 0.19158 0.51166 0.32475 0.0
N1888 N 0.15164 0.492 0.41314 0.0
N1889 N 0.16989 0.50816 0.34147 0.0
H1890 H 0.50416 0.23081 0.37335 0.0
H1891 H 0.50805 0.06875 0.3889 0.0
H1892 H 0.49172 0.17559 0.30574 0.0
H1893 H 0.51987 0.12486 0.45602 0.0
H1894 H 0.5049 0.10738 0.35744 0.0
H1895 H 0.51279 0.19198 0.40335 0.0
C1896 C 0.50331 0.21051 0.3648 0.0
C1897 C 0.49709 0.20647 0.33702 0.0
C1898 C 0.50829 0.11118 0.37906 0.0
C1899 C 0.50698 0.16184 0.37124 0.0
C1900 C 0.5101 0.08911 0.39705 0.0
C1901 C 0.51398 0.09345 0.42527 0.0
C1902 C 0.51038 0.13778 0.38932 0.0
C1903 C 0.51658 0.12038 0.43454 0.0
C1904 C 0.50833 0.18833 0.38191 0.0
C1905 C 0.49668 0.1797 0.32697 0.0
N1906 N 0.51462 0.14144 0.41666 0.0
N1907 N 0.50137 0.15841 0.3441 0.0
H1908 H 0.72268 0.83223 0.52626 0.0
H1909 H 0.57258 0.88117 0.49201 0.0
H1910 H 0.65862 0.77932 0.49965 0.0
H1911 H 0.63541 0.93715 0.51547 0.0
H1912 H 0.60507 0.84435 0.49263 0.0
H1913 H 0.69265 0.87142 0.51984 0.0
C1914 C 0.70245 0.82887 0.51872 0.0
C1915 C 0.6931 0.80236 0.51376 0.0
C1916 C 0.61189 0.86466 0.49757 0.0
C1917 C 0.65855 0.84708 0.50667 0.0
C1918 C 0.59324 0.88583 0.4973 0.0
C1919 C 0.60109 0.91246 0.50393 0.0
C1920 C 0.63879 0.86984 0.50465 0.0
C1921 C 0.62835 0.91699 0.51027 0.0
C1922 C 0.68527 0.85124 0.51523 0.0
C1923 C 0.6666 0.79927 0.50423 0.0
N1924 N 0.64618 0.89588 0.51066 0.0
N1925 N 0.65031 0.82125 0.50117 0.0
H1926 H 0.66764 0.20856 0.45588 0.0
H1927 H 0.63335 0.06767 0.52749 0.0
H1928 H 0.70901 0.18522 0.53026 0.0
H1929 H 0.57433 0.11717 0.48593 0.0
H1930 H 0.66595 0.10534 0.52351 0.0
H1931 H 0.63813 0.16958 0.46101 0.0
C1932 C 0.67048 0.19545 0.47349 0.0
C1933 C 0.69062 0.20088 0.49305 0.0
C1934 C 0.64581 0.10782 0.51537 0.0
C1935 C 0.65707 0.15517 0.4984 0.0
C1936 C 0.62728 0.08636 0.5175 0.0
C1937 C 0.60103 0.08931 0.50713 0.0
C1938 C 0.63818 0.13201 0.50213 0.0
C1939 C 0.59422 0.11402 0.49446 0.0
C1940 C 0.65365 0.173 0.47625 0.0
C1941 C 0.69383 0.18208 0.51466 0.0
N1942 N 0.61268 0.13422 0.49213 0.0
N1943 N 0.6772 0.16007 0.51679 0.0
H1944 H 0.816 0.67768 0.53251 0.0
H1945 H 0.95725 0.61847 0.48417 0.0
H1946 H 0.86629 0.71602 0.47154 0.0
H1947 H 0.89725 0.56692 0.52146 0.0
H1948 H 0.92436 0.65509 0.48174 0.0
H1949 H 0.84481 0.63713 0.53022 0.0
C1950 C 0.83279 0.67746 0.51833 0.0
C1951 C 0.83891 0.70056 0.5025 0.0
C1952 C 0.91826 0.63576 0.49035 0.0
C1953 C 0.87224 0.65444 0.50024 0.0
C1954 C 0.93713 0.61482 0.49192 0.0
C1955 C 0.9301 0.58954 0.50318 0.0
C1956 C 0.8921 0.63173 0.50049 0.0
C1957 C 0.90355 0.58605 0.51257 0.0
C1958 C 0.84932 0.65435 0.51717 0.0
C1959 C 0.86111 0.69906 0.48466 0.0
N1960 N 0.88557 0.607 0.51128 0.0
N1961 N 0.87706 0.67663 0.48428 0.0
H1962 H 0.33797 0.79967 0.48327 0.0
H1963 H 0.40001 0.94251 0.52859 0.0
H1964 H 0.30093 0.85543 0.54021 0.0
H1965 H 0.44919 0.88169 0.48905 0.0
H1966 H 0.36311 0.91045 0.53059 0.0
H1967 H 0.37872 0.82834 0.48335 0.0
C1968 C 0.33844 0.81775 0.49591 0.0
C1969 C 0.31573 0.8254 0.51133 0.0
C1970 C 0.38193 0.90391 0.52152 0.0
C1971 C 0.36204 0.85824 0.51139 0.0
C1972 C 0.4031 0.92236 0.52022 0.0
C1973 C 0.42782 0.91494 0.50845 0.0
C1974 C 0.3851 0.87764 0.51075 0.0
C1975 C 0.4305 0.88829 0.49833 0.0
C1976 C 0.36165 0.83412 0.49589 0.0
C1977 C 0.31756 0.84904 0.52738 0.0
N1978 N 0.4093 0.87062 0.4995 0.0
N1979 N 0.34007 0.86459 0.52679 0.0
H1980 H 0.18521 0.29408 0.49082 0.0
H1981 H 0.1332 0.44382 0.52719 0.0
H1982 H 0.23611 0.35996 0.51745 0.0
H1983 H 0.07962 0.3803 0.49985 0.0
H1984 H 0.17019 0.41165 0.52701 0.0
H1985 H 0.14565 0.32331 0.49759 0.0
C1986 C 0.18805 0.31454 0.49847 0.0
C1987 C 0.21407 0.32466 0.50334 0.0
C1988 C 0.15038 0.40459 0.52113 0.0
C1989 C 0.16896 0.35826 0.51087 0.0
C1990 C 0.12913 0.42304 0.52115 0.0
C1991 C 0.10316 0.41491 0.51324 0.0
C1992 C 0.14595 0.37761 0.51299 0.0
C1993 C 0.09928 0.38752 0.50605 0.0
C1994 C 0.16547 0.33126 0.50215 0.0
C1995 C 0.21652 0.35141 0.51298 0.0
N1996 N 0.1205 0.36988 0.50588 0.0
N1997 N 0.19435 0.36723 0.51627 0.0
H1998 H 0.33842 0.20295 0.53232 0.0
H1999 H 0.39994 0.05987 0.48704 0.0
H2000 H 0.30135 0.14758 0.47507 0.0
H2001 H 0.4494 0.12056 0.52633 0.0
H2002 H 0.36318 0.09215 0.48496 0.0
H2003 H 0.37912 0.17414 0.53215 0.0
C2004 C 0.3389 0.18493 0.51958 0.0
C2005 C 0.3162 0.1774 0.50411 0.0
C2006 C 0.38204 0.09861 0.49399 0.0
C2007 C 0.36241 0.14442 0.50396 0.0
C2008 C 0.40311 0.08003 0.49535 0.0
C2009 C 0.42787 0.08737 0.50707 0.0
C2010 C 0.38534 0.12489 0.50465 0.0
C2011 C 0.43068 0.11403 0.5171 0.0
C2012 C 0.36206 0.16849 0.51955 0.0
C2013 C 0.31799 0.15386 0.48793 0.0
N2014 N 0.40957 0.13182 0.51587 0.0
N2015 N 0.34046 0.13823 0.48847 0.0
H2016 H 0.87053 0.2829 0.47417 0.0
H2017 H 0.89619 0.43691 0.52034 0.0
H2018 H 0.81483 0.32518 0.52703 0.0
H2019 H 0.95727 0.38287 0.48879 0.0
H2020 H 0.86353 0.39932 0.51824 0.0
H2021 H 0.89954 0.32263 0.47404 0.0
C2022 C 0.8644 0.30057 0.48587 0.0
C2023 C 0.84039 0.30039 0.50112 0.0
C2024 C 0.8841 0.39583 0.51179 0.0
C2025 C 0.87369 0.34652 0.50074 0.0
C2026 C 0.90274 0.41727 0.51287 0.0
C2027 C 0.92963 0.4131 0.50484 0.0
C2028 C 0.89235 0.3702 0.50219 0.0
C2029 C 0.93691 0.38713 0.49544 0.0
C2030 C 0.881 0.32334 0.48572 0.0
C2031 C 0.83318 0.32433 0.51509 0.0
N2032 N 0.91844 0.36684 0.49433 0.0
N2033 N 0.84986 0.34641 0.51473 0.0
H2034 H 0.23803 0.64236 0.49854 0.0
H2035 H 0.07855 0.62232 0.5154 0.0
H2036 H 0.18546 0.70679 0.52556 0.0
H2037 H 0.1348 0.55826 0.49583 0.0
H2038 H 0.11602 0.6549 0.51517 0.0
H2039 H 0.19907 0.61285 0.49286 0.0
C2040 C 0.21822 0.65035 0.50317 0.0
C2041 C 0.2151 0.67703 0.51285 0.0
C2042 C 0.12005 0.63371 0.51083 0.0
C2043 C 0.17008 0.64314 0.50643 0.0
C2044 C 0.09866 0.61509 0.51091 0.0
C2045 C 0.10343 0.58737 0.50583 0.0
C2046 C 0.14637 0.62459 0.50545 0.0
C2047 C 0.13 0.57928 0.50017 0.0
C2048 C 0.19592 0.63347 0.4999 0.0
C2049 C 0.18882 0.68639 0.51799 0.0
N2050 N 0.15033 0.59771 0.50019 0.0
N2051 N 0.16733 0.6694 0.51498 0.0
loop_
_geom_bond_atom_site_label_1
_geom_bond_atom_site_label_2
_geom_bond_distance
_geom_bond_site_symmetry_2
_ccdc_geom_bond_type
H0 C1 0.949 . S
C1 H0 0.949 . S
C1 C2 1.395 . S
C1 C3 1.391 . S
C2 C1 1.395 . S
C2 C5 1.390 . S
C3 C1 1.391 . S
C3 C7 1.387 . S
C3 C8 1.491 1_455 S
H4 C5 0.950 . S
C5 C2 1.390 . S
C5 H4 0.950 . S
C5 C6 1.378 . S
C6 C5 1.378 . S
C6 C7 1.409 . S
C7 C3 1.387 . S
C7 C6 1.409 . S
C7 H9 0.951 . S
C8 C3 1.491 1_655 S
C8 C10 1.382 1_655 S
C8 C12 1.404 . S
H9 C7 0.951 . S
C10 C8 1.382 1_455 S
C10 C11 1.390 . S
C10 H15 0.949 . S
C11 C10 1.390 . S
C11 C16 1.399 1_455 S
C12 C8 1.404 . S
C12 H13 0.950 . S
C12 C14 1.375 . S
H13 C12 0.950 . S
C14 C12 1.375 . S
C14 C16 1.382 . S
C14 H18 0.950 . S
H15 C10 0.949 . S
C16 C11 1.399 1_655 S
C16 C14 1.382 . S
C16 H17 0.952 . S
H17 C16 0.952 . S
H18 C14 0.950 . S
H19 C20 0.949 . S
C20 H19 0.949 . S
C20 C21 1.395 . S
C20 C22 1.391 . S
C21 C20 1.395 . S
C21 C24 1.390 1_545 S
C22 C20 1.391 . S
C22 C26 1.387 . S
C22 C27 1.491 . S
H23 C24 0.950 . S
C24 C21 1.390 1_565 S
C24 H23 0.950 . S
C24 C25 1.377 1_565 S
C25 C24 1.377 1_545 S
C25 C26 1.413 . S
C26 C22 1.387 . S
C26 C25 1.413 . S
C26 H28 0.951 . S
C27 C22 1.491 . S
C27 C29 1.382 . S
C27 C31 1.404 . S
H28 C26 0.951 . S
C29 C27 1.382 . S
C29 C30 1.390 . S
C29 H34 0.949 1_545 S
C30 C29 1.390 . S
C30 C35 1.399 . S
C31 C27 1.404 . S
C31 H32 0.950 . S
C31 C33 1.375 . S
H32 C31 0.950 . S
C33 C31 1.375 . S
C33 C35 1.382 . S
C33 H37 0.950 . S
H34 C29 0.949 1_565 S
C35 C30 1.399 . S
C35 C33 1.382 . S
C35 H36 0.952 . S
H36 C35 0.952 . S
H37 C33 0.950 . S
H38 C39 0.949 . S
C39 H38 0.949 . S
C39 C40 1.395 . S
C39 C41 1.391 . S
C40 C39 1.395 . S
C40 C43 1.390 . S
C41 C39 1.391 . S
C41 C45 1.387 . S
C41 C46 1.485 1_455 S
H42 C43 0.950 . S
C43 C40 1.390 . S
C43 H42 0.950 . S
C43 C44 1.378 . S
C44 C43 1.378 . S
C44 C45 1.409 . S
C45 C41 1.387 . S
C45 C44 1.409 . S
C45 H47 0.951 . S
C46 C41 1.485 1_655 S
C46 C48 1.366 1_655 S
C46 C50 1.427 . S
H47 C45 0.951 . S
C48 C46 1.366 1_455 S
C48 C49 1.390 . S
C48 H53 0.949 . S
C49 C48 1.390 . S
C49 C54 1.399 1_455 S
C50 C46 1.427 . S
C50 H51 0.950 . S
C50 C52 1.375 . S
H51 C50 0.950 . S
C52 C50 1.375 . S
C52 C54 1.382 . S
C52 H56 0.950 . S
H53 C48 0.949 . S
C54 C49 1.399 1_655 S
C54 C52 1.382 . S
C54 H55 0.952 . S
H55 C54 0.952 . S
H56 C52 0.950 . S
H57 C58 0.949 . S
C58 H57 0.949 . S
C58 C59 1.394 . S
C58 C60 1.391 . S
C59 C58 1.394 . S
C59 C62 1.390 1_565 S
C60 C58 1.391 . S
C60 C64 1.387 . S
C60 C65 1.491 . S
H61 C62 0.950 . S
C62 C59 1.390 1_545 S
C62 H61 0.950 . S
C62 C63 1.377 1_545 S
C63 C62 1.377 1_565 S
C63 C64 1.411 . S
C64 C60 1.387 . S
C64 C63 1.411 . S
C64 H66 0.951 . S
C65 C60 1.491 . S
C65 C67 1.382 . S
C65 C69 1.404 . S
H66 C64 0.951 . S
C67 C65 1.382 . S
C67 C68 1.390 . S
C67 H72 0.949 1_565 S
C68 C67 1.390 . S
C68 C73 1.399 . S
C69 C65 1.404 . S
C69 H70 0.950 . S
C69 C71 1.375 . S
H70 C69 0.950 . S
C71 C69 1.375 . S
C71 C73 1.382 . S
C71 H75 0.950 . S
H72 C67 0.949 1_545 S
C73 C68 1.399 . S
C73 C71 1.382 . S
C73 H74 0.952 . S
H74 C73 0.952 . S
H75 C71 0.950 . S
H76 C77 0.949 . S
C77 H76 0.949 . S
C77 C78 1.395 . S
C77 C79 1.391 . S
C78 C77 1.395 . S
C78 C81 1.390 . S
C79 C77 1.391 . S
C79 C83 1.387 . S
C79 C84 1.491 1_455 S
H80 C81 0.950 . S
C81 C78 1.390 . S
C81 H80 0.950 . S
C81 C82 1.378 . S
C82 C81 1.378 . S
C82 C83 1.409 . S
C83 C79 1.387 . S
C83 C82 1.409 . S
C83 H85 0.951 . S
C84 C79 1.491 1_655 S
C84 C86 1.382 1_655 S
C84 C88 1.404 . S
H85 C83 0.951 . S
C86 C84 1.382 1_455 S
C86 C87 1.390 . S
C86 H91 0.949 . S
C87 C86 1.390 . S
C87 C92 1.399 1_455 S
C88 C84 1.404 . S
C88 H89 0.950 . S
C88 C90 1.375 . S
H89 C88 0.950 . S
C90 C88 1.375 . S
C90 C92 1.382 . S
C90 H94 0.950 . S
H91 C86 0.949 . S
C92 C87 1.399 1_655 S
C92 C90 1.382 . S
C92 H93 0.952 . S
H93 C92 0.952 . S
H94 C90 0.950 . S
H95 C96 0.949 . S
C96 H95 0.949 . S
C96 C97 1.395 . S
C96 C98 1.391 . S
C97 C96 1.395 . S
C97 C100 1.389 1_545 S
C98 C96 1.391 . S
C98 C102 1.387 . S
C98 C103 1.491 . S
H99 C100 0.954 . S
C100 C97 1.389 1_565 S
C100 H99 0.954 . S
C100 C101 1.376 1_565 S
C101 C100 1.376 1_545 S
C101 C102 1.409 . S
C102 C98 1.387 . S
C102 C101 1.409 . S
C102 H104 0.951 . S
C103 C98 1.491 . S
C103 C105 1.382 . S
C103 C107 1.404 . S
H104 C102 0.951 . S
C105 C103 1.382 . S
C105 C106 1.390 . S
C105 H110 0.949 1_545 S
C106 C105 1.390 . S
C106 C111 1.399 . S
C107 C103 1.404 . S
C107 H108 0.950 . S
C107 C109 1.375 . S
H108 C107 0.950 . S
C109 C107 1.375 . S
C109 C111 1.382 . S
C109 H113 0.950 . S
H110 C105 0.949 1_565 S
C111 C106 1.399 . S
C111 C109 1.382 . S
C111 H112 0.952 . S
H112 C111 0.952 . S
H113 C109 0.950 . S
H114 C115 0.949 . S
C115 H114 0.949 . S
C115 C116 1.395 . S
C115 C117 1.391 . S
C116 C115 1.395 . S
C116 C119 1.390 . S
C117 C115 1.391 . S
C117 C121 1.387 . S
C117 C122 1.489 1_455 S
H118 C119 0.950 . S
C119 C116 1.390 . S
C119 H118 0.950 . S
C119 C120 1.378 . S
C120 C119 1.378 . S
C120 C121 1.409 . S
C121 C117 1.387 . S
C121 C120 1.409 . S
C121 H123 0.951 . S
C122 C117 1.489 1_655 S
C122 C124 1.378 1_655 S
C122 C126 1.409 . S
H123 C121 0.951 . S
C124 C122 1.378 1_455 S
C124 C125 1.390 . S
C124 H129 0.949 . S
C125 C124 1.390 . S
C125 C130 1.399 1_455 S
C126 C122 1.409 . S
C126 H127 0.950 . S
C126 C128 1.375 . S
H127 C126 0.950 . S
C128 C126 1.375 . S
C128 C130 1.382 . S
C128 H132 0.950 . S
H129 C124 0.949 . S
C130 C125 1.399 1_655 S
C130 C128 1.382 . S
C130 H131 0.952 . S
H131 C130 0.952 . S
H132 C128 0.950 . S
H133 C134 0.949 . S
C134 H133 0.949 . S
C134 C135 1.395 . S
C134 C136 1.391 . S
C135 C134 1.395 . S
C135 C138 1.388 1_545 S
C136 C134 1.391 . S
C136 C140 1.387 . S
C136 C141 1.491 . S
H137 C138 0.955 . S
C138 C135 1.388 1_565 S
C138 H137 0.955 . S
C138 C139 1.376 1_565 S
C139 C138 1.376 1_545 S
C139 C140 1.409 . S
C140 C136 1.387 . S
C140 C139 1.409 . S
C140 H142 0.951 . S
C141 C136 1.491 . S
C141 C143 1.382 . S
C141 C145 1.404 . S
H142 C140 0.951 . S
C143 C141 1.382 . S
C143 C144 1.390 . S
C143 H148 0.949 1_545 S
C144 C143 1.390 . S
C144 C149 1.399 . S
C145 C141 1.404 . S
C145 H146 0.950 . S
C145 C147 1.375 . S
H146 C145 0.950 . S
C147 C145 1.375 . S
C147 C149 1.382 . S
C147 H151 0.950 . S
H148 C143 0.949 1_565 S
C149 C144 1.399 . S
C149 C147 1.382 . S
C149 H150 0.952 . S
H150 C149 0.952 . S
H151 C147 0.950 . S
H152 C153 0.949 . S
C153 H152 0.949 . S
C153 C154 1.395 . S
C153 C155 1.391 . S
C154 C153 1.395 . S
C154 C157 1.390 . S
C155 C153 1.391 . S
C155 C159 1.387 . S
C155 C160 1.491 . S
H156 C157 0.950 . S
C157 C154 1.390 . S
C157 H156 0.950 . S
C157 C158 1.378 . S
C158 C157 1.378 . S
C158 C159 1.409 . S
C159 C155 1.387 . S
C159 C158 1.409 . S
C159 H161 0.951 . S
C160 C155 1.491 . S
C160 C162 1.382 . S
C160 C164 1.404 . S
H161 C159 0.951 . S
C162 C160 1.382 . S
C162 C163 1.390 . S
C162 H167 0.949 1_554 S
C163 C162 1.390 . S
C163 C168 1.399 . S
C164 C160 1.404 . S
C164 H165 0.950 . S
C164 C166 1.375 . S
H165 C164 0.950 . S
C166 C164 1.375 . S
C166 C168 1.382 . S
C166 H170 0.950 . S
H167 C162 0.949 1_556 S
C168 C163 1.399 . S
C168 C166 1.382 . S
C168 H169 0.952 . S
H169 C168 0.952 . S
H170 C166 0.950 . S
H171 C172 0.949 . S
C172 H171 0.949 . S
C172 C173 1.395 . S
C172 C174 1.393 . S
C173 C172 1.395 . S
C173 C176 1.390 . S
C174 C172 1.393 . S
C174 C178 1.389 . S
C174 C179 1.488 1_554 S
H175 C176 0.950 . S
C176 C173 1.390 . S
C176 H175 0.950 . S
C176 C177 1.378 . S
C177 C176 1.378 . S
C177 C178 1.409 . S
C178 C174 1.389 . S
C178 C177 1.409 . S
C178 H180 0.951 . S
C179 C174 1.488 1_556 S
C179 C181 1.382 1_556 S
C179 C183 1.404 . S
H180 C178 0.951 . S
C181 C179 1.382 1_554 S
C181 C182 1.385 1_554 S
C181 H186 0.949 . S
C182 C181 1.385 1_556 S
C182 C187 1.413 . S
C183 C179 1.404 . S
C183 H184 0.950 . S
C183 C185 1.375 . S
H184 C183 0.950 . S
C185 C183 1.375 . S
C185 C187 1.382 . S
C185 H189 0.950 . S
H186 C181 0.949 . S
C187 C182 1.413 . S
C187 C185 1.382 . S
C187 H188 0.952 . S
H188 C187 0.952 . S
H189 C185 0.950 . S
H190 C191 0.949 . S
C191 H190 0.949 . S
C191 C192 1.395 . S
C191 C193 1.391 . S
C192 C191 1.395 . S
C192 C195 1.390 . S
C193 C191 1.391 . S
C193 C197 1.387 . S
C193 C198 1.491 . S
H194 C195 0.950 . S
C195 C192 1.390 . S
C195 H194 0.950 . S
C195 C196 1.378 . S
C196 C195 1.378 . S
C196 C197 1.409 . S
C197 C193 1.387 . S
C197 C196 1.409 . S
C197 H199 0.951 . S
C198 C193 1.491 . S
C198 C200 1.382 . S
C198 C202 1.404 . S
H199 C197 0.951 . S
C200 C198 1.382 . S
C200 C201 1.390 . S
C200 H205 0.949 1_554 S
C201 C200 1.390 . S
C201 C206 1.399 . S
C202 C198 1.404 . S
C202 H203 0.950 . S
C202 C204 1.375 . S
H203 C202 0.950 . S
C204 C202 1.375 . S
C204 C206 1.382 . S
C204 H208 0.950 . S
H205 C200 0.949 1_556 S
C206 C201 1.399 . S
C206 C204 1.382 . S
C206 H207 0.952 . S
H207 C206 0.952 . S
H208 C204 0.950 . S
H209 C210 0.949 . S
C210 H209 0.949 . S
C210 C211 1.395 . S
C210 C212 1.392 . S
C211 C210 1.395 . S
C211 C214 1.390 . S
C212 C210 1.392 . S
C212 C216 1.388 . S
C212 C217 1.490 1_554 S
H213 C214 0.950 . S
C214 C211 1.390 . S
C214 H213 0.950 . S
C214 C215 1.378 . S
C215 C214 1.378 . S
C215 C216 1.409 . S
C216 C212 1.388 . S
C216 C215 1.409 . S
C216 H218 0.952 . S
C217 C212 1.490 1_556 S
C217 C219 1.382 1_556 S
C217 C221 1.404 . S
H218 C216 0.952 . S
C219 C217 1.382 1_554 S
C219 C220 1.390 . S
C219 H224 0.949 . S
C220 C219 1.390 . S
C220 C225 1.399 1_554 S
C221 C217 1.404 . S
C221 H222 0.950 . S
C221 C223 1.375 . S
H222 C221 0.950 . S
C223 C221 1.375 . S
C223 C225 1.382 . S
C223 H227 0.950 . S
H224 C219 0.949 . S
C225 C220 1.399 1_556 S
C225 C223 1.382 . S
C225 H226 0.952 . S
H226 C225 0.952 . S
H227 C223 0.950 . S
H228 C229 0.949 . S
C229 H228 0.949 . S
C229 C230 1.395 . S
C229 C231 1.391 . S
C230 C229 1.395 . S
C230 C233 1.390 . S
C231 C229 1.391 . S
C231 C235 1.387 . S
C231 C236 1.491 . S
H232 C233 0.950 . S
C233 C230 1.390 . S
C233 H232 0.950 . S
C233 C234 1.378 . S
C234 C233 1.378 . S
C234 C235 1.409 . S
C235 C231 1.387 . S
C235 C234 1.409 . S
C235 H237 0.951 . S
C236 C231 1.491 . S
C236 C238 1.382 . S
C236 C240 1.404 . S
H237 C235 0.951 . S
C238 C236 1.382 . S
C238 C239 1.390 . S
C238 H243 0.949 . S
C239 C238 1.390 . S
C239 C244 1.399 . S
C240 C236 1.404 . S
C240 H241 0.950 . S
C240 C242 1.375 . S
H241 C240 0.950 . S
C242 C240 1.375 . S
C242 C244 1.382 . S
C242 H246 0.950 . S
H243 C238 0.949 . S
C244 C239 1.399 . S
C244 C242 1.382 . S
C244 H245 0.952 . S
H245 C244 0.952 . S
H246 C242 0.950 . S
H247 C248 0.949 . S
C248 H247 0.949 . S
C248 C249 1.395 . S
C248 C250 1.391 . S
C249 C248 1.395 . S
C249 C252 1.390 . S
C250 C248 1.391 . S
C250 C254 1.387 . S
C250 C255 1.491 . S
H251 C252 0.950 . S
C252 C249 1.390 . S
C252 H251 0.950 . S
C252 C253 1.378 . S
C253 C252 1.378 . S
C253 C254 1.409 . S
C254 C250 1.387 . S
C254 C253 1.409 . S
C254 H256 0.951 . S
C255 C250 1.491 . S
C255 C257 1.382 . S
C255 C259 1.404 . S
H256 C254 0.951 . S
C257 C255 1.382 . S
C257 C258 1.390 . S
C257 H262 0.949 . S
C258 C257 1.390 . S
C258 C263 1.399 . S
C259 C255 1.404 . S
C259 H260 0.950 . S
C259 C261 1.375 . S
H260 C259 0.950 . S
C261 C259 1.375 . S
C261 C263 1.382 . S
C261 H265 0.950 . S
H262 C257 0.949 . S
C263 C258 1.399 . S
C263 C261 1.382 . S
C263 H264 0.952 . S
H264 C263 0.952 . S
H265 C261 0.950 . S
H266 C267 0.949 . S
C267 H266 0.949 . S
C267 C268 1.395 . S
C267 C269 1.391 . S
C268 C267 1.395 . S
C268 C271 1.390 . S
C269 C267 1.391 . S
C269 C273 1.387 . S
C269 C274 1.491 . S
H270 C271 0.950 . S
C271 C268 1.390 . S
C271 H270 0.950 . S
C271 C272 1.378 . S
C272 C271 1.378 . S
C272 C273 1.409 . S
C273 C269 1.387 . S
C273 C272 1.409 . S
C273 H275 0.951 . S
C274 C269 1.491 . S
C274 C276 1.382 . S
C274 C278 1.404 . S
H275 C273 0.951 . S
C276 C274 1.382 . S
C276 C277 1.390 . S
C276 H281 0.949 . S
C277 C276 1.390 . S
C277 C282 1.399 . S
C278 C274 1.404 . S
C278 H279 0.950 . S
C278 C280 1.375 . S
H279 C278 0.950 . S
C280 C278 1.375 . S
C280 C282 1.382 . S
C280 H284 0.950 . S
H281 C276 0.949 . S
C282 C277 1.399 . S
C282 C280 1.382 . S
C282 H283 0.952 . S
H283 C282 0.952 . S
H284 C280 0.950 . S
H285 C286 0.949 . S
C286 H285 0.949 . S
C286 C287 1.395 . S
C286 C288 1.391 . S
C287 C286 1.395 . S
C287 C290 1.390 . S
C288 C286 1.391 . S
C288 C292 1.387 . S
C288 C293 1.491 . S
H289 C290 0.950 . S
C290 C287 1.390 . S
C290 H289 0.950 . S
C290 C291 1.378 . S
C291 C290 1.378 . S
C291 C292 1.409 . S
C292 C288 1.387 . S
C292 C291 1.409 . S
C292 H294 0.951 . S
C293 C288 1.491 . S
C293 C295 1.382 . S
C293 C297 1.404 . S
H294 C292 0.951 . S
C295 C293 1.382 . S
C295 C296 1.390 . S
C295 H300 0.949 . S
C296 C295 1.390 . S
C296 C301 1.399 . S
C297 C293 1.404 . S
C297 H298 0.950 . S
C297 C299 1.375 . S
H298 C297 0.950 . S
C299 C297 1.375 . S
C299 C301 1.382 . S
C299 H303 0.950 . S
H300 C295 0.949 . S
C301 C296 1.399 . S
C301 C299 1.382 . S
C301 H302 0.952 . S
H302 C301 0.952 . S
H303 C299 0.950 . S
H304 C305 0.949 . S
C305 H304 0.949 . S
C305 C306 1.395 . S
C305 C307 1.391 . S
C306 C305 1.395 . S
C306 C309 1.390 . S
C307 C305 1.391 . S
C307 C311 1.387 . S
C307 C312 1.491 . S
H308 C309 0.950 . S
C309 C306 1.390 . S
C309 H308 0.950 . S
C309 C310 1.378 . S
C310 C309 1.378 . S
C310 C311 1.409 . S
C311 C307 1.387 . S
C311 C310 1.409 . S
C311 H313 0.951 . S
C312 C307 1.491 . S
C312 C314 1.382 . S
C312 C316 1.404 . S
H313 C311 0.951 . S
C314 C312 1.382 . S
C314 C315 1.390 . S
C314 H319 0.949 . S
C315 C314 1.390 . S
C315 C320 1.399 . S
C316 C312 1.404 . S
C316 H317 0.950 . S
C316 C318 1.375 . S
H317 C316 0.950 . S
C318 C316 1.375 . S
C318 C320 1.382 . S
C318 H322 0.950 . S
H319 C314 0.949 . S
C320 C315 1.399 . S
C320 C318 1.382 . S
C320 H321 0.952 . S
H321 C320 0.952 . S
H322 C318 0.950 . S
H323 C324 0.949 . S
C324 H323 0.949 . S
C324 C325 1.395 . S
C324 C326 1.391 . S
C325 C324 1.395 . S
C325 C328 1.390 . S
C326 C324 1.391 . S
C326 C330 1.387 . S
C326 C331 1.491 . S
H327 C328 0.950 . S
C328 C325 1.390 . S
C328 H327 0.950 . S
C328 C329 1.378 . S
C329 C328 1.378 . S
C329 C330 1.409 . S
C330 C326 1.387 . S
C330 C329 1.409 . S
C330 H332 0.951 . S
C331 C326 1.491 . S
C331 C333 1.382 . S
C331 C335 1.404 . S
H332 C330 0.951 . S
C333 C331 1.382 . S
C333 C334 1.390 . S
C333 H338 0.949 . S
C334 C333 1.390 . S
C334 C339 1.399 . S
C335 C331 1.404 . S
C335 H336 0.950 . S
C335 C337 1.375 . S
H336 C335 0.950 . S
C337 C335 1.375 . S
C337 C339 1.382 . S
C337 H341 0.950 . S
H338 C333 0.949 . S
C339 C334 1.399 . S
C339 C337 1.382 . S
C339 H340 0.952 . S
H340 C339 0.952 . S
H341 C337 0.950 . S
H342 C343 0.949 . S
C343 H342 0.949 . S
C343 C344 1.395 . S
C343 C345 1.391 . S
C344 C343 1.395 . S
C344 C347 1.390 . S
C345 C343 1.391 . S
C345 C349 1.387 . S
C345 C350 1.491 . S
H346 C347 0.950 . S
C347 C344 1.390 . S
C347 H346 0.950 . S
C347 C348 1.378 . S
C348 C347 1.378 . S
C348 C349 1.409 . S
C349 C345 1.387 . S
C349 C348 1.409 . S
C349 H351 0.951 . S
C350 C345 1.491 . S
C350 C352 1.382 . S
C350 C354 1.404 . S
H351 C349 0.951 . S
C352 C350 1.382 . S
C352 C353 1.390 . S
C352 H357 0.949 . S
C353 C352 1.390 . S
C353 C358 1.399 . S
C354 C350 1.404 . S
C354 H355 0.950 . S
C354 C356 1.375 . S
H355 C354 0.950 . S
C356 C354 1.375 . S
C356 C358 1.382 . S
C356 H360 0.950 . S
H357 C352 0.949 . S
C358 C353 1.399 . S
C358 C356 1.382 . S
C358 H359 0.952 . S
H359 C358 0.952 . S
H360 C356 0.950 . S
H361 C362 0.949 . S
C362 H361 0.949 . S
C362 C363 1.395 . S
C362 C364 1.391 . S
C363 C362 1.395 . S
C363 C366 1.390 . S
C364 C362 1.391 . S
C364 C368 1.387 . S
C364 C369 1.491 . S
H365 C366 0.950 . S
C366 C363 1.390 . S
C366 H365 0.950 . S
C366 C367 1.378 . S
C367 C366 1.378 . S
C367 C368 1.409 . S
C368 C364 1.387 . S
C368 C367 1.409 . S
C368 H370 0.951 . S
C369 C364 1.491 . S
C369 C371 1.382 . S
C369 C373 1.404 . S
H370 C368 0.951 . S
C371 C369 1.382 . S
C371 C372 1.390 . S
C371 H376 0.949 . S
C372 C371 1.390 . S
C372 C377 1.399 . S
C373 C369 1.404 . S
C373 H374 0.950 . S
C373 C375 1.375 . S
H374 C373 0.950 . S
C375 C373 1.375 . S
C375 C377 1.382 . S
C375 H379 0.950 . S
H376 C371 0.949 . S
C377 C372 1.399 . S
C377 C375 1.382 . S
C377 H378 0.952 . S
H378 C377 0.952 . S
H379 C375 0.950 . S
H380 C381 0.949 . S
C381 H380 0.949 . S
C381 C382 1.395 . S
C381 C383 1.391 . S
C382 C381 1.395 . S
C382 C385 1.390 . S
C383 C381 1.391 . S
C383 C387 1.387 . S
C383 C388 1.491 . S
H384 C385 0.950 . S
C385 C382 1.390 . S
C385 H384 0.950 . S
C385 C386 1.378 . S
C386 C385 1.378 . S
C386 C387 1.409 . S
C387 C383 1.387 . S
C387 C386 1.409 . S
C387 H389 0.951 . S
C388 C383 1.491 . S
C388 C390 1.382 . S
C388 C392 1.404 . S
H389 C387 0.951 . S
C390 C388 1.382 . S
C390 C391 1.390 . S
C390 H395 0.949 . S
C391 C390 1.390 . S
C391 C396 1.399 . S
C392 C388 1.404 . S
C392 H393 0.950 . S
C392 C394 1.375 . S
H393 C392 0.950 . S
C394 C392 1.375 . S
C394 C396 1.382 . S
C394 H398 0.950 . S
H395 C390 0.949 . S
C396 C391 1.399 . S
C396 C394 1.382 . S
C396 H397 0.952 . S
H397 C396 0.952 . S
H398 C394 0.950 . S
H399 C400 0.949 . S
C400 H399 0.949 . S
C400 C401 1.395 . S
C400 C402 1.391 . S
C401 C400 1.395 . S
C401 C404 1.390 . S
C402 C400 1.391 . S
C402 C406 1.387 . S
C402 C407 1.491 . S
H403 C404 0.950 . S
C404 C401 1.390 . S
C404 H403 0.950 . S
C404 C405 1.378 . S
C405 C404 1.378 . S
C405 C406 1.409 . S
C406 C402 1.387 . S
C406 C405 1.409 . S
C406 H408 0.951 . S
C407 C402 1.491 . S
C407 C409 1.382 . S
C407 C411 1.404 . S
H408 C406 0.951 . S
C409 C407 1.382 . S
C409 C410 1.390 . S
C409 H414 0.949 . S
C410 C409 1.390 . S
C410 C415 1.399 . S
C411 C407 1.404 . S
C411 H412 0.950 . S
C411 C413 1.375 . S
H412 C411 0.950 . S
C413 C411 1.375 . S
C413 C415 1.382 . S
C413 H417 0.950 . S
H414 C409 0.949 . S
C415 C410 1.399 . S
C415 C413 1.382 . S
C415 H416 0.952 . S
H416 C415 0.952 . S
H417 C413 0.950 . S
H418 C419 0.949 . S
C419 H418 0.949 . S
C419 C420 1.395 . S
C419 C421 1.391 . S
C420 C419 1.395 . S
C420 C423 1.390 . S
C421 C419 1.391 . S
C421 C425 1.387 . S
C421 C426 1.491 . S
H422 C423 0.950 . S
C423 C420 1.390 . S
C423 H422 0.950 . S
C423 C424 1.378 . S
C424 C423 1.378 . S
C424 C425 1.409 . S
C425 C421 1.387 . S
C425 C424 1.409 . S
C425 H427 0.951 . S
C426 C421 1.491 . S
C426 C428 1.382 . S
C426 C430 1.404 . S
H427 C425 0.951 . S
C428 C426 1.382 . S
C428 C429 1.390 . S
C428 H433 0.949 . S
C429 C428 1.390 . S
C429 C434 1.399 . S
C430 C426 1.404 . S
C430 H431 0.950 . S
C430 C432 1.375 . S
H431 C430 0.950 . S
C432 C430 1.375 . S
C432 C434 1.382 . S
C432 H436 0.950 . S
H433 C428 0.949 . S
C434 C429 1.399 . S
C434 C432 1.382 . S
C434 H435 0.952 . S
H435 C434 0.952 . S
H436 C432 0.950 . S
H437 C438 0.949 . S
C438 H437 0.949 . S
C438 C439 1.395 . S
C438 C440 1.391 . S
C439 C438 1.395 . S
C439 C442 1.390 . S
C440 C438 1.391 . S
C440 C444 1.387 . S
C440 C445 1.491 . S
H441 C442 0.950 . S
C442 C439 1.390 . S
C442 H441 0.950 . S
C442 C443 1.378 . S
C443 C442 1.378 . S
C443 C444 1.409 . S
C444 C440 1.387 . S
C444 C443 1.409 . S
C444 H446 0.951 . S
C445 C440 1.491 . S
C445 C447 1.382 . S
C445 C449 1.404 . S
H446 C444 0.951 . S
C447 C445 1.382 . S
C447 C448 1.390 . S
C447 H452 0.949 . S
C448 C447 1.390 . S
C448 C453 1.399 . S
C449 C445 1.404 . S
C449 H450 0.950 . S
C449 C451 1.375 . S
H450 C449 0.950 . S
C451 C449 1.375 . S
C451 C453 1.382 . S
C451 H455 0.950 . S
H452 C447 0.949 . S
C453 C448 1.399 . S
C453 C451 1.382 . S
C453 H454 0.952 . S
H454 C453 0.952 . S
H455 C451 0.950 . S
C456 O482 1.283 . S
C456 O500 1.283 . S
C457 O483 1.283 . S
C457 O498 1.283 . S
C458 O484 1.283 . S
C458 O501 1.283 . S
C459 O485 1.283 . S
C459 O499 1.283 . S
C460 O486 1.283 . S
C460 O495 1.283 . S
C461 O487 1.283 . S
C461 O497 1.283 . S
C462 O488 1.283 . S
C462 O494 1.283 . S
C463 O489 1.283 . S
C463 O496 1.283 . S
C464 O490 1.283 . S
C464 O505 1.283 . S
C465 O491 1.283 . S
C465 O503 1.283 . S
C466 O492 1.283 . S
C466 O504 1.283 . S
C467 O493 1.283 . S
C467 O502 1.283 . S
Eu468 O469 2.370 1_455 S
Eu468 O470 2.370 . S
Eu468 O473 2.370 1_455 S
Eu468 O474 2.370 . S
Eu468 O482 2.363 . S
Eu468 O483 2.363 . S
Eu468 O496 2.363 . S
Eu468 O497 2.363 1_455 S
O469 Eu468 2.370 1_655 S
O469 Eu471 2.359 1_565 S
O469 Eu476 2.361 1_665 S
O470 Eu468 2.370 . S
O470 Eu472 2.359 1_565 S
O470 Eu475 2.358 1_565 S
Eu471 O469 2.359 1_545 S
Eu471 O473 2.359 1_545 S
Eu471 O477 2.381 . S
Eu471 O478 2.381 . S
Eu471 O486 2.381 . S
Eu471 O487 2.345 1_545 S
Eu471 O502 2.363 . S
Eu471 O503 2.363 . S
Eu472 O470 2.359 1_545 S
Eu472 O474 2.359 1_545 S
Eu472 O479 2.381 . S
Eu472 O480 2.381 . S
Eu472 O488 2.381 . S
Eu472 O489 2.345 1_545 S
Eu472 O504 2.363 . S
Eu472 O505 2.363 . S
O473 Eu468 2.370 1_655 S
O473 Eu471 2.359 1_565 S
O473 Eu475 2.358 1_665 S
O474 Eu468 2.370 . S
O474 Eu472 2.359 1_565 S
O474 Eu476 2.361 1_565 S
Eu475 O470 2.358 1_545 S
Eu475 O473 2.358 1_445 S
Eu475 O477 2.382 1_455 S
Eu475 O480 2.382 . S
Eu475 O492 2.363 . S
Eu475 O493 2.363 1_455 S
Eu475 O500 2.342 1_545 S
Eu475 O501 2.384 . S
Eu476 O469 2.361 1_445 S
Eu476 O474 2.361 1_545 S
Eu476 O478 2.380 1_455 S
Eu476 O479 2.380 . S
Eu476 O490 2.363 . S
Eu476 O491 2.363 1_455 S
Eu476 O498 2.347 1_545 S
Eu476 O499 2.379 . S
O477 Eu471 2.381 . S
O477 Eu475 2.382 1_655 S
O477 Eu481 2.370 1_655 S
O478 Eu471 2.381 . S
O478 Eu476 2.380 1_655 S
O478 Eu481 2.370 1_655 S
O479 Eu472 2.381 . S
O479 Eu476 2.380 . S
O479 Eu481 2.370 . S
O480 Eu472 2.381 . S
O480 Eu475 2.382 . S
O480 Eu481 2.370 . S
Eu481 O477 2.370 1_455 S
Eu481 O478 2.370 1_455 S
Eu481 O479 2.370 . S
Eu481 O480 2.370 . S
Eu481 O484 2.363 . S
Eu481 O485 2.363 . S
Eu481 O494 2.363 . S
Eu481 O495 2.363 1_455 S
O482 C456 1.283 . S
O482 Eu468 2.363 . S
O483 C457 1.283 . S
O483 Eu468 2.363 . S
O484 C458 1.283 . S
O484 Eu481 2.363 . S
O485 C459 1.283 . S
O485 Eu481 2.363 . S
O486 C460 1.283 . S
O486 Eu471 2.381 . S
O487 C461 1.283 . S
O487 Eu471 2.345 1_565 S
O488 C462 1.283 . S
O488 Eu472 2.381 . S
O489 C463 1.283 . S
O489 Eu472 2.345 1_565 S
O490 C464 1.283 . S
O490 Eu476 2.363 . S
O491 C465 1.283 . S
O491 Eu476 2.363 1_655 S
O492 C466 1.283 . S
O492 Eu475 2.363 . S
O493 C467 1.283 . S
O493 Eu475 2.363 1_655 S
O494 C462 1.283 . S
O494 Eu481 2.363 . S
O495 C460 1.283 . S
O495 Eu481 2.363 1_655 S
O496 C463 1.283 . S
O496 Eu468 2.363 . S
O497 C461 1.283 . S
O497 Eu468 2.363 1_655 S
O498 C457 1.283 . S
O498 Eu476 2.347 1_565 S
O499 C459 1.283 . S
O499 Eu476 2.379 . S
O500 C456 1.283 . S
O500 Eu475 2.342 1_565 S
O501 C458 1.283 . S
O501 Eu475 2.384 . S
O502 C467 1.283 . S
O502 Eu471 2.363 . S
O503 C465 1.283 . S
O503 Eu471 2.363 . S
O504 C466 1.283 . S
O504 Eu472 2.363 . S
O505 C464 1.283 . S
O505 Eu472 2.363 . S
C506 O532 1.283 . S
C506 O550 1.283 . S
C507 O533 1.283 . S
C507 O548 1.283 . S
C508 O534 1.283 . S
C508 O551 1.283 . S
C509 O535 1.283 . S
C509 O549 1.283 . S
C510 O536 1.283 . S
C510 O545 1.283 . S
C511 O537 1.283 . S
C511 O547 1.283 . S
C512 O538 1.283 . S
C512 O544 1.283 . S
C513 O539 1.283 . S
C513 O546 1.283 . S
C514 O540 1.283 . S
C514 O555 1.283 . S
C515 O541 1.283 . S
C515 O553 1.283 . S
C516 O542 1.283 . S
C516 O554 1.283 . S
C517 O543 1.283 . S
C517 O552 1.283 . S
Eu518 O519 2.379 . S
Eu518 O520 2.361 1_545 S
Eu518 O523 2.361 1_545 S
Eu518 O524 2.379 . S
Eu518 O532 2.348 1_545 S
Eu518 O533 2.378 . S
Eu518 O546 2.363 . S
Eu518 O547 2.363 . S
O519 Eu518 2.379 . S
O519 Eu521 2.380 . S
O519 Eu526 2.370 . S
O520 Eu518 2.361 1_565 S
O520 Eu522 2.360 1_565 S
O520 Eu525 2.370 . S
Eu521 O519 2.380 . S
Eu521 O523 2.360 1_545 S
Eu521 O527 2.360 1_544 S
Eu521 O528 2.380 1_554 S
Eu521 O536 2.363 1_554 S
Eu521 O537 2.363 . S
Eu521 O552 2.345 1_545 S
Eu521 O553 2.380 . S
Eu522 O520 2.360 1_545 S
Eu522 O524 2.381 . S
Eu522 O529 2.381 1_554 S
Eu522 O530 2.360 1_544 S
Eu522 O538 2.363 1_554 S
Eu522 O539 2.363 . S
Eu522 O554 2.345 1_545 S
Eu522 O555 2.381 . S
O523 Eu518 2.361 1_565 S
O523 Eu521 2.360 1_565 S
O523 Eu525 2.370 . S
O524 Eu518 2.379 . S
O524 Eu522 2.381 . S
O524 Eu526 2.370 . S
Eu525 O520 2.370 . S
Eu525 O523 2.370 . S
Eu525 O527 2.370 1_554 S
Eu525 O530 2.370 1_554 S
Eu525 O542 2.363 . S
Eu525 O543 2.363 . S
Eu525 O550 2.363 . S
Eu525 O551 2.363 1_554 S
Eu526 O519 2.370 . S
Eu526 O524 2.370 . S
Eu526 O528 2.370 1_554 S
Eu526 O529 2.370 1_554 S
Eu526 O540 2.363 . S
Eu526 O541 2.363 . S
Eu526 O548 2.363 . S
Eu526 O549 2.363 1_554 S
O527 Eu521 2.360 1_566 S
O527 Eu525 2.370 1_556 S
O527 Eu531 2.358 1_565 S
O528 Eu521 2.380 1_556 S
O528 Eu526 2.370 1_556 S
O528 Eu531 2.382 . S
O529 Eu522 2.381 1_556 S
O529 Eu526 2.370 1_556 S
O529 Eu531 2.382 . S
O530 Eu522 2.360 1_566 S
O530 Eu525 2.370 1_556 S
O530 Eu531 2.358 1_565 S
Eu531 O527 2.358 1_545 S
Eu531 O528 2.382 . S
Eu531 O529 2.382 . S
Eu531 O530 2.358 1_545 S
Eu531 O534 2.342 1_545 S
Eu531 O535 2.384 . S
Eu531 O544 2.363 . S
Eu531 O545 2.363 . S
O532 C506 1.283 . S
O532 Eu518 2.348 1_565 S
O533 C507 1.283 . S
O533 Eu518 2.378 . S
O534 C508 1.283 . S
O534 Eu531 2.342 1_565 S
O535 C509 1.283 . S
O535 Eu531 2.384 . S
O536 C510 1.283 . S
O536 Eu521 2.363 1_556 S
O537 C511 1.283 . S
O537 Eu521 2.363 . S
O538 C512 1.283 . S
O538 Eu522 2.363 1_556 S
O539 C513 1.283 . S
O539 Eu522 2.363 . S
O540 C514 1.283 . S
O540 Eu526 2.363 . S
O541 C515 1.283 . S
O541 Eu526 2.363 . S
O542 C516 1.283 . S
O542 Eu525 2.363 . S
O543 C517 1.283 . S
O543 Eu525 2.363 . S
O544 C512 1.283 . S
O544 Eu531 2.363 . S
O545 C510 1.283 . S
O545 Eu531 2.363 . S
O546 C513 1.283 . S
O546 Eu518 2.363 . S
O547 C511 1.283 . S
O547 Eu518 2.363 . S
O548 C507 1.283 . S
O548 Eu526 2.363 . S
O549 C509 1.283 . S
O549 Eu526 2.363 1_556 S
O550 C506 1.283 . S
O550 Eu525 2.363 . S
O551 C508 1.283 . S
O551 Eu525 2.363 1_556 S
O552 C517 1.283 . S
O552 Eu521 2.345 1_565 S
O553 C515 1.283 . S
O553 Eu521 2.380 . S
O554 C516 1.283 . S
O554 Eu522 2.345 1_565 S
O555 C514 1.283 . S
O555 Eu522 2.381 . S
C556 O582 1.283 . S
C556 O600 1.283 . S
C557 O583 1.283 . S
C557 O598 1.283 . S
C558 O584 1.283 . S
C558 O601 1.283 . S
C559 O585 1.283 . S
C559 O599 1.283 . S
C560 O586 1.283 . S
C560 O595 1.283 . S
C561 O587 1.283 . S
C561 O597 1.283 . S
C562 O588 1.283 . S
C562 O594 1.283 . S
C563 O589 1.283 . S
C563 O596 1.283 . S
C564 O590 1.283 . S
C564 O605 1.283 . S
C565 O591 1.283 . S
C565 O603 1.283 . S
C566 O592 1.283 . S
C566 O604 1.283 . S
C567 O593 1.283 . S
C567 O602 1.283 . S
Eu568 O569 2.370 1_454 S
Eu568 O570 2.370 . S
Eu568 O573 2.370 1_455 S
Eu568 O574 2.370 1_554 S
Eu568 O582 2.363 . S
Eu568 O583 2.363 1_554 S
Eu568 O596 2.363 . S
Eu568 O597 2.363 1_455 S
O569 Eu568 2.370 1_656 S
O569 Eu571 2.370 1_556 S
O569 Eu576 2.370 1_655 S
O570 Eu568 2.370 . S
O570 Eu572 2.370 . S
O570 Eu575 2.370 . S
Eu571 O569 2.370 1_554 S
Eu571 O573 2.370 . S
Eu571 O577 2.370 . S
Eu571 O578 2.370 1_554 S
Eu571 O586 2.363 . S
Eu571 O587 2.363 . S
Eu571 O602 2.363 . S
Eu571 O603 2.363 1_554 S
Eu572 O570 2.370 . S
Eu572 O574 2.370 1_554 S
Eu572 O579 2.370 1_554 S
Eu572 O580 2.370 . S
Eu572 O588 2.363 . S
Eu572 O589 2.363 . S
Eu572 O604 2.363 . S
Eu572 O605 2.363 1_554 S
O573 Eu568 2.370 1_655 S
O573 Eu571 2.370 . S
O573 Eu575 2.370 1_655 S
O574 Eu568 2.370 1_556 S
O574 Eu572 2.370 1_556 S
O574 Eu576 2.370 . S
Eu575 O570 2.370 . S
Eu575 O573 2.370 1_455 S
Eu575 O577 2.370 1_455 S
Eu575 O580 2.370 . S
Eu575 O592 2.363 . S
Eu575 O593 2.363 1_455 S
Eu575 O600 2.363 . S
Eu575 O601 2.363 . S
Eu576 O569 2.370 1_455 S
Eu576 O574 2.370 . S
Eu576 O578 2.370 1_455 S
Eu576 O579 2.370 . S
Eu576 O590 2.363 . S
Eu576 O591 2.363 1_455 S
Eu576 O598 2.363 . S
Eu576 O599 2.363 . S
O577 Eu571 2.370 . S
O577 Eu575 2.370 1_655 S
O577 Eu581 2.370 1_655 S
O578 Eu571 2.370 1_556 S
O578 Eu576 2.370 1_655 S
O578 Eu581 2.370 1_656 S
O579 Eu572 2.370 1_556 S
O579 Eu576 2.370 . S
O579 Eu581 2.370 1_556 S
O580 Eu572 2.370 . S
O580 Eu575 2.370 . S
O580 Eu581 2.370 . S
Eu581 O577 2.370 1_455 S
Eu581 O578 2.370 1_454 S
Eu581 O579 2.370 1_554 S
Eu581 O580 2.370 . S
Eu581 O584 2.363 . S
Eu581 O585 2.363 1_554 S
Eu581 O594 2.363 . S
Eu581 O595 2.363 1_455 S
O582 C556 1.283 . S
O582 Eu568 2.363 . S
O583 C557 1.283 . S
O583 Eu568 2.363 1_556 S
O584 C558 1.283 . S
O584 Eu581 2.363 . S
O585 C559 1.283 . S
O585 Eu581 2.363 1_556 S
O586 C560 1.283 . S
O586 Eu571 2.363 . S
O587 C561 1.283 . S
O587 Eu571 2.363 . S
O588 C562 1.283 . S
O588 Eu572 2.363 . S
O589 C563 1.283 . S
O589 Eu572 2.363 . S
O590 C564 1.283 . S
O590 Eu576 2.363 . S
O591 C565 1.283 . S
O591 Eu576 2.363 1_655 S
O592 C566 1.283 . S
O592 Eu575 2.363 . S
O593 C567 1.283 . S
O593 Eu575 2.363 1_655 S
O594 C562 1.283 . S
O594 Eu581 2.363 . S
O595 C560 1.283 . S
O595 Eu581 2.363 1_655 S
O596 C563 1.283 . S
O596 Eu568 2.363 . S
O597 C561 1.283 . S
O597 Eu568 2.363 1_655 S
O598 C557 1.283 . S
O598 Eu576 2.363 . S
O599 C559 1.283 . S
O599 Eu576 2.363 . S
O600 C556 1.283 . S
O600 Eu575 2.363 . S
O601 C558 1.283 . S
O601 Eu575 2.363 . S
O602 C567 1.283 . S
O602 Eu571 2.363 . S
O603 C565 1.283 . S
O603 Eu571 2.363 1_556 S
O604 C566 1.283 . S
O604 Eu572 2.363 . S
O605 C564 1.283 . S
O605 Eu572 2.363 1_556 S
C606 O632 1.283 . S
C606 O650 1.283 . S
C607 O633 1.283 . S
C607 O648 1.283 . S
C608 O634 1.283 . S
C608 O651 1.283 . S
C609 O635 1.283 . S
C609 O649 1.283 . S
C610 O636 1.283 . S
C610 O645 1.283 . S
C611 O637 1.283 . S
C611 O647 1.283 . S
C612 O638 1.283 . S
C612 O644 1.283 . S
C613 O639 1.283 . S
C613 O646 1.283 . S
C614 O640 1.283 . S
C614 O655 1.283 . S
C615 O641 1.283 . S
C615 O653 1.283 . S
C616 O642 1.283 . S
C616 O654 1.283 . S
C617 O643 1.283 . S
C617 O652 1.283 . S
Eu618 O619 2.370 . S
Eu618 O620 2.370 . S
Eu618 O623 2.370 . S
Eu618 O624 2.370 . S
Eu618 O632 2.363 . S
Eu618 O633 2.363 . S
Eu618 O646 2.363 . S
Eu618 O647 2.363 . S
O619 Eu618 2.370 . S
O619 Eu621 2.370 . S
O619 Eu626 2.370 . S
O620 Eu618 2.370 . S
O620 Eu622 2.370 . S
O620 Eu625 2.370 . S
Eu621 O619 2.370 . S
Eu621 O623 2.370 . S
Eu621 O627 2.370 1_554 S
Eu621 O628 2.370 1_554 S
Eu621 O636 2.363 1_554 S
Eu621 O637 2.363 . S
Eu621 O652 2.363 . S
Eu621 O653 2.363 . S
Eu622 O620 2.370 . S
Eu622 O624 2.370 . S
Eu622 O629 2.370 1_554 S
Eu622 O630 2.370 1_554 S
Eu622 O638 2.363 1_554 S
Eu622 O639 2.363 . S
Eu622 O654 2.363 . S
Eu622 O655 2.363 . S
O623 Eu618 2.370 . S
O623 Eu621 2.370 . S
O623 Eu625 2.370 . S
O624 Eu618 2.370 . S
O624 Eu622 2.370 . S
O624 Eu626 2.370 . S
Eu625 O620 2.370 . S
Eu625 O623 2.370 . S
Eu625 O627 2.370 1_554 S
Eu625 O630 2.370 1_554 S
Eu625 O642 2.363 . S
Eu625 O643 2.363 . S
Eu625 O650 2.363 . S
Eu625 O651 2.363 1_554 S
Eu626 O619 2.370 . S
Eu626 O624 2.370 . S
Eu626 O628 2.370 1_554 S
Eu626 O629 2.370 1_554 S
Eu626 O640 2.363 . S
Eu626 O641 2.363 . S
Eu626 O648 2.363 . S
Eu626 O649 2.363 1_554 S
O627 Eu621 2.370 1_556 S
O627 Eu625 2.370 1_556 S
O627 Eu631 2.370 . S
O628 Eu621 2.370 1_556 S
O628 Eu626 2.370 1_556 S
O628 Eu631 2.370 . S
O629 Eu622 2.370 1_556 S
O629 Eu626 2.370 1_556 S
O629 Eu631 2.370 . S
O630 Eu622 2.370 1_556 S
O630 Eu625 2.370 1_556 S
O630 Eu631 2.370 . S
Eu631 O627 2.370 . S
Eu631 O628 2.370 . S
Eu631 O629 2.370 . S
Eu631 O630 2.370 . S
Eu631 O634 2.363 . S
Eu631 O635 2.363 . S
Eu631 O644 2.363 . S
Eu631 O645 2.363 . S
O632 C606 1.283 . S
O632 Eu618 2.363 . S
O633 C607 1.283 . S
O633 Eu618 2.363 . S
O634 C608 1.283 . S
O634 Eu631 2.363 . S
O635 C609 1.283 . S
O635 Eu631 2.363 . S
O636 C610 1.283 . S
O636 Eu621 2.363 1_556 S
O637 C611 1.283 . S
O637 Eu621 2.363 . S
O638 C612 1.283 . S
O638 Eu622 2.363 1_556 S
O639 C613 1.283 . S
O639 Eu622 2.363 . S
O640 C614 1.283 . S
O640 Eu626 2.363 . S
O641 C615 1.283 . S
O641 Eu626 2.363 . S
O642 C616 1.283 . S
O642 Eu625 2.363 . S
O643 C617 1.283 . S
O643 Eu625 2.363 . S
O644 C612 1.283 . S
O644 Eu631 2.363 . S
O645 C610 1.283 . S
O645 Eu631 2.363 . S
O646 C613 1.283 . S
O646 Eu618 2.363 . S
O647 C611 1.283 . S
O647 Eu618 2.363 . S
O648 C607 1.283 . S
O648 Eu626 2.363 . S
O649 C609 1.283 . S
O649 Eu626 2.363 1_556 S
O650 C606 1.283 . S
O650 Eu625 2.363 . S
O651 C608 1.283 . S
O651 Eu625 2.363 1_556 S
O652 C617 1.283 . S
O652 Eu621 2.363 . S
O653 C615 1.283 . S
O653 Eu621 2.363 . S
O654 C616 1.283 . S
O654 Eu622 2.363 . S
O655 C614 1.283 . S
O655 Eu622 2.363 . S
C656 O682 1.283 . S
C656 O700 1.283 . S
C657 O683 1.283 . S
C657 O698 1.283 . S
C658 O684 1.283 . S
C658 O701 1.283 . S
C659 O685 1.283 . S
C659 O699 1.283 . S
C660 O686 1.283 . S
C660 O695 1.283 . S
C661 O687 1.283 . S
C661 O697 1.283 . S
C662 O688 1.283 . S
C662 O694 1.283 . S
C663 O689 1.283 . S
C663 O696 1.283 . S
C664 O690 1.283 . S
C664 O705 1.283 . S
C665 O691 1.283 . S
C665 O703 1.283 . S
C666 O692 1.283 . S
C666 O704 1.283 . S
C667 O693 1.283 . S
C667 O702 1.283 . S
Eu668 O669 2.370 1_455 S
Eu668 O670 2.370 . S
Eu668 O673 2.370 1_455 S
Eu668 O674 2.370 . S
Eu668 O682 2.363 . S
Eu668 O683 2.363 . S
Eu668 O696 2.363 . S
Eu668 O697 2.363 1_455 S
O669 Eu668 2.370 1_655 S
O669 Eu671 2.370 . S
O669 Eu676 2.370 1_655 S
O670 Eu668 2.370 . S
O670 Eu672 2.370 . S
O670 Eu675 2.370 . S
Eu671 O669 2.370 . S
Eu671 O673 2.370 . S
Eu671 O677 2.370 . S
Eu671 O678 2.370 . S
Eu671 O686 2.363 . S
Eu671 O687 2.363 . S
Eu671 O702 2.363 . S
Eu671 O703 2.363 . S
Eu672 O670 2.370 . S
Eu672 O674 2.370 . S
Eu672 O679 2.370 . S
Eu672 O680 2.370 . S
Eu672 O688 2.363 . S
Eu672 O689 2.363 . S
Eu672 O704 2.363 . S
Eu672 O705 2.363 . S
O673 Eu668 2.370 1_655 S
O673 Eu671 2.370 . S
O673 Eu675 2.370 1_655 S
O674 Eu668 2.370 . S
O674 Eu672 2.370 . S
O674 Eu676 2.370 . S
Eu675 O670 2.370 . S
Eu675 O673 2.370 1_455 S
Eu675 O677 2.370 1_455 S
Eu675 O680 2.370 . S
Eu675 O692 2.363 . S
Eu675 O693 2.363 1_455 S
Eu675 O700 2.363 . S
Eu675 O701 2.363 . S
Eu676 O669 2.370 1_455 S
Eu676 O674 2.370 . S
Eu676 O678 2.370 1_455 S
Eu676 O679 2.370 . S
Eu676 O690 2.363 . S
Eu676 O691 2.363 1_455 S
Eu676 O698 2.363 . S
Eu676 O699 2.363 . S
O677 Eu671 2.370 . S
O677 Eu675 2.370 1_655 S
O677 Eu681 2.370 1_655 S
O678 Eu671 2.370 . S
O678 Eu676 2.370 1_655 S
O678 Eu681 2.370 1_655 S
O679 Eu672 2.370 . S
O679 Eu676 2.370 . S
O679 Eu681 2.370 . S
O680 Eu672 2.370 . S
O680 Eu675 2.370 . S
O680 Eu681 2.370 . S
Eu681 O677 2.370 1_455 S
Eu681 O678 2.370 1_455 S
Eu681 O679 2.370 . S
Eu681 O680 2.370 . S
Eu681 O684 2.363 . S
Eu681 O685 2.363 . S
Eu681 O694 2.363 . S
Eu681 O695 2.363 1_455 S
O682 C656 1.283 . S
O682 Eu668 2.363 . S
O683 C657 1.283 . S
O683 Eu668 2.363 . S
O684 C658 1.283 . S
O684 Eu681 2.363 . S
O685 C659 1.283 . S
O685 Eu681 2.363 . S
O686 C660 1.283 . S
O686 Eu671 2.363 . S
O687 C661 1.283 . S
O687 Eu671 2.363 . S
O688 C662 1.283 . S
O688 Eu672 2.363 . S
O689 C663 1.283 . S
O689 Eu672 2.363 . S
O690 C664 1.283 . S
O690 Eu676 2.363 . S
O691 C665 1.283 . S
O691 Eu676 2.363 1_655 S
O692 C666 1.283 . S
O692 Eu675 2.363 . S
O693 C667 1.283 . S
O693 Eu675 2.363 1_655 S
O694 C662 1.283 . S
O694 Eu681 2.363 . S
O695 C660 1.283 . S
O695 Eu681 2.363 1_655 S
O696 C663 1.283 . S
O696 Eu668 2.363 . S
O697 C661 1.283 . S
O697 Eu668 2.363 1_655 S
O698 C657 1.283 . S
O698 Eu676 2.363 . S
O699 C659 1.283 . S
O699 Eu676 2.363 . S
O700 C656 1.283 . S
O700 Eu675 2.363 . S
O701 C658 1.283 . S
O701 Eu675 2.363 . S
O702 C667 1.283 . S
O702 Eu671 2.363 . S
O703 C665 1.283 . S
O703 Eu671 2.363 . S
O704 C666 1.283 . S
O704 Eu672 2.363 . S
O705 C664 1.283 . S
O705 Eu672 2.363 . S
C706 O732 1.283 . S
C706 O750 1.283 . S
C707 O733 1.283 . S
C707 O748 1.283 . S
C708 O734 1.283 . S
C708 O751 1.283 . S
C709 O735 1.283 . S
C709 O749 1.283 . S
C710 O736 1.283 . S
C710 O745 1.283 . S
C711 O737 1.283 . S
C711 O747 1.283 . S
C712 O738 1.283 . S
C712 O744 1.283 . S
C713 O739 1.283 . S
C713 O746 1.283 . S
C714 O740 1.283 . S
C714 O755 1.283 . S
C715 O741 1.283 . S
C715 O753 1.283 . S
C716 O742 1.283 . S
C716 O754 1.283 . S
C717 O743 1.283 . S
C717 O752 1.283 . S
Eu718 O719 2.370 . S
Eu718 O720 2.370 . S
Eu718 O723 2.370 . S
Eu718 O724 2.370 . S
Eu718 O732 2.363 . S
Eu718 O733 2.363 . S
Eu718 O746 2.363 . S
Eu718 O747 2.363 . S
O719 Eu718 2.370 . S
O719 Eu721 2.359 1_565 S
O719 Eu726 2.361 1_565 S
O720 Eu718 2.370 . S
O720 Eu722 2.359 1_565 S
O720 Eu725 2.357 1_565 S
Eu721 O719 2.359 1_545 S
Eu721 O723 2.359 1_545 S
Eu721 O727 2.381 . S
Eu721 O728 2.381 . S
Eu721 O736 2.382 . S
Eu721 O737 2.344 1_545 S
Eu721 O752 2.363 . S
Eu721 O753 2.363 . S
Eu722 O720 2.359 1_545 S
Eu722 O724 2.359 1_545 S
Eu722 O729 2.381 . S
Eu722 O730 2.381 . S
Eu722 O738 2.382 . S
Eu722 O739 2.344 1_545 S
Eu722 O754 2.363 . S
Eu722 O755 2.363 . S
O723 Eu718 2.370 . S
O723 Eu721 2.359 1_565 S
O723 Eu725 2.357 1_565 S
O724 Eu718 2.370 . S
O724 Eu722 2.359 1_565 S
O724 Eu726 2.361 1_565 S
Eu725 O720 2.357 1_545 S
Eu725 O723 2.357 1_545 S
Eu725 O727 2.383 . S
Eu725 O730 2.383 . S
Eu725 O742 2.363 . S
Eu725 O743 2.363 . S
Eu725 O750 2.342 1_545 S
Eu725 O751 2.384 . S
Eu726 O719 2.361 1_545 S
Eu726 O724 2.361 1_545 S
Eu726 O728 2.380 . S
Eu726 O729 2.380 . S
Eu726 O740 2.363 . S
Eu726 O741 2.363 . S
Eu726 O748 2.347 1_545 S
Eu726 O749 2.379 . S
O727 Eu721 2.381 . S
O727 Eu725 2.383 . S
O727 Eu731 2.370 . S
O728 Eu721 2.381 . S
O728 Eu726 2.380 . S
O728 Eu731 2.370 . S
O729 Eu722 2.381 . S
O729 Eu726 2.380 . S
O729 Eu731 2.370 . S
O730 Eu722 2.381 . S
O730 Eu725 2.383 . S
O730 Eu731 2.370 . S
Eu731 O727 2.370 . S
Eu731 O728 2.370 . S
Eu731 O729 2.370 . S
Eu731 O730 2.370 . S
Eu731 O734 2.363 . S
Eu731 O735 2.363 . S
Eu731 O744 2.363 . S
Eu731 O745 2.363 . S
O732 C706 1.283 . S
O732 Eu718 2.363 . S
O733 C707 1.283 . S
O733 Eu718 2.363 . S
O734 C708 1.283 . S
O734 Eu731 2.363 . S
O735 C709 1.283 . S
O735 Eu731 2.363 . S
O736 C710 1.283 . S
O736 Eu721 2.382 . S
O737 C711 1.283 . S
O737 Eu721 2.344 1_565 S
O738 C712 1.283 . S
O738 Eu722 2.382 . S
O739 C713 1.283 . S
O739 Eu722 2.344 1_565 S
O740 C714 1.283 . S
O740 Eu726 2.363 . S
O741 C715 1.283 . S
O741 Eu726 2.363 . S
O742 C716 1.283 . S
O742 Eu725 2.363 . S
O743 C717 1.283 . S
O743 Eu725 2.363 . S
O744 C712 1.283 . S
O744 Eu731 2.363 . S
O745 C710 1.283 . S
O745 Eu731 2.363 . S
O746 C713 1.283 . S
O746 Eu718 2.363 . S
O747 C711 1.283 . S
O747 Eu718 2.363 . S
O748 C707 1.283 . S
O748 Eu726 2.347 1_565 S
O749 C709 1.283 . S
O749 Eu726 2.379 . S
O750 C706 1.283 . S
O750 Eu725 2.342 1_565 S
O751 C708 1.283 . S
O751 Eu725 2.384 . S
O752 C717 1.283 . S
O752 Eu721 2.363 . S
O753 C715 1.283 . S
O753 Eu721 2.363 . S
O754 C716 1.283 . S
O754 Eu722 2.363 . S
O755 C714 1.283 . S
O755 Eu722 2.363 . S
H756 C762 0.930 . S
H757 C766 0.930 . S
H758 C771 0.929 . S
H759 C769 0.929 . S
H760 C764 0.929 . S
H761 C770 0.929 . S
C762 H756 0.930 . S
C762 C763 1.367 . S
C762 C770 1.378 . S
C763 C762 1.367 . S
C763 C771 1.433 . S
C764 H760 0.929 . S
C764 C766 1.378 . S
C764 C768 1.350 . S
C765 C768 1.463 . S
C765 C770 1.350 . S
C765 N773 1.427 . S
C766 H757 0.930 . S
C766 C764 1.378 . S
C766 C767 1.367 . S
C767 C766 1.367 . S
C767 C769 1.433 . S
C768 C764 1.350 . S
C768 C765 1.463 . S
C768 N772 1.427 . S
C769 H759 0.929 . S
C769 C767 1.433 . S
C769 N772 1.384 . S
C770 H761 0.929 . S
C770 C762 1.378 . S
C770 C765 1.350 . S
C771 H758 0.929 . S
C771 C763 1.433 . S
C771 N773 1.384 . S
N772 C768 1.427 . S
N772 C769 1.384 . S
N773 C765 1.427 . S
N773 C771 1.384 . S
H774 C780 0.930 . S
H775 C784 0.930 . S
H776 C789 0.929 . S
H777 C787 0.929 . S
H778 C782 0.929 . S
H779 C788 0.929 . S
C780 H774 0.930 . S
C780 C781 1.367 . S
C780 C788 1.378 . S
C781 C780 1.367 . S
C781 C789 1.433 . S
C782 H778 0.929 . S
C782 C784 1.378 . S
C782 C786 1.350 . S
C783 C786 1.463 . S
C783 C788 1.350 . S
C783 N791 1.427 . S
C784 H775 0.930 . S
C784 C782 1.378 . S
C784 C785 1.367 . S
C785 C784 1.367 . S
C785 C787 1.433 . S
C786 C782 1.350 . S
C786 C783 1.463 . S
C786 N790 1.427 . S
C787 H777 0.929 . S
C787 C785 1.433 . S
C787 N790 1.384 . S
C788 H779 0.929 . S
C788 C780 1.378 . S
C788 C783 1.350 . S
C789 H776 0.929 . S
C789 C781 1.433 . S
C789 N791 1.384 . S
N790 C786 1.427 . S
N790 C787 1.384 . S
N791 C783 1.427 . S
N791 C789 1.384 . S
H792 C798 0.930 . S
H793 C802 0.930 . S
H794 C807 0.929 . S
H795 C805 0.929 . S
H796 C800 0.929 . S
H797 C806 0.929 . S
C798 H792 0.930 . S
C798 C799 1.367 . S
C798 C806 1.378 . S
C799 C798 1.367 . S
C799 C807 1.433 . S
C800 H796 0.929 . S
C800 C802 1.378 . S
C800 C804 1.350 . S
C801 C804 1.463 . S
C801 C806 1.350 . S
C801 N809 1.427 . S
C802 H793 0.930 . S
C802 C800 1.378 . S
C802 C803 1.367 . S
C803 C802 1.367 . S
C803 C805 1.433 . S
C804 C800 1.350 . S
C804 C801 1.463 . S
C804 N808 1.427 . S
C805 H795 0.929 . S
C805 C803 1.433 . S
C805 N808 1.384 . S
C806 H797 0.929 . S
C806 C798 1.378 . S
C806 C801 1.350 . S
C807 H794 0.929 . S
C807 C799 1.433 . S
C807 N809 1.384 . S
N808 C804 1.427 . S
N808 C805 1.384 . S
N809 C801 1.427 . S
N809 C807 1.384 . S
H810 C816 0.930 . S
H811 C820 0.930 . S
H812 C825 0.929 . S
H813 C823 0.929 . S
H814 C818 0.929 . S
H815 C824 0.929 . S
C816 H810 0.930 . S
C816 C817 1.367 . S
C816 C824 1.378 . S
C817 C816 1.367 . S
C817 C825 1.433 . S
C818 H814 0.929 . S
C818 C820 1.378 . S
C818 C822 1.350 . S
C819 C822 1.463 . S
C819 C824 1.350 . S
C819 N827 1.427 . S
C820 H811 0.930 . S
C820 C818 1.378 . S
C820 C821 1.367 . S
C821 C820 1.367 . S
C821 C823 1.433 . S
C822 C818 1.350 . S
C822 C819 1.463 . S
C822 N826 1.427 . S
C823 H813 0.929 . S
C823 C821 1.433 . S
C823 N826 1.384 . S
C824 H815 0.929 . S
C824 C816 1.378 . S
C824 C819 1.350 . S
C825 H812 0.929 . S
C825 C817 1.433 . S
C825 N827 1.384 . S
N826 C822 1.427 . S
N826 C823 1.384 . S
N827 C819 1.427 . S
N827 C825 1.384 . S
H828 C834 0.930 . S
H829 C838 0.930 . S
H830 C843 0.929 . S
H831 C841 0.929 . S
H832 C836 0.929 . S
H833 C842 0.929 . S
C834 H828 0.930 . S
C834 C835 1.367 . S
C834 C842 1.378 . S
C835 C834 1.367 . S
C835 C843 1.433 . S
C836 H832 0.929 . S
C836 C838 1.378 . S
C836 C840 1.350 . S
C837 C840 1.463 . S
C837 C842 1.350 . S
C837 N845 1.427 . S
C838 H829 0.930 . S
C838 C836 1.378 . S
C838 C839 1.367 . S
C839 C838 1.367 . S
C839 C841 1.433 . S
C840 C836 1.350 . S
C840 C837 1.463 . S
C840 N844 1.427 . S
C841 H831 0.929 . S
C841 C839 1.433 . S
C841 N844 1.384 . S
C842 H833 0.929 . S
C842 C834 1.378 . S
C842 C837 1.350 . S
C843 H830 0.929 . S
C843 C835 1.433 . S
C843 N845 1.384 . S
N844 C840 1.427 . S
N844 C841 1.384 . S
N845 C837 1.427 . S
N845 C843 1.384 . S
H846 C852 0.930 . S
H847 C856 0.930 . S
H848 C861 0.929 . S
H849 C859 0.929 . S
H850 C854 0.929 . S
H851 C860 0.929 . S
C852 H846 0.930 . S
C852 C853 1.367 . S
C852 C860 1.378 . S
C853 C852 1.367 . S
C853 C861 1.433 . S
C854 H850 0.929 . S
C854 C856 1.378 . S
C854 C858 1.350 . S
C855 C858 1.463 . S
C855 C860 1.350 . S
C855 N863 1.427 . S
C856 H847 0.930 . S
C856 C854 1.378 . S
C856 C857 1.367 . S
C857 C856 1.367 . S
C857 C859 1.433 . S
C858 C854 1.350 . S
C858 C855 1.463 . S
C858 N862 1.427 . S
C859 H849 0.929 . S
C859 C857 1.433 . S
C859 N862 1.384 . S
C860 H851 0.929 . S
C860 C852 1.378 . S
C860 C855 1.350 . S
C861 H848 0.929 . S
C861 C853 1.433 . S
C861 N863 1.384 . S
N862 C858 1.427 . S
N862 C859 1.384 . S
N863 C855 1.427 . S
N863 C861 1.384 . S
H864 C870 0.930 . S
H865 C874 0.930 . S
H866 C879 0.929 . S
H867 C877 0.929 . S
H868 C872 0.929 . S
H869 C878 0.929 . S
C870 H864 0.930 . S
C870 C871 1.367 . S
C870 C878 1.378 . S
C871 C870 1.367 . S
C871 C879 1.433 . S
C872 H868 0.929 . S
C872 C874 1.378 . S
C872 C876 1.350 . S
C873 C876 1.463 . S
C873 C878 1.350 . S
C873 N881 1.427 . S
C874 H865 0.930 . S
C874 C872 1.378 . S
C874 C875 1.367 . S
C875 C874 1.367 . S
C875 C877 1.433 . S
C876 C872 1.350 . S
C876 C873 1.463 . S
C876 N880 1.427 . S
C877 H867 0.929 . S
C877 C875 1.433 . S
C877 N880 1.384 . S
C878 H869 0.929 . S
C878 C870 1.378 . S
C878 C873 1.350 . S
C879 H866 0.929 . S
C879 C871 1.433 . S
C879 N881 1.384 . S
N880 C876 1.427 . S
N880 C877 1.384 . S
N881 C873 1.427 . S
N881 C879 1.384 . S
H882 C888 0.930 . S
H883 C892 0.930 . S
H884 C897 0.929 . S
H885 C895 0.929 . S
H886 C890 0.929 . S
H887 C896 0.929 . S
C888 H882 0.930 . S
C888 C889 1.367 . S
C888 C896 1.378 . S
C889 C888 1.367 . S
C889 C897 1.433 . S
C890 H886 0.929 . S
C890 C892 1.378 . S
C890 C894 1.350 . S
C891 C894 1.463 . S
C891 C896 1.350 . S
C891 N899 1.427 . S
C892 H883 0.930 . S
C892 C890 1.378 . S
C892 C893 1.367 . S
C893 C892 1.367 . S
C893 C895 1.433 . S
C894 C890 1.350 . S
C894 C891 1.463 . S
C894 N898 1.427 . S
C895 H885 0.929 . S
C895 C893 1.433 . S
C895 N898 1.384 . S
C896 H887 0.929 . S
C896 C888 1.378 . S
C896 C891 1.350 . S
C897 H884 0.929 . S
C897 C889 1.433 . S
C897 N899 1.384 . S
N898 C894 1.427 . S
N898 C895 1.384 . S
N899 C891 1.427 . S
N899 C897 1.384 . S
H900 C906 0.930 . S
H901 C910 0.930 . S
H902 C915 0.929 . S
H903 C913 0.929 . S
H904 C908 0.929 . S
H905 C914 0.929 . S
C906 H900 0.930 . S
C906 C907 1.367 . S
C906 C914 1.378 . S
C907 C906 1.367 . S
C907 C915 1.433 . S
C908 H904 0.929 . S
C908 C910 1.378 . S
C908 C912 1.350 . S
C909 C912 1.463 . S
C909 C914 1.350 . S
C909 N917 1.427 . S
C910 H901 0.930 . S
C910 C908 1.378 . S
C910 C911 1.367 . S
C911 C910 1.367 . S
C911 C913 1.433 . S
C912 C908 1.350 . S
C912 C909 1.463 . S
C912 N916 1.427 . S
C913 H903 0.929 . S
C913 C911 1.433 . S
C913 N916 1.384 . S
C914 H905 0.929 . S
C914 C906 1.378 . S
C914 C909 1.350 . S
C915 H902 0.929 . S
C915 C907 1.433 . S
C915 N917 1.384 . S
N916 C912 1.427 . S
N916 C913 1.384 . S
N917 C909 1.427 . S
N917 C915 1.384 . S
H918 C924 0.930 . S
H919 C928 0.930 . S
H920 C933 0.929 . S
H921 C931 0.929 . S
H922 C926 0.929 . S
H923 C932 0.929 . S
C924 H918 0.930 . S
C924 C925 1.367 . S
C924 C932 1.378 . S
C925 C924 1.367 . S
C925 C933 1.433 . S
C926 H922 0.929 . S
C926 C928 1.378 . S
C926 C930 1.350 . S
C927 C930 1.463 . S
C927 C932 1.350 . S
C927 N935 1.427 . S
C928 H919 0.930 . S
C928 C926 1.378 . S
C928 C929 1.367 . S
C929 C928 1.367 . S
C929 C931 1.433 . S
C930 C926 1.350 . S
C930 C927 1.463 . S
C930 N934 1.427 . S
C931 H921 0.929 . S
C931 C929 1.433 . S
C931 N934 1.384 . S
C932 H923 0.929 . S
C932 C924 1.378 . S
C932 C927 1.350 . S
C933 H920 0.929 . S
C933 C925 1.433 . S
C933 N935 1.384 . S
N934 C930 1.427 . S
N934 C931 1.384 . S
N935 C927 1.427 . S
N935 C933 1.384 . S
H936 C942 0.930 . S
H937 C946 0.930 . S
H938 C951 0.929 . S
H939 C949 0.929 . S
H940 C944 0.929 . S
H941 C950 0.929 . S
C942 H936 0.930 . S
C942 C943 1.367 . S
C942 C950 1.378 . S
C943 C942 1.367 . S
C943 C951 1.433 . S
C944 H940 0.929 . S
C944 C946 1.378 . S
C944 C948 1.350 . S
C945 C948 1.463 . S
C945 C950 1.350 . S
C945 N953 1.427 . S
C946 H937 0.930 . S
C946 C944 1.378 . S
C946 C947 1.367 . S
C947 C946 1.367 . S
C947 C949 1.433 . S
C948 C944 1.350 . S
C948 C945 1.463 . S
C948 N952 1.427 . S
C949 H939 0.929 . S
C949 C947 1.433 . S
C949 N952 1.384 . S
C950 H941 0.929 . S
C950 C942 1.378 . S
C950 C945 1.350 . S
C951 H938 0.929 . S
C951 C943 1.433 . S
C951 N953 1.384 . S
N952 C948 1.427 . S
N952 C949 1.384 . S
N953 C945 1.427 . S
N953 C951 1.384 . S
H954 C960 0.930 . S
H955 C964 0.930 . S
H956 C969 0.929 . S
H957 C967 0.929 . S
H958 C962 0.929 . S
H959 C968 0.929 . S
C960 H954 0.930 . S
C960 C961 1.367 . S
C960 C968 1.378 . S
C961 C960 1.367 . S
C961 C969 1.433 . S
C962 H958 0.929 . S
C962 C964 1.378 . S
C962 C966 1.350 . S
C963 C966 1.463 . S
C963 C968 1.350 . S
C963 N971 1.427 . S
C964 H955 0.930 . S
C964 C962 1.378 . S
C964 C965 1.367 . S
C965 C964 1.367 . S
C965 C967 1.433 . S
C966 C962 1.350 . S
C966 C963 1.463 . S
C966 N970 1.427 . S
C967 H957 0.929 . S
C967 C965 1.433 . S
C967 N970 1.384 . S
C968 H959 0.929 . S
C968 C960 1.378 . S
C968 C963 1.350 . S
C969 H956 0.929 . S
C969 C961 1.433 . S
C969 N971 1.384 . S
N970 C966 1.427 . S
N970 C967 1.384 . S
N971 C963 1.427 . S
N971 C969 1.384 . S
H972 C978 0.930 . S
H973 C982 0.930 . S
H974 C987 0.929 . S
H975 C985 0.929 . S
H976 C980 0.929 . S
H977 C986 0.929 . S
C978 H972 0.930 . S
C978 C979 1.367 . S
C978 C986 1.378 . S
C979 C978 1.367 . S
C979 C987 1.433 1_554 S
C980 H976 0.929 . S
C980 C982 1.378 . S
C980 C984 1.350 1_556 S
C981 C984 1.463 . S
C981 C986 1.350 . S
C981 N989 1.427 1_554 S
C982 H973 0.930 . S
C982 C980 1.378 . S
C982 C983 1.367 1_556 S
C983 C982 1.367 1_554 S
C983 C985 1.433 . S
C984 C980 1.350 1_554 S
C984 C981 1.463 . S
C984 N988 1.427 . S
C985 H975 0.929 . S
C985 C983 1.433 . S
C985 N988 1.384 . S
C986 H977 0.929 . S
C986 C978 1.378 . S
C986 C981 1.350 . S
C987 H974 0.929 . S
C987 C979 1.433 1_556 S
C987 N989 1.384 . S
N988 C984 1.427 . S
N988 C985 1.384 . S
N989 C981 1.427 1_556 S
N989 C987 1.384 . S
H990 C996 0.930 . S
H991 C1000 0.930 . S
H992 C1005 0.929 . S
H993 C1003 0.929 . S
H994 C998 0.929 . S
H995 C1004 0.929 . S
C996 H990 0.930 . S
C996 C997 1.367 . S
C996 C1004 1.378 . S
C997 C996 1.367 . S
C997 C1005 1.433 1_554 S
C998 H994 0.929 . S
C998 C1000 1.378 . S
C998 C1002 1.350 1_556 S
C999 C1002 1.463 . S
C999 C1004 1.350 . S
C999 N1007 1.427 1_554 S
C1000 H991 0.930 . S
C1000 C998 1.378 . S
C1000 C1001 1.367 1_556 S
C1001 C1000 1.367 1_554 S
C1001 C1003 1.433 . S
C1002 C998 1.350 1_554 S
C1002 C999 1.463 . S
C1002 N1006 1.427 . S
C1003 H993 0.929 . S
C1003 C1001 1.433 . S
C1003 N1006 1.384 . S
C1004 H995 0.929 . S
C1004 C996 1.378 . S
C1004 C999 1.350 . S
C1005 H992 0.929 . S
C1005 C997 1.433 1_556 S
C1005 N1007 1.384 . S
N1006 C1002 1.427 . S
N1006 C1003 1.384 . S
N1007 C999 1.427 1_556 S
N1007 C1005 1.384 . S
H1008 C1014 0.930 . S
H1009 C1018 0.930 . S
H1010 C1023 0.929 . S
H1011 C1021 0.929 . S
H1012 C1016 0.929 . S
H1013 C1022 0.929 . S
C1014 H1008 0.930 . S
C1014 C1015 1.367 1_556 S
C1014 C1022 1.378 . S
C1015 C1014 1.367 1_554 S
C1015 C1023 1.433 . S
C1016 H1012 0.929 . S
C1016 C1018 1.378 . S
C1016 C1020 1.350 . S
C1017 C1020 1.463 . S
C1017 C1022 1.350 1_554 S
C1017 N1025 1.427 . S
C1018 H1009 0.930 . S
C1018 C1016 1.378 . S
C1018 C1019 1.367 . S
C1019 C1018 1.367 . S
C1019 C1021 1.433 1_554 S
C1020 C1016 1.350 . S
C1020 C1017 1.463 . S
C1020 N1024 1.427 1_554 S
C1021 H1011 0.929 . S
C1021 C1019 1.433 1_556 S
C1021 N1024 1.384 . S
C1022 H1013 0.929 . S
C1022 C1014 1.378 . S
C1022 C1017 1.350 1_556 S
C1023 H1010 0.929 . S
C1023 C1015 1.433 . S
C1023 N1025 1.384 . S
N1024 C1020 1.427 1_556 S
N1024 C1021 1.384 . S
N1025 C1017 1.427 . S
N1025 C1023 1.384 . S
H1026 C1032 0.930 . S
H1027 C1036 0.930 . S
H1028 C1041 0.929 . S
H1029 C1039 0.929 . S
H1030 C1034 0.929 . S
H1031 C1040 0.929 . S
C1032 H1026 0.930 . S
C1032 C1033 1.367 1_556 S
C1032 C1040 1.378 . S
C1033 C1032 1.367 1_554 S
C1033 C1041 1.433 . S
C1034 H1030 0.929 . S
C1034 C1036 1.378 . S
C1034 C1038 1.350 . S
C1035 C1038 1.463 . S
C1035 C1040 1.350 1_554 S
C1035 N1043 1.427 . S
C1036 H1027 0.930 . S
C1036 C1034 1.378 . S
C1036 C1037 1.367 . S
C1037 C1036 1.367 . S
C1037 C1039 1.433 1_554 S
C1038 C1034 1.350 . S
C1038 C1035 1.463 . S
C1038 N1042 1.427 1_554 S
C1039 H1029 0.929 . S
C1039 C1037 1.433 1_556 S
C1039 N1042 1.384 . S
C1040 H1031 0.929 . S
C1040 C1032 1.378 . S
C1040 C1035 1.350 1_556 S
C1041 H1028 0.929 . S
C1041 C1033 1.433 . S
C1041 N1043 1.384 . S
N1042 C1038 1.427 1_556 S
N1042 C1039 1.384 . S
N1043 C1035 1.427 . S
N1043 C1041 1.384 . S
H1044 C1050 0.930 . S
H1045 C1054 0.930 . S
H1046 C1059 0.929 . S
H1047 C1057 0.929 . S
H1048 C1052 0.929 . S
H1049 C1058 0.929 . S
C1050 H1044 0.930 . S
C1050 C1051 1.367 1_655 S
C1050 C1058 1.378 . S
C1051 C1050 1.367 1_455 S
C1051 C1059 1.433 . S
C1052 H1048 0.929 . S
C1052 C1054 1.378 . S
C1052 C1056 1.350 . S
C1053 C1056 1.463 . S
C1053 C1058 1.350 1_455 S
C1053 N1061 1.427 . S
C1054 H1045 0.930 . S
C1054 C1052 1.378 . S
C1054 C1055 1.367 . S
C1055 C1054 1.367 . S
C1055 C1057 1.433 1_455 S
C1056 C1052 1.350 . S
C1056 C1053 1.463 . S
C1056 N1060 1.427 1_455 S
C1057 H1047 0.929 . S
C1057 C1055 1.433 1_655 S
C1057 N1060 1.384 . S
C1058 H1049 0.929 . S
C1058 C1050 1.378 . S
C1058 C1053 1.350 1_655 S
C1059 H1046 0.929 . S
C1059 C1051 1.433 . S
C1059 N1061 1.384 . S
N1060 C1056 1.427 1_655 S
N1060 C1057 1.384 . S
N1061 C1053 1.427 . S
N1061 C1059 1.384 . S
H1062 C1068 0.930 . S
H1063 C1072 0.930 . S
H1064 C1077 0.929 . S
H1065 C1075 0.929 . S
H1066 C1070 0.929 . S
H1067 C1076 0.929 . S
C1068 H1062 0.930 . S
C1068 C1069 1.367 . S
C1068 C1076 1.378 . S
C1069 C1068 1.367 . S
C1069 C1077 1.433 1_545 S
C1070 H1066 0.929 . S
C1070 C1072 1.378 . S
C1070 C1074 1.345 1_565 S
C1071 C1074 1.463 . S
C1071 C1076 1.350 . S
C1071 N1079 1.427 1_545 S
C1072 H1063 0.930 . S
C1072 C1070 1.378 . S
C1072 C1073 1.361 1_565 S
C1073 C1072 1.361 1_545 S
C1073 C1075 1.439 . S
C1074 C1070 1.345 1_545 S
C1074 C1071 1.463 . S
C1074 N1078 1.432 . S
C1075 H1065 0.929 . S
C1075 C1073 1.439 . S
C1075 N1078 1.384 . S
C1076 H1067 0.929 . S
C1076 C1068 1.378 . S
C1076 C1071 1.350 . S
C1077 H1064 0.929 . S
C1077 C1069 1.433 1_565 S
C1077 N1079 1.384 . S
N1078 C1074 1.432 . S
N1078 C1075 1.384 . S
N1079 C1071 1.427 1_565 S
N1079 C1077 1.384 . S
H1080 C1086 0.930 . S
H1081 C1090 0.930 . S
H1082 C1095 0.929 . S
H1083 C1093 0.929 . S
H1084 C1088 0.929 . S
H1085 C1094 0.929 . S
C1086 H1080 0.930 . S
C1086 C1087 1.367 . S
C1086 C1094 1.378 . S
C1087 C1086 1.367 . S
C1087 C1095 1.433 1_455 S
C1088 H1084 0.929 . S
C1088 C1090 1.378 . S
C1088 C1092 1.350 1_655 S
C1089 C1092 1.463 . S
C1089 C1094 1.350 . S
C1089 N1097 1.427 1_455 S
C1090 H1081 0.930 . S
C1090 C1088 1.378 . S
C1090 C1091 1.367 1_655 S
C1091 C1090 1.367 1_455 S
C1091 C1093 1.433 . S
C1092 C1088 1.350 1_455 S
C1092 C1089 1.463 . S
C1092 N1096 1.427 . S
C1093 H1083 0.929 . S
C1093 C1091 1.433 . S
C1093 N1096 1.384 . S
C1094 H1085 0.929 . S
C1094 C1086 1.378 . S
C1094 C1089 1.350 . S
C1095 H1082 0.929 . S
C1095 C1087 1.433 1_655 S
C1095 N1097 1.384 . S
N1096 C1092 1.427 . S
N1096 C1093 1.384 . S
N1097 C1089 1.427 1_655 S
N1097 C1095 1.384 . S
H1098 C1104 0.930 . S
H1099 C1108 0.930 . S
H1100 C1113 0.929 . S
H1101 C1111 0.929 . S
H1102 C1106 0.929 . S
H1103 C1112 0.929 . S
C1104 H1098 0.930 . S
C1104 C1105 1.367 . S
C1104 C1112 1.378 . S
C1105 C1104 1.367 . S
C1105 C1113 1.433 1_545 S
C1106 H1102 0.929 . S
C1106 C1108 1.378 . S
C1106 C1110 1.351 1_565 S
C1107 C1110 1.462 . S
C1107 C1112 1.350 . S
C1107 N1115 1.427 1_545 S
C1108 H1099 0.930 . S
C1108 C1106 1.378 . S
C1108 C1109 1.364 1_565 S
C1109 C1108 1.364 1_545 S
C1109 C1111 1.436 . S
C1110 C1106 1.351 1_545 S
C1110 C1107 1.462 . S
C1110 N1114 1.427 . S
C1111 H1101 0.929 . S
C1111 C1109 1.436 . S
C1111 N1114 1.384 . S
C1112 H1103 0.929 . S
C1112 C1104 1.378 . S
C1112 C1107 1.350 . S
C1113 H1100 0.929 . S
C1113 C1105 1.433 1_565 S
C1113 N1115 1.384 . S
N1114 C1110 1.427 . S
N1114 C1111 1.384 . S
N1115 C1107 1.427 1_565 S
N1115 C1113 1.384 . S
H1116 C1122 0.930 1_655 S
H1117 C1126 0.930 . S
H1118 C1131 0.929 . S
H1119 C1129 0.929 1_655 S
H1120 C1124 0.929 . S
H1121 C1130 0.929 1_655 S
C1122 H1116 0.930 1_455 S
C1122 C1123 1.367 . S
C1122 C1130 1.378 . S
C1123 C1122 1.367 . S
C1123 C1131 1.433 . S
C1124 H1120 0.929 . S
C1124 C1126 1.378 . S
C1124 C1128 1.350 . S
C1125 C1128 1.463 . S
C1125 C1130 1.350 . S
C1125 N1133 1.427 . S
C1126 H1117 0.930 . S
C1126 C1124 1.378 . S
C1126 C1127 1.367 . S
C1127 C1126 1.367 . S
C1127 C1129 1.433 . S
C1128 C1124 1.350 . S
C1128 C1125 1.463 . S
C1128 N1132 1.427 . S
C1129 H1119 0.929 1_455 S
C1129 C1127 1.433 . S
C1129 N1132 1.384 . S
C1130 H1121 0.929 1_455 S
C1130 C1122 1.378 . S
C1130 C1125 1.350 . S
C1131 H1118 0.929 . S
C1131 C1123 1.433 . S
C1131 N1133 1.384 . S
N1132 C1128 1.427 . S
N1132 C1129 1.384 . S
N1133 C1125 1.427 . S
N1133 C1131 1.384 . S
H1134 C1140 0.930 . S
H1135 C1144 0.930 . S
H1136 C1149 0.929 . S
H1137 C1147 0.929 . S
H1138 C1142 0.929 . S
H1139 C1148 0.929 . S
C1140 H1134 0.930 . S
C1140 C1141 1.376 . S
C1140 C1148 1.378 . S
C1141 C1140 1.376 . S
C1141 C1149 1.424 1_545 S
C1142 H1138 0.929 . S
C1142 C1144 1.378 . S
C1142 C1146 1.355 . S
C1143 C1146 1.462 1_545 S
C1143 C1148 1.368 . S
C1143 N1151 1.410 1_545 S
C1144 H1135 0.930 . S
C1144 C1142 1.378 . S
C1144 C1145 1.369 1_565 S
C1145 C1144 1.369 1_545 S
C1145 C1147 1.431 . S
C1146 C1142 1.355 . S
C1146 C1143 1.462 1_565 S
C1146 N1150 1.422 1_565 S
C1147 H1137 0.929 . S
C1147 C1145 1.431 . S
C1147 N1150 1.384 . S
C1148 H1139 0.929 . S
C1148 C1140 1.378 . S
C1148 C1143 1.368 . S
C1149 H1136 0.929 . S
C1149 C1141 1.424 1_565 S
C1149 N1151 1.384 . S
N1150 C1146 1.422 1_545 S
N1150 C1147 1.384 . S
N1151 C1143 1.410 1_565 S
N1151 C1149 1.384 . S
H1152 C1158 0.930 1_655 S
H1153 C1162 0.930 . S
H1154 C1167 0.929 . S
H1155 C1165 0.929 1_655 S
H1156 C1160 0.929 . S
H1157 C1166 0.929 1_655 S
C1158 H1152 0.930 1_455 S
C1158 C1159 1.367 . S
C1158 C1166 1.378 . S
C1159 C1158 1.367 . S
C1159 C1167 1.433 . S
C1160 H1156 0.929 . S
C1160 C1162 1.378 . S
C1160 C1164 1.350 . S
C1161 C1164 1.463 . S
C1161 C1166 1.350 . S
C1161 N1169 1.427 . S
C1162 H1153 0.930 . S
C1162 C1160 1.378 . S
C1162 C1163 1.367 . S
C1163 C1162 1.367 . S
C1163 C1165 1.433 . S
C1164 C1160 1.350 . S
C1164 C1161 1.463 . S
C1164 N1168 1.427 . S
C1165 H1155 0.929 1_455 S
C1165 C1163 1.433 . S
C1165 N1168 1.384 . S
C1166 H1157 0.929 1_455 S
C1166 C1158 1.378 . S
C1166 C1161 1.350 . S
C1167 H1154 0.929 . S
C1167 C1159 1.433 . S
C1167 N1169 1.384 . S
N1168 C1164 1.427 . S
N1168 C1165 1.384 . S
N1169 C1161 1.427 . S
N1169 C1167 1.384 . S
H1170 C1176 0.930 . S
H1171 C1180 0.930 . S
H1172 C1185 0.929 . S
H1173 C1183 0.929 . S
H1174 C1178 0.929 . S
H1175 C1184 0.929 . S
C1176 H1170 0.930 . S
C1176 C1177 1.376 . S
C1176 C1184 1.378 . S
C1177 C1176 1.376 . S
C1177 C1185 1.424 1_565 S
C1178 H1174 0.929 . S
C1178 C1180 1.378 . S
C1178 C1182 1.375 . S
C1179 C1182 1.461 1_565 S
C1179 C1184 1.361 . S
C1179 N1187 1.417 1_565 S
C1180 H1171 0.930 . S
C1180 C1178 1.378 . S
C1180 C1181 1.390 . S
C1181 C1180 1.390 . S
C1181 C1183 1.410 1_545 S
C1182 C1178 1.375 . S
C1182 C1179 1.461 1_545 S
C1182 N1186 1.402 1_545 S
C1183 H1173 0.929 . S
C1183 C1181 1.410 1_565 S
C1183 N1186 1.384 . S
C1184 H1175 0.929 . S
C1184 C1176 1.378 . S
C1184 C1179 1.361 . S
C1185 H1172 0.929 . S
C1185 C1177 1.424 1_545 S
C1185 N1187 1.384 . S
N1186 C1182 1.402 1_565 S
N1186 C1183 1.384 . S
N1187 C1179 1.417 1_545 S
N1187 C1185 1.384 . S
H1188 C1194 0.930 . S
H1189 C1198 0.930 . S
H1190 C1203 0.929 . S
H1191 C1201 0.929 . S
H1192 C1196 0.929 . S
H1193 C1202 0.929 . S
C1194 H1188 0.930 . S
C1194 C1195 1.367 1_655 S
C1194 C1202 1.378 . S
C1195 C1194 1.367 1_455 S
C1195 C1203 1.433 . S
C1196 H1192 0.929 . S
C1196 C1198 1.378 . S
C1196 C1200 1.350 . S
C1197 C1200 1.463 . S
C1197 C1202 1.350 1_455 S
C1197 N1205 1.427 . S
C1198 H1189 0.930 . S
C1198 C1196 1.378 . S
C1198 C1199 1.367 . S
C1199 C1198 1.367 . S
C1199 C1201 1.433 1_455 S
C1200 C1196 1.350 . S
C1200 C1197 1.463 . S
C1200 N1204 1.427 1_455 S
C1201 H1191 0.929 . S
C1201 C1199 1.433 1_655 S
C1201 N1204 1.384 . S
C1202 H1193 0.929 . S
C1202 C1194 1.378 . S
C1202 C1197 1.350 1_655 S
C1203 H1190 0.929 . S
C1203 C1195 1.433 . S
C1203 N1205 1.384 . S
N1204 C1200 1.427 1_655 S
N1204 C1201 1.384 . S
N1205 C1197 1.427 . S
N1205 C1203 1.384 . S
H1206 C1212 0.930 . S
H1207 C1216 0.930 . S
H1208 C1221 0.929 . S
H1209 C1219 0.929 . S
H1210 C1214 0.929 . S
H1211 C1220 0.929 . S
C1212 H1206 0.930 . S
C1212 C1213 1.380 . S
C1212 C1220 1.378 . S
C1213 C1212 1.380 . S
C1213 C1221 1.420 1_565 S
C1214 H1210 0.929 . S
C1214 C1216 1.378 . S
C1214 C1218 1.350 . S
C1215 C1218 1.461 1_565 S
C1215 C1220 1.367 . S
C1215 N1223 1.410 1_565 S
C1216 H1207 0.930 . S
C1216 C1214 1.378 . S
C1216 C1217 1.367 . S
C1217 C1216 1.367 . S
C1217 C1219 1.433 1_545 S
C1218 C1214 1.350 . S
C1218 C1215 1.461 1_545 S
C1218 N1222 1.427 1_545 S
C1219 H1209 0.929 . S
C1219 C1217 1.433 1_565 S
C1219 N1222 1.384 . S
C1220 H1211 0.929 . S
C1220 C1212 1.378 . S
C1220 C1215 1.367 . S
C1221 H1208 0.929 . S
C1221 C1213 1.420 1_545 S
C1221 N1223 1.384 . S
N1222 C1218 1.427 1_565 S
N1222 C1219 1.384 . S
N1223 C1215 1.410 1_545 S
N1223 C1221 1.384 . S
H1224 C1230 0.930 . S
H1225 C1234 0.930 . S
H1226 C1239 0.929 . S
H1227 C1237 0.929 . S
H1228 C1232 0.929 . S
H1229 C1238 0.929 . S
C1230 H1224 0.930 . S
C1230 C1231 1.367 . S
C1230 C1238 1.378 . S
C1231 C1230 1.367 . S
C1231 C1239 1.433 . S
C1232 H1228 0.929 . S
C1232 C1234 1.378 . S
C1232 C1236 1.350 . S
C1233 C1236 1.463 . S
C1233 C1238 1.350 . S
C1233 N1241 1.427 . S
C1234 H1225 0.930 . S
C1234 C1232 1.378 . S
C1234 C1235 1.367 . S
C1235 C1234 1.367 . S
C1235 C1237 1.433 . S
C1236 C1232 1.350 . S
C1236 C1233 1.463 . S
C1236 N1240 1.427 . S
C1237 H1227 0.929 . S
C1237 C1235 1.433 . S
C1237 N1240 1.384 . S
C1238 H1229 0.929 . S
C1238 C1230 1.378 . S
C1238 C1233 1.350 . S
C1239 H1226 0.929 . S
C1239 C1231 1.433 . S
C1239 N1241 1.384 . S
N1240 C1236 1.427 . S
N1240 C1237 1.384 . S
N1241 C1233 1.427 . S
N1241 C1239 1.384 . S
H1242 C1248 0.930 . S
H1243 C1252 0.930 . S
H1244 C1257 0.929 . S
H1245 C1255 0.929 . S
H1246 C1250 0.929 . S
H1247 C1256 0.929 . S
C1248 H1242 0.930 . S
C1248 C1249 1.379 . S
C1248 C1256 1.378 . S
C1249 C1248 1.379 . S
C1249 C1257 1.421 1_565 S
C1250 H1246 0.929 . S
C1250 C1252 1.378 . S
C1250 C1254 1.350 . S
C1251 C1254 1.462 1_565 S
C1251 C1256 1.366 . S
C1251 N1259 1.411 1_565 S
C1252 H1243 0.930 . S
C1252 C1250 1.378 . S
C1252 C1253 1.367 . S
C1253 C1252 1.367 . S
C1253 C1255 1.433 1_545 S
C1254 C1250 1.350 . S
C1254 C1251 1.462 1_545 S
C1254 N1258 1.427 1_545 S
C1255 H1245 0.929 . S
C1255 C1253 1.433 1_565 S
C1255 N1258 1.384 . S
C1256 H1247 0.929 . S
C1256 C1248 1.378 . S
C1256 C1251 1.366 . S
C1257 H1244 0.929 . S
C1257 C1249 1.421 1_545 S
C1257 N1259 1.384 . S
N1258 C1254 1.427 1_565 S
N1258 C1255 1.384 . S
N1259 C1251 1.411 1_545 S
N1259 C1257 1.384 . S
H1260 C1266 0.930 . S
H1261 C1270 0.942 . S
H1262 C1275 0.929 . S
H1263 C1273 0.929 . S
H1264 C1268 0.929 . S
H1265 C1274 0.929 . S
C1266 H1260 0.930 . S
C1266 C1267 1.367 . S
C1266 C1274 1.378 . S
C1267 C1266 1.367 . S
C1267 C1275 1.433 1_455 S
C1268 H1264 0.929 . S
C1268 C1270 1.378 . S
C1268 C1272 1.350 1_655 S
C1269 C1272 1.463 . S
C1269 C1274 1.350 . S
C1269 N1277 1.427 1_455 S
C1270 H1261 0.942 . S
C1270 C1268 1.378 . S
C1270 C1271 1.355 1_655 S
C1271 C1270 1.355 1_455 S
C1271 C1273 1.433 . S
C1272 C1268 1.350 1_455 S
C1272 C1269 1.463 . S
C1272 N1276 1.427 . S
C1273 H1263 0.929 . S
C1273 C1271 1.433 . S
C1273 N1276 1.384 . S
C1274 H1265 0.929 . S
C1274 C1266 1.378 . S
C1274 C1269 1.350 . S
C1275 H1262 0.929 . S
C1275 C1267 1.433 1_655 S
C1275 N1277 1.384 . S
N1276 C1272 1.427 . S
N1276 C1273 1.384 . S
N1277 C1269 1.427 1_655 S
N1277 C1275 1.384 . S
H1278 C1284 0.930 . S
H1279 C1288 0.930 . S
H1280 C1293 0.929 . S
H1281 C1291 0.929 . S
H1282 C1286 0.929 . S
H1283 C1292 0.929 . S
C1284 H1278 0.930 . S
C1284 C1285 1.352 1_565 S
C1284 C1292 1.378 . S
C1285 C1284 1.352 1_545 S
C1285 C1293 1.448 . S
C1286 H1282 0.929 . S
C1286 C1288 1.378 . S
C1286 C1290 1.350 . S
C1287 C1290 1.462 . S
C1287 C1292 1.351 1_545 S
C1287 N1295 1.426 . S
C1288 H1279 0.930 . S
C1288 C1286 1.378 . S
C1288 C1289 1.367 . S
C1289 C1288 1.367 . S
C1289 C1291 1.433 1_545 S
C1290 C1286 1.350 . S
C1290 C1287 1.462 . S
C1290 N1294 1.427 1_545 S
C1291 H1281 0.929 . S
C1291 C1289 1.433 1_565 S
C1291 N1294 1.384 . S
C1292 H1283 0.929 . S
C1292 C1284 1.378 . S
C1292 C1287 1.351 1_565 S
C1293 H1280 0.929 . S
C1293 C1285 1.448 . S
C1293 N1295 1.384 . S
N1294 C1290 1.427 1_565 S
N1294 C1291 1.384 . S
N1295 C1287 1.426 . S
N1295 C1293 1.384 . S
H1296 C1302 0.930 . S
H1297 C1306 0.930 . S
H1298 C1311 0.929 . S
H1299 C1309 0.929 . S
H1300 C1304 0.929 . S
H1301 C1310 0.929 . S
C1302 H1296 0.930 . S
C1302 C1303 1.367 1_655 S
C1302 C1310 1.378 . S
C1303 C1302 1.367 1_455 S
C1303 C1311 1.433 . S
C1304 H1300 0.929 . S
C1304 C1306 1.378 . S
C1304 C1308 1.350 . S
C1305 C1308 1.463 . S
C1305 C1310 1.350 1_455 S
C1305 N1313 1.427 . S
C1306 H1297 0.930 . S
C1306 C1304 1.378 . S
C1306 C1307 1.367 . S
C1307 C1306 1.367 . S
C1307 C1309 1.433 1_455 S
C1308 C1304 1.350 . S
C1308 C1305 1.463 . S
C1308 N1312 1.427 1_455 S
C1309 H1299 0.929 . S
C1309 C1307 1.433 1_655 S
C1309 N1312 1.384 . S
C1310 H1301 0.929 . S
C1310 C1302 1.378 . S
C1310 C1305 1.350 1_655 S
C1311 H1298 0.929 . S
C1311 C1303 1.433 . S
C1311 N1313 1.384 . S
N1312 C1308 1.427 1_655 S
N1312 C1309 1.384 . S
N1313 C1305 1.427 . S
N1313 C1311 1.384 . S
H1314 C1320 0.930 . S
H1315 C1324 0.930 . S
H1316 C1329 0.929 . S
H1317 C1327 0.929 . S
H1318 C1322 0.929 . S
H1319 C1328 0.929 . S
C1320 H1314 0.930 . S
C1320 C1321 1.355 1_565 S
C1320 C1328 1.378 . S
C1321 C1320 1.355 1_545 S
C1321 C1329 1.445 . S
C1322 H1318 0.929 . S
C1322 C1324 1.378 . S
C1322 C1326 1.350 . S
C1323 C1326 1.463 . S
C1323 C1328 1.348 1_545 S
C1323 N1331 1.430 . S
C1324 H1315 0.930 . S
C1324 C1322 1.378 . S
C1324 C1325 1.367 . S
C1325 C1324 1.367 . S
C1325 C1327 1.433 1_545 S
C1326 C1322 1.350 . S
C1326 C1323 1.463 . S
C1326 N1330 1.427 1_545 S
C1327 H1317 0.929 . S
C1327 C1325 1.433 1_565 S
C1327 N1330 1.384 . S
C1328 H1319 0.929 . S
C1328 C1320 1.378 . S
C1328 C1323 1.348 1_565 S
C1329 H1316 0.929 . S
C1329 C1321 1.445 . S
C1329 N1331 1.384 . S
N1330 C1326 1.427 1_565 S
N1330 C1327 1.384 . S
N1331 C1323 1.430 . S
N1331 C1329 1.384 . S
H1332 C1338 0.930 . S
H1333 C1342 0.930 . S
H1334 C1347 0.929 . S
H1335 C1345 0.929 . S
H1336 C1340 0.929 . S
H1337 C1346 0.929 . S
C1338 H1332 0.930 . S
C1338 C1339 1.377 . S
C1338 C1346 1.378 . S
C1339 C1338 1.377 . S
C1339 C1347 1.423 1_565 S
C1340 H1336 0.929 . S
C1340 C1342 1.378 . S
C1340 C1344 1.376 . S
C1341 C1344 1.461 1_565 S
C1341 C1346 1.362 . S
C1341 N1349 1.415 1_565 S
C1342 H1333 0.930 . S
C1342 C1340 1.378 . S
C1342 C1343 1.390 . S
C1343 C1342 1.390 . S
C1343 C1345 1.410 1_545 S
C1344 C1340 1.376 . S
C1344 C1341 1.461 1_545 S
C1344 N1348 1.402 1_545 S
C1345 H1335 0.929 . S
C1345 C1343 1.410 1_565 S
C1345 N1348 1.384 . S
C1346 H1337 0.929 . S
C1346 C1338 1.378 . S
C1346 C1341 1.362 . S
C1347 H1334 0.929 . S
C1347 C1339 1.423 1_545 S
C1347 N1349 1.384 . S
N1348 C1344 1.402 1_565 S
N1348 C1345 1.384 . S
N1349 C1341 1.415 1_545 S
N1349 C1347 1.384 . S
H1350 C1356 0.930 . S
H1351 C1360 0.930 1_655 S
H1352 C1365 0.938 . S
H1353 C1363 0.929 . S
H1354 C1358 0.922 1_655 S
H1355 C1364 0.929 . S
C1356 H1350 0.930 . S
C1356 C1357 1.367 . S
C1356 C1364 1.378 . S
C1357 C1356 1.367 . S
C1357 C1365 1.433 . S
C1358 H1354 0.922 1_455 S
C1358 C1360 1.378 . S
C1358 C1362 1.350 . S
C1359 C1362 1.463 . S
C1359 C1364 1.350 . S
C1359 N1367 1.427 . S
C1360 H1351 0.930 1_455 S
C1360 C1358 1.378 . S
C1360 C1361 1.367 . S
C1361 C1360 1.367 . S
C1361 C1363 1.433 . S
C1362 C1358 1.350 . S
C1362 C1359 1.463 . S
C1362 N1366 1.427 . S
C1363 H1353 0.929 . S
C1363 C1361 1.433 . S
C1363 N1366 1.384 . S
C1364 H1355 0.929 . S
C1364 C1356 1.378 . S
C1364 C1359 1.350 . S
C1365 H1352 0.938 . S
C1365 C1357 1.433 . S
C1365 N1367 1.384 . S
N1366 C1362 1.427 . S
N1366 C1363 1.384 . S
N1367 C1359 1.427 . S
N1367 C1365 1.384 . S
H1368 C1374 0.930 . S
H1369 C1378 0.930 . S
H1370 C1383 0.929 . S
H1371 C1381 0.929 . S
H1372 C1376 0.929 . S
H1373 C1382 0.929 . S
C1374 H1368 0.930 . S
C1374 C1375 1.378 . S
C1374 C1382 1.378 . S
C1375 C1374 1.378 . S
C1375 C1383 1.422 1_545 S
C1376 H1372 0.929 . S
C1376 C1378 1.378 . S
C1376 C1380 1.359 . S
C1377 C1380 1.461 1_545 S
C1377 C1382 1.371 . S
C1377 N1385 1.406 1_545 S
C1378 H1369 0.930 . S
C1378 C1376 1.378 . S
C1378 C1379 1.366 . S
C1379 C1378 1.366 . S
C1379 C1381 1.435 1_565 S
C1380 C1376 1.359 . S
C1380 C1377 1.461 1_565 S
C1380 N1384 1.418 1_565 S
C1381 H1371 0.929 . S
C1381 C1379 1.435 1_545 S
C1381 N1384 1.384 . S
C1382 H1373 0.929 . S
C1382 C1374 1.378 . S
C1382 C1377 1.371 . S
C1383 H1370 0.929 . S
C1383 C1375 1.422 1_565 S
C1383 N1385 1.384 . S
N1384 C1380 1.418 1_545 S
N1384 C1381 1.384 . S
N1385 C1377 1.406 1_565 S
N1385 C1383 1.384 . S
H1386 C1392 0.930 . S
H1387 C1396 0.930 . S
H1388 C1401 0.929 . S
H1389 C1399 0.929 . S
H1390 C1394 0.929 . S
H1391 C1400 0.929 . S
C1392 H1386 0.930 . S
C1392 C1393 1.367 . S
C1392 C1400 1.378 . S
C1393 C1392 1.367 . S
C1393 C1401 1.433 1_455 S
C1394 H1390 0.929 . S
C1394 C1396 1.378 . S
C1394 C1398 1.350 1_655 S
C1395 C1398 1.463 . S
C1395 C1400 1.350 . S
C1395 N1403 1.427 1_455 S
C1396 H1387 0.930 . S
C1396 C1394 1.378 . S
C1396 C1397 1.367 1_655 S
C1397 C1396 1.367 1_455 S
C1397 C1399 1.433 . S
C1398 C1394 1.350 1_455 S
C1398 C1395 1.463 . S
C1398 N1402 1.427 . S
C1399 H1389 0.929 . S
C1399 C1397 1.433 . S
C1399 N1402 1.384 . S
C1400 H1391 0.929 . S
C1400 C1392 1.378 . S
C1400 C1395 1.350 . S
C1401 H1388 0.929 . S
C1401 C1393 1.433 1_655 S
C1401 N1403 1.384 . S
N1402 C1398 1.427 . S
N1402 C1399 1.384 . S
N1403 C1395 1.427 1_655 S
N1403 C1401 1.384 . S
H1404 C1410 0.930 . S
H1405 C1414 0.930 . S
H1406 C1419 0.929 . S
H1407 C1417 0.929 . S
H1408 C1412 0.929 . S
H1409 C1418 0.929 . S
C1410 H1404 0.930 . S
C1410 C1411 1.367 . S
C1410 C1418 1.378 . S
C1411 C1410 1.367 . S
C1411 C1419 1.433 1_545 S
C1412 H1408 0.929 . S
C1412 C1414 1.378 . S
C1412 C1416 1.347 1_565 S
C1413 C1416 1.463 . S
C1413 C1418 1.350 . S
C1413 N1421 1.427 1_545 S
C1414 H1405 0.930 . S
C1414 C1412 1.378 . S
C1414 C1415 1.363 1_565 S
C1415 C1414 1.363 1_545 S
C1415 C1417 1.438 . S
C1416 C1412 1.347 1_545 S
C1416 C1413 1.463 . S
C1416 N1420 1.430 . S
C1417 H1407 0.929 . S
C1417 C1415 1.438 . S
C1417 N1420 1.384 . S
C1418 H1409 0.929 . S
C1418 C1410 1.378 . S
C1418 C1413 1.350 . S
C1419 H1406 0.929 . S
C1419 C1411 1.433 1_565 S
C1419 N1421 1.384 . S
N1420 C1416 1.430 . S
N1420 C1417 1.384 . S
N1421 C1413 1.427 1_565 S
N1421 C1419 1.384 . S
H1422 C1428 0.930 . S
H1423 C1432 0.930 . S
H1424 C1437 0.929 . S
H1425 C1435 0.929 . S
H1426 C1430 0.929 . S
H1427 C1436 0.929 . S
C1428 H1422 0.930 . S
C1428 C1429 1.367 1_655 S
C1428 C1436 1.378 . S
C1429 C1428 1.367 1_455 S
C1429 C1437 1.433 . S
C1430 H1426 0.929 . S
C1430 C1432 1.378 . S
C1430 C1434 1.350 . S
C1431 C1434 1.463 . S
C1431 C1436 1.350 1_455 S
C1431 N1439 1.427 . S
C1432 H1423 0.930 . S
C1432 C1430 1.378 . S
C1432 C1433 1.367 . S
C1433 C1432 1.367 . S
C1433 C1435 1.433 1_455 S
C1434 C1430 1.350 . S
C1434 C1431 1.463 . S
C1434 N1438 1.427 1_455 S
C1435 H1425 0.929 . S
C1435 C1433 1.433 1_655 S
C1435 N1438 1.384 . S
C1436 H1427 0.929 . S
C1436 C1428 1.378 . S
C1436 C1431 1.350 1_655 S
C1437 H1424 0.929 . S
C1437 C1429 1.433 . S
C1437 N1439 1.384 . S
N1438 C1434 1.427 1_655 S
N1438 C1435 1.384 . S
N1439 C1431 1.427 . S
N1439 C1437 1.384 . S
H1440 C1446 0.930 . S
H1441 C1450 0.930 . S
H1442 C1455 0.929 . S
H1443 C1453 0.929 . S
H1444 C1448 0.929 . S
H1445 C1454 0.929 . S
C1446 H1440 0.930 . S
C1446 C1447 1.367 . S
C1446 C1454 1.378 . S
C1447 C1446 1.367 . S
C1447 C1455 1.433 1_545 S
C1448 H1444 0.929 . S
C1448 C1450 1.378 . S
C1448 C1452 1.352 1_565 S
C1449 C1452 1.462 . S
C1449 C1454 1.350 . S
C1449 N1457 1.427 1_545 S
C1450 H1441 0.930 . S
C1450 C1448 1.378 . S
C1450 C1451 1.365 1_565 S
C1451 C1450 1.365 1_545 S
C1451 C1453 1.435 . S
C1452 C1448 1.352 1_545 S
C1452 C1449 1.462 . S
C1452 N1456 1.425 . S
C1453 H1443 0.929 . S
C1453 C1451 1.435 . S
C1453 N1456 1.384 . S
C1454 H1445 0.929 . S
C1454 C1446 1.378 . S
C1454 C1449 1.350 . S
C1455 H1442 0.929 . S
C1455 C1447 1.433 1_565 S
C1455 N1457 1.384 . S
N1456 C1452 1.425 . S
N1456 C1453 1.384 . S
N1457 C1449 1.427 1_565 S
N1457 C1455 1.384 . S
H1458 C1464 0.930 . S
H1459 C1468 0.930 . S
H1460 C1473 0.929 . S
H1461 C1471 0.929 . S
H1462 C1466 0.929 . S
H1463 C1472 0.929 . S
C1464 H1458 0.930 . S
C1464 C1465 1.367 . S
C1464 C1472 1.378 . S
C1465 C1464 1.367 . S
C1465 C1473 1.433 1_455 S
C1466 H1462 0.929 . S
C1466 C1468 1.378 . S
C1466 C1470 1.350 1_655 S
C1467 C1470 1.463 . S
C1467 C1472 1.350 . S
C1467 N1475 1.427 1_455 S
C1468 H1459 0.930 . S
C1468 C1466 1.378 . S
C1468 C1469 1.367 1_655 S
C1469 C1468 1.367 1_455 S
C1469 C1471 1.433 . S
C1470 C1466 1.350 1_455 S
C1470 C1467 1.463 . S
C1470 N1474 1.427 . S
C1471 H1461 0.929 . S
C1471 C1469 1.433 . S
C1471 N1474 1.384 . S
C1472 H1463 0.929 . S
C1472 C1464 1.378 . S
C1472 C1467 1.350 . S
C1473 H1460 0.929 . S
C1473 C1465 1.433 1_655 S
C1473 N1475 1.384 . S
N1474 C1470 1.427 . S
N1474 C1471 1.384 . S
N1475 C1467 1.427 1_655 S
N1475 C1473 1.384 . S
H1476 C1482 0.930 . S
H1477 C1486 0.930 . S
H1478 C1491 0.929 . S
H1479 C1489 0.929 . S
H1480 C1484 0.929 . S
H1481 C1490 0.929 . S
C1482 H1476 0.930 . S
C1482 C1483 1.367 . S
C1482 C1490 1.378 . S
C1483 C1482 1.367 . S
C1483 C1491 1.433 1_554 S
C1484 H1480 0.929 . S
C1484 C1486 1.378 . S
C1484 C1488 1.350 1_556 S
C1485 C1488 1.463 . S
C1485 C1490 1.350 . S
C1485 N1493 1.427 1_554 S
C1486 H1477 0.930 . S
C1486 C1484 1.378 . S
C1486 C1487 1.367 1_556 S
C1487 C1486 1.367 1_554 S
C1487 C1489 1.433 . S
C1488 C1484 1.350 1_554 S
C1488 C1485 1.463 . S
C1488 N1492 1.427 . S
C1489 H1479 0.929 . S
C1489 C1487 1.433 . S
C1489 N1492 1.384 . S
C1490 H1481 0.929 . S
C1490 C1482 1.378 . S
C1490 C1485 1.350 . S
C1491 H1478 0.929 . S
C1491 C1483 1.433 1_556 S
C1491 N1493 1.384 . S
N1492 C1488 1.427 . S
N1492 C1489 1.384 . S
N1493 C1485 1.427 1_556 S
N1493 C1491 1.384 . S
H1494 C1500 0.930 . S
H1495 C1504 0.930 . S
H1496 C1509 0.929 . S
H1497 C1507 0.929 . S
H1498 C1502 0.929 . S
H1499 C1508 0.929 . S
C1500 H1494 0.930 . S
C1500 C1501 1.367 1_556 S
C1500 C1508 1.378 . S
C1501 C1500 1.367 1_554 S
C1501 C1509 1.433 . S
C1502 H1498 0.929 . S
C1502 C1504 1.378 . S
C1502 C1506 1.350 . S
C1503 C1506 1.463 . S
C1503 C1508 1.350 1_554 S
C1503 N1511 1.427 . S
C1504 H1495 0.930 . S
C1504 C1502 1.378 . S
C1504 C1505 1.367 . S
C1505 C1504 1.367 . S
C1505 C1507 1.433 1_554 S
C1506 C1502 1.350 . S
C1506 C1503 1.463 . S
C1506 N1510 1.427 1_554 S
C1507 H1497 0.929 . S
C1507 C1505 1.433 1_556 S
C1507 N1510 1.384 . S
C1508 H1499 0.929 . S
C1508 C1500 1.378 . S
C1508 C1503 1.350 1_556 S
C1509 H1496 0.929 . S
C1509 C1501 1.433 . S
C1509 N1511 1.384 . S
N1510 C1506 1.427 1_556 S
N1510 C1507 1.384 . S
N1511 C1503 1.427 . S
N1511 C1509 1.384 . S
H1512 C1518 0.930 . S
H1513 C1522 0.930 . S
H1514 C1527 0.929 . S
H1515 C1525 0.929 . S
H1516 C1520 0.929 . S
H1517 C1526 0.929 . S
C1518 H1512 0.930 . S
C1518 C1519 1.367 . S
C1518 C1526 1.378 . S
C1519 C1518 1.367 . S
C1519 C1527 1.433 1_554 S
C1520 H1516 0.929 . S
C1520 C1522 1.378 . S
C1520 C1524 1.350 1_556 S
C1521 C1524 1.463 . S
C1521 C1526 1.350 . S
C1521 N1529 1.427 1_554 S
C1522 H1513 0.930 . S
C1522 C1520 1.378 . S
C1522 C1523 1.367 1_556 S
C1523 C1522 1.367 1_554 S
C1523 C1525 1.433 . S
C1524 C1520 1.350 1_554 S
C1524 C1521 1.463 . S
C1524 N1528 1.427 . S
C1525 H1515 0.929 . S
C1525 C1523 1.433 . S
C1525 N1528 1.384 . S
C1526 H1517 0.929 . S
C1526 C1518 1.378 . S
C1526 C1521 1.350 . S
C1527 H1514 0.929 . S
C1527 C1519 1.433 1_556 S
C1527 N1529 1.384 . S
N1528 C1524 1.427 . S
N1528 C1525 1.384 . S
N1529 C1521 1.427 1_556 S
N1529 C1527 1.384 . S
H1530 C1536 0.932 . S
H1531 C1540 0.930 . S
H1532 C1545 0.929 . S
H1533 C1543 0.932 . S
H1534 C1538 0.929 . S
H1535 C1544 0.923 1_556 S
C1536 H1530 0.932 . S
C1536 C1537 1.367 . S
C1536 C1544 1.378 . S
C1537 C1536 1.367 . S
C1537 C1545 1.433 . S
C1538 H1534 0.929 . S
C1538 C1540 1.378 . S
C1538 C1542 1.350 . S
C1539 C1542 1.463 . S
C1539 C1544 1.350 . S
C1539 N1547 1.427 . S
C1540 H1531 0.930 . S
C1540 C1538 1.378 . S
C1540 C1541 1.367 . S
C1541 C1540 1.367 . S
C1541 C1543 1.431 1_554 S
C1542 C1538 1.350 . S
C1542 C1539 1.463 . S
C1542 N1546 1.429 . S
C1543 H1533 0.932 . S
C1543 C1541 1.431 1_556 S
C1543 N1546 1.383 1_556 S
C1544 H1535 0.923 1_554 S
C1544 C1536 1.378 . S
C1544 C1539 1.350 . S
C1545 H1532 0.929 . S
C1545 C1537 1.433 . S
C1545 N1547 1.384 . S
N1546 C1542 1.429 . S
N1546 C1543 1.383 1_554 S
N1547 C1539 1.427 . S
N1547 C1545 1.384 . S
H1548 C1554 0.930 . S
H1549 C1558 0.930 . S
H1550 C1563 0.929 . S
H1551 C1561 0.929 . S
H1552 C1556 0.929 . S
H1553 C1562 0.929 . S
C1554 H1548 0.930 . S
C1554 C1555 1.367 1_556 S
C1554 C1562 1.378 . S
C1555 C1554 1.367 1_554 S
C1555 C1563 1.433 . S
C1556 H1552 0.929 . S
C1556 C1558 1.378 . S
C1556 C1560 1.350 . S
C1557 C1560 1.463 . S
C1557 C1562 1.350 1_554 S
C1557 N1565 1.427 . S
C1558 H1549 0.930 . S
C1558 C1556 1.378 . S
C1558 C1559 1.367 . S
C1559 C1558 1.367 . S
C1559 C1561 1.433 1_554 S
C1560 C1556 1.350 . S
C1560 C1557 1.463 . S
C1560 N1564 1.427 1_554 S
C1561 H1551 0.929 . S
C1561 C1559 1.433 1_556 S
C1561 N1564 1.384 . S
C1562 H1553 0.929 . S
C1562 C1554 1.378 . S
C1562 C1557 1.350 1_556 S
C1563 H1550 0.929 . S
C1563 C1555 1.433 . S
C1563 N1565 1.384 . S
N1564 C1560 1.427 1_556 S
N1564 C1561 1.384 . S
N1565 C1557 1.427 . S
N1565 C1563 1.384 . S
H1566 C1572 0.930 . S
H1567 C1576 0.930 . S
H1568 C1581 0.929 . S
H1569 C1579 0.929 . S
H1570 C1574 0.929 . S
H1571 C1580 0.929 . S
C1572 H1566 0.930 . S
C1572 C1573 1.367 1_556 S
C1572 C1580 1.378 . S
C1573 C1572 1.367 1_554 S
C1573 C1581 1.433 . S
C1574 H1570 0.929 . S
C1574 C1576 1.378 . S
C1574 C1578 1.350 . S
C1575 C1578 1.463 . S
C1575 C1580 1.350 1_554 S
C1575 N1583 1.427 . S
C1576 H1567 0.930 . S
C1576 C1574 1.378 . S
C1576 C1577 1.367 . S
C1577 C1576 1.367 . S
C1577 C1579 1.433 1_554 S
C1578 C1574 1.350 . S
C1578 C1575 1.463 . S
C1578 N1582 1.427 1_554 S
C1579 H1569 0.929 . S
C1579 C1577 1.433 1_556 S
C1579 N1582 1.384 . S
C1580 H1571 0.929 . S
C1580 C1572 1.378 . S
C1580 C1575 1.350 1_556 S
C1581 H1568 0.929 . S
C1581 C1573 1.433 . S
C1581 N1583 1.384 . S
N1582 C1578 1.427 1_556 S
N1582 C1579 1.384 . S
N1583 C1575 1.427 . S
N1583 C1581 1.384 . S
H1584 C1590 0.930 . S
H1585 C1594 0.930 . S
H1586 C1599 0.929 . S
H1587 C1597 0.929 . S
H1588 C1592 0.929 . S
H1589 C1598 0.929 . S
C1590 H1584 0.930 . S
C1590 C1591 1.367 1_556 S
C1590 C1598 1.378 . S
C1591 C1590 1.367 1_554 S
C1591 C1599 1.433 . S
C1592 H1588 0.929 . S
C1592 C1594 1.378 . S
C1592 C1596 1.350 . S
C1593 C1596 1.463 . S
C1593 C1598 1.350 1_554 S
C1593 N1601 1.427 . S
C1594 H1585 0.930 . S
C1594 C1592 1.378 . S
C1594 C1595 1.367 . S
C1595 C1594 1.367 . S
C1595 C1597 1.433 1_554 S
C1596 C1592 1.350 . S
C1596 C1593 1.463 . S
C1596 N1600 1.427 1_554 S
C1597 H1587 0.929 . S
C1597 C1595 1.433 1_556 S
C1597 N1600 1.384 . S
C1598 H1589 0.929 . S
C1598 C1590 1.378 . S
C1598 C1593 1.350 1_556 S
C1599 H1586 0.929 . S
C1599 C1591 1.433 . S
C1599 N1601 1.384 . S
N1600 C1596 1.427 1_556 S
N1600 C1597 1.384 . S
N1601 C1593 1.427 . S
N1601 C1599 1.384 . S
H1602 C1608 0.930 . S
H1603 C1612 0.930 . S
H1604 C1617 0.929 . S
H1605 C1615 0.929 . S
H1606 C1610 0.929 . S
H1607 C1616 0.929 . S
C1608 H1602 0.930 . S
C1608 C1609 1.367 . S
C1608 C1616 1.378 . S
C1609 C1608 1.367 . S
C1609 C1617 1.433 1_554 S
C1610 H1606 0.929 . S
C1610 C1612 1.378 . S
C1610 C1614 1.350 1_556 S
C1611 C1614 1.463 . S
C1611 C1616 1.350 . S
C1611 N1619 1.427 1_554 S
C1612 H1603 0.930 . S
C1612 C1610 1.378 . S
C1612 C1613 1.367 1_556 S
C1613 C1612 1.367 1_554 S
C1613 C1615 1.433 . S
C1614 C1610 1.350 1_554 S
C1614 C1611 1.463 . S
C1614 N1618 1.427 . S
C1615 H1605 0.929 . S
C1615 C1613 1.433 . S
C1615 N1618 1.384 . S
C1616 H1607 0.929 . S
C1616 C1608 1.378 . S
C1616 C1611 1.350 . S
C1617 H1604 0.929 . S
C1617 C1609 1.433 1_556 S
C1617 N1619 1.384 . S
N1618 C1614 1.427 . S
N1618 C1615 1.384 . S
N1619 C1611 1.427 1_556 S
N1619 C1617 1.384 . S
H1620 C1626 0.930 . S
H1621 C1630 0.930 . S
H1622 C1635 0.929 . S
H1623 C1633 0.929 . S
H1624 C1628 0.929 . S
H1625 C1634 0.929 . S
C1626 H1620 0.930 . S
C1626 C1627 1.367 . S
C1626 C1634 1.378 . S
C1627 C1626 1.367 . S
C1627 C1635 1.433 . S
C1628 H1624 0.929 . S
C1628 C1630 1.378 . S
C1628 C1632 1.350 . S
C1629 C1632 1.463 . S
C1629 C1634 1.350 . S
C1629 N1637 1.427 . S
C1630 H1621 0.930 . S
C1630 C1628 1.378 . S
C1630 C1631 1.367 . S
C1631 C1630 1.367 . S
C1631 C1633 1.433 . S
C1632 C1628 1.350 . S
C1632 C1629 1.463 . S
C1632 N1636 1.427 . S
C1633 H1623 0.929 . S
C1633 C1631 1.433 . S
C1633 N1636 1.384 . S
C1634 H1625 0.929 . S
C1634 C1626 1.378 . S
C1634 C1629 1.350 . S
C1635 H1622 0.929 . S
C1635 C1627 1.433 . S
C1635 N1637 1.384 . S
N1636 C1632 1.427 . S
N1636 C1633 1.384 . S
N1637 C1629 1.427 . S
N1637 C1635 1.384 . S
H1638 C1644 0.930 . S
H1639 C1648 0.930 . S
H1640 C1653 0.929 . S
H1641 C1651 0.929 . S
H1642 C1646 0.929 . S
H1643 C1652 0.929 . S
C1644 H1638 0.930 . S
C1644 C1645 1.367 . S
C1644 C1652 1.378 . S
C1645 C1644 1.367 . S
C1645 C1653 1.433 . S
C1646 H1642 0.929 . S
C1646 C1648 1.378 . S
C1646 C1650 1.350 . S
C1647 C1650 1.463 . S
C1647 C1652 1.350 . S
C1647 N1655 1.427 . S
C1648 H1639 0.930 . S
C1648 C1646 1.378 . S
C1648 C1649 1.367 . S
C1649 C1648 1.367 . S
C1649 C1651 1.433 . S
C1650 C1646 1.350 . S
C1650 C1647 1.463 . S
C1650 N1654 1.427 . S
C1651 H1641 0.929 . S
C1651 C1649 1.433 . S
C1651 N1654 1.384 . S
C1652 H1643 0.929 . S
C1652 C1644 1.378 . S
C1652 C1647 1.350 . S
C1653 H1640 0.929 . S
C1653 C1645 1.433 . S
C1653 N1655 1.384 . S
N1654 C1650 1.427 . S
N1654 C1651 1.384 . S
N1655 C1647 1.427 . S
N1655 C1653 1.384 . S
H1656 C1662 0.930 . S
H1657 C1666 0.930 . S
H1658 C1671 0.929 . S
H1659 C1669 0.929 . S
H1660 C1664 0.929 . S
H1661 C1670 0.929 . S
C1662 H1656 0.930 . S
C1662 C1663 1.367 . S
C1662 C1670 1.378 . S
C1663 C1662 1.367 . S
C1663 C1671 1.433 . S
C1664 H1660 0.929 . S
C1664 C1666 1.378 . S
C1664 C1668 1.350 . S
C1665 C1668 1.463 . S
C1665 C1670 1.350 . S
C1665 N1673 1.427 . S
C1666 H1657 0.930 . S
C1666 C1664 1.378 . S
C1666 C1667 1.367 . S
C1667 C1666 1.367 . S
C1667 C1669 1.433 . S
C1668 C1664 1.350 . S
C1668 C1665 1.463 . S
C1668 N1672 1.427 . S
C1669 H1659 0.929 . S
C1669 C1667 1.433 . S
C1669 N1672 1.384 . S
C1670 H1661 0.929 . S
C1670 C1662 1.378 . S
C1670 C1665 1.350 . S
C1671 H1658 0.929 . S
C1671 C1663 1.433 . S
C1671 N1673 1.384 . S
N1672 C1668 1.427 . S
N1672 C1669 1.384 . S
N1673 C1665 1.427 . S
N1673 C1671 1.384 . S
H1674 C1680 0.930 . S
H1675 C1684 0.930 . S
H1676 C1689 0.929 . S
H1677 C1687 0.929 . S
H1678 C1682 0.929 . S
H1679 C1688 0.929 . S
C1680 H1674 0.930 . S
C1680 C1681 1.367 . S
C1680 C1688 1.378 . S
C1681 C1680 1.367 . S
C1681 C1689 1.433 . S
C1682 H1678 0.929 . S
C1682 C1684 1.378 . S
C1682 C1686 1.350 . S
C1683 C1686 1.463 . S
C1683 C1688 1.350 . S
C1683 N1691 1.427 . S
C1684 H1675 0.930 . S
C1684 C1682 1.378 . S
C1684 C1685 1.367 . S
C1685 C1684 1.367 . S
C1685 C1687 1.433 . S
C1686 C1682 1.350 . S
C1686 C1683 1.463 . S
C1686 N1690 1.427 . S
C1687 H1677 0.929 . S
C1687 C1685 1.433 . S
C1687 N1690 1.384 . S
C1688 H1679 0.929 . S
C1688 C1680 1.378 . S
C1688 C1683 1.350 . S
C1689 H1676 0.929 . S
C1689 C1681 1.433 . S
C1689 N1691 1.384 . S
N1690 C1686 1.427 . S
N1690 C1687 1.384 . S
N1691 C1683 1.427 . S
N1691 C1689 1.384 . S
H1692 C1698 0.930 . S
H1693 C1702 0.930 . S
H1694 C1707 0.929 . S
H1695 C1705 0.929 . S
H1696 C1700 0.929 . S
H1697 C1706 0.929 . S
C1698 H1692 0.930 . S
C1698 C1699 1.367 . S
C1698 C1706 1.378 . S
C1699 C1698 1.367 . S
C1699 C1707 1.433 . S
C1700 H1696 0.929 . S
C1700 C1702 1.378 . S
C1700 C1704 1.350 . S
C1701 C1704 1.463 . S
C1701 C1706 1.350 . S
C1701 N1709 1.427 . S
C1702 H1693 0.930 . S
C1702 C1700 1.378 . S
C1702 C1703 1.367 . S
C1703 C1702 1.367 . S
C1703 C1705 1.433 . S
C1704 C1700 1.350 . S
C1704 C1701 1.463 . S
C1704 N1708 1.427 . S
C1705 H1695 0.929 . S
C1705 C1703 1.433 . S
C1705 N1708 1.384 . S
C1706 H1697 0.929 . S
C1706 C1698 1.378 . S
C1706 C1701 1.350 . S
C1707 H1694 0.929 . S
C1707 C1699 1.433 . S
C1707 N1709 1.384 . S
N1708 C1704 1.427 . S
N1708 C1705 1.384 . S
N1709 C1701 1.427 . S
N1709 C1707 1.384 . S
H1710 C1716 0.930 . S
H1711 C1720 0.930 . S
H1712 C1725 0.929 . S
H1713 C1723 0.929 . S
H1714 C1718 0.929 . S
H1715 C1724 0.929 . S
C1716 H1710 0.930 . S
C1716 C1717 1.367 . S
C1716 C1724 1.378 . S
C1717 C1716 1.367 . S
C1717 C1725 1.433 . S
C1718 H1714 0.929 . S
C1718 C1720 1.378 . S
C1718 C1722 1.350 . S
C1719 C1722 1.463 . S
C1719 C1724 1.350 . S
C1719 N1727 1.427 . S
C1720 H1711 0.930 . S
C1720 C1718 1.378 . S
C1720 C1721 1.367 . S
C1721 C1720 1.367 . S
C1721 C1723 1.433 . S
C1722 C1718 1.350 . S
C1722 C1719 1.463 . S
C1722 N1726 1.427 . S
C1723 H1713 0.929 . S
C1723 C1721 1.433 . S
C1723 N1726 1.384 . S
C1724 H1715 0.929 . S
C1724 C1716 1.378 . S
C1724 C1719 1.350 . S
C1725 H1712 0.929 . S
C1725 C1717 1.433 . S
C1725 N1727 1.384 . S
N1726 C1722 1.427 . S
N1726 C1723 1.384 . S
N1727 C1719 1.427 . S
N1727 C1725 1.384 . S
H1728 C1734 0.930 . S
H1729 C1738 0.930 . S
H1730 C1743 0.929 . S
H1731 C1741 0.929 . S
H1732 C1736 0.929 . S
H1733 C1742 0.929 . S
C1734 H1728 0.930 . S
C1734 C1735 1.367 . S
C1734 C1742 1.378 . S
C1735 C1734 1.367 . S
C1735 C1743 1.433 . S
C1736 H1732 0.929 . S
C1736 C1738 1.378 . S
C1736 C1740 1.350 . S
C1737 C1740 1.463 . S
C1737 C1742 1.350 . S
C1737 N1745 1.427 . S
C1738 H1729 0.930 . S
C1738 C1736 1.378 . S
C1738 C1739 1.367 . S
C1739 C1738 1.367 . S
C1739 C1741 1.433 . S
C1740 C1736 1.350 . S
C1740 C1737 1.463 . S
C1740 N1744 1.427 . S
C1741 H1731 0.929 . S
C1741 C1739 1.433 . S
C1741 N1744 1.384 . S
C1742 H1733 0.929 . S
C1742 C1734 1.378 . S
C1742 C1737 1.350 . S
C1743 H1730 0.929 . S
C1743 C1735 1.433 . S
C1743 N1745 1.384 . S
N1744 C1740 1.427 . S
N1744 C1741 1.384 . S
N1745 C1737 1.427 . S
N1745 C1743 1.384 . S
H1746 C1752 0.930 . S
H1747 C1756 0.930 . S
H1748 C1761 0.929 . S
H1749 C1759 0.929 . S
H1750 C1754 0.929 . S
H1751 C1760 0.929 . S
C1752 H1746 0.930 . S
C1752 C1753 1.367 . S
C1752 C1760 1.378 . S
C1753 C1752 1.367 . S
C1753 C1761 1.433 . S
C1754 H1750 0.929 . S
C1754 C1756 1.378 . S
C1754 C1758 1.350 . S
C1755 C1758 1.463 . S
C1755 C1760 1.350 . S
C1755 N1763 1.427 . S
C1756 H1747 0.930 . S
C1756 C1754 1.378 . S
C1756 C1757 1.367 . S
C1757 C1756 1.367 . S
C1757 C1759 1.433 . S
C1758 C1754 1.350 . S
C1758 C1755 1.463 . S
C1758 N1762 1.427 . S
C1759 H1749 0.929 . S
C1759 C1757 1.433 . S
C1759 N1762 1.384 . S
C1760 H1751 0.929 . S
C1760 C1752 1.378 . S
C1760 C1755 1.350 . S
C1761 H1748 0.929 . S
C1761 C1753 1.433 . S
C1761 N1763 1.384 . S
N1762 C1758 1.427 . S
N1762 C1759 1.384 . S
N1763 C1755 1.427 . S
N1763 C1761 1.384 . S
H1764 C1770 0.930 . S
H1765 C1774 0.930 . S
H1766 C1779 0.929 . S
H1767 C1777 0.929 . S
H1768 C1772 0.929 . S
H1769 C1778 0.929 . S
C1770 H1764 0.930 . S
C1770 C1771 1.367 . S
C1770 C1778 1.378 . S
C1771 C1770 1.367 . S
C1771 C1779 1.433 . S
C1772 H1768 0.929 . S
C1772 C1774 1.378 . S
C1772 C1776 1.350 . S
C1773 C1776 1.463 . S
C1773 C1778 1.350 . S
C1773 N1781 1.427 . S
C1774 H1765 0.930 . S
C1774 C1772 1.378 . S
C1774 C1775 1.367 . S
C1775 C1774 1.367 . S
C1775 C1777 1.433 . S
C1776 C1772 1.350 . S
C1776 C1773 1.463 . S
C1776 N1780 1.427 . S
C1777 H1767 0.929 . S
C1777 C1775 1.433 . S
C1777 N1780 1.384 . S
C1778 H1769 0.929 . S
C1778 C1770 1.378 . S
C1778 C1773 1.350 . S
C1779 H1766 0.929 . S
C1779 C1771 1.433 . S
C1779 N1781 1.384 . S
N1780 C1776 1.427 . S
N1780 C1777 1.384 . S
N1781 C1773 1.427 . S
N1781 C1779 1.384 . S
H1782 C1788 0.930 . S
H1783 C1792 0.930 . S
H1784 C1797 0.929 . S
H1785 C1795 0.929 . S
H1786 C1790 0.929 . S
H1787 C1796 0.929 . S
C1788 H1782 0.930 . S
C1788 C1789 1.367 . S
C1788 C1796 1.378 . S
C1789 C1788 1.367 . S
C1789 C1797 1.433 . S
C1790 H1786 0.929 . S
C1790 C1792 1.378 . S
C1790 C1794 1.350 . S
C1791 C1794 1.463 . S
C1791 C1796 1.350 . S
C1791 N1799 1.427 . S
C1792 H1783 0.930 . S
C1792 C1790 1.378 . S
C1792 C1793 1.367 . S
C1793 C1792 1.367 . S
C1793 C1795 1.433 . S
C1794 C1790 1.350 . S
C1794 C1791 1.463 . S
C1794 N1798 1.427 . S
C1795 H1785 0.929 . S
C1795 C1793 1.433 . S
C1795 N1798 1.384 . S
C1796 H1787 0.929 . S
C1796 C1788 1.378 . S
C1796 C1791 1.350 . S
C1797 H1784 0.929 . S
C1797 C1789 1.433 . S
C1797 N1799 1.384 . S
N1798 C1794 1.427 . S
N1798 C1795 1.384 . S
N1799 C1791 1.427 . S
N1799 C1797 1.384 . S
H1800 C1806 0.930 . S
H1801 C1810 0.930 . S
H1802 C1815 0.929 . S
H1803 C1813 0.929 . S
H1804 C1808 0.929 . S
H1805 C1814 0.929 . S
C1806 H1800 0.930 . S
C1806 C1807 1.367 . S
C1806 C1814 1.378 . S
C1807 C1806 1.367 . S
C1807 C1815 1.433 . S
C1808 H1804 0.929 . S
C1808 C1810 1.378 . S
C1808 C1812 1.350 . S
C1809 C1812 1.463 . S
C1809 C1814 1.350 . S
C1809 N1817 1.427 . S
C1810 H1801 0.930 . S
C1810 C1808 1.378 . S
C1810 C1811 1.367 . S
C1811 C1810 1.367 . S
C1811 C1813 1.433 . S
C1812 C1808 1.350 . S
C1812 C1809 1.463 . S
C1812 N1816 1.427 . S
C1813 H1803 0.929 . S
C1813 C1811 1.433 . S
C1813 N1816 1.384 . S
C1814 H1805 0.929 . S
C1814 C1806 1.378 . S
C1814 C1809 1.350 . S
C1815 H1802 0.929 . S
C1815 C1807 1.433 . S
C1815 N1817 1.384 . S
N1816 C1812 1.427 . S
N1816 C1813 1.384 . S
N1817 C1809 1.427 . S
N1817 C1815 1.384 . S
H1818 C1824 0.930 . S
H1819 C1828 0.930 . S
H1820 C1833 0.929 . S
H1821 C1831 0.929 . S
H1822 C1826 0.929 . S
H1823 C1832 0.929 . S
C1824 H1818 0.930 . S
C1824 C1825 1.367 . S
C1824 C1832 1.378 . S
C1825 C1824 1.367 . S
C1825 C1833 1.433 . S
C1826 H1822 0.929 . S
C1826 C1828 1.378 . S
C1826 C1830 1.350 . S
C1827 C1830 1.463 . S
C1827 C1832 1.350 . S
C1827 N1835 1.427 . S
C1828 H1819 0.930 . S
C1828 C1826 1.378 . S
C1828 C1829 1.367 . S
C1829 C1828 1.367 . S
C1829 C1831 1.433 . S
C1830 C1826 1.350 . S
C1830 C1827 1.463 . S
C1830 N1834 1.427 . S
C1831 H1821 0.929 . S
C1831 C1829 1.433 . S
C1831 N1834 1.384 . S
C1832 H1823 0.929 . S
C1832 C1824 1.378 . S
C1832 C1827 1.350 . S
C1833 H1820 0.929 . S
C1833 C1825 1.433 . S
C1833 N1835 1.384 . S
N1834 C1830 1.427 . S
N1834 C1831 1.384 . S
N1835 C1827 1.427 . S
N1835 C1833 1.384 . S
H1836 C1842 0.930 . S
H1837 C1846 0.930 . S
H1838 C1851 0.929 . S
H1839 C1849 0.929 . S
H1840 C1844 0.929 . S
H1841 C1850 0.929 . S
C1842 H1836 0.930 . S
C1842 C1843 1.367 . S
C1842 C1850 1.378 . S
C1843 C1842 1.367 . S
C1843 C1851 1.433 . S
C1844 H1840 0.929 . S
C1844 C1846 1.378 . S
C1844 C1848 1.350 . S
C1845 C1848 1.463 . S
C1845 C1850 1.350 . S
C1845 N1853 1.427 . S
C1846 H1837 0.930 . S
C1846 C1844 1.378 . S
C1846 C1847 1.367 . S
C1847 C1846 1.367 . S
C1847 C1849 1.433 . S
C1848 C1844 1.350 . S
C1848 C1845 1.463 . S
C1848 N1852 1.427 . S
C1849 H1839 0.929 . S
C1849 C1847 1.433 . S
C1849 N1852 1.384 . S
C1850 H1841 0.929 . S
C1850 C1842 1.378 . S
C1850 C1845 1.350 . S
C1851 H1838 0.929 . S
C1851 C1843 1.433 . S
C1851 N1853 1.384 . S
N1852 C1848 1.427 . S
N1852 C1849 1.384 . S
N1853 C1845 1.427 . S
N1853 C1851 1.384 . S
H1854 C1860 0.930 . S
H1855 C1864 0.930 . S
H1856 C1869 0.929 . S
H1857 C1867 0.929 . S
H1858 C1862 0.929 . S
H1859 C1868 0.929 . S
C1860 H1854 0.930 . S
C1860 C1861 1.367 . S
C1860 C1868 1.378 . S
C1861 C1860 1.367 . S
C1861 C1869 1.433 . S
C1862 H1858 0.929 . S
C1862 C1864 1.378 . S
C1862 C1866 1.350 . S
C1863 C1866 1.463 . S
C1863 C1868 1.350 . S
C1863 N1871 1.427 . S
C1864 H1855 0.930 . S
C1864 C1862 1.378 . S
C1864 C1865 1.367 . S
C1865 C1864 1.367 . S
C1865 C1867 1.433 . S
C1866 C1862 1.350 . S
C1866 C1863 1.463 . S
C1866 N1870 1.427 . S
C1867 H1857 0.929 . S
C1867 C1865 1.433 . S
C1867 N1870 1.384 . S
C1868 H1859 0.929 . S
C1868 C1860 1.378 . S
C1868 C1863 1.350 . S
C1869 H1856 0.929 . S
C1869 C1861 1.433 . S
C1869 N1871 1.384 . S
N1870 C1866 1.427 . S
N1870 C1867 1.384 . S
N1871 C1863 1.427 . S
N1871 C1869 1.384 . S
H1872 C1878 0.930 . S
H1873 C1882 0.930 . S
H1874 C1887 0.929 . S
H1875 C1885 0.929 . S
H1876 C1880 0.929 . S
H1877 C1886 0.929 . S
C1878 H1872 0.930 . S
C1878 C1879 1.367 . S
C1878 C1886 1.378 . S
C1879 C1878 1.367 . S
C1879 C1887 1.433 . S
C1880 H1876 0.929 . S
C1880 C1882 1.378 . S
C1880 C1884 1.350 . S
C1881 C1884 1.463 . S
C1881 C1886 1.350 . S
C1881 N1889 1.427 . S
C1882 H1873 0.930 . S
C1882 C1880 1.378 . S
C1882 C1883 1.367 . S
C1883 C1882 1.367 . S
C1883 C1885 1.433 . S
C1884 C1880 1.350 . S
C1884 C1881 1.463 . S
C1884 N1888 1.427 . S
C1885 H1875 0.929 . S
C1885 C1883 1.433 . S
C1885 N1888 1.384 . S
C1886 H1877 0.929 . S
C1886 C1878 1.378 . S
C1886 C1881 1.350 . S
C1887 H1874 0.929 . S
C1887 C1879 1.433 . S
C1887 N1889 1.384 . S
N1888 C1884 1.427 . S
N1888 C1885 1.384 . S
N1889 C1881 1.427 . S
N1889 C1887 1.384 . S
H1890 C1896 0.930 . S
H1891 C1900 0.930 . S
H1892 C1905 0.929 . S
H1893 C1903 0.929 . S
H1894 C1898 0.929 . S
H1895 C1904 0.929 . S
C1896 H1890 0.930 . S
C1896 C1897 1.367 . S
C1896 C1904 1.378 . S
C1897 C1896 1.367 . S
C1897 C1905 1.433 . S
C1898 H1894 0.929 . S
C1898 C1900 1.378 . S
C1898 C1902 1.350 . S
C1899 C1902 1.463 . S
C1899 C1904 1.350 . S
C1899 N1907 1.427 . S
C1900 H1891 0.930 . S
C1900 C1898 1.378 . S
C1900 C1901 1.367 . S
C1901 C1900 1.367 . S
C1901 C1903 1.433 . S
C1902 C1898 1.350 . S
C1902 C1899 1.463 . S
C1902 N1906 1.427 . S
C1903 H1893 0.929 . S
C1903 C1901 1.433 . S
C1903 N1906 1.384 . S
C1904 H1895 0.929 . S
C1904 C1896 1.378 . S
C1904 C1899 1.350 . S
C1905 H1892 0.929 . S
C1905 C1897 1.433 . S
C1905 N1907 1.384 . S
N1906 C1902 1.427 . S
N1906 C1903 1.384 . S
N1907 C1899 1.427 . S
N1907 C1905 1.384 . S
H1908 C1914 0.930 . S
H1909 C1918 0.930 . S
H1910 C1923 0.929 . S
H1911 C1921 0.929 . S
H1912 C1916 0.929 . S
H1913 C1922 0.929 . S
C1914 H1908 0.930 . S
C1914 C1915 1.367 . S
C1914 C1922 1.378 . S
C1915 C1914 1.367 . S
C1915 C1923 1.433 . S
C1916 H1912 0.929 . S
C1916 C1918 1.378 . S
C1916 C1920 1.350 . S
C1917 C1920 1.463 . S
C1917 C1922 1.350 . S
C1917 N1925 1.427 . S
C1918 H1909 0.930 . S
C1918 C1916 1.378 . S
C1918 C1919 1.367 . S
C1919 C1918 1.367 . S
C1919 C1921 1.433 . S
C1920 C1916 1.350 . S
C1920 C1917 1.463 . S
C1920 N1924 1.427 . S
C1921 H1911 0.929 . S
C1921 C1919 1.433 . S
C1921 N1924 1.384 . S
C1922 H1913 0.929 . S
C1922 C1914 1.378 . S
C1922 C1917 1.350 . S
C1923 H1910 0.929 . S
C1923 C1915 1.433 . S
C1923 N1925 1.384 . S
N1924 C1920 1.427 . S
N1924 C1921 1.384 . S
N1925 C1917 1.427 . S
N1925 C1923 1.384 . S
H1926 C1932 0.930 . S
H1927 C1936 0.930 . S
H1928 C1941 0.929 . S
H1929 C1939 0.929 . S
H1930 C1934 0.929 . S
H1931 C1940 0.929 . S
C1932 H1926 0.930 . S
C1932 C1933 1.367 . S
C1932 C1940 1.378 . S
C1933 C1932 1.367 . S
C1933 C1941 1.433 . S
C1934 H1930 0.929 . S
C1934 C1936 1.378 . S
C1934 C1938 1.350 . S
C1935 C1938 1.463 . S
C1935 C1940 1.350 . S
C1935 N1943 1.427 . S
C1936 H1927 0.930 . S
C1936 C1934 1.378 . S
C1936 C1937 1.367 . S
C1937 C1936 1.367 . S
C1937 C1939 1.433 . S
C1938 C1934 1.350 . S
C1938 C1935 1.463 . S
C1938 N1942 1.427 . S
C1939 H1929 0.929 . S
C1939 C1937 1.433 . S
C1939 N1942 1.384 . S
C1940 H1931 0.929 . S
C1940 C1932 1.378 . S
C1940 C1935 1.350 . S
C1941 H1928 0.929 . S
C1941 C1933 1.433 . S
C1941 N1943 1.384 . S
N1942 C1938 1.427 . S
N1942 C1939 1.384 . S
N1943 C1935 1.427 . S
N1943 C1941 1.384 . S
H1944 C1950 0.930 . S
H1945 C1954 0.930 . S
H1946 C1959 0.929 . S
H1947 C1957 0.929 . S
H1948 C1952 0.929 . S
H1949 C1958 0.929 . S
C1950 H1944 0.930 . S
C1950 C1951 1.367 . S
C1950 C1958 1.378 . S
C1951 C1950 1.367 . S
C1951 C1959 1.433 . S
C1952 H1948 0.929 . S
C1952 C1954 1.378 . S
C1952 C1956 1.350 . S
C1953 C1956 1.463 . S
C1953 C1958 1.350 . S
C1953 N1961 1.427 . S
C1954 H1945 0.930 . S
C1954 C1952 1.378 . S
C1954 C1955 1.367 . S
C1955 C1954 1.367 . S
C1955 C1957 1.433 . S
C1956 C1952 1.350 . S
C1956 C1953 1.463 . S
C1956 N1960 1.427 . S
C1957 H1947 0.929 . S
C1957 C1955 1.433 . S
C1957 N1960 1.384 . S
C1958 H1949 0.929 . S
C1958 C1950 1.378 . S
C1958 C1953 1.350 . S
C1959 H1946 0.929 . S
C1959 C1951 1.433 . S
C1959 N1961 1.384 . S
N1960 C1956 1.427 . S
N1960 C1957 1.384 . S
N1961 C1953 1.427 . S
N1961 C1959 1.384 . S
H1962 C1968 0.930 . S
H1963 C1972 0.930 . S
H1964 C1977 0.929 . S
H1965 C1975 0.929 . S
H1966 C1970 0.929 . S
H1967 C1976 0.929 . S
C1968 H1962 0.930 . S
C1968 C1969 1.367 . S
C1968 C1976 1.378 . S
C1969 C1968 1.367 . S
C1969 C1977 1.433 . S
C1970 H1966 0.929 . S
C1970 C1972 1.378 . S
C1970 C1974 1.350 . S
C1971 C1974 1.463 . S
C1971 C1976 1.350 . S
C1971 N1979 1.427 . S
C1972 H1963 0.930 . S
C1972 C1970 1.378 . S
C1972 C1973 1.367 . S
C1973 C1972 1.367 . S
C1973 C1975 1.433 . S
C1974 C1970 1.350 . S
C1974 C1971 1.463 . S
C1974 N1978 1.427 . S
C1975 H1965 0.929 . S
C1975 C1973 1.433 . S
C1975 N1978 1.384 . S
C1976 H1967 0.929 . S
C1976 C1968 1.378 . S
C1976 C1971 1.350 . S
C1977 H1964 0.929 . S
C1977 C1969 1.433 . S
C1977 N1979 1.384 . S
N1978 C1974 1.427 . S
N1978 C1975 1.384 . S
N1979 C1971 1.427 . S
N1979 C1977 1.384 . S
H1980 C1986 0.930 . S
H1981 C1990 0.930 . S
H1982 C1995 0.929 . S
H1983 C1993 0.929 . S
H1984 C1988 0.929 . S
H1985 C1994 0.929 . S
C1986 H1980 0.930 . S
C1986 C1987 1.367 . S
C1986 C1994 1.378 . S
C1987 C1986 1.367 . S
C1987 C1995 1.433 . S
C1988 H1984 0.929 . S
C1988 C1990 1.378 . S
C1988 C1992 1.350 . S
C1989 C1992 1.463 . S
C1989 C1994 1.350 . S
C1989 N1997 1.427 . S
C1990 H1981 0.930 . S
C1990 C1988 1.378 . S
C1990 C1991 1.367 . S
C1991 C1990 1.367 . S
C1991 C1993 1.433 . S
C1992 C1988 1.350 . S
C1992 C1989 1.463 . S
C1992 N1996 1.427 . S
C1993 H1983 0.929 . S
C1993 C1991 1.433 . S
C1993 N1996 1.384 . S
C1994 H1985 0.929 . S
C1994 C1986 1.378 . S
C1994 C1989 1.350 . S
C1995 H1982 0.929 . S
C1995 C1987 1.433 . S
C1995 N1997 1.384 . S
N1996 C1992 1.427 . S
N1996 C1993 1.384 . S
N1997 C1989 1.427 . S
N1997 C1995 1.384 . S
H1998 C2004 0.930 . S
H1999 C2008 0.930 . S
H2000 C2013 0.929 . S
H2001 C2011 0.929 . S
H2002 C2006 0.929 . S
H2003 C2012 0.929 . S
C2004 H1998 0.930 . S
C2004 C2005 1.367 . S
C2004 C2012 1.378 . S
C2005 C2004 1.367 . S
C2005 C2013 1.433 . S
C2006 H2002 0.929 . S
C2006 C2008 1.378 . S
C2006 C2010 1.350 . S
C2007 C2010 1.463 . S
C2007 C2012 1.350 . S
C2007 N2015 1.427 . S
C2008 H1999 0.930 . S
C2008 C2006 1.378 . S
C2008 C2009 1.367 . S
C2009 C2008 1.367 . S
C2009 C2011 1.433 . S
C2010 C2006 1.350 . S
C2010 C2007 1.463 . S
C2010 N2014 1.427 . S
C2011 H2001 0.929 . S
C2011 C2009 1.433 . S
C2011 N2014 1.384 . S
C2012 H2003 0.929 . S
C2012 C2004 1.378 . S
C2012 C2007 1.350 . S
C2013 H2000 0.929 . S
C2013 C2005 1.433 . S
C2013 N2015 1.384 . S
N2014 C2010 1.427 . S
N2014 C2011 1.384 . S
N2015 C2007 1.427 . S
N2015 C2013 1.384 . S
H2016 C2022 0.930 . S
H2017 C2026 0.930 . S
H2018 C2031 0.929 . S
H2019 C2029 0.929 . S
H2020 C2024 0.929 . S
H2021 C2030 0.929 . S
C2022 H2016 0.930 . S
C2022 C2023 1.367 . S
C2022 C2030 1.378 . S
C2023 C2022 1.367 . S
C2023 C2031 1.433 . S
C2024 H2020 0.929 . S
C2024 C2026 1.378 . S
C2024 C2028 1.350 . S
C2025 C2028 1.463 . S
C2025 C2030 1.350 . S
C2025 N2033 1.427 . S
C2026 H2017 0.930 . S
C2026 C2024 1.378 . S
C2026 C2027 1.367 . S
C2027 C2026 1.367 . S
C2027 C2029 1.433 . S
C2028 C2024 1.350 . S
C2028 C2025 1.463 . S
C2028 N2032 1.427 . S
C2029 H2019 0.929 . S
C2029 C2027 1.433 . S
C2029 N2032 1.384 . S
C2030 H2021 0.929 . S
C2030 C2022 1.378 . S
C2030 C2025 1.350 . S
C2031 H2018 0.929 . S
C2031 C2023 1.433 . S
C2031 N2033 1.384 . S
N2032 C2028 1.427 . S
N2032 C2029 1.384 . S
N2033 C2025 1.427 . S
N2033 C2031 1.384 . S
H2034 C2040 0.930 . S
H2035 C2044 0.930 . S
H2036 C2049 0.929 . S
H2037 C2047 0.929 . S
H2038 C2042 0.929 . S
H2039 C2048 0.929 . S
C2040 H2034 0.930 . S
C2040 C2041 1.367 . S
C2040 C2048 1.378 . S
C2041 C2040 1.367 . S
C2041 C2049 1.433 . S
C2042 H2038 0.929 . S
C2042 C2044 1.378 . S
C2042 C2046 1.350 . S
C2043 C2046 1.463 . S
C2043 C2048 1.350 . S
C2043 N2051 1.427 . S
C2044 H2035 0.930 . S
C2044 C2042 1.378 . S
C2044 C2045 1.367 . S
C2045 C2044 1.367 . S
C2045 C2047 1.433 . S
C2046 C2042 1.350 . S
C2046 C2043 1.463 . S
C2046 N2050 1.427 . S
C2047 H2037 0.929 . S
C2047 C2045 1.433 . S
C2047 N2050 1.384 . S
C2048 H2039 0.929 . S
C2048 C2040 1.378 . S
C2048 C2043 1.350 . S
C2049 H2036 0.929 . S
C2049 C2041 1.433 . S
C2049 N2051 1.384 . S
N2050 C2046 1.427 . S
N2050 C2047 1.384 . S
N2051 C2043 1.427 . S
N2051 C2049 1.384 . S
C767 C462 1.663 . S
C763 C439 1.661 . S
C781 C401 1.794 . S
C785 C460 1.796 . S
C803 C461 1.796 . S
C799 C382 1.793 . S
C817 C420 1.661 . S
C821 C463 1.663 . S
C839 C507 1.617 . S
C835 C306 1.622 . S
C857 C567 1.713 . S
C853 C325 1.717 . S
C871 C344 1.597 . S
C875 C506 1.597 . S
C893 C566 1.850 . S
C889 C363 1.853 . S
C907 C230 1.743 . S
C911 C508 1.745 . S
C929 C564 1.695 . S
C925 C249 1.691 . S
C943 C268 1.750 . S
C947 C509 1.750 . S
C961 C287 1.552 . S
C965 C565 1.555 . S
C983 C615 1.662 . S
C979 C211 1.662 . S
C997 C173 1.794 . S
C1001 C614 1.796 . S
C1015 C154 1.795 . S
C1019 C616 1.795 . S
C1037 C617 1.661 . S
C1033 C192 1.663 . S
C1051 C78 1.622 . S
C1055 C658 1.617 . S
C1069 C97 1.717 . S
C1073 C717 1.712 . S
C1087 C116 1.596 . S
C1091 C656 1.598 . S
C1105 C135 1.853 . S
C1109 C716 1.852 . S
C1127 C657 1.743 . S
C1123 C2 1.745 . S
C1145 C714 1.695 . S
C1141 C21 1.690 . S
C1159 C40 1.751 . S
C1163 C659 1.748 . S
C1181 C715 1.554 . S
C1177 C59 1.552 . S
C1199 C459 1.664 . S
C1195 C6 1.644 . S
C1213 C30 1.360 1_565 S
C1217 C465 1.398 . S
C1231 C49 1.247 . S
C1235 C457 1.275 . S
C1249 C68 1.187 . S
C1253 C464 1.219 . S
C1267 C82 1.622 . S
C1271 C456 1.640 . S
C1289 C466 1.291 . S
C1285 C106 1.270 . S
C1303 C125 1.222 . S
C1307 C458 1.261 . S
C1325 C467 1.890 . S
C1321 C139 1.877 . S
C1343 C513 1.595 . S
C1339 C63 1.567 . S
C1357 C11 1.266 . S
C1361 C556 1.295 . S
C1379 C511 1.565 1_565 S
C1375 C25 1.539 . S
C1397 C558 1.690 . S
C1393 C44 1.672 . S
C1411 C101 1.691 . S
C1415 C512 1.717 . S
C1433 C557 1.516 . S
C1429 C120 1.487 . S
C1451 C510 1.301 . S
C1447 C144 1.261 . S
C1469 C559 1.176 . S
C1465 C87 1.156 . S
C1487 C563 1.403 . S
C1483 C163 1.361 . S
C1501 C182 1.352 1_554 S
C1505 C562 1.403 . S
C1523 C514 1.792 . S
C1519 C158 1.769 . S
C1541 C561 1.741 . S
C1537 C196 1.721 . S
C1555 C220 1.257 . S
C1559 C517 1.290 . S
C1573 C215 1.714 . S
C1577 C560 1.740 . S
C1595 C516 1.793 . S
C1591 C177 1.771 . S
C1613 C515 1.291 . S
C1609 C201 1.253 . S
C1631 C609 1.665 . S
C1627 C234 1.640 . S
C1649 C612 1.398 . S
C1645 C258 1.362 . S
C1663 C277 1.245 . S
C1667 C608 1.275 . S
C1685 C610 1.219 . S
C1681 C296 1.199 . S
C1703 C606 1.641 . S
C1699 C310 1.616 . S
C1717 C334 1.264 . S
C1721 C611 1.290 . S
C1735 C353 1.232 . S
C1739 C607 1.257 . S
C1757 C613 1.891 . S
C1753 C367 1.871 . S
C1775 C667 1.594 . S
C1771 C291 1.559 . S
C1789 C239 1.258 . S
C1793 C706 1.299 . S
C1811 C666 1.565 . S
C1807 C253 1.534 . S
C1829 C708 1.689 . S
C1825 C272 1.671 . S
C1847 C665 1.718 . S
C1843 C329 1.691 . S
C1861 C348 1.492 . S
C1865 C707 1.516 . S
C1883 C664 1.301 . S
C1879 C372 1.274 . S
C1901 C709 1.183 . S
C1897 C315 1.158 . S
C1919 C713 1.403 . S
C1915 C391 1.363 . S
C1933 C410 1.356 . S
C1937 C712 1.403 . S
C1955 C660 1.792 . S
C1951 C386 1.769 . S
C1969 C424 1.721 . S
C1973 C711 1.741 . S
C1991 C663 1.292 . S
C1987 C448 1.254 . S
C2009 C710 1.741 . S
C2005 C443 1.716 . S
C2027 C661 1.794 . S
C2023 C405 1.764 . S
C2041 C429 1.267 . S
C2045 C662 1.294 . S
