# Generated by pormake.
# Topology ssa, (4,4)-cn, num edge types: 1
# Building blocks:
#     Node 0, Type 0, BuildingBlock: KOZSID_clean_sbu_0, # of connection points: 4
#     Node 1, Type 0, BuildingBlock: KOZSID_clean_sbu_0, # of connection points: 4
#     Node 2, Type 0, BuildingBlock: KOZSID_clean_sbu_0, # of connection points: 4
#     Node 3, Type 0, BuildingBlock: KOZSID_clean_sbu_0, # of connection points: 4
#     Node 4, Type 0, BuildingBlock: KOZSID_clean_sbu_0, # of connection points: 4
#     Node 5, Type 0, BuildingBlock: KOZSID_clean_sbu_0, # of connection points: 4
#     Node 6, Type 1, BuildingBlock: GIZVER_clean_linker_0, # of connection points: 4
#     Node 7, Type 1, BuildingBlock: GIZVER_clean_linker_0, # of connection points: 4
#     Node 8, Type 1, BuildingBlock: GIZVER_clean_linker_0, # of connection points: 4
#     Node 9, Type 1, BuildingBlock: GIZVER_clean_linker_0, # of connection points: 4
#     Node 10, Type 1, BuildingBlock: GIZVER_clean_linker_0, # of connection points: 4
#     Node 11, Type 1, BuildingBlock: GIZVER_clean_linker_0, # of connection points: 4
#     Edge 12, Type (0, 1), BuildingBlock: TEMPAE_clean_linker_10, # of connection points: 2
#     Edge 13, Type (0, 1), BuildingBlock: TEMPAE_clean_linker_10, # of connection points: 2
#     Edge 14, Type (0, 1), BuildingBlock: TEMPAE_clean_linker_10, # of connection points: 2
#     Edge 15, Type (0, 1), BuildingBlock: TEMPAE_clean_linker_10, # of connection points: 2
#     Edge 16, Type (0, 1), BuildingBlock: TEMPAE_clean_linker_10, # of connection points: 2
#     Edge 17, Type (0, 1), BuildingBlock: TEMPAE_clean_linker_10, # of connection points: 2
#     Edge 18, Type (0, 1), BuildingBlock: TEMPAE_clean_linker_10, # of connection points: 2
#     Edge 19, Type (0, 1), BuildingBlock: TEMPAE_clean_linker_10, # of connection points: 2
#     Edge 20, Type (0, 1), BuildingBlock: TEMPAE_clean_linker_10, # of connection points: 2
#     Edge 21, Type (0, 1), BuildingBlock: TEMPAE_clean_linker_10, # of connection points: 2
#     Edge 22, Type (0, 1), BuildingBlock: TEMPAE_clean_linker_10, # of connection points: 2
#     Edge 23, Type (0, 1), BuildingBlock: TEMPAE_clean_linker_10, # of connection points: 2
#     Edge 24, Type (0, 1), BuildingBlock: TEMPAE_clean_linker_10, # of connection points: 2
#     Edge 25, Type (0, 1), BuildingBlock: TEMPAE_clean_linker_10, # of connection points: 2
#     Edge 26, Type (0, 1), BuildingBlock: TEMPAE_clean_linker_10, # of connection points: 2
#     Edge 27, Type (0, 1), BuildingBlock: TEMPAE_clean_linker_10, # of connection points: 2
#     Edge 28, Type (0, 1), BuildingBlock: TEMPAE_clean_linker_10, # of connection points: 2
#     Edge 29, Type (0, 1), BuildingBlock: TEMPAE_clean_linker_10, # of connection points: 2
#     Edge 30, Type (0, 1), BuildingBlock: TEMPAE_clean_linker_10, # of connection points: 2
#     Edge 31, Type (0, 1), BuildingBlock: TEMPAE_clean_linker_10, # of connection points: 2
#     Edge 32, Type (0, 1), BuildingBlock: TEMPAE_clean_linker_10, # of connection points: 2
#     Edge 33, Type (0, 1), BuildingBlock: TEMPAE_clean_linker_10, # of connection points: 2
#     Edge 34, Type (0, 1), BuildingBlock: TEMPAE_clean_linker_10, # of connection points: 2
#     Edge 35, Type (0, 1), BuildingBlock: TEMPAE_clean_linker_10, # of connection points: 2
# Relax obj value: 0.004
# Max RMSD: 0.034
# Mean RMSD: 0.019
data_MOF--net-ssa--node1-KOZSID_clean_sbu_0--node2-GIZVER_clean_linker_0--edge1-TEMPAE_clean_linker_10
_symmetry_space_group_name_H-M    P1
_symmetry_Int_Tables_number       1
_symmetry_cell_setting            triclinic
loop_
_symmetry_equiv_pos_as_xyz
'x, y, z'
_cell_length_a     59.636553
_cell_length_b     61.099378
_cell_length_c     32.638978
_cell_angle_alpha  86.780329
_cell_angle_beta   89.866087
_cell_angle_gamma 122.39494
loop_
_atom_site_label
_atom_site_type_symbol
_atom_site_fract_x
_atom_site_fract_y
_atom_site_fract_z
_atom_type_partial_charge
C0 C 0.95728 0.50471 0.03052 0.0
C1 C 0.93679 0.49624 0.05968 0.0
C2 C 0.93652 0.47737 0.08478 0.0
C3 C 0.95681 0.47538 0.0697 0.0
N4 N 0.97017 0.49214 0.03707 0.0
Co5 Co 0.9998 0.49435 0.00495 0.0
N6 N 0.00554 0.47449 0.04923 0.0
C7 C 0.98803 0.45904 0.07977 0.0
C8 C 0.99759 0.44756 0.1055 0.0
C9 C 0.02267 0.45639 0.09008 0.0
C10 C 0.02703 0.47293 0.05584 0.0
N11 N 0.02931 0.49631 0.97302 0.0
C12 C 0.04926 0.49364 0.98644 0.0
C13 C 0.06708 0.49868 0.95435 0.0
C14 C 0.05745 0.50396 0.91964 0.0
C15 C 0.03461 0.50228 0.93241 0.0
N16 N 0.9941 0.5142 0.96037 0.0
C17 C 0.00343 0.5185 0.92118 0.0
C18 C 0.99634 0.53277 0.89703 0.0
C19 C 0.98121 0.53738 0.92236 0.0
C20 C 0.97977 0.52548 0.96072 0.0
N21 N 0.02532 0.52676 0.02934 0.0
C22 C 0.06454 0.57175 0.06523 0.0
C23 C 0.06406 0.57024 0.02248 0.0
C24 C 0.04444 0.54761 0.00524 0.0
C25 C 0.04444 0.55032 0.08942 0.0
C26 C 0.02497 0.52823 0.07092 0.0
N27 N 0.9743 0.46177 0.98071 0.0
C28 C 0.96074 0.41864 0.96318 0.0
C29 C 0.93704 0.4148 0.94807 0.0
C30 C 0.93236 0.43485 0.94956 0.0
C31 C 0.95108 0.45802 0.96622 0.0
C32 C 0.97926 0.4424 0.97893 0.0
H33 H 0.94661 0.47282 0.96743 0.0
H34 H 0.99759 0.44505 0.98974 0.0
H35 H 0.04503 0.54688 0.97239 0.0
H36 H 0.00997 0.51207 0.09042 0.0
C37 C 0.96537 0.45979 0.08741 0.0
C38 C 0.96136 0.52194 0.99423 0.0
C39 C 0.05109 0.48566 0.029 0.0
C40 C 0.02145 0.51179 0.90963 0.0
H41 H 0.92294 0.50248 0.06173 0.0
H42 H 0.92321 0.4665 0.11099 0.0
H43 H 0.98799 0.43519 0.13316 0.0
H44 H 0.03619 0.45127 0.10258 0.0
H45 H 0.08542 0.49913 0.95561 0.0
H46 H 0.06697 0.51003 0.88929 0.0
H47 H 1.00184 0.53939 0.86502 0.0
H48 H 0.97157 0.5476 0.91326 0.0
H49 H 0.07875 0.58637 0.00231 0.0
H50 H 0.04403 0.55023 0.12259 0.0
H51 H 0.96514 0.40362 0.96209 0.0
H52 H 0.91419 0.43254 0.93824 0.0
C53 C 0.56086 0.02859 0.55844 0.0
C54 C 0.56897 0.02452 0.59643 0.0
C55 C 0.54738 0.00312 0.61564 0.0
C56 C 0.5275 0.99518 0.58824 0.0
N57 N 0.53521 0.00998 0.55241 0.0
Co58 Co 0.51303 0.00474 0.50353 0.0
N59 N 0.4805 0.975 0.53339 0.0
C60 C 0.47842 0.96618 0.57305 0.0
C61 C 0.45357 0.94551 0.58493 0.0
C62 C 0.43895 0.94059 0.55068 0.0
C63 C 0.45589 0.9585 0.51971 0.0
N64 N 0.49096 0.99887 0.45412 0.0
C65 C 0.4657 0.97939 0.44739 0.0
C66 C 0.45888 0.98125 0.40721 0.0
C67 C 0.48048 0.00257 0.38799 0.0
C68 C 0.49931 0.01236 0.41713 0.0
N69 N 0.54545 0.03509 0.4742 0.0
C70 C 0.54706 0.04498 0.43538 0.0
C71 C 0.57099 0.06729 0.42487 0.0
C72 C 0.58547 0.07231 0.45922 0.0
C73 C 0.56956 0.05248 0.48876 0.0
N74 N 0.52222 0.9802 0.48349 0.0
C75 C 0.53085 0.94288 0.45269 0.0
C76 C 0.53647 0.96495 0.42836 0.0
C77 C 0.5321 0.98319 0.44422 0.0
C78 C 0.52177 0.94035 0.49322 0.0
C79 C 0.51771 0.95908 0.50788 0.0
N80 N 0.50379 0.02923 0.52352 0.0
C81 C 0.49772 0.06516 0.51072 0.0
C82 C 0.49322 0.06569 0.5526 0.0
C83 C 0.49367 0.04729 0.57952 0.0
C84 C 0.49896 0.02947 0.56451 0.0
C85 C 0.50285 0.04691 0.49697 0.0
H86 H 0.49919 0.01616 0.58673 0.0
H87 H 0.50628 0.0477 0.46475 0.0
H88 H 0.5365 0.99934 0.42387 0.0
H89 H 0.51039 0.95574 0.53884 0.0
C90 C 0.50088 0.97567 0.59677 0.0
C91 C 0.57757 0.05158 0.53079 0.0
C92 C 0.4481 0.95805 0.47732 0.0
C93 C 0.52529 0.03358 0.41024 0.0
H94 H 0.58824 0.03639 0.60947 0.0
H95 H 0.54605 0.99493 0.6465 0.0
H96 H 0.44714 0.93464 0.61447 0.0
H97 H 0.41839 0.92507 0.54834 0.0
H98 H 0.44051 0.96826 0.39268 0.0
H99 H 0.48248 0.00964 0.3562 0.0
H100 H 0.57688 0.07901 0.39608 0.0
H101 H 0.60523 0.08911 0.46222 0.0
H102 H 0.5441 0.96814 0.397 0.0
H103 H 0.517 0.92357 0.51332 0.0
H104 H 0.49779 0.07907 0.48855 0.0
H105 H 0.48977 0.04646 0.61218 0.0
C106 C 0.55569 0.52591 0.94365 0.0
C107 C 0.56548 0.5388 0.90521 0.0
C108 C 0.54517 0.53917 0.88679 0.0
C109 C 0.52427 0.5267 0.91497 0.0
N110 N 0.5301 0.51865 0.95053 0.0
Co111 Co 0.50566 0.49991 -0.00018 0.0
N112 N 0.47489 0.49772 0.9709 0.0
C113 C 0.47486 0.50612 0.93164 0.0
C114 C 0.4508 0.50188 0.92035 0.0
C115 C 0.43452 0.49039 0.95458 0.0
C116 C 0.44975 0.48848 0.98497 0.0
N117 N 0.48133 0.48168 0.04947 0.0
C118 C 0.45589 0.47495 0.05666 0.0
C119 C 0.44713 0.46466 0.09676 0.0
C120 C 0.46763 0.46482 0.11541 0.0
C121 C 0.48777 0.47537 0.08604 0.0
N122 N 0.53632 0.50149 0.02831 0.0
C123 C 0.53606 0.4921 0.06697 0.0
C124 C 0.55949 0.49448 0.07724 0.0
C125 C 0.57564 0.50569 0.04285 0.0
C126 C 0.56108 0.50967 0.01359 0.0
N127 N 0.51532 0.53387 0.0205 0.0
C128 C 0.52513 0.5803 0.05219 0.0
C129 C 0.52948 0.56304 0.07544 0.0
C130 C 0.52432 0.54013 0.05932 0.0
C131 C 0.51667 0.57424 0.01217 0.0
C132 C 0.51221 0.55133 0.99698 0.0
N133 N 0.49598 0.46602 0.97915 0.0
C134 C 0.48922 0.42327 0.9899 0.0
C135 C 0.48487 0.41903 0.94818 0.0
C136 C 0.48554 0.43855 0.92262 0.0
C137 C 0.49127 0.46167 0.93847 0.0
C138 C 0.49452 0.44663 0.00464 0.0
H139 H 0.49197 0.47581 0.91706 0.0
H140 H 0.49766 0.44868 0.03669 0.0
H141 H 0.52749 0.52767 0.07911 0.0
H142 H 0.5058 0.54801 0.96631 0.0
C143 C 0.49835 0.51998 0.90742 0.0
C144 C 0.57112 0.52007 0.97168 0.0
C145 C 0.43985 0.47916 0.02725 0.0
C146 C 0.5132 0.48046 0.09243 0.0
H147 H 0.5851 0.54657 0.89155 0.0
H148 H 0.54534 0.54681 0.85597 0.0
H149 H 0.44591 0.50729 0.89114 0.0
H150 H 0.41396 0.48472 0.9573 0.0
H151 H 0.42818 0.45824 0.11162 0.0
H152 H 0.46804 0.45864 0.14698 0.0
H153 H 0.56405 0.48822 0.10596 0.0
H154 H 0.59565 0.5099 0.03951 0.0
H155 H 0.53674 0.56701 0.10623 0.0
H156 H 0.5128 0.58674 0.99278 0.0
H157 H 0.48904 0.40889 0.01109 0.0
H158 H 0.48159 0.43611 0.89029 0.0
C159 C 0.95521 0.45339 0.47792 0.0
C160 C 0.93827 0.43678 0.44949 0.0
C161 C 0.94641 0.45052 0.412 0.0
C162 C 0.96784 0.47459 0.4197 0.0
N163 N 0.97366 0.47678 0.45962 0.0
Co164 Co 0.00269 0.50795 0.4845 0.0
N165 N 0.00599 0.53097 0.43633 0.0
C166 C 0.99554 0.5232 0.39939 0.0
C167 C 1.00018 0.54337 0.37245 0.0
C168 C 0.01489 0.56524 0.39342 0.0
C169 C 0.01875 0.55721 0.43201 0.0
N170 N 0.03207 0.53908 0.50939 0.0
C171 C 0.04375 0.56471 0.498 0.0
C172 C 0.06477 0.57975 0.52298 0.0
C173 C 0.06649 0.56297 0.55035 0.0
C174 C 0.04659 0.53868 0.54071 0.0
N175 N 0.99905 0.48477 0.53264 0.0
C176 C 0.01711 0.4902 0.5614 0.0
C177 C 0.00832 0.47073 0.59201 0.0
C178 C 0.98319 0.45187 0.58174 0.0
C179 C 0.97817 0.46086 0.54505 0.0
N180 N 0.02885 0.50249 0.45882 0.0
C181 C 0.06791 0.49554 0.42654 0.0
C182 C 0.04497 0.47466 0.4465 0.0
C183 C 0.02551 0.47847 0.46195 0.0
C184 C 0.07077 0.51981 0.42248 0.0
C185 C 0.05116 0.52292 0.43907 0.0
N186 N 0.9766 0.5133 0.51049 0.0
C187 C 0.95969 0.52116 0.57104 0.0
C188 C 0.93799 0.51837 0.54983 0.0
C189 C 0.93633 0.51348 0.50816 0.0
C190 C 0.95581 0.51097 0.4891 0.0
C191 C 0.97869 0.51858 0.5509 0.0
H192 H 0.95384 0.50682 0.4572 0.0
H193 H 0.99495 0.52061 0.56825 0.0
H194 H 0.00786 0.462 0.47681 0.0
H195 H 0.05432 0.54199 0.43625 0.0
C196 C 0.97894 0.49679 0.39277 0.0
C197 C 0.95406 0.44615 0.52166 0.0
C198 C 0.03826 0.57522 0.4604 0.0
C199 C 0.03926 0.51542 0.56297 0.0
H200 H 0.92167 0.41696 0.45533 0.0
H201 H 0.93691 0.44416 0.38306 0.0
H202 H 0.99339 0.5423 0.34148 0.0
H203 H 0.02283 0.58498 0.38113 0.0
H204 H 0.07814 0.60064 0.52094 0.0
H205 H 0.08049 0.56792 0.57455 0.0
H206 H 0.01832 0.47082 0.61969 0.0
H207 H 0.97013 0.43384 0.59963 0.0
H208 H 0.04196 0.45551 0.44965 0.0
H209 H 0.08828 0.53641 0.40718 0.0
H210 H 0.96211 0.52548 0.60306 0.0
H211 H 0.91987 0.51114 0.49062 0.0
C212 C 0.44679 0.9776 0.07017 0.0
C213 C 0.43857 0.98108 0.10777 0.0
C214 C 0.4604 0.00148 0.12388 0.0
C215 C 0.48051 0.00954 0.09505 0.0
N216 N 0.47281 0.99566 0.06139 0.0
Co217 Co 0.49511 0.00268 0.01057 0.0
N218 N 0.52762 0.03129 0.03556 0.0
C219 C 0.52989 0.03769 0.07496 0.0
C220 C 0.55486 0.05769 0.08361 0.0
C221 C 0.56933 0.06458 0.04746 0.0
C222 C 0.5522 0.04846 0.01871 0.0
N223 N 0.51688 0.01127 0.9584 0.0
C224 C 0.54177 0.0316 0.94779 0.0
C225 C 0.54814 0.03201 0.90662 0.0
C226 C 0.52664 0.01115 0.89086 0.0
C227 C 0.50831 0.99945 0.92289 0.0
N228 N 0.46307 0.97265 0.98679 0.0
C229 C 0.46213 0.96337 0.94979 0.0
C230 C 0.43858 0.94084 0.94336 0.0
C231 C 0.42364 0.9351 0.97864 0.0
C232 C 0.43887 0.9548 0.00448 0.0
N233 N 0.48515 0.0273 0.98974 0.0
C234 C 0.47464 0.06434 0.95633 0.0
C235 C 0.46552 0.04098 0.93793 0.0
C236 C 0.47118 0.02304 0.9547 0.0
C237 C 0.48817 0.06825 0.9928 0.0
C238 C 0.49286 0.0495 0.00911 0.0
N239 N 0.50515 0.978 0.03139 0.0
C240 C 0.51847 0.94775 0.01905 0.0
C241 C 0.51653 0.94075 0.06104 0.0
C242 C 0.50929 0.95322 0.08789 0.0
C243 C 0.50418 0.97185 0.07266 0.0
C244 C 0.51252 0.96604 0.005 0.0
H245 H 0.49917 0.98076 0.09507 0.0
H246 H 0.5139 0.96995 0.97254 0.0
H247 H 0.46434 0.00603 0.93839 0.0
H248 H 0.5032 0.05366 0.03709 0.0
C249 C 0.50732 0.02781 0.10063 0.0
C250 C 0.42986 0.9555 0.04579 0.0
C251 C 0.55969 0.0512 0.97535 0.0
C252 C 0.48324 0.97692 0.92111 0.0
H253 H 0.41903 0.96947 0.12271 0.0
H254 H 0.46166 0.00889 0.1537 0.0
H255 H 0.56138 0.06707 0.11217 0.0
H256 H 0.58989 0.08029 0.04241 0.0
H257 H 0.56627 0.04601 0.8894 0.0
H258 H 0.52454 0.00536 0.85966 0.0
H259 H 0.43299 0.92981 0.91631 0.0
H260 H 0.40388 0.91814 0.98455 0.0
H261 H 0.45423 0.03653 0.91034 0.0
H262 H 0.49582 0.086 0.0083 0.0
H263 H 0.52453 0.9392 0.99686 0.0
H264 H 0.507 0.94837 0.12067 0.0
C265 C 0.524 0.55932 0.52325 0.0
C266 C 0.5194 0.57175 0.55338 0.0
C267 C 0.50586 0.5536 0.58507 0.0
C268 C 0.50303 0.53125 0.57252 0.0
N269 N 0.51447 0.53413 0.53513 0.0
Co270 Co 0.51335 0.50616 0.5041 0.0
N271 N 0.49354 0.4795 0.55074 0.0
C272 C 0.48626 0.48341 0.58753 0.0
C273 C 0.47408 0.46172 0.6142 0.0
C274 C 0.47415 0.44296 0.59357 0.0
C275 C 0.48646 0.45439 0.55537 0.0
N276 N 0.51073 0.47783 0.47208 0.0
C277 C 0.50106 0.45257 0.48365 0.0
C278 C 0.50317 0.43956 0.45183 0.0
C279 C 0.51483 0.45734 0.41907 0.0
C280 C 0.51914 0.48006 0.43272 0.0
N281 N 0.53481 0.53318 0.4586 0.0
C282 C 0.54375 0.52946 0.42318 0.0
C283 C 0.55768 0.55145 0.3975 0.0
C284 C 0.55747 0.57034 0.41751 0.0
C285 C 0.54339 0.55875 0.45462 0.0
N286 N 0.54703 0.51311 0.52779 0.0
C287 C 0.59416 0.52155 0.56268 0.0
C288 C 0.58765 0.51327 0.5229 0.0
C289 C 0.56436 0.50946 0.50606 0.0
C290 C 0.57672 0.52588 0.58428 0.0
C291 C 0.5534 0.5213 0.56667 0.0
N292 N 0.47957 0.49923 0.48029 0.0
C293 C 0.45536 0.50061 0.42185 0.0
C294 C 0.43246 0.49187 0.44647 0.0
C295 C 0.43365 0.48665 0.48844 0.0
C296 C 0.4572 0.49068 0.5046 0.0
C297 C 0.4782 0.50365 0.43901 0.0
H298 H 0.45673 0.48682 0.53692 0.0
H299 H 0.49456 0.50987 0.41807 0.0
H300 H 0.5607 0.50334 0.4755 0.0
H301 H 0.54079 0.52444 0.58525 0.0
C302 C 0.4906 0.50752 0.59564 0.0
C303 C 0.53649 0.57203 0.48326 0.0
C304 C 0.49173 0.44083 0.52514 0.0
C305 C 0.53503 0.50446 0.41211 0.0
H306 H 0.52494 0.5918 0.55222 0.0
H307 H 0.49878 0.55632 0.61373 0.0
H308 H 0.46629 0.45985 0.64507 0.0
H309 H 0.46631 0.42316 0.60545 0.0
H310 H 0.49784 0.4196 0.45266 0.0
H311 H 0.52087 0.4544 0.38964 0.0
H312 H 0.56568 0.55322 0.36683 0.0
H313 H 0.56579 0.59005 0.40501 0.0
H314 H 0.60018 0.50932 0.50485 0.0
H315 H 0.58097 0.53292 0.61478 0.0
H316 H 0.45603 0.50555 0.38931 0.0
H317 H 0.41649 0.47935 0.50902 0.0
H318 H 0.22991 0.49998 0.1486 0.0
H319 H 0.23661 0.50249 0.28011 0.0
H320 H 0.16057 0.47108 0.22736 0.0
H321 H 0.27285 0.52573 0.17649 0.0
H322 H 0.27508 0.5336 0.22862 0.0
H323 H 0.28741 0.4983 0.15668 0.0
H324 H 0.31311 0.46392 0.24864 0.0
H325 H 0.27735 0.50496 0.28502 0.0
C326 C 0.22067 0.4952 0.17913 0.0
C327 C 0.19303 0.4838 0.18377 0.0
C328 C 0.23659 0.5016 0.21385 0.0
C329 C 0.22452 0.49645 0.25338 0.0
C330 C 0.19692 0.48461 0.25833 0.0
C331 C 0.18155 0.47833 0.22349 0.0
C332 C 0.26658 0.51703 0.20853 0.0
C333 C 0.27832 0.50091 0.21963 0.0
C334 C 0.28842 0.49297 0.18853 0.0
C335 C 0.30202 0.48049 0.19868 0.0
C336 C 0.3031 0.47392 0.24022 0.0
C337 C 0.29496 0.48325 0.27135 0.0
C338 C 0.28248 0.49667 0.26103 0.0
H339 H 0.73161 0.22458 0.67329 0.0
H340 H 0.71306 0.22312 0.80152 0.0
H341 H 0.68015 0.15181 0.74233 0.0
H342 H 0.73432 0.26262 0.70537 0.0
H343 H 0.73268 0.2631 0.75983 0.0
H344 H 0.77687 0.2859 0.67367 0.0
H345 H 0.846 0.30924 0.74387 0.0
H346 H 0.7683 0.25897 0.80098 0.0
C347 C 0.72218 0.21367 0.70217 0.0
C348 C 0.70601 0.18639 0.70361 0.0
C349 C 0.72519 0.22704 0.73763 0.0
C350 C 0.71184 0.21289 0.7747 0.0
C351 C 0.6953 0.18572 0.77628 0.0
C352 C 0.69329 0.17277 0.74107 0.0
C353 C 0.7395 0.2563 0.73453 0.0
C354 C 0.76927 0.26924 0.73621 0.0
C355 C 0.78573 0.28439 0.70178 0.0
C356 C 0.81346 0.29934 0.7047 0.0
C357 C 0.82459 0.2976 0.74155 0.0
C358 C 0.80865 0.28362 0.77671 0.0
C359 C 0.78088 0.26918 0.77375 0.0
H360 H 0.51592 0.73153 0.20083 0.0
H361 H 0.51353 0.71715 0.33178 0.0
H362 H 0.55471 0.69486 0.25299 0.0
H363 H 0.48158 0.73015 0.24965 0.0
H364 H 0.48685 0.73167 0.30336 0.0
H365 H 0.50766 0.76849 0.20184 0.0
H366 H 0.54562 0.84231 0.25417 0.0
H367 H 0.51832 0.77297 0.33241 0.0
C368 C 0.52227 0.72516 0.22749 0.0
C369 C 0.53653 0.71314 0.22217 0.0
C370 C 0.51494 0.7277 0.26721 0.0
C371 C 0.52103 0.71707 0.30157 0.0
C372 C 0.53475 0.70448 0.29659 0.0
C373 C 0.54386 0.70428 0.25702 0.0
C374 C 0.49733 0.73821 0.27267 0.0
C375 C 0.51282 0.76751 0.2674 0.0
C376 C 0.51599 0.77992 0.22824 0.0
C377 C 0.52823 0.80693 0.22357 0.0
C378 C 0.53774 0.82163 0.25789 0.0
C379 C 0.53397 0.80965 0.29739 0.0
C380 C 0.52187 0.78251 0.30195 0.0
H381 H 0.77964 0.5714 0.72112 0.0
H382 H 0.76431 0.56752 0.85156 0.0
H383 H 0.69989 0.53607 0.76902 0.0
H384 H 0.8143 0.6022 0.77003 0.0
H385 H 0.8087 0.5948 0.82399 0.0
H386 H 0.81736 0.56995 0.72528 0.0
H387 H 0.86326 0.54268 0.78222 0.0
H388 H 0.82712 0.57247 0.85638 0.0
C389 C 0.76589 0.56431 0.74741 0.0
C390 C 0.73859 0.5518 0.74098 0.0
C391 C 0.7754 0.56916 0.78758 0.0
C392 C 0.75716 0.56224 0.82095 0.0
C393 C 0.72996 0.55077 0.81413 0.0
C394 C 0.72086 0.54461 0.77444 0.0
C395 C 0.80499 0.58581 0.79402 0.0
C396 C 0.81888 0.57116 0.79157 0.0
C397 C 0.82423 0.56521 0.75301 0.0
C398 C 0.8403 0.55505 0.74983 0.0
C399 C 0.85072 0.55044 0.78517 0.0
C400 C 0.84661 0.55708 0.82364 0.0
C401 C 0.83 0.56679 0.82693 0.0
H402 H 0.26867 0.78386 0.21721 0.0
H403 H 0.29017 0.78667 0.34369 0.0
H404 H 0.32151 0.85721 0.26776 0.0
H405 H 0.27105 0.74669 0.26337 0.0
H406 H 0.26394 0.74572 0.31661 0.0
H407 H 0.23585 0.72962 0.21643 0.0
H408 H 0.15628 0.69705 0.26282 0.0
H409 H 0.22198 0.74404 0.33887 0.0
C410 C 0.27858 0.79502 0.24328 0.0
C411 C 0.29482 0.82225 0.23804 0.0
C412 C 0.27614 0.78205 0.28173 0.0
C413 C 0.29065 0.79659 0.31481 0.0
C414 C 0.30742 0.82375 0.30962 0.0
C415 C 0.30839 0.83627 0.27176 0.0
C416 C 0.2616 0.75275 0.2857 0.0
C417 C 0.23231 0.73962 0.27776 0.0
C418 C 0.22237 0.72811 0.24039 0.0
C419 C 0.19493 0.71324 0.23494 0.0
C420 C 0.17744 0.71008 0.26662 0.0
C421 C 0.18679 0.72082 0.3045 0.0
C422 C 0.21441 0.7361 0.30954 0.0
H423 H 0.42672 0.23766 0.79661 0.0
H424 H 0.4356 0.2524 0.66473 0.0
H425 H 0.46245 0.3154 0.74321 0.0
H426 H 0.39899 0.20276 0.74788 0.0
H427 H 0.40682 0.20879 0.69408 0.0
H428 H 0.43221 0.20176 0.79643 0.0
H429 H 0.4695 0.16514 0.74622 0.0
H430 H 0.43431 0.19549 0.66553 0.0
C431 C 0.43424 0.25111 0.76965 0.0
C432 C 0.44573 0.27769 0.77421 0.0
C433 C 0.43109 0.24182 0.73005 0.0
C434 C 0.43919 0.25949 0.69523 0.0
C435 C 0.44996 0.28599 0.69986 0.0
C436 C 0.45402 0.29491 0.73939 0.0
C437 C 0.41581 0.21294 0.72474 0.0
C438 C 0.43295 0.20172 0.73006 0.0
C439 C 0.43911 0.19685 0.76983 0.0
C440 C 0.45281 0.18421 0.77551 0.0
C441 C 0.46021 0.17623 0.74151 0.0
C442 C 0.45335 0.17991 0.70196 0.0
C443 C 0.44024 0.19321 0.69604 0.0
C444 C 0.08466 0.47277 0.02472 0.0
C445 C 0.07518 0.48651 0.04354 0.0
C446 C 0.10648 0.47243 0.04001 0.0
C447 C 0.11796 0.48473 0.07649 0.0
C448 C 0.10822 0.4984 0.09584 0.0
C449 C 0.0872 0.49943 0.07876 0.0
C450 C 0.11671 0.45831 0.01771 0.0
C451 C 0.11923 0.51104 0.13557 0.0
C452 C 0.14948 0.45953 0.14965 0.0
C453 C 0.17597 0.48067 0.14844 0.0
C454 C 0.13055 0.46 0.12491 0.0
C455 C 0.13855 0.48158 0.09668 0.0
C456 C 0.16584 0.50141 0.09161 0.0
C457 C 0.18423 0.50094 0.11799 0.0
C458 C 0.10165 0.43859 0.13191 0.0
C459 C 0.17532 0.52408 0.0604 0.0
H460 H 0.07471 0.46187 0.99844 0.0
H461 H 0.07954 0.50967 0.09365 0.0
H462 H 0.13876 0.46979 0.0159 0.0
H463 H 0.1101 0.43948 0.03474 0.0
H464 H 0.10928 0.45435 0.9861 0.0
H465 H 0.10948 0.52095 0.1466 0.0
H466 H 0.11643 0.49614 0.15969 0.0
H467 H 0.14088 0.52551 0.13152 0.0
H468 H 0.14309 0.44346 0.17239 0.0
H469 H 0.20463 0.51734 0.1166 0.0
H470 H 0.09253 0.43067 0.10245 0.0
H471 H 0.09062 0.44659 0.14536 0.0
H472 H 0.09896 0.42238 0.15303 0.0
H473 H 0.16555 0.51734 0.03081 0.0
H474 H 0.19722 0.53503 0.05485 0.0
H475 H 0.16997 0.53758 0.07159 0.0
C476 C 0.59675 0.08604 0.5807 0.0
C477 C 0.6008 0.07489 0.54747 0.0
C478 C 0.61826 0.10637 0.59983 0.0
C479 C 0.64451 0.11652 0.58431 0.0
C480 C 0.64863 0.10614 0.54941 0.0
C481 C 0.62673 0.08492 0.53209 0.0
C482 C 0.61289 0.11629 0.63765 0.0
C483 C 0.67609 0.11686 0.5309 0.0
C484 C 0.69037 0.18021 0.63141 0.0
C485 C 0.6984 0.17169 0.66587 0.0
C486 C 0.6752 0.16301 0.60149 0.0
C487 C 0.66729 0.13662 0.60695 0.0
C488 C 0.67789 0.12876 0.63909 0.0
C489 C 0.69384 0.14659 0.66759 0.0
C490 C 0.66564 0.1725 0.56613 0.0
C491 C 0.66999 0.10084 0.6462 0.0
H492 H 0.57666 0.0782 0.59256 0.0
H493 H 0.62989 0.07602 0.50675 0.0
H494 H 0.62333 0.11396 0.66401 0.0
H495 H 0.62066 0.1373 0.63246 0.0
H496 H 0.59135 0.1059 0.64617 0.0
H497 H 0.67528 0.11241 0.4982 0.0
H498 H 0.68889 0.13821 0.5329 0.0
H499 H 0.68557 0.10786 0.54786 0.0
H500 H 0.69397 0.19962 0.62944 0.0
H501 H 0.70073 0.14014 0.69346 0.0
H502 H 0.64475 0.16646 0.57267 0.0
H503 H 0.66616 0.16384 0.53741 0.0
H504 H 0.67785 0.19401 0.56113 0.0
H505 H 0.64862 0.08858 0.65583 0.0
H506 H 0.68172 0.09837 0.67034 0.0
H507 H 0.67265 0.09352 0.61747 0.0
C508 C 0.52204 0.60302 0.11171 0.0
C509 C 0.52859 0.60389 0.07006 0.0
C510 C 0.5252 0.62485 0.12936 0.0
C511 C 0.53458 0.64817 0.10466 0.0
C512 C 0.54081 0.64919 0.06247 0.0
C513 C 0.538 0.62714 0.04575 0.0
C514 C 0.51848 0.62292 0.17465 0.0
C515 C 0.55049 0.67356 0.03505 0.0
C516 C 0.51657 0.69004 0.15875 0.0
C517 C 0.53922 0.7045 0.18172 0.0
C518 C 0.51573 0.67353 0.12967 0.0
C519 C 0.53795 0.67128 0.1239 0.0
C520 C 0.56191 0.68825 0.14323 0.0
C521 C 0.56233 0.7049 0.17157 0.0
C522 C 0.49006 0.65639 0.1087 0.0
C523 C 0.58613 0.68665 0.13801 0.0
H524 H 0.5141 0.58509 0.13067 0.0
H525 H 0.54344 0.62825 0.01366 0.0
H526 H 0.53598 0.63805 0.19043 0.0
H527 H 0.50221 0.6264 0.17901 0.0
H528 H 0.51216 0.60362 0.18979 0.0
H529 H 0.55303 0.67076 0.00242 0.0
H530 H 0.53625 0.67992 0.03705 0.0
H531 H 0.56981 0.68952 0.04549 0.0
H532 H 0.49861 0.6896 0.16628 0.0
H533 H 0.58004 0.7164 0.18876 0.0
H534 H 0.47931 0.6367 0.12466 0.0
H535 H 0.49393 0.65437 0.07631 0.0
H536 H 0.47693 0.66413 0.10939 0.0
H537 H 0.58293 0.66925 0.15627 0.0
H538 H 0.60429 0.70405 0.1487 0.0
H539 H 0.58954 0.68452 0.10547 0.0
C540 C 0.90873 0.50957 0.6115 0.0
C541 C 0.91758 0.52084 0.57148 0.0
C542 C 0.89226 0.51443 0.63473 0.0
C543 C 0.88422 0.53084 0.61744 0.0
C544 C 0.89149 0.54077 0.57604 0.0
C545 C 0.90819 0.53571 0.55352 0.0
C546 C 0.88489 0.50332 0.67871 0.0
C547 C 0.88299 0.558 0.55632 0.0
C548 C 0.83306 0.53178 0.68568 0.0
C549 C 0.84975 0.55232 0.70974 0.0
C550 C 0.84371 0.52563 0.65295 0.0
C551 C 0.87158 0.5403 0.64473 0.0
C552 C 0.88808 0.56229 0.66712 0.0
C553 C 0.87693 0.56801 0.69933 0.0
C554 C 0.82542 0.50235 0.62929 0.0
C555 C 0.91786 0.57852 0.65948 0.0
H556 H 0.91536 0.49751 0.62517 0.0
H557 H 0.91491 0.54445 0.52256 0.0
H558 H 0.89486 0.51929 0.69973 0.0
H559 H 0.86316 0.49347 0.68468 0.0
H560 H 0.8908 0.48918 0.68636 0.0
H561 H 0.88612 0.56024 0.52239 0.0
H562 H 0.86172 0.55007 0.56387 0.0
H563 H 0.89471 0.57754 0.56844 0.0
H564 H 0.81204 0.5196 0.69402 0.0
H565 H 0.88973 0.58389 0.71815 0.0
H566 H 0.82715 0.4858 0.64017 0.0
H567 H 0.83103 0.50646 0.59603 0.0
H568 H 0.80433 0.49634 0.63354 0.0
H569 H 0.92645 0.56689 0.66923 0.0
H570 H 0.92745 0.5964 0.67662 0.0
H571 H 0.9229 0.5842 0.62629 0.0
C572 C 0.38021 0.92405 0.04949 0.0
C573 C 0.40522 0.93258 0.06535 0.0
C574 C 0.35695 0.90304 0.06911 0.0
C575 C 0.35876 0.89136 0.10665 0.0
C576 C 0.38409 0.89999 0.12264 0.0
C577 C 0.40698 0.92007 0.10127 0.0
C578 C 0.33062 0.89401 0.04997 0.0
C579 C 0.38705 0.88871 0.16318 0.0
C580 C 0.3068 0.86162 0.19271 0.0
C581 C 0.30203 0.83645 0.1968 0.0
C582 C 0.32349 0.87941 0.16084 0.0
C583 C 0.33458 0.8714 0.13133 0.0
C584 C 0.32605 0.84486 0.13135 0.0
C585 C 0.31016 0.82769 0.16455 0.0
C586 C 0.3318 0.90746 0.16182 0.0
C587 C 0.3359 0.83521 0.0986 0.0
H588 H 0.37883 0.93391 0.02185 0.0
H589 H 0.42637 0.92665 0.11337 0.0
H590 H 0.31591 0.87307 0.0578 0.0
H591 H 0.32247 0.90527 0.06123 0.0
H592 H 0.33307 0.89744 0.016 0.0
H593 H 0.4081 0.89837 0.172 0.0
H594 H 0.37557 0.89072 0.18789 0.0
H595 H 0.37893 0.86768 0.16147 0.0
H596 H 0.29976 0.86821 0.21688 0.0
H597 H 0.30629 0.80818 0.16699 0.0
H598 H 0.32994 0.91498 0.13118 0.0
H599 H 0.353 0.91939 0.16981 0.0
H600 H 0.31974 0.91009 0.18467 0.0
H601 H 0.33662 0.84451 0.06799 0.0
H602 H 0.32307 0.81377 0.09745 0.0
H603 H 0.35635 0.84035 0.10521 0.0
C604 C 0.46745 0.39238 0.52562 0.0
C605 C 0.48892 0.4158 0.53808 0.0
C606 C 0.46183 0.36852 0.5439 0.0
C607 C 0.47775 0.36833 0.57589 0.0
C608 C 0.50063 0.39198 0.58628 0.0
C609 C 0.50597 0.41547 0.56708 0.0
C610 C 0.43761 0.34373 0.53138 0.0
C611 C 0.51803 0.39274 0.62041 0.0
C612 C 0.44447 0.32055 0.66773 0.0
C613 C 0.45435 0.3044 0.66456 0.0
C614 C 0.45117 0.34074 0.63815 0.0
C615 C 0.46781 0.34465 0.6039 0.0
C616 C 0.47637 0.3273 0.59891 0.0
C617 C 0.46959 0.30731 0.62953 0.0
C618 C 0.44157 0.35875 0.64486 0.0
C619 C 0.49365 0.33057 0.56233 0.0
H620 H 0.45428 0.3928 0.50318 0.0
H621 H 0.52257 0.43373 0.57652 0.0
H622 H 0.44173 0.32809 0.53006 0.0
H623 H 0.42119 0.33709 0.55453 0.0
H624 H 0.43077 0.34653 0.50103 0.0
H625 H 0.53683 0.41205 0.62093 0.0
H626 H 0.50713 0.38836 0.65038 0.0
H627 H 0.52294 0.37777 0.61726 0.0
H628 H 0.4321 0.31789 0.69433 0.0
H629 H 0.47709 0.29473 0.62693 0.0
H630 H 0.43114 0.36001 0.61762 0.0
H631 H 0.45883 0.37862 0.64905 0.0
H632 H 0.42787 0.35231 0.67225 0.0
H633 H 0.48598 0.33431 0.5336 0.0
H634 H 0.49486 0.3132 0.55939 0.0
H635 H 0.51404 0.34761 0.56561 0.0
C636 C 0.52524 0.91479 0.39559 0.0
C637 C 0.53348 0.92226 0.4354 0.0
C638 C 0.52715 0.89521 0.37874 0.0
C639 C 0.53746 0.88258 0.40228 0.0
C640 C 0.54577 0.88992 0.44253 0.0
C641 C 0.54368 0.90967 0.45863 0.0
C642 C 0.518 0.88797 0.33567 0.0
C643 C 0.55692 0.87696 0.46848 0.0
C644 C 0.51693 0.81795 0.3608 0.0
C645 C 0.53818 0.82541 0.33299 0.0
C646 C 0.51734 0.8359 0.38639 0.0
C647 C 0.53952 0.86184 0.38406 0.0
C648 C 0.56209 0.86867 0.3591 0.0
C649 C 0.56115 0.85035 0.33387 0.0
C650 C 0.49295 0.82771 0.41285 0.0
C651 C 0.58627 0.896 0.35596 0.0
H652 H 0.51686 0.92402 0.3777 0.0
H653 H 0.55032 0.91547 0.48928 0.0
H654 H 0.53466 0.89083 0.31593 0.0
H655 H 0.50194 0.86712 0.33607 0.0
H656 H 0.51049 0.89967 0.32146 0.0
H657 H 0.56214 0.88462 0.49942 0.0
H658 H 0.54227 0.8557 0.47217 0.0
H659 H 0.57499 0.87991 0.45292 0.0
H660 H 0.49904 0.79878 0.36004 0.0
H661 H 0.57767 0.85612 0.31255 0.0
H662 H 0.48186 0.83583 0.39841 0.0
H663 H 0.49856 0.83541 0.44366 0.0
H664 H 0.47945 0.80624 0.4166 0.0
H665 H 0.58164 0.90887 0.33766 0.0
H666 H 0.60357 0.89709 0.34081 0.0
H667 H 0.5919 0.90366 0.38679 0.0
C668 C 0.62083 0.54332 0.96987 0.0
C669 C 0.59636 0.52344 0.95648 0.0
C670 C 0.6448 0.54784 0.95312 0.0
C671 C 0.64411 0.53234 0.92185 0.0
C672 C 0.61931 0.51163 0.90937 0.0
C673 C 0.59571 0.50742 0.92693 0.0
C674 C 0.67078 0.56996 0.96742 0.0
C675 C 0.61765 0.4948 0.87587 0.0
C676 C 0.69753 0.56143 0.83722 0.0
C677 C 0.71116 0.54895 0.84591 0.0
C678 C 0.67644 0.55701 0.86275 0.0
C679 C 0.66886 0.53978 0.89819 0.0
C680 C 0.68362 0.52833 0.90858 0.0
C681 C 0.70471 0.53305 0.88216 0.0
C682 C 0.66135 0.56968 0.85043 0.0
C683 C 0.67629 0.51012 0.94639 0.0
H684 H 0.62117 0.55571 0.9927 0.0
H685 H 0.57666 0.49205 0.91676 0.0
H686 H 0.68482 0.56361 0.97345 0.0
H687 H 0.6801 0.58597 0.94296 0.0
H688 H 0.66804 0.57771 0.99571 0.0
H689 H 0.59702 0.47815 0.87235 0.0
H690 H 0.62489 0.50663 0.84619 0.0
H691 H 0.63057 0.48719 0.88239 0.0
H692 H 0.70277 0.57397 0.80932 0.0
H693 H 0.71528 0.52341 0.8888 0.0
H694 H 0.65995 0.58 0.87624 0.0
H695 H 0.64076 0.55457 0.84293 0.0
H696 H 0.67081 0.58376 0.8233 0.0
H697 H 0.67342 0.51867 0.97349 0.0
H698 H 0.69165 0.50554 0.95302 0.0
H699 H 0.65718 0.4917 0.94197 0.0
C700 C 0.06481 0.62412 0.46072 0.0
C701 C 0.05958 0.6015 0.44314 0.0
C702 C 0.08605 0.64871 0.44544 0.0
C703 C 0.10188 0.65054 0.41138 0.0
C704 C 0.09628 0.62764 0.3933 0.0
C705 C 0.07557 0.60347 0.4099 0.0
C706 C 0.09197 0.67254 0.46644 0.0
C707 C 0.11224 0.62857 0.35642 0.0
C708 C 0.14187 0.70674 0.33394 0.0
C709 C 0.16734 0.71137 0.33993 0.0
C710 C 0.12027 0.68887 0.36015 0.0
C711 C 0.12448 0.67601 0.39381 0.0
C712 C 0.15076 0.68394 0.40381 0.0
C713 C 0.17194 0.70137 0.37646 0.0
C714 C 0.09264 0.68119 0.34839 0.0
C715 C 0.15623 0.67156 0.44049 0.0
H716 H 0.05263 0.62246 0.48688 0.0
H717 H 0.07181 0.58592 0.39682 0.0
H718 H 0.11059 0.68005 0.4833 0.0
H719 H 0.09519 0.68822 0.44365 0.0
H720 H 0.07576 0.66829 0.48865 0.0
H721 H 0.10424 0.60909 0.34471 0.0
H722 H 0.11235 0.6416 0.33119 0.0
H723 H 0.13315 0.63655 0.36465 0.0
H724 H 0.13833 0.71504 0.30637 0.0
H725 H 0.19154 0.70496 0.38175 0.0
H726 H 0.07996 0.67783 0.37589 0.0
H727 H 0.08329 0.66275 0.33279 0.0
H728 H 0.09297 0.69621 0.32709 0.0
H729 H 0.14291 0.66821 0.46712 0.0
H730 H 0.1772 0.68376 0.44952 0.0
H731 H 0.15245 0.65243 0.43278 0.0
C732 C 0.46678 0.10088 0.96042 0.0
C733 C 0.47093 0.08475 0.93669 0.0
C734 C 0.4639 0.12051 0.94177 0.0
C735 C 0.46453 0.12363 0.89844 0.0
C736 C 0.46851 0.10734 0.87435 0.0
C737 C 0.47205 0.08844 0.89373 0.0
C738 C 0.46028 0.13791 0.96833 0.0
C739 C 0.46905 0.10983 0.82794 0.0
C740 C 0.43268 0.15261 0.83552 0.0
C741 C 0.45522 0.17449 0.81649 0.0
C742 C 0.43521 0.13692 0.86574 0.0
C743 C 0.46091 0.14368 0.87742 0.0
C744 C 0.48348 0.16754 0.86183 0.0
C745 C 0.48039 0.18251 0.83091 0.0
C746 C 0.41065 0.11152 0.8811 0.0
C747 C 0.51114 0.17585 0.87441 0.0
H748 H 0.46558 0.0981 0.9936 0.0
H749 H 0.47601 0.07671 0.87498 0.0
H750 H 0.47578 0.15856 0.95994 0.0
H751 H 0.44075 0.13553 0.96296 0.0
H752 H 0.46136 0.13367 0.00155 0.0
H753 H 0.47114 0.09485 0.81383 0.0
H754 H 0.4505 0.10803 0.81728 0.0
H755 H 0.48589 0.12927 0.81643 0.0
H756 H 0.41326 0.14631 0.82379 0.0
H757 H 0.49779 0.19939 0.81583 0.0
H758 H 0.41135 0.10748 0.91445 0.0
H759 H 0.40958 0.09548 0.86501 0.0
H760 H 0.39223 0.11139 0.87526 0.0
H761 H 0.51142 0.17162 0.90785 0.0
H762 H 0.52553 0.19691 0.86673 0.0
H763 H 0.51789 0.16483 0.85802 0.0
C764 C 0.40185 0.48169 0.38764 0.0
C765 C 0.40784 0.48853 0.42837 0.0
C766 C 0.38015 0.48053 0.3689 0.0
C767 C 0.36311 0.48521 0.39185 0.0
C768 C 0.36804 0.4907 0.43357 0.0
C769 C 0.39059 0.4928 0.4511 0.0
C770 C 0.3759 0.47495 0.32405 0.0
C771 C 0.34984 0.49493 0.45944 0.0
C772 C 0.32842 0.50825 0.32195 0.0
C773 C 0.30617 0.48452 0.31209 0.0
C774 C 0.34622 0.50908 0.35078 0.0
C775 C 0.34116 0.48562 0.3709 0.0
C776 C 0.31696 0.46201 0.3647 0.0
C777 C 0.29994 0.46165 0.33467 0.0
C778 C 0.37194 0.53463 0.35574 0.0
C779 C 0.31025 0.43675 0.38682 0.0
H780 H 0.41428 0.47741 0.36998 0.0
H781 H 0.39492 0.49836 0.48241 0.0
H782 H 0.35624 0.45698 0.32049 0.0
H783 H 0.37597 0.49105 0.30637 0.0
H784 H 0.39142 0.47254 0.31025 0.0
H785 H 0.35387 0.4948 0.49265 0.0
H786 H 0.35257 0.51393 0.44984 0.0
H787 H 0.32874 0.47969 0.455 0.0
H788 H 0.33344 0.52586 0.3039 0.0
H789 H 0.28283 0.44327 0.32671 0.0
H790 H 0.38838 0.53459 0.33977 0.0
H791 H 0.37674 0.5374 0.38856 0.0
H792 H 0.37124 0.55141 0.34257 0.0
H793 H 0.32154 0.42945 0.37201 0.0
H794 H 0.28872 0.42166 0.38581 0.0
H795 H 0.31591 0.43957 0.41936 0.0
C796 C 0.90653 0.36626 0.95156 0.0
C797 C 0.91747 0.39041 0.92953 0.0
C798 C 0.88677 0.34327 0.93467 0.0
C799 C 0.87826 0.34457 0.89463 0.0
C800 C 0.88985 0.36894 0.872 0.0
C801 C 0.90909 0.39154 0.8899 0.0
C802 C 0.87457 0.31776 0.95994 0.0
C803 C 0.88179 0.37124 0.82885 0.0
C804 C 0.84629 0.29186 0.82072 0.0
C805 C 0.82162 0.28944 0.81693 0.0
C806 C 0.8643 0.30772 0.84952 0.0
C807 C 0.8571 0.32087 0.87569 0.0
C808 C 0.83069 0.31504 0.87639 0.0
C809 C 0.81323 0.29945 0.84677 0.0
C810 C 0.89214 0.31314 0.8478 0.0
C811 C 0.82189 0.32794 0.90477 0.0
H812 H 0.91292 0.36548 0.98237 0.0
H813 H 0.91774 0.41023 0.87282 0.0
H814 H 0.85325 0.30995 0.96675 0.0
H815 H 0.87558 0.30323 0.94249 0.0
H816 H 0.88457 0.31981 0.98944 0.0
H817 H 0.89354 0.39148 0.81492 0.0
H818 H 0.88443 0.35859 0.80892 0.0
H819 H 0.86045 0.36461 0.82912 0.0
H820 H 0.85264 0.28371 0.79816 0.0
H821 H 0.79415 0.29758 0.84426 0.0
H822 H 0.90011 0.31502 0.87894 0.0
H823 H 0.90535 0.33181 0.82963 0.0
H824 H 0.89292 0.29763 0.83294 0.0
H825 H 0.83016 0.32926 0.93559 0.0
H826 H 0.79988 0.31728 0.90814 0.0
H827 H 0.82934 0.348 0.89202 0.0
C828 C 0.9414 0.54923 0.99142 0.0
C829 C 0.93973 0.52619 0.98321 0.0
C830 C 0.92356 0.55522 0.97407 0.0
C831 C 0.90425 0.53803 0.94717 0.0
C832 C 0.90146 0.5139 0.94132 0.0
C833 C 0.91912 0.5082 0.95972 0.0
C834 C 0.92663 0.58073 0.98218 0.0
C835 C 0.88148 0.49509 0.91255 0.0
C836 C 0.85002 0.54439 0.89738 0.0
C837 C 0.86204 0.5559 0.85859 0.0
C838 C 0.86409 0.54001 0.92803 0.0
C839 C 0.89052 0.54697 0.91925 0.0
C840 C 0.90316 0.56012 0.88105 0.0
C841 C 0.88892 0.56475 0.8516 0.0
C842 C 0.85024 0.52675 0.96889 0.0
C843 C 0.93121 0.56777 0.87003 0.0
H844 H 0.95735 0.56304 0.00978 0.0
H845 H 0.91794 0.49037 0.95352 0.0
H846 H 0.93734 0.59492 0.95562 0.0
H847 H 0.90692 0.57834 0.98596 0.0
H848 H 0.9381 0.58897 0.01005 0.0
H849 H 0.88001 0.47615 0.91466 0.0
H850 H 0.86153 0.49156 0.91928 0.0
H851 H 0.88743 0.50359 0.88046 0.0
H852 H 0.82934 0.53775 0.90314 0.0
H853 H 0.8986 0.57444 0.82213 0.0
H854 H 0.86388 0.53571 0.99439 0.0
H855 H 0.84388 0.50602 0.96981 0.0
H856 H 0.83234 0.52766 0.97414 0.0
H857 H 0.94499 0.57976 0.89367 0.0
H858 H 0.93851 0.57888 0.83972 0.0
H859 H 0.93201 0.55007 0.86907 0.0
C860 C 0.42216 0.91108 0.46293 0.0
C861 C 0.4236 0.93469 0.46361 0.0
C862 C 0.40078 0.88975 0.44509 0.0
C863 C 0.38077 0.89241 0.42678 0.0
C864 C 0.3813 0.91572 0.43 0.0
C865 C 0.40258 0.9365 0.44895 0.0
C866 C 0.40061 0.86504 0.44336 0.0
C867 C 0.36063 0.91956 0.41044 0.0
C868 C 0.35267 0.85867 0.32902 0.0
C869 C 0.32639 0.83934 0.34132 0.0
C870 C 0.37047 0.87571 0.3567 0.0
C871 C 0.36221 0.87295 0.39835 0.0
C872 C 0.33624 0.85252 0.41171 0.0
C873 C 0.3185 0.836 0.38291 0.0
C874 C 0.39792 0.89724 0.34094 0.0
C875 C 0.32701 0.84856 0.4561 0.0
H876 H 0.43834 0.90967 0.47485 0.0
H877 H 0.40362 0.95472 0.4502 0.0
H878 H 0.38029 0.84777 0.44999 0.0
H879 H 0.40691 0.86382 0.41201 0.0
H880 H 0.41435 0.86427 0.46546 0.0
H881 H 0.3621 0.93749 0.41971 0.0
H882 H 0.3633 0.92099 0.37651 0.0
H883 H 0.34035 0.9027 0.41872 0.0
H884 H 0.35925 0.86082 0.29723 0.0
H885 H 0.29831 0.821 0.39268 0.0
H886 H 0.41327 0.89567 0.35751 0.0
H887 H 0.40107 0.9164 0.34673 0.0
H888 H 0.40109 0.89681 0.30751 0.0
H889 H 0.34194 0.84868 0.47647 0.0
H890 H 0.3076 0.83001 0.46247 0.0
H891 H 0.32489 0.86478 0.46411 0.0
C892 C 0.46441 0.37043 0.9532 0.0
C893 C 0.47971 0.39465 0.93099 0.0
C894 C 0.45808 0.34731 0.93574 0.0
C895 C 0.46674 0.34836 0.89485 0.0
C896 C 0.48295 0.37278 0.87287 0.0
C897 C 0.4895 0.39554 0.89137 0.0
C898 C 0.44134 0.32172 0.96053 0.0
C899 C 0.49254 0.37488 0.82906 0.0
C900 C 0.468 0.29622 0.83922 0.0
C901 C 0.4463 0.28818 0.8141 0.0
C902 C 0.47348 0.31397 0.8692 0.0
C903 C 0.45718 0.3242 0.87315 0.0
C904 C 0.43389 0.31421 0.85028 0.0
C905 C 0.4287 0.29621 0.82115 0.0
C906 C 0.49803 0.32352 0.89385 0.0
C907 C 0.41605 0.32464 0.85309 0.0
H908 H 0.45664 0.36939 0.98377 0.0
H909 H 0.50206 0.41412 0.87436 0.0
H910 H 0.42094 0.31106 0.94885 0.0
H911 H 0.44961 0.30937 0.95736 0.0
H912 H 0.43998 0.32443 0.99362 0.0
H913 H 0.5054 0.39537 0.81653 0.0
H914 H 0.50392 0.36535 0.82715 0.0
H915 H 0.47526 0.36467 0.80918 0.0
H916 H 0.48177 0.29021 0.83333 0.0
H917 H 0.41211 0.29017 0.8012 0.0
H918 H 0.49422 0.32604 0.926 0.0
H919 H 0.51419 0.34273 0.88023 0.0
H920 H 0.50507 0.30997 0.894 0.0
H921 H 0.41144 0.32565 0.88559 0.0
H922 H 0.39708 0.31255 0.83748 0.0
H923 H 0.42644 0.34468 0.8384 0.0
C924 C 0.10081 0.48214 0.43372 0.0
C925 C 0.08862 0.49208 0.40906 0.0
C926 C 0.12109 0.47962 0.41736 0.0
C927 C 0.12878 0.48664 0.37523 0.0
C928 C 0.11623 0.49642 0.35022 0.0
C929 C 0.09652 0.49929 0.36759 0.0
C930 C 0.13441 0.46968 0.44508 0.0
C931 C 0.12342 0.50367 0.30493 0.0
C932 C 0.19272 0.50406 0.3209 0.0
C933 C 0.18373 0.48213 0.29845 0.0
C934 C 0.1758 0.5048 0.35005 0.0
C935 C 0.14933 0.48324 0.35623 0.0
C936 C 0.14137 0.45999 0.3373 0.0
C937 C 0.15883 0.45965 0.30894 0.0
C938 C 0.18533 0.52967 0.37067 0.0
C939 C 0.11338 0.43654 0.34284 0.0
H940 H 0.09479 0.47682 0.46595 0.0
H941 H 0.08695 0.50684 0.34858 0.0
H942 H 0.13175 0.4517 0.43367 0.0
H943 H 0.1561 0.48426 0.44476 0.0
H944 H 0.1264 0.46545 0.47728 0.0
H945 H 0.11136 0.51045 0.28971 0.0
H946 H 0.14471 0.51933 0.30053 0.0
H947 H 0.12045 0.48668 0.2893 0.0
H948 H 0.21196 0.52148 0.313 0.0
H949 H 0.15202 0.44253 0.29196 0.0
H950 H 0.17777 0.52555 0.40307 0.0
H951 H 0.17767 0.54068 0.35448 0.0
H952 H 0.20737 0.54217 0.36992 0.0
H953 H 0.10633 0.43277 0.37545 0.0
H954 H 0.11179 0.41882 0.33219 0.0
H955 H 0.09987 0.44025 0.32473 0.0
C956 C 0.60499 0.07314 0.94158 0.0
C957 C 0.58447 0.07493 0.95835 0.0
C958 C 0.62605 0.09426 0.91836 0.0
C959 C 0.62677 0.11781 0.91273 0.0
C960 C 0.60751 0.12044 0.93338 0.0
C961 C 0.58635 0.0988 0.9557 0.0
C962 C 0.646 0.0905 0.89662 0.0
C963 C 0.60796 0.14539 0.92913 0.0
C964 C 0.68712 0.17391 0.85256 0.0
C965 C 0.67759 0.17051 0.81269 0.0
C966 C 0.67056 0.15756 0.88609 0.0
C967 C 0.64411 0.13731 0.87924 0.0
C968 C 0.6342 0.1346 0.83927 0.0
C969 C 0.65091 0.15142 0.80675 0.0
C970 C 0.68158 0.1614 0.92846 0.0
C971 C 0.60614 0.11329 0.83042 0.0
H972 H 0.60355 0.05465 0.9443 0.0
H973 H 0.57054 0.10014 0.96925 0.0
H974 H 0.64209 0.08912 0.86333 0.0
H975 H 0.66649 0.10734 0.8999 0.0
H976 H 0.64489 0.07253 0.90852 0.0
H977 H 0.59525 0.14608 0.95332 0.0
H978 H 0.62853 0.16246 0.93073 0.0
H979 H 0.60046 0.14702 0.89877 0.0
H980 H 0.70768 0.18876 0.85732 0.0
H981 H 0.64319 0.14924 0.77619 0.0
H982 H 0.68455 0.14541 0.93778 0.0
H983 H 0.66736 0.16076 0.95123 0.0
H984 H 0.70093 0.18015 0.92968 0.0
H985 H 0.60315 0.09402 0.83881 0.0
H986 H 0.60156 0.11396 0.79757 0.0
H987 H 0.59164 0.11489 0.84927 0.0
C988 C 0.51379 0.59511 0.46288 0.0
C989 C 0.53751 0.59603 0.46872 0.0
C990 C 0.51395 0.6161 0.44286 0.0
C991 C 0.53837 0.63808 0.42728 0.0
C992 C 0.56254 0.63993 0.43635 0.0
C993 C 0.5618 0.61898 0.45775 0.0
C994 C 0.4878 0.61369 0.43511 0.0
C995 C 0.58896 0.66272 0.4197 0.0
C996 C 0.53313 0.66438 0.32276 0.0
C997 C 0.53635 0.68823 0.33095 0.0
C998 C 0.53462 0.64852 0.35368 0.0
C999 C 0.53812 0.65588 0.3946 0.0
C1000 C 0.54065 0.6795 0.40367 0.0
C1001 C 0.54004 0.69559 0.3716 0.0
C1002 C 0.53213 0.62363 0.34239 0.0
C1003 C 0.54354 0.68749 0.44721 0.0
H1004 H 0.49501 0.57744 0.47207 0.0
H1005 H 0.58013 0.61974 0.46323 0.0
H1006 H 0.48946 0.63245 0.43861 0.0
H1007 H 0.48211 0.60829 0.40317 0.0
H1008 H 0.47164 0.59852 0.45632 0.0
H1009 H 0.60587 0.66346 0.4353 0.0
H1010 H 0.59102 0.66096 0.38643 0.0
H1011 H 0.59025 0.68131 0.42301 0.0
H1012 H 0.52901 0.65771 0.29201 0.0
H1013 H 0.54245 0.71387 0.37839 0.0
H1014 H 0.51359 0.60665 0.35665 0.0
H1015 H 0.54901 0.62264 0.35425 0.0
H1016 H 0.5317 0.62187 0.30866 0.0
H1017 H 0.52581 0.67271 0.46626 0.0
H1018 H 0.54578 0.70666 0.44908 0.0
H1019 H 0.56103 0.68842 0.46077 0.0
C1020 C 0.49886 0.09653 0.60529 0.0
C1021 C 0.48814 0.08519 0.56828 0.0
C1022 C 0.4931 0.11378 0.62183 0.0
C1023 C 0.47639 0.12014 0.60074 0.0
C1024 C 0.4663 0.10958 0.56261 0.0
C1025 C 0.4722 0.09216 0.54692 0.0
C1026 C 0.50425 0.12453 0.66264 0.0
C1027 C 0.44855 0.11599 0.53909 0.0
C1028 C 0.43966 0.13851 0.6718 0.0
C1029 C 0.45609 0.16565 0.66925 0.0
C1030 C 0.44521 0.12352 0.64785 0.0
C1031 C 0.46781 0.13603 0.62061 0.0
C1032 C 0.48351 0.16357 0.61599 0.0
C1033 C 0.47754 0.17813 0.64066 0.0
C1034 C 0.42798 0.09427 0.65399 0.0
C1035 C 0.50755 0.17762 0.58693 0.0
H1036 H 0.51169 0.09179 0.62158 0.0
H1037 H 0.46365 0.08341 0.51846 0.0
H1038 H 0.51513 0.14605 0.65995 0.0
H1039 H 0.48776 0.11752 0.68582 0.0
H1040 H 0.51795 0.1187 0.67415 0.0
H1041 H 0.44465 0.10845 0.50801 0.0
H1042 H 0.42926 0.1074 0.55627 0.0
H1043 H 0.45766 0.13733 0.53589 0.0
H1044 H 0.42324 0.12896 0.69435 0.0
H1045 H 0.49041 0.19913 0.6392 0.0
H1046 H 0.43947 0.08681 0.66908 0.0
H1047 H 0.42192 0.08549 0.62399 0.0
H1048 H 0.40981 0.08763 0.67336 0.0
H1049 H 0.52355 0.17539 0.59942 0.0
H1050 H 0.51527 0.19869 0.58244 0.0
H1051 H 0.50272 0.1691 0.55663 0.0
C1052 C 0.41459 0.49986 0.04275 0.0
C1053 C 0.41517 0.4773 0.04174 0.0
C1054 C 0.39297 0.49917 0.06136 0.0
C1055 C 0.37179 0.47545 0.08018 0.0
C1056 C 0.37149 0.45228 0.07656 0.0
C1057 C 0.39308 0.45345 0.05679 0.0
C1058 C 0.39383 0.52421 0.06363 0.0
C1059 C 0.34959 0.42667 0.09672 0.0
C1060 C 0.34396 0.4831 0.17868 0.0
C1061 C 0.31896 0.47818 0.16758 0.0
C1062 C 0.36075 0.48148 0.15081 0.0
C1063 C 0.35305 0.47584 0.1099 0.0
C1064 C 0.32817 0.47136 0.09787 0.0
C1065 C 0.31128 0.47237 0.12698 0.0
C1066 C 0.38699 0.48619 0.16523 0.0
C1067 C 0.31963 0.4659 0.05422 0.0
H1068 H 0.4316 0.51825 0.03056 0.0
H1069 H 0.39347 0.43598 0.05528 0.0
H1070 H 0.37406 0.52115 0.05767 0.0
H1071 H 0.39916 0.53114 0.09494 0.0
H1072 H 0.40874 0.53968 0.04129 0.0
H1073 H 0.35008 0.41002 0.08582 0.0
H1074 H 0.35189 0.42688 0.13046 0.0
H1075 H 0.32983 0.4236 0.09082 0.0
H1076 H 0.35085 0.48877 0.20927 0.0
H1077 H 0.29213 0.46866 0.11793 0.0
H1078 H 0.40364 0.50403 0.14892 0.0
H1079 H 0.38902 0.46979 0.15798 0.0
H1080 H 0.38909 0.48848 0.19879 0.0
H1081 H 0.33406 0.48258 0.03313 0.0
H1082 H 0.29954 0.46245 0.04987 0.0
H1083 H 0.31958 0.44865 0.04517 0.0
C1084 C 0.93162 0.40034 0.55155 0.0
C1085 C 0.93033 0.42201 0.53994 0.0
C1086 C 0.91019 0.37849 0.57295 0.0
C1087 C 0.88672 0.37815 0.58172 0.0
C1088 C 0.88457 0.39913 0.56664 0.0
C1089 C 0.90656 0.42098 0.5461 0.0
C1090 C 0.91348 0.35672 0.58884 0.0
C1091 C 0.85966 0.39923 0.57439 0.0
C1092 C 0.82778 0.31479 0.63024 0.0
C1093 C 0.83098 0.31956 0.67203 0.0
C1094 C 0.84527 0.33394 0.60005 0.0
C1095 C 0.86655 0.35814 0.61216 0.0
C1096 C 0.86939 0.3632 0.65419 0.0
C1097 C 0.85136 0.34409 0.68337 0.0
C1098 C 0.84128 0.32817 0.55538 0.0
C1099 C 0.89187 0.38865 0.6686 0.0
H1100 H 0.94985 0.40098 0.54546 0.0
H1101 H 0.90552 0.43764 0.53611 0.0
H1102 H 0.91486 0.35687 0.62274 0.0
H1103 H 0.89598 0.33762 0.58184 0.0
H1104 H 0.93165 0.35859 0.57555 0.0
H1105 H 0.85939 0.41451 0.55467 0.0
H1106 H 0.84173 0.38006 0.5688 0.0
H1107 H 0.85843 0.4029 0.60697 0.0
H1108 H 0.81198 0.29598 0.62121 0.0
H1109 H 0.8534 0.3484 0.71541 0.0
H1110 H 0.85798 0.3271 0.54301 0.0
H1111 H 0.84126 0.34406 0.53721 0.0
H1112 H 0.82239 0.30953 0.55076 0.0
H1113 H 0.8915 0.38926 0.70254 0.0
H1114 H 0.89076 0.40501 0.6547 0.0
H1115 H 0.91126 0.39186 0.6585 0.0
C1116 C 0.5142 0.89865 0.05413 0.0
C1117 C 0.52127 0.92021 0.07685 0.0
C1118 C 0.5168 0.87832 0.07019 0.0
C1119 C 0.52577 0.8791 0.11045 0.0
C1120 C 0.53372 0.9011 0.13305 0.0
C1121 C 0.53186 0.92154 0.11567 0.0
C1122 C 0.50902 0.85561 0.04464 0.0
C1123 C 0.54311 0.9026 0.17638 0.0
C1124 C 0.50215 0.81878 0.18023 0.0
C1125 C 0.52589 0.81972 0.18575 0.0
C1126 C 0.50133 0.83701 0.15337 0.0
C1127 C 0.52473 0.85618 0.13085 0.0
C1128 C 0.54803 0.85543 0.13321 0.0
C1129 C 0.54851 0.83748 0.16144 0.0
C1130 C 0.47622 0.83741 0.15255 0.0
C1131 C 0.57304 0.87487 0.10847 0.0
H1132 H 0.5058 0.89713 0.02426 0.0
H1133 H 0.53829 0.93841 0.13303 0.0
H1134 H 0.52397 0.8501 0.04658 0.0
H1135 H 0.48973 0.83854 0.05659 0.0
H1136 H 0.50695 0.85997 0.01186 0.0
H1137 H 0.54865 0.92113 0.18969 0.0
H1138 H 0.52719 0.88627 0.19639 0.0
H1139 H 0.56059 0.90071 0.17697 0.0
H1140 H 0.48486 0.80528 0.19977 0.0
H1141 H 0.56693 0.8383 0.16623 0.0
H1142 H 0.47092 0.83907 0.12051 0.0
H1143 H 0.47955 0.85465 0.16781 0.0
H1144 H 0.45913 0.81972 0.16858 0.0
H1145 H 0.56834 0.87832 0.07681 0.0
H1146 H 0.58712 0.86827 0.10684 0.0
H1147 H 0.58312 0.89369 0.12299 0.0
C1148 C 0.6187 0.52016 0.62422 0.0
C1149 C 0.61871 0.52548 0.58181 0.0
C1150 C 0.64185 0.52513 0.64336 0.0
C1151 C 0.66557 0.53489 0.61943 0.0
C1152 C 0.66556 0.53923 0.5764 0.0
C1153 C 0.64225 0.53483 0.55816 0.0
C1154 C 0.64098 0.52043 0.68949 0.0
C1155 C 0.69027 0.54899 0.54975 0.0
C1156 C 0.72527 0.57062 0.68484 0.0
C1157 C 0.72797 0.55026 0.69981 0.0
C1158 C 0.70651 0.56655 0.65549 0.0
C1159 C 0.69042 0.54159 0.64041 0.0
C1160 C 0.69535 0.52187 0.65196 0.0
C1161 C 0.71383 0.52632 0.68218 0.0
C1162 C 0.70174 0.58804 0.6446 0.0
C1163 C 0.67928 0.49528 0.63558 0.0
H1164 H 0.60055 0.51216 0.64276 0.0
H1165 H 0.64272 0.53927 0.52545 0.0
H1166 H 0.64636 0.50596 0.69743 0.0
H1167 H 0.65574 0.5387 0.70337 0.0
H1168 H 0.62106 0.51325 0.70369 0.0
H1169 H 0.68614 0.54824 0.51651 0.0
H1170 H 0.70532 0.56938 0.55595 0.0
H1171 H 0.69914 0.53732 0.55709 0.0
H1172 H 0.7359 0.58896 0.69922 0.0
H1173 H 0.71569 0.51049 0.6943 0.0
H1174 H 0.68317 0.58356 0.66068 0.0
H1175 H 0.69913 0.58958 0.61117 0.0
H1176 H 0.71831 0.60716 0.65378 0.0
H1177 H 0.65952 0.48404 0.65184 0.0
H1178 H 0.68916 0.48429 0.64027 0.0
H1179 H 0.67599 0.49675 0.60236 0.0
C1180 C 0.08062 0.6035 0.12042 0.0
C1181 C 0.08607 0.59516 0.08463 0.0
C1182 C 0.10091 0.62443 0.14052 0.0
C1183 C 0.12733 0.63787 0.12403 0.0
C1184 C 0.1329 0.63024 0.08717 0.0
C1185 C 0.11229 0.60884 0.06816 0.0
C1186 C 0.09413 0.63176 0.18003 0.0
C1187 C 0.16072 0.64433 0.0683 0.0
C1188 C 0.1717 0.70323 0.16875 0.0
C1189 C 0.18353 0.69672 0.20005 0.0
C1190 C 0.15483 0.68473 0.14154 0.0
C1191 C 0.14912 0.65901 0.14677 0.0
C1192 C 0.16221 0.65285 0.1771 0.0
C1193 C 0.1794 0.67187 0.20323 0.0
C1194 C 0.14177 0.69225 0.10901 0.0
C1195 C 0.15639 0.62562 0.18427 0.0
H1196 H 0.06043 0.59357 0.13298 0.0
H1197 H 0.11694 0.60247 0.04089 0.0
H1198 H 0.10545 0.62986 0.2054 0.0
H1199 H 0.09997 0.65235 0.17703 0.0
H1200 H 0.0726 0.61943 0.18869 0.0
H1201 H 0.16135 0.63753 0.03771 0.0
H1202 H 0.16909 0.66555 0.06494 0.0
H1203 H 0.17376 0.6413 0.0888 0.0
H1204 H 0.17461 0.72237 0.1669 0.0
H1205 H 0.18815 0.6668 0.22814 0.0
H1206 H 0.12054 0.68347 0.118 0.0
H1207 H 0.14252 0.68472 0.07921 0.0
H1208 H 0.15137 0.71365 0.10471 0.0
H1209 H 0.13569 0.61252 0.19673 0.0
H1210 H 0.17005 0.62462 0.20628 0.0
H1211 H 0.158 0.61813 0.15496 0.0
loop_
_geom_bond_atom_site_label_1
_geom_bond_atom_site_label_2
_geom_bond_distance
_geom_bond_site_symmetry_2
_ccdc_geom_bond_type
C0 C1 1.443 1_556 S
C0 N4 1.376 1_556 S
C0 C38 1.389 . S
C1 C0 1.443 1_554 S
C1 C2 1.340 . S
C1 H41 0.951 . S
C2 C1 1.340 . S
C2 C3 1.439 . S
C2 H42 0.950 . S
C3 C2 1.439 . S
C3 N4 1.374 . S
C3 C37 1.395 . S
N4 C0 1.376 1_554 S
N4 C3 1.374 . S
N4 Co5 2.008 1_655 S
Co5 N4 2.008 1_455 S
Co5 N6 1.995 . S
Co5 N11 2.008 1_554 S
Co5 N16 1.995 1_554 S
Co5 N21 2.282 . S
Co5 N27 2.282 1_454 S
N6 Co5 1.995 . S
N6 C7 1.376 1_455 S
N6 C10 1.383 . S
C7 N6 1.376 1_655 S
C7 C8 1.446 . S
C7 C37 1.391 . S
C8 C7 1.446 . S
C8 C9 1.339 1_655 S
C8 H43 0.949 . S
C9 C8 1.339 1_455 S
C9 C10 1.439 . S
C9 H44 0.950 . S
C10 N6 1.383 . S
C10 C9 1.439 . S
C10 C39 1.392 . S
N11 Co5 2.008 1_556 S
N11 C12 1.376 1_556 S
N11 C15 1.374 . S
C12 N11 1.376 1_554 S
C12 C13 1.443 1_554 S
C12 C39 1.389 . S
C13 C12 1.443 1_556 S
C13 C14 1.340 . S
C13 H45 0.951 . S
C14 C13 1.340 . S
C14 C15 1.439 . S
C14 H46 0.950 . S
C15 N11 1.374 . S
C15 C14 1.439 . S
C15 C40 1.395 . S
N16 Co5 1.995 1_556 S
N16 C17 1.376 . S
N16 C20 1.383 1_455 S
C17 N16 1.376 . S
C17 C18 1.446 . S
C17 C40 1.391 . S
C18 C17 1.446 . S
C18 C19 1.339 1_455 S
C18 H47 0.949 . S
C19 C18 1.339 1_655 S
C19 C20 1.439 . S
C19 H48 0.950 . S
C20 N16 1.383 1_655 S
C20 C19 1.439 . S
C20 C38 1.392 . S
N21 Co5 2.282 . S
N21 C24 1.332 . S
N21 C26 1.332 . S
C22 C23 1.386 . S
C22 C25 1.388 . S
C23 C22 1.386 . S
C23 C24 1.382 . S
C23 H49 0.950 . S
C24 N21 1.332 . S
C24 C23 1.382 . S
C24 H35 0.952 1_554 S
C25 C22 1.388 . S
C25 C26 1.382 . S
C25 H50 0.950 . S
C26 N21 1.332 . S
C26 C25 1.382 . S
C26 H36 0.948 . S
N27 Co5 2.282 1_656 S
N27 C31 1.332 . S
N27 C32 1.332 . S
C28 C29 1.388 . S
C28 C32 1.382 . S
C28 H51 0.950 . S
C29 C28 1.388 . S
C29 C30 1.386 . S
C30 C29 1.386 . S
C30 C31 1.382 . S
C30 H52 0.950 . S
C31 N27 1.332 . S
C31 C30 1.382 . S
C31 H33 0.952 1_556 S
C32 N27 1.332 . S
C32 C28 1.382 . S
C32 H34 0.948 . S
H33 C31 0.952 1_554 S
H34 C32 0.948 . S
H35 C24 0.952 1_556 S
H36 C26 0.948 . S
C37 C3 1.395 . S
C37 C7 1.391 . S
C38 C0 1.389 . S
C38 C20 1.392 . S
C39 C10 1.392 . S
C39 C12 1.389 . S
C40 C15 1.395 . S
C40 C17 1.391 . S
H41 C1 0.951 . S
H42 C2 0.950 . S
H43 C8 0.949 . S
H44 C9 0.950 . S
H45 C13 0.951 . S
H46 C14 0.950 . S
H47 C18 0.949 . S
H48 C19 0.950 . S
H49 C23 0.950 . S
H50 C25 0.950 . S
H51 C28 0.950 . S
H52 C30 0.950 . S
C53 C54 1.443 . S
C53 N57 1.376 . S
C53 C91 1.389 . S
C54 C53 1.443 . S
C54 C55 1.340 1_545 S
C54 H94 0.951 . S
C55 C54 1.340 1_565 S
C55 C56 1.439 . S
C55 H95 0.950 . S
C56 C55 1.439 . S
C56 N57 1.374 1_565 S
C56 C90 1.395 . S
N57 C53 1.376 . S
N57 C56 1.374 1_545 S
N57 Co58 2.008 . S
Co58 N57 2.008 . S
Co58 N59 1.995 1_545 S
Co58 N64 2.008 . S
Co58 N69 1.995 . S
Co58 N74 2.282 1_545 S
Co58 N80 2.282 . S
N59 Co58 1.995 1_565 S
N59 C60 1.376 . S
N59 C63 1.383 . S
C60 N59 1.376 . S
C60 C61 1.446 . S
C60 C90 1.391 . S
C61 C60 1.446 . S
C61 C62 1.339 . S
C61 H96 0.949 . S
C62 C61 1.339 . S
C62 C63 1.439 . S
C62 H97 0.950 . S
C63 N59 1.383 . S
C63 C62 1.439 . S
C63 C92 1.392 . S
N64 Co58 2.008 . S
N64 C65 1.376 1_545 S
N64 C68 1.374 . S
C65 N64 1.376 1_565 S
C65 C66 1.443 . S
C65 C92 1.389 . S
C66 C65 1.443 . S
C66 C67 1.340 1_565 S
C66 H98 0.951 . S
C67 C66 1.340 1_545 S
C67 C68 1.439 . S
C67 H99 0.950 . S
C68 N64 1.374 . S
C68 C67 1.439 . S
C68 C93 1.395 . S
N69 Co58 1.995 . S
N69 C70 1.376 . S
N69 C73 1.383 . S
C70 N69 1.376 . S
C70 C71 1.446 . S
C70 C93 1.391 . S
C71 C70 1.446 . S
C71 C72 1.339 . S
C71 H100 0.949 . S
C72 C71 1.339 . S
C72 C73 1.439 . S
C72 H101 0.950 . S
C73 N69 1.383 . S
C73 C72 1.439 . S
C73 C91 1.392 . S
N74 Co58 2.282 1_565 S
N74 C77 1.332 . S
N74 C79 1.332 . S
C75 C76 1.386 . S
C75 C78 1.388 . S
C76 C75 1.386 . S
C76 C77 1.382 . S
C76 H102 0.950 . S
C77 N74 1.332 . S
C77 C76 1.382 . S
C77 H88 0.952 1_565 S
C78 C75 1.388 . S
C78 C79 1.382 . S
C78 H103 0.950 . S
C79 N74 1.332 . S
C79 C78 1.382 . S
C79 H89 0.948 . S
N80 Co58 2.282 . S
N80 C84 1.332 . S
N80 C85 1.332 . S
C81 C82 1.388 . S
C81 C85 1.382 . S
C81 H104 0.950 . S
C82 C81 1.388 . S
C82 C83 1.386 . S
C83 C82 1.386 . S
C83 C84 1.382 . S
C83 H105 0.950 . S
C84 N80 1.332 . S
C84 C83 1.382 . S
C84 H86 0.952 . S
C85 N80 1.332 . S
C85 C81 1.382 . S
C85 H87 0.948 . S
H86 C84 0.952 . S
H87 C85 0.948 . S
H88 C77 0.952 1_545 S
H89 C79 0.948 . S
C90 C56 1.395 . S
C90 C60 1.391 . S
C91 C53 1.389 . S
C91 C73 1.392 . S
C92 C63 1.392 . S
C92 C65 1.389 . S
C93 C68 1.395 . S
C93 C70 1.391 . S
H94 C54 0.951 . S
H95 C55 0.950 . S
H96 C61 0.949 . S
H97 C62 0.950 . S
H98 C66 0.951 . S
H99 C67 0.950 . S
H100 C71 0.949 . S
H101 C72 0.950 . S
H102 C76 0.950 . S
H103 C78 0.950 . S
H104 C81 0.950 . S
H105 C83 0.950 . S
C106 C107 1.443 . S
C106 N110 1.376 . S
C106 C144 1.389 . S
C107 C106 1.443 . S
C107 C108 1.340 . S
C107 H147 0.951 . S
C108 C107 1.340 . S
C108 C109 1.439 . S
C108 H148 0.950 . S
C109 C108 1.439 . S
C109 N110 1.374 . S
C109 C143 1.395 . S
N110 C106 1.376 . S
N110 C109 1.374 . S
N110 Co111 2.008 1_556 S
Co111 N110 2.008 1_554 S
Co111 N112 1.995 1_554 S
Co111 N117 2.008 . S
Co111 N122 1.995 . S
Co111 N127 2.282 . S
Co111 N133 2.282 1_554 S
N112 Co111 1.995 1_556 S
N112 C113 1.376 . S
N112 C116 1.383 1_556 S
C113 N112 1.376 . S
C113 C114 1.446 . S
C113 C143 1.391 . S
C114 C113 1.446 . S
C114 C115 1.339 . S
C114 H149 0.949 . S
C115 C114 1.339 . S
C115 C116 1.439 1_556 S
C115 H150 0.950 . S
C116 N112 1.383 1_554 S
C116 C115 1.439 1_554 S
C116 C145 1.392 . S
N117 Co111 2.008 . S
N117 C118 1.376 . S
N117 C121 1.374 . S
C118 N117 1.376 . S
C118 C119 1.443 . S
C118 C145 1.389 . S
C119 C118 1.443 . S
C119 C120 1.340 . S
C119 H151 0.951 . S
C120 C119 1.340 . S
C120 C121 1.439 . S
C120 H152 0.950 . S
C121 N117 1.374 . S
C121 C120 1.439 . S
C121 C146 1.395 . S
N122 Co111 1.995 . S
N122 C123 1.376 . S
N122 C126 1.383 . S
C123 N122 1.376 . S
C123 C124 1.446 . S
C123 C146 1.391 . S
C124 C123 1.446 . S
C124 C125 1.339 . S
C124 H153 0.949 . S
C125 C124 1.339 . S
C125 C126 1.439 . S
C125 H154 0.950 . S
C126 N122 1.383 . S
C126 C125 1.439 . S
C126 C144 1.392 1_554 S
N127 Co111 2.282 . S
N127 C130 1.332 . S
N127 C132 1.332 . S
C128 C129 1.386 . S
C128 C131 1.388 . S
C129 C128 1.386 . S
C129 C130 1.382 . S
C129 H155 0.950 . S
C130 N127 1.332 . S
C130 C129 1.382 . S
C130 H141 0.952 . S
C131 C128 1.388 . S
C131 C132 1.382 . S
C131 H156 0.950 . S
C132 N127 1.332 . S
C132 C131 1.382 . S
C132 H142 0.948 1_554 S
N133 Co111 2.282 1_556 S
N133 C137 1.332 . S
N133 C138 1.332 . S
C134 C135 1.388 . S
C134 C138 1.382 . S
C134 H157 0.950 . S
C135 C134 1.388 . S
C135 C136 1.386 . S
C136 C135 1.386 . S
C136 C137 1.382 . S
C136 H158 0.950 . S
C137 N133 1.332 . S
C137 C136 1.382 . S
C137 H139 0.952 . S
C138 N133 1.332 . S
C138 C134 1.382 . S
C138 H140 0.948 1_556 S
H139 C137 0.952 . S
H140 C138 0.948 1_554 S
H141 C130 0.952 . S
H142 C132 0.948 1_556 S
C143 C109 1.395 . S
C143 C113 1.391 . S
C144 C106 1.389 . S
C144 C126 1.392 1_556 S
C145 C116 1.392 . S
C145 C118 1.389 . S
C146 C121 1.395 . S
C146 C123 1.391 . S
H147 C107 0.951 . S
H148 C108 0.950 . S
H149 C114 0.949 . S
H150 C115 0.950 . S
H151 C119 0.951 . S
H152 C120 0.950 . S
H153 C124 0.949 . S
H154 C125 0.950 . S
H155 C129 0.950 . S
H156 C131 0.950 . S
H157 C134 0.950 . S
H158 C136 0.950 . S
C159 C160 1.443 . S
C159 N163 1.376 . S
C159 C197 1.389 . S
C160 C159 1.443 . S
C160 C161 1.340 . S
C160 H200 0.951 . S
C161 C160 1.340 . S
C161 C162 1.439 . S
C161 H201 0.950 . S
C162 C161 1.439 . S
C162 N163 1.374 . S
C162 C196 1.395 . S
N163 C159 1.376 . S
N163 C162 1.374 . S
N163 Co164 1.983 1_655 S
Co164 N163 1.983 1_455 S
Co164 N165 1.983 . S
Co164 N170 2.034 . S
Co164 N175 2.018 1_455 S
Co164 N180 2.317 . S
Co164 N186 2.248 1_455 S
N165 Co164 1.983 . S
N165 C166 1.376 1_455 S
N165 C169 1.383 . S
C166 N165 1.376 1_655 S
C166 C167 1.446 . S
C166 C196 1.391 . S
C167 C166 1.446 . S
C167 C168 1.339 1_655 S
C167 H202 0.949 . S
C168 C167 1.339 1_455 S
C168 C169 1.439 . S
C168 H203 0.950 . S
C169 N165 1.383 . S
C169 C168 1.439 . S
C169 C198 1.392 . S
N170 Co164 2.034 . S
N170 C171 1.376 . S
N170 C174 1.374 . S
C171 N170 1.376 . S
C171 C172 1.443 . S
C171 C198 1.389 . S
C172 C171 1.443 . S
C172 C173 1.340 . S
C172 H204 0.951 . S
C173 C172 1.340 . S
C173 C174 1.439 . S
C173 H205 0.950 . S
C174 N170 1.374 . S
C174 C173 1.439 . S
C174 C199 1.395 . S
N175 Co164 2.018 1_655 S
N175 C176 1.354 1_655 S
N175 C179 1.396 . S
C176 N175 1.354 1_455 S
C176 C177 1.446 . S
C176 C199 1.391 . S
C177 C176 1.446 . S
C177 C178 1.339 1_455 S
C177 H206 0.949 . S
C178 C177 1.339 1_655 S
C178 C179 1.439 . S
C178 H207 0.950 . S
C179 N175 1.396 . S
C179 C178 1.439 . S
C179 C197 1.392 . S
N180 Co164 2.317 . S
N180 C183 1.332 . S
N180 C185 1.332 . S
C181 C182 1.386 . S
C181 C184 1.388 . S
C182 C181 1.386 . S
C182 C183 1.382 . S
C182 H208 0.950 . S
C183 N180 1.332 . S
C183 C182 1.382 . S
C183 H194 0.952 . S
C184 C181 1.388 . S
C184 C185 1.382 . S
C184 H209 0.950 . S
C185 N180 1.332 . S
C185 C184 1.382 . S
C185 H195 0.948 . S
N186 Co164 2.248 1_655 S
N186 C190 1.332 . S
N186 C191 1.332 . S
C187 C188 1.388 . S
C187 C191 1.382 . S
C187 H210 0.950 . S
C188 C187 1.388 . S
C188 C189 1.386 . S
C189 C188 1.386 . S
C189 C190 1.382 . S
C189 H211 0.950 . S
C190 N186 1.332 . S
C190 C189 1.382 . S
C190 H192 0.952 . S
C191 N186 1.332 . S
C191 C187 1.382 . S
C191 H193 0.948 . S
H192 C190 0.952 . S
H193 C191 0.948 . S
H194 C183 0.952 . S
H195 C185 0.948 . S
C196 C162 1.395 . S
C196 C166 1.391 . S
C197 C159 1.389 . S
C197 C179 1.392 . S
C198 C169 1.392 . S
C198 C171 1.389 . S
C199 C174 1.395 . S
C199 C176 1.391 . S
H200 C160 0.951 . S
H201 C161 0.950 . S
H202 C167 0.949 . S
H203 C168 0.950 . S
H204 C172 0.951 . S
H205 C173 0.950 . S
H206 C177 0.949 . S
H207 C178 0.950 . S
H208 C182 0.950 . S
H209 C184 0.950 . S
H210 C187 0.950 . S
H211 C189 0.950 . S
C212 C213 1.443 . S
C212 N216 1.369 1_565 S
C212 C250 1.389 . S
C213 C212 1.443 . S
C213 C214 1.340 1_565 S
C213 H253 0.951 . S
C214 C213 1.340 1_545 S
C214 C215 1.439 . S
C214 H254 0.950 . S
C215 C214 1.439 . S
C215 N216 1.382 . S
C215 C249 1.395 . S
N216 C212 1.369 1_545 S
N216 C215 1.382 . S
N216 Co217 2.004 . S
Co217 N216 2.004 . S
Co217 N218 1.995 . S
Co217 N223 2.008 1_554 S
Co217 N228 1.995 1_544 S
Co217 N233 2.282 1_554 S
Co217 N239 2.282 1_545 S
N218 Co217 1.995 . S
N218 C219 1.376 . S
N218 C222 1.383 1_554 S
C219 N218 1.376 . S
C219 C220 1.446 . S
C219 C249 1.391 . S
C220 C219 1.446 . S
C220 C221 1.339 . S
C220 H255 0.949 . S
C221 C220 1.339 . S
C221 C222 1.439 1_554 S
C221 H256 0.950 1_554 S
C222 N218 1.383 1_556 S
C222 C221 1.439 1_556 S
C222 C251 1.392 . S
N223 Co217 2.008 1_556 S
N223 C224 1.376 . S
N223 C227 1.374 1_545 S
C224 N223 1.376 . S
C224 C225 1.443 . S
C224 C251 1.389 . S
C225 C224 1.443 . S
C225 C226 1.340 . S
C225 H257 0.951 . S
C226 C225 1.340 . S
C226 C227 1.439 1_545 S
C226 H258 0.950 1_545 S
C227 N223 1.374 1_565 S
C227 C226 1.439 1_565 S
C227 C252 1.395 . S
N228 Co217 1.995 1_566 S
N228 C229 1.376 . S
N228 C232 1.383 1_556 S
C229 N228 1.376 . S
C229 C230 1.446 . S
C229 C252 1.391 . S
C230 C229 1.446 . S
C230 C231 1.339 . S
C230 H259 0.949 . S
C231 C230 1.339 . S
C231 C232 1.439 1_556 S
C231 H260 0.950 1_556 S
C232 N228 1.383 1_554 S
C232 C231 1.439 1_554 S
C232 C250 1.392 . S
N233 Co217 2.282 1_556 S
N233 C236 1.332 . S
N233 C238 1.332 . S
C234 C235 1.386 . S
C234 C237 1.388 . S
C235 C234 1.386 . S
C235 C236 1.382 . S
C235 H261 0.950 . S
C236 N233 1.332 . S
C236 C235 1.382 . S
C236 H247 0.952 . S
C237 C234 1.388 . S
C237 C238 1.382 . S
C237 H262 0.950 . S
C238 N233 1.332 . S
C238 C237 1.382 . S
C238 H248 0.948 1_556 S
N239 Co217 2.282 1_565 S
N239 C243 1.332 . S
N239 C244 1.332 . S
C240 C241 1.388 . S
C240 C244 1.382 . S
C240 H263 0.950 . S
C241 C240 1.388 . S
C241 C242 1.386 . S
C242 C241 1.386 . S
C242 C243 1.382 . S
C242 H264 0.950 . S
C243 N239 1.332 . S
C243 C242 1.382 . S
C243 H245 0.955 1_565 S
C244 N239 1.332 . S
C244 C240 1.382 . S
C244 H246 0.948 1_554 S
H245 C243 0.955 1_545 S
H246 C244 0.948 1_556 S
H247 C236 0.952 . S
H248 C238 0.948 1_554 S
C249 C215 1.395 . S
C249 C219 1.391 . S
C250 C212 1.389 . S
C250 C232 1.392 . S
C251 C222 1.392 . S
C251 C224 1.389 . S
C252 C227 1.395 . S
C252 C229 1.391 . S
H253 C213 0.951 . S
H254 C214 0.950 . S
H255 C220 0.949 . S
H256 C221 0.950 1_556 S
H257 C225 0.951 . S
H258 C226 0.950 1_565 S
H259 C230 0.949 . S
H260 C231 0.950 1_554 S
H261 C235 0.950 . S
H262 C237 0.950 . S
H263 C240 0.950 . S
H264 C242 0.950 . S
C265 C266 1.443 . S
C265 N269 1.376 . S
C265 C303 1.389 . S
C266 C265 1.443 . S
C266 C267 1.340 . S
C266 H306 0.951 . S
C267 C266 1.340 . S
C267 C268 1.439 . S
C267 H307 0.950 . S
C268 C267 1.439 . S
C268 N269 1.374 . S
C268 C302 1.395 . S
N269 C265 1.376 . S
N269 C268 1.374 . S
N269 Co270 2.008 . S
Co270 N269 2.008 . S
Co270 N271 1.995 . S
Co270 N276 2.008 . S
Co270 N281 1.995 . S
Co270 N286 2.282 . S
Co270 N292 2.282 . S
N271 Co270 1.995 . S
N271 C272 1.376 . S
N271 C275 1.383 . S
C272 N271 1.376 . S
C272 C273 1.446 . S
C272 C302 1.391 . S
C273 C272 1.446 . S
C273 C274 1.339 . S
C273 H308 0.949 . S
C274 C273 1.339 . S
C274 C275 1.439 . S
C274 H309 0.950 . S
C275 N271 1.383 . S
C275 C274 1.439 . S
C275 C304 1.392 . S
N276 Co270 2.008 . S
N276 C277 1.376 . S
N276 C280 1.374 . S
C277 N276 1.376 . S
C277 C278 1.443 . S
C277 C304 1.389 . S
C278 C277 1.443 . S
C278 C279 1.340 . S
C278 H310 0.951 . S
C279 C278 1.340 . S
C279 C280 1.439 . S
C279 H311 0.950 . S
C280 N276 1.374 . S
C280 C279 1.439 . S
C280 C305 1.395 . S
N281 Co270 1.995 . S
N281 C282 1.376 . S
N281 C285 1.383 . S
C282 N281 1.376 . S
C282 C283 1.446 . S
C282 C305 1.391 . S
C283 C282 1.446 . S
C283 C284 1.339 . S
C283 H312 0.949 . S
C284 C283 1.339 . S
C284 C285 1.439 . S
C284 H313 0.950 . S
C285 N281 1.383 . S
C285 C284 1.439 . S
C285 C303 1.392 . S
N286 Co270 2.282 . S
N286 C289 1.332 . S
N286 C291 1.332 . S
C287 C288 1.386 . S
C287 C290 1.388 . S
C288 C287 1.386 . S
C288 C289 1.382 . S
C288 H314 0.950 . S
C289 N286 1.332 . S
C289 C288 1.382 . S
C289 H300 0.952 . S
C290 C287 1.388 . S
C290 C291 1.382 . S
C290 H315 0.950 . S
C291 N286 1.332 . S
C291 C290 1.382 . S
C291 H301 0.948 . S
N292 Co270 2.282 . S
N292 C296 1.332 . S
N292 C297 1.332 . S
C293 C294 1.388 . S
C293 C297 1.382 . S
C293 H316 0.950 . S
C294 C293 1.388 . S
C294 C295 1.386 . S
C295 C294 1.386 . S
C295 C296 1.382 . S
C295 H317 0.950 . S
C296 N292 1.332 . S
C296 C295 1.382 . S
C296 H298 0.952 . S
C297 N292 1.332 . S
C297 C293 1.382 . S
C297 H299 0.948 . S
H298 C296 0.952 . S
H299 C297 0.948 . S
H300 C289 0.952 . S
H301 C291 0.948 . S
C302 C268 1.395 . S
C302 C272 1.391 . S
C303 C265 1.389 . S
C303 C285 1.392 . S
C304 C275 1.392 . S
C304 C277 1.389 . S
C305 C280 1.395 . S
C305 C282 1.391 . S
H306 C266 0.951 . S
H307 C267 0.950 . S
H308 C273 0.949 . S
H309 C274 0.950 . S
H310 C278 0.951 . S
H311 C279 0.950 . S
H312 C283 0.949 . S
H313 C284 0.950 . S
H314 C288 0.950 . S
H315 C290 0.950 . S
H316 C293 0.950 . S
H317 C295 0.950 . S
H318 C326 0.930 . S
H319 C329 0.930 . S
H320 C331 0.930 . S
H321 C332 0.970 . S
H322 C332 0.970 . S
H323 C334 0.930 . S
H324 C336 0.930 . S
H325 C338 0.930 . S
C326 H318 0.930 . S
C326 C327 1.382 . S
C326 C328 1.426 . S
C327 C326 1.382 . S
C327 C331 1.389 . S
C328 C326 1.426 . S
C328 C329 1.375 . S
C328 C332 1.532 . S
C329 H319 0.930 . S
C329 C328 1.375 . S
C329 C330 1.416 . S
C330 C329 1.416 . S
C330 C331 1.371 . S
C331 H320 0.930 . S
C331 C327 1.389 . S
C331 C330 1.371 . S
C332 H321 0.970 . S
C332 H322 0.970 . S
C332 C328 1.532 . S
C332 C333 1.499 . S
C333 C332 1.499 . S
C333 C334 1.370 . S
C333 C338 1.415 . S
C334 H323 0.930 . S
C334 C333 1.370 . S
C334 C335 1.407 . S
C335 C334 1.407 . S
C335 C336 1.365 . S
C336 H324 0.930 . S
C336 C335 1.365 . S
C336 C337 1.393 . S
C337 C336 1.393 . S
C337 C338 1.387 . S
C338 H325 0.930 . S
C338 C333 1.415 . S
C338 C337 1.387 . S
H339 C347 0.930 . S
H340 C350 0.930 . S
H341 C352 0.930 . S
H342 C353 0.970 . S
H343 C353 0.970 . S
H344 C355 0.930 . S
H345 C357 0.930 . S
H346 C359 0.930 . S
C347 H339 0.930 . S
C347 C348 1.382 . S
C347 C349 1.426 . S
C348 C347 1.382 . S
C348 C352 1.389 . S
C349 C347 1.426 . S
C349 C350 1.375 . S
C349 C353 1.532 . S
C350 H340 0.930 . S
C350 C349 1.375 . S
C350 C351 1.416 . S
C351 C350 1.416 . S
C351 C352 1.371 . S
C352 H341 0.930 . S
C352 C348 1.389 . S
C352 C351 1.371 . S
C353 H342 0.970 . S
C353 H343 0.970 . S
C353 C349 1.532 . S
C353 C354 1.499 . S
C354 C353 1.499 . S
C354 C355 1.370 . S
C354 C359 1.415 . S
C355 H344 0.930 . S
C355 C354 1.370 . S
C355 C356 1.407 . S
C356 C355 1.407 . S
C356 C357 1.365 . S
C357 H345 0.930 . S
C357 C356 1.365 . S
C357 C358 1.393 . S
C358 C357 1.393 . S
C358 C359 1.387 . S
C359 H346 0.930 . S
C359 C354 1.415 . S
C359 C358 1.387 . S
H360 C368 0.930 . S
H361 C371 0.930 . S
H362 C373 0.930 . S
H363 C374 0.970 . S
H364 C374 0.970 . S
H365 C376 0.930 . S
H366 C378 0.930 . S
H367 C380 0.930 . S
C368 H360 0.930 . S
C368 C369 1.382 . S
C368 C370 1.426 . S
C369 C368 1.382 . S
C369 C373 1.389 . S
C370 C368 1.426 . S
C370 C371 1.375 . S
C370 C374 1.532 . S
C371 H361 0.930 . S
C371 C370 1.375 . S
C371 C372 1.416 . S
C372 C371 1.416 . S
C372 C373 1.371 . S
C373 H362 0.930 . S
C373 C369 1.389 . S
C373 C372 1.371 . S
C374 H363 0.970 . S
C374 H364 0.970 . S
C374 C370 1.532 . S
C374 C375 1.499 . S
C375 C374 1.499 . S
C375 C376 1.370 . S
C375 C380 1.415 . S
C376 H365 0.930 . S
C376 C375 1.370 . S
C376 C377 1.407 . S
C377 C376 1.407 . S
C377 C378 1.365 . S
C378 H366 0.930 . S
C378 C377 1.365 . S
C378 C379 1.393 . S
C379 C378 1.393 . S
C379 C380 1.387 . S
C380 H367 0.930 . S
C380 C375 1.415 . S
C380 C379 1.387 . S
H381 C389 0.930 . S
H382 C392 0.930 . S
H383 C394 0.930 . S
H384 C395 0.970 . S
H385 C395 0.970 . S
H386 C397 0.930 . S
H387 C399 0.930 . S
H388 C401 0.930 . S
C389 H381 0.930 . S
C389 C390 1.382 . S
C389 C391 1.426 . S
C390 C389 1.382 . S
C390 C394 1.389 . S
C391 C389 1.426 . S
C391 C392 1.375 . S
C391 C395 1.532 . S
C392 H382 0.930 . S
C392 C391 1.375 . S
C392 C393 1.416 . S
C393 C392 1.416 . S
C393 C394 1.371 . S
C394 H383 0.930 . S
C394 C390 1.389 . S
C394 C393 1.371 . S
C395 H384 0.970 . S
C395 H385 0.970 . S
C395 C391 1.532 . S
C395 C396 1.499 . S
C396 C395 1.499 . S
C396 C397 1.370 . S
C396 C401 1.415 . S
C397 H386 0.930 . S
C397 C396 1.370 . S
C397 C398 1.407 . S
C398 C397 1.407 . S
C398 C399 1.365 . S
C399 H387 0.930 . S
C399 C398 1.365 . S
C399 C400 1.393 . S
C400 C399 1.393 . S
C400 C401 1.387 . S
C401 H388 0.930 . S
C401 C396 1.415 . S
C401 C400 1.387 . S
H402 C410 0.930 . S
H403 C413 0.930 . S
H404 C415 0.930 . S
H405 C416 0.970 . S
H406 C416 0.970 . S
H407 C418 0.930 . S
H408 C420 0.930 . S
H409 C422 0.930 . S
C410 H402 0.930 . S
C410 C411 1.382 . S
C410 C412 1.426 . S
C411 C410 1.382 . S
C411 C415 1.389 . S
C412 C410 1.426 . S
C412 C413 1.375 . S
C412 C416 1.532 . S
C413 H403 0.930 . S
C413 C412 1.375 . S
C413 C414 1.416 . S
C414 C413 1.416 . S
C414 C415 1.371 . S
C415 H404 0.930 . S
C415 C411 1.389 . S
C415 C414 1.371 . S
C416 H405 0.970 . S
C416 H406 0.970 . S
C416 C412 1.532 . S
C416 C417 1.499 . S
C417 C416 1.499 . S
C417 C418 1.370 . S
C417 C422 1.415 . S
C418 H407 0.930 . S
C418 C417 1.370 . S
C418 C419 1.407 . S
C419 C418 1.407 . S
C419 C420 1.365 . S
C420 H408 0.930 . S
C420 C419 1.365 . S
C420 C421 1.393 . S
C421 C420 1.393 . S
C421 C422 1.387 . S
C422 H409 0.930 . S
C422 C417 1.415 . S
C422 C421 1.387 . S
H423 C431 0.930 . S
H424 C434 0.930 . S
H425 C436 0.930 . S
H426 C437 0.970 . S
H427 C437 0.970 . S
H428 C439 0.930 . S
H429 C441 0.930 . S
H430 C443 0.930 . S
C431 H423 0.930 . S
C431 C432 1.382 . S
C431 C433 1.426 . S
C432 C431 1.382 . S
C432 C436 1.389 . S
C433 C431 1.426 . S
C433 C434 1.375 . S
C433 C437 1.532 . S
C434 H424 0.930 . S
C434 C433 1.375 . S
C434 C435 1.416 . S
C435 C434 1.416 . S
C435 C436 1.371 . S
C436 H425 0.930 . S
C436 C432 1.389 . S
C436 C435 1.371 . S
C437 H426 0.970 . S
C437 H427 0.970 . S
C437 C433 1.532 . S
C437 C438 1.499 . S
C438 C437 1.499 . S
C438 C439 1.370 . S
C438 C443 1.415 . S
C439 H428 0.930 . S
C439 C438 1.370 . S
C439 C440 1.407 . S
C440 C439 1.407 . S
C440 C441 1.365 . S
C441 H429 0.930 . S
C441 C440 1.365 . S
C441 C442 1.393 . S
C442 C441 1.393 . S
C442 C443 1.387 . S
C443 H430 0.930 . S
C443 C438 1.415 . S
C443 C442 1.387 . S
C444 C445 1.391 . S
C444 C446 1.394 . S
C444 H460 0.931 . S
C445 C444 1.391 . S
C445 C449 1.376 . S
C446 C444 1.394 . S
C446 C447 1.369 . S
C446 C450 1.531 . S
C447 C446 1.369 . S
C447 C448 1.410 . S
C447 C455 1.503 . S
C448 C447 1.410 . S
C448 C449 1.392 . S
C448 C451 1.511 . S
C449 C445 1.376 . S
C449 C448 1.392 . S
C449 H461 0.929 . S
C450 C446 1.531 . S
C450 H462 0.960 . S
C450 H463 0.962 . S
C450 H464 0.960 . S
C451 C448 1.511 . S
C451 H465 0.961 . S
C451 H466 0.961 . S
C451 H467 0.961 . S
C452 C453 1.370 . S
C452 C454 1.363 . S
C452 H468 0.931 . S
C453 C452 1.370 . S
C453 C457 1.408 . S
C454 C452 1.363 . S
C454 C455 1.370 . S
C454 C458 1.524 . S
C455 C447 1.503 . S
C455 C454 1.370 . S
C455 C456 1.403 . S
C456 C455 1.403 . S
C456 C457 1.404 . S
C456 C459 1.539 . S
C457 C453 1.408 . S
C457 C456 1.404 . S
C457 H469 0.930 . S
C458 C454 1.524 . S
C458 H470 0.956 . S
C458 H471 0.961 . S
C458 H472 0.961 . S
C459 C456 1.539 . S
C459 H473 0.958 . S
C459 H474 0.961 . S
C459 H475 0.960 . S
H460 C444 0.931 . S
H461 C449 0.929 . S
H462 C450 0.960 . S
H463 C450 0.962 . S
H464 C450 0.960 . S
H465 C451 0.961 . S
H466 C451 0.961 . S
H467 C451 0.961 . S
H468 C452 0.931 . S
H469 C457 0.930 . S
H470 C458 0.956 . S
H471 C458 0.961 . S
H472 C458 0.961 . S
H473 C459 0.958 . S
H474 C459 0.961 . S
H475 C459 0.960 . S
C476 C477 1.391 . S
C476 C478 1.394 . S
C476 H492 0.931 . S
C477 C476 1.391 . S
C477 C481 1.376 . S
C478 C476 1.394 . S
C478 C479 1.369 . S
C478 C482 1.531 . S
C479 C478 1.369 . S
C479 C480 1.410 . S
C479 C487 1.503 . S
C480 C479 1.410 . S
C480 C481 1.392 . S
C480 C483 1.511 . S
C481 C477 1.376 . S
C481 C480 1.392 . S
C481 H493 0.929 . S
C482 C478 1.531 . S
C482 H494 0.960 . S
C482 H495 0.962 . S
C482 H496 0.960 . S
C483 C480 1.511 . S
C483 H497 0.961 . S
C483 H498 0.961 . S
C483 H499 0.961 . S
C484 C485 1.370 . S
C484 C486 1.363 . S
C484 H500 0.931 . S
C485 C484 1.370 . S
C485 C489 1.408 . S
C486 C484 1.363 . S
C486 C487 1.370 . S
C486 C490 1.524 . S
C487 C479 1.503 . S
C487 C486 1.370 . S
C487 C488 1.403 . S
C488 C487 1.403 . S
C488 C489 1.404 . S
C488 C491 1.539 . S
C489 C485 1.408 . S
C489 C488 1.404 . S
C489 H501 0.930 . S
C490 C486 1.524 . S
C490 H502 0.956 . S
C490 H503 0.961 . S
C490 H504 0.961 . S
C491 C488 1.539 . S
C491 H505 0.958 . S
C491 H506 0.961 . S
C491 H507 0.960 . S
H492 C476 0.931 . S
H493 C481 0.929 . S
H494 C482 0.960 . S
H495 C482 0.962 . S
H496 C482 0.960 . S
H497 C483 0.961 . S
H498 C483 0.961 . S
H499 C483 0.961 . S
H500 C484 0.931 . S
H501 C489 0.930 . S
H502 C490 0.956 . S
H503 C490 0.961 . S
H504 C490 0.961 . S
H505 C491 0.958 . S
H506 C491 0.961 . S
H507 C491 0.960 . S
C508 C509 1.391 . S
C508 C510 1.394 . S
C508 H524 0.931 . S
C509 C508 1.391 . S
C509 C513 1.376 . S
C510 C508 1.394 . S
C510 C511 1.369 . S
C510 C514 1.531 . S
C511 C510 1.369 . S
C511 C512 1.410 . S
C511 C519 1.503 . S
C512 C511 1.410 . S
C512 C513 1.392 . S
C512 C515 1.511 . S
C513 C509 1.376 . S
C513 C512 1.392 . S
C513 H525 0.929 . S
C514 C510 1.531 . S
C514 H526 0.960 . S
C514 H527 0.962 . S
C514 H528 0.960 . S
C515 C512 1.511 . S
C515 H529 0.961 . S
C515 H530 0.961 . S
C515 H531 0.961 . S
C516 C517 1.370 . S
C516 C518 1.363 . S
C516 H532 0.931 . S
C517 C516 1.370 . S
C517 C521 1.408 . S
C518 C516 1.363 . S
C518 C519 1.370 . S
C518 C522 1.524 . S
C519 C511 1.503 . S
C519 C518 1.370 . S
C519 C520 1.403 . S
C520 C519 1.403 . S
C520 C521 1.404 . S
C520 C523 1.539 . S
C521 C517 1.408 . S
C521 C520 1.404 . S
C521 H533 0.930 . S
C522 C518 1.524 . S
C522 H534 0.956 . S
C522 H535 0.961 . S
C522 H536 0.961 . S
C523 C520 1.539 . S
C523 H537 0.958 . S
C523 H538 0.961 . S
C523 H539 0.960 . S
H524 C508 0.931 . S
H525 C513 0.929 . S
H526 C514 0.960 . S
H527 C514 0.962 . S
H528 C514 0.960 . S
H529 C515 0.961 . S
H530 C515 0.961 . S
H531 C515 0.961 . S
H532 C516 0.931 . S
H533 C521 0.930 . S
H534 C522 0.956 . S
H535 C522 0.961 . S
H536 C522 0.961 . S
H537 C523 0.958 . S
H538 C523 0.961 . S
H539 C523 0.960 . S
C540 C541 1.391 . S
C540 C542 1.394 . S
C540 H556 0.931 . S
C541 C540 1.391 . S
C541 C545 1.376 . S
C542 C540 1.394 . S
C542 C543 1.369 . S
C542 C546 1.531 . S
C543 C542 1.369 . S
C543 C544 1.410 . S
C543 C551 1.503 . S
C544 C543 1.410 . S
C544 C545 1.392 . S
C544 C547 1.511 . S
C545 C541 1.376 . S
C545 C544 1.392 . S
C545 H557 0.929 . S
C546 C542 1.531 . S
C546 H558 0.960 . S
C546 H559 0.962 . S
C546 H560 0.960 . S
C547 C544 1.511 . S
C547 H561 0.961 . S
C547 H562 0.961 . S
C547 H563 0.961 . S
C548 C549 1.370 . S
C548 C550 1.363 . S
C548 H564 0.931 . S
C549 C548 1.370 . S
C549 C553 1.408 . S
C550 C548 1.363 . S
C550 C551 1.370 . S
C550 C554 1.524 . S
C551 C543 1.503 . S
C551 C550 1.370 . S
C551 C552 1.403 . S
C552 C551 1.403 . S
C552 C553 1.404 . S
C552 C555 1.539 . S
C553 C549 1.408 . S
C553 C552 1.404 . S
C553 H565 0.930 . S
C554 C550 1.524 . S
C554 H566 0.956 . S
C554 H567 0.961 . S
C554 H568 0.961 . S
C555 C552 1.539 . S
C555 H569 0.958 . S
C555 H570 0.961 . S
C555 H571 0.960 . S
H556 C540 0.931 . S
H557 C545 0.929 . S
H558 C546 0.960 . S
H559 C546 0.962 . S
H560 C546 0.960 . S
H561 C547 0.961 . S
H562 C547 0.961 . S
H563 C547 0.961 . S
H564 C548 0.931 . S
H565 C553 0.930 . S
H566 C554 0.956 . S
H567 C554 0.961 . S
H568 C554 0.961 . S
H569 C555 0.958 . S
H570 C555 0.961 . S
H571 C555 0.960 . S
C572 C573 1.391 . S
C572 C574 1.394 . S
C572 H588 0.931 . S
C573 C572 1.391 . S
C573 C577 1.376 . S
C574 C572 1.394 . S
C574 C575 1.369 . S
C574 C578 1.531 . S
C575 C574 1.369 . S
C575 C576 1.410 . S
C575 C583 1.503 . S
C576 C575 1.410 . S
C576 C577 1.392 . S
C576 C579 1.511 . S
C577 C573 1.376 . S
C577 C576 1.392 . S
C577 H589 0.929 . S
C578 C574 1.531 . S
C578 H590 0.960 . S
C578 H591 0.962 . S
C578 H592 0.960 . S
C579 C576 1.511 . S
C579 H593 0.961 . S
C579 H594 0.961 . S
C579 H595 0.961 . S
C580 C581 1.370 . S
C580 C582 1.363 . S
C580 H596 0.931 . S
C581 C580 1.370 . S
C581 C585 1.408 . S
C582 C580 1.363 . S
C582 C583 1.370 . S
C582 C586 1.524 . S
C583 C575 1.503 . S
C583 C582 1.370 . S
C583 C584 1.403 . S
C584 C583 1.403 . S
C584 C585 1.404 . S
C584 C587 1.539 . S
C585 C581 1.408 . S
C585 C584 1.404 . S
C585 H597 0.930 . S
C586 C582 1.524 . S
C586 H598 0.956 . S
C586 H599 0.961 . S
C586 H600 0.961 . S
C587 C584 1.539 . S
C587 H601 0.958 . S
C587 H602 0.961 . S
C587 H603 0.960 . S
H588 C572 0.931 . S
H589 C577 0.929 . S
H590 C578 0.960 . S
H591 C578 0.962 . S
H592 C578 0.960 . S
H593 C579 0.961 . S
H594 C579 0.961 . S
H595 C579 0.961 . S
H596 C580 0.931 . S
H597 C585 0.930 . S
H598 C586 0.956 . S
H599 C586 0.961 . S
H600 C586 0.961 . S
H601 C587 0.958 . S
H602 C587 0.961 . S
H603 C587 0.960 . S
C604 C605 1.391 . S
C604 C606 1.394 . S
C604 H620 0.931 . S
C605 C604 1.391 . S
C605 C609 1.376 . S
C606 C604 1.394 . S
C606 C607 1.369 . S
C606 C610 1.531 . S
C607 C606 1.369 . S
C607 C608 1.410 . S
C607 C615 1.503 . S
C608 C607 1.410 . S
C608 C609 1.392 . S
C608 C611 1.511 . S
C609 C605 1.376 . S
C609 C608 1.392 . S
C609 H621 0.929 . S
C610 C606 1.531 . S
C610 H622 0.960 . S
C610 H623 0.962 . S
C610 H624 0.960 . S
C611 C608 1.511 . S
C611 H625 0.961 . S
C611 H626 0.961 . S
C611 H627 0.961 . S
C612 C613 1.370 . S
C612 C614 1.363 . S
C612 H628 0.931 . S
C613 C612 1.370 . S
C613 C617 1.408 . S
C614 C612 1.363 . S
C614 C615 1.370 . S
C614 C618 1.524 . S
C615 C607 1.503 . S
C615 C614 1.370 . S
C615 C616 1.403 . S
C616 C615 1.403 . S
C616 C617 1.404 . S
C616 C619 1.539 . S
C617 C613 1.408 . S
C617 C616 1.404 . S
C617 H629 0.930 . S
C618 C614 1.524 . S
C618 H630 0.956 . S
C618 H631 0.961 . S
C618 H632 0.961 . S
C619 C616 1.539 . S
C619 H633 0.958 . S
C619 H634 0.961 . S
C619 H635 0.960 . S
H620 C604 0.931 . S
H621 C609 0.929 . S
H622 C610 0.960 . S
H623 C610 0.962 . S
H624 C610 0.960 . S
H625 C611 0.961 . S
H626 C611 0.961 . S
H627 C611 0.961 . S
H628 C612 0.931 . S
H629 C617 0.930 . S
H630 C618 0.956 . S
H631 C618 0.961 . S
H632 C618 0.961 . S
H633 C619 0.958 . S
H634 C619 0.961 . S
H635 C619 0.960 . S
C636 C637 1.391 . S
C636 C638 1.394 . S
C636 H652 0.931 . S
C637 C636 1.391 . S
C637 C641 1.376 . S
C638 C636 1.394 . S
C638 C639 1.369 . S
C638 C642 1.531 . S
C639 C638 1.369 . S
C639 C640 1.410 . S
C639 C647 1.503 . S
C640 C639 1.410 . S
C640 C641 1.392 . S
C640 C643 1.511 . S
C641 C637 1.376 . S
C641 C640 1.392 . S
C641 H653 0.929 . S
C642 C638 1.531 . S
C642 H654 0.960 . S
C642 H655 0.962 . S
C642 H656 0.960 . S
C643 C640 1.511 . S
C643 H657 0.961 . S
C643 H658 0.961 . S
C643 H659 0.961 . S
C644 C645 1.370 . S
C644 C646 1.363 . S
C644 H660 0.931 . S
C645 C644 1.370 . S
C645 C649 1.408 . S
C646 C644 1.363 . S
C646 C647 1.370 . S
C646 C650 1.524 . S
C647 C639 1.503 . S
C647 C646 1.370 . S
C647 C648 1.403 . S
C648 C647 1.403 . S
C648 C649 1.404 . S
C648 C651 1.539 . S
C649 C645 1.408 . S
C649 C648 1.404 . S
C649 H661 0.930 . S
C650 C646 1.524 . S
C650 H662 0.956 . S
C650 H663 0.961 . S
C650 H664 0.961 . S
C651 C648 1.539 . S
C651 H665 0.958 . S
C651 H666 0.961 . S
C651 H667 0.960 . S
H652 C636 0.931 . S
H653 C641 0.929 . S
H654 C642 0.960 . S
H655 C642 0.962 . S
H656 C642 0.960 . S
H657 C643 0.961 . S
H658 C643 0.961 . S
H659 C643 0.961 . S
H660 C644 0.931 . S
H661 C649 0.930 . S
H662 C650 0.956 . S
H663 C650 0.961 . S
H664 C650 0.961 . S
H665 C651 0.958 . S
H666 C651 0.961 . S
H667 C651 0.960 . S
C668 C669 1.391 . S
C668 C670 1.394 . S
C668 H684 0.931 . S
C669 C668 1.391 . S
C669 C673 1.376 . S
C670 C668 1.394 . S
C670 C671 1.369 . S
C670 C674 1.531 . S
C671 C670 1.369 . S
C671 C672 1.410 . S
C671 C679 1.503 . S
C672 C671 1.410 . S
C672 C673 1.392 . S
C672 C675 1.511 . S
C673 C669 1.376 . S
C673 C672 1.392 . S
C673 H685 0.929 . S
C674 C670 1.531 . S
C674 H686 0.960 . S
C674 H687 0.962 . S
C674 H688 0.960 . S
C675 C672 1.511 . S
C675 H689 0.961 . S
C675 H690 0.961 . S
C675 H691 0.961 . S
C676 C677 1.370 . S
C676 C678 1.363 . S
C676 H692 0.931 . S
C677 C676 1.370 . S
C677 C681 1.408 . S
C678 C676 1.363 . S
C678 C679 1.370 . S
C678 C682 1.524 . S
C679 C671 1.503 . S
C679 C678 1.370 . S
C679 C680 1.403 . S
C680 C679 1.403 . S
C680 C681 1.404 . S
C680 C683 1.539 . S
C681 C677 1.408 . S
C681 C680 1.404 . S
C681 H693 0.930 . S
C682 C678 1.524 . S
C682 H694 0.956 . S
C682 H695 0.961 . S
C682 H696 0.961 . S
C683 C680 1.539 . S
C683 H697 0.958 . S
C683 H698 0.961 . S
C683 H699 0.960 . S
H684 C668 0.931 . S
H685 C673 0.929 . S
H686 C674 0.960 . S
H687 C674 0.962 . S
H688 C674 0.960 . S
H689 C675 0.961 . S
H690 C675 0.961 . S
H691 C675 0.961 . S
H692 C676 0.931 . S
H693 C681 0.930 . S
H694 C682 0.956 . S
H695 C682 0.961 . S
H696 C682 0.961 . S
H697 C683 0.958 . S
H698 C683 0.961 . S
H699 C683 0.960 . S
C700 C701 1.391 . S
C700 C702 1.394 . S
C700 H716 0.931 . S
C701 C700 1.391 . S
C701 C705 1.376 . S
C702 C700 1.394 . S
C702 C703 1.369 . S
C702 C706 1.531 . S
C703 C702 1.369 . S
C703 C704 1.410 . S
C703 C711 1.503 . S
C704 C703 1.410 . S
C704 C705 1.392 . S
C704 C707 1.511 . S
C705 C701 1.376 . S
C705 C704 1.392 . S
C705 H717 0.929 . S
C706 C702 1.531 . S
C706 H718 0.960 . S
C706 H719 0.962 . S
C706 H720 0.960 . S
C707 C704 1.511 . S
C707 H721 0.961 . S
C707 H722 0.961 . S
C707 H723 0.961 . S
C708 C709 1.370 . S
C708 C710 1.363 . S
C708 H724 0.931 . S
C709 C708 1.370 . S
C709 C713 1.408 . S
C710 C708 1.363 . S
C710 C711 1.370 . S
C710 C714 1.524 . S
C711 C703 1.503 . S
C711 C710 1.370 . S
C711 C712 1.403 . S
C712 C711 1.403 . S
C712 C713 1.404 . S
C712 C715 1.539 . S
C713 C709 1.408 . S
C713 C712 1.404 . S
C713 H725 0.930 . S
C714 C710 1.524 . S
C714 H726 0.956 . S
C714 H727 0.961 . S
C714 H728 0.961 . S
C715 C712 1.539 . S
C715 H729 0.958 . S
C715 H730 0.961 . S
C715 H731 0.960 . S
H716 C700 0.931 . S
H717 C705 0.929 . S
H718 C706 0.960 . S
H719 C706 0.962 . S
H720 C706 0.960 . S
H721 C707 0.961 . S
H722 C707 0.961 . S
H723 C707 0.961 . S
H724 C708 0.931 . S
H725 C713 0.930 . S
H726 C714 0.956 . S
H727 C714 0.961 . S
H728 C714 0.961 . S
H729 C715 0.958 . S
H730 C715 0.961 . S
H731 C715 0.960 . S
C732 C733 1.391 . S
C732 C734 1.394 . S
C732 H748 0.931 . S
C733 C732 1.391 . S
C733 C737 1.376 . S
C734 C732 1.394 . S
C734 C735 1.369 . S
C734 C738 1.531 . S
C735 C734 1.369 . S
C735 C736 1.410 . S
C735 C743 1.503 . S
C736 C735 1.410 . S
C736 C737 1.392 . S
C736 C739 1.511 . S
C737 C733 1.376 . S
C737 C736 1.392 . S
C737 H749 0.929 . S
C738 C734 1.531 . S
C738 H750 0.960 . S
C738 H751 0.962 . S
C738 H752 0.960 . S
C739 C736 1.511 . S
C739 H753 0.961 . S
C739 H754 0.961 . S
C739 H755 0.961 . S
C740 C741 1.370 . S
C740 C742 1.363 . S
C740 H756 0.931 . S
C741 C740 1.370 . S
C741 C745 1.408 . S
C742 C740 1.363 . S
C742 C743 1.370 . S
C742 C746 1.524 . S
C743 C735 1.503 . S
C743 C742 1.370 . S
C743 C744 1.403 . S
C744 C743 1.403 . S
C744 C745 1.404 . S
C744 C747 1.539 . S
C745 C741 1.408 . S
C745 C744 1.404 . S
C745 H757 0.930 . S
C746 C742 1.524 . S
C746 H758 0.956 . S
C746 H759 0.961 . S
C746 H760 0.961 . S
C747 C744 1.539 . S
C747 H761 0.958 . S
C747 H762 0.961 . S
C747 H763 0.960 . S
H748 C732 0.931 . S
H749 C737 0.929 . S
H750 C738 0.960 . S
H751 C738 0.962 . S
H752 C738 0.960 . S
H753 C739 0.961 . S
H754 C739 0.961 . S
H755 C739 0.961 . S
H756 C740 0.931 . S
H757 C745 0.930 . S
H758 C746 0.956 . S
H759 C746 0.961 . S
H760 C746 0.961 . S
H761 C747 0.958 . S
H762 C747 0.961 . S
H763 C747 0.960 . S
C764 C765 1.391 . S
C764 C766 1.394 . S
C764 H780 0.931 . S
C765 C764 1.391 . S
C765 C769 1.376 . S
C766 C764 1.394 . S
C766 C767 1.369 . S
C766 C770 1.531 . S
C767 C766 1.369 . S
C767 C768 1.410 . S
C767 C775 1.503 . S
C768 C767 1.410 . S
C768 C769 1.392 . S
C768 C771 1.511 . S
C769 C765 1.376 . S
C769 C768 1.392 . S
C769 H781 0.929 . S
C770 C766 1.531 . S
C770 H782 0.960 . S
C770 H783 0.962 . S
C770 H784 0.960 . S
C771 C768 1.511 . S
C771 H785 0.961 . S
C771 H786 0.961 . S
C771 H787 0.961 . S
C772 C773 1.370 . S
C772 C774 1.363 . S
C772 H788 0.931 . S
C773 C772 1.370 . S
C773 C777 1.408 . S
C774 C772 1.363 . S
C774 C775 1.370 . S
C774 C778 1.524 . S
C775 C767 1.503 . S
C775 C774 1.370 . S
C775 C776 1.403 . S
C776 C775 1.403 . S
C776 C777 1.404 . S
C776 C779 1.539 . S
C777 C773 1.408 . S
C777 C776 1.404 . S
C777 H789 0.930 . S
C778 C774 1.524 . S
C778 H790 0.956 . S
C778 H791 0.961 . S
C778 H792 0.961 . S
C779 C776 1.539 . S
C779 H793 0.958 . S
C779 H794 0.961 . S
C779 H795 0.960 . S
H780 C764 0.931 . S
H781 C769 0.929 . S
H782 C770 0.960 . S
H783 C770 0.962 . S
H784 C770 0.960 . S
H785 C771 0.961 . S
H786 C771 0.961 . S
H787 C771 0.961 . S
H788 C772 0.931 . S
H789 C777 0.930 . S
H790 C778 0.956 . S
H791 C778 0.961 . S
H792 C778 0.961 . S
H793 C779 0.958 . S
H794 C779 0.961 . S
H795 C779 0.960 . S
C796 C797 1.391 . S
C796 C798 1.394 . S
C796 H812 0.931 . S
C797 C796 1.391 . S
C797 C801 1.376 . S
C798 C796 1.394 . S
C798 C799 1.369 . S
C798 C802 1.531 . S
C799 C798 1.369 . S
C799 C800 1.410 . S
C799 C807 1.503 . S
C800 C799 1.410 . S
C800 C801 1.392 . S
C800 C803 1.511 . S
C801 C797 1.376 . S
C801 C800 1.392 . S
C801 H813 0.929 . S
C802 C798 1.531 . S
C802 H814 0.960 . S
C802 H815 0.962 . S
C802 H816 0.960 . S
C803 C800 1.511 . S
C803 H817 0.961 . S
C803 H818 0.961 . S
C803 H819 0.961 . S
C804 C805 1.370 . S
C804 C806 1.363 . S
C804 H820 0.931 . S
C805 C804 1.370 . S
C805 C809 1.408 . S
C806 C804 1.363 . S
C806 C807 1.370 . S
C806 C810 1.524 . S
C807 C799 1.503 . S
C807 C806 1.370 . S
C807 C808 1.403 . S
C808 C807 1.403 . S
C808 C809 1.404 . S
C808 C811 1.539 . S
C809 C805 1.408 . S
C809 C808 1.404 . S
C809 H821 0.930 . S
C810 C806 1.524 . S
C810 H822 0.956 . S
C810 H823 0.961 . S
C810 H824 0.961 . S
C811 C808 1.539 . S
C811 H825 0.958 . S
C811 H826 0.961 . S
C811 H827 0.960 . S
H812 C796 0.931 . S
H813 C801 0.929 . S
H814 C802 0.960 . S
H815 C802 0.962 . S
H816 C802 0.960 . S
H817 C803 0.961 . S
H818 C803 0.961 . S
H819 C803 0.961 . S
H820 C804 0.931 . S
H821 C809 0.930 . S
H822 C810 0.956 . S
H823 C810 0.961 . S
H824 C810 0.961 . S
H825 C811 0.958 . S
H826 C811 0.961 . S
H827 C811 0.960 . S
C828 C829 1.391 . S
C828 C830 1.394 . S
C828 H844 0.931 . S
C829 C828 1.391 . S
C829 C833 1.376 . S
C830 C828 1.394 . S
C830 C831 1.369 . S
C830 C834 1.531 . S
C831 C830 1.369 . S
C831 C832 1.410 . S
C831 C839 1.503 . S
C832 C831 1.410 . S
C832 C833 1.392 . S
C832 C835 1.511 . S
C833 C829 1.376 . S
C833 C832 1.392 . S
C833 H845 0.929 . S
C834 C830 1.531 . S
C834 H846 0.960 . S
C834 H847 0.962 . S
C834 H848 0.960 . S
C835 C832 1.511 . S
C835 H849 0.961 . S
C835 H850 0.961 . S
C835 H851 0.961 . S
C836 C837 1.370 . S
C836 C838 1.363 . S
C836 H852 0.931 . S
C837 C836 1.370 . S
C837 C841 1.408 . S
C838 C836 1.363 . S
C838 C839 1.370 . S
C838 C842 1.524 . S
C839 C831 1.503 . S
C839 C838 1.370 . S
C839 C840 1.403 . S
C840 C839 1.403 . S
C840 C841 1.404 . S
C840 C843 1.539 . S
C841 C837 1.408 . S
C841 C840 1.404 . S
C841 H853 0.930 . S
C842 C838 1.524 . S
C842 H854 0.956 . S
C842 H855 0.961 . S
C842 H856 0.961 . S
C843 C840 1.539 . S
C843 H857 0.958 . S
C843 H858 0.961 . S
C843 H859 0.960 . S
H844 C828 0.931 . S
H845 C833 0.929 . S
H846 C834 0.960 . S
H847 C834 0.962 . S
H848 C834 0.960 . S
H849 C835 0.961 . S
H850 C835 0.961 . S
H851 C835 0.961 . S
H852 C836 0.931 . S
H853 C841 0.930 . S
H854 C842 0.956 . S
H855 C842 0.961 . S
H856 C842 0.961 . S
H857 C843 0.958 . S
H858 C843 0.961 . S
H859 C843 0.960 . S
C860 C861 1.391 . S
C860 C862 1.394 . S
C860 H876 0.931 . S
C861 C860 1.391 . S
C861 C865 1.376 . S
C862 C860 1.394 . S
C862 C863 1.369 . S
C862 C866 1.531 . S
C863 C862 1.369 . S
C863 C864 1.410 . S
C863 C871 1.503 . S
C864 C863 1.410 . S
C864 C865 1.392 . S
C864 C867 1.511 . S
C865 C861 1.376 . S
C865 C864 1.392 . S
C865 H877 0.929 . S
C866 C862 1.531 . S
C866 H878 0.960 . S
C866 H879 0.962 . S
C866 H880 0.960 . S
C867 C864 1.511 . S
C867 H881 0.961 . S
C867 H882 0.961 . S
C867 H883 0.961 . S
C868 C869 1.370 . S
C868 C870 1.363 . S
C868 H884 0.931 . S
C869 C868 1.370 . S
C869 C873 1.408 . S
C870 C868 1.363 . S
C870 C871 1.370 . S
C870 C874 1.524 . S
C871 C863 1.503 . S
C871 C870 1.370 . S
C871 C872 1.403 . S
C872 C871 1.403 . S
C872 C873 1.404 . S
C872 C875 1.539 . S
C873 C869 1.408 . S
C873 C872 1.404 . S
C873 H885 0.930 . S
C874 C870 1.524 . S
C874 H886 0.956 . S
C874 H887 0.961 . S
C874 H888 0.961 . S
C875 C872 1.539 . S
C875 H889 0.958 . S
C875 H890 0.961 . S
C875 H891 0.960 . S
H876 C860 0.931 . S
H877 C865 0.929 . S
H878 C866 0.960 . S
H879 C866 0.962 . S
H880 C866 0.960 . S
H881 C867 0.961 . S
H882 C867 0.961 . S
H883 C867 0.961 . S
H884 C868 0.931 . S
H885 C873 0.930 . S
H886 C874 0.956 . S
H887 C874 0.961 . S
H888 C874 0.961 . S
H889 C875 0.958 . S
H890 C875 0.961 . S
H891 C875 0.960 . S
C892 C893 1.391 . S
C892 C894 1.394 . S
C892 H908 0.931 . S
C893 C892 1.391 . S
C893 C897 1.376 . S
C894 C892 1.394 . S
C894 C895 1.369 . S
C894 C898 1.531 . S
C895 C894 1.369 . S
C895 C896 1.410 . S
C895 C903 1.503 . S
C896 C895 1.410 . S
C896 C897 1.392 . S
C896 C899 1.511 . S
C897 C893 1.376 . S
C897 C896 1.392 . S
C897 H909 0.929 . S
C898 C894 1.531 . S
C898 H910 0.960 . S
C898 H911 0.962 . S
C898 H912 0.960 . S
C899 C896 1.511 . S
C899 H913 0.961 . S
C899 H914 0.961 . S
C899 H915 0.961 . S
C900 C901 1.370 . S
C900 C902 1.363 . S
C900 H916 0.931 . S
C901 C900 1.370 . S
C901 C905 1.408 . S
C902 C900 1.363 . S
C902 C903 1.370 . S
C902 C906 1.524 . S
C903 C895 1.503 . S
C903 C902 1.370 . S
C903 C904 1.403 . S
C904 C903 1.403 . S
C904 C905 1.404 . S
C904 C907 1.539 . S
C905 C901 1.408 . S
C905 C904 1.404 . S
C905 H917 0.930 . S
C906 C902 1.524 . S
C906 H918 0.956 . S
C906 H919 0.961 . S
C906 H920 0.961 . S
C907 C904 1.539 . S
C907 H921 0.958 . S
C907 H922 0.961 . S
C907 H923 0.960 . S
H908 C892 0.931 . S
H909 C897 0.929 . S
H910 C898 0.960 . S
H911 C898 0.962 . S
H912 C898 0.960 . S
H913 C899 0.961 . S
H914 C899 0.961 . S
H915 C899 0.961 . S
H916 C900 0.931 . S
H917 C905 0.930 . S
H918 C906 0.956 . S
H919 C906 0.961 . S
H920 C906 0.961 . S
H921 C907 0.958 . S
H922 C907 0.961 . S
H923 C907 0.960 . S
C924 C925 1.391 . S
C924 C926 1.394 . S
C924 H940 0.931 . S
C925 C924 1.391 . S
C925 C929 1.376 . S
C926 C924 1.394 . S
C926 C927 1.369 . S
C926 C930 1.531 . S
C927 C926 1.369 . S
C927 C928 1.410 . S
C927 C935 1.503 . S
C928 C927 1.410 . S
C928 C929 1.392 . S
C928 C931 1.511 . S
C929 C925 1.376 . S
C929 C928 1.392 . S
C929 H941 0.929 . S
C930 C926 1.531 . S
C930 H942 0.960 . S
C930 H943 0.962 . S
C930 H944 0.960 . S
C931 C928 1.511 . S
C931 H945 0.961 . S
C931 H946 0.961 . S
C931 H947 0.961 . S
C932 C933 1.370 . S
C932 C934 1.363 . S
C932 H948 0.931 . S
C933 C932 1.370 . S
C933 C937 1.408 . S
C934 C932 1.363 . S
C934 C935 1.370 . S
C934 C938 1.524 . S
C935 C927 1.503 . S
C935 C934 1.370 . S
C935 C936 1.403 . S
C936 C935 1.403 . S
C936 C937 1.404 . S
C936 C939 1.539 . S
C937 C933 1.408 . S
C937 C936 1.404 . S
C937 H949 0.930 . S
C938 C934 1.524 . S
C938 H950 0.956 . S
C938 H951 0.961 . S
C938 H952 0.961 . S
C939 C936 1.539 . S
C939 H953 0.958 . S
C939 H954 0.961 . S
C939 H955 0.960 . S
H940 C924 0.931 . S
H941 C929 0.929 . S
H942 C930 0.960 . S
H943 C930 0.962 . S
H944 C930 0.960 . S
H945 C931 0.961 . S
H946 C931 0.961 . S
H947 C931 0.961 . S
H948 C932 0.931 . S
H949 C937 0.930 . S
H950 C938 0.956 . S
H951 C938 0.961 . S
H952 C938 0.961 . S
H953 C939 0.958 . S
H954 C939 0.961 . S
H955 C939 0.960 . S
C956 C957 1.391 . S
C956 C958 1.394 . S
C956 H972 0.931 . S
C957 C956 1.391 . S
C957 C961 1.376 . S
C958 C956 1.394 . S
C958 C959 1.369 . S
C958 C962 1.531 . S
C959 C958 1.369 . S
C959 C960 1.410 . S
C959 C967 1.503 . S
C960 C959 1.410 . S
C960 C961 1.392 . S
C960 C963 1.511 . S
C961 C957 1.376 . S
C961 C960 1.392 . S
C961 H973 0.929 . S
C962 C958 1.531 . S
C962 H974 0.960 . S
C962 H975 0.962 . S
C962 H976 0.960 . S
C963 C960 1.511 . S
C963 H977 0.961 . S
C963 H978 0.961 . S
C963 H979 0.961 . S
C964 C965 1.370 . S
C964 C966 1.363 . S
C964 H980 0.931 . S
C965 C964 1.370 . S
C965 C969 1.408 . S
C966 C964 1.363 . S
C966 C967 1.370 . S
C966 C970 1.524 . S
C967 C959 1.503 . S
C967 C966 1.370 . S
C967 C968 1.403 . S
C968 C967 1.403 . S
C968 C969 1.404 . S
C968 C971 1.539 . S
C969 C965 1.408 . S
C969 C968 1.404 . S
C969 H981 0.930 . S
C970 C966 1.524 . S
C970 H982 0.956 . S
C970 H983 0.961 . S
C970 H984 0.961 . S
C971 C968 1.539 . S
C971 H985 0.958 . S
C971 H986 0.961 . S
C971 H987 0.960 . S
H972 C956 0.931 . S
H973 C961 0.929 . S
H974 C962 0.960 . S
H975 C962 0.962 . S
H976 C962 0.960 . S
H977 C963 0.961 . S
H978 C963 0.961 . S
H979 C963 0.961 . S
H980 C964 0.931 . S
H981 C969 0.930 . S
H982 C970 0.956 . S
H983 C970 0.961 . S
H984 C970 0.961 . S
H985 C971 0.958 . S
H986 C971 0.961 . S
H987 C971 0.960 . S
C988 C989 1.391 . S
C988 C990 1.394 . S
C988 H1004 0.931 . S
C989 C988 1.391 . S
C989 C993 1.376 . S
C990 C988 1.394 . S
C990 C991 1.369 . S
C990 C994 1.531 . S
C991 C990 1.369 . S
C991 C992 1.410 . S
C991 C999 1.503 . S
C992 C991 1.410 . S
C992 C993 1.392 . S
C992 C995 1.511 . S
C993 C989 1.376 . S
C993 C992 1.392 . S
C993 H1005 0.929 . S
C994 C990 1.531 . S
C994 H1006 0.960 . S
C994 H1007 0.962 . S
C994 H1008 0.960 . S
C995 C992 1.511 . S
C995 H1009 0.961 . S
C995 H1010 0.961 . S
C995 H1011 0.961 . S
C996 C997 1.370 . S
C996 C998 1.363 . S
C996 H1012 0.931 . S
C997 C996 1.370 . S
C997 C1001 1.408 . S
C998 C996 1.363 . S
C998 C999 1.370 . S
C998 C1002 1.524 . S
C999 C991 1.503 . S
C999 C998 1.370 . S
C999 C1000 1.403 . S
C1000 C999 1.403 . S
C1000 C1001 1.404 . S
C1000 C1003 1.539 . S
C1001 C997 1.408 . S
C1001 C1000 1.404 . S
C1001 H1013 0.930 . S
C1002 C998 1.524 . S
C1002 H1014 0.956 . S
C1002 H1015 0.961 . S
C1002 H1016 0.961 . S
C1003 C1000 1.539 . S
C1003 H1017 0.958 . S
C1003 H1018 0.961 . S
C1003 H1019 0.960 . S
H1004 C988 0.931 . S
H1005 C993 0.929 . S
H1006 C994 0.960 . S
H1007 C994 0.962 . S
H1008 C994 0.960 . S
H1009 C995 0.961 . S
H1010 C995 0.961 . S
H1011 C995 0.961 . S
H1012 C996 0.931 . S
H1013 C1001 0.930 . S
H1014 C1002 0.956 . S
H1015 C1002 0.961 . S
H1016 C1002 0.961 . S
H1017 C1003 0.958 . S
H1018 C1003 0.961 . S
H1019 C1003 0.960 . S
C1020 C1021 1.391 . S
C1020 C1022 1.394 . S
C1020 H1036 0.931 . S
C1021 C1020 1.391 . S
C1021 C1025 1.376 . S
C1022 C1020 1.394 . S
C1022 C1023 1.369 . S
C1022 C1026 1.531 . S
C1023 C1022 1.369 . S
C1023 C1024 1.410 . S
C1023 C1031 1.503 . S
C1024 C1023 1.410 . S
C1024 C1025 1.392 . S
C1024 C1027 1.511 . S
C1025 C1021 1.376 . S
C1025 C1024 1.392 . S
C1025 H1037 0.929 . S
C1026 C1022 1.531 . S
C1026 H1038 0.960 . S
C1026 H1039 0.962 . S
C1026 H1040 0.960 . S
C1027 C1024 1.511 . S
C1027 H1041 0.961 . S
C1027 H1042 0.961 . S
C1027 H1043 0.961 . S
C1028 C1029 1.370 . S
C1028 C1030 1.363 . S
C1028 H1044 0.931 . S
C1029 C1028 1.370 . S
C1029 C1033 1.408 . S
C1030 C1028 1.363 . S
C1030 C1031 1.370 . S
C1030 C1034 1.524 . S
C1031 C1023 1.503 . S
C1031 C1030 1.370 . S
C1031 C1032 1.403 . S
C1032 C1031 1.403 . S
C1032 C1033 1.404 . S
C1032 C1035 1.539 . S
C1033 C1029 1.408 . S
C1033 C1032 1.404 . S
C1033 H1045 0.930 . S
C1034 C1030 1.524 . S
C1034 H1046 0.956 . S
C1034 H1047 0.961 . S
C1034 H1048 0.961 . S
C1035 C1032 1.539 . S
C1035 H1049 0.958 . S
C1035 H1050 0.961 . S
C1035 H1051 0.960 . S
H1036 C1020 0.931 . S
H1037 C1025 0.929 . S
H1038 C1026 0.960 . S
H1039 C1026 0.962 . S
H1040 C1026 0.960 . S
H1041 C1027 0.961 . S
H1042 C1027 0.961 . S
H1043 C1027 0.961 . S
H1044 C1028 0.931 . S
H1045 C1033 0.930 . S
H1046 C1034 0.956 . S
H1047 C1034 0.961 . S
H1048 C1034 0.961 . S
H1049 C1035 0.958 . S
H1050 C1035 0.961 . S
H1051 C1035 0.960 . S
C1052 C1053 1.391 . S
C1052 C1054 1.394 . S
C1052 H1068 0.931 . S
C1053 C1052 1.391 . S
C1053 C1057 1.376 . S
C1054 C1052 1.394 . S
C1054 C1055 1.369 . S
C1054 C1058 1.531 . S
C1055 C1054 1.369 . S
C1055 C1056 1.410 . S
C1055 C1063 1.503 . S
C1056 C1055 1.410 . S
C1056 C1057 1.392 . S
C1056 C1059 1.511 . S
C1057 C1053 1.376 . S
C1057 C1056 1.392 . S
C1057 H1069 0.929 . S
C1058 C1054 1.531 . S
C1058 H1070 0.960 . S
C1058 H1071 0.962 . S
C1058 H1072 0.960 . S
C1059 C1056 1.511 . S
C1059 H1073 0.961 . S
C1059 H1074 0.961 . S
C1059 H1075 0.961 . S
C1060 C1061 1.370 . S
C1060 C1062 1.363 . S
C1060 H1076 0.931 . S
C1061 C1060 1.370 . S
C1061 C1065 1.408 . S
C1062 C1060 1.363 . S
C1062 C1063 1.370 . S
C1062 C1066 1.524 . S
C1063 C1055 1.503 . S
C1063 C1062 1.370 . S
C1063 C1064 1.403 . S
C1064 C1063 1.403 . S
C1064 C1065 1.404 . S
C1064 C1067 1.539 . S
C1065 C1061 1.408 . S
C1065 C1064 1.404 . S
C1065 H1077 0.930 . S
C1066 C1062 1.524 . S
C1066 H1078 0.956 . S
C1066 H1079 0.961 . S
C1066 H1080 0.961 . S
C1067 C1064 1.539 . S
C1067 H1081 0.958 . S
C1067 H1082 0.961 . S
C1067 H1083 0.960 . S
H1068 C1052 0.931 . S
H1069 C1057 0.929 . S
H1070 C1058 0.960 . S
H1071 C1058 0.962 . S
H1072 C1058 0.960 . S
H1073 C1059 0.961 . S
H1074 C1059 0.961 . S
H1075 C1059 0.961 . S
H1076 C1060 0.931 . S
H1077 C1065 0.930 . S
H1078 C1066 0.956 . S
H1079 C1066 0.961 . S
H1080 C1066 0.961 . S
H1081 C1067 0.958 . S
H1082 C1067 0.961 . S
H1083 C1067 0.960 . S
C1084 C1085 1.391 . S
C1084 C1086 1.394 . S
C1084 H1100 0.931 . S
C1085 C1084 1.391 . S
C1085 C1089 1.376 . S
C1086 C1084 1.394 . S
C1086 C1087 1.369 . S
C1086 C1090 1.531 . S
C1087 C1086 1.369 . S
C1087 C1088 1.410 . S
C1087 C1095 1.503 . S
C1088 C1087 1.410 . S
C1088 C1089 1.392 . S
C1088 C1091 1.511 . S
C1089 C1085 1.376 . S
C1089 C1088 1.392 . S
C1089 H1101 0.929 . S
C1090 C1086 1.531 . S
C1090 H1102 0.960 . S
C1090 H1103 0.962 . S
C1090 H1104 0.960 . S
C1091 C1088 1.511 . S
C1091 H1105 0.961 . S
C1091 H1106 0.961 . S
C1091 H1107 0.961 . S
C1092 C1093 1.370 . S
C1092 C1094 1.363 . S
C1092 H1108 0.931 . S
C1093 C1092 1.370 . S
C1093 C1097 1.408 . S
C1094 C1092 1.363 . S
C1094 C1095 1.370 . S
C1094 C1098 1.524 . S
C1095 C1087 1.503 . S
C1095 C1094 1.370 . S
C1095 C1096 1.403 . S
C1096 C1095 1.403 . S
C1096 C1097 1.404 . S
C1096 C1099 1.539 . S
C1097 C1093 1.408 . S
C1097 C1096 1.404 . S
C1097 H1109 0.930 . S
C1098 C1094 1.524 . S
C1098 H1110 0.956 . S
C1098 H1111 0.961 . S
C1098 H1112 0.961 . S
C1099 C1096 1.539 . S
C1099 H1113 0.958 . S
C1099 H1114 0.961 . S
C1099 H1115 0.960 . S
H1100 C1084 0.931 . S
H1101 C1089 0.929 . S
H1102 C1090 0.960 . S
H1103 C1090 0.962 . S
H1104 C1090 0.960 . S
H1105 C1091 0.961 . S
H1106 C1091 0.961 . S
H1107 C1091 0.961 . S
H1108 C1092 0.931 . S
H1109 C1097 0.930 . S
H1110 C1098 0.956 . S
H1111 C1098 0.961 . S
H1112 C1098 0.961 . S
H1113 C1099 0.958 . S
H1114 C1099 0.961 . S
H1115 C1099 0.960 . S
C1116 C1117 1.391 . S
C1116 C1118 1.394 . S
C1116 H1132 0.931 . S
C1117 C1116 1.391 . S
C1117 C1121 1.376 . S
C1118 C1116 1.394 . S
C1118 C1119 1.369 . S
C1118 C1122 1.531 . S
C1119 C1118 1.369 . S
C1119 C1120 1.410 . S
C1119 C1127 1.503 . S
C1120 C1119 1.410 . S
C1120 C1121 1.392 . S
C1120 C1123 1.511 . S
C1121 C1117 1.376 . S
C1121 C1120 1.392 . S
C1121 H1133 0.929 . S
C1122 C1118 1.531 . S
C1122 H1134 0.960 . S
C1122 H1135 0.962 . S
C1122 H1136 0.960 . S
C1123 C1120 1.511 . S
C1123 H1137 0.961 . S
C1123 H1138 0.961 . S
C1123 H1139 0.961 . S
C1124 C1125 1.370 . S
C1124 C1126 1.363 . S
C1124 H1140 0.931 . S
C1125 C1124 1.370 . S
C1125 C1129 1.408 . S
C1126 C1124 1.363 . S
C1126 C1127 1.370 . S
C1126 C1130 1.524 . S
C1127 C1119 1.503 . S
C1127 C1126 1.370 . S
C1127 C1128 1.403 . S
C1128 C1127 1.403 . S
C1128 C1129 1.404 . S
C1128 C1131 1.539 . S
C1129 C1125 1.408 . S
C1129 C1128 1.404 . S
C1129 H1141 0.930 . S
C1130 C1126 1.524 . S
C1130 H1142 0.956 . S
C1130 H1143 0.961 . S
C1130 H1144 0.961 . S
C1131 C1128 1.539 . S
C1131 H1145 0.958 . S
C1131 H1146 0.961 . S
C1131 H1147 0.960 . S
H1132 C1116 0.931 . S
H1133 C1121 0.929 . S
H1134 C1122 0.960 . S
H1135 C1122 0.962 . S
H1136 C1122 0.960 . S
H1137 C1123 0.961 . S
H1138 C1123 0.961 . S
H1139 C1123 0.961 . S
H1140 C1124 0.931 . S
H1141 C1129 0.930 . S
H1142 C1130 0.956 . S
H1143 C1130 0.961 . S
H1144 C1130 0.961 . S
H1145 C1131 0.958 . S
H1146 C1131 0.961 . S
H1147 C1131 0.960 . S
C1148 C1149 1.391 . S
C1148 C1150 1.394 . S
C1148 H1164 0.931 . S
C1149 C1148 1.391 . S
C1149 C1153 1.376 . S
C1150 C1148 1.394 . S
C1150 C1151 1.369 . S
C1150 C1154 1.531 . S
C1151 C1150 1.369 . S
C1151 C1152 1.410 . S
C1151 C1159 1.503 . S
C1152 C1151 1.410 . S
C1152 C1153 1.392 . S
C1152 C1155 1.511 . S
C1153 C1149 1.376 . S
C1153 C1152 1.392 . S
C1153 H1165 0.929 . S
C1154 C1150 1.531 . S
C1154 H1166 0.960 . S
C1154 H1167 0.962 . S
C1154 H1168 0.960 . S
C1155 C1152 1.511 . S
C1155 H1169 0.961 . S
C1155 H1170 0.961 . S
C1155 H1171 0.961 . S
C1156 C1157 1.370 . S
C1156 C1158 1.363 . S
C1156 H1172 0.931 . S
C1157 C1156 1.370 . S
C1157 C1161 1.408 . S
C1158 C1156 1.363 . S
C1158 C1159 1.370 . S
C1158 C1162 1.524 . S
C1159 C1151 1.503 . S
C1159 C1158 1.370 . S
C1159 C1160 1.403 . S
C1160 C1159 1.403 . S
C1160 C1161 1.404 . S
C1160 C1163 1.539 . S
C1161 C1157 1.408 . S
C1161 C1160 1.404 . S
C1161 H1173 0.930 . S
C1162 C1158 1.524 . S
C1162 H1174 0.956 . S
C1162 H1175 0.961 . S
C1162 H1176 0.961 . S
C1163 C1160 1.539 . S
C1163 H1177 0.958 . S
C1163 H1178 0.961 . S
C1163 H1179 0.960 . S
H1164 C1148 0.931 . S
H1165 C1153 0.929 . S
H1166 C1154 0.960 . S
H1167 C1154 0.962 . S
H1168 C1154 0.960 . S
H1169 C1155 0.961 . S
H1170 C1155 0.961 . S
H1171 C1155 0.961 . S
H1172 C1156 0.931 . S
H1173 C1161 0.930 . S
H1174 C1162 0.956 . S
H1175 C1162 0.961 . S
H1176 C1162 0.961 . S
H1177 C1163 0.958 . S
H1178 C1163 0.961 . S
H1179 C1163 0.960 . S
C1180 C1181 1.391 . S
C1180 C1182 1.394 . S
C1180 H1196 0.931 . S
C1181 C1180 1.391 . S
C1181 C1185 1.376 . S
C1182 C1180 1.394 . S
C1182 C1183 1.369 . S
C1182 C1186 1.531 . S
C1183 C1182 1.369 . S
C1183 C1184 1.410 . S
C1183 C1191 1.503 . S
C1184 C1183 1.410 . S
C1184 C1185 1.392 . S
C1184 C1187 1.511 . S
C1185 C1181 1.376 . S
C1185 C1184 1.392 . S
C1185 H1197 0.929 . S
C1186 C1182 1.531 . S
C1186 H1198 0.960 . S
C1186 H1199 0.962 . S
C1186 H1200 0.960 . S
C1187 C1184 1.511 . S
C1187 H1201 0.961 . S
C1187 H1202 0.961 . S
C1187 H1203 0.961 . S
C1188 C1189 1.370 . S
C1188 C1190 1.363 . S
C1188 H1204 0.931 . S
C1189 C1188 1.370 . S
C1189 C1193 1.408 . S
C1190 C1188 1.363 . S
C1190 C1191 1.370 . S
C1190 C1194 1.524 . S
C1191 C1183 1.503 . S
C1191 C1190 1.370 . S
C1191 C1192 1.403 . S
C1192 C1191 1.403 . S
C1192 C1193 1.404 . S
C1192 C1195 1.539 . S
C1193 C1189 1.408 . S
C1193 C1192 1.404 . S
C1193 H1205 0.930 . S
C1194 C1190 1.524 . S
C1194 H1206 0.956 . S
C1194 H1207 0.961 . S
C1194 H1208 0.961 . S
C1195 C1192 1.539 . S
C1195 H1209 0.958 . S
C1195 H1210 0.961 . S
C1195 H1211 0.960 . S
H1196 C1180 0.931 . S
H1197 C1185 0.929 . S
H1198 C1186 0.960 . S
H1199 C1186 0.962 . S
H1200 C1186 0.960 . S
H1201 C1187 0.961 . S
H1202 C1187 0.961 . S
H1203 C1187 0.961 . S
H1204 C1188 0.931 . S
H1205 C1193 0.930 . S
H1206 C1194 0.956 . S
H1207 C1194 0.961 . S
H1208 C1194 0.961 . S
H1209 C1195 0.958 . S
H1210 C1195 0.961 . S
H1211 C1195 0.960 . S
C445 C39 1.667 . S
C453 C327 1.484 . S
C477 C91 1.644 . S
C485 C348 1.527 . S
C517 C369 1.368 . S
C509 C128 1.474 . S
C549 C398 1.410 . S
C541 C188 1.477 . S
C581 C411 1.417 . S
C573 C250 1.525 . S
C613 C435 1.579 . S
C605 C304 1.650 . S
C637 C75 1.543 . S
C645 C379 1.420 . S
C669 C144 1.694 . S
C677 C393 1.601 . S
C709 C421 1.465 . S
C701 C198 1.596 . S
C741 C440 1.452 . S
C733 C234 1.506 . S
C765 C294 1.412 . S
C773 C337 1.354 . S
C805 C358 1.410 . S
C797 C29 1.498 . S
C837 C400 1.579 . S
C829 C38 1.686 . S
C861 C92 1.682 . S
C869 C414 1.524 . S
C901 C432 1.443 . S
C893 C135 1.502 . S
C925 C181 1.490 . S
C933 C330 1.378 . S
C957 C251 1.554 . S
C965 C351 1.393 . S
C989 C303 1.681 . S
C997 C372 1.513 . S
C1021 C82 1.569 . S
C1029 C442 1.509 . S
C1061 C335 1.551 . S
C1053 C145 1.724 . S
C1085 C197 1.633 . S
C1093 C356 1.448 . S
C1117 C241 1.531 . S
C1125 C377 1.411 . S
C1149 C287 1.447 . S
C1157 C390 1.413 . S
C1181 C22 1.521 . S
C1189 C419 1.386 . S
