# Generated by pormake.
# Topology zzz, (3,6)-cn, num edge types: 1
# Building blocks:
#     Node 0, Type 0, BuildingBlock: BELTOD_clean_linker_0, # of connection points: 3
#     Node 1, Type 0, BuildingBlock: BELTOD_clean_linker_0, # of connection points: 3
#     Node 2, Type 0, BuildingBlock: BELTOD_clean_linker_0, # of connection points: 3
#     Node 3, Type 0, BuildingBlock: BELTOD_clean_linker_0, # of connection points: 3
#     Node 4, Type 0, BuildingBlock: BELTOD_clean_linker_0, # of connection points: 3
#     Node 5, Type 0, BuildingBlock: BELTOD_clean_linker_0, # of connection points: 3
#     Node 6, Type 0, BuildingBlock: BELTOD_clean_linker_0, # of connection points: 3
#     Node 7, Type 0, BuildingBlock: BELTOD_clean_linker_0, # of connection points: 3
#     Node 8, Type 1, BuildingBlock: JUFBIX_clean_sbu_0, # of connection points: 6
#     Node 9, Type 1, BuildingBlock: JUFBIX_clean_sbu_0, # of connection points: 6
#     Node 10, Type 1, BuildingBlock: JUFBIX_clean_sbu_0, # of connection points: 6
#     Node 11, Type 1, BuildingBlock: JUFBIX_clean_sbu_0, # of connection points: 6
#     Edge 12, Type (0, 1), BuildingBlock: KIFKEQ_clean_linker_1, # of connection points: 2
#     Edge 13, Type (0, 1), BuildingBlock: KIFKEQ_clean_linker_1, # of connection points: 2
#     Edge 14, Type (0, 1), BuildingBlock: KIFKEQ_clean_linker_1, # of connection points: 2
#     Edge 15, Type (0, 1), BuildingBlock: KIFKEQ_clean_linker_1, # of connection points: 2
#     Edge 16, Type (0, 1), BuildingBlock: KIFKEQ_clean_linker_1, # of connection points: 2
#     Edge 17, Type (0, 1), BuildingBlock: KIFKEQ_clean_linker_1, # of connection points: 2
#     Edge 18, Type (0, 1), BuildingBlock: KIFKEQ_clean_linker_1, # of connection points: 2
#     Edge 19, Type (0, 1), BuildingBlock: KIFKEQ_clean_linker_1, # of connection points: 2
#     Edge 20, Type (0, 1), BuildingBlock: KIFKEQ_clean_linker_1, # of connection points: 2
#     Edge 21, Type (0, 1), BuildingBlock: KIFKEQ_clean_linker_1, # of connection points: 2
#     Edge 22, Type (0, 1), BuildingBlock: KIFKEQ_clean_linker_1, # of connection points: 2
#     Edge 23, Type (0, 1), BuildingBlock: KIFKEQ_clean_linker_1, # of connection points: 2
#     Edge 24, Type (0, 1), BuildingBlock: KIFKEQ_clean_linker_1, # of connection points: 2
#     Edge 25, Type (0, 1), BuildingBlock: KIFKEQ_clean_linker_1, # of connection points: 2
#     Edge 26, Type (0, 1), BuildingBlock: KIFKEQ_clean_linker_1, # of connection points: 2
#     Edge 27, Type (0, 1), BuildingBlock: KIFKEQ_clean_linker_1, # of connection points: 2
#     Edge 28, Type (0, 1), BuildingBlock: KIFKEQ_clean_linker_1, # of connection points: 2
#     Edge 29, Type (0, 1), BuildingBlock: KIFKEQ_clean_linker_1, # of connection points: 2
#     Edge 30, Type (0, 1), BuildingBlock: KIFKEQ_clean_linker_1, # of connection points: 2
#     Edge 31, Type (0, 1), BuildingBlock: KIFKEQ_clean_linker_1, # of connection points: 2
#     Edge 32, Type (0, 1), BuildingBlock: KIFKEQ_clean_linker_1, # of connection points: 2
#     Edge 33, Type (0, 1), BuildingBlock: KIFKEQ_clean_linker_1, # of connection points: 2
#     Edge 34, Type (0, 1), BuildingBlock: KIFKEQ_clean_linker_1, # of connection points: 2
#     Edge 35, Type (0, 1), BuildingBlock: KIFKEQ_clean_linker_1, # of connection points: 2
# Relax obj value: 0.263
# Max RMSD: 0.211
# Mean RMSD: 0.177
data_MOF--net-zzz--node1-JUFBIX_clean_sbu_0--node2-BELTOD_clean_linker_0--edge1-KIFKEQ_clean_linker_1
_symmetry_space_group_name_H-M    P1
_symmetry_Int_Tables_number       1
_symmetry_cell_setting            triclinic
loop_
_symmetry_equiv_pos_as_xyz
'x, y, z'
_cell_length_a     54.802047
_cell_length_b     56.501562
_cell_length_c     21.512361
_cell_angle_alpha  82.466999
_cell_angle_beta   90.211334
_cell_angle_gamma 86.47689
loop_
_atom_site_label
_atom_site_type_symbol
_atom_site_fract_x
_atom_site_fract_y
_atom_site_fract_z
_atom_type_partial_charge
P0 P 0.7639 0.51187 0.31773 0.0
H1 H 0.74948 0.52385 0.44095 0.0
H2 H 0.77227 0.54209 0.51811 0.0
H3 H 0.82498 0.56393 0.37602 0.0
H4 H 0.80125 0.54735 0.29912 0.0
H5 H 0.72532 0.48312 0.28469 0.0
H6 H 0.68961 0.4917 0.21684 0.0
H7 H 0.70381 0.56677 0.19079 0.0
H8 H 0.7402 0.55777 0.25915 0.0
H9 H 0.81139 0.48587 0.33212 0.0
H10 H 0.7687 0.52703 0.18207 0.0
O11 O 0.76117 0.48639 0.36539 0.0
H12 H 0.84602 0.48303 0.26165 0.0
H13 H 0.80288 0.52372 0.11109 0.0
C14 C 0.77417 0.53344 0.36501 0.0
C15 C 0.76538 0.53348 0.426 0.0
C16 C 0.77864 0.5437 0.47025 0.0
C17 C 0.80113 0.55359 0.45424 0.0
C18 C 0.80795 0.55633 0.39076 0.0
C19 C 0.79442 0.54653 0.34644 0.0
C20 C 0.7351 0.51987 0.27794 0.0
C21 C 0.72043 0.50154 0.26593 0.0
C22 C 0.69989 0.50652 0.22706 0.0
C23 C 0.69364 0.52999 0.1987 0.0
C24 C 0.70813 0.54851 0.2119 0.0
C25 C 0.72876 0.54346 0.25134 0.0
C26 C 0.78736 0.50634 0.26221 0.0
C27 C 0.80926 0.49375 0.28357 0.0
C28 C 0.82904 0.49214 0.24323 0.0
C29 C 0.82725 0.50323 0.18079 0.0
C30 C 0.80498 0.51527 0.15915 0.0
C31 C 0.78527 0.51695 0.19962 0.0
P32 P 0.06555 0.75374 0.29973 0.0
H33 H 0.07382 0.75487 0.4338 0.0
H34 H 0.05659 0.78102 0.50625 0.0
H35 H 0.00299 0.81125 0.36559 0.0
H36 H 0.01989 0.78466 0.29403 0.0
H37 H 0.08772 0.71059 0.25908 0.0
H38 H 0.07215 0.68111 0.19885 0.0
H39 H 0.999 0.71312 0.21093 0.0
H40 H 0.01477 0.74255 0.2727 0.0
H41 H 0.10624 0.78337 0.25905 0.0
H42 H 0.03338 0.7737 0.19448 0.0
O43 O 0.0931 0.74438 0.33005 0.0
H44 H 0.11051 0.81528 0.1722 0.0
H45 H 0.03674 0.80628 0.11085 0.0
C46 C 0.04844 0.76796 0.3579 0.0
C47 C 0.05799 0.76669 0.4189 0.0
C48 C 0.04824 0.78185 0.46025 0.0
C49 C 0.02871 0.79863 0.44139 0.0
C50 C 0.01799 0.79855 0.38186 0.0
C51 C 0.02775 0.78334 0.34058 0.0
C52 C 0.05241 0.72867 0.2711 0.0
C53 C 0.0682 0.71083 0.25084 0.0
C54 C 0.05926 0.69395 0.21616 0.0
C55 C 0.03435 0.69481 0.1999 0.0
C56 C 0.01832 0.7121 0.22246 0.0
C57 C 0.02728 0.72882 0.25814 0.0
C58 C 0.06955 0.776 0.23317 0.0
C59 C 0.09119 0.78801 0.22608 0.0
C60 C 0.09351 0.80644 0.17662 0.0
C61 C 0.07399 0.81349 0.13409 0.0
C62 C 0.05245 0.80111 0.14134 0.0
C63 C 0.05036 0.7825 0.18996 0.0
P64 P 0.75764 0.02738 0.20346 0.0
H65 H 0.72749 0.05459 0.28136 0.0
H66 H 0.69757 0.04239 0.36076 0.0
H67 H 0.72418 0.96874 0.36438 0.0
H68 H 0.75437 0.98112 0.28403 0.0
H69 H 0.80894 0.02908 0.23713 0.0
H70 H 0.84623 0.01254 0.19303 0.0
H71 H 0.80303 0.96996 0.08726 0.0
H72 H 0.76591 0.98667 0.13093 0.0
H73 H 0.72379 0.99108 0.1841 0.0
H74 H 0.73975 0.06127 0.09497 0.0
O75 O 0.76535 0.05561 0.20126 0.0
H76 H 0.69 0.99029 0.111 0.0
H77 H 0.70588 0.06047 0.02065 0.0
C78 C 0.74336 0.01881 0.27738 0.0
C79 C 0.72767 0.03592 0.30099 0.0
C80 C 0.71039 0.02892 0.3459 0.0
C81 C 0.70845 0.00463 0.36799 0.0
C82 C 0.72545 0.9876 0.3482 0.0
C83 C 0.74277 0.99466 0.30269 0.0
C84 C 0.78459 0.00958 0.18634 0.0
C85 C 0.80753 0.0157 0.20576 0.0
C86 C 0.82887 0.00615 0.1806 0.0
C87 C 0.82755 0.99027 0.13565 0.0
C88 C 0.8046 0.98254 0.12074 0.0
C89 C 0.7833 0.99207 0.14603 0.0
C90 C 0.73412 0.02634 0.14546 0.0
C91 C 0.72011 0.0063 0.14857 0.0
C92 C 0.70091 0.00577 0.10631 0.0
C93 C 0.6953 0.02533 0.06009 0.0
C94 C 0.70968 0.04524 0.0562 0.0
C95 C 0.72906 0.04568 0.09847 0.0
P96 P 0.44263 0.7443 0.21243 0.0
H97 H 0.43689 0.75124 0.34434 0.0
H98 H 0.45412 0.72812 0.43991 0.0
H99 H 0.5039 0.68942 0.3278 0.0
H100 H 0.48783 0.71388 0.23363 0.0
H101 H 0.42276 0.79375 0.20039 0.0
H102 H 0.43569 0.83076 0.14217 0.0
H103 H 0.49968 0.79251 0.07961 0.0
H104 H 0.48684 0.75531 0.13956 0.0
H105 H 0.43414 0.69414 0.24376 0.0
H106 H 0.45084 0.74118 0.0769 0.0
O107 O 0.41367 0.74936 0.23333 0.0
H108 H 0.43894 0.65985 0.18615 0.0
H109 H 0.45539 0.7069 0.01853 0.0
C110 C 0.4605 0.73362 0.28196 0.0
C111 C 0.45208 0.73833 0.34071 0.0
C112 C 0.46181 0.72485 0.39531 0.0
C113 C 0.47976 0.70611 0.39179 0.0
C114 C 0.49004 0.7035 0.33296 0.0
C115 C 0.4807 0.7174 0.27862 0.0
C116 C 0.45354 0.77168 0.173 0.0
C117 C 0.43965 0.79325 0.17455 0.0
C118 C 0.44712 0.81446 0.14151 0.0
C119 C 0.46858 0.81445 0.10601 0.0
C120 C 0.4829 0.79292 0.10604 0.0
C121 C 0.47561 0.77173 0.14019 0.0
C122 C 0.44299 0.72013 0.16531 0.0
C123 C 0.43868 0.69712 0.1945 0.0
C124 C 0.44128 0.67751 0.16136 0.0
C125 C 0.4479 0.68057 0.0979 0.0
C126 C 0.45089 0.70387 0.0678 0.0
C127 C 0.4483 0.72353 0.10119 0.0
P128 P 0.21252 0.42721 0.32127 0.0
H129 H 0.19853 0.40192 0.21749 0.0
H130 H 0.17424 0.41583 0.12334 0.0
H131 H 0.18218 0.48903 0.15434 0.0
H132 H 0.20546 0.47492 0.25011 0.0
H133 H 0.24341 0.40442 0.42363 0.0
H134 H 0.27962 0.4166 0.47383 0.0
H135 H 0.28352 0.47643 0.3277 0.0
H136 H 0.24718 0.46399 0.27728 0.0
H137 H 0.16106 0.42057 0.34327 0.0
H138 H 0.21438 0.46814 0.39319 0.0
O139 O 0.20942 0.39781 0.33631 0.0
H140 H 0.12908 0.4436 0.39245 0.0
H141 H 0.18254 0.49126 0.44194 0.0
C142 C 0.20399 0.43736 0.24083 0.0
C143 C 0.1958 0.42098 0.20296 0.0
C144 C 0.18186 0.42899 0.14887 0.0
C145 C 0.17584 0.45356 0.13181 0.0
C146 C 0.18604 0.46996 0.1668 0.0
C147 C 0.19981 0.46192 0.22108 0.0
C148 C 0.24268 0.43313 0.34638 0.0
C149 C 0.25249 0.41971 0.40115 0.0
C150 C 0.27323 0.42672 0.42992 0.0
C151 C 0.28439 0.44755 0.4049 0.0
C152 C 0.27516 0.46042 0.34836 0.0
C153 C 0.25446 0.45323 0.31926 0.0
C154 C 0.19018 0.44224 0.36584 0.0
C155 C 0.16595 0.43572 0.36573 0.0
C156 C 0.14766 0.44909 0.39305 0.0
C157 C 0.1533 0.46932 0.42075 0.0
C158 C 0.17769 0.47564 0.42147 0.0
C159 C 0.19595 0.46233 0.39377 0.0
P160 P 0.05354 0.2443 0.32602 0.0
H161 H 0.07666 0.25117 0.20349 0.0
H162 H 0.07219 0.23028 0.11202 0.0
H163 H 0.00637 0.20081 0.19052 0.0
H164 H 0.01039 0.22239 0.27973 0.0
H165 H 0.08365 0.27703 0.38048 0.0
H166 H 0.07374 0.31247 0.42985 0.0
H167 H 0.99836 0.312 0.37021 0.0
H168 H 0.00901 0.27724 0.31624 0.0
H169 H 0.07384 0.20034 0.40009 0.0
H170 H 0.00447 0.24132 0.38159 0.0
O171 O 0.08387 0.23899 0.3298 0.0
H172 H 0.05603 0.17054 0.47618 0.0
H173 H 0.98659 0.21136 0.45709 0.0
C174 C 0.0443 0.23785 0.24959 0.0
C175 C 0.06075 0.24094 0.19985 0.0
C176 C 0.05832 0.22872 0.14781 0.0
C177 C 0.03938 0.21316 0.14471 0.0
C178 C 0.0213 0.21247 0.19113 0.0
C179 C 0.02368 0.22481 0.24289 0.0
C180 C 0.04701 0.2742 0.34519 0.0
C181 C 0.0651 0.28488 0.37613 0.0
C182 C 0.0593 0.30506 0.40545 0.0
C183 C 0.03505 0.31473 0.40609 0.0
C184 C 0.01722 0.30503 0.3711 0.0
C185 C 0.02323 0.28502 0.34047 0.0
C186 C 0.04066 0.22335 0.38566 0.0
C187 C 0.0549 0.20317 0.41284 0.0
C188 C 0.04471 0.18611 0.45632 0.0
C189 C 0.01997 0.18875 0.47252 0.0
C190 C 0.0057 0.20893 0.44527 0.0
C191 C 0.01602 0.22618 0.40253 0.0
P192 P 0.24661 0.09849 0.31879 0.0
H193 H 0.2487 0.12288 0.19016 0.0
H194 H 0.27299 0.1124 0.10183 0.0
H195 H 0.28793 0.04105 0.19925 0.0
H196 H 0.263 0.05147 0.28629 0.0
H197 H 0.21244 0.121 0.39842 0.0
H198 H 0.17788 0.10665 0.45933 0.0
H199 H 0.18299 0.04156 0.37304 0.0
H200 H 0.21842 0.05586 0.31383 0.0
H201 H 0.29946 0.09516 0.30527 0.0
H202 H 0.24768 0.07667 0.45192 0.0
O203 O 0.2465 0.12829 0.30984 0.0
H204 H 0.33275 0.07611 0.37373 0.0
H205 H 0.28109 0.05823 0.5208 0.0
C206 C 0.25438 0.08808 0.24524 0.0
C207 C 0.25633 0.10469 0.19141 0.0
C208 C 0.27047 0.09873 0.14112 0.0
C209 C 0.28306 0.07611 0.14426 0.0
C210 C 0.27856 0.05864 0.19509 0.0
C211 C 0.2642 0.06457 0.24506 0.0
C212 C 0.21775 0.0897 0.35076 0.0
C213 C 0.20574 0.1039 0.39131 0.0
C214 C 0.18588 0.09562 0.42623 0.0
C215 C 0.17752 0.07289 0.42131 0.0
C216 C 0.1891 0.05902 0.37873 0.0
C217 C 0.2092 0.06729 0.34415 0.0
C218 C 0.27099 0.08691 0.37282 0.0
C219 C 0.29524 0.08712 0.35219 0.0
C220 C 0.31422 0.07618 0.39113 0.0
C221 C 0.30933 0.06546 0.45201 0.0
C222 C 0.28522 0.0663 0.47383 0.0
C223 C 0.26614 0.07685 0.43437 0.0
P224 P 0.46113 0.28792 0.3439 0.0
H225 H 0.43174 0.30222 0.23056 0.0
H226 H 0.44055 0.3277 0.13452 0.0
H227 H 0.51719 0.32247 0.18602 0.0
H228 H 0.50802 0.29707 0.28333 0.0
H229 H 0.47075 0.27033 0.47457 0.0
H230 H 0.48277 0.23095 0.52937 0.0
H231 H 0.49278 0.20384 0.352 0.0
H232 H 0.48109 0.24394 0.29672 0.0
H233 H 0.43262 0.33094 0.36716 0.0
H234 H 0.50554 0.29946 0.40737 0.0
O235 O 0.43107 0.28478 0.34737 0.0
H236 H 0.44235 0.36548 0.41741 0.0
H237 H 0.51529 0.33366 0.45993 0.0
C238 C 0.46924 0.29765 0.26411 0.0
C239 C 0.4506 0.30571 0.22025 0.0
C240 C 0.45569 0.32039 0.16505 0.0
C241 C 0.47954 0.32747 0.15284 0.0
C242 C 0.49854 0.31768 0.19449 0.0
C243 C 0.4934 0.30289 0.24976 0.0
C244 C 0.47561 0.26024 0.38151 0.0
C245 C 0.47631 0.2562 0.44717 0.0
C246 C 0.48289 0.23355 0.47857 0.0
C247 C 0.48848 0.21424 0.44502 0.0
C248 C 0.48874 0.21844 0.37905 0.0
C249 C 0.48211 0.24131 0.34746 0.0
C250 C 0.46807 0.31231 0.38555 0.0
C251 C 0.45059 0.33125 0.38803 0.0
C252 C 0.45621 0.351 0.41686 0.0
C253 C 0.47952 0.35221 0.44359 0.0
C254 C 0.4972 0.33334 0.43975 0.0
C255 C 0.49156 0.31364 0.41046 0.0
Co256 Co 0.02098 0.01436 0.83647 0.0
C257 C 0.97686 0.99404 0.8685 0.0
Co258 Co 0.00642 0.99362 0.76506 0.0
C259 C 0.0341 0.05565 0.89485 0.0
C260 C 0.03749 0.02304 0.95804 0.0
N261 N 0.03203 0.03177 0.89787 0.0
N262 N 0.04059 0.06208 0.95069 0.0
C263 C 0.04285 0.04153 0.99038 0.0
H264 H 0.0305 0.06817 0.85281 0.0
H265 H 0.03669 0.00452 0.97797 0.0
C266 C 0.05035 0.01426 0.73281 0.0
N267 N 0.99535 0.97614 0.7031 0.0
C268 C 0.99683 0.95213 0.70265 0.0
C269 C 0.98709 0.98513 0.64509 0.0
N270 N 0.99013 0.94588 0.64671 0.0
C271 C 0.98382 0.96671 0.61064 0.0
C272 C 0.99116 0.04186 0.7473 0.0
O273 O 0.04825 0.02235 0.78521 0.0
O274 O 0.03432 0.00092 0.71612 0.0
O275 O 0.98962 0.02232 0.72461 0.0
O276 O 0.00337 0.04188 0.79742 0.0
O277 O 0.97844 0.98652 0.81524 0.0
H278 H 0.98478 0.00394 0.62733 0.0
H279 H 0.00342 0.93944 0.74201 0.0
O280 O 0.99362 0.00635 0.88617 0.0
O281 O 0.03862 0.98642 0.87524 0.0
O282 O 0.0237 0.96568 0.80639 0.0
C283 C 0.03692 0.96656 0.85451 0.0
H284 H 0.04695 0.04005 0.04005 0.0
H285 H 0.97864 0.96868 0.56156 0.0
Co286 Co 0.48838 0.01997 0.80489 0.0
C287 C 0.49266 0.97091 0.83416 0.0
Co288 Co 0.50786 0.00217 0.73231 0.0
C289 C 0.44882 0.03185 0.88605 0.0
C290 C 0.47855 0.05452 0.88944 0.0
N291 N 0.47143 0.03559 0.86349 0.0
N292 N 0.44146 0.0478 0.92487 0.0
C293 C 0.46024 0.06204 0.92715 0.0
H294 H 0.43789 0.01783 0.87356 0.0
H295 H 0.49569 0.06277 0.88009 0.0
C296 C 0.50337 0.05137 0.70326 0.0
N297 N 0.52503 0.9868 0.67365 0.0
C298 C 0.54754 0.99146 0.65203 0.0
C299 C 0.51844 0.96838 0.64457 0.0
N300 N 0.55535 0.9767 0.61078 0.0
C301 C 0.53701 0.96222 0.60556 0.0
C302 C 0.4582 0.0084 0.71074 0.0
O303 O 0.49262 0.04984 0.75577 0.0
O304 O 0.51184 0.03236 0.68326 0.0
O305 O 0.47795 1.00006 0.6888 0.0
O306 O 0.45881 0.01757 0.76147 0.0
O307 O 0.50368 0.97206 0.78195 0.0
H308 H 0.50133 0.95989 0.65165 0.0
H309 H 0.55793 0.00565 0.6658 0.0
O310 O 0.48423 0.9901 0.85331 0.0
O311 O 0.5182 0.02237 0.84782 0.0
O312 O 0.53753 0.00472 0.77593 0.0
C313 C 0.53808 0.01443 0.82584 0.0
H314 H 0.46045 0.07739 0.95235 0.0
H315 H 0.53717 0.94798 0.5764 0.0
Co316 Co 0.51048 0.5156 0.77642 0.0
C317 C 0.48742 0.47746 0.84384 0.0
Co318 Co 0.47047 0.51597 0.76028 0.0
C319 C 0.55566 0.52596 0.8364 0.0
C320 C 0.56111 0.49796 0.77903 0.0
N321 N 0.54398 0.51419 0.79536 0.0
N322 N 0.57903 0.51738 0.84707 0.0
C323 C 0.58255 0.49985 0.81076 0.0
H324 H 0.54685 0.53933 0.86181 0.0
H325 H 0.55798 0.48445 0.74922 0.0
C326 C 0.49365 0.55399 0.69291 0.0
N327 N 0.4373 0.51713 0.74104 0.0
C328 C 0.42545 0.50145 0.71153 0.0
C329 C 0.42085 0.53572 0.74343 0.0
N330 N 0.40247 0.50972 0.69398 0.0
C331 C 0.39945 0.53122 0.71471 0.0
C332 C 0.48176 0.54124 0.85578 0.0
O333 O 0.51318 0.54396 0.71906 0.0
O334 O 0.47342 0.54453 0.70477 0.0
O335 O 0.4641 0.5341 0.82644 0.0
O336 O 0.50353 0.53491 0.84197 0.0
O337 O 0.46803 0.48715 0.81617 0.0
H338 H 0.42464 0.55217 0.76126 0.0
H339 H 0.43392 0.4847 0.70073 0.0
O340 O 0.50751 0.48735 0.83364 0.0
O341 O 0.51643 0.49628 0.70997 0.0
O342 O 0.47691 0.49814 0.69416 0.0
C343 C 0.49813 0.49083 0.67959 0.0
H344 H 0.59907 0.48837 0.80977 0.0
H345 H 0.38354 0.54356 0.70611 0.0
Co346 Co 0.99459 0.53407 0.78456 0.0
C347 C 0.03056 0.50116 0.84279 0.0
Co348 Co 0.98987 0.49638 0.77141 0.0
C349 C 0.00246 0.57206 0.85779 0.0
C350 C 0.99645 0.5854 0.76088 0.0
N351 N 0.99849 0.56501 0.80118 0.0
N352 N 0.0028 0.5961 0.8548 0.0
C353 C 0.99908 0.6045 0.79358 0.0
H354 H 0.00488 0.55964 0.90041 0.0
H355 H 0.99272 0.58634 0.71117 0.0
C356 C 0.95385 0.52922 0.71344 0.0
N357 N 0.98517 0.4654 0.75405 0.0
C358 C 0.99835 0.45229 0.71616 0.0
C359 C 0.96502 0.4532 0.76741 0.0
N360 N 0.987 0.43274 0.70441 0.0
C361 C 0.9661 0.43319 0.73711 0.0
C362 C 0.96591 0.50883 0.87493 0.0
O363 O 0.96624 0.54481 0.73444 0.0
O364 O 0.96118 0.5073 0.72464 0.0
O365 O 0.97107 0.49132 0.84489 0.0
O366 O 0.97435 0.52896 0.85632 0.0
O367 O 0.01888 0.48569 0.8188 0.0
H368 H 0.94976 0.45917 0.79438 0.0
H369 H 0.01518 0.45778 0.69411 0.0
O370 O 0.02264 0.52299 0.83419 0.0
O371 O 0.01498 0.53882 0.71251 0.0
O372 O 0.00848 0.50197 0.69845 0.0
C373 C 0.01831 0.52142 0.68085 0.0
H374 H 0.99764 0.62315 0.77373 0.0
H375 H 0.95215 0.42042 0.73742 0.0
H376 H 0.17382 0.02678 0.47796 0.0
H377 H 0.13683 0.09722 0.46134 0.0
H378 H 0.14343 0.01183 0.55334 0.0
H379 H 0.10714 0.08233 0.53863 0.0
H380 H 0.07886 0.05222 0.7339 0.0
H381 H 0.10931 0.06587 0.65664 0.0
H382 H 0.09699 0.0063 0.55616 0.0
H383 H 0.06638 0.99273 0.63288 0.0
C384 C 0.15908 0.03903 0.48957 0.0
C385 C 0.15791 0.06328 0.46351 0.0
C386 C 0.14179 0.03046 0.53316 0.0
C387 C 0.12314 0.04599 0.55228 0.0
C388 C 0.12161 0.07007 0.52551 0.0
C389 C 0.13867 0.07858 0.48129 0.0
C390 C 0.08283 0.04191 0.69569 0.0
C391 C 0.07025 0.0214 0.68946 0.0
C392 C 0.10009 0.04983 0.65125 0.0
C393 C 0.10537 0.03719 0.60033 0.0
C394 C 0.09332 0.01631 0.5951 0.0
C395 C 0.07578 0.0086 0.63894 0.0
H396 H 0.52405 0.17895 0.4293 0.0
H397 H 0.46017 0.19392 0.53783 0.0
H398 H 0.53008 0.13928 0.49122 0.0
H399 H 0.46582 0.15461 0.59841 0.0
H400 H 0.4945 0.09516 0.74104 0.0
H401 H 0.49296 0.13402 0.6772 0.0
H402 H 0.5128 0.10019 0.51413 0.0
H403 H 0.51509 0.06111 0.57889 0.0
C404 C 0.51124 0.17369 0.46602 0.0
C405 C 0.4919 0.18968 0.47946 0.0
C406 C 0.51465 0.151 0.50141 0.0
C407 C 0.49868 0.14389 0.55059 0.0
C408 C 0.47892 0.1597 0.56229 0.0
C409 C 0.47563 0.18226 0.52739 0.0
C410 C 0.49874 0.09598 0.69168 0.0
C411 C 0.50468 0.07502 0.66494 0.0
C412 C 0.49771 0.11827 0.65491 0.0
C413 C 0.50231 0.12023 0.5902 0.0
C414 C 0.50922 0.09935 0.56381 0.0
C415 C 0.51045 0.07695 0.60088 0.0
H416 H 0.28879 0.49354 0.42719 0.0
H417 H 0.32379 0.42249 0.46608 0.0
H418 H 0.31816 0.50821 0.49616 0.0
H419 H 0.35285 0.43707 0.53638 0.0
H420 H 0.41439 0.47878 0.61027 0.0
H421 H 0.38698 0.46375 0.53746 0.0
H422 H 0.32592 0.50308 0.61049 0.0
H423 H 0.35326 0.51794 0.68403 0.0
C424 C 0.30299 0.48113 0.4497 0.0
C425 C 0.30397 0.45685 0.44116 0.0
C426 C 0.3196 0.48946 0.48991 0.0
C427 C 0.33764 0.47375 0.52228 0.0
C428 C 0.3392 0.44964 0.51199 0.0
C429 C 0.32249 0.44127 0.47202 0.0
C430 C 0.39509 0.48396 0.61175 0.0
C431 C 0.38607 0.49964 0.65328 0.0
C432 C 0.37939 0.47539 0.56966 0.0
C433 C 0.35433 0.48238 0.56783 0.0
C434 C 0.34523 0.49773 0.60991 0.0
C435 C 0.3609 0.50621 0.65218 0.0
H436 H 0.00082 0.353 0.38441 0.0
H437 H 0.05364 0.31861 0.52238 0.0
H438 H 0.98931 0.38241 0.45478 0.0
H439 H 0.04264 0.34826 0.59109 0.0
H440 H 0.03305 0.41912 0.67266 0.0
H441 H 0.04504 0.39193 0.59691 0.0
H442 H 0.969 0.38269 0.55945 0.0
H443 H 0.95706 0.41006 0.63434 0.0
C444 C 0.01001 0.35167 0.42948 0.0
C445 C 0.02835 0.33346 0.44716 0.0
C446 C 0.00345 0.36857 0.46973 0.0
C447 C 0.01519 0.36774 0.52833 0.0
C448 C 0.03358 0.34967 0.54579 0.0
C449 C 0.03995 0.3327 0.50603 0.0
C450 C 0.01893 0.41138 0.64799 0.0
C451 C 0.99413 0.41661 0.65997 0.0
C452 C 0.02577 0.39572 0.60488 0.0
C453 C 0.00795 0.38515 0.57221 0.0
C454 C 0.98315 0.39068 0.58346 0.0
C455 C 0.97632 0.40613 0.62702 0.0
H456 H 0.87444 0.97795 0.1787 0.0
H457 H 0.83038 0.98983 0.00932 0.0
H458 H 0.91121 0.97428 0.11599 0.0
H459 H 0.86696 0.98652 0.94679 0.0
H460 H 0.93697 0.96879 0.84752 0.0
H461 H 0.90145 0.96253 0.9149 0.0
H462 H 0.93342 0.00249 0.04924 0.0
H463 H 0.96888 0.00816 0.98328 0.0
C464 C 0.87259 0.97953 0.12816 0.0
C465 C 0.84951 0.9843 0.09904 0.0
C466 C 0.89364 0.9775 0.09218 0.0
C467 C 0.89209 0.98039 0.02624 0.0
C468 C 0.86887 0.98391 0.99739 0.0
C469 C 0.84784 0.98581 0.03335 0.0
C470 C 0.93646 0.97603 0.89173 0.0
C471 C 0.9557 0.98909 0.90978 0.0
C472 C 0.91608 0.97251 0.93025 0.0
C473 C 0.91456 0.98198 0.98759 0.0
C474 C 0.93411 0.99456 0.00605 0.0
C475 C 0.9544 0.99802 0.96777 0.0
H476 H 0.47089 0.85869 0.14243 0.0
H477 H 0.48086 0.82055 0.98238 0.0
H478 H 0.47831 0.8961 0.07714 0.0
H479 H 0.48736 0.85806 0.91605 0.0
H480 H 0.51666 0.92776 0.82258 0.0
H481 H 0.5132 0.88978 0.88951 0.0
H482 H 0.45834 0.92339 0.99889 0.0
H483 H 0.46262 0.96138 0.93378 0.0
C484 C 0.47468 0.85837 0.09314 0.0
C485 C 0.47524 0.83677 0.06739 0.0
C486 C 0.47876 0.87982 0.05551 0.0
C487 C 0.48313 0.88026 0.99092 0.0
C488 C 0.48434 0.85846 0.96561 0.0
C489 C 0.48057 0.83694 0.00354 0.0
C490 C 0.50387 0.92698 0.86097 0.0
C491 C 0.48998 0.94759 0.87302 0.0
C492 C 0.5018 0.90517 0.89924 0.0
C493 C 0.48559 0.90343 0.95004 0.0
C494 C 0.47146 0.92407 0.96127 0.0
C495 C 0.47375 0.94587 0.92355 0.0
H496 H 0.69228 0.55881 0.08534 0.0
H497 H 0.64917 0.51042 0.20509 0.0
H498 H 0.66238 0.55918 0.00022 0.0
H499 H 0.61998 0.51021 0.11932 0.0
H500 H 0.607 0.48499 0.92333 0.0
H501 H 0.63227 0.49236 0.01149 0.0
H502 H 0.61216 0.56792 0.97283 0.0
H503 H 0.58627 0.56041 0.88436 0.0
C504 C 0.67615 0.54879 0.09413 0.0
C505 C 0.67333 0.53425 0.15171 0.0
C506 C 0.65912 0.54895 0.04531 0.0
C507 C 0.63918 0.53445 0.05323 0.0
C508 C 0.63543 0.52129 0.11199 0.0
C509 C 0.6522 0.52136 0.16088 0.0
C510 C 0.60814 0.50319 0.93318 0.0
C511 C 0.59484 0.52217 0.89687 0.0
C512 C 0.62238 0.50737 0.98394 0.0
C513 C 0.62396 0.53066 0.99896 0.0
C514 C 0.61113 0.54981 0.96204 0.0
C515 C 0.59639 0.54553 0.91177 0.0
H516 H 0.0454 0.64688 0.19958 0.0
H517 H 0.0048 0.70763 0.09698 0.0
H518 H 0.03617 0.62267 0.11729 0.0
H519 H 0.99529 0.68334 0.01512 0.0
H520 H 0.99674 0.58164 0.97963 0.0
H521 H 0.00201 0.60488 0.0658 0.0
H522 H 0.02016 0.66545 0.93414 0.0
H523 H 0.01545 0.64222 0.84792 0.0
C524 C 0.03423 0.65495 0.15984 0.0
C525 C 0.02587 0.67918 0.15473 0.0
C526 C 0.02883 0.64106 0.11289 0.0
C527 C 0.01517 0.65115 0.05944 0.0
C528 C 0.00611 0.67514 0.05538 0.0
C529 C 0.0113 0.68897 0.10263 0.0
C530 C 0.00209 0.5998 0.96873 0.0
C531 C 0.00571 0.6099 0.90625 0.0
C532 C 0.00501 0.61317 0.01835 0.0
C533 C 0.01139 0.63704 0.00682 0.0
C534 C 0.01483 0.64722 0.94454 0.0
C535 C 0.01212 0.63383 0.89497 0.0
H536 H 0.03772 0.16926 0.58701 0.0
H537 H 0.97805 0.1662 0.45734 0.0
H538 H 0.02231 0.13599 0.65623 0.0
H539 H 0.96245 0.13269 0.52702 0.0
H540 H 0.98661 0.08533 0.78896 0.0
H541 H 0.98695 0.12404 0.72433 0.0
H542 H 0.97957 0.0898 0.5578 0.0
H543 H 0.97905 0.05098 0.62246 0.0
C544 C 0.02112 0.16159 0.57381 0.0
C545 C 0.00913 0.17014 0.51686 0.0
C546 C 0.01213 0.14273 0.61366 0.0
C547 C 0.99107 0.13184 0.59713 0.0
C548 C 0.97868 0.14079 0.54085 0.0
C549 C 0.98754 0.15995 0.50125 0.0
C550 C 0.98424 0.08611 0.73869 0.0
C551 C 0.98332 0.06505 0.71066 0.0
C552 C 0.98454 0.10828 0.70172 0.0
C553 C 0.98389 0.10982 0.63608 0.0
C554 C 0.98013 0.08913 0.60834 0.0
C555 C 0.97983 0.06687 0.64542 0.0
H556 H 0.32124 0.07302 0.57032 0.0
H557 H 0.34254 0.03077 0.42416 0.0
H558 H 0.35608 0.05516 0.63413 0.0
H559 H 0.37678 0.01179 0.48896 0.0
H560 H 0.4525 0.00964 0.58454 0.0
H561 H 0.41514 0.02057 0.52345 0.0
H562 H 0.37423 0.02149 0.69489 0.0
H563 H 0.41195 0.01192 0.75558 0.0
C564 C 0.3332 0.05954 0.55251 0.0
C565 C 0.32943 0.05337 0.49237 0.0
C566 C 0.35308 0.04911 0.58917 0.0
C567 C 0.36937 0.03195 0.56686 0.0
C568 C 0.36497 0.02524 0.50728 0.0
C569 C 0.34533 0.03601 0.47022 0.0
C570 C 0.43542 0.01174 0.60906 0.0
C571 C 0.43511 0.01017 0.67466 0.0
C572 C 0.41392 0.01795 0.57407 0.0
C573 C 0.39159 0.02229 0.60408 0.0
C574 C 0.39114 0.01899 0.67004 0.0
C575 C 0.41271 0.01325 0.70491 0.0
H576 H 0.52204 0.37593 0.44064 0.0
H577 H 0.44965 0.37552 0.51984 0.0
H578 H 0.53 0.41127 0.49091 0.0
H579 H 0.45743 0.41084 0.56823 0.0
H580 H 0.46555 0.48666 0.5877 0.0
H581 H 0.46369 0.45382 0.52579 0.0
H582 H 0.53325 0.42364 0.60355 0.0
H583 H 0.53526 0.45692 0.66598 0.0
C584 C 0.50791 0.38324 0.46899 0.0
C585 C 0.48507 0.37307 0.47556 0.0
C586 C 0.51247 0.40348 0.4975 0.0
C587 C 0.49419 0.41398 0.53247 0.0
C588 C 0.47166 0.40346 0.54022 0.0
C589 C 0.46718 0.38324 0.51234 0.0
C590 C 0.48075 0.47333 0.5907 0.0
C591 C 0.5004 0.47415 0.63231 0.0
C592 C 0.4796 0.45447 0.55545 0.0
C593 C 0.49805 0.43594 0.56103 0.0
C594 C 0.51876 0.4377 0.59859 0.0
C595 C 0.51994 0.45674 0.63412 0.0
H596 H 0.10799 0.48399 0.37198 0.0
H597 H 0.1545 0.48713 0.53283 0.0
H598 H 0.07431 0.50385 0.423 0.0
H599 H 0.1208 0.5068 0.5841 0.0
H600 H 0.05827 0.54818 0.65986 0.0
H601 H 0.09128 0.54163 0.58613 0.0
H602 H 0.04998 0.4887 0.51179 0.0
H603 H 0.01729 0.4954 0.58424 0.0
C604 C 0.11104 0.48905 0.41812 0.0
C605 C 0.13374 0.48365 0.4489 0.0
C606 C 0.0918 0.50052 0.44717 0.0
C607 C 0.09483 0.50674 0.50777 0.0
C608 C 0.11795 0.50253 0.53708 0.0
C609 C 0.13723 0.49113 0.50788 0.0
C610 C 0.05601 0.53576 0.62625 0.0
C611 C 0.03537 0.52215 0.62797 0.0
C612 C 0.07496 0.53184 0.58454 0.0
C613 C 0.07334 0.51449 0.54355 0.0
C614 C 0.05178 0.50235 0.54221 0.0
C615 C 0.03306 0.50609 0.58404 0.0
H616 H 0.09716 0.85494 0.14055 0.0
H617 H 0.05352 0.82015 0.01581 0.0
H618 H 0.09463 0.89113 0.06604 0.0
H619 H 0.04882 0.857 0.94457 0.0
H620 H 0.04771 0.92383 0.81107 0.0
H621 H 0.06306 0.88633 0.87165 0.0
H622 H 0.06561 0.92184 0.03786 0.0
H623 H 0.05191 0.95931 0.9764 0.0
C624 C 0.08722 0.85484 0.09702 0.0
C625 C 0.07516 0.83461 0.08502 0.0
C626 C 0.08539 0.87584 0.05459 0.0
C627 C 0.07101 0.87737 0.99969 0.0
C628 C 0.06016 0.85669 0.98601 0.0
C629 C 0.06246 0.83554 0.02771 0.0
C630 C 0.05201 0.92359 0.86036 0.0
C631 C 0.0485 0.94443 0.88912 0.0
C632 C 0.06064 0.90206 0.89531 0.0
C633 C 0.06539 0.9008 0.96011 0.0
C634 C 0.06266 0.92199 0.98805 0.0
C635 C 0.05456 0.94356 0.95283 0.0
H636 H 0.66036 0.06143 0.02739 0.0
H637 H 0.68153 0.98871 0.99931 0.0
H638 H 0.62295 0.05985 0.96642 0.0
H639 H 0.64384 0.98688 0.94005 0.0
H640 H 0.5836 0.99921 0.79067 0.0
H641 H 0.62258 0.00333 0.84186 0.0
H642 H 0.5849 0.03895 0.98298 0.0
H643 H 0.54592 0.03519 0.93135 0.0
C644 C 0.65716 0.04523 0.0075 0.0
C645 C 0.6738 0.02516 0.01827 0.0
C646 C 0.63562 0.04423 0.97327 0.0
C647 C 0.63038 0.02318 0.94891 0.0
C648 C 0.64743 0.0034 0.95788 0.0
C649 C 0.66891 0.00437 0.99225 0.0
C650 C 0.58362 0.00794 0.83261 0.0
C651 C 0.56166 0.01679 0.85713 0.0
C652 C 0.60595 0.01023 0.86197 0.0
C653 C 0.60679 0.02149 0.91636 0.0
C654 C 0.58486 0.03049 0.94062 0.0
C655 C 0.56251 0.02815 0.91134 0.0
H656 H 0.42188 0.64042 0.10461 0.0
H657 H 0.48454 0.67266 0.01572 0.0
H658 H 0.43078 0.60486 0.05366 0.0
H659 H 0.49279 0.63755 0.96258 0.0
H660 H 0.51506 0.56296 0.92102 0.0
H661 H 0.50691 0.59565 0.98325 0.0
H662 H 0.42938 0.59276 0.95046 0.0
H663 H 0.43743 0.55983 0.88972 0.0
C664 C 0.43754 0.63994 0.07412 0.0
C665 C 0.45249 0.65941 0.06422 0.0
C666 C 0.44252 0.61963 0.04451 0.0
C667 C 0.46255 0.61831 0.0042 0.0
C668 C 0.47743 0.63782 0.99407 0.0
C669 C 0.47247 0.65812 0.02374 0.0
C670 C 0.49627 0.56906 0.92792 0.0
C671 C 0.47692 0.55884 0.90017 0.0
C672 C 0.4916 0.58794 0.9631 0.0
C673 C 0.4675 0.597 0.97127 0.0
C674 C 0.44814 0.58611 0.94559 0.0
C675 C 0.45279 0.56725 0.91053 0.0
H676 H 0.86124 0.46634 0.16966 0.0
H677 H 0.84227 0.54032 0.09853 0.0
H678 H 0.89711 0.46693 0.1026 0.0
H679 H 0.87734 0.54058 0.02968 0.0
H680 H 0.95326 0.54174 0.95335 0.0
H681 H 0.92136 0.53956 0.03209 0.0
H682 H 0.90677 0.46871 0.99234 0.0
H683 H 0.93909 0.47063 0.91478 0.0
C684 C 0.86472 0.48271 0.13976 0.0
C685 C 0.84883 0.50325 0.13924 0.0
C686 C 0.88515 0.48299 0.10096 0.0
C687 C 0.89013 0.50382 0.06088 0.0
C688 C 0.87426 0.52434 0.06062 0.0
C689 C 0.85391 0.52408 0.09939 0.0
C690 C 0.94345 0.52558 0.96197 0.0
C691 C 0.94857 0.50643 0.9275 0.0
C692 C 0.92506 0.52439 0.0068 0.0
C693 C 0.9113 0.50408 0.01795 0.0
C694 C 0.91713 0.48454 0.98528 0.0
C695 C 0.93561 0.48569 0.94062 0.0
H696 H 0.00129 0.19598 0.08298 0.0
H697 H 0.07991 0.18875 0.10571 0.0
H698 H 0.00293 0.16108 0.02675 0.0
H699 H 0.08155 0.15473 0.04737 0.0
H700 H 0.06959 0.0751 0.04037 0.0
H701 H 0.06994 0.11415 0.07613 0.0
H702 H 0.01632 0.14256 0.93371 0.0
H703 H 0.01556 0.10304 0.89885 0.0
C704 C 0.01895 0.18729 0.075 0.0
C705 C 0.04042 0.19515 0.09961 0.0
C706 C 0.01991 0.16739 0.0422 0.0
C707 C 0.04236 0.15488 0.03331 0.0
C708 C 0.06392 0.16369 0.05433 0.0
C709 C 0.06297 0.18349 0.0871 0.0
C710 C 0.05794 0.08967 0.01651 0.0
C711 C 0.04245 0.08589 0.96707 0.0
C712 C 0.05832 0.11218 0.03653 0.0
C713 C 0.04317 0.13156 0.00775 0.0
C714 C 0.02809 0.12798 0.95716 0.0
C715 C 0.02783 0.1054 0.93679 0.0
H716 H 0.29687 0.03539 0.09161 0.0
H717 H 0.31677 0.10766 0.10167 0.0
H718 H 0.33483 0.02759 0.03583 0.0
H719 H 0.35394 0.10007 0.04476 0.0
H720 H 0.43151 0.06851 0.02927 0.0
H721 H 0.39179 0.07517 0.07585 0.0
H722 H 0.35807 0.03921 0.93588 0.0
H723 H 0.39796 0.03276 0.88831 0.0
C724 C 0.30908 0.0497 0.08107 0.0
C725 C 0.30371 0.07214 0.10124 0.0
C726 C 0.33074 0.04527 0.04886 0.0
C727 C 0.34751 0.06312 0.03674 0.0
C728 C 0.34157 0.08583 0.05432 0.0
C729 C 0.32 0.09028 0.08614 0.0
C730 C 0.41568 0.06216 0.00795 0.0
C731 C 0.41801 0.05032 0.95456 0.0
C732 C 0.39287 0.06598 0.03471 0.0
C733 C 0.37174 0.058 0.00902 0.0
C734 C 0.37405 0.0455 0.9568 0.0
C735 C 0.39694 0.04176 0.9297 0.0
H736 H 0.45969 0.33522 0.0337 0.0
H737 H 0.50821 0.36509 0.15734 0.0
H738 H 0.46226 0.3707 0.95634 0.0
H739 H 0.51083 0.40032 0.08028 0.0
H740 H 0.52589 0.45246 0.90803 0.0
H741 H 0.52571 0.41482 0.97737 0.0
H742 H 0.44797 0.41301 0.94624 0.0
H743 H 0.4482 0.45057 0.87566 0.0
C744 C 0.47106 0.34924 0.04419 0.0
C745 C 0.48375 0.34725 0.1018 0.0
C746 C 0.47245 0.36961 0.99997 0.0
C747 C 0.48661 0.38845 0.01227 0.0
C748 C 0.49999 0.38605 0.06888 0.0
C749 C 0.49857 0.36573 0.11305 0.0
C750 C 0.50872 0.44407 0.91586 0.0
C751 C 0.48701 0.45463 0.88648 0.0
C752 C 0.50863 0.42249 0.95583 0.0
C753 C 0.48683 0.41088 0.96748 0.0
C754 C 0.46514 0.42132 0.93766 0.0
C755 C 0.46522 0.44296 0.89763 0.0
H756 H 0.16819 0.43704 0.01866 0.0
H757 H 0.13916 0.48806 0.13671 0.0
H758 H 0.13407 0.44848 0.9449 0.0
H759 H 0.10549 0.49947 0.06342 0.0
H760 H 0.05991 0.53053 0.89512 0.0
H761 H 0.09655 0.51963 0.95884 0.0
H762 H 0.08926 0.44517 0.94036 0.0
H763 H 0.05262 0.45616 0.87505 0.0
C764 C 0.15466 0.45076 0.02872 0.0
C765 C 0.1566 0.46178 0.08339 0.0
C766 C 0.13509 0.45725 0.98658 0.0
C767 C 0.11709 0.47493 0.99818 0.0
C768 C 0.11926 0.48613 0.05235 0.0
C769 C 0.13871 0.47964 0.09435 0.0
C770 C 0.0661 0.51181 0.90436 0.0
C771 C 0.05319 0.49419 0.88036 0.0
C772 C 0.0871 0.50556 0.94113 0.0
C773 C 0.09575 0.48151 0.95511 0.0
C774 C 0.08319 0.46388 0.93 0.0
C775 C 0.0621 0.47016 0.89299 0.0
H776 H 0.05822 0.8236 0.5081 0.0
H777 H 0.98227 0.8171 0.46291 0.0
H778 H 0.04683 0.85704 0.56445 0.0
H779 H 0.97076 0.85068 0.51998 0.0
H780 H 0.96602 0.93067 0.5503 0.0
H781 H 0.97392 0.89329 0.50715 0.0
H782 H 0.02713 0.86982 0.65448 0.0
H783 H 0.02009 0.90767 0.69586 0.0
C784 C 0.03899 0.82893 0.5114 0.0
C785 C 0.02117 0.81757 0.48093 0.0
C786 C 0.03244 0.84819 0.54384 0.0
C787 C 0.00785 0.85666 0.54687 0.0
C788 C 0.98991 0.84488 0.51787 0.0
C789 C 0.99649 0.8256 0.48522 0.0
C790 C 0.97941 0.91757 0.57358 0.0
C791 C 0.99261 0.92246 0.62617 0.0
C792 C 0.98373 0.89593 0.54923 0.0
C793 C 0.00133 0.87853 0.57694 0.0
C794 C 0.01373 0.88295 0.63125 0.0
C795 C 0.00946 0.90462 0.65552 0.0
H796 H 0.70697 0.97658 0.48219 0.0
H797 H 0.66113 0.01602 0.33569 0.0
H798 H 0.67032 0.96643 0.54349 0.0
H799 H 0.62481 0.00584 0.39602 0.0
H800 H 0.56379 0.96582 0.49374 0.0
H801 H 0.60204 0.96908 0.43592 0.0
H802 H 0.63713 0.99142 0.59663 0.0
H803 H 0.5989 0.98801 0.65457 0.0
C804 C 0.68907 0.98287 0.46308 0.0
C805 C 0.68678 0.99725 0.40471 0.0
C806 C 0.66819 0.97716 0.49803 0.0
C807 C 0.64475 0.98531 0.47434 0.0
C808 C 0.64259 0.99911 0.41517 0.0
C809 C 0.66336 0.00511 0.38093 0.0
C810 C 0.57976 0.97106 0.51697 0.0
C811 C 0.5783 0.97689 0.57839 0.0
C812 C 0.6016 0.97305 0.48384 0.0
C813 C 0.6225 0.98058 0.51178 0.0
C814 C 0.62134 0.98543 0.57411 0.0
C815 C 0.59941 0.98374 0.60696 0.0
H816 H 0.44783 0.68942 0.48239 0.0
H817 H 0.5229 0.67915 0.4249 0.0
H818 H 0.45335 0.65452 0.55992 0.0
H819 H 0.52776 0.64284 0.50003 0.0
H820 H 0.53076 0.58472 0.67401 0.0
H821 H 0.52935 0.62368 0.60841 0.0
H822 H 0.45572 0.61309 0.54984 0.0
H823 H 0.45688 0.57493 0.6161 0.0
C824 C 0.46572 0.68009 0.48683 0.0
C825 C 0.48483 0.6872 0.44641 0.0
C826 C 0.46872 0.65967 0.53077 0.0
C827 C 0.49076 0.64545 0.53501 0.0
C828 C 0.51047 0.6533 0.49777 0.0
C829 C 0.50757 0.67401 0.45414 0.0
C830 C 0.51434 0.59077 0.64689 0.0
C831 C 0.49388 0.57682 0.65057 0.0
C832 C 0.51354 0.61306 0.60931 0.0
C833 C 0.49228 0.62173 0.57464 0.0
C834 C 0.47215 0.60737 0.57727 0.0
C835 C 0.47288 0.58532 0.61492 0.0
H836 H 0.83638 0.58679 0.45263 0.0
H837 H 0.80828 0.52615 0.56811 0.0
H838 H 0.8727 0.58348 0.52019 0.0
H839 H 0.84355 0.52395 0.63674 0.0
H840 H 0.92361 0.49941 0.66677 0.0
H841 H 0.88487 0.50944 0.61242 0.0
H842 H 0.89195 0.58427 0.62653 0.0
H843 H 0.93141 0.57419 0.68109 0.0
C844 C 0.83756 0.57316 0.49308 0.0
C845 C 0.81949 0.55643 0.50376 0.0
C846 C 0.8583 0.57143 0.53213 0.0
C847 C 0.86125 0.55305 0.58278 0.0
C848 C 0.84207 0.53795 0.5971 0.0
C849 C 0.82155 0.53951 0.55802 0.0
C850 C 0.91703 0.51804 0.65848 0.0
C851 C 0.93061 0.53599 0.67849 0.0
C852 C 0.89464 0.52377 0.62776 0.0
C853 C 0.88511 0.54762 0.61616 0.0
C854 C 0.89882 0.56574 0.63504 0.0
C855 C 0.92136 0.55996 0.66624 0.0
loop_
_geom_bond_atom_site_label_1
_geom_bond_atom_site_label_2
_geom_bond_distance
_geom_bond_site_symmetry_2
_ccdc_geom_bond_type
P0 O11 1.490 . S
P0 C14 1.812 . S
P0 C20 1.803 . S
P0 C26 1.819 . S
H1 C15 0.941 . S
H2 C16 0.939 . S
H3 C18 0.940 . S
H4 C19 0.940 . S
H5 C21 0.939 . S
H6 C22 0.942 . S
H7 C24 0.940 . S
H8 C25 0.939 . S
H9 C27 0.941 . S
H10 C31 0.939 . S
O11 P0 1.490 . S
H12 C28 0.939 . S
H13 C30 0.940 1_556 S
C14 P0 1.812 . S
C14 C15 1.389 . S
C14 C19 1.391 . S
C15 H1 0.941 . S
C15 C14 1.389 . S
C15 C16 1.397 . S
C16 H2 0.939 . S
C16 C15 1.397 . S
C16 C17 1.378 . S
C17 C16 1.378 . S
C17 C18 1.378 . S
C18 H3 0.940 . S
C18 C17 1.378 . S
C18 C19 1.396 . S
C19 H4 0.940 . S
C19 C14 1.391 . S
C19 C18 1.396 . S
C20 P0 1.803 . S
C20 C21 1.378 . S
C20 C25 1.400 . S
C21 H5 0.939 . S
C21 C20 1.378 . S
C21 C22 1.361 . S
C22 H6 0.942 . S
C22 C21 1.361 . S
C22 C23 1.369 . S
C23 C22 1.369 . S
C23 C24 1.404 . S
C24 H7 0.940 . S
C24 C23 1.404 . S
C24 C25 1.389 . S
C25 H8 0.939 . S
C25 C20 1.400 . S
C25 C24 1.389 . S
C26 P0 1.819 . S
C26 C27 1.391 . S
C26 C31 1.391 . S
C27 H9 0.941 . S
C27 C26 1.391 . S
C27 C28 1.396 . S
C28 H12 0.939 . S
C28 C27 1.396 . S
C28 C29 1.397 . S
C29 C28 1.397 . S
C29 C30 1.385 . S
C30 H13 0.940 1_554 S
C30 C29 1.385 . S
C30 C31 1.388 . S
C31 H10 0.939 . S
C31 C26 1.391 . S
C31 C30 1.388 . S
P32 O43 1.490 . S
P32 C46 1.812 . S
P32 C52 1.803 . S
P32 C58 1.819 . S
H33 C47 0.941 . S
H34 C48 0.939 . S
H35 C50 0.940 . S
H36 C51 0.950 . S
H37 C53 0.939 . S
H38 C54 0.942 . S
H39 C56 0.940 . S
H40 C57 0.958 . S
H41 C59 0.941 . S
H42 C63 0.927 1_655 S
O43 P32 1.490 . S
H44 C60 0.939 . S
H45 C62 0.940 . S
C46 P32 1.812 . S
C46 C47 1.389 . S
C46 C51 1.376 1_455 S
C47 H33 0.941 . S
C47 C46 1.389 . S
C47 C48 1.397 . S
C48 H34 0.939 . S
C48 C47 1.397 . S
C48 C49 1.378 . S
C49 C48 1.378 . S
C49 C50 1.378 1_455 S
C50 H35 0.940 . S
C50 C49 1.378 1_655 S
C50 C51 1.402 . S
C51 H36 0.950 . S
C51 C46 1.376 1_655 S
C51 C50 1.402 . S
C52 P32 1.803 . S
C52 C53 1.378 . S
C52 C57 1.368 1_455 S
C53 H37 0.939 . S
C53 C52 1.378 . S
C53 C54 1.361 . S
C54 H38 0.942 . S
C54 C53 1.361 . S
C54 C55 1.369 . S
C55 C54 1.369 . S
C55 C56 1.404 1_455 S
C56 H39 0.940 . S
C56 C55 1.404 1_655 S
C56 C57 1.404 . S
C57 H40 0.958 . S
C57 C52 1.368 1_655 S
C57 C56 1.404 . S
C58 P32 1.819 . S
C58 C59 1.391 . S
C58 C63 1.391 . S
C59 H41 0.941 . S
C59 C58 1.391 . S
C59 C60 1.396 . S
C60 H44 0.939 . S
C60 C59 1.396 . S
C60 C61 1.397 1_554 S
C61 C60 1.397 1_556 S
C61 C62 1.385 1_455 S
C62 H45 0.940 . S
C62 C61 1.385 1_655 S
C62 C63 1.388 1_656 S
C63 H42 0.927 1_455 S
C63 C58 1.391 . S
C63 C62 1.388 1_454 S
P64 O75 1.490 1_565 S
P64 C78 1.812 . S
P64 C84 1.803 . S
P64 C90 1.819 . S
H65 C79 0.941 . S
H66 C80 0.939 . S
H67 C82 0.940 . S
H68 C83 0.940 . S
H69 C85 0.939 . S
H70 C86 0.942 . S
H71 C88 0.940 . S
H72 C89 0.939 . S
H73 C91 0.941 . S
H74 C95 0.939 . S
O75 P64 1.490 1_545 S
H76 C92 0.939 1_556 S
H77 C94 0.940 . S
C78 P64 1.812 . S
C78 C79 1.389 . S
C78 C83 1.391 . S
C79 H65 0.941 . S
C79 C78 1.389 . S
C79 C80 1.397 . S
C80 H66 0.939 . S
C80 C79 1.397 . S
C80 C81 1.378 . S
C81 C80 1.378 . S
C81 C82 1.378 . S
C82 H67 0.940 . S
C82 C81 1.378 . S
C82 C83 1.396 . S
C83 H68 0.940 . S
C83 C78 1.391 . S
C83 C82 1.396 . S
C84 P64 1.803 . S
C84 C85 1.378 . S
C84 C89 1.400 . S
C85 H69 0.939 . S
C85 C84 1.378 . S
C85 C86 1.361 . S
C86 H70 0.942 . S
C86 C85 1.361 . S
C86 C87 1.369 . S
C87 C86 1.369 . S
C87 C88 1.404 . S
C88 H71 0.940 . S
C88 C87 1.404 . S
C88 C89 1.389 . S
C89 H72 0.939 . S
C89 C84 1.400 . S
C89 C88 1.389 . S
C90 P64 1.819 . S
C90 C91 1.391 . S
C90 C95 1.391 . S
C91 H73 0.941 . S
C91 C90 1.391 . S
C91 C92 1.396 . S
C92 H76 0.939 1_554 S
C92 C91 1.396 . S
C92 C93 1.397 1_554 S
C93 C92 1.397 1_556 S
C93 C94 1.385 . S
C94 H77 0.940 . S
C94 C93 1.385 . S
C94 C95 1.388 1_556 S
C95 H74 0.939 . S
C95 C90 1.391 . S
C95 C94 1.388 1_554 S
P96 O107 1.490 . S
P96 C110 1.812 . S
P96 C116 1.803 . S
P96 C122 1.819 . S
H97 C111 0.941 . S
H98 C112 0.939 . S
H99 C114 0.940 . S
H100 C115 0.940 . S
H101 C117 0.939 . S
H102 C118 0.942 . S
H103 C120 0.940 . S
H104 C121 0.939 . S
H105 C123 0.941 . S
H106 C127 0.939 . S
O107 P96 1.490 . S
H108 C124 0.939 . S
H109 C126 0.940 . S
C110 P96 1.812 . S
C110 C111 1.389 . S
C110 C115 1.391 . S
C111 H97 0.941 . S
C111 C110 1.389 . S
C111 C112 1.397 . S
C112 H98 0.939 . S
C112 C111 1.397 . S
C112 C113 1.378 . S
C113 C112 1.378 . S
C113 C114 1.378 . S
C114 H99 0.940 . S
C114 C113 1.378 . S
C114 C115 1.396 . S
C115 H100 0.940 . S
C115 C110 1.391 . S
C115 C114 1.396 . S
C116 P96 1.803 . S
C116 C117 1.378 . S
C116 C121 1.400 . S
C117 H101 0.939 . S
C117 C116 1.378 . S
C117 C118 1.361 . S
C118 H102 0.942 . S
C118 C117 1.361 . S
C118 C119 1.369 . S
C119 C118 1.369 . S
C119 C120 1.404 . S
C120 H103 0.940 . S
C120 C119 1.404 . S
C120 C121 1.389 . S
C121 H104 0.939 . S
C121 C116 1.400 . S
C121 C120 1.389 . S
C122 P96 1.819 . S
C122 C123 1.391 . S
C122 C127 1.391 . S
C123 H105 0.941 . S
C123 C122 1.391 . S
C123 C124 1.396 . S
C124 H108 0.939 . S
C124 C123 1.396 . S
C124 C125 1.389 1_554 S
C125 C124 1.389 1_556 S
C125 C126 1.384 . S
C126 H109 0.940 . S
C126 C125 1.384 . S
C126 C127 1.388 1_556 S
C127 H106 0.939 . S
C127 C122 1.391 . S
C127 C126 1.388 1_554 S
P128 O139 1.490 . S
P128 C142 1.812 . S
P128 C148 1.803 . S
P128 C154 1.819 . S
H129 C143 0.941 . S
H130 C144 0.939 . S
H131 C146 0.940 . S
H132 C147 0.940 . S
H133 C149 0.939 . S
H134 C150 0.942 . S
H135 C152 0.940 . S
H136 C153 0.939 . S
H137 C155 0.941 . S
H138 C159 0.939 . S
O139 P128 1.490 . S
H140 C156 0.939 . S
H141 C158 0.940 . S
C142 P128 1.812 . S
C142 C143 1.389 . S
C142 C147 1.391 . S
C143 H129 0.941 . S
C143 C142 1.389 . S
C143 C144 1.397 . S
C144 H130 0.939 . S
C144 C143 1.397 . S
C144 C145 1.378 . S
C145 C144 1.378 . S
C145 C146 1.378 . S
C146 H131 0.940 . S
C146 C145 1.378 . S
C146 C147 1.396 . S
C147 H132 0.940 . S
C147 C142 1.391 . S
C147 C146 1.396 . S
C148 P128 1.803 . S
C148 C149 1.378 . S
C148 C153 1.400 . S
C149 H133 0.939 . S
C149 C148 1.378 . S
C149 C150 1.361 . S
C150 H134 0.942 . S
C150 C149 1.361 . S
C150 C151 1.369 . S
C151 C150 1.369 . S
C151 C152 1.404 . S
C152 H135 0.940 . S
C152 C151 1.404 . S
C152 C153 1.389 . S
C153 H136 0.939 . S
C153 C148 1.400 . S
C153 C152 1.389 . S
C154 P128 1.819 . S
C154 C155 1.391 . S
C154 C159 1.391 . S
C155 H137 0.941 . S
C155 C154 1.391 . S
C155 C156 1.396 . S
C156 H140 0.939 . S
C156 C155 1.396 . S
C156 C157 1.397 . S
C157 C156 1.397 . S
C157 C158 1.385 . S
C158 H141 0.940 . S
C158 C157 1.385 . S
C158 C159 1.388 . S
C159 H138 0.939 . S
C159 C154 1.391 . S
C159 C158 1.388 . S
P160 O171 1.490 . S
P160 C174 1.812 . S
P160 C180 1.803 . S
P160 C186 1.819 . S
H161 C175 0.941 . S
H162 C176 0.939 . S
H163 C178 0.940 . S
H164 C179 0.944 . S
H165 C181 0.939 . S
H166 C182 0.942 . S
H167 C184 0.940 . S
H168 C185 0.954 . S
H169 C187 0.941 . S
H170 C191 0.934 1_655 S
O171 P160 1.490 . S
H172 C188 0.939 . S
H173 C190 0.940 . S
C174 P160 1.812 . S
C174 C175 1.389 . S
C174 C179 1.385 1_455 S
C175 H161 0.941 . S
C175 C174 1.389 . S
C175 C176 1.397 . S
C176 H162 0.939 . S
C176 C175 1.397 . S
C176 C177 1.378 . S
C177 C176 1.378 . S
C177 C178 1.378 1_455 S
C178 H163 0.940 . S
C178 C177 1.378 1_655 S
C178 C179 1.399 . S
C179 H164 0.944 . S
C179 C174 1.385 1_655 S
C179 C178 1.399 . S
C180 P160 1.803 . S
C180 C181 1.378 . S
C180 C185 1.379 1_455 S
C181 H165 0.939 . S
C181 C180 1.378 . S
C181 C182 1.361 . S
C182 H166 0.942 . S
C182 C181 1.361 . S
C182 C183 1.369 . S
C183 C182 1.369 . S
C183 C184 1.404 1_455 S
C184 H167 0.940 . S
C184 C183 1.404 1_655 S
C184 C185 1.396 . S
C185 H168 0.954 . S
C185 C180 1.379 1_655 S
C185 C184 1.396 . S
C186 P160 1.819 . S
C186 C187 1.391 . S
C186 C191 1.391 . S
C187 H169 0.941 . S
C187 C186 1.391 . S
C187 C188 1.396 . S
C188 H172 0.939 . S
C188 C187 1.396 . S
C188 C189 1.397 . S
C189 C188 1.397 . S
C189 C190 1.385 1_455 S
C190 H173 0.940 . S
C190 C189 1.385 1_655 S
C190 C191 1.388 1_655 S
C191 H170 0.934 1_455 S
C191 C186 1.391 . S
C191 C190 1.388 1_455 S
P192 O203 1.490 . S
P192 C206 1.812 . S
P192 C212 1.803 . S
P192 C218 1.819 . S
H193 C207 0.941 . S
H194 C208 0.939 . S
H195 C210 0.940 . S
H196 C211 0.940 . S
H197 C213 0.939 . S
H198 C214 0.942 . S
H199 C216 0.940 . S
H200 C217 0.939 . S
H201 C219 0.941 . S
H202 C223 0.939 . S
O203 P192 1.490 . S
H204 C220 0.939 . S
H205 C222 0.940 . S
C206 P192 1.812 . S
C206 C207 1.389 . S
C206 C211 1.391 . S
C207 H193 0.941 . S
C207 C206 1.389 . S
C207 C208 1.397 . S
C208 H194 0.939 . S
C208 C207 1.397 . S
C208 C209 1.378 . S
C209 C208 1.378 . S
C209 C210 1.378 . S
C210 H195 0.940 . S
C210 C209 1.378 . S
C210 C211 1.396 . S
C211 H196 0.940 . S
C211 C206 1.391 . S
C211 C210 1.396 . S
C212 P192 1.803 . S
C212 C213 1.378 . S
C212 C217 1.400 . S
C213 H197 0.939 . S
C213 C212 1.378 . S
C213 C214 1.361 . S
C214 H198 0.942 . S
C214 C213 1.361 . S
C214 C215 1.369 . S
C215 C214 1.369 . S
C215 C216 1.404 . S
C216 H199 0.940 . S
C216 C215 1.404 . S
C216 C217 1.389 . S
C217 H200 0.939 . S
C217 C212 1.400 . S
C217 C216 1.389 . S
C218 P192 1.819 . S
C218 C219 1.391 . S
C218 C223 1.391 . S
C219 H201 0.941 . S
C219 C218 1.391 . S
C219 C220 1.396 . S
C220 H204 0.939 . S
C220 C219 1.396 . S
C220 C221 1.397 . S
C221 C220 1.397 . S
C221 C222 1.385 . S
C222 H205 0.940 . S
C222 C221 1.385 . S
C222 C223 1.388 . S
C223 H202 0.939 . S
C223 C218 1.391 . S
C223 C222 1.388 . S
P224 O235 1.490 . S
P224 C238 1.812 . S
P224 C244 1.803 . S
P224 C250 1.819 . S
H225 C239 0.941 . S
H226 C240 0.939 . S
H227 C242 0.940 . S
H228 C243 0.940 . S
H229 C245 0.939 . S
H230 C246 0.942 . S
H231 C248 0.940 . S
H232 C249 0.939 . S
H233 C251 0.941 . S
H234 C255 0.939 . S
O235 P224 1.490 . S
H236 C252 0.939 . S
H237 C254 0.940 . S
C238 P224 1.812 . S
C238 C239 1.389 . S
C238 C243 1.391 . S
C239 H225 0.941 . S
C239 C238 1.389 . S
C239 C240 1.397 . S
C240 H226 0.939 . S
C240 C239 1.397 . S
C240 C241 1.378 . S
C241 C240 1.378 . S
C241 C242 1.378 . S
C242 H227 0.940 . S
C242 C241 1.378 . S
C242 C243 1.396 . S
C243 H228 0.940 . S
C243 C238 1.391 . S
C243 C242 1.396 . S
C244 P224 1.803 . S
C244 C245 1.378 . S
C244 C249 1.400 . S
C245 H229 0.939 . S
C245 C244 1.378 . S
C245 C246 1.361 . S
C246 H230 0.942 . S
C246 C245 1.361 . S
C246 C247 1.369 . S
C247 C246 1.369 . S
C247 C248 1.404 . S
C248 H231 0.940 . S
C248 C247 1.404 . S
C248 C249 1.389 . S
C249 H232 0.939 . S
C249 C244 1.400 . S
C249 C248 1.389 . S
C250 P224 1.819 . S
C250 C251 1.391 . S
C250 C255 1.391 . S
C251 H233 0.941 . S
C251 C250 1.391 . S
C251 C252 1.396 . S
C252 H236 0.939 . S
C252 C251 1.396 . S
C252 C253 1.397 . S
C253 C252 1.397 . S
C253 C254 1.385 . S
C254 H237 0.940 . S
C254 C253 1.385 . S
C254 C255 1.388 . S
C255 H234 0.939 . S
C255 C250 1.391 . S
C255 C254 1.388 . S
Co256 N261 2.057 . S
Co256 O273 2.021 . S
Co256 O276 2.062 1_455 S
Co256 O280 2.117 1_455 S
Co256 O281 2.020 1_545 S
C257 O277 1.259 1_545 S
C257 O280 1.258 . S
Co258 N267 2.059 . S
Co258 O274 2.116 1_665 S
Co258 O275 2.017 1_565 S
Co258 O277 2.021 . S
Co258 O282 2.064 1_655 S
C259 N261 1.316 . S
C259 N262 1.347 . S
C259 H264 0.931 . S
C260 N261 1.375 1_655 S
C260 C263 1.350 . S
C260 H265 0.930 . S
N261 Co256 2.057 . S
N261 C259 1.316 . S
N261 C260 1.375 1_455 S
N262 C259 1.347 . S
N262 C263 1.373 1_455 S
C263 C260 1.350 . S
C263 N262 1.373 1_655 S
C263 H284 0.931 1_556 S
H264 C259 0.931 . S
H265 C260 0.930 . S
C266 O273 1.259 . S
C266 O274 1.258 . S
N267 Co258 2.059 . S
N267 C268 1.316 . S
N267 C269 1.375 1_655 S
C268 N267 1.316 . S
C268 N270 1.347 . S
C268 H279 0.931 . S
C269 N267 1.375 1_455 S
C269 C271 1.350 . S
C269 H278 0.930 . S
N270 C268 1.347 . S
N270 C271 1.373 1_655 S
C271 C269 1.350 . S
C271 N270 1.373 1_455 S
C271 H285 0.931 . S
C272 O275 1.256 . S
C272 O276 1.255 . S
O273 Co256 2.021 . S
O273 C266 1.259 . S
O274 Co258 2.116 1_445 S
O274 C266 1.258 . S
O275 Co258 2.017 1_545 S
O275 C272 1.256 . S
O276 Co256 2.062 1_655 S
O276 C272 1.255 . S
O277 C257 1.259 1_565 S
O277 Co258 2.021 . S
H278 C269 0.930 . S
H279 C268 0.931 . S
O280 Co256 2.117 1_655 S
O280 C257 1.258 . S
O281 Co256 2.020 1_565 S
O281 C283 1.256 . S
O282 Co258 2.064 1_455 S
O282 C283 1.255 . S
C283 O281 1.256 . S
C283 O282 1.255 . S
H284 C263 0.931 1_554 S
H285 C271 0.931 . S
Co286 N291 2.057 . S
Co286 O303 2.021 . S
Co286 O306 2.062 . S
Co286 O310 2.117 1_545 S
Co286 O311 2.020 . S
C287 O307 1.259 . S
C287 O310 1.258 . S
Co288 N297 2.063 . S
Co288 O304 2.117 . S
Co288 O305 2.020 . S
Co288 O307 2.021 1_545 S
Co288 O312 2.064 1_545 S
C289 N291 1.316 . S
C289 N292 1.347 . S
C289 H294 0.931 . S
C290 N291 1.375 . S
C290 C293 1.350 . S
C290 H295 0.930 1_545 S
N291 Co286 2.057 . S
N291 C289 1.316 . S
N291 C290 1.375 . S
N292 C289 1.347 . S
N292 C293 1.373 . S
C293 C290 1.350 . S
C293 N292 1.373 . S
C293 H314 0.931 1_556 S
H294 C289 0.931 . S
H295 C290 0.930 1_565 S
C296 O303 1.259 . S
C296 O304 1.258 . S
N297 Co288 2.063 . S
N297 C298 1.275 1_545 S
N297 C299 1.409 . S
C298 N297 1.275 1_565 S
C298 N300 1.347 . S
C298 H309 0.931 . S
C299 N297 1.409 . S
C299 C301 1.350 . S
C299 H308 0.930 . S
N300 C298 1.347 . S
N300 C301 1.373 1_565 S
C301 C299 1.350 . S
C301 N300 1.373 1_545 S
C301 H315 0.931 . S
C302 O305 1.256 . S
C302 O306 1.255 . S
O303 Co286 2.021 . S
O303 C296 1.259 . S
O304 Co288 2.117 . S
O304 C296 1.258 . S
O305 Co288 2.020 . S
O305 C302 1.256 . S
O306 Co286 2.062 . S
O306 C302 1.255 . S
O307 C287 1.259 . S
O307 Co288 2.021 1_565 S
H308 C299 0.930 . S
H309 C298 0.931 . S
O310 Co286 2.117 1_565 S
O310 C287 1.258 . S
O311 Co286 2.020 . S
O311 C313 1.256 . S
O312 Co288 2.064 1_565 S
O312 C313 1.238 1_565 S
C313 O311 1.256 . S
C313 O312 1.238 1_545 S
H314 C293 0.931 1_554 S
H315 C301 0.931 . S
Co316 N321 2.057 . S
Co316 O333 2.021 . S
Co316 O336 2.062 . S
Co316 O340 2.117 . S
Co316 O341 2.020 . S
C317 O337 1.259 . S
C317 O340 1.258 . S
Co318 N327 2.057 . S
Co318 O334 2.117 . S
Co318 O335 2.020 . S
Co318 O337 2.021 . S
Co318 O342 2.062 . S
C319 N321 1.316 . S
C319 N322 1.347 . S
C319 H324 0.931 . S
C320 N321 1.375 . S
C320 C323 1.350 . S
C320 H325 0.930 . S
N321 Co316 2.057 . S
N321 C319 1.316 . S
N321 C320 1.375 . S
N322 C319 1.347 . S
N322 C323 1.373 . S
C323 C320 1.350 . S
C323 N322 1.373 . S
C323 H344 0.931 . S
H324 C319 0.931 . S
H325 C320 0.930 . S
C326 O333 1.259 . S
C326 O334 1.258 . S
N327 Co318 2.057 . S
N327 C328 1.316 . S
N327 C329 1.375 . S
C328 N327 1.316 . S
C328 N330 1.347 . S
C328 H339 0.931 . S
C329 N327 1.375 . S
C329 C331 1.350 . S
C329 H338 0.930 . S
N330 C328 1.347 . S
N330 C331 1.373 . S
C331 C329 1.350 . S
C331 N330 1.373 . S
C331 H345 0.931 . S
C332 O335 1.256 . S
C332 O336 1.255 . S
O333 Co316 2.021 . S
O333 C326 1.259 . S
O334 Co318 2.117 . S
O334 C326 1.258 . S
O335 Co318 2.020 . S
O335 C332 1.256 . S
O336 Co316 2.062 . S
O336 C332 1.255 . S
O337 C317 1.259 . S
O337 Co318 2.021 . S
H338 C329 0.930 . S
H339 C328 0.931 . S
O340 Co316 2.117 . S
O340 C317 1.258 . S
O341 Co316 2.020 . S
O341 C343 1.256 . S
O342 Co318 2.062 . S
O342 C343 1.255 . S
C343 O341 1.256 . S
C343 O342 1.255 . S
H344 C323 0.931 . S
H345 C331 0.931 . S
Co346 N351 2.057 . S
Co346 O363 2.021 1_455 S
Co346 O366 2.062 1_455 S
Co346 O370 2.117 . S
Co346 O371 2.020 . S
C347 O367 1.259 . S
C347 O370 1.258 . S
Co348 N357 2.057 . S
Co348 O364 2.117 . S
Co348 O365 2.020 . S
Co348 O367 2.021 1_655 S
Co348 O372 2.062 1_655 S
C349 N351 1.316 . S
C349 N352 1.347 . S
C349 H354 0.931 1_455 S
C350 N351 1.375 . S
C350 C353 1.350 . S
C350 H355 0.930 . S
N351 Co346 2.057 . S
N351 C349 1.316 . S
N351 C350 1.375 . S
N352 C349 1.347 . S
N352 C353 1.373 . S
C353 C350 1.350 . S
C353 N352 1.373 . S
C353 H374 0.931 . S
H354 C349 0.931 1_655 S
H355 C350 0.930 . S
C356 O363 1.259 . S
C356 O364 1.258 . S
N357 Co348 2.057 . S
N357 C358 1.316 . S
N357 C359 1.375 . S
C358 N357 1.316 . S
C358 N360 1.347 . S
C358 H369 0.931 1_655 S
C359 N357 1.375 . S
C359 C361 1.350 . S
C359 H368 0.930 . S
N360 C358 1.347 . S
N360 C361 1.373 . S
C361 C359 1.350 . S
C361 N360 1.373 . S
C361 H375 0.931 . S
C362 O365 1.256 . S
C362 O366 1.255 . S
O363 Co346 2.021 1_655 S
O363 C356 1.259 . S
O364 Co348 2.117 . S
O364 C356 1.258 . S
O365 Co348 2.020 . S
O365 C362 1.256 . S
O366 Co346 2.062 1_655 S
O366 C362 1.255 . S
O367 C347 1.259 . S
O367 Co348 2.021 1_455 S
H368 C359 0.930 . S
H369 C358 0.931 1_455 S
O370 Co346 2.117 . S
O370 C347 1.258 . S
O371 Co346 2.020 . S
O371 C373 1.256 . S
O372 Co348 2.062 1_455 S
O372 C373 1.255 . S
C373 O371 1.256 . S
C373 O372 1.255 . S
H374 C353 0.931 . S
H375 C361 0.931 . S
H376 C384 0.950 . S
H377 C389 0.950 . S
H378 C386 0.950 . S
H379 C388 0.950 . S
H380 C390 0.950 . S
H381 C392 0.950 . S
H382 C394 0.950 . S
H383 C395 0.950 1_565 S
C384 H376 0.950 . S
C384 C385 1.386 . S
C384 C386 1.391 . S
C385 C384 1.386 . S
C385 C389 1.393 . S
C386 H378 0.950 . S
C386 C384 1.391 . S
C386 C387 1.400 . S
C387 C386 1.400 . S
C387 C388 1.398 . S
C387 C393 1.491 . S
C388 H379 0.950 . S
C388 C387 1.398 . S
C388 C389 1.391 . S
C389 H377 0.950 . S
C389 C385 1.393 . S
C389 C388 1.391 . S
C390 H380 0.950 . S
C390 C391 1.386 . S
C390 C392 1.391 . S
C391 C390 1.386 . S
C391 C395 1.393 . S
C392 H381 0.950 . S
C392 C390 1.391 . S
C392 C393 1.400 . S
C393 C387 1.491 . S
C393 C392 1.400 . S
C393 C394 1.398 . S
C394 H382 0.950 . S
C394 C393 1.398 . S
C394 C395 1.391 . S
C395 H383 0.950 1_545 S
C395 C391 1.393 . S
C395 C394 1.391 . S
H396 C404 0.950 . S
H397 C409 0.950 . S
H398 C406 0.950 . S
H399 C408 0.950 . S
H400 C410 0.950 . S
H401 C412 0.950 . S
H402 C414 0.950 . S
H403 C415 0.950 . S
C404 H396 0.950 . S
C404 C405 1.386 . S
C404 C406 1.391 . S
C405 C404 1.386 . S
C405 C409 1.393 . S
C406 H398 0.950 . S
C406 C404 1.391 . S
C406 C407 1.400 . S
C407 C406 1.400 . S
C407 C408 1.398 . S
C407 C413 1.491 . S
C408 H399 0.950 . S
C408 C407 1.398 . S
C408 C409 1.391 . S
C409 H397 0.950 . S
C409 C405 1.393 . S
C409 C408 1.391 . S
C410 H400 0.950 . S
C410 C411 1.386 . S
C410 C412 1.391 . S
C411 C410 1.386 . S
C411 C415 1.393 . S
C412 H401 0.950 . S
C412 C410 1.391 . S
C412 C413 1.400 . S
C413 C407 1.491 . S
C413 C412 1.400 . S
C413 C414 1.398 . S
C414 H402 0.950 . S
C414 C413 1.398 . S
C414 C415 1.391 . S
C415 H403 0.950 . S
C415 C411 1.393 . S
C415 C414 1.391 . S
H416 C424 0.950 . S
H417 C429 0.950 . S
H418 C426 0.950 . S
H419 C428 0.950 . S
H420 C430 0.950 . S
H421 C432 0.950 . S
H422 C434 0.950 . S
H423 C435 0.950 . S
C424 H416 0.950 . S
C424 C425 1.386 . S
C424 C426 1.391 . S
C425 C424 1.386 . S
C425 C429 1.393 . S
C426 H418 0.950 . S
C426 C424 1.391 . S
C426 C427 1.400 . S
C427 C426 1.400 . S
C427 C428 1.398 . S
C427 C433 1.491 . S
C428 H419 0.950 . S
C428 C427 1.398 . S
C428 C429 1.391 . S
C429 H417 0.950 . S
C429 C425 1.393 . S
C429 C428 1.391 . S
C430 H420 0.950 . S
C430 C431 1.386 . S
C430 C432 1.391 . S
C431 C430 1.386 . S
C431 C435 1.393 . S
C432 H421 0.950 . S
C432 C430 1.391 . S
C432 C433 1.400 . S
C433 C427 1.491 . S
C433 C432 1.400 . S
C433 C434 1.398 . S
C434 H422 0.950 . S
C434 C433 1.398 . S
C434 C435 1.391 . S
C435 H423 0.950 . S
C435 C431 1.393 . S
C435 C434 1.391 . S
H436 C444 0.950 . S
H437 C449 0.950 . S
H438 C446 0.950 . S
H439 C448 0.950 . S
H440 C450 0.950 . S
H441 C452 0.950 . S
H442 C454 0.950 . S
H443 C455 0.950 . S
C444 H436 0.950 . S
C444 C445 1.386 . S
C444 C446 1.391 . S
C445 C444 1.386 . S
C445 C449 1.393 1_655 S
C446 H438 0.950 . S
C446 C444 1.391 . S
C446 C447 1.400 . S
C447 C446 1.400 . S
C447 C448 1.398 1_655 S
C447 C453 1.491 . S
C448 H439 0.950 . S
C448 C447 1.398 1_455 S
C448 C449 1.391 . S
C449 H437 0.950 . S
C449 C445 1.393 1_455 S
C449 C448 1.391 . S
C450 H440 0.950 . S
C450 C451 1.386 1_455 S
C450 C452 1.391 . S
C451 C450 1.386 1_655 S
C451 C455 1.393 . S
C452 H441 0.950 . S
C452 C450 1.391 . S
C452 C453 1.400 1_455 S
C453 C447 1.491 . S
C453 C452 1.400 1_655 S
C453 C454 1.398 . S
C454 H442 0.950 . S
C454 C453 1.398 . S
C454 C455 1.391 . S
C455 H443 0.950 . S
C455 C451 1.393 . S
C455 C454 1.391 . S
H456 C464 0.950 . S
H457 C469 0.950 . S
H458 C466 0.950 . S
H459 C468 0.950 . S
H460 C470 0.950 . S
H461 C472 0.950 . S
H462 C474 0.953 1_545 S
H463 C475 0.950 . S
C464 H456 0.950 . S
C464 C465 1.386 1_556 S
C464 C466 1.391 . S
C465 C464 1.386 1_554 S
C465 C469 1.393 . S
C466 H458 0.950 . S
C466 C464 1.391 . S
C466 C467 1.400 . S
C467 C466 1.400 . S
C467 C468 1.398 . S
C467 C473 1.491 . S
C468 H459 0.950 . S
C468 C467 1.398 . S
C468 C469 1.391 1_556 S
C469 H457 0.950 . S
C469 C465 1.393 . S
C469 C468 1.391 1_554 S
C470 H460 0.950 . S
C470 C471 1.386 . S
C470 C472 1.391 . S
C471 C470 1.386 . S
C471 C475 1.393 1_565 S
C472 H461 0.950 . S
C472 C470 1.391 . S
C472 C473 1.400 . S
C473 C467 1.491 . S
C473 C472 1.400 . S
C473 C474 1.394 . S
C474 H462 0.953 1_565 S
C474 C473 1.394 . S
C474 C475 1.393 1_565 S
C475 H463 0.950 . S
C475 C471 1.393 1_545 S
C475 C474 1.393 1_545 S
H476 C484 0.950 . S
H477 C489 0.950 . S
H478 C486 0.950 . S
H479 C488 0.950 . S
H480 C490 0.950 . S
H481 C492 0.950 . S
H482 C494 0.950 . S
H483 C495 0.950 . S
C484 H476 0.950 . S
C484 C485 1.386 . S
C484 C486 1.391 1_554 S
C485 C484 1.386 . S
C485 C489 1.393 . S
C486 H478 0.950 . S
C486 C484 1.391 1_556 S
C486 C487 1.400 . S
C487 C486 1.400 . S
C487 C488 1.398 . S
C487 C493 1.491 . S
C488 H479 0.950 . S
C488 C487 1.398 . S
C488 C489 1.391 1_556 S
C489 H477 0.950 . S
C489 C485 1.393 . S
C489 C488 1.391 1_554 S
C490 H480 0.950 . S
C490 C491 1.386 . S
C490 C492 1.391 . S
C491 C490 1.386 . S
C491 C495 1.393 . S
C492 H481 0.950 . S
C492 C490 1.391 . S
C492 C493 1.400 . S
C493 C487 1.491 . S
C493 C492 1.400 . S
C493 C494 1.398 . S
C494 H482 0.950 . S
C494 C493 1.398 . S
C494 C495 1.391 . S
C495 H483 0.950 . S
C495 C491 1.393 . S
C495 C494 1.391 . S
H496 C504 0.950 1_556 S
H497 C509 0.950 . S
H498 C506 0.950 . S
H499 C508 0.950 . S
H500 C510 0.950 . S
H501 C512 0.950 . S
H502 C514 0.950 . S
H503 C515 0.950 . S
C504 H496 0.950 1_554 S
C504 C505 1.386 . S
C504 C506 1.391 1_554 S
C505 C504 1.386 . S
C505 C509 1.393 . S
C506 H498 0.950 . S
C506 C504 1.391 1_556 S
C506 C507 1.400 . S
C507 C506 1.400 . S
C507 C508 1.398 1_556 S
C507 C513 1.491 . S
C508 H499 0.950 . S
C508 C507 1.398 1_554 S
C508 C509 1.391 . S
C509 H497 0.950 . S
C509 C505 1.393 . S
C509 C508 1.391 . S
C510 H500 0.950 . S
C510 C511 1.386 . S
C510 C512 1.391 . S
C511 C510 1.386 . S
C511 C515 1.393 . S
C512 H501 0.950 . S
C512 C510 1.391 . S
C512 C513 1.400 . S
C513 C507 1.491 . S
C513 C512 1.400 . S
C513 C514 1.398 . S
C514 H502 0.950 . S
C514 C513 1.398 . S
C514 C515 1.391 . S
C515 H503 0.950 . S
C515 C511 1.393 . S
C515 C514 1.391 . S
H516 C524 0.950 . S
H517 C529 0.950 . S
H518 C526 0.950 . S
H519 C528 0.950 . S
H520 C530 0.950 . S
H521 C532 0.950 . S
H522 C534 0.950 . S
H523 C535 0.950 . S
C524 H516 0.950 . S
C524 C525 1.387 . S
C524 C526 1.391 . S
C525 C524 1.387 . S
C525 C529 1.391 1_455 S
C526 H518 0.950 . S
C526 C524 1.391 . S
C526 C527 1.400 1_554 S
C527 C526 1.400 1_556 S
C527 C528 1.398 1_455 S
C527 C533 1.491 . S
C528 H519 0.950 . S
C528 C527 1.398 1_655 S
C528 C529 1.391 1_556 S
C529 H517 0.950 . S
C529 C525 1.391 1_655 S
C529 C528 1.391 1_554 S
C530 H520 0.950 . S
C530 C531 1.386 1_655 S
C530 C532 1.391 . S
C531 C530 1.386 1_455 S
C531 C535 1.393 . S
C532 H521 0.950 . S
C532 C530 1.391 . S
C532 C533 1.400 1_655 S
C533 C527 1.491 . S
C533 C532 1.400 1_455 S
C533 C534 1.398 . S
C534 H522 0.950 . S
C534 C533 1.398 . S
C534 C535 1.391 . S
C535 H523 0.950 . S
C535 C531 1.393 . S
C535 C534 1.391 . S
H536 C544 0.950 . S
H537 C549 0.950 . S
H538 C546 0.950 . S
H539 C548 0.950 . S
H540 C550 0.950 . S
H541 C552 0.950 . S
H542 C554 0.950 . S
H543 C555 0.950 . S
C544 H536 0.950 . S
C544 C545 1.386 . S
C544 C546 1.391 . S
C545 C544 1.386 . S
C545 C549 1.393 1_455 S
C546 H538 0.950 . S
C546 C544 1.391 . S
C546 C547 1.400 1_455 S
C547 C546 1.400 1_655 S
C547 C548 1.398 . S
C547 C553 1.491 . S
C548 H539 0.950 . S
C548 C547 1.398 . S
C548 C549 1.391 . S
C549 H537 0.950 . S
C549 C545 1.393 1_655 S
C549 C548 1.391 . S
C550 H540 0.950 . S
C550 C551 1.386 . S
C550 C552 1.391 . S
C551 C550 1.386 . S
C551 C555 1.393 1_655 S
C552 H541 0.950 . S
C552 C550 1.391 . S
C552 C553 1.400 . S
C553 C547 1.491 . S
C553 C552 1.400 . S
C553 C554 1.398 1_655 S
C554 H542 0.950 . S
C554 C553 1.398 1_455 S
C554 C555 1.391 . S
C555 H543 0.950 . S
C555 C551 1.393 1_455 S
C555 C554 1.391 . S
H556 C564 0.950 . S
H557 C569 0.950 . S
H558 C566 0.950 . S
H559 C568 0.950 . S
H560 C570 0.950 . S
H561 C572 0.950 . S
H562 C574 0.950 . S
H563 C575 0.950 . S
C564 H556 0.950 . S
C564 C565 1.386 . S
C564 C566 1.391 . S
C565 C564 1.386 . S
C565 C569 1.393 . S
C566 H558 0.950 . S
C566 C564 1.391 . S
C566 C567 1.400 . S
C567 C566 1.400 . S
C567 C568 1.398 . S
C567 C573 1.491 . S
C568 H559 0.950 . S
C568 C567 1.398 . S
C568 C569 1.391 . S
C569 H557 0.950 . S
C569 C565 1.393 . S
C569 C568 1.391 . S
C570 H560 0.950 . S
C570 C571 1.386 . S
C570 C572 1.391 . S
C571 C570 1.386 . S
C571 C575 1.393 . S
C572 H561 0.950 . S
C572 C570 1.391 . S
C572 C573 1.400 . S
C573 C567 1.491 . S
C573 C572 1.400 . S
C573 C574 1.398 . S
C574 H562 0.950 . S
C574 C573 1.398 . S
C574 C575 1.391 . S
C575 H563 0.950 . S
C575 C571 1.393 . S
C575 C574 1.391 . S
H576 C584 0.950 . S
H577 C589 0.950 . S
H578 C586 0.950 . S
H579 C588 0.950 . S
H580 C590 0.950 . S
H581 C592 0.950 . S
H582 C594 0.950 . S
H583 C595 0.950 . S
C584 H576 0.950 . S
C584 C585 1.386 . S
C584 C586 1.391 . S
C585 C584 1.386 . S
C585 C589 1.393 . S
C586 H578 0.950 . S
C586 C584 1.391 . S
C586 C587 1.400 . S
C587 C586 1.400 . S
C587 C588 1.398 . S
C587 C593 1.491 . S
C588 H579 0.950 . S
C588 C587 1.398 . S
C588 C589 1.391 . S
C589 H577 0.950 . S
C589 C585 1.393 . S
C589 C588 1.391 . S
C590 H580 0.950 . S
C590 C591 1.386 . S
C590 C592 1.391 . S
C591 C590 1.386 . S
C591 C595 1.393 . S
C592 H581 0.950 . S
C592 C590 1.391 . S
C592 C593 1.400 . S
C593 C587 1.491 . S
C593 C592 1.400 . S
C593 C594 1.398 . S
C594 H582 0.950 . S
C594 C593 1.398 . S
C594 C595 1.391 . S
C595 H583 0.950 . S
C595 C591 1.393 . S
C595 C594 1.391 . S
H596 C604 0.950 . S
H597 C609 0.950 . S
H598 C606 0.950 . S
H599 C608 0.950 . S
H600 C610 0.950 . S
H601 C612 0.950 . S
H602 C614 0.950 . S
H603 C615 0.950 . S
C604 H596 0.950 . S
C604 C605 1.386 . S
C604 C606 1.391 . S
C605 C604 1.386 . S
C605 C609 1.393 . S
C606 H598 0.950 . S
C606 C604 1.391 . S
C606 C607 1.400 . S
C607 C606 1.400 . S
C607 C608 1.398 . S
C607 C613 1.491 . S
C608 H599 0.950 . S
C608 C607 1.398 . S
C608 C609 1.391 . S
C609 H597 0.950 . S
C609 C605 1.393 . S
C609 C608 1.391 . S
C610 H600 0.950 . S
C610 C611 1.386 . S
C610 C612 1.391 . S
C611 C610 1.386 . S
C611 C615 1.393 . S
C612 H601 0.950 . S
C612 C610 1.391 . S
C612 C613 1.400 . S
C613 C607 1.491 . S
C613 C612 1.400 . S
C613 C614 1.398 . S
C614 H602 0.950 . S
C614 C613 1.398 . S
C614 C615 1.391 . S
C615 H603 0.950 . S
C615 C611 1.393 . S
C615 C614 1.391 . S
H616 C624 0.950 . S
H617 C629 0.950 . S
H618 C626 0.950 1_554 S
H619 C628 0.950 . S
H620 C630 0.950 . S
H621 C632 0.950 . S
H622 C634 0.972 . S
H623 C635 0.950 1_655 S
C624 H616 0.950 . S
C624 C625 1.386 1_554 S
C624 C626 1.391 1_554 S
C625 C624 1.386 1_556 S
C625 C629 1.393 1_655 S
C626 H618 0.950 1_556 S
C626 C624 1.391 1_556 S
C626 C627 1.400 1_655 S
C627 C626 1.400 1_455 S
C627 C628 1.398 . S
C627 C633 1.491 . S
C628 H619 0.950 . S
C628 C627 1.398 . S
C628 C629 1.391 . S
C629 H617 0.950 . S
C629 C625 1.393 1_455 S
C629 C628 1.391 . S
C630 H620 0.950 . S
C630 C631 1.386 . S
C630 C632 1.391 . S
C631 C630 1.386 . S
C631 C635 1.393 . S
C632 H621 0.950 . S
C632 C630 1.391 . S
C632 C633 1.400 . S
C633 C627 1.491 . S
C633 C632 1.400 . S
C633 C634 1.386 1_455 S
C634 H622 0.972 . S
C634 C633 1.386 1_655 S
C634 C635 1.383 1_655 S
C635 H623 0.950 1_455 S
C635 C631 1.393 . S
C635 C634 1.383 1_455 S
H636 C644 0.950 . S
H637 C649 0.950 . S
H638 C646 0.950 . S
H639 C648 0.950 . S
H640 C650 0.950 . S
H641 C652 0.950 . S
H642 C654 0.950 . S
H643 C655 0.950 . S
C644 H636 0.950 . S
C644 C645 1.386 . S
C644 C646 1.391 . S
C645 C644 1.386 . S
C645 C649 1.393 . S
C646 H638 0.950 . S
C646 C644 1.391 . S
C646 C647 1.400 . S
C647 C646 1.400 . S
C647 C648 1.398 . S
C647 C653 1.491 . S
C648 H639 0.950 . S
C648 C647 1.398 . S
C648 C649 1.391 . S
C649 H637 0.950 . S
C649 C645 1.393 . S
C649 C648 1.391 . S
C650 H640 0.950 . S
C650 C651 1.386 1_565 S
C650 C652 1.391 . S
C651 C650 1.386 1_545 S
C651 C655 1.393 . S
C652 H641 0.950 . S
C652 C650 1.391 . S
C652 C653 1.400 . S
C653 C647 1.491 . S
C653 C652 1.400 . S
C653 C654 1.398 1_565 S
C654 H642 0.950 . S
C654 C653 1.398 1_545 S
C654 C655 1.391 . S
C655 H643 0.950 . S
C655 C651 1.393 . S
C655 C654 1.391 . S
H656 C664 0.950 . S
H657 C669 0.950 . S
H658 C666 0.950 . S
H659 C668 0.950 . S
H660 C670 0.950 . S
H661 C672 0.950 . S
H662 C674 0.950 . S
H663 C675 0.950 . S
C664 H656 0.950 . S
C664 C665 1.386 . S
C664 C666 1.391 . S
C665 C664 1.386 . S
C665 C669 1.393 . S
C666 H658 0.950 . S
C666 C664 1.391 . S
C666 C667 1.400 . S
C667 C666 1.400 . S
C667 C668 1.398 . S
C667 C673 1.491 . S
C668 H659 0.950 . S
C668 C667 1.398 . S
C668 C669 1.391 . S
C669 H657 0.950 . S
C669 C665 1.393 . S
C669 C668 1.391 . S
C670 H660 0.950 . S
C670 C671 1.386 . S
C670 C672 1.391 . S
C671 C670 1.386 . S
C671 C675 1.393 . S
C672 H661 0.950 . S
C672 C670 1.391 . S
C672 C673 1.400 . S
C673 C667 1.491 . S
C673 C672 1.400 . S
C673 C674 1.398 . S
C674 H662 0.950 . S
C674 C673 1.398 . S
C674 C675 1.391 . S
C675 H663 0.950 . S
C675 C671 1.393 . S
C675 C674 1.391 . S
H676 C684 0.950 . S
H677 C689 0.950 . S
H678 C686 0.950 . S
H679 C688 0.950 . S
H680 C690 0.950 . S
H681 C692 0.950 . S
H682 C694 0.950 . S
H683 C695 0.950 . S
C684 H676 0.950 . S
C684 C685 1.386 . S
C684 C686 1.391 . S
C685 C684 1.386 . S
C685 C689 1.393 . S
C686 H678 0.950 . S
C686 C684 1.391 . S
C686 C687 1.400 . S
C687 C686 1.400 . S
C687 C688 1.398 . S
C687 C693 1.491 . S
C688 H679 0.950 . S
C688 C687 1.398 . S
C688 C689 1.391 . S
C689 H677 0.950 . S
C689 C685 1.393 . S
C689 C688 1.391 . S
C690 H680 0.950 . S
C690 C691 1.386 . S
C690 C692 1.391 . S
C691 C690 1.386 . S
C691 C695 1.393 . S
C692 H681 0.950 . S
C692 C690 1.391 . S
C692 C693 1.400 . S
C693 C687 1.491 . S
C693 C692 1.400 . S
C693 C694 1.398 . S
C694 H682 0.950 . S
C694 C693 1.398 . S
C694 C695 1.391 . S
C695 H683 0.950 . S
C695 C691 1.393 . S
C695 C694 1.391 . S
H696 C704 0.950 . S
H697 C709 0.950 . S
H698 C706 0.950 . S
H699 C708 0.950 . S
H700 C710 0.950 . S
H701 C712 0.950 . S
H702 C714 0.950 . S
H703 C715 0.950 . S
C704 H696 0.950 . S
C704 C705 1.386 1_655 S
C704 C706 1.391 . S
C705 C704 1.386 1_455 S
C705 C709 1.393 . S
C706 H698 0.950 . S
C706 C704 1.391 . S
C706 C707 1.400 1_655 S
C707 C706 1.400 1_455 S
C707 C708 1.398 . S
C707 C713 1.491 . S
C708 H699 0.950 . S
C708 C707 1.398 . S
C708 C709 1.391 . S
C709 H697 0.950 . S
C709 C705 1.393 . S
C709 C708 1.391 . S
C710 H700 0.950 . S
C710 C711 1.386 . S
C710 C712 1.391 . S
C711 C710 1.386 . S
C711 C715 1.393 1_454 S
C712 H701 0.950 . S
C712 C710 1.391 . S
C712 C713 1.400 . S
C713 C707 1.491 . S
C713 C712 1.400 . S
C713 C714 1.398 1_455 S
C714 H702 0.950 . S
C714 C713 1.398 1_655 S
C714 C715 1.391 1_554 S
C715 H703 0.950 . S
C715 C711 1.393 1_656 S
C715 C714 1.391 1_556 S
H716 C724 0.950 . S
H717 C729 0.950 . S
H718 C726 0.950 . S
H719 C728 0.950 . S
H720 C730 0.950 . S
H721 C732 0.950 . S
H722 C734 0.950 . S
H723 C735 0.950 1_556 S
C724 H716 0.950 . S
C724 C725 1.386 . S
C724 C726 1.391 . S
C725 C724 1.386 . S
C725 C729 1.393 . S
C726 H718 0.950 . S
C726 C724 1.391 . S
C726 C727 1.400 . S
C727 C726 1.400 . S
C727 C728 1.398 . S
C727 C733 1.491 . S
C728 H719 0.950 . S
C728 C727 1.398 . S
C728 C729 1.391 . S
C729 H717 0.950 . S
C729 C725 1.393 . S
C729 C728 1.391 . S
C730 H720 0.950 . S
C730 C731 1.386 . S
C730 C732 1.391 . S
C731 C730 1.386 . S
C731 C735 1.393 . S
C732 H721 0.950 . S
C732 C730 1.391 . S
C732 C733 1.400 . S
C733 C727 1.491 . S
C733 C732 1.400 . S
C733 C734 1.398 . S
C734 H722 0.950 . S
C734 C733 1.398 . S
C734 C735 1.391 . S
C735 H723 0.950 1_554 S
C735 C731 1.393 . S
C735 C734 1.391 . S
H736 C744 0.950 . S
H737 C749 0.950 . S
H738 C746 0.950 . S
H739 C748 0.950 . S
H740 C750 0.950 . S
H741 C752 0.950 . S
H742 C754 0.950 . S
H743 C755 0.950 . S
C744 H736 0.950 . S
C744 C745 1.386 . S
C744 C746 1.391 . S
C745 C744 1.386 . S
C745 C749 1.393 . S
C746 H738 0.950 . S
C746 C744 1.391 . S
C746 C747 1.400 . S
C747 C746 1.400 . S
C747 C748 1.398 . S
C747 C753 1.491 . S
C748 H739 0.950 . S
C748 C747 1.398 . S
C748 C749 1.391 . S
C749 H737 0.950 . S
C749 C745 1.393 . S
C749 C748 1.391 . S
C750 H740 0.950 . S
C750 C751 1.386 . S
C750 C752 1.391 1_556 S
C751 C750 1.386 . S
C751 C755 1.393 . S
C752 H741 0.950 . S
C752 C750 1.391 1_554 S
C752 C753 1.400 . S
C753 C747 1.491 . S
C753 C752 1.400 . S
C753 C754 1.398 1_554 S
C754 H742 0.950 . S
C754 C753 1.398 1_556 S
C754 C755 1.391 . S
C755 H743 0.950 . S
C755 C751 1.393 . S
C755 C754 1.391 . S
H756 C764 0.950 . S
H757 C769 0.950 . S
H758 C766 0.950 . S
H759 C768 0.950 . S
H760 C770 0.950 . S
H761 C772 0.950 . S
H762 C774 0.950 . S
H763 C775 0.950 . S
C764 H756 0.950 . S
C764 C765 1.386 . S
C764 C766 1.391 . S
C765 C764 1.386 . S
C765 C769 1.393 . S
C766 H758 0.950 . S
C766 C764 1.391 . S
C766 C767 1.400 . S
C767 C766 1.400 . S
C767 C768 1.398 . S
C767 C773 1.491 . S
C768 H759 0.950 . S
C768 C767 1.398 . S
C768 C769 1.391 . S
C769 H757 0.950 . S
C769 C765 1.393 . S
C769 C768 1.391 . S
C770 H760 0.950 . S
C770 C771 1.386 1_554 S
C770 C772 1.391 . S
C771 C770 1.386 1_556 S
C771 C775 1.393 . S
C772 H761 0.950 . S
C772 C770 1.391 . S
C772 C773 1.400 . S
C773 C767 1.491 . S
C773 C772 1.400 . S
C773 C774 1.398 1_554 S
C774 H762 0.950 . S
C774 C773 1.398 1_556 S
C774 C775 1.391 . S
C775 H763 0.950 . S
C775 C771 1.393 . S
C775 C774 1.391 . S
H776 C784 0.950 . S
H777 C789 0.950 . S
H778 C786 0.950 . S
H779 C788 0.950 . S
H780 C790 0.950 . S
H781 C792 0.950 . S
H782 C794 0.950 . S
H783 C795 0.950 . S
C784 H776 0.950 . S
C784 C785 1.386 1_455 S
C784 C786 1.391 . S
C785 C784 1.386 1_655 S
C785 C789 1.393 . S
C786 H778 0.950 . S
C786 C784 1.391 . S
C786 C787 1.400 1_455 S
C787 C786 1.400 1_655 S
C787 C788 1.398 . S
C787 C793 1.491 . S
C788 H779 0.950 . S
C788 C787 1.398 . S
C788 C789 1.391 . S
C789 H777 0.950 . S
C789 C785 1.393 . S
C789 C788 1.391 . S
C790 H780 0.950 . S
C790 C791 1.386 . S
C790 C792 1.391 . S
C791 C790 1.386 . S
C791 C795 1.393 1_655 S
C792 H781 0.950 . S
C792 C790 1.391 . S
C792 C793 1.400 . S
C793 C787 1.491 . S
C793 C792 1.400 . S
C793 C794 1.398 1_655 S
C794 H782 0.950 . S
C794 C793 1.398 1_455 S
C794 C795 1.391 . S
C795 H783 0.950 . S
C795 C791 1.393 1_455 S
C795 C794 1.391 . S
H796 C804 0.950 . S
H797 C809 0.950 . S
H798 C806 0.950 . S
H799 C808 0.950 . S
H800 C810 0.950 . S
H801 C812 0.950 . S
H802 C814 0.950 . S
H803 C815 0.950 . S
C804 H796 0.950 . S
C804 C805 1.386 . S
C804 C806 1.391 . S
C805 C804 1.386 . S
C805 C809 1.393 . S
C806 H798 0.950 . S
C806 C804 1.391 . S
C806 C807 1.400 . S
C807 C806 1.400 . S
C807 C808 1.398 . S
C807 C813 1.491 . S
C808 H799 0.950 . S
C808 C807 1.398 . S
C808 C809 1.391 . S
C809 H797 0.950 . S
C809 C805 1.393 . S
C809 C808 1.391 . S
C810 H800 0.950 . S
C810 C811 1.386 . S
C810 C812 1.391 . S
C811 C810 1.386 . S
C811 C815 1.393 . S
C812 H801 0.950 . S
C812 C810 1.391 . S
C812 C813 1.400 . S
C813 C807 1.491 . S
C813 C812 1.400 . S
C813 C814 1.398 . S
C814 H802 0.950 . S
C814 C813 1.398 . S
C814 C815 1.391 . S
C815 H803 0.950 . S
C815 C811 1.393 . S
C815 C814 1.391 . S
H816 C824 0.950 . S
H817 C829 0.950 . S
H818 C826 0.950 . S
H819 C828 0.950 . S
H820 C830 0.950 . S
H821 C832 0.950 . S
H822 C834 0.950 . S
H823 C835 0.950 . S
C824 H816 0.950 . S
C824 C825 1.386 . S
C824 C826 1.391 . S
C825 C824 1.386 . S
C825 C829 1.393 . S
C826 H818 0.950 . S
C826 C824 1.391 . S
C826 C827 1.400 . S
C827 C826 1.400 . S
C827 C828 1.398 . S
C827 C833 1.491 . S
C828 H819 0.950 . S
C828 C827 1.398 . S
C828 C829 1.391 . S
C829 H817 0.950 . S
C829 C825 1.393 . S
C829 C828 1.391 . S
C830 H820 0.950 . S
C830 C831 1.386 . S
C830 C832 1.391 . S
C831 C830 1.386 . S
C831 C835 1.393 . S
C832 H821 0.950 . S
C832 C830 1.391 . S
C832 C833 1.400 . S
C833 C827 1.491 . S
C833 C832 1.400 . S
C833 C834 1.398 . S
C834 H822 0.950 . S
C834 C833 1.398 . S
C834 C835 1.391 . S
C835 H823 0.950 . S
C835 C831 1.393 . S
C835 C834 1.391 . S
H836 C844 0.950 . S
H837 C849 0.950 . S
H838 C846 0.950 . S
H839 C848 0.950 . S
H840 C850 0.950 . S
H841 C852 0.950 . S
H842 C854 0.950 . S
H843 C855 0.950 . S
C844 H836 0.950 . S
C844 C845 1.386 . S
C844 C846 1.391 . S
C845 C844 1.386 . S
C845 C849 1.393 . S
C846 H838 0.950 . S
C846 C844 1.391 . S
C846 C847 1.400 . S
C847 C846 1.400 . S
C847 C848 1.398 . S
C847 C853 1.491 . S
C848 H839 0.950 . S
C848 C847 1.398 . S
C848 C849 1.391 . S
C849 H837 0.950 . S
C849 C845 1.393 . S
C849 C848 1.391 . S
C850 H840 0.950 . S
C850 C851 1.386 . S
C850 C852 1.391 . S
C851 C850 1.386 . S
C851 C855 1.393 . S
C852 H841 0.950 . S
C852 C850 1.391 . S
C852 C853 1.400 . S
C853 C847 1.491 . S
C853 C852 1.400 . S
C853 C854 1.398 . S
C854 H842 0.950 . S
C854 C853 1.398 . S
C854 C855 1.391 . S
C855 H843 0.950 . S
C855 C851 1.393 . S
C855 C854 1.391 . S
C385 C215 1.793 . S
C391 C266 1.776 . S
C411 C296 1.720 . S
C405 C247 1.660 . S
C431 N330 1.625 . S
C425 C151 1.671 . S
C451 N360 1.280 . S
C445 C183 1.331 1_655 S
C471 C257 1.782 1_565 S
C465 C87 1.673 . S
C485 C119 1.703 . S
C491 C287 1.723 . S
C505 C23 1.541 . S
C511 N322 1.630 . S
C525 C55 1.332 . S
C531 N352 1.301 . S
C551 C272 0.387 . S
C545 C189 0.447 . S
C571 C302 0.581 . S
C565 C221 0.583 . S
C591 C343 0.613 . S
C585 C253 0.646 . S
C605 C157 0.560 . S
C611 C373 0.607 . S
C625 C61 0.518 1_655 S
C631 C283 0.335 . S
C651 C313 0.632 . S
C645 C93 0.721 . S
C671 C332 0.643 . S
C665 C125 0.666 . S
C685 C29 0.715 1_556 S
C691 C362 0.605 . S
C705 C177 1.488 . S
C711 N262 1.518 1_554 S
C725 C209 1.663 . S
C731 N292 1.661 1_554 S
C751 C317 1.765 . S
C745 C241 1.665 . S
C771 C347 1.964 . S
C765 C145 1.923 . S
C785 C49 1.497 1_655 S
C791 N270 1.536 . S
C811 N300 1.676 . S
C805 C81 1.584 . S
C831 C326 1.765 . S
C825 C113 1.719 . S
C845 C17 1.816 . S
C851 C356 1.970 . S
