# Generated by pormake.
# Topology ant, (3,6)-cn, num edge types: 1
# Building blocks:
#     Node 0, Type 0, BuildingBlock: BELTOD_clean_linker_0, # of connection points: 3
#     Node 1, Type 0, BuildingBlock: BELTOD_clean_linker_0, # of connection points: 3
#     Node 2, Type 0, BuildingBlock: BELTOD_clean_linker_0, # of connection points: 3
#     Node 3, Type 0, BuildingBlock: BELTOD_clean_linker_0, # of connection points: 3
#     Node 4, Type 0, BuildingBlock: BELTOD_clean_linker_0, # of connection points: 3
#     Node 5, Type 0, BuildingBlock: BELTOD_clean_linker_0, # of connection points: 3
#     Node 6, Type 0, BuildingBlock: BELTOD_clean_linker_0, # of connection points: 3
#     Node 7, Type 0, BuildingBlock: BELTOD_clean_linker_0, # of connection points: 3
#     Node 8, Type 1, BuildingBlock: MIDCAF_clean_sbu_0, # of connection points: 6
#     Node 9, Type 1, BuildingBlock: MIDCAF_clean_sbu_0, # of connection points: 6
#     Node 10, Type 1, BuildingBlock: MIDCAF_clean_sbu_0, # of connection points: 6
#     Node 11, Type 1, BuildingBlock: MIDCAF_clean_sbu_0, # of connection points: 6
#     Edge 12, Type (0, 1), BuildingBlock: EZIPEK_clean_linker_0, # of connection points: 2
#     Edge 13, Type (0, 1), BuildingBlock: EZIPEK_clean_linker_0, # of connection points: 2
#     Edge 14, Type (0, 1), BuildingBlock: EZIPEK_clean_linker_0, # of connection points: 2
#     Edge 15, Type (0, 1), BuildingBlock: EZIPEK_clean_linker_0, # of connection points: 2
#     Edge 16, Type (0, 1), BuildingBlock: EZIPEK_clean_linker_0, # of connection points: 2
#     Edge 17, Type (0, 1), BuildingBlock: EZIPEK_clean_linker_0, # of connection points: 2
#     Edge 18, Type (0, 1), BuildingBlock: EZIPEK_clean_linker_0, # of connection points: 2
#     Edge 19, Type (0, 1), BuildingBlock: EZIPEK_clean_linker_0, # of connection points: 2
#     Edge 20, Type (0, 1), BuildingBlock: EZIPEK_clean_linker_0, # of connection points: 2
#     Edge 21, Type (0, 1), BuildingBlock: EZIPEK_clean_linker_0, # of connection points: 2
#     Edge 22, Type (0, 1), BuildingBlock: EZIPEK_clean_linker_0, # of connection points: 2
#     Edge 23, Type (0, 1), BuildingBlock: EZIPEK_clean_linker_0, # of connection points: 2
#     Edge 24, Type (0, 1), BuildingBlock: EZIPEK_clean_linker_0, # of connection points: 2
#     Edge 25, Type (0, 1), BuildingBlock: EZIPEK_clean_linker_0, # of connection points: 2
#     Edge 26, Type (0, 1), BuildingBlock: EZIPEK_clean_linker_0, # of connection points: 2
#     Edge 27, Type (0, 1), BuildingBlock: EZIPEK_clean_linker_0, # of connection points: 2
#     Edge 28, Type (0, 1), BuildingBlock: EZIPEK_clean_linker_0, # of connection points: 2
#     Edge 29, Type (0, 1), BuildingBlock: EZIPEK_clean_linker_0, # of connection points: 2
#     Edge 30, Type (0, 1), BuildingBlock: EZIPEK_clean_linker_0, # of connection points: 2
#     Edge 31, Type (0, 1), BuildingBlock: EZIPEK_clean_linker_0, # of connection points: 2
#     Edge 32, Type (0, 1), BuildingBlock: EZIPEK_clean_linker_0, # of connection points: 2
#     Edge 33, Type (0, 1), BuildingBlock: EZIPEK_clean_linker_0, # of connection points: 2
#     Edge 34, Type (0, 1), BuildingBlock: EZIPEK_clean_linker_0, # of connection points: 2
#     Edge 35, Type (0, 1), BuildingBlock: EZIPEK_clean_linker_0, # of connection points: 2
# Relax obj value: 0.095
# Max RMSD: 0.156
# Mean RMSD: 0.098
data_MOF--net-ant--node1-MIDCAF_clean_sbu_0--node2-BELTOD_clean_linker_0--edge1-EZIPEK_clean_linker_0
_symmetry_space_group_name_H-M    P1
_symmetry_Int_Tables_number       1
_symmetry_cell_setting            triclinic
loop_
_symmetry_equiv_pos_as_xyz
'x, y, z'
_cell_length_a     24.348396
_cell_length_b     24.269917
_cell_length_c     64.963983
_cell_angle_alpha  90.494344
_cell_angle_beta   93.77897
_cell_angle_gamma 89.750108
loop_
_atom_site_label
_atom_site_type_symbol
_atom_site_fract_x
_atom_site_fract_y
_atom_site_fract_z
_atom_type_partial_charge
P0 P 0.31103 0.22644 0.05185 0.0
H1 H 0.36846 0.31419 0.07532 0.0
H2 H 0.33925 0.40531 0.08721 0.0
H3 H 0.17324 0.37206 0.06325 0.0
H4 H 0.20213 0.28024 0.05175 0.0
H5 H 0.39651 0.14972 0.0679 0.0
H6 H 0.39025 0.06188 0.08591 0.0
H7 H 0.21785 0.09191 0.09304 0.0
H8 H 0.22441 0.1807 0.07556 0.0
H9 H 0.27536 0.28928 0.01558 0.0
H10 H 0.25525 0.12313 0.0371 0.0
O11 O 0.37504 0.23531 0.04478 0.0
H12 H 0.21538 0.26794 0.9848 0.0
H13 H 0.19439 0.10245 0.00646 0.0
C14 C 0.2877 0.2908 0.06238 0.0
C15 C 0.3257 0.32624 0.07275 0.0
C16 C 0.30913 0.37825 0.07944 0.0
C17 C 0.25424 0.39555 0.07592 0.0
C18 C 0.21584 0.35955 0.06598 0.0
C19 C 0.23236 0.30723 0.05946 0.0
C20 C 0.31075 0.17151 0.0703 0.0
C21 C 0.35779 0.13849 0.07397 0.0
C22 C 0.35433 0.08835 0.08423 0.0
C23 C 0.30342 0.07016 0.09046 0.0
C24 C 0.25742 0.10524 0.08826 0.0
C25 C 0.26117 0.15586 0.07834 0.0
C26 C 0.26872 0.20847 0.02895 0.0
C27 C 0.258 0.24837 0.01375 0.0
C28 C 0.22392 0.23621 0.99622 0.0
C29 C 0.20035 0.18379 0.99353 0.0
C30 C 0.21205 0.14319 0.00841 0.0
C31 C 0.24652 0.15532 0.02596 0.0
P32 P 0.04532 0.67436 0.31112 0.0
H33 H 0.0574 0.73508 0.35094 0.0
H34 H 0.13889 0.77373 0.37021 0.0
H35 H 0.23806 0.72998 0.3199 0.0
H36 H 0.15697 0.69385 0.30039 0.0
H37 H 0.95239 0.60548 0.31928 0.0
H38 H 0.86172 0.62566 0.33158 0.0
H39 H 0.89851 0.79938 0.3326 0.0
H40 H 0.9905 0.77909 0.32069 0.0
H41 H 0.08641 0.60748 0.27801 0.0
H42 H 0.00697 0.76558 0.28426 0.0
O43 O 0.05811 0.60796 0.31601 0.0
H44 H 0.09869 0.62658 0.24174 0.0
H45 H 0.01853 0.78415 0.24771 0.0
C46 C 0.10084 0.71259 0.32401 0.0
C47 C 0.09622 0.7356 0.34375 0.0
C48 C 0.14269 0.75732 0.35481 0.0
C49 C 0.1945 0.75402 0.34655 0.0
C50 C 0.19847 0.73279 0.32656 0.0
C51 C 0.15209 0.71225 0.3154 0.0
C52 C 0.97853 0.69071 0.3196 0.0
C53 C 0.94126 0.64793 0.32219 0.0
C54 C 0.88941 0.65939 0.32901 0.0
C55 C 0.87388 0.71386 0.333 0.0
C56 C 0.91012 0.7571 0.32955 0.0
C57 C 0.96243 0.7455 0.3229 0.0
C58 C 0.0454 0.68491 0.2838 0.0
C59 C 0.0703 0.64563 0.2715 0.0
C60 C 0.07722 0.65642 0.25081 0.0
C61 C 0.05946 0.70667 0.24218 0.0
C62 C 0.03211 0.74502 0.25417 0.0
C63 C 0.02563 0.73437 0.27499 0.0
P64 P 0.80147 0.7134 0.55487 0.0
H65 H 0.8585 0.80059 0.57873 0.0
H66 H 0.82931 0.89196 0.59041 0.0
H67 H 0.66427 0.86016 0.56501 0.0
H68 H 0.69308 0.7682 0.55373 0.0
H69 H 0.88751 0.63819 0.57162 0.0
H70 H 0.88208 0.55217 0.59086 0.0
H71 H 0.70951 0.58204 0.59777 0.0
H72 H 0.71545 0.66935 0.57928 0.0
H73 H 0.77326 0.77276 0.51717 0.0
H74 H 0.73602 0.61375 0.54206 0.0
O75 O 0.86535 0.72203 0.54763 0.0
H76 H 0.7117 0.75272 0.48668 0.0
H77 H 0.67334 0.59471 0.5118 0.0
C78 C 0.77822 0.77802 0.56509 0.0
C79 C 0.81597 0.81305 0.57579 0.0
C80 C 0.79941 0.86516 0.58237 0.0
C81 C 0.74481 0.88285 0.57839 0.0
C82 C 0.70664 0.84728 0.5681 0.0
C83 C 0.72314 0.79489 0.5617 0.0
C84 C 0.80159 0.65965 0.57379 0.0
C85 C 0.84893 0.62732 0.57788 0.0
C86 C 0.84594 0.57827 0.58887 0.0
C87 C 0.79516 0.56032 0.5953 0.0
C88 C 0.74896 0.59505 0.59276 0.0
C89 C 0.75233 0.64479 0.58224 0.0
C90 C 0.75863 0.69539 0.5321 0.0
C91 C 0.75197 0.73363 0.5161 0.0
C92 C 0.71688 0.72227 0.49877 0.0
C93 C 0.68796 0.67241 0.49714 0.0
C94 C 0.69523 0.63348 0.51291 0.0
C95 C 0.73084 0.64469 0.53023 0.0
P96 P 0.52656 0.24868 0.81328 0.0
H97 H 0.55981 0.35519 0.83282 0.0
H98 H 0.64912 0.3873 0.84865 0.0
H99 H 0.71883 0.22639 0.83865 0.0
H100 H 0.63029 0.19434 0.82323 0.0
H101 H 0.47865 0.26891 0.85211 0.0
H102 H 0.3863 0.29879 0.8602 0.0
H103 H 0.34791 0.33825 0.79627 0.0
H104 H 0.44056 0.30902 0.78811 0.0
H105 H 0.60544 0.30351 0.78786 0.0
H106 H 0.46605 0.19457 0.77875 0.0
O107 O 0.5168 0.18344 0.82004 0.0
H108 H 0.62301 0.29382 0.75136 0.0
H109 H 0.48283 0.18633 0.74193 0.0
C110 C 0.58843 0.27211 0.82721 0.0
C111 C 0.59406 0.32663 0.83445 0.0
C112 C 0.64481 0.34497 0.84341 0.0
C113 C 0.69029 0.30908 0.84476 0.0
C114 C 0.68407 0.25452 0.83779 0.0
C115 C 0.6336 0.23624 0.82905 0.0
C116 C 0.46627 0.2863 0.81955 0.0
C117 C 0.45113 0.28574 0.83995 0.0
C118 C 0.39856 0.30269 0.84455 0.0
C119 C 0.36063 0.32035 0.82877 0.0
C120 C 0.37698 0.32492 0.80859 0.0
C121 C 0.42976 0.30794 0.80398 0.0
C122 C 0.53523 0.24861 0.78605 0.0
C123 C 0.57823 0.27806 0.77802 0.0
C124 C 0.58805 0.27291 0.75718 0.0
C125 C 0.55452 0.23891 0.74414 0.0
C126 C 0.50921 0.21245 0.75188 0.0
C127 C 0.4999 0.21696 0.7728 0.0
P128 P 0.11094 0.74156 0.92294 0.0
H129 H 0.12504 0.6407 0.89991 0.0
H130 H 0.06407 0.56363 0.89125 0.0
H131 H 0.92757 0.65425 0.91407 0.0
H132 H 0.99004 0.73143 0.92377 0.0
H133 H 0.15418 0.84053 0.94366 0.0
H134 H 0.13671 0.93906 0.93788 0.0
H135 H 0.00873 0.89884 0.89125 0.0
H136 H 0.02639 0.8003 0.89685 0.0
H137 H 0.17653 0.65079 0.94052 0.0
H138 H 0.0754 0.78205 0.96274 0.0
O139 O 0.16856 0.73587 0.91051 0.0
H140 H 0.19681 0.61955 0.97618 0.0
H141 H 0.09751 0.75228 0.99827 0.0
C142 C 0.0619 0.69232 0.91208 0.0
C143 C 0.08182 0.64489 0.90264 0.0
C144 C 0.047 0.60071 0.89776 0.0
C145 C 0.99141 0.60294 0.90221 0.0
C146 C 0.97044 0.65159 0.91065 0.0
C147 C 0.00589 0.69569 0.91598 0.0
C148 C 0.09033 0.81295 0.92118 0.0
C149 C 0.12117 0.8528 0.93264 0.0
C150 C 0.11138 0.90895 0.92934 0.0
C151 C 0.07093 0.926 0.91437 0.0
C152 C 0.03941 0.88629 0.90314 0.0
C153 C 0.04937 0.83009 0.9064 0.0
C154 C 0.12626 0.72003 0.94911 0.0
C155 C 0.15934 0.67328 0.95307 0.0
C156 C 0.17068 0.65526 0.97331 0.0
C157 C 0.14953 0.68437 0.98978 0.0
C158 C 0.11488 0.72992 0.98572 0.0
C159 C 0.10273 0.74722 0.96549 0.0
P160 P 0.70356 0.88044 0.18969 0.0
H161 H 0.79742 0.82667 0.21228 0.0
H162 H 0.88525 0.79135 0.20115 0.0
H163 H 0.83115 0.82341 0.13785 0.0
H164 H 0.74247 0.85732 0.14891 0.0
H165 H 0.61496 0.95528 0.17568 0.0
H166 H 0.52251 0.93929 0.15957 0.0
H167 H 0.5593 0.76605 0.15412 0.0
H168 H 0.65229 0.78218 0.17013 0.0
H169 H 0.67463 0.94625 0.22525 0.0
H170 H 0.69379 0.77409 0.21013 0.0
O171 O 0.71965 0.9472 0.18947 0.0
H172 H 0.6428 0.92126 0.25892 0.0
H173 H 0.66233 0.74911 0.24406 0.0
C174 C 0.76266 0.84334 0.18136 0.0
C175 C 0.80345 0.82435 0.19594 0.0
C176 C 0.85383 0.8046 0.18964 0.0
C177 C 0.86479 0.80517 0.16871 0.0
C178 C 0.82343 0.82263 0.15408 0.0
C179 C 0.77279 0.84171 0.16037 0.0
C180 C 0.64096 0.87005 0.17372 0.0
C181 C 0.60389 0.91407 0.17046 0.0
C182 C 0.55099 0.90498 0.16136 0.0
C183 C 0.53404 0.85153 0.15559 0.0
C184 C 0.57174 0.8077 0.15826 0.0
C185 C 0.62478 0.81688 0.16734 0.0
C186 C 0.68761 0.86201 0.21538 0.0
C187 C 0.67321 0.90316 0.22934 0.0
C188 C 0.65502 0.88898 0.24852 0.0
C189 C 0.65073 0.83345 0.25395 0.0
C190 C 0.66602 0.79218 0.24016 0.0
C191 C 0.68391 0.80642 0.22088 0.0
P192 P 0.64216 0.21734 0.4211 0.0
H193 H 0.66015 0.11126 0.40217 0.0
H194 H 0.59856 0.03635 0.39098 0.0
H195 H 0.45815 0.13574 0.4048 0.0
H196 H 0.52064 0.21078 0.41693 0.0
H197 H 0.67193 0.31876 0.44353 0.0
H198 H 0.65084 0.4162 0.43666 0.0
H199 H 0.54719 0.36911 0.38311 0.0
H200 H 0.56873 0.27179 0.38975 0.0
H201 H 0.71898 0.14229 0.44318 0.0
H202 H 0.58576 0.25068 0.45763 0.0
O203 O 0.70198 0.2109 0.41015 0.0
H204 H 0.73396 0.11863 0.47989 0.0
H205 H 0.60152 0.22799 0.49428 0.0
C206 C 0.59492 0.16708 0.40985 0.0
C207 C 0.61616 0.11759 0.40248 0.0
C208 C 0.581 0.07475 0.39616 0.0
C209 C 0.52385 0.08047 0.39713 0.0
C210 C 0.50215 0.13059 0.40398 0.0
C211 C 0.53771 0.17338 0.41071 0.0
C212 C 0.62021 0.28783 0.41761 0.0
C213 C 0.64355 0.32922 0.43061 0.0
C214 C 0.63179 0.38473 0.42668 0.0
C215 C 0.59692 0.3995 0.40957 0.0
C216 C 0.57348 0.35822 0.39658 0.0
C217 C 0.58552 0.30275 0.40045 0.0
C218 C 0.65272 0.1999 0.44789 0.0
C219 C 0.6933 0.16128 0.45426 0.0
C220 C 0.70159 0.14742 0.47509 0.0
C221 C 0.66934 0.17224 0.48972 0.0
C222 C 0.62713 0.20893 0.48318 0.0
C223 C 0.61851 0.22225 0.46236 0.0
P224 P 0.19617 0.36903 0.68831 0.0
H225 H 0.31063 0.40382 0.68891 0.0
H226 H 0.39298 0.36318 0.67495 0.0
H227 H 0.29811 0.22207 0.65344 0.0
H228 H 0.21547 0.26271 0.6674 0.0
H229 H 0.12726 0.42962 0.65706 0.0
H230 H 0.03395 0.41283 0.64146 0.0
H231 H 0.0318 0.25542 0.6716 0.0
H232 H 0.12507 0.27183 0.68706 0.0
H233 H 0.27077 0.31976 0.72118 0.0
H234 H 0.10365 0.38025 0.71396 0.0
O235 O 0.20448 0.43721 0.68781 0.0
H236 H 0.25611 0.29384 0.75696 0.0
H237 H 0.08874 0.35286 0.74925 0.0
C238 C 0.25657 0.33699 0.67868 0.0
C239 C 0.30744 0.36406 0.68125 0.0
C240 C 0.35455 0.34071 0.6735 0.0
C241 C 0.35156 0.28965 0.66325 0.0
C242 C 0.30118 0.2614 0.66143 0.0
C243 C 0.25399 0.28483 0.66921 0.0
C244 C 0.13303 0.3521 0.67335 0.0
C245 C 0.10723 0.39103 0.66002 0.0
C246 C 0.05397 0.38163 0.65116 0.0
C247 C 0.02585 0.33323 0.65562 0.0
C248 C 0.05274 0.29317 0.6681 0.0
C249 C 0.10602 0.30241 0.67682 0.0
C250 C 0.18773 0.35053 0.71471 0.0
C251 C 0.23094 0.32712 0.72716 0.0
C252 C 0.22271 0.31241 0.74755 0.0
C253 C 0.17104 0.32054 0.75554 0.0
C254 C 0.12866 0.34562 0.74326 0.0
C255 C 0.13711 0.36097 0.7231 0.0
Zn256 Zn 0.25589 0.6733 0.14777 0.0
Zn257 Zn 0.126 0.7983 0.09681 0.0
Zn258 Zn 0.19425 0.73612 0.12091 0.0
C259 C 0.16012 0.7063 0.07389 0.0
C260 C 0.22235 0.85907 0.10779 0.0
O261 O 0.15025 0.72737 0.1489 0.0
O262 O 0.20824 0.68448 0.17117 0.0
C263 C 0.22665 0.60852 0.11265 0.0
O264 O 0.18399 0.69202 0.0913 0.0
O265 O 0.13278 0.75052 0.07223 0.0
O266 O 0.17436 0.86425 0.09939 0.0
O267 O 0.23845 0.8132 0.11601 0.0
O268 O 0.2483 0.60482 0.1308 0.0
O269 O 0.20662 0.65476 0.10593 0.0
O270 O 0.27368 0.779 0.1281 0.0
O271 O 0.32338 0.71897 0.14703 0.0
C272 C 0.31922 0.7646 0.13786 0.0
O273 O 0.11348 0.75221 0.13475 0.0
O274 O 0.05814 0.79632 0.11196 0.0
C275 C 0.16267 0.70818 0.16701 0.0
C276 C 0.06623 0.77382 0.12931 0.0
Zn277 Zn 0.49649 0.68452 0.34946 0.0
Zn278 Zn 0.60266 0.80382 0.39797 0.0
Zn279 Zn 0.54294 0.74537 0.3762 0.0
C280 C 0.51498 0.86801 0.38481 0.0
C281 C 0.66887 0.75339 0.37023 0.0
O282 O 0.54482 0.66265 0.38915 0.0
O283 O 0.5337 0.61526 0.35995 0.0
C284 C 0.41637 0.7496 0.36724 0.0
O285 O 0.49408 0.8198 0.38185 0.0
O286 O 0.56593 0.87335 0.38926 0.0
O287 O 0.67333 0.77911 0.38721 0.0
O288 O 0.62063 0.74906 0.36101 0.0
O289 O 0.42194 0.70308 0.35871 0.0
O290 O 0.45895 0.77768 0.37347 0.0
O291 O 0.57925 0.76404 0.34664 0.0
O292 O 0.51853 0.72593 0.32468 0.0
C293 C 0.55678 0.76046 0.32815 0.0
O294 O 0.56631 0.69994 0.40462 0.0
O295 O 0.58826 0.77071 0.42495 0.0
C296 C 0.5452 0.61659 0.37922 0.0
C297 C 0.58013 0.71962 0.42263 0.0
Zn298 Zn 0.62868 0.28684 0.59847 0.0
Zn299 Zn 0.74474 0.16499 0.64749 0.0
Zn300 Zn 0.68344 0.22365 0.62198 0.0
C301 C 0.80991 0.25134 0.63817 0.0
C302 C 0.71536 0.09625 0.61451 0.0
O303 O 0.59651 0.23004 0.63316 0.0
O304 O 0.55456 0.27455 0.60741 0.0
C305 C 0.71188 0.35129 0.61287 0.0
O306 O 0.7626 0.26767 0.6303 0.0
O307 O 0.81566 0.20348 0.64541 0.0
O308 O 0.73347 0.09305 0.63313 0.0
O309 O 0.69853 0.14284 0.60701 0.0
O310 O 0.66419 0.35842 0.60457 0.0
O311 O 0.7275 0.3031 0.61914 0.0
O312 O 0.68013 0.18051 0.59215 0.0
O313 O 0.6481 0.24933 0.57271 0.0
C314 C 0.66777 0.20128 0.57429 0.0
O315 O 0.63615 0.21627 0.64902 0.0
O316 O 0.70109 0.1843 0.6713 0.0
C317 C 0.55126 0.24715 0.62367 0.0
C318 C 0.6535 0.20421 0.66759 0.0
Zn319 Zn 0.98759 0.2045 0.84798 0.0
Zn320 Zn 0.10159 0.34192 0.90233 0.0
Zn321 Zn 0.04002 0.27448 0.87664 0.0
C322 C 0.09102 0.24019 0.9218 0.0
C323 C 0.99732 0.39114 0.89309 0.0
O324 O 0.08024 0.27533 0.84732 0.0
O325 O 0.03208 0.22416 0.82431 0.0
C326 C 0.02874 0.14283 0.88246 0.0
O327 O 0.06591 0.22696 0.90442 0.0
O328 O 0.10824 0.2886 0.9252 0.0
O329 O 0.04423 0.39957 0.902 0.0
O330 O 0.9865 0.3454 0.8835 0.0
O331 O 0.00706 0.13712 0.86436 0.0
O332 O 0.04139 0.19096 0.88978 0.0
O333 O 0.95588 0.30628 0.87171 0.0
O334 O 0.91594 0.24307 0.85091 0.0
C335 C 0.91308 0.28677 0.86152 0.0
O336 O 0.11373 0.30216 0.8623 0.0
O337 O 0.1655 0.35069 0.88509 0.0
C338 C 0.07174 0.25639 0.82881 0.0
C339 C 0.15836 0.32849 0.86749 0.0
C340 C 0.25738 0.49863 0.07272 0.0
C341 C 0.23769 0.45161 0.08277 0.0
C342 C 0.19424 0.51201 0.10741 0.0
C343 C 0.22285 0.55758 0.09987 0.0
N344 N 0.2842 0.5946 0.07587 0.0
N345 N 0.18997 0.41286 0.11066 0.0
C346 C 0.25437 0.55131 0.0824 0.0
C347 C 0.20606 0.45808 0.10022 0.0
N348 N 0.27868 0.4928 0.05388 0.0
N349 N 0.15549 0.52059 0.12141 0.0
H350 H 0.19794 0.37257 0.10599 0.0
H351 H 0.17242 0.41526 0.12483 0.0
H352 H 0.14547 0.55989 0.12669 0.0
H353 H 0.12954 0.48978 0.1261 0.0
H354 H 0.28885 0.52604 0.04485 0.0
H355 H 0.28122 0.45473 0.0464 0.0
H356 H 0.31269 0.591 0.06466 0.0
H357 H 0.28332 0.63358 0.08269 0.0
C358 C 0.8209 0.73037 0.36405 0.0
C359 C 0.82104 0.72405 0.34235 0.0
C360 C 0.72056 0.71741 0.33979 0.0
C361 C 0.71998 0.73279 0.36092 0.0
N362 N 0.7688 0.72052 0.39413 0.0
N363 N 0.77177 0.71575 0.30906 0.0
C364 C 0.77004 0.73015 0.37345 0.0
C365 C 0.77103 0.7188 0.33006 0.0
N366 N 0.86932 0.73678 0.37572 0.0
N367 N 0.67506 0.69452 0.3298 0.0
H368 H 0.80814 0.71661 0.30143 0.0
H369 H 0.73627 0.71741 0.29921 0.0
H370 H 0.64186 0.68102 0.33768 0.0
H371 H 0.67404 0.67984 0.31467 0.0
H372 H 0.87121 0.7488 0.39118 0.0
H373 H 0.90787 0.73406 0.36969 0.0
H374 H 0.80376 0.71334 0.40385 0.0
H375 H 0.73254 0.71122 0.40102 0.0
C376 C 0.78973 0.45874 0.58746 0.0
C377 C 0.78795 0.50259 0.6021 0.0
C378 C 0.751 0.43985 0.62711 0.0
C379 C 0.7511 0.39719 0.61215 0.0
N380 N 0.78712 0.36 0.58141 0.0
N381 N 0.78108 0.53209 0.63732 0.0
C382 C 0.7768 0.40465 0.59354 0.0
C383 C 0.77345 0.49208 0.62251 0.0
N384 N 0.79897 0.46919 0.56733 0.0
N385 N 0.72736 0.43083 0.64526 0.0
H386 H 0.79776 0.57047 0.63426 0.0
H387 H 0.77535 0.52583 0.65287 0.0
H388 H 0.71317 0.39202 0.64921 0.0
H389 H 0.72019 0.46172 0.65598 0.0
H390 H 0.79436 0.43961 0.55564 0.0
H391 H 0.80647 0.50837 0.56176 0.0
H392 H 0.81022 0.36204 0.5685 0.0
H393 H 0.77736 0.31996 0.58557 0.0
C394 C 0.78203 0.34662 0.83768 0.0
C395 C 0.74609 0.32753 0.8523 0.0
C396 C 0.82465 0.3098 0.87692 0.0
C397 C 0.85984 0.31629 0.86064 0.0
N398 N 0.87538 0.34788 0.82654 0.0
N399 N 0.73056 0.29862 0.88669 0.0
C400 C 0.83959 0.33835 0.84147 0.0
C401 C 0.76669 0.31282 0.87244 0.0
N402 N 0.76066 0.37081 0.81998 0.0
N403 N 0.84684 0.299 0.89633 0.0
H404 H 0.68805 0.30284 0.88385 0.0
H405 H 0.74216 0.28179 0.901 0.0
H406 H 0.88924 0.29632 0.89972 0.0
H407 H 0.82404 0.29698 0.90929 0.0
H408 H 0.78433 0.38906 0.80918 0.0
H409 H 0.71846 0.37655 0.81689 0.0
H410 H 0.86338 0.35815 0.8114 0.0
H411 H 0.91793 0.34386 0.8293 0.0
C412 C 0.95149 0.53051 0.87861 0.0
C413 C 0.95833 0.55179 0.89897 0.0
C414 C 0.94635 0.4591 0.91232 0.0
C415 C 0.95812 0.43778 0.89285 0.0
N416 N 0.96068 0.45046 0.85634 0.0
N417 N 0.95337 0.53778 0.93555 0.0
C418 C 0.95491 0.47256 0.87545 0.0
C419 C 0.95086 0.51677 0.91595 0.0
N420 N 0.94512 0.56628 0.86254 0.0
N421 N 0.93484 0.42325 0.92749 0.0
H422 H 0.95548 0.57988 0.9387 0.0
H423 H 0.95492 0.51351 0.94871 0.0
H424 H 0.93298 0.38082 0.92464 0.0
H425 H 0.92264 0.43553 0.9419 0.0
H426 H 0.93712 0.55399 0.84725 0.0
H427 H 0.94334 0.60883 0.86501 0.0
H428 H 0.96496 0.47372 0.84316 0.0
H429 H 0.96237 0.40802 0.8539 0.0
C430 C 0.92782 0.74226 0.15022 0.0
C431 C 0.92054 0.79091 0.162 0.0
C432 C 0.01686 0.81603 0.15804 0.0
C433 C 0.0205 0.77328 0.14325 0.0
N434 N 0.98115 0.69426 0.12527 0.0
N435 N 0.95706 0.87653 0.17629 0.0
C436 C 0.97661 0.73555 0.1395 0.0
C437 C 0.9651 0.82802 0.16604 0.0
N438 N 0.88834 0.70232 0.14955 0.0
N439 N 0.06281 0.84547 0.16425 0.0
H440 H 0.91973 0.88751 0.18219 0.0
H441 H 0.98608 0.90796 0.17759 0.0
H442 H 0.10105 0.83804 0.15839 0.0
H443 H 0.06427 0.87336 0.17655 0.0
H444 H 0.89316 0.66368 0.14281 0.0
H445 H 0.85242 0.70611 0.15738 0.0
H446 H 0.94847 0.66932 0.11994 0.0
H447 H 0.01754 0.68641 0.1181 0.0
C448 C 0.54281 0.48741 0.41198 0.0
C449 C 0.58786 0.45833 0.40425 0.0
C450 C 0.61221 0.53937 0.38459 0.0
C451 C 0.56268 0.56522 0.38985 0.0
N452 N 0.47968 0.56498 0.40811 0.0
N453 N 0.66518 0.45485 0.38289 0.0
C454 C 0.52802 0.53997 0.40371 0.0
C455 C 0.62284 0.48402 0.3906 0.0
N456 N 0.51444 0.46469 0.42726 0.0
N457 N 0.64967 0.56848 0.37429 0.0
H458 H 0.67572 0.41496 0.38757 0.0
H459 H 0.68795 0.46878 0.37097 0.0
H460 H 0.64337 0.60945 0.36995 0.0
H461 H 0.68903 0.55412 0.37177 0.0
H462 H 0.48478 0.48581 0.43508 0.0
H463 H 0.52354 0.42574 0.43328 0.0
H464 H 0.44947 0.54611 0.41617 0.0
H465 H 0.46807 0.60389 0.40265 0.0
C466 C 0.92466 0.34277 0.66051 0.0
C467 C 0.9673 0.32475 0.64809 0.0
C468 C 0.89922 0.2779 0.62459 0.0
C469 C 0.85891 0.28746 0.63896 0.0
N470 N 0.82984 0.33204 0.66957 0.0
N471 N 0.99616 0.27831 0.61772 0.0
C472 C 0.87036 0.32188 0.65642 0.0
C473 C 0.95467 0.294 0.62972 0.0
N474 N 0.93647 0.37936 0.67629 0.0
N475 N 0.88401 0.25322 0.60611 0.0
H476 H 0.03672 0.29134 0.62065 0.0
H477 H 0.99114 0.25081 0.60537 0.0
H478 H 0.84345 0.24148 0.60217 0.0
H479 H 0.9099 0.24858 0.5941 0.0
H480 H 0.90688 0.39792 0.68491 0.0
H481 H 0.97603 0.3944 0.67991 0.0
H482 H 0.83627 0.35143 0.68386 0.0
H483 H 0.78926 0.31933 0.66634 0.0
C484 C 0.4025 0.28193 0.6311 0.0
C485 C 0.3994 0.26919 0.65224 0.0
C486 C 0.48721 0.21903 0.65166 0.0
C487 C 0.49513 0.24157 0.63207 0.0
N488 N 0.4449 0.25942 0.59952 0.0
N489 N 0.43756 0.22361 0.68283 0.0
C490 C 0.44816 0.26282 0.62057 0.0
C491 C 0.44116 0.23661 0.66255 0.0
N492 N 0.36289 0.31394 0.62117 0.0
N493 N 0.51878 0.17558 0.65844 0.0
H494 H 0.40379 0.23463 0.69108 0.0
H495 H 0.46945 0.20474 0.69167 0.0
H496 H 0.54717 0.15698 0.64922 0.0
H497 H 0.51113 0.15326 0.67156 0.0
H498 H 0.36687 0.32998 0.60651 0.0
H499 H 0.32792 0.32792 0.62809 0.0
H500 H 0.40982 0.27018 0.59037 0.0
H501 H 0.47384 0.2377 0.59147 0.0
C502 C 0.43475 0.84731 0.16314 0.0
C503 C 0.47535 0.84027 0.14875 0.0
C504 C 0.40746 0.7966 0.12427 0.0
C505 C 0.36777 0.80122 0.13922 0.0
N506 N 0.33763 0.84381 0.17002 0.0
N507 N 0.49839 0.82148 0.11395 0.0
C508 C 0.37948 0.83122 0.15775 0.0
C509 C 0.46099 0.81917 0.12869 0.0
N510 N 0.4515 0.86611 0.18235 0.0
N511 N 0.39443 0.76868 0.10626 0.0
H512 H 0.53748 0.83841 0.11687 0.0
H513 H 0.4895 0.81093 0.09853 0.0
H514 H 0.35475 0.75432 0.10228 0.0
H515 H 0.42289 0.75815 0.09562 0.0
H516 H 0.42651 0.86893 0.19474 0.0
H517 H 0.42651 0.86893 0.19474 0.0
H518 H 0.34179 0.86997 0.18279 0.0
H519 H 0.29701 0.83208 0.16618 0.0
C520 C 0.27148 0.27661 0.83478 0.0
C521 C 0.30217 0.32557 0.83329 0.0
C522 C 0.22839 0.3781 0.84813 0.0
C523 C 0.20403 0.32779 0.85364 0.0
N524 N 0.20653 0.22787 0.85425 0.0
N525 N 0.31081 0.42366 0.83796 0.0
C526 C 0.2259 0.27657 0.84718 0.0
C527 C 0.28056 0.37681 0.83953 0.0
N528 N 0.28673 0.22991 0.8247 0.0
N529 N 0.20124 0.42673 0.85085 0.0
H530 H 0.3482 0.42403 0.83098 0.0
H531 H 0.30021 0.46132 0.84444 0.0
H532 H 0.16241 0.42859 0.85675 0.0
H533 H 0.21464 0.46432 0.84547 0.0
H534 H 0.26258 0.19454 0.82357 0.0
H535 H 0.32059 0.22858 0.81566 0.0
H536 H 0.2251 0.18993 0.85164 0.0
H537 H 0.17539 0.22526 0.86444 0.0
C538 C 0.27862 0.81204 0.35185 0.0
C539 C 0.24625 0.76841 0.35881 0.0
C540 C 0.32527 0.73605 0.38067 0.0
C541 C 0.35972 0.76968 0.3695 0.0
N542 N 0.37048 0.84403 0.34586 0.0
N543 N 0.23787 0.68921 0.38074 0.0
C544 C 0.3367 0.81028 0.35595 0.0
C545 C 0.26879 0.73148 0.37401 0.0
N546 N 0.25358 0.85388 0.34085 0.0
N547 N 0.34755 0.70712 0.39714 0.0
H548 H 0.19629 0.6842 0.37635 0.0
H549 H 0.25419 0.65718 0.38981 0.0
H550 H 0.38922 0.71023 0.40198 0.0
H551 H 0.32421 0.68488 0.40703 0.0
H552 H 0.27403 0.88906 0.33648 0.0
H553 H 0.21096 0.85536 0.33777 0.0
H554 H 0.3568 0.87008 0.33394 0.0
H555 H 0.41298 0.8443 0.349 0.0
C556 C 0.74883 0.98575 0.5752 0.0
C557 C 0.72825 0.93893 0.58509 0.0
C558 C 0.68347 0.99959 0.60926 0.0
C559 C 0.71282 0.04498 0.60195 0.0
N560 N 0.77678 0.08124 0.57869 0.0
N561 N 0.67877 0.9005 0.61258 0.0
C562 C 0.74569 0.03841 0.58485 0.0
C563 C 0.69562 0.94559 0.60225 0.0
N564 N 0.77113 0.97977 0.55655 0.0
N565 N 0.64362 0.00837 0.6228 0.0
H566 H 0.68692 0.86015 0.60803 0.0
H567 H 0.66038 0.90308 0.62658 0.0
H568 H 0.63319 0.04773 0.6279 0.0
H569 H 0.61725 0.97764 0.62725 0.0
H570 H 0.78191 0.01297 0.54761 0.0
H571 H 0.77385 0.94168 0.54909 0.0
H572 H 0.80606 0.07716 0.56779 0.0
H573 H 0.77638 0.12014 0.58557 0.0
C574 C 0.28446 0.99997 0.11735 0.0
C575 C 0.29602 0.01202 0.09673 0.0
C576 C 0.28264 0.91489 0.08722 0.0
C577 C 0.26033 0.90586 0.1064 0.0
N578 N 0.24203 0.93695 0.14048 0.0
N579 N 0.30256 0.98153 0.06137 0.0
C580 C 0.26277 0.94734 0.12187 0.0
C581 C 0.29534 0.96941 0.08154 0.0
N582 N 0.2942 0.03891 0.13244 0.0
N583 N 0.29058 0.87117 0.07435 0.0
H584 H 0.31057 0.02107 0.05624 0.0
H585 H 0.29614 0.95315 0.04935 0.0
H586 H 0.28148 0.83084 0.07838 0.0
H587 H 0.31119 0.8741 0.06085 0.0
H588 H 0.29085 0.03149 0.14806 0.0
H589 H 0.31015 0.07765 0.12942 0.0
H590 H 0.23669 0.967 0.1517 0.0
H591 H 0.22823 0.89795 0.14435 0.0
C592 C 0.4727 0.99653 0.40736 0.0
C593 C 0.48902 0.03177 0.39155 0.0
C594 C 0.48836 0.9546 0.36721 0.0
C595 C 0.4816 0.91871 0.38386 0.0
N596 N 0.44547 0.90395 0.41667 0.0
N597 N 0.4912 0.04933 0.35535 0.0
C598 C 0.46502 0.93958 0.40279 0.0
C599 C 0.48842 0.01234 0.37094 0.0
N600 N 0.46953 0.01642 0.42697 0.0
N601 N 0.49993 0.93295 0.34851 0.0
H602 H 0.49183 0.09174 0.35824 0.0
H603 H 0.48823 0.03849 0.33978 0.0
H604 H 0.49968 0.89049 0.34574 0.0
H605 H 0.51123 0.95641 0.33615 0.0
H606 H 0.4642 0.9916 0.43966 0.0
H607 H 0.4738 0.05811 0.43064 0.0
H608 H 0.42959 0.91634 0.43047 0.0
H609 H 0.44085 0.86203 0.41322 0.0
C610 C 0.09745 0.00563 0.89289 0.0
C611 C 0.06576 0.98508 0.9087 0.0
C612 C 0.01589 0.07309 0.91016 0.0
C613 C 0.04635 0.09263 0.89388 0.0
N614 N 0.12544 0.08493 0.87368 0.0
N615 N 0.00361 0.00148 0.93544 0.0
C616 C 0.0902 0.06114 0.88652 0.0
C617 C 0.02785 0.01973 0.91839 0.0
N618 N 0.13299 0.97138 0.88343 0.0
N619 N 0.97416 0.10465 0.91708 0.0
H620 H 0.01093 0.96227 0.94151 0.0
H621 H 0.97942 0.02611 0.94443 0.0
H622 H 0.96592 0.14452 0.91182 0.0
H623 H 0.94629 0.09089 0.92734 0.0
H624 H 0.15211 0.98167 0.87013 0.0
H625 H 0.14112 0.93103 0.88815 0.0
H626 H 0.16153 0.06629 0.86934 0.0
H627 H 0.12134 0.12575 0.86886 0.0
C628 C 0.10715 0.19206 0.97528 0.0
C629 C 0.16239 0.17344 0.97512 0.0
C630 C 0.1561 0.17126 0.93742 0.0
C631 C 0.10491 0.19893 0.93782 0.0
N632 N 0.02328 0.21836 0.95511 0.0
N633 N 0.23361 0.12901 0.95709 0.0
C634 C 0.07729 0.20267 0.95619 0.0
C635 C 0.18459 0.15672 0.95643 0.0
N636 N 0.08502 0.20275 0.9937 0.0
N637 N 0.1787 0.16294 0.91894 0.0
H638 H 0.25484 0.11849 0.97099 0.0
H639 H 0.25145 0.11318 0.94418 0.0
H640 H 0.15729 0.17219 0.90494 0.0
H641 H 0.21812 0.14758 0.91732 0.0
H642 H 0.04691 0.22142 0.99512 0.0
H643 H 0.10578 0.19336 0.00781 0.0
H644 H 0.999 0.21983 0.96769 0.0
H645 H 0.00173 0.22592 0.94096 0.0
C646 C 0.04949 0.69359 0.20395 0.0
C647 C 0.0758 0.72052 0.22133 0.0
C648 C 0.14581 0.75611 0.19976 0.0
C649 C 0.12667 0.71936 0.1839 0.0
N650 N 0.0593 0.65448 0.16986 0.0
N651 N 0.14961 0.77753 0.23621 0.0
C652 C 0.07744 0.68929 0.18547 0.0
C653 C 0.12349 0.75292 0.21928 0.0
N654 N 0.99817 0.672 0.20532 0.0
N655 N 0.18534 0.79392 0.19605 0.0
H656 H 0.13447 0.77685 0.25084 0.0
H657 H 0.18823 0.79573 0.23604 0.0
H658 H 0.20199 0.79733 0.18171 0.0
H659 H 0.19743 0.82529 0.2064 0.0
H660 H 0.97457 0.65602 0.19273 0.0
H661 H 0.97723 0.67493 0.2188 0.0
H662 H 0.02691 0.62704 0.17096 0.0
H663 H 0.07845 0.65132 0.156 0.0
C664 C 0.59642 0.68757 0.47821 0.0
C665 C 0.64936 0.66292 0.47885 0.0
C666 C 0.64338 0.65245 0.44132 0.0
C667 C 0.59391 0.68384 0.44056 0.0
N668 N 0.51412 0.714 0.45724 0.0
N669 N 0.7148 0.60557 0.46258 0.0
C670 C 0.56708 0.69499 0.45879 0.0
C671 C 0.66963 0.63922 0.46087 0.0
N672 N 0.57601 0.70659 0.49604 0.0
N673 N 0.66757 0.6395 0.4235 0.0
H674 H 0.73498 0.59627 0.4768 0.0
H675 H 0.72933 0.58314 0.45033 0.0
H676 H 0.64904 0.64738 0.40894 0.0
H677 H 0.70685 0.62271 0.42303 0.0
H678 H 0.54051 0.73045 0.49654 0.0
H679 H 0.59592 0.69954 0.51051 0.0
H680 H 0.49032 0.72007 0.46979 0.0
H681 H 0.49254 0.7191 0.44293 0.0
C682 C 0.59389 0.17547 0.71825 0.0
C683 C 0.5705 0.22734 0.72294 0.0
C684 C 0.596 0.26377 0.6899 0.0
C685 C 0.61814 0.21136 0.68505 0.0
N686 N 0.62176 0.11366 0.69145 0.0
N687 N 0.53569 0.3155 0.71128 0.0
C688 C 0.61178 0.16599 0.69824 0.0
C689 C 0.567 0.26978 0.70806 0.0
N690 N 0.602 0.13627 0.73315 0.0
N691 N 0.60554 0.30849 0.67802 0.0
H692 H 0.5139 0.32077 0.72447 0.0
H693 H 0.52705 0.34527 0.70006 0.0
H694 H 0.62768 0.30641 0.66485 0.0
H695 H 0.59537 0.34862 0.68216 0.0
H696 H 0.62462 0.10035 0.73105 0.0
H697 H 0.59043 0.14148 0.7482 0.0
H698 H 0.61274 0.07861 0.69972 0.0
H699 H 0.63313 0.10513 0.67653 0.0
C700 C 0.21263 0.6899 0.02169 0.0
C701 C 0.16366 0.66893 0.01155 0.0
C702 C 0.12886 0.64504 0.04484 0.0
C703 C 0.17125 0.67719 0.05461 0.0
N704 N 0.25761 0.72439 0.05372 0.0
N705 N 0.07921 0.61832 0.01259 0.0
C706 C 0.21544 0.69625 0.04349 0.0
C707 C 0.1235 0.64273 0.02291 0.0
N708 N 0.25531 0.70533 0.01039 0.0
N709 N 0.09335 0.61837 0.05672 0.0
H710 H 0.07596 0.6143 0.99654 0.0
H711 H 0.04555 0.60284 0.0197 0.0
H712 H 0.09793 0.61993 0.07282 0.0
H713 H 0.06254 0.59184 0.05093 0.0
H714 H 0.29383 0.71689 0.01683 0.0
H715 H 0.25367 0.70258 0.99435 0.0
H716 H 0.28792 0.74558 0.04651 0.0
H717 H 0.26136 0.72777 0.06977 0.0
C718 C 0.65725 0.82357 0.29251 0.0
C719 C 0.62577 0.81903 0.27342 0.0
C720 C 0.54433 0.79533 0.29167 0.0
C721 C 0.57782 0.79166 0.31037 0.0
N722 N 0.65436 0.83581 0.32935 0.0
N723 N 0.53912 0.80092 0.25438 0.0
C724 C 0.63124 0.81526 0.31119 0.0
C725 C 0.56911 0.80529 0.27288 0.0
N726 N 0.71226 0.83474 0.29279 0.0
N727 N 0.48829 0.79523 0.2923 0.0
H728 H 0.55472 0.81092 0.24032 0.0
H729 H 0.49981 0.78406 0.25279 0.0
H730 H 0.46894 0.79596 0.30616 0.0
H731 H 0.46117 0.80237 0.27953 0.0
H732 H 0.73847 0.83263 0.3061 0.0
H733 H 0.73263 0.84155 0.27941 0.0
H734 H 0.69207 0.85603 0.33065 0.0
H735 H 0.63175 0.84159 0.34225 0.0
C736 C 0.64343 0.1312 0.52294 0.0
C737 C 0.68083 0.1629 0.51214 0.0
C738 C 0.72609 0.19394 0.54489 0.0
C739 C 0.68136 0.17298 0.55513 0.0
N740 N 0.60126 0.11597 0.55538 0.0
N741 N 0.75984 0.22287 0.51247 0.0
C742 C 0.64182 0.13863 0.54466 0.0
C743 C 0.72385 0.19261 0.52302 0.0
N744 N 0.60924 0.09497 0.51229 0.0
N745 N 0.76968 0.21654 0.55625 0.0
H746 H 0.75993 0.22262 0.49643 0.0
H747 H 0.78781 0.25059 0.5195 0.0
H748 H 0.7713 0.21798 0.57234 0.0
H749 H 0.80591 0.22891 0.55002 0.0
H750 H 0.58329 0.06787 0.51924 0.0
H751 H 0.61017 0.08908 0.49637 0.0
H752 H 0.5674 0.09524 0.54853 0.0
H753 H 0.60127 0.11925 0.57142 0.0
C754 C 0.14739 0.34391 0.79137 0.0
C755 C 0.15964 0.30299 0.77669 0.0
C756 C 0.1317 0.23178 0.80027 0.0
C757 C 0.10788 0.27304 0.81247 0.0
N758 N 0.089 0.36974 0.81852 0.0
N759 N 0.1613 0.20697 0.76659 0.0
C760 C 0.11546 0.32964 0.80802 0.0
C761 C 0.15212 0.24646 0.7811 0.0
N762 N 0.16585 0.39646 0.78921 0.0
N763 N 0.13551 0.17879 0.80716 0.0
H764 H 0.17636 0.21579 0.75235 0.0
H765 H 0.15026 0.16586 0.76814 0.0
H766 H 0.12222 0.16714 0.82144 0.0
H767 H 0.1571 0.14803 0.79981 0.0
H768 H 0.16269 0.42688 0.8005 0.0
H769 H 0.18952 0.40773 0.77711 0.0
H770 H 0.08894 0.41112 0.81439 0.0
H771 H 0.06284 0.36153 0.83016 0.0
loop_
_geom_bond_atom_site_label_1
_geom_bond_atom_site_label_2
_geom_bond_distance
_geom_bond_site_symmetry_2
_ccdc_geom_bond_type
P0 O11 1.490 . S
P0 C14 1.812 . S
P0 C20 1.803 . S
P0 C26 1.819 . S
H1 C15 0.941 . S
H2 C16 0.939 . S
H3 C18 0.940 . S
H4 C19 0.940 . S
H5 C21 0.939 . S
H6 C22 0.942 . S
H7 C24 0.940 . S
H8 C25 0.939 . S
H9 C27 0.941 . S
H10 C31 0.939 . S
O11 P0 1.490 . S
H12 C28 0.939 . S
H13 C30 0.940 . S
C14 P0 1.812 . S
C14 C15 1.389 . S
C14 C19 1.391 . S
C15 H1 0.941 . S
C15 C14 1.389 . S
C15 C16 1.397 . S
C16 H2 0.939 . S
C16 C15 1.397 . S
C16 C17 1.378 . S
C17 C16 1.378 . S
C17 C18 1.378 . S
C18 H3 0.940 . S
C18 C17 1.378 . S
C18 C19 1.396 . S
C19 H4 0.940 . S
C19 C14 1.391 . S
C19 C18 1.396 . S
C20 P0 1.803 . S
C20 C21 1.378 . S
C20 C25 1.400 . S
C21 H5 0.939 . S
C21 C20 1.378 . S
C21 C22 1.361 . S
C22 H6 0.942 . S
C22 C21 1.361 . S
C22 C23 1.369 . S
C23 C22 1.369 . S
C23 C24 1.404 . S
C24 H7 0.940 . S
C24 C23 1.404 . S
C24 C25 1.389 . S
C25 H8 0.939 . S
C25 C20 1.400 . S
C25 C24 1.389 . S
C26 P0 1.819 . S
C26 C27 1.391 . S
C26 C31 1.391 . S
C27 H9 0.941 . S
C27 C26 1.391 . S
C27 C28 1.396 . S
C28 H12 0.939 . S
C28 C27 1.396 . S
C28 C29 1.397 . S
C29 C28 1.397 . S
C29 C30 1.385 . S
C30 H13 0.940 . S
C30 C29 1.385 . S
C30 C31 1.388 . S
C31 H10 0.939 . S
C31 C26 1.391 . S
C31 C30 1.388 . S
P32 O43 1.490 . S
P32 C46 1.812 . S
P32 C52 1.803 . S
P32 C58 1.819 . S
H33 C47 0.941 . S
H34 C48 0.939 . S
H35 C50 0.940 . S
H36 C51 0.940 . S
H37 C53 0.939 . S
H38 C54 0.942 . S
H39 C56 0.940 . S
H40 C57 0.939 . S
H41 C59 0.941 . S
H42 C63 0.939 . S
O43 P32 1.490 . S
H44 C60 0.939 . S
H45 C62 0.940 . S
C46 P32 1.812 . S
C46 C47 1.389 . S
C46 C51 1.391 . S
C47 H33 0.941 . S
C47 C46 1.389 . S
C47 C48 1.397 . S
C48 H34 0.939 . S
C48 C47 1.397 . S
C48 C49 1.378 . S
C49 C48 1.378 . S
C49 C50 1.378 . S
C50 H35 0.940 . S
C50 C49 1.378 . S
C50 C51 1.396 . S
C51 H36 0.940 . S
C51 C46 1.391 . S
C51 C50 1.396 . S
C52 P32 1.803 . S
C52 C53 1.378 . S
C52 C57 1.400 . S
C53 H37 0.939 . S
C53 C52 1.378 . S
C53 C54 1.361 1_455 S
C54 H38 0.942 . S
C54 C53 1.361 1_655 S
C54 C55 1.369 . S
C55 C54 1.369 . S
C55 C56 1.404 1_655 S
C56 H39 0.940 . S
C56 C55 1.404 1_455 S
C56 C57 1.389 . S
C57 H40 0.939 . S
C57 C52 1.400 . S
C57 C56 1.389 . S
C58 P32 1.819 . S
C58 C59 1.391 . S
C58 C63 1.391 . S
C59 H41 0.941 . S
C59 C58 1.391 . S
C59 C60 1.396 . S
C60 H44 0.939 . S
C60 C59 1.396 . S
C60 C61 1.397 . S
C61 C60 1.397 . S
C61 C62 1.385 . S
C62 H45 0.940 . S
C62 C61 1.385 . S
C62 C63 1.388 . S
C63 H42 0.939 . S
C63 C58 1.391 . S
C63 C62 1.388 . S
P64 O75 1.490 . S
P64 C78 1.812 . S
P64 C84 1.803 . S
P64 C90 1.819 . S
H65 C79 0.941 . S
H66 C80 0.939 . S
H67 C82 0.940 . S
H68 C83 0.940 . S
H69 C85 0.939 . S
H70 C86 0.942 . S
H71 C88 0.940 . S
H72 C89 0.939 . S
H73 C91 0.941 . S
H74 C95 0.939 . S
O75 P64 1.490 . S
H76 C92 0.939 . S
H77 C94 0.940 . S
C78 P64 1.812 . S
C78 C79 1.389 . S
C78 C83 1.391 . S
C79 H65 0.941 . S
C79 C78 1.389 . S
C79 C80 1.397 . S
C80 H66 0.939 . S
C80 C79 1.397 . S
C80 C81 1.378 . S
C81 C80 1.378 . S
C81 C82 1.378 . S
C82 H67 0.940 . S
C82 C81 1.378 . S
C82 C83 1.396 . S
C83 H68 0.940 . S
C83 C78 1.391 . S
C83 C82 1.396 . S
C84 P64 1.803 . S
C84 C85 1.378 . S
C84 C89 1.400 . S
C85 H69 0.939 . S
C85 C84 1.378 . S
C85 C86 1.361 . S
C86 H70 0.942 . S
C86 C85 1.361 . S
C86 C87 1.369 . S
C87 C86 1.369 . S
C87 C88 1.404 . S
C88 H71 0.940 . S
C88 C87 1.404 . S
C88 C89 1.389 . S
C89 H72 0.939 . S
C89 C84 1.400 . S
C89 C88 1.389 . S
C90 P64 1.819 . S
C90 C91 1.391 . S
C90 C95 1.391 . S
C91 H73 0.941 . S
C91 C90 1.391 . S
C91 C92 1.396 . S
C92 H76 0.939 . S
C92 C91 1.396 . S
C92 C93 1.397 . S
C93 C92 1.397 . S
C93 C94 1.385 . S
C94 H77 0.940 . S
C94 C93 1.385 . S
C94 C95 1.388 . S
C95 H74 0.939 . S
C95 C90 1.391 . S
C95 C94 1.388 . S
P96 O107 1.490 . S
P96 C110 1.812 . S
P96 C116 1.803 . S
P96 C122 1.819 . S
H97 C111 0.941 . S
H98 C112 0.939 . S
H99 C114 0.940 . S
H100 C115 0.940 . S
H101 C117 0.939 . S
H102 C118 0.942 . S
H103 C120 0.940 . S
H104 C121 0.939 . S
H105 C123 0.941 . S
H106 C127 0.939 . S
O107 P96 1.490 . S
H108 C124 0.939 . S
H109 C126 0.940 . S
C110 P96 1.812 . S
C110 C111 1.389 . S
C110 C115 1.391 . S
C111 H97 0.941 . S
C111 C110 1.389 . S
C111 C112 1.397 . S
C112 H98 0.939 . S
C112 C111 1.397 . S
C112 C113 1.378 . S
C113 C112 1.378 . S
C113 C114 1.378 . S
C114 H99 0.940 . S
C114 C113 1.378 . S
C114 C115 1.396 . S
C115 H100 0.940 . S
C115 C110 1.391 . S
C115 C114 1.396 . S
C116 P96 1.803 . S
C116 C117 1.378 . S
C116 C121 1.400 . S
C117 H101 0.939 . S
C117 C116 1.378 . S
C117 C118 1.361 . S
C118 H102 0.942 . S
C118 C117 1.361 . S
C118 C119 1.369 . S
C119 C118 1.369 . S
C119 C120 1.404 . S
C120 H103 0.940 . S
C120 C119 1.404 . S
C120 C121 1.389 . S
C121 H104 0.939 . S
C121 C116 1.400 . S
C121 C120 1.389 . S
C122 P96 1.819 . S
C122 C123 1.391 . S
C122 C127 1.391 . S
C123 H105 0.941 . S
C123 C122 1.391 . S
C123 C124 1.396 . S
C124 H108 0.939 . S
C124 C123 1.396 . S
C124 C125 1.397 . S
C125 C124 1.397 . S
C125 C126 1.385 . S
C126 H109 0.940 . S
C126 C125 1.385 . S
C126 C127 1.388 . S
C127 H106 0.939 . S
C127 C122 1.391 . S
C127 C126 1.388 . S
P128 O139 1.490 . S
P128 C142 1.812 . S
P128 C148 1.803 . S
P128 C154 1.819 . S
H129 C143 0.941 . S
H130 C144 0.939 . S
H131 C146 0.940 1_655 S
H132 C147 0.940 . S
H133 C149 0.939 . S
H134 C150 0.942 . S
H135 C152 0.940 1_655 S
H136 C153 0.939 . S
H137 C155 0.941 . S
H138 C159 0.939 . S
O139 P128 1.490 . S
H140 C156 0.939 . S
H141 C158 0.940 . S
C142 P128 1.812 . S
C142 C143 1.389 . S
C142 C147 1.391 . S
C143 H129 0.941 . S
C143 C142 1.389 . S
C143 C144 1.397 . S
C144 H130 0.939 . S
C144 C143 1.397 . S
C144 C145 1.378 . S
C145 C144 1.378 . S
C145 C146 1.378 . S
C146 H131 0.940 1_455 S
C146 C145 1.378 . S
C146 C147 1.396 . S
C147 H132 0.940 . S
C147 C142 1.391 . S
C147 C146 1.396 . S
C148 P128 1.803 . S
C148 C149 1.378 . S
C148 C153 1.400 . S
C149 H133 0.939 . S
C149 C148 1.378 . S
C149 C150 1.361 . S
C150 H134 0.942 . S
C150 C149 1.361 . S
C150 C151 1.369 . S
C151 C150 1.369 . S
C151 C152 1.404 . S
C152 H135 0.940 1_455 S
C152 C151 1.404 . S
C152 C153 1.389 . S
C153 H136 0.939 . S
C153 C148 1.400 . S
C153 C152 1.389 . S
C154 P128 1.819 . S
C154 C155 1.391 . S
C154 C159 1.391 . S
C155 H137 0.941 . S
C155 C154 1.391 . S
C155 C156 1.396 . S
C156 H140 0.939 . S
C156 C155 1.396 . S
C156 C157 1.397 . S
C157 C156 1.397 . S
C157 C158 1.385 . S
C158 H141 0.940 . S
C158 C157 1.385 . S
C158 C159 1.388 . S
C159 H138 0.939 . S
C159 C154 1.391 . S
C159 C158 1.388 . S
P160 O171 1.490 . S
P160 C174 1.812 . S
P160 C180 1.803 . S
P160 C186 1.819 . S
H161 C175 0.941 . S
H162 C176 0.939 . S
H163 C178 0.940 . S
H164 C179 0.940 . S
H165 C181 0.939 . S
H166 C182 0.942 . S
H167 C184 0.940 . S
H168 C185 0.939 . S
H169 C187 0.941 . S
H170 C191 0.939 . S
O171 P160 1.490 . S
H172 C188 0.939 . S
H173 C190 0.940 . S
C174 P160 1.812 . S
C174 C175 1.389 . S
C174 C179 1.391 . S
C175 H161 0.941 . S
C175 C174 1.389 . S
C175 C176 1.397 . S
C176 H162 0.939 . S
C176 C175 1.397 . S
C176 C177 1.378 . S
C177 C176 1.378 . S
C177 C178 1.378 . S
C178 H163 0.940 . S
C178 C177 1.378 . S
C178 C179 1.396 . S
C179 H164 0.940 . S
C179 C174 1.391 . S
C179 C178 1.396 . S
C180 P160 1.803 . S
C180 C181 1.378 . S
C180 C185 1.400 . S
C181 H165 0.939 . S
C181 C180 1.378 . S
C181 C182 1.361 . S
C182 H166 0.942 . S
C182 C181 1.361 . S
C182 C183 1.369 . S
C183 C182 1.369 . S
C183 C184 1.404 . S
C184 H167 0.940 . S
C184 C183 1.404 . S
C184 C185 1.389 . S
C185 H168 0.939 . S
C185 C180 1.400 . S
C185 C184 1.389 . S
C186 P160 1.819 . S
C186 C187 1.391 . S
C186 C191 1.391 . S
C187 H169 0.941 . S
C187 C186 1.391 . S
C187 C188 1.396 . S
C188 H172 0.939 . S
C188 C187 1.396 . S
C188 C189 1.397 . S
C189 C188 1.397 . S
C189 C190 1.385 . S
C190 H173 0.940 . S
C190 C189 1.385 . S
C190 C191 1.388 . S
C191 H170 0.939 . S
C191 C186 1.391 . S
C191 C190 1.388 . S
P192 O203 1.490 . S
P192 C206 1.812 . S
P192 C212 1.803 . S
P192 C218 1.819 . S
H193 C207 0.941 . S
H194 C208 0.939 . S
H195 C210 0.940 . S
H196 C211 0.940 . S
H197 C213 0.939 . S
H198 C214 0.942 . S
H199 C216 0.940 . S
H200 C217 0.939 . S
H201 C219 0.941 . S
H202 C223 0.939 . S
O203 P192 1.490 . S
H204 C220 0.939 . S
H205 C222 0.940 . S
C206 P192 1.812 . S
C206 C207 1.389 . S
C206 C211 1.391 . S
C207 H193 0.941 . S
C207 C206 1.389 . S
C207 C208 1.397 . S
C208 H194 0.939 . S
C208 C207 1.397 . S
C208 C209 1.378 . S
C209 C208 1.378 . S
C209 C210 1.378 . S
C210 H195 0.940 . S
C210 C209 1.378 . S
C210 C211 1.396 . S
C211 H196 0.940 . S
C211 C206 1.391 . S
C211 C210 1.396 . S
C212 P192 1.803 . S
C212 C213 1.378 . S
C212 C217 1.400 . S
C213 H197 0.939 . S
C213 C212 1.378 . S
C213 C214 1.361 . S
C214 H198 0.942 . S
C214 C213 1.361 . S
C214 C215 1.369 . S
C215 C214 1.369 . S
C215 C216 1.404 . S
C216 H199 0.940 . S
C216 C215 1.404 . S
C216 C217 1.389 . S
C217 H200 0.939 . S
C217 C212 1.400 . S
C217 C216 1.389 . S
C218 P192 1.819 . S
C218 C219 1.391 . S
C218 C223 1.391 . S
C219 H201 0.941 . S
C219 C218 1.391 . S
C219 C220 1.396 . S
C220 H204 0.939 . S
C220 C219 1.396 . S
C220 C221 1.397 . S
C221 C220 1.397 . S
C221 C222 1.385 . S
C222 H205 0.940 . S
C222 C221 1.385 . S
C222 C223 1.388 . S
C223 H202 0.939 . S
C223 C218 1.391 . S
C223 C222 1.388 . S
P224 O235 1.490 . S
P224 C238 1.812 . S
P224 C244 1.803 . S
P224 C250 1.819 . S
H225 C239 0.941 . S
H226 C240 0.939 . S
H227 C242 0.940 . S
H228 C243 0.940 . S
H229 C245 0.939 . S
H230 C246 0.942 . S
H231 C248 0.940 . S
H232 C249 0.939 . S
H233 C251 0.941 . S
H234 C255 0.939 . S
O235 P224 1.490 . S
H236 C252 0.939 . S
H237 C254 0.940 . S
C238 P224 1.812 . S
C238 C239 1.389 . S
C238 C243 1.391 . S
C239 H225 0.941 . S
C239 C238 1.389 . S
C239 C240 1.397 . S
C240 H226 0.939 . S
C240 C239 1.397 . S
C240 C241 1.378 . S
C241 C240 1.378 . S
C241 C242 1.378 . S
C242 H227 0.940 . S
C242 C241 1.378 . S
C242 C243 1.396 . S
C243 H228 0.940 . S
C243 C238 1.391 . S
C243 C242 1.396 . S
C244 P224 1.803 . S
C244 C245 1.378 . S
C244 C249 1.400 . S
C245 H229 0.939 . S
C245 C244 1.378 . S
C245 C246 1.361 1_455 S
C246 H230 0.942 . S
C246 C245 1.361 1_655 S
C246 C247 1.369 . S
C247 C246 1.369 . S
C247 C248 1.404 1_655 S
C248 H231 0.940 . S
C248 C247 1.404 1_455 S
C248 C249 1.389 . S
C249 H232 0.939 . S
C249 C244 1.400 . S
C249 C248 1.389 . S
C250 P224 1.819 . S
C250 C251 1.391 . S
C250 C255 1.391 . S
C251 H233 0.941 . S
C251 C250 1.391 . S
C251 C252 1.396 . S
C252 H236 0.939 . S
C252 C251 1.396 . S
C252 C253 1.397 . S
C253 C252 1.397 . S
C253 C254 1.385 . S
C254 H237 0.940 . S
C254 C253 1.385 . S
C254 C255 1.388 . S
C255 H234 0.939 . S
C255 C250 1.391 . S
C255 C254 1.388 . S
Zn256 O262 1.920 . S
Zn256 O268 1.898 . S
Zn256 O271 1.905 . S
Zn257 O265 1.905 . S
Zn257 O266 1.898 . S
Zn257 O274 1.920 1_455 S
Zn258 O261 2.080 . S
Zn258 O264 2.114 . S
Zn258 O267 2.120 . S
Zn258 O269 2.120 . S
Zn258 O270 2.114 . S
Zn258 O273 2.080 . S
C259 O264 1.166 . S
C259 O265 1.182 . S
C260 O266 1.167 . S
C260 O267 1.299 . S
O261 Zn258 2.080 . S
O261 C275 1.305 . S
O262 Zn256 1.920 . S
O262 C275 1.234 . S
C263 O268 1.167 . S
C263 O269 1.299 . S
O264 Zn258 2.114 . S
O264 C259 1.166 . S
O265 Zn257 1.905 . S
O265 C259 1.182 . S
O266 Zn257 1.898 . S
O266 C260 1.167 . S
O267 Zn258 2.120 . S
O267 C260 1.299 . S
O268 Zn256 1.898 . S
O268 C263 1.167 . S
O269 Zn258 2.120 . S
O269 C263 1.299 . S
O270 Zn258 2.114 . S
O270 C272 1.166 . S
O271 Zn256 1.905 . S
O271 C272 1.182 . S
C272 O270 1.166 . S
C272 O271 1.182 . S
O273 Zn258 2.080 . S
O273 C276 1.305 1_455 S
O274 Zn257 1.920 1_655 S
O274 C276 1.234 . S
C275 O261 1.305 . S
C275 O262 1.234 . S
C276 O273 1.305 1_655 S
C276 O274 1.234 . S
Zn277 O283 1.920 . S
Zn277 O289 1.898 . S
Zn277 O292 1.905 . S
Zn278 O286 1.905 . S
Zn278 O287 1.898 . S
Zn278 O295 1.920 . S
Zn279 O282 2.080 . S
Zn279 O285 2.114 . S
Zn279 O288 2.120 . S
Zn279 O290 2.120 . S
Zn279 O291 2.114 . S
Zn279 O294 2.080 . S
C280 O285 1.166 . S
C280 O286 1.182 . S
C281 O287 1.167 . S
C281 O288 1.299 . S
O282 Zn279 2.080 . S
O282 C296 1.305 . S
O283 Zn277 1.920 . S
O283 C296 1.234 . S
C284 O289 1.167 . S
C284 O290 1.299 . S
O285 Zn279 2.114 . S
O285 C280 1.166 . S
O286 Zn278 1.905 . S
O286 C280 1.182 . S
O287 Zn278 1.898 . S
O287 C281 1.167 . S
O288 Zn279 2.120 . S
O288 C281 1.299 . S
O289 Zn277 1.898 . S
O289 C284 1.167 . S
O290 Zn279 2.120 . S
O290 C284 1.299 . S
O291 Zn279 2.114 . S
O291 C293 1.166 . S
O292 Zn277 1.905 . S
O292 C293 1.182 . S
C293 O291 1.166 . S
C293 O292 1.182 . S
O294 Zn279 2.080 . S
O294 C297 1.305 . S
O295 Zn278 1.920 . S
O295 C297 1.234 . S
C296 O282 1.305 . S
C296 O283 1.234 . S
C297 O294 1.305 . S
C297 O295 1.234 . S
Zn298 O304 1.920 . S
Zn298 O310 1.898 . S
Zn298 O313 1.905 . S
Zn299 O307 1.905 . S
Zn299 O308 1.898 . S
Zn299 O316 1.920 . S
Zn300 O303 2.080 . S
Zn300 O306 2.114 . S
Zn300 O309 2.120 . S
Zn300 O311 2.120 . S
Zn300 O312 2.114 . S
Zn300 O315 2.080 . S
C301 O306 1.166 . S
C301 O307 1.182 . S
C302 O308 1.167 . S
C302 O309 1.299 . S
O303 Zn300 2.080 . S
O303 C317 1.305 . S
O304 Zn298 1.920 . S
O304 C317 1.234 . S
C305 O310 1.167 . S
C305 O311 1.299 . S
O306 Zn300 2.114 . S
O306 C301 1.166 . S
O307 Zn299 1.905 . S
O307 C301 1.182 . S
O308 Zn299 1.898 . S
O308 C302 1.167 . S
O309 Zn300 2.120 . S
O309 C302 1.299 . S
O310 Zn298 1.898 . S
O310 C305 1.167 . S
O311 Zn300 2.120 . S
O311 C305 1.299 . S
O312 Zn300 2.114 . S
O312 C314 1.166 . S
O313 Zn298 1.905 . S
O313 C314 1.182 . S
C314 O312 1.166 . S
C314 O313 1.182 . S
O315 Zn300 2.080 . S
O315 C318 1.305 . S
O316 Zn299 1.920 . S
O316 C318 1.234 . S
C317 O303 1.305 . S
C317 O304 1.234 . S
C318 O315 1.305 . S
C318 O316 1.234 . S
Zn319 O325 1.920 . S
Zn319 O331 1.898 . S
Zn319 O334 1.905 1_455 S
Zn320 O328 1.905 . S
Zn320 O329 1.898 . S
Zn320 O337 1.920 . S
Zn321 O324 2.080 . S
Zn321 O327 2.114 . S
Zn321 O330 2.120 . S
Zn321 O332 2.120 . S
Zn321 O333 2.114 . S
Zn321 O336 2.080 . S
C322 O327 1.166 . S
C322 O328 1.182 . S
C323 O329 1.167 . S
C323 O330 1.299 . S
O324 Zn321 2.080 . S
O324 C338 1.305 . S
O325 Zn319 1.920 . S
O325 C338 1.234 . S
C326 O331 1.167 . S
C326 O332 1.299 . S
O327 Zn321 2.114 . S
O327 C322 1.166 . S
O328 Zn320 1.905 . S
O328 C322 1.182 . S
O329 Zn320 1.898 . S
O329 C323 1.167 . S
O330 Zn321 2.120 . S
O330 C323 1.299 . S
O331 Zn319 1.898 . S
O331 C326 1.167 . S
O332 Zn321 2.120 . S
O332 C326 1.299 . S
O333 Zn321 2.114 . S
O333 C335 1.166 1_455 S
O334 Zn319 1.905 1_655 S
O334 C335 1.182 . S
C335 O333 1.166 1_655 S
C335 O334 1.182 . S
O336 Zn321 2.080 . S
O336 C339 1.305 . S
O337 Zn320 1.920 . S
O337 C339 1.234 . S
C338 O324 1.305 . S
C338 O325 1.234 . S
C339 O336 1.305 . S
C339 O337 1.234 . S
C340 C341 1.363 . S
C340 C346 1.379 . S
C340 N348 1.356 . S
C341 C340 1.363 . S
C341 C347 1.363 . S
C342 C343 1.363 . S
C342 C347 1.379 . S
C342 N349 1.356 . S
C343 C342 1.363 . S
C343 C346 1.363 . S
N344 C346 1.356 . S
N344 H356 0.984 . S
N344 H357 0.985 . S
N345 C347 1.356 . S
N345 H350 0.984 . S
N345 H351 0.985 . S
C346 C340 1.379 . S
C346 C343 1.363 . S
C346 N344 1.356 . S
C347 C341 1.363 . S
C347 C342 1.379 . S
C347 N345 1.356 . S
N348 C340 1.356 . S
N348 H354 0.984 . S
N348 H355 0.984 . S
N349 C342 1.356 . S
N349 H352 0.984 . S
N349 H353 0.985 . S
H350 N345 0.984 . S
H351 N345 0.985 . S
H352 N349 0.984 . S
H353 N349 0.985 . S
H354 N348 0.984 . S
H355 N348 0.984 . S
H356 N344 0.984 . S
H357 N344 0.985 . S
C358 C359 1.363 . S
C358 C364 1.379 . S
C358 N366 1.356 . S
C359 C358 1.363 . S
C359 C365 1.363 . S
C360 C361 1.363 . S
C360 C365 1.379 . S
C360 N367 1.356 . S
C361 C360 1.363 . S
C361 C364 1.363 . S
N362 C364 1.356 . S
N362 H374 0.984 . S
N362 H375 0.985 . S
N363 C365 1.356 . S
N363 H368 0.984 . S
N363 H369 0.985 . S
C364 C358 1.379 . S
C364 C361 1.363 . S
C364 N362 1.356 . S
C365 C359 1.363 . S
C365 C360 1.379 . S
C365 N363 1.356 . S
N366 C358 1.356 . S
N366 H372 0.984 . S
N366 H373 0.984 . S
N367 C360 1.356 . S
N367 H370 0.984 . S
N367 H371 0.985 . S
H368 N363 0.984 . S
H369 N363 0.985 . S
H370 N367 0.984 . S
H371 N367 0.985 . S
H372 N366 0.984 . S
H373 N366 0.984 . S
H374 N362 0.984 . S
H375 N362 0.985 . S
C376 C377 1.363 . S
C376 C382 1.379 . S
C376 N384 1.356 . S
C377 C376 1.363 . S
C377 C383 1.363 . S
C378 C379 1.363 . S
C378 C383 1.379 . S
C378 N385 1.356 . S
C379 C378 1.363 . S
C379 C382 1.363 . S
N380 C382 1.356 . S
N380 H392 0.984 . S
N380 H393 0.985 . S
N381 C383 1.356 . S
N381 H386 0.984 . S
N381 H387 0.985 . S
C382 C376 1.379 . S
C382 C379 1.363 . S
C382 N380 1.356 . S
C383 C377 1.363 . S
C383 C378 1.379 . S
C383 N381 1.356 . S
N384 C376 1.356 . S
N384 H390 0.984 . S
N384 H391 0.984 . S
N385 C378 1.356 . S
N385 H388 0.984 . S
N385 H389 0.985 . S
H386 N381 0.984 . S
H387 N381 0.985 . S
H388 N385 0.984 . S
H389 N385 0.985 . S
H390 N384 0.984 . S
H391 N384 0.984 . S
H392 N380 0.984 . S
H393 N380 0.985 . S
C394 C395 1.363 . S
C394 C400 1.379 . S
C394 N402 1.356 . S
C395 C394 1.363 . S
C395 C401 1.363 . S
C396 C397 1.363 . S
C396 C401 1.379 . S
C396 N403 1.356 . S
C397 C396 1.363 . S
C397 C400 1.363 . S
N398 C400 1.356 . S
N398 H410 0.984 . S
N398 H411 0.983 1_655 S
N399 C401 1.356 . S
N399 H404 0.984 . S
N399 H405 0.985 . S
C400 C394 1.379 . S
C400 C397 1.363 . S
C400 N398 1.356 . S
C401 C395 1.363 . S
C401 C396 1.379 . S
C401 N399 1.356 . S
N402 C394 1.356 . S
N402 H408 0.984 . S
N402 H409 0.984 . S
N403 C396 1.356 . S
N403 H406 0.984 . S
N403 H407 0.985 . S
H404 N399 0.984 . S
H405 N399 0.985 . S
H406 N403 0.984 . S
H407 N403 0.985 . S
H408 N402 0.984 . S
H409 N402 0.984 . S
H410 N398 0.984 . S
H411 N398 0.983 1_455 S
C412 C413 1.363 . S
C412 C418 1.379 . S
C412 N420 1.356 1_455 S
C413 C412 1.363 . S
C413 C419 1.363 . S
C414 C415 1.363 . S
C414 C419 1.379 . S
C414 N421 1.356 . S
C415 C414 1.363 . S
C415 C418 1.363 . S
N416 C418 1.356 . S
N416 H428 0.984 1_455 S
N416 H429 0.985 . S
N417 C419 1.356 . S
N417 H422 0.984 . S
N417 H423 0.985 . S
C418 C412 1.379 . S
C418 C415 1.363 . S
C418 N416 1.356 . S
C419 C413 1.363 . S
C419 C414 1.379 . S
C419 N417 1.356 . S
N420 C412 1.356 1_655 S
N420 H426 0.984 . S
N420 H427 0.984 . S
N421 C414 1.356 . S
N421 H424 0.984 . S
N421 H425 0.985 . S
H422 N417 0.984 . S
H423 N417 0.985 . S
H424 N421 0.984 . S
H425 N421 0.985 . S
H426 N420 0.984 . S
H427 N420 0.984 . S
H428 N416 0.984 1_655 S
H429 N416 0.985 . S
C430 C431 1.363 . S
C430 C436 1.379 . S
C430 N438 1.356 . S
C431 C430 1.363 . S
C431 C437 1.363 . S
C432 C433 1.363 . S
C432 C437 1.379 . S
C432 N439 1.356 . S
C433 C432 1.363 . S
C433 C436 1.363 . S
N434 C436 1.356 . S
N434 H446 0.984 . S
N434 H447 0.985 1_655 S
N435 C437 1.356 . S
N435 H440 0.984 . S
N435 H441 0.985 . S
C436 C430 1.379 . S
C436 C433 1.363 . S
C436 N434 1.356 . S
C437 C431 1.363 . S
C437 C432 1.379 . S
C437 N435 1.356 . S
N438 C430 1.356 . S
N438 H444 0.984 . S
N438 H445 0.984 . S
N439 C432 1.356 . S
N439 H442 0.984 . S
N439 H443 0.985 . S
H440 N435 0.984 . S
H441 N435 0.985 . S
H442 N439 0.984 . S
H443 N439 0.985 . S
H444 N438 0.984 . S
H445 N438 0.984 . S
H446 N434 0.984 . S
H447 N434 0.985 1_455 S
C448 C449 1.363 . S
C448 C454 1.379 . S
C448 N456 1.356 . S
C449 C448 1.363 . S
C449 C455 1.363 . S
C450 C451 1.363 . S
C450 C455 1.379 . S
C450 N457 1.356 . S
C451 C450 1.363 . S
C451 C454 1.363 . S
N452 C454 1.356 . S
N452 H464 0.984 . S
N452 H465 0.985 . S
N453 C455 1.356 . S
N453 H458 0.984 . S
N453 H459 0.985 . S
C454 C448 1.379 . S
C454 C451 1.363 . S
C454 N452 1.356 . S
C455 C449 1.363 . S
C455 C450 1.379 . S
C455 N453 1.356 . S
N456 C448 1.356 . S
N456 H462 0.984 . S
N456 H463 0.984 . S
N457 C450 1.356 . S
N457 H460 0.984 . S
N457 H461 0.985 . S
H458 N453 0.984 . S
H459 N453 0.985 . S
H460 N457 0.984 . S
H461 N457 0.985 . S
H462 N456 0.984 . S
H463 N456 0.984 . S
H464 N452 0.984 . S
H465 N452 0.985 . S
C466 C467 1.363 . S
C466 C472 1.379 . S
C466 N474 1.356 . S
C467 C466 1.363 . S
C467 C473 1.363 . S
C468 C469 1.363 . S
C468 C473 1.379 . S
C468 N475 1.356 . S
C469 C468 1.363 . S
C469 C472 1.363 . S
N470 C472 1.356 . S
N470 H482 0.984 . S
N470 H483 0.985 . S
N471 C473 1.356 . S
N471 H476 0.984 . S
N471 H477 0.985 . S
C472 C466 1.379 . S
C472 C469 1.363 . S
C472 N470 1.356 . S
C473 C467 1.363 . S
C473 C468 1.379 . S
C473 N471 1.356 . S
N474 C466 1.356 . S
N474 H480 0.984 . S
N474 H481 0.984 . S
N475 C468 1.356 . S
N475 H478 0.984 . S
N475 H479 0.985 . S
H476 N471 0.984 . S
H477 N471 0.985 . S
H478 N475 0.984 . S
H479 N475 0.985 . S
H480 N474 0.984 . S
H481 N474 0.984 . S
H482 N470 0.984 . S
H483 N470 0.985 . S
C484 C485 1.363 . S
C484 C490 1.379 . S
C484 N492 1.356 . S
C485 C484 1.363 . S
C485 C491 1.363 . S
C486 C487 1.363 . S
C486 C491 1.379 . S
C486 N493 1.356 . S
C487 C486 1.363 . S
C487 C490 1.363 . S
N488 C490 1.356 . S
N488 H500 0.984 . S
N488 H501 0.985 . S
N489 C491 1.356 . S
N489 H494 0.984 . S
N489 H495 0.985 . S
C490 C484 1.379 . S
C490 C487 1.363 . S
C490 N488 1.356 . S
C491 C485 1.363 . S
C491 C486 1.379 . S
C491 N489 1.356 . S
N492 C484 1.356 . S
N492 H498 0.984 . S
N492 H499 0.984 . S
N493 C486 1.356 . S
N493 H496 0.984 . S
N493 H497 0.985 . S
H494 N489 0.984 . S
H495 N489 0.985 . S
H496 N493 0.984 . S
H497 N493 0.985 . S
H498 N492 0.984 . S
H499 N492 0.984 . S
H500 N488 0.984 . S
H501 N488 0.985 . S
C502 C503 1.363 . S
C502 C508 1.379 . S
C502 N510 1.356 . S
C503 C502 1.363 . S
C503 C509 1.363 . S
C504 C505 1.363 . S
C504 C509 1.379 . S
C504 N511 1.356 . S
C505 C504 1.363 . S
C505 C508 1.363 . S
N506 C508 1.356 . S
N506 H518 0.984 . S
N506 H519 0.985 . S
N507 C509 1.356 . S
N507 H512 0.984 . S
N507 H513 0.985 . S
C508 C502 1.379 . S
C508 C505 1.363 . S
C508 N506 1.356 . S
C509 C503 1.363 . S
C509 C504 1.379 . S
C509 N507 1.356 . S
N510 C502 1.356 . S
N510 H516 0.984 . S
N510 H517 0.984 . S
N511 C504 1.356 . S
N511 H514 0.984 . S
N511 H515 0.985 . S
H512 N507 0.984 . S
H513 N507 0.985 . S
H514 N511 0.984 . S
H515 N511 0.985 . S
H516 N510 0.984 . S
H517 N510 0.984 . S
H518 N506 0.984 . S
H519 N506 0.985 . S
C520 C521 1.363 . S
C520 C526 1.379 . S
C520 N528 1.356 . S
C521 C520 1.363 . S
C521 C527 1.363 . S
C522 C523 1.363 . S
C522 C527 1.379 . S
C522 N529 1.356 . S
C523 C522 1.363 . S
C523 C526 1.363 . S
N524 C526 1.356 . S
N524 H536 0.984 . S
N524 H537 0.985 . S
N525 C527 1.356 . S
N525 H530 0.984 . S
N525 H531 0.985 . S
C526 C520 1.379 . S
C526 C523 1.363 . S
C526 N524 1.356 . S
C527 C521 1.363 . S
C527 C522 1.379 . S
C527 N525 1.356 . S
N528 C520 1.356 . S
N528 H534 0.984 . S
N528 H535 0.984 . S
N529 C522 1.356 . S
N529 H532 0.984 . S
N529 H533 0.985 . S
H530 N525 0.984 . S
H531 N525 0.985 . S
H532 N529 0.984 . S
H533 N529 0.985 . S
H534 N528 0.984 . S
H535 N528 0.984 . S
H536 N524 0.984 . S
H537 N524 0.985 . S
C538 C539 1.363 . S
C538 C544 1.379 . S
C538 N546 1.356 . S
C539 C538 1.363 . S
C539 C545 1.363 . S
C540 C541 1.363 . S
C540 C545 1.379 . S
C540 N547 1.356 . S
C541 C540 1.363 . S
C541 C544 1.363 . S
N542 C544 1.356 . S
N542 H554 0.984 . S
N542 H555 0.985 . S
N543 C545 1.356 . S
N543 H548 0.984 . S
N543 H549 0.985 . S
C544 C538 1.379 . S
C544 C541 1.363 . S
C544 N542 1.356 . S
C545 C539 1.363 . S
C545 C540 1.379 . S
C545 N543 1.356 . S
N546 C538 1.356 . S
N546 H552 0.984 . S
N546 H553 0.984 . S
N547 C540 1.356 . S
N547 H550 0.984 . S
N547 H551 0.985 . S
H548 N543 0.984 . S
H549 N543 0.985 . S
H550 N547 0.984 . S
H551 N547 0.985 . S
H552 N546 0.984 . S
H553 N546 0.984 . S
H554 N542 0.984 . S
H555 N542 0.985 . S
C556 C557 1.363 . S
C556 C562 1.379 1_565 S
C556 N564 1.356 . S
C557 C556 1.363 . S
C557 C563 1.363 . S
C558 C559 1.363 . S
C558 C563 1.379 1_545 S
C558 N565 1.356 . S
C559 C558 1.363 . S
C559 C562 1.363 . S
N560 C562 1.356 . S
N560 H572 0.984 . S
N560 H573 0.985 . S
N561 C563 1.356 . S
N561 H566 0.984 . S
N561 H567 0.985 . S
C562 C556 1.379 1_545 S
C562 C559 1.363 . S
C562 N560 1.356 . S
C563 C557 1.363 . S
C563 C558 1.379 1_565 S
C563 N561 1.356 . S
N564 C556 1.356 . S
N564 H570 0.984 . S
N564 H571 0.984 . S
N565 C558 1.356 . S
N565 H568 0.984 . S
N565 H569 0.985 . S
H566 N561 0.984 . S
H567 N561 0.985 . S
H568 N565 0.984 . S
H569 N565 0.985 . S
H570 N564 0.984 . S
H571 N564 0.984 . S
H572 N560 0.984 . S
H573 N560 0.985 . S
C574 C575 1.363 1_565 S
C574 C580 1.379 . S
C574 N582 1.356 1_565 S
C575 C574 1.363 1_545 S
C575 C581 1.365 . S
C576 C577 1.363 . S
C576 C581 1.376 1_565 S
C576 N583 1.356 . S
C577 C576 1.363 . S
C577 C580 1.363 . S
N578 C580 1.356 . S
N578 H590 0.984 . S
N578 H591 0.985 . S
N579 C581 1.359 . S
N579 H584 0.984 . S
N579 H585 0.985 . S
C580 C574 1.379 . S
C580 C577 1.363 . S
C580 N578 1.356 . S
C581 C575 1.365 . S
C581 C576 1.376 1_545 S
C581 N579 1.359 . S
N582 C574 1.356 1_545 S
N582 H588 0.984 . S
N582 H589 0.984 . S
N583 C576 1.356 . S
N583 H586 0.984 . S
N583 H587 0.985 . S
H584 N579 0.984 . S
H585 N579 0.985 . S
H586 N583 0.984 . S
H587 N583 0.985 . S
H588 N582 0.984 . S
H589 N582 0.984 . S
H590 N578 0.984 . S
H591 N578 0.985 . S
C592 C593 1.356 1_565 S
C592 C598 1.393 . S
C592 N600 1.345 1_565 S
C593 C592 1.356 1_545 S
C593 C599 1.363 1_545 S
C594 C595 1.363 . S
C594 C599 1.379 . S
C594 N601 1.356 . S
C595 C594 1.363 . S
C595 C598 1.363 . S
N596 C598 1.356 . S
N596 H608 0.984 . S
N596 H609 0.985 . S
N597 C599 1.356 1_545 S
N597 H602 0.984 . S
N597 H603 0.985 . S
C598 C592 1.393 . S
C598 C595 1.363 . S
C598 N596 1.356 . S
C599 C593 1.363 1_565 S
C599 C594 1.379 . S
C599 N597 1.356 1_565 S
N600 C592 1.345 1_545 S
N600 H606 0.984 . S
N600 H607 0.984 . S
N601 C594 1.356 . S
N601 H604 0.984 . S
N601 H605 0.985 . S
H602 N597 0.984 . S
H603 N597 0.985 . S
H604 N601 0.984 . S
H605 N601 0.985 . S
H606 N600 0.984 . S
H607 N600 0.984 . S
H608 N596 0.984 . S
H609 N596 0.985 . S
C610 C611 1.363 . S
C610 C616 1.379 1_565 S
C610 N618 1.356 . S
C611 C610 1.363 . S
C611 C617 1.363 1_565 S
C612 C613 1.363 . S
C612 C617 1.379 . S
C612 N619 1.356 . S
C613 C612 1.363 . S
C613 C616 1.363 . S
N614 C616 1.356 . S
N614 H626 0.984 . S
N614 H627 0.985 . S
N615 C617 1.356 1_665 S
N615 H620 0.984 . S
N615 H621 0.985 . S
C616 C610 1.379 1_545 S
C616 C613 1.363 . S
C616 N614 1.356 . S
C617 C611 1.363 1_545 S
C617 C612 1.379 . S
C617 N615 1.356 1_445 S
N618 C610 1.356 . S
N618 H624 0.984 . S
N618 H625 0.984 . S
N619 C612 1.356 . S
N619 H622 0.984 . S
N619 H623 0.985 . S
H620 N615 0.984 . S
H621 N615 0.985 . S
H622 N619 0.984 . S
H623 N619 0.985 . S
H624 N618 0.984 . S
H625 N618 0.984 . S
H626 N614 0.984 . S
H627 N614 0.985 . S
C628 C629 1.363 . S
C628 C634 1.379 . S
C628 N636 1.356 . S
C629 C628 1.363 . S
C629 C635 1.363 . S
C630 C631 1.363 . S
C630 C635 1.379 . S
C630 N637 1.356 . S
C631 C630 1.363 . S
C631 C634 1.363 . S
N632 C634 1.356 . S
N632 H644 0.984 . S
N632 H645 0.985 . S
N633 C635 1.356 . S
N633 H638 0.984 . S
N633 H639 0.985 . S
C634 C628 1.379 . S
C634 C631 1.363 . S
C634 N632 1.356 . S
C635 C629 1.363 . S
C635 C630 1.379 . S
C635 N633 1.356 . S
N636 C628 1.356 . S
N636 H642 0.984 . S
N636 H643 0.984 1_556 S
N637 C630 1.356 . S
N637 H640 0.984 . S
N637 H641 0.985 . S
H638 N633 0.984 . S
H639 N633 0.985 . S
H640 N637 0.984 . S
H641 N637 0.985 . S
H642 N636 0.984 . S
H643 N636 0.984 1_554 S
H644 N632 0.984 . S
H645 N632 0.985 . S
C646 C647 1.363 . S
C646 C652 1.379 . S
C646 N654 1.356 . S
C647 C646 1.363 . S
C647 C653 1.363 . S
C648 C649 1.363 . S
C648 C653 1.379 . S
C648 N655 1.356 . S
C649 C648 1.363 . S
C649 C652 1.363 . S
N650 C652 1.356 . S
N650 H662 0.984 . S
N650 H663 0.985 . S
N651 C653 1.356 . S
N651 H656 0.984 . S
N651 H657 0.985 . S
C652 C646 1.379 . S
C652 C649 1.363 . S
C652 N650 1.356 . S
C653 C647 1.363 . S
C653 C648 1.379 . S
C653 N651 1.356 . S
N654 C646 1.356 . S
N654 H660 0.984 . S
N654 H661 0.984 . S
N655 C648 1.356 . S
N655 H658 0.984 . S
N655 H659 0.985 . S
H656 N651 0.984 . S
H657 N651 0.985 . S
H658 N655 0.984 . S
H659 N655 0.985 . S
H660 N654 0.984 . S
H661 N654 0.984 . S
H662 N650 0.984 . S
H663 N650 0.985 . S
C664 C665 1.363 . S
C664 C670 1.379 . S
C664 N672 1.356 . S
C665 C664 1.363 . S
C665 C671 1.363 . S
C666 C667 1.363 . S
C666 C671 1.379 . S
C666 N673 1.356 . S
C667 C666 1.363 . S
C667 C670 1.363 . S
N668 C670 1.356 . S
N668 H680 0.984 . S
N668 H681 0.985 . S
N669 C671 1.356 . S
N669 H674 0.984 . S
N669 H675 0.985 . S
C670 C664 1.379 . S
C670 C667 1.363 . S
C670 N668 1.356 . S
C671 C665 1.363 . S
C671 C666 1.379 . S
C671 N669 1.356 . S
N672 C664 1.356 . S
N672 H678 0.984 . S
N672 H679 0.984 . S
N673 C666 1.356 . S
N673 H676 0.984 . S
N673 H677 0.985 . S
H674 N669 0.984 . S
H675 N669 0.985 . S
H676 N673 0.984 . S
H677 N673 0.985 . S
H678 N672 0.984 . S
H679 N672 0.984 . S
H680 N668 0.984 . S
H681 N668 0.985 . S
C682 C683 1.363 . S
C682 C688 1.379 . S
C682 N690 1.356 . S
C683 C682 1.363 . S
C683 C689 1.363 . S
C684 C685 1.363 . S
C684 C689 1.379 . S
C684 N691 1.356 . S
C685 C684 1.363 . S
C685 C688 1.363 . S
N686 C688 1.356 . S
N686 H698 0.984 . S
N686 H699 0.985 . S
N687 C689 1.356 . S
N687 H692 0.984 . S
N687 H693 0.985 . S
C688 C682 1.379 . S
C688 C685 1.363 . S
C688 N686 1.356 . S
C689 C683 1.363 . S
C689 C684 1.379 . S
C689 N687 1.356 . S
N690 C682 1.356 . S
N690 H696 0.984 . S
N690 H697 0.984 . S
N691 C684 1.356 . S
N691 H694 0.984 . S
N691 H695 0.985 . S
H692 N687 0.984 . S
H693 N687 0.985 . S
H694 N691 0.984 . S
H695 N691 0.985 . S
H696 N690 0.984 . S
H697 N690 0.984 . S
H698 N686 0.984 . S
H699 N686 0.985 . S
C700 C701 1.363 . S
C700 C706 1.379 . S
C700 N708 1.356 . S
C701 C700 1.363 . S
C701 C707 1.363 . S
C702 C703 1.363 . S
C702 C707 1.379 . S
C702 N709 1.356 . S
C703 C702 1.363 . S
C703 C706 1.363 . S
N704 C706 1.356 . S
N704 H716 0.984 . S
N704 H717 0.985 . S
N705 C707 1.356 . S
N705 H710 0.960 1_454 S
N705 H711 0.985 1_455 S
C706 C700 1.379 . S
C706 C703 1.363 . S
C706 N704 1.356 . S
C707 C701 1.363 . S
C707 C702 1.379 . S
C707 N705 1.356 . S
N708 C700 1.356 . S
N708 H714 0.984 . S
N708 H715 0.984 1_554 S
N709 C702 1.356 . S
N709 H712 0.984 . S
N709 H713 0.985 . S
H710 N705 0.960 1_656 S
H711 N705 0.985 1_655 S
H712 N709 0.984 . S
H713 N709 0.985 . S
H714 N708 0.984 . S
H715 N708 0.984 1_556 S
H716 N704 0.984 . S
H717 N704 0.985 . S
C718 C719 1.363 . S
C718 C724 1.379 . S
C718 N726 1.356 . S
C719 C718 1.363 . S
C719 C725 1.363 . S
C720 C721 1.363 . S
C720 C725 1.379 . S
C720 N727 1.356 . S
C721 C720 1.363 . S
C721 C724 1.363 . S
N722 C724 1.356 . S
N722 H734 0.984 . S
N722 H735 0.985 . S
N723 C725 1.356 . S
N723 H728 0.984 . S
N723 H729 0.985 . S
C724 C718 1.379 . S
C724 C721 1.363 . S
C724 N722 1.356 . S
C725 C719 1.363 . S
C725 C720 1.379 . S
C725 N723 1.356 . S
N726 C718 1.356 . S
N726 H732 0.984 . S
N726 H733 0.984 . S
N727 C720 1.356 . S
N727 H730 0.984 . S
N727 H731 0.985 . S
H728 N723 0.984 . S
H729 N723 0.985 . S
H730 N727 0.984 . S
H731 N727 0.985 . S
H732 N726 0.984 . S
H733 N726 0.984 . S
H734 N722 0.984 . S
H735 N722 0.985 . S
C736 C737 1.363 . S
C736 C742 1.379 . S
C736 N744 1.356 . S
C737 C736 1.363 . S
C737 C743 1.363 . S
C738 C739 1.363 . S
C738 C743 1.379 . S
C738 N745 1.356 . S
C739 C738 1.363 . S
C739 C742 1.363 . S
N740 C742 1.356 . S
N740 H752 0.984 . S
N740 H753 0.985 . S
N741 C743 1.356 . S
N741 H746 0.984 . S
N741 H747 0.985 . S
C742 C736 1.379 . S
C742 C739 1.363 . S
C742 N740 1.356 . S
C743 C737 1.363 . S
C743 C738 1.379 . S
C743 N741 1.356 . S
N744 C736 1.356 . S
N744 H750 0.984 . S
N744 H751 0.984 . S
N745 C738 1.356 . S
N745 H748 0.984 . S
N745 H749 0.985 . S
H746 N741 0.984 . S
H747 N741 0.985 . S
H748 N745 0.984 . S
H749 N745 0.985 . S
H750 N744 0.984 . S
H751 N744 0.984 . S
H752 N740 0.984 . S
H753 N740 0.985 . S
C754 C755 1.363 . S
C754 C760 1.379 . S
C754 N762 1.356 . S
C755 C754 1.363 . S
C755 C761 1.363 . S
C756 C757 1.363 . S
C756 C761 1.379 . S
C756 N763 1.356 . S
C757 C756 1.363 . S
C757 C760 1.363 . S
N758 C760 1.356 . S
N758 H770 0.984 . S
N758 H771 0.985 . S
N759 C761 1.356 . S
N759 H764 0.984 . S
N759 H765 0.985 . S
C760 C754 1.379 . S
C760 C757 1.363 . S
C760 N758 1.356 . S
C761 C755 1.363 . S
C761 C756 1.379 . S
C761 N759 1.356 . S
N762 C754 1.356 . S
N762 H768 0.984 . S
N762 H769 0.984 . S
N763 C756 1.356 . S
N763 H766 0.984 . S
N763 H767 0.985 . S
H764 N759 0.984 . S
H765 N759 0.985 . S
H766 N763 0.984 . S
H767 N763 0.985 . S
H768 N762 0.984 . S
H769 N762 0.984 . S
H770 N758 0.984 . S
H771 N758 0.985 . S
C343 C263 1.459 . S
C341 C17 1.650 . S
C361 C281 1.317 . S
C359 C55 1.394 . S
C377 C87 1.474 . S
C379 C305 1.391 . S
C397 C335 1.361 . S
C395 C113 1.484 . S
C415 C323 1.383 . S
C413 C145 1.389 . S
C431 C177 1.454 . S
C433 C276 1.373 . S
C449 C215 1.554 . S
C451 C296 1.473 . S
C467 C247 1.459 . S
C469 C301 1.349 . S
C485 C241 1.449 . S
C487 C317 1.365 . S
C503 C183 1.461 . S
C505 C272 1.344 . S
C523 C339 1.333 . S
C521 C119 1.405 . S
C541 C284 1.349 . S
C539 C49 1.474 . S
C557 C81 1.645 . S
C559 C302 1.454 . S
C575 C23 1.482 . S
C577 C260 1.397 . S
C595 C280 1.383 . S
C593 C209 1.389 . S
C613 C326 1.469 . S
C611 C151 1.556 . S
C631 C322 1.322 . S
C629 C29 1.527 1_556 S
C649 C275 1.402 . S
C647 C61 1.417 . S
C665 C93 1.512 . S
C667 C297 1.300 . S
C683 C125 1.436 . S
C685 C318 1.412 . S
C703 C259 1.321 . S
C701 C157 1.445 1_554 S
C719 C189 1.527 . S
C721 C293 1.445 . S
C739 C314 1.333 . S
C737 C221 1.462 . S
C757 C338 1.426 . S
C755 C253 1.508 . S
