# Generated by pormake.
# Topology pyr, (3,6)-cn, num edge types: 1
# Building blocks:
#     Node 0, Type 0, BuildingBlock: ESEHIV_clean_linker_0, # of connection points: 3
#     Node 1, Type 0, BuildingBlock: ESEHIV_clean_linker_0, # of connection points: 3
#     Node 2, Type 0, BuildingBlock: ESEHIV_clean_linker_0, # of connection points: 3
#     Node 3, Type 0, BuildingBlock: ESEHIV_clean_linker_0, # of connection points: 3
#     Node 4, Type 0, BuildingBlock: ESEHIV_clean_linker_0, # of connection points: 3
#     Node 5, Type 0, BuildingBlock: ESEHIV_clean_linker_0, # of connection points: 3
#     Node 6, Type 0, BuildingBlock: ESEHIV_clean_linker_0, # of connection points: 3
#     Node 7, Type 0, BuildingBlock: ESEHIV_clean_linker_0, # of connection points: 3
#     Node 8, Type 1, BuildingBlock: VOLQOD_clean_sbu_1, # of connection points: 6
#     Node 9, Type 1, BuildingBlock: VOLQOD_clean_sbu_1, # of connection points: 6
#     Node 10, Type 1, BuildingBlock: VOLQOD_clean_sbu_1, # of connection points: 6
#     Node 11, Type 1, BuildingBlock: VOLQOD_clean_sbu_1, # of connection points: 6
#     Edge 12, Type (0, 1), BuildingBlock: ZUJKAS_clean_linker_0, # of connection points: 2
#     Edge 13, Type (0, 1), BuildingBlock: ZUJKAS_clean_linker_0, # of connection points: 2
#     Edge 14, Type (0, 1), BuildingBlock: ZUJKAS_clean_linker_0, # of connection points: 2
#     Edge 15, Type (0, 1), BuildingBlock: ZUJKAS_clean_linker_0, # of connection points: 2
#     Edge 16, Type (0, 1), BuildingBlock: ZUJKAS_clean_linker_0, # of connection points: 2
#     Edge 17, Type (0, 1), BuildingBlock: ZUJKAS_clean_linker_0, # of connection points: 2
#     Edge 18, Type (0, 1), BuildingBlock: ZUJKAS_clean_linker_0, # of connection points: 2
#     Edge 19, Type (0, 1), BuildingBlock: ZUJKAS_clean_linker_0, # of connection points: 2
#     Edge 20, Type (0, 1), BuildingBlock: ZUJKAS_clean_linker_0, # of connection points: 2
#     Edge 21, Type (0, 1), BuildingBlock: ZUJKAS_clean_linker_0, # of connection points: 2
#     Edge 22, Type (0, 1), BuildingBlock: ZUJKAS_clean_linker_0, # of connection points: 2
#     Edge 23, Type (0, 1), BuildingBlock: ZUJKAS_clean_linker_0, # of connection points: 2
#     Edge 24, Type (0, 1), BuildingBlock: ZUJKAS_clean_linker_0, # of connection points: 2
#     Edge 25, Type (0, 1), BuildingBlock: ZUJKAS_clean_linker_0, # of connection points: 2
#     Edge 26, Type (0, 1), BuildingBlock: ZUJKAS_clean_linker_0, # of connection points: 2
#     Edge 27, Type (0, 1), BuildingBlock: ZUJKAS_clean_linker_0, # of connection points: 2
#     Edge 28, Type (0, 1), BuildingBlock: ZUJKAS_clean_linker_0, # of connection points: 2
#     Edge 29, Type (0, 1), BuildingBlock: ZUJKAS_clean_linker_0, # of connection points: 2
#     Edge 30, Type (0, 1), BuildingBlock: ZUJKAS_clean_linker_0, # of connection points: 2
#     Edge 31, Type (0, 1), BuildingBlock: ZUJKAS_clean_linker_0, # of connection points: 2
#     Edge 32, Type (0, 1), BuildingBlock: ZUJKAS_clean_linker_0, # of connection points: 2
#     Edge 33, Type (0, 1), BuildingBlock: ZUJKAS_clean_linker_0, # of connection points: 2
#     Edge 34, Type (0, 1), BuildingBlock: ZUJKAS_clean_linker_0, # of connection points: 2
#     Edge 35, Type (0, 1), BuildingBlock: ZUJKAS_clean_linker_0, # of connection points: 2
# Relax obj value: 0.035
# Max RMSD: 0.119
# Mean RMSD: 0.043
data_MOF--net-pry--node1-VOLQOD_clean_sbu_1--node2-ESEHIV_clean_linker_0--edge1-ZUJKAS_clean_linker_0
_symmetry_space_group_name_H-M    P1
_symmetry_Int_Tables_number       1
_symmetry_cell_setting            triclinic
loop_
_symmetry_equiv_pos_as_xyz
'x, y, z'
_cell_length_a     46.025737
_cell_length_b     46.007713
_cell_length_c     46.241316
_cell_angle_alpha  90.08781
_cell_angle_beta   90.020122
_cell_angle_gamma 90.303624
loop_
_atom_site_label
_atom_site_type_symbol
_atom_site_fract_x
_atom_site_fract_y
_atom_site_fract_z
_atom_type_partial_charge
H0 H 0.09378 0.1694 0.16751 0.0
H1 H 0.15772 0.10157 0.16455 0.0
H2 H 0.15431 0.16505 0.09676 0.0
C3 C 0.1114 0.15852 0.15643 0.0
C4 C 0.12232 0.17019 0.1305 0.0
C5 C 0.12397 0.1337 0.16889 0.0
C6 C 0.14771 0.12056 0.15504 0.0
C7 C 0.15908 0.13207 0.12931 0.0
C8 C 0.14603 0.15662 0.11703 0.0
H9 H 0.3625 0.91222 0.66343 0.0
H10 H 0.43069 0.84877 0.66236 0.0
H11 H 0.36208 0.84456 0.59921 0.0
C12 C 0.37256 0.89334 0.65369 0.0
C13 C 0.35946 0.88001 0.62963 0.0
C14 C 0.39813 0.88211 0.66574 0.0
C15 C 0.4108 0.85738 0.65329 0.0
C16 C 0.39815 0.84388 0.62904 0.0
C17 C 0.37255 0.85545 0.61726 0.0
H18 H 0.64811 0.37014 0.93193 0.0
H19 H 0.65019 0.43034 0.86096 0.0
H20 H 0.58354 0.36472 0.86481 0.0
C21 C 0.63894 0.37809 0.91188 0.0
C22 C 0.614 0.36467 0.9003 0.0
C23 C 0.65221 0.40172 0.89779 0.0
C24 C 0.6399 0.41233 0.87213 0.0
C25 C 0.61491 0.39931 0.86028 0.0
C26 C 0.60206 0.37558 0.87455 0.0
H27 H 0.86388 0.64084 0.43211 0.0
H28 H 0.9308 0.64215 0.36742 0.0
H29 H 0.86368 0.57678 0.36434 0.0
C30 C 0.87392 0.63134 0.41315 0.0
C31 C 0.86136 0.60665 0.40019 0.0
C32 C 0.89871 0.64449 0.40116 0.0
C33 C 0.91136 0.63229 0.37638 0.0
C34 C 0.89901 0.60777 0.36292 0.0
C35 C 0.8741 0.59496 0.37515 0.0
H36 H 0.87988 0.9569 0.89293 0.0
H37 H 0.94812 0.89346 0.89283 0.0
H38 H 0.88834 0.89734 0.96398 0.0
C39 C 0.8918 0.93988 0.90384 0.0
C40 C 0.88159 0.92918 0.93045 0.0
C41 C 0.91585 0.9272 0.8901 0.0
C42 C 0.92997 0.90381 0.90355 0.0
C43 C 0.91983 0.89257 0.9299 0.0
C44 C 0.89604 0.90579 0.94348 0.0
H45 H 0.56112 0.11552 0.39426 0.0
H46 H 0.62813 0.05111 0.38884 0.0
H47 H 0.63148 0.11657 0.4553 0.0
C48 C 0.58063 0.10574 0.40294 0.0
C49 C 0.59445 0.11849 0.4269 0.0
C50 C 0.59274 0.08157 0.38893 0.0
C51 C 0.61845 0.06946 0.39985 0.0
C52 C 0.63268 0.08194 0.42377 0.0
C53 C 0.62032 0.10628 0.43734 0.0
H54 H 0.38999 0.63649 0.06598 0.0
H55 H 0.38341 0.56944 0.13029 0.0
H56 H 0.45661 0.62783 0.13055 0.0
C57 C 0.39909 0.62506 0.08431 0.0
C58 C 0.42511 0.63508 0.09682 0.0
C59 C 0.38402 0.60119 0.09603 0.0
C60 C 0.39558 0.58697 0.12029 0.0
C61 C 0.42162 0.59659 0.13304 0.0
C62 C 0.43641 0.62042 0.12092 0.0
H63 H 0.06459 0.38295 0.63815 0.0
H64 H 0.12486 0.37633 0.56773 0.0
H65 H 0.13197 0.44739 0.62793 0.0
C66 C 0.08285 0.39179 0.62619 0.0
C67 C 0.09657 0.41743 0.63571 0.0
C68 C 0.09292 0.37696 0.60171 0.0
C69 C 0.11659 0.3882 0.58623 0.0
C70 C 0.13078 0.41365 0.59552 0.0
C71 C 0.12035 0.42843 0.62 0.0
O72 O 0.99435 0.0696 0.54233 0.0
Zn73 Zn 0.97895 0.02865 0.54023 0.0
O74 O 0.00486 0.00378 0.51781 0.0
Zn75 Zn 0.98571 0.99222 0.4818 0.0
Zn76 Zn 0.04053 0.02518 0.50906 0.0
Zn77 Zn 0.01416 0.96923 0.54034 0.0
O78 O 0.98343 0.94861 0.47846 0.0
O79 O 0.99911 0.9329 0.52105 0.0
O80 O 0.93902 0.02972 0.52263 0.0
O81 O 0.94435 0.00638 0.48094 0.0
O82 O 0.00658 0.00835 0.4469 0.0
O83 O 0.04482 0.03077 0.46611 0.0
O84 O 0.07599 0.0042 0.52367 0.0
O85 O 0.97478 0.01414 0.58111 0.0
O86 O 0.05741 0.96499 0.54475 0.0
O87 O 0.99736 0.97164 0.58044 0.0
C88 C 0.01934 0.08048 0.5373 0.0
C89 C 0.98841 0.92799 0.4961 0.0
C90 C 0.02983 0.02326 0.44416 0.0
C91 C 0.92867 0.02035 0.49883 0.0
C92 C 0.07921 0.9804 0.53732 0.0
C93 C 0.9828 0.99095 0.59374 0.0
O94 O 0.03965 0.06537 0.52631 0.0
O95 O 0.50099 0.07197 0.98862 0.0
Zn96 Zn 0.48513 0.03111 0.99176 0.0
O97 O 0.5102 0.00707 0.01614 0.0
Zn98 Zn 0.52754 0.97618 0.99291 0.0
Zn99 Zn 0.54106 0.0311 0.03296 0.0
Zn100 Zn 0.48705 0.98969 0.04705 0.0
O101 O 0.51687 0.93655 0.00829 0.0
O102 O 0.48608 0.94609 0.04394 0.0
O103 O 0.48167 0.01428 0.95153 0.0
O104 O 0.51281 0.97758 0.95206 0.0
O105 O 0.57114 0.97954 0.99197 0.0
O106 O 0.58055 0.01685 0.02103 0.0
O107 O 0.53952 0.03058 0.07652 0.0
O108 O 0.44484 0.03406 0.00861 0.0
O109 O 0.50342 -0.0001 0.08607 0.0
O110 O 0.44607 0.00456 0.0465 0.0
C111 C 0.52184 0.08533 0.0011 0.0
C112 C 0.49958 0.928 0.02806 0.0
C113 C 0.58915 0.99654 0.00443 0.0
C114 C 0.4944 0.99328 0.93884 0.0
C115 C 0.52378 0.0167 0.09454 0.0
C116 C 0.43249 0.02222 0.03028 0.0
O117 O 0.53833 0.07243 0.01904 0.0
O118 O 0.52951 0.49758 0.56332 0.0
Zn119 Zn 0.52635 0.51442 0.52325 0.0
O120 O 0.50085 0.49058 0.4988 0.0
Zn121 Zn 0.52313 0.47433 0.46663 0.0
Zn122 Zn 0.48419 0.45892 0.52174 0.0
Zn123 Zn 0.46957 0.51469 0.48356 0.0
O124 O 0.50652 0.48649 0.42817 0.0
O125 O 0.47079 0.51642 0.44009 0.0
O126 O 0.56668 0.51712 0.50642 0.0
O127 O 0.56452 0.48865 0.46766 0.0
O128 O 0.52374 0.43054 0.46816 0.0
O129 O 0.49605 0.41998 0.50603 0.0
O130 O 0.44045 0.46037 0.52192 0.0
O131 O 0.51082 0.55512 0.52759 0.0
O132 O 0.43041 0.49899 0.49507 0.0
O133 O 0.47189 0.55539 0.49929 0.0
C134 C 0.51678 0.47657 0.5761 0.0
C135 C 0.48617 0.50372 0.42103 0.0
C136 C 0.51191 0.41201 0.48494 0.0
C137 C 0.57866 0.50557 0.48442 0.0
C138 C 0.42217 0.47748 0.51034 0.0
C139 C 0.48912 0.56825 0.51672 0.0
O140 O 0.49845 0.46051 0.56289 0.0
O141 O 0.98148 0.50986 0.06374 0.0
Zn142 Zn 0.98626 0.49487 0.02312 0.0
O143 O 0.01189 0.52021 0.00054 0.0
Zn144 Zn 0.99011 0.53675 0.96818 0.0
Zn145 Zn 0.02661 0.55159 0.02517 0.0
Zn146 Zn 0.04464 0.49764 0.98581 0.0
O147 O 0.00823 0.52573 0.9301 0.0
O148 O 0.04482 0.49695 0.94226 0.0
O149 O 0.94653 0.49189 0.00509 0.0
O150 O 0.94886 0.52169 0.96745 0.0
O151 O 0.98902 0.58051 0.97056 0.0
O152 O 0.01545 0.59068 0.00948 0.0
O153 O 0.07025 0.55075 0.0281 0.0
O154 O 0.0026 0.45454 0.02628 0.0
O155 O 0.08285 0.51459 0.99897 0.0
O156 O 0.04329 0.45643 0.0006 0.0
C157 C 0.99237 0.53133 0.07745 0.0
C158 C 0.02945 0.50951 0.92311 0.0
C159 C 0.00032 0.59887 0.98796 0.0
C160 C 0.93476 0.50388 0.98325 0.0
C161 C 0.08966 0.53522 0.01611 0.0
C162 C 0.02539 0.44249 0.01644 0.0
O163 O 0.01005 0.54886 0.06533 0.0
H164 H 0.06735 0.12786 0.18667 0.0
H165 H 0.04963 0.10866 0.23286 0.0
H166 H 0.13779 0.09343 0.26017 0.0
H167 H 0.15577 0.11321 0.21452 0.0
H168 H 0.09625 0.04478 0.26743 0.0
H169 H 0.05904 0.14991 0.31392 0.0
H170 H 0.04713 0.14135 0.27781 0.0
H171 H 0.08495 0.14803 0.28465 0.0
C172 C 0.08299 0.12072 0.20263 0.0
C173 C 0.11299 0.12203 0.19684 0.0
C174 C 0.07281 0.10969 0.22893 0.0
C175 C 0.09245 0.09978 0.24987 0.0
C176 C 0.12233 0.10091 0.24418 0.0
H177 H 0.07434 0.06045 0.43073 0.0
H178 H 0.08867 0.07789 0.38292 0.0
C179 C 0.13253 0.11206 0.21801 0.0
C180 C 0.08196 0.08804 0.27774 0.0
H181 H 0.0505 0.10769 0.34164 0.0
C182 C 0.08611 0.05844 0.28364 0.0
C183 C 0.06901 0.10608 0.29882 0.0
C184 C 0.06486 0.13817 0.29374 0.0
C185 C 0.07759 0.04636 0.31019 0.0
C186 C 0.06453 0.06437 0.33122 0.0
C187 C 0.06039 0.09397 0.32532 0.0
C188 C 0.05595 0.05312 0.35992 0.0
C189 C 0.08319 0.0146 0.31589 0.0
C190 C 0.03276 0.03344 0.36273 0.0
C191 C 0.0244 0.02344 0.39006 0.0
C192 C 0.03917 0.03296 0.41504 0.0
C193 C 0.06254 0.05256 0.412 0.0
C194 C 0.07074 0.06265 0.38471 0.0
H195 H 0.09788 0.00491 0.29947 0.0
H196 H 0.09292 0.01162 0.33766 0.0
H197 H 0.06226 0.00251 0.31538 0.0
H198 H 0.02091 0.02609 0.34382 0.0
H199 H 0.00628 0.00842 0.39161 0.0
H200 H 0.41729 0.85459 0.71434 0.0
H201 H 0.43523 0.87688 0.75909 0.0
H202 H 0.42484 0.96202 0.72178 0.0
H203 H 0.40714 0.93988 0.67677 0.0
H204 H 0.48023 0.95056 0.75321 0.0
H205 H 0.37999 0.92376 0.81504 0.0
H206 H 0.39607 0.8942 0.79533 0.0
H207 H 0.38099 0.92437 0.77599 0.0
C208 C 0.4192 0.87804 0.71553 0.0
C209 C 0.41073 0.89552 0.69212 0.0
C210 C 0.42922 0.89071 0.74114 0.0
C211 C 0.43101 0.92104 0.74373 0.0
C212 C 0.42343 0.93856 0.72016 0.0
H213 H 0.45055 0.01593 0.90583 0.0
H214 H 0.43603 0.00108 0.85703 0.0
C215 C 0.41322 0.92591 0.69458 0.0
C216 C 0.4402 0.93445 0.77131 0.0
H217 H 0.41968 0.94294 0.8417 0.0
C218 C 0.467 0.94905 0.77256 0.0
C219 C 0.42263 0.9327 0.79631 0.0
C220 C 0.39319 0.91813 0.79574 0.0
C221 C 0.4771 0.9613 0.79854 0.0
C222 C 0.45995 0.95869 0.82377 0.0
C223 C 0.43279 0.94478 0.82229 0.0
C224 C 0.47015 0.96929 0.85224 0.0
C225 C 0.50596 0.97697 0.79883 0.0
C226 C 0.49415 0.95632 0.86558 0.0
C227 C 0.50243 0.96462 0.89345 0.0
C228 C 0.48681 0.98605 0.90854 0.0
C229 C 0.4631 -0.00057 0.89482 0.0
C230 C 0.45475 0.99097 0.86697 0.0
H231 H 0.51295 0.98327 0.7767 0.0
H232 H 0.50495 0.99679 0.81252 0.0
H233 H 0.52273 0.96242 0.80804 0.0
H234 H 0.50601 0.93921 0.85472 0.0
H235 H 0.52078 0.95385 0.90334 0.0
H236 H 0.55805 0.4081 0.84541 0.0
H237 H 0.53882 0.42195 0.79794 0.0
H238 H 0.62603 0.4271 0.76424 0.0
H239 H 0.64538 0.41275 0.81134 0.0
H240 H 0.55169 0.47307 0.7635 0.0
H241 H 0.58246 0.36983 0.70939 0.0
H242 H 0.5807 0.37354 0.74823 0.0
H243 H 0.61142 0.38763 0.7287 0.0
C244 C 0.57309 0.41212 0.82785 0.0
C245 C 0.60321 0.40927 0.83208 0.0
C246 C 0.5621 0.42016 0.80084 0.0
C247 C 0.58102 0.42519 0.77759 0.0
C248 C 0.61109 0.42296 0.78188 0.0
H249 H 0.55391 0.50653 0.61177 0.0
H250 H 0.56739 0.49459 0.66144 0.0
C251 C 0.6221 0.41504 0.80886 0.0
C252 C 0.56939 0.43246 0.7487 0.0
H253 H 0.56594 0.40792 0.6791 0.0
C254 C 0.55465 0.45882 0.74504 0.0
C255 C 0.57298 0.41359 0.72483 0.0
C256 C 0.58752 0.38443 0.7279 0.0
C257 C 0.54405 0.46717 0.71783 0.0
C258 C 0.5486 0.44877 0.69374 0.0
C259 C 0.56268 0.42208 0.6976 0.0
C260 C 0.53928 0.45686 0.66421 0.0
C261 C 0.5279 0.49548 0.71509 0.0
C262 C 0.51929 0.43937 0.64919 0.0
C263 C 0.5116 0.44603 0.62074 0.0
C264 C 0.52398 0.47021 0.60668 0.0
C265 C 0.54389 0.4878 0.62192 0.0
C266 C 0.5515 0.48113 0.65039 0.0
H267 H 0.5198 0.50324 0.73637 0.0
H268 H 0.5428 0.51231 0.70629 0.0
H269 H 0.5092 0.49323 0.70006 0.0
H270 H 0.50976 0.42043 0.65945 0.0
H271 H 0.49625 0.43198 0.60967 0.0
H272 H 0.90439 0.5511 0.34477 0.0
H273 H 0.92186 0.53379 0.29772 0.0
H274 H 0.93846 0.62212 0.27139 0.0
H275 H 0.92009 0.63977 0.31764 0.0
H276 H 0.89749 0.55793 0.23884 0.0
H277 H 0.01629 0.57082 0.25784 0.0
H278 H 0.99074 0.56479 0.28694 0.0
H279 H 0.99299 0.59973 0.26993 0.0
C280 C 0.91163 0.56686 0.32893 0.0
C281 C 0.91094 0.59684 0.33509 0.0
C282 C 0.92175 0.55691 0.30219 0.0
C283 C 0.93164 0.57673 0.28138 0.0
C284 C 0.93124 0.60654 0.28744 0.0
H285 H 0.00236 0.57977 0.11034 0.0
H286 H 0.98733 0.58843 0.16024 0.0
C287 C 0.92091 0.61653 0.31398 0.0
C288 C 0.94128 0.56661 0.25269 0.0
H289 H 0.00128 0.56071 0.20991 0.0
C290 C 0.92018 0.55815 0.23248 0.0
C291 C 0.97085 0.56728 0.24466 0.0
C292 C 0.99418 0.57597 0.26594 0.0
C293 C 0.92781 0.55126 0.20391 0.0
C294 C 0.95745 0.55215 0.19571 0.0
C295 C 0.97859 0.56001 0.21624 0.0
C296 C 0.96689 0.54631 0.16564 0.0
C297 C 0.90394 0.54439 0.18253 0.0
C298 C 0.96074 0.51958 0.15225 0.0
C299 C 0.96902 0.51467 0.12358 0.0
C300 C 0.98403 0.53624 0.10797 0.0
C301 C 0.99081 0.5627 0.12173 0.0
C302 C 0.98226 0.56768 0.15026 0.0
H303 H 0.88245 0.55207 0.19024 0.0
H304 H 0.90848 0.55447 0.16119 0.0
H305 H 0.90249 0.5205 0.1795 0.0
H306 H 0.94955 0.50251 0.16395 0.0
H307 H 0.96376 0.49393 0.11373 0.0
H308 H 0.2063 0.16101 0.10806 0.0
H309 H 0.25081 0.14032 0.08809 0.0
H310 H 0.21675 0.0539 0.10161 0.0
H311 H 0.17177 0.07447 0.12106 0.0
H312 H 0.28845 0.1025 0.11817 0.0
H313 H 0.24617 0.05273 0.01682 0.0
H314 H 0.22654 0.08022 0.03662 0.0
H315 H 0.22672 0.04333 0.04923 0.0
C316 C 0.20804 0.13761 0.10629 0.0
C317 C 0.18548 0.11936 0.11601 0.0
C318 C 0.23354 0.12584 0.09504 0.0
C319 C 0.2369 0.09563 0.09312 0.0
C320 C 0.21437 0.0773 0.10253 0.0
H321 H 0.40033 0.00407 0.07671 0.0
H322 H 0.35213 0.02066 0.09117 0.0
C323 C 0.18884 0.08906 0.11388 0.0
C324 C 0.26468 0.08343 0.08274 0.0
H325 H 0.29513 0.04254 0.02914 0.0
C326 C 0.28994 0.0894 0.09871 0.0
C327 C 0.26649 0.06657 0.05722 0.0
C328 C 0.24012 0.06046 0.03877 0.0
C329 C 0.31702 0.07872 0.08996 0.0
C330 C 0.31876 0.06137 0.06478 0.0
C331 C 0.29358 0.05564 0.04859 0.0
C332 C 0.34679 0.04953 0.05471 0.0
C333 C 0.34365 0.08647 0.10747 0.0
C334 C 0.35927 0.05963 0.02894 0.0
C335 C 0.38683 0.05021 0.02055 0.0
C336 C 0.4023 0.03037 0.03775 0.0
C337 C 0.38914 0.01947 0.06301 0.0
C338 C 0.36164 0.02897 0.07139 0.0
H339 H 0.33957 0.10488 0.12249 0.0
H340 H 0.35021 0.06739 0.12054 0.0
H341 H 0.36208 0.09233 0.09309 0.0
H342 H 0.34803 0.07545 0.01575 0.0
H343 H 0.39623 0.05894 0.00091 0.0
H344 H 0.31193 0.89648 0.66076 0.0
H345 H 0.26545 0.91406 0.64244 0.0
H346 H 0.29674 0.90571 0.55493 0.0
H347 H 0.34345 0.88804 0.57314 0.0
H348 H 0.25393 0.96234 0.60873 0.0
H349 H 0.21993 0.86046 0.55327 0.0
H350 H 0.24956 0.86174 0.57883 0.0
H351 H 0.25479 0.8744 0.54245 0.0
C352 C 0.30902 0.89859 0.63761 0.0
C353 C 0.33136 0.89092 0.61837 0.0
C354 C 0.28241 0.90851 0.62719 0.0
C355 C 0.27755 0.91085 0.59734 0.0
C356 C 0.29987 0.9035 0.57803 0.0
H357 H 0.13134 0.00577 0.52309 0.0
H358 H 0.18004 0.98939 0.5363 0.0
C359 C 0.32652 0.89346 0.58845 0.0
C360 C 0.24915 0.92135 0.58666 0.0
H361 H 0.18954 0.90134 0.54729 0.0
C362 C 0.23986 0.94906 0.59523 0.0
C363 C 0.23076 0.9038 0.56933 0.0
C364 C 0.23906 0.87334 0.56059 0.0
C365 C 0.21258 0.95972 0.58699 0.0
C366 C 0.19437 0.94236 0.56928 0.0
C367 C 0.20369 0.91467 0.56066 0.0
C368 C 0.16503 0.95202 0.56053 0.0
C369 C 0.20314 0.98908 0.59804 0.0
C370 C 0.14052 0.936 0.56914 0.0
C371 C 0.11269 0.94515 0.56147 0.0
C372 C 0.10882 0.9705 0.54496 0.0
C373 C 0.1335 0.98628 0.536 0.0
C374 C 0.16135 0.97703 0.54363 0.0
H375 H 0.21647 0.99639 0.61676 0.0
H376 H 0.20565 0.00537 0.58054 0.0
H377 H 0.17995 0.98862 0.60465 0.0
H378 H 0.14292 0.91657 0.58212 0.0
H379 H 0.09422 0.93242 0.5687 0.0
H380 H 0.69949 0.37232 0.91767 0.0
H381 H 0.74598 0.39251 0.93385 0.0
H382 H 0.7146 0.47921 0.91815 0.0
H383 H 0.66769 0.45919 0.90244 0.0
H384 H 0.78334 0.42837 0.89967 0.0
H385 H 0.74869 0.4826 0.00148 0.0
H386 H 0.72712 0.45476 0.98398 0.0
H387 H 0.7278 0.49103 0.96973 0.0
C388 C 0.70227 0.39571 0.91815 0.0
C389 C 0.67987 0.41418 0.90892 0.0
C390 C 0.7289 0.40718 0.92721 0.0
C391 C 0.73359 0.43732 0.92742 0.0
C392 C 0.71124 0.45589 0.91849 0.0
H393 H 0.90347 0.52179 0.93612 0.0
H394 H 0.85413 0.50723 0.92252 0.0
C395 C 0.68458 0.44442 0.90931 0.0
C396 C 0.76237 0.44909 0.93578 0.0
H397 H 0.79749 0.48978 0.98691 0.0
C398 C 0.78647 0.44186 0.91869 0.0
C399 C 0.76629 0.46648 0.96071 0.0
C400 C 0.7412 0.47408 0.98024 0.0
C401 C 0.81448 0.45159 0.92589 0.0
C402 C 0.81839 0.46924 0.95066 0.0
C403 C 0.79431 0.47643 0.9678 0.0
C404 C 0.84756 0.47945 0.95966 0.0
C405 C 0.83979 0.44238 0.90732 0.0
C406 C 0.85984 0.46921 0.98543 0.0
C407 C 0.88801 0.47746 0.9933 0.0
C408 C 0.90436 0.49629 0.97562 0.0
C409 C 0.89159 0.50716 0.95019 0.0
C410 C 0.86344 0.4988 0.94231 0.0
H411 H 0.83394 0.42411 0.89266 0.0
H412 H 0.84694 0.46101 0.89384 0.0
H413 H 0.85844 0.43568 0.92097 0.0
H414 H 0.84784 0.45431 0.99914 0.0
H415 H 0.89707 0.46879 0.01309 0.0
H416 H 0.84698 0.54932 0.4077 0.0
H417 H 0.80003 0.52922 0.42319 0.0
H418 H 0.76662 0.61598 0.43361 0.0
H419 H 0.81314 0.63622 0.41767 0.0
H420 H 0.76737 0.53985 0.47626 0.0
H421 H 0.70947 0.57451 0.37676 0.0
H422 H 0.74859 0.57261 0.37892 0.0
H423 H 0.72969 0.60278 0.39473 0.0
C424 C 0.8296 0.56408 0.41329 0.0
C425 C 0.83372 0.59434 0.41141 0.0
C426 C 0.80291 0.55259 0.42225 0.0
C427 C 0.77986 0.57115 0.42919 0.0
C428 C 0.7841 0.60133 0.42803 0.0
H429 H 0.61599 0.54074 0.51485 0.0
H430 H 0.66576 0.55428 0.50205 0.0
C431 C 0.81077 0.61284 0.41919 0.0
C432 C 0.75112 0.55908 0.43708 0.0
H433 H 0.68039 0.55641 0.41513 0.0
C434 C 0.74833 0.5433 0.46288 0.0
C435 C 0.72651 0.56333 0.41932 0.0
C436 C 0.72861 0.579 0.39075 0.0
C437 C 0.72126 0.53231 0.47181 0.0
C438 C 0.69645 0.53753 0.45456 0.0
C439 C 0.69944 0.55264 0.4284 0.0
C440 C 0.66703 0.52787 0.46333 0.0
C441 C 0.71946 0.51506 0.49946 0.0
C442 C 0.65115 0.50879 0.44561 0.0
C443 C 0.62265 0.5011 0.45275 0.0
C444 C 0.60939 0.51256 0.47767 0.0
C445 C 0.62552 0.53145 0.49556 0.0
C446 C 0.65405 0.53908 0.48839 0.0
H447 H 0.74105 0.50663 0.50605 0.0
H448 H 0.71136 0.5293 0.51706 0.0
H449 H 0.70414 0.49647 0.49715 0.0
H450 H 0.66076 0.50004 0.42608 0.0
H451 H 0.6109 0.48652 0.43847 0.0
H452 H 0.06482 0.18571 0.12726 0.0
H453 H 0.04451 0.2301 0.10625 0.0
H454 H 0.13067 0.25933 0.0837 0.0
H455 H 0.15128 0.21571 0.10537 0.0
H456 H 0.06236 0.29149 0.12216 0.0
H457 H 0.08008 0.26219 0.00682 0.0
H458 H 0.07789 0.23531 0.03521 0.0
H459 H 0.11034 0.25665 0.03081 0.0
C460 C 0.07948 0.20169 0.11805 0.0
C461 C 0.10969 0.19701 0.11783 0.0
C462 C 0.06781 0.2269 0.10591 0.0
C463 C 0.08611 0.24766 0.09311 0.0
C464 C 0.1162 0.24325 0.09305 0.0
H465 H 0.07631 0.41304 0.00881 0.0
H466 H 0.08866 0.36485 0.02702 0.0
C467 C 0.12789 0.21823 0.10534 0.0
C468 C 0.07403 0.27446 0.08045 0.0
H469 H 0.06638 0.31082 0.01667 0.0
C470 C 0.06288 0.29569 0.09908 0.0
C471 C 0.07501 0.27975 0.05038 0.0
C472 C 0.08627 0.25724 0.02951 0.0
C473 C 0.0536 0.32268 0.08851 0.0
C474 C 0.05481 0.32815 0.05839 0.0
C475 C 0.06543 0.30658 0.03972 0.0
C476 C 0.04644 0.35659 0.04598 0.0
C477 C 0.04379 0.34548 0.10984 0.0
C478 C 0.01835 0.36762 0.04992 0.0
C479 C 0.01128 0.39528 0.03976 0.0
C480 C 0.03206 0.41226 0.02508 0.0
C481 C 0.05979 0.40059 0.02006 0.0
C482 C 0.0669 0.37304 0.03046 0.0
H483 H 0.05122 0.34059 0.13216 0.0
H484 H 0.05205 0.36734 0.10369 0.0
H485 H 0.0197 0.3462 0.11005 0.0
H486 H 0.00199 0.35497 0.06116 0.0
H487 H 0.98962 0.40348 0.04371 0.0
H488 H 0.64318 0.31911 0.92465 0.0
H489 H 0.6227 0.27449 0.94495 0.0
H490 H 0.53626 0.30473 0.92635 0.0
H491 H 0.55643 0.35003 0.90676 0.0
H492 H 0.57086 0.27067 0.99207 0.0
H493 H 0.55384 0.22096 0.88324 0.0
H494 H 0.58168 0.2481 0.88941 0.0
H495 H 0.54421 0.25844 0.8892 0.0
C496 C 0.61979 0.31664 0.92539 0.0
C497 C 0.60145 0.33822 0.91406 0.0
C498 C 0.60817 0.29104 0.93685 0.0
C499 C 0.57807 0.28643 0.93699 0.0
C500 C 0.55959 0.30798 0.92626 0.0
H501 H 0.4879 0.12233 0.96945 0.0
H502 H 0.49876 0.17263 0.95603 0.0
C503 C 0.57117 0.33372 0.91494 0.0
C504 C 0.5662 0.25848 0.94738 0.0
H505 H 0.54292 0.19213 0.92368 0.0
C506 C 0.56452 0.2535 0.97722 0.0
C507 C 0.55781 0.23639 0.92784 0.0
C508 C 0.55944 0.24096 0.89558 0.0
C509 C 0.55489 0.22665 0.98811 0.0
C510 C 0.54756 0.20405 0.96854 0.0
C511 C 0.54859 0.20941 0.93866 0.0
C512 C 0.54003 0.17429 0.97844 0.0
C513 C 0.55246 0.22289 0.02042 0.0
C514 C 0.55965 0.15848 0.99542 0.0
C515 C 0.55343 0.12982 0.0033 0.0
C516 C 0.52764 0.11621 0.99396 0.0
C517 C 0.50797 0.13213 0.977 0.0
C518 C 0.51412 0.16089 0.96932 0.0
H519 H 0.54936 0.2441 0.03149 0.0
H520 H 0.5341 0.20826 0.0262 0.0
H521 H 0.57286 0.21326 0.02877 0.0
H522 H 0.58016 0.16804 0.00202 0.0
H523 H 0.56919 0.11815 0.01616 0.0
H524 H 0.91412 0.69306 0.37122 0.0
H525 H 0.93087 0.73969 0.39062 0.0
H526 H 0.92496 0.70578 0.47729 0.0
H527 H 0.90836 0.65874 0.458 0.0
H528 H 0.89681 0.77351 0.43522 0.0
H529 H 0.00947 0.74403 0.46778 0.0
H530 H 0.98981 0.7241 0.44026 0.0
H531 H 0.98014 0.71987 0.47756 0.0
C532 C 0.91682 0.69535 0.39439 0.0
C533 C 0.9101 0.67222 0.41311 0.0
C534 C 0.92622 0.72202 0.40541 0.0
C535 C 0.9293 0.72598 0.4353 0.0
C536 C 0.92292 0.70294 0.45412 0.0
H537 H 0.98843 0.87935 0.53024 0.0
H538 H 0.97348 0.83006 0.51674 0.0
C539 C 0.91331 0.67623 0.4431 0.0
C540 C 0.93797 0.75476 0.44661 0.0
H541 H 0.99489 0.79234 0.47599 0.0
C542 C 0.9182 0.77769 0.44425 0.0
C543 C 0.96577 0.75987 0.45855 0.0
C544 C 0.98772 0.7358 0.46118 0.0
C545 C 0.92558 0.80584 0.45338 0.0
C546 C 0.95379 0.81127 0.4644 0.0
C547 C 0.97335 0.78813 0.46737 0.0
C548 C 0.96355 0.84095 0.47234 0.0
C549 C 0.90297 0.8294 0.4514 0.0
C550 C 0.96353 0.86324 0.45167 0.0
C551 C 0.97186 0.89144 0.45931 0.0
C552 C 0.98076 0.89782 0.48773 0.0
C553 C 0.98162 0.87521 0.50818 0.0
C554 C 0.97309 0.84703 0.50053 0.0
H555 H 0.88061 0.82016 0.45099 0.0
H556 H 0.90471 0.84477 0.46987 0.0
H557 H 0.90623 0.84178 0.43108 0.0
H558 H 0.95697 0.85884 0.42959 0.0
H559 H 0.97123 0.90823 0.44294 0.0
H560 H 0.41889 0.79689 0.65847 0.0
H561 H 0.43808 0.7517 0.63833 0.0
H562 H 0.42439 0.78424 0.55202 0.0
H563 H 0.40575 0.82982 0.57199 0.0
H564 H 0.40722 0.71354 0.60152 0.0
H565 H 0.50887 0.75389 0.55033 0.0
H566 H 0.48952 0.77432 0.57751 0.0
H567 H 0.47663 0.77358 0.54085 0.0
C568 C 0.42046 0.79465 0.6352 0.0
C569 C 0.41091 0.81696 0.6168 0.0
C570 C 0.43127 0.76877 0.62375 0.0
C571 C 0.43295 0.7648 0.59372 0.0
C572 C 0.4237 0.78709 0.57526 0.0
H573 H 0.44286 0.6018 0.50087 0.0
H574 H 0.43028 0.65005 0.51891 0.0
C575 C 0.41279 0.81297 0.58669 0.0
C576 C 0.44281 0.73668 0.58178 0.0
H577 H 0.49493 0.70518 0.53973 0.0
C578 C 0.42643 0.71168 0.58808 0.0
C579 C 0.46802 0.73436 0.56448 0.0
C580 C 0.48698 0.76039 0.55803 0.0
C581 C 0.43434 0.68442 0.57713 0.0
C582 C 0.45909 0.68221 0.55918 0.0
C583 C 0.4758 0.70709 0.55328 0.0
C584 C 0.46796 0.65406 0.54661 0.0
C585 C 0.41633 0.65811 0.58508 0.0
C586 C 0.4938 0.64081 0.55557 0.0
C587 C 0.50112 0.6132 0.54531 0.0
C588 C 0.48276 0.59847 0.52576 0.0
C589 C 0.45743 0.6124 0.51602 0.0
C590 C 0.45013 0.63994 0.52636 0.0
H591 H 0.40201 0.66241 0.60393 0.0
H592 H 0.40238 0.65195 0.56646 0.0
H593 H 0.43048 0.63932 0.59021 0.0
H594 H 0.50788 0.65149 0.57112 0.0
H595 H 0.52084 0.60319 0.55317 0.0
H596 H 0.93133 0.89252 0.84465 0.0
H597 H 0.94335 0.90715 0.79548 0.0
H598 H 0.92941 0.99695 0.81823 0.0
H599 H 0.9187 0.9826 0.8681 0.0
H600 H 0.90774 0.93461 0.75749 0.0
H601 H 0.00717 0.00096 0.77679 0.0
H602 H 0.99203 0.97713 0.80392 0.0
H603 H 0.97595 0.01199 0.79726 0.0
C604 C 0.93154 0.91547 0.8395 0.0
C605 C 0.92436 0.93642 0.86047 0.0
C606 C 0.93813 0.92376 0.81125 0.0
C607 C 0.93761 0.95314 0.80327 0.0
C608 C 0.9305 0.97419 0.82406 0.0
H609 H 0.95953 0.03026 0.63172 0.0
H610 H 0.9475 0.0225 0.68275 0.0
C611 C 0.92407 0.96593 0.85246 0.0
C612 C 0.94319 0.96129 0.77278 0.0
H613 H 0.98893 -0.00015 0.72889 0.0
C614 C 0.92548 0.9489 0.75126 0.0
C615 C 0.96628 0.98003 0.76473 0.0
C616 C 0.98664 0.99314 0.78682 0.0
C617 C 0.93043 0.95448 0.72188 0.0
C618 C 0.95374 0.97281 0.71385 0.0
C619 C 0.97105 0.98581 0.73528 0.0
C620 C 0.9612 0.97764 0.68318 0.0
C621 C 0.91078 0.9407 0.69956 0.0
C622 C 0.97309 0.95499 0.66678 0.0
C623 C 0.98012 0.95933 0.63774 0.0
C624 C 0.97527 0.9864 0.62455 0.0
C625 C 0.9634 0.0091 0.64116 0.0
C626 C 0.95659 0.00477 0.67031 0.0
H627 H 0.89053 0.9319 0.70935 0.0
H628 H 0.9049 0.95671 0.68261 0.0
H629 H 0.9224 0.92253 0.6889 0.0
H630 H 0.97699 0.93396 0.67651 0.0
H631 H 0.98924 0.94139 0.62562 0.0
H632 H 0.58523 0.02528 0.37031 0.0
H633 H 0.5699 0.00903 0.32205 0.0
H634 H 0.55812 0.09821 0.29621 0.0
H635 H 0.5736 0.11459 0.34396 0.0
H636 H 0.51295 0.06022 0.27809 0.0
H637 H 0.62304 0.01895 0.25056 0.0
H638 H 0.60676 0.0045 0.28287 0.0
H639 H 0.61656 0.04229 0.28127 0.0
C640 C 0.57924 0.04138 0.35434 0.0
C641 C 0.58064 0.07121 0.36096 0.0
C642 C 0.57051 0.03207 0.32685 0.0
C643 C 0.56322 0.05247 0.30555 0.0
C644 C 0.5636 0.08215 0.3124 0.0
H645 H 0.56457 0.05117 0.12097 0.0
H646 H 0.57274 0.0575 0.17281 0.0
C647 C 0.5723 0.09145 0.33979 0.0
C648 C 0.55639 0.04334 0.27562 0.0
H649 H 0.58707 0.01523 0.21456 0.0
C650 C 0.529 0.0501 0.26423 0.0
C651 C 0.5776 0.0305 0.25761 0.0
C652 C 0.60774 0.02378 0.2685 0.0
C653 C 0.52237 0.04481 0.23506 0.0
C654 C 0.54363 0.0321 0.21702 0.0
C655 C 0.57083 0.02486 0.22855 0.0
C656 C 0.53866 0.02766 0.18572 0.0
C657 C 0.49312 0.0539 0.22352 0.0
C658 C 0.517 0.00854 0.17588 0.0
C659 C 0.51219 0.00491 0.14625 0.0
C660 C 0.52911 0.02025 0.12594 0.0
C661 C 0.55109 0.03908 0.13596 0.0
C662 C 0.55584 0.04269 0.16558 0.0
H663 H 0.4817 0.06878 0.23861 0.0
H664 H 0.49547 0.06488 0.20228 0.0
H665 H 0.4793 0.03432 0.22038 0.0
H666 H 0.50385 0.99637 0.1911 0.0
H667 H 0.49519 0.99009 0.1393 0.0
H668 H 0.42376 0.5388 0.14747 0.0
H669 H 0.43739 0.51783 0.19426 0.0
H670 H 0.45592 0.60366 0.22728 0.0
H671 H 0.44229 0.62473 0.18086 0.0
H672 H 0.49798 0.56229 0.24206 0.0
H673 H 0.38585 0.5239 0.26665 0.0
H674 H 0.40104 0.51115 0.23318 0.0
H675 H 0.39361 0.54916 0.23781 0.0
C676 C 0.43078 0.55316 0.16472 0.0
C677 C 0.43191 0.58343 0.16048 0.0
C678 C 0.43852 0.54117 0.1914 0.0
C679 C 0.44729 0.55925 0.2143 0.0
C680 C 0.44923 0.58934 0.20986 0.0
H681 H 0.44613 0.54067 0.39779 0.0
H682 H 0.43796 0.55148 0.34679 0.0
C683 C 0.44157 0.60133 0.18325 0.0
C684 C 0.45366 0.54721 0.24327 0.0
H685 H 0.42186 0.51449 0.30152 0.0
C686 C 0.48146 0.5516 0.25502 0.0
C687 C 0.4319 0.53357 0.26014 0.0
C688 C 0.40133 0.5293 0.24901 0.0
C689 C 0.48797 0.54316 0.28344 0.0
C690 C 0.46618 0.5296 0.30034 0.0
C691 C 0.43854 0.52474 0.2884 0.0
C692 C 0.47098 0.52213 0.3311 0.0
C693 C 0.51773 0.54988 0.29552 0.0
C694 C 0.49202 0.50172 0.33914 0.0
C695 C 0.49687 0.49554 0.36835 0.0
C696 C 0.48059 0.50954 0.39001 0.0
C697 C 0.45913 0.52954 0.38174 0.0
C698 C 0.45437 0.53572 0.35258 0.0
H699 H 0.52978 0.56577 0.28192 0.0
H700 H 0.51611 0.55871 0.31782 0.0
H701 H 0.53059 0.52957 0.29642 0.0
H702 H 0.50471 0.49061 0.32284 0.0
H703 H 0.51343 0.47989 0.37392 0.0
H704 H 0.09121 0.47554 0.64835 0.0
H705 H 0.07823 0.49739 0.69504 0.0
H706 H 0.06938 0.41193 0.73225 0.0
H707 H 0.08262 0.39001 0.68612 0.0
H708 H 0.02271 0.45064 0.74479 0.0
H709 H 0.13165 0.4987 0.76767 0.0
H710 H 0.11528 0.50764 0.73351 0.0
H711 H 0.12613 0.47093 0.74056 0.0
C712 C 0.08659 0.46145 0.66654 0.0
C713 C 0.0878 0.43105 0.66348 0.0
C714 C 0.07919 0.47395 0.69314 0.0
C715 C 0.07304 0.45623 0.71706 0.0
C716 C 0.07393 0.42595 0.71398 0.0
H717 H 0.07209 0.47545 0.89992 0.0
H718 H 0.08163 0.46594 0.84884 0.0
C719 C 0.08134 0.41347 0.68753 0.0
C720 C 0.06586 0.46884 0.74559 0.0
H721 H 0.09557 0.50469 0.80321 0.0
C722 C 0.03847 0.46276 0.75749 0.0
C723 C 0.08665 0.48439 0.76206 0.0
C724 C 0.11668 0.49072 0.75052 0.0
C725 C 0.03151 0.4712 0.7858 0.0
C726 C 0.05242 0.48644 0.80243 0.0
C727 C 0.07958 0.49313 0.79028 0.0
C728 C 0.04727 0.49369 0.83318 0.0
C729 C 0.00233 0.46264 0.79811 0.0
C730 C 0.02506 0.51282 0.84123 0.0
C731 C 0.01944 0.51824 0.87045 0.0
C732 C 0.03606 0.50471 0.89212 0.0
C733 C 0.05879 0.48614 0.88386 0.0
C734 C 0.06434 0.48073 0.85467 0.0
H735 H 0.99111 0.4461 0.78453 0.0
H736 H 0.00475 0.45385 0.82033 0.0
H737 H 0.98827 0.48212 0.79932 0.0
H738 H 0.01195 0.52338 0.82492 0.0
H739 H 0.00191 0.53283 0.87602 0.0
H740 H 0.86319 0.98581 0.93371 0.0
H741 H 0.81594 0.00332 0.95073 0.0
H742 H 0.79078 0.91557 0.97221 0.0
H743 H 0.83742 0.89786 0.95487 0.0
H744 H 0.76204 0.98593 0.9279 0.0
H745 H 0.76848 0.96168 0.04503 0.0
H746 H 0.80023 0.96367 0.02213 0.0
H747 H 0.77813 0.93132 0.02263 0.0
C748 C 0.84764 0.97029 0.94224 0.0
C749 C 0.85416 0.94045 0.94307 0.0
C750 C 0.82077 0.98034 0.95208 0.0
C751 C 0.80011 0.96078 0.96315 0.0
C752 C 0.80672 0.93111 0.96444 0.0
H753 H 0.61541 0.95882 0.967 0.0
H754 H 0.66732 0.95345 0.95771 0.0
C755 C 0.83346 0.92103 0.95454 0.0
C756 C 0.77067 0.97076 0.97109 0.0
H757 H 0.72066 0.96892 0.02554 0.0
C758 C 0.7531 0.98264 0.94936 0.0
C759 C 0.7592 0.9667 -0.00084 0.0
C760 C 0.77757 0.95541 0.02367 0.0
C761 C 0.72386 0.98922 0.9546 0.0
C762 C 0.71191 0.98344 0.98217 0.0
C763 C 0.72985 0.97297 0.00432 0.0
C764 C 0.68054 0.98688 0.98799 0.0
C765 C 0.70587 0.00193 0.9305 0.0
C766 C 0.67089 0.00701 0.0086 0.0
C767 C 0.64119 0.01014 0.01402 0.0
C768 C 0.62067 0.99295 0.99911 0.0
C769 C 0.63055 0.97248 0.9788 0.0
C770 C 0.66021 0.96948 0.97333 0.0
H771 H 0.71972 0.01216 0.91363 0.0
H772 H 0.693 0.98432 0.9201 0.0
H773 H 0.69051 0.01843 0.93894 0.0
H774 H 0.68632 0.02048 0.02027 0.0
H775 H 0.63434 0.02604 0.02989 0.0
H776 H 0.65446 0.07609 0.47878 0.0
H777 H 0.70441 0.06436 0.49265 0.0
H778 H 0.72663 0.05186 0.40292 0.0
H779 H 0.67744 0.06495 0.38877 0.0
H780 H 0.73873 0.016 0.48375 0.0
H781 H 0.78569 0.11235 0.42862 0.0
H782 H 0.74718 0.10807 0.43464 0.0
H783 H 0.76451 0.08969 0.40497 0.0
C784 C 0.67002 0.07095 0.462 0.0
C785 C 0.66194 0.07167 0.43265 0.0
C786 C 0.69848 0.06408 0.46997 0.0
C787 C 0.71933 0.05785 0.44875 0.0
C788 C 0.71102 0.05723 0.41959 0.0
H789 H 0.90064 0.01073 0.44746 0.0
H790 H 0.84937 0.01911 0.43639 0.0
C791 C 0.68271 0.0643 0.41158 0.0
C792 C 0.74996 0.05263 0.45696 0.0
H793 H 0.81921 0.077 0.4455 0.0
C794 C 0.75632 0.02943 0.47556 0.0
C795 C 0.77283 0.07035 0.44637 0.0
C796 C 0.76724 0.09668 0.42779 0.0
C797 C 0.78511 0.02302 0.48324 0.0
C798 C 0.80791 0.04034 0.47209 0.0
C799 C 0.80157 0.06368 0.45377 0.0
C800 C 0.83861 0.03463 0.4792 0.0
C801 C 0.7911 0.99752 0.50276 0.0
C802 C 0.84941 0.04091 0.50686 0.0
C803 C 0.87872 0.0364 0.51322 0.0
C804 C 0.89767 0.02542 0.49201 0.0
C805 C 0.88665 0.01913 0.4643 0.0
C806 C 0.85739 0.02388 0.45792 0.0
H807 H 0.7715 0.98373 0.5061 0.0
H808 H 0.8087 0.9839 0.49358 0.0
H809 H 0.79857 0.00562 0.52414 0.0
H810 H 0.83521 0.04954 0.52342 0.0
H811 H 0.88646 0.04142 0.53479 0.0
H812 H 0.33994 0.63692 0.07888 0.0
H813 H 0.29137 0.62303 0.06252 0.0
H814 H 0.31326 0.53252 0.07168 0.0
H815 H 0.36229 0.54618 0.08759 0.0
H816 H 0.27373 0.58547 0.01489 0.0
H817 H 0.23963 0.54499 0.12314 0.0
H818 H 0.27106 0.5681 0.11815 0.0
H819 H 0.27276 0.53028 0.10877 0.0
C820 C 0.33468 0.61403 0.07692 0.0
C821 C 0.35504 0.59264 0.08453 0.0
C822 C 0.30685 0.60616 0.06772 0.0
C823 C 0.29872 0.5768 0.06619 0.0
C824 C 0.31907 0.55532 0.07312 0.0
H825 H 0.13733 0.5093 0.99191 0.0
H826 H 0.18851 0.51863 0.00305 0.0
C827 C 0.34701 0.56317 0.08224 0.0
C828 C 0.26862 0.5689 0.0581 0.0
H829 H 0.20545 0.54102 0.08533 0.0
C830 C 0.2588 0.57558 0.03017 0.0
C831 C 0.24923 0.55633 0.07829 0.0
C832 C 0.25849 0.54964 0.10886 0.0
C833 C 0.22996 0.57004 0.02188 0.0
C834 C 0.21062 0.55736 0.04204 0.0
C835 C 0.22046 0.55061 0.06993 0.0
C836 C 0.17974 0.55186 0.03496 0.0
C837 C 0.22014 0.57846 0.99193 0.0
C838 C 0.15794 0.56722 0.04951 0.0
C839 C 0.1287 0.56199 0.04323 0.0
C840 C 0.12071 0.54106 0.02244 0.0
C841 C 0.14269 0.5256 0.00799 0.0
C842 C 0.17196 0.53097 0.01422 0.0
H843 H 0.23608 0.59295 0.981 0.0
H844 H 0.21747 0.55855 0.97859 0.0
H845 H 0.19881 0.5896 0.9928 0.0
H846 H 0.16359 0.58337 0.06566 0.0
H847 H 0.11238 0.57423 0.05483 0.0
H848 H 0.17667 0.37939 0.58162 0.0
H849 H 0.22378 0.39437 0.56247 0.0
H850 H 0.1948 0.48335 0.55923 0.0
H851 H 0.14753 0.46845 0.57903 0.0
H852 H 0.24006 0.42066 0.51263 0.0
H853 H 0.26805 0.49049 0.60702 0.0
H854 H 0.23729 0.46605 0.60714 0.0
H855 H 0.23519 0.50033 0.58865 0.0
C856 C 0.18017 0.4021 0.57649 0.0
C857 C 0.15845 0.42278 0.5818 0.0
C858 C 0.20714 0.41065 0.56563 0.0
C859 C 0.21296 0.44002 0.55984 0.0
C860 C 0.191 0.46065 0.56419 0.0
H861 H 0.37746 0.51467 0.49863 0.0
H862 H 0.32562 0.50704 0.50813 0.0
C863 C 0.16401 0.45213 0.57536 0.0
C864 C 0.24236 0.44873 0.54993 0.0
H865 H 0.30249 0.48801 0.56937 0.0
C866 C 0.25363 0.43554 0.52494 0.0
C867 C 0.26007 0.46808 0.5661 0.0
C868 C 0.24971 0.48189 0.59385 0.0
C869 C 0.2823 0.44077 0.51601 0.0
C870 C 0.30002 0.45967 0.53244 0.0
C871 C 0.28862 0.47359 0.55686 0.0
C872 C 0.33106 0.46388 0.52563 0.0
C873 C 0.29371 0.42579 0.48933 0.0
C874 C 0.35108 0.44211 0.5325 0.0
C875 C 0.38069 0.44643 0.52737 0.0
C876 C 0.39072 0.47259 0.51513 0.0
C877 C 0.37045 0.49424 0.50798 0.0
C878 C 0.34086 0.48997 0.51339 0.0
H879 H 0.27605 0.41543 0.4765 0.0
H880 H 0.30554 0.44154 0.47541 0.0
H881 H 0.30933 0.4087 0.49585 0.0
H882 H 0.34381 0.4219 0.54217 0.0
H883 H 0.39569 0.42931 0.53307 0.0
H884 H 0.97704 0.87643 0.93423 0.0
H885 H 0.99581 0.82851 0.94772 0.0
H886 H 0.90841 0.79848 0.96399 0.0
H887 H 0.88957 0.84604 0.95063 0.0
H888 H 0.9479 0.78002 0.00546 0.0
H889 H 0.98728 0.75819 0.89383 0.0
H890 H 0.00166 0.79043 0.91063 0.0
H891 H 0.9636 0.78815 0.90227 0.0
C892 C 0.96189 0.85963 0.94088 0.0
C893 C 0.93183 0.86498 0.94129 0.0
C894 C 0.97262 0.8323 0.9485 0.0
C895 C 0.95343 0.80986 0.95638 0.0
C896 C 0.92357 0.81552 0.95796 0.0
H897 H 0.96561 0.6246 0.94741 0.0
H898 H 0.95646 0.67645 0.94101 0.0
C899 C 0.91286 0.84278 0.95046 0.0
C900 C 0.96399 0.78002 0.96177 0.0
H901 H 0.99461 0.72145 0.92841 0.0
C902 C 0.95834 0.76724 0.98873 0.0
C903 C 0.97723 0.76336 0.9397 0.0
C904 C 0.98263 0.77555 0.90988 0.0
C905 C 0.96518 0.73806 0.99413 0.0
C906 C 0.97849 0.72144 0.97209 0.0
C907 C 0.98455 0.73435 0.94529 0.0
C908 C 0.98481 0.69015 0.97584 0.0
C909 C 0.95706 0.725 0.02296 0.0
C910 C 0.00412 0.68073 0.99729 0.0
C911 C 0.0093 0.65108 0.00113 0.0
C912 C 0.99544 0.63033 0.98339 0.0
C913 C 0.9766 0.63995 0.9615 0.0
C914 C 0.97136 0.66958 0.95777 0.0
H915 H 0.94108 0.73859 0.03478 0.0
H916 H 0.94774 0.70286 0.02014 0.0
H917 H 0.97683 0.7232 0.03657 0.0
H918 H 0.01519 0.6963 0.01107 0.0
H919 H 0.02413 0.64447 0.01804 0.0
H920 H 0.4328 0.65307 0.04071 0.0
H921 H 0.45074 0.70045 0.02416 0.0
H922 H 0.46613 0.72619 0.11257 0.0
H923 H 0.44787 0.6793 0.1293 0.0
H924 H 0.42566 0.75356 0.03938 0.0
H925 H 0.54157 0.75063 0.07164 0.0
H926 H 0.51944 0.71822 0.06853 0.0
H927 H 0.51717 0.74069 0.1003 0.0
C928 C 0.44023 0.66875 0.05661 0.0
C929 C 0.43894 0.66237 0.08633 0.0
C930 C 0.4506 0.69571 0.04711 0.0
C931 C 0.46012 0.71663 0.06713 0.0
C932 C 0.45955 0.71008 0.09673 0.0
H933 H 0.46088 0.90183 0.0647 0.0
H934 H 0.45237 0.84985 0.07141 0.0
C935 C 0.44911 0.68322 0.10625 0.0
C936 C 0.46812 0.74626 0.05749 0.0
H937 H 0.52168 0.79771 0.06172 0.0
C938 C 0.44678 0.7631 0.04389 0.0
C939 C 0.49577 0.75855 0.06318 0.0
C940 C 0.51992 0.74101 0.07646 0.0
C941 C 0.45194 0.79234 0.03699 0.0
C942 C 0.47901 0.80507 0.04418 0.0
C943 C 0.50083 0.78791 0.05655 0.0
C944 C 0.48457 0.83647 0.0401 0.0
C945 C 0.42826 0.80949 0.02239 0.0
C946 C 0.50595 0.84609 0.02071 0.0
C947 C 0.51091 0.87584 0.01678 0.0
C948 C 0.49474 0.89645 0.03244 0.0
C949 C 0.47367 0.88661 0.05221 0.0
C950 C 0.46865 0.85691 0.05599 0.0
H951 H 0.41204 0.79505 0.01176 0.0
H952 H 0.41676 0.82274 0.03883 0.0
H953 H 0.43749 0.82449 0.00594 0.0
H954 H 0.51856 0.83057 0.0084 0.0
H955 H 0.52738 0.88264 0.00148 0.0
H956 H 0.08694 0.33068 0.63742 0.0
H957 H 0.07153 0.28139 0.62474 0.0
H958 H 0.05581 0.30889 0.53692 0.0
H959 H 0.07258 0.35809 0.54936 0.0
H960 H 0.02314 0.25839 0.60598 0.0
H961 H 0.10823 0.24171 0.5228 0.0
H962 H 0.10808 0.27294 0.54635 0.0
H963 H 0.08498 0.27182 0.51492 0.0
C964 C 0.07999 0.3262 0.61546 0.0
C965 C 0.08099 0.34802 0.5943 0.0
C966 C 0.07123 0.29806 0.60821 0.0
C967 C 0.06306 0.29126 0.57973 0.0
C968 C 0.06286 0.31339 0.55881 0.0
H969 H 0.97953 0.12408 0.54094 0.0
H970 H 0.98881 0.17563 0.55019 0.0
C971 C 0.07218 0.34149 0.56595 0.0
C972 C 0.05523 0.26086 0.57217 0.0
H973 H 0.07291 0.2045 0.52756 0.0
C974 C 0.03403 0.24659 0.58883 0.0
C975 C 0.06978 0.24533 0.55008 0.0
C976 C 0.09423 0.25861 0.53271 0.0
C977 C 0.0272 0.21717 0.5843 0.0
C978 C 0.04114 0.2019 0.56166 0.0
C979 C 0.06209 0.21627 0.54477 0.0
C980 C 0.03525 0.1707 0.55575 0.0
C981 C 0.00597 0.20261 0.60459 0.0
C982 C 0.05836 0.1509 0.5547 0.0
C983 C 0.0532 0.12159 0.54864 0.0
C984 C 0.02476 0.11144 0.54389 0.0
C985 C 0.00163 0.13123 0.54495 0.0
C986 C 0.00688 0.16067 0.55042 0.0
H987 H 0.00432 0.21447 0.62547 0.0
H988 H 0.98407 0.20241 0.59454 0.0
H989 H 0.01236 0.17983 0.60915 0.0
H990 H 0.08045 0.15813 0.55867 0.0
H991 H 0.07145 0.10683 0.54799 0.0
H992 H 0.53815 0.13379 0.43861 0.0
H993 H 0.52024 0.18198 0.45234 0.0
H994 H 0.60825 0.21448 0.45501 0.0
H995 H 0.62628 0.16667 0.4411 0.0
H996 H 0.57272 0.23369 0.50152 0.0
H997 H 0.52127 0.24998 0.39386 0.0
H998 H 0.51029 0.21782 0.4131 0.0
H999 H 0.54709 0.22139 0.40065 0.0
C1000 C 0.55366 0.15119 0.4423 0.0
C1001 C 0.58361 0.14645 0.43867 0.0
C1002 C 0.54341 0.17865 0.45011 0.0
C1003 C 0.56293 0.20181 0.45426 0.0
C1004 C 0.59286 0.19685 0.45189 0.0
H1005 H 0.54495 0.3866 0.44277 0.0
H1006 H 0.55549 0.33497 0.43663 0.0
C1007 C 0.60312 0.16945 0.4441 0.0
C1008 C 0.55236 0.23162 0.45966 0.0
H1009 H 0.51665 0.28796 0.42774 0.0
C1010 C 0.56025 0.24553 0.48554 0.0
C1011 C 0.53645 0.24703 0.43852 0.0
C1012 C 0.52841 0.23348 0.40985 0.0
C1013 C 0.55286 0.27462 0.49076 0.0
C1014 C 0.53688 0.28999 0.46965 0.0
C1015 C 0.52874 0.27599 0.44391 0.0
C1016 C 0.52967 0.32108 0.47322 0.0
C1017 C 0.56304 0.28898 0.51836 0.0
C1018 C 0.51127 0.33027 0.49556 0.0
C1019 C 0.50521 0.35978 0.49917 0.0
C1020 C 0.51735 0.38062 0.4804 0.0
C1021 C 0.5353 0.3712 0.45767 0.0
C1022 C 0.54133 0.34169 0.45409 0.0
H1023 H 0.58016 0.27614 0.52936 0.0
H1024 H 0.57167 0.31112 0.51396 0.0
H1025 H 0.54439 0.29108 0.5334 0.0
H1026 H 0.50166 0.31461 0.51023 0.0
H1027 H 0.49117 0.36623 0.51682 0.0
loop_
_geom_bond_atom_site_label_1
_geom_bond_atom_site_label_2
_geom_bond_distance
_geom_bond_site_symmetry_2
_ccdc_geom_bond_type
H0 C3 0.931 . S
H1 C6 0.928 . S
H2 C8 0.930 . S
C3 H0 0.931 . S
C3 C4 1.413 . S
C3 C5 1.360 . S
C4 C3 1.413 . S
C4 C8 1.429 . S
C5 C3 1.360 . S
C5 C6 1.372 . S
C6 H1 0.928 . S
C6 C5 1.372 . S
C6 C7 1.404 . S
C7 C6 1.404 . S
C7 C8 1.391 . S
C8 H2 0.930 . S
C8 C4 1.429 . S
C8 C7 1.391 . S
H9 C12 0.931 . S
H10 C15 0.928 . S
H11 C17 0.930 . S
C12 H9 0.931 . S
C12 C13 1.413 . S
C12 C14 1.360 . S
C13 C12 1.413 . S
C13 C17 1.429 . S
C14 C12 1.360 . S
C14 C15 1.372 . S
C15 H10 0.928 . S
C15 C14 1.372 . S
C15 C16 1.404 . S
C16 C15 1.404 . S
C16 C17 1.391 . S
C17 H11 0.930 . S
C17 C13 1.429 . S
C17 C16 1.391 . S
H18 C21 0.931 . S
H19 C24 0.928 . S
H20 C26 0.930 . S
C21 H18 0.931 . S
C21 C22 1.413 . S
C21 C23 1.360 . S
C22 C21 1.413 . S
C22 C26 1.429 . S
C23 C21 1.360 . S
C23 C24 1.372 . S
C24 H19 0.928 . S
C24 C23 1.372 . S
C24 C25 1.404 . S
C25 C24 1.404 . S
C25 C26 1.391 . S
C26 H20 0.930 . S
C26 C22 1.429 . S
C26 C25 1.391 . S
H27 C30 0.931 . S
H28 C33 0.928 . S
H29 C35 0.930 . S
C30 H27 0.931 . S
C30 C31 1.413 . S
C30 C32 1.360 . S
C31 C30 1.413 . S
C31 C35 1.429 . S
C32 C30 1.360 . S
C32 C33 1.372 . S
C33 H28 0.928 . S
C33 C32 1.372 . S
C33 C34 1.404 . S
C34 C33 1.404 . S
C34 C35 1.391 . S
C35 H29 0.930 . S
C35 C31 1.429 . S
C35 C34 1.391 . S
H36 C39 0.931 . S
H37 C42 0.928 . S
H38 C44 0.930 . S
C39 H36 0.931 . S
C39 C40 1.413 . S
C39 C41 1.360 . S
C40 C39 1.413 . S
C40 C44 1.429 . S
C41 C39 1.360 . S
C41 C42 1.372 . S
C42 H37 0.928 . S
C42 C41 1.372 . S
C42 C43 1.404 . S
C43 C42 1.404 . S
C43 C44 1.391 . S
C44 H38 0.930 . S
C44 C40 1.429 . S
C44 C43 1.391 . S
H45 C48 0.931 . S
H46 C51 0.928 . S
H47 C53 0.930 . S
C48 H45 0.931 . S
C48 C49 1.413 . S
C48 C50 1.360 . S
C49 C48 1.413 . S
C49 C53 1.429 . S
C50 C48 1.360 . S
C50 C51 1.372 . S
C51 H46 0.928 . S
C51 C50 1.372 . S
C51 C52 1.404 . S
C52 C51 1.404 . S
C52 C53 1.391 . S
C53 H47 0.930 . S
C53 C49 1.429 . S
C53 C52 1.391 . S
H54 C57 0.931 . S
H55 C60 0.928 . S
H56 C62 0.930 . S
C57 H54 0.931 . S
C57 C58 1.413 . S
C57 C59 1.360 . S
C58 C57 1.413 . S
C58 C62 1.429 . S
C59 C57 1.360 . S
C59 C60 1.372 . S
C60 H55 0.928 . S
C60 C59 1.372 . S
C60 C61 1.404 . S
C61 C60 1.404 . S
C61 C62 1.391 . S
C62 H56 0.930 . S
C62 C58 1.429 . S
C62 C61 1.391 . S
H63 C66 0.931 . S
H64 C69 0.928 . S
H65 C71 0.930 . S
C66 H63 0.931 . S
C66 C67 1.413 . S
C66 C68 1.360 . S
C67 C66 1.413 . S
C67 C71 1.429 . S
C68 C66 1.360 . S
C68 C69 1.372 . S
C69 H64 0.928 . S
C69 C68 1.372 . S
C69 C70 1.404 . S
C70 C69 1.404 . S
C70 C71 1.391 . S
C71 H65 0.930 . S
C71 C67 1.429 . S
C71 C70 1.391 . S
O72 Zn73 1.953 . S
O72 C88 1.225 1_655 S
Zn73 O72 1.953 . S
Zn73 O74 1.949 1_655 S
Zn73 O80 1.919 . S
Zn73 O85 1.924 . S
O74 Zn73 1.949 1_455 S
O74 Zn75 1.923 1_445 S
O74 Zn76 1.950 . S
O74 Zn77 1.945 1_545 S
Zn75 O74 1.923 1_665 S
Zn75 O78 1.933 . S
Zn75 O81 1.941 1_565 S
Zn75 O82 1.965 1_665 S
Zn76 O74 1.950 . S
Zn76 O83 1.938 . S
Zn76 O84 1.889 1_545 S
Zn76 O94 1.953 . S
Zn77 O74 1.945 1_565 S
Zn77 O79 1.932 1_455 S
Zn77 O86 1.977 . S
Zn77 O87 1.910 1_455 S
O78 Zn75 1.933 . S
O78 C89 1.226 . S
O79 Zn77 1.932 1_655 S
O79 C89 1.307 . S
O80 Zn73 1.919 . S
O80 C91 1.253 . S
O81 Zn75 1.941 1_545 S
O81 C91 1.283 . S
O82 Zn75 1.965 1_445 S
O82 C90 1.303 . S
O83 Zn76 1.938 . S
O83 C90 1.247 . S
O84 Zn76 1.889 1_565 S
O84 C92 1.329 . S
O85 Zn73 1.924 . S
O85 C93 1.311 1_545 S
O86 Zn77 1.977 . S
O86 C92 1.272 . S
O87 Zn77 1.910 1_655 S
O87 C93 1.231 . S
C88 O72 1.225 1_455 S
C88 O94 1.298 . S
C89 O78 1.226 . S
C89 O79 1.307 . S
C90 O82 1.303 . S
C90 O83 1.247 . S
C91 O80 1.253 . S
C91 O81 1.283 . S
C92 O84 1.329 . S
C92 O86 1.272 . S
C93 O85 1.311 1_565 S
C93 O87 1.231 . S
O94 Zn76 1.953 . S
O94 C88 1.298 . S
O95 Zn96 1.953 . S
O95 C111 1.225 . S
Zn96 O95 1.953 . S
Zn96 O97 1.949 1_556 S
Zn96 O103 1.919 . S
Zn96 O108 1.924 1_556 S
O97 Zn96 1.949 1_554 S
O97 Zn98 1.923 1_545 S
O97 Zn99 1.950 . S
O97 Zn100 1.945 1_545 S
Zn98 O97 1.923 1_565 S
Zn98 O101 1.933 . S
Zn98 O104 1.941 1_554 S
Zn98 O105 1.965 1_554 S
Zn99 O97 1.950 . S
Zn99 O106 1.938 . S
Zn99 O107 1.906 . S
Zn99 O117 1.953 . S
Zn100 O97 1.945 1_565 S
Zn100 O102 1.932 . S
Zn100 O109 1.977 1_565 S
Zn100 O110 1.910 1_565 S
O101 Zn98 1.933 . S
O101 C112 1.226 . S
O102 Zn100 1.932 . S
O102 C112 1.307 . S
O103 Zn96 1.919 . S
O103 C114 1.253 1_545 S
O104 Zn98 1.941 1_556 S
O104 C114 1.283 . S
O105 Zn98 1.965 1_556 S
O105 C113 1.303 . S
O106 Zn99 1.938 . S
O106 C113 1.247 1_544 S
O107 Zn99 1.906 . S
O107 C115 1.304 . S
O108 Zn96 1.924 1_554 S
O108 C116 1.311 . S
O109 Zn100 1.977 1_545 S
O109 C115 1.272 . S
O110 Zn100 1.910 1_545 S
O110 C116 1.231 . S
C111 O95 1.225 . S
C111 O117 1.298 1_556 S
C112 O101 1.226 . S
C112 O102 1.307 . S
C113 O105 1.303 . S
C113 O106 1.247 1_566 S
C114 O103 1.253 1_565 S
C114 O104 1.283 . S
C115 O107 1.304 . S
C115 O109 1.272 . S
C116 O108 1.311 . S
C116 O110 1.231 . S
O117 Zn99 1.953 . S
O117 C111 1.298 1_554 S
O118 Zn119 1.953 . S
O118 C134 1.225 . S
Zn119 O118 1.953 . S
Zn119 O120 1.949 . S
Zn119 O126 1.919 . S
Zn119 O131 1.924 . S
O120 Zn119 1.949 . S
O120 Zn121 1.923 . S
O120 Zn122 1.950 . S
O120 Zn123 1.945 . S
Zn121 O120 1.923 . S
Zn121 O124 1.933 . S
Zn121 O127 1.941 . S
Zn121 O128 1.965 . S
Zn122 O120 1.950 . S
Zn122 O129 1.938 . S
Zn122 O130 1.906 . S
Zn122 O140 1.953 . S
Zn123 O120 1.945 . S
Zn123 O125 1.932 . S
Zn123 O132 1.977 . S
Zn123 O133 1.910 . S
O124 Zn121 1.933 . S
O124 C135 1.226 . S
O125 Zn123 1.932 . S
O125 C135 1.307 . S
O126 Zn119 1.919 . S
O126 C137 1.253 . S
O127 Zn121 1.941 . S
O127 C137 1.283 . S
O128 Zn121 1.965 . S
O128 C136 1.303 . S
O129 Zn122 1.938 . S
O129 C136 1.247 . S
O130 Zn122 1.906 . S
O130 C138 1.304 . S
O131 Zn119 1.924 . S
O131 C139 1.311 . S
O132 Zn123 1.977 . S
O132 C138 1.272 . S
O133 Zn123 1.910 . S
O133 C139 1.231 . S
C134 O118 1.225 . S
C134 O140 1.298 . S
C135 O124 1.226 . S
C135 O125 1.307 . S
C136 O128 1.303 . S
C136 O129 1.247 . S
C137 O126 1.253 . S
C137 O127 1.283 . S
C138 O130 1.304 . S
C138 O132 1.272 . S
C139 O131 1.311 . S
C139 O133 1.231 . S
O140 Zn122 1.953 . S
O140 C134 1.298 . S
O141 Zn142 1.953 . S
O141 C157 1.225 . S
Zn142 O141 1.953 . S
Zn142 O143 1.949 1_655 S
Zn142 O149 1.919 . S
Zn142 O154 1.924 . S
O143 Zn142 1.949 1_455 S
O143 Zn144 1.923 1_454 S
O143 Zn145 1.950 . S
O143 Zn146 1.945 1_554 S
Zn144 O143 1.923 1_656 S
Zn144 O147 1.933 1_655 S
Zn144 O150 1.941 . S
Zn144 O151 1.965 . S
Zn145 O143 1.950 . S
Zn145 O152 1.938 . S
Zn145 O153 1.906 . S
Zn145 O163 1.953 . S
Zn146 O143 1.945 1_556 S
Zn146 O148 1.932 . S
Zn146 O155 1.977 1_556 S
Zn146 O156 1.910 1_556 S
O147 Zn144 1.933 1_455 S
O147 C158 1.226 . S
O148 Zn146 1.932 . S
O148 C158 1.307 . S
O149 Zn142 1.919 . S
O149 C160 1.253 1_554 S
O150 Zn144 1.941 . S
O150 C160 1.283 . S
O151 Zn144 1.965 . S
O151 C159 1.303 . S
O152 Zn145 1.938 . S
O152 C159 1.247 1_454 S
O153 Zn145 1.906 . S
O153 C161 1.304 . S
O154 Zn142 1.924 . S
O154 C162 1.311 1_655 S
O155 Zn146 1.977 1_554 S
O155 C161 1.272 . S
O156 Zn146 1.910 1_554 S
O156 C162 1.231 . S
C157 O141 1.225 . S
C157 O163 1.298 1_655 S
C158 O147 1.226 . S
C158 O148 1.307 . S
C159 O151 1.303 . S
C159 O152 1.247 1_656 S
C160 O149 1.253 1_556 S
C160 O150 1.283 . S
C161 O153 1.304 . S
C161 O155 1.272 . S
C162 O154 1.311 1_455 S
C162 O156 1.231 . S
O163 Zn145 1.953 . S
O163 C157 1.298 1_455 S
H164 C172 0.929 . S
H165 C174 0.930 . S
H166 C176 0.930 . S
H167 C179 0.929 . S
H168 C182 0.930 . S
H169 C184 0.960 . S
H170 C184 0.960 . S
H171 C184 0.960 . S
C172 H164 0.929 . S
C172 C173 1.377 . S
C172 C174 1.384 . S
C173 C172 1.377 . S
C173 C179 1.390 . S
C174 H165 0.930 . S
C174 C172 1.384 . S
C174 C175 1.372 . S
C175 C174 1.372 . S
C175 C176 1.400 . S
C175 C180 1.490 . S
C176 H166 0.930 . S
C176 C175 1.400 . S
C176 C179 1.386 . S
H177 C193 0.930 . S
H178 C194 0.931 . S
C179 H167 0.929 . S
C179 C173 1.390 . S
C179 C176 1.386 . S
C180 C175 1.490 . S
C180 C182 1.395 . S
C180 C183 1.403 . S
H181 C187 0.930 . S
C182 H168 0.930 . S
C182 C180 1.395 . S
C182 C185 1.403 . S
C183 C180 1.403 . S
C183 C184 1.524 . S
C183 C187 1.400 . S
C184 H169 0.960 . S
C184 H170 0.960 . S
C184 H171 0.960 . S
C184 C183 1.524 . S
C185 C182 1.403 . S
C185 C186 1.392 . S
C185 C189 1.495 . S
C186 C185 1.392 . S
C186 C187 1.385 . S
C186 C188 1.478 . S
C187 H181 0.930 . S
C187 C183 1.400 . S
C187 C186 1.385 . S
C188 C186 1.478 . S
C188 C190 1.381 . S
C188 C194 1.383 . S
C189 C185 1.495 . S
C189 H195 0.959 . S
C189 H196 0.961 . S
C189 H197 0.960 . S
C190 C188 1.381 . S
C190 C191 1.394 . S
C190 H198 0.930 . S
C191 C190 1.394 . S
C191 C192 1.383 . S
C191 H199 0.929 . S
C192 C191 1.383 . S
C192 C193 1.377 . S
C193 H177 0.930 . S
C193 C192 1.377 . S
C193 C194 1.379 . S
C194 H178 0.931 . S
C194 C188 1.383 . S
C194 C193 1.379 . S
H195 C189 0.959 . S
H196 C189 0.961 . S
H197 C189 0.960 . S
H198 C190 0.930 . S
H199 C191 0.929 . S
H200 C208 0.929 . S
H201 C210 0.930 . S
H202 C212 0.930 . S
H203 C215 0.929 . S
H204 C218 0.930 . S
H205 C220 0.960 . S
H206 C220 0.960 . S
H207 C220 0.960 . S
C208 H200 0.929 . S
C208 C209 1.377 . S
C208 C210 1.384 . S
C209 C208 1.377 . S
C209 C215 1.390 . S
C210 H201 0.930 . S
C210 C208 1.384 . S
C210 C211 1.372 . S
C211 C210 1.372 . S
C211 C212 1.400 . S
C211 C216 1.490 . S
C212 H202 0.930 . S
C212 C211 1.400 . S
C212 C215 1.386 . S
H213 C229 0.919 1_545 S
H214 C230 0.931 . S
C215 H203 0.929 . S
C215 C209 1.390 . S
C215 C212 1.386 . S
C216 C211 1.490 . S
C216 C218 1.395 . S
C216 C219 1.403 . S
H217 C223 0.930 . S
C218 H204 0.930 . S
C218 C216 1.395 . S
C218 C221 1.403 . S
C219 C216 1.403 . S
C219 C220 1.524 . S
C219 C223 1.400 . S
C220 H205 0.960 . S
C220 H206 0.960 . S
C220 H207 0.960 . S
C220 C219 1.524 . S
C221 C218 1.403 . S
C221 C222 1.392 . S
C221 C225 1.495 . S
C222 C221 1.392 . S
C222 C223 1.385 . S
C222 C224 1.478 . S
C223 H217 0.930 . S
C223 C219 1.400 . S
C223 C222 1.385 . S
C224 C222 1.478 . S
C224 C226 1.381 . S
C224 C230 1.383 . S
C225 C221 1.495 . S
C225 H231 0.959 . S
C225 H232 0.961 . S
C225 H233 0.960 . S
C226 C224 1.381 . S
C226 C227 1.394 . S
C226 H234 0.930 . S
C227 C226 1.394 . S
C227 C228 1.383 . S
C227 H235 0.929 . S
C228 C227 1.383 . S
C228 C229 1.377 . S
C229 H213 0.919 1_565 S
C229 C228 1.377 . S
C229 C230 1.379 . S
C230 H214 0.931 . S
C230 C224 1.383 . S
C230 C229 1.379 . S
H231 C225 0.959 . S
H232 C225 0.961 . S
H233 C225 0.960 . S
H234 C226 0.930 . S
H235 C227 0.929 . S
H236 C244 0.929 . S
H237 C246 0.930 . S
H238 C248 0.930 . S
H239 C251 0.929 . S
H240 C254 0.930 . S
H241 C256 0.960 . S
H242 C256 0.960 . S
H243 C256 0.960 . S
C244 H236 0.929 . S
C244 C245 1.377 . S
C244 C246 1.384 . S
C245 C244 1.377 . S
C245 C251 1.390 . S
C246 H237 0.930 . S
C246 C244 1.384 . S
C246 C247 1.372 . S
C247 C246 1.372 . S
C247 C248 1.400 . S
C247 C252 1.490 . S
C248 H238 0.930 . S
C248 C247 1.400 . S
C248 C251 1.386 . S
H249 C265 0.930 . S
H250 C266 0.931 . S
C251 H239 0.929 . S
C251 C245 1.390 . S
C251 C248 1.386 . S
C252 C247 1.490 . S
C252 C254 1.395 . S
C252 C255 1.403 . S
H253 C259 0.930 . S
C254 H240 0.930 . S
C254 C252 1.395 . S
C254 C257 1.403 . S
C255 C252 1.403 . S
C255 C256 1.524 . S
C255 C259 1.400 . S
C256 H241 0.960 . S
C256 H242 0.960 . S
C256 H243 0.960 . S
C256 C255 1.524 . S
C257 C254 1.403 . S
C257 C258 1.392 . S
C257 C261 1.495 . S
C258 C257 1.392 . S
C258 C259 1.385 . S
C258 C260 1.478 . S
C259 H253 0.930 . S
C259 C255 1.400 . S
C259 C258 1.385 . S
C260 C258 1.478 . S
C260 C262 1.381 . S
C260 C266 1.383 . S
C261 C257 1.495 . S
C261 H267 0.959 . S
C261 H268 0.961 . S
C261 H269 0.960 . S
C262 C260 1.381 . S
C262 C263 1.394 . S
C262 H270 0.930 . S
C263 C262 1.394 . S
C263 C264 1.383 . S
C263 H271 0.929 . S
C264 C263 1.383 . S
C264 C265 1.377 . S
C265 H249 0.930 . S
C265 C264 1.377 . S
C265 C266 1.379 . S
C266 H250 0.931 . S
C266 C260 1.383 . S
C266 C265 1.379 . S
H267 C261 0.959 . S
H268 C261 0.961 . S
H269 C261 0.960 . S
H270 C262 0.930 . S
H271 C263 0.929 . S
H272 C280 0.929 . S
H273 C282 0.930 . S
H274 C284 0.930 . S
H275 C287 0.929 . S
H276 C290 0.930 . S
H277 C292 0.960 . S
H278 C292 0.960 . S
H279 C292 0.960 . S
C280 H272 0.929 . S
C280 C281 1.377 . S
C280 C282 1.384 . S
C281 C280 1.377 . S
C281 C287 1.390 . S
C282 H273 0.930 . S
C282 C280 1.384 . S
C282 C283 1.372 . S
C283 C282 1.372 . S
C283 C284 1.400 . S
C283 C288 1.490 . S
C284 H274 0.930 . S
C284 C283 1.400 . S
C284 C287 1.386 . S
H285 C301 0.930 . S
H286 C302 0.931 . S
C287 H275 0.929 . S
C287 C281 1.390 . S
C287 C284 1.386 . S
C288 C283 1.490 . S
C288 C290 1.395 . S
C288 C291 1.403 . S
H289 C295 0.930 . S
C290 H276 0.930 . S
C290 C288 1.395 . S
C290 C293 1.403 . S
C291 C288 1.403 . S
C291 C292 1.524 . S
C291 C295 1.400 . S
C292 H277 0.960 . S
C292 H278 0.960 . S
C292 H279 0.960 . S
C292 C291 1.524 . S
C293 C290 1.403 . S
C293 C294 1.392 . S
C293 C297 1.495 . S
C294 C293 1.392 . S
C294 C295 1.385 . S
C294 C296 1.478 . S
C295 H289 0.930 . S
C295 C291 1.400 . S
C295 C294 1.385 . S
C296 C294 1.478 . S
C296 C298 1.381 . S
C296 C302 1.383 . S
C297 C293 1.495 . S
C297 H303 0.959 . S
C297 H304 0.961 . S
C297 H305 0.960 . S
C298 C296 1.381 . S
C298 C299 1.394 . S
C298 H306 0.930 . S
C299 C298 1.394 . S
C299 C300 1.383 . S
C299 H307 0.921 1_655 S
C300 C299 1.383 . S
C300 C301 1.377 . S
C301 H285 0.930 . S
C301 C300 1.377 . S
C301 C302 1.379 . S
C302 H286 0.931 . S
C302 C296 1.383 . S
C302 C301 1.379 . S
H303 C297 0.959 . S
H304 C297 0.961 . S
H305 C297 0.960 . S
H306 C298 0.930 . S
H307 C299 0.921 1_455 S
H308 C316 0.929 . S
H309 C318 0.930 . S
H310 C320 0.930 . S
H311 C323 0.929 . S
H312 C326 0.930 . S
H313 C328 0.960 . S
H314 C328 0.960 . S
H315 C328 0.960 . S
C316 H308 0.929 . S
C316 C317 1.377 . S
C316 C318 1.384 . S
C317 C316 1.377 . S
C317 C323 1.390 . S
C318 H309 0.930 . S
C318 C316 1.384 . S
C318 C319 1.372 . S
C319 C318 1.372 . S
C319 C320 1.400 . S
C319 C324 1.490 . S
C320 H310 0.930 . S
C320 C319 1.400 . S
C320 C323 1.386 . S
H321 C337 0.930 . S
H322 C338 0.931 . S
C323 H311 0.929 . S
C323 C317 1.390 . S
C323 C320 1.386 . S
C324 C319 1.490 . S
C324 C326 1.395 . S
C324 C327 1.403 . S
H325 C331 0.930 . S
C326 H312 0.930 . S
C326 C324 1.395 . S
C326 C329 1.403 . S
C327 C324 1.403 . S
C327 C328 1.524 . S
C327 C331 1.400 . S
C328 H313 0.960 . S
C328 H314 0.960 . S
C328 H315 0.960 . S
C328 C327 1.524 . S
C329 C326 1.403 . S
C329 C330 1.392 . S
C329 C333 1.495 . S
C330 C329 1.392 . S
C330 C331 1.385 . S
C330 C332 1.478 . S
C331 H325 0.930 . S
C331 C327 1.400 . S
C331 C330 1.385 . S
C332 C330 1.478 . S
C332 C334 1.381 . S
C332 C338 1.383 . S
C333 C329 1.495 . S
C333 H339 0.959 . S
C333 H340 0.961 . S
C333 H341 0.960 . S
C334 C332 1.381 . S
C334 C335 1.394 . S
C334 H342 0.930 . S
C335 C334 1.394 . S
C335 C336 1.383 . S
C335 H343 0.929 . S
C336 C335 1.383 . S
C336 C337 1.377 . S
C337 H321 0.930 . S
C337 C336 1.377 . S
C337 C338 1.379 . S
C338 H322 0.931 . S
C338 C332 1.383 . S
C338 C337 1.379 . S
H339 C333 0.959 . S
H340 C333 0.961 . S
H341 C333 0.960 . S
H342 C334 0.930 . S
H343 C335 0.929 . S
H344 C352 0.929 . S
H345 C354 0.930 . S
H346 C356 0.930 . S
H347 C359 0.929 . S
H348 C362 0.930 . S
H349 C364 0.960 . S
H350 C364 0.960 . S
H351 C364 0.960 . S
C352 H344 0.929 . S
C352 C353 1.377 . S
C352 C354 1.384 . S
C353 C352 1.377 . S
C353 C359 1.390 . S
C354 H345 0.930 . S
C354 C352 1.384 . S
C354 C355 1.372 . S
C355 C354 1.372 . S
C355 C356 1.400 . S
C355 C360 1.490 . S
C356 H346 0.930 . S
C356 C355 1.400 . S
C356 C359 1.386 . S
H357 C373 0.930 . S
H358 C374 0.931 . S
C359 H347 0.929 . S
C359 C353 1.390 . S
C359 C356 1.386 . S
C360 C355 1.490 . S
C360 C362 1.395 . S
C360 C363 1.403 . S
H361 C367 0.930 . S
C362 H348 0.930 . S
C362 C360 1.395 . S
C362 C365 1.403 . S
C363 C360 1.403 . S
C363 C364 1.524 . S
C363 C367 1.400 . S
C364 H349 0.960 . S
C364 H350 0.960 . S
C364 H351 0.960 . S
C364 C363 1.524 . S
C365 C362 1.403 . S
C365 C366 1.392 . S
C365 C369 1.495 . S
C366 C365 1.392 . S
C366 C367 1.385 . S
C366 C368 1.478 . S
C367 H361 0.930 . S
C367 C363 1.400 . S
C367 C366 1.385 . S
C368 C366 1.478 . S
C368 C370 1.381 . S
C368 C374 1.383 . S
C369 C365 1.495 . S
C369 H375 0.959 . S
C369 H376 0.961 . S
C369 H377 0.960 . S
C370 C368 1.381 . S
C370 C371 1.394 . S
C370 H378 0.930 . S
C371 C370 1.394 . S
C371 C372 1.383 . S
C371 H379 0.929 . S
C372 C371 1.383 . S
C372 C373 1.377 . S
C373 H357 0.930 . S
C373 C372 1.377 . S
C373 C374 1.379 . S
C374 H358 0.931 . S
C374 C368 1.383 . S
C374 C373 1.379 . S
H375 C369 0.959 . S
H376 C369 0.961 . S
H377 C369 0.960 . S
H378 C370 0.930 . S
H379 C371 0.929 . S
H380 C388 0.929 . S
H381 C390 0.930 . S
H382 C392 0.930 . S
H383 C395 0.929 . S
H384 C398 0.930 . S
H385 C400 0.960 . S
H386 C400 0.960 . S
H387 C400 0.960 . S
C388 H380 0.929 . S
C388 C389 1.377 . S
C388 C390 1.384 . S
C389 C388 1.377 . S
C389 C395 1.390 . S
C390 H381 0.930 . S
C390 C388 1.384 . S
C390 C391 1.372 . S
C391 C390 1.372 . S
C391 C392 1.400 . S
C391 C396 1.490 . S
C392 H382 0.930 . S
C392 C391 1.400 . S
C392 C395 1.386 . S
H393 C409 0.930 . S
H394 C410 0.931 . S
C395 H383 0.929 . S
C395 C389 1.390 . S
C395 C392 1.386 . S
C396 C391 1.490 . S
C396 C398 1.395 . S
C396 C399 1.403 . S
H397 C403 0.930 . S
C398 H384 0.930 . S
C398 C396 1.395 . S
C398 C401 1.403 . S
C399 C396 1.403 . S
C399 C400 1.524 . S
C399 C403 1.400 . S
C400 H385 0.960 . S
C400 H386 0.960 . S
C400 H387 0.960 . S
C400 C399 1.524 . S
C401 C398 1.403 . S
C401 C402 1.392 . S
C401 C405 1.495 . S
C402 C401 1.392 . S
C402 C403 1.385 . S
C402 C404 1.478 . S
C403 H397 0.930 . S
C403 C399 1.400 . S
C403 C402 1.385 . S
C404 C402 1.478 . S
C404 C406 1.381 . S
C404 C410 1.383 . S
C405 C401 1.495 . S
C405 H411 0.959 . S
C405 H412 0.961 . S
C405 H413 0.960 . S
C406 C404 1.381 . S
C406 C407 1.394 . S
C406 H414 0.930 . S
C407 C406 1.394 . S
C407 C408 1.383 . S
C407 H415 0.929 . S
C408 C407 1.383 . S
C408 C409 1.377 . S
C409 H393 0.930 . S
C409 C408 1.377 . S
C409 C410 1.379 . S
C410 H394 0.931 . S
C410 C404 1.383 . S
C410 C409 1.379 . S
H411 C405 0.959 . S
H412 C405 0.961 . S
H413 C405 0.960 . S
H414 C406 0.930 . S
H415 C407 0.929 . S
H416 C424 0.929 . S
H417 C426 0.930 . S
H418 C428 0.930 . S
H419 C431 0.929 . S
H420 C434 0.930 . S
H421 C436 0.960 . S
H422 C436 0.960 . S
H423 C436 0.960 . S
C424 H416 0.929 . S
C424 C425 1.377 . S
C424 C426 1.384 . S
C425 C424 1.377 . S
C425 C431 1.390 . S
C426 H417 0.930 . S
C426 C424 1.384 . S
C426 C427 1.372 . S
C427 C426 1.372 . S
C427 C428 1.400 . S
C427 C432 1.490 . S
C428 H418 0.930 . S
C428 C427 1.400 . S
C428 C431 1.386 . S
H429 C445 0.930 . S
H430 C446 0.931 . S
C431 H419 0.929 . S
C431 C425 1.390 . S
C431 C428 1.386 . S
C432 C427 1.490 . S
C432 C434 1.395 . S
C432 C435 1.403 . S
H433 C439 0.930 . S
C434 H420 0.930 . S
C434 C432 1.395 . S
C434 C437 1.403 . S
C435 C432 1.403 . S
C435 C436 1.524 . S
C435 C439 1.400 . S
C436 H421 0.960 . S
C436 H422 0.960 . S
C436 H423 0.960 . S
C436 C435 1.524 . S
C437 C434 1.403 . S
C437 C438 1.392 . S
C437 C441 1.495 . S
C438 C437 1.392 . S
C438 C439 1.385 . S
C438 C440 1.478 . S
C439 H433 0.930 . S
C439 C435 1.400 . S
C439 C438 1.385 . S
C440 C438 1.478 . S
C440 C442 1.381 . S
C440 C446 1.383 . S
C441 C437 1.495 . S
C441 H447 0.959 . S
C441 H448 0.961 . S
C441 H449 0.960 . S
C442 C440 1.381 . S
C442 C443 1.394 . S
C442 H450 0.930 . S
C443 C442 1.394 . S
C443 C444 1.383 . S
C443 H451 0.929 . S
C444 C443 1.383 . S
C444 C445 1.377 . S
C445 H429 0.930 . S
C445 C444 1.377 . S
C445 C446 1.379 . S
C446 H430 0.931 . S
C446 C440 1.383 . S
C446 C445 1.379 . S
H447 C441 0.959 . S
H448 C441 0.961 . S
H449 C441 0.960 . S
H450 C442 0.930 . S
H451 C443 0.929 . S
H452 C460 0.929 . S
H453 C462 0.930 . S
H454 C464 0.930 . S
H455 C467 0.929 . S
H456 C470 0.930 . S
H457 C472 0.960 . S
H458 C472 0.960 . S
H459 C472 0.960 . S
C460 H452 0.929 . S
C460 C461 1.377 . S
C460 C462 1.384 . S
C461 C460 1.377 . S
C461 C467 1.390 . S
C462 H453 0.930 . S
C462 C460 1.384 . S
C462 C463 1.372 . S
C463 C462 1.372 . S
C463 C464 1.400 . S
C463 C468 1.490 . S
C464 H454 0.930 . S
C464 C463 1.400 . S
C464 C467 1.386 . S
H465 C481 0.930 . S
H466 C482 0.931 . S
C467 H455 0.929 . S
C467 C461 1.390 . S
C467 C464 1.386 . S
C468 C463 1.490 . S
C468 C470 1.395 . S
C468 C471 1.403 . S
H469 C475 0.930 . S
C470 H456 0.930 . S
C470 C468 1.395 . S
C470 C473 1.403 . S
C471 C468 1.403 . S
C471 C472 1.524 . S
C471 C475 1.400 . S
C472 H457 0.960 . S
C472 H458 0.960 . S
C472 H459 0.960 . S
C472 C471 1.524 . S
C473 C470 1.403 . S
C473 C474 1.392 . S
C473 C477 1.495 . S
C474 C473 1.392 . S
C474 C475 1.385 . S
C474 C476 1.478 . S
C475 H469 0.930 . S
C475 C471 1.400 . S
C475 C474 1.385 . S
C476 C474 1.478 . S
C476 C478 1.381 . S
C476 C482 1.383 . S
C477 C473 1.495 . S
C477 H483 0.959 . S
C477 H484 0.961 . S
C477 H485 0.960 1_455 S
C478 C476 1.381 . S
C478 C479 1.394 . S
C478 H486 0.930 . S
C479 C478 1.394 . S
C479 C480 1.383 . S
C479 H487 0.944 . S
C480 C479 1.383 . S
C480 C481 1.377 . S
C481 H465 0.930 . S
C481 C480 1.377 . S
C481 C482 1.379 . S
C482 H466 0.931 . S
C482 C476 1.383 . S
C482 C481 1.379 . S
H483 C477 0.959 . S
H484 C477 0.961 . S
H485 C477 0.960 1_655 S
H486 C478 0.930 . S
H487 C479 0.944 . S
H488 C496 0.929 . S
H489 C498 0.930 . S
H490 C500 0.930 . S
H491 C503 0.929 . S
H492 C506 0.930 . S
H493 C508 0.960 . S
H494 C508 0.960 . S
H495 C508 0.960 . S
C496 H488 0.929 . S
C496 C497 1.377 . S
C496 C498 1.384 . S
C497 C496 1.377 . S
C497 C503 1.390 . S
C498 H489 0.930 . S
C498 C496 1.384 . S
C498 C499 1.372 . S
C499 C498 1.372 . S
C499 C500 1.400 . S
C499 C504 1.490 . S
C500 H490 0.930 . S
C500 C499 1.400 . S
C500 C503 1.386 . S
H501 C517 0.930 1_554 S
H502 C518 0.931 . S
C503 H491 0.929 . S
C503 C497 1.390 . S
C503 C500 1.386 . S
C504 C499 1.490 . S
C504 C506 1.395 . S
C504 C507 1.403 . S
H505 C511 0.930 . S
C506 H492 0.930 . S
C506 C504 1.395 . S
C506 C509 1.403 . S
C507 C504 1.403 . S
C507 C508 1.524 . S
C507 C511 1.400 . S
C508 H493 0.960 . S
C508 H494 0.960 . S
C508 H495 0.960 . S
C508 C507 1.524 . S
C509 C506 1.403 . S
C509 C510 1.392 . S
C509 C513 1.495 . S
C510 C509 1.392 . S
C510 C511 1.385 . S
C510 C512 1.478 . S
C511 H505 0.930 . S
C511 C507 1.400 . S
C511 C510 1.385 . S
C512 C510 1.478 . S
C512 C514 1.381 . S
C512 C518 1.383 . S
C513 C509 1.495 . S
C513 H519 0.959 . S
C513 H520 0.959 . S
C513 H521 0.960 . S
C514 C512 1.381 . S
C514 C515 1.394 . S
C514 H522 0.930 . S
C515 C514 1.394 . S
C515 C516 1.383 . S
C515 H523 0.929 . S
C516 C515 1.383 . S
C516 C517 1.377 . S
C517 H501 0.930 1_556 S
C517 C516 1.377 . S
C517 C518 1.379 . S
C518 H502 0.931 . S
C518 C512 1.383 . S
C518 C517 1.379 . S
H519 C513 0.959 . S
H520 C513 0.959 . S
H521 C513 0.960 . S
H522 C514 0.930 . S
H523 C515 0.929 . S
H524 C532 0.929 . S
H525 C534 0.930 . S
H526 C536 0.930 . S
H527 C539 0.929 . S
H528 C542 0.930 . S
H529 C544 0.960 . S
H530 C544 0.960 . S
H531 C544 0.960 . S
C532 H524 0.929 . S
C532 C533 1.377 . S
C532 C534 1.384 . S
C533 C532 1.377 . S
C533 C539 1.390 . S
C534 H525 0.930 . S
C534 C532 1.384 . S
C534 C535 1.372 . S
C535 C534 1.372 . S
C535 C536 1.400 . S
C535 C540 1.490 . S
C536 H526 0.930 . S
C536 C535 1.400 . S
C536 C539 1.386 . S
H537 C553 0.930 . S
H538 C554 0.931 . S
C539 H527 0.929 . S
C539 C533 1.390 . S
C539 C536 1.386 . S
C540 C535 1.490 . S
C540 C542 1.395 . S
C540 C543 1.403 . S
H541 C547 0.930 . S
C542 H528 0.930 . S
C542 C540 1.395 . S
C542 C545 1.403 . S
C543 C540 1.403 . S
C543 C544 1.524 . S
C543 C547 1.400 . S
C544 H529 0.960 . S
C544 H530 0.960 . S
C544 H531 0.960 . S
C544 C543 1.524 . S
C545 C542 1.403 . S
C545 C546 1.392 . S
C545 C549 1.495 . S
C546 C545 1.392 . S
C546 C547 1.385 . S
C546 C548 1.478 . S
C547 H541 0.930 . S
C547 C543 1.400 . S
C547 C546 1.385 . S
C548 C546 1.478 . S
C548 C550 1.381 . S
C548 C554 1.383 . S
C549 C545 1.495 . S
C549 H555 0.959 . S
C549 H556 0.961 . S
C549 H557 0.960 . S
C550 C548 1.381 . S
C550 C551 1.394 . S
C550 H558 0.930 . S
C551 C550 1.394 . S
C551 C552 1.383 . S
C551 H559 0.929 1_655 S
C552 C551 1.383 . S
C552 C553 1.377 . S
C553 H537 0.930 . S
C553 C552 1.377 . S
C553 C554 1.379 . S
C554 H538 0.931 . S
C554 C548 1.383 . S
C554 C553 1.379 . S
H555 C549 0.959 . S
H556 C549 0.961 . S
H557 C549 0.960 . S
H558 C550 0.930 . S
H559 C551 0.929 1_455 S
H560 C568 0.929 . S
H561 C570 0.930 . S
H562 C572 0.930 . S
H563 C575 0.929 . S
H564 C578 0.930 . S
H565 C580 0.960 . S
H566 C580 0.960 . S
H567 C580 0.960 . S
C568 H560 0.929 . S
C568 C569 1.377 . S
C568 C570 1.384 . S
C569 C568 1.377 . S
C569 C575 1.390 . S
C570 H561 0.930 . S
C570 C568 1.384 . S
C570 C571 1.372 . S
C571 C570 1.372 . S
C571 C572 1.400 . S
C571 C576 1.490 . S
C572 H562 0.930 . S
C572 C571 1.400 . S
C572 C575 1.386 . S
H573 C589 0.930 . S
H574 C590 0.931 . S
C575 H563 0.929 . S
C575 C569 1.390 . S
C575 C572 1.386 . S
C576 C571 1.490 . S
C576 C578 1.395 . S
C576 C579 1.403 . S
H577 C583 0.930 . S
C578 H564 0.930 . S
C578 C576 1.395 . S
C578 C581 1.403 . S
C579 C576 1.403 . S
C579 C580 1.524 . S
C579 C583 1.400 . S
C580 H565 0.960 . S
C580 H566 0.960 . S
C580 H567 0.960 . S
C580 C579 1.524 . S
C581 C578 1.403 . S
C581 C582 1.392 . S
C581 C585 1.495 . S
C582 C581 1.392 . S
C582 C583 1.385 . S
C582 C584 1.478 . S
C583 H577 0.930 . S
C583 C579 1.400 . S
C583 C582 1.385 . S
C584 C582 1.478 . S
C584 C586 1.381 . S
C584 C590 1.383 . S
C585 C581 1.495 . S
C585 H591 0.959 . S
C585 H592 0.961 . S
C585 H593 0.960 . S
C586 C584 1.381 . S
C586 C587 1.394 . S
C586 H594 0.930 . S
C587 C586 1.394 . S
C587 C588 1.383 . S
C587 H595 0.929 . S
C588 C587 1.383 . S
C588 C589 1.377 . S
C589 H573 0.930 . S
C589 C588 1.377 . S
C589 C590 1.379 . S
C590 H574 0.931 . S
C590 C584 1.383 . S
C590 C589 1.379 . S
H591 C585 0.959 . S
H592 C585 0.961 . S
H593 C585 0.960 . S
H594 C586 0.930 . S
H595 C587 0.929 . S
H596 C604 0.929 . S
H597 C606 0.930 . S
H598 C608 0.930 1_545 S
H599 C611 0.929 . S
H600 C614 0.930 . S
H601 C616 0.960 1_445 S
H602 C616 0.960 . S
H603 C616 0.960 1_545 S
C604 H596 0.929 . S
C604 C605 1.377 . S
C604 C606 1.384 . S
C605 C604 1.377 . S
C605 C611 1.390 . S
C606 H597 0.930 . S
C606 C604 1.384 . S
C606 C607 1.372 . S
C607 C606 1.372 . S
C607 C608 1.400 . S
C607 C612 1.490 . S
C608 H598 0.930 1_565 S
C608 C607 1.400 . S
C608 C611 1.386 . S
H609 C625 0.930 . S
H610 C626 0.931 . S
C611 H599 0.929 . S
C611 C605 1.390 . S
C611 C608 1.386 . S
C612 C607 1.490 . S
C612 C614 1.395 . S
C612 C615 1.403 . S
H613 C619 0.927 1_545 S
C614 H600 0.930 . S
C614 C612 1.395 . S
C614 C617 1.403 . S
C615 C612 1.403 . S
C615 C616 1.524 . S
C615 C619 1.400 . S
C616 H601 0.960 1_665 S
C616 H602 0.960 . S
C616 H603 0.960 1_565 S
C616 C615 1.524 . S
C617 C614 1.403 . S
C617 C618 1.392 . S
C617 C621 1.495 . S
C618 C617 1.392 . S
C618 C619 1.385 . S
C618 C620 1.478 . S
C619 H613 0.927 1_565 S
C619 C615 1.400 . S
C619 C618 1.385 . S
C620 C618 1.478 . S
C620 C622 1.381 . S
C620 C626 1.383 1_565 S
C621 C617 1.495 . S
C621 H627 0.959 . S
C621 H628 0.961 . S
C621 H629 0.960 . S
C622 C620 1.381 . S
C622 C623 1.394 . S
C622 H630 0.930 . S
C623 C622 1.394 . S
C623 C624 1.383 . S
C623 H631 0.929 . S
C624 C623 1.383 . S
C624 C625 1.377 1_565 S
C625 H609 0.930 . S
C625 C624 1.377 1_545 S
C625 C626 1.379 . S
C626 H610 0.931 . S
C626 C620 1.383 1_545 S
C626 C625 1.379 . S
H627 C621 0.959 . S
H628 C621 0.961 . S
H629 C621 0.960 . S
H630 C622 0.930 . S
H631 C623 0.929 . S
H632 C640 0.929 . S
H633 C642 0.930 . S
H634 C644 0.930 . S
H635 C647 0.929 . S
H636 C650 0.930 . S
H637 C652 0.960 . S
H638 C652 0.960 . S
H639 C652 0.960 . S
C640 H632 0.929 . S
C640 C641 1.377 . S
C640 C642 1.384 . S
C641 C640 1.377 . S
C641 C647 1.390 . S
C642 H633 0.930 . S
C642 C640 1.384 . S
C642 C643 1.372 . S
C643 C642 1.372 . S
C643 C644 1.400 . S
C643 C648 1.490 . S
C644 H634 0.930 . S
C644 C643 1.400 . S
C644 C647 1.386 . S
H645 C661 0.930 . S
H646 C662 0.931 . S
C647 H635 0.929 . S
C647 C641 1.390 . S
C647 C644 1.386 . S
C648 C643 1.490 . S
C648 C650 1.395 . S
C648 C651 1.403 . S
H649 C655 0.930 . S
C650 H636 0.930 . S
C650 C648 1.395 . S
C650 C653 1.403 . S
C651 C648 1.403 . S
C651 C652 1.524 . S
C651 C655 1.400 . S
C652 H637 0.960 . S
C652 H638 0.960 . S
C652 H639 0.960 . S
C652 C651 1.524 . S
C653 C650 1.403 . S
C653 C654 1.392 . S
C653 C657 1.495 1_545 S
C654 C653 1.392 . S
C654 C655 1.385 . S
C654 C656 1.478 . S
C655 H649 0.930 . S
C655 C651 1.400 . S
C655 C654 1.385 . S
C656 C654 1.478 . S
C656 C658 1.381 1_545 S
C656 C662 1.383 . S
C657 C653 1.495 1_565 S
C657 H663 0.959 . S
C657 H664 0.961 1_565 S
C657 H665 0.960 . S
C658 C656 1.381 1_565 S
C658 C659 1.394 . S
C658 H666 0.930 . S
C659 C658 1.394 . S
C659 C660 1.383 1_565 S
C659 H667 0.929 . S
C660 C659 1.383 1_545 S
C660 C661 1.377 . S
C661 H645 0.930 . S
C661 C660 1.377 . S
C661 C662 1.379 . S
C662 H646 0.931 . S
C662 C656 1.383 . S
C662 C661 1.379 . S
H663 C657 0.959 . S
H664 C657 0.961 1_545 S
H665 C657 0.960 . S
H666 C658 0.930 . S
H667 C659 0.929 . S
H668 C676 0.929 . S
H669 C678 0.930 . S
H670 C680 0.930 . S
H671 C683 0.929 . S
H672 C686 0.930 . S
H673 C688 0.960 . S
H674 C688 0.960 . S
H675 C688 0.960 . S
C676 H668 0.929 . S
C676 C677 1.377 . S
C676 C678 1.384 . S
C677 C676 1.377 . S
C677 C683 1.390 . S
C678 H669 0.930 . S
C678 C676 1.384 . S
C678 C679 1.372 . S
C679 C678 1.372 . S
C679 C680 1.400 . S
C679 C684 1.490 . S
C680 H670 0.930 . S
C680 C679 1.400 . S
C680 C683 1.386 . S
H681 C697 0.930 . S
H682 C698 0.931 . S
C683 H671 0.929 . S
C683 C677 1.390 . S
C683 C680 1.386 . S
C684 C679 1.490 . S
C684 C686 1.395 . S
C684 C687 1.403 . S
H685 C691 0.930 . S
C686 H672 0.930 . S
C686 C684 1.395 . S
C686 C689 1.403 . S
C687 C684 1.403 . S
C687 C688 1.524 . S
C687 C691 1.400 . S
C688 H673 0.960 . S
C688 H674 0.960 . S
C688 H675 0.960 . S
C688 C687 1.524 . S
C689 C686 1.403 . S
C689 C690 1.392 . S
C689 C693 1.495 . S
C690 C689 1.392 . S
C690 C691 1.385 . S
C690 C692 1.478 . S
C691 H685 0.930 . S
C691 C687 1.400 . S
C691 C690 1.385 . S
C692 C690 1.478 . S
C692 C694 1.381 . S
C692 C698 1.383 . S
C693 C689 1.495 . S
C693 H699 0.959 . S
C693 H700 0.961 . S
C693 H701 0.960 . S
C694 C692 1.381 . S
C694 C695 1.394 . S
C694 H702 0.930 . S
C695 C694 1.394 . S
C695 C696 1.383 . S
C695 H703 0.929 . S
C696 C695 1.383 . S
C696 C697 1.377 . S
C697 H681 0.930 . S
C697 C696 1.377 . S
C697 C698 1.379 . S
C698 H682 0.931 . S
C698 C692 1.383 . S
C698 C697 1.379 . S
H699 C693 0.959 . S
H700 C693 0.961 . S
H701 C693 0.960 . S
H702 C694 0.930 . S
H703 C695 0.929 . S
H704 C712 0.929 . S
H705 C714 0.930 . S
H706 C716 0.930 . S
H707 C719 0.929 . S
H708 C722 0.930 . S
H709 C724 0.960 . S
H710 C724 0.960 . S
H711 C724 0.960 . S
C712 H704 0.929 . S
C712 C713 1.377 . S
C712 C714 1.384 . S
C713 C712 1.377 . S
C713 C719 1.390 . S
C714 H705 0.930 . S
C714 C712 1.384 . S
C714 C715 1.372 . S
C715 C714 1.372 . S
C715 C716 1.400 . S
C715 C720 1.490 . S
C716 H706 0.930 . S
C716 C715 1.400 . S
C716 C719 1.386 . S
H717 C733 0.930 . S
H718 C734 0.931 . S
C719 H707 0.929 . S
C719 C713 1.390 . S
C719 C716 1.386 . S
C720 C715 1.490 . S
C720 C722 1.395 . S
C720 C723 1.403 . S
H721 C727 0.930 . S
C722 H708 0.930 . S
C722 C720 1.395 . S
C722 C725 1.403 . S
C723 C720 1.403 . S
C723 C724 1.524 . S
C723 C727 1.400 . S
C724 H709 0.960 . S
C724 H710 0.960 . S
C724 H711 0.960 . S
C724 C723 1.524 . S
C725 C722 1.403 . S
C725 C726 1.392 . S
C725 C729 1.495 . S
C726 C725 1.392 . S
C726 C727 1.385 . S
C726 C728 1.478 . S
C727 H721 0.930 . S
C727 C723 1.400 . S
C727 C726 1.385 . S
C728 C726 1.478 . S
C728 C730 1.381 . S
C728 C734 1.383 . S
C729 C725 1.495 . S
C729 H735 0.959 . S
C729 H736 0.961 . S
C729 H737 0.960 . S
C730 C728 1.381 . S
C730 C731 1.394 . S
C730 H738 0.930 . S
C731 C730 1.394 . S
C731 C732 1.383 . S
C731 H739 0.929 . S
C732 C731 1.383 . S
C732 C733 1.377 . S
C733 H717 0.930 . S
C733 C732 1.377 . S
C733 C734 1.379 . S
C734 H718 0.931 . S
C734 C728 1.383 . S
C734 C733 1.379 . S
H735 C729 0.959 . S
H736 C729 0.961 . S
H737 C729 0.960 . S
H738 C730 0.930 . S
H739 C731 0.929 . S
H740 C748 0.929 . S
H741 C750 0.930 . S
H742 C752 0.930 . S
H743 C755 0.929 . S
H744 C758 0.926 1_545 S
H745 C760 0.960 1_554 S
H746 C760 0.960 1_554 S
H747 C760 0.960 . S
C748 H740 0.929 . S
C748 C749 1.377 . S
C748 C750 1.384 . S
C749 C748 1.377 . S
C749 C755 1.390 . S
C750 H741 0.930 . S
C750 C748 1.384 . S
C750 C751 1.372 . S
C751 C750 1.372 . S
C751 C752 1.400 . S
C751 C756 1.490 . S
C752 H742 0.930 . S
C752 C751 1.400 . S
C752 C755 1.386 . S
H753 C769 0.930 . S
H754 C770 0.931 . S
C755 H743 0.929 . S
C755 C749 1.390 . S
C755 C752 1.386 . S
C756 C751 1.490 . S
C756 C758 1.395 . S
C756 C759 1.403 . S
H757 C763 0.930 . S
C758 H744 0.926 1_565 S
C758 C756 1.395 . S
C758 C761 1.403 . S
C759 C756 1.403 . S
C759 C760 1.524 . S
C759 C763 1.400 . S
C760 H745 0.960 1_556 S
C760 H746 0.960 1_556 S
C760 H747 0.960 . S
C760 C759 1.524 . S
C761 C758 1.403 . S
C761 C762 1.392 . S
C761 C765 1.495 1_565 S
C762 C761 1.392 . S
C762 C763 1.385 . S
C762 C764 1.478 . S
C763 H757 0.930 . S
C763 C759 1.400 . S
C763 C762 1.385 . S
C764 C762 1.478 . S
C764 C766 1.381 1_565 S
C764 C770 1.383 . S
C765 C761 1.495 1_545 S
C765 H771 0.959 . S
C765 H772 0.961 . S
C765 H773 0.960 . S
C766 C764 1.381 1_545 S
C766 C767 1.394 . S
C766 H774 0.930 . S
C767 C766 1.394 . S
C767 C768 1.383 1_545 S
C767 H775 0.929 1_556 S
C768 C767 1.383 1_565 S
C768 C769 1.377 . S
C769 H753 0.930 . S
C769 C768 1.377 . S
C769 C770 1.379 . S
C770 H754 0.931 . S
C770 C764 1.383 . S
C770 C769 1.379 . S
H771 C765 0.959 . S
H772 C765 0.961 . S
H773 C765 0.960 . S
H774 C766 0.930 . S
H775 C767 0.929 1_554 S
H776 C784 0.929 . S
H777 C786 0.930 . S
H778 C788 0.930 . S
H779 C791 0.929 . S
H780 C794 0.930 . S
H781 C796 0.960 . S
H782 C796 0.960 . S
H783 C796 0.960 . S
C784 H776 0.929 . S
C784 C785 1.377 . S
C784 C786 1.384 . S
C785 C784 1.377 . S
C785 C791 1.390 . S
C786 H777 0.930 . S
C786 C784 1.384 . S
C786 C787 1.372 . S
C787 C786 1.372 . S
C787 C788 1.400 . S
C787 C792 1.490 . S
C788 H778 0.930 . S
C788 C787 1.400 . S
C788 C791 1.386 . S
H789 C805 0.930 . S
H790 C806 0.931 . S
C791 H779 0.929 . S
C791 C785 1.390 . S
C791 C788 1.386 . S
C792 C787 1.490 . S
C792 C794 1.395 . S
C792 C795 1.403 . S
H793 C799 0.930 . S
C794 H780 0.930 . S
C794 C792 1.395 . S
C794 C797 1.403 . S
C795 C792 1.403 . S
C795 C796 1.524 . S
C795 C799 1.400 . S
C796 H781 0.960 . S
C796 H782 0.960 . S
C796 H783 0.960 . S
C796 C795 1.524 . S
C797 C794 1.403 . S
C797 C798 1.392 . S
C797 C801 1.502 . S
C798 C797 1.392 . S
C798 C799 1.385 . S
C798 C800 1.478 . S
C799 H793 0.930 . S
C799 C795 1.400 . S
C799 C798 1.385 . S
C800 C798 1.478 . S
C800 C802 1.381 . S
C800 C806 1.383 . S
C801 C797 1.502 . S
C801 H807 0.956 1_545 S
C801 H808 0.954 1_545 S
C801 H809 0.963 . S
C802 C800 1.381 . S
C802 C803 1.394 . S
C802 H810 0.930 . S
C803 C802 1.394 . S
C803 C804 1.383 . S
C803 H811 0.929 . S
C804 C803 1.383 . S
C804 C805 1.377 . S
C805 H789 0.930 . S
C805 C804 1.377 . S
C805 C806 1.379 . S
C806 H790 0.931 . S
C806 C800 1.383 . S
C806 C805 1.379 . S
H807 C801 0.956 1_565 S
H808 C801 0.954 1_565 S
H809 C801 0.963 . S
H810 C802 0.930 . S
H811 C803 0.929 . S
H812 C820 0.929 . S
H813 C822 0.930 . S
H814 C824 0.930 . S
H815 C827 0.929 . S
H816 C830 0.930 . S
H817 C832 0.960 . S
H818 C832 0.960 . S
H819 C832 0.960 . S
C820 H812 0.929 . S
C820 C821 1.377 . S
C820 C822 1.384 . S
C821 C820 1.377 . S
C821 C827 1.390 . S
C822 H813 0.930 . S
C822 C820 1.384 . S
C822 C823 1.372 . S
C823 C822 1.372 . S
C823 C824 1.400 . S
C823 C828 1.490 . S
C824 H814 0.930 . S
C824 C823 1.400 . S
C824 C827 1.386 . S
H825 C841 0.930 . S
H826 C842 0.931 . S
C827 H815 0.929 . S
C827 C821 1.390 . S
C827 C824 1.386 . S
C828 C823 1.490 . S
C828 C830 1.395 . S
C828 C831 1.403 . S
H829 C835 0.930 . S
C830 H816 0.930 . S
C830 C828 1.395 . S
C830 C833 1.403 . S
C831 C828 1.403 . S
C831 C832 1.524 . S
C831 C835 1.400 . S
C832 H817 0.960 . S
C832 H818 0.960 . S
C832 H819 0.960 . S
C832 C831 1.524 . S
C833 C830 1.403 . S
C833 C834 1.392 . S
C833 C837 1.495 1_554 S
C834 C833 1.392 . S
C834 C835 1.385 . S
C834 C836 1.478 . S
C835 H829 0.930 . S
C835 C831 1.400 . S
C835 C834 1.385 . S
C836 C834 1.478 . S
C836 C838 1.381 . S
C836 C842 1.383 . S
C837 C833 1.495 1_556 S
C837 H843 0.959 . S
C837 H844 0.961 . S
C837 H845 0.960 . S
C838 C836 1.381 . S
C838 C839 1.394 . S
C838 H846 0.930 . S
C839 C838 1.394 . S
C839 C840 1.383 . S
C839 H847 0.929 . S
C840 C839 1.383 . S
C840 C841 1.377 . S
C841 H825 0.930 . S
C841 C840 1.377 . S
C841 C842 1.379 . S
C842 H826 0.931 . S
C842 C836 1.383 . S
C842 C841 1.379 . S
H843 C837 0.959 . S
H844 C837 0.961 . S
H845 C837 0.960 . S
H846 C838 0.930 . S
H847 C839 0.929 . S
H848 C856 0.929 . S
H849 C858 0.930 . S
H850 C860 0.930 . S
H851 C863 0.929 . S
H852 C866 0.930 . S
H853 C868 0.960 . S
H854 C868 0.960 . S
H855 C868 0.960 . S
C856 H848 0.929 . S
C856 C857 1.377 . S
C856 C858 1.384 . S
C857 C856 1.377 . S
C857 C863 1.390 . S
C858 H849 0.930 . S
C858 C856 1.384 . S
C858 C859 1.372 . S
C859 C858 1.372 . S
C859 C860 1.400 . S
C859 C864 1.490 . S
C860 H850 0.930 . S
C860 C859 1.400 . S
C860 C863 1.386 . S
H861 C877 0.930 . S
H862 C878 0.931 . S
C863 H851 0.929 . S
C863 C857 1.390 . S
C863 C860 1.386 . S
C864 C859 1.490 . S
C864 C866 1.395 . S
C864 C867 1.403 . S
H865 C871 0.930 . S
C866 H852 0.930 . S
C866 C864 1.395 . S
C866 C869 1.403 . S
C867 C864 1.403 . S
C867 C868 1.524 . S
C867 C871 1.400 . S
C868 H853 0.960 . S
C868 H854 0.960 . S
C868 H855 0.960 . S
C868 C867 1.524 . S
C869 C866 1.403 . S
C869 C870 1.392 . S
C869 C873 1.495 . S
C870 C869 1.392 . S
C870 C871 1.385 . S
C870 C872 1.478 . S
C871 H865 0.930 . S
C871 C867 1.400 . S
C871 C870 1.385 . S
C872 C870 1.478 . S
C872 C874 1.381 . S
C872 C878 1.383 . S
C873 C869 1.495 . S
C873 H879 0.959 . S
C873 H880 0.961 . S
C873 H881 0.960 . S
C874 C872 1.381 . S
C874 C875 1.394 . S
C874 H882 0.930 . S
C875 C874 1.394 . S
C875 C876 1.383 . S
C875 H883 0.929 . S
C876 C875 1.383 . S
C876 C877 1.377 . S
C877 H861 0.930 . S
C877 C876 1.377 . S
C877 C878 1.379 . S
C878 H862 0.931 . S
C878 C872 1.383 . S
C878 C877 1.379 . S
H879 C873 0.959 . S
H880 C873 0.961 . S
H881 C873 0.960 . S
H882 C874 0.930 . S
H883 C875 0.929 . S
H884 C892 0.929 . S
H885 C894 0.930 . S
H886 C896 0.930 . S
H887 C899 0.929 . S
H888 C902 0.930 . S
H889 C904 0.960 . S
H890 C904 0.960 . S
H891 C904 0.960 . S
C892 H884 0.929 . S
C892 C893 1.377 . S
C892 C894 1.384 . S
C893 C892 1.377 . S
C893 C899 1.390 . S
C894 H885 0.930 . S
C894 C892 1.384 . S
C894 C895 1.372 . S
C895 C894 1.372 . S
C895 C896 1.400 . S
C895 C900 1.490 . S
C896 H886 0.930 . S
C896 C895 1.400 . S
C896 C899 1.386 . S
H897 C913 0.930 . S
H898 C914 0.931 . S
C899 H887 0.929 . S
C899 C893 1.390 . S
C899 C896 1.386 . S
C900 C895 1.490 . S
C900 C902 1.395 . S
C900 C903 1.403 . S
H901 C907 0.930 . S
C902 H888 0.930 . S
C902 C900 1.395 . S
C902 C905 1.403 . S
C903 C900 1.403 . S
C903 C904 1.524 . S
C903 C907 1.400 . S
C904 H889 0.960 . S
C904 H890 0.960 . S
C904 H891 0.960 . S
C904 C903 1.524 . S
C905 C902 1.403 . S
C905 C906 1.392 . S
C905 C909 1.495 1_556 S
C906 C905 1.392 . S
C906 C907 1.385 . S
C906 C908 1.478 . S
C907 H901 0.930 . S
C907 C903 1.400 . S
C907 C906 1.385 . S
C908 C906 1.478 . S
C908 C910 1.381 . S
C908 C914 1.383 . S
C909 C905 1.495 1_554 S
C909 H915 0.959 . S
C909 H916 0.961 . S
C909 H917 0.929 1_655 S
C910 C908 1.381 . S
C910 C911 1.391 1_655 S
C910 H918 0.930 1_655 S
C911 C910 1.391 1_455 S
C911 C912 1.368 1_455 S
C911 H919 0.948 . S
C912 C911 1.368 1_655 S
C912 C913 1.377 . S
C913 H897 0.930 . S
C913 C912 1.377 . S
C913 C914 1.379 . S
C914 H898 0.931 . S
C914 C908 1.383 . S
C914 C913 1.379 . S
H915 C909 0.959 . S
H916 C909 0.961 . S
H917 C909 0.929 1_455 S
H918 C910 0.930 1_455 S
H919 C911 0.948 . S
H920 C928 0.929 . S
H921 C930 0.930 . S
H922 C932 0.930 . S
H923 C935 0.929 . S
H924 C938 0.930 . S
H925 C940 0.960 . S
H926 C940 0.960 . S
H927 C940 0.960 . S
C928 H920 0.929 . S
C928 C929 1.377 . S
C928 C930 1.384 . S
C929 C928 1.377 . S
C929 C935 1.390 . S
C930 H921 0.930 . S
C930 C928 1.384 . S
C930 C931 1.372 . S
C931 C930 1.372 . S
C931 C932 1.400 . S
C931 C936 1.490 . S
C932 H922 0.930 . S
C932 C931 1.400 . S
C932 C935 1.386 . S
H933 C949 0.930 . S
H934 C950 0.931 . S
C935 H923 0.929 . S
C935 C929 1.390 . S
C935 C932 1.386 . S
C936 C931 1.490 . S
C936 C938 1.395 . S
C936 C939 1.403 . S
H937 C943 0.930 . S
C938 H924 0.930 . S
C938 C936 1.395 . S
C938 C941 1.403 . S
C939 C936 1.403 . S
C939 C940 1.524 . S
C939 C943 1.400 . S
C940 H925 0.960 . S
C940 H926 0.960 . S
C940 H927 0.960 . S
C940 C939 1.524 . S
C941 C938 1.403 . S
C941 C942 1.392 . S
C941 C945 1.495 . S
C942 C941 1.392 . S
C942 C943 1.385 . S
C942 C944 1.478 . S
C943 H937 0.930 . S
C943 C939 1.400 . S
C943 C942 1.385 . S
C944 C942 1.478 . S
C944 C946 1.381 . S
C944 C950 1.383 . S
C945 C941 1.495 . S
C945 H951 0.959 . S
C945 H952 0.961 . S
C945 H953 0.960 . S
C946 C944 1.381 . S
C946 C947 1.394 . S
C946 H954 0.930 . S
C947 C946 1.394 . S
C947 C948 1.383 . S
C947 H955 0.929 . S
C948 C947 1.383 . S
C948 C949 1.377 . S
C949 H933 0.930 . S
C949 C948 1.377 . S
C949 C950 1.379 . S
C950 H934 0.931 . S
C950 C944 1.383 . S
C950 C949 1.379 . S
H951 C945 0.959 . S
H952 C945 0.961 . S
H953 C945 0.960 . S
H954 C946 0.930 . S
H955 C947 0.929 . S
H956 C964 0.929 . S
H957 C966 0.930 . S
H958 C968 0.930 . S
H959 C971 0.929 . S
H960 C974 0.930 . S
H961 C976 0.960 . S
H962 C976 0.960 . S
H963 C976 0.960 . S
C964 H956 0.929 . S
C964 C965 1.377 . S
C964 C966 1.384 . S
C965 C964 1.377 . S
C965 C971 1.390 . S
C966 H957 0.930 . S
C966 C964 1.384 . S
C966 C967 1.372 . S
C967 C966 1.372 . S
C967 C968 1.400 . S
C967 C972 1.490 . S
C968 H958 0.930 . S
C968 C967 1.400 . S
C968 C971 1.386 . S
H969 C985 0.930 . S
H970 C986 0.931 . S
C971 H959 0.929 . S
C971 C965 1.390 . S
C971 C968 1.386 . S
C972 C967 1.490 . S
C972 C974 1.395 . S
C972 C975 1.403 . S
H973 C979 0.930 . S
C974 H960 0.930 . S
C974 C972 1.395 . S
C974 C977 1.403 . S
C975 C972 1.403 . S
C975 C976 1.524 . S
C975 C979 1.400 . S
C976 H961 0.960 . S
C976 H962 0.960 . S
C976 H963 0.960 . S
C976 C975 1.524 . S
C977 C974 1.403 . S
C977 C978 1.392 . S
C977 C981 1.495 . S
C978 C977 1.392 . S
C978 C979 1.385 . S
C978 C980 1.478 . S
C979 H973 0.930 . S
C979 C975 1.400 . S
C979 C978 1.385 . S
C980 C978 1.478 . S
C980 C982 1.381 . S
C980 C986 1.383 . S
C981 C977 1.495 . S
C981 H987 0.959 . S
C981 H988 0.947 1_455 S
C981 H989 0.960 . S
C982 C980 1.381 . S
C982 C983 1.394 . S
C982 H990 0.930 . S
C983 C982 1.394 . S
C983 C984 1.383 . S
C983 H991 0.929 . S
C984 C983 1.383 . S
C984 C985 1.377 . S
C985 H969 0.930 . S
C985 C984 1.377 . S
C985 C986 1.379 . S
C986 H970 0.931 . S
C986 C980 1.383 . S
C986 C985 1.379 . S
H987 C981 0.959 . S
H988 C981 0.947 1_655 S
H989 C981 0.960 . S
H990 C982 0.930 . S
H991 C983 0.929 . S
H992 C1000 0.929 . S
H993 C1002 0.930 . S
H994 C1004 0.930 . S
H995 C1007 0.929 . S
H996 C1010 0.930 . S
H997 C1012 0.960 . S
H998 C1012 0.960 . S
H999 C1012 0.960 . S
C1000 H992 0.929 . S
C1000 C1001 1.377 . S
C1000 C1002 1.384 . S
C1001 C1000 1.377 . S
C1001 C1007 1.390 . S
C1002 H993 0.930 . S
C1002 C1000 1.384 . S
C1002 C1003 1.372 . S
C1003 C1002 1.372 . S
C1003 C1004 1.400 . S
C1003 C1008 1.490 . S
C1004 H994 0.930 . S
C1004 C1003 1.400 . S
C1004 C1007 1.386 . S
H1005 C1021 0.930 . S
H1006 C1022 0.931 . S
C1007 H995 0.929 . S
C1007 C1001 1.390 . S
C1007 C1004 1.386 . S
C1008 C1003 1.490 . S
C1008 C1010 1.395 . S
C1008 C1011 1.403 . S
H1009 C1015 0.930 . S
C1010 H996 0.930 . S
C1010 C1008 1.395 . S
C1010 C1013 1.403 . S
C1011 C1008 1.403 . S
C1011 C1012 1.524 . S
C1011 C1015 1.400 . S
C1012 H997 0.960 . S
C1012 H998 0.960 . S
C1012 H999 0.960 . S
C1012 C1011 1.524 . S
C1013 C1010 1.403 . S
C1013 C1014 1.392 . S
C1013 C1017 1.495 . S
C1014 C1013 1.392 . S
C1014 C1015 1.385 . S
C1014 C1016 1.478 . S
C1015 H1009 0.930 . S
C1015 C1011 1.400 . S
C1015 C1014 1.385 . S
C1016 C1014 1.478 . S
C1016 C1018 1.381 . S
C1016 C1022 1.383 . S
C1017 C1013 1.495 . S
C1017 H1023 0.959 . S
C1017 H1024 0.961 . S
C1017 H1025 0.960 . S
C1018 C1016 1.381 . S
C1018 C1019 1.394 . S
C1018 H1026 0.930 . S
C1019 C1018 1.394 . S
C1019 C1020 1.383 . S
C1019 H1027 0.929 . S
C1020 C1019 1.383 . S
C1020 C1021 1.377 . S
C1021 H1005 0.930 . S
C1021 C1020 1.377 . S
C1021 C1022 1.379 . S
C1022 H1006 0.931 . S
C1022 C1016 1.383 . S
C1022 C1021 1.379 . S
H1023 C1017 0.959 . S
H1024 C1017 0.961 . S
H1025 C1017 0.960 . S
H1026 C1018 0.930 . S
H1027 C1019 0.929 . S
C173 C5 1.591 . S
C192 C90 1.547 . S
C209 C14 1.569 . S
C228 C114 1.526 . S
C264 C134 1.366 . S
C245 C25 1.365 . S
C281 C34 1.373 . S
C300 C157 1.375 . S
C336 C116 1.656 . S
C317 C7 1.683 . S
C372 C92 1.626 . S
C353 C13 1.691 . S
C408 C160 1.536 . S
C389 C23 1.556 . S
C444 C137 1.486 . S
C425 C31 1.535 . S
C461 C4 1.379 . S
C480 C162 1.361 . S
C516 C111 1.595 . S
C497 C22 1.591 . S
C533 C32 1.591 . S
C552 C89 1.592 . S
C569 C16 1.352 . S
C588 C139 1.325 . S
C624 C93 1.534 . S
C605 C41 1.559 . S
C641 C50 1.540 . S
C660 C115 1.525 . S
C677 C61 1.680 . S
C696 C135 1.693 . S
C713 C67 1.693 . S
C732 C158 1.706 . S
C749 C40 1.478 . S
C768 C113 1.475 . S
C804 C91 1.458 . S
C785 C52 1.450 . S
C840 C161 1.435 . S
C821 C59 1.442 . S
C876 C138 1.452 . S
C857 C70 1.463 . S
C893 C43 1.798 . S
C912 C159 1.772 . S
C948 C112 1.482 . S
C929 C58 1.470 . S
C984 C88 1.477 . S
C965 C68 1.456 . S
C1001 C49 1.784 . S
C1020 C136 1.760 . S
