# Generated by pormake.
# Topology ptr, (4,4)-cn, num edge types: 1
# Building blocks:
#     Node 0, Type 0, BuildingBlock: UXUYUI_clean_sbu_0, # of connection points: 4
#     Node 1, Type 0, BuildingBlock: UXUYUI_clean_sbu_0, # of connection points: 4
#     Node 2, Type 0, BuildingBlock: UXUYUI_clean_sbu_0, # of connection points: 4
#     Node 3, Type 0, BuildingBlock: UXUYUI_clean_sbu_0, # of connection points: 4
#     Node 4, Type 0, BuildingBlock: UXUYUI_clean_sbu_0, # of connection points: 4
#     Node 5, Type 0, BuildingBlock: UXUYUI_clean_sbu_0, # of connection points: 4
#     Node 6, Type 0, BuildingBlock: UXUYUI_clean_sbu_0, # of connection points: 4
#     Node 7, Type 0, BuildingBlock: UXUYUI_clean_sbu_0, # of connection points: 4
#     Node 8, Type 0, BuildingBlock: UXUYUI_clean_sbu_0, # of connection points: 4
#     Node 9, Type 0, BuildingBlock: UXUYUI_clean_sbu_0, # of connection points: 4
#     Node 10, Type 0, BuildingBlock: UXUYUI_clean_sbu_0, # of connection points: 4
#     Node 11, Type 0, BuildingBlock: UXUYUI_clean_sbu_0, # of connection points: 4
#     Node 12, Type 0, BuildingBlock: UXUYUI_clean_sbu_0, # of connection points: 4
#     Node 13, Type 0, BuildingBlock: UXUYUI_clean_sbu_0, # of connection points: 4
#     Node 14, Type 0, BuildingBlock: UXUYUI_clean_sbu_0, # of connection points: 4
#     Node 15, Type 0, BuildingBlock: UXUYUI_clean_sbu_0, # of connection points: 4
#     Node 16, Type 0, BuildingBlock: UXUYUI_clean_sbu_0, # of connection points: 4
#     Node 17, Type 0, BuildingBlock: UXUYUI_clean_sbu_0, # of connection points: 4
#     Node 18, Type 1, BuildingBlock: KUFVIS_clean_linker_0, # of connection points: 4
#     Node 19, Type 1, BuildingBlock: KUFVIS_clean_linker_0, # of connection points: 4
#     Node 20, Type 1, BuildingBlock: KUFVIS_clean_linker_0, # of connection points: 4
#     Node 21, Type 1, BuildingBlock: KUFVIS_clean_linker_0, # of connection points: 4
#     Node 22, Type 1, BuildingBlock: KUFVIS_clean_linker_0, # of connection points: 4
#     Node 23, Type 1, BuildingBlock: KUFVIS_clean_linker_0, # of connection points: 4
#     Node 24, Type 1, BuildingBlock: KUFVIS_clean_linker_0, # of connection points: 4
#     Node 25, Type 1, BuildingBlock: KUFVIS_clean_linker_0, # of connection points: 4
#     Node 26, Type 1, BuildingBlock: KUFVIS_clean_linker_0, # of connection points: 4
#     Node 27, Type 1, BuildingBlock: KUFVIS_clean_linker_0, # of connection points: 4
#     Node 28, Type 1, BuildingBlock: KUFVIS_clean_linker_0, # of connection points: 4
#     Node 29, Type 1, BuildingBlock: KUFVIS_clean_linker_0, # of connection points: 4
#     Node 30, Type 1, BuildingBlock: KUFVIS_clean_linker_0, # of connection points: 4
#     Node 31, Type 1, BuildingBlock: KUFVIS_clean_linker_0, # of connection points: 4
#     Node 32, Type 1, BuildingBlock: KUFVIS_clean_linker_0, # of connection points: 4
#     Node 33, Type 1, BuildingBlock: KUFVIS_clean_linker_0, # of connection points: 4
#     Node 34, Type 1, BuildingBlock: KUFVIS_clean_linker_0, # of connection points: 4
#     Node 35, Type 1, BuildingBlock: KUFVIS_clean_linker_0, # of connection points: 4
#     Edge 36, Type (0, 1), None
#     Edge 37, Type (0, 1), None
#     Edge 38, Type (0, 1), None
#     Edge 39, Type (0, 1), None
#     Edge 40, Type (0, 1), None
#     Edge 41, Type (0, 1), None
#     Edge 42, Type (0, 1), None
#     Edge 43, Type (0, 1), None
#     Edge 44, Type (0, 1), None
#     Edge 45, Type (0, 1), None
#     Edge 46, Type (0, 1), None
#     Edge 47, Type (0, 1), None
#     Edge 48, Type (0, 1), None
#     Edge 49, Type (0, 1), None
#     Edge 50, Type (0, 1), None
#     Edge 51, Type (0, 1), None
#     Edge 52, Type (0, 1), None
#     Edge 53, Type (0, 1), None
#     Edge 54, Type (0, 1), None
#     Edge 55, Type (0, 1), None
#     Edge 56, Type (0, 1), None
#     Edge 57, Type (0, 1), None
#     Edge 58, Type (0, 1), None
#     Edge 59, Type (0, 1), None
#     Edge 60, Type (0, 1), None
#     Edge 61, Type (0, 1), None
#     Edge 62, Type (0, 1), None
#     Edge 63, Type (0, 1), None
#     Edge 64, Type (0, 1), None
#     Edge 65, Type (0, 1), None
#     Edge 66, Type (0, 1), None
#     Edge 67, Type (0, 1), None
#     Edge 68, Type (0, 1), None
#     Edge 69, Type (0, 1), None
#     Edge 70, Type (0, 1), None
#     Edge 71, Type (0, 1), None
#     Edge 72, Type (0, 1), None
#     Edge 73, Type (0, 1), None
#     Edge 74, Type (0, 1), None
#     Edge 75, Type (0, 1), None
#     Edge 76, Type (0, 1), None
#     Edge 77, Type (0, 1), None
#     Edge 78, Type (0, 1), None
#     Edge 79, Type (0, 1), None
#     Edge 80, Type (0, 1), None
#     Edge 81, Type (0, 1), None
#     Edge 82, Type (0, 1), None
#     Edge 83, Type (0, 1), None
#     Edge 84, Type (0, 1), None
#     Edge 85, Type (0, 1), None
#     Edge 86, Type (0, 1), None
#     Edge 87, Type (0, 1), None
#     Edge 88, Type (0, 1), None
#     Edge 89, Type (0, 1), None
#     Edge 90, Type (0, 1), None
#     Edge 91, Type (0, 1), None
#     Edge 92, Type (0, 1), None
#     Edge 93, Type (0, 1), None
#     Edge 94, Type (0, 1), None
#     Edge 95, Type (0, 1), None
#     Edge 96, Type (0, 1), None
#     Edge 97, Type (0, 1), None
#     Edge 98, Type (0, 1), None
#     Edge 99, Type (0, 1), None
#     Edge 100, Type (0, 1), None
#     Edge 101, Type (0, 1), None
#     Edge 102, Type (0, 1), None
#     Edge 103, Type (0, 1), None
#     Edge 104, Type (0, 1), None
#     Edge 105, Type (0, 1), None
#     Edge 106, Type (0, 1), None
#     Edge 107, Type (0, 1), None
# Relax obj value: 0.092
# Max RMSD: 0.234
# Mean RMSD: 0.128
data_MOF--net-ptr--node1-UXUYUI_clean_sbu_0--node2-KUFVIS_clean_linker_0--edge1-none
_symmetry_space_group_name_H-M    P1
_symmetry_Int_Tables_number       1
_symmetry_cell_setting            triclinic
loop_
_symmetry_equiv_pos_as_xyz
'x, y, z'
_cell_length_a     54.222628
_cell_length_b     54.233448
_cell_length_c     32.723434
_cell_angle_alpha  90.067667
_cell_angle_beta   90.01044
_cell_angle_gamma 120.07723
loop_
_atom_site_label
_atom_site_type_symbol
_atom_site_fract_x
_atom_site_fract_y
_atom_site_fract_z
_atom_type_partial_charge
Li0 Li 0.99621 0.34986 0.00185 0.0
Li1 Li 0.04914 0.37684 0.003 0.0
Li2 Li 1.01992 0.39516 0.0393 0.0
Li3 Li 0.02375 0.39725 0.96481 0.0
C4 C 1.01085 0.33439 0.07071 0.0
N5 N 0.98704 0.28177 0.10828 0.0
C6 C 0.02707 0.32122 0.07681 0.0
C7 C 0.98282 0.32122 0.085 0.0
C8 C 1.01466 0.29463 0.09585 0.0
C9 C 0.97099 0.29438 0.10321 0.0
C10 C 0.0377 0.35428 0.9264 0.0
C11 C 0.07486 0.36938 0.876 0.0
N12 N 0.06876 0.34193 0.87175 0.0
C13 C 0.03139 0.32615 0.92095 0.0
C14 C 0.05922 0.37601 0.90323 0.0
C15 C 0.04742 0.32035 0.89325 0.0
C16 C 0.93767 0.3105 0.98516 0.0
N17 N 0.96283 0.31234 -0.00434 0.0
C18 C 0.94391 0.26298 0.97974 0.0
C19 C 0.96582 0.28889 -0.00497 0.0
C20 C 0.91891 0.26137 0.96443 0.0
C21 C 0.91523 0.28501 0.9697 0.0
H22 H 0.93587 0.32944 0.98502 0.0
H23 H 0.9861 0.29086 0.00298 0.0
C24 C 0.10713 0.39745 0.02319 0.0
N25 N 0.08373 0.37461 0.00686 0.0
C26 C 0.13011 0.39486 0.03716 0.0
C27 C 0.10567 0.34596 0.01453 0.0
C28 C 0.0833 0.34959 0.00034 0.0
C29 C 0.12862 0.36828 0.03554 0.0
H30 H 0.10686 0.41689 0.02919 0.0
H31 H 0.06426 0.33142 0.98852 0.0
C32 C 0.96859 0.38891 0.00886 0.0
N33 N 0.9276 0.40275 0.02969 0.0
C34 C 0.96618 0.40966 0.98676 0.0
C35 C 0.95002 0.37508 0.04137 0.0
C36 C 0.94534 0.41638 -0.0022 0.0
C37 C 0.92948 0.38242 0.05148 0.0
C38 C 0.07563 0.44298 -0.00342 0.0
C39 C 0.07626 0.46619 0.0163 0.0
C40 C 0.09676 0.44771 0.9681 0.0
C41 C 0.09785 0.49377 0.00676 0.0
C42 C 0.11798 0.47561 0.9594 0.0
N43 N 0.11807 0.49788 0.97872 0.0
C44 C 0.03656 0.41717 0.11668 0.0
C45 C 1.00782 0.43333 0.08545 0.0
C46 C 0.03971 0.43337 0.15137 0.0
N47 N 1.0204 0.41701 0.08494 0.0
C48 C 1.00983 0.44937 0.12004 0.0
C49 C 0.02555 0.44911 0.15392 0.0
H50 H 0.04712 0.40476 0.11486 0.0
H51 H 0.99638 0.43419 0.05908 0.0
C52 C 1.00568 0.40171 0.8878 0.0
N53 N 0.02286 0.41799 0.91865 0.0
C54 C 1.00222 0.41447 0.85306 0.0
C55 C 0.0339 0.46068 0.88254 0.0
C56 C 0.03636 0.44696 0.91712 0.0
C57 C 1.01697 0.44438 0.84963 0.0
H58 H 0.99452 0.37873 0.89041 0.0
H59 H 0.04894 0.45955 0.9426 0.0
O60 O 1.02238 0.36004 0.05095 0.0
O61 O 0.02311 0.36055 0.95462 0.0
O62 O 0.98887 0.38209 -0.00158 0.0
O63 O 0.05467 0.41582 0.00564 0.0
H64 H 0.04907 0.33149 0.06729 0.0
H65 H 0.97012 0.33129 0.08124 0.0
H66 H 0.02698 0.28419 0.10066 0.0
H67 H 0.94912 0.2837 0.11365 0.0
H68 H 0.09184 0.38604 0.85823 0.0
H69 H 1.01461 0.30904 0.9384 0.0
H70 H 0.06384 0.39776 0.90638 0.0
H71 H 0.04302 0.29873 0.889 0.0
H72 H 0.94796 0.24555 0.97499 0.0
H73 H 0.89675 0.28496 0.95697 0.0
H74 H 0.14689 0.41227 0.05438 0.0
H75 H 0.10318 0.32486 0.014 0.0
H76 H 0.98028 0.42055 0.96144 0.0
H77 H 0.9515 0.35895 0.05872 0.0
H78 H 0.9433 0.43245 0.98105 0.0
H79 H 0.91505 0.37195 0.07667 0.0
H80 H 0.06018 0.46298 0.03853 0.0
H81 H 0.09695 0.43002 0.95315 0.0
H82 H 0.09852 0.51192 0.02164 0.0
H83 H 0.13444 0.47957 0.93738 0.0
H84 H 0.05284 0.43321 0.1762 0.0
H85 H 0.99875 0.46133 0.12053 0.0
H86 H 0.9883 0.40099 0.82893 0.0
H87 H 0.04563 0.48374 0.88125 0.0
Li88 Li 0.68728 0.65225 -0.00038 0.0
Li89 Li 0.66065 0.67841 0.00342 0.0
Li90 Li 0.64254 0.63034 0.03912 0.0
Li91 Li 0.63885 0.63309 0.96475 0.0
C92 C 0.70146 0.67618 0.07344 0.0
N93 N 0.75024 0.69289 0.11881 0.0
C94 C 0.72135 0.70511 0.07819 0.0
C95 C 0.70597 0.65578 0.0926 0.0
C96 C 0.74593 0.71313 0.10122 0.0
C97 C 0.73091 0.66464 0.11511 0.0
C98 C 0.68299 0.69131 0.92821 0.0
C99 C 0.66929 0.71809 0.88442 0.0
N100 N 0.69722 0.73814 0.87972 0.0
C101 C 0.71159 0.71189 0.9224 0.0
C102 C 0.66167 0.69413 0.90859 0.0
C103 C 0.71835 0.73548 0.89781 0.0
C104 C 0.72671 0.63337 0.98132 0.0
N105 N 0.72482 0.65629 -0.00603 0.0
C106 C 0.77503 0.68678 0.98391 0.0
C107 C 0.74858 0.68248 -0.0029 0.0
C108 C 0.77696 0.66405 0.96666 0.0
C109 C 0.75275 0.63673 0.96799 0.0
H110 H 0.70759 0.61293 0.97786 0.0
H111 H 0.74663 0.70058 0.00617 0.0
C112 C 0.64128 0.71755 0.02139 0.0
N113 N 0.66418 0.71584 0.00818 0.0
C114 C 0.64444 0.74369 0.03392 0.0
C115 C 0.6942 0.76634 0.01621 0.0
C116 C 0.69008 0.73979 0.00374 0.0
C117 C 0.67159 0.76819 0.03402 0.0
H118 H 0.62108 0.69832 0.02591 0.0
H119 H 0.7082 0.73802 -0.00581 0.0
C120 C 0.6469 0.58499 0.00357 0.0
N121 N 0.63156 0.52888 0.01795 0.0
C122 C 0.62306 0.56293 0.98411 0.0
C123 C 0.663 0.57849 0.03023 0.0
C124 C 0.61564 0.53471 -0.00819 0.0
C125 C 0.65487 0.55 0.03713 0.0
C126 C 0.5935 0.63727 0.00077 0.0
C127 C 0.57175 0.6133 0.02033 0.0
C128 C 0.58655 0.65316 0.97443 0.0
C129 C 0.54338 0.60557 0.01307 0.0
C130 C 0.55792 0.64473 0.96797 0.0
N131 N 0.53711 0.62131 0.98725 0.0
C132 C 0.62141 0.62525 0.11657 0.0
C133 C 0.60892 0.57998 0.08935 0.0
C134 C 0.60615 0.61266 0.15206 0.0
N135 N 0.62267 0.60893 0.08618 0.0
C136 C 0.5938 0.56645 0.1248 0.0
C137 C 0.59238 0.58285 0.1569 0.0
H138 H 0.63188 0.64812 0.11279 0.0
H139 H 0.60914 0.56717 0.06441 0.0
C140 C 0.63347 0.60998 0.8887 0.0
N141 N 0.61726 0.61245 0.91814 0.0
C142 C 0.62086 0.59437 0.8534 0.0
C143 C 0.57484 0.58393 0.87905 0.0
C144 C 0.58837 0.5994 0.91434 0.0
C145 C 0.59118 0.5815 0.84779 0.0
H146 H 0.65628 0.61993 0.89299 0.0
H147 H 0.57561 0.6006 0.93854 0.0
O148 O 0.67797 0.66781 0.04943 0.0
O149 O 0.67584 0.66877 0.95365 0.0
O150 O 0.65457 0.61276 -0.00382 0.0
O151 O 0.62139 0.64525 0.00776 0.0
H152 H 0.71804 0.72116 0.06378 0.0
H153 H 0.69051 0.63336 0.08972 0.0
H154 H 0.76166 0.73543 0.1049 0.0
H155 H 0.73489 0.64907 0.12966 0.0
H156 H 0.653 0.72075 0.86941 0.0
H157 H 0.72833 0.70988 0.9372 0.0
H158 H 0.63949 0.67811 0.91232 0.0
H159 H 0.74037 0.75174 0.8933 0.0
H160 H 0.79288 0.70835 0.98203 0.0
H161 H 0.75302 0.61888 0.95355 0.0
H162 H 0.6267 0.7439 0.04881 0.0
H163 H 0.71567 0.78443 0.01713 0.0
H164 H 0.61028 0.56749 0.96351 0.0
H165 H 0.68159 0.59524 0.04539 0.0
H166 H 0.5972 0.51744 0.97706 0.0
H167 H 0.6671 0.54467 0.05772 0.0
H168 H 0.57668 0.60069 0.04072 0.0
H169 H 0.60306 0.67182 0.95914 0.0
H170 H 0.52635 0.58704 0.02792 0.0
H171 H 0.55224 0.65681 0.94763 0.0
H172 H 0.60493 0.62624 0.1753 0.0
H173 H 0.58352 0.54348 0.12704 0.0
H174 H 0.63431 0.5924 0.83071 0.0
H175 H 0.55196 0.57435 0.87611 0.0
Li176 Li 0.40277 1.01219 0.96046 0.0
Li177 Li 0.40515 0.0165 0.03497 0.0
Li178 Li 0.3576 0.98871 -0.00191 0.0
Li179 Li 0.38453 0.04164 -0.00345 0.0
C180 C 0.39691 0.96123 -0.0085 0.0
N181 N 0.4112 0.92045 0.97129 0.0
C182 C 0.41796 0.95929 0.01359 0.0
C183 C 0.38301 0.94228 0.95932 0.0
C184 C 0.4249 0.93856 0.00286 0.0
C185 C 0.39058 0.92186 0.94952 0.0
C186 C 0.45076 0.06813 0.00273 0.0
C187 C 0.48358 0.11061 0.03966 0.0
N188 N 0.50575 0.11057 0.02031 0.0
C189 C 0.47387 0.06863 0.98298 0.0
C190 C 0.45562 0.08939 0.03111 0.0
C191 C 0.50151 0.09022 -0.00763 0.0
C192 C 0.42419 0.0279 0.88266 0.0
N193 N 0.42443 1.01229 0.91482 0.0
C194 C 0.45692 1.00172 0.88009 0.0
C195 C 0.441 0.99997 0.91467 0.0
C196 C 0.45631 0.01692 0.84584 0.0
C197 C 0.44027 0.03081 0.84797 0.0
H198 H 0.41158 0.03826 0.88416 0.0
H199 H 0.44218 0.98897 0.94133 0.0
C200 C 0.40987 0.99842 0.11178 0.0
N201 N 0.42609 0.01581 0.08113 0.0
C202 C 0.4227 0.99485 0.14639 0.0
C203 C 0.46886 0.02689 0.11724 0.0
C204 C 0.45508 0.02947 0.08278 0.0
C205 C 0.45261 1.0097 0.14991 0.0
H206 H 0.38688 0.98714 0.10907 0.0
H207 H 0.46764 0.04223 0.05747 0.0
C208 C 0.34186 1.00256 0.9291 0.0
N209 N 0.28902 0.97762 0.89181 0.0
C210 C 0.32789 0.01808 0.92366 0.0
C211 C 0.32936 0.97467 0.91435 0.0
C212 C 0.30119 1.0051 0.90474 0.0
C213 C 0.30241 0.96225 0.89627 0.0
C214 C 0.36204 0.03059 0.07297 0.0
C215 C 0.33385 0.02417 0.07813 0.0
C216 C 0.38371 0.0524 0.09593 0.0
C217 C 0.32794 0.0404 0.10532 0.0
C218 C 0.37696 0.06824 0.12263 0.0
N219 N 0.34946 0.06204 0.12659 0.0
C220 C 0.31837 0.93017 0.01475 0.0
C221 C 0.29653 0.9581 0.00477 0.0
C222 C 0.29291 0.90764 0.03004 0.0
N223 N 0.32009 0.95526 0.00427 0.0
C224 C 0.27066 0.9361 0.01993 0.0
C225 C 0.26917 0.91117 0.0352 0.0
H226 H 0.33737 0.92847 0.015 0.0
H227 H 0.2984 0.97831 -0.00319 0.0
C228 C 0.40515 0.09969 0.97634 0.0
N229 N 0.38229 0.07628 -0.00752 0.0
C230 C 0.40264 0.12276 0.96257 0.0
C231 C 0.35373 0.09837 0.98498 0.0
C232 C 0.35729 0.07591 -0.00105 0.0
C233 C 0.3761 0.12137 0.96421 0.0
H234 H 0.42459 0.09941 0.97037 0.0
H235 H 0.33909 0.05688 0.01065 0.0
O236 O 0.38986 0.98141 0.00163 0.0
O237 O 0.42355 0.04716 -0.00617 0.0
O238 O 0.36759 1.01461 0.9488 0.0
O239 O 0.36844 0.01584 0.04517 0.0
H240 H 0.42892 0.97369 0.03865 0.0
H241 H 0.36662 0.94335 0.94201 0.0
H242 H 0.44121 0.9369 0.01961 0.0
H243 H 0.38005 0.90714 0.92459 0.0
H244 H 0.48764 0.12717 0.0616 0.0
H245 H 0.47056 0.05245 0.96084 0.0
H246 H 0.43801 0.08967 0.0461 0.0
H247 H 0.51959 0.09079 0.97746 0.0
H248 H 0.46911 0.99087 0.87996 0.0
H249 H 0.43985 0.04359 0.82287 0.0
H250 H 0.40925 0.98074 0.17032 0.0
H251 H 0.49192 0.0387 0.11862 0.0
H252 H 0.33758 0.03995 0.93366 0.0
H253 H 0.34005 0.96252 0.91763 0.0
H254 H 0.29012 0.01686 0.90045 0.0
H255 H 0.29225 0.94048 0.88545 0.0
H256 H 0.3168 1.00717 0.06085 0.0
H257 H 0.4055 0.0571 0.09301 0.0
H258 H 0.30627 0.03592 0.10933 0.0
H259 H 0.39357 0.08545 0.14023 0.0
H260 H 0.29296 0.88922 0.04275 0.0
H261 H 0.25315 0.94004 0.0246 0.0
H262 H 0.42009 0.13956 0.94551 0.0
H263 H 0.33265 0.09593 0.9855 0.0
Li264 Li 0.04887 0.68002 0.00522 0.0
Li265 Li 1.01917 0.63245 0.03837 0.0
Li266 Li 0.02751 0.63648 0.96378 0.0
Li267 Li 0.99787 0.65453 -0.00328 0.0
C268 C 0.07753 0.65222 0.03464 0.0
N269 N 0.12046 0.66219 0.08925 0.0
C270 C 0.07929 0.66533 0.07225 0.0
C271 C 0.09753 0.64407 0.02495 0.0
C272 C 0.10118 0.67023 0.09938 0.0
C273 C 0.11909 0.64932 0.05294 0.0
C274 C 1.00196 0.67503 0.07095 0.0
C275 C 0.95595 0.66033 0.10079 0.0
N276 N 0.96544 0.68759 0.11306 0.0
C277 C 1.01136 0.70282 0.08436 0.0
C278 C 0.97413 0.65353 0.07964 0.0
C279 C 0.99255 0.70877 0.10548 0.0
C280 C 0.07619 0.74003 0.01644 0.0
N281 N 0.08168 0.71835 0.01124 0.0
C282 C 0.13106 0.74974 0.02646 0.0
C283 C 0.10889 0.72331 0.0131 0.0
C284 C 0.12511 0.77121 0.03776 0.0
C285 C 0.09773 0.76681 0.02966 0.0
H286 H 0.0546 0.73593 0.01328 0.0
H287 H 0.11319 0.70624 0.00712 0.0
C288 C 0.02697 0.5913 0.08163 0.0
N289 N 1.01561 0.60867 0.08439 0.0
C290 C 0.02775 0.57619 0.11589 0.0
C291 C 1.00327 0.59549 0.15428 0.0
C292 C 1.00344 0.61057 0.11965 0.0
C293 C 1.01649 0.57881 0.15327 0.0
H294 H 0.03651 0.59008 0.05323 0.0
H295 H 0.99468 0.62451 0.1215 0.0
C296 C 0.0451 0.69642 0.93136 0.0
N297 N 0.08238 0.74598 0.89078 0.0
C298 C 0.03618 0.71533 0.91876 0.0
C299 C 0.07282 0.70247 0.92259 0.0
C300 C 0.05538 0.74033 0.89846 0.0
C301 C 0.09138 0.72769 0.90222 0.0
C302 C 0.96914 0.59784 0.96763 0.0
C303 C 0.9673 0.60904 0.92998 0.0
C304 C 0.94924 0.56966 0.97742 0.0
C305 C 0.94542 0.59186 0.90291 0.0
C306 C 0.92768 0.55315 0.94948 0.0
N307 N 0.92623 0.5645 0.91314 0.0
C308 C 1.01934 0.5872 0.92088 0.0
C309 C 0.04308 0.62984 0.88256 0.0
C310 C 1.01829 0.57107 0.88672 0.0
N311 N 0.0309 0.61596 0.91792 0.0
C312 C 0.04302 0.61468 0.84802 0.0
C313 C 0.02952 0.58473 0.84922 0.0
H314 H 1.0098 0.5766 0.94937 0.0
H315 H 0.05201 0.65259 0.88056 0.0
C316 C 0.97045 0.68706 0.98539 0.0
N317 N 0.96505 0.65993 -0.00926 0.0
C318 C 0.94886 0.69212 0.972 0.0
C319 C 0.91564 0.64164 0.97553 0.0
C320 C 0.93786 0.63756 0.98897 0.0
C321 C 0.9215 0.66898 0.96404 0.0
H322 H 0.992 0.70465 0.98857 0.0
H323 H 0.93362 0.61623 -0.00489 0.0
O324 O 0.05619 0.64695 0.00756 0.0
O325 O 1.01978 0.66893 0.04911 0.0
O326 O 0.02697 0.67235 0.9527 0.0
O327 O 0.9905 0.6141 -0.00537 0.0
H328 H 0.06404 0.67176 0.08047 0.0
H329 H 0.09638 0.63379 -0.00394 0.0
H330 H 0.10283 0.68043 0.1285 0.0
H331 H 0.13473 0.64315 0.04581 0.0
H332 H 0.93428 0.64395 0.1073 0.0
H333 H 0.03297 0.71963 0.07874 0.0
H334 H 0.96648 0.6319 0.06936 0.0
H335 H 0.99952 0.73021 0.11593 0.0
H336 H 0.15173 0.75207 0.03284 0.0
H337 H 0.09213 0.78262 0.03863 0.0
H338 H 0.03839 0.56386 0.11364 0.0
H339 H 0.99385 0.59781 0.18214 0.0
H340 H 1.01467 0.71076 0.92443 0.0
H341 H 0.08012 0.68814 0.93234 0.0
H342 H 0.0488 0.75521 0.88869 0.0
H343 H 0.11298 0.73278 0.89568 0.0
H344 H 0.98249 0.63074 0.92168 0.0
H345 H 0.95046 0.56064 0.00634 0.0
H346 H 0.9437 0.60027 0.87376 0.0
H347 H 0.91211 0.5313 0.95669 0.0
H348 H 1.00745 0.54807 0.88914 0.0
H349 H 0.05246 0.6263 0.82008 0.0
H350 H 0.95439 0.71348 0.96291 0.0
H351 H 0.89499 0.62319 0.96925 0.0
Li352 Li 0.35819 0.37797 0.00091 0.0
Li353 Li 0.40462 0.39807 0.03786 0.0
Li354 Li 0.40444 0.39645 0.96304 0.0
Li355 Li 0.38574 0.35081 0.00112 0.0
C356 C 0.38719 0.43685 0.97895 0.0
N357 N 0.37801 0.47579 0.93728 0.0
C358 C 0.39565 0.46352 -0.00386 0.0
C359 C 0.37419 0.43001 0.94051 0.0
C360 C 0.39077 0.48291 0.97461 0.0
C361 C 0.36971 0.44998 0.91994 0.0
C362 C 0.35342 0.34628 0.08046 0.0
C363 C 0.33562 0.30529 0.12466 0.0
N364 N 0.32069 0.31495 0.1461 0.0
C365 C 0.3379 0.35582 0.10292 0.0
C366 C 0.3524 0.32089 0.09154 0.0
C367 C 0.32154 0.33967 0.13606 0.0
C368 C 0.29822 0.34582 0.01247 0.0
N369 N 0.32016 0.3728 0.00632 0.0
C370 C 0.29057 0.39195 0.02638 0.0
C371 C 0.31635 0.39561 0.01126 0.0
C372 C 0.26871 0.36465 0.03736 0.0
C373 C 0.27216 0.34124 0.02802 0.0
H374 H 0.30183 0.32803 0.00904 0.0
H375 H 0.33401 0.41693 0.0073 0.0
C376 C 0.45317 0.434 0.0881 0.0
N377 N 0.42446 0.42201 0.08341 0.0
C378 C 0.46697 0.45166 0.12161 0.0
C379 C 0.42182 0.44612 0.14298 0.0
C380 C 0.40888 0.42839 0.10933 0.0
C381 C 0.4511 0.45731 0.15011 0.0
H382 H 0.4654 0.42968 0.06615 0.0
H383 H 0.38628 0.4194 0.10409 0.0
C384 C 0.3525 0.34616 0.92166 0.0
N385 N 0.31946 0.3151 0.85604 0.0
C386 C 0.35912 0.32789 0.90032 0.0
C387 C 0.3292 0.34875 0.90947 0.0
C388 C 0.34213 0.31238 0.86718 0.0
C389 C 0.31274 0.33286 0.87627 0.0
C390 C 0.4432 0.37878 0.02377 0.0
C391 C 0.47004 0.38566 0.00881 0.0
C392 C 0.43441 0.36576 0.06201 0.0
C393 C 0.48762 0.37927 0.03231 0.0
C394 C 0.45263 0.35975 0.08458 0.0
N395 N 0.47862 0.36655 0.06939 0.0
C396 C 0.44139 0.44509 0.9144 0.0
C397 C 0.42819 0.40008 0.88548 0.0
C398 C 0.45793 0.45909 0.88007 0.0
N399 N 0.42644 0.41609 0.91601 0.0
C400 C 0.44465 0.41313 0.85091 0.0
C401 C 0.45937 0.44305 0.84739 0.0
H402 H 0.44043 0.45743 0.93968 0.0
H403 H 0.41688 0.37713 0.88811 0.0
C404 C 0.35323 0.2908 -0.00993 0.0
N405 N 0.38036 0.31257 -0.00414 0.0
C406 C 0.3482 0.26468 0.97406 0.0
C407 C 0.39883 0.28263 0.97443 0.0
C408 C 0.40295 0.3085 -0.00994 0.0
C409 C 0.37131 0.26095 0.96386 0.0
H410 H 0.33561 0.29461 -0.00592 0.0
H411 H 0.4244 0.32603 -0.00634 0.0
O412 O 0.39202 0.41777 -0.00046 0.0
O413 O 0.36887 0.3611 0.04701 0.0
O414 O 0.36778 0.36036 0.95559 0.0
O415 O 0.42587 0.38506 0.0011 0.0
H416 H 0.40584 0.46914 0.02583 0.0
H417 H 0.36788 0.40962 0.92657 0.0
H418 H 0.39716 0.50362 0.98755 0.0
H419 H 0.35971 0.44499 0.89014 0.0
H420 H 0.33459 0.28557 0.13347 0.0
H421 H 0.33824 0.3753 0.0946 0.0
H422 H 0.36441 0.31325 0.07474 0.0
H423 H 0.30933 0.34661 0.15363 0.0
H424 H 0.2892 0.4106 0.03449 0.0
H425 H 0.25626 0.31996 0.03742 0.0
H426 H 0.48956 0.45986 0.12605 0.0
H427 H 0.40887 0.45016 0.16411 0.0
H428 H 0.37699 0.3255 0.90949 0.0
H429 H 0.32366 0.36268 0.92569 0.0
H430 H 0.34673 0.29798 0.85051 0.0
H431 H 0.29453 0.33452 0.86674 0.0
H432 H 0.47716 0.39581 0.97931 0.0
H433 H 0.4139 0.36054 0.07432 0.0
H434 H 0.50843 0.38443 0.02108 0.0
H435 H 0.44611 0.34972 0.11423 0.0
H436 H 0.46883 0.48213 0.8787 0.0
H437 H 0.44565 0.39985 0.82697 0.0
H438 H 0.32674 0.24894 0.96502 0.0
H439 H 0.41727 0.28106 0.96568 0.0
Li440 Li 0.66277 0.98981 0.00299 0.0
Li441 Li 0.64484 0.01955 0.03587 0.0
Li442 Li 0.64064 1.01101 0.96121 0.0
Li443 Li 0.68829 0.04064 -0.00571 0.0
C444 C 0.60606 0.96127 0.03208 0.0
N445 N 0.57262 0.91861 0.08667 0.0
C446 C 0.61728 0.95943 0.06973 0.0
C447 C 0.5778 0.9415 0.02233 0.0
C448 C 0.60005 0.93767 0.09685 0.0
C449 C 0.56124 0.92007 0.05032 0.0
C450 C 0.70496 0.03756 0.06784 0.0
C451 C 0.73594 0.08418 0.09639 0.0
N452 N 0.75488 0.07581 0.10704 0.0
C453 C 0.72453 0.0293 0.07966 0.0
C454 C 0.71054 0.06512 0.0767 0.0
C455 C 0.74971 0.04899 0.09922 0.0
C456 C 0.69499 0.962 0.01477 0.0
N457 N 0.66794 0.95682 0.0092 0.0
C458 C 0.64927 0.90737 0.02432 0.0
C459 C 0.64543 0.92971 0.0108 0.0
C460 C 0.67653 0.91301 0.036 0.0
C461 C 0.69981 0.94028 0.02822 0.0
H462 H 0.7127 0.98348 0.01163 0.0
H463 H 0.62417 0.92563 0.00445 0.0
C464 C 0.59558 1.0116 0.07843 0.0
N465 N 0.62432 0.02299 0.08165 0.0
C466 C 0.57937 1.01046 0.11253 0.0
C467 C 0.62288 0.03476 0.1517 0.0
C468 C 0.63811 0.0349 0.11723 0.0
C469 C 0.59293 0.02141 0.15023 0.0
H470 H 0.58505 1.00226 0.04979 0.0
H471 H 0.66083 0.04364 0.11946 0.0
C472 C 0.68265 0.99296 0.92932 0.0
N473 N 0.69419 0.95493 0.88942 0.0
C474 C 0.71046 1.00134 0.91718 0.0
C475 C 0.66062 0.96539 0.92046 0.0
C476 C 0.71589 0.98176 0.89723 0.0
C477 C 0.6669 0.94645 0.90041 0.0
C478 C 0.6604 0.06931 0.96492 0.0
C479 C 0.67349 0.07108 0.92733 0.0
C480 C 0.6521 0.0892 0.97458 0.0
C481 C 0.67822 0.09287 0.90018 0.0
C482 C 0.65718 0.11067 0.94657 0.0
N483 N 0.67004 0.11205 0.91028 0.0
C484 C 0.59922 0.01868 0.91837 0.0
C485 C 0.61889 0.99579 0.87969 0.0
C486 C 0.58412 0.01965 0.88419 0.0
N487 N 0.61677 1.00754 0.91526 0.0
C488 C 0.6038 0.99579 0.84513 0.0
C489 C 0.58692 1.0088 0.84653 0.0
H490 H 0.59788 0.02792 0.947 0.0
H491 H 0.63303 0.98727 0.87754 0.0
C492 C 0.74836 0.0682 0.98264 0.0
N493 N 0.7266 0.07353 0.98812 0.0
C494 C 0.77502 0.08982 0.96925 0.0
C495 C 0.75774 0.12294 0.97299 0.0
C496 C 0.73141 0.10069 0.98645 0.0
C497 C 0.77924 0.11715 0.9614 0.0
H498 H 0.74442 0.04668 0.98579 0.0
H499 H 0.71431 0.10489 -0.0073 0.0
O500 O 0.62237 0.98252 0.00505 0.0
O501 O 0.68074 0.019 0.04703 0.0
O502 O 0.67705 1.01145 0.95034 0.0
O503 O 0.65527 0.04805 -0.008 0.0
H504 H 0.63905 0.97451 0.07799 0.0
H505 H 0.56877 0.94273 -0.00658 0.0
H506 H 0.60848 0.93595 0.126 0.0
H507 H 0.53934 0.9046 0.04315 0.0
H508 H 0.74066 0.10566 0.10298 0.0
H509 H 0.72035 1.00793 0.0739 0.0
H510 H 0.69573 0.07196 0.06748 0.0
H511 H 0.76511 0.04292 0.10833 0.0
H512 H 0.63071 0.88678 0.03044 0.0
H513 H 0.72112 0.94565 0.03746 0.0
H514 H 0.55638 0.99975 0.10988 0.0
H515 H 0.63443 0.04402 0.17979 0.0
H516 H 0.72769 0.02272 0.92293 0.0
H517 H 0.63898 0.95849 0.92987 0.0
H518 H 0.73735 0.98793 0.88784 0.0
H519 H 0.6501 0.92496 0.89378 0.0
H520 H 0.68002 0.0559 0.91913 0.0
H521 H 0.64182 0.08804 0.00346 0.0
H522 H 0.6884 0.09453 0.87107 0.0
H523 H 0.6509 0.12623 0.95368 0.0
H524 H 0.57163 0.03011 0.88676 0.0
H525 H 0.60626 0.98666 0.81706 0.0
H526 H 0.79088 0.08433 0.96008 0.0
H527 H 0.75993 0.14357 0.96681 0.0
Li528 Li 0.66416 0.68603 0.33345 0.0
Li529 Li 0.71711 0.71232 0.33684 0.0
Li530 Li 0.68776 0.73157 0.37173 0.0
Li531 Li 0.69394 0.73395 0.29738 0.0
C532 C 0.67406 0.6733 0.40845 0.0
N533 N 0.64188 0.62619 0.45676 0.0
C534 C 0.68232 0.6529 0.41384 0.0
C535 C 0.64989 0.67015 0.4284 0.0
C536 C 0.66571 0.62918 0.43835 0.0
C537 C 0.63375 0.64605 0.45243 0.0
C538 C 0.70696 0.68875 0.26216 0.0
C539 C 0.74689 0.70128 0.21763 0.0
N540 N 0.7387 0.67322 0.21392 0.0
C541 C 0.69864 0.66 0.25743 0.0
C542 C 0.73096 0.70954 0.24159 0.0
C543 C 0.71502 0.65258 0.23293 0.0
C544 C 0.60555 0.64653 0.31551 0.0
N545 N 0.63028 0.64846 0.32869 0.0
C546 C 0.61011 0.59804 0.32025 0.0
C547 C 0.63243 0.62464 0.33288 0.0
C548 C 0.58553 0.59599 0.30248 0.0
C549 C 0.58268 0.62033 0.30276 0.0
H550 H 0.60441 0.66566 0.31118 0.0
H551 H 0.65242 0.62658 0.34235 0.0
C552 C 0.77578 0.73145 0.35382 0.0
N553 N 0.75079 0.70844 0.34176 0.0
C554 C 0.79878 0.72829 0.36611 0.0
C555 C 0.77088 0.6782 0.35055 0.0
C556 C 0.74844 0.68232 0.3383 0.0
C557 C 0.79582 0.70105 0.36714 0.0
H558 H 0.77711 0.75186 0.35753 0.0
H559 H 0.72827 0.66414 0.32961 0.0
C560 C 0.63774 0.72659 0.33582 0.0
N561 N 0.59671 0.74167 0.3493 0.0
C562 C 0.63928 0.75001 0.31557 0.0
C563 C 0.61526 0.71077 0.3628 0.0
C564 C 0.61834 0.7573 0.32283 0.0
C565 C 0.59476 0.71876 0.36924 0.0
C566 C 0.74414 0.77941 0.33223 0.0
C567 C 0.74307 0.80176 0.3519 0.0
C568 C 0.7663 0.78547 0.30492 0.0
C569 C 0.76412 0.82983 0.34371 0.0
C570 C 0.78693 0.81383 0.29754 0.0
N571 N 0.78541 0.83524 0.31691 0.0
C572 C 0.7053 0.75521 0.44767 0.0
C573 C 0.67112 0.76587 0.42096 0.0
C574 C 0.70819 0.77104 0.48266 0.0
N575 N 0.68679 0.75262 0.41787 0.0
C576 C 0.67293 0.78155 0.45597 0.0
C577 C 0.69143 0.78399 0.48767 0.0
H578 H 0.71807 0.74516 0.44393 0.0
H579 H 0.65736 0.76464 0.39641 0.0
C580 C 0.67775 0.73885 0.21996 0.0
N581 N 0.69532 0.75522 0.25037 0.0
C582 C 0.67503 0.75142 0.18452 0.0
C583 C 0.7088 0.79768 0.21188 0.0
C584 C 0.71041 0.78417 0.24731 0.0
C585 C 0.69102 0.78124 0.17973 0.0
H586 H 0.66542 0.71597 0.22369 0.0
H587 H 0.72337 0.79699 0.27231 0.0
O588 O 0.68926 0.69599 0.38318 0.0
O589 O 0.69199 0.69656 0.28739 0.0
O590 O 0.65798 0.71906 0.32889 0.0
O591 O 0.72377 0.75179 0.34005 0.0
H592 H 0.70112 0.65517 0.39881 0.0
H593 H 0.64356 0.68604 0.42503 0.0
H594 H 0.67166 0.61306 0.44255 0.0
H595 H 0.61476 0.64313 0.46766 0.0
H596 H 0.76576 0.71718 0.20196 0.0
H597 H 0.67998 0.64365 0.27295 0.0
H598 H 0.73731 0.73181 0.2444 0.0
H599 H 0.70902 0.63044 0.22923 0.0
H600 H 0.61365 0.58008 0.31919 0.0
H601 H 0.56465 0.61998 0.2879 0.0
H602 H 0.81712 0.74624 0.38009 0.0
H603 H 0.76726 0.65668 0.35224 0.0
H604 H 0.65651 0.76253 0.29465 0.0
H605 H 0.61363 0.6925 0.37856 0.0
H606 H 0.61931 0.77542 0.30746 0.0
H607 H 0.57728 0.70674 0.39007 0.0
H608 H 0.72609 0.79754 0.37304 0.0
H609 H 0.76761 0.76849 0.28964 0.0
H610 H 0.76349 0.84733 0.35861 0.0
H611 H 0.80416 0.81882 0.27644 0.0
H612 H 0.72348 0.77306 0.50565 0.0
H613 H 0.65972 0.79123 0.45839 0.0
H614 H 0.66025 0.73781 0.16124 0.0
H615 H 0.72144 0.82066 0.20969 0.0
Li616 Li 0.30658 0.9656 0.30165 0.0
Li617 Li 0.31038 0.96148 0.37594 0.0
Li618 Li 0.32709 1.01014 0.34266 0.0
Li619 Li 0.35507 0.98573 0.33636 0.0
C620 C 0.26017 0.96726 0.34032 0.0
N621 N 0.20311 0.94965 0.32985 0.0
C622 C 0.23926 0.94157 0.35733 0.0
C623 C 0.25203 0.98401 0.31801 0.0
C624 C 0.21054 0.93304 0.35169 0.0
C625 C 0.22308 0.97473 0.31305 0.0
C626 C 0.31531 0.91768 0.33889 0.0
C627 C 0.32232 0.88217 0.3728 0.0
N628 N 0.2992 0.86133 0.3529 0.0
C629 C 0.29163 0.89589 0.31876 0.0
C630 C 0.33081 0.91078 0.36611 0.0
C631 C 0.28384 0.86755 0.32626 0.0
C632 C 0.30151 0.9433 0.22448 0.0
N633 N 0.28537 0.94582 0.25404 0.0
C634 C 0.24306 0.91851 0.21416 0.0
C635 C 0.25659 0.93357 0.24971 0.0
C636 C 0.25927 0.91578 0.18298 0.0
C637 C 0.28888 0.92821 0.18875 0.0
H638 H 0.32424 0.95276 0.22901 0.0
H639 H 0.24387 0.9351 0.27367 0.0
C640 C 0.28906 0.95496 0.45343 0.0
N641 N 0.29037 0.9389 0.42267 0.0
C642 C 0.27351 0.94209 0.48862 0.0
C643 C 0.26085 0.89605 0.46048 0.0
C644 C 0.27634 0.90989 0.42529 0.0
C645 C 0.25942 0.91221 0.49295 0.0
H646 H 0.29966 0.97787 0.45014 0.0
H647 H 0.27651 0.89727 0.40002 0.0
C648 C 0.34639 0.02378 0.26587 0.0
N649 N 0.35356 0.0687 0.21789 0.0
C650 C 0.37377 0.0462 0.25733 0.0
C651 C 0.32271 0.02374 0.24903 0.0
C652 C 0.37694 0.06881 0.23317 0.0
C653 C 0.32676 0.04675 0.22501 0.0
C654 C 0.36971 1.00909 0.4095 0.0
C655 C 0.38877 0.03833 0.41299 0.0
C656 C 0.37607 0.98975 0.42802 0.0
C657 C 0.41422 0.04774 0.43447 0.0
C658 C 0.40187 1.0 0.44888 0.0
N659 N 0.42024 0.02854 0.45167 0.0
C660 C 0.3067 0.04772 0.36526 0.0
C661 C 0.35457 0.07131 0.34264 0.0
C662 C 0.30938 0.07361 0.37798 0.0
N663 N 0.32942 0.04686 0.34924 0.0
C664 C 0.35821 0.09764 0.35518 0.0
C665 C 0.33589 0.09879 0.37517 0.0
H666 H 0.2872 0.0281 0.37154 0.0
H667 H 0.37265 0.07021 0.33109 0.0
C668 C 0.39736 0.96987 0.32065 0.0
N669 N 0.39356 0.9923 0.32925 0.0
C670 C 0.42353 0.97444 0.30569 0.0
C671 C 0.44218 0.02505 0.31153 0.0
C672 C 0.41574 0.01953 0.32683 0.0
C673 C 0.4458 1.00234 0.29853 0.0
H674 H 0.37943 0.94846 0.32171 0.0
H675 H 0.41223 0.03709 0.33326 0.0
O676 O 0.28841 0.97603 0.34577 0.0
O677 O 0.32345 0.94556 0.33155 0.0
O678 O 0.34271 1.00248 0.29181 0.0
O679 O 0.3451 0.9994 0.38758 0.0
H680 H 0.24509 0.92821 0.37439 0.0
H681 H 0.26786 1.00395 0.30462 0.0
H682 H 0.19415 0.91318 0.3646 0.0
H683 H 0.21649 0.98746 0.29583 0.0
H684 H 0.33409 0.87654 0.39383 0.0
H685 H 0.2793 0.90075 0.29772 0.0
H686 H 0.34916 0.92732 0.38199 0.0
H687 H 0.26554 0.85049 0.31095 0.0
H688 H 0.22024 0.90942 0.211 0.0
H689 H 0.30223 0.92613 0.16598 0.0
H690 H 0.27229 0.95557 0.51203 0.0
H691 H 0.25025 0.87304 0.46223 0.0
H692 H 0.39233 0.04643 0.26993 0.0
H693 H 0.30143 1.00632 0.25491 0.0
H694 H 0.39797 0.08653 0.22675 0.0
H695 H 0.30862 0.0472 0.21214 0.0
H696 H 0.38406 0.05357 0.39907 0.0
H697 H 0.36134 0.96709 0.42597 0.0
H698 H 0.42924 0.07031 0.43731 0.0
H699 H 0.40724 0.98527 0.46296 0.0
H700 H 0.29203 0.07336 0.39475 0.0
H701 H 0.37931 0.1163 0.354 0.0
H702 H 0.42502 0.95638 0.29468 0.0
H703 H 0.45841 0.04686 0.3052 0.0
Li704 Li 0.07077 0.34915 0.29634 0.0
Li705 Li 0.07334 0.35136 0.3683 0.0
Li706 Li 0.02504 0.32098 0.33407 0.0
Li707 Li 0.05147 0.37586 0.33495 0.0
C708 C 0.06626 0.29979 0.30992 0.0
N709 N 0.08018 0.26748 0.25973 0.0
C710 C 0.09468 0.30665 0.30562 0.0
C711 C 0.04496 0.27649 0.2885 0.0
C712 C 0.10127 0.29009 0.28012 0.0
C713 C 0.05241 0.2604 0.26338 0.0
C714 C 0.11622 0.40035 0.35237 0.0
C715 C 0.14413 0.43838 0.39999 0.0
N716 N 0.16493 0.43136 0.39892 0.0
C717 C 0.1379 0.39348 0.35197 0.0
C718 C 0.11934 0.42292 0.37684 0.0
C719 C 0.16232 0.4094 0.37563 0.0
C720 C 0.11872 0.36757 0.24468 0.0
N721 N 0.09025 0.34886 0.24728 0.0
C722 C 0.09121 0.3277 0.18354 0.0
C723 C 0.07633 0.32917 0.21746 0.0
C724 C 0.12072 0.34655 0.18048 0.0
C725 C 0.1345 0.36655 0.21168 0.0
H726 H 0.12922 0.38354 0.26797 0.0
H727 H 0.05373 0.31447 0.2201 0.0
C728 C 0.1072 0.33527 0.4151 0.0
N729 N 0.09555 0.3524 0.41461 0.0
C730 C 0.12364 0.33576 0.44828 0.0
C731 C 0.11604 0.37173 0.47976 0.0
C732 C 0.09981 0.37059 0.44595 0.0
C733 C 0.12773 0.35374 0.48153 0.0
H734 H 0.10312 0.32064 0.39028 0.0
H735 H 0.09031 0.38395 0.44494 0.0
C736 C 1.01897 0.34332 0.25388 0.0
N737 N 0.98564 0.33283 0.18515 0.0
C738 C 1.01828 0.36576 0.234 0.0
C739 C 1.00294 0.31563 0.23866 0.0
C740 C 1.00127 0.36 0.19924 0.0
C741 C 0.98618 0.31074 0.20393 0.0
C742 C 1.02173 0.35803 0.40536 0.0
C743 C 0.99264 0.34063 0.41326 0.0
C744 C 0.03634 0.38554 0.42169 0.0
C745 C 0.97853 0.35123 0.43681 0.0
C746 C 1.02143 0.39546 0.44481 0.0
N747 N 0.99308 0.37825 0.45182 0.0
C748 C 0.98608 0.26341 0.35495 0.0
C749 C 0.96381 0.28807 0.32877 0.0
C750 C 0.95973 0.24068 0.36718 0.0
N751 N 0.9878 0.28701 0.33765 0.0
C752 C 0.93705 0.26605 0.3414 0.0
C753 C 0.93503 0.24273 0.36308 0.0
H754 H 1.00541 0.2632 0.36243 0.0
H755 H 0.9657 0.30722 0.31556 0.0
C756 C 0.0666 0.43364 0.31949 0.0
N757 N 0.0445 0.4077 0.33029 0.0
C758 C 0.06164 0.45528 0.30608 0.0
C759 C 1.01134 0.42372 0.31645 0.0
C760 C 1.0173 0.40283 0.33064 0.0
C761 C 0.03358 0.44984 0.30185 0.0
H762 H 0.08786 0.43678 0.31736 0.0
H763 H 0.99993 0.38185 0.33823 0.0
O764 O 0.05938 0.31608 0.33421 0.0
O765 O 0.09184 0.38463 0.32987 0.0
O766 O 0.03376 0.34817 0.28959 0.0
O767 O 0.03583 0.34806 0.38205 0.0
H768 H 0.1116 0.32497 0.32098 0.0
H769 H 0.02295 0.2711 0.29061 0.0
H770 H 0.12319 0.29533 0.27632 0.0
H771 H 0.03613 0.2424 0.24656 0.0
H772 H 0.14672 0.45582 0.41909 0.0
H773 H 0.13563 0.37556 0.33448 0.0
H774 H 0.10265 0.42819 0.37871 0.0
H775 H 0.17911 0.40414 0.37574 0.0
H776 H 0.07975 0.31232 0.15962 0.0
H777 H 0.15702 0.38209 0.20968 0.0
H778 H 0.13163 0.32102 0.44899 0.0
H779 H 0.11849 0.3857 0.50504 0.0
H780 H 0.03046 0.38731 0.24558 0.0
H781 H 1.00312 0.29802 0.25386 0.0
H782 H 1.00018 0.37702 0.18377 0.0
H783 H 0.97337 0.28932 0.1922 0.0
H784 H 0.98111 0.31909 0.40166 0.0
H785 H 0.05884 0.39927 0.41599 0.0
H786 H 0.95603 0.33799 0.44317 0.0
H787 H 0.0324 0.41684 0.45717 0.0
H788 H 0.95929 0.22363 0.38497 0.0
H789 H 0.91874 0.26896 0.33892 0.0
H790 H 0.07927 0.47455 0.29352 0.0
H791 H 0.98934 0.41819 0.31218 0.0
Li792 Li 0.71373 1.01373 0.33115 0.0
Li793 Li 0.69119 0.96976 0.37314 0.0
Li794 Li 0.68849 0.96639 0.29697 0.0
Li795 Li 0.66034 0.98476 0.33465 0.0
C796 C 0.75039 0.98953 0.33187 0.0
N797 N 0.80744 1.00547 0.3304 0.0
C798 C 0.76664 0.99874 0.36765 0.0
C799 C 0.76318 0.98849 0.29531 0.0
C800 C 0.79544 1.0067 0.36628 0.0
C801 C 0.79204 0.99661 0.29521 0.0
C802 C 0.68729 0.01949 0.41234 0.0
C803 C 0.6613 0.03401 0.45668 0.0
N804 N 0.68607 0.05274 0.47552 0.0
C805 C 0.71246 0.03862 0.43247 0.0
C806 C 0.66144 0.01686 0.42495 0.0
C807 C 0.71138 0.05531 0.46426 0.0
C808 C 0.73811 0.07283 0.3444 0.0
N809 N 0.74513 0.05329 0.3315 0.0
C810 C 0.79473 0.08679 0.34246 0.0
C811 C 0.77301 0.06068 0.32716 0.0
C812 C 0.78762 0.10553 0.36173 0.0
C813 C 0.75915 0.09931 0.35942 0.0
H814 H 0.71589 0.06673 0.34726 0.0
H815 H 0.77849 0.04551 0.31537 0.0
C816 C 0.68335 0.92226 0.42008 0.0
N817 N 0.69592 0.95119 0.41971 0.0
C818 C 0.68664 0.90824 0.45373 0.0
C819 C 0.71775 0.95417 0.48431 0.0
C820 C 0.71318 0.96722 0.45071 0.0
C821 C 0.70354 0.92422 0.48691 0.0
H822 H 0.67035 0.90997 0.39451 0.0
H823 H 0.72326 0.99018 0.4495 0.0
C824 C 0.6971 0.0204 0.25536 0.0
N825 N 0.72192 0.0611 0.195 0.0
C826 C 0.68493 0.03683 0.24417 0.0
C827 C 0.72177 0.02453 0.23579 0.0
C828 C 0.69777 0.05726 0.21345 0.0
C829 C 0.73409 0.04533 0.20549 0.0
C830 C 0.63348 0.92789 0.36028 0.0
C831 C 0.61398 0.90094 0.34504 0.0
C832 C 0.62907 0.93619 0.39878 0.0
C833 C 0.59022 0.88276 0.36855 0.0
C834 C 0.60509 0.91739 0.42138 0.0
N835 N 0.58631 0.89129 0.40591 0.0
C836 C 0.69955 0.92803 0.25059 0.0
C837 C 0.6665 0.93996 0.22279 0.0
C838 C 0.6963 0.91083 0.21672 0.0
N839 N 0.68533 0.94275 0.25228 0.0
C840 C 0.6623 0.92277 0.18884 0.0
C841 C 0.67794 0.90858 0.18482 0.0
H842 H 0.71372 0.92997 0.27522 0.0
H843 H 0.65491 0.95131 0.2256 0.0
C844 C 0.62805 1.01288 0.33103 0.0
N845 N 0.62596 0.98685 0.32892 0.0
C846 C 0.60662 0.01706 0.31443 0.0
C847 C 0.58019 0.96716 0.2968 0.0
C848 C 0.60209 0.96389 0.31377 0.0
C849 C 0.58308 0.99434 0.29497 0.0
H850 H 0.64761 0.03102 0.34184 0.0
H851 H 0.60124 0.94364 0.31091 0.0
O852 O 0.72214 0.98159 0.33255 0.0
O853 O 0.688 1.00455 0.37904 0.0
O854 O 0.68509 1.00055 0.28565 0.0
O855 O 0.65686 0.94588 0.33762 0.0
H856 H 0.75727 1.00015 0.39602 0.0
H857 H 0.75105 0.98169 0.26723 0.0
H858 H 0.80829 1.01397 0.39372 0.0
H859 H 0.80221 0.99594 0.26712 0.0
H860 H 0.64147 0.03242 0.46633 0.0
H861 H 0.73265 0.0409 0.42314 0.0
H862 H 0.64168 1.00192 0.41016 0.0
H863 H 0.73064 0.07066 0.47959 0.0
H864 H 0.8163 0.09055 0.34397 0.0
H865 H 0.75265 0.11291 0.37456 0.0
H866 H 0.67519 0.88517 0.45441 0.0
H867 H 0.73139 0.96744 0.50882 0.0
H868 H 0.66576 0.0338 0.25896 0.0
H869 H 0.73142 1.012 0.24423 0.0
H870 H 0.6886 0.07012 0.20437 0.0
H871 H 0.75337 0.04897 0.19039 0.0
H872 H 0.61715 0.89419 0.31531 0.0
H873 H 0.64413 0.95678 0.4113 0.0
H874 H 0.5749 0.86186 0.35711 0.0
H875 H 0.60146 0.92353 0.45125 0.0
H876 H 0.7088 0.90035 0.2148 0.0
H877 H 0.64747 0.92119 0.16538 0.0
H878 H 0.61017 0.03853 0.31223 0.0
H879 H 0.56298 0.9494 0.2807 0.0
Li880 Li 0.06908 0.72977 0.37479 0.0
Li881 Li 0.02469 0.70866 0.33315 0.0
Li882 Li 0.05301 0.68362 0.33619 0.0
Li883 Li 0.07162 0.73028 0.29862 0.0
C884 C 1.01921 0.67614 0.41418 0.0
N885 N 0.98645 0.64118 0.47723 0.0
C886 C 0.99965 0.68152 0.43425 0.0
C887 C 1.02254 0.65336 0.42683 0.0
C888 C 0.9832 0.6635 0.46596 0.0
C889 C 1.00562 0.6358 0.45847 0.0
C890 C 0.05102 0.77044 0.3304 0.0
C891 C 0.0438 0.80251 0.28767 0.0
N892 N 0.03884 0.8139 0.32156 0.0
C893 C 0.04591 0.78252 0.36481 0.0
C894 C 0.05 0.78053 0.29149 0.0
C895 C 0.03975 0.80445 0.3597 0.0
C896 C 0.11711 0.7685 0.42213 0.0
N897 N 0.08811 0.75318 0.4211 0.0
C898 C 0.08555 0.77322 0.48486 0.0
C899 C 0.07226 0.75561 0.45124 0.0
C900 C 0.11549 0.78778 0.48825 0.0
C901 C 0.13132 0.78578 0.45579 0.0
H902 H 0.1293 0.76698 0.39712 0.0
H903 H 0.04925 0.74372 0.44926 0.0
C904 C 0.9653 0.67431 0.34534 0.0
N905 N 0.9854 0.70116 0.33429 0.0
C906 C 0.93884 0.66888 0.3603 0.0
C907 C 0.95261 0.71781 0.34714 0.0
C908 C 0.97874 0.72225 0.33207 0.0
C909 C 0.9332 0.69143 0.36444 0.0
H910 H 0.9709 0.65778 0.34676 0.0
H911 H 0.99446 0.74328 0.32224 0.0
C912 C 0.11038 0.71339 0.36062 0.0
N913 N 0.14738 0.70259 0.40471 0.0
C914 C 0.13698 0.72053 0.34444 0.0
C915 C 0.10264 0.7009 0.39928 0.0
C916 C 0.15537 0.71483 0.36718 0.0
C917 C 0.12163 0.69559 0.42109 0.0
C918 C 1.01535 0.68256 0.25955 0.0
C919 C 1.00017 0.65353 0.25003 0.0
C920 C 1.00803 0.70113 0.2408 0.0
C921 C 0.97776 0.64353 0.22197 0.0
C922 C 0.98534 0.69029 0.21318 0.0
N923 N 0.97082 0.66196 0.20437 0.0
C924 C 0.02495 0.62282 0.33425 0.0
C925 C 0.07359 0.64617 0.31514 0.0
C926 C 1.02077 0.59705 0.31819 0.0
N927 N 0.05077 0.647 0.33086 0.0
C928 C 0.07034 0.62084 0.29884 0.0
C929 C 0.04328 0.59628 0.29812 0.0
H930 H 1.00688 0.62411 0.34558 0.0
H931 H 0.09365 0.66569 0.3113 0.0
C932 C 0.11017 0.77967 0.25262 0.0
N933 N 0.0951 0.7507 0.25403 0.0
C934 C 0.12721 0.79358 0.21868 0.0
C935 C 0.11445 0.74751 0.19021 0.0
C936 C 0.0974 0.73458 0.22423 0.0
C937 C 0.12896 0.77738 0.18647 0.0
H938 H 0.10861 0.79196 0.2775 0.0
H939 H 0.08579 0.7116 0.22686 0.0
O940 O 0.03388 0.69199 0.3809 0.0
O941 O 0.05716 0.74901 0.33482 0.0
O942 O 0.09217 0.71887 0.33871 0.0
O943 O 0.03723 0.69276 0.28714 0.0
H944 H 0.99687 0.69912 0.42494 0.0
H945 H 0.03782 0.64904 0.41212 0.0
H946 H 0.96752 0.66689 0.48123 0.0
H947 H 1.00773 0.61787 0.46812 0.0
H948 H 0.04291 0.81049 0.25774 0.0
H949 H 0.04644 0.77492 0.3951 0.0
H950 H 0.05391 0.7715 0.2645 0.0
H951 H 0.03567 0.81392 0.38605 0.0
H952 H 0.07244 0.77448 0.50882 0.0
H953 H 0.15436 0.7965 0.45709 0.0
H954 H 0.92473 0.64835 0.37401 0.0
H955 H 0.94936 0.73588 0.35025 0.0
H956 H 0.14329 0.73028 0.31457 0.0
H957 H 0.08236 0.69568 0.41253 0.0
H958 H 0.176 0.72016 0.35501 0.0
H959 H 0.11593 0.68599 0.45109 0.0
H960 H 1.00572 0.63888 0.26394 0.0
H961 H 1.01952 0.72362 0.24789 0.0
H962 H 0.96584 0.62113 0.21424 0.0
H963 H 0.97925 0.7044 0.19882 0.0
H964 H 0.99936 0.57888 0.31684 0.0
H965 H 0.08792 0.6214 0.28228 0.0
H966 H 0.13799 0.81661 0.21698 0.0
H967 H 0.11569 0.73419 0.16654 0.0
Li968 Li 0.30837 0.34476 0.37093 0.0
Li969 Li 0.32899 0.32003 0.33129 0.0
Li970 Li 0.35511 0.37451 0.33453 0.0
Li971 Li 0.30947 0.34829 0.29647 0.0
C972 C 0.3624 0.34846 0.41141 0.0
N973 N 0.3989 0.35265 0.47352 0.0
C974 C 0.35797 0.32403 0.43205 0.0
C975 C 0.38517 0.37505 0.42281 0.0
C976 C 0.37675 0.32662 0.46327 0.0
C977 C 0.40343 0.3767 0.45411 0.0
C978 C 0.27158 0.28965 0.30746 0.0
C979 C 0.26247 0.26263 0.24514 0.0
N980 N 0.23684 0.24249 0.2603 0.0
C981 C 0.24512 0.26877 0.32236 0.0
C982 C 0.28033 0.28663 0.26849 0.0
C983 C 0.22788 0.24504 0.29807 0.0
C984 C 0.26974 0.35408 0.41821 0.0
N985 N 0.28428 0.33966 0.41652 0.0
C986 C 0.26225 0.31508 0.47835 0.0
C987 C 0.2803 0.31987 0.44512 0.0
C988 C 0.24843 0.33109 0.4824 0.0
C989 C 0.25181 0.35028 0.45122 0.0
H990 H 0.27234 0.36885 0.3942 0.0
H991 H 0.29142 0.30805 0.44235 0.0
C992 C 0.36253 0.29371 0.34065 0.0
N993 N 0.33528 0.28774 0.33429 0.0
C994 C 0.36793 0.27272 0.35583 0.0
C995 C 0.31758 0.23894 0.35281 0.0
C996 C 0.31307 0.2606 0.33809 0.0
C997 C 0.34503 0.24541 0.36478 0.0
H998 H 0.37983 0.31548 0.33805 0.0
H999 H 0.29151 0.25613 0.33382 0.0
C1000 C 0.32642 0.40295 0.35978 0.0
N1001 N 0.33754 0.44991 0.40644 0.0
C1002 C 0.32082 0.42361 0.34413 0.0
C1003 C 0.33746 0.40604 0.39927 0.0
C1004 C 0.32667 0.44725 0.36817 0.0
C1005 C 0.34298 0.42995 0.42235 0.0
C1006 C 0.36069 0.34935 0.25278 0.0
C1007 C 0.37635 0.37481 0.23125 0.0
C1008 C 0.36121 0.32499 0.24005 0.0
C1009 C 0.39234 0.37542 0.19736 0.0
C1010 C 0.3776 0.32656 0.2062 0.0
N1011 N 0.39268 0.35154 0.18568 0.0
C1012 C 0.41493 0.40305 0.32237 0.0
C1013 C 0.39683 0.43461 0.32654 0.0
C1014 C 0.44086 0.42486 0.30696 0.0
N1015 N 0.39303 0.40789 0.32988 0.0
C1016 C 0.42247 0.45704 0.3115 0.0
C1017 C 0.44423 0.45186 0.29912 0.0
H1018 H 0.41135 0.38159 0.32456 0.0
H1019 H 0.37924 0.43817 0.33174 0.0
C1020 C 0.26064 0.33577 0.24744 0.0
N1021 N 0.28939 0.35259 0.25158 0.0
C1022 C 0.24644 0.3397 0.2146 0.0
C1023 C 0.2913 0.37966 0.19292 0.0
C1024 C 0.30465 0.37477 0.22586 0.0
C1025 C 0.26197 0.36143 0.18624 0.0
H1026 H 0.24867 0.31908 0.26934 0.0
H1027 H 0.32728 0.38847 0.23071 0.0
O1028 O 0.3455 0.34629 0.37891 0.0
O1029 O 0.28858 0.31304 0.33087 0.0
O1030 O 0.32066 0.37965 0.33663 0.0
O1031 O 0.34576 0.34837 0.28706 0.0
H1032 H 0.34043 0.30331 0.42364 0.0
H1033 H 0.38888 0.39426 0.40756 0.0
H1034 H 0.37404 0.30797 0.47905 0.0
H1035 H 0.42123 0.39713 0.46297 0.0
H1036 H 0.26896 0.26004 0.21492 0.0
H1037 H 0.23802 0.27087 0.35242 0.0
H1038 H 0.30052 0.30272 0.25621 0.0
H1039 H 0.20737 0.22867 0.30924 0.0
H1040 H 0.25999 0.29981 0.50146 0.0
H1041 H 0.24168 0.36312 0.45315 0.0
H1042 H 0.38931 0.27886 0.3658 0.0
H1043 H 0.29927 0.21848 0.36036 0.0
H1044 H 0.31215 0.42143 0.31368 0.0
H1045 H 0.34136 0.39 0.41219 0.0
H1046 H 0.32255 0.46347 0.3564 0.0
H1047 H 0.35147 0.43258 0.45297 0.0
H1048 H 0.37641 0.39395 0.24085 0.0
H1049 H 0.34915 0.30505 0.25616 0.0
H1050 H 0.40468 0.39489 0.18052 0.0
H1051 H 0.37825 0.30788 0.19613 0.0
H1052 H 0.45669 0.41969 0.29649 0.0
H1053 H 0.42379 0.47721 0.30463 0.0
H1054 H 0.22382 0.3252 0.2105 0.0
H1055 H 0.30399 0.39684 0.1719 0.0
Li1056 Li 0.32883 0.01746 0.66632 0.0
Li1057 Li 0.38368 0.04375 0.66549 0.0
Li1058 Li 0.35702 0.06335 0.70385 0.0
Li1059 Li 0.35921 0.06558 0.6319 0.0
C1060 C 0.35097 1.01103 0.74612 0.0
N1061 N 0.33989 0.97667 0.81372 0.0
C1062 C 0.37313 1.00948 0.76547 0.0
C1063 C 0.32326 0.99535 0.76133 0.0
C1064 C 0.36708 0.99197 0.79966 0.0
C1065 C 0.31807 0.97804 0.79546 0.0
C1066 C 0.36549 1.01395 0.59453 0.0
C1067 C 0.40258 1.01351 0.55446 0.0
N1068 N 0.38499 0.98533 0.54657 0.0
C1069 C 0.34771 0.98504 0.58576 0.0
C1070 C 0.39303 0.02841 0.57836 0.0
C1071 C 0.35795 0.97095 0.56143 0.0
C1072 C 0.27127 0.97831 0.64529 0.0
N1073 N 0.29494 0.98017 0.66265 0.0
C1074 C 0.27429 0.92947 0.65859 0.0
C1075 C 0.2962 0.95628 0.67138 0.0
C1076 C 0.2509 0.92731 0.63686 0.0
C1077 C 0.24867 0.95191 0.63286 0.0
H1078 H 0.27093 0.99757 0.63787 0.0
H1079 H 0.31542 0.95829 0.68459 0.0
C1080 C 0.44138 0.05861 0.68118 0.0
N1081 N 0.41541 0.03663 0.67004 0.0
C1082 C 0.46293 0.05347 0.69444 0.0
C1083 C 0.43126 1.00327 0.68317 0.0
C1084 C 0.41046 1.00941 0.66915 0.0
C1085 C 0.45738 0.02535 0.69816 0.0
H1086 H 0.44458 0.07987 0.68367 0.0
H1087 H 0.38947 0.99215 0.66124 0.0
C1088 C 0.30763 0.05878 0.68989 0.0
N1089 N 0.27533 0.07295 0.73963 0.0
C1090 C 0.31454 0.08723 0.694 0.0
C1091 C 0.28429 0.03759 0.71126 0.0
C1092 C 0.29797 0.09395 0.71927 0.0
C1093 C 0.26821 0.04517 0.73616 0.0
C1094 C 0.40834 0.10845 0.64781 0.0
C1095 C 0.40152 0.13016 0.64786 0.0
C1096 C 0.43096 0.11144 0.62365 0.0
C1097 C 0.41754 0.15448 0.62414 0.0
C1098 C 0.44652 0.13612 0.60043 0.0
N1099 N 0.43954 0.15696 0.60114 0.0
C1100 C 0.37536 0.11157 0.75517 0.0
C1101 C 0.33707 0.0692 0.78244 0.0
C1102 C 0.3743 0.12742 0.78808 0.0
N1103 N 0.35674 0.08307 0.75266 0.0
C1104 C 0.33554 0.08416 0.81624 0.0
C1105 C 0.35434 0.11368 0.81926 0.0
H1106 H 0.39131 0.12204 0.73189 0.0
H1107 H 0.32243 0.04658 0.77985 0.0
C1108 C 0.3433 0.09936 0.58468 0.0
N1109 N 0.36033 0.0876 0.58545 0.0
C1110 C 0.34391 0.11572 0.55136 0.0
C1111 C 0.37979 0.10779 0.52033 0.0
C1112 C 0.37854 0.09167 0.55428 0.0
C1113 C 0.36191 0.11959 0.51829 0.0
H1114 H 0.32865 0.09544 0.60939 0.0
H1115 H 0.39184 0.0821 0.55553 0.0
O1116 O 0.35608 0.0264 0.71097 0.0
O1117 O 0.35584 0.02803 0.6185 0.0
O1118 O 0.32393 0.05179 0.66582 0.0
O1119 O 0.39253 0.08418 0.67038 0.0
H1120 H 0.3947 0.02142 0.75393 0.0
H1121 H 0.30585 0.99619 0.74654 0.0
H1122 H 0.3839 0.99025 0.81472 0.0
H1123 H 0.29663 0.96549 0.80716 0.0
H1124 H 0.42398 0.02435 0.54221 0.0
H1125 H 0.32615 0.97365 0.59726 0.0
H1126 H 0.40706 0.05076 0.58478 0.0
H1127 H 0.3444 0.94858 0.55436 0.0
H1128 H 0.27734 0.91126 0.66099 0.0
H1129 H 0.23156 0.95136 0.61502 0.0
H1130 H 0.48221 0.07096 0.70729 0.0
H1131 H 0.42566 0.98123 0.68702 0.0
H1132 H 0.3329 0.10407 0.67867 0.0
H1133 H 0.27886 0.01556 0.70928 0.0
H1134 H 0.30325 0.11589 0.72292 0.0
H1135 H 0.25017 0.02897 0.75295 0.0
H1136 H 0.38356 0.12799 0.6651 0.0
H1137 H 0.4362 0.09471 0.62206 0.0
H1138 H 0.41232 0.17129 0.62375 0.0
H1139 H 0.464 0.13861 0.58155 0.0
H1140 H 0.38979 0.14995 0.79006 0.0
H1141 H 0.32019 0.07273 0.84016 0.0
H1142 H 0.32926 0.12381 0.5504 0.0
H1143 H 0.39375 0.11006 0.49515 0.0
Li1144 Li 1.01861 0.31874 0.65733 0.0
Li1145 Li 0.99423 0.34676 0.66367 0.0
Li1146 Li 0.97412 0.2983 0.69844 0.0
Li1147 Li 0.96986 0.30197 0.62414 0.0
C1148 C 0.03255 0.33817 0.73389 0.0
N1149 N 0.07793 0.34538 0.78096 0.0
C1150 C 0.055 0.36556 0.7424 0.0
C1151 C 0.03271 0.3145 0.75032 0.0
C1152 C 0.07785 0.36875 0.76609 0.0
C1153 C 0.05595 0.31858 0.77387 0.0
C1154 C 1.01733 0.36116 0.5904 0.0
C1155 C 1.00802 0.39294 0.5505 0.0
N1156 N 0.03654 0.41146 0.54788 0.0
C1157 C 0.04654 0.38037 0.58709 0.0
C1158 C 0.9979 0.36726 0.57153 0.0
C1159 C 0.05584 0.4057 0.56542 0.0
C1160 C 0.05622 0.29836 0.63454 0.0
N1161 N 0.05536 0.32108 0.65059 0.0
C1162 C 0.10614 0.3499 0.64453 0.0
C1163 C 0.07982 0.34626 0.65711 0.0
C1164 C 0.10728 0.32756 0.62453 0.0
C1165 C 0.0821 0.30104 0.62176 0.0
H1166 H 0.03659 0.27883 0.6283 0.0
H1167 H 0.07874 0.36435 0.66865 0.0
C1168 C 0.97826 0.38906 0.67884 0.0
N1169 N 1.00076 0.38528 0.67063 0.0
C1170 C 0.98272 0.41526 0.69354 0.0
C1171 C 0.03337 0.43398 0.68832 0.0
C1172 C 0.02796 0.40751 0.67323 0.0
C1173 C 1.01058 0.43759 0.70092 0.0
H1174 H 0.95686 0.37111 0.67765 0.0
H1175 H 0.04558 0.40404 0.66707 0.0
C1176 C 0.97552 0.25178 0.65964 0.0
N1177 N 0.95756 0.19464 0.66986 0.0
C1178 C 0.94958 0.23099 0.64299 0.0
C1179 C 0.99233 0.24348 0.6815 0.0
C1180 C 0.94088 0.20223 0.64849 0.0
C1181 C 0.98287 0.21449 0.68633 0.0
C1182 C 0.92617 0.30707 0.66111 0.0
C1183 C 0.90436 0.28355 0.68138 0.0
C1184 C 0.91931 0.32247 0.63367 0.0
C1185 C 0.87602 0.27583 0.6738 0.0
C1186 C 0.89071 0.31405 0.62691 0.0
N1187 N 0.86984 0.2911 0.64695 0.0
C1188 C 0.95139 0.29328 0.77525 0.0
C1189 C 0.94225 0.24841 0.75057 0.0
C1190 C 0.93613 0.2807 0.81082 0.0
N1191 N 0.95428 0.27714 0.74603 0.0
C1192 C 0.92699 0.23492 0.78595 0.0
C1193 C 0.92388 0.25114 0.81678 0.0
H1194 H 0.96068 0.31597 0.77056 0.0
H1195 H 0.94411 0.23569 0.72691 0.0
C1196 C 0.96311 0.28051 0.54664 0.0
N1197 N 0.94714 0.28188 0.57745 0.0
C1198 C 0.95013 0.26496 0.51143 0.0
C1199 C 0.90417 0.2524 0.53968 0.0
C1200 C 0.91812 0.26789 0.57489 0.0
C1201 C 0.92024 0.25094 0.50714 0.0
H1202 H 0.98603 0.29108 0.54989 0.0
H1203 H 0.90557 0.26808 0.60021 0.0
O1204 O 1.01105 0.33446 0.70827 0.0
O1205 O 1.00775 0.33666 0.61246 0.0
O1206 O 0.98448 0.28006 0.65431 0.0
O1207 O 0.95405 0.31514 0.66852 0.0
H1208 H 0.05508 0.3841 0.73011 0.0
H1209 H 1.01528 0.29322 0.74443 0.0
H1210 H 0.0956 0.38979 0.77245 0.0
H1211 H 0.05656 0.30044 0.7864 0.0
H1212 H 0.99321 0.39812 0.53616 0.0
H1213 H 0.06186 0.37587 0.60129 0.0
H1214 H 0.97525 0.35241 0.57342 0.0
H1215 H 0.07838 0.42083 0.56272 0.0
H1216 H 0.1248 0.371 0.64569 0.0
H1217 H 0.08183 0.28367 0.60497 0.0
H1218 H 0.96459 0.41673 0.70423 0.0
H1219 H 0.05515 0.45026 0.69483 0.0
H1220 H 0.93616 0.23694 0.62632 0.0
H1221 H 1.01244 0.25921 0.69467 0.0
H1222 H 0.92083 0.18593 0.63585 0.0
H1223 H 0.99565 0.20778 0.70319 0.0
H1224 H 0.90919 0.27129 0.70257 0.0
H1225 H 0.93586 0.34068 0.61765 0.0
H1226 H 0.85894 0.25765 0.68922 0.0
H1227 H 0.88511 0.32574 0.60571 0.0
H1228 H 0.93377 0.29403 0.83333 0.0
H1229 H 0.91805 0.21215 0.78929 0.0
H1230 H 0.96353 0.2637 0.48796 0.0
H1231 H 0.88115 0.24185 0.53796 0.0
Li1232 Li 0.71951 0.70913 0.66385 0.0
Li1233 Li 0.69336 0.65635 0.66814 0.0
Li1234 Li 0.74152 0.68629 0.70348 0.0
Li1235 Li 0.73856 0.67951 0.62907 0.0
C1236 C 0.69715 0.70019 0.73884 0.0
N1237 N 0.68303 0.73342 0.7862 0.0
C1238 C 0.66858 0.69243 0.74409 0.0
C1239 C 0.71847 0.72438 0.7585 0.0
C1240 C 0.66188 0.70957 0.76811 0.0
C1241 C 0.71092 0.74106 0.78205 0.0
C1242 C 0.67909 0.66499 0.5945 0.0
C1243 C 0.64957 0.62293 0.5546 0.0
N1244 N 0.6298 0.63123 0.55095 0.0
C1245 C 0.65874 0.67338 0.58981 0.0
C1246 C 0.67477 0.63986 0.57618 0.0
C1247 C 0.63391 0.65597 0.56771 0.0
C1248 C 0.7387 0.76779 0.6465 0.0
N1249 N 0.71568 0.7429 0.65875 0.0
C1250 C 0.68561 0.76325 0.65046 0.0
C1251 C 0.68966 0.74072 0.66253 0.0
C1252 C 0.70845 0.78811 0.63379 0.0
C1253 C 0.73562 0.79088 0.63446 0.0
H1254 H 0.75901 0.76898 0.64247 0.0
H1255 H 0.67145 0.72065 0.67137 0.0
C1256 C 0.65408 0.59771 0.68625 0.0
N1257 N 0.65577 0.62249 0.67401 0.0
C1258 C 0.62813 0.57476 0.69947 0.0
C1259 C 0.60553 0.6023 0.6847 0.0
C1260 C 0.63189 0.62469 0.67147 0.0
C1261 C 0.60377 0.57755 0.70123 0.0
H1262 H 0.67327 0.59654 0.68946 0.0
H1263 H 0.63365 0.64472 0.66274 0.0
C1264 C 0.78679 0.73595 0.66771 0.0
N1265 N 0.84297 0.77686 0.68193 0.0
C1266 C 0.80881 0.73399 0.64854 0.0
C1267 C 0.79339 0.75877 0.69404 0.0
C1268 C 0.83706 0.75488 0.65614 0.0
C1269 C 0.82191 0.77921 0.70085 0.0
C1270 C 0.73447 0.63023 0.66569 0.0
C1271 C 0.75857 0.6328 0.68531 0.0
C1272 C 0.7186 0.60712 0.63961 0.0
C1273 C 0.7664 0.61221 0.67846 0.0
C1274 C 0.72713 0.58698 0.63356 0.0
N1275 N 0.75066 0.58993 0.65294 0.0
C1276 C 0.74678 0.66952 0.78025 0.0
C1277 C 0.79194 0.70344 0.75397 0.0
C1278 C 0.75943 0.66661 0.8155 0.0
N1279 N 0.76302 0.6878 0.75044 0.0
C1280 C 0.80552 0.70158 0.78919 0.0
C1281 C 0.78919 0.68306 0.82069 0.0
H1282 H 0.72394 0.65679 0.77617 0.0
H1283 H 0.80471 0.71705 0.72949 0.0
C1284 C 0.76278 0.69759 0.55357 0.0
N1285 N 0.75957 0.67848 0.58274 0.0
C1286 C 0.77884 0.70076 0.51875 0.0
C1287 C 0.78832 0.66456 0.54428 0.0
C1288 C 0.77239 0.66243 0.57913 0.0
C1289 C 0.79142 0.68371 0.51326 0.0
H1290 H 0.75307 0.71065 0.55772 0.0
H1291 H 0.77067 0.64814 0.60312 0.0
O1292 O 0.70427 0.68456 0.71381 0.0
O1293 O 0.70283 0.68091 0.61775 0.0
O1294 O 0.759 0.71577 0.6604 0.0
O1295 O 0.72637 0.65008 0.67231 0.0
H1296 H 0.65182 0.67364 0.72927 0.0
H1297 H 0.74062 0.73032 0.75527 0.0
H1298 H 0.63989 0.70402 0.77216 0.0
H1299 H 0.72723 0.76006 0.79706 0.0
H1300 H 0.64575 0.60321 0.5407 0.0
H1301 H 0.6619 0.6929 0.60358 0.0
H1302 H 0.69057 0.63337 0.57904 0.0
H1303 H 0.61782 0.66203 0.5641 0.0
H1304 H 0.66412 0.75975 0.64903 0.0
H1305 H 0.75355 0.80913 0.62037 0.0
H1306 H 0.62804 0.55661 0.71345 0.0
H1307 H 0.58759 0.60582 0.68699 0.0
H1308 H 0.8042 0.71646 0.62826 0.0
H1309 H 0.77668 0.76072 0.70903 0.0
H1310 H 0.8543 0.75359 0.6416 0.0
H1311 H 0.8273 0.79695 0.72117 0.0
H1312 H 0.77122 0.65055 0.70542 0.0
H1313 H 0.69989 0.60472 0.62419 0.0
H1314 H 0.78503 0.61397 0.69338 0.0
H1315 H 0.71506 0.56902 0.61344 0.0
H1316 H 0.74596 0.65135 0.83834 0.0
H1317 H 0.82846 0.71462 0.79178 0.0
H1318 H 0.78132 0.71648 0.49625 0.0
H1319 H 0.79769 0.65109 0.54144 0.0
Li1320 Li 0.38246 0.34862 0.66432 0.0
Li1321 Li 0.35523 0.30158 0.7033 0.0
Li1322 Li 0.35323 0.3019 0.62666 0.0
Li1323 Li 0.32992 0.32247 0.667 0.0
C1324 C 0.41053 0.31768 0.64185 0.0
N1325 N 0.4574 0.32464 0.59882 0.0
C1326 C 0.42778 0.30776 0.65807 0.0
C1327 C 0.41702 0.33105 0.60372 0.0
C1328 C 0.45143 0.31153 0.63586 0.0
C1329 C 0.44082 0.33438 0.58243 0.0
C1330 C 0.34054 0.3455 0.73723 0.0
C1331 C 0.29693 0.33032 0.77449 0.0
N1332 N 0.30383 0.35801 0.77879 0.0
C1333 C 0.34727 0.3738 0.74207 0.0
C1334 C 0.31538 0.32358 0.754 0.0
C1335 C 0.32846 0.37969 0.76332 0.0
C1336 C 0.41265 0.40905 0.66937 0.0
N1337 N 0.4163 0.386 0.66772 0.0
C1338 C 0.46439 0.4143 0.69131 0.0
C1339 C 0.44202 0.38854 0.67647 0.0
C1340 C 0.45999 0.43736 0.69833 0.0
C1341 C 0.43436 0.4351 0.68471 0.0
H1342 H 0.39196 0.40648 0.66262 0.0
H1343 H 0.44445 0.36998 0.676 0.0
C1344 C 0.34367 0.25221 0.75045 0.0
N1345 N 0.359 0.28114 0.74789 0.0
C1346 C 0.34716 0.23818 0.784 0.0
C1347 C 0.38368 0.28385 0.80965 0.0
C1348 C 0.37919 0.29696 0.77609 0.0
C1349 C 0.36691 0.25415 0.81468 0.0
H1350 H 0.32852 0.24002 0.72674 0.0
H1351 H 0.39161 0.31986 0.77266 0.0
C1352 C 0.35584 0.35364 0.5849 0.0
N1353 N 0.35646 0.38525 0.51828 0.0
C1354 C 0.33068 0.34592 0.56351 0.0
C1355 C 0.38136 0.37721 0.57203 0.0
C1356 C 0.33145 0.36224 0.52998 0.0
C1357 C 0.38121 0.39299 0.53844 0.0
C1358 C 0.29373 0.26237 0.6628 0.0
C1359 C 0.2798 0.25919 0.62558 0.0
C1360 C 0.27848 0.24543 0.69609 0.0
C1361 C 0.25088 0.23893 0.62212 0.0
C1362 C 0.24959 0.22537 0.6914 0.0
N1363 N 0.23651 0.22255 0.65481 0.0
C1364 C 0.36257 0.2622 0.5819 0.0
C1365 C 0.33415 0.27775 0.5482 0.0
C1366 C 0.36028 0.24495 0.54856 0.0
N1367 N 0.35019 0.2787 0.58066 0.0
C1368 C 0.33038 0.26004 0.51504 0.0
C1369 C 0.34445 0.24415 0.51411 0.0
H1370 H 0.37457 0.26269 0.60856 0.0
H1371 H 0.32432 0.29081 0.54791 0.0
C1372 C 0.30457 0.35563 0.64958 0.0
N1373 N 0.29785 0.32958 0.66441 0.0
C1374 C 0.28336 0.3602 0.63326 0.0
C1375 C 0.24816 0.31248 0.65284 0.0
C1376 C 0.27006 0.30902 0.66957 0.0
C1377 C 0.25503 0.33759 0.63166 0.0
H1378 H 0.32672 0.37192 0.64641 0.0
H1379 H 0.26482 0.28894 0.68331 0.0
O1380 O 0.38715 0.3139 0.663 0.0
O1381 O 0.35773 0.33908 0.71455 0.0
O1382 O 0.3554 0.33918 0.61943 0.0
O1383 O 0.32203 0.2821 0.66688 0.0
H1384 H 0.42293 0.29726 0.68751 0.0
H1385 H 0.4037 0.33854 0.59054 0.0
H1386 H 0.46501 0.30399 0.64803 0.0
H1387 H 0.44607 0.34463 0.55285 0.0
H1388 H 0.27716 0.31355 0.78709 0.0
H1389 H 0.36668 0.39101 0.72936 0.0
H1390 H 0.30986 0.30156 0.75035 0.0
H1391 H 0.33334 0.40149 0.76726 0.0
H1392 H 0.48344 0.41485 0.70265 0.0
H1393 H 0.42977 0.45204 0.69079 0.0
H1394 H 0.33382 0.21528 0.78665 0.0
H1395 H 0.39949 0.29697 0.83222 0.0
H1396 H 0.31072 0.32778 0.57312 0.0
H1397 H 0.4011 0.38346 0.58795 0.0
H1398 H 0.31218 0.35694 0.51356 0.0
H1399 H 0.40078 0.41141 0.52843 0.0
H1400 H 0.29096 0.27269 0.59996 0.0
H1401 H 0.28872 0.24795 0.72538 0.0
H1402 H 0.23983 0.23636 0.59352 0.0
H1403 H 0.23753 0.21214 0.7169 0.0
H1404 H 0.37152 0.23315 0.54928 0.0
H1405 H 0.31735 0.25964 0.48968 0.0
H1406 H 0.28963 0.37979 0.61677 0.0
H1407 H 0.22666 0.29445 0.65206 0.0
Li1408 Li 0.69103 0.0456 0.66264 0.0
Li1409 Li 0.73758 0.06422 0.70039 0.0
Li1410 Li 0.73707 0.06117 0.6243 0.0
Li1411 Li 0.71578 0.01705 0.66623 0.0
C1412 C 0.7208 0.10263 0.63748 0.0
N1413 N 0.70996 0.13915 0.59228 0.0
C1414 C 0.7279 0.12937 0.65312 0.0
C1415 C 0.70833 0.0945 0.5988 0.0
C1416 C 0.72219 0.14751 0.62982 0.0
C1417 C 0.703 0.11326 0.57643 0.0
C1418 C 0.69147 1.00947 0.74126 0.0
C1419 C 0.70224 0.98324 0.79055 0.0
N1420 N 0.6741 0.96763 0.80018 0.0
C1421 C 0.66265 0.9932 0.75158 0.0
C1422 C 0.71146 1.00461 0.761 0.0
C1423 C 0.6543 0.97219 0.78157 0.0
C1424 C 0.63042 0.01723 0.6656 0.0
N1425 N 0.65441 0.04326 0.66814 0.0
C1426 C 0.62818 0.06273 0.70022 0.0
C1427 C 0.65345 0.06612 0.68347 0.0
C1428 C 0.60384 0.03553 0.70168 0.0
C1429 C 0.60471 1.01294 0.68201 0.0
H1430 H 0.63186 0.99917 0.65463 0.0
H1431 H 0.67287 0.08635 0.68668 0.0
C1432 C 0.787 0.10276 0.74636 0.0
N1433 N 0.75802 0.08772 0.74501 0.0
C1434 C 0.80102 0.11977 0.78034 0.0
C1435 C 0.75503 0.10706 0.80897 0.0
C1436 C 0.74198 0.09004 0.77491 0.0
C1437 C 0.78492 0.12152 0.81266 0.0
H1438 H 0.79921 0.10117 0.7214 0.0
H1439 H 0.71899 0.07844 0.77233 0.0
C1440 C 0.68326 1.01119 0.58505 0.0
N1441 N 0.64814 0.97796 0.5223 0.0
C1442 C 0.68874 0.99166 0.56508 0.0
C1443 C 0.66031 1.01426 0.57245 0.0
C1444 C 0.67062 0.97496 0.53353 0.0
C1445 C 0.64267 0.99711 0.54095 0.0
C1446 C 0.77711 0.04228 0.66702 0.0
C1447 C 0.78619 0.03459 0.63174 0.0
C1448 C 0.78955 0.04274 0.70466 0.0
C1449 C 0.80758 0.02748 0.63471 0.0
C1450 C 0.8109 0.03552 0.70635 0.0
N1451 N 0.8194 0.0281 0.67163 0.0
C1452 C 0.7763 0.109 0.57739 0.0
C1453 C 0.7624 0.06413 0.5474 0.0
C1454 C 0.79361 0.12318 0.5438 0.0
N1455 N 0.7605 0.08002 0.57799 0.0
C1456 C 0.78008 0.07737 0.51389 0.0
C1457 C 0.79514 0.10733 0.51095 0.0
H1458 H 0.77513 0.12119 0.6027 0.0
H1459 H 0.75001 0.04113 0.54888 0.0
C1460 C 0.68126 0.95779 0.65386 0.0
N1461 N 0.70796 0.97767 0.66596 0.0
C1462 C 0.67588 0.93129 0.63913 0.0
C1463 C 0.72439 0.94454 0.65475 0.0
C1464 C 0.72875 0.97067 0.66974 0.0
C1465 C 0.69834 0.92543 0.6362 0.0
H1466 H 0.66493 0.96361 0.6514 0.0
H1467 H 0.74955 0.98614 0.68078 0.0
O1468 O 0.72633 0.08467 0.65993 0.0
O1469 O 0.70006 0.02994 0.71173 0.0
O1470 O 0.6992 0.02609 0.61822 0.0
O1471 O 0.75625 0.0494 0.66474 0.0
H1472 H 0.73764 0.13598 0.68299 0.0
H1473 H 0.70312 0.0741 0.58597 0.0
H1474 H 0.72749 0.16825 0.64157 0.0
H1475 H 0.69342 0.10726 0.54641 0.0
H1476 H 0.71747 0.97904 0.80574 0.0
H1477 H 0.64691 0.9968 0.73672 0.0
H1478 H 0.73381 0.017 0.75327 0.0
H1479 H 0.63209 0.95944 0.78996 0.0
H1480 H 0.62869 0.0804 0.71647 0.0
H1481 H 0.58673 0.99145 0.68395 0.0
H1482 H 0.82405 0.1305 0.782 0.0
H1483 H 0.74179 0.1083 0.83275 0.0
H1484 H 0.70648 0.98909 0.57437 0.0
H1485 H 0.65591 0.02952 0.58709 0.0
H1486 H 0.67407 0.95927 0.51837 0.0
H1487 H 0.62462 0.99903 0.53132 0.0
H1488 H 0.7766 0.03375 0.60248 0.0
H1489 H 0.78272 0.04847 0.73234 0.0
H1490 H 0.81473 0.0214 0.60766 0.0
H1491 H 0.82067 0.03576 0.73528 0.0
H1492 H 0.8047 0.14624 0.54287 0.0
H1493 H 0.78096 0.06421 0.48966 0.0
H1494 H 0.65559 0.91738 0.62455 0.0
H1495 H 0.74237 0.94107 0.65275 0.0
Li1496 Li 0.97482 0.681 0.7033 0.0
Li1497 Li 0.99317 0.65267 0.66567 0.0
Li1498 Li 1.0219 0.70603 0.66881 0.0
Li1499 Li 0.97778 0.68322 0.62711 0.0
C1500 C 0.03005 0.68972 0.74349 0.0
N1501 N 0.07299 0.71465 0.80093 0.0
C1502 C 0.04612 0.67696 0.75362 0.0
C1503 C 0.03567 0.71503 0.76268 0.0
C1504 C 0.06769 0.68986 0.78288 0.0
C1505 C 0.05759 0.72741 0.79147 0.0
C1506 C 0.93605 0.6256 0.64055 0.0
C1507 C 0.92526 0.59661 0.57996 0.0
N1508 N 0.89909 0.57818 0.59547 0.0
C1509 C 0.90903 0.60645 0.65584 0.0
C1510 C 0.94425 0.62071 0.60228 0.0
C1511 C 0.89066 0.58256 0.63261 0.0
C1512 C 0.93655 0.69223 0.74953 0.0
N1513 N 0.95124 0.67797 0.7479 0.0
C1514 C 0.93127 0.65504 0.81128 0.0
C1515 C 0.94843 0.65918 0.77737 0.0
C1516 C 0.91714 0.67073 0.81527 0.0
C1517 C 0.91939 0.68906 0.78338 0.0
H1518 H 0.93848 0.70637 0.72491 0.0
H1519 H 0.95974 0.64754 0.77458 0.0
C1520 C 1.0211 0.62007 0.66857 0.0
N1521 N 0.99518 0.61822 0.67117 0.0
C1522 C 0.02519 0.59851 0.68483 0.0
C1523 C 0.9754 0.57241 0.70301 0.0
C1524 C 0.97222 0.59444 0.68642 0.0
C1525 C 1.0025 0.57508 0.70442 0.0
H1526 H 0.03925 0.63953 0.65764 0.0
H1527 H 0.95207 0.59376 0.68964 0.0
C1528 C 0.99738 0.7425 0.66936 0.0
N1529 N 1.01265 0.79931 0.67342 0.0
C1530 C 1.00541 0.75913 0.63396 0.0
C1531 C 0.99713 0.75478 0.70684 0.0
C1532 C 1.01307 0.78781 0.63665 0.0
C1533 C 1.00491 0.78353 0.70825 0.0
C1534 C 0.02752 0.67969 0.58758 0.0
C1535 C 0.04612 0.70496 0.5673 0.0
C1536 C 0.02537 0.65407 0.57484 0.0
C1537 C 0.06275 0.70419 0.5352 0.0
C1538 C 0.04248 0.65425 0.54284 0.0
N1539 N 0.06067 0.67911 0.52383 0.0
C1540 C 0.08099 0.73059 0.65492 0.0
C1541 C 0.06872 0.76541 0.67211 0.0
C1542 C 0.10737 0.75164 0.63971 0.0
N1543 N 0.06143 0.73755 0.66794 0.0
C1544 C 0.09474 0.78714 0.6567 0.0
C1545 C 0.1135 0.78008 0.63742 0.0
H1546 H 0.07497 0.70839 0.65217 0.0
H1547 H 0.05354 0.77087 0.68388 0.0
C1548 C 0.92994 0.6747 0.5802 0.0
N1549 N 0.9589 0.68766 0.5807 0.0
C1550 C 0.91578 0.67795 0.54667 0.0
C1551 C 0.96161 0.70977 0.51652 0.0
C1552 C 0.97482 0.70527 0.55 0.0
C1553 C 0.93165 0.6952 0.51377 0.0
H1554 H 0.91774 0.66149 0.60559 0.0
H1555 H 0.9978 0.71574 0.55141 0.0
O1556 O 1.00902 0.67761 0.71469 0.0
O1557 O 0.95422 0.64911 0.66293 0.0
O1558 O 0.98972 0.71436 0.66737 0.0
O1559 O 1.01259 0.68009 0.62108 0.0
H1560 H 0.04191 0.65727 0.73921 0.0
H1561 H 0.02342 0.72515 0.75509 0.0
H1562 H 0.08028 0.68022 0.79115 0.0
H1563 H 0.06239 0.74718 0.80622 0.0
H1564 H 0.93132 0.5926 0.55027 0.0
H1565 H 0.90237 0.61 0.6854 0.0
H1566 H 0.96491 0.63548 0.58975 0.0
H1567 H 0.8697 0.56752 0.64409 0.0
H1568 H 0.92967 0.64022 0.83473 0.0
H1569 H 0.90894 0.70159 0.78528 0.0
H1570 H 0.04662 0.60188 0.68672 0.0
H1571 H 0.95767 0.55528 0.7192 0.0
H1572 H 1.00608 0.75013 0.60483 0.0
H1573 H 0.99117 0.74234 0.73461 0.0
H1574 H 1.01942 0.80094 0.60951 0.0
H1575 H 1.00485 0.79331 0.73705 0.0
H1576 H 0.04805 0.72499 0.57675 0.0
H1577 H 1.01082 0.63423 0.58971 0.0
H1578 H 0.07765 0.72353 0.51969 0.0
H1579 H 0.04127 0.63461 0.53308 0.0
H1580 H 0.12098 0.74518 0.62453 0.0
H1581 H 0.09842 0.80868 0.65516 0.0
H1582 H 0.89271 0.66625 0.54587 0.0
H1583 H 0.97478 0.72368 0.49222 0.0
H1584 H 0.28293 0.36375 0.11234 0.0
H1585 H 0.21496 0.35951 0.04062 0.0
H1586 H 0.21332 0.36265 0.17362 0.0
H1587 H 0.16918 0.34488 0.16984 0.0
H1588 H 0.10512 0.35274 0.10652 0.0
H1589 H 0.18094 0.37052 0.04193 0.0
C1590 C 0.26258 0.36302 0.11093 0.0
C1591 C 0.2488 0.36248 0.14695 0.0
C1592 C 0.25078 0.3624 0.0729 0.0
C1593 C 0.22393 0.36068 0.07053 0.0
C1594 C 0.20902 0.36007 0.10682 0.0
C1595 C 0.22249 0.36157 0.14492 0.0
C1596 C 0.17974 0.35766 0.10571 0.0
C1597 C 0.16259 0.35007 0.14159 0.0
C1598 C 0.13613 0.34885 0.142 0.0
C1599 C 0.12546 0.35335 0.10603 0.0
C1600 C 0.14133 0.36087 0.07007 0.0
C1601 C 0.16861 0.36347 0.06975 0.0
H1602 H 0.67943 0.92906 0.11072 0.0
H1603 H 0.67966 0.86321 0.03903 0.0
H1604 H 0.67441 0.85759 0.17183 0.0
H1605 H 0.69215 0.83135 0.16873 0.0
H1606 H 0.68778 0.76117 0.10453 0.0
H1607 H 0.66846 0.81804 0.0401 0.0
C1608 C 0.67866 0.90868 0.10937 0.0
C1609 C 0.67756 0.89467 0.14541 0.0
C1610 C 0.6785 0.89708 0.07135 0.0
C1611 C 0.67882 0.87123 0.06893 0.0
C1612 C 0.67859 0.85655 0.10523 0.0
C1613 C 0.67688 0.86848 0.14328 0.0
C1614 C 0.68061 0.82948 0.10424 0.0
C1615 C 0.68772 0.81978 0.1404 0.0
C1616 C 0.68874 0.79442 0.14107 0.0
C1617 C 0.68565 0.78005 0.10462 0.0
C1618 C 0.67836 0.78832 0.06848 0.0
C1619 C 0.67526 0.81271 0.06812 0.0
H1620 H 0.27987 0.93245 0.10788 0.0
H1621 H 0.21904 0.85899 0.04146 0.0
H1622 H 0.20874 0.8677 0.17173 0.0
H1623 H 0.18011 0.82445 0.17399 0.0
H1624 H 0.10831 0.75869 0.11226 0.0
H1625 H 0.17527 0.82377 0.04103 0.0
C1626 C 0.26033 0.91192 0.10767 0.0
C1627 C 0.24597 0.90062 0.14411 0.0
C1628 C 0.25054 0.89726 0.07087 0.0
C1629 C 0.22541 0.87032 0.07018 0.0
C1630 C 0.20924 0.85853 0.10661 0.0
C1631 C 0.21997 0.87478 0.1432 0.0
C1632 C 0.18165 0.82975 0.10735 0.0
C1633 C 0.16935 0.81623 0.14529 0.0
C1634 C 0.14292 0.79094 0.14718 0.0
C1635 C 0.12888 0.77815 0.11105 0.0
C1636 C 0.14082 0.78934 0.07314 0.0
C1637 C 0.16699 0.81526 0.07093 0.0
H1638 H 0.36099 0.09823 0.89295 0.0
H1639 H 0.37778 0.1735 0.95838 0.0
H1640 H 0.35237 0.16197 0.83024 0.0
H1641 H 0.3691 0.20594 0.82697 0.0
H1642 H 0.36792 0.27417 0.88919 0.0
H1643 H 0.36721 0.20767 0.96001 0.0
C1644 C 0.3614 0.11847 0.89363 0.0
C1645 C 0.35672 0.1291 0.8578 0.0
C1646 C 0.36874 0.13419 0.92976 0.0
C1647 C 0.37096 0.16132 0.93037 0.0
C1648 C 0.36502 0.17246 0.8945 0.0
C1649 C 0.35766 0.15544 0.85844 0.0
C1650 C 0.36685 0.2015 0.89372 0.0
C1651 C 0.36772 0.21484 0.85576 0.0
C1652 C 0.36775 0.24075 0.85398 0.0
C1653 C 0.36792 0.25419 0.89026 0.0
C1654 C 0.36838 0.24279 0.92815 0.0
C1655 C 0.36757 0.21635 0.93019 0.0
H1656 H 0.76636 0.10069 0.88675 0.0
H1657 H 0.83193 0.16719 0.95829 0.0
H1658 H 0.83216 0.1726 0.82545 0.0
H1659 H 0.87576 0.20052 0.82789 0.0
H1660 H 0.94032 0.27198 0.89186 0.0
H1661 H 0.8667 0.21131 0.9579 0.0
C1662 C 0.78588 0.12121 0.88806 0.0
C1663 C 0.79859 0.13535 0.85202 0.0
C1664 C 0.79724 0.13297 0.92604 0.0
C1665 C 0.82325 0.15905 0.92837 0.0
C1666 C 0.83762 0.17381 0.89202 0.0
C1667 C 0.82396 0.16171 0.85404 0.0
C1668 C 0.86643 0.20133 0.89287 0.0
C1669 C 0.88278 0.21191 0.85638 0.0
C1670 C 0.90861 0.23792 0.85555 0.0
C1671 C 0.91981 0.25242 0.892 0.0
C1672 C 0.90507 0.24271 0.92871 0.0
C1673 C 0.87813 0.2176 0.92929 0.0
H1674 H 0.76894 0.67913 0.89582 0.0
H1675 H 0.82684 0.66122 0.96016 0.0
H1676 H 0.8395 0.68454 0.83144 0.0
H1677 H 0.86619 0.66732 0.82821 0.0
H1678 H 0.9377 0.67229 0.88936 0.0
H1679 H 0.87174 0.6721 0.96107 0.0
C1680 C 0.78803 0.67735 0.89569 0.0
C1681 C 0.80243 0.68068 0.85923 0.0
C1682 C 0.7967 0.6705 0.93185 0.0
C1683 C 0.82127 0.66773 0.93211 0.0
C1684 C 0.83792 0.67308 0.89591 0.0
C1685 C 0.82798 0.68 0.8598 0.0
C1686 C 0.8651 0.67127 0.89485 0.0
C1687 C 0.87707 0.66972 0.85678 0.0
C1688 C 0.90328 0.67042 0.85466 0.0
C1689 C 0.91731 0.67151 0.8907 0.0
C1690 C 0.90567 0.67119 0.92872 0.0
C1691 C 0.87978 0.67142 0.93114 0.0
H1692 H 0.94878 0.69191 0.43898 0.0
H1693 H 0.88083 0.68957 0.36968 0.0
H1694 H 0.88427 0.69934 0.50201 0.0
H1695 H 0.83984 0.68128 0.50096 0.0
H1696 H 0.77422 0.68734 0.43888 0.0
H1697 H 0.84831 0.70291 0.37162 0.0
C1698 C 0.92923 0.6927 0.43827 0.0
C1699 C 0.91743 0.69509 0.47471 0.0
C1700 C 0.91662 0.69135 0.40061 0.0
C1701 C 0.8906 0.69142 0.39916 0.0
C1702 C 0.87737 0.69324 0.4359 0.0
C1703 C 0.89197 0.69596 0.47337 0.0
C1704 C 0.84855 0.69186 0.43599 0.0
C1705 C 0.83246 0.68569 0.47284 0.0
C1706 C 0.8065 0.68558 0.47434 0.0
C1707 C 0.79492 0.68873 0.43825 0.0
C1708 C 0.80967 0.69483 0.40147 0.0
C1709 C 0.83675 0.69698 0.40016 0.0
H1710 H 0.34824 0.26354 0.4383 0.0
H1711 H 0.34813 0.19566 0.37184 0.0
H1712 H 0.34104 0.19258 0.50434 0.0
H1713 H 0.36305 0.16928 0.50307 0.0
H1714 H 0.35204 0.09361 0.44699 0.0
H1715 H 0.33384 0.14928 0.37702 0.0
C1716 C 0.34719 0.24308 0.43859 0.0
C1717 C 0.34503 0.22962 0.47566 0.0
C1718 C 0.34729 0.23062 0.40142 0.0
C1719 C 0.34717 0.20453 0.401 0.0
C1720 C 0.34635 0.19065 0.43837 0.0
C1721 C 0.34411 0.20325 0.47538 0.0
C1722 C 0.34818 0.16359 0.43964 0.0
C1723 C 0.35679 0.15586 0.47625 0.0
C1724 C 0.35778 0.13057 0.47901 0.0
C1725 C 0.3517 0.11342 0.4447 0.0
C1726 C 0.34347 0.12017 0.40804 0.0
C1727 C 0.34129 0.14502 0.40532 0.0
H1728 H 0.93982 0.26764 0.43178 0.0
H1729 H 0.88486 0.18993 0.36854 0.0
H1730 H 0.8698 0.20109 0.49598 0.0
H1731 H 0.84598 0.1559 0.4982 0.0
H1732 H 0.77439 0.08925 0.43645 0.0
H1733 H 0.83763 0.15861 0.36626 0.0
C1734 C 0.92116 0.24643 0.432 0.0
C1735 C 0.90677 0.23522 0.46851 0.0
C1736 C 0.91375 0.23026 0.39635 0.0
C1737 C 0.88962 0.20259 0.39604 0.0
C1738 C 0.87242 0.19145 0.43171 0.0
C1739 C 0.88161 0.20848 0.46784 0.0
C1740 C 0.84567 0.16213 0.43219 0.0
C1741 C 0.83462 0.14756 0.46985 0.0
C1742 C 0.80879 0.1215 0.47164 0.0
C1743 C 0.7944 0.10921 0.43542 0.0
C1744 C 0.80478 0.12204 0.39761 0.0
C1745 C 0.83036 0.14857 0.39575 0.0
H1746 H 1.02242 0.42902 0.22906 0.0
H1747 H 0.0312 0.50012 0.29755 0.0
H1748 H 0.03072 0.50102 0.16477 0.0
H1749 H 1.01266 0.52759 0.16777 0.0
H1750 H 0.03133 0.60558 0.22539 0.0
H1751 H 0.04241 0.54482 0.29377 0.0
C1752 C 0.02456 0.45002 0.22945 0.0
C1753 C 0.02592 0.46353 0.19278 0.0
C1754 C 0.02787 0.46359 0.26682 0.0
C1755 C 0.02939 0.49039 0.26806 0.0
C1756 C 0.02849 0.50399 0.23114 0.0
C1757 C 0.02822 0.4905 0.1937 0.0
C1758 C 0.02843 0.53208 0.23059 0.0
C1759 C 1.02047 0.5411 0.19442 0.0
C1760 C 1.02179 0.56764 0.19206 0.0
C1761 C 0.0297 0.58482 0.22678 0.0
C1762 C 0.03621 0.57629 0.26344 0.0
C1763 C 0.03614 0.55028 0.2654 0.0
H1764 H 0.4298 0.43783 0.22375 0.0
H1765 H 0.49799 0.50077 0.29657 0.0
H1766 H 0.49921 0.5073 0.1638 0.0
H1767 H 0.54324 0.53275 0.16768 0.0
H1768 H 0.60905 0.60287 0.2322 0.0
H1769 H 0.53222 0.54629 0.29593 0.0
C1770 C 0.45013 0.45748 0.22555 0.0
C1771 C 0.46394 0.47118 0.18977 0.0
C1772 C 0.46199 0.4682 0.26379 0.0
C1773 C 0.48889 0.49333 0.26659 0.0
C1774 C 0.50375 0.50811 0.23055 0.0
C1775 C 0.49017 0.49665 0.1923 0.0
C1776 C 0.53321 0.53478 0.23195 0.0
C1777 C 0.55029 0.54434 0.19601 0.0
C1778 C 0.57679 0.56964 0.1955 0.0
C1779 C 0.58798 0.58402 0.232 0.0
C1780 C 0.57222 0.57581 0.268 0.0
C1781 C 0.54457 0.55154 0.26811 0.0
H1782 H 0.43429 1.01051 0.2251 0.0
H1783 H 0.49865 1.00542 0.29366 0.0
H1784 H 0.50005 1.00569 0.16077 0.0
H1785 H 0.54481 0.02416 0.16424 0.0
H1786 H 0.6047 1.00659 0.22244 0.0
H1787 H 0.53195 0.994 0.28992 0.0
C1788 C 0.45362 1.0092 0.22548 0.0
C1789 C 0.46635 1.0088 0.1888 0.0
C1790 C 0.46448 1.00686 0.26289 0.0
C1791 C 0.49031 1.00641 0.26412 0.0
C1792 C 0.5049 1.00748 0.22722 0.0
C1793 C 0.49159 1.0075 0.18974 0.0
C1794 C 0.53337 1.00816 0.22685 0.0
C1795 C 0.55058 0.01649 0.1909 0.0
C1796 C 0.57611 0.01568 0.1888 0.0
C1797 C 0.58537 1.00788 0.2236 0.0
C1798 C 0.57008 1.00103 0.26006 0.0
C1799 C 0.54386 1.00056 0.26171 0.0
H1800 H 0.61365 0.0241 0.77447 0.0
H1801 H 0.55236 0.03447 0.70629 0.0
H1802 H 0.53557 1.00489 0.83229 0.0
H1803 H 0.50841 0.02232 0.83529 0.0
H1804 H 0.43612 1.0132 0.77058 0.0
H1805 H 0.50783 0.02338 0.70254 0.0
C1806 C 0.59281 0.02232 0.77317 0.0
C1807 C 0.57567 1.01425 0.80791 0.0
C1808 C 0.58409 0.02867 0.73656 0.0
C1809 C 0.55796 0.02837 0.73468 0.0
C1810 C 0.53983 0.02059 0.76952 0.0
C1811 C 0.54903 1.01276 0.80564 0.0
C1812 C 0.51156 0.02032 0.76892 0.0
C1813 C 0.4979 0.01977 0.80632 0.0
C1814 C 0.47078 0.01717 0.80709 0.0
C1815 C 0.45724 0.01563 0.77032 0.0
C1816 C 0.47101 0.01934 0.73307 0.0
C1817 C 0.49798 0.02124 0.73198 0.0
H1818 H 1.015 0.59674 0.77696 0.0
H1819 H 1.00207 0.52384 0.70926 0.0
H1820 H 0.03222 0.53661 0.83503 0.0
H1821 H 1.01296 0.49175 0.83841 0.0
H1822 H 1.01824 0.42605 0.77455 0.0
H1823 H 1.01378 0.49058 0.70556 0.0
C1824 C 1.0162 0.57736 0.77573 0.0
C1825 C 0.02389 0.56802 0.81053 0.0
C1826 C 1.00929 0.56206 0.73921 0.0
C1827 C 1.0087 0.53579 0.73748 0.0
C1828 C 1.01622 0.52525 0.77234 0.0
C1829 C 0.0246 0.54245 0.80836 0.0
C1830 C 1.01536 0.49671 0.772 0.0
C1831 C 1.01501 0.48332 0.80953 0.0
C1832 C 1.01629 0.45809 0.81063 0.0
C1833 C 1.01694 0.44539 0.77404 0.0
C1834 C 1.0149 0.45629 0.73652 0.0
C1835 C 1.01452 0.48216 0.73514 0.0
H1836 H 0.61211 0.59889 0.77335 0.0
H1837 H 0.55313 0.52529 0.70562 0.0
H1838 H 0.54086 0.53316 0.8356 0.0
H1839 H 0.51065 0.49043 0.83684 0.0
H1840 H 0.44049 0.4249 0.77189 0.0
H1841 H 0.50976 0.48979 0.70373 0.0
C1842 C 0.59278 0.5782 0.77268 0.0
C1843 C 0.57811 0.56652 0.80875 0.0
C1844 C 0.58392 0.56357 0.73579 0.0
C1845 C 0.55887 0.53652 0.73442 0.0
C1846 C 0.542 0.52453 0.77035 0.0
C1847 C 0.55227 0.54052 0.80726 0.0
C1848 C 0.51421 0.49581 0.77021 0.0
C1849 C 0.50071 0.48226 0.80766 0.0
C1850 C 0.47414 0.45695 0.80849 0.0
C1851 C 0.46111 0.44431 0.77169 0.0
C1852 C 0.47429 0.45551 0.73436 0.0
C1853 C 0.50055 0.48137 0.73327 0.0
H1854 H 0.69422 0.76639 0.56215 0.0
H1855 H 0.71058 0.8408 0.62946 0.0
H1856 H 0.68922 0.83251 0.49999 0.0
H1857 H 0.70796 0.87702 0.4991 0.0
H1858 H 0.69971 0.94127 0.56158 0.0
H1859 H 0.69676 0.87317 0.63114 0.0
C1860 C 0.69586 0.78719 0.56279 0.0
C1861 C 0.69305 0.79892 0.52665 0.0
C1862 C 0.70213 0.80198 0.59959 0.0
C1863 C 0.70456 0.82919 0.60091 0.0
C1864 C 0.6996 0.84108 0.56504 0.0
C1865 C 0.69343 0.825 0.52815 0.0
C1866 C 0.70116 0.86996 0.56507 0.0
C1867 C 0.70427 0.88465 0.5276 0.0
C1868 C 0.70332 0.91006 0.52608 0.0
C1869 C 0.70058 0.92176 0.56242 0.0
C1870 C 0.69886 0.90906 0.60011 0.0
C1871 C 0.69896 0.88306 0.60169 0.0
H1872 H 0.09706 0.76713 0.5626 0.0
H1873 H 0.16674 0.82989 0.63323 0.0
H1874 H 0.16424 0.83838 0.50131 0.0
H1875 H 0.20947 0.86186 0.5039 0.0
H1876 H 0.27597 0.93194 0.5684 0.0
H1877 H 0.19806 0.87721 0.63109 0.0
C1878 C 0.11714 0.78702 0.56378 0.0
C1879 C 0.12959 0.80137 0.52766 0.0
C1880 C 0.13003 0.79726 0.60166 0.0
C1881 C 0.15668 0.8227 0.60369 0.0
C1882 C 0.17033 0.838 0.56735 0.0
C1883 C 0.15578 0.82705 0.52961 0.0
C1884 C 0.19971 0.86465 0.56803 0.0
C1885 C 0.21683 0.87373 0.53204 0.0
C1886 C 0.24361 0.89885 0.5315 0.0
C1887 C 0.25476 0.91331 0.56805 0.0
C1888 C 0.2385 0.90599 0.60358 0.0
C1889 C 0.2108 0.88191 0.60371 0.0
H1890 H 0.10242 0.34461 0.55328 0.0
H1891 H 0.15728 0.32437 0.62188 0.0
H1892 H 0.17701 0.35367 0.49605 0.0
H1893 H 0.1977 0.32888 0.49396 0.0
H1894 H 0.26784 0.33211 0.55733 0.0
H1895 H 0.2052 0.3407 0.62576 0.0
C1896 C 0.122 0.34379 0.55523 0.0
C1897 C 0.13883 0.34949 0.52067 0.0
C1898 C 0.12861 0.33513 0.59164 0.0
C1899 C 0.15306 0.33218 0.59387 0.0
C1900 C 0.1713 0.33869 0.55931 0.0
C1901 C 0.16375 0.34775 0.523 0.0
C1902 C 0.1976 0.33556 0.55986 0.0
C1903 C 0.20872 0.33162 0.52259 0.0
C1904 C 0.23423 0.33089 0.52144 0.0
C1905 C 0.24808 0.33254 0.55797 0.0
C1906 C 0.23774 0.33579 0.59544 0.0
C1907 C 0.2125 0.33735 0.59663 0.0
loop_
_geom_bond_atom_site_label_1
_geom_bond_atom_site_label_2
_geom_bond_distance
_geom_bond_site_symmetry_2
_ccdc_geom_bond_type
Li0 N17 1.990 1_554 S
Li0 O60 1.956 . S
Li0 O61 1.970 1_654 S
Li0 O62 1.961 1_554 S
Li1 N25 1.990 . S
Li1 O60 1.970 1_455 S
Li1 O61 1.956 1_554 S
Li1 O63 1.961 . S
Li2 N47 1.990 . S
Li2 O60 1.961 . S
Li2 O62 1.956 1_554 S
Li2 O63 1.970 1_655 S
Li3 N53 1.990 . S
Li3 O61 1.961 . S
Li3 O62 1.970 1_455 S
Li3 O63 1.956 1_556 S
C4 C6 1.348 1_655 S
C4 C7 1.356 . S
C4 O60 1.325 . S
N5 C8 1.314 . S
N5 C9 1.279 . S
C6 C4 1.348 1_455 S
C6 C8 1.353 1_455 S
C6 H64 0.929 . S
C7 C4 1.356 . S
C7 C9 1.358 . S
C7 H65 0.930 . S
C8 N5 1.314 . S
C8 C6 1.353 1_655 S
C8 H66 0.930 1_655 S
C9 N5 1.279 . S
C9 C7 1.358 . S
C9 H67 0.930 . S
C10 C13 1.348 1_455 S
C10 C14 1.356 . S
C10 O61 1.325 . S
C11 N12 1.279 . S
C11 C14 1.358 . S
C11 H68 0.930 . S
N12 C11 1.279 . S
N12 C15 1.314 . S
C13 C10 1.348 1_655 S
C13 C15 1.329 1_655 S
C13 H69 0.956 . S
C14 C10 1.356 . S
C14 C11 1.358 . S
C14 H70 0.930 . S
C15 N12 1.314 . S
C15 C13 1.329 1_455 S
C15 H71 0.930 1_455 S
C16 N17 1.314 . S
C16 C21 1.353 . S
C16 H22 0.930 . S
N17 Li0 1.990 1_556 S
N17 C16 1.314 . S
N17 C19 1.279 1_556 S
C18 C19 1.358 . S
C18 C20 1.356 1_554 S
C18 H72 0.930 . S
C19 N17 1.279 1_554 S
C19 C18 1.358 . S
C19 H23 0.930 . S
C20 C18 1.356 1_556 S
C20 C21 1.348 . S
C21 C16 1.353 . S
C21 C20 1.348 . S
C21 H73 0.929 . S
H22 C16 0.930 . S
H23 C19 0.930 . S
C24 N25 1.314 . S
C24 C26 1.353 . S
C24 H30 0.930 . S
N25 Li1 1.990 . S
N25 C24 1.314 . S
N25 C28 1.279 . S
C26 C24 1.353 . S
C26 C29 1.348 . S
C26 H74 0.929 . S
C27 C28 1.358 . S
C27 C29 1.356 . S
C27 H75 0.930 1_554 S
C28 N25 1.279 . S
C28 C27 1.358 . S
C28 H31 0.930 1_554 S
C29 C26 1.348 . S
C29 C27 1.356 . S
H30 C24 0.930 . S
H31 C28 0.930 1_556 S
C32 C34 1.348 . S
C32 C35 1.356 1_556 S
C32 O62 1.325 . S
N33 C36 1.314 . S
N33 C37 1.279 1_556 S
C34 C32 1.348 . S
C34 C36 1.353 . S
C34 H76 0.929 . S
C35 C32 1.356 1_554 S
C35 C37 1.358 . S
C35 H77 0.930 . S
C36 N33 1.314 . S
C36 C34 1.353 . S
C36 H78 0.930 . S
C37 N33 1.279 1_554 S
C37 C35 1.358 . S
C37 H79 0.930 . S
C38 C39 1.348 . S
C38 C40 1.356 . S
C38 O63 1.325 . S
C39 C38 1.348 . S
C39 C41 1.353 . S
C39 H80 0.929 . S
C40 C38 1.356 . S
C40 C42 1.358 . S
C40 H81 0.930 1_554 S
C41 C39 1.353 . S
C41 N43 1.314 . S
C41 H82 0.930 . S
C42 C40 1.358 . S
C42 N43 1.279 . S
C42 H83 0.930 . S
N43 C41 1.314 . S
N43 C42 1.279 . S
C44 C46 1.353 . S
C44 N47 1.314 . S
C44 H50 0.930 1_655 S
C45 N47 1.279 . S
C45 C48 1.358 . S
C45 H51 0.930 . S
C46 C44 1.353 . S
C46 C49 1.348 . S
C46 H84 0.929 . S
N47 Li2 1.990 . S
N47 C44 1.314 . S
N47 C45 1.279 . S
C48 C45 1.358 . S
C48 C49 1.356 . S
C48 H85 0.930 . S
C49 C46 1.348 . S
C49 C48 1.356 . S
H50 C44 0.930 1_455 S
H51 C45 0.930 . S
C52 N53 1.314 . S
C52 C54 1.353 . S
C52 H58 0.930 1_455 S
N53 Li3 1.990 . S
N53 C52 1.314 . S
N53 C56 1.279 . S
C54 C52 1.353 . S
C54 C57 1.348 . S
C54 H86 0.929 . S
C55 C56 1.358 . S
C55 C57 1.356 . S
C55 H87 0.930 . S
C56 N53 1.279 . S
C56 C55 1.358 . S
C56 H59 0.930 . S
C57 C54 1.348 . S
C57 C55 1.356 . S
H58 C52 0.930 1_655 S
H59 C56 0.930 . S
O60 Li0 1.956 . S
O60 Li1 1.970 1_655 S
O60 Li2 1.961 . S
O60 C4 1.325 . S
O61 Li0 1.970 1_456 S
O61 Li1 1.956 1_556 S
O61 Li3 1.961 . S
O61 C10 1.325 . S
O62 Li0 1.961 1_556 S
O62 Li2 1.956 1_556 S
O62 Li3 1.970 1_655 S
O62 C32 1.325 . S
O63 Li1 1.961 . S
O63 Li2 1.970 1_455 S
O63 Li3 1.956 1_554 S
O63 C38 1.325 . S
H64 C6 0.929 . S
H65 C7 0.930 . S
H66 C8 0.930 1_455 S
H67 C9 0.930 . S
H68 C11 0.930 . S
H69 C13 0.956 . S
H70 C14 0.930 . S
H71 C15 0.930 1_655 S
H72 C18 0.930 . S
H73 C21 0.929 . S
H74 C26 0.929 . S
H75 C27 0.930 1_556 S
H76 C34 0.929 . S
H77 C35 0.930 . S
H78 C36 0.930 . S
H79 C37 0.930 . S
H80 C39 0.929 . S
H81 C40 0.930 1_556 S
H82 C41 0.930 . S
H83 C42 0.930 . S
H84 C46 0.929 . S
H85 C48 0.930 . S
H86 C54 0.929 . S
H87 C55 0.930 . S
Li88 N105 1.994 . S
Li88 O148 1.939 1_556 S
Li88 O149 1.981 . S
Li88 O150 1.962 . S
Li89 N113 1.990 . S
Li89 O148 1.970 . S
Li89 O149 1.956 1_554 S
Li89 O151 1.961 . S
Li90 N135 1.990 . S
Li90 O148 1.961 . S
Li90 O150 1.956 1_554 S
Li90 O151 1.970 . S
Li91 N141 1.990 . S
Li91 O149 1.961 . S
Li91 O150 1.970 . S
Li91 O151 1.956 1_556 S
C92 C94 1.348 . S
C92 C95 1.356 . S
C92 O148 1.325 . S
N93 C96 1.314 . S
N93 C97 1.279 . S
C94 C92 1.348 . S
C94 C96 1.353 . S
C94 H152 0.929 . S
C95 C92 1.356 . S
C95 C97 1.358 . S
C95 H153 0.930 . S
C96 N93 1.314 . S
C96 C94 1.353 . S
C96 H154 0.930 . S
C97 N93 1.279 . S
C97 C95 1.358 . S
C97 H155 0.930 . S
C98 C101 1.348 . S
C98 C102 1.356 . S
C98 O149 1.325 . S
C99 N100 1.279 . S
C99 C102 1.358 . S
C99 H156 0.930 . S
N100 C99 1.279 . S
N100 C103 1.314 . S
C101 C98 1.348 . S
C101 C103 1.353 . S
C101 H157 0.929 . S
C102 C98 1.356 . S
C102 C99 1.358 . S
C102 H158 0.930 . S
C103 N100 1.314 . S
C103 C101 1.353 . S
C103 H159 0.930 . S
C104 N105 1.314 . S
C104 C109 1.353 . S
C104 H110 0.930 . S
N105 Li88 1.994 . S
N105 C104 1.314 . S
N105 C107 1.279 1_556 S
C106 C107 1.358 1_556 S
C106 C108 1.356 . S
C106 H160 0.930 1_556 S
C107 N105 1.279 1_554 S
C107 C106 1.358 1_554 S
C107 H111 0.930 . S
C108 C106 1.356 . S
C108 C109 1.348 . S
C109 C104 1.353 . S
C109 C108 1.348 . S
C109 H161 0.929 . S
H110 C104 0.930 . S
H111 C107 0.930 . S
C112 N113 1.314 . S
C112 C114 1.353 . S
C112 H118 0.930 . S
N113 Li89 1.990 . S
N113 C112 1.314 . S
N113 C116 1.279 . S
C114 C112 1.353 . S
C114 C117 1.348 . S
C114 H162 0.929 . S
C115 C116 1.358 . S
C115 C117 1.356 . S
C115 H163 0.930 . S
C116 N113 1.279 . S
C116 C115 1.358 . S
C116 H119 0.930 1_554 S
C117 C114 1.348 . S
C117 C115 1.356 . S
H118 C112 0.930 . S
H119 C116 0.930 1_556 S
C120 C122 1.348 . S
C120 C123 1.356 1_556 S
C120 O150 1.325 . S
N121 C124 1.314 . S
N121 C125 1.279 . S
C122 C120 1.348 . S
C122 C124 1.353 . S
C122 H164 0.929 . S
C123 C120 1.356 1_554 S
C123 C125 1.358 1_554 S
C123 H165 0.930 . S
C124 N121 1.314 . S
C124 C122 1.353 . S
C124 H166 0.930 . S
C125 N121 1.279 . S
C125 C123 1.358 1_556 S
C125 H167 0.930 1_556 S
C126 C127 1.348 . S
C126 C128 1.356 . S
C126 O151 1.325 . S
C127 C126 1.348 . S
C127 C129 1.353 . S
C127 H168 0.929 . S
C128 C126 1.356 . S
C128 C130 1.358 . S
C128 H169 0.930 1_554 S
C129 C127 1.353 . S
C129 N131 1.314 . S
C129 H170 0.930 . S
C130 C128 1.358 . S
C130 N131 1.279 . S
C130 H171 0.930 . S
N131 C129 1.314 . S
N131 C130 1.279 . S
C132 C134 1.353 . S
C132 N135 1.314 . S
C132 H138 0.930 . S
C133 N135 1.279 . S
C133 C136 1.358 . S
C133 H139 0.930 . S
C134 C132 1.353 . S
C134 C137 1.348 . S
C134 H172 0.929 . S
N135 Li90 1.990 . S
N135 C132 1.314 . S
N135 C133 1.279 . S
C136 C133 1.358 . S
C136 C137 1.356 . S
C136 H173 0.930 . S
C137 C134 1.348 . S
C137 C136 1.356 . S
H138 C132 0.930 . S
H139 C133 0.930 . S
C140 N141 1.314 . S
C140 C142 1.353 . S
C140 H146 0.930 . S
N141 Li91 1.990 . S
N141 C140 1.314 . S
N141 C144 1.279 . S
C142 C140 1.353 . S
C142 C145 1.348 . S
C142 H174 0.929 . S
C143 C144 1.358 . S
C143 C145 1.356 . S
C143 H175 0.930 . S
C144 N141 1.279 . S
C144 C143 1.358 . S
C144 H147 0.930 . S
C145 C142 1.348 . S
C145 C143 1.356 . S
H146 C140 0.930 . S
H147 C144 0.930 . S
O148 Li88 1.939 1_554 S
O148 Li89 1.970 . S
O148 Li90 1.961 . S
O148 C92 1.325 . S
O149 Li88 1.981 . S
O149 Li89 1.956 1_556 S
O149 Li91 1.961 . S
O149 C98 1.325 . S
O150 Li88 1.962 . S
O150 Li90 1.956 1_556 S
O150 Li91 1.970 . S
O150 C120 1.325 . S
O151 Li89 1.961 . S
O151 Li90 1.970 . S
O151 Li91 1.956 1_554 S
O151 C126 1.325 . S
H152 C94 0.929 . S
H153 C95 0.930 . S
H154 C96 0.930 . S
H155 C97 0.930 . S
H156 C99 0.930 . S
H157 C101 0.929 . S
H158 C102 0.930 . S
H159 C103 0.930 . S
H160 C106 0.930 1_554 S
H161 C109 0.929 . S
H162 C114 0.929 . S
H163 C115 0.930 . S
H164 C122 0.929 . S
H165 C123 0.930 . S
H166 C124 0.930 . S
H167 C125 0.930 1_554 S
H168 C127 0.929 . S
H169 C128 0.930 1_556 S
H170 C129 0.930 . S
H171 C130 0.930 . S
H172 C134 0.929 . S
H173 C136 0.930 . S
H174 C142 0.929 . S
H175 C143 0.930 . S
Li176 N193 1.990 . S
Li176 O236 1.956 1_556 S
Li176 O237 1.970 1_565 S
Li176 O238 1.961 . S
Li177 N201 1.990 . S
Li177 O236 1.970 1_545 S
Li177 O237 1.956 1_554 S
Li177 O239 1.961 . S
Li178 N223 1.990 . S
Li178 O236 1.961 . S
Li178 O238 1.956 1_554 S
Li178 O239 1.970 1_565 S
Li179 N229 1.990 1_554 S
Li179 O237 1.961 1_554 S
Li179 O238 1.970 1_544 S
Li179 O239 1.956 . S
C180 C182 1.348 . S
C180 C183 1.356 . S
C180 O236 1.325 . S
N181 C184 1.314 . S
N181 C185 1.279 . S
C182 C180 1.348 . S
C182 C184 1.353 . S
C182 H240 0.929 . S
C183 C180 1.356 . S
C183 C185 1.358 . S
C183 H241 0.930 1_554 S
C184 N181 1.314 . S
C184 C182 1.353 . S
C184 H242 0.930 . S
C185 N181 1.279 . S
C185 C183 1.358 . S
C185 H243 0.930 . S
C186 C189 1.348 . S
C186 C190 1.356 1_556 S
C186 O237 1.325 . S
C187 N188 1.279 1_554 S
C187 C190 1.358 . S
C187 H244 0.930 . S
N188 C187 1.279 1_556 S
N188 C191 1.314 . S
C189 C186 1.348 . S
C189 C191 1.353 . S
C189 H245 0.929 . S
C190 C186 1.356 1_554 S
C190 C187 1.358 . S
C190 H246 0.930 . S
C191 N188 1.314 . S
C191 C189 1.353 . S
C191 H247 0.930 . S
C192 N193 1.314 . S
C192 C197 1.353 . S
C192 H198 0.930 1_565 S
N193 Li176 1.990 . S
N193 C192 1.314 . S
N193 C195 1.279 . S
C194 C195 1.358 . S
C194 C196 1.356 . S
C194 H248 0.930 . S
C195 N193 1.279 . S
C195 C194 1.358 . S
C195 H199 0.930 . S
C196 C194 1.356 . S
C196 C197 1.348 . S
C197 C192 1.353 . S
C197 C196 1.348 . S
C197 H249 0.929 . S
H198 C192 0.930 1_545 S
H199 C195 0.930 . S
C200 N201 1.314 . S
C200 C202 1.353 . S
C200 H206 0.930 1_545 S
N201 Li177 1.990 . S
N201 C200 1.314 . S
N201 C204 1.279 . S
C202 C200 1.353 . S
C202 C205 1.348 . S
C202 H250 0.929 . S
C203 C204 1.358 . S
C203 C205 1.356 . S
C203 H251 0.930 . S
C204 N201 1.279 . S
C204 C203 1.358 . S
C204 H207 0.930 . S
C205 C202 1.348 . S
C205 C203 1.356 . S
H206 C200 0.930 1_565 S
H207 C204 0.930 . S
C208 C210 1.348 1_565 S
C208 C211 1.356 . S
C208 O238 1.325 . S
N209 C212 1.314 . S
N209 C213 1.279 . S
C210 C208 1.348 1_545 S
C210 C212 1.353 1_545 S
C210 H252 0.929 . S
C211 C208 1.356 . S
C211 C213 1.358 . S
C211 H253 0.930 . S
C212 N209 1.314 . S
C212 C210 1.353 1_565 S
C212 H254 0.930 1_565 S
C213 N209 1.279 . S
C213 C211 1.358 . S
C213 H255 0.930 . S
C214 C215 1.348 1_545 S
C214 C216 1.356 . S
C214 O239 1.325 . S
C215 C214 1.348 1_565 S
C215 C217 1.332 1_565 S
C215 H256 0.952 . S
C216 C214 1.356 . S
C216 C218 1.358 . S
C216 H257 0.930 . S
C217 C215 1.332 1_545 S
C217 N219 1.314 . S
C217 H258 0.930 1_545 S
C218 C216 1.358 . S
C218 N219 1.279 . S
C218 H259 0.930 . S
N219 C217 1.314 . S
N219 C218 1.279 . S
C220 C222 1.353 . S
C220 N223 1.314 . S
C220 H226 0.930 . S
C221 N223 1.279 . S
C221 C224 1.358 . S
C221 H227 0.930 1_554 S
C222 C220 1.353 . S
C222 C225 1.348 . S
C222 H260 0.929 . S
N223 Li178 1.990 . S
N223 C220 1.314 . S
N223 C221 1.279 . S
C224 C221 1.358 . S
C224 C225 1.356 . S
C224 H261 0.930 1_554 S
C225 C222 1.348 . S
C225 C224 1.356 . S
H226 C220 0.930 . S
H227 C221 0.930 1_556 S
C228 N229 1.314 . S
C228 C230 1.353 . S
C228 H234 0.930 . S
N229 Li179 1.990 1_556 S
N229 C228 1.314 . S
N229 C232 1.279 1_556 S
C230 C228 1.353 . S
C230 C233 1.348 . S
C230 H262 0.929 . S
C231 C232 1.358 . S
C231 C233 1.356 1_554 S
C231 H263 0.930 . S
C232 N229 1.279 1_554 S
C232 C231 1.358 . S
C232 H235 0.930 . S
C233 C230 1.348 . S
C233 C231 1.356 1_556 S
H234 C228 0.930 . S
H235 C232 0.930 . S
O236 Li176 1.956 1_554 S
O236 Li177 1.970 1_565 S
O236 Li178 1.961 . S
O236 C180 1.325 . S
O237 Li176 1.970 1_545 S
O237 Li177 1.956 1_556 S
O237 Li179 1.961 1_556 S
O237 C186 1.325 . S
O238 Li176 1.961 . S
O238 Li178 1.956 1_556 S
O238 Li179 1.970 1_566 S
O238 C208 1.325 . S
O239 Li177 1.961 . S
O239 Li178 1.970 1_545 S
O239 Li179 1.956 . S
O239 C214 1.325 . S
H240 C182 0.929 . S
H241 C183 0.930 1_556 S
H242 C184 0.930 . S
H243 C185 0.930 . S
H244 C187 0.930 . S
H245 C189 0.929 . S
H246 C190 0.930 . S
H247 C191 0.930 . S
H248 C194 0.930 . S
H249 C197 0.929 . S
H250 C202 0.929 . S
H251 C203 0.930 . S
H252 C210 0.929 . S
H253 C211 0.930 . S
H254 C212 0.930 1_545 S
H255 C213 0.930 . S
H256 C215 0.952 . S
H257 C216 0.930 . S
H258 C217 0.930 1_565 S
H259 C218 0.930 . S
H260 C222 0.929 . S
H261 C224 0.930 1_556 S
H262 C230 0.929 . S
H263 C231 0.930 . S
Li264 N281 1.990 . S
Li264 O324 1.956 . S
Li264 O325 1.970 1_455 S
Li264 O326 1.961 1_554 S
Li265 N289 1.990 . S
Li265 O324 1.970 1_655 S
Li265 O325 1.956 . S
Li265 O327 1.961 1_554 S
Li266 N311 1.990 . S
Li266 O324 1.961 1_556 S
Li266 O326 1.956 . S
Li266 O327 1.970 1_455 S
Li267 N317 1.992 . S
Li267 O325 1.951 1_556 S
Li267 O326 1.977 1_655 S
Li267 O327 1.956 . S
C268 C270 1.348 . S
C268 C271 1.344 1_554 S
C268 O324 1.325 . S
N269 C272 1.314 . S
N269 C273 1.279 . S
C270 C268 1.348 . S
C270 C272 1.353 . S
C270 H328 0.929 . S
C271 C268 1.344 1_556 S
C271 C273 1.355 1_556 S
C271 H329 0.946 . S
C272 N269 1.314 . S
C272 C270 1.353 . S
C272 H330 0.930 . S
C273 N269 1.279 . S
C273 C271 1.355 1_554 S
C273 H331 0.930 1_554 S
C274 C277 1.348 1_655 S
C274 C278 1.356 . S
C274 O325 1.325 . S
C275 N276 1.279 . S
C275 C278 1.358 . S
C275 H332 0.930 . S
N276 C275 1.279 . S
N276 C279 1.299 1_655 S
C277 C274 1.348 1_455 S
C277 C279 1.362 . S
C277 H333 0.929 . S
C278 C274 1.356 . S
C278 C275 1.358 . S
C278 H334 0.930 . S
C279 N276 1.299 1_455 S
C279 C277 1.362 . S
C279 H335 0.937 . S
C280 N281 1.314 . S
C280 C285 1.353 . S
C280 H286 0.930 . S
N281 Li264 1.990 . S
N281 C280 1.314 . S
N281 C283 1.279 . S
C282 C283 1.358 . S
C282 C284 1.356 . S
C282 H336 0.930 . S
C283 N281 1.279 . S
C283 C282 1.358 . S
C283 H287 0.930 . S
C284 C282 1.356 . S
C284 C285 1.348 . S
C285 C280 1.353 . S
C285 C284 1.348 . S
C285 H337 0.929 . S
H286 C280 0.930 . S
H287 C283 0.930 . S
C288 N289 1.314 . S
C288 C290 1.353 . S
C288 H294 0.930 . S
N289 Li265 1.990 . S
N289 C288 1.314 . S
N289 C292 1.279 . S
C290 C288 1.353 . S
C290 C293 1.348 . S
C290 H338 0.929 . S
C291 C292 1.358 . S
C291 C293 1.356 . S
C291 H339 0.930 . S
C292 N289 1.279 . S
C292 C291 1.358 . S
C292 H295 0.930 . S
C293 C290 1.348 . S
C293 C291 1.356 . S
H294 C288 0.930 . S
H295 C292 0.930 . S
C296 C298 1.348 1_455 S
C296 C299 1.356 . S
C296 O326 1.325 . S
N297 C300 1.293 1_455 S
N297 C301 1.279 . S
C298 C296 1.348 1_655 S
C298 C300 1.352 . S
C298 H340 0.929 . S
C299 C296 1.356 . S
C299 C301 1.358 . S
C299 H341 0.930 . S
C300 N297 1.293 1_655 S
C300 C298 1.352 . S
C300 H342 0.955 . S
C301 N297 1.279 . S
C301 C299 1.358 . S
C301 H343 0.930 . S
C302 C303 1.348 . S
C302 C304 1.356 1_556 S
C302 O327 1.325 . S
C303 C302 1.348 . S
C303 C305 1.353 . S
C303 H344 0.929 . S
C304 C302 1.356 1_554 S
C304 C306 1.358 . S
C304 H345 0.930 . S
C305 C303 1.353 . S
C305 N307 1.314 . S
C305 H346 0.930 . S
C306 C304 1.358 . S
C306 N307 1.279 1_554 S
C306 H347 0.930 . S
N307 C305 1.314 . S
N307 C306 1.279 1_556 S
C308 C310 1.353 . S
C308 N311 1.314 . S
C308 H314 0.930 . S
C309 N311 1.279 . S
C309 C312 1.358 . S
C309 H315 0.930 . S
C310 C308 1.353 . S
C310 C313 1.348 . S
C310 H348 0.929 . S
N311 Li266 1.990 . S
N311 C308 1.314 . S
N311 C309 1.279 . S
C312 C309 1.358 . S
C312 C313 1.356 . S
C312 H349 0.930 . S
C313 C310 1.348 . S
C313 C312 1.356 . S
H314 C308 0.930 . S
H315 C309 0.930 . S
C316 N317 1.314 . S
C316 C318 1.353 . S
C316 H322 0.930 1_556 S
N317 Li267 1.992 . S
N317 C316 1.314 . S
N317 C320 1.279 . S
C318 C316 1.353 . S
C318 C321 1.348 . S
C318 H350 0.930 1_556 S
C319 C320 1.358 . S
C319 C321 1.356 . S
C319 H351 0.930 . S
C320 N317 1.279 . S
C320 C319 1.358 . S
C320 H323 0.930 . S
C321 C318 1.348 . S
C321 C319 1.356 . S
H322 C316 0.930 1_554 S
H323 C320 0.930 . S
O324 Li264 1.956 . S
O324 Li265 1.970 1_455 S
O324 Li266 1.961 1_554 S
O324 C268 1.325 . S
O325 Li264 1.970 1_655 S
O325 Li265 1.956 . S
O325 Li267 1.951 1_554 S
O325 C274 1.325 . S
O326 Li264 1.961 1_556 S
O326 Li266 1.956 . S
O326 Li267 1.977 1_455 S
O326 C296 1.325 . S
O327 Li265 1.961 1_556 S
O327 Li266 1.970 1_655 S
O327 Li267 1.956 . S
O327 C302 1.325 . S
H328 C270 0.929 . S
H329 C271 0.946 . S
H330 C272 0.930 . S
H331 C273 0.930 1_556 S
H332 C275 0.930 . S
H333 C277 0.929 . S
H334 C278 0.930 . S
H335 C279 0.937 . S
H336 C282 0.930 . S
H337 C285 0.929 . S
H338 C290 0.929 . S
H339 C291 0.930 . S
H340 C298 0.929 . S
H341 C299 0.930 . S
H342 C300 0.955 . S
H343 C301 0.930 . S
H344 C303 0.929 . S
H345 C304 0.930 . S
H346 C305 0.930 . S
H347 C306 0.930 . S
H348 C310 0.929 . S
H349 C312 0.930 . S
H350 C318 0.930 1_554 S
H351 C319 0.930 . S
Li352 N369 1.990 . S
Li352 O412 1.956 . S
Li352 O413 1.970 . S
Li352 O414 1.961 1_554 S
Li353 N377 1.990 . S
Li353 O412 1.970 . S
Li353 O413 1.956 . S
Li353 O415 1.961 1_554 S
Li354 N399 1.990 . S
Li354 O412 1.961 1_556 S
Li354 O414 1.956 . S
Li354 O415 1.970 . S
Li355 N405 1.990 . S
Li355 O413 1.961 1_556 S
Li355 O414 1.970 . S
Li355 O415 1.956 . S
C356 C358 1.348 . S
C356 C359 1.356 . S
C356 O412 1.325 . S
N357 C360 1.314 . S
N357 C361 1.279 . S
C358 C356 1.348 . S
C358 C360 1.353 . S
C358 H416 0.929 . S
C359 C356 1.356 . S
C359 C361 1.358 . S
C359 H417 0.930 1_554 S
C360 N357 1.314 . S
C360 C358 1.353 . S
C360 H418 0.930 . S
C361 N357 1.279 . S
C361 C359 1.358 . S
C361 H419 0.930 1_554 S
C362 C365 1.348 . S
C362 C366 1.356 . S
C362 O413 1.325 . S
C363 N364 1.279 . S
C363 C366 1.358 . S
C363 H420 0.930 . S
N364 C363 1.279 . S
N364 C367 1.314 . S
C365 C362 1.348 . S
C365 C367 1.353 . S
C365 H421 0.929 . S
C366 C362 1.356 . S
C366 C363 1.358 . S
C366 H422 0.930 . S
C367 N364 1.314 . S
C367 C365 1.353 . S
C367 H423 0.930 . S
C368 N369 1.314 . S
C368 C373 1.353 . S
C368 H374 0.930 . S
N369 Li352 1.990 . S
N369 C368 1.314 . S
N369 C371 1.279 . S
C370 C371 1.358 . S
C370 C372 1.356 . S
C370 H424 0.930 . S
C371 N369 1.279 . S
C371 C370 1.358 . S
C371 H375 0.930 . S
C372 C370 1.356 . S
C372 C373 1.348 . S
C373 C368 1.353 . S
C373 C372 1.348 . S
C373 H425 0.929 . S
H374 C368 0.930 . S
H375 C371 0.930 . S
C376 N377 1.314 . S
C376 C378 1.353 . S
C376 H382 0.930 . S
N377 Li353 1.990 . S
N377 C376 1.314 . S
N377 C380 1.279 . S
C378 C376 1.353 . S
C378 C381 1.348 . S
C378 H426 0.929 . S
C379 C380 1.358 . S
C379 C381 1.356 . S
C379 H427 0.930 . S
C380 N377 1.279 . S
C380 C379 1.358 . S
C380 H383 0.930 . S
C381 C378 1.348 . S
C381 C379 1.356 . S
H382 C376 0.930 . S
H383 C380 0.930 . S
C384 C386 1.348 . S
C384 C387 1.356 . S
C384 O414 1.325 . S
N385 C388 1.314 . S
N385 C389 1.279 . S
C386 C384 1.348 . S
C386 C388 1.353 . S
C386 H428 0.929 . S
C387 C384 1.356 . S
C387 C389 1.358 . S
C387 H429 0.930 . S
C388 N385 1.314 . S
C388 C386 1.353 . S
C388 H430 0.930 . S
C389 N385 1.279 . S
C389 C387 1.358 . S
C389 H431 0.930 . S
C390 C391 1.348 . S
C390 C392 1.356 1_556 S
C390 O415 1.325 . S
C391 C390 1.348 . S
C391 C393 1.353 . S
C391 H432 0.929 . S
C392 C390 1.356 1_554 S
C392 C394 1.364 . S
C392 H433 0.930 . S
C393 C391 1.353 . S
C393 N395 1.314 . S
C393 H434 0.930 . S
C394 C392 1.364 . S
C394 N395 1.261 1_554 S
C394 H435 0.945 . S
N395 C393 1.314 . S
N395 C394 1.261 1_556 S
C396 C398 1.353 . S
C396 N399 1.314 . S
C396 H402 0.930 . S
C397 N399 1.279 . S
C397 C400 1.358 . S
C397 H403 0.930 . S
C398 C396 1.353 . S
C398 C401 1.348 . S
C398 H436 0.929 . S
N399 Li354 1.990 . S
N399 C396 1.314 . S
N399 C397 1.279 . S
C400 C397 1.358 . S
C400 C401 1.356 . S
C400 H437 0.930 . S
C401 C398 1.348 . S
C401 C400 1.356 . S
H402 C396 0.930 . S
H403 C397 0.930 . S
C404 N405 1.314 . S
C404 C406 1.353 . S
C404 H410 0.930 1_556 S
N405 Li355 1.990 . S
N405 C404 1.314 . S
N405 C408 1.279 . S
C406 C404 1.353 . S
C406 C409 1.348 . S
C406 H438 0.929 . S
C407 C408 1.358 . S
C407 C409 1.356 . S
C407 H439 0.930 . S
C408 N405 1.279 . S
C408 C407 1.358 . S
C408 H411 0.930 . S
C409 C406 1.348 . S
C409 C407 1.356 . S
H410 C404 0.930 1_554 S
H411 C408 0.930 . S
O412 Li352 1.956 . S
O412 Li353 1.970 . S
O412 Li354 1.961 1_554 S
O412 C356 1.325 . S
O413 Li352 1.970 . S
O413 Li353 1.956 . S
O413 Li355 1.961 1_554 S
O413 C362 1.325 . S
O414 Li352 1.961 1_556 S
O414 Li354 1.956 . S
O414 Li355 1.970 . S
O414 C384 1.325 . S
O415 Li353 1.961 1_556 S
O415 Li354 1.970 . S
O415 Li355 1.956 . S
O415 C390 1.325 . S
H416 C358 0.929 . S
H417 C359 0.930 1_556 S
H418 C360 0.930 . S
H419 C361 0.930 1_556 S
H420 C363 0.930 . S
H421 C365 0.929 . S
H422 C366 0.930 . S
H423 C367 0.930 . S
H424 C370 0.930 . S
H425 C373 0.929 . S
H426 C378 0.929 . S
H427 C379 0.930 . S
H428 C386 0.929 . S
H429 C387 0.930 . S
H430 C388 0.930 . S
H431 C389 0.930 . S
H432 C391 0.929 . S
H433 C392 0.930 . S
H434 C393 0.930 . S
H435 C394 0.945 . S
H436 C398 0.929 . S
H437 C400 0.930 . S
H438 C406 0.929 . S
H439 C407 0.930 . S
Li440 N457 1.990 . S
Li440 O500 1.956 . S
Li440 O501 1.970 1_565 S
Li440 O502 1.961 1_554 S
Li441 N465 1.990 . S
Li441 O500 1.970 1_545 S
Li441 O501 1.956 . S
Li441 O503 1.954 1_554 S
Li442 N487 1.990 . S
Li442 O500 1.961 1_556 S
Li442 O502 1.956 . S
Li442 O503 1.975 1_565 S
Li443 N493 1.990 1_554 S
Li443 O501 1.961 . S
Li443 O502 1.970 1_544 S
Li443 O503 1.956 1_554 S
C444 C446 1.348 . S
C444 C447 1.360 . S
C444 O500 1.325 . S
N445 C448 1.314 . S
N445 C449 1.279 . S
C446 C444 1.348 . S
C446 C448 1.353 . S
C446 H504 0.929 . S
C447 C444 1.360 . S
C447 C449 1.360 . S
C447 H505 0.924 1_554 S
C448 N445 1.314 . S
C448 C446 1.353 . S
C448 H506 0.930 . S
C449 N445 1.279 . S
C449 C447 1.360 . S
C449 H507 0.930 1_554 S
C450 C453 1.348 1_545 S
C450 C454 1.356 . S
C450 O501 1.325 . S
C451 N452 1.279 . S
C451 C454 1.358 . S
C451 H508 0.930 . S
N452 C451 1.279 . S
N452 C455 1.297 1_545 S
C453 C450 1.348 1_565 S
C453 C455 1.352 . S
C453 H509 0.929 . S
C454 C450 1.356 . S
C454 C451 1.358 . S
C454 H510 0.930 . S
C455 N452 1.297 1_565 S
C455 C453 1.352 . S
C455 H511 0.950 . S
C456 N457 1.314 . S
C456 C461 1.353 . S
C456 H462 0.930 . S
N457 Li440 1.990 . S
N457 C456 1.314 . S
N457 C459 1.279 . S
C458 C459 1.358 . S
C458 C460 1.356 . S
C458 H512 0.930 . S
C459 N457 1.279 . S
C459 C458 1.358 . S
C459 H463 0.930 . S
C460 C458 1.356 . S
C460 C461 1.348 . S
C461 C456 1.353 . S
C461 C460 1.348 . S
C461 H513 0.929 . S
H462 C456 0.930 . S
H463 C459 0.930 . S
C464 N465 1.314 . S
C464 C466 1.353 . S
C464 H470 0.930 . S
N465 Li441 1.990 . S
N465 C464 1.314 . S
N465 C468 1.279 . S
C466 C464 1.353 . S
C466 C469 1.348 . S
C466 H514 0.929 . S
C467 C468 1.358 . S
C467 C469 1.356 . S
C467 H515 0.930 . S
C468 N465 1.279 . S
C468 C467 1.358 . S
C468 H471 0.930 . S
C469 C466 1.348 . S
C469 C467 1.356 . S
H470 C464 0.930 . S
H471 C468 0.930 . S
C472 C474 1.348 1_565 S
C472 C475 1.356 . S
C472 O502 1.325 . S
N473 C476 1.307 1_565 S
N473 C477 1.279 . S
C474 C472 1.348 1_545 S
C474 C476 1.357 . S
C474 H516 0.929 . S
C475 C472 1.356 . S
C475 C477 1.358 . S
C475 H517 0.930 . S
C476 N473 1.307 1_545 S
C476 C474 1.357 . S
C476 H518 0.933 . S
C477 N473 1.279 . S
C477 C475 1.358 . S
C477 H519 0.930 . S
C478 C479 1.348 . S
C478 C480 1.356 1_556 S
C478 O503 1.326 . S
C479 C478 1.348 . S
C479 C481 1.353 . S
C479 H520 0.929 . S
C480 C478 1.356 1_554 S
C480 C482 1.358 . S
C480 H521 0.930 . S
C481 C479 1.353 . S
C481 N483 1.314 . S
C481 H522 0.930 . S
C482 C480 1.358 . S
C482 N483 1.279 1_554 S
C482 H523 0.930 . S
N483 C481 1.314 . S
N483 C482 1.279 1_556 S
C484 C486 1.353 . S
C484 N487 1.314 . S
C484 H490 0.930 . S
C485 N487 1.279 . S
C485 C488 1.358 . S
C485 H491 0.930 . S
C486 C484 1.353 . S
C486 C489 1.348 . S
C486 H524 0.929 . S
N487 Li442 1.990 . S
N487 C484 1.314 . S
N487 C485 1.279 . S
C488 C485 1.358 . S
C488 C489 1.356 . S
C488 H525 0.930 . S
C489 C486 1.348 . S
C489 C488 1.356 . S
H490 C484 0.930 . S
H491 C485 0.930 . S
C492 N493 1.310 1_554 S
C492 C494 1.350 1_554 S
C492 H498 0.938 . S
N493 Li443 1.990 1_556 S
N493 C492 1.310 1_556 S
N493 C496 1.279 . S
C494 C492 1.350 1_556 S
C494 C497 1.348 . S
C494 H526 0.929 1_556 S
C495 C496 1.358 . S
C495 C497 1.356 . S
C495 H527 0.930 . S
C496 N493 1.279 . S
C496 C495 1.358 . S
C496 H499 0.930 . S
C497 C494 1.348 . S
C497 C495 1.356 . S
H498 C492 0.938 . S
H499 C496 0.930 . S
O500 Li440 1.956 . S
O500 Li441 1.970 1_565 S
O500 Li442 1.961 1_554 S
O500 C444 1.325 . S
O501 Li440 1.970 1_545 S
O501 Li441 1.956 . S
O501 Li443 1.961 . S
O501 C450 1.325 . S
O502 Li440 1.961 1_556 S
O502 Li442 1.956 . S
O502 Li443 1.970 1_566 S
O502 C472 1.325 . S
O503 Li441 1.954 1_556 S
O503 Li442 1.975 1_545 S
O503 Li443 1.956 1_556 S
O503 C478 1.326 . S
H504 C446 0.929 . S
H505 C447 0.924 1_556 S
H506 C448 0.930 . S
H507 C449 0.930 1_556 S
H508 C451 0.930 . S
H509 C453 0.929 . S
H510 C454 0.930 . S
H511 C455 0.950 . S
H512 C458 0.930 . S
H513 C461 0.929 . S
H514 C466 0.929 . S
H515 C467 0.930 . S
H516 C474 0.929 . S
H517 C475 0.930 . S
H518 C476 0.933 . S
H519 C477 0.930 . S
H520 C479 0.929 . S
H521 C480 0.930 . S
H522 C481 0.930 . S
H523 C482 0.930 . S
H524 C486 0.929 . S
H525 C488 0.930 . S
H526 C494 0.929 1_554 S
H527 C495 0.930 . S
Li528 N545 1.990 . S
Li528 O588 1.956 . S
Li528 O589 1.970 . S
Li528 O590 1.961 . S
Li529 N553 1.990 . S
Li529 O588 1.970 . S
Li529 O589 1.956 . S
Li529 O591 1.961 . S
Li530 N575 1.990 . S
Li530 O588 1.961 . S
Li530 O590 1.956 . S
Li530 O591 1.970 . S
Li531 N581 1.990 . S
Li531 O589 1.961 . S
Li531 O590 1.970 . S
Li531 O591 1.956 . S
C532 C534 1.348 . S
C532 C535 1.356 . S
C532 O588 1.325 . S
N533 C536 1.314 . S
N533 C537 1.279 . S
C534 C532 1.348 . S
C534 C536 1.353 . S
C534 H592 0.929 . S
C535 C532 1.356 . S
C535 C537 1.358 . S
C535 H593 0.930 . S
C536 N533 1.314 . S
C536 C534 1.353 . S
C536 H594 0.930 . S
C537 N533 1.279 . S
C537 C535 1.358 . S
C537 H595 0.930 . S
C538 C541 1.348 . S
C538 C542 1.356 . S
C538 O589 1.325 . S
C539 N540 1.279 . S
C539 C542 1.358 . S
C539 H596 0.930 . S
N540 C539 1.279 . S
N540 C543 1.314 . S
C541 C538 1.348 . S
C541 C543 1.353 . S
C541 H597 0.929 . S
C542 C538 1.356 . S
C542 C539 1.358 . S
C542 H598 0.930 . S
C543 N540 1.314 . S
C543 C541 1.353 . S
C543 H599 0.930 . S
C544 N545 1.314 . S
C544 C549 1.353 . S
C544 H550 0.930 . S
N545 Li528 1.990 . S
N545 C544 1.314 . S
N545 C547 1.279 . S
C546 C547 1.358 . S
C546 C548 1.356 . S
C546 H600 0.930 . S
C547 N545 1.279 . S
C547 C546 1.358 . S
C547 H551 0.930 . S
C548 C546 1.356 . S
C548 C549 1.348 . S
C549 C544 1.353 . S
C549 C548 1.348 . S
C549 H601 0.929 . S
H550 C544 0.930 . S
H551 C547 0.930 . S
C552 N553 1.314 . S
C552 C554 1.353 . S
C552 H558 0.930 . S
N553 Li529 1.990 . S
N553 C552 1.314 . S
N553 C556 1.279 . S
C554 C552 1.353 . S
C554 C557 1.348 . S
C554 H602 0.929 . S
C555 C556 1.358 . S
C555 C557 1.356 . S
C555 H603 0.930 . S
C556 N553 1.279 . S
C556 C555 1.358 . S
C556 H559 0.930 . S
C557 C554 1.348 . S
C557 C555 1.356 . S
H558 C552 0.930 . S
H559 C556 0.930 . S
C560 C562 1.348 . S
C560 C563 1.356 . S
C560 O590 1.325 . S
N561 C564 1.314 . S
N561 C565 1.279 . S
C562 C560 1.348 . S
C562 C564 1.353 . S
C562 H604 0.929 . S
C563 C560 1.356 . S
C563 C565 1.358 . S
C563 H605 0.930 . S
C564 N561 1.314 . S
C564 C562 1.353 . S
C564 H606 0.930 . S
C565 N561 1.279 . S
C565 C563 1.358 . S
C565 H607 0.930 . S
C566 C567 1.348 . S
C566 C568 1.356 . S
C566 O591 1.325 . S
C567 C566 1.348 . S
C567 C569 1.353 . S
C567 H608 0.929 . S
C568 C566 1.356 . S
C568 C570 1.358 . S
C568 H609 0.930 . S
C569 C567 1.353 . S
C569 N571 1.314 . S
C569 H610 0.930 . S
C570 C568 1.358 . S
C570 N571 1.279 . S
C570 H611 0.930 . S
N571 C569 1.314 . S
N571 C570 1.279 . S
C572 C574 1.353 . S
C572 N575 1.314 . S
C572 H578 0.930 . S
C573 N575 1.279 . S
C573 C576 1.358 . S
C573 H579 0.930 . S
C574 C572 1.353 . S
C574 C577 1.348 . S
C574 H612 0.929 . S
N575 Li530 1.990 . S
N575 C572 1.314 . S
N575 C573 1.279 . S
C576 C573 1.358 . S
C576 C577 1.356 . S
C576 H613 0.930 . S
C577 C574 1.348 . S
C577 C576 1.356 . S
H578 C572 0.930 . S
H579 C573 0.930 . S
C580 N581 1.314 . S
C580 C582 1.353 . S
C580 H586 0.930 . S
N581 Li531 1.990 . S
N581 C580 1.314 . S
N581 C584 1.279 . S
C582 C580 1.353 . S
C582 C585 1.348 . S
C582 H614 0.929 . S
C583 C584 1.358 . S
C583 C585 1.356 . S
C583 H615 0.930 . S
C584 N581 1.279 . S
C584 C583 1.358 . S
C584 H587 0.930 . S
C585 C582 1.348 . S
C585 C583 1.356 . S
H586 C580 0.930 . S
H587 C584 0.930 . S
O588 Li528 1.956 . S
O588 Li529 1.970 . S
O588 Li530 1.961 . S
O588 C532 1.325 . S
O589 Li528 1.970 . S
O589 Li529 1.956 . S
O589 Li531 1.961 . S
O589 C538 1.325 . S
O590 Li528 1.961 . S
O590 Li530 1.956 . S
O590 Li531 1.970 . S
O590 C560 1.325 . S
O591 Li529 1.961 . S
O591 Li530 1.970 . S
O591 Li531 1.956 . S
O591 C566 1.325 . S
H592 C534 0.929 . S
H593 C535 0.930 . S
H594 C536 0.930 . S
H595 C537 0.930 . S
H596 C539 0.930 . S
H597 C541 0.929 . S
H598 C542 0.930 . S
H599 C543 0.930 . S
H600 C546 0.930 . S
H601 C549 0.929 . S
H602 C554 0.929 . S
H603 C555 0.930 . S
H604 C562 0.929 . S
H605 C563 0.930 . S
H606 C564 0.930 . S
H607 C565 0.930 . S
H608 C567 0.929 . S
H609 C568 0.930 . S
H610 C569 0.930 . S
H611 C570 0.930 . S
H612 C574 0.929 . S
H613 C576 0.930 . S
H614 C582 0.929 . S
H615 C583 0.930 . S
Li616 N633 1.990 . S
Li616 O676 1.956 . S
Li616 O677 1.970 . S
Li616 O678 1.961 1_565 S
Li617 N641 1.990 . S
Li617 O676 1.970 . S
Li617 O677 1.956 . S
Li617 O679 1.961 . S
Li618 N663 1.990 . S
Li618 O676 1.961 1_545 S
Li618 O678 1.956 . S
Li618 O679 1.970 1_545 S
Li619 N669 1.990 . S
Li619 O677 1.961 . S
Li619 O678 1.970 1_565 S
Li619 O679 1.956 . S
C620 C622 1.348 . S
C620 C623 1.356 . S
C620 O676 1.325 . S
N621 C624 1.314 . S
N621 C625 1.279 . S
C622 C620 1.348 . S
C622 C624 1.353 . S
C622 H680 0.929 . S
C623 C620 1.356 . S
C623 C625 1.358 . S
C623 H681 0.930 1_565 S
C624 N621 1.314 . S
C624 C622 1.353 . S
C624 H682 0.930 . S
C625 N621 1.279 . S
C625 C623 1.358 . S
C625 H683 0.930 1_565 S
C626 C629 1.348 . S
C626 C630 1.356 . S
C626 O677 1.325 . S
C627 N628 1.279 . S
C627 C630 1.358 . S
C627 H684 0.930 . S
N628 C627 1.279 . S
N628 C631 1.314 . S
C629 C626 1.348 . S
C629 C631 1.353 . S
C629 H685 0.929 . S
C630 C626 1.356 . S
C630 C627 1.358 . S
C630 H686 0.930 . S
C631 N628 1.314 . S
C631 C629 1.353 . S
C631 H687 0.930 . S
C632 N633 1.314 . S
C632 C637 1.353 . S
C632 H638 0.930 . S
N633 Li616 1.990 . S
N633 C632 1.314 . S
N633 C635 1.279 . S
C634 C635 1.358 . S
C634 C636 1.356 . S
C634 H688 0.930 . S
C635 N633 1.279 . S
C635 C634 1.358 . S
C635 H639 0.930 . S
C636 C634 1.356 . S
C636 C637 1.348 . S
C637 C632 1.353 . S
C637 C636 1.348 . S
C637 H689 0.929 . S
H638 C632 0.930 . S
H639 C635 0.930 . S
C640 N641 1.314 . S
C640 C642 1.353 . S
C640 H646 0.930 . S
N641 Li617 1.990 . S
N641 C640 1.314 . S
N641 C644 1.279 . S
C642 C640 1.353 . S
C642 C645 1.348 . S
C642 H690 0.929 . S
C643 C644 1.358 . S
C643 C645 1.356 . S
C643 H691 0.930 . S
C644 N641 1.279 . S
C644 C643 1.358 . S
C644 H647 0.930 . S
C645 C642 1.348 . S
C645 C643 1.356 . S
H646 C640 0.930 . S
H647 C644 0.930 . S
C648 C650 1.348 . S
C648 C651 1.356 . S
C648 O678 1.325 . S
N649 C652 1.314 . S
N649 C653 1.279 . S
C650 C648 1.348 . S
C650 C652 1.353 . S
C650 H692 0.929 . S
C651 C648 1.356 . S
C651 C653 1.358 . S
C651 H693 0.930 . S
C652 N649 1.314 . S
C652 C650 1.353 . S
C652 H694 0.930 . S
C653 N649 1.279 . S
C653 C651 1.358 . S
C653 H695 0.930 . S
C654 C655 1.348 . S
C654 C656 1.356 1_545 S
C654 O679 1.325 1_545 S
C655 C654 1.348 . S
C655 C657 1.353 . S
C655 H696 0.929 . S
C656 C654 1.356 1_565 S
C656 C658 1.358 . S
C656 H697 0.930 . S
C657 C655 1.353 . S
C657 N659 1.314 . S
C657 H698 0.930 . S
C658 C656 1.358 . S
C658 N659 1.279 1_565 S
C658 H699 0.930 . S
N659 C657 1.314 . S
N659 C658 1.279 1_545 S
C660 C662 1.353 . S
C660 N663 1.314 . S
C660 H666 0.930 . S
C661 N663 1.279 . S
C661 C664 1.358 . S
C661 H667 0.930 . S
C662 C660 1.353 . S
C662 C665 1.348 . S
C662 H700 0.929 . S
N663 Li618 1.990 . S
N663 C660 1.314 . S
N663 C661 1.279 . S
C664 C661 1.358 . S
C664 C665 1.356 . S
C664 H701 0.930 . S
C665 C662 1.348 . S
C665 C664 1.356 . S
H666 C660 0.930 . S
H667 C661 0.930 . S
C668 N669 1.314 . S
C668 C670 1.353 . S
C668 H674 0.930 . S
N669 Li619 1.990 . S
N669 C668 1.314 . S
N669 C672 1.280 . S
C670 C668 1.353 . S
C670 C673 1.348 . S
C670 H702 0.929 . S
C671 C672 1.362 1_545 S
C671 C673 1.356 1_545 S
C671 H703 0.930 . S
C672 N669 1.280 . S
C672 C671 1.362 1_565 S
C672 H675 0.925 1_565 S
C673 C670 1.348 . S
C673 C671 1.356 1_565 S
H674 C668 0.930 . S
H675 C672 0.925 1_545 S
O676 Li616 1.956 . S
O676 Li617 1.970 . S
O676 Li618 1.961 1_565 S
O676 C620 1.325 . S
O677 Li616 1.970 . S
O677 Li617 1.956 . S
O677 Li619 1.961 . S
O677 C626 1.325 . S
O678 Li616 1.961 1_545 S
O678 Li618 1.956 . S
O678 Li619 1.970 1_545 S
O678 C648 1.325 . S
O679 Li617 1.961 . S
O679 Li618 1.970 1_565 S
O679 Li619 1.956 . S
O679 C654 1.325 1_565 S
H680 C622 0.929 . S
H681 C623 0.930 1_545 S
H682 C624 0.930 . S
H683 C625 0.930 1_545 S
H684 C627 0.930 . S
H685 C629 0.929 . S
H686 C630 0.930 . S
H687 C631 0.930 . S
H688 C634 0.930 . S
H689 C637 0.929 . S
H690 C642 0.929 . S
H691 C643 0.930 . S
H692 C650 0.929 . S
H693 C651 0.930 . S
H694 C652 0.930 . S
H695 C653 0.930 . S
H696 C655 0.929 . S
H697 C656 0.930 . S
H698 C657 0.930 . S
H699 C658 0.930 . S
H700 C662 0.929 . S
H701 C664 0.930 . S
H702 C670 0.929 . S
H703 C671 0.930 . S
Li704 N721 1.990 . S
Li704 O764 1.956 . S
Li704 O765 1.970 . S
Li704 O766 1.961 1_455 S
Li705 N729 1.990 . S
Li705 O764 1.970 . S
Li705 O765 1.956 . S
Li705 O767 1.961 . S
Li706 N751 1.990 . S
Li706 O764 1.961 1_655 S
Li706 O766 1.956 . S
Li706 O767 1.970 1_655 S
Li707 N757 1.990 . S
Li707 O765 1.961 . S
Li707 O766 1.970 1_455 S
Li707 O767 1.956 . S
C708 C710 1.348 . S
C708 C711 1.356 . S
C708 O764 1.325 . S
N709 C712 1.314 . S
N709 C713 1.279 . S
C710 C708 1.348 . S
C710 C712 1.353 . S
C710 H768 0.929 . S
C711 C708 1.356 . S
C711 C713 1.358 . S
C711 H769 0.930 1_455 S
C712 N709 1.314 . S
C712 C710 1.353 . S
C712 H770 0.930 . S
C713 N709 1.279 . S
C713 C711 1.358 . S
C713 H771 0.930 1_455 S
C714 C717 1.348 . S
C714 C718 1.356 . S
C714 O765 1.325 . S
C715 N716 1.279 . S
C715 C718 1.358 . S
C715 H772 0.930 . S
N716 C715 1.279 . S
N716 C719 1.314 . S
C717 C714 1.348 . S
C717 C719 1.353 . S
C717 H773 0.929 . S
C718 C714 1.356 . S
C718 C715 1.358 . S
C718 H774 0.930 . S
C719 N716 1.314 . S
C719 C717 1.353 . S
C719 H775 0.930 . S
C720 N721 1.314 . S
C720 C725 1.353 . S
C720 H726 0.930 . S
N721 Li704 1.990 . S
N721 C720 1.314 . S
N721 C723 1.279 . S
C722 C723 1.358 . S
C722 C724 1.356 . S
C722 H776 0.930 . S
C723 N721 1.279 . S
C723 C722 1.358 . S
C723 H727 0.930 . S
C724 C722 1.356 . S
C724 C725 1.348 . S
C725 C720 1.353 . S
C725 C724 1.348 . S
C725 H777 0.929 . S
H726 C720 0.930 . S
H727 C723 0.930 . S
C728 N729 1.314 . S
C728 C730 1.353 . S
C728 H734 0.930 . S
N729 Li705 1.990 . S
N729 C728 1.314 . S
N729 C732 1.279 . S
C730 C728 1.353 . S
C730 C733 1.348 . S
C730 H778 0.929 . S
C731 C732 1.358 . S
C731 C733 1.356 . S
C731 H779 0.930 . S
C732 N729 1.279 . S
C732 C731 1.358 . S
C732 H735 0.930 . S
C733 C730 1.348 . S
C733 C731 1.356 . S
H734 C728 0.930 . S
H735 C732 0.930 . S
C736 C738 1.348 . S
C736 C739 1.356 . S
C736 O766 1.325 . S
N737 C740 1.314 . S
N737 C741 1.279 . S
C738 C736 1.348 . S
C738 C740 1.353 . S
C738 H780 0.929 . S
C739 C736 1.356 . S
C739 C741 1.358 . S
C739 H781 0.930 . S
C740 N737 1.314 . S
C740 C738 1.353 . S
C740 H782 0.930 . S
C741 N737 1.279 . S
C741 C739 1.358 . S
C741 H783 0.930 . S
C742 C743 1.348 . S
C742 C744 1.356 1_655 S
C742 O767 1.325 1_655 S
C743 C742 1.348 . S
C743 C745 1.353 . S
C743 H784 0.929 . S
C744 C742 1.356 1_455 S
C744 C746 1.358 . S
C744 H785 0.930 . S
C745 C743 1.353 . S
C745 N747 1.314 . S
C745 H786 0.930 . S
C746 C744 1.358 . S
C746 N747 1.279 1_455 S
C746 H787 0.930 . S
N747 C745 1.314 . S
N747 C746 1.279 1_655 S
C748 C750 1.353 . S
C748 N751 1.314 . S
C748 H754 0.930 . S
C749 N751 1.279 . S
C749 C752 1.358 . S
C749 H755 0.930 . S
C750 C748 1.353 . S
C750 C753 1.348 . S
C750 H788 0.929 . S
N751 Li706 1.990 . S
N751 C748 1.314 . S
N751 C749 1.279 . S
C752 C749 1.358 . S
C752 C753 1.356 . S
C752 H789 0.930 . S
C753 C750 1.348 . S
C753 C752 1.356 . S
H754 C748 0.930 . S
H755 C749 0.930 . S
C756 N757 1.314 . S
C756 C758 1.353 . S
C756 H762 0.930 . S
N757 Li707 1.990 . S
N757 C756 1.314 . S
N757 C760 1.279 . S
C758 C756 1.353 . S
C758 C761 1.348 . S
C758 H790 0.929 . S
C759 C760 1.358 1_655 S
C759 C761 1.356 1_655 S
C759 H791 0.930 . S
C760 N757 1.279 . S
C760 C759 1.358 1_455 S
C760 H763 0.930 1_455 S
C761 C758 1.348 . S
C761 C759 1.356 1_455 S
H762 C756 0.930 . S
H763 C760 0.930 1_655 S
O764 Li704 1.956 . S
O764 Li705 1.970 . S
O764 Li706 1.961 1_455 S
O764 C708 1.325 . S
O765 Li704 1.970 . S
O765 Li705 1.956 . S
O765 Li707 1.961 . S
O765 C714 1.325 . S
O766 Li704 1.961 1_655 S
O766 Li706 1.956 . S
O766 Li707 1.970 1_655 S
O766 C736 1.325 . S
O767 Li705 1.961 . S
O767 Li706 1.970 1_455 S
O767 Li707 1.956 . S
O767 C742 1.325 1_455 S
H768 C710 0.929 . S
H769 C711 0.930 1_655 S
H770 C712 0.930 . S
H771 C713 0.930 1_655 S
H772 C715 0.930 . S
H773 C717 0.929 . S
H774 C718 0.930 . S
H775 C719 0.930 . S
H776 C722 0.930 . S
H777 C725 0.929 . S
H778 C730 0.929 . S
H779 C731 0.930 . S
H780 C738 0.929 . S
H781 C739 0.930 . S
H782 C740 0.930 . S
H783 C741 0.930 . S
H784 C743 0.929 . S
H785 C744 0.930 . S
H786 C745 0.930 . S
H787 C746 0.930 . S
H788 C750 0.929 . S
H789 C752 0.930 . S
H790 C758 0.929 . S
H791 C759 0.930 . S
Li792 N809 1.990 . S
Li792 O852 1.956 1_545 S
Li792 O853 1.970 1_545 S
Li792 O854 1.961 . S
Li793 N817 1.990 . S
Li793 O852 1.970 . S
Li793 O853 1.956 . S
Li793 O855 1.961 . S
Li794 N839 1.990 . S
Li794 O852 1.961 . S
Li794 O854 1.956 1_565 S
Li794 O855 1.970 . S
Li795 N845 1.990 . S
Li795 O853 1.961 . S
Li795 O854 1.970 1_565 S
Li795 O855 1.956 . S
C796 C798 1.348 . S
C796 C799 1.356 . S
C796 O852 1.325 . S
N797 C800 1.314 . S
N797 C801 1.279 . S
C798 C796 1.348 . S
C798 C800 1.353 . S
C798 H856 0.929 . S
C799 C796 1.356 . S
C799 C801 1.358 . S
C799 H857 0.930 . S
C800 N797 1.314 . S
C800 C798 1.353 . S
C800 H858 0.930 . S
C801 N797 1.279 . S
C801 C799 1.358 . S
C801 H859 0.930 . S
C802 C805 1.348 . S
C802 C806 1.356 1_545 S
C802 O853 1.325 1_545 S
C803 N804 1.279 . S
C803 C806 1.358 1_545 S
C803 H860 0.930 1_545 S
N804 C803 1.279 . S
N804 C807 1.314 . S
C805 C802 1.348 . S
C805 C807 1.353 . S
C805 H861 0.929 . S
C806 C802 1.356 1_565 S
C806 C803 1.358 1_565 S
C806 H862 0.930 . S
C807 N804 1.314 . S
C807 C805 1.353 . S
C807 H863 0.930 . S
C808 N809 1.314 . S
C808 C813 1.353 . S
C808 H814 0.930 . S
N809 Li792 1.990 . S
N809 C808 1.314 . S
N809 C811 1.279 . S
C810 C811 1.358 . S
C810 C812 1.356 . S
C810 H864 0.930 . S
C811 N809 1.279 . S
C811 C810 1.358 . S
C811 H815 0.930 . S
C812 C810 1.356 . S
C812 C813 1.348 . S
C813 C808 1.353 . S
C813 C812 1.348 . S
C813 H865 0.929 . S
H814 C808 0.930 . S
H815 C811 0.930 . S
C816 N817 1.314 . S
C816 C818 1.353 . S
C816 H822 0.930 . S
N817 Li793 1.990 . S
N817 C816 1.314 . S
N817 C820 1.279 . S
C818 C816 1.353 . S
C818 C821 1.348 . S
C818 H866 0.929 . S
C819 C820 1.358 . S
C819 C821 1.356 . S
C819 H867 0.930 . S
C820 N817 1.279 . S
C820 C819 1.358 . S
C820 H823 0.930 . S
C821 C818 1.348 . S
C821 C819 1.356 . S
H822 C816 0.930 . S
H823 C820 0.930 . S
C824 C826 1.348 . S
C824 C827 1.356 . S
C824 O854 1.325 . S
N825 C828 1.314 . S
N825 C829 1.279 . S
C826 C824 1.348 . S
C826 C828 1.353 . S
C826 H868 0.929 . S
C827 C824 1.356 . S
C827 C829 1.358 . S
C827 H869 0.930 . S
C828 N825 1.314 . S
C828 C826 1.353 . S
C828 H870 0.930 . S
C829 N825 1.279 . S
C829 C827 1.358 . S
C829 H871 0.930 . S
C830 C831 1.348 . S
C830 C832 1.356 . S
C830 O855 1.325 . S
C831 C830 1.348 . S
C831 C833 1.353 . S
C831 H872 0.929 . S
C832 C830 1.356 . S
C832 C834 1.358 . S
C832 H873 0.930 . S
C833 C831 1.353 . S
C833 N835 1.314 . S
C833 H874 0.930 . S
C834 C832 1.358 . S
C834 N835 1.279 . S
C834 H875 0.930 . S
N835 C833 1.314 . S
N835 C834 1.279 . S
C836 C838 1.353 . S
C836 N839 1.314 . S
C836 H842 0.930 . S
C837 N839 1.279 . S
C837 C840 1.358 . S
C837 H843 0.930 . S
C838 C836 1.353 . S
C838 C841 1.348 . S
C838 H876 0.929 . S
N839 Li794 1.990 . S
N839 C836 1.314 . S
N839 C837 1.279 . S
C840 C837 1.358 . S
C840 C841 1.356 . S
C840 H877 0.930 . S
C841 C838 1.348 . S
C841 C840 1.356 . S
H842 C836 0.930 . S
H843 C837 0.930 . S
C844 N845 1.314 1_545 S
C844 C846 1.353 . S
C844 H850 0.930 . S
N845 Li795 1.990 . S
N845 C844 1.314 1_565 S
N845 C848 1.279 . S
C846 C844 1.353 . S
C846 C849 1.348 1_545 S
C846 H878 0.929 . S
C847 C848 1.358 . S
C847 C849 1.356 . S
C847 H879 0.930 . S
C848 N845 1.279 . S
C848 C847 1.358 . S
C848 H851 0.930 . S
C849 C846 1.348 1_565 S
C849 C847 1.356 . S
H850 C844 0.930 . S
H851 C848 0.930 . S
O852 Li792 1.956 1_565 S
O852 Li793 1.970 . S
O852 Li794 1.961 . S
O852 C796 1.325 . S
O853 Li792 1.970 1_565 S
O853 Li793 1.956 . S
O853 Li795 1.961 . S
O853 C802 1.325 1_565 S
O854 Li792 1.961 . S
O854 Li794 1.956 1_545 S
O854 Li795 1.970 1_545 S
O854 C824 1.325 . S
O855 Li793 1.961 . S
O855 Li794 1.970 . S
O855 Li795 1.956 . S
O855 C830 1.325 . S
H856 C798 0.929 . S
H857 C799 0.930 . S
H858 C800 0.930 . S
H859 C801 0.930 . S
H860 C803 0.930 1_565 S
H861 C805 0.929 . S
H862 C806 0.930 . S
H863 C807 0.930 . S
H864 C810 0.930 . S
H865 C813 0.929 . S
H866 C818 0.929 . S
H867 C819 0.930 . S
H868 C826 0.929 . S
H869 C827 0.930 . S
H870 C828 0.930 . S
H871 C829 0.930 . S
H872 C831 0.929 . S
H873 C832 0.930 . S
H874 C833 0.930 . S
H875 C834 0.930 . S
H876 C838 0.929 . S
H877 C840 0.930 . S
H878 C846 0.929 . S
H879 C847 0.930 . S
Li880 N897 1.990 . S
Li880 O940 1.956 . S
Li880 O941 1.970 . S
Li880 O942 1.961 . S
Li881 N905 1.990 . S
Li881 O940 1.970 1_655 S
Li881 O941 1.956 1_655 S
Li881 O943 1.961 . S
Li882 N927 1.990 . S
Li882 O940 1.961 . S
Li882 O942 1.956 . S
Li882 O943 1.970 1_455 S
Li883 N933 1.990 . S
Li883 O941 1.961 . S
Li883 O942 1.970 . S
Li883 O943 1.956 1_455 S
C884 C886 1.348 . S
C884 C887 1.356 1_655 S
C884 O940 1.325 1_655 S
N885 C888 1.314 . S
N885 C889 1.279 . S
C886 C884 1.348 . S
C886 C888 1.353 . S
C886 H944 0.929 . S
C887 C884 1.356 1_455 S
C887 C889 1.358 1_455 S
C887 H945 0.930 . S
C888 N885 1.314 . S
C888 C886 1.353 . S
C888 H946 0.930 . S
C889 N885 1.279 . S
C889 C887 1.358 1_655 S
C889 H947 0.930 1_655 S
C890 C893 1.348 . S
C890 C894 1.356 . S
C890 O941 1.325 . S
C891 N892 1.279 . S
C891 C894 1.358 . S
C891 H948 0.930 . S
N892 C891 1.279 . S
N892 C895 1.314 . S
C893 C890 1.348 . S
C893 C895 1.353 . S
C893 H949 0.929 . S
C894 C890 1.356 . S
C894 C891 1.358 . S
C894 H950 0.930 . S
C895 N892 1.314 . S
C895 C893 1.353 . S
C895 H951 0.930 . S
C896 N897 1.314 . S
C896 C901 1.353 . S
C896 H902 0.930 . S
N897 Li880 1.990 . S
N897 C896 1.314 . S
N897 C899 1.279 . S
C898 C899 1.358 . S
C898 C900 1.356 . S
C898 H952 0.930 . S
C899 N897 1.279 . S
C899 C898 1.358 . S
C899 H903 0.930 . S
C900 C898 1.356 . S
C900 C901 1.348 . S
C901 C896 1.353 . S
C901 C900 1.348 . S
C901 H953 0.929 . S
H902 C896 0.930 . S
H903 C899 0.930 . S
C904 N905 1.314 . S
C904 C906 1.353 . S
C904 H910 0.930 . S
N905 Li881 1.990 . S
N905 C904 1.314 . S
N905 C908 1.279 . S
C906 C904 1.353 . S
C906 C909 1.348 . S
C906 H954 0.929 . S
C907 C908 1.358 . S
C907 C909 1.356 . S
C907 H955 0.930 . S
C908 N905 1.279 . S
C908 C907 1.358 . S
C908 H911 0.930 . S
C909 C906 1.348 . S
C909 C907 1.356 . S
H910 C904 0.930 . S
H911 C908 0.930 . S
C912 C914 1.348 . S
C912 C915 1.356 . S
C912 O942 1.325 . S
N913 C916 1.314 . S
N913 C917 1.279 . S
C914 C912 1.348 . S
C914 C916 1.353 . S
C914 H956 0.929 . S
C915 C912 1.356 . S
C915 C917 1.358 . S
C915 H957 0.930 . S
C916 N913 1.314 . S
C916 C914 1.353 . S
C916 H958 0.930 . S
C917 N913 1.279 . S
C917 C915 1.358 . S
C917 H959 0.930 . S
C918 C919 1.348 . S
C918 C920 1.356 . S
C918 O943 1.325 . S
C919 C918 1.348 . S
C919 C921 1.353 . S
C919 H960 0.929 . S
C920 C918 1.356 . S
C920 C922 1.358 . S
C920 H961 0.930 . S
C921 C919 1.353 . S
C921 N923 1.314 . S
C921 H962 0.930 . S
C922 C920 1.358 . S
C922 N923 1.279 . S
C922 H963 0.930 . S
N923 C921 1.314 . S
N923 C922 1.279 . S
C924 C926 1.353 . S
C924 N927 1.314 1_655 S
C924 H930 0.930 . S
C925 N927 1.279 . S
C925 C928 1.358 . S
C925 H931 0.930 . S
C926 C924 1.353 . S
C926 C929 1.348 1_655 S
C926 H964 0.929 . S
N927 Li882 1.990 . S
N927 C924 1.314 1_455 S
N927 C925 1.279 . S
C928 C925 1.358 . S
C928 C929 1.356 . S
C928 H965 0.930 . S
C929 C926 1.348 1_455 S
C929 C928 1.356 . S
H930 C924 0.930 . S
H931 C925 0.930 . S
C932 N933 1.314 . S
C932 C934 1.353 . S
C932 H938 0.930 . S
N933 Li883 1.990 . S
N933 C932 1.314 . S
N933 C936 1.279 . S
C934 C932 1.353 . S
C934 C937 1.348 . S
C934 H966 0.929 . S
C935 C936 1.358 . S
C935 C937 1.356 . S
C935 H967 0.930 . S
C936 N933 1.279 . S
C936 C935 1.358 . S
C936 H939 0.930 . S
C937 C934 1.348 . S
C937 C935 1.356 . S
H938 C932 0.930 . S
H939 C936 0.930 . S
O940 Li880 1.956 . S
O940 Li881 1.970 1_455 S
O940 Li882 1.961 . S
O940 C884 1.325 1_455 S
O941 Li880 1.970 . S
O941 Li881 1.956 1_455 S
O941 Li883 1.961 . S
O941 C890 1.325 . S
O942 Li880 1.961 . S
O942 Li882 1.956 . S
O942 Li883 1.970 . S
O942 C912 1.325 . S
O943 Li881 1.961 . S
O943 Li882 1.970 1_655 S
O943 Li883 1.956 1_655 S
O943 C918 1.325 . S
H944 C886 0.929 . S
H945 C887 0.930 . S
H946 C888 0.930 . S
H947 C889 0.930 1_455 S
H948 C891 0.930 . S
H949 C893 0.929 . S
H950 C894 0.930 . S
H951 C895 0.930 . S
H952 C898 0.930 . S
H953 C901 0.929 . S
H954 C906 0.929 . S
H955 C907 0.930 . S
H956 C914 0.929 . S
H957 C915 0.930 . S
H958 C916 0.930 . S
H959 C917 0.930 . S
H960 C919 0.929 . S
H961 C920 0.930 . S
H962 C921 0.930 . S
H963 C922 0.930 . S
H964 C926 0.929 . S
H965 C928 0.930 . S
H966 C934 0.929 . S
H967 C935 0.930 . S
Li968 N985 1.990 . S
Li968 O1028 1.956 . S
Li968 O1029 1.970 . S
Li968 O1030 1.961 . S
Li969 N993 1.990 . S
Li969 O1028 1.970 . S
Li969 O1029 1.956 . S
Li969 O1031 1.961 . S
Li970 N1015 1.990 . S
Li970 O1028 1.961 . S
Li970 O1030 1.956 . S
Li970 O1031 1.970 . S
Li971 N1021 1.990 . S
Li971 O1029 1.961 . S
Li971 O1030 1.970 . S
Li971 O1031 1.956 . S
C972 C974 1.348 . S
C972 C975 1.356 . S
C972 O1028 1.325 . S
N973 C976 1.314 . S
N973 C977 1.279 . S
C974 C972 1.348 . S
C974 C976 1.353 . S
C974 H1032 0.929 . S
C975 C972 1.356 . S
C975 C977 1.358 . S
C975 H1033 0.930 . S
C976 N973 1.314 . S
C976 C974 1.353 . S
C976 H1034 0.930 . S
C977 N973 1.279 . S
C977 C975 1.358 . S
C977 H1035 0.930 . S
C978 C981 1.348 . S
C978 C982 1.356 . S
C978 O1029 1.325 . S
C979 N980 1.279 . S
C979 C982 1.358 . S
C979 H1036 0.930 . S
N980 C979 1.279 . S
N980 C983 1.314 . S
C981 C978 1.348 . S
C981 C983 1.353 . S
C981 H1037 0.929 . S
C982 C978 1.356 . S
C982 C979 1.358 . S
C982 H1038 0.930 . S
C983 N980 1.314 . S
C983 C981 1.353 . S
C983 H1039 0.930 . S
C984 N985 1.314 . S
C984 C989 1.353 . S
C984 H990 0.930 . S
N985 Li968 1.990 . S
N985 C984 1.314 . S
N985 C987 1.279 . S
C986 C987 1.358 . S
C986 C988 1.356 . S
C986 H1040 0.930 . S
C987 N985 1.279 . S
C987 C986 1.358 . S
C987 H991 0.930 . S
C988 C986 1.356 . S
C988 C989 1.348 . S
C989 C984 1.353 . S
C989 C988 1.348 . S
C989 H1041 0.929 . S
H990 C984 0.930 . S
H991 C987 0.930 . S
C992 N993 1.314 . S
C992 C994 1.353 . S
C992 H998 0.930 . S
N993 Li969 1.990 . S
N993 C992 1.314 . S
N993 C996 1.279 . S
C994 C992 1.353 . S
C994 C997 1.348 . S
C994 H1042 0.929 . S
C995 C996 1.358 . S
C995 C997 1.356 . S
C995 H1043 0.930 . S
C996 N993 1.279 . S
C996 C995 1.358 . S
C996 H999 0.930 . S
C997 C994 1.348 . S
C997 C995 1.356 . S
H998 C992 0.930 . S
H999 C996 0.930 . S
C1000 C1002 1.348 . S
C1000 C1003 1.356 . S
C1000 O1030 1.325 . S
N1001 C1004 1.314 . S
N1001 C1005 1.279 . S
C1002 C1000 1.348 . S
C1002 C1004 1.353 . S
C1002 H1044 0.929 . S
C1003 C1000 1.356 . S
C1003 C1005 1.358 . S
C1003 H1045 0.930 . S
C1004 N1001 1.314 . S
C1004 C1002 1.353 . S
C1004 H1046 0.930 . S
C1005 N1001 1.279 . S
C1005 C1003 1.358 . S
C1005 H1047 0.930 . S
C1006 C1007 1.348 . S
C1006 C1008 1.356 . S
C1006 O1031 1.325 . S
C1007 C1006 1.348 . S
C1007 C1009 1.353 . S
C1007 H1048 0.929 . S
C1008 C1006 1.356 . S
C1008 C1010 1.358 . S
C1008 H1049 0.930 . S
C1009 C1007 1.353 . S
C1009 N1011 1.314 . S
C1009 H1050 0.930 . S
C1010 C1008 1.358 . S
C1010 N1011 1.279 . S
C1010 H1051 0.930 . S
N1011 C1009 1.314 . S
N1011 C1010 1.279 . S
C1012 C1014 1.353 . S
C1012 N1015 1.314 . S
C1012 H1018 0.930 . S
C1013 N1015 1.279 . S
C1013 C1016 1.358 . S
C1013 H1019 0.930 . S
C1014 C1012 1.353 . S
C1014 C1017 1.348 . S
C1014 H1052 0.929 . S
N1015 Li970 1.990 . S
N1015 C1012 1.314 . S
N1015 C1013 1.279 . S
C1016 C1013 1.358 . S
C1016 C1017 1.356 . S
C1016 H1053 0.930 . S
C1017 C1014 1.348 . S
C1017 C1016 1.356 . S
H1018 C1012 0.930 . S
H1019 C1013 0.930 . S
C1020 N1021 1.314 . S
C1020 C1022 1.353 . S
C1020 H1026 0.930 . S
N1021 Li971 1.990 . S
N1021 C1020 1.314 . S
N1021 C1024 1.279 . S
C1022 C1020 1.353 . S
C1022 C1025 1.348 . S
C1022 H1054 0.929 . S
C1023 C1024 1.358 . S
C1023 C1025 1.356 . S
C1023 H1055 0.930 . S
C1024 N1021 1.279 . S
C1024 C1023 1.358 . S
C1024 H1027 0.930 . S
C1025 C1022 1.348 . S
C1025 C1023 1.356 . S
H1026 C1020 0.930 . S
H1027 C1024 0.930 . S
O1028 Li968 1.956 . S
O1028 Li969 1.970 . S
O1028 Li970 1.961 . S
O1028 C972 1.325 . S
O1029 Li968 1.970 . S
O1029 Li969 1.956 . S
O1029 Li971 1.961 . S
O1029 C978 1.325 . S
O1030 Li968 1.961 . S
O1030 Li970 1.956 . S
O1030 Li971 1.970 . S
O1030 C1000 1.325 . S
O1031 Li969 1.961 . S
O1031 Li970 1.970 . S
O1031 Li971 1.956 . S
O1031 C1006 1.325 . S
H1032 C974 0.929 . S
H1033 C975 0.930 . S
H1034 C976 0.930 . S
H1035 C977 0.930 . S
H1036 C979 0.930 . S
H1037 C981 0.929 . S
H1038 C982 0.930 . S
H1039 C983 0.930 . S
H1040 C986 0.930 . S
H1041 C989 0.929 . S
H1042 C994 0.929 . S
H1043 C995 0.930 . S
H1044 C1002 0.929 . S
H1045 C1003 0.930 . S
H1046 C1004 0.930 . S
H1047 C1005 0.930 . S
H1048 C1007 0.929 . S
H1049 C1008 0.930 . S
H1050 C1009 0.930 . S
H1051 C1010 0.930 . S
H1052 C1014 0.929 . S
H1053 C1016 0.930 . S
H1054 C1022 0.929 . S
H1055 C1023 0.930 . S
Li1056 N1073 1.990 . S
Li1056 O1116 1.956 . S
Li1056 O1117 1.970 1_565 S
Li1056 O1118 1.961 1_565 S
Li1057 N1081 1.990 . S
Li1057 O1116 1.970 1_545 S
Li1057 O1117 1.956 . S
Li1057 O1119 1.961 . S
Li1058 N1103 1.990 . S
Li1058 O1116 1.961 1_545 S
Li1058 O1118 1.956 . S
Li1058 O1119 1.970 . S
Li1059 N1109 1.990 . S
Li1059 O1117 1.961 . S
Li1059 O1118 1.970 . S
Li1059 O1119 1.956 . S
C1060 C1062 1.348 . S
C1060 C1063 1.356 . S
C1060 O1116 1.325 . S
N1061 C1064 1.314 . S
N1061 C1065 1.279 . S
C1062 C1060 1.348 . S
C1062 C1064 1.353 . S
C1062 H1120 0.929 . S
C1063 C1060 1.356 . S
C1063 C1065 1.358 . S
C1063 H1121 0.930 . S
C1064 N1061 1.314 . S
C1064 C1062 1.353 . S
C1064 H1122 0.930 . S
C1065 N1061 1.279 . S
C1065 C1063 1.358 . S
C1065 H1123 0.930 . S
C1066 C1069 1.348 . S
C1066 C1070 1.356 1_565 S
C1066 O1117 1.325 1_565 S
C1067 N1068 1.279 1_545 S
C1067 C1070 1.358 . S
C1067 H1124 0.930 . S
N1068 C1067 1.279 1_565 S
N1068 C1071 1.314 . S
C1069 C1066 1.348 . S
C1069 C1071 1.353 . S
C1069 H1125 0.929 . S
C1070 C1066 1.356 1_545 S
C1070 C1067 1.358 . S
C1070 H1126 0.930 . S
C1071 N1068 1.314 . S
C1071 C1069 1.353 . S
C1071 H1127 0.930 . S
C1072 N1073 1.314 . S
C1072 C1077 1.353 . S
C1072 H1078 0.930 . S
N1073 Li1056 1.990 . S
N1073 C1072 1.314 . S
N1073 C1075 1.279 . S
C1074 C1075 1.358 . S
C1074 C1076 1.356 . S
C1074 H1128 0.930 . S
C1075 N1073 1.279 . S
C1075 C1074 1.358 . S
C1075 H1079 0.930 . S
C1076 C1074 1.356 . S
C1076 C1077 1.348 . S
C1077 C1072 1.353 . S
C1077 C1076 1.348 . S
C1077 H1129 0.929 . S
H1078 C1072 0.930 . S
H1079 C1075 0.930 . S
C1080 N1081 1.314 . S
C1080 C1082 1.353 . S
C1080 H1086 0.930 . S
N1081 Li1057 1.990 . S
N1081 C1080 1.314 . S
N1081 C1084 1.279 . S
C1082 C1080 1.353 . S
C1082 C1085 1.348 . S
C1082 H1130 0.929 . S
C1083 C1084 1.358 1_565 S
C1083 C1085 1.356 1_565 S
C1083 H1131 0.930 . S
C1084 N1081 1.279 . S
C1084 C1083 1.358 1_545 S
C1084 H1087 0.930 1_545 S
C1085 C1082 1.348 . S
C1085 C1083 1.356 1_545 S
H1086 C1080 0.930 . S
H1087 C1084 0.930 1_565 S
C1088 C1090 1.348 . S
C1088 C1091 1.356 . S
C1088 O1118 1.325 . S
N1089 C1092 1.314 . S
N1089 C1093 1.279 . S
C1090 C1088 1.348 . S
C1090 C1092 1.353 . S
C1090 H1132 0.929 . S
C1091 C1088 1.356 . S
C1091 C1093 1.358 . S
C1091 H1133 0.930 1_545 S
C1092 N1089 1.314 . S
C1092 C1090 1.353 . S
C1092 H1134 0.930 . S
C1093 N1089 1.279 . S
C1093 C1091 1.358 . S
C1093 H1135 0.930 1_545 S
C1094 C1095 1.348 . S
C1094 C1096 1.356 . S
C1094 O1119 1.325 . S
C1095 C1094 1.348 . S
C1095 C1097 1.353 . S
C1095 H1136 0.929 . S
C1096 C1094 1.356 . S
C1096 C1098 1.358 . S
C1096 H1137 0.930 . S
C1097 C1095 1.353 . S
C1097 N1099 1.314 . S
C1097 H1138 0.930 . S
C1098 C1096 1.358 . S
C1098 N1099 1.279 . S
C1098 H1139 0.930 . S
N1099 C1097 1.314 . S
N1099 C1098 1.279 . S
C1100 C1102 1.353 . S
C1100 N1103 1.314 . S
C1100 H1106 0.930 . S
C1101 N1103 1.279 . S
C1101 C1104 1.358 . S
C1101 H1107 0.930 . S
C1102 C1100 1.353 . S
C1102 C1105 1.348 . S
C1102 H1140 0.929 . S
N1103 Li1058 1.990 . S
N1103 C1100 1.314 . S
N1103 C1101 1.279 . S
C1104 C1101 1.358 . S
C1104 C1105 1.356 . S
C1104 H1141 0.930 . S
C1105 C1102 1.348 . S
C1105 C1104 1.356 . S
H1106 C1100 0.930 . S
H1107 C1101 0.930 . S
C1108 N1109 1.314 . S
C1108 C1110 1.353 . S
C1108 H1114 0.930 . S
N1109 Li1059 1.990 . S
N1109 C1108 1.314 . S
N1109 C1112 1.279 . S
C1110 C1108 1.353 . S
C1110 C1113 1.348 . S
C1110 H1142 0.929 . S
C1111 C1112 1.358 . S
C1111 C1113 1.356 . S
C1111 H1143 0.930 . S
C1112 N1109 1.279 . S
C1112 C1111 1.358 . S
C1112 H1115 0.930 . S
C1113 C1110 1.348 . S
C1113 C1111 1.356 . S
H1114 C1108 0.930 . S
H1115 C1112 0.930 . S
O1116 Li1056 1.956 . S
O1116 Li1057 1.970 1_565 S
O1116 Li1058 1.961 1_565 S
O1116 C1060 1.325 . S
O1117 Li1056 1.970 1_545 S
O1117 Li1057 1.956 . S
O1117 Li1059 1.961 . S
O1117 C1066 1.325 1_545 S
O1118 Li1056 1.961 1_545 S
O1118 Li1058 1.956 . S
O1118 Li1059 1.970 . S
O1118 C1088 1.325 . S
O1119 Li1057 1.961 . S
O1119 Li1058 1.970 . S
O1119 Li1059 1.956 . S
O1119 C1094 1.325 . S
H1120 C1062 0.929 . S
H1121 C1063 0.930 . S
H1122 C1064 0.930 . S
H1123 C1065 0.930 . S
H1124 C1067 0.930 . S
H1125 C1069 0.929 . S
H1126 C1070 0.930 . S
H1127 C1071 0.930 . S
H1128 C1074 0.930 . S
H1129 C1077 0.929 . S
H1130 C1082 0.929 . S
H1131 C1083 0.930 . S
H1132 C1090 0.929 . S
H1133 C1091 0.930 1_565 S
H1134 C1092 0.930 . S
H1135 C1093 0.930 1_565 S
H1136 C1095 0.929 . S
H1137 C1096 0.930 . S
H1138 C1097 0.930 . S
H1139 C1098 0.930 . S
H1140 C1102 0.929 . S
H1141 C1104 0.930 . S
H1142 C1110 0.929 . S
H1143 C1111 0.930 . S
Li1144 N1161 1.990 . S
Li1144 O1204 1.956 . S
Li1144 O1205 1.970 1_455 S
Li1144 O1206 1.961 1_455 S
Li1145 N1169 1.990 . S
Li1145 O1204 1.970 1_655 S
Li1145 O1205 1.956 . S
Li1145 O1207 1.961 . S
Li1146 N1191 1.990 . S
Li1146 O1204 1.961 1_655 S
Li1146 O1206 1.956 . S
Li1146 O1207 1.970 . S
Li1147 N1197 1.990 . S
Li1147 O1205 1.961 . S
Li1147 O1206 1.970 . S
Li1147 O1207 1.956 . S
C1148 C1150 1.348 . S
C1148 C1151 1.356 . S
C1148 O1204 1.325 . S
N1149 C1152 1.314 . S
N1149 C1153 1.279 . S
C1150 C1148 1.348 . S
C1150 C1152 1.353 . S
C1150 H1208 0.929 . S
C1151 C1148 1.356 . S
C1151 C1153 1.358 . S
C1151 H1209 0.930 . S
C1152 N1149 1.314 . S
C1152 C1150 1.353 . S
C1152 H1210 0.930 . S
C1153 N1149 1.279 . S
C1153 C1151 1.358 . S
C1153 H1211 0.930 . S
C1154 C1157 1.348 . S
C1154 C1158 1.356 1_455 S
C1154 O1205 1.325 1_455 S
C1155 N1156 1.279 1_655 S
C1155 C1158 1.358 . S
C1155 H1212 0.930 . S
N1156 C1155 1.279 1_455 S
N1156 C1159 1.314 . S
C1157 C1154 1.348 . S
C1157 C1159 1.353 . S
C1157 H1213 0.929 . S
C1158 C1154 1.356 1_655 S
C1158 C1155 1.358 . S
C1158 H1214 0.930 . S
C1159 N1156 1.314 . S
C1159 C1157 1.353 . S
C1159 H1215 0.930 . S
C1160 N1161 1.314 . S
C1160 C1165 1.353 . S
C1160 H1166 0.930 . S
N1161 Li1144 1.990 . S
N1161 C1160 1.314 . S
N1161 C1163 1.279 . S
C1162 C1163 1.358 . S
C1162 C1164 1.356 . S
C1162 H1216 0.930 . S
C1163 N1161 1.279 . S
C1163 C1162 1.358 . S
C1163 H1167 0.930 . S
C1164 C1162 1.356 . S
C1164 C1165 1.348 . S
C1165 C1160 1.353 . S
C1165 C1164 1.348 . S
C1165 H1217 0.929 . S
H1166 C1160 0.930 . S
H1167 C1163 0.930 . S
C1168 N1169 1.314 . S
C1168 C1170 1.353 . S
C1168 H1174 0.930 . S
N1169 Li1145 1.990 . S
N1169 C1168 1.314 . S
N1169 C1172 1.281 . S
C1170 C1168 1.353 . S
C1170 C1173 1.348 . S
C1170 H1218 0.929 . S
C1171 C1172 1.363 1_455 S
C1171 C1173 1.356 1_455 S
C1171 H1219 0.930 . S
C1172 N1169 1.281 . S
C1172 C1171 1.363 1_655 S
C1172 H1175 0.924 1_655 S
C1173 C1170 1.348 . S
C1173 C1171 1.356 1_655 S
H1174 C1168 0.930 . S
H1175 C1172 0.924 1_455 S
C1176 C1178 1.348 . S
C1176 C1179 1.356 . S
C1176 O1206 1.325 . S
N1177 C1180 1.314 . S
N1177 C1181 1.279 . S
C1178 C1176 1.348 . S
C1178 C1180 1.353 . S
C1178 H1220 0.929 . S
C1179 C1176 1.356 . S
C1179 C1181 1.358 . S
C1179 H1221 0.930 1_655 S
C1180 N1177 1.314 . S
C1180 C1178 1.353 . S
C1180 H1222 0.930 . S
C1181 N1177 1.279 . S
C1181 C1179 1.358 . S
C1181 H1223 0.930 1_655 S
C1182 C1183 1.348 . S
C1182 C1184 1.356 . S
C1182 O1207 1.325 . S
C1183 C1182 1.348 . S
C1183 C1185 1.353 . S
C1183 H1224 0.929 . S
C1184 C1182 1.356 . S
C1184 C1186 1.358 . S
C1184 H1225 0.930 . S
C1185 C1183 1.353 . S
C1185 N1187 1.314 . S
C1185 H1226 0.930 . S
C1186 C1184 1.358 . S
C1186 N1187 1.279 . S
C1186 H1227 0.930 . S
N1187 C1185 1.314 . S
N1187 C1186 1.279 . S
C1188 C1190 1.353 . S
C1188 N1191 1.314 . S
C1188 H1194 0.930 . S
C1189 N1191 1.279 . S
C1189 C1192 1.358 . S
C1189 H1195 0.930 . S
C1190 C1188 1.353 . S
C1190 C1193 1.348 . S
C1190 H1228 0.929 . S
N1191 Li1146 1.990 . S
N1191 C1188 1.314 . S
N1191 C1189 1.279 . S
C1192 C1189 1.358 . S
C1192 C1193 1.356 . S
C1192 H1229 0.930 . S
C1193 C1190 1.348 . S
C1193 C1192 1.356 . S
H1194 C1188 0.930 . S
H1195 C1189 0.930 . S
C1196 N1197 1.314 . S
C1196 C1198 1.353 . S
C1196 H1202 0.930 . S
N1197 Li1147 1.990 . S
N1197 C1196 1.314 . S
N1197 C1200 1.279 . S
C1198 C1196 1.353 . S
C1198 C1201 1.348 . S
C1198 H1230 0.929 . S
C1199 C1200 1.358 . S
C1199 C1201 1.356 . S
C1199 H1231 0.930 . S
C1200 N1197 1.279 . S
C1200 C1199 1.358 . S
C1200 H1203 0.930 . S
C1201 C1198 1.348 . S
C1201 C1199 1.356 . S
H1202 C1196 0.930 . S
H1203 C1200 0.930 . S
O1204 Li1144 1.956 . S
O1204 Li1145 1.970 1_455 S
O1204 Li1146 1.961 1_455 S
O1204 C1148 1.325 . S
O1205 Li1144 1.970 1_655 S
O1205 Li1145 1.956 . S
O1205 Li1147 1.961 . S
O1205 C1154 1.325 1_655 S
O1206 Li1144 1.961 1_655 S
O1206 Li1146 1.956 . S
O1206 Li1147 1.970 . S
O1206 C1176 1.325 . S
O1207 Li1145 1.961 . S
O1207 Li1146 1.970 . S
O1207 Li1147 1.956 . S
O1207 C1182 1.325 . S
H1208 C1150 0.929 . S
H1209 C1151 0.930 . S
H1210 C1152 0.930 . S
H1211 C1153 0.930 . S
H1212 C1155 0.930 . S
H1213 C1157 0.929 . S
H1214 C1158 0.930 . S
H1215 C1159 0.930 . S
H1216 C1162 0.930 . S
H1217 C1165 0.929 . S
H1218 C1170 0.929 . S
H1219 C1171 0.930 . S
H1220 C1178 0.929 . S
H1221 C1179 0.930 1_455 S
H1222 C1180 0.930 . S
H1223 C1181 0.930 1_455 S
H1224 C1183 0.929 . S
H1225 C1184 0.930 . S
H1226 C1185 0.930 . S
H1227 C1186 0.930 . S
H1228 C1190 0.929 . S
H1229 C1192 0.930 . S
H1230 C1198 0.929 . S
H1231 C1199 0.930 . S
Li1232 N1249 1.990 . S
Li1232 O1292 1.956 . S
Li1232 O1293 1.970 . S
Li1232 O1294 1.961 . S
Li1233 N1257 1.990 . S
Li1233 O1292 1.970 . S
Li1233 O1293 1.956 . S
Li1233 O1295 1.961 . S
Li1234 N1279 1.990 . S
Li1234 O1292 1.961 . S
Li1234 O1294 1.956 . S
Li1234 O1295 1.970 . S
Li1235 N1285 1.990 . S
Li1235 O1293 1.961 . S
Li1235 O1294 1.970 . S
Li1235 O1295 1.956 . S
C1236 C1238 1.348 . S
C1236 C1239 1.356 . S
C1236 O1292 1.325 . S
N1237 C1240 1.314 . S
N1237 C1241 1.279 . S
C1238 C1236 1.348 . S
C1238 C1240 1.353 . S
C1238 H1296 0.929 . S
C1239 C1236 1.356 . S
C1239 C1241 1.358 . S
C1239 H1297 0.930 . S
C1240 N1237 1.314 . S
C1240 C1238 1.353 . S
C1240 H1298 0.930 . S
C1241 N1237 1.279 . S
C1241 C1239 1.358 . S
C1241 H1299 0.930 . S
C1242 C1245 1.348 . S
C1242 C1246 1.356 . S
C1242 O1293 1.325 . S
C1243 N1244 1.279 . S
C1243 C1246 1.358 . S
C1243 H1300 0.930 . S
N1244 C1243 1.279 . S
N1244 C1247 1.314 . S
C1245 C1242 1.348 . S
C1245 C1247 1.353 . S
C1245 H1301 0.929 . S
C1246 C1242 1.356 . S
C1246 C1243 1.358 . S
C1246 H1302 0.930 . S
C1247 N1244 1.314 . S
C1247 C1245 1.353 . S
C1247 H1303 0.930 . S
C1248 N1249 1.314 . S
C1248 C1253 1.353 . S
C1248 H1254 0.930 . S
N1249 Li1232 1.990 . S
N1249 C1248 1.314 . S
N1249 C1251 1.279 . S
C1250 C1251 1.358 . S
C1250 C1252 1.356 . S
C1250 H1304 0.930 . S
C1251 N1249 1.279 . S
C1251 C1250 1.358 . S
C1251 H1255 0.930 . S
C1252 C1250 1.356 . S
C1252 C1253 1.348 . S
C1253 C1248 1.353 . S
C1253 C1252 1.348 . S
C1253 H1305 0.929 . S
H1254 C1248 0.930 . S
H1255 C1251 0.930 . S
C1256 N1257 1.314 . S
C1256 C1258 1.353 . S
C1256 H1262 0.930 . S
N1257 Li1233 1.990 . S
N1257 C1256 1.314 . S
N1257 C1260 1.279 . S
C1258 C1256 1.353 . S
C1258 C1261 1.348 . S
C1258 H1306 0.929 . S
C1259 C1260 1.358 . S
C1259 C1261 1.356 . S
C1259 H1307 0.930 . S
C1260 N1257 1.279 . S
C1260 C1259 1.358 . S
C1260 H1263 0.930 . S
C1261 C1258 1.348 . S
C1261 C1259 1.356 . S
H1262 C1256 0.930 . S
H1263 C1260 0.930 . S
C1264 C1266 1.348 . S
C1264 C1267 1.356 . S
C1264 O1294 1.325 . S
N1265 C1268 1.314 . S
N1265 C1269 1.279 . S
C1266 C1264 1.348 . S
C1266 C1268 1.353 . S
C1266 H1308 0.929 . S
C1267 C1264 1.356 . S
C1267 C1269 1.358 . S
C1267 H1309 0.930 . S
C1268 N1265 1.314 . S
C1268 C1266 1.353 . S
C1268 H1310 0.930 . S
C1269 N1265 1.279 . S
C1269 C1267 1.358 . S
C1269 H1311 0.930 . S
C1270 C1271 1.348 . S
C1270 C1272 1.356 . S
C1270 O1295 1.325 . S
C1271 C1270 1.348 . S
C1271 C1273 1.353 . S
C1271 H1312 0.929 . S
C1272 C1270 1.356 . S
C1272 C1274 1.358 . S
C1272 H1313 0.930 . S
C1273 C1271 1.353 . S
C1273 N1275 1.314 . S
C1273 H1314 0.930 . S
C1274 C1272 1.358 . S
C1274 N1275 1.279 . S
C1274 H1315 0.930 . S
N1275 C1273 1.314 . S
N1275 C1274 1.279 . S
C1276 C1278 1.353 . S
C1276 N1279 1.314 . S
C1276 H1282 0.930 . S
C1277 N1279 1.279 . S
C1277 C1280 1.358 . S
C1277 H1283 0.930 . S
C1278 C1276 1.353 . S
C1278 C1281 1.348 . S
C1278 H1316 0.929 . S
N1279 Li1234 1.990 . S
N1279 C1276 1.314 . S
N1279 C1277 1.279 . S
C1280 C1277 1.358 . S
C1280 C1281 1.356 . S
C1280 H1317 0.930 . S
C1281 C1278 1.348 . S
C1281 C1280 1.356 . S
H1282 C1276 0.930 . S
H1283 C1277 0.930 . S
C1284 N1285 1.314 . S
C1284 C1286 1.353 . S
C1284 H1290 0.930 . S
N1285 Li1235 1.990 . S
N1285 C1284 1.314 . S
N1285 C1288 1.279 . S
C1286 C1284 1.353 . S
C1286 C1289 1.348 . S
C1286 H1318 0.929 . S
C1287 C1288 1.358 . S
C1287 C1289 1.356 . S
C1287 H1319 0.930 . S
C1288 N1285 1.279 . S
C1288 C1287 1.358 . S
C1288 H1291 0.930 . S
C1289 C1286 1.348 . S
C1289 C1287 1.356 . S
H1290 C1284 0.930 . S
H1291 C1288 0.930 . S
O1292 Li1232 1.956 . S
O1292 Li1233 1.970 . S
O1292 Li1234 1.961 . S
O1292 C1236 1.325 . S
O1293 Li1232 1.970 . S
O1293 Li1233 1.956 . S
O1293 Li1235 1.961 . S
O1293 C1242 1.325 . S
O1294 Li1232 1.961 . S
O1294 Li1234 1.956 . S
O1294 Li1235 1.970 . S
O1294 C1264 1.325 . S
O1295 Li1233 1.961 . S
O1295 Li1234 1.970 . S
O1295 Li1235 1.956 . S
O1295 C1270 1.325 . S
H1296 C1238 0.929 . S
H1297 C1239 0.930 . S
H1298 C1240 0.930 . S
H1299 C1241 0.930 . S
H1300 C1243 0.930 . S
H1301 C1245 0.929 . S
H1302 C1246 0.930 . S
H1303 C1247 0.930 . S
H1304 C1250 0.930 . S
H1305 C1253 0.929 . S
H1306 C1258 0.929 . S
H1307 C1259 0.930 . S
H1308 C1266 0.929 . S
H1309 C1267 0.930 . S
H1310 C1268 0.930 . S
H1311 C1269 0.930 . S
H1312 C1271 0.929 . S
H1313 C1272 0.930 . S
H1314 C1273 0.930 . S
H1315 C1274 0.930 . S
H1316 C1278 0.929 . S
H1317 C1280 0.930 . S
H1318 C1286 0.929 . S
H1319 C1287 0.930 . S
Li1320 N1337 1.990 . S
Li1320 O1380 1.956 . S
Li1320 O1381 1.970 . S
Li1320 O1382 1.961 . S
Li1321 N1345 1.990 . S
Li1321 O1380 1.970 . S
Li1321 O1381 1.956 . S
Li1321 O1383 1.961 . S
Li1322 N1367 1.990 . S
Li1322 O1380 1.961 . S
Li1322 O1382 1.956 . S
Li1322 O1383 1.970 . S
Li1323 N1373 1.990 . S
Li1323 O1381 1.961 . S
Li1323 O1382 1.970 . S
Li1323 O1383 1.956 . S
C1324 C1326 1.348 . S
C1324 C1327 1.356 . S
C1324 O1380 1.325 . S
N1325 C1328 1.314 . S
N1325 C1329 1.279 . S
C1326 C1324 1.348 . S
C1326 C1328 1.353 . S
C1326 H1384 0.929 . S
C1327 C1324 1.356 . S
C1327 C1329 1.358 . S
C1327 H1385 0.930 . S
C1328 N1325 1.314 . S
C1328 C1326 1.353 . S
C1328 H1386 0.930 . S
C1329 N1325 1.279 . S
C1329 C1327 1.358 . S
C1329 H1387 0.930 . S
C1330 C1333 1.348 . S
C1330 C1334 1.356 . S
C1330 O1381 1.325 . S
C1331 N1332 1.279 . S
C1331 C1334 1.358 . S
C1331 H1388 0.930 . S
N1332 C1331 1.279 . S
N1332 C1335 1.314 . S
C1333 C1330 1.348 . S
C1333 C1335 1.353 . S
C1333 H1389 0.929 . S
C1334 C1330 1.356 . S
C1334 C1331 1.358 . S
C1334 H1390 0.930 . S
C1335 N1332 1.314 . S
C1335 C1333 1.353 . S
C1335 H1391 0.930 . S
C1336 N1337 1.314 . S
C1336 C1341 1.353 . S
C1336 H1342 0.930 . S
N1337 Li1320 1.990 . S
N1337 C1336 1.314 . S
N1337 C1339 1.279 . S
C1338 C1339 1.358 . S
C1338 C1340 1.356 . S
C1338 H1392 0.930 . S
C1339 N1337 1.279 . S
C1339 C1338 1.358 . S
C1339 H1343 0.930 . S
C1340 C1338 1.356 . S
C1340 C1341 1.348 . S
C1341 C1336 1.353 . S
C1341 C1340 1.348 . S
C1341 H1393 0.929 . S
H1342 C1336 0.930 . S
H1343 C1339 0.930 . S
C1344 N1345 1.314 . S
C1344 C1346 1.353 . S
C1344 H1350 0.930 . S
N1345 Li1321 1.990 . S
N1345 C1344 1.314 . S
N1345 C1348 1.279 . S
C1346 C1344 1.353 . S
C1346 C1349 1.348 . S
C1346 H1394 0.929 . S
C1347 C1348 1.358 . S
C1347 C1349 1.356 . S
C1347 H1395 0.930 . S
C1348 N1345 1.279 . S
C1348 C1347 1.358 . S
C1348 H1351 0.930 . S
C1349 C1346 1.348 . S
C1349 C1347 1.356 . S
H1350 C1344 0.930 . S
H1351 C1348 0.930 . S
C1352 C1354 1.348 . S
C1352 C1355 1.356 . S
C1352 O1382 1.325 . S
N1353 C1356 1.314 . S
N1353 C1357 1.279 . S
C1354 C1352 1.348 . S
C1354 C1356 1.353 . S
C1354 H1396 0.929 . S
C1355 C1352 1.356 . S
C1355 C1357 1.358 . S
C1355 H1397 0.930 . S
C1356 N1353 1.314 . S
C1356 C1354 1.353 . S
C1356 H1398 0.930 . S
C1357 N1353 1.279 . S
C1357 C1355 1.358 . S
C1357 H1399 0.930 . S
C1358 C1359 1.348 . S
C1358 C1360 1.356 . S
C1358 O1383 1.325 . S
C1359 C1358 1.348 . S
C1359 C1361 1.353 . S
C1359 H1400 0.929 . S
C1360 C1358 1.356 . S
C1360 C1362 1.358 . S
C1360 H1401 0.930 . S
C1361 C1359 1.353 . S
C1361 N1363 1.314 . S
C1361 H1402 0.930 . S
C1362 C1360 1.358 . S
C1362 N1363 1.279 . S
C1362 H1403 0.930 . S
N1363 C1361 1.314 . S
N1363 C1362 1.279 . S
C1364 C1366 1.353 . S
C1364 N1367 1.314 . S
C1364 H1370 0.930 . S
C1365 N1367 1.279 . S
C1365 C1368 1.358 . S
C1365 H1371 0.930 . S
C1366 C1364 1.353 . S
C1366 C1369 1.348 . S
C1366 H1404 0.929 . S
N1367 Li1322 1.990 . S
N1367 C1364 1.314 . S
N1367 C1365 1.279 . S
C1368 C1365 1.358 . S
C1368 C1369 1.356 . S
C1368 H1405 0.930 . S
C1369 C1366 1.348 . S
C1369 C1368 1.356 . S
H1370 C1364 0.930 . S
H1371 C1365 0.930 . S
C1372 N1373 1.314 . S
C1372 C1374 1.353 . S
C1372 H1378 0.930 . S
N1373 Li1323 1.990 . S
N1373 C1372 1.314 . S
N1373 C1376 1.279 . S
C1374 C1372 1.353 . S
C1374 C1377 1.348 . S
C1374 H1406 0.929 . S
C1375 C1376 1.358 . S
C1375 C1377 1.356 . S
C1375 H1407 0.930 . S
C1376 N1373 1.279 . S
C1376 C1375 1.358 . S
C1376 H1379 0.930 . S
C1377 C1374 1.348 . S
C1377 C1375 1.356 . S
H1378 C1372 0.930 . S
H1379 C1376 0.930 . S
O1380 Li1320 1.956 . S
O1380 Li1321 1.970 . S
O1380 Li1322 1.961 . S
O1380 C1324 1.325 . S
O1381 Li1320 1.970 . S
O1381 Li1321 1.956 . S
O1381 Li1323 1.961 . S
O1381 C1330 1.325 . S
O1382 Li1320 1.961 . S
O1382 Li1322 1.956 . S
O1382 Li1323 1.970 . S
O1382 C1352 1.325 . S
O1383 Li1321 1.961 . S
O1383 Li1322 1.970 . S
O1383 Li1323 1.956 . S
O1383 C1358 1.325 . S
H1384 C1326 0.929 . S
H1385 C1327 0.930 . S
H1386 C1328 0.930 . S
H1387 C1329 0.930 . S
H1388 C1331 0.930 . S
H1389 C1333 0.929 . S
H1390 C1334 0.930 . S
H1391 C1335 0.930 . S
H1392 C1338 0.930 . S
H1393 C1341 0.929 . S
H1394 C1346 0.929 . S
H1395 C1347 0.930 . S
H1396 C1354 0.929 . S
H1397 C1355 0.930 . S
H1398 C1356 0.930 . S
H1399 C1357 0.930 . S
H1400 C1359 0.929 . S
H1401 C1360 0.930 . S
H1402 C1361 0.930 . S
H1403 C1362 0.930 . S
H1404 C1366 0.929 . S
H1405 C1368 0.930 . S
H1406 C1374 0.929 . S
H1407 C1375 0.930 . S
Li1408 N1425 1.990 . S
Li1408 O1468 1.956 . S
Li1408 O1469 1.970 1_545 S
Li1408 O1470 1.961 . S
Li1409 N1433 1.990 . S
Li1409 O1468 1.970 . S
Li1409 O1469 1.956 1_545 S
Li1409 O1471 1.961 . S
Li1410 N1455 1.990 . S
Li1410 O1468 1.961 . S
Li1410 O1470 1.956 . S
Li1410 O1471 1.970 . S
Li1411 N1461 1.990 . S
Li1411 O1469 1.961 . S
Li1411 O1470 1.970 1_565 S
Li1411 O1471 1.956 1_565 S
C1412 C1414 1.348 . S
C1412 C1415 1.356 . S
C1412 O1468 1.325 . S
N1413 C1416 1.314 . S
N1413 C1417 1.279 . S
C1414 C1412 1.348 . S
C1414 C1416 1.353 . S
C1414 H1472 0.929 . S
C1415 C1412 1.356 . S
C1415 C1417 1.358 . S
C1415 H1473 0.930 . S
C1416 N1413 1.314 . S
C1416 C1414 1.353 . S
C1416 H1474 0.930 . S
C1417 N1413 1.279 . S
C1417 C1415 1.358 . S
C1417 H1475 0.930 . S
C1418 C1421 1.348 . S
C1418 C1422 1.356 . S
C1418 O1469 1.325 . S
C1419 N1420 1.279 . S
C1419 C1422 1.358 . S
C1419 H1476 0.930 . S
N1420 C1419 1.279 . S
N1420 C1423 1.314 . S
C1421 C1418 1.348 . S
C1421 C1423 1.353 . S
C1421 H1477 0.929 . S
C1422 C1418 1.356 . S
C1422 C1419 1.358 . S
C1422 H1478 0.930 . S
C1423 N1420 1.314 . S
C1423 C1421 1.353 . S
C1423 H1479 0.930 . S
C1424 N1425 1.314 1_565 S
C1424 C1429 1.353 . S
C1424 H1430 0.930 . S
N1425 Li1408 1.990 . S
N1425 C1424 1.314 1_545 S
N1425 C1427 1.279 . S
C1426 C1427 1.358 . S
C1426 C1428 1.356 . S
C1426 H1480 0.930 . S
C1427 N1425 1.279 . S
C1427 C1426 1.358 . S
C1427 H1431 0.930 . S
C1428 C1426 1.356 . S
C1428 C1429 1.348 1_545 S
C1429 C1424 1.353 . S
C1429 C1428 1.348 1_565 S
C1429 H1481 0.929 . S
H1430 C1424 0.930 . S
H1431 C1427 0.930 . S
C1432 N1433 1.314 . S
C1432 C1434 1.353 . S
C1432 H1438 0.930 . S
N1433 Li1409 1.990 . S
N1433 C1432 1.314 . S
N1433 C1436 1.279 . S
C1434 C1432 1.353 . S
C1434 C1437 1.348 . S
C1434 H1482 0.929 . S
C1435 C1436 1.358 . S
C1435 C1437 1.356 . S
C1435 H1483 0.930 . S
C1436 N1433 1.279 . S
C1436 C1435 1.358 . S
C1436 H1439 0.930 . S
C1437 C1434 1.348 . S
C1437 C1435 1.356 . S
H1438 C1432 0.930 . S
H1439 C1436 0.930 . S
C1440 C1442 1.348 . S
C1440 C1443 1.356 1_565 S
C1440 O1470 1.325 1_565 S
N1441 C1444 1.314 . S
N1441 C1445 1.279 . S
C1442 C1440 1.348 . S
C1442 C1444 1.353 . S
C1442 H1484 0.929 . S
C1443 C1440 1.356 1_545 S
C1443 C1445 1.358 1_545 S
C1443 H1485 0.930 . S
C1444 N1441 1.314 . S
C1444 C1442 1.353 . S
C1444 H1486 0.930 . S
C1445 N1441 1.279 . S
C1445 C1443 1.358 1_565 S
C1445 H1487 0.930 1_565 S
C1446 C1447 1.348 . S
C1446 C1448 1.356 . S
C1446 O1471 1.325 . S
C1447 C1446 1.348 . S
C1447 C1449 1.353 . S
C1447 H1488 0.929 . S
C1448 C1446 1.356 . S
C1448 C1450 1.358 . S
C1448 H1489 0.930 . S
C1449 C1447 1.353 . S
C1449 N1451 1.314 . S
C1449 H1490 0.930 . S
C1450 C1448 1.358 . S
C1450 N1451 1.279 . S
C1450 H1491 0.930 . S
N1451 C1449 1.314 . S
N1451 C1450 1.279 . S
C1452 C1454 1.353 . S
C1452 N1455 1.314 . S
C1452 H1458 0.930 . S
C1453 N1455 1.279 . S
C1453 C1456 1.358 . S
C1453 H1459 0.930 . S
C1454 C1452 1.353 . S
C1454 C1457 1.348 . S
C1454 H1492 0.929 . S
N1455 Li1410 1.990 . S
N1455 C1452 1.314 . S
N1455 C1453 1.279 . S
C1456 C1453 1.358 . S
C1456 C1457 1.356 . S
C1456 H1493 0.930 . S
C1457 C1454 1.348 . S
C1457 C1456 1.356 . S
H1458 C1452 0.930 . S
H1459 C1453 0.930 . S
C1460 N1461 1.314 . S
C1460 C1462 1.353 . S
C1460 H1466 0.930 . S
N1461 Li1411 1.990 . S
N1461 C1460 1.314 . S
N1461 C1464 1.279 . S
C1462 C1460 1.353 . S
C1462 C1465 1.348 . S
C1462 H1494 0.929 . S
C1463 C1464 1.358 . S
C1463 C1465 1.356 . S
C1463 H1495 0.930 . S
C1464 N1461 1.279 . S
C1464 C1463 1.358 . S
C1464 H1467 0.930 . S
C1465 C1462 1.348 . S
C1465 C1463 1.356 . S
H1466 C1460 0.930 . S
H1467 C1464 0.930 . S
O1468 Li1408 1.956 . S
O1468 Li1409 1.970 . S
O1468 Li1410 1.961 . S
O1468 C1412 1.325 . S
O1469 Li1408 1.970 1_565 S
O1469 Li1409 1.956 1_565 S
O1469 Li1411 1.961 . S
O1469 C1418 1.325 . S
O1470 Li1408 1.961 . S
O1470 Li1410 1.956 . S
O1470 Li1411 1.970 1_545 S
O1470 C1440 1.325 1_545 S
O1471 Li1409 1.961 . S
O1471 Li1410 1.970 . S
O1471 Li1411 1.956 1_545 S
O1471 C1446 1.325 . S
H1472 C1414 0.929 . S
H1473 C1415 0.930 . S
H1474 C1416 0.930 . S
H1475 C1417 0.930 . S
H1476 C1419 0.930 . S
H1477 C1421 0.929 . S
H1478 C1422 0.930 . S
H1479 C1423 0.930 . S
H1480 C1426 0.930 . S
H1481 C1429 0.929 . S
H1482 C1434 0.929 . S
H1483 C1435 0.930 . S
H1484 C1442 0.929 . S
H1485 C1443 0.930 . S
H1486 C1444 0.930 . S
H1487 C1445 0.930 1_545 S
H1488 C1447 0.929 . S
H1489 C1448 0.930 . S
H1490 C1449 0.930 . S
H1491 C1450 0.930 . S
H1492 C1454 0.929 . S
H1493 C1456 0.930 . S
H1494 C1462 0.929 . S
H1495 C1463 0.930 . S
Li1496 N1513 1.990 . S
Li1496 O1556 1.956 1_655 S
Li1496 O1557 1.970 . S
Li1496 O1558 1.961 . S
Li1497 N1521 1.990 . S
Li1497 O1556 1.970 1_655 S
Li1497 O1557 1.956 . S
Li1497 O1559 1.961 . S
Li1498 N1543 1.990 . S
Li1498 O1556 1.961 . S
Li1498 O1558 1.956 1_455 S
Li1498 O1559 1.970 1_455 S
Li1499 N1549 1.990 . S
Li1499 O1557 1.961 . S
Li1499 O1558 1.970 . S
Li1499 O1559 1.956 . S
C1500 C1502 1.348 . S
C1500 C1503 1.356 . S
C1500 O1556 1.325 . S
N1501 C1504 1.314 . S
N1501 C1505 1.279 . S
C1502 C1500 1.348 . S
C1502 C1504 1.353 . S
C1502 H1560 0.929 . S
C1503 C1500 1.356 . S
C1503 C1505 1.358 . S
C1503 H1561 0.930 . S
C1504 N1501 1.314 . S
C1504 C1502 1.353 . S
C1504 H1562 0.930 . S
C1505 N1501 1.279 . S
C1505 C1503 1.358 . S
C1505 H1563 0.930 . S
C1506 C1509 1.348 . S
C1506 C1510 1.356 . S
C1506 O1557 1.325 . S
C1507 N1508 1.279 . S
C1507 C1510 1.358 . S
C1507 H1564 0.930 . S
N1508 C1507 1.279 . S
N1508 C1511 1.314 . S
C1509 C1506 1.348 . S
C1509 C1511 1.353 . S
C1509 H1565 0.929 . S
C1510 C1506 1.356 . S
C1510 C1507 1.358 . S
C1510 H1566 0.930 . S
C1511 N1508 1.314 . S
C1511 C1509 1.353 . S
C1511 H1567 0.930 . S
C1512 N1513 1.314 . S
C1512 C1517 1.353 . S
C1512 H1518 0.930 . S
N1513 Li1496 1.990 . S
N1513 C1512 1.314 . S
N1513 C1515 1.279 . S
C1514 C1515 1.358 . S
C1514 C1516 1.356 . S
C1514 H1568 0.930 . S
C1515 N1513 1.279 . S
C1515 C1514 1.358 . S
C1515 H1519 0.930 . S
C1516 C1514 1.356 . S
C1516 C1517 1.348 . S
C1517 C1512 1.353 . S
C1517 C1516 1.348 . S
C1517 H1569 0.929 . S
H1518 C1512 0.930 . S
H1519 C1515 0.930 . S
C1520 N1521 1.314 1_455 S
C1520 C1522 1.353 . S
C1520 H1526 0.930 . S
N1521 Li1497 1.990 . S
N1521 C1520 1.314 1_655 S
N1521 C1524 1.279 . S
C1522 C1520 1.353 . S
C1522 C1525 1.348 1_455 S
C1522 H1570 0.929 . S
C1523 C1524 1.358 . S
C1523 C1525 1.356 . S
C1523 H1571 0.930 . S
C1524 N1521 1.279 . S
C1524 C1523 1.358 . S
C1524 H1527 0.930 . S
C1525 C1522 1.348 1_655 S
C1525 C1523 1.356 . S
H1526 C1520 0.930 . S
H1527 C1524 0.930 . S
C1528 C1530 1.348 . S
C1528 C1531 1.356 . S
C1528 O1558 1.325 . S
N1529 C1532 1.314 . S
N1529 C1533 1.279 . S
C1530 C1528 1.348 . S
C1530 C1532 1.353 . S
C1530 H1572 0.929 . S
C1531 C1528 1.356 . S
C1531 C1533 1.358 . S
C1531 H1573 0.930 . S
C1532 N1529 1.314 . S
C1532 C1530 1.353 . S
C1532 H1574 0.930 . S
C1533 N1529 1.279 . S
C1533 C1531 1.358 . S
C1533 H1575 0.930 . S
C1534 C1535 1.348 . S
C1534 C1536 1.356 1_455 S
C1534 O1559 1.325 1_455 S
C1535 C1534 1.348 . S
C1535 C1537 1.353 . S
C1535 H1576 0.929 . S
C1536 C1534 1.356 1_655 S
C1536 C1538 1.358 1_655 S
C1536 H1577 0.930 . S
C1537 C1535 1.353 . S
C1537 N1539 1.314 . S
C1537 H1578 0.930 . S
C1538 C1536 1.358 1_455 S
C1538 N1539 1.279 . S
C1538 H1579 0.930 1_455 S
N1539 C1537 1.314 . S
N1539 C1538 1.279 . S
C1540 C1542 1.353 . S
C1540 N1543 1.314 . S
C1540 H1546 0.930 . S
C1541 N1543 1.279 . S
C1541 C1544 1.358 . S
C1541 H1547 0.930 . S
C1542 C1540 1.353 . S
C1542 C1545 1.348 . S
C1542 H1580 0.929 . S
N1543 Li1498 1.990 . S
N1543 C1540 1.314 . S
N1543 C1541 1.279 . S
C1544 C1541 1.358 . S
C1544 C1545 1.356 . S
C1544 H1581 0.930 . S
C1545 C1542 1.348 . S
C1545 C1544 1.356 . S
H1546 C1540 0.930 . S
H1547 C1541 0.930 . S
C1548 N1549 1.314 . S
C1548 C1550 1.353 . S
C1548 H1554 0.930 . S
N1549 Li1499 1.990 . S
N1549 C1548 1.314 . S
N1549 C1552 1.279 . S
C1550 C1548 1.353 . S
C1550 C1553 1.348 . S
C1550 H1582 0.929 . S
C1551 C1552 1.358 . S
C1551 C1553 1.356 . S
C1551 H1583 0.930 . S
C1552 N1549 1.279 . S
C1552 C1551 1.358 . S
C1552 H1555 0.930 . S
C1553 C1550 1.348 . S
C1553 C1551 1.356 . S
H1554 C1548 0.930 . S
H1555 C1552 0.930 . S
O1556 Li1496 1.956 1_455 S
O1556 Li1497 1.970 1_455 S
O1556 Li1498 1.961 . S
O1556 C1500 1.325 . S
O1557 Li1496 1.970 . S
O1557 Li1497 1.956 . S
O1557 Li1499 1.961 . S
O1557 C1506 1.325 . S
O1558 Li1496 1.961 . S
O1558 Li1498 1.956 1_655 S
O1558 Li1499 1.970 . S
O1558 C1528 1.325 . S
O1559 Li1497 1.961 . S
O1559 Li1498 1.970 1_655 S
O1559 Li1499 1.956 . S
O1559 C1534 1.325 1_655 S
H1560 C1502 0.929 . S
H1561 C1503 0.930 . S
H1562 C1504 0.930 . S
H1563 C1505 0.930 . S
H1564 C1507 0.930 . S
H1565 C1509 0.929 . S
H1566 C1510 0.930 . S
H1567 C1511 0.930 . S
H1568 C1514 0.930 . S
H1569 C1517 0.929 . S
H1570 C1522 0.929 . S
H1571 C1523 0.930 . S
H1572 C1530 0.929 . S
H1573 C1531 0.930 . S
H1574 C1532 0.930 . S
H1575 C1533 0.930 . S
H1576 C1535 0.929 . S
H1577 C1536 0.930 . S
H1578 C1537 0.930 . S
H1579 C1538 0.930 1_655 S
H1580 C1542 0.929 . S
H1581 C1544 0.930 . S
H1582 C1550 0.929 . S
H1583 C1551 0.930 . S
H1584 C1590 0.930 . S
H1585 C1593 0.931 . S
H1586 C1595 0.931 . S
H1587 C1597 0.930 . S
H1588 C1599 0.930 . S
H1589 C1601 0.931 . S
C1590 H1584 0.930 . S
C1590 C1591 1.380 . S
C1590 C1592 1.394 . S
C1591 C1590 1.380 . S
C1591 C1595 1.382 . S
C1592 C1590 1.394 . S
C1592 C1593 1.400 . S
C1593 H1585 0.931 . S
C1593 C1592 1.400 . S
C1593 C1594 1.375 . S
C1594 C1593 1.375 . S
C1594 C1595 1.415 . S
C1594 C1596 1.501 . S
C1595 H1586 0.931 . S
C1595 C1591 1.382 . S
C1595 C1594 1.415 . S
C1596 C1594 1.501 . S
C1596 C1597 1.384 . S
C1596 C1601 1.408 . S
C1597 H1587 0.930 . S
C1597 C1596 1.384 . S
C1597 C1598 1.389 . S
C1598 C1597 1.389 . S
C1598 C1599 1.405 . S
C1599 H1588 0.930 . S
C1599 C1598 1.405 . S
C1599 C1600 1.364 . S
C1600 C1599 1.364 . S
C1600 C1601 1.400 . S
C1601 H1589 0.931 . S
C1601 C1596 1.408 . S
C1601 C1600 1.400 . S
H1602 C1608 0.930 . S
H1603 C1611 0.931 . S
H1604 C1613 0.931 . S
H1605 C1615 0.930 . S
H1606 C1617 0.930 . S
H1607 C1619 0.931 . S
C1608 H1602 0.930 . S
C1608 C1609 1.380 . S
C1608 C1610 1.394 . S
C1609 C1608 1.380 . S
C1609 C1613 1.382 . S
C1610 C1608 1.394 . S
C1610 C1611 1.400 . S
C1611 H1603 0.931 . S
C1611 C1610 1.400 . S
C1611 C1612 1.375 . S
C1612 C1611 1.375 . S
C1612 C1613 1.415 . S
C1612 C1614 1.501 . S
C1613 H1604 0.931 . S
C1613 C1609 1.382 . S
C1613 C1612 1.415 . S
C1614 C1612 1.501 . S
C1614 C1615 1.384 . S
C1614 C1619 1.408 . S
C1615 H1605 0.930 . S
C1615 C1614 1.384 . S
C1615 C1616 1.389 . S
C1616 C1615 1.389 . S
C1616 C1617 1.405 . S
C1617 H1606 0.930 . S
C1617 C1616 1.405 . S
C1617 C1618 1.364 . S
C1618 C1617 1.364 . S
C1618 C1619 1.400 . S
C1619 H1607 0.931 . S
C1619 C1614 1.408 . S
C1619 C1618 1.400 . S
H1620 C1626 0.930 . S
H1621 C1629 0.931 . S
H1622 C1631 0.931 . S
H1623 C1633 0.930 . S
H1624 C1635 0.930 . S
H1625 C1637 0.931 . S
C1626 H1620 0.930 . S
C1626 C1627 1.380 . S
C1626 C1628 1.394 . S
C1627 C1626 1.380 . S
C1627 C1631 1.382 . S
C1628 C1626 1.394 . S
C1628 C1629 1.400 . S
C1629 H1621 0.931 . S
C1629 C1628 1.400 . S
C1629 C1630 1.375 . S
C1630 C1629 1.375 . S
C1630 C1631 1.415 . S
C1630 C1632 1.501 . S
C1631 H1622 0.931 . S
C1631 C1627 1.382 . S
C1631 C1630 1.415 . S
C1632 C1630 1.501 . S
C1632 C1633 1.384 . S
C1632 C1637 1.408 . S
C1633 H1623 0.930 . S
C1633 C1632 1.384 . S
C1633 C1634 1.389 . S
C1634 C1633 1.389 . S
C1634 C1635 1.405 . S
C1635 H1624 0.930 . S
C1635 C1634 1.405 . S
C1635 C1636 1.364 . S
C1636 C1635 1.364 . S
C1636 C1637 1.400 . S
C1637 H1625 0.931 . S
C1637 C1632 1.408 . S
C1637 C1636 1.400 . S
H1638 C1644 0.930 . S
H1639 C1647 0.931 . S
H1640 C1649 0.931 . S
H1641 C1651 0.930 . S
H1642 C1653 0.930 . S
H1643 C1655 0.931 . S
C1644 H1638 0.930 . S
C1644 C1645 1.380 . S
C1644 C1646 1.394 . S
C1645 C1644 1.380 . S
C1645 C1649 1.382 . S
C1646 C1644 1.394 . S
C1646 C1647 1.400 . S
C1647 H1639 0.931 . S
C1647 C1646 1.400 . S
C1647 C1648 1.375 . S
C1648 C1647 1.375 . S
C1648 C1649 1.415 . S
C1648 C1650 1.501 . S
C1649 H1640 0.931 . S
C1649 C1645 1.382 . S
C1649 C1648 1.415 . S
C1650 C1648 1.501 . S
C1650 C1651 1.384 . S
C1650 C1655 1.408 . S
C1651 H1641 0.930 . S
C1651 C1650 1.384 . S
C1651 C1652 1.389 . S
C1652 C1651 1.389 . S
C1652 C1653 1.405 . S
C1653 H1642 0.930 . S
C1653 C1652 1.405 . S
C1653 C1654 1.364 . S
C1654 C1653 1.364 . S
C1654 C1655 1.400 . S
C1655 H1643 0.931 . S
C1655 C1650 1.408 . S
C1655 C1654 1.400 . S
H1656 C1662 0.930 . S
H1657 C1665 0.931 . S
H1658 C1667 0.931 . S
H1659 C1669 0.930 . S
H1660 C1671 0.930 . S
H1661 C1673 0.931 . S
C1662 H1656 0.930 . S
C1662 C1663 1.380 . S
C1662 C1664 1.394 . S
C1663 C1662 1.380 . S
C1663 C1667 1.382 . S
C1664 C1662 1.394 . S
C1664 C1665 1.400 . S
C1665 H1657 0.931 . S
C1665 C1664 1.400 . S
C1665 C1666 1.375 . S
C1666 C1665 1.375 . S
C1666 C1667 1.415 . S
C1666 C1668 1.501 . S
C1667 H1658 0.931 . S
C1667 C1663 1.382 . S
C1667 C1666 1.415 . S
C1668 C1666 1.501 . S
C1668 C1669 1.384 . S
C1668 C1673 1.408 . S
C1669 H1659 0.930 . S
C1669 C1668 1.384 . S
C1669 C1670 1.389 . S
C1670 C1669 1.389 . S
C1670 C1671 1.405 . S
C1671 H1660 0.930 . S
C1671 C1670 1.405 . S
C1671 C1672 1.364 . S
C1672 C1671 1.364 . S
C1672 C1673 1.400 . S
C1673 H1661 0.931 . S
C1673 C1668 1.408 . S
C1673 C1672 1.400 . S
H1674 C1680 0.930 . S
H1675 C1683 0.931 . S
H1676 C1685 0.931 . S
H1677 C1687 0.930 . S
H1678 C1689 0.930 . S
H1679 C1691 0.931 . S
C1680 H1674 0.930 . S
C1680 C1681 1.380 . S
C1680 C1682 1.394 . S
C1681 C1680 1.380 . S
C1681 C1685 1.382 . S
C1682 C1680 1.394 . S
C1682 C1683 1.400 . S
C1683 H1675 0.931 . S
C1683 C1682 1.400 . S
C1683 C1684 1.375 . S
C1684 C1683 1.375 . S
C1684 C1685 1.415 . S
C1684 C1686 1.501 . S
C1685 H1676 0.931 . S
C1685 C1681 1.382 . S
C1685 C1684 1.415 . S
C1686 C1684 1.501 . S
C1686 C1687 1.384 . S
C1686 C1691 1.408 . S
C1687 H1677 0.930 . S
C1687 C1686 1.384 . S
C1687 C1688 1.389 . S
C1688 C1687 1.389 . S
C1688 C1689 1.405 . S
C1689 H1678 0.930 . S
C1689 C1688 1.405 . S
C1689 C1690 1.364 . S
C1690 C1689 1.364 . S
C1690 C1691 1.400 . S
C1691 H1679 0.931 . S
C1691 C1686 1.408 . S
C1691 C1690 1.400 . S
H1692 C1698 0.930 . S
H1693 C1701 0.931 . S
H1694 C1703 0.931 . S
H1695 C1705 0.930 . S
H1696 C1707 0.930 . S
H1697 C1709 0.931 . S
C1698 H1692 0.930 . S
C1698 C1699 1.380 . S
C1698 C1700 1.394 . S
C1699 C1698 1.380 . S
C1699 C1703 1.382 . S
C1700 C1698 1.394 . S
C1700 C1701 1.400 . S
C1701 H1693 0.931 . S
C1701 C1700 1.400 . S
C1701 C1702 1.375 . S
C1702 C1701 1.375 . S
C1702 C1703 1.415 . S
C1702 C1704 1.501 . S
C1703 H1694 0.931 . S
C1703 C1699 1.382 . S
C1703 C1702 1.415 . S
C1704 C1702 1.501 . S
C1704 C1705 1.384 . S
C1704 C1709 1.408 . S
C1705 H1695 0.930 . S
C1705 C1704 1.384 . S
C1705 C1706 1.389 . S
C1706 C1705 1.389 . S
C1706 C1707 1.405 . S
C1707 H1696 0.930 . S
C1707 C1706 1.405 . S
C1707 C1708 1.364 . S
C1708 C1707 1.364 . S
C1708 C1709 1.400 . S
C1709 H1697 0.931 . S
C1709 C1704 1.408 . S
C1709 C1708 1.400 . S
H1710 C1716 0.930 . S
H1711 C1719 0.931 . S
H1712 C1721 0.931 . S
H1713 C1723 0.930 . S
H1714 C1725 0.930 . S
H1715 C1727 0.931 . S
C1716 H1710 0.930 . S
C1716 C1717 1.380 . S
C1716 C1718 1.394 . S
C1717 C1716 1.380 . S
C1717 C1721 1.382 . S
C1718 C1716 1.394 . S
C1718 C1719 1.400 . S
C1719 H1711 0.931 . S
C1719 C1718 1.400 . S
C1719 C1720 1.375 . S
C1720 C1719 1.375 . S
C1720 C1721 1.415 . S
C1720 C1722 1.501 . S
C1721 H1712 0.931 . S
C1721 C1717 1.382 . S
C1721 C1720 1.415 . S
C1722 C1720 1.501 . S
C1722 C1723 1.384 . S
C1722 C1727 1.408 . S
C1723 H1713 0.930 . S
C1723 C1722 1.384 . S
C1723 C1724 1.389 . S
C1724 C1723 1.389 . S
C1724 C1725 1.405 . S
C1725 H1714 0.930 . S
C1725 C1724 1.405 . S
C1725 C1726 1.364 . S
C1726 C1725 1.364 . S
C1726 C1727 1.400 . S
C1727 H1715 0.931 . S
C1727 C1722 1.408 . S
C1727 C1726 1.400 . S
H1728 C1734 0.930 . S
H1729 C1737 0.931 . S
H1730 C1739 0.931 . S
H1731 C1741 0.930 . S
H1732 C1743 0.930 . S
H1733 C1745 0.931 . S
C1734 H1728 0.930 . S
C1734 C1735 1.380 . S
C1734 C1736 1.394 . S
C1735 C1734 1.380 . S
C1735 C1739 1.382 . S
C1736 C1734 1.394 . S
C1736 C1737 1.400 . S
C1737 H1729 0.931 . S
C1737 C1736 1.400 . S
C1737 C1738 1.375 . S
C1738 C1737 1.375 . S
C1738 C1739 1.415 . S
C1738 C1740 1.501 . S
C1739 H1730 0.931 . S
C1739 C1735 1.382 . S
C1739 C1738 1.415 . S
C1740 C1738 1.501 . S
C1740 C1741 1.384 . S
C1740 C1745 1.408 . S
C1741 H1731 0.930 . S
C1741 C1740 1.384 . S
C1741 C1742 1.389 . S
C1742 C1741 1.389 . S
C1742 C1743 1.405 . S
C1743 H1732 0.930 . S
C1743 C1742 1.405 . S
C1743 C1744 1.364 . S
C1744 C1743 1.364 . S
C1744 C1745 1.400 . S
C1745 H1733 0.931 . S
C1745 C1740 1.408 . S
C1745 C1744 1.400 . S
H1746 C1752 0.920 . S
H1747 C1755 0.931 . S
H1748 C1757 0.931 . S
H1749 C1759 0.930 . S
H1750 C1761 0.930 . S
H1751 C1763 0.928 . S
C1752 H1746 0.920 . S
C1752 C1753 1.389 . S
C1752 C1754 1.396 1_655 S
C1753 C1752 1.389 . S
C1753 C1757 1.382 . S
C1754 C1752 1.396 1_455 S
C1754 C1755 1.400 . S
C1755 H1747 0.931 . S
C1755 C1754 1.400 . S
C1755 C1756 1.375 . S
C1756 C1755 1.375 . S
C1756 C1757 1.415 1_455 S
C1756 C1758 1.501 . S
C1757 H1748 0.931 . S
C1757 C1753 1.382 . S
C1757 C1756 1.415 1_655 S
C1758 C1756 1.501 . S
C1758 C1759 1.384 . S
C1758 C1763 1.408 . S
C1759 H1749 0.930 . S
C1759 C1758 1.384 . S
C1759 C1760 1.389 . S
C1760 C1759 1.389 . S
C1760 C1761 1.405 . S
C1761 H1750 0.930 . S
C1761 C1760 1.405 . S
C1761 C1762 1.356 . S
C1762 C1761 1.356 . S
C1762 C1763 1.421 . S
C1763 H1751 0.928 . S
C1763 C1758 1.408 . S
C1763 C1762 1.421 . S
H1764 C1770 0.930 . S
H1765 C1773 0.931 . S
H1766 C1775 0.931 . S
H1767 C1777 0.930 . S
H1768 C1779 0.930 . S
H1769 C1781 0.931 . S
C1770 H1764 0.930 . S
C1770 C1771 1.380 . S
C1770 C1772 1.394 . S
C1771 C1770 1.380 . S
C1771 C1775 1.382 . S
C1772 C1770 1.394 . S
C1772 C1773 1.400 . S
C1773 H1765 0.931 . S
C1773 C1772 1.400 . S
C1773 C1774 1.375 . S
C1774 C1773 1.375 . S
C1774 C1775 1.415 . S
C1774 C1776 1.501 . S
C1775 H1766 0.931 . S
C1775 C1771 1.382 . S
C1775 C1774 1.415 . S
C1776 C1774 1.501 . S
C1776 C1777 1.384 . S
C1776 C1781 1.408 . S
C1777 H1767 0.930 . S
C1777 C1776 1.384 . S
C1777 C1778 1.389 . S
C1778 C1777 1.389 . S
C1778 C1779 1.405 . S
C1779 H1768 0.930 . S
C1779 C1778 1.405 . S
C1779 C1780 1.364 . S
C1780 C1779 1.364 . S
C1780 C1781 1.400 . S
C1781 H1769 0.931 . S
C1781 C1776 1.408 . S
C1781 C1780 1.400 . S
H1782 C1788 0.950 . S
H1783 C1791 0.931 . S
H1784 C1793 0.931 . S
H1785 C1795 0.930 . S
H1786 C1797 0.930 . S
H1787 C1799 0.936 . S
C1788 H1782 0.950 . S
C1788 C1789 1.376 . S
C1788 C1790 1.379 1_545 S
C1789 C1788 1.376 . S
C1789 C1793 1.382 . S
C1790 C1788 1.379 1_565 S
C1790 C1791 1.400 . S
C1791 H1783 0.931 . S
C1791 C1790 1.400 . S
C1791 C1792 1.375 . S
C1792 C1791 1.375 . S
C1792 C1793 1.415 1_565 S
C1792 C1794 1.501 . S
C1793 H1784 0.931 . S
C1793 C1789 1.382 . S
C1793 C1792 1.415 1_545 S
C1794 C1792 1.501 . S
C1794 C1795 1.384 . S
C1794 C1799 1.408 . S
C1795 H1785 0.930 . S
C1795 C1794 1.384 . S
C1795 C1796 1.389 . S
C1796 C1795 1.389 . S
C1796 C1797 1.405 . S
C1797 H1786 0.930 . S
C1797 C1796 1.405 . S
C1797 C1798 1.364 . S
C1798 C1797 1.364 . S
C1798 C1799 1.400 . S
C1799 H1787 0.936 . S
C1799 C1794 1.408 . S
C1799 C1798 1.400 . S
H1800 C1806 0.915 . S
H1801 C1809 0.931 . S
H1802 C1811 0.927 . S
H1803 C1813 0.930 . S
H1804 C1815 0.930 . S
H1805 C1817 0.931 . S
C1806 H1800 0.915 . S
C1806 C1807 1.387 . S
C1806 C1808 1.413 1_545 S
C1807 C1806 1.387 . S
C1807 C1811 1.403 1_545 S
C1808 C1806 1.413 1_565 S
C1808 C1809 1.380 . S
C1809 H1801 0.931 . S
C1809 C1808 1.380 . S
C1809 C1810 1.375 . S
C1810 C1809 1.375 . S
C1810 C1811 1.408 . S
C1810 C1812 1.501 . S
C1811 H1802 0.927 . S
C1811 C1807 1.403 1_565 S
C1811 C1810 1.408 . S
C1812 C1810 1.501 . S
C1812 C1813 1.384 . S
C1812 C1817 1.408 1_565 S
C1813 H1803 0.930 . S
C1813 C1812 1.384 . S
C1813 C1814 1.389 . S
C1814 C1813 1.389 . S
C1814 C1815 1.405 . S
C1815 H1804 0.930 . S
C1815 C1814 1.405 . S
C1815 C1816 1.364 1_565 S
C1816 C1815 1.364 1_545 S
C1816 C1817 1.400 . S
C1817 H1805 0.931 . S
C1817 C1812 1.408 1_545 S
C1817 C1816 1.400 . S
H1818 C1824 0.957 . S
H1819 C1827 0.931 . S
H1820 C1829 0.934 . S
H1821 C1831 0.930 . S
H1822 C1833 0.930 . S
H1823 C1835 0.931 . S
C1824 H1818 0.957 . S
C1824 C1825 1.372 . S
C1824 C1826 1.372 1_655 S
C1825 C1824 1.372 . S
C1825 C1829 1.358 1_655 S
C1826 C1824 1.372 1_455 S
C1826 C1827 1.421 . S
C1827 H1819 0.931 . S
C1827 C1826 1.421 . S
C1827 C1828 1.375 . S
C1828 C1827 1.375 . S
C1828 C1829 1.424 . S
C1828 C1830 1.501 . S
C1829 H1820 0.934 . S
C1829 C1825 1.358 1_455 S
C1829 C1828 1.424 . S
C1830 C1828 1.501 . S
C1830 C1831 1.384 . S
C1830 C1835 1.408 1_455 S
C1831 H1821 0.930 . S
C1831 C1830 1.384 . S
C1831 C1832 1.389 . S
C1832 C1831 1.389 . S
C1832 C1833 1.405 . S
C1833 H1822 0.930 . S
C1833 C1832 1.405 . S
C1833 C1834 1.364 1_455 S
C1834 C1833 1.364 1_655 S
C1834 C1835 1.400 . S
C1835 H1823 0.931 . S
C1835 C1830 1.408 1_655 S
C1835 C1834 1.400 . S
H1836 C1842 0.930 . S
H1837 C1845 0.931 . S
H1838 C1847 0.931 . S
H1839 C1849 0.930 . S
H1840 C1851 0.930 . S
H1841 C1853 0.931 . S
C1842 H1836 0.930 . S
C1842 C1843 1.380 . S
C1842 C1844 1.394 . S
C1843 C1842 1.380 . S
C1843 C1847 1.382 . S
C1844 C1842 1.394 . S
C1844 C1845 1.400 . S
C1845 H1837 0.931 . S
C1845 C1844 1.400 . S
C1845 C1846 1.375 . S
C1846 C1845 1.375 . S
C1846 C1847 1.415 . S
C1846 C1848 1.501 . S
C1847 H1838 0.931 . S
C1847 C1843 1.382 . S
C1847 C1846 1.415 . S
C1848 C1846 1.501 . S
C1848 C1849 1.384 . S
C1848 C1853 1.408 . S
C1849 H1839 0.930 . S
C1849 C1848 1.384 . S
C1849 C1850 1.389 . S
C1850 C1849 1.389 . S
C1850 C1851 1.405 . S
C1851 H1840 0.930 . S
C1851 C1850 1.405 . S
C1851 C1852 1.364 . S
C1852 C1851 1.364 . S
C1852 C1853 1.400 . S
C1853 H1841 0.931 . S
C1853 C1848 1.408 . S
C1853 C1852 1.400 . S
H1854 C1860 0.930 . S
H1855 C1863 0.931 . S
H1856 C1865 0.931 . S
H1857 C1867 0.930 . S
H1858 C1869 0.930 . S
H1859 C1871 0.931 . S
C1860 H1854 0.930 . S
C1860 C1861 1.380 . S
C1860 C1862 1.394 . S
C1861 C1860 1.380 . S
C1861 C1865 1.382 . S
C1862 C1860 1.394 . S
C1862 C1863 1.400 . S
C1863 H1855 0.931 . S
C1863 C1862 1.400 . S
C1863 C1864 1.375 . S
C1864 C1863 1.375 . S
C1864 C1865 1.415 . S
C1864 C1866 1.501 . S
C1865 H1856 0.931 . S
C1865 C1861 1.382 . S
C1865 C1864 1.415 . S
C1866 C1864 1.501 . S
C1866 C1867 1.384 . S
C1866 C1871 1.408 . S
C1867 H1857 0.930 . S
C1867 C1866 1.384 . S
C1867 C1868 1.389 . S
C1868 C1867 1.389 . S
C1868 C1869 1.405 . S
C1869 H1858 0.930 . S
C1869 C1868 1.405 . S
C1869 C1870 1.364 . S
C1870 C1869 1.364 . S
C1870 C1871 1.400 . S
C1871 H1859 0.931 . S
C1871 C1866 1.408 . S
C1871 C1870 1.400 . S
H1872 C1878 0.930 . S
H1873 C1881 0.931 . S
H1874 C1883 0.931 . S
H1875 C1885 0.930 . S
H1876 C1887 0.930 . S
H1877 C1889 0.931 . S
C1878 H1872 0.930 . S
C1878 C1879 1.380 . S
C1878 C1880 1.394 . S
C1879 C1878 1.380 . S
C1879 C1883 1.382 . S
C1880 C1878 1.394 . S
C1880 C1881 1.400 . S
C1881 H1873 0.931 . S
C1881 C1880 1.400 . S
C1881 C1882 1.375 . S
C1882 C1881 1.375 . S
C1882 C1883 1.415 . S
C1882 C1884 1.501 . S
C1883 H1874 0.931 . S
C1883 C1879 1.382 . S
C1883 C1882 1.415 . S
C1884 C1882 1.501 . S
C1884 C1885 1.384 . S
C1884 C1889 1.408 . S
C1885 H1875 0.930 . S
C1885 C1884 1.384 . S
C1885 C1886 1.389 . S
C1886 C1885 1.389 . S
C1886 C1887 1.405 . S
C1887 H1876 0.930 . S
C1887 C1886 1.405 . S
C1887 C1888 1.364 . S
C1888 C1887 1.364 . S
C1888 C1889 1.400 . S
C1889 H1877 0.931 . S
C1889 C1884 1.408 . S
C1889 C1888 1.400 . S
H1890 C1896 0.930 . S
H1891 C1899 0.931 . S
H1892 C1901 0.931 . S
H1893 C1903 0.930 . S
H1894 C1905 0.930 . S
H1895 C1907 0.931 . S
C1896 H1890 0.930 . S
C1896 C1897 1.380 . S
C1896 C1898 1.394 . S
C1897 C1896 1.380 . S
C1897 C1901 1.382 . S
C1898 C1896 1.394 . S
C1898 C1899 1.400 . S
C1899 H1891 0.931 . S
C1899 C1898 1.400 . S
C1899 C1900 1.375 . S
C1900 C1899 1.375 . S
C1900 C1901 1.415 . S
C1900 C1902 1.501 . S
C1901 H1892 0.931 . S
C1901 C1897 1.382 . S
C1901 C1900 1.415 . S
C1902 C1900 1.501 . S
C1902 C1903 1.384 . S
C1902 C1907 1.408 . S
C1903 H1893 0.930 . S
C1903 C1902 1.384 . S
C1903 C1904 1.389 . S
C1904 C1903 1.389 . S
C1904 C1905 1.405 . S
C1905 H1894 0.930 . S
C1905 C1904 1.405 . S
C1905 C1906 1.364 . S
C1906 C1905 1.364 . S
C1906 C1907 1.400 . S
C1907 H1895 0.931 . S
C1907 C1902 1.408 . S
C1907 C1906 1.400 . S
C49 C1753 2.106 . S
C137 C1778 1.917 . S
C1789 C205 2.122 . S
C196 C1814 2.084 . S
C57 C1832 2.096 . S
C145 C1843 1.919 . S
C313 C1825 2.233 1_455 S
C1850 C401 2.000 . S
C1807 C489 2.213 1_545 S
C469 C1796 2.279 1_545 S
C1760 C293 2.260 1_455 S
C381 C1771 1.972 . S
C577 C1861 1.929 . S
C645 C1886 1.867 . S
C1897 C733 1.860 . S
C724 C1598 1.918 . S
C585 C1616 1.925 . S
C636 C1627 1.928 . S
C841 C1609 1.973 . S
C937 C1634 1.998 . S
C1591 C1025 1.974 . S
C1904 C988 1.997 . S
C1868 C821 1.912 . S
C1879 C900 1.887 . S
C1105 C1645 1.922 . S
C1193 C1670 1.929 . S
C1281 C1681 1.926 . S
C1289 C1706 1.929 . S
C1724 C1113 1.865 . S
C1735 C1201 1.860 . S
C1717 C1369 1.973 . S
C1742 C1457 1.906 . S
C1553 C1699 1.890 . S
C1688 C1516 1.997 . S
C1349 C1652 1.998 . S
C1663 C1437 1.974 . S
C1600 C29 1.770 . S
C117 C1618 1.551 . S
C1628 C225 1.748 . S
C1646 C233 1.724 . S
C1672 C20 1.795 . S
C1682 C108 1.506 . S
C321 C1690 1.852 . S
C409 C1654 1.643 . S
C497 C1664 1.956 . S
C460 C1610 1.909 . S
C1636 C284 1.893 . S
C372 C1592 1.714 . S
C1708 C557 1.544 . S
C665 C1726 1.520 . S
C753 C1736 1.497 . S
C1754 C761 1.215 . S
C548 C1780 1.520 . S
C673 C1790 1.216 . S
C849 C1798 1.253 . S
C929 C1762 1.249 . S
C1772 C1017 1.672 . S
C997 C1718 1.694 . S
C812 C1744 1.616 . S
C1700 C909 1.664 . S
C1816 C1085 1.225 . S
C1173 C1834 1.214 . S
C1261 C1844 1.475 . S
C1862 C1252 1.489 . S
C1888 C1076 1.537 . S
C1164 C1898 1.488 . S
C1377 C1906 1.636 . S
C1465 C1870 1.601 . S
C1880 C1545 1.675 . S
C1826 C1525 1.260 1_455 S
C1852 C1340 1.610 . S
C1428 C1808 1.285 1_545 S
