# Generated by pormake.
# Topology rtl, (3,6)-cn, num edge types: 1
# Building blocks:
#     Node 0, Type 0, BuildingBlock: MIDCAF_clean_linker_0, # of connection points: 3
#     Node 1, Type 0, BuildingBlock: MIDCAF_clean_linker_0, # of connection points: 3
#     Node 2, Type 0, BuildingBlock: MIDCAF_clean_linker_0, # of connection points: 3
#     Node 3, Type 0, BuildingBlock: MIDCAF_clean_linker_0, # of connection points: 3
#     Node 4, Type 1, BuildingBlock: KUMBUR_clean_sbu_1, # of connection points: 6
#     Node 5, Type 1, BuildingBlock: KUMBUR_clean_sbu_1, # of connection points: 6
#     Edge 6, Type (0, 1), BuildingBlock: UVAHIK_clean_linker_0, # of connection points: 2
#     Edge 7, Type (0, 1), BuildingBlock: UVAHIK_clean_linker_0, # of connection points: 2
#     Edge 8, Type (0, 1), BuildingBlock: UVAHIK_clean_linker_0, # of connection points: 2
#     Edge 9, Type (0, 1), BuildingBlock: UVAHIK_clean_linker_0, # of connection points: 2
#     Edge 10, Type (0, 1), BuildingBlock: UVAHIK_clean_linker_0, # of connection points: 2
#     Edge 11, Type (0, 1), BuildingBlock: UVAHIK_clean_linker_0, # of connection points: 2
#     Edge 12, Type (0, 1), BuildingBlock: UVAHIK_clean_linker_0, # of connection points: 2
#     Edge 13, Type (0, 1), BuildingBlock: UVAHIK_clean_linker_0, # of connection points: 2
#     Edge 14, Type (0, 1), BuildingBlock: UVAHIK_clean_linker_0, # of connection points: 2
#     Edge 15, Type (0, 1), BuildingBlock: UVAHIK_clean_linker_0, # of connection points: 2
#     Edge 16, Type (0, 1), BuildingBlock: UVAHIK_clean_linker_0, # of connection points: 2
#     Edge 17, Type (0, 1), BuildingBlock: UVAHIK_clean_linker_0, # of connection points: 2
# Relax obj value: 0.017
# Max RMSD: 0.084
# Mean RMSD: 0.052
data_MOF--net-rtl--node1-KUMBUR_clean_sbu_1--node2-MIDCAF_clean_linker_0--edge1-UVAHIK_clean_linker_0
_symmetry_space_group_name_H-M    P1
_symmetry_Int_Tables_number       1
_symmetry_cell_setting            triclinic
loop_
_symmetry_equiv_pos_as_xyz
'x, y, z'
_cell_length_a     48.889752
_cell_length_b     49.409533
_cell_length_c     42.610173
_cell_angle_alpha  81.873143
_cell_angle_beta   99.563278
_cell_angle_gamma 90.183764
loop_
_atom_site_label
_atom_site_type_symbol
_atom_site_fract_x
_atom_site_fract_y
_atom_site_fract_z
_atom_type_partial_charge
C0 C 0.19725 0.92394 0.09888 0.0
C1 C 0.2083 0.9116 0.13018 0.0
C2 C 0.22937 0.89149 0.13425 0.0
C3 C 0.23899 0.88373 0.10763 0.0
H4 H 0.29001 0.82615 0.0815 0.0
H5 H 0.32219 0.78749 0.08646 0.0
H6 H 0.31873 0.79996 0.9834 0.0
H7 H 0.28757 0.8388 0.97854 0.0
H8 H 0.23647 0.86871 0.93603 0.0
H9 H 0.21164 0.88413 0.88224 0.0
H10 H 0.17255 0.94929 0.91747 0.0
H11 H 0.1975 0.93387 0.97182 0.0
H12 H 0.19749 0.92588 0.04851 0.0
H13 H 0.18076 0.93926 0.0949 0.0
H14 H 0.23853 0.88182 0.15808 0.0
H15 H 0.25516 0.86809 0.11174 0.0
N16 N 0.25703 0.86688 0.05176 0.0
N17 N 0.25286 0.86936 0.99588 0.0
N18 N 0.22517 0.89791 0.01759 0.0
C19 C 0.2651 0.85811 0.0258 0.0
C20 C 0.23295 0.88922 0.99146 0.0
C21 C 0.23712 0.88688 0.04785 0.0
C22 C 0.28599 0.83558 0.0296 0.0
C23 C 0.29636 0.82082 0.05995 0.0
C24 C 0.31467 0.7985 0.06277 0.0
C25 C 0.32304 0.79046 0.03533 0.0
C26 C 0.31314 0.80569 0.00515 0.0
C27 C 0.29496 0.82793 0.00234 0.0
C28 C 0.21888 0.89992 0.95843 0.0
C29 C 0.22276 0.88645 0.93248 0.0
C30 C 0.2084 0.89517 0.9016 0.0
C31 C 0.18998 0.91774 0.89572 0.0
C32 C 0.18669 0.93184 0.92133 0.0
C33 C 0.20087 0.92292 0.95245 0.0
C34 C 0.22769 0.89581 0.07625 0.0
C35 C 0.20678 0.91613 0.07225 0.0
C36 C 0.5977 0.67464 0.49199 0.0
C37 C 0.61035 0.68236 0.46481 0.0
C38 C 0.63311 0.69987 0.46757 0.0
C39 C 0.64281 0.70955 0.49657 0.0
H40 H 0.68411 0.77496 0.53214 0.0
H41 H 0.72113 0.80798 0.532 0.0
H42 H 0.74226 0.78933 0.63526 0.0
H43 H 0.70497 0.75615 0.63562 0.0
H44 H 0.64459 0.73219 0.66686 0.0
H45 H 0.62934 0.71121 0.71652 0.0
H46 H 0.60183 0.64079 0.67147 0.0
H47 H 0.61648 0.66171 0.62174 0.0
H48 H 0.5972 0.67788 0.54148 0.0
H49 H 0.57992 0.66147 0.4907 0.0
H50 H 0.64377 0.70584 0.44742 0.0
H51 H 0.66045 0.72291 0.49769 0.0
N52 N 0.65987 0.73208 0.55549 0.0
N53 N 0.66077 0.73078 0.61089 0.0
N54 N 0.63167 0.70157 0.58208 0.0
C55 C 0.67003 0.74153 0.58347 0.0
C56 C 0.64152 0.7108 0.61034 0.0
C57 C 0.64071 0.71214 0.55452 0.0
C58 C 0.69158 0.76277 0.58389 0.0
C59 C 0.69648 0.77793 0.55491 0.0
C60 C 0.7176 0.79701 0.5548 0.0
C61 C 0.73458 0.80122 0.58361 0.0
C62 C 0.72957 0.78636 0.61268 0.0
C63 C 0.70813 0.76747 0.61286 0.0
C64 C 0.63184 0.6986 0.64033 0.0
C65 C 0.63521 0.71227 0.6675 0.0
C66 C 0.62638 0.70038 0.69585 0.0
C67 C 0.61455 0.67439 0.69774 0.0
C68 C 0.61107 0.66078 0.67063 0.0
C69 C 0.61938 0.67285 0.64214 0.0
C70 C 0.63018 0.70184 0.52374 0.0
C71 C 0.60754 0.68419 0.52112 0.0
C72 C 0.81549 0.08684 0.94505 0.0
C73 C 0.80338 0.09889 0.91397 0.0
C74 C 0.78132 0.11787 0.91068 0.0
C75 C 0.77205 0.12507 0.93775 0.0
H76 H 0.71641 0.178 0.96668 0.0
H77 H 0.68584 0.218 0.96333 0.0
H78 H 0.70546 0.21522 0.06624 0.0
H79 H 0.73544 0.17548 0.06995 0.0
H80 H 0.76411 0.12324 0.1115 0.0
H81 H 0.78841 0.10695 0.16531 0.0
H82 H 0.85199 0.06973 0.12519 0.0
H83 H 0.82736 0.08561 0.07105 0.0
H84 H 0.81627 0.08443 0.99562 0.0
H85 H 0.83276 0.07244 0.94861 0.0
H86 H 0.77116 0.12722 0.88713 0.0
H87 H 0.75523 0.13998 0.93423 0.0
N88 N 0.75602 0.14207 0.99468 0.0
N89 N 0.76062 0.13807 0.05074 0.0
N90 N 0.78751 0.10992 0.02758 0.0
C91 C 0.74848 0.15032 0.02122 0.0
C92 C 0.78005 0.11788 0.05423 0.0
C93 C 0.7755 0.12177 0.9977 0.0
C94 C 0.72859 0.17353 0.01856 0.0
C95 C 0.71403 0.18579 0.98861 0.0
C96 C 0.69648 0.2086 0.98666 0.0
C97 C 0.69356 0.21974 0.01452 0.0
C98 C 0.70762 0.20719 0.04438 0.0
C99 C 0.72475 0.18431 0.04642 0.0
C100 C 0.79389 0.10597 0.08687 0.0
C101 C 0.78319 0.11147 0.11403 0.0
C102 C 0.79719 0.10222 0.14495 0.0
C103 C 0.8223 0.08732 0.14955 0.0
C104 C 0.83258 0.081 0.12246 0.0
C105 C 0.81849 0.09019 0.09142 0.0
C106 C 0.78448 0.11335 0.96883 0.0
C107 C 0.80612 0.09391 0.9721 0.0
C108 C 0.41238 0.33147 0.55435 0.0
C109 C 0.40578 0.31805 0.58345 0.0
C110 C 0.39133 0.29341 0.58317 0.0
C111 C 0.3828 0.28296 0.55447 0.0
H112 H 0.3165 0.24358 0.51334 0.0
H113 H 0.2771 0.21349 0.51253 0.0
H114 H 0.28517 0.19815 0.41731 0.0
H115 H 0.32479 0.22889 0.41759 0.0
H116 H 0.35445 0.28191 0.37659 0.0
H117 H 0.36872 0.30454 0.32745 0.0
H118 H 0.4356 0.34261 0.3841 0.0
H119 H 0.42096 0.32073 0.43305 0.0
H120 H 0.40898 0.33198 0.50351 0.0
H121 H 0.42324 0.35062 0.55358 0.0
H122 H 0.38646 0.28213 0.60519 0.0
H123 H 0.37135 0.26414 0.55523 0.0
N124 N 0.3579 0.26742 0.49375 0.0
N125 N 0.35637 0.26861 0.43829 0.0
N126 N 0.38728 0.29638 0.46713 0.0
C127 C 0.34692 0.25841 0.46578 0.0
C128 C 0.37667 0.28759 0.43885 0.0
C129 C 0.37807 0.28632 0.4947 0.0
C130 C 0.32381 0.23884 0.46542 0.0
C131 C 0.31013 0.23381 0.49216 0.0
C132 C 0.28746 0.21663 0.49175 0.0
C133 C 0.2781 0.20372 0.46482 0.0
C134 C 0.29211 0.20792 0.43836 0.0
C135 C 0.31466 0.22556 0.43853 0.0
C136 C 0.38637 0.29966 0.40884 0.0
C137 C 0.37229 0.295 0.37858 0.0
C138 C 0.38055 0.3079 0.35036 0.0
C139 C 0.40317 0.32563 0.35178 0.0
C140 C 0.41771 0.32959 0.38207 0.0
C141 C 0.40938 0.31687 0.41021 0.0
C142 C 0.38878 0.29668 0.52528 0.0
C143 C 0.40407 0.32083 0.52559 0.0
Tb144 Tb 0.02257 0.97324 0.50524 0.0
C145 C 0.96195 0.08772 0.49788 0.0
N146 N 0.98688 0.07825 0.51501 0.0
C147 C 0.00656 0.12232 0.5034 0.0
C148 C 0.95838 0.11504 0.48277 0.0
C149 C 0.00909 0.0951 0.51815 0.0
C150 C 0.9811 0.13236 0.48568 0.0
C151 C 0.914 0.07873 0.47708 0.0
C152 C 0.94007 0.06969 0.49489 0.0
C153 C 0.91024 0.10606 0.46239 0.0
C154 C 0.93237 0.12414 0.46517 0.0
Tb155 Tb 0.98729 0.03423 0.5397 0.0
N156 N 0.94467 0.04313 0.50866 0.0
C157 C 0.89249 0.06003 0.47456 0.0
C158 C 0.92341 0.02517 0.50736 0.0
C159 C 0.89719 0.03318 0.48994 0.0
H160 H 0.02851 0.08794 0.53291 0.0
H161 H 0.88048 0.01874 0.48884 0.0
H162 H 0.98241 0.91916 0.51392 0.0
H163 H 0.13112 0.98814 0.54937 0.0
H164 H 0.92609 0.00494 0.52038 0.0
H165 H 0.87211 0.06618 0.46118 0.0
H166 H 0.08545 1.00073 0.51704 0.0
H167 H 0.02417 0.13563 0.50606 0.0
H168 H 0.89032 0.11338 0.44868 0.0
H169 H 0.92918 0.14511 0.45352 0.0
H170 H 0.9865 0.87246 0.54371 0.0
H171 H 0.9792 0.1535 0.47443 0.0
H172 H 0.13897 0.9425 0.58212 0.0
N173 N 0.02383 0.92948 0.53142 0.0
C174 C 0.04872 0.92043 0.54892 0.0
C175 C 0.00411 0.88582 0.54564 0.0
C176 C 0.05217 0.89372 0.56597 0.0
C177 C 0.00169 0.91251 0.52922 0.0
C178 C 0.02943 0.8764 0.56422 0.0
N179 N 0.06632 0.96401 0.53367 0.0
C180 C 0.08793 0.98145 0.53238 0.0
C181 C 0.09681 0.92977 0.56823 0.0
C182 C 0.07071 0.93824 0.55006 0.0
C183 C 0.11858 0.9482 0.56847 0.0
C184 C 0.11418 0.97404 0.55018 0.0
H185 H 0.03124 0.85571 0.57689 0.0
H186 H 0.08117 0.86478 0.5975 0.0
H187 H 0.12027 0.89634 0.59949 0.0
O188 O 0.04386 0.97774 0.46455 0.0
O189 O 0.02773 0.97154 0.55793 0.0
O190 O 0.02593 0.01627 0.56832 0.0
O191 O 0.01776 0.9431 0.47551 0.0
O192 O 0.03678 0.01533 0.49381 0.0
O193 O 0.03136 0.03794 0.53667 0.0
O194 O 0.96226 0.02976 0.57587 0.0
O195 O 0.98336 0.03689 0.48709 0.0
O196 O 0.98343 0.99196 0.47972 0.0
O197 O 0.98796 0.0648 0.56934 0.0
O198 O 0.97432 0.99194 0.55291 0.0
O199 O 0.97879 0.96984 0.50977 0.0
C200 C 0.03354 0.99037 0.57691 0.0
C201 C 0.03789 0.94253 0.4278 0.0
C202 C 0.05966 0.9406 0.38045 0.0
C203 C 0.04271 0.91861 0.37296 0.0
C204 C 0.02127 0.92044 0.41957 0.0
C205 C 0.02376 0.90859 0.39244 0.0
C206 C 0.05743 0.9525 0.4082 0.0
C207 C 0.04318 0.03491 0.51169 0.0
C208 C 0.03353 0.95491 0.45632 0.0
C209 C 0.07811 0.88522 0.58422 0.0
C210 C 0.10037 0.9032 0.58536 0.0
C211 C 0.97921 0.01788 0.46828 0.0
C212 C 0.97654 0.05233 0.62114 0.0
C213 C 0.95927 0.05377 0.67139 0.0
C214 C 0.98669 0.05509 0.68732 0.0
C215 C 0.00384 0.05368 0.63743 0.0
C216 C 0.95428 0.05255 0.63821 0.0
C217 C 0.00881 0.05516 0.67037 0.0
C218 C 0.96819 0.97185 0.53582 0.0
C219 C 0.97053 0.0525 0.58614 0.0
H220 H 0.04428 0.90902 0.35195 0.0
H221 H 0.00604 0.91233 0.43399 0.0
H222 H 0.01082 0.89164 0.3864 0.0
H223 H 0.07036 0.96954 0.41408 0.0
H224 H 0.99093 0.05653 0.7128 0.0
H225 H 0.02125 0.05393 0.62465 0.0
H226 H 0.93313 0.05187 0.62569 0.0
H227 H 0.02985 0.05652 0.68276 0.0
Tb228 Tb 0.47487 0.49155 0.99047 0.0
C229 C 0.59018 0.5388 0.0295 0.0
N230 N 0.58008 0.51476 0.04219 0.0
C231 C 0.62265 0.49156 0.04034 0.0
C232 C 0.61683 0.53995 0.02092 0.0
C233 C 0.59599 0.49136 0.04825 0.0
C234 C 0.63308 0.51593 0.02651 0.0
C235 C 0.58266 0.58719 0.00986 0.0
C236 C 0.57323 0.56215 0.02404 0.0
C237 C 0.60921 0.58843 1.00126 0.0
C238 C 0.62626 0.56491 0.00684 0.0
Tb239 Tb 0.53694 0.51752 0.05509 0.0
N240 N 0.54738 0.56014 0.03214 0.0
C241 C 0.56514 0.61027 0.00483 0.0
C242 C 0.53091 0.58293 0.02891 0.0
C243 C 0.53928 0.60817 0.01469 0.0
H244 H 0.58844 0.47259 0.05968 0.0
H245 H 0.52595 0.6261 0.01184 0.0
H246 H 0.42459 0.53909 0.98417 0.0
H247 H 0.47403 0.38159 0.01304 0.0
H248 H 0.51179 0.58213 0.03815 0.0
H249 H 0.57159 0.6299 0.99395 0.0
H250 H 0.49383 0.4266 0.99799 0.0
H251 H 0.63518 0.47295 0.04507 0.0
H252 H 0.61678 0.60751 0.99032 0.0
H253 H 0.64668 0.56621 1.00006 0.0
H254 H 0.37673 0.54051 0.9945 0.0
H255 H 0.65371 0.51599 0.02034 0.0
H256 H 0.42631 0.3788 0.02548 0.0
N257 N 0.43037 0.4962 0.99966 0.0
C258 C 0.41758 0.47235 0.00781 0.0
C259 C 0.38813 0.52123 0.99885 0.0
C260 C 0.38977 0.4721 0.01276 0.0
C261 C 0.41566 0.52041 0.99385 0.0
C262 C 0.37521 0.49701 0.00867 0.0
N263 N 0.45875 0.44908 0.00463 0.0
C264 C 0.47344 0.42565 0.00445 0.0
C265 C 0.41962 0.42273 0.01776 0.0
C266 C 0.43213 0.44797 0.00999 0.0
C267 C 0.4351 0.39862 0.01938 0.0
C268 C 0.46208 0.4001 0.01249 0.0
H269 H 0.35378 0.49769 0.01217 0.0
H270 H 0.35593 0.44642 0.02497 0.0
H271 H 0.38219 0.4032 0.02964 0.0
O272 O 0.48352 0.47619 0.94843 0.0
O273 O 0.47865 0.47037 0.04017 0.0
O274 O 0.50216 0.4982 0.07512 0.0
O275 O 0.44518 0.49843 0.94901 0.0
O276 O 0.51662 0.47316 0.99748 0.0
O277 O 0.53681 0.47373 0.05089 0.0
O278 O 0.54577 0.543 0.09129 0.0
O279 O 0.54063 0.51875 0.00401 0.0
O280 O 0.49647 0.52937 0.97834 0.0
O281 O 0.56348 0.50164 0.09801 0.0
O282 O 0.49555 0.53548 0.05285 0.0
O283 O 0.47381 0.53367 1.00079 0.0
C284 C 0.48546 0.47797 0.06883 0.0
C285 C 0.44962 0.48541 0.89802 0.0
C286 C 0.44506 0.4631 0.85009 0.0
C287 C 0.42822 0.485 0.83285 0.0
C288 C 0.43259 0.50711 0.88036 0.0
C289 C 0.42204 0.50688 0.84795 0.0
C290 C 0.45588 0.46329 0.88276 0.0
C291 C 0.53275 0.46228 0.02429 0.0
C292 C 0.45965 0.48579 0.9325 0.0
C293 C 0.37725 0.44701 0.02094 0.0
C294 C 0.39216 0.42239 0.02351 0.0
C295 C 0.52331 0.53064 0.97908 0.0
C296 C 0.57565 0.52792 0.14262 0.0
C297 C 0.57812 0.54796 0.19229 0.0
C298 C 0.60139 0.53114 0.20588 0.0
C299 C 0.59906 0.5115 0.15675 0.0
C300 C 0.56545 0.54665 0.16032 0.0
C301 C 0.61189 0.51324 0.18812 0.0
C302 C 0.47524 0.54255 0.02867 0.0
C303 C 0.56132 0.52409 0.11025 0.0
H304 H 0.41961 0.48496 0.80771 0.0
H305 H 0.4274 0.5243 0.89165 0.0
H306 H 0.40889 0.52362 0.83454 0.0
H307 H 0.4686 0.44623 0.89622 0.0
H308 H 0.61155 0.53196 0.23034 0.0
H309 H 0.60736 0.49712 0.14358 0.0
H310 H 0.54728 0.55935 0.14982 0.0
H311 H 0.6299 0.50045 0.19884 0.0
C312 C 0.22847 0.19785 0.47039 0.0
C313 C 0.25313 0.18672 0.46444 0.0
C314 C 0.20537 0.18156 0.47293 0.0
C315 C 0.17565 0.11369 0.45879 0.0
H316 H 0.13122 0.12984 0.52144 0.0
C317 C 0.07347 0.05758 0.47418 0.0
C318 C 0.06655 0.05269 0.50515 0.0
C319 C 0.09609 0.07378 0.46826 0.0
C320 C 0.14353 0.1247 0.50413 0.0
H321 H 0.27301 0.15008 0.45576 0.0
H322 H 0.23292 0.12108 0.46139 0.0
H323 H 0.17106 0.15731 0.51306 0.0
H324 H 0.07834 0.06016 0.55443 0.0
H325 H 0.11821 0.08756 0.54452 0.0
H326 H 0.14885 0.08006 0.45122 0.0
C327 C 0.23108 0.14259 0.46333 0.0
C328 C 0.16621 0.14089 0.49883 0.0
C329 C 0.25411 0.15911 0.4602 0.0
C330 C 0.08286 0.06402 0.53017 0.0
C331 C 0.10571 0.07984 0.5244 0.0
C332 C 0.15314 0.09718 0.46446 0.0
C333 C 0.20651 0.15352 0.47027 0.0
C334 C 0.1825 0.1358 0.47591 0.0
C335 C 0.11259 0.08511 0.49332 0.0
C336 C 0.1367 0.10252 0.48717 0.0
H337 H 0.22715 0.2192 0.47336 0.0
H338 H 0.18666 0.19101 0.47726 0.0
H339 H 0.1875 0.10921 0.44075 0.0
H340 H 0.06123 0.04908 0.45443 0.0
H341 H 0.10038 0.07768 0.44393 0.0
C342 C 0.3376 0.74199 0.05913 0.0
C343 C 0.34106 0.76571 0.0377 0.0
C344 C 0.35305 0.71812 0.05956 0.0
C345 C 0.38656 0.68186 0.00765 0.0
H346 H 0.42679 0.64119 0.08607 0.0
C347 C 0.45477 0.5881 0.00353 0.0
C348 C 0.45874 0.56715 0.02983 0.0
C349 C 0.44085 0.61233 0.00518 0.0
C350 C 0.41524 0.65188 0.06394 0.0
H351 H 0.36457 0.78305 1.00097 0.0
H352 H 0.39084 0.7411 1.00114 0.0
H353 H 0.40194 0.68334 0.08831 0.0
H354 H 0.45094 0.55455 0.07815 0.0
H355 H 0.42475 0.59599 0.08043 0.0
H356 H 0.39838 0.65014 0.98323 0.0
C357 C 0.37602 0.7411 0.01744 0.0
C358 C 0.40121 0.67621 0.06529 0.0
C359 C 0.36088 0.76507 0.0173 0.0
C360 C 0.4481 0.57054 0.05761 0.0
C361 C 0.43338 0.59448 0.05894 0.0
C362 C 0.4 0.65723 0.00634 0.0
C363 C 0.37205 0.71733 0.03834 0.0
C364 C 0.38693 0.69152 0.03712 0.0
C365 C 0.42976 0.61591 0.03285 0.0
C366 C 0.41477 0.64191 0.03444 0.0
H367 H 0.32228 0.74154 0.07484 0.0
H368 H 0.34946 0.69997 0.07572 0.0
H369 H 0.37535 0.69311 0.98561 0.0
H370 H 0.46333 0.58615 0.98205 0.0
H371 H 0.43937 0.62842 0.98488 0.0
C372 C 0.7847 0.81224 0.59926 0.0
C373 C 0.758 0.82037 0.58289 0.0
C374 C 0.80725 0.82936 0.59621 0.0
C375 C 0.82865 0.88835 0.5419 0.0
H376 H 0.89105 0.88903 0.61103 0.0
C377 C 0.93073 0.93947 0.51934 0.0
C378 C 0.9451 0.95376 0.54304 0.0
C379 C 0.90821 0.92334 0.52551 0.0
C380 C 0.87368 0.88933 0.59155 0.0
H381 H 0.7337 0.85328 0.55182 0.0
H382 H 0.77274 0.88354 0.54729 0.0
H383 H 0.85065 0.86205 0.62042 0.0
H384 H 0.9469 0.96247 0.59178 0.0
H385 H 0.90712 0.93478 0.60236 0.0
H386 H 0.85118 0.9163 0.51335 0.0
C387 C 0.77658 0.8636 0.56164 0.0
C388 C 0.85061 0.87353 0.59681 0.0
C389 C 0.75413 0.84634 0.56436 0.0
C390 C 0.93636 0.95159 0.57307 0.0
C391 C 0.91366 0.93555 0.5792 0.0
C392 C 0.85155 0.9043 0.53674 0.0
C393 C 0.80357 0.85515 0.57701 0.0
C394 C 0.82783 0.8727 0.57198 0.0
C395 C 0.89918 0.92134 0.5554 0.0
C396 C 0.8745 0.90483 0.56139 0.0
H397 H 0.78833 0.79221 0.61345 0.0
H398 H 0.8277 0.82193 0.60807 0.0
H399 H 0.81178 0.88798 0.52199 0.0
H400 H 0.9366 0.94102 0.49574 0.0
H401 H 0.8979 0.91239 0.50675 0.0
C402 C 0.6489 0.24696 0.99793 0.0
C403 C 0.67679 0.24498 0.01284 0.0
C404 C 0.6328 0.27021 0.99864 0.0
C405 C 0.63247 0.33052 0.04271 0.0
H406 H 0.57337 0.35657 0.9726 0.0
C407 C 0.55874 0.41932 0.05147 0.0
C408 C 0.54903 0.43731 0.0233 0.0
C409 C 0.57356 0.39543 0.05011 0.0
C410 C 0.59002 0.34984 0.99227 0.0
H411 H 0.71016 0.26604 0.0388 0.0
H412 H 0.68273 0.30698 0.03882 0.0
H413 H 0.60122 0.31684 0.96912 0.0
H414 H 0.5476 0.44468 0.97165 0.0
H415 H 0.57427 0.40385 0.96937 0.0
H416 H 0.62233 0.3643 0.0651 0.0
C417 C 0.6727 0.29032 0.02773 0.0
C418 C 0.60576 0.32666 0.9905 0.0
C419 C 0.68856 0.26695 0.0275 0.0
C420 C 0.55463 0.43109 0.9938 0.0
C421 C 0.56978 0.40749 0.99247 0.0
C422 C 0.61706 0.35392 0.04424 0.0
C423 C 0.64443 0.29215 0.01383 0.0
C424 C 0.62729 0.31669 0.01567 0.0
C425 C 0.57938 0.3892 0.02058 0.0
C426 C 0.5956 0.36396 0.01906 0.0
H427 H 0.63933 0.23017 0.98664 0.0
H428 H 0.61108 0.27062 0.98799 0.0
H429 H 0.64843 0.32325 0.06294 0.0
H430 H 0.55448 0.42345 0.07451 0.0
H431 H 0.5801 0.3817 0.07223 0.0
C432 C 0.19184 0.94678 0.16047 0.0
C433 C 0.19745 0.91927 0.15838 0.0
C434 C 0.18093 0.95387 0.18662 0.0
C435 C 0.16835 0.92578 0.26923 0.0
H436 H 0.11269 0.984 0.25253 0.0
C437 C 0.10801 0.94709 0.36863 0.0
C438 C 0.07925 0.95026 0.35846 0.0
C439 C 0.12597 0.94909 0.34594 0.0
C440 C 0.12815 0.96763 0.25768 0.0
H441 H 0.1958 0.87762 0.18202 0.0
H442 H 0.17622 0.88979 0.2271 0.0
H443 H 0.13644 0.9743 0.20957 0.0
H444 H 0.04681 0.95986 0.31717 0.0
H445 H 0.07767 0.96316 0.27778 0.0
H446 H 0.15865 0.91787 0.31671 0.0
C447 C 0.18094 0.90608 0.20912 0.0
C448 C 0.14211 0.96227 0.23305 0.0
C449 C 0.19209 0.89904 0.18314 0.0
C450 C 0.06895 0.95749 0.32558 0.0
C451 C 0.08677 0.95944 0.303 0.0
C452 C 0.15413 0.93092 0.29376 0.0
C453 C 0.1751 0.9336 0.21121 0.0
C454 C 0.16202 0.9409 0.23827 0.0
C455 C 0.11543 0.95427 0.31272 0.0
C456 C 0.13339 0.95153 0.28814 0.0
H457 H 0.19608 0.96289 0.14198 0.0
H458 H 0.1772 0.9753 0.18756 0.0
H459 H 0.18397 0.90956 0.27446 0.0
H460 H 0.11639 0.94126 0.39386 0.0
H461 H 0.14797 0.94548 0.35438 0.0
C462 C 0.58814 0.67408 0.74351 0.0
C463 C 0.60644 0.661 0.72809 0.0
C464 C 0.57971 0.66076 0.77146 0.0
C465 C 0.5785 0.59093 0.81906 0.0
H466 H 0.56001 0.63191 0.88413 0.0
C467 C 0.56028 0.54057 0.94505 0.0
C468 C 0.53417 0.54686 0.95212 0.0
C469 C 0.56994 0.55527 0.91867 0.0
C470 C 0.56513 0.62028 0.86608 0.0
H471 H 0.63113 0.62433 0.73022 0.0
H472 H 0.61777 0.60162 0.77969 0.0
H473 H 0.57568 0.65609 0.83648 0.0
H474 H 0.49821 0.57411 0.93808 0.0
H475 H 0.51548 0.60027 0.89242 0.0
H476 H 0.5688 0.55507 0.84952 0.0
C477 C 0.60879 0.62162 0.76975 0.0
C478 C 0.57389 0.6341 0.83859 0.0
C479 C 0.6167 0.6347 0.74149 0.0
C480 C 0.51829 0.56866 0.93297 0.0
C481 C 0.52822 0.58373 0.90703 0.0
C482 C 0.57034 0.57713 0.84685 0.0
C483 C 0.58986 0.63425 0.785 0.0
C484 C 0.58064 0.61964 0.81457 0.0
C485 C 0.55393 0.57691 0.89936 0.0
C486 C 0.56348 0.59166 0.87053 0.0
H487 H 0.57982 0.69434 0.73345 0.0
H488 H 0.56479 0.6711 0.782 0.0
H489 H 0.58271 0.57898 0.80092 0.0
H490 H 0.57294 0.52388 0.95946 0.0
H491 H 0.5899 0.54975 0.91329 0.0
C492 C 0.84052 0.09795 0.20491 0.0
C493 C 0.83817 0.07941 0.18247 0.0
C494 C 0.85578 0.09093 0.23572 0.0
C495 C 0.91079 0.04305 0.2822 0.0
H496 H 0.88494 0.06659 0.35548 0.0
C497 C 0.95921 0.00515 0.41451 0.0
C498 C 0.96458 0.0253 0.43485 0.0
C499 C 0.94435 0.01172 0.3834 0.0
C500 C 0.89249 0.06008 0.33517 0.0
H501 H 0.84971 0.03877 0.17502 0.0
H502 H 0.87622 0.02637 0.22897 0.0
H503 H 0.85709 0.07732 0.30204 0.0
H504 H 0.95989 0.06854 0.43751 0.0
H505 H 0.93288 0.07969 0.38381 0.0
H506 H 0.94596 0.02538 0.31565 0.0
C507 C 0.86662 0.04655 0.22253 0.0
C508 C 0.8766 0.06626 0.30455 0.0
C509 C 0.85139 0.05362 0.19162 0.0
C510 C 0.95539 0.05232 0.42301 0.0
C511 C 0.94003 0.05877 0.39215 0.0
C512 C 0.92653 0.03664 0.31288 0.0
C513 C 0.86906 0.06516 0.24493 0.0
C514 C 0.88562 0.05794 0.27764 0.0
C515 C 0.93427 0.0385 0.37212 0.0
C516 C 0.91759 0.04521 0.33961 0.0
H517 H 0.83102 0.11818 0.19846 0.0
H518 H 0.85762 0.10597 0.2521 0.0
H519 H 0.91861 0.03672 0.26198 0.0
H520 H 0.96631 0.98419 0.42265 0.0
H521 H 0.9402 0.99571 0.36842 0.0
C522 C 0.3944 0.32808 0.63594 0.0
C523 C 0.41295 0.33004 0.61384 0.0
C524 C 0.40081 0.3392 0.6645 0.0
C525 C 0.45897 0.36602 0.7189 0.0
H526 H 0.39841 0.39933 0.74913 0.0
C527 C 0.46908 0.44226 0.81216 0.0
C528 C 0.44986 0.43994 0.83337 0.0
C529 C 0.46823 0.42445 0.78929 0.0
C530 C 0.41548 0.38971 0.7413 0.0
H531 H 0.45295 0.34534 0.60466 0.0
H532 H 0.4636 0.36588 0.65395 0.0
H533 H 0.38916 0.37887 0.70006 0.0
H534 H 0.41582 0.41665 0.84899 0.0
H535 H 0.41429 0.38534 0.80903 0.0
H536 H 0.48539 0.37825 0.7598 0.0
C537 C 0.44435 0.35509 0.6495 0.0
C538 C 0.4102 0.37794 0.71312 0.0
C539 C 0.43805 0.34364 0.62099 0.0
C540 C 0.43105 0.41849 0.83304 0.0
C541 C 0.43003 0.40082 0.81004 0.0
C542 C 0.46431 0.37819 0.74699 0.0
C543 C 0.42575 0.35306 0.67159 0.0
C544 C 0.4318 0.36579 0.70158 0.0
C545 C 0.44782 0.4044 0.78709 0.0
C546 C 0.44255 0.39001 0.75851 0.0
H547 H 0.37465 0.31821 0.63107 0.0
H548 H 0.38613 0.33682 0.68108 0.0
H549 H 0.47607 0.3566 0.71094 0.0
H550 H 0.48344 0.45902 0.81182 0.0
H551 H 0.48207 0.42776 0.77178 0.0
C552 C 0.59996 0.68905 0.40427 0.0
C553 C 0.60012 0.67209 0.43377 0.0
C554 C 0.59147 0.67912 0.37512 0.0
C555 C 0.55291 0.6233 0.33874 0.0
H556 H 0.60046 0.6383 0.27431 0.0
C557 C 0.56 0.55498 0.24183 0.0
C558 C 0.56767 0.56629 0.21251 0.0
C559 C 0.5571 0.57147 0.26518 0.0
C560 C 0.5865 0.63438 0.29161 0.0
H561 H 0.59117 0.63131 0.45548 0.0
H562 H 0.57614 0.61411 0.40468 0.0
H563 H 0.60944 0.65991 0.32274 0.0
H564 H 0.57628 0.60389 0.18348 0.0
H565 H 0.57089 0.63304 0.22424 0.0
H566 H 0.53037 0.59722 0.3079 0.0
C567 C 0.58232 0.63522 0.40414 0.0
C568 C 0.59175 0.64672 0.31952 0.0
C569 C 0.59096 0.6451 0.43331 0.0
C570 C 0.57024 0.59474 0.20588 0.0
C571 C 0.56747 0.61131 0.22937 0.0
C572 C 0.54758 0.61102 0.31074 0.0
C573 C 0.58274 0.65202 0.37469 0.0
C574 C 0.5754 0.64088 0.34374 0.0
C575 C 0.56199 0.59969 0.25981 0.0
C576 C 0.56471 0.61591 0.28712 0.0
H577 H 0.60632 0.7101 0.40363 0.0
H578 H 0.5917 0.6927 0.35287 0.0
H579 H 0.53962 0.61875 0.35669 0.0
H580 H 0.55798 0.53306 0.24747 0.0
H581 H 0.55302 0.5617 0.28828 0.0
C582 C 0.82404 0.06597 0.88374 0.0
C583 C 0.81442 0.09249 0.88525 0.0
C584 C 0.83582 0.06048 0.85749 0.0
C585 C 0.8687 0.09636 0.79113 0.0
H586 H 0.86244 0.02619 0.75996 0.0
C587 C 0.9172 0.07686 0.68249 0.0
C588 C 0.93614 0.05468 0.68958 0.0
C589 C 0.89819 0.08001 0.70296 0.0
C590 C 0.86424 0.04589 0.76841 0.0
H591 H 0.80938 0.13392 0.85986 0.0
H592 H 0.82855 0.12414 0.81366 0.0
H593 H 0.83716 0.0349 0.80264 0.0
H594 H 0.949 0.01748 0.72196 0.0
H595 H 0.91526 0.02258 0.75741 0.0
H596 H 0.89559 0.10737 0.75679 0.0
C597 C 0.82769 0.10764 0.83309 0.0
C598 C 0.84996 0.05086 0.793 0.0
C599 C 0.81623 0.11318 0.85945 0.0
C600 C 0.9346 0.03478 0.71618 0.0
C601 C 0.91526 0.03764 0.7363 0.0
C602 C 0.88257 0.09155 0.76631 0.0
C603 C 0.83808 0.08134 0.83195 0.0
C604 C 0.8522 0.07612 0.80487 0.0
C605 C 0.89752 0.06076 0.73049 0.0
C606 C 0.88068 0.06622 0.75487 0.0
H607 H 0.82263 0.04941 0.90295 0.0
H608 H 0.84379 0.04003 0.85768 0.0
H609 H 0.87159 0.11579 0.80009 0.0
H610 H 0.9181 0.09248 0.66212 0.0
H611 H 0.8846 0.09793 0.69788 0.0
C612 C 0.41968 0.36783 0.32083 0.0
C613 C 0.41119 0.34053 0.32191 0.0
C614 C 0.42739 0.38193 0.29298 0.0
C615 C 0.41911 0.38319 0.20552 0.0
H616 H 0.48532 0.4268 0.21342 0.0
C617 C 0.46378 0.43597 0.09475 0.0
C618 C 0.47519 0.46197 0.09665 0.0
C619 C 0.45537 0.42065 0.12163 0.0
C620 C 0.46656 0.41504 0.21075 0.0
H621 H 0.40425 0.30668 0.29438 0.0
H622 H 0.41737 0.33153 0.24551 0.0
H623 H 0.47181 0.40113 0.26133 0.0
H624 H 0.48636 0.4923 0.12855 0.0
H625 H 0.47156 0.46591 0.175 0.0
H626 H 0.41359 0.39745 0.15498 0.0
C627 C 0.41789 0.34198 0.26629 0.0
C628 C 0.45888 0.40025 0.23825 0.0
C629 C 0.41034 0.32778 0.29427 0.0
C630 C 0.47778 0.47232 0.12608 0.0
C631 C 0.46942 0.45707 0.15289 0.0
C632 C 0.42668 0.39817 0.17797 0.0
C633 C 0.42662 0.36916 0.26542 0.0
C634 C 0.43502 0.38427 0.23597 0.0
C635 C 0.45834 0.43093 0.15116 0.0
C636 C 0.45043 0.41443 0.18026 0.0
H637 H 0.42001 0.37852 0.34139 0.0
H638 H 0.43358 0.403 0.29288 0.0
H639 H 0.40045 0.37126 0.20308 0.0
H640 H 0.4621 0.42703 0.07284 0.0
H641 H 0.44727 0.40045 0.11948 0.0
C642 C 0.16044 0.90569 0.84602 0.0
C643 C 0.17367 0.92575 0.86309 0.0
C644 C 0.14548 0.91283 0.81507 0.0
C645 C 0.13847 0.96645 0.74458 0.0
H646 H 0.06801 0.93245 0.72004 0.0
C647 C 0.06415 0.00265 0.62577 0.0
C648 C 0.05079 0.9825 0.6089 0.0
C649 C 0.07991 0.99552 0.6563 0.0
C650 C 0.08782 0.94186 0.7264 0.0
H651 H 0.18157 0.96907 0.86118 0.0
H652 H 0.15528 0.98167 0.80689 0.0
H653 H 0.09337 0.92106 0.77467 0.0
H654 H 0.04371 0.93898 0.61083 0.0
H655 H 0.07148 0.92649 0.66409 0.0
H656 H 0.1328 0.98735 0.69628 0.0
C657 C 0.15664 0.96035 0.81747 0.0
C658 C 0.10233 0.93538 0.75771 0.0
C659 C 0.17147 0.95321 0.84862 0.0
C660 C 0.05384 0.95499 0.6231 0.0
C661 C 0.06955 0.94785 0.65373 0.0
C662 C 0.12392 0.97296 0.71325 0.0
C663 C 0.14349 0.94021 0.80034 0.0
C664 C 0.12784 0.94757 0.76718 0.0
C665 C 0.08261 0.96807 0.67076 0.0
C666 C 0.09843 0.96073 0.70381 0.0
H667 H 0.16155 0.88439 0.8567 0.0
H668 H 0.13582 0.89679 0.80247 0.0
H669 H 0.15827 0.97588 0.75096 0.0
H670 H 0.06243 0.02402 0.61543 0.0
H671 H 0.0895 0.0116 0.66888 0.0
loop_
_geom_bond_atom_site_label_1
_geom_bond_atom_site_label_2
_geom_bond_distance
_geom_bond_site_symmetry_2
_ccdc_geom_bond_type
C0 C1 1.384 . S
C0 H13 0.947 . S
C0 C35 1.382 . S
C1 C0 1.384 . S
C1 C2 1.378 . S
C2 C1 1.378 . S
C2 C3 1.378 . S
C2 H14 0.952 . S
C3 C2 1.378 . S
C3 H15 0.950 . S
C3 C34 1.383 . S
H4 C23 0.947 . S
H5 C24 0.946 . S
H6 C26 0.953 1_556 S
H7 C27 0.945 . S
H8 C29 0.952 . S
H9 C30 0.949 . S
H10 C32 0.950 . S
H11 C33 0.948 . S
H12 C35 0.951 . S
H13 C0 0.947 . S
H14 C2 0.952 . S
H15 C3 0.950 . S
N16 C19 1.382 . S
N16 C21 1.363 . S
N17 C19 1.371 1_556 S
N17 C20 1.372 . S
N18 C20 1.361 1_554 S
N18 C21 1.377 . S
C19 N16 1.382 . S
C19 N17 1.371 1_554 S
C19 C22 1.480 . S
C20 N17 1.372 . S
C20 N18 1.361 1_556 S
C20 C28 1.457 . S
C21 N16 1.363 . S
C21 N18 1.377 . S
C21 C34 1.479 . S
C22 C19 1.480 . S
C22 C23 1.383 . S
C22 C27 1.385 1_554 S
C23 H4 0.947 . S
C23 C22 1.383 . S
C23 C24 1.388 . S
C24 H5 0.946 . S
C24 C23 1.388 . S
C24 C25 1.384 . S
C25 C24 1.384 . S
C25 C26 1.377 . S
C26 H6 0.953 1_554 S
C26 C25 1.377 . S
C26 C27 1.369 1_554 S
C27 H7 0.945 . S
C27 C22 1.385 1_556 S
C27 C26 1.369 1_556 S
C28 C20 1.457 . S
C28 C29 1.372 . S
C28 C33 1.364 . S
C29 H8 0.952 . S
C29 C28 1.372 . S
C29 C30 1.389 . S
C30 H9 0.949 . S
C30 C29 1.389 . S
C30 C31 1.387 . S
C31 C30 1.387 . S
C31 C32 1.372 . S
C32 H10 0.950 . S
C32 C31 1.372 . S
C32 C33 1.379 . S
C33 H11 0.948 . S
C33 C28 1.364 . S
C33 C32 1.379 . S
C34 C3 1.383 . S
C34 C21 1.479 . S
C34 C35 1.398 . S
C35 C0 1.382 . S
C35 H12 0.951 . S
C35 C34 1.398 . S
C36 C37 1.384 . S
C36 H49 0.947 . S
C36 C71 1.382 . S
C37 C36 1.384 . S
C37 C38 1.378 . S
C38 C37 1.378 . S
C38 C39 1.378 . S
C38 H50 0.952 . S
C39 C38 1.378 . S
C39 H51 0.950 . S
C39 C70 1.383 . S
H40 C59 0.947 . S
H41 C60 0.946 . S
H42 C62 0.953 . S
H43 C63 0.945 . S
H44 C65 0.952 . S
H45 C66 0.949 . S
H46 C68 0.950 . S
H47 C69 0.948 . S
H48 C71 0.951 . S
H49 C36 0.947 . S
H50 C38 0.952 . S
H51 C39 0.950 . S
N52 C55 1.382 . S
N52 C57 1.363 . S
N53 C55 1.371 . S
N53 C56 1.372 . S
N54 C56 1.361 . S
N54 C57 1.377 . S
C55 N52 1.382 . S
C55 N53 1.371 . S
C55 C58 1.480 . S
C56 N53 1.372 . S
C56 N54 1.361 . S
C56 C64 1.457 . S
C57 N52 1.363 . S
C57 N54 1.377 . S
C57 C70 1.479 . S
C58 C55 1.480 . S
C58 C59 1.383 . S
C58 C63 1.385 . S
C59 H40 0.947 . S
C59 C58 1.383 . S
C59 C60 1.388 . S
C60 H41 0.946 . S
C60 C59 1.388 . S
C60 C61 1.384 . S
C61 C60 1.384 . S
C61 C62 1.377 . S
C62 H42 0.953 . S
C62 C61 1.377 . S
C62 C63 1.369 . S
C63 H43 0.945 . S
C63 C58 1.385 . S
C63 C62 1.369 . S
C64 C56 1.457 . S
C64 C65 1.372 . S
C64 C69 1.364 . S
C65 H44 0.952 . S
C65 C64 1.372 . S
C65 C66 1.389 . S
C66 H45 0.949 . S
C66 C65 1.389 . S
C66 C67 1.387 . S
C67 C66 1.387 . S
C67 C68 1.372 . S
C68 H46 0.950 . S
C68 C67 1.372 . S
C68 C69 1.379 . S
C69 H47 0.948 . S
C69 C64 1.364 . S
C69 C68 1.379 . S
C70 C39 1.383 . S
C70 C57 1.479 . S
C70 C71 1.398 . S
C71 C36 1.382 . S
C71 H48 0.951 . S
C71 C70 1.398 . S
C72 C73 1.384 . S
C72 H85 0.947 . S
C72 C107 1.382 . S
C73 C72 1.384 . S
C73 C74 1.378 . S
C74 C73 1.378 . S
C74 C75 1.378 . S
C74 H86 0.952 . S
C75 C74 1.378 . S
C75 H87 0.950 . S
C75 C106 1.383 . S
H76 C95 0.947 . S
H77 C96 0.946 . S
H78 C98 0.953 . S
H79 C99 0.945 . S
H80 C101 0.952 . S
H81 C102 0.949 . S
H82 C104 0.950 . S
H83 C105 0.948 . S
H84 C107 0.951 . S
H85 C72 0.947 . S
H86 C74 0.952 . S
H87 C75 0.950 . S
N88 C91 1.382 1_556 S
N88 C93 1.364 1_556 S
N89 C91 1.371 . S
N89 C92 1.372 . S
N90 C92 1.361 . S
N90 C93 1.386 . S
C91 N88 1.382 1_554 S
C91 N89 1.371 . S
C91 C94 1.480 . S
C92 N89 1.372 . S
C92 N90 1.361 . S
C92 C100 1.457 . S
C93 N88 1.364 1_554 S
C93 N90 1.386 . S
C93 C106 1.468 1_554 S
C94 C91 1.480 . S
C94 C95 1.383 1_554 S
C94 C99 1.385 . S
C95 H76 0.947 . S
C95 C94 1.383 1_556 S
C95 C96 1.388 . S
C96 H77 0.946 . S
C96 C95 1.388 . S
C96 C97 1.384 1_556 S
C97 C96 1.384 1_554 S
C97 C98 1.377 . S
C98 H78 0.953 . S
C98 C97 1.377 . S
C98 C99 1.369 . S
C99 H79 0.945 . S
C99 C94 1.385 . S
C99 C98 1.369 . S
C100 C92 1.457 . S
C100 C101 1.372 . S
C100 C105 1.364 . S
C101 H80 0.952 . S
C101 C100 1.372 . S
C101 C102 1.389 . S
C102 H81 0.949 . S
C102 C101 1.389 . S
C102 C103 1.387 . S
C103 C102 1.387 . S
C103 C104 1.372 . S
C104 H82 0.950 . S
C104 C103 1.372 . S
C104 C105 1.379 . S
C105 H83 0.948 . S
C105 C100 1.364 . S
C105 C104 1.379 . S
C106 C75 1.383 . S
C106 C93 1.468 1_556 S
C106 C107 1.398 . S
C107 C72 1.382 . S
C107 H84 0.951 . S
C107 C106 1.398 . S
C108 C109 1.384 . S
C108 H121 0.947 . S
C108 C143 1.382 . S
C109 C108 1.384 . S
C109 C110 1.378 . S
C110 C109 1.378 . S
C110 C111 1.378 . S
C110 H122 0.952 . S
C111 C110 1.378 . S
C111 H123 0.950 . S
C111 C142 1.383 . S
H112 C131 0.947 . S
H113 C132 0.946 . S
H114 C134 0.953 . S
H115 C135 0.945 . S
H116 C137 0.952 . S
H117 C138 0.949 . S
H118 C140 0.950 . S
H119 C141 0.948 . S
H120 C143 0.951 . S
H121 C108 0.947 . S
H122 C110 0.952 . S
H123 C111 0.950 . S
N124 C127 1.382 . S
N124 C129 1.363 . S
N125 C127 1.371 . S
N125 C128 1.372 . S
N126 C128 1.361 . S
N126 C129 1.377 . S
C127 N124 1.382 . S
C127 N125 1.371 . S
C127 C130 1.480 . S
C128 N125 1.372 . S
C128 N126 1.361 . S
C128 C136 1.457 . S
C129 N124 1.363 . S
C129 N126 1.377 . S
C129 C142 1.479 . S
C130 C127 1.480 . S
C130 C131 1.383 . S
C130 C135 1.385 . S
C131 H112 0.947 . S
C131 C130 1.383 . S
C131 C132 1.388 . S
C132 H113 0.946 . S
C132 C131 1.388 . S
C132 C133 1.384 . S
C133 C132 1.384 . S
C133 C134 1.377 . S
C134 H114 0.953 . S
C134 C133 1.377 . S
C134 C135 1.369 . S
C135 H115 0.945 . S
C135 C130 1.385 . S
C135 C134 1.369 . S
C136 C128 1.457 . S
C136 C137 1.372 . S
C136 C141 1.364 . S
C137 H116 0.952 . S
C137 C136 1.372 . S
C137 C138 1.389 . S
C138 H117 0.949 . S
C138 C137 1.389 . S
C138 C139 1.387 . S
C139 C138 1.387 . S
C139 C140 1.372 . S
C140 H118 0.950 . S
C140 C139 1.372 . S
C140 C141 1.379 . S
C141 H119 0.948 . S
C141 C136 1.364 . S
C141 C140 1.379 . S
C142 C111 1.383 . S
C142 C129 1.479 . S
C142 C143 1.398 . S
C143 C108 1.382 . S
C143 H120 0.951 . S
C143 C142 1.398 . S
Tb144 N173 2.617 . S
Tb144 N179 2.572 . S
Tb144 O188 2.465 . S
Tb144 O189 2.387 . S
Tb144 O191 2.428 . S
Tb144 O192 2.308 1_565 S
Tb144 O196 2.363 1_455 S
Tb144 O199 2.393 1_455 S
Tb144 C208 2.802 . S
C145 N146 1.379 . S
C145 C148 1.416 . S
C145 C152 1.424 . S
N146 C145 1.379 . S
N146 C149 1.334 1_655 S
N146 Tb155 2.617 . S
C147 C149 1.390 . S
C147 C150 1.309 1_455 S
C147 H167 0.961 . S
C148 C145 1.416 . S
C148 C150 1.416 . S
C148 C154 1.448 . S
C149 N146 1.334 1_455 S
C149 C147 1.390 . S
C149 H160 0.930 . S
C150 C147 1.309 1_655 S
C150 C148 1.416 . S
C150 H171 0.930 . S
C151 C152 1.413 . S
C151 C153 1.427 . S
C151 C157 1.416 . S
C152 C145 1.424 . S
C152 C151 1.413 . S
C152 N156 1.361 . S
C153 C151 1.427 . S
C153 C154 1.328 . S
C153 H168 0.929 . S
C154 C148 1.448 . S
C154 C153 1.328 . S
C154 H169 0.930 . S
Tb155 N146 2.617 . S
Tb155 N156 2.572 . S
Tb155 O190 2.349 1_655 S
Tb155 O193 2.393 1_655 S
Tb155 O194 2.465 . S
Tb155 O195 2.387 . S
Tb155 O197 2.428 . S
Tb155 O198 2.308 1_545 S
Tb155 C219 2.802 . S
N156 C152 1.361 . S
N156 Tb155 2.572 . S
N156 C158 1.340 . S
C157 C151 1.416 . S
C157 C159 1.332 . S
C157 H165 0.931 . S
C158 N156 1.340 . S
C158 C159 1.407 . S
C158 H164 0.930 . S
C159 C157 1.332 . S
C159 C158 1.407 . S
C159 H161 0.929 . S
H160 C149 0.930 . S
H161 C159 0.929 . S
H162 C177 0.930 1_655 S
H163 C184 0.929 . S
H164 C158 0.930 . S
H165 C157 0.931 . S
H166 C180 0.930 . S
H167 C147 0.961 . S
H168 C153 0.929 . S
H169 C154 0.930 . S
H170 C175 0.930 1_655 S
H171 C150 0.930 . S
H172 C183 0.931 . S
N173 Tb144 2.617 . S
N173 C174 1.379 . S
N173 C177 1.334 . S
C174 N173 1.379 . S
C174 C176 1.416 . S
C174 C182 1.424 . S
C175 H170 0.930 1_455 S
C175 C177 1.390 . S
C175 C178 1.339 . S
C176 C174 1.416 . S
C176 C178 1.416 . S
C176 C209 1.448 . S
C177 H162 0.930 1_455 S
C177 N173 1.334 . S
C177 C175 1.390 . S
C178 C175 1.339 . S
C178 C176 1.416 . S
C178 H185 0.930 . S
N179 Tb144 2.572 . S
N179 C180 1.340 . S
N179 C182 1.361 . S
C180 H166 0.930 . S
C180 N179 1.340 . S
C180 C184 1.407 . S
C181 C182 1.413 . S
C181 C183 1.416 . S
C181 C210 1.427 . S
C182 C174 1.424 . S
C182 N179 1.361 . S
C182 C181 1.413 . S
C183 H172 0.931 . S
C183 C181 1.416 . S
C183 C184 1.332 . S
C184 H163 0.929 . S
C184 C180 1.407 . S
C184 C183 1.332 . S
H185 C178 0.930 . S
H186 C209 0.930 . S
H187 C210 0.929 . S
O188 Tb144 2.465 . S
O188 C208 1.264 . S
O189 Tb144 2.387 . S
O189 C200 1.264 . S
O190 Tb155 2.349 1_455 S
O190 C200 1.243 1_545 S
O191 Tb144 2.428 . S
O191 C208 1.256 . S
O192 Tb144 2.308 1_545 S
O192 C207 1.266 . S
O193 Tb155 2.393 1_455 S
O193 C207 1.248 . S
O194 Tb155 2.465 . S
O194 C219 1.264 . S
O195 Tb155 2.387 . S
O195 C211 1.264 . S
O196 Tb144 2.363 1_655 S
O196 C211 1.221 1_565 S
O197 Tb155 2.428 . S
O197 C219 1.256 . S
O198 Tb155 2.308 1_565 S
O198 C218 1.266 . S
O199 Tb144 2.393 1_655 S
O199 C218 1.248 . S
C200 O189 1.264 . S
C200 O190 1.243 1_565 S
C201 C204 1.399 . S
C201 C206 1.383 . S
C201 C208 1.496 . S
C202 C203 1.399 . S
C202 C206 1.389 . S
C203 C202 1.399 . S
C203 C205 1.380 . S
C203 H220 0.929 . S
C204 C201 1.399 . S
C204 C205 1.392 . S
C204 H221 0.929 . S
C205 C203 1.380 . S
C205 C204 1.392 . S
C205 H222 0.929 . S
C206 C201 1.383 . S
C206 C202 1.389 . S
C206 H223 0.931 . S
C207 O192 1.266 . S
C207 O193 1.248 . S
C208 Tb144 2.802 . S
C208 O188 1.264 . S
C208 O191 1.256 . S
C208 C201 1.496 . S
C209 C176 1.448 . S
C209 H186 0.930 . S
C209 C210 1.328 . S
C210 C181 1.427 . S
C210 H187 0.929 . S
C210 C209 1.328 . S
C211 O195 1.264 . S
C211 O196 1.221 1_545 S
C212 C215 1.399 . S
C212 C216 1.383 . S
C212 C219 1.496 . S
C213 C214 1.399 . S
C213 C216 1.389 . S
C214 C213 1.399 . S
C214 C217 1.380 . S
C214 H224 0.929 . S
C215 C212 1.399 . S
C215 C217 1.392 . S
C215 H225 0.929 . S
C216 C212 1.383 . S
C216 C213 1.389 . S
C216 H226 0.931 . S
C217 C214 1.380 . S
C217 C215 1.392 . S
C217 H227 0.929 . S
C218 O198 1.266 . S
C218 O199 1.248 . S
C219 Tb155 2.802 . S
C219 O194 1.264 . S
C219 O197 1.256 . S
C219 C212 1.496 . S
H220 C203 0.929 . S
H221 C204 0.929 . S
H222 C205 0.929 . S
H223 C206 0.931 . S
H224 C214 0.929 . S
H225 C215 0.929 . S
H226 C216 0.931 . S
H227 C217 0.929 . S
Tb228 N257 2.617 . S
Tb228 N263 2.572 1_556 S
Tb228 O272 2.465 . S
Tb228 O273 2.387 1_556 S
Tb228 O275 2.428 . S
Tb228 O276 2.308 1_556 S
Tb228 O280 2.349 . S
Tb228 O283 2.393 . S
Tb228 C292 2.802 . S
C229 N230 1.379 . S
C229 C232 1.416 . S
C229 C236 1.424 . S
N230 C229 1.379 . S
N230 C233 1.334 . S
N230 Tb239 2.617 . S
C231 C233 1.390 . S
C231 C234 1.339 . S
C231 H251 0.930 . S
C232 C229 1.416 . S
C232 C234 1.416 . S
C232 C238 1.448 . S
C233 N230 1.334 . S
C233 C231 1.390 . S
C233 H244 0.930 . S
C234 C231 1.339 . S
C234 C232 1.416 . S
C234 H255 0.930 . S
C235 C236 1.413 . S
C235 C237 1.427 . S
C235 C241 1.416 . S
C236 C229 1.424 . S
C236 C235 1.413 . S
C236 N240 1.361 . S
C237 C235 1.427 . S
C237 C238 1.328 . S
C237 H252 0.929 . S
C238 C232 1.448 . S
C238 C237 1.328 . S
C238 H253 0.930 . S
Tb239 N230 2.617 . S
Tb239 N240 2.572 . S
Tb239 O274 2.349 . S
Tb239 O277 2.393 . S
Tb239 O278 2.465 . S
Tb239 O279 2.387 1_554 S
Tb239 O281 2.428 . S
Tb239 O282 2.308 . S
Tb239 C303 2.802 . S
N240 C236 1.361 . S
N240 Tb239 2.572 . S
N240 C242 1.340 . S
C241 C235 1.416 . S
C241 C243 1.332 . S
C241 H249 0.931 . S
C242 N240 1.340 . S
C242 C243 1.407 . S
C242 H248 0.930 . S
C243 C241 1.332 . S
C243 C242 1.407 . S
C243 H245 0.929 . S
H244 C233 0.930 . S
H245 C243 0.929 . S
H246 C261 0.930 . S
H247 C268 0.929 . S
H248 C242 0.930 . S
H249 C241 0.931 . S
H250 C264 0.930 . S
H251 C231 0.930 . S
H252 C237 0.929 . S
H253 C238 0.930 . S
H254 C259 0.930 . S
H255 C234 0.930 . S
H256 C267 0.931 . S
N257 Tb228 2.617 . S
N257 C258 1.379 1_556 S
N257 C261 1.334 . S
C258 N257 1.379 1_554 S
C258 C260 1.416 . S
C258 C266 1.424 . S
C259 H254 0.930 . S
C259 C261 1.390 . S
C259 C262 1.339 1_556 S
C260 C258 1.416 . S
C260 C262 1.416 . S
C260 C293 1.448 . S
C261 H246 0.930 . S
C261 N257 1.334 . S
C261 C259 1.390 . S
C262 C259 1.339 1_554 S
C262 C260 1.416 . S
C262 H269 0.930 . S
N263 Tb228 2.572 1_554 S
N263 C264 1.340 . S
N263 C266 1.361 . S
C264 H250 0.930 . S
C264 N263 1.340 . S
C264 C268 1.407 . S
C265 C266 1.413 . S
C265 C267 1.416 . S
C265 C294 1.427 . S
C266 C258 1.424 . S
C266 N263 1.361 . S
C266 C265 1.413 . S
C267 H256 0.931 . S
C267 C265 1.416 . S
C267 C268 1.332 . S
C268 H247 0.929 . S
C268 C264 1.407 . S
C268 C267 1.332 . S
H269 C262 0.930 . S
H270 C293 0.930 . S
H271 C294 0.929 . S
O272 Tb228 2.465 . S
O272 C292 1.264 . S
O273 Tb228 2.387 1_554 S
O273 C284 1.264 . S
O274 Tb239 2.349 . S
O274 C284 1.243 . S
O275 Tb228 2.428 . S
O275 C292 1.256 . S
O276 Tb228 2.308 1_554 S
O276 C291 1.266 . S
O277 Tb239 2.393 . S
O277 C291 1.248 . S
O278 Tb239 2.465 . S
O278 C303 1.264 . S
O279 Tb239 2.387 1_556 S
O279 C295 1.264 . S
O280 Tb228 2.349 . S
O280 C295 1.243 . S
O281 Tb239 2.428 . S
O281 C303 1.256 . S
O282 Tb239 2.308 . S
O282 C302 1.266 . S
O283 Tb228 2.393 . S
O283 C302 1.248 1_556 S
C284 O273 1.264 . S
C284 O274 1.243 . S
C285 C288 1.399 . S
C285 C290 1.383 . S
C285 C292 1.496 . S
C286 C287 1.399 . S
C286 C290 1.389 . S
C287 C286 1.399 . S
C287 C289 1.380 . S
C287 H304 0.929 . S
C288 C285 1.399 . S
C288 C289 1.392 . S
C288 H305 0.929 . S
C289 C287 1.380 . S
C289 C288 1.392 . S
C289 H306 0.929 . S
C290 C285 1.383 . S
C290 C286 1.389 . S
C290 H307 0.931 . S
C291 O276 1.266 . S
C291 O277 1.248 . S
C292 Tb228 2.802 . S
C292 O272 1.264 . S
C292 O275 1.256 . S
C292 C285 1.496 . S
C293 C260 1.448 . S
C293 H270 0.930 . S
C293 C294 1.328 . S
C294 C265 1.427 . S
C294 H271 0.929 . S
C294 C293 1.328 . S
C295 O279 1.264 . S
C295 O280 1.243 . S
C296 C299 1.399 . S
C296 C300 1.383 . S
C296 C303 1.496 . S
C297 C298 1.399 . S
C297 C300 1.389 . S
C298 C297 1.399 . S
C298 C301 1.380 . S
C298 H308 0.929 . S
C299 C296 1.399 . S
C299 C301 1.392 . S
C299 H309 0.929 . S
C300 C296 1.383 . S
C300 C297 1.389 . S
C300 H310 0.931 . S
C301 C298 1.380 . S
C301 C299 1.392 . S
C301 H311 0.929 . S
C302 O282 1.266 . S
C302 O283 1.248 1_554 S
C303 Tb239 2.802 . S
C303 O278 1.264 . S
C303 O281 1.256 . S
C303 C296 1.496 . S
H304 C287 0.929 . S
H305 C288 0.929 . S
H306 C289 0.929 . S
H307 C290 0.931 . S
H308 C298 0.929 . S
H309 C299 0.929 . S
H310 C300 0.931 . S
H311 C301 0.929 . S
C312 C313 1.349 . S
C312 C314 1.327 . S
C312 H337 0.950 . S
C313 C312 1.349 . S
C313 C329 1.349 . S
C314 C312 1.327 . S
C314 C333 1.429 . S
C314 H338 0.950 . S
C315 C332 1.574 . S
C315 C334 1.368 . S
C315 H339 0.949 . S
H316 C320 0.949 . S
C317 C318 1.349 . S
C317 C319 1.327 . S
C317 H340 0.950 . S
C318 C317 1.349 . S
C318 C330 1.349 . S
C319 C317 1.327 . S
C319 C335 1.429 . S
C319 H341 0.950 . S
C320 H316 0.949 . S
C320 C328 1.574 . S
C320 C336 1.368 . S
H321 C329 0.950 . S
H322 C327 0.950 . S
H323 C328 0.949 . S
H324 C330 0.950 . S
H325 C331 0.950 . S
H326 C332 0.949 . S
C327 H322 0.950 . S
C327 C329 1.327 . S
C327 C333 1.429 . S
C328 C320 1.574 . S
C328 H323 0.949 . S
C328 C334 1.368 . S
C329 C313 1.349 . S
C329 H321 0.950 . S
C329 C327 1.327 . S
C330 C318 1.349 . S
C330 H324 0.950 . S
C330 C331 1.327 . S
C331 H325 0.950 . S
C331 C330 1.327 . S
C331 C335 1.429 . S
C332 C315 1.574 . S
C332 H326 0.949 . S
C332 C336 1.368 . S
C333 C314 1.429 . S
C333 C327 1.429 . S
C333 C334 1.523 . S
C334 C315 1.368 . S
C334 C328 1.368 . S
C334 C333 1.523 . S
C335 C319 1.429 . S
C335 C331 1.429 . S
C335 C336 1.523 . S
C336 C320 1.368 . S
C336 C332 1.368 . S
C336 C335 1.523 . S
H337 C312 0.950 . S
H338 C314 0.950 . S
H339 C315 0.949 . S
H340 C317 0.950 . S
H341 C319 0.950 . S
C342 C343 1.349 . S
C342 C344 1.327 . S
C342 H367 0.950 . S
C343 C342 1.349 . S
C343 C359 1.349 . S
C344 C342 1.327 . S
C344 C363 1.429 . S
C344 H368 0.950 . S
C345 C362 1.574 . S
C345 C364 1.368 . S
C345 H369 0.949 1_554 S
H346 C350 0.949 . S
C347 C348 1.349 . S
C347 C349 1.327 . S
C347 H370 0.950 1_554 S
C348 C347 1.349 . S
C348 C360 1.349 . S
C349 C347 1.327 . S
C349 C365 1.429 . S
C349 H371 0.950 1_554 S
C350 H346 0.949 . S
C350 C358 1.574 . S
C350 C366 1.368 . S
H351 C359 0.950 1_556 S
H352 C357 0.950 1_556 S
H353 C358 0.949 . S
H354 C360 0.950 . S
H355 C361 0.950 . S
H356 C362 0.949 1_556 S
C357 H352 0.950 1_554 S
C357 C359 1.327 . S
C357 C363 1.429 . S
C358 C350 1.574 . S
C358 H353 0.949 . S
C358 C364 1.368 . S
C359 C343 1.349 . S
C359 H351 0.950 1_554 S
C359 C357 1.327 . S
C360 C348 1.349 . S
C360 H354 0.950 . S
C360 C361 1.327 . S
C361 H355 0.950 . S
C361 C360 1.327 . S
C361 C365 1.429 . S
C362 C345 1.574 . S
C362 H356 0.949 1_554 S
C362 C366 1.368 . S
C363 C344 1.429 . S
C363 C357 1.429 . S
C363 C364 1.523 . S
C364 C345 1.368 . S
C364 C358 1.368 . S
C364 C363 1.523 . S
C365 C349 1.429 . S
C365 C361 1.429 . S
C365 C366 1.523 . S
C366 C350 1.368 . S
C366 C362 1.368 . S
C366 C365 1.523 . S
H367 C342 0.950 . S
H368 C344 0.950 . S
H369 C345 0.949 1_556 S
H370 C347 0.950 1_556 S
H371 C349 0.950 1_556 S
C372 C373 1.349 . S
C372 C374 1.327 . S
C372 H397 0.950 . S
C373 C372 1.349 . S
C373 C389 1.349 . S
C374 C372 1.327 . S
C374 C393 1.429 . S
C374 H398 0.950 . S
C375 C392 1.574 . S
C375 C394 1.368 . S
C375 H399 0.949 . S
H376 C380 0.949 . S
C377 C378 1.349 . S
C377 C379 1.327 . S
C377 H400 0.950 . S
C378 C377 1.349 . S
C378 C390 1.349 . S
C379 C377 1.327 . S
C379 C395 1.429 . S
C379 H401 0.950 . S
C380 H376 0.949 . S
C380 C388 1.574 . S
C380 C396 1.368 . S
H381 C389 0.950 . S
H382 C387 0.950 . S
H383 C388 0.949 . S
H384 C390 0.950 . S
H385 C391 0.950 . S
H386 C392 0.949 . S
C387 H382 0.950 . S
C387 C389 1.327 . S
C387 C393 1.429 . S
C388 C380 1.574 . S
C388 H383 0.949 . S
C388 C394 1.368 . S
C389 C373 1.349 . S
C389 H381 0.950 . S
C389 C387 1.327 . S
C390 C378 1.349 . S
C390 H384 0.950 . S
C390 C391 1.327 . S
C391 H385 0.950 . S
C391 C390 1.327 . S
C391 C395 1.429 . S
C392 C375 1.574 . S
C392 H386 0.949 . S
C392 C396 1.368 . S
C393 C374 1.429 . S
C393 C387 1.429 . S
C393 C394 1.523 . S
C394 C375 1.368 . S
C394 C388 1.368 . S
C394 C393 1.523 . S
C395 C379 1.429 . S
C395 C391 1.429 . S
C395 C396 1.523 . S
C396 C380 1.368 . S
C396 C392 1.368 . S
C396 C395 1.523 . S
H397 C372 0.950 . S
H398 C374 0.950 . S
H399 C375 0.949 . S
H400 C377 0.950 . S
H401 C379 0.950 . S
C402 C403 1.349 1_556 S
C402 C404 1.327 . S
C402 H427 0.950 . S
C403 C402 1.349 1_554 S
C403 C419 1.349 . S
C404 C402 1.327 . S
C404 C423 1.429 1_556 S
C404 H428 0.950 . S
C405 C422 1.574 . S
C405 C424 1.368 . S
C405 H429 0.949 . S
H406 C410 0.949 . S
C407 C408 1.349 . S
C407 C409 1.327 . S
C407 H430 0.950 . S
C408 C407 1.349 . S
C408 C420 1.349 1_554 S
C409 C407 1.327 . S
C409 C425 1.429 . S
C409 H431 0.950 . S
C410 H406 0.949 . S
C410 C418 1.574 . S
C410 C426 1.368 1_556 S
H411 C419 0.950 . S
H412 C417 0.950 . S
H413 C418 0.949 . S
H414 C420 0.950 . S
H415 C421 0.950 . S
H416 C422 0.949 . S
C417 H412 0.950 . S
C417 C419 1.327 . S
C417 C423 1.429 . S
C418 C410 1.574 . S
C418 H413 0.949 . S
C418 C424 1.368 1_556 S
C419 C403 1.349 . S
C419 H411 0.950 . S
C419 C417 1.327 . S
C420 C408 1.349 1_556 S
C420 H414 0.950 . S
C420 C421 1.327 . S
C421 H415 0.950 . S
C421 C420 1.327 . S
C421 C425 1.429 1_556 S
C422 C405 1.574 . S
C422 H416 0.949 . S
C422 C426 1.368 . S
C423 C404 1.429 1_554 S
C423 C417 1.429 . S
C423 C424 1.523 . S
C424 C405 1.368 . S
C424 C418 1.368 1_554 S
C424 C423 1.523 . S
C425 C409 1.429 . S
C425 C421 1.429 1_554 S
C425 C426 1.523 . S
C426 C410 1.368 1_554 S
C426 C422 1.368 . S
C426 C425 1.523 . S
H427 C402 0.950 . S
H428 C404 0.950 . S
H429 C405 0.949 . S
H430 C407 0.950 . S
H431 C409 0.950 . S
C432 C433 1.349 . S
C432 C434 1.327 . S
C432 H457 0.950 . S
C433 C432 1.349 . S
C433 C449 1.349 . S
C434 C432 1.327 . S
C434 C453 1.429 . S
C434 H458 0.950 . S
C435 C452 1.574 . S
C435 C454 1.368 . S
C435 H459 0.949 . S
H436 C440 0.949 . S
C437 C438 1.349 . S
C437 C439 1.327 . S
C437 H460 0.950 . S
C438 C437 1.349 . S
C438 C450 1.349 . S
C439 C437 1.327 . S
C439 C455 1.429 . S
C439 H461 0.950 . S
C440 H436 0.949 . S
C440 C448 1.574 . S
C440 C456 1.368 . S
H441 C449 0.950 . S
H442 C447 0.950 . S
H443 C448 0.949 . S
H444 C450 0.950 . S
H445 C451 0.950 . S
H446 C452 0.949 . S
C447 H442 0.950 . S
C447 C449 1.327 . S
C447 C453 1.429 . S
C448 C440 1.574 . S
C448 H443 0.949 . S
C448 C454 1.368 . S
C449 C433 1.349 . S
C449 H441 0.950 . S
C449 C447 1.327 . S
C450 C438 1.349 . S
C450 H444 0.950 . S
C450 C451 1.327 . S
C451 H445 0.950 . S
C451 C450 1.327 . S
C451 C455 1.429 . S
C452 C435 1.574 . S
C452 H446 0.949 . S
C452 C456 1.368 . S
C453 C434 1.429 . S
C453 C447 1.429 . S
C453 C454 1.523 . S
C454 C435 1.368 . S
C454 C448 1.368 . S
C454 C453 1.523 . S
C455 C439 1.429 . S
C455 C451 1.429 . S
C455 C456 1.523 . S
C456 C440 1.368 . S
C456 C452 1.368 . S
C456 C455 1.523 . S
H457 C432 0.950 . S
H458 C434 0.950 . S
H459 C435 0.949 . S
H460 C437 0.950 . S
H461 C439 0.950 . S
C462 C463 1.349 . S
C462 C464 1.327 . S
C462 H487 0.950 . S
C463 C462 1.349 . S
C463 C479 1.349 . S
C464 C462 1.327 . S
C464 C483 1.429 . S
C464 H488 0.950 . S
C465 C482 1.574 . S
C465 C484 1.368 . S
C465 H489 0.949 . S
H466 C470 0.949 . S
C467 C468 1.349 . S
C467 C469 1.327 . S
C467 H490 0.950 . S
C468 C467 1.349 . S
C468 C480 1.349 . S
C469 C467 1.327 . S
C469 C485 1.429 . S
C469 H491 0.950 . S
C470 H466 0.949 . S
C470 C478 1.574 . S
C470 C486 1.368 . S
H471 C479 0.950 . S
H472 C477 0.950 . S
H473 C478 0.949 . S
H474 C480 0.950 . S
H475 C481 0.950 . S
H476 C482 0.949 . S
C477 H472 0.950 . S
C477 C479 1.327 . S
C477 C483 1.429 . S
C478 C470 1.574 . S
C478 H473 0.949 . S
C478 C484 1.368 . S
C479 C463 1.349 . S
C479 H471 0.950 . S
C479 C477 1.327 . S
C480 C468 1.349 . S
C480 H474 0.950 . S
C480 C481 1.327 . S
C481 H475 0.950 . S
C481 C480 1.327 . S
C481 C485 1.429 . S
C482 C465 1.574 . S
C482 H476 0.949 . S
C482 C486 1.368 . S
C483 C464 1.429 . S
C483 C477 1.429 . S
C483 C484 1.523 . S
C484 C465 1.368 . S
C484 C478 1.368 . S
C484 C483 1.523 . S
C485 C469 1.429 . S
C485 C481 1.429 . S
C485 C486 1.523 . S
C486 C470 1.368 . S
C486 C482 1.368 . S
C486 C485 1.523 . S
H487 C462 0.950 . S
H488 C464 0.950 . S
H489 C465 0.949 . S
H490 C467 0.950 . S
H491 C469 0.950 . S
C492 C493 1.349 . S
C492 C494 1.327 . S
C492 H517 0.950 . S
C493 C492 1.349 . S
C493 C509 1.349 . S
C494 C492 1.327 . S
C494 C513 1.429 . S
C494 H518 0.950 . S
C495 C512 1.574 . S
C495 C514 1.368 . S
C495 H519 0.949 . S
H496 C500 0.949 . S
C497 C498 1.349 . S
C497 C499 1.327 . S
C497 H520 0.973 . S
C498 C497 1.349 . S
C498 C510 1.349 . S
C499 C497 1.327 . S
C499 C515 1.429 . S
C499 H521 0.950 . S
C500 H496 0.949 . S
C500 C508 1.574 . S
C500 C516 1.368 . S
H501 C509 0.950 . S
H502 C507 0.950 . S
H503 C508 0.949 . S
H504 C510 0.950 . S
H505 C511 0.950 . S
H506 C512 0.949 . S
C507 H502 0.950 . S
C507 C509 1.327 . S
C507 C513 1.429 . S
C508 C500 1.574 . S
C508 H503 0.949 . S
C508 C514 1.368 . S
C509 C493 1.349 . S
C509 H501 0.950 . S
C509 C507 1.327 . S
C510 C498 1.349 . S
C510 H504 0.950 . S
C510 C511 1.327 . S
C511 H505 0.950 . S
C511 C510 1.327 . S
C511 C515 1.429 . S
C512 C495 1.574 . S
C512 H506 0.949 . S
C512 C516 1.368 . S
C513 C494 1.429 . S
C513 C507 1.429 . S
C513 C514 1.523 . S
C514 C495 1.368 . S
C514 C508 1.368 . S
C514 C513 1.523 . S
C515 C499 1.429 . S
C515 C511 1.429 . S
C515 C516 1.523 . S
C516 C500 1.368 . S
C516 C512 1.368 . S
C516 C515 1.523 . S
H517 C492 0.950 . S
H518 C494 0.950 . S
H519 C495 0.949 . S
H520 C497 0.973 . S
H521 C499 0.950 . S
C522 C523 1.349 . S
C522 C524 1.327 . S
C522 H547 0.950 . S
C523 C522 1.349 . S
C523 C539 1.349 . S
C524 C522 1.327 . S
C524 C543 1.429 . S
C524 H548 0.950 . S
C525 C542 1.574 . S
C525 C544 1.368 . S
C525 H549 0.949 . S
H526 C530 0.949 . S
C527 C528 1.349 . S
C527 C529 1.327 . S
C527 H550 0.950 . S
C528 C527 1.349 . S
C528 C540 1.349 . S
C529 C527 1.327 . S
C529 C545 1.429 . S
C529 H551 0.950 . S
C530 H526 0.949 . S
C530 C538 1.574 . S
C530 C546 1.368 . S
H531 C539 0.950 . S
H532 C537 0.950 . S
H533 C538 0.949 . S
H534 C540 0.950 . S
H535 C541 0.950 . S
H536 C542 0.949 . S
C537 H532 0.950 . S
C537 C539 1.327 . S
C537 C543 1.429 . S
C538 C530 1.574 . S
C538 H533 0.949 . S
C538 C544 1.368 . S
C539 C523 1.349 . S
C539 H531 0.950 . S
C539 C537 1.327 . S
C540 C528 1.349 . S
C540 H534 0.950 . S
C540 C541 1.327 . S
C541 H535 0.950 . S
C541 C540 1.327 . S
C541 C545 1.429 . S
C542 C525 1.574 . S
C542 H536 0.949 . S
C542 C546 1.368 . S
C543 C524 1.429 . S
C543 C537 1.429 . S
C543 C544 1.523 . S
C544 C525 1.368 . S
C544 C538 1.368 . S
C544 C543 1.523 . S
C545 C529 1.429 . S
C545 C541 1.429 . S
C545 C546 1.523 . S
C546 C530 1.368 . S
C546 C542 1.368 . S
C546 C545 1.523 . S
H547 C522 0.950 . S
H548 C524 0.950 . S
H549 C525 0.949 . S
H550 C527 0.950 . S
H551 C529 0.950 . S
C552 C553 1.349 . S
C552 C554 1.327 . S
C552 H577 0.950 . S
C553 C552 1.349 . S
C553 C569 1.349 . S
C554 C552 1.327 . S
C554 C573 1.429 . S
C554 H578 0.950 . S
C555 C572 1.574 . S
C555 C574 1.368 . S
C555 H579 0.949 . S
H556 C560 0.949 . S
C557 C558 1.349 . S
C557 C559 1.327 . S
C557 H580 0.950 . S
C558 C557 1.349 . S
C558 C570 1.349 . S
C559 C557 1.327 . S
C559 C575 1.429 . S
C559 H581 0.950 . S
C560 H556 0.949 . S
C560 C568 1.574 . S
C560 C576 1.368 . S
H561 C569 0.950 . S
H562 C567 0.950 . S
H563 C568 0.949 . S
H564 C570 0.950 . S
H565 C571 0.950 . S
H566 C572 0.949 . S
C567 H562 0.950 . S
C567 C569 1.327 . S
C567 C573 1.429 . S
C568 C560 1.574 . S
C568 H563 0.949 . S
C568 C574 1.368 . S
C569 C553 1.349 . S
C569 H561 0.950 . S
C569 C567 1.327 . S
C570 C558 1.349 . S
C570 H564 0.950 . S
C570 C571 1.327 . S
C571 H565 0.950 . S
C571 C570 1.327 . S
C571 C575 1.429 . S
C572 C555 1.574 . S
C572 H566 0.949 . S
C572 C576 1.368 . S
C573 C554 1.429 . S
C573 C567 1.429 . S
C573 C574 1.523 . S
C574 C555 1.368 . S
C574 C568 1.368 . S
C574 C573 1.523 . S
C575 C559 1.429 . S
C575 C571 1.429 . S
C575 C576 1.523 . S
C576 C560 1.368 . S
C576 C572 1.368 . S
C576 C575 1.523 . S
H577 C552 0.950 . S
H578 C554 0.950 . S
H579 C555 0.949 . S
H580 C557 0.950 . S
H581 C559 0.950 . S
C582 C583 1.349 . S
C582 C584 1.327 . S
C582 H607 0.950 . S
C583 C582 1.349 . S
C583 C599 1.349 . S
C584 C582 1.327 . S
C584 C603 1.429 . S
C584 H608 0.950 . S
C585 C602 1.574 . S
C585 C604 1.368 . S
C585 H609 0.949 . S
H586 C590 0.949 . S
C587 C588 1.349 . S
C587 C589 1.327 . S
C587 H610 0.950 . S
C588 C587 1.349 . S
C588 C600 1.349 . S
C589 C587 1.327 . S
C589 C605 1.429 . S
C589 H611 0.950 . S
C590 H586 0.949 . S
C590 C598 1.574 . S
C590 C606 1.368 . S
H591 C599 0.950 . S
H592 C597 0.950 . S
H593 C598 0.949 . S
H594 C600 0.950 . S
H595 C601 0.950 . S
H596 C602 0.949 . S
C597 H592 0.950 . S
C597 C599 1.327 . S
C597 C603 1.429 . S
C598 C590 1.574 . S
C598 H593 0.949 . S
C598 C604 1.368 . S
C599 C583 1.349 . S
C599 H591 0.950 . S
C599 C597 1.327 . S
C600 C588 1.349 . S
C600 H594 0.950 . S
C600 C601 1.327 . S
C601 H595 0.950 . S
C601 C600 1.327 . S
C601 C605 1.429 . S
C602 C585 1.574 . S
C602 H596 0.949 . S
C602 C606 1.368 . S
C603 C584 1.429 . S
C603 C597 1.429 . S
C603 C604 1.523 . S
C604 C585 1.368 . S
C604 C598 1.368 . S
C604 C603 1.523 . S
C605 C589 1.429 . S
C605 C601 1.429 . S
C605 C606 1.523 . S
C606 C590 1.368 . S
C606 C602 1.368 . S
C606 C605 1.523 . S
H607 C582 0.950 . S
H608 C584 0.950 . S
H609 C585 0.949 . S
H610 C587 0.950 . S
H611 C589 0.950 . S
C612 C613 1.349 . S
C612 C614 1.327 . S
C612 H637 0.950 . S
C613 C612 1.349 . S
C613 C629 1.349 . S
C614 C612 1.327 . S
C614 C633 1.429 . S
C614 H638 0.950 . S
C615 C632 1.574 . S
C615 C634 1.368 . S
C615 H639 0.949 . S
H616 C620 0.949 . S
C617 C618 1.349 . S
C617 C619 1.327 . S
C617 H640 0.950 . S
C618 C617 1.349 . S
C618 C630 1.349 . S
C619 C617 1.327 . S
C619 C635 1.429 . S
C619 H641 0.950 . S
C620 H616 0.949 . S
C620 C628 1.574 . S
C620 C636 1.368 . S
H621 C629 0.950 . S
H622 C627 0.950 . S
H623 C628 0.949 . S
H624 C630 0.950 . S
H625 C631 0.950 . S
H626 C632 0.949 . S
C627 H622 0.950 . S
C627 C629 1.327 . S
C627 C633 1.429 . S
C628 C620 1.574 . S
C628 H623 0.949 . S
C628 C634 1.368 . S
C629 C613 1.349 . S
C629 H621 0.950 . S
C629 C627 1.327 . S
C630 C618 1.349 . S
C630 H624 0.950 . S
C630 C631 1.327 . S
C631 H625 0.950 . S
C631 C630 1.327 . S
C631 C635 1.429 . S
C632 C615 1.574 . S
C632 H626 0.949 . S
C632 C636 1.368 . S
C633 C614 1.429 . S
C633 C627 1.429 . S
C633 C634 1.523 . S
C634 C615 1.368 . S
C634 C628 1.368 . S
C634 C633 1.523 . S
C635 C619 1.429 . S
C635 C631 1.429 . S
C635 C636 1.523 . S
C636 C620 1.368 . S
C636 C632 1.368 . S
C636 C635 1.523 . S
H637 C612 0.950 . S
H638 C614 0.950 . S
H639 C615 0.949 . S
H640 C617 0.950 . S
H641 C619 0.950 . S
C642 C643 1.349 . S
C642 C644 1.327 . S
C642 H667 0.950 . S
C643 C642 1.349 . S
C643 C659 1.349 . S
C644 C642 1.327 . S
C644 C663 1.429 . S
C644 H668 0.950 . S
C645 C662 1.574 . S
C645 C664 1.368 . S
C645 H669 0.949 . S
H646 C650 0.949 . S
C647 C648 1.349 . S
C647 C649 1.327 . S
C647 H670 0.950 1_565 S
C648 C647 1.349 . S
C648 C660 1.349 . S
C649 C647 1.327 . S
C649 C665 1.429 . S
C649 H671 0.963 . S
C650 H646 0.949 . S
C650 C658 1.574 . S
C650 C666 1.368 . S
H651 C659 0.950 . S
H652 C657 0.950 . S
H653 C658 0.949 . S
H654 C660 0.950 . S
H655 C661 0.950 . S
H656 C662 0.949 . S
C657 H652 0.950 . S
C657 C659 1.327 . S
C657 C663 1.429 . S
C658 C650 1.574 . S
C658 H653 0.949 . S
C658 C664 1.368 . S
C659 C643 1.349 . S
C659 H651 0.950 . S
C659 C657 1.327 . S
C660 C648 1.349 . S
C660 H654 0.950 . S
C660 C661 1.327 . S
C661 H655 0.950 . S
C661 C660 1.327 . S
C661 C665 1.429 . S
C662 C645 1.574 . S
C662 H656 0.949 . S
C662 C666 1.368 . S
C663 C644 1.429 . S
C663 C657 1.429 . S
C663 C664 1.523 . S
C664 C645 1.368 . S
C664 C658 1.368 . S
C664 C663 1.523 . S
C665 C649 1.429 . S
C665 C661 1.429 . S
C665 C666 1.523 . S
C666 C650 1.368 . S
C666 C662 1.368 . S
C666 C665 1.523 . S
H667 C642 0.950 . S
H668 C644 0.950 . S
H669 C645 0.949 . S
H670 C647 0.950 1_545 S
H671 C649 0.963 . S
C318 C207 1.617 . S
C313 C133 1.635 . S
C343 C25 1.614 . S
C348 C302 1.604 . S
C373 C61 1.616 . S
C378 C218 1.617 . S
C403 C97 1.586 . S
C408 C291 1.604 . S
C438 C202 1.414 . S
C433 C1 1.563 . S
C468 C295 1.606 . S
C463 C67 1.582 . S
C493 C103 1.570 . S
C498 C211 1.600 . S
C523 C109 1.542 . S
C528 C286 1.402 . S
C558 C297 1.402 . S
C553 C37 1.532 . S
C588 C213 1.414 . S
C583 C73 1.549 . S
C618 C284 1.606 . S
C613 C139 1.601 . S
C643 C31 1.598 . S
C648 C200 1.600 . S
