# Generated by pormake.
# Topology anh, (6,3)-cn, num edge types: 1
# Building blocks:
#     Node 0, Type 0, BuildingBlock: CUKXOW_clean_sbu_0, # of connection points: 6
#     Node 1, Type 0, BuildingBlock: CUKXOW_clean_sbu_0, # of connection points: 6
#     Node 2, Type 0, BuildingBlock: CUKXOW_clean_sbu_0, # of connection points: 6
#     Node 3, Type 1, BuildingBlock: BELTOD_clean_linker_0, # of connection points: 3
#     Node 4, Type 1, BuildingBlock: BELTOD_clean_linker_0, # of connection points: 3
#     Node 5, Type 1, BuildingBlock: BELTOD_clean_linker_0, # of connection points: 3
#     Node 6, Type 1, BuildingBlock: BELTOD_clean_linker_0, # of connection points: 3
#     Node 7, Type 1, BuildingBlock: BELTOD_clean_linker_0, # of connection points: 3
#     Node 8, Type 1, BuildingBlock: BELTOD_clean_linker_0, # of connection points: 3
#     Edge 9, Type (0, 1), BuildingBlock: MIFKUJ_clean_linker_0, # of connection points: 2
#     Edge 10, Type (0, 1), BuildingBlock: MIFKUJ_clean_linker_0, # of connection points: 2
#     Edge 11, Type (0, 1), BuildingBlock: MIFKUJ_clean_linker_0, # of connection points: 2
#     Edge 12, Type (0, 1), BuildingBlock: MIFKUJ_clean_linker_0, # of connection points: 2
#     Edge 13, Type (0, 1), BuildingBlock: MIFKUJ_clean_linker_0, # of connection points: 2
#     Edge 14, Type (0, 1), BuildingBlock: MIFKUJ_clean_linker_0, # of connection points: 2
#     Edge 15, Type (0, 1), BuildingBlock: MIFKUJ_clean_linker_0, # of connection points: 2
#     Edge 16, Type (0, 1), BuildingBlock: MIFKUJ_clean_linker_0, # of connection points: 2
#     Edge 17, Type (0, 1), BuildingBlock: MIFKUJ_clean_linker_0, # of connection points: 2
#     Edge 18, Type (0, 1), BuildingBlock: MIFKUJ_clean_linker_0, # of connection points: 2
#     Edge 19, Type (0, 1), BuildingBlock: MIFKUJ_clean_linker_0, # of connection points: 2
#     Edge 20, Type (0, 1), BuildingBlock: MIFKUJ_clean_linker_0, # of connection points: 2
#     Edge 21, Type (0, 1), BuildingBlock: MIFKUJ_clean_linker_0, # of connection points: 2
#     Edge 22, Type (0, 1), BuildingBlock: MIFKUJ_clean_linker_0, # of connection points: 2
#     Edge 23, Type (0, 1), BuildingBlock: MIFKUJ_clean_linker_0, # of connection points: 2
#     Edge 24, Type (0, 1), BuildingBlock: MIFKUJ_clean_linker_0, # of connection points: 2
#     Edge 25, Type (0, 1), BuildingBlock: MIFKUJ_clean_linker_0, # of connection points: 2
#     Edge 26, Type (0, 1), BuildingBlock: MIFKUJ_clean_linker_0, # of connection points: 2
# Relax obj value: 0.122
# Max RMSD: 0.188
# Mean RMSD: 0.129
data_MOF--net-anh--node1-CUKXOW_clean_sbu_0--node2-BELTOD_clean_linker_0--edge1-MIFKUJ_clean_linker_0
_symmetry_space_group_name_H-M    P1
_symmetry_Int_Tables_number       1
_symmetry_cell_setting            triclinic
loop_
_symmetry_equiv_pos_as_xyz
'x, y, z'
_cell_length_a     41.986206
_cell_length_b     40.926527
_cell_length_c     75.182145
_cell_angle_alpha  96.051014
_cell_angle_beta   90.087438
_cell_angle_gamma 116.79195
loop_
_atom_site_label
_atom_site_type_symbol
_atom_site_fract_x
_atom_site_fract_y
_atom_site_fract_z
_atom_type_partial_charge
Tb0 Tb 0.05692 0.53673 0.15714 0.0
C1 C 0.03055 0.49265 0.18979 0.0
Tb2 Tb 1.00319 0.45739 0.14965 0.0
O3 O 0.01622 0.55317 0.16671 0.0
O4 O 1.00217 0.50816 0.14755 0.0
O5 O 0.05798 0.52006 0.18354 0.0
C6 C 0.94318 0.39402 0.14929 0.0
O7 O 1.0043 0.46692 0.17896 0.0
C8 C 0.07037 0.46979 0.14741 0.0
C9 C 0.03073 0.50091 0.11677 0.0
O10 O 0.97468 0.39681 0.14626 0.0
O11 O 0.94555 0.42678 0.15235 0.0
O12 O 0.0436 0.44293 0.13803 0.0
O13 O 0.05836 0.48607 0.15868 0.0
O14 O 1.00402 0.47193 0.12255 0.0
O15 O 0.05549 0.52783 0.12789 0.0
C16 C 0.11697 0.6002 0.15857 0.0
O17 O 0.11045 0.57025 0.14823 0.0
O18 O 0.08962 0.59452 0.16808 0.0
C19 C 0.98962 0.52545 0.15775 0.0
Tb20 Tb 0.47756 0.01703 0.51036 0.0
C21 C 0.51557 0.04398 0.47503 0.0
Tb22 Tb 0.55605 0.07367 0.51366 0.0
O23 O 0.46148 0.05782 0.50271 0.0
O24 O 0.50695 0.07404 0.51945 0.0
O25 O 0.48714 0.01897 0.48198 0.0
C26 C 0.61794 0.13437 0.51293 0.0
O27 O 0.54399 0.06892 0.48495 0.0
C28 C 0.54453 0.00546 0.5144 0.0
C29 C 0.51998 0.04411 0.54844 0.0
O30 O 0.61427 0.10109 0.51244 0.0
O31 O 0.58677 0.13354 0.51389 0.0
O32 O 0.57218 0.03388 0.52228 0.0
O33 O 0.5268 0.01627 0.50512 0.0
O34 O 0.54535 0.07286 0.54182 0.0
O35 O 0.49324 0.01706 0.53824 0.0
C36 C 0.41528 0.95625 0.50941 0.0
O37 O 0.42313 0.9871 0.51933 0.0
O38 O 0.44244 0.95969 0.50021 0.0
C39 C 0.48939 0.08573 0.51071 0.0
Tb40 Tb 0.51141 0.50213 0.82828 0.0
C41 C 0.54909 0.50966 0.8666 0.0
Tb42 Tb 0.59416 0.52702 0.83175 0.0
O43 O 0.50081 0.44728 0.81563 0.0
O44 O 0.54571 0.47807 0.83284 0.0
O45 O 0.51942 0.50272 0.85711 0.0
C46 C 0.65725 0.52693 0.83106 0.0
O47 O 0.58037 0.51752 0.85942 0.0
C48 C 0.5797 0.5839 0.83251 0.0
C49 C 0.55707 0.52414 0.79455 0.0
O50 O 0.64961 0.54947 0.84151 0.0
O51 O 0.62909 0.50381 0.82113 0.0
O52 O 0.6119 0.58736 0.8342 0.0
O53 O 0.55935 0.55002 0.83052 0.0
O54 O 0.58329 0.52073 0.8028 0.0
O55 O 0.52897 0.52364 0.80289 0.0
C56 C 0.44891 0.50305 0.83192 0.0
O57 O 0.45546 0.48287 0.8194 0.0
O58 O 0.47737 0.52246 0.8423 0.0
C59 C 0.53076 0.44948 0.82179 0.0
P60 P 0.57571 0.96886 0.22796 0.0
H61 H 0.54694 0.90498 0.2007 0.0
H62 H 0.4873 0.86689 0.18665 0.0
H63 H 0.45061 0.94104 0.21384 0.0
H64 H 0.51017 0.97857 0.22815 0.0
H65 H 0.65293 0.00597 0.22766 0.0
H66 H 0.69503 0.05973 0.21427 0.0
H67 H 0.60709 0.07439 0.19325 0.0
H68 H 0.56491 0.02041 0.20689 0.0
H69 H 0.57717 0.93748 0.2609 0.0
H70 H 0.56164 0.02826 0.24566 0.0
O71 O 0.59441 0.94043 0.22766 0.0
H72 H 0.56802 0.95344 0.29209 0.0
H73 H 0.55094 0.04332 0.27689 0.0
C74 C 0.53287 0.94413 0.21584 0.0
C75 C 0.52615 0.91321 0.20357 0.0
C76 C 0.49203 0.89158 0.19541 0.0
C77 C 0.46402 0.90069 0.19925 0.0
C78 C 0.47139 0.93284 0.21087 0.0
C79 C 0.50554 0.95442 0.21905 0.0
C80 C 0.60581 0.00874 0.21792 0.0
C81 C 0.64265 0.02056 0.22006 0.0
C82 C 0.6667 0.05124 0.21235 0.0
C83 C 0.65438 0.07102 0.20248 0.0
C84 C 0.61738 0.05969 0.20076 0.0
C85 C 0.59325 0.02874 0.20845 0.0
C86 C 0.57024 0.98179 0.25096 0.0
C87 C 0.57191 0.96091 0.26424 0.0
C88 C 0.56665 0.96998 0.28205 0.0
C89 C 0.55878 0.99953 0.28679 0.0
C90 C 0.55685 0.02032 0.27348 0.0
C91 C 0.56296 0.01174 0.2557 0.0
P92 P 0.60042 0.58934 0.54803 0.0
H93 H 0.62659 0.54793 0.52337 0.0
H94 H 0.60605 0.48188 0.51576 0.0
H95 H 0.50935 0.45962 0.54309 0.0
H96 H 0.53037 0.52614 0.55103 0.0
H97 H 0.63582 0.66718 0.54437 0.0
H98 H 0.61556 0.71013 0.53515 0.0
H99 H 0.5084 0.62153 0.52518 0.0
H100 H 0.52916 0.57816 0.53457 0.0
H101 H 0.63758 0.57147 0.57489 0.0
H102 H 0.55261 0.603 0.57323 0.0
O103 O 0.64407 0.60749 0.54464 0.0
H104 H 0.63092 0.56659 0.60686 0.0
H105 H 0.54625 0.59899 0.60539 0.0
C106 C 0.58009 0.54205 0.53786 0.0
C107 C 0.60058 0.52905 0.52741 0.0
C108 C 0.58894 0.49123 0.52313 0.0
C109 C 0.55637 0.46568 0.52905 0.0
C110 C 0.53455 0.47875 0.53833 0.0
C111 C 0.54646 0.51673 0.54281 0.0
C112 C 0.58423 0.61926 0.53975 0.0
C113 C 0.60806 0.65669 0.53991 0.0
C114 C 0.59643 0.68131 0.53458 0.0
C115 C 0.56045 0.66923 0.52915 0.0
C116 C 0.53632 0.63167 0.52923 0.0
C117 C 0.54817 0.60683 0.53447 0.0
C118 C 0.59617 0.58839 0.57179 0.0
C119 C 0.61786 0.57794 0.5815 0.0
C120 C 0.61408 0.57526 0.5998 0.0
C121 C 0.58829 0.58276 0.60875 0.0
C122 C 0.56628 0.59289 0.59889 0.0
C123 C 0.5701 0.59552 0.58053 0.0
P124 P 0.1181 0.67664 0.89278 0.0
H125 H 0.16312 0.68858 0.86222 0.0
H126 H 0.20079 0.66036 0.8506 0.0
H127 H 0.17549 0.59545 0.89498 0.0
H128 H 0.1382 0.62321 0.90642 0.0
H129 H 0.06183 0.69861 0.89112 0.0
H130 H 0.00709 0.67508 0.87233 0.0
H131 H 0.03967 0.60272 0.83988 0.0
H132 H 0.09311 0.62469 0.85949 0.0
H133 H 0.14009 0.70302 0.93061 0.0
H134 H 0.05586 0.60897 0.89949 0.0
O135 O 0.14071 0.72249 0.89642 0.0
H136 H 0.11853 0.67446 0.95801 0.0
H137 H 0.03373 0.58065 0.92678 0.0
C138 C 0.14786 0.65808 0.88516 0.0
C139 C 0.16597 0.66846 0.86948 0.0
C140 C 0.18718 0.65218 0.8628 0.0
C141 C 0.19094 0.62577 0.87192 0.0
C142 C 0.17326 0.61598 0.88779 0.0
C143 C 0.15181 0.63189 0.89432 0.0
C144 C 0.08181 0.66393 0.87657 0.0
C145 C 0.05745 0.67819 0.87975 0.0
C146 C 0.02619 0.66476 0.86888 0.0
C147 C 0.01888 0.63699 0.85447 0.0
C148 C 0.04415 0.62375 0.85096 0.0
C149 C 0.07512 0.63677 0.86206 0.0
C150 C 0.09911 0.6585 0.91311 0.0
C151 C 0.11643 0.67668 0.92974 0.0
C152 C 0.10405 0.66032 0.94537 0.0
C153 C 0.07435 0.62533 0.94455 0.0
C154 C 0.05679 0.6075 0.92783 0.0
C155 C 0.06918 0.62388 0.91225 0.0
P156 P 0.05614 0.48748 0.44164 0.0
H157 H 0.09356 0.5227 0.47626 0.0
H158 H 0.12728 0.58745 0.48882 0.0
H159 H 0.09705 0.62079 0.44157 0.0
H160 H 0.06337 0.5562 0.42914 0.0
H161 H 0.0074 0.40973 0.43515 0.0
H162 H 0.95099 0.37072 0.44764 0.0
H163 H 0.95687 0.46565 0.48154 0.0
H164 H 0.01281 0.50469 0.46853 0.0
H165 H 0.10512 0.49834 0.41299 0.0
H166 H 0.99448 0.47358 0.41793 0.0
O167 O 0.08377 0.46959 0.44563 0.0
H168 H 0.09837 0.49754 0.38065 0.0
H169 H 0.98709 0.47149 0.38553 0.0
C170 C 0.07668 0.53473 0.45164 0.0
C171 C 0.09389 0.54398 0.46872 0.0
C172 C 0.11291 0.58092 0.47592 0.0
C173 C 0.11505 0.60913 0.46607 0.0
C174 C 0.09625 0.5996 0.44933 0.0
C175 C 0.07701 0.56267 0.44222 0.0
C176 C 0.01434 0.45995 0.45098 0.0
C177 C 0.99647 0.42211 0.44526 0.0
C178 C 0.96436 0.39983 0.4525 0.0
C179 C 0.94957 0.41499 0.46574 0.0
C180 C 0.9674 0.45315 0.47129 0.0
C181 C 0.99955 0.47548 0.46394 0.0
C182 C 0.05012 0.48515 0.41776 0.0
C183 C 0.07922 0.49217 0.40705 0.0
C184 C 0.07527 0.49158 0.38855 0.0
C185 C 0.04208 0.4841 0.38043 0.0
C186 C 0.01306 0.47756 0.39132 0.0
C187 C 0.01714 0.47834 0.40985 0.0
P188 P 0.62274 0.03943 0.79257 0.0
H189 H 0.66111 0.11072 0.8143 0.0
H190 H 0.64505 0.15982 0.82296 0.0
H191 H 0.53542 0.08711 0.80455 0.0
H192 H 0.55251 0.0386 0.79482 0.0
H193 H 0.65542 0.99066 0.7925 0.0
H194 H 0.63668 0.9299 0.8019 0.0
H195 H 0.53804 0.9284 0.8192 0.0
H196 H 0.55723 0.98998 0.80974 0.0
H197 H 0.65244 0.08584 0.76435 0.0
H198 H 0.56201 0.98153 0.76994 0.0
O199 O 0.66737 0.05997 0.79406 0.0
H200 H 0.63354 0.08076 0.73306 0.0
H201 H 0.54321 0.97579 0.73844 0.0
C202 C 0.60801 0.07085 0.80393 0.0
C203 C 0.63342 0.10495 0.81245 0.0
C204 C 0.62406 0.13318 0.81752 0.0
C205 C 0.5889 0.12786 0.81432 0.0
C206 C 0.56293 0.09265 0.80688 0.0
C207 C 0.5725 0.06455 0.80159 0.0
C208 C 0.60817 0.99534 0.80082 0.0
C209 C 0.62998 0.97766 0.79858 0.0
C210 C 0.61923 0.94283 0.80397 0.0
C211 C 0.58608 0.92451 0.81153 0.0
C212 C 0.56378 0.9419 0.81346 0.0
C213 C 0.57481 0.97717 0.80817 0.0
C214 C 0.60919 0.03363 0.7693 0.0
C215 C 0.62881 0.06152 0.75873 0.0
C216 C 0.61797 0.05854 0.74083 0.0
C217 C 0.58707 0.02766 0.73318 0.0
C218 C 0.56708 0.99997 0.74394 0.0
C219 C 0.57799 0.00302 0.7619 0.0
P220 P 0.51637 0.45962 0.1153 0.0
H221 H 0.54809 0.4444 0.14611 0.0
H222 H 0.60965 0.45863 0.1542 0.0
H223 H 0.64681 0.53634 0.11519 0.0
H224 H 0.58532 0.52121 0.10687 0.0
H225 H 0.44336 0.41001 0.12283 0.0
H226 H 0.39131 0.41869 0.13 0.0
H227 H 0.45588 0.5367 0.13503 0.0
H228 H 0.50903 0.52772 0.12812 0.0
H229 H 0.50797 0.41203 0.08179 0.0
H230 H 0.52768 0.52436 0.09736 0.0
O231 O 0.50332 0.41459 0.11543 0.0
H232 H 0.51016 0.42224 0.05035 0.0
H233 H 0.53042 0.53482 0.06575 0.0
C234 C 0.56152 0.48136 0.12574 0.0
C235 C 0.56949 0.46535 0.13965 0.0
C236 C 0.60498 0.47347 0.14423 0.0
C237 C 0.63362 0.4981 0.13509 0.0
C238 C 0.62564 0.51639 0.1222 0.0
C239 C 0.59014 0.50809 0.11757 0.0
C240 C 0.48063 0.46817 0.12505 0.0
C241 C 0.44694 0.43793 0.12587 0.0
C242 C 0.41675 0.44291 0.12976 0.0
C243 C 0.41897 0.47839 0.13278 0.0
C244 C 0.45305 0.50893 0.13278 0.0
C245 C 0.48355 0.50384 0.12885 0.0
C246 C 0.51751 0.4674 0.09202 0.0
C247 C 0.5126 0.43888 0.07851 0.0
C248 C 0.51376 0.44468 0.06049 0.0
C249 C 0.52036 0.47928 0.05561 0.0
C250 C 0.52542 0.5079 0.06914 0.0
C251 C 0.52367 0.50189 0.08719 0.0
H252 H 0.09666 0.4335 0.12429 0.0
H253 H 0.15727 0.43982 0.12354 0.0
H254 H 0.19053 0.52475 0.16851 0.0
H255 H 0.12947 0.51881 0.1691 0.0
H256 H 0.24212 0.54239 0.14447 0.0
H257 H 0.17513 0.43659 0.17412 0.0
H258 H 0.12478 0.37674 0.17849 0.0
H259 H 0.14747 0.32643 0.13038 0.0
H260 H 0.19767 0.38612 0.12558 0.0
H261 H 0.40664 0.52759 0.15654 0.0
H262 H 0.35009 0.53092 0.16085 0.0
H263 H 0.29882 0.44242 0.11806 0.0
H264 H 0.3547 0.43882 0.11387 0.0
H265 H 0.25755 0.42923 0.14481 0.0
H266 H 0.32289 0.53711 0.1145 0.0
H267 H 0.37384 0.59709 0.11088 0.0
H268 H 0.355 0.64359 0.16127 0.0
H269 H 0.30418 0.58377 0.16527 0.0
C270 C 0.11682 0.4536 0.13403 0.0
C271 C 0.10803 0.47536 0.14688 0.0
C272 C 0.1516 0.45712 0.13363 0.0
C273 C 0.17867 0.48227 0.14619 0.0
C274 C 0.17025 0.50495 0.15873 0.0
C275 C 0.13528 0.50147 0.1591 0.0
C276 C 0.21524 0.48401 0.14625 0.0
C277 C 0.24552 0.51771 0.14482 0.0
C278 C 0.22007 0.45192 0.14655 0.0
C279 C 0.19 0.41591 0.14942 0.0
C280 C 0.16923 0.41282 0.16441 0.0
C281 C 0.14074 0.37892 0.16697 0.0
C282 C 0.13288 0.34782 0.1547 0.0
C283 C 0.15357 0.35055 0.13987 0.0
C284 C 0.18207 0.3844 0.13723 0.0
C285 C 0.38339 0.5091 0.14795 0.0
C286 C 0.38536 0.48266 0.13498 0.0
C287 C 0.35095 0.51103 0.1504 0.0
C288 C 0.31979 0.48695 0.13977 0.0
C289 C 0.32209 0.46115 0.1266 0.0
C290 C 0.35425 0.45906 0.12424 0.0
C291 C 0.28442 0.48738 0.14247 0.0
C292 C 0.25427 0.454 0.14451 0.0
C293 C 0.27986 0.51978 0.14281 0.0
C294 C 0.31002 0.55587 0.14028 0.0
C295 C 0.32976 0.56008 0.12485 0.0
C296 C 0.35858 0.59406 0.12272 0.0
C297 C 0.36774 0.6241 0.13587 0.0
C298 C 0.34793 0.62031 0.15111 0.0
C299 C 0.3191 0.58638 0.15331 0.0
H300 H 0.39018 0.6503 0.13422 0.0
H301 H 0.11081 0.3216 0.15671 0.0
H302 H 0.68371 0.13781 0.50964 0.0
H303 H 0.73966 0.1918 0.50547 0.0
H304 H 0.68485 0.25946 0.50885 0.0
H305 H 0.62849 0.20515 0.51277 0.0
H306 H 0.72617 0.27174 0.48076 0.0
H307 H 0.74245 0.2673 0.54303 0.0
H308 H 0.74343 0.23867 0.57014 0.0
H309 H 0.82529 0.21239 0.54922 0.0
H310 H 0.82446 0.24039 0.52186 0.0
H311 H 0.89311 0.4292 0.47439 0.0
H312 H 0.83673 0.38794 0.48639 0.0
H313 H 0.87293 0.30462 0.48648 0.0
H314 H 0.92976 0.34614 0.47529 0.0
H315 H 0.83929 0.3074 0.51603 0.0
H316 H 0.81671 0.30369 0.45239 0.0
H317 H 0.81509 0.33068 0.42479 0.0
H318 H 0.74458 0.37122 0.4482 0.0
H319 H 0.74616 0.34484 0.47605 0.0
C320 C 0.68368 0.16427 0.50966 0.0
C321 C 0.65191 0.16742 0.51153 0.0
C322 C 0.71568 0.19514 0.50737 0.0
C323 C 0.71653 0.22978 0.50707 0.0
C324 C 0.6848 0.23303 0.50911 0.0
C325 C 0.65271 0.20207 0.51138 0.0
C326 C 0.75026 0.26197 0.50362 0.0
C327 C 0.75077 0.28009 0.48871 0.0
C328 C 0.78244 0.27244 0.51382 0.0
C329 C 0.78322 0.25577 0.53033 0.0
C330 C 0.7605 0.2552 0.54415 0.0
C331 C 0.76105 0.23911 0.55958 0.0
C332 C 0.78437 0.22367 0.56139 0.0
C333 C 0.80724 0.22436 0.5478 0.0
C334 C 0.80678 0.24039 0.53234 0.0
C335 C 0.88927 0.4023 0.47723 0.0
C336 C 0.91582 0.39082 0.4737 0.0
C337 C 0.85691 0.37864 0.48394 0.0
C338 C 0.85041 0.34299 0.48709 0.0
C339 C 0.87728 0.33194 0.48409 0.0
C340 C 0.90963 0.35558 0.47749 0.0
C341 C 0.81531 0.31649 0.49292 0.0
C342 C 0.81456 0.29946 0.50828 0.0
C343 C 0.78291 0.30692 0.4831 0.0
C344 C 0.7819 0.32269 0.46636 0.0
C345 C 0.80109 0.31861 0.4517 0.0
C346 C 0.80014 0.33375 0.436 0.0
C347 C 0.77984 0.35276 0.43476 0.0
C348 C 0.76036 0.35656 0.4492 0.0
C349 C 0.76126 0.34151 0.46493 0.0
H350 H 0.77913 0.36446 0.4226 0.0
H351 H 0.78475 0.21121 0.57335 0.0
H352 H 0.62318 0.65581 0.84272 0.0
H353 H 0.6102 0.70802 0.84191 0.0
H354 H 0.50231 0.63413 0.82183 0.0
H355 H 0.51534 0.58128 0.82266 0.0
H356 H 0.53626 0.69446 0.80239 0.0
H357 H 0.51349 0.67503 0.86306 0.0
H358 H 0.52446 0.66301 0.89335 0.0
H359 H 0.62104 0.76511 0.90038 0.0
H360 H 0.61098 0.7775 0.87002 0.0
H361 H 0.52133 0.86274 0.80501 0.0
H362 H 0.50653 0.79993 0.81132 0.0
H363 H 0.61199 0.83944 0.83625 0.0
H364 H 0.62652 0.90196 0.83035 0.0
H365 H 0.56281 0.78913 0.85474 0.0
H366 H 0.59164 0.80073 0.79228 0.0
H367 H 0.583 0.81233 0.76153 0.0
H368 H 0.4759 0.72442 0.75788 0.0
H369 H 0.4838 0.71263 0.78872 0.0
C370 C 0.59655 0.65059 0.8383 0.0
C371 C 0.57019 0.61454 0.83285 0.0
C372 C 0.58912 0.68045 0.83791 0.0
C373 C 0.55517 0.67499 0.83201 0.0
C374 C 0.52861 0.63892 0.82655 0.0
C375 C 0.536 0.60881 0.8271 0.0
C376 C 0.54871 0.70756 0.83083 0.0
C377 C 0.54106 0.71473 0.81392 0.0
C378 C 0.55545 0.73422 0.84583 0.0
C379 C 0.56152 0.72712 0.8642 0.0
C380 C 0.53719 0.69483 0.87101 0.0
C381 C 0.54324 0.68795 0.88821 0.0
C382 C 0.57344 0.71326 0.89877 0.0
C383 C 0.59764 0.74554 0.89218 0.0
C384 C 0.59174 0.75253 0.87499 0.0
C385 C 0.54105 0.85806 0.81214 0.0
C386 C 0.57523 0.88722 0.81702 0.0
C387 C 0.53267 0.82215 0.81563 0.0
C388 C 0.55831 0.81485 0.82406 0.0
C389 C 0.59177 0.8443 0.82969 0.0
C390 C 0.60016 0.88001 0.82619 0.0
C391 C 0.55165 0.77658 0.8262 0.0
C392 C 0.55694 0.7684 0.8433 0.0
C393 C 0.54285 0.74905 0.81137 0.0
C394 C 0.53814 0.75613 0.79286 0.0
C395 C 0.56616 0.78409 0.78496 0.0
C396 C 0.56141 0.79066 0.76752 0.0
C397 C 0.52888 0.76921 0.75778 0.0
C398 C 0.50105 0.74108 0.76546 0.0
C399 C 0.50564 0.73443 0.78291 0.0
H400 H 0.52526 0.77433 0.74427 0.0
H401 H 0.57809 0.70788 0.91208 0.0
H402 H 0.96427 0.57088 0.17442 0.0
H403 H 0.90454 0.56699 0.171 0.0
H404 H 0.87154 0.46864 0.1337 0.0
H405 H 0.93184 0.47334 0.13646 0.0
H406 H 0.86622 0.56626 0.13895 0.0
H407 H 0.78094 0.41141 0.1456 0.0
H408 H 0.78499 0.36219 0.16029 0.0
H409 H 0.86061 0.44303 0.20018 0.0
H410 H 0.85635 0.49267 0.18601 0.0
H411 H 0.6845 0.50773 0.11029 0.0
H412 H 0.74434 0.51318 0.11477 0.0
H413 H 0.72791 0.50309 0.17089 0.0
H414 H 0.66803 0.49818 0.16661 0.0
H415 H 0.75876 0.46132 0.15769 0.0
H416 H 0.78131 0.58684 0.15606 0.0
H417 H 0.77761 0.63831 0.14342 0.0
H418 H 0.82901 0.62031 0.09672 0.0
H419 H 0.8326 0.56839 0.10899 0.0
C420 C 0.94435 0.54842 0.16545 0.0
C421 C 0.95283 0.52218 0.15587 0.0
C422 C 0.91018 0.5463 0.16348 0.0
C423 C 0.88334 0.51744 0.15216 0.0
C424 C 0.89164 0.49103 0.14262 0.0
C425 C 0.9261 0.4936 0.1443 0.0
C426 C 0.84679 0.51511 0.15037 0.0
C427 C 0.84271 0.5432 0.14296 0.0
C428 C 0.81605 0.48543 0.15588 0.0
C429 C 0.81868 0.45578 0.16457 0.0
C430 C 0.79836 0.41868 0.15753 0.0
C431 C 0.80065 0.39071 0.16579 0.0
C432 C 0.82315 0.39952 0.18112 0.0
C433 C 0.84331 0.43629 0.18827 0.0
C434 C 0.84098 0.46435 0.18012 0.0
C435 C 0.69365 0.50732 0.1237 0.0
C436 C 0.67107 0.5028 0.1381 0.0
C437 C 0.72803 0.51025 0.12622 0.0
C438 C 0.74109 0.50887 0.14321 0.0
C439 C 0.71864 0.50415 0.15761 0.0
C440 C 0.68422 0.50129 0.15512 0.0
C441 C 0.77796 0.51217 0.14592 0.0
C442 C 0.78216 0.48426 0.15352 0.0
C443 C 0.8089 0.54223 0.14073 0.0
C444 C 0.80692 0.57352 0.13337 0.0
C445 C 0.79159 0.59369 0.14304 0.0
C446 C 0.78955 0.62297 0.13595 0.0
C447 C 0.80299 0.63252 0.11926 0.0
C448 C 0.81858 0.61286 0.10964 0.0
C449 C 0.82065 0.58353 0.11666 0.0
H450 H 0.80138 0.65519 0.1138 0.0
H451 H 0.82498 0.37789 0.18746 0.0
H452 H 0.39273 0.89824 0.48355 0.0
H453 H 0.33454 0.84371 0.4799 0.0
H454 H 0.30148 0.88415 0.52804 0.0
H455 H 0.35969 0.93971 0.53153 0.0
H456 H 0.29146 0.80195 0.52185 0.0
H457 H 0.26276 0.89098 0.49822 0.0
H458 H 0.27328 0.9411 0.4799 0.0
H459 H 0.26906 0.87097 0.43233 0.0
H460 H 0.25908 0.8206 0.4504 0.0
H461 H 0.1221 0.6458 0.49971 0.0
H462 H 0.16602 0.7091 0.51056 0.0
H463 H 0.20752 0.72286 0.45789 0.0
H464 H 0.16329 0.66035 0.44698 0.0
H465 H 0.20692 0.7834 0.47114 0.0
H466 H 0.24617 0.69978 0.49318 0.0
H467 H 0.24074 0.64893 0.50989 0.0
H468 H 0.22999 0.7072 0.55861 0.0
H469 H 0.23491 0.75822 0.54212 0.0
C470 C 0.37309 0.89553 0.49338 0.0
C471 C 0.38054 0.92309 0.5078 0.0
C472 C 0.33992 0.86446 0.49126 0.0
C473 C 0.31386 0.86015 0.50367 0.0
C474 C 0.32138 0.88721 0.51834 0.0
C475 C 0.35446 0.9188 0.52028 0.0
C476 C 0.27889 0.82708 0.50098 0.0
C477 C 0.27236 0.79806 0.5111 0.0
C478 C 0.25474 0.822 0.48664 0.0
C479 C 0.26045 0.85211 0.47569 0.0
C480 C 0.26439 0.88635 0.48387 0.0
C481 C 0.27019 0.91478 0.47353 0.0
C482 C 0.2719 0.90925 0.45497 0.0
C483 C 0.26774 0.87523 0.44671 0.0
C484 C 0.26197 0.84671 0.457 0.0
C485 C 0.14045 0.66256 0.49046 0.0
C486 C 0.13933 0.6482 0.47251 0.0
C487 C 0.16555 0.69864 0.49666 0.0
C488 C 0.19043 0.72062 0.4851 0.0
C489 C 0.18855 0.70657 0.46706 0.0
C490 C 0.16322 0.67081 0.46082 0.0
C491 C 0.21965 0.75758 0.49173 0.0
C492 C 0.22529 0.78738 0.48227 0.0
C493 C 0.24335 0.76315 0.50648 0.0
C494 C 0.24042 0.73255 0.51639 0.0
C495 C 0.24237 0.7016 0.50743 0.0
C496 C 0.23942 0.67278 0.51686 0.0
C497 C 0.23489 0.67478 0.53529 0.0
C498 C 0.2334 0.70565 0.54433 0.0
C499 C 0.23626 0.73452 0.53495 0.0
H500 H 0.23263 0.65245 0.54257 0.0
H501 H 0.27639 0.9313 0.44698 0.0
H502 H 0.58569 0.44477 0.83912 0.0
H503 H 0.59703 0.39085 0.8382 0.0
H504 H 0.50664 0.32968 0.80048 0.0
H505 H 0.49539 0.38347 0.80129 0.0
H506 H 0.50387 0.29035 0.82697 0.0
H507 H 0.58949 0.35642 0.78675 0.0
H508 H 0.64014 0.40719 0.77476 0.0
H509 H 0.71034 0.4096 0.817 0.0
H510 H 0.65995 0.35901 0.82941 0.0
H511 H 0.54226 0.14156 0.79435 0.0
H512 H 0.53243 0.19618 0.79745 0.0
H513 H 0.60808 0.24277 0.84295 0.0
H514 H 0.61676 0.18732 0.84068 0.0
H515 H 0.61934 0.28968 0.81385 0.0
H516 H 0.52852 0.21716 0.8521 0.0
H517 H 0.47646 0.16129 0.85947 0.0
H518 H 0.41389 0.16808 0.81609 0.0
H519 H 0.46577 0.22372 0.80829 0.0
C520 C 0.56862 0.41999 0.83043 0.0
C521 C 0.53968 0.41828 0.82026 0.0
C522 C 0.57509 0.38919 0.82992 0.0
C523 C 0.55267 0.35617 0.81927 0.0
C524 C 0.52419 0.35477 0.80886 0.0
C525 C 0.51785 0.38555 0.80929 0.0
C526 C 0.55782 0.32257 0.81955 0.0
C527 C 0.52906 0.29019 0.82394 0.0
C528 C 0.59079 0.32239 0.81584 0.0
C529 C 0.62085 0.35416 0.80911 0.0
C530 C 0.61561 0.36811 0.79364 0.0
C531 C 0.6443 0.39671 0.78672 0.0
C532 C 0.67843 0.41145 0.79506 0.0
C533 C 0.68388 0.39801 0.81052 0.0
C534 C 0.65526 0.36937 0.81751 0.0
C535 C 0.55614 0.1628 0.80537 0.0
C536 C 0.5804 0.15974 0.81725 0.0
C537 C 0.55071 0.19424 0.80698 0.0
C538 C 0.56966 0.22353 0.82036 0.0
C539 C 0.5934 0.22052 0.83244 0.0
C540 C 0.59842 0.1888 0.83104 0.0
C541 C 0.56546 0.25774 0.82129 0.0
C542 C 0.59436 0.29015 0.8171 0.0
C543 C 0.53242 0.25777 0.82479 0.0
C544 C 0.50114 0.22442 0.82951 0.0
C545 C 0.50376 0.20656 0.84403 0.0
C546 C 0.47426 0.17497 0.84831 0.0
C547 C 0.44191 0.16109 0.83823 0.0
C548 C 0.43897 0.17884 0.82388 0.0
C549 C 0.46841 0.21043 0.81953 0.0
H550 H 0.4191 0.13663 0.84156 0.0
H551 H 0.70064 0.43325 0.7895 0.0
H552 H 0.58116 0.98191 0.53484 0.0
H553 H 0.57345 0.91939 0.53531 0.0
H554 H 0.48469 0.87882 0.49623 0.0
H555 H 0.49383 0.94216 0.495 0.0
H556 H 0.52434 0.85975 0.54465 0.0
H557 H 0.47895 0.8014 0.47129 0.0
H558 H 0.48251 0.82308 0.44158 0.0
H559 H 0.58193 0.91767 0.45875 0.0
H560 H 0.57909 0.89636 0.48848 0.0
H561 H 0.50039 0.67603 0.53882 0.0
H562 H 0.486 0.72626 0.5338 0.0
H563 H 0.58019 0.77489 0.50369 0.0
H564 H 0.59402 0.72438 0.50816 0.0
H565 H 0.52786 0.78463 0.48912 0.0
H566 H 0.58125 0.80176 0.5486 0.0
H567 H 0.58543 0.78461 0.57868 0.0
H568 H 0.48324 0.7799 0.58979 0.0
H569 H 0.47826 0.79655 0.55965 0.0
C570 C 0.56 0.9597 0.52631 0.0
C571 C 0.53799 0.96692 0.51493 0.0
C572 C 0.55544 0.92385 0.52669 0.0
C573 C 0.5286 0.89418 0.51576 0.0
C574 C 0.50591 0.9012 0.50464 0.0
C575 C 0.51084 0.93734 0.50409 0.0
C576 C 0.52556 0.85645 0.51587 0.0
C577 C 0.5247 0.8432 0.53246 0.0
C578 C 0.52623 0.83471 0.50004 0.0
C579 C 0.52858 0.84748 0.48214 0.0
C580 C 0.5016 0.82676 0.46869 0.0
C581 C 0.50348 0.83899 0.45186 0.0
C582 C 0.53237 0.87179 0.4483 0.0
C583 C 0.55951 0.89235 0.46154 0.0
C584 C 0.55776 0.88022 0.47839 0.0
C585 C 0.51753 0.69695 0.53076 0.0
C586 C 0.54863 0.69647 0.5241 0.0
C587 C 0.50941 0.7258 0.52801 0.0
C588 C 0.53233 0.75475 0.51861 0.0
C589 C 0.56213 0.75302 0.51103 0.0
C590 C 0.57021 0.72427 0.51375 0.0
C591 C 0.5274 0.78846 0.51792 0.0
C592 C 0.52667 0.80085 0.50126 0.0
C593 C 0.52626 0.80996 0.53372 0.0
C594 C 0.52917 0.79991 0.55181 0.0
C595 C 0.55955 0.79677 0.55741 0.0
C596 C 0.56208 0.78718 0.57447 0.0
C597 C 0.53456 0.78104 0.58612 0.0
C598 C 0.50449 0.78456 0.58074 0.0
C599 C 0.50179 0.79407 0.56367 0.0
H600 H 0.53658 0.77366 0.59933 0.0
H601 H 0.53378 0.88121 0.43527 0.0
H602 H 0.67689 0.47664 0.81449 0.0
H603 H 0.73849 0.48517 0.81068 0.0
H604 H 0.77976 0.59464 0.83889 0.0
H605 H 0.71896 0.58604 0.84323 0.0
H606 H 0.81106 0.58536 0.80364 0.0
H607 H 0.77806 0.53447 0.86193 0.0
H608 H 0.7385 0.48449 0.87901 0.0
H609 H 0.76055 0.40667 0.84513 0.0
H610 H 0.79993 0.45621 0.82773 0.0
H611 H 0.9795 0.67116 0.84484 0.0
H612 H 0.91804 0.64212 0.83301 0.0
H613 H 0.91774 0.53588 0.82739 0.0
H614 H 0.97835 0.56441 0.84091 0.0
H615 H 0.86242 0.52789 0.84226 0.0
H616 H 0.90877 0.57952 0.78976 0.0
H617 H 0.94641 0.6254 0.7703 0.0
H618 H 0.8981 0.69507 0.78797 0.0
H619 H 0.86054 0.64992 0.80775 0.0
C620 C 0.69925 0.50237 0.81989 0.0
C621 C 0.69345 0.53065 0.82919 0.0
C622 C 0.73413 0.50722 0.81762 0.0
C623 C 0.7633 0.54062 0.82429 0.0
C624 C 0.75744 0.56884 0.83349 0.0
C625 C 0.72278 0.56376 0.83609 0.0
C626 C 0.8003 0.54627 0.82257 0.0
C627 C 0.82256 0.57283 0.81195 0.0
C628 C 0.81448 0.5283 0.8327 0.0
C629 C 0.79163 0.4989 0.84347 0.0
C630 C 0.77432 0.50666 0.85809 0.0
C631 C 0.75196 0.47843 0.86783 0.0
C632 C 0.74695 0.44241 0.86313 0.0
C633 C 0.76445 0.43458 0.84875 0.0
C634 C 0.7868 0.46272 0.83896 0.0
C635 C 0.96648 0.64162 0.8411 0.0
C636 C 0.98386 0.62017 0.84413 0.0
C637 C 0.9314 0.62503 0.83393 0.0
C638 C 0.91318 0.58673 0.82902 0.0
C639 C 0.93118 0.56547 0.83103 0.0
C640 C 0.96608 0.58197 0.8386 0.0
C641 C 0.8743 0.56889 0.82401 0.0
C642 C 0.85137 0.53984 0.83334 0.0
C643 C 0.85942 0.5839 0.81224 0.0
C644 C 0.88183 0.61126 0.80029 0.0
C645 C 0.90628 0.60471 0.78958 0.0
C646 C 0.92761 0.63059 0.77848 0.0
C647 C 0.92465 0.66313 0.7779 0.0
C648 C 0.90032 0.66983 0.78841 0.0
C649 C 0.87893 0.64404 0.79954 0.0
H650 H 0.9412 0.68315 0.76931 0.0
H651 H 0.72957 0.42057 0.87066 0.0
H652 H 0.13859 0.65911 0.18423 0.0
H653 H 0.19647 0.71399 0.18776 0.0
H654 H 0.22915 0.67374 0.13931 0.0
H655 H 0.17177 0.61799 0.13625 0.0
H656 H 0.28014 0.69694 0.16295 0.0
H657 H 0.20857 0.74944 0.14226 0.0
H658 H 0.1576 0.76381 0.14107 0.0
H659 H 0.18691 0.82028 0.19447 0.0
H660 H 0.23779 0.80582 0.19608 0.0
H661 H 0.44172 0.86285 0.16559 0.0
H662 H 0.38147 0.81593 0.15524 0.0
H663 H 0.34224 0.83418 0.20642 0.0
H664 H 0.40231 0.88073 0.21693 0.0
H665 H 0.29529 0.82432 0.1779 0.0
H666 H 0.36267 0.76281 0.19849 0.0
H667 H 0.41456 0.74963 0.19813 0.0
H668 H 0.39344 0.71255 0.14181 0.0
H669 H 0.34132 0.72526 0.14189 0.0
C670 C 0.15805 0.66219 0.17427 0.0
C671 C 0.15083 0.63444 0.15997 0.0
C672 C 0.19106 0.6937 0.17621 0.0
C673 C 0.21711 0.69842 0.16364 0.0
C674 C 0.20954 0.67084 0.14917 0.0
C675 C 0.17675 0.63905 0.1474 0.0
C676 C 0.25297 0.73094 0.16623 0.0
C677 C 0.28332 0.72481 0.16585 0.0
C678 C 0.25741 0.76743 0.17024 0.0
C679 C 0.22686 0.77628 0.16934 0.0
C680 C 0.20401 0.76469 0.1538 0.0
C681 C 0.17515 0.7729 0.15304 0.0
C682 C 0.16898 0.79288 0.1677 0.0
C683 C 0.19171 0.80478 0.18313 0.0
C684 C 0.22059 0.79663 0.18396 0.0
C685 C 0.42024 0.85698 0.17462 0.0
C686 C 0.42692 0.87535 0.19214 0.0
C687 C 0.38582 0.83026 0.16866 0.0
C688 C 0.3575 0.82129 0.18015 0.0
C689 C 0.36372 0.84075 0.19733 0.0
C690 C 0.39809 0.86745 0.2033 0.0
C691 C 0.32193 0.78999 0.17479 0.0
C692 C 0.2918 0.79639 0.17472 0.0
C693 C 0.31763 0.7538 0.17009 0.0
C694 C 0.34832 0.7452 0.17018 0.0
C695 C 0.36914 0.75184 0.18604 0.0
C696 C 0.39853 0.74437 0.1859 0.0
C697 C 0.40727 0.73021 0.16996 0.0
C698 C 0.38657 0.72336 0.15416 0.0
C699 C 0.35703 0.73055 0.15426 0.0
H700 H 0.43008 0.72452 0.16985 0.0
H701 H 0.14662 0.7992 0.16709 0.0
H702 H 0.53997 0.14513 0.53187 0.0
H703 H 0.54959 0.20893 0.5344 0.0
H704 H 0.45888 0.17666 0.49741 0.0
H705 H 0.45097 0.11326 0.49384 0.0
H706 H 0.50727 0.23825 0.49003 0.0
H707 H 0.45675 0.19512 0.54484 0.0
H708 H 0.45105 0.16618 0.57259 0.0
H709 H 0.55486 0.25055 0.59221 0.0
H710 H 0.5614 0.27975 0.56446 0.0
H711 H 0.49354 0.40686 0.51547 0.0
H712 H 0.47934 0.34113 0.51222 0.0
H713 H 0.58383 0.36942 0.53539 0.0
H714 H 0.59829 0.43483 0.53835 0.0
H715 H 0.5245 0.30949 0.54992 0.0
H716 H 0.57367 0.3501 0.49338 0.0
H717 H 0.57634 0.37813 0.4656 0.0
H718 H 0.46907 0.29659 0.44972 0.0
H719 H 0.4656 0.26838 0.47756 0.0
C720 C 0.52256 0.15179 0.524 0.0
C721 C 0.49508 0.12433 0.51245 0.0
C722 C 0.52766 0.18821 0.52569 0.0
C723 C 0.50455 0.19771 0.51636 0.0
C724 C 0.47708 0.17019 0.50478 0.0
C725 C 0.47246 0.1339 0.5028 0.0
C726 C 0.5092 0.23631 0.51856 0.0
C727 C 0.5104 0.25349 0.50316 0.0
C728 C 0.51368 0.25664 0.53566 0.0
C729 C 0.50967 0.23945 0.55249 0.0
C730 C 0.47845 0.2074 0.55502 0.0
C731 C 0.47506 0.19095 0.57076 0.0
C732 C 0.50261 0.20646 0.58414 0.0
C733 C 0.53356 0.23854 0.58183 0.0
C734 C 0.5371 0.25508 0.56611 0.0
C735 C 0.51339 0.39892 0.51984 0.0
C736 C 0.54711 0.42587 0.527 0.0
C737 C 0.50531 0.3615 0.51797 0.0
C738 C 0.5306 0.3505 0.52355 0.0
C739 C 0.56397 0.37735 0.53101 0.0
C740 C 0.57227 0.41467 0.53257 0.0
C741 C 0.52271 0.31107 0.52144 0.0
C742 C 0.52096 0.29388 0.53685 0.0
C743 C 0.5171 0.29055 0.50439 0.0
C744 C 0.51922 0.30742 0.48764 0.0
C745 C 0.55053 0.33837 0.48405 0.0
C746 C 0.55222 0.35424 0.46827 0.0
C747 C 0.52285 0.33923 0.45593 0.0
C748 C 0.49177 0.30824 0.45931 0.0
C749 C 0.48994 0.29229 0.47508 0.0
H750 H 0.52421 0.35155 0.44372 0.0
H751 H 0.49996 0.19366 0.5963 0.0
H752 H 0.4297 0.53383 0.86074 0.0
H753 H 0.37586 0.54222 0.86346 0.0
H754 H 0.33892 0.48733 0.80987 0.0
H755 H 0.39292 0.47828 0.80716 0.0
H756 H 0.33985 0.55869 0.8176 0.0
H757 H 0.29332 0.44275 0.84054 0.0
H758 H 0.2948 0.39695 0.85892 0.0
H759 H 0.30524 0.46889 0.90684 0.0
H760 H 0.30427 0.51534 0.88875 0.0
H761 H 0.19035 0.59484 0.8378 0.0
H762 H 0.22545 0.5631 0.82701 0.0
H763 H 0.27652 0.58587 0.87985 0.0
H764 H 0.24118 0.61684 0.89068 0.0
H765 H 0.25746 0.517 0.86681 0.0
H766 H 0.31741 0.63651 0.84494 0.0
H767 H 0.32152 0.68627 0.82776 0.0
H768 H 0.29072 0.61149 0.77918 0.0
H769 H 0.286 0.56115 0.79613 0.0
C770 C 0.40991 0.52315 0.84962 0.0
C771 C 0.41525 0.50543 0.83376 0.0
C772 C 0.37917 0.52783 0.85121 0.0
C773 C 0.35345 0.51512 0.83691 0.0
C774 C 0.3585 0.49707 0.82106 0.0
C775 C 0.38915 0.49188 0.81956 0.0
C776 C 0.32264 0.52315 0.83846 0.0
C777 C 0.32106 0.54883 0.828 0.0
C778 C 0.29882 0.5107 0.85227 0.0
C779 C 0.29881 0.48259 0.86326 0.0
C780 C 0.2961 0.44889 0.855 0.0
C781 C 0.29682 0.42279 0.86537 0.0
C782 C 0.30013 0.43001 0.88404 0.0
C783 C 0.30263 0.46331 0.89238 0.0
C784 C 0.30191 0.4895 0.88207 0.0
C785 C 0.2093 0.59322 0.84702 0.0
C786 C 0.21314 0.60821 0.86505 0.0
C787 C 0.22922 0.57506 0.84088 0.0
C788 C 0.25362 0.57219 0.85263 0.0
C789 C 0.2576 0.58745 0.8706 0.0
C790 C 0.23751 0.60522 0.87675 0.0
C791 C 0.2756 0.5538 0.84644 0.0
C792 C 0.27545 0.52609 0.85603 0.0
C793 C 0.2982 0.5648 0.83199 0.0
C794 C 0.30085 0.59498 0.82183 0.0
C795 C 0.31119 0.63061 0.83062 0.0
C796 C 0.3137 0.65893 0.82092 0.0
C797 C 0.30625 0.65201 0.8024 0.0
C798 C 0.29638 0.61678 0.79353 0.0
C799 C 0.29378 0.58835 0.80318 0.0
H800 H 0.30823 0.67398 0.79491 0.0
H801 H 0.30073 0.40979 0.89205 0.0
H802 H 0.87743 0.38689 0.1572 0.0
H803 H 0.82497 0.33072 0.16332 0.0
H804 H 0.88313 0.26773 0.15191 0.0
H805 H 0.93576 0.3238 0.14563 0.0
H806 H 0.81098 0.23155 0.13801 0.0
H807 H 0.8789 0.29577 0.19308 0.0
H808 H 0.90954 0.34938 0.21593 0.0
H809 H 0.81043 0.35329 0.22537 0.0
H810 H 0.77932 0.30026 0.20222 0.0
H811 H 0.71251 0.077 0.18417 0.0
H812 H 0.75781 0.13147 0.17244 0.0
H813 H 0.70027 0.19265 0.18999 0.0
H814 H 0.65515 0.1383 0.20217 0.0
H815 H 0.77014 0.23077 0.19995 0.0
H816 H 0.7015 0.16643 0.14576 0.0
H817 H 0.67018 0.11365 0.12255 0.0
H818 H 0.76892 0.11005 0.11151 0.0
H819 H 0.80079 0.1625 0.13484 0.0
C820 C 0.8789 0.36099 0.15581 0.0
C821 C 0.91068 0.35963 0.1511 0.0
C822 C 0.849 0.32906 0.15935 0.0
C823 C 0.85042 0.29534 0.15834 0.0
C824 C 0.88158 0.29357 0.15281 0.0
C825 C 0.91159 0.32555 0.14928 0.0
C826 C 0.82008 0.2625 0.16408 0.0
C827 C 0.80223 0.23115 0.15159 0.0
C828 C 0.80818 0.26251 0.1817 0.0
C829 C 0.82685 0.29431 0.19572 0.0
C830 C 0.86369 0.3083 0.19987 0.0
C831 C 0.88115 0.33857 0.2129 0.0
C832 C 0.86197 0.35481 0.22205 0.0
C833 C 0.82526 0.3407 0.21826 0.0
C834 C 0.80771 0.31057 0.20516 0.0
C835 C 0.70947 0.10204 0.18552 0.0
C836 C 0.68034 0.1034 0.19418 0.0
C837 C 0.7352 0.13306 0.17866 0.0
C838 C 0.7323 0.16607 0.1802 0.0
C839 C 0.70297 0.16741 0.1886 0.0
C840 C 0.6771 0.13629 0.19544 0.0
C841 C 0.76092 0.19961 0.1739 0.0
C842 C 0.77861 0.23115 0.18632 0.0
C843 C 0.77253 0.19981 0.15621 0.0
C844 C 0.75348 0.1682 0.14218 0.0
C845 C 0.71649 0.15419 0.1385 0.0
C846 C 0.69865 0.12436 0.12529 0.0
C847 C 0.71753 0.10845 0.11559 0.0
C848 C 0.75432 0.12238 0.11905 0.0
C849 C 0.7723 0.15219 0.13225 0.0
H850 H 0.70367 0.08537 0.10537 0.0
H851 H 0.87554 0.37825 0.23213 0.0
H852 H 0.08697 0.54828 0.09972 0.0
H853 H 0.08818 0.56018 0.06863 0.0
H854 H 0.97923 0.47571 0.05891 0.0
H855 H 0.97764 0.46367 0.09027 0.0
H856 H 0.07873 0.51865 0.03661 0.0
H857 H 0.9389 0.50976 0.03025 0.0
H858 H 0.893 0.51384 0.04955 0.0
H859 H 0.9746 0.58622 0.08941 0.0
H860 H 0.02095 0.58296 0.07024 0.0
H861 H 0.05496 0.55316 0.94829 0.0
H862 H 0.0402 0.52349 0.97576 0.0
H863 H 0.05447 0.62576 0.00537 0.0
H864 H 0.0683 0.6554 0.97785 0.0
H865 H 0.99711 0.5666 0.01616 0.0
H866 H 0.12129 0.60237 0.00477 0.0
H867 H 0.17066 0.60315 0.98678 0.0
H868 H 0.12648 0.48548 0.98467 0.0
H869 H 0.07655 0.48398 0.00244 0.0
C870 C 0.06327 0.53199 0.09098 0.0
C871 C 0.03206 0.50528 0.0975 0.0
C872 C 0.06412 0.53868 0.07317 0.0
C873 C 0.03374 0.51904 0.06153 0.0
C874 C 1.00287 0.49135 0.06776 0.0
C875 C 1.00205 0.48445 0.08564 0.0
C876 C 0.03422 0.52947 0.04324 0.0
C877 C 0.06058 0.52866 0.03203 0.0
C878 C 0.01082 0.54295 0.0374 0.0
C879 C 0.98329 0.54571 0.0489 0.0
C880 C 0.94701 0.52662 0.04311 0.0
C881 C 0.92093 0.52879 0.05403 0.0
C882 C 0.93087 0.55016 0.07073 0.0
C883 C 0.96692 0.56956 0.0765 0.0
C884 C 0.9931 0.56753 0.06563 0.0
C885 C 0.05426 0.56916 0.96058 0.0
C886 C 0.06297 0.6067 0.96094 0.0
C887 C 0.04604 0.5522 0.97627 0.0
C888 C 0.04656 0.57253 0.9926 0.0
C889 C 0.05392 0.60961 0.99289 0.0
C890 C 0.06216 0.62659 0.97721 0.0
C891 C 0.04182 0.55603 0.00959 0.0
C892 C 0.0147 0.55575 0.02056 0.0
C893 C 0.06493 0.54211 0.01536 0.0
C894 C 0.09499 0.54302 0.00474 0.0
C895 C 0.12196 0.57664 0.00034 0.0
C896 C 0.15006 0.57722 0.99021 0.0
C897 C 0.15164 0.54437 0.98454 0.0
C898 C 0.12517 0.51089 0.98903 0.0
C899 C 0.09698 0.51016 0.99914 0.0
H900 H 0.17342 0.54488 0.9767 0.0
H901 H 0.91063 0.55175 0.07917 0.0
H902 H 0.45955 0.01231 0.44988 0.0
H903 H 0.4626 0.0084 0.41726 0.0
H904 H 0.57773 0.06731 0.42319 0.0
H905 H 0.57473 0.07276 0.45564 0.0
H906 H 0.55764 0.09038 0.3974 0.0
H907 H 0.52899 0.96998 0.41326 0.0
H908 H 0.4942 0.91296 0.42698 0.0
H909 H 0.40184 0.88987 0.39349 0.0
H910 H 0.43596 0.9471 0.37975 0.0
H911 H 0.60354 0.01579 0.31609 0.0
H912 H 0.5918 0.02726 0.34753 0.0
H913 H 0.48717 0.01251 0.3313 0.0
H914 H 0.49925 0.00209 0.29972 0.0
H915 H 0.49659 0.96821 0.36094 0.0
H916 H 0.53227 0.09001 0.34352 0.0
H917 H 0.57236 0.14547 0.32992 0.0
H918 H 0.6583 0.16321 0.36685 0.0
H919 H 0.61884 0.10748 0.38048 0.0
C920 C 0.48547 0.0246 0.44419 0.0
C921 C 0.5169 0.0427 0.45533 0.0
C922 C 0.48721 0.02221 0.42555 0.0
C923 C 0.52045 0.03699 0.4177 0.0
C924 C 0.55176 0.05572 0.42886 0.0
C925 C 0.55 0.05874 0.44745 0.0
C926 C 0.52299 0.03241 0.39794 0.0
C927 C 0.54437 0.06358 0.3895 0.0
C928 C 0.50541 0.99755 0.38747 0.0
C929 C 0.4849 0.96302 0.39563 0.0
C930 C 0.50119 0.95287 0.40891 0.0
C931 C 0.48161 0.9205 0.41668 0.0
C932 C 0.44581 0.89785 0.41114 0.0
C933 C 0.42955 0.90748 0.39779 0.0
C934 C 0.449 0.93987 0.39 0.0
C935 C 0.57819 0.01533 0.31927 0.0
C936 C 0.55229 0.00819 0.3056 0.0
C937 C 0.57154 0.02187 0.33715 0.0
C938 C 0.53866 0.0207 0.34164 0.0
C939 C 0.5127 0.01355 0.32802 0.0
C940 C 0.51966 0.0078 0.31007 0.0
C941 C 0.53136 0.02602 0.36066 0.0
C942 C 0.50929 0.99498 0.36891 0.0
C943 C 0.54898 0.06076 0.37102 0.0
C944 C 0.57269 0.09436 0.3629 0.0
C945 C 0.55981 0.10552 0.34862 0.0
C946 C 0.5824 0.13705 0.34094 0.0
C947 C 0.61788 0.15779 0.34749 0.0
C948 C 0.63082 0.14709 0.36177 0.0
C949 C 0.60835 0.11555 0.36949 0.0
H950 H 0.63533 0.18221 0.34152 0.0
H951 H 0.4307 0.8728 0.41717 0.0
H952 H 0.50363 0.51498 0.77076 0.0
H953 H 0.50841 0.52577 0.73926 0.0
H954 H 0.62142 0.55846 0.74367 0.0
H955 H 0.61687 0.5473 0.77516 0.0
H956 H 0.60207 0.60736 0.72661 0.0
H957 H 0.57225 0.47859 0.72351 0.0
H958 H 0.53647 0.41446 0.72979 0.0
H959 H 0.44414 0.41047 0.70304 0.0
H960 H 0.47927 0.47484 0.69683 0.0
H961 H 0.64109 0.60446 0.63517 0.0
H962 H 0.6344 0.59557 0.66678 0.0
H963 H 0.51972 0.54551 0.65823 0.0
H964 H 0.52619 0.553 0.62636 0.0
H965 H 0.53836 0.50598 0.67773 0.0
H966 H 0.56679 0.63308 0.67998 0.0
H967 H 0.60086 0.69769 0.67404 0.0
H968 H 0.6933 0.70594 0.70262 0.0
H969 H 0.65992 0.64118 0.70852 0.0
C970 C 0.52952 0.52443 0.76504 0.0
C971 C 0.55987 0.5302 0.77544 0.0
C972 C 0.53216 0.5305 0.74704 0.0
C973 C 0.56524 0.54281 0.73918 0.0
C974 C 0.59566 0.54896 0.74954 0.0
C975 C 0.59296 0.54238 0.76748 0.0
C976 C 0.56803 0.54923 0.7201 0.0
C977 C 0.58855 0.58519 0.71587 0.0
C978 C 0.54944 0.5204 0.70622 0.0
C979 C 0.52829 0.48167 0.70988 0.0
C980 C 0.54423 0.46417 0.71912 0.0
C981 C 0.52409 0.42775 0.72263 0.0
C982 C 0.48802 0.40844 0.71687 0.0
C983 C 0.47206 0.42549 0.70753 0.0
C984 C 0.49208 0.46193 0.70399 0.0
C985 C 0.61441 0.59141 0.63998 0.0
C986 C 0.58416 0.57936 0.62821 0.0
C987 C 0.61064 0.58671 0.65811 0.0
C988 C 0.57656 0.57022 0.66494 0.0
C989 C 0.54629 0.55841 0.65327 0.0
C990 C 0.55004 0.56302 0.63509 0.0
C991 C 0.57261 0.56423 0.68412 0.0
C992 C 0.55184 0.52829 0.68841 0.0
C993 C 0.59073 0.59318 0.69808 0.0
C994 C 0.61094 0.63215 0.69455 0.0
C995 C 0.59447 0.64857 0.68487 0.0
C996 C 0.61365 0.68524 0.68154 0.0
C997 C 0.64925 0.70588 0.68791 0.0
C998 C 0.66573 0.6899 0.69767 0.0
C999 C 0.64669 0.65322 0.70103 0.0
H1000 H 0.66404 0.73427 0.68532 0.0
H1001 H 0.47248 0.38024 0.7196 0.0
H1002 H 0.46642 0.00547 0.56987 0.0
H1003 H 0.4724 0.99893 0.60166 0.0
H1004 H 0.58603 0.06799 0.60189 0.0
H1005 H 0.58027 0.07547 0.57039 0.0
H1006 H 0.55974 0.99416 0.6161 0.0
H1007 H 0.54765 0.10735 0.62048 0.0
H1008 H 0.51675 0.14414 0.61421 0.0
H1009 H 0.42427 0.0708 0.63956 0.0
H1010 H 0.45446 0.03319 0.64571 0.0
H1011 H 0.6297 0.04477 0.70477 0.0
H1012 H 0.61222 0.04274 0.6736 0.0
H1013 H 0.50184 1.00076 0.68684 0.0
H1014 H 0.51939 0.00403 0.71835 0.0
H1015 H 0.51863 0.05379 0.66549 0.0
H1016 H 0.5312 0.94408 0.66417 0.0
H1017 H 0.55957 0.90472 0.66992 0.0
H1018 H 0.64709 0.9667 0.63842 0.0
H1019 H 0.6195 0.00681 0.63269 0.0
C1020 C 0.49261 0.01944 0.57676 0.0
C1021 C 0.52286 0.04111 0.5677 0.0
C1022 C 0.49595 0.01569 0.59486 0.0
C1023 C 0.52965 0.03297 0.604 0.0
C1024 C 0.55984 0.05448 0.59499 0.0
C1025 C 0.55644 0.05888 0.57705 0.0
C1026 C 0.5338 0.0283 0.62294 0.0
C1027 C 0.55101 0.00734 0.62695 0.0
C1028 C 0.52118 0.04448 0.63691 0.0
C1029 C 0.50312 0.06718 0.63333 0.0
C1030 C 0.52058 0.09883 0.62454 0.0
C1031 C 0.50324 0.11989 0.62105 0.0
C1032 C 0.46852 0.10974 0.62643 0.0
C1033 C 0.45113 0.07858 0.63537 0.0
C1034 C 0.46835 0.05739 0.63886 0.0
C1035 C 0.60171 0.03528 0.70111 0.0
C1036 C 0.57595 0.02464 0.71406 0.0
C1037 C 0.59169 0.03376 0.68323 0.0
C1038 C 0.55565 0.02115 0.67783 0.0
C1039 C 0.52979 0.01042 0.6907 0.0
C1040 C 0.53982 0.012 0.70865 0.0
C1041 C 0.54547 0.02028 0.65881 0.0
C1042 C 0.52703 0.04013 0.65471 0.0
C1043 C 0.55661 0.00267 0.64471 0.0
C1044 C 0.57339 0.97865 0.64812 0.0
C1045 C 0.55664 0.94952 0.65859 0.0
C1046 C 0.57256 0.92703 0.66182 0.0
C1047 C 0.60515 0.93325 0.65457 0.0
C1048 C 0.62185 0.96193 0.64404 0.0
C1049 C 0.60606 0.98453 0.64078 0.0
H1050 H 0.61742 0.9158 0.65709 0.0
H1051 H 0.45513 0.12608 0.62372 0.0
H1052 H 0.49065 0.46793 0.88437 0.0
H1053 H 0.48644 0.46473 0.91657 0.0
H1054 H 0.59748 0.54457 0.92519 0.0
H1055 H 0.60225 0.54617 0.89282 0.0
H1056 H 0.5856 0.49651 0.9462 0.0
H1057 H 0.52386 0.56567 0.93353 0.0
H1058 H 0.48005 0.57875 0.91781 0.0
H1059 H 0.39409 0.48262 0.93491 0.0
H1060 H 0.43742 0.46869 0.95056 0.0
H1061 H 0.57228 0.53581 0.04021 0.0
H1062 H 0.57746 0.54363 0.00824 0.0
H1063 H 0.47851 0.44442 0.99589 0.0
H1064 H 0.47334 0.43631 0.02779 0.0
H1065 H 0.48553 0.50573 0.97756 0.0
H1066 H 0.55089 0.43774 0.98968 0.0
H1067 H 0.59664 0.42818 0.00579 0.0
H1068 H 0.6787 0.52885 0.99025 0.0
H1069 H 0.63333 0.53927 0.97426 0.0
C1070 C 0.51417 0.48477 0.89314 0.0
C1071 C 0.54675 0.50743 0.8861 0.0
C1072 C 0.51169 0.48315 0.91159 0.0
C1073 C 0.5414 0.50511 0.92347 0.0
C1074 C 0.5741 0.52743 0.91638 0.0
C1075 C 0.57682 0.52837 0.89787 0.0
C1076 C 0.53848 0.50436 0.9432 0.0
C1077 C 0.56401 0.49918 0.95304 0.0
C1078 C 0.51011 0.50738 0.95226 0.0
C1079 C 0.48393 0.51598 0.9431 0.0
C1080 C 0.49563 0.54722 0.93387 0.0
C1081 C 0.47088 0.55479 0.92497 0.0
C1082 C 0.43431 0.53148 0.92532 0.0
C1083 C 0.42242 0.50063 0.93464 0.0
C1084 C 0.44706 0.49291 0.94354 0.0
C1085 C 0.55147 0.51592 0.03068 0.0
C1086 C 0.52247 0.48538 0.03644 0.0
C1087 C 0.55454 0.52032 0.01245 0.0
C1088 C 0.52845 0.49449 -0.00028 0.0
C1089 C 0.49891 0.46463 0.00551 0.0
C1090 C 0.4961 0.45993 0.02369 0.0
C1091 C 0.53251 0.49781 0.98031 0.0
C1092 C 0.5072 0.50341 0.97061 0.0
C1093 C 0.56139 0.49589 0.97144 0.0
C1094 C 0.58868 0.48948 0.98094 0.0
C1095 C 0.57865 0.458 0.98983 0.0
C1096 C 0.60452 0.45239 0.99892 0.0
C1097 C 0.64054 0.47795 0.99909 0.0
C1098 C 0.65078 0.50911 0.99013 0.0
C1099 C 0.625 0.51486 0.98104 0.0
H1100 H 0.66053 0.47356 0.00613 0.0
H1101 H 0.41519 0.53735 0.91841 0.0
H1102 H 0.97511 0.44671 0.20825 0.0
H1103 H 0.97325 0.44418 0.24059 0.0
H1104 H 0.08235 0.52933 0.24769 0.0
H1105 H 0.08414 0.53272 0.21548 0.0
H1106 H 0.00827 0.42729 0.26376 0.0
H1107 H 0.09535 0.58342 0.28654 0.0
H1108 H 0.10907 0.64315 0.27593 0.0
H1109 H 0.00822 0.59406 0.24581 0.0
H1110 H 0.99368 0.53419 0.25643 0.0
H1111 H 0.07068 0.45573 0.35404 0.0
H1112 H 0.06514 0.45604 0.32175 0.0
H1113 H 0.99745 0.50969 0.32976 0.0
H1114 H 1.00422 0.51104 0.36216 0.0
H1115 H 0.04401 0.54097 0.30616 0.0
H1116 H 0.96265 0.41736 0.3141 0.0
H1117 H 0.94268 0.35649 0.32469 0.0
H1118 H 0.02009 0.33845 0.29348 0.0
H1119 H 0.04088 0.39946 0.28289 0.0
C1120 C 0.99873 0.4649 0.21669 0.0
C1121 C 0.02971 0.4901 0.20929 0.0
C1122 C 0.99763 0.46337 0.23518 0.0
C1123 C 0.02747 0.48693 0.24661 0.0
C1124 C 0.05872 0.51144 0.23919 0.0
C1125 C 0.05975 0.51323 0.22074 0.0
C1126 C 0.02602 0.48593 0.2663 0.0
C1127 C 0.01604 0.45214 0.27303 0.0
C1128 C 0.03534 0.51819 0.27841 0.0
C1129 C 0.0436 0.55424 0.27216 0.0
C1130 C 0.07604 0.58542 0.27772 0.0
C1131 C 0.08397 0.61929 0.27169 0.0
C1132 C 0.05958 0.62237 0.26016 0.0
C1133 C 0.02714 0.59161 0.25469 0.0
C1134 C 0.01906 0.55769 0.2607 0.0
C1135 C 0.05486 0.4679 0.34896 0.0
C1136 C 0.03789 0.48336 0.36072 0.0
C1137 C 0.05137 0.46766 0.33047 0.0
C1138 C 0.03049 0.48245 0.3233 0.0
C1139 C 0.01358 0.49798 0.33498 0.0
C1140 C 0.01721 0.49841 0.3535 0.0
C1141 C 0.02702 0.48246 0.30364 0.0
C1142 C 0.03612 0.51609 0.2969 0.0
C1143 C 0.01599 0.44989 0.29154 0.0
C1144 C 1.00351 0.41312 0.29782 0.0
C1145 C 0.97559 0.40053 0.3096 0.0
C1146 C 0.9641 0.36598 0.31558 0.0
C1147 C 0.98016 0.34365 0.30979 0.0
C1148 C 0.0077 0.35579 0.29797 0.0
C1149 C 0.01932 0.39034 0.29195 0.0
H1150 H 0.97122 0.31691 0.31444 0.0
H1151 H 0.06579 0.6486 0.25549 0.0
loop_
_geom_bond_atom_site_label_1
_geom_bond_atom_site_label_2
_geom_bond_distance
_geom_bond_site_symmetry_2
_ccdc_geom_bond_type
Tb0 O3 2.453 1_455 S
Tb0 O4 2.596 1_455 S
Tb0 O5 2.374 . S
Tb0 O13 2.343 . S
Tb0 O15 2.353 . S
Tb0 O17 2.427 . S
Tb0 O18 2.513 . S
C1 O5 1.251 . S
C1 O7 1.263 . S
Tb2 O4 2.343 1_455 S
Tb2 O7 2.353 . S
Tb2 O10 2.427 1_455 S
Tb2 O11 2.513 1_455 S
Tb2 O12 2.453 . S
Tb2 O13 2.596 . S
Tb2 O14 2.374 . S
O3 Tb0 2.453 1_655 S
O3 C19 1.245 . S
O4 Tb0 2.596 1_655 S
O4 Tb2 2.343 1_655 S
O4 C19 1.259 . S
O5 Tb0 2.374 . S
O5 C1 1.251 . S
C6 O10 1.275 . S
C6 O11 1.246 . S
O7 C1 1.263 . S
O7 Tb2 2.353 . S
C8 O12 1.245 . S
C8 O13 1.259 . S
C9 O14 1.250 . S
C9 O15 1.263 . S
O10 Tb2 2.427 1_655 S
O10 C6 1.275 . S
O11 Tb2 2.513 1_655 S
O11 C6 1.246 . S
O12 Tb2 2.453 . S
O12 C8 1.245 . S
O13 Tb0 2.343 . S
O13 Tb2 2.596 . S
O13 C8 1.259 . S
O14 Tb2 2.374 . S
O14 C9 1.250 . S
O15 Tb0 2.353 . S
O15 C9 1.263 . S
C16 O17 1.275 . S
C16 O18 1.246 . S
O17 Tb0 2.427 . S
O17 C16 1.275 . S
O18 Tb0 2.513 . S
O18 C16 1.246 . S
C19 O3 1.245 . S
C19 O4 1.259 . S
Tb20 O23 2.453 . S
Tb20 O24 2.596 . S
Tb20 O25 2.374 . S
Tb20 O33 2.343 1_545 S
Tb20 O35 2.353 . S
Tb20 O37 2.427 1_545 S
Tb20 O38 2.513 1_545 S
C21 O25 1.251 . S
C21 O27 1.263 . S
Tb22 O24 2.343 . S
Tb22 O27 2.353 . S
Tb22 O30 2.427 . S
Tb22 O31 2.513 . S
Tb22 O32 2.453 1_545 S
Tb22 O33 2.596 1_545 S
Tb22 O34 2.374 . S
O23 Tb20 2.453 . S
O23 C39 1.245 . S
O24 Tb20 2.596 . S
O24 Tb22 2.343 . S
O24 C39 1.259 . S
O25 Tb20 2.374 . S
O25 C21 1.251 . S
C26 O30 1.275 . S
C26 O31 1.246 . S
O27 C21 1.263 . S
O27 Tb22 2.353 . S
C28 O32 1.245 . S
C28 O33 1.259 . S
C29 O34 1.250 . S
C29 O35 1.263 . S
O30 Tb22 2.427 . S
O30 C26 1.275 . S
O31 Tb22 2.513 . S
O31 C26 1.246 . S
O32 Tb22 2.453 1_565 S
O32 C28 1.245 . S
O33 Tb20 2.343 1_565 S
O33 Tb22 2.596 1_565 S
O33 C28 1.259 . S
O34 Tb22 2.374 . S
O34 C29 1.250 . S
O35 Tb20 2.353 . S
O35 C29 1.263 . S
C36 O37 1.275 . S
C36 O38 1.246 . S
O37 Tb20 2.427 1_565 S
O37 C36 1.275 . S
O38 Tb20 2.513 1_565 S
O38 C36 1.246 . S
C39 O23 1.245 . S
C39 O24 1.259 . S
Tb40 O43 2.453 . S
Tb40 O44 2.596 . S
Tb40 O45 2.374 . S
Tb40 O53 2.343 . S
Tb40 O55 2.353 . S
Tb40 O57 2.427 . S
Tb40 O58 2.513 . S
C41 O45 1.251 . S
C41 O47 1.263 . S
Tb42 O44 2.343 . S
Tb42 O47 2.353 . S
Tb42 O50 2.427 . S
Tb42 O51 2.513 . S
Tb42 O52 2.453 . S
Tb42 O53 2.596 . S
Tb42 O54 2.374 . S
O43 Tb40 2.453 . S
O43 C59 1.245 . S
O44 Tb40 2.596 . S
O44 Tb42 2.343 . S
O44 C59 1.259 . S
O45 Tb40 2.374 . S
O45 C41 1.251 . S
C46 O50 1.275 . S
C46 O51 1.246 . S
O47 C41 1.263 . S
O47 Tb42 2.353 . S
C48 O52 1.245 . S
C48 O53 1.259 . S
C49 O54 1.250 . S
C49 O55 1.263 . S
O50 Tb42 2.427 . S
O50 C46 1.275 . S
O51 Tb42 2.513 . S
O51 C46 1.246 . S
O52 Tb42 2.453 . S
O52 C48 1.245 . S
O53 Tb40 2.343 . S
O53 Tb42 2.596 . S
O53 C48 1.259 . S
O54 Tb42 2.374 . S
O54 C49 1.250 . S
O55 Tb40 2.353 . S
O55 C49 1.263 . S
C56 O57 1.275 . S
C56 O58 1.246 . S
O57 Tb40 2.427 . S
O57 C56 1.275 . S
O58 Tb40 2.513 . S
O58 C56 1.246 . S
C59 O43 1.245 . S
C59 O44 1.259 . S
P60 O71 1.490 1_545 S
P60 C74 1.812 1_545 S
P60 C80 1.803 . S
P60 C86 1.819 . S
H61 C75 0.941 . S
H62 C76 0.939 . S
H63 C78 0.940 . S
H64 C79 0.940 1_545 S
H65 C81 0.939 . S
H66 C82 0.942 . S
H67 C84 0.940 . S
H68 C85 0.939 . S
H69 C87 0.915 1_565 S
H70 C91 0.939 . S
O71 P60 1.490 1_565 S
H72 C88 0.939 1_565 S
H73 C90 0.940 . S
C74 P60 1.812 1_565 S
C74 C75 1.389 . S
C74 C79 1.391 . S
C75 H61 0.941 . S
C75 C74 1.389 . S
C75 C76 1.397 . S
C76 H62 0.939 . S
C76 C75 1.397 . S
C76 C77 1.378 . S
C77 C76 1.378 . S
C77 C78 1.378 . S
C78 H63 0.940 . S
C78 C77 1.378 . S
C78 C79 1.396 . S
C79 H64 0.940 1_565 S
C79 C74 1.391 . S
C79 C78 1.396 . S
C80 P60 1.803 . S
C80 C81 1.378 . S
C80 C85 1.400 . S
C81 H65 0.939 . S
C81 C80 1.378 . S
C81 C82 1.361 . S
C82 H66 0.942 . S
C82 C81 1.361 . S
C82 C83 1.369 . S
C83 C82 1.369 . S
C83 C84 1.404 . S
C84 H67 0.940 . S
C84 C83 1.404 . S
C84 C85 1.389 . S
C85 H68 0.939 . S
C85 C80 1.400 . S
C85 C84 1.389 . S
C86 P60 1.819 . S
C86 C87 1.410 . S
C86 C91 1.391 . S
C87 H69 0.915 1_545 S
C87 C86 1.410 . S
C87 C88 1.405 . S
C88 H72 0.939 1_545 S
C88 C87 1.405 . S
C88 C89 1.397 . S
C89 C88 1.397 . S
C89 C90 1.385 . S
C90 H73 0.940 . S
C90 C89 1.385 . S
C90 C91 1.388 . S
C91 H70 0.939 . S
C91 C86 1.391 . S
C91 C90 1.388 . S
P92 O103 1.490 . S
P92 C106 1.812 . S
P92 C112 1.803 . S
P92 C118 1.819 . S
H93 C107 0.941 . S
H94 C108 0.939 . S
H95 C110 0.940 . S
H96 C111 0.940 . S
H97 C113 0.939 . S
H98 C114 0.942 . S
H99 C116 0.940 . S
H100 C117 0.939 . S
H101 C119 0.941 . S
H102 C123 0.939 . S
O103 P92 1.490 . S
H104 C120 0.939 . S
H105 C122 0.940 . S
C106 P92 1.812 . S
C106 C107 1.389 . S
C106 C111 1.391 . S
C107 H93 0.941 . S
C107 C106 1.389 . S
C107 C108 1.397 . S
C108 H94 0.939 . S
C108 C107 1.397 . S
C108 C109 1.378 . S
C109 C108 1.378 . S
C109 C110 1.378 . S
C110 H95 0.940 . S
C110 C109 1.378 . S
C110 C111 1.396 . S
C111 H96 0.940 . S
C111 C106 1.391 . S
C111 C110 1.396 . S
C112 P92 1.803 . S
C112 C113 1.378 . S
C112 C117 1.400 . S
C113 H97 0.939 . S
C113 C112 1.378 . S
C113 C114 1.361 . S
C114 H98 0.942 . S
C114 C113 1.361 . S
C114 C115 1.369 . S
C115 C114 1.369 . S
C115 C116 1.404 . S
C116 H99 0.940 . S
C116 C115 1.404 . S
C116 C117 1.389 . S
C117 H100 0.939 . S
C117 C112 1.400 . S
C117 C116 1.389 . S
C118 P92 1.819 . S
C118 C119 1.391 . S
C118 C123 1.391 . S
C119 H101 0.941 . S
C119 C118 1.391 . S
C119 C120 1.396 . S
C120 H104 0.939 . S
C120 C119 1.396 . S
C120 C121 1.397 . S
C121 C120 1.397 . S
C121 C122 1.385 . S
C122 H105 0.940 . S
C122 C121 1.385 . S
C122 C123 1.388 . S
C123 H102 0.939 . S
C123 C118 1.391 . S
C123 C122 1.388 . S
P124 O135 1.490 . S
P124 C138 1.812 . S
P124 C144 1.803 . S
P124 C150 1.819 . S
H125 C139 0.941 . S
H126 C140 0.939 . S
H127 C142 0.940 . S
H128 C143 0.940 . S
H129 C145 0.939 . S
H130 C146 0.942 1_655 S
H131 C148 0.940 1_655 S
H132 C149 0.939 . S
H133 C151 0.941 . S
H134 C155 0.939 . S
O135 P124 1.490 . S
H136 C152 0.939 . S
H137 C154 0.940 . S
C138 P124 1.812 . S
C138 C139 1.389 . S
C138 C143 1.391 . S
C139 H125 0.941 . S
C139 C138 1.389 . S
C139 C140 1.397 . S
C140 H126 0.939 . S
C140 C139 1.397 . S
C140 C141 1.378 . S
C141 C140 1.378 . S
C141 C142 1.378 . S
C142 H127 0.940 . S
C142 C141 1.378 . S
C142 C143 1.396 . S
C143 H128 0.940 . S
C143 C138 1.391 . S
C143 C142 1.396 . S
C144 P124 1.803 . S
C144 C145 1.378 . S
C144 C149 1.400 . S
C145 H129 0.939 . S
C145 C144 1.378 . S
C145 C146 1.361 . S
C146 H130 0.942 1_455 S
C146 C145 1.361 . S
C146 C147 1.369 1_455 S
C147 C146 1.369 1_655 S
C147 C148 1.404 1_655 S
C148 H131 0.940 1_455 S
C148 C147 1.404 1_455 S
C148 C149 1.389 . S
C149 H132 0.939 . S
C149 C144 1.400 . S
C149 C148 1.389 . S
C150 P124 1.819 . S
C150 C151 1.391 . S
C150 C155 1.391 . S
C151 H133 0.941 . S
C151 C150 1.391 . S
C151 C152 1.396 . S
C152 H136 0.939 . S
C152 C151 1.396 . S
C152 C153 1.397 . S
C153 C152 1.397 . S
C153 C154 1.385 . S
C154 H137 0.940 . S
C154 C153 1.385 . S
C154 C155 1.388 . S
C155 H134 0.939 . S
C155 C150 1.391 . S
C155 C154 1.388 . S
P156 O167 1.490 . S
P156 C170 1.812 . S
P156 C176 1.803 1_455 S
P156 C182 1.819 . S
H157 C171 0.941 . S
H158 C172 0.939 . S
H159 C174 0.940 . S
H160 C175 0.940 . S
H161 C177 0.939 . S
H162 C178 0.942 . S
H163 C180 0.940 . S
H164 C181 0.939 . S
H165 C183 0.941 . S
H166 C187 0.939 . S
O167 P156 1.490 . S
H168 C184 0.939 . S
H169 C186 0.940 . S
C170 P156 1.812 . S
C170 C171 1.389 . S
C170 C175 1.391 . S
C171 H157 0.941 . S
C171 C170 1.389 . S
C171 C172 1.397 . S
C172 H158 0.939 . S
C172 C171 1.397 . S
C172 C173 1.378 . S
C173 C172 1.378 . S
C173 C174 1.378 . S
C174 H159 0.940 . S
C174 C173 1.378 . S
C174 C175 1.396 . S
C175 H160 0.940 . S
C175 C170 1.391 . S
C175 C174 1.396 . S
C176 P156 1.803 1_655 S
C176 C177 1.378 . S
C176 C181 1.400 . S
C177 H161 0.939 . S
C177 C176 1.378 . S
C177 C178 1.361 . S
C178 H162 0.942 . S
C178 C177 1.361 . S
C178 C179 1.369 . S
C179 C178 1.369 . S
C179 C180 1.404 . S
C180 H163 0.940 . S
C180 C179 1.404 . S
C180 C181 1.389 . S
C181 H164 0.939 . S
C181 C176 1.400 . S
C181 C180 1.389 . S
C182 P156 1.819 . S
C182 C183 1.391 . S
C182 C187 1.391 1_455 S
C183 H165 0.941 . S
C183 C182 1.391 . S
C183 C184 1.396 . S
C184 H168 0.939 . S
C184 C183 1.396 . S
C184 C185 1.397 . S
C185 C184 1.397 . S
C185 C186 1.385 1_455 S
C186 H169 0.940 . S
C186 C185 1.385 1_655 S
C186 C187 1.388 . S
C187 H166 0.939 . S
C187 C182 1.391 1_655 S
C187 C186 1.388 . S
P188 O199 1.490 . S
P188 C202 1.812 . S
P188 C208 1.803 . S
P188 C214 1.819 . S
H189 C203 0.941 . S
H190 C204 0.939 . S
H191 C206 0.940 . S
H192 C207 0.940 . S
H193 C209 0.939 . S
H194 C210 0.942 . S
H195 C212 0.940 . S
H196 C213 0.931 1_545 S
H197 C215 0.941 . S
H198 C219 0.939 . S
O199 P188 1.490 . S
H200 C216 0.939 . S
H201 C218 0.940 . S
C202 P188 1.812 . S
C202 C203 1.389 . S
C202 C207 1.391 . S
C203 H189 0.941 . S
C203 C202 1.389 . S
C203 C204 1.397 . S
C204 H190 0.939 . S
C204 C203 1.397 . S
C204 C205 1.378 . S
C205 C204 1.378 . S
C205 C206 1.378 . S
C206 H191 0.940 . S
C206 C205 1.378 . S
C206 C207 1.396 . S
C207 H192 0.940 . S
C207 C202 1.391 . S
C207 C206 1.396 . S
C208 P188 1.803 . S
C208 C209 1.378 1_545 S
C208 C213 1.400 1_545 S
C209 H193 0.939 . S
C209 C208 1.378 1_565 S
C209 C210 1.361 . S
C210 H194 0.942 . S
C210 C209 1.361 . S
C210 C211 1.369 . S
C211 C210 1.369 . S
C211 C212 1.404 . S
C212 H195 0.940 . S
C212 C211 1.404 . S
C212 C213 1.389 . S
C213 H196 0.931 1_565 S
C213 C208 1.400 1_565 S
C213 C212 1.389 . S
C214 P188 1.819 . S
C214 C215 1.391 . S
C214 C219 1.391 1_545 S
C215 H197 0.941 . S
C215 C214 1.391 . S
C215 C216 1.396 . S
C216 H200 0.939 . S
C216 C215 1.396 . S
C216 C217 1.397 . S
C217 C216 1.397 . S
C217 C218 1.385 1_545 S
C218 H201 0.940 . S
C218 C217 1.385 1_565 S
C218 C219 1.388 . S
C219 H198 0.939 . S
C219 C214 1.391 1_565 S
C219 C218 1.388 . S
P220 O231 1.490 . S
P220 C234 1.812 . S
P220 C240 1.803 . S
P220 C246 1.819 . S
H221 C235 0.941 . S
H222 C236 0.939 . S
H223 C238 0.940 . S
H224 C239 0.940 . S
H225 C241 0.939 . S
H226 C242 0.942 . S
H227 C244 0.940 . S
H228 C245 0.939 . S
H229 C247 0.941 . S
H230 C251 0.939 . S
O231 P220 1.490 . S
H232 C248 0.939 . S
H233 C250 0.940 . S
C234 P220 1.812 . S
C234 C235 1.389 . S
C234 C239 1.391 . S
C235 H221 0.941 . S
C235 C234 1.389 . S
C235 C236 1.397 . S
C236 H222 0.939 . S
C236 C235 1.397 . S
C236 C237 1.378 . S
C237 C236 1.378 . S
C237 C238 1.378 . S
C238 H223 0.940 . S
C238 C237 1.378 . S
C238 C239 1.396 . S
C239 H224 0.940 . S
C239 C234 1.391 . S
C239 C238 1.396 . S
C240 P220 1.803 . S
C240 C241 1.378 . S
C240 C245 1.400 . S
C241 H225 0.939 . S
C241 C240 1.378 . S
C241 C242 1.361 . S
C242 H226 0.942 . S
C242 C241 1.361 . S
C242 C243 1.369 . S
C243 C242 1.369 . S
C243 C244 1.404 . S
C244 H227 0.940 . S
C244 C243 1.404 . S
C244 C245 1.389 . S
C245 H228 0.939 . S
C245 C240 1.400 . S
C245 C244 1.389 . S
C246 P220 1.819 . S
C246 C247 1.391 . S
C246 C251 1.391 . S
C247 H229 0.941 . S
C247 C246 1.391 . S
C247 C248 1.396 . S
C248 H232 0.939 . S
C248 C247 1.396 . S
C248 C249 1.397 . S
C249 C248 1.397 . S
C249 C250 1.385 . S
C250 H233 0.940 . S
C250 C249 1.385 . S
C250 C251 1.388 . S
C251 H230 0.939 . S
C251 C246 1.391 . S
C251 C250 1.388 . S
H252 C270 0.951 . S
H253 C272 0.951 . S
H254 C274 0.950 . S
H255 C275 0.950 . S
H256 C277 0.950 . S
H257 C280 0.950 . S
H258 C281 0.950 . S
H259 C283 0.950 . S
H260 C284 0.950 . S
H261 C285 0.951 . S
H262 C287 0.951 . S
H263 C289 0.950 . S
H264 C290 0.950 . S
H265 C292 0.950 . S
H266 C295 0.950 . S
H267 C296 0.950 . S
H268 C298 0.950 . S
H269 C299 0.950 . S
C270 H252 0.951 . S
C270 C271 1.366 . S
C270 C272 1.388 . S
C271 C270 1.366 . S
C271 C275 1.385 . S
C272 H253 0.951 . S
C272 C270 1.388 . S
C272 C273 1.366 . S
C273 C272 1.366 . S
C273 C274 1.414 . S
C273 C276 1.499 . S
C274 H254 0.950 . S
C274 C273 1.414 . S
C274 C275 1.374 . S
C275 H255 0.950 . S
C275 C271 1.385 . S
C275 C274 1.374 . S
C276 C273 1.499 . S
C276 C277 1.373 . S
C276 C278 1.389 . S
C277 H256 0.950 . S
C277 C276 1.373 . S
C277 C293 1.377 . S
C278 C276 1.389 . S
C278 C279 1.524 . S
C278 C292 1.377 . S
C279 C278 1.524 . S
C279 C280 1.397 . S
C279 C284 1.363 . S
C280 H257 0.950 . S
C280 C279 1.397 . S
C280 C281 1.334 . S
C281 H258 0.950 . S
C281 C280 1.334 . S
C281 C282 1.287 . S
C282 C281 1.287 . S
C282 C283 1.524 . S
C282 H301 0.913 . S
C283 H259 0.950 . S
C283 C282 1.524 . S
C283 C284 1.415 . S
C284 H260 0.950 . S
C284 C279 1.363 . S
C284 C283 1.415 . S
C285 H261 0.951 . S
C285 C286 1.366 . S
C285 C287 1.388 . S
C286 C285 1.366 . S
C286 C290 1.385 . S
C287 H262 0.951 . S
C287 C285 1.388 . S
C287 C288 1.366 . S
C288 C287 1.366 . S
C288 C289 1.414 . S
C288 C291 1.499 . S
C289 H263 0.950 . S
C289 C288 1.414 . S
C289 C290 1.374 . S
C290 H264 0.950 . S
C290 C286 1.385 . S
C290 C289 1.374 . S
C291 C288 1.499 . S
C291 C292 1.373 . S
C291 C293 1.389 . S
C292 H265 0.950 . S
C292 C278 1.377 . S
C292 C291 1.373 . S
C293 C277 1.377 . S
C293 C291 1.389 . S
C293 C294 1.524 . S
C294 C293 1.524 . S
C294 C295 1.397 . S
C294 C299 1.363 . S
C295 H266 0.950 . S
C295 C294 1.397 . S
C295 C296 1.334 . S
C296 H267 0.950 . S
C296 C295 1.334 . S
C296 C297 1.287 . S
C297 C296 1.287 . S
C297 C298 1.524 . S
C297 H300 0.999 . S
C298 H268 0.950 . S
C298 C297 1.524 . S
C298 C299 1.415 . S
C299 H269 0.950 . S
C299 C294 1.363 . S
C299 C298 1.415 . S
H300 C297 0.999 . S
H301 C282 0.913 . S
H302 C320 0.951 . S
H303 C322 0.951 . S
H304 C324 0.950 . S
H305 C325 0.950 . S
H306 C327 0.950 . S
H307 C330 0.950 . S
H308 C331 0.950 . S
H309 C333 0.950 . S
H310 C334 0.950 . S
H311 C335 0.951 . S
H312 C337 0.951 . S
H313 C339 0.950 . S
H314 C340 0.950 . S
H315 C342 0.950 . S
H316 C345 0.950 . S
H317 C346 0.950 . S
H318 C348 0.950 . S
H319 C349 0.950 . S
C320 H302 0.951 . S
C320 C321 1.366 . S
C320 C322 1.388 . S
C321 C320 1.366 . S
C321 C325 1.385 . S
C322 H303 0.951 . S
C322 C320 1.388 . S
C322 C323 1.366 . S
C323 C322 1.366 . S
C323 C324 1.414 . S
C323 C326 1.499 . S
C324 H304 0.950 . S
C324 C323 1.414 . S
C324 C325 1.374 . S
C325 H305 0.950 . S
C325 C321 1.385 . S
C325 C324 1.374 . S
C326 C323 1.499 . S
C326 C327 1.373 . S
C326 C328 1.389 . S
C327 H306 0.950 . S
C327 C326 1.373 . S
C327 C343 1.377 . S
C328 C326 1.389 . S
C328 C329 1.524 . S
C328 C342 1.377 . S
C329 C328 1.524 . S
C329 C330 1.397 . S
C329 C334 1.363 . S
C330 H307 0.950 . S
C330 C329 1.397 . S
C330 C331 1.334 . S
C331 H308 0.950 . S
C331 C330 1.334 . S
C331 C332 1.287 . S
C332 C331 1.287 . S
C332 C333 1.524 . S
C332 H351 0.913 . S
C333 H309 0.950 . S
C333 C332 1.524 . S
C333 C334 1.415 . S
C334 H310 0.950 . S
C334 C329 1.363 . S
C334 C333 1.415 . S
C335 H311 0.951 . S
C335 C336 1.366 . S
C335 C337 1.388 . S
C336 C335 1.366 . S
C336 C340 1.385 . S
C337 H312 0.951 . S
C337 C335 1.388 . S
C337 C338 1.366 . S
C338 C337 1.366 . S
C338 C339 1.414 . S
C338 C341 1.499 . S
C339 H313 0.950 . S
C339 C338 1.414 . S
C339 C340 1.374 . S
C340 H314 0.950 . S
C340 C336 1.385 . S
C340 C339 1.374 . S
C341 C338 1.499 . S
C341 C342 1.373 . S
C341 C343 1.389 . S
C342 H315 0.950 . S
C342 C328 1.377 . S
C342 C341 1.373 . S
C343 C327 1.377 . S
C343 C341 1.389 . S
C343 C344 1.524 . S
C344 C343 1.524 . S
C344 C345 1.397 . S
C344 C349 1.363 . S
C345 H316 0.950 . S
C345 C344 1.397 . S
C345 C346 1.334 . S
C346 H317 0.950 . S
C346 C345 1.334 . S
C346 C347 1.287 . S
C347 C346 1.287 . S
C347 C348 1.524 . S
C347 H350 0.999 . S
C348 H318 0.950 . S
C348 C347 1.524 . S
C348 C349 1.415 . S
C349 H319 0.950 . S
C349 C344 1.363 . S
C349 C348 1.415 . S
H350 C347 0.999 . S
H351 C332 0.913 . S
H352 C370 0.951 . S
H353 C372 0.951 . S
H354 C374 0.950 . S
H355 C375 0.950 . S
H356 C377 0.950 . S
H357 C380 0.950 . S
H358 C381 0.950 . S
H359 C383 0.950 . S
H360 C384 0.950 . S
H361 C385 0.951 . S
H362 C387 0.951 . S
H363 C389 0.950 . S
H364 C390 0.950 . S
H365 C392 0.950 . S
H366 C395 0.950 . S
H367 C396 0.950 . S
H368 C398 0.950 . S
H369 C399 0.950 . S
C370 H352 0.951 . S
C370 C371 1.366 . S
C370 C372 1.388 . S
C371 C370 1.366 . S
C371 C375 1.385 . S
C372 H353 0.951 . S
C372 C370 1.388 . S
C372 C373 1.366 . S
C373 C372 1.366 . S
C373 C374 1.414 . S
C373 C376 1.499 . S
C374 H354 0.950 . S
C374 C373 1.414 . S
C374 C375 1.374 . S
C375 H355 0.950 . S
C375 C371 1.385 . S
C375 C374 1.374 . S
C376 C373 1.499 . S
C376 C377 1.373 . S
C376 C378 1.389 . S
C377 H356 0.950 . S
C377 C376 1.373 . S
C377 C393 1.377 . S
C378 C376 1.389 . S
C378 C379 1.524 . S
C378 C392 1.377 . S
C379 C378 1.524 . S
C379 C380 1.397 . S
C379 C384 1.363 . S
C380 H357 0.950 . S
C380 C379 1.397 . S
C380 C381 1.334 . S
C381 H358 0.950 . S
C381 C380 1.334 . S
C381 C382 1.287 . S
C382 C381 1.287 . S
C382 C383 1.524 . S
C382 H401 0.913 . S
C383 H359 0.950 . S
C383 C382 1.524 . S
C383 C384 1.415 . S
C384 H360 0.950 . S
C384 C379 1.363 . S
C384 C383 1.415 . S
C385 H361 0.951 . S
C385 C386 1.366 . S
C385 C387 1.388 . S
C386 C385 1.366 . S
C386 C390 1.385 . S
C387 H362 0.951 . S
C387 C385 1.388 . S
C387 C388 1.366 . S
C388 C387 1.366 . S
C388 C389 1.414 . S
C388 C391 1.499 . S
C389 H363 0.950 . S
C389 C388 1.414 . S
C389 C390 1.374 . S
C390 H364 0.950 . S
C390 C386 1.385 . S
C390 C389 1.374 . S
C391 C388 1.499 . S
C391 C392 1.373 . S
C391 C393 1.389 . S
C392 H365 0.950 . S
C392 C378 1.377 . S
C392 C391 1.373 . S
C393 C377 1.377 . S
C393 C391 1.389 . S
C393 C394 1.524 . S
C394 C393 1.524 . S
C394 C395 1.397 . S
C394 C399 1.363 . S
C395 H366 0.950 . S
C395 C394 1.397 . S
C395 C396 1.334 . S
C396 H367 0.950 . S
C396 C395 1.334 . S
C396 C397 1.287 . S
C397 C396 1.287 . S
C397 C398 1.524 . S
C397 H400 0.999 . S
C398 H368 0.950 . S
C398 C397 1.524 . S
C398 C399 1.415 . S
C399 H369 0.950 . S
C399 C394 1.363 . S
C399 C398 1.415 . S
H400 C397 0.999 . S
H401 C382 0.913 . S
H402 C420 0.951 . S
H403 C422 0.951 . S
H404 C424 0.950 . S
H405 C425 0.950 . S
H406 C427 0.950 . S
H407 C430 0.950 . S
H408 C431 0.950 . S
H409 C433 0.950 . S
H410 C434 0.950 . S
H411 C435 0.951 . S
H412 C437 0.951 . S
H413 C439 0.950 . S
H414 C440 0.950 . S
H415 C442 0.950 . S
H416 C445 0.950 . S
H417 C446 0.950 . S
H418 C448 0.950 . S
H419 C449 0.950 . S
C420 H402 0.951 . S
C420 C421 1.366 . S
C420 C422 1.388 . S
C421 C420 1.366 . S
C421 C425 1.385 . S
C422 H403 0.951 . S
C422 C420 1.388 . S
C422 C423 1.366 . S
C423 C422 1.366 . S
C423 C424 1.414 . S
C423 C426 1.499 . S
C424 H404 0.950 . S
C424 C423 1.414 . S
C424 C425 1.374 . S
C425 H405 0.950 . S
C425 C421 1.385 . S
C425 C424 1.374 . S
C426 C423 1.499 . S
C426 C427 1.373 . S
C426 C428 1.389 . S
C427 H406 0.950 . S
C427 C426 1.373 . S
C427 C443 1.377 . S
C428 C426 1.389 . S
C428 C429 1.524 . S
C428 C442 1.377 . S
C429 C428 1.524 . S
C429 C430 1.397 . S
C429 C434 1.363 . S
C430 H407 0.950 . S
C430 C429 1.397 . S
C430 C431 1.334 . S
C431 H408 0.950 . S
C431 C430 1.334 . S
C431 C432 1.287 . S
C432 C431 1.287 . S
C432 C433 1.524 . S
C432 H451 0.913 . S
C433 H409 0.950 . S
C433 C432 1.524 . S
C433 C434 1.415 . S
C434 H410 0.950 . S
C434 C429 1.363 . S
C434 C433 1.415 . S
C435 H411 0.951 . S
C435 C436 1.366 . S
C435 C437 1.388 . S
C436 C435 1.366 . S
C436 C440 1.385 . S
C437 H412 0.951 . S
C437 C435 1.388 . S
C437 C438 1.366 . S
C438 C437 1.366 . S
C438 C439 1.414 . S
C438 C441 1.499 . S
C439 H413 0.950 . S
C439 C438 1.414 . S
C439 C440 1.374 . S
C440 H414 0.950 . S
C440 C436 1.385 . S
C440 C439 1.374 . S
C441 C438 1.499 . S
C441 C442 1.373 . S
C441 C443 1.389 . S
C442 H415 0.950 . S
C442 C428 1.377 . S
C442 C441 1.373 . S
C443 C427 1.377 . S
C443 C441 1.389 . S
C443 C444 1.524 . S
C444 C443 1.524 . S
C444 C445 1.397 . S
C444 C449 1.363 . S
C445 H416 0.950 . S
C445 C444 1.397 . S
C445 C446 1.334 . S
C446 H417 0.950 . S
C446 C445 1.334 . S
C446 C447 1.287 . S
C447 C446 1.287 . S
C447 C448 1.524 . S
C447 H450 0.999 . S
C448 H418 0.950 . S
C448 C447 1.524 . S
C448 C449 1.415 . S
C449 H419 0.950 . S
C449 C444 1.363 . S
C449 C448 1.415 . S
H450 C447 0.999 . S
H451 C432 0.913 . S
H452 C470 0.951 . S
H453 C472 0.951 . S
H454 C474 0.950 . S
H455 C475 0.950 . S
H456 C477 0.950 . S
H457 C480 0.950 . S
H458 C481 0.950 . S
H459 C483 0.950 . S
H460 C484 0.950 . S
H461 C485 0.951 . S
H462 C487 0.951 . S
H463 C489 0.950 . S
H464 C490 0.950 . S
H465 C492 0.950 . S
H466 C495 0.950 . S
H467 C496 0.950 . S
H468 C498 0.950 . S
H469 C499 0.950 . S
C470 H452 0.951 . S
C470 C471 1.366 . S
C470 C472 1.388 . S
C471 C470 1.366 . S
C471 C475 1.385 . S
C472 H453 0.951 . S
C472 C470 1.388 . S
C472 C473 1.366 . S
C473 C472 1.366 . S
C473 C474 1.414 . S
C473 C476 1.499 . S
C474 H454 0.950 . S
C474 C473 1.414 . S
C474 C475 1.374 . S
C475 H455 0.950 . S
C475 C471 1.385 . S
C475 C474 1.374 . S
C476 C473 1.499 . S
C476 C477 1.373 . S
C476 C478 1.389 . S
C477 H456 0.950 . S
C477 C476 1.373 . S
C477 C493 1.377 . S
C478 C476 1.389 . S
C478 C479 1.524 . S
C478 C492 1.377 . S
C479 C478 1.524 . S
C479 C480 1.397 . S
C479 C484 1.363 . S
C480 H457 0.950 . S
C480 C479 1.397 . S
C480 C481 1.334 . S
C481 H458 0.950 . S
C481 C480 1.334 . S
C481 C482 1.287 . S
C482 C481 1.287 . S
C482 C483 1.524 . S
C482 H501 0.913 . S
C483 H459 0.950 . S
C483 C482 1.524 . S
C483 C484 1.415 . S
C484 H460 0.950 . S
C484 C479 1.363 . S
C484 C483 1.415 . S
C485 H461 0.951 . S
C485 C486 1.366 . S
C485 C487 1.388 . S
C486 C485 1.366 . S
C486 C490 1.385 . S
C487 H462 0.951 . S
C487 C485 1.388 . S
C487 C488 1.366 . S
C488 C487 1.366 . S
C488 C489 1.414 . S
C488 C491 1.499 . S
C489 H463 0.950 . S
C489 C488 1.414 . S
C489 C490 1.374 . S
C490 H464 0.950 . S
C490 C486 1.385 . S
C490 C489 1.374 . S
C491 C488 1.499 . S
C491 C492 1.373 . S
C491 C493 1.389 . S
C492 H465 0.950 . S
C492 C478 1.377 . S
C492 C491 1.373 . S
C493 C477 1.377 . S
C493 C491 1.389 . S
C493 C494 1.524 . S
C494 C493 1.524 . S
C494 C495 1.397 . S
C494 C499 1.363 . S
C495 H466 0.950 . S
C495 C494 1.397 . S
C495 C496 1.334 . S
C496 H467 0.950 . S
C496 C495 1.334 . S
C496 C497 1.287 . S
C497 C496 1.287 . S
C497 C498 1.524 . S
C497 H500 0.999 . S
C498 H468 0.950 . S
C498 C497 1.524 . S
C498 C499 1.415 . S
C499 H469 0.950 . S
C499 C494 1.363 . S
C499 C498 1.415 . S
H500 C497 0.999 . S
H501 C482 0.913 . S
H502 C520 0.951 . S
H503 C522 0.951 . S
H504 C524 0.950 . S
H505 C525 0.950 . S
H506 C527 0.950 . S
H507 C530 0.950 . S
H508 C531 0.950 . S
H509 C533 0.950 . S
H510 C534 0.950 . S
H511 C535 0.951 . S
H512 C537 0.951 . S
H513 C539 0.950 . S
H514 C540 0.950 . S
H515 C542 0.950 . S
H516 C545 0.950 . S
H517 C546 0.950 . S
H518 C548 0.950 . S
H519 C549 0.950 . S
C520 H502 0.951 . S
C520 C521 1.366 . S
C520 C522 1.388 . S
C521 C520 1.366 . S
C521 C525 1.385 . S
C522 H503 0.951 . S
C522 C520 1.388 . S
C522 C523 1.366 . S
C523 C522 1.366 . S
C523 C524 1.414 . S
C523 C526 1.499 . S
C524 H504 0.950 . S
C524 C523 1.414 . S
C524 C525 1.374 . S
C525 H505 0.950 . S
C525 C521 1.385 . S
C525 C524 1.374 . S
C526 C523 1.499 . S
C526 C527 1.373 . S
C526 C528 1.389 . S
C527 H506 0.950 . S
C527 C526 1.373 . S
C527 C543 1.377 . S
C528 C526 1.389 . S
C528 C529 1.524 . S
C528 C542 1.377 . S
C529 C528 1.524 . S
C529 C530 1.397 . S
C529 C534 1.363 . S
C530 H507 0.950 . S
C530 C529 1.397 . S
C530 C531 1.334 . S
C531 H508 0.950 . S
C531 C530 1.334 . S
C531 C532 1.287 . S
C532 C531 1.287 . S
C532 C533 1.524 . S
C532 H551 0.913 . S
C533 H509 0.950 . S
C533 C532 1.524 . S
C533 C534 1.415 . S
C534 H510 0.950 . S
C534 C529 1.363 . S
C534 C533 1.415 . S
C535 H511 0.951 . S
C535 C536 1.366 . S
C535 C537 1.388 . S
C536 C535 1.366 . S
C536 C540 1.385 . S
C537 H512 0.951 . S
C537 C535 1.388 . S
C537 C538 1.366 . S
C538 C537 1.366 . S
C538 C539 1.414 . S
C538 C541 1.499 . S
C539 H513 0.950 . S
C539 C538 1.414 . S
C539 C540 1.374 . S
C540 H514 0.950 . S
C540 C536 1.385 . S
C540 C539 1.374 . S
C541 C538 1.499 . S
C541 C542 1.373 . S
C541 C543 1.389 . S
C542 H515 0.950 . S
C542 C528 1.377 . S
C542 C541 1.373 . S
C543 C527 1.377 . S
C543 C541 1.389 . S
C543 C544 1.524 . S
C544 C543 1.524 . S
C544 C545 1.397 . S
C544 C549 1.363 . S
C545 H516 0.950 . S
C545 C544 1.397 . S
C545 C546 1.334 . S
C546 H517 0.950 . S
C546 C545 1.334 . S
C546 C547 1.287 . S
C547 C546 1.287 . S
C547 C548 1.524 . S
C547 H550 0.999 . S
C548 H518 0.950 . S
C548 C547 1.524 . S
C548 C549 1.415 . S
C549 H519 0.950 . S
C549 C544 1.363 . S
C549 C548 1.415 . S
H550 C547 0.999 . S
H551 C532 0.913 . S
H552 C570 0.951 . S
H553 C572 0.951 . S
H554 C574 0.950 . S
H555 C575 0.950 . S
H556 C577 0.950 . S
H557 C580 0.950 . S
H558 C581 0.950 . S
H559 C583 0.950 . S
H560 C584 0.950 . S
H561 C585 0.951 . S
H562 C587 0.951 . S
H563 C589 0.950 . S
H564 C590 0.950 . S
H565 C592 0.950 . S
H566 C595 0.950 . S
H567 C596 0.950 . S
H568 C598 0.950 . S
H569 C599 0.950 . S
C570 H552 0.951 . S
C570 C571 1.366 . S
C570 C572 1.388 . S
C571 C570 1.366 . S
C571 C575 1.385 . S
C572 H553 0.951 . S
C572 C570 1.388 . S
C572 C573 1.366 . S
C573 C572 1.366 . S
C573 C574 1.414 . S
C573 C576 1.499 . S
C574 H554 0.950 . S
C574 C573 1.414 . S
C574 C575 1.374 . S
C575 H555 0.950 . S
C575 C571 1.385 . S
C575 C574 1.374 . S
C576 C573 1.499 . S
C576 C577 1.373 . S
C576 C578 1.389 . S
C577 H556 0.950 . S
C577 C576 1.373 . S
C577 C593 1.377 . S
C578 C576 1.389 . S
C578 C579 1.524 . S
C578 C592 1.377 . S
C579 C578 1.524 . S
C579 C580 1.397 . S
C579 C584 1.363 . S
C580 H557 0.950 . S
C580 C579 1.397 . S
C580 C581 1.334 . S
C581 H558 0.950 . S
C581 C580 1.334 . S
C581 C582 1.287 . S
C582 C581 1.287 . S
C582 C583 1.524 . S
C582 H601 0.913 . S
C583 H559 0.950 . S
C583 C582 1.524 . S
C583 C584 1.415 . S
C584 H560 0.950 . S
C584 C579 1.363 . S
C584 C583 1.415 . S
C585 H561 0.951 . S
C585 C586 1.366 . S
C585 C587 1.388 . S
C586 C585 1.366 . S
C586 C590 1.385 . S
C587 H562 0.951 . S
C587 C585 1.388 . S
C587 C588 1.366 . S
C588 C587 1.366 . S
C588 C589 1.414 . S
C588 C591 1.499 . S
C589 H563 0.950 . S
C589 C588 1.414 . S
C589 C590 1.374 . S
C590 H564 0.950 . S
C590 C586 1.385 . S
C590 C589 1.374 . S
C591 C588 1.499 . S
C591 C592 1.373 . S
C591 C593 1.389 . S
C592 H565 0.950 . S
C592 C578 1.377 . S
C592 C591 1.373 . S
C593 C577 1.377 . S
C593 C591 1.389 . S
C593 C594 1.524 . S
C594 C593 1.524 . S
C594 C595 1.397 . S
C594 C599 1.363 . S
C595 H566 0.950 . S
C595 C594 1.397 . S
C595 C596 1.334 . S
C596 H567 0.950 . S
C596 C595 1.334 . S
C596 C597 1.287 . S
C597 C596 1.287 . S
C597 C598 1.524 . S
C597 H600 0.999 . S
C598 H568 0.950 . S
C598 C597 1.524 . S
C598 C599 1.415 . S
C599 H569 0.950 . S
C599 C594 1.363 . S
C599 C598 1.415 . S
H600 C597 0.999 . S
H601 C582 0.913 . S
H602 C620 0.951 . S
H603 C622 0.951 . S
H604 C624 0.950 . S
H605 C625 0.950 . S
H606 C627 0.950 . S
H607 C630 0.950 . S
H608 C631 0.950 . S
H609 C633 0.950 . S
H610 C634 0.950 . S
H611 C635 0.951 . S
H612 C637 0.951 . S
H613 C639 0.950 . S
H614 C640 0.950 . S
H615 C642 0.950 . S
H616 C645 0.950 . S
H617 C646 0.950 . S
H618 C648 0.950 . S
H619 C649 0.950 . S
C620 H602 0.951 . S
C620 C621 1.366 . S
C620 C622 1.388 . S
C621 C620 1.366 . S
C621 C625 1.385 . S
C622 H603 0.951 . S
C622 C620 1.388 . S
C622 C623 1.366 . S
C623 C622 1.366 . S
C623 C624 1.414 . S
C623 C626 1.499 . S
C624 H604 0.950 . S
C624 C623 1.414 . S
C624 C625 1.374 . S
C625 H605 0.950 . S
C625 C621 1.385 . S
C625 C624 1.374 . S
C626 C623 1.499 . S
C626 C627 1.373 . S
C626 C628 1.389 . S
C627 H606 0.950 . S
C627 C626 1.373 . S
C627 C643 1.377 . S
C628 C626 1.389 . S
C628 C629 1.524 . S
C628 C642 1.377 . S
C629 C628 1.524 . S
C629 C630 1.397 . S
C629 C634 1.363 . S
C630 H607 0.950 . S
C630 C629 1.397 . S
C630 C631 1.334 . S
C631 H608 0.950 . S
C631 C630 1.334 . S
C631 C632 1.287 . S
C632 C631 1.287 . S
C632 C633 1.524 . S
C632 H651 0.913 . S
C633 H609 0.950 . S
C633 C632 1.524 . S
C633 C634 1.415 . S
C634 H610 0.950 . S
C634 C629 1.363 . S
C634 C633 1.415 . S
C635 H611 0.951 . S
C635 C636 1.366 . S
C635 C637 1.388 . S
C636 C635 1.366 . S
C636 C640 1.385 . S
C637 H612 0.951 . S
C637 C635 1.388 . S
C637 C638 1.366 . S
C638 C637 1.366 . S
C638 C639 1.414 . S
C638 C641 1.499 . S
C639 H613 0.950 . S
C639 C638 1.414 . S
C639 C640 1.374 . S
C640 H614 0.950 . S
C640 C636 1.385 . S
C640 C639 1.374 . S
C641 C638 1.499 . S
C641 C642 1.373 . S
C641 C643 1.389 . S
C642 H615 0.950 . S
C642 C628 1.377 . S
C642 C641 1.373 . S
C643 C627 1.377 . S
C643 C641 1.389 . S
C643 C644 1.524 . S
C644 C643 1.524 . S
C644 C645 1.397 . S
C644 C649 1.363 . S
C645 H616 0.950 . S
C645 C644 1.397 . S
C645 C646 1.334 . S
C646 H617 0.950 . S
C646 C645 1.334 . S
C646 C647 1.287 . S
C647 C646 1.287 . S
C647 C648 1.524 . S
C647 H650 0.999 . S
C648 H618 0.950 . S
C648 C647 1.524 . S
C648 C649 1.415 . S
C649 H619 0.950 . S
C649 C644 1.363 . S
C649 C648 1.415 . S
H650 C647 0.999 . S
H651 C632 0.913 . S
H652 C670 0.951 . S
H653 C672 0.951 . S
H654 C674 0.950 . S
H655 C675 0.950 . S
H656 C677 0.950 . S
H657 C680 0.950 . S
H658 C681 0.950 . S
H659 C683 0.950 . S
H660 C684 0.950 . S
H661 C685 0.951 . S
H662 C687 0.951 . S
H663 C689 0.950 . S
H664 C690 0.950 . S
H665 C692 0.950 . S
H666 C695 0.950 . S
H667 C696 0.950 . S
H668 C698 0.950 . S
H669 C699 0.950 . S
C670 H652 0.951 . S
C670 C671 1.366 . S
C670 C672 1.388 . S
C671 C670 1.366 . S
C671 C675 1.385 . S
C672 H653 0.951 . S
C672 C670 1.388 . S
C672 C673 1.366 . S
C673 C672 1.366 . S
C673 C674 1.414 . S
C673 C676 1.499 . S
C674 H654 0.950 . S
C674 C673 1.414 . S
C674 C675 1.374 . S
C675 H655 0.950 . S
C675 C671 1.385 . S
C675 C674 1.374 . S
C676 C673 1.499 . S
C676 C677 1.373 . S
C676 C678 1.389 . S
C677 H656 0.950 . S
C677 C676 1.373 . S
C677 C693 1.377 . S
C678 C676 1.389 . S
C678 C679 1.524 . S
C678 C692 1.377 . S
C679 C678 1.524 . S
C679 C680 1.397 . S
C679 C684 1.363 . S
C680 H657 0.950 . S
C680 C679 1.397 . S
C680 C681 1.334 . S
C681 H658 0.950 . S
C681 C680 1.334 . S
C681 C682 1.287 . S
C682 C681 1.287 . S
C682 C683 1.524 . S
C682 H701 0.913 . S
C683 H659 0.950 . S
C683 C682 1.524 . S
C683 C684 1.415 . S
C684 H660 0.950 . S
C684 C679 1.363 . S
C684 C683 1.415 . S
C685 H661 0.951 . S
C685 C686 1.366 . S
C685 C687 1.388 . S
C686 C685 1.366 . S
C686 C690 1.385 . S
C687 H662 0.951 . S
C687 C685 1.388 . S
C687 C688 1.366 . S
C688 C687 1.366 . S
C688 C689 1.414 . S
C688 C691 1.499 . S
C689 H663 0.950 . S
C689 C688 1.414 . S
C689 C690 1.374 . S
C690 H664 0.950 . S
C690 C686 1.385 . S
C690 C689 1.374 . S
C691 C688 1.499 . S
C691 C692 1.373 . S
C691 C693 1.389 . S
C692 H665 0.950 . S
C692 C678 1.377 . S
C692 C691 1.373 . S
C693 C677 1.377 . S
C693 C691 1.389 . S
C693 C694 1.524 . S
C694 C693 1.524 . S
C694 C695 1.397 . S
C694 C699 1.363 . S
C695 H666 0.950 . S
C695 C694 1.397 . S
C695 C696 1.334 . S
C696 H667 0.950 . S
C696 C695 1.334 . S
C696 C697 1.287 . S
C697 C696 1.287 . S
C697 C698 1.524 . S
C697 H700 0.999 . S
C698 H668 0.950 . S
C698 C697 1.524 . S
C698 C699 1.415 . S
C699 H669 0.950 . S
C699 C694 1.363 . S
C699 C698 1.415 . S
H700 C697 0.999 . S
H701 C682 0.913 . S
H702 C720 0.951 . S
H703 C722 0.951 . S
H704 C724 0.950 . S
H705 C725 0.950 . S
H706 C727 0.950 . S
H707 C730 0.950 . S
H708 C731 0.950 . S
H709 C733 0.950 . S
H710 C734 0.950 . S
H711 C735 0.951 . S
H712 C737 0.951 . S
H713 C739 0.950 . S
H714 C740 0.950 . S
H715 C742 0.950 . S
H716 C745 0.950 . S
H717 C746 0.950 . S
H718 C748 0.950 . S
H719 C749 0.950 . S
C720 H702 0.951 . S
C720 C721 1.366 . S
C720 C722 1.388 . S
C721 C720 1.366 . S
C721 C725 1.385 . S
C722 H703 0.951 . S
C722 C720 1.388 . S
C722 C723 1.366 . S
C723 C722 1.366 . S
C723 C724 1.414 . S
C723 C726 1.499 . S
C724 H704 0.950 . S
C724 C723 1.414 . S
C724 C725 1.374 . S
C725 H705 0.950 . S
C725 C721 1.385 . S
C725 C724 1.374 . S
C726 C723 1.499 . S
C726 C727 1.373 . S
C726 C728 1.389 . S
C727 H706 0.950 . S
C727 C726 1.373 . S
C727 C743 1.377 . S
C728 C726 1.389 . S
C728 C729 1.524 . S
C728 C742 1.377 . S
C729 C728 1.524 . S
C729 C730 1.397 . S
C729 C734 1.363 . S
C730 H707 0.950 . S
C730 C729 1.397 . S
C730 C731 1.334 . S
C731 H708 0.950 . S
C731 C730 1.334 . S
C731 C732 1.287 . S
C732 C731 1.287 . S
C732 C733 1.524 . S
C732 H751 0.913 . S
C733 H709 0.950 . S
C733 C732 1.524 . S
C733 C734 1.415 . S
C734 H710 0.950 . S
C734 C729 1.363 . S
C734 C733 1.415 . S
C735 H711 0.951 . S
C735 C736 1.366 . S
C735 C737 1.388 . S
C736 C735 1.366 . S
C736 C740 1.385 . S
C737 H712 0.951 . S
C737 C735 1.388 . S
C737 C738 1.366 . S
C738 C737 1.366 . S
C738 C739 1.414 . S
C738 C741 1.499 . S
C739 H713 0.950 . S
C739 C738 1.414 . S
C739 C740 1.374 . S
C740 H714 0.950 . S
C740 C736 1.385 . S
C740 C739 1.374 . S
C741 C738 1.499 . S
C741 C742 1.373 . S
C741 C743 1.389 . S
C742 H715 0.950 . S
C742 C728 1.377 . S
C742 C741 1.373 . S
C743 C727 1.377 . S
C743 C741 1.389 . S
C743 C744 1.524 . S
C744 C743 1.524 . S
C744 C745 1.397 . S
C744 C749 1.363 . S
C745 H716 0.950 . S
C745 C744 1.397 . S
C745 C746 1.334 . S
C746 H717 0.950 . S
C746 C745 1.334 . S
C746 C747 1.287 . S
C747 C746 1.287 . S
C747 C748 1.524 . S
C747 H750 0.999 . S
C748 H718 0.950 . S
C748 C747 1.524 . S
C748 C749 1.415 . S
C749 H719 0.950 . S
C749 C744 1.363 . S
C749 C748 1.415 . S
H750 C747 0.999 . S
H751 C732 0.913 . S
H752 C770 0.951 . S
H753 C772 0.951 . S
H754 C774 0.950 . S
H755 C775 0.950 . S
H756 C777 0.950 . S
H757 C780 0.950 . S
H758 C781 0.950 . S
H759 C783 0.950 . S
H760 C784 0.950 . S
H761 C785 0.951 . S
H762 C787 0.951 . S
H763 C789 0.950 . S
H764 C790 0.950 . S
H765 C792 0.950 . S
H766 C795 0.950 . S
H767 C796 0.950 . S
H768 C798 0.950 . S
H769 C799 0.950 . S
C770 H752 0.951 . S
C770 C771 1.366 . S
C770 C772 1.388 . S
C771 C770 1.366 . S
C771 C775 1.385 . S
C772 H753 0.951 . S
C772 C770 1.388 . S
C772 C773 1.366 . S
C773 C772 1.366 . S
C773 C774 1.414 . S
C773 C776 1.499 . S
C774 H754 0.950 . S
C774 C773 1.414 . S
C774 C775 1.374 . S
C775 H755 0.950 . S
C775 C771 1.385 . S
C775 C774 1.374 . S
C776 C773 1.499 . S
C776 C777 1.373 . S
C776 C778 1.389 . S
C777 H756 0.950 . S
C777 C776 1.373 . S
C777 C793 1.377 . S
C778 C776 1.389 . S
C778 C779 1.524 . S
C778 C792 1.377 . S
C779 C778 1.524 . S
C779 C780 1.397 . S
C779 C784 1.363 . S
C780 H757 0.950 . S
C780 C779 1.397 . S
C780 C781 1.334 . S
C781 H758 0.950 . S
C781 C780 1.334 . S
C781 C782 1.287 . S
C782 C781 1.287 . S
C782 C783 1.524 . S
C782 H801 0.913 . S
C783 H759 0.950 . S
C783 C782 1.524 . S
C783 C784 1.415 . S
C784 H760 0.950 . S
C784 C779 1.363 . S
C784 C783 1.415 . S
C785 H761 0.951 . S
C785 C786 1.366 . S
C785 C787 1.388 . S
C786 C785 1.366 . S
C786 C790 1.385 . S
C787 H762 0.951 . S
C787 C785 1.388 . S
C787 C788 1.366 . S
C788 C787 1.366 . S
C788 C789 1.414 . S
C788 C791 1.499 . S
C789 H763 0.950 . S
C789 C788 1.414 . S
C789 C790 1.374 . S
C790 H764 0.950 . S
C790 C786 1.385 . S
C790 C789 1.374 . S
C791 C788 1.499 . S
C791 C792 1.373 . S
C791 C793 1.389 . S
C792 H765 0.950 . S
C792 C778 1.377 . S
C792 C791 1.373 . S
C793 C777 1.377 . S
C793 C791 1.389 . S
C793 C794 1.524 . S
C794 C793 1.524 . S
C794 C795 1.397 . S
C794 C799 1.363 . S
C795 H766 0.950 . S
C795 C794 1.397 . S
C795 C796 1.334 . S
C796 H767 0.950 . S
C796 C795 1.334 . S
C796 C797 1.287 . S
C797 C796 1.287 . S
C797 C798 1.524 . S
C797 H800 0.999 . S
C798 H768 0.950 . S
C798 C797 1.524 . S
C798 C799 1.415 . S
C799 H769 0.950 . S
C799 C794 1.363 . S
C799 C798 1.415 . S
H800 C797 0.999 . S
H801 C782 0.913 . S
H802 C820 0.951 . S
H803 C822 0.951 . S
H804 C824 0.950 . S
H805 C825 0.950 . S
H806 C827 0.950 . S
H807 C830 0.950 . S
H808 C831 0.950 . S
H809 C833 0.950 . S
H810 C834 0.950 . S
H811 C835 0.951 . S
H812 C837 0.951 . S
H813 C839 0.950 . S
H814 C840 0.950 . S
H815 C842 0.950 . S
H816 C845 0.950 . S
H817 C846 0.950 . S
H818 C848 0.950 . S
H819 C849 0.950 . S
C820 H802 0.951 . S
C820 C821 1.366 . S
C820 C822 1.388 . S
C821 C820 1.366 . S
C821 C825 1.385 . S
C822 H803 0.951 . S
C822 C820 1.388 . S
C822 C823 1.366 . S
C823 C822 1.366 . S
C823 C824 1.414 . S
C823 C826 1.499 . S
C824 H804 0.950 . S
C824 C823 1.414 . S
C824 C825 1.374 . S
C825 H805 0.950 . S
C825 C821 1.385 . S
C825 C824 1.374 . S
C826 C823 1.499 . S
C826 C827 1.373 . S
C826 C828 1.389 . S
C827 H806 0.950 . S
C827 C826 1.373 . S
C827 C843 1.377 . S
C828 C826 1.389 . S
C828 C829 1.524 . S
C828 C842 1.377 . S
C829 C828 1.524 . S
C829 C830 1.397 . S
C829 C834 1.363 . S
C830 H807 0.950 . S
C830 C829 1.397 . S
C830 C831 1.334 . S
C831 H808 0.950 . S
C831 C830 1.334 . S
C831 C832 1.287 . S
C832 C831 1.287 . S
C832 C833 1.524 . S
C832 H851 0.913 . S
C833 H809 0.950 . S
C833 C832 1.524 . S
C833 C834 1.415 . S
C834 H810 0.950 . S
C834 C829 1.363 . S
C834 C833 1.415 . S
C835 H811 0.951 . S
C835 C836 1.366 . S
C835 C837 1.388 . S
C836 C835 1.366 . S
C836 C840 1.385 . S
C837 H812 0.951 . S
C837 C835 1.388 . S
C837 C838 1.366 . S
C838 C837 1.366 . S
C838 C839 1.414 . S
C838 C841 1.499 . S
C839 H813 0.950 . S
C839 C838 1.414 . S
C839 C840 1.374 . S
C840 H814 0.950 . S
C840 C836 1.385 . S
C840 C839 1.374 . S
C841 C838 1.499 . S
C841 C842 1.373 . S
C841 C843 1.389 . S
C842 H815 0.950 . S
C842 C828 1.377 . S
C842 C841 1.373 . S
C843 C827 1.377 . S
C843 C841 1.389 . S
C843 C844 1.524 . S
C844 C843 1.524 . S
C844 C845 1.397 . S
C844 C849 1.363 . S
C845 H816 0.950 . S
C845 C844 1.397 . S
C845 C846 1.334 . S
C846 H817 0.950 . S
C846 C845 1.334 . S
C846 C847 1.287 . S
C847 C846 1.287 . S
C847 C848 1.524 . S
C847 H850 0.999 . S
C848 H818 0.950 . S
C848 C847 1.524 . S
C848 C849 1.415 . S
C849 H819 0.950 . S
C849 C844 1.363 . S
C849 C848 1.415 . S
H850 C847 0.999 . S
H851 C832 0.913 . S
H852 C870 0.951 . S
H853 C872 0.951 . S
H854 C874 0.950 . S
H855 C875 0.950 . S
H856 C877 0.950 . S
H857 C880 0.950 . S
H858 C881 0.950 . S
H859 C883 0.950 . S
H860 C884 0.950 . S
H861 C885 0.951 . S
H862 C887 0.951 . S
H863 C889 0.950 . S
H864 C890 0.950 . S
H865 C892 0.950 . S
H866 C895 0.950 . S
H867 C896 0.989 . S
H868 C898 0.950 . S
H869 C899 0.950 . S
C870 H852 0.951 . S
C870 C871 1.366 . S
C870 C872 1.388 . S
C871 C870 1.366 . S
C871 C875 1.385 . S
C872 H853 0.951 . S
C872 C870 1.388 . S
C872 C873 1.366 . S
C873 C872 1.366 . S
C873 C874 1.414 . S
C873 C876 1.499 . S
C874 H854 0.950 . S
C874 C873 1.414 . S
C874 C875 1.374 . S
C875 H855 0.950 . S
C875 C871 1.385 . S
C875 C874 1.374 . S
C876 C873 1.499 . S
C876 C877 1.373 . S
C876 C878 1.389 . S
C877 H856 0.950 . S
C877 C876 1.373 . S
C877 C893 1.377 . S
C878 C876 1.389 . S
C878 C879 1.524 1_455 S
C878 C892 1.377 . S
C879 C878 1.524 1_655 S
C879 C880 1.397 . S
C879 C884 1.363 . S
C880 H857 0.950 . S
C880 C879 1.397 . S
C880 C881 1.334 . S
C881 H858 0.950 . S
C881 C880 1.334 . S
C881 C882 1.287 . S
C882 C881 1.287 . S
C882 C883 1.524 . S
C882 H901 0.913 . S
C883 H859 0.950 . S
C883 C882 1.524 . S
C883 C884 1.415 . S
C884 H860 0.950 . S
C884 C879 1.363 . S
C884 C883 1.415 . S
C885 H861 0.951 . S
C885 C886 1.366 . S
C885 C887 1.388 . S
C886 C885 1.366 . S
C886 C890 1.385 . S
C887 H862 0.951 . S
C887 C885 1.388 . S
C887 C888 1.366 . S
C888 C887 1.366 . S
C888 C889 1.414 . S
C888 C891 1.499 1_556 S
C889 H863 0.950 . S
C889 C888 1.414 . S
C889 C890 1.374 . S
C890 H864 0.950 . S
C890 C886 1.385 . S
C890 C889 1.374 . S
C891 C888 1.499 1_554 S
C891 C892 1.373 . S
C891 C893 1.389 . S
C892 H865 0.950 . S
C892 C878 1.377 . S
C892 C891 1.373 . S
C893 C877 1.377 . S
C893 C891 1.389 . S
C893 C894 1.524 . S
C894 C893 1.524 . S
C894 C895 1.397 . S
C894 C899 1.363 . S
C895 H866 0.950 . S
C895 C894 1.397 . S
C895 C896 1.334 . S
C896 H867 0.989 . S
C896 C895 1.334 . S
C896 C897 1.287 . S
C897 C896 1.287 . S
C897 C898 1.524 . S
C897 H900 0.999 . S
C898 H868 0.950 . S
C898 C897 1.524 . S
C898 C899 1.415 . S
C899 H869 0.950 . S
C899 C894 1.363 . S
C899 C898 1.415 . S
H900 C897 0.999 . S
H901 C882 0.913 . S
H902 C920 0.951 . S
H903 C922 0.951 . S
H904 C924 0.950 . S
H905 C925 0.950 . S
H906 C927 0.950 . S
H907 C930 0.950 . S
H908 C931 0.950 . S
H909 C933 0.950 . S
H910 C934 0.950 1_545 S
H911 C935 0.951 . S
H912 C937 0.951 . S
H913 C939 0.950 . S
H914 C940 0.950 . S
H915 C942 0.950 . S
H916 C945 0.950 . S
H917 C946 0.950 . S
H918 C948 0.950 . S
H919 C949 0.950 . S
C920 H902 0.951 . S
C920 C921 1.366 . S
C920 C922 1.388 . S
C921 C920 1.366 . S
C921 C925 1.385 . S
C922 H903 0.951 . S
C922 C920 1.388 . S
C922 C923 1.366 . S
C923 C922 1.366 . S
C923 C924 1.414 . S
C923 C926 1.499 . S
C924 H904 0.950 . S
C924 C923 1.414 . S
C924 C925 1.374 . S
C925 H905 0.950 . S
C925 C921 1.385 . S
C925 C924 1.374 . S
C926 C923 1.499 . S
C926 C927 1.373 . S
C926 C928 1.389 . S
C927 H906 0.950 . S
C927 C926 1.373 . S
C927 C943 1.377 . S
C928 C926 1.389 . S
C928 C929 1.524 1_545 S
C928 C942 1.377 . S
C929 C928 1.524 1_565 S
C929 C930 1.397 . S
C929 C934 1.363 . S
C930 H907 0.950 . S
C930 C929 1.397 . S
C930 C931 1.334 . S
C931 H908 0.950 . S
C931 C930 1.334 . S
C931 C932 1.287 . S
C932 C931 1.287 . S
C932 C933 1.524 . S
C932 H951 0.913 . S
C933 H909 0.950 . S
C933 C932 1.524 . S
C933 C934 1.415 . S
C934 H910 0.950 1_565 S
C934 C929 1.363 . S
C934 C933 1.415 . S
C935 H911 0.951 . S
C935 C936 1.366 . S
C935 C937 1.388 . S
C936 C935 1.366 . S
C936 C940 1.385 . S
C937 H912 0.951 . S
C937 C935 1.388 . S
C937 C938 1.366 . S
C938 C937 1.366 . S
C938 C939 1.414 . S
C938 C941 1.499 . S
C939 H913 0.950 . S
C939 C938 1.414 . S
C939 C940 1.374 . S
C940 H914 0.950 . S
C940 C936 1.385 . S
C940 C939 1.374 . S
C941 C938 1.499 . S
C941 C942 1.373 . S
C941 C943 1.389 . S
C942 H915 0.950 . S
C942 C928 1.377 . S
C942 C941 1.373 . S
C943 C927 1.377 . S
C943 C941 1.389 . S
C943 C944 1.524 . S
C944 C943 1.524 . S
C944 C945 1.397 . S
C944 C949 1.363 . S
C945 H916 0.950 . S
C945 C944 1.397 . S
C945 C946 1.334 . S
C946 H917 0.950 . S
C946 C945 1.334 . S
C946 C947 1.287 . S
C947 C946 1.287 . S
C947 C948 1.524 . S
C947 H950 0.999 . S
C948 H918 0.950 . S
C948 C947 1.524 . S
C948 C949 1.415 . S
C949 H919 0.950 . S
C949 C944 1.363 . S
C949 C948 1.415 . S
H950 C947 0.999 . S
H951 C932 0.913 . S
H952 C970 0.951 . S
H953 C972 0.951 . S
H954 C974 0.950 . S
H955 C975 0.950 . S
H956 C977 0.950 . S
H957 C980 0.950 . S
H958 C981 0.950 . S
H959 C983 0.950 . S
H960 C984 0.950 . S
H961 C985 0.951 . S
H962 C987 0.951 . S
H963 C989 0.950 . S
H964 C990 0.950 . S
H965 C992 0.950 . S
H966 C995 0.950 . S
H967 C996 0.950 . S
H968 C998 0.950 . S
H969 C999 0.950 . S
C970 H952 0.951 . S
C970 C971 1.366 . S
C970 C972 1.388 . S
C971 C970 1.366 . S
C971 C975 1.385 . S
C972 H953 0.951 . S
C972 C970 1.388 . S
C972 C973 1.366 . S
C973 C972 1.366 . S
C973 C974 1.414 . S
C973 C976 1.499 . S
C974 H954 0.950 . S
C974 C973 1.414 . S
C974 C975 1.374 . S
C975 H955 0.950 . S
C975 C971 1.385 . S
C975 C974 1.374 . S
C976 C973 1.499 . S
C976 C977 1.373 . S
C976 C978 1.389 . S
C977 H956 0.950 . S
C977 C976 1.373 . S
C977 C993 1.377 . S
C978 C976 1.389 . S
C978 C979 1.524 . S
C978 C992 1.377 . S
C979 C978 1.524 . S
C979 C980 1.397 . S
C979 C984 1.363 . S
C980 H957 0.950 . S
C980 C979 1.397 . S
C980 C981 1.334 . S
C981 H958 0.950 . S
C981 C980 1.334 . S
C981 C982 1.287 . S
C982 C981 1.287 . S
C982 C983 1.524 . S
C982 H1001 0.913 . S
C983 H959 0.950 . S
C983 C982 1.524 . S
C983 C984 1.415 . S
C984 H960 0.950 . S
C984 C979 1.363 . S
C984 C983 1.415 . S
C985 H961 0.951 . S
C985 C986 1.366 . S
C985 C987 1.388 . S
C986 C985 1.366 . S
C986 C990 1.385 . S
C987 H962 0.951 . S
C987 C985 1.388 . S
C987 C988 1.366 . S
C988 C987 1.366 . S
C988 C989 1.414 . S
C988 C991 1.499 . S
C989 H963 0.950 . S
C989 C988 1.414 . S
C989 C990 1.374 . S
C990 H964 0.950 . S
C990 C986 1.385 . S
C990 C989 1.374 . S
C991 C988 1.499 . S
C991 C992 1.373 . S
C991 C993 1.389 . S
C992 H965 0.950 . S
C992 C978 1.377 . S
C992 C991 1.373 . S
C993 C977 1.377 . S
C993 C991 1.389 . S
C993 C994 1.524 . S
C994 C993 1.524 . S
C994 C995 1.397 . S
C994 C999 1.363 . S
C995 H966 0.950 . S
C995 C994 1.397 . S
C995 C996 1.334 . S
C996 H967 0.950 . S
C996 C995 1.334 . S
C996 C997 1.287 . S
C997 C996 1.287 . S
C997 C998 1.524 . S
C997 H1000 0.999 . S
C998 H968 0.950 . S
C998 C997 1.524 . S
C998 C999 1.415 . S
C999 H969 0.950 . S
C999 C994 1.363 . S
C999 C998 1.415 . S
H1000 C997 0.999 . S
H1001 C982 0.913 . S
H1002 C1020 0.951 . S
H1003 C1022 0.951 . S
H1004 C1024 0.950 . S
H1005 C1025 0.950 . S
H1006 C1027 0.950 . S
H1007 C1030 0.950 . S
H1008 C1031 0.950 . S
H1009 C1033 0.950 . S
H1010 C1034 0.950 . S
H1011 C1035 0.951 . S
H1012 C1037 0.951 . S
H1013 C1039 0.950 . S
H1014 C1040 0.950 . S
H1015 C1042 0.950 . S
H1016 C1045 0.950 . S
H1017 C1046 0.950 . S
H1018 C1048 0.950 . S
H1019 C1049 0.950 . S
C1020 H1002 0.951 . S
C1020 C1021 1.366 . S
C1020 C1022 1.388 . S
C1021 C1020 1.366 . S
C1021 C1025 1.385 . S
C1022 H1003 0.951 . S
C1022 C1020 1.388 . S
C1022 C1023 1.366 . S
C1023 C1022 1.366 . S
C1023 C1024 1.414 . S
C1023 C1026 1.499 . S
C1024 H1004 0.950 . S
C1024 C1023 1.414 . S
C1024 C1025 1.374 . S
C1025 H1005 0.950 . S
C1025 C1021 1.385 . S
C1025 C1024 1.374 . S
C1026 C1023 1.499 . S
C1026 C1027 1.373 1_545 S
C1026 C1028 1.389 . S
C1027 H1006 0.950 . S
C1027 C1026 1.373 1_565 S
C1027 C1043 1.377 . S
C1028 C1026 1.389 . S
C1028 C1029 1.524 . S
C1028 C1042 1.377 . S
C1029 C1028 1.524 . S
C1029 C1030 1.397 . S
C1029 C1034 1.363 . S
C1030 H1007 0.950 . S
C1030 C1029 1.397 . S
C1030 C1031 1.334 . S
C1031 H1008 0.950 . S
C1031 C1030 1.334 . S
C1031 C1032 1.287 . S
C1032 C1031 1.287 . S
C1032 C1033 1.524 . S
C1032 H1051 0.913 . S
C1033 H1009 0.950 . S
C1033 C1032 1.524 . S
C1033 C1034 1.415 . S
C1034 H1010 0.950 . S
C1034 C1029 1.363 . S
C1034 C1033 1.415 . S
C1035 H1011 0.951 . S
C1035 C1036 1.366 . S
C1035 C1037 1.388 . S
C1036 C1035 1.366 . S
C1036 C1040 1.385 . S
C1037 H1012 0.951 . S
C1037 C1035 1.388 . S
C1037 C1038 1.366 . S
C1038 C1037 1.366 . S
C1038 C1039 1.414 . S
C1038 C1041 1.499 . S
C1039 H1013 0.950 . S
C1039 C1038 1.414 . S
C1039 C1040 1.374 . S
C1040 H1014 0.950 . S
C1040 C1036 1.385 . S
C1040 C1039 1.374 . S
C1041 C1038 1.499 . S
C1041 C1042 1.373 . S
C1041 C1043 1.389 1_545 S
C1042 H1015 0.950 . S
C1042 C1028 1.377 . S
C1042 C1041 1.373 . S
C1043 C1027 1.377 . S
C1043 C1041 1.389 1_565 S
C1043 C1044 1.524 . S
C1044 C1043 1.524 . S
C1044 C1045 1.397 . S
C1044 C1049 1.363 . S
C1045 H1016 0.950 . S
C1045 C1044 1.397 . S
C1045 C1046 1.334 . S
C1046 H1017 0.950 . S
C1046 C1045 1.334 . S
C1046 C1047 1.287 . S
C1047 C1046 1.287 . S
C1047 C1048 1.524 . S
C1047 H1050 0.999 . S
C1048 H1018 0.950 . S
C1048 C1047 1.524 . S
C1048 C1049 1.415 . S
C1049 H1019 0.950 . S
C1049 C1044 1.363 . S
C1049 C1048 1.415 . S
H1050 C1047 0.999 . S
H1051 C1032 0.913 . S
H1052 C1070 0.951 . S
H1053 C1072 0.951 . S
H1054 C1074 0.950 . S
H1055 C1075 0.950 . S
H1056 C1077 0.950 . S
H1057 C1080 0.950 . S
H1058 C1081 0.950 . S
H1059 C1083 0.950 . S
H1060 C1084 0.950 . S
H1061 C1085 0.951 . S
H1062 C1087 0.951 . S
H1063 C1089 0.950 1_556 S
H1064 C1090 0.950 . S
H1065 C1092 0.950 . S
H1066 C1095 0.950 . S
H1067 C1096 0.983 . S
H1068 C1098 0.950 . S
H1069 C1099 0.950 . S
C1070 H1052 0.951 . S
C1070 C1071 1.366 . S
C1070 C1072 1.388 . S
C1071 C1070 1.366 . S
C1071 C1075 1.385 . S
C1072 H1053 0.951 . S
C1072 C1070 1.388 . S
C1072 C1073 1.366 . S
C1073 C1072 1.366 . S
C1073 C1074 1.414 . S
C1073 C1076 1.499 . S
C1074 H1054 0.950 . S
C1074 C1073 1.414 . S
C1074 C1075 1.374 . S
C1075 H1055 0.950 . S
C1075 C1071 1.385 . S
C1075 C1074 1.374 . S
C1076 C1073 1.499 . S
C1076 C1077 1.373 . S
C1076 C1078 1.389 . S
C1077 H1056 0.950 . S
C1077 C1076 1.373 . S
C1077 C1093 1.377 . S
C1078 C1076 1.389 . S
C1078 C1079 1.524 . S
C1078 C1092 1.377 . S
C1079 C1078 1.524 . S
C1079 C1080 1.397 . S
C1079 C1084 1.363 . S
C1080 H1057 0.950 . S
C1080 C1079 1.397 . S
C1080 C1081 1.334 . S
C1081 H1058 0.950 . S
C1081 C1080 1.334 . S
C1081 C1082 1.287 . S
C1082 C1081 1.287 . S
C1082 C1083 1.524 . S
C1082 H1101 0.913 . S
C1083 H1059 0.950 . S
C1083 C1082 1.524 . S
C1083 C1084 1.415 . S
C1084 H1060 0.950 . S
C1084 C1079 1.363 . S
C1084 C1083 1.415 . S
C1085 H1061 0.951 . S
C1085 C1086 1.366 . S
C1085 C1087 1.388 . S
C1086 C1085 1.366 . S
C1086 C1090 1.385 . S
C1087 H1062 0.951 . S
C1087 C1085 1.388 . S
C1087 C1088 1.357 1_554 S
C1088 C1087 1.357 1_556 S
C1088 C1089 1.409 1_556 S
C1088 C1091 1.512 . S
C1089 H1063 0.950 1_554 S
C1089 C1088 1.409 1_554 S
C1089 C1090 1.374 . S
C1090 H1064 0.950 . S
C1090 C1086 1.385 . S
C1090 C1089 1.374 . S
C1091 C1088 1.512 . S
C1091 C1092 1.373 . S
C1091 C1093 1.389 . S
C1092 H1065 0.950 . S
C1092 C1078 1.377 . S
C1092 C1091 1.373 . S
C1093 C1077 1.377 . S
C1093 C1091 1.389 . S
C1093 C1094 1.524 . S
C1094 C1093 1.524 . S
C1094 C1095 1.397 . S
C1094 C1099 1.363 . S
C1095 H1066 0.950 . S
C1095 C1094 1.397 . S
C1095 C1096 1.308 1_556 S
C1096 H1067 0.983 . S
C1096 C1095 1.308 1_554 S
C1096 C1097 1.282 . S
C1097 C1096 1.282 . S
C1097 C1098 1.524 1_554 S
C1097 H1100 0.999 . S
C1098 H1068 0.950 . S
C1098 C1097 1.524 1_556 S
C1098 C1099 1.415 . S
C1099 H1069 0.950 . S
C1099 C1094 1.363 . S
C1099 C1098 1.415 . S
H1100 C1097 0.999 . S
H1101 C1082 0.913 . S
H1102 C1120 0.951 1_655 S
H1103 C1122 0.951 1_655 S
H1104 C1124 0.950 . S
H1105 C1125 0.950 . S
H1106 C1127 0.950 . S
H1107 C1130 0.950 . S
H1108 C1131 0.950 . S
H1109 C1133 0.950 . S
H1110 C1134 0.941 1_655 S
H1111 C1135 0.951 . S
H1112 C1137 0.951 . S
H1113 C1139 0.950 . S
H1114 C1140 0.950 . S
H1115 C1142 0.950 . S
H1116 C1145 0.950 . S
H1117 C1146 0.950 . S
H1118 C1148 0.950 1_455 S
H1119 C1149 0.950 . S
C1120 H1102 0.951 1_455 S
C1120 C1121 1.366 . S
C1120 C1122 1.388 . S
C1121 C1120 1.366 . S
C1121 C1125 1.385 . S
C1122 H1103 0.951 1_455 S
C1122 C1120 1.388 . S
C1122 C1123 1.366 . S
C1123 C1122 1.366 . S
C1123 C1124 1.414 . S
C1123 C1126 1.499 . S
C1124 H1104 0.950 . S
C1124 C1123 1.414 . S
C1124 C1125 1.374 . S
C1125 H1105 0.950 . S
C1125 C1121 1.385 . S
C1125 C1124 1.374 . S
C1126 C1123 1.499 . S
C1126 C1127 1.373 . S
C1126 C1128 1.389 . S
C1127 H1106 0.950 . S
C1127 C1126 1.373 . S
C1127 C1143 1.377 . S
C1128 C1126 1.389 . S
C1128 C1129 1.524 . S
C1128 C1142 1.377 . S
C1129 C1128 1.524 . S
C1129 C1130 1.397 . S
C1129 C1134 1.363 . S
C1130 H1107 0.950 . S
C1130 C1129 1.397 . S
C1130 C1131 1.334 . S
C1131 H1108 0.950 . S
C1131 C1130 1.334 . S
C1131 C1132 1.287 . S
C1132 C1131 1.287 . S
C1132 C1133 1.524 . S
C1132 H1151 0.913 . S
C1133 H1109 0.950 . S
C1133 C1132 1.524 . S
C1133 C1134 1.415 . S
C1134 H1110 0.941 1_455 S
C1134 C1129 1.363 . S
C1134 C1133 1.415 . S
C1135 H1111 0.951 . S
C1135 C1136 1.366 . S
C1135 C1137 1.388 . S
C1136 C1135 1.366 . S
C1136 C1140 1.385 1_455 S
C1137 H1112 0.951 . S
C1137 C1135 1.388 . S
C1137 C1138 1.366 . S
C1138 C1137 1.366 . S
C1138 C1139 1.414 1_455 S
C1138 C1141 1.499 . S
C1139 H1113 0.950 . S
C1139 C1138 1.414 1_655 S
C1139 C1140 1.374 . S
C1140 H1114 0.950 . S
C1140 C1136 1.385 1_655 S
C1140 C1139 1.374 . S
C1141 C1138 1.499 . S
C1141 C1142 1.373 . S
C1141 C1143 1.389 . S
C1142 H1115 0.950 . S
C1142 C1128 1.377 . S
C1142 C1141 1.373 . S
C1143 C1127 1.377 . S
C1143 C1141 1.389 . S
C1143 C1144 1.524 1_455 S
C1144 C1143 1.524 1_655 S
C1144 C1145 1.397 . S
C1144 C1149 1.363 1_655 S
C1145 H1116 0.950 . S
C1145 C1144 1.397 . S
C1145 C1146 1.334 . S
C1146 H1117 0.950 . S
C1146 C1145 1.334 . S
C1146 C1147 1.287 . S
C1147 C1146 1.287 . S
C1147 C1148 1.524 . S
C1147 H1150 0.999 . S
C1148 H1118 0.950 1_655 S
C1148 C1147 1.524 . S
C1148 C1149 1.415 1_655 S
C1149 H1119 0.950 . S
C1149 C1144 1.363 1_455 S
C1149 C1148 1.415 1_455 S
H1150 C1147 0.999 . S
H1151 C1132 0.913 . S
C271 C8 1.935 . S
C286 C243 1.982 . S
C321 C26 1.276 . S
C336 C179 1.256 . S
C371 C48 1.439 . S
C386 C211 1.454 . S
C421 C19 1.717 . S
C436 C237 1.777 . S
C486 C173 1.417 . S
C471 C36 1.422 . S
C536 C205 1.641 . S
C521 C59 1.593 . S
C571 C28 1.460 . S
C586 C115 1.486 . S
C621 C46 1.151 . S
C636 C147 1.149 . S
C671 C16 1.493 . S
C686 C77 1.481 . S
C736 C109 1.607 . S
C721 C39 1.564 . S
C786 C141 0.961 . S
C771 C56 0.956 . S
C821 C6 1.309 . S
C836 C83 1.272 . S
C886 C153 1.410 . S
C871 C9 1.407 . S
C921 C21 1.488 . S
C936 C89 1.461 . S
C971 C49 1.469 . S
C986 C121 1.454 . S
C1036 C217 1.433 . S
C1021 C29 1.455 . S
C1086 C249 1.561 . S
C1071 C41 1.567 . S
C1121 C1 1.493 . S
C1136 C185 1.469 . S
