# Generated by pormake.
# Topology eea, (3,6)-cn, num edge types: 1
# Building blocks:
#     Node 0, Type 0, BuildingBlock: BELTOD_clean_linker_0, # of connection points: 3
#     Node 1, Type 0, BuildingBlock: BELTOD_clean_linker_0, # of connection points: 3
#     Node 2, Type 0, BuildingBlock: BELTOD_clean_linker_0, # of connection points: 3
#     Node 3, Type 0, BuildingBlock: BELTOD_clean_linker_0, # of connection points: 3
#     Node 4, Type 0, BuildingBlock: BELTOD_clean_linker_0, # of connection points: 3
#     Node 5, Type 0, BuildingBlock: BELTOD_clean_linker_0, # of connection points: 3
#     Node 6, Type 0, BuildingBlock: BELTOD_clean_linker_0, # of connection points: 3
#     Node 7, Type 0, BuildingBlock: BELTOD_clean_linker_0, # of connection points: 3
#     Node 8, Type 0, BuildingBlock: BELTOD_clean_linker_0, # of connection points: 3
#     Node 9, Type 0, BuildingBlock: BELTOD_clean_linker_0, # of connection points: 3
#     Node 10, Type 0, BuildingBlock: BELTOD_clean_linker_0, # of connection points: 3
#     Node 11, Type 0, BuildingBlock: BELTOD_clean_linker_0, # of connection points: 3
#     Node 12, Type 0, BuildingBlock: BELTOD_clean_linker_0, # of connection points: 3
#     Node 13, Type 0, BuildingBlock: BELTOD_clean_linker_0, # of connection points: 3
#     Node 14, Type 0, BuildingBlock: BELTOD_clean_linker_0, # of connection points: 3
#     Node 15, Type 0, BuildingBlock: BELTOD_clean_linker_0, # of connection points: 3
#     Node 16, Type 0, BuildingBlock: BELTOD_clean_linker_0, # of connection points: 3
#     Node 17, Type 0, BuildingBlock: BELTOD_clean_linker_0, # of connection points: 3
#     Node 18, Type 1, BuildingBlock: KUMBOL_clean_sbu_0, # of connection points: 6
#     Node 19, Type 1, BuildingBlock: KUMBOL_clean_sbu_0, # of connection points: 6
#     Node 20, Type 1, BuildingBlock: KUMBOL_clean_sbu_0, # of connection points: 6
#     Node 21, Type 1, BuildingBlock: KUMBOL_clean_sbu_0, # of connection points: 6
#     Node 22, Type 1, BuildingBlock: KUMBOL_clean_sbu_0, # of connection points: 6
#     Node 23, Type 1, BuildingBlock: KUMBOL_clean_sbu_0, # of connection points: 6
#     Node 24, Type 1, BuildingBlock: KUMBOL_clean_sbu_0, # of connection points: 6
#     Node 25, Type 1, BuildingBlock: KUMBOL_clean_sbu_0, # of connection points: 6
#     Node 26, Type 1, BuildingBlock: KUMBOL_clean_sbu_0, # of connection points: 6
#     Edge 27, Type (0, 1), BuildingBlock: TEMPAE_clean_linker_10, # of connection points: 2
#     Edge 28, Type (0, 1), BuildingBlock: TEMPAE_clean_linker_10, # of connection points: 2
#     Edge 29, Type (0, 1), BuildingBlock: TEMPAE_clean_linker_10, # of connection points: 2
#     Edge 30, Type (0, 1), BuildingBlock: TEMPAE_clean_linker_10, # of connection points: 2
#     Edge 31, Type (0, 1), BuildingBlock: TEMPAE_clean_linker_10, # of connection points: 2
#     Edge 32, Type (0, 1), BuildingBlock: TEMPAE_clean_linker_10, # of connection points: 2
#     Edge 33, Type (0, 1), BuildingBlock: TEMPAE_clean_linker_10, # of connection points: 2
#     Edge 34, Type (0, 1), BuildingBlock: TEMPAE_clean_linker_10, # of connection points: 2
#     Edge 35, Type (0, 1), BuildingBlock: TEMPAE_clean_linker_10, # of connection points: 2
#     Edge 36, Type (0, 1), BuildingBlock: TEMPAE_clean_linker_10, # of connection points: 2
#     Edge 37, Type (0, 1), BuildingBlock: TEMPAE_clean_linker_10, # of connection points: 2
#     Edge 38, Type (0, 1), BuildingBlock: TEMPAE_clean_linker_10, # of connection points: 2
#     Edge 39, Type (0, 1), BuildingBlock: TEMPAE_clean_linker_10, # of connection points: 2
#     Edge 40, Type (0, 1), BuildingBlock: TEMPAE_clean_linker_10, # of connection points: 2
#     Edge 41, Type (0, 1), BuildingBlock: TEMPAE_clean_linker_10, # of connection points: 2
#     Edge 42, Type (0, 1), BuildingBlock: TEMPAE_clean_linker_10, # of connection points: 2
#     Edge 43, Type (0, 1), BuildingBlock: TEMPAE_clean_linker_10, # of connection points: 2
#     Edge 44, Type (0, 1), BuildingBlock: TEMPAE_clean_linker_10, # of connection points: 2
#     Edge 45, Type (0, 1), BuildingBlock: TEMPAE_clean_linker_10, # of connection points: 2
#     Edge 46, Type (0, 1), BuildingBlock: TEMPAE_clean_linker_10, # of connection points: 2
#     Edge 47, Type (0, 1), BuildingBlock: TEMPAE_clean_linker_10, # of connection points: 2
#     Edge 48, Type (0, 1), BuildingBlock: TEMPAE_clean_linker_10, # of connection points: 2
#     Edge 49, Type (0, 1), BuildingBlock: TEMPAE_clean_linker_10, # of connection points: 2
#     Edge 50, Type (0, 1), BuildingBlock: TEMPAE_clean_linker_10, # of connection points: 2
#     Edge 51, Type (0, 1), BuildingBlock: TEMPAE_clean_linker_10, # of connection points: 2
#     Edge 52, Type (0, 1), BuildingBlock: TEMPAE_clean_linker_10, # of connection points: 2
#     Edge 53, Type (0, 1), BuildingBlock: TEMPAE_clean_linker_10, # of connection points: 2
#     Edge 54, Type (0, 1), BuildingBlock: TEMPAE_clean_linker_10, # of connection points: 2
#     Edge 55, Type (0, 1), BuildingBlock: TEMPAE_clean_linker_10, # of connection points: 2
#     Edge 56, Type (0, 1), BuildingBlock: TEMPAE_clean_linker_10, # of connection points: 2
#     Edge 57, Type (0, 1), BuildingBlock: TEMPAE_clean_linker_10, # of connection points: 2
#     Edge 58, Type (0, 1), BuildingBlock: TEMPAE_clean_linker_10, # of connection points: 2
#     Edge 59, Type (0, 1), BuildingBlock: TEMPAE_clean_linker_10, # of connection points: 2
#     Edge 60, Type (0, 1), BuildingBlock: TEMPAE_clean_linker_10, # of connection points: 2
#     Edge 61, Type (0, 1), BuildingBlock: TEMPAE_clean_linker_10, # of connection points: 2
#     Edge 62, Type (0, 1), BuildingBlock: TEMPAE_clean_linker_10, # of connection points: 2
#     Edge 63, Type (0, 1), BuildingBlock: TEMPAE_clean_linker_10, # of connection points: 2
#     Edge 64, Type (0, 1), BuildingBlock: TEMPAE_clean_linker_10, # of connection points: 2
#     Edge 65, Type (0, 1), BuildingBlock: TEMPAE_clean_linker_10, # of connection points: 2
#     Edge 66, Type (0, 1), BuildingBlock: TEMPAE_clean_linker_10, # of connection points: 2
#     Edge 67, Type (0, 1), BuildingBlock: TEMPAE_clean_linker_10, # of connection points: 2
#     Edge 68, Type (0, 1), BuildingBlock: TEMPAE_clean_linker_10, # of connection points: 2
#     Edge 69, Type (0, 1), BuildingBlock: TEMPAE_clean_linker_10, # of connection points: 2
#     Edge 70, Type (0, 1), BuildingBlock: TEMPAE_clean_linker_10, # of connection points: 2
#     Edge 71, Type (0, 1), BuildingBlock: TEMPAE_clean_linker_10, # of connection points: 2
#     Edge 72, Type (0, 1), BuildingBlock: TEMPAE_clean_linker_10, # of connection points: 2
#     Edge 73, Type (0, 1), BuildingBlock: TEMPAE_clean_linker_10, # of connection points: 2
#     Edge 74, Type (0, 1), BuildingBlock: TEMPAE_clean_linker_10, # of connection points: 2
#     Edge 75, Type (0, 1), BuildingBlock: TEMPAE_clean_linker_10, # of connection points: 2
#     Edge 76, Type (0, 1), BuildingBlock: TEMPAE_clean_linker_10, # of connection points: 2
#     Edge 77, Type (0, 1), BuildingBlock: TEMPAE_clean_linker_10, # of connection points: 2
#     Edge 78, Type (0, 1), BuildingBlock: TEMPAE_clean_linker_10, # of connection points: 2
#     Edge 79, Type (0, 1), BuildingBlock: TEMPAE_clean_linker_10, # of connection points: 2
#     Edge 80, Type (0, 1), BuildingBlock: TEMPAE_clean_linker_10, # of connection points: 2
# Relax obj value: 0.008
# Max RMSD: 0.086
# Mean RMSD: 0.067
data_MOF--net-eea--node1-KUMBOL_clean_sbu_0--node2-BELTOD_clean_linker_0--edge1-TEMPAE_clean_linker_10
_symmetry_space_group_name_H-M    P1
_symmetry_Int_Tables_number       1
_symmetry_cell_setting            triclinic
loop_
_symmetry_equiv_pos_as_xyz
'x, y, z'
_cell_length_a     59.272776
_cell_length_b     60.151651
_cell_length_c     83.02977
_cell_angle_alpha  90.699806
_cell_angle_beta   90.216216
_cell_angle_gamma 120.09379
loop_
_atom_site_label
_atom_site_type_symbol
_atom_site_fract_x
_atom_site_fract_y
_atom_site_fract_z
_atom_type_partial_charge
P0 P 0.28065 0.14366 0.41658 0.0
H1 H 0.29692 0.11729 0.39372 0.0
H2 H 0.27582 0.07347 0.38315 0.0
H3 H 0.20779 0.05446 0.41172 0.0
H4 H 0.2298 0.09822 0.42294 0.0
H5 H 0.29725 0.18435 0.3929 0.0
H6 H 0.27591 0.20584 0.38095 0.0
H7 H 0.20664 0.15816 0.40842 0.0
H8 H 0.22879 0.13762 0.42097 0.0
H9 H 0.28252 0.11061 0.4415 0.0
H10 H 0.28241 0.18212 0.43916 0.0
O11 O 0.31173 0.15874 0.41081 0.0
H12 H 0.2918 0.11742 0.47042 0.0
H13 H 0.29133 0.1889 0.4681 0.0
C14 C 0.26497 0.11099 0.40917 0.0
C15 C 0.27754 0.10368 0.39782 0.0
C16 C 0.26527 0.0786 0.39162 0.0
C17 C 0.23994 0.06038 0.39645 0.0
C18 C 0.22737 0.06787 0.40784 0.0
C19 C 0.23984 0.09295 0.41417 0.0
C20 C 0.26462 0.15941 0.40785 0.0
C21 C 0.27751 0.17855 0.39642 0.0
C22 C 0.26513 0.19067 0.38944 0.0
C23 C 0.23942 0.18363 0.3936 0.0
C24 C 0.22651 0.16426 0.40504 0.0
C25 C 0.23907 0.15233 0.41213 0.0
C26 C 0.28123 0.14559 0.43823 0.0
C27 C 0.28364 0.12736 0.4473 0.0
C28 C 0.28896 0.13128 0.46384 0.0
C29 C 0.29237 0.15374 0.47155 0.0
C30 C 0.28901 0.17151 0.46249 0.0
C31 C 0.28365 0.16753 0.44597 0.0
P32 P 0.91744 0.10185 0.43609 0.0
H33 H 0.90782 0.05265 0.42287 0.0
H34 H 0.87062 0.01741 0.40882 0.0
H35 H 0.83091 0.06109 0.40924 0.0
H36 H 0.86827 0.09642 0.42348 0.0
H37 H 0.97381 0.13404 0.43725 0.0
H38 H 0.00503 0.16909 0.42085 0.0
H39 H 0.94175 0.16481 0.39232 0.0
H40 H 0.91048 0.12875 0.40855 0.0
H41 H 0.90924 0.0874 0.46981 0.0
H42 H 0.89808 0.13831 0.43896 0.0
O43 O 0.93418 0.08888 0.44384 0.0
H44 H 0.89225 0.10016 0.49249 0.0
H45 H 0.87965 0.15032 0.46153 0.0
C46 C 0.89071 0.07706 0.42445 0.0
C47 C 0.89117 0.05475 0.41997 0.0
C48 C 0.86984 0.03454 0.41198 0.0
C49 C 0.84774 0.03638 0.40812 0.0
C50 C 0.84769 0.05915 0.41208 0.0
C51 C 0.869 0.07932 0.42025 0.0
C52 C 0.93982 0.12848 0.42399 0.0
C53 C 0.96658 0.1405 0.42743 0.0
C54 C 0.98446 0.1608 0.4181 0.0
C55 C 0.97599 0.16993 0.40524 0.0
C56 C 0.94902 0.15806 0.40197 0.0
C57 C 0.93108 0.13753 0.4113 0.0
C58 C 0.90525 0.11214 0.45273 0.0
C59 C 0.90309 0.10136 0.4679 0.0
C60 C 0.89303 0.10847 0.48087 0.0
C61 C 0.88436 0.1262 0.4789 0.0
C62 C 0.88644 0.1369 0.46359 0.0
C63 C 0.89684 0.12995 0.45063 0.0
P64 P 0.86779 0.74226 0.41342 0.0
H65 H 0.83467 0.72808 0.38484 0.0
H66 H 0.80897 0.74495 0.37269 0.0
H67 H 0.83776 0.80547 0.40889 0.0
H68 H 0.86362 0.78826 0.42111 0.0
H69 H 0.88707 0.72903 0.38493 0.0
H70 H 0.93025 0.74556 0.37356 0.0
H71 H 0.96292 0.80348 0.41141 0.0
H72 H 0.91925 0.78626 0.42297 0.0
H73 H 0.83205 0.74489 0.43678 0.0
H74 H 0.90065 0.73742 0.4379 0.0
O75 O 0.8519 0.71112 0.40829 0.0
H76 H 0.82649 0.73701 0.46558 0.0
H77 H 0.89459 0.72835 0.46662 0.0
C78 C 0.85048 0.75647 0.40415 0.0
C79 C 0.83553 0.745 0.39019 0.0
C80 C 0.82097 0.75482 0.38316 0.0
C81 C 0.82115 0.77649 0.38986 0.0
C82 C 0.8369 0.78852 0.40357 0.0
C83 C 0.8517 0.77875 0.41055 0.0
C84 C 0.90003 0.75601 0.40501 0.0
C85 C 0.90349 0.74526 0.39083 0.0
C86 C 0.92825 0.75494 0.38423 0.0
C87 C 0.9502 0.77588 0.39155 0.0
C88 C 0.94654 0.78711 0.40558 0.0
C89 C 0.9216 0.77736 0.41218 0.0
C90 C 0.86736 0.74275 0.4352 0.0
C91 C 0.84645 0.74238 0.44329 0.0
C92 C 0.84299 0.73736 0.45978 0.0
C93 C 0.85998 0.73185 0.46851 0.0
C94 C 0.88135 0.73293 0.46043 0.0
C95 C 0.8849 0.73819 0.44395 0.0
P96 P 0.1233 0.25629 0.59746 0.0
H97 H 0.10503 0.26936 0.62651 0.0
H98 H 0.06221 0.25265 0.6385 0.0
H99 H 0.02839 0.19501 0.60055 0.0
H100 H 0.07166 0.21229 0.58843 0.0
H101 H 0.15633 0.26786 0.62588 0.0
H102 H 0.18176 0.24965 0.63667 0.0
H103 H 0.15271 0.19242 0.5984 0.0
H104 H 0.12708 0.21087 0.58761 0.0
H105 H 0.08847 0.26023 0.57399 0.0
H106 H 0.15894 0.25598 0.57317 0.0
O107 O 0.13985 0.28723 0.60305 0.0
H108 H 0.09245 0.26879 0.54511 0.0
H109 H 0.16301 0.2645 0.54438 0.0
C110 C 0.09142 0.2425 0.60635 0.0
C111 C 0.08843 0.25315 0.62072 0.0
C112 C 0.0639 0.24338 0.62767 0.0
C113 C 0.04176 0.22249 0.62049 0.0
C114 C 0.04495 0.21133 0.60628 0.0
C115 C 0.06965 0.22114 0.59935 0.0
C116 C 0.1404 0.24117 0.60569 0.0
C117 C 0.15537 0.25137 0.61979 0.0
C118 C 0.16977 0.24081 0.62603 0.0
C119 C 0.16941 0.21968 0.61834 0.0
C120 C 0.15368 0.20893 0.60446 0.0
C121 C 0.13902 0.21941 0.59831 0.0
C122 C 0.12282 0.25642 0.5757 0.0
C123 C 0.1043 0.26023 0.56753 0.0
C124 C 0.10677 0.26544 0.55104 0.0
C125 C 0.128 0.26723 0.54242 0.0
C126 C 0.14614 0.26274 0.55057 0.0
C127 C 0.14375 0.25771 0.56707 0.0
P128 P 0.82301 0.9111 0.569 0.0
H129 H 0.82362 0.92148 0.60384 0.0
H130 H 0.81875 0.95391 0.61901 0.0
H131 H 0.8057 0.98246 0.5745 0.0
H132 H 0.81094 0.95025 0.5594 0.0
H133 H 0.8624 0.89803 0.57862 0.0
H134 H 0.86052 0.86363 0.59483 0.0
H135 H 0.77821 0.83388 0.60232 0.0
H136 H 0.78044 0.86886 0.58636 0.0
H137 H 0.82728 0.8997 0.53521 0.0
H138 H 0.76683 0.89182 0.56739 0.0
O139 O 0.8527 0.92789 0.56113 0.0
H140 H 0.79573 0.88293 0.51289 0.0
H141 H 0.73514 0.87498 0.54511 0.0
C142 C 0.8172 0.93321 0.58051 0.0
C143 C 0.81934 0.93446 0.59736 0.0
C144 C 0.81649 0.95297 0.60602 0.0
C145 C 0.81179 0.97071 0.59794 0.0
C146 C 0.8095 0.96921 0.58106 0.0
C147 C 0.81231 0.9507 0.57243 0.0
C148 C 0.82149 0.88582 0.58114 0.0
C149 C 0.84394 0.88413 0.58373 0.0
C150 C 0.8428 0.86435 0.59295 0.0
C151 C 0.81916 0.84587 0.59976 0.0
C152 C 0.79675 0.84789 0.59732 0.0
C153 C 0.79794 0.86774 0.5881 0.0
C154 C 0.79943 0.89732 0.55287 0.0
C155 C 0.80721 0.89432 0.53747 0.0
C156 C 0.7892 0.8848 0.52473 0.0
C157 C 0.76304 0.87784 0.52725 0.0
C158 C 0.75514 0.88006 0.54284 0.0
C159 C 0.77323 0.88975 0.55555 0.0
P160 P 0.13291 0.85102 0.60514 0.0
H161 H 0.17327 0.8793 0.6295 0.0
H162 H 0.1972 0.92416 0.63783 0.0
H163 H 0.15235 0.94094 0.60392 0.0
H164 H 0.12957 0.89597 0.59488 0.0
H165 H 0.1052 0.80583 0.6252 0.0
H166 H 0.06164 0.78395 0.63658 0.0
H167 H 0.04391 0.83712 0.61322 0.0
H168 H 0.08814 0.85985 0.60225 0.0
H169 H 0.17119 0.84769 0.58526 0.0
H170 H 0.10047 0.85012 0.57741 0.0
O171 O 0.14867 0.83732 0.61331 0.0
H172 H 0.17551 0.84425 0.55632 0.0
H173 H 0.10484 0.8468 0.54826 0.0
C174 C 0.14964 0.88424 0.61153 0.0
C175 C 0.16858 0.89257 0.62379 0.0
C176 C 0.1821 0.91833 0.6287 0.0
C177 C 0.17666 0.93633 0.62167 0.0
C178 C 0.15733 0.92777 0.60949 0.0
C179 C 0.14406 0.90197 0.60441 0.0
C180 C 0.10003 0.83444 0.61271 0.0
C181 C 0.09213 0.81297 0.62248 0.0
C182 C 0.06723 0.80048 0.62907 0.0
C183 C 0.04956 0.80895 0.62581 0.0
C184 C 0.05724 0.83023 0.61585 0.0
C185 C 0.08245 0.8431 0.60951 0.0
C186 C 0.13516 0.84853 0.5836 0.0
C187 C 0.15641 0.84724 0.57734 0.0
C188 C 0.15887 0.84525 0.56077 0.0
C189 C 0.14031 0.84489 0.55003 0.0
C190 C 0.11939 0.84696 0.55627 0.0
C191 C 0.11682 0.84873 0.57295 0.0
P192 P 0.95221 0.47695 0.74203 0.0
H193 H 0.9665 0.44937 0.71872 0.0
H194 H 0.94427 0.40501 0.70893 0.0
H195 H 0.87762 0.38871 0.73818 0.0
H196 H 0.90069 0.43284 0.74858 0.0
H197 H 0.9676 0.51813 0.71882 0.0
H198 H 0.9461 0.54062 0.70862 0.0
H199 H 0.87914 0.49364 0.73808 0.0
H200 H 0.90164 0.47243 0.74901 0.0
H201 H 0.95094 0.44058 0.76564 0.0
H202 H 0.95895 0.51591 0.76594 0.0
O203 O 0.98288 0.49163 0.73552 0.0
H204 H 0.95819 0.44375 0.79471 0.0
H205 H 0.96708 0.51961 0.79501 0.0
C206 C 0.93524 0.44442 0.73437 0.0
C207 C 0.94712 0.43627 0.72304 0.0
C208 C 0.93423 0.41089 0.71732 0.0
C209 C 0.90905 0.39322 0.7227 0.0
C210 C 0.89709 0.40166 0.73391 0.0
C211 C 0.91014 0.427 0.73974 0.0
C212 C 0.93621 0.49358 0.73466 0.0
C213 C 0.94836 0.51276 0.72316 0.0
C214 C 0.93586 0.52542 0.71718 0.0
C215 C 0.91071 0.51884 0.72239 0.0
C216 C 0.89858 0.49945 0.7339 0.0
C217 C 0.91131 0.48707 0.74005 0.0
C218 C 0.95377 0.47776 0.76368 0.0
C219 C 0.95377 0.45762 0.772 0.0
C220 C 0.95823 0.45959 0.78862 0.0
C221 C 0.96328 0.48196 0.7972 0.0
C222 C 0.96283 0.50194 0.78883 0.0
C223 C 0.95824 0.49988 0.7722 0.0
P224 P 0.57929 0.43243 0.7657 0.0
H225 H 0.5729 0.38626 0.74957 0.0
H226 H 0.53748 0.35237 0.7335 0.0
H227 H 0.49443 0.39267 0.73712 0.0
H228 H 0.5302 0.42674 0.75313 0.0
H229 H 0.63615 0.46015 0.7659 0.0
H230 H 0.66863 0.49575 0.75026 0.0
H231 H 0.60719 0.49964 0.72457 0.0
H232 H 0.57459 0.46342 0.74016 0.0
H233 H 0.53421 0.40401 0.78605 0.0
H234 H 0.59511 0.48283 0.78087 0.0
O235 O 0.5942 0.41852 0.77466 0.0
H236 H 0.51757 0.41621 0.80934 0.0
H237 H 0.5783 0.49532 0.80405 0.0
C238 C 0.55391 0.40871 0.7528 0.0
C239 C 0.55587 0.38785 0.74689 0.0
C240 C 0.53557 0.36843 0.73776 0.0
C241 C 0.51299 0.36965 0.73423 0.0
C242 C 0.51157 0.39119 0.73962 0.0
C243 C 0.53192 0.41059 0.74882 0.0
C244 C 0.60295 0.4589 0.75404 0.0
C245 C 0.6296 0.46852 0.75685 0.0
C246 C 0.6482 0.48906 0.74797 0.0
C247 C 0.64054 0.5006 0.73615 0.0
C248 C 0.61374 0.49098 0.73342 0.0
C249 C 0.59509 0.47035 0.74236 0.0
C250 C 0.56555 0.44256 0.78152 0.0
C251 C 0.54367 0.42406 0.78973 0.0
C252 C 0.53415 0.43108 0.80304 0.0
C253 C 0.54653 0.45678 0.80853 0.0
C254 C 0.56842 0.47534 0.80019 0.0
C255 C 0.57791 0.46826 0.78684 0.0
P256 P 0.53293 0.07635 0.74629 0.0
H257 H 0.51165 0.0718 0.71403 0.0
H258 H 0.48544 0.08807 0.70161 0.0
H259 H 0.49107 0.12987 0.74554 0.0
H260 H 0.51751 0.11357 0.75788 0.0
H261 H 0.57193 0.06086 0.74989 0.0
H262 H 0.61569 0.07721 0.73909 0.0
H263 H 0.61075 0.13864 0.71615 0.0
H264 H 0.56719 0.12272 0.72747 0.0
H265 H 0.48794 0.06179 0.76667 0.0
H266 H 0.56907 0.08546 0.77374 0.0
O267 O 0.51807 0.04594 0.73963 0.0
H268 H 0.48023 0.05276 0.79526 0.0
H269 H 0.56117 0.07453 0.80202 0.0
C270 C 0.51602 0.09097 0.73699 0.0
C271 C 0.5074 0.0846 0.72096 0.0
C272 C 0.49252 0.09404 0.71385 0.0
C273 C 0.48593 0.11008 0.72264 0.0
C274 C 0.49545 0.11721 0.73854 0.0
C275 C 0.51059 0.10794 0.7456 0.0
C276 C 0.56636 0.09072 0.73972 0.0
C277 C 0.58047 0.07821 0.74286 0.0
C278 C 0.60546 0.08753 0.73666 0.0
C279 C 0.61664 0.10923 0.72681 0.0
C280 C 0.60256 0.12186 0.7237 0.0
C281 C 0.5777 0.1128 0.73021 0.0
C282 C 0.52911 0.07451 0.76795 0.0
C283 C 0.50421 0.06535 0.7744 0.0
C284 C 0.49974 0.05976 0.79078 0.0
C285 C 0.51993 0.06243 0.80108 0.0
C286 C 0.5451 0.07241 0.79463 0.0
C287 C 0.54964 0.07849 0.77828 0.0
P288 P 0.79588 0.59421 0.93367 0.0
H289 H 0.77601 0.60645 0.96245 0.0
H290 H 0.73262 0.58986 0.97335 0.0
H291 H 0.70052 0.534 0.93432 0.0
H292 H 0.74441 0.55148 0.92313 0.0
H293 H 0.84218 0.59538 0.92102 0.0
H294 H 0.86908 0.57824 0.93099 0.0
H295 H 0.8121 0.53705 0.96764 0.0
H296 H 0.78564 0.55487 0.95782 0.0
H297 H 0.80624 0.63946 0.9156 0.0
H298 H 0.78564 0.56123 0.90476 0.0
O299 O 0.81422 0.62288 0.94259 0.0
H300 H 0.80996 0.64886 0.88708 0.0
H301 H 0.78813 0.57013 0.87584 0.0
C302 C 0.76345 0.58051 0.94181 0.0
C303 C 0.7597 0.59067 0.95617 0.0
C304 C 0.73478 0.58093 0.96251 0.0
C305 C 0.71292 0.56049 0.95477 0.0
C306 C 0.71682 0.54995 0.9405 0.0
C307 C 0.74191 0.55985 0.93411 0.0
C308 C 0.81164 0.57605 0.93845 0.0
C309 C 0.8351 0.58206 0.9309 0.0
C310 C 0.8505 0.57222 0.93665 0.0
C311 C 0.84287 0.5563 0.95019 0.0
C312 C 0.81877 0.5495 0.95733 0.0
C313 C 0.80341 0.55944 0.95158 0.0
C314 C 0.79604 0.59975 0.91233 0.0
C315 C 0.80222 0.62416 0.90704 0.0
C316 C 0.80407 0.62944 0.89062 0.0
C317 C 0.79931 0.61028 0.87901 0.0
C318 C 0.79231 0.5855 0.88438 0.0
C319 C 0.79069 0.58029 0.90091 0.0
P320 P 0.49285 0.24537 0.90072 0.0
H321 H 0.53256 0.29686 0.91158 0.0
H322 H 0.53053 0.32964 0.92812 0.0
H323 H 0.44785 0.2787 0.93442 0.0
H324 H 0.45014 0.24579 0.91799 0.0
H325 H 0.53167 0.23292 0.9124 0.0
H326 H 0.52861 0.19822 0.92888 0.0
H327 H 0.4455 0.16725 0.93301 0.0
H328 H 0.44884 0.20241 0.91667 0.0
H329 H 0.46721 0.26916 0.88381 0.0
H330 H 0.46416 0.19599 0.88342 0.0
O331 O 0.52127 0.25889 0.89114 0.0
H332 H 0.43539 0.25436 0.86175 0.0
H333 H 0.43186 0.18082 0.86156 0.0
C334 C 0.49143 0.26906 0.91341 0.0
C335 C 0.514 0.29272 0.91652 0.0
C336 C 0.51279 0.31149 0.92592 0.0
C337 C 0.48898 0.30686 0.93246 0.0
C338 C 0.4665 0.2828 0.92964 0.0
C339 C 0.46775 0.26403 0.92021 0.0
C340 C 0.49041 0.21993 0.91309 0.0
C341 C 0.51278 0.21864 0.9168 0.0
C342 C 0.51098 0.19872 0.92619 0.0
C343 C 0.48676 0.1798 0.93211 0.0
C344 C 0.46445 0.18157 0.92869 0.0
C345 C 0.4663 0.20155 0.91929 0.0
C346 C 0.46748 0.23342 0.88559 0.0
C347 C 0.45925 0.24969 0.87923 0.0
C348 C 0.44101 0.24119 0.86662 0.0
C349 C 0.43094 0.21633 0.85997 0.0
C350 C 0.43932 0.2001 0.86636 0.0
C351 C 0.45759 0.20866 0.87898 0.0
P352 P 0.79376 0.19118 0.93423 0.0
H353 H 0.84171 0.21906 0.95343 0.0
H354 H 0.867 0.26348 0.96292 0.0
H355 H 0.81002 0.27951 0.94179 0.0
H356 H 0.78484 0.23477 0.93207 0.0
H357 H 0.77385 0.16082 0.96307 0.0
H358 H 0.73063 0.13719 0.97475 0.0
H359 H 0.6998 0.16282 0.93651 0.0
H360 H 0.74338 0.18603 0.92462 0.0
H361 H 0.82574 0.22935 0.91021 0.0
H362 H 0.76235 0.15094 0.91053 0.0
O363 O 0.80934 0.17581 0.93984 0.0
H364 H 0.83001 0.22609 0.88123 0.0
H365 H 0.76698 0.14728 0.8815 0.0
C366 C 0.81136 0.22362 0.94208 0.0
C367 C 0.8345 0.23201 0.95092 0.0
C368 C 0.84891 0.25744 0.95642 0.0
C369 C 0.8405 0.27504 0.95316 0.0
C370 C 0.81713 0.26648 0.94439 0.0
C371 C 0.80264 0.24093 0.93893 0.0
C372 C 0.76167 0.17466 0.94279 0.0
C373 C 0.7578 0.16131 0.95715 0.0
C374 C 0.73306 0.14802 0.96393 0.0
C375 C 0.71165 0.14806 0.95659 0.0
C376 C 0.71577 0.16209 0.94236 0.0
C377 C 0.74064 0.1754 0.93557 0.0
C378 C 0.79332 0.19054 0.91252 0.0
C379 C 0.81229 0.21159 0.90401 0.0
C380 C 0.81494 0.20961 0.88742 0.0
C381 C 0.79896 0.18637 0.87903 0.0
C382 C 0.77938 0.16556 0.88753 0.0
C383 C 0.7767 0.16761 0.90414 0.0
P384 P 0.61849 0.81059 0.07334 0.0
H385 H 0.61218 0.78816 0.04138 0.0
H386 H 0.58828 0.74414 0.03092 0.0
H387 H 0.56052 0.71721 0.0789 0.0
H388 H 0.58268 0.76141 0.08887 0.0
H389 H 0.63736 0.8604 0.05827 0.0
H390 H 0.61526 0.88273 0.04854 0.0
H391 H 0.54153 0.81995 0.06429 0.0
H392 H 0.56398 0.79786 0.07427 0.0
H393 H 0.63308 0.78264 0.09551 0.0
H394 H 0.61628 0.84451 0.09836 0.0
O395 O 0.64793 0.82391 0.06501 0.0
H396 H 0.6417 0.78642 0.12442 0.0
H397 H 0.62644 0.84956 0.12712 0.0
C398 C 0.60002 0.77795 0.06599 0.0
C399 C 0.60085 0.77271 0.0496 0.0
C400 C 0.58728 0.74747 0.04367 0.0
C401 C 0.57282 0.72687 0.05409 0.0
C402 C 0.57129 0.73243 0.07045 0.0
C403 C 0.58441 0.75777 0.07627 0.0
C404 C 0.60221 0.82734 0.06675 0.0
C405 C 0.61645 0.85141 0.05961 0.0
C406 C 0.60375 0.86409 0.05397 0.0
C407 C 0.57658 0.85295 0.05545 0.0
C408 C 0.56247 0.82905 0.063 0.0
C409 C 0.57523 0.81636 0.06863 0.0
C410 C 0.62326 0.81273 0.09486 0.0
C411 C 0.63102 0.79691 0.10241 0.0
C412 C 0.63631 0.79936 0.11894 0.0
C413 C 0.63481 0.81833 0.1282 0.0
C414 C 0.62726 0.83437 0.1205 0.0
C415 C 0.62154 0.83158 0.10399 0.0
P416 P 0.2499 0.76837 0.10402 0.0
H417 H 0.23973 0.71862 0.09152 0.0
H418 H 0.20251 0.68324 0.07762 0.0
H419 H 0.16325 0.72733 0.07716 0.0
H420 H 0.20063 0.76281 0.09126 0.0
H421 H 0.30628 0.80045 0.10469 0.0
H422 H 0.3372 0.83537 0.08809 0.0
H423 H 0.27344 0.83079 0.05995 0.0
H424 H 0.24244 0.79489 0.07641 0.0
H425 H 0.2463 0.75771 0.1384 0.0
H426 H 0.22806 0.80285 0.10659 0.0
O427 O 0.26682 0.75551 0.11164 0.0
H428 H 0.23076 0.77188 0.1613 0.0
H429 H 0.21168 0.81655 0.12959 0.0
C430 C 0.22288 0.74329 0.09267 0.0
C431 C 0.22317 0.72078 0.08849 0.0
C432 C 0.20181 0.70048 0.08057 0.0
C433 C 0.17984 0.7024 0.07648 0.0
C434 C 0.17992 0.72532 0.08018 0.0
C435 C 0.20126 0.74558 0.08828 0.0
C436 C 0.27205 0.79475 0.09166 0.0
C437 C 0.29887 0.8068 0.09491 0.0
C438 C 0.31659 0.82702 0.08546 0.0
C439 C 0.30789 0.83605 0.07266 0.0
C440 C 0.28087 0.82413 0.06955 0.0
C441 C 0.26309 0.80367 0.07901 0.0
C442 C 0.23853 0.77936 0.12077 0.0
C443 C 0.23904 0.77074 0.13631 0.0
C444 C 0.23016 0.77886 0.14943 0.0
C445 C 0.22013 0.79537 0.14722 0.0
C446 C 0.21927 0.80374 0.1316 0.0
C447 C 0.22862 0.79594 0.11848 0.0
P448 P 0.20146 0.40711 0.07873 0.0
H449 H 0.17121 0.39629 0.04901 0.0
H450 H 0.14409 0.41227 0.03796 0.0
H451 H 0.16435 0.46476 0.07858 0.0
H452 H 0.19103 0.44787 0.08987 0.0
H453 H 0.24719 0.40606 0.09085 0.0
H454 H 0.29117 0.42312 0.08036 0.0
H455 H 0.27432 0.4631 0.0436 0.0
H456 H 0.23025 0.44572 0.05407 0.0
H457 H 0.15896 0.36668 0.09641 0.0
H458 H 0.23065 0.43639 0.108 0.0
O459 O 0.19017 0.37809 0.07025 0.0
H460 H 0.15116 0.35701 0.1249 0.0
H461 H 0.22274 0.4271 0.13684 0.0
C462 C 0.18281 0.42058 0.0704 0.0
C463 C 0.16984 0.41122 0.05558 0.0
C464 C 0.15448 0.4206 0.04918 0.0
C465 C 0.15195 0.43988 0.05734 0.0
C466 C 0.16553 0.44968 0.07206 0.0
C467 C 0.1809 0.44015 0.0785 0.0
C468 C 0.23554 0.42504 0.07351 0.0
C469 C 0.25321 0.41916 0.08085 0.0
C470 C 0.2784 0.42891 0.0748 0.0
C471 C 0.28633 0.44446 0.06108 0.0
C472 C 0.2688 0.451 0.05408 0.0
C473 C 0.24363 0.44128 0.06019 0.0
C474 C 0.19565 0.40194 0.10006 0.0
C475 C 0.17299 0.38002 0.10514 0.0
C476 C 0.16844 0.37463 0.1215 0.0
C477 C 0.18634 0.39123 0.13325 0.0
C478 C 0.20873 0.4137 0.12813 0.0
C479 C 0.21326 0.41909 0.11165 0.0
P480 P 0.45964 0.92357 0.26515 0.0
H481 H 0.44257 0.93426 0.2956 0.0
H482 H 0.39994 0.91838 0.30765 0.0
H483 H 0.36425 0.86485 0.2677 0.0
H484 H 0.40728 0.88166 0.25543 0.0
H485 H 0.51304 0.9366 0.25896 0.0
H486 H 0.54079 0.92066 0.26942 0.0
H487 H 0.4763 0.86405 0.29697 0.0
H488 H 0.44837 0.87979 0.28618 0.0
H489 H 0.43464 0.94419 0.24499 0.0
H490 H 0.47905 0.9061 0.23757 0.0
O491 O 0.47635 0.95415 0.27146 0.0
H492 H 0.43691 0.95319 0.21626 0.0
H493 H 0.48271 0.91627 0.20906 0.0
C494 C 0.42804 0.9095 0.27448 0.0
C495 C 0.4256 0.91906 0.28944 0.0
C496 C 0.40113 0.90974 0.2964 0.0
C497 C 0.37847 0.89033 0.28866 0.0
C498 C 0.38116 0.8801 0.27389 0.0
C499 C 0.40576 0.88957 0.26689 0.0
C500 C 0.47851 0.90915 0.27155 0.0
C501 C 0.50467 0.92037 0.26696 0.0
C502 C 0.52053 0.91125 0.27296 0.0
C503 C 0.5107 0.89104 0.28397 0.0
C504 C 0.48441 0.87969 0.28851 0.0
C505 C 0.4684 0.8886 0.28229 0.0
C506 C 0.45693 0.92478 0.24352 0.0
C507 C 0.44465 0.9375 0.23714 0.0
C508 C 0.44623 0.9429 0.22071 0.0
C509 C 0.46048 0.93597 0.21031 0.0
C510 C 0.47152 0.92188 0.21663 0.0
C511 C 0.46966 0.91625 0.23306 0.0
P512 P 0.15022 0.57638 0.23716 0.0
H513 H 0.19144 0.62602 0.2496 0.0
H514 H 0.1906 0.66006 0.2655 0.0
H515 H 0.10666 0.61414 0.26819 0.0
H516 H 0.10772 0.58 0.25238 0.0
H517 H 0.15831 0.53397 0.22873 0.0
H518 H 0.15735 0.49929 0.24418 0.0
H519 H 0.14055 0.52924 0.28728 0.0
H520 H 0.14022 0.56302 0.27154 0.0
H521 H 0.13448 0.60287 0.21485 0.0
H522 H 0.10785 0.52424 0.22759 0.0
O523 O 0.17793 0.5898 0.22682 0.0
H524 H 0.10072 0.58799 0.19386 0.0
H525 H 0.07439 0.50933 0.20647 0.0
C526 C 0.1496 0.60075 0.2496 0.0
C527 C 0.17287 0.62328 0.25361 0.0
C528 C 0.17235 0.64275 0.26264 0.0
C529 C 0.14854 0.63989 0.26793 0.0
C530 C 0.1253 0.61687 0.26431 0.0
C531 C 0.12586 0.59744 0.25522 0.0
C532 C 0.14935 0.55105 0.24895 0.0
C533 C 0.15431 0.53296 0.2415 0.0
C534 C 0.15395 0.51325 0.2504 0.0
C535 C 0.14904 0.51148 0.26704 0.0
C536 C 0.14404 0.52974 0.27447 0.0
C537 C 0.14405 0.54926 0.26548 0.0
C538 C 0.1238 0.56473 0.22274 0.0
C539 C 0.12125 0.58243 0.21322 0.0
C540 C 0.10191 0.57393 0.20128 0.0
C541 C 0.08499 0.54751 0.19854 0.0
C542 C 0.08733 0.5298 0.20826 0.0
C543 C 0.10651 0.53835 0.22034 0.0
P544 P 0.46441 0.52512 0.26874 0.0
H545 H 0.4608 0.55236 0.29694 0.0
H546 H 0.4845 0.5977 0.30515 0.0
H547 H 0.52311 0.61716 0.25919 0.0
H548 H 0.49923 0.57189 0.25101 0.0
H549 H 0.43974 0.47984 0.28899 0.0
H550 H 0.39629 0.45539 0.30044 0.0
H551 H 0.37322 0.5044 0.27665 0.0
H552 H 0.41729 0.52958 0.26556 0.0
H553 H 0.49599 0.50948 0.25018 0.0
H554 H 0.43659 0.52903 0.24035 0.0
O555 O 0.48329 0.51631 0.27848 0.0
H556 H 0.50008 0.50389 0.22152 0.0
H557 H 0.44004 0.5227 0.21145 0.0
C558 C 0.47783 0.55878 0.27325 0.0
C559 C 0.47386 0.56647 0.28847 0.0
C560 C 0.48761 0.59235 0.29322 0.0
C561 C 0.50574 0.611 0.28284 0.0
C562 C 0.50903 0.60331 0.26737 0.0
C563 C 0.49535 0.57739 0.26268 0.0
C564 C 0.43178 0.50654 0.27639 0.0
C565 C 0.42546 0.48548 0.28623 0.0
C566 C 0.40064 0.47154 0.29283 0.0
C567 C 0.38151 0.47813 0.28949 0.0
C568 C 0.38765 0.49893 0.27936 0.0
C569 C 0.41273 0.5132 0.27297 0.0
C570 C 0.46566 0.51927 0.24748 0.0
C571 C 0.48346 0.51216 0.24188 0.0
C572 C 0.48571 0.50884 0.22542 0.0
C573 C 0.4702 0.51257 0.21414 0.0
C574 C 0.45235 0.51975 0.2198 0.0
C575 C 0.45016 0.52313 0.23634 0.0
Gd576 Gd 0.50708 0.01919 0.02542 0.0
Gd577 Gd 0.48352 0.98218 0.98686 0.0
C578 C 0.40371 0.90916 0.9844 0.0
C579 C 0.41535 0.87609 0.98033 0.0
C580 C 0.44907 0.92111 0.98197 0.0
C581 C 0.43038 0.92803 0.98436 0.0
C582 C 0.44179 0.89513 0.97951 0.0
C583 C 0.39634 0.8831 0.98278 0.0
C584 C 0.38528 0.91712 0.98564 0.0
C585 C 0.39362 0.94334 0.98628 0.0
N586 N 0.43824 0.95337 0.98586 0.0
C587 C 0.42032 0.96132 0.98617 0.0
H588 H 0.42651 0.9815 0.98681 0.0
C589 C 0.49322 0.9345 0.97674 0.0
N590 N 0.47435 0.94001 0.9812 0.0
C591 C 0.487 0.909 0.97424 0.0
C592 C 0.46122 0.88917 0.97587 0.0
H593 H 0.51321 0.94975 0.97565 0.0
H594 H 0.37596 0.86829 0.983 0.0
H595 H 0.56395 0.0196 0.02763 0.0
H596 H 0.3646 0.90325 0.98569 0.0
H597 H 0.37952 0.94972 0.98695 0.0
H598 H 0.40937 0.85597 0.97867 0.0
H599 H 0.47625 0.05184 0.033 0.0
H600 H 0.62538 0.09701 0.03488 0.0
H601 H 0.61055 0.0508 0.03143 0.0
H602 H 0.58071 0.14478 0.03749 0.0
H603 H 0.5021 0.90464 0.97115 0.0
H604 H 0.45646 0.86944 0.97392 0.0
H605 H 0.61428 0.13216 0.03609 0.0
H606 H 0.48708 0.09682 0.0376 0.0
N607 N 0.55223 0.04776 0.02827 0.0
C608 C 0.60488 0.08342 0.03285 0.0
C609 C 0.59655 0.05734 0.03108 0.0
C610 C 0.58658 0.0916 0.0325 0.0
C611 C 0.56001 0.07301 0.03041 0.0
C612 C 0.57 0.03966 0.02894 0.0
N613 N 0.51579 0.06132 0.03064 0.0
C614 C 0.54118 0.08004 0.03152 0.0
C615 C 0.50249 0.09238 0.03588 0.0
C616 C 0.52855 0.11202 0.03619 0.0
C617 C 0.49643 0.06693 0.03332 0.0
C618 C 0.54831 0.10593 0.03429 0.0
H619 H 0.53322 0.1317 0.03826 0.0
O620 O 0.48851 0.0151 0.04859 0.0
O621 O 0.47511 0.98598 0.01239 0.0
O622 O 0.47301 0.01372 0.98955 0.0
O623 O 0.50457 0.0446 0.00677 0.0
O624 O 0.46397 0.00545 0.02782 0.0
O625 O 0.51877 0.00515 0.04592 0.0
O626 O 0.50338 0.98981 0.96394 0.0
O627 O 0.5157 0.01505 1.00003 0.0
O628 O 0.51872 0.98857 0.02282 0.0
O629 O 0.48972 0.95747 0.00443 0.0
O630 O 0.52652 0.99591 0.98393 0.0
O631 O 0.46812 0.9919 0.96596 0.0
C632 C 0.45548 0.98577 0.01828 0.0
C633 C 0.57482 0.12475 0.03549 0.0
C634 C 0.59393 0.11757 0.03468 0.0
C635 C 0.50305 0.00756 0.0558 0.0
C636 C 0.51422 0.0196 0.07155 0.0
C637 C 0.53457 0.04516 0.07263 0.0
C638 C 0.50477 0.00516 0.08564 0.0
C639 C 0.51582 0.01611 0.10079 0.0
C640 C 0.54551 0.05618 0.0876 0.0
C641 C 0.53629 0.0418 0.10158 0.0
C642 C 0.48713 0.03776 0.99499 0.0
C643 C 0.53513 0.01494 0.99402 0.0
C644 C 0.48609 0.99318 0.95636 0.0
C645 C 0.47731 0.98008 0.9406 0.0
C646 C 0.46188 0.95325 0.93956 0.0
C647 C 0.48532 0.99448 0.92641 0.0
C648 C 0.47843 0.98206 0.91121 0.0
C649 C 0.45484 0.94086 0.92453 0.0
C650 C 0.46316 0.9551 0.91044 0.0
C651 C 0.50704 0.96506 0.01635 0.0
H652 H 0.54203 0.05655 0.06194 0.0
H653 H 0.48917 0.98531 0.08476 0.0
H654 H 0.56121 0.07595 0.08836 0.0
H655 H 0.54497 0.05088 0.11306 0.0
H656 H 0.45547 0.94189 0.95033 0.0
H657 H 0.49737 0.01523 0.92719 0.0
H658 H 0.44299 0.92013 0.9238 0.0
H659 H 0.45744 0.94507 0.89891 0.0
Gd660 Gd 0.97931 0.49361 0.02292 0.0
Gd661 Gd 0.01997 0.51054 0.9865 0.0
C662 C 0.09363 0.50473 0.98265 0.0
C663 C 0.12767 0.54963 0.98208 0.0
C664 C 0.08216 0.53805 0.98403 0.0
C665 C 0.07477 0.51231 0.98426 0.0
C666 C 0.10865 0.557 0.98264 0.0
C667 C 0.12016 0.52352 0.98198 0.0
C668 C 0.0852 0.47853 0.98111 0.0
C669 C 0.0586 0.46061 0.98143 0.0
N670 N 0.04897 0.49465 0.98484 0.0
C671 C 0.04065 0.46905 0.98317 0.0
H672 H 0.02016 0.45497 0.98326 0.0
C673 C 0.06926 0.56926 0.9817 0.0
N674 N 0.06321 0.54441 0.98404 0.0
C675 C 0.09529 0.58881 0.98057 0.0
C676 C 0.11511 0.5827 0.98124 0.0
H677 H 0.05401 0.57408 0.98121 0.0
H678 H 0.13496 0.51804 0.98097 0.0
H679 H 0.98109 0.55026 0.02598 0.0
H680 H 0.099 0.47198 0.97924 0.0
H681 H 0.05189 0.44029 0.98017 0.0
H682 H 0.14815 0.56391 0.98115 0.0
H683 H 0.94372 0.43023 0.02827 0.0
H684 H 0.90308 0.5357 0.02993 0.0
H685 H 0.95045 0.56627 0.02884 0.0
H686 H 0.85161 0.44381 0.0288 0.0
H687 H 0.10005 0.60855 0.97917 0.0
H688 H 0.13524 0.59784 0.98022 0.0
H689 H 0.86617 0.49 0.02881 0.0
H690 H 0.89728 0.39672 0.03039 0.0
N691 N 0.95143 0.51082 0.02475 0.0
C692 C 0.9164 0.52851 0.02827 0.0
C693 C 0.94315 0.54582 0.02782 0.0
C694 C 0.90722 0.50213 0.02707 0.0
C695 C 0.92548 0.49376 0.02555 0.0
C696 C 0.96049 0.5366 0.0262 0.0
N697 N 0.93568 0.46072 0.02564 0.0
C698 C 0.91733 0.46785 0.0258 0.0
C699 C 0.90264 0.41665 0.02908 0.0
C700 C 0.88339 0.42356 0.02854 0.0
C701 C 0.92888 0.43565 0.02792 0.0
C702 C 0.89065 0.44948 0.02723 0.0
H703 H 0.86309 0.40884 0.02956 0.0
O704 O 0.98004 0.47671 0.04573 0.0
O705 O 0.01393 0.49578 0.01132 0.0
O706 O 0.98804 0.46828 0.98648 0.0
O707 O 0.95531 0.4662 0.00298 0.0
O708 O 0.99245 0.46422 0.02526 0.0
O709 O 0.9913 0.51703 0.04474 0.0
O710 O 0.01736 0.52661 0.96377 0.0
O711 O 0.98508 0.50787 0.99802 0.0
O712 O 0.01183 0.53567 0.02312 0.0
O713 O 0.04429 0.53737 0.00657 0.0
O714 O 0.00644 0.53964 0.98426 0.0
O715 O 0.01035 0.48763 0.96446 0.0
C716 C 0.01303 0.47582 0.01659 0.0
C717 C 0.87222 0.45763 0.02784 0.0
C718 C 0.88051 0.48393 0.02785 0.0
C719 C 0.98695 0.49786 0.05391 0.0
C720 C 0.97272 0.49543 0.0688 0.0
C721 C 0.94614 0.48767 0.06854 0.0
C722 C 0.98624 0.5014 0.08353 0.0
C723 C 0.97349 0.49997 0.09808 0.0
C724 C 0.93324 0.48601 0.0829 0.0
C725 C 0.94678 0.49215 0.0976 0.0
C726 C 0.96351 0.45669 0.99145 0.0
C727 C 0.98576 0.52775 0.99281 0.0
C728 C 0.01292 0.50631 0.9554 0.0
C729 C 0.02853 0.51104 0.94081 0.0
C730 C 0.05528 0.51966 0.94189 0.0
C731 C 0.01662 0.50726 0.9256 0.0
C732 C 0.03141 0.51225 0.9115 0.0
C733 C 0.07004 0.52459 0.92798 0.0
C734 C 0.05825 0.52096 0.91286 0.0
C735 C 0.03646 0.54671 0.01842 0.0
H736 H 0.93541 0.48299 0.0573 0.0
H737 H 0.00671 0.507 0.08363 0.0
H738 H 0.91273 0.4801 0.08264 0.0
H739 H 0.93645 0.49113 0.10855 0.0
H740 H 0.06476 0.52261 0.95344 0.0
H741 H 0.99597 0.50079 0.92477 0.0
H742 H 0.09069 0.5312 0.92892 0.0
H743 H 0.07005 0.52464 0.90221 0.0
Gd744 Gd 0.48479 0.50332 0.98661 0.0
Gd745 Gd 0.50909 0.49165 0.02488 0.0
C746 C 0.59104 0.5034 0.03023 0.0
C747 C 0.58228 0.45955 0.03266 0.0
C748 C 0.54651 0.46807 0.02958 0.0
C749 C 0.56407 0.49408 0.02851 0.0
C750 C 0.55537 0.45053 0.03194 0.0
C751 C 0.60008 0.48597 0.03192 0.0
C752 C 0.60801 0.52998 0.03084 0.0
C753 C 0.59804 0.54654 0.02961 0.0
N754 N 0.55467 0.51041 0.02696 0.0
C755 C 0.57116 0.53639 0.02781 0.0
H756 H 0.56381 0.54949 0.027 0.0
C757 C 0.50262 0.4351 0.03236 0.0
N758 N 0.52069 0.46011 0.02931 0.0
C759 C 0.51042 0.41689 0.03447 0.0
C760 C 0.53691 0.42458 0.03407 0.0
H761 H 0.48213 0.4291 0.03261 0.0
H762 H 0.62076 0.49277 0.03304 0.0
H763 H 0.42904 0.44639 0.9866 0.0
H764 H 0.62876 0.5379 0.03268 0.0
H765 H 0.61102 0.56713 0.03017 0.0
H766 H 0.58949 0.44636 0.03434 0.0
H767 H 0.51283 0.56432 0.97512 0.0
H768 H 0.36517 0.45966 0.98071 0.0
H769 H 0.38184 0.42973 0.98445 0.0
H770 H 0.40685 0.55061 0.97343 0.0
H771 H 0.49603 0.39697 0.03644 0.0
H772 H 0.54292 0.41048 0.03584 0.0
H773 H 0.3746 0.50501 0.97756 0.0
H774 H 0.50012 0.5966 0.9687 0.0
N775 N 0.43926 0.48565 0.98493 0.0
C776 C 0.38595 0.46718 0.98203 0.0
C777 C 0.3953 0.45021 0.98397 0.0
C778 C 0.40357 0.49356 0.98115 0.0
C779 C 0.43047 0.50227 0.98246 0.0
C780 C 0.42216 0.45979 0.98519 0.0
N781 N 0.47412 0.53491 0.98015 0.0
C782 C 0.44852 0.52779 0.98005 0.0
C783 C 0.48541 0.57734 0.97194 0.0
C784 C 0.45921 0.57067 0.97261 0.0
C785 C 0.49253 0.55902 0.97556 0.0
C786 C 0.44031 0.54549 0.9764 0.0
H787 H 0.45372 0.58485 0.96975 0.0
O788 O 0.5041 0.51575 0.96356 0.0
O789 O 0.5177 0.50365 0.99955 0.0
O790 O 0.51798 0.53299 0.023 0.0
O791 O 0.48924 0.5342 0.0041 0.0
O792 O 0.52754 0.53329 0.984 0.0
O793 O 0.47156 0.47707 0.96602 0.0
O794 O 0.49124 0.47649 0.048 0.0
O795 O 0.47635 0.49207 0.01219 0.0
O796 O 0.47518 0.46177 0.98914 0.0
O797 O 0.5072 0.46346 0.00621 0.0
O798 O 0.46635 0.46177 0.02726 0.0
O799 O 0.52069 0.51668 0.04601 0.0
C800 C 0.53681 0.52329 0.99375 0.0
C801 C 0.41356 0.53725 0.97604 0.0
C802 C 0.3952 0.5113 0.97838 0.0
C803 C 0.48822 0.49413 0.95623 0.0
C804 C 0.47792 0.49609 0.94053 0.0
C805 C 0.45787 0.50195 0.93948 0.0
C806 C 0.48844 0.49217 0.92638 0.0
C807 C 0.47905 0.4941 0.91115 0.0
C808 C 0.44848 0.50395 0.92445 0.0
C809 C 0.45895 0.50007 0.91036 0.0
C810 C 0.50589 0.54423 0.01638 0.0
C811 C 0.45719 0.47246 0.01798 0.0
C812 C 0.50576 0.49822 0.05567 0.0
C813 C 0.51797 0.49686 0.0708 0.0
C814 C 0.53908 0.4925 0.07056 0.0
C815 C 0.50864 0.50025 0.08563 0.0
C816 C 0.52049 0.49946 0.1002 0.0
C817 C 0.55081 0.49156 0.08492 0.0
C818 C 0.54164 0.49501 0.09965 0.0
C819 C 0.48975 0.45236 0.99449 0.0
H820 H 0.44948 0.50492 0.95024 0.0
H821 H 0.50414 0.48791 0.92725 0.0
H822 H 0.43295 0.50842 0.92371 0.0
H823 H 0.45105 0.50137 0.89886 0.0
H824 H 0.54652 0.48988 0.05932 0.0
H825 H 0.49247 0.50387 0.0858 0.0
H826 H 0.56706 0.48812 0.08463 0.0
H827 H 0.55091 0.49389 0.11063 0.0
Gd828 Gd 0.17659 0.35198 0.358 0.0
Gd829 Gd 0.15207 0.31469 0.31959 0.0
C830 C 0.07063 0.2437 0.31754 0.0
C831 C 0.08038 0.2092 0.31411 0.0
C832 C 0.11543 0.25371 0.31528 0.0
C833 C 0.09756 0.26174 0.31743 0.0
C834 C 0.10708 0.2274 0.31323 0.0
C835 C 0.06217 0.21735 0.31625 0.0
C836 C 0.05305 0.25274 0.31854 0.0
C837 C 0.06247 0.27917 0.31892 0.0
N838 N 0.10648 0.28733 0.31866 0.0
C839 C 0.08938 0.2963 0.31877 0.0
H840 H 0.09633 0.31665 0.3192 0.0
C841 C 0.15914 0.26513 0.31029 0.0
N842 N 0.14098 0.27182 0.31441 0.0
C843 C 0.15188 0.23926 0.30827 0.0
C844 C 0.12577 0.22026 0.30997 0.0
H845 H 0.17939 0.27977 0.30918 0.0
H846 H 0.04158 0.20317 0.3165 0.0
H847 H 0.23395 0.35345 0.3594 0.0
H848 H 0.03221 0.23953 0.31862 0.0
H849 H 0.04902 0.28638 0.31941 0.0
H850 H 0.07357 0.18886 0.31275 0.0
H851 H 0.14481 0.38356 0.36633 0.0
H852 H 0.29452 0.43106 0.36751 0.0
H853 H 0.28045 0.38514 0.36327 0.0
H854 H 0.24846 0.47731 0.37186 0.0
H855 H 0.16642 0.23398 0.30547 0.0
H856 H 0.12017 0.20023 0.30836 0.0
H857 H 0.2826 0.46555 0.36977 0.0
H858 H 0.15491 0.42804 0.37192 0.0
N859 N 0.2216 0.3811 0.36079 0.0
C860 C 0.27408 0.41727 0.36546 0.0
C861 C 0.26618 0.39135 0.36323 0.0
C862 C 0.25543 0.42501 0.36555 0.0
C863 C 0.22896 0.40616 0.36337 0.0
C864 C 0.23971 0.3734 0.36105 0.0
N865 N 0.18454 0.39374 0.3637 0.0
C866 C 0.20982 0.41273 0.36475 0.0
C867 C 0.17054 0.42402 0.36988 0.0
C868 C 0.19646 0.44394 0.37037 0.0
C869 C 0.1649 0.39883 0.36674 0.0
C870 C 0.21651 0.43838 0.36807 0.0
H871 H 0.20079 0.46341 0.37289 0.0
O872 O 0.15681 0.34536 0.38091 0.0
O873 O 0.14432 0.31869 0.34515 0.0
O874 O 0.14262 0.34697 0.32222 0.0
O875 O 0.17407 0.37774 0.3396 0.0
O876 O 0.13356 0.33845 0.3606 0.0
O877 O 0.19017 0.33997 0.37869 0.0
O878 O 0.16968 0.31825 0.29612 0.0
O879 O 0.18482 0.34743 0.33251 0.0
O880 O 0.18845 0.32157 0.35513 0.0
O881 O 0.1582 0.29018 0.3374 0.0
O882 O 0.19479 0.32775 0.31624 0.0
O883 O 0.13925 0.32779 0.29913 0.0
C884 C 0.12484 0.31873 0.35108 0.0
C885 C 0.24291 0.45746 0.36944 0.0
C886 C 0.26234 0.45076 0.36825 0.0
C887 C 0.17295 0.34012 0.38836 0.0
C888 C 0.18259 0.35268 0.40419 0.0
C889 C 0.20002 0.37918 0.4054 0.0
C890 C 0.17394 0.33807 0.41826 0.0
C891 C 0.18257 0.34988 0.43358 0.0
C892 C 0.20863 0.39104 0.42048 0.0
C893 C 0.19996 0.37659 0.43446 0.0
C894 C 0.15674 0.37096 0.32775 0.0
C895 C 0.20391 0.34695 0.32623 0.0
C896 C 0.15465 0.32528 0.28904 0.0
C897 C 0.14291 0.31256 0.27353 0.0
C898 C 0.12221 0.28713 0.27302 0.0
C899 C 0.15237 0.32606 0.25911 0.0
C900 C 0.14118 0.31424 0.24412 0.0
C901 C 0.11097 0.27531 0.25827 0.0
C902 C 0.12028 0.2887 0.24394 0.0
C903 C 0.17616 0.29788 0.34895 0.0
H904 H 0.20685 0.3907 0.39473 0.0
H905 H 0.16068 0.31752 0.41724 0.0
H906 H 0.22196 0.41155 0.42133 0.0
H907 H 0.20661 0.38645 0.44599 0.0
H908 H 0.11469 0.27649 0.28399 0.0
H909 H 0.16858 0.34564 0.25957 0.0
H910 H 0.09488 0.25571 0.25795 0.0
H911 H 0.11084 0.27913 0.23272 0.0
Gd912 Gd 0.64729 0.82702 0.35515 0.0
Gd913 Gd 0.68731 0.84475 0.31839 0.0
C914 C 0.76111 0.83921 0.31437 0.0
C915 C 0.79504 0.88416 0.31386 0.0
C916 C 0.74948 0.87243 0.31579 0.0
C917 C 0.74216 0.84671 0.31591 0.0
C918 C 0.77595 0.89145 0.31442 0.0
C919 C 0.78762 0.85807 0.31376 0.0
C920 C 0.75277 0.81302 0.31293 0.0
C921 C 0.72618 0.79503 0.31315 0.0
N922 N 0.71638 0.82898 0.31645 0.0
C923 C 0.70814 0.8034 0.31478 0.0
H924 H 0.68766 0.78928 0.31484 0.0
C925 C 0.73643 0.90354 0.31353 0.0
N926 N 0.73048 0.87872 0.31587 0.0
C927 C 0.76243 0.92315 0.31238 0.0
C928 C 0.78231 0.91712 0.31303 0.0
H929 H 0.72111 0.90828 0.31306 0.0
H930 H 0.80247 0.85266 0.31281 0.0
H931 H 0.64824 0.8832 0.35903 0.0
H932 H 0.76664 0.80651 0.31121 0.0
H933 H 0.71954 0.77473 0.31194 0.0
H934 H 0.8155 0.8985 0.31296 0.0
H935 H 0.61255 0.76355 0.36033 0.0
H936 H 0.56987 0.8675 0.36337 0.0
H937 H 0.61713 0.89858 0.36229 0.0
H938 H 0.51951 0.77555 0.36198 0.0
H939 H 0.76712 0.94287 0.31097 0.0
H940 H 0.80243 0.93232 0.31201 0.0
H941 H 0.53341 0.8216 0.36223 0.0
H942 H 0.56634 0.72956 0.36266 0.0
N943 N 0.61895 0.84364 0.35758 0.0
C944 C 0.58341 0.86061 0.36157 0.0
C945 C 0.61009 0.87819 0.36112 0.0
C946 C 0.57456 0.8343 0.3602 0.0
C947 C 0.59309 0.8263 0.35845 0.0
C948 C 0.6277 0.86933 0.35927 0.0
N949 N 0.60392 0.79371 0.35813 0.0
C950 C 0.58531 0.80048 0.35858 0.0
C951 C 0.5714 0.74943 0.36149 0.0
C952 C 0.55188 0.75598 0.36124 0.0
C953 C 0.59751 0.7687 0.36021 0.0
C954 C 0.55874 0.78182 0.3601 0.0
H955 H 0.53167 0.74104 0.36234 0.0
O956 O 0.64956 0.81008 0.37759 0.0
O957 O 0.68189 0.82977 0.34315 0.0
O958 O 0.6554 0.80248 0.31821 0.0
O959 O 0.62294 0.79987 0.3352 0.0
O960 O 0.66067 0.79779 0.35682 0.0
O961 O 0.6589 0.8499 0.37719 0.0
O962 O 0.6837 0.86088 0.29596 0.0
O963 O 0.65259 0.84165 0.33038 0.0
O964 O 0.67946 0.86923 0.35545 0.0
O965 O 0.71173 0.87169 0.33838 0.0
O966 O 0.67334 0.8736 0.31664 0.0
O967 O 0.67836 0.82251 0.29609 0.0
C968 C 0.68123 0.80978 0.34816 0.0
C969 C 0.54004 0.7896 0.36094 0.0
C970 C 0.54796 0.81581 0.36108 0.0
C971 C 0.65583 0.83083 0.38604 0.0
C972 C 0.64202 0.82732 0.40123 0.0
C973 C 0.61578 0.82085 0.40152 0.0
C974 C 0.65565 0.83091 0.41573 0.0
C975 C 0.64332 0.82828 0.43059 0.0
C976 C 0.60336 0.81816 0.41624 0.0
C977 C 0.61704 0.82194 0.43072 0.0
C978 C 0.63097 0.79072 0.32337 0.0
C979 C 0.65295 0.86149 0.32541 0.0
C980 C 0.68008 0.84111 0.2873 0.0
C981 C 0.69585 0.84697 0.27268 0.0
C982 C 0.72295 0.85751 0.27376 0.0
C983 C 0.68383 0.84267 0.25746 0.0
C984 C 0.69889 0.84934 0.2434 0.0
C985 C 0.73795 0.86404 0.25987 0.0
C986 C 0.72606 0.86012 0.24476 0.0
C987 C 0.70397 0.88065 0.35047 0.0
H988 H 0.60499 0.81802 0.39045 0.0
H989 H 0.67605 0.83627 0.41543 0.0
H990 H 0.58311 0.8132 0.41642 0.0
H991 H 0.60705 0.81972 0.442 0.0
H992 H 0.73253 0.86081 0.28529 0.0
H993 H 0.66289 0.83461 0.25658 0.0
H994 H 0.75887 0.87221 0.26082 0.0
H995 H 0.73804 0.86519 0.23411 0.0
Gd996 Gd 0.15442 0.84283 0.32245 0.0
Gd997 Gd 0.17687 0.82743 0.36017 0.0
C998 C 0.25651 0.83341 0.36506 0.0
C999 C 0.24477 0.78859 0.36694 0.0
C1000 C 0.21108 0.80015 0.36436 0.0
C1001 C 0.2299 0.82578 0.36349 0.0
C1002 C 0.21824 0.78125 0.36635 0.0
C1003 C 0.26388 0.81465 0.36639 0.0
C1004 C 0.27483 0.85966 0.36588 0.0
C1005 C 0.26646 0.87755 0.36508 0.0
N1006 N 0.22207 0.84339 0.36228 0.0
C1007 C 0.23986 0.86904 0.36343 0.0
H1008 H 0.23375 0.88312 0.3629 0.0
C1009 C 0.16641 0.76913 0.36682 0.0
N1010 N 0.18568 0.79384 0.36415 0.0
C1011 C 0.17251 0.74964 0.36861 0.0
C1012 C 0.19853 0.75567 0.36819 0.0
H1013 H 0.14626 0.76436 0.36705 0.0
H1014 H 0.28427 0.82013 0.36738 0.0
H1015 H 0.09785 0.78691 0.31956 0.0
H1016 H 0.29537 0.8663 0.36757 0.0
H1017 H 0.28048 0.89791 0.36583 0.0
H1018 H 0.25069 0.77434 0.36832 0.0
H1019 H 0.18499 0.90606 0.31593 0.0
H1020 H 0.03606 0.80322 0.31347 0.0
H1021 H 0.05113 0.77183 0.31597 0.0
H1022 H 0.08025 0.89518 0.31272 0.0
H1023 H 0.15715 0.73 0.3703 0.0
H1024 H 0.20322 0.74057 0.36967 0.0
H1025 H 0.04689 0.84929 0.31332 0.0
H1026 H 0.17389 0.94024 0.31243 0.0
N1027 N 0.10928 0.8266 0.31976 0.0
C1028 C 0.05658 0.80999 0.31542 0.0
C1029 C 0.06505 0.79222 0.31667 0.0
C1030 C 0.07477 0.83629 0.31621 0.0
C1031 C 0.10138 0.84408 0.31816 0.0
C1032 C 0.09163 0.80089 0.3187 0.0
N1033 N 0.14554 0.87633 0.3183 0.0
C1034 C 0.1201 0.8698 0.31757 0.0
C1035 C 0.15856 0.92051 0.3139 0.0
C1036 C 0.13246 0.91426 0.31385 0.0
C1037 C 0.16478 0.90113 0.31584 0.0
C1038 C 0.11282 0.88858 0.31537 0.0
H1039 H 0.12768 0.92927 0.31223 0.0
O1040 O 0.17491 0.85756 0.30002 0.0
O1041 O 0.18625 0.84069 0.33507 0.0
O1042 O 0.18833 0.86962 0.35879 0.0
O1043 O 0.15794 0.87118 0.34162 0.0
O1044 O 0.1976 0.8718 0.32053 0.0
O1045 O 0.14136 0.81909 0.30067 0.0
O1046 O 0.15881 0.81255 0.38329 0.0
O1047 O 0.14494 0.82938 0.34753 0.0
O1048 O 0.14348 0.80068 0.3235 0.0
O1049 O 0.17374 0.79949 0.34093 0.0
O1050 O 0.13368 0.79857 0.36228 0.0
O1051 O 0.18913 0.85241 0.38133 0.0
C1052 C 0.20594 0.86028 0.32972 0.0
C1053 C 0.08626 0.88104 0.31428 0.0
C1054 C 0.06727 0.85492 0.31462 0.0
C1055 C 0.15905 0.83697 0.29173 0.0
C1056 C 0.15037 0.84117 0.27605 0.0
C1057 C 0.13453 0.85227 0.27499 0.0
C1058 C 0.15893 0.83482 0.2619 0.0
C1059 C 0.15213 0.83992 0.24669 0.0
C1060 C 0.12756 0.85724 0.25994 0.0
C1061 C 0.13641 0.85127 0.24585 0.0
C1062 C 0.17577 0.88108 0.35324 0.0
C1063 C 0.12528 0.80981 0.35291 0.0
C1064 C 0.17387 0.83411 0.39098 0.0
C1065 C 0.18593 0.8323 0.40603 0.0
C1066 C 0.20711 0.82804 0.40568 0.0
C1067 C 0.17658 0.83541 0.42093 0.0
C1068 C 0.18858 0.83463 0.43542 0.0
C1069 C 0.21898 0.82709 0.41998 0.0
C1070 C 0.20987 0.83043 0.43476 0.0
C1071 C 0.15672 0.78981 0.32888 0.0
H1072 H 0.12775 0.85727 0.28576 0.0
H1073 H 0.17139 0.82645 0.26273 0.0
H1074 H 0.11538 0.86587 0.25918 0.0
H1075 H 0.13078 0.85529 0.2343 0.0
H1076 H 0.21455 0.82557 0.39438 0.0
H1077 H 0.16031 0.83888 0.42121 0.0
H1078 H 0.23532 0.82378 0.4196 0.0
H1079 H 0.21928 0.82941 0.44572 0.0
Gd1080 Gd 0.84241 0.68604 0.69229 0.0
Gd1081 Gd 0.81866 0.64899 0.65367 0.0
C1082 C 0.7379 0.57716 0.65051 0.0
C1083 C 0.74851 0.5433 0.64681 0.0
C1084 C 0.783 0.588 0.64867 0.0
C1085 C 0.76473 0.59555 0.65075 0.0
C1086 C 0.77515 0.56186 0.64632 0.0
C1087 C 0.72991 0.55095 0.64889 0.0
C1088 C 0.71994 0.58574 0.65152 0.0
C1089 C 0.72892 0.61208 0.65235 0.0
N1090 N 0.7732 0.621 0.65234 0.0
C1091 C 0.75575 0.62955 0.65255 0.0
H1092 H 0.76237 0.64982 0.65331 0.0
C1093 C 0.82706 0.60031 0.64414 0.0
N1094 N 0.80847 0.60646 0.64816 0.0
C1095 C 0.8203 0.57461 0.64185 0.0
C1096 C 0.79425 0.55525 0.64316 0.0
H1097 H 0.84725 0.61521 0.6433 0.0
H1098 H 0.70939 0.53651 0.64887 0.0
H1099 H 0.89991 0.68806 0.69481 0.0
H1100 H 0.69916 0.57227 0.6513 0.0
H1101 H 0.71519 0.61894 0.6529 0.0
H1102 H 0.74208 0.52307 0.64521 0.0
H1103 H 0.80989 0.71741 0.69915 0.0
H1104 H 0.95981 0.766 0.70284 0.0
H1105 H 0.94623 0.72009 0.69912 0.0
H1106 H 0.91304 0.81174 0.70502 0.0
H1107 H 0.83516 0.56975 0.63914 0.0
H1108 H 0.78904 0.53536 0.64135 0.0
H1109 H 0.94747 0.80026 0.70409 0.0
H1110 H 0.81951 0.76196 0.70377 0.0
N1111 N 0.88724 0.71547 0.69552 0.0
C1112 C 0.93947 0.75205 0.70062 0.0
C1113 C 0.93185 0.72613 0.69867 0.0
C1114 C 0.92066 0.75957 0.70016 0.0
C1115 C 0.89431 0.74052 0.69779 0.0
C1116 C 0.9055 0.70799 0.69625 0.0
N1117 N 0.84979 0.72779 0.69733 0.0
C1118 C 0.87499 0.74693 0.69857 0.0
C1119 C 0.8353 0.75801 0.70229 0.0
C1120 C 0.86115 0.77806 0.70296 0.0
C1121 C 0.82993 0.73279 0.69972 0.0
C1122 C 0.8814 0.77262 0.70138 0.0
H1123 H 0.86527 0.79757 0.70506 0.0
O1124 O 0.82206 0.67923 0.71498 0.0
O1125 O 0.81053 0.65271 0.67923 0.0
O1126 O 0.80858 0.6808 0.65653 0.0
O1127 O 0.84056 0.71167 0.67354 0.0
O1128 O 0.79926 0.67204 0.6947 0.0
O1129 O 0.85606 0.67479 0.71335 0.0
O1130 O 0.83773 0.65472 0.63056 0.0
O1131 O 0.85109 0.68151 0.66692 0.0
O1132 O 0.85448 0.65573 0.68954 0.0
O1133 O 0.8249 0.6245 0.6714 0.0
O1134 O 0.86147 0.66232 0.65053 0.0
O1135 O 0.80509 0.66112 0.63304 0.0
C1136 C 0.79087 0.65243 0.68512 0.0
C1137 C 0.9077 0.79186 0.70297 0.0
C1138 C 0.9273 0.78533 0.70244 0.0
C1139 C 0.83841 0.67464 0.72275 0.0
C1140 C 0.84748 0.68765 0.73853 0.0
C1141 C 0.86265 0.71448 0.73958 0.0
C1142 C 0.84021 0.67319 0.75272 0.0
C1143 C 0.84781 0.6855 0.76799 0.0
C1144 C 0.87026 0.72683 0.75457 0.0
C1145 C 0.86281 0.71256 0.76866 0.0
C1146 C 0.82298 0.70486 0.66186 0.0
C1147 C 0.87032 0.68122 0.66073 0.0
C1148 C 0.82183 0.66037 0.62323 0.0
C1149 C 0.81161 0.64768 0.6075 0.0
C1150 C 0.79297 0.62145 0.60652 0.0
C1151 C 0.82097 0.66182 0.59328 0.0
C1152 C 0.81195 0.64977 0.57808 0.0
C1153 C 0.78383 0.60943 0.59152 0.0
C1154 C 0.79324 0.62341 0.5774 0.0
C1155 C 0.84269 0.63221 0.68306 0.0
H1156 H 0.86838 0.72588 0.72884 0.0
H1157 H 0.82874 0.65242 0.75181 0.0
H1158 H 0.88176 0.74759 0.75529 0.0
H1159 H 0.86847 0.72284 0.78009 0.0
H1160 H 0.78555 0.61031 0.61732 0.0
H1161 H 0.83557 0.68205 0.59406 0.0
H1162 H 0.7694 0.58918 0.59084 0.0
H1163 H 0.78564 0.61363 0.56593 0.0
Gd1164 Gd 0.31503 0.16301 0.68523 0.0
Gd1165 Gd 0.34983 0.17385 0.64681 0.0
C1166 C 0.35218 0.11105 0.61624 0.0
C1167 C 0.39327 0.11492 0.62478 0.0
C1168 C 0.37908 0.14325 0.63624 0.0
C1169 C 0.3567 0.1313 0.62694 0.0
C1170 C 0.3981 0.13581 0.63486 0.0
C1171 C 0.37026 0.10246 0.61554 0.0
C1172 C 0.33008 0.1006 0.60622 0.0
C1173 C 0.31378 0.11113 0.60653 0.0
N1174 N 0.33994 0.14043 0.62777 0.0
C1175 C 0.31931 0.13147 0.61719 0.0
H1176 H 0.3065 0.13935 0.61728 0.0
C1177 C 0.40671 0.17827 0.65324 0.0
N1178 N 0.38315 0.16342 0.64575 0.0
C1179 C 0.4263 0.17188 0.65212 0.0
C1180 C 0.42185 0.15032 0.64307 0.0
H1181 H 0.41049 0.1951 0.66018 0.0
H1182 H 0.36704 0.08678 0.6075 0.0
H1183 H 0.30875 0.21515 0.68617 0.0
H1184 H 0.32584 0.08494 0.59789 0.0
H1185 H 0.29697 0.1036 0.59856 0.0
H1186 H 0.4075 0.10872 0.62371 0.0
H1187 H 0.28663 0.10011 0.69386 0.0
H1188 H 0.2289 0.19186 0.69442 0.0
H1189 H 0.27446 0.22624 0.69034 0.0
H1190 H 0.18717 0.10022 0.69656 0.0
H1191 H 0.44486 0.18373 0.65816 0.0
H1192 H 0.43718 0.1456 0.64201 0.0
H1193 H 0.19602 0.14474 0.69512 0.0
H1194 H 0.24258 0.0634 0.6982 0.0
N1195 N 0.28278 0.17476 0.68714 0.0
C1196 C 0.24374 0.18684 0.69201 0.0
C1197 C 0.26949 0.20629 0.68994 0.0
C1198 C 0.23754 0.16116 0.69146 0.0
C1199 C 0.25786 0.1557 0.6893 0.0
C1200 C 0.28888 0.19989 0.68756 0.0
N1201 N 0.27356 0.12684 0.69006 0.0
C1202 C 0.25301 0.13085 0.69056 0.0
C1203 C 0.24521 0.08225 0.69601 0.0
C1204 C 0.22373 0.08587 0.69573 0.0
C1205 C 0.27018 0.10316 0.69355 0.0
C1206 C 0.22753 0.11051 0.69341 0.0
H1207 H 0.20444 0.06971 0.69783 0.0
O1208 O 0.32661 0.1543 0.70814 0.0
O1209 O 0.34992 0.16612 0.67283 0.0
O1210 O 0.32099 0.1315 0.64981 0.0
O1211 O 0.28997 0.13162 0.66713 0.0
O1212 O 0.3303 0.13562 0.68808 0.0
O1213 O 0.32296 0.18801 0.70615 0.0
O1214 O 0.38527 0.20631 0.63774 0.0
O1215 O 0.32227 0.1808 0.66135 0.0
O1216 O 0.34331 0.20545 0.6813 0.0
O1217 O 0.37466 0.20381 0.66577 0.0
O1218 O 0.31316 0.17178 0.63717 0.0
O1219 O 0.34828 0.19596 0.62674 0.0
C1220 C 0.34986 0.14677 0.67861 0.0
C1221 C 0.2069 0.1156 0.69449 0.0
C1222 C 0.21194 0.14093 0.69367 0.0
C1223 C 0.3271 0.17352 0.71574 0.0
C1224 C 0.31372 0.16777 0.73126 0.0
C1225 C 0.28649 0.15607 0.73201 0.0
C1226 C 0.32846 0.17395 0.74554 0.0
C1227 C 0.31621 0.16855 0.76062 0.0
C1228 C 0.27416 0.15058 0.74692 0.0
C1229 C 0.28887 0.15674 0.76116 0.0
C1230 C 0.29739 0.12043 0.65617 0.0
C1231 C 0.30563 0.17684 0.65048 0.0
C1232 C 0.37348 0.20972 0.62563 0.0
C1233 C 0.38497 0.2115 0.60958 0.0
C1234 C 0.41221 0.22466 0.60804 0.0
C1235 C 0.36917 0.20052 0.59573 0.0
C1236 C 0.38046 0.20267 0.58051 0.0
C1237 C 0.4235 0.22668 0.59303 0.0
C1238 C 0.40781 0.21585 0.57935 0.0
C1239 C 0.36758 0.21594 0.67618 0.0
H1240 H 0.27482 0.15121 0.72114 0.0
H1241 H 0.34948 0.18269 0.74487 0.0
H1242 H 0.25314 0.14159 0.74743 0.0
H1243 H 0.2789 0.15258 0.77258 0.0
H1244 H 0.4248 0.23342 0.61846 0.0
H1245 H 0.34813 0.19017 0.59676 0.0
H1246 H 0.44451 0.23691 0.59196 0.0
H1247 H 0.41713 0.21826 0.5678 0.0
Gd1248 Gd 0.81709 0.17255 0.65394 0.0
Gd1249 Gd 0.83888 0.15593 0.69149 0.0
C1250 C 0.91764 0.16005 0.69659 0.0
C1251 C 0.90498 0.11492 0.69785 0.0
C1252 C 0.87197 0.12743 0.69544 0.0
C1253 C 0.89117 0.15297 0.69497 0.0
C1254 C 0.87859 0.1081 0.69714 0.0
C1255 C 0.92447 0.14087 0.69766 0.0
C1256 C 0.93635 0.18617 0.69761 0.0
C1257 C 0.92852 0.20448 0.69696 0.0
N1258 N 0.88387 0.17099 0.69392 0.0
C1259 C 0.90204 0.1965 0.69526 0.0
H1260 H 0.89632 0.21088 0.69481 0.0
C1261 C 0.82705 0.09692 0.69728 0.0
N1262 N 0.84672 0.1216 0.69505 0.0
C1263 C 0.83261 0.07702 0.69877 0.0
C1264 C 0.85849 0.08258 0.69851 0.0
H1265 H 0.807 0.09249 0.69739 0.0
H1266 H 0.94474 0.14594 0.69868 0.0
H1267 H 0.76016 0.11709 0.65058 0.0
H1268 H 0.9568 0.19238 0.6993 0.0
H1269 H 0.94284 0.22474 0.69785 0.0
H1270 H 0.91048 0.10034 0.69901 0.0
H1271 H 0.84818 0.23583 0.64746 0.0
H1272 H 0.69875 0.13445 0.64667 0.0
H1273 H 0.7134 0.10259 0.64788 0.0
H1274 H 0.74401 0.22649 0.64635 0.0
H1275 H 0.81694 0.05741 0.70012 0.0
H1276 H 0.86276 0.06715 0.69976 0.0
H1277 H 0.71022 0.18075 0.64698 0.0
H1278 H 0.83758 0.27047 0.64468 0.0
N1279 N 0.77201 0.15687 0.65148 0.0
C1280 C 0.71931 0.14095 0.64813 0.0
C1281 C 0.72753 0.12292 0.64867 0.0
C1282 C 0.73778 0.16717 0.64895 0.0
C1283 C 0.76436 0.17461 0.6504 0.0
C1284 C 0.75411 0.13126 0.65018 0.0
N1285 N 0.80865 0.20643 0.65016 0.0
C1286 C 0.7833 0.20025 0.64984 0.0
C1287 C 0.82212 0.25081 0.64615 0.0
C1288 C 0.79614 0.24491 0.64657 0.0
C1289 C 0.82805 0.23116 0.64768 0.0
C1290 C 0.7763 0.21931 0.64811 0.0
H1291 H 0.79158 0.26014 0.6453 0.0
O1292 O 0.83798 0.18743 0.63167 0.0
O1293 O 0.84865 0.1699 0.66653 0.0
O1294 O 0.85098 0.19833 0.6905 0.0
O1295 O 0.82109 0.20076 0.6733 0.0
O1296 O 0.8603 0.20133 0.6522 0.0
O1297 O 0.80362 0.14945 0.63192 0.0
O1298 O 0.81915 0.14089 0.71412 0.0
O1299 O 0.80744 0.15873 0.6789 0.0
O1300 O 0.80584 0.13026 0.65462 0.0
O1301 O 0.83601 0.12861 0.67192 0.0
O1302 O 0.79555 0.12733 0.6932 0.0
O1303 O 0.85199 0.17974 0.71319 0.0
C1304 C 0.86844 0.18957 0.66132 0.0
C1305 C 0.74981 0.21213 0.64753 0.0
C1306 C 0.73057 0.18609 0.64789 0.0
C1307 C 0.82175 0.16727 0.62317 0.0
C1308 C 0.81366 0.17233 0.60755 0.0
C1309 C 0.79823 0.18386 0.60662 0.0
C1310 C 0.82241 0.16632 0.59337 0.0
C1311 C 0.81628 0.17219 0.57816 0.0
C1312 C 0.79184 0.18958 0.59162 0.0
C1313 C 0.80087 0.18394 0.57749 0.0
C1314 C 0.83892 0.21028 0.68493 0.0
C1315 C 0.78754 0.13913 0.68402 0.0
C1316 C 0.83512 0.16155 0.72233 0.0
C1317 C 0.84526 0.15749 0.73751 0.0
C1318 C 0.86416 0.15001 0.73744 0.0
C1319 C 0.83574 0.16091 0.75225 0.0
C1320 C 0.84499 0.1568 0.76693 0.0
C1321 C 0.87347 0.14595 0.75191 0.0
C1322 C 0.864 0.1493 0.76657 0.0
C1323 C 0.81898 0.1192 0.65986 0.0
H1324 H 0.79133 0.18863 0.61743 0.0
H1325 H 0.83397 0.157 0.59425 0.0
H1326 H 0.78007 0.19867 0.59095 0.0
H1327 H 0.7961 0.18917 0.56607 0.0
H1328 H 0.87172 0.14732 0.72624 0.0
H1329 H 0.82093 0.16645 0.75226 0.0
H1330 H 0.88813 0.14025 0.75177 0.0
H1331 H 0.87182 0.14637 0.77763 0.0
C1332 C 0.32412 0.85789 0.04598 0.0
C1333 C 0.32716 0.85786 0.06277 0.0
C1334 C 0.343 0.87784 0.03658 0.0
C1335 C 0.36556 0.89809 0.04413 0.0
C1336 C 0.36853 0.89833 0.06107 0.0
C1337 C 0.34925 0.87841 0.07015 0.0
C1338 C 0.33906 0.87702 0.01857 0.0
C1339 C 0.3923 0.91952 0.06963 0.0
C1340 C 0.42991 0.93851 0.02307 0.0
C1341 C 0.43077 0.96214 0.02193 0.0
C1342 C 0.40794 0.91687 0.02918 0.0
C1343 C 0.38644 0.91903 0.03451 0.0
C1344 C 0.38664 0.94249 0.03254 0.0
C1345 C 0.40894 0.96385 0.02642 0.0
C1346 C 0.40858 0.89224 0.03092 0.0
C1347 C 0.36395 0.9455 0.03778 0.0
H1348 H 0.30728 0.84202 0.04011 0.0
H1349 H 0.35156 0.87893 0.08313 0.0
H1350 H 0.34138 0.89553 0.01444 0.0
H1351 H 0.35412 0.87429 0.01245 0.0
H1352 H 0.31952 0.86122 0.01469 0.0
H1353 H 0.39173 0.9168 0.08286 0.0
H1354 H 0.41018 0.92029 0.06492 0.0
H1355 H 0.39393 0.93838 0.06728 0.0
H1356 H 0.44687 0.93715 0.01991 0.0
H1357 H 0.40964 0.98217 0.02561 0.0
H1358 H 0.39002 0.87555 0.02658 0.0
H1359 H 0.41091 0.88924 0.04385 0.0
H1360 H 0.42492 0.89263 0.02416 0.0
H1361 H 0.34529 0.92905 0.03331 0.0
H1362 H 0.36556 0.96361 0.03339 0.0
H1363 H 0.36318 0.94564 0.05113 0.0
C1364 C 0.13322 0.45163 0.03388 0.0
C1365 C 0.13463 0.449 0.05057 0.0
C1366 C 0.11517 0.45758 0.02711 0.0
C1367 C 0.09833 0.46158 0.03724 0.0
C1368 C 0.10046 0.46014 0.05417 0.0
C1369 C 0.11845 0.45375 0.06062 0.0
C1370 C 0.11391 0.45918 0.00908 0.0
C1371 C 0.08307 0.46447 0.06546 0.0
C1372 C 0.0608 0.49366 0.0221 0.0
C1373 C 0.03576 0.47243 0.01964 0.0
C1374 C 0.08166 0.49047 0.02723 0.0
C1375 C 0.07727 0.46545 0.0302 0.0
C1376 C 0.05215 0.44393 0.02721 0.0
C1377 C 0.0317 0.44771 0.02211 0.0
C1378 C 0.10807 0.51397 0.03012 0.0
C1379 C 0.04667 0.41689 0.02985 0.0
H1380 H 0.14608 0.4487 0.02601 0.0
H1381 H 0.11918 0.45162 0.07352 0.0
H1382 H 0.09359 0.44671 0.00467 0.0
H1383 H 0.12012 0.47924 0.00582 0.0
H1384 H 0.12669 0.45336 0.00279 0.0
H1385 H 0.08842 0.46456 0.0783 0.0
H1386 H 0.08417 0.48304 0.06286 0.0
H1387 H 0.06251 0.44908 0.06356 0.0
H1388 H 0.06396 0.51285 0.02059 0.0
H1389 H 0.01229 0.43129 0.02033 0.0
H1390 H 0.12342 0.51172 0.024 0.0
H1391 H 0.11269 0.51631 0.0432 0.0
H1392 H 0.1089 0.53175 0.02575 0.0
H1393 H 0.06069 0.41343 0.023 0.0
H1394 H 0.02655 0.4022 0.02609 0.0
H1395 H 0.04931 0.41428 0.04279 0.0
C1396 C 0.5367 0.68062 0.05449 0.0
C1397 C 0.5603 0.69976 0.04805 0.0
C1398 C 0.52579 0.65476 0.04966 0.0
C1399 C 0.53841 0.64795 0.0378 0.0
C1400 C 0.56167 0.66721 0.03081 0.0
C1401 C 0.57251 0.69277 0.03617 0.0
C1402 C 0.50118 0.63466 0.05758 0.0
C1403 C 0.57548 0.66075 0.01791 0.0
C1404 C 0.53025 0.58135 0.03554 0.0
C1405 C 0.51249 0.57 0.02267 0.0
C1406 C 0.53795 0.60631 0.04103 0.0
C1407 C 0.52816 0.62056 0.03321 0.0
C1408 C 0.50968 0.60902 0.02052 0.0
C1409 C 0.50166 0.58369 0.01565 0.0
C1410 C 0.55708 0.61765 0.05495 0.0
C1411 C 0.49914 0.62374 0.01167 0.0
H1412 H 0.52676 0.68576 0.06343 0.0
H1413 H 0.59098 0.70715 0.03129 0.0
H1414 H 0.48593 0.62347 0.04835 0.0
H1415 H 0.50516 0.62091 0.06403 0.0
H1416 H 0.49337 0.64319 0.06631 0.0
H1417 H 0.59212 0.6782 0.01275 0.0
H1418 H 0.58298 0.64872 0.02304 0.0
H1419 H 0.56165 0.64943 0.00802 0.0
H1420 H 0.53844 0.57087 0.0413 0.0
H1421 H 0.48722 0.57484 0.00614 0.0
H1422 H 0.54957 0.62561 0.06425 0.0
H1423 H 0.57583 0.63373 0.05067 0.0
H1424 H 0.56097 0.60327 0.06065 0.0
H1425 H 0.491 0.63204 0.02028 0.0
H1426 H 0.48375 0.61151 0.00272 0.0
H1427 H 0.51527 0.63999 0.00527 0.0
C1428 C 0.86118 0.32239 0.94826 0.0
C1429 C 0.85652 0.30231 0.95862 0.0
C1430 C 0.87767 0.34818 0.95294 0.0
C1431 C 0.88978 0.35401 0.96835 0.0
C1432 C 0.88464 0.33386 0.97901 0.0
C1433 C 0.86808 0.30828 0.97402 0.0
C1434 C 0.88263 0.36916 0.94126 0.0
C1435 C 0.89704 0.33929 0.99559 0.0
C1436 C 0.95314 0.41676 0.97577 0.0
C1437 C 0.94455 0.43122 0.98445 0.0
C1438 C 0.93543 0.39182 0.97013 0.0
C1439 C 0.90847 0.38111 0.97321 0.0
C1440 C 0.89961 0.39592 0.98152 0.0
C1441 C 0.91773 0.42082 0.98696 0.0
C1442 C 0.94565 0.37666 0.96129 0.0
C1443 C 0.87106 0.38525 0.98504 0.0
H1444 H 0.85252 0.31792 0.93628 0.0
H1445 H 0.86425 0.29288 0.98219 0.0
H1446 H 0.87816 0.38327 0.94697 0.0
H1447 H 0.90355 0.37971 0.93801 0.0
H1448 H 0.87076 0.36151 0.93004 0.0
H1449 H 0.89036 0.32151 0.00261 0.0
H1450 H 0.91856 0.34907 0.99452 0.0
H1451 H 0.89242 0.35245 0.00242 0.0
H1452 H 0.97379 0.42465 0.97371 0.0
H1453 H 0.91084 0.43206 0.99336 0.0
H1454 H 0.93551 0.36968 0.94948 0.0
H1455 H 0.9416 0.35951 0.96833 0.0
H1456 H 0.96698 0.38817 0.95921 0.0
H1457 H 0.85933 0.37806 0.97376 0.0
H1458 H 0.8672 0.39979 0.99077 0.0
H1459 H 0.8642 0.36871 0.99323 0.0
C1460 C 0.68254 0.54951 0.9782 0.0
C1461 C 0.68629 0.55093 0.96147 0.0
C1462 C 0.65834 0.5433 0.98483 0.0
C1463 C 0.63705 0.53791 0.97453 0.0
C1464 C 0.6403 0.53804 0.95762 0.0
C1465 C 0.66486 0.54465 0.9513 0.0
C1466 C 0.65579 0.54322 0.00287 0.0
C1467 C 0.61807 0.53213 0.94617 0.0
C1468 C 0.56716 0.50596 0.98983 0.0
C1469 C 0.5632 0.52701 0.99127 0.0
C1470 C 0.59137 0.50922 0.98502 0.0
C1471 C 0.61203 0.53412 0.98134 0.0
C1472 C 0.60831 0.55551 0.98332 0.0
C1473 C 0.5839 0.55165 0.9881 0.0
C1474 C 0.59435 0.48585 0.98316 0.0
C1475 C 0.62987 0.58245 0.97985 0.0
H1476 H 0.69872 0.55365 0.9862 0.0
H1477 H 0.66749 0.54582 0.93836 0.0
H1478 H 0.6499 0.55734 0.0066 0.0
H1479 H 0.64038 0.52397 0.00671 0.0
H1480 H 0.67424 0.54805 0.00925 0.0
H1481 H 0.62311 0.531 0.93343 0.0
H1482 H 0.60061 0.51363 0.9493 0.0
H1483 H 0.61272 0.54731 0.94729 0.0
H1484 H 0.55107 0.48679 0.99184 0.0
H1485 H 0.58078 0.56791 0.98906 0.0
H1486 H 0.61267 0.4892 0.98901 0.0
H1487 H 0.59552 0.48201 0.97017 0.0
H1488 H 0.57773 0.46847 0.98842 0.0
H1489 H 0.64777 0.58686 0.98672 0.0
H1490 H 0.62441 0.59713 0.98299 0.0
H1491 H 0.63471 0.58403 0.96686 0.0
C1492 C 0.46958 0.14997 0.95554 0.0
C1493 C 0.48489 0.15821 0.94166 0.0
C1494 C 0.46821 0.12996 0.96481 0.0
C1495 C 0.48249 0.11793 0.96006 0.0
C1496 C 0.49771 0.12595 0.94596 0.0
C1497 C 0.49869 0.14595 0.93692 0.0
C1498 C 0.45181 0.12192 0.9798 0.0
C1499 C 0.51314 0.11353 0.94047 0.0
C1500 C 0.50209 0.0841 0.99055 0.0
C1501 C 0.48435 0.05814 0.98701 0.0
C1502 C 0.50116 0.10375 0.98223 0.0
C1503 C 0.4821 0.09734 0.96999 0.0
C1504 C 0.46368 0.07122 0.96663 0.0
C1505 C 0.46503 0.05191 0.97518 0.0
C1506 C 0.5212 0.13137 0.98616 0.0
C1507 C 0.44304 0.06364 0.95368 0.0
H1508 H 0.45906 0.15952 0.95935 0.0
H1509 H 0.51019 0.15192 0.92606 0.0
H1510 H 0.43736 0.10107 0.97913 0.0
H1511 H 0.46439 0.12519 0.99052 0.0
H1512 H 0.44125 0.13266 0.98157 0.0
H1513 H 0.52372 0.12179 0.9291 0.0
H1514 H 0.52755 0.11602 0.94992 0.0
H1515 H 0.49996 0.09258 0.93858 0.0
H1516 H 0.51728 0.08918 0.99954 0.0
H1517 H 0.45121 0.03193 0.97237 0.0
H1518 H 0.51149 0.14273 0.98854 0.0
H1519 H 0.53415 0.14002 0.97569 0.0
H1520 H 0.53345 0.13314 0.9968 0.0
H1521 H 0.43195 0.07377 0.95568 0.0
H1522 H 0.42912 0.0426 0.95329 0.0
H1523 H 0.45243 0.06948 0.94175 0.0
C1524 C 0.68171 0.13124 0.98028 0.0
C1525 C 0.6851 0.13263 0.96352 0.0
C1526 C 0.65744 0.11443 0.98707 0.0
C1527 C 0.63583 0.09882 0.97689 0.0
C1528 C 0.63877 0.10115 0.95996 0.0
C1529 C 0.66336 0.11793 0.95348 0.0
C1530 C 0.6551 0.11292 0.00514 0.0
C1531 C 0.6162 0.08502 0.94865 0.0
C1532 C 0.5824 0.03297 0.98966 0.0
C1533 C 0.56164 0.03726 0.99254 0.0
C1534 C 0.60704 0.05318 0.98544 0.0
C1535 C 0.6109 0.07826 0.98375 0.0
C1536 C 0.59025 0.08291 0.98736 0.0
C1537 C 0.56576 0.06227 0.99158 0.0
C1538 C 0.62862 0.04742 0.98206 0.0
C1539 C 0.59346 0.10931 0.98587 0.0
H1540 H 0.69823 0.14302 0.98814 0.0
H1541 H 0.66575 0.1187 0.94053 0.0
H1542 H 0.64119 0.1191 0.00903 0.0
H1543 H 0.64733 0.0928 0.009 0.0
H1544 H 0.67407 0.12529 0.01139 0.0
H1545 H 0.62105 0.09068 0.93589 0.0
H1546 H 0.6105 0.06449 0.94969 0.0
H1547 H 0.59901 0.08674 0.95197 0.0
H1548 H 0.57912 0.01356 0.9903 0.0
H1549 H 0.54962 0.06558 0.99342 0.0
H1550 H 0.64644 0.06082 0.98904 0.0
H1551 H 0.63362 0.0503 0.9691 0.0
H1552 H 0.62307 0.0274 0.98513 0.0
H1553 H 0.61214 0.12413 0.99142 0.0
H1554 H 0.57722 0.11056 0.99163 0.0
H1555 H 0.59389 0.11392 0.97293 0.0
C1556 C 0.86418 0.54937 0.97435 0.0
C1557 C 0.86098 0.54865 0.95756 0.0
C1558 C 0.88284 0.54458 0.98148 0.0
C1559 C 0.89877 0.53884 0.97163 0.0
C1560 C 0.8951 0.53731 0.95468 0.0
C1561 C 0.87629 0.5422 0.94787 0.0
C1562 C 0.88565 0.54594 0.99956 0.0
C1563 C 0.91161 0.53123 0.9437 0.0
C1564 C 0.96644 0.55489 0.98596 0.0
C1565 C 0.96274 0.5306 0.98953 0.0
C1566 C 0.9456 0.55791 0.98067 0.0
C1567 C 0.92036 0.53605 0.97885 0.0
C1568 C 0.91634 0.51155 0.983 0.0
C1569 C 0.93765 0.50908 0.98804 0.0
C1570 C 0.95077 0.58442 0.97654 0.0
C1571 C 0.88974 0.4878 0.98159 0.0
H1572 H 0.85271 0.55458 0.98198 0.0
H1573 H 0.87374 0.54122 0.9349 0.0
H1574 H 0.87924 0.52642 0.00409 0.0
H1575 H 0.90636 0.55856 0.0032 0.0
H1576 H 0.87375 0.55322 0.00544 0.0
H1577 H 0.90563 0.52968 0.93086 0.0
H1578 H 0.93237 0.54651 0.94493 0.0
H1579 H 0.9103 0.51289 0.94722 0.0
H1580 H 0.98587 0.57153 0.98695 0.0
H1581 H 0.93472 0.49017 0.99037 0.0
H1582 H 0.9374 0.58891 0.98331 0.0
H1583 H 0.94689 0.58508 0.96351 0.0
H1584 H 0.97118 0.59955 0.97931 0.0
H1585 H 0.875 0.49099 0.98773 0.0
H1586 H 0.88936 0.47073 0.98688 0.0
H1587 H 0.88389 0.48358 0.96871 0.0
C1588 C 0.47332 0.32138 0.95622 0.0
C1589 C 0.48761 0.32725 0.94193 0.0
C1590 C 0.47225 0.34065 0.96534 0.0
C1591 C 0.48577 0.36634 0.96002 0.0
C1592 C 0.50002 0.37234 0.94553 0.0
C1593 C 0.50075 0.35273 0.93667 0.0
C1594 C 0.45693 0.33358 0.98076 0.0
C1595 C 0.5146 0.39951 0.93942 0.0
C1596 C 0.46755 0.41507 0.97514 0.0
C1597 C 0.48741 0.42914 0.98652 0.0
C1598 C 0.46638 0.39414 0.9667 0.0
C1599 C 0.48552 0.38716 0.96971 0.0
C1600 C 0.50524 0.4009 0.98145 0.0
C1601 C 0.50599 0.42175 0.98967 0.0
C1602 C 0.44504 0.37992 0.95427 0.0
C1603 C 0.52606 0.39412 0.98501 0.0
H1604 H 0.46332 0.30177 0.96042 0.0
H1605 H 0.51148 0.35731 0.9255 0.0
H1606 H 0.47014 0.34396 0.9911 0.0
H1607 H 0.44203 0.33957 0.9803 0.0
H1608 H 0.44701 0.31262 0.98304 0.0
H1609 H 0.52449 0.4009 0.92783 0.0
H1610 H 0.50097 0.40689 0.9377 0.0
H1611 H 0.52949 0.41227 0.94845 0.0
H1612 H 0.4531 0.42062 0.97264 0.0
H1613 H 0.52164 0.43267 0.99826 0.0
H1614 H 0.43439 0.35904 0.95676 0.0
H1615 H 0.45373 0.38236 0.94215 0.0
H1616 H 0.43085 0.38685 0.95399 0.0
H1617 H 0.51701 0.37345 0.98787 0.0
H1618 H 0.53897 0.40563 0.99523 0.0
H1619 H 0.53825 0.39752 0.97419 0.0
C1620 C 0.14713 0.65544 0.07447 0.0
C1621 C 0.15692 0.68031 0.06854 0.0
C1622 C 0.12637 0.63409 0.0667 0.0
C1623 C 0.11527 0.63764 0.05253 0.0
C1624 C 0.12469 0.66277 0.04666 0.0
C1625 C 0.14533 0.68385 0.0548 0.0
C1626 C 0.11669 0.60766 0.07347 0.0
C1627 C 0.11352 0.66731 0.03151 0.0
C1628 C 0.08295 0.58032 0.02375 0.0
C1629 C 0.05637 0.57041 0.0269 0.0
C1630 C 0.1022 0.60249 0.03172 0.0
C1631 C 0.09481 0.61489 0.04341 0.0
C1632 C 0.06805 0.60498 0.04673 0.0
C1633 C 0.04913 0.5829 0.0384 0.0
C1634 C 0.13049 0.61243 0.02775 0.0
C1635 C 0.05943 0.61749 0.05926 0.0
H1636 H 0.1558 0.65267 0.08523 0.0
H1637 H 0.15295 0.70303 0.05012 0.0
H1638 H 0.09533 0.59793 0.07536 0.0
H1639 H 0.12031 0.5957 0.06475 0.0
H1640 H 0.12639 0.60833 0.08509 0.0
H1641 H 0.12212 0.68808 0.02896 0.0
H1642 H 0.11719 0.65786 0.02109 0.0
H1643 H 0.09207 0.65857 0.03252 0.0
H1644 H 0.08888 0.57058 0.01517 0.0
H1645 H 0.02868 0.57537 0.041 0.0
H1646 H 0.1411 0.61173 0.03859 0.0
H1647 H 0.13982 0.6328 0.02409 0.0
H1648 H 0.13289 0.60113 0.0179 0.0
H1649 H 0.06759 0.61703 0.07122 0.0
H1650 H 0.03786 0.6078 0.06015 0.0
H1651 H 0.06704 0.63797 0.05635 0.0
C1652 C 0.3344 0.45976 0.06292 0.0
C1653 C 0.31194 0.45208 0.05345 0.0
C1654 C 0.35805 0.46479 0.05592 0.0
C1655 C 0.35935 0.46195 0.03903 0.0
C1656 C 0.33695 0.45494 0.02937 0.0
C1657 C 0.31361 0.45019 0.03667 0.0
C1658 C 0.38149 0.47241 0.06668 0.0
C1659 C 0.33747 0.45197 0.01135 0.0
C1660 C 0.42761 0.49083 0.02146 0.0
C1661 C 0.43125 0.46952 0.02114 0.0
C1662 C 0.40389 0.48851 0.02654 0.0
C1663 C 0.38354 0.4644 0.03175 0.0
C1664 C 0.38692 0.4427 0.03095 0.0
C1665 C 0.41074 0.44556 0.02573 0.0
C1666 C 0.40108 0.51208 0.02693 0.0
C1667 C 0.36565 0.41656 0.03613 0.0
H1668 H 0.33342 0.46161 0.07586 0.0
H1669 H 0.29635 0.44406 0.02924 0.0
H1670 H 0.38693 0.45725 0.06618 0.0
H1671 H 0.39844 0.49042 0.06238 0.0
H1672 H 0.37778 0.47531 0.07943 0.0
H1673 H 0.31793 0.44444 0.00567 0.0
H1674 H 0.35094 0.47093 0.00611 0.0
H1675 H 0.34488 0.4388 0.00823 0.0
H1676 H 0.44355 0.50951 0.01823 0.0
H1677 H 0.41357 0.4291 0.02558 0.0
H1678 H 0.4007 0.51784 0.03963 0.0
H1679 H 0.38243 0.50791 0.02116 0.0
H1680 H 0.41736 0.52854 0.02072 0.0
H1681 H 0.36196 0.41712 0.04918 0.0
H1682 H 0.37076 0.40137 0.0339 0.0
H1683 H 0.34721 0.41119 0.02959 0.0
C1684 C 0.54412 0.8679 0.05826 0.0
C1685 C 0.56322 0.8664 0.04915 0.0
C1686 C 0.53265 0.88202 0.05285 0.0
C1687 C 0.5405 0.89495 0.03801 0.0
C1688 C 0.55908 0.89274 0.0285 0.0
C1689 C 0.57019 0.87849 0.03419 0.0
C1690 C 0.51287 0.88392 0.0633 0.0
C1691 C 0.56788 0.90617 0.01258 0.0
C1692 C 0.50059 0.92063 0.01793 0.0
C1693 C 0.51481 0.94675 0.02235 0.0
C1694 C 0.50846 0.90338 0.02309 0.0
C1695 C 0.53097 0.91247 0.03299 0.0
C1696 C 0.54503 0.93867 0.0378 0.0
C1697 C 0.53676 0.95545 0.03244 0.0
C1698 C 0.49291 0.87555 0.01776 0.0
C1699 C 0.56914 0.94912 0.04836 0.0
H1700 H 0.53877 0.85874 0.06988 0.0
H1701 H 0.58456 0.87698 0.02695 0.0
H1702 H 0.52109 0.90396 0.06785 0.0
H1703 H 0.4951 0.87911 0.05616 0.0
H1704 H 0.50718 0.87096 0.07378 0.0
H1705 H 0.58115 0.90111 0.00615 0.0
H1706 H 0.55079 0.90114 0.00468 0.0
H1707 H 0.57825 0.92729 0.01462 0.0
H1708 H 0.48327 0.9136 0.01043 0.0
H1709 H 0.54781 0.97552 0.03604 0.0
H1710 H 0.48665 0.86295 0.02841 0.0
H1711 H 0.50529 0.87046 0.01039 0.0
H1712 H 0.47536 0.87139 0.01054 0.0
H1713 H 0.56449 0.93829 0.05975 0.0
H1714 H 0.57744 0.96985 0.05137 0.0
H1715 H 0.58428 0.94659 0.04218 0.0
C1716 C 0.99255 0.19177 0.3786 0.0
C1717 C 0.99544 0.1917 0.3954 0.0
C1718 C 0.0116 0.21164 0.36924 0.0
C1719 C 0.03418 0.23176 0.37684 0.0
C1720 C 0.037 0.23199 0.3938 0.0
C1721 C 0.01755 0.21215 0.40284 0.0
C1722 C 0.00779 0.2109 0.35122 0.0
C1723 C 0.06081 0.25304 0.40241 0.0
C1724 C 0.09879 0.27153 0.35594 0.0
C1725 C 0.09995 0.29529 0.3547 0.0
C1726 C 0.07663 0.25006 0.36203 0.0
C1727 C 0.05527 0.25255 0.36727 0.0
C1728 C 0.0558 0.27615 0.36521 0.0
C1729 C 0.07827 0.29733 0.3591 0.0
C1730 C 0.07694 0.22528 0.36388 0.0
C1731 C 0.03328 0.2795 0.37034 0.0
H1732 H 0.97569 0.17598 0.37269 0.0
H1733 H 0.01974 0.21265 0.41583 0.0
H1734 H 0.00969 0.22927 0.34718 0.0
H1735 H 0.02319 0.20869 0.34513 0.0
H1736 H 0.98846 0.19484 0.34725 0.0
H1737 H 0.06008 0.25034 0.41565 0.0
H1738 H 0.07863 0.2536 0.39779 0.0
H1739 H 0.06267 0.27199 0.40001 0.0
H1740 H 0.11563 0.26993 0.35287 0.0
H1741 H 0.07924 0.31576 0.35823 0.0
H1742 H 0.05833 0.2087 0.35948 0.0
H1743 H 0.07905 0.22225 0.37683 0.0
H1744 H 0.09326 0.22544 0.35723 0.0
H1745 H 0.01453 0.26313 0.36591 0.0
H1746 H 0.03511 0.29765 0.36585 0.0
H1747 H 0.03249 0.2798 0.38369 0.0
C1748 C 0.78892 0.79189 0.39268 0.0
C1749 C 0.80416 0.78567 0.38277 0.0
C1750 C 0.77074 0.79785 0.38604 0.0
C1751 C 0.76772 0.79766 0.36908 0.0
C1752 C 0.78382 0.79241 0.35905 0.0
C1753 C 0.80185 0.78658 0.366 0.0
C1754 C 0.75398 0.8033 0.3972 0.0
C1755 C 0.78185 0.79264 0.34097 0.0
C1756 C 0.70049 0.78239 0.35432 0.0
C1757 C 0.70423 0.80686 0.3513 0.0
C1758 C 0.72119 0.77913 0.35956 0.0
C1759 C 0.74633 0.80091 0.36197 0.0
C1760 C 0.75041 0.82564 0.35839 0.0
C1761 C 0.72924 0.82834 0.35332 0.0
C1762 C 0.71596 0.75238 0.36302 0.0
C1763 C 0.7769 0.84936 0.36047 0.0
H1764 H 0.79043 0.79107 0.40565 0.0
H1765 H 0.81396 0.78235 0.35826 0.0
H1766 H 0.75513 0.8217 0.39404 0.0
H1767 H 0.73329 0.78792 0.39579 0.0
H1768 H 0.75984 0.80436 0.41004 0.0
H1769 H 0.79383 0.78566 0.33487 0.0
H1770 H 0.76128 0.78053 0.33691 0.0
H1771 H 0.78869 0.81259 0.33711 0.0
H1772 H 0.68111 0.76578 0.35292 0.0
H1773 H 0.73217 0.84736 0.35141 0.0
H1774 H 0.71952 0.7509 0.37599 0.0
H1775 H 0.72953 0.74835 0.35609 0.0
H1776 H 0.69563 0.73738 0.35992 0.0
H1777 H 0.78221 0.85275 0.37345 0.0
H1778 H 0.77741 0.86674 0.35559 0.0
H1779 H 0.79195 0.84665 0.35432 0.0
C1780 C 0.21199 0.01256 0.39961 0.0
C1781 C 0.22705 0.03365 0.38975 0.0
C1782 C 0.20124 0.98726 0.39367 0.0
C1783 C 0.20599 0.98292 0.37756 0.0
C1784 C 0.22046 0.00406 0.3674 0.0
C1785 C 0.2306 0.02913 0.37357 0.0
C1786 C 0.18557 0.96518 0.4048 0.0
C1787 C 0.22611 0.00022 0.35019 0.0
C1788 C 0.20674 0.92148 0.36808 0.0
C1789 C 0.18297 0.90677 0.35983 0.0
C1790 C 0.21436 0.94623 0.37393 0.0
C1791 C 0.19763 0.95642 0.37169 0.0
C1792 C 0.17338 0.94152 0.36362 0.0
C1793 C 0.16638 0.91688 0.35771 0.0
C1794 C 0.24056 0.96166 0.38226 0.0
C1795 C 0.15488 0.95159 0.36118 0.0
H1796 H 0.20928 0.01577 0.41214 0.0
H1797 H 0.24164 0.04524 0.36573 0.0
H1798 H 0.16681 0.95106 0.39897 0.0
H1799 H 0.19645 0.95503 0.40736 0.0
H1800 H 0.18142 0.97169 0.41642 0.0
H1801 H 0.23643 0.01861 0.34361 0.0
H1802 H 0.23837 0.99108 0.35001 0.0
H1803 H 0.20773 0.9871 0.34362 0.0
H1804 H 0.21971 0.91388 0.36972 0.0
H1805 H 0.14783 0.90549 0.35151 0.0
H1806 H 0.23799 0.96709 0.39465 0.0
H1807 H 0.25275 0.97973 0.37569 0.0
H1808 H 0.25127 0.95093 0.38301 0.0
H1809 H 0.14992 0.95675 0.37299 0.0
H1810 H 0.13655 0.93737 0.35493 0.0
H1811 H 0.16438 0.96934 0.35397 0.0
C1812 C 0.5275 0.65859 0.2785 0.0
C1813 C 0.5225 0.63803 0.28851 0.0
C1814 C 0.54439 0.68414 0.28352 0.0
C1815 C 0.5567 0.68918 0.29885 0.0
C1816 C 0.55148 0.66851 0.30907 0.0
C1817 C 0.53442 0.64321 0.30379 0.0
C1818 C 0.54928 0.7057 0.27237 0.0
C1819 C 0.56434 0.67309 0.32546 0.0
C1820 C 0.62027 0.75149 0.3068 0.0
C1821 C 0.61188 0.76552 0.31611 0.0
C1822 C 0.60242 0.72684 0.30079 0.0
C1823 C 0.57554 0.71601 0.30413 0.0
C1824 C 0.56687 0.73041 0.3131 0.0
C1825 C 0.58512 0.75501 0.31892 0.0
C1826 C 0.61243 0.71209 0.29126 0.0
C1827 C 0.53839 0.7196 0.31692 0.0
H1828 H 0.51817 0.65469 0.26674 0.0
H1829 H 0.53097 0.6274 0.31148 0.0
H1830 H 0.54451 0.71931 0.27849 0.0
H1831 H 0.57024 0.71666 0.26924 0.0
H1832 H 0.53758 0.6986 0.26105 0.0
H1833 H 0.55767 0.65496 0.33211 0.0
H1834 H 0.58581 0.68272 0.32413 0.0
H1835 H 0.56013 0.68608 0.33282 0.0
H1836 H 0.64087 0.75947 0.30451 0.0
H1837 H 0.57838 0.76593 0.32582 0.0
H1838 H 0.60214 0.70578 0.27946 0.0
H1839 H 0.60839 0.69453 0.29782 0.0
H1840 H 0.63374 0.72365 0.2891 0.0
H1841 H 0.52646 0.71299 0.30569 0.0
H1842 H 0.53468 0.73387 0.32318 0.0
H1843 H 0.53165 0.70264 0.32473 0.0
C1844 C 0.33095 0.877 0.28587 0.0
C1845 C 0.35226 0.88178 0.29574 0.0
C1846 C 0.30688 0.87135 0.29252 0.0
C1847 C 0.30402 0.87073 0.30948 0.0
C1848 C 0.32515 0.87465 0.31946 0.0
C1849 C 0.34886 0.87989 0.3125 0.0
C1850 C 0.28478 0.86701 0.28139 0.0
C1851 C 0.32296 0.87393 0.33754 0.0
C1852 C 0.25328 0.88714 0.32414 0.0
C1853 C 0.23179 0.86282 0.32695 0.0
C1854 C 0.27722 0.89 0.31918 0.0
C1855 C 0.27963 0.86793 0.31666 0.0
C1856 C 0.25818 0.84332 0.32001 0.0
C1857 C 0.23447 0.84106 0.32501 0.0
C1858 C 0.29967 0.91663 0.31607 0.0
C1859 C 0.25977 0.81925 0.31757 0.0
H1860 H 0.33331 0.8786 0.27292 0.0
H1861 H 0.36494 0.88289 0.32025 0.0
H1862 H 0.26682 0.84884 0.28438 0.0
H1863 H 0.28048 0.88285 0.28302 0.0
H1864 H 0.28939 0.86611 0.26852 0.0
H1865 H 0.34144 0.87822 0.34367 0.0
H1866 H 0.31742 0.88809 0.34177 0.0
H1867 H 0.30741 0.8546 0.34119 0.0
H1868 H 0.25116 0.90395 0.32552 0.0
H1869 H 0.21779 0.82217 0.32678 0.0
H1870 H 0.30437 0.91861 0.30306 0.0
H1871 H 0.31733 0.91983 0.32275 0.0
H1872 H 0.29525 0.93186 0.3197 0.0
H1873 H 0.26047 0.8157 0.30449 0.0
H1874 H 0.24274 0.80212 0.32275 0.0
H1875 H 0.27784 0.82151 0.32315 0.0
C1876 C 0.1316 0.47887 0.28909 0.0
C1877 C 0.1494 0.49084 0.27659 0.0
C1878 C 0.13183 0.45941 0.29814 0.0
C1879 C 0.15 0.45142 0.29444 0.0
C1880 C 0.16793 0.46331 0.28183 0.0
C1881 C 0.16758 0.483 0.27317 0.0
C1882 C 0.11262 0.44736 0.31164 0.0
C1883 C 0.18747 0.45516 0.27743 0.0
C1884 C 0.16879 0.41703 0.32504 0.0
C1885 C 0.15359 0.39129 0.31994 0.0
C1886 C 0.16709 0.43668 0.31723 0.0
C1887 C 0.15031 0.43057 0.30369 0.0
C1888 C 0.13475 0.40464 0.29854 0.0
C1889 C 0.1364 0.3853 0.30682 0.0
C1890 C 0.18374 0.46405 0.32324 0.0
C1891 C 0.11695 0.39741 0.28398 0.0
H1892 H 0.11724 0.48448 0.2917 0.0
H1893 H 0.18176 0.49243 0.26378 0.0
H1894 H 0.09974 0.42652 0.30914 0.0
H1895 H 0.12319 0.44929 0.3231 0.0
H1896 H 0.10028 0.45627 0.3133 0.0
H1897 H 0.19971 0.46596 0.26707 0.0
H1898 H 0.20047 0.4582 0.28789 0.0
H1899 H 0.17719 0.43434 0.27433 0.0
H1900 H 0.18243 0.42201 0.33498 0.0
H1901 H 0.12461 0.36552 0.30272 0.0
H1902 H 0.17151 0.473 0.32521 0.0
H1903 H 0.19841 0.47552 0.31405 0.0
H1904 H 0.19415 0.46531 0.33468 0.0
H1905 H 0.10319 0.4047 0.28547 0.0
H1906 H 0.10553 0.3763 0.28184 0.0
H1907 H 0.12867 0.40652 0.27311 0.0
C1908 C 0.33294 0.4518 0.28667 0.0
C1909 C 0.35523 0.46299 0.29656 0.0
C1910 C 0.30827 0.43501 0.29304 0.0
C1911 C 0.30584 0.42963 0.30973 0.0
C1912 C 0.32821 0.44195 0.31986 0.0
C1913 C 0.35264 0.4584 0.31314 0.0
C1914 C 0.28503 0.42197 0.28175 0.0
C1915 C 0.32649 0.43783 0.33778 0.0
C1916 C 0.23606 0.39422 0.32499 0.0
C1917 C 0.23073 0.36872 0.32467 0.0
C1918 C 0.26094 0.41455 0.3211 0.0
C1919 C 0.28051 0.40907 0.31612 0.0
C1920 C 0.27529 0.38337 0.31618 0.0
C1921 C 0.25051 0.36356 0.32049 0.0
C1922 C 0.26603 0.44175 0.32187 0.0
C1923 C 0.29562 0.37665 0.31109 0.0
H1924 H 0.33498 0.45528 0.27383 0.0
H1925 H 0.36986 0.46747 0.32083 0.0
H1926 H 0.27764 0.40097 0.2814 0.0
H1927 H 0.26898 0.42479 0.28616 0.0
H1928 H 0.28987 0.42932 0.26929 0.0
H1929 H 0.34598 0.445 0.34347 0.0
H1930 H 0.31758 0.44848 0.34324 0.0
H1931 H 0.31401 0.41721 0.34063 0.0
H1932 H 0.22065 0.39825 0.32783 0.0
H1933 H 0.24629 0.34381 0.3201 0.0
H1934 H 0.26919 0.44966 0.30956 0.0
H1935 H 0.28402 0.45408 0.32902 0.0
H1936 H 0.24959 0.44294 0.32736 0.0
H1937 H 0.30114 0.38228 0.2984 0.0
H1938 H 0.28863 0.35579 0.31213 0.0
H1939 H 0.31348 0.38751 0.31863 0.0
C1940 C 0.52946 0.88084 0.30801 0.0
C1941 C 0.5284 0.88297 0.29127 0.0
C1942 C 0.54799 0.8759 0.3152 0.0
C1943 C 0.56562 0.87255 0.3054 0.0
C1944 C 0.56387 0.87362 0.28843 0.0
C1945 C 0.54545 0.87901 0.28158 0.0
C1946 C 0.54914 0.87494 0.33329 0.0
C1947 C 0.58196 0.86977 0.27749 0.0
C1948 C 0.63297 0.88859 0.3203 0.0
C1949 C 0.62972 0.86417 0.32269 0.0
C1950 C 0.6119 0.89161 0.31552 0.0
C1951 C 0.58703 0.86962 0.31277 0.0
C1952 C 0.58345 0.84491 0.31575 0.0
C1953 C 0.60489 0.84248 0.32054 0.0
C1954 C 0.61654 0.91834 0.31279 0.0
C1955 C 0.55735 0.82091 0.31309 0.0
H1956 H 0.51645 0.88407 0.31556 0.0
H1957 H 0.54451 0.88037 0.26862 0.0
H1958 H 0.54521 0.85565 0.3369 0.0
H1959 H 0.56896 0.88922 0.33774 0.0
H1960 H 0.53475 0.87891 0.33925 0.0
H1961 H 0.57698 0.86952 0.26455 0.0
H1962 H 0.60234 0.88547 0.27958 0.0
H1963 H 0.58123 0.85142 0.28025 0.0
H1964 H 0.6522 0.90536 0.32185 0.0
H1965 H 0.60234 0.82352 0.32201 0.0
H1966 H 0.60185 0.92118 0.31932 0.0
H1967 H 0.6143 0.92088 0.29978 0.0
H1968 H 0.63632 0.93346 0.31683 0.0
H1969 H 0.54158 0.82304 0.3187 0.0
H1970 H 0.55692 0.80365 0.31808 0.0
H1971 H 0.55304 0.81769 0.29997 0.0
C1972 C 0.16311 0.6865 0.27182 0.0
C1973 C 0.148 0.66108 0.27695 0.0
C1974 C 0.16324 0.70686 0.2803 0.0
C1975 C 0.14792 0.70168 0.29429 0.0
C1976 C 0.13237 0.67604 0.29944 0.0
C1977 C 0.13255 0.65601 0.29068 0.0
C1978 C 0.17997 0.73394 0.27438 0.0
C1979 C 0.11591 0.66983 0.31435 0.0
C1980 C 0.17017 0.75702 0.3242 0.0
C1981 C 0.15325 0.76631 0.32063 0.0
C1982 C 0.16818 0.73561 0.31602 0.0
C1983 C 0.14897 0.72328 0.30381 0.0
C1984 C 0.13159 0.7323 0.30025 0.0
C1985 C 0.13392 0.75372 0.30872 0.0
C1986 C 0.18711 0.7266 0.32019 0.0
C1987 C 0.11091 0.71968 0.28725 0.0
H1988 H 0.17475 0.69046 0.26107 0.0
H1989 H 0.121 0.63642 0.29476 0.0
H1990 H 0.16779 0.74287 0.27226 0.0
H1991 H 0.19478 0.74581 0.2837 0.0
H1992 H 0.19019 0.73462 0.26305 0.0
H1993 H 0.10426 0.64883 0.31644 0.0
H1994 H 0.12862 0.67924 0.32505 0.0
H1995 H 0.10243 0.67753 0.31334 0.0
H1996 H 0.18547 0.76682 0.33318 0.0
H1997 H 0.12078 0.76076 0.30585 0.0
H1998 H 0.19955 0.72897 0.30966 0.0
H1999 H 0.17634 0.70587 0.32307 0.0
H2000 H 0.19994 0.73743 0.3306 0.0
H2001 H 0.12028 0.72156 0.27542 0.0
H2002 H 0.09819 0.7283 0.28645 0.0
H2003 H 0.09855 0.69884 0.28956 0.0
C2004 C 0.81515 0.98942 0.4061 0.0
C2005 C 0.82476 0.0143 0.40024 0.0
C2006 C 0.79428 0.96808 0.3984 0.0
C2007 C 0.78288 0.97168 0.38438 0.0
C2008 C 0.79212 0.99682 0.3786 0.0
C2009 C 0.81287 0.01788 0.38666 0.0
C2010 C 0.78481 0.94163 0.40507 0.0
C2011 C 0.78063 0.00138 0.3636 0.0
C2012 C 0.75041 0.91447 0.35556 0.0
C2013 C 0.72387 0.90438 0.35891 0.0
C2014 C 0.76968 0.93668 0.36347 0.0
C2015 C 0.76236 0.94894 0.3753 0.0
C2016 C 0.73564 0.93886 0.37882 0.0
C2017 C 0.71668 0.91674 0.37054 0.0
C2018 C 0.79794 0.9468 0.3593 0.0
C2019 C 0.7271 0.95123 0.39149 0.0
H2020 H 0.82405 0.98663 0.41674 0.0
H2021 H 0.82035 0.03708 0.38206 0.0
H2022 H 0.76347 0.93179 0.40707 0.0
H2023 H 0.78841 0.92979 0.39624 0.0
H2024 H 0.79468 0.94228 0.41661 0.0
H2025 H 0.78909 0.02216 0.36113 0.0
H2026 H 0.7842 0.99207 0.35307 0.0
H2027 H 0.75919 0.99254 0.36476 0.0
H2028 H 0.7563 0.90483 0.34689 0.0
H2029 H 0.69626 0.90906 0.37328 0.0
H2030 H 0.80878 0.94617 0.37004 0.0
H2031 H 0.80708 0.96717 0.35566 0.0
H2032 H 0.80027 0.93558 0.34938 0.0
H2033 H 0.73548 0.95078 0.40337 0.0
H2034 H 0.70554 0.94144 0.39251 0.0
H2035 H 0.73456 0.97171 0.38863 0.0
C2036 C 0.98026 0.78607 0.368 0.0
C2037 C 0.97671 0.78514 0.38474 0.0
C2038 C 0.00436 0.79195 0.36133 0.0
C2039 C 0.02571 0.79743 0.37161 0.0
C2040 C 0.02262 0.79775 0.38852 0.0
C2041 C 0.9982 0.79155 0.39488 0.0
C2042 C 0.00678 0.79181 0.34328 0.0
C2043 C 0.04487 0.80363 0.39995 0.0
C2044 C 0.07802 0.78229 0.35839 0.0
C2045 C 0.0991 0.80673 0.35525 0.0
C2046 C 0.05377 0.77896 0.36305 0.0
C2047 C 0.05054 0.80067 0.36484 0.0
C2048 C 0.07154 0.82535 0.36109 0.0
C2049 C 0.09565 0.82811 0.35649 0.0
C2050 C 0.03183 0.75224 0.36659 0.0
C2051 C 0.06899 0.849 0.36262 0.0
H2052 H 0.964 0.7818 0.36004 0.0
H2053 H 0.9957 0.79074 0.40782 0.0
H2054 H 0.02082 0.81151 0.3393 0.0
H2055 H 0.01444 0.77908 0.33958 0.0
H2056 H 0.98788 0.78527 0.33696 0.0
H2057 H 0.03998 0.80506 0.41268 0.0
H2058 H 0.04999 0.78827 0.39895 0.0
H2059 H 0.06244 0.82197 0.3967 0.0
H2060 H 0.08072 0.76577 0.35755 0.0
H2061 H 0.11202 0.84711 0.35444 0.0
H2062 H 0.01414 0.74803 0.35955 0.0
H2063 H 0.0268 0.75097 0.37954 0.0
H2064 H 0.03698 0.73726 0.36371 0.0
H2065 H 0.05089 0.84584 0.35655 0.0
H2066 H 0.08588 0.86615 0.35737 0.0
H2067 H 0.06762 0.85309 0.37554 0.0
C2068 C 0.23079 0.2043 0.37007 0.0
C2069 C 0.22654 0.19699 0.38627 0.0
C2070 C 0.22078 0.21894 0.36339 0.0
C2071 C 0.2058 0.22614 0.37306 0.0
C2072 C 0.20033 0.21776 0.38916 0.0
C2073 C 0.21091 0.20345 0.39562 0.0
C2074 C 0.22718 0.22762 0.34618 0.0
C2075 C 0.18418 0.22482 0.3998 0.0
C2076 C 0.20721 0.28823 0.36334 0.0
C2077 C 0.18356 0.27936 0.35499 0.0
C2078 C 0.21467 0.27108 0.36918 0.0
C2079 C 0.19791 0.24432 0.36678 0.0
C2080 C 0.17391 0.23518 0.35842 0.0
C2081 C 0.16706 0.25284 0.35257 0.0
C2082 C 0.24058 0.28164 0.37785 0.0
C2083 C 0.1554 0.20679 0.35579 0.0
H2084 H 0.24231 0.1989 0.36263 0.0
H2085 H 0.20767 0.19814 0.40817 0.0
H2086 H 0.20911 0.22256 0.3393 0.0
H2087 H 0.23971 0.24885 0.34599 0.0
H2088 H 0.23753 0.21895 0.33995 0.0
H2089 H 0.17939 0.21458 0.41143 0.0
H2090 H 0.19503 0.2458 0.40237 0.0
H2091 H 0.16574 0.22029 0.39356 0.0
H2092 H 0.22014 0.30868 0.36522 0.0
H2093 H 0.14859 0.24583 0.34629 0.0
H2094 H 0.25281 0.2751 0.37162 0.0
H2095 H 0.23751 0.27424 0.39029 0.0
H2096 H 0.25151 0.30298 0.37848 0.0
H2097 H 0.16533 0.198 0.34923 0.0
H2098 H 0.13768 0.20286 0.34885 0.0
H2099 H 0.14934 0.19717 0.36759 0.0
C2100 C 0.68303 0.54201 0.73478 0.0
C2101 C 0.66062 0.52271 0.7269 0.0
C2102 C 0.70275 0.56245 0.72626 0.0
C2103 C 0.70002 0.56383 0.7094 0.0
C2104 C 0.67727 0.54469 0.70138 0.0
C2105 C 0.65784 0.52432 0.71022 0.0
C2106 C 0.72667 0.5825 0.7353 0.0
C2107 C 0.67371 0.54545 0.68343 0.0
C2108 C 0.74437 0.63059 0.6933 0.0
C2109 C 0.76602 0.62879 0.6885 0.0
C2110 C 0.72192 0.60908 0.69914 0.0
C2111 C 0.7213 0.5853 0.70036 0.0
C2112 C 0.74262 0.58311 0.69471 0.0
C2113 C 0.76485 0.60496 0.68906 0.0
C2114 C 0.69951 0.61218 0.70487 0.0
C2115 C 0.74271 0.5581 0.69555 0.0
H2116 H 0.68514 0.54117 0.7477 0.0
H2117 H 0.64072 0.50935 0.70402 0.0
H2118 H 0.74435 0.58302 0.73045 0.0
H2119 H 0.72901 0.60181 0.7336 0.0
H2120 H 0.72571 0.57873 0.74842 0.0
H2121 H 0.65398 0.53047 0.67923 0.0
H2122 H 0.67692 0.56457 0.67995 0.0
H2123 H 0.6884 0.54244 0.67706 0.0
H2124 H 0.74535 0.64907 0.69298 0.0
H2125 H 0.78167 0.60351 0.6857 0.0
H2126 H 0.69845 0.61098 0.7182 0.0
H2127 H 0.68076 0.59646 0.69993 0.0
H2128 H 0.70167 0.6309 0.70133 0.0
H2129 H 0.74461 0.55393 0.70831 0.0
H2130 H 0.75906 0.55871 0.68867 0.0
H2131 H 0.7241 0.54199 0.69076 0.0
C2132 C 0.47177 0.12679 0.6994 0.0
C2133 C 0.46838 0.1184 0.71536 0.0
C2134 C 0.45435 0.1331 0.69205 0.0
C2135 C 0.43285 0.13085 0.70079 0.0
C2136 C 0.42958 0.12278 0.71702 0.0
C2137 C 0.44742 0.11678 0.72411 0.0
C2138 C 0.45881 0.14186 0.67485 0.0
C2139 C 0.4068 0.11983 0.72677 0.0
C2140 C 0.39522 0.16432 0.68898 0.0
C2141 C 0.37301 0.14423 0.68146 0.0
C2142 C 0.41558 0.16067 0.6945 0.0
C2143 C 0.41324 0.1361 0.69296 0.0
C2144 C 0.39101 0.11593 0.68503 0.0
C2145 C 0.37112 0.12024 0.67944 0.0
C2146 C 0.43908 0.18285 0.70257 0.0
C2147 C 0.38755 0.08939 0.68321 0.0
H2148 H 0.4881 0.12838 0.69263 0.0
H2149 H 0.44447 0.11002 0.73639 0.0
H2150 H 0.44173 0.12851 0.66733 0.0
H2151 H 0.46091 0.16119 0.67417 0.0
H2152 H 0.47652 0.14274 0.66971 0.0
H2153 H 0.40722 0.11372 0.73929 0.0
H2154 H 0.40682 0.13827 0.72726 0.0
H2155 H 0.38824 0.10536 0.72089 0.0
H2156 H 0.39631 0.1827 0.69094 0.0
H2157 H 0.35361 0.10458 0.67397 0.0
H2158 H 0.45729 0.18493 0.69744 0.0
H2159 H 0.43916 0.17904 0.71561 0.0
H2160 H 0.43927 0.2013 0.70123 0.0
H2161 H 0.40501 0.09044 0.67762 0.0
H2162 H 0.37013 0.07637 0.67576 0.0
H2163 H 0.3854 0.08085 0.69528 0.0
C2164 C 0.89831 0.35991 0.70094 0.0
C2165 C 0.89575 0.36598 0.71696 0.0
C2166 C 0.88748 0.33429 0.69567 0.0
C2167 C 0.87339 0.31422 0.70662 0.0
C2168 C 0.86983 0.32014 0.72262 0.0
C2169 C 0.88121 0.34593 0.72763 0.0
C2170 C 0.89184 0.32873 0.67853 0.0
C2171 C 0.85466 0.29921 0.73457 0.0
C2172 C 0.83089 0.24696 0.68913 0.0
C2173 C 0.84704 0.23634 0.6912 0.0
C2174 C 0.839 0.27218 0.6943 0.0
C2175 C 0.8639 0.28713 0.70161 0.0
C2176 C 0.88013 0.27638 0.7039 0.0
C2177 C 0.87141 0.25105 0.69878 0.0
C2178 C 0.82104 0.28288 0.69183 0.0
C2179 C 0.90696 0.29183 0.71146 0.0
H2180 H 0.90902 0.37523 0.69251 0.0
H2181 H 0.87936 0.35035 0.74008 0.0
H2182 H 0.90352 0.31897 0.67852 0.0
H2183 H 0.87293 0.31551 0.67251 0.0
H2184 H 0.90221 0.34646 0.67133 0.0
H2185 H 0.85172 0.30694 0.7461 0.0
H2186 H 0.8353 0.28503 0.72944 0.0
H2187 H 0.86521 0.28876 0.73718 0.0
H2188 H 0.81189 0.23555 0.68344 0.0
H2189 H 0.88403 0.24303 0.70036 0.0
H2190 H 0.83031 0.29967 0.68379 0.0
H2191 H 0.81751 0.28972 0.7035 0.0
H2192 H 0.80196 0.26843 0.68643 0.0
H2193 H 0.91911 0.30909 0.70417 0.0
H2194 H 0.91709 0.28057 0.71244 0.0
H2195 H 0.90553 0.29865 0.72368 0.0
C2196 C 0.19961 0.97067 0.64298 0.0
C2197 C 0.19164 0.96391 0.62683 0.0
C2198 C 0.21575 0.9964 0.6478 0.0
C2199 C 0.22362 0.016 0.63629 0.0
C2200 C 0.21469 0.00952 0.62015 0.0
C2201 C 0.19904 0.98356 0.61557 0.0
C2202 C 0.22511 0.00251 0.6651 0.0
C2203 C 0.22228 0.02999 0.60761 0.0
C2204 C 0.25155 0.08433 0.65243 0.0
C2205 C 0.27841 0.09394 0.65086 0.0
C2206 C 0.23341 0.05914 0.64746 0.0
C2207 C 0.24241 0.04312 0.64098 0.0
C2208 C 0.26952 0.05278 0.63937 0.0
C2209 C 0.28718 0.07811 0.64426 0.0
C2210 C 0.20466 0.04969 0.64914 0.0
C2211 C 0.27996 0.03624 0.63274 0.0
H2212 H 0.1935 0.95578 0.65189 0.0
H2213 H 0.19329 0.97868 0.60305 0.0
H2214 H 0.24666 0.01154 0.66558 0.0
H2215 H 0.22017 0.01653 0.67039 0.0
H2216 H 0.21651 0.98512 0.67268 0.0
H2217 H 0.21195 0.02198 0.59594 0.0
H2218 H 0.21792 0.04494 0.61194 0.0
H2219 H 0.24359 0.03961 0.60552 0.0
H2220 H 0.24467 0.09655 0.65744 0.0
H2221 H 0.30793 0.08535 0.64318 0.0
H2222 H 0.19579 0.03322 0.65745 0.0
H2223 H 0.19467 0.04272 0.63729 0.0
H2224 H 0.2009 0.06489 0.65383 0.0
H2225 H 0.27362 0.01919 0.64043 0.0
H2226 H 0.3016 0.04679 0.63214 0.0
H2227 H 0.27195 0.02911 0.62047 0.0
C2228 C 0.01233 0.21177 0.64438 0.0
C2229 C 0.01549 0.21324 0.6276 0.0
C2230 C 0.98845 0.20589 0.65137 0.0
C2231 C 0.967 0.20108 0.64139 0.0
C2232 C 0.9697 0.20133 0.62442 0.0
C2233 C 0.99388 0.20744 0.61774 0.0
C2234 C 0.98637 0.20531 0.66946 0.0
C2235 C 0.94733 0.19622 0.6133 0.0
C2236 C 0.8974 0.17075 0.6569 0.0
C2237 C 0.89441 0.19233 0.65875 0.0
C2238 C 0.92127 0.17329 0.652 0.0
C2239 C 0.9425 0.19798 0.64856 0.0
C2240 C 0.93977 0.21988 0.65098 0.0
C2241 C 0.91574 0.21676 0.65594 0.0
C2242 C 0.92331 0.14943 0.64981 0.0
C2243 C 0.96196 0.2466 0.64773 0.0
H2244 H 0.02872 0.21561 0.65209 0.0
H2245 H 0.99612 0.20868 0.60478 0.0
H2246 H 0.97906 0.21811 0.67366 0.0
H2247 H 0.97218 0.1855 0.67319 0.0
H2248 H 0.00533 0.21133 0.67556 0.0
H2249 H 0.95192 0.19523 0.60045 0.0
H2250 H 0.92967 0.17787 0.61642 0.0
H2251 H 0.94252 0.21173 0.61482 0.0
H2252 H 0.88084 0.15177 0.65868 0.0
H2253 H 0.91338 0.23344 0.65725 0.0
H2254 H 0.94141 0.15205 0.65557 0.0
H2255 H 0.9243 0.14578 0.63677 0.0
H2256 H 0.90635 0.13222 0.65496 0.0
H2257 H 0.97966 0.25022 0.65455 0.0
H2258 H 0.95719 0.2617 0.65111 0.0
H2259 H 0.96679 0.24837 0.63474 0.0
C2260 C 0.80391 0.81685 0.62364 0.0
C2261 C 0.81797 0.82452 0.60925 0.0
C2262 C 0.80318 0.79706 0.63283 0.0
C2263 C 0.81687 0.78471 0.62752 0.0
C2264 C 0.83086 0.79218 0.61293 0.0
C2265 C 0.83119 0.81194 0.60397 0.0
C2266 C 0.78802 0.78956 0.64831 0.0
C2267 C 0.84566 0.77943 0.60685 0.0
C2268 C 0.83818 0.7512 0.65719 0.0
C2269 C 0.82004 0.72523 0.654 0.0
C2270 C 0.83691 0.77078 0.64899 0.0
C2271 C 0.81703 0.76426 0.63729 0.0
C2272 C 0.79822 0.73813 0.63434 0.0
C2273 C 0.79997 0.71891 0.64271 0.0
C2274 C 0.8574 0.7984 0.65247 0.0
C2275 C 0.77665 0.73045 0.62202 0.0
H2276 H 0.79387 0.82666 0.62787 0.0
H2277 H 0.84171 0.81745 0.59273 0.0
H2278 H 0.77337 0.76874 0.64799 0.0
H2279 H 0.80139 0.79295 0.65862 0.0
H2280 H 0.77781 0.80053 0.65053 0.0
H2281 H 0.85542 0.78737 0.59522 0.0
H2282 H 0.86069 0.78196 0.61585 0.0
H2283 H 0.83221 0.75847 0.60521 0.0
H2284 H 0.85391 0.75632 0.66578 0.0
H2285 H 0.7858 0.69892 0.64021 0.0
H2286 H 0.84805 0.80998 0.65528 0.0
H2287 H 0.86951 0.80674 0.64163 0.0
H2288 H 0.87042 0.80029 0.6627 0.0
H2289 H 0.76588 0.74077 0.62447 0.0
H2290 H 0.7626 0.70945 0.62191 0.0
H2291 H 0.78513 0.73598 0.60984 0.0
C2292 C 0.02002 0.79106 0.64932 0.0
C2293 C 0.02309 0.7951 0.6327 0.0
C2294 C 0.9953 0.77532 0.6559 0.0
C2295 C 0.97316 0.76311 0.64557 0.0
C2296 C 0.9761 0.76807 0.62883 0.0
C2297 C 1.00105 0.78421 0.62261 0.0
C2298 C 0.99303 0.77168 0.67386 0.0
C2299 C 0.95313 0.75511 0.61734 0.0
C2300 C 0.91711 0.69743 0.65616 0.0
C2301 C 0.89729 0.70282 0.65974 0.0
C2302 C 0.94216 0.71706 0.65217 0.0
C2303 C 0.94758 0.74282 0.65182 0.0
C2304 C 0.92796 0.74855 0.65624 0.0
C2305 C 0.90283 0.72838 0.65982 0.0
C2306 C 0.96252 0.71007 0.64766 0.0
C2307 C 0.93325 0.77582 0.65669 0.0
H2308 H 0.0371 0.79989 0.65713 0.0
H2309 H 0.00351 0.78729 0.60974 0.0
H2310 H 0.98402 0.78251 0.67889 0.0
H2311 H 0.98038 0.75114 0.67686 0.0
H2312 H 0.01233 0.77891 0.67983 0.0
H2313 H 0.95837 0.76226 0.60486 0.0
H2314 H 0.94551 0.73406 0.61715 0.0
H2315 H 0.93712 0.75822 0.62143 0.0
H2316 H 0.91272 0.67761 0.65593 0.0
H2317 H 0.88739 0.73257 0.66218 0.0
H2318 H 0.98014 0.72095 0.6554 0.0
H2319 H 0.96851 0.71546 0.635 0.0
H2320 H 0.95535 0.68921 0.64892 0.0
H2321 H 0.95102 0.78815 0.66403 0.0
H2322 H 0.91669 0.77722 0.66181 0.0
H2323 H 0.93691 0.78359 0.64433 0.0
C2324 C 0.20158 0.20457 0.61415 0.0
C2325 C 0.18612 0.20966 0.62461 0.0
C2326 C 0.21938 0.19759 0.62014 0.0
C2327 C 0.2217 0.1955 0.63698 0.0
C2328 C 0.20533 0.19959 0.6475 0.0
C2329 C 0.18785 0.20668 0.64121 0.0
C2330 C 0.23634 0.19333 0.60844 0.0
C2331 C 0.20676 0.19722 0.66543 0.0
C2332 C 0.25811 0.16078 0.64867 0.0
C2333 C 0.28347 0.18138 0.65108 0.0
C2334 C 0.23735 0.16503 0.64518 0.0
C2335 C 0.24232 0.19053 0.64349 0.0
C2336 C 0.26783 0.21139 0.64656 0.0
C2337 C 0.28814 0.20654 0.65019 0.0
C2338 C 0.21048 0.1422 0.64231 0.0
C2339 C 0.27404 0.23886 0.64504 0.0
H2340 H 0.20049 0.207 0.60131 0.0
H2341 H 0.17567 0.21019 0.64934 0.0
H2342 H 0.25711 0.20799 0.61064 0.0
H2343 H 0.23437 0.17421 0.61033 0.0
H2344 H 0.23132 0.1945 0.5957 0.0
H2345 H 0.19141 0.1991 0.67189 0.0
H2346 H 0.2047 0.17833 0.66829 0.0
H2347 H 0.22608 0.21247 0.66997 0.0
H2348 H 0.2547 0.14132 0.6489 0.0
H2349 H 0.30794 0.22243 0.65158 0.0
H2350 H 0.20583 0.1401 0.62923 0.0
H2351 H 0.19554 0.14502 0.64852 0.0
H2352 H 0.20903 0.12407 0.64655 0.0
H2353 H 0.27196 0.24278 0.63226 0.0
H2354 H 0.29418 0.25281 0.64922 0.0
H2355 H 0.26012 0.24213 0.65213 0.0
C2356 C 0.82382 0.01672 0.60142 0.0
C2357 C 0.81048 0.99144 0.60701 0.0
C2358 C 0.82365 0.03679 0.61009 0.0
C2359 C 0.80977 0.03144 0.6247 0.0
C2360 C 0.7959 0.0059 0.63028 0.0
C2361 C 0.79647 0.98619 0.62139 0.0
C2362 C 0.83887 0.06381 0.6038 0.0
C2363 C 0.78078 0.99949 0.64577 0.0
C2364 C 0.83313 0.08719 0.65435 0.0
C2365 C 0.81542 0.09578 0.6515 0.0
C2366 C 0.83109 0.06589 0.646 0.0
C2367 C 0.81088 0.05284 0.63445 0.0
C2368 C 0.79261 0.06106 0.6317 0.0
C2369 C 0.79514 0.08251 0.64024 0.0
C2370 C 0.85106 0.05785 0.64924 0.0
C2371 C 0.77074 0.04752 0.61952 0.0
H2372 H 0.83497 0.02096 0.59044 0.0
H2373 H 0.78591 0.96663 0.62566 0.0
H2374 H 0.82595 0.07211 0.60256 0.0
H2375 H 0.85459 0.07618 0.61251 0.0
H2376 H 0.84782 0.06458 0.59194 0.0
H2377 H 0.77012 0.97853 0.6481 0.0
H2378 H 0.79428 0.00955 0.65605 0.0
H2379 H 0.76654 0.00633 0.64538 0.0
H2380 H 0.84908 0.09748 0.66286 0.0
H2381 H 0.78136 0.089 0.63798 0.0
H2382 H 0.86252 0.06025 0.6382 0.0
H2383 H 0.8412 0.03722 0.65238 0.0
H2384 H 0.86476 0.06926 0.65919 0.0
H2385 H 0.77895 0.04952 0.60728 0.0
H2386 H 0.75729 0.05536 0.61948 0.0
H2387 H 0.75936 0.02668 0.62206 0.0
C2388 C 0.48263 0.32263 0.72939 0.0
C2389 C 0.49079 0.34813 0.72537 0.0
C2390 C 0.46194 0.30197 0.72109 0.0
C2391 C 0.44909 0.30689 0.70841 0.0
C2392 C 0.45704 0.33258 0.70437 0.0
C2393 C 0.47777 0.35291 0.71294 0.0
C2394 C 0.45392 0.27485 0.72586 0.0
C2395 C 0.44388 0.33855 0.69087 0.0
C2396 C 0.41367 0.25218 0.67807 0.0
C2397 C 0.38789 0.24058 0.68349 0.0
C2398 C 0.43363 0.27427 0.68575 0.0
C2399 C 0.4277 0.28501 0.69922 0.0
C2400 C 0.40159 0.27387 0.70445 0.0
C2401 C 0.38198 0.25183 0.6965 0.0
C2402 C 0.4612 0.28563 0.67975 0.0
C2403 C 0.39451 0.2847 0.71881 0.0
H2404 H 0.49232 0.31881 0.73917 0.0
H2405 H 0.48411 0.37258 0.70971 0.0
H2406 H 0.43303 0.26438 0.72917 0.0
H2407 H 0.45622 0.26434 0.7155 0.0
H2408 H 0.46562 0.27432 0.73617 0.0
H2409 H 0.45197 0.35954 0.68947 0.0
H2410 H 0.44624 0.33043 0.67935 0.0
H2411 H 0.42265 0.32941 0.6931 0.0
H2412 H 0.41845 0.24372 0.66799 0.0
H2413 H 0.36212 0.24304 0.70078 0.0
H2414 H 0.47352 0.28368 0.68908 0.0
H2415 H 0.46966 0.30646 0.67753 0.0
H2416 H 0.46228 0.27609 0.66847 0.0
H2417 H 0.4039 0.28264 0.72983 0.0
H2418 H 0.37312 0.27485 0.72069 0.0
H2419 H 0.40191 0.30552 0.71727 0.0
C2420 C 0.66357 0.12098 0.72864 0.0
C2421 C 0.64236 0.11769 0.71926 0.0
C2422 C 0.68733 0.12675 0.72151 0.0
C2423 C 0.68981 0.12872 0.70453 0.0
C2424 C 0.66864 0.12605 0.69506 0.0
C2425 C 0.64526 0.12083 0.70255 0.0
C2426 C 0.70955 0.12998 0.73213 0.0
C2427 C 0.67033 0.1278 0.67697 0.0
C2428 C 0.75928 0.15854 0.68892 0.0
C2429 C 0.76173 0.13672 0.68658 0.0
C2430 C 0.73558 0.15628 0.69394 0.0
C2431 C 0.71387 0.1316 0.69679 0.0
C2432 C 0.71598 0.1095 0.69365 0.0
C2433 C 0.73996 0.11235 0.6888 0.0
C2434 C 0.73437 0.1804 0.69713 0.0
C2435 C 0.69322 0.08279 0.69611 0.0
H2436 H 0.66146 0.11878 0.74158 0.0
H2437 H 0.62883 0.11813 0.69526 0.0
H2438 H 0.71355 0.11412 0.72967 0.0
H2439 H 0.72758 0.14826 0.7294 0.0
H2440 H 0.70526 0.12998 0.74514 0.0
H2441 H 0.65218 0.1253 0.67131 0.0
H2442 H 0.68681 0.14674 0.67352 0.0
H2443 H 0.67419 0.11281 0.67203 0.0
H2444 H 0.77618 0.17744 0.68755 0.0
H2445 H 0.74189 0.09549 0.68706 0.0
H2446 H 0.73448 0.1836 0.71033 0.0
H2447 H 0.71609 0.17851 0.69216 0.0
H2448 H 0.7512 0.19758 0.69185 0.0
H2449 H 0.68885 0.0797 0.70914 0.0
H2450 H 0.69717 0.06767 0.69151 0.0
H2451 H 0.67553 0.08052 0.68993 0.0
C2452 C 0.88252 0.53874 0.72621 0.0
C2453 C 0.89755 0.53257 0.71605 0.0
C2454 C 0.8713 0.55297 0.72061 0.0
C2455 C 0.87562 0.5617 0.70456 0.0
C2456 C 0.89015 0.555 0.69411 0.0
C2457 C 0.9007 0.54032 0.69993 0.0
C2458 C 0.8556 0.55944 0.73205 0.0
C2459 C 0.89539 0.56417 0.67695 0.0
C2460 C 0.83459 0.58746 0.68614 0.0
C2461 C 0.85077 0.61401 0.68867 0.0
C2462 C 0.84227 0.5701 0.69134 0.0
C2463 C 0.8668 0.57957 0.69909 0.0
C2464 C 0.8832 0.60635 0.70162 0.0
C2465 C 0.8749 0.62321 0.69649 0.0
C2466 C 0.82411 0.54165 0.68863 0.0
C2467 C 0.90968 0.61726 0.70961 0.0
H2468 H 0.88015 0.53315 0.73872 0.0
H2469 H 0.91172 0.53516 0.69186 0.0
H2470 H 0.86626 0.58039 0.73476 0.0
H2471 H 0.83666 0.55466 0.72641 0.0
H2472 H 0.85178 0.54903 0.74357 0.0
H2473 H 0.90582 0.55612 0.67011 0.0
H2474 H 0.87683 0.55878 0.67056 0.0
H2475 H 0.9074 0.58545 0.67691 0.0
H2476 H 0.81578 0.58022 0.68025 0.0
H2477 H 0.88758 0.64367 0.69839 0.0
H2478 H 0.81917 0.53173 0.70036 0.0
H2479 H 0.83387 0.53342 0.68133 0.0
H2480 H 0.80574 0.53745 0.68238 0.0
H2481 H 0.90755 0.60961 0.72195 0.0
H2482 H 0.92022 0.63859 0.71044 0.0
H2483 H 0.92182 0.61125 0.70276 0.0
C2484 C 0.4706 0.96997 0.18977 0.0
C2485 C 0.4655 0.9451 0.19333 0.0
C2486 C 0.4771 0.9797 0.17414 0.0
C2487 C 0.47889 0.96438 0.16169 0.0
C2488 C 0.47327 0.93909 0.16507 0.0
C2489 C 0.46658 0.92973 0.18082 0.0
C2490 C 0.48285 0.00674 0.17107 0.0
C2491 C 0.47499 0.92216 0.15214 0.0
C2492 C 0.47927 0.98633 0.11877 0.0
C2493 C 0.5061 0.00103 0.11581 0.0
C2494 C 0.47004 0.97363 0.13347 0.0
C2495 C 0.48806 0.97551 0.14543 0.0
C2496 C 0.51512 0.98953 0.14224 0.0
C2497 C 0.52379 0.00216 0.12752 0.0
C2498 C 0.44105 0.959 0.13641 0.0
C2499 C 0.53499 0.9918 0.15457 0.0
H2500 H 0.47036 0.98226 0.19933 0.0
H2501 H 0.46236 0.91039 0.18335 0.0
H2502 H 0.50361 0.01896 0.16776 0.0
H2503 H 0.47086 0.00682 0.16081 0.0
H2504 H 0.47896 0.01555 0.18176 0.0
H2505 H 0.46872 0.90252 0.15648 0.0
H2506 H 0.46271 0.92061 0.1416 0.0
H2507 H 0.49538 0.9309 0.1479 0.0
H2508 H 0.46551 0.98551 0.10981 0.0
H2509 H 0.54453 0.01313 0.12519 0.0
H2510 H 0.43629 0.96874 0.14614 0.0
H2511 H 0.43488 0.9393 0.14051 0.0
H2512 H 0.42956 0.95765 0.12547 0.0
H2513 H 0.53424 0.00243 0.16538 0.0
H2514 H 0.55517 0.00198 0.14984 0.0
H2515 H 0.53043 0.97244 0.15852 0.0
C2516 C 0.06434 0.51992 0.17409 0.0
C2517 C 0.0659 0.53858 0.18502 0.0
C2518 C 0.04799 0.51279 0.16045 0.0
C2519 C 0.03266 0.52443 0.15781 0.0
C2520 C 0.03347 0.54262 0.16912 0.0
C2521 C 0.05024 0.54962 0.18255 0.0
C2522 C 0.04788 0.49352 0.14857 0.0
C2523 C 0.01711 0.55515 0.16683 0.0
C2524 C 0.0137 0.52768 0.1146 0.0
C2525 C 0.98816 0.50673 0.11362 0.0
C2526 C 0.02829 0.53371 0.12894 0.0
C2527 C 0.01697 0.51865 0.14273 0.0
C2528 C 0.99102 0.49785 0.14197 0.0
C2529 C 0.97695 0.49206 0.12739 0.0
C2530 C 0.05595 0.55602 0.12927 0.0
C2531 C 0.97826 0.48149 0.15647 0.0
H2532 H 0.07664 0.51156 0.17589 0.0
H2533 H 0.05125 0.56388 0.1911 0.0
H2534 H 0.02766 0.47757 0.1464 0.0
H2535 H 0.05552 0.5029 0.13685 0.0
H2536 H 0.05995 0.48532 0.15279 0.0
H2537 H 0.0186 0.56753 0.1773 0.0
H2538 H 0.02346 0.56712 0.1559 0.0
H2539 H 0.99633 0.54028 0.16496 0.0
H2540 H 0.02234 0.53944 0.10413 0.0
H2541 H 0.95734 0.47569 0.1267 0.0
H2542 H 0.06961 0.54915 0.13244 0.0
H2543 H 0.05814 0.57027 0.13866 0.0
H2544 H 0.06182 0.56586 0.11751 0.0
H2545 H 0.98894 0.47155 0.16008 0.0
H2546 H 0.95753 0.4668 0.1541 0.0
H2547 H 0.97921 0.49378 0.16682 0.0
C2548 C 0.47391 0.52742 0.18556 0.0
C2549 C 0.47341 0.50966 0.19659 0.0
C2550 C 0.47931 0.52613 0.16921 0.0
C2551 C 0.48448 0.50672 0.16378 0.0
C2552 C 0.48301 0.48819 0.17472 0.0
C2553 C 0.4774 0.48982 0.19094 0.0
C2554 C 0.4805 0.54612 0.15789 0.0
C2555 C 0.48834 0.46716 0.16942 0.0
C2556 C 0.48413 0.49048 0.11928 0.0
C2557 C 0.51091 0.50305 0.11601 0.0
C2558 C 0.47511 0.49217 0.13463 0.0
C2559 C 0.4933 0.50677 0.14699 0.0
C2560 C 0.52029 0.52024 0.14357 0.0
C2561 C 0.52874 0.51824 0.12815 0.0
C2562 C 0.44618 0.47761 0.13778 0.0
C2563 C 0.54034 0.53615 0.15637 0.0
H2564 H 0.47105 0.54292 0.18981 0.0
H2565 H 0.47651 0.47571 0.1993 0.0
H2566 H 0.50091 0.55873 0.15402 0.0
H2567 H 0.46863 0.53679 0.14688 0.0
H2568 H 0.47344 0.55829 0.16358 0.0
H2569 H 0.48497 0.45341 0.17919 0.0
H2570 H 0.47574 0.45636 0.15895 0.0
H2571 H 0.50888 0.47576 0.16551 0.0
H2572 H 0.47025 0.47859 0.10999 0.0
H2573 H 0.54943 0.52839 0.12562 0.0
H2574 H 0.44003 0.4905 0.14344 0.0
H2575 H 0.44163 0.46194 0.14636 0.0
H2576 H 0.43451 0.46905 0.12659 0.0
H2577 H 0.53583 0.55043 0.16176 0.0
H2578 H 0.56045 0.54652 0.15154 0.0
H2579 H 0.53974 0.52353 0.16619 0.0
C2580 C 0.96147 0.49685 0.82535 0.0
C2581 C 0.97066 0.48512 0.81457 0.0
C2582 C 0.96953 0.50112 0.84158 0.0
C2583 C 0.98716 0.49345 0.84715 0.0
C2584 C 0.99611 0.48117 0.8364 0.0
C2585 C 0.98782 0.47723 0.82026 0.0
C2586 C 0.95956 0.51425 0.85271 0.0
C2587 C 0.01496 0.47272 0.84187 0.0
C2588 C 0.03121 0.52649 0.88334 0.0
C2589 C 0.01898 0.50818 0.89536 0.0
C2590 C 0.02059 0.52228 0.86772 0.0
C2591 C 0.99721 0.49914 0.86402 0.0
C2592 C 0.98437 0.48088 0.87622 0.0
C2593 C 0.99539 0.48566 0.89177 0.0
C2594 C 0.03476 0.54231 0.85509 0.0
C2595 C 0.95948 0.45594 0.8727 0.0
H2596 H 0.94799 0.50274 0.82109 0.0
H2597 H 0.9954 0.46857 0.81197 0.0
H2598 H 0.95028 0.50219 0.86336 0.0
H2599 H 0.97611 0.53274 0.8572 0.0
H2600 H 0.94518 0.51815 0.84666 0.0
H2601 H 0.01909 0.46237 0.8322 0.0
H2602 H 0.03363 0.48973 0.84579 0.0
H2603 H 0.00701 0.45995 0.85238 0.0
H2604 H 0.04923 0.54411 0.88614 0.0
H2605 H 0.98597 0.47137 0.90099 0.0
H2606 H 0.02136 0.54785 0.84941 0.0
H2607 H 0.04156 0.53423 0.84543 0.0
H2608 H 0.0519 0.55987 0.86014 0.0
H2609 H 0.94481 0.45976 0.86703 0.0
H2610 H 0.95098 0.44458 0.88374 0.0
H2611 H 0.9634 0.44414 0.86402 0.0
C2612 C 0.51028 0.45315 0.82592 0.0
C2613 C 0.5371 0.46387 0.82325 0.0
C2614 C 0.50107 0.45861 0.84012 0.0
C2615 C 0.51909 0.47524 0.85196 0.0
C2616 C 0.54618 0.48646 0.84924 0.0
C2617 C 0.55486 0.48063 0.83493 0.0
C2618 C 0.47202 0.44636 0.84252 0.0
C2619 C 0.56601 0.50427 0.86158 0.0
C2620 C 0.49505 0.50565 0.88282 0.0
C2621 C 0.48997 0.48969 0.89612 0.0
C2622 C 0.50477 0.50134 0.86844 0.0
C2623 C 0.50952 0.48054 0.8673 0.0
C2624 C 0.5047 0.46451 0.88072 0.0
C2625 C 0.49499 0.46927 0.89496 0.0
C2626 C 0.5098 0.51895 0.85443 0.0
C2627 C 0.50945 0.44209 0.87997 0.0
H2628 H 0.49644 0.44046 0.81686 0.0
H2629 H 0.5756 0.48873 0.83308 0.0
H2630 H 0.46624 0.43429 0.85342 0.0
H2631 H 0.46672 0.46142 0.84453 0.0
H2632 H 0.4606 0.43417 0.83205 0.0
H2633 H 0.58636 0.51207 0.85742 0.0
H2634 H 0.56283 0.52057 0.86438 0.0
H2635 H 0.56359 0.49387 0.87297 0.0
H2636 H 0.49158 0.52168 0.8837 0.0
H2637 H 0.49082 0.45666 0.9051 0.0
H2638 H 0.49762 0.50774 0.84392 0.0
H2639 H 0.53048 0.52783 0.85076 0.0
H2640 H 0.50548 0.5345 0.85735 0.0
H2641 H 0.49689 0.42821 0.87047 0.0
H2642 H 0.50537 0.43188 0.8916 0.0
H2643 H 0.52999 0.44884 0.8767 0.0
C2644 C 0.49059 0.03147 0.82196 0.0
C2645 C 0.5144 0.05334 0.81811 0.0
C2646 C 0.48542 0.02183 0.83766 0.0
C2647 C 0.50471 0.0339 0.84988 0.0
C2648 C 0.52868 0.05611 0.8462 0.0
C2649 C 0.53314 0.06568 0.83043 0.0
C2650 C 0.45946 0.99828 0.84108 0.0
C2651 C 0.54989 0.06937 0.85882 0.0
C2652 C 0.48244 0.01721 0.89332 0.0
C2653 C 0.48713 0.99692 0.89609 0.0
C2654 C 0.48859 0.02988 0.87847 0.0
C2655 C 0.50014 0.02236 0.86622 0.0
C2656 C 0.50588 0.00258 0.86925 0.0
C2657 C 0.49908 0.98996 0.88407 0.0
C2658 C 0.48176 0.05056 0.87565 0.0
C2659 C 0.51866 0.99431 0.85669 0.0
H2660 H 0.47609 0.02131 0.8126 0.0
H2661 H 0.55144 0.08281 0.82777 0.0
H2662 H 0.46245 0.98204 0.84418 0.0
H2663 H 0.45021 0.00196 0.85159 0.0
H2664 H 0.4458 0.99233 0.83062 0.0
H2665 H 0.5671 0.08691 0.8542 0.0
H2666 H 0.5423 0.07481 0.86944 0.0
H2667 H 0.55633 0.05598 0.86304 0.0
H2668 H 0.47306 0.02252 0.90256 0.0
H2669 H 0.50299 0.97447 0.88626 0.0
H2670 H 0.46652 0.04407 0.8661 0.0
H2671 H 0.49904 0.06829 0.87136 0.0
H2672 H 0.47444 0.05532 0.8867 0.0
H2673 H 0.50535 0.98559 0.84616 0.0
H2674 H 0.52367 0.98008 0.86138 0.0
H2675 H 0.53672 0.01122 0.85234 0.0
C2676 C 0.14094 0.26443 0.51395 0.0
C2677 C 0.1326 0.27601 0.52543 0.0
C2678 C 0.1475 0.27409 0.49827 0.0
C2679 C 0.14599 0.29605 0.49401 0.0
C2680 C 0.1369 0.30737 0.50542 0.0
C2681 C 0.13024 0.29718 0.52094 0.0
C2682 C 0.15676 0.26125 0.48641 0.0
C2683 C 0.13521 0.33093 0.50144 0.0
C2684 C 0.19064 0.34035 0.46172 0.0
C2685 C 0.1734 0.33468 0.44865 0.0
C2686 C 0.18206 0.32756 0.4764 0.0
C2687 C 0.15558 0.30834 0.47808 0.0
C2688 C 0.13823 0.30184 0.46478 0.0
C2689 C 0.1473 0.31515 0.45026 0.0
C2690 C 0.20123 0.33511 0.49025 0.0
C2691 C 0.10992 0.2813 0.46603 0.0
H2692 H 0.14256 0.24792 0.5173 0.0
H2693 H 0.12417 0.30646 0.52978 0.0
H2694 H 0.14554 0.25686 0.47494 0.0
H2695 H 0.17755 0.27447 0.48359 0.0
H2696 H 0.15477 0.24315 0.49112 0.0
H2697 H 0.12637 0.33655 0.51131 0.0
H2698 H 0.15503 0.34728 0.49915 0.0
H2699 H 0.12346 0.32748 0.49029 0.0
H2700 H 0.21096 0.35497 0.46052 0.0
H2701 H 0.13374 0.31074 0.44032 0.0
H2702 H 0.20176 0.31803 0.49463 0.0
H2703 H 0.1949 0.34273 0.50044 0.0
H2704 H 0.22129 0.34996 0.48687 0.0
H2705 H 0.10827 0.2633 0.47063 0.0
H2706 H 0.09947 0.27705 0.45426 0.0
H2707 H 0.10001 0.28756 0.47476 0.0
C2708 C 0.75138 0.8827 0.49908 0.0
C2709 C 0.74429 0.86915 0.51353 0.0
C2710 C 0.73385 0.87508 0.48604 0.0
C2711 C 0.70867 0.85327 0.48744 0.0
C2712 C 0.7014 0.83944 0.50198 0.0
C2713 C 0.71928 0.84763 0.5149 0.0
C2714 C 0.74226 0.89047 0.47077 0.0
C2715 C 0.6748 0.81595 0.50385 0.0
C2716 C 0.65733 0.84874 0.45798 0.0
C2717 C 0.65828 0.83286 0.44582 0.0
C2718 C 0.67313 0.85499 0.47184 0.0
C2719 C 0.6901 0.84498 0.47359 0.0
C2720 C 0.69043 0.8282 0.46161 0.0
C2721 C 0.67457 0.82241 0.44784 0.0
C2722 C 0.67236 0.87307 0.48431 0.0
C2723 C 0.70809 0.81695 0.46312 0.0
H2724 H 0.77057 0.89956 0.49807 0.0
H2725 H 0.71383 0.837 0.52602 0.0
H2726 H 0.74124 0.87801 0.4605 0.0
H2727 H 0.72882 0.89773 0.46794 0.0
H2728 H 0.76244 0.90708 0.4717 0.0
H2729 H 0.67219 0.80733 0.51594 0.0
H2730 H 0.65942 0.82104 0.50191 0.0
H2731 H 0.67181 0.80124 0.49458 0.0
H2732 H 0.64493 0.85703 0.45638 0.0
H2733 H 0.67507 0.80985 0.43855 0.0
H2734 H 0.69151 0.89112 0.48485 0.0
H2735 H 0.66883 0.86441 0.49641 0.0
H2736 H 0.65699 0.87795 0.48163 0.0
H2737 H 0.72877 0.83256 0.46282 0.0
H2738 H 0.70474 0.80289 0.45328 0.0
H2739 H 0.70505 0.80723 0.47484 0.0
C2740 C 0.14931 0.82417 0.52658 0.0
C2741 C 0.14315 0.84243 0.53244 0.0
C2742 C 0.15439 0.82293 0.51022 0.0
C2743 C 0.15343 0.84047 0.49941 0.0
C2744 C 0.14628 0.85834 0.50513 0.0
C2745 C 0.14112 0.85905 0.52159 0.0
C2746 C 0.16166 0.80338 0.5046 0.0
C2747 C 0.14513 0.8774 0.49399 0.0
C2748 C 0.19685 0.8542 0.4631 0.0
C2749 C 0.17904 0.83802 0.45126 0.0
C2750 C 0.18856 0.85601 0.47861 0.0
C2751 C 0.1618 0.84114 0.48244 0.0
C2752 C 0.14357 0.8255 0.47036 0.0
C2753 C 0.15241 0.8242 0.45488 0.0
C2754 C 0.20861 0.87316 0.49106 0.0
C2755 C 0.1149 0.8093 0.47399 0.0
H2756 H 0.15049 0.81102 0.53489 0.0
H2757 H 0.13648 0.87327 0.52609 0.0
H2758 H 0.14912 0.79198 0.49425 0.0
H2759 H 0.18213 0.81338 0.50041 0.0
H2760 H 0.15977 0.78999 0.51429 0.0
H2761 H 0.13701 0.88844 0.49997 0.0
H2762 H 0.16504 0.89114 0.48976 0.0
H2763 H 0.13305 0.8674 0.48318 0.0
H2764 H 0.21741 0.86523 0.46026 0.0
H2765 H 0.1386 0.81158 0.44578 0.0
H2766 H 0.20986 0.86123 0.50073 0.0
H2767 H 0.20272 0.88622 0.49676 0.0
H2768 H 0.2283 0.88493 0.48583 0.0
H2769 H 0.11188 0.79399 0.4825 0.0
H2770 H 0.10299 0.8001 0.46296 0.0
H2771 H 0.10769 0.82115 0.4799 0.0
C2772 C 0.66274 0.81895 0.15121 0.0
C2773 C 0.64205 0.82198 0.14565 0.0
C2774 C 0.67017 0.82271 0.16752 0.0
C2775 C 0.65699 0.83022 0.17855 0.0
C2776 C 0.63609 0.8333 0.17309 0.0
C2777 C 0.62872 0.82894 0.15674 0.0
C2778 C 0.69244 0.81902 0.17289 0.0
C2779 C 0.62177 0.84157 0.18448 0.0
C2780 C 0.66553 0.82082 0.22287 0.0
C2781 C 0.68649 0.84499 0.22727 0.0
C2782 C 0.65518 0.81587 0.20713 0.0
C2783 C 0.66586 0.83571 0.19566 0.0
C2784 C 0.6863 0.86046 0.20028 0.0
C2785 C 0.6965 0.86474 0.216 0.0
C2786 C 0.63362 0.78916 0.20261 0.0
C2787 C 0.6979 0.88223 0.18849 0.0
H2788 H 0.67356 0.81411 0.14277 0.0
H2789 H 0.61247 0.83096 0.15265 0.0
H2790 H 0.70886 0.83755 0.17743 0.0
H2791 H 0.68619 0.80527 0.18295 0.0
H2792 H 0.69968 0.81174 0.16299 0.0
H2793 H 0.60571 0.84277 0.17838 0.0
H2794 H 0.61349 0.82787 0.19452 0.0
H2795 H 0.63558 0.86067 0.18986 0.0
H2796 H 0.65789 0.8055 0.23157 0.0
H2797 H 0.71252 0.88352 0.21948 0.0
H2798 H 0.64089 0.78049 0.19363 0.0
H2799 H 0.61709 0.78994 0.1969 0.0
H2800 H 0.62628 0.77639 0.21318 0.0
H2801 H 0.70789 0.87778 0.17876 0.0
H2802 H 0.71223 0.90078 0.19433 0.0
H2803 H 0.68228 0.88453 0.18274 0.0
C2804 C 0.22592 0.81346 0.1752 0.0
C2805 C 0.21043 0.80353 0.16126 0.0
C2806 C 0.21664 0.82016 0.18889 0.0
C2807 C 0.19106 0.81638 0.18873 0.0
C2808 C 0.17539 0.80653 0.17462 0.0
C2809 C 0.18538 0.80045 0.16099 0.0
C2810 C 0.23416 0.83108 0.20356 0.0
C2811 C 0.14788 0.80184 0.17406 0.0
C2812 C 0.15919 0.80948 0.22948 0.0
C2813 C 0.16173 0.83377 0.23174 0.0
C2814 C 0.16824 0.80343 0.21542 0.0
C2815 C 0.18056 0.82228 0.20346 0.0
C2816 C 0.18326 0.84688 0.20572 0.0
C2817 C 0.17361 0.85225 0.21978 0.0
C2818 C 0.16462 0.77685 0.21337 0.0
C2819 C 0.19671 0.86766 0.19342 0.0
H2820 H 0.24539 0.81605 0.17537 0.0
H2821 H 0.1733 0.79255 0.15026 0.0
H2822 H 0.2361 0.84981 0.20711 0.0
H2823 H 0.22539 0.81798 0.21385 0.0
H2824 H 0.25393 0.83393 0.20148 0.0
H2825 H 0.13835 0.79437 0.16212 0.0
H2826 H 0.13602 0.78779 0.18337 0.0
H2827 H 0.14787 0.81992 0.17683 0.0
H2828 H 0.1498 0.79509 0.23866 0.0
H2829 H 0.17583 0.87113 0.22158 0.0
H2830 H 0.18389 0.7781 0.21244 0.0
H2831 H 0.15375 0.76782 0.20201 0.0
H2832 H 0.15389 0.76414 0.22354 0.0
H2833 H 0.21703 0.87182 0.19178 0.0
H2834 H 0.19719 0.88576 0.19697 0.0
H2835 H 0.18661 0.86103 0.18158 0.0
C2836 C 0.20236 0.38768 0.16076 0.0
C2837 C 0.18181 0.38438 0.15065 0.0
C2838 C 0.19775 0.37878 0.17668 0.0
C2839 C 0.17197 0.36613 0.18265 0.0
C2840 C 0.15134 0.36369 0.17273 0.0
C2841 C 0.15651 0.37293 0.15693 0.0
C2842 C 0.22034 0.382 0.18691 0.0
C2843 C 0.12356 0.3504 0.17858 0.0
C2844 C 0.15265 0.31552 0.2149 0.0
C2845 C 0.15093 0.32832 0.22868 0.0
C2846 C 0.16004 0.3278 0.19998 0.0
C2847 C 0.16613 0.35369 0.19875 0.0
C2848 C 0.16532 0.36705 0.21271 0.0
C2849 C 0.15766 0.3542 0.22749 0.0
C2850 C 0.16067 0.31281 0.18543 0.0
C2851 C 0.17186 0.39471 0.21195 0.0
H2852 H 0.22194 0.39632 0.15604 0.0
H2853 H 0.14057 0.37076 0.14936 0.0
H2854 H 0.22022 0.39032 0.19888 0.0
H2855 H 0.2184 0.36293 0.18895 0.0
H2856 H 0.23944 0.39454 0.18116 0.0
H2857 H 0.10998 0.35139 0.16975 0.0
H2858 H 0.1169 0.32988 0.18084 0.0
H2859 H 0.12237 0.35915 0.19014 0.0
H2860 H 0.14806 0.29572 0.21573 0.0
H2861 H 0.15622 0.36425 0.238 0.0
H2862 H 0.18015 0.32302 0.17978 0.0
H2863 H 0.14621 0.31129 0.17631 0.0
H2864 H 0.15625 0.29311 0.1885 0.0
H2865 H 0.19109 0.40656 0.20622 0.0
H2866 H 0.17233 0.40299 0.22407 0.0
H2867 H 0.15714 0.39607 0.20439 0.0
C2868 C 0.81401 0.60654 0.85109 0.0
C2869 C 0.80267 0.61669 0.8615 0.0
C2870 C 0.8197 0.61458 0.83503 0.0
C2871 C 0.81436 0.63356 0.82927 0.0
C2872 C 0.80198 0.64311 0.83949 0.0
C2873 C 0.79604 0.63436 0.85536 0.0
C2874 C 0.83237 0.60348 0.82441 0.0
C2875 C 0.79607 0.66347 0.83391 0.0
C2876 C 0.85678 0.67891 0.79666 0.0
C2877 C 0.83985 0.67056 0.78324 0.0
C2878 C 0.84889 0.6667 0.81156 0.0
C2879 C 0.8236 0.6451 0.81309 0.0
C2880 C 0.80683 0.63569 0.79943 0.0
C2881 C 0.81503 0.64865 0.78472 0.0
C2882 C 0.86738 0.67752 0.82582 0.0
C2883 C 0.77992 0.61238 0.80046 0.0
H2884 H 0.81941 0.59302 0.85564 0.0
H2885 H 0.78662 0.64184 0.8631 0.0
H2886 H 0.82231 0.59755 0.81252 0.0
H2887 H 0.85292 0.61835 0.82223 0.0
H2888 H 0.83214 0.58664 0.82993 0.0
H2889 H 0.78532 0.66805 0.84307 0.0
H2890 H 0.81456 0.68135 0.83125 0.0
H2891 H 0.78432 0.65713 0.82262 0.0
H2892 H 0.87624 0.69533 0.79561 0.0
H2893 H 0.80164 0.64203 0.77454 0.0
H2894 H 0.87056 0.66244 0.83108 0.0
H2895 H 0.85871 0.68395 0.83532 0.0
H2896 H 0.8866 0.69406 0.82255 0.0
H2897 H 0.7809 0.59635 0.80625 0.0
H2898 H 0.77045 0.60577 0.78842 0.0
H2899 H 0.76742 0.61699 0.80807 0.0
C2900 C 0.39247 0.21369 0.8454 0.0
C2901 C 0.41258 0.20783 0.846 0.0
C2902 C 0.37581 0.20684 0.83192 0.0
C2903 C 0.37932 0.19378 0.81873 0.0
C2904 C 0.39926 0.18739 0.81938 0.0
C2905 C 0.41567 0.19452 0.83299 0.0
C2906 C 0.35469 0.2139 0.83169 0.0
C2907 C 0.40363 0.1735 0.80554 0.0
C2908 C 0.3241 0.1578 0.78841 0.0
C2909 C 0.33198 0.17521 0.7757 0.0
C2910 C 0.33919 0.16367 0.80256 0.0
C2911 C 0.3627 0.18751 0.80403 0.0
C2912 C 0.37061 0.20528 0.79132 0.0
C2913 C 0.35516 0.19891 0.77732 0.0
C2914 C 0.33018 0.14422 0.81584 0.0
C2915 C 0.3955 0.23095 0.79247 0.0
H2916 H 0.38976 0.22367 0.8555 0.0
H2917 H 0.43138 0.19023 0.83326 0.0
H2918 H 0.35796 0.22707 0.8216 0.0
H2919 H 0.33538 0.19645 0.82961 0.0
H2920 H 0.35406 0.2234 0.8431 0.0
H2921 H 0.41929 0.16901 0.8082 0.0
H2922 H 0.38538 0.15529 0.80266 0.0
H2923 H 0.40902 0.18548 0.79462 0.0
H2924 H 0.30636 0.13934 0.78715 0.0
H2925 H 0.36114 0.2126 0.76764 0.0
H2926 H 0.32841 0.15296 0.82726 0.0
H2927 H 0.34483 0.13821 0.81794 0.0
H2928 H 0.31109 0.12685 0.81299 0.0
H2929 H 0.39498 0.24193 0.80316 0.0
H2930 H 0.39873 0.24271 0.78159 0.0
H2931 H 0.41241 0.22802 0.79408 0.0
C2932 C 0.78349 0.16957 0.85082 0.0
C2933 C 0.80408 0.18325 0.86184 0.0
C2934 C 0.7883 0.16533 0.83482 0.0
C2935 C 0.81431 0.17494 0.82974 0.0
C2936 C 0.83517 0.18917 0.84072 0.0
C2937 C 0.82981 0.19311 0.8566 0.0
C2938 C 0.76556 0.15017 0.82344 0.0
C2939 C 0.86319 0.19966 0.83582 0.0
C2940 C 0.82967 0.14304 0.7951 0.0
C2941 C 0.83519 0.16052 0.78263 0.0
C2942 C 0.82207 0.14711 0.81033 0.0
C2943 C 0.81988 0.1692 0.8132 0.0
C2944 C 0.82461 0.18651 0.80053 0.0
C2945 C 0.83221 0.18197 0.78539 0.0
C2946 C 0.81708 0.1281 0.82348 0.0
C2947 C 0.8225 0.21029 0.80311 0.0
H2948 H 0.76358 0.1621 0.85472 0.0
H2949 H 0.84584 0.20331 0.86508 0.0
H2950 H 0.76789 0.16136 0.81242 0.0
H2951 H 0.76505 0.1322 0.8196 0.0
H2952 H 0.74659 0.14508 0.82902 0.0
H2953 H 0.87719 0.21131 0.84558 0.0
H2954 H 0.86646 0.18356 0.83254 0.0
H2955 H 0.8675 0.21178 0.82503 0.0
H2956 H 0.83148 0.12619 0.79297 0.0
H2957 H 0.83663 0.19567 0.77586 0.0
H2958 H 0.7975 0.12122 0.82868 0.0
H2959 H 0.8316 0.13765 0.83336 0.0
H2960 H 0.81827 0.11121 0.81907 0.0
H2961 H 0.80334 0.20512 0.80836 0.0
H2962 H 0.82485 0.22076 0.79175 0.0
H2963 H 0.83776 0.22346 0.81182 0.0
C2964 C 0.32228 0.18433 0.49275 0.0
C2965 C 0.30179 0.15974 0.48854 0.0
C2966 C 0.33299 0.18998 0.50836 0.0
C2967 C 0.32293 0.17061 0.52013 0.0
C2968 C 0.30177 0.14592 0.51612 0.0
C2969 C 0.29152 0.14074 0.50033 0.0
C2970 C 0.35567 0.2165 0.51211 0.0
C2971 C 0.29035 0.12487 0.52839 0.0
C2972 C 0.37077 0.18001 0.55364 0.0
C2973 C 0.36394 0.19199 0.56573 0.0
C2974 C 0.35695 0.17207 0.53898 0.0
C2975 C 0.33561 0.17602 0.53634 0.0
C2976 C 0.32782 0.18699 0.54876 0.0
C2977 C 0.34213 0.19493 0.56329 0.0
C2978 C 0.36586 0.1604 0.52605 0.0
C2979 C 0.30505 0.19134 0.54646 0.0
H2980 H 0.33062 0.19899 0.48364 0.0
H2981 H 0.27555 0.12176 0.49718 0.0
H2982 H 0.35121 0.22502 0.52269 0.0
H2983 H 0.37317 0.21518 0.51525 0.0
H2984 H 0.36049 0.2297 0.50181 0.0
H2985 H 0.27285 0.10729 0.52368 0.0
H2986 H 0.30516 0.11973 0.53205 0.0
H2987 H 0.28489 0.13166 0.53939 0.0
H2988 H 0.38725 0.17718 0.55556 0.0
H2989 H 0.33681 0.20434 0.5725 0.0
H2990 H 0.37301 0.17331 0.51556 0.0
H2991 H 0.3493 0.14178 0.52176 0.0
H2992 H 0.38175 0.15718 0.53036 0.0
H2993 H 0.31002 0.20642 0.53737 0.0
H2994 H 0.29976 0.19747 0.55782 0.0
H2995 H 0.28775 0.17355 0.54184 0.0
C2996 C 0.85775 0.1148 0.50414 0.0
C2997 C 0.87324 0.13333 0.49282 0.0
C2998 C 0.84825 0.12137 0.51777 0.0
C2999 C 0.8539 0.14702 0.52004 0.0
C3000 C 0.86889 0.1657 0.50848 0.0
C3001 C 0.87853 0.15868 0.49508 0.0
C3002 C 0.83248 0.1009 0.52987 0.0
C3003 C 0.87506 0.19319 0.51038 0.0
C3004 C 0.81059 0.15777 0.54906 0.0
C3005 C 0.82613 0.16629 0.5631 0.0
C3006 C 0.81958 0.15198 0.53487 0.0
C3007 C 0.84457 0.15433 0.53474 0.0
C3008 C 0.8604 0.16297 0.54881 0.0
C3009 C 0.85111 0.16905 0.56274 0.0
C3010 C 0.80223 0.14309 0.52005 0.0
C3011 C 0.88707 0.16549 0.54922 0.0
H3012 H 0.853 0.09504 0.50238 0.0
H3013 H 0.89069 0.17324 0.48654 0.0
H3014 H 0.84235 0.10648 0.54183 0.0
H3015 H 0.81301 0.09906 0.53126 0.0
H3016 H 0.82975 0.08183 0.52631 0.0
H3017 H 0.8858 0.20508 0.49992 0.0
H3018 H 0.85679 0.19382 0.51183 0.0
H3019 H 0.88705 0.20193 0.52142 0.0
H3020 H 0.79114 0.15519 0.5492 0.0
H3021 H 0.86356 0.17613 0.57336 0.0
H3022 H 0.79711 0.12316 0.51675 0.0
H3023 H 0.81272 0.1554 0.5097 0.0
H3024 H 0.78391 0.14355 0.52187 0.0
H3025 H 0.88533 0.14659 0.54648 0.0
H3026 H 0.89697 0.1725 0.56111 0.0
H3027 H 0.89957 0.17898 0.53985 0.0
C3028 C 0.82842 0.70627 0.49025 0.0
C3029 C 0.85422 0.72296 0.48554 0.0
C3030 C 0.82263 0.69627 0.50585 0.0
C3031 C 0.84312 0.70285 0.5171 0.0
C3032 C 0.86917 0.72009 0.5126 0.0
C3033 C 0.8744 0.72997 0.49691 0.0
C3034 C 0.79457 0.678 0.51013 0.0
C3035 C 0.89158 0.72759 0.52422 0.0
C3036 C 0.82395 0.6886 0.5612 0.0
C3037 C 0.82183 0.66443 0.56289 0.0
C3038 C 0.8315 0.70169 0.54651 0.0
C3039 C 0.83725 0.69043 0.53321 0.0
C3040 C 0.83597 0.66644 0.53503 0.0
C3041 C 0.82823 0.65375 0.5498 0.0
C3042 C 0.83249 0.72715 0.54506 0.0
C3043 C 0.84219 0.65386 0.52125 0.0
H3044 H 0.81266 0.70027 0.48155 0.0
H3045 H 0.89437 0.74309 0.49351 0.0
H3046 H 0.79187 0.65869 0.51247 0.0
H3047 H 0.78945 0.68464 0.52133 0.0
H3048 H 0.78078 0.67613 0.5004 0.0
H3049 H 0.91054 0.74225 0.51919 0.0
H3050 H 0.88822 0.73529 0.5356 0.0
H3051 H 0.89287 0.71036 0.5273 0.0
H3052 H 0.81886 0.69691 0.57122 0.0
H3053 H 0.82707 0.63529 0.55109 0.0
H3054 H 0.81728 0.72518 0.53639 0.0
H3055 H 0.85161 0.74184 0.54028 0.0
H3056 H 0.82931 0.73419 0.55679 0.0
H3057 H 0.82792 0.64919 0.51127 0.0
H3058 H 0.84167 0.63589 0.52488 0.0
H3059 H 0.86181 0.66727 0.51647 0.0
loop_
_geom_bond_atom_site_label_1
_geom_bond_atom_site_label_2
_geom_bond_distance
_geom_bond_site_symmetry_2
_ccdc_geom_bond_type
P0 O11 1.490 . S
P0 C14 1.812 . S
P0 C20 1.803 . S
P0 C26 1.819 . S
H1 C15 0.941 . S
H2 C16 0.939 . S
H3 C18 0.940 . S
H4 C19 0.940 . S
H5 C21 0.939 . S
H6 C22 0.942 . S
H7 C24 0.940 . S
H8 C25 0.939 . S
H9 C27 0.941 . S
H10 C31 0.939 . S
O11 P0 1.490 . S
H12 C28 0.939 . S
H13 C30 0.940 . S
C14 P0 1.812 . S
C14 C15 1.389 . S
C14 C19 1.391 . S
C15 H1 0.941 . S
C15 C14 1.389 . S
C15 C16 1.397 . S
C16 H2 0.939 . S
C16 C15 1.397 . S
C16 C17 1.378 . S
C17 C16 1.378 . S
C17 C18 1.378 . S
C18 H3 0.940 . S
C18 C17 1.378 . S
C18 C19 1.396 . S
C19 H4 0.940 . S
C19 C14 1.391 . S
C19 C18 1.396 . S
C20 P0 1.803 . S
C20 C21 1.378 . S
C20 C25 1.400 . S
C21 H5 0.939 . S
C21 C20 1.378 . S
C21 C22 1.361 . S
C22 H6 0.942 . S
C22 C21 1.361 . S
C22 C23 1.369 . S
C23 C22 1.369 . S
C23 C24 1.404 . S
C24 H7 0.940 . S
C24 C23 1.404 . S
C24 C25 1.389 . S
C25 H8 0.939 . S
C25 C20 1.400 . S
C25 C24 1.389 . S
C26 P0 1.819 . S
C26 C27 1.391 . S
C26 C31 1.391 . S
C27 H9 0.941 . S
C27 C26 1.391 . S
C27 C28 1.396 . S
C28 H12 0.939 . S
C28 C27 1.396 . S
C28 C29 1.397 . S
C29 C28 1.397 . S
C29 C30 1.385 . S
C30 H13 0.940 . S
C30 C29 1.385 . S
C30 C31 1.388 . S
C31 H10 0.939 . S
C31 C26 1.391 . S
C31 C30 1.388 . S
P32 O43 1.490 . S
P32 C46 1.812 . S
P32 C52 1.803 . S
P32 C58 1.819 . S
H33 C47 0.941 . S
H34 C48 0.939 . S
H35 C50 0.940 . S
H36 C51 0.940 . S
H37 C53 0.939 . S
H38 C54 0.942 . S
H39 C56 0.940 . S
H40 C57 0.939 . S
H41 C59 0.941 . S
H42 C63 0.939 . S
O43 P32 1.490 . S
H44 C60 0.939 . S
H45 C62 0.940 . S
C46 P32 1.812 . S
C46 C47 1.389 . S
C46 C51 1.391 . S
C47 H33 0.941 . S
C47 C46 1.389 . S
C47 C48 1.397 . S
C48 H34 0.939 . S
C48 C47 1.397 . S
C48 C49 1.378 . S
C49 C48 1.378 . S
C49 C50 1.378 . S
C50 H35 0.940 . S
C50 C49 1.378 . S
C50 C51 1.396 . S
C51 H36 0.940 . S
C51 C46 1.391 . S
C51 C50 1.396 . S
C52 P32 1.803 . S
C52 C53 1.378 . S
C52 C57 1.400 . S
C53 H37 0.939 . S
C53 C52 1.378 . S
C53 C54 1.361 . S
C54 H38 0.942 . S
C54 C53 1.361 . S
C54 C55 1.369 . S
C55 C54 1.369 . S
C55 C56 1.404 . S
C56 H39 0.940 . S
C56 C55 1.404 . S
C56 C57 1.389 . S
C57 H40 0.939 . S
C57 C52 1.400 . S
C57 C56 1.389 . S
C58 P32 1.819 . S
C58 C59 1.391 . S
C58 C63 1.391 . S
C59 H41 0.941 . S
C59 C58 1.391 . S
C59 C60 1.396 . S
C60 H44 0.939 . S
C60 C59 1.396 . S
C60 C61 1.397 . S
C61 C60 1.397 . S
C61 C62 1.385 . S
C62 H45 0.940 . S
C62 C61 1.385 . S
C62 C63 1.388 . S
C63 H42 0.939 . S
C63 C58 1.391 . S
C63 C62 1.388 . S
P64 O75 1.490 . S
P64 C78 1.812 . S
P64 C84 1.803 . S
P64 C90 1.819 . S
H65 C79 0.941 . S
H66 C80 0.939 . S
H67 C82 0.940 . S
H68 C83 0.940 . S
H69 C85 0.939 . S
H70 C86 0.942 . S
H71 C88 0.940 . S
H72 C89 0.939 . S
H73 C91 0.941 . S
H74 C95 0.939 . S
O75 P64 1.490 . S
H76 C92 0.939 . S
H77 C94 0.940 . S
C78 P64 1.812 . S
C78 C79 1.389 . S
C78 C83 1.391 . S
C79 H65 0.941 . S
C79 C78 1.389 . S
C79 C80 1.397 . S
C80 H66 0.939 . S
C80 C79 1.397 . S
C80 C81 1.378 . S
C81 C80 1.378 . S
C81 C82 1.378 . S
C82 H67 0.940 . S
C82 C81 1.378 . S
C82 C83 1.396 . S
C83 H68 0.940 . S
C83 C78 1.391 . S
C83 C82 1.396 . S
C84 P64 1.803 . S
C84 C85 1.378 . S
C84 C89 1.400 . S
C85 H69 0.939 . S
C85 C84 1.378 . S
C85 C86 1.361 . S
C86 H70 0.942 . S
C86 C85 1.361 . S
C86 C87 1.369 . S
C87 C86 1.369 . S
C87 C88 1.404 . S
C88 H71 0.940 . S
C88 C87 1.404 . S
C88 C89 1.389 . S
C89 H72 0.939 . S
C89 C84 1.400 . S
C89 C88 1.389 . S
C90 P64 1.819 . S
C90 C91 1.391 . S
C90 C95 1.391 . S
C91 H73 0.941 . S
C91 C90 1.391 . S
C91 C92 1.396 . S
C92 H76 0.939 . S
C92 C91 1.396 . S
C92 C93 1.397 . S
C93 C92 1.397 . S
C93 C94 1.385 . S
C94 H77 0.940 . S
C94 C93 1.385 . S
C94 C95 1.388 . S
C95 H74 0.939 . S
C95 C90 1.391 . S
C95 C94 1.388 . S
P96 O107 1.490 . S
P96 C110 1.812 . S
P96 C116 1.803 . S
P96 C122 1.819 . S
H97 C111 0.941 . S
H98 C112 0.939 . S
H99 C114 0.940 . S
H100 C115 0.940 . S
H101 C117 0.939 . S
H102 C118 0.942 . S
H103 C120 0.940 . S
H104 C121 0.939 . S
H105 C123 0.941 . S
H106 C127 0.939 . S
O107 P96 1.490 . S
H108 C124 0.939 . S
H109 C126 0.940 . S
C110 P96 1.812 . S
C110 C111 1.389 . S
C110 C115 1.391 . S
C111 H97 0.941 . S
C111 C110 1.389 . S
C111 C112 1.397 . S
C112 H98 0.939 . S
C112 C111 1.397 . S
C112 C113 1.378 . S
C113 C112 1.378 . S
C113 C114 1.378 . S
C114 H99 0.940 . S
C114 C113 1.378 . S
C114 C115 1.396 . S
C115 H100 0.940 . S
C115 C110 1.391 . S
C115 C114 1.396 . S
C116 P96 1.803 . S
C116 C117 1.378 . S
C116 C121 1.400 . S
C117 H101 0.939 . S
C117 C116 1.378 . S
C117 C118 1.361 . S
C118 H102 0.942 . S
C118 C117 1.361 . S
C118 C119 1.369 . S
C119 C118 1.369 . S
C119 C120 1.404 . S
C120 H103 0.940 . S
C120 C119 1.404 . S
C120 C121 1.389 . S
C121 H104 0.939 . S
C121 C116 1.400 . S
C121 C120 1.389 . S
C122 P96 1.819 . S
C122 C123 1.391 . S
C122 C127 1.391 . S
C123 H105 0.941 . S
C123 C122 1.391 . S
C123 C124 1.396 . S
C124 H108 0.939 . S
C124 C123 1.396 . S
C124 C125 1.397 . S
C125 C124 1.397 . S
C125 C126 1.385 . S
C126 H109 0.940 . S
C126 C125 1.385 . S
C126 C127 1.388 . S
C127 H106 0.939 . S
C127 C122 1.391 . S
C127 C126 1.388 . S
P128 O139 1.490 . S
P128 C142 1.812 . S
P128 C148 1.803 . S
P128 C154 1.819 . S
H129 C143 0.941 . S
H130 C144 0.939 . S
H131 C146 0.940 . S
H132 C147 0.940 . S
H133 C149 0.939 . S
H134 C150 0.942 . S
H135 C152 0.940 . S
H136 C153 0.939 . S
H137 C155 0.941 . S
H138 C159 0.939 . S
O139 P128 1.490 . S
H140 C156 0.939 . S
H141 C158 0.940 . S
C142 P128 1.812 . S
C142 C143 1.389 . S
C142 C147 1.391 . S
C143 H129 0.941 . S
C143 C142 1.389 . S
C143 C144 1.397 . S
C144 H130 0.939 . S
C144 C143 1.397 . S
C144 C145 1.378 . S
C145 C144 1.378 . S
C145 C146 1.378 . S
C146 H131 0.940 . S
C146 C145 1.378 . S
C146 C147 1.396 . S
C147 H132 0.940 . S
C147 C142 1.391 . S
C147 C146 1.396 . S
C148 P128 1.803 . S
C148 C149 1.378 . S
C148 C153 1.400 . S
C149 H133 0.939 . S
C149 C148 1.378 . S
C149 C150 1.361 . S
C150 H134 0.942 . S
C150 C149 1.361 . S
C150 C151 1.369 . S
C151 C150 1.369 . S
C151 C152 1.404 . S
C152 H135 0.940 . S
C152 C151 1.404 . S
C152 C153 1.389 . S
C153 H136 0.939 . S
C153 C148 1.400 . S
C153 C152 1.389 . S
C154 P128 1.819 . S
C154 C155 1.391 . S
C154 C159 1.391 . S
C155 H137 0.941 . S
C155 C154 1.391 . S
C155 C156 1.396 . S
C156 H140 0.939 . S
C156 C155 1.396 . S
C156 C157 1.397 . S
C157 C156 1.397 . S
C157 C158 1.385 . S
C158 H141 0.940 . S
C158 C157 1.385 . S
C158 C159 1.388 . S
C159 H138 0.939 . S
C159 C154 1.391 . S
C159 C158 1.388 . S
P160 O171 1.490 . S
P160 C174 1.812 . S
P160 C180 1.803 . S
P160 C186 1.819 . S
H161 C175 0.941 . S
H162 C176 0.939 . S
H163 C178 0.940 . S
H164 C179 0.940 . S
H165 C181 0.939 . S
H166 C182 0.942 . S
H167 C184 0.940 . S
H168 C185 0.939 . S
H169 C187 0.941 . S
H170 C191 0.939 . S
O171 P160 1.490 . S
H172 C188 0.939 . S
H173 C190 0.940 . S
C174 P160 1.812 . S
C174 C175 1.389 . S
C174 C179 1.391 . S
C175 H161 0.941 . S
C175 C174 1.389 . S
C175 C176 1.397 . S
C176 H162 0.939 . S
C176 C175 1.397 . S
C176 C177 1.378 . S
C177 C176 1.378 . S
C177 C178 1.378 . S
C178 H163 0.940 . S
C178 C177 1.378 . S
C178 C179 1.396 . S
C179 H164 0.940 . S
C179 C174 1.391 . S
C179 C178 1.396 . S
C180 P160 1.803 . S
C180 C181 1.378 . S
C180 C185 1.400 . S
C181 H165 0.939 . S
C181 C180 1.378 . S
C181 C182 1.361 . S
C182 H166 0.942 . S
C182 C181 1.361 . S
C182 C183 1.369 . S
C183 C182 1.369 . S
C183 C184 1.404 . S
C184 H167 0.940 . S
C184 C183 1.404 . S
C184 C185 1.389 . S
C185 H168 0.939 . S
C185 C180 1.400 . S
C185 C184 1.389 . S
C186 P160 1.819 . S
C186 C187 1.391 . S
C186 C191 1.391 . S
C187 H169 0.941 . S
C187 C186 1.391 . S
C187 C188 1.396 . S
C188 H172 0.939 . S
C188 C187 1.396 . S
C188 C189 1.397 . S
C189 C188 1.397 . S
C189 C190 1.385 . S
C190 H173 0.940 . S
C190 C189 1.385 . S
C190 C191 1.388 . S
C191 H170 0.939 . S
C191 C186 1.391 . S
C191 C190 1.388 . S
P192 O203 1.490 . S
P192 C206 1.812 . S
P192 C212 1.803 . S
P192 C218 1.819 . S
H193 C207 0.941 . S
H194 C208 0.939 . S
H195 C210 0.940 . S
H196 C211 0.940 . S
H197 C213 0.939 . S
H198 C214 0.942 . S
H199 C216 0.940 . S
H200 C217 0.939 . S
H201 C219 0.941 . S
H202 C223 0.939 . S
O203 P192 1.490 . S
H204 C220 0.939 . S
H205 C222 0.940 . S
C206 P192 1.812 . S
C206 C207 1.389 . S
C206 C211 1.391 . S
C207 H193 0.941 . S
C207 C206 1.389 . S
C207 C208 1.397 . S
C208 H194 0.939 . S
C208 C207 1.397 . S
C208 C209 1.378 . S
C209 C208 1.378 . S
C209 C210 1.378 . S
C210 H195 0.940 . S
C210 C209 1.378 . S
C210 C211 1.396 . S
C211 H196 0.940 . S
C211 C206 1.391 . S
C211 C210 1.396 . S
C212 P192 1.803 . S
C212 C213 1.378 . S
C212 C217 1.400 . S
C213 H197 0.939 . S
C213 C212 1.378 . S
C213 C214 1.361 . S
C214 H198 0.942 . S
C214 C213 1.361 . S
C214 C215 1.369 . S
C215 C214 1.369 . S
C215 C216 1.404 . S
C216 H199 0.940 . S
C216 C215 1.404 . S
C216 C217 1.389 . S
C217 H200 0.939 . S
C217 C212 1.400 . S
C217 C216 1.389 . S
C218 P192 1.819 . S
C218 C219 1.391 . S
C218 C223 1.391 . S
C219 H201 0.941 . S
C219 C218 1.391 . S
C219 C220 1.396 . S
C220 H204 0.939 . S
C220 C219 1.396 . S
C220 C221 1.397 . S
C221 C220 1.397 . S
C221 C222 1.385 . S
C222 H205 0.940 . S
C222 C221 1.385 . S
C222 C223 1.388 . S
C223 H202 0.939 . S
C223 C218 1.391 . S
C223 C222 1.388 . S
P224 O235 1.490 . S
P224 C238 1.812 . S
P224 C244 1.803 . S
P224 C250 1.819 . S
H225 C239 0.941 . S
H226 C240 0.939 . S
H227 C242 0.940 . S
H228 C243 0.940 . S
H229 C245 0.939 . S
H230 C246 0.942 . S
H231 C248 0.940 . S
H232 C249 0.939 . S
H233 C251 0.941 . S
H234 C255 0.939 . S
O235 P224 1.490 . S
H236 C252 0.939 . S
H237 C254 0.940 . S
C238 P224 1.812 . S
C238 C239 1.389 . S
C238 C243 1.391 . S
C239 H225 0.941 . S
C239 C238 1.389 . S
C239 C240 1.397 . S
C240 H226 0.939 . S
C240 C239 1.397 . S
C240 C241 1.378 . S
C241 C240 1.378 . S
C241 C242 1.378 . S
C242 H227 0.940 . S
C242 C241 1.378 . S
C242 C243 1.396 . S
C243 H228 0.940 . S
C243 C238 1.391 . S
C243 C242 1.396 . S
C244 P224 1.803 . S
C244 C245 1.378 . S
C244 C249 1.400 . S
C245 H229 0.939 . S
C245 C244 1.378 . S
C245 C246 1.361 . S
C246 H230 0.942 . S
C246 C245 1.361 . S
C246 C247 1.369 . S
C247 C246 1.369 . S
C247 C248 1.404 . S
C248 H231 0.940 . S
C248 C247 1.404 . S
C248 C249 1.389 . S
C249 H232 0.939 . S
C249 C244 1.400 . S
C249 C248 1.389 . S
C250 P224 1.819 . S
C250 C251 1.391 . S
C250 C255 1.391 . S
C251 H233 0.941 . S
C251 C250 1.391 . S
C251 C252 1.396 . S
C252 H236 0.939 . S
C252 C251 1.396 . S
C252 C253 1.397 . S
C253 C252 1.397 . S
C253 C254 1.385 . S
C254 H237 0.940 . S
C254 C253 1.385 . S
C254 C255 1.388 . S
C255 H234 0.939 . S
C255 C250 1.391 . S
C255 C254 1.388 . S
P256 O267 1.490 . S
P256 C270 1.812 . S
P256 C276 1.803 . S
P256 C282 1.819 . S
H257 C271 0.941 . S
H258 C272 0.939 . S
H259 C274 0.940 . S
H260 C275 0.940 . S
H261 C277 0.939 . S
H262 C278 0.942 . S
H263 C280 0.940 . S
H264 C281 0.939 . S
H265 C283 0.941 . S
H266 C287 0.939 . S
O267 P256 1.490 . S
H268 C284 0.939 . S
H269 C286 0.940 . S
C270 P256 1.812 . S
C270 C271 1.389 . S
C270 C275 1.391 . S
C271 H257 0.941 . S
C271 C270 1.389 . S
C271 C272 1.397 . S
C272 H258 0.939 . S
C272 C271 1.397 . S
C272 C273 1.378 . S
C273 C272 1.378 . S
C273 C274 1.378 . S
C274 H259 0.940 . S
C274 C273 1.378 . S
C274 C275 1.396 . S
C275 H260 0.940 . S
C275 C270 1.391 . S
C275 C274 1.396 . S
C276 P256 1.803 . S
C276 C277 1.378 . S
C276 C281 1.400 . S
C277 H261 0.939 . S
C277 C276 1.378 . S
C277 C278 1.361 . S
C278 H262 0.942 . S
C278 C277 1.361 . S
C278 C279 1.369 . S
C279 C278 1.369 . S
C279 C280 1.404 . S
C280 H263 0.940 . S
C280 C279 1.404 . S
C280 C281 1.389 . S
C281 H264 0.939 . S
C281 C276 1.400 . S
C281 C280 1.389 . S
C282 P256 1.819 . S
C282 C283 1.391 . S
C282 C287 1.391 . S
C283 H265 0.941 . S
C283 C282 1.391 . S
C283 C284 1.396 . S
C284 H268 0.939 . S
C284 C283 1.396 . S
C284 C285 1.397 . S
C285 C284 1.397 . S
C285 C286 1.385 . S
C286 H269 0.940 . S
C286 C285 1.385 . S
C286 C287 1.388 . S
C287 H266 0.939 . S
C287 C282 1.391 . S
C287 C286 1.388 . S
P288 O299 1.490 . S
P288 C302 1.812 . S
P288 C308 1.803 . S
P288 C314 1.819 . S
H289 C303 0.941 . S
H290 C304 0.939 . S
H291 C306 0.940 . S
H292 C307 0.940 . S
H293 C309 0.939 . S
H294 C310 0.942 . S
H295 C312 0.940 . S
H296 C313 0.939 . S
H297 C315 0.941 . S
H298 C319 0.939 . S
O299 P288 1.490 . S
H300 C316 0.939 . S
H301 C318 0.940 . S
C302 P288 1.812 . S
C302 C303 1.389 . S
C302 C307 1.391 . S
C303 H289 0.941 . S
C303 C302 1.389 . S
C303 C304 1.397 . S
C304 H290 0.939 . S
C304 C303 1.397 . S
C304 C305 1.378 . S
C305 C304 1.378 . S
C305 C306 1.378 . S
C306 H291 0.940 . S
C306 C305 1.378 . S
C306 C307 1.396 . S
C307 H292 0.940 . S
C307 C302 1.391 . S
C307 C306 1.396 . S
C308 P288 1.803 . S
C308 C309 1.378 . S
C308 C313 1.400 . S
C309 H293 0.939 . S
C309 C308 1.378 . S
C309 C310 1.361 . S
C310 H294 0.942 . S
C310 C309 1.361 . S
C310 C311 1.369 . S
C311 C310 1.369 . S
C311 C312 1.404 . S
C312 H295 0.940 . S
C312 C311 1.404 . S
C312 C313 1.389 . S
C313 H296 0.939 . S
C313 C308 1.400 . S
C313 C312 1.389 . S
C314 P288 1.819 . S
C314 C315 1.391 . S
C314 C319 1.391 . S
C315 H297 0.941 . S
C315 C314 1.391 . S
C315 C316 1.396 . S
C316 H300 0.939 . S
C316 C315 1.396 . S
C316 C317 1.397 . S
C317 C316 1.397 . S
C317 C318 1.385 . S
C318 H301 0.940 . S
C318 C317 1.385 . S
C318 C319 1.388 . S
C319 H298 0.939 . S
C319 C314 1.391 . S
C319 C318 1.388 . S
P320 O331 1.490 . S
P320 C334 1.812 . S
P320 C340 1.803 . S
P320 C346 1.819 . S
H321 C335 0.941 . S
H322 C336 0.939 . S
H323 C338 0.940 . S
H324 C339 0.940 . S
H325 C341 0.939 . S
H326 C342 0.942 . S
H327 C344 0.940 . S
H328 C345 0.939 . S
H329 C347 0.941 . S
H330 C351 0.939 . S
O331 P320 1.490 . S
H332 C348 0.939 . S
H333 C350 0.940 . S
C334 P320 1.812 . S
C334 C335 1.389 . S
C334 C339 1.391 . S
C335 H321 0.941 . S
C335 C334 1.389 . S
C335 C336 1.397 . S
C336 H322 0.939 . S
C336 C335 1.397 . S
C336 C337 1.378 . S
C337 C336 1.378 . S
C337 C338 1.378 . S
C338 H323 0.940 . S
C338 C337 1.378 . S
C338 C339 1.396 . S
C339 H324 0.940 . S
C339 C334 1.391 . S
C339 C338 1.396 . S
C340 P320 1.803 . S
C340 C341 1.378 . S
C340 C345 1.400 . S
C341 H325 0.939 . S
C341 C340 1.378 . S
C341 C342 1.361 . S
C342 H326 0.942 . S
C342 C341 1.361 . S
C342 C343 1.369 . S
C343 C342 1.369 . S
C343 C344 1.404 . S
C344 H327 0.940 . S
C344 C343 1.404 . S
C344 C345 1.389 . S
C345 H328 0.939 . S
C345 C340 1.400 . S
C345 C344 1.389 . S
C346 P320 1.819 . S
C346 C347 1.391 . S
C346 C351 1.391 . S
C347 H329 0.941 . S
C347 C346 1.391 . S
C347 C348 1.396 . S
C348 H332 0.939 . S
C348 C347 1.396 . S
C348 C349 1.397 . S
C349 C348 1.397 . S
C349 C350 1.385 . S
C350 H333 0.940 . S
C350 C349 1.385 . S
C350 C351 1.388 . S
C351 H330 0.939 . S
C351 C346 1.391 . S
C351 C350 1.388 . S
P352 O363 1.490 . S
P352 C366 1.812 . S
P352 C372 1.803 . S
P352 C378 1.819 . S
H353 C367 0.941 . S
H354 C368 0.939 . S
H355 C370 0.940 . S
H356 C371 0.940 . S
H357 C373 0.939 . S
H358 C374 0.942 . S
H359 C376 0.940 . S
H360 C377 0.939 . S
H361 C379 0.941 . S
H362 C383 0.939 . S
O363 P352 1.490 . S
H364 C380 0.939 . S
H365 C382 0.940 . S
C366 P352 1.812 . S
C366 C367 1.389 . S
C366 C371 1.391 . S
C367 H353 0.941 . S
C367 C366 1.389 . S
C367 C368 1.397 . S
C368 H354 0.939 . S
C368 C367 1.397 . S
C368 C369 1.378 . S
C369 C368 1.378 . S
C369 C370 1.378 . S
C370 H355 0.940 . S
C370 C369 1.378 . S
C370 C371 1.396 . S
C371 H356 0.940 . S
C371 C366 1.391 . S
C371 C370 1.396 . S
C372 P352 1.803 . S
C372 C373 1.378 . S
C372 C377 1.400 . S
C373 H357 0.939 . S
C373 C372 1.378 . S
C373 C374 1.361 . S
C374 H358 0.942 . S
C374 C373 1.361 . S
C374 C375 1.369 . S
C375 C374 1.369 . S
C375 C376 1.404 . S
C376 H359 0.940 . S
C376 C375 1.404 . S
C376 C377 1.389 . S
C377 H360 0.939 . S
C377 C372 1.400 . S
C377 C376 1.389 . S
C378 P352 1.819 . S
C378 C379 1.391 . S
C378 C383 1.391 . S
C379 H361 0.941 . S
C379 C378 1.391 . S
C379 C380 1.396 . S
C380 H364 0.939 . S
C380 C379 1.396 . S
C380 C381 1.397 . S
C381 C380 1.397 . S
C381 C382 1.385 . S
C382 H365 0.940 . S
C382 C381 1.385 . S
C382 C383 1.388 . S
C383 H362 0.939 . S
C383 C378 1.391 . S
C383 C382 1.388 . S
P384 O395 1.490 . S
P384 C398 1.812 . S
P384 C404 1.803 . S
P384 C410 1.819 . S
H385 C399 0.941 . S
H386 C400 0.939 . S
H387 C402 0.940 . S
H388 C403 0.940 . S
H389 C405 0.939 . S
H390 C406 0.942 . S
H391 C408 0.940 . S
H392 C409 0.939 . S
H393 C411 0.941 . S
H394 C415 0.939 . S
O395 P384 1.490 . S
H396 C412 0.939 . S
H397 C414 0.940 . S
C398 P384 1.812 . S
C398 C399 1.389 . S
C398 C403 1.391 . S
C399 H385 0.941 . S
C399 C398 1.389 . S
C399 C400 1.397 . S
C400 H386 0.939 . S
C400 C399 1.397 . S
C400 C401 1.378 . S
C401 C400 1.378 . S
C401 C402 1.378 . S
C402 H387 0.940 . S
C402 C401 1.378 . S
C402 C403 1.396 . S
C403 H388 0.940 . S
C403 C398 1.391 . S
C403 C402 1.396 . S
C404 P384 1.803 . S
C404 C405 1.378 . S
C404 C409 1.400 . S
C405 H389 0.939 . S
C405 C404 1.378 . S
C405 C406 1.361 . S
C406 H390 0.942 . S
C406 C405 1.361 . S
C406 C407 1.369 . S
C407 C406 1.369 . S
C407 C408 1.404 . S
C408 H391 0.940 . S
C408 C407 1.404 . S
C408 C409 1.389 . S
C409 H392 0.939 . S
C409 C404 1.400 . S
C409 C408 1.389 . S
C410 P384 1.819 . S
C410 C411 1.391 . S
C410 C415 1.391 . S
C411 H393 0.941 . S
C411 C410 1.391 . S
C411 C412 1.396 . S
C412 H396 0.939 . S
C412 C411 1.396 . S
C412 C413 1.397 . S
C413 C412 1.397 . S
C413 C414 1.385 . S
C414 H397 0.940 . S
C414 C413 1.385 . S
C414 C415 1.388 . S
C415 H394 0.939 . S
C415 C410 1.391 . S
C415 C414 1.388 . S
P416 O427 1.490 . S
P416 C430 1.812 . S
P416 C436 1.803 . S
P416 C442 1.819 . S
H417 C431 0.941 . S
H418 C432 0.939 . S
H419 C434 0.940 . S
H420 C435 0.940 . S
H421 C437 0.939 . S
H422 C438 0.942 . S
H423 C440 0.940 . S
H424 C441 0.939 . S
H425 C443 0.941 . S
H426 C447 0.939 . S
O427 P416 1.490 . S
H428 C444 0.939 . S
H429 C446 0.940 . S
C430 P416 1.812 . S
C430 C431 1.389 . S
C430 C435 1.391 . S
C431 H417 0.941 . S
C431 C430 1.389 . S
C431 C432 1.397 . S
C432 H418 0.939 . S
C432 C431 1.397 . S
C432 C433 1.378 . S
C433 C432 1.378 . S
C433 C434 1.378 . S
C434 H419 0.940 . S
C434 C433 1.378 . S
C434 C435 1.396 . S
C435 H420 0.940 . S
C435 C430 1.391 . S
C435 C434 1.396 . S
C436 P416 1.803 . S
C436 C437 1.378 . S
C436 C441 1.400 . S
C437 H421 0.939 . S
C437 C436 1.378 . S
C437 C438 1.361 . S
C438 H422 0.942 . S
C438 C437 1.361 . S
C438 C439 1.369 . S
C439 C438 1.369 . S
C439 C440 1.404 . S
C440 H423 0.940 . S
C440 C439 1.404 . S
C440 C441 1.389 . S
C441 H424 0.939 . S
C441 C436 1.400 . S
C441 C440 1.389 . S
C442 P416 1.819 . S
C442 C443 1.391 . S
C442 C447 1.391 . S
C443 H425 0.941 . S
C443 C442 1.391 . S
C443 C444 1.396 . S
C444 H428 0.939 . S
C444 C443 1.396 . S
C444 C445 1.397 . S
C445 C444 1.397 . S
C445 C446 1.385 . S
C446 H429 0.940 . S
C446 C445 1.385 . S
C446 C447 1.388 . S
C447 H426 0.939 . S
C447 C442 1.391 . S
C447 C446 1.388 . S
P448 O459 1.490 . S
P448 C462 1.812 . S
P448 C468 1.803 . S
P448 C474 1.819 . S
H449 C463 0.941 . S
H450 C464 0.939 . S
H451 C466 0.940 . S
H452 C467 0.940 . S
H453 C469 0.939 . S
H454 C470 0.942 . S
H455 C472 0.940 . S
H456 C473 0.939 . S
H457 C475 0.941 . S
H458 C479 0.939 . S
O459 P448 1.490 . S
H460 C476 0.939 . S
H461 C478 0.940 . S
C462 P448 1.812 . S
C462 C463 1.389 . S
C462 C467 1.391 . S
C463 H449 0.941 . S
C463 C462 1.389 . S
C463 C464 1.397 . S
C464 H450 0.939 . S
C464 C463 1.397 . S
C464 C465 1.378 . S
C465 C464 1.378 . S
C465 C466 1.378 . S
C466 H451 0.940 . S
C466 C465 1.378 . S
C466 C467 1.396 . S
C467 H452 0.940 . S
C467 C462 1.391 . S
C467 C466 1.396 . S
C468 P448 1.803 . S
C468 C469 1.378 . S
C468 C473 1.400 . S
C469 H453 0.939 . S
C469 C468 1.378 . S
C469 C470 1.361 . S
C470 H454 0.942 . S
C470 C469 1.361 . S
C470 C471 1.369 . S
C471 C470 1.369 . S
C471 C472 1.404 . S
C472 H455 0.940 . S
C472 C471 1.404 . S
C472 C473 1.389 . S
C473 H456 0.939 . S
C473 C468 1.400 . S
C473 C472 1.389 . S
C474 P448 1.819 . S
C474 C475 1.391 . S
C474 C479 1.391 . S
C475 H457 0.941 . S
C475 C474 1.391 . S
C475 C476 1.396 . S
C476 H460 0.939 . S
C476 C475 1.396 . S
C476 C477 1.397 . S
C477 C476 1.397 . S
C477 C478 1.385 . S
C478 H461 0.940 . S
C478 C477 1.385 . S
C478 C479 1.388 . S
C479 H458 0.939 . S
C479 C474 1.391 . S
C479 C478 1.388 . S
P480 O491 1.490 . S
P480 C494 1.812 . S
P480 C500 1.803 . S
P480 C506 1.819 . S
H481 C495 0.941 . S
H482 C496 0.939 . S
H483 C498 0.940 . S
H484 C499 0.940 . S
H485 C501 0.939 . S
H486 C502 0.942 . S
H487 C504 0.940 . S
H488 C505 0.939 . S
H489 C507 0.941 . S
H490 C511 0.939 . S
O491 P480 1.490 . S
H492 C508 0.939 . S
H493 C510 0.940 . S
C494 P480 1.812 . S
C494 C495 1.389 . S
C494 C499 1.391 . S
C495 H481 0.941 . S
C495 C494 1.389 . S
C495 C496 1.397 . S
C496 H482 0.939 . S
C496 C495 1.397 . S
C496 C497 1.378 . S
C497 C496 1.378 . S
C497 C498 1.378 . S
C498 H483 0.940 . S
C498 C497 1.378 . S
C498 C499 1.396 . S
C499 H484 0.940 . S
C499 C494 1.391 . S
C499 C498 1.396 . S
C500 P480 1.803 . S
C500 C501 1.378 . S
C500 C505 1.400 . S
C501 H485 0.939 . S
C501 C500 1.378 . S
C501 C502 1.361 . S
C502 H486 0.942 . S
C502 C501 1.361 . S
C502 C503 1.369 . S
C503 C502 1.369 . S
C503 C504 1.404 . S
C504 H487 0.940 . S
C504 C503 1.404 . S
C504 C505 1.389 . S
C505 H488 0.939 . S
C505 C500 1.400 . S
C505 C504 1.389 . S
C506 P480 1.819 . S
C506 C507 1.391 . S
C506 C511 1.391 . S
C507 H489 0.941 . S
C507 C506 1.391 . S
C507 C508 1.396 . S
C508 H492 0.939 . S
C508 C507 1.396 . S
C508 C509 1.397 . S
C509 C508 1.397 . S
C509 C510 1.385 . S
C510 H493 0.940 . S
C510 C509 1.385 . S
C510 C511 1.388 . S
C511 H490 0.939 . S
C511 C506 1.391 . S
C511 C510 1.388 . S
P512 O523 1.490 . S
P512 C526 1.812 . S
P512 C532 1.803 . S
P512 C538 1.819 . S
H513 C527 0.941 . S
H514 C528 0.939 . S
H515 C530 0.940 . S
H516 C531 0.940 . S
H517 C533 0.939 . S
H518 C534 0.942 . S
H519 C536 0.940 . S
H520 C537 0.939 . S
H521 C539 0.941 . S
H522 C543 0.939 . S
O523 P512 1.490 . S
H524 C540 0.939 . S
H525 C542 0.940 . S
C526 P512 1.812 . S
C526 C527 1.389 . S
C526 C531 1.391 . S
C527 H513 0.941 . S
C527 C526 1.389 . S
C527 C528 1.397 . S
C528 H514 0.939 . S
C528 C527 1.397 . S
C528 C529 1.378 . S
C529 C528 1.378 . S
C529 C530 1.378 . S
C530 H515 0.940 . S
C530 C529 1.378 . S
C530 C531 1.396 . S
C531 H516 0.940 . S
C531 C526 1.391 . S
C531 C530 1.396 . S
C532 P512 1.803 . S
C532 C533 1.378 . S
C532 C537 1.400 . S
C533 H517 0.939 . S
C533 C532 1.378 . S
C533 C534 1.361 . S
C534 H518 0.942 . S
C534 C533 1.361 . S
C534 C535 1.369 . S
C535 C534 1.369 . S
C535 C536 1.404 . S
C536 H519 0.940 . S
C536 C535 1.404 . S
C536 C537 1.389 . S
C537 H520 0.939 . S
C537 C532 1.400 . S
C537 C536 1.389 . S
C538 P512 1.819 . S
C538 C539 1.391 . S
C538 C543 1.391 . S
C539 H521 0.941 . S
C539 C538 1.391 . S
C539 C540 1.396 . S
C540 H524 0.939 . S
C540 C539 1.396 . S
C540 C541 1.397 . S
C541 C540 1.397 . S
C541 C542 1.385 . S
C542 H525 0.940 . S
C542 C541 1.385 . S
C542 C543 1.388 . S
C543 H522 0.939 . S
C543 C538 1.391 . S
C543 C542 1.388 . S
P544 O555 1.490 . S
P544 C558 1.812 . S
P544 C564 1.803 . S
P544 C570 1.819 . S
H545 C559 0.941 . S
H546 C560 0.939 . S
H547 C562 0.940 . S
H548 C563 0.940 . S
H549 C565 0.939 . S
H550 C566 0.942 . S
H551 C568 0.940 . S
H552 C569 0.939 . S
H553 C571 0.941 . S
H554 C575 0.939 . S
O555 P544 1.490 . S
H556 C572 0.939 . S
H557 C574 0.940 . S
C558 P544 1.812 . S
C558 C559 1.389 . S
C558 C563 1.391 . S
C559 H545 0.941 . S
C559 C558 1.389 . S
C559 C560 1.397 . S
C560 H546 0.939 . S
C560 C559 1.397 . S
C560 C561 1.378 . S
C561 C560 1.378 . S
C561 C562 1.378 . S
C562 H547 0.940 . S
C562 C561 1.378 . S
C562 C563 1.396 . S
C563 H548 0.940 . S
C563 C558 1.391 . S
C563 C562 1.396 . S
C564 P544 1.803 . S
C564 C565 1.378 . S
C564 C569 1.400 . S
C565 H549 0.939 . S
C565 C564 1.378 . S
C565 C566 1.361 . S
C566 H550 0.942 . S
C566 C565 1.361 . S
C566 C567 1.369 . S
C567 C566 1.369 . S
C567 C568 1.404 . S
C568 H551 0.940 . S
C568 C567 1.404 . S
C568 C569 1.389 . S
C569 H552 0.939 . S
C569 C564 1.400 . S
C569 C568 1.389 . S
C570 P544 1.819 . S
C570 C571 1.391 . S
C570 C575 1.391 . S
C571 H553 0.941 . S
C571 C570 1.391 . S
C571 C572 1.396 . S
C572 H556 0.939 . S
C572 C571 1.396 . S
C572 C573 1.397 . S
C573 C572 1.397 . S
C573 C574 1.385 . S
C574 H557 0.940 . S
C574 C573 1.385 . S
C574 C575 1.388 . S
C575 H554 0.939 . S
C575 C570 1.391 . S
C575 C574 1.388 . S
Gd576 N607 2.661 . S
Gd576 N613 2.601 . S
Gd576 O620 2.545 . S
Gd576 O621 2.606 1_545 S
Gd576 O623 2.429 . S
Gd576 O624 2.545 1_545 S
Gd576 O625 2.412 . S
Gd576 O627 2.310 1_554 S
Gd576 O628 2.324 1_545 S
Gd576 C635 2.828 . S
Gd577 N586 2.661 . S
Gd577 N590 2.601 . S
Gd577 O621 2.362 1_556 S
Gd577 O622 2.324 1_565 S
Gd577 O626 2.545 . S
Gd577 O627 2.638 1_565 S
Gd577 O629 2.429 . S
Gd577 O630 2.545 1_565 S
Gd577 O631 2.412 . S
Gd577 C644 2.828 . S
C578 C581 1.417 . S
C578 C583 1.431 . S
C578 C584 1.412 . S
C579 C582 1.437 . S
C579 C583 1.317 . S
C579 H598 0.929 . S
C580 C581 1.426 . S
C580 C582 1.413 . S
C580 N590 1.359 . S
C581 C578 1.417 . S
C581 C580 1.426 . S
C581 N586 1.350 . S
C582 C579 1.437 . S
C582 C580 1.413 . S
C582 C592 1.391 . S
C583 C578 1.431 . S
C583 C579 1.317 . S
C583 H594 0.930 . S
C584 C578 1.412 . S
C584 C585 1.355 . S
C584 H596 0.930 . S
C585 C584 1.355 . S
C585 C587 1.402 . S
C585 H597 0.930 . S
N586 Gd577 2.661 . S
N586 C581 1.350 . S
N586 C587 1.307 . S
C587 C585 1.402 . S
C587 N586 1.307 . S
C587 H588 0.930 . S
H588 C587 0.930 . S
C589 N590 1.334 . S
C589 C591 1.394 . S
C589 H593 0.930 . S
N590 Gd577 2.601 . S
N590 C580 1.359 . S
N590 C589 1.334 . S
C591 C589 1.394 . S
C591 C592 1.359 . S
C591 H603 0.930 . S
C592 C582 1.391 . S
C592 C591 1.359 . S
C592 H604 0.929 . S
H593 C589 0.930 . S
H594 C583 0.930 . S
H595 C612 0.930 . S
H596 C584 0.930 . S
H597 C585 0.930 . S
H598 C579 0.929 . S
H599 C617 0.930 . S
H600 C608 0.930 . S
H601 C609 0.930 . S
H602 C633 0.929 . S
H603 C591 0.930 . S
H604 C592 0.929 . S
H605 C634 0.930 . S
H606 C615 0.930 . S
N607 Gd576 2.661 . S
N607 C611 1.350 . S
N607 C612 1.307 . S
C608 H600 0.930 . S
C608 C609 1.355 . S
C608 C610 1.412 . S
C609 H601 0.930 . S
C609 C608 1.355 . S
C609 C612 1.402 . S
C610 C608 1.412 . S
C610 C611 1.417 . S
C610 C634 1.431 . S
C611 N607 1.350 . S
C611 C610 1.417 . S
C611 C614 1.426 . S
C612 H595 0.930 . S
C612 N607 1.307 . S
C612 C609 1.402 . S
N613 Gd576 2.601 . S
N613 C614 1.359 . S
N613 C617 1.334 . S
C614 C611 1.426 . S
C614 N613 1.359 . S
C614 C618 1.413 . S
C615 H606 0.930 . S
C615 C616 1.359 . S
C615 C617 1.394 . S
C616 C615 1.359 . S
C616 C618 1.391 . S
C616 H619 0.929 . S
C617 H599 0.930 . S
C617 N613 1.334 . S
C617 C615 1.394 . S
C618 C614 1.413 . S
C618 C616 1.391 . S
C618 C633 1.437 . S
H619 C616 0.929 . S
O620 Gd576 2.545 . S
O620 C635 1.258 . S
O621 Gd576 2.606 1_565 S
O621 Gd577 2.362 1_554 S
O621 C632 1.284 . S
O622 Gd577 2.324 1_545 S
O622 C642 1.254 . S
O623 Gd576 2.429 . S
O623 C642 1.268 1_554 S
O624 Gd576 2.545 1_565 S
O624 C632 1.250 . S
O625 Gd576 2.412 . S
O625 C635 1.252 . S
O626 Gd577 2.545 . S
O626 C644 1.258 . S
O627 Gd576 2.310 1_556 S
O627 Gd577 2.638 1_545 S
O627 C643 1.328 . S
O628 Gd576 2.324 1_565 S
O628 C651 1.254 . S
O629 Gd577 2.429 . S
O629 C651 1.268 1_556 S
O630 Gd577 2.545 1_545 S
O630 C643 1.250 . S
O631 Gd577 2.412 . S
O631 C644 1.252 . S
C632 O621 1.284 . S
C632 O624 1.250 . S
C633 H602 0.929 . S
C633 C618 1.437 . S
C633 C634 1.317 . S
C634 H605 0.930 . S
C634 C610 1.431 . S
C634 C633 1.317 . S
C635 Gd576 2.828 . S
C635 O620 1.258 . S
C635 O625 1.252 . S
C635 C636 1.497 . S
C636 C635 1.497 . S
C636 C637 1.395 . S
C636 C638 1.380 1_545 S
C637 C636 1.395 . S
C637 C640 1.398 . S
C637 H652 0.930 . S
C638 C636 1.380 1_565 S
C638 C639 1.391 . S
C638 H653 0.930 . S
C639 C638 1.391 . S
C639 C641 1.387 1_565 S
C640 C637 1.398 . S
C640 C641 1.380 . S
C640 H654 0.930 . S
C641 C639 1.387 1_545 S
C641 C640 1.380 . S
C641 H655 0.930 . S
C642 O622 1.254 . S
C642 O623 1.268 1_556 S
C643 O627 1.328 . S
C643 O630 1.250 . S
C644 Gd577 2.828 . S
C644 O626 1.258 . S
C644 O631 1.252 . S
C644 C645 1.497 . S
C645 C644 1.497 . S
C645 C646 1.395 . S
C645 C647 1.380 1_565 S
C646 C645 1.395 . S
C646 C649 1.398 . S
C646 H656 0.930 . S
C647 C645 1.380 1_545 S
C647 C648 1.391 . S
C647 H657 0.930 . S
C648 C647 1.391 . S
C648 C650 1.387 1_545 S
C649 C646 1.398 . S
C649 C650 1.380 . S
C649 H658 0.930 . S
C650 C648 1.387 1_565 S
C650 C649 1.380 . S
C650 H659 0.930 . S
C651 O628 1.254 . S
C651 O629 1.268 1_554 S
H652 C637 0.930 . S
H653 C638 0.930 . S
H654 C640 0.930 . S
H655 C641 0.930 . S
H656 C646 0.930 . S
H657 C647 0.930 . S
H658 C649 0.930 . S
H659 C650 0.930 . S
Gd660 N691 2.661 . S
Gd660 N697 2.601 . S
Gd660 O704 2.545 . S
Gd660 O705 2.606 1_655 S
Gd660 O707 2.429 . S
Gd660 O708 2.545 1_655 S
Gd660 O709 2.412 . S
Gd660 O711 2.308 1_554 S
Gd660 O712 2.324 1_655 S
Gd660 C719 2.828 . S
Gd661 N670 2.661 . S
Gd661 N674 2.601 . S
Gd661 O705 2.362 1_556 S
Gd661 O706 2.324 1_455 S
Gd661 O710 2.545 . S
Gd661 O711 2.639 1_455 S
Gd661 O713 2.429 . S
Gd661 O714 2.545 1_455 S
Gd661 O715 2.412 . S
Gd661 C728 2.828 . S
C662 C665 1.417 . S
C662 C667 1.431 . S
C662 C668 1.412 . S
C663 C666 1.437 . S
C663 C667 1.317 . S
C663 H682 0.929 . S
C664 C665 1.426 . S
C664 C666 1.413 . S
C664 N674 1.359 . S
C665 C662 1.417 . S
C665 C664 1.426 . S
C665 N670 1.350 . S
C666 C663 1.437 . S
C666 C664 1.413 . S
C666 C676 1.391 . S
C667 C662 1.431 . S
C667 C663 1.317 . S
C667 H678 0.930 . S
C668 C662 1.412 . S
C668 C669 1.355 . S
C668 H680 0.930 . S
C669 C668 1.355 . S
C669 C671 1.402 . S
C669 H681 0.930 . S
N670 Gd661 2.661 . S
N670 C665 1.350 . S
N670 C671 1.307 . S
C671 C669 1.402 . S
C671 N670 1.307 . S
C671 H672 0.930 . S
H672 C671 0.930 . S
C673 N674 1.334 . S
C673 C675 1.394 . S
C673 H677 0.930 . S
N674 Gd661 2.601 . S
N674 C664 1.359 . S
N674 C673 1.334 . S
C675 C673 1.394 . S
C675 C676 1.359 . S
C675 H687 0.930 . S
C676 C666 1.391 . S
C676 C675 1.359 . S
C676 H688 0.929 . S
H677 C673 0.930 . S
H678 C667 0.930 . S
H679 C696 0.930 . S
H680 C668 0.930 . S
H681 C669 0.930 . S
H682 C663 0.929 . S
H683 C701 0.930 . S
H684 C692 0.930 . S
H685 C693 0.930 . S
H686 C717 0.929 . S
H687 C675 0.930 . S
H688 C676 0.929 . S
H689 C718 0.930 . S
H690 C699 0.930 . S
N691 Gd660 2.661 . S
N691 C695 1.350 . S
N691 C696 1.307 . S
C692 H684 0.930 . S
C692 C693 1.355 . S
C692 C694 1.412 . S
C693 H685 0.930 . S
C693 C692 1.355 . S
C693 C696 1.402 . S
C694 C692 1.412 . S
C694 C695 1.417 . S
C694 C718 1.431 . S
C695 N691 1.350 . S
C695 C694 1.417 . S
C695 C698 1.426 . S
C696 H679 0.930 . S
C696 N691 1.307 . S
C696 C693 1.402 . S
N697 Gd660 2.601 . S
N697 C698 1.359 . S
N697 C701 1.334 . S
C698 C695 1.426 . S
C698 N697 1.359 . S
C698 C702 1.413 . S
C699 H690 0.930 . S
C699 C700 1.359 . S
C699 C701 1.394 . S
C700 C699 1.359 . S
C700 C702 1.391 . S
C700 H703 0.929 . S
C701 H683 0.930 . S
C701 N697 1.334 . S
C701 C699 1.394 . S
C702 C698 1.413 . S
C702 C700 1.391 . S
C702 C717 1.437 . S
H703 C700 0.929 . S
O704 Gd660 2.545 . S
O704 C719 1.258 . S
O705 Gd660 2.606 1_455 S
O705 Gd661 2.362 1_554 S
O705 C716 1.284 . S
O706 Gd661 2.324 1_655 S
O706 C726 1.254 . S
O707 Gd660 2.429 . S
O707 C726 1.268 1_554 S
O708 Gd660 2.545 1_455 S
O708 C716 1.250 . S
O709 Gd660 2.412 . S
O709 C719 1.252 . S
O710 Gd661 2.545 . S
O710 C728 1.258 . S
O711 Gd660 2.308 1_556 S
O711 Gd661 2.639 1_655 S
O711 C727 1.329 . S
O712 Gd660 2.324 1_455 S
O712 C735 1.254 . S
O713 Gd661 2.429 . S
O713 C735 1.268 1_556 S
O714 Gd661 2.545 1_655 S
O714 C727 1.250 . S
O715 Gd661 2.412 . S
O715 C728 1.252 . S
C716 O705 1.284 . S
C716 O708 1.250 . S
C717 H686 0.929 . S
C717 C702 1.437 . S
C717 C718 1.317 . S
C718 H689 0.930 . S
C718 C694 1.431 . S
C718 C717 1.317 . S
C719 Gd660 2.828 . S
C719 O704 1.258 . S
C719 O709 1.252 . S
C719 C720 1.497 . S
C720 C719 1.497 . S
C720 C721 1.395 . S
C720 C722 1.380 1_655 S
C721 C720 1.395 . S
C721 C724 1.398 . S
C721 H736 0.930 . S
C722 C720 1.380 1_455 S
C722 C723 1.391 . S
C722 H737 0.930 . S
C723 C722 1.391 . S
C723 C725 1.387 1_455 S
C724 C721 1.398 . S
C724 C725 1.380 . S
C724 H738 0.930 . S
C725 C723 1.387 1_655 S
C725 C724 1.380 . S
C725 H739 0.930 . S
C726 O706 1.254 . S
C726 O707 1.268 1_556 S
C727 O711 1.329 . S
C727 O714 1.250 . S
C728 Gd661 2.828 . S
C728 O710 1.258 . S
C728 O715 1.252 . S
C728 C729 1.497 . S
C729 C728 1.497 . S
C729 C730 1.395 . S
C729 C731 1.380 1_455 S
C730 C729 1.395 . S
C730 C733 1.398 . S
C730 H740 0.930 . S
C731 C729 1.380 1_655 S
C731 C732 1.391 . S
C731 H741 0.930 . S
C732 C731 1.391 . S
C732 C734 1.387 1_655 S
C733 C730 1.398 . S
C733 C734 1.380 . S
C733 H742 0.930 . S
C734 C732 1.387 1_455 S
C734 C733 1.380 . S
C734 H743 0.930 . S
C735 O712 1.254 . S
C735 O713 1.268 1_554 S
H736 C721 0.930 . S
H737 C722 0.930 . S
H738 C724 0.930 . S
H739 C725 0.930 . S
H740 C730 0.930 . S
H741 C731 0.930 . S
H742 C733 0.930 . S
H743 C734 0.930 . S
Gd744 N775 2.661 . S
Gd744 N781 2.601 . S
Gd744 O788 2.545 . S
Gd744 O789 2.606 . S
Gd744 O791 2.429 . S
Gd744 O792 2.545 . S
Gd744 O793 2.412 . S
Gd744 O795 2.362 1_556 S
Gd744 O796 2.324 . S
Gd744 C803 2.828 . S
Gd745 N754 2.661 . S
Gd745 N758 2.601 . S
Gd745 O789 2.362 1_554 S
Gd745 O790 2.324 . S
Gd745 O794 2.545 . S
Gd745 O795 2.606 . S
Gd745 O797 2.429 . S
Gd745 O798 2.545 . S
Gd745 O799 2.412 . S
Gd745 C812 2.828 . S
C746 C749 1.417 . S
C746 C751 1.431 . S
C746 C752 1.412 . S
C747 C750 1.437 . S
C747 C751 1.317 . S
C747 H766 0.929 . S
C748 C749 1.426 . S
C748 C750 1.413 . S
C748 N758 1.359 . S
C749 C746 1.417 . S
C749 C748 1.426 . S
C749 N754 1.350 . S
C750 C747 1.437 . S
C750 C748 1.413 . S
C750 C760 1.391 . S
C751 C746 1.431 . S
C751 C747 1.317 . S
C751 H762 0.930 . S
C752 C746 1.412 . S
C752 C753 1.355 . S
C752 H764 0.930 . S
C753 C752 1.355 . S
C753 C755 1.402 . S
C753 H765 0.930 . S
N754 Gd745 2.661 . S
N754 C749 1.350 . S
N754 C755 1.307 . S
C755 C753 1.402 . S
C755 N754 1.307 . S
C755 H756 0.930 . S
H756 C755 0.930 . S
C757 N758 1.334 . S
C757 C759 1.394 . S
C757 H761 0.930 . S
N758 Gd745 2.601 . S
N758 C748 1.359 . S
N758 C757 1.334 . S
C759 C757 1.394 . S
C759 C760 1.359 . S
C759 H771 0.930 . S
C760 C750 1.391 . S
C760 C759 1.359 . S
C760 H772 0.929 . S
H761 C757 0.930 . S
H762 C751 0.930 . S
H763 C780 0.930 . S
H764 C752 0.930 . S
H765 C753 0.930 . S
H766 C747 0.929 . S
H767 C785 0.930 . S
H768 C776 0.930 . S
H769 C777 0.930 . S
H770 C801 0.929 . S
H771 C759 0.930 . S
H772 C760 0.929 . S
H773 C802 0.930 . S
H774 C783 0.930 . S
N775 Gd744 2.661 . S
N775 C779 1.350 . S
N775 C780 1.307 . S
C776 H768 0.930 . S
C776 C777 1.355 . S
C776 C778 1.412 . S
C777 H769 0.930 . S
C777 C776 1.355 . S
C777 C780 1.402 . S
C778 C776 1.412 . S
C778 C779 1.417 . S
C778 C802 1.431 . S
C779 N775 1.350 . S
C779 C778 1.417 . S
C779 C782 1.426 . S
C780 H763 0.930 . S
C780 N775 1.307 . S
C780 C777 1.402 . S
N781 Gd744 2.601 . S
N781 C782 1.359 . S
N781 C785 1.334 . S
C782 C779 1.426 . S
C782 N781 1.359 . S
C782 C786 1.413 . S
C783 H774 0.930 . S
C783 C784 1.359 . S
C783 C785 1.394 . S
C784 C783 1.359 . S
C784 C786 1.391 . S
C784 H787 0.929 . S
C785 H767 0.930 . S
C785 N781 1.334 . S
C785 C783 1.394 . S
C786 C782 1.413 . S
C786 C784 1.391 . S
C786 C801 1.437 . S
H787 C784 0.929 . S
O788 Gd744 2.545 . S
O788 C803 1.258 . S
O789 Gd744 2.606 . S
O789 Gd745 2.362 1_556 S
O789 C800 1.284 . S
O790 Gd745 2.324 . S
O790 C810 1.254 . S
O791 Gd744 2.429 . S
O791 C810 1.268 1_556 S
O792 Gd744 2.545 . S
O792 C800 1.250 . S
O793 Gd744 2.412 . S
O793 C803 1.252 . S
O794 Gd745 2.545 . S
O794 C812 1.258 . S
O795 Gd744 2.362 1_554 S
O795 Gd745 2.606 . S
O795 C811 1.284 . S
O796 Gd744 2.324 . S
O796 C819 1.254 . S
O797 Gd745 2.429 . S
O797 C819 1.268 1_554 S
O798 Gd745 2.545 . S
O798 C811 1.250 . S
O799 Gd745 2.412 . S
O799 C812 1.252 . S
C800 O789 1.284 . S
C800 O792 1.250 . S
C801 H770 0.929 . S
C801 C786 1.437 . S
C801 C802 1.317 . S
C802 H773 0.930 . S
C802 C778 1.431 . S
C802 C801 1.317 . S
C803 Gd744 2.828 . S
C803 O788 1.258 . S
C803 O793 1.252 . S
C803 C804 1.497 . S
C804 C803 1.497 . S
C804 C805 1.395 . S
C804 C806 1.380 . S
C805 C804 1.395 . S
C805 C808 1.398 . S
C805 H820 0.930 . S
C806 C804 1.380 . S
C806 C807 1.391 . S
C806 H821 0.930 . S
C807 C806 1.391 . S
C807 C809 1.387 . S
C808 C805 1.398 . S
C808 C809 1.380 . S
C808 H822 0.930 . S
C809 C807 1.387 . S
C809 C808 1.380 . S
C809 H823 0.930 . S
C810 O790 1.254 . S
C810 O791 1.268 1_554 S
C811 O795 1.284 . S
C811 O798 1.250 . S
C812 Gd745 2.828 . S
C812 O794 1.258 . S
C812 O799 1.252 . S
C812 C813 1.497 . S
C813 C812 1.497 . S
C813 C814 1.395 . S
C813 C815 1.380 . S
C814 C813 1.395 . S
C814 C817 1.398 . S
C814 H824 0.930 . S
C815 C813 1.380 . S
C815 C816 1.391 . S
C815 H825 0.930 . S
C816 C815 1.391 . S
C816 C818 1.387 . S
C817 C814 1.398 . S
C817 C818 1.380 . S
C817 H826 0.930 . S
C818 C816 1.387 . S
C818 C817 1.380 . S
C818 H827 0.930 . S
C819 O796 1.254 . S
C819 O797 1.268 1_556 S
H820 C805 0.930 . S
H821 C806 0.930 . S
H822 C808 0.930 . S
H823 C809 0.930 . S
H824 C814 0.930 . S
H825 C815 0.930 . S
H826 C817 0.930 . S
H827 C818 0.930 . S
Gd828 N859 2.661 . S
Gd828 N865 2.601 . S
Gd828 O872 2.545 . S
Gd828 O873 2.606 . S
Gd828 O875 2.429 . S
Gd828 O876 2.545 . S
Gd828 O877 2.412 . S
Gd828 O879 2.362 . S
Gd828 O880 2.324 . S
Gd828 C887 2.828 . S
Gd829 N838 2.661 . S
Gd829 N842 2.601 . S
Gd829 O873 2.362 . S
Gd829 O874 2.324 . S
Gd829 O878 2.545 . S
Gd829 O879 2.606 . S
Gd829 O881 2.429 . S
Gd829 O882 2.545 . S
Gd829 O883 2.412 . S
Gd829 C896 2.828 . S
C830 C833 1.417 . S
C830 C835 1.431 . S
C830 C836 1.412 . S
C831 C834 1.437 . S
C831 C835 1.317 . S
C831 H850 0.929 . S
C832 C833 1.426 . S
C832 C834 1.413 . S
C832 N842 1.359 . S
C833 C830 1.417 . S
C833 C832 1.426 . S
C833 N838 1.350 . S
C834 C831 1.437 . S
C834 C832 1.413 . S
C834 C844 1.391 . S
C835 C830 1.431 . S
C835 C831 1.317 . S
C835 H846 0.930 . S
C836 C830 1.412 . S
C836 C837 1.355 . S
C836 H848 0.930 . S
C837 C836 1.355 . S
C837 C839 1.402 . S
C837 H849 0.930 . S
N838 Gd829 2.661 . S
N838 C833 1.350 . S
N838 C839 1.307 . S
C839 C837 1.402 . S
C839 N838 1.307 . S
C839 H840 0.930 . S
H840 C839 0.930 . S
C841 N842 1.334 . S
C841 C843 1.394 . S
C841 H845 0.930 . S
N842 Gd829 2.601 . S
N842 C832 1.359 . S
N842 C841 1.334 . S
C843 C841 1.394 . S
C843 C844 1.359 . S
C843 H855 0.930 . S
C844 C834 1.391 . S
C844 C843 1.359 . S
C844 H856 0.929 . S
H845 C841 0.930 . S
H846 C835 0.930 . S
H847 C864 0.930 . S
H848 C836 0.930 . S
H849 C837 0.930 . S
H850 C831 0.929 . S
H851 C869 0.930 . S
H852 C860 0.930 . S
H853 C861 0.930 . S
H854 C885 0.929 . S
H855 C843 0.930 . S
H856 C844 0.929 . S
H857 C886 0.930 . S
H858 C867 0.930 . S
N859 Gd828 2.661 . S
N859 C863 1.350 . S
N859 C864 1.307 . S
C860 H852 0.930 . S
C860 C861 1.355 . S
C860 C862 1.412 . S
C861 H853 0.930 . S
C861 C860 1.355 . S
C861 C864 1.402 . S
C862 C860 1.412 . S
C862 C863 1.417 . S
C862 C886 1.431 . S
C863 N859 1.350 . S
C863 C862 1.417 . S
C863 C866 1.426 . S
C864 H847 0.930 . S
C864 N859 1.307 . S
C864 C861 1.402 . S
N865 Gd828 2.601 . S
N865 C866 1.359 . S
N865 C869 1.334 . S
C866 C863 1.426 . S
C866 N865 1.359 . S
C866 C870 1.413 . S
C867 H858 0.930 . S
C867 C868 1.359 . S
C867 C869 1.394 . S
C868 C867 1.359 . S
C868 C870 1.391 . S
C868 H871 0.929 . S
C869 H851 0.930 . S
C869 N865 1.334 . S
C869 C867 1.394 . S
C870 C866 1.413 . S
C870 C868 1.391 . S
C870 C885 1.437 . S
H871 C868 0.929 . S
O872 Gd828 2.545 . S
O872 C887 1.258 . S
O873 Gd828 2.606 . S
O873 Gd829 2.362 . S
O873 C884 1.284 . S
O874 Gd829 2.324 . S
O874 C894 1.254 . S
O875 Gd828 2.429 . S
O875 C894 1.268 . S
O876 Gd828 2.545 . S
O876 C884 1.250 . S
O877 Gd828 2.412 . S
O877 C887 1.252 . S
O878 Gd829 2.545 . S
O878 C896 1.258 . S
O879 Gd828 2.362 . S
O879 Gd829 2.606 . S
O879 C895 1.284 . S
O880 Gd828 2.324 . S
O880 C903 1.254 . S
O881 Gd829 2.429 . S
O881 C903 1.268 . S
O882 Gd829 2.545 . S
O882 C895 1.250 . S
O883 Gd829 2.412 . S
O883 C896 1.252 . S
C884 O873 1.284 . S
C884 O876 1.250 . S
C885 H854 0.929 . S
C885 C870 1.437 . S
C885 C886 1.317 . S
C886 H857 0.930 . S
C886 C862 1.431 . S
C886 C885 1.317 . S
C887 Gd828 2.828 . S
C887 O872 1.258 . S
C887 O877 1.252 . S
C887 C888 1.497 . S
C888 C887 1.497 . S
C888 C889 1.395 . S
C888 C890 1.380 . S
C889 C888 1.395 . S
C889 C892 1.398 . S
C889 H904 0.930 . S
C890 C888 1.380 . S
C890 C891 1.391 . S
C890 H905 0.930 . S
C891 C890 1.391 . S
C891 C893 1.387 . S
C892 C889 1.398 . S
C892 C893 1.380 . S
C892 H906 0.930 . S
C893 C891 1.387 . S
C893 C892 1.380 . S
C893 H907 0.930 . S
C894 O874 1.254 . S
C894 O875 1.268 . S
C895 O879 1.284 . S
C895 O882 1.250 . S
C896 Gd829 2.828 . S
C896 O878 1.258 . S
C896 O883 1.252 . S
C896 C897 1.497 . S
C897 C896 1.497 . S
C897 C898 1.395 . S
C897 C899 1.380 . S
C898 C897 1.395 . S
C898 C901 1.398 . S
C898 H908 0.930 . S
C899 C897 1.380 . S
C899 C900 1.391 . S
C899 H909 0.930 . S
C900 C899 1.391 . S
C900 C902 1.387 . S
C901 C898 1.398 . S
C901 C902 1.380 . S
C901 H910 0.930 . S
C902 C900 1.387 . S
C902 C901 1.380 . S
C902 H911 0.930 . S
C903 O880 1.254 . S
C903 O881 1.268 . S
H904 C889 0.930 . S
H905 C890 0.930 . S
H906 C892 0.930 . S
H907 C893 0.930 . S
H908 C898 0.930 . S
H909 C899 0.930 . S
H910 C901 0.930 . S
H911 C902 0.930 . S
Gd912 N943 2.661 . S
Gd912 N949 2.601 . S
Gd912 O956 2.545 . S
Gd912 O957 2.606 . S
Gd912 O959 2.429 . S
Gd912 O960 2.545 . S
Gd912 O961 2.412 . S
Gd912 O963 2.362 . S
Gd912 O964 2.324 . S
Gd912 C971 2.828 . S
Gd913 N922 2.661 . S
Gd913 N926 2.601 . S
Gd913 O957 2.362 . S
Gd913 O958 2.324 . S
Gd913 O962 2.545 . S
Gd913 O963 2.606 . S
Gd913 O965 2.429 . S
Gd913 O966 2.545 . S
Gd913 O967 2.412 . S
Gd913 C980 2.828 . S
C914 C917 1.417 . S
C914 C919 1.431 . S
C914 C920 1.412 . S
C915 C918 1.437 . S
C915 C919 1.317 . S
C915 H934 0.929 . S
C916 C917 1.426 . S
C916 C918 1.413 . S
C916 N926 1.359 . S
C917 C914 1.417 . S
C917 C916 1.426 . S
C917 N922 1.350 . S
C918 C915 1.437 . S
C918 C916 1.413 . S
C918 C928 1.391 . S
C919 C914 1.431 . S
C919 C915 1.317 . S
C919 H930 0.930 . S
C920 C914 1.412 . S
C920 C921 1.355 . S
C920 H932 0.930 . S
C921 C920 1.355 . S
C921 C923 1.402 . S
C921 H933 0.930 . S
N922 Gd913 2.661 . S
N922 C917 1.350 . S
N922 C923 1.307 . S
C923 C921 1.402 . S
C923 N922 1.307 . S
C923 H924 0.930 . S
H924 C923 0.930 . S
C925 N926 1.334 . S
C925 C927 1.394 . S
C925 H929 0.930 . S
N926 Gd913 2.601 . S
N926 C916 1.359 . S
N926 C925 1.334 . S
C927 C925 1.394 . S
C927 C928 1.359 . S
C927 H939 0.930 . S
C928 C918 1.391 . S
C928 C927 1.359 . S
C928 H940 0.929 . S
H929 C925 0.930 . S
H930 C919 0.930 . S
H931 C948 0.930 . S
H932 C920 0.930 . S
H933 C921 0.930 . S
H934 C915 0.929 . S
H935 C953 0.930 . S
H936 C944 0.930 . S
H937 C945 0.930 . S
H938 C969 0.929 . S
H939 C927 0.930 . S
H940 C928 0.929 . S
H941 C970 0.930 . S
H942 C951 0.930 . S
N943 Gd912 2.661 . S
N943 C947 1.350 . S
N943 C948 1.307 . S
C944 H936 0.930 . S
C944 C945 1.355 . S
C944 C946 1.412 . S
C945 H937 0.930 . S
C945 C944 1.355 . S
C945 C948 1.402 . S
C946 C944 1.412 . S
C946 C947 1.417 . S
C946 C970 1.431 . S
C947 N943 1.350 . S
C947 C946 1.417 . S
C947 C950 1.426 . S
C948 H931 0.930 . S
C948 N943 1.307 . S
C948 C945 1.402 . S
N949 Gd912 2.601 . S
N949 C950 1.359 . S
N949 C953 1.334 . S
C950 C947 1.426 . S
C950 N949 1.359 . S
C950 C954 1.413 . S
C951 H942 0.930 . S
C951 C952 1.359 . S
C951 C953 1.394 . S
C952 C951 1.359 . S
C952 C954 1.391 . S
C952 H955 0.929 . S
C953 H935 0.930 . S
C953 N949 1.334 . S
C953 C951 1.394 . S
C954 C950 1.413 . S
C954 C952 1.391 . S
C954 C969 1.437 . S
H955 C952 0.929 . S
O956 Gd912 2.545 . S
O956 C971 1.258 . S
O957 Gd912 2.606 . S
O957 Gd913 2.362 . S
O957 C968 1.284 . S
O958 Gd913 2.324 . S
O958 C978 1.254 . S
O959 Gd912 2.429 . S
O959 C978 1.268 . S
O960 Gd912 2.545 . S
O960 C968 1.250 . S
O961 Gd912 2.412 . S
O961 C971 1.252 . S
O962 Gd913 2.545 . S
O962 C980 1.258 . S
O963 Gd912 2.362 . S
O963 Gd913 2.606 . S
O963 C979 1.284 . S
O964 Gd912 2.324 . S
O964 C987 1.254 . S
O965 Gd913 2.429 . S
O965 C987 1.268 . S
O966 Gd913 2.545 . S
O966 C979 1.250 . S
O967 Gd913 2.412 . S
O967 C980 1.252 . S
C968 O957 1.284 . S
C968 O960 1.250 . S
C969 H938 0.929 . S
C969 C954 1.437 . S
C969 C970 1.317 . S
C970 H941 0.930 . S
C970 C946 1.431 . S
C970 C969 1.317 . S
C971 Gd912 2.828 . S
C971 O956 1.258 . S
C971 O961 1.252 . S
C971 C972 1.497 . S
C972 C971 1.497 . S
C972 C973 1.395 . S
C972 C974 1.380 . S
C973 C972 1.395 . S
C973 C976 1.398 . S
C973 H988 0.930 . S
C974 C972 1.380 . S
C974 C975 1.391 . S
C974 H989 0.930 . S
C975 C974 1.391 . S
C975 C977 1.387 . S
C976 C973 1.398 . S
C976 C977 1.380 . S
C976 H990 0.930 . S
C977 C975 1.387 . S
C977 C976 1.380 . S
C977 H991 0.930 . S
C978 O958 1.254 . S
C978 O959 1.268 . S
C979 O963 1.284 . S
C979 O966 1.250 . S
C980 Gd913 2.828 . S
C980 O962 1.258 . S
C980 O967 1.252 . S
C980 C981 1.497 . S
C981 C980 1.497 . S
C981 C982 1.395 . S
C981 C983 1.380 . S
C982 C981 1.395 . S
C982 C985 1.398 . S
C982 H992 0.930 . S
C983 C981 1.380 . S
C983 C984 1.391 . S
C983 H993 0.930 . S
C984 C983 1.391 . S
C984 C986 1.387 . S
C985 C982 1.398 . S
C985 C986 1.380 . S
C985 H994 0.930 . S
C986 C984 1.387 . S
C986 C985 1.380 . S
C986 H995 0.930 . S
C987 O964 1.254 . S
C987 O965 1.268 . S
H988 C973 0.930 . S
H989 C974 0.930 . S
H990 C976 0.930 . S
H991 C977 0.930 . S
H992 C982 0.930 . S
H993 C983 0.930 . S
H994 C985 0.930 . S
H995 C986 0.930 . S
Gd996 N1027 2.661 . S
Gd996 N1033 2.601 . S
Gd996 O1040 2.545 . S
Gd996 O1041 2.606 . S
Gd996 O1043 2.429 . S
Gd996 O1044 2.545 . S
Gd996 O1045 2.412 . S
Gd996 O1047 2.362 . S
Gd996 O1048 2.324 . S
Gd996 C1055 2.828 . S
Gd997 N1006 2.661 . S
Gd997 N1010 2.601 . S
Gd997 O1041 2.362 . S
Gd997 O1042 2.324 . S
Gd997 O1046 2.545 . S
Gd997 O1047 2.606 . S
Gd997 O1049 2.429 . S
Gd997 O1050 2.545 . S
Gd997 O1051 2.412 . S
Gd997 C1064 2.828 . S
C998 C1001 1.417 . S
C998 C1003 1.431 . S
C998 C1004 1.412 . S
C999 C1002 1.437 . S
C999 C1003 1.317 . S
C999 H1018 0.929 . S
C1000 C1001 1.426 . S
C1000 C1002 1.413 . S
C1000 N1010 1.359 . S
C1001 C998 1.417 . S
C1001 C1000 1.426 . S
C1001 N1006 1.350 . S
C1002 C999 1.437 . S
C1002 C1000 1.413 . S
C1002 C1012 1.391 . S
C1003 C998 1.431 . S
C1003 C999 1.317 . S
C1003 H1014 0.930 . S
C1004 C998 1.412 . S
C1004 C1005 1.355 . S
C1004 H1016 0.930 . S
C1005 C1004 1.355 . S
C1005 C1007 1.402 . S
C1005 H1017 0.930 . S
N1006 Gd997 2.661 . S
N1006 C1001 1.350 . S
N1006 C1007 1.307 . S
C1007 C1005 1.402 . S
C1007 N1006 1.307 . S
C1007 H1008 0.930 . S
H1008 C1007 0.930 . S
C1009 N1010 1.334 . S
C1009 C1011 1.394 . S
C1009 H1013 0.930 . S
N1010 Gd997 2.601 . S
N1010 C1000 1.359 . S
N1010 C1009 1.334 . S
C1011 C1009 1.394 . S
C1011 C1012 1.359 . S
C1011 H1023 0.930 . S
C1012 C1002 1.391 . S
C1012 C1011 1.359 . S
C1012 H1024 0.929 . S
H1013 C1009 0.930 . S
H1014 C1003 0.930 . S
H1015 C1032 0.930 . S
H1016 C1004 0.930 . S
H1017 C1005 0.930 . S
H1018 C999 0.929 . S
H1019 C1037 0.930 . S
H1020 C1028 0.930 . S
H1021 C1029 0.930 . S
H1022 C1053 0.929 . S
H1023 C1011 0.930 . S
H1024 C1012 0.929 . S
H1025 C1054 0.930 . S
H1026 C1035 0.930 . S
N1027 Gd996 2.661 . S
N1027 C1031 1.350 . S
N1027 C1032 1.307 . S
C1028 H1020 0.930 . S
C1028 C1029 1.355 . S
C1028 C1030 1.412 . S
C1029 H1021 0.930 . S
C1029 C1028 1.355 . S
C1029 C1032 1.402 . S
C1030 C1028 1.412 . S
C1030 C1031 1.417 . S
C1030 C1054 1.431 . S
C1031 N1027 1.350 . S
C1031 C1030 1.417 . S
C1031 C1034 1.426 . S
C1032 H1015 0.930 . S
C1032 N1027 1.307 . S
C1032 C1029 1.402 . S
N1033 Gd996 2.601 . S
N1033 C1034 1.359 . S
N1033 C1037 1.334 . S
C1034 C1031 1.426 . S
C1034 N1033 1.359 . S
C1034 C1038 1.413 . S
C1035 H1026 0.930 . S
C1035 C1036 1.359 . S
C1035 C1037 1.394 . S
C1036 C1035 1.359 . S
C1036 C1038 1.391 . S
C1036 H1039 0.929 . S
C1037 H1019 0.930 . S
C1037 N1033 1.334 . S
C1037 C1035 1.394 . S
C1038 C1034 1.413 . S
C1038 C1036 1.391 . S
C1038 C1053 1.437 . S
H1039 C1036 0.929 . S
O1040 Gd996 2.545 . S
O1040 C1055 1.258 . S
O1041 Gd996 2.606 . S
O1041 Gd997 2.362 . S
O1041 C1052 1.284 . S
O1042 Gd997 2.324 . S
O1042 C1062 1.254 . S
O1043 Gd996 2.429 . S
O1043 C1062 1.268 . S
O1044 Gd996 2.545 . S
O1044 C1052 1.250 . S
O1045 Gd996 2.412 . S
O1045 C1055 1.252 . S
O1046 Gd997 2.545 . S
O1046 C1064 1.258 . S
O1047 Gd996 2.362 . S
O1047 Gd997 2.606 . S
O1047 C1063 1.284 . S
O1048 Gd996 2.324 . S
O1048 C1071 1.254 . S
O1049 Gd997 2.429 . S
O1049 C1071 1.268 . S
O1050 Gd997 2.545 . S
O1050 C1063 1.250 . S
O1051 Gd997 2.412 . S
O1051 C1064 1.252 . S
C1052 O1041 1.284 . S
C1052 O1044 1.250 . S
C1053 H1022 0.929 . S
C1053 C1038 1.437 . S
C1053 C1054 1.317 . S
C1054 H1025 0.930 . S
C1054 C1030 1.431 . S
C1054 C1053 1.317 . S
C1055 Gd996 2.828 . S
C1055 O1040 1.258 . S
C1055 O1045 1.252 . S
C1055 C1056 1.497 . S
C1056 C1055 1.497 . S
C1056 C1057 1.395 . S
C1056 C1058 1.380 . S
C1057 C1056 1.395 . S
C1057 C1060 1.398 . S
C1057 H1072 0.930 . S
C1058 C1056 1.380 . S
C1058 C1059 1.391 . S
C1058 H1073 0.930 . S
C1059 C1058 1.391 . S
C1059 C1061 1.387 . S
C1060 C1057 1.398 . S
C1060 C1061 1.380 . S
C1060 H1074 0.930 . S
C1061 C1059 1.387 . S
C1061 C1060 1.380 . S
C1061 H1075 0.930 . S
C1062 O1042 1.254 . S
C1062 O1043 1.268 . S
C1063 O1047 1.284 . S
C1063 O1050 1.250 . S
C1064 Gd997 2.828 . S
C1064 O1046 1.258 . S
C1064 O1051 1.252 . S
C1064 C1065 1.497 . S
C1065 C1064 1.497 . S
C1065 C1066 1.395 . S
C1065 C1067 1.380 . S
C1066 C1065 1.395 . S
C1066 C1069 1.398 . S
C1066 H1076 0.930 . S
C1067 C1065 1.380 . S
C1067 C1068 1.391 . S
C1067 H1077 0.930 . S
C1068 C1067 1.391 . S
C1068 C1070 1.387 . S
C1069 C1066 1.398 . S
C1069 C1070 1.380 . S
C1069 H1078 0.930 . S
C1070 C1068 1.387 . S
C1070 C1069 1.380 . S
C1070 H1079 0.930 . S
C1071 O1048 1.254 . S
C1071 O1049 1.268 . S
H1072 C1057 0.930 . S
H1073 C1058 0.930 . S
H1074 C1060 0.930 . S
H1075 C1061 0.930 . S
H1076 C1066 0.930 . S
H1077 C1067 0.930 . S
H1078 C1069 0.930 . S
H1079 C1070 0.930 . S
Gd1080 N1111 2.661 . S
Gd1080 N1117 2.601 . S
Gd1080 O1124 2.545 . S
Gd1080 O1125 2.606 . S
Gd1080 O1127 2.429 . S
Gd1080 O1128 2.545 . S
Gd1080 O1129 2.412 . S
Gd1080 O1131 2.362 . S
Gd1080 O1132 2.324 . S
Gd1080 C1139 2.828 . S
Gd1081 N1090 2.661 . S
Gd1081 N1094 2.601 . S
Gd1081 O1125 2.362 . S
Gd1081 O1126 2.324 . S
Gd1081 O1130 2.545 . S
Gd1081 O1131 2.606 . S
Gd1081 O1133 2.429 . S
Gd1081 O1134 2.545 . S
Gd1081 O1135 2.412 . S
Gd1081 C1148 2.828 . S
C1082 C1085 1.417 . S
C1082 C1087 1.431 . S
C1082 C1088 1.412 . S
C1083 C1086 1.437 . S
C1083 C1087 1.317 . S
C1083 H1102 0.929 . S
C1084 C1085 1.426 . S
C1084 C1086 1.413 . S
C1084 N1094 1.359 . S
C1085 C1082 1.417 . S
C1085 C1084 1.426 . S
C1085 N1090 1.350 . S
C1086 C1083 1.437 . S
C1086 C1084 1.413 . S
C1086 C1096 1.391 . S
C1087 C1082 1.431 . S
C1087 C1083 1.317 . S
C1087 H1098 0.930 . S
C1088 C1082 1.412 . S
C1088 C1089 1.355 . S
C1088 H1100 0.930 . S
C1089 C1088 1.355 . S
C1089 C1091 1.402 . S
C1089 H1101 0.930 . S
N1090 Gd1081 2.661 . S
N1090 C1085 1.350 . S
N1090 C1091 1.307 . S
C1091 C1089 1.402 . S
C1091 N1090 1.307 . S
C1091 H1092 0.930 . S
H1092 C1091 0.930 . S
C1093 N1094 1.334 . S
C1093 C1095 1.394 . S
C1093 H1097 0.930 . S
N1094 Gd1081 2.601 . S
N1094 C1084 1.359 . S
N1094 C1093 1.334 . S
C1095 C1093 1.394 . S
C1095 C1096 1.359 . S
C1095 H1107 0.930 . S
C1096 C1086 1.391 . S
C1096 C1095 1.359 . S
C1096 H1108 0.929 . S
H1097 C1093 0.930 . S
H1098 C1087 0.930 . S
H1099 C1116 0.930 . S
H1100 C1088 0.930 . S
H1101 C1089 0.930 . S
H1102 C1083 0.929 . S
H1103 C1121 0.930 . S
H1104 C1112 0.930 . S
H1105 C1113 0.930 . S
H1106 C1137 0.929 . S
H1107 C1095 0.930 . S
H1108 C1096 0.929 . S
H1109 C1138 0.930 . S
H1110 C1119 0.930 . S
N1111 Gd1080 2.661 . S
N1111 C1115 1.350 . S
N1111 C1116 1.307 . S
C1112 H1104 0.930 . S
C1112 C1113 1.355 . S
C1112 C1114 1.412 . S
C1113 H1105 0.930 . S
C1113 C1112 1.355 . S
C1113 C1116 1.402 . S
C1114 C1112 1.412 . S
C1114 C1115 1.417 . S
C1114 C1138 1.431 . S
C1115 N1111 1.350 . S
C1115 C1114 1.417 . S
C1115 C1118 1.426 . S
C1116 H1099 0.930 . S
C1116 N1111 1.307 . S
C1116 C1113 1.402 . S
N1117 Gd1080 2.601 . S
N1117 C1118 1.359 . S
N1117 C1121 1.334 . S
C1118 C1115 1.426 . S
C1118 N1117 1.359 . S
C1118 C1122 1.413 . S
C1119 H1110 0.930 . S
C1119 C1120 1.359 . S
C1119 C1121 1.394 . S
C1120 C1119 1.359 . S
C1120 C1122 1.391 . S
C1120 H1123 0.929 . S
C1121 H1103 0.930 . S
C1121 N1117 1.334 . S
C1121 C1119 1.394 . S
C1122 C1118 1.413 . S
C1122 C1120 1.391 . S
C1122 C1137 1.437 . S
H1123 C1120 0.929 . S
O1124 Gd1080 2.545 . S
O1124 C1139 1.258 . S
O1125 Gd1080 2.606 . S
O1125 Gd1081 2.362 . S
O1125 C1136 1.284 . S
O1126 Gd1081 2.324 . S
O1126 C1146 1.254 . S
O1127 Gd1080 2.429 . S
O1127 C1146 1.268 . S
O1128 Gd1080 2.545 . S
O1128 C1136 1.250 . S
O1129 Gd1080 2.412 . S
O1129 C1139 1.252 . S
O1130 Gd1081 2.545 . S
O1130 C1148 1.258 . S
O1131 Gd1080 2.362 . S
O1131 Gd1081 2.606 . S
O1131 C1147 1.284 . S
O1132 Gd1080 2.324 . S
O1132 C1155 1.254 . S
O1133 Gd1081 2.429 . S
O1133 C1155 1.268 . S
O1134 Gd1081 2.545 . S
O1134 C1147 1.250 . S
O1135 Gd1081 2.412 . S
O1135 C1148 1.252 . S
C1136 O1125 1.284 . S
C1136 O1128 1.250 . S
C1137 H1106 0.929 . S
C1137 C1122 1.437 . S
C1137 C1138 1.317 . S
C1138 H1109 0.930 . S
C1138 C1114 1.431 . S
C1138 C1137 1.317 . S
C1139 Gd1080 2.828 . S
C1139 O1124 1.258 . S
C1139 O1129 1.252 . S
C1139 C1140 1.497 . S
C1140 C1139 1.497 . S
C1140 C1141 1.395 . S
C1140 C1142 1.380 . S
C1141 C1140 1.395 . S
C1141 C1144 1.398 . S
C1141 H1156 0.930 . S
C1142 C1140 1.380 . S
C1142 C1143 1.391 . S
C1142 H1157 0.930 . S
C1143 C1142 1.391 . S
C1143 C1145 1.387 . S
C1144 C1141 1.398 . S
C1144 C1145 1.380 . S
C1144 H1158 0.930 . S
C1145 C1143 1.387 . S
C1145 C1144 1.380 . S
C1145 H1159 0.930 . S
C1146 O1126 1.254 . S
C1146 O1127 1.268 . S
C1147 O1131 1.284 . S
C1147 O1134 1.250 . S
C1148 Gd1081 2.828 . S
C1148 O1130 1.258 . S
C1148 O1135 1.252 . S
C1148 C1149 1.497 . S
C1149 C1148 1.497 . S
C1149 C1150 1.395 . S
C1149 C1151 1.380 . S
C1150 C1149 1.395 . S
C1150 C1153 1.398 . S
C1150 H1160 0.930 . S
C1151 C1149 1.380 . S
C1151 C1152 1.391 . S
C1151 H1161 0.930 . S
C1152 C1151 1.391 . S
C1152 C1154 1.387 . S
C1153 C1150 1.398 . S
C1153 C1154 1.380 . S
C1153 H1162 0.930 . S
C1154 C1152 1.387 . S
C1154 C1153 1.380 . S
C1154 H1163 0.930 . S
C1155 O1132 1.254 . S
C1155 O1133 1.268 . S
H1156 C1141 0.930 . S
H1157 C1142 0.930 . S
H1158 C1144 0.930 . S
H1159 C1145 0.930 . S
H1160 C1150 0.930 . S
H1161 C1151 0.930 . S
H1162 C1153 0.930 . S
H1163 C1154 0.930 . S
Gd1164 N1195 2.661 . S
Gd1164 N1201 2.601 . S
Gd1164 O1208 2.545 . S
Gd1164 O1209 2.606 . S
Gd1164 O1211 2.429 . S
Gd1164 O1212 2.545 . S
Gd1164 O1213 2.412 . S
Gd1164 O1215 2.362 . S
Gd1164 O1216 2.324 . S
Gd1164 C1223 2.828 . S
Gd1165 N1174 2.661 . S
Gd1165 N1178 2.601 . S
Gd1165 O1209 2.362 . S
Gd1165 O1210 2.324 . S
Gd1165 O1214 2.545 . S
Gd1165 O1215 2.606 . S
Gd1165 O1217 2.429 . S
Gd1165 O1218 2.545 . S
Gd1165 O1219 2.412 . S
Gd1165 C1232 2.828 . S
C1166 C1169 1.417 . S
C1166 C1171 1.431 . S
C1166 C1172 1.412 . S
C1167 C1170 1.437 . S
C1167 C1171 1.317 . S
C1167 H1186 0.929 . S
C1168 C1169 1.426 . S
C1168 C1170 1.413 . S
C1168 N1178 1.359 . S
C1169 C1166 1.417 . S
C1169 C1168 1.426 . S
C1169 N1174 1.350 . S
C1170 C1167 1.437 . S
C1170 C1168 1.413 . S
C1170 C1180 1.391 . S
C1171 C1166 1.431 . S
C1171 C1167 1.317 . S
C1171 H1182 0.930 . S
C1172 C1166 1.412 . S
C1172 C1173 1.355 . S
C1172 H1184 0.930 . S
C1173 C1172 1.355 . S
C1173 C1175 1.402 . S
C1173 H1185 0.930 . S
N1174 Gd1165 2.661 . S
N1174 C1169 1.350 . S
N1174 C1175 1.307 . S
C1175 C1173 1.402 . S
C1175 N1174 1.307 . S
C1175 H1176 0.930 . S
H1176 C1175 0.930 . S
C1177 N1178 1.334 . S
C1177 C1179 1.394 . S
C1177 H1181 0.930 . S
N1178 Gd1165 2.601 . S
N1178 C1168 1.359 . S
N1178 C1177 1.334 . S
C1179 C1177 1.394 . S
C1179 C1180 1.359 . S
C1179 H1191 0.930 . S
C1180 C1170 1.391 . S
C1180 C1179 1.359 . S
C1180 H1192 0.929 . S
H1181 C1177 0.930 . S
H1182 C1171 0.930 . S
H1183 C1200 0.930 . S
H1184 C1172 0.930 . S
H1185 C1173 0.930 . S
H1186 C1167 0.929 . S
H1187 C1205 0.930 . S
H1188 C1196 0.930 . S
H1189 C1197 0.930 . S
H1190 C1221 0.929 . S
H1191 C1179 0.930 . S
H1192 C1180 0.929 . S
H1193 C1222 0.930 . S
H1194 C1203 0.930 . S
N1195 Gd1164 2.661 . S
N1195 C1199 1.350 . S
N1195 C1200 1.307 . S
C1196 H1188 0.930 . S
C1196 C1197 1.355 . S
C1196 C1198 1.412 . S
C1197 H1189 0.930 . S
C1197 C1196 1.355 . S
C1197 C1200 1.402 . S
C1198 C1196 1.412 . S
C1198 C1199 1.417 . S
C1198 C1222 1.431 . S
C1199 N1195 1.350 . S
C1199 C1198 1.417 . S
C1199 C1202 1.426 . S
C1200 H1183 0.930 . S
C1200 N1195 1.307 . S
C1200 C1197 1.402 . S
N1201 Gd1164 2.601 . S
N1201 C1202 1.359 . S
N1201 C1205 1.334 . S
C1202 C1199 1.426 . S
C1202 N1201 1.359 . S
C1202 C1206 1.413 . S
C1203 H1194 0.930 . S
C1203 C1204 1.359 . S
C1203 C1205 1.394 . S
C1204 C1203 1.359 . S
C1204 C1206 1.391 . S
C1204 H1207 0.929 . S
C1205 H1187 0.930 . S
C1205 N1201 1.334 . S
C1205 C1203 1.394 . S
C1206 C1202 1.413 . S
C1206 C1204 1.391 . S
C1206 C1221 1.437 . S
H1207 C1204 0.929 . S
O1208 Gd1164 2.545 . S
O1208 C1223 1.258 . S
O1209 Gd1164 2.606 . S
O1209 Gd1165 2.362 . S
O1209 C1220 1.284 . S
O1210 Gd1165 2.324 . S
O1210 C1230 1.254 . S
O1211 Gd1164 2.429 . S
O1211 C1230 1.268 . S
O1212 Gd1164 2.545 . S
O1212 C1220 1.250 . S
O1213 Gd1164 2.412 . S
O1213 C1223 1.252 . S
O1214 Gd1165 2.545 . S
O1214 C1232 1.258 . S
O1215 Gd1164 2.362 . S
O1215 Gd1165 2.606 . S
O1215 C1231 1.284 . S
O1216 Gd1164 2.324 . S
O1216 C1239 1.254 . S
O1217 Gd1165 2.429 . S
O1217 C1239 1.268 . S
O1218 Gd1165 2.545 . S
O1218 C1231 1.250 . S
O1219 Gd1165 2.412 . S
O1219 C1232 1.252 . S
C1220 O1209 1.284 . S
C1220 O1212 1.250 . S
C1221 H1190 0.929 . S
C1221 C1206 1.437 . S
C1221 C1222 1.317 . S
C1222 H1193 0.930 . S
C1222 C1198 1.431 . S
C1222 C1221 1.317 . S
C1223 Gd1164 2.828 . S
C1223 O1208 1.258 . S
C1223 O1213 1.252 . S
C1223 C1224 1.497 . S
C1224 C1223 1.497 . S
C1224 C1225 1.395 . S
C1224 C1226 1.380 . S
C1225 C1224 1.395 . S
C1225 C1228 1.398 . S
C1225 H1240 0.930 . S
C1226 C1224 1.380 . S
C1226 C1227 1.391 . S
C1226 H1241 0.930 . S
C1227 C1226 1.391 . S
C1227 C1229 1.387 . S
C1228 C1225 1.398 . S
C1228 C1229 1.380 . S
C1228 H1242 0.930 . S
C1229 C1227 1.387 . S
C1229 C1228 1.380 . S
C1229 H1243 0.930 . S
C1230 O1210 1.254 . S
C1230 O1211 1.268 . S
C1231 O1215 1.284 . S
C1231 O1218 1.250 . S
C1232 Gd1165 2.828 . S
C1232 O1214 1.258 . S
C1232 O1219 1.252 . S
C1232 C1233 1.497 . S
C1233 C1232 1.497 . S
C1233 C1234 1.395 . S
C1233 C1235 1.380 . S
C1234 C1233 1.395 . S
C1234 C1237 1.398 . S
C1234 H1244 0.930 . S
C1235 C1233 1.380 . S
C1235 C1236 1.391 . S
C1235 H1245 0.930 . S
C1236 C1235 1.391 . S
C1236 C1238 1.387 . S
C1237 C1234 1.398 . S
C1237 C1238 1.380 . S
C1237 H1246 0.930 . S
C1238 C1236 1.387 . S
C1238 C1237 1.380 . S
C1238 H1247 0.930 . S
C1239 O1216 1.254 . S
C1239 O1217 1.268 . S
H1240 C1225 0.930 . S
H1241 C1226 0.930 . S
H1242 C1228 0.930 . S
H1243 C1229 0.930 . S
H1244 C1234 0.930 . S
H1245 C1235 0.930 . S
H1246 C1237 0.930 . S
H1247 C1238 0.930 . S
Gd1248 N1279 2.661 . S
Gd1248 N1285 2.601 . S
Gd1248 O1292 2.545 . S
Gd1248 O1293 2.606 . S
Gd1248 O1295 2.429 . S
Gd1248 O1296 2.545 . S
Gd1248 O1297 2.412 . S
Gd1248 O1299 2.362 . S
Gd1248 O1300 2.324 . S
Gd1248 C1307 2.828 . S
Gd1249 N1258 2.661 . S
Gd1249 N1262 2.601 . S
Gd1249 O1293 2.362 . S
Gd1249 O1294 2.324 . S
Gd1249 O1298 2.545 . S
Gd1249 O1299 2.606 . S
Gd1249 O1301 2.429 . S
Gd1249 O1302 2.545 . S
Gd1249 O1303 2.412 . S
Gd1249 C1316 2.828 . S
C1250 C1253 1.417 . S
C1250 C1255 1.431 . S
C1250 C1256 1.412 . S
C1251 C1254 1.437 . S
C1251 C1255 1.317 . S
C1251 H1270 0.929 . S
C1252 C1253 1.426 . S
C1252 C1254 1.413 . S
C1252 N1262 1.359 . S
C1253 C1250 1.417 . S
C1253 C1252 1.426 . S
C1253 N1258 1.350 . S
C1254 C1251 1.437 . S
C1254 C1252 1.413 . S
C1254 C1264 1.391 . S
C1255 C1250 1.431 . S
C1255 C1251 1.317 . S
C1255 H1266 0.930 . S
C1256 C1250 1.412 . S
C1256 C1257 1.355 . S
C1256 H1268 0.930 . S
C1257 C1256 1.355 . S
C1257 C1259 1.402 . S
C1257 H1269 0.930 . S
N1258 Gd1249 2.661 . S
N1258 C1253 1.350 . S
N1258 C1259 1.307 . S
C1259 C1257 1.402 . S
C1259 N1258 1.307 . S
C1259 H1260 0.930 . S
H1260 C1259 0.930 . S
C1261 N1262 1.334 . S
C1261 C1263 1.394 . S
C1261 H1265 0.930 . S
N1262 Gd1249 2.601 . S
N1262 C1252 1.359 . S
N1262 C1261 1.334 . S
C1263 C1261 1.394 . S
C1263 C1264 1.359 . S
C1263 H1275 0.930 . S
C1264 C1254 1.391 . S
C1264 C1263 1.359 . S
C1264 H1276 0.929 . S
H1265 C1261 0.930 . S
H1266 C1255 0.930 . S
H1267 C1284 0.930 . S
H1268 C1256 0.930 . S
H1269 C1257 0.930 . S
H1270 C1251 0.929 . S
H1271 C1289 0.930 . S
H1272 C1280 0.930 . S
H1273 C1281 0.930 . S
H1274 C1305 0.929 . S
H1275 C1263 0.930 . S
H1276 C1264 0.929 . S
H1277 C1306 0.930 . S
H1278 C1287 0.930 . S
N1279 Gd1248 2.661 . S
N1279 C1283 1.350 . S
N1279 C1284 1.307 . S
C1280 H1272 0.930 . S
C1280 C1281 1.355 . S
C1280 C1282 1.412 . S
C1281 H1273 0.930 . S
C1281 C1280 1.355 . S
C1281 C1284 1.402 . S
C1282 C1280 1.412 . S
C1282 C1283 1.417 . S
C1282 C1306 1.431 . S
C1283 N1279 1.350 . S
C1283 C1282 1.417 . S
C1283 C1286 1.426 . S
C1284 H1267 0.930 . S
C1284 N1279 1.307 . S
C1284 C1281 1.402 . S
N1285 Gd1248 2.601 . S
N1285 C1286 1.359 . S
N1285 C1289 1.334 . S
C1286 C1283 1.426 . S
C1286 N1285 1.359 . S
C1286 C1290 1.413 . S
C1287 H1278 0.930 . S
C1287 C1288 1.359 . S
C1287 C1289 1.394 . S
C1288 C1287 1.359 . S
C1288 C1290 1.391 . S
C1288 H1291 0.929 . S
C1289 H1271 0.930 . S
C1289 N1285 1.334 . S
C1289 C1287 1.394 . S
C1290 C1286 1.413 . S
C1290 C1288 1.391 . S
C1290 C1305 1.437 . S
H1291 C1288 0.929 . S
O1292 Gd1248 2.545 . S
O1292 C1307 1.258 . S
O1293 Gd1248 2.606 . S
O1293 Gd1249 2.362 . S
O1293 C1304 1.284 . S
O1294 Gd1249 2.324 . S
O1294 C1314 1.254 . S
O1295 Gd1248 2.429 . S
O1295 C1314 1.268 . S
O1296 Gd1248 2.545 . S
O1296 C1304 1.250 . S
O1297 Gd1248 2.412 . S
O1297 C1307 1.252 . S
O1298 Gd1249 2.545 . S
O1298 C1316 1.258 . S
O1299 Gd1248 2.362 . S
O1299 Gd1249 2.606 . S
O1299 C1315 1.284 . S
O1300 Gd1248 2.324 . S
O1300 C1323 1.254 . S
O1301 Gd1249 2.429 . S
O1301 C1323 1.268 . S
O1302 Gd1249 2.545 . S
O1302 C1315 1.250 . S
O1303 Gd1249 2.412 . S
O1303 C1316 1.252 . S
C1304 O1293 1.284 . S
C1304 O1296 1.250 . S
C1305 H1274 0.929 . S
C1305 C1290 1.437 . S
C1305 C1306 1.317 . S
C1306 H1277 0.930 . S
C1306 C1282 1.431 . S
C1306 C1305 1.317 . S
C1307 Gd1248 2.828 . S
C1307 O1292 1.258 . S
C1307 O1297 1.252 . S
C1307 C1308 1.497 . S
C1308 C1307 1.497 . S
C1308 C1309 1.395 . S
C1308 C1310 1.380 . S
C1309 C1308 1.395 . S
C1309 C1312 1.398 . S
C1309 H1324 0.930 . S
C1310 C1308 1.380 . S
C1310 C1311 1.391 . S
C1310 H1325 0.930 . S
C1311 C1310 1.391 . S
C1311 C1313 1.387 . S
C1312 C1309 1.398 . S
C1312 C1313 1.380 . S
C1312 H1326 0.930 . S
C1313 C1311 1.387 . S
C1313 C1312 1.380 . S
C1313 H1327 0.930 . S
C1314 O1294 1.254 . S
C1314 O1295 1.268 . S
C1315 O1299 1.284 . S
C1315 O1302 1.250 . S
C1316 Gd1249 2.828 . S
C1316 O1298 1.258 . S
C1316 O1303 1.252 . S
C1316 C1317 1.497 . S
C1317 C1316 1.497 . S
C1317 C1318 1.395 . S
C1317 C1319 1.380 . S
C1318 C1317 1.395 . S
C1318 C1321 1.398 . S
C1318 H1328 0.930 . S
C1319 C1317 1.380 . S
C1319 C1320 1.391 . S
C1319 H1329 0.930 . S
C1320 C1319 1.391 . S
C1320 C1322 1.387 . S
C1321 C1318 1.398 . S
C1321 C1322 1.380 . S
C1321 H1330 0.930 . S
C1322 C1320 1.387 . S
C1322 C1321 1.380 . S
C1322 H1331 0.930 . S
C1323 O1300 1.254 . S
C1323 O1301 1.268 . S
H1324 C1309 0.930 . S
H1325 C1310 0.930 . S
H1326 C1312 0.930 . S
H1327 C1313 0.930 . S
H1328 C1318 0.930 . S
H1329 C1319 0.930 . S
H1330 C1321 0.930 . S
H1331 C1322 0.930 . S
C1332 C1333 1.391 . S
C1332 C1334 1.394 . S
C1332 H1348 0.931 . S
C1333 C1332 1.391 . S
C1333 C1337 1.376 . S
C1334 C1332 1.394 . S
C1334 C1335 1.369 . S
C1334 C1338 1.531 . S
C1335 C1334 1.369 . S
C1335 C1336 1.410 . S
C1335 C1343 1.503 . S
C1336 C1335 1.410 . S
C1336 C1337 1.392 . S
C1336 C1339 1.511 . S
C1337 C1333 1.376 . S
C1337 C1336 1.392 . S
C1337 H1349 0.929 . S
C1338 C1334 1.531 . S
C1338 H1350 0.960 . S
C1338 H1351 0.962 . S
C1338 H1352 0.960 . S
C1339 C1336 1.511 . S
C1339 H1353 0.961 . S
C1339 H1354 0.961 . S
C1339 H1355 0.961 . S
C1340 C1341 1.370 . S
C1340 C1342 1.363 . S
C1340 H1356 0.931 . S
C1341 C1340 1.370 . S
C1341 C1345 1.408 . S
C1342 C1340 1.363 . S
C1342 C1343 1.370 . S
C1342 C1346 1.524 . S
C1343 C1335 1.503 . S
C1343 C1342 1.370 . S
C1343 C1344 1.403 . S
C1344 C1343 1.403 . S
C1344 C1345 1.404 . S
C1344 C1347 1.539 . S
C1345 C1341 1.408 . S
C1345 C1344 1.404 . S
C1345 H1357 0.930 . S
C1346 C1342 1.524 . S
C1346 H1358 0.956 . S
C1346 H1359 0.961 . S
C1346 H1360 0.961 . S
C1347 C1344 1.539 . S
C1347 H1361 0.958 . S
C1347 H1362 0.961 . S
C1347 H1363 0.960 . S
H1348 C1332 0.931 . S
H1349 C1337 0.929 . S
H1350 C1338 0.960 . S
H1351 C1338 0.962 . S
H1352 C1338 0.960 . S
H1353 C1339 0.961 . S
H1354 C1339 0.961 . S
H1355 C1339 0.961 . S
H1356 C1340 0.931 . S
H1357 C1345 0.930 . S
H1358 C1346 0.956 . S
H1359 C1346 0.961 . S
H1360 C1346 0.961 . S
H1361 C1347 0.958 . S
H1362 C1347 0.961 . S
H1363 C1347 0.960 . S
C1364 C1365 1.391 . S
C1364 C1366 1.394 . S
C1364 H1380 0.931 . S
C1365 C1364 1.391 . S
C1365 C1369 1.376 . S
C1366 C1364 1.394 . S
C1366 C1367 1.369 . S
C1366 C1370 1.531 . S
C1367 C1366 1.369 . S
C1367 C1368 1.410 . S
C1367 C1375 1.503 . S
C1368 C1367 1.410 . S
C1368 C1369 1.392 . S
C1368 C1371 1.511 . S
C1369 C1365 1.376 . S
C1369 C1368 1.392 . S
C1369 H1381 0.929 . S
C1370 C1366 1.531 . S
C1370 H1382 0.960 . S
C1370 H1383 0.962 . S
C1370 H1384 0.960 . S
C1371 C1368 1.511 . S
C1371 H1385 0.961 . S
C1371 H1386 0.961 . S
C1371 H1387 0.961 . S
C1372 C1373 1.370 . S
C1372 C1374 1.363 . S
C1372 H1388 0.931 . S
C1373 C1372 1.370 . S
C1373 C1377 1.408 . S
C1374 C1372 1.363 . S
C1374 C1375 1.370 . S
C1374 C1378 1.524 . S
C1375 C1367 1.503 . S
C1375 C1374 1.370 . S
C1375 C1376 1.403 . S
C1376 C1375 1.403 . S
C1376 C1377 1.404 . S
C1376 C1379 1.539 . S
C1377 C1373 1.408 . S
C1377 C1376 1.404 . S
C1377 H1389 0.930 . S
C1378 C1374 1.524 . S
C1378 H1390 0.956 . S
C1378 H1391 0.961 . S
C1378 H1392 0.961 . S
C1379 C1376 1.539 . S
C1379 H1393 0.958 . S
C1379 H1394 0.961 . S
C1379 H1395 0.960 . S
H1380 C1364 0.931 . S
H1381 C1369 0.929 . S
H1382 C1370 0.960 . S
H1383 C1370 0.962 . S
H1384 C1370 0.960 . S
H1385 C1371 0.961 . S
H1386 C1371 0.961 . S
H1387 C1371 0.961 . S
H1388 C1372 0.931 . S
H1389 C1377 0.930 . S
H1390 C1378 0.956 . S
H1391 C1378 0.961 . S
H1392 C1378 0.961 . S
H1393 C1379 0.958 . S
H1394 C1379 0.961 . S
H1395 C1379 0.960 . S
C1396 C1397 1.391 . S
C1396 C1398 1.394 . S
C1396 H1412 0.931 . S
C1397 C1396 1.391 . S
C1397 C1401 1.376 . S
C1398 C1396 1.394 . S
C1398 C1399 1.369 . S
C1398 C1402 1.531 . S
C1399 C1398 1.369 . S
C1399 C1400 1.410 . S
C1399 C1407 1.503 . S
C1400 C1399 1.410 . S
C1400 C1401 1.392 . S
C1400 C1403 1.511 . S
C1401 C1397 1.376 . S
C1401 C1400 1.392 . S
C1401 H1413 0.929 . S
C1402 C1398 1.531 . S
C1402 H1414 0.960 . S
C1402 H1415 0.962 . S
C1402 H1416 0.960 . S
C1403 C1400 1.511 . S
C1403 H1417 0.961 . S
C1403 H1418 0.961 . S
C1403 H1419 0.961 . S
C1404 C1405 1.370 . S
C1404 C1406 1.363 . S
C1404 H1420 0.931 . S
C1405 C1404 1.370 . S
C1405 C1409 1.408 . S
C1406 C1404 1.363 . S
C1406 C1407 1.370 . S
C1406 C1410 1.524 . S
C1407 C1399 1.503 . S
C1407 C1406 1.370 . S
C1407 C1408 1.403 . S
C1408 C1407 1.403 . S
C1408 C1409 1.404 . S
C1408 C1411 1.539 . S
C1409 C1405 1.408 . S
C1409 C1408 1.404 . S
C1409 H1421 0.888 1_554 S
C1410 C1406 1.524 . S
C1410 H1422 0.956 . S
C1410 H1423 0.961 . S
C1410 H1424 0.961 . S
C1411 C1408 1.539 . S
C1411 H1425 0.958 1_554 S
C1411 H1426 0.961 1_554 S
C1411 H1427 0.960 . S
H1412 C1396 0.931 . S
H1413 C1401 0.929 . S
H1414 C1402 0.960 . S
H1415 C1402 0.962 . S
H1416 C1402 0.960 . S
H1417 C1403 0.961 . S
H1418 C1403 0.961 . S
H1419 C1403 0.961 . S
H1420 C1404 0.931 . S
H1421 C1409 0.888 1_556 S
H1422 C1410 0.956 . S
H1423 C1410 0.961 . S
H1424 C1410 0.961 . S
H1425 C1411 0.958 1_556 S
H1426 C1411 0.961 1_556 S
H1427 C1411 0.960 . S
C1428 C1429 1.391 . S
C1428 C1430 1.394 . S
C1428 H1444 0.931 . S
C1429 C1428 1.391 . S
C1429 C1433 1.376 . S
C1430 C1428 1.394 . S
C1430 C1431 1.369 . S
C1430 C1434 1.531 . S
C1431 C1430 1.369 . S
C1431 C1432 1.410 . S
C1431 C1439 1.503 . S
C1432 C1431 1.410 . S
C1432 C1433 1.392 . S
C1432 C1435 1.511 . S
C1433 C1429 1.376 . S
C1433 C1432 1.392 . S
C1433 H1445 0.929 . S
C1434 C1430 1.531 . S
C1434 H1446 0.960 . S
C1434 H1447 0.962 . S
C1434 H1448 0.960 . S
C1435 C1432 1.511 . S
C1435 H1449 0.961 . S
C1435 H1450 0.961 . S
C1435 H1451 0.961 . S
C1436 C1437 1.370 . S
C1436 C1438 1.363 . S
C1436 H1452 0.931 . S
C1437 C1436 1.370 . S
C1437 C1441 1.408 . S
C1438 C1436 1.363 . S
C1438 C1439 1.370 . S
C1438 C1442 1.524 . S
C1439 C1431 1.503 . S
C1439 C1438 1.370 . S
C1439 C1440 1.403 . S
C1440 C1439 1.403 . S
C1440 C1441 1.404 . S
C1440 C1443 1.539 . S
C1441 C1437 1.408 . S
C1441 C1440 1.404 . S
C1441 H1453 0.930 . S
C1442 C1438 1.524 . S
C1442 H1454 0.956 . S
C1442 H1455 0.961 . S
C1442 H1456 0.988 . S
C1443 C1440 1.539 . S
C1443 H1457 0.958 . S
C1443 H1458 0.961 . S
C1443 H1459 0.960 . S
H1444 C1428 0.931 . S
H1445 C1433 0.929 . S
H1446 C1434 0.960 . S
H1447 C1434 0.962 . S
H1448 C1434 0.960 . S
H1449 C1435 0.961 . S
H1450 C1435 0.961 . S
H1451 C1435 0.961 . S
H1452 C1436 0.931 . S
H1453 C1441 0.930 . S
H1454 C1442 0.956 . S
H1455 C1442 0.961 . S
H1456 C1442 0.988 . S
H1457 C1443 0.958 . S
H1458 C1443 0.961 . S
H1459 C1443 0.960 . S
C1460 C1461 1.391 . S
C1460 C1462 1.394 . S
C1460 H1476 0.931 . S
C1461 C1460 1.391 . S
C1461 C1465 1.376 . S
C1462 C1460 1.394 . S
C1462 C1463 1.369 . S
C1462 C1466 1.531 . S
C1463 C1462 1.369 . S
C1463 C1464 1.410 . S
C1463 C1471 1.503 . S
C1464 C1463 1.410 . S
C1464 C1465 1.392 . S
C1464 C1467 1.511 . S
C1465 C1461 1.376 . S
C1465 C1464 1.392 . S
C1465 H1477 0.929 . S
C1466 C1462 1.531 . S
C1466 H1478 0.960 . S
C1466 H1479 0.962 . S
C1466 H1480 0.960 . S
C1467 C1464 1.511 . S
C1467 H1481 0.961 . S
C1467 H1482 0.961 . S
C1467 H1483 0.961 . S
C1468 C1469 1.370 . S
C1468 C1470 1.363 . S
C1468 H1484 0.931 . S
C1469 C1468 1.370 . S
C1469 C1473 1.408 . S
C1470 C1468 1.363 . S
C1470 C1471 1.370 . S
C1470 C1474 1.524 . S
C1471 C1463 1.503 . S
C1471 C1470 1.370 . S
C1471 C1472 1.403 . S
C1472 C1471 1.403 . S
C1472 C1473 1.404 . S
C1472 C1475 1.539 . S
C1473 C1469 1.408 . S
C1473 C1472 1.404 . S
C1473 H1485 0.930 . S
C1474 C1470 1.524 . S
C1474 H1486 0.956 . S
C1474 H1487 0.961 . S
C1474 H1488 0.961 . S
C1475 C1472 1.539 . S
C1475 H1489 0.958 . S
C1475 H1490 0.961 . S
C1475 H1491 0.960 . S
H1476 C1460 0.931 . S
H1477 C1465 0.929 . S
H1478 C1466 0.960 . S
H1479 C1466 0.962 . S
H1480 C1466 0.960 . S
H1481 C1467 0.961 . S
H1482 C1467 0.961 . S
H1483 C1467 0.961 . S
H1484 C1468 0.931 . S
H1485 C1473 0.930 . S
H1486 C1474 0.956 . S
H1487 C1474 0.961 . S
H1488 C1474 0.961 . S
H1489 C1475 0.958 . S
H1490 C1475 0.961 . S
H1491 C1475 0.960 . S
C1492 C1493 1.391 . S
C1492 C1494 1.394 . S
C1492 H1508 0.931 . S
C1493 C1492 1.391 . S
C1493 C1497 1.376 . S
C1494 C1492 1.394 . S
C1494 C1495 1.369 . S
C1494 C1498 1.531 . S
C1495 C1494 1.369 . S
C1495 C1496 1.410 . S
C1495 C1503 1.503 . S
C1496 C1495 1.410 . S
C1496 C1497 1.392 . S
C1496 C1499 1.511 . S
C1497 C1493 1.376 . S
C1497 C1496 1.392 . S
C1497 H1509 0.929 . S
C1498 C1494 1.531 . S
C1498 H1510 0.960 1_556 S
C1498 H1511 0.962 1_556 S
C1498 H1512 0.960 1_556 S
C1499 C1496 1.511 . S
C1499 H1513 0.961 . S
C1499 H1514 0.961 . S
C1499 H1515 0.961 . S
C1500 C1501 1.370 . S
C1500 C1502 1.363 . S
C1500 H1516 0.931 . S
C1501 C1500 1.370 . S
C1501 C1505 1.408 . S
C1502 C1500 1.363 . S
C1502 C1503 1.370 . S
C1502 C1506 1.524 . S
C1503 C1495 1.503 . S
C1503 C1502 1.370 . S
C1503 C1504 1.403 . S
C1504 C1503 1.403 . S
C1504 C1505 1.404 . S
C1504 C1507 1.539 . S
C1505 C1501 1.408 . S
C1505 C1504 1.404 . S
C1505 H1517 0.930 . S
C1506 C1502 1.524 . S
C1506 H1518 0.956 . S
C1506 H1519 0.961 . S
C1506 H1520 0.961 . S
C1507 C1504 1.539 . S
C1507 H1521 0.958 . S
C1507 H1522 0.961 . S
C1507 H1523 0.960 . S
H1508 C1492 0.931 . S
H1509 C1497 0.929 . S
H1510 C1498 0.960 1_554 S
H1511 C1498 0.962 1_554 S
H1512 C1498 0.960 1_554 S
H1513 C1499 0.961 . S
H1514 C1499 0.961 . S
H1515 C1499 0.961 . S
H1516 C1500 0.931 . S
H1517 C1505 0.930 . S
H1518 C1506 0.956 . S
H1519 C1506 0.961 . S
H1520 C1506 0.961 . S
H1521 C1507 0.958 . S
H1522 C1507 0.961 . S
H1523 C1507 0.960 . S
C1524 C1525 1.391 . S
C1524 C1526 1.394 . S
C1524 H1540 0.931 . S
C1525 C1524 1.391 . S
C1525 C1529 1.376 . S
C1526 C1524 1.394 . S
C1526 C1527 1.369 . S
C1526 C1530 1.531 . S
C1527 C1526 1.369 . S
C1527 C1528 1.410 . S
C1527 C1535 1.503 . S
C1528 C1527 1.410 . S
C1528 C1529 1.392 . S
C1528 C1531 1.511 . S
C1529 C1525 1.376 . S
C1529 C1528 1.392 . S
C1529 H1541 0.929 . S
C1530 C1526 1.531 . S
C1530 H1542 0.960 . S
C1530 H1543 0.962 . S
C1530 H1544 0.987 . S
C1531 C1528 1.511 . S
C1531 H1545 0.961 . S
C1531 H1546 0.961 . S
C1531 H1547 0.961 . S
C1532 C1533 1.370 . S
C1532 C1534 1.363 . S
C1532 H1548 0.931 . S
C1533 C1532 1.370 . S
C1533 C1537 1.408 . S
C1534 C1532 1.363 . S
C1534 C1535 1.370 . S
C1534 C1538 1.524 . S
C1535 C1527 1.503 . S
C1535 C1534 1.370 . S
C1535 C1536 1.403 . S
C1536 C1535 1.403 . S
C1536 C1537 1.404 . S
C1536 C1539 1.539 . S
C1537 C1533 1.408 . S
C1537 C1536 1.404 . S
C1537 H1549 0.962 . S
C1538 C1534 1.524 . S
C1538 H1550 0.956 . S
C1538 H1551 0.961 . S
C1538 H1552 0.961 . S
C1539 C1536 1.539 . S
C1539 H1553 0.958 1_556 S
C1539 H1554 0.961 . S
C1539 H1555 0.960 . S
H1540 C1524 0.931 . S
H1541 C1529 0.929 . S
H1542 C1530 0.960 . S
H1543 C1530 0.962 . S
H1544 C1530 0.987 . S
H1545 C1531 0.961 . S
H1546 C1531 0.961 . S
H1547 C1531 0.961 . S
H1548 C1532 0.931 . S
H1549 C1537 0.962 . S
H1550 C1538 0.956 . S
H1551 C1538 0.961 . S
H1552 C1538 0.961 . S
H1553 C1539 0.958 1_554 S
H1554 C1539 0.961 . S
H1555 C1539 0.960 . S
C1556 C1557 1.391 . S
C1556 C1558 1.394 . S
C1556 H1572 0.931 . S
C1557 C1556 1.391 . S
C1557 C1561 1.376 . S
C1558 C1556 1.394 . S
C1558 C1559 1.369 . S
C1558 C1562 1.531 . S
C1559 C1558 1.369 . S
C1559 C1560 1.410 . S
C1559 C1567 1.503 . S
C1560 C1559 1.410 . S
C1560 C1561 1.392 . S
C1560 C1563 1.511 . S
C1561 C1557 1.376 . S
C1561 C1560 1.392 . S
C1561 H1573 0.929 . S
C1562 C1558 1.531 . S
C1562 H1574 0.960 . S
C1562 H1575 0.962 . S
C1562 H1576 0.960 . S
C1563 C1560 1.511 . S
C1563 H1577 0.961 . S
C1563 H1578 0.961 . S
C1563 H1579 0.961 . S
C1564 C1565 1.370 . S
C1564 C1566 1.363 . S
C1564 H1580 0.931 1_556 S
C1565 C1564 1.370 . S
C1565 C1569 1.408 . S
C1566 C1564 1.363 . S
C1566 C1567 1.370 . S
C1566 C1570 1.524 . S
C1567 C1559 1.503 . S
C1567 C1566 1.370 . S
C1567 C1568 1.403 . S
C1568 C1567 1.403 . S
C1568 C1569 1.404 . S
C1568 C1571 1.539 . S
C1569 C1565 1.408 . S
C1569 C1568 1.404 . S
C1569 H1581 0.930 . S
C1570 C1566 1.524 . S
C1570 H1582 0.956 . S
C1570 H1583 0.961 . S
C1570 H1584 0.961 1_556 S
C1571 C1568 1.539 . S
C1571 H1585 0.958 . S
C1571 H1586 0.961 . S
C1571 H1587 0.960 . S
H1572 C1556 0.931 . S
H1573 C1561 0.929 . S
H1574 C1562 0.960 . S
H1575 C1562 0.962 . S
H1576 C1562 0.960 . S
H1577 C1563 0.961 . S
H1578 C1563 0.961 . S
H1579 C1563 0.961 . S
H1580 C1564 0.931 1_554 S
H1581 C1569 0.930 . S
H1582 C1570 0.956 . S
H1583 C1570 0.961 . S
H1584 C1570 0.961 1_554 S
H1585 C1571 0.958 . S
H1586 C1571 0.961 . S
H1587 C1571 0.960 . S
C1588 C1589 1.391 . S
C1588 C1590 1.394 . S
C1588 H1604 0.931 . S
C1589 C1588 1.391 . S
C1589 C1593 1.376 . S
C1590 C1588 1.394 . S
C1590 C1591 1.369 . S
C1590 C1594 1.531 . S
C1591 C1590 1.369 . S
C1591 C1592 1.410 . S
C1591 C1599 1.503 . S
C1592 C1591 1.410 . S
C1592 C1593 1.392 . S
C1592 C1595 1.511 . S
C1593 C1589 1.376 . S
C1593 C1592 1.392 . S
C1593 H1605 0.929 . S
C1594 C1590 1.531 . S
C1594 H1606 0.954 1_556 S
C1594 H1607 0.962 . S
C1594 H1608 0.960 1_556 S
C1595 C1592 1.511 . S
C1595 H1609 0.961 . S
C1595 H1610 0.961 . S
C1595 H1611 0.961 . S
C1596 C1597 1.370 . S
C1596 C1598 1.363 . S
C1596 H1612 0.931 . S
C1597 C1596 1.370 . S
C1597 C1601 1.408 . S
C1598 C1596 1.363 . S
C1598 C1599 1.370 . S
C1598 C1602 1.524 . S
C1599 C1591 1.503 . S
C1599 C1598 1.370 . S
C1599 C1600 1.403 . S
C1600 C1599 1.403 . S
C1600 C1601 1.404 . S
C1600 C1603 1.539 . S
C1601 C1597 1.408 . S
C1601 C1600 1.404 . S
C1601 H1613 0.930 . S
C1602 C1598 1.524 . S
C1602 H1614 0.956 . S
C1602 H1615 0.961 . S
C1602 H1616 0.961 . S
C1603 C1600 1.539 . S
C1603 H1617 0.966 . S
C1603 H1618 0.961 . S
C1603 H1619 0.960 . S
H1604 C1588 0.931 . S
H1605 C1593 0.929 . S
H1606 C1594 0.954 1_554 S
H1607 C1594 0.962 . S
H1608 C1594 0.960 1_554 S
H1609 C1595 0.961 . S
H1610 C1595 0.961 . S
H1611 C1595 0.961 . S
H1612 C1596 0.931 . S
H1613 C1601 0.930 . S
H1614 C1602 0.956 . S
H1615 C1602 0.961 . S
H1616 C1602 0.961 . S
H1617 C1603 0.966 . S
H1618 C1603 0.961 . S
H1619 C1603 0.960 . S
C1620 C1621 1.391 . S
C1620 C1622 1.394 . S
C1620 H1636 0.931 . S
C1621 C1620 1.391 . S
C1621 C1625 1.376 . S
C1622 C1620 1.394 . S
C1622 C1623 1.369 . S
C1622 C1626 1.531 . S
C1623 C1622 1.369 . S
C1623 C1624 1.410 . S
C1623 C1631 1.503 . S
C1624 C1623 1.410 . S
C1624 C1625 1.392 . S
C1624 C1627 1.511 . S
C1625 C1621 1.376 . S
C1625 C1624 1.392 . S
C1625 H1637 0.929 . S
C1626 C1622 1.531 . S
C1626 H1638 0.960 . S
C1626 H1639 0.962 . S
C1626 H1640 0.960 . S
C1627 C1624 1.511 . S
C1627 H1641 0.961 . S
C1627 H1642 0.961 . S
C1627 H1643 0.961 . S
C1628 C1629 1.370 . S
C1628 C1630 1.363 . S
C1628 H1644 0.931 . S
C1629 C1628 1.370 . S
C1629 C1633 1.408 . S
C1630 C1628 1.363 . S
C1630 C1631 1.370 . S
C1630 C1634 1.524 . S
C1631 C1623 1.503 . S
C1631 C1630 1.370 . S
C1631 C1632 1.403 . S
C1632 C1631 1.403 . S
C1632 C1633 1.404 . S
C1632 C1635 1.539 . S
C1633 C1629 1.408 . S
C1633 C1632 1.404 . S
C1633 H1645 0.930 . S
C1634 C1630 1.524 . S
C1634 H1646 0.956 . S
C1634 H1647 0.961 . S
C1634 H1648 0.981 . S
C1635 C1632 1.539 . S
C1635 H1649 0.958 . S
C1635 H1650 0.961 . S
C1635 H1651 0.960 . S
H1636 C1620 0.931 . S
H1637 C1625 0.929 . S
H1638 C1626 0.960 . S
H1639 C1626 0.962 . S
H1640 C1626 0.960 . S
H1641 C1627 0.961 . S
H1642 C1627 0.961 . S
H1643 C1627 0.961 . S
H1644 C1628 0.931 . S
H1645 C1633 0.930 . S
H1646 C1634 0.956 . S
H1647 C1634 0.961 . S
H1648 C1634 0.981 . S
H1649 C1635 0.958 . S
H1650 C1635 0.961 . S
H1651 C1635 0.960 . S
C1652 C1653 1.391 . S
C1652 C1654 1.394 . S
C1652 H1668 0.931 . S
C1653 C1652 1.391 . S
C1653 C1657 1.376 . S
C1654 C1652 1.394 . S
C1654 C1655 1.369 . S
C1654 C1658 1.531 . S
C1655 C1654 1.369 . S
C1655 C1656 1.410 . S
C1655 C1663 1.503 . S
C1656 C1655 1.410 . S
C1656 C1657 1.392 . S
C1656 C1659 1.511 . S
C1657 C1653 1.376 . S
C1657 C1656 1.392 . S
C1657 H1669 0.929 . S
C1658 C1654 1.531 . S
C1658 H1670 0.960 . S
C1658 H1671 0.962 . S
C1658 H1672 0.960 . S
C1659 C1656 1.511 . S
C1659 H1673 0.961 . S
C1659 H1674 0.961 . S
C1659 H1675 0.961 . S
C1660 C1661 1.370 . S
C1660 C1662 1.363 . S
C1660 H1676 0.931 . S
C1661 C1660 1.370 . S
C1661 C1665 1.408 . S
C1662 C1660 1.363 . S
C1662 C1663 1.370 . S
C1662 C1666 1.524 . S
C1663 C1655 1.503 . S
C1663 C1662 1.370 . S
C1663 C1664 1.403 . S
C1664 C1663 1.403 . S
C1664 C1665 1.404 . S
C1664 C1667 1.539 . S
C1665 C1661 1.408 . S
C1665 C1664 1.404 . S
C1665 H1677 0.930 . S
C1666 C1662 1.524 . S
C1666 H1678 0.956 . S
C1666 H1679 0.961 . S
C1666 H1680 0.961 . S
C1667 C1664 1.539 . S
C1667 H1681 0.958 . S
C1667 H1682 0.961 . S
C1667 H1683 0.960 . S
H1668 C1652 0.931 . S
H1669 C1657 0.929 . S
H1670 C1658 0.960 . S
H1671 C1658 0.962 . S
H1672 C1658 0.960 . S
H1673 C1659 0.961 . S
H1674 C1659 0.961 . S
H1675 C1659 0.961 . S
H1676 C1660 0.931 . S
H1677 C1665 0.930 . S
H1678 C1666 0.956 . S
H1679 C1666 0.961 . S
H1680 C1666 0.961 . S
H1681 C1667 0.958 . S
H1682 C1667 0.961 . S
H1683 C1667 0.960 . S
C1684 C1685 1.391 . S
C1684 C1686 1.394 . S
C1684 H1700 0.931 . S
C1685 C1684 1.391 . S
C1685 C1689 1.376 . S
C1686 C1684 1.394 . S
C1686 C1687 1.369 . S
C1686 C1690 1.531 . S
C1687 C1686 1.369 . S
C1687 C1688 1.410 . S
C1687 C1695 1.503 . S
C1688 C1687 1.410 . S
C1688 C1689 1.392 . S
C1688 C1691 1.511 . S
C1689 C1685 1.376 . S
C1689 C1688 1.392 . S
C1689 H1701 0.929 . S
C1690 C1686 1.531 . S
C1690 H1702 0.960 . S
C1690 H1703 0.962 . S
C1690 H1704 0.960 . S
C1691 C1688 1.511 . S
C1691 H1705 0.961 . S
C1691 H1706 0.961 . S
C1691 H1707 0.961 . S
C1692 C1693 1.370 . S
C1692 C1694 1.363 . S
C1692 H1708 0.931 . S
C1693 C1692 1.370 . S
C1693 C1697 1.408 . S
C1694 C1692 1.363 . S
C1694 C1695 1.370 . S
C1694 C1698 1.524 . S
C1695 C1687 1.503 . S
C1695 C1694 1.370 . S
C1695 C1696 1.403 . S
C1696 C1695 1.403 . S
C1696 C1697 1.404 . S
C1696 C1699 1.539 . S
C1697 C1693 1.408 . S
C1697 C1696 1.404 . S
C1697 H1709 0.930 . S
C1698 C1694 1.524 . S
C1698 H1710 0.956 . S
C1698 H1711 0.961 . S
C1698 H1712 0.961 . S
C1699 C1696 1.539 . S
C1699 H1713 0.958 . S
C1699 H1714 0.961 . S
C1699 H1715 0.960 . S
H1700 C1684 0.931 . S
H1701 C1689 0.929 . S
H1702 C1690 0.960 . S
H1703 C1690 0.962 . S
H1704 C1690 0.960 . S
H1705 C1691 0.961 . S
H1706 C1691 0.961 . S
H1707 C1691 0.961 . S
H1708 C1692 0.931 . S
H1709 C1697 0.930 . S
H1710 C1698 0.956 . S
H1711 C1698 0.961 . S
H1712 C1698 0.961 . S
H1713 C1699 0.958 . S
H1714 C1699 0.961 . S
H1715 C1699 0.960 . S
C1716 C1717 1.391 . S
C1716 C1718 1.394 1_655 S
C1716 H1732 0.931 . S
C1717 C1716 1.391 . S
C1717 C1721 1.376 1_655 S
C1718 C1716 1.394 1_455 S
C1718 C1719 1.369 . S
C1718 C1722 1.531 . S
C1719 C1718 1.369 . S
C1719 C1720 1.410 . S
C1719 C1727 1.503 . S
C1720 C1719 1.410 . S
C1720 C1721 1.392 . S
C1720 C1723 1.511 . S
C1721 C1717 1.376 1_455 S
C1721 C1720 1.392 . S
C1721 H1733 0.928 . S
C1722 C1718 1.531 . S
C1722 H1734 0.960 . S
C1722 H1735 0.962 . S
C1722 H1736 0.960 1_455 S
C1723 C1720 1.511 . S
C1723 H1737 0.961 . S
C1723 H1738 0.961 . S
C1723 H1739 0.961 . S
C1724 C1725 1.370 . S
C1724 C1726 1.363 . S
C1724 H1740 0.931 . S
C1725 C1724 1.370 . S
C1725 C1729 1.408 . S
C1726 C1724 1.363 . S
C1726 C1727 1.370 . S
C1726 C1730 1.524 . S
C1727 C1719 1.503 . S
C1727 C1726 1.370 . S
C1727 C1728 1.403 . S
C1728 C1727 1.403 . S
C1728 C1729 1.404 . S
C1728 C1731 1.539 . S
C1729 C1725 1.408 . S
C1729 C1728 1.404 . S
C1729 H1741 0.930 . S
C1730 C1726 1.524 . S
C1730 H1742 0.956 . S
C1730 H1743 0.961 . S
C1730 H1744 0.961 . S
C1731 C1728 1.539 . S
C1731 H1745 0.958 . S
C1731 H1746 0.961 . S
C1731 H1747 0.960 . S
H1732 C1716 0.931 . S
H1733 C1721 0.928 . S
H1734 C1722 0.960 . S
H1735 C1722 0.962 . S
H1736 C1722 0.960 1_655 S
H1737 C1723 0.961 . S
H1738 C1723 0.961 . S
H1739 C1723 0.961 . S
H1740 C1724 0.931 . S
H1741 C1729 0.930 . S
H1742 C1730 0.956 . S
H1743 C1730 0.961 . S
H1744 C1730 0.961 . S
H1745 C1731 0.958 . S
H1746 C1731 0.961 . S
H1747 C1731 0.960 . S
C1748 C1749 1.391 . S
C1748 C1750 1.394 . S
C1748 H1764 0.931 . S
C1749 C1748 1.391 . S
C1749 C1753 1.376 . S
C1750 C1748 1.394 . S
C1750 C1751 1.369 . S
C1750 C1754 1.531 . S
C1751 C1750 1.369 . S
C1751 C1752 1.410 . S
C1751 C1759 1.503 . S
C1752 C1751 1.410 . S
C1752 C1753 1.392 . S
C1752 C1755 1.511 . S
C1753 C1749 1.376 . S
C1753 C1752 1.392 . S
C1753 H1765 0.929 . S
C1754 C1750 1.531 . S
C1754 H1766 0.960 . S
C1754 H1767 0.962 . S
C1754 H1768 0.960 . S
C1755 C1752 1.511 . S
C1755 H1769 0.961 . S
C1755 H1770 0.961 . S
C1755 H1771 0.961 . S
C1756 C1757 1.370 . S
C1756 C1758 1.363 . S
C1756 H1772 0.931 . S
C1757 C1756 1.370 . S
C1757 C1761 1.408 . S
C1758 C1756 1.363 . S
C1758 C1759 1.370 . S
C1758 C1762 1.524 . S
C1759 C1751 1.503 . S
C1759 C1758 1.370 . S
C1759 C1760 1.403 . S
C1760 C1759 1.403 . S
C1760 C1761 1.404 . S
C1760 C1763 1.539 . S
C1761 C1757 1.408 . S
C1761 C1760 1.404 . S
C1761 H1773 0.930 . S
C1762 C1758 1.524 . S
C1762 H1774 0.956 . S
C1762 H1775 0.961 . S
C1762 H1776 0.961 . S
C1763 C1760 1.539 . S
C1763 H1777 0.958 . S
C1763 H1778 0.961 . S
C1763 H1779 0.960 . S
H1764 C1748 0.931 . S
H1765 C1753 0.929 . S
H1766 C1754 0.960 . S
H1767 C1754 0.962 . S
H1768 C1754 0.960 . S
H1769 C1755 0.961 . S
H1770 C1755 0.961 . S
H1771 C1755 0.961 . S
H1772 C1756 0.931 . S
H1773 C1761 0.930 . S
H1774 C1762 0.956 . S
H1775 C1762 0.961 . S
H1776 C1762 0.961 . S
H1777 C1763 0.958 . S
H1778 C1763 0.961 . S
H1779 C1763 0.960 . S
C1780 C1781 1.391 . S
C1780 C1782 1.394 1_545 S
C1780 H1796 0.931 . S
C1781 C1780 1.391 . S
C1781 C1785 1.376 . S
C1782 C1780 1.394 1_565 S
C1782 C1783 1.369 . S
C1782 C1786 1.531 . S
C1783 C1782 1.369 . S
C1783 C1784 1.410 1_565 S
C1783 C1791 1.503 . S
C1784 C1783 1.410 1_545 S
C1784 C1785 1.392 . S
C1784 C1787 1.511 1_545 S
C1785 C1781 1.376 . S
C1785 C1784 1.392 . S
C1785 H1797 0.929 . S
C1786 C1782 1.531 . S
C1786 H1798 0.960 . S
C1786 H1799 0.962 . S
C1786 H1800 0.960 . S
C1787 C1784 1.511 1_565 S
C1787 H1801 0.961 1_565 S
C1787 H1802 0.961 . S
C1787 H1803 0.961 . S
C1788 C1789 1.370 . S
C1788 C1790 1.363 . S
C1788 H1804 0.931 . S
C1789 C1788 1.370 . S
C1789 C1793 1.408 . S
C1790 C1788 1.363 . S
C1790 C1791 1.370 . S
C1790 C1794 1.524 . S
C1791 C1783 1.503 . S
C1791 C1790 1.370 . S
C1791 C1792 1.403 . S
C1792 C1791 1.403 . S
C1792 C1793 1.404 . S
C1792 C1795 1.539 . S
C1793 C1789 1.408 . S
C1793 C1792 1.404 . S
C1793 H1805 0.930 . S
C1794 C1790 1.524 . S
C1794 H1806 0.956 . S
C1794 H1807 0.961 . S
C1794 H1808 0.961 . S
C1795 C1792 1.539 . S
C1795 H1809 0.958 . S
C1795 H1810 0.961 . S
C1795 H1811 0.960 . S
H1796 C1780 0.931 . S
H1797 C1785 0.929 . S
H1798 C1786 0.960 . S
H1799 C1786 0.962 . S
H1800 C1786 0.960 . S
H1801 C1787 0.961 1_545 S
H1802 C1787 0.961 . S
H1803 C1787 0.961 . S
H1804 C1788 0.931 . S
H1805 C1793 0.930 . S
H1806 C1794 0.956 . S
H1807 C1794 0.961 . S
H1808 C1794 0.961 . S
H1809 C1795 0.958 . S
H1810 C1795 0.961 . S
H1811 C1795 0.960 . S
C1812 C1813 1.391 . S
C1812 C1814 1.394 . S
C1812 H1828 0.931 . S
C1813 C1812 1.391 . S
C1813 C1817 1.376 . S
C1814 C1812 1.394 . S
C1814 C1815 1.369 . S
C1814 C1818 1.531 . S
C1815 C1814 1.369 . S
C1815 C1816 1.410 . S
C1815 C1823 1.503 . S
C1816 C1815 1.410 . S
C1816 C1817 1.392 . S
C1816 C1819 1.511 . S
C1817 C1813 1.376 . S
C1817 C1816 1.392 . S
C1817 H1829 0.929 . S
C1818 C1814 1.531 . S
C1818 H1830 0.960 . S
C1818 H1831 0.962 . S
C1818 H1832 0.960 . S
C1819 C1816 1.511 . S
C1819 H1833 0.961 . S
C1819 H1834 0.961 . S
C1819 H1835 0.961 . S
C1820 C1821 1.370 . S
C1820 C1822 1.363 . S
C1820 H1836 0.931 . S
C1821 C1820 1.370 . S
C1821 C1825 1.408 . S
C1822 C1820 1.363 . S
C1822 C1823 1.370 . S
C1822 C1826 1.524 . S
C1823 C1815 1.503 . S
C1823 C1822 1.370 . S
C1823 C1824 1.403 . S
C1824 C1823 1.403 . S
C1824 C1825 1.404 . S
C1824 C1827 1.539 . S
C1825 C1821 1.408 . S
C1825 C1824 1.404 . S
C1825 H1837 0.930 . S
C1826 C1822 1.524 . S
C1826 H1838 0.956 . S
C1826 H1839 0.961 . S
C1826 H1840 0.961 . S
C1827 C1824 1.539 . S
C1827 H1841 0.958 . S
C1827 H1842 0.961 . S
C1827 H1843 0.960 . S
H1828 C1812 0.931 . S
H1829 C1817 0.929 . S
H1830 C1818 0.960 . S
H1831 C1818 0.962 . S
H1832 C1818 0.960 . S
H1833 C1819 0.961 . S
H1834 C1819 0.961 . S
H1835 C1819 0.961 . S
H1836 C1820 0.931 . S
H1837 C1825 0.930 . S
H1838 C1826 0.956 . S
H1839 C1826 0.961 . S
H1840 C1826 0.961 . S
H1841 C1827 0.958 . S
H1842 C1827 0.961 . S
H1843 C1827 0.960 . S
C1844 C1845 1.391 . S
C1844 C1846 1.394 . S
C1844 H1860 0.931 . S
C1845 C1844 1.391 . S
C1845 C1849 1.376 . S
C1846 C1844 1.394 . S
C1846 C1847 1.369 . S
C1846 C1850 1.531 . S
C1847 C1846 1.369 . S
C1847 C1848 1.410 . S
C1847 C1855 1.503 . S
C1848 C1847 1.410 . S
C1848 C1849 1.392 . S
C1848 C1851 1.511 . S
C1849 C1845 1.376 . S
C1849 C1848 1.392 . S
C1849 H1861 0.929 . S
C1850 C1846 1.531 . S
C1850 H1862 0.960 . S
C1850 H1863 0.962 . S
C1850 H1864 0.960 . S
C1851 C1848 1.511 . S
C1851 H1865 0.961 . S
C1851 H1866 0.961 . S
C1851 H1867 0.961 . S
C1852 C1853 1.370 . S
C1852 C1854 1.363 . S
C1852 H1868 0.931 . S
C1853 C1852 1.370 . S
C1853 C1857 1.408 . S
C1854 C1852 1.363 . S
C1854 C1855 1.370 . S
C1854 C1858 1.524 . S
C1855 C1847 1.503 . S
C1855 C1854 1.370 . S
C1855 C1856 1.403 . S
C1856 C1855 1.403 . S
C1856 C1857 1.404 . S
C1856 C1859 1.539 . S
C1857 C1853 1.408 . S
C1857 C1856 1.404 . S
C1857 H1869 0.930 . S
C1858 C1854 1.524 . S
C1858 H1870 0.956 . S
C1858 H1871 0.961 . S
C1858 H1872 0.961 . S
C1859 C1856 1.539 . S
C1859 H1873 0.958 . S
C1859 H1874 0.961 . S
C1859 H1875 0.960 . S
H1860 C1844 0.931 . S
H1861 C1849 0.929 . S
H1862 C1850 0.960 . S
H1863 C1850 0.962 . S
H1864 C1850 0.960 . S
H1865 C1851 0.961 . S
H1866 C1851 0.961 . S
H1867 C1851 0.961 . S
H1868 C1852 0.931 . S
H1869 C1857 0.930 . S
H1870 C1858 0.956 . S
H1871 C1858 0.961 . S
H1872 C1858 0.961 . S
H1873 C1859 0.958 . S
H1874 C1859 0.961 . S
H1875 C1859 0.960 . S
C1876 C1877 1.391 . S
C1876 C1878 1.394 . S
C1876 H1892 0.931 . S
C1877 C1876 1.391 . S
C1877 C1881 1.376 . S
C1878 C1876 1.394 . S
C1878 C1879 1.369 . S
C1878 C1882 1.531 . S
C1879 C1878 1.369 . S
C1879 C1880 1.410 . S
C1879 C1887 1.503 . S
C1880 C1879 1.410 . S
C1880 C1881 1.392 . S
C1880 C1883 1.511 . S
C1881 C1877 1.376 . S
C1881 C1880 1.392 . S
C1881 H1893 0.929 . S
C1882 C1878 1.531 . S
C1882 H1894 0.960 . S
C1882 H1895 0.962 . S
C1882 H1896 0.960 . S
C1883 C1880 1.511 . S
C1883 H1897 0.961 . S
C1883 H1898 0.961 . S
C1883 H1899 0.961 . S
C1884 C1885 1.370 . S
C1884 C1886 1.363 . S
C1884 H1900 0.931 . S
C1885 C1884 1.370 . S
C1885 C1889 1.408 . S
C1886 C1884 1.363 . S
C1886 C1887 1.370 . S
C1886 C1890 1.524 . S
C1887 C1879 1.503 . S
C1887 C1886 1.370 . S
C1887 C1888 1.403 . S
C1888 C1887 1.403 . S
C1888 C1889 1.404 . S
C1888 C1891 1.539 . S
C1889 C1885 1.408 . S
C1889 C1888 1.404 . S
C1889 H1901 0.930 . S
C1890 C1886 1.524 . S
C1890 H1902 0.956 . S
C1890 H1903 0.961 . S
C1890 H1904 0.961 . S
C1891 C1888 1.539 . S
C1891 H1905 0.958 . S
C1891 H1906 0.961 . S
C1891 H1907 0.960 . S
H1892 C1876 0.931 . S
H1893 C1881 0.929 . S
H1894 C1882 0.960 . S
H1895 C1882 0.962 . S
H1896 C1882 0.960 . S
H1897 C1883 0.961 . S
H1898 C1883 0.961 . S
H1899 C1883 0.961 . S
H1900 C1884 0.931 . S
H1901 C1889 0.930 . S
H1902 C1890 0.956 . S
H1903 C1890 0.961 . S
H1904 C1890 0.961 . S
H1905 C1891 0.958 . S
H1906 C1891 0.961 . S
H1907 C1891 0.960 . S
C1908 C1909 1.391 . S
C1908 C1910 1.394 . S
C1908 H1924 0.931 . S
C1909 C1908 1.391 . S
C1909 C1913 1.376 . S
C1910 C1908 1.394 . S
C1910 C1911 1.369 . S
C1910 C1914 1.531 . S
C1911 C1910 1.369 . S
C1911 C1912 1.410 . S
C1911 C1919 1.503 . S
C1912 C1911 1.410 . S
C1912 C1913 1.392 . S
C1912 C1915 1.511 . S
C1913 C1909 1.376 . S
C1913 C1912 1.392 . S
C1913 H1925 0.929 . S
C1914 C1910 1.531 . S
C1914 H1926 0.960 . S
C1914 H1927 0.962 . S
C1914 H1928 0.960 . S
C1915 C1912 1.511 . S
C1915 H1929 0.961 . S
C1915 H1930 0.961 . S
C1915 H1931 0.961 . S
C1916 C1917 1.370 . S
C1916 C1918 1.363 . S
C1916 H1932 0.931 . S
C1917 C1916 1.370 . S
C1917 C1921 1.408 . S
C1918 C1916 1.363 . S
C1918 C1919 1.370 . S
C1918 C1922 1.524 . S
C1919 C1911 1.503 . S
C1919 C1918 1.370 . S
C1919 C1920 1.403 . S
C1920 C1919 1.403 . S
C1920 C1921 1.404 . S
C1920 C1923 1.539 . S
C1921 C1917 1.408 . S
C1921 C1920 1.404 . S
C1921 H1933 0.930 . S
C1922 C1918 1.524 . S
C1922 H1934 0.956 . S
C1922 H1935 0.961 . S
C1922 H1936 0.961 . S
C1923 C1920 1.539 . S
C1923 H1937 0.958 . S
C1923 H1938 0.961 . S
C1923 H1939 0.960 . S
H1924 C1908 0.931 . S
H1925 C1913 0.929 . S
H1926 C1914 0.960 . S
H1927 C1914 0.962 . S
H1928 C1914 0.960 . S
H1929 C1915 0.961 . S
H1930 C1915 0.961 . S
H1931 C1915 0.961 . S
H1932 C1916 0.931 . S
H1933 C1921 0.930 . S
H1934 C1922 0.956 . S
H1935 C1922 0.961 . S
H1936 C1922 0.961 . S
H1937 C1923 0.958 . S
H1938 C1923 0.961 . S
H1939 C1923 0.960 . S
C1940 C1941 1.391 . S
C1940 C1942 1.394 . S
C1940 H1956 0.931 . S
C1941 C1940 1.391 . S
C1941 C1945 1.376 . S
C1942 C1940 1.394 . S
C1942 C1943 1.369 . S
C1942 C1946 1.531 . S
C1943 C1942 1.369 . S
C1943 C1944 1.410 . S
C1943 C1951 1.503 . S
C1944 C1943 1.410 . S
C1944 C1945 1.392 . S
C1944 C1947 1.511 . S
C1945 C1941 1.376 . S
C1945 C1944 1.392 . S
C1945 H1957 0.929 . S
C1946 C1942 1.531 . S
C1946 H1958 0.960 . S
C1946 H1959 0.962 . S
C1946 H1960 0.960 . S
C1947 C1944 1.511 . S
C1947 H1961 0.961 . S
C1947 H1962 0.961 . S
C1947 H1963 0.961 . S
C1948 C1949 1.370 . S
C1948 C1950 1.363 . S
C1948 H1964 0.931 . S
C1949 C1948 1.370 . S
C1949 C1953 1.408 . S
C1950 C1948 1.363 . S
C1950 C1951 1.370 . S
C1950 C1954 1.524 . S
C1951 C1943 1.503 . S
C1951 C1950 1.370 . S
C1951 C1952 1.403 . S
C1952 C1951 1.403 . S
C1952 C1953 1.404 . S
C1952 C1955 1.539 . S
C1953 C1949 1.408 . S
C1953 C1952 1.404 . S
C1953 H1965 0.930 . S
C1954 C1950 1.524 . S
C1954 H1966 0.956 . S
C1954 H1967 0.961 . S
C1954 H1968 0.961 . S
C1955 C1952 1.539 . S
C1955 H1969 0.958 . S
C1955 H1970 0.961 . S
C1955 H1971 0.960 . S
H1956 C1940 0.931 . S
H1957 C1945 0.929 . S
H1958 C1946 0.960 . S
H1959 C1946 0.962 . S
H1960 C1946 0.960 . S
H1961 C1947 0.961 . S
H1962 C1947 0.961 . S
H1963 C1947 0.961 . S
H1964 C1948 0.931 . S
H1965 C1953 0.930 . S
H1966 C1954 0.956 . S
H1967 C1954 0.961 . S
H1968 C1954 0.961 . S
H1969 C1955 0.958 . S
H1970 C1955 0.961 . S
H1971 C1955 0.960 . S
C1972 C1973 1.391 . S
C1972 C1974 1.394 . S
C1972 H1988 0.931 . S
C1973 C1972 1.391 . S
C1973 C1977 1.376 . S
C1974 C1972 1.394 . S
C1974 C1975 1.369 . S
C1974 C1978 1.531 . S
C1975 C1974 1.369 . S
C1975 C1976 1.410 . S
C1975 C1983 1.503 . S
C1976 C1975 1.410 . S
C1976 C1977 1.392 . S
C1976 C1979 1.511 . S
C1977 C1973 1.376 . S
C1977 C1976 1.392 . S
C1977 H1989 0.929 . S
C1978 C1974 1.531 . S
C1978 H1990 0.960 . S
C1978 H1991 0.962 . S
C1978 H1992 0.960 . S
C1979 C1976 1.511 . S
C1979 H1993 0.961 . S
C1979 H1994 0.961 . S
C1979 H1995 0.961 . S
C1980 C1981 1.370 . S
C1980 C1982 1.363 . S
C1980 H1996 0.931 . S
C1981 C1980 1.370 . S
C1981 C1985 1.408 . S
C1982 C1980 1.363 . S
C1982 C1983 1.370 . S
C1982 C1986 1.524 . S
C1983 C1975 1.503 . S
C1983 C1982 1.370 . S
C1983 C1984 1.403 . S
C1984 C1983 1.403 . S
C1984 C1985 1.404 . S
C1984 C1987 1.539 . S
C1985 C1981 1.408 . S
C1985 C1984 1.404 . S
C1985 H1997 0.930 . S
C1986 C1982 1.524 . S
C1986 H1998 0.956 . S
C1986 H1999 0.961 . S
C1986 H2000 0.961 . S
C1987 C1984 1.539 . S
C1987 H2001 0.958 . S
C1987 H2002 0.961 . S
C1987 H2003 0.960 . S
H1988 C1972 0.931 . S
H1989 C1977 0.929 . S
H1990 C1978 0.960 . S
H1991 C1978 0.962 . S
H1992 C1978 0.960 . S
H1993 C1979 0.961 . S
H1994 C1979 0.961 . S
H1995 C1979 0.961 . S
H1996 C1980 0.931 . S
H1997 C1985 0.930 . S
H1998 C1986 0.956 . S
H1999 C1986 0.961 . S
H2000 C1986 0.961 . S
H2001 C1987 0.958 . S
H2002 C1987 0.961 . S
H2003 C1987 0.960 . S
C2004 C2005 1.391 . S
C2004 C2006 1.394 1_545 S
C2004 H2020 0.931 . S
C2005 C2004 1.391 . S
C2005 C2009 1.376 . S
C2006 C2004 1.394 1_565 S
C2006 C2007 1.369 . S
C2006 C2010 1.531 . S
C2007 C2006 1.369 . S
C2007 C2008 1.442 . S
C2007 C2015 1.503 . S
C2008 C2007 1.442 . S
C2008 C2009 1.369 1_565 S
C2008 C2011 1.502 . S
C2009 C2005 1.376 . S
C2009 C2008 1.369 1_545 S
C2009 H2021 0.929 . S
C2010 C2006 1.531 . S
C2010 H2022 0.960 . S
C2010 H2023 0.962 . S
C2010 H2024 0.960 . S
C2011 C2008 1.502 . S
C2011 H2025 0.961 1_565 S
C2011 H2026 0.961 . S
C2011 H2027 0.961 . S
C2012 C2013 1.370 . S
C2012 C2014 1.363 . S
C2012 H2028 0.931 . S
C2013 C2012 1.370 . S
C2013 C2017 1.408 . S
C2014 C2012 1.363 . S
C2014 C2015 1.370 . S
C2014 C2018 1.524 . S
C2015 C2007 1.503 . S
C2015 C2014 1.370 . S
C2015 C2016 1.403 . S
C2016 C2015 1.403 . S
C2016 C2017 1.404 . S
C2016 C2019 1.539 . S
C2017 C2013 1.408 . S
C2017 C2016 1.404 . S
C2017 H2029 0.930 . S
C2018 C2014 1.524 . S
C2018 H2030 0.956 . S
C2018 H2031 0.961 . S
C2018 H2032 0.961 . S
C2019 C2016 1.539 . S
C2019 H2033 0.958 . S
C2019 H2034 0.961 . S
C2019 H2035 0.960 . S
H2020 C2004 0.931 . S
H2021 C2009 0.929 . S
H2022 C2010 0.960 . S
H2023 C2010 0.962 . S
H2024 C2010 0.960 . S
H2025 C2011 0.961 1_545 S
H2026 C2011 0.961 . S
H2027 C2011 0.961 . S
H2028 C2012 0.931 . S
H2029 C2017 0.930 . S
H2030 C2018 0.956 . S
H2031 C2018 0.961 . S
H2032 C2018 0.961 . S
H2033 C2019 0.958 . S
H2034 C2019 0.961 . S
H2035 C2019 0.960 . S
C2036 C2037 1.391 . S
C2036 C2038 1.394 1_655 S
C2036 H2052 0.931 . S
C2037 C2036 1.391 . S
C2037 C2041 1.376 1_655 S
C2038 C2036 1.394 1_455 S
C2038 C2039 1.369 . S
C2038 C2042 1.531 . S
C2039 C2038 1.369 . S
C2039 C2040 1.410 . S
C2039 C2047 1.503 . S
C2040 C2039 1.410 . S
C2040 C2041 1.392 . S
C2040 C2043 1.511 . S
C2041 C2037 1.376 1_455 S
C2041 C2040 1.392 . S
C2041 H2053 0.929 . S
C2042 C2038 1.531 . S
C2042 H2054 0.960 . S
C2042 H2055 0.962 . S
C2042 H2056 0.960 1_455 S
C2043 C2040 1.511 . S
C2043 H2057 0.961 . S
C2043 H2058 0.961 . S
C2043 H2059 0.961 . S
C2044 C2045 1.370 . S
C2044 C2046 1.363 . S
C2044 H2060 0.931 . S
C2045 C2044 1.370 . S
C2045 C2049 1.408 . S
C2046 C2044 1.363 . S
C2046 C2047 1.370 . S
C2046 C2050 1.524 . S
C2047 C2039 1.503 . S
C2047 C2046 1.370 . S
C2047 C2048 1.403 . S
C2048 C2047 1.403 . S
C2048 C2049 1.404 . S
C2048 C2051 1.539 . S
C2049 C2045 1.408 . S
C2049 C2048 1.404 . S
C2049 H2061 0.930 . S
C2050 C2046 1.524 . S
C2050 H2062 0.956 . S
C2050 H2063 0.961 . S
C2050 H2064 0.961 . S
C2051 C2048 1.539 . S
C2051 H2065 0.958 . S
C2051 H2066 0.961 . S
C2051 H2067 0.960 . S
H2052 C2036 0.931 . S
H2053 C2041 0.929 . S
H2054 C2042 0.960 . S
H2055 C2042 0.962 . S
H2056 C2042 0.960 1_655 S
H2057 C2043 0.961 . S
H2058 C2043 0.961 . S
H2059 C2043 0.961 . S
H2060 C2044 0.931 . S
H2061 C2049 0.930 . S
H2062 C2050 0.956 . S
H2063 C2050 0.961 . S
H2064 C2050 0.961 . S
H2065 C2051 0.958 . S
H2066 C2051 0.961 . S
H2067 C2051 0.960 . S
C2068 C2069 1.391 . S
C2068 C2070 1.394 . S
C2068 H2084 0.931 . S
C2069 C2068 1.391 . S
C2069 C2073 1.376 . S
C2070 C2068 1.394 . S
C2070 C2071 1.369 . S
C2070 C2074 1.531 . S
C2071 C2070 1.369 . S
C2071 C2072 1.410 . S
C2071 C2079 1.503 . S
C2072 C2071 1.410 . S
C2072 C2073 1.392 . S
C2072 C2075 1.511 . S
C2073 C2069 1.376 . S
C2073 C2072 1.392 . S
C2073 H2085 0.929 . S
C2074 C2070 1.531 . S
C2074 H2086 0.960 . S
C2074 H2087 0.962 . S
C2074 H2088 0.960 . S
C2075 C2072 1.511 . S
C2075 H2089 0.961 . S
C2075 H2090 0.961 . S
C2075 H2091 0.961 . S
C2076 C2077 1.370 . S
C2076 C2078 1.363 . S
C2076 H2092 0.931 . S
C2077 C2076 1.370 . S
C2077 C2081 1.408 . S
C2078 C2076 1.363 . S
C2078 C2079 1.370 . S
C2078 C2082 1.524 . S
C2079 C2071 1.503 . S
C2079 C2078 1.370 . S
C2079 C2080 1.403 . S
C2080 C2079 1.403 . S
C2080 C2081 1.404 . S
C2080 C2083 1.539 . S
C2081 C2077 1.408 . S
C2081 C2080 1.404 . S
C2081 H2093 0.930 . S
C2082 C2078 1.524 . S
C2082 H2094 0.956 . S
C2082 H2095 0.961 . S
C2082 H2096 0.961 . S
C2083 C2080 1.539 . S
C2083 H2097 0.958 . S
C2083 H2098 0.961 . S
C2083 H2099 0.960 . S
H2084 C2068 0.931 . S
H2085 C2073 0.929 . S
H2086 C2074 0.960 . S
H2087 C2074 0.962 . S
H2088 C2074 0.960 . S
H2089 C2075 0.961 . S
H2090 C2075 0.961 . S
H2091 C2075 0.961 . S
H2092 C2076 0.931 . S
H2093 C2081 0.930 . S
H2094 C2082 0.956 . S
H2095 C2082 0.961 . S
H2096 C2082 0.961 . S
H2097 C2083 0.958 . S
H2098 C2083 0.961 . S
H2099 C2083 0.960 . S
C2100 C2101 1.391 . S
C2100 C2102 1.394 . S
C2100 H2116 0.931 . S
C2101 C2100 1.391 . S
C2101 C2105 1.376 . S
C2102 C2100 1.394 . S
C2102 C2103 1.369 . S
C2102 C2106 1.531 . S
C2103 C2102 1.369 . S
C2103 C2104 1.410 . S
C2103 C2111 1.503 . S
C2104 C2103 1.410 . S
C2104 C2105 1.392 . S
C2104 C2107 1.511 . S
C2105 C2101 1.376 . S
C2105 C2104 1.392 . S
C2105 H2117 0.929 . S
C2106 C2102 1.531 . S
C2106 H2118 0.960 . S
C2106 H2119 0.962 . S
C2106 H2120 0.960 . S
C2107 C2104 1.511 . S
C2107 H2121 0.961 . S
C2107 H2122 0.961 . S
C2107 H2123 0.961 . S
C2108 C2109 1.370 . S
C2108 C2110 1.363 . S
C2108 H2124 0.931 . S
C2109 C2108 1.370 . S
C2109 C2113 1.408 . S
C2110 C2108 1.363 . S
C2110 C2111 1.370 . S
C2110 C2114 1.524 . S
C2111 C2103 1.503 . S
C2111 C2110 1.370 . S
C2111 C2112 1.403 . S
C2112 C2111 1.403 . S
C2112 C2113 1.404 . S
C2112 C2115 1.539 . S
C2113 C2109 1.408 . S
C2113 C2112 1.404 . S
C2113 H2125 0.930 . S
C2114 C2110 1.524 . S
C2114 H2126 0.956 . S
C2114 H2127 0.961 . S
C2114 H2128 0.961 . S
C2115 C2112 1.539 . S
C2115 H2129 0.958 . S
C2115 H2130 0.961 . S
C2115 H2131 0.960 . S
H2116 C2100 0.931 . S
H2117 C2105 0.929 . S
H2118 C2106 0.960 . S
H2119 C2106 0.962 . S
H2120 C2106 0.960 . S
H2121 C2107 0.961 . S
H2122 C2107 0.961 . S
H2123 C2107 0.961 . S
H2124 C2108 0.931 . S
H2125 C2113 0.930 . S
H2126 C2114 0.956 . S
H2127 C2114 0.961 . S
H2128 C2114 0.961 . S
H2129 C2115 0.958 . S
H2130 C2115 0.961 . S
H2131 C2115 0.960 . S
C2132 C2133 1.391 . S
C2132 C2134 1.394 . S
C2132 H2148 0.931 . S
C2133 C2132 1.391 . S
C2133 C2137 1.376 . S
C2134 C2132 1.394 . S
C2134 C2135 1.369 . S
C2134 C2138 1.531 . S
C2135 C2134 1.369 . S
C2135 C2136 1.410 . S
C2135 C2143 1.503 . S
C2136 C2135 1.410 . S
C2136 C2137 1.392 . S
C2136 C2139 1.511 . S
C2137 C2133 1.376 . S
C2137 C2136 1.392 . S
C2137 H2149 0.929 . S
C2138 C2134 1.531 . S
C2138 H2150 0.960 . S
C2138 H2151 0.962 . S
C2138 H2152 0.960 . S
C2139 C2136 1.511 . S
C2139 H2153 0.961 . S
C2139 H2154 0.961 . S
C2139 H2155 0.961 . S
C2140 C2141 1.370 . S
C2140 C2142 1.363 . S
C2140 H2156 0.931 . S
C2141 C2140 1.370 . S
C2141 C2145 1.408 . S
C2142 C2140 1.363 . S
C2142 C2143 1.370 . S
C2142 C2146 1.524 . S
C2143 C2135 1.503 . S
C2143 C2142 1.370 . S
C2143 C2144 1.403 . S
C2144 C2143 1.403 . S
C2144 C2145 1.404 . S
C2144 C2147 1.539 . S
C2145 C2141 1.408 . S
C2145 C2144 1.404 . S
C2145 H2157 0.930 . S
C2146 C2142 1.524 . S
C2146 H2158 0.956 . S
C2146 H2159 0.961 . S
C2146 H2160 0.961 . S
C2147 C2144 1.539 . S
C2147 H2161 0.958 . S
C2147 H2162 0.961 . S
C2147 H2163 0.960 . S
H2148 C2132 0.931 . S
H2149 C2137 0.929 . S
H2150 C2138 0.960 . S
H2151 C2138 0.962 . S
H2152 C2138 0.960 . S
H2153 C2139 0.961 . S
H2154 C2139 0.961 . S
H2155 C2139 0.961 . S
H2156 C2140 0.931 . S
H2157 C2145 0.930 . S
H2158 C2146 0.956 . S
H2159 C2146 0.961 . S
H2160 C2146 0.961 . S
H2161 C2147 0.958 . S
H2162 C2147 0.961 . S
H2163 C2147 0.960 . S
C2164 C2165 1.391 . S
C2164 C2166 1.394 . S
C2164 H2180 0.931 . S
C2165 C2164 1.391 . S
C2165 C2169 1.376 . S
C2166 C2164 1.394 . S
C2166 C2167 1.369 . S
C2166 C2170 1.531 . S
C2167 C2166 1.369 . S
C2167 C2168 1.410 . S
C2167 C2175 1.503 . S
C2168 C2167 1.410 . S
C2168 C2169 1.392 . S
C2168 C2171 1.511 . S
C2169 C2165 1.376 . S
C2169 C2168 1.392 . S
C2169 H2181 0.929 . S
C2170 C2166 1.531 . S
C2170 H2182 0.960 . S
C2170 H2183 0.962 . S
C2170 H2184 0.960 . S
C2171 C2168 1.511 . S
C2171 H2185 0.961 . S
C2171 H2186 0.961 . S
C2171 H2187 0.961 . S
C2172 C2173 1.370 . S
C2172 C2174 1.363 . S
C2172 H2188 0.931 . S
C2173 C2172 1.370 . S
C2173 C2177 1.408 . S
C2174 C2172 1.363 . S
C2174 C2175 1.370 . S
C2174 C2178 1.524 . S
C2175 C2167 1.503 . S
C2175 C2174 1.370 . S
C2175 C2176 1.403 . S
C2176 C2175 1.403 . S
C2176 C2177 1.404 . S
C2176 C2179 1.539 . S
C2177 C2173 1.408 . S
C2177 C2176 1.404 . S
C2177 H2189 0.930 . S
C2178 C2174 1.524 . S
C2178 H2190 0.956 . S
C2178 H2191 0.961 . S
C2178 H2192 0.961 . S
C2179 C2176 1.539 . S
C2179 H2193 0.958 . S
C2179 H2194 0.961 . S
C2179 H2195 0.960 . S
H2180 C2164 0.931 . S
H2181 C2169 0.929 . S
H2182 C2170 0.960 . S
H2183 C2170 0.962 . S
H2184 C2170 0.960 . S
H2185 C2171 0.961 . S
H2186 C2171 0.961 . S
H2187 C2171 0.961 . S
H2188 C2172 0.931 . S
H2189 C2177 0.930 . S
H2190 C2178 0.956 . S
H2191 C2178 0.961 . S
H2192 C2178 0.961 . S
H2193 C2179 0.958 . S
H2194 C2179 0.961 . S
H2195 C2179 0.960 . S
C2196 C2197 1.391 . S
C2196 C2198 1.394 1_565 S
C2196 H2212 0.931 . S
C2197 C2196 1.391 . S
C2197 C2201 1.376 . S
C2198 C2196 1.394 1_545 S
C2198 C2199 1.369 . S
C2198 C2202 1.531 . S
C2199 C2198 1.369 . S
C2199 C2200 1.410 . S
C2199 C2207 1.503 . S
C2200 C2199 1.410 . S
C2200 C2201 1.392 1_545 S
C2200 C2203 1.511 . S
C2201 C2197 1.376 . S
C2201 C2200 1.392 1_565 S
C2201 H2213 0.929 . S
C2202 C2198 1.531 . S
C2202 H2214 0.960 . S
C2202 H2215 0.962 . S
C2202 H2216 0.960 . S
C2203 C2200 1.511 . S
C2203 H2217 0.961 . S
C2203 H2218 0.961 . S
C2203 H2219 0.961 . S
C2204 C2205 1.370 . S
C2204 C2206 1.363 . S
C2204 H2220 0.931 . S
C2205 C2204 1.370 . S
C2205 C2209 1.408 . S
C2206 C2204 1.363 . S
C2206 C2207 1.370 . S
C2206 C2210 1.524 . S
C2207 C2199 1.503 . S
C2207 C2206 1.370 . S
C2207 C2208 1.403 . S
C2208 C2207 1.403 . S
C2208 C2209 1.404 . S
C2208 C2211 1.539 . S
C2209 C2205 1.408 . S
C2209 C2208 1.404 . S
C2209 H2221 0.930 . S
C2210 C2206 1.524 . S
C2210 H2222 0.956 . S
C2210 H2223 0.961 . S
C2210 H2224 0.961 . S
C2211 C2208 1.539 . S
C2211 H2225 0.958 . S
C2211 H2226 0.961 . S
C2211 H2227 0.960 . S
H2212 C2196 0.931 . S
H2213 C2201 0.929 . S
H2214 C2202 0.960 . S
H2215 C2202 0.962 . S
H2216 C2202 0.960 . S
H2217 C2203 0.961 . S
H2218 C2203 0.961 . S
H2219 C2203 0.961 . S
H2220 C2204 0.931 . S
H2221 C2209 0.930 . S
H2222 C2210 0.956 . S
H2223 C2210 0.961 . S
H2224 C2210 0.961 . S
H2225 C2211 0.958 . S
H2226 C2211 0.961 . S
H2227 C2211 0.960 . S
C2228 C2229 1.391 . S
C2228 C2230 1.394 1_455 S
C2228 H2244 0.931 . S
C2229 C2228 1.391 . S
C2229 C2233 1.376 . S
C2230 C2228 1.394 1_655 S
C2230 C2231 1.369 . S
C2230 C2234 1.531 . S
C2231 C2230 1.369 . S
C2231 C2232 1.410 . S
C2231 C2239 1.503 . S
C2232 C2231 1.410 . S
C2232 C2233 1.392 1_655 S
C2232 C2235 1.511 . S
C2233 C2229 1.376 . S
C2233 C2232 1.392 1_455 S
C2233 H2245 0.929 . S
C2234 C2230 1.531 . S
C2234 H2246 0.960 . S
C2234 H2247 0.962 . S
C2234 H2248 0.960 1_655 S
C2235 C2232 1.511 . S
C2235 H2249 0.961 . S
C2235 H2250 0.961 . S
C2235 H2251 0.961 . S
C2236 C2237 1.370 . S
C2236 C2238 1.363 . S
C2236 H2252 0.931 . S
C2237 C2236 1.370 . S
C2237 C2241 1.408 . S
C2238 C2236 1.363 . S
C2238 C2239 1.370 . S
C2238 C2242 1.524 . S
C2239 C2231 1.503 . S
C2239 C2238 1.370 . S
C2239 C2240 1.403 . S
C2240 C2239 1.403 . S
C2240 C2241 1.404 . S
C2240 C2243 1.539 . S
C2241 C2237 1.408 . S
C2241 C2240 1.404 . S
C2241 H2253 0.930 . S
C2242 C2238 1.524 . S
C2242 H2254 0.956 . S
C2242 H2255 0.961 . S
C2242 H2256 0.961 . S
C2243 C2240 1.539 . S
C2243 H2257 0.958 . S
C2243 H2258 0.961 . S
C2243 H2259 0.960 . S
H2244 C2228 0.931 . S
H2245 C2233 0.929 . S
H2246 C2234 0.960 . S
H2247 C2234 0.962 . S
H2248 C2234 0.960 1_455 S
H2249 C2235 0.961 . S
H2250 C2235 0.961 . S
H2251 C2235 0.961 . S
H2252 C2236 0.931 . S
H2253 C2241 0.930 . S
H2254 C2242 0.956 . S
H2255 C2242 0.961 . S
H2256 C2242 0.961 . S
H2257 C2243 0.958 . S
H2258 C2243 0.961 . S
H2259 C2243 0.960 . S
C2260 C2261 1.391 . S
C2260 C2262 1.394 . S
C2260 H2276 0.931 . S
C2261 C2260 1.391 . S
C2261 C2265 1.376 . S
C2262 C2260 1.394 . S
C2262 C2263 1.369 . S
C2262 C2266 1.531 . S
C2263 C2262 1.369 . S
C2263 C2264 1.410 . S
C2263 C2271 1.503 . S
C2264 C2263 1.410 . S
C2264 C2265 1.392 . S
C2264 C2267 1.511 . S
C2265 C2261 1.376 . S
C2265 C2264 1.392 . S
C2265 H2277 0.929 . S
C2266 C2262 1.531 . S
C2266 H2278 0.960 . S
C2266 H2279 0.962 . S
C2266 H2280 0.960 . S
C2267 C2264 1.511 . S
C2267 H2281 0.961 . S
C2267 H2282 0.961 . S
C2267 H2283 0.961 . S
C2268 C2269 1.370 . S
C2268 C2270 1.363 . S
C2268 H2284 0.931 . S
C2269 C2268 1.370 . S
C2269 C2273 1.408 . S
C2270 C2268 1.363 . S
C2270 C2271 1.370 . S
C2270 C2274 1.524 . S
C2271 C2263 1.503 . S
C2271 C2270 1.370 . S
C2271 C2272 1.403 . S
C2272 C2271 1.403 . S
C2272 C2273 1.404 . S
C2272 C2275 1.539 . S
C2273 C2269 1.408 . S
C2273 C2272 1.404 . S
C2273 H2285 0.930 . S
C2274 C2270 1.524 . S
C2274 H2286 0.956 . S
C2274 H2287 0.961 . S
C2274 H2288 0.961 . S
C2275 C2272 1.539 . S
C2275 H2289 0.958 . S
C2275 H2290 0.961 . S
C2275 H2291 0.960 . S
H2276 C2260 0.931 . S
H2277 C2265 0.929 . S
H2278 C2266 0.960 . S
H2279 C2266 0.962 . S
H2280 C2266 0.960 . S
H2281 C2267 0.961 . S
H2282 C2267 0.961 . S
H2283 C2267 0.961 . S
H2284 C2268 0.931 . S
H2285 C2273 0.930 . S
H2286 C2274 0.956 . S
H2287 C2274 0.961 . S
H2288 C2274 0.961 . S
H2289 C2275 0.958 . S
H2290 C2275 0.961 . S
H2291 C2275 0.960 . S
C2292 C2293 1.391 . S
C2292 C2294 1.394 1_455 S
C2292 H2308 0.931 . S
C2293 C2292 1.391 . S
C2293 C2297 1.382 . S
C2294 C2292 1.394 1_655 S
C2294 C2295 1.369 . S
C2294 C2298 1.531 . S
C2295 C2294 1.369 . S
C2295 C2296 1.410 . S
C2295 C2303 1.503 . S
C2296 C2295 1.410 . S
C2296 C2297 1.387 1_655 S
C2296 C2299 1.511 . S
C2297 C2293 1.382 . S
C2297 C2296 1.387 1_455 S
C2297 H2309 0.928 . S
C2298 C2294 1.531 . S
C2298 H2310 0.960 . S
C2298 H2311 0.962 . S
C2298 H2312 0.960 1_655 S
C2299 C2296 1.511 . S
C2299 H2313 0.961 . S
C2299 H2314 0.961 . S
C2299 H2315 0.961 . S
C2300 C2301 1.370 . S
C2300 C2302 1.363 . S
C2300 H2316 0.931 . S
C2301 C2300 1.370 . S
C2301 C2305 1.408 . S
C2302 C2300 1.363 . S
C2302 C2303 1.370 . S
C2302 C2306 1.524 . S
C2303 C2295 1.503 . S
C2303 C2302 1.370 . S
C2303 C2304 1.403 . S
C2304 C2303 1.403 . S
C2304 C2305 1.404 . S
C2304 C2307 1.539 . S
C2305 C2301 1.408 . S
C2305 C2304 1.404 . S
C2305 H2317 0.930 . S
C2306 C2302 1.524 . S
C2306 H2318 0.956 . S
C2306 H2319 0.961 . S
C2306 H2320 0.961 . S
C2307 C2304 1.539 . S
C2307 H2321 0.958 . S
C2307 H2322 0.961 . S
C2307 H2323 0.960 . S
H2308 C2292 0.931 . S
H2309 C2297 0.928 . S
H2310 C2298 0.960 . S
H2311 C2298 0.962 . S
H2312 C2298 0.960 1_455 S
H2313 C2299 0.961 . S
H2314 C2299 0.961 . S
H2315 C2299 0.961 . S
H2316 C2300 0.931 . S
H2317 C2305 0.930 . S
H2318 C2306 0.956 . S
H2319 C2306 0.961 . S
H2320 C2306 0.961 . S
H2321 C2307 0.958 . S
H2322 C2307 0.961 . S
H2323 C2307 0.960 . S
C2324 C2325 1.391 . S
C2324 C2326 1.394 . S
C2324 H2340 0.931 . S
C2325 C2324 1.391 . S
C2325 C2329 1.376 . S
C2326 C2324 1.394 . S
C2326 C2327 1.369 . S
C2326 C2330 1.531 . S
C2327 C2326 1.369 . S
C2327 C2328 1.410 . S
C2327 C2335 1.503 . S
C2328 C2327 1.410 . S
C2328 C2329 1.392 . S
C2328 C2331 1.511 . S
C2329 C2325 1.376 . S
C2329 C2328 1.392 . S
C2329 H2341 0.929 . S
C2330 C2326 1.531 . S
C2330 H2342 0.960 . S
C2330 H2343 0.962 . S
C2330 H2344 0.960 . S
C2331 C2328 1.511 . S
C2331 H2345 0.961 . S
C2331 H2346 0.961 . S
C2331 H2347 0.961 . S
C2332 C2333 1.370 . S
C2332 C2334 1.363 . S
C2332 H2348 0.931 . S
C2333 C2332 1.370 . S
C2333 C2337 1.408 . S
C2334 C2332 1.363 . S
C2334 C2335 1.370 . S
C2334 C2338 1.524 . S
C2335 C2327 1.503 . S
C2335 C2334 1.370 . S
C2335 C2336 1.403 . S
C2336 C2335 1.403 . S
C2336 C2337 1.404 . S
C2336 C2339 1.539 . S
C2337 C2333 1.408 . S
C2337 C2336 1.404 . S
C2337 H2349 0.930 . S
C2338 C2334 1.524 . S
C2338 H2350 0.956 . S
C2338 H2351 0.961 . S
C2338 H2352 0.961 . S
C2339 C2336 1.539 . S
C2339 H2353 0.958 . S
C2339 H2354 0.961 . S
C2339 H2355 0.960 . S
H2340 C2324 0.931 . S
H2341 C2329 0.929 . S
H2342 C2330 0.960 . S
H2343 C2330 0.962 . S
H2344 C2330 0.960 . S
H2345 C2331 0.961 . S
H2346 C2331 0.961 . S
H2347 C2331 0.961 . S
H2348 C2332 0.931 . S
H2349 C2337 0.930 . S
H2350 C2338 0.956 . S
H2351 C2338 0.961 . S
H2352 C2338 0.961 . S
H2353 C2339 0.958 . S
H2354 C2339 0.961 . S
H2355 C2339 0.960 . S
C2356 C2357 1.391 . S
C2356 C2358 1.394 1_565 S
C2356 H2372 0.931 . S
C2357 C2356 1.391 . S
C2357 C2361 1.376 . S
C2358 C2356 1.394 1_545 S
C2358 C2359 1.369 . S
C2358 C2362 1.531 . S
C2359 C2358 1.369 . S
C2359 C2360 1.413 . S
C2359 C2367 1.503 . S
C2360 C2359 1.413 . S
C2360 C2361 1.386 1_545 S
C2360 C2363 1.513 . S
C2361 C2357 1.376 . S
C2361 C2360 1.386 1_565 S
C2361 H2373 0.929 . S
C2362 C2358 1.531 . S
C2362 H2374 0.960 . S
C2362 H2375 0.962 . S
C2362 H2376 0.960 . S
C2363 C2360 1.513 . S
C2363 H2377 0.961 1_545 S
C2363 H2378 0.961 . S
C2363 H2379 0.961 . S
C2364 C2365 1.370 . S
C2364 C2366 1.363 . S
C2364 H2380 0.931 . S
C2365 C2364 1.370 . S
C2365 C2369 1.408 . S
C2366 C2364 1.363 . S
C2366 C2367 1.370 . S
C2366 C2370 1.524 . S
C2367 C2359 1.503 . S
C2367 C2366 1.370 . S
C2367 C2368 1.403 . S
C2368 C2367 1.403 . S
C2368 C2369 1.404 . S
C2368 C2371 1.539 . S
C2369 C2365 1.408 . S
C2369 C2368 1.404 . S
C2369 H2381 0.930 . S
C2370 C2366 1.524 . S
C2370 H2382 0.956 . S
C2370 H2383 0.961 . S
C2370 H2384 0.961 . S
C2371 C2368 1.539 . S
C2371 H2385 0.958 . S
C2371 H2386 0.961 . S
C2371 H2387 0.960 . S
H2372 C2356 0.931 . S
H2373 C2361 0.929 . S
H2374 C2362 0.960 . S
H2375 C2362 0.962 . S
H2376 C2362 0.960 . S
H2377 C2363 0.961 1_565 S
H2378 C2363 0.961 . S
H2379 C2363 0.961 . S
H2380 C2364 0.931 . S
H2381 C2369 0.930 . S
H2382 C2370 0.956 . S
H2383 C2370 0.961 . S
H2384 C2370 0.961 . S
H2385 C2371 0.958 . S
H2386 C2371 0.961 . S
H2387 C2371 0.960 . S
C2388 C2389 1.391 . S
C2388 C2390 1.394 . S
C2388 H2404 0.931 . S
C2389 C2388 1.391 . S
C2389 C2393 1.376 . S
C2390 C2388 1.394 . S
C2390 C2391 1.369 . S
C2390 C2394 1.531 . S
C2391 C2390 1.369 . S
C2391 C2392 1.410 . S
C2391 C2399 1.503 . S
C2392 C2391 1.410 . S
C2392 C2393 1.392 . S
C2392 C2395 1.511 . S
C2393 C2389 1.376 . S
C2393 C2392 1.392 . S
C2393 H2405 0.929 . S
C2394 C2390 1.531 . S
C2394 H2406 0.960 . S
C2394 H2407 0.962 . S
C2394 H2408 0.960 . S
C2395 C2392 1.511 . S
C2395 H2409 0.961 . S
C2395 H2410 0.961 . S
C2395 H2411 0.961 . S
C2396 C2397 1.370 . S
C2396 C2398 1.363 . S
C2396 H2412 0.931 . S
C2397 C2396 1.370 . S
C2397 C2401 1.408 . S
C2398 C2396 1.363 . S
C2398 C2399 1.370 . S
C2398 C2402 1.524 . S
C2399 C2391 1.503 . S
C2399 C2398 1.370 . S
C2399 C2400 1.403 . S
C2400 C2399 1.403 . S
C2400 C2401 1.404 . S
C2400 C2403 1.539 . S
C2401 C2397 1.408 . S
C2401 C2400 1.404 . S
C2401 H2413 0.930 . S
C2402 C2398 1.524 . S
C2402 H2414 0.956 . S
C2402 H2415 0.961 . S
C2402 H2416 0.961 . S
C2403 C2400 1.539 . S
C2403 H2417 0.958 . S
C2403 H2418 0.961 . S
C2403 H2419 0.960 . S
H2404 C2388 0.931 . S
H2405 C2393 0.929 . S
H2406 C2394 0.960 . S
H2407 C2394 0.962 . S
H2408 C2394 0.960 . S
H2409 C2395 0.961 . S
H2410 C2395 0.961 . S
H2411 C2395 0.961 . S
H2412 C2396 0.931 . S
H2413 C2401 0.930 . S
H2414 C2402 0.956 . S
H2415 C2402 0.961 . S
H2416 C2402 0.961 . S
H2417 C2403 0.958 . S
H2418 C2403 0.961 . S
H2419 C2403 0.960 . S
C2420 C2421 1.391 . S
C2420 C2422 1.394 . S
C2420 H2436 0.931 . S
C2421 C2420 1.391 . S
C2421 C2425 1.376 . S
C2422 C2420 1.394 . S
C2422 C2423 1.369 . S
C2422 C2426 1.531 . S
C2423 C2422 1.369 . S
C2423 C2424 1.410 . S
C2423 C2431 1.503 . S
C2424 C2423 1.410 . S
C2424 C2425 1.392 . S
C2424 C2427 1.511 . S
C2425 C2421 1.376 . S
C2425 C2424 1.392 . S
C2425 H2437 0.929 . S
C2426 C2422 1.531 . S
C2426 H2438 0.960 . S
C2426 H2439 0.962 . S
C2426 H2440 0.960 . S
C2427 C2424 1.511 . S
C2427 H2441 0.961 . S
C2427 H2442 0.961 . S
C2427 H2443 0.961 . S
C2428 C2429 1.370 . S
C2428 C2430 1.363 . S
C2428 H2444 0.931 . S
C2429 C2428 1.370 . S
C2429 C2433 1.408 . S
C2430 C2428 1.363 . S
C2430 C2431 1.370 . S
C2430 C2434 1.524 . S
C2431 C2423 1.503 . S
C2431 C2430 1.370 . S
C2431 C2432 1.403 . S
C2432 C2431 1.403 . S
C2432 C2433 1.404 . S
C2432 C2435 1.539 . S
C2433 C2429 1.408 . S
C2433 C2432 1.404 . S
C2433 H2445 0.930 . S
C2434 C2430 1.524 . S
C2434 H2446 0.956 . S
C2434 H2447 0.961 . S
C2434 H2448 0.961 . S
C2435 C2432 1.539 . S
C2435 H2449 0.958 . S
C2435 H2450 0.961 . S
C2435 H2451 0.960 . S
H2436 C2420 0.931 . S
H2437 C2425 0.929 . S
H2438 C2426 0.960 . S
H2439 C2426 0.962 . S
H2440 C2426 0.960 . S
H2441 C2427 0.961 . S
H2442 C2427 0.961 . S
H2443 C2427 0.961 . S
H2444 C2428 0.931 . S
H2445 C2433 0.930 . S
H2446 C2434 0.956 . S
H2447 C2434 0.961 . S
H2448 C2434 0.961 . S
H2449 C2435 0.958 . S
H2450 C2435 0.961 . S
H2451 C2435 0.960 . S
C2452 C2453 1.391 . S
C2452 C2454 1.394 . S
C2452 H2468 0.931 . S
C2453 C2452 1.391 . S
C2453 C2457 1.376 . S
C2454 C2452 1.394 . S
C2454 C2455 1.369 . S
C2454 C2458 1.531 . S
C2455 C2454 1.369 . S
C2455 C2456 1.410 . S
C2455 C2463 1.503 . S
C2456 C2455 1.410 . S
C2456 C2457 1.392 . S
C2456 C2459 1.511 . S
C2457 C2453 1.376 . S
C2457 C2456 1.392 . S
C2457 H2469 0.929 . S
C2458 C2454 1.531 . S
C2458 H2470 0.960 . S
C2458 H2471 0.962 . S
C2458 H2472 0.960 . S
C2459 C2456 1.511 . S
C2459 H2473 0.961 . S
C2459 H2474 0.961 . S
C2459 H2475 0.961 . S
C2460 C2461 1.370 . S
C2460 C2462 1.363 . S
C2460 H2476 0.931 . S
C2461 C2460 1.370 . S
C2461 C2465 1.408 . S
C2462 C2460 1.363 . S
C2462 C2463 1.370 . S
C2462 C2466 1.524 . S
C2463 C2455 1.503 . S
C2463 C2462 1.370 . S
C2463 C2464 1.403 . S
C2464 C2463 1.403 . S
C2464 C2465 1.404 . S
C2464 C2467 1.539 . S
C2465 C2461 1.408 . S
C2465 C2464 1.404 . S
C2465 H2477 0.930 . S
C2466 C2462 1.524 . S
C2466 H2478 0.956 . S
C2466 H2479 0.961 . S
C2466 H2480 0.961 . S
C2467 C2464 1.539 . S
C2467 H2481 0.958 . S
C2467 H2482 0.961 . S
C2467 H2483 0.960 . S
H2468 C2452 0.931 . S
H2469 C2457 0.929 . S
H2470 C2458 0.960 . S
H2471 C2458 0.962 . S
H2472 C2458 0.960 . S
H2473 C2459 0.961 . S
H2474 C2459 0.961 . S
H2475 C2459 0.961 . S
H2476 C2460 0.931 . S
H2477 C2465 0.930 . S
H2478 C2466 0.956 . S
H2479 C2466 0.961 . S
H2480 C2466 0.961 . S
H2481 C2467 0.958 . S
H2482 C2467 0.961 . S
H2483 C2467 0.960 . S
C2484 C2485 1.391 . S
C2484 C2486 1.394 . S
C2484 H2500 0.931 . S
C2485 C2484 1.391 . S
C2485 C2489 1.376 . S
C2486 C2484 1.394 . S
C2486 C2487 1.369 . S
C2486 C2490 1.531 . S
C2487 C2486 1.369 . S
C2487 C2488 1.410 . S
C2487 C2495 1.503 . S
C2488 C2487 1.410 . S
C2488 C2489 1.392 . S
C2488 C2491 1.511 . S
C2489 C2485 1.376 . S
C2489 C2488 1.392 . S
C2489 H2501 0.929 . S
C2490 C2486 1.531 . S
C2490 H2502 0.960 . S
C2490 H2503 0.962 . S
C2490 H2504 0.948 1_565 S
C2491 C2488 1.511 . S
C2491 H2505 0.961 . S
C2491 H2506 0.961 . S
C2491 H2507 0.961 . S
C2492 C2493 1.370 . S
C2492 C2494 1.363 . S
C2492 H2508 0.931 . S
C2493 C2492 1.370 . S
C2493 C2497 1.408 . S
C2494 C2492 1.363 . S
C2494 C2495 1.370 . S
C2494 C2498 1.524 . S
C2495 C2487 1.503 . S
C2495 C2494 1.370 . S
C2495 C2496 1.403 . S
C2496 C2495 1.403 . S
C2496 C2497 1.404 . S
C2496 C2499 1.539 . S
C2497 C2493 1.408 . S
C2497 C2496 1.404 . S
C2497 H2509 0.930 . S
C2498 C2494 1.524 . S
C2498 H2510 0.956 . S
C2498 H2511 0.961 . S
C2498 H2512 0.961 . S
C2499 C2496 1.539 . S
C2499 H2513 0.958 . S
C2499 H2514 0.961 . S
C2499 H2515 0.960 . S
H2500 C2484 0.931 . S
H2501 C2489 0.929 . S
H2502 C2490 0.960 . S
H2503 C2490 0.962 . S
H2504 C2490 0.948 1_545 S
H2505 C2491 0.961 . S
H2506 C2491 0.961 . S
H2507 C2491 0.961 . S
H2508 C2492 0.931 . S
H2509 C2497 0.930 . S
H2510 C2498 0.956 . S
H2511 C2498 0.961 . S
H2512 C2498 0.961 . S
H2513 C2499 0.958 . S
H2514 C2499 0.961 . S
H2515 C2499 0.960 . S
C2516 C2517 1.391 . S
C2516 C2518 1.394 . S
C2516 H2532 0.931 . S
C2517 C2516 1.391 . S
C2517 C2521 1.376 . S
C2518 C2516 1.394 . S
C2518 C2519 1.369 . S
C2518 C2522 1.531 . S
C2519 C2518 1.369 . S
C2519 C2520 1.410 . S
C2519 C2527 1.503 . S
C2520 C2519 1.410 . S
C2520 C2521 1.392 . S
C2520 C2523 1.511 . S
C2521 C2517 1.376 . S
C2521 C2520 1.392 . S
C2521 H2533 0.929 . S
C2522 C2518 1.531 . S
C2522 H2534 0.960 . S
C2522 H2535 0.962 . S
C2522 H2536 0.960 . S
C2523 C2520 1.511 . S
C2523 H2537 0.961 . S
C2523 H2538 0.961 . S
C2523 H2539 0.961 1_455 S
C2524 C2525 1.370 . S
C2524 C2526 1.363 . S
C2524 H2540 0.931 . S
C2525 C2524 1.370 . S
C2525 C2529 1.408 . S
C2526 C2524 1.363 . S
C2526 C2527 1.370 . S
C2526 C2530 1.524 . S
C2527 C2519 1.503 . S
C2527 C2526 1.370 . S
C2527 C2528 1.403 . S
C2528 C2527 1.403 . S
C2528 C2529 1.404 . S
C2528 C2531 1.539 . S
C2529 C2525 1.408 . S
C2529 C2528 1.404 . S
C2529 H2541 0.915 1_455 S
C2530 C2526 1.524 . S
C2530 H2542 0.956 . S
C2530 H2543 0.961 . S
C2530 H2544 0.961 . S
C2531 C2528 1.539 . S
C2531 H2545 0.958 . S
C2531 H2546 0.961 1_455 S
C2531 H2547 0.955 1_455 S
H2532 C2516 0.931 . S
H2533 C2521 0.929 . S
H2534 C2522 0.960 . S
H2535 C2522 0.962 . S
H2536 C2522 0.960 . S
H2537 C2523 0.961 . S
H2538 C2523 0.961 . S
H2539 C2523 0.961 1_655 S
H2540 C2524 0.931 . S
H2541 C2529 0.915 1_655 S
H2542 C2530 0.956 . S
H2543 C2530 0.961 . S
H2544 C2530 0.961 . S
H2545 C2531 0.958 . S
H2546 C2531 0.961 1_655 S
H2547 C2531 0.955 1_655 S
C2548 C2549 1.391 . S
C2548 C2550 1.394 . S
C2548 H2564 0.931 . S
C2549 C2548 1.391 . S
C2549 C2553 1.376 . S
C2550 C2548 1.394 . S
C2550 C2551 1.369 . S
C2550 C2554 1.531 . S
C2551 C2550 1.369 . S
C2551 C2552 1.410 . S
C2551 C2559 1.503 . S
C2552 C2551 1.410 . S
C2552 C2553 1.392 . S
C2552 C2555 1.511 . S
C2553 C2549 1.376 . S
C2553 C2552 1.392 . S
C2553 H2565 0.929 . S
C2554 C2550 1.531 . S
C2554 H2566 0.960 . S
C2554 H2567 0.962 . S
C2554 H2568 0.960 . S
C2555 C2552 1.511 . S
C2555 H2569 0.961 . S
C2555 H2570 0.961 . S
C2555 H2571 0.961 . S
C2556 C2557 1.370 . S
C2556 C2558 1.363 . S
C2556 H2572 0.931 . S
C2557 C2556 1.370 . S
C2557 C2561 1.408 . S
C2558 C2556 1.363 . S
C2558 C2559 1.370 . S
C2558 C2562 1.524 . S
C2559 C2551 1.503 . S
C2559 C2558 1.370 . S
C2559 C2560 1.403 . S
C2560 C2559 1.403 . S
C2560 C2561 1.404 . S
C2560 C2563 1.539 . S
C2561 C2557 1.408 . S
C2561 C2560 1.404 . S
C2561 H2573 0.930 . S
C2562 C2558 1.524 . S
C2562 H2574 0.956 . S
C2562 H2575 0.961 . S
C2562 H2576 0.961 . S
C2563 C2560 1.539 . S
C2563 H2577 0.958 . S
C2563 H2578 0.961 . S
C2563 H2579 0.960 . S
H2564 C2548 0.931 . S
H2565 C2553 0.929 . S
H2566 C2554 0.960 . S
H2567 C2554 0.962 . S
H2568 C2554 0.960 . S
H2569 C2555 0.961 . S
H2570 C2555 0.961 . S
H2571 C2555 0.961 . S
H2572 C2556 0.931 . S
H2573 C2561 0.930 . S
H2574 C2562 0.956 . S
H2575 C2562 0.961 . S
H2576 C2562 0.961 . S
H2577 C2563 0.958 . S
H2578 C2563 0.961 . S
H2579 C2563 0.960 . S
C2580 C2581 1.391 . S
C2580 C2582 1.394 . S
C2580 H2596 0.931 . S
C2581 C2580 1.391 . S
C2581 C2585 1.376 . S
C2582 C2580 1.394 . S
C2582 C2583 1.369 . S
C2582 C2586 1.531 . S
C2583 C2582 1.369 . S
C2583 C2584 1.410 . S
C2583 C2591 1.503 . S
C2584 C2583 1.410 . S
C2584 C2585 1.392 . S
C2584 C2587 1.511 1_655 S
C2585 C2581 1.376 . S
C2585 C2584 1.392 . S
C2585 H2597 0.929 . S
C2586 C2582 1.531 . S
C2586 H2598 0.960 . S
C2586 H2599 0.962 . S
C2586 H2600 0.960 . S
C2587 C2584 1.511 1_455 S
C2587 H2601 0.961 . S
C2587 H2602 0.961 . S
C2587 H2603 0.961 . S
C2588 C2589 1.370 . S
C2588 C2590 1.363 . S
C2588 H2604 0.931 . S
C2589 C2588 1.370 . S
C2589 C2593 1.408 . S
C2590 C2588 1.363 . S
C2590 C2591 1.370 . S
C2590 C2594 1.524 . S
C2591 C2583 1.503 . S
C2591 C2590 1.370 . S
C2591 C2592 1.403 . S
C2592 C2591 1.403 . S
C2592 C2593 1.404 . S
C2592 C2595 1.539 . S
C2593 C2589 1.408 . S
C2593 C2592 1.404 . S
C2593 H2605 0.930 . S
C2594 C2590 1.524 . S
C2594 H2606 0.956 . S
C2594 H2607 0.961 . S
C2594 H2608 0.961 . S
C2595 C2592 1.539 . S
C2595 H2609 0.958 . S
C2595 H2610 0.961 . S
C2595 H2611 0.960 . S
H2596 C2580 0.931 . S
H2597 C2585 0.929 . S
H2598 C2586 0.960 . S
H2599 C2586 0.962 . S
H2600 C2586 0.960 . S
H2601 C2587 0.961 . S
H2602 C2587 0.961 . S
H2603 C2587 0.961 . S
H2604 C2588 0.931 . S
H2605 C2593 0.930 . S
H2606 C2594 0.956 . S
H2607 C2594 0.961 . S
H2608 C2594 0.961 . S
H2609 C2595 0.958 . S
H2610 C2595 0.961 . S
H2611 C2595 0.960 . S
C2612 C2613 1.391 . S
C2612 C2614 1.394 . S
C2612 H2628 0.931 . S
C2613 C2612 1.391 . S
C2613 C2617 1.376 . S
C2614 C2612 1.394 . S
C2614 C2615 1.369 . S
C2614 C2618 1.531 . S
C2615 C2614 1.369 . S
C2615 C2616 1.410 . S
C2615 C2623 1.503 . S
C2616 C2615 1.410 . S
C2616 C2617 1.392 . S
C2616 C2619 1.511 . S
C2617 C2613 1.376 . S
C2617 C2616 1.392 . S
C2617 H2629 0.929 . S
C2618 C2614 1.531 . S
C2618 H2630 0.960 . S
C2618 H2631 0.962 . S
C2618 H2632 0.960 . S
C2619 C2616 1.511 . S
C2619 H2633 0.961 . S
C2619 H2634 0.961 . S
C2619 H2635 0.961 . S
C2620 C2621 1.370 . S
C2620 C2622 1.363 . S
C2620 H2636 0.931 . S
C2621 C2620 1.370 . S
C2621 C2625 1.408 . S
C2622 C2620 1.363 . S
C2622 C2623 1.370 . S
C2622 C2626 1.524 . S
C2623 C2615 1.503 . S
C2623 C2622 1.370 . S
C2623 C2624 1.403 . S
C2624 C2623 1.403 . S
C2624 C2625 1.404 . S
C2624 C2627 1.539 . S
C2625 C2621 1.408 . S
C2625 C2624 1.404 . S
C2625 H2637 0.930 . S
C2626 C2622 1.524 . S
C2626 H2638 0.956 . S
C2626 H2639 0.961 . S
C2626 H2640 0.961 . S
C2627 C2624 1.539 . S
C2627 H2641 0.958 . S
C2627 H2642 0.961 . S
C2627 H2643 0.960 . S
H2628 C2612 0.931 . S
H2629 C2617 0.929 . S
H2630 C2618 0.960 . S
H2631 C2618 0.962 . S
H2632 C2618 0.960 . S
H2633 C2619 0.961 . S
H2634 C2619 0.961 . S
H2635 C2619 0.961 . S
H2636 C2620 0.931 . S
H2637 C2625 0.930 . S
H2638 C2626 0.956 . S
H2639 C2626 0.961 . S
H2640 C2626 0.961 . S
H2641 C2627 0.958 . S
H2642 C2627 0.961 . S
H2643 C2627 0.960 . S
C2644 C2645 1.391 . S
C2644 C2646 1.394 . S
C2644 H2660 0.931 . S
C2645 C2644 1.391 . S
C2645 C2649 1.376 . S
C2646 C2644 1.394 . S
C2646 C2647 1.369 . S
C2646 C2650 1.531 . S
C2647 C2646 1.369 . S
C2647 C2648 1.410 . S
C2647 C2655 1.503 . S
C2648 C2647 1.410 . S
C2648 C2649 1.392 . S
C2648 C2651 1.511 . S
C2649 C2645 1.376 . S
C2649 C2648 1.392 . S
C2649 H2661 0.929 . S
C2650 C2646 1.531 . S
C2650 H2662 0.960 . S
C2650 H2663 0.962 . S
C2650 H2664 0.959 . S
C2651 C2648 1.511 . S
C2651 H2665 0.961 . S
C2651 H2666 0.961 . S
C2651 H2667 0.961 . S
C2652 C2653 1.370 . S
C2652 C2654 1.363 . S
C2652 H2668 0.931 . S
C2653 C2652 1.370 . S
C2653 C2657 1.408 . S
C2654 C2652 1.363 . S
C2654 C2655 1.370 . S
C2654 C2658 1.524 . S
C2655 C2647 1.503 . S
C2655 C2654 1.370 . S
C2655 C2656 1.403 . S
C2656 C2655 1.403 . S
C2656 C2657 1.404 . S
C2656 C2659 1.539 . S
C2657 C2653 1.408 . S
C2657 C2656 1.404 . S
C2657 H2669 0.930 . S
C2658 C2654 1.524 . S
C2658 H2670 0.956 . S
C2658 H2671 0.961 . S
C2658 H2672 0.961 . S
C2659 C2656 1.539 . S
C2659 H2673 0.958 . S
C2659 H2674 0.961 . S
C2659 H2675 0.960 . S
H2660 C2644 0.931 . S
H2661 C2649 0.929 . S
H2662 C2650 0.960 . S
H2663 C2650 0.962 . S
H2664 C2650 0.959 . S
H2665 C2651 0.961 . S
H2666 C2651 0.961 . S
H2667 C2651 0.961 . S
H2668 C2652 0.931 . S
H2669 C2657 0.930 . S
H2670 C2658 0.956 . S
H2671 C2658 0.961 . S
H2672 C2658 0.961 . S
H2673 C2659 0.958 . S
H2674 C2659 0.961 . S
H2675 C2659 0.960 . S
C2676 C2677 1.391 . S
C2676 C2678 1.394 . S
C2676 H2692 0.931 . S
C2677 C2676 1.391 . S
C2677 C2681 1.376 . S
C2678 C2676 1.394 . S
C2678 C2679 1.369 . S
C2678 C2682 1.531 . S
C2679 C2678 1.369 . S
C2679 C2680 1.410 . S
C2679 C2687 1.503 . S
C2680 C2679 1.410 . S
C2680 C2681 1.392 . S
C2680 C2683 1.511 . S
C2681 C2677 1.376 . S
C2681 C2680 1.392 . S
C2681 H2693 0.929 . S
C2682 C2678 1.531 . S
C2682 H2694 0.960 . S
C2682 H2695 0.962 . S
C2682 H2696 0.960 . S
C2683 C2680 1.511 . S
C2683 H2697 0.961 . S
C2683 H2698 0.961 . S
C2683 H2699 0.961 . S
C2684 C2685 1.370 . S
C2684 C2686 1.363 . S
C2684 H2700 0.931 . S
C2685 C2684 1.370 . S
C2685 C2689 1.408 . S
C2686 C2684 1.363 . S
C2686 C2687 1.370 . S
C2686 C2690 1.524 . S
C2687 C2679 1.503 . S
C2687 C2686 1.370 . S
C2687 C2688 1.403 . S
C2688 C2687 1.403 . S
C2688 C2689 1.404 . S
C2688 C2691 1.539 . S
C2689 C2685 1.408 . S
C2689 C2688 1.404 . S
C2689 H2701 0.930 . S
C2690 C2686 1.524 . S
C2690 H2702 0.956 . S
C2690 H2703 0.961 . S
C2690 H2704 0.961 . S
C2691 C2688 1.539 . S
C2691 H2705 0.958 . S
C2691 H2706 0.961 . S
C2691 H2707 0.960 . S
H2692 C2676 0.931 . S
H2693 C2681 0.929 . S
H2694 C2682 0.960 . S
H2695 C2682 0.962 . S
H2696 C2682 0.960 . S
H2697 C2683 0.961 . S
H2698 C2683 0.961 . S
H2699 C2683 0.961 . S
H2700 C2684 0.931 . S
H2701 C2689 0.930 . S
H2702 C2690 0.956 . S
H2703 C2690 0.961 . S
H2704 C2690 0.961 . S
H2705 C2691 0.958 . S
H2706 C2691 0.961 . S
H2707 C2691 0.960 . S
C2708 C2709 1.391 . S
C2708 C2710 1.394 . S
C2708 H2724 0.931 . S
C2709 C2708 1.391 . S
C2709 C2713 1.376 . S
C2710 C2708 1.394 . S
C2710 C2711 1.369 . S
C2710 C2714 1.531 . S
C2711 C2710 1.369 . S
C2711 C2712 1.410 . S
C2711 C2719 1.503 . S
C2712 C2711 1.410 . S
C2712 C2713 1.392 . S
C2712 C2715 1.511 . S
C2713 C2709 1.376 . S
C2713 C2712 1.392 . S
C2713 H2725 0.929 . S
C2714 C2710 1.531 . S
C2714 H2726 0.960 . S
C2714 H2727 0.962 . S
C2714 H2728 0.960 . S
C2715 C2712 1.511 . S
C2715 H2729 0.961 . S
C2715 H2730 0.961 . S
C2715 H2731 0.961 . S
C2716 C2717 1.370 . S
C2716 C2718 1.363 . S
C2716 H2732 0.931 . S
C2717 C2716 1.370 . S
C2717 C2721 1.408 . S
C2718 C2716 1.363 . S
C2718 C2719 1.370 . S
C2718 C2722 1.524 . S
C2719 C2711 1.503 . S
C2719 C2718 1.370 . S
C2719 C2720 1.403 . S
C2720 C2719 1.403 . S
C2720 C2721 1.404 . S
C2720 C2723 1.539 . S
C2721 C2717 1.408 . S
C2721 C2720 1.404 . S
C2721 H2733 0.930 . S
C2722 C2718 1.524 . S
C2722 H2734 0.956 . S
C2722 H2735 0.961 . S
C2722 H2736 0.961 . S
C2723 C2720 1.539 . S
C2723 H2737 0.958 . S
C2723 H2738 0.961 . S
C2723 H2739 0.960 . S
H2724 C2708 0.931 . S
H2725 C2713 0.929 . S
H2726 C2714 0.960 . S
H2727 C2714 0.962 . S
H2728 C2714 0.960 . S
H2729 C2715 0.961 . S
H2730 C2715 0.961 . S
H2731 C2715 0.961 . S
H2732 C2716 0.931 . S
H2733 C2721 0.930 . S
H2734 C2722 0.956 . S
H2735 C2722 0.961 . S
H2736 C2722 0.961 . S
H2737 C2723 0.958 . S
H2738 C2723 0.961 . S
H2739 C2723 0.960 . S
C2740 C2741 1.391 . S
C2740 C2742 1.394 . S
C2740 H2756 0.931 . S
C2741 C2740 1.391 . S
C2741 C2745 1.376 . S
C2742 C2740 1.394 . S
C2742 C2743 1.369 . S
C2742 C2746 1.531 . S
C2743 C2742 1.369 . S
C2743 C2744 1.410 . S
C2743 C2751 1.503 . S
C2744 C2743 1.410 . S
C2744 C2745 1.392 . S
C2744 C2747 1.511 . S
C2745 C2741 1.376 . S
C2745 C2744 1.392 . S
C2745 H2757 0.929 . S
C2746 C2742 1.531 . S
C2746 H2758 0.960 . S
C2746 H2759 0.962 . S
C2746 H2760 0.960 . S
C2747 C2744 1.511 . S
C2747 H2761 0.961 . S
C2747 H2762 0.961 . S
C2747 H2763 0.961 . S
C2748 C2749 1.370 . S
C2748 C2750 1.363 . S
C2748 H2764 0.931 . S
C2749 C2748 1.370 . S
C2749 C2753 1.408 . S
C2750 C2748 1.363 . S
C2750 C2751 1.370 . S
C2750 C2754 1.524 . S
C2751 C2743 1.503 . S
C2751 C2750 1.370 . S
C2751 C2752 1.403 . S
C2752 C2751 1.403 . S
C2752 C2753 1.404 . S
C2752 C2755 1.539 . S
C2753 C2749 1.408 . S
C2753 C2752 1.404 . S
C2753 H2765 0.930 . S
C2754 C2750 1.524 . S
C2754 H2766 0.956 . S
C2754 H2767 0.961 . S
C2754 H2768 0.961 . S
C2755 C2752 1.539 . S
C2755 H2769 0.958 . S
C2755 H2770 0.961 . S
C2755 H2771 0.960 . S
H2756 C2740 0.931 . S
H2757 C2745 0.929 . S
H2758 C2746 0.960 . S
H2759 C2746 0.962 . S
H2760 C2746 0.960 . S
H2761 C2747 0.961 . S
H2762 C2747 0.961 . S
H2763 C2747 0.961 . S
H2764 C2748 0.931 . S
H2765 C2753 0.930 . S
H2766 C2754 0.956 . S
H2767 C2754 0.961 . S
H2768 C2754 0.961 . S
H2769 C2755 0.958 . S
H2770 C2755 0.961 . S
H2771 C2755 0.960 . S
C2772 C2773 1.391 . S
C2772 C2774 1.394 . S
C2772 H2788 0.931 . S
C2773 C2772 1.391 . S
C2773 C2777 1.376 . S
C2774 C2772 1.394 . S
C2774 C2775 1.369 . S
C2774 C2778 1.531 . S
C2775 C2774 1.369 . S
C2775 C2776 1.410 . S
C2775 C2783 1.503 . S
C2776 C2775 1.410 . S
C2776 C2777 1.392 . S
C2776 C2779 1.511 . S
C2777 C2773 1.376 . S
C2777 C2776 1.392 . S
C2777 H2789 0.929 . S
C2778 C2774 1.531 . S
C2778 H2790 0.960 . S
C2778 H2791 0.962 . S
C2778 H2792 0.960 . S
C2779 C2776 1.511 . S
C2779 H2793 0.961 . S
C2779 H2794 0.961 . S
C2779 H2795 0.961 . S
C2780 C2781 1.370 . S
C2780 C2782 1.363 . S
C2780 H2796 0.931 . S
C2781 C2780 1.370 . S
C2781 C2785 1.408 . S
C2782 C2780 1.363 . S
C2782 C2783 1.370 . S
C2782 C2786 1.524 . S
C2783 C2775 1.503 . S
C2783 C2782 1.370 . S
C2783 C2784 1.403 . S
C2784 C2783 1.403 . S
C2784 C2785 1.404 . S
C2784 C2787 1.539 . S
C2785 C2781 1.408 . S
C2785 C2784 1.404 . S
C2785 H2797 0.930 . S
C2786 C2782 1.524 . S
C2786 H2798 0.956 . S
C2786 H2799 0.961 . S
C2786 H2800 0.961 . S
C2787 C2784 1.539 . S
C2787 H2801 0.958 . S
C2787 H2802 0.961 . S
C2787 H2803 0.960 . S
H2788 C2772 0.931 . S
H2789 C2777 0.929 . S
H2790 C2778 0.960 . S
H2791 C2778 0.962 . S
H2792 C2778 0.960 . S
H2793 C2779 0.961 . S
H2794 C2779 0.961 . S
H2795 C2779 0.961 . S
H2796 C2780 0.931 . S
H2797 C2785 0.930 . S
H2798 C2786 0.956 . S
H2799 C2786 0.961 . S
H2800 C2786 0.961 . S
H2801 C2787 0.958 . S
H2802 C2787 0.961 . S
H2803 C2787 0.960 . S
C2804 C2805 1.391 . S
C2804 C2806 1.394 . S
C2804 H2820 0.931 . S
C2805 C2804 1.391 . S
C2805 C2809 1.376 . S
C2806 C2804 1.394 . S
C2806 C2807 1.369 . S
C2806 C2810 1.531 . S
C2807 C2806 1.369 . S
C2807 C2808 1.410 . S
C2807 C2815 1.503 . S
C2808 C2807 1.410 . S
C2808 C2809 1.392 . S
C2808 C2811 1.511 . S
C2809 C2805 1.376 . S
C2809 C2808 1.392 . S
C2809 H2821 0.929 . S
C2810 C2806 1.531 . S
C2810 H2822 0.960 . S
C2810 H2823 0.962 . S
C2810 H2824 0.960 . S
C2811 C2808 1.511 . S
C2811 H2825 0.961 . S
C2811 H2826 0.961 . S
C2811 H2827 0.961 . S
C2812 C2813 1.370 . S
C2812 C2814 1.363 . S
C2812 H2828 0.931 . S
C2813 C2812 1.370 . S
C2813 C2817 1.408 . S
C2814 C2812 1.363 . S
C2814 C2815 1.370 . S
C2814 C2818 1.524 . S
C2815 C2807 1.503 . S
C2815 C2814 1.370 . S
C2815 C2816 1.403 . S
C2816 C2815 1.403 . S
C2816 C2817 1.404 . S
C2816 C2819 1.539 . S
C2817 C2813 1.408 . S
C2817 C2816 1.404 . S
C2817 H2829 0.930 . S
C2818 C2814 1.524 . S
C2818 H2830 0.956 . S
C2818 H2831 0.961 . S
C2818 H2832 0.961 . S
C2819 C2816 1.539 . S
C2819 H2833 0.958 . S
C2819 H2834 0.961 . S
C2819 H2835 0.960 . S
H2820 C2804 0.931 . S
H2821 C2809 0.929 . S
H2822 C2810 0.960 . S
H2823 C2810 0.962 . S
H2824 C2810 0.960 . S
H2825 C2811 0.961 . S
H2826 C2811 0.961 . S
H2827 C2811 0.961 . S
H2828 C2812 0.931 . S
H2829 C2817 0.930 . S
H2830 C2818 0.956 . S
H2831 C2818 0.961 . S
H2832 C2818 0.961 . S
H2833 C2819 0.958 . S
H2834 C2819 0.961 . S
H2835 C2819 0.960 . S
C2836 C2837 1.391 . S
C2836 C2838 1.394 . S
C2836 H2852 0.931 . S
C2837 C2836 1.391 . S
C2837 C2841 1.376 . S
C2838 C2836 1.394 . S
C2838 C2839 1.369 . S
C2838 C2842 1.531 . S
C2839 C2838 1.369 . S
C2839 C2840 1.410 . S
C2839 C2847 1.503 . S
C2840 C2839 1.410 . S
C2840 C2841 1.392 . S
C2840 C2843 1.511 . S
C2841 C2837 1.376 . S
C2841 C2840 1.392 . S
C2841 H2853 0.929 . S
C2842 C2838 1.531 . S
C2842 H2854 0.960 . S
C2842 H2855 0.962 . S
C2842 H2856 0.960 . S
C2843 C2840 1.511 . S
C2843 H2857 0.961 . S
C2843 H2858 0.961 . S
C2843 H2859 0.961 . S
C2844 C2845 1.370 . S
C2844 C2846 1.363 . S
C2844 H2860 0.931 . S
C2845 C2844 1.370 . S
C2845 C2849 1.408 . S
C2846 C2844 1.363 . S
C2846 C2847 1.370 . S
C2846 C2850 1.524 . S
C2847 C2839 1.503 . S
C2847 C2846 1.370 . S
C2847 C2848 1.403 . S
C2848 C2847 1.403 . S
C2848 C2849 1.404 . S
C2848 C2851 1.539 . S
C2849 C2845 1.408 . S
C2849 C2848 1.404 . S
C2849 H2861 0.930 . S
C2850 C2846 1.524 . S
C2850 H2862 0.956 . S
C2850 H2863 0.961 . S
C2850 H2864 0.961 . S
C2851 C2848 1.539 . S
C2851 H2865 0.958 . S
C2851 H2866 0.961 . S
C2851 H2867 0.960 . S
H2852 C2836 0.931 . S
H2853 C2841 0.929 . S
H2854 C2842 0.960 . S
H2855 C2842 0.962 . S
H2856 C2842 0.960 . S
H2857 C2843 0.961 . S
H2858 C2843 0.961 . S
H2859 C2843 0.961 . S
H2860 C2844 0.931 . S
H2861 C2849 0.930 . S
H2862 C2850 0.956 . S
H2863 C2850 0.961 . S
H2864 C2850 0.961 . S
H2865 C2851 0.958 . S
H2866 C2851 0.961 . S
H2867 C2851 0.960 . S
C2868 C2869 1.391 . S
C2868 C2870 1.394 . S
C2868 H2884 0.931 . S
C2869 C2868 1.391 . S
C2869 C2873 1.376 . S
C2870 C2868 1.394 . S
C2870 C2871 1.369 . S
C2870 C2874 1.531 . S
C2871 C2870 1.369 . S
C2871 C2872 1.410 . S
C2871 C2879 1.503 . S
C2872 C2871 1.410 . S
C2872 C2873 1.392 . S
C2872 C2875 1.511 . S
C2873 C2869 1.376 . S
C2873 C2872 1.392 . S
C2873 H2885 0.929 . S
C2874 C2870 1.531 . S
C2874 H2886 0.960 . S
C2874 H2887 0.962 . S
C2874 H2888 0.960 . S
C2875 C2872 1.511 . S
C2875 H2889 0.961 . S
C2875 H2890 0.961 . S
C2875 H2891 0.961 . S
C2876 C2877 1.370 . S
C2876 C2878 1.363 . S
C2876 H2892 0.931 . S
C2877 C2876 1.370 . S
C2877 C2881 1.408 . S
C2878 C2876 1.363 . S
C2878 C2879 1.370 . S
C2878 C2882 1.524 . S
C2879 C2871 1.503 . S
C2879 C2878 1.370 . S
C2879 C2880 1.403 . S
C2880 C2879 1.403 . S
C2880 C2881 1.404 . S
C2880 C2883 1.539 . S
C2881 C2877 1.408 . S
C2881 C2880 1.404 . S
C2881 H2893 0.930 . S
C2882 C2878 1.524 . S
C2882 H2894 0.956 . S
C2882 H2895 0.961 . S
C2882 H2896 0.961 . S
C2883 C2880 1.539 . S
C2883 H2897 0.958 . S
C2883 H2898 0.961 . S
C2883 H2899 0.960 . S
H2884 C2868 0.931 . S
H2885 C2873 0.929 . S
H2886 C2874 0.960 . S
H2887 C2874 0.962 . S
H2888 C2874 0.960 . S
H2889 C2875 0.961 . S
H2890 C2875 0.961 . S
H2891 C2875 0.961 . S
H2892 C2876 0.931 . S
H2893 C2881 0.930 . S
H2894 C2882 0.956 . S
H2895 C2882 0.961 . S
H2896 C2882 0.961 . S
H2897 C2883 0.958 . S
H2898 C2883 0.961 . S
H2899 C2883 0.960 . S
C2900 C2901 1.391 . S
C2900 C2902 1.394 . S
C2900 H2916 0.931 . S
C2901 C2900 1.391 . S
C2901 C2905 1.376 . S
C2902 C2900 1.394 . S
C2902 C2903 1.369 . S
C2902 C2906 1.531 . S
C2903 C2902 1.369 . S
C2903 C2904 1.410 . S
C2903 C2911 1.503 . S
C2904 C2903 1.410 . S
C2904 C2905 1.392 . S
C2904 C2907 1.511 . S
C2905 C2901 1.376 . S
C2905 C2904 1.392 . S
C2905 H2917 0.929 . S
C2906 C2902 1.531 . S
C2906 H2918 0.960 . S
C2906 H2919 0.962 . S
C2906 H2920 0.960 . S
C2907 C2904 1.511 . S
C2907 H2921 0.961 . S
C2907 H2922 0.961 . S
C2907 H2923 0.961 . S
C2908 C2909 1.370 . S
C2908 C2910 1.363 . S
C2908 H2924 0.931 . S
C2909 C2908 1.370 . S
C2909 C2913 1.408 . S
C2910 C2908 1.363 . S
C2910 C2911 1.370 . S
C2910 C2914 1.524 . S
C2911 C2903 1.503 . S
C2911 C2910 1.370 . S
C2911 C2912 1.403 . S
C2912 C2911 1.403 . S
C2912 C2913 1.404 . S
C2912 C2915 1.539 . S
C2913 C2909 1.408 . S
C2913 C2912 1.404 . S
C2913 H2925 0.930 . S
C2914 C2910 1.524 . S
C2914 H2926 0.956 . S
C2914 H2927 0.961 . S
C2914 H2928 0.961 . S
C2915 C2912 1.539 . S
C2915 H2929 0.958 . S
C2915 H2930 0.961 . S
C2915 H2931 0.960 . S
H2916 C2900 0.931 . S
H2917 C2905 0.929 . S
H2918 C2906 0.960 . S
H2919 C2906 0.962 . S
H2920 C2906 0.960 . S
H2921 C2907 0.961 . S
H2922 C2907 0.961 . S
H2923 C2907 0.961 . S
H2924 C2908 0.931 . S
H2925 C2913 0.930 . S
H2926 C2914 0.956 . S
H2927 C2914 0.961 . S
H2928 C2914 0.961 . S
H2929 C2915 0.958 . S
H2930 C2915 0.961 . S
H2931 C2915 0.960 . S
C2932 C2933 1.391 . S
C2932 C2934 1.394 . S
C2932 H2948 0.931 . S
C2933 C2932 1.391 . S
C2933 C2937 1.376 . S
C2934 C2932 1.394 . S
C2934 C2935 1.369 . S
C2934 C2938 1.531 . S
C2935 C2934 1.369 . S
C2935 C2936 1.410 . S
C2935 C2943 1.503 . S
C2936 C2935 1.410 . S
C2936 C2937 1.392 . S
C2936 C2939 1.511 . S
C2937 C2933 1.376 . S
C2937 C2936 1.392 . S
C2937 H2949 0.929 . S
C2938 C2934 1.531 . S
C2938 H2950 0.960 . S
C2938 H2951 0.962 . S
C2938 H2952 0.960 . S
C2939 C2936 1.511 . S
C2939 H2953 0.961 . S
C2939 H2954 0.961 . S
C2939 H2955 0.961 . S
C2940 C2941 1.370 . S
C2940 C2942 1.363 . S
C2940 H2956 0.931 . S
C2941 C2940 1.370 . S
C2941 C2945 1.408 . S
C2942 C2940 1.363 . S
C2942 C2943 1.370 . S
C2942 C2946 1.524 . S
C2943 C2935 1.503 . S
C2943 C2942 1.370 . S
C2943 C2944 1.403 . S
C2944 C2943 1.403 . S
C2944 C2945 1.404 . S
C2944 C2947 1.539 . S
C2945 C2941 1.408 . S
C2945 C2944 1.404 . S
C2945 H2957 0.930 . S
C2946 C2942 1.524 . S
C2946 H2958 0.956 . S
C2946 H2959 0.961 . S
C2946 H2960 0.961 . S
C2947 C2944 1.539 . S
C2947 H2961 0.958 . S
C2947 H2962 0.961 . S
C2947 H2963 0.960 . S
H2948 C2932 0.931 . S
H2949 C2937 0.929 . S
H2950 C2938 0.960 . S
H2951 C2938 0.962 . S
H2952 C2938 0.960 . S
H2953 C2939 0.961 . S
H2954 C2939 0.961 . S
H2955 C2939 0.961 . S
H2956 C2940 0.931 . S
H2957 C2945 0.930 . S
H2958 C2946 0.956 . S
H2959 C2946 0.961 . S
H2960 C2946 0.961 . S
H2961 C2947 0.958 . S
H2962 C2947 0.961 . S
H2963 C2947 0.960 . S
C2964 C2965 1.391 . S
C2964 C2966 1.394 . S
C2964 H2980 0.931 . S
C2965 C2964 1.391 . S
C2965 C2969 1.376 . S
C2966 C2964 1.394 . S
C2966 C2967 1.369 . S
C2966 C2970 1.531 . S
C2967 C2966 1.369 . S
C2967 C2968 1.410 . S
C2967 C2975 1.503 . S
C2968 C2967 1.410 . S
C2968 C2969 1.392 . S
C2968 C2971 1.511 . S
C2969 C2965 1.376 . S
C2969 C2968 1.392 . S
C2969 H2981 0.929 . S
C2970 C2966 1.531 . S
C2970 H2982 0.960 . S
C2970 H2983 0.962 . S
C2970 H2984 0.960 . S
C2971 C2968 1.511 . S
C2971 H2985 0.961 . S
C2971 H2986 0.961 . S
C2971 H2987 0.961 . S
C2972 C2973 1.370 . S
C2972 C2974 1.363 . S
C2972 H2988 0.931 . S
C2973 C2972 1.370 . S
C2973 C2977 1.408 . S
C2974 C2972 1.363 . S
C2974 C2975 1.370 . S
C2974 C2978 1.524 . S
C2975 C2967 1.503 . S
C2975 C2974 1.370 . S
C2975 C2976 1.403 . S
C2976 C2975 1.403 . S
C2976 C2977 1.404 . S
C2976 C2979 1.539 . S
C2977 C2973 1.408 . S
C2977 C2976 1.404 . S
C2977 H2989 0.930 . S
C2978 C2974 1.524 . S
C2978 H2990 0.956 . S
C2978 H2991 0.961 . S
C2978 H2992 0.961 . S
C2979 C2976 1.539 . S
C2979 H2993 0.958 . S
C2979 H2994 0.961 . S
C2979 H2995 0.960 . S
H2980 C2964 0.931 . S
H2981 C2969 0.929 . S
H2982 C2970 0.960 . S
H2983 C2970 0.962 . S
H2984 C2970 0.960 . S
H2985 C2971 0.961 . S
H2986 C2971 0.961 . S
H2987 C2971 0.961 . S
H2988 C2972 0.931 . S
H2989 C2977 0.930 . S
H2990 C2978 0.956 . S
H2991 C2978 0.961 . S
H2992 C2978 0.961 . S
H2993 C2979 0.958 . S
H2994 C2979 0.961 . S
H2995 C2979 0.960 . S
C2996 C2997 1.391 . S
C2996 C2998 1.394 . S
C2996 H3012 0.931 . S
C2997 C2996 1.391 . S
C2997 C3001 1.376 . S
C2998 C2996 1.394 . S
C2998 C2999 1.369 . S
C2998 C3002 1.531 . S
C2999 C2998 1.369 . S
C2999 C3000 1.410 . S
C2999 C3007 1.503 . S
C3000 C2999 1.410 . S
C3000 C3001 1.392 . S
C3000 C3003 1.511 . S
C3001 C2997 1.376 . S
C3001 C3000 1.392 . S
C3001 H3013 0.929 . S
C3002 C2998 1.531 . S
C3002 H3014 0.960 . S
C3002 H3015 0.962 . S
C3002 H3016 0.960 . S
C3003 C3000 1.511 . S
C3003 H3017 0.961 . S
C3003 H3018 0.961 . S
C3003 H3019 0.961 . S
C3004 C3005 1.370 . S
C3004 C3006 1.363 . S
C3004 H3020 0.931 . S
C3005 C3004 1.370 . S
C3005 C3009 1.408 . S
C3006 C3004 1.363 . S
C3006 C3007 1.370 . S
C3006 C3010 1.524 . S
C3007 C2999 1.503 . S
C3007 C3006 1.370 . S
C3007 C3008 1.403 . S
C3008 C3007 1.403 . S
C3008 C3009 1.404 . S
C3008 C3011 1.539 . S
C3009 C3005 1.408 . S
C3009 C3008 1.404 . S
C3009 H3021 0.930 . S
C3010 C3006 1.524 . S
C3010 H3022 0.956 . S
C3010 H3023 0.961 . S
C3010 H3024 0.961 . S
C3011 C3008 1.539 . S
C3011 H3025 0.958 . S
C3011 H3026 0.961 . S
C3011 H3027 0.960 . S
H3012 C2996 0.931 . S
H3013 C3001 0.929 . S
H3014 C3002 0.960 . S
H3015 C3002 0.962 . S
H3016 C3002 0.960 . S
H3017 C3003 0.961 . S
H3018 C3003 0.961 . S
H3019 C3003 0.961 . S
H3020 C3004 0.931 . S
H3021 C3009 0.930 . S
H3022 C3010 0.956 . S
H3023 C3010 0.961 . S
H3024 C3010 0.961 . S
H3025 C3011 0.958 . S
H3026 C3011 0.961 . S
H3027 C3011 0.960 . S
C3028 C3029 1.391 . S
C3028 C3030 1.394 . S
C3028 H3044 0.931 . S
C3029 C3028 1.391 . S
C3029 C3033 1.376 . S
C3030 C3028 1.394 . S
C3030 C3031 1.369 . S
C3030 C3034 1.531 . S
C3031 C3030 1.369 . S
C3031 C3032 1.410 . S
C3031 C3039 1.503 . S
C3032 C3031 1.410 . S
C3032 C3033 1.392 . S
C3032 C3035 1.511 . S
C3033 C3029 1.376 . S
C3033 C3032 1.392 . S
C3033 H3045 0.929 . S
C3034 C3030 1.531 . S
C3034 H3046 0.960 . S
C3034 H3047 0.962 . S
C3034 H3048 0.960 . S
C3035 C3032 1.511 . S
C3035 H3049 0.961 . S
C3035 H3050 0.961 . S
C3035 H3051 0.961 . S
C3036 C3037 1.370 . S
C3036 C3038 1.363 . S
C3036 H3052 0.931 . S
C3037 C3036 1.370 . S
C3037 C3041 1.408 . S
C3038 C3036 1.363 . S
C3038 C3039 1.370 . S
C3038 C3042 1.524 . S
C3039 C3031 1.503 . S
C3039 C3038 1.370 . S
C3039 C3040 1.403 . S
C3040 C3039 1.403 . S
C3040 C3041 1.404 . S
C3040 C3043 1.539 . S
C3041 C3037 1.408 . S
C3041 C3040 1.404 . S
C3041 H3053 0.930 . S
C3042 C3038 1.524 . S
C3042 H3054 0.956 . S
C3042 H3055 0.961 . S
C3042 H3056 0.961 . S
C3043 C3040 1.539 . S
C3043 H3057 0.958 . S
C3043 H3058 0.961 . S
C3043 H3059 0.960 . S
H3044 C3028 0.931 . S
H3045 C3033 0.929 . S
H3046 C3034 0.960 . S
H3047 C3034 0.962 . S
H3048 C3034 0.960 . S
H3049 C3035 0.961 . S
H3050 C3035 0.961 . S
H3051 C3035 0.961 . S
H3052 C3036 0.931 . S
H3053 C3041 0.930 . S
H3054 C3042 0.956 . S
H3055 C3042 0.961 . S
H3056 C3042 0.961 . S
H3057 C3043 0.958 . S
H3058 C3043 0.961 . S
H3059 C3043 0.960 . S
C1333 C439 1.386 . S
C1341 C632 1.322 . S
C1365 C465 1.488 . S
C1373 C716 1.433 . S
C1397 C401 1.456 . S
C1405 C810 1.414 . S
C1429 C369 1.436 . S
C1437 C726 1.405 . S
C1469 C800 1.369 . S
C1461 C305 1.435 . S
C1493 C343 1.354 . S
C1501 C642 1.321 . S
C1533 C643 1.378 . S
C1525 C375 1.437 . S
C1565 C727 1.396 . S
C1557 C311 1.478 . S
C1589 C337 1.394 . S
C1597 C819 1.434 . S
C1621 C433 1.390 . S
C1629 C735 1.390 . S
C1653 C471 1.399 . S
C1661 C811 1.352 . S
C1693 C651 1.359 . S
C1685 C407 1.400 . S
C1725 C884 1.312 . S
C1717 C55 1.372 . S
C1749 C81 1.511 . S
C1757 C968 1.451 . S
C1781 C17 1.471 . S
C1789 C1062 1.435 . S
C1813 C561 1.413 . S
C1821 C978 1.383 . S
C1845 C497 1.461 . S
C1853 C1052 1.383 . S
C1877 C535 1.308 . S
C1885 C894 1.339 . S
C1909 C567 1.420 . S
C1917 C895 1.353 . S
C1941 C503 1.480 . S
C1949 C979 1.398 . S
C1981 C1071 1.427 . S
C1973 C529 1.407 . S
C2005 C49 1.401 . S
C2013 C987 1.385 . S
C2045 C1063 1.362 . S
C2037 C87 1.424 . S
C2069 C23 1.410 . S
C2077 C903 1.376 . S
C2109 C1136 1.331 . S
C2101 C247 1.321 . S
C2133 C273 1.490 . S
C2141 C1220 1.445 . S
C2173 C1314 1.418 . S
C2165 C209 1.459 . S
C2205 C1230 1.381 . S
C2197 C177 1.412 . S
C2237 C1304 1.367 . S
C2229 C113 1.437 . S
C2261 C151 1.345 . S
C2269 C1146 1.325 . S
C2293 C183 1.439 . S
C2301 C1147 1.376 . S
C2325 C119 1.462 . S
C2333 C1231 1.395 . S
C2365 C1323 1.415 . S
C2357 C145 1.438 . S
C2389 C241 1.408 . S
C2397 C1239 1.382 . S
C2421 C279 1.403 . S
C2429 C1315 1.362 . S
C2453 C215 1.403 . S
C2461 C1155 1.362 . S
C2485 C509 1.427 . S
C2493 C639 1.362 . S
C2525 C723 1.323 . S
C2517 C541 1.457 . S
C2549 C573 1.454 . S
C2557 C816 1.351 . S
C2581 C221 1.493 . S
C2589 C732 1.371 . S
C2613 C253 1.403 . S
C2621 C807 1.348 . S
C2653 C648 1.349 . S
C2645 C285 1.426 . S
C2677 C125 1.459 . S
C2685 C891 1.360 . S
C2709 C157 1.417 . S
C2717 C975 1.365 . S
C2741 C189 1.453 . S
C2749 C1068 1.348 . S
C2773 C413 1.477 . S
C2781 C984 1.358 . S
C2813 C1059 1.308 . S
C2805 C445 1.432 . S
C2837 C477 1.465 . S
C2845 C900 1.378 . S
C2869 C317 1.469 . S
C2877 C1143 1.372 . S
C2901 C349 1.423 . S
C2909 C1227 1.365 . S
C2941 C1320 1.356 . S
C2933 C381 1.460 . S
C2965 C29 1.502 . S
C2973 C1236 1.383 . S
C2997 C61 1.394 . S
C3005 C1311 1.346 . S
C3029 C93 1.422 . S
C3037 C1152 1.346 . S
