# Generated by pormake.
# Topology dag, (6,3)-cn, num edge types: 1
# Building blocks:
#     Node 0, Type 0, BuildingBlock: OJICUG_clean_sbu_0, # of connection points: 6
#     Node 1, Type 0, BuildingBlock: OJICUG_clean_sbu_0, # of connection points: 6
#     Node 2, Type 0, BuildingBlock: OJICUG_clean_sbu_0, # of connection points: 6
#     Node 3, Type 0, BuildingBlock: OJICUG_clean_sbu_0, # of connection points: 6
#     Node 4, Type 1, BuildingBlock: ESEHIV_clean_linker_0, # of connection points: 3
#     Node 5, Type 1, BuildingBlock: ESEHIV_clean_linker_0, # of connection points: 3
#     Node 6, Type 1, BuildingBlock: ESEHIV_clean_linker_0, # of connection points: 3
#     Node 7, Type 1, BuildingBlock: ESEHIV_clean_linker_0, # of connection points: 3
#     Node 8, Type 1, BuildingBlock: ESEHIV_clean_linker_0, # of connection points: 3
#     Node 9, Type 1, BuildingBlock: ESEHIV_clean_linker_0, # of connection points: 3
#     Node 10, Type 1, BuildingBlock: ESEHIV_clean_linker_0, # of connection points: 3
#     Node 11, Type 1, BuildingBlock: ESEHIV_clean_linker_0, # of connection points: 3
#     Edge 12, Type (0, 1), BuildingBlock: TEMPAE_clean_linker_10, # of connection points: 2
#     Edge 13, Type (0, 1), BuildingBlock: TEMPAE_clean_linker_10, # of connection points: 2
#     Edge 14, Type (0, 1), BuildingBlock: TEMPAE_clean_linker_10, # of connection points: 2
#     Edge 15, Type (0, 1), BuildingBlock: TEMPAE_clean_linker_10, # of connection points: 2
#     Edge 16, Type (0, 1), BuildingBlock: TEMPAE_clean_linker_10, # of connection points: 2
#     Edge 17, Type (0, 1), BuildingBlock: TEMPAE_clean_linker_10, # of connection points: 2
#     Edge 18, Type (0, 1), BuildingBlock: TEMPAE_clean_linker_10, # of connection points: 2
#     Edge 19, Type (0, 1), BuildingBlock: TEMPAE_clean_linker_10, # of connection points: 2
#     Edge 20, Type (0, 1), BuildingBlock: TEMPAE_clean_linker_10, # of connection points: 2
#     Edge 21, Type (0, 1), BuildingBlock: TEMPAE_clean_linker_10, # of connection points: 2
#     Edge 22, Type (0, 1), BuildingBlock: TEMPAE_clean_linker_10, # of connection points: 2
#     Edge 23, Type (0, 1), BuildingBlock: TEMPAE_clean_linker_10, # of connection points: 2
#     Edge 24, Type (0, 1), BuildingBlock: TEMPAE_clean_linker_10, # of connection points: 2
#     Edge 25, Type (0, 1), BuildingBlock: TEMPAE_clean_linker_10, # of connection points: 2
#     Edge 26, Type (0, 1), BuildingBlock: TEMPAE_clean_linker_10, # of connection points: 2
#     Edge 27, Type (0, 1), BuildingBlock: TEMPAE_clean_linker_10, # of connection points: 2
#     Edge 28, Type (0, 1), BuildingBlock: TEMPAE_clean_linker_10, # of connection points: 2
#     Edge 29, Type (0, 1), BuildingBlock: TEMPAE_clean_linker_10, # of connection points: 2
#     Edge 30, Type (0, 1), BuildingBlock: TEMPAE_clean_linker_10, # of connection points: 2
#     Edge 31, Type (0, 1), BuildingBlock: TEMPAE_clean_linker_10, # of connection points: 2
#     Edge 32, Type (0, 1), BuildingBlock: TEMPAE_clean_linker_10, # of connection points: 2
#     Edge 33, Type (0, 1), BuildingBlock: TEMPAE_clean_linker_10, # of connection points: 2
#     Edge 34, Type (0, 1), BuildingBlock: TEMPAE_clean_linker_10, # of connection points: 2
#     Edge 35, Type (0, 1), BuildingBlock: TEMPAE_clean_linker_10, # of connection points: 2
# Relax obj value: 0.253
# Max RMSD: 0.198
# Mean RMSD: 0.163
data_MOF--net-dag--node1-OJICUG_clean_sbu_0--node2-ESEHIV_clean_linker_0--edge1-TEMPAE_clean_linker_10
_symmetry_space_group_name_H-M    P1
_symmetry_Int_Tables_number       1
_symmetry_cell_setting            triclinic
loop_
_symmetry_equiv_pos_as_xyz
'x, y, z'
_cell_length_a     34.335575
_cell_length_b     35.881555
_cell_length_c     35.26568
_cell_angle_alpha  95.151153
_cell_angle_beta   89.976917
_cell_angle_gamma 90.051818
loop_
_atom_site_label
_atom_site_type_symbol
_atom_site_fract_x
_atom_site_fract_y
_atom_site_fract_z
_atom_type_partial_charge
Sc0 Sc 0.09935 0.85301 0.05294 0.0
Sc1 Sc 0.12689 0.75812 0.04067 0.0
Sc2 Sc 0.18815 0.82567 0.09039 0.0
O3 O 0.1382 0.81219 0.06123 0.0
C4 C 0.18056 0.89348 0.0387 0.0
C5 C 0.09767 0.80331 0.9727 0.0
C6 C 0.21876 0.76373 0.02682 0.0
C7 C 0.04271 0.78634 0.06921 0.0
C8 C 0.12732 0.87881 0.13728 0.0
C9 C 0.16008 0.75032 0.12409 0.0
O10 O 0.14388 0.8898 0.03458 0.0
O11 O 0.11251 0.77394 0.98446 0.0
O12 O 0.22382 0.79171 0.05098 0.0
O13 O 0.05128 0.82084 0.07084 0.0
O14 O 0.15975 0.86183 0.1342 0.0
O15 O 0.1401 0.73763 0.0953 0.0
O16 O 0.10275 0.87781 0.11037 0.0
O17 O 0.06605 0.76044 0.05721 0.0
O18 O 0.17917 0.7808 0.1254 0.0
O19 O 0.09071 0.8327 0.99452 0.0
O20 O 0.20082 0.87222 0.0579 0.0
O21 O 0.18566 0.74854 0.02058 0.0
Sc22 Sc 0.70174 0.67005 0.4547 0.0
Sc23 Sc 0.63788 0.73669 0.50246 0.0
Sc24 Sc 0.61464 0.64095 0.49489 0.0
O25 O 0.6515 0.68266 0.48409 0.0
C26 C 0.64099 0.61522 0.40983 0.0
C27 C 0.67267 0.74438 0.41966 0.0
C28 C 0.55421 0.70441 0.47719 0.0
C29 C 0.73011 0.73404 0.51687 0.0
C30 C 0.69697 0.60249 0.50729 0.0
C31 C 0.61138 0.69323 0.57317 0.0
O32 O 0.67301 0.63314 0.41154 0.0
O33 O 0.65028 0.75558 0.44713 0.0
O34 O 0.56444 0.67062 0.47863 0.0
O35 O 0.73616 0.70522 0.49401 0.0
O36 O 0.66054 0.60597 0.51263 0.0
O37 O 0.62338 0.7229 0.55956 0.0
O38 O 0.71621 0.62362 0.48705 0.0
O39 O 0.69655 0.74863 0.5222 0.0
O40 O 0.60717 0.66229 0.55305 0.0
O41 O 0.6933 0.71495 0.41925 0.0
O42 O 0.61744 0.61562 0.43762 0.0
O43 O 0.5773 0.73171 0.48528 0.0
Sc44 Sc 0.86232 0.23569 -0.00112 0.0
Sc45 Sc 0.79959 0.16802 0.95158 0.0
Sc46 Sc 0.88233 0.13958 -0.00038 0.0
O47 O 0.84807 0.18117 0.98337 0.0
C48 C 0.94593 0.20015 0.98001 0.0
C49 C 0.83118 0.24031 0.91453 0.0
C50 C 0.8618 0.11047 0.91367 0.0
C51 C 0.76947 0.23406 0.01026 0.0
C52 C 0.88236 0.19684 0.07448 0.0
C53 C 0.79865 0.10304 0.00784 0.0
O54 O 0.92322 0.22818 0.98445 0.0
O55 O 0.80969 0.21158 0.91506 0.0
O56 O 0.88199 0.11025 0.94386 0.0
O57 O 0.80297 0.24896 0.01548 0.0
O58 O 0.88611 0.16449 0.05702 0.0
O59 O 0.78226 0.12254 0.9841 0.0
O60 O 0.87386 0.22564 0.05755 0.0
O61 O 0.76375 0.20425 0.98865 0.0
O62 O 0.83425 0.10702 0.01699 0.0
O63 O 0.85327 0.25199 0.94198 0.0
O64 O 0.93477 0.167 0.98418 0.0
O65 O 0.83158 0.13066 0.9113 0.0
Sc66 Sc 0.37839 0.35459 0.54548 0.0
Sc67 Sc 0.29834 0.32781 0.59805 0.0
Sc68 Sc 0.36149 0.259 0.55336 0.0
O69 O 0.34612 0.31367 0.56568 0.0
C70 C 0.37947 0.29249 0.47463 0.0
C71 C 0.29415 0.38793 0.53671 0.0
C72 C 0.26834 0.2589 0.54301 0.0
C73 C 0.3591 0.38869 0.63061 0.0
C74 C 0.4442 0.29834 0.56923 0.0
C75 C 0.33157 0.2581 0.6384 0.0
O76 O 0.3833 0.32561 0.49005 0.0
O77 O 0.28017 0.37253 0.56477 0.0
O78 O 0.30189 0.2438 0.53893 0.0
O79 O 0.37686 0.3887 0.59894 0.0
O80 O 0.42254 0.26938 0.56606 0.0
O81 O 0.30899 0.28577 0.6362 0.0
O82 O 0.43178 0.33076 0.56358 0.0
O83 O 0.33113 0.3665 0.6361 0.0
O84 O 0.35426 0.24608 0.61161 0.0
O85 O 0.32858 0.38215 0.52462 0.0
O86 O 0.37136 0.2649 0.49349 0.0
O87 O 0.26248 0.29001 0.56251 0.0
H88 H 0.02401 0.11196 0.26254 0.0
H89 H 0.09763 0.10181 0.35929 0.0
H90 H 0.03433 0.20425 0.34823 0.0
C91 C 0.03552 0.12357 0.28974 0.0
C92 C 0.02565 0.16015 0.30345 0.0
C93 C 0.06136 0.10238 0.30968 0.0
C94 C 0.07634 0.1176 0.34463 0.0
C95 C 0.06687 0.15444 0.35881 0.0
C96 C 0.04105 0.17554 0.33818 0.0
H97 H 0.49369 0.60135 0.77791 0.0
H98 H 0.4013 0.60223 0.85989 0.0
H99 H 0.47147 0.70083 0.85198 0.0
C100 C 0.47842 0.61524 0.80215 0.0
C101 C 0.48738 0.65264 0.81415 0.0
C102 C 0.44707 0.5971 0.81812 0.0
C103 C 0.42606 0.61595 0.84803 0.0
C104 C 0.43493 0.6532 0.86084 0.0
C105 C 0.46539 0.67164 0.84341 0.0
H106 H 0.75989 0.8623 0.07226 0.0
H107 H 0.75661 0.79616 0.16796 0.0
H108 H 0.67121 0.88192 0.15779 0.0
C109 C 0.74583 0.85459 0.09791 0.0
C110 C 0.71352 0.87537 0.11231 0.0
C111 C 0.76253 0.82658 0.11809 0.0
C112 C 0.74377 0.81686 0.1512 0.0
C113 C 0.71037 0.83615 0.16509 0.0
C114 C 0.69572 0.86577 0.14595 0.0
H115 H 0.7208 0.35625 0.57826 0.0
H116 H 0.74291 0.2835 0.66587 0.0
H117 H 0.82125 0.37456 0.65035 0.0
C118 C 0.73998 0.34693 0.59993 0.0
C119 C 0.77336 0.36805 0.61057 0.0
C120 C 0.72863 0.31655 0.61977 0.0
C121 C 0.75206 0.30626 0.64965 0.0
C122 C 0.78556 0.32701 0.6607 0.0
C123 C 0.7961 0.35787 0.64108 0.0
H124 H 0.52926 0.38211 0.29212 0.0
H125 H 0.60122 0.38909 0.19366 0.0
H126 H 0.53587 0.28839 0.20752 0.0
C127 C 0.54017 0.36967 0.265 0.0
C128 C 0.52928 0.33304 0.25216 0.0
C129 C 0.56606 0.39 0.24414 0.0
C130 C 0.57991 0.374 0.20906 0.0
C131 C 0.56921 0.33729 0.19557 0.0
C132 C 0.54345 0.31702 0.21713 0.0
H133 H 0.21621 0.14423 0.97261 0.0
H134 H 0.24664 0.21922 0.88922 0.0
H135 H 0.31515 0.1203 0.89993 0.0
C136 C 0.23654 0.15299 0.9516 0.0
C137 C 0.2677 0.12938 0.93989 0.0
C138 C 0.22853 0.18531 0.93341 0.0
C139 C 0.25335 0.19495 0.90426 0.0
C140 C 0.28475 0.1717 0.89215 0.0
C141 C 0.2918 0.13893 0.91007 0.0
H142 H 0.28617 0.65086 0.46336 0.0
H143 H 0.26489 0.70869 0.36412 0.0
H144 H 0.20619 0.60503 0.37732 0.0
C145 C 0.27043 0.65322 0.43711 0.0
C146 C 0.24466 0.62444 0.42366 0.0
C147 C 0.27903 0.68307 0.41529 0.0
C148 C 0.2587 0.68575 0.38123 0.0
C149 C 0.2321 0.65792 0.36778 0.0
C150 C 0.22492 0.62748 0.3891 0.0
H151 H 0.99881 0.91049 0.76122 0.0
H152 H 0.98108 0.81007 0.68721 0.0
H153 H 0.91058 0.90744 0.67505 0.0
C154 C 0.98518 0.89619 0.73625 0.0
C155 C 0.95467 0.9138 0.71841 0.0
C156 C 0.99479 0.85869 0.72534 0.0
C157 C 0.97455 0.83929 0.69509 0.0
C158 C 0.94458 0.85695 0.67628 0.0
C159 C 0.93509 0.8943 0.68793 0.0
C160 C 0.14882 0.91737 0.19639 0.0
C161 C 0.11869 0.90333 0.17229 0.0
C162 C 0.14169 0.94606 0.22535 0.0
C163 C 0.10358 0.96075 0.23028 0.0
C164 C 0.07253 0.94422 0.20838 0.0
C165 C 0.08048 0.91579 0.17958 0.0
C166 C 0.17549 0.96271 0.24839 0.0
C167 C 0.03136 0.95871 0.21305 0.0
C168 C 0.07472 0.03361 0.31044 0.0
C169 C 0.0757 0.06625 0.29142 0.0
C170 C 0.08524 -0.0011 0.29148 0.0
C171 C 0.09713 0.99718 0.25288 0.0
C172 C 0.09996 0.03046 0.23433 0.0
C173 C 0.08921 0.06452 0.25384 0.0
C174 C 0.08203 0.964 0.31217 0.0
C175 C 0.11287 0.03001 0.1933 0.0
H176 H 0.17839 0.90768 0.19117 0.0
H177 H 0.05689 0.90451 0.1616 0.0
H178 H 0.18388 0.9897 0.23761 0.0
H179 H 0.1673 0.96856 0.27877 0.0
H180 H 0.2013 0.94397 0.24642 0.0
H181 H 0.0099 0.93952 0.19792 0.0
H182 H 0.02328 0.96269 0.24359 0.0
H183 H 0.02926 0.98637 0.20141 0.0
H184 H 0.0644 0.03505 0.33959 0.0
H185 H 0.09075 0.08994 0.23941 0.0
H186 H 0.10842 0.9464 0.30733 0.0
H187 H 0.0568 0.94714 0.30087 0.0
H188 H 0.0779 0.97059 0.34329 0.0
H189 H 0.1413 0.01555 0.18923 0.0
H190 H 0.11574 0.05862 0.1839 0.0
H191 H 0.09141 0.01426 0.17457 0.0
C192 C 0.61298 0.72169 0.64129 0.0
C193 C 0.59891 0.69454 0.61351 0.0
C194 C 0.60052 0.72223 0.67944 0.0
C195 C 0.57289 0.69548 0.68959 0.0
C196 C 0.55838 0.66838 0.66145 0.0
C197 C 0.57178 0.6681 0.62402 0.0
C198 C 0.61717 0.75097 0.70887 0.0
C199 C 0.52843 0.6396 0.67073 0.0
C200 C 0.5523 0.65761 0.78332 0.0
C201 C 0.51525 0.67266 0.79124 0.0
C202 C 0.57437 0.66882 0.75284 0.0
C203 C 0.55841 0.69491 0.72931 0.0
C204 C 0.523 0.71325 0.73995 0.0
C205 C 0.50188 0.702 0.77105 0.0
C206 C 0.61248 0.64934 0.74317 0.0
C207 C 0.50479 0.7411 0.71568 0.0
H208 H 0.63406 0.7421 0.63334 0.0
H209 H 0.56033 0.64731 0.60269 0.0
H210 H 0.5934 0.76702 0.72407 0.0
H211 H 0.63357 0.73668 0.73047 0.0
H212 H 0.63704 0.77087 0.69611 0.0
H213 H 0.51925 0.6213 0.64521 0.0
H214 H 0.54046 0.62162 0.69189 0.0
H215 H 0.50221 0.65372 0.68355 0.0
H216 H 0.56271 0.63508 0.79918 0.0
H217 H 0.47313 0.71354 0.7771 0.0
H218 H 0.63399 0.66898 0.7325 0.0
H219 H 0.60758 0.62647 0.72033 0.0
H220 H 0.62499 0.6369 0.76821 0.0
H221 H 0.52708 0.75995 0.70503 0.0
H222 H 0.48224 0.75831 0.73161 0.0
H223 H 0.49072 0.72578 0.69057 0.0
C224 C 0.79612 0.04476 0.04121 0.0
C225 C 0.77621 0.07297 0.02414 0.0
C226 C 0.77615 0.01474 0.05492 0.0
C227 C 0.73502 0.01304 0.05213 0.0
C228 C 0.71448 0.04192 0.03596 0.0
C229 C 0.73539 0.0714 0.02173 0.0
C230 C 0.79934 0.98441 0.07175 0.0
C231 C 0.67064 0.04138 0.03302 0.0
C232 C 0.70574 0.91269 0.0562 0.0
C233 C 0.70406 0.91091 0.09574 0.0
C234 C 0.71132 0.94696 0.04075 0.0
C235 C 0.71455 0.98012 0.0655 0.0
C236 C 0.70682 0.97905 0.10481 0.0
C237 C 0.70193 0.94432 0.11959 0.0
C238 C 0.71884 0.94686 0.99858 0.0
C239 C 0.70859 0.01398 0.13197 0.0
H240 H 0.82762 0.04556 0.04307 0.0
H241 H 0.71976 0.09318 0.0087 0.0
H242 H 0.79018 0.98203 0.1016 0.0
H243 H 0.79371 0.95699 0.05551 0.0
H244 H 0.83119 0.98986 0.0715 0.0
H245 H 0.65883 0.06897 0.0267 0.0
H246 H 0.66164 0.02023 0.0098 0.0
H247 H 0.65727 0.03338 0.05977 0.0
H248 H 0.70634 0.88696 0.03757 0.0
H249 H 0.70038 0.94332 0.15018 0.0
H250 H 0.75065 0.94915 0.99366 0.0
H251 H 0.70467 0.97113 0.98694 0.0
H252 H 0.70822 0.92074 0.98259 0.0
H253 H 0.7395 0.02108 0.13838 0.0
H254 H 0.69354 0.01004 0.15922 0.0
H255 H 0.69527 0.03806 0.11915 0.0
C256 C 0.50969 0.32658 0.5836 0.0
C257 C 0.48608 0.29454 0.57878 0.0
C258 C 0.54962 0.32396 0.59088 0.0
C259 C 0.56665 0.28839 0.59352 0.0
C260 C 0.54308 0.25588 0.58932 0.0
C261 C 0.50301 0.25932 0.58198 0.0
C262 C 0.57367 0.35941 0.59531 0.0
C263 C 0.56029 0.21754 0.59208 0.0
C264 C 0.67509 0.29246 0.57593 0.0
C265 C 0.68921 0.30018 0.6131 0.0
C266 C 0.63541 0.28523 0.56913 0.0
C267 C 0.60929 0.28594 0.60029 0.0
C268 C 0.62394 0.29053 0.63793 0.0
C269 C 0.66377 0.2976 0.6439 0.0
C270 C 0.62105 0.28004 0.52855 0.0
C271 C 0.59713 0.29144 0.67194 0.0
H272 H 0.49707 0.35398 0.58138 0.0
H273 H 0.4851 0.23438 0.57831 0.0
H274 H 0.58845 0.36194 0.62339 0.0
H275 H 0.59666 0.35837 0.57311 0.0
H276 H 0.55582 0.38492 0.59298 0.0
H277 H 0.53783 0.19516 0.58949 0.0
H278 H 0.58224 0.21155 0.56925 0.0
H279 H 0.57561 0.21655 0.61966 0.0
H280 H 0.69477 0.29401 0.55207 0.0
H281 H 0.67438 0.30386 0.67272 0.0
H282 H 0.60599 0.30589 0.52149 0.0
H283 H 0.5997 0.25678 0.52487 0.0
H284 H 0.64528 0.27422 0.50799 0.0
H285 H 0.58099 0.31833 0.67468 0.0
H286 H 0.6134 0.2889 0.69882 0.0
H287 H 0.57531 0.26858 0.66828 0.0
C288 C 0.59278 0.57917 0.3685 0.0
C289 C 0.63147 0.59042 0.3753 0.0
C290 C 0.58367 0.55033 0.34052 0.0
C291 C 0.61403 0.53211 0.31899 0.0
C292 C 0.65271 0.54555 0.32334 0.0
C293 C 0.66101 0.57474 0.35147 0.0
C294 C 0.54194 0.53722 0.33645 0.0
C295 C 0.68581 0.52707 0.30066 0.0
C296 C 0.59523 0.42856 0.29892 0.0
C297 C 0.58154 0.42614 0.26138 0.0
C298 C 0.6075 0.46269 0.31727 0.0
C299 C 0.60607 0.49535 0.29757 0.0
C300 C 0.59396 0.49286 0.25903 0.0
C301 C 0.58188 0.4581 0.24125 0.0
C302 C 0.62055 0.46397 0.3583 0.0
C303 C 0.5922 0.52706 0.23714 0.0
H304 H 0.5697 0.59173 0.38632 0.0
H305 H 0.69094 0.58349 0.35641 0.0
H306 H 0.53367 0.5326 0.30599 0.0
H307 H 0.53874 0.51011 0.34902 0.0
H308 H 0.52128 0.55756 0.35107 0.0
H309 H 0.71231 0.54492 0.30189 0.0
H310 H 0.69318 0.50026 0.31237 0.0
H311 H 0.67734 0.52051 0.27045 0.0
H312 H 0.59583 0.40365 0.3142 0.0
H313 H 0.57144 0.45614 0.21213 0.0
H314 H 0.59983 0.48107 0.37669 0.0
H315 H 0.64959 0.47743 0.36173 0.0
H316 H 0.62224 0.43568 0.36866 0.0
H317 H 0.56781 0.54523 0.24808 0.0
H318 H 0.58765 0.51966 0.20619 0.0
H319 H 0.61938 0.54369 0.2412 0.0
C320 C 0.01205 0.17484 0.96335 0.0
C321 C 0.98759 0.20594 0.97086 0.0
C322 C 0.05192 0.17917 0.95684 0.0
C323 C 0.068 0.21557 0.9577 0.0
C324 C 0.04353 0.24721 0.96437 0.0
C325 C 0.00353 0.24203 0.97091 0.0
C326 C 0.07695 0.14459 0.94965 0.0
C327 C 0.0597 0.2864 0.96531 0.0
C328 C 0.17559 0.2102 0.97746 0.0
C329 C 0.1904 0.20422 0.94035 0.0
C330 C 0.13596 0.21787 0.98384 0.0
C331 C 0.11069 0.21964 0.95233 0.0
C332 C 0.12632 0.21782 0.91507 0.0
C333 C 0.16604 0.21003 0.90949 0.0
C334 C 0.12058 0.22006 0.02408 0.0
C335 C 0.10049 0.21999 0.88071 0.0
H336 H 0.00015 0.14682 0.96296 0.0
H337 H 0.98492 0.26626 0.97667 0.0
H338 H 0.09217 0.14488 0.92193 0.0
H339 H 0.09958 0.14426 0.97207 0.0
H340 H 0.05974 0.11832 0.94934 0.0
H341 H 0.03642 0.30795 0.96788 0.0
H342 H 0.07981 0.29156 0.98984 0.0
H343 H 0.07683 0.28977 0.93916 0.0
H344 H 0.19448 0.20631 0.00142 0.0
H345 H 0.17717 0.20531 0.88069 0.0
H346 H 0.1059 0.19332 0.02891 0.0
H347 H 0.09873 0.24274 0.0289 0.0
H348 H 0.14426 0.22494 0.04541 0.0
H349 H 0.08504 0.19294 0.87459 0.0
H350 H 0.11753 0.22566 0.85506 0.0
H351 H 0.07812 0.24212 0.88608 0.0
C352 C 0.27392 0.41985 0.48031 0.0
C353 C 0.27141 0.41681 0.51953 0.0
C354 C 0.26015 0.45176 0.4645 0.0
C355 C 0.24482 0.48178 0.48877 0.0
C356 C 0.23917 0.47744 0.52793 0.0
C357 C 0.25219 0.44465 0.54282 0.0
C358 C 0.2656 0.45477 0.4224 0.0
C359 C 0.22345 0.5089 0.55487 0.0
C360 C 0.27705 0.57534 0.45874 0.0
C361 C 0.24301 0.58908 0.44288 0.0
C362 C 0.27722 0.54141 0.47531 0.0
C363 C 0.24287 0.51959 0.47482 0.0
C364 C 0.20825 0.53305 0.45909 0.0
C365 C 0.20862 0.56787 0.4436 0.0
C366 C 0.31477 0.5284 0.49225 0.0
C367 C 0.17131 0.51016 0.4574 0.0
H368 H 0.28843 0.39803 0.46227 0.0
H369 H 0.2504 0.4423 0.57322 0.0
H370 H 0.23983 0.46794 0.41015 0.0
H371 H 0.29122 0.47273 0.41791 0.0
H372 H 0.27059 0.42697 0.40662 0.0
H373 H 0.21381 0.49885 0.58226 0.0
H374 H 0.24668 0.53011 0.56103 0.0
H375 H 0.19867 0.523 0.54197 0.0
H376 H 0.30422 0.59048 0.45724 0.0
H377 H 0.1821 0.57821 0.43163 0.0
H378 H 0.32582 0.50333 0.47487 0.0
H379 H 0.30963 0.52034 0.52149 0.0
H380 H 0.33778 0.55027 0.49355 0.0
H381 H 0.17525 0.485 0.43706 0.0
H382 H 0.14592 0.52619 0.44807 0.0
H383 H 0.16476 0.50022 0.48559 0.0
C384 C 0.10538 0.7806 0.9034 0.0
C385 C 0.08697 0.80387 0.9321 0.0
C386 C 0.09605 0.78294 0.86479 0.0
C387 C 0.06739 0.80878 0.85498 0.0
C388 C 0.04816 0.83161 0.884 0.0
C389 C 0.05832 0.829 0.92203 0.0
C390 C 0.11743 0.75852 0.83456 0.0
C391 C 0.01696 0.85921 0.87496 0.0
C392 C 0.05524 0.85523 0.76436 0.0
C393 C 0.02047 0.83867 0.75051 0.0
C394 C 0.07395 0.84258 0.79614 0.0
C395 C 0.0571 0.81306 0.81465 0.0
C396 C 0.02454 0.79357 0.79812 0.0
C397 C 0.00662 0.80659 0.76611 0.0
C398 C 0.10914 0.86362 0.81234 0.0
C399 C 0.0057 0.76189 0.81682 0.0
H400 H 0.12768 0.76126 0.91105 0.0
H401 H 0.0436 0.84674 0.94405 0.0
H402 H 0.09651 0.74367 0.81454 0.0
H403 H 0.13598 0.77625 0.8177 0.0
H404 H 0.13624 0.73754 0.84693 0.0
H405 H 0.00404 0.874 0.901 0.0
H406 H 0.0294 0.88043 0.85737 0.0
H407 H 0.99327 0.84455 0.85822 0.0
H408 H 0.06626 0.87975 0.75198 0.0
H409 H 0.97966 0.79374 0.75558 0.0
H410 H 0.13088 0.84414 0.82283 0.0
H411 H 0.10004 0.88321 0.83688 0.0
H412 H 0.12323 0.88013 0.79094 0.0
H413 H 0.02795 0.74322 0.82778 0.0
H414 H 0.98623 0.74499 0.79683 0.0
H415 H 0.98801 0.7736 0.84141 0.0
C416 C 0.86643 0.09414 0.84312 0.0
C417 C 0.87399 0.0853 0.88035 0.0
C418 C 0.87904 0.07041 0.81159 0.0
C419 C 0.89869 0.03677 0.81765 0.0
C420 C 0.90603 0.02767 0.85523 0.0
C421 C 0.89398 0.05223 0.88605 0.0
C422 C 0.87154 0.08135 0.77191 0.0
C423 C 0.9262 0.9917 0.86299 0.0
C424 C 0.89937 0.9509 0.7475 0.0
C425 C 0.93866 0.94931 0.73663 0.0
C426 C 0.88512 0.98081 0.77182 0.0
C427 C 0.91072 0.01003 0.78517 0.0
C428 C 0.94959 0.01011 0.77169 0.0
C429 C 0.96327 0.97944 0.74789 0.0
C430 C 0.84368 0.97927 0.78597 0.0
C431 C 0.97751 0.0412 0.7846 0.0
H432 H 0.85131 0.11989 0.83866 0.0
H433 H 0.89963 0.04516 0.91479 0.0
H434 H 0.89939 0.08204 0.75601 0.0
H435 H 0.85267 0.06018 0.75615 0.0
H436 H 0.85731 0.10916 0.77208 0.0
H437 H 0.92908 0.98859 0.89393 0.0
H438 H 0.90966 0.96736 0.84966 0.0
H439 H 0.95572 0.99069 0.85016 0.0
H440 H 0.8804 0.92739 0.73924 0.0
H441 H 0.99361 0.97826 0.73932 0.0
H442 H 0.8291 0.00671 0.78482 0.0
H443 H 0.84378 0.9728 0.81616 0.0
H444 H 0.82624 0.95752 0.76919 0.0
H445 H 0.96325 0.06888 0.78404 0.0
H446 H 0.00407 0.0406 0.76655 0.0
H447 H 0.98653 0.03826 0.81439 0.0
C448 C 0.40422 0.25228 0.41774 0.0
C449 C 0.3885 0.28628 0.43353 0.0
C450 C 0.42211 0.24985 0.38169 0.0
C451 C 0.42448 0.2822 0.36155 0.0
C452 C 0.40443 0.31509 0.37546 0.0
C453 C 0.3866 0.31664 0.41121 0.0
C454 C 0.44158 0.21377 0.36695 0.0
C455 C 0.40556 0.35014 0.35472 0.0
C456 C 0.51719 0.31089 0.31564 0.0
C457 C 0.5057 0.31139 0.27761 0.0
C458 C 0.492 0.29817 0.3428 0.0
C459 C 0.45443 0.28513 0.33151 0.0
C460 C 0.44429 0.28173 0.29239 0.0
C461 C 0.4701 0.2952 0.26573 0.0
C462 C 0.50435 0.30214 0.38411 0.0
C463 C 0.40518 0.26665 0.27895 0.0
H464 H 0.40525 0.22848 0.43459 0.0
H465 H 0.37346 0.34268 0.42284 0.0
H466 H 0.43941 0.20922 0.33547 0.0
H467 H 0.47293 0.21507 0.37455 0.0
H468 H 0.42854 0.18942 0.37967 0.0
H469 H 0.38492 0.37178 0.36707 0.0
H470 H 0.4354 0.36212 0.35637 0.0
H471 H 0.3984 0.34361 0.32421 0.0
H472 H 0.54519 0.32264 0.32457 0.0
H473 H 0.4614 0.2952 0.23618 0.0
H474 H 0.49933 0.27564 0.39728 0.0
H475 H 0.48661 0.32418 0.40003 0.0
H476 H 0.53557 0.30985 0.38762 0.0
H477 H 0.39458 0.24478 0.29677 0.0
H478 H 0.4065 0.25477 0.24878 0.0
H479 H 0.38362 0.28975 0.2809 0.0
C480 C 0.24087 0.92887 0.02323 0.0
C481 C 0.20016 0.92487 0.02171 0.0
C482 C 0.25932 0.95981 0.00924 0.0
C483 C 0.23649 0.98748 0.99371 0.0
C484 C 0.19555 0.98315 0.99125 0.0
C485 C 0.17794 0.95189 0.00511 0.0
C486 C 0.30307 0.96333 0.0119 0.0
C487 C 0.17012 0.01213 0.97489 0.0
C488 C 0.26467 0.08914 0.994 0.0
C489 C 0.27033 0.09224 0.95504 0.0
C490 C 0.25668 0.05443 0.00759 0.0
C491 C 0.25461 0.02208 0.98155 0.0
C492 C 0.26417 0.0245 0.9428 0.0
C493 C 0.27183 0.05967 0.92993 0.0
C494 C 0.2469 0.05303 0.04919 0.0
C495 C 0.26284 0.99055 0.91427 0.0
H496 H 0.25837 0.90805 0.03576 0.0
H497 H 0.14653 0.94913 0.0037 0.0
H498 H 0.31549 0.96866 0.98384 0.0
H499 H 0.31086 0.98757 0.03224 0.0
H500 H 0.31688 0.93784 0.02156 0.0
H501 H 0.13886 0.00406 0.97411 0.0
H502 H 0.17309 0.03936 0.99223 0.0
H503 H 0.17961 0.0164 0.94553 0.0
H504 H 0.26404 0.11427 0.01353 0.0
H505 H 0.27599 0.06189 0.89974 0.0
H506 H 0.26187 0.02924 0.06094 0.0
H507 H 0.21509 0.04867 0.05227 0.0
H508 H 0.2551 0.0793 0.06644 0.0
H509 H 0.27649 0.96608 0.92606 0.0
H510 H 0.27779 0.99568 0.88727 0.0
H511 H 0.23203 0.98321 0.90765 0.0
C512 C 0.49851 0.74791 0.46559 0.0
C513 C 0.51306 0.71148 0.46711 0.0
C514 C 0.45901 0.75398 0.4573 0.0
C515 C 0.43362 0.72294 0.45088 0.0
C516 C 0.44825 0.68621 0.45224 0.0
C517 C 0.48762 0.681 0.46013 0.0
C518 C 0.44444 0.7935 0.45597 0.0
C519 C 0.4223 0.65215 0.44546 0.0
C520 C 0.32528 0.71623 0.4622 0.0
C521 C 0.31444 0.7062 0.42428 0.0
C522 C 0.36374 0.72676 0.47144 0.0
C523 C 0.39169 0.72759 0.44201 0.0
C524 C 0.3795 0.723 0.40358 0.0
C525 C 0.34106 0.71207 0.39513 0.0
C526 C 0.37536 0.73223 0.51281 0.0
C527 C 0.40814 0.72461 0.37128 0.0
H528 H 0.51787 0.77165 0.47104 0.0
H529 H 0.49832 0.6527 0.46116 0.0
H530 H 0.42602 0.79583 0.43044 0.0
H531 H 0.42606 0.80124 0.48132 0.0
H532 H 0.46871 0.81396 0.45571 0.0
H533 H 0.43826 0.62559 0.44813 0.0
H534 H 0.39791 0.65387 0.46619 0.0
H535 H 0.40946 0.65101 0.41652 0.0
H536 H 0.30455 0.71294 0.48486 0.0
H537 H 0.33321 0.7046 0.36566 0.0
H538 H 0.39703 0.75509 0.5177 0.0
H539 H 0.38903 0.70615 0.52113 0.0
H540 H 0.34981 0.73871 0.53159 0.0
H541 H 0.42965 0.74741 0.37758 0.0
H542 H 0.39319 0.7289 0.34407 0.0
H543 H 0.42438 0.6978 0.36741 0.0
C544 C 0.36487 0.40992 0.70018 0.0
C545 C 0.37151 0.41625 0.66202 0.0
C546 C 0.37715 0.436 0.72991 0.0
C547 C 0.39568 0.46944 0.72114 0.0
C548 C 0.4023 0.47596 0.68267 0.0
C549 C 0.39047 0.44915 0.65365 0.0
C550 C 0.37032 0.42785 0.77064 0.0
C551 C 0.42135 0.51157 0.67206 0.0
C552 C 0.39362 0.55834 0.78744 0.0
C553 C 0.43258 0.56122 0.79921 0.0
C554 C 0.3806 0.52745 0.76366 0.0
C555 C 0.40712 0.49855 0.75178 0.0
C556 C 0.44584 0.50011 0.76568 0.0
C557 C 0.45826 0.53169 0.78896 0.0
C558 C 0.33926 0.52718 0.74901 0.0
C559 C 0.47475 0.46949 0.75421 0.0
H560 H 0.35054 0.38436 0.7068 0.0
H561 H 0.39547 0.45434 0.62422 0.0
H562 H 0.39826 0.42932 0.7865 0.0
H563 H 0.35074 0.44931 0.78494 0.0
H564 H 0.35712 0.39982 0.77269 0.0
H565 H 0.42416 0.51237 0.64076 0.0
H566 H 0.40403 0.53615 0.68352 0.0
H567 H 0.4508 0.51446 0.6849 0.0
H568 H 0.37383 0.58138 0.79488 0.0
H569 H 0.48835 0.53386 0.79821 0.0
H570 H 0.32517 0.49985 0.7523 0.0
H571 H 0.33948 0.53118 0.71816 0.0
H572 H 0.3213 0.54968 0.76397 0.0
H573 H 0.46159 0.44159 0.75686 0.0
H574 H 0.50165 0.47212 0.77176 0.0
H575 H 0.483 0.47076 0.72393 0.0
C576 C 0.9776 0.76052 0.05111 0.0
C577 C 0.0026 0.77694 0.07917 0.0
C578 C 0.9371 0.76073 0.05688 0.0
C579 C 0.92173 0.77704 0.0918 0.0
C580 C 0.94739 0.79005 0.12156 0.0
C581 C 0.98756 0.79053 0.11459 0.0
C582 C 0.91085 0.74719 0.02419 0.0
C583 C 0.93232 0.80668 0.15959 0.0
C584 C 0.8301 0.83535 0.09326 0.0
C585 C 0.80215 0.81169 0.10767 0.0
C586 C 0.86836 0.82343 0.08603 0.0
C587 C 0.87982 0.78734 0.09481 0.0
C588 C 0.85194 0.76292 0.1088 0.0
C589 C 0.81329 0.77521 0.11462 0.0
C590 C 0.89696 0.85026 0.07041 0.0
C591 C 0.86328 0.72451 0.11918 0.0
H592 H 0.98941 0.75045 0.02356 0.0
H593 H 0.00711 0.80325 0.1362 0.0
H594 H 0.88572 0.73133 0.03425 0.0
H595 H 0.8991 0.77171 0.01089 0.0
H596 H 0.92671 0.72919 0.00203 0.0
H597 H 0.95558 0.80898 0.18157 0.0
H598 H 0.92072 0.83512 0.15661 0.0
H599 H 0.90816 0.78951 0.16965 0.0
H600 H 0.82271 0.86398 0.08887 0.0
H601 H 0.79204 0.75644 0.12533 0.0
H602 H 0.91286 0.83631 0.04567 0.0
H603 H 0.91882 0.85924 0.09252 0.0
H604 H 0.88245 0.87564 0.06127 0.0
H605 H 0.88002 0.7093 0.09575 0.0
H606 H 0.83754 0.70744 0.12572 0.0
H607 H 0.8825 0.72733 0.14457 0.0
C608 C 0.69527 0.54563 0.54312 0.0
C609 C 0.71708 0.57122 0.52398 0.0
C610 C 0.71272 0.51428 0.55679 0.0
C611 C 0.7532 0.50837 0.55163 0.0
C612 C 0.7758 0.53463 0.53354 0.0
C613 C 0.75742 0.56571 0.5197 0.0
C614 C 0.68745 0.48692 0.5759 0.0
C615 C 0.8191 0.52943 0.52799 0.0
C616 C 0.78591 0.437 0.61688 0.0
C617 C 0.78007 0.4038 0.5934 0.0
C618 C 0.78155 0.47199 0.60252 0.0
C619 C 0.77072 0.4736 0.56398 0.0
C620 C 0.7691 0.44027 0.53929 0.0
C621 C 0.77401 0.40573 0.55431 0.0
C622 C 0.78443 0.50693 0.62957 0.0
C623 C 0.75788 0.44072 0.49795 0.0
H624 H 0.66416 0.54954 0.54675 0.0
H625 H 0.77459 0.58538 0.50511 0.0
H626 H 0.68858 0.45902 0.55957 0.0
H627 H 0.6985 0.48357 0.60495 0.0
H628 H 0.65654 0.49597 0.57817 0.0
H629 H 0.83322 0.55463 0.51795 0.0
H630 H 0.83314 0.52296 0.55496 0.0
H631 H 0.82456 0.50536 0.50667 0.0
H632 H 0.79061 0.4358 0.64714 0.0
H633 H 0.77029 0.38009 0.53593 0.0
H634 H 0.7547 0.51645 0.63812 0.0
H635 H 0.79873 0.5299 0.6157 0.0
H636 H 0.80091 0.50187 0.65572 0.0
H637 H 0.72617 0.44622 0.49595 0.0
H638 H 0.76431 0.41362 0.48135 0.0
H639 H 0.77338 0.46336 0.48469 0.0
C640 C 0.89575 0.16875 0.13521 0.0
C641 C 0.89193 0.20092 0.11566 0.0
C642 C 0.91264 0.17045 0.17141 0.0
C643 C 0.9257 0.20531 0.18884 0.0
C644 C 0.91821 0.23844 0.17109 0.0
C645 C 0.90153 0.23587 0.13449 0.0
C646 C 0.9197 0.13434 0.18935 0.0
C647 C 0.93045 0.27626 0.18934 0.0
C648 C 0.96391 0.19217 0.28736 0.0
C649 C 0.00256 0.18253 0.27852 0.0
C650 C 0.93889 0.20394 0.25917 0.0
C651 C 0.95303 0.20538 0.22156 0.0
C652 C 0.99314 0.19933 0.21384 0.0
C653 C 0.0174 0.18805 0.2425 0.0
C654 C 0.89668 0.21144 0.26886 0.0
C655 C 0.00967 0.20067 0.17427 0.0
H656 H 0.88753 0.14171 0.12132 0.0
H657 H 0.8982 0.26099 0.11987 0.0
H658 H 0.95142 0.12838 0.18956 0.0
H659 H 0.90952 0.13679 0.2193 0.0
H660 H 0.90471 0.11015 0.17376 0.0
H661 H 0.91389 0.29918 0.17756 0.0
H662 H 0.92626 0.27813 0.22065 0.0
H663 H 0.96184 0.28064 0.18376 0.0
H664 H 0.95256 0.18791 0.31534 0.0
H665 H 0.04746 0.18072 0.23595 0.0
H666 H 0.87933 0.18584 0.26088 0.0
H667 H 0.88491 0.23421 0.25288 0.0
H668 H 0.8927 0.21911 0.29985 0.0
H669 H 0.9984 0.17656 0.1555 0.0
H670 H 0.042 0.19942 0.17404 0.0
H671 H 0.00043 0.22659 0.16193 0.0
C672 C 0.16673 0.75028 0.19398 0.0
C673 C 0.16083 0.72995 0.15863 0.0
C674 C 0.1721 0.73219 0.227 0.0
C675 C 0.17182 0.69263 0.22469 0.0
C676 C 0.16331 0.67186 0.18958 0.0
C677 C 0.15775 0.69086 0.15677 0.0
C678 C 0.18061 0.75554 0.26393 0.0
C679 C 0.1624 0.62967 0.18616 0.0
C680 C 0.24087 0.66259 0.2986 0.0
C681 C 0.21564 0.65901 0.32924 0.0
C682 C 0.22649 0.66991 0.26295 0.0
C683 C 0.18585 0.67395 0.25799 0.0
C684 C 0.16003 0.66701 0.28792 0.0
C685 C 0.17532 0.65953 0.32343 0.0
C686 C 0.25507 0.67671 0.23173 0.0
C687 C 0.11654 0.67056 0.28352 0.0
H688 H 0.16816 0.78059 0.1957 0.0
H689 H 0.15287 0.67509 0.1295 0.0
H690 H 0.16158 0.74692 0.28702 0.0
H691 H 0.21123 0.75109 0.2725 0.0
H692 H 0.17629 0.78592 0.26152 0.0
H693 H 0.14774 0.61816 0.15955 0.0
H694 H 0.19266 0.61884 0.18587 0.0
H695 H 0.14728 0.61913 0.21088 0.0
H696 H 0.27208 0.66136 0.30307 0.0
H697 H 0.15589 0.65636 0.34716 0.0
H698 H 0.25601 0.70706 0.22788 0.0
H699 H 0.24579 0.66183 0.2043 0.0
H700 H 0.28499 0.66747 0.23838 0.0
H701 H 0.10847 0.70062 0.28606 0.0
H702 H 0.10052 0.65668 0.30575 0.0
H703 H 0.10694 0.6583 0.25505 0.0
C704 C 0.80192 0.73994 0.52845 0.0
C705 C 0.76376 0.75122 0.5382 0.0
C706 C 0.83407 0.75571 0.54851 0.0
C707 C 0.82792 0.78321 0.5792 0.0
C708 C 0.78957 0.7948 0.58918 0.0
C709 C 0.75796 0.77877 0.56847 0.0
C710 C 0.8746 0.74289 0.53693 0.0
C711 C 0.7819 0.82394 0.62196 0.0
C712 C 0.90326 0.80118 0.65717 0.0
C713 C 0.91919 0.83534 0.64837 0.0
C714 C 0.87446 0.78314 0.63407 0.0
C715 C 0.86147 0.79966 0.60137 0.0
C716 C 0.87885 0.83318 0.59131 0.0
C717 C 0.90745 0.85072 0.61505 0.0
C718 C 0.85653 0.74747 0.64576 0.0
C719 C 0.86605 0.85137 0.5564 0.0
H720 H 0.80678 0.71881 0.50499 0.0
H721 H 0.72864 0.78758 0.57632 0.0
H722 H 0.89242 0.76716 0.52993 0.0
H723 H 0.88912 0.73061 0.56099 0.0
H724 H 0.87444 0.72173 0.51192 0.0
H725 H 0.75036 0.8299 0.62601 0.0
H726 H 0.79372 0.81433 0.6487 0.0
H727 H 0.79705 0.8504 0.61703 0.0
H728 H 0.91185 0.78949 0.68321 0.0
H729 H 0.91995 0.87703 0.60814 0.0
H730 H 0.85689 0.72545 0.62158 0.0
H731 H 0.82563 0.75257 0.65383 0.0
H732 H 0.87196 0.73677 0.67026 0.0
H733 H 0.86653 0.83074 0.53102 0.0
H734 H 0.88481 0.87551 0.55077 0.0
H735 H 0.83563 0.8614 0.56022 0.0
C736 C 0.69781 0.23871 0.02355 0.0
C737 C 0.73597 0.25094 0.032 0.0
C738 C 0.66623 0.25224 0.046 0.0
C739 C 0.67307 0.27827 0.07783 0.0
C740 C 0.71128 0.2916 0.08582 0.0
C741 C 0.74222 0.27793 0.06269 0.0
C742 C 0.62577 0.23785 0.03636 0.0
C743 C 0.71975 0.31927 0.11968 0.0
C744 C 0.59501 0.33771 0.12927 0.0
C745 C 0.58962 0.31884 0.162 0.0
C746 C 0.62032 0.32357 0.10023 0.0
C747 C 0.64093 0.29005 0.1044 0.0
C748 C 0.63375 0.26974 0.1363 0.0
C749 C 0.60804 0.28435 0.1647 0.0
C750 C 0.62673 0.34565 0.0663 0.0
C751 C 0.65528 0.23394 0.14183 0.0
H752 H 0.69261 0.21809 -0.0003 0.0
H753 H 0.77154 0.28754 0.06951 0.0
H754 H 0.61531 0.22069 0.05895 0.0
H755 H 0.60519 0.26154 0.0352 0.0
H756 H 0.62485 0.22044 0.00868 0.0
H757 H 0.75084 0.32791 0.12108 0.0
H758 H 0.7015 0.34463 0.11852 0.0
H759 H 0.71226 0.30668 0.14636 0.0
H760 H 0.5805 0.36426 0.12706 0.0
H761 H 0.6043 0.26991 0.19017 0.0
H762 H 0.62589 0.32696 0.03949 0.0
H763 H 0.65598 0.35885 0.06827 0.0
H764 H 0.60462 0.36804 0.06467 0.0
H765 H 0.65347 0.21429 0.11576 0.0
H766 H 0.64367 0.21977 0.1662 0.0
H767 H 0.68656 0.24026 0.14714 0.0
C768 C 0.36476 0.22391 0.6883 0.0
C769 C 0.33097 0.23962 0.67411 0.0
C770 C 0.36464 0.20956 0.72413 0.0
C771 C 0.32975 0.21043 0.74563 0.0
C772 C 0.29526 0.22491 0.73059 0.0
C773 C 0.29642 0.23961 0.69522 0.0
C774 C 0.40202 0.19479 0.73954 0.0
C775 C 0.25721 0.22569 0.75223 0.0
C776 C 0.30616 0.15158 0.82603 0.0
C777 C 0.30575 0.17897 0.85697 0.0
C778 C 0.31739 0.16056 0.78972 0.0
C779 C 0.32876 0.19769 0.78453 0.0
C780 C 0.33207 0.22441 0.81646 0.0
C781 C 0.32012 0.21481 0.85233 0.0
C782 C 0.31321 0.13133 0.75642 0.0
C783 C 0.34484 0.26409 0.81223 0.0
H784 H 0.39157 0.22414 0.67207 0.0
H785 H 0.27015 0.25136 0.6841 0.0
H786 H 0.41174 0.2136 0.76444 0.0
H787 H 0.39731 0.16672 0.7496 0.0
H788 H 0.42567 0.19288 0.71795 0.0
H789 H 0.23264 0.23594 0.73551 0.0
H790 H 0.24991 0.19726 0.76011 0.0
H791 H 0.25997 0.24422 0.77903 0.0
H792 H 0.29478 0.1239 0.82957 0.0
H793 H 0.32008 0.23586 0.8764 0.0
H794 H 0.33821 0.1323 0.73661 0.0
H795 H 0.28644 0.13705 0.74031 0.0
H796 H 0.31096 0.10266 0.7658 0.0
H797 H 0.37038 0.26451 0.793 0.0
H798 H 0.35242 0.27928 0.8401 0.0
H799 H 0.32086 0.27941 0.79936 0.0
C800 C 0.64049 0.7811 0.3714 0.0
C801 C 0.67425 0.76545 0.38567 0.0
C802 C 0.641 0.7965 0.33612 0.0
C803 C 0.67628 0.79685 0.31531 0.0
C804 C 0.71085 0.78301 0.33081 0.0
C805 C 0.70929 0.76708 0.36558 0.0
C806 C 0.60349 0.81048 0.32022 0.0
C807 C 0.74928 0.78363 0.30997 0.0
C808 C 0.68311 0.79134 0.20806 0.0
C809 C 0.69422 0.8279 0.20223 0.0
C810 C 0.67401 0.78155 0.24462 0.0
C811 C 0.67709 0.80886 0.27609 0.0
C812 C 0.68619 0.84636 0.26998 0.0
C813 C 0.69441 0.85551 0.23294 0.0
C814 C 0.66365 0.74142 0.24983 0.0
C815 C 0.69026 0.87614 0.30279 0.0
H816 H 0.61331 0.77957 0.38685 0.0
H817 H 0.73549 0.75528 0.37682 0.0
H818 H 0.60771 0.83853 0.30998 0.0
H819 H 0.59434 0.79128 0.29539 0.0
H820 H 0.57963 0.81209 0.34159 0.0
H821 H 0.77398 0.77496 0.32751 0.0
H822 H 0.74791 0.76441 0.28354 0.0
H823 H 0.7553 0.81212 0.30149 0.0
H824 H 0.68289 0.77011 0.18414 0.0
H825 H 0.70338 0.88374 0.22833 0.0
H826 H 0.63798 0.74017 0.26879 0.0
H827 H 0.68832 0.72787 0.26354 0.0
H828 H 0.6572 0.72505 0.22229 0.0
H829 H 0.66553 0.875 0.32289 0.0
H830 H 0.69181 0.90467 0.29298 0.0
H831 H 0.7173 0.87109 0.31877 0.0
C832 C 0.79522 0.26228 0.85991 0.0
C833 C 0.83032 0.26021 0.87978 0.0
C834 C 0.79392 0.27723 0.82467 0.0
C835 C 0.82879 0.28969 0.80846 0.0
C836 C 0.86422 0.28881 0.82893 0.0
C837 C 0.8645 0.27435 0.86471 0.0
C838 C 0.75532 0.27844 0.8042 0.0
C839 C 0.90201 0.30136 0.81229 0.0
C840 C 0.81744 0.28291 0.70177 0.0
C841 C 0.80572 0.31936 0.69618 0.0
C842 C 0.82892 0.27362 0.73788 0.0
C843 C 0.82775 0.30133 0.76912 0.0
C844 C 0.81881 0.33881 0.76295 0.0
C845 C 0.80808 0.34744 0.72638 0.0
C846 C 0.8391 0.23348 0.74313 0.0
C847 C 0.8169 0.36909 0.7955 0.0
H848 H 0.76872 0.25164 0.87179 0.0
H849 H 0.89171 0.27246 0.88001 0.0
H850 H 0.74986 0.30697 0.79561 0.0
H851 H 0.75603 0.25905 0.77788 0.0
H852 H 0.73057 0.27038 0.82205 0.0
H853 H 0.92599 0.3031 0.83351 0.0
H854 H 0.91054 0.28122 0.78799 0.0
H855 H 0.89849 0.32908 0.80109 0.0
H856 H 0.81583 0.26131 0.67826 0.0
H857 H 0.79873 0.37561 0.72205 0.0
H858 H 0.81451 0.22018 0.75729 0.0
H859 H 0.86506 0.2321 0.76166 0.0
H860 H 0.84493 0.21698 0.71553 0.0
H861 H 0.79005 0.36536 0.81228 0.0
H862 H 0.81631 0.39749 0.78529 0.0
H863 H 0.84206 0.36724 0.81495 0.0
C864 C 0.24158 0.21327 0.4918 0.0
C865 C 0.235 0.24079 0.52194 0.0
C866 C 0.21084 0.19892 0.46875 0.0
C867 C 0.17248 0.21204 0.47629 0.0
C868 C 0.16531 0.2384 0.50779 0.0
C869 C 0.1967 0.25266 0.53011 0.0
C870 C 0.2197 0.17095 0.43525 0.0
C871 C 0.1247 0.25253 0.51706 0.0
C872 C 0.10752 0.20634 0.38929 0.0
C873 C 0.0885 0.17213 0.39204 0.0
C874 C 0.13365 0.22053 0.41751 0.0
C875 C 0.14064 0.20012 0.44938 0.0
C876 C 0.1197 0.16671 0.45346 0.0
C877 C 0.09403 0.15295 0.42455 0.0
C878 C 0.15558 0.25616 0.41199 0.0
C879 C 0.12588 0.14455 0.48737 0.0
H880 H 0.27102 0.20394 0.48518 0.0
H881 H 0.19126 0.27366 0.55356 0.0
H882 H 0.20125 0.14567 0.4363 0.0
H883 H 0.21278 0.18336 0.40834 0.0
H884 H 0.25075 0.16222 0.43441 0.0
H885 H 0.12344 0.26985 0.54478 0.0
H886 H 0.11447 0.26974 0.49444 0.0
H887 H 0.10416 0.22874 0.51793 0.0
H888 H 0.10372 0.22099 0.36396 0.0
H889 H 0.07912 0.12659 0.4268 0.0
H890 H 0.18694 0.24972 0.40742 0.0
H891 H 0.1533 0.27607 0.43783 0.0
H892 H 0.14464 0.27011 0.38721 0.0
H893 H 0.15519 0.13152 0.48563 0.0
H894 H 0.10382 0.12203 0.48876 0.0
H895 H 0.12472 0.16319 0.5142 0.0
C896 C 0.29066 0.7611 0.01417 0.0
C897 C 0.25283 0.74866 0.00455 0.0
C898 C 0.32306 0.74751 0.99295 0.0
C899 C 0.3175 0.72106 0.9612 0.0
C900 C 0.27946 0.70839 0.9513 0.0
C901 C 0.24763 0.72222 0.97315 0.0
C902 C 0.36324 0.76142 0.00449 0.0
C903 C 0.27235 0.68031 0.91746 0.0
C904 C 0.39245 0.70764 0.88207 0.0
C905 C 0.40926 0.67347 0.88947 0.0
C906 C 0.36348 0.72426 0.90605 0.0
C907 C 0.35133 0.70633 0.93823 0.0
C908 C 0.36971 0.67284 0.94689 0.0
C909 C 0.39836 0.65672 0.92229 0.0
C910 C 0.34446 0.75994 0.89581 0.0
C911 C 0.35789 0.65313 0.98119 0.0
H912 H 0.29506 0.78144 0.03842 0.0
H913 H 0.21856 0.71256 0.96532 0.0
H914 H 0.38201 0.73752 0.01056 0.0
H915 H 0.377 0.77493 0.98076 0.0
H916 H 0.36264 0.78187 0.03008 0.0
H917 H 0.24096 0.6736 0.91334 0.0
H918 H 0.28364 0.69136 0.89118 0.0
H919 H 0.28831 0.65402 0.92117 0.0
H920 H 0.40051 0.72041 0.85647 0.0
H921 H 0.41159 0.63041 0.92814 0.0
H922 H 0.34433 0.78114 0.92071 0.0
H923 H 0.31367 0.75424 0.88769 0.0
H924 H 0.35941 0.77196 0.87175 0.0
H925 H 0.35811 0.67299 0.00718 0.0
H926 H 0.3774 0.62928 0.98581 0.0
H927 H 0.32772 0.64236 0.97734 0.0
loop_
_geom_bond_atom_site_label_1
_geom_bond_atom_site_label_2
_geom_bond_distance
_geom_bond_site_symmetry_2
_ccdc_geom_bond_type
Sc0 O3 2.025 . S
Sc0 O10 2.105 . S
Sc0 O13 2.105 . S
Sc0 O16 2.105 . S
Sc0 O19 2.105 1_554 S
Sc1 O3 2.025 . S
Sc1 O11 2.105 1_554 S
Sc1 O15 2.105 . S
Sc1 O17 2.105 . S
Sc1 O21 2.105 . S
Sc2 O3 2.025 . S
Sc2 O12 2.105 . S
Sc2 O14 2.105 . S
Sc2 O18 2.105 . S
Sc2 O20 2.105 . S
O3 Sc0 2.025 . S
O3 Sc1 2.025 . S
O3 Sc2 2.025 . S
C4 O10 1.268 . S
C4 O20 1.268 . S
C5 O11 1.268 . S
C5 O19 1.268 . S
C6 O12 1.268 . S
C6 O21 1.268 . S
C7 O13 1.268 . S
C7 O17 1.268 . S
C8 O14 1.268 . S
C8 O16 1.268 . S
C9 O15 1.268 . S
C9 O18 1.268 . S
O10 Sc0 2.105 . S
O10 C4 1.268 . S
O11 Sc1 2.105 1_556 S
O11 C5 1.268 . S
O12 Sc2 2.105 . S
O12 C6 1.268 . S
O13 Sc0 2.105 . S
O13 C7 1.268 . S
O14 Sc2 2.105 . S
O14 C8 1.268 . S
O15 Sc1 2.105 . S
O15 C9 1.268 . S
O16 Sc0 2.105 . S
O16 C8 1.268 . S
O17 Sc1 2.105 . S
O17 C7 1.268 . S
O18 Sc2 2.105 . S
O18 C9 1.268 . S
O19 Sc0 2.105 1_556 S
O19 C5 1.268 . S
O20 Sc2 2.105 . S
O20 C4 1.268 . S
O21 Sc1 2.105 . S
O21 C6 1.268 . S
Sc22 O25 2.025 . S
Sc22 O32 2.105 . S
Sc22 O35 2.105 . S
Sc22 O38 2.105 . S
Sc22 O41 2.105 . S
Sc23 O25 2.025 . S
Sc23 O33 2.105 . S
Sc23 O37 2.105 . S
Sc23 O39 2.105 . S
Sc23 O43 2.105 . S
Sc24 O25 2.025 . S
Sc24 O34 2.105 . S
Sc24 O36 2.105 . S
Sc24 O40 2.105 . S
Sc24 O42 2.105 . S
O25 Sc22 2.025 . S
O25 Sc23 2.025 . S
O25 Sc24 2.025 . S
C26 O32 1.268 . S
C26 O42 1.268 . S
C27 O33 1.268 . S
C27 O41 1.268 . S
C28 O34 1.268 . S
C28 O43 1.268 . S
C29 O35 1.268 . S
C29 O39 1.268 . S
C30 O36 1.268 . S
C30 O38 1.268 . S
C31 O37 1.268 . S
C31 O40 1.268 . S
O32 Sc22 2.105 . S
O32 C26 1.268 . S
O33 Sc23 2.105 . S
O33 C27 1.268 . S
O34 Sc24 2.105 . S
O34 C28 1.268 . S
O35 Sc22 2.105 . S
O35 C29 1.268 . S
O36 Sc24 2.105 . S
O36 C30 1.268 . S
O37 Sc23 2.105 . S
O37 C31 1.268 . S
O38 Sc22 2.105 . S
O38 C30 1.268 . S
O39 Sc23 2.105 . S
O39 C29 1.268 . S
O40 Sc24 2.105 . S
O40 C31 1.268 . S
O41 Sc22 2.105 . S
O41 C27 1.268 . S
O42 Sc24 2.105 . S
O42 C26 1.268 . S
O43 Sc23 2.105 . S
O43 C28 1.268 . S
Sc44 O47 2.025 . S
Sc44 O54 2.105 1_554 S
Sc44 O57 2.105 . S
Sc44 O60 2.105 . S
Sc44 O63 2.105 1_554 S
Sc45 O47 2.025 1_556 S
Sc45 O55 2.105 . S
Sc45 O59 2.105 1_556 S
Sc45 O61 2.105 1_556 S
Sc45 O65 2.105 . S
Sc46 O47 2.025 . S
Sc46 O56 2.105 1_554 S
Sc46 O58 2.105 . S
Sc46 O62 2.105 . S
Sc46 O64 2.105 1_554 S
O47 Sc44 2.025 . S
O47 Sc45 2.025 1_554 S
O47 Sc46 2.025 . S
C48 O54 1.268 . S
C48 O64 1.268 . S
C49 O55 1.268 . S
C49 O63 1.268 . S
C50 O56 1.268 . S
C50 O65 1.268 . S
C51 O57 1.268 . S
C51 O61 1.268 . S
C52 O58 1.268 . S
C52 O60 1.268 . S
C53 O59 1.268 . S
C53 O62 1.268 . S
O54 Sc44 2.105 1_556 S
O54 C48 1.268 . S
O55 Sc45 2.105 . S
O55 C49 1.268 . S
O56 Sc46 2.105 1_556 S
O56 C50 1.268 . S
O57 Sc44 2.105 . S
O57 C51 1.268 . S
O58 Sc46 2.105 . S
O58 C52 1.268 . S
O59 Sc45 2.105 1_554 S
O59 C53 1.268 . S
O60 Sc44 2.105 . S
O60 C52 1.268 . S
O61 Sc45 2.105 1_554 S
O61 C51 1.268 . S
O62 Sc46 2.105 . S
O62 C53 1.268 . S
O63 Sc44 2.105 1_556 S
O63 C49 1.268 . S
O64 Sc46 2.105 1_556 S
O64 C48 1.268 . S
O65 Sc45 2.105 . S
O65 C50 1.268 . S
Sc66 O69 2.025 . S
Sc66 O76 2.105 . S
Sc66 O79 2.105 . S
Sc66 O82 2.105 . S
Sc66 O85 2.105 . S
Sc67 O69 2.025 . S
Sc67 O77 2.105 . S
Sc67 O81 2.105 . S
Sc67 O83 2.105 . S
Sc67 O87 2.105 . S
Sc68 O69 2.025 . S
Sc68 O78 2.105 . S
Sc68 O80 2.105 . S
Sc68 O84 2.105 . S
Sc68 O86 2.105 . S
O69 Sc66 2.025 . S
O69 Sc67 2.025 . S
O69 Sc68 2.025 . S
C70 O76 1.268 . S
C70 O86 1.268 . S
C71 O77 1.268 . S
C71 O85 1.268 . S
C72 O78 1.268 . S
C72 O87 1.268 . S
C73 O79 1.268 . S
C73 O83 1.268 . S
C74 O80 1.268 . S
C74 O82 1.268 . S
C75 O81 1.268 . S
C75 O84 1.268 . S
O76 Sc66 2.105 . S
O76 C70 1.268 . S
O77 Sc67 2.105 . S
O77 C71 1.268 . S
O78 Sc68 2.105 . S
O78 C72 1.268 . S
O79 Sc66 2.105 . S
O79 C73 1.268 . S
O80 Sc68 2.105 . S
O80 C74 1.268 . S
O81 Sc67 2.105 . S
O81 C75 1.268 . S
O82 Sc66 2.105 . S
O82 C74 1.268 . S
O83 Sc67 2.105 . S
O83 C73 1.268 . S
O84 Sc68 2.105 . S
O84 C75 1.268 . S
O85 Sc66 2.105 . S
O85 C71 1.268 . S
O86 Sc68 2.105 . S
O86 C70 1.268 . S
O87 Sc67 2.105 . S
O87 C72 1.268 . S
H88 C91 0.931 . S
H89 C94 0.928 . S
H90 C96 0.930 . S
C91 H88 0.931 . S
C91 C92 1.413 . S
C91 C93 1.360 . S
C92 C91 1.413 . S
C92 C96 1.429 . S
C93 C91 1.360 . S
C93 C94 1.372 . S
C94 H89 0.928 . S
C94 C93 1.372 . S
C94 C95 1.404 . S
C95 C94 1.404 . S
C95 C96 1.391 . S
C96 H90 0.930 . S
C96 C92 1.429 . S
C96 C95 1.391 . S
H97 C100 0.931 . S
H98 C103 0.928 . S
H99 C105 0.930 . S
C100 H97 0.931 . S
C100 C101 1.413 . S
C100 C102 1.360 . S
C101 C100 1.413 . S
C101 C105 1.429 . S
C102 C100 1.360 . S
C102 C103 1.372 . S
C103 H98 0.928 . S
C103 C102 1.372 . S
C103 C104 1.404 . S
C104 C103 1.404 . S
C104 C105 1.391 . S
C105 H99 0.930 . S
C105 C101 1.429 . S
C105 C104 1.391 . S
H106 C109 0.931 . S
H107 C112 0.928 . S
H108 C114 0.930 . S
C109 H106 0.931 . S
C109 C110 1.413 . S
C109 C111 1.360 . S
C110 C109 1.413 . S
C110 C114 1.429 . S
C111 C109 1.360 . S
C111 C112 1.372 . S
C112 H107 0.928 . S
C112 C111 1.372 . S
C112 C113 1.404 . S
C113 C112 1.404 . S
C113 C114 1.391 . S
C114 H108 0.930 . S
C114 C110 1.429 . S
C114 C113 1.391 . S
H115 C118 0.931 . S
H116 C121 0.928 . S
H117 C123 0.930 . S
C118 H115 0.931 . S
C118 C119 1.413 . S
C118 C120 1.360 . S
C119 C118 1.413 . S
C119 C123 1.429 . S
C120 C118 1.360 . S
C120 C121 1.372 . S
C121 H116 0.928 . S
C121 C120 1.372 . S
C121 C122 1.404 . S
C122 C121 1.404 . S
C122 C123 1.391 . S
C123 H117 0.930 . S
C123 C119 1.429 . S
C123 C122 1.391 . S
H124 C127 0.931 . S
H125 C130 0.928 . S
H126 C132 0.930 . S
C127 H124 0.931 . S
C127 C128 1.413 . S
C127 C129 1.360 . S
C128 C127 1.413 . S
C128 C132 1.429 . S
C129 C127 1.360 . S
C129 C130 1.372 . S
C130 H125 0.928 . S
C130 C129 1.372 . S
C130 C131 1.404 . S
C131 C130 1.404 . S
C131 C132 1.391 . S
C132 H126 0.930 . S
C132 C128 1.429 . S
C132 C131 1.391 . S
H133 C136 0.931 . S
H134 C139 0.928 . S
H135 C141 0.930 . S
C136 H133 0.931 . S
C136 C137 1.413 . S
C136 C138 1.360 . S
C137 C136 1.413 . S
C137 C141 1.429 . S
C138 C136 1.360 . S
C138 C139 1.372 . S
C139 H134 0.928 . S
C139 C138 1.372 . S
C139 C140 1.404 . S
C140 C139 1.404 . S
C140 C141 1.391 . S
C141 H135 0.930 . S
C141 C137 1.429 . S
C141 C140 1.391 . S
H142 C145 0.931 . S
H143 C148 0.928 . S
H144 C150 0.930 . S
C145 H142 0.931 . S
C145 C146 1.413 . S
C145 C147 1.360 . S
C146 C145 1.413 . S
C146 C150 1.429 . S
C147 C145 1.360 . S
C147 C148 1.372 . S
C148 H143 0.928 . S
C148 C147 1.372 . S
C148 C149 1.404 . S
C149 C148 1.404 . S
C149 C150 1.391 . S
C150 H144 0.930 . S
C150 C146 1.429 . S
C150 C149 1.391 . S
H151 C154 0.931 . S
H152 C157 0.928 . S
H153 C159 0.930 . S
C154 H151 0.931 . S
C154 C155 1.413 . S
C154 C156 1.360 . S
C155 C154 1.413 . S
C155 C159 1.429 . S
C156 C154 1.360 . S
C156 C157 1.372 . S
C157 H152 0.928 . S
C157 C156 1.372 . S
C157 C158 1.404 . S
C158 C157 1.404 . S
C158 C159 1.391 . S
C159 H153 0.930 . S
C159 C155 1.429 . S
C159 C158 1.391 . S
C160 C161 1.391 . S
C160 C162 1.394 . S
C160 H176 0.931 . S
C161 C160 1.391 . S
C161 C165 1.376 . S
C162 C160 1.394 . S
C162 C163 1.369 . S
C162 C166 1.531 1_565 S
C163 C162 1.369 . S
C163 C164 1.410 . S
C163 C171 1.503 1_565 S
C164 C163 1.410 . S
C164 C165 1.392 . S
C164 C167 1.511 . S
C165 C161 1.376 . S
C165 C164 1.392 . S
C165 H177 0.929 . S
C166 C162 1.531 1_545 S
C166 H178 0.960 . S
C166 H179 0.962 . S
C166 H180 0.960 . S
C167 C164 1.511 . S
C167 H181 0.961 . S
C167 H182 0.961 . S
C167 H183 0.961 . S
C168 C169 1.370 . S
C168 C170 1.363 . S
C168 H184 0.931 . S
C169 C168 1.370 . S
C169 C173 1.408 . S
C170 C168 1.363 . S
C170 C171 1.370 . S
C170 C174 1.524 1_545 S
C171 C163 1.503 1_545 S
C171 C170 1.370 . S
C171 C172 1.403 . S
C172 C171 1.403 . S
C172 C173 1.404 . S
C172 C175 1.539 . S
C173 C169 1.408 . S
C173 C172 1.404 . S
C173 H185 0.930 . S
C174 C170 1.524 1_565 S
C174 H186 0.956 . S
C174 H187 0.961 . S
C174 H188 0.961 . S
C175 C172 1.539 . S
C175 H189 0.958 . S
C175 H190 0.961 . S
C175 H191 0.978 . S
H176 C160 0.931 . S
H177 C165 0.929 . S
H178 C166 0.960 . S
H179 C166 0.962 . S
H180 C166 0.960 . S
H181 C167 0.961 . S
H182 C167 0.961 . S
H183 C167 0.961 . S
H184 C168 0.931 . S
H185 C173 0.930 . S
H186 C174 0.956 . S
H187 C174 0.961 . S
H188 C174 0.961 . S
H189 C175 0.958 . S
H190 C175 0.961 . S
H191 C175 0.978 . S
C192 C193 1.391 . S
C192 C194 1.394 . S
C192 H208 0.931 . S
C193 C192 1.391 . S
C193 C197 1.376 . S
C194 C192 1.394 . S
C194 C195 1.369 . S
C194 C198 1.531 . S
C195 C194 1.369 . S
C195 C196 1.410 . S
C195 C203 1.503 . S
C196 C195 1.410 . S
C196 C197 1.392 . S
C196 C199 1.511 . S
C197 C193 1.376 . S
C197 C196 1.392 . S
C197 H209 0.929 . S
C198 C194 1.531 . S
C198 H210 0.960 . S
C198 H211 0.962 . S
C198 H212 0.960 . S
C199 C196 1.511 . S
C199 H213 0.961 . S
C199 H214 0.961 . S
C199 H215 0.961 . S
C200 C201 1.370 . S
C200 C202 1.363 . S
C200 H216 0.931 . S
C201 C200 1.370 . S
C201 C205 1.408 . S
C202 C200 1.363 . S
C202 C203 1.370 . S
C202 C206 1.524 . S
C203 C195 1.503 . S
C203 C202 1.370 . S
C203 C204 1.403 . S
C204 C203 1.403 . S
C204 C205 1.404 . S
C204 C207 1.539 . S
C205 C201 1.408 . S
C205 C204 1.404 . S
C205 H217 0.930 . S
C206 C202 1.524 . S
C206 H218 0.956 . S
C206 H219 0.961 . S
C206 H220 0.961 . S
C207 C204 1.539 . S
C207 H221 0.958 . S
C207 H222 0.961 . S
C207 H223 0.960 . S
H208 C192 0.931 . S
H209 C197 0.929 . S
H210 C198 0.960 . S
H211 C198 0.962 . S
H212 C198 0.960 . S
H213 C199 0.961 . S
H214 C199 0.961 . S
H215 C199 0.961 . S
H216 C200 0.931 . S
H217 C205 0.930 . S
H218 C206 0.956 . S
H219 C206 0.961 . S
H220 C206 0.961 . S
H221 C207 0.958 . S
H222 C207 0.961 . S
H223 C207 0.960 . S
C224 C225 1.391 . S
C224 C226 1.394 . S
C224 H240 0.931 . S
C225 C224 1.391 . S
C225 C229 1.376 . S
C226 C224 1.394 . S
C226 C227 1.369 . S
C226 C230 1.546 . S
C227 C226 1.369 . S
C227 C228 1.410 . S
C227 C235 1.503 1_545 S
C228 C227 1.410 . S
C228 C229 1.392 . S
C228 C231 1.511 . S
C229 C225 1.376 . S
C229 C228 1.392 . S
C229 H241 0.929 . S
C230 C226 1.546 . S
C230 H242 0.946 1_545 S
C230 H243 0.946 1_545 S
C230 H244 0.975 . S
C231 C228 1.511 . S
C231 H245 0.961 . S
C231 H246 0.989 . S
C231 H247 0.961 . S
C232 C233 1.370 . S
C232 C234 1.363 . S
C232 H248 0.931 . S
C233 C232 1.370 . S
C233 C237 1.408 . S
C234 C232 1.363 . S
C234 C235 1.370 . S
C234 C238 1.524 . S
C235 C227 1.503 1_565 S
C235 C234 1.370 . S
C235 C236 1.403 . S
C236 C235 1.403 . S
C236 C237 1.404 . S
C236 C239 1.539 1_565 S
C237 C233 1.408 . S
C237 C236 1.404 . S
C237 H249 0.930 . S
C238 C234 1.524 . S
C238 H250 0.956 . S
C238 H251 0.961 . S
C238 H252 0.961 . S
C239 C236 1.539 1_545 S
C239 H253 0.958 . S
C239 H254 0.961 . S
C239 H255 0.960 . S
H240 C224 0.931 . S
H241 C229 0.929 . S
H242 C230 0.946 1_565 S
H243 C230 0.946 1_565 S
H244 C230 0.975 . S
H245 C231 0.961 . S
H246 C231 0.989 . S
H247 C231 0.961 . S
H248 C232 0.931 . S
H249 C237 0.930 . S
H250 C238 0.956 . S
H251 C238 0.961 . S
H252 C238 0.961 . S
H253 C239 0.958 . S
H254 C239 0.961 . S
H255 C239 0.960 . S
C256 C257 1.391 . S
C256 C258 1.394 . S
C256 H272 0.931 . S
C257 C256 1.391 . S
C257 C261 1.376 . S
C258 C256 1.394 . S
C258 C259 1.369 . S
C258 C262 1.531 . S
C259 C258 1.369 . S
C259 C260 1.410 . S
C259 C267 1.503 . S
C260 C259 1.410 . S
C260 C261 1.392 . S
C260 C263 1.511 . S
C261 C257 1.376 . S
C261 C260 1.392 . S
C261 H273 0.929 . S
C262 C258 1.531 . S
C262 H274 0.960 . S
C262 H275 0.962 . S
C262 H276 0.960 . S
C263 C260 1.511 . S
C263 H277 0.961 . S
C263 H278 0.961 . S
C263 H279 0.961 . S
C264 C265 1.370 . S
C264 C266 1.363 . S
C264 H280 0.931 . S
C265 C264 1.370 . S
C265 C269 1.408 . S
C266 C264 1.363 . S
C266 C267 1.370 . S
C266 C270 1.524 . S
C267 C259 1.503 . S
C267 C266 1.370 . S
C267 C268 1.403 . S
C268 C267 1.403 . S
C268 C269 1.404 . S
C268 C271 1.539 . S
C269 C265 1.408 . S
C269 C268 1.404 . S
C269 H281 0.930 . S
C270 C266 1.524 . S
C270 H282 0.956 . S
C270 H283 0.961 . S
C270 H284 0.961 . S
C271 C268 1.539 . S
C271 H285 0.958 . S
C271 H286 0.961 . S
C271 H287 0.960 . S
H272 C256 0.931 . S
H273 C261 0.929 . S
H274 C262 0.960 . S
H275 C262 0.962 . S
H276 C262 0.960 . S
H277 C263 0.961 . S
H278 C263 0.961 . S
H279 C263 0.961 . S
H280 C264 0.931 . S
H281 C269 0.930 . S
H282 C270 0.956 . S
H283 C270 0.961 . S
H284 C270 0.961 . S
H285 C271 0.958 . S
H286 C271 0.961 . S
H287 C271 0.960 . S
C288 C289 1.391 . S
C288 C290 1.394 . S
C288 H304 0.931 . S
C289 C288 1.391 . S
C289 C293 1.376 . S
C290 C288 1.394 . S
C290 C291 1.369 . S
C290 C294 1.531 . S
C291 C290 1.369 . S
C291 C292 1.410 . S
C291 C299 1.503 . S
C292 C291 1.410 . S
C292 C293 1.392 . S
C292 C295 1.511 . S
C293 C289 1.376 . S
C293 C292 1.392 . S
C293 H305 0.929 . S
C294 C290 1.531 . S
C294 H306 0.960 . S
C294 H307 0.962 . S
C294 H308 0.960 . S
C295 C292 1.511 . S
C295 H309 0.961 . S
C295 H310 0.961 . S
C295 H311 0.961 . S
C296 C297 1.370 . S
C296 C298 1.363 . S
C296 H312 0.931 . S
C297 C296 1.370 . S
C297 C301 1.408 . S
C298 C296 1.363 . S
C298 C299 1.370 . S
C298 C302 1.524 . S
C299 C291 1.503 . S
C299 C298 1.370 . S
C299 C300 1.403 . S
C300 C299 1.403 . S
C300 C301 1.404 . S
C300 C303 1.539 . S
C301 C297 1.408 . S
C301 C300 1.404 . S
C301 H313 0.930 . S
C302 C298 1.524 . S
C302 H314 0.956 . S
C302 H315 0.961 . S
C302 H316 0.961 . S
C303 C300 1.539 . S
C303 H317 0.958 . S
C303 H318 0.961 . S
C303 H319 0.960 . S
H304 C288 0.931 . S
H305 C293 0.929 . S
H306 C294 0.960 . S
H307 C294 0.962 . S
H308 C294 0.960 . S
H309 C295 0.961 . S
H310 C295 0.961 . S
H311 C295 0.961 . S
H312 C296 0.931 . S
H313 C301 0.930 . S
H314 C302 0.956 . S
H315 C302 0.961 . S
H316 C302 0.961 . S
H317 C303 0.958 . S
H318 C303 0.961 . S
H319 C303 0.960 . S
C320 C321 1.391 . S
C320 C322 1.394 1_655 S
C320 H336 0.931 1_556 S
C321 C320 1.391 . S
C321 C325 1.376 . S
C322 C320 1.394 1_455 S
C322 C323 1.369 . S
C322 C326 1.531 . S
C323 C322 1.369 . S
C323 C324 1.410 . S
C323 C331 1.503 . S
C324 C323 1.410 . S
C324 C325 1.392 1_455 S
C324 C327 1.511 . S
C325 C321 1.376 . S
C325 C324 1.392 1_655 S
C325 H337 0.929 . S
C326 C322 1.531 . S
C326 H338 0.960 . S
C326 H339 0.962 1_556 S
C326 H340 0.960 1_556 S
C327 C324 1.511 . S
C327 H341 0.961 . S
C327 H342 0.961 . S
C327 H343 0.961 . S
C328 C329 1.370 . S
C328 C330 1.363 . S
C328 H344 0.931 . S
C329 C328 1.370 . S
C329 C333 1.408 . S
C330 C328 1.363 . S
C330 C331 1.370 . S
C330 C334 1.524 . S
C331 C323 1.503 . S
C331 C330 1.370 . S
C331 C332 1.403 . S
C332 C331 1.403 . S
C332 C333 1.404 . S
C332 C335 1.539 . S
C333 C329 1.408 . S
C333 C332 1.404 . S
C333 H345 0.930 . S
C334 C330 1.524 . S
C334 H346 0.956 . S
C334 H347 0.961 . S
C334 H348 0.961 . S
C335 C332 1.539 . S
C335 H349 0.958 . S
C335 H350 0.961 . S
C335 H351 0.960 . S
H336 C320 0.931 1_554 S
H337 C325 0.929 . S
H338 C326 0.960 . S
H339 C326 0.962 1_554 S
H340 C326 0.960 1_554 S
H341 C327 0.961 . S
H342 C327 0.961 . S
H343 C327 0.961 . S
H344 C328 0.931 . S
H345 C333 0.930 . S
H346 C334 0.956 . S
H347 C334 0.961 . S
H348 C334 0.961 . S
H349 C335 0.958 . S
H350 C335 0.961 . S
H351 C335 0.960 . S
C352 C353 1.391 . S
C352 C354 1.394 . S
C352 H368 0.931 . S
C353 C352 1.391 . S
C353 C357 1.376 . S
C354 C352 1.394 . S
C354 C355 1.369 . S
C354 C358 1.531 . S
C355 C354 1.369 . S
C355 C356 1.410 . S
C355 C363 1.503 . S
C356 C355 1.410 . S
C356 C357 1.392 . S
C356 C359 1.511 . S
C357 C353 1.376 . S
C357 C356 1.392 . S
C357 H369 0.929 . S
C358 C354 1.531 . S
C358 H370 0.960 . S
C358 H371 0.962 . S
C358 H372 0.960 . S
C359 C356 1.511 . S
C359 H373 0.961 . S
C359 H374 0.961 . S
C359 H375 0.961 . S
C360 C361 1.370 . S
C360 C362 1.363 . S
C360 H376 0.931 . S
C361 C360 1.370 . S
C361 C365 1.408 . S
C362 C360 1.363 . S
C362 C363 1.370 . S
C362 C366 1.524 . S
C363 C355 1.503 . S
C363 C362 1.370 . S
C363 C364 1.403 . S
C364 C363 1.403 . S
C364 C365 1.404 . S
C364 C367 1.539 . S
C365 C361 1.408 . S
C365 C364 1.404 . S
C365 H377 0.930 . S
C366 C362 1.524 . S
C366 H378 0.956 . S
C366 H379 0.961 . S
C366 H380 0.961 . S
C367 C364 1.539 . S
C367 H381 0.958 . S
C367 H382 0.961 . S
C367 H383 0.960 . S
H368 C352 0.931 . S
H369 C357 0.929 . S
H370 C358 0.960 . S
H371 C358 0.962 . S
H372 C358 0.960 . S
H373 C359 0.961 . S
H374 C359 0.961 . S
H375 C359 0.961 . S
H376 C360 0.931 . S
H377 C365 0.930 . S
H378 C366 0.956 . S
H379 C366 0.961 . S
H380 C366 0.961 . S
H381 C367 0.958 . S
H382 C367 0.961 . S
H383 C367 0.960 . S
C384 C385 1.391 . S
C384 C386 1.394 . S
C384 H400 0.931 . S
C385 C384 1.391 . S
C385 C389 1.376 . S
C386 C384 1.394 . S
C386 C387 1.369 . S
C386 C390 1.531 . S
C387 C386 1.369 . S
C387 C388 1.410 . S
C387 C395 1.503 . S
C388 C387 1.410 . S
C388 C389 1.392 . S
C388 C391 1.511 1_455 S
C389 C385 1.376 . S
C389 C388 1.392 . S
C389 H401 0.929 . S
C390 C386 1.531 . S
C390 H402 0.960 . S
C390 H403 0.962 . S
C390 H404 0.960 . S
C391 C388 1.511 1_655 S
C391 H405 0.961 . S
C391 H406 0.961 . S
C391 H407 0.961 . S
C392 C393 1.370 1_455 S
C392 C394 1.363 . S
C392 H408 0.931 1_455 S
C393 C392 1.370 1_655 S
C393 C397 1.408 1_655 S
C394 C392 1.363 . S
C394 C395 1.370 . S
C394 C398 1.524 . S
C395 C387 1.503 . S
C395 C394 1.370 . S
C395 C396 1.403 . S
C396 C395 1.403 . S
C396 C397 1.404 . S
C396 C399 1.539 . S
C397 C393 1.408 1_455 S
C397 C396 1.404 . S
C397 H409 0.930 . S
C398 C394 1.524 . S
C398 H410 0.956 . S
C398 H411 0.961 . S
C398 H412 0.961 . S
C399 C396 1.539 . S
C399 H413 0.958 . S
C399 H414 0.961 . S
C399 H415 0.960 . S
H400 C384 0.931 . S
H401 C389 0.929 . S
H402 C390 0.960 . S
H403 C390 0.962 . S
H404 C390 0.960 . S
H405 C391 0.961 . S
H406 C391 0.961 . S
H407 C391 0.961 . S
H408 C392 0.931 1_655 S
H409 C397 0.930 . S
H410 C398 0.956 . S
H411 C398 0.961 . S
H412 C398 0.961 . S
H413 C399 0.958 . S
H414 C399 0.961 . S
H415 C399 0.960 . S
C416 C417 1.391 . S
C416 C418 1.394 . S
C416 H432 0.931 . S
C417 C416 1.391 . S
C417 C421 1.376 . S
C418 C416 1.394 . S
C418 C419 1.369 . S
C418 C422 1.531 . S
C419 C418 1.369 . S
C419 C420 1.410 . S
C419 C427 1.503 . S
C420 C419 1.410 . S
C420 C421 1.392 . S
C420 C423 1.511 . S
C421 C417 1.376 . S
C421 C420 1.392 . S
C421 H433 0.929 . S
C422 C418 1.531 . S
C422 H434 0.960 . S
C422 H435 0.962 . S
C422 H436 0.960 . S
C423 C420 1.511 . S
C423 H437 0.961 . S
C423 H438 0.961 . S
C423 H439 0.961 . S
C424 C425 1.370 . S
C424 C426 1.363 . S
C424 H440 0.931 . S
C425 C424 1.370 . S
C425 C429 1.408 . S
C426 C424 1.363 . S
C426 C427 1.370 1_565 S
C426 C430 1.524 . S
C427 C419 1.503 . S
C427 C426 1.370 1_545 S
C427 C428 1.403 . S
C428 C427 1.403 . S
C428 C429 1.404 1_545 S
C428 C431 1.539 . S
C429 C425 1.408 . S
C429 C428 1.404 1_565 S
C429 H441 0.930 . S
C430 C426 1.524 . S
C430 H442 0.956 . S
C430 H443 0.961 . S
C430 H444 0.961 . S
C431 C428 1.539 . S
C431 H445 0.958 . S
C431 H446 0.961 . S
C431 H447 0.960 . S
H432 C416 0.931 . S
H433 C421 0.929 . S
H434 C422 0.960 . S
H435 C422 0.962 . S
H436 C422 0.960 . S
H437 C423 0.961 . S
H438 C423 0.961 . S
H439 C423 0.961 . S
H440 C424 0.931 . S
H441 C429 0.930 . S
H442 C430 0.956 . S
H443 C430 0.961 . S
H444 C430 0.961 . S
H445 C431 0.958 . S
H446 C431 0.961 . S
H447 C431 0.960 . S
C448 C449 1.391 . S
C448 C450 1.394 . S
C448 H464 0.931 . S
C449 C448 1.391 . S
C449 C453 1.376 . S
C450 C448 1.394 . S
C450 C451 1.369 . S
C450 C454 1.531 . S
C451 C450 1.369 . S
C451 C452 1.410 . S
C451 C459 1.503 . S
C452 C451 1.410 . S
C452 C453 1.392 . S
C452 C455 1.511 . S
C453 C449 1.376 . S
C453 C452 1.392 . S
C453 H465 0.929 . S
C454 C450 1.531 . S
C454 H466 0.960 . S
C454 H467 0.962 . S
C454 H468 0.960 . S
C455 C452 1.511 . S
C455 H469 0.961 . S
C455 H470 0.961 . S
C455 H471 0.961 . S
C456 C457 1.370 . S
C456 C458 1.363 . S
C456 H472 0.931 . S
C457 C456 1.370 . S
C457 C461 1.408 . S
C458 C456 1.363 . S
C458 C459 1.370 . S
C458 C462 1.524 . S
C459 C451 1.503 . S
C459 C458 1.370 . S
C459 C460 1.403 . S
C460 C459 1.403 . S
C460 C461 1.404 . S
C460 C463 1.539 . S
C461 C457 1.408 . S
C461 C460 1.404 . S
C461 H473 0.930 . S
C462 C458 1.524 . S
C462 H474 0.956 . S
C462 H475 0.961 . S
C462 H476 0.961 . S
C463 C460 1.539 . S
C463 H477 0.958 . S
C463 H478 0.961 . S
C463 H479 0.960 . S
H464 C448 0.931 . S
H465 C453 0.929 . S
H466 C454 0.960 . S
H467 C454 0.962 . S
H468 C454 0.960 . S
H469 C455 0.961 . S
H470 C455 0.961 . S
H471 C455 0.961 . S
H472 C456 0.931 . S
H473 C461 0.930 . S
H474 C462 0.956 . S
H475 C462 0.961 . S
H476 C462 0.961 . S
H477 C463 0.958 . S
H478 C463 0.961 . S
H479 C463 0.960 . S
C480 C481 1.391 . S
C480 C482 1.394 . S
C480 H496 0.931 . S
C481 C480 1.391 . S
C481 C485 1.376 1_556 S
C482 C480 1.394 . S
C482 C483 1.369 . S
C482 C486 1.531 . S
C483 C482 1.369 . S
C483 C484 1.410 . S
C483 C491 1.503 1_565 S
C484 C483 1.410 . S
C484 C485 1.392 1_556 S
C484 C487 1.511 1_566 S
C485 C481 1.376 1_554 S
C485 C484 1.392 1_554 S
C485 H497 0.929 . S
C486 C482 1.531 . S
C486 H498 0.960 . S
C486 H499 0.962 . S
C486 H500 0.960 . S
C487 C484 1.511 1_544 S
C487 H501 0.961 . S
C487 H502 0.961 . S
C487 H503 0.961 1_554 S
C488 C489 1.370 . S
C488 C490 1.363 . S
C488 H504 0.931 . S
C489 C488 1.370 . S
C489 C493 1.408 . S
C490 C488 1.363 . S
C490 C491 1.370 . S
C490 C494 1.524 . S
C491 C483 1.503 1_545 S
C491 C490 1.370 . S
C491 C492 1.403 . S
C492 C491 1.403 . S
C492 C493 1.404 . S
C492 C495 1.539 . S
C493 C489 1.408 . S
C493 C492 1.404 . S
C493 H505 0.930 . S
C494 C490 1.524 . S
C494 H506 0.956 . S
C494 H507 0.961 1_556 S
C494 H508 0.956 1_556 S
C495 C492 1.539 . S
C495 H509 0.958 . S
C495 H510 0.961 . S
C495 H511 0.960 . S
H496 C480 0.931 . S
H497 C485 0.929 . S
H498 C486 0.960 . S
H499 C486 0.962 . S
H500 C486 0.960 . S
H501 C487 0.961 . S
H502 C487 0.961 . S
H503 C487 0.961 1_556 S
H504 C488 0.931 . S
H505 C493 0.930 . S
H506 C494 0.956 . S
H507 C494 0.961 1_554 S
H508 C494 0.956 1_554 S
H509 C495 0.958 . S
H510 C495 0.961 . S
H511 C495 0.960 . S
C512 C513 1.391 . S
C512 C514 1.394 . S
C512 H528 0.931 . S
C513 C512 1.391 . S
C513 C517 1.376 . S
C514 C512 1.394 . S
C514 C515 1.369 . S
C514 C518 1.531 . S
C515 C514 1.369 . S
C515 C516 1.410 . S
C515 C523 1.503 . S
C516 C515 1.410 . S
C516 C517 1.392 . S
C516 C519 1.511 . S
C517 C513 1.376 . S
C517 C516 1.392 . S
C517 H529 0.929 . S
C518 C514 1.531 . S
C518 H530 0.960 . S
C518 H531 0.962 . S
C518 H532 0.960 . S
C519 C516 1.511 . S
C519 H533 0.961 . S
C519 H534 0.961 . S
C519 H535 0.961 . S
C520 C521 1.370 . S
C520 C522 1.363 . S
C520 H536 0.931 . S
C521 C520 1.370 . S
C521 C525 1.408 . S
C522 C520 1.363 . S
C522 C523 1.370 . S
C522 C526 1.524 . S
C523 C515 1.503 . S
C523 C522 1.370 . S
C523 C524 1.403 . S
C524 C523 1.403 . S
C524 C525 1.404 . S
C524 C527 1.539 . S
C525 C521 1.408 . S
C525 C524 1.404 . S
C525 H537 0.930 . S
C526 C522 1.524 . S
C526 H538 0.956 . S
C526 H539 0.961 . S
C526 H540 0.961 . S
C527 C524 1.539 . S
C527 H541 0.958 . S
C527 H542 0.961 . S
C527 H543 0.960 . S
H528 C512 0.931 . S
H529 C517 0.929 . S
H530 C518 0.960 . S
H531 C518 0.962 . S
H532 C518 0.960 . S
H533 C519 0.961 . S
H534 C519 0.961 . S
H535 C519 0.961 . S
H536 C520 0.931 . S
H537 C525 0.930 . S
H538 C526 0.956 . S
H539 C526 0.961 . S
H540 C526 0.961 . S
H541 C527 0.958 . S
H542 C527 0.961 . S
H543 C527 0.960 . S
C544 C545 1.391 . S
C544 C546 1.394 . S
C544 H560 0.931 . S
C545 C544 1.391 . S
C545 C549 1.376 . S
C546 C544 1.394 . S
C546 C547 1.369 . S
C546 C550 1.531 . S
C547 C546 1.369 . S
C547 C548 1.410 . S
C547 C555 1.503 . S
C548 C547 1.410 . S
C548 C549 1.392 . S
C548 C551 1.511 . S
C549 C545 1.376 . S
C549 C548 1.392 . S
C549 H561 0.929 . S
C550 C546 1.531 . S
C550 H562 0.960 . S
C550 H563 0.962 . S
C550 H564 0.960 . S
C551 C548 1.511 . S
C551 H565 0.961 . S
C551 H566 0.961 . S
C551 H567 0.961 . S
C552 C553 1.370 . S
C552 C554 1.363 . S
C552 H568 0.931 . S
C553 C552 1.370 . S
C553 C557 1.408 . S
C554 C552 1.363 . S
C554 C555 1.370 . S
C554 C558 1.524 . S
C555 C547 1.503 . S
C555 C554 1.370 . S
C555 C556 1.403 . S
C556 C555 1.403 . S
C556 C557 1.404 . S
C556 C559 1.539 . S
C557 C553 1.408 . S
C557 C556 1.404 . S
C557 H569 0.930 . S
C558 C554 1.524 . S
C558 H570 0.956 . S
C558 H571 0.961 . S
C558 H572 0.961 . S
C559 C556 1.539 . S
C559 H573 0.958 . S
C559 H574 0.961 . S
C559 H575 0.960 . S
H560 C544 0.931 . S
H561 C549 0.929 . S
H562 C550 0.960 . S
H563 C550 0.962 . S
H564 C550 0.960 . S
H565 C551 0.961 . S
H566 C551 0.961 . S
H567 C551 0.961 . S
H568 C552 0.931 . S
H569 C557 0.930 . S
H570 C558 0.956 . S
H571 C558 0.961 . S
H572 C558 0.961 . S
H573 C559 0.958 . S
H574 C559 0.961 . S
H575 C559 0.960 . S
C576 C577 1.400 . S
C576 C578 1.381 1_455 S
C576 H592 0.934 . S
C577 C576 1.400 . S
C577 C581 1.376 . S
C578 C576 1.381 1_655 S
C578 C579 1.369 . S
C578 C582 1.531 . S
C579 C578 1.369 . S
C579 C580 1.410 . S
C579 C587 1.503 . S
C580 C579 1.410 . S
C580 C581 1.392 1_655 S
C580 C583 1.511 . S
C581 C577 1.376 . S
C581 C580 1.392 1_455 S
C581 H593 0.929 . S
C582 C578 1.531 . S
C582 H594 0.960 . S
C582 H595 0.962 . S
C582 H596 0.960 . S
C583 C580 1.511 . S
C583 H597 0.961 . S
C583 H598 0.961 . S
C583 H599 0.961 . S
C584 C585 1.370 . S
C584 C586 1.363 . S
C584 H600 0.931 . S
C585 C584 1.370 . S
C585 C589 1.408 . S
C586 C584 1.363 . S
C586 C587 1.370 . S
C586 C590 1.524 . S
C587 C579 1.503 . S
C587 C586 1.370 . S
C587 C588 1.403 . S
C588 C587 1.403 . S
C588 C589 1.404 . S
C588 C591 1.539 . S
C589 C585 1.408 . S
C589 C588 1.404 . S
C589 H601 0.930 . S
C590 C586 1.524 . S
C590 H602 0.956 . S
C590 H603 0.961 . S
C590 H604 0.961 . S
C591 C588 1.539 . S
C591 H605 0.958 . S
C591 H606 0.961 . S
C591 H607 0.960 . S
H592 C576 0.934 . S
H593 C581 0.929 . S
H594 C582 0.960 . S
H595 C582 0.962 . S
H596 C582 0.960 . S
H597 C583 0.961 . S
H598 C583 0.961 . S
H599 C583 0.961 . S
H600 C584 0.931 . S
H601 C589 0.930 . S
H602 C590 0.956 . S
H603 C590 0.961 . S
H604 C590 0.961 . S
H605 C591 0.958 . S
H606 C591 0.961 . S
H607 C591 0.960 . S
C608 C609 1.391 . S
C608 C610 1.394 . S
C608 H624 0.931 . S
C609 C608 1.391 . S
C609 C613 1.376 . S
C610 C608 1.394 . S
C610 C611 1.369 . S
C610 C614 1.531 . S
C611 C610 1.369 . S
C611 C612 1.410 . S
C611 C619 1.503 . S
C612 C611 1.410 . S
C612 C613 1.392 . S
C612 C615 1.511 . S
C613 C609 1.376 . S
C613 C612 1.392 . S
C613 H625 0.929 . S
C614 C610 1.531 . S
C614 H626 0.960 . S
C614 H627 0.962 . S
C614 H628 0.960 . S
C615 C612 1.511 . S
C615 H629 0.961 . S
C615 H630 0.961 . S
C615 H631 0.961 . S
C616 C617 1.370 . S
C616 C618 1.363 . S
C616 H632 0.931 . S
C617 C616 1.370 . S
C617 C621 1.408 . S
C618 C616 1.363 . S
C618 C619 1.370 . S
C618 C622 1.524 . S
C619 C611 1.503 . S
C619 C618 1.370 . S
C619 C620 1.403 . S
C620 C619 1.403 . S
C620 C621 1.404 . S
C620 C623 1.539 . S
C621 C617 1.408 . S
C621 C620 1.404 . S
C621 H633 0.930 . S
C622 C618 1.524 . S
C622 H634 0.956 . S
C622 H635 0.961 . S
C622 H636 0.961 . S
C623 C620 1.539 . S
C623 H637 0.958 . S
C623 H638 0.961 . S
C623 H639 0.960 . S
H624 C608 0.931 . S
H625 C613 0.929 . S
H626 C614 0.960 . S
H627 C614 0.962 . S
H628 C614 0.960 . S
H629 C615 0.961 . S
H630 C615 0.961 . S
H631 C615 0.961 . S
H632 C616 0.931 . S
H633 C621 0.930 . S
H634 C622 0.956 . S
H635 C622 0.961 . S
H636 C622 0.961 . S
H637 C623 0.958 . S
H638 C623 0.961 . S
H639 C623 0.960 . S
C640 C641 1.391 . S
C640 C642 1.394 . S
C640 H656 0.931 . S
C641 C640 1.391 . S
C641 C645 1.376 . S
C642 C640 1.394 . S
C642 C643 1.369 . S
C642 C646 1.531 . S
C643 C642 1.369 . S
C643 C644 1.410 . S
C643 C651 1.503 . S
C644 C643 1.410 . S
C644 C645 1.392 . S
C644 C647 1.498 1_655 S
C645 C641 1.376 . S
C645 C644 1.392 . S
C645 H657 0.929 . S
C646 C642 1.531 . S
C646 H658 0.960 . S
C646 H659 0.962 . S
C646 H660 0.960 . S
C647 C644 1.498 1_455 S
C647 H661 0.959 1_455 S
C647 H662 0.963 . S
C647 H663 0.973 . S
C648 C649 1.370 1_655 S
C648 C650 1.363 . S
C648 H664 0.931 . S
C649 C648 1.370 1_455 S
C649 C653 1.408 . S
C650 C648 1.363 . S
C650 C651 1.370 . S
C650 C654 1.524 . S
C651 C643 1.503 . S
C651 C650 1.370 . S
C651 C652 1.424 . S
C652 C651 1.424 . S
C652 C653 1.391 1_655 S
C652 C655 1.529 1_655 S
C653 C649 1.408 . S
C653 C652 1.391 1_455 S
C653 H665 0.930 . S
C654 C650 1.524 . S
C654 H666 0.956 . S
C654 H667 0.961 . S
C654 H668 0.961 . S
C655 C652 1.529 1_455 S
C655 H669 0.958 . S
C655 H670 0.961 . S
C655 H671 0.960 . S
H656 C640 0.931 . S
H657 C645 0.929 . S
H658 C646 0.960 . S
H659 C646 0.962 . S
H660 C646 0.960 . S
H661 C647 0.959 1_655 S
H662 C647 0.963 . S
H663 C647 0.973 . S
H664 C648 0.931 . S
H665 C653 0.930 . S
H666 C654 0.956 . S
H667 C654 0.961 . S
H668 C654 0.961 . S
H669 C655 0.958 . S
H670 C655 0.961 . S
H671 C655 0.960 . S
C672 C673 1.391 . S
C672 C674 1.394 . S
C672 H688 0.931 . S
C673 C672 1.391 . S
C673 C677 1.376 . S
C674 C672 1.394 . S
C674 C675 1.369 . S
C674 C678 1.531 . S
C675 C674 1.369 . S
C675 C676 1.410 . S
C675 C683 1.503 . S
C676 C675 1.410 . S
C676 C677 1.392 . S
C676 C679 1.511 . S
C677 C673 1.376 . S
C677 C676 1.392 . S
C677 H689 0.929 . S
C678 C674 1.531 . S
C678 H690 0.960 . S
C678 H691 0.962 . S
C678 H692 0.960 . S
C679 C676 1.511 . S
C679 H693 0.961 . S
C679 H694 0.961 . S
C679 H695 0.961 . S
C680 C681 1.370 . S
C680 C682 1.363 . S
C680 H696 0.931 . S
C681 C680 1.370 . S
C681 C685 1.408 . S
C682 C680 1.363 . S
C682 C683 1.370 . S
C682 C686 1.524 . S
C683 C675 1.503 . S
C683 C682 1.370 . S
C683 C684 1.403 . S
C684 C683 1.403 . S
C684 C685 1.404 . S
C684 C687 1.539 . S
C685 C681 1.408 . S
C685 C684 1.404 . S
C685 H697 0.930 . S
C686 C682 1.524 . S
C686 H698 0.956 . S
C686 H699 0.961 . S
C686 H700 0.961 . S
C687 C684 1.539 . S
C687 H701 0.958 . S
C687 H702 0.961 . S
C687 H703 0.960 . S
H688 C672 0.931 . S
H689 C677 0.929 . S
H690 C678 0.960 . S
H691 C678 0.962 . S
H692 C678 0.960 . S
H693 C679 0.961 . S
H694 C679 0.961 . S
H695 C679 0.961 . S
H696 C680 0.931 . S
H697 C685 0.930 . S
H698 C686 0.956 . S
H699 C686 0.961 . S
H700 C686 0.961 . S
H701 C687 0.958 . S
H702 C687 0.961 . S
H703 C687 0.960 . S
C704 C705 1.391 . S
C704 C706 1.394 . S
C704 H720 0.931 . S
C705 C704 1.391 . S
C705 C709 1.376 . S
C706 C704 1.394 . S
C706 C707 1.369 . S
C706 C710 1.531 . S
C707 C706 1.369 . S
C707 C708 1.410 . S
C707 C715 1.503 . S
C708 C707 1.410 . S
C708 C709 1.392 . S
C708 C711 1.511 . S
C709 C705 1.376 . S
C709 C708 1.392 . S
C709 H721 0.929 . S
C710 C706 1.531 . S
C710 H722 0.960 . S
C710 H723 0.962 . S
C710 H724 0.960 . S
C711 C708 1.511 . S
C711 H725 0.961 . S
C711 H726 0.961 . S
C711 H727 0.961 . S
C712 C713 1.370 . S
C712 C714 1.363 . S
C712 H728 0.931 . S
C713 C712 1.370 . S
C713 C717 1.408 . S
C714 C712 1.363 . S
C714 C715 1.370 . S
C714 C718 1.524 . S
C715 C707 1.503 . S
C715 C714 1.370 . S
C715 C716 1.403 . S
C716 C715 1.403 . S
C716 C717 1.404 . S
C716 C719 1.539 . S
C717 C713 1.408 . S
C717 C716 1.404 . S
C717 H729 0.930 . S
C718 C714 1.524 . S
C718 H730 0.956 . S
C718 H731 0.961 . S
C718 H732 0.961 . S
C719 C716 1.539 . S
C719 H733 0.958 . S
C719 H734 0.961 . S
C719 H735 0.960 . S
H720 C704 0.931 . S
H721 C709 0.929 . S
H722 C710 0.960 . S
H723 C710 0.962 . S
H724 C710 0.960 . S
H725 C711 0.961 . S
H726 C711 0.961 . S
H727 C711 0.961 . S
H728 C712 0.931 . S
H729 C717 0.930 . S
H730 C718 0.956 . S
H731 C718 0.961 . S
H732 C718 0.961 . S
H733 C719 0.958 . S
H734 C719 0.961 . S
H735 C719 0.960 . S
C736 C737 1.391 . S
C736 C738 1.394 . S
C736 H752 0.931 . S
C737 C736 1.391 . S
C737 C741 1.376 . S
C738 C736 1.394 . S
C738 C739 1.369 . S
C738 C742 1.531 . S
C739 C738 1.369 . S
C739 C740 1.410 . S
C739 C747 1.503 . S
C740 C739 1.410 . S
C740 C741 1.392 . S
C740 C743 1.511 . S
C741 C737 1.376 . S
C741 C740 1.392 . S
C741 H753 0.929 . S
C742 C738 1.531 . S
C742 H754 0.960 . S
C742 H755 0.962 . S
C742 H756 0.960 . S
C743 C740 1.511 . S
C743 H757 0.961 . S
C743 H758 0.961 . S
C743 H759 0.961 . S
C744 C745 1.370 . S
C744 C746 1.363 . S
C744 H760 0.931 . S
C745 C744 1.370 . S
C745 C749 1.408 . S
C746 C744 1.363 . S
C746 C747 1.370 . S
C746 C750 1.524 . S
C747 C739 1.503 . S
C747 C746 1.370 . S
C747 C748 1.403 . S
C748 C747 1.403 . S
C748 C749 1.404 . S
C748 C751 1.539 . S
C749 C745 1.408 . S
C749 C748 1.404 . S
C749 H761 0.930 . S
C750 C746 1.524 . S
C750 H762 0.956 . S
C750 H763 0.961 . S
C750 H764 0.961 . S
C751 C748 1.539 . S
C751 H765 0.958 . S
C751 H766 0.961 . S
C751 H767 0.960 . S
H752 C736 0.931 . S
H753 C741 0.929 . S
H754 C742 0.960 . S
H755 C742 0.962 . S
H756 C742 0.960 . S
H757 C743 0.961 . S
H758 C743 0.961 . S
H759 C743 0.961 . S
H760 C744 0.931 . S
H761 C749 0.930 . S
H762 C750 0.956 . S
H763 C750 0.961 . S
H764 C750 0.961 . S
H765 C751 0.958 . S
H766 C751 0.961 . S
H767 C751 0.960 . S
C768 C769 1.391 . S
C768 C770 1.394 . S
C768 H784 0.931 . S
C769 C768 1.391 . S
C769 C773 1.376 . S
C770 C768 1.394 . S
C770 C771 1.369 . S
C770 C774 1.531 . S
C771 C770 1.369 . S
C771 C772 1.410 . S
C771 C779 1.503 . S
C772 C771 1.410 . S
C772 C773 1.392 . S
C772 C775 1.511 . S
C773 C769 1.376 . S
C773 C772 1.392 . S
C773 H785 0.929 . S
C774 C770 1.531 . S
C774 H786 0.960 . S
C774 H787 0.962 . S
C774 H788 0.960 . S
C775 C772 1.511 . S
C775 H789 0.961 . S
C775 H790 0.961 . S
C775 H791 0.961 . S
C776 C777 1.370 . S
C776 C778 1.363 . S
C776 H792 0.931 . S
C777 C776 1.370 . S
C777 C781 1.408 . S
C778 C776 1.363 . S
C778 C779 1.370 . S
C778 C782 1.524 . S
C779 C771 1.503 . S
C779 C778 1.370 . S
C779 C780 1.403 . S
C780 C779 1.403 . S
C780 C781 1.404 . S
C780 C783 1.539 . S
C781 C777 1.408 . S
C781 C780 1.404 . S
C781 H793 0.930 . S
C782 C778 1.524 . S
C782 H794 0.956 . S
C782 H795 0.961 . S
C782 H796 0.961 . S
C783 C780 1.539 . S
C783 H797 0.958 . S
C783 H798 0.961 . S
C783 H799 0.960 . S
H784 C768 0.931 . S
H785 C773 0.929 . S
H786 C774 0.960 . S
H787 C774 0.962 . S
H788 C774 0.960 . S
H789 C775 0.961 . S
H790 C775 0.961 . S
H791 C775 0.961 . S
H792 C776 0.931 . S
H793 C781 0.930 . S
H794 C782 0.956 . S
H795 C782 0.961 . S
H796 C782 0.961 . S
H797 C783 0.958 . S
H798 C783 0.961 . S
H799 C783 0.960 . S
C800 C801 1.391 . S
C800 C802 1.394 . S
C800 H816 0.931 . S
C801 C800 1.391 . S
C801 C805 1.376 . S
C802 C800 1.394 . S
C802 C803 1.369 . S
C802 C806 1.531 . S
C803 C802 1.369 . S
C803 C804 1.410 . S
C803 C811 1.503 . S
C804 C803 1.410 . S
C804 C805 1.392 . S
C804 C807 1.511 . S
C805 C801 1.376 . S
C805 C804 1.392 . S
C805 H817 0.929 . S
C806 C802 1.531 . S
C806 H818 0.960 . S
C806 H819 0.962 . S
C806 H820 0.960 . S
C807 C804 1.511 . S
C807 H821 0.961 . S
C807 H822 0.961 . S
C807 H823 0.961 . S
C808 C809 1.370 . S
C808 C810 1.363 . S
C808 H824 0.931 . S
C809 C808 1.370 . S
C809 C813 1.408 . S
C810 C808 1.363 . S
C810 C811 1.370 . S
C810 C814 1.524 . S
C811 C803 1.503 . S
C811 C810 1.370 . S
C811 C812 1.403 . S
C812 C811 1.403 . S
C812 C813 1.404 . S
C812 C815 1.539 . S
C813 C809 1.408 . S
C813 C812 1.404 . S
C813 H825 0.930 . S
C814 C810 1.524 . S
C814 H826 0.956 . S
C814 H827 0.961 . S
C814 H828 0.961 . S
C815 C812 1.539 . S
C815 H829 0.958 . S
C815 H830 0.961 . S
C815 H831 0.960 . S
H816 C800 0.931 . S
H817 C805 0.929 . S
H818 C806 0.960 . S
H819 C806 0.962 . S
H820 C806 0.960 . S
H821 C807 0.961 . S
H822 C807 0.961 . S
H823 C807 0.961 . S
H824 C808 0.931 . S
H825 C813 0.930 . S
H826 C814 0.956 . S
H827 C814 0.961 . S
H828 C814 0.961 . S
H829 C815 0.958 . S
H830 C815 0.961 . S
H831 C815 0.960 . S
C832 C833 1.391 . S
C832 C834 1.394 . S
C832 H848 0.931 . S
C833 C832 1.391 . S
C833 C837 1.376 . S
C834 C832 1.394 . S
C834 C835 1.369 . S
C834 C838 1.531 . S
C835 C834 1.369 . S
C835 C836 1.410 . S
C835 C843 1.503 . S
C836 C835 1.410 . S
C836 C837 1.392 . S
C836 C839 1.511 . S
C837 C833 1.376 . S
C837 C836 1.392 . S
C837 H849 0.929 . S
C838 C834 1.531 . S
C838 H850 0.960 . S
C838 H851 0.962 . S
C838 H852 0.960 . S
C839 C836 1.511 . S
C839 H853 0.961 . S
C839 H854 0.961 . S
C839 H855 0.961 . S
C840 C841 1.370 . S
C840 C842 1.363 . S
C840 H856 0.931 . S
C841 C840 1.370 . S
C841 C845 1.408 . S
C842 C840 1.363 . S
C842 C843 1.370 . S
C842 C846 1.524 . S
C843 C835 1.503 . S
C843 C842 1.370 . S
C843 C844 1.403 . S
C844 C843 1.403 . S
C844 C845 1.404 . S
C844 C847 1.539 . S
C845 C841 1.408 . S
C845 C844 1.404 . S
C845 H857 0.930 . S
C846 C842 1.524 . S
C846 H858 0.956 . S
C846 H859 0.961 . S
C846 H860 0.961 . S
C847 C844 1.539 . S
C847 H861 0.958 . S
C847 H862 0.961 . S
C847 H863 0.960 . S
H848 C832 0.931 . S
H849 C837 0.929 . S
H850 C838 0.960 . S
H851 C838 0.962 . S
H852 C838 0.960 . S
H853 C839 0.961 . S
H854 C839 0.961 . S
H855 C839 0.961 . S
H856 C840 0.931 . S
H857 C845 0.930 . S
H858 C846 0.956 . S
H859 C846 0.961 . S
H860 C846 0.961 . S
H861 C847 0.958 . S
H862 C847 0.961 . S
H863 C847 0.960 . S
C864 C865 1.391 . S
C864 C866 1.394 . S
C864 H880 0.931 . S
C865 C864 1.391 . S
C865 C869 1.376 . S
C866 C864 1.394 . S
C866 C867 1.369 . S
C866 C870 1.531 . S
C867 C866 1.369 . S
C867 C868 1.410 . S
C867 C875 1.503 . S
C868 C867 1.410 . S
C868 C869 1.392 . S
C868 C871 1.511 . S
C869 C865 1.376 . S
C869 C868 1.392 . S
C869 H881 0.929 . S
C870 C866 1.531 . S
C870 H882 0.960 . S
C870 H883 0.962 . S
C870 H884 0.960 . S
C871 C868 1.511 . S
C871 H885 0.961 . S
C871 H886 0.961 . S
C871 H887 0.961 . S
C872 C873 1.370 . S
C872 C874 1.363 . S
C872 H888 0.931 . S
C873 C872 1.370 . S
C873 C877 1.408 . S
C874 C872 1.363 . S
C874 C875 1.370 . S
C874 C878 1.524 . S
C875 C867 1.503 . S
C875 C874 1.370 . S
C875 C876 1.403 . S
C876 C875 1.403 . S
C876 C877 1.404 . S
C876 C879 1.539 . S
C877 C873 1.408 . S
C877 C876 1.404 . S
C877 H889 0.930 . S
C878 C874 1.524 . S
C878 H890 0.956 . S
C878 H891 0.961 . S
C878 H892 0.961 . S
C879 C876 1.539 . S
C879 H893 0.958 . S
C879 H894 0.961 . S
C879 H895 0.960 . S
H880 C864 0.931 . S
H881 C869 0.929 . S
H882 C870 0.960 . S
H883 C870 0.962 . S
H884 C870 0.960 . S
H885 C871 0.961 . S
H886 C871 0.961 . S
H887 C871 0.961 . S
H888 C872 0.931 . S
H889 C877 0.930 . S
H890 C878 0.956 . S
H891 C878 0.961 . S
H892 C878 0.961 . S
H893 C879 0.958 . S
H894 C879 0.961 . S
H895 C879 0.960 . S
C896 C897 1.391 . S
C896 C898 1.394 . S
C896 H912 0.931 . S
C897 C896 1.391 . S
C897 C901 1.388 . S
C898 C896 1.394 . S
C898 C899 1.369 . S
C898 C902 1.531 . S
C899 C898 1.369 . S
C899 C900 1.410 . S
C899 C907 1.503 . S
C900 C899 1.410 . S
C900 C901 1.405 . S
C900 C903 1.511 . S
C901 C897 1.388 . S
C901 C900 1.405 . S
C901 H913 0.904 1_556 S
C902 C898 1.531 . S
C902 H914 0.960 . S
C902 H915 0.962 . S
C902 H916 0.960 . S
C903 C900 1.511 . S
C903 H917 0.961 1_556 S
C903 H918 0.961 . S
C903 H919 0.961 1_556 S
C904 C905 1.370 . S
C904 C906 1.363 . S
C904 H920 0.931 . S
C905 C904 1.370 . S
C905 C909 1.408 . S
C906 C904 1.363 . S
C906 C907 1.370 . S
C906 C910 1.524 . S
C907 C899 1.503 . S
C907 C906 1.370 . S
C907 C908 1.403 . S
C908 C907 1.403 . S
C908 C909 1.404 . S
C908 C911 1.539 . S
C909 C905 1.408 . S
C909 C908 1.404 . S
C909 H921 0.930 . S
C910 C906 1.524 . S
C910 H922 0.956 . S
C910 H923 0.961 . S
C910 H924 0.961 . S
C911 C908 1.539 . S
C911 H925 0.958 . S
C911 H926 0.961 . S
C911 H927 0.960 . S
H912 C896 0.931 . S
H913 C901 0.904 1_554 S
H914 C902 0.960 . S
H915 C902 0.962 . S
H916 C902 0.960 . S
H917 C903 0.961 1_554 S
H918 C903 0.961 . S
H919 C903 0.961 1_554 S
H920 C904 0.931 . S
H921 C909 0.930 . S
H922 C910 0.956 . S
H923 C910 0.961 . S
H924 C910 0.961 . S
H925 C911 0.958 . S
H926 C911 0.961 . S
H927 C911 0.960 . S
C161 C8 1.355 . S
C169 C93 1.372 . S
C193 C31 1.236 . S
C201 C101 1.221 . S
C225 C53 1.412 . S
C233 C110 1.380 . S
C265 C120 1.346 . S
C257 C74 1.309 . S
C297 C129 1.382 . S
C289 C26 1.393 . S
C321 C48 1.330 . S
C329 C138 1.346 . S
C353 C71 1.406 . S
C361 C146 1.388 . S
C385 C5 1.253 . S
C393 C156 1.236 . S
C417 C50 1.390 . S
C425 C155 1.382 . S
C457 C128 1.238 . S
C449 C70 1.257 . S
C489 C137 1.360 . S
C481 C4 1.388 1_556 S
C513 C28 1.361 . S
C521 C147 1.362 . S
C553 C102 1.369 . S
C545 C73 1.369 . S
C577 C7 1.348 . S
C585 C111 1.367 . S
C617 C119 1.371 . S
C609 C30 1.350 . S
C649 C92 1.208 . S
C641 C52 1.193 . S
C681 C149 1.375 . S
C673 C9 1.398 . S
C713 C158 1.303 . S
C705 C29 1.278 . S
C737 C51 1.313 . S
C745 C131 1.286 . S
C777 C140 1.357 . S
C769 C75 1.378 . S
C809 C113 1.361 . S
C801 C27 1.394 . S
C833 C49 1.398 . S
C841 C122 1.367 . S
C873 C95 1.298 . S
C865 C72 1.301 . S
C905 C104 1.299 . S
C897 C6 1.291 1_556 S
