# Generated by pormake.
# Topology dag, (6,3)-cn, num edge types: 1
# Building blocks:
#     Node 0, Type 0, BuildingBlock: OJICUG_clean_sbu_0, # of connection points: 6
#     Node 1, Type 0, BuildingBlock: OJICUG_clean_sbu_0, # of connection points: 6
#     Node 2, Type 0, BuildingBlock: OJICUG_clean_sbu_0, # of connection points: 6
#     Node 3, Type 0, BuildingBlock: OJICUG_clean_sbu_0, # of connection points: 6
#     Node 4, Type 1, BuildingBlock: BETDIP_clean_linker_0, # of connection points: 3
#     Node 5, Type 1, BuildingBlock: BETDIP_clean_linker_0, # of connection points: 3
#     Node 6, Type 1, BuildingBlock: BETDIP_clean_linker_0, # of connection points: 3
#     Node 7, Type 1, BuildingBlock: BETDIP_clean_linker_0, # of connection points: 3
#     Node 8, Type 1, BuildingBlock: BETDIP_clean_linker_0, # of connection points: 3
#     Node 9, Type 1, BuildingBlock: BETDIP_clean_linker_0, # of connection points: 3
#     Node 10, Type 1, BuildingBlock: BETDIP_clean_linker_0, # of connection points: 3
#     Node 11, Type 1, BuildingBlock: BETDIP_clean_linker_0, # of connection points: 3
#     Edge 12, Type (0, 1), BuildingBlock: CIFDUS_clean_linker_0, # of connection points: 2
#     Edge 13, Type (0, 1), BuildingBlock: CIFDUS_clean_linker_0, # of connection points: 2
#     Edge 14, Type (0, 1), BuildingBlock: CIFDUS_clean_linker_0, # of connection points: 2
#     Edge 15, Type (0, 1), BuildingBlock: CIFDUS_clean_linker_0, # of connection points: 2
#     Edge 16, Type (0, 1), BuildingBlock: CIFDUS_clean_linker_0, # of connection points: 2
#     Edge 17, Type (0, 1), BuildingBlock: CIFDUS_clean_linker_0, # of connection points: 2
#     Edge 18, Type (0, 1), BuildingBlock: CIFDUS_clean_linker_0, # of connection points: 2
#     Edge 19, Type (0, 1), BuildingBlock: CIFDUS_clean_linker_0, # of connection points: 2
#     Edge 20, Type (0, 1), BuildingBlock: CIFDUS_clean_linker_0, # of connection points: 2
#     Edge 21, Type (0, 1), BuildingBlock: CIFDUS_clean_linker_0, # of connection points: 2
#     Edge 22, Type (0, 1), BuildingBlock: CIFDUS_clean_linker_0, # of connection points: 2
#     Edge 23, Type (0, 1), BuildingBlock: CIFDUS_clean_linker_0, # of connection points: 2
#     Edge 24, Type (0, 1), BuildingBlock: CIFDUS_clean_linker_0, # of connection points: 2
#     Edge 25, Type (0, 1), BuildingBlock: CIFDUS_clean_linker_0, # of connection points: 2
#     Edge 26, Type (0, 1), BuildingBlock: CIFDUS_clean_linker_0, # of connection points: 2
#     Edge 27, Type (0, 1), BuildingBlock: CIFDUS_clean_linker_0, # of connection points: 2
#     Edge 28, Type (0, 1), BuildingBlock: CIFDUS_clean_linker_0, # of connection points: 2
#     Edge 29, Type (0, 1), BuildingBlock: CIFDUS_clean_linker_0, # of connection points: 2
#     Edge 30, Type (0, 1), BuildingBlock: CIFDUS_clean_linker_0, # of connection points: 2
#     Edge 31, Type (0, 1), BuildingBlock: CIFDUS_clean_linker_0, # of connection points: 2
#     Edge 32, Type (0, 1), BuildingBlock: CIFDUS_clean_linker_0, # of connection points: 2
#     Edge 33, Type (0, 1), BuildingBlock: CIFDUS_clean_linker_0, # of connection points: 2
#     Edge 34, Type (0, 1), BuildingBlock: CIFDUS_clean_linker_0, # of connection points: 2
#     Edge 35, Type (0, 1), BuildingBlock: CIFDUS_clean_linker_0, # of connection points: 2
# Relax obj value: 0.092
# Max RMSD: 0.112
# Mean RMSD: 0.093
data_MOF--net-dag--node1-OJICUG_clean_sbu_0--node2-BETDIP_clean_linker_0--edge1-CIFDUS_clean_linker_0
_symmetry_space_group_name_H-M    P1
_symmetry_Int_Tables_number       1
_symmetry_cell_setting            triclinic
loop_
_symmetry_equiv_pos_as_xyz
'x, y, z'
_cell_length_a     33.781631
_cell_length_b     33.012216
_cell_length_c     34.541156
_cell_angle_alpha  86.063222
_cell_angle_beta   90.021655
_cell_angle_gamma 90.051995
loop_
_atom_site_label
_atom_site_type_symbol
_atom_site_fract_x
_atom_site_fract_y
_atom_site_fract_z
_atom_type_partial_charge
Sc0 Sc 0.11836 0.8752 0.03346 0.0
Sc1 Sc 0.14157 0.77758 0.00832 0.0
Sc2 Sc 0.20713 0.85975 0.98495 0.0
O3 O 0.15588 0.83747 0.00871 0.0
C4 C 0.14176 0.92424 0.95437 0.0
C5 C 0.05808 0.81542 0.9932 0.0
C6 C 0.18494 0.79306 0.92626 0.0
C7 C 0.11211 0.80039 0.09285 0.0
C8 C 0.20082 0.91557 0.0553 0.0
C9 C 0.23271 0.77755 0.03322 0.0
O10 O 0.11702 0.91418 0.98117 0.0
O11 O 0.08377 0.79001 0.98323 0.0
O12 O 0.20103 0.82581 0.93509 0.0
O13 O 0.11814 0.8382 0.08649 0.0
O14 O 0.22143 0.89795 0.03091 0.0
O15 O 0.19832 0.76148 0.03362 0.0
O16 O 0.16368 0.91096 0.05816 0.0
O17 O 0.1157 0.77532 0.06653 0.0
O18 O 0.24054 0.81192 0.01569 0.0
O19 O 0.06645 0.8448 0.01369 0.0
O20 O 0.17642 0.90905 0.95282 0.0
O21 O 0.16383 0.77132 0.95005 0.0
Sc22 Sc 0.70156 0.63392 0.55761 0.0
Sc23 Sc 0.62935 0.71183 0.54406 0.0
Sc24 Sc 0.61024 0.61339 0.51645 0.0
O25 O 0.64696 0.6532 0.53965 0.0
C26 C 0.68994 0.58383 0.48201 0.0
C27 C 0.71853 0.71918 0.51186 0.0
C28 C 0.59202 0.69376 0.4627 0.0
C29 C 0.68018 0.69729 0.62104 0.0
C30 C 0.64995 0.55915 0.587 0.0
C31 C 0.55157 0.66145 0.56936 0.0
O32 O 0.70996 0.59325 0.51128 0.0
O33 O 0.68506 0.73413 0.52034 0.0
O34 O 0.59131 0.65573 0.47061 0.0
O35 O 0.70161 0.67006 0.60737 0.0
O36 O 0.62593 0.56524 0.55883 0.0
O37 O 0.57176 0.69419 0.56764 0.0
O38 O 0.67753 0.58386 0.59423 0.0
O39 O 0.65116 0.71357 0.60252 0.0
O40 O 0.56259 0.62966 0.55348 0.0
O41 O 0.72852 0.68259 0.52156 0.0
O42 O 0.65402 0.59396 0.47711 0.0
O43 O 0.60506 0.71874 0.48597 0.0
Sc44 Sc 0.86673 0.20885 0.03718 0.0
Sc45 Sc 0.79022 0.13698 0.06211 0.0
Sc46 Sc 0.88362 0.10467 0.03208 0.0
O47 O 0.8467 0.15026 0.04379 0.0
C48 C 0.90291 0.17089 0.96287 0.0
C49 C 0.77796 0.21618 0.00475 0.0
C50 C 0.80252 0.07326 0.99774 0.0
C51 C 0.81614 0.20882 0.11516 0.0
C52 C 0.94233 0.16348 0.07386 0.0
C53 C 0.84026 0.06772 0.10874 0.0
O54 O 0.89206 0.20157 0.9805 0.0
O55 O 0.76544 0.18301 0.02143 0.0
O56 O 0.83994 0.07505 0.99941 0.0
O57 O 0.84362 0.22232 0.09267 0.0
O58 O 0.93146 0.129 0.0637 0.0
O59 O 0.80911 0.08929 0.10465 0.0
O60 O 0.92291 0.19585 0.06559 0.0
O61 O 0.79408 0.17904 0.10754 0.0
O62 O 0.86883 0.0701 0.08483 0.0
O63 O 0.8131 0.22914 0.0086 0.0
O64 O 0.90184 0.13482 0.97815 0.0
O65 O 0.77981 0.09292 0.01908 0.0
Sc66 Sc 0.36224 0.40364 0.51263 0.0
Sc67 Sc 0.2709 0.37584 0.47459 0.0
Sc68 Sc 0.34429 0.30082 0.49952 0.0
O69 O 0.32574 0.35995 0.49557 0.0
C70 C 0.42258 0.34688 0.47021 0.0
C71 C 0.3256 0.44424 0.43385 0.0
C72 C 0.29633 0.3058 0.41986 0.0
C73 C 0.2799 0.43616 0.54197 0.0
C74 C 0.37789 0.333 0.57826 0.0
C75 C 0.25417 0.29587 0.52912 0.0
O76 O 0.4118 0.38021 0.48305 0.0
O77 O 0.29421 0.42289 0.4341 0.0
O78 O 0.32339 0.29059 0.44192 0.0
O79 O 0.31711 0.43217 0.54432 0.0
O80 O 0.36817 0.30398 0.55773 0.0
O81 O 0.24359 0.33014 0.51326 0.0
O82 O 0.37675 0.37001 0.56574 0.0
O83 O 0.25899 0.41945 0.51703 0.0
O84 O 0.28872 0.28111 0.52544 0.0
O85 O 0.3514 0.44117 0.46067 0.0
O86 O 0.40182 0.31468 0.47401 0.0
O87 O 0.2748 0.33519 0.42892 0.0
H88 H 0.17942 0.2244 0.1713 0.0
H89 H 0.26485 0.12724 0.18749 0.0
H90 H 0.15337 0.1058 0.13389 0.0
H91 H 0.3044 0.17334 0.21099 0.0
C92 C 0.28525 0.19693 0.22081 0.0
C93 C 0.1884 0.19346 0.16726 0.0
C94 C 0.1618 0.16671 0.15108 0.0
C95 C 0.22568 0.17975 0.18069 0.0
C96 C 0.23677 0.13898 0.17676 0.0
C97 C 0.21047 0.11251 0.15995 0.0
C98 C 0.17348 0.12659 0.14697 0.0
N99 N 0.2491 0.20675 0.20135 0.0
H100 H 0.21733 0.65674 0.66179 0.0
H101 H 0.32334 0.72702 0.67635 0.0
H102 H 0.32163 0.63314 0.59623 0.0
H103 H 0.27734 0.77434 0.69437 0.0
C104 C 0.25799 0.75462 0.71235 0.0
C105 C 0.24752 0.6644 0.65353 0.0
C106 C 0.26706 0.64226 0.62628 0.0
C107 C 0.26709 0.69598 0.67081 0.0
C108 C 0.30714 0.70439 0.66153 0.0
C109 C 0.32721 0.68138 0.635 0.0
C110 C 0.30652 0.65111 0.61684 0.0
N111 N 0.24682 0.71622 0.69983 0.0
H112 H 0.95793 0.78807 0.29772 0.0
H113 H 0.87195 0.88503 0.29399 0.0
H114 H 0.97396 0.8937 0.21983 0.0
H115 H 0.85983 0.86086 0.35512 0.0
C116 C 0.86425 0.82825 0.35573 0.0
C117 C 0.94785 0.81761 0.28609 0.0
C118 C 0.97017 0.83942 0.25758 0.0
C119 C 0.91302 0.83429 0.30043 0.0
C120 C 0.8995 0.87237 0.28443 0.0
C121 C 0.92165 0.89425 0.2556 0.0
C122 C 0.95701 0.87753 0.24268 0.0
N123 N 0.89219 0.81165 0.33045 0.0
H124 H 0.54185 0.27594 0.78145 0.0
H125 H 0.6342 0.36658 0.78043 0.0
H126 H 0.5455 0.37204 0.69132 0.0
H127 H 0.63454 0.35028 0.84462 0.0
C128 C 0.62971 0.31768 0.84707 0.0
C129 C 0.55569 0.3032 0.76842 0.0
C130 C 0.53996 0.32232 0.73441 0.0
C131 C 0.58888 0.3197 0.78615 0.0
C132 C 0.60737 0.35467 0.76842 0.0
C133 C 0.59221 0.3734 0.73382 0.0
C134 C 0.55805 0.35737 0.7176 0.0
N135 N 0.60387 0.29952 0.82079 0.0
H136 H 0.65176 0.2768 0.36982 0.0
H137 H 0.75429 0.35505 0.37117 0.0
H138 H 0.65028 0.38338 0.43461 0.0
H139 H 0.77349 0.32353 0.32073 0.0
C140 C 0.75609 0.29653 0.31678 0.0
C141 C 0.66672 0.30301 0.38023 0.0
C142 C 0.64637 0.32889 0.40381 0.0
C143 C 0.70537 0.31224 0.3676 0.0
C144 C 0.7245 0.34711 0.38019 0.0
C145 C 0.70451 0.37251 0.40456 0.0
C146 C 0.66575 0.36318 0.41627 0.0
N147 N 0.7226 0.2869 0.34053 0.0
H148 H 0.05716 0.20832 0.74787 0.0
H149 H 0.1402 0.10853 0.75385 0.0
H150 H 0.06021 0.12395 0.84795 0.0
H151 H 0.14099 0.11898 0.68988 0.0
C152 C 0.13759 0.15151 0.68404 0.0
C153 C 0.06977 0.18164 0.76321 0.0
C154 C 0.05524 0.16826 0.79981 0.0
C155 C 0.10007 0.15996 0.74594 0.0
C156 C 0.11635 0.12522 0.76618 0.0
C157 C 0.10156 0.11162 0.80273 0.0
C158 C 0.0714 0.13369 0.81936 0.0
N159 N 0.11401 0.1744 0.7087 0.0
H160 H 0.46315 0.7091 0.2364 0.0
H161 H 0.37994 0.60936 0.24023 0.0
H162 H 0.47036 0.61459 0.32729 0.0
H163 H 0.43843 0.72556 0.17847 0.0
C164 C 0.41049 0.71014 0.17467 0.0
C165 C 0.45209 0.68062 0.24942 0.0
C166 C 0.4705 0.66354 0.28302 0.0
C167 C 0.41944 0.66067 0.23359 0.0
C168 C 0.40524 0.62439 0.25222 0.0
C169 C 0.42371 0.60725 0.28577 0.0
C170 C 0.45632 0.62707 0.30083 0.0
N171 N 0.3992 0.67619 0.19973 0.0
H172 H 0.73644 0.85717 0.86806 0.0
H173 H 0.83628 0.77637 0.86168 0.0
H174 H 0.84105 0.87621 0.9349 0.0
H175 H 0.78986 0.7329 0.84347 0.0
C176 C 0.77045 0.75194 0.82495 0.0
C177 C 0.7659 0.84776 0.87723 0.0
C178 C 0.78668 0.86999 0.90378 0.0
C179 C 0.7832 0.8134 0.86232 0.0
C180 C 0.82203 0.80201 0.87369 0.0
C181 C 0.84299 0.82411 0.90038 0.0
C182 C 0.82492 0.85807 0.91513 0.0
N183 N 0.76164 0.79213 0.83467 0.0
H184 H 0.18098 0.93443 0.12755 0.0
H185 H 0.26167 0.96658 0.03375 0.0
H186 H 0.27934 0.02913 0.06375 0.0
H187 H 0.26048 0.08067 0.10907 0.0
H188 H 0.17799 0.04872 0.20118 0.0
H189 H 0.17309 0.97969 0.18026 0.0
C190 C 0.20323 0.95465 0.11429 0.0
C191 C 0.21938 0.94653 0.0782 0.0
C192 C 0.21272 0.9907 0.13136 0.0
C193 C 0.24868 0.97242 0.0615 0.0
C194 C 0.25857 0.00832 0.07849 0.0
C195 C 0.24292 0.05792 0.12545 0.0
C196 C 0.21954 0.06934 0.15643 0.0
C197 C 0.23925 0.01871 0.11237 0.0
C198 C 0.19633 0.04015 0.17734 0.0
C199 C 0.19319 0.00092 0.1651 0.0
H200 H 0.50252 0.72502 0.58308 0.0
H201 H 0.5126 0.59452 0.59922 0.0
H202 H 0.44521 0.58996 0.62394 0.0
H203 H 0.38189 0.62192 0.6361 0.0
H204 H 0.36923 0.75175 0.61825 0.0
H205 H 0.43931 0.75784 0.59982 0.0
C206 C 0.49013 0.69569 0.59259 0.0
C207 C 0.51251 0.66014 0.58892 0.0
C208 C 0.45084 0.69313 0.60624 0.0
C209 C 0.49595 0.62233 0.60127 0.0
C210 C 0.45738 0.61965 0.61544 0.0
C211 C 0.39448 0.65159 0.62819 0.0
C212 C 0.37035 0.68627 0.62784 0.0
C213 C 0.4343 0.65468 0.61713 0.0
C214 C 0.38726 0.72461 0.61858 0.0
C215 C 0.42722 0.72803 0.60787 0.0
H216 H 0.90438 0.05765 0.15394 0.0
H217 H 0.78627 0.01211 0.13888 0.0
H218 H 0.79936 0.95576 0.18746 0.0
H219 H 0.84798 0.91496 0.22758 0.0
H220 H 0.96557 0.96271 0.24245 0.0
H221 H 0.94902 0.02299 0.20095 0.0
C222 C 0.8813 0.03573 0.16185 0.0
C223 C 0.84465 0.03851 0.14272 0.0
C224 C 0.88912 0.0037 0.18951 0.0
C225 C 0.81471 0.01042 0.15338 0.0
C226 C 0.82232 0.97813 0.18092 0.0
C227 C 0.86956 0.93908 0.22252 0.0
C228 C 0.90822 0.934 0.23741 0.0
C229 C 0.85989 0.97377 0.1983 0.0
C230 C 0.9359 0.96553 0.23064 0.0
C231 C 0.92648 1e-05 0.20693 0.0
H232 H 0.42945 0.2731 0.60247 0.0
H233 H 0.36456 0.37523 0.64119 0.0
H234 H 0.40515 0.3748 0.69958 0.0
H235 H 0.46743 0.35505 0.73176 0.0
H236 H 0.53585 0.25657 0.6913 0.0
H237 H 0.48546 0.2451 0.64204 0.0
C238 C 0.42338 0.29421 0.62445 0.0
C239 C 0.39449 0.32446 0.61746 0.0
C240 C 0.44793 0.29476 0.65736 0.0
C241 C 0.38699 0.35195 0.64588 0.0
C242 C 0.41029 0.35184 0.67917 0.0
C243 C 0.47033 0.33006 0.7131 0.0
C244 C 0.50491 0.30659 0.71491 0.0
C245 C 0.4421 0.32483 0.68413 0.0
C246 C 0.50906 0.27463 0.69047 0.0
C247 C 0.48051 0.26846 0.66207 0.0
H248 H 0.73735 0.51945 0.50181 0.0
H249 H 0.67561 0.57981 0.40498 0.0
H250 H 0.68317 0.51993 0.36792 0.0
H251 H 0.69411 0.44637 0.36894 0.0
H252 H 0.74979 0.38394 0.46791 0.0
H253 H 0.7586 0.44844 0.49812 0.0
C254 C 0.727 0.52 0.47204 0.0
C255 C 0.70571 0.55382 0.45619 0.0
C256 C 0.72981 0.4847 0.45159 0.0
C257 C 0.69191 0.554 0.41779 0.0
C258 C 0.69599 0.51967 0.39671 0.0
C259 C 0.70967 0.44735 0.39636 0.0
C260 C 0.72167 0.41091 0.41618 0.0
C261 C 0.71294 0.48419 0.41411 0.0
C262 C 0.74093 0.41193 0.45207 0.0
C263 C 0.74551 0.44871 0.46945 0.0
H264 H 0.95571 0.22757 0.93404 0.0
H265 H 0.88547 0.1255 0.90324 0.0
H266 H 0.92136 0.12328 0.84218 0.0
H267 H 0.9812 0.14068 0.80517 0.0
H268 H 0.05676 0.23704 0.83903 0.0
H269 H 0.01003 0.25234 0.8904 0.0
C270 C 0.9476 0.20577 0.91329 0.0
C271 C 0.91846 0.17642 0.92307 0.0
C272 C 0.96958 0.20358 0.87889 0.0
C273 C 0.90821 0.14802 0.89632 0.0
C274 C 0.92871 0.14673 0.86147 0.0
C275 C 0.98634 0.16621 0.82274 0.0
C276 C 0.0219 0.18794 0.81849 0.0
C277 C 0.96067 0.17299 0.85343 0.0
C278 C 0.02911 0.22042 0.84166 0.0
C279 C 0.00272 0.22866 0.87137 0.0
H280 H 0.39582 0.45379 0.39899 0.0
H281 H 0.27561 0.49727 0.39334 0.0
H282 H 0.29457 0.54985 0.34284 0.0
H283 H 0.34753 0.58774 0.30597 0.0
H284 H 0.4672 0.54209 0.31219 0.0
H285 H 0.44622 0.48562 0.35662 0.0
C286 C 0.37371 0.4746 0.38641 0.0
C287 C 0.33464 0.4724 0.40013 0.0
C288 C 0.38481 0.50432 0.35768 0.0
C289 C 0.30595 0.49873 0.38319 0.0
C290 C 0.31684 0.52879 0.35451 0.0
C291 C 0.36872 0.56485 0.31637 0.0
C292 C 0.40897 0.56939 0.30642 0.0
C293 C 0.35646 0.53249 0.34225 0.0
C294 C 0.43621 0.53959 0.32007 0.0
C295 C 0.42426 0.50734 0.34545 0.0
H296 H 0.02716 0.79614 0.92347 0.0
H297 H 0.99517 0.82457 0.03941 0.0
H298 H 0.92528 0.82495 0.02191 0.0
H299 H 0.87384 0.82305 0.97277 0.0
H300 H 0.90469 0.80058 0.85502 0.0
H301 H 0.97404 0.79092 0.87418 0.0
C302 C 0.00471 0.80175 0.94489 0.0
C303 C 0.01615 0.81055 0.98257 0.0
C304 C 0.9644 0.80314 0.93428 0.0
C305 C 0.98697 0.81812 0.01012 0.0
C306 C 0.94704 0.81832 0.00017 0.0
C307 C 0.89571 0.81605 0.95123 0.0
C308 C 0.88413 0.8131 0.91244 0.0
C309 C 0.93552 0.81193 0.96214 0.0
C310 C 0.91272 0.8029 0.88514 0.0
C311 C 0.95247 0.7977 0.89602 0.0
H312 H 0.75678 0.00691 0.01462 0.0
H313 H 0.81479 0.0759 0.92064 0.0
H314 H 0.80679 0.01965 0.8789 0.0
H315 H 0.79618 0.94662 0.87414 0.0
H316 H 0.74411 0.87524 0.96984 0.0
H317 H 0.73608 0.93624 0.00578 0.0
C318 C 0.76606 0.01003 0.9845 0.0
C319 C 0.78609 0.04534 0.97047 0.0
C320 C 0.76301 0.97674 0.96126 0.0
C321 C 0.79902 0.04896 0.93176 0.0
C322 C 0.79477 0.01669 0.90806 0.0
C323 C 0.78159 0.94493 0.90219 0.0
C324 C 0.77034 0.90694 0.91934 0.0
C325 C 0.77867 0.97978 0.92313 0.0
C326 C 0.75238 0.90449 0.95605 0.0
C327 C 0.74822 0.93926 0.97669 0.0
H328 H 0.47496 0.28384 0.46653 0.0
H329 H 0.45683 0.40998 0.42913 0.0
H330 H 0.52345 0.41421 0.40261 0.0
H331 H 0.58839 0.38428 0.39468 0.0
H332 H 0.6094 0.25928 0.43333 0.0
H333 H 0.54005 0.25208 0.45419 0.0
C334 C 0.48551 0.31197 0.45204 0.0
C335 C 0.46119 0.34665 0.4502 0.0
C336 C 0.5244 0.3145 0.43737 0.0
C337 C 0.47518 0.38301 0.43141 0.0
C338 C 0.51326 0.3855 0.4162 0.0
C339 C 0.57775 0.35543 0.40766 0.0
C340 C 0.60393 0.32258 0.41316 0.0
C341 C 0.53839 0.35182 0.41991 0.0
C342 C 0.58967 0.28505 0.42903 0.0
C343 C 0.55014 0.28102 0.44106 0.0
H344 H 0.18806 0.97352 0.90613 0.0
H345 H 0.06633 0.94294 0.93318 0.0
H346 H 0.04369 0.99527 0.88534 0.0
H347 H 0.05789 0.05223 0.83911 0.0
H348 H 0.17873 0.0872 0.81424 0.0
H349 H 0.20235 0.02981 0.85693 0.0
C350 C 0.15662 0.97815 0.90127 0.0
C351 C 0.12895 0.95467 0.92354 0.0
C352 C 0.14364 0.00893 0.87403 0.0
C353 C 0.08828 0.96098 0.91691 0.0
C354 C 0.07525 0.99079 0.88942 0.0
C355 C 0.08944 0.04732 0.84303 0.0
C356 C 0.11652 0.07422 0.82409 0.0
C357 C 0.10262 0.01537 0.86842 0.0
C358 C 0.15729 0.06685 0.82853 0.0
C359 C 0.17076 0.03428 0.85318 0.0
H360 H 0.61194 0.67068 0.39244 0.0
H361 H 0.53182 0.7478 0.45044 0.0
H362 H 0.4893 0.75364 0.39277 0.0
H363 H 0.46804 0.72305 0.33272 0.0
H364 H 0.54742 0.64353 0.27676 0.0
H365 H 0.59792 0.65326 0.32595 0.0
C366 C 0.58594 0.69003 0.39174 0.0
C367 C 0.57457 0.70848 0.4254 0.0
C368 C 0.56145 0.69244 0.35892 0.0
C369 C 0.54102 0.7335 0.4246 0.0
C370 C 0.51657 0.73647 0.3918 0.0
C371 C 0.49718 0.70964 0.33038 0.0
C372 C 0.50435 0.68275 0.30138 0.0
C373 C 0.52543 0.71421 0.35966 0.0
C374 C 0.54171 0.66469 0.29874 0.0
C375 C 0.5703 0.66981 0.32714 0.0
H376 H 0.23881 0.50326 0.51876 0.0
H377 H 0.28389 0.43514 0.62009 0.0
H378 H 0.27361 0.49334 0.659 0.0
H379 H 0.26665 0.5671 0.65995 0.0
H380 H 0.23083 0.63759 0.55651 0.0
H381 H 0.22169 0.57539 0.5226 0.0
C382 C 0.24472 0.50086 0.54972 0.0
C383 C 0.26188 0.4653 0.56681 0.0
C384 C 0.24099 0.53523 0.57123 0.0
C385 C 0.27044 0.46239 0.60664 0.0
C386 C 0.2649 0.49572 0.62873 0.0
C387 C 0.25522 0.56845 0.63052 0.0
C388 C 0.24903 0.60633 0.61062 0.0
C389 C 0.25233 0.53287 0.6108 0.0
C390 C 0.23521 0.60841 0.57226 0.0
C391 C 0.23044 0.57295 0.55286 0.0
H392 H 0.12367 0.83198 0.16194 0.0
H393 H 0.05567 0.74177 0.10651 0.0
H394 H 0.00777 0.73944 0.15971 0.0
H395 H 0.97772 0.77535 0.21309 0.0
H396 H 0.04405 0.86919 0.26478 0.0
H397 H 0.10032 0.85756 0.22257 0.0
C398 C 0.09909 0.81077 0.16224 0.0
C399 C 0.09276 0.78767 0.13009 0.0
C400 C 0.07095 0.81086 0.19203 0.0
C401 C 0.06115 0.75992 0.13093 0.0
C402 C 0.03344 0.75899 0.16112 0.0
C403 C 0.00516 0.79195 0.21603 0.0
C404 C 0.00697 0.82316 0.24167 0.0
C405 C 0.03684 0.78611 0.19057 0.0
C406 C 0.04228 0.84502 0.24515 0.0
C407 C 0.07427 0.83858 0.22084 0.0
H408 H 0.65435 0.5448 0.66612 0.0
H409 H 0.6365 0.4863 0.55955 0.0
H410 H 0.62173 0.42231 0.59596 0.0
H411 H 0.60788 0.3846 0.65733 0.0
H412 H 0.6204 0.44243 0.7648 0.0
H413 H 0.64415 0.50463 0.72911 0.0
C414 C 0.64783 0.51779 0.65109 0.0
C415 C 0.64615 0.5202 0.61029 0.0
C416 C 0.63822 0.48108 0.67235 0.0
C417 C 0.63748 0.48518 0.59098 0.0
C418 C 0.62907 0.44859 0.61174 0.0
C419 C 0.61589 0.4108 0.673 0.0
C420 C 0.61176 0.40919 0.71353 0.0
C421 C 0.62829 0.44649 0.65232 0.0
C422 C 0.62328 0.44296 0.73354 0.0
C423 C 0.63658 0.4786 0.71311 0.0
H424 H 0.00196 0.21973 0.06824 0.0
H425 H 0.9639 0.10943 0.13174 0.0
H426 H 0.02706 0.10453 0.16573 0.0
H427 H 0.09513 0.12683 0.17204 0.0
H428 H 0.13698 0.23343 0.10543 0.0
H429 H 0.07021 0.24538 0.07874 0.0
C430 C 0.00744 0.19514 0.09004 0.0
C431 C 0.97864 0.16476 0.09732 0.0
C432 C 0.04451 0.19178 0.1087 0.0
C433 C 0.98593 0.13285 0.12541 0.0
C434 C 0.02196 0.13004 0.14486 0.0
C435 C 0.08952 0.1529 0.1519 0.0
C436 C 0.12087 0.17882 0.14012 0.0
C437 C 0.0518 0.15857 0.13585 0.0
C438 C 0.1132 0.21302 0.11478 0.0
C439 C 0.07516 0.21961 0.09933 0.0
H440 H 0.30717 0.80531 0.04693 0.0
H441 H 0.22938 0.70304 0.07304 0.0
H442 H 0.27842 0.67229 0.11759 0.0
H443 H 0.34117 0.67641 0.15234 0.0
H444 H 0.41885 0.77871 0.12746 0.0
H445 H 0.37193 0.80742 0.07894 0.0
C446 C 0.30102 0.77608 0.06198 0.0
C447 C 0.26437 0.75677 0.05675 0.0
C448 C 0.32916 0.7587 0.088 0.0
C449 C 0.25715 0.71881 0.07656 0.0
C450 C 0.28516 0.70117 0.10217 0.0
C451 C 0.34799 0.70492 0.13623 0.0
C452 C 0.38322 0.72573 0.14368 0.0
C453 C 0.32089 0.72122 0.10866 0.0
C454 C 0.39176 0.76233 0.12225 0.0
C455 C 0.36497 0.77872 0.0946 0.0
H456 H 0.72994 0.6615 0.67513 0.0
H457 H 0.65366 0.76553 0.65374 0.0
H458 H 0.67396 0.79136 0.71527 0.0
H459 H 0.71545 0.78581 0.77408 0.0
H460 H 0.79068 0.68119 0.79572 0.0
H461 H 0.76865 0.6542 0.73517 0.0
C462 C 0.71763 0.68979 0.6839 0.0
C463 C 0.69052 0.71163 0.65959 0.0
C464 C 0.72935 0.70446 0.71936 0.0
C465 C 0.67458 0.74801 0.67179 0.0
C466 C 0.68627 0.76292 0.70696 0.0
C467 C 0.72691 0.75706 0.76559 0.0
C468 C 0.75488 0.73558 0.78913 0.0
C469 C 0.71395 0.74163 0.73079 0.0
C470 C 0.76919 0.69824 0.77794 0.0
C471 C 0.75665 0.68284 0.74333 0.0
H472 H 0.76432 0.18737 0.1739 0.0
H473 H 0.85453 0.27547 0.13935 0.0
H474 H 0.84489 0.30893 0.1992 0.0
H475 H 0.80998 0.31445 0.26088 0.0
H476 H 0.71953 0.22705 0.29549 0.0
H477 H 0.73036 0.19206 0.23637 0.0
C478 C 0.78188 0.21388 0.17939 0.0
C479 C 0.80999 0.22883 0.15189 0.0
C480 C 0.77625 0.23316 0.21401 0.0
C481 C 0.83259 0.26318 0.15979 0.0
C482 C 0.82716 0.28243 0.1941 0.0
C483 C 0.79286 0.28758 0.25552 0.0
C484 C 0.764 0.27348 0.28237 0.0
C485 C 0.799 0.2678 0.22133 0.0
C486 C 0.7419 0.23866 0.27519 0.0
C487 C 0.74802 0.21863 0.24134 0.0
H488 H 0.25698 0.21605 0.55438 0.0
H489 H 0.1875 0.32492 0.56226 0.0
H490 H 0.14418 0.28946 0.60984 0.0
H491 H 0.12844 0.2288 0.65209 0.0
H492 H 0.19685 0.11954 0.64344 0.0
H493 H 0.23817 0.1539 0.59307 0.0
C494 C 0.23224 0.23197 0.56633 0.0
C495 C 0.22576 0.27318 0.55501 0.0
C496 C 0.20739 0.21142 0.59365 0.0
C497 C 0.19321 0.29319 0.57041 0.0
C498 C 0.16849 0.273 0.59777 0.0
C499 C 0.15229 0.21248 0.63907 0.0
C500 C 0.16005 0.1719 0.65167 0.0
C501 C 0.1757 0.23233 0.61007 0.0
C502 C 0.19058 0.15091 0.63418 0.0
C503 C 0.21421 0.17053 0.6055 0.0
H504 H 0.77948 0.69524 0.46698 0.0
H505 H 0.7184 0.80183 0.50145 0.0
H506 H 0.75904 0.84475 0.45707 0.0
H507 H 0.80981 0.85194 0.40621 0.0
H508 H 0.86959 0.74547 0.37014 0.0
H509 H 0.83166 0.70269 0.4173 0.0
C510 C 0.77539 0.7279 0.46516 0.0
C511 C 0.74586 0.74522 0.48754 0.0
C512 C 0.79842 0.75245 0.439 0.0
C513 C 0.74075 0.78761 0.48447 0.0
C514 C 0.76396 0.81223 0.45904 0.0
C515 C 0.81457 0.81937 0.40884 0.0
C516 C 0.84228 0.80191 0.38472 0.0
C517 C 0.79246 0.79494 0.43578 0.0
C518 C 0.84831 0.75969 0.38831 0.0
C519 C 0.82665 0.73519 0.41531 0.0
H520 H 0.71359 0.19064 0.96527 0.0
H521 H 0.78232 0.29735 0.98596 0.0
H522 H 0.74111 0.33819 0.94045 0.0
H523 H 0.68747 0.34329 0.89267 0.0
H524 H 0.62043 0.23653 0.86913 0.0
H525 H 0.65884 0.19609 0.91783 0.0
C526 C 0.71924 0.2229 0.96008 0.0
C527 C 0.75101 0.24088 0.97895 0.0
C528 C 0.69588 0.24617 0.93319 0.0
C529 C 0.75823 0.28267 0.97163 0.0
C530 C 0.73467 0.3061 0.94563 0.0
C531 C 0.68118 0.3112 0.89842 0.0
C532 C 0.65135 0.2929 0.8774 0.0
C533 C 0.70376 0.2881 0.92591 0.0
C534 C 0.64343 0.2513 0.88488 0.0
C535 C 0.66536 0.22817 0.91274 0.0
H536 H 0.34159 0.25091 0.38372 0.0
H537 H 0.23587 0.32412 0.36942 0.0
H538 H 0.22443 0.29846 0.30613 0.0
H539 H 0.24324 0.2547 0.25537 0.0
H540 H 0.34811 0.18056 0.26846 0.0
H541 H 0.36129 0.20756 0.33161 0.0
C542 C 0.31599 0.26117 0.36683 0.0
C543 C 0.2896 0.28932 0.38156 0.0
C544 C 0.3095 0.24635 0.33015 0.0
C545 C 0.25675 0.30248 0.359 0.0
C546 C 0.25011 0.28786 0.32269 0.0
C547 C 0.26913 0.24451 0.27185 0.0
C548 C 0.29469 0.21561 0.25738 0.0
C549 C 0.2762 0.25977 0.30805 0.0
C550 C 0.32809 0.20288 0.27911 0.0
C551 C 0.33552 0.21817 0.31521 0.0
H552 H 0.22204 0.83604 0.86735 0.0
H553 H 0.16437 0.72099 0.89575 0.0
H554 H 0.18031 0.69939 0.83114 0.0
H555 H 0.2133 0.71235 0.76772 0.0
H556 H 0.27181 0.82715 0.741 0.0
H557 H 0.2527 0.84976 0.80421 0.0
C558 C 0.2128 0.80618 0.85961 0.0
C559 C 0.19228 0.78005 0.88663 0.0
C560 C 0.22229 0.79394 0.82276 0.0
C561 C 0.18028 0.7417 0.87564 0.0
C562 C 0.18945 0.72931 0.83872 0.0
C563 C 0.22162 0.74241 0.77564 0.0
C564 C 0.24401 0.76815 0.74983 0.0
C565 C 0.21084 0.75504 0.81221 0.0
C566 C 0.25463 0.80691 0.76048 0.0
C567 C 0.24376 0.81979 0.79657 0.0
loop_
_geom_bond_atom_site_label_1
_geom_bond_atom_site_label_2
_geom_bond_distance
_geom_bond_site_symmetry_2
_ccdc_geom_bond_type
Sc0 O3 2.025 . S
Sc0 O10 2.105 1_554 S
Sc0 O13 2.105 . S
Sc0 O16 2.105 . S
Sc0 O19 2.105 1_554 S
Sc1 O3 2.025 . S
Sc1 O11 2.105 1_554 S
Sc1 O15 2.105 . S
Sc1 O17 2.105 . S
Sc1 O21 2.105 1_554 S
Sc2 O3 2.025 1_556 S
Sc2 O12 2.105 . S
Sc2 O14 2.105 1_556 S
Sc2 O18 2.105 1_556 S
Sc2 O20 2.105 . S
O3 Sc0 2.025 . S
O3 Sc1 2.025 . S
O3 Sc2 2.025 1_554 S
C4 O10 1.268 . S
C4 O20 1.268 . S
C5 O11 1.268 . S
C5 O19 1.268 . S
C6 O12 1.268 . S
C6 O21 1.268 . S
C7 O13 1.268 . S
C7 O17 1.268 . S
C8 O14 1.268 . S
C8 O16 1.268 . S
C9 O15 1.268 . S
C9 O18 1.268 . S
O10 Sc0 2.105 1_556 S
O10 C4 1.268 . S
O11 Sc1 2.105 1_556 S
O11 C5 1.268 . S
O12 Sc2 2.105 . S
O12 C6 1.268 . S
O13 Sc0 2.105 . S
O13 C7 1.268 . S
O14 Sc2 2.105 1_554 S
O14 C8 1.268 . S
O15 Sc1 2.105 . S
O15 C9 1.268 . S
O16 Sc0 2.105 . S
O16 C8 1.268 . S
O17 Sc1 2.105 . S
O17 C7 1.268 . S
O18 Sc2 2.105 1_554 S
O18 C9 1.268 . S
O19 Sc0 2.105 1_556 S
O19 C5 1.268 . S
O20 Sc2 2.105 . S
O20 C4 1.268 . S
O21 Sc1 2.105 1_556 S
O21 C6 1.268 . S
Sc22 O25 2.025 . S
Sc22 O32 2.105 . S
Sc22 O35 2.105 . S
Sc22 O38 2.105 . S
Sc22 O41 2.105 . S
Sc23 O25 2.025 . S
Sc23 O33 2.105 . S
Sc23 O37 2.105 . S
Sc23 O39 2.105 . S
Sc23 O43 2.105 . S
Sc24 O25 2.025 . S
Sc24 O34 2.105 . S
Sc24 O36 2.105 . S
Sc24 O40 2.105 . S
Sc24 O42 2.105 . S
O25 Sc22 2.025 . S
O25 Sc23 2.025 . S
O25 Sc24 2.025 . S
C26 O32 1.268 . S
C26 O42 1.268 . S
C27 O33 1.268 . S
C27 O41 1.268 . S
C28 O34 1.268 . S
C28 O43 1.268 . S
C29 O35 1.268 . S
C29 O39 1.268 . S
C30 O36 1.268 . S
C30 O38 1.268 . S
C31 O37 1.268 . S
C31 O40 1.268 . S
O32 Sc22 2.105 . S
O32 C26 1.268 . S
O33 Sc23 2.105 . S
O33 C27 1.268 . S
O34 Sc24 2.105 . S
O34 C28 1.268 . S
O35 Sc22 2.105 . S
O35 C29 1.268 . S
O36 Sc24 2.105 . S
O36 C30 1.268 . S
O37 Sc23 2.105 . S
O37 C31 1.268 . S
O38 Sc22 2.105 . S
O38 C30 1.268 . S
O39 Sc23 2.105 . S
O39 C29 1.268 . S
O40 Sc24 2.105 . S
O40 C31 1.268 . S
O41 Sc22 2.105 . S
O41 C27 1.268 . S
O42 Sc24 2.105 . S
O42 C26 1.268 . S
O43 Sc23 2.105 . S
O43 C28 1.268 . S
Sc44 O47 2.025 . S
Sc44 O54 2.105 1_554 S
Sc44 O57 2.105 . S
Sc44 O60 2.105 . S
Sc44 O63 2.105 1_554 S
Sc45 O47 2.025 . S
Sc45 O55 2.105 . S
Sc45 O59 2.105 . S
Sc45 O61 2.105 . S
Sc45 O65 2.105 . S
Sc46 O47 2.025 . S
Sc46 O56 2.089 1_554 S
Sc46 O58 2.105 . S
Sc46 O62 2.105 . S
Sc46 O64 2.105 1_554 S
O47 Sc44 2.025 . S
O47 Sc45 2.025 . S
O47 Sc46 2.025 . S
C48 O54 1.268 . S
C48 O64 1.268 . S
C49 O55 1.268 1_556 S
C49 O63 1.268 . S
C50 O56 1.273 . S
C50 O65 1.268 1_556 S
C51 O57 1.268 . S
C51 O61 1.268 . S
C52 O58 1.268 . S
C52 O60 1.268 . S
C53 O59 1.268 . S
C53 O62 1.268 . S
O54 Sc44 2.105 1_556 S
O54 C48 1.268 . S
O55 Sc45 2.105 . S
O55 C49 1.268 1_554 S
O56 Sc46 2.089 1_556 S
O56 C50 1.273 . S
O57 Sc44 2.105 . S
O57 C51 1.268 . S
O58 Sc46 2.105 . S
O58 C52 1.268 . S
O59 Sc45 2.105 . S
O59 C53 1.268 . S
O60 Sc44 2.105 . S
O60 C52 1.268 . S
O61 Sc45 2.105 . S
O61 C51 1.268 . S
O62 Sc46 2.105 . S
O62 C53 1.268 . S
O63 Sc44 2.105 1_556 S
O63 C49 1.268 . S
O64 Sc46 2.105 1_556 S
O64 C48 1.268 . S
O65 Sc45 2.105 . S
O65 C50 1.268 1_554 S
Sc66 O69 2.025 . S
Sc66 O76 2.105 . S
Sc66 O79 2.105 . S
Sc66 O82 2.105 . S
Sc66 O85 2.105 . S
Sc67 O69 2.025 . S
Sc67 O77 2.105 . S
Sc67 O81 2.105 . S
Sc67 O83 2.105 . S
Sc67 O87 2.105 . S
Sc68 O69 2.025 . S
Sc68 O78 2.105 . S
Sc68 O80 2.105 . S
Sc68 O84 2.105 . S
Sc68 O86 2.105 . S
O69 Sc66 2.025 . S
O69 Sc67 2.025 . S
O69 Sc68 2.025 . S
C70 O76 1.268 . S
C70 O86 1.268 . S
C71 O77 1.268 . S
C71 O85 1.268 . S
C72 O78 1.268 . S
C72 O87 1.268 . S
C73 O79 1.268 . S
C73 O83 1.268 . S
C74 O80 1.268 . S
C74 O82 1.268 . S
C75 O81 1.268 . S
C75 O84 1.268 . S
O76 Sc66 2.105 . S
O76 C70 1.268 . S
O77 Sc67 2.105 . S
O77 C71 1.268 . S
O78 Sc68 2.105 . S
O78 C72 1.268 . S
O79 Sc66 2.105 . S
O79 C73 1.268 . S
O80 Sc68 2.105 . S
O80 C74 1.268 . S
O81 Sc67 2.105 . S
O81 C75 1.268 . S
O82 Sc66 2.105 . S
O82 C74 1.268 . S
O83 Sc67 2.105 . S
O83 C73 1.268 . S
O84 Sc68 2.105 . S
O84 C75 1.268 . S
O85 Sc66 2.105 . S
O85 C71 1.268 . S
O86 Sc68 2.105 . S
O86 C70 1.268 . S
O87 Sc67 2.105 . S
O87 C72 1.268 . S
H88 C93 0.930 . S
H89 C96 0.930 . S
H90 C98 0.930 . S
H91 C92 1.016 . S
C92 H91 1.016 . S
C92 N99 1.286 . S
C93 H88 0.930 . S
C93 C94 1.397 . S
C93 C95 1.361 . S
C94 C93 1.397 . S
C94 C98 1.390 . S
C95 C93 1.361 . S
C95 C96 1.393 . S
C95 N99 1.413 . S
C96 H89 0.930 . S
C96 C95 1.393 . S
C96 C97 1.399 . S
C97 C96 1.399 . S
C97 C98 1.381 . S
C98 H90 0.930 . S
C98 C94 1.390 . S
C98 C97 1.381 . S
N99 C92 1.286 . S
N99 C95 1.413 . S
H100 C105 0.930 . S
H101 C108 0.930 . S
H102 C110 0.930 . S
H103 C104 1.016 . S
C104 H103 1.016 . S
C104 N111 1.286 . S
C105 H100 0.930 . S
C105 C106 1.397 . S
C105 C107 1.361 . S
C106 C105 1.397 . S
C106 C110 1.390 . S
C107 C105 1.361 . S
C107 C108 1.393 . S
C107 N111 1.413 . S
C108 H101 0.930 . S
C108 C107 1.393 . S
C108 C109 1.399 . S
C109 C108 1.399 . S
C109 C110 1.381 . S
C110 H102 0.930 . S
C110 C106 1.390 . S
C110 C109 1.381 . S
N111 C104 1.286 . S
N111 C107 1.413 . S
H112 C117 0.930 . S
H113 C120 0.930 . S
H114 C122 0.930 . S
H115 C116 1.016 . S
C116 H115 1.016 . S
C116 N123 1.286 . S
C117 H112 0.930 . S
C117 C118 1.397 . S
C117 C119 1.361 . S
C118 C117 1.397 . S
C118 C122 1.390 . S
C119 C117 1.361 . S
C119 C120 1.393 . S
C119 N123 1.413 . S
C120 H113 0.930 . S
C120 C119 1.393 . S
C120 C121 1.399 . S
C121 C120 1.399 . S
C121 C122 1.381 . S
C122 H114 0.930 . S
C122 C118 1.390 . S
C122 C121 1.381 . S
N123 C116 1.286 . S
N123 C119 1.413 . S
H124 C129 0.930 . S
H125 C132 0.930 . S
H126 C134 0.930 . S
H127 C128 1.016 . S
C128 H127 1.016 . S
C128 N135 1.286 . S
C129 H124 0.930 . S
C129 C130 1.397 . S
C129 C131 1.361 . S
C130 C129 1.397 . S
C130 C134 1.390 . S
C131 C129 1.361 . S
C131 C132 1.393 . S
C131 N135 1.413 . S
C132 H125 0.930 . S
C132 C131 1.393 . S
C132 C133 1.399 . S
C133 C132 1.399 . S
C133 C134 1.381 . S
C134 H126 0.930 . S
C134 C130 1.390 . S
C134 C133 1.381 . S
N135 C128 1.286 . S
N135 C131 1.413 . S
H136 C141 0.930 . S
H137 C144 0.930 . S
H138 C146 0.930 . S
H139 C140 1.016 . S
C140 H139 1.016 . S
C140 N147 1.286 . S
C141 H136 0.930 . S
C141 C142 1.397 . S
C141 C143 1.361 . S
C142 C141 1.397 . S
C142 C146 1.390 . S
C143 C141 1.361 . S
C143 C144 1.393 . S
C143 N147 1.413 . S
C144 H137 0.930 . S
C144 C143 1.393 . S
C144 C145 1.399 . S
C145 C144 1.399 . S
C145 C146 1.381 . S
C146 H138 0.930 . S
C146 C142 1.390 . S
C146 C145 1.381 . S
N147 C140 1.286 . S
N147 C143 1.413 . S
H148 C153 0.930 . S
H149 C156 0.930 . S
H150 C158 0.930 . S
H151 C152 1.016 . S
C152 H151 1.016 . S
C152 N159 1.286 . S
C153 H148 0.930 . S
C153 C154 1.397 . S
C153 C155 1.361 . S
C154 C153 1.397 . S
C154 C158 1.390 . S
C155 C153 1.361 . S
C155 C156 1.393 . S
C155 N159 1.413 . S
C156 H149 0.930 . S
C156 C155 1.393 . S
C156 C157 1.399 . S
C157 C156 1.399 . S
C157 C158 1.381 . S
C158 H150 0.930 . S
C158 C154 1.390 . S
C158 C157 1.381 . S
N159 C152 1.286 . S
N159 C155 1.413 . S
H160 C165 0.930 . S
H161 C168 0.930 . S
H162 C170 0.930 . S
H163 C164 1.016 . S
C164 H163 1.016 . S
C164 N171 1.286 . S
C165 H160 0.930 . S
C165 C166 1.397 . S
C165 C167 1.361 . S
C166 C165 1.397 . S
C166 C170 1.390 . S
C167 C165 1.361 . S
C167 C168 1.393 . S
C167 N171 1.413 . S
C168 H161 0.930 . S
C168 C167 1.393 . S
C168 C169 1.399 . S
C169 C168 1.399 . S
C169 C170 1.381 . S
C170 H162 0.930 . S
C170 C166 1.390 . S
C170 C169 1.381 . S
N171 C164 1.286 . S
N171 C167 1.413 . S
H172 C177 0.930 . S
H173 C180 0.930 . S
H174 C182 0.930 . S
H175 C176 1.016 . S
C176 H175 1.016 . S
C176 N183 1.286 . S
C177 H172 0.930 . S
C177 C178 1.397 . S
C177 C179 1.361 . S
C178 C177 1.397 . S
C178 C182 1.390 . S
C179 C177 1.361 . S
C179 C180 1.393 . S
C179 N183 1.413 . S
C180 H173 0.930 . S
C180 C179 1.393 . S
C180 C181 1.399 . S
C181 C180 1.399 . S
C181 C182 1.381 . S
C182 H174 0.930 . S
C182 C178 1.390 . S
C182 C181 1.381 . S
N183 C176 1.286 . S
N183 C179 1.413 . S
H184 C190 0.930 . S
H185 C193 0.930 . S
H186 C194 0.930 . S
H187 C195 0.930 . S
H188 C198 0.930 . S
H189 C199 0.930 . S
C190 H184 0.930 . S
C190 C191 1.355 . S
C190 C192 1.415 1_565 S
C191 C190 1.355 . S
C191 C193 1.419 1_565 S
C192 C190 1.415 1_545 S
C192 C197 1.425 . S
C192 C199 1.409 . S
C193 H185 0.930 . S
C193 C191 1.419 1_545 S
C193 C194 1.362 . S
C194 H186 0.930 . S
C194 C193 1.362 . S
C194 C197 1.409 . S
C195 H187 0.930 . S
C195 C196 1.355 . S
C195 C197 1.415 . S
C196 C195 1.355 . S
C196 C198 1.419 . S
C197 C192 1.425 . S
C197 C194 1.409 . S
C197 C195 1.415 . S
C198 H188 0.930 . S
C198 C196 1.419 . S
C198 C199 1.362 . S
C199 H189 0.930 . S
C199 C192 1.409 . S
C199 C198 1.362 . S
H200 C206 0.930 . S
H201 C209 0.930 . S
H202 C210 0.930 . S
H203 C211 0.930 . S
H204 C214 0.930 . S
H205 C215 0.930 . S
C206 H200 0.930 . S
C206 C207 1.355 . S
C206 C208 1.415 . S
C207 C206 1.355 . S
C207 C209 1.419 . S
C208 C206 1.415 . S
C208 C213 1.425 . S
C208 C215 1.409 . S
C209 H201 0.930 . S
C209 C207 1.419 . S
C209 C210 1.362 . S
C210 H202 0.930 . S
C210 C209 1.362 . S
C210 C213 1.409 . S
C211 H203 0.930 . S
C211 C212 1.355 . S
C211 C213 1.415 . S
C212 C211 1.355 . S
C212 C214 1.419 . S
C213 C208 1.425 . S
C213 C210 1.409 . S
C213 C211 1.415 . S
C214 H204 0.930 . S
C214 C212 1.419 . S
C214 C215 1.362 . S
C215 H205 0.930 . S
C215 C208 1.409 . S
C215 C214 1.362 . S
H216 C222 0.930 . S
H217 C225 0.930 . S
H218 C226 0.930 . S
H219 C227 0.930 . S
H220 C230 0.930 . S
H221 C231 0.930 1_545 S
C222 H216 0.930 . S
C222 C223 1.355 . S
C222 C224 1.415 1_545 S
C223 C222 1.355 . S
C223 C225 1.419 1_545 S
C224 C222 1.415 1_565 S
C224 C229 1.425 . S
C224 C231 1.409 . S
C225 H217 0.930 . S
C225 C223 1.419 1_565 S
C225 C226 1.362 . S
C226 H218 0.930 . S
C226 C225 1.362 . S
C226 C229 1.409 . S
C227 H219 0.930 . S
C227 C228 1.355 . S
C227 C229 1.415 . S
C228 C227 1.355 . S
C228 C230 1.419 . S
C229 C224 1.425 . S
C229 C226 1.409 . S
C229 C227 1.415 . S
C230 H220 0.930 . S
C230 C228 1.419 . S
C230 C231 1.362 . S
C231 H221 0.930 1_565 S
C231 C224 1.409 . S
C231 C230 1.362 . S
H232 C238 0.930 . S
H233 C241 0.930 . S
H234 C242 0.930 . S
H235 C243 0.930 . S
H236 C246 0.930 . S
H237 C247 0.930 . S
C238 H232 0.930 . S
C238 C239 1.355 . S
C238 C240 1.415 . S
C239 C238 1.355 . S
C239 C241 1.419 . S
C240 C238 1.415 . S
C240 C245 1.425 . S
C240 C247 1.409 . S
C241 H233 0.930 . S
C241 C239 1.419 . S
C241 C242 1.362 . S
C242 H234 0.930 . S
C242 C241 1.362 . S
C242 C245 1.409 . S
C243 H235 0.930 . S
C243 C244 1.355 . S
C243 C245 1.415 . S
C244 C243 1.355 . S
C244 C246 1.419 . S
C245 C240 1.425 . S
C245 C242 1.409 . S
C245 C243 1.415 . S
C246 H236 0.930 . S
C246 C244 1.419 . S
C246 C247 1.362 . S
C247 H237 0.930 . S
C247 C240 1.409 . S
C247 C246 1.362 . S
H248 C254 0.930 . S
H249 C257 0.930 . S
H250 C258 0.930 . S
H251 C259 0.930 . S
H252 C262 0.930 . S
H253 C263 0.930 . S
C254 H248 0.930 . S
C254 C255 1.355 . S
C254 C256 1.415 . S
C255 C254 1.355 . S
C255 C257 1.419 . S
C256 C254 1.415 . S
C256 C261 1.425 . S
C256 C263 1.409 . S
C257 H249 0.930 . S
C257 C255 1.419 . S
C257 C258 1.362 . S
C258 H250 0.930 . S
C258 C257 1.362 . S
C258 C261 1.409 . S
C259 H251 0.930 . S
C259 C260 1.355 . S
C259 C261 1.415 . S
C260 C259 1.355 . S
C260 C262 1.419 . S
C261 C256 1.425 . S
C261 C258 1.409 . S
C261 C259 1.415 . S
C262 H252 0.930 . S
C262 C260 1.419 . S
C262 C263 1.362 . S
C263 H253 0.930 . S
C263 C256 1.409 . S
C263 C262 1.362 . S
H264 C270 0.930 . S
H265 C273 0.930 . S
H266 C274 0.930 . S
H267 C275 0.930 . S
H268 C278 0.930 . S
H269 C279 0.930 . S
C270 H264 0.930 . S
C270 C271 1.355 . S
C270 C272 1.415 . S
C271 C270 1.355 . S
C271 C273 1.419 . S
C272 C270 1.415 . S
C272 C277 1.425 . S
C272 C279 1.409 . S
C273 H265 0.930 . S
C273 C271 1.419 . S
C273 C274 1.362 . S
C274 H266 0.930 . S
C274 C273 1.362 . S
C274 C277 1.409 . S
C275 H267 0.930 . S
C275 C276 1.355 . S
C275 C277 1.415 1_455 S
C276 C275 1.355 . S
C276 C278 1.419 1_455 S
C277 C272 1.425 . S
C277 C274 1.409 . S
C277 C275 1.415 1_655 S
C278 H268 0.930 . S
C278 C276 1.419 1_655 S
C278 C279 1.362 . S
C279 H269 0.930 . S
C279 C272 1.409 . S
C279 C278 1.362 . S
H280 C286 0.930 . S
H281 C289 0.930 . S
H282 C290 0.930 . S
H283 C291 0.930 . S
H284 C294 0.930 . S
H285 C295 0.930 . S
C286 H280 0.930 . S
C286 C287 1.355 . S
C286 C288 1.415 . S
C287 C286 1.355 . S
C287 C289 1.419 . S
C288 C286 1.415 . S
C288 C293 1.425 . S
C288 C295 1.409 . S
C289 H281 0.930 . S
C289 C287 1.419 . S
C289 C290 1.362 . S
C290 H282 0.930 . S
C290 C289 1.362 . S
C290 C293 1.409 . S
C291 H283 0.930 . S
C291 C292 1.355 . S
C291 C293 1.415 . S
C292 C291 1.355 . S
C292 C294 1.419 . S
C293 C288 1.425 . S
C293 C290 1.409 . S
C293 C291 1.415 . S
C294 H284 0.930 . S
C294 C292 1.419 . S
C294 C295 1.362 . S
C295 H285 0.930 . S
C295 C288 1.409 . S
C295 C294 1.362 . S
H296 C302 0.930 . S
H297 C305 0.930 . S
H298 C306 0.930 . S
H299 C307 0.930 . S
H300 C310 0.930 . S
H301 C311 0.930 . S
C302 H296 0.930 . S
C302 C303 1.355 . S
C302 C304 1.415 1_455 S
C303 C302 1.355 . S
C303 C305 1.419 1_455 S
C304 C302 1.415 1_655 S
C304 C309 1.425 . S
C304 C311 1.409 . S
C305 H297 0.930 . S
C305 C303 1.419 1_655 S
C305 C306 1.362 . S
C306 H298 0.930 . S
C306 C305 1.362 . S
C306 C309 1.409 . S
C307 H299 0.930 . S
C307 C308 1.355 . S
C307 C309 1.415 . S
C308 C307 1.355 . S
C308 C310 1.419 . S
C309 C304 1.425 . S
C309 C306 1.409 . S
C309 C307 1.415 . S
C310 H300 0.930 . S
C310 C308 1.419 . S
C310 C311 1.362 . S
C311 H301 0.930 . S
C311 C304 1.409 . S
C311 C310 1.362 . S
H312 C318 0.929 . S
H313 C321 0.930 . S
H314 C322 0.930 . S
H315 C323 0.930 . S
H316 C326 0.930 . S
H317 C327 0.930 . S
C318 H312 0.929 . S
C318 C319 1.345 1_565 S
C318 C320 1.426 . S
C319 C318 1.345 1_545 S
C319 C321 1.419 . S
C320 C318 1.426 . S
C320 C325 1.425 . S
C320 C327 1.409 . S
C321 H313 0.930 . S
C321 C319 1.419 . S
C321 C322 1.362 1_545 S
C322 H314 0.930 . S
C322 C321 1.362 1_565 S
C322 C325 1.409 . S
C323 H315 0.930 . S
C323 C324 1.355 . S
C323 C325 1.415 . S
C324 C323 1.355 . S
C324 C326 1.419 . S
C325 C320 1.425 . S
C325 C322 1.409 . S
C325 C323 1.415 . S
C326 H316 0.930 . S
C326 C324 1.419 . S
C326 C327 1.362 . S
C327 H317 0.930 . S
C327 C320 1.409 . S
C327 C326 1.362 . S
H328 C334 0.930 . S
H329 C337 0.930 . S
H330 C338 0.930 . S
H331 C339 0.930 . S
H332 C342 0.930 . S
H333 C343 0.930 . S
C334 H328 0.930 . S
C334 C335 1.355 . S
C334 C336 1.415 . S
C335 C334 1.355 . S
C335 C337 1.419 . S
C336 C334 1.415 . S
C336 C341 1.425 . S
C336 C343 1.409 . S
C337 H329 0.930 . S
C337 C335 1.419 . S
C337 C338 1.362 . S
C338 H330 0.930 . S
C338 C337 1.362 . S
C338 C341 1.409 . S
C339 H331 0.930 . S
C339 C340 1.355 . S
C339 C341 1.415 . S
C340 C339 1.355 . S
C340 C342 1.419 . S
C341 C336 1.425 . S
C341 C338 1.409 . S
C341 C339 1.415 . S
C342 H332 0.930 . S
C342 C340 1.419 . S
C342 C343 1.362 . S
C343 H333 0.930 . S
C343 C336 1.409 . S
C343 C342 1.362 . S
H344 C350 0.930 . S
H345 C353 0.931 . S
H346 C354 0.930 . S
H347 C355 0.930 . S
H348 C358 0.930 . S
H349 C359 0.930 . S
C350 H344 0.930 . S
C350 C351 1.355 . S
C350 C352 1.415 1_565 S
C351 C350 1.355 . S
C351 C353 1.427 . S
C352 C350 1.415 1_545 S
C352 C357 1.425 . S
C352 C359 1.409 . S
C353 H345 0.931 . S
C353 C351 1.427 . S
C353 C354 1.353 1_565 S
C354 H346 0.930 . S
C354 C353 1.353 1_545 S
C354 C357 1.409 . S
C355 H347 0.930 . S
C355 C356 1.355 . S
C355 C357 1.415 . S
C356 C355 1.355 . S
C356 C358 1.419 . S
C357 C352 1.425 . S
C357 C354 1.409 . S
C357 C355 1.415 . S
C358 H348 0.930 . S
C358 C356 1.419 . S
C358 C359 1.362 . S
C359 H349 0.930 . S
C359 C352 1.409 . S
C359 C358 1.362 . S
H360 C366 0.930 . S
H361 C369 0.930 . S
H362 C370 0.930 . S
H363 C371 0.930 . S
H364 C374 0.930 . S
H365 C375 0.930 . S
C366 H360 0.930 . S
C366 C367 1.355 . S
C366 C368 1.415 . S
C367 C366 1.355 . S
C367 C369 1.419 . S
C368 C366 1.415 . S
C368 C373 1.425 . S
C368 C375 1.409 . S
C369 H361 0.930 . S
C369 C367 1.419 . S
C369 C370 1.362 . S
C370 H362 0.930 . S
C370 C369 1.362 . S
C370 C373 1.409 . S
C371 H363 0.930 . S
C371 C372 1.355 . S
C371 C373 1.415 . S
C372 C371 1.355 . S
C372 C374 1.419 . S
C373 C368 1.425 . S
C373 C370 1.409 . S
C373 C371 1.415 . S
C374 H364 0.930 . S
C374 C372 1.419 . S
C374 C375 1.362 . S
C375 H365 0.930 . S
C375 C368 1.409 . S
C375 C374 1.362 . S
H376 C382 0.930 . S
H377 C385 0.930 . S
H378 C386 0.930 . S
H379 C387 0.930 . S
H380 C390 0.930 . S
H381 C391 0.930 . S
C382 H376 0.930 . S
C382 C383 1.355 . S
C382 C384 1.415 . S
C383 C382 1.355 . S
C383 C385 1.419 . S
C384 C382 1.415 . S
C384 C389 1.425 . S
C384 C391 1.409 . S
C385 H377 0.930 . S
C385 C383 1.419 . S
C385 C386 1.362 . S
C386 H378 0.930 . S
C386 C385 1.362 . S
C386 C389 1.409 . S
C387 H379 0.930 . S
C387 C388 1.355 . S
C387 C389 1.415 . S
C388 C387 1.355 . S
C388 C390 1.419 . S
C389 C384 1.425 . S
C389 C386 1.409 . S
C389 C387 1.415 . S
C390 H380 0.930 . S
C390 C388 1.419 . S
C390 C391 1.362 . S
C391 H381 0.930 . S
C391 C384 1.409 . S
C391 C390 1.362 . S
H392 C398 0.930 . S
H393 C401 0.930 . S
H394 C402 0.952 . S
H395 C403 0.930 . S
H396 C406 0.930 . S
H397 C407 0.930 . S
C398 H392 0.930 . S
C398 C399 1.355 . S
C398 C400 1.415 . S
C399 C398 1.355 . S
C399 C401 1.419 . S
C400 C398 1.415 . S
C400 C405 1.425 . S
C400 C407 1.409 . S
C401 H393 0.930 . S
C401 C399 1.419 . S
C401 C402 1.344 1_455 S
C402 H394 0.952 . S
C402 C401 1.344 1_655 S
C402 C405 1.406 1_655 S
C403 H395 0.930 . S
C403 C404 1.355 . S
C403 C405 1.415 1_655 S
C404 C403 1.355 . S
C404 C406 1.419 1_655 S
C405 C400 1.425 . S
C405 C402 1.406 1_455 S
C405 C403 1.415 1_455 S
C406 H396 0.930 . S
C406 C404 1.419 1_455 S
C406 C407 1.362 . S
C407 H397 0.930 . S
C407 C400 1.409 . S
C407 C406 1.362 . S
H408 C414 0.930 . S
H409 C417 0.930 . S
H410 C418 0.930 . S
H411 C419 0.930 . S
H412 C422 0.930 . S
H413 C423 0.930 . S
C414 H408 0.930 . S
C414 C415 1.355 . S
C414 C416 1.415 . S
C415 C414 1.355 . S
C415 C417 1.419 . S
C416 C414 1.415 . S
C416 C421 1.425 . S
C416 C423 1.409 . S
C417 H409 0.930 . S
C417 C415 1.419 . S
C417 C418 1.362 . S
C418 H410 0.930 . S
C418 C417 1.362 . S
C418 C421 1.409 . S
C419 H411 0.930 . S
C419 C420 1.355 . S
C419 C421 1.415 . S
C420 C419 1.355 . S
C420 C422 1.419 . S
C421 C416 1.425 . S
C421 C418 1.409 . S
C421 C419 1.415 . S
C422 H412 0.930 . S
C422 C420 1.419 . S
C422 C423 1.362 . S
C423 H413 0.930 . S
C423 C416 1.409 . S
C423 C422 1.362 . S
H424 C430 0.930 . S
H425 C433 0.930 . S
H426 C434 0.930 . S
H427 C435 0.930 . S
H428 C438 0.930 . S
H429 C439 0.930 . S
C430 H424 0.930 . S
C430 C431 1.355 . S
C430 C432 1.415 1_655 S
C431 C430 1.355 . S
C431 C433 1.419 . S
C432 C430 1.415 1_455 S
C432 C437 1.425 . S
C432 C439 1.409 . S
C433 H425 0.930 . S
C433 C431 1.419 . S
C433 C434 1.362 1_655 S
C434 H426 0.930 . S
C434 C433 1.362 1_455 S
C434 C437 1.409 . S
C435 H427 0.930 . S
C435 C436 1.355 . S
C435 C437 1.415 . S
C436 C435 1.355 . S
C436 C438 1.419 . S
C437 C432 1.425 . S
C437 C434 1.409 . S
C437 C435 1.415 . S
C438 H428 0.930 . S
C438 C436 1.419 . S
C438 C439 1.362 . S
C439 H429 0.930 . S
C439 C432 1.409 . S
C439 C438 1.362 . S
H440 C446 0.930 . S
H441 C449 0.930 . S
H442 C450 0.930 . S
H443 C451 0.930 . S
H444 C454 0.930 . S
H445 C455 0.930 . S
C446 H440 0.930 . S
C446 C447 1.355 . S
C446 C448 1.415 . S
C447 C446 1.355 . S
C447 C449 1.419 . S
C448 C446 1.415 . S
C448 C453 1.425 . S
C448 C455 1.409 . S
C449 H441 0.930 . S
C449 C447 1.419 . S
C449 C450 1.362 . S
C450 H442 0.930 . S
C450 C449 1.362 . S
C450 C453 1.409 . S
C451 H443 0.930 . S
C451 C452 1.355 . S
C451 C453 1.415 . S
C452 C451 1.355 . S
C452 C454 1.419 . S
C453 C448 1.425 . S
C453 C450 1.409 . S
C453 C451 1.415 . S
C454 H444 0.930 . S
C454 C452 1.419 . S
C454 C455 1.362 . S
C455 H445 0.930 . S
C455 C448 1.409 . S
C455 C454 1.362 . S
H456 C462 0.930 . S
H457 C465 0.930 . S
H458 C466 0.930 . S
H459 C467 0.930 . S
H460 C470 0.930 . S
H461 C471 0.930 . S
C462 H456 0.930 . S
C462 C463 1.355 . S
C462 C464 1.415 . S
C463 C462 1.355 . S
C463 C465 1.419 . S
C464 C462 1.415 . S
C464 C469 1.425 . S
C464 C471 1.409 . S
C465 H457 0.930 . S
C465 C463 1.419 . S
C465 C466 1.362 . S
C466 H458 0.930 . S
C466 C465 1.362 . S
C466 C469 1.409 . S
C467 H459 0.930 . S
C467 C468 1.355 . S
C467 C469 1.415 . S
C468 C467 1.355 . S
C468 C470 1.419 . S
C469 C464 1.425 . S
C469 C466 1.409 . S
C469 C467 1.415 . S
C470 H460 0.930 . S
C470 C468 1.419 . S
C470 C471 1.362 . S
C471 H461 0.930 . S
C471 C464 1.409 . S
C471 C470 1.362 . S
H472 C478 0.930 . S
H473 C481 0.930 . S
H474 C482 0.930 . S
H475 C483 0.930 . S
H476 C486 0.930 . S
H477 C487 0.930 . S
C478 H472 0.930 . S
C478 C479 1.355 . S
C478 C480 1.415 . S
C479 C478 1.355 . S
C479 C481 1.419 . S
C480 C478 1.415 . S
C480 C485 1.425 . S
C480 C487 1.409 . S
C481 H473 0.930 . S
C481 C479 1.419 . S
C481 C482 1.362 . S
C482 H474 0.930 . S
C482 C481 1.362 . S
C482 C485 1.409 . S
C483 H475 0.930 . S
C483 C484 1.355 . S
C483 C485 1.415 . S
C484 C483 1.355 . S
C484 C486 1.419 . S
C485 C480 1.425 . S
C485 C482 1.409 . S
C485 C483 1.415 . S
C486 H476 0.930 . S
C486 C484 1.419 . S
C486 C487 1.362 . S
C487 H477 0.930 . S
C487 C480 1.409 . S
C487 C486 1.362 . S
H488 C494 0.930 . S
H489 C497 0.930 . S
H490 C498 0.930 . S
H491 C499 0.930 . S
H492 C502 0.930 . S
H493 C503 0.930 . S
C494 H488 0.930 . S
C494 C495 1.355 . S
C494 C496 1.415 . S
C495 C494 1.355 . S
C495 C497 1.419 . S
C496 C494 1.415 . S
C496 C501 1.425 . S
C496 C503 1.409 . S
C497 H489 0.930 . S
C497 C495 1.419 . S
C497 C498 1.362 . S
C498 H490 0.930 . S
C498 C497 1.362 . S
C498 C501 1.409 . S
C499 H491 0.930 . S
C499 C500 1.355 . S
C499 C501 1.415 . S
C500 C499 1.355 . S
C500 C502 1.419 . S
C501 C496 1.425 . S
C501 C498 1.409 . S
C501 C499 1.415 . S
C502 H492 0.930 . S
C502 C500 1.419 . S
C502 C503 1.362 . S
C503 H493 0.930 . S
C503 C496 1.409 . S
C503 C502 1.362 . S
H504 C510 0.930 . S
H505 C513 0.930 . S
H506 C514 0.930 . S
H507 C515 0.930 . S
H508 C518 0.930 . S
H509 C519 0.930 . S
C510 H504 0.930 . S
C510 C511 1.355 . S
C510 C512 1.415 . S
C511 C510 1.355 . S
C511 C513 1.419 . S
C512 C510 1.415 . S
C512 C517 1.425 . S
C512 C519 1.409 . S
C513 H505 0.930 . S
C513 C511 1.419 . S
C513 C514 1.362 . S
C514 H506 0.930 . S
C514 C513 1.362 . S
C514 C517 1.409 . S
C515 H507 0.930 . S
C515 C516 1.355 . S
C515 C517 1.415 . S
C516 C515 1.355 . S
C516 C518 1.419 . S
C517 C512 1.425 . S
C517 C514 1.409 . S
C517 C515 1.415 . S
C518 H508 0.930 . S
C518 C516 1.419 . S
C518 C519 1.362 . S
C519 H509 0.930 . S
C519 C512 1.409 . S
C519 C518 1.362 . S
H520 C526 0.930 . S
H521 C529 0.930 . S
H522 C530 0.930 . S
H523 C531 0.930 . S
H524 C534 0.930 . S
H525 C535 0.930 . S
C526 H520 0.930 . S
C526 C527 1.355 . S
C526 C528 1.415 . S
C527 C526 1.355 . S
C527 C529 1.419 . S
C528 C526 1.415 . S
C528 C533 1.425 . S
C528 C535 1.409 . S
C529 H521 0.930 . S
C529 C527 1.419 . S
C529 C530 1.362 . S
C530 H522 0.930 . S
C530 C529 1.362 . S
C530 C533 1.409 . S
C531 H523 0.930 . S
C531 C532 1.355 . S
C531 C533 1.415 . S
C532 C531 1.355 . S
C532 C534 1.419 . S
C533 C528 1.425 . S
C533 C530 1.409 . S
C533 C531 1.415 . S
C534 H524 0.930 . S
C534 C532 1.419 . S
C534 C535 1.362 . S
C535 H525 0.930 . S
C535 C528 1.409 . S
C535 C534 1.362 . S
H536 C542 0.930 . S
H537 C545 0.930 . S
H538 C546 0.930 . S
H539 C547 0.930 . S
H540 C550 0.930 . S
H541 C551 0.930 . S
C542 H536 0.930 . S
C542 C543 1.355 . S
C542 C544 1.415 . S
C543 C542 1.355 . S
C543 C545 1.419 . S
C544 C542 1.415 . S
C544 C549 1.425 . S
C544 C551 1.409 . S
C545 H537 0.930 . S
C545 C543 1.419 . S
C545 C546 1.362 . S
C546 H538 0.930 . S
C546 C545 1.362 . S
C546 C549 1.409 . S
C547 H539 0.930 . S
C547 C548 1.355 . S
C547 C549 1.415 . S
C548 C547 1.355 . S
C548 C550 1.419 . S
C549 C544 1.425 . S
C549 C546 1.409 . S
C549 C547 1.415 . S
C550 H540 0.930 . S
C550 C548 1.419 . S
C550 C551 1.362 . S
C551 H541 0.930 . S
C551 C544 1.409 . S
C551 C550 1.362 . S
H552 C558 0.930 . S
H553 C561 0.930 . S
H554 C562 0.930 . S
H555 C563 0.930 . S
H556 C566 0.930 . S
H557 C567 0.930 . S
C558 H552 0.930 . S
C558 C559 1.355 . S
C558 C560 1.415 . S
C559 C558 1.355 . S
C559 C561 1.419 . S
C560 C558 1.415 . S
C560 C565 1.425 . S
C560 C567 1.409 . S
C561 H553 0.930 . S
C561 C559 1.419 . S
C561 C562 1.362 . S
C562 H554 0.930 . S
C562 C561 1.362 . S
C562 C565 1.409 . S
C563 H555 0.930 . S
C563 C564 1.355 . S
C563 C565 1.415 . S
C564 C563 1.355 . S
C564 C566 1.419 . S
C565 C560 1.425 . S
C565 C562 1.409 . S
C565 C563 1.415 . S
C566 H556 0.930 . S
C566 C564 1.419 . S
C566 C567 1.362 . S
C567 H557 0.930 . S
C567 C560 1.409 . S
C567 C566 1.362 . S
C191 C8 1.385 . S
C196 C97 1.395 . S
C207 C31 1.460 . S
C212 C109 1.406 . S
C223 C53 1.372 . S
C228 C121 1.393 . S
C244 C130 1.264 . S
C239 C74 1.344 . S
C260 C145 1.328 . S
C255 C26 1.431 . S
C271 C48 1.313 . S
C276 C154 1.321 . S
C287 C71 1.375 . S
C292 C169 1.388 . S
C303 C5 1.403 . S
C308 C181 1.443 . S
C319 C50 1.290 . S
C324 C178 1.303 . S
C340 C142 1.315 . S
C335 C70 1.301 . S
C356 C157 1.395 . S
C351 C4 1.358 . S
C367 C28 1.315 . S
C372 C166 1.304 . S
C388 C106 1.296 . S
C383 C73 1.298 . S
C399 C7 1.321 . S
C404 C118 1.291 . S
C420 C133 1.388 . S
C415 C30 1.359 . S
C436 C94 1.326 . S
C431 C52 1.270 . S
C452 C164 1.421 . S
C447 C9 1.410 . S
C468 C176 1.376 . S
C463 C29 1.414 . S
C479 C51 1.392 . S
C484 C140 1.410 . S
C500 C152 1.334 . S
C495 C75 1.361 . S
C516 C116 1.407 . S
C511 C27 1.381 . S
C527 C49 1.385 . S
C532 C128 1.394 . S
C548 C92 1.402 . S
C543 C72 1.392 . S
C564 C104 1.364 . S
C559 C6 1.421 . S
