# Generated by pormake.
# Topology sqc, (4,8)-cn, num edge types: 1
# Building blocks:
#     Node 0, Type 0, BuildingBlock: MIFKUJ_clean_linker_1, # of connection points: 4
#     Node 1, Type 0, BuildingBlock: MIFKUJ_clean_linker_1, # of connection points: 4
#     Node 2, Type 0, BuildingBlock: MIFKUJ_clean_linker_1, # of connection points: 4
#     Node 3, Type 0, BuildingBlock: MIFKUJ_clean_linker_1, # of connection points: 4
#     Node 4, Type 0, BuildingBlock: MIFKUJ_clean_linker_1, # of connection points: 4
#     Node 5, Type 0, BuildingBlock: MIFKUJ_clean_linker_1, # of connection points: 4
#     Node 6, Type 0, BuildingBlock: MIFKUJ_clean_linker_1, # of connection points: 4
#     Node 7, Type 0, BuildingBlock: MIFKUJ_clean_linker_1, # of connection points: 4
#     Node 8, Type 1, BuildingBlock: VETTIZ_charged_sbu_0, # of connection points: 8
#     Node 9, Type 1, BuildingBlock: VETTIZ_charged_sbu_0, # of connection points: 8
#     Node 10, Type 1, BuildingBlock: VETTIZ_charged_sbu_0, # of connection points: 8
#     Node 11, Type 1, BuildingBlock: VETTIZ_charged_sbu_0, # of connection points: 8
#     Edge 12, Type (0, 1), None
#     Edge 13, Type (0, 1), None
#     Edge 14, Type (0, 1), None
#     Edge 15, Type (0, 1), None
#     Edge 16, Type (0, 1), None
#     Edge 17, Type (0, 1), None
#     Edge 18, Type (0, 1), None
#     Edge 19, Type (0, 1), None
#     Edge 20, Type (0, 1), None
#     Edge 21, Type (0, 1), None
#     Edge 22, Type (0, 1), None
#     Edge 23, Type (0, 1), None
#     Edge 24, Type (0, 1), None
#     Edge 25, Type (0, 1), None
#     Edge 26, Type (0, 1), None
#     Edge 27, Type (0, 1), None
#     Edge 28, Type (0, 1), None
#     Edge 29, Type (0, 1), None
#     Edge 30, Type (0, 1), None
#     Edge 31, Type (0, 1), None
#     Edge 32, Type (0, 1), None
#     Edge 33, Type (0, 1), None
#     Edge 34, Type (0, 1), None
#     Edge 35, Type (0, 1), None
#     Edge 36, Type (0, 1), None
#     Edge 37, Type (0, 1), None
#     Edge 38, Type (0, 1), None
#     Edge 39, Type (0, 1), None
#     Edge 40, Type (0, 1), None
#     Edge 41, Type (0, 1), None
#     Edge 42, Type (0, 1), None
#     Edge 43, Type (0, 1), None
# Relax obj value: 0.137
# Max RMSD: 0.270
# Mean RMSD: 0.176
data_MOF--net-sqc--node1-VETTIZ_charged_sbu_0--node2-MIFKUJ_clean_linker_1--edge1-none
_symmetry_space_group_name_H-M    P1
_symmetry_Int_Tables_number       1
_symmetry_cell_setting            triclinic
loop_
_symmetry_equiv_pos_as_xyz
'x, y, z'
_cell_length_a     16.142071
_cell_length_b     16.112806
_cell_length_c     43.769835
_cell_angle_alpha  91.007805
_cell_angle_beta   89.60285
_cell_angle_gamma 90.54587
loop_
_atom_site_label
_atom_site_type_symbol
_atom_site_fract_x
_atom_site_fract_y
_atom_site_fract_z
_atom_type_partial_charge
H0 H 0.9034 0.92094 0.46789 0.0
H1 H 0.77201 0.87944 0.44588 0.0
H2 H 0.65764 0.09959 0.48329 0.0
H3 H 0.79287 0.14771 0.50222 0.0
H4 H 0.02027 1.0074 0.47354 0.0
H5 H 0.78783 0.97662 0.54987 0.0
H6 H 0.67604 0.0096 0.58673 0.0
H7 H 0.79319 0.24718 0.60568 0.0
H8 H 0.89546 0.21952 0.56648 0.0
H9 H 0.10509 0.21574 0.5704 0.0
H10 H 0.20239 0.25496 0.61055 0.0
H11 H 0.29259 1.00365 0.61129 0.0
H12 H 0.19112 0.963 0.57187 0.0
H13 H 0.98946 0.09722 0.58152 0.0
H14 H 0.24141 0.10564 0.51848 0.0
H15 H 0.37249 0.04267 0.50213 0.0
H16 H 0.23922 0.82851 0.4672 0.0
H17 H 0.10917 0.88747 0.48572 0.0
C18 C 0.85839 0.03574 0.48836 0.0
C19 C 0.85206 0.96344 0.47008 0.0
C20 C 0.77642 0.93966 0.45725 0.0
C21 C 0.70449 0.98588 0.46314 0.0
C22 C 0.71213 0.063 0.47822 0.0
C23 C 0.78925 0.08896 0.48993 0.0
C24 C 0.93313 0.0487 0.50824 0.0
C25 C 0.01312 0.02811 0.49709 0.0
C26 C 0.92602 0.07348 0.53933 0.0
C27 C 0.84879 0.09627 0.55518 0.0
C28 C 0.7867 0.03705 0.5611 0.0
C29 C 0.72463 0.05497 0.58264 0.0
C30 C 0.72725 0.13022 0.5994 0.0
C31 C 0.78958 0.18866 0.59324 0.0
C32 C 0.84749 0.17333 0.57053 0.0
C33 C 0.1426 0.08684 0.56753 0.0
C34 C 0.14541 0.16869 0.57935 0.0
C35 C 0.19916 0.19065 0.60291 0.0
C36 C 0.25286 0.13172 0.61466 0.0
C37 C 0.24984 0.04953 0.60309 0.0
C38 C 0.19402 0.02684 0.58 0.0
C39 C 0.07499 0.06427 0.54623 0.0
C40 C 0.99618 0.07915 0.55756 0.0
C41 C 0.08444 0.03388 0.51585 0.0
C42 C 0.16472 1.00093 0.50398 0.0
C43 C 0.24013 0.0443 0.50801 0.0
C44 C 0.31507 0.00869 0.49848 0.0
C45 C 0.31544 0.93084 0.4836 0.0
C46 C 0.24024 0.8888 0.47858 0.0
C47 C 0.16587 0.92293 0.489 0.0
H48 H 0.24289 0.92079 0.87948 0.0
H49 H 0.18754 0.04843 0.90299 0.0
H50 H 0.11356 0.13062 0.8141 0.0
H51 H 0.16262 1.00213 0.7912 0.0
H52 H 0.16991 0.79827 0.85357 0.0
H53 H 0.37804 0.9841 0.81726 0.0
H54 H 0.4334 0.11062 0.79455 0.0
H55 H 0.32152 0.04058 0.70837 0.0
H56 H 0.26496 0.91479 0.73145 0.0
H57 H 0.23627 0.65766 0.72966 0.0
H58 H 0.27401 0.52195 0.70646 0.0
H59 H 0.35757 0.44203 0.79452 0.0
H60 H 0.33213 0.57818 0.81601 0.0
H61 H 0.32472 0.78167 0.7553 0.0
H62 H 0.11631 0.59845 0.7933 0.0
H63 H 0.07581 0.46576 0.81383 0.0
H64 H 0.19595 0.52979 0.89918 0.0
H65 H 0.24338 0.66156 0.87699 0.0
C66 C 0.20822 0.95111 0.83327 0.0
C67 C 0.21559 0.96677 0.86497 0.0
C68 C 0.18531 0.04072 0.87846 0.0
C69 C 0.14733 0.10114 0.86059 0.0
C70 C 0.14318 0.08646 0.82876 0.0
C71 C 0.17183 0.01245 0.81545 0.0
C72 C 0.23322 0.86932 0.81891 0.0
C73 C 0.20523 0.79499 0.83242 0.0
C74 C 0.27824 0.86429 0.79078 0.0
C75 C 0.31596 0.93979 0.77632 0.0
C76 C 0.36485 0.99605 0.79351 0.0
C77 C 0.39674 0.06866 0.78041 0.0
C78 C 0.38147 0.08685 0.74959 0.0
C79 C 0.33444 0.02927 0.73218 0.0
C80 C 0.30223 0.95679 0.74535 0.0
C81 C 0.28038 0.62897 0.77491 0.0
C82 C 0.26294 0.61069 0.74389 0.0
C83 C 0.28197 0.53211 0.73078 0.0
C84 C 0.31692 0.46985 0.74869 0.0
C85 C 0.32948 0.48758 0.77999 0.0
C86 C 0.31517 0.56629 0.79243 0.0
C87 C 0.26059 0.71159 0.78981 0.0
C88 C 0.28978 0.78563 0.77651 0.0
C89 C 0.21807 0.71656 0.81842 0.0
C90 C 0.18393 0.64026 0.8333 0.0
C91 C 0.13536 0.58385 0.81626 0.0
C92 C 0.11279 0.50705 0.82811 0.0
C93 C 0.13336 0.48567 0.85825 0.0
C94 C 0.18019 0.54309 0.87577 0.0
C95 C 0.20567 0.61939 0.86333 0.0
H96 H 0.38663 0.97822 0.11648 0.0
H97 H 0.27582 0.8985 0.1407 0.0
H98 H 0.2015 0.80121 0.05243 0.0
H99 H 0.31637 0.87663 1.02822 0.0
H100 H 0.5101 0.91995 0.08867 0.0
H101 H 0.28958 0.08393 0.06281 0.0
H102 H 0.1538 0.11668 0.04375 0.0
H103 H 0.23771 0.06857 0.9515 0.0
H104 H 0.37334 0.02614 0.97109 0.0
H105 H 0.63052 0.05718 0.9745 0.0
H106 H 0.75906 0.11721 0.95466 0.0
H107 H 0.82424 0.20106 0.04579 0.0
H108 H 0.6948 0.14213 0.06537 0.0
H109 H 0.49493 0.1079 1.00058 0.0
H110 H 0.70493 0.91944 1.03208 0.0
H111 H 0.80571 0.83337 0.05731 0.0
H112 H 0.71924 0.92161 0.1456 0.0
H113 H 0.61854 0.00971 0.11997 0.0
C114 C 0.35905 0.93386 0.0705 0.0
C115 C 0.3469 0.93923 0.10232 0.0
C116 C 0.28405 0.8938 0.11617 0.0
C117 C 0.23092 0.84462 0.09829 0.0
C118 C 0.24207 0.83963 0.06648 0.0
C119 C 0.3068 0.88305 0.05266 0.0
C120 C 0.43051 0.97731 0.05674 0.0
C121 C 0.50669 0.96362 0.07009 0.0
C122 C 0.4249 0.02977 1.03128 0.0
C123 C 0.34223 0.05115 1.01856 0.0
C124 C 0.27845 0.07629 0.03855 0.0
C125 C 0.20014 0.0945 1.0276 0.0
C126 C 0.18396 0.09324 0.99608 0.0
C127 C 0.24695 0.06682 0.97589 0.0
C128 C 0.32537 0.04529 0.98707 0.0
C129 C 0.65291 0.09384 1.02155 0.0
C130 C 0.67202 0.08909 0.99021 0.0
C131 C 0.74605 0.12325 0.97891 0.0
C132 C 0.80299 0.16323 0.99866 0.0
C133 C 0.78272 0.16981 1.02993 0.0
C134 C 0.70855 0.1358 0.04119 0.0
C135 C 0.57622 0.05324 1.0338 0.0
C136 C 0.49852 0.06657 1.01979 0.0
C137 C 0.57896 1.0012 0.05956 0.0
C138 C 0.65544 0.97217 0.07404 0.0
C139 C 0.70971 0.92303 0.05675 0.0
C140 C 0.76579 0.87236 0.07132 0.0
C141 C 0.76844 0.86944 0.10347 0.0
C142 C 0.71672 0.92122 0.12087 0.0
C143 C 0.6611 0.97297 0.10622 0.0
H144 H 0.2527 0.14463 0.34448 0.0
H145 H 0.29042 0.03686 0.38057 0.0
H146 H 0.40681 0.89864 0.30684 0.0
H147 H 0.373 1.00839 0.27109 0.0
H148 H 0.393 0.21564 0.32003 0.0
H149 H 0.13952 0.08491 0.28719 0.0
H150 H 0.07755 0.954 0.27015 0.0
H151 H 0.21709 0.96575 0.18579 0.0
H152 H 0.28207 0.09657 0.20367 0.0
H153 H 0.31626 0.39357 0.20848 0.0
H154 H 0.26562 0.53034 0.19298 0.0
H155 H 0.17486 0.57392 0.28498 0.0
H156 H 0.21394 0.43601 0.2987 0.0
H157 H 0.22305 0.25982 0.228 0.0
H158 H 0.4191 0.45517 0.28275 0.0
H159 H 0.43523 0.56741 0.32012 0.0
H160 H 0.33288 0.41335 0.39095 0.0
H161 H 0.30545 0.30439 0.35258 0.0
C162 C 0.31063 0.08392 0.30525 0.0
C163 C 0.28461 0.0899 0.33601 0.0
C164 C 0.30674 0.02949 0.35663 0.0
C165 C 0.35219 0.96144 0.34627 0.0
C166 C 0.37177 0.95168 0.31505 0.0
C167 C 0.35171 0.01324 0.29458 0.0
C168 C 0.31162 0.15958 0.28715 0.0
C169 C 0.35491 0.22594 0.30008 0.0
C170 C 0.26513 0.17018 0.26036 0.0
C171 C 0.21677 0.09969 0.24701 0.0
C172 C 0.15659 0.05977 0.26492 0.0
C173 C 0.12125 0.98472 0.25514 0.0
C174 C 0.14367 0.94855 0.22684 0.0
C175 C 0.1992 0.9917 0.2078 0.0
C176 C 0.23597 0.0666 0.21792 0.0
C177 C 0.27009 0.40467 0.25496 0.0
C178 C 0.28559 0.43321 0.2252 0.0
C179 C 0.25848 0.51207 0.21653 0.0
C180 C 0.21671 0.56354 0.23772 0.0
C181 C 0.20676 0.53626 0.26793 0.0
C182 C 0.22957 0.45693 0.27598 0.0
C183 C 0.29349 0.3199 0.26432 0.0
C184 C 0.26015 0.25043 0.24818 0.0
C185 C 0.33915 0.30645 0.29148 0.0
C186 C 0.35988 0.37182 0.31452 0.0
C187 C 0.39943 0.44541 0.30614 0.0
C188 C 0.40982 0.50886 0.3277 0.0
C189 C 0.38676 0.49777 0.35849 0.0
C190 C 0.35189 0.42259 0.36746 0.0
C191 C 0.33689 0.36059 0.34547 0.0
H192 H 0.71469 0.37357 0.22418 0.0
H193 H 0.7488 0.51137 0.20309 0.0
H194 H 0.83408 0.59146 0.29224 0.0
H195 H 0.81911 0.45268 0.31054 0.0
H196 H 0.80244 0.25203 0.24531 0.0
H197 H 0.60651 0.42914 0.29158 0.0
H198 H 0.58122 0.56446 0.31257 0.0
H199 H 0.69749 0.49725 0.3973 0.0
H200 H 0.73973 0.36436 0.37268 0.0
H201 H 0.75039 0.10282 0.36688 0.0
H202 H 0.69933 0.9736 0.38932 0.0
H203 H 0.59122 0.9024 0.30254 0.0
H204 H 0.64008 0.03169 0.28072 0.0
H205 H 0.66664 0.22723 0.34702 0.0
H206 H 0.86941 0.05791 0.30377 0.0
H207 H 0.9239 0.93183 0.28078 0.0
H208 H 0.79898 0.98391 0.19636 0.0
H209 H 0.74212 0.11137 0.22019 0.0
C210 C 0.76316 0.40208 0.26932 0.0
C211 C 0.74184 0.42092 0.23895 0.0
C212 C 0.7582 0.50059 0.22717 0.0
C213 C 0.79266 0.56333 0.24605 0.0
C214 C 0.80692 0.54521 0.27694 0.0
C215 C 0.79855 0.46503 0.28758 0.0
C216 C 0.74566 0.31888 0.28301 0.0
C217 C 0.77124 0.2464 0.26721 0.0
C218 C 0.70894 0.31183 0.31268 0.0
C219 C 0.67721 0.38658 0.32991 0.0
C220 C 0.62869 0.4433 0.31441 0.0
C221 C 0.61382 0.52156 0.32684 0.0
C222 C 0.63625 0.54307 0.35715 0.0
C223 C 0.6805 0.48422 0.3738 0.0
C224 C 0.70236 0.40718 0.36003 0.0
C225 C 0.69931 0.07753 0.32201 0.0
C226 C 0.7165 0.05885 0.35261 0.0
C227 C 0.68797 0.98436 0.36536 0.0
C228 C 0.64112 0.92706 0.34781 0.0
C229 C 0.62736 0.94448 0.31682 0.0
C230 C 0.6555 0.01878 0.3042 0.0
C231 C 0.7221 0.16007 0.30904 0.0
C232 C 0.69779 0.23262 0.3251 0.0
C233 C 0.76164 0.16721 0.28001 0.0
C234 C 0.79963 0.09352 0.26415 0.0
C235 C 0.85304 0.04251 0.28037 0.0
C236 C 0.88461 0.97017 0.267 0.0
C237 C 0.86508 0.94667 0.2367 0.0
C238 C 0.81509 0.99986 0.21972 0.0
C239 C 0.78256 0.07269 0.23337 0.0
H240 H 0.63335 0.8828 0.73828 0.0
H241 H 0.5716 0.01169 0.72113 0.0
H242 H 0.78687 0.14911 0.75179 0.0
H243 H 0.85218 0.01929 0.76675 0.0
H244 H 0.75622 0.7922 0.72521 0.0
H245 H 0.70188 0.9748 0.82016 0.0
H246 H 0.73415 0.08233 0.85915 0.0
H247 H 0.98706 0.99778 0.86179 0.0
H248 H 0.95673 0.89584 0.82175 0.0
H249 H 0.96334 0.67792 0.82035 0.0
H250 H 0.98313 0.58243 0.86166 0.0
H251 H 0.74339 0.4712 0.84361 0.0
H252 H 0.71885 0.57578 0.80438 0.0
H253 H 0.84324 0.77843 0.83301 0.0
H254 H 0.89256 0.56664 0.7569 0.0
H255 H 0.84396 0.42966 0.73884 0.0
H256 H 0.62983 0.54316 0.69962 0.0
H257 H 0.67115 0.67654 0.72076 0.0
C258 C 0.7472 0.94086 0.75432 0.0
C259 C 0.66835 0.94018 0.74083 0.0
C260 C 0.63262 0.01382 0.73131 0.0
C261 C 0.67411 0.08983 0.73576 0.0
C262 C 0.75322 0.09106 0.7488 0.0
C263 C 0.7903 0.01691 0.75739 0.0
C264 C 0.78056 0.86248 0.76663 0.0
C265 C 0.7762 0.78846 0.74872 0.0
C266 C 0.8097 0.85788 0.79691 0.0
C267 C 0.82742 0.92911 0.81754 0.0
C268 C 0.76438 0.98067 0.82883 0.0
C269 C 0.78224 0.04008 0.8516 0.0
C270 C 0.86227 0.04589 0.86408 0.0
C271 C 0.92429 0.99266 0.85329 0.0
C272 C 0.90742 0.93592 0.82991 0.0
C273 C 0.84003 0.63315 0.80906 0.0
C274 C 0.91508 0.63255 0.82507 0.0
C275 C 0.92572 0.57905 0.84907 0.0
C276 C 0.86431 0.52042 0.85609 0.0
C277 C 0.79089 0.5173 0.83894 0.0
C278 C 0.7779 0.5749 0.81597 0.0
C279 C 0.82099 0.70802 0.79182 0.0
C280 C 0.82618 0.78116 0.80904 0.0
C281 C 0.79652 0.71016 0.76081 0.0
C282 C 0.78335 0.6324 0.74198 0.0
C283 C 0.83497 0.56244 0.74444 0.0
C284 C 0.80884 0.48423 0.73325 0.0
C285 C 0.73331 0.47613 0.71784 0.0
C286 C 0.68884 0.54802 0.71124 0.0
C287 C 0.71261 0.62486 0.72356 0.0
H288 H 0.39126 0.44112 0.98113 0.0
H289 H 0.26323 0.43215 0.95295 0.0
H290 H 0.1499 0.60489 1.01628 0.0
H291 H 0.28349 0.62496 0.04201 0.0
H292 H 0.506 0.51822 0.99734 0.0
H293 H 0.26434 0.43197 0.05806 0.0
H294 H 0.13071 0.46578 0.08235 0.0
H295 H 0.25659 0.62755 0.14673 0.0
H296 H 0.38625 0.60461 0.12004 0.0
H297 H 0.58938 0.61207 0.11864 0.0
H298 H 0.71695 0.64789 0.14499 0.0
H299 H 0.84452 0.45406 0.09519 0.0
H300 H 0.71302 0.40984 0.07168 0.0
H301 H 0.48451 0.4995 0.10981 0.0
H302 H 0.71853 0.59611 0.0406 0.0
H303 H 0.85305 0.5558 1.01829 0.0
H304 H 0.73736 0.34237 0.97498 0.0
H305 H 0.60488 0.37898 0.99895 0.0
C306 C 0.347 0.53021 1.01515 0.0
C307 C 0.34123 0.4816 0.98817 0.0
C308 C 0.26758 0.47726 0.97157 0.0
C309 C 0.19594 0.51727 0.98239 0.0
C310 C 0.20406 0.57391 1.00704 0.0
C311 C 0.27999 0.58279 1.02252 0.0
C312 C 0.42091 0.5208 1.03575 0.0
C313 C 0.50013 0.51429 1.02196 0.0
C314 C 0.41505 0.51324 0.06823 0.0
C315 C 0.33555 0.51877 0.08604 0.0
C316 C 0.26321 0.4751 0.0773 0.0
C317 C 0.18709 0.49264 0.09167 0.0
C318 C 0.18339 0.54882 0.11659 0.0
C319 C 0.25737 0.58354 0.12776 0.0
C320 C 0.33199 0.57045 0.11229 0.0
C321 C 0.64165 0.51054 0.09183 0.0
C322 C 0.64336 0.57406 0.11432 0.0
C323 C 0.71668 0.59474 0.12951 0.0
C324 C 0.79076 0.55445 0.12186 0.0
C325 C 0.78803 0.48587 0.10161 0.0
C326 C 0.71313 0.4619 0.08765 0.0
C327 C 0.56742 0.50296 0.07145 0.0
C328 C 0.4885 0.50446 0.08516 0.0
C329 C 0.57286 0.50431 0.03907 0.0
C330 C 0.6519 0.48941 1.02212 0.0
C331 C 0.72212 0.54071 1.02629 0.0
C332 C 0.7988 0.51771 1.01361 0.0
C333 C 0.80522 0.44573 0.99519 0.0
C334 C 0.73383 0.39807 0.98915 0.0
C335 C 0.65813 0.41921 1.00274 0.0
H336 H 0.88015 0.4949 0.47833 0.0
H337 H 0.74495 0.52768 0.45534 0.0
H338 H 0.65932 0.61837 0.54325 0.0
H339 H 0.79492 0.59814 0.56442 0.0
H340 H 1.00128 0.5901 0.50405 0.0
H341 H 0.82168 0.37662 0.54068 0.0
H342 H 0.68547 0.33754 0.55947 0.0
H343 H 0.73366 0.46904 0.64456 0.0
H344 H 0.86901 0.51393 0.62429 0.0
H345 H 0.13252 0.51873 0.62845 0.0
H346 H 0.25929 0.46552 0.65184 0.0
H347 H 0.34599 0.38642 0.56252 0.0
H348 H 0.21878 0.4327 0.54002 0.0
H349 H 0.01223 0.44045 0.60213 0.0
H350 H 0.19964 0.65026 0.56571 0.0
H351 H 0.32865 0.70131 0.54286 0.0
H352 H 0.26406 0.57967 0.45743 0.0
H353 H 0.13598 0.52767 0.48059 0.0
C354 C 0.84837 0.54335 0.52337 0.0
C355 C 0.83204 0.52214 0.49253 0.0
C356 C 0.75385 0.53815 0.47961 0.0
C357 C 0.69027 0.57359 0.49759 0.0
C358 C 0.70606 0.58963 0.52876 0.0
C359 C 0.78439 0.57859 0.54096 0.0
C360 C 0.9299 0.52594 0.53824 0.0
C361 C 1.00415 0.55642 0.52524 0.0
C362 C 0.93307 0.4844 0.56662 0.0
C363 C 0.85597 0.44899 0.58084 0.0
C364 C 0.80299 0.39788 0.5633 0.0
C365 C 0.72415 0.37639 0.57405 0.0
C366 C 0.6972 0.40103 0.60352 0.0
C367 C 0.75138 0.44997 0.62161 0.0
C368 C 0.82975 0.47405 0.61031 0.0
C369 C 0.16556 0.48095 0.58221 0.0
C370 C 0.1794 0.49066 0.6139 0.0
C371 C 0.25265 0.46149 0.62726 0.0
C372 C 0.3137 0.42229 0.60916 0.0
C373 C 0.30104 0.41666 0.57735 0.0
C374 C 0.2278 0.44381 0.56424 0.0
C375 C 0.08481 0.50406 0.56786 0.0
C376 C 0.01012 0.47466 0.58104 0.0
C377 C 0.08155 0.54727 0.53972 0.0
C378 C 0.15783 0.5839 0.52512 0.0
C379 C 0.21323 0.63427 0.54207 0.0
C380 C 0.28731 0.66357 0.52892 0.0
C381 C 0.30787 0.64406 0.49829 0.0
C382 C 0.25103 0.59581 0.48109 0.0
C383 C 0.17714 0.56627 0.49431 0.0
Fe384 Fe 1.00459 0.72457 0.24479 0.0
O385 O 1.00283 0.69406 0.20116 0.0
Fe386 Fe 0.8995 0.72931 0.17543 0.0
Fe387 Fe 0.09366 0.72327 0.17199 0.0
O388 O 0.9942 0.69395 0.20123 0.0
O389 O 0.99049 0.76356 0.14642 0.0
O390 O 1.0001 0.76164 0.14607 0.0
Fe391 Fe 0.99073 0.72896 0.10251 0.0
C392 C 0.1116 0.86449 0.21866 0.0
O393 O 0.09832 0.64209 0.24449 0.0
O394 O 0.17967 0.67258 0.20274 0.0
O395 O 0.89482 0.64512 0.10653 0.0
O396 O 0.89168 0.6126 0.15532 0.0
O397 O 0.81992 0.67594 0.20965 0.0
O398 O 0.91284 0.64026 0.24721 0.0
O399 O 0.08875 0.60581 0.15269 0.0
O400 O 0.07736 0.6367 0.10396 0.0
C401 C 0.84243 0.63297 0.23351 0.0
O402 O 0.90055 0.81545 0.10229 0.0
O403 O 0.8158 0.77851 0.14306 0.0
O404 O 0.09182 0.8171 0.24048 0.0
O405 O 0.10531 0.84174 0.19076 0.0
C406 C 0.16421 0.63304 0.22798 0.0
C407 C 0.10535 0.59098 0.1247 0.0
C408 C 0.16151 0.8018 0.1126 0.0
O409 O 0.1752 0.76272 0.13782 0.0
O410 O 0.09103 0.80653 0.09882 0.0
C411 C 0.86924 0.59926 0.1279 0.0
O412 O 0.89866 0.84763 0.19613 0.0
O413 O 0.9135 0.81168 0.24447 0.0
C414 C 0.83187 0.81837 0.1177 0.0
C415 C 0.89437 0.86461 0.22471 0.0
Fe416 Fe 0.53839 0.79243 0.49305 0.0
O417 O 0.55066 0.76287 0.44882 0.0
Fe418 Fe 0.50164 0.85284 0.41942 0.0
Fe419 Fe 0.50559 0.65835 0.42864 0.0
O420 O 0.54921 0.77257 0.4486 0.0
O421 O 0.45142 0.75085 0.40103 0.0
O422 O 0.45185 0.74122 0.4015 0.0
Fe423 Fe 0.44856 0.73273 0.35696 0.0
C424 C 0.6215 0.62082 0.48392 0.0
O425 O 0.44082 0.71083 0.50128 0.0
O426 O 0.40061 0.66004 0.45601 0.0
O427 O 0.36411 0.82483 0.35979 0.0
O428 O 0.44001 0.9231 0.38658 0.0
O429 O 0.39685 0.86517 0.44564 0.0
O430 O 0.45427 0.88843 0.49056 0.0
O431 O 0.44816 0.56273 0.4022 0.0
O432 O 0.37054 0.63732 0.36837 0.0
C433 C 0.39326 0.89344 0.47267 0.0
O434 O 0.53493 0.82489 0.34754 0.0
O435 O 0.60319 0.84476 0.39085 0.0
O436 O 0.61654 0.69475 0.49572 0.0
O437 O 0.57563 0.59121 0.46142 0.0
C438 C 0.38778 0.67356 0.48438 0.0
C439 C 0.3956 0.5684 0.37968 0.0
C440 C 0.59749 0.61929 0.37102 0.0
O441 O 0.60706 0.64201 0.3991 0.0
O442 O 0.53908 0.64735 0.35512 0.0
C443 C 0.38227 0.90045 0.36736 0.0
O444 O 0.56957 0.94815 0.44291 0.0
O445 O 0.62671 0.87901 0.4834 0.0
C446 C 0.59537 0.85702 0.36234 0.0
C447 C 0.62606 0.93842 0.46388 0.0
Fe448 Fe 0.53406 0.31448 0.74583 0.0
O449 O 0.52011 0.32346 0.70128 0.0
Fe450 Fe 0.40991 0.27943 0.67993 0.0
Fe451 Fe 0.60335 0.27379 0.67269 0.0
O452 O 0.51115 0.32476 0.7014 0.0
O453 O 0.49483 0.22285 0.65329 0.0
O454 O 0.504 0.2232 0.65279 0.0
Fe455 Fe 0.49194 0.21957 0.60846 0.0
C456 C 0.6851 0.39825 0.71836 0.0
O457 O 0.62848 0.22807 0.74387 0.0
O458 O 0.61049 0.16965 0.69842 0.0
O459 O 0.39484 0.14126 0.61777 0.0
O460 O 0.31815 0.21936 0.65258 0.0
O461 O 0.40579 0.17584 0.70726 0.0
O462 O 0.44964 0.21902 0.75307 0.0
O463 O 0.67741 0.21174 0.64066 0.0
O464 O 0.58589 0.13507 0.61136 0.0
C465 C 0.41432 0.16515 0.7358 0.0
O466 O 0.40497 0.31062 0.60618 0.0
O467 O 0.40206 0.37996 0.65076 0.0
O468 O 0.62327 0.40099 0.7373 0.0
O469 O 0.69631 0.34071 0.69731 0.0
C470 C 0.63567 0.16671 0.72557 0.0
C471 C 0.66002 0.15494 0.6201 0.0
C472 C 0.61907 0.36435 0.61624 0.0
O473 O 0.60133 0.37452 0.64447 0.0
O474 O 0.5856 0.30549 0.60071 0.0
C475 C 0.32609 0.16145 0.6313 0.0
O476 O 0.33902 0.35295 0.71219 0.0
O477 O 0.43763 0.3947 0.74772 0.0
C478 C 0.38104 0.37181 0.62264 0.0
C479 C 0.36567 0.39996 0.73512 0.0
Fe480 Fe 0.03164 0.3127 1.0008 0.0
O481 O 0.04652 0.29741 0.9558 0.0
Fe482 Fe 0.9992 0.39377 0.92904 0.0
Fe483 Fe 1.0016 0.19912 0.93185 0.0
O484 O 0.04591 0.30665 0.95579 0.0
O485 O 0.9495 0.29615 0.90687 0.0
O486 O 0.94982 0.28712 0.90693 0.0
Fe487 Fe 0.94797 0.28503 0.86238 0.0
C488 C 0.11524 0.14543 0.98553 0.0
O489 O 0.93639 0.22657 1.0052 0.0
O490 O 0.89533 0.19569 0.95799 0.0
O491 O 0.86506 0.38008 0.86742 0.0
O492 O 0.93993 0.47079 0.89807 0.0
O493 O 0.89271 0.39929 0.95501 0.0
O494 O 0.94515 0.40698 1.00143 0.0
O495 O 0.94362 0.10993 0.90319 0.0
O496 O 0.86736 0.18854 0.87013 0.0
C497 C 0.88604 0.41787 0.98308 0.0
O498 O 0.03549 0.37693 0.85617 0.0
O499 O 0.10149 0.39517 0.90026 0.0
O500 O 0.11177 0.21583 1.00015 0.0
O501 O 0.06852 0.12298 0.96232 0.0
C502 C 0.88278 0.19748 0.98662 0.0
C503 C 0.88727 0.11879 0.8822 0.0
C504 C 0.09772 0.17043 0.87456 0.0
O505 O 0.10443 0.19119 0.9029 0.0
O506 O 0.03809 0.19607 0.85842 0.0
C507 C 0.88512 0.45402 0.87698 0.0
O508 O 0.06642 0.48264 0.95657 0.0
O509 O 0.11788 0.40382 0.9958 0.0
C510 C 0.09333 0.41066 0.87186 0.0
C511 C 0.11852 0.46872 0.97883 0.0
loop_
_geom_bond_atom_site_label_1
_geom_bond_atom_site_label_2
_geom_bond_distance
_geom_bond_site_symmetry_2
_ccdc_geom_bond_type
H0 C19 0.949 . S
H1 C20 0.950 . S
H2 C22 0.950 1_545 S
H3 C23 0.950 . S
H4 C25 0.950 . S
H5 C28 0.950 1_565 S
H6 C29 0.950 . S
H7 C31 0.951 . S
H8 C32 0.949 . S
H9 C34 0.949 . S
H10 C35 0.950 . S
H11 C37 0.950 . S
H12 C38 0.950 1_565 S
H13 C40 0.950 . S
H14 C43 0.950 . S
H15 C44 0.950 1_545 S
H16 C46 0.951 . S
H17 C47 0.949 . S
C18 C19 1.376 . S
C18 C23 1.386 1_565 S
C18 C24 1.483 . S
C19 H0 0.949 . S
C19 C18 1.376 . S
C19 C20 1.397 . S
C20 H1 0.950 . S
C20 C19 1.397 . S
C20 C21 1.391 . S
C21 C20 1.391 . S
C21 C22 1.405 . S
C22 H2 0.950 1_565 S
C22 C21 1.405 . S
C22 C23 1.367 1_565 S
C23 H3 0.950 . S
C23 C18 1.386 1_545 S
C23 C22 1.367 1_545 S
C24 C18 1.483 . S
C24 C25 1.382 . S
C24 C26 1.403 1_565 S
C25 H4 0.950 . S
C25 C24 1.382 . S
C25 C41 1.411 1_655 S
C26 C24 1.403 1_545 S
C26 C27 1.489 . S
C26 C40 1.411 1_655 S
C27 C26 1.489 . S
C27 C28 1.383 . S
C27 C32 1.382 . S
C28 H5 0.950 1_545 S
C28 C27 1.383 . S
C28 C29 1.395 . S
C29 H6 0.950 . S
C29 C28 1.395 . S
C29 C30 1.288 . S
C30 C29 1.288 . S
C30 C31 1.392 . S
C31 H7 0.951 . S
C31 C30 1.392 . S
C31 C32 1.392 . S
C32 H8 0.949 . S
C32 C27 1.382 . S
C32 C31 1.392 . S
C33 C34 1.376 . S
C33 C38 1.386 . S
C33 C39 1.483 . S
C34 H9 0.949 . S
C34 C33 1.376 . S
C34 C35 1.397 . S
C35 H10 0.950 . S
C35 C34 1.397 . S
C35 C36 1.391 . S
C36 C35 1.391 . S
C36 C37 1.405 . S
C37 H11 0.950 . S
C37 C36 1.405 . S
C37 C38 1.367 . S
C38 H12 0.950 1_545 S
C38 C33 1.386 . S
C38 C37 1.367 . S
C39 C33 1.483 . S
C39 C40 1.382 . S
C39 C41 1.403 1_545 S
C40 H13 0.950 . S
C40 C26 1.411 1_455 S
C40 C39 1.382 . S
C41 C25 1.411 1_455 S
C41 C39 1.403 1_565 S
C41 C42 1.489 . S
C42 C41 1.489 . S
C42 C43 1.383 1_565 S
C42 C47 1.382 . S
C43 H14 0.950 . S
C43 C42 1.383 1_545 S
C43 C44 1.395 1_545 S
C44 H15 0.950 1_565 S
C44 C43 1.395 1_565 S
C44 C45 1.288 . S
C45 C44 1.288 . S
C45 C46 1.392 . S
C46 H16 0.951 . S
C46 C45 1.392 . S
C46 C47 1.392 . S
C47 H17 0.949 . S
C47 C42 1.382 . S
C47 C46 1.392 . S
H48 C67 0.949 . S
H49 C68 0.950 1_545 S
H50 C70 0.950 . S
H51 C71 0.950 . S
H52 C73 0.950 . S
H53 C76 0.950 . S
H54 C77 0.950 . S
H55 C79 0.951 . S
H56 C80 0.949 . S
H57 C82 0.949 . S
H58 C83 0.950 . S
H59 C85 0.950 . S
H60 C86 0.950 . S
H61 C88 0.950 . S
H62 C91 0.950 . S
H63 C92 0.950 . S
H64 C94 0.951 . S
H65 C95 0.949 . S
C66 C67 1.376 . S
C66 C71 1.386 . S
C66 C72 1.483 . S
C67 H48 0.949 . S
C67 C66 1.376 . S
C67 C68 1.397 . S
C68 H49 0.950 1_565 S
C68 C67 1.397 . S
C68 C69 1.391 1_565 S
C69 C68 1.391 1_545 S
C69 C70 1.405 . S
C70 H50 0.950 . S
C70 C69 1.405 . S
C70 C71 1.367 1_545 S
C71 H51 0.950 . S
C71 C66 1.386 . S
C71 C70 1.367 1_565 S
C72 C66 1.483 . S
C72 C73 1.382 . S
C72 C74 1.403 . S
C73 H52 0.950 . S
C73 C72 1.382 . S
C73 C89 1.411 . S
C74 C72 1.403 . S
C74 C75 1.489 . S
C74 C88 1.411 . S
C75 C74 1.489 . S
C75 C76 1.383 . S
C75 C80 1.382 . S
C76 H53 0.950 . S
C76 C75 1.383 . S
C76 C77 1.395 1_565 S
C77 H54 0.950 . S
C77 C76 1.395 1_545 S
C77 C78 1.288 . S
C78 C77 1.288 . S
C78 C79 1.392 1_545 S
C79 H55 0.951 . S
C79 C78 1.392 1_565 S
C79 C80 1.392 . S
C80 H56 0.949 . S
C80 C75 1.382 . S
C80 C79 1.392 . S
C81 C82 1.376 . S
C81 C86 1.386 . S
C81 C87 1.483 . S
C82 H57 0.949 . S
C82 C81 1.376 . S
C82 C83 1.397 . S
C83 H58 0.950 . S
C83 C82 1.397 . S
C83 C84 1.391 . S
C84 C83 1.391 . S
C84 C85 1.405 . S
C85 H59 0.950 . S
C85 C84 1.405 . S
C85 C86 1.367 . S
C86 H60 0.950 . S
C86 C81 1.386 . S
C86 C85 1.367 . S
C87 C81 1.483 . S
C87 C88 1.382 . S
C87 C89 1.403 . S
C88 H61 0.950 . S
C88 C74 1.411 . S
C88 C87 1.382 . S
C89 C73 1.411 . S
C89 C87 1.403 . S
C89 C90 1.489 . S
C90 C89 1.489 . S
C90 C91 1.383 . S
C90 C95 1.382 . S
C91 H62 0.950 . S
C91 C90 1.383 . S
C91 C92 1.395 . S
C92 H63 0.950 . S
C92 C91 1.395 . S
C92 C93 1.288 . S
C93 C92 1.288 . S
C93 C94 1.392 . S
C94 H64 0.951 . S
C94 C93 1.392 . S
C94 C95 1.392 . S
C95 H65 0.949 . S
C95 C90 1.382 . S
C95 C94 1.392 . S
H96 C115 0.949 1_545 S
H97 C116 0.950 . S
H98 C118 0.950 . S
H99 C119 0.950 . S
H100 C121 0.950 . S
H101 C124 0.950 1_554 S
H102 C125 0.950 . S
H103 C127 0.951 . S
H104 C128 0.949 . S
H105 C130 0.949 1_565 S
H106 C131 0.950 . S
H107 C133 0.950 . S
H108 C134 0.950 1_554 S
H109 C136 0.950 . S
H110 C139 0.950 . S
H111 C140 0.950 . S
H112 C142 0.951 . S
H113 C143 0.949 . S
C114 C115 1.376 . S
C114 C119 1.386 . S
C114 C120 1.483 . S
C115 H96 0.949 1_565 S
C115 C114 1.376 . S
C115 C116 1.397 . S
C116 H97 0.950 . S
C116 C115 1.397 . S
C116 C117 1.391 . S
C117 C116 1.391 . S
C117 C118 1.405 . S
C118 H98 0.950 . S
C118 C117 1.405 . S
C118 C119 1.367 . S
C119 H99 0.950 . S
C119 C114 1.386 . S
C119 C118 1.367 . S
C120 C114 1.483 . S
C120 C121 1.382 . S
C120 C122 1.403 1_564 S
C121 H100 0.950 . S
C121 C120 1.382 . S
C121 C137 1.411 . S
C122 C120 1.403 1_546 S
C122 C123 1.489 . S
C122 C136 1.411 . S
C123 C122 1.489 . S
C123 C124 1.383 . S
C123 C128 1.382 . S
C124 H101 0.950 1_556 S
C124 C123 1.383 . S
C124 C125 1.395 . S
C125 H102 0.950 . S
C125 C124 1.395 . S
C125 C126 1.288 . S
C126 C125 1.288 . S
C126 C127 1.392 . S
C127 H103 0.951 . S
C127 C126 1.392 . S
C127 C128 1.392 . S
C128 H104 0.949 . S
C128 C123 1.382 . S
C128 C127 1.392 . S
C129 C130 1.376 . S
C129 C134 1.386 . S
C129 C135 1.483 . S
C130 H105 0.949 1_545 S
C130 C129 1.376 . S
C130 C131 1.397 . S
C131 H106 0.950 . S
C131 C130 1.397 . S
C131 C132 1.391 . S
C132 C131 1.391 . S
C132 C133 1.405 . S
C133 H107 0.950 . S
C133 C132 1.405 . S
C133 C134 1.367 . S
C134 H108 0.950 1_556 S
C134 C129 1.386 . S
C134 C133 1.367 . S
C135 C129 1.483 . S
C135 C136 1.382 . S
C135 C137 1.403 1_546 S
C136 H109 0.950 . S
C136 C122 1.411 . S
C136 C135 1.382 . S
C137 C121 1.411 . S
C137 C135 1.403 1_564 S
C137 C138 1.489 . S
C138 C137 1.489 . S
C138 C139 1.383 . S
C138 C143 1.382 . S
C139 H110 0.950 . S
C139 C138 1.383 . S
C139 C140 1.395 . S
C140 H111 0.950 . S
C140 C139 1.395 . S
C140 C141 1.288 . S
C141 C140 1.288 . S
C141 C142 1.392 . S
C142 H112 0.951 . S
C142 C141 1.392 . S
C142 C143 1.392 . S
C143 H113 0.949 . S
C143 C138 1.382 . S
C143 C142 1.392 . S
H144 C163 0.949 . S
H145 C164 0.950 . S
H146 C166 0.950 . S
H147 C167 0.950 . S
H148 C169 0.950 . S
H149 C172 0.950 . S
H150 C173 0.950 . S
H151 C175 0.951 . S
H152 C176 0.949 . S
H153 C178 0.949 . S
H154 C179 0.950 . S
H155 C181 0.950 . S
H156 C182 0.950 . S
H157 C184 0.950 . S
H158 C187 0.950 . S
H159 C188 0.950 . S
H160 C190 0.951 . S
H161 C191 0.949 . S
C162 C163 1.376 . S
C162 C167 1.386 . S
C162 C168 1.483 . S
C163 H144 0.949 . S
C163 C162 1.376 . S
C163 C164 1.397 . S
C164 H145 0.950 . S
C164 C163 1.397 . S
C164 C165 1.391 1_545 S
C165 C164 1.391 1_565 S
C165 C166 1.405 . S
C166 H146 0.950 . S
C166 C165 1.405 . S
C166 C167 1.367 1_565 S
C167 H147 0.950 . S
C167 C162 1.386 . S
C167 C166 1.367 1_545 S
C168 C162 1.483 . S
C168 C169 1.382 . S
C168 C170 1.403 . S
C169 H148 0.950 . S
C169 C168 1.382 . S
C169 C185 1.411 . S
C170 C168 1.403 . S
C170 C171 1.489 . S
C170 C184 1.411 . S
C171 C170 1.489 . S
C171 C172 1.383 . S
C171 C176 1.382 . S
C172 H149 0.950 . S
C172 C171 1.383 . S
C172 C173 1.395 1_545 S
C173 H150 0.950 . S
C173 C172 1.395 1_565 S
C173 C174 1.288 . S
C174 C173 1.288 . S
C174 C175 1.392 1_565 S
C175 H151 0.951 . S
C175 C174 1.392 1_545 S
C175 C176 1.392 . S
C176 H152 0.949 . S
C176 C171 1.382 . S
C176 C175 1.392 . S
C177 C178 1.376 . S
C177 C182 1.386 . S
C177 C183 1.483 . S
C178 H153 0.949 . S
C178 C177 1.376 . S
C178 C179 1.397 . S
C179 H154 0.950 . S
C179 C178 1.397 . S
C179 C180 1.391 . S
C180 C179 1.391 . S
C180 C181 1.405 . S
C181 H155 0.950 . S
C181 C180 1.405 . S
C181 C182 1.367 . S
C182 H156 0.950 . S
C182 C177 1.386 . S
C182 C181 1.367 . S
C183 C177 1.483 . S
C183 C184 1.382 . S
C183 C185 1.403 . S
C184 H157 0.950 . S
C184 C170 1.411 . S
C184 C183 1.382 . S
C185 C169 1.411 . S
C185 C183 1.403 . S
C185 C186 1.489 . S
C186 C185 1.489 . S
C186 C187 1.383 . S
C186 C191 1.382 . S
C187 H158 0.950 . S
C187 C186 1.383 . S
C187 C188 1.395 . S
C188 H159 0.950 . S
C188 C187 1.395 . S
C188 C189 1.288 . S
C189 C188 1.288 . S
C189 C190 1.392 . S
C190 H160 0.951 . S
C190 C189 1.392 . S
C190 C191 1.392 . S
C191 H161 0.949 . S
C191 C186 1.382 . S
C191 C190 1.392 . S
H192 C211 0.949 . S
H193 C212 0.950 . S
H194 C214 0.950 . S
H195 C215 0.950 . S
H196 C217 0.950 . S
H197 C220 0.950 . S
H198 C221 0.950 . S
H199 C223 0.951 . S
H200 C224 0.949 . S
H201 C226 0.949 . S
H202 C227 0.950 . S
H203 C229 0.950 . S
H204 C230 0.950 . S
H205 C232 0.950 . S
H206 C235 0.950 . S
H207 C236 0.950 . S
H208 C238 0.951 . S
H209 C239 0.949 . S
C210 C211 1.376 . S
C210 C215 1.386 . S
C210 C216 1.483 . S
C211 H192 0.949 . S
C211 C210 1.376 . S
C211 C212 1.397 . S
C212 H193 0.950 . S
C212 C211 1.397 . S
C212 C213 1.391 . S
C213 C212 1.391 . S
C213 C214 1.405 . S
C214 H194 0.950 . S
C214 C213 1.405 . S
C214 C215 1.367 . S
C215 H195 0.950 . S
C215 C210 1.386 . S
C215 C214 1.367 . S
C216 C210 1.483 . S
C216 C217 1.382 . S
C216 C218 1.403 . S
C217 H196 0.950 . S
C217 C216 1.382 . S
C217 C233 1.411 . S
C218 C216 1.403 . S
C218 C219 1.489 . S
C218 C232 1.411 . S
C219 C218 1.489 . S
C219 C220 1.383 . S
C219 C224 1.382 . S
C220 H197 0.950 . S
C220 C219 1.383 . S
C220 C221 1.395 . S
C221 H198 0.950 . S
C221 C220 1.395 . S
C221 C222 1.288 . S
C222 C221 1.288 . S
C222 C223 1.392 . S
C223 H199 0.951 . S
C223 C222 1.392 . S
C223 C224 1.392 . S
C224 H200 0.949 . S
C224 C219 1.382 . S
C224 C223 1.392 . S
C225 C226 1.376 . S
C225 C230 1.386 . S
C225 C231 1.483 . S
C226 H201 0.949 . S
C226 C225 1.376 . S
C226 C227 1.397 . S
C227 H202 0.950 . S
C227 C226 1.397 . S
C227 C228 1.391 1_545 S
C228 C227 1.391 1_565 S
C228 C229 1.405 . S
C229 H203 0.950 . S
C229 C228 1.405 . S
C229 C230 1.367 1_565 S
C230 H204 0.950 . S
C230 C225 1.386 . S
C230 C229 1.367 1_545 S
C231 C225 1.483 . S
C231 C232 1.382 . S
C231 C233 1.403 . S
C232 H205 0.950 . S
C232 C218 1.411 . S
C232 C231 1.382 . S
C233 C217 1.411 . S
C233 C231 1.403 . S
C233 C234 1.489 . S
C234 C233 1.489 . S
C234 C235 1.383 . S
C234 C239 1.382 . S
C235 H206 0.950 . S
C235 C234 1.383 . S
C235 C236 1.395 1_545 S
C236 H207 0.950 . S
C236 C235 1.395 1_565 S
C236 C237 1.288 . S
C237 C236 1.288 . S
C237 C238 1.392 1_565 S
C238 H208 0.951 . S
C238 C237 1.392 1_545 S
C238 C239 1.392 . S
C239 H209 0.949 . S
C239 C234 1.382 . S
C239 C238 1.392 . S
H240 C259 0.949 . S
H241 C260 0.950 1_545 S
H242 C262 0.950 . S
H243 C263 0.950 . S
H244 C265 0.950 . S
H245 C268 0.950 . S
H246 C269 0.950 . S
H247 C271 0.951 . S
H248 C272 0.949 . S
H249 C274 0.949 . S
H250 C275 0.950 . S
H251 C277 0.950 . S
H252 C278 0.950 . S
H253 C280 0.950 . S
H254 C283 0.950 . S
H255 C284 0.950 . S
H256 C286 0.951 . S
H257 C287 0.949 . S
C258 C259 1.376 . S
C258 C263 1.386 . S
C258 C264 1.483 . S
C259 H240 0.949 . S
C259 C258 1.376 . S
C259 C260 1.397 . S
C260 H241 0.950 1_565 S
C260 C259 1.397 . S
C260 C261 1.391 1_565 S
C261 C260 1.391 1_545 S
C261 C262 1.405 . S
C262 H242 0.950 . S
C262 C261 1.405 . S
C262 C263 1.367 1_545 S
C263 H243 0.950 . S
C263 C258 1.386 . S
C263 C262 1.367 1_565 S
C264 C258 1.483 . S
C264 C265 1.382 . S
C264 C266 1.403 . S
C265 H244 0.950 . S
C265 C264 1.382 . S
C265 C281 1.411 . S
C266 C264 1.403 . S
C266 C267 1.489 . S
C266 C280 1.411 . S
C267 C266 1.489 . S
C267 C268 1.383 . S
C267 C272 1.382 . S
C268 H245 0.950 . S
C268 C267 1.383 . S
C268 C269 1.395 1_565 S
C269 H246 0.950 . S
C269 C268 1.395 1_545 S
C269 C270 1.288 . S
C270 C269 1.288 . S
C270 C271 1.392 1_545 S
C271 H247 0.951 . S
C271 C270 1.392 1_565 S
C271 C272 1.392 . S
C272 H248 0.949 . S
C272 C267 1.382 . S
C272 C271 1.392 . S
C273 C274 1.376 . S
C273 C278 1.386 . S
C273 C279 1.483 . S
C274 H249 0.949 . S
C274 C273 1.376 . S
C274 C275 1.397 . S
C275 H250 0.950 . S
C275 C274 1.397 . S
C275 C276 1.391 . S
C276 C275 1.391 . S
C276 C277 1.405 . S
C277 H251 0.950 . S
C277 C276 1.405 . S
C277 C278 1.367 . S
C278 H252 0.950 . S
C278 C273 1.386 . S
C278 C277 1.367 . S
C279 C273 1.483 . S
C279 C280 1.382 . S
C279 C281 1.403 . S
C280 H253 0.950 . S
C280 C266 1.411 . S
C280 C279 1.382 . S
C281 C265 1.411 . S
C281 C279 1.403 . S
C281 C282 1.489 . S
C282 C281 1.489 . S
C282 C283 1.383 . S
C282 C287 1.382 . S
C283 H254 0.950 . S
C283 C282 1.383 . S
C283 C284 1.395 . S
C284 H255 0.950 . S
C284 C283 1.395 . S
C284 C285 1.288 . S
C285 C284 1.288 . S
C285 C286 1.392 . S
C286 H256 0.951 . S
C286 C285 1.392 . S
C286 C287 1.392 . S
C287 H257 0.949 . S
C287 C282 1.382 . S
C287 C286 1.392 . S
H288 C307 0.949 . S
H289 C308 0.950 . S
H290 C310 0.950 . S
H291 C311 0.950 . S
H292 C313 0.950 . S
H293 C316 0.950 . S
H294 C317 0.950 . S
H295 C319 0.951 . S
H296 C320 0.949 . S
H297 C322 0.949 . S
H298 C323 0.950 . S
H299 C325 0.950 . S
H300 C326 0.950 . S
H301 C328 0.950 . S
H302 C331 0.950 . S
H303 C332 0.950 . S
H304 C334 0.951 . S
H305 C335 0.949 . S
C306 C307 1.376 . S
C306 C311 1.386 . S
C306 C312 1.496 . S
C307 H288 0.949 . S
C307 C306 1.376 . S
C307 C308 1.397 . S
C308 H289 0.950 . S
C308 C307 1.397 . S
C308 C309 1.391 . S
C309 C308 1.391 . S
C309 C310 1.405 . S
C310 H290 0.950 . S
C310 C309 1.405 . S
C310 C311 1.367 . S
C311 H291 0.950 . S
C311 C306 1.386 . S
C311 C310 1.367 . S
C312 C306 1.496 . S
C312 C313 1.392 . S
C312 C314 1.381 1_556 S
C313 H292 0.950 . S
C313 C312 1.392 . S
C313 C329 1.411 . S
C314 C312 1.381 1_554 S
C314 C315 1.489 . S
C314 C328 1.411 . S
C315 C314 1.489 . S
C315 C316 1.383 . S
C315 C320 1.382 . S
C316 H293 0.950 . S
C316 C315 1.383 . S
C316 C317 1.395 . S
C317 H294 0.950 . S
C317 C316 1.395 . S
C317 C318 1.288 . S
C318 C317 1.288 . S
C318 C319 1.392 . S
C319 H295 0.951 . S
C319 C318 1.392 . S
C319 C320 1.392 . S
C320 H296 0.949 . S
C320 C315 1.382 . S
C320 C319 1.392 . S
C321 C322 1.376 . S
C321 C326 1.386 . S
C321 C327 1.483 . S
C322 H297 0.949 . S
C322 C321 1.376 . S
C322 C323 1.397 . S
C323 H298 0.950 . S
C323 C322 1.397 . S
C323 C324 1.391 . S
C324 C323 1.391 . S
C324 C325 1.405 . S
C325 H299 0.950 . S
C325 C324 1.405 . S
C325 C326 1.367 . S
C326 H300 0.950 . S
C326 C321 1.386 . S
C326 C325 1.367 . S
C327 C321 1.483 . S
C327 C328 1.382 . S
C327 C329 1.403 1_554 S
C328 H301 0.950 . S
C328 C314 1.411 . S
C328 C327 1.382 . S
C329 C313 1.411 . S
C329 C327 1.403 1_556 S
C329 C330 1.489 . S
C330 C329 1.489 . S
C330 C331 1.383 . S
C330 C335 1.382 . S
C331 H302 0.950 . S
C331 C330 1.383 . S
C331 C332 1.395 . S
C332 H303 0.950 . S
C332 C331 1.395 . S
C332 C333 1.288 . S
C333 C332 1.288 . S
C333 C334 1.392 . S
C334 H304 0.951 . S
C334 C333 1.392 . S
C334 C335 1.392 . S
C335 H305 0.949 . S
C335 C330 1.382 . S
C335 C334 1.392 . S
H336 C355 0.949 . S
H337 C356 0.950 . S
H338 C358 0.950 . S
H339 C359 0.950 . S
H340 C361 0.950 . S
H341 C364 0.950 . S
H342 C365 0.950 . S
H343 C367 0.951 . S
H344 C368 0.949 . S
H345 C370 0.949 . S
H346 C371 0.950 . S
H347 C373 0.950 . S
H348 C374 0.950 . S
H349 C376 0.950 . S
H350 C379 0.950 . S
H351 C380 0.950 . S
H352 C382 0.951 . S
H353 C383 0.949 . S
C354 C355 1.376 . S
C354 C359 1.386 . S
C354 C360 1.483 . S
C355 H336 0.949 . S
C355 C354 1.376 . S
C355 C356 1.397 . S
C356 H337 0.950 . S
C356 C355 1.397 . S
C356 C357 1.391 . S
C357 C356 1.391 . S
C357 C358 1.405 . S
C358 H338 0.950 . S
C358 C357 1.405 . S
C358 C359 1.367 . S
C359 H339 0.950 . S
C359 C354 1.386 . S
C359 C358 1.367 . S
C360 C354 1.483 . S
C360 C361 1.382 . S
C360 C362 1.403 . S
C361 H340 0.950 . S
C361 C360 1.382 . S
C361 C377 1.411 1_655 S
C362 C360 1.403 . S
C362 C363 1.489 . S
C362 C376 1.411 1_655 S
C363 C362 1.489 . S
C363 C364 1.383 . S
C363 C368 1.382 . S
C364 H341 0.950 . S
C364 C363 1.383 . S
C364 C365 1.395 . S
C365 H342 0.950 . S
C365 C364 1.395 . S
C365 C366 1.288 . S
C366 C365 1.288 . S
C366 C367 1.392 . S
C367 H343 0.951 . S
C367 C366 1.392 . S
C367 C368 1.392 . S
C368 H344 0.949 . S
C368 C363 1.382 . S
C368 C367 1.392 . S
C369 C370 1.376 . S
C369 C374 1.386 . S
C369 C375 1.483 . S
C370 H345 0.949 . S
C370 C369 1.376 . S
C370 C371 1.397 . S
C371 H346 0.950 . S
C371 C370 1.397 . S
C371 C372 1.391 . S
C372 C371 1.391 . S
C372 C373 1.405 . S
C373 H347 0.950 . S
C373 C372 1.405 . S
C373 C374 1.367 . S
C374 H348 0.950 . S
C374 C369 1.386 . S
C374 C373 1.367 . S
C375 C369 1.483 . S
C375 C376 1.382 . S
C375 C377 1.403 . S
C376 H349 0.950 . S
C376 C362 1.411 1_455 S
C376 C375 1.382 . S
C377 C361 1.411 1_455 S
C377 C375 1.403 . S
C377 C378 1.489 . S
C378 C377 1.489 . S
C378 C379 1.383 . S
C378 C383 1.382 . S
C379 H350 0.950 . S
C379 C378 1.383 . S
C379 C380 1.395 . S
C380 H351 0.950 . S
C380 C379 1.395 . S
C380 C381 1.288 . S
C381 C380 1.288 . S
C381 C382 1.392 . S
C382 H352 0.951 . S
C382 C381 1.392 . S
C382 C383 1.392 . S
C383 H353 0.949 . S
C383 C378 1.382 . S
C383 C382 1.392 . S
Fe384 O385 1.886 . S
Fe384 O388 1.715 1_455 S
Fe384 O393 2.077 . S
Fe384 O398 1.935 1_455 S
Fe384 O404 2.077 . S
Fe384 O413 1.935 1_455 S
O385 Fe384 1.886 . S
O385 Fe387 1.715 . S
Fe386 O388 1.886 . S
Fe386 O389 1.715 . S
Fe386 O396 1.935 . S
Fe386 O397 2.077 . S
Fe386 O403 1.935 . S
Fe386 O412 2.077 . S
Fe387 O385 1.715 . S
Fe387 O390 1.886 . S
Fe387 O394 1.935 . S
Fe387 O399 2.077 . S
Fe387 O405 1.935 . S
Fe387 O409 2.077 . S
O388 Fe384 1.715 1_655 S
O388 Fe386 1.886 . S
O389 Fe386 1.715 . S
O389 Fe391 1.886 . S
O390 Fe387 1.886 . S
O390 Fe391 1.715 1_455 S
Fe391 O389 1.886 . S
Fe391 O390 1.715 1_655 S
Fe391 O395 2.077 . S
Fe391 O400 1.935 1_655 S
Fe391 O402 2.077 . S
Fe391 O410 1.935 1_655 S
C392 O404 1.381 . S
C392 O405 1.421 . S
O393 Fe384 2.077 . S
O393 C406 1.381 . S
O394 Fe387 1.935 . S
O394 C406 1.421 . S
O395 Fe391 2.077 . S
O395 C411 1.381 . S
O396 Fe386 1.935 . S
O396 C411 1.421 . S
O397 Fe386 2.077 . S
O397 C401 1.381 . S
O398 Fe384 1.935 1_655 S
O398 C401 1.421 . S
O399 Fe387 2.077 . S
O399 C407 1.381 . S
O400 Fe391 1.935 1_455 S
O400 C407 1.421 . S
C401 O397 1.381 . S
C401 O398 1.421 . S
O402 Fe391 2.077 . S
O402 C414 1.381 . S
O403 Fe386 1.935 . S
O403 C414 1.421 . S
O404 Fe384 2.077 . S
O404 C392 1.381 . S
O405 Fe387 1.935 . S
O405 C392 1.421 . S
C406 O393 1.381 . S
C406 O394 1.421 . S
C407 O399 1.381 . S
C407 O400 1.421 . S
C408 O409 1.381 . S
C408 O410 1.421 . S
O409 Fe387 2.077 . S
O409 C408 1.381 . S
O410 Fe391 1.935 1_455 S
O410 C408 1.421 . S
C411 O395 1.381 . S
C411 O396 1.421 . S
O412 Fe386 2.077 . S
O412 C415 1.381 . S
O413 Fe384 1.935 1_655 S
O413 C415 1.421 . S
C414 O402 1.381 . S
C414 O403 1.421 . S
C415 O412 1.381 . S
C415 O413 1.421 . S
Fe416 O417 1.886 . S
Fe416 O420 1.715 . S
Fe416 O425 2.077 . S
Fe416 O430 1.935 . S
Fe416 O436 2.077 . S
Fe416 O445 1.935 . S
O417 Fe416 1.886 . S
O417 Fe419 1.715 . S
Fe418 O420 1.886 . S
Fe418 O421 1.715 . S
Fe418 O428 1.935 . S
Fe418 O429 2.077 . S
Fe418 O435 1.935 . S
Fe418 O444 2.077 . S
Fe419 O417 1.715 . S
Fe419 O422 1.886 . S
Fe419 O426 1.935 . S
Fe419 O431 2.077 . S
Fe419 O437 1.935 . S
Fe419 O441 2.077 . S
O420 Fe416 1.715 . S
O420 Fe418 1.886 . S
O421 Fe418 1.715 . S
O421 Fe423 1.886 . S
O422 Fe419 1.886 . S
O422 Fe423 1.715 . S
Fe423 O421 1.886 . S
Fe423 O422 1.715 . S
Fe423 O427 2.077 . S
Fe423 O432 1.935 . S
Fe423 O434 2.077 . S
Fe423 O442 1.935 . S
C424 O436 1.381 . S
C424 O437 1.421 . S
O425 Fe416 2.077 . S
O425 C438 1.381 . S
O426 Fe419 1.935 . S
O426 C438 1.421 . S
O427 Fe423 2.077 . S
O427 C443 1.381 . S
O428 Fe418 1.935 . S
O428 C443 1.421 . S
O429 Fe418 2.077 . S
O429 C433 1.381 . S
O430 Fe416 1.935 . S
O430 C433 1.421 . S
O431 Fe419 2.077 . S
O431 C439 1.381 . S
O432 Fe423 1.935 . S
O432 C439 1.421 . S
C433 O429 1.381 . S
C433 O430 1.421 . S
O434 Fe423 2.077 . S
O434 C446 1.381 . S
O435 Fe418 1.935 . S
O435 C446 1.421 . S
O436 Fe416 2.077 . S
O436 C424 1.381 . S
O437 Fe419 1.935 . S
O437 C424 1.421 . S
C438 O425 1.381 . S
C438 O426 1.421 . S
C439 O431 1.381 . S
C439 O432 1.421 . S
C440 O441 1.381 . S
C440 O442 1.421 . S
O441 Fe419 2.077 . S
O441 C440 1.381 . S
O442 Fe423 1.935 . S
O442 C440 1.421 . S
C443 O427 1.381 . S
C443 O428 1.421 . S
O444 Fe418 2.077 . S
O444 C447 1.381 . S
O445 Fe416 1.935 . S
O445 C447 1.421 . S
C446 O434 1.381 . S
C446 O435 1.421 . S
C447 O444 1.381 . S
C447 O445 1.421 . S
Fe448 O449 1.886 . S
Fe448 O452 1.715 . S
Fe448 O457 2.077 . S
Fe448 O462 1.935 . S
Fe448 O468 2.077 . S
Fe448 O477 1.935 . S
O449 Fe448 1.886 . S
O449 Fe451 1.715 . S
Fe450 O452 1.886 . S
Fe450 O453 1.715 . S
Fe450 O460 1.935 . S
Fe450 O461 2.077 . S
Fe450 O467 1.935 . S
Fe450 O476 2.077 . S
Fe451 O449 1.715 . S
Fe451 O454 1.886 . S
Fe451 O458 1.935 . S
Fe451 O463 2.077 . S
Fe451 O469 1.935 . S
Fe451 O473 2.077 . S
O452 Fe448 1.715 . S
O452 Fe450 1.886 . S
O453 Fe450 1.715 . S
O453 Fe455 1.886 . S
O454 Fe451 1.886 . S
O454 Fe455 1.715 . S
Fe455 O453 1.886 . S
Fe455 O454 1.715 . S
Fe455 O459 2.077 . S
Fe455 O464 1.935 . S
Fe455 O466 2.077 . S
Fe455 O474 1.935 . S
C456 O468 1.381 . S
C456 O469 1.421 . S
O457 Fe448 2.077 . S
O457 C470 1.381 . S
O458 Fe451 1.935 . S
O458 C470 1.421 . S
O459 Fe455 2.077 . S
O459 C475 1.381 . S
O460 Fe450 1.935 . S
O460 C475 1.421 . S
O461 Fe450 2.077 . S
O461 C465 1.381 . S
O462 Fe448 1.935 . S
O462 C465 1.421 . S
O463 Fe451 2.077 . S
O463 C471 1.381 . S
O464 Fe455 1.935 . S
O464 C471 1.421 . S
C465 O461 1.381 . S
C465 O462 1.421 . S
O466 Fe455 2.077 . S
O466 C478 1.381 . S
O467 Fe450 1.935 . S
O467 C478 1.421 . S
O468 Fe448 2.077 . S
O468 C456 1.381 . S
O469 Fe451 1.935 . S
O469 C456 1.421 . S
C470 O457 1.381 . S
C470 O458 1.421 . S
C471 O463 1.381 . S
C471 O464 1.421 . S
C472 O473 1.381 . S
C472 O474 1.421 . S
O473 Fe451 2.077 . S
O473 C472 1.381 . S
O474 Fe455 1.935 . S
O474 C472 1.421 . S
C475 O459 1.381 . S
C475 O460 1.421 . S
O476 Fe450 2.077 . S
O476 C479 1.381 . S
O477 Fe448 1.935 . S
O477 C479 1.421 . S
C478 O466 1.381 . S
C478 O467 1.421 . S
C479 O476 1.381 . S
C479 O477 1.421 . S
Fe480 O481 1.886 . S
Fe480 O484 1.715 . S
Fe480 O489 2.075 1_455 S
Fe480 O494 1.933 1_455 S
Fe480 O500 2.079 . S
Fe480 O509 1.938 . S
O481 Fe480 1.886 . S
O481 Fe483 1.715 . S
Fe482 O484 1.886 . S
Fe482 O485 1.715 . S
Fe482 O492 1.934 1_455 S
Fe482 O493 2.076 1_455 S
Fe482 O499 1.937 . S
Fe482 O508 2.078 . S
Fe483 O481 1.715 . S
Fe483 O486 1.886 . S
Fe483 O490 1.934 1_455 S
Fe483 O495 2.076 1_455 S
Fe483 O501 1.937 . S
Fe483 O505 2.078 . S
O484 Fe480 1.715 . S
O484 Fe482 1.886 . S
O485 Fe482 1.715 . S
O485 Fe487 1.886 . S
O486 Fe483 1.886 . S
O486 Fe487 1.715 . S
Fe487 O485 1.886 . S
Fe487 O486 1.715 . S
Fe487 O491 2.077 1_455 S
Fe487 O496 1.935 1_455 S
Fe487 O498 2.078 . S
Fe487 O506 1.936 . S
C488 O500 1.381 . S
C488 O501 1.421 . S
O489 Fe480 2.075 1_655 S
O489 C502 1.381 . S
O490 Fe483 1.934 1_655 S
O490 C502 1.421 . S
O491 Fe487 2.077 1_655 S
O491 C507 1.381 . S
O492 Fe482 1.934 1_655 S
O492 C507 1.421 . S
O493 Fe482 2.076 1_655 S
O493 C497 1.381 . S
O494 Fe480 1.933 1_655 S
O494 C497 1.421 . S
O495 Fe483 2.076 1_655 S
O495 C503 1.381 . S
O496 Fe487 1.935 1_655 S
O496 C503 1.421 . S
C497 O493 1.381 . S
C497 O494 1.421 . S
O498 Fe487 2.078 . S
O498 C510 1.381 . S
O499 Fe482 1.937 . S
O499 C510 1.421 . S
O500 Fe480 2.079 . S
O500 C488 1.381 . S
O501 Fe483 1.937 . S
O501 C488 1.421 . S
C502 O489 1.381 . S
C502 O490 1.421 . S
C503 O495 1.381 . S
C503 O496 1.421 . S
C504 O505 1.381 . S
C504 O506 1.421 . S
O505 Fe483 2.078 . S
O505 C504 1.381 . S
O506 Fe487 1.936 . S
O506 C504 1.421 . S
C507 O491 1.381 . S
C507 O492 1.421 . S
O508 Fe482 2.078 . S
O508 C511 1.381 . S
O509 Fe480 1.938 . S
O509 C511 1.421 . S
C510 O498 1.381 . S
C510 O499 1.421 . S
C511 O508 1.381 . S
C511 O509 1.421 . S
C433 C45 1.746 . S
C78 C465 1.682 . S
C126 C488 1.720 . S
C392 C174 1.725 . S
C475 C36 1.418 . S
C504 C69 1.407 . S
C408 C117 1.406 . S
C443 C165 1.396 . S
C30 C471 1.427 . S
C228 C446 1.396 . S
C141 C414 1.355 . S
C503 C270 1.420 . S
C447 C21 1.718 . S
C237 C415 1.687 . S
C132 C502 1.747 . S
C470 C261 1.775 . S
C333 C497 1.742 . S
C213 C401 1.697 . S
C357 C424 1.742 . S
C285 C456 1.798 . S
C411 C324 1.421 . S
C222 C440 1.376 . S
C366 C472 1.376 . S
C507 C276 1.421 . S
C318 C407 1.421 . S
C93 C510 1.356 . S
C372 C478 1.395 . S
C439 C189 1.377 . S
C511 C309 1.724 . S
C479 C84 1.701 . S
C438 C381 1.725 . S
C406 C180 1.742 . S
