# Generated by pormake.
# Topology zzz, (3,6)-cn, num edge types: 1
# Building blocks:
#     Node 0, Type 0, BuildingBlock: BETDIP_clean_linker_0, # of connection points: 3
#     Node 1, Type 0, BuildingBlock: BETDIP_clean_linker_0, # of connection points: 3
#     Node 2, Type 0, BuildingBlock: BETDIP_clean_linker_0, # of connection points: 3
#     Node 3, Type 0, BuildingBlock: BETDIP_clean_linker_0, # of connection points: 3
#     Node 4, Type 0, BuildingBlock: BETDIP_clean_linker_0, # of connection points: 3
#     Node 5, Type 0, BuildingBlock: BETDIP_clean_linker_0, # of connection points: 3
#     Node 6, Type 0, BuildingBlock: BETDIP_clean_linker_0, # of connection points: 3
#     Node 7, Type 0, BuildingBlock: BETDIP_clean_linker_0, # of connection points: 3
#     Node 8, Type 1, BuildingBlock: PAMTUU_clean_sbu_0, # of connection points: 6
#     Node 9, Type 1, BuildingBlock: PAMTUU_clean_sbu_0, # of connection points: 6
#     Node 10, Type 1, BuildingBlock: PAMTUU_clean_sbu_0, # of connection points: 6
#     Node 11, Type 1, BuildingBlock: PAMTUU_clean_sbu_0, # of connection points: 6
#     Edge 12, Type (0, 1), BuildingBlock: XIVTED_clean_linker_0, # of connection points: 2
#     Edge 13, Type (0, 1), BuildingBlock: XIVTED_clean_linker_0, # of connection points: 2
#     Edge 14, Type (0, 1), BuildingBlock: XIVTED_clean_linker_0, # of connection points: 2
#     Edge 15, Type (0, 1), BuildingBlock: XIVTED_clean_linker_0, # of connection points: 2
#     Edge 16, Type (0, 1), BuildingBlock: XIVTED_clean_linker_0, # of connection points: 2
#     Edge 17, Type (0, 1), BuildingBlock: XIVTED_clean_linker_0, # of connection points: 2
#     Edge 18, Type (0, 1), BuildingBlock: XIVTED_clean_linker_0, # of connection points: 2
#     Edge 19, Type (0, 1), BuildingBlock: XIVTED_clean_linker_0, # of connection points: 2
#     Edge 20, Type (0, 1), BuildingBlock: XIVTED_clean_linker_0, # of connection points: 2
#     Edge 21, Type (0, 1), BuildingBlock: XIVTED_clean_linker_0, # of connection points: 2
#     Edge 22, Type (0, 1), BuildingBlock: XIVTED_clean_linker_0, # of connection points: 2
#     Edge 23, Type (0, 1), BuildingBlock: XIVTED_clean_linker_0, # of connection points: 2
#     Edge 24, Type (0, 1), BuildingBlock: XIVTED_clean_linker_0, # of connection points: 2
#     Edge 25, Type (0, 1), BuildingBlock: XIVTED_clean_linker_0, # of connection points: 2
#     Edge 26, Type (0, 1), BuildingBlock: XIVTED_clean_linker_0, # of connection points: 2
#     Edge 27, Type (0, 1), BuildingBlock: XIVTED_clean_linker_0, # of connection points: 2
#     Edge 28, Type (0, 1), BuildingBlock: XIVTED_clean_linker_0, # of connection points: 2
#     Edge 29, Type (0, 1), BuildingBlock: XIVTED_clean_linker_0, # of connection points: 2
#     Edge 30, Type (0, 1), BuildingBlock: XIVTED_clean_linker_0, # of connection points: 2
#     Edge 31, Type (0, 1), BuildingBlock: XIVTED_clean_linker_0, # of connection points: 2
#     Edge 32, Type (0, 1), BuildingBlock: XIVTED_clean_linker_0, # of connection points: 2
#     Edge 33, Type (0, 1), BuildingBlock: XIVTED_clean_linker_0, # of connection points: 2
#     Edge 34, Type (0, 1), BuildingBlock: XIVTED_clean_linker_0, # of connection points: 2
#     Edge 35, Type (0, 1), BuildingBlock: XIVTED_clean_linker_0, # of connection points: 2
# Relax obj value: 0.215
# Max RMSD: 0.224
# Mean RMSD: 0.119
data_MOF--net-zzz--node1-PAMTUU_clean_sbu_0--node2-BETDIP_clean_linker_0--edge1-XIVTED_clean_linker_0
_symmetry_space_group_name_H-M    P1
_symmetry_Int_Tables_number       1
_symmetry_cell_setting            triclinic
loop_
_symmetry_equiv_pos_as_xyz
'x, y, z'
_cell_length_a     50.587799
_cell_length_b     55.023131
_cell_length_c     15.532312
_cell_angle_alpha  101.10277
_cell_angle_beta   89.96953
_cell_angle_gamma 91.159811
loop_
_atom_site_label
_atom_site_type_symbol
_atom_site_fract_x
_atom_site_fract_y
_atom_site_fract_z
_atom_type_partial_charge
H0 H 0.76309 0.49672 0.51674 0.0
H1 H 0.75189 0.55592 0.3746 0.0
H2 H 0.82417 0.55188 0.51464 0.0
H3 H 0.70818 0.55134 0.43607 0.0
C4 C 0.70704 0.53217 0.40152 0.0
C5 C 0.76988 0.51381 0.49851 0.0
C6 C 0.79535 0.52376 0.52521 0.0
C7 C 0.75339 0.5261 0.44701 0.0
C8 C 0.76335 0.54745 0.41939 0.0
C9 C 0.78887 0.55677 0.44256 0.0
C10 C 0.80406 0.54538 0.49843 0.0
N11 N 0.72786 0.51619 0.41663 0.0
H12 H 1.01065 0.75274 0.53527 0.0
H13 H 0.03968 0.74223 0.26962 0.0
H14 H 1.0115 0.81312 0.39539 0.0
H15 H 0.99209 0.7061 0.44102 0.0
C16 C 1.00956 0.70119 0.40126 0.0
C17 C 1.01434 0.75989 0.476 0.0
C18 C 1.00941 0.78487 0.47374 0.0
C19 C 1.02471 0.74436 0.40096 0.0
C20 C 0.03095 0.754 0.32604 0.0
C21 C 1.02546 0.77858 0.32332 0.0
C22 C 1.01457 0.79371 0.39667 0.0
N23 N 0.02994 0.71913 0.39917 0.0
H24 H 0.78732 0.01418 0.49878 0.0
H25 H 0.80544 0.95373 0.28734 0.0
H26 H 0.73261 0.95299 0.42938 0.0
H27 H 0.85088 0.96674 0.37837 0.0
C28 C 0.84794 0.98347 0.35233 0.0
C29 C 0.7825 0.99604 0.46032 0.0
C30 C 0.75836 0.98395 0.47502 0.0
C31 C 0.80026 0.98454 0.39466 0.0
C32 C 0.7929 0.9617 0.34164 0.0
C33 C 0.7683 0.95041 0.35206 0.0
C34 C 0.75198 0.96111 0.42169 0.0
N35 N 0.82415 0.99681 0.3752 0.0
H36 H 0.5636 0.77093 0.28877 0.0
H37 H 0.51902 0.74626 0.04902 0.0
H38 H 0.5284 0.69801 0.23263 0.0
H39 H 0.54728 0.77382 1.00167 0.0
C40 C 0.54699 0.78957 0.05589 0.0
C41 C 0.5516 0.75702 0.2465 0.0
C42 C 0.54653 0.73397 0.27031 0.0
C43 C 0.54175 0.76179 0.16644 0.0
C44 C 0.52679 0.7431 0.11072 0.0
C45 C 0.52157 0.72016 0.1351 0.0
C46 C 0.53131 0.71605 0.2151 0.0
N47 N 0.54699 0.78539 0.14374 0.0
H48 H 0.27915 0.49234 0.11589 0.0
H49 H 0.30354 0.46278 0.33981 0.0
H50 H 0.22444 0.44928 0.2407 0.0
H51 H 0.31054 0.5192 0.34671 0.0
C52 C 0.32627 0.50793 0.31328 0.0
C53 C 0.27491 0.48104 0.16429 0.0
C54 C 0.2495 0.46965 0.1668 0.0
C55 C 0.2945 0.47839 0.22723 0.0
C56 C 0.28867 0.46433 0.29103 0.0
C57 C 0.26348 0.45399 0.29708 0.0
C58 C 0.24436 0.45622 0.23361 0.0
N59 N 0.31932 0.49142 0.23335 0.0
H60 H 0.0607 0.259 0.08575 0.0
H61 H 1.0173 0.27359 0.3294 0.0
H62 H 0.02814 0.19881 0.1954 0.0
H63 H 1.00113 0.30436 0.217 0.0
C64 C 1.02091 0.31139 0.23673 0.0
C65 C 0.0498 0.2524 0.13705 0.0
C66 C 0.0457 0.22681 0.13271 0.0
C67 C 0.03908 0.26943 0.20735 0.0
C68 C 1.02498 0.26067 0.27384 0.0
C69 C 1.02097 0.23528 0.26903 0.0
C70 C 0.03124 0.21856 0.19858 0.0
N71 N 0.04242 0.29534 0.21194 0.0
H72 H 0.27139 0.0161 0.09031 0.0
H73 H 0.24522 0.01695 0.35509 0.0
H74 H 0.32728 0.02857 0.30502 0.0
H75 H 0.22361 0.97336 0.21019 0.0
C76 C 0.21397 0.99116 0.22037 0.0
C77 C 0.27576 0.01849 0.1597 0.0
C78 C 0.30226 0.02325 0.19011 0.0
C79 C 0.25503 0.01634 0.21997 0.0
C80 C 0.26091 0.01889 0.30913 0.0
C81 C 0.2867 0.02356 0.33977 0.0
C82 C 0.30712 0.02599 0.28069 0.0
N83 N 0.22825 0.01101 0.19283 0.0
H84 H 0.50342 0.22565 0.34558 0.0
H85 H 0.54439 0.25191 0.59159 0.0
H86 H 0.53417 0.30034 0.40987 0.0
H87 H 0.5574 0.21226 0.56878 0.0
C88 C 0.53932 0.20185 0.54752 0.0
C89 C 0.51418 0.24006 0.38998 0.0
C90 C 0.51785 0.26366 0.36853 0.0
C91 C 0.52483 0.23511 0.46893 0.0
C92 C 0.5377 0.25457 0.52796 0.0
C93 C 0.54158 0.2779 0.50572 0.0
C94 C 0.53194 0.28203 0.42581 0.0
N95 N 0.52193 0.21085 0.48892 0.0
Tb96 Tb 1.00719 0.0122 0.72515 0.0
Tb97 Tb 0.05173 1.00018 0.86158 0.0
C98 C 0.9906 0.00435 0.91357 0.0
C99 C 0.97666 0.05054 0.59301 0.0
C100 C 0.97861 0.09817 0.55107 0.0
C101 C 0.95969 0.08027 0.51125 0.0
C102 C 0.95857 0.05666 0.53282 0.0
C103 C 0.99573 0.06809 0.63125 0.0
C104 C 0.99634 0.09173 0.61226 0.0
C105 C 0.97573 0.02647 0.62028 0.0
O106 O 1.01699 0.04649 0.81579 0.0
O107 O 0.05925 0.03872 0.85273 0.0
O108 O 0.06945 0.99252 0.73127 0.0
O109 O 0.04584 0.01957 0.66974 0.0
O110 O 0.0689 0.00646 0.98751 0.0
O111 O 0.08492 0.97971 0.88174 0.0
O112 O 0.02843 0.96619 0.82538 0.0
O113 O 1.0105 0.97199 0.69504 0.0
O114 O 0.98385 0.00121 0.83027 0.0
O115 O 1.01548 0.00816 0.93889 0.0
C116 C 0.0406 0.05437 0.84458 0.0
O117 O 0.99568 0.01223 0.59496 0.0
O118 O 0.97089 0.02782 0.70339 0.0
C119 C 0.06674 0.00582 0.67034 0.0
C120 C 0.07979 0.9674 0.01497 0.0
C121 C 0.07031 0.92294 0.07512 0.0
C122 C 0.09627 0.93257 0.07239 0.0
C123 C 0.10099 0.95462 0.04181 0.0
C124 C 0.05391 0.95836 0.02101 0.0
C125 C 0.04922 0.93633 0.04996 0.0
C126 C 0.08416 0.98741 0.9663 0.0
C127 C 1.01669 0.95753 0.7501 0.0
H128 H 0.94599 0.0843 0.46264 0.0
H129 H 0.94376 0.04323 0.50242 0.0
H130 H 1.01012 0.06354 0.6767 0.0
H131 H 1.01077 0.10494 0.64632 0.0
H132 H 0.11293 0.92289 0.09232 0.0
H133 H 0.12113 0.96118 0.03621 0.0
H134 H 0.03728 0.96769 0.99903 0.0
H135 H 0.02905 0.92933 0.04887 0.0
Tb136 Tb 0.52095 0.98614 0.74639 0.0
Tb137 Tb 0.54357 0.01426 0.93167 0.0
C138 C 0.54073 0.9568 0.88249 0.0
C139 C 0.46802 0.96265 0.60289 0.0
C140 C 0.41464 0.97464 0.63122 0.0
C141 C 0.43063 0.98748 0.58025 0.0
C142 C 0.45702 0.98143 0.56561 0.0
C143 C 0.45125 0.94815 0.6464 0.0
C144 C 0.42469 0.95412 0.6604 0.0
C145 C 0.49695 0.96233 0.61501 0.0
O146 O 0.4878 0.98952 0.83923 0.0
O147 O 0.50162 0.02354 0.9385 0.0
O148 O 0.54114 0.04371 0.857 0.0
O149 O 0.51286 0.02508 0.74678 0.0
O150 O 0.54138 0.01969 0.06927 0.0
O151 O 0.57301 0.03629 0.00627 0.0
O152 O 0.57815 0.99976 0.85309 0.0
O153 O 0.56111 0.99646 0.71479 0.0
O154 O 0.5432 0.95907 0.80058 0.0
O155 O 0.53438 0.97607 0.9415 0.0
C156 C 0.48253 0.00827 0.90294 0.0
O157 O 0.50961 0.98322 0.61451 0.0
O158 O 0.50469 0.95235 0.67997 0.0
C159 C 0.52603 0.04469 0.78888 0.0
C160 C 0.58512 0.01376 0.11334 0.0
C161 C 0.62332 0.97796 0.12539 0.0
C162 C 0.63103 0.00174 0.11298 0.0
C163 C 0.61213 0.0195 0.10741 0.0
C164 C 0.5776 0.99069 0.13356 0.0
C165 C 0.59654 0.97295 0.13942 0.0
C166 C 0.5655 0.02869 0.07715 0.0
C167 C 0.58154 0.99857 0.76816 0.0
H168 H 0.42291 0.00277 0.55384 0.0
H169 H 0.46924 0.99269 0.53064 0.0
H170 H 0.45904 0.93333 0.67514 0.0
H171 H 0.41245 0.9436 0.69795 0.0
H172 H 0.65168 0.00638 0.10486 0.0
H173 H 0.61854 0.03709 0.09211 0.0
H174 H 0.55696 0.98562 0.13897 0.0
H175 H 0.59006 0.95488 0.15015 0.0
Tb176 Tb 0.5051 0.48976 0.88884 0.0
Tb177 Tb 0.54527 0.50831 0.74686 0.0
C178 C 0.48421 0.49774 0.7057 0.0
C179 C 0.47912 0.44647 0.0224 0.0
C180 C 0.48207 0.39939 0.07069 0.0
C181 C 0.46476 0.41752 0.11424 0.0
C182 C 0.46322 0.44076 0.08999 0.0
C183 C 0.49663 0.42868 0.97962 0.0
C184 C 0.49791 0.40538 1.0027 0.0
C185 C 0.4772 0.47061 0.99467 0.0
O186 O 0.51565 0.45785 0.79096 0.0
O187 O 0.55605 0.47013 0.74617 0.0
O188 O 0.56341 0.51739 0.8776 0.0
O189 O 0.54551 0.48545 0.93274 0.0
O190 O 0.55652 0.51088 0.61817 0.0
O191 O 0.5797 0.52878 0.72904 0.0
O192 O 0.51938 0.53881 0.79161 0.0
O193 O 0.50639 0.5303 0.92494 0.0
O194 O 0.4794 0.50072 0.79048 0.0
O195 O 0.50858 0.49522 0.67526 0.0
C196 C 0.53909 0.4526 0.75727 0.0
O197 O 0.49656 0.48646 0.01904 0.0
O198 O 0.47122 0.46936 0.91234 0.0
C199 C 0.56421 0.50234 0.93368 0.0
C200 C 0.57566 0.55037 0.61377 0.0
C201 C 0.57673 0.59757 0.56602 0.0
C202 C 0.60022 0.58447 0.56997 0.0
C203 C 0.59966 0.56114 0.59356 0.0
C204 C 0.55216 0.56326 0.60989 0.0
C205 C 0.55266 0.58653 0.58592 0.0
C206 C 0.57565 0.52671 0.64533 0.0
C207 C 0.50953 0.5458 0.87037 0.0
H208 H 0.4526 0.41396 0.16801 0.0
H209 H 0.44966 0.45427 0.12417 0.0
H210 H 0.50924 0.4328 0.92781 0.0
H211 H 0.51118 0.39201 0.96629 0.0
H212 H 0.61917 0.59241 0.55648 0.0
H213 H 0.61806 0.55166 0.59744 0.0
H214 H 0.53341 0.55541 0.62606 0.0
H215 H 0.5341 0.59574 0.5823 0.0
Tb216 Tb 0.0324 0.51373 0.78607 0.0
Tb217 Tb 1.00826 0.48298 0.92488 0.0
C218 C 1.01167 0.54116 0.96436 0.0
C219 C 0.08564 0.52967 0.6625 0.0
C220 C 0.1326 0.50274 0.63915 0.0
C221 C 0.12746 0.51833 0.71968 0.0
C222 C 0.10426 0.53177 0.73117 0.0
C223 C 0.09211 0.51609 0.57953 0.0
C224 C 0.11539 0.5027 0.56797 0.0
C225 C 0.05768 0.53506 0.68331 0.0
O226 O 0.06401 0.51061 0.8798 0.0
O227 O 0.0505 0.47463 0.92001 0.0
O228 O 1.00933 0.45658 0.80161 0.0
O229 O 0.04289 0.4753 0.73848 0.0
O230 O 1.01028 0.4743 0.05073 0.0
O231 O 0.97893 0.45933 0.9613 0.0
O232 O 0.97435 0.50009 0.87344 0.0
O233 O 0.99169 0.5048 0.74142 0.0
O234 O 1.01172 0.54105 0.88 0.0
O235 O 1.01552 0.5208 0.99416 0.0
C236 C 0.06932 0.491 0.91303 0.0
O237 O 0.04136 0.5165 0.65613 0.0
O238 O 0.05279 0.54564 0.76418 0.0
C239 C 0.02728 0.45608 0.74033 0.0
C240 C 0.96651 0.4788 0.10337 0.0
C241 C 0.93042 0.51584 0.17225 0.0
C242 C 0.92169 0.49405 0.11566 0.0
C243 C 0.93953 0.47566 0.08186 0.0
C244 C 0.9746 0.49925 0.16783 0.0
C245 C 0.95673 0.51764 0.20172 0.0
C246 C 0.98623 0.4651 0.04339 0.0
C247 C 0.97111 0.50273 0.79163 0.0
H248 H 0.14051 0.51899 0.77538 0.0
H249 H 0.1 0.54215 0.79611 0.0
H250 H 0.07816 0.51415 0.5256 0.0
H251 H 0.11938 0.49153 0.50407 0.0
H252 H 0.90124 0.49161 0.09468 0.0
H253 H 0.93257 0.45997 0.03334 0.0
H254 H 0.99519 0.50219 0.18682 0.0
H255 H 0.96399 0.53398 0.24645 0.0
H256 H 0.19371 0.9572 0.30734 0.0
H257 H 0.07498 0.03697 0.55135 0.0
H258 H 0.18255 0.03259 0.27783 0.0
H259 H 0.10679 0.97272 0.63218 0.0
H260 H 0.11028 0.03468 0.44055 0.0
H261 H 0.15797 0.96134 0.41419 0.0
C262 C 0.18363 0.97468 0.32317 0.0
C263 C 0.19129 0.99456 0.28343 0.0
C264 C 0.10949 0.02115 0.48275 0.0
C265 C 0.14978 0.99949 0.40683 0.0
C266 C 0.08928 0.02236 0.54588 0.0
C267 C 0.08777 0.00501 0.60172 0.0
C268 C 0.12814 0.00219 0.47418 0.0
C269 C 0.10702 0.98659 0.5913 0.0
C270 C 0.16321 0.97706 0.38464 0.0
C271 C 0.17739 0.01677 0.30685 0.0
N272 N 0.12613 0.98562 0.52894 0.0
N273 N 0.15725 0.01862 0.36679 0.0
H274 H 0.50075 0.16471 0.49915 0.0
H275 H 0.55151 0.08848 0.85697 0.0
H276 H 0.5669 0.18634 0.67389 0.0
H277 H 0.49823 0.05562 0.64777 0.0
H278 H 0.55256 0.12655 0.79949 0.0
H279 H 0.49525 0.12656 0.55969 0.0
C280 C 0.51402 0.16149 0.55031 0.0
C281 C 0.53437 0.17869 0.58156 0.0
C282 C 0.54055 0.11108 0.76602 0.0
C283 C 0.52807 0.13541 0.65128 0.0
C284 C 0.53985 0.08924 0.79914 0.0
C285 C 0.52486 0.06859 0.75713 0.0
C286 C 0.52612 0.1126 0.69003 0.0
C287 C 0.51014 0.07099 0.68234 0.0
C288 C 0.51091 0.13973 0.58468 0.0
C289 C 0.551 0.17357 0.64775 0.0
N290 N 0.51119 0.09256 0.65101 0.0
N291 N 0.54746 0.15255 0.68033 0.0
H292 H 0.33532 0.52995 0.48129 0.0
H293 H 0.48334 0.48442 0.52423 0.0
H294 H 0.37264 0.48147 0.26663 0.0
H295 H 0.43325 0.51205 0.74477 0.0
H296 H 0.44571 0.48604 0.42504 0.0
H297 H 0.37354 0.52688 0.57376 0.0
C298 C 0.35168 0.51868 0.45337 0.0
C299 C 0.35065 0.50594 0.36592 0.0
C300 C 0.443 0.49166 0.49516 0.0
C301 C 0.39503 0.50237 0.47243 0.0
C302 C 0.4645 0.49081 0.55199 0.0
C303 C 0.46161 0.49809 0.64352 0.0
C304 C 0.41845 0.50023 0.52976 0.0
C305 C 0.43659 0.50615 0.67511 0.0
C306 C 0.37353 0.51686 0.50653 0.0
C307 C 0.37253 0.4916 0.33366 0.0
N308 N 0.41621 0.50713 0.61862 0.0
N309 N 0.39388 0.49027 0.38679 0.0
H310 H 0.9809 0.33565 0.32752 0.0
H311 H 0.06676 0.44364 0.61845 0.0
H312 H 0.06593 0.33705 0.3083 0.0
H313 H 0.9909 0.41838 0.69837 0.0
H314 H 0.06658 0.40835 0.49432 0.0
H315 H 0.9836 0.37041 0.45159 0.0
C316 C 1.00016 0.34344 0.34922 0.0
C317 C 1.02321 0.33346 0.30798 0.0
C318 C 0.05013 0.41052 0.53962 0.0
C319 C 0.02648 0.37331 0.44992 0.0
C320 C 0.05018 0.43063 0.61034 0.0
C321 C 0.0288 0.43398 0.66904 0.0
C322 C 0.02832 0.39402 0.52668 0.0
C323 C 1.00785 0.41654 0.65521 0.0
C324 C 1.0017 0.36316 0.42033 0.0
C325 C 0.04769 0.34419 0.33867 0.0
N326 N 1.00803 0.3975 0.58513 0.0
N327 N 0.04871 0.36368 0.40785 0.0
H328 H 0.84418 0.01205 0.2231 0.0
H329 H 0.99671 0.99612 0.08143 0.0
H330 H 0.89916 0.97001 0.34409 0.0
H331 H 0.93664 0.00993 0.90089 0.0
H332 H 0.96232 0.99346 0.19052 0.0
H333 H 0.87883 0.01855 0.11709 0.0
C334 C 0.86362 0.00457 0.22837 0.0
C335 C 0.86882 0.99056 0.29296 0.0
C336 C 0.95664 0.99714 0.12713 0.0
C337 C 0.90852 0.99794 0.17212 0.0
C338 C 0.97632 0.99874 0.06468 0.0
C339 C 0.96969 0.00317 0.98124 0.0
C340 C 0.92997 1.00041 0.10726 0.0
C341 C 0.94276 0.00632 0.96391 0.0
C342 C 0.88332 0.0081 0.16742 0.0
C343 C 0.89429 0.98098 0.29564 0.0
N344 N 0.92396 0.00499 0.02627 0.0
N345 N 0.91311 0.98491 0.23671 0.0
H346 H 0.54496 0.83519 0.1685 0.0
H347 H 0.55041 0.91177 0.7766 0.0
H348 H 0.55078 0.80138 0.89488 0.0
H349 H 0.53786 0.9458 0.04746 0.0
H350 H 0.55346 0.87151 0.8203 0.0
H351 H 0.54507 0.87614 0.12739 0.0
C352 C 0.54637 0.83638 0.09986 0.0
C353 C 0.54784 0.81484 0.0349 0.0
C354 C 0.55012 0.88779 0.8703 0.0
C355 C 0.54795 0.86161 0.9873 0.0
C356 C 0.54842 0.91084 0.84533 0.0
C357 C 0.54379 0.9323 0.90828 0.0
C358 C 0.54723 0.88606 0.95904 0.0
C359 C 0.5414 0.92982 0.99647 0.0
C360 C 0.54639 0.85976 0.07636 0.0
C361 C 0.54959 0.81752 0.947 0.0
N362 N 0.5431 0.90719 0.01913 0.0
N363 N 0.54957 0.84039 0.92582 0.0
H364 H 0.67788 0.56458 0.33522 0.0
H365 H 0.58031 0.46883 0.03384 0.0
H366 H 0.68928 0.48604 0.30674 0.0
H367 H 0.59795 0.54212 0.98646 0.0
H368 H 0.61582 0.47444 0.14493 0.0
H369 H 0.64417 0.55654 0.22045 0.0
C370 C 0.67326 0.54555 0.30472 0.0
C371 C 0.68659 0.52599 0.33064 0.0
C372 C 0.61194 0.4892 0.10983 0.0
C373 C 0.64737 0.51655 0.19871 0.0
C374 C 0.59159 0.48609 0.04664 0.0
C375 C 0.58599 0.50505 1.00041 0.0
C376 C 0.62649 0.51165 0.12855 0.0
C377 C 0.60145 0.52694 0.01991 0.0
C378 C 0.65401 0.54099 0.23882 0.0
C379 C 0.67964 0.5017 0.2886 0.0
N380 N 0.62069 0.52969 0.08272 0.0
N381 N 0.66034 0.49765 0.22514 0.0
H382 H 0.03985 0.68909 0.25332 0.0
H383 H 0.99693 0.54757 0.13624 0.0
H384 H 0.97978 0.65932 0.40348 0.0
H385 H 1.02085 0.58842 0.9376 0.0
H386 H 0.99509 0.58655 0.24322 0.0
H387 H 0.03854 0.65036 0.1456 0.0
C388 C 0.02654 0.67432 0.26417 0.0
C389 C 1.00996 0.67734 0.33785 0.0
C390 C 1.00053 0.58696 0.17605 0.0
C391 C 1.00848 0.63297 0.21457 0.0
C392 C 1.00159 0.56476 0.11502 0.0
C393 C 1.00893 0.56476 0.02783 0.0
C394 C 1.00758 0.60927 0.15025 0.0
C395 C 1.01494 0.58757 0.00397 0.0
C396 C 1.02566 0.65231 0.20216 0.0
C397 C 0.99291 0.65765 0.34767 0.0
N398 N 1.01446 0.60889 0.06513 0.0
N399 N 0.99274 0.63616 0.28704 0.0
H400 H 0.04045 0.23365 0.42982 0.0
H401 H 0.93888 0.12668 0.50185 0.0
H402 H 0.97269 0.21247 0.26241 0.0
H403 H 1.02336 0.12694 0.54533 0.0
H404 H 0.94405 0.16672 0.45585 0.0
H405 H 1.0257 0.20441 0.52172 0.0
C406 C 1.02184 0.22361 0.41492 0.0
C407 C 1.00768 0.22525 0.33903 0.0
C408 C 0.96124 0.15804 0.47723 0.0
C409 C 0.99112 0.19169 0.44155 0.0
C410 C 0.95843 0.13505 0.50239 0.0
C411 C 0.98071 0.12313 0.52746 0.0
C412 C 0.98637 0.16935 0.47888 0.0
C413 C 1.00543 0.13537 0.52866 0.0
C414 C 1.0136 0.2068 0.46653 0.0
C415 C 0.98398 0.21159 0.3209 0.0
N416 N 1.00755 0.15772 0.50468 0.0
N417 N 0.97657 0.19501 0.3712 0.0
H418 H 0.31556 0.05687 0.45801 0.0
H419 H 0.36894 0.9468 0.60694 0.0
H420 H 0.27242 0.9874 0.4288 0.0
H421 H 0.39859 0.0211 0.70164 0.0
H422 H 0.32522 0.96322 0.59024 0.0
H423 H 0.33645 0.04829 0.59005 0.0
C424 C 0.31002 0.0401 0.48104 0.0
C425 C 0.2931 0.02239 0.43135 0.0
C426 C 0.34101 0.97597 0.61753 0.0
C427 C 0.31745 0.01192 0.57983 0.0
C428 C 0.36597 0.96652 0.62712 0.0
C429 C 0.38743 0.98283 0.6512 0.0
C430 C 0.33804 0.00181 0.62976 0.0
C431 C 0.38257 0.00811 0.67868 0.0
C432 C 0.32181 0.03518 0.55663 0.0
C433 C 0.28592 0.00125 0.46458 0.0
N434 N 0.35851 0.01698 0.66456 0.0
N435 N 0.29881 0.99618 0.53537 0.0
H436 H 0.58294 0.30806 0.47946 0.0
H437 H 0.58564 0.43206 0.68714 0.0
H438 H 0.52363 0.29765 0.66876 0.0
H439 H 0.50816 0.41258 0.77289 0.0
H440 H 0.59535 0.38785 0.64682 0.0
H441 H 0.58936 0.35091 0.55469 0.0
C442 C 0.57215 0.31459 0.53947 0.0
C443 C 0.55262 0.29946 0.56784 0.0
C444 C 0.5762 0.39327 0.6741 0.0
C445 C 0.55948 0.34859 0.65392 0.0
C446 C 0.57067 0.41854 0.69724 0.0
C447 C 0.54593 0.42612 0.73236 0.0
C448 C 0.55678 0.37556 0.68625 0.0
C449 C 0.52747 0.40778 0.74556 0.0
C450 C 0.57576 0.33914 0.58249 0.0
C451 C 0.53892 0.30874 0.64506 0.0
N452 N 0.53326 0.38348 0.72233 0.0
N453 N 0.54213 0.33292 0.68417 0.0
H454 H 0.22984 0.41551 0.31849 0.0
H455 H 0.18289 0.51286 0.70451 0.0
H456 H 0.27751 0.47527 0.46537 0.0
H457 H 0.13428 0.45443 0.55435 0.0
H458 H 0.22181 0.48797 0.66305 0.0
H459 H 0.20171 0.41674 0.4468 0.0
C460 C 0.23496 0.42829 0.37861 0.0
C461 C 0.25501 0.44633 0.3795 0.0
C462 C 0.20258 0.4803 0.64064 0.0
C463 C 0.22281 0.44817 0.52527 0.0
C464 C 0.18033 0.49458 0.66418 0.0
C465 C 0.15553 0.48619 0.62903 0.0
C466 C 0.19999 0.45784 0.57994 0.0
C467 C 0.1533 0.46214 0.57886 0.0
C468 C 0.2189 0.429 0.452 0.0
C469 C 0.26161 0.46161 0.46021 0.0
N470 N 0.17534 0.44905 0.55385 0.0
N471 N 0.24495 0.4628 0.5291 0.0
H472 H 0.07484 0.78551 0.26084 0.0
H473 H 0.028 0.90982 0.16712 0.0
H474 H 0.99258 0.79929 0.22213 0.0
H475 H 0.10006 0.88058 0.04185 0.0
H476 H 1.01686 0.86919 0.19679 0.0
H477 H 0.08696 0.81845 0.18038 0.0
C478 C 0.0594 0.7947 0.23176 0.0
C479 C 0.03272 0.79003 0.24836 0.0
C480 C 0.035 0.8716 0.16197 0.0
C481 C 0.04626 0.82788 0.1604 0.0
C482 C 0.04143 0.89484 0.14504 0.0
C483 C 0.06485 0.89867 0.10058 0.0
C484 C 0.05236 0.85201 0.1366 0.0
C485 C 0.0819 0.87858 0.07689 0.0
C486 C 0.06629 0.81359 0.18678 0.0
C487 C 1.01336 0.80258 0.21087 0.0
N488 N 0.07542 0.85607 0.09588 0.0
N489 N 1.02051 0.82142 0.17049 0.0
H490 H 0.73567 0.90993 0.35999 0.0
H491 H 0.66332 0.96636 0.00732 0.0
H492 H 0.7719 0.94961 0.17547 0.0
H493 H 0.6285 0.94492 0.23574 0.0
H494 H 0.70119 0.94051 0.02132 0.0
H495 H 0.69725 0.90089 0.26324 0.0
C496 C 0.73617 0.91571 0.29714 0.0
C497 C 0.75601 0.93225 0.27901 0.0
C498 C 0.68494 0.94093 0.067 0.0
C499 C 0.71247 0.92196 0.16869 0.0
C500 C 0.6635 0.95592 0.05975 0.0
C501 C 0.64336 0.95859 0.12283 0.0
C502 C 0.68643 0.92889 0.13869 0.0
C503 C 0.64395 0.94385 0.18702 0.0
C504 C 0.71412 0.91066 0.24215 0.0
C505 C 0.75637 0.93796 0.19473 0.0
N506 N 0.66552 0.9301 0.19471 0.0
N507 N 0.73433 0.93372 0.14401 0.0
H508 H 0.53347 0.70232 0.96329 0.0
H509 H 0.5081 0.58071 0.76703 0.0
H510 H 0.48262 0.68864 0.17235 0.0
H511 H 0.49565 0.5715 0.03411 0.0
H512 H 0.50283 0.6251 0.81341 0.0
H513 H 0.52405 0.66034 0.88395 0.0
C514 C 0.5194 0.69082 0.9907 0.0
C515 C 0.50906 0.69884 0.07484 0.0
C516 C 0.50135 0.61346 0.86205 0.0
C517 C 0.49838 0.65054 0.98529 0.0
C518 C 0.5042 0.58798 0.83563 0.0
C519 C 0.50293 0.5723 0.89726 0.0
C520 C 0.49736 0.62348 0.95101 0.0
C521 C 0.49716 0.58287 0.98459 0.0
C522 C 0.51407 0.6667 0.94555 0.0
C523 C 0.49128 0.68299 0.108 0.0
N524 N 0.49484 0.60786 0.00902 0.0
N525 N 0.48705 0.65938 0.06424 0.0
H526 H 0.82439 0.59516 0.50158 0.0
H527 H 0.89372 0.53308 0.07031 0.0
H528 H 0.78582 0.5563 0.26609 0.0
H529 H 0.92607 0.54693 0.33277 0.0
H530 H 0.8586 0.56222 0.12087 0.0
H531 H 0.86366 0.60073 0.41547 0.0
C532 C 0.82363 0.58891 0.43106 0.0
C533 C 0.80269 0.57351 0.39197 0.0
C534 C 0.87385 0.55938 0.16666 0.0
C535 C 0.84712 0.57992 0.29389 0.0
C536 C 0.89362 0.54245 0.13837 0.0
C537 C 0.91213 0.53669 0.19844 0.0
C538 C 0.87252 0.57053 0.25566 0.0
C539 C 0.91187 0.55032 0.28459 0.0
C540 C 0.84613 0.592 0.38203 0.0
C541 C 0.80212 0.56711 0.30003 0.0
N542 N 0.89198 0.5662 0.31112 0.0
N543 N 0.82455 0.56943 0.25423 0.0
H544 H 0.08831 0.19747 0.13077 0.0
H545 H 1.00824 0.09159 0.81948 0.0
H546 H 1.0216 0.21082 0.97572 0.0
H547 H 0.08458 0.07924 0.92561 0.0
H548 H 1.01576 0.13596 0.86356 0.0
H549 H 0.09155 0.15576 0.04156 0.0
C550 C 0.07519 0.19199 0.07498 0.0
C551 C 0.05486 0.20761 0.05964 0.0
C552 C 0.03107 0.12364 0.87646 0.0
C553 C 0.05746 0.15958 0.96047 0.0
C554 C 0.02675 0.09816 0.85139 0.0
C555 C 0.04576 0.0815 0.86902 0.0
C556 C 0.05436 0.13276 0.92146 0.0
C557 C 0.06929 0.09134 0.91105 0.0
C558 C 0.07676 0.16805 0.0249 0.0
C559 C 0.03778 0.19942 0.98859 0.0
N560 N 0.07277 0.11631 0.93693 0.0
N561 N 0.03911 0.17579 0.94277 0.0
H562 H 0.34221 0.05817 0.20762 0.0
H563 H 0.4378 0.97987 0.84708 0.0
H564 H 0.31706 0.98975 0.04093 0.0
H565 H 0.46304 0.04429 0.03564 0.0
H566 H 0.39271 0.98497 0.90519 0.0
H567 H 0.38481 0.05554 0.13254 0.0
C568 C 0.34547 0.04275 0.15402 0.0
C569 C 0.3258 0.02414 0.13102 0.0
C570 C 0.40808 0.99802 0.93381 0.0
C571 C 0.37534 0.02076 0.04453 0.0
C572 C 0.43396 0.99514 0.90059 0.0
C573 C 0.45462 0.01157 0.93655 0.0
C574 C 0.40248 0.01755 0.00384 0.0
C575 C 0.44805 0.03103 0.00569 0.0
C576 C 0.36998 0.04118 0.11136 0.0
C577 C 0.33139 0.00465 0.06068 0.0
N578 N 0.42277 0.0334 0.03689 0.0
N579 N 0.35563 0.00335 0.02064 0.0
H580 H 0.54342 0.26819 0.21889 0.0
H581 H 0.44287 0.37146 0.13315 0.0
H582 H 0.46812 0.27963 0.34774 0.0
H583 H 0.52599 0.37034 0.06877 0.0
H584 H 0.4476 0.33216 0.18283 0.0
H585 H 0.53198 0.29811 0.12767 0.0
C586 C 0.52388 0.27605 0.22464 0.0
C587 C 0.50654 0.27119 0.29005 0.0
C588 C 0.46469 0.34045 0.15685 0.0
C589 C 0.49379 0.30645 0.18922 0.0
C590 C 0.46211 0.36308 0.12921 0.0
C591 C 0.4841 0.37464 0.09703 0.0
C592 C 0.48937 0.32903 0.1517 0.0
C593 C 0.50831 0.36226 0.09172 0.0
C594 C 0.51756 0.29354 0.17393 0.0
C595 C 0.48182 0.28255 0.29695 0.0
N596 N 0.51027 0.34031 0.119 0.0
N597 N 0.47635 0.3 0.24837 0.0
H598 H 0.23123 0.51276 0.1209 0.0
H599 H 0.09092 0.44947 0.95757 0.0
H600 H 0.21471 0.43426 0.08201 0.0
H601 H 0.11131 0.52456 0.93643 0.0
H602 H 0.13618 0.44422 0.00576 0.0
H603 H 0.18833 0.51809 0.05216 0.0
C604 C 0.21896 0.49658 0.09607 0.0
C605 C 0.22673 0.47302 0.10788 0.0
C606 C 0.13085 0.46186 0.99032 0.0
C607 C 0.17706 0.47907 0.03133 0.0
C608 C 0.10485 0.4649 0.96308 0.0
C609 C 0.09702 0.48752 0.94281 0.0
C610 C 0.1494 0.48163 0.99868 0.0
C611 C 0.11628 0.50675 0.95104 0.0
C612 C 0.19428 0.49965 0.05766 0.0
C613 C 0.20959 0.45282 0.07533 0.0
N614 N 0.14138 0.50344 0.97873 0.0
N615 N 0.18565 0.45633 0.03991 0.0
H616 H 0.03824 0.80136 0.62243 0.0
H617 H 0.98241 0.93321 0.62412 0.0
H618 H 0.9652 0.8126 0.49484 0.0
H619 H 0.03666 0.92035 0.8243 0.0
H620 H 0.97434 0.88854 0.58253 0.0
H621 H 0.03571 0.84342 0.70982 0.0
C622 C 1.02097 0.81223 0.61613 0.0
C623 C 1.00192 0.80357 0.55133 0.0
C624 C 0.98777 0.89549 0.63632 0.0
C625 C 0.99956 0.85201 0.64734 0.0
C626 C 0.99254 0.92102 0.6596 0.0
C627 C 1.01044 0.93058 0.72714 0.0
C628 C 1.00136 0.87927 0.67967 0.0
C629 C 1.02279 0.91382 0.77144 0.0
C630 C 1.01974 0.83641 0.6649 0.0
C631 C 0.98026 0.81863 0.54431 0.0
N632 N 1.01833 0.88899 0.74606 0.0
N633 N 0.98002 0.84234 0.5898 0.0
H634 H 0.74943 0.97841 0.64455 0.0
H635 H 0.596 0.00601 0.6047 0.0
H636 H 0.71717 0.01146 0.43923 0.0
H637 H 0.62985 0.99321 0.84647 0.0
H638 H 0.64044 0.00752 0.54399 0.0
H639 H 0.70698 0.98439 0.72272 0.0
C640 C 0.73378 0.98792 0.61782 0.0
C641 C 0.7372 0.99517 0.53647 0.0
C642 C 0.63825 0.00447 0.61047 0.0
C643 C 0.68787 0.00074 0.623 0.0
C644 C 0.61275 0.00344 0.6452 0.0
C645 C 0.60892 0.99933 0.73101 0.0
C646 C 0.66045 0.00106 0.66099 0.0
C647 C 0.63167 0.99637 0.78003 0.0
C648 C 0.70937 0.99097 0.66176 0.0
C649 C 0.71572 0.0063 0.50293 0.0
N650 N 0.65634 0.99708 0.74419 0.0
N651 N 0.69202 0.00842 0.5455 0.0
H652 H 0.52339 0.73159 0.42656 0.0
H653 H 0.60876 0.61412 0.44475 0.0
H654 H 0.5953 0.7153 0.28068 0.0
H655 H 0.54591 0.63802 0.62795 0.0
H656 H 0.60743 0.65377 0.39713 0.0
H657 H 0.53503 0.70163 0.51748 0.0
C658 C 0.54233 0.72262 0.41682 0.0
C659 C 0.55861 0.72614 0.34694 0.0
C660 C 0.59412 0.65048 0.44848 0.0
C661 C 0.57136 0.69073 0.44695 0.0
C662 C 0.5949 0.62777 0.47604 0.0
C663 C 0.57722 0.6224 0.54006 0.0
C664 C 0.57533 0.66804 0.48427 0.0
C665 C 0.5595 0.64093 0.57688 0.0
C666 C 0.54877 0.70516 0.46763 0.0
C667 C 0.58247 0.7134 0.33492 0.0
N668 N 0.55881 0.66273 0.54782 0.0
N669 N 0.58785 0.69585 0.383 0.0
H670 H 0.80439 0.5295 0.70239 0.0
H671 H 0.95618 0.49683 0.61869 0.0
H672 H 0.83434 0.49338 0.45208 0.0
H673 H 0.92323 0.50904 0.87928 0.0
H674 H 0.91156 0.49672 0.5581 0.0
H675 H 0.84658 0.522 0.77098 0.0
C676 C 0.81939 0.51897 0.66255 0.0
C677 C 0.81544 0.51136 0.57167 0.0
C678 C 0.914 0.49934 0.62857 0.0
C679 C 0.86455 0.5041 0.64876 0.0
C680 C 0.9396 0.49959 0.66343 0.0
C681 C 0.94372 0.50308 0.75456 0.0
C682 C 0.89203 0.50298 0.68483 0.0
C683 C 0.92118 0.50632 0.80868 0.0
C684 C 0.84368 0.51507 0.70146 0.0
C685 C 0.83617 0.49889 0.52264 0.0
N686 N 0.89643 0.50643 0.77318 0.0
N687 N 0.85982 0.49601 0.56133 0.0
loop_
_geom_bond_atom_site_label_1
_geom_bond_atom_site_label_2
_geom_bond_distance
_geom_bond_site_symmetry_2
_ccdc_geom_bond_type
H0 C5 0.930 . S
H1 C8 0.930 . S
H2 C10 0.930 . S
H3 C4 1.016 . S
C4 H3 1.016 . S
C4 N11 1.286 . S
C5 H0 0.930 . S
C5 C6 1.397 . S
C5 C7 1.361 . S
C6 C5 1.397 . S
C6 C10 1.390 . S
C7 C5 1.361 . S
C7 C8 1.393 . S
C7 N11 1.413 . S
C8 H1 0.930 . S
C8 C7 1.393 . S
C8 C9 1.399 . S
C9 C8 1.399 . S
C9 C10 1.381 . S
C10 H2 0.930 . S
C10 C6 1.390 . S
C10 C9 1.381 . S
N11 C4 1.286 . S
N11 C7 1.413 . S
H12 C17 0.930 . S
H13 C20 0.930 . S
H14 C22 0.930 . S
H15 C16 1.016 . S
C16 H15 1.016 . S
C16 N23 1.286 1_655 S
C17 H12 0.930 . S
C17 C18 1.406 . S
C17 C19 1.361 . S
C18 C17 1.406 . S
C18 C22 1.386 1_455 S
C19 C17 1.361 . S
C19 C20 1.393 . S
C19 N23 1.413 . S
C20 H13 0.930 . S
C20 C19 1.393 . S
C20 C21 1.400 . S
C21 C20 1.400 . S
C21 C22 1.380 1_455 S
C22 H14 0.930 . S
C22 C18 1.386 1_655 S
C22 C21 1.380 1_655 S
N23 C16 1.286 1_455 S
N23 C19 1.413 . S
H24 C29 0.930 . S
H25 C32 0.930 . S
H26 C34 0.930 . S
H27 C28 1.021 . S
C28 H27 1.021 . S
C28 N35 1.274 1_565 S
C29 H24 0.930 . S
C29 C30 1.397 . S
C29 C31 1.361 . S
C30 C29 1.397 . S
C30 C34 1.390 1_545 S
C31 C29 1.361 . S
C31 C32 1.393 . S
C31 N35 1.413 . S
C32 H25 0.930 . S
C32 C31 1.393 . S
C32 C33 1.402 . S
C33 C32 1.402 . S
C33 C34 1.375 1_545 S
C34 H26 0.930 . S
C34 C30 1.390 1_565 S
C34 C33 1.375 1_565 S
N35 C28 1.274 1_545 S
N35 C31 1.413 . S
H36 C41 0.930 . S
H37 C44 0.930 . S
H38 C46 0.930 . S
H39 C40 1.016 . S
C40 H39 1.016 . S
C40 N47 1.286 1_556 S
C41 H36 0.930 . S
C41 C42 1.397 . S
C41 C43 1.361 . S
C42 C41 1.397 . S
C42 C46 1.390 . S
C43 C41 1.361 . S
C43 C44 1.393 1_554 S
C43 N47 1.413 . S
C44 H37 0.930 . S
C44 C43 1.393 1_556 S
C44 C45 1.399 . S
C45 C44 1.399 . S
C45 C46 1.381 1_556 S
C46 H38 0.930 . S
C46 C42 1.390 . S
C46 C45 1.381 1_554 S
N47 C40 1.286 1_554 S
N47 C43 1.413 . S
H48 C53 0.930 . S
H49 C56 0.930 . S
H50 C58 0.930 . S
H51 C52 1.016 . S
C52 H51 1.016 . S
C52 N59 1.286 . S
C53 H48 0.930 . S
C53 C54 1.397 . S
C53 C55 1.361 . S
C54 C53 1.397 . S
C54 C58 1.390 . S
C55 C53 1.361 . S
C55 C56 1.393 . S
C55 N59 1.413 . S
C56 H49 0.930 . S
C56 C55 1.393 . S
C56 C57 1.399 . S
C57 C56 1.399 . S
C57 C58 1.381 . S
C58 H50 0.930 . S
C58 C54 1.390 . S
C58 C57 1.381 . S
N59 C52 1.286 . S
N59 C55 1.413 . S
H60 C65 0.930 . S
H61 C68 0.930 . S
H62 C70 0.939 . S
H63 C64 1.010 1_655 S
C64 H63 1.010 1_455 S
C64 N71 1.295 . S
C65 H60 0.930 . S
C65 C66 1.397 . S
C65 C67 1.361 . S
C66 C65 1.397 . S
C66 C70 1.386 1_455 S
C67 C65 1.361 . S
C67 C68 1.393 . S
C67 N71 1.413 . S
C68 H61 0.930 . S
C68 C67 1.393 . S
C68 C69 1.399 . S
C69 C68 1.399 . S
C69 C70 1.378 1_455 S
C70 H62 0.939 . S
C70 C66 1.386 1_655 S
C70 C69 1.378 1_655 S
N71 C64 1.295 . S
N71 C67 1.413 . S
H72 C77 0.930 . S
H73 C80 0.930 . S
H74 C82 0.930 . S
H75 C76 1.032 . S
C76 H75 1.032 . S
C76 N83 1.268 1_565 S
C77 H72 0.930 . S
C77 C78 1.397 . S
C77 C79 1.361 . S
C78 C77 1.397 . S
C78 C82 1.390 1_545 S
C79 C77 1.361 . S
C79 C80 1.393 . S
C79 N83 1.413 . S
C80 H73 0.930 . S
C80 C79 1.393 . S
C80 C81 1.404 . S
C81 C80 1.404 . S
C81 C82 1.384 1_545 S
C82 H74 0.930 . S
C82 C78 1.390 1_565 S
C82 C81 1.384 1_565 S
N83 C76 1.268 1_545 S
N83 C79 1.413 . S
H84 C89 0.930 . S
H85 C92 0.930 . S
H86 C94 0.930 . S
H87 C88 1.016 . S
C88 H87 1.016 . S
C88 N95 1.286 . S
C89 H84 0.930 . S
C89 C90 1.397 . S
C89 C91 1.361 . S
C90 C89 1.397 . S
C90 C94 1.390 . S
C91 C89 1.361 . S
C91 C92 1.393 . S
C91 N95 1.413 . S
C92 H85 0.930 . S
C92 C91 1.393 . S
C92 C93 1.399 . S
C93 C92 1.399 . S
C93 C94 1.381 . S
C94 H86 0.930 . S
C94 C90 1.390 . S
C94 C93 1.381 . S
N95 C88 1.286 . S
N95 C91 1.413 . S
Tb96 C105 2.764 . S
Tb96 O106 2.325 . S
Tb96 O109 2.303 1_655 S
Tb96 O113 2.322 1_545 S
Tb96 O114 2.349 . S
Tb96 O117 2.415 . S
Tb96 O118 2.399 . S
Tb97 O107 2.322 1_565 S
Tb97 O108 2.349 . S
Tb97 O110 2.415 . S
Tb97 O111 2.399 . S
Tb97 O112 2.325 . S
Tb97 O115 2.303 1_455 S
Tb97 C126 2.764 . S
C98 O114 1.264 . S
C98 O115 1.256 1_545 S
C99 C102 1.358 . S
C99 C103 1.332 . S
C99 C105 1.504 . S
C100 C101 1.373 . S
C100 C104 1.308 . S
C101 C100 1.373 . S
C101 C102 1.429 . S
C101 H128 0.932 . S
C102 C99 1.358 . S
C102 C101 1.429 . S
C102 H129 0.930 . S
C103 C99 1.332 . S
C103 C104 1.394 . S
C103 H130 0.932 1_655 S
C104 C100 1.308 . S
C104 C103 1.394 . S
C104 H131 0.929 1_655 S
C105 Tb96 2.764 . S
C105 C99 1.504 . S
C105 O117 1.239 . S
C105 O118 1.263 . S
O106 Tb96 2.325 . S
O106 C116 1.236 1_655 S
O107 Tb97 2.322 1_545 S
O107 C116 1.257 . S
O108 Tb97 2.349 . S
O108 C119 1.264 1_565 S
O109 Tb96 2.303 1_455 S
O109 C119 1.256 . S
O110 Tb97 2.415 . S
O110 C126 1.239 . S
O111 Tb97 2.399 . S
O111 C126 1.263 . S
O112 Tb97 2.325 . S
O112 C127 1.236 1_455 S
O113 Tb96 2.322 1_565 S
O113 C127 1.257 . S
O114 Tb96 2.349 . S
O114 C98 1.264 . S
O115 Tb97 2.303 1_655 S
O115 C98 1.256 1_565 S
C116 O106 1.236 1_455 S
C116 O107 1.257 . S
O117 Tb96 2.415 . S
O117 C105 1.239 . S
O118 Tb96 2.399 . S
O118 C105 1.263 . S
C119 O108 1.264 1_545 S
C119 O109 1.256 . S
C120 C123 1.358 . S
C120 C124 1.332 . S
C120 C126 1.504 1_554 S
C121 C122 1.373 . S
C121 C125 1.308 . S
C122 C121 1.373 . S
C122 C123 1.429 . S
C122 H132 0.932 . S
C123 C120 1.358 . S
C123 C122 1.429 . S
C123 H133 0.930 . S
C124 C120 1.332 . S
C124 C125 1.394 . S
C124 H134 0.932 1_455 S
C125 C121 1.308 . S
C125 C124 1.394 . S
C125 H135 0.929 1_455 S
C126 Tb97 2.764 . S
C126 O110 1.239 . S
C126 O111 1.263 . S
C126 C120 1.504 1_556 S
C127 O112 1.236 1_655 S
C127 O113 1.257 . S
H128 C101 0.932 . S
H129 C102 0.930 . S
H130 C103 0.932 1_455 S
H131 C104 0.929 1_455 S
H132 C122 0.932 . S
H133 C123 0.930 . S
H134 C124 0.932 1_655 S
H135 C125 0.929 1_655 S
Tb136 C145 2.764 . S
Tb136 O146 2.325 . S
Tb136 O149 2.303 1_565 S
Tb136 O153 2.322 . S
Tb136 O154 2.349 . S
Tb136 O157 2.415 1_565 S
Tb136 O158 2.399 . S
Tb137 O147 2.322 . S
Tb137 O148 2.349 . S
Tb137 O150 2.415 1_545 S
Tb137 O151 2.399 1_556 S
Tb137 O152 2.325 . S
Tb137 O155 2.303 1_545 S
Tb137 C166 2.764 1_556 S
C138 O154 1.261 . S
C138 O155 1.257 . S
C139 C142 1.358 . S
C139 C143 1.332 1_565 S
C139 C145 1.504 . S
C140 C141 1.373 . S
C140 C144 1.308 1_565 S
C141 C140 1.373 . S
C141 C142 1.429 . S
C141 H168 0.932 . S
C142 C139 1.358 . S
C142 C141 1.429 . S
C142 H169 0.930 . S
C143 C139 1.332 1_545 S
C143 C144 1.394 . S
C143 H170 0.932 . S
C144 C140 1.308 1_545 S
C144 C143 1.394 . S
C144 H171 0.929 . S
C145 Tb136 2.764 . S
C145 C139 1.504 . S
C145 O157 1.239 1_565 S
C145 O158 1.263 . S
O146 Tb136 2.325 . S
O146 C156 1.236 1_565 S
O147 Tb137 2.322 . S
O147 C156 1.257 . S
O148 Tb137 2.349 . S
O148 C159 1.261 . S
O149 Tb136 2.303 1_545 S
O149 C159 1.257 . S
O150 Tb137 2.415 1_565 S
O150 C166 1.239 1_566 S
O151 Tb137 2.399 1_554 S
O151 C166 1.263 . S
O152 Tb137 2.325 . S
O152 C167 1.236 1_545 S
O153 Tb136 2.322 . S
O153 C167 1.257 . S
O154 Tb136 2.349 . S
O154 C138 1.261 . S
O155 Tb137 2.303 1_565 S
O155 C138 1.257 . S
C156 O146 1.236 1_545 S
C156 O147 1.257 . S
O157 Tb136 2.415 1_545 S
O157 C145 1.239 1_545 S
O158 Tb136 2.399 . S
O158 C145 1.263 . S
C159 O148 1.261 . S
C159 O149 1.257 . S
C160 C163 1.358 . S
C160 C164 1.332 1_545 S
C160 C166 1.504 . S
C161 C162 1.373 . S
C161 C165 1.308 1_545 S
C162 C161 1.373 . S
C162 C163 1.429 . S
C162 H172 0.932 . S
C163 C160 1.358 . S
C163 C162 1.429 . S
C163 H173 0.930 . S
C164 C160 1.332 1_565 S
C164 C165 1.394 . S
C164 H174 0.932 . S
C165 C161 1.308 1_565 S
C165 C164 1.394 . S
C165 H175 0.929 . S
C166 Tb137 2.764 1_554 S
C166 O150 1.239 1_544 S
C166 O151 1.263 . S
C166 C160 1.504 . S
C167 O152 1.236 1_565 S
C167 O153 1.257 . S
H168 C141 0.932 . S
H169 C142 0.930 . S
H170 C143 0.932 . S
H171 C144 0.929 . S
H172 C162 0.932 . S
H173 C163 0.930 . S
H174 C164 0.932 . S
H175 C165 0.929 . S
Tb176 C185 2.764 1_556 S
Tb176 O186 2.325 . S
Tb176 O189 2.303 . S
Tb176 O193 2.322 . S
Tb176 O194 2.349 . S
Tb176 O197 2.415 1_556 S
Tb176 O198 2.399 . S
Tb177 O187 2.322 . S
Tb177 O188 2.349 . S
Tb177 O190 2.415 . S
Tb177 O191 2.399 . S
Tb177 O192 2.325 . S
Tb177 O195 2.303 . S
Tb177 C206 2.764 . S
C178 O194 1.261 . S
C178 O195 1.257 . S
C179 C182 1.358 . S
C179 C183 1.332 . S
C179 C185 1.504 . S
C180 C181 1.373 . S
C180 C184 1.308 . S
C181 C180 1.373 . S
C181 C182 1.429 . S
C181 H208 0.932 . S
C182 C179 1.358 . S
C182 C181 1.429 . S
C182 H209 0.930 . S
C183 C179 1.332 . S
C183 C184 1.394 . S
C183 H210 0.932 . S
C184 C180 1.308 . S
C184 C183 1.394 . S
C184 H211 0.929 . S
C185 Tb176 2.764 1_554 S
C185 C179 1.504 . S
C185 O197 1.239 . S
C185 O198 1.263 1_554 S
O186 Tb176 2.325 . S
O186 C196 1.236 . S
O187 Tb177 2.322 . S
O187 C196 1.257 . S
O188 Tb177 2.349 . S
O188 C199 1.261 . S
O189 Tb176 2.303 . S
O189 C199 1.257 . S
O190 Tb177 2.415 . S
O190 C206 1.239 . S
O191 Tb177 2.399 . S
O191 C206 1.263 . S
O192 Tb177 2.325 . S
O192 C207 1.236 . S
O193 Tb176 2.322 . S
O193 C207 1.257 . S
O194 Tb176 2.349 . S
O194 C178 1.261 . S
O195 Tb177 2.303 . S
O195 C178 1.257 . S
C196 O186 1.236 . S
C196 O187 1.257 . S
O197 Tb176 2.415 1_554 S
O197 C185 1.239 . S
O198 Tb176 2.399 . S
O198 C185 1.263 1_556 S
C199 O188 1.261 . S
C199 O189 1.257 . S
C200 C203 1.358 . S
C200 C204 1.332 . S
C200 C206 1.504 . S
C201 C202 1.373 . S
C201 C205 1.308 . S
C202 C201 1.373 . S
C202 C203 1.429 . S
C202 H212 0.932 . S
C203 C200 1.358 . S
C203 C202 1.429 . S
C203 H213 0.930 . S
C204 C200 1.332 . S
C204 C205 1.394 . S
C204 H214 0.932 . S
C205 C201 1.308 . S
C205 C204 1.394 . S
C205 H215 0.929 . S
C206 Tb177 2.764 . S
C206 O190 1.239 . S
C206 O191 1.263 . S
C206 C200 1.504 . S
C207 O192 1.236 . S
C207 O193 1.257 . S
H208 C181 0.932 . S
H209 C182 0.930 . S
H210 C183 0.932 . S
H211 C184 0.929 . S
H212 C202 0.932 . S
H213 C203 0.930 . S
H214 C204 0.932 . S
H215 C205 0.929 . S
Tb216 C225 2.764 . S
Tb216 O226 2.325 . S
Tb216 O229 2.303 . S
Tb216 O233 2.322 1_455 S
Tb216 O234 2.349 . S
Tb216 O237 2.415 . S
Tb216 O238 2.399 . S
Tb217 O227 2.322 1_655 S
Tb217 O228 2.349 . S
Tb217 O230 2.415 1_556 S
Tb217 O231 2.399 . S
Tb217 O232 2.325 . S
Tb217 O235 2.303 . S
Tb217 C246 2.764 1_556 S
C218 O234 1.261 . S
C218 O235 1.257 1_455 S
C219 C222 1.358 . S
C219 C223 1.332 . S
C219 C225 1.504 . S
C220 C221 1.373 . S
C220 C224 1.308 . S
C221 C220 1.373 . S
C221 C222 1.429 . S
C221 H248 0.932 . S
C222 C219 1.358 . S
C222 C221 1.429 . S
C222 H249 0.930 . S
C223 C219 1.332 . S
C223 C224 1.394 . S
C223 H250 0.932 . S
C224 C220 1.308 . S
C224 C223 1.394 . S
C224 H251 0.929 . S
C225 Tb216 2.764 . S
C225 C219 1.504 . S
C225 O237 1.239 . S
C225 O238 1.263 . S
O226 Tb216 2.325 . S
O226 C236 1.236 . S
O227 Tb217 2.322 1_455 S
O227 C236 1.257 . S
O228 Tb217 2.349 . S
O228 C239 1.261 . S
O229 Tb216 2.303 . S
O229 C239 1.257 1_455 S
O230 Tb217 2.415 1_554 S
O230 C246 1.239 . S
O231 Tb217 2.399 . S
O231 C246 1.263 1_556 S
O232 Tb217 2.325 . S
O232 C247 1.236 . S
O233 Tb216 2.322 1_655 S
O233 C247 1.257 . S
O234 Tb216 2.349 . S
O234 C218 1.261 . S
O235 Tb217 2.303 . S
O235 C218 1.257 1_655 S
C236 O226 1.236 . S
C236 O227 1.257 . S
O237 Tb216 2.415 . S
O237 C225 1.239 . S
O238 Tb216 2.399 . S
O238 C225 1.263 . S
C239 O228 1.261 . S
C239 O229 1.257 1_655 S
C240 C243 1.358 . S
C240 C244 1.332 . S
C240 C246 1.504 . S
C241 C242 1.373 . S
C241 C245 1.308 . S
C242 C241 1.373 . S
C242 C243 1.429 . S
C242 H252 0.932 . S
C243 C240 1.358 . S
C243 C242 1.429 . S
C243 H253 0.930 . S
C244 C240 1.332 . S
C244 C245 1.394 . S
C244 H254 0.932 . S
C245 C241 1.308 . S
C245 C244 1.394 . S
C245 H255 0.929 . S
C246 Tb217 2.764 1_554 S
C246 O230 1.239 . S
C246 O231 1.263 1_554 S
C246 C240 1.504 . S
C247 O232 1.236 . S
C247 O233 1.257 . S
H248 C221 0.932 . S
H249 C222 0.930 . S
H250 C223 0.932 . S
H251 C224 0.929 . S
H252 C242 0.932 . S
H253 C243 0.930 . S
H254 C244 0.932 . S
H255 C245 0.929 . S
H256 C262 0.930 . S
H257 C266 0.930 . S
H258 C271 0.929 . S
H259 C269 0.929 . S
H260 C264 0.929 . S
H261 C270 0.929 . S
C262 H256 0.930 . S
C262 C263 1.365 1_565 S
C262 C270 1.378 . S
C263 C262 1.365 1_545 S
C263 C271 1.435 . S
C264 H260 0.929 . S
C264 C266 1.378 . S
C264 C268 1.350 . S
C265 C268 1.459 . S
C265 C270 1.315 1_545 S
C265 N273 1.470 . S
C266 H257 0.930 . S
C266 C264 1.378 . S
C266 C267 1.367 . S
C267 C266 1.367 . S
C267 C269 1.433 1_545 S
C268 C264 1.350 . S
C268 C265 1.459 . S
C268 N272 1.427 1_545 S
C269 H259 0.929 . S
C269 C267 1.433 1_565 S
C269 N272 1.384 . S
C270 H261 0.929 . S
C270 C262 1.378 . S
C270 C265 1.315 1_565 S
C271 H258 0.929 . S
C271 C263 1.435 . S
C271 N273 1.384 . S
N272 C268 1.427 1_565 S
N272 C269 1.384 . S
N273 C265 1.470 . S
N273 C271 1.384 . S
H274 C280 0.930 . S
H275 C284 0.930 . S
H276 C289 0.929 . S
H277 C287 0.929 . S
H278 C282 0.929 . S
H279 C288 0.929 . S
C280 H274 0.930 . S
C280 C281 1.367 . S
C280 C288 1.378 . S
C281 C280 1.367 . S
C281 C289 1.433 . S
C282 H278 0.929 . S
C282 C284 1.378 . S
C282 C286 1.350 . S
C283 C286 1.463 . S
C283 C288 1.350 . S
C283 N291 1.427 . S
C284 H275 0.930 . S
C284 C282 1.378 . S
C284 C285 1.367 . S
C285 C284 1.367 . S
C285 C287 1.433 . S
C286 C282 1.350 . S
C286 C283 1.463 . S
C286 N290 1.427 . S
C287 H277 0.929 . S
C287 C285 1.433 . S
C287 N290 1.384 . S
C288 H279 0.929 . S
C288 C280 1.378 . S
C288 C283 1.350 . S
C289 H276 0.929 . S
C289 C281 1.433 . S
C289 N291 1.384 . S
N290 C286 1.427 . S
N290 C287 1.384 . S
N291 C283 1.427 . S
N291 C289 1.384 . S
H292 C298 0.930 . S
H293 C302 0.930 . S
H294 C307 0.929 . S
H295 C305 0.929 . S
H296 C300 0.929 . S
H297 C306 0.929 . S
C298 H292 0.930 . S
C298 C299 1.367 . S
C298 C306 1.378 . S
C299 C298 1.367 . S
C299 C307 1.433 . S
C300 H296 0.929 . S
C300 C302 1.378 . S
C300 C304 1.350 . S
C301 C304 1.463 . S
C301 C306 1.350 . S
C301 N309 1.427 . S
C302 H293 0.930 . S
C302 C300 1.378 . S
C302 C303 1.367 . S
C303 C302 1.367 . S
C303 C305 1.433 . S
C304 C300 1.350 . S
C304 C301 1.463 . S
C304 N308 1.427 . S
C305 H295 0.929 . S
C305 C303 1.433 . S
C305 N308 1.384 . S
C306 H297 0.929 . S
C306 C298 1.378 . S
C306 C301 1.350 . S
C307 H294 0.929 . S
C307 C299 1.433 . S
C307 N309 1.384 . S
N308 C304 1.427 . S
N308 C305 1.384 . S
N309 C301 1.427 . S
N309 C307 1.384 . S
H310 C316 0.935 . S
H311 C320 0.930 . S
H312 C325 0.929 . S
H313 C323 0.932 . S
H314 C318 0.929 . S
H315 C324 0.933 . S
C316 H310 0.935 . S
C316 C317 1.363 1_655 S
C316 C324 1.378 . S
C317 C316 1.363 1_455 S
C317 C325 1.433 . S
C318 H314 0.929 . S
C318 C320 1.378 . S
C318 C322 1.350 . S
C319 C322 1.463 . S
C319 C324 1.348 1_455 S
C319 N327 1.427 . S
C320 H311 0.930 . S
C320 C318 1.378 . S
C320 C321 1.367 . S
C321 C320 1.367 . S
C321 C323 1.431 1_455 S
C322 C318 1.350 . S
C322 C319 1.463 . S
C322 N326 1.425 1_455 S
C323 H313 0.932 . S
C323 C321 1.431 1_655 S
C323 N326 1.384 . S
C324 H315 0.933 . S
C324 C316 1.378 . S
C324 C319 1.348 1_655 S
C325 H312 0.929 . S
C325 C317 1.433 . S
C325 N327 1.384 . S
N326 C322 1.425 1_655 S
N326 C323 1.384 . S
N327 C319 1.427 . S
N327 C325 1.384 . S
H328 C334 0.930 . S
H329 C338 0.930 . S
H330 C343 0.929 . S
H331 C341 0.929 . S
H332 C336 0.929 . S
H333 C342 0.929 . S
C334 H328 0.930 . S
C334 C335 1.391 . S
C334 C342 1.378 . S
C335 C334 1.391 . S
C335 C343 1.404 1_565 S
C336 H332 0.929 . S
C336 C338 1.378 . S
C336 C340 1.350 1_545 S
C337 C340 1.463 . S
C337 C342 1.350 . S
C337 N345 1.427 1_565 S
C338 H329 0.930 . S
C338 C336 1.378 . S
C338 C339 1.367 1_544 S
C339 C338 1.367 1_566 S
C339 C341 1.433 . S
C340 C336 1.350 1_565 S
C340 C337 1.463 . S
C340 N344 1.427 . S
C341 H331 0.929 . S
C341 C339 1.433 . S
C341 N344 1.384 1_556 S
C342 H333 0.929 . S
C342 C334 1.378 . S
C342 C337 1.350 . S
C343 H330 0.929 . S
C343 C335 1.404 1_545 S
C343 N345 1.384 . S
N344 C340 1.427 . S
N344 C341 1.384 1_554 S
N345 C337 1.427 1_545 S
N345 C343 1.384 . S
H346 C352 0.930 . S
H347 C356 0.930 . S
H348 C361 0.929 . S
H349 C359 0.929 . S
H350 C354 0.929 . S
H351 C360 0.929 1_554 S
C352 H346 0.930 . S
C352 C353 1.367 1_554 S
C352 C360 1.378 1_554 S
C353 C352 1.367 1_556 S
C353 C361 1.433 . S
C354 H350 0.929 . S
C354 C356 1.378 . S
C354 C358 1.350 . S
C355 C358 1.463 . S
C355 C360 1.350 . S
C355 N363 1.427 . S
C356 H347 0.930 . S
C356 C354 1.378 . S
C356 C357 1.367 . S
C357 C356 1.367 . S
C357 C359 1.433 . S
C358 C354 1.350 . S
C358 C355 1.463 . S
C358 N362 1.427 . S
C359 H349 0.929 . S
C359 C357 1.433 . S
C359 N362 1.384 . S
C360 H351 0.929 1_556 S
C360 C352 1.378 1_556 S
C360 C355 1.350 . S
C361 H348 0.929 . S
C361 C353 1.433 . S
C361 N363 1.384 . S
N362 C358 1.427 . S
N362 C359 1.384 . S
N363 C355 1.427 . S
N363 C361 1.384 . S
H364 C370 0.930 . S
H365 C374 0.930 . S
H366 C379 0.929 . S
H367 C377 0.929 1_556 S
H368 C372 0.929 . S
H369 C378 0.929 . S
C370 H364 0.930 . S
C370 C371 1.367 . S
C370 C378 1.378 . S
C371 C370 1.367 . S
C371 C379 1.433 . S
C372 H368 0.929 . S
C372 C374 1.378 . S
C372 C376 1.350 . S
C373 C376 1.463 . S
C373 C378 1.350 . S
C373 N381 1.427 . S
C374 H365 0.930 . S
C374 C372 1.378 . S
C374 C375 1.367 1_554 S
C375 C374 1.367 1_556 S
C375 C377 1.433 1_556 S
C376 C372 1.350 . S
C376 C373 1.463 . S
C376 N380 1.427 . S
C377 H367 0.929 1_554 S
C377 C375 1.433 1_554 S
C377 N380 1.384 . S
C378 H369 0.929 . S
C378 C370 1.378 . S
C378 C373 1.350 . S
C379 H366 0.929 . S
C379 C371 1.433 . S
C379 N381 1.384 . S
N380 C376 1.427 . S
N380 C377 1.384 . S
N381 C373 1.427 . S
N381 C379 1.384 . S
H382 C388 0.930 . S
H383 C392 0.930 . S
H384 C397 0.929 . S
H385 C395 0.929 . S
H386 C390 0.929 . S
H387 C396 0.929 . S
C388 H382 0.930 . S
C388 C389 1.364 . S
C388 C396 1.378 . S
C389 C388 1.364 . S
C389 C397 1.436 1_455 S
C390 H386 0.929 . S
C390 C392 1.378 . S
C390 C394 1.350 . S
C391 C394 1.463 1_455 S
C391 C396 1.348 . S
C391 N399 1.429 1_455 S
C392 H383 0.930 . S
C392 C390 1.378 . S
C392 C393 1.367 1_554 S
C393 C392 1.367 1_556 S
C393 C395 1.433 1_655 S
C394 C390 1.350 . S
C394 C391 1.463 1_655 S
C394 N398 1.427 1_655 S
C395 H385 0.929 . S
C395 C393 1.433 1_455 S
C395 N398 1.384 1_556 S
C396 H387 0.929 . S
C396 C388 1.378 . S
C396 C391 1.348 . S
C397 H384 0.929 . S
C397 C389 1.436 1_655 S
C397 N399 1.384 . S
N398 C394 1.427 1_455 S
N398 C395 1.384 1_554 S
N399 C391 1.429 1_655 S
N399 C397 1.384 . S
H400 C406 0.930 . S
H401 C410 0.930 . S
H402 C415 0.929 . S
H403 C413 0.960 . S
H404 C408 0.929 . S
H405 C414 0.929 . S
C406 H400 0.930 . S
C406 C407 1.367 . S
C406 C414 1.378 . S
C407 C406 1.367 . S
C407 C415 1.433 1_455 S
C408 H404 0.929 . S
C408 C410 1.378 . S
C408 C412 1.350 . S
C409 C412 1.463 . S
C409 C414 1.350 1_655 S
C409 N417 1.427 . S
C410 H401 0.930 . S
C410 C408 1.378 . S
C410 C411 1.367 . S
C411 C410 1.367 . S
C411 C413 1.433 . S
C412 C408 1.350 . S
C412 C409 1.463 . S
C412 N416 1.427 . S
C413 H403 0.960 . S
C413 C411 1.433 . S
C413 N416 1.384 . S
C414 H405 0.929 . S
C414 C406 1.378 . S
C414 C409 1.350 1_455 S
C415 H402 0.929 . S
C415 C407 1.433 1_655 S
C415 N417 1.384 . S
N416 C412 1.427 . S
N416 C413 1.384 . S
N417 C409 1.427 . S
N417 C415 1.384 . S
H418 C424 0.930 . S
H419 C428 0.930 . S
H420 C433 0.929 . S
H421 C431 0.929 . S
H422 C426 0.929 . S
H423 C432 0.929 . S
C424 H418 0.930 . S
C424 C425 1.367 . S
C424 C432 1.378 . S
C425 C424 1.367 . S
C425 C433 1.433 1_545 S
C426 H422 0.929 . S
C426 C428 1.378 . S
C426 C430 1.350 . S
C427 C430 1.463 . S
C427 C432 1.350 1_565 S
C427 N435 1.427 . S
C428 H419 0.930 . S
C428 C426 1.378 . S
C428 C429 1.367 . S
C429 C428 1.367 . S
C429 C431 1.433 1_565 S
C430 C426 1.350 . S
C430 C427 1.463 . S
C430 N434 1.427 1_565 S
C431 H421 0.929 . S
C431 C429 1.433 1_545 S
C431 N434 1.384 . S
C432 H423 0.929 . S
C432 C424 1.378 . S
C432 C427 1.350 1_545 S
C433 H420 0.929 . S
C433 C425 1.433 1_565 S
C433 N435 1.384 . S
N434 C430 1.427 1_545 S
N434 C431 1.384 . S
N435 C427 1.427 . S
N435 C433 1.384 . S
H436 C442 0.930 . S
H437 C446 0.930 . S
H438 C451 0.929 . S
H439 C449 0.929 . S
H440 C444 0.929 . S
H441 C450 0.929 . S
C442 H436 0.930 . S
C442 C443 1.367 . S
C442 C450 1.378 . S
C443 C442 1.367 . S
C443 C451 1.433 . S
C444 H440 0.929 . S
C444 C446 1.378 . S
C444 C448 1.350 . S
C445 C448 1.463 . S
C445 C450 1.350 . S
C445 N453 1.427 . S
C446 H437 0.930 . S
C446 C444 1.378 . S
C446 C447 1.367 . S
C447 C446 1.367 . S
C447 C449 1.433 . S
C448 C444 1.350 . S
C448 C445 1.463 . S
C448 N452 1.427 . S
C449 H439 0.929 . S
C449 C447 1.433 . S
C449 N452 1.384 . S
C450 H441 0.929 . S
C450 C442 1.378 . S
C450 C445 1.350 . S
C451 H438 0.929 . S
C451 C443 1.433 . S
C451 N453 1.384 . S
N452 C448 1.427 . S
N452 C449 1.384 . S
N453 C445 1.427 . S
N453 C451 1.384 . S
H454 C460 0.930 . S
H455 C464 0.930 . S
H456 C469 0.929 . S
H457 C467 0.929 . S
H458 C462 0.929 . S
H459 C468 0.929 . S
C460 H454 0.930 . S
C460 C461 1.367 . S
C460 C468 1.378 . S
C461 C460 1.367 . S
C461 C469 1.433 . S
C462 H458 0.929 . S
C462 C464 1.378 . S
C462 C466 1.350 . S
C463 C466 1.463 . S
C463 C468 1.350 . S
C463 N471 1.427 . S
C464 H455 0.930 . S
C464 C462 1.378 . S
C464 C465 1.367 . S
C465 C464 1.367 . S
C465 C467 1.433 . S
C466 C462 1.350 . S
C466 C463 1.463 . S
C466 N470 1.427 . S
C467 H457 0.929 . S
C467 C465 1.433 . S
C467 N470 1.384 . S
C468 H459 0.929 . S
C468 C460 1.378 . S
C468 C463 1.350 . S
C469 H456 0.929 . S
C469 C461 1.433 . S
C469 N471 1.384 . S
N470 C466 1.427 . S
N470 C467 1.384 . S
N471 C463 1.427 . S
N471 C469 1.384 . S
H472 C478 0.930 . S
H473 C482 0.930 . S
H474 C487 0.929 . S
H475 C485 0.929 . S
H476 C480 0.929 . S
H477 C486 0.929 . S
C478 H472 0.930 . S
C478 C479 1.385 . S
C478 C486 1.378 . S
C479 C478 1.385 . S
C479 C487 1.423 1_455 S
C480 H476 0.929 . S
C480 C482 1.378 . S
C480 C484 1.350 . S
C481 C484 1.463 . S
C481 C486 1.350 . S
C481 N489 1.410 1_455 S
C482 H473 0.930 . S
C482 C480 1.378 . S
C482 C483 1.367 . S
C483 C482 1.367 . S
C483 C485 1.433 . S
C484 C480 1.350 . S
C484 C481 1.463 . S
C484 N488 1.427 . S
C485 H475 0.929 . S
C485 C483 1.433 . S
C485 N488 1.384 . S
C486 H477 0.929 . S
C486 C478 1.378 . S
C486 C481 1.350 . S
C487 H474 0.929 . S
C487 C479 1.423 1_655 S
C487 N489 1.392 . S
N488 C484 1.427 . S
N488 C485 1.384 . S
N489 C481 1.410 1_655 S
N489 C487 1.392 . S
H490 C496 0.930 . S
H491 C500 0.930 . S
H492 C505 0.929 . S
H493 C503 0.929 . S
H494 C498 0.929 . S
H495 C504 0.929 . S
C496 H490 0.930 . S
C496 C497 1.367 . S
C496 C504 1.378 . S
C497 C496 1.367 . S
C497 C505 1.433 1_565 S
C498 H494 0.929 . S
C498 C500 1.378 . S
C498 C502 1.350 . S
C499 C502 1.463 . S
C499 C504 1.350 1_545 S
C499 N507 1.427 . S
C500 H491 0.930 . S
C500 C498 1.378 . S
C500 C501 1.367 . S
C501 C500 1.367 . S
C501 C503 1.433 1_545 S
C502 C498 1.350 . S
C502 C499 1.463 . S
C502 N506 1.427 1_545 S
C503 H493 0.929 . S
C503 C501 1.433 1_565 S
C503 N506 1.384 . S
C504 H495 0.929 . S
C504 C496 1.378 . S
C504 C499 1.350 1_565 S
C505 H492 0.929 . S
C505 C497 1.433 1_545 S
C505 N507 1.384 . S
N506 C502 1.427 1_565 S
N506 C503 1.384 . S
N507 C499 1.427 . S
N507 C505 1.384 . S
H508 C514 0.930 1_554 S
H509 C518 0.930 . S
H510 C523 0.929 . S
H511 C521 0.922 1_554 S
H512 C516 0.929 . S
H513 C522 0.929 1_554 S
C514 H508 0.930 1_556 S
C514 C515 1.367 . S
C514 C522 1.378 . S
C515 C514 1.367 . S
C515 C523 1.433 . S
C516 H512 0.929 . S
C516 C518 1.378 . S
C516 C520 1.350 . S
C517 C520 1.463 . S
C517 C522 1.350 . S
C517 N525 1.427 . S
C518 H509 0.930 . S
C518 C516 1.378 . S
C518 C519 1.367 . S
C519 C518 1.367 . S
C519 C521 1.433 . S
C520 C516 1.350 . S
C520 C517 1.463 . S
C520 N524 1.427 . S
C521 H511 0.922 1_556 S
C521 C519 1.433 . S
C521 N524 1.384 . S
C522 H513 0.929 1_556 S
C522 C514 1.378 . S
C522 C517 1.350 . S
C523 H510 0.929 . S
C523 C515 1.433 . S
C523 N525 1.384 . S
N524 C520 1.427 . S
N524 C521 1.384 . S
N525 C517 1.427 . S
N525 C523 1.384 . S
H526 C532 0.930 . S
H527 C536 0.930 . S
H528 C541 0.929 . S
H529 C539 0.929 . S
H530 C534 0.929 . S
H531 C540 0.929 . S
C532 H526 0.930 . S
C532 C533 1.367 . S
C532 C540 1.378 . S
C533 C532 1.367 . S
C533 C541 1.433 . S
C534 H530 0.929 . S
C534 C536 1.378 . S
C534 C538 1.350 . S
C535 C538 1.463 . S
C535 C540 1.350 . S
C535 N543 1.427 . S
C536 H527 0.930 . S
C536 C534 1.378 . S
C536 C537 1.367 . S
C537 C536 1.367 . S
C537 C539 1.433 . S
C538 C534 1.350 . S
C538 C535 1.463 . S
C538 N542 1.427 . S
C539 H529 0.929 . S
C539 C537 1.433 . S
C539 N542 1.384 . S
C540 H531 0.929 . S
C540 C532 1.378 . S
C540 C535 1.350 . S
C541 H528 0.929 . S
C541 C533 1.433 . S
C541 N543 1.384 . S
N542 C538 1.427 . S
N542 C539 1.384 . S
N543 C535 1.427 . S
N543 C541 1.384 . S
H544 C550 0.930 . S
H545 C554 0.931 . S
H546 C559 0.929 . S
H547 C557 0.929 . S
H548 C552 0.929 1_655 S
H549 C558 0.929 . S
C550 H544 0.930 . S
C550 C551 1.367 1_556 S
C550 C558 1.378 . S
C551 C550 1.367 1_554 S
C551 C559 1.433 1_455 S
C552 H548 0.929 1_455 S
C552 C554 1.378 . S
C552 C556 1.350 1_554 S
C553 C556 1.463 1_554 S
C553 C558 1.350 1_554 S
C553 N561 1.427 1_455 S
C554 H545 0.931 . S
C554 C552 1.378 . S
C554 C555 1.367 1_554 S
C555 C554 1.367 1_556 S
C555 C557 1.433 . S
C556 C552 1.350 1_556 S
C556 C553 1.463 1_556 S
C556 N560 1.427 . S
C557 H547 0.929 . S
C557 C555 1.433 . S
C557 N560 1.384 . S
C558 H549 0.929 . S
C558 C550 1.378 . S
C558 C553 1.350 1_556 S
C559 H546 0.929 . S
C559 C551 1.433 1_655 S
C559 N561 1.384 . S
N560 C556 1.427 . S
N560 C557 1.384 . S
N561 C553 1.427 1_655 S
N561 C559 1.384 . S
H562 C568 0.930 . S
H563 C572 0.930 . S
H564 C577 0.929 . S
H565 C575 0.929 . S
H566 C570 0.929 . S
H567 C576 0.929 . S
C568 H562 0.930 . S
C568 C569 1.367 . S
C568 C576 1.378 . S
C569 C568 1.367 . S
C569 C577 1.433 1_545 S
C570 H566 0.929 . S
C570 C572 1.378 . S
C570 C574 1.350 1_565 S
C571 C574 1.463 . S
C571 C576 1.350 1_556 S
C571 N579 1.427 1_545 S
C572 H563 0.930 . S
C572 C570 1.378 . S
C572 C573 1.367 1_565 S
C573 C572 1.367 1_545 S
C573 C575 1.433 . S
C574 C570 1.350 1_545 S
C574 C571 1.463 . S
C574 N578 1.427 . S
C575 H565 0.929 . S
C575 C573 1.433 . S
C575 N578 1.384 . S
C576 H567 0.929 . S
C576 C568 1.378 . S
C576 C571 1.350 1_554 S
C577 H564 0.929 . S
C577 C569 1.433 1_565 S
C577 N579 1.384 1_554 S
N578 C574 1.427 . S
N578 C575 1.384 . S
N579 C571 1.427 1_565 S
N579 C577 1.384 1_556 S
H580 C586 0.930 . S
H581 C590 0.930 . S
H582 C595 0.929 . S
H583 C593 0.929 . S
H584 C588 0.929 . S
H585 C594 0.929 . S
C586 H580 0.930 . S
C586 C587 1.367 . S
C586 C594 1.378 . S
C587 C586 1.367 . S
C587 C595 1.433 . S
C588 H584 0.929 . S
C588 C590 1.378 . S
C588 C592 1.350 . S
C589 C592 1.463 . S
C589 C594 1.350 . S
C589 N597 1.427 . S
C590 H581 0.930 . S
C590 C588 1.378 . S
C590 C591 1.367 . S
C591 C590 1.367 . S
C591 C593 1.433 . S
C592 C588 1.350 . S
C592 C589 1.463 . S
C592 N596 1.427 . S
C593 H583 0.929 . S
C593 C591 1.433 . S
C593 N596 1.384 . S
C594 H585 0.929 . S
C594 C586 1.378 . S
C594 C589 1.350 . S
C595 H582 0.929 . S
C595 C587 1.433 . S
C595 N597 1.384 . S
N596 C592 1.427 . S
N596 C593 1.384 . S
N597 C589 1.427 . S
N597 C595 1.384 . S
H598 C604 0.930 . S
H599 C608 0.930 . S
H600 C613 0.929 . S
H601 C611 0.929 . S
H602 C606 0.929 . S
H603 C612 0.929 . S
C604 H598 0.930 . S
C604 C605 1.367 1_556 S
C604 C612 1.378 . S
C605 C604 1.367 1_554 S
C605 C613 1.433 . S
C606 H602 0.929 . S
C606 C608 1.378 . S
C606 C610 1.350 . S
C607 C610 1.463 . S
C607 C612 1.350 . S
C607 N615 1.427 1_556 S
C608 H599 0.930 . S
C608 C606 1.378 . S
C608 C609 1.367 . S
C609 C608 1.367 . S
C609 C611 1.433 . S
C610 C606 1.350 . S
C610 C607 1.463 . S
C610 N614 1.427 . S
C611 H601 0.929 . S
C611 C609 1.433 . S
C611 N614 1.384 . S
C612 H603 0.929 . S
C612 C604 1.378 . S
C612 C607 1.350 . S
C613 H600 0.929 . S
C613 C605 1.433 . S
C613 N615 1.384 . S
N614 C610 1.427 . S
N614 C611 1.384 . S
N615 C607 1.427 1_554 S
N615 C613 1.384 . S
H616 C622 0.930 . S
H617 C626 0.930 . S
H618 C631 0.929 . S
H619 C629 0.929 1_455 S
H620 C624 0.929 . S
H621 C630 0.929 . S
C622 H616 0.930 . S
C622 C623 1.367 1_455 S
C622 C630 1.378 . S
C623 C622 1.367 1_655 S
C623 C631 1.433 . S
C624 H620 0.929 . S
C624 C626 1.378 . S
C624 C628 1.350 . S
C625 C628 1.463 . S
C625 C630 1.350 1_655 S
C625 N633 1.427 . S
C626 H617 0.930 . S
C626 C624 1.378 . S
C626 C627 1.367 . S
C627 C626 1.367 . S
C627 C629 1.433 . S
C628 C624 1.350 . S
C628 C625 1.463 . S
C628 N632 1.440 . S
C629 H619 0.929 1_655 S
C629 C627 1.433 . S
C629 N632 1.389 . S
C630 H621 0.929 . S
C630 C622 1.378 . S
C630 C625 1.350 1_455 S
C631 H618 0.929 . S
C631 C623 1.433 . S
C631 N633 1.384 . S
N632 C628 1.440 . S
N632 C629 1.389 . S
N633 C625 1.427 . S
N633 C631 1.384 . S
H634 C640 0.930 . S
H635 C644 0.930 . S
H636 C649 0.929 . S
H637 C647 0.929 . S
H638 C642 0.929 . S
H639 C648 0.929 . S
C640 H634 0.930 . S
C640 C641 1.367 . S
C640 C648 1.378 . S
C641 C640 1.367 . S
C641 C649 1.433 1_565 S
C642 H638 0.929 . S
C642 C644 1.378 . S
C642 C646 1.350 1_545 S
C643 C646 1.463 . S
C643 C648 1.350 . S
C643 N651 1.427 1_565 S
C644 H635 0.930 . S
C644 C642 1.378 . S
C644 C645 1.367 1_545 S
C645 C644 1.367 1_565 S
C645 C647 1.433 . S
C646 C642 1.350 1_565 S
C646 C643 1.463 . S
C646 N650 1.427 . S
C647 H637 0.929 . S
C647 C645 1.433 . S
C647 N650 1.384 . S
C648 H639 0.929 . S
C648 C640 1.378 . S
C648 C643 1.350 . S
C649 H636 0.929 . S
C649 C641 1.433 1_545 S
C649 N651 1.384 . S
N650 C646 1.427 . S
N650 C647 1.384 . S
N651 C643 1.427 1_545 S
N651 C649 1.384 . S
H652 C658 0.930 . S
H653 C662 0.930 . S
H654 C667 0.929 . S
H655 C665 0.929 . S
H656 C660 0.929 . S
H657 C666 0.929 . S
C658 H652 0.930 . S
C658 C659 1.367 . S
C658 C666 1.378 . S
C659 C658 1.367 . S
C659 C667 1.433 . S
C660 H656 0.929 . S
C660 C662 1.378 . S
C660 C664 1.350 . S
C661 C664 1.463 . S
C661 C666 1.350 . S
C661 N669 1.427 . S
C662 H653 0.930 . S
C662 C660 1.378 . S
C662 C663 1.367 . S
C663 C662 1.367 . S
C663 C665 1.433 . S
C664 C660 1.350 . S
C664 C661 1.463 . S
C664 N668 1.427 . S
C665 H655 0.929 . S
C665 C663 1.433 . S
C665 N668 1.384 . S
C666 H657 0.929 . S
C666 C658 1.378 . S
C666 C661 1.350 . S
C667 H654 0.929 . S
C667 C659 1.433 . S
C667 N669 1.384 . S
N668 C664 1.427 . S
N668 C665 1.384 . S
N669 C661 1.427 . S
N669 C667 1.384 . S
H670 C676 0.930 . S
H671 C680 0.930 . S
H672 C685 0.929 . S
H673 C683 0.929 . S
H674 C678 0.929 . S
H675 C684 0.929 . S
C676 H670 0.930 . S
C676 C677 1.367 . S
C676 C684 1.378 . S
C677 C676 1.367 . S
C677 C685 1.433 . S
C678 H674 0.929 . S
C678 C680 1.378 . S
C678 C682 1.350 . S
C679 C682 1.463 . S
C679 C684 1.350 . S
C679 N687 1.427 . S
C680 H671 0.930 . S
C680 C678 1.378 . S
C680 C681 1.367 . S
C681 C680 1.367 . S
C681 C683 1.433 . S
C682 C678 1.350 . S
C682 C679 1.463 . S
C682 N686 1.427 . S
C683 H673 0.929 . S
C683 C681 1.433 . S
C683 N686 1.384 . S
C684 H675 0.929 . S
C684 C676 1.378 . S
C684 C679 1.350 . S
C685 H672 0.929 . S
C685 C677 1.433 . S
C685 N687 1.384 . S
N686 C682 1.427 . S
N686 C683 1.384 . S
N687 C679 1.427 . S
N687 C685 1.384 . S
C263 C76 1.868 1_545 S
C267 C119 2.031 . S
C285 C159 1.733 . S
C281 C88 1.731 . S
C303 C178 2.037 . S
C299 C52 1.867 . S
C321 C239 1.435 1_455 S
C317 C64 1.330 . S
C339 C98 2.027 1_565 S
C335 C28 1.864 . S
C353 C40 1.744 . S
C357 C138 1.737 . S
C371 C4 1.880 . S
C375 C199 2.040 . S
C389 C16 1.335 1_455 S
C393 C218 1.438 1_655 S
C411 C100 0.871 . S
C407 C69 0.864 . S
C429 C140 0.378 . S
C425 C81 0.381 . S
C447 C196 0.929 . S
C443 C93 0.897 . S
C461 C57 0.458 . S
C465 C220 0.458 . S
C479 C21 0.866 . S
C483 C121 0.858 . S
C501 C161 0.380 . S
C497 C33 0.400 1_565 S
C519 C207 0.936 . S
C515 C45 0.864 . S
C533 C9 0.468 . S
C537 C241 0.455 . S
C551 C66 1.480 . S
C555 C116 1.612 . S
C569 C78 2.165 . S
C573 C156 2.371 . S
C591 C180 1.520 . S
C587 C90 1.501 . S
C609 C236 2.363 . S
C605 C54 2.166 . S
C623 C18 1.483 1_655 S
C627 C127 1.626 . S
C645 C167 2.373 . S
C641 C30 2.176 1_565 S
C663 C201 1.524 . S
C659 C42 1.518 . S
C677 C6 2.161 . S
C681 C247 2.358 . S
