# Generated by pormake.
# Topology anh, (6,3)-cn, num edge types: 1
# Building blocks:
#     Node 0, Type 0, BuildingBlock: BETDAH_clean_sbu_0, # of connection points: 6
#     Node 1, Type 0, BuildingBlock: BETDAH_clean_sbu_0, # of connection points: 6
#     Node 2, Type 0, BuildingBlock: BETDAH_clean_sbu_0, # of connection points: 6
#     Node 3, Type 1, BuildingBlock: QEWDON_clean_linker_0, # of connection points: 3
#     Node 4, Type 1, BuildingBlock: QEWDON_clean_linker_0, # of connection points: 3
#     Node 5, Type 1, BuildingBlock: QEWDON_clean_linker_0, # of connection points: 3
#     Node 6, Type 1, BuildingBlock: QEWDON_clean_linker_0, # of connection points: 3
#     Node 7, Type 1, BuildingBlock: QEWDON_clean_linker_0, # of connection points: 3
#     Node 8, Type 1, BuildingBlock: QEWDON_clean_linker_0, # of connection points: 3
#     Edge 9, Type (0, 1), BuildingBlock: AJUNOK_clean_linker_0, # of connection points: 2
#     Edge 10, Type (0, 1), BuildingBlock: AJUNOK_clean_linker_0, # of connection points: 2
#     Edge 11, Type (0, 1), BuildingBlock: AJUNOK_clean_linker_0, # of connection points: 2
#     Edge 12, Type (0, 1), BuildingBlock: AJUNOK_clean_linker_0, # of connection points: 2
#     Edge 13, Type (0, 1), BuildingBlock: AJUNOK_clean_linker_0, # of connection points: 2
#     Edge 14, Type (0, 1), BuildingBlock: AJUNOK_clean_linker_0, # of connection points: 2
#     Edge 15, Type (0, 1), BuildingBlock: AJUNOK_clean_linker_0, # of connection points: 2
#     Edge 16, Type (0, 1), BuildingBlock: AJUNOK_clean_linker_0, # of connection points: 2
#     Edge 17, Type (0, 1), BuildingBlock: AJUNOK_clean_linker_0, # of connection points: 2
#     Edge 18, Type (0, 1), BuildingBlock: AJUNOK_clean_linker_0, # of connection points: 2
#     Edge 19, Type (0, 1), BuildingBlock: AJUNOK_clean_linker_0, # of connection points: 2
#     Edge 20, Type (0, 1), BuildingBlock: AJUNOK_clean_linker_0, # of connection points: 2
#     Edge 21, Type (0, 1), BuildingBlock: AJUNOK_clean_linker_0, # of connection points: 2
#     Edge 22, Type (0, 1), BuildingBlock: AJUNOK_clean_linker_0, # of connection points: 2
#     Edge 23, Type (0, 1), BuildingBlock: AJUNOK_clean_linker_0, # of connection points: 2
#     Edge 24, Type (0, 1), BuildingBlock: AJUNOK_clean_linker_0, # of connection points: 2
#     Edge 25, Type (0, 1), BuildingBlock: AJUNOK_clean_linker_0, # of connection points: 2
#     Edge 26, Type (0, 1), BuildingBlock: AJUNOK_clean_linker_0, # of connection points: 2
# Relax obj value: 0.187
# Max RMSD: 0.203
# Mean RMSD: 0.129
data_MOF--net-anh--node1-BETDAH_clean_sbu_0--node2-QEWDON_clean_linker_0--edge1-AJUNOK_clean_linker_0
_symmetry_space_group_name_H-M    P1
_symmetry_Int_Tables_number       1
_symmetry_cell_setting            triclinic
loop_
_symmetry_equiv_pos_as_xyz
'x, y, z'
_cell_length_a     24.462009
_cell_length_b     31.013087
_cell_length_c     35.52352
_cell_angle_alpha  96.359968
_cell_angle_beta   91.080996
_cell_angle_gamma 132.31348
loop_
_atom_site_label
_atom_site_type_symbol
_atom_site_fract_x
_atom_site_fract_y
_atom_site_fract_z
_atom_type_partial_charge
Ho0 Ho 0.2091 0.557 0.14329 0.0
Ho1 Ho 1.10739 0.57521 0.16703 0.0
C2 C 0.27867 0.69253 0.16374 0.0
C3 C 0.31505 0.56799 0.11765 0.0
C4 C 0.3953 0.61748 0.12924 0.0
C5 C 0.44718 0.62609 0.10671 0.0
C6 C 0.52334 0.67074 0.11974 0.0
C7 C 0.54851 0.70771 0.15532 0.0
C8 C 0.4963 0.70115 0.17659 0.0
C9 C 0.42037 0.65579 0.16398 0.0
C10 C 0.18585 0.5521 0.21739 0.0
C11 C 1.04035 0.44278 0.14554 0.0
C12 C 1.03123 0.59018 0.20499 0.0
C13 C 0.95187 0.54827 0.20954 0.0
C14 C 0.90905 0.487 0.20137 0.0
C15 C 0.8313 0.44736 0.19627 0.0
C16 C 0.79587 0.46882 0.19882 0.0
C17 C 0.83917 0.5296 0.21205 0.0
C18 C 0.9167 0.56907 0.21707 0.0
C19 C 1.09637 0.54635 0.09033 0.0
O20 O 0.29124 0.6571 0.15734 0.0
O21 O 0.21085 0.67108 0.16752 0.0
O22 O 0.27837 0.53717 0.14439 0.0
O23 O 0.28128 0.58021 0.09937 0.0
O24 O 0.19432 0.51993 0.19742 0.0
O25 O 0.19633 0.5881 0.19801 0.0
O26 O 1.04026 0.4787 0.16936 0.0
O27 O 1.09632 0.4646 0.12503 0.0
O28 O 1.04644 0.60293 0.17055 0.0
O29 O 1.06951 0.57974 0.22028 0.0
O30 O 1.03995 0.52785 0.10831 0.0
O31 O 0.15464 0.58031 0.11389 0.0
H32 H 0.42881 0.59703 0.07983 0.0
H33 H 0.56227 0.67421 0.10291 0.0
H34 H 0.51396 0.72938 0.20377 0.0
H35 H 0.38119 0.64952 0.1821 0.0
H36 H 0.93544 0.47005 0.19599 0.0
H37 H 0.79942 0.40089 0.18632 0.0
H38 H 0.81382 0.54783 0.21405 0.0
H39 H 0.94894 0.61613 0.22371 0.0
Ho40 Ho 0.7354 0.07887 0.47858 0.0
Ho41 Ho 0.62684 0.09197 0.46293 0.0
C42 C 0.55657 0.96139 0.46156 0.0
C43 C 0.80553 0.05089 0.50493 0.0
C44 C 0.78426 0.99567 0.51243 0.0
C45 C 0.73255 0.96186 0.53779 0.0
C46 C 0.70831 0.90714 0.54179 0.0
C47 C 0.73465 0.88492 0.52026 0.0
C48 C 0.78875 0.91997 0.4962 0.0
C49 C 0.81354 0.97492 0.49247 0.0
C50 C 0.70804 0.07976 0.4045 0.0
C51 C 0.8072 0.20979 0.47682 0.0
C52 C 0.55988 0.12402 0.43997 0.0
C53 C 0.5728 0.17718 0.45301 0.0
C54 C 0.55085 0.19697 0.42861 0.0
C55 C 0.56234 0.24717 0.44145 0.0
C56 C 0.59529 0.27786 0.47903 0.0
C57 C 0.61931 0.25879 0.50291 0.0
C58 C 0.6085 0.20909 0.48996 0.0
C59 C 0.65018 0.08878 0.5365 0.0
O60 O 0.62198 0.9865 0.47999 0.0
O61 O 0.54852 0.99368 0.44562 0.0
O62 O 0.79897 0.05422 0.46901 0.0
O63 O 0.7826 0.07152 0.52671 0.0
O64 O 0.77302 0.10409 0.42077 0.0
O65 O 0.66098 0.05378 0.42755 0.0
O66 O 0.73889 0.18507 0.46407 0.0
O67 O 0.81999 0.17807 0.48871 0.0
O68 O 0.53546 0.08808 0.46468 0.0
O69 O 0.6131 0.13304 0.4231 0.0
O70 O 0.58657 0.06557 0.51935 0.0
O71 O 0.69985 0.11643 0.51472 0.0
H72 H 0.70893 0.97664 0.55366 0.0
H73 H 0.66624 0.88103 0.56036 0.0
H74 H 0.81058 0.90421 0.47955 0.0
H75 H 0.854 1.00044 0.47305 0.0
H76 H 0.52453 0.17348 0.39976 0.0
H77 H 0.54514 0.26178 0.42205 0.0
H78 H 0.64479 0.28141 0.53198 0.0
H79 H 0.62707 0.19504 0.50902 0.0
Ho80 Ho 0.72164 0.62253 0.83548 0.0
Ho81 Ho 0.60901 0.49616 0.84394 0.0
C82 C 0.54457 0.5594 0.84459 0.0
C83 C 0.78962 0.72145 0.81127 0.0
C84 C 0.77096 0.75661 0.80449 0.0
C85 C 0.70188 0.73008 0.78478 0.0
C86 C 0.6838 0.76363 0.78044 0.0
C87 C 0.73415 0.82412 0.79593 0.0
C88 C 0.80337 0.85068 0.81532 0.0
C89 C 0.82177 0.81725 0.81936 0.0
C90 C 0.71375 0.60367 0.9077 0.0
C91 C 0.78853 0.56143 0.84267 0.0
C92 C 0.54461 0.39348 0.86003 0.0
C93 C 0.55989 0.35631 0.84628 0.0
C94 C 0.59333 0.36526 0.81269 0.0
C95 C 0.61028 0.33183 0.79954 0.0
C96 C 0.59496 0.28914 0.81989 0.0
C97 C 0.56242 0.28068 0.85384 0.0
C98 C 0.54501 0.31412 0.86696 0.0
C99 C 0.62065 0.51605 0.7713 0.0
O100 O 0.61031 0.60263 0.83278 0.0
O101 O 0.53344 0.51442 0.85544 0.0
O102 O 0.79803 0.71811 0.84696 0.0
O103 O 0.75236 0.67078 0.78854 0.0
O104 O 0.77563 0.64472 0.89475 0.0
O105 O 0.65882 0.57715 0.88253 0.0
O106 O 0.71939 0.51598 0.84954 0.0
O107 O 0.80316 0.60847 0.83312 0.0
O108 O 0.51551 0.40152 0.83368 0.0
O109 O 0.59896 0.44267 0.88295 0.0
O110 O 0.55811 0.47602 0.78384 0.0
O111 O 0.67383 0.54146 0.79729 0.0
H112 H 0.6612 0.68322 0.77338 0.0
H113 H 0.62945 0.74188 0.76607 0.0
H114 H 0.84291 0.89718 0.82767 0.0
H115 H 0.87519 0.83853 0.83474 0.0
H116 H 0.6067 0.39844 0.79665 0.0
H117 H 0.636 0.33967 0.77354 0.0
H118 H 0.54944 0.24764 0.86987 0.0
H119 H 0.52002 0.30708 0.89315 0.0
H120 H 0.7023 0.1167 0.22613 0.0
C121 C 0.65847 0.07 0.21492 0.0
C122 C 0.62432 0.02975 0.2408 0.0
C123 C 0.63342 0.05038 0.17532 0.0
H124 H 0.53865 0.9382 0.24716 0.0
C125 C 0.56506 0.96925 0.22721 0.0
C126 C 0.53842 0.9481 0.1884 0.0
C127 C 0.57334 0.98842 0.16245 0.0
C128 C 0.66621 0.09436 0.14796 0.0
H129 H 0.55294 0.97097 0.1324 0.0
C130 C 0.7403 0.15137 0.1551 0.0
C131 C 0.76828 0.19149 0.12887 0.0
C132 C 0.62147 0.07998 0.11444 0.0
H133 H 0.56384 0.03882 0.10823 0.0
C134 C 0.6492 0.11914 0.08858 0.0
H135 H 0.77669 0.16454 0.18048 0.0
C136 C 0.72171 0.17419 0.09561 0.0
H137 H 0.74093 0.2041 0.07533 0.0
H138 H 0.61364 0.10705 0.0631 0.0
H139 H 0.60326 0.57541 0.60445 0.0
C140 C 0.60995 0.54735 0.58895 0.0
C141 C 0.6295 0.52211 0.60918 0.0
C142 C 0.59486 0.53374 0.54894 0.0
H143 H 0.64701 0.46233 0.60472 0.0
C144 C 0.63517 0.48391 0.5891 0.0
C145 C 0.61893 0.46919 0.54918 0.0
C146 C 0.59983 0.49487 0.52928 0.0
C147 C 0.5676 0.55584 0.52779 0.0
H148 H 0.58718 0.48351 0.49842 0.0
C149 C 0.60693 0.61649 0.53298 0.0
C150 C 0.58111 0.6371 0.51222 0.0
C151 C 0.5018 0.51585 0.50198 0.0
H152 H 0.47028 0.46888 0.49776 0.0
C153 C 0.47558 0.53602 0.48171 0.0
H154 H 0.6587 0.64761 0.55215 0.0
C155 C 0.51493 0.59621 0.48669 0.0
H156 H 0.49356 0.61087 0.47058 0.0
H157 H 0.42467 0.50489 0.462 0.0
H158 H 0.17348 0.54944 0.91604 0.0
C159 C 0.13672 0.55298 0.903 0.0
C160 C 1.08884 0.5511 0.926 0.0
C161 C 0.13691 0.55834 0.86404 0.0
H162 H 1.00137 0.55155 0.92823 0.0
C163 C 1.03732 0.55279 0.90999 0.0
C164 C 1.03145 0.557 0.87143 0.0
C165 C 1.08281 0.56077 0.84869 0.0
C166 C 0.19253 0.56035 0.84047 0.0
H167 H 1.07876 0.56473 0.81923 0.0
C168 C 0.25027 0.56134 0.85537 0.0
C169 C 0.2999 0.56403 0.83115 0.0
C170 C 0.18751 0.56099 0.80101 0.0
H171 H 0.14669 0.5594 0.78692 0.0
C172 C 0.23449 0.56324 0.77783 0.0
H173 H 0.25817 0.56113 0.88532 0.0
C174 C 0.28921 0.5649 0.79242 0.0
H175 H 0.32351 0.56634 0.77272 0.0
H176 H 0.22824 0.56363 0.74764 0.0
H177 H 0.13736 0.53528 0.39763 0.0
C178 C 0.18379 0.58171 0.40802 0.0
C179 C 0.2279 0.61841 0.38136 0.0
C180 C 0.19904 0.60472 0.44735 0.0
H181 H 0.31984 0.70787 0.37331 0.0
C182 C 0.28703 0.67921 0.39392 0.0
C183 C 0.30467 0.70391 0.43254 0.0
C184 C 0.26185 0.66637 0.45923 0.0
C185 C 0.1479 0.56533 0.47539 0.0
H186 H 0.27756 0.68608 0.48902 0.0
C187 C 1.09842 0.50236 0.46745 0.0
C188 C 1.04909 0.46692 0.49352 0.0
C189 C 0.14552 0.5906 0.51021 0.0
H190 H 0.1785 0.63757 0.51745 0.0
C191 C 1.09844 0.55557 0.53632 0.0
H192 H 1.09749 0.48019 0.4414 0.0
C193 C 1.05067 0.49431 0.52812 0.0
H194 H 1.01327 0.46802 0.54845 0.0
H195 H 1.09786 0.5761 0.56283 0.0
H196 H 0.64474 1.02079 0.70526 0.0
C197 C 0.64936 0.05591 0.71989 0.0
C198 C 0.66691 0.09977 0.69994 0.0
C199 C 0.63344 0.05528 0.75778 0.0
H200 H 0.67991 0.17602 0.70236 0.0
C201 C 0.66905 0.1435 0.71822 0.0
C202 C 0.65203 0.14304 0.75581 0.0
C203 C 0.63549 0.09935 0.77549 0.0
C204 C 0.60867 1.0062 0.77802 0.0
H205 H 0.62094 0.0981 0.80421 0.0
C206 C 0.64373 0.98414 0.77577 0.0
C207 C 0.62081 0.93885 0.79603 0.0
C208 C 0.54928 0.98115 0.80004 0.0
H209 H 0.51973 0.99584 0.80159 0.0
C210 C 0.52659 0.9363 0.82005 0.0
H211 H 0.68986 1.00307 0.75919 0.0
C212 C 0.56232 0.91547 0.81829 0.0
H213 H 0.54365 0.88044 0.83397 0.0
H214 H 0.48097 0.91752 0.83693 0.0
H215 H 0.77501 0.66838 0.08293 0.0
C216 C 0.7493 0.62704 0.0926 0.0
C217 C 0.70661 0.57454 0.06608 0.0
C218 C 0.76029 0.62702 0.13132 0.0
H219 H 0.63983 0.48045 0.05808 0.0
C220 C 0.67214 0.52088 0.07869 0.0
C221 C 0.68403 0.52028 0.11744 0.0
C222 C 0.72824 0.57387 0.14353 0.0
C223 C 0.80079 0.68199 0.15918 0.0
H224 H 0.73927 0.57476 0.17344 0.0
C225 C 0.77705 0.71218 0.15927 0.0
C226 C 0.80721 0.7606 0.18765 0.0
C227 C 0.85818 0.7022 0.1871 0.0
H228 H 0.87733 0.67932 0.18763 0.0
C229 C 0.8906 0.752 0.2148 0.0
H230 H 0.73032 0.69484 0.13879 0.0
C231 C 0.86441 0.78068 0.21554 0.0
H232 H 0.88695 0.81704 0.23829 0.0
H233 H 0.93445 0.76721 0.23644 0.0
C234 C 0.68452 0.7783 0.14922 0.0
C235 C 0.62714 0.74566 0.17225 0.0
C236 C 0.75321 0.79528 0.15859 0.0
C237 C 0.76583 0.77948 0.19102 0.0
H238 H 0.67354 0.78509 0.12184 0.0
H239 H 0.79204 0.8129 0.13761 0.0
S240 S 0.64193 0.70912 0.26574 0.0
N241 N 0.59377 0.70974 0.23299 0.0
N242 N 0.72323 0.74216 0.25039 0.0
C243 C 0.71428 0.75646 0.21746 0.0
C244 C 0.6442 0.73885 0.20795 0.0
C245 C 0.93974 0.30542 0.50009 0.0
C246 C 0.87056 0.27505 0.47829 0.0
C247 C 0.99872 0.36722 0.50349 0.0
C248 C 0.99164 0.40105 0.48455 0.0
H249 H 0.94782 0.28162 0.51565 0.0
H250 H 1.04967 0.38895 0.52184 0.0
S251 S 0.8243 0.34427 0.42313 0.0
N252 N 0.8 0.28477 0.4368 0.0
N253 N 0.91108 0.40014 0.44301 0.0
C254 C 0.92395 0.37142 0.46193 0.0
C255 C 0.86348 0.30872 0.45882 0.0
C256 C 0.71366 0.88686 0.8287 0.0
C257 C 0.71202 0.85823 0.7945 0.0
C258 C 0.68623 0.91454 0.82875 0.0
C259 C 0.65723 0.91537 0.79456 0.0
H260 H 0.73376 0.88596 0.85577 0.0
H261 H 0.68634 0.93449 0.85583 0.0
S262 S 0.64517 0.85036 0.69718 0.0
N263 N 0.68239 0.83481 0.7254 0.0
N264 N 0.63139 0.88749 0.7255 0.0
C265 C 0.65797 0.88899 0.76003 0.0
C266 C 0.68506 0.86011 0.76001 0.0
C267 C 0.67539 0.44244 0.19086 0.0
C268 C 0.72253 0.43546 0.1763 0.0
C269 C 0.6462 0.45848 0.16799 0.0
C270 C 0.66427 0.46788 0.1305 0.0
H271 H 0.6736 0.44731 0.22137 0.0
H272 H 0.62165 0.47393 0.1817 0.0
S273 S 0.74676 0.42005 0.07462 0.0
N274 N 0.75522 0.41138 0.11869 0.0
N275 N 0.7032 0.44371 0.07597 0.0
C276 C 0.6919 0.44391 0.11328 0.0
C277 C 0.72005 0.42641 0.1364 0.0
C278 C 0.42849 0.86874 0.43074 0.0
C279 C 0.49184 0.89578 0.45685 0.0
C280 C 0.36773 0.80724 0.42421 0.0
C281 C 0.36677 0.76959 0.44366 0.0
H282 H 0.42611 0.89507 0.41445 0.0
H283 H 0.32124 0.7888 0.40323 0.0
S284 S 0.51607 0.81694 0.51622 0.0
N285 N 0.54804 0.87931 0.50342 0.0
N286 N 0.43355 0.76375 0.49089 0.0
C287 C 0.42845 0.79579 0.47061 0.0
C288 C 0.49097 0.85868 0.47717 0.0
C289 C 0.58524 0.22394 0.76641 0.0
C290 C 0.61108 0.25262 0.80463 0.0
C291 C 0.60006 0.1897 0.75082 0.0
C292 C 0.64201 0.18317 0.7727 0.0
H293 H 0.55217 0.22722 0.74852 0.0
H294 H 0.57692 0.16707 0.72158 0.0
S295 S 0.72735 0.25307 0.87348 0.0
N296 N 0.68291 0.27419 0.86366 0.0
N297 N 0.7127 0.21112 0.83409 0.0
C298 C 0.66945 0.2126 0.81081 0.0
C299 C 0.65351 0.24695 0.82683 0.0
C300 C 0.67581 0.78603 0.48439 0.0
C301 C 0.70032 0.82309 0.51972 0.0
C302 C 0.63844 0.72637 0.48242 0.0
C303 C 0.62403 0.70125 0.51569 0.0
H304 H 0.68384 0.80287 0.45791 0.0
H305 H 0.62026 0.69955 0.45453 0.0
S306 S 0.67875 0.77953 0.61535 0.0
N307 N 0.70999 0.83092 0.58886 0.0
N308 N 0.63815 0.71811 0.5851 0.0
C309 C 0.64937 0.73792 0.55127 0.0
C310 C 0.6876 0.7989 0.55329 0.0
C311 C 0.92543 0.60542 0.84025 0.0
C312 C 0.85006 0.55868 0.84646 0.0
C313 C 0.98262 0.60375 0.84565 0.0
C314 C 0.96866 0.55507 0.85749 0.0
H315 H 0.94117 0.64466 0.83188 0.0
H316 H 1.03908 0.64217 0.84189 0.0
S317 S 0.78197 0.41977 0.87661 0.0
N318 N 0.76669 0.46098 0.86439 0.0
N319 N 0.87121 0.45811 0.87415 0.0
C320 C 0.89339 0.50776 0.86287 0.0
C321 C 0.83553 0.50939 0.85745 0.0
C322 C 0.41644 0.78127 0.16494 0.0
C323 C 0.34352 0.75825 0.16721 0.0
C324 C 0.47894 0.84262 0.16974 0.0
C325 C 0.47135 0.88379 0.17643 0.0
H326 H 0.42591 0.75181 0.1602 0.0
H327 H 0.5339 0.85802 0.16931 0.0
S328 S 0.29447 0.84866 0.18365 0.0
N329 N 0.2686 0.7833 0.17563 0.0
N330 N 0.38596 0.89795 0.18448 0.0
C331 C 0.39921 0.86186 0.17783 0.0
C332 C 0.33545 0.79943 0.17318 0.0
C333 C 0.66874 0.37988 0.51607 0.0
C334 C 0.60225 0.32823 0.49414 0.0
C335 C 0.67442 0.42593 0.53326 0.0
C336 C 0.61409 0.4222 0.52879 0.0
H337 H 0.71654 0.38449 0.52031 0.0
H338 H 0.72615 0.46455 0.55037 0.0
S339 S 0.42691 0.29584 0.4758 0.0
N340 N 0.47413 0.2756 0.47009 0.0
N341 N 0.48548 0.36262 0.50176 0.0
C342 C 0.54771 0.37128 0.50663 0.0
C343 C 0.54166 0.32423 0.48941 0.0
C344 C 0.49308 0.60858 0.83279 0.0
C345 C 0.48283 0.56202 0.84554 0.0
C346 C 0.43632 0.61069 0.83123 0.0
C347 C 0.36447 0.56685 0.84264 0.0
H348 H 0.54536 0.64361 0.82284 0.0
H349 H 0.44834 0.64674 0.81957 0.0
S350 S 0.30657 0.43544 0.87972 0.0
N351 N 0.39292 0.47099 0.87117 0.0
N352 N 0.28837 0.47513 0.86799 0.0
C353 C 0.35398 0.52087 0.85653 0.0
C354 C 0.41191 0.51847 0.85802 0.0
C355 C 0.92663 0.35484 0.17066 0.0
C356 C 0.97583 0.37725 0.14253 0.0
C357 C 0.86242 0.29412 0.16752 0.0
C358 C 0.844 0.253 0.13594 0.0
H359 H 0.93687 0.38461 0.19512 0.0
H360 H 0.82503 0.27971 0.18905 0.0
S361 S 0.95543 0.28689 0.05557 0.0
N362 N 1.00273 0.35181 0.083 0.0
N363 N 0.8822 0.2384 0.077 0.0
C364 C 0.8939 0.27429 0.10836 0.0
C365 C 0.95962 0.33602 0.11168 0.0
C366 C 1.02847 0.50644 0.02373 0.0
C367 C 1.09612 0.54538 0.04828 0.0
C368 C 1.02671 0.50758 0.98423 0.0
C369 C 1.09255 0.54785 0.96764 0.0
H370 H 0.9763 0.47521 0.03515 0.0
H371 H 0.97318 0.47689 0.96655 0.0
S372 S 0.28418 0.66035 0.01962 0.0
N373 N 0.23076 0.62571 0.05305 0.0
N374 N 0.22727 0.62832 0.97929 0.0
C375 C 0.16063 0.58659 -0.00812 0.0
C376 C 0.16245 0.58527 0.03202 0.0
C377 C 0.74148 0.09232 0.33761 0.0
C378 C 0.68839 0.07291 0.36314 0.0
C379 C 0.72158 0.08098 0.29794 0.0
C380 C 0.64797 0.0499 0.28259 0.0
H381 H 0.79817 0.11468 0.34821 0.0
H382 H 0.76317 0.09436 0.27911 0.0
S383 S 0.49043 0.99631 0.33718 0.0
N384 N 0.56057 0.02567 0.37006 0.0
N385 N 0.52386 1.00515 0.29593 0.0
C386 C 0.59557 0.03322 0.30789 0.0
C387 C 0.6156 0.04452 0.34807 0.0
C388 C 0.56582 0.5039 0.707 0.0
C389 C 0.62779 0.52381 0.73091 0.0
C390 C 0.56838 0.50639 0.6679 0.0
C391 C 0.6326 0.52797 0.65123 0.0
H392 H 0.51448 0.48541 0.71849 0.0
H393 H 0.51873 0.48912 0.65029 0.0
S394 S 0.8109 0.5879 0.70151 0.0
N395 N 0.75655 0.56858 0.73548 0.0
N396 N 0.76046 0.57163 0.66153 0.0
C397 C 0.69557 0.54932 0.67488 0.0
C398 C 0.69346 0.5478 0.71489 0.0
C399 C 0.60281 0.04234 0.59432 0.0
C400 C 0.66214 0.08973 0.57755 0.0
C401 C 0.60713 0.04449 0.63393 0.0
C402 C 0.67045 0.09463 0.65826 0.0
H403 H 0.55163 1.00389 0.57674 0.0
H404 H 0.55893 1.00797 0.64573 0.0
S405 S 0.84302 0.22874 0.62848 0.0
N406 N 0.78824 0.18646 0.58794 0.0
N407 N 0.79553 0.19136 0.6628 0.0
C408 C 0.73143 0.14137 0.6418 0.0
C409 C 0.72759 0.13865 0.60129 0.0
C410 C 0.77507 0.62582 0.97232 0.0
C411 C 0.70893 0.59276 0.94729 0.0
C412 C 0.77331 0.61854 0.01046 0.0
C413 C 0.70535 0.57788 0.025 0.0
H414 H 0.82883 0.65806 0.96253 0.0
H415 H 0.82572 0.64524 0.02883 0.0
S416 S 0.5164 0.47913 0.97105 0.0
N417 N 0.57333 0.51654 0.93933 0.0
N418 N 0.57029 0.50311 0.01152 0.0
C419 C 0.6387 0.54342 0.00018 0.0
C420 C 0.64043 0.5509 0.96118 0.0
C421 C 0.26387 0.59803 0.28027 0.0
C422 C 0.19307 0.56152 0.25926 0.0
C423 C 0.27378 0.61394 0.31995 0.0
C424 C 0.21333 0.59453 0.33997 0.0
H425 H 0.3122 0.61577 0.26579 0.0
H426 H 0.32966 0.64288 0.33498 0.0
S427 S 1.01549 0.49423 0.29738 0.0
N428 N 1.06072 0.5021 0.26085 0.0
N429 N 1.07928 0.53452 0.33527 0.0
C430 C 0.14162 0.55605 0.31915 0.0
C431 C 0.13158 0.5391 0.27876 0.0
loop_
_geom_bond_atom_site_label_1
_geom_bond_atom_site_label_2
_geom_bond_distance
_geom_bond_site_symmetry_2
_ccdc_geom_bond_type
Ho0 C3 2.811 . S
Ho0 O20 2.322 . S
Ho0 O22 2.378 . S
Ho0 O23 2.524 . S
Ho0 O24 2.381 . S
Ho0 O25 2.669 . S
Ho0 O27 2.346 1_455 S
Ho0 O31 2.305 . S
Ho1 C12 2.811 1_455 S
Ho1 O21 2.346 . S
Ho1 O25 2.305 . S
Ho1 O26 2.322 1_455 S
Ho1 O28 2.378 1_455 S
Ho1 O29 2.524 1_455 S
Ho1 O30 2.381 . S
Ho1 O31 2.669 . S
C2 O20 1.259 . S
C2 O21 1.268 . S
C3 Ho0 2.811 . S
C3 C4 1.488 . S
C3 O22 1.215 . S
C3 O23 1.289 . S
C4 C3 1.488 . S
C4 C5 1.348 . S
C4 C9 1.413 . S
C5 C4 1.348 . S
C5 C6 1.442 . S
C5 H32 0.930 . S
C6 C5 1.442 . S
C6 C7 1.381 . S
C6 H33 0.931 . S
C7 C6 1.381 . S
C7 C8 1.321 . S
C8 C7 1.321 . S
C8 C9 1.403 . S
C8 H34 0.934 . S
C9 C4 1.413 . S
C9 C8 1.403 . S
C9 H35 0.930 . S
C10 O24 1.275 . S
C10 O25 1.256 . S
C11 O26 1.259 . S
C11 O27 1.268 . S
C12 Ho1 2.811 1_655 S
C12 C13 1.488 . S
C12 O28 1.215 . S
C12 O29 1.289 . S
C13 C12 1.488 . S
C13 C14 1.348 . S
C13 C18 1.413 . S
C14 C13 1.348 . S
C14 C15 1.442 . S
C14 H36 0.930 . S
C15 C14 1.442 . S
C15 C16 1.381 . S
C15 H37 0.931 . S
C16 C15 1.381 . S
C16 C17 1.321 . S
C17 C16 1.321 . S
C17 C18 1.403 . S
C17 H38 0.934 . S
C18 C13 1.413 . S
C18 C17 1.403 . S
C18 H39 0.930 . S
C19 O30 1.275 . S
C19 O31 1.256 . S
O20 Ho0 2.322 . S
O20 C2 1.259 . S
O21 Ho1 2.346 . S
O21 C2 1.268 . S
O22 Ho0 2.378 . S
O22 C3 1.215 . S
O23 Ho0 2.524 . S
O23 C3 1.289 . S
O24 Ho0 2.381 . S
O24 C10 1.275 . S
O25 Ho0 2.669 . S
O25 Ho1 2.305 . S
O25 C10 1.256 . S
O26 Ho1 2.322 1_655 S
O26 C11 1.259 . S
O27 Ho0 2.346 1_655 S
O27 C11 1.268 . S
O28 Ho1 2.378 1_655 S
O28 C12 1.215 . S
O29 Ho1 2.524 1_655 S
O29 C12 1.289 . S
O30 Ho1 2.381 . S
O30 C19 1.275 . S
O31 Ho0 2.305 . S
O31 Ho1 2.669 . S
O31 C19 1.256 . S
H32 C5 0.930 . S
H33 C6 0.931 . S
H34 C8 0.934 . S
H35 C9 0.930 . S
H36 C14 0.930 . S
H37 C15 0.931 . S
H38 C17 0.934 . S
H39 C18 0.930 . S
Ho40 C43 2.811 1_545 S
Ho40 O60 2.322 1_545 S
Ho40 O62 2.378 1_545 S
Ho40 O63 2.524 1_545 S
Ho40 O64 2.381 . S
Ho40 O65 2.669 . S
Ho40 O67 2.346 . S
Ho40 O71 2.305 . S
Ho41 C52 2.811 . S
Ho41 O61 2.346 1_545 S
Ho41 O65 2.305 . S
Ho41 O66 2.322 . S
Ho41 O68 2.378 . S
Ho41 O69 2.524 . S
Ho41 O70 2.381 . S
Ho41 O71 2.669 . S
C42 O60 1.259 . S
C42 O61 1.268 . S
C43 Ho40 2.811 1_565 S
C43 C44 1.488 . S
C43 O62 1.215 . S
C43 O63 1.289 . S
C44 C43 1.488 . S
C44 C45 1.348 . S
C44 C49 1.413 . S
C45 C44 1.348 . S
C45 C46 1.442 . S
C45 H72 0.930 . S
C46 C45 1.442 . S
C46 C47 1.381 . S
C46 H73 0.931 . S
C47 C46 1.381 . S
C47 C48 1.321 . S
C48 C47 1.321 . S
C48 C49 1.403 . S
C48 H74 0.934 . S
C49 C44 1.413 . S
C49 C48 1.403 . S
C49 H75 0.930 . S
C50 O64 1.275 . S
C50 O65 1.256 . S
C51 O66 1.259 . S
C51 O67 1.268 . S
C52 Ho41 2.811 . S
C52 C53 1.488 . S
C52 O68 1.215 . S
C52 O69 1.289 . S
C53 C52 1.488 . S
C53 C54 1.348 . S
C53 C58 1.413 . S
C54 C53 1.348 . S
C54 C55 1.442 . S
C54 H76 0.930 . S
C55 C54 1.442 . S
C55 C56 1.381 . S
C55 H77 0.931 . S
C56 C55 1.381 . S
C56 C57 1.321 . S
C57 C56 1.321 . S
C57 C58 1.403 . S
C57 H78 0.934 . S
C58 C53 1.413 . S
C58 C57 1.403 . S
C58 H79 0.930 . S
C59 O70 1.275 . S
C59 O71 1.256 . S
O60 Ho40 2.322 1_565 S
O60 C42 1.259 . S
O61 Ho41 2.346 1_565 S
O61 C42 1.268 . S
O62 Ho40 2.378 1_565 S
O62 C43 1.215 . S
O63 Ho40 2.524 1_565 S
O63 C43 1.289 . S
O64 Ho40 2.381 . S
O64 C50 1.275 . S
O65 Ho40 2.669 . S
O65 Ho41 2.305 . S
O65 C50 1.256 . S
O66 Ho41 2.322 . S
O66 C51 1.259 . S
O67 Ho40 2.346 . S
O67 C51 1.268 . S
O68 Ho41 2.378 . S
O68 C52 1.215 . S
O69 Ho41 2.524 . S
O69 C52 1.289 . S
O70 Ho41 2.381 . S
O70 C59 1.275 . S
O71 Ho40 2.305 . S
O71 Ho41 2.669 . S
O71 C59 1.256 . S
H72 C45 0.930 . S
H73 C46 0.931 . S
H74 C48 0.934 . S
H75 C49 0.930 . S
H76 C54 0.930 . S
H77 C55 0.931 . S
H78 C57 0.934 . S
H79 C58 0.930 . S
Ho80 C83 2.811 . S
Ho80 O100 2.322 . S
Ho80 O102 2.378 . S
Ho80 O103 2.524 . S
Ho80 O104 2.381 . S
Ho80 O105 2.669 . S
Ho80 O107 2.346 . S
Ho80 O111 2.305 . S
Ho81 C92 2.811 . S
Ho81 O101 2.346 . S
Ho81 O105 2.305 . S
Ho81 O106 2.322 . S
Ho81 O108 2.378 . S
Ho81 O109 2.524 . S
Ho81 O110 2.381 . S
Ho81 O111 2.669 . S
C82 O100 1.259 . S
C82 O101 1.268 . S
C83 Ho80 2.811 . S
C83 C84 1.488 . S
C83 O102 1.215 . S
C83 O103 1.289 . S
C84 C83 1.488 . S
C84 C85 1.348 . S
C84 C89 1.413 . S
C85 C84 1.348 . S
C85 C86 1.442 . S
C85 H112 0.930 . S
C86 C85 1.442 . S
C86 C87 1.381 . S
C86 H113 0.931 . S
C87 C86 1.381 . S
C87 C88 1.321 . S
C88 C87 1.321 . S
C88 C89 1.403 . S
C88 H114 0.934 . S
C89 C84 1.413 . S
C89 C88 1.403 . S
C89 H115 0.930 . S
C90 O104 1.275 . S
C90 O105 1.256 . S
C91 O106 1.259 . S
C91 O107 1.268 . S
C92 Ho81 2.811 . S
C92 C93 1.488 . S
C92 O108 1.215 . S
C92 O109 1.289 . S
C93 C92 1.488 . S
C93 C94 1.348 . S
C93 C98 1.413 . S
C94 C93 1.348 . S
C94 C95 1.442 . S
C94 H116 0.930 . S
C95 C94 1.442 . S
C95 C96 1.381 . S
C95 H117 0.931 . S
C96 C95 1.381 . S
C96 C97 1.321 . S
C97 C96 1.321 . S
C97 C98 1.403 . S
C97 H118 0.934 . S
C98 C93 1.413 . S
C98 C97 1.403 . S
C98 H119 0.930 . S
C99 O110 1.275 . S
C99 O111 1.256 . S
O100 Ho80 2.322 . S
O100 C82 1.259 . S
O101 Ho81 2.346 . S
O101 C82 1.268 . S
O102 Ho80 2.378 . S
O102 C83 1.215 . S
O103 Ho80 2.524 . S
O103 C83 1.289 . S
O104 Ho80 2.381 . S
O104 C90 1.275 . S
O105 Ho80 2.669 . S
O105 Ho81 2.305 . S
O105 C90 1.256 . S
O106 Ho81 2.322 . S
O106 C91 1.259 . S
O107 Ho80 2.346 . S
O107 C91 1.268 . S
O108 Ho81 2.378 . S
O108 C92 1.215 . S
O109 Ho81 2.524 . S
O109 C92 1.289 . S
O110 Ho81 2.381 . S
O110 C99 1.275 . S
O111 Ho80 2.305 . S
O111 Ho81 2.669 . S
O111 C99 1.256 . S
H112 C85 0.930 . S
H113 C86 0.931 . S
H114 C88 0.934 . S
H115 C89 0.930 . S
H116 C94 0.930 . S
H117 C95 0.931 . S
H118 C97 0.934 . S
H119 C98 0.930 . S
H120 C121 0.949 . S
C121 H120 0.949 . S
C121 C122 1.395 . S
C121 C123 1.391 . S
C122 C121 1.395 . S
C122 C125 1.390 1_545 S
C123 C121 1.391 . S
C123 C127 1.403 . S
C123 C128 1.491 . S
H124 C125 0.950 . S
C125 C122 1.390 1_565 S
C125 H124 0.950 . S
C125 C126 1.378 . S
C126 C125 1.378 . S
C126 C127 1.395 1_565 S
C127 C123 1.403 . S
C127 C126 1.395 1_545 S
C127 H129 0.951 1_545 S
C128 C123 1.491 . S
C128 C130 1.382 . S
C128 C132 1.404 . S
H129 C127 0.951 1_565 S
C130 C128 1.382 . S
C130 C131 1.390 . S
C130 H135 0.949 . S
C131 C130 1.390 . S
C131 C136 1.399 . S
C132 C128 1.404 . S
C132 H133 0.950 . S
C132 C134 1.375 . S
H133 C132 0.950 . S
C134 C132 1.375 . S
C134 C136 1.382 . S
C134 H138 0.950 . S
H135 C130 0.949 . S
C136 C131 1.399 . S
C136 C134 1.382 . S
C136 H137 0.952 . S
H137 C136 0.952 . S
H138 C134 0.950 . S
H139 C140 0.949 . S
C140 H139 0.949 . S
C140 C141 1.395 . S
C140 C142 1.391 . S
C141 C140 1.395 . S
C141 C144 1.390 . S
C142 C140 1.391 . S
C142 C146 1.387 . S
C142 C147 1.491 . S
H143 C144 0.950 . S
C144 C141 1.390 . S
C144 H143 0.950 . S
C144 C145 1.378 . S
C145 C144 1.378 . S
C145 C146 1.409 . S
C146 C142 1.387 . S
C146 C145 1.409 . S
C146 H148 0.951 . S
C147 C142 1.491 . S
C147 C149 1.382 . S
C147 C151 1.404 . S
H148 C146 0.951 . S
C149 C147 1.382 . S
C149 C150 1.390 . S
C149 H154 0.949 . S
C150 C149 1.390 . S
C150 C155 1.399 . S
C151 C147 1.404 . S
C151 H152 0.950 . S
C151 C153 1.375 . S
H152 C151 0.950 . S
C153 C151 1.375 . S
C153 C155 1.382 . S
C153 H157 0.950 . S
H154 C149 0.949 . S
C155 C150 1.399 . S
C155 C153 1.382 . S
C155 H156 0.952 . S
H156 C155 0.952 . S
H157 C153 0.950 . S
H158 C159 0.949 . S
C159 H158 0.949 . S
C159 C160 1.395 . S
C159 C161 1.391 . S
C160 C159 1.395 . S
C160 C163 1.390 1_455 S
C161 C159 1.391 . S
C161 C165 1.387 . S
C161 C166 1.491 . S
H162 C163 0.950 . S
C163 C160 1.390 1_655 S
C163 H162 0.950 . S
C163 C164 1.378 . S
C164 C163 1.378 . S
C164 C165 1.409 1_655 S
C165 C161 1.387 . S
C165 C164 1.409 1_455 S
C165 H167 0.951 . S
C166 C161 1.491 . S
C166 C168 1.382 . S
C166 C170 1.404 . S
H167 C165 0.951 . S
C168 C166 1.382 . S
C168 C169 1.390 . S
C168 H173 0.949 . S
C169 C168 1.390 . S
C169 C174 1.399 . S
C170 C166 1.404 . S
C170 H171 0.950 . S
C170 C172 1.375 . S
H171 C170 0.950 . S
C172 C170 1.375 . S
C172 C174 1.382 . S
C172 H176 0.950 . S
H173 C168 0.949 . S
C174 C169 1.399 . S
C174 C172 1.382 . S
C174 H175 0.952 . S
H175 C174 0.952 . S
H176 C172 0.950 . S
H177 C178 0.953 . S
C178 H177 0.953 . S
C178 C179 1.389 1_655 S
C178 C180 1.393 1_655 S
C179 C178 1.389 1_455 S
C179 C182 1.390 . S
C180 C178 1.393 1_455 S
C180 C184 1.387 . S
C180 C185 1.491 1_455 S
H181 C182 0.950 . S
C182 C179 1.390 . S
C182 H181 0.950 . S
C182 C183 1.378 . S
C183 C182 1.378 . S
C183 C184 1.409 . S
C184 C180 1.387 . S
C184 C183 1.409 . S
C184 H186 0.951 . S
C185 C180 1.491 1_655 S
C185 C187 1.382 . S
C185 C189 1.404 . S
H186 C184 0.951 . S
C187 C185 1.382 . S
C187 C188 1.390 . S
C187 H192 0.949 . S
C188 C187 1.390 . S
C188 C193 1.399 . S
C189 C185 1.404 . S
C189 H190 0.950 . S
C189 C191 1.375 . S
H190 C189 0.950 . S
C191 C189 1.375 . S
C191 C193 1.382 . S
C191 H195 0.950 . S
H192 C187 0.949 . S
C193 C188 1.399 . S
C193 C191 1.382 . S
C193 H194 0.952 . S
H194 C193 0.952 . S
H195 C191 0.950 . S
H196 C197 0.949 1_565 S
C197 H196 0.949 1_545 S
C197 C198 1.395 . S
C197 C199 1.391 . S
C198 C197 1.395 . S
C198 C201 1.390 . S
C199 C197 1.391 . S
C199 C203 1.387 . S
C199 C204 1.491 1_545 S
H200 C201 0.950 . S
C201 C198 1.390 . S
C201 H200 0.950 . S
C201 C202 1.378 . S
C202 C201 1.378 . S
C202 C203 1.409 . S
C203 C199 1.387 . S
C203 C202 1.409 . S
C203 H205 0.951 . S
C204 C199 1.491 1_565 S
C204 C206 1.382 . S
C204 C208 1.404 . S
H205 C203 0.951 . S
C206 C204 1.382 . S
C206 C207 1.390 . S
C206 H211 0.949 . S
C207 C206 1.390 . S
C207 C212 1.399 . S
C208 C204 1.404 . S
C208 H209 0.950 . S
C208 C210 1.375 . S
H209 C208 0.950 . S
C210 C208 1.375 . S
C210 C212 1.382 . S
C210 H214 0.950 . S
H211 C206 0.949 . S
C212 C207 1.399 . S
C212 C210 1.382 . S
C212 H213 0.952 . S
H213 C212 0.952 . S
H214 C210 0.950 . S
H215 C216 0.949 . S
C216 H215 0.949 . S
C216 C217 1.395 . S
C216 C218 1.391 . S
C217 C216 1.395 . S
C217 C220 1.390 . S
C218 C216 1.391 . S
C218 C222 1.387 . S
C218 C223 1.491 . S
H219 C220 0.950 . S
C220 C217 1.390 . S
C220 H219 0.950 . S
C220 C221 1.378 . S
C221 C220 1.378 . S
C221 C222 1.409 . S
C222 C218 1.387 . S
C222 C221 1.409 . S
C222 H224 0.951 . S
C223 C218 1.491 . S
C223 C225 1.382 . S
C223 C227 1.404 . S
H224 C222 0.951 . S
C225 C223 1.382 . S
C225 C226 1.390 . S
C225 H230 0.949 . S
C226 C225 1.390 . S
C226 C231 1.399 . S
C227 C223 1.404 . S
C227 H228 0.950 . S
C227 C229 1.375 . S
H228 C227 0.950 . S
C229 C227 1.375 . S
C229 C231 1.382 . S
C229 H233 0.950 . S
H230 C225 0.949 . S
C231 C226 1.399 . S
C231 C229 1.382 . S
C231 H232 0.952 . S
H232 C231 0.952 . S
H233 C229 0.950 . S
C234 C235 1.369 . S
C234 C236 1.419 . S
C234 H238 0.930 . S
C235 C234 1.369 . S
C235 C244 1.429 . S
C236 C234 1.419 . S
C236 C237 1.363 . S
C236 H239 0.929 . S
C237 C236 1.363 . S
C237 C243 1.428 . S
H238 C234 0.930 . S
H239 C236 0.929 . S
S240 N241 1.613 . S
S240 N242 1.610 . S
N241 S240 1.613 . S
N241 C244 1.350 . S
N242 S240 1.610 . S
N242 C243 1.351 . S
C243 C237 1.428 . S
C243 N242 1.351 . S
C243 C244 1.434 . S
C244 C235 1.429 . S
C244 N241 1.350 . S
C244 C243 1.434 . S
C245 C246 1.369 . S
C245 C247 1.419 . S
C245 H249 0.930 . S
C246 C245 1.369 . S
C246 C255 1.429 . S
C247 C245 1.419 . S
C247 C248 1.363 . S
C247 H250 0.929 . S
C248 C247 1.363 . S
C248 C254 1.428 . S
H249 C245 0.930 . S
H250 C247 0.929 . S
S251 N252 1.613 . S
S251 N253 1.610 . S
N252 S251 1.613 . S
N252 C255 1.350 . S
N253 S251 1.610 . S
N253 C254 1.351 . S
C254 C248 1.428 . S
C254 N253 1.351 . S
C254 C255 1.434 . S
C255 C246 1.429 . S
C255 N252 1.350 . S
C255 C254 1.434 . S
C256 C257 1.369 . S
C256 C258 1.419 . S
C256 H260 0.930 . S
C257 C256 1.369 . S
C257 C266 1.429 . S
C258 C256 1.419 . S
C258 C259 1.363 . S
C258 H261 0.929 . S
C259 C258 1.363 . S
C259 C265 1.428 . S
H260 C256 0.930 . S
H261 C258 0.929 . S
S262 N263 1.613 . S
S262 N264 1.610 . S
N263 S262 1.613 . S
N263 C266 1.350 . S
N264 S262 1.610 . S
N264 C265 1.351 . S
C265 C259 1.428 . S
C265 N264 1.351 . S
C265 C266 1.434 . S
C266 C257 1.429 . S
C266 N263 1.350 . S
C266 C265 1.434 . S
C267 C268 1.369 . S
C267 C269 1.419 . S
C267 H271 0.930 . S
C268 C267 1.369 . S
C268 C277 1.429 . S
C269 C267 1.419 . S
C269 C270 1.363 . S
C269 H272 0.929 . S
C270 C269 1.363 . S
C270 C276 1.428 . S
H271 C267 0.930 . S
H272 C269 0.929 . S
S273 N274 1.613 . S
S273 N275 1.610 . S
N274 S273 1.613 . S
N274 C277 1.350 . S
N275 S273 1.610 . S
N275 C276 1.351 . S
C276 C270 1.428 . S
C276 N275 1.351 . S
C276 C277 1.434 . S
C277 C268 1.429 . S
C277 N274 1.350 . S
C277 C276 1.434 . S
C278 C279 1.369 . S
C278 C280 1.419 . S
C278 H282 0.930 . S
C279 C278 1.369 . S
C279 C288 1.429 . S
C280 C278 1.419 . S
C280 C281 1.363 . S
C280 H283 0.929 . S
C281 C280 1.363 . S
C281 C287 1.428 . S
H282 C278 0.930 . S
H283 C280 0.929 . S
S284 N285 1.613 . S
S284 N286 1.610 . S
N285 S284 1.613 . S
N285 C288 1.350 . S
N286 S284 1.610 . S
N286 C287 1.351 . S
C287 C281 1.428 . S
C287 N286 1.351 . S
C287 C288 1.434 . S
C288 C279 1.429 . S
C288 N285 1.350 . S
C288 C287 1.434 . S
C289 C290 1.369 . S
C289 C291 1.419 . S
C289 H293 0.930 . S
C290 C289 1.369 . S
C290 C299 1.429 . S
C291 C289 1.419 . S
C291 C292 1.363 . S
C291 H294 0.929 . S
C292 C291 1.363 . S
C292 C298 1.428 . S
H293 C289 0.930 . S
H294 C291 0.929 . S
S295 N296 1.613 . S
S295 N297 1.610 . S
N296 S295 1.613 . S
N296 C299 1.350 . S
N297 S295 1.610 . S
N297 C298 1.351 . S
C298 C292 1.428 . S
C298 N297 1.351 . S
C298 C299 1.434 . S
C299 C290 1.429 . S
C299 N296 1.350 . S
C299 C298 1.434 . S
C300 C301 1.369 . S
C300 C302 1.419 . S
C300 H304 0.930 . S
C301 C300 1.369 . S
C301 C310 1.429 . S
C302 C300 1.419 . S
C302 C303 1.363 . S
C302 H305 0.929 . S
C303 C302 1.363 . S
C303 C309 1.428 . S
H304 C300 0.930 . S
H305 C302 0.929 . S
S306 N307 1.613 . S
S306 N308 1.610 . S
N307 S306 1.613 . S
N307 C310 1.350 . S
N308 S306 1.610 . S
N308 C309 1.351 . S
C309 C303 1.428 . S
C309 N308 1.351 . S
C309 C310 1.434 . S
C310 C301 1.429 . S
C310 N307 1.350 . S
C310 C309 1.434 . S
C311 C312 1.369 . S
C311 C313 1.419 . S
C311 H315 0.930 . S
C312 C311 1.369 . S
C312 C321 1.429 . S
C313 C311 1.419 . S
C313 C314 1.363 . S
C313 H316 0.929 . S
C314 C313 1.363 . S
C314 C320 1.428 . S
H315 C311 0.930 . S
H316 C313 0.929 . S
S317 N318 1.613 . S
S317 N319 1.610 . S
N318 S317 1.613 . S
N318 C321 1.350 . S
N319 S317 1.610 . S
N319 C320 1.351 . S
C320 C314 1.428 . S
C320 N319 1.351 . S
C320 C321 1.434 . S
C321 C312 1.429 . S
C321 N318 1.350 . S
C321 C320 1.434 . S
C322 C323 1.369 . S
C322 C324 1.419 . S
C322 H326 0.930 . S
C323 C322 1.369 . S
C323 C332 1.429 . S
C324 C322 1.419 . S
C324 C325 1.363 . S
C324 H327 0.929 . S
C325 C324 1.363 . S
C325 C331 1.428 . S
H326 C322 0.930 . S
H327 C324 0.929 . S
S328 N329 1.613 . S
S328 N330 1.610 . S
N329 S328 1.613 . S
N329 C332 1.350 . S
N330 S328 1.610 . S
N330 C331 1.351 . S
C331 C325 1.428 . S
C331 N330 1.351 . S
C331 C332 1.434 . S
C332 C323 1.429 . S
C332 N329 1.350 . S
C332 C331 1.434 . S
C333 C334 1.369 . S
C333 C335 1.419 . S
C333 H337 0.930 . S
C334 C333 1.369 . S
C334 C343 1.429 . S
C335 C333 1.419 . S
C335 C336 1.363 . S
C335 H338 0.929 . S
C336 C335 1.363 . S
C336 C342 1.428 . S
H337 C333 0.930 . S
H338 C335 0.929 . S
S339 N340 1.613 . S
S339 N341 1.610 . S
N340 S339 1.613 . S
N340 C343 1.350 . S
N341 S339 1.610 . S
N341 C342 1.351 . S
C342 C336 1.428 . S
C342 N341 1.351 . S
C342 C343 1.434 . S
C343 C334 1.429 . S
C343 N340 1.350 . S
C343 C342 1.434 . S
C344 C345 1.369 . S
C344 C346 1.419 . S
C344 H348 0.930 . S
C345 C344 1.369 . S
C345 C354 1.429 . S
C346 C344 1.419 . S
C346 C347 1.363 . S
C346 H349 0.929 . S
C347 C346 1.363 . S
C347 C353 1.428 . S
H348 C344 0.930 . S
H349 C346 0.929 . S
S350 N351 1.613 . S
S350 N352 1.610 . S
N351 S350 1.613 . S
N351 C354 1.350 . S
N352 S350 1.610 . S
N352 C353 1.351 . S
C353 C347 1.428 . S
C353 N352 1.351 . S
C353 C354 1.434 . S
C354 C345 1.429 . S
C354 N351 1.350 . S
C354 C353 1.434 . S
C355 C356 1.369 . S
C355 C357 1.419 . S
C355 H359 0.930 . S
C356 C355 1.369 . S
C356 C365 1.429 . S
C357 C355 1.419 . S
C357 C358 1.363 . S
C357 H360 0.929 . S
C358 C357 1.363 . S
C358 C364 1.428 . S
H359 C355 0.930 . S
H360 C357 0.929 . S
S361 N362 1.613 . S
S361 N363 1.610 . S
N362 S361 1.613 . S
N362 C365 1.350 . S
N363 S361 1.610 . S
N363 C364 1.351 . S
C364 C358 1.428 . S
C364 N363 1.351 . S
C364 C365 1.434 . S
C365 C356 1.429 . S
C365 N362 1.350 . S
C365 C364 1.434 . S
C366 C367 1.369 1_655 S
C366 C368 1.419 1_554 S
C366 H370 0.930 . S
C367 C366 1.369 1_455 S
C367 C376 1.429 . S
C368 C366 1.419 1_556 S
C368 C369 1.363 1_655 S
C368 H371 0.929 . S
C369 C368 1.363 1_455 S
C369 C375 1.428 1_556 S
H370 C366 0.930 . S
H371 C368 0.929 . S
S372 N373 1.613 . S
S372 N374 1.591 1_554 S
N373 S372 1.613 . S
N373 C376 1.350 . S
N374 S372 1.591 1_556 S
N374 C375 1.342 1_556 S
C375 C369 1.428 1_554 S
C375 N374 1.342 1_554 S
C375 C376 1.434 . S
C376 C367 1.429 . S
C376 N373 1.350 . S
C376 C375 1.434 . S
C377 C378 1.369 . S
C377 C379 1.419 . S
C377 H381 0.930 . S
C378 C377 1.369 . S
C378 C387 1.429 . S
C379 C377 1.419 . S
C379 C380 1.363 . S
C379 H382 0.929 . S
C380 C379 1.363 . S
C380 C386 1.428 . S
H381 C377 0.930 . S
H382 C379 0.929 . S
S383 N384 1.613 . S
S383 N385 1.610 . S
N384 S383 1.613 . S
N384 C387 1.350 1_565 S
N385 S383 1.610 . S
N385 C386 1.351 1_565 S
C386 C380 1.428 . S
C386 N385 1.351 1_545 S
C386 C387 1.434 . S
C387 C378 1.429 . S
C387 N384 1.350 1_545 S
C387 C386 1.434 . S
C388 C389 1.369 . S
C388 C390 1.419 . S
C388 H392 0.930 . S
C389 C388 1.369 . S
C389 C398 1.429 . S
C390 C388 1.419 . S
C390 C391 1.363 . S
C390 H393 0.929 . S
C391 C390 1.363 . S
C391 C397 1.428 . S
H392 C388 0.930 . S
H393 C390 0.929 . S
S394 N395 1.613 . S
S394 N396 1.610 . S
N395 S394 1.613 . S
N395 C398 1.350 . S
N396 S394 1.610 . S
N396 C397 1.351 . S
C397 C391 1.428 . S
C397 N396 1.351 . S
C397 C398 1.434 . S
C398 C389 1.429 . S
C398 N395 1.350 . S
C398 C397 1.434 . S
C399 C400 1.369 . S
C399 C401 1.419 . S
C399 H403 0.930 . S
C400 C399 1.369 . S
C400 C409 1.429 . S
C401 C399 1.419 . S
C401 C402 1.363 . S
C401 H404 0.929 . S
C402 C401 1.363 . S
C402 C408 1.428 . S
H403 C399 0.930 . S
H404 C401 0.929 . S
S405 N406 1.613 . S
S405 N407 1.610 . S
N406 S405 1.613 . S
N406 C409 1.350 1_565 S
N407 S405 1.610 . S
N407 C408 1.351 1_565 S
C408 C402 1.428 . S
C408 N407 1.351 1_545 S
C408 C409 1.434 . S
C409 C400 1.429 . S
C409 N406 1.350 1_545 S
C409 C408 1.434 . S
C410 C411 1.369 . S
C410 C412 1.419 1_556 S
C410 H414 0.930 . S
C411 C410 1.369 . S
C411 C420 1.429 . S
C412 C410 1.419 1_554 S
C412 C413 1.363 . S
C412 H415 0.929 . S
C413 C412 1.363 . S
C413 C419 1.428 1_554 S
H414 C410 0.930 . S
H415 C412 0.929 . S
S416 N417 1.613 . S
S416 N418 1.610 1_556 S
N417 S416 1.613 . S
N417 C420 1.350 . S
N418 S416 1.610 1_554 S
N418 C419 1.351 1_554 S
C419 C413 1.428 1_556 S
C419 N418 1.351 1_556 S
C419 C420 1.434 . S
C420 C411 1.429 . S
C420 N417 1.350 . S
C420 C419 1.434 . S
C421 C422 1.369 . S
C421 C423 1.419 . S
C421 H425 0.930 . S
C422 C421 1.369 . S
C422 C431 1.429 1_455 S
C423 C421 1.419 . S
C423 C424 1.363 . S
C423 H426 0.929 . S
C424 C423 1.363 . S
C424 C430 1.428 1_455 S
H425 C421 0.930 . S
H426 C423 0.929 . S
S427 N428 1.613 . S
S427 N429 1.610 . S
N428 S427 1.613 . S
N428 C431 1.350 . S
N429 S427 1.610 . S
N429 C430 1.351 . S
C430 C424 1.428 1_655 S
C430 N429 1.351 . S
C430 C431 1.434 . S
C431 C422 1.429 1_655 S
C431 N428 1.350 . S
C431 C430 1.434 . S
C235 C7 1.101 . S
C237 C226 0.998 . S
C246 C51 2.010 . S
C248 C188 1.955 . S
C257 C87 1.356 . S
C259 C207 1.309 . S
C268 C16 0.565 . S
C270 C221 0.422 . S
C281 C183 1.896 . S
C279 C42 1.942 . S
C292 C202 1.187 . S
C290 C96 1.190 . S
C301 C47 1.377 . S
C303 C150 1.279 . S
C312 C91 3.113 . S
C314 C164 3.073 . S
C323 C2 1.963 . S
C325 C126 1.946 . S
C336 C145 1.168 . S
C334 C56 1.165 . S
C347 C169 3.079 . S
C345 C82 3.136 . S
C356 C11 2.022 . S
C358 C131 1.983 . S
C369 C160 1.745 . S
C367 C19 1.726 . S
C378 C50 1.451 . S
C380 C122 1.510 . S
C389 C99 1.549 . S
C391 C141 1.559 . S
C402 C198 1.539 . S
C400 C59 1.553 . S
C413 C217 1.304 . S
C411 C90 1.305 . S
C422 C10 1.427 . S
C424 C179 1.461 . S
