# Generated by pormake.
# Topology nom, (4,4)-cn, num edge types: 1
# Building blocks:
#     Node 0, Type 0, BuildingBlock: AZAVOO_clean_linker_0, # of connection points: 4
#     Node 1, Type 0, BuildingBlock: AZAVOO_clean_linker_0, # of connection points: 4
#     Node 2, Type 0, BuildingBlock: AZAVOO_clean_linker_0, # of connection points: 4
#     Node 3, Type 0, BuildingBlock: AZAVOO_clean_linker_0, # of connection points: 4
#     Node 4, Type 0, BuildingBlock: AZAVOO_clean_linker_0, # of connection points: 4
#     Node 5, Type 0, BuildingBlock: AZAVOO_clean_linker_0, # of connection points: 4
#     Node 6, Type 1, BuildingBlock: NAHDIM_clean_sbu_0, # of connection points: 4
#     Node 7, Type 1, BuildingBlock: NAHDIM_clean_sbu_0, # of connection points: 4
#     Node 8, Type 1, BuildingBlock: NAHDIM_clean_sbu_0, # of connection points: 4
#     Node 9, Type 1, BuildingBlock: NAHDIM_clean_sbu_0, # of connection points: 4
#     Node 10, Type 1, BuildingBlock: NAHDIM_clean_sbu_0, # of connection points: 4
#     Node 11, Type 1, BuildingBlock: NAHDIM_clean_sbu_0, # of connection points: 4
#     Edge 12, Type (0, 1), BuildingBlock: XIVTED_clean_linker_0, # of connection points: 2
#     Edge 13, Type (0, 1), BuildingBlock: XIVTED_clean_linker_0, # of connection points: 2
#     Edge 14, Type (0, 1), BuildingBlock: XIVTED_clean_linker_0, # of connection points: 2
#     Edge 15, Type (0, 1), BuildingBlock: XIVTED_clean_linker_0, # of connection points: 2
#     Edge 16, Type (0, 1), BuildingBlock: XIVTED_clean_linker_0, # of connection points: 2
#     Edge 17, Type (0, 1), BuildingBlock: XIVTED_clean_linker_0, # of connection points: 2
#     Edge 18, Type (0, 1), BuildingBlock: XIVTED_clean_linker_0, # of connection points: 2
#     Edge 19, Type (0, 1), BuildingBlock: XIVTED_clean_linker_0, # of connection points: 2
#     Edge 20, Type (0, 1), BuildingBlock: XIVTED_clean_linker_0, # of connection points: 2
#     Edge 21, Type (0, 1), BuildingBlock: XIVTED_clean_linker_0, # of connection points: 2
#     Edge 22, Type (0, 1), BuildingBlock: XIVTED_clean_linker_0, # of connection points: 2
#     Edge 23, Type (0, 1), BuildingBlock: XIVTED_clean_linker_0, # of connection points: 2
#     Edge 24, Type (0, 1), BuildingBlock: XIVTED_clean_linker_0, # of connection points: 2
#     Edge 25, Type (0, 1), BuildingBlock: XIVTED_clean_linker_0, # of connection points: 2
#     Edge 26, Type (0, 1), BuildingBlock: XIVTED_clean_linker_0, # of connection points: 2
#     Edge 27, Type (0, 1), BuildingBlock: XIVTED_clean_linker_0, # of connection points: 2
#     Edge 28, Type (0, 1), BuildingBlock: XIVTED_clean_linker_0, # of connection points: 2
#     Edge 29, Type (0, 1), BuildingBlock: XIVTED_clean_linker_0, # of connection points: 2
#     Edge 30, Type (0, 1), BuildingBlock: XIVTED_clean_linker_0, # of connection points: 2
#     Edge 31, Type (0, 1), BuildingBlock: XIVTED_clean_linker_0, # of connection points: 2
#     Edge 32, Type (0, 1), BuildingBlock: XIVTED_clean_linker_0, # of connection points: 2
#     Edge 33, Type (0, 1), BuildingBlock: XIVTED_clean_linker_0, # of connection points: 2
#     Edge 34, Type (0, 1), BuildingBlock: XIVTED_clean_linker_0, # of connection points: 2
#     Edge 35, Type (0, 1), BuildingBlock: XIVTED_clean_linker_0, # of connection points: 2
# Relax obj value: 0.157
# Max RMSD: 0.225
# Mean RMSD: 0.169
data_MOF--net-nom--node1-NAHDIM_clean_sbu_0--node2-AZAVOO_clean_linker_0--edge1-XIVTED_clean_linker_0
_symmetry_space_group_name_H-M    P1
_symmetry_Int_Tables_number       1
_symmetry_cell_setting            triclinic
loop_
_symmetry_equiv_pos_as_xyz
'x, y, z'
_cell_length_a     47.337457
_cell_length_b     50.321425
_cell_length_c     59.945231
_cell_angle_alpha  90.036644
_cell_angle_beta   90.392343
_cell_angle_gamma 122.34646
loop_
_atom_site_label
_atom_site_type_symbol
_atom_site_fract_x
_atom_site_fract_y
_atom_site_fract_z
_atom_type_partial_charge
H0 H 0.11361 0.49476 0.15105 0.0
H1 H 0.26485 0.66023 0.37056 0.0
H2 H 0.02915 0.45596 0.26101 0.0
H3 H 0.98773 0.42856 0.23127 0.0
H4 H 0.96724 0.50259 0.23104 0.0
H5 H 0.0091 0.53003 0.26067 0.0
H6 H 0.11057 0.49845 0.24851 0.0
H7 H 0.11638 0.49201 0.20866 0.0
H8 H 0.07187 0.54579 0.19317 0.0
H9 H 0.06668 0.55244 0.23305 0.0
H10 H 0.17078 0.54799 0.28367 0.0
H11 H 0.22666 0.5919 0.27346 0.0
H12 H 0.18265 0.64061 0.24501 0.0
H13 H 0.12734 0.59736 0.25589 0.0
H14 H 0.13362 0.52446 0.33351 0.0
H15 H 0.18298 0.55281 0.35777 0.0
H16 H 0.20172 0.64117 0.33221 0.0
H17 H 0.15205 0.61255 0.30832 0.0
H18 H 0.04943 0.48577 0.34308 0.0
H19 H 0.05399 0.48872 0.38374 0.0
H20 H 0.1041 0.59007 0.38027 0.0
H21 H 0.09693 0.58642 0.33994 0.0
H22 H 0.99134 0.46091 0.30821 0.0
H23 H 0.9367 0.45089 0.32 0.0
H24 H 0.97847 0.55102 0.32286 0.0
H25 H 0.03253 0.56076 0.31117 0.0
O26 O 0.11127 0.49776 0.16672 0.0
O27 O 0.08811 0.52543 0.15966 0.0
O28 O 0.23425 0.60238 0.37394 0.0
O29 O 0.24518 0.64843 0.36117 0.0
C30 C 0.05176 0.51414 0.27739 0.0
C31 C 0.08395 0.52889 0.26787 0.0
C32 C 0.11253 0.5476 0.28128 0.0
C33 C 0.10919 0.549 0.30458 0.0
C34 C 0.07699 0.53453 0.31406 0.0
C35 C 0.04833 0.5186 0.30023 0.0
C36 C 0.02202 0.49489 0.26296 0.0
C37 C 0.01502 0.46578 0.25494 0.0
C38 C 0.99137 0.45019 0.23798 0.0
C39 C 0.97447 0.46359 0.2287 0.0
C40 C 0.9802 0.49192 0.2377 0.0
C41 C 0.00377 0.50743 0.25476 0.0
C42 C 0.08786 0.52558 0.24364 0.0
C43 C 0.10217 0.50887 0.23647 0.0
C44 C 0.1054 0.50519 0.2137 0.0
C45 C 0.09445 0.51826 0.19772 0.0
C46 C 0.08043 0.5353 0.20502 0.0
C47 C 0.0773 0.53903 0.22779 0.0
C48 C 0.14511 0.56967 0.27069 0.0
C49 C 0.17324 0.56783 0.27475 0.0
C50 C 0.20506 0.59286 0.26887 0.0
C51 C 0.20897 0.61987 0.2588 0.0
C52 C 0.18041 0.62035 0.25315 0.0
C53 C 0.14878 0.59551 0.2591 0.0
C54 C 0.13944 0.56644 0.31905 0.0
C55 C 0.14846 0.54993 0.33318 0.0
C56 C 0.17664 0.56619 0.347 0.0
C57 C 0.19635 0.59928 0.34688 0.0
C58 C 0.18716 0.61571 0.33269 0.0
C59 C 0.15888 0.59943 0.31896 0.0
C60 C 0.07355 0.53594 0.33856 0.0
C61 C 0.06041 0.50847 0.35123 0.0
C62 C 0.06351 0.5103 0.37446 0.0
C63 C 0.08027 0.53971 0.38539 0.0
C64 C 0.09095 0.56695 0.37263 0.0
C65 C 0.0872 0.565 0.34947 0.0
C66 C 0.01577 0.51154 0.30884 0.0
C67 C 0.98862 0.48057 0.3116 0.0
C68 C 0.95761 0.47493 0.31838 0.0
C69 C 0.95341 0.50022 0.32216 0.0
C70 C 0.98092 0.53112 0.3198 0.0
C71 C 0.0118 0.53671 0.31327 0.0
C72 C 0.0977 0.51411 0.17355 0.0
C73 C 0.22636 0.61666 0.36151 0.0
H74 H 0.58445 0.09754 0.35434 0.0
H75 H 0.4845 0.18117 0.57331 0.0
H76 H 0.54358 0.01543 0.46342 0.0
H77 H 0.54903 0.98357 0.43507 0.0
H78 H 0.4421 0.93129 0.42416 0.0
H79 H 0.43689 0.96341 0.45276 0.0
H80 H 0.56445 0.08284 0.45081 0.0
H81 H 0.58273 0.09477 0.41202 0.0
H82 H 0.47989 0.03622 0.38983 0.0
H83 H 0.46194 0.02479 0.42871 0.0
H84 H 0.56394 0.12059 0.49031 0.0
H85 H 0.5874 0.17452 0.47755 0.0
H86 H 0.49767 0.14405 0.43872 0.0
H87 H 0.47465 0.08995 0.45139 0.0
H88 H 0.539 0.09141 0.53617 0.0
H89 H 0.54336 0.13034 0.5628 0.0
H90 H 0.46106 0.12853 0.5294 0.0
H91 H 0.45661 0.08916 0.50312 0.0
H92 H 0.51475 0.02115 0.54169 0.0
H93 H 0.51533 0.02979 0.58178 0.0
H94 H 0.42953 0.03816 0.57417 0.0
H95 H 0.42941 0.02975 0.53394 0.0
H96 H 0.50232 0.97079 0.50369 0.0
H97 H 0.47226 0.91592 0.51609 0.0
H98 H 0.38094 0.91569 0.51958 0.0
H99 H 0.41117 0.97039 0.50731 0.0
O100 O 0.57667 0.09262 0.36956 0.0
O101 O 0.52342 0.0621 0.35902 0.0
O102 O 0.52522 0.16549 0.57974 0.0
O103 O 0.48359 0.16608 0.56283 0.0
C104 C 0.48814 0.01488 0.47436 0.0
C105 C 0.50085 0.04556 0.46609 0.0
C106 C 0.50325 0.0691 0.48022 0.0
C107 C 0.49332 0.06215 0.50266 0.0
C108 C 0.47969 0.03124 0.51077 0.0
C109 C 0.47635 0.00739 0.49648 0.0
C110 C 0.48987 0.99176 0.46004 0.0
C111 C 0.52126 0.99668 0.4552 0.0
C112 C 0.52435 0.97865 0.43891 0.0
C113 C 0.49605 0.95523 0.4272 0.0
C114 C 0.46432 0.94909 0.43299 0.0
C115 C 0.46127 0.96734 0.44929 0.0
C116 C 0.51189 0.05306 0.44254 0.0
C117 C 0.54592 0.07279 0.43754 0.0
C118 C 0.55628 0.07947 0.41537 0.0
C119 C 0.53277 0.06645 0.39782 0.0
C120 C 0.49865 0.04664 0.40294 0.0
C121 C 0.48833 0.04005 0.42512 0.0
C122 C 0.51759 0.10152 0.47185 0.0
C123 C 0.54941 0.12563 0.47904 0.0
C124 C 0.56266 0.15639 0.47182 0.0
C125 C 0.54427 0.16361 0.45725 0.0
C126 C 0.51255 0.13921 0.44978 0.0
C127 C 0.49931 0.10838 0.45704 0.0
C128 C 0.49738 0.08738 0.51782 0.0
C129 C 0.52198 0.0995 0.53463 0.0
C130 C 0.52442 0.12174 0.5498 0.0
C131 C 0.50247 0.13248 0.54827 0.0
C132 C 0.4783 0.12072 0.53108 0.0
C133 C 0.47577 0.09834 0.516 0.0
C134 C 0.47233 0.02525 0.53492 0.0
C135 C 0.49517 0.02344 0.54881 0.0
C136 C 0.49551 0.02849 0.57175 0.0
C137 C 0.47292 0.03537 0.58107 0.0
C138 C 0.44767 0.03357 0.56739 0.0
C139 C 0.44733 0.02845 0.54446 0.0
C140 C 0.45885 0.97446 0.50445 0.0
C141 C 0.47583 0.95881 0.50711 0.0
C142 C 0.45861 0.92751 0.51417 0.0
C143 C 0.42419 0.91145 0.51882 0.0
C144 C 0.40749 0.92748 0.51646 0.0
C145 C 0.42467 0.95866 0.50932 0.0
C146 C 0.54386 0.07351 0.37428 0.0
C147 C 0.50457 0.15569 0.56458 0.0
H148 H 0.60064 0.56876 0.78195 0.0
H149 H 0.60216 0.40702 0.56282 0.0
H150 H 0.58052 0.60619 0.66184 0.0
H151 H 0.57147 0.63275 0.69257 0.0
H152 H 0.47013 0.55324 0.69882 0.0
H153 H 0.47921 0.52702 0.66767 0.0
H154 H 0.61059 0.5677 0.68474 0.0
H155 H 0.61663 0.5742 0.72533 0.0
H156 H 0.51079 0.50577 0.7324 0.0
H157 H 0.50524 0.49929 0.69184 0.0
H158 H 0.6256 0.52077 0.65189 0.0
H159 H 0.63882 0.48439 0.66917 0.0
H160 H 0.53561 0.42447 0.68901 0.0
H161 H 0.52282 0.46077 0.67184 0.0
H162 H 0.61962 0.5398 0.60082 0.0
H163 H 0.6403 0.51332 0.57817 0.0
H164 H 0.55563 0.42314 0.59818 0.0
H165 H 0.53496 0.44996 0.62047 0.0
H166 H 0.5865 0.57675 0.58678 0.0
H167 H 0.59741 0.57384 0.54723 0.0
H168 H 0.52093 0.47465 0.54676 0.0
H169 H 0.51004 0.47791 0.58607 0.0
H170 H 0.53941 0.59933 0.62281 0.0
H171 H 0.49652 0.60818 0.60885 0.0
H172 H 0.43618 0.51052 0.58836 0.0
H173 H 0.4773 0.50136 0.60447 0.0
O174 O 0.59783 0.56546 0.76598 0.0
O175 O 0.54322 0.5304 0.76866 0.0
O176 O 0.63751 0.46506 0.56177 0.0
O177 O 0.59465 0.41809 0.57174 0.0
C178 C 0.53954 0.5456 0.64944 0.0
C179 C 0.55367 0.53071 0.66076 0.0
C180 C 0.56399 0.51339 0.64871 0.0
C181 C 0.56272 0.51305 0.62521 0.0
C182 C 0.54802 0.52747 0.61392 0.0
C183 C 0.5347 0.54231 0.62608 0.0
C184 C 0.5305 0.56476 0.66263 0.0
C185 C 0.55591 0.59517 0.66917 0.0
C186 C 0.55073 0.61025 0.68672 0.0
C187 C 0.52024 0.59483 0.69813 0.0
C188 C 0.4939 0.56548 0.69029 0.0
C189 C 0.49893 0.55062 0.67246 0.0
C190 C 0.55748 0.53317 0.68542 0.0
C191 C 0.58883 0.55398 0.69513 0.0
C192 C 0.59216 0.55771 0.71829 0.0
C193 C 0.56415 0.54061 0.73211 0.0
C194 C 0.53285 0.51937 0.72226 0.0
C195 C 0.52959 0.51562 0.69911 0.0
C196 C 0.5733 0.4934 0.66073 0.0
C197 C 0.60604 0.49994 0.66022 0.0
C198 C 0.61347 0.47911 0.66999 0.0
C199 C 0.58826 0.4516 0.68051 0.0
C200 C 0.55572 0.4457 0.68142 0.0
C201 C 0.54833 0.46636 0.67158 0.0
C202 C 0.57588 0.49678 0.61231 0.0
C203 C 0.60564 0.51433 0.60031 0.0
C204 C 0.61737 0.49915 0.58739 0.0
C205 C 0.59961 0.46609 0.58637 0.0
C206 C 0.56992 0.44861 0.59861 0.0
C207 C 0.55813 0.46384 0.61143 0.0
C208 C 0.54765 0.5275 0.58923 0.0
C209 C 0.57127 0.55471 0.57786 0.0
C210 C 0.57769 0.55294 0.55538 0.0
C211 C 0.56034 0.52394 0.54401 0.0
C212 C 0.53454 0.49737 0.55499 0.0
C213 C 0.52827 0.49915 0.57746 0.0
C214 C 0.51145 0.54959 0.61495 0.0
C215 C 0.51678 0.57983 0.61547 0.0
C216 C 0.49233 0.58492 0.60715 0.0
C217 C 0.46241 0.55997 0.59768 0.0
C218 C 0.45823 0.53017 0.59611 0.0
C219 C 0.48215 0.52497 0.60495 0.0
C220 C 0.56763 0.54507 0.75668 0.0
C221 C 0.61184 0.44984 0.57254 0.0
H222 H 0.07302 0.45318 0.95792 0.0
H223 H 0.20265 0.49544 0.71944 0.0
H224 H 0.98531 0.44016 0.85236 0.0
H225 H 0.94538 0.42079 0.88285 0.0
H226 H 0.91594 0.32545 0.86682 0.0
H227 H 0.95681 0.34538 0.83647 0.0
H228 H 0.06157 0.47249 0.86289 0.0
H229 H 0.07049 0.47387 0.90324 0.0
H230 H 0.02968 0.37374 0.90244 0.0
H231 H 0.02129 0.37278 0.86204 0.0
H232 H 0.10851 0.49914 0.82023 0.0
H233 H 0.16684 0.52633 0.83276 0.0
H234 H 0.15194 0.4379 0.85442 0.0
H235 H 0.09368 0.41051 0.84106 0.0
H236 H 0.07933 0.49167 0.77561 0.0
H237 H 0.1248 0.51748 0.7487 0.0
H238 H 0.14578 0.44451 0.75843 0.0
H239 H 0.09973 0.41858 0.78499 0.0
H240 H 0.00379 0.45644 0.76864 0.0
H241 H 0.01831 0.47715 0.73076 0.0
H242 H 0.0519 0.41402 0.71715 0.0
H243 H 0.03588 0.39266 0.75456 0.0
H244 H 0.94984 0.42153 0.8074 0.0
H245 H 0.89102 0.39018 0.79584 0.0
H246 H 0.90708 0.32038 0.76742 0.0
H247 H 0.96591 0.35197 0.77903 0.0
O248 O 0.06943 0.45212 0.94194 0.0
O249 O 0.0481 0.4006 0.94064 0.0
O250 O 0.17211 0.52216 0.72522 0.0
O251 O 0.18473 0.48587 0.73018 0.0
C252 C 0.00215 0.40693 0.8265 0.0
C253 C 0.03509 0.42174 0.8351 0.0
C254 C 0.06249 0.43642 0.82051 0.0
C255 C 0.05705 0.43646 0.79735 0.0
C256 C 0.02403 0.42101 0.78866 0.0
C257 C 0.99655 0.40601 0.80323 0.0
C258 C 0.97393 0.39416 0.84231 0.0
C259 C 0.96975 0.41504 0.85517 0.0
C260 C 0.9468 0.40388 0.87253 0.0
C261 C 0.92753 0.37156 0.87733 0.0
C262 C 0.93071 0.35051 0.86369 0.0
C263 C 0.95374 0.36176 0.84625 0.0
C264 C 0.04085 0.42256 0.85957 0.0
C265 C 0.05476 0.45093 0.87146 0.0
C266 C 0.05973 0.45162 0.89451 0.0
C267 C 0.05079 0.42391 0.90607 0.0
C268 C 0.03685 0.3955 0.89405 0.0
C269 C 0.03198 0.39487 0.871 0.0
C270 C 0.09709 0.45286 0.82948 0.0
C271 C 0.11788 0.48561 0.82756 0.0
C272 C 0.15105 0.50106 0.83471 0.0
C273 C 0.1637 0.48405 0.84434 0.0
C274 C 0.14258 0.4514 0.84703 0.0
C275 C 0.10948 0.43583 0.83945 0.0
C276 C 0.08608 0.45312 0.78208 0.0
C277 C 0.09376 0.48128 0.77187 0.0
C278 C 0.11978 0.496 0.75655 0.0
C279 C 0.13886 0.48298 0.75134 0.0
C280 C 0.13153 0.4551 0.762 0.0
C281 C 0.10534 0.4403 0.77723 0.0
C282 C 0.01928 0.42341 0.76442 0.0
C283 C 0.01255 0.44592 0.75705 0.0
C284 C 0.02148 0.45813 0.73551 0.0
C285 C 0.03735 0.44803 0.72113 0.0
C286 C 0.03981 0.42247 0.72767 0.0
C287 C 0.03055 0.41007 0.74911 0.0
C288 C 0.96198 0.38885 0.79421 0.0
C289 C 0.94066 0.39958 0.79854 0.0
C290 C 0.9071 0.38159 0.79202 0.0
C291 C 0.89437 0.35266 0.78092 0.0
C292 C 0.9162 0.34264 0.77581 0.0
C293 C 0.94974 0.3606 0.78245 0.0
C294 C 0.05597 0.42471 0.93058 0.0
C295 C 0.1662 0.49828 0.73481 0.0
H296 H 0.32595 0.9764 0.85262 0.0
H297 H 0.36033 0.77485 0.0222 0.0
H298 H 0.39296 0.02761 0.96167 0.0
H299 H 0.41582 0.07316 0.93679 0.0
H300 H 0.51193 0.08242 0.93926 0.0
H301 H 0.48884 0.03667 0.96348 0.0
H302 H 0.34093 0.95126 0.94582 0.0
H303 H 0.32471 0.95732 0.90822 0.0
H304 H 0.42769 0.00268 0.88747 0.0
H305 H 0.44346 0.99596 0.92496 0.0
H306 H 0.33337 0.88215 0.96773 0.0
H307 H 0.32478 0.83531 0.9483 0.0
H308 H 0.41978 0.89302 0.91552 0.0
H309 H 0.42877 0.93875 0.93546 0.0
H310 H 0.35107 0.9027 0.02182 0.0
H311 H 0.33136 0.84991 0.03589 0.0
H312 H 0.40413 0.84627 0.99497 0.0
H313 H 0.42393 0.89917 0.98135 0.0
H314 H 0.40514 0.98008 0.04448 0.0
H315 H 0.42304 0.9762 0.08211 0.0
H316 H 0.47445 0.93402 0.05463 0.0
H317 H 0.45816 0.93979 0.01721 0.0
H318 H 0.43459 0.04491 0.01342 0.0
H319 H 0.48257 0.09178 0.03078 0.0
H320 H 0.54145 0.04986 0.02375 0.0
H321 H 0.49439 0.00437 0.00548 0.0
O322 O 0.33286 0.97403 0.86733 0.0
O323 O 0.38624 0.99759 0.8576 0.0
O324 O 0.33144 0.79919 0.03828 0.0
O325 O 0.36785 0.79587 0.01711 0.0
C326 C 0.42382 0.9972 0.97464 0.0
C327 C 0.40297 0.97029 0.96129 0.0
C328 C 0.39277 0.94009 0.96931 0.0
C329 C 0.40003 0.93639 0.99163 0.0
C330 C 0.42 0.96316 0.00521 0.0
C331 C 0.43331 0.99359 0.9963 0.0
C332 C 0.43924 0.02886 0.96444 0.0
C333 C 0.4192 0.0401 0.95735 0.0
C334 C 0.43221 0.06594 0.94308 0.0
C335 C 0.46559 0.08119 0.93603 0.0
C336 C 0.48625 0.07139 0.94462 0.0
C337 C 0.47312 0.04531 0.95857 0.0
C338 C 0.39341 0.97357 0.93823 0.0
C339 C 0.35992 0.96243 0.93311 0.0
C340 C 0.35074 0.96598 0.91163 0.0
C341 C 0.37494 0.98065 0.89486 0.0
C342 C 0.40846 0.99142 0.9 0.0
C343 C 0.41755 0.98774 0.92145 0.0
C344 C 0.38181 0.91387 0.95315 0.0
C345 C 0.3517 0.88474 0.95576 0.0
C346 C 0.34686 0.85807 0.9447 0.0
C347 C 0.3717 0.86053 0.93049 0.0
C348 C 0.39996 0.89036 0.92609 0.0
C349 C 0.40511 0.91668 0.93748 0.0
C350 C 0.38865 0.9046 0.00042 0.0
C351 C 0.36275 0.89047 0.01598 0.0
C352 C 0.35153 0.86032 0.02395 0.0
C353 C 0.36609 0.84381 0.01647 0.0
C354 C 0.39231 0.85825 0.00104 0.0
C355 C 0.40361 0.88844 0.99318 0.0
C356 C 0.42973 0.9596 0.02814 0.0
C357 C 0.42024 0.96998 0.04668 0.0
C358 C 0.43039 0.96762 0.06815 0.0
C359 C 0.45015 0.95471 0.07147 0.0
C360 C 0.45966 0.94447 0.05277 0.0
C361 C 0.44981 0.94716 0.03134 0.0
C362 C 0.46097 0.0212 0.00831 0.0
C363 C 0.45788 0.04595 0.01575 0.0
C364 C 0.48519 0.07252 0.02579 0.0
C365 C 0.51589 0.07461 0.02852 0.0
C366 C 0.5184 0.04929 0.02156 0.0
C367 C 0.49137 0.02306 0.01138 0.0
C368 C 0.36516 0.98465 0.87213 0.0
C369 C 0.354 0.81164 0.02467 0.0
H370 H 0.55633 0.50169 0.98454 0.0
H371 H 0.66752 0.46765 0.21736 0.0
H372 H 0.51426 0.5384 0.09226 0.0
H373 H 0.49757 0.5605 0.06279 0.0
H374 H 0.58582 0.65242 0.07584 0.0
H375 H 0.60309 0.62944 0.10479 0.0
H376 H 0.54178 0.49458 0.08155 0.0
H377 H 0.54056 0.48822 0.04102 0.0
H378 H 0.62062 0.58577 0.03493 0.0
H379 H 0.62185 0.59168 0.07551 0.0
H380 H 0.56402 0.46811 0.11783 0.0
H381 H 0.59166 0.4405 0.10679 0.0
H382 H 0.68079 0.52954 0.09049 0.0
H383 H 0.65303 0.55686 0.10149 0.0
H384 H 0.55005 0.48208 0.16727 0.0
H385 H 0.56531 0.45419 0.19326 0.0
H386 H 0.66977 0.51973 0.17863 0.0
H387 H 0.65413 0.54769 0.15296 0.0
H388 H 0.53016 0.52556 0.18071 0.0
H389 H 0.53324 0.51804 0.22087 0.0
H390 H 0.64046 0.58253 0.21917 0.0
H391 H 0.63705 0.58984 0.17924 0.0
H392 H 0.51572 0.57082 0.14085 0.0
H393 H 0.50825 0.61236 0.15513 0.0
H394 H 0.61335 0.66855 0.17232 0.0
H395 H 0.62055 0.6271 0.15796 0.0
O396 O 0.55742 0.50466 0.00055 0.0
O397 O 0.59853 0.55497 -0.00168 0.0
O398 O 0.60677 0.44542 0.21431 0.0
O399 O 0.66078 0.47811 0.20707 0.0
C400 C 0.57232 0.56721 0.1154 0.0
C401 C 0.58199 0.54745 0.10603 0.0
C402 C 0.59224 0.53164 0.12006 0.0
C403 C 0.59159 0.53453 0.14338 0.0
C404 C 0.58288 0.55496 0.15268 0.0
C405 C 0.57402 0.57193 0.13873 0.0
C406 C 0.55991 0.58229 0.10051 0.0
C407 C 0.52966 0.56341 0.089 0.0
C408 C 0.52007 0.57621 0.07226 0.0
C409 C 0.54041 0.6083 0.06686 0.0
C410 C 0.56984 0.62755 0.07937 0.0
C411 C 0.57958 0.61459 0.09605 0.0
C412 C 0.58184 0.54359 0.08144 0.0
C413 C 0.55915 0.51448 0.07143 0.0
C414 C 0.55845 0.51095 0.04827 0.0
C415 C 0.58045 0.5365 0.03472 0.0
C416 C 0.6033 0.56562 0.04487 0.0
C417 C 0.60402 0.56909 0.06803 0.0
C418 C 0.60663 0.51439 0.11046 0.0
C419 C 0.58926 0.48149 0.11144 0.0
C420 C 0.605 0.46583 0.1051 0.0
C421 C 0.63838 0.48299 0.09796 0.0
C422 C 0.65515 0.51585 0.09613 0.0
C423 C 0.63932 0.53141 0.10226 0.0
C424 C 0.60099 0.51682 0.15826 0.0
C425 C 0.5762 0.4903 0.16969 0.0
C426 C 0.58499 0.47444 0.18451 0.0
C427 C 0.61879 0.48475 0.18804 0.0
C428 C 0.64353 0.51117 0.17632 0.0
C429 C 0.63469 0.52711 0.16158 0.0
C430 C 0.58339 0.55819 0.1772 0.0
C431 C 0.55406 0.53903 0.18927 0.0
C432 C 0.55592 0.53455 0.21209 0.0
C433 C 0.58712 0.54943 0.22306 0.0
C434 C 0.61603 0.57098 0.21125 0.0
C435 C 0.61417 0.57523 0.18844 0.0
C436 C 0.56864 0.59595 0.14844 0.0
C437 C 0.53702 0.59206 0.14781 0.0
C438 C 0.53287 0.61581 0.15589 0.0
C439 C 0.56024 0.64372 0.16485 0.0
C440 C 0.59171 0.64718 0.16581 0.0
C441 C 0.59588 0.62356 0.1576 0.0
C442 C 0.57946 0.53273 0.01011 0.0
C443 C 0.62827 0.46816 0.20393 0.0
C444 C 0.64829 0.3874 0.40828 0.0
O445 O 0.66973 0.40974 0.4219 0.0
O446 O 0.71658 0.45604 0.37881 0.0
Zn447 Zn 0.66814 0.44145 0.38355 0.0
O448 O 0.66154 0.46213 0.40997 0.0
C449 C 0.6578 0.48039 0.35576 0.0
O450 O 0.67898 0.50085 0.37049 0.0
O451 O 0.64263 0.395 0.38933 0.0
C452 C 0.63138 0.45448 0.41206 0.0
O453 O 0.60879 0.43415 0.39789 0.0
C454 C 0.72937 0.464 0.3595 0.0
O455 O 0.71126 0.46415 0.34287 0.0
O456 O 0.64931 0.45184 0.35722 0.0
C457 C 0.28281 0.68074 0.5525 0.0
O458 O 0.28528 0.66164 0.53885 0.0
O459 O 0.27452 0.61227 0.5694 0.0
Zn460 Zn 0.23789 0.62159 0.56857 0.0
O461 O 0.21055 0.60644 0.54009 0.0
C462 C 0.19994 0.57431 0.60097 0.0
O463 O 0.21471 0.56178 0.59095 0.0
O464 O 0.262 0.66894 0.56841 0.0
C465 C 0.18725 0.57822 0.53589 0.0
O466 O 0.18026 0.55603 0.5504 0.0
C467 C 0.27499 0.59025 0.55939 0.0
O468 O 0.24923 0.56996 0.54712 0.0
O469 O 0.20684 0.60139 0.59493 0.0
C470 C 0.59925 0.26717 0.72866 0.0
O471 O 0.6158 0.25823 0.71657 0.0
O472 O 0.62995 0.22463 0.75753 0.0
Zn473 Zn 0.58222 0.21127 0.75171 0.0
O474 O 0.56209 0.1818 0.7255 0.0
C475 C 0.56735 0.20457 0.79802 0.0
O476 O 0.5964 0.23138 0.79863 0.0
O477 O 0.58214 0.25028 0.74501 0.0
C478 C 0.557 0.15432 0.72494 0.0
O479 O 0.56568 0.14408 0.7422 0.0
C480 C 0.64973 0.22448 0.74339 0.0
O481 O 0.63869 0.21333 0.72322 0.0
O482 O 0.55552 0.19107 0.77932 0.0
C483 C 0.45357 0.71935 0.90299 0.0
O484 O 0.45535 0.70411 0.92017 0.0
O485 O 0.424 0.64104 0.87495 0.0
Zn486 Zn 0.46956 0.67954 0.88056 0.0
O487 O 0.48981 0.67461 0.90888 0.0
C488 C 0.50427 0.66399 0.85087 0.0
O489 O 0.4986 0.64455 0.8673 0.0
O490 O 0.46139 0.71465 0.8838 0.0
C491 C 0.47871 0.64745 0.91698 0.0
O492 O 0.45603 0.62246 0.90585 0.0
C493 C 0.40074 0.62903 0.88926 0.0
O494 O 0.40647 0.64113 0.90943 0.0
O495 O 0.49623 0.68419 0.85326 0.0
C496 C 0.76101 0.37248 0.08292 0.0
O497 O 0.77645 0.3704 0.10047 0.0
O498 O 0.74602 0.28816 0.06355 0.0
Zn499 Zn 0.78204 0.33387 0.0625 0.0
O500 O 0.81526 0.346 0.08754 0.0
C501 C 0.81427 0.3251 0.02538 0.0
O502 O 0.81033 0.30178 0.0377 0.0
O503 O 0.76027 0.3589 0.06485 0.0
C504 C 0.84082 0.37386 0.08769 0.0
O505 O 0.84533 0.39249 0.0709 0.0
C506 C 0.71996 0.27801 0.07527 0.0
O507 O 0.71744 0.29761 0.08832 0.0
O508 O 0.80461 0.34258 0.03282 0.0
C509 C 0.526 0.81521 0.21304 0.0
O510 O 0.50514 0.81932 0.20123 0.0
O511 O 0.46229 0.81364 0.24129 0.0
Zn512 Zn 0.51055 0.84904 0.24079 0.0
O513 O 0.51567 0.87911 0.21661 0.0
C514 C 0.51262 0.8535 0.28852 0.0
O515 O 0.49589 0.82271 0.28664 0.0
O516 O 0.5351 0.82809 0.2322 0.0
C517 C 0.50039 0.89354 0.2175 0.0
O518 O 0.48314 0.89073 0.23537 0.0
C519 C 0.43911 0.81358 0.25186 0.0
O520 O 0.44595 0.83842 0.2636 0.0
O521 O 0.52334 0.87013 0.27098 0.0
H522 H 0.22803 0.67988 0.26933 0.0
H523 H 0.4183 0.75625 0.23316 0.0
H524 H 0.26638 0.62542 0.24314 0.0
H525 H 0.38236 0.80607 0.26996 0.0
H526 H 0.36206 0.70906 0.23372 0.0
H527 H 0.2836 0.72729 0.2665 0.0
C528 C 0.24812 0.67797 0.26271 0.0
C529 C 0.24255 0.6487 0.25627 0.0
C530 C 0.36649 0.73033 0.24165 0.0
C531 C 0.30644 0.70291 0.25334 0.0
C532 C 0.39856 0.75732 0.24131 0.0
C533 C 0.40505 0.78515 0.25159 0.0
C534 C 0.34067 0.73122 0.25224 0.0
C535 C 0.37853 0.78512 0.26189 0.0
C536 C 0.27991 0.70502 0.26129 0.0
C537 C 0.26966 0.64752 0.24834 0.0
N538 N 0.34749 0.75856 0.26194 0.0
N539 N 0.3005 0.6743 0.24705 0.0
H540 H 0.57815 0.2169 0.48283 0.0
H541 H 0.60604 0.33458 0.38342 0.0
H542 H 0.54166 0.18542 0.41574 0.0
H543 H 0.65188 0.36442 0.44866 0.0
H544 H 0.57913 0.27972 0.39529 0.0
H545 H 0.60234 0.27111 0.47091 0.0
C546 C 0.57538 0.22141 0.46554 0.0
C547 C 0.5581 0.19657 0.45022 0.0
C548 C 0.59507 0.29831 0.40698 0.0
C549 C 0.58542 0.25872 0.43648 0.0
C550 C 0.6104 0.32961 0.40023 0.0
C551 C 0.63132 0.35411 0.41506 0.0
C552 C 0.60061 0.29154 0.42871 0.0
C553 C 0.63606 0.34632 0.43664 0.0
C554 C 0.58905 0.25239 0.45876 0.0
C555 C 0.5546 0.20382 0.42815 0.0
N556 N 0.62084 0.31575 0.44279 0.0
N557 N 0.56824 0.23427 0.42191 0.0
H558 H 0.39448 0.51735 0.5994 0.0
H559 H 0.33897 0.63567 0.57114 0.0
H560 H 0.46714 0.61283 0.57961 0.0
H561 H 0.27626 0.53677 0.55536 0.0
H562 H 0.38561 0.62872 0.57865 0.0
H563 H 0.34993 0.52474 0.58757 0.0
C564 C 0.40129 0.53977 0.5923 0.0
C565 C 0.43498 0.5644 0.59035 0.0
C566 C 0.36169 0.60865 0.57337 0.0
C567 C 0.38352 0.57321 0.57755 0.0
C568 C 0.33507 0.61252 0.56919 0.0
C569 C 0.30372 0.5867 0.56269 0.0
C570 C 0.35666 0.57861 0.57155 0.0
C571 C 0.30005 0.55729 0.56028 0.0
C572 C 0.37567 0.54396 0.58569 0.0
C573 C 0.44172 0.59324 0.58176 0.0
N574 N 0.32611 0.55394 0.565 0.0
N575 N 0.41621 0.59692 0.57585 0.0
H576 H 0.8419 0.33975 0.80745 0.0
H577 H 0.70101 0.23369 0.7165 0.0
H578 H 0.86445 0.31912 0.74248 0.0
H579 H 0.68038 0.25078 0.78325 0.0
H580 H 0.76079 0.26338 0.72571 0.0
H581 H 0.78242 0.30644 0.79872 0.0
C582 C 0.83431 0.32836 0.79126 0.0
C583 C 0.85818 0.33243 0.7756 0.0
C584 C 0.74312 0.26045 0.73836 0.0
C585 C 0.78996 0.29384 0.76555 0.0
C586 C 0.70899 0.24344 0.73313 0.0
C587 C 0.68564 0.23988 0.74908 0.0
C588 C 0.75392 0.27403 0.75966 0.0
C589 C 0.69743 0.25302 0.77036 0.0
C590 C 0.80032 0.30912 0.78634 0.0
C591 C 0.84687 0.31652 0.75507 0.0
N592 N 0.7307 0.26963 0.77497 0.0
N593 N 0.81354 0.29801 0.75059 0.0
H594 H 0.35858 0.81078 0.95635 0.0
H595 H 0.44494 0.75367 0.87116 0.0
H596 H 0.38764 0.84745 0.88972 0.0
H597 H 0.42686 0.72749 0.94061 0.0
H598 H 0.4171 0.78261 0.87575 0.0
H599 H 0.374 0.77268 0.94833 0.0
C600 C 0.36719 0.81015 0.93977 0.0
C601 C 0.37205 0.83244 0.9237 0.0
C602 C 0.41919 0.77046 0.88995 0.0
C603 C 0.39088 0.78962 0.91467 0.0
C604 C 0.43525 0.7541 0.88738 0.0
C605 C 0.4385 0.73837 0.90558 0.0
C606 C 0.40619 0.77094 0.91084 0.0
C607 C 0.42521 0.73949 0.92616 0.0
C608 C 0.37649 0.78869 0.93531 0.0
C609 C 0.38388 0.83086 0.90264 0.0
N610 N 0.40968 0.75551 0.92822 0.0
N611 N 0.39334 0.81011 0.89881 0.0
H612 H 0.61875 0.43007 0.07301 0.0
H613 H 0.76969 0.41517 0.1146 0.0
H614 H 0.69913 0.49956 0.11483 0.0
H615 H 0.71309 0.3687 0.05483 0.0
H616 H 0.74016 0.44264 0.11744 0.0
H617 H 0.64922 0.40337 0.06846 0.0
C618 C 0.64283 0.43968 0.08116 0.0
C619 C 0.65662 0.46708 0.0942 0.0
C620 C 0.73431 0.42653 0.10365 0.0
C621 C 0.69121 0.43671 0.08931 0.0
C622 C 0.75105 0.41076 0.10207 0.0
C623 C 0.74382 0.38967 0.08445 0.0
C624 C 0.70982 0.42081 0.08769 0.0
C625 C 0.71951 0.38491 0.06862 0.0
C626 C 0.66022 0.42458 0.07849 0.0
C627 C 0.68788 0.4787 0.1044 0.0
N628 N 0.70316 0.40022 0.0707 0.0
N629 N 0.70402 0.46333 0.10187 0.0
H630 H 0.42969 0.86405 0.50161 0.0
H631 H 0.28237 0.72816 0.57524 0.0
H632 H 0.37558 0.88207 0.5507 0.0
H633 H 0.3323 0.71171 0.52202 0.0
H634 H 0.31822 0.78489 0.5684 0.0
H635 H 0.39663 0.80837 0.51108 0.0
C636 C 0.41109 0.85635 0.51456 0.0
C637 C 0.40538 0.87778 0.52534 0.0
C638 C 0.3213 0.7688 0.55827 0.0
C639 C 0.36696 0.81382 0.53609 0.0
C640 C 0.30087 0.73644 0.56218 0.0
C641 C 0.30424 0.71513 0.54913 0.0
C642 C 0.3453 0.77983 0.54128 0.0
C643 C 0.32865 0.72719 0.53244 0.0
C644 C 0.392 0.82447 0.51986 0.0
C645 C 0.38052 0.86631 0.54176 0.0
N646 N 0.34817 0.75865 0.52901 0.0
N647 N 0.36218 0.8351 0.54661 0.0
H648 H 0.62562 0.43081 0.66166 0.0
H649 H 0.56931 0.29332 0.75068 0.0
H650 H 0.56592 0.4184 0.71945 0.0
H651 H 0.63186 0.30754 0.69413 0.0
H652 H 0.57037 0.34086 0.74063 0.0
H653 H 0.63159 0.38806 0.6747 0.0
C654 C 0.6142 0.41942 0.67727 0.0
C655 C 0.59506 0.42806 0.68941 0.0
C656 C 0.58398 0.33366 0.73047 0.0
C657 C 0.60126 0.37871 0.70424 0.0
C658 C 0.58333 0.30647 0.73618 0.0
C659 C 0.60034 0.29631 0.72315 0.0
C660 C 0.6017 0.3508 0.71155 0.0
C661 C 0.61824 0.31439 0.7046 0.0
C662 C 0.61739 0.39484 0.68463 0.0
C663 C 0.58043 0.41216 0.70938 0.0
N664 N 0.61832 0.34067 0.6993 0.0
N665 N 0.58365 0.38814 0.71608 0.0
H666 H 0.18989 0.48306 0.88489 0.0
H667 H 0.37808 0.60508 0.84749 0.0
H668 H 0.21767 0.52245 0.81891 0.0
H669 H 0.34671 0.59351 0.91617 0.0
H670 H 0.32089 0.56525 0.83647 0.0
H671 H 0.24912 0.51441 0.89622 0.0
C672 C 0.20857 0.49804 0.87278 0.0
C673 C 0.19916 0.50057 0.85105 0.0
C674 C 0.32661 0.5713 0.85396 0.0
C675 C 0.2663 0.53598 0.86369 0.0
C676 C 0.35924 0.59395 0.86029 0.0
C677 C 0.36704 0.6029 0.88276 0.0
C678 C 0.30166 0.55732 0.87023 0.0
C679 C 0.34165 0.58755 0.89863 0.0
C680 C 0.24218 0.51594 0.87923 0.0
C681 C 0.22406 0.52026 0.83591 0.0
N682 N 0.30996 0.56555 0.89204 0.0
N683 N 0.25654 0.53727 0.84252 0.0
H684 H 0.51987 0.11223 0.06338 0.0
H685 H 0.71712 0.2318 0.0496 0.0
H686 H 0.58022 0.10309 0.01402 0.0
H687 H 0.65693 0.25055 0.09268 0.0
H688 H 0.66771 0.18086 0.04021 0.0
H689 H 0.57016 0.16016 0.07738 0.0
C690 C 0.54362 0.12028 0.05548 0.0
C691 C 0.54583 0.10352 0.03755 0.0
C692 C 0.66528 0.19601 0.05182 0.0
C693 C 0.60333 0.15793 0.05363 0.0
C694 C 0.69355 0.22509 0.05726 0.0
C695 C 0.69109 0.24563 0.07177 0.0
C696 C 0.63422 0.18733 0.06089 0.0
C697 C 0.65991 0.23552 0.08131 0.0
C698 C 0.57231 0.14749 0.06357 0.0
C699 C 0.57733 0.11485 0.02813 0.0
N700 N 0.63258 0.20714 0.07556 0.0
N701 N 0.60475 0.14129 0.03626 0.0
H702 H 0.58636 0.68038 0.20247 0.0
H703 H 0.51072 0.78531 0.17279 0.0
H704 H 0.52576 0.66642 0.14422 0.0
H705 H 0.56129 0.79386 0.2351 0.0
H706 H 0.52035 0.74459 0.16094 0.0
H707 H 0.58102 0.72427 0.2138 0.0
C708 C 0.57198 0.6866 0.19205 0.0
C709 C 0.55638 0.66967 0.1724 0.0
C710 C 0.52949 0.75541 0.17718 0.0
C711 C 0.55022 0.7198 0.18523 0.0
C712 C 0.5241 0.7788 0.18395 0.0
C713 C 0.53504 0.79293 0.20505 0.0
C714 C 0.54596 0.74594 0.19157 0.0
C715 C 0.55238 0.78357 0.21871 0.0
C716 C 0.56888 0.71157 0.19856 0.0
C717 C 0.5378 0.67852 0.15965 0.0
N718 N 0.55717 0.76051 0.21178 0.0
N719 N 0.53531 0.70299 0.16626 0.0
H720 H 0.92252 0.52717 0.30298 0.0
H721 H 0.76779 0.45108 0.38629 0.0
H722 H 0.90923 0.46106 0.35396 0.0
H723 H 0.7681 0.49209 0.32299 0.0
H724 H 0.82267 0.4598 0.37757 0.0
H725 H 0.86869 0.51953 0.31284 0.0
C726 C 0.90823 0.51108 0.31631 0.0
C727 C 0.9203 0.49476 0.32773 0.0
C728 C 0.81068 0.4669 0.36564 0.0
C729 C 0.85871 0.48592 0.33913 0.0
C730 C 0.7795 0.46213 0.37065 0.0
C731 C 0.76335 0.47083 0.35531 0.0
C732 C 0.82592 0.48082 0.34529 0.0
C733 C 0.77958 0.4849 0.33526 0.0
C734 C 0.87747 0.50663 0.32187 0.0
C735 C 0.90065 0.47392 0.34468 0.0
N736 N 0.80998 0.48951 0.33086 0.0
N737 N 0.87083 0.47021 0.34999 0.0
H738 H 0.08552 0.58243 0.41675 0.0
H739 H 0.14939 0.52078 0.5155 0.0
H740 H 0.09734 0.50347 0.40905 0.0
H741 H 0.18095 0.61826 0.50862 0.0
H742 H 0.11852 0.50904 0.48011 0.0
H743 H 0.10883 0.59064 0.45447 0.0
C744 C 0.09277 0.56668 0.42293 0.0
C745 C 0.08969 0.54239 0.40943 0.0
C746 C 0.13213 0.53295 0.48646 0.0
C747 C 0.11564 0.55133 0.45281 0.0
C748 C 0.14967 0.53965 0.50661 0.0
C749 C 0.16795 0.57058 0.51487 0.0
C750 C 0.13238 0.55723 0.47476 0.0
C751 C 0.16745 0.59415 0.50271 0.0
C752 C 0.10595 0.57136 0.4445 0.0
C753 C 0.09873 0.52227 0.41875 0.0
N754 N 0.14986 0.58697 0.48327 0.0
N755 N 0.11137 0.52726 0.43981 0.0
H756 H 0.47022 0.08571 0.59457 0.0
H757 H 0.5462 0.09591 0.71626 0.0
H758 H 0.49096 0.0172 0.61921 0.0
H759 H 0.53228 0.16706 0.68797 0.0
H760 H 0.52142 0.06405 0.68245 0.0
H761 H 0.48714 0.11244 0.63052 0.0
C762 C 0.47763 0.07584 0.60771 0.0
C763 C 0.47898 0.04901 0.60387 0.0
C764 C 0.52371 0.08659 0.68371 0.0
C765 C 0.49939 0.08019 0.64507 0.0
C766 C 0.53786 0.1048 0.703 0.0
C767 C 0.54149 0.13429 0.70492 0.0
C768 C 0.51303 0.09792 0.66629 0.0
C769 C 0.53017 0.14457 0.68721 0.0
C770 C 0.48769 0.09138 0.62821 0.0
C771 C 0.48973 0.03791 0.62141 0.0
N772 N 0.51654 0.12646 0.66867 0.0
N773 N 0.49968 0.05364 0.64122 0.0
H774 H 0.5358 0.6543 0.7089 0.0
H775 H 0.51565 0.6181 0.83942 0.0
H776 H 0.50125 0.56316 0.73718 0.0
H777 H 0.51284 0.69587 0.8117 0.0
H778 H 0.52135 0.60295 0.80194 0.0
H779 H 0.53632 0.67434 0.74648 0.0
C780 C 0.52805 0.63852 0.72301 0.0
C781 C 0.51793 0.60697 0.72001 0.0
C782 C 0.51969 0.62345 0.80407 0.0
C783 C 0.51937 0.62973 0.76274 0.0
C784 C 0.51667 0.63227 0.82548 0.0
C785 C 0.51333 0.65808 0.82869 0.0
C786 C 0.5196 0.64063 0.78568 0.0
C787 C 0.51508 0.67566 0.80996 0.0
C788 C 0.52843 0.64993 0.74436 0.0
C789 C 0.50849 0.58747 0.73876 0.0
N790 N 0.51788 0.66648 0.78917 0.0
N791 N 0.50961 0.59921 0.75933 0.0
H792 H 0.91993 0.32733 0.90752 0.0
H793 H 0.82058 0.36765 0.99424 0.0
H794 H 0.88734 0.39101 0.89345 0.0
H795 H 0.8411 0.29472 0.00515 0.0
H796 H 0.8447 0.37617 0.95713 0.0
H797 H 0.88993 0.31382 0.94282 0.0
C798 C 0.90601 0.33809 0.91166 0.0
C799 C 0.9063 0.36047 0.89752 0.0
C800 C 0.84384 0.35823 0.96759 0.0
C801 C 0.87252 0.34562 0.93817 0.0
C802 C 0.83018 0.35342 0.98885 0.0
C803 C 0.82893 0.33051 0.00288 0.0
C804 C 0.85657 0.34013 0.96031 0.0
C805 C 0.84161 0.31269 0.99492 0.0
C806 C 0.88911 0.33055 0.93192 0.0
C807 C 0.88826 0.37402 0.90398 0.0
N808 N 0.85503 0.31797 0.97419 0.0
N809 N 0.87232 0.36655 0.92389 0.0
H810 H 0.41376 0.93907 0.11011 0.0
H811 H 0.53721 0.90883 0.17928 0.0
H812 H 0.50972 0.9624 0.08505 0.0
H813 H 0.45773 0.91364 0.20985 0.0
H814 H 0.52793 0.92876 0.14462 0.0
H815 H 0.42953 0.93006 0.14684 0.0
C816 C 0.43832 0.94272 0.11234 0.0
C817 C 0.46029 0.95126 0.09431 0.0
C818 C 0.5128 0.92582 0.159 0.0
C819 C 0.47822 0.9403 0.13632 0.0
C820 C 0.51807 0.91442 0.17878 0.0
C821 C 0.49805 0.90934 0.19743 0.0
C822 C 0.48701 0.93174 0.15776 0.0
C823 C 0.4737 0.91711 0.19586 0.0
C824 C 0.44724 0.93742 0.13334 0.0
C825 C 0.4916 0.95512 0.09826 0.0
N826 N 0.46857 0.92753 0.17628 0.0
N827 N 0.49948 0.94932 0.11876 0.0
H828 H 0.55749 0.4893 0.23815 0.0
H829 H 0.67203 0.53977 0.34779 0.0
H830 H 0.62553 0.58577 0.25842 0.0
H831 H 0.61176 0.44421 0.32344 0.0
H832 H 0.64979 0.55648 0.31789 0.0
H833 H 0.57064 0.4719 0.27244 0.0
C834 C 0.57457 0.50684 0.2501 0.0
C835 C 0.59048 0.53905 0.24546 0.0
C836 C 0.64133 0.53184 0.31913 0.0
C837 C 0.60632 0.51928 0.28445 0.0
C838 C 0.65407 0.52227 0.33617 0.0
C839 C 0.64397 0.49058 0.33798 0.0
C840 C 0.61829 0.50956 0.30378 0.0
C841 C 0.62045 0.46892 0.32256 0.0
C842 C 0.58237 0.49688 0.26956 0.0
C843 C 0.61296 0.56071 0.26131 0.0
N844 N 0.60851 0.47885 0.30604 0.0
N845 N 0.62042 0.55043 0.28004 0.0
H846 H 0.4589 0.89232 0.41639 0.0
H847 H 0.54875 0.91621 0.29921 0.0
H848 H 0.54215 0.98148 0.39402 0.0
H849 H 0.47992 0.82473 0.32711 0.0
H850 H 0.54657 0.94051 0.33391 0.0
H851 H 0.4654 0.86691 0.3836 0.0
C852 C 0.47856 0.9065 0.40461 0.0
C853 C 0.50009 0.939 0.40797 0.0
C854 C 0.53216 0.9151 0.33252 0.0
C855 C 0.50767 0.91023 0.3705 0.0
C856 C 0.53342 0.90121 0.31271 0.0
C857 C 0.51442 0.86839 0.31021 0.0
C858 C 0.51145 0.89607 0.34991 0.0
C859 C 0.49502 0.85013 0.32829 0.0
C860 C 0.48239 0.892 0.38599 0.0
C861 C 0.5253 0.95627 0.39226 0.0
N862 N 0.49379 0.86423 0.3473 0.0
N863 N 0.52826 0.94172 0.37417 0.0
H864 H 0.62461 0.54791 0.5308 0.0
H865 H 0.56938 0.44378 0.41965 0.0
H866 H 0.52244 0.4905 0.50758 0.0
H867 H 0.67088 0.49667 0.44476 0.0
H868 H 0.55282 0.46537 0.44952 0.0
H869 H 0.64305 0.53495 0.49688 0.0
C870 C 0.6061 0.53314 0.51832 0.0
C871 C 0.5719 0.5202 0.52202 0.0
C872 C 0.57874 0.47238 0.44847 0.0
C873 C 0.5928 0.50466 0.48342 0.0
C874 C 0.58824 0.45999 0.43143 0.0
C875 C 0.62153 0.46821 0.42983 0.0
C876 C 0.60267 0.49311 0.4641 0.0
C877 C 0.64489 0.48953 0.44547 0.0
C878 C 0.61663 0.52548 0.49906 0.0
C879 C 0.549 0.5007 0.50548 0.0
N880 N 0.63497 0.50113 0.46204 0.0
N881 N 0.55985 0.49333 0.48697 0.0
H882 H 0.07313 0.5122 0.7168 0.0
H883 H 0.16893 0.5116 0.60925 0.0
H884 H 0.04527 0.42731 0.68045 0.0
H885 H 0.17137 0.59472 0.6307 0.0
H886 H 0.12575 0.48083 0.63666 0.0
H887 H 0.11008 0.54322 0.68641 0.0
C888 C 0.07407 0.5 0.70222 0.0
C889 C 0.05586 0.46693 0.70125 0.0
C890 C 0.13558 0.50576 0.63532 0.0
C891 C 0.09922 0.50256 0.66669 0.0
C892 C 0.16044 0.52344 0.61977 0.0
C893 C 0.17392 0.55585 0.61775 0.0
C894 C 0.12434 0.52061 0.64923 0.0
C895 C 0.16169 0.5698 0.63173 0.0
C896 C 0.0955 0.51782 0.68496 0.0
C897 C 0.05908 0.45266 0.68212 0.0
N898 N 0.13775 0.55213 0.64704 0.0
N899 N 0.08061 0.47054 0.66573 0.0
H900 H 0.52554 0.13755 0.93319 0.0
H901 H 0.50453 0.15216 0.8027 0.0
H902 H 0.43392 0.07666 0.89674 0.0
H903 H 0.58974 0.22251 0.84095 0.0
H904 H 0.4772 0.12565 0.83735 0.0
H905 H 0.54847 0.17081 0.90015 0.0
C906 C 0.51011 0.13148 0.91832 0.0
C907 C 0.47784 0.10434 0.91767 0.0
C908 C 0.50176 0.14704 0.83819 0.0
C909 C 0.50396 0.14193 0.87976 0.0
C910 C 0.51743 0.16214 0.8184 0.0
C911 C 0.54959 0.18945 0.81891 0.0
C912 C 0.51849 0.15914 0.85866 0.0
C913 C 0.56499 0.20143 0.83975 0.0
C914 C 0.52316 0.15045 0.89948 0.0
C915 C 0.4588 0.09757 0.89803 0.0
N916 N 0.54943 0.18603 0.85878 0.0
N917 N 0.4723 0.11602 0.87978 0.0
H918 H 0.58362 0.65095 0.03607 0.0
H919 H 0.44372 0.59795 0.94487 0.0
H920 H 0.47857 0.59315 0.05181 0.0
H921 H 0.53519 0.68921 0.94078 0.0
H922 H 0.45864 0.59274 0.98293 0.0
H923 H 0.56888 0.66402 0.00035 0.0
C924 C 0.55751 0.64151 0.03229 0.0
C925 C 0.53226 0.62053 0.04692 0.0
C926 C 0.47538 0.61396 0.97373 0.0
C927 C 0.51541 0.63465 0.00581 0.0
C928 C 0.46707 0.61683 0.95195 0.0
C929 C 0.48837 0.64399 0.93967 0.0
C930 C 0.50552 0.63814 0.98316 0.0
C931 C 0.51813 0.66788 0.94975 0.0
C932 C 0.54918 0.64884 0.01182 0.0
C933 C 0.49885 0.60872 0.04085 0.0
N934 N 0.52607 0.66427 0.97091 0.0
N935 N 0.49138 0.61552 0.02061 0.0
H936 H 0.92792 0.40132 0.21998 0.0
H937 H 0.89339 0.43397 0.09512 0.0
H938 H 0.97378 0.49383 0.19114 0.0
H939 H 0.83719 0.34265 0.12613 0.0
H940 H 0.92572 0.45552 0.12951 0.0
H941 H 0.89637 0.37868 0.18523 0.0
C942 C 0.93123 0.41685 0.20636 0.0
C943 C 0.95334 0.44951 0.20848 0.0
C944 C 0.90639 0.43074 0.12879 0.0
C945 C 0.91758 0.42383 0.1687 0.0
C946 C 0.888 0.41837 0.1091 0.0
C947 C 0.86245 0.38646 0.10775 0.0
C948 C 0.89928 0.41108 0.14729 0.0
C949 C 0.85662 0.3674 0.12644 0.0
C950 C 0.91322 0.40394 0.18656 0.0
C951 C 0.9566 0.46858 0.19036 0.0
N952 N 0.87484 0.38003 0.14547 0.0
N953 N 0.93902 0.45545 0.17123 0.0
loop_
_geom_bond_atom_site_label_1
_geom_bond_atom_site_label_2
_geom_bond_distance
_geom_bond_site_symmetry_2
_ccdc_geom_bond_type
H0 O26 0.856 . S
H1 O29 0.854 . S
H2 C37 0.930 1_455 S
H3 C38 0.930 . S
H4 C40 0.930 . S
H5 C41 0.930 . S
H6 C43 0.931 . S
H7 C44 0.930 . S
H8 C46 0.930 . S
H9 C47 0.929 . S
H10 C49 0.930 . S
H11 C50 0.931 . S
H12 C52 0.930 . S
H13 C53 0.929 . S
H14 C55 0.931 . S
H15 C56 0.930 . S
H16 C58 0.930 . S
H17 C59 0.932 . S
H18 C61 0.930 . S
H19 C62 0.929 . S
H20 C64 0.931 . S
H21 C65 0.930 . S
H22 C67 0.929 . S
H23 C68 0.931 . S
H24 C70 0.930 . S
H25 C71 0.930 . S
O26 H0 0.856 . S
O26 C72 1.300 . S
O27 C72 1.209 . S
O28 C73 1.199 . S
O29 H1 0.854 . S
O29 C73 1.297 . S
C30 C31 1.404 . S
C30 C35 1.397 . S
C30 C36 1.492 . S
C31 C30 1.404 . S
C31 C32 1.396 . S
C31 C42 1.492 . S
C32 C31 1.396 . S
C32 C33 1.397 . S
C32 C48 1.509 . S
C33 C32 1.397 . S
C33 C34 1.412 . S
C33 C54 1.485 . S
C34 C33 1.412 . S
C34 C35 1.388 . S
C34 C60 1.490 . S
C35 C30 1.397 . S
C35 C34 1.388 . S
C35 C66 1.519 1_455 S
C36 C30 1.492 . S
C36 C37 1.363 1_455 S
C36 C41 1.390 1_455 S
C37 H2 0.930 1_655 S
C37 C36 1.363 1_655 S
C37 C38 1.372 . S
C38 H3 0.930 . S
C38 C37 1.372 . S
C38 C39 1.383 . S
C39 C38 1.383 . S
C39 C40 1.395 . S
C40 H4 0.930 . S
C40 C39 1.395 . S
C40 C41 1.362 . S
C41 H5 0.930 . S
C41 C36 1.390 1_655 S
C41 C40 1.362 . S
C42 C31 1.492 . S
C42 C43 1.377 . S
C42 C47 1.397 . S
C43 H6 0.931 . S
C43 C42 1.377 . S
C43 C44 1.376 . S
C44 H7 0.930 . S
C44 C43 1.376 . S
C44 C45 1.376 . S
C45 C44 1.376 . S
C45 C46 1.378 . S
C45 C72 1.486 . S
C46 H8 0.930 . S
C46 C45 1.378 . S
C46 C47 1.376 . S
C47 H9 0.929 . S
C47 C42 1.397 . S
C47 C46 1.376 . S
C48 C32 1.509 . S
C48 C49 1.391 . S
C48 C53 1.386 . S
C49 H10 0.930 . S
C49 C48 1.391 . S
C49 C50 1.375 . S
C50 H11 0.931 . S
C50 C49 1.375 . S
C50 C51 1.375 . S
C51 C50 1.375 . S
C51 C52 1.361 . S
C52 H12 0.930 . S
C52 C51 1.361 . S
C52 C53 1.399 . S
C53 H13 0.929 . S
C53 C48 1.386 . S
C53 C52 1.399 . S
C54 C33 1.485 . S
C54 C55 1.394 . S
C54 C59 1.360 . S
C55 H14 0.931 . S
C55 C54 1.394 . S
C55 C56 1.372 . S
C56 H15 0.930 . S
C56 C55 1.372 . S
C56 C57 1.397 . S
C57 C56 1.397 . S
C57 C58 1.390 . S
C57 C73 1.476 . S
C58 H16 0.930 . S
C58 C57 1.390 . S
C58 C59 1.366 . S
C59 H17 0.932 . S
C59 C54 1.360 . S
C59 C58 1.366 . S
C60 C34 1.490 . S
C60 C61 1.380 . S
C60 C65 1.386 . S
C61 H18 0.930 . S
C61 C60 1.380 . S
C61 C62 1.381 . S
C62 H19 0.929 . S
C62 C61 1.381 . S
C62 C63 1.371 . S
C63 C62 1.371 . S
C63 C64 1.380 . S
C64 H20 0.931 . S
C64 C63 1.380 . S
C64 C65 1.387 . S
C65 H21 0.930 . S
C65 C60 1.386 . S
C65 C64 1.387 . S
C66 C35 1.519 1_655 S
C66 C67 1.377 . S
C66 C71 1.361 . S
C67 H22 0.929 . S
C67 C66 1.377 . S
C67 C68 1.386 . S
C68 H23 0.931 . S
C68 C67 1.386 . S
C68 C69 1.363 . S
C69 C68 1.363 . S
C69 C70 1.385 . S
C70 H24 0.930 . S
C70 C69 1.385 . S
C70 C71 1.396 . S
C71 H25 0.930 . S
C71 C66 1.361 . S
C71 C70 1.396 . S
C72 O26 1.300 . S
C72 O27 1.209 . S
C72 C45 1.486 . S
C73 O28 1.199 . S
C73 O29 1.297 . S
C73 C57 1.476 . S
H74 O100 0.856 . S
H75 O103 0.854 . S
H76 C111 0.930 . S
H77 C112 0.930 . S
H78 C114 0.930 . S
H79 C115 0.930 . S
H80 C117 0.931 . S
H81 C118 0.930 . S
H82 C120 0.930 . S
H83 C121 0.929 . S
H84 C123 0.930 . S
H85 C124 0.931 . S
H86 C126 0.930 . S
H87 C127 0.929 . S
H88 C129 0.931 . S
H89 C130 0.930 . S
H90 C132 0.930 . S
H91 C133 0.932 . S
H92 C135 0.930 . S
H93 C136 0.929 . S
H94 C138 0.931 . S
H95 C139 0.930 . S
H96 C141 0.929 . S
H97 C142 0.931 . S
H98 C144 0.930 . S
H99 C145 0.929 . S
O100 H74 0.856 . S
O100 C146 1.300 . S
O101 C146 1.209 . S
O102 C147 1.199 . S
O103 H75 0.854 . S
O103 C147 1.297 . S
C104 C105 1.404 . S
C104 C109 1.397 . S
C104 C110 1.492 . S
C105 C104 1.404 . S
C105 C106 1.396 . S
C105 C116 1.492 . S
C106 C105 1.396 . S
C106 C107 1.397 . S
C106 C122 1.509 . S
C107 C106 1.397 . S
C107 C108 1.412 . S
C107 C128 1.485 . S
C108 C107 1.412 . S
C108 C109 1.388 . S
C108 C134 1.490 . S
C109 C104 1.397 . S
C109 C108 1.388 . S
C109 C140 1.519 1_545 S
C110 C104 1.492 . S
C110 C111 1.363 . S
C110 C115 1.390 1_545 S
C111 H76 0.930 . S
C111 C110 1.363 . S
C111 C112 1.372 1_545 S
C112 H77 0.930 . S
C112 C111 1.372 1_565 S
C112 C113 1.383 . S
C113 C112 1.383 . S
C113 C114 1.395 . S
C114 H78 0.930 . S
C114 C113 1.395 . S
C114 C115 1.362 . S
C115 H79 0.930 . S
C115 C110 1.390 1_565 S
C115 C114 1.362 . S
C116 C105 1.492 . S
C116 C117 1.377 . S
C116 C121 1.397 . S
C117 H80 0.931 . S
C117 C116 1.377 . S
C117 C118 1.376 . S
C118 H81 0.930 . S
C118 C117 1.376 . S
C118 C119 1.376 . S
C119 C118 1.376 . S
C119 C120 1.378 . S
C119 C146 1.486 . S
C120 H82 0.930 . S
C120 C119 1.378 . S
C120 C121 1.376 . S
C121 H83 0.929 . S
C121 C116 1.397 . S
C121 C120 1.376 . S
C122 C106 1.509 . S
C122 C123 1.391 . S
C122 C127 1.386 . S
C123 H84 0.930 . S
C123 C122 1.391 . S
C123 C124 1.375 . S
C124 H85 0.931 . S
C124 C123 1.375 . S
C124 C125 1.375 . S
C125 C124 1.375 . S
C125 C126 1.361 . S
C126 H86 0.930 . S
C126 C125 1.361 . S
C126 C127 1.399 . S
C127 H87 0.929 . S
C127 C122 1.386 . S
C127 C126 1.399 . S
C128 C107 1.485 . S
C128 C129 1.394 . S
C128 C133 1.360 . S
C129 H88 0.931 . S
C129 C128 1.394 . S
C129 C130 1.372 . S
C130 H89 0.930 . S
C130 C129 1.372 . S
C130 C131 1.397 . S
C131 C130 1.397 . S
C131 C132 1.390 . S
C131 C147 1.476 . S
C132 H90 0.930 . S
C132 C131 1.390 . S
C132 C133 1.366 . S
C133 H91 0.932 . S
C133 C128 1.360 . S
C133 C132 1.366 . S
C134 C108 1.490 . S
C134 C135 1.380 . S
C134 C139 1.386 . S
C135 H92 0.930 . S
C135 C134 1.380 . S
C135 C136 1.381 . S
C136 H93 0.929 . S
C136 C135 1.381 . S
C136 C137 1.371 . S
C137 C136 1.371 . S
C137 C138 1.380 . S
C138 H94 0.931 . S
C138 C137 1.380 . S
C138 C139 1.387 . S
C139 H95 0.930 . S
C139 C134 1.386 . S
C139 C138 1.387 . S
C140 C109 1.519 1_565 S
C140 C141 1.377 . S
C140 C145 1.361 . S
C141 H96 0.929 . S
C141 C140 1.377 . S
C141 C142 1.386 . S
C142 H97 0.931 . S
C142 C141 1.386 . S
C142 C143 1.363 . S
C143 C142 1.363 . S
C143 C144 1.385 . S
C144 H98 0.930 . S
C144 C143 1.385 . S
C144 C145 1.396 . S
C145 H99 0.929 . S
C145 C140 1.361 . S
C145 C144 1.396 . S
C146 O100 1.300 . S
C146 O101 1.209 . S
C146 C119 1.486 . S
C147 O102 1.199 . S
C147 O103 1.297 . S
C147 C131 1.476 . S
H148 O174 0.856 . S
H149 O177 0.854 . S
H150 C185 0.930 . S
H151 C186 0.930 . S
H152 C188 0.930 . S
H153 C189 0.930 . S
H154 C191 0.931 . S
H155 C192 0.930 . S
H156 C194 0.930 . S
H157 C195 0.929 . S
H158 C197 0.930 . S
H159 C198 0.931 . S
H160 C200 0.930 . S
H161 C201 0.929 . S
H162 C203 0.931 . S
H163 C204 0.930 . S
H164 C206 0.930 . S
H165 C207 0.932 . S
H166 C209 0.930 . S
H167 C210 0.929 . S
H168 C212 0.931 . S
H169 C213 0.930 . S
H170 C215 0.929 . S
H171 C216 0.931 . S
H172 C218 0.930 . S
H173 C219 0.929 . S
O174 H148 0.856 . S
O174 C220 1.300 . S
O175 C220 1.209 . S
O176 C221 1.199 . S
O177 H149 0.854 . S
O177 C221 1.297 . S
C178 C179 1.404 . S
C178 C183 1.397 . S
C178 C184 1.492 . S
C179 C178 1.404 . S
C179 C180 1.396 . S
C179 C190 1.492 . S
C180 C179 1.396 . S
C180 C181 1.397 . S
C180 C196 1.509 . S
C181 C180 1.397 . S
C181 C182 1.412 . S
C181 C202 1.485 . S
C182 C181 1.412 . S
C182 C183 1.388 . S
C182 C208 1.490 . S
C183 C178 1.397 . S
C183 C182 1.388 . S
C183 C214 1.519 . S
C184 C178 1.492 . S
C184 C185 1.363 . S
C184 C189 1.390 . S
C185 H150 0.930 . S
C185 C184 1.363 . S
C185 C186 1.372 . S
C186 H151 0.930 . S
C186 C185 1.372 . S
C186 C187 1.383 . S
C187 C186 1.383 . S
C187 C188 1.395 . S
C188 H152 0.930 . S
C188 C187 1.395 . S
C188 C189 1.362 . S
C189 H153 0.930 . S
C189 C184 1.390 . S
C189 C188 1.362 . S
C190 C179 1.492 . S
C190 C191 1.377 . S
C190 C195 1.397 . S
C191 H154 0.931 . S
C191 C190 1.377 . S
C191 C192 1.376 . S
C192 H155 0.930 . S
C192 C191 1.376 . S
C192 C193 1.376 . S
C193 C192 1.376 . S
C193 C194 1.378 . S
C193 C220 1.486 . S
C194 H156 0.930 . S
C194 C193 1.378 . S
C194 C195 1.376 . S
C195 H157 0.929 . S
C195 C190 1.397 . S
C195 C194 1.376 . S
C196 C180 1.509 . S
C196 C197 1.391 . S
C196 C201 1.386 . S
C197 H158 0.930 . S
C197 C196 1.391 . S
C197 C198 1.375 . S
C198 H159 0.931 . S
C198 C197 1.375 . S
C198 C199 1.375 . S
C199 C198 1.375 . S
C199 C200 1.361 . S
C200 H160 0.930 . S
C200 C199 1.361 . S
C200 C201 1.399 . S
C201 H161 0.929 . S
C201 C196 1.386 . S
C201 C200 1.399 . S
C202 C181 1.485 . S
C202 C203 1.394 . S
C202 C207 1.360 . S
C203 H162 0.931 . S
C203 C202 1.394 . S
C203 C204 1.372 . S
C204 H163 0.930 . S
C204 C203 1.372 . S
C204 C205 1.397 . S
C205 C204 1.397 . S
C205 C206 1.390 . S
C205 C221 1.476 . S
C206 H164 0.930 . S
C206 C205 1.390 . S
C206 C207 1.366 . S
C207 H165 0.932 . S
C207 C202 1.360 . S
C207 C206 1.366 . S
C208 C182 1.490 . S
C208 C209 1.380 . S
C208 C213 1.386 . S
C209 H166 0.930 . S
C209 C208 1.380 . S
C209 C210 1.381 . S
C210 H167 0.929 . S
C210 C209 1.381 . S
C210 C211 1.371 . S
C211 C210 1.371 . S
C211 C212 1.380 . S
C212 H168 0.931 . S
C212 C211 1.380 . S
C212 C213 1.387 . S
C213 H169 0.930 . S
C213 C208 1.386 . S
C213 C212 1.387 . S
C214 C183 1.519 . S
C214 C215 1.377 . S
C214 C219 1.361 . S
C215 H170 0.929 . S
C215 C214 1.377 . S
C215 C216 1.386 . S
C216 H171 0.931 . S
C216 C215 1.386 . S
C216 C217 1.363 . S
C217 C216 1.363 . S
C217 C218 1.385 . S
C218 H172 0.930 . S
C218 C217 1.385 . S
C218 C219 1.396 . S
C219 H173 0.929 . S
C219 C214 1.361 . S
C219 C218 1.396 . S
C220 O174 1.300 . S
C220 O175 1.209 . S
C220 C193 1.486 . S
C221 O176 1.199 . S
C221 O177 1.297 . S
C221 C205 1.476 . S
H222 O248 0.856 . S
H223 O251 0.854 . S
H224 C259 0.930 1_455 S
H225 C260 0.930 . S
H226 C262 0.930 . S
H227 C263 0.930 . S
H228 C265 0.931 . S
H229 C266 0.930 . S
H230 C268 0.930 . S
H231 C269 0.929 . S
H232 C271 0.930 . S
H233 C272 0.931 . S
H234 C274 0.930 . S
H235 C275 0.929 . S
H236 C277 0.931 . S
H237 C278 0.930 . S
H238 C280 0.930 . S
H239 C281 0.932 . S
H240 C283 0.930 . S
H241 C284 0.929 . S
H242 C286 0.931 . S
H243 C287 0.930 . S
H244 C289 0.929 . S
H245 C290 0.931 . S
H246 C292 0.930 . S
H247 C293 0.929 . S
O248 H222 0.856 . S
O248 C294 1.300 . S
O249 C294 1.209 . S
O250 C295 1.199 . S
O251 H223 0.854 . S
O251 C295 1.297 . S
C252 C253 1.404 . S
C252 C257 1.397 . S
C252 C258 1.492 1_455 S
C253 C252 1.404 . S
C253 C254 1.396 . S
C253 C264 1.492 . S
C254 C253 1.396 . S
C254 C255 1.397 . S
C254 C270 1.509 . S
C255 C254 1.397 . S
C255 C256 1.412 . S
C255 C276 1.485 . S
C256 C255 1.412 . S
C256 C257 1.388 . S
C256 C282 1.490 . S
C257 C252 1.397 . S
C257 C256 1.388 . S
C257 C288 1.519 1_455 S
C258 C252 1.492 1_655 S
C258 C259 1.363 . S
C258 C263 1.390 . S
C259 H224 0.930 1_655 S
C259 C258 1.363 . S
C259 C260 1.372 . S
C260 H225 0.930 . S
C260 C259 1.372 . S
C260 C261 1.383 . S
C261 C260 1.383 . S
C261 C262 1.395 . S
C262 H226 0.930 . S
C262 C261 1.395 . S
C262 C263 1.362 . S
C263 H227 0.930 . S
C263 C258 1.390 . S
C263 C262 1.362 . S
C264 C253 1.492 . S
C264 C265 1.377 . S
C264 C269 1.397 . S
C265 H228 0.931 . S
C265 C264 1.377 . S
C265 C266 1.376 . S
C266 H229 0.930 . S
C266 C265 1.376 . S
C266 C267 1.376 . S
C267 C266 1.376 . S
C267 C268 1.378 . S
C267 C294 1.486 . S
C268 H230 0.930 . S
C268 C267 1.378 . S
C268 C269 1.376 . S
C269 H231 0.929 . S
C269 C264 1.397 . S
C269 C268 1.376 . S
C270 C254 1.509 . S
C270 C271 1.391 . S
C270 C275 1.386 . S
C271 H232 0.930 . S
C271 C270 1.391 . S
C271 C272 1.375 . S
C272 H233 0.931 . S
C272 C271 1.375 . S
C272 C273 1.375 . S
C273 C272 1.375 . S
C273 C274 1.361 . S
C274 H234 0.930 . S
C274 C273 1.361 . S
C274 C275 1.399 . S
C275 H235 0.929 . S
C275 C270 1.386 . S
C275 C274 1.399 . S
C276 C255 1.485 . S
C276 C277 1.394 . S
C276 C281 1.360 . S
C277 H236 0.931 . S
C277 C276 1.394 . S
C277 C278 1.372 . S
C278 H237 0.930 . S
C278 C277 1.372 . S
C278 C279 1.397 . S
C279 C278 1.397 . S
C279 C280 1.390 . S
C279 C295 1.476 . S
C280 H238 0.930 . S
C280 C279 1.390 . S
C280 C281 1.366 . S
C281 H239 0.932 . S
C281 C276 1.360 . S
C281 C280 1.366 . S
C282 C256 1.490 . S
C282 C283 1.380 . S
C282 C287 1.386 . S
C283 H240 0.930 . S
C283 C282 1.380 . S
C283 C284 1.381 . S
C284 H241 0.929 . S
C284 C283 1.381 . S
C284 C285 1.371 . S
C285 C284 1.371 . S
C285 C286 1.380 . S
C286 H242 0.931 . S
C286 C285 1.380 . S
C286 C287 1.387 . S
C287 H243 0.930 . S
C287 C282 1.386 . S
C287 C286 1.387 . S
C288 C257 1.519 1_655 S
C288 C289 1.377 . S
C288 C293 1.361 . S
C289 H244 0.929 . S
C289 C288 1.377 . S
C289 C290 1.386 . S
C290 H245 0.931 . S
C290 C289 1.386 . S
C290 C291 1.363 . S
C291 C290 1.363 . S
C291 C292 1.385 . S
C292 H246 0.930 . S
C292 C291 1.385 . S
C292 C293 1.396 . S
C293 H247 0.929 . S
C293 C288 1.361 . S
C293 C292 1.396 . S
C294 O248 1.300 . S
C294 O249 1.209 . S
C294 C267 1.486 . S
C295 O250 1.199 . S
C295 O251 1.297 . S
C295 C279 1.476 . S
H296 O322 0.856 . S
H297 O325 0.854 . S
H298 C333 0.930 . S
H299 C334 0.930 . S
H300 C336 0.930 . S
H301 C337 0.930 . S
H302 C339 0.931 . S
H303 C340 0.930 . S
H304 C342 0.930 . S
H305 C343 0.929 . S
H306 C345 0.930 . S
H307 C346 0.931 . S
H308 C348 0.930 . S
H309 C349 0.929 . S
H310 C351 0.931 . S
H311 C352 0.930 . S
H312 C354 0.930 . S
H313 C355 0.962 . S
H314 C357 0.930 . S
H315 C358 0.929 . S
H316 C360 0.931 . S
H317 C361 0.930 . S
H318 C363 0.951 . S
H319 C364 0.931 . S
H320 C366 0.930 . S
H321 C367 0.929 . S
O322 H296 0.856 . S
O322 C368 1.300 . S
O323 C368 1.209 . S
O324 C369 1.199 . S
O325 H297 0.854 . S
O325 C369 1.297 . S
C326 C327 1.404 . S
C326 C331 1.397 . S
C326 C332 1.492 1_565 S
C327 C326 1.404 . S
C327 C328 1.396 . S
C327 C338 1.492 . S
C328 C327 1.396 . S
C328 C329 1.397 . S
C328 C344 1.509 . S
C329 C328 1.397 . S
C329 C330 1.412 1_556 S
C329 C350 1.485 1_556 S
C330 C329 1.412 1_554 S
C330 C331 1.388 1_554 S
C330 C356 1.490 . S
C331 C326 1.397 . S
C331 C330 1.388 1_556 S
C331 C362 1.521 1_565 S
C332 C326 1.492 1_545 S
C332 C333 1.363 . S
C332 C337 1.390 . S
C333 H298 0.930 . S
C333 C332 1.363 . S
C333 C334 1.372 . S
C334 H299 0.930 . S
C334 C333 1.372 . S
C334 C335 1.383 . S
C335 C334 1.383 . S
C335 C336 1.395 . S
C336 H300 0.930 . S
C336 C335 1.395 . S
C336 C337 1.362 . S
C337 H301 0.930 . S
C337 C332 1.390 . S
C337 C336 1.362 . S
C338 C327 1.492 . S
C338 C339 1.377 . S
C338 C343 1.397 . S
C339 H302 0.931 . S
C339 C338 1.377 . S
C339 C340 1.376 . S
C340 H303 0.930 . S
C340 C339 1.376 . S
C340 C341 1.376 . S
C341 C340 1.376 . S
C341 C342 1.378 . S
C341 C368 1.486 . S
C342 H304 0.930 . S
C342 C341 1.378 . S
C342 C343 1.376 . S
C343 H305 0.929 . S
C343 C338 1.397 . S
C343 C342 1.376 . S
C344 C328 1.509 . S
C344 C345 1.391 . S
C344 C349 1.386 . S
C345 H306 0.930 . S
C345 C344 1.391 . S
C345 C346 1.375 . S
C346 H307 0.931 . S
C346 C345 1.375 . S
C346 C347 1.375 . S
C347 C346 1.375 . S
C347 C348 1.361 . S
C348 H308 0.930 . S
C348 C347 1.361 . S
C348 C349 1.399 . S
C349 H309 0.929 . S
C349 C344 1.386 . S
C349 C348 1.399 . S
C350 C329 1.485 1_554 S
C350 C351 1.394 . S
C350 C355 1.360 . S
C351 H310 0.931 . S
C351 C350 1.394 . S
C351 C352 1.372 . S
C352 H311 0.930 . S
C352 C351 1.372 . S
C352 C353 1.397 . S
C353 C352 1.397 . S
C353 C354 1.390 . S
C353 C369 1.476 . S
C354 H312 0.930 . S
C354 C353 1.390 . S
C354 C355 1.366 . S
C355 H313 0.962 . S
C355 C350 1.360 . S
C355 C354 1.366 . S
C356 C330 1.490 . S
C356 C357 1.380 . S
C356 C361 1.386 . S
C357 H314 0.930 . S
C357 C356 1.380 . S
C357 C358 1.381 . S
C358 H315 0.929 . S
C358 C357 1.381 . S
C358 C359 1.371 . S
C359 C358 1.371 . S
C359 C360 1.380 . S
C360 H316 0.931 . S
C360 C359 1.380 . S
C360 C361 1.387 . S
C361 H317 0.930 . S
C361 C356 1.386 . S
C361 C360 1.387 . S
C362 C331 1.521 1_545 S
C362 C363 1.376 . S
C362 C367 1.359 1_556 S
C363 H318 0.951 . S
C363 C362 1.376 . S
C363 C364 1.367 1_556 S
C364 H319 0.931 . S
C364 C363 1.367 1_554 S
C364 C365 1.363 . S
C365 C364 1.363 . S
C365 C366 1.385 . S
C366 H320 0.930 . S
C366 C365 1.385 . S
C366 C367 1.396 . S
C367 H321 0.929 . S
C367 C362 1.359 1_554 S
C367 C366 1.396 . S
C368 O322 1.300 . S
C368 O323 1.209 . S
C368 C341 1.486 . S
C369 O324 1.199 . S
C369 O325 1.297 . S
C369 C353 1.476 . S
H370 O396 0.856 1_556 S
H371 O399 0.854 . S
H372 C407 0.930 . S
H373 C408 0.930 . S
H374 C410 0.930 . S
H375 C411 0.930 . S
H376 C413 0.931 . S
H377 C414 0.930 . S
H378 C416 0.930 . S
H379 C417 0.929 . S
H380 C419 0.930 . S
H381 C420 0.931 . S
H382 C422 0.930 . S
H383 C423 0.929 . S
H384 C425 0.931 . S
H385 C426 0.930 . S
H386 C428 0.930 . S
H387 C429 0.932 . S
H388 C431 0.930 . S
H389 C432 0.929 . S
H390 C434 0.931 . S
H391 C435 0.930 . S
H392 C437 0.929 . S
H393 C438 0.931 . S
H394 C440 0.930 . S
H395 C441 0.929 . S
O396 H370 0.856 1_554 S
O396 C442 1.300 . S
O397 C442 1.209 1_556 S
O398 C443 1.199 . S
O399 H371 0.854 . S
O399 C443 1.297 . S
C400 C401 1.404 . S
C400 C405 1.397 . S
C400 C406 1.492 . S
C401 C400 1.404 . S
C401 C402 1.396 . S
C401 C412 1.492 . S
C402 C401 1.396 . S
C402 C403 1.397 . S
C402 C418 1.509 . S
C403 C402 1.397 . S
C403 C404 1.412 . S
C403 C424 1.485 . S
C404 C403 1.412 . S
C404 C405 1.388 . S
C404 C430 1.490 . S
C405 C400 1.397 . S
C405 C404 1.388 . S
C405 C436 1.519 . S
C406 C400 1.492 . S
C406 C407 1.363 . S
C406 C411 1.390 . S
C407 H372 0.930 . S
C407 C406 1.363 . S
C407 C408 1.372 . S
C408 H373 0.930 . S
C408 C407 1.372 . S
C408 C409 1.383 . S
C409 C408 1.383 . S
C409 C410 1.395 . S
C410 H374 0.930 . S
C410 C409 1.395 . S
C410 C411 1.362 . S
C411 H375 0.930 . S
C411 C406 1.390 . S
C411 C410 1.362 . S
C412 C401 1.492 . S
C412 C413 1.377 . S
C412 C417 1.397 . S
C413 H376 0.931 . S
C413 C412 1.377 . S
C413 C414 1.376 . S
C414 H377 0.930 . S
C414 C413 1.376 . S
C414 C415 1.376 . S
C415 C414 1.376 . S
C415 C416 1.378 . S
C415 C442 1.486 . S
C416 H378 0.930 . S
C416 C415 1.378 . S
C416 C417 1.376 . S
C417 H379 0.929 . S
C417 C412 1.397 . S
C417 C416 1.376 . S
C418 C402 1.509 . S
C418 C419 1.391 . S
C418 C423 1.386 . S
C419 H380 0.930 . S
C419 C418 1.391 . S
C419 C420 1.375 . S
C420 H381 0.931 . S
C420 C419 1.375 . S
C420 C421 1.375 . S
C421 C420 1.375 . S
C421 C422 1.361 . S
C422 H382 0.930 . S
C422 C421 1.361 . S
C422 C423 1.399 . S
C423 H383 0.929 . S
C423 C418 1.386 . S
C423 C422 1.399 . S
C424 C403 1.485 . S
C424 C425 1.394 . S
C424 C429 1.360 . S
C425 H384 0.931 . S
C425 C424 1.394 . S
C425 C426 1.372 . S
C426 H385 0.930 . S
C426 C425 1.372 . S
C426 C427 1.397 . S
C427 C426 1.397 . S
C427 C428 1.390 . S
C427 C443 1.476 . S
C428 H386 0.930 . S
C428 C427 1.390 . S
C428 C429 1.366 . S
C429 H387 0.932 . S
C429 C424 1.360 . S
C429 C428 1.366 . S
C430 C404 1.490 . S
C430 C431 1.380 . S
C430 C435 1.386 . S
C431 H388 0.930 . S
C431 C430 1.380 . S
C431 C432 1.381 . S
C432 H389 0.929 . S
C432 C431 1.381 . S
C432 C433 1.371 . S
C433 C432 1.371 . S
C433 C434 1.380 . S
C434 H390 0.931 . S
C434 C433 1.380 . S
C434 C435 1.387 . S
C435 H391 0.930 . S
C435 C430 1.386 . S
C435 C434 1.387 . S
C436 C405 1.519 . S
C436 C437 1.377 . S
C436 C441 1.361 . S
C437 H392 0.929 . S
C437 C436 1.377 . S
C437 C438 1.386 . S
C438 H393 0.931 . S
C438 C437 1.386 . S
C438 C439 1.363 . S
C439 C438 1.363 . S
C439 C440 1.385 . S
C440 H394 0.930 . S
C440 C439 1.385 . S
C440 C441 1.396 . S
C441 H395 0.929 . S
C441 C436 1.361 . S
C441 C440 1.396 . S
C442 O396 1.300 . S
C442 O397 1.209 1_554 S
C442 C415 1.486 . S
C443 O398 1.199 . S
C443 O399 1.297 . S
C443 C427 1.476 . S
C444 O445 1.160 . S
C444 O451 1.185 . S
O445 C444 1.160 . S
O446 Zn447 1.899 . S
O446 C454 1.284 . S
Zn447 O446 1.899 . S
Zn447 O448 2.032 . S
Zn447 O451 2.086 . S
Zn447 O456 1.977 . S
O448 Zn447 2.032 . S
O448 C452 1.278 . S
C449 O450 1.203 . S
C449 O456 1.267 . S
O450 C449 1.203 . S
O451 C444 1.185 . S
O451 Zn447 2.086 . S
C452 O448 1.278 . S
C452 O453 1.211 . S
O453 C452 1.211 . S
C454 O446 1.284 . S
C454 O455 1.273 . S
O455 C454 1.273 . S
O456 Zn447 1.977 . S
O456 C449 1.267 . S
C457 O458 1.160 . S
C457 O464 1.185 . S
O458 C457 1.160 . S
O459 Zn460 1.899 . S
O459 C467 1.284 . S
Zn460 O459 1.899 . S
Zn460 O461 2.032 . S
Zn460 O464 2.086 . S
Zn460 O469 1.977 . S
O461 Zn460 2.032 . S
O461 C465 1.278 . S
C462 O463 1.203 . S
C462 O469 1.267 . S
O463 C462 1.203 . S
O464 C457 1.185 . S
O464 Zn460 2.086 . S
C465 O461 1.278 . S
C465 O466 1.211 . S
O466 C465 1.211 . S
C467 O459 1.284 . S
C467 O468 1.273 . S
O468 C467 1.273 . S
O469 Zn460 1.977 . S
O469 C462 1.267 . S
C470 O471 1.160 . S
C470 O477 1.185 . S
O471 C470 1.160 . S
O472 Zn473 1.899 . S
O472 C480 1.284 . S
Zn473 O472 1.899 . S
Zn473 O474 2.032 . S
Zn473 O477 2.086 . S
Zn473 O482 1.977 . S
O474 Zn473 2.032 . S
O474 C478 1.278 . S
C475 O476 1.203 . S
C475 O482 1.267 . S
O476 C475 1.203 . S
O477 C470 1.185 . S
O477 Zn473 2.086 . S
C478 O474 1.278 . S
C478 O479 1.211 . S
O479 C478 1.211 . S
C480 O472 1.284 . S
C480 O481 1.273 . S
O481 C480 1.273 . S
O482 Zn473 1.977 . S
O482 C475 1.267 . S
C483 O484 1.160 . S
C483 O490 1.185 . S
O484 C483 1.160 . S
O485 Zn486 1.899 . S
O485 C493 1.284 . S
Zn486 O485 1.899 . S
Zn486 O487 2.032 . S
Zn486 O490 2.086 . S
Zn486 O495 1.977 . S
O487 Zn486 2.032 . S
O487 C491 1.278 . S
C488 O489 1.203 . S
C488 O495 1.267 . S
O489 C488 1.203 . S
O490 C483 1.185 . S
O490 Zn486 2.086 . S
C491 O487 1.278 . S
C491 O492 1.211 . S
O492 C491 1.211 . S
C493 O485 1.284 . S
C493 O494 1.273 . S
O494 C493 1.273 . S
O495 Zn486 1.977 . S
O495 C488 1.267 . S
C496 O497 1.160 . S
C496 O503 1.185 . S
O497 C496 1.160 . S
O498 Zn499 1.899 . S
O498 C506 1.284 . S
Zn499 O498 1.899 . S
Zn499 O500 2.032 . S
Zn499 O503 2.086 . S
Zn499 O508 1.977 . S
O500 Zn499 2.032 . S
O500 C504 1.278 . S
C501 O502 1.203 . S
C501 O508 1.267 . S
O502 C501 1.203 . S
O503 C496 1.185 . S
O503 Zn499 2.086 . S
C504 O500 1.278 . S
C504 O505 1.211 . S
O505 C504 1.211 . S
C506 O498 1.284 . S
C506 O507 1.273 . S
O507 C506 1.273 . S
O508 Zn499 1.977 . S
O508 C501 1.267 . S
C509 O510 1.160 . S
C509 O516 1.185 . S
O510 C509 1.160 . S
O511 Zn512 1.899 . S
O511 C519 1.284 . S
Zn512 O511 1.899 . S
Zn512 O513 2.032 . S
Zn512 O516 2.086 . S
Zn512 O521 1.977 . S
O513 Zn512 2.032 . S
O513 C517 1.278 . S
C514 O515 1.203 . S
C514 O521 1.267 . S
O515 C514 1.203 . S
O516 C509 1.185 . S
O516 Zn512 2.086 . S
C517 O513 1.278 . S
C517 O518 1.211 . S
O518 C517 1.211 . S
C519 O511 1.284 . S
C519 O520 1.273 . S
O520 C519 1.273 . S
O521 Zn512 1.977 . S
O521 C514 1.267 . S
H522 C528 0.930 . S
H523 C532 0.930 . S
H524 C537 0.929 . S
H525 C535 0.929 . S
H526 C530 0.929 . S
H527 C536 0.929 . S
C528 H522 0.930 . S
C528 C529 1.367 . S
C528 C536 1.378 . S
C529 C528 1.367 . S
C529 C537 1.433 . S
C530 H526 0.929 . S
C530 C532 1.378 . S
C530 C534 1.350 . S
C531 C534 1.463 . S
C531 C536 1.350 . S
C531 N539 1.427 . S
C532 H523 0.930 . S
C532 C530 1.378 . S
C532 C533 1.367 . S
C533 C532 1.367 . S
C533 C535 1.433 . S
C534 C530 1.350 . S
C534 C531 1.463 . S
C534 N538 1.427 . S
C535 H525 0.929 . S
C535 C533 1.433 . S
C535 N538 1.384 . S
C536 H527 0.929 . S
C536 C528 1.378 . S
C536 C531 1.350 . S
C537 H524 0.929 . S
C537 C529 1.433 . S
C537 N539 1.384 . S
N538 C534 1.427 . S
N538 C535 1.384 . S
N539 C531 1.427 . S
N539 C537 1.384 . S
H540 C546 0.930 . S
H541 C550 0.930 . S
H542 C555 0.929 . S
H543 C553 0.929 . S
H544 C548 0.929 . S
H545 C554 0.929 . S
C546 H540 0.930 . S
C546 C547 1.367 . S
C546 C554 1.378 . S
C547 C546 1.367 . S
C547 C555 1.433 . S
C548 H544 0.929 . S
C548 C550 1.378 . S
C548 C552 1.350 . S
C549 C552 1.463 . S
C549 C554 1.350 . S
C549 N557 1.427 . S
C550 H541 0.930 . S
C550 C548 1.378 . S
C550 C551 1.367 . S
C551 C550 1.367 . S
C551 C553 1.433 . S
C552 C548 1.350 . S
C552 C549 1.463 . S
C552 N556 1.427 . S
C553 H543 0.929 . S
C553 C551 1.433 . S
C553 N556 1.384 . S
C554 H545 0.929 . S
C554 C546 1.378 . S
C554 C549 1.350 . S
C555 H542 0.929 . S
C555 C547 1.433 . S
C555 N557 1.384 . S
N556 C552 1.427 . S
N556 C553 1.384 . S
N557 C549 1.427 . S
N557 C555 1.384 . S
H558 C564 0.930 . S
H559 C568 0.930 . S
H560 C573 0.929 . S
H561 C571 0.929 . S
H562 C566 0.929 . S
H563 C572 0.929 . S
C564 H558 0.930 . S
C564 C565 1.367 . S
C564 C572 1.378 . S
C565 C564 1.367 . S
C565 C573 1.433 . S
C566 H562 0.929 . S
C566 C568 1.378 . S
C566 C570 1.350 . S
C567 C570 1.463 . S
C567 C572 1.350 . S
C567 N575 1.427 . S
C568 H559 0.930 . S
C568 C566 1.378 . S
C568 C569 1.367 . S
C569 C568 1.367 . S
C569 C571 1.433 . S
C570 C566 1.350 . S
C570 C567 1.463 . S
C570 N574 1.427 . S
C571 H561 0.929 . S
C571 C569 1.433 . S
C571 N574 1.384 . S
C572 H563 0.929 . S
C572 C564 1.378 . S
C572 C567 1.350 . S
C573 H560 0.929 . S
C573 C565 1.433 . S
C573 N575 1.384 . S
N574 C570 1.427 . S
N574 C571 1.384 . S
N575 C567 1.427 . S
N575 C573 1.384 . S
H576 C582 0.930 . S
H577 C586 0.930 . S
H578 C591 0.929 . S
H579 C589 0.929 . S
H580 C584 0.929 . S
H581 C590 0.929 . S
C582 H576 0.930 . S
C582 C583 1.367 . S
C582 C590 1.378 . S
C583 C582 1.367 . S
C583 C591 1.433 . S
C584 H580 0.929 . S
C584 C586 1.378 . S
C584 C588 1.350 . S
C585 C588 1.463 . S
C585 C590 1.350 . S
C585 N593 1.427 . S
C586 H577 0.930 . S
C586 C584 1.378 . S
C586 C587 1.367 . S
C587 C586 1.367 . S
C587 C589 1.433 . S
C588 C584 1.350 . S
C588 C585 1.463 . S
C588 N592 1.427 . S
C589 H579 0.929 . S
C589 C587 1.433 . S
C589 N592 1.384 . S
C590 H581 0.929 . S
C590 C582 1.378 . S
C590 C585 1.350 . S
C591 H578 0.929 . S
C591 C583 1.433 . S
C591 N593 1.384 . S
N592 C588 1.427 . S
N592 C589 1.384 . S
N593 C585 1.427 . S
N593 C591 1.384 . S
H594 C600 0.930 . S
H595 C604 0.930 . S
H596 C609 0.929 . S
H597 C607 0.929 . S
H598 C602 0.929 . S
H599 C608 0.929 . S
C600 H594 0.930 . S
C600 C601 1.367 . S
C600 C608 1.378 . S
C601 C600 1.367 . S
C601 C609 1.433 . S
C602 H598 0.929 . S
C602 C604 1.378 . S
C602 C606 1.350 . S
C603 C606 1.463 . S
C603 C608 1.350 . S
C603 N611 1.427 . S
C604 H595 0.930 . S
C604 C602 1.378 . S
C604 C605 1.367 . S
C605 C604 1.367 . S
C605 C607 1.433 . S
C606 C602 1.350 . S
C606 C603 1.463 . S
C606 N610 1.427 . S
C607 H597 0.929 . S
C607 C605 1.433 . S
C607 N610 1.384 . S
C608 H599 0.929 . S
C608 C600 1.378 . S
C608 C603 1.350 . S
C609 H596 0.929 . S
C609 C601 1.433 . S
C609 N611 1.384 . S
N610 C606 1.427 . S
N610 C607 1.384 . S
N611 C603 1.427 . S
N611 C609 1.384 . S
H612 C618 0.930 . S
H613 C622 0.930 . S
H614 C627 0.929 . S
H615 C625 0.929 . S
H616 C620 0.929 . S
H617 C626 0.929 . S
C618 H612 0.930 . S
C618 C619 1.367 . S
C618 C626 1.378 . S
C619 C618 1.367 . S
C619 C627 1.433 . S
C620 H616 0.929 . S
C620 C622 1.378 . S
C620 C624 1.350 . S
C621 C624 1.463 . S
C621 C626 1.350 . S
C621 N629 1.427 . S
C622 H613 0.930 . S
C622 C620 1.378 . S
C622 C623 1.367 . S
C623 C622 1.367 . S
C623 C625 1.433 . S
C624 C620 1.350 . S
C624 C621 1.463 . S
C624 N628 1.427 . S
C625 H615 0.929 . S
C625 C623 1.433 . S
C625 N628 1.384 . S
C626 H617 0.929 . S
C626 C618 1.378 . S
C626 C621 1.350 . S
C627 H614 0.929 . S
C627 C619 1.433 . S
C627 N629 1.384 . S
N628 C624 1.427 . S
N628 C625 1.384 . S
N629 C621 1.427 . S
N629 C627 1.384 . S
H630 C636 0.930 . S
H631 C640 0.930 . S
H632 C645 0.929 . S
H633 C643 0.929 . S
H634 C638 0.929 . S
H635 C644 0.929 . S
C636 H630 0.930 . S
C636 C637 1.367 . S
C636 C644 1.378 . S
C637 C636 1.367 . S
C637 C645 1.433 . S
C638 H634 0.929 . S
C638 C640 1.378 . S
C638 C642 1.350 . S
C639 C642 1.463 . S
C639 C644 1.350 . S
C639 N647 1.427 . S
C640 H631 0.930 . S
C640 C638 1.378 . S
C640 C641 1.367 . S
C641 C640 1.367 . S
C641 C643 1.433 . S
C642 C638 1.350 . S
C642 C639 1.463 . S
C642 N646 1.427 . S
C643 H633 0.929 . S
C643 C641 1.433 . S
C643 N646 1.384 . S
C644 H635 0.929 . S
C644 C636 1.378 . S
C644 C639 1.350 . S
C645 H632 0.929 . S
C645 C637 1.433 . S
C645 N647 1.384 . S
N646 C642 1.427 . S
N646 C643 1.384 . S
N647 C639 1.427 . S
N647 C645 1.384 . S
H648 C654 0.930 . S
H649 C658 0.930 . S
H650 C663 0.929 . S
H651 C661 0.929 . S
H652 C656 0.929 . S
H653 C662 0.929 . S
C654 H648 0.930 . S
C654 C655 1.367 . S
C654 C662 1.378 . S
C655 C654 1.367 . S
C655 C663 1.433 . S
C656 H652 0.929 . S
C656 C658 1.378 . S
C656 C660 1.350 . S
C657 C660 1.463 . S
C657 C662 1.350 . S
C657 N665 1.427 . S
C658 H649 0.930 . S
C658 C656 1.378 . S
C658 C659 1.367 . S
C659 C658 1.367 . S
C659 C661 1.433 . S
C660 C656 1.350 . S
C660 C657 1.463 . S
C660 N664 1.427 . S
C661 H651 0.929 . S
C661 C659 1.433 . S
C661 N664 1.384 . S
C662 H653 0.929 . S
C662 C654 1.378 . S
C662 C657 1.350 . S
C663 H650 0.929 . S
C663 C655 1.433 . S
C663 N665 1.384 . S
N664 C660 1.427 . S
N664 C661 1.384 . S
N665 C657 1.427 . S
N665 C663 1.384 . S
H666 C672 0.930 . S
H667 C676 0.930 . S
H668 C681 0.929 . S
H669 C679 0.929 . S
H670 C674 0.929 . S
H671 C680 0.929 . S
C672 H666 0.930 . S
C672 C673 1.367 . S
C672 C680 1.378 . S
C673 C672 1.367 . S
C673 C681 1.433 . S
C674 H670 0.929 . S
C674 C676 1.378 . S
C674 C678 1.350 . S
C675 C678 1.463 . S
C675 C680 1.350 . S
C675 N683 1.427 . S
C676 H667 0.930 . S
C676 C674 1.378 . S
C676 C677 1.367 . S
C677 C676 1.367 . S
C677 C679 1.433 . S
C678 C674 1.350 . S
C678 C675 1.463 . S
C678 N682 1.427 . S
C679 H669 0.929 . S
C679 C677 1.433 . S
C679 N682 1.384 . S
C680 H671 0.929 . S
C680 C672 1.378 . S
C680 C675 1.350 . S
C681 H668 0.929 . S
C681 C673 1.433 . S
C681 N683 1.384 . S
N682 C678 1.427 . S
N682 C679 1.384 . S
N683 C675 1.427 . S
N683 C681 1.384 . S
H684 C690 0.930 . S
H685 C694 0.930 . S
H686 C699 0.940 . S
H687 C697 0.929 . S
H688 C692 0.929 . S
H689 C698 0.929 . S
C690 H684 0.930 . S
C690 C691 1.367 . S
C690 C698 1.378 . S
C691 C690 1.367 . S
C691 C699 1.433 . S
C692 H688 0.929 . S
C692 C694 1.378 . S
C692 C696 1.350 . S
C693 C696 1.463 . S
C693 C698 1.350 . S
C693 N701 1.427 . S
C694 H685 0.930 . S
C694 C692 1.378 . S
C694 C695 1.367 . S
C695 C694 1.367 . S
C695 C697 1.433 . S
C696 C692 1.350 . S
C696 C693 1.463 . S
C696 N700 1.427 . S
C697 H687 0.929 . S
C697 C695 1.433 . S
C697 N700 1.384 . S
C698 H689 0.929 . S
C698 C690 1.378 . S
C698 C693 1.350 . S
C699 H686 0.940 . S
C699 C691 1.433 . S
C699 N701 1.384 . S
N700 C696 1.427 . S
N700 C697 1.384 . S
N701 C693 1.427 . S
N701 C699 1.384 . S
H702 C708 0.930 . S
H703 C712 0.930 . S
H704 C717 0.929 . S
H705 C715 0.929 . S
H706 C710 0.929 . S
H707 C716 0.929 . S
C708 H702 0.930 . S
C708 C709 1.367 . S
C708 C716 1.378 . S
C709 C708 1.367 . S
C709 C717 1.433 . S
C710 H706 0.929 . S
C710 C712 1.378 . S
C710 C714 1.350 . S
C711 C714 1.463 . S
C711 C716 1.350 . S
C711 N719 1.427 . S
C712 H703 0.930 . S
C712 C710 1.378 . S
C712 C713 1.367 . S
C713 C712 1.367 . S
C713 C715 1.433 . S
C714 C710 1.350 . S
C714 C711 1.463 . S
C714 N718 1.427 . S
C715 H705 0.929 . S
C715 C713 1.433 . S
C715 N718 1.384 . S
C716 H707 0.929 . S
C716 C708 1.378 . S
C716 C711 1.350 . S
C717 H704 0.929 . S
C717 C709 1.433 . S
C717 N719 1.384 . S
N718 C714 1.427 . S
N718 C715 1.384 . S
N719 C711 1.427 . S
N719 C717 1.384 . S
H720 C726 0.930 . S
H721 C730 0.930 . S
H722 C735 0.929 . S
H723 C733 0.929 . S
H724 C728 0.929 . S
H725 C734 0.929 . S
C726 H720 0.930 . S
C726 C727 1.367 . S
C726 C734 1.378 . S
C727 C726 1.367 . S
C727 C735 1.433 . S
C728 H724 0.929 . S
C728 C730 1.378 . S
C728 C732 1.350 . S
C729 C732 1.463 . S
C729 C734 1.350 . S
C729 N737 1.427 . S
C730 H721 0.930 . S
C730 C728 1.378 . S
C730 C731 1.367 . S
C731 C730 1.367 . S
C731 C733 1.433 . S
C732 C728 1.350 . S
C732 C729 1.463 . S
C732 N736 1.427 . S
C733 H723 0.929 . S
C733 C731 1.433 . S
C733 N736 1.384 . S
C734 H725 0.929 . S
C734 C726 1.378 . S
C734 C729 1.350 . S
C735 H722 0.929 . S
C735 C727 1.433 . S
C735 N737 1.384 . S
N736 C732 1.427 . S
N736 C733 1.384 . S
N737 C729 1.427 . S
N737 C735 1.384 . S
H738 C744 0.930 . S
H739 C748 0.930 . S
H740 C753 0.929 . S
H741 C751 0.929 . S
H742 C746 0.929 . S
H743 C752 0.929 . S
C744 H738 0.930 . S
C744 C745 1.367 . S
C744 C752 1.378 . S
C745 C744 1.367 . S
C745 C753 1.433 . S
C746 H742 0.929 . S
C746 C748 1.378 . S
C746 C750 1.350 . S
C747 C750 1.463 . S
C747 C752 1.350 . S
C747 N755 1.427 . S
C748 H739 0.930 . S
C748 C746 1.378 . S
C748 C749 1.367 . S
C749 C748 1.367 . S
C749 C751 1.433 . S
C750 C746 1.350 . S
C750 C747 1.463 . S
C750 N754 1.427 . S
C751 H741 0.929 . S
C751 C749 1.433 . S
C751 N754 1.384 . S
C752 H743 0.929 . S
C752 C744 1.378 . S
C752 C747 1.350 . S
C753 H740 0.929 . S
C753 C745 1.433 . S
C753 N755 1.384 . S
N754 C750 1.427 . S
N754 C751 1.384 . S
N755 C747 1.427 . S
N755 C753 1.384 . S
H756 C762 0.930 . S
H757 C766 0.930 . S
H758 C771 0.929 . S
H759 C769 0.929 . S
H760 C764 0.929 . S
H761 C770 0.929 . S
C762 H756 0.930 . S
C762 C763 1.367 . S
C762 C770 1.378 . S
C763 C762 1.367 . S
C763 C771 1.433 . S
C764 H760 0.929 . S
C764 C766 1.378 . S
C764 C768 1.350 . S
C765 C768 1.463 . S
C765 C770 1.350 . S
C765 N773 1.427 . S
C766 H757 0.930 . S
C766 C764 1.378 . S
C766 C767 1.367 . S
C767 C766 1.367 . S
C767 C769 1.433 . S
C768 C764 1.350 . S
C768 C765 1.463 . S
C768 N772 1.427 . S
C769 H759 0.929 . S
C769 C767 1.433 . S
C769 N772 1.384 . S
C770 H761 0.929 . S
C770 C762 1.378 . S
C770 C765 1.350 . S
C771 H758 0.929 . S
C771 C763 1.433 . S
C771 N773 1.384 . S
N772 C768 1.427 . S
N772 C769 1.384 . S
N773 C765 1.427 . S
N773 C771 1.384 . S
H774 C780 0.930 . S
H775 C784 0.930 . S
H776 C789 0.929 . S
H777 C787 0.929 . S
H778 C782 0.929 . S
H779 C788 0.929 . S
C780 H774 0.930 . S
C780 C781 1.367 . S
C780 C788 1.378 . S
C781 C780 1.367 . S
C781 C789 1.433 . S
C782 H778 0.929 . S
C782 C784 1.378 . S
C782 C786 1.350 . S
C783 C786 1.463 . S
C783 C788 1.350 . S
C783 N791 1.427 . S
C784 H775 0.930 . S
C784 C782 1.378 . S
C784 C785 1.367 . S
C785 C784 1.367 . S
C785 C787 1.433 . S
C786 C782 1.350 . S
C786 C783 1.463 . S
C786 N790 1.427 . S
C787 H777 0.929 . S
C787 C785 1.433 . S
C787 N790 1.384 . S
C788 H779 0.929 . S
C788 C780 1.378 . S
C788 C783 1.350 . S
C789 H776 0.929 . S
C789 C781 1.433 . S
C789 N791 1.384 . S
N790 C786 1.427 . S
N790 C787 1.384 . S
N791 C783 1.427 . S
N791 C789 1.384 . S
H792 C798 0.930 . S
H793 C802 0.930 . S
H794 C807 0.929 . S
H795 C805 0.929 1_554 S
H796 C800 0.929 . S
H797 C806 0.929 . S
C798 H792 0.930 . S
C798 C799 1.367 . S
C798 C806 1.378 . S
C799 C798 1.367 . S
C799 C807 1.433 . S
C800 H796 0.929 . S
C800 C802 1.378 . S
C800 C804 1.350 . S
C801 C804 1.463 . S
C801 C806 1.350 . S
C801 N809 1.427 . S
C802 H793 0.930 . S
C802 C800 1.378 . S
C802 C803 1.367 1_556 S
C803 C802 1.367 1_554 S
C803 C805 1.433 1_554 S
C804 C800 1.350 . S
C804 C801 1.463 . S
C804 N808 1.427 . S
C805 H795 0.929 1_556 S
C805 C803 1.433 1_556 S
C805 N808 1.384 . S
C806 H797 0.929 . S
C806 C798 1.378 . S
C806 C801 1.350 . S
C807 H794 0.929 . S
C807 C799 1.433 . S
C807 N809 1.384 . S
N808 C804 1.427 . S
N808 C805 1.384 . S
N809 C801 1.427 . S
N809 C807 1.384 . S
H810 C816 0.930 . S
H811 C820 0.930 . S
H812 C825 0.929 . S
H813 C823 0.929 . S
H814 C818 0.929 . S
H815 C824 0.929 . S
C816 H810 0.930 . S
C816 C817 1.367 . S
C816 C824 1.378 . S
C817 C816 1.367 . S
C817 C825 1.433 . S
C818 H814 0.929 . S
C818 C820 1.378 . S
C818 C822 1.350 . S
C819 C822 1.463 . S
C819 C824 1.350 . S
C819 N827 1.427 . S
C820 H811 0.930 . S
C820 C818 1.378 . S
C820 C821 1.367 . S
C821 C820 1.367 . S
C821 C823 1.433 . S
C822 C818 1.350 . S
C822 C819 1.463 . S
C822 N826 1.427 . S
C823 H813 0.929 . S
C823 C821 1.433 . S
C823 N826 1.384 . S
C824 H815 0.929 . S
C824 C816 1.378 . S
C824 C819 1.350 . S
C825 H812 0.929 . S
C825 C817 1.433 . S
C825 N827 1.384 . S
N826 C822 1.427 . S
N826 C823 1.384 . S
N827 C819 1.427 . S
N827 C825 1.384 . S
H828 C834 0.930 . S
H829 C838 0.930 . S
H830 C843 0.929 . S
H831 C841 0.929 . S
H832 C836 0.929 . S
H833 C842 0.929 . S
C834 H828 0.930 . S
C834 C835 1.367 . S
C834 C842 1.378 . S
C835 C834 1.367 . S
C835 C843 1.433 . S
C836 H832 0.929 . S
C836 C838 1.378 . S
C836 C840 1.350 . S
C837 C840 1.463 . S
C837 C842 1.350 . S
C837 N845 1.427 . S
C838 H829 0.930 . S
C838 C836 1.378 . S
C838 C839 1.367 . S
C839 C838 1.367 . S
C839 C841 1.433 . S
C840 C836 1.350 . S
C840 C837 1.463 . S
C840 N844 1.427 . S
C841 H831 0.929 . S
C841 C839 1.433 . S
C841 N844 1.384 . S
C842 H833 0.929 . S
C842 C834 1.378 . S
C842 C837 1.350 . S
C843 H830 0.929 . S
C843 C835 1.433 . S
C843 N845 1.384 . S
N844 C840 1.427 . S
N844 C841 1.384 . S
N845 C837 1.427 . S
N845 C843 1.384 . S
H846 C852 0.930 . S
H847 C856 0.930 . S
H848 C861 0.929 . S
H849 C859 0.929 . S
H850 C854 0.929 . S
H851 C860 0.929 . S
C852 H846 0.930 . S
C852 C853 1.367 . S
C852 C860 1.378 . S
C853 C852 1.367 . S
C853 C861 1.433 . S
C854 H850 0.929 . S
C854 C856 1.378 . S
C854 C858 1.350 . S
C855 C858 1.463 . S
C855 C860 1.350 . S
C855 N863 1.427 . S
C856 H847 0.930 . S
C856 C854 1.378 . S
C856 C857 1.367 . S
C857 C856 1.367 . S
C857 C859 1.433 . S
C858 C854 1.350 . S
C858 C855 1.463 . S
C858 N862 1.427 . S
C859 H849 0.929 . S
C859 C857 1.433 . S
C859 N862 1.384 . S
C860 H851 0.929 . S
C860 C852 1.378 . S
C860 C855 1.350 . S
C861 H848 0.929 . S
C861 C853 1.433 . S
C861 N863 1.384 . S
N862 C858 1.427 . S
N862 C859 1.384 . S
N863 C855 1.427 . S
N863 C861 1.384 . S
H864 C870 0.930 . S
H865 C874 0.930 . S
H866 C879 0.929 . S
H867 C877 0.929 . S
H868 C872 0.929 . S
H869 C878 0.929 . S
C870 H864 0.930 . S
C870 C871 1.367 . S
C870 C878 1.378 . S
C871 C870 1.367 . S
C871 C879 1.433 . S
C872 H868 0.929 . S
C872 C874 1.378 . S
C872 C876 1.350 . S
C873 C876 1.463 . S
C873 C878 1.350 . S
C873 N881 1.427 . S
C874 H865 0.930 . S
C874 C872 1.378 . S
C874 C875 1.367 . S
C875 C874 1.367 . S
C875 C877 1.433 . S
C876 C872 1.350 . S
C876 C873 1.463 . S
C876 N880 1.427 . S
C877 H867 0.929 . S
C877 C875 1.433 . S
C877 N880 1.384 . S
C878 H869 0.929 . S
C878 C870 1.378 . S
C878 C873 1.350 . S
C879 H866 0.929 . S
C879 C871 1.433 . S
C879 N881 1.384 . S
N880 C876 1.427 . S
N880 C877 1.384 . S
N881 C873 1.427 . S
N881 C879 1.384 . S
H882 C888 0.930 . S
H883 C892 0.930 . S
H884 C897 0.929 . S
H885 C895 0.929 . S
H886 C890 0.929 . S
H887 C896 0.929 . S
C888 H882 0.930 . S
C888 C889 1.367 . S
C888 C896 1.378 . S
C889 C888 1.367 . S
C889 C897 1.433 . S
C890 H886 0.929 . S
C890 C892 1.378 . S
C890 C894 1.350 . S
C891 C894 1.463 . S
C891 C896 1.350 . S
C891 N899 1.427 . S
C892 H883 0.930 . S
C892 C890 1.378 . S
C892 C893 1.367 . S
C893 C892 1.367 . S
C893 C895 1.433 . S
C894 C890 1.350 . S
C894 C891 1.463 . S
C894 N898 1.427 . S
C895 H885 0.929 . S
C895 C893 1.433 . S
C895 N898 1.384 . S
C896 H887 0.929 . S
C896 C888 1.378 . S
C896 C891 1.350 . S
C897 H884 0.929 . S
C897 C889 1.433 . S
C897 N899 1.384 . S
N898 C894 1.427 . S
N898 C895 1.384 . S
N899 C891 1.427 . S
N899 C897 1.384 . S
H900 C906 0.930 . S
H901 C910 0.930 . S
H902 C915 0.929 . S
H903 C913 0.929 . S
H904 C908 0.929 . S
H905 C914 0.929 . S
C906 H900 0.930 . S
C906 C907 1.367 . S
C906 C914 1.378 . S
C907 C906 1.367 . S
C907 C915 1.433 . S
C908 H904 0.929 . S
C908 C910 1.378 . S
C908 C912 1.350 . S
C909 C912 1.463 . S
C909 C914 1.350 . S
C909 N917 1.427 . S
C910 H901 0.930 . S
C910 C908 1.378 . S
C910 C911 1.367 . S
C911 C910 1.367 . S
C911 C913 1.433 . S
C912 C908 1.350 . S
C912 C909 1.463 . S
C912 N916 1.427 . S
C913 H903 0.929 . S
C913 C911 1.433 . S
C913 N916 1.384 . S
C914 H905 0.929 . S
C914 C906 1.378 . S
C914 C909 1.350 . S
C915 H902 0.929 . S
C915 C907 1.433 . S
C915 N917 1.384 . S
N916 C912 1.427 . S
N916 C913 1.384 . S
N917 C909 1.427 . S
N917 C915 1.384 . S
H918 C924 0.930 . S
H919 C928 0.930 . S
H920 C933 0.929 . S
H921 C931 0.929 . S
H922 C926 0.929 . S
H923 C932 0.929 . S
C924 H918 0.930 . S
C924 C925 1.367 . S
C924 C932 1.378 . S
C925 C924 1.367 . S
C925 C933 1.433 . S
C926 H922 0.929 . S
C926 C928 1.378 . S
C926 C930 1.350 . S
C927 C930 1.463 1_554 S
C927 C932 1.350 . S
C927 N935 1.427 . S
C928 H919 0.930 . S
C928 C926 1.378 . S
C928 C929 1.367 . S
C929 C928 1.367 . S
C929 C931 1.433 . S
C930 C926 1.350 . S
C930 C927 1.463 1_556 S
C930 N934 1.427 . S
C931 H921 0.929 . S
C931 C929 1.433 . S
C931 N934 1.384 . S
C932 H923 0.929 . S
C932 C924 1.378 . S
C932 C927 1.350 . S
C933 H920 0.929 . S
C933 C925 1.433 . S
C933 N935 1.384 . S
N934 C930 1.427 . S
N934 C931 1.384 . S
N935 C927 1.427 . S
N935 C933 1.384 . S
H936 C942 0.930 . S
H937 C946 0.930 . S
H938 C951 0.929 . S
H939 C949 0.929 . S
H940 C944 0.929 . S
H941 C950 0.929 . S
C942 H936 0.930 . S
C942 C943 1.367 . S
C942 C950 1.378 . S
C943 C942 1.367 . S
C943 C951 1.433 . S
C944 H940 0.929 . S
C944 C946 1.378 . S
C944 C948 1.350 . S
C945 C948 1.463 . S
C945 C950 1.350 . S
C945 N953 1.427 . S
C946 H937 0.930 . S
C946 C944 1.378 . S
C946 C947 1.367 . S
C947 C946 1.367 . S
C947 C949 1.433 . S
C948 C944 1.350 . S
C948 C945 1.463 . S
C948 N952 1.427 . S
C949 H939 0.929 . S
C949 C947 1.433 . S
C949 N952 1.384 . S
C950 H941 0.929 . S
C950 C942 1.378 . S
C950 C945 1.350 . S
C951 H938 0.929 . S
C951 C943 1.433 . S
C951 N953 1.384 . S
N952 C948 1.427 . S
N952 C949 1.384 . S
N953 C945 1.427 . S
N953 C951 1.384 . S
C533 C519 1.325 . S
C529 C51 1.298 . S
C547 C125 1.454 . S
C551 C444 1.381 . S
C565 C217 2.593 . S
C569 C467 2.635 . S
C583 C291 1.455 . S
C587 C480 1.452 . S
C605 C483 0.882 . S
C601 C347 0.897 . S
C619 C421 0.792 . S
C623 C496 0.787 . S
C637 C143 2.225 . S
C641 C457 2.125 . S
C655 C199 1.516 . S
C659 C470 1.459 . S
C673 C273 0.469 . S
C677 C493 0.461 . S
C695 C506 1.671 . S
C691 C365 1.637 . S
C713 C509 1.734 . S
C709 C439 1.865 . S
C731 C454 2.441 . S
C727 C69 2.412 . S
C745 C63 1.385 . S
C749 C465 1.456 . S
C763 C137 1.466 . S
C767 C478 1.527 . S
C785 C488 1.283 . S
C781 C187 1.281 . S
C799 C261 1.430 . S
C803 C501 1.424 . S
C821 C517 1.519 . S
C817 C359 1.426 . S
C839 C449 1.091 . S
C835 C433 1.045 . S
C857 C514 1.523 . S
C853 C113 1.596 . S
C871 C211 1.325 . S
C875 C452 1.401 . S
C893 C462 1.508 . S
C889 C285 1.488 . S
C907 C335 1.332 . S
C911 C475 1.390 . S
C925 C409 1.228 . S
C929 C491 1.284 . S
C943 C39 1.616 . S
C947 C504 1.640 . S
