# Generated by pormake.
# Topology zzz, (3,6)-cn, num edge types: 1
# Building blocks:
#     Node 0, Type 0, BuildingBlock: MIDCAF_clean_linker_0, # of connection points: 3
#     Node 1, Type 0, BuildingBlock: MIDCAF_clean_linker_0, # of connection points: 3
#     Node 2, Type 0, BuildingBlock: MIDCAF_clean_linker_0, # of connection points: 3
#     Node 3, Type 0, BuildingBlock: MIDCAF_clean_linker_0, # of connection points: 3
#     Node 4, Type 0, BuildingBlock: MIDCAF_clean_linker_0, # of connection points: 3
#     Node 5, Type 0, BuildingBlock: MIDCAF_clean_linker_0, # of connection points: 3
#     Node 6, Type 0, BuildingBlock: MIDCAF_clean_linker_0, # of connection points: 3
#     Node 7, Type 0, BuildingBlock: MIDCAF_clean_linker_0, # of connection points: 3
#     Node 8, Type 1, BuildingBlock: FUNLAD_clean_sbu_0, # of connection points: 6
#     Node 9, Type 1, BuildingBlock: FUNLAD_clean_sbu_0, # of connection points: 6
#     Node 10, Type 1, BuildingBlock: FUNLAD_clean_sbu_0, # of connection points: 6
#     Node 11, Type 1, BuildingBlock: FUNLAD_clean_sbu_0, # of connection points: 6
#     Edge 12, Type (0, 1), BuildingBlock: UVAHIK_clean_linker_0, # of connection points: 2
#     Edge 13, Type (0, 1), BuildingBlock: UVAHIK_clean_linker_0, # of connection points: 2
#     Edge 14, Type (0, 1), BuildingBlock: UVAHIK_clean_linker_0, # of connection points: 2
#     Edge 15, Type (0, 1), BuildingBlock: UVAHIK_clean_linker_0, # of connection points: 2
#     Edge 16, Type (0, 1), BuildingBlock: UVAHIK_clean_linker_0, # of connection points: 2
#     Edge 17, Type (0, 1), BuildingBlock: UVAHIK_clean_linker_0, # of connection points: 2
#     Edge 18, Type (0, 1), BuildingBlock: UVAHIK_clean_linker_0, # of connection points: 2
#     Edge 19, Type (0, 1), BuildingBlock: UVAHIK_clean_linker_0, # of connection points: 2
#     Edge 20, Type (0, 1), BuildingBlock: UVAHIK_clean_linker_0, # of connection points: 2
#     Edge 21, Type (0, 1), BuildingBlock: UVAHIK_clean_linker_0, # of connection points: 2
#     Edge 22, Type (0, 1), BuildingBlock: UVAHIK_clean_linker_0, # of connection points: 2
#     Edge 23, Type (0, 1), BuildingBlock: UVAHIK_clean_linker_0, # of connection points: 2
#     Edge 24, Type (0, 1), BuildingBlock: UVAHIK_clean_linker_0, # of connection points: 2
#     Edge 25, Type (0, 1), BuildingBlock: UVAHIK_clean_linker_0, # of connection points: 2
#     Edge 26, Type (0, 1), BuildingBlock: UVAHIK_clean_linker_0, # of connection points: 2
#     Edge 27, Type (0, 1), BuildingBlock: UVAHIK_clean_linker_0, # of connection points: 2
#     Edge 28, Type (0, 1), BuildingBlock: UVAHIK_clean_linker_0, # of connection points: 2
#     Edge 29, Type (0, 1), BuildingBlock: UVAHIK_clean_linker_0, # of connection points: 2
#     Edge 30, Type (0, 1), BuildingBlock: UVAHIK_clean_linker_0, # of connection points: 2
#     Edge 31, Type (0, 1), BuildingBlock: UVAHIK_clean_linker_0, # of connection points: 2
#     Edge 32, Type (0, 1), BuildingBlock: UVAHIK_clean_linker_0, # of connection points: 2
#     Edge 33, Type (0, 1), BuildingBlock: UVAHIK_clean_linker_0, # of connection points: 2
#     Edge 34, Type (0, 1), BuildingBlock: UVAHIK_clean_linker_0, # of connection points: 2
#     Edge 35, Type (0, 1), BuildingBlock: UVAHIK_clean_linker_0, # of connection points: 2
# Relax obj value: 0.290
# Max RMSD: 0.220
# Mean RMSD: 0.192
data_MOF--net-zzz--node1-FUNLAD_clean_sbu_0--node2-MIDCAF_clean_linker_0--edge1-UVAHIK_clean_linker_0
_symmetry_space_group_name_H-M    P1
_symmetry_Int_Tables_number       1
_symmetry_cell_setting            triclinic
loop_
_symmetry_equiv_pos_as_xyz
'x, y, z'
_cell_length_a     71.097025
_cell_length_b     75.448407
_cell_length_c     27.823407
_cell_angle_alpha  87.319936
_cell_angle_beta   88.109226
_cell_angle_gamma 92.231823
loop_
_atom_site_label
_atom_site_type_symbol
_atom_site_fract_x
_atom_site_fract_y
_atom_site_fract_z
_atom_type_partial_charge
C0 C 0.84229 0.43004 0.33697 0.0
C1 C 0.83654 0.44684 0.34978 0.0
C2 C 0.82202 0.45479 0.32445 0.0
C3 C 0.81389 0.44634 0.28595 0.0
H4 H 0.77027 0.44755 0.1832 0.0
H5 H 0.74221 0.45632 0.14074 0.0
H6 H 0.74555 0.41006 0.05572 0.0
H7 H 0.7735 0.40131 0.0977 0.0
H8 H 0.81656 0.38829 0.07556 0.0
H9 H 0.84094 0.38101 0.01699 0.0
H10 H 0.88364 0.39881 0.11296 0.0
H11 H 0.85947 0.40522 0.17193 0.0
H12 H 0.83965 0.40911 0.28824 0.0
H13 H 0.85357 0.42366 0.35542 0.0
H14 H 0.81728 0.4677 0.33373 0.0
H15 H 0.80317 0.45301 0.26602 0.0
N16 N 0.79719 0.42589 0.20821 0.0
N17 N 0.80446 0.40934 0.14106 0.0
N18 N 0.82626 0.41233 0.20153 0.0
C19 C 0.79216 0.41923 0.16561 0.0
C20 C 0.82158 0.40588 0.15865 0.0
C21 C 0.81416 0.42219 0.22671 0.0
C22 C 0.77416 0.42377 0.14369 0.0
C23 C 0.76487 0.43914 0.15589 0.0
C24 C 0.7489 0.44423 0.13139 0.0
C25 C 0.74176 0.43389 0.09488 0.0
C26 C 0.75066 0.41822 0.08393 0.0
C27 C 0.76673 0.41327 0.10784 0.0
C28 C 0.83602 0.39775 0.128 0.0
C29 C 0.83117 0.39021 0.08462 0.0
C30 C 0.84518 0.38611 0.0509 0.0
C31 C 0.86431 0.38971 0.05954 0.0
C32 C 0.86913 0.39572 0.10484 0.0
C33 C 0.85516 0.39957 0.13875 0.0
C34 C 0.82041 0.42997 0.27162 0.0
C35 C 0.83439 0.42176 0.29821 0.0
C36 C 0.90507 0.80075 0.29822 0.0
C37 C 0.91627 0.79321 0.33384 0.0
C38 C 0.92533 0.77739 0.32468 0.0
C39 C 0.92458 0.77019 0.27922 0.0
H40 H 0.92513 0.724 0.17937 0.0
H41 H 0.9276 0.69457 0.1465 0.0
H42 H 0.92505 0.71807 0.00248 0.0
H43 H 0.92258 0.74728 0.03491 0.0
H44 H 0.93875 0.78848 0.01805 0.0
H45 H 0.95491 0.8128 0.97042 0.0
H46 H 0.9587 0.84321 0.09793 0.0
H47 H 0.94194 0.81942 0.1447 0.0
H48 H 0.89716 0.8007 0.22473 0.0
H49 H 0.89806 0.81301 0.30391 0.0
H50 H 0.93397 0.77125 0.35162 0.0
H51 H 0.93286 0.75882 0.27176 0.0
N52 N 0.91896 0.75863 0.17544 0.0
N53 N 0.92976 0.7702 0.09898 0.0
N54 N 0.9251 0.78927 0.1616 0.0
C55 C 0.92388 0.75604 0.12856 0.0
C56 C 0.93055 0.78684 0.11541 0.0
C57 C 0.91921 0.77537 0.19165 0.0
C58 C 0.92379 0.73799 0.10976 0.0
C59 C 0.92487 0.72283 0.14075 0.0
C60 C 0.92638 0.70601 0.12197 0.0
C61 C 0.92651 0.70404 0.07195 0.0
C62 C 0.92478 0.71913 0.04119 0.0
C63 C 0.92353 0.7359 0.05983 0.0
C64 C 0.93903 0.80196 0.08521 0.0
C65 C 0.94286 0.80045 0.03572 0.0
C66 C 0.95227 0.81435 0.00851 0.0
C67 C 0.95824 0.82997 0.03031 0.0
C68 C 0.95407 0.83155 0.07961 0.0
C69 C 0.94449 0.81779 0.1066 0.0
C70 C 0.915 0.7789 0.24232 0.0
C71 C 0.90459 0.79374 0.25279 0.0
C72 C 0.71867 0.98237 0.29379 0.0
C73 C 0.72005 0.99346 0.33287 0.0
C74 C 0.73424 0.00707 0.3309 0.0
C75 C 0.74556 0.01053 0.28907 0.0
H76 H 0.79626 0.98763 0.14989 0.0
H77 H 0.82629 0.9845 0.10532 0.0
H78 H 0.81842 0.03422 0.02687 0.0
H79 H 0.78858 0.03725 0.07053 0.0
H80 H 0.73891 0.02961 0.0325 0.0
H81 H 0.71178 0.03815 0.98646 0.0
H82 H 0.6802 0.0454 0.11894 0.0
H83 H 0.70705 0.03647 0.16486 0.0
H84 H 0.72729 0.97824 0.22071 0.0
H85 H 0.7078 0.9719 0.29381 0.0
H86 H 0.73578 0.01575 0.36058 0.0
H87 H 0.7552 0.02204 0.28689 0.0
N88 N 0.76655 0.00665 0.18141 0.0
N89 N 0.75763 0.0225 0.1113 0.0
N90 N 0.73575 0.01657 0.17503 0.0
C91 C 0.77101 0.01402 0.13645 0.0
C92 C 0.73999 0.02386 0.13046 0.0
C93 C 0.74881 0.00804 0.20065 0.0
C94 C 0.79003 0.01266 0.11364 0.0
C95 C 0.8011 0.99797 0.12354 0.0
C96 C 0.81819 0.99612 0.09784 0.0
C97 C 0.82468 0.00912 0.06262 0.0
C98 C 0.81388 0.02406 0.05402 0.0
C99 C 0.79672 0.02573 0.07891 0.0
C100 C 0.72499 0.032 0.10232 0.0
C101 C 0.7263 0.03336 0.05175 0.0
C102 C 0.71077 0.03834 0.02536 0.0
C103 C 0.69374 0.04216 0.0491 0.0
C104 C 0.69299 0.04213 0.09962 0.0
C105 C 0.7084 0.03703 0.12592 0.0
C106 C 0.74291 0.00042 0.24864 0.0
C107 C 0.72989 0.98592 0.25194 0.0
C108 C 0.56771 0.65622 0.10073 0.0
C109 C 0.56068 0.66045 0.05518 0.0
C110 C 0.56086 0.67836 0.03869 0.0
C111 C 0.56737 0.69177 0.0678 0.0
H112 H 0.59331 0.74794 0.08277 0.0
H113 H 0.58722 0.77785 0.05102 0.0
H114 H 0.55506 0.78747 0.18074 0.0
H115 H 0.56174 0.75757 0.21351 0.0
H116 H 0.57109 0.72198 0.31021 0.0
H117 H 0.5718 0.70693 0.39034 0.0
H118 H 0.60883 0.66843 0.33297 0.0
H119 H 0.60805 0.68333 0.25383 0.0
H120 H 0.57911 0.66572 0.165 0.0
H121 H 0.56757 0.6426 0.1149 0.0
H122 H 0.55582 0.68205 0.00345 0.0
H123 H 0.56691 0.70546 0.05445 0.0
N124 N 0.57734 0.71903 0.13407 0.0
N125 N 0.58363 0.72707 0.21294 0.0
N126 N 0.58302 0.69713 0.19329 0.0
C127 C 0.57989 0.73179 0.16643 0.0
C128 C 0.58559 0.70965 0.2261 0.0
C129 C 0.5787 0.70162 0.14741 0.0
C130 C 0.57798 0.75052 0.15052 0.0
C131 C 0.58525 0.75657 0.10488 0.0
C132 C 0.58184 0.77366 0.08682 0.0
C133 C 0.5707 0.78486 0.11354 0.0
C134 C 0.56374 0.77901 0.15966 0.0
C135 C 0.56761 0.76202 0.17838 0.0
C136 C 0.58939 0.70369 0.27595 0.0
C137 C 0.57984 0.71065 0.31534 0.0
C138 C 0.58015 0.70197 0.36099 0.0
C139 C 0.59026 0.68642 0.3679 0.0
C140 C 0.60104 0.68045 0.32912 0.0
C141 C 0.60051 0.68892 0.28364 0.0
C142 C 0.57382 0.68753 0.11403 0.0
C143 C 0.57425 0.66956 0.12968 0.0
C144 C 0.1959 0.56888 0.04516 0.0
C145 C 0.20324 0.55356 0.02617 0.0
C146 C 0.21875 0.54594 0.0482 0.0
C147 C 0.22636 0.55325 0.08917 0.0
H148 H 0.26383 0.59354 0.28908 0.0
H149 H 0.2911 0.58427 0.33238 0.0
H150 H 0.2955 0.53909 0.24333 0.0
H151 H 0.26834 0.54875 0.19872 0.0
H152 H 0.22082 0.60482 0.31304 0.0
H153 H 0.19574 0.61321 0.36824 0.0
H154 H 0.15479 0.60224 0.26094 0.0
H155 H 0.17973 0.59462 0.20547 0.0
H156 H 0.19698 0.58766 0.09988 0.0
H157 H 0.18378 0.57497 0.02979 0.0
H158 H 0.22481 0.5342 0.03423 0.0
H159 H 0.23794 0.54683 0.10621 0.0
N160 N 0.24125 0.57069 0.17451 0.0
N161 N 0.23361 0.58635 0.24317 0.0
N162 N 0.21236 0.58455 0.18128 0.0
C163 C 0.24598 0.57666 0.21821 0.0
C164 C 0.21674 0.59032 0.22504 0.0
C165 C 0.22446 0.57487 0.15559 0.0
C166 C 0.26378 0.57179 0.24072 0.0
C167 C 0.27066 0.58168 0.27841 0.0
C168 C 0.28625 0.57629 0.30352 0.0
C169 C 0.29531 0.56073 0.29203 0.0
C170 C 0.28891 0.55118 0.25304 0.0
C171 C 0.27333 0.55669 0.2275 0.0
C172 C 0.20228 0.59866 0.25514 0.0
C173 C 0.2065 0.60459 0.30087 0.0
C174 C 0.1921 0.60934 0.33263 0.0
C175 C 0.17316 0.60809 0.31951 0.0
C176 C 0.16916 0.60352 0.27238 0.0
C177 C 0.18354 0.59897 0.24053 0.0
C178 C 0.21843 0.56817 0.10904 0.0
C179 C 0.20339 0.57608 0.08587 0.0
C180 C 0.13283 0.20619 0.05877 0.0
C181 C 0.12005 0.21307 0.02596 0.0
C182 C 0.11076 0.22861 0.03695 0.0
C183 C 0.11262 0.23589 0.08206 0.0
H184 H 0.11384 0.28116 0.18684 0.0
H185 H 0.11091 0.30992 0.2231 0.0
H186 H 0.1132 0.28425 0.36466 0.0
H187 H 0.11619 0.25569 0.32886 0.0
H188 H 0.10398 0.21306 0.34183 0.0
H189 H 0.08892 0.18751 0.38703 0.0
H190 H 0.08096 0.16126 0.25386 0.0
H191 H 0.09671 0.18612 0.20955 0.0
H192 H 0.14302 0.20667 0.13016 0.0
H193 H 0.14012 0.19418 0.05176 0.0
H194 H 0.10097 0.23432 0.01215 0.0
H195 H 0.10398 0.24682 0.09144 0.0
N196 N 0.12 0.2467 0.18641 0.0
N197 N 0.11012 0.2337 0.26214 0.0
N198 N 0.11473 0.21585 0.19682 0.0
C199 C 0.11541 0.24841 0.23395 0.0
C200 C 0.1096 0.21738 0.24363 0.0
C201 C 0.12004 0.23029 0.16816 0.0
C202 C 0.11513 0.2661 0.25494 0.0
C203 C 0.11394 0.2817 0.22566 0.0
C204 C 0.11215 0.29815 0.24639 0.0
C205 C 0.11181 0.29933 0.29671 0.0
C206 C 0.11362 0.28381 0.32578 0.0
C207 C 0.11518 0.26741 0.30519 0.0
C208 C 0.10162 0.20164 0.27212 0.0
C209 C 0.09919 0.20172 0.32243 0.0
C210 C 0.09042 0.18712 0.34825 0.0
C211 C 0.08365 0.17226 0.3242 0.0
C212 C 0.08631 0.17221 0.27393 0.0
C213 C 0.0953 0.18661 0.24834 0.0
C214 C 0.12364 0.2276 0.11672 0.0
C215 C 0.1345 0.21332 0.10382 0.0
C216 C 0.31357 0.97468 0.04762 0.0
C217 C 0.31414 0.99209 0.02706 0.0
C218 C 0.30288 0.00472 0.04871 0.0
C219 C 0.29242 0.00031 0.09169 0.0
H220 H 0.2622 0.99009 0.32762 0.0
H221 H 0.23329 0.99704 0.37001 0.0
H222 H 0.20405 0.99747 0.23638 0.0
H223 H 0.23332 0.99027 0.19341 0.0
H224 H 0.29782 0.96709 0.33915 0.0
H225 H 0.32455 0.9582 0.38609 0.0
H226 H 0.35202 0.94 0.25781 0.0
H227 H 0.32552 0.94903 0.21071 0.0
H228 H 0.30409 0.95707 0.10647 0.0
H229 H 0.32214 0.96458 0.03278 0.0
H230 H 0.30274 0.01819 0.03354 0.0
H231 H 0.28492 0.01056 0.10931 0.0
N232 N 0.2713 0.98608 0.18507 0.0
N233 N 0.27967 0.97407 0.26076 0.0
N234 N 0.29901 0.97037 0.19299 0.0
C235 C 0.2674 0.98312 0.23333 0.0
C236 C 0.29546 0.96758 0.24081 0.0
C237 C 0.28721 0.97957 0.16486 0.0
C238 C 0.25007 0.9895 0.25707 0.0
C239 C 0.24969 0.99181 0.30697 0.0
C240 C 0.2331 0.99595 0.33134 0.0
C241 C 0.21632 0.9978 0.30668 0.0
C242 C 0.21673 0.996 0.25647 0.0
C243 C 0.2335 0.99202 0.23181 0.0
C244 C 0.3097 0.95915 0.27098 0.0
C245 C 0.30936 0.96083 0.32111 0.0
C246 C 0.32464 0.95565 0.3481 0.0
C247 C 0.34049 0.94866 0.32543 0.0
C248 C 0.34014 0.94567 0.27605 0.0
C249 C 0.32493 0.95085 0.24911 0.0
C250 C 0.29317 0.98324 0.11379 0.0
C251 C 0.30323 0.97034 0.09024 0.0
C252 C 0.47483 0.3464 0.26529 0.0
C253 C 0.48139 0.3426 0.31157 0.0
C254 C 0.47921 0.32513 0.33142 0.0
C255 C 0.47093 0.31171 0.30519 0.0
H256 H 0.4484 0.25947 0.31137 0.0
H257 H 0.45094 0.22959 0.34591 0.0
H258 H 0.45638 0.20963 0.20337 0.0
H259 H 0.4539 0.23989 0.16827 0.0
H260 H 0.45765 0.27696 0.0712 0.0
H261 H 0.45767 0.29135 0.99021 0.0
H262 H 0.42544 0.33367 0.0463 0.0
H263 H 0.42539 0.31932 0.12613 0.0
H264 H 0.46194 0.33648 0.20331 0.0
H265 H 0.4765 0.35966 0.24865 0.0
H266 H 0.48386 0.32183 0.3673 0.0
H267 H 0.46967 0.29835 0.32134 0.0
N268 N 0.4567 0.28396 0.24563 0.0
N269 N 0.44631 0.27466 0.17103 0.0
N270 N 0.45175 0.30498 0.18368 0.0
C271 C 0.4512 0.27066 0.2172 0.0
C272 C 0.44628 0.29195 0.15459 0.0
C273 C 0.45714 0.30114 0.22903 0.0
C274 C 0.45108 0.25209 0.23702 0.0
C275 C 0.45 0.24874 0.28718 0.0
C276 C 0.45129 0.23156 0.30707 0.0
C277 C 0.45383 0.21725 0.27739 0.0
C278 C 0.45452 0.22045 0.22711 0.0
C279 C 0.45299 0.23772 0.20705 0.0
C280 C 0.44168 0.29716 0.10476 0.0
C281 C 0.44995 0.28895 0.06556 0.0
C282 C 0.45009 0.29728 0.01938 0.0
C283 C 0.44178 0.31379 0.01186 0.0
C284 C 0.43187 0.32093 0.05047 0.0
C285 C 0.43192 0.31276 0.09641 0.0
C286 C 0.46466 0.31548 0.25853 0.0
C287 C 0.46653 0.33304 0.23916 0.0
C288 C 0.02966 0.97677 0.74476 0.0
N289 N 1.00009 0.97194 0.61876 0.0
C290 C 0.01031 0.95722 0.61394 0.0
C291 C 0.0025 0.94222 0.59362 0.0
C292 C 0.98399 0.9423 0.57741 0.0
C293 C 0.97393 0.95789 0.58156 0.0
C294 C 0.98226 0.9726 0.60263 0.0
Zn295 Zn 0.01168 0.99222 0.65584 0.0
C296 C 0.98516 0.00409 0.73264 0.0
N297 N 0.03684 0.03242 0.73886 0.0
C298 C 0.05451 0.03187 0.75611 0.0
C299 C 0.02637 0.047 0.74354 0.0
C300 C 0.03365 0.06186 0.76553 0.0
C301 C 0.05188 0.0618 0.7835 0.0
C302 C 0.06233 0.04648 0.77876 0.0
Zn303 Zn 0.02537 0.0121 0.70167 0.0
O304 O 0.02103 0.97335 0.70688 0.0
C305 C 0.05189 0.00027 0.62482 0.0
O306 O 0.03374 0.9928 0.75379 0.0
H307 H 0.0124 0.04725 0.72937 0.0
H308 H 0.02444 0.95691 0.62714 0.0
H309 H 0.06261 0.02017 0.75187 0.0
O310 O 0.03727 0.99107 0.615 0.0
O311 O 0.0512 0.01019 0.66059 0.0
H312 H 0.97436 0.98443 0.60693 0.0
O313 O 0.01663 0.03094 0.64956 0.0
O314 O 0.00284 0.01151 0.60454 0.0
O315 O 0.9996 0.01371 0.7414 0.0
O316 O 0.98601 0.99367 0.69802 0.0
C317 C 0.00761 0.02751 0.61226 0.0
H318 H 0.01075 0.93048 0.59209 0.0
H319 H 0.95973 0.95872 0.56894 0.0
H320 H 0.02516 0.07343 0.7674 0.0
H321 H 0.07636 0.04574 0.79253 0.0
C322 C 0.49634 0.98129 0.61773 0.0
N323 N 0.51164 0.03521 0.62612 0.0
C324 C 0.51415 0.03493 0.57746 0.0
C325 C 0.51038 0.04977 0.54811 0.0
C326 C 0.50394 0.06513 0.56883 0.0
C327 C 0.50177 0.06517 0.61926 0.0
C328 C 0.50573 0.04999 0.64738 0.0
Zn329 Zn 0.51558 0.01213 0.66564 0.0
C330 C 0.48407 0.00325 0.73713 0.0
N331 N 0.52257 0.96222 0.74122 0.0
C332 C 0.50742 0.95182 0.75783 0.0
C333 C 0.54039 0.95812 0.75292 0.0
C334 C 0.54349 0.94319 0.78274 0.0
C335 C 0.52808 0.93264 0.80158 0.0
C336 C 0.50987 0.937 0.78871 0.0
Zn337 Zn 0.51865 0.98543 0.70199 0.0
O338 O 0.49979 0.99797 0.61537 0.0
C339 C 0.55008 0.99451 0.62986 0.0
O340 O 0.50275 0.97182 0.65189 0.0
H341 H 0.55223 0.96667 0.74008 0.0
H342 H 0.5187 0.02302 0.56117 0.0
H343 H 0.49338 0.9552 0.74798 0.0
O344 O 0.54076 0.00848 0.62525 0.0
O345 O 0.54401 0.98208 0.65952 0.0
H346 H 0.5038 0.04991 0.68611 0.0
O347 O 0.53427 0.99944 0.75236 0.0
O348 O 0.53164 0.02572 0.71614 0.0
O349 O 0.49335 0.98928 0.74251 0.0
O350 O 0.49025 0.01558 0.70731 0.0
C351 C 0.53789 0.0161 0.75031 0.0
H352 H 0.51198 0.04899 0.50943 0.0
H353 H 0.49703 0.07679 0.63682 0.0
H354 H 0.55772 0.94026 0.79231 0.0
H355 H 0.49768 0.92905 0.80251 0.0
C356 C 0.53059 0.48018 0.6104 0.0
N357 N 0.48269 0.50869 0.64 0.0
C358 C 0.48474 0.51439 0.59293 0.0
C359 C 0.46903 0.51771 0.56581 0.0
C360 C 0.45088 0.51499 0.58695 0.0
C361 C 0.44913 0.50938 0.63591 0.0
C362 C 0.46532 0.5063 0.66191 0.0
Zn363 Zn 0.50679 0.50269 0.67469 0.0
C364 C 0.50382 0.46865 0.73072 0.0
N365 N 0.55895 0.4898 0.73685 0.0
C366 C 0.57637 0.49207 0.71508 0.0
C367 C 0.55674 0.4834 0.78332 0.0
C368 C 0.57229 0.47873 0.80955 0.0
C369 C 0.59041 0.48088 0.78815 0.0
C370 C 0.59243 0.48777 0.74039 0.0
Zn371 Zn 0.5349 0.49605 0.70224 0.0
O372 O 0.5151 0.48786 0.61549 0.0
C373 C 0.53789 0.53009 0.64636 0.0
O374 O 0.5428 0.48139 0.64257 0.0
H375 H 0.54284 0.48195 0.80034 0.0
H376 H 0.49864 0.51615 0.576 0.0
H377 H 0.57782 0.49721 0.67815 0.0
O378 O 0.52051 0.52598 0.64272 0.0
O379 O 0.54821 0.51956 0.66965 0.0
H380 H 0.464 0.50169 0.69931 0.0
O381 O 0.52657 0.51077 0.7616 0.0
O382 O 0.49902 0.51757 0.73415 0.0
O383 O 0.52123 0.47272 0.73365 0.0
O384 O 0.49339 0.47922 0.70795 0.0
C385 C 0.51121 0.51869 0.7664 0.0
H386 H 0.47113 0.52235 0.52853 0.0
H387 H 0.43542 0.50699 0.65364 0.0
H388 H 0.57016 0.47373 0.84655 0.0
H389 H 0.60621 0.48958 0.72268 0.0
C390 C 0.03604 0.52671 0.62535 0.0
N391 N 0.037 0.471 0.62735 0.0
C392 C 0.03626 0.47288 0.57858 0.0
C393 C 0.04367 0.46008 0.5495 0.0
C394 C 0.05187 0.44511 0.57071 0.0
C395 C 0.05246 0.44355 0.6212 0.0
C396 C 0.04493 0.45671 0.64893 0.0
Zn397 Zn 0.02586 0.49013 0.66829 0.0
C398 C 0.05205 0.50256 0.74147 0.0
N399 N 0.00253 0.53095 0.7504 0.0
C400 C 0.99396 0.54486 0.72876 0.0
C401 C 0.00377 0.52942 0.7991 0.0
C402 C 0.99619 0.54217 0.82805 0.0
C403 C 0.98728 0.55672 0.80676 0.0
C404 C 0.98624 0.55796 0.75634 0.0
Zn405 Zn 0.01369 0.51183 0.7095 0.0
O406 O 0.03854 0.51028 0.62044 0.0
C407 C 0.98767 0.49957 0.63562 0.0
O408 O 0.02571 0.53145 0.66018 0.0
H409 H 0.01061 0.51824 0.81561 0.0
H410 H 0.02992 0.48435 0.5621 0.0
H411 H 0.99314 0.54583 0.68998 0.0
O412 O 0.00139 0.48975 0.62701 0.0
O413 O 0.98876 0.51034 0.66934 0.0
H414 H 0.04535 0.45547 0.68776 0.0
O415 O 0.00186 0.49195 0.75836 0.0
O416 O 0.01278 0.47037 0.71673 0.0
O417 O 0.03878 0.51307 0.74848 0.0
O418 O 0.05031 0.49087 0.71028 0.0
C419 C 0.00326 0.47543 0.75268 0.0
H420 H 0.04313 0.462 0.51077 0.0
H421 H 0.0584 0.43214 0.63921 0.0
H422 H 0.9971 0.54051 0.86676 0.0
H423 H 0.97976 0.56906 0.73826 0.0
C424 C 0.19819 0.01212 0.37259 0.0
C425 C 0.19843 0.0006 0.33428 0.0
C426 C 0.18208 0.01316 0.40236 0.0
C427 C 0.13065 0.00188 0.41214 0.0
H428 H 0.13849 0.00293 0.5493 0.0
C429 C 0.06951 0.98936 0.55311 0.0
C430 C 0.06911 8e-05 0.59314 0.0
C431 C 0.08523 0.98987 0.52142 0.0
C432 C 0.13603 0.00286 0.5111 0.0
H433 H 0.18163 0.98152 0.29646 0.0
H434 H 0.15348 0.98331 0.34839 0.0
H435 H 0.16555 0.0036 0.49311 0.0
H436 H 0.08514 0.01962 0.63144 0.0
H437 H 0.11257 0.02055 0.57604 0.0
H438 H 0.10111 0.001 0.43024 0.0
C439 C 0.16573 0.99169 0.35518 0.0
C440 C 0.15157 0.00327 0.47879 0.0
C441 C 0.18187 0.99067 0.32529 0.0
C442 C 0.08499 0.01113 0.60111 0.0
C443 C 0.10075 0.01162 0.56938 0.0
C444 C 0.11511 0.00146 0.44447 0.0
C445 C 0.16575 0.00269 0.3947 0.0
C446 C 0.14911 0.00274 0.42887 0.0
C447 C 0.101 0.00111 0.52888 0.0
C448 C 0.11759 0.00187 0.49441 0.0
H449 H 0.21061 0.02017 0.38003 0.0
H450 H 0.18248 0.02208 0.43173 0.0
H451 H 0.1282 0.00171 0.37396 0.0
H452 H 0.05757 0.98065 0.54587 0.0
H453 H 0.08504 0.98137 0.49114 0.0
C454 C 0.4458 0.19292 0.34004 0.0
C455 C 0.45683 0.19934 0.29962 0.0
C456 C 0.45019 0.17725 0.36517 0.0
C457 C 0.49067 0.14997 0.39009 0.0
H458 H 0.45278 0.11629 0.44703 0.0
C459 C 0.50996 0.08584 0.49605 0.0
C460 C 0.49896 0.08069 0.53766 0.0
C461 C 0.50472 0.09983 0.46527 0.0
C462 C 0.46352 0.12567 0.4318 0.0
H463 H 0.48066 0.19398 0.25269 0.0
H464 H 0.48822 0.16642 0.29629 0.0
H465 H 0.44329 0.14081 0.39412 0.0
H466 H 0.47383 0.08635 0.57962 0.0
H467 H 0.46494 0.11105 0.52659 0.0
H468 H 0.51088 0.13504 0.42827 0.0
C469 C 0.4763 0.17365 0.30884 0.0
C470 C 0.45808 0.13969 0.40134 0.0
C471 C 0.47184 0.18931 0.28354 0.0
C472 C 0.48274 0.09007 0.54815 0.0
C473 C 0.47749 0.10407 0.51736 0.0
C474 C 0.49611 0.13599 0.42062 0.0
C475 C 0.46576 0.16765 0.35054 0.0
C476 C 0.47158 0.15207 0.38038 0.0
C477 C 0.48835 0.10904 0.47535 0.0
C478 C 0.48259 0.12373 0.44213 0.0
H479 H 0.43404 0.20028 0.35302 0.0
H480 H 0.44185 0.17306 0.39727 0.0
H481 H 0.50139 0.15945 0.37521 0.0
H482 H 0.52266 0.07903 0.48715 0.0
H483 H 0.51334 0.1032 0.43308 0.0
C484 C 0.32678 0.54681 0.30074 0.0
C485 C 0.31092 0.55434 0.32185 0.0
C486 C 0.34153 0.5412 0.32913 0.0
C487 C 0.35329 0.52982 0.4561 0.0
H488 H 0.40466 0.53941 0.40815 0.0
C489 C 0.41804 0.52572 0.57686 0.0
C490 C 0.43403 0.51782 0.55757 0.0
C491 C 0.40262 0.52904 0.54825 0.0
C492 C 0.39039 0.53648 0.42185 0.0
H493 H 0.29791 0.56129 0.38975 0.0
H494 H 0.32378 0.55217 0.43871 0.0
H495 H 0.37862 0.54718 0.35751 0.0
H496 H 0.4459 0.50649 0.49355 0.0
H497 H 0.41918 0.51254 0.4437 0.0
H498 H 0.36517 0.51948 0.5209 0.0
C499 C 0.3248 0.55036 0.40035 0.0
C500 C 0.37544 0.54087 0.39276 0.0
C501 C 0.31005 0.55586 0.37207 0.0
C502 C 0.43403 0.51298 0.50932 0.0
C503 C 0.4187 0.5164 0.48072 0.0
C504 C 0.36824 0.52555 0.48532 0.0
C505 C 0.34077 0.54302 0.37929 0.0
C506 C 0.35669 0.53768 0.40957 0.0
C507 C 0.40289 0.52461 0.4997 0.0
C508 C 0.38695 0.52887 0.46855 0.0
H509 H 0.32796 0.54551 0.26217 0.0
H510 H 0.3535 0.5354 0.31175 0.0
H511 H 0.33904 0.52687 0.46996 0.0
H512 H 0.41763 0.52977 0.61369 0.0
H513 H 0.39068 0.53553 0.56377 0.0
C514 C 0.11899 0.32135 0.35908 0.0
C515 C 0.1086 0.31643 0.31939 0.0
C516 C 0.11464 0.33647 0.38369 0.0
C517 C 0.0878 0.37783 0.37577 0.0
H518 H 0.08749 0.37279 0.51516 0.0
C519 C 0.05036 0.42608 0.49898 0.0
C520 C 0.05962 0.43119 0.54037 0.0
C521 C 0.05753 0.41292 0.47065 0.0
C522 C 0.08773 0.37451 0.47627 0.0
H523 H 0.08579 0.32374 0.27364 0.0
H524 H 0.07801 0.35003 0.31684 0.0
H525 H 0.09816 0.34863 0.4675 0.0
H526 H 0.08395 0.42665 0.5837 0.0
H527 H 0.09632 0.40354 0.53452 0.0
H528 H 0.07695 0.40361 0.38482 0.0
C529 C 0.08974 0.34238 0.32857 0.0
C530 C 0.0939 0.36066 0.44888 0.0
C531 C 0.09418 0.32731 0.30378 0.0
C532 C 0.07627 0.42284 0.55257 0.0
C533 C 0.0834 0.40962 0.52433 0.0
C534 C 0.08155 0.39166 0.40321 0.0
C535 C 0.0997 0.34697 0.36938 0.0
C536 C 0.09393 0.3621 0.39827 0.0
C537 C 0.07408 0.40449 0.4831 0.0
C538 C 0.08135 0.3901 0.45379 0.0
H539 H 0.13036 0.31336 0.37151 0.0
H540 H 0.12287 0.33982 0.41429 0.0
H541 H 0.0879 0.37951 0.33689 0.0
H542 H 0.03734 0.43199 0.48892 0.0
H543 H 0.04986 0.40906 0.43954 0.0
C544 C 0.84536 0.9912 0.01011 0.0
C545 C 0.84226 0.00703 0.03334 0.0
C546 C 0.86101 0.98992 0.97867 0.0
C547 C 0.9083 0.00965 0.94708 0.0
H548 H 0.89994 0.9923 0.82024 0.0
C549 C 0.96596 0.01808 0.79663 0.0
C550 C 0.96799 0.00444 0.76437 0.0
C551 C 0.95051 0.01788 0.82909 0.0
C552 C 0.90264 0.99693 0.8557 0.0
H553 H 0.85347 0.03367 0.04329 0.0
H554 H 0.88093 0.03135 0.98911 0.0
H555 H 0.87379 0.99213 0.87936 0.0
H556 H 0.95522 0.97995 0.74063 0.0
H557 H 0.92848 0.97933 0.79809 0.0
H558 H 0.93713 0.01422 0.92414 0.0
C559 C 0.87122 0.01996 0.99491 0.0
C560 C 0.88761 0.99685 0.88957 0.0
C561 C 0.85546 0.02133 0.02574 0.0
C562 C 0.95401 0.99073 0.7648 0.0
C563 C 0.93863 0.99042 0.79772 0.0
C564 C 0.92336 0.00955 0.91348 0.0
C565 C 0.87404 0.00434 0.97045 0.0
C566 C 0.89023 0.0034 0.93546 0.0
C567 C 0.93676 0.00391 0.83071 0.0
C568 C 0.92073 0.00339 0.86704 0.0
H569 H 0.83534 0.98002 0.01499 0.0
H570 H 0.86289 0.97767 0.96061 0.0
H571 H 0.91082 0.01456 0.98237 0.0
H572 H 0.97639 0.02893 0.79702 0.0
H573 H 0.94938 0.02876 0.85293 0.0
C574 C 0.54619 0.80479 0.08268 0.0
C575 C 0.56522 0.80194 0.09112 0.0
C576 C 0.54111 0.81969 0.05505 0.0
C577 C 0.5546 0.86463 0.01339 0.0
H578 H 0.53005 0.85423 0.89474 0.0
C579 C 0.52268 0.91711 0.88243 0.0
C580 C 0.53102 0.91755 0.8359 0.0
C581 C 0.5262 0.9033 0.91579 0.0
C582 C 0.53681 0.85728 0.92787 0.0
H583 H 0.59379 0.81258 0.07931 0.0
H584 H 0.58481 0.83913 0.03241 0.0
H585 H 0.53707 0.82989 0.95212 0.0
H586 H 0.54922 0.90393 0.7872 0.0
H587 H 0.55479 0.87928 0.84517 0.0
H588 H 0.55408 0.89207 0.98933 0.0
C589 C 0.57391 0.82973 0.04674 0.0
C590 C 0.54073 0.84343 0.96067 0.0
C591 C 0.57902 0.81461 0.07341 0.0
C592 C 0.54265 0.90382 0.82291 0.0
C593 C 0.54579 0.88978 0.85589 0.0
C594 C 0.55026 0.87853 0.9811 0.0
C595 C 0.55495 0.83215 0.03639 0.0
C596 C 0.54983 0.84698 0.00342 0.0
C597 C 0.53774 0.88951 0.90269 0.0
C598 C 0.54153 0.87492 0.93786 0.0
H599 H 0.53534 0.79506 0.09556 0.0
H600 H 0.52641 0.82133 0.04746 0.0
H601 H 0.56164 0.86764 0.04615 0.0
H602 H 0.51377 0.92766 0.89324 0.0
H603 H 0.51982 0.9033 0.9517 0.0
C604 C 0.72518 0.45716 0.04706 0.0
C605 C 0.72555 0.43968 0.0667 0.0
C606 C 0.71063 0.46223 0.01735 0.0
C607 C 0.66202 0.45043 0.98684 0.0
H608 H 0.67499 0.47509 0.86408 0.0
C609 C 0.60667 0.45977 0.84317 0.0
C610 C 0.60695 0.47599 0.81624 0.0
C611 C 0.62151 0.45562 0.87278 0.0
C612 C 0.67108 0.46844 0.89848 0.0
H613 H 0.71076 0.41397 0.07193 0.0
H614 H 0.68523 0.42288 0.02048 0.0
H615 H 0.69979 0.46791 0.91957 0.0
H616 H 0.62309 0.50048 0.79844 0.0
H617 H 0.64893 0.49344 0.85101 0.0
H618 H 0.63334 0.45114 0.96649 0.0
C619 C 0.69621 0.43263 0.02789 0.0
C620 C 0.6853 0.46431 0.93022 0.0
C621 C 0.71086 0.4275 0.05708 0.0
C622 C 0.6226 0.48782 0.81856 0.0
C623 C 0.6374 0.48375 0.84864 0.0
C624 C 0.64779 0.45471 0.95539 0.0
C625 C 0.69606 0.44999 0.00725 0.0
C626 C 0.68092 0.45511 0.97452 0.0
C627 C 0.63691 0.46769 0.87665 0.0
C628 C 0.65213 0.4636 0.91054 0.0
H629 H 0.73642 0.46677 0.05355 0.0
H630 H 0.71078 0.47573 0.00222 0.0
H631 H 0.65821 0.44356 0.02104 0.0
H632 H 0.59489 0.45029 0.8415 0.0
H633 H 0.62085 0.44293 0.89273 0.0
C634 C 0.94409 0.67596 0.06729 0.0
C635 C 0.92953 0.68656 0.05122 0.0
C636 C 0.94846 0.66058 0.04379 0.0
C637 C 0.94375 0.64097 0.92536 0.0
H638 H 0.962 0.599 0.99153 0.0
C639 C 0.96221 0.57829 0.82518 0.0
C640 C 0.97925 0.57055 0.83692 0.0
C641 C 0.95486 0.5915 0.85303 0.0
C642 C 0.95702 0.61068 0.97256 0.0
H643 H 0.90737 0.68882 0.9999 0.0
H644 H 0.91471 0.66181 0.95948 0.0
H645 H 0.95084 0.62338 0.03816 0.0
H646 H 0.00194 0.57079 0.88723 0.0
H647 H 0.98901 0.59372 0.93597 0.0
H648 H 0.95 0.62832 0.85981 0.0
C649 C 0.92313 0.6656 0.98935 0.0
C650 C 0.95065 0.62465 0.99925 0.0
C651 C 0.91886 0.68103 0.01261 0.0
C652 C 0.98864 0.57624 0.87754 0.0
C653 C 0.98124 0.58939 0.90551 0.0
C654 C 0.95003 0.62698 0.89874 0.0
C655 C 0.93827 0.65541 0.0039 0.0
C656 C 0.94407 0.64005 0.97596 0.0
C657 C 0.96433 0.59725 0.8934 0.0
C658 C 0.95689 0.61174 0.922 0.0
H659 H 0.95269 0.68 0.09661 0.0
H660 H 0.96034 0.65319 0.05568 0.0
H661 H 0.93915 0.65274 0.9061 0.0
H662 H 0.95442 0.57402 0.79468 0.0
H663 H 0.94167 0.59714 0.84315 0.0
C664 C 0.06122 0.15977 0.39039 0.0
C665 C 0.07339 0.15703 0.35078 0.0
C666 C 0.05097 0.14552 0.41383 0.0
C667 C 0.04953 0.09617 0.42751 0.0
H668 H 1.00022 0.10304 0.48593 0.0
C669 C 0.00819 0.03844 0.52635 0.0
C670 C 0.00574 0.04186 0.57527 0.0
C671 C 0.01219 0.05245 0.49242 0.0
C672 C 0.0139 0.10094 0.46931 0.0
H673 H 0.08456 0.13689 0.30569 0.0
H674 H 0.06599 0.11239 0.34446 0.0
H675 H 0.01672 0.12762 0.43976 0.0
H676 H 0.00351 0.06249 0.62657 0.0
H677 H 0.00992 0.08696 0.56709 0.0
H678 H 0.04661 0.06947 0.45695 0.0
C679 C 0.06462 0.12546 0.35831 0.0
C680 C 0.02348 0.11504 0.44337 0.0
C681 C 0.0751 0.13964 0.33548 0.0
C682 C 0.00537 0.05953 0.58901 0.0
C683 C 0.00899 0.07352 0.555 0.0
C684 C 0.03981 0.08203 0.45261 0.0
C685 C 0.05242 0.12818 0.39786 0.0
C686 C 0.0416 0.11293 0.42289 0.0
C687 C 0.01338 0.07005 0.5069 0.0
C688 C 0.02206 0.08436 0.4744 0.0
H689 H 0.05932 0.17298 0.40291 0.0
H690 H 0.04203 0.14813 0.44472 0.0
H691 H 0.06357 0.09404 0.41326 0.0
H692 H 0.00868 0.02493 0.51492 0.0
H693 H 0.01545 0.04949 0.45542 0.0
C694 C 0.37523 0.95374 0.33002 0.0
C695 C 0.35819 0.94678 0.35157 0.0
C696 C 0.39159 0.95435 0.35616 0.0
C697 C 0.41572 0.93728 0.461 0.0
H698 H 0.43692 0.98535 0.46324 0.0
C699 C 0.47133 0.95908 0.59673 0.0
C700 C 0.48379 0.97343 0.58277 0.0
C701 C 0.45736 0.95356 0.56582 0.0
C702 C 0.43155 0.97175 0.4623 0.0
H703 H 0.34515 0.93413 0.41656 0.0
H704 H 0.37406 0.93513 0.46249 0.0
H705 H 0.41011 0.97923 0.41417 0.0
H706 H 0.49257 0.9923 0.52458 0.0
H707 H 0.46903 0.98208 0.46962 0.0
H708 H 0.43739 0.92972 0.50865 0.0
C709 C 0.37458 0.94009 0.42528 0.0
C710 C 0.41606 0.9683 0.43438 0.0
C711 C 0.35808 0.93964 0.39919 0.0
C712 C 0.48294 0.98136 0.53637 0.0
C713 C 0.46931 0.97558 0.50511 0.0
C714 C 0.4315 0.94068 0.48849 0.0
C715 C 0.39132 0.94792 0.4043 0.0
C716 C 0.40799 0.95108 0.43352 0.0
C717 C 0.45586 0.96209 0.52007 0.0
C718 C 0.4396 0.958 0.48952 0.0
H719 H 0.37575 0.95955 0.29363 0.0
H720 H 0.40437 0.96039 0.33922 0.0
H721 H 0.4097 0.92387 0.46074 0.0
H722 H 0.47168 0.95282 0.63252 0.0
H723 H 0.44721 0.94323 0.57881 0.0
C724 C 0.50674 0.35351 0.36514 0.0
C725 C 0.49066 0.35684 0.33854 0.0
C726 C 0.51566 0.36709 0.38953 0.0
C727 C 0.51996 0.41597 0.3934 0.0
H728 H 0.53147 0.40697 0.52736 0.0
C729 C 0.52108 0.46965 0.531 0.0
C730 C 0.53316 0.46849 0.56984 0.0
C731 C 0.52089 0.45673 0.49684 0.0
C732 C 0.52879 0.40964 0.48966 0.0
H733 H 0.47112 0.37697 0.31761 0.0
H734 H 0.48669 0.4006 0.35989 0.0
H735 H 0.52103 0.3824 0.4796 0.0
H736 H 0.55545 0.45355 0.60164 0.0
H737 H 0.55513 0.43085 0.54159 0.0
H738 H 0.52708 0.44331 0.40391 0.0
C739 C 0.49262 0.38758 0.36116 0.0
C740 C 0.52274 0.39556 0.46236 0.0
C741 C 0.48368 0.37402 0.33701 0.0
C742 C 0.54597 0.45477 0.57209 0.0
C743 C 0.54569 0.44172 0.53795 0.0
C744 C 0.52604 0.43003 0.42064 0.0
C745 C 0.50873 0.38429 0.38758 0.0
C746 C 0.51769 0.39869 0.41441 0.0
C747 C 0.53275 0.44231 0.5008 0.0
C748 C 0.52993 0.42711 0.4695 0.0
H749 H 0.51262 0.34048 0.36648 0.0
H750 H 0.5281 0.36419 0.40945 0.0
H751 H 0.51653 0.41871 0.35621 0.0
H752 H 0.51111 0.48013 0.52815 0.0
H753 H 0.51062 0.45751 0.46899 0.0
C754 C 0.15935 0.60108 0.40255 0.0
C755 C 0.15754 0.60897 0.35619 0.0
C756 C 0.14368 0.59835 0.4339 0.0
C757 C 0.10841 0.59702 0.49883 0.0
H758 H 0.06919 0.5709 0.43486 0.0
C759 C 0.04741 0.55804 0.60425 0.0
C760 C 0.04583 0.54016 0.59217 0.0
C761 C 0.05813 0.57043 0.57486 0.0
C762 C 0.07992 0.57833 0.45315 0.0
H763 H 0.1381 0.62181 0.30852 0.0
H764 H 0.11059 0.61659 0.36307 0.0
H765 H 0.09412 0.58719 0.38693 0.0
H766 H 0.05351 0.52141 0.53884 0.0
H767 H 0.07205 0.54304 0.48743 0.0
H768 H 0.0947 0.58735 0.56513 0.0
C769 C 0.12418 0.61241 0.37475 0.0
C770 C 0.09408 0.58781 0.42575 0.0
C771 C 0.13993 0.61532 0.3435 0.0
C772 C 0.05452 0.53507 0.5492 0.0
C773 C 0.06502 0.54749 0.51957 0.0
C774 C 0.09413 0.58766 0.52625 0.0
C775 C 0.12581 0.60332 0.41955 0.0
C776 C 0.10884 0.59672 0.44834 0.0
C777 C 0.06721 0.56521 0.53252 0.0
C778 C 0.08015 0.5777 0.50365 0.0
H779 H 0.17256 0.59578 0.41353 0.0
H780 H 0.14536 0.59114 0.46798 0.0
H781 H 0.11956 0.60386 0.51713 0.0
H782 H 0.04086 0.56236 0.63718 0.0
H783 H 0.05955 0.58403 0.58554 0.0
C784 C 0.96673 0.86233 0.01219 0.0
C785 C 0.96922 0.84442 0.00237 0.0
C786 C 0.97757 0.87586 0.98742 0.0
C787 C 0.01065 0.90017 0.94767 0.0
H788 H 0.01003 0.90139 0.8084 0.0
C789 C 0.0366 0.94536 0.76408 0.0
C790 C 0.0323 0.96211 0.78018 0.0
C791 C 0.03407 0.93028 0.79488 0.0
C792 C 0.01088 0.90111 0.84719 0.0
H793 H 0.98524 0.8268 0.9587 0.0
H794 H 0.0036 0.85056 0.91413 0.0
H795 H 0.99529 0.87624 0.85465 0.0
H796 H 0.02318 0.97656 0.84152 0.0
H797 H 0.0179 0.95021 0.89497 0.0
H798 H 0.02625 0.92503 0.94041 0.0
C799 C 0.99333 0.854 0.94141 0.0
C800 C 0.00226 0.8867 0.87367 0.0
C801 C 0.98268 0.84043 0.96666 0.0
C802 C 0.0268 0.96377 0.82854 0.0
C803 C 0.02378 0.9486 0.85912 0.0
C804 C 0.01956 0.9145 0.92116 0.0
C805 C 0.99093 0.87182 0.95178 0.0
C806 C 0.00172 0.88627 0.9241 0.0
C807 C 0.02656 0.93158 0.84196 0.0
C808 C 0.01945 0.91535 0.87053 0.0
H809 H 0.95626 0.86596 0.03869 0.0
H810 H 0.97521 0.88953 0.99542 0.0
H811 H 0.01057 0.90001 0.98663 0.0
H812 H 0.04096 0.94382 0.72685 0.0
H813 H 0.037 0.91749 0.78085 0.0
C814 C 0.67632 0.05348 0.97705 0.0
C815 C 0.67625 0.04404 0.02189 0.0
C816 C 0.66013 0.05345 0.94966 0.0
C817 C 0.61943 0.02453 0.93008 0.0
H818 H 0.59777 0.06524 0.86577 0.0
C819 C 0.55141 0.01515 0.83145 0.0
C820 C 0.55048 0.02364 0.78574 0.0
C821 C 0.56537 0.02018 0.86262 0.0
C822 C 0.60377 0.05374 0.88319 0.0
H823 H 0.65901 0.02748 0.07343 0.0
H824 H 0.63095 0.02758 0.02601 0.0
H825 H 0.62544 0.06951 0.91507 0.0
H826 H 0.56271 0.04468 0.73752 0.0
H827 H 0.58767 0.05315 0.7915 0.0
H828 H 0.59846 0.00862 0.89762 0.0
C829 C 0.64347 0.03499 0.01203 0.0
C830 C 0.61956 0.05621 0.91139 0.0
C831 C 0.65952 0.0351 0.03939 0.0
C832 C 0.56311 0.03797 0.77273 0.0
C833 C 0.57737 0.04282 0.80369 0.0
C834 C 0.60387 0.02206 0.90173 0.0
C835 C 0.64373 0.04381 0.96648 0.0
C836 C 0.62736 0.04161 0.93549 0.0
C837 C 0.57903 0.03355 0.84836 0.0
C838 C 0.59566 0.03661 0.87838 0.0
H839 H 0.68897 0.06059 0.9628 0.0
H840 H 0.66069 0.06031 0.91453 0.0
H841 H 0.62543 0.013 0.94737 0.0
H842 H 0.54167 0.00421 0.84259 0.0
H843 H 0.56583 0.01314 0.89736 0.0
C844 C 0.53592 0.6487 0.00106 0.0
C845 C 0.55254 0.64617 0.0262 0.0
C846 C 0.52759 0.63481 0.97663 0.0
C847 C 0.52084 0.6056 0.90488 0.0
H848 H 0.51823 0.55853 0.96775 0.0
C849 C 0.49635 0.54466 0.80332 0.0
C850 C 0.509 0.53083 0.80614 0.0
C851 C 0.49719 0.55824 0.83587 0.0
C852 C 0.51883 0.57159 0.94971 0.0
H853 H 0.57381 0.62726 0.04361 0.0
H854 H 0.55915 0.60304 0.00157 0.0
H855 H 0.52936 0.5839 0.01173 0.0
H856 H 0.53137 0.51958 0.84748 0.0
H857 H 0.5329 0.54313 0.9037 0.0
H858 H 0.51114 0.59323 0.84215 0.0
C859 C 0.55241 0.61567 0.00147 0.0
C860 C 0.52523 0.58609 0.97486 0.0
C861 C 0.56082 0.62956 0.02549 0.0
C862 C 0.52149 0.53011 0.84419 0.0
C863 C 0.52228 0.54359 0.87669 0.0
C864 C 0.51455 0.59106 0.87956 0.0
C865 C 0.53562 0.61809 0.97723 0.0
C866 C 0.52678 0.60315 0.95228 0.0
C867 C 0.5106 0.55813 0.87195 0.0
C868 C 0.51398 0.57382 0.90129 0.0
H869 H 0.52904 0.66125 0.00138 0.0
H870 H 0.51462 0.63701 0.95828 0.0
H871 H 0.52195 0.6186 0.88656 0.0
H872 H 0.48656 0.54555 0.77437 0.0
H873 H 0.48782 0.56915 0.83173 0.0
C874 C 0.89777 0.38665 0.02868 0.0
C875 C 0.87885 0.3901 0.0196 0.0
C876 C 0.91205 0.39145 0.99417 0.0
C877 C 0.91982 0.42613 0.89959 0.0
H878 H 0.96808 0.40506 0.87782 0.0
C879 C 0.98282 0.46852 0.82614 0.0
C880 C 0.99245 0.46252 0.78551 0.0
C881 C 0.97033 0.45715 0.85352 0.0
C882 C 0.9546 0.41099 0.8834 0.0
H883 H 0.8601 0.39961 0.96475 0.0
H884 H 0.88479 0.40719 0.90448 0.0
H885 H 0.9427 0.38798 0.92351 0.0
H886 H 0.99748 0.43951 0.74362 0.0
H887 H 0.97546 0.41953 0.79191 0.0
H888 H 0.93158 0.44914 0.8604 0.0
C889 C 0.88864 0.40128 0.93882 0.0
C890 C 0.94014 0.40129 0.90962 0.0
C891 C 0.87442 0.39667 0.97336 0.0
C892 C 0.9902 0.44454 0.77464 0.0
C893 C 0.97765 0.4331 0.80227 0.0
C894 C 0.93421 0.43579 0.87388 0.0
C895 C 0.90766 0.39965 0.94978 0.0
C896 C 0.92263 0.40884 0.91828 0.0
C897 C 0.96716 0.4395 0.84099 0.0
C898 C 0.95184 0.42848 0.86616 0.0
H899 H 0.90167 0.38119 0.06346 0.0
H900 H 0.92657 0.38993 0.00366 0.0
H901 H 0.90666 0.4325 0.90625 0.0
H902 H 0.9844 0.48222 0.83593 0.0
H903 H 0.96271 0.46233 0.88381 0.0
C904 C 0.12675 0.1922 0.95999 0.0
C905 C 0.11381 0.20198 0.98619 0.0
C906 C 0.12043 0.17848 0.93158 0.0
C907 C 0.08126 0.14614 0.93287 0.0
H908 H 0.1 0.13428 0.80646 0.0
C909 C 0.04817 0.08802 0.83487 0.0
C910 C 0.05983 0.07778 0.80638 0.0
C911 C 0.05521 0.10353 0.85437 0.0
C912 C 0.09482 0.13727 0.84208 0.0
H913 H 0.08406 0.20577 0.00033 0.0
H914 H 0.07314 0.1821 0.95045 0.0
H915 H 0.11136 0.16174 0.84135 0.0
H916 H 0.08822 0.07584 0.77659 0.0
H917 H 0.10074 0.10256 0.81235 0.0
H918 H 0.0652 0.12163 0.9348 0.0
C919 C 0.08816 0.18492 0.95227 0.0
C920 C 0.10125 0.15305 0.86184 0.0
C921 C 0.09444 0.19866 0.98035 0.0
C922 C 0.07887 0.08329 0.79873 0.0
C923 C 0.08598 0.09878 0.81864 0.0
C924 C 0.07503 0.13034 0.91348 0.0
C925 C 0.10108 0.17424 0.92919 0.0
C926 C 0.09436 0.15771 0.90723 0.0
C927 C 0.07421 0.10915 0.84655 0.0
C928 C 0.08155 0.12575 0.86763 0.0
H929 H 0.14176 0.19452 0.96352 0.0
H930 H 0.1307 0.17048 0.91407 0.0
H931 H 0.07606 0.14917 0.96847 0.0
H932 H 0.03351 0.08408 0.84221 0.0
H933 H 0.04562 0.11125 0.87507 0.0
C934 C 0.33253 0.98483 0.95199 0.0
C935 C 0.32799 0.99713 0.9866 0.0
C936 C 0.34793 0.98805 0.91981 0.0
C937 C 0.39283 0.01548 0.90672 0.0
H938 H 0.39677 0.99219 0.78571 0.0
C939 C 0.45822 0.02122 0.77163 0.0
C940 C 0.46578 0.00462 0.76357 0.0
C941 C 0.44075 0.02227 0.79608 0.0
C942 C 0.39581 0.99883 0.81935 0.0
H943 H 0.33547 0.02321 0.01162 0.0
H944 H 0.36153 0.02932 0.95363 0.0
H945 H 0.36658 0.99159 0.83005 0.0
H946 H 0.46083 0.97613 0.7741 0.0
H947 H 0.43011 0.97801 0.81526 0.0
H948 H 0.42213 0.023 0.89481 0.0
C949 C 0.35368 0.01676 0.9527 0.0
C950 C 0.37854 0.99838 0.84511 0.0
C951 C 0.33843 0.01339 0.98553 0.0
C952 C 0.45545 0.98912 0.78001 0.0
C953 C 0.43783 0.99017 0.8033 0.0
C954 C 0.40999 0.01626 0.88033 0.0
C955 C 0.35908 0.00388 0.92042 0.0
C956 C 0.37687 0.00629 0.8899 0.0
C957 C 0.43033 0.00673 0.81166 0.0
C958 C 0.41173 0.00758 0.837 0.0
H959 H 0.32461 0.97231 0.95087 0.0
H960 H 0.35153 0.97766 0.89604 0.0
H961 H 0.39237 0.02151 0.94125 0.0
H962 H 0.46587 0.03339 0.7594 0.0
H963 H 0.43523 0.03519 0.80217 0.0
C964 C 0.46466 0.32695 0.94858 0.0
C965 C 0.44605 0.32513 0.96732 0.0
C966 C 0.46999 0.34071 0.91501 0.0
C967 C 0.45337 0.37637 0.83267 0.0
H968 H 0.49737 0.4023 0.87566 0.0
C969 C 0.47673 0.44762 0.758 0.0
C970 C 0.49621 0.45151 0.75286 0.0
C971 C 0.46992 0.43143 0.78007 0.0
C972 C 0.48525 0.39512 0.8625 0.0
H973 H 0.41803 0.33525 0.96173 0.0
H974 H 0.4274 0.35941 0.90319 0.0
H975 H 0.48693 0.37454 0.91732 0.0
H976 H 0.5238 0.44116 0.76516 0.0
H977 H 0.51204 0.41302 0.80214 0.0
H978 H 0.45177 0.3971 0.77766 0.0
C979 C 0.43787 0.35022 0.9147 0.0
C980 C 0.47926 0.37916 0.88646 0.0
C981 C 0.43254 0.33644 0.94843 0.0
C982 C 0.5087 0.43873 0.76914 0.0
C983 C 0.50193 0.42258 0.79063 0.0
C984 C 0.45948 0.39236 0.80828 0.0
C985 C 0.45683 0.35296 0.89933 0.0
C986 C 0.46331 0.36955 0.87181 0.0
C987 C 0.48248 0.41878 0.7971 0.0
C988 C 0.47556 0.40189 0.82285 0.0
H989 H 0.47549 0.31859 0.96246 0.0
H990 H 0.48464 0.34231 0.90312 0.0
H991 H 0.441 0.36925 0.82064 0.0
H992 H 0.46676 0.45719 0.74573 0.0
H993 H 0.45484 0.42901 0.78478 0.0
C994 C 0.18615 0.55581 0.94885 0.0
C995 C 0.19365 0.54516 0.98573 0.0
C996 C 0.1741 0.54842 0.91595 0.0
C997 C 0.14133 0.50947 0.90675 0.0
H998 H 0.13344 0.53225 0.78159 0.0
C999 C 0.08224 0.4908 0.77201 0.0
C1000 C 0.06978 0.50476 0.76723 0.0
C1001 C 0.09929 0.49331 0.79513 0.0
C1002 C 0.13564 0.52567 0.81628 0.0
H1003 H 0.19552 0.5181 0.01446 0.0
H1004 H 0.17516 0.50502 0.95557 0.0
H1005 H 0.1615 0.54032 0.8252 0.0
H1006 H 0.06547 0.53229 0.78236 0.0
H1007 H 0.09548 0.53674 0.82131 0.0
H1008 H 0.11535 0.49478 0.89705 0.0
C1009 C 0.17807 0.51924 0.95313 0.0
C1010 C 0.15161 0.53036 0.84153 0.0
C1011 C 0.19 0.5267 0.98652 0.0
C1012 C 0.07471 0.52125 0.78577 0.0
C1013 C 0.09189 0.52385 0.80776 0.0
C1014 C 0.12555 0.50452 0.88095 0.0
C1015 C 0.16942 0.53009 0.91844 0.0
C1016 C 0.15434 0.52281 0.88792 0.0
C1017 C 0.1043 0.50993 0.81258 0.0
C1018 C 0.12233 0.51299 0.83625 0.0
H1019 H 0.18896 0.57004 0.9466 0.0
H1020 H 0.16768 0.55732 0.89025 0.0
H1021 H 0.14273 0.50348 0.9425 0.0
H1022 H 0.07877 0.47795 0.75807 0.0
H1023 H 0.10869 0.4824 0.79868 0.0
C1024 C 0.94003 0.80682 0.38649 0.0
C1025 C 0.92104 0.80368 0.37595 0.0
C1026 C 0.94518 0.81987 0.41807 0.0
C1027 C 0.92743 0.86163 0.4624 0.0
H1028 H 0.97326 0.86104 0.53409 0.0
C1029 C 0.95603 0.92133 0.56745 0.0
C1030 C 0.9752 0.92602 0.5578 0.0
C1031 C 0.94808 0.90558 0.55092 0.0
C1032 C 0.96042 0.86137 0.51421 0.0
H1033 H 0.89243 0.81067 0.39332 0.0
H1034 H 0.90135 0.83312 0.4498 0.0
H1035 H 0.96128 0.83381 0.4999 0.0
H1036 H 0.00079 0.91796 0.52156 0.0
H1037 H 0.98702 0.89036 0.49402 0.0
H1038 H 0.92668 0.88926 0.47689 0.0
C1039 C 0.91234 0.82589 0.43249 0.0
C1040 C 0.95356 0.84579 0.49452 0.0
C1041 C 0.90719 0.81293 0.40048 0.0
C1042 C 0.98611 0.91464 0.53072 0.0
C1043 C 0.97823 0.89882 0.51481 0.0
C1044 C 0.93417 0.87715 0.48267 0.0
C1045 C 0.93145 0.83 0.44026 0.0
C1046 C 0.93724 0.84581 0.46726 0.0
C1047 C 0.95918 0.89408 0.52496 0.0
C1048 C 0.95098 0.87726 0.50772 0.0
H1049 H 0.95106 0.80014 0.36761 0.0
H1050 H 0.96004 0.82274 0.42251 0.0
H1051 H 0.91499 0.86229 0.44106 0.0
H1052 H 0.94723 0.92959 0.58878 0.0
H1053 H 0.93336 0.9022 0.55932 0.0
C1054 C 0.69666 0.00819 0.38547 0.0
C1055 C 0.70498 0.99253 0.37159 0.0
C1056 C 0.68067 0.00746 0.41617 0.0
C1057 C 0.65199 0.97991 0.50563 0.0
H1058 H 0.61135 0.00828 0.4597 0.0
C1059 C 0.57744 0.97713 0.60031 0.0
C1060 C 0.56801 0.99316 0.60154 0.0
C1061 C 0.59434 0.97615 0.5732 0.0
C1062 C 0.62259 0.00046 0.47361 0.0
H1063 H 0.7035 0.96382 0.38116 0.0
H1064 H 0.67555 0.96258 0.43551 0.0
H1065 H 0.64093 0.00851 0.41335 0.0
H1066 H 0.56925 0.02082 0.57613 0.0
H1067 H 0.5987 0.01928 0.53046 0.0
H1068 H 0.63376 0.97216 0.56654 0.0
C1069 C 0.68145 0.97541 0.42227 0.0
C1070 C 0.63957 0.00057 0.44684 0.0
C1071 C 0.69739 0.97612 0.39103 0.0
C1072 C 0.57598 0.00819 0.57561 0.0
C1073 C 0.59289 0.00727 0.54903 0.0
C1074 C 0.63502 0.97996 0.53285 0.0
C1075 C 0.67263 0.99107 0.43412 0.0
C1076 C 0.65453 0.99044 0.46269 0.0
C1077 C 0.60227 0.99122 0.547 0.0
C1078 C 0.62014 0.9904 0.51741 0.0
H1079 H 0.70193 0.02104 0.37074 0.0
H1080 H 0.67432 0.01977 0.42509 0.0
H1081 H 0.6633 0.97199 0.51876 0.0
H1082 H 0.57167 0.9653 0.61989 0.0
H1083 H 0.60102 0.96352 0.5722 0.0
C1084 C 0.56935 0.67074 0.43172 0.0
C1085 C 0.58761 0.67491 0.41261 0.0
C1086 C 0.56619 0.65705 0.46695 0.0
C1087 C 0.58729 0.61538 0.50705 0.0
H1088 H 0.54581 0.6135 0.60137 0.0
C1089 C 0.56504 0.5517 0.62436 0.0
C1090 C 0.54561 0.54735 0.62525 0.0
C1091 C 0.572 0.56824 0.60502 0.0
C1092 C 0.55746 0.61384 0.57519 0.0
H1093 H 0.61706 0.669 0.4184 0.0
H1094 H 0.61159 0.64526 0.48061 0.0
H1095 H 0.55508 0.64163 0.55869 0.0
H1096 H 0.51827 0.55703 0.60674 0.0
H1097 H 0.53039 0.58571 0.5733 0.0
H1098 H 0.58941 0.58749 0.52307 0.0
C1099 C 0.59965 0.65227 0.46745 0.0
C1100 C 0.56276 0.62995 0.55069 0.0
C1101 C 0.6028 0.66594 0.43203 0.0
C1102 C 0.53332 0.55991 0.60661 0.0
C1103 C 0.54024 0.57644 0.58781 0.0
C1104 C 0.58207 0.5993 0.53182 0.0
C1105 C 0.58123 0.64723 0.4841 0.0
C1106 C 0.57741 0.63083 0.51536 0.0
C1107 C 0.55963 0.58081 0.5868 0.0
C1108 C 0.56677 0.59826 0.56519 0.0
H1109 H 0.55731 0.67721 0.41709 0.0
H1110 H 0.55179 0.65345 0.47843 0.0
H1111 H 0.59848 0.61547 0.47965 0.0
H1112 H 0.57486 0.54233 0.63852 0.0
H1113 H 0.58702 0.57128 0.60475 0.0
C1114 C 0.85383 0.47407 0.37619 0.0
C1115 C 0.84703 0.45651 0.38639 0.0
C1116 C 0.86651 0.48215 0.4066 0.0
C1117 C 0.90451 0.48766 0.452 0.0
H1118 H 0.90283 0.48154 0.59129 0.0
C1119 C 0.97081 0.48894 0.56436 0.0
C1120 C 0.97049 0.49806 0.60724 0.0
C1121 C 0.9545 0.48677 0.53833 0.0
C1122 C 0.90339 0.48355 0.55246 0.0
H1123 H 0.84705 0.43413 0.43811 0.0
H1124 H 0.86916 0.44823 0.49124 0.0
H1125 H 0.87521 0.47291 0.54616 0.0
H1126 H 0.95283 0.51221 0.65627 0.0
H1127 H 0.92414 0.50815 0.61088 0.0
H1128 H 0.93285 0.49777 0.4581 0.0
C1129 C 0.86474 0.45576 0.45978 0.0
C1130 C 0.88765 0.47851 0.52664 0.0
C1131 C 0.85219 0.44763 0.42919 0.0
C1132 C 0.95352 0.50514 0.62329 0.0
C1133 C 0.9371 0.50276 0.59749 0.0
C1134 C 0.92028 0.49253 0.47774 0.0
C1135 C 0.8725 0.47289 0.448 0.0
C1136 C 0.88817 0.48023 0.47607 0.0
C1137 C 0.93744 0.4935 0.55481 0.0
C1138 C 0.92001 0.49021 0.52814 0.0
H1139 H 0.85021 0.4812 0.34332 0.0
H1140 H 0.87212 0.49544 0.39688 0.0
H1141 H 0.90544 0.48899 0.41305 0.0
H1142 H 0.98366 0.48334 0.55097 0.0
H1143 H 0.95514 0.4794 0.50586 0.0
loop_
_geom_bond_atom_site_label_1
_geom_bond_atom_site_label_2
_geom_bond_distance
_geom_bond_site_symmetry_2
_ccdc_geom_bond_type
C0 C1 1.384 . S
C0 H13 0.947 . S
C0 C35 1.382 . S
C1 C0 1.384 . S
C1 C2 1.378 . S
C2 C1 1.378 . S
C2 C3 1.378 . S
C2 H14 0.952 . S
C3 C2 1.378 . S
C3 H15 0.950 . S
C3 C34 1.383 . S
H4 C23 0.947 . S
H5 C24 0.946 . S
H6 C26 0.953 . S
H7 C27 0.945 . S
H8 C29 0.952 . S
H9 C30 0.949 . S
H10 C32 0.950 . S
H11 C33 0.948 . S
H12 C35 0.951 . S
H13 C0 0.947 . S
H14 C2 0.952 . S
H15 C3 0.950 . S
N16 C19 1.382 . S
N16 C21 1.363 . S
N17 C19 1.371 . S
N17 C20 1.372 . S
N18 C20 1.361 . S
N18 C21 1.377 . S
C19 N16 1.382 . S
C19 N17 1.371 . S
C19 C22 1.480 . S
C20 N17 1.372 . S
C20 N18 1.361 . S
C20 C28 1.457 . S
C21 N16 1.363 . S
C21 N18 1.377 . S
C21 C34 1.479 . S
C22 C19 1.480 . S
C22 C23 1.383 . S
C22 C27 1.385 . S
C23 H4 0.947 . S
C23 C22 1.383 . S
C23 C24 1.388 . S
C24 H5 0.946 . S
C24 C23 1.388 . S
C24 C25 1.384 . S
C25 C24 1.384 . S
C25 C26 1.377 . S
C26 H6 0.953 . S
C26 C25 1.377 . S
C26 C27 1.369 . S
C27 H7 0.945 . S
C27 C22 1.385 . S
C27 C26 1.369 . S
C28 C20 1.457 . S
C28 C29 1.372 1_554 S
C28 C33 1.364 . S
C29 H8 0.952 . S
C29 C28 1.372 1_556 S
C29 C30 1.389 . S
C30 H9 0.949 . S
C30 C29 1.389 . S
C30 C31 1.387 . S
C31 C30 1.387 . S
C31 C32 1.372 1_556 S
C32 H10 0.950 . S
C32 C31 1.372 1_554 S
C32 C33 1.379 . S
C33 H11 0.948 . S
C33 C28 1.364 . S
C33 C32 1.379 . S
C34 C3 1.383 . S
C34 C21 1.479 . S
C34 C35 1.398 . S
C35 C0 1.382 . S
C35 H12 0.951 . S
C35 C34 1.398 . S
C36 C37 1.384 . S
C36 H49 0.947 . S
C36 C71 1.382 . S
C37 C36 1.384 . S
C37 C38 1.378 . S
C38 C37 1.378 . S
C38 C39 1.378 . S
C38 H50 0.952 . S
C39 C38 1.378 . S
C39 H51 0.950 . S
C39 C70 1.383 . S
H40 C59 0.947 . S
H41 C60 0.946 . S
H42 C62 0.953 . S
H43 C63 0.945 . S
H44 C65 0.952 . S
H45 C66 0.949 . S
H46 C68 0.950 . S
H47 C69 0.948 . S
H48 C71 0.951 . S
H49 C36 0.947 . S
H50 C38 0.952 . S
H51 C39 0.950 . S
N52 C55 1.382 1_554 S
N52 C57 1.363 . S
N53 C55 1.371 . S
N53 C56 1.372 . S
N54 C56 1.361 1_554 S
N54 C57 1.377 . S
C55 N52 1.382 1_556 S
C55 N53 1.371 . S
C55 C58 1.480 . S
C56 N53 1.372 . S
C56 N54 1.361 1_556 S
C56 C64 1.457 . S
C57 N52 1.363 . S
C57 N54 1.377 . S
C57 C70 1.479 . S
C58 C55 1.480 . S
C58 C59 1.383 1_556 S
C58 C63 1.385 . S
C59 H40 0.947 . S
C59 C58 1.383 1_554 S
C59 C60 1.388 . S
C60 H41 0.946 . S
C60 C59 1.388 . S
C60 C61 1.384 1_554 S
C61 C60 1.384 1_556 S
C61 C62 1.377 . S
C62 H42 0.953 . S
C62 C61 1.377 . S
C62 C63 1.369 . S
C63 H43 0.945 . S
C63 C58 1.385 . S
C63 C62 1.369 . S
C64 C56 1.457 . S
C64 C65 1.372 . S
C64 C69 1.364 . S
C65 H44 0.952 . S
C65 C64 1.372 . S
C65 C66 1.389 . S
C66 H45 0.949 . S
C66 C65 1.389 . S
C66 C67 1.387 . S
C67 C66 1.387 . S
C67 C68 1.372 . S
C68 H46 0.950 . S
C68 C67 1.372 . S
C68 C69 1.379 . S
C69 H47 0.948 . S
C69 C64 1.364 . S
C69 C68 1.379 . S
C70 C39 1.383 . S
C70 C57 1.479 . S
C70 C71 1.398 . S
C71 C36 1.382 . S
C71 H48 0.951 . S
C71 C70 1.398 . S
C72 C73 1.381 1_565 S
C72 H85 0.947 . S
C72 C107 1.382 1_565 S
C73 C72 1.381 1_545 S
C73 C74 1.384 . S
C74 C73 1.384 . S
C74 C75 1.378 . S
C74 H86 0.952 . S
C75 C74 1.378 . S
C75 H87 0.950 . S
C75 C106 1.383 . S
H76 C95 0.947 . S
H77 C96 0.952 . S
H78 C98 0.953 . S
H79 C99 0.945 . S
H80 C101 0.949 1_565 S
H81 C102 0.959 . S
H82 C104 0.950 . S
H83 C105 0.948 . S
H84 C107 0.952 1_565 S
H85 C72 0.947 . S
H86 C74 0.952 . S
H87 C75 0.950 . S
N88 C91 1.382 . S
N88 C93 1.363 . S
N89 C91 1.371 . S
N89 C92 1.372 . S
N90 C92 1.361 . S
N90 C93 1.377 . S
C91 N88 1.382 . S
C91 N89 1.371 . S
C91 C94 1.480 . S
C92 N89 1.372 . S
C92 N90 1.361 . S
C92 C100 1.442 1_554 S
C93 N88 1.363 . S
C93 N90 1.377 . S
C93 C106 1.479 . S
C94 C91 1.480 . S
C94 C95 1.383 . S
C94 C99 1.385 1_554 S
C95 H76 0.947 . S
C95 C94 1.383 . S
C95 C96 1.384 1_545 S
C96 H77 0.952 . S
C96 C95 1.384 1_565 S
C96 C97 1.383 1_565 S
C97 C96 1.383 1_545 S
C97 C98 1.377 1_554 S
C98 H78 0.953 . S
C98 C97 1.377 1_556 S
C98 C99 1.369 . S
C99 H79 0.945 . S
C99 C94 1.385 1_556 S
C99 C98 1.369 . S
C100 C92 1.442 1_556 S
C100 C101 1.396 . S
C100 C105 1.358 1_556 S
C101 H80 0.949 1_545 S
C101 C100 1.396 . S
C101 C102 1.386 1_545 S
C102 H81 0.959 . S
C102 C101 1.386 1_565 S
C102 C103 1.381 1_565 S
C103 C102 1.381 1_545 S
C103 C104 1.372 . S
C104 H82 0.950 . S
C104 C103 1.372 . S
C104 C105 1.379 1_556 S
C105 H83 0.948 . S
C105 C100 1.358 1_554 S
C105 C104 1.379 1_554 S
C106 C75 1.383 . S
C106 C93 1.479 . S
C106 C107 1.398 . S
C107 C72 1.382 1_545 S
C107 H84 0.952 1_545 S
C107 C106 1.398 . S
C108 C109 1.384 . S
C108 H121 0.947 . S
C108 C143 1.382 1_556 S
C109 C108 1.384 . S
C109 C110 1.378 . S
C110 C109 1.378 . S
C110 C111 1.378 . S
C110 H122 0.952 . S
C111 C110 1.378 . S
C111 H123 0.950 . S
C111 C142 1.383 1_556 S
H112 C131 0.947 1_556 S
H113 C132 0.946 . S
H114 C134 0.953 . S
H115 C135 0.945 . S
H116 C137 0.952 . S
H117 C138 0.949 . S
H118 C140 0.950 . S
H119 C141 0.948 . S
H120 C143 0.951 . S
H121 C108 0.947 . S
H122 C110 0.952 . S
H123 C111 0.950 . S
N124 C127 1.382 . S
N124 C129 1.363 . S
N125 C127 1.371 . S
N125 C128 1.372 . S
N126 C128 1.361 . S
N126 C129 1.377 . S
C127 N124 1.382 . S
C127 N125 1.371 . S
C127 C130 1.480 . S
C128 N125 1.372 . S
C128 N126 1.361 . S
C128 C136 1.457 . S
C129 N124 1.363 . S
C129 N126 1.377 . S
C129 C142 1.479 . S
C130 C127 1.480 . S
C130 C131 1.383 . S
C130 C135 1.385 . S
C131 H112 0.947 1_554 S
C131 C130 1.383 . S
C131 C132 1.388 1_554 S
C132 H113 0.946 . S
C132 C131 1.388 1_556 S
C132 C133 1.384 1_556 S
C133 C132 1.384 1_554 S
C133 C134 1.377 . S
C134 H114 0.953 . S
C134 C133 1.377 . S
C134 C135 1.369 . S
C135 H115 0.945 . S
C135 C130 1.385 . S
C135 C134 1.369 . S
C136 C128 1.457 . S
C136 C137 1.372 . S
C136 C141 1.364 . S
C137 H116 0.952 . S
C137 C136 1.372 . S
C137 C138 1.389 . S
C138 H117 0.949 . S
C138 C137 1.389 . S
C138 C139 1.387 . S
C139 C138 1.387 . S
C139 C140 1.372 . S
C140 H118 0.950 . S
C140 C139 1.372 . S
C140 C141 1.379 . S
C141 H119 0.948 . S
C141 C136 1.364 . S
C141 C140 1.379 . S
C142 C111 1.383 1_554 S
C142 C129 1.479 . S
C142 C143 1.398 . S
C143 C108 1.382 1_554 S
C143 H120 0.951 . S
C143 C142 1.398 . S
C144 C145 1.384 . S
C144 H157 0.947 . S
C144 C179 1.382 . S
C145 C144 1.384 . S
C145 C146 1.378 . S
C146 C145 1.378 . S
C146 C147 1.378 . S
C146 H158 0.952 . S
C147 C146 1.378 . S
C147 H159 0.950 . S
C147 C178 1.383 . S
H148 C167 0.947 . S
H149 C168 0.946 . S
H150 C170 0.953 . S
H151 C171 0.945 . S
H152 C173 0.952 . S
H153 C174 0.949 . S
H154 C176 0.950 . S
H155 C177 0.948 . S
H156 C179 0.951 . S
H157 C144 0.947 . S
H158 C146 0.952 . S
H159 C147 0.950 . S
N160 C163 1.382 . S
N160 C165 1.363 . S
N161 C163 1.371 . S
N161 C164 1.372 . S
N162 C164 1.361 . S
N162 C165 1.377 . S
C163 N160 1.382 . S
C163 N161 1.371 . S
C163 C166 1.480 . S
C164 N161 1.372 . S
C164 N162 1.361 . S
C164 C172 1.457 . S
C165 N160 1.363 . S
C165 N162 1.377 . S
C165 C178 1.479 . S
C166 C163 1.480 . S
C166 C167 1.383 . S
C166 C171 1.385 . S
C167 H148 0.947 . S
C167 C166 1.383 . S
C167 C168 1.388 . S
C168 H149 0.946 . S
C168 C167 1.388 . S
C168 C169 1.384 . S
C169 C168 1.384 . S
C169 C170 1.377 . S
C170 H150 0.953 . S
C170 C169 1.377 . S
C170 C171 1.369 . S
C171 H151 0.945 . S
C171 C166 1.385 . S
C171 C170 1.369 . S
C172 C164 1.457 . S
C172 C173 1.372 . S
C172 C177 1.364 . S
C173 H152 0.952 . S
C173 C172 1.372 . S
C173 C174 1.389 . S
C174 H153 0.949 . S
C174 C173 1.389 . S
C174 C175 1.387 . S
C175 C174 1.387 . S
C175 C176 1.372 . S
C176 H154 0.950 . S
C176 C175 1.372 . S
C176 C177 1.379 . S
C177 H155 0.948 . S
C177 C172 1.364 . S
C177 C176 1.379 . S
C178 C147 1.383 . S
C178 C165 1.479 . S
C178 C179 1.398 . S
C179 C144 1.382 . S
C179 H156 0.951 . S
C179 C178 1.398 . S
C180 C181 1.384 . S
C180 H193 0.947 . S
C180 C215 1.382 . S
C181 C180 1.384 . S
C181 C182 1.378 . S
C182 C181 1.378 . S
C182 C183 1.378 . S
C182 H194 0.952 . S
C183 C182 1.378 . S
C183 H195 0.950 . S
C183 C214 1.383 . S
H184 C203 0.947 . S
H185 C204 0.946 . S
H186 C206 0.953 . S
H187 C207 0.945 . S
H188 C209 0.952 . S
H189 C210 0.949 . S
H190 C212 0.950 . S
H191 C213 0.948 . S
H192 C215 0.951 . S
H193 C180 0.947 . S
H194 C182 0.952 . S
H195 C183 0.950 . S
N196 C199 1.382 . S
N196 C201 1.363 . S
N197 C199 1.371 . S
N197 C200 1.372 . S
N198 C200 1.361 . S
N198 C201 1.377 . S
C199 N196 1.382 . S
C199 N197 1.371 . S
C199 C202 1.480 . S
C200 N197 1.372 . S
C200 N198 1.361 . S
C200 C208 1.457 . S
C201 N196 1.363 . S
C201 N198 1.377 . S
C201 C214 1.479 . S
C202 C199 1.480 . S
C202 C203 1.383 . S
C202 C207 1.385 . S
C203 H184 0.947 . S
C203 C202 1.383 . S
C203 C204 1.388 . S
C204 H185 0.946 . S
C204 C203 1.388 . S
C204 C205 1.384 . S
C205 C204 1.384 . S
C205 C206 1.377 . S
C206 H186 0.953 . S
C206 C205 1.377 . S
C206 C207 1.369 . S
C207 H187 0.945 . S
C207 C202 1.385 . S
C207 C206 1.369 . S
C208 C200 1.457 . S
C208 C209 1.372 . S
C208 C213 1.364 . S
C209 H188 0.952 . S
C209 C208 1.372 . S
C209 C210 1.389 . S
C210 H189 0.949 . S
C210 C209 1.389 . S
C210 C211 1.387 . S
C211 C210 1.387 . S
C211 C212 1.372 . S
C212 H190 0.950 . S
C212 C211 1.372 . S
C212 C213 1.379 . S
C213 H191 0.948 . S
C213 C208 1.364 . S
C213 C212 1.379 . S
C214 C183 1.383 . S
C214 C201 1.479 . S
C214 C215 1.398 . S
C215 C180 1.382 . S
C215 H192 0.951 . S
C215 C214 1.398 . S
C216 C217 1.384 . S
C216 H229 0.948 1_545 S
C216 C251 1.381 . S
C217 C216 1.384 . S
C217 C218 1.378 . S
C218 C217 1.378 . S
C218 C219 1.378 . S
C218 H230 0.952 . S
C219 C218 1.378 . S
C219 H231 0.950 . S
C219 C250 1.383 . S
H220 C239 0.947 . S
H221 C240 0.948 . S
H222 C242 0.953 . S
H223 C243 0.945 . S
H224 C245 0.949 1_565 S
H225 C246 0.952 . S
H226 C248 0.950 . S
H227 C249 0.948 . S
H228 C251 0.950 1_565 S
H229 C216 0.948 1_565 S
H230 C218 0.952 . S
H231 C219 0.950 . S
N232 C235 1.382 . S
N232 C237 1.363 . S
N233 C235 1.371 . S
N233 C236 1.372 . S
N234 C236 1.361 . S
N234 C237 1.377 . S
C235 N232 1.382 . S
C235 N233 1.371 . S
C235 C238 1.480 . S
C236 N233 1.372 . S
C236 N234 1.361 . S
C236 C244 1.457 . S
C237 N232 1.363 . S
C237 N234 1.377 . S
C237 C250 1.479 . S
C238 C235 1.480 . S
C238 C239 1.383 . S
C238 C243 1.385 . S
C239 H220 0.947 . S
C239 C238 1.383 . S
C239 C240 1.388 1_545 S
C240 H221 0.948 . S
C240 C239 1.388 1_565 S
C240 C241 1.382 1_565 S
C241 C240 1.382 1_545 S
C241 C242 1.377 . S
C242 H222 0.953 . S
C242 C241 1.377 . S
C242 C243 1.369 . S
C243 H223 0.945 . S
C243 C238 1.385 . S
C243 C242 1.369 . S
C244 C236 1.457 . S
C244 C245 1.377 . S
C244 C249 1.364 . S
C245 H224 0.949 1_545 S
C245 C244 1.377 . S
C245 C246 1.387 1_545 S
C246 H225 0.952 . S
C246 C245 1.387 1_565 S
C246 C247 1.385 1_565 S
C247 C246 1.385 1_545 S
C247 C248 1.372 . S
C248 H226 0.950 . S
C248 C247 1.372 . S
C248 C249 1.379 . S
C249 H227 0.948 . S
C249 C244 1.364 . S
C249 C248 1.379 . S
C250 C219 1.383 . S
C250 C237 1.479 . S
C250 C251 1.400 . S
C251 C216 1.381 . S
C251 H228 0.950 1_545 S
C251 C250 1.400 . S
C252 C253 1.384 . S
C252 H265 0.947 . S
C252 C287 1.382 . S
C253 C252 1.384 . S
C253 C254 1.378 . S
C254 C253 1.378 . S
C254 C255 1.378 . S
C254 H266 0.952 . S
C255 C254 1.378 . S
C255 H267 0.950 . S
C255 C286 1.383 . S
H256 C275 0.947 . S
H257 C276 0.946 . S
H258 C278 0.953 . S
H259 C279 0.945 . S
H260 C281 0.952 . S
H261 C282 0.949 . S
H262 C284 0.950 . S
H263 C285 0.948 . S
H264 C287 0.951 . S
H265 C252 0.947 . S
H266 C254 0.952 . S
H267 C255 0.950 . S
N268 C271 1.382 . S
N268 C273 1.363 . S
N269 C271 1.371 . S
N269 C272 1.372 . S
N270 C272 1.361 . S
N270 C273 1.377 . S
C271 N268 1.382 . S
C271 N269 1.371 . S
C271 C274 1.480 . S
C272 N269 1.372 . S
C272 N270 1.361 . S
C272 C280 1.457 . S
C273 N268 1.363 . S
C273 N270 1.377 . S
C273 C286 1.479 . S
C274 C271 1.480 . S
C274 C275 1.383 . S
C274 C279 1.385 . S
C275 H256 0.947 . S
C275 C274 1.383 . S
C275 C276 1.388 . S
C276 H257 0.946 . S
C276 C275 1.388 . S
C276 C277 1.384 . S
C277 C276 1.384 . S
C277 C278 1.377 . S
C278 H258 0.953 . S
C278 C277 1.377 . S
C278 C279 1.369 . S
C279 H259 0.945 . S
C279 C274 1.385 . S
C279 C278 1.369 . S
C280 C272 1.457 . S
C280 C281 1.372 . S
C280 C285 1.364 . S
C281 H260 0.952 . S
C281 C280 1.372 . S
C281 C282 1.389 . S
C282 H261 0.949 . S
C282 C281 1.389 . S
C282 C283 1.387 . S
C283 C282 1.387 . S
C283 C284 1.372 . S
C284 H262 0.950 . S
C284 C283 1.372 . S
C284 C285 1.379 . S
C285 H263 0.948 . S
C285 C280 1.364 . S
C285 C284 1.379 . S
C286 C255 1.383 . S
C286 C273 1.479 . S
C286 C287 1.398 . S
C287 C252 1.382 . S
C287 H264 0.951 . S
C287 C286 1.398 . S
C288 O304 1.251 . S
C288 O306 1.254 . S
N289 C290 1.333 . S
N289 C294 1.307 1_455 S
N289 Zn295 2.020 . S
C290 N289 1.333 . S
C290 C291 1.379 1_455 S
C290 H308 0.952 . S
C291 C290 1.379 1_655 S
C291 C292 1.390 . S
C291 H318 0.948 . S
C292 C291 1.390 . S
C292 C293 1.357 . S
C293 C292 1.357 . S
C293 C294 1.370 . S
C293 H319 0.950 . S
C294 N289 1.307 1_655 S
C294 C293 1.370 . S
C294 H312 0.948 . S
Zn295 N289 2.020 . S
Zn295 O304 2.039 . S
Zn295 O310 2.034 . S
Zn295 O314 2.025 1_565 S
Zn295 O316 2.024 1_455 S
C296 O315 1.246 . S
C296 O316 1.249 1_545 S
N297 C298 1.307 . S
N297 C299 1.333 . S
N297 Zn303 2.020 . S
C298 N297 1.307 . S
C298 C302 1.370 . S
C298 H309 0.948 . S
C299 N297 1.333 . S
C299 C300 1.379 . S
C299 H307 0.952 . S
C300 C299 1.379 . S
C300 C301 1.390 . S
C300 H320 0.949 . S
C301 C300 1.390 . S
C301 C302 1.357 . S
C302 C298 1.370 . S
C302 C301 1.357 . S
C302 H321 0.950 . S
Zn303 N297 2.020 . S
Zn303 O306 2.025 1_545 S
Zn303 O311 2.024 . S
Zn303 O313 2.039 . S
Zn303 O315 2.034 1_455 S
O304 C288 1.251 . S
O304 Zn295 2.039 . S
C305 O310 1.246 . S
C305 O311 1.249 1_565 S
O306 C288 1.254 . S
O306 Zn303 2.025 1_565 S
H307 C299 0.952 . S
H308 C290 0.952 . S
H309 C298 0.948 . S
O310 Zn295 2.034 . S
O310 C305 1.246 . S
O311 Zn303 2.024 . S
O311 C305 1.249 1_545 S
H312 C294 0.948 . S
O313 Zn303 2.039 . S
O313 C317 1.251 . S
O314 Zn295 2.025 1_545 S
O314 C317 1.254 . S
O315 C296 1.246 . S
O315 Zn303 2.034 1_655 S
O316 Zn295 2.024 1_655 S
O316 C296 1.249 1_565 S
C317 O313 1.251 . S
C317 O314 1.254 . S
H318 C291 0.948 . S
H319 C293 0.950 . S
H320 C300 0.949 . S
H321 C302 0.950 . S
C322 O338 1.251 1_565 S
C322 O340 1.254 . S
N323 C324 1.333 . S
N323 C328 1.307 . S
N323 Zn329 2.020 . S
C324 N323 1.333 . S
C324 C325 1.379 . S
C324 H342 0.952 . S
C325 C324 1.379 . S
C325 C326 1.390 . S
C325 H352 0.949 . S
C326 C325 1.390 . S
C326 C327 1.357 . S
C327 C326 1.357 . S
C327 C328 1.370 . S
C327 H353 0.950 . S
C328 N323 1.307 . S
C328 C327 1.370 . S
C328 H346 0.948 . S
Zn329 N323 2.020 . S
Zn329 O338 2.039 . S
Zn329 O344 2.034 . S
Zn329 O348 2.025 . S
Zn329 O350 2.024 . S
C330 O349 1.246 1_545 S
C330 O350 1.249 . S
N331 C332 1.307 . S
N331 C333 1.333 . S
N331 Zn337 2.020 . S
C332 N331 1.307 . S
C332 C336 1.370 . S
C332 H343 0.948 . S
C333 N331 1.333 . S
C333 C334 1.379 . S
C333 H341 0.952 . S
C334 C333 1.379 . S
C334 C335 1.390 . S
C334 H354 0.949 . S
C335 C334 1.390 . S
C335 C336 1.357 . S
C336 C332 1.370 . S
C336 C335 1.357 . S
C336 H355 0.950 . S
Zn337 N331 2.020 . S
Zn337 O340 2.025 . S
Zn337 O345 2.024 . S
Zn337 O347 2.039 . S
Zn337 O349 2.034 . S
O338 C322 1.251 1_545 S
O338 Zn329 2.039 . S
C339 O344 1.246 1_565 S
C339 O345 1.249 . S
O340 C322 1.254 . S
O340 Zn337 2.025 . S
H341 C333 0.952 . S
H342 C324 0.952 . S
H343 C332 0.948 . S
O344 Zn329 2.034 . S
O344 C339 1.246 1_545 S
O345 Zn337 2.024 . S
O345 C339 1.249 . S
H346 C328 0.948 . S
O347 Zn337 2.039 . S
O347 C351 1.251 1_565 S
O348 Zn329 2.025 . S
O348 C351 1.254 . S
O349 C330 1.246 1_565 S
O349 Zn337 2.034 . S
O350 Zn329 2.024 . S
O350 C330 1.249 . S
C351 O347 1.251 1_545 S
C351 O348 1.254 . S
H352 C325 0.949 . S
H353 C327 0.950 . S
H354 C334 0.949 . S
H355 C336 0.950 . S
C356 O372 1.251 . S
C356 O374 1.254 . S
N357 C358 1.333 . S
N357 C362 1.307 . S
N357 Zn363 2.020 . S
C358 N357 1.333 . S
C358 C359 1.379 . S
C358 H376 0.952 . S
C359 C358 1.379 . S
C359 C360 1.390 . S
C359 H386 0.949 . S
C360 C359 1.390 . S
C360 C361 1.357 . S
C361 C360 1.357 . S
C361 C362 1.370 . S
C361 H387 0.950 . S
C362 N357 1.307 . S
C362 C361 1.370 . S
C362 H380 0.948 . S
Zn363 N357 2.020 . S
Zn363 O372 2.039 . S
Zn363 O378 2.034 . S
Zn363 O382 2.025 . S
Zn363 O384 2.024 . S
C364 O383 1.246 . S
C364 O384 1.249 . S
N365 C366 1.307 . S
N365 C367 1.333 . S
N365 Zn371 2.020 . S
C366 N365 1.307 . S
C366 C370 1.370 . S
C366 H377 0.948 . S
C367 N365 1.333 . S
C367 C368 1.379 . S
C367 H375 0.952 . S
C368 C367 1.379 . S
C368 C369 1.390 . S
C368 H388 0.949 . S
C369 C368 1.390 . S
C369 C370 1.357 . S
C370 C366 1.370 . S
C370 C369 1.357 . S
C370 H389 0.950 . S
Zn371 N365 2.020 . S
Zn371 O374 2.025 . S
Zn371 O379 2.024 . S
Zn371 O381 2.039 . S
Zn371 O383 2.034 . S
O372 C356 1.251 . S
O372 Zn363 2.039 . S
C373 O378 1.246 . S
C373 O379 1.249 . S
O374 C356 1.254 . S
O374 Zn371 2.025 . S
H375 C367 0.952 . S
H376 C358 0.952 . S
H377 C366 0.948 . S
O378 Zn363 2.034 . S
O378 C373 1.246 . S
O379 Zn371 2.024 . S
O379 C373 1.249 . S
H380 C362 0.948 . S
O381 Zn371 2.039 . S
O381 C385 1.251 . S
O382 Zn363 2.025 . S
O382 C385 1.254 . S
O383 C364 1.246 . S
O383 Zn371 2.034 . S
O384 Zn363 2.024 . S
O384 C364 1.249 . S
C385 O381 1.251 . S
C385 O382 1.254 . S
H386 C359 0.949 . S
H387 C361 0.950 . S
H388 C368 0.949 . S
H389 C370 0.950 . S
C390 O406 1.251 . S
C390 O408 1.254 . S
N391 C392 1.333 . S
N391 C396 1.307 . S
N391 Zn397 2.020 . S
C392 N391 1.333 . S
C392 C393 1.379 . S
C392 H410 0.952 . S
C393 C392 1.379 . S
C393 C394 1.390 . S
C393 H420 0.949 . S
C394 C393 1.390 . S
C394 C395 1.357 . S
C395 C394 1.357 . S
C395 C396 1.370 . S
C395 H421 0.950 . S
C396 N391 1.307 . S
C396 C395 1.370 . S
C396 H414 0.948 . S
Zn397 N391 2.020 . S
Zn397 O406 2.039 . S
Zn397 O412 2.034 . S
Zn397 O416 2.053 . S
Zn397 O418 2.024 . S
C398 O417 1.246 . S
C398 O418 1.249 . S
N399 C400 1.307 . S
N399 C401 1.333 1_455 S
N399 Zn405 2.020 . S
C400 N399 1.307 . S
C400 C404 1.370 . S
C400 H411 0.948 . S
C401 N399 1.333 1_655 S
C401 C402 1.379 . S
C401 H409 0.952 . S
C402 C401 1.379 . S
C402 C403 1.390 . S
C402 H422 0.949 . S
C403 C402 1.390 . S
C403 C404 1.357 1_655 S
C404 C400 1.370 . S
C404 C403 1.357 1_455 S
C404 H423 0.950 . S
Zn405 N399 2.020 . S
Zn405 O408 2.025 . S
Zn405 O413 2.024 1_455 S
Zn405 O415 2.039 1_455 S
Zn405 O417 2.034 . S
O406 C390 1.251 . S
O406 Zn397 2.039 . S
C407 O412 1.246 1_655 S
C407 O413 1.249 . S
O408 C390 1.254 . S
O408 Zn405 2.025 . S
H409 C401 0.952 . S
H410 C392 0.952 . S
H411 C400 0.948 . S
O412 Zn397 2.034 . S
O412 C407 1.246 1_455 S
O413 Zn405 2.024 1_655 S
O413 C407 1.249 . S
H414 C396 0.948 . S
O415 Zn405 2.039 1_655 S
O415 C419 1.251 . S
O416 Zn397 2.053 . S
O416 C419 1.232 1_455 S
O417 C398 1.246 . S
O417 Zn405 2.034 . S
O418 Zn397 2.024 . S
O418 C398 1.249 . S
C419 O415 1.251 . S
C419 O416 1.232 1_655 S
H420 C393 0.949 . S
H421 C395 0.950 . S
H422 C402 0.949 . S
H423 C404 0.950 . S
C424 C425 1.368 . S
C424 C426 1.327 . S
C424 H449 0.950 . S
C425 C424 1.368 . S
C425 C441 1.330 1_565 S
C426 C424 1.327 . S
C426 C445 1.429 . S
C426 H450 0.950 . S
C427 C444 1.574 . S
C427 C446 1.368 1_545 S
C427 H451 0.949 . S
H428 C432 0.949 . S
C429 C430 1.349 1_545 S
C429 C431 1.327 . S
C429 H452 0.950 . S
C430 C429 1.349 1_565 S
C430 C442 1.349 . S
C431 C429 1.327 . S
C431 C447 1.429 1_545 S
C431 H453 0.950 . S
C432 H428 0.949 . S
C432 C440 1.574 . S
C432 C448 1.368 . S
H433 C441 0.950 . S
H434 C439 0.950 . S
H435 C440 0.949 . S
H436 C442 0.950 . S
H437 C443 0.950 . S
H438 C444 0.949 . S
C439 H434 0.950 . S
C439 C441 1.327 . S
C439 C445 1.429 1_545 S
C440 C432 1.574 . S
C440 H435 0.949 . S
C440 C446 1.368 . S
C441 C425 1.330 1_545 S
C441 H433 0.950 . S
C441 C439 1.327 . S
C442 C430 1.349 . S
C442 H436 0.950 . S
C442 C443 1.327 . S
C443 H437 0.950 . S
C443 C442 1.327 . S
C443 C447 1.429 . S
C444 C427 1.574 . S
C444 H438 0.949 . S
C444 C448 1.368 1_545 S
C445 C426 1.429 . S
C445 C439 1.429 1_565 S
C445 C446 1.523 . S
C446 C427 1.368 1_565 S
C446 C440 1.368 . S
C446 C445 1.523 . S
C447 C431 1.429 1_565 S
C447 C443 1.429 . S
C447 C448 1.523 . S
C448 C432 1.368 . S
C448 C444 1.368 1_565 S
C448 C447 1.523 . S
H449 C424 0.950 . S
H450 C426 0.950 . S
H451 C427 0.949 . S
H452 C429 0.950 . S
H453 C431 0.950 . S
C454 C455 1.349 . S
C454 C456 1.327 . S
C454 H479 0.950 . S
C455 C454 1.349 . S
C455 C471 1.349 . S
C456 C454 1.327 . S
C456 C475 1.429 . S
C456 H480 0.950 . S
C457 C474 1.574 . S
C457 C476 1.368 . S
C457 H481 0.949 . S
H458 C462 0.949 . S
C459 C460 1.349 . S
C459 C461 1.327 . S
C459 H482 0.950 . S
C460 C459 1.349 . S
C460 C472 1.349 . S
C461 C459 1.327 . S
C461 C477 1.429 . S
C461 H483 0.950 . S
C462 H458 0.949 . S
C462 C470 1.574 . S
C462 C478 1.368 . S
H463 C471 0.950 . S
H464 C469 0.950 . S
H465 C470 0.949 . S
H466 C472 0.950 . S
H467 C473 0.950 . S
H468 C474 0.949 . S
C469 H464 0.950 . S
C469 C471 1.327 . S
C469 C475 1.429 . S
C470 C462 1.574 . S
C470 H465 0.949 . S
C470 C476 1.368 . S
C471 C455 1.349 . S
C471 H463 0.950 . S
C471 C469 1.327 . S
C472 C460 1.349 . S
C472 H466 0.950 . S
C472 C473 1.327 . S
C473 H467 0.950 . S
C473 C472 1.327 . S
C473 C477 1.429 . S
C474 C457 1.574 . S
C474 H468 0.949 . S
C474 C478 1.368 . S
C475 C456 1.429 . S
C475 C469 1.429 . S
C475 C476 1.523 . S
C476 C457 1.368 . S
C476 C470 1.368 . S
C476 C475 1.523 . S
C477 C461 1.429 . S
C477 C473 1.429 . S
C477 C478 1.523 . S
C478 C462 1.368 . S
C478 C474 1.368 . S
C478 C477 1.523 . S
H479 C454 0.950 . S
H480 C456 0.950 . S
H481 C457 0.949 . S
H482 C459 0.950 . S
H483 C461 0.950 . S
C484 C485 1.349 . S
C484 C486 1.327 . S
C484 H509 0.950 . S
C485 C484 1.349 . S
C485 C501 1.349 . S
C486 C484 1.327 . S
C486 C505 1.429 . S
C486 H510 0.950 . S
C487 C504 1.574 . S
C487 C506 1.368 . S
C487 H511 0.949 . S
H488 C492 0.949 . S
C489 C490 1.349 . S
C489 C491 1.327 . S
C489 H512 0.950 . S
C490 C489 1.349 . S
C490 C502 1.349 . S
C491 C489 1.327 . S
C491 C507 1.429 . S
C491 H513 0.950 . S
C492 H488 0.949 . S
C492 C500 1.574 . S
C492 C508 1.368 . S
H493 C501 0.950 . S
H494 C499 0.950 . S
H495 C500 0.949 . S
H496 C502 0.950 . S
H497 C503 0.950 . S
H498 C504 0.949 . S
C499 H494 0.950 . S
C499 C501 1.327 . S
C499 C505 1.429 . S
C500 C492 1.574 . S
C500 H495 0.949 . S
C500 C506 1.368 . S
C501 C485 1.349 . S
C501 H493 0.950 . S
C501 C499 1.327 . S
C502 C490 1.349 . S
C502 H496 0.950 . S
C502 C503 1.327 . S
C503 H497 0.950 . S
C503 C502 1.327 . S
C503 C507 1.429 . S
C504 C487 1.574 . S
C504 H498 0.949 . S
C504 C508 1.368 . S
C505 C486 1.429 . S
C505 C499 1.429 . S
C505 C506 1.523 . S
C506 C487 1.368 . S
C506 C500 1.368 . S
C506 C505 1.523 . S
C507 C491 1.429 . S
C507 C503 1.429 . S
C507 C508 1.523 . S
C508 C492 1.368 . S
C508 C504 1.368 . S
C508 C507 1.523 . S
H509 C484 0.950 . S
H510 C486 0.950 . S
H511 C487 0.949 . S
H512 C489 0.950 . S
H513 C491 0.950 . S
C514 C515 1.349 . S
C514 C516 1.327 . S
C514 H539 0.950 . S
C515 C514 1.349 . S
C515 C531 1.349 . S
C516 C514 1.327 . S
C516 C535 1.429 . S
C516 H540 0.950 . S
C517 C534 1.574 . S
C517 C536 1.368 . S
C517 H541 0.949 . S
H518 C522 0.949 . S
C519 C520 1.349 . S
C519 C521 1.327 . S
C519 H542 0.950 . S
C520 C519 1.349 . S
C520 C532 1.349 . S
C521 C519 1.327 . S
C521 C537 1.429 . S
C521 H543 0.950 . S
C522 H518 0.949 . S
C522 C530 1.574 . S
C522 C538 1.368 . S
H523 C531 0.950 . S
H524 C529 0.950 . S
H525 C530 0.949 . S
H526 C532 0.950 . S
H527 C533 0.950 . S
H528 C534 0.949 . S
C529 H524 0.950 . S
C529 C531 1.327 . S
C529 C535 1.429 . S
C530 C522 1.574 . S
C530 H525 0.949 . S
C530 C536 1.368 . S
C531 C515 1.349 . S
C531 H523 0.950 . S
C531 C529 1.327 . S
C532 C520 1.349 . S
C532 H526 0.950 . S
C532 C533 1.327 . S
C533 H527 0.950 . S
C533 C532 1.327 . S
C533 C537 1.429 . S
C534 C517 1.574 . S
C534 H528 0.949 . S
C534 C538 1.368 . S
C535 C516 1.429 . S
C535 C529 1.429 . S
C535 C536 1.523 . S
C536 C517 1.368 . S
C536 C530 1.368 . S
C536 C535 1.523 . S
C537 C521 1.429 . S
C537 C533 1.429 . S
C537 C538 1.523 . S
C538 C522 1.368 . S
C538 C534 1.368 . S
C538 C537 1.523 . S
H539 C514 0.950 . S
H540 C516 0.950 . S
H541 C517 0.949 . S
H542 C519 0.950 . S
H543 C521 0.950 . S
C544 C545 1.320 1_565 S
C544 C546 1.327 . S
C544 H569 0.950 . S
C545 C544 1.320 1_545 S
C545 C561 1.378 . S
C546 C544 1.327 . S
C546 C565 1.429 1_565 S
C546 H570 0.950 . S
C547 C564 1.574 . S
C547 C566 1.368 . S
C547 H571 0.949 . S
H548 C552 0.949 . S
C549 C550 1.349 . S
C549 C551 1.327 . S
C549 H572 0.950 . S
C550 C549 1.349 . S
C550 C562 1.349 1_545 S
C551 C549 1.327 . S
C551 C567 1.429 . S
C551 H573 0.950 . S
C552 H548 0.949 . S
C552 C560 1.574 . S
C552 C568 1.368 1_565 S
H553 C561 0.950 1_554 S
H554 C559 0.950 . S
H555 C560 0.949 . S
H556 C562 0.950 . S
H557 C563 0.950 . S
H558 C564 0.949 . S
C559 H554 0.950 . S
C559 C561 1.327 . S
C559 C565 1.429 . S
C560 C552 1.574 . S
C560 H555 0.949 . S
C560 C566 1.368 1_565 S
C561 C545 1.378 . S
C561 H553 0.950 1_556 S
C561 C559 1.327 . S
C562 C550 1.349 1_565 S
C562 H556 0.950 . S
C562 C563 1.327 . S
C563 H557 0.950 . S
C563 C562 1.327 . S
C563 C567 1.429 1_565 S
C564 C547 1.574 . S
C564 H558 0.949 . S
C564 C568 1.368 . S
C565 C546 1.429 1_545 S
C565 C559 1.429 . S
C565 C566 1.523 . S
C566 C547 1.368 . S
C566 C560 1.368 1_545 S
C566 C565 1.523 . S
C567 C551 1.429 . S
C567 C563 1.429 1_545 S
C567 C568 1.523 . S
C568 C552 1.368 1_545 S
C568 C564 1.368 . S
C568 C567 1.523 . S
H569 C544 0.950 . S
H570 C546 0.950 . S
H571 C547 0.949 . S
H572 C549 0.950 . S
H573 C551 0.950 . S
C574 C575 1.349 1_556 S
C574 C576 1.327 . S
C574 H599 0.950 . S
C575 C574 1.349 1_554 S
C575 C591 1.349 . S
C576 C574 1.327 . S
C576 C595 1.429 . S
C576 H600 0.950 . S
C577 C594 1.574 . S
C577 C596 1.368 . S
C577 H601 0.949 . S
H578 C582 0.949 . S
C579 C580 1.349 . S
C579 C581 1.327 . S
C579 H602 0.950 . S
C580 C579 1.349 . S
C580 C592 1.349 . S
C581 C579 1.327 . S
C581 C597 1.429 . S
C581 H603 0.950 . S
C582 H578 0.949 . S
C582 C590 1.574 . S
C582 C598 1.368 . S
H583 C591 0.950 . S
H584 C589 0.950 1_554 S
H585 C590 0.949 . S
H586 C592 0.950 . S
H587 C593 0.950 . S
H588 C594 0.949 . S
C589 H584 0.950 1_556 S
C589 C591 1.327 1_556 S
C589 C595 1.429 . S
C590 C582 1.574 . S
C590 H585 0.949 . S
C590 C596 1.368 . S
C591 C575 1.349 . S
C591 H583 0.950 . S
C591 C589 1.327 1_554 S
C592 C580 1.349 . S
C592 H586 0.950 . S
C592 C593 1.327 . S
C593 H587 0.950 . S
C593 C592 1.327 . S
C593 C597 1.429 . S
C594 C577 1.574 . S
C594 H588 0.949 . S
C594 C598 1.368 . S
C595 C576 1.429 . S
C595 C589 1.429 . S
C595 C596 1.523 . S
C596 C577 1.368 . S
C596 C590 1.368 . S
C596 C595 1.523 . S
C597 C581 1.429 . S
C597 C593 1.429 . S
C597 C598 1.523 . S
C598 C582 1.368 . S
C598 C594 1.368 . S
C598 C597 1.523 . S
H599 C574 0.950 . S
H600 C576 0.950 . S
H601 C577 0.949 . S
H602 C579 0.950 . S
H603 C581 0.950 . S
C604 C605 1.349 . S
C604 C606 1.327 1_554 S
C604 H629 0.950 . S
C605 C604 1.349 . S
C605 C621 1.349 . S
C606 C604 1.327 1_556 S
C606 C625 1.429 . S
C606 H630 0.950 . S
C607 C624 1.574 . S
C607 C626 1.368 . S
C607 H631 0.949 . S
H608 C612 0.949 . S
C609 C610 1.349 . S
C609 C611 1.327 . S
C609 H632 0.950 . S
C610 C609 1.349 . S
C610 C622 1.349 . S
C611 C609 1.327 . S
C611 C627 1.429 . S
C611 H633 0.950 . S
C612 H608 0.949 . S
C612 C620 1.574 . S
C612 C628 1.368 . S
H613 C621 0.950 . S
H614 C619 0.950 . S
H615 C620 0.949 . S
H616 C622 0.950 . S
H617 C623 0.950 . S
H618 C624 0.949 . S
C619 H614 0.950 . S
C619 C621 1.327 . S
C619 C625 1.429 1_554 S
C620 C612 1.574 . S
C620 H615 0.949 . S
C620 C626 1.368 . S
C621 C605 1.349 . S
C621 H613 0.950 . S
C621 C619 1.327 . S
C622 C610 1.349 . S
C622 H616 0.950 . S
C622 C623 1.327 . S
C623 H617 0.950 . S
C623 C622 1.327 . S
C623 C627 1.429 . S
C624 C607 1.574 . S
C624 H618 0.949 . S
C624 C628 1.368 . S
C625 C606 1.429 . S
C625 C619 1.429 1_556 S
C625 C626 1.523 . S
C626 C607 1.368 . S
C626 C620 1.368 . S
C626 C625 1.523 . S
C627 C611 1.429 . S
C627 C623 1.429 . S
C627 C628 1.523 . S
C628 C612 1.368 . S
C628 C624 1.368 . S
C628 C627 1.523 . S
H629 C604 0.950 . S
H630 C606 0.950 . S
H631 C607 0.949 . S
H632 C609 0.950 . S
H633 C611 0.950 . S
C634 C635 1.349 . S
C634 C636 1.327 . S
C634 H659 0.950 . S
C635 C634 1.349 . S
C635 C651 1.349 . S
C636 C634 1.327 . S
C636 C655 1.429 . S
C636 H660 0.950 . S
C637 C654 1.574 . S
C637 C656 1.368 . S
C637 H661 0.949 . S
H638 C642 0.949 . S
C639 C640 1.349 . S
C639 C641 1.327 . S
C639 H662 0.950 . S
C640 C639 1.349 . S
C640 C652 1.349 . S
C641 C639 1.327 . S
C641 C657 1.429 . S
C641 H663 0.950 . S
C642 H638 0.949 . S
C642 C650 1.574 . S
C642 C658 1.368 . S
H643 C651 0.950 . S
H644 C649 0.950 . S
H645 C650 0.949 . S
H646 C652 0.950 1_455 S
H647 C653 0.950 . S
H648 C654 0.949 . S
C649 H644 0.950 . S
C649 C651 1.327 . S
C649 C655 1.429 . S
C650 C642 1.574 . S
C650 H645 0.949 . S
C650 C656 1.368 . S
C651 C635 1.349 . S
C651 H643 0.950 . S
C651 C649 1.327 . S
C652 C640 1.349 . S
C652 H646 0.950 1_655 S
C652 C653 1.327 . S
C653 H647 0.950 . S
C653 C652 1.327 . S
C653 C657 1.429 . S
C654 C637 1.574 . S
C654 H648 0.949 . S
C654 C658 1.368 . S
C655 C636 1.429 . S
C655 C649 1.429 . S
C655 C656 1.523 . S
C656 C637 1.368 . S
C656 C650 1.368 . S
C656 C655 1.523 . S
C657 C641 1.429 . S
C657 C653 1.429 . S
C657 C658 1.523 . S
C658 C642 1.368 . S
C658 C654 1.368 . S
C658 C657 1.523 . S
H659 C634 0.950 . S
H660 C636 0.950 . S
H661 C637 0.949 . S
H662 C639 0.950 . S
H663 C641 0.950 . S
C664 C665 1.349 . S
C664 C666 1.327 . S
C664 H689 0.950 . S
C665 C664 1.349 . S
C665 C681 1.349 . S
C666 C664 1.327 . S
C666 C685 1.429 . S
C666 H690 0.950 . S
C667 C684 1.574 . S
C667 C686 1.368 . S
C667 H691 0.949 . S
H668 C672 0.949 . S
C669 C670 1.349 . S
C669 C671 1.327 . S
C669 H692 0.950 . S
C670 C669 1.349 . S
C670 C682 1.349 . S
C671 C669 1.327 . S
C671 C687 1.429 . S
C671 H693 0.950 . S
C672 H668 0.949 . S
C672 C680 1.574 . S
C672 C688 1.368 . S
H673 C681 0.950 . S
H674 C679 0.950 . S
H675 C680 0.949 . S
H676 C682 0.950 . S
H677 C683 0.950 . S
H678 C684 0.949 . S
C679 H674 0.950 . S
C679 C681 1.327 . S
C679 C685 1.429 . S
C680 C672 1.574 . S
C680 H675 0.949 . S
C680 C686 1.368 . S
C681 C665 1.349 . S
C681 H673 0.950 . S
C681 C679 1.327 . S
C682 C670 1.349 . S
C682 H676 0.950 . S
C682 C683 1.327 . S
C683 H677 0.950 . S
C683 C682 1.327 . S
C683 C687 1.429 . S
C684 C667 1.574 . S
C684 H678 0.949 . S
C684 C688 1.368 . S
C685 C666 1.429 . S
C685 C679 1.429 . S
C685 C686 1.523 . S
C686 C667 1.368 . S
C686 C680 1.368 . S
C686 C685 1.523 . S
C687 C671 1.429 . S
C687 C683 1.429 . S
C687 C688 1.523 . S
C688 C672 1.368 . S
C688 C684 1.368 . S
C688 C687 1.523 . S
H689 C664 0.950 . S
H690 C666 0.950 . S
H691 C667 0.949 . S
H692 C669 0.950 . S
H693 C671 0.950 . S
C694 C695 1.386 . S
C694 C696 1.327 . S
C694 H719 0.950 . S
C695 C694 1.386 . S
C695 C711 1.309 1_545 S
C696 C694 1.327 . S
C696 C715 1.429 1_545 S
C696 H720 0.950 . S
C697 C714 1.574 . S
C697 C716 1.368 . S
C697 H721 0.949 . S
H698 C702 0.949 . S
C699 C700 1.349 . S
C699 C701 1.327 . S
C699 H722 0.950 . S
C700 C699 1.349 . S
C700 C712 1.349 1_565 S
C701 C699 1.327 . S
C701 C717 1.429 . S
C701 H723 0.950 . S
C702 H698 0.949 . S
C702 C710 1.574 . S
C702 C718 1.368 1_545 S
H703 C711 0.950 . S
H704 C709 0.950 . S
H705 C710 0.949 . S
H706 C712 0.950 . S
H707 C713 0.950 . S
H708 C714 0.949 . S
C709 H704 0.950 . S
C709 C711 1.327 . S
C709 C715 1.429 . S
C710 C702 1.574 . S
C710 H705 0.949 . S
C710 C716 1.368 1_545 S
C711 C695 1.309 1_565 S
C711 H703 0.950 . S
C711 C709 1.327 . S
C712 C700 1.349 1_545 S
C712 H706 0.950 . S
C712 C713 1.327 . S
C713 H707 0.950 . S
C713 C712 1.327 . S
C713 C717 1.429 1_545 S
C714 C697 1.574 . S
C714 H708 0.949 . S
C714 C718 1.368 . S
C715 C696 1.429 1_565 S
C715 C709 1.429 . S
C715 C716 1.523 . S
C716 C697 1.368 . S
C716 C710 1.368 1_565 S
C716 C715 1.523 . S
C717 C701 1.429 . S
C717 C713 1.429 1_565 S
C717 C718 1.523 . S
C718 C702 1.368 1_565 S
C718 C714 1.368 . S
C718 C717 1.523 . S
H719 C694 0.950 . S
H720 C696 0.950 . S
H721 C697 0.949 . S
H722 C699 0.950 . S
H723 C701 0.950 . S
C724 C725 1.349 . S
C724 C726 1.327 . S
C724 H749 0.950 . S
C725 C724 1.349 . S
C725 C741 1.349 . S
C726 C724 1.327 . S
C726 C745 1.429 . S
C726 H750 0.950 . S
C727 C744 1.574 . S
C727 C746 1.368 . S
C727 H751 0.949 . S
H728 C732 0.949 . S
C729 C730 1.349 . S
C729 C731 1.327 . S
C729 H752 0.950 . S
C730 C729 1.349 . S
C730 C742 1.349 . S
C731 C729 1.327 . S
C731 C747 1.429 . S
C731 H753 0.950 . S
C732 H728 0.949 . S
C732 C740 1.574 . S
C732 C748 1.368 . S
H733 C741 0.950 . S
H734 C739 0.950 . S
H735 C740 0.949 . S
H736 C742 0.950 . S
H737 C743 0.950 . S
H738 C744 0.949 . S
C739 H734 0.950 . S
C739 C741 1.327 . S
C739 C745 1.429 . S
C740 C732 1.574 . S
C740 H735 0.949 . S
C740 C746 1.368 . S
C741 C725 1.349 . S
C741 H733 0.950 . S
C741 C739 1.327 . S
C742 C730 1.349 . S
C742 H736 0.950 . S
C742 C743 1.327 . S
C743 H737 0.950 . S
C743 C742 1.327 . S
C743 C747 1.429 . S
C744 C727 1.574 . S
C744 H738 0.949 . S
C744 C748 1.368 . S
C745 C726 1.429 . S
C745 C739 1.429 . S
C745 C746 1.523 . S
C746 C727 1.368 . S
C746 C740 1.368 . S
C746 C745 1.523 . S
C747 C731 1.429 . S
C747 C743 1.429 . S
C747 C748 1.523 . S
C748 C732 1.368 . S
C748 C744 1.368 . S
C748 C747 1.523 . S
H749 C724 0.950 . S
H750 C726 0.950 . S
H751 C727 0.949 . S
H752 C729 0.950 . S
H753 C731 0.950 . S
C754 C755 1.349 . S
C754 C756 1.327 . S
C754 H779 0.950 . S
C755 C754 1.349 . S
C755 C771 1.349 . S
C756 C754 1.327 . S
C756 C775 1.429 . S
C756 H780 0.950 . S
C757 C774 1.574 . S
C757 C776 1.368 . S
C757 H781 0.949 . S
H758 C762 0.949 . S
C759 C760 1.349 . S
C759 C761 1.327 . S
C759 H782 0.950 . S
C760 C759 1.349 . S
C760 C772 1.349 . S
C761 C759 1.327 . S
C761 C777 1.429 . S
C761 H783 0.950 . S
C762 H758 0.949 . S
C762 C770 1.574 . S
C762 C778 1.368 . S
H763 C771 0.950 . S
H764 C769 0.950 . S
H765 C770 0.949 . S
H766 C772 0.950 . S
H767 C773 0.950 . S
H768 C774 0.949 . S
C769 H764 0.950 . S
C769 C771 1.327 . S
C769 C775 1.429 . S
C770 C762 1.574 . S
C770 H765 0.949 . S
C770 C776 1.368 . S
C771 C755 1.349 . S
C771 H763 0.950 . S
C771 C769 1.327 . S
C772 C760 1.349 . S
C772 H766 0.950 . S
C772 C773 1.327 . S
C773 H767 0.950 . S
C773 C772 1.327 . S
C773 C777 1.429 . S
C774 C757 1.574 . S
C774 H768 0.949 . S
C774 C778 1.368 . S
C775 C756 1.429 . S
C775 C769 1.429 . S
C775 C776 1.523 . S
C776 C757 1.368 . S
C776 C770 1.368 . S
C776 C775 1.523 . S
C777 C761 1.429 . S
C777 C773 1.429 . S
C777 C778 1.523 . S
C778 C762 1.368 . S
C778 C774 1.368 . S
C778 C777 1.523 . S
H779 C754 0.950 . S
H780 C756 0.950 . S
H781 C757 0.949 . S
H782 C759 0.950 . S
H783 C761 0.950 . S
C784 C785 1.349 . S
C784 C786 1.327 . S
C784 H809 0.950 . S
C785 C784 1.349 . S
C785 C801 1.349 . S
C786 C784 1.327 . S
C786 C805 1.429 . S
C786 H810 0.950 . S
C787 C804 1.574 . S
C787 C806 1.368 . S
C787 H811 0.949 . S
H788 C792 0.949 . S
C789 C790 1.349 . S
C789 C791 1.327 . S
C789 H812 0.950 . S
C790 C789 1.349 . S
C790 C802 1.349 . S
C791 C789 1.327 . S
C791 C807 1.429 1_455 S
C791 H813 0.950 . S
C792 H788 0.949 . S
C792 C800 1.574 . S
C792 C808 1.368 . S
H793 C801 0.950 . S
H794 C799 0.950 . S
H795 C800 0.949 . S
H796 C802 0.950 . S
H797 C803 0.950 . S
H798 C804 0.949 . S
C799 H794 0.950 . S
C799 C801 1.327 . S
C799 C805 1.429 . S
C800 C792 1.574 . S
C800 H795 0.949 . S
C800 C806 1.368 . S
C801 C785 1.349 . S
C801 H793 0.950 . S
C801 C799 1.327 . S
C802 C790 1.349 . S
C802 H796 0.950 . S
C802 C803 1.327 1_455 S
C803 H797 0.950 . S
C803 C802 1.327 1_655 S
C803 C807 1.429 . S
C804 C787 1.574 . S
C804 H798 0.949 . S
C804 C808 1.368 . S
C805 C786 1.429 . S
C805 C799 1.429 . S
C805 C806 1.523 . S
C806 C787 1.368 . S
C806 C800 1.368 . S
C806 C805 1.523 . S
C807 C791 1.429 1_655 S
C807 C803 1.429 . S
C807 C808 1.523 . S
C808 C792 1.368 . S
C808 C804 1.368 . S
C808 C807 1.523 . S
H809 C784 0.950 . S
H810 C786 0.950 . S
H811 C787 0.949 . S
H812 C789 0.950 . S
H813 C791 0.950 . S
C814 C815 1.325 1_545 S
C814 C816 1.327 . S
C814 H839 0.950 . S
C815 C814 1.325 1_565 S
C815 C831 1.370 . S
C816 C814 1.327 . S
C816 C835 1.429 . S
C816 H840 0.950 . S
C817 C834 1.574 . S
C817 C836 1.368 1_565 S
C817 H841 0.949 . S
H818 C822 0.949 . S
C819 C820 1.349 1_565 S
C819 C821 1.327 . S
C819 H842 0.950 . S
C820 C819 1.349 1_545 S
C820 C832 1.349 . S
C821 C819 1.327 . S
C821 C837 1.429 1_565 S
C821 H843 0.950 . S
C822 H818 0.949 . S
C822 C830 1.574 . S
C822 C838 1.368 . S
H823 C831 0.950 . S
H824 C829 0.950 . S
H825 C830 0.949 . S
H826 C832 0.950 . S
H827 C833 0.950 . S
H828 C834 0.949 . S
C829 H824 0.950 . S
C829 C831 1.327 . S
C829 C835 1.429 1_565 S
C830 C822 1.574 . S
C830 H825 0.949 . S
C830 C836 1.368 . S
C831 C815 1.370 . S
C831 H823 0.950 . S
C831 C829 1.327 . S
C832 C820 1.349 . S
C832 H826 0.950 . S
C832 C833 1.327 . S
C833 H827 0.950 . S
C833 C832 1.327 . S
C833 C837 1.429 . S
C834 C817 1.574 . S
C834 H828 0.949 . S
C834 C838 1.368 1_565 S
C835 C816 1.429 . S
C835 C829 1.429 1_545 S
C835 C836 1.523 . S
C836 C817 1.368 1_545 S
C836 C830 1.368 . S
C836 C835 1.523 . S
C837 C821 1.429 1_545 S
C837 C833 1.429 . S
C837 C838 1.523 . S
C838 C822 1.368 . S
C838 C834 1.368 1_545 S
C838 C837 1.523 . S
H839 C814 0.950 . S
H840 C816 0.950 . S
H841 C817 0.949 . S
H842 C819 0.950 . S
H843 C821 0.950 . S
C844 C845 1.349 . S
C844 C846 1.327 . S
C844 H869 0.950 . S
C845 C844 1.349 . S
C845 C861 1.349 . S
C846 C844 1.327 . S
C846 C865 1.429 . S
C846 H870 0.950 . S
C847 C864 1.574 . S
C847 C866 1.368 . S
C847 H871 0.949 . S
H848 C852 0.949 . S
C849 C850 1.349 . S
C849 C851 1.327 . S
C849 H872 0.950 . S
C850 C849 1.349 . S
C850 C862 1.349 . S
C851 C849 1.327 . S
C851 C867 1.429 . S
C851 H873 0.950 . S
C852 H848 0.949 . S
C852 C860 1.574 . S
C852 C868 1.368 . S
H853 C861 0.950 . S
H854 C859 0.950 . S
H855 C860 0.949 . S
H856 C862 0.950 . S
H857 C863 0.950 . S
H858 C864 0.949 . S
C859 H854 0.950 . S
C859 C861 1.327 . S
C859 C865 1.429 . S
C860 C852 1.574 . S
C860 H855 0.949 . S
C860 C866 1.368 . S
C861 C845 1.349 . S
C861 H853 0.950 . S
C861 C859 1.327 . S
C862 C850 1.349 . S
C862 H856 0.950 . S
C862 C863 1.327 . S
C863 H857 0.950 . S
C863 C862 1.327 . S
C863 C867 1.429 . S
C864 C847 1.574 . S
C864 H858 0.949 . S
C864 C868 1.368 . S
C865 C846 1.429 . S
C865 C859 1.429 . S
C865 C866 1.523 . S
C866 C847 1.368 . S
C866 C860 1.368 . S
C866 C865 1.523 . S
C867 C851 1.429 . S
C867 C863 1.429 . S
C867 C868 1.523 . S
C868 C852 1.368 . S
C868 C864 1.368 . S
C868 C867 1.523 . S
H869 C844 0.950 . S
H870 C846 0.950 . S
H871 C847 0.949 . S
H872 C849 0.950 . S
H873 C851 0.950 . S
C874 C875 1.349 . S
C874 C876 1.327 . S
C874 H899 0.950 . S
C875 C874 1.349 . S
C875 C891 1.349 . S
C876 C874 1.327 . S
C876 C895 1.429 . S
C876 H900 0.950 . S
C877 C894 1.574 . S
C877 C896 1.368 . S
C877 H901 0.949 . S
H878 C882 0.949 . S
C879 C880 1.349 . S
C879 C881 1.327 . S
C879 H902 0.950 . S
C880 C879 1.349 . S
C880 C892 1.349 . S
C881 C879 1.327 . S
C881 C897 1.429 . S
C881 H903 0.950 . S
C882 H878 0.949 . S
C882 C890 1.574 . S
C882 C898 1.368 . S
H883 C891 0.950 1_554 S
H884 C889 0.950 . S
H885 C890 0.949 . S
H886 C892 0.950 . S
H887 C893 0.950 . S
H888 C894 0.949 . S
C889 H884 0.950 . S
C889 C891 1.327 . S
C889 C895 1.429 . S
C890 C882 1.574 . S
C890 H885 0.949 . S
C890 C896 1.368 . S
C891 C875 1.349 . S
C891 H883 0.950 1_556 S
C891 C889 1.327 . S
C892 C880 1.349 . S
C892 H886 0.950 . S
C892 C893 1.327 . S
C893 H887 0.950 . S
C893 C892 1.327 . S
C893 C897 1.429 . S
C894 C877 1.574 . S
C894 H888 0.949 . S
C894 C898 1.368 . S
C895 C876 1.429 . S
C895 C889 1.429 . S
C895 C896 1.523 . S
C896 C877 1.368 . S
C896 C890 1.368 . S
C896 C895 1.523 . S
C897 C881 1.429 . S
C897 C893 1.429 . S
C897 C898 1.523 . S
C898 C882 1.368 . S
C898 C894 1.368 . S
C898 C897 1.523 . S
H899 C874 0.950 . S
H900 C876 0.950 . S
H901 C877 0.949 . S
H902 C879 0.950 . S
H903 C881 0.950 . S
C904 C905 1.349 . S
C904 C906 1.327 . S
C904 H929 0.950 . S
C905 C904 1.349 . S
C905 C921 1.349 . S
C906 C904 1.327 . S
C906 C925 1.429 . S
C906 H930 0.950 . S
C907 C924 1.574 . S
C907 C926 1.368 . S
C907 H931 0.949 . S
H908 C912 0.949 . S
C909 C910 1.349 . S
C909 C911 1.327 . S
C909 H932 0.950 . S
C910 C909 1.349 . S
C910 C922 1.349 . S
C911 C909 1.327 . S
C911 C927 1.429 . S
C911 H933 0.950 . S
C912 H908 0.949 . S
C912 C920 1.574 1_556 S
C912 C928 1.368 . S
H913 C921 0.950 . S
H914 C919 0.950 . S
H915 C920 0.949 . S
H916 C922 0.950 . S
H917 C923 0.950 . S
H918 C924 0.949 . S
C919 H914 0.950 . S
C919 C921 1.327 . S
C919 C925 1.429 . S
C920 C912 1.574 1_554 S
C920 H915 0.949 . S
C920 C926 1.368 . S
C921 C905 1.349 . S
C921 H913 0.950 . S
C921 C919 1.327 . S
C922 C910 1.349 . S
C922 H916 0.950 . S
C922 C923 1.327 . S
C923 H917 0.950 . S
C923 C922 1.327 . S
C923 C927 1.429 . S
C924 C907 1.574 . S
C924 H918 0.949 . S
C924 C928 1.368 1_554 S
C925 C906 1.429 . S
C925 C919 1.429 . S
C925 C926 1.523 . S
C926 C907 1.368 . S
C926 C920 1.368 . S
C926 C925 1.523 . S
C927 C911 1.429 . S
C927 C923 1.429 . S
C927 C928 1.523 . S
C928 C912 1.368 . S
C928 C924 1.368 1_556 S
C928 C927 1.523 . S
H929 C904 0.950 . S
H930 C906 0.950 . S
H931 C907 0.949 . S
H932 C909 0.950 . S
H933 C911 0.950 . S
C934 C935 1.331 1_565 S
C934 C936 1.327 1_554 S
C934 H959 0.950 . S
C935 C934 1.331 1_545 S
C935 C951 1.366 . S
C936 C934 1.327 1_556 S
C936 C955 1.429 1_565 S
C936 H960 0.950 . S
C937 C954 1.574 . S
C937 C956 1.368 . S
C937 H961 0.949 . S
H938 C942 0.949 . S
C939 C940 1.349 . S
C939 C941 1.327 . S
C939 H962 0.950 . S
C940 C939 1.349 . S
C940 C952 1.349 1_545 S
C941 C939 1.327 . S
C941 C957 1.429 . S
C941 H963 0.950 . S
C942 H938 0.949 . S
C942 C950 1.574 . S
C942 C958 1.368 1_565 S
H943 C951 0.950 . S
H944 C949 0.950 . S
H945 C950 0.949 . S
H946 C952 0.950 . S
H947 C953 0.950 . S
H948 C954 0.949 . S
C949 H944 0.950 . S
C949 C951 1.327 . S
C949 C955 1.429 1_554 S
C950 C942 1.574 . S
C950 H945 0.949 . S
C950 C956 1.368 1_565 S
C951 C935 1.366 . S
C951 H943 0.950 . S
C951 C949 1.327 . S
C952 C940 1.349 1_565 S
C952 H946 0.950 . S
C952 C953 1.327 . S
C953 H947 0.950 . S
C953 C952 1.327 . S
C953 C957 1.429 1_565 S
C954 C937 1.574 . S
C954 H948 0.949 . S
C954 C958 1.368 . S
C955 C936 1.429 1_545 S
C955 C949 1.429 1_556 S
C955 C956 1.523 . S
C956 C937 1.368 . S
C956 C950 1.368 1_545 S
C956 C955 1.523 . S
C957 C941 1.429 . S
C957 C953 1.429 1_545 S
C957 C958 1.523 . S
C958 C942 1.368 1_545 S
C958 C954 1.368 . S
C958 C957 1.523 . S
H959 C934 0.950 . S
H960 C936 0.950 . S
H961 C937 0.949 . S
H962 C939 0.950 . S
H963 C941 0.950 . S
C964 C965 1.349 . S
C964 C966 1.327 . S
C964 H989 0.950 . S
C965 C964 1.349 . S
C965 C981 1.349 . S
C966 C964 1.327 . S
C966 C985 1.429 1_554 S
C966 H990 0.950 . S
C967 C984 1.574 . S
C967 C986 1.368 . S
C967 H991 0.949 . S
H968 C972 0.949 . S
C969 C970 1.349 . S
C969 C971 1.327 . S
C969 H992 0.950 . S
C970 C969 1.349 . S
C970 C982 1.349 . S
C971 C969 1.327 . S
C971 C987 1.429 . S
C971 H993 0.950 . S
C972 H968 0.949 . S
C972 C980 1.574 . S
C972 C988 1.368 . S
H973 C981 0.950 . S
H974 C979 0.950 . S
H975 C980 0.949 . S
H976 C982 0.950 . S
H977 C983 0.950 . S
H978 C984 0.949 . S
C979 H974 0.950 . S
C979 C981 1.327 1_556 S
C979 C985 1.429 . S
C980 C972 1.574 . S
C980 H975 0.949 . S
C980 C986 1.368 . S
C981 C965 1.349 . S
C981 H973 0.950 . S
C981 C979 1.327 1_554 S
C982 C970 1.349 . S
C982 H976 0.950 . S
C982 C983 1.327 . S
C983 H977 0.950 . S
C983 C982 1.327 . S
C983 C987 1.429 . S
C984 C967 1.574 . S
C984 H978 0.949 . S
C984 C988 1.368 . S
C985 C966 1.429 1_556 S
C985 C979 1.429 . S
C985 C986 1.523 . S
C986 C967 1.368 . S
C986 C980 1.368 . S
C986 C985 1.523 . S
C987 C971 1.429 . S
C987 C983 1.429 . S
C987 C988 1.523 . S
C988 C972 1.368 . S
C988 C984 1.368 . S
C988 C987 1.523 . S
H989 C964 0.950 . S
H990 C966 0.950 . S
H991 C967 0.949 . S
H992 C969 0.950 . S
H993 C971 0.950 . S
C994 C995 1.349 1_556 S
C994 C996 1.327 . S
C994 H1019 0.950 . S
C995 C994 1.349 1_554 S
C995 C1011 1.349 . S
C996 C994 1.327 . S
C996 C1015 1.429 . S
C996 H1020 0.950 . S
C997 C1014 1.574 . S
C997 C1016 1.368 . S
C997 H1021 0.949 . S
H998 C1002 0.949 . S
C999 C1000 1.349 . S
C999 C1001 1.327 . S
C999 H1022 0.950 . S
C1000 C999 1.349 . S
C1000 C1012 1.349 . S
C1001 C999 1.327 . S
C1001 C1017 1.429 . S
C1001 H1023 0.950 . S
C1002 H998 0.949 . S
C1002 C1010 1.574 . S
C1002 C1018 1.368 . S
H1003 C1011 0.950 . S
H1004 C1009 0.950 . S
H1005 C1010 0.949 . S
H1006 C1012 0.950 . S
H1007 C1013 0.950 . S
H1008 C1014 0.949 . S
C1009 H1004 0.950 . S
C1009 C1011 1.327 . S
C1009 C1015 1.429 1_554 S
C1010 C1002 1.574 . S
C1010 H1005 0.949 . S
C1010 C1016 1.368 . S
C1011 C995 1.349 . S
C1011 H1003 0.950 . S
C1011 C1009 1.327 . S
C1012 C1000 1.349 . S
C1012 H1006 0.950 . S
C1012 C1013 1.327 . S
C1013 H1007 0.950 . S
C1013 C1012 1.327 . S
C1013 C1017 1.429 . S
C1014 C997 1.574 . S
C1014 H1008 0.949 . S
C1014 C1018 1.368 . S
C1015 C996 1.429 . S
C1015 C1009 1.429 1_556 S
C1015 C1016 1.523 . S
C1016 C997 1.368 . S
C1016 C1010 1.368 . S
C1016 C1015 1.523 . S
C1017 C1001 1.429 . S
C1017 C1013 1.429 . S
C1017 C1018 1.523 . S
C1018 C1002 1.368 . S
C1018 C1014 1.368 . S
C1018 C1017 1.523 . S
H1019 C994 0.950 . S
H1020 C996 0.950 . S
H1021 C997 0.949 . S
H1022 C999 0.950 . S
H1023 C1001 0.950 . S
C1024 C1025 1.349 . S
C1024 C1026 1.327 . S
C1024 H1049 0.950 . S
C1025 C1024 1.349 . S
C1025 C1041 1.349 . S
C1026 C1024 1.327 . S
C1026 C1045 1.429 . S
C1026 H1050 0.950 . S
C1027 C1044 1.574 . S
C1027 C1046 1.368 . S
C1027 H1051 0.949 . S
H1028 C1032 0.949 . S
C1029 C1030 1.349 . S
C1029 C1031 1.327 . S
C1029 H1052 0.950 . S
C1030 C1029 1.349 . S
C1030 C1042 1.349 . S
C1031 C1029 1.327 . S
C1031 C1047 1.429 . S
C1031 H1053 0.950 . S
C1032 H1028 0.949 . S
C1032 C1040 1.574 . S
C1032 C1048 1.368 . S
H1033 C1041 0.950 . S
H1034 C1039 0.950 . S
H1035 C1040 0.949 . S
H1036 C1042 0.950 . S
H1037 C1043 0.950 . S
H1038 C1044 0.949 . S
C1039 H1034 0.950 . S
C1039 C1041 1.327 . S
C1039 C1045 1.429 . S
C1040 C1032 1.574 . S
C1040 H1035 0.949 . S
C1040 C1046 1.368 . S
C1041 C1025 1.349 . S
C1041 H1033 0.950 . S
C1041 C1039 1.327 . S
C1042 C1030 1.349 . S
C1042 H1036 0.950 . S
C1042 C1043 1.327 . S
C1043 H1037 0.950 . S
C1043 C1042 1.327 . S
C1043 C1047 1.429 . S
C1044 C1027 1.574 . S
C1044 H1038 0.949 . S
C1044 C1048 1.368 . S
C1045 C1026 1.429 . S
C1045 C1039 1.429 . S
C1045 C1046 1.523 . S
C1046 C1027 1.368 . S
C1046 C1040 1.368 . S
C1046 C1045 1.523 . S
C1047 C1031 1.429 . S
C1047 C1043 1.429 . S
C1047 C1048 1.523 . S
C1048 C1032 1.368 . S
C1048 C1044 1.368 . S
C1048 C1047 1.523 . S
H1049 C1024 0.950 . S
H1050 C1026 0.950 . S
H1051 C1027 0.949 . S
H1052 C1029 0.950 . S
H1053 C1031 0.950 . S
C1054 C1055 1.343 1_545 S
C1054 C1056 1.327 . S
C1054 H1079 0.950 . S
C1055 C1054 1.343 1_565 S
C1055 C1071 1.354 . S
C1056 C1054 1.327 . S
C1056 C1075 1.397 1_545 S
C1056 H1080 0.950 . S
C1057 C1074 1.574 . S
C1057 C1076 1.368 . S
C1057 H1081 0.949 . S
H1058 C1062 0.949 . S
C1059 C1060 1.349 . S
C1059 C1061 1.327 . S
C1059 H1082 0.950 . S
C1060 C1059 1.349 . S
C1060 C1072 1.349 1_565 S
C1061 C1059 1.327 . S
C1061 C1077 1.429 . S
C1061 H1083 0.950 . S
C1062 H1058 0.949 . S
C1062 C1070 1.574 . S
C1062 C1078 1.368 1_545 S
H1063 C1071 0.950 . S
H1064 C1069 0.950 . S
H1065 C1070 0.949 . S
H1066 C1072 0.950 . S
H1067 C1073 0.950 . S
H1068 C1074 0.949 . S
C1069 H1064 0.950 . S
C1069 C1071 1.327 . S
C1069 C1075 1.465 . S
C1070 C1062 1.574 . S
C1070 H1065 0.949 . S
C1070 C1076 1.368 1_545 S
C1071 C1055 1.354 . S
C1071 H1063 0.950 . S
C1071 C1069 1.327 . S
C1072 C1060 1.349 1_545 S
C1072 H1066 0.950 . S
C1072 C1073 1.327 . S
C1073 H1067 0.950 . S
C1073 C1072 1.327 . S
C1073 C1077 1.429 1_545 S
C1074 C1057 1.574 . S
C1074 H1068 0.949 . S
C1074 C1078 1.368 . S
C1075 C1056 1.397 1_565 S
C1075 C1069 1.465 . S
C1075 C1076 1.522 . S
C1076 C1057 1.368 . S
C1076 C1070 1.368 1_565 S
C1076 C1075 1.522 . S
C1077 C1061 1.429 . S
C1077 C1073 1.429 1_565 S
C1077 C1078 1.523 . S
C1078 C1062 1.368 1_565 S
C1078 C1074 1.368 . S
C1078 C1077 1.523 . S
H1079 C1054 0.950 . S
H1080 C1056 0.950 . S
H1081 C1057 0.949 . S
H1082 C1059 0.950 . S
H1083 C1061 0.950 . S
C1084 C1085 1.349 . S
C1084 C1086 1.327 . S
C1084 H1109 0.950 . S
C1085 C1084 1.349 . S
C1085 C1101 1.349 . S
C1086 C1084 1.327 . S
C1086 C1105 1.429 . S
C1086 H1110 0.950 . S
C1087 C1104 1.574 . S
C1087 C1106 1.368 . S
C1087 H1111 0.949 . S
H1088 C1092 0.949 . S
C1089 C1090 1.349 . S
C1089 C1091 1.327 . S
C1089 H1112 0.950 . S
C1090 C1089 1.349 . S
C1090 C1102 1.349 . S
C1091 C1089 1.327 . S
C1091 C1107 1.429 . S
C1091 H1113 0.950 . S
C1092 H1088 0.949 . S
C1092 C1100 1.574 . S
C1092 C1108 1.368 . S
H1093 C1101 0.950 . S
H1094 C1099 0.950 . S
H1095 C1100 0.949 . S
H1096 C1102 0.950 . S
H1097 C1103 0.950 . S
H1098 C1104 0.949 . S
C1099 H1094 0.950 . S
C1099 C1101 1.327 . S
C1099 C1105 1.429 . S
C1100 C1092 1.574 . S
C1100 H1095 0.949 . S
C1100 C1106 1.368 . S
C1101 C1085 1.349 . S
C1101 H1093 0.950 . S
C1101 C1099 1.327 . S
C1102 C1090 1.349 . S
C1102 H1096 0.950 . S
C1102 C1103 1.327 . S
C1103 H1097 0.950 . S
C1103 C1102 1.327 . S
C1103 C1107 1.429 . S
C1104 C1087 1.574 . S
C1104 H1098 0.949 . S
C1104 C1108 1.368 . S
C1105 C1086 1.429 . S
C1105 C1099 1.429 . S
C1105 C1106 1.523 . S
C1106 C1087 1.368 . S
C1106 C1100 1.368 . S
C1106 C1105 1.523 . S
C1107 C1091 1.429 . S
C1107 C1103 1.429 . S
C1107 C1108 1.523 . S
C1108 C1092 1.368 . S
C1108 C1104 1.368 . S
C1108 C1107 1.523 . S
H1109 C1084 0.950 . S
H1110 C1086 0.950 . S
H1111 C1087 0.949 . S
H1112 C1089 0.950 . S
H1113 C1091 0.950 . S
C1114 C1115 1.349 . S
C1114 C1116 1.327 . S
C1114 H1139 0.950 . S
C1115 C1114 1.349 . S
C1115 C1131 1.349 . S
C1116 C1114 1.327 . S
C1116 C1135 1.429 . S
C1116 H1140 0.950 . S
C1117 C1134 1.574 . S
C1117 C1136 1.368 . S
C1117 H1141 0.949 . S
H1118 C1122 0.949 . S
C1119 C1120 1.349 . S
C1119 C1121 1.327 . S
C1119 H1142 0.950 . S
C1120 C1119 1.349 . S
C1120 C1132 1.349 . S
C1121 C1119 1.327 . S
C1121 C1137 1.429 . S
C1121 H1143 0.950 . S
C1122 H1118 0.949 . S
C1122 C1130 1.574 . S
C1122 C1138 1.368 . S
H1123 C1131 0.950 . S
H1124 C1129 0.950 . S
H1125 C1130 0.949 . S
H1126 C1132 0.950 . S
H1127 C1133 0.950 . S
H1128 C1134 0.949 . S
C1129 H1124 0.950 . S
C1129 C1131 1.327 . S
C1129 C1135 1.429 . S
C1130 C1122 1.574 . S
C1130 H1125 0.949 . S
C1130 C1136 1.368 . S
C1131 C1115 1.349 . S
C1131 H1123 0.950 . S
C1131 C1129 1.327 . S
C1132 C1120 1.349 . S
C1132 H1126 0.950 . S
C1132 C1133 1.327 . S
C1133 H1127 0.950 . S
C1133 C1132 1.327 . S
C1133 C1137 1.429 . S
C1134 C1117 1.574 . S
C1134 H1128 0.949 . S
C1134 C1138 1.368 . S
C1135 C1116 1.429 . S
C1135 C1129 1.429 . S
C1135 C1136 1.523 . S
C1136 C1117 1.368 . S
C1136 C1130 1.368 . S
C1136 C1135 1.523 . S
C1137 C1121 1.429 . S
C1137 C1133 1.429 . S
C1137 C1138 1.523 . S
C1138 C1122 1.368 . S
C1138 C1134 1.368 . S
C1138 C1137 1.523 . S
H1139 C1114 0.950 . S
H1140 C1116 0.950 . S
H1141 C1117 0.949 . S
H1142 C1119 0.950 . S
H1143 C1121 0.950 . S
C425 C241 1.790 1_565 S
C430 C305 1.826 . S
C460 C326 1.690 . S
C455 C277 1.641 . S
C490 C360 1.437 . S
C485 C169 1.385 . S
C520 C394 1.678 . S
C515 C205 1.655 . S
C550 C296 1.826 . S
C545 C97 1.788 1_556 S
C575 C133 1.685 . S
C580 C335 1.696 . S
C605 C25 1.407 . S
C610 C369 1.437 . S
C635 C61 1.612 . S
C640 C403 1.678 . S
C670 C317 0.452 . S
C665 C211 0.590 . S
C700 C322 0.187 . S
C695 C247 0.287 . S
C730 C356 0.288 . S
C725 C253 0.412 . S
C755 C175 0.482 . S
C760 C390 0.223 . S
C785 C67 0.748 . S
C790 C288 0.452 . S
C820 C351 0.187 . S
C815 C103 0.287 1_565 S
C850 C385 0.288 . S
C845 C109 0.304 . S
C875 C31 0.331 . S
C880 C419 0.223 . S
C905 C181 1.642 . S
C910 C301 1.691 . S
C935 C217 2.007 . S
C940 C330 2.081 . S
C970 C364 1.835 . S
C965 C283 1.711 . S
C1000 C398 1.842 . S
C995 C145 1.745 . S
C1025 C37 1.613 . S
C1030 C292 1.700 . S
C1060 C339 2.082 . S
C1055 C73 2.010 1_565 S
C1090 C373 1.835 . S
C1085 C139 1.744 . S
C1115 C1 1.772 . S
C1120 C407 1.841 . S
