# Generated by pormake.
# Topology anh, (6,3)-cn, num edge types: 1
# Building blocks:
#     Node 0, Type 0, BuildingBlock: BETDIP_clean_sbu_0, # of connection points: 6
#     Node 1, Type 0, BuildingBlock: BETDIP_clean_sbu_0, # of connection points: 6
#     Node 2, Type 0, BuildingBlock: BETDIP_clean_sbu_0, # of connection points: 6
#     Node 3, Type 1, BuildingBlock: KAKCAD_clean_linker_0, # of connection points: 3
#     Node 4, Type 1, BuildingBlock: KAKCAD_clean_linker_0, # of connection points: 3
#     Node 5, Type 1, BuildingBlock: KAKCAD_clean_linker_0, # of connection points: 3
#     Node 6, Type 1, BuildingBlock: KAKCAD_clean_linker_0, # of connection points: 3
#     Node 7, Type 1, BuildingBlock: KAKCAD_clean_linker_0, # of connection points: 3
#     Node 8, Type 1, BuildingBlock: KAKCAD_clean_linker_0, # of connection points: 3
#     Edge 9, Type (0, 1), BuildingBlock: XIVTED_clean_linker_0, # of connection points: 2
#     Edge 10, Type (0, 1), BuildingBlock: XIVTED_clean_linker_0, # of connection points: 2
#     Edge 11, Type (0, 1), BuildingBlock: XIVTED_clean_linker_0, # of connection points: 2
#     Edge 12, Type (0, 1), BuildingBlock: XIVTED_clean_linker_0, # of connection points: 2
#     Edge 13, Type (0, 1), BuildingBlock: XIVTED_clean_linker_0, # of connection points: 2
#     Edge 14, Type (0, 1), BuildingBlock: XIVTED_clean_linker_0, # of connection points: 2
#     Edge 15, Type (0, 1), BuildingBlock: XIVTED_clean_linker_0, # of connection points: 2
#     Edge 16, Type (0, 1), BuildingBlock: XIVTED_clean_linker_0, # of connection points: 2
#     Edge 17, Type (0, 1), BuildingBlock: XIVTED_clean_linker_0, # of connection points: 2
#     Edge 18, Type (0, 1), BuildingBlock: XIVTED_clean_linker_0, # of connection points: 2
#     Edge 19, Type (0, 1), BuildingBlock: XIVTED_clean_linker_0, # of connection points: 2
#     Edge 20, Type (0, 1), BuildingBlock: XIVTED_clean_linker_0, # of connection points: 2
#     Edge 21, Type (0, 1), BuildingBlock: XIVTED_clean_linker_0, # of connection points: 2
#     Edge 22, Type (0, 1), BuildingBlock: XIVTED_clean_linker_0, # of connection points: 2
#     Edge 23, Type (0, 1), BuildingBlock: XIVTED_clean_linker_0, # of connection points: 2
#     Edge 24, Type (0, 1), BuildingBlock: XIVTED_clean_linker_0, # of connection points: 2
#     Edge 25, Type (0, 1), BuildingBlock: XIVTED_clean_linker_0, # of connection points: 2
#     Edge 26, Type (0, 1), BuildingBlock: XIVTED_clean_linker_0, # of connection points: 2
# Relax obj value: 0.242
# Max RMSD: 0.183
# Mean RMSD: 0.155
data_MOF--net-anh--node1-BETDIP_clean_sbu_0--node2-KAKCAD_clean_linker_0--edge1-XIVTED_clean_linker_0
_symmetry_space_group_name_H-M    P1
_symmetry_Int_Tables_number       1
_symmetry_cell_setting            triclinic
loop_
_symmetry_equiv_pos_as_xyz
'x, y, z'
_cell_length_a     38.089352
_cell_length_b     38.285629
_cell_length_c     66.724191
_cell_angle_alpha  90.180912
_cell_angle_beta   89.851577
_cell_angle_gamma 120.16284
loop_
_atom_site_label
_atom_site_type_symbol
_atom_site_fract_x
_atom_site_fract_y
_atom_site_fract_z
_atom_type_partial_charge
Tb0 Tb 0.09893 0.59845 0.16901 0.0
Tb1 Tb 1.05779 0.51161 0.16209 0.0
C2 C 0.14446 0.66577 0.18482 0.0
C3 C 0.18835 0.68814 0.18848 0.0
C4 C 0.20334 0.71077 0.20608 0.0
C5 C 0.24489 0.73084 0.21015 0.0
C6 C 0.2721 0.72842 0.19667 0.0
C7 C 0.25681 0.7052 0.17915 0.0
C8 C 0.21528 0.68524 0.17508 0.0
C9 C 0.08211 0.57732 0.13157 0.0
C10 C 0.15477 0.5544 0.1615 0.0
C11 C 1.01234 0.44306 0.14718 0.0
C12 C 0.97285 0.42673 0.13709 0.0
C13 C 0.96378 0.45226 0.1259 0.0
C14 C 0.92412 0.43897 0.11961 0.0
C15 C 0.89293 0.39986 0.12433 0.0
C16 C 0.90268 0.37334 0.13415 0.0
C17 C 0.94236 0.38677 0.14056 0.0
C18 C 0.07428 0.53239 0.20041 0.0
C19 C 1.00366 0.55794 0.16234 0.0
O20 O 0.12428 0.63237 0.19513 0.0
O21 O 0.1331 0.66133 0.16603 0.0
O22 O 0.09485 0.56235 0.14435 0.0
O23 O 0.08016 0.60746 0.1393 0.0
O24 O 0.15293 0.58773 0.16618 0.0
O25 O 0.11992 0.5199 0.15868 0.0
O26 O 1.04336 0.47208 0.13773 0.0
O27 O 1.01233 0.45109 0.16627 0.0
O28 O 0.06143 0.54781 0.18766 0.0
O29 O 0.07655 0.5031 0.19184 0.0
O30 O 1.0068 0.52562 0.15733 0.0
O31 O 1.03653 0.59036 0.16964 0.0
H32 H 0.18291 0.71302 0.21665 0.0
H33 H 0.25578 0.74913 0.22359 0.0
H34 H 0.27695 0.70255 0.16856 0.0
H35 H 0.20428 0.66758 0.16146 0.0
H36 H 0.98685 0.48321 0.123 0.0
H37 H 0.91742 0.45994 0.11203 0.0
H38 H 0.87911 0.34313 0.13818 0.0
H39 H 0.94873 0.36667 0.14919 0.0
Tb40 Tb 0.59702 0.0481 0.50194 0.0
Tb41 Tb 0.55081 0.08792 0.4967 0.0
C42 C 0.62371 1.00485 0.51551 0.0
C43 C 0.61628 0.96377 0.51235 0.0
C44 C 0.57721 0.93087 0.50877 0.0
C45 C 0.57194 0.89273 0.5044 0.0
C46 C 0.60576 0.88729 0.50332 0.0
C47 C 0.64464 0.92032 0.50717 0.0
C48 C 0.6498 0.95814 0.51164 0.0
C49 C 0.59219 0.06523 0.46456 0.0
C50 C 0.49733 0.99149 0.49375 0.0
C51 C 0.52983 0.13736 0.48587 0.0
C52 C 0.55604 0.18187 0.48502 0.0
C53 C 0.57619 0.20082 0.46711 0.0
C54 C 0.60914 0.2404 0.46741 0.0
C55 C 0.62254 0.26135 0.48565 0.0
C56 C 0.60001 0.24382 0.50314 0.0
C57 C 0.56696 0.20462 0.50283 0.0
C58 C 0.5584 0.07233 0.53485 0.0
C59 C 0.65087 0.14359 0.49718 0.0
O60 O 0.59523 1.00891 0.5244 0.0
O61 O 0.63938 1.02881 0.50012 0.0
O62 O 0.56415 0.05251 0.47736 0.0
O63 O 0.62333 0.06497 0.47205 0.0
O64 O 0.53274 0.99361 0.49848 0.0
O65 O 0.49752 1.02617 0.49111 0.0
O66 O 0.53924 0.11717 0.47325 0.0
O67 O 0.52236 0.12123 0.50375 0.0
O68 O 0.58605 0.08572 0.52163 0.0
O69 O 0.52552 0.06791 0.52677 0.0
O70 O 0.61522 0.14006 0.4922 0.0
O71 O 0.65037 0.11094 0.50444 0.0
H72 H 0.55094 0.93471 0.50916 0.0
H73 H 0.54165 0.86773 0.50157 0.0
H74 H 0.67118 0.91686 0.50694 0.0
H75 H 0.68016 0.98321 0.51432 0.0
H76 H 0.5683 0.18417 0.45312 0.0
H77 H 0.62582 0.25346 0.45368 0.0
H78 H 0.60904 0.25988 0.5173 0.0
H79 H 0.55179 0.19134 0.51685 0.0
Tb80 Tb 0.55685 0.56546 0.83291 0.0
Tb81 Tb 0.64305 0.61275 0.82907 0.0
C82 C 0.48538 0.53434 0.84579 0.0
C83 C 0.44682 0.53425 0.84391 0.0
C84 C 0.4302 0.54176 0.86103 0.0
C85 C 0.38944 0.53133 0.86133 0.0
C86 C 0.36455 0.51282 0.84457 0.0
C87 C 0.38206 0.50853 0.82689 0.0
C88 C 0.42292 0.51928 0.82652 0.0
C89 C 0.58146 0.57413 0.79564 0.0
C90 C 0.59824 0.66471 0.82605 0.0
C91 C 0.71595 0.63863 0.81976 0.0
C92 C 0.7389 0.61738 0.82105 0.0
C93 C 0.77065 0.62596 0.80765 0.0
C94 C 0.78901 0.60212 0.80761 0.0
C95 C 0.77513 0.56909 0.82072 0.0
C96 C 0.74388 0.56122 0.83433 0.0
C97 C 0.72607 0.5852 0.83455 0.0
C98 C 0.61724 0.60287 0.86695 0.0
C99 C 0.60068 0.51334 0.82835 0.0
O100 O 0.5162 0.56515 0.85454 0.0
O101 O 0.4963 0.5205 0.83054 0.0
O102 O 0.5956 0.60076 0.80907 0.0
O103 O 0.5497 0.54226 0.80235 0.0
O104 O 0.565 0.62908 0.83063 0.0
O105 O 0.63307 0.66486 0.8232 0.0
O106 O 0.68628 0.62321 0.8068 0.0
O107 O 0.70465 0.64646 0.83689 0.0
O108 O 0.60428 0.57591 0.85343 0.0
O109 O 0.64571 0.63614 0.85932 0.0
O110 O 0.63289 0.54938 0.82404 0.0
O111 O 0.56754 0.513 0.83507 0.0
H112 H 0.44787 0.55294 0.87465 0.0
H113 H 0.37671 0.53472 0.87524 0.0
H114 H 0.36361 0.49477 0.8137 0.0
H115 H 0.4349 0.51326 0.81304 0.0
H116 H 0.78059 0.65045 0.797 0.0
H117 H 0.81323 0.60879 0.79706 0.0
H118 H 0.73317 0.53642 0.84485 0.0
H119 H 0.70158 0.57799 0.84502 0.0
C120 C 0.56739 0.17073 0.3167 0.0
C121 C 0.59721 0.16601 0.32674 0.0
C122 C 0.56555 0.16967 0.29574 0.0
C123 C 0.59352 0.16396 0.28461 0.0
C124 C 0.62473 0.16176 0.29449 0.0
C125 C 0.62669 0.16293 0.31536 0.0
C126 C 0.5859 0.15237 0.26336 0.0
C127 C 0.59773 0.18133 0.24812 0.0
C128 C 0.59275 0.1692 0.22789 0.0
C129 C 0.5748 0.12787 0.22329 0.0
C130 C 0.56337 0.09885 0.23842 0.0
C131 C 0.56885 0.11141 0.25846 0.0
C132 C 0.5467 0.05567 0.23319 0.0
C133 C 0.51957 0.0385 0.21709 0.0
C134 C 0.55794 1.03137 0.24408 0.0
C135 C 0.54166 0.99058 0.23922 0.0
C136 C 0.51434 0.97356 0.2232 0.0
C137 C 0.60917 0.19917 0.21137 0.0
C138 C 0.60575 0.2341 0.21146 0.0
C139 C 0.62902 0.19272 0.19523 0.0
C140 C 0.64479 0.22009 0.17954 0.0
C141 C 0.64175 0.25514 0.17958 0.0
C142 C 0.6221 0.262 0.19571 0.0
C143 C 0.50376 0.998 0.2121 0.0
H144 H 0.54451 0.17355 0.32504 0.0
H145 H 0.54094 0.17087 0.2883 0.0
H146 H 0.64616 0.15669 0.28609 0.0
H147 H 0.64969 0.15861 0.32254 0.0
H148 H 0.61233 0.21309 0.25201 0.0
H149 H 0.55989 0.08934 0.27038 0.0
H150 H 0.57084 0.11832 0.20775 0.0
H151 H 0.5097 0.0561 0.20862 0.0
H152 H 0.57936 0.04387 0.25634 0.0
H153 H 0.5502 0.97229 0.24801 0.0
H154 H 0.5905 0.23982 0.22367 0.0
H155 H 0.63345 0.1669 0.19493 0.0
H156 H 0.48193 0.98541 0.2 0.0
H157 H 0.61974 0.28902 0.19622 0.0
H158 H 0.66106 0.21456 0.16777 0.0
C159 C 0.66853 0.58483 0.64308 0.0
C160 C 0.69776 0.5979 0.65835 0.0
C161 C 0.68012 0.58902 0.62304 0.0
C162 C 0.72122 0.60627 0.61772 0.0
C163 C 0.7506 0.61889 0.63292 0.0
C164 C 0.73898 0.61506 0.65311 0.0
C165 C 0.73253 0.6109 0.59624 0.0
C166 C 0.71528 0.62665 0.58313 0.0
C167 C 0.71978 0.62552 0.56231 0.0
C168 C 0.74329 0.60968 0.55473 0.0
C169 C 0.76204 0.59493 0.56763 0.0
C170 C 0.75676 0.59599 0.58848 0.0
C171 C 0.78156 0.5731 0.5589 0.0
C172 C 0.77262 0.53551 0.56674 0.0
C173 C 0.80349 0.58619 0.54081 0.0
C174 C 0.81177 0.56022 0.52964 0.0
C175 C 0.79875 0.52093 0.53649 0.0
C176 C 0.69847 0.63926 0.54855 0.0
C177 C 0.65991 0.63324 0.55355 0.0
C178 C 0.7167 0.65922 0.53056 0.0
C179 C 0.69777 0.6745 0.5184 0.0
C180 C 0.66055 0.671 0.52415 0.0
C181 C 0.64141 0.64925 0.54163 0.0
C182 C 0.78129 0.50976 0.55569 0.0
H183 H 0.63661 0.57191 0.64663 0.0
H184 H 0.65679 0.5786 0.61162 0.0
H185 H 0.78248 0.63227 0.62917 0.0
H186 H 0.76209 0.6252 0.66462 0.0
H187 H 0.69763 0.63922 0.58929 0.0
H188 H 0.76975 0.58343 0.5986 0.0
H189 H 0.74496 0.60657 0.53867 0.0
H190 H 0.75557 0.52426 0.58053 0.0
H191 H 0.81172 0.61545 0.53461 0.0
H192 H 0.82579 0.56982 0.51502 0.0
H193 H 0.64423 0.61684 0.56693 0.0
H194 H 0.7463 0.66435 0.52615 0.0
H195 H 0.77052 0.47957 0.56136 0.0
H196 H 0.61296 0.64607 0.54674 0.0
H197 H 0.71303 0.69018 0.5048 0.0
C198 C 1.00343 0.40333 -0.0021 0.0
C199 C 0.97758 0.41567 0.00635 0.0
C200 C 0.99291 0.38075 0.9803 0.0
C201 C 0.95542 0.36832 0.97084 0.0
C202 C 0.9281 0.37797 0.98017 0.0
C203 C 0.9392 0.4017 0.99761 0.0
C204 C 0.94778 0.3502 0.95026 0.0
C205 C 0.96785 0.3297 0.94378 0.0
C206 C 0.97351 0.32564 0.92326 0.0
C207 C 0.95178 0.33478 0.90932 0.0
C208 C 0.92893 0.35236 0.91546 0.0
C209 C 0.92734 0.36033 0.9359 0.0
C210 C 0.91262 0.36861 0.90025 0.0
C211 C 0.93663 0.39033 0.88373 0.0
C212 C 0.87404 0.36435 0.90259 0.0
C213 C 0.86 0.38198 0.88885 0.0
C214 C 0.88438 0.40436 0.87254 0.0
C215 C 1.01001 0.3241 0.91629 0.0
C216 C 1.04658 0.3459 0.92705 0.0
C217 C 1.01162 0.3102 0.89689 0.0
C218 C 1.04906 0.32342 0.88742 0.0
C219 C 0.08528 0.34999 0.89738 0.0
C220 C 0.08371 0.35849 0.9177 0.0
C221 C 0.92262 0.40789 0.87001 0.0
H222 H 1.03262 0.41209 0.00454 0.0
H223 H 1.01554 0.37505 0.97373 0.0
H224 H 0.89859 0.36837 0.97369 0.0
H225 H 0.91829 0.41032 0.00372 0.0
H226 H 0.98291 0.32069 0.95459 0.0
H227 H 0.91322 0.3777 0.94024 0.0
H228 H 0.95548 0.33181 0.89344 0.0
H229 H 0.96686 0.39485 0.88169 0.0
H230 H 0.85494 0.34779 0.91518 0.0
H231 H 0.8306 0.37921 0.89137 0.0
H232 H 1.04725 0.35725 0.94199 0.0
H233 H 0.9841 0.29215 0.88837 0.0
H234 H 0.94199 0.42471 0.85754 0.0
H235 H 0.11133 0.37791 0.92592 0.0
H236 H 1.04946 0.31576 0.87181 0.0
C237 C 1.04167 0.55122 0.36343 0.0
C238 C 0.07702 0.55934 0.35277 0.0
C239 C 1.04131 0.55257 0.38456 0.0
C240 C 0.0764 0.56254 0.39587 0.0
C241 C 0.11186 0.57105 0.38521 0.0
C242 C 0.1121 0.56926 0.36408 0.0
C243 C 0.07589 0.56382 0.41858 0.0
C244 C 1.04251 0.53362 0.42939 0.0
C245 C 1.04 0.53299 0.45058 0.0
C246 C 0.07437 0.56625 0.46111 0.0
C247 C 0.10952 0.59824 0.45041 0.0
C248 C 0.10865 0.59517 0.42924 0.0
C249 C 0.14852 0.63554 0.45957 0.0
C250 C 0.1481 0.66727 0.47051 0.0
C251 C 0.18807 0.64395 0.45386 0.0
C252 C 0.22443 0.68108 0.45858 0.0
C253 C 0.2243 0.71339 0.4691 0.0
C254 C 1.00009 0.49688 0.45983 0.0
C255 C 0.9614 0.48598 0.45167 0.0
C256 C 0.99919 0.46852 0.47386 0.0
C257 C 0.96225 0.4316 0.47892 0.0
C258 C 0.92354 0.42045 0.47038 0.0
C259 C 0.92477 0.44954 0.45674 0.0
C260 C 0.18466 0.70487 0.47506 0.0
H261 H 1.01387 0.54311 0.35546 0.0
H262 H 1.01345 0.54615 0.39205 0.0
H263 H 0.13947 0.57857 0.39322 0.0
H264 H 0.1401 0.57612 0.3566 0.0
H265 H 1.01811 0.50929 0.42099 0.0
H266 H 0.13378 0.61847 0.42076 0.0
H267 H 0.07377 0.56725 0.4773 0.0
H268 H 0.11916 0.66379 0.47493 0.0
H269 H 0.191 0.62174 0.44505 0.0
H270 H 0.25289 0.68476 0.45318 0.0
H271 H 0.95941 0.50561 0.44064 0.0
H272 H 1.02746 0.47401 0.48044 0.0
H273 H 0.1815 0.72754 0.48327 0.0
H274 H 0.89731 0.44388 0.44921 0.0
H275 H 0.96443 0.41158 0.4896 0.0
C276 C 0.55959 0.04495 0.69908 0.0
C277 C 0.58424 0.07914 0.68719 0.0
C278 C 0.5623 0.04665 0.72017 0.0
C279 C 0.58951 0.08269 0.73022 0.0
C280 C 0.61417 0.1169 0.71835 0.0
C281 C 0.61175 0.1151 0.69724 0.0
C282 C 0.5921 0.08452 0.75291 0.0
C283 C 0.59102 0.05245 0.76385 0.0
C284 C 0.59352 0.05238 0.78499 0.0
C285 C 0.59672 0.08781 0.79538 0.0
C286 C 0.59769 0.12169 0.78456 0.0
C287 C 0.59546 0.11822 0.76338 0.0
C288 C 0.60147 0.16191 0.7934 0.0
C289 C 0.5745 0.16346 0.80772 0.0
C290 C 0.6287 0.20011 0.78465 0.0
C291 C 0.6288 0.23674 0.78944 0.0
C292 C 0.60136 0.23854 0.80336 0.0
C293 C 0.59191 1.0137 0.7943 0.0
C294 C 0.55935 0.97425 0.78968 0.0
C295 C 0.62544 1.0139 0.80377 0.0
C296 C 0.62632 0.97732 0.80806 0.0
C297 C 0.59371 0.93775 0.80323 0.0
C298 C 0.55999 0.93786 0.79412 0.0
C299 C 0.57441 0.20036 0.81249 0.0
H300 H 0.53829 1.01652 0.69209 0.0
H301 H 0.54251 1.01966 0.72862 0.0
H302 H 0.63579 0.14517 0.72538 0.0
H303 H 0.63107 0.14225 0.68879 0.0
H304 H 0.58907 1.0271 0.7556 0.0
H305 H 0.59528 0.14205 0.75474 0.0
H306 H 0.59851 0.08902 0.81157 0.0
H307 H 0.55214 0.13567 0.81481 0.0
H308 H 0.64999 0.2017 0.77339 0.0
H309 H 0.65019 0.26372 0.78149 0.0
H310 H 0.53313 0.9714 0.78188 0.0
H311 H 0.65209 0.04266 0.80721 0.0
H312 H 0.55256 0.19855 0.82342 0.0
H313 H 0.53397 0.90952 0.7896 0.0
H314 H 0.65326 0.98044 0.81514 0.0
C315 C 0.59617 0.54388 0.02929 0.0
C316 C 0.58744 0.5707 0.01893 0.0
C317 C 0.59484 0.54172 0.05041 0.0
C318 C 0.58435 0.56602 0.06202 0.0
C319 C 0.5752 0.59253 0.05166 0.0
C320 C 0.57689 0.59495 0.03056 0.0
C321 C 0.58324 0.56391 0.08474 0.0
C322 C 0.61365 0.56084 0.09534 0.0
C323 C 0.61452 0.55884 0.11652 0.0
C324 C 0.58134 0.55977 0.12726 0.0
C325 C 0.54913 0.56278 0.11678 0.0
C326 C 0.55192 0.56505 0.09561 0.0
C327 C 0.51199 0.56444 0.12617 0.0
C328 C 0.47935 0.53173 0.13648 0.0
C329 C 0.50456 0.59627 0.12117 0.0
C330 C 0.46757 0.59571 0.12602 0.0
C331 C 0.4344 0.56281 0.13598 0.0
C332 C 0.65078 0.55514 0.12554 0.0
C333 C 0.66132 0.52737 0.11717 0.0
C334 C 0.67961 0.58265 0.13954 0.0
C335 C 0.71662 0.58268 0.14441 0.0
C336 C 0.72739 0.55511 0.13569 0.0
C337 C 0.69785 0.52722 0.12206 0.0
C338 C 0.44187 0.53091 0.14118 0.0
H339 H 0.60478 0.52489 0.02109 0.0
H340 H 0.60173 0.5206 0.05765 0.0
H341 H 0.56729 0.61203 0.0599 0.0
H342 H 0.56949 0.61572 0.02333 0.0
H343 H 0.63798 0.56099 0.08682 0.0
H344 H 0.52844 0.56682 0.08731 0.0
H345 H 0.58055 0.55812 0.14345 0.0
H346 H 0.48203 0.50571 0.1403 0.0
H347 H 0.52746 0.62183 0.1128 0.0
H348 H 0.4647 0.62109 0.12117 0.0
H349 H 0.64134 0.50574 0.10614 0.0
H350 H 0.67442 0.60543 0.14627 0.0
H351 H 0.41847 0.50466 0.14889 0.0
H352 H 0.70323 0.50543 0.11439 0.0
H353 H 0.73703 0.6049 0.15508 0.0
H354 H 0.17081 0.49113 0.15447 0.0
H355 H 0.41765 0.62694 0.14083 0.0
H356 H 0.23631 0.6204 0.16093 0.0
H357 H 0.35354 0.49688 0.14159 0.0
H358 H 0.35314 0.62524 0.14694 0.0
H359 H 0.23571 0.49284 0.14892 0.0
C360 C 0.19858 0.52013 0.1548 0.0
C361 C 0.19643 0.55565 0.15838 0.0
C362 C 0.35288 0.5969 0.14579 0.0
C363 C 0.27382 0.55786 0.15159 0.0
C364 C 0.3904 0.59772 0.14211 0.0
C365 C 0.39304 0.56198 0.14042 0.0
C366 C 0.31577 0.55999 0.14781 0.0
C367 C 0.35487 0.52569 0.14279 0.0
C368 C 0.23625 0.52102 0.15157 0.0
C369 C 0.23498 0.59185 0.1584 0.0
N370 N 0.31886 0.52577 0.14616 0.0
N371 N 0.27109 0.59192 0.15506 0.0
H372 H 0.73215 0.16563 0.50635 0.0
H373 H 0.84058 0.39874 0.46553 0.0
H374 H 0.66558 0.21714 0.48016 0.0
H375 H 0.9098 0.34531 0.4866 0.0
H376 H 0.77795 0.3347 0.47181 0.0
H377 H 0.79595 0.2301 0.50053 0.0
C378 C 0.73042 0.19028 0.49945 0.0
C379 C 0.6918 0.18456 0.49404 0.0
C380 C 0.80672 0.33667 0.47507 0.0
C381 C 0.76747 0.26115 0.48703 0.0
C382 C 0.84347 0.37397 0.47132 0.0
C383 C 0.88278 0.37949 0.47513 0.0
C384 C 0.80737 0.30271 0.48295 0.0
C385 C 0.88162 0.34443 0.48326 0.0
C386 C 0.76749 0.22765 0.49606 0.0
C387 C 0.6935 0.21899 0.48497 0.0
N388 N 0.84547 0.30857 0.48674 0.0
N389 N 0.72976 0.25483 0.48187 0.0
H390 H 0.53137 0.67848 0.82598 0.0
H391 H 0.66039 0.92403 0.80781 0.0
H392 H 0.66116 0.74502 0.81897 0.0
H393 H 0.52969 0.8558 0.80773 0.0
H394 H 0.66119 0.86081 0.81325 0.0
H395 H 0.53013 0.74185 0.82078 0.0
C396 C 0.55984 0.70612 0.82342 0.0
C397 C 0.59647 0.70474 0.82304 0.0
C398 C 0.63216 0.8594 0.81207 0.0
C399 C 0.59522 0.78033 0.81695 0.0
C400 C 0.63156 0.89625 0.80901 0.0
C401 C 0.59487 0.89734 0.8071 0.0
C402 C 0.59579 0.82151 0.81358 0.0
C403 C 0.5592 0.85835 0.80872 0.0
C404 C 0.55905 0.7429 0.82037 0.0
C405 C 0.63183 0.74307 0.8195 0.0
N406 N 0.56066 0.82318 0.81184 0.0
N407 N 0.63026 0.77825 0.81674 0.0
H408 H 0.98477 0.61999 0.16829 0.0
H409 H 0.74801 0.49354 0.13084 0.0
H410 H 0.92694 0.4964 0.14866 0.0
H411 H 0.80369 0.6168 0.1514 0.0
H412 H 0.81197 0.49469 0.13699 0.0
H413 H 0.92059 0.61976 0.16243 0.0
C414 C 0.95885 0.59256 0.16276 0.0
C415 C 0.96284 0.55812 0.15904 0.0
C416 C 0.81049 0.52164 0.14021 0.0
C417 C 0.88652 0.55774 0.15199 0.0
C418 C 0.77326 0.52126 0.13651 0.0
C419 C 0.76837 0.55527 0.14026 0.0
C420 C 0.84506 0.55634 0.14791 0.0
C421 C 0.80405 0.5893 0.14816 0.0
C422 C 0.92163 0.59253 0.15934 0.0
C423 C 0.92673 0.52401 0.15177 0.0
N424 N 0.83987 0.58888 0.15155 0.0
N425 N 0.8911 0.52477 0.14857 0.0
H426 H 0.48394 0.91157 0.49219 0.0
H427 H 0.237 0.79257 0.47568 0.0
H428 H 0.41647 0.97361 0.48745 0.0
H429 H 0.30681 0.73253 0.47238 0.0
H430 H 0.30031 0.857 0.48154 0.0
H431 H 0.42043 0.8468 0.48661 0.0
C432 C 0.45605 0.91209 0.49008 0.0
C433 C 0.45716 0.94976 0.49046 0.0
C434 C 0.30203 0.82983 0.47956 0.0
C435 C 0.38149 0.87279 0.48389 0.0
C436 C 0.26518 0.79219 0.47626 0.0
C437 C 0.2646 0.75504 0.47331 0.0
C438 C 0.34032 0.83205 0.48029 0.0
C439 C 0.30396 0.75907 0.47418 0.0
C440 C 0.4192 0.87443 0.4868 0.0
C441 C 0.41856 0.94646 0.48739 0.0
N442 N 0.33912 0.79584 0.47757 0.0
N443 N 0.38328 0.90959 0.48439 0.0
H444 H 0.66277 0.50008 0.81334 0.0
H445 H 0.54012 0.25215 0.82042 0.0
H446 H 0.54056 0.43154 0.83568 0.0
H447 H 0.66152 0.32148 0.79685 0.0
H448 H 0.54006 0.31561 0.82655 0.0
H449 H 0.66297 0.43632 0.80778 0.0
C450 C 0.63582 0.47193 0.81724 0.0
C451 C 0.60162 0.47288 0.82521 0.0
C452 C 0.56685 0.31717 0.82002 0.0
C453 C 0.60169 0.39677 0.81857 0.0
C454 C 0.56709 0.2802 0.8165 0.0
C455 C 0.60084 0.27921 0.80782 0.0
C456 C 0.60068 0.35536 0.81506 0.0
C457 C 0.63407 0.31856 0.80322 0.0
C458 C 0.63599 0.4349 0.81397 0.0
C459 C 0.56801 0.43384 0.82961 0.0
N460 N 0.63304 0.35383 0.80683 0.0
N461 N 0.56899 0.39842 0.82631 0.0
H462 H 0.55021 0.81388 0.51912 0.0
H463 H 0.5804 0.65027 0.51825 0.0
H464 H 0.65151 0.86986 0.47819 0.0
H465 H 0.70339 0.74474 0.50577 0.0
H466 H 0.55614 0.69526 0.5071 0.0
H467 H 0.55382 0.75199 0.51784 0.0
C468 C 0.57234 0.81268 0.50935 0.0
C469 C 0.60122 0.84725 0.49911 0.0
C470 C 0.58836 0.70585 0.50669 0.0
C471 C 0.60556 0.77672 0.49751 0.0
C472 C 0.60232 0.68024 0.51306 0.0
C473 C 0.64422 0.69395 0.51352 0.0
C474 C 0.61654 0.74529 0.50063 0.0
C475 C 0.67089 0.73252 0.50579 0.0
C476 C 0.57433 0.77725 0.50856 0.0
C477 C 0.6294 0.84416 0.48676 0.0
N478 N 0.6566 0.75688 0.49988 0.0
N479 N 0.63148 0.80985 0.48668 0.0
H480 H 0.73553 0.48698 0.81966 0.0
H481 H 0.92986 0.48104 0.85775 0.0
H482 H 0.85553 0.5917 0.82247 0.0
H483 H 0.80867 0.37751 0.85671 0.0
H484 H 0.90581 0.51915 0.83869 0.0
H485 H 0.7643 0.44395 0.82669 0.0
C486 C 0.76808 0.50077 0.82146 0.0
C487 C 0.79321 0.54287 0.82086 0.0
C488 C 0.88457 0.48794 0.8424 0.0
C489 C 0.82631 0.49407 0.82917 0.0
C490 C 0.89832 0.46606 0.85321 0.0
C491 C 0.87108 0.42615 0.85905 0.0
C492 C 0.84326 0.46987 0.83749 0.0
C493 C 0.8305 0.40848 0.8529 0.0
C494 C 0.78451 0.47626 0.82548 0.0
C495 C 0.83519 0.55934 0.82294 0.0
N496 N 0.81773 0.43059 0.84263 0.0
N497 N 0.85042 0.5349 0.82737 0.0
H498 H 0.31349 0.74105 0.23205 0.0
H499 H 0.50172 0.93551 0.18699 0.0
H500 H 0.33172 0.77172 0.16922 0.0
H501 H 0.47832 0.91205 0.25022 0.0
H502 H 0.45156 0.86504 0.17998 0.0
H503 H 0.38415 0.7924 0.23843 0.0
C504 C 0.33253 0.75818 0.21956 0.0
C505 C 0.31641 0.7529 0.20017 0.0
C506 C 0.45802 0.87501 0.19542 0.0
C507 C 0.39714 0.81148 0.20732 0.0
C508 C 0.48662 0.9152 0.19941 0.0
C509 C 0.49326 0.9297 0.21916 0.0
C510 C 0.43554 0.84946 0.2113 0.0
C511 C 0.4737 0.90211 0.23476 0.0
C512 C 0.3729 0.78729 0.22318 0.0
C513 C 0.34272 0.77497 0.18444 0.0
N514 N 0.44494 0.86344 0.23047 0.0
N515 N 0.38157 0.80385 0.18843 0.0
H516 H 0.65036 0.32868 0.46186 0.0
H517 H 0.81495 0.45964 0.54339 0.0
H518 H 0.68355 0.28131 0.51233 0.0
H519 H 0.77165 0.50858 0.49789 0.0
H520 H 0.78519 0.39602 0.52477 0.0
H521 H 0.71061 0.39506 0.46794 0.0
C522 C 0.67071 0.33215 0.47399 0.0
C523 C 0.6614 0.30001 0.48703 0.0
C524 C 0.78311 0.42104 0.51858 0.0
C525 C 0.73011 0.3753 0.49401 0.0
C526 C 0.80024 0.45739 0.52918 0.0
C527 C 0.79474 0.489 0.52248 0.0
C528 C 0.75981 0.41621 0.50139 0.0
C529 C 0.7762 0.48482 0.50377 0.0
C530 C 0.70507 0.36992 0.47745 0.0
C531 C 0.68896 0.3058 0.50237 0.0
N532 N 0.75839 0.44866 0.49414 0.0
N533 N 0.72173 0.34284 0.50561 0.0
H534 H 0.3196 0.5424 0.86202 0.0
H535 H 0.12052 0.32399 0.86929 0.0
H536 H 0.30829 0.43661 0.83271 0.0
H537 H 0.13637 0.43086 0.89942 0.0
H538 H 0.18539 0.36584 0.85183 0.0
H539 H 0.24804 0.50351 0.87147 0.0
C540 C 0.30181 0.51115 0.85731 0.0
C541 C 0.31991 0.4926 0.84675 0.0
C542 C 0.17449 0.38005 0.86222 0.0
C543 C 0.23828 0.44762 0.85777 0.0
C544 C 0.13761 0.35619 0.87217 0.0
C545 C 0.1237 0.37386 0.88618 0.0
C546 C 0.19717 0.42177 0.86624 0.0
C547 C 0.14664 0.41578 0.88922 0.0
C548 C 0.26101 0.48888 0.86272 0.0
C549 C 0.29544 0.45212 0.8408 0.0
N550 N 0.18227 0.43819 0.87945 0.0
N551 N 0.25599 0.43076 0.84666 0.0
H552 H 0.85819 0.44374 0.13606 0.0
H553 H 0.64436 0.24383 0.13915 0.0
H554 H 0.82967 0.33024 0.10883 0.0
H555 H 0.69077 0.33677 0.18457 0.0
H556 H 0.69973 0.28912 0.11693 0.0
H557 H 0.7859 0.4175 0.14209 0.0
C558 C 0.83661 0.41386 0.13065 0.0
C559 C 0.84988 0.38875 0.12233 0.0
C560 C 0.69692 0.30002 0.1315 0.0
C561 C 0.76742 0.35867 0.12923 0.0
C562 C 0.66542 0.27426 0.1442 0.0
C563 C 0.664 0.28608 0.164 0.0
C564 C 0.72691 0.33781 0.13868 0.0
C565 C 0.69119 0.32616 0.16956 0.0
C566 C 0.7954 0.39889 0.13417 0.0
C567 C 0.82063 0.35021 0.11567 0.0
N568 N 0.72227 0.35033 0.15713 0.0
N569 N 0.78072 0.33604 0.11958 0.0
H570 H 1.01811 0.5725 0.11054 0.0
H571 H 1.05485 0.47763 0.01373 0.0
H572 H 0.11142 0.54022 0.10822 0.0
H573 H 0.9333 0.42052 0.03825 0.0
H574 H 0.07969 0.52022 0.04342 0.0
H575 H 0.98997 0.53517 0.07885 0.0
C576 C 1.03306 0.55828 0.10312 0.0
C577 C 0.06712 0.55937 0.11176 0.0
C578 C 1.04755 0.49849 0.04214 0.0
C579 C 1.03592 0.51789 0.07592 0.0
C580 C 1.03326 0.47374 0.02533 0.0
C581 C 0.99193 0.44429 0.02364 0.0
C582 C 1.02034 0.49482 0.0572 0.0
C583 C 0.96539 0.44253 0.03886 0.0
C584 C 1.01684 0.53681 0.08528 0.0
C585 C 0.08512 0.53999 0.10192 0.0
N586 N 0.98009 0.46741 0.0551 0.0
N587 N 0.06952 0.5203 0.08439 0.0
H588 H 0.65792 0.11494 0.44213 0.0
H589 H 0.52946 0.12147 0.34985 0.0
H590 H 0.52736 0.05805 0.44337 0.0
H591 H 0.66003 0.19419 0.35372 0.0
H592 H 0.52737 0.10126 0.38469 0.0
H593 H 0.65888 0.14598 0.4101 0.0
C594 C 0.62941 0.10894 0.43558 0.0
C595 C 0.59247 0.08374 0.44524 0.0
C596 C 0.55643 0.12206 0.378 0.0
C597 C 0.59326 0.1192 0.40862 0.0
C598 C 0.55765 0.13395 0.35813 0.0
C599 C 0.59506 0.15931 0.34874 0.0
C600 C 0.59288 0.13535 0.38851 0.0
C601 C 0.63058 0.17396 0.3602 0.0
C602 C 0.62997 0.1269 0.41737 0.0
C603 C 0.55644 0.0773 0.43629 0.0
N604 N 0.62865 0.1614 0.37939 0.0
N605 N 0.55768 0.09471 0.41837 0.0
H606 H 0.55887 0.51489 0.76777 0.0
H607 H 0.73048 0.65442 0.6884 0.0
H608 H 0.6447 0.64094 0.77824 0.0
H609 H 0.63493 0.53242 0.67642 0.0
H610 H 0.70378 0.6488 0.72247 0.0
H611 H 0.58974 0.51983 0.73503 0.0
C612 C 0.5842 0.54367 0.76311 0.0
C613 C 0.59934 0.57756 0.77566 0.0
C614 C 0.6888 0.62323 0.71239 0.0
C615 C 0.63505 0.58347 0.73828 0.0
C616 C 0.70421 0.62632 0.69303 0.0
C617 C 0.68469 0.59393 0.67956 0.0
C618 C 0.65381 0.58742 0.71829 0.0
C619 C 0.65055 0.55831 0.68625 0.0
C620 C 0.60191 0.54647 0.74445 0.0
C621 C 0.63231 0.61407 0.76898 0.0
N622 N 0.63615 0.55607 0.7051 0.0
N623 N 0.64914 0.6161 0.75071 0.0
H624 H 0.62973 0.1009 0.55673 0.0
H625 H 0.51535 0.03875 0.66377 0.0
H626 H 0.5 0.04336 0.56398 0.0
H627 H 0.64515 0.11538 0.65846 0.0
H628 H 0.51007 1.03599 0.62721 0.0
H629 H 0.6369 0.10243 0.59353 0.0
C630 C 0.60275 0.08838 0.56601 0.0
C631 C 0.56417 0.07204 0.55712 0.0
C632 C 0.53978 0.05343 0.63398 0.0
C633 C 0.57213 0.07359 0.59943 0.0
C634 C 0.54289 0.05483 0.65499 0.0
C635 C 0.58081 0.07731 0.66453 0.0
C636 C 0.57483 0.07436 0.62205 0.0
C637 C 0.61515 0.09795 0.652 0.0
C638 C 0.60686 0.0894 0.58706 0.0
C639 C 0.53037 0.05637 0.57004 0.0
N640 N 0.61137 0.09586 0.63155 0.0
N641 N 0.53512 0.05748 0.59035 0.0
H642 H 0.6425 0.66067 0.89596 0.0
H643 H 0.56542 0.5099 0.9905 0.0
H644 H 0.57543 0.53131 0.88884 0.0
H645 H 0.61515 0.63867 0.99509 0.0
H646 H 0.57054 0.51623 0.95382 0.0
H647 H 0.63407 0.65233 0.93227 0.0
C648 C 0.62582 0.63038 0.90202 0.0
C649 C 0.60971 0.59669 0.88914 0.0
C650 C 0.58022 0.54308 0.96285 0.0
C651 C 0.60011 0.58675 0.9313 0.0
C652 C 0.57756 0.53957 0.98391 0.0
C653 C 0.58983 0.57378 0.99625 0.0
C654 C 0.59567 0.58119 0.95379 0.0
C655 C 0.60477 0.61123 0.98648 0.0
C656 C 0.621 0.62563 0.92287 0.0
C657 C 0.58834 0.55822 0.89808 0.0
N658 N 0.6074 0.61386 0.96604 0.0
N659 N 0.58439 0.55431 0.91853 0.0
H660 H 0.10416 0.50235 0.2285 0.0
H661 H 1.03918 0.58352 0.32507 0.0
H662 H 1.04938 0.57672 0.22348 0.0
H663 H 0.11515 0.52996 0.3282 0.0
H664 H 1.0394 0.5788 0.28836 0.0
H665 H 0.1057 0.50997 0.265 0.0
C666 C 0.0925 0.52042 0.23506 0.0
C667 C 0.0766 0.53888 0.22273 0.0
C668 C 1.05611 0.56816 0.29706 0.0
C669 C 0.0779 0.54751 0.26502 0.0
C670 C 1.05581 0.5706 0.31814 0.0
C671 C 0.07719 0.55714 0.33007 0.0
C672 C 0.07755 0.55166 0.28756 0.0
C673 C 0.09855 0.54121 0.31988 0.0
C674 C 0.09342 0.52479 0.25599 0.0
C675 C 0.062 0.56197 0.23227 0.0
N676 N 0.09798 0.53875 0.29942 0.0
N677 N 0.06277 0.5654 0.25276 0.0
loop_
_geom_bond_atom_site_label_1
_geom_bond_atom_site_label_2
_geom_bond_distance
_geom_bond_site_symmetry_2
_ccdc_geom_bond_type
Tb0 C2 2.809 . S
Tb0 O20 2.484 . S
Tb0 O21 2.440 . S
Tb0 O22 2.658 . S
Tb0 O23 2.409 . S
Tb0 O24 2.378 . S
Tb0 O28 2.325 . S
Tb0 O31 2.341 1_455 S
Tb1 C11 2.809 . S
Tb1 O22 2.325 1_655 S
Tb1 O25 2.341 1_655 S
Tb1 O26 2.484 . S
Tb1 O27 2.440 . S
Tb1 O28 2.658 1_655 S
Tb1 O29 2.409 1_655 S
Tb1 O30 2.378 . S
C2 Tb0 2.809 . S
C2 C3 1.514 . S
C2 O20 1.248 . S
C2 O21 1.266 . S
C3 C2 1.514 . S
C3 C4 1.359 . S
C3 C8 1.348 . S
C4 C3 1.359 . S
C4 C5 1.380 . S
C4 H32 0.929 . S
C5 C4 1.380 . S
C5 C6 1.347 . S
C5 H33 0.931 . S
C6 C5 1.347 . S
C6 C7 1.369 . S
C7 C6 1.369 . S
C7 C8 1.408 . S
C7 H34 0.930 . S
C8 C3 1.348 . S
C8 C7 1.408 . S
C8 H35 0.930 . S
C9 O22 1.281 . S
C9 O23 1.254 . S
C10 O24 1.236 . S
C10 O25 1.266 . S
C11 Tb1 2.809 . S
C11 C12 1.514 . S
C11 O26 1.248 . S
C11 O27 1.266 . S
C12 C11 1.514 . S
C12 C13 1.359 . S
C12 C17 1.348 . S
C13 C12 1.359 . S
C13 C14 1.380 . S
C13 H36 0.929 . S
C14 C13 1.380 . S
C14 C15 1.347 . S
C14 H37 0.931 . S
C15 C14 1.347 . S
C15 C16 1.369 . S
C16 C15 1.369 . S
C16 C17 1.408 . S
C16 H38 0.930 . S
C17 C12 1.348 . S
C17 C16 1.408 . S
C17 H39 0.930 . S
C18 O28 1.281 . S
C18 O29 1.254 . S
C19 O30 1.236 . S
C19 O31 1.266 . S
O20 Tb0 2.484 . S
O20 C2 1.248 . S
O21 Tb0 2.440 . S
O21 C2 1.266 . S
O22 Tb0 2.658 . S
O22 Tb1 2.325 1_455 S
O22 C9 1.281 . S
O23 Tb0 2.409 . S
O23 C9 1.254 . S
O24 Tb0 2.378 . S
O24 C10 1.236 . S
O25 Tb1 2.341 1_455 S
O25 C10 1.266 . S
O26 Tb1 2.484 . S
O26 C11 1.248 . S
O27 Tb1 2.440 . S
O27 C11 1.266 . S
O28 Tb0 2.325 . S
O28 Tb1 2.658 1_455 S
O28 C18 1.281 . S
O29 Tb1 2.409 1_455 S
O29 C18 1.254 . S
O30 Tb1 2.378 . S
O30 C19 1.236 . S
O31 Tb0 2.341 1_655 S
O31 C19 1.266 . S
H32 C4 0.929 . S
H33 C5 0.931 . S
H34 C7 0.930 . S
H35 C8 0.930 . S
H36 C13 0.929 . S
H37 C14 0.931 . S
H38 C16 0.930 . S
H39 C17 0.930 . S
Tb40 C42 2.809 1_545 S
Tb40 O60 2.484 1_545 S
Tb40 O61 2.440 1_545 S
Tb40 O62 2.658 . S
Tb40 O63 2.409 . S
Tb40 O64 2.378 1_545 S
Tb40 O68 2.325 . S
Tb40 O71 2.341 . S
Tb41 C51 2.809 . S
Tb41 O62 2.325 . S
Tb41 O65 2.341 1_545 S
Tb41 O66 2.484 . S
Tb41 O67 2.440 . S
Tb41 O68 2.658 . S
Tb41 O69 2.409 . S
Tb41 O70 2.378 . S
C42 Tb40 2.809 1_565 S
C42 C43 1.514 . S
C42 O60 1.248 . S
C42 O61 1.266 . S
C43 C42 1.514 . S
C43 C44 1.359 . S
C43 C48 1.348 . S
C44 C43 1.359 . S
C44 C45 1.380 . S
C44 H72 0.929 . S
C45 C44 1.380 . S
C45 C46 1.347 . S
C45 H73 0.931 . S
C46 C45 1.347 . S
C46 C47 1.369 . S
C47 C46 1.369 . S
C47 C48 1.408 . S
C47 H74 0.930 . S
C48 C43 1.348 . S
C48 C47 1.408 . S
C48 H75 0.930 . S
C49 O62 1.281 . S
C49 O63 1.254 . S
C50 O64 1.236 . S
C50 O65 1.266 . S
C51 Tb41 2.809 . S
C51 C52 1.514 . S
C51 O66 1.248 . S
C51 O67 1.266 . S
C52 C51 1.514 . S
C52 C53 1.359 . S
C52 C57 1.348 . S
C53 C52 1.359 . S
C53 C54 1.380 . S
C53 H76 0.929 . S
C54 C53 1.380 . S
C54 C55 1.347 . S
C54 H77 0.931 . S
C55 C54 1.347 . S
C55 C56 1.369 . S
C56 C55 1.369 . S
C56 C57 1.408 . S
C56 H78 0.930 . S
C57 C52 1.348 . S
C57 C56 1.408 . S
C57 H79 0.930 . S
C58 O68 1.281 . S
C58 O69 1.254 . S
C59 O70 1.236 . S
C59 O71 1.266 . S
O60 Tb40 2.484 1_565 S
O60 C42 1.248 . S
O61 Tb40 2.440 1_565 S
O61 C42 1.266 . S
O62 Tb40 2.658 . S
O62 Tb41 2.325 . S
O62 C49 1.281 . S
O63 Tb40 2.409 . S
O63 C49 1.254 . S
O64 Tb40 2.378 1_565 S
O64 C50 1.236 . S
O65 Tb41 2.341 1_565 S
O65 C50 1.266 . S
O66 Tb41 2.484 . S
O66 C51 1.248 . S
O67 Tb41 2.440 . S
O67 C51 1.266 . S
O68 Tb40 2.325 . S
O68 Tb41 2.658 . S
O68 C58 1.281 . S
O69 Tb41 2.409 . S
O69 C58 1.254 . S
O70 Tb41 2.378 . S
O70 C59 1.236 . S
O71 Tb40 2.341 . S
O71 C59 1.266 . S
H72 C44 0.929 . S
H73 C45 0.931 . S
H74 C47 0.930 . S
H75 C48 0.930 . S
H76 C53 0.929 . S
H77 C54 0.931 . S
H78 C56 0.930 . S
H79 C57 0.930 . S
Tb80 C82 2.809 . S
Tb80 O100 2.484 . S
Tb80 O101 2.440 . S
Tb80 O102 2.658 . S
Tb80 O103 2.409 . S
Tb80 O104 2.378 . S
Tb80 O108 2.325 . S
Tb80 O111 2.341 . S
Tb81 C91 2.809 . S
Tb81 O102 2.325 . S
Tb81 O105 2.341 . S
Tb81 O106 2.484 . S
Tb81 O107 2.440 . S
Tb81 O108 2.658 . S
Tb81 O109 2.409 . S
Tb81 O110 2.378 . S
C82 Tb80 2.809 . S
C82 C83 1.514 . S
C82 O100 1.248 . S
C82 O101 1.266 . S
C83 C82 1.514 . S
C83 C84 1.359 . S
C83 C88 1.348 . S
C84 C83 1.359 . S
C84 C85 1.380 . S
C84 H112 0.929 . S
C85 C84 1.380 . S
C85 C86 1.347 . S
C85 H113 0.931 . S
C86 C85 1.347 . S
C86 C87 1.369 . S
C87 C86 1.369 . S
C87 C88 1.408 . S
C87 H114 0.930 . S
C88 C83 1.348 . S
C88 C87 1.408 . S
C88 H115 0.930 . S
C89 O102 1.281 . S
C89 O103 1.254 . S
C90 O104 1.236 . S
C90 O105 1.266 . S
C91 Tb81 2.809 . S
C91 C92 1.514 . S
C91 O106 1.248 . S
C91 O107 1.266 . S
C92 C91 1.514 . S
C92 C93 1.359 . S
C92 C97 1.348 . S
C93 C92 1.359 . S
C93 C94 1.380 . S
C93 H116 0.929 . S
C94 C93 1.380 . S
C94 C95 1.347 . S
C94 H117 0.931 . S
C95 C94 1.347 . S
C95 C96 1.369 . S
C96 C95 1.369 . S
C96 C97 1.408 . S
C96 H118 0.930 . S
C97 C92 1.348 . S
C97 C96 1.408 . S
C97 H119 0.930 . S
C98 O108 1.281 . S
C98 O109 1.254 . S
C99 O110 1.236 . S
C99 O111 1.266 . S
O100 Tb80 2.484 . S
O100 C82 1.248 . S
O101 Tb80 2.440 . S
O101 C82 1.266 . S
O102 Tb80 2.658 . S
O102 Tb81 2.325 . S
O102 C89 1.281 . S
O103 Tb80 2.409 . S
O103 C89 1.254 . S
O104 Tb80 2.378 . S
O104 C90 1.236 . S
O105 Tb81 2.341 . S
O105 C90 1.266 . S
O106 Tb81 2.484 . S
O106 C91 1.248 . S
O107 Tb81 2.440 . S
O107 C91 1.266 . S
O108 Tb80 2.325 . S
O108 Tb81 2.658 . S
O108 C98 1.281 . S
O109 Tb81 2.409 . S
O109 C98 1.254 . S
O110 Tb81 2.378 . S
O110 C99 1.236 . S
O111 Tb80 2.341 . S
O111 C99 1.266 . S
H112 C84 0.929 . S
H113 C85 0.931 . S
H114 C87 0.930 . S
H115 C88 0.930 . S
H116 C93 0.929 . S
H117 C94 0.931 . S
H118 C96 0.930 . S
H119 C97 0.930 . S
C120 C121 1.386 . S
C120 C122 1.397 . S
C120 H144 0.931 . S
C121 C120 1.386 . S
C121 C125 1.397 . S
C122 C120 1.397 . S
C122 C123 1.384 . S
C122 H145 0.930 . S
C123 C122 1.384 . S
C123 C124 1.377 . S
C123 C126 1.481 . S
C124 C123 1.377 . S
C124 C125 1.389 . S
C124 H146 0.929 1_545 S
C125 C121 1.397 . S
C125 C124 1.389 . S
C125 H147 0.931 1_545 S
C126 C123 1.481 . S
C126 C127 1.387 . S
C126 C131 1.390 . S
C127 C126 1.387 . S
C127 C128 1.401 . S
C127 H148 0.930 . S
C128 C127 1.401 . S
C128 C129 1.376 . S
C128 C137 1.511 . S
C129 C128 1.376 . S
C129 C130 1.392 . S
C129 H150 0.931 . S
C130 C129 1.392 . S
C130 C131 1.361 . S
C130 C132 1.500 1_545 S
C131 C126 1.390 . S
C131 C130 1.361 . S
C131 H149 0.931 1_545 S
C132 C130 1.500 1_565 S
C132 C133 1.371 . S
C132 C134 1.365 . S
C133 C132 1.371 . S
C133 C143 1.386 . S
C133 H151 0.931 1_565 S
C134 C132 1.365 . S
C134 C135 1.409 . S
C134 H152 0.929 . S
C135 C134 1.409 . S
C135 C136 1.380 . S
C135 H153 0.930 . S
C136 C135 1.380 . S
C136 C143 1.357 . S
C137 C128 1.511 . S
C137 C138 1.341 . S
C137 C139 1.371 . S
C138 C137 1.341 . S
C138 C142 1.394 . S
C138 H154 0.930 . S
C139 C137 1.371 . S
C139 C140 1.392 . S
C139 H155 0.931 . S
C140 C139 1.392 . S
C140 C141 1.331 . S
C140 H158 0.932 . S
C141 C140 1.331 . S
C141 C142 1.336 . S
C142 C138 1.394 . S
C142 C141 1.336 . S
C142 H157 0.929 . S
C143 C133 1.386 . S
C143 C136 1.357 . S
C143 H156 0.928 . S
H144 C120 0.931 . S
H145 C122 0.930 . S
H146 C124 0.929 1_565 S
H147 C125 0.931 1_565 S
H148 C127 0.930 . S
H149 C131 0.931 1_565 S
H150 C129 0.931 . S
H151 C133 0.931 1_545 S
H152 C134 0.929 . S
H153 C135 0.930 . S
H154 C138 0.930 . S
H155 C139 0.931 . S
H156 C143 0.928 . S
H157 C142 0.929 . S
H158 C140 0.932 . S
C159 C160 1.386 . S
C159 C161 1.397 . S
C159 H183 0.931 . S
C160 C159 1.386 . S
C160 C164 1.397 . S
C161 C159 1.397 . S
C161 C162 1.384 . S
C161 H184 0.930 . S
C162 C161 1.384 . S
C162 C163 1.377 . S
C162 C165 1.481 . S
C163 C162 1.377 . S
C163 C164 1.389 . S
C163 H185 0.929 . S
C164 C160 1.397 . S
C164 C163 1.389 . S
C164 H186 0.931 . S
C165 C162 1.481 . S
C165 C166 1.387 . S
C165 C170 1.390 . S
C166 C165 1.387 . S
C166 C167 1.401 . S
C166 H187 0.930 . S
C167 C166 1.401 . S
C167 C168 1.376 . S
C167 C176 1.511 . S
C168 C167 1.376 . S
C168 C169 1.392 . S
C168 H189 0.931 . S
C169 C168 1.392 . S
C169 C170 1.361 . S
C169 C171 1.500 . S
C170 C165 1.390 . S
C170 C169 1.361 . S
C170 H188 0.931 . S
C171 C169 1.500 . S
C171 C172 1.371 . S
C171 C173 1.365 . S
C172 C171 1.371 . S
C172 C182 1.386 . S
C172 H190 0.931 . S
C173 C171 1.365 . S
C173 C174 1.409 . S
C173 H191 0.929 . S
C174 C173 1.409 . S
C174 C175 1.380 . S
C174 H192 0.930 . S
C175 C174 1.380 . S
C175 C182 1.357 . S
C176 C167 1.511 . S
C176 C177 1.341 . S
C176 C178 1.371 . S
C177 C176 1.341 . S
C177 C181 1.394 . S
C177 H193 0.930 . S
C178 C176 1.371 . S
C178 C179 1.392 . S
C178 H194 0.931 . S
C179 C178 1.392 . S
C179 C180 1.331 . S
C179 H197 0.932 . S
C180 C179 1.331 . S
C180 C181 1.336 . S
C181 C177 1.394 . S
C181 C180 1.336 . S
C181 H196 0.929 . S
C182 C172 1.386 . S
C182 C175 1.357 . S
C182 H195 0.928 . S
H183 C159 0.931 . S
H184 C161 0.930 . S
H185 C163 0.929 . S
H186 C164 0.931 . S
H187 C166 0.930 . S
H188 C170 0.931 . S
H189 C168 0.931 . S
H190 C172 0.931 . S
H191 C173 0.929 . S
H192 C174 0.930 . S
H193 C177 0.930 . S
H194 C178 0.931 . S
H195 C182 0.928 . S
H196 C181 0.929 . S
H197 C179 0.932 . S
C198 C199 1.386 . S
C198 C200 1.397 . S
C198 H222 0.931 . S
C199 C198 1.386 . S
C199 C203 1.397 1_455 S
C200 C198 1.397 . S
C200 C201 1.384 . S
C200 H223 0.930 . S
C201 C200 1.384 . S
C201 C202 1.377 1_455 S
C201 C204 1.481 . S
C202 C201 1.377 1_655 S
C202 C203 1.389 . S
C202 H224 0.929 . S
C203 C199 1.397 1_655 S
C203 C202 1.389 . S
C203 H225 0.931 . S
C204 C201 1.481 . S
C204 C205 1.387 . S
C204 C209 1.390 1_455 S
C205 C204 1.387 . S
C205 C206 1.401 . S
C205 H226 0.930 . S
C206 C205 1.401 . S
C206 C207 1.376 . S
C206 C215 1.511 . S
C207 C206 1.376 . S
C207 C208 1.392 1_455 S
C207 H228 0.931 . S
C208 C207 1.392 1_655 S
C208 C209 1.361 . S
C208 C210 1.500 . S
C209 C204 1.390 1_655 S
C209 C208 1.361 . S
C209 H227 0.931 . S
C210 C208 1.500 . S
C210 C211 1.371 . S
C210 C212 1.365 . S
C211 C210 1.371 . S
C211 C221 1.386 . S
C211 H229 0.931 . S
C212 C210 1.365 . S
C212 C213 1.409 . S
C212 H230 0.929 . S
C213 C212 1.409 . S
C213 C214 1.380 . S
C213 H231 0.930 . S
C214 C213 1.380 . S
C214 C221 1.357 . S
C215 C206 1.511 . S
C215 C216 1.341 . S
C215 C217 1.371 . S
C216 C215 1.341 . S
C216 C220 1.394 . S
C216 H232 0.930 . S
C217 C215 1.371 . S
C217 C218 1.392 . S
C217 H233 0.931 . S
C218 C217 1.392 . S
C218 C219 1.331 . S
C218 H236 0.932 . S
C219 C218 1.331 . S
C219 C220 1.336 . S
C220 C216 1.394 . S
C220 C219 1.336 . S
C220 H235 0.929 . S
C221 C211 1.386 . S
C221 C214 1.357 . S
C221 H234 0.928 . S
H222 C198 0.931 . S
H223 C200 0.930 . S
H224 C202 0.929 . S
H225 C203 0.931 . S
H226 C205 0.930 . S
H227 C209 0.931 . S
H228 C207 0.931 . S
H229 C211 0.931 . S
H230 C212 0.929 . S
H231 C213 0.930 . S
H232 C216 0.930 . S
H233 C217 0.931 . S
H234 C221 0.928 . S
H235 C220 0.929 . S
H236 C218 0.932 . S
C237 C238 1.386 . S
C237 C239 1.397 . S
C237 H261 0.931 1_455 S
C238 C237 1.386 . S
C238 C242 1.397 . S
C239 C237 1.397 . S
C239 C240 1.384 . S
C239 H262 0.930 1_455 S
C240 C239 1.384 . S
C240 C241 1.377 . S
C240 C243 1.481 . S
C241 C240 1.377 . S
C241 C242 1.389 . S
C241 H263 0.929 . S
C242 C238 1.397 . S
C242 C241 1.389 . S
C242 H264 0.931 . S
C243 C240 1.481 . S
C243 C244 1.387 . S
C243 C248 1.390 . S
C244 C243 1.387 . S
C244 C245 1.401 . S
C244 H265 0.930 1_455 S
C245 C244 1.401 . S
C245 C246 1.376 . S
C245 C254 1.511 1_455 S
C246 C245 1.376 . S
C246 C247 1.392 . S
C246 H267 0.931 . S
C247 C246 1.392 . S
C247 C248 1.361 . S
C247 C249 1.500 . S
C248 C243 1.390 . S
C248 C247 1.361 . S
C248 H266 0.931 . S
C249 C247 1.500 . S
C249 C250 1.371 . S
C249 C251 1.365 . S
C250 C249 1.371 . S
C250 C260 1.386 . S
C250 H268 0.931 . S
C251 C249 1.365 . S
C251 C252 1.409 . S
C251 H269 0.929 . S
C252 C251 1.409 . S
C252 C253 1.380 . S
C252 H270 0.930 . S
C253 C252 1.380 . S
C253 C260 1.357 . S
C254 C245 1.511 1_655 S
C254 C255 1.341 . S
C254 C256 1.371 . S
C255 C254 1.341 . S
C255 C259 1.394 . S
C255 H271 0.930 . S
C256 C254 1.371 . S
C256 C257 1.392 . S
C256 H272 0.931 1_655 S
C257 C256 1.392 . S
C257 C258 1.331 . S
C257 H275 0.932 . S
C258 C257 1.331 . S
C258 C259 1.336 . S
C259 C255 1.394 . S
C259 C258 1.336 . S
C259 H274 0.929 . S
C260 C250 1.386 . S
C260 C253 1.357 . S
C260 H273 0.928 . S
H261 C237 0.931 1_655 S
H262 C239 0.930 1_655 S
H263 C241 0.929 . S
H264 C242 0.931 . S
H265 C244 0.930 1_655 S
H266 C248 0.931 . S
H267 C246 0.931 . S
H268 C250 0.931 . S
H269 C251 0.929 . S
H270 C252 0.930 . S
H271 C255 0.930 . S
H272 C256 0.931 1_455 S
H273 C260 0.928 . S
H274 C259 0.929 . S
H275 C257 0.932 . S
C276 C277 1.386 1_565 S
C276 C278 1.397 . S
C276 H300 0.931 . S
C277 C276 1.386 1_545 S
C277 C281 1.397 . S
C278 C276 1.397 . S
C278 C279 1.384 1_565 S
C278 H301 0.930 . S
C279 C278 1.384 1_545 S
C279 C280 1.377 . S
C279 C282 1.481 . S
C280 C279 1.377 . S
C280 C281 1.389 . S
C280 H302 0.929 . S
C281 C277 1.397 . S
C281 C280 1.389 . S
C281 H303 0.931 . S
C282 C279 1.481 . S
C282 C283 1.387 1_545 S
C282 C287 1.390 . S
C283 C282 1.387 1_565 S
C283 C284 1.401 . S
C283 H304 0.930 . S
C284 C283 1.401 . S
C284 C285 1.376 1_565 S
C284 C293 1.511 . S
C285 C284 1.376 1_545 S
C285 C286 1.392 . S
C285 H306 0.932 . S
C286 C285 1.392 . S
C286 C287 1.361 . S
C286 C288 1.500 . S
C287 C282 1.390 . S
C287 C286 1.361 . S
C287 H305 0.931 . S
C288 C286 1.500 . S
C288 C289 1.371 . S
C288 C290 1.365 . S
C289 C288 1.371 . S
C289 C299 1.386 . S
C289 H307 0.931 . S
C290 C288 1.365 . S
C290 C291 1.409 . S
C290 H308 0.929 . S
C291 C290 1.409 . S
C291 C292 1.380 . S
C291 H309 0.930 . S
C292 C291 1.380 . S
C292 C299 1.357 . S
C293 C284 1.511 . S
C293 C294 1.341 . S
C293 C295 1.371 . S
C294 C293 1.341 . S
C294 C298 1.394 . S
C294 H310 0.930 . S
C295 C293 1.371 . S
C295 C296 1.392 . S
C295 H311 0.931 . S
C296 C295 1.392 . S
C296 C297 1.331 . S
C296 H314 0.932 . S
C297 C296 1.331 . S
C297 C298 1.336 . S
C298 C294 1.394 . S
C298 C297 1.336 . S
C298 H313 0.929 . S
C299 C289 1.386 . S
C299 C292 1.357 . S
C299 H312 0.928 . S
H300 C276 0.931 . S
H301 C278 0.930 . S
H302 C280 0.929 . S
H303 C281 0.931 . S
H304 C283 0.930 . S
H305 C287 0.931 . S
H306 C285 0.932 . S
H307 C289 0.931 . S
H308 C290 0.929 . S
H309 C291 0.930 . S
H310 C294 0.930 . S
H311 C295 0.931 . S
H312 C299 0.928 . S
H313 C298 0.929 . S
H314 C296 0.932 . S
C315 C316 1.386 . S
C315 C317 1.397 . S
C315 H339 0.931 . S
C316 C315 1.386 . S
C316 C320 1.397 . S
C317 C315 1.397 . S
C317 C318 1.384 . S
C317 H340 0.930 . S
C318 C317 1.384 . S
C318 C319 1.377 . S
C318 C321 1.481 . S
C319 C318 1.377 . S
C319 C320 1.389 . S
C319 H341 0.929 . S
C320 C316 1.397 . S
C320 C319 1.389 . S
C320 H342 0.931 . S
C321 C318 1.481 . S
C321 C322 1.387 . S
C321 C326 1.390 . S
C322 C321 1.387 . S
C322 C323 1.401 . S
C322 H343 0.930 . S
C323 C322 1.401 . S
C323 C324 1.376 . S
C323 C332 1.511 . S
C324 C323 1.376 . S
C324 C325 1.392 . S
C324 H345 0.931 . S
C325 C324 1.392 . S
C325 C326 1.361 . S
C325 C327 1.500 . S
C326 C321 1.390 . S
C326 C325 1.361 . S
C326 H344 0.931 . S
C327 C325 1.500 . S
C327 C328 1.371 . S
C327 C329 1.365 . S
C328 C327 1.371 . S
C328 C338 1.386 . S
C328 H346 0.931 . S
C329 C327 1.365 . S
C329 C330 1.409 . S
C329 H347 0.929 . S
C330 C329 1.409 . S
C330 C331 1.380 . S
C330 H348 0.930 . S
C331 C330 1.380 . S
C331 C338 1.357 . S
C332 C323 1.511 . S
C332 C333 1.341 . S
C332 C334 1.371 . S
C333 C332 1.341 . S
C333 C337 1.394 . S
C333 H349 0.930 . S
C334 C332 1.371 . S
C334 C335 1.392 . S
C334 H350 0.931 . S
C335 C334 1.392 . S
C335 C336 1.331 . S
C335 H353 0.932 . S
C336 C335 1.331 . S
C336 C337 1.336 . S
C337 C333 1.394 . S
C337 C336 1.336 . S
C337 H352 0.929 . S
C338 C328 1.386 . S
C338 C331 1.357 . S
C338 H351 0.928 . S
H339 C315 0.931 . S
H340 C317 0.930 . S
H341 C319 0.929 . S
H342 C320 0.931 . S
H343 C322 0.930 . S
H344 C326 0.931 . S
H345 C324 0.931 . S
H346 C328 0.931 . S
H347 C329 0.929 . S
H348 C330 0.930 . S
H349 C333 0.930 . S
H350 C334 0.931 . S
H351 C338 0.928 . S
H352 C337 0.929 . S
H353 C335 0.932 . S
H354 C360 0.930 . S
H355 C364 0.930 . S
H356 C369 0.929 . S
H357 C367 0.929 . S
H358 C362 0.929 . S
H359 C368 0.929 . S
C360 H354 0.930 . S
C360 C361 1.367 . S
C360 C368 1.378 . S
C361 C360 1.367 . S
C361 C369 1.433 . S
C362 H358 0.929 . S
C362 C364 1.378 . S
C362 C366 1.350 . S
C363 C366 1.463 . S
C363 C368 1.350 . S
C363 N371 1.427 . S
C364 H355 0.930 . S
C364 C362 1.378 . S
C364 C365 1.367 . S
C365 C364 1.367 . S
C365 C367 1.433 . S
C366 C362 1.350 . S
C366 C363 1.463 . S
C366 N370 1.427 . S
C367 H357 0.929 . S
C367 C365 1.433 . S
C367 N370 1.384 . S
C368 H359 0.929 . S
C368 C360 1.378 . S
C368 C363 1.350 . S
C369 H356 0.929 . S
C369 C361 1.433 . S
C369 N371 1.384 . S
N370 C366 1.427 . S
N370 C367 1.384 . S
N371 C363 1.427 . S
N371 C369 1.384 . S
H372 C378 0.930 . S
H373 C382 0.930 . S
H374 C387 0.929 . S
H375 C385 0.929 . S
H376 C380 0.929 . S
H377 C386 0.929 . S
C378 H372 0.930 . S
C378 C379 1.367 . S
C378 C386 1.378 . S
C379 C378 1.367 . S
C379 C387 1.433 . S
C380 H376 0.929 . S
C380 C382 1.378 . S
C380 C384 1.350 . S
C381 C384 1.463 . S
C381 C386 1.350 . S
C381 N389 1.427 . S
C382 H373 0.930 . S
C382 C380 1.378 . S
C382 C383 1.367 . S
C383 C382 1.367 . S
C383 C385 1.433 . S
C384 C380 1.350 . S
C384 C381 1.463 . S
C384 N388 1.427 . S
C385 H375 0.929 . S
C385 C383 1.433 . S
C385 N388 1.384 . S
C386 H377 0.929 . S
C386 C378 1.378 . S
C386 C381 1.350 . S
C387 H374 0.929 . S
C387 C379 1.433 . S
C387 N389 1.384 . S
N388 C384 1.427 . S
N388 C385 1.384 . S
N389 C381 1.427 . S
N389 C387 1.384 . S
H390 C396 0.930 . S
H391 C400 0.930 . S
H392 C405 0.929 . S
H393 C403 0.929 . S
H394 C398 0.929 . S
H395 C404 0.929 . S
C396 H390 0.930 . S
C396 C397 1.367 . S
C396 C404 1.378 . S
C397 C396 1.367 . S
C397 C405 1.433 . S
C398 H394 0.929 . S
C398 C400 1.378 . S
C398 C402 1.350 . S
C399 C402 1.463 . S
C399 C404 1.350 . S
C399 N407 1.427 . S
C400 H391 0.930 . S
C400 C398 1.378 . S
C400 C401 1.367 . S
C401 C400 1.367 . S
C401 C403 1.433 . S
C402 C398 1.350 . S
C402 C399 1.463 . S
C402 N406 1.427 . S
C403 H393 0.929 . S
C403 C401 1.433 . S
C403 N406 1.384 . S
C404 H395 0.929 . S
C404 C396 1.378 . S
C404 C399 1.350 . S
C405 H392 0.929 . S
C405 C397 1.433 . S
C405 N407 1.384 . S
N406 C402 1.427 . S
N406 C403 1.384 . S
N407 C399 1.427 . S
N407 C405 1.384 . S
H408 C414 0.930 . S
H409 C418 0.930 . S
H410 C423 0.929 . S
H411 C421 0.929 . S
H412 C416 0.929 . S
H413 C422 0.929 . S
C414 H408 0.930 . S
C414 C415 1.367 . S
C414 C422 1.378 . S
C415 C414 1.367 . S
C415 C423 1.433 . S
C416 H412 0.929 . S
C416 C418 1.378 . S
C416 C420 1.350 . S
C417 C420 1.463 . S
C417 C422 1.350 . S
C417 N425 1.427 . S
C418 H409 0.930 . S
C418 C416 1.378 . S
C418 C419 1.367 . S
C419 C418 1.367 . S
C419 C421 1.433 . S
C420 C416 1.350 . S
C420 C417 1.463 . S
C420 N424 1.427 . S
C421 H411 0.929 . S
C421 C419 1.433 . S
C421 N424 1.384 . S
C422 H413 0.929 . S
C422 C414 1.378 . S
C422 C417 1.350 . S
C423 H410 0.929 . S
C423 C415 1.433 . S
C423 N425 1.384 . S
N424 C420 1.427 . S
N424 C421 1.384 . S
N425 C417 1.427 . S
N425 C423 1.384 . S
H426 C432 0.930 . S
H427 C436 0.930 . S
H428 C441 0.929 . S
H429 C439 0.929 . S
H430 C434 0.929 . S
H431 C440 0.929 . S
C432 H426 0.930 . S
C432 C433 1.367 . S
C432 C440 1.378 . S
C433 C432 1.367 . S
C433 C441 1.433 . S
C434 H430 0.929 . S
C434 C436 1.378 . S
C434 C438 1.350 . S
C435 C438 1.463 . S
C435 C440 1.350 . S
C435 N443 1.427 . S
C436 H427 0.930 . S
C436 C434 1.378 . S
C436 C437 1.367 . S
C437 C436 1.367 . S
C437 C439 1.433 . S
C438 C434 1.350 . S
C438 C435 1.463 . S
C438 N442 1.427 . S
C439 H429 0.929 . S
C439 C437 1.433 . S
C439 N442 1.384 . S
C440 H431 0.929 . S
C440 C432 1.378 . S
C440 C435 1.350 . S
C441 H428 0.929 . S
C441 C433 1.433 . S
C441 N443 1.384 . S
N442 C438 1.427 . S
N442 C439 1.384 . S
N443 C435 1.427 . S
N443 C441 1.384 . S
H444 C450 0.930 . S
H445 C454 0.930 . S
H446 C459 0.929 . S
H447 C457 0.929 . S
H448 C452 0.929 . S
H449 C458 0.929 . S
C450 H444 0.930 . S
C450 C451 1.367 . S
C450 C458 1.378 . S
C451 C450 1.367 . S
C451 C459 1.433 . S
C452 H448 0.929 . S
C452 C454 1.378 . S
C452 C456 1.350 . S
C453 C456 1.463 . S
C453 C458 1.350 . S
C453 N461 1.427 . S
C454 H445 0.930 . S
C454 C452 1.378 . S
C454 C455 1.367 . S
C455 C454 1.367 . S
C455 C457 1.433 . S
C456 C452 1.350 . S
C456 C453 1.463 . S
C456 N460 1.427 . S
C457 H447 0.929 . S
C457 C455 1.433 . S
C457 N460 1.384 . S
C458 H449 0.929 . S
C458 C450 1.378 . S
C458 C453 1.350 . S
C459 H446 0.929 . S
C459 C451 1.433 . S
C459 N461 1.384 . S
N460 C456 1.427 . S
N460 C457 1.384 . S
N461 C453 1.427 . S
N461 C459 1.384 . S
H462 C468 0.930 . S
H463 C472 0.930 . S
H464 C477 0.929 . S
H465 C475 0.929 . S
H466 C470 0.929 . S
H467 C476 0.929 . S
C468 H462 0.930 . S
C468 C469 1.367 . S
C468 C476 1.378 . S
C469 C468 1.367 . S
C469 C477 1.433 . S
C470 H466 0.929 . S
C470 C472 1.378 . S
C470 C474 1.350 . S
C471 C474 1.463 . S
C471 C476 1.350 . S
C471 N479 1.427 . S
C472 H463 0.930 . S
C472 C470 1.378 . S
C472 C473 1.367 . S
C473 C472 1.367 . S
C473 C475 1.433 . S
C474 C470 1.350 . S
C474 C471 1.463 . S
C474 N478 1.427 . S
C475 H465 0.929 . S
C475 C473 1.433 . S
C475 N478 1.384 . S
C476 H467 0.929 . S
C476 C468 1.378 . S
C476 C471 1.350 . S
C477 H464 0.929 . S
C477 C469 1.433 . S
C477 N479 1.384 . S
N478 C474 1.427 . S
N478 C475 1.384 . S
N479 C471 1.427 . S
N479 C477 1.384 . S
H480 C486 0.930 . S
H481 C490 0.930 . S
H482 C495 0.929 . S
H483 C493 0.929 . S
H484 C488 0.929 . S
H485 C494 0.929 . S
C486 H480 0.930 . S
C486 C487 1.367 . S
C486 C494 1.378 . S
C487 C486 1.367 . S
C487 C495 1.433 . S
C488 H484 0.929 . S
C488 C490 1.378 . S
C488 C492 1.350 . S
C489 C492 1.463 . S
C489 C494 1.350 . S
C489 N497 1.427 . S
C490 H481 0.930 . S
C490 C488 1.378 . S
C490 C491 1.367 . S
C491 C490 1.367 . S
C491 C493 1.433 . S
C492 C488 1.350 . S
C492 C489 1.463 . S
C492 N496 1.427 . S
C493 H483 0.929 . S
C493 C491 1.433 . S
C493 N496 1.384 . S
C494 H485 0.929 . S
C494 C486 1.378 . S
C494 C489 1.350 . S
C495 H482 0.929 . S
C495 C487 1.433 . S
C495 N497 1.384 . S
N496 C492 1.427 . S
N496 C493 1.384 . S
N497 C489 1.427 . S
N497 C495 1.384 . S
H498 C504 0.930 . S
H499 C508 0.930 . S
H500 C513 0.929 . S
H501 C511 0.929 . S
H502 C506 0.929 . S
H503 C512 0.929 . S
C504 H498 0.930 . S
C504 C505 1.367 . S
C504 C512 1.378 . S
C505 C504 1.367 . S
C505 C513 1.433 . S
C506 H502 0.929 . S
C506 C508 1.378 . S
C506 C510 1.350 . S
C507 C510 1.463 . S
C507 C512 1.350 . S
C507 N515 1.427 . S
C508 H499 0.930 . S
C508 C506 1.378 . S
C508 C509 1.367 . S
C509 C508 1.367 . S
C509 C511 1.433 . S
C510 C506 1.350 . S
C510 C507 1.463 . S
C510 N514 1.427 . S
C511 H501 0.929 . S
C511 C509 1.433 . S
C511 N514 1.384 . S
C512 H503 0.929 . S
C512 C504 1.378 . S
C512 C507 1.350 . S
C513 H500 0.929 . S
C513 C505 1.433 . S
C513 N515 1.384 . S
N514 C510 1.427 . S
N514 C511 1.384 . S
N515 C507 1.427 . S
N515 C513 1.384 . S
H516 C522 0.930 . S
H517 C526 0.930 . S
H518 C531 0.929 . S
H519 C529 0.929 . S
H520 C524 0.929 . S
H521 C530 0.929 . S
C522 H516 0.930 . S
C522 C523 1.367 . S
C522 C530 1.378 . S
C523 C522 1.367 . S
C523 C531 1.433 . S
C524 H520 0.929 . S
C524 C526 1.378 . S
C524 C528 1.350 . S
C525 C528 1.463 . S
C525 C530 1.350 . S
C525 N533 1.427 . S
C526 H517 0.930 . S
C526 C524 1.378 . S
C526 C527 1.367 . S
C527 C526 1.367 . S
C527 C529 1.433 . S
C528 C524 1.350 . S
C528 C525 1.463 . S
C528 N532 1.427 . S
C529 H519 0.929 . S
C529 C527 1.433 . S
C529 N532 1.384 . S
C530 H521 0.929 . S
C530 C522 1.378 . S
C530 C525 1.350 . S
C531 H518 0.929 . S
C531 C523 1.433 . S
C531 N533 1.384 . S
N532 C528 1.427 . S
N532 C529 1.384 . S
N533 C525 1.427 . S
N533 C531 1.384 . S
H534 C540 0.930 . S
H535 C544 0.930 . S
H536 C549 0.929 . S
H537 C547 0.929 . S
H538 C542 0.929 . S
H539 C548 0.929 . S
C540 H534 0.930 . S
C540 C541 1.367 . S
C540 C548 1.378 . S
C541 C540 1.367 . S
C541 C549 1.433 . S
C542 H538 0.929 . S
C542 C544 1.378 . S
C542 C546 1.350 . S
C543 C546 1.463 . S
C543 C548 1.350 . S
C543 N551 1.427 . S
C544 H535 0.930 . S
C544 C542 1.378 . S
C544 C545 1.367 . S
C545 C544 1.367 . S
C545 C547 1.433 . S
C546 C542 1.350 . S
C546 C543 1.463 . S
C546 N550 1.427 . S
C547 H537 0.929 . S
C547 C545 1.433 . S
C547 N550 1.384 . S
C548 H539 0.929 . S
C548 C540 1.378 . S
C548 C543 1.350 . S
C549 H536 0.929 . S
C549 C541 1.433 . S
C549 N551 1.384 . S
N550 C546 1.427 . S
N550 C547 1.384 . S
N551 C543 1.427 . S
N551 C549 1.384 . S
H552 C558 0.930 . S
H553 C562 0.930 . S
H554 C567 0.929 . S
H555 C565 0.929 . S
H556 C560 0.929 . S
H557 C566 0.929 . S
C558 H552 0.930 . S
C558 C559 1.367 . S
C558 C566 1.378 . S
C559 C558 1.367 . S
C559 C567 1.433 . S
C560 H556 0.929 . S
C560 C562 1.378 . S
C560 C564 1.350 . S
C561 C564 1.463 . S
C561 C566 1.350 . S
C561 N569 1.427 . S
C562 H553 0.930 . S
C562 C560 1.378 . S
C562 C563 1.367 . S
C563 C562 1.367 . S
C563 C565 1.433 . S
C564 C560 1.350 . S
C564 C561 1.463 . S
C564 N568 1.427 . S
C565 H555 0.929 . S
C565 C563 1.433 . S
C565 N568 1.384 . S
C566 H557 0.929 . S
C566 C558 1.378 . S
C566 C561 1.350 . S
C567 H554 0.929 . S
C567 C559 1.433 . S
C567 N569 1.384 . S
N568 C564 1.427 . S
N568 C565 1.384 . S
N569 C561 1.427 . S
N569 C567 1.384 . S
H570 C576 0.930 . S
H571 C580 0.930 . S
H572 C585 0.929 . S
H573 C583 0.929 . S
H574 C578 0.929 . S
H575 C584 0.929 . S
C576 H570 0.930 . S
C576 C577 1.367 1_655 S
C576 C584 1.378 . S
C577 C576 1.367 1_455 S
C577 C585 1.433 . S
C578 H574 0.929 . S
C578 C580 1.378 . S
C578 C582 1.350 . S
C579 C582 1.463 . S
C579 C584 1.350 1_455 S
C579 N587 1.427 . S
C580 H571 0.930 . S
C580 C578 1.378 . S
C580 C581 1.367 . S
C581 C580 1.367 . S
C581 C583 1.433 1_455 S
C582 C578 1.350 . S
C582 C579 1.463 . S
C582 N586 1.427 1_455 S
C583 H573 0.929 . S
C583 C581 1.433 1_655 S
C583 N586 1.384 . S
C584 H575 0.929 . S
C584 C576 1.378 . S
C584 C579 1.350 1_655 S
C585 H572 0.929 . S
C585 C577 1.433 . S
C585 N587 1.384 . S
N586 C582 1.427 1_655 S
N586 C583 1.384 . S
N587 C579 1.427 . S
N587 C585 1.384 . S
H588 C594 0.930 1_565 S
H589 C598 0.930 . S
H590 C603 0.929 . S
H591 C601 0.929 1_565 S
H592 C596 0.929 . S
H593 C602 0.929 1_565 S
C594 H588 0.930 1_545 S
C594 C595 1.367 . S
C594 C602 1.378 . S
C595 C594 1.367 . S
C595 C603 1.433 . S
C596 H592 0.929 . S
C596 C598 1.378 . S
C596 C600 1.350 . S
C597 C600 1.463 . S
C597 C602 1.350 . S
C597 N605 1.427 . S
C598 H589 0.930 . S
C598 C596 1.378 . S
C598 C599 1.367 . S
C599 C598 1.367 . S
C599 C601 1.433 . S
C600 C596 1.350 . S
C600 C597 1.463 . S
C600 N604 1.427 . S
C601 H591 0.929 1_545 S
C601 C599 1.433 . S
C601 N604 1.384 . S
C602 H593 0.929 1_545 S
C602 C594 1.378 . S
C602 C597 1.350 . S
C603 H590 0.929 . S
C603 C595 1.433 . S
C603 N605 1.384 . S
N604 C600 1.427 . S
N604 C601 1.384 . S
N605 C597 1.427 . S
N605 C603 1.384 . S
H606 C612 0.930 . S
H607 C616 0.930 . S
H608 C621 0.929 . S
H609 C619 0.929 . S
H610 C614 0.929 . S
H611 C620 0.929 . S
C612 H606 0.930 . S
C612 C613 1.367 . S
C612 C620 1.378 . S
C613 C612 1.367 . S
C613 C621 1.433 . S
C614 H610 0.929 . S
C614 C616 1.378 . S
C614 C618 1.350 . S
C615 C618 1.463 . S
C615 C620 1.350 . S
C615 N623 1.427 . S
C616 H607 0.930 . S
C616 C614 1.378 . S
C616 C617 1.367 . S
C617 C616 1.367 . S
C617 C619 1.433 . S
C618 C614 1.350 . S
C618 C615 1.463 . S
C618 N622 1.427 . S
C619 H609 0.929 . S
C619 C617 1.433 . S
C619 N622 1.384 . S
C620 H611 0.929 . S
C620 C612 1.378 . S
C620 C615 1.350 . S
C621 H608 0.929 . S
C621 C613 1.433 . S
C621 N623 1.384 . S
N622 C618 1.427 . S
N622 C619 1.384 . S
N623 C615 1.427 . S
N623 C621 1.384 . S
H624 C630 0.930 . S
H625 C634 0.930 . S
H626 C639 0.929 . S
H627 C637 0.929 . S
H628 C632 0.929 . S
H629 C638 0.929 . S
C630 H624 0.930 . S
C630 C631 1.367 . S
C630 C638 1.378 . S
C631 C630 1.367 . S
C631 C639 1.433 1_545 S
C632 H628 0.929 . S
C632 C634 1.378 . S
C632 C636 1.350 1_565 S
C633 C636 1.463 . S
C633 C638 1.350 . S
C633 N641 1.427 1_545 S
C634 H625 0.930 . S
C634 C632 1.378 . S
C634 C635 1.367 1_565 S
C635 C634 1.367 1_545 S
C635 C637 1.433 . S
C636 C632 1.350 1_545 S
C636 C633 1.463 . S
C636 N640 1.427 . S
C637 H627 0.929 . S
C637 C635 1.433 . S
C637 N640 1.384 . S
C638 H629 0.929 . S
C638 C630 1.378 . S
C638 C633 1.350 . S
C639 H626 0.929 . S
C639 C631 1.433 1_565 S
C639 N641 1.384 . S
N640 C636 1.427 . S
N640 C637 1.384 . S
N641 C633 1.427 1_565 S
N641 C639 1.384 . S
H642 C648 0.930 . S
H643 C652 0.930 . S
H644 C657 0.929 . S
H645 C655 0.929 . S
H646 C650 0.929 . S
H647 C656 0.929 . S
C648 H642 0.930 . S
C648 C649 1.367 . S
C648 C656 1.378 . S
C649 C648 1.367 . S
C649 C657 1.433 . S
C650 H646 0.929 . S
C650 C652 1.378 . S
C650 C654 1.350 . S
C651 C654 1.463 . S
C651 C656 1.350 . S
C651 N659 1.427 . S
C652 H643 0.930 . S
C652 C650 1.378 . S
C652 C653 1.367 . S
C653 C652 1.367 . S
C653 C655 1.433 . S
C654 C650 1.350 . S
C654 C651 1.463 . S
C654 N658 1.427 . S
C655 H645 0.929 . S
C655 C653 1.433 . S
C655 N658 1.384 . S
C656 H647 0.929 . S
C656 C648 1.378 . S
C656 C651 1.350 . S
C657 H644 0.929 . S
C657 C649 1.433 . S
C657 N659 1.384 . S
N658 C654 1.427 . S
N658 C655 1.384 . S
N659 C651 1.427 . S
N659 C657 1.384 . S
H660 C666 0.930 . S
H661 C670 0.930 . S
H662 C675 0.929 . S
H663 C673 0.929 . S
H664 C668 0.929 . S
H665 C674 0.929 . S
C666 H660 0.930 . S
C666 C667 1.367 . S
C666 C674 1.378 . S
C667 C666 1.367 . S
C667 C675 1.433 . S
C668 H664 0.929 . S
C668 C670 1.378 . S
C668 C672 1.350 . S
C669 C672 1.463 . S
C669 C674 1.350 . S
C669 N677 1.427 . S
C670 H661 0.930 . S
C670 C668 1.378 . S
C670 C671 1.367 . S
C671 C670 1.367 . S
C671 C673 1.433 . S
C672 C668 1.350 . S
C672 C669 1.463 . S
C672 N676 1.427 . S
C673 H663 0.929 . S
C673 C671 1.433 . S
C673 N676 1.384 . S
C674 H665 0.929 . S
C674 C666 1.378 . S
C674 C669 1.350 . S
C675 H662 0.929 . S
C675 C667 1.433 . S
C675 N677 1.384 . S
N676 C672 1.427 . S
N676 C673 1.384 . S
N677 C669 1.427 . S
N677 C675 1.384 . S
C361 C10 3.035 . S
C365 C331 2.996 . S
C379 C59 3.108 . S
C383 C258 3.060 . S
C397 C90 3.029 . S
C401 C297 2.998 . S
C415 C19 3.093 . S
C419 C336 3.045 . S
C437 C253 2.984 . S
C433 C50 3.017 . S
C455 C292 3.050 . S
C451 C99 3.099 . S
C469 C46 0.439 . S
C473 C180 0.445 . S
C487 C95 0.400 . S
C491 C214 0.317 . S
C505 C6 0.425 . S
C509 C136 0.425 . S
C527 C175 0.293 . S
C523 C55 0.408 . S
C545 C219 0.428 . S
C541 C86 0.435 . S
C559 C15 0.374 . S
C563 C141 0.321 . S
C581 C199 1.073 1_554 S
C577 C9 1.061 . S
C595 C49 1.047 . S
C599 C121 1.075 . S
C613 C89 1.062 . S
C617 C160 1.077 . S
C635 C277 1.792 . S
C631 C58 1.707 . S
C653 C316 1.794 1_556 S
C649 C98 1.715 . S
C667 C18 1.705 . S
C671 C238 1.794 . S
