# Generated by pormake.
# Topology hwx, (6,3)-cn, num edge types: 1
# Building blocks:
#     Node 0, Type 0, BuildingBlock: OJICUG_clean_sbu_0, # of connection points: 6
#     Node 1, Type 0, BuildingBlock: OJICUG_clean_sbu_0, # of connection points: 6
#     Node 2, Type 0, BuildingBlock: OJICUG_clean_sbu_0, # of connection points: 6
#     Node 3, Type 0, BuildingBlock: OJICUG_clean_sbu_0, # of connection points: 6
#     Node 4, Type 1, BuildingBlock: BETDIP_clean_linker_0, # of connection points: 3
#     Node 5, Type 1, BuildingBlock: BETDIP_clean_linker_0, # of connection points: 3
#     Node 6, Type 1, BuildingBlock: BETDIP_clean_linker_0, # of connection points: 3
#     Node 7, Type 1, BuildingBlock: BETDIP_clean_linker_0, # of connection points: 3
#     Node 8, Type 1, BuildingBlock: BETDIP_clean_linker_0, # of connection points: 3
#     Node 9, Type 1, BuildingBlock: BETDIP_clean_linker_0, # of connection points: 3
#     Node 10, Type 1, BuildingBlock: BETDIP_clean_linker_0, # of connection points: 3
#     Node 11, Type 1, BuildingBlock: BETDIP_clean_linker_0, # of connection points: 3
#     Edge 12, Type (0, 1), BuildingBlock: UVAHIK_clean_linker_0, # of connection points: 2
#     Edge 13, Type (0, 1), BuildingBlock: UVAHIK_clean_linker_0, # of connection points: 2
#     Edge 14, Type (0, 1), BuildingBlock: UVAHIK_clean_linker_0, # of connection points: 2
#     Edge 15, Type (0, 1), BuildingBlock: UVAHIK_clean_linker_0, # of connection points: 2
#     Edge 16, Type (0, 1), BuildingBlock: UVAHIK_clean_linker_0, # of connection points: 2
#     Edge 17, Type (0, 1), BuildingBlock: UVAHIK_clean_linker_0, # of connection points: 2
#     Edge 18, Type (0, 1), BuildingBlock: UVAHIK_clean_linker_0, # of connection points: 2
#     Edge 19, Type (0, 1), BuildingBlock: UVAHIK_clean_linker_0, # of connection points: 2
#     Edge 20, Type (0, 1), BuildingBlock: UVAHIK_clean_linker_0, # of connection points: 2
#     Edge 21, Type (0, 1), BuildingBlock: UVAHIK_clean_linker_0, # of connection points: 2
#     Edge 22, Type (0, 1), BuildingBlock: UVAHIK_clean_linker_0, # of connection points: 2
#     Edge 23, Type (0, 1), BuildingBlock: UVAHIK_clean_linker_0, # of connection points: 2
#     Edge 24, Type (0, 1), BuildingBlock: UVAHIK_clean_linker_0, # of connection points: 2
#     Edge 25, Type (0, 1), BuildingBlock: UVAHIK_clean_linker_0, # of connection points: 2
#     Edge 26, Type (0, 1), BuildingBlock: UVAHIK_clean_linker_0, # of connection points: 2
#     Edge 27, Type (0, 1), BuildingBlock: UVAHIK_clean_linker_0, # of connection points: 2
#     Edge 28, Type (0, 1), BuildingBlock: UVAHIK_clean_linker_0, # of connection points: 2
#     Edge 29, Type (0, 1), BuildingBlock: UVAHIK_clean_linker_0, # of connection points: 2
#     Edge 30, Type (0, 1), BuildingBlock: UVAHIK_clean_linker_0, # of connection points: 2
#     Edge 31, Type (0, 1), BuildingBlock: UVAHIK_clean_linker_0, # of connection points: 2
#     Edge 32, Type (0, 1), BuildingBlock: UVAHIK_clean_linker_0, # of connection points: 2
#     Edge 33, Type (0, 1), BuildingBlock: UVAHIK_clean_linker_0, # of connection points: 2
#     Edge 34, Type (0, 1), BuildingBlock: UVAHIK_clean_linker_0, # of connection points: 2
#     Edge 35, Type (0, 1), BuildingBlock: UVAHIK_clean_linker_0, # of connection points: 2
# Relax obj value: 0.006
# Max RMSD: 0.048
# Mean RMSD: 0.042
data_MOF--net-hwx--node1-OJICUG_clean_sbu_0--node2-BETDIP_clean_linker_0--edge1-UVAHIK_clean_linker_0
_symmetry_space_group_name_H-M    P1
_symmetry_Int_Tables_number       1
_symmetry_cell_setting            triclinic
loop_
_symmetry_equiv_pos_as_xyz
'x, y, z'
_cell_length_a     68.077919
_cell_length_b     68.060114
_cell_length_c     26.140126
_cell_angle_alpha  91.345369
_cell_angle_beta   91.395351
_cell_angle_gamma 89.992648
loop_
_atom_site_label
_atom_site_type_symbol
_atom_site_fract_x
_atom_site_fract_y
_atom_site_fract_z
_atom_type_partial_charge
Sc0 Sc 0.21518 0.21482 0.06778 0.0
Sc1 Sc 0.18454 0.18459 0.98854 0.0
Sc2 Sc 0.21723 0.21795 0.93392 0.0
O3 O 0.20564 0.20579 0.99675 0.0
C4 C 0.21384 0.25537 0.00853 0.0
C5 C 0.16891 0.21088 0.08196 0.0
C6 C 0.17186 0.21437 0.90118 0.0
C7 C 0.21063 0.16847 0.08133 0.0
C8 C 0.25518 0.21338 0.00712 0.0
C9 C 0.21404 0.17268 0.89991 0.0
O10 O 0.21427 0.24552 0.04926 0.0
O11 O 0.1663 0.19836 0.0455 0.0
O12 O 0.18889 0.22177 0.89741 0.0
O13 O 0.21748 0.18524 0.09467 0.0
O14 O 0.24693 0.21558 0.96347 0.0
O15 O 0.20053 0.16857 0.93069 0.0
O16 O 0.24563 0.21262 0.04821 0.0
O17 O 0.19857 0.16596 0.0439 0.0
O18 O 0.22127 0.18981 0.89692 0.0
O19 O 0.18567 0.21802 0.09424 0.0
O20 O 0.21451 0.24741 0.96418 0.0
O21 O 0.16813 0.2008 0.93212 0.0
Sc22 Sc 0.28078 0.7193 0.44472 0.0
Sc23 Sc 0.3097 0.68686 0.51854 0.0
Sc24 Sc 0.27685 0.71957 0.57864 0.0
O25 O 0.28912 0.70857 0.51395 0.0
C26 C 0.28251 0.75839 0.51406 0.0
C27 C 0.32705 0.71387 0.43228 0.0
C28 C 0.32188 0.71503 0.61344 0.0
C29 C 0.28383 0.67319 0.42056 0.0
C30 C 0.23988 0.7175 0.50156 0.0
C31 C 0.27919 0.67376 0.60198 0.0
O32 O 0.28311 0.74938 0.471 0.0
O33 O 0.32892 0.70106 0.46665 0.0
O34 O 0.30488 0.72256 0.61755 0.0
O35 O 0.27741 0.69031 0.41131 0.0
O36 O 0.24754 0.71761 0.54637 0.0
O37 O 0.29292 0.67008 0.5711 0.0
O38 O 0.24995 0.71844 0.46138 0.0
O39 O 0.29575 0.66969 0.45747 0.0
O40 O 0.27214 0.69088 0.60875 0.0
O41 O 0.31062 0.72155 0.42015 0.0
O42 O 0.28012 0.7496 0.55585 0.0
O43 O 0.32581 0.70182 0.58 0.0
Sc44 Sc 0.77824 0.77846 0.93786 0.0
Sc45 Sc 0.81 0.81139 0.0052 0.0
Sc46 Sc 0.77973 0.77918 0.07245 0.0
O47 O 0.78933 0.78969 0.0052 0.0
C48 C 0.73993 0.78073 0.0056 0.0
C49 C 0.78078 0.82427 0.91472 0.0
C50 C 0.78277 0.82531 0.09696 0.0
C51 C 0.82372 0.78321 0.91363 0.0
C52 C 0.7827 0.73986 0.00418 0.0
C53 C 0.82578 0.78437 0.09559 0.0
O54 O 0.74846 0.78 0.96292 0.0
O55 O 0.7941 0.82803 0.94846 0.0
O56 O 0.77617 0.80822 0.10501 0.0
O57 O 0.80681 0.7757 0.9056 0.0
O58 O 0.78214 0.74897 0.04712 0.0
O59 O 0.82821 0.79721 0.06179 0.0
O60 O 0.78143 0.74854 0.9617 0.0
O61 O 0.82716 0.79641 0.94792 0.0
O62 O 0.80915 0.77669 0.10388 0.0
O63 O 0.77381 0.80712 0.90667 0.0
O64 O 0.74924 0.78044 0.04835 0.0
O65 O 0.79515 0.82871 0.06259 0.0
Sc66 Sc 0.71481 0.28054 0.57779 0.0
Sc67 Sc 0.68381 0.31451 0.51558 0.0
Sc68 Sc 0.7151 0.28367 0.44378 0.0
O69 O 0.70457 0.29291 0.51237 0.0
C70 C 0.75403 0.284 0.51374 0.0
C71 C 0.71225 0.32595 0.61058 0.0
C72 C 0.71173 0.33006 0.42899 0.0
C73 C 0.66908 0.28513 0.59994 0.0
C74 C 0.71174 0.24316 0.50249 0.0
C75 C 0.66923 0.28854 0.41862 0.0
O76 O 0.745 0.28212 0.55536 0.0
O77 O 0.69931 0.33032 0.57679 0.0
O78 O 0.71861 0.31319 0.41764 0.0
O79 O 0.68584 0.27736 0.60753 0.0
O80 O 0.71304 0.25301 0.46197 0.0
O81 O 0.66618 0.30096 0.4547 0.0
O82 O 0.71189 0.25111 0.54696 0.0
O83 O 0.66615 0.29878 0.56831 0.0
O84 O 0.68607 0.28124 0.41019 0.0
O85 O 0.71895 0.30865 0.61542 0.0
O86 O 0.7452 0.28502 0.4705 0.0
O87 O 0.69902 0.33276 0.46324 0.0
H88 H 0.21839 0.50096 0.91562 0.0
H89 H 0.21908 0.50261 0.08057 0.0
H90 H 0.22231 0.55619 -0.00158 0.0
H91 H 0.23056 0.47269 0.07259 0.0
C92 C 0.22388 0.46627 0.03798 0.0
C93 C 0.21889 0.50923 0.95158 0.0
C94 C 0.21964 0.52984 0.95164 0.0
C95 C 0.21903 0.49919 -0.00218 0.0
C96 C 0.21965 0.50999 0.04448 0.0
C97 C 0.22088 0.53056 0.04503 0.0
C98 C 0.22069 0.54034 -0.00157 0.0
N99 N 0.21858 0.47829 0.99608 0.0
H100 H 0.99577 0.71583 0.59468 0.0
H101 H 0.99721 0.72146 0.43095 0.0
H102 H 0.94347 0.73164 0.50995 0.0
H103 H 0.022 0.69682 0.44352 0.0
C104 C 0.02972 0.70468 0.47459 0.0
C105 C 0.98829 0.71869 0.55854 0.0
C106 C 0.96825 0.72339 0.55744 0.0
C107 C -0.00132 0.71732 0.51294 0.0
C108 C 0.98909 0.72152 0.46608 0.0
C109 C 0.96925 0.72706 0.46504 0.0
C110 C 0.95888 0.72754 0.51067 0.0
N111 N 0.01905 0.71302 0.5157 0.0
H112 H 0.78322 0.49774 0.11312 0.0
H113 H 0.78971 0.49365 0.9494 0.0
H114 H 0.77036 0.44366 0.03096 0.0
H115 H 0.80505 0.52192 0.95801 0.0
C116 C 0.80029 0.52921 0.9929 0.0
C117 C 0.78271 0.48916 0.07764 0.0
C118 C 0.7761 0.46966 0.07741 0.0
C119 C 0.78789 0.49801 0.03193 0.0
C120 C 0.78645 0.48708 0.98545 0.0
C121 C 0.78047 0.46736 0.98525 0.0
C122 C 0.77539 0.45879 0.03126 0.0
N123 N 0.79322 0.51821 0.03416 0.0
H124 H 0.99775 0.27686 0.40238 0.0
H125 H 0.00253 0.27963 0.567 0.0
H126 H 0.05407 0.27089 0.47859 0.0
H127 H 0.97187 0.27034 0.56344 0.0
C128 C 0.96515 0.27601 0.52874 0.0
C129 C 0.00667 0.27655 0.43728 0.0
C130 C 0.02713 0.27433 0.43476 0.0
C131 C 0.99754 0.27806 0.4847 0.0
C132 C 0.00913 0.27778 0.53004 0.0
C133 C 0.02954 0.2752 0.52811 0.0
C134 C 0.0384 0.27362 0.48035 0.0
N135 N 0.97672 0.27965 0.48538 0.0
H136 H 0.71886 0.99733 0.59445 0.0
H137 H 0.71843 0.99597 0.42947 0.0
H138 H 0.72283 0.9423 0.51127 0.0
H139 H 0.72953 0.02606 0.43877 0.0
C140 C 0.72297 0.03233 0.47286 0.0
C141 C 0.71922 0.98913 0.55843 0.0
C142 C 0.72021 0.96853 0.55819 0.0
C143 C 0.7189 -0.00073 0.5123 0.0
C144 C 0.71934 0.98855 0.46554 0.0
C145 C 0.72077 0.96799 0.46486 0.0
C146 C 0.72104 0.95813 0.51134 0.0
N147 N 0.71815 0.02016 0.51423 0.0
H148 H 0.49969 0.21571 0.91331 0.0
H149 H 0.50045 0.21823 0.07816 0.0
H150 H 0.55339 0.22856 0.99746 0.0
H151 H 0.47352 0.19984 0.06898 0.0
C152 C 0.46621 0.20478 0.03423 0.0
C153 C 0.50768 0.21774 0.94942 0.0
C154 C 0.52784 0.22203 0.94989 0.0
C155 C 0.49774 0.21579 0.99535 0.0
C156 C 0.50799 0.2189 0.04232 0.0
C157 C 0.52815 0.22323 0.04325 0.0
C158 C 0.53795 0.2246 0.99693 0.0
N159 N 0.47732 0.21149 0.99277 0.0
H160 H 0.28141 -0.00026 0.40414 0.0
H161 H 0.28856 0.00476 0.56844 0.0
H162 H 0.26813 0.05401 0.48327 0.0
H163 H 0.30375 0.97652 0.56278 0.0
C164 C 0.29919 0.96907 0.52734 0.0
C165 C 0.28091 0.00847 0.43932 0.0
C166 C 0.27402 0.02787 0.43824 0.0
C167 C 0.2864 -7e-05 0.48585 0.0
C168 C 0.28501 0.01107 0.53183 0.0
C169 C 0.27877 0.03069 0.53077 0.0
C170 C 0.27334 0.03895 0.48397 0.0
N171 N 0.29203 0.97982 0.48484 0.0
H172 H 0.49801 0.7765 0.11596 0.0
H173 H 0.4929 0.78347 0.95251 0.0
H174 H 0.44298 0.76555 0.03639 0.0
H175 H 0.52151 0.79813 0.96008 0.0
C176 C 0.52895 0.79322 0.99463 0.0
C177 C 0.48917 0.77629 0.08088 0.0
C178 C 0.46948 0.77033 0.08157 0.0
C179 C 0.49783 0.78128 0.03479 0.0
C180 C 0.48651 0.7803 0.98884 0.0
C181 C 0.46663 0.77496 0.98957 0.0
C182 C 0.45826 0.77004 0.03596 0.0
N183 N 0.51814 0.7861 0.03615 0.0
C184 C 0.15354 0.23397 0.1453 0.0
C185 C 0.15162 0.21802 0.11036 0.0
C186 C 0.13726 0.24116 0.17118 0.0
C187 C 0.0891 0.22676 0.21591 0.0
H188 H 0.08252 0.28294 0.23745 0.0
C189 C 0.02972 0.2575 0.34878 0.0
C190 C 0.03692 0.27139 0.38517 0.0
C191 C 0.04074 0.25246 0.30595 0.0
C192 C 0.08415 0.26721 0.23177 0.0
H193 H 0.13097 0.19711 0.07536 0.0
H194 H 0.10253 0.20963 0.12117 0.0
H195 H 0.10794 0.27071 0.1807 0.0
H196 H 0.06053 0.29189 0.40357 0.0
H197 H 0.07985 0.283 0.32949 0.0
H198 H 0.06587 0.2232 0.26852 0.0
C199 C 0.1167 0.21652 0.12833 0.0
C200 C 0.09871 0.26022 0.19933 0.0
C201 C 0.13299 0.20939 0.10207 0.0
C202 C 0.05473 0.281 0.37634 0.0
C203 C 0.0657 0.27602 0.3336 0.0
C204 C 0.07458 0.23375 0.24854 0.0
C205 C 0.11868 0.23253 0.16299 0.0
C206 C 0.10167 0.23992 0.19214 0.0
C207 C 0.05911 0.2613 0.29865 0.0
C208 C 0.0723 0.25405 0.25789 0.0
H209 H 0.16762 0.24104 0.15261 0.0
H210 H 0.13932 0.25331 0.1983 0.0
H211 H 0.09113 0.21103 0.21138 0.0
H212 H 0.01607 0.2498 0.35477 0.0
H213 H 0.03517 0.24123 0.27937 0.0
C214 C 0.27972 0.63875 0.63068 0.0
C215 C 0.27088 0.65744 0.63119 0.0
C216 C 0.27203 0.62359 0.65935 0.0
C217 C 0.24169 0.61605 0.77184 0.0
H218 H 0.24009 0.56169 0.72385 0.0
C219 C 0.20907 0.55746 0.89633 0.0
C220 C 0.22083 0.54076 0.90355 0.0
C221 C 0.2127 0.57013 0.8565 0.0
C222 C 0.24051 0.5768 0.73775 0.0
H223 H 0.24657 0.67457 0.66083 0.0
H224 H 0.23313 0.64814 0.71011 0.0
H225 H 0.25162 0.58719 0.66723 0.0
H226 H 0.24474 0.52347 0.87307 0.0
H227 H 0.25129 0.54577 0.80344 0.0
H228 H 0.23094 0.60581 0.8424 0.0
C229 C 0.24623 0.64531 0.68845 0.0
C230 C 0.24715 0.59139 0.70543 0.0
C231 C 0.25394 0.66046 0.66004 0.0
C232 C 0.2354 0.5362 0.86807 0.0
C233 C 0.23913 0.54897 0.82827 0.0
C234 C 0.23505 0.60154 0.80395 0.0
C235 C 0.25532 0.62677 0.689 0.0
C236 C 0.24785 0.61117 0.72224 0.0
C237 C 0.22829 0.56645 0.8233 0.0
C238 C 0.2344 0.58175 0.78739 0.0
H239 H 0.29276 0.6359 0.60881 0.0
H240 H 0.2795 0.60953 0.65936 0.0
H241 H 0.24245 0.63106 0.78645 0.0
H242 H 0.19759 0.56114 0.92289 0.0
H243 H 0.20379 0.58323 0.85292 0.0
C244 C 0.84118 0.76348 0.16347 0.0
C245 C 0.84313 0.77782 0.12605 0.0
C246 C 0.85752 0.75729 0.19211 0.0
C247 C 0.90639 0.77375 0.23675 0.0
H248 H 0.91193 0.71949 0.27693 0.0
C249 C 0.95937 0.72158 0.3726 0.0
C250 C 0.95931 0.73342 0.41731 0.0
C251 C 0.94813 0.7269 0.32953 0.0
C252 C 0.91081 0.73464 0.26536 0.0
H253 H 0.86397 0.79664 0.08895 0.0
H254 H 0.89244 0.78578 0.13897 0.0
H255 H 0.88625 0.72836 0.21491 0.0
H256 H 0.94853 0.76055 0.45135 0.0
H257 H 0.92894 0.76979 0.37669 0.0
H258 H 0.93075 0.78008 0.28775 0.0
C259 C 0.87821 0.77948 0.14638 0.0
C260 C 0.89594 0.73976 0.23036 0.0
C261 C 0.86187 0.78567 0.11767 0.0
C262 C 0.94865 0.75107 0.41747 0.0
C263 C 0.9376 0.75645 0.37452 0.0
C264 C 0.92123 0.76864 0.27177 0.0
C265 C 0.8762 0.76528 0.18407 0.0
C266 C 0.89328 0.75945 0.21664 0.0
C267 C 0.9369 0.74426 0.33041 0.0
C268 C 0.92327 0.74912 0.28743 0.0
H269 H 0.827 0.75708 0.17097 0.0
H270 H 0.85541 0.74656 0.22143 0.0
H271 H 0.90469 0.78907 0.22717 0.0
H272 H 0.9675 0.70789 0.37166 0.0
H273 H 0.94795 0.7173 0.29588 0.0
C274 C 0.73522 0.3373 0.68138 0.0
C275 C 0.72031 0.34168 0.64523 0.0
C276 C 0.74308 0.35195 0.71389 0.0
C277 C 0.74874 0.40559 0.73128 0.0
H278 H 0.75711 0.39219 0.87349 0.0
C279 C 0.76591 0.46199 0.89722 0.0
C280 C 0.7783 0.45562 0.93719 0.0
C281 C 0.76072 0.44913 0.85654 0.0
C282 C 0.75518 0.39611 0.83376 0.0
H283 H 0.70219 0.3651 0.61461 0.0
H284 H 0.71582 0.39071 0.6722 0.0
H285 H 0.74361 0.36778 0.81333 0.0
H286 H 0.79635 0.43163 0.96423 0.0
H287 H 0.78774 0.40935 0.89278 0.0
H288 H 0.76019 0.43411 0.75233 0.0
C289 C 0.7215 0.37589 0.67481 0.0
C290 C 0.74738 0.38211 0.79929 0.0
C291 C 0.7136 0.36118 0.64212 0.0
C292 C 0.78659 0.43677 0.93404 0.0
C293 C 0.78155 0.42401 0.89336 0.0
C294 C 0.75658 0.41968 0.76596 0.0
C295 C 0.73623 0.37137 0.71128 0.0
C296 C 0.74417 0.38662 0.74762 0.0
C297 C 0.76794 0.42976 0.85528 0.0
C298 C 0.76001 0.41501 0.81753 0.0
H299 H 0.74092 0.32251 0.68464 0.0
H300 H 0.75464 0.34806 0.74099 0.0
H301 H 0.74655 0.40944 0.69159 0.0
H302 H 0.75925 0.47644 0.89909 0.0
H303 H 0.75017 0.45398 0.82784 0.0
C304 C 0.63348 0.28958 0.39193 0.0
C305 C 0.65239 0.2816 0.38603 0.0
C306 C 0.6176 0.28245 0.362 0.0
C307 C 0.60162 0.23925 0.28356 0.0
H308 H 0.56712 0.27593 0.21427 0.0
C309 C 0.55771 0.21893 0.10039 0.0
C310 C 0.53903 0.22718 0.09216 0.0
C311 C 0.56902 0.22428 0.14366 0.0
C312 C 0.57635 0.26547 0.23413 0.0
H313 H 0.66934 0.25988 0.34376 0.0
H314 H 0.64178 0.24767 0.29168 0.0
H315 H 0.59188 0.28827 0.27599 0.0
H316 H 0.51721 0.24694 0.12357 0.0
H317 H 0.53699 0.25622 0.19978 0.0
H318 H 0.58647 0.21649 0.24079 0.0
C319 C 0.63917 0.25925 0.31985 0.0
C320 C 0.59056 0.27255 0.26941 0.0
C321 C 0.65502 0.26641 0.34946 0.0
C322 C 0.53153 0.24028 0.12914 0.0
C323 C 0.54291 0.24572 0.17244 0.0
C324 C 0.58742 0.23218 0.24841 0.0
C325 C 0.62028 0.26712 0.32589 0.0
C326 C 0.60368 0.25955 0.29342 0.0
C327 C 0.56192 0.23802 0.17967 0.0
C328 C 0.57498 0.24525 0.22231 0.0
H329 H 0.6309 0.30126 0.4198 0.0
H330 H 0.60317 0.28875 0.36755 0.0
H331 H 0.61126 0.22885 0.30232 0.0
H332 H 0.56377 0.20867 0.07267 0.0
H333 H 0.58368 0.21823 0.14777 0.0
C334 C 0.21494 0.13747 0.86831 0.0
C335 C 0.22198 0.15688 0.86637 0.0
C336 C 0.22256 0.12273 0.8363 0.0
C337 C 0.24769 0.11648 0.71435 0.0
H338 H 0.26022 0.06423 0.76148 0.0
C339 C 0.28508 0.06152 0.58157 0.0
C340 C 0.2768 0.04265 0.57823 0.0
C341 C 0.28042 0.07436 0.62176 0.0
C342 C 0.25667 0.07873 0.74777 0.0
H343 H 0.2429 0.17582 0.82986 0.0
H344 H 0.2561 0.15019 0.77455 0.0
H345 H 0.24733 0.08892 0.82157 0.0
H346 H 0.2581 0.0219 0.61539 0.0
H347 H 0.24962 0.04451 0.68568 0.0
H348 H 0.25666 0.10644 0.64065 0.0
C349 C 0.24452 0.14642 0.80029 0.0
C350 C 0.24928 0.09283 0.78209 0.0
C351 C 0.23696 0.16111 0.83219 0.0
C352 C 0.26474 0.03637 0.61745 0.0
C353 C 0.25991 0.04931 0.65759 0.0
C354 C 0.25502 0.10246 0.68019 0.0
C355 C 0.23731 0.12712 0.80164 0.0
C356 C 0.24483 0.11188 0.7657 0.0
C357 C 0.26718 0.06867 0.65911 0.0
C358 C 0.25973 0.08346 0.69649 0.0
H359 H 0.20347 0.13367 0.89432 0.0
H360 H 0.21662 0.108 0.83789 0.0
H361 H 0.244 0.1309 0.70028 0.0
H362 H 0.2946 0.06658 0.55196 0.0
H363 H 0.28666 0.089 0.62258 0.0
C364 C 0.34344 0.73484 0.36828 0.0
C365 C 0.34481 0.72032 0.40559 0.0
C366 C 0.3601 0.74087 0.34285 0.0
C367 C 0.40878 0.72364 0.30583 0.0
H368 H 0.41519 0.77787 0.26692 0.0
C369 C 0.46123 0.77545 0.17398 0.0
C370 C 0.46049 0.7637 0.1291 0.0
C371 C 0.45061 0.77006 0.21666 0.0
C372 C 0.41386 0.76273 0.27823 0.0
H373 H 0.36498 0.70103 0.44601 0.0
H374 H 0.39406 0.7116 0.40148 0.0
H375 H 0.3895 0.76936 0.32592 0.0
H376 H 0.44926 0.73661 0.09445 0.0
H377 H 0.43072 0.72726 0.16841 0.0
H378 H 0.43289 0.71697 0.25739 0.0
C379 C 0.38001 0.71818 0.39172 0.0
C380 C 0.39898 0.75782 0.3115 0.0
C381 C 0.36333 0.71216 0.41728 0.0
C382 C 0.44989 0.74601 0.12848 0.0
C383 C 0.43944 0.74057 0.17105 0.0
C384 C 0.42364 0.72855 0.27254 0.0
C385 C 0.37855 0.73254 0.35407 0.0
C386 C 0.39593 0.73814 0.32448 0.0
C387 C 0.43931 0.75273 0.2152 0.0
C388 C 0.42596 0.74806 0.25722 0.0
H389 H 0.32945 0.74149 0.3583 0.0
H390 H 0.35842 0.75173 0.31343 0.0
H391 H 0.40677 0.70834 0.31494 0.0
H392 H 0.46931 0.78917 0.17529 0.0
H393 H 0.45088 0.77964 0.25035 0.0
C394 C 0.78158 0.85927 0.88599 0.0
C395 C 0.7728 0.84054 0.88375 0.0
C396 C 0.7741 0.87444 0.85602 0.0
C397 C 0.74431 0.88212 0.7386 0.0
H398 H 0.74195 0.9363 0.78759 0.0
C399 C 0.71034 0.94062 0.61207 0.0
C400 C 0.72182 0.95751 0.60623 0.0
C401 C 0.71438 0.92788 0.65195 0.0
C402 C 0.74259 0.92124 0.77342 0.0
H403 H 0.74884 0.82334 0.84943 0.0
H404 H 0.73574 0.84976 0.79796 0.0
H405 H 0.75368 0.91074 0.84524 0.0
H406 H 0.74566 0.97507 0.63925 0.0
H407 H 0.75288 0.95265 0.70911 0.0
H408 H 0.73349 0.89248 0.66684 0.0
C409 C 0.74865 0.85263 0.82199 0.0
C410 C 0.74935 0.90662 0.80631 0.0
C411 C 0.75616 0.83747 0.85167 0.0
C412 C 0.73652 0.96218 0.64314 0.0
C413 C 0.74065 0.94934 0.68306 0.0
C414 C 0.73753 0.89666 0.70593 0.0
C415 C 0.75766 0.87122 0.82332 0.0
C416 C 0.75028 0.88689 0.78919 0.0
C417 C 0.73009 0.93168 0.68666 0.0
C418 C 0.73657 0.91637 0.72288 0.0
H419 H 0.7944 0.86216 0.91034 0.0
H420 H 0.7815 0.88853 0.85756 0.0
H421 H 0.74525 0.86717 0.72376 0.0
H422 H 0.69876 0.93684 0.58442 0.0
H423 H 0.70569 0.91462 0.65445 0.0
C424 C 0.83689 0.76021 0.84682 0.0
C425 C 0.84008 0.77587 0.88208 0.0
C426 C 0.85209 0.7532 0.81673 0.0
C427 C 0.90595 0.75196 0.80491 0.0
H428 H 0.8926 0.74132 0.66191 0.0
C429 C 0.96252 0.7382 0.64429 0.0
C430 C 0.95688 0.72493 0.60471 0.0
C431 C 0.94962 0.74262 0.68382 0.0
C432 C 0.89653 0.7439 0.7019 0.0
H433 H 0.862 0.79617 0.91397 0.0
H434 H 0.88857 0.78402 0.86054 0.0
H435 H 0.86745 0.75324 0.71899 0.0
H436 H 0.93435 0.70459 0.5773 0.0
H437 H 0.91203 0.71186 0.64679 0.0
H438 H 0.93522 0.74277 0.78714 0.0
C439 C 0.87426 0.7771 0.85674 0.0
C440 C 0.88211 0.75079 0.73461 0.0
C441 C 0.859 0.78415 0.88705 0.0
C442 C 0.93888 0.71503 0.60722 0.0
C443 C 0.9261 0.7193 0.64676 0.0
C444 C 0.92047 0.74504 0.77199 0.0
C445 C 0.87089 0.76168 0.82091 0.0
C446 C 0.88659 0.75476 0.78653 0.0
C447 C 0.93096 0.73374 0.68426 0.0
C448 C 0.91583 0.74079 0.7202 0.0
H449 H 0.82261 0.75329 0.8423 0.0
H450 H 0.84912 0.74105 0.79014 0.0
H451 H 0.90979 0.7548 0.84485 0.0
H452 H 0.97632 0.74607 0.64286 0.0
H453 H 0.95375 0.75383 0.71213 0.0
C454 C 0.73357 0.34497 0.36448 0.0
C455 C 0.71907 0.3473 0.40155 0.0
C456 C 0.74047 0.36115 0.33845 0.0
C457 C 0.72588 0.4105 0.29952 0.0
H458 H 0.78049 0.41406 0.26179 0.0
C459 C 0.78065 0.46058 0.16951 0.0
C460 C 0.76902 0.46059 0.12441 0.0
C461 C 0.77466 0.45 0.21171 0.0
C462 C 0.76527 0.41351 0.27273 0.0
H463 H 0.70072 0.36865 0.44085 0.0
H464 H 0.71282 0.39688 0.39528 0.0
H465 H 0.77047 0.38895 0.32089 0.0
H466 H 0.74158 0.45069 0.08886 0.0
H467 H 0.73118 0.43223 0.16199 0.0
H468 H 0.72062 0.43485 0.25068 0.0
C469 C 0.7187 0.38247 0.38617 0.0
C470 C 0.75948 0.39897 0.30606 0.0
C471 C 0.7118 0.36627 0.41233 0.0
C472 C 0.7509 0.45073 0.12306 0.0
C473 C 0.74486 0.44033 0.16515 0.0
C474 C 0.73166 0.42502 0.26616 0.0
C475 C 0.73305 0.38007 0.3488 0.0
C476 C 0.73963 0.39698 0.31873 0.0
C477 C 0.75684 0.43949 0.20957 0.0
C478 C 0.75132 0.42634 0.25131 0.0
H479 H 0.73954 0.33061 0.35518 0.0
H480 H 0.75129 0.35876 0.30927 0.0
H481 H 0.71047 0.40932 0.30834 0.0
H482 H 0.79469 0.46808 0.17137 0.0
H483 H 0.78412 0.44971 0.24561 0.0
C484 C 0.13643 0.21477 0.87228 0.0
C485 C 0.15566 0.22207 0.86853 0.0
C486 C 0.12119 0.22207 0.84142 0.0
C487 C 0.10734 0.26411 0.76078 0.0
H488 H 0.07183 0.22652 0.69387 0.0
C489 C 0.06028 0.28121 0.58105 0.0
C490 C 0.04154 0.27265 0.57562 0.0
C491 C 0.07253 0.27681 0.62282 0.0
C492 C 0.08138 0.23727 0.71295 0.0
H493 H 0.17384 0.24295 0.82956 0.0
H494 H 0.14734 0.25542 0.77539 0.0
H495 H 0.09653 0.21515 0.75515 0.0
H496 H 0.02064 0.25341 0.61081 0.0
H497 H 0.04192 0.24603 0.68427 0.0
H498 H 0.09241 0.28617 0.71756 0.0
C499 C 0.144 0.24425 0.80271 0.0
C500 C 0.09556 0.23074 0.74805 0.0
C501 C 0.15923 0.23696 0.83352 0.0
C502 C 0.03496 0.26034 0.61408 0.0
C503 C 0.04722 0.25593 0.65584 0.0
C504 C 0.09315 0.27065 0.72563 0.0
C505 C 0.12483 0.23684 0.80618 0.0
C506 C 0.10888 0.24404 0.7718 0.0
C507 C 0.0663 0.26377 0.66004 0.0
C508 C 0.08019 0.25725 0.70082 0.0
H509 H 0.1331 0.2034 0.89904 0.0
H510 H 0.10653 0.21621 0.84536 0.0
H511 H 0.11719 0.27476 0.77912 0.0
H512 H 0.06566 0.29092 0.55228 0.0
H513 H 0.0872 0.28299 0.62476 0.0
C514 C 0.26149 0.65956 0.35099 0.0
C515 C 0.27657 0.65657 0.38772 0.0
C516 C 0.25423 0.64391 0.32074 0.0
C517 C 0.26771 0.59557 0.26907 0.0
H518 H 0.21178 0.59092 0.23926 0.0
C519 C 0.23742 0.53533 0.13116 0.0
C520 C 0.2239 0.54188 0.0938 0.0
C521 C 0.24227 0.5472 0.17392 0.0
C522 C 0.22743 0.59206 0.24709 0.0
H523 H 0.29583 0.63468 0.42134 0.0
H524 H 0.28317 0.60735 0.36805 0.0
H525 H 0.22376 0.61601 0.30057 0.0
H526 H 0.20395 0.56545 0.07362 0.0
H527 H 0.21273 0.58635 0.14748 0.0
H528 H 0.27151 0.5721 0.21447 0.0
C529 C 0.27704 0.62188 0.36279 0.0
C530 C 0.23429 0.60641 0.28217 0.0
C531 C 0.28425 0.63753 0.39335 0.0
C532 C 0.21461 0.56011 0.10142 0.0
C533 C 0.21949 0.57199 0.14408 0.0
C534 C 0.26087 0.58127 0.23385 0.0
C535 C 0.26192 0.62492 0.32629 0.0
C536 C 0.25452 0.60854 0.2928 0.0
C537 C 0.23373 0.56588 0.18018 0.0
C538 C 0.24068 0.57958 0.22177 0.0
H539 H 0.25517 0.67399 0.34561 0.0
H540 H 0.24279 0.64677 0.29237 0.0
H541 H 0.2834 0.597 0.2761 0.0
H542 H 0.24494 0.52141 0.12626 0.0
H543 H 0.25309 0.54195 0.20144 0.0
C544 C 0.33394 0.73724 0.68518 0.0
C545 C 0.3378 0.72236 0.64856 0.0
C546 C 0.34884 0.74436 0.7181 0.0
C547 C 0.40264 0.74785 0.73575 0.0
H548 H 0.38974 0.75558 0.87846 0.0
C549 C 0.46012 0.76119 0.90116 0.0
C550 C 0.45443 0.77345 0.94211 0.0
C551 C 0.44687 0.75685 0.86069 0.0
C552 C 0.39353 0.75383 0.83861 0.0
H553 H 0.36056 0.7035 0.61757 0.0
H554 H 0.38657 0.71584 0.67575 0.0
H555 H 0.3647 0.74369 0.81771 0.0
H556 H 0.43129 0.79211 0.9712 0.0
H557 H 0.40833 0.78499 0.90011 0.0
H558 H 0.43164 0.75788 0.75717 0.0
C559 C 0.37198 0.72208 0.67845 0.0
C560 C 0.37917 0.74695 0.8038 0.0
C561 C 0.35703 0.71491 0.64541 0.0
C562 C 0.43588 0.78242 0.94026 0.0
C563 C 0.42274 0.77823 0.89978 0.0
C564 C 0.41708 0.75478 0.77073 0.0
C565 C 0.36799 0.73679 0.71536 0.0
C566 C 0.38352 0.74395 0.75197 0.0
C567 C 0.42779 0.76481 0.86056 0.0
C568 C 0.41262 0.75793 0.82252 0.0
H569 H 0.31937 0.74347 0.68851 0.0
H570 H 0.34537 0.75592 0.74561 0.0
H571 H 0.40637 0.74582 0.69593 0.0
H572 H 0.47433 0.75402 0.90201 0.0
H573 H 0.45118 0.74641 0.83114 0.0
C574 C 0.76013 0.83906 0.16287 0.0
C575 C 0.77532 0.84199 0.12833 0.0
C576 C 0.75285 0.85474 0.19206 0.0
C577 C 0.76657 0.90311 0.24534 0.0
H578 H 0.71073 0.90774 0.2693 0.0
C579 C 0.73677 0.96337 0.38005 0.0
C580 C 0.72349 0.95675 0.41622 0.0
C581 C 0.74142 0.95152 0.33769 0.0
C582 C 0.72637 0.90661 0.26308 0.0
H583 H 0.79468 0.86385 0.09732 0.0
H584 H 0.78197 0.89122 0.14862 0.0
H585 H 0.72251 0.88264 0.20927 0.0
H586 H 0.70371 0.93311 0.43458 0.0
H587 H 0.71211 0.91227 0.36138 0.0
H588 H 0.77055 0.92662 0.30024 0.0
C589 C 0.77579 0.87671 0.1531 0.0
C590 C 0.7331 0.89224 0.22875 0.0
C591 C 0.78303 0.86103 0.12365 0.0
C592 C 0.71419 0.9385 0.4077 0.0
C593 C 0.71886 0.92665 0.36542 0.0
C594 C 0.75985 0.91743 0.27978 0.0
C595 C 0.76062 0.87372 0.18758 0.0
C596 C 0.75331 0.89011 0.22025 0.0
C597 C 0.73289 0.93282 0.33063 0.0
C598 C 0.7397 0.91911 0.28974 0.0
H599 H 0.75379 0.82463 0.16748 0.0
H600 H 0.74137 0.85191 0.21889 0.0
H601 H 0.78224 0.90169 0.24 0.0
H602 H 0.74428 0.97731 0.38569 0.0
H603 H 0.75208 0.95681 0.31117 0.0
C604 C 0.6548 0.26201 0.66235 0.0
C605 C 0.6522 0.27759 0.62843 0.0
C606 C 0.63894 0.25466 0.68875 0.0
C607 C 0.59026 0.26831 0.73491 0.0
H608 H 0.5861 0.21239 0.75816 0.0
C609 C 0.53089 0.23728 0.86407 0.0
C610 C 0.53843 0.22477 0.90177 0.0
C611 C 0.54227 0.24207 0.82229 0.0
C612 C 0.58706 0.22804 0.75194 0.0
H613 H 0.6307 0.29753 0.59549 0.0
H614 H 0.60299 0.28462 0.64172 0.0
H615 H 0.61107 0.22443 0.70125 0.0
H616 H 0.56312 0.20648 0.92383 0.0
H617 H 0.58299 0.21487 0.85127 0.0
H618 H 0.56662 0.27197 0.78673 0.0
C619 C 0.61739 0.27823 0.64803 0.0
C620 C 0.60138 0.23494 0.71949 0.0
C621 C 0.63328 0.28559 0.62148 0.0
C622 C 0.55704 0.21629 0.89549 0.0
C623 C 0.56834 0.22097 0.85369 0.0
C624 C 0.57592 0.2614 0.76736 0.0
C625 C 0.62006 0.26267 0.68193 0.0
C626 C 0.60345 0.25519 0.71163 0.0
C627 C 0.56129 0.2343 0.81732 0.0
C628 C 0.57449 0.24124 0.77719 0.0
H629 H 0.66913 0.25547 0.66873 0.0
H630 H 0.64155 0.2429 0.71527 0.0
H631 H 0.59158 0.284 0.73 0.0
H632 H 0.51662 0.24408 0.86815 0.0
H633 H 0.53639 0.25224 0.79457 0.0
C634 C 0.23161 0.15312 0.14963 0.0
C635 C 0.2174 0.15107 0.10991 0.0
C636 C 0.23825 0.13676 0.17616 0.0
C637 C 0.22355 0.08713 0.21047 0.0
H638 H 0.27812 0.08332 0.25537 0.0
C639 C 0.27837 0.03674 0.34654 0.0
C640 C 0.26675 0.03665 0.39017 0.0
C641 C 0.27229 0.04727 0.30358 0.0
C642 C 0.26291 0.08393 0.24239 0.0
H643 H 0.19918 0.13004 0.06673 0.0
H644 H 0.21079 0.10147 0.11329 0.0
H645 H 0.26818 0.10882 0.19609 0.0
H646 H 0.23921 0.04626 0.4222 0.0
H647 H 0.22866 0.06463 0.34773 0.0
H648 H 0.21822 0.06247 0.25754 0.0
C649 C 0.21668 0.11582 0.12396 0.0
C650 C 0.25717 0.09869 0.20897 0.0
C651 C 0.21006 0.1322 0.09726 0.0
C652 C 0.24852 0.04629 0.38915 0.0
C653 C 0.2424 0.05664 0.34629 0.0
C654 C 0.22929 0.07238 0.24396 0.0
C655 C 0.23084 0.11793 0.16371 0.0
C656 C 0.23734 0.10079 0.19379 0.0
C657 C 0.2544 0.05764 0.30348 0.0
C658 C 0.24893 0.07097 0.26139 0.0
H659 H 0.23763 0.1674 0.16043 0.0
H660 H 0.24892 0.13893 0.20719 0.0
H661 H 0.20816 0.08839 0.19961 0.0
H662 H 0.29249 0.02941 0.34651 0.0
H663 H 0.28176 0.04767 0.27093 0.0
C664 C 0.21586 0.2868 0.06046 0.0
C665 C 0.21296 0.27708 0.0128 0.0
C666 C 0.21592 0.30731 0.06399 0.0
C667 C 0.19983 0.35175 0.99752 0.0
H668 H 0.2425 0.37685 0.07527 0.0
C669 C 0.21535 0.43508 0.98913 0.0
C670 C 0.22149 0.44473 0.03482 0.0
C671 C 0.21356 0.41461 0.98698 0.0
C672 C 0.23031 0.37011 0.05402 0.0
H673 H 0.20728 0.28137 0.93169 0.0
H674 H 0.20736 0.31714 0.93807 0.0
H675 H 0.24024 0.34114 0.07147 0.0
H676 H 0.23021 0.44081 0.1141 0.0
H677 H 0.22667 0.40515 0.11084 0.0
H678 H 0.18981 0.38071 0.98031 0.0
C679 C 0.20956 0.30885 0.97262 0.0
C680 C 0.22905 0.34964 0.05181 0.0
C681 C 0.20965 0.28835 0.96898 0.0
C682 C 0.22557 0.43365 0.07835 0.0
C683 C 0.22365 0.41324 0.07634 0.0
C684 C 0.20101 0.37225 1e-05 0.0
C685 C 0.21291 0.31853 0.02006 0.0
C686 C 0.21384 0.34026 0.02343 0.0
C687 C 0.21776 0.40345 0.03055 0.0
C688 C 0.2163 0.38167 0.02819 0.0
H689 H 0.21841 0.27859 0.09499 0.0
H690 H 0.21833 0.3144 0.10115 0.0
H691 H 0.18784 0.34489 0.97577 0.0
H692 H 0.21216 0.44326 0.95488 0.0
H693 H 0.20923 0.40753 0.95093 0.0
C694 C 0.20737 0.70729 0.53456 0.0
C695 C 0.2183 0.71586 0.49597 0.0
C696 C 0.18701 0.70543 0.5291 0.0
C697 C 0.14424 0.72774 0.47051 0.0
H698 H 0.11861 0.67763 0.49009 0.0
C699 C 0.06147 0.71925 0.50719 0.0
C700 C 0.05136 0.70554 0.47536 0.0
C701 C 0.08194 0.72031 0.50679 0.0
C702 C 0.12562 0.69166 0.48431 0.0
H703 H 0.21648 0.72935 0.42163 0.0
H704 H 0.18069 0.72659 0.41287 0.0
H705 H 0.15457 0.67976 0.49487 0.0
H706 H 0.0545 0.68219 0.41846 0.0
H707 H 0.09054 0.68366 0.41893 0.0
H708 H 0.11529 0.73976 0.46143 0.0
C709 C 0.18801 0.72114 0.44697 0.0
C710 C 0.1461 0.6929 0.4873 0.0
C711 C 0.20844 0.72265 0.45194 0.0
C712 C 0.06203 0.69283 0.44341 0.0
C713 C 0.08255 0.69364 0.44374 0.0
C714 C 0.12376 0.72658 0.46849 0.0
C715 C 0.17716 0.71244 0.48542 0.0
C716 C 0.15555 0.71096 0.48055 0.0
C717 C 0.09264 0.70748 0.47521 0.0
C718 C 0.1143 0.70854 0.47552 0.0
H719 H 0.21458 0.7018 0.56876 0.0
H720 H 0.1789 0.6988 0.55939 0.0
H721 H 0.15123 0.74184 0.46545 0.0
H722 H 0.0536 0.72933 0.53195 0.0
H723 H 0.08944 0.73102 0.5316 0.0
C724 C 0.78893 0.70788 0.9577 0.0
C725 C 0.78513 0.71823 0.00363 0.0
C726 C 0.79144 0.6875 0.95731 0.0
C727 C 0.77934 0.6436 0.0288 0.0
H728 H 0.82174 0.61937 0.95354 0.0
C729 C 0.7958 0.56098 0.04169 0.0
C730 C 0.80038 0.5509 0.99602 0.0
C731 C 0.79495 0.58148 0.04341 0.0
C732 C 0.8097 0.62589 0.97427 0.0
H733 H 0.78099 0.71518 0.08518 0.0
H734 H 0.78528 0.67963 0.08428 0.0
H735 H 0.81802 0.65505 0.95455 0.0
H736 H 0.80796 0.5542 0.91677 0.0
H737 H 0.80609 0.59005 0.91934 0.0
H738 H 0.77077 0.61453 0.04789 0.0
C739 C 0.78623 0.68732 0.0486 0.0
C740 C 0.80759 0.64632 0.97489 0.0
C741 C 0.78387 0.7077 0.0491 0.0
C742 C 0.80444 0.56167 0.95244 0.0
C743 C 0.80347 0.58219 0.95405 0.0
C744 C 0.78137 0.62319 0.02793 0.0
C745 C 0.79005 0.67702 0.00272 0.0
C746 C 0.7924 0.65537 0.00219 0.0
C747 C 0.79852 0.59233 -0.00054 0.0
C748 C 0.79658 0.61408 0.00071 0.0
H749 H 0.79006 0.7155 0.92198 0.0
H750 H 0.79418 0.67992 0.9213 0.0
H751 H 0.76732 0.65016 0.04954 0.0
H752 H 0.79276 0.55309 0.0761 0.0
H753 H 0.79147 0.58883 0.07927 0.0
C754 C 0.78637 0.28801 0.47107 0.0
C755 C 0.77579 0.28466 0.51562 0.0
C756 C 0.80689 0.28803 0.47259 0.0
C757 C 0.84891 0.269 0.54657 0.0
H758 H 0.87872 0.30818 0.47605 0.0
C759 C 0.93284 0.27475 0.57051 0.0
C760 C 0.94359 0.27822 0.52655 0.0
C761 C 0.9124 0.27626 0.56924 0.0
C762 C 0.8706 0.29701 0.49545 0.0
H763 H 0.7786 0.27904 0.59693 0.0
H764 H 0.81438 0.27913 0.59942 0.0
H765 H 0.84286 0.30959 0.47376 0.0
H766 H 0.94151 0.28616 0.44672 0.0
H767 H 0.90572 0.28849 0.44417 0.0
H768 H 0.87652 0.25626 0.56782 0.0
C769 C 0.80675 0.28154 0.56326 0.0
C770 C 0.85008 0.29784 0.4942 0.0
C771 C 0.78624 0.2816 0.56183 0.0
C772 C 0.93359 0.28343 0.48126 0.0
C773 C 0.9131 0.28488 0.47991 0.0
C774 C 0.86939 0.26812 0.54765 0.0
C775 C 0.81728 0.28463 0.5186 0.0
C776 C 0.83904 0.28387 0.51988 0.0
C777 C 0.90227 0.28119 0.52383 0.0
C778 C 0.88048 0.28215 0.52226 0.0
H779 H 0.77882 0.29046 0.43482 0.0
H780 H 0.81463 0.29029 0.43748 0.0
H781 H 0.84078 0.25783 0.56596 0.0
H782 H 0.94027 0.27081 0.60596 0.0
H783 H 0.90455 0.27366 0.60397 0.0
C784 C 0.70708 0.21014 0.54117 0.0
C785 C 0.71058 0.22144 0.49792 0.0
C786 C 0.70697 0.18964 0.53743 0.0
C787 C 0.72683 0.14901 0.46063 0.0
H788 H 0.68797 0.11752 0.52741 0.0
C789 C 0.72404 0.06503 0.43296 0.0
C790 C 0.72026 0.05383 0.47597 0.0
C791 C 0.72188 0.08541 0.43493 0.0
C792 C 0.69906 0.1261 0.50904 0.0
H793 H 0.71625 0.21996 0.41653 0.0
H794 H 0.71609 0.18417 0.4102 0.0
H795 H 0.68567 0.15333 0.53181 0.0
H796 H 0.71114 0.05507 0.5549 0.0
H797 H 0.70776 0.09078 0.55883 0.0
H798 H 0.74047 0.12194 0.43863 0.0
C799 C 0.71358 0.19124 0.44703 0.0
C800 C 0.6977 0.1466 0.51145 0.0
C801 C 0.71357 0.21174 0.45065 0.0
C802 C 0.71412 0.06334 0.52107 0.0
C803 C 0.71207 0.08379 0.52319 0.0
C804 C 0.72826 0.12856 0.45848 0.0
C805 C 0.71047 0.17998 0.49048 0.0
C806 C 0.71157 0.15824 0.48722 0.0
C807 C 0.71602 0.09507 0.48019 0.0
C808 C 0.71438 0.11684 0.48259 0.0
H809 H 0.70464 0.21711 0.57815 0.0
H810 H 0.70468 0.18134 0.57164 0.0
H811 H 0.73793 0.15761 0.44235 0.0
H812 H 0.72867 0.05799 0.39764 0.0
H813 H 0.72471 0.09359 0.40083 0.0
C814 C 0.28819 0.21453 0.96677 0.0
C815 C 0.27686 0.21156 0.01018 0.0
C816 C 0.30863 0.21288 0.96967 0.0
C817 C 0.35049 0.21411 0.06221 0.0
H818 H 0.37852 0.18999 0.94962 0.0
C819 C 0.43385 0.19883 0.07333 0.0
C820 C 0.44455 0.20419 0.03064 0.0
C821 C 0.41333 0.1988 0.07116 0.0
C822 C 0.37089 0.19688 0.98119 0.0
H823 H 0.2782 0.20425 0.09061 0.0
H824 H 0.3138 0.20109 0.09538 0.0
H825 H 0.34273 0.19162 0.94543 0.0
H826 H 0.44226 0.21347 0.95184 0.0
H827 H 0.40644 0.21341 0.94805 0.0
H828 H 0.37868 0.21931 0.09796 0.0
C829 C 0.30689 0.20505 0.05932 0.0
C830 C 0.3504 0.19786 0.97877 0.0
C831 C 0.28646 0.20678 0.05649 0.0
C832 C 0.43441 0.20926 0.98541 0.0
C833 C 0.41389 0.20912 0.98313 0.0
C834 C 0.37097 0.21305 0.06471 0.0
C835 C 0.31822 0.20812 0.01597 0.0
C836 C 0.33997 0.20659 0.01912 0.0
C837 C 0.40315 0.20401 0.02608 0.0
C838 C 0.38138 0.20453 0.0241 0.0
H839 H 0.28132 0.21831 0.93051 0.0
H840 H 0.31693 0.21563 0.93576 0.0
H841 H 0.34293 0.2212 0.09359 0.0
H842 H 0.44137 0.19483 0.10859 0.0
H843 H 0.40543 0.1946 0.10468 0.0
C844 C 0.28775 0.79032 0.56244 0.0
C845 C 0.28484 0.78003 0.51556 0.0
C846 C 0.29012 0.81071 0.56366 0.0
C847 C 0.27889 0.85458 0.48986 0.0
H848 H 0.32022 0.8791 0.57377 0.0
C849 C 0.29539 0.9371 0.47856 0.0
C850 C 0.29943 0.94738 0.52483 0.0
C851 C 0.29459 0.91661 0.47724 0.0
C852 C 0.30847 0.87251 0.5506 0.0
H853 H 0.28213 0.78318 0.4332 0.0
H854 H 0.28616 0.81876 0.43553 0.0
H855 H 0.31657 0.8434 0.57247 0.0
H856 H 0.30615 0.94444 0.60563 0.0
H857 H 0.30434 0.90857 0.6037 0.0
H858 H 0.27051 0.88356 0.46856 0.0
C859 C 0.28653 0.81101 0.47128 0.0
C860 C 0.30641 0.85207 0.54982 0.0
C861 C 0.28432 0.79062 0.46999 0.0
C862 C 0.30305 0.93681 0.56949 0.0
C863 C 0.30211 0.91629 0.56827 0.0
C864 C 0.28086 0.87499 0.4909 0.0
C865 C 0.28946 0.82126 0.5181 0.0
C866 C 0.29163 0.84292 0.51932 0.0
C867 C 0.29766 0.90596 0.52219 0.0
C868 C 0.29571 0.88421 0.52114 0.0
H869 H 0.28829 0.78263 0.59825 0.0
H870 H 0.29219 0.81828 0.60032 0.0
H871 H 0.26718 0.84793 0.4666 0.0
H872 H 0.29272 0.94485 0.44335 0.0
H873 H 0.29154 0.90911 0.44091 0.0
C874 C 0.70774 0.78042 0.05052 0.0
C875 C 0.71823 0.78233 0.00523 0.0
C876 C 0.68727 0.78208 0.04988 0.0
C877 C 0.64385 0.7795 0.96184 0.0
H878 H 0.61785 0.80659 0.07343 0.0
C879 C 0.56119 0.79797 0.95369 0.0
C880 C 0.55064 0.79345 0.99731 0.0
C881 C 0.58171 0.79733 0.95493 0.0
C882 C 0.62492 0.79888 0.04219 0.0
H883 H 0.71538 0.78777 0.92384 0.0
H884 H 0.67985 0.791 0.92299 0.0
H885 H 0.65361 0.80389 0.07515 0.0
H886 H 0.5532 0.78516 0.07689 0.0
H887 H 0.589 0.78411 0.07905 0.0
H888 H 0.61515 0.77466 0.92872 0.0
C889 C 0.68737 0.7878 0.95882 0.0
C890 C 0.64538 0.79727 0.04322 0.0
C891 C 0.70778 0.78603 0.95939 0.0
C892 C 0.56093 0.78868 0.04258 0.0
C893 C 0.58144 0.78819 0.04393 0.0
C894 C 0.62342 0.78123 0.96067 0.0
C895 C 0.67685 0.78579 0.004 0.0
C896 C 0.65509 0.78753 0.00308 0.0
C897 C 0.59203 0.79231 -1e-05 0.0
C898 C 0.61375 0.7909 0.00086 0.0
H899 H 0.71531 0.77751 0.08648 0.0
H900 H 0.6796 0.78019 0.08524 0.0
H901 H 0.65082 0.7716 0.93074 0.0
H902 H 0.55356 0.80172 0.9184 0.0
H903 H 0.58951 0.80078 0.92065 0.0
loop_
_geom_bond_atom_site_label_1
_geom_bond_atom_site_label_2
_geom_bond_distance
_geom_bond_site_symmetry_2
_ccdc_geom_bond_type
Sc0 O3 2.025 . S
Sc0 O10 2.105 . S
Sc0 O13 2.105 . S
Sc0 O16 2.105 . S
Sc0 O19 2.105 . S
Sc1 O3 2.025 . S
Sc1 O11 2.105 . S
Sc1 O15 2.105 1_554 S
Sc1 O17 2.105 . S
Sc1 O21 2.105 1_554 S
Sc2 O3 2.025 1_556 S
Sc2 O12 2.105 . S
Sc2 O14 2.105 . S
Sc2 O18 2.105 . S
Sc2 O20 2.105 . S
O3 Sc0 2.025 . S
O3 Sc1 2.025 . S
O3 Sc2 2.025 1_554 S
C4 O10 1.268 . S
C4 O20 1.268 1_554 S
C5 O11 1.268 . S
C5 O19 1.268 . S
C6 O12 1.268 . S
C6 O21 1.268 . S
C7 O13 1.268 . S
C7 O17 1.268 . S
C8 O14 1.268 1_554 S
C8 O16 1.268 . S
C9 O15 1.268 . S
C9 O18 1.268 . S
O10 Sc0 2.105 . S
O10 C4 1.268 . S
O11 Sc1 2.105 . S
O11 C5 1.268 . S
O12 Sc2 2.105 . S
O12 C6 1.268 . S
O13 Sc0 2.105 . S
O13 C7 1.268 . S
O14 Sc2 2.105 . S
O14 C8 1.268 1_556 S
O15 Sc1 2.105 1_556 S
O15 C9 1.268 . S
O16 Sc0 2.105 . S
O16 C8 1.268 . S
O17 Sc1 2.105 . S
O17 C7 1.268 . S
O18 Sc2 2.105 . S
O18 C9 1.268 . S
O19 Sc0 2.105 . S
O19 C5 1.268 . S
O20 Sc2 2.105 . S
O20 C4 1.268 1_556 S
O21 Sc1 2.105 1_556 S
O21 C6 1.268 . S
Sc22 O25 2.025 . S
Sc22 O32 2.105 . S
Sc22 O35 2.105 . S
Sc22 O38 2.105 . S
Sc22 O41 2.105 . S
Sc23 O25 2.025 . S
Sc23 O33 2.105 . S
Sc23 O37 2.105 . S
Sc23 O39 2.105 . S
Sc23 O43 2.105 . S
Sc24 O25 2.025 . S
Sc24 O34 2.105 . S
Sc24 O36 2.105 . S
Sc24 O40 2.105 . S
Sc24 O42 2.105 . S
O25 Sc22 2.025 . S
O25 Sc23 2.025 . S
O25 Sc24 2.025 . S
C26 O32 1.268 . S
C26 O42 1.268 . S
C27 O33 1.268 . S
C27 O41 1.268 . S
C28 O34 1.268 . S
C28 O43 1.268 . S
C29 O35 1.268 . S
C29 O39 1.268 . S
C30 O36 1.268 . S
C30 O38 1.268 . S
C31 O37 1.268 . S
C31 O40 1.268 . S
O32 Sc22 2.105 . S
O32 C26 1.268 . S
O33 Sc23 2.105 . S
O33 C27 1.268 . S
O34 Sc24 2.105 . S
O34 C28 1.268 . S
O35 Sc22 2.105 . S
O35 C29 1.268 . S
O36 Sc24 2.105 . S
O36 C30 1.268 . S
O37 Sc23 2.105 . S
O37 C31 1.268 . S
O38 Sc22 2.105 . S
O38 C30 1.268 . S
O39 Sc23 2.105 . S
O39 C29 1.268 . S
O40 Sc24 2.105 . S
O40 C31 1.268 . S
O41 Sc22 2.105 . S
O41 C27 1.268 . S
O42 Sc24 2.105 . S
O42 C26 1.268 . S
O43 Sc23 2.105 . S
O43 C28 1.268 . S
Sc44 O47 2.025 1_556 S
Sc44 O54 2.105 . S
Sc44 O57 2.105 . S
Sc44 O60 2.105 . S
Sc44 O63 2.105 . S
Sc45 O47 2.025 . S
Sc45 O55 2.105 1_554 S
Sc45 O59 2.105 . S
Sc45 O61 2.105 1_554 S
Sc45 O65 2.105 . S
Sc46 O47 2.025 . S
Sc46 O56 2.105 . S
Sc46 O58 2.105 . S
Sc46 O62 2.105 . S
Sc46 O64 2.105 . S
O47 Sc44 2.025 1_554 S
O47 Sc45 2.025 . S
O47 Sc46 2.025 . S
C48 O54 1.268 1_554 S
C48 O64 1.268 . S
C49 O55 1.268 . S
C49 O63 1.268 . S
C50 O56 1.268 . S
C50 O65 1.268 . S
C51 O57 1.268 . S
C51 O61 1.268 . S
C52 O58 1.268 . S
C52 O60 1.268 1_554 S
C53 O59 1.268 . S
C53 O62 1.268 . S
O54 Sc44 2.105 . S
O54 C48 1.268 1_556 S
O55 Sc45 2.105 1_556 S
O55 C49 1.268 . S
O56 Sc46 2.105 . S
O56 C50 1.268 . S
O57 Sc44 2.105 . S
O57 C51 1.268 . S
O58 Sc46 2.105 . S
O58 C52 1.268 . S
O59 Sc45 2.105 . S
O59 C53 1.268 . S
O60 Sc44 2.105 . S
O60 C52 1.268 1_556 S
O61 Sc45 2.105 1_556 S
O61 C51 1.268 . S
O62 Sc46 2.105 . S
O62 C53 1.268 . S
O63 Sc44 2.105 . S
O63 C49 1.268 . S
O64 Sc46 2.105 . S
O64 C48 1.268 . S
O65 Sc45 2.105 . S
O65 C50 1.268 . S
Sc66 O69 2.025 . S
Sc66 O76 2.105 . S
Sc66 O79 2.105 . S
Sc66 O82 2.105 . S
Sc66 O85 2.105 . S
Sc67 O69 2.025 . S
Sc67 O77 2.105 . S
Sc67 O81 2.105 . S
Sc67 O83 2.105 . S
Sc67 O87 2.105 . S
Sc68 O69 2.025 . S
Sc68 O78 2.105 . S
Sc68 O80 2.105 . S
Sc68 O84 2.105 . S
Sc68 O86 2.105 . S
O69 Sc66 2.025 . S
O69 Sc67 2.025 . S
O69 Sc68 2.025 . S
C70 O76 1.268 . S
C70 O86 1.268 . S
C71 O77 1.268 . S
C71 O85 1.268 . S
C72 O78 1.268 . S
C72 O87 1.268 . S
C73 O79 1.268 . S
C73 O83 1.268 . S
C74 O80 1.268 . S
C74 O82 1.268 . S
C75 O81 1.268 . S
C75 O84 1.268 . S
O76 Sc66 2.105 . S
O76 C70 1.268 . S
O77 Sc67 2.105 . S
O77 C71 1.268 . S
O78 Sc68 2.105 . S
O78 C72 1.268 . S
O79 Sc66 2.105 . S
O79 C73 1.268 . S
O80 Sc68 2.105 . S
O80 C74 1.268 . S
O81 Sc67 2.105 . S
O81 C75 1.268 . S
O82 Sc66 2.105 . S
O82 C74 1.268 . S
O83 Sc67 2.105 . S
O83 C73 1.268 . S
O84 Sc68 2.105 . S
O84 C75 1.268 . S
O85 Sc66 2.105 . S
O85 C71 1.268 . S
O86 Sc68 2.105 . S
O86 C70 1.268 . S
O87 Sc67 2.105 . S
O87 C72 1.268 . S
H88 C93 0.930 . S
H89 C96 0.930 . S
H90 C98 0.931 . S
H91 C92 1.016 . S
C92 H91 1.016 . S
C92 N99 1.286 1_554 S
C93 H88 0.930 . S
C93 C94 1.397 . S
C93 C95 1.361 . S
C94 C93 1.397 . S
C94 C98 1.383 1_556 S
C95 C93 1.361 . S
C95 C96 1.393 1_556 S
C95 N99 1.413 . S
C96 H89 0.930 . S
C96 C95 1.393 1_554 S
C96 C97 1.399 . S
C97 C96 1.399 . S
C97 C98 1.388 . S
C98 H90 0.931 . S
C98 C94 1.383 1_554 S
C98 C97 1.388 . S
N99 C92 1.286 1_556 S
N99 C95 1.413 . S
H100 C105 0.930 . S
H101 C108 0.930 . S
H102 C110 0.930 . S
H103 C104 1.016 . S
C104 H103 1.016 . S
C104 N111 1.286 . S
C105 H100 0.930 . S
C105 C106 1.397 . S
C105 C107 1.361 . S
C106 C105 1.397 . S
C106 C110 1.390 . S
C107 C105 1.361 . S
C107 C108 1.393 . S
C107 N111 1.413 1_655 S
C108 H101 0.930 . S
C108 C107 1.393 . S
C108 C109 1.399 . S
C109 C108 1.399 . S
C109 C110 1.381 . S
C110 H102 0.930 . S
C110 C106 1.390 . S
C110 C109 1.381 . S
N111 C104 1.286 . S
N111 C107 1.413 1_455 S
H112 C117 0.930 . S
H113 C120 0.930 . S
H114 C122 0.930 . S
H115 C116 1.016 1_556 S
C116 H115 1.016 1_554 S
C116 N123 1.286 . S
C117 H112 0.930 . S
C117 C118 1.397 . S
C117 C119 1.361 . S
C118 C117 1.397 . S
C118 C122 1.390 . S
C119 C117 1.361 . S
C119 C120 1.393 1_554 S
C119 N123 1.413 . S
C120 H113 0.930 . S
C120 C119 1.393 1_556 S
C120 C121 1.399 . S
C121 C120 1.399 . S
C121 C122 1.381 1_556 S
C122 H114 0.930 . S
C122 C118 1.390 . S
C122 C121 1.381 1_554 S
N123 C116 1.286 . S
N123 C119 1.413 . S
H124 C129 0.930 . S
H125 C132 0.930 . S
H126 C134 0.930 . S
H127 C128 1.016 . S
C128 H127 1.016 . S
C128 N135 1.286 . S
C129 H124 0.930 . S
C129 C130 1.397 . S
C129 C131 1.361 . S
C130 C129 1.397 . S
C130 C134 1.390 . S
C131 C129 1.361 . S
C131 C132 1.393 . S
C131 N135 1.413 1_455 S
C132 H125 0.930 . S
C132 C131 1.393 . S
C132 C133 1.399 . S
C133 C132 1.399 . S
C133 C134 1.381 . S
C134 H126 0.930 . S
C134 C130 1.390 . S
C134 C133 1.381 . S
N135 C128 1.286 . S
N135 C131 1.413 1_655 S
H136 C141 0.930 . S
H137 C144 0.930 . S
H138 C146 0.930 . S
H139 C140 1.016 . S
C140 H139 1.016 . S
C140 N147 1.286 . S
C141 H136 0.930 . S
C141 C142 1.397 . S
C141 C143 1.361 . S
C142 C141 1.397 . S
C142 C146 1.390 . S
C143 C141 1.361 . S
C143 C144 1.393 . S
C143 N147 1.413 1_565 S
C144 H137 0.930 . S
C144 C143 1.393 . S
C144 C145 1.399 . S
C145 C144 1.399 . S
C145 C146 1.381 . S
C146 H138 0.930 . S
C146 C142 1.390 . S
C146 C145 1.381 . S
N147 C140 1.286 . S
N147 C143 1.413 1_545 S
H148 C153 0.930 . S
H149 C156 0.930 . S
H150 C158 0.931 . S
H151 C152 1.016 . S
C152 H151 1.016 . S
C152 N159 1.286 1_554 S
C153 H148 0.930 . S
C153 C154 1.397 . S
C153 C155 1.361 . S
C154 C153 1.397 . S
C154 C158 1.386 1_556 S
C155 C153 1.361 . S
C155 C156 1.393 1_556 S
C155 N159 1.413 . S
C156 H149 0.930 . S
C156 C155 1.393 1_554 S
C156 C157 1.399 . S
C157 C156 1.399 . S
C157 C158 1.384 . S
C158 H150 0.931 . S
C158 C154 1.386 1_554 S
C158 C157 1.384 . S
N159 C152 1.286 1_556 S
N159 C155 1.413 . S
H160 C165 0.930 . S
H161 C168 0.930 . S
H162 C170 0.930 . S
H163 C164 1.016 . S
C164 H163 1.016 . S
C164 N171 1.286 . S
C165 H160 0.930 . S
C165 C166 1.397 . S
C165 C167 1.361 . S
C166 C165 1.397 . S
C166 C170 1.390 . S
C167 C165 1.361 . S
C167 C168 1.393 . S
C167 N171 1.413 1_545 S
C168 H161 0.930 . S
C168 C167 1.393 . S
C168 C169 1.399 . S
C169 C168 1.399 . S
C169 C170 1.381 . S
C170 H162 0.930 . S
C170 C166 1.390 . S
C170 C169 1.381 . S
N171 C164 1.286 . S
N171 C167 1.413 1_565 S
H172 C177 0.930 . S
H173 C180 0.930 . S
H174 C182 0.930 . S
H175 C176 1.016 1_556 S
C176 H175 1.016 1_554 S
C176 N183 1.286 . S
C177 H172 0.930 . S
C177 C178 1.397 . S
C177 C179 1.361 . S
C178 C177 1.397 . S
C178 C182 1.390 . S
C179 C177 1.361 . S
C179 C180 1.393 1_554 S
C179 N183 1.413 . S
C180 H173 0.930 . S
C180 C179 1.393 1_556 S
C180 C181 1.399 . S
C181 C180 1.399 . S
C181 C182 1.381 1_556 S
C182 H174 0.930 . S
C182 C178 1.390 . S
C182 C181 1.381 1_554 S
N183 C176 1.286 . S
N183 C179 1.413 . S
C184 C185 1.349 . S
C184 C186 1.327 . S
C184 H209 0.950 . S
C185 C184 1.349 . S
C185 C201 1.349 . S
C186 C184 1.327 . S
C186 C205 1.429 . S
C186 H210 0.950 . S
C187 C204 1.574 . S
C187 C206 1.368 . S
C187 H211 0.949 . S
H188 C192 0.949 . S
C189 C190 1.349 . S
C189 C191 1.327 . S
C189 H212 0.950 . S
C190 C189 1.349 . S
C190 C202 1.349 . S
C191 C189 1.327 . S
C191 C207 1.429 . S
C191 H213 0.950 . S
C192 H188 0.949 . S
C192 C200 1.574 . S
C192 C208 1.368 . S
H193 C201 0.950 . S
H194 C199 0.950 . S
H195 C200 0.949 . S
H196 C202 0.950 . S
H197 C203 0.950 . S
H198 C204 0.949 . S
C199 H194 0.950 . S
C199 C201 1.327 . S
C199 C205 1.429 . S
C200 C192 1.574 . S
C200 H195 0.949 . S
C200 C206 1.368 . S
C201 C185 1.349 . S
C201 H193 0.950 . S
C201 C199 1.327 . S
C202 C190 1.349 . S
C202 H196 0.950 . S
C202 C203 1.327 . S
C203 H197 0.950 . S
C203 C202 1.327 . S
C203 C207 1.429 . S
C204 C187 1.574 . S
C204 H198 0.949 . S
C204 C208 1.368 . S
C205 C186 1.429 . S
C205 C199 1.429 . S
C205 C206 1.523 . S
C206 C187 1.368 . S
C206 C200 1.368 . S
C206 C205 1.523 . S
C207 C191 1.429 . S
C207 C203 1.429 . S
C207 C208 1.523 . S
C208 C192 1.368 . S
C208 C204 1.368 . S
C208 C207 1.523 . S
H209 C184 0.950 . S
H210 C186 0.950 . S
H211 C187 0.949 . S
H212 C189 0.950 . S
H213 C191 0.950 . S
C214 C215 1.349 . S
C214 C216 1.327 . S
C214 H239 0.950 . S
C215 C214 1.349 . S
C215 C231 1.349 . S
C216 C214 1.327 . S
C216 C235 1.429 . S
C216 H240 0.950 . S
C217 C234 1.574 . S
C217 C236 1.368 . S
C217 H241 0.949 . S
H218 C222 0.949 . S
C219 C220 1.349 . S
C219 C221 1.327 . S
C219 H242 0.950 . S
C220 C219 1.349 . S
C220 C232 1.349 . S
C221 C219 1.327 . S
C221 C237 1.429 . S
C221 H243 0.950 . S
C222 H218 0.949 . S
C222 C230 1.574 . S
C222 C238 1.368 . S
H223 C231 0.950 . S
H224 C229 0.950 . S
H225 C230 0.949 . S
H226 C232 0.950 . S
H227 C233 0.950 . S
H228 C234 0.949 . S
C229 H224 0.950 . S
C229 C231 1.327 . S
C229 C235 1.429 . S
C230 C222 1.574 . S
C230 H225 0.949 . S
C230 C236 1.368 . S
C231 C215 1.349 . S
C231 H223 0.950 . S
C231 C229 1.327 . S
C232 C220 1.349 . S
C232 H226 0.950 . S
C232 C233 1.327 . S
C233 H227 0.950 . S
C233 C232 1.327 . S
C233 C237 1.429 . S
C234 C217 1.574 . S
C234 H228 0.949 . S
C234 C238 1.368 . S
C235 C216 1.429 . S
C235 C229 1.429 . S
C235 C236 1.523 . S
C236 C217 1.368 . S
C236 C230 1.368 . S
C236 C235 1.523 . S
C237 C221 1.429 . S
C237 C233 1.429 . S
C237 C238 1.523 . S
C238 C222 1.368 . S
C238 C234 1.368 . S
C238 C237 1.523 . S
H239 C214 0.950 . S
H240 C216 0.950 . S
H241 C217 0.949 . S
H242 C219 0.950 . S
H243 C221 0.950 . S
C244 C245 1.349 . S
C244 C246 1.327 . S
C244 H269 0.950 . S
C245 C244 1.349 . S
C245 C261 1.349 . S
C246 C244 1.327 . S
C246 C265 1.429 . S
C246 H270 0.950 . S
C247 C264 1.574 . S
C247 C266 1.368 . S
C247 H271 0.949 . S
H248 C252 0.949 . S
C249 C250 1.349 . S
C249 C251 1.327 . S
C249 H272 0.950 . S
C250 C249 1.349 . S
C250 C262 1.349 . S
C251 C249 1.327 . S
C251 C267 1.429 . S
C251 H273 0.950 . S
C252 H248 0.949 . S
C252 C260 1.574 . S
C252 C268 1.368 . S
H253 C261 0.950 . S
H254 C259 0.950 . S
H255 C260 0.949 . S
H256 C262 0.950 . S
H257 C263 0.950 . S
H258 C264 0.949 . S
C259 H254 0.950 . S
C259 C261 1.327 . S
C259 C265 1.429 . S
C260 C252 1.574 . S
C260 H255 0.949 . S
C260 C266 1.368 . S
C261 C245 1.349 . S
C261 H253 0.950 . S
C261 C259 1.327 . S
C262 C250 1.349 . S
C262 H256 0.950 . S
C262 C263 1.327 . S
C263 H257 0.950 . S
C263 C262 1.327 . S
C263 C267 1.429 . S
C264 C247 1.574 . S
C264 H258 0.949 . S
C264 C268 1.368 . S
C265 C246 1.429 . S
C265 C259 1.429 . S
C265 C266 1.523 . S
C266 C247 1.368 . S
C266 C260 1.368 . S
C266 C265 1.523 . S
C267 C251 1.429 . S
C267 C263 1.429 . S
C267 C268 1.523 . S
C268 C252 1.368 . S
C268 C264 1.368 . S
C268 C267 1.523 . S
H269 C244 0.950 . S
H270 C246 0.950 . S
H271 C247 0.949 . S
H272 C249 0.950 . S
H273 C251 0.950 . S
C274 C275 1.349 . S
C274 C276 1.327 . S
C274 H299 0.950 . S
C275 C274 1.349 . S
C275 C291 1.349 . S
C276 C274 1.327 . S
C276 C295 1.429 . S
C276 H300 0.950 . S
C277 C294 1.574 . S
C277 C296 1.368 . S
C277 H301 0.949 . S
H278 C282 0.949 . S
C279 C280 1.349 . S
C279 C281 1.327 . S
C279 H302 0.950 . S
C280 C279 1.349 . S
C280 C292 1.349 . S
C281 C279 1.327 . S
C281 C297 1.429 . S
C281 H303 0.950 . S
C282 H278 0.949 . S
C282 C290 1.574 . S
C282 C298 1.368 . S
H283 C291 0.950 . S
H284 C289 0.950 . S
H285 C290 0.949 . S
H286 C292 0.950 . S
H287 C293 0.950 . S
H288 C294 0.949 . S
C289 H284 0.950 . S
C289 C291 1.327 . S
C289 C295 1.429 . S
C290 C282 1.574 . S
C290 H285 0.949 . S
C290 C296 1.368 . S
C291 C275 1.349 . S
C291 H283 0.950 . S
C291 C289 1.327 . S
C292 C280 1.349 . S
C292 H286 0.950 . S
C292 C293 1.327 . S
C293 H287 0.950 . S
C293 C292 1.327 . S
C293 C297 1.429 . S
C294 C277 1.574 . S
C294 H288 0.949 . S
C294 C298 1.368 . S
C295 C276 1.429 . S
C295 C289 1.429 . S
C295 C296 1.523 . S
C296 C277 1.368 . S
C296 C290 1.368 . S
C296 C295 1.523 . S
C297 C281 1.429 . S
C297 C293 1.429 . S
C297 C298 1.523 . S
C298 C282 1.368 . S
C298 C294 1.368 . S
C298 C297 1.523 . S
H299 C274 0.950 . S
H300 C276 0.950 . S
H301 C277 0.949 . S
H302 C279 0.950 . S
H303 C281 0.950 . S
C304 C305 1.349 . S
C304 C306 1.327 . S
C304 H329 0.950 . S
C305 C304 1.349 . S
C305 C321 1.349 . S
C306 C304 1.327 . S
C306 C325 1.429 . S
C306 H330 0.950 . S
C307 C324 1.574 . S
C307 C326 1.368 . S
C307 H331 0.949 . S
H308 C312 0.949 . S
C309 C310 1.349 . S
C309 C311 1.327 . S
C309 H332 0.950 . S
C310 C309 1.349 . S
C310 C322 1.349 . S
C311 C309 1.327 . S
C311 C327 1.429 . S
C311 H333 0.950 . S
C312 H308 0.949 . S
C312 C320 1.574 . S
C312 C328 1.368 . S
H313 C321 0.950 . S
H314 C319 0.950 . S
H315 C320 0.949 . S
H316 C322 0.950 . S
H317 C323 0.950 . S
H318 C324 0.949 . S
C319 H314 0.950 . S
C319 C321 1.327 . S
C319 C325 1.429 . S
C320 C312 1.574 . S
C320 H315 0.949 . S
C320 C326 1.368 . S
C321 C305 1.349 . S
C321 H313 0.950 . S
C321 C319 1.327 . S
C322 C310 1.349 . S
C322 H316 0.950 . S
C322 C323 1.327 . S
C323 H317 0.950 . S
C323 C322 1.327 . S
C323 C327 1.429 . S
C324 C307 1.574 . S
C324 H318 0.949 . S
C324 C328 1.368 . S
C325 C306 1.429 . S
C325 C319 1.429 . S
C325 C326 1.523 . S
C326 C307 1.368 . S
C326 C320 1.368 . S
C326 C325 1.523 . S
C327 C311 1.429 . S
C327 C323 1.429 . S
C327 C328 1.523 . S
C328 C312 1.368 . S
C328 C324 1.368 . S
C328 C327 1.523 . S
H329 C304 0.950 . S
H330 C306 0.950 . S
H331 C307 0.949 . S
H332 C309 0.950 . S
H333 C311 0.950 . S
C334 C335 1.349 . S
C334 C336 1.327 . S
C334 H359 0.950 . S
C335 C334 1.349 . S
C335 C351 1.349 . S
C336 C334 1.327 . S
C336 C355 1.429 . S
C336 H360 0.950 . S
C337 C354 1.574 . S
C337 C356 1.368 . S
C337 H361 0.949 . S
H338 C342 0.949 . S
C339 C340 1.349 . S
C339 C341 1.327 . S
C339 H362 0.950 . S
C340 C339 1.349 . S
C340 C352 1.349 . S
C341 C339 1.327 . S
C341 C357 1.429 . S
C341 H363 0.950 . S
C342 H338 0.949 . S
C342 C350 1.574 . S
C342 C358 1.368 . S
H343 C351 0.950 . S
H344 C349 0.950 . S
H345 C350 0.949 . S
H346 C352 0.950 . S
H347 C353 0.950 . S
H348 C354 0.949 . S
C349 H344 0.950 . S
C349 C351 1.327 . S
C349 C355 1.429 . S
C350 C342 1.574 . S
C350 H345 0.949 . S
C350 C356 1.368 . S
C351 C335 1.349 . S
C351 H343 0.950 . S
C351 C349 1.327 . S
C352 C340 1.349 . S
C352 H346 0.950 . S
C352 C353 1.327 . S
C353 H347 0.950 . S
C353 C352 1.327 . S
C353 C357 1.429 . S
C354 C337 1.574 . S
C354 H348 0.949 . S
C354 C358 1.368 . S
C355 C336 1.429 . S
C355 C349 1.429 . S
C355 C356 1.523 . S
C356 C337 1.368 . S
C356 C350 1.368 . S
C356 C355 1.523 . S
C357 C341 1.429 . S
C357 C353 1.429 . S
C357 C358 1.523 . S
C358 C342 1.368 . S
C358 C354 1.368 . S
C358 C357 1.523 . S
H359 C334 0.950 . S
H360 C336 0.950 . S
H361 C337 0.949 . S
H362 C339 0.950 . S
H363 C341 0.950 . S
C364 C365 1.349 . S
C364 C366 1.327 . S
C364 H389 0.950 . S
C365 C364 1.349 . S
C365 C381 1.349 . S
C366 C364 1.327 . S
C366 C385 1.429 . S
C366 H390 0.950 . S
C367 C384 1.574 . S
C367 C386 1.368 . S
C367 H391 0.949 . S
H368 C372 0.949 . S
C369 C370 1.349 . S
C369 C371 1.327 . S
C369 H392 0.950 . S
C370 C369 1.349 . S
C370 C382 1.349 . S
C371 C369 1.327 . S
C371 C387 1.429 . S
C371 H393 0.950 . S
C372 H368 0.949 . S
C372 C380 1.574 . S
C372 C388 1.368 . S
H373 C381 0.950 . S
H374 C379 0.950 . S
H375 C380 0.949 . S
H376 C382 0.950 . S
H377 C383 0.950 . S
H378 C384 0.949 . S
C379 H374 0.950 . S
C379 C381 1.327 . S
C379 C385 1.429 . S
C380 C372 1.574 . S
C380 H375 0.949 . S
C380 C386 1.368 . S
C381 C365 1.349 . S
C381 H373 0.950 . S
C381 C379 1.327 . S
C382 C370 1.349 . S
C382 H376 0.950 . S
C382 C383 1.327 . S
C383 H377 0.950 . S
C383 C382 1.327 . S
C383 C387 1.429 . S
C384 C367 1.574 . S
C384 H378 0.949 . S
C384 C388 1.368 . S
C385 C366 1.429 . S
C385 C379 1.429 . S
C385 C386 1.523 . S
C386 C367 1.368 . S
C386 C380 1.368 . S
C386 C385 1.523 . S
C387 C371 1.429 . S
C387 C383 1.429 . S
C387 C388 1.523 . S
C388 C372 1.368 . S
C388 C384 1.368 . S
C388 C387 1.523 . S
H389 C364 0.950 . S
H390 C366 0.950 . S
H391 C367 0.949 . S
H392 C369 0.950 . S
H393 C371 0.950 . S
C394 C395 1.349 . S
C394 C396 1.327 . S
C394 H419 0.950 . S
C395 C394 1.349 . S
C395 C411 1.349 . S
C396 C394 1.327 . S
C396 C415 1.429 . S
C396 H420 0.950 . S
C397 C414 1.574 . S
C397 C416 1.368 . S
C397 H421 0.949 . S
H398 C402 0.949 . S
C399 C400 1.349 . S
C399 C401 1.327 . S
C399 H422 0.950 . S
C400 C399 1.349 . S
C400 C412 1.349 . S
C401 C399 1.327 . S
C401 C417 1.429 . S
C401 H423 0.950 . S
C402 H398 0.949 . S
C402 C410 1.574 . S
C402 C418 1.368 . S
H403 C411 0.950 . S
H404 C409 0.950 . S
H405 C410 0.949 . S
H406 C412 0.950 . S
H407 C413 0.950 . S
H408 C414 0.949 . S
C409 H404 0.950 . S
C409 C411 1.327 . S
C409 C415 1.429 . S
C410 C402 1.574 . S
C410 H405 0.949 . S
C410 C416 1.368 . S
C411 C395 1.349 . S
C411 H403 0.950 . S
C411 C409 1.327 . S
C412 C400 1.349 . S
C412 H406 0.950 . S
C412 C413 1.327 . S
C413 H407 0.950 . S
C413 C412 1.327 . S
C413 C417 1.429 . S
C414 C397 1.574 . S
C414 H408 0.949 . S
C414 C418 1.368 . S
C415 C396 1.429 . S
C415 C409 1.429 . S
C415 C416 1.523 . S
C416 C397 1.368 . S
C416 C410 1.368 . S
C416 C415 1.523 . S
C417 C401 1.429 . S
C417 C413 1.429 . S
C417 C418 1.523 . S
C418 C402 1.368 . S
C418 C414 1.368 . S
C418 C417 1.523 . S
H419 C394 0.950 . S
H420 C396 0.950 . S
H421 C397 0.949 . S
H422 C399 0.950 . S
H423 C401 0.950 . S
C424 C425 1.349 . S
C424 C426 1.327 . S
C424 H449 0.950 . S
C425 C424 1.349 . S
C425 C441 1.349 . S
C426 C424 1.327 . S
C426 C445 1.429 . S
C426 H450 0.950 . S
C427 C444 1.574 . S
C427 C446 1.368 . S
C427 H451 0.949 . S
H428 C432 0.949 . S
C429 C430 1.349 . S
C429 C431 1.327 . S
C429 H452 0.950 . S
C430 C429 1.349 . S
C430 C442 1.349 . S
C431 C429 1.327 . S
C431 C447 1.429 . S
C431 H453 0.950 . S
C432 H428 0.949 . S
C432 C440 1.574 . S
C432 C448 1.368 . S
H433 C441 0.950 . S
H434 C439 0.950 . S
H435 C440 0.949 . S
H436 C442 0.950 . S
H437 C443 0.950 . S
H438 C444 0.949 . S
C439 H434 0.950 . S
C439 C441 1.327 . S
C439 C445 1.429 . S
C440 C432 1.574 . S
C440 H435 0.949 . S
C440 C446 1.368 . S
C441 C425 1.349 . S
C441 H433 0.950 . S
C441 C439 1.327 . S
C442 C430 1.349 . S
C442 H436 0.950 . S
C442 C443 1.327 . S
C443 H437 0.950 . S
C443 C442 1.327 . S
C443 C447 1.429 . S
C444 C427 1.574 . S
C444 H438 0.949 . S
C444 C448 1.368 . S
C445 C426 1.429 . S
C445 C439 1.429 . S
C445 C446 1.523 . S
C446 C427 1.368 . S
C446 C440 1.368 . S
C446 C445 1.523 . S
C447 C431 1.429 . S
C447 C443 1.429 . S
C447 C448 1.523 . S
C448 C432 1.368 . S
C448 C444 1.368 . S
C448 C447 1.523 . S
H449 C424 0.950 . S
H450 C426 0.950 . S
H451 C427 0.949 . S
H452 C429 0.950 . S
H453 C431 0.950 . S
C454 C455 1.349 . S
C454 C456 1.327 . S
C454 H479 0.950 . S
C455 C454 1.349 . S
C455 C471 1.349 . S
C456 C454 1.327 . S
C456 C475 1.429 . S
C456 H480 0.950 . S
C457 C474 1.574 . S
C457 C476 1.368 . S
C457 H481 0.949 . S
H458 C462 0.949 . S
C459 C460 1.349 . S
C459 C461 1.327 . S
C459 H482 0.950 . S
C460 C459 1.349 . S
C460 C472 1.349 . S
C461 C459 1.327 . S
C461 C477 1.429 . S
C461 H483 0.950 . S
C462 H458 0.949 . S
C462 C470 1.574 . S
C462 C478 1.368 . S
H463 C471 0.950 . S
H464 C469 0.950 . S
H465 C470 0.949 . S
H466 C472 0.950 . S
H467 C473 0.950 . S
H468 C474 0.949 . S
C469 H464 0.950 . S
C469 C471 1.327 . S
C469 C475 1.429 . S
C470 C462 1.574 . S
C470 H465 0.949 . S
C470 C476 1.368 . S
C471 C455 1.349 . S
C471 H463 0.950 . S
C471 C469 1.327 . S
C472 C460 1.349 . S
C472 H466 0.950 . S
C472 C473 1.327 . S
C473 H467 0.950 . S
C473 C472 1.327 . S
C473 C477 1.429 . S
C474 C457 1.574 . S
C474 H468 0.949 . S
C474 C478 1.368 . S
C475 C456 1.429 . S
C475 C469 1.429 . S
C475 C476 1.523 . S
C476 C457 1.368 . S
C476 C470 1.368 . S
C476 C475 1.523 . S
C477 C461 1.429 . S
C477 C473 1.429 . S
C477 C478 1.523 . S
C478 C462 1.368 . S
C478 C474 1.368 . S
C478 C477 1.523 . S
H479 C454 0.950 . S
H480 C456 0.950 . S
H481 C457 0.949 . S
H482 C459 0.950 . S
H483 C461 0.950 . S
C484 C485 1.349 . S
C484 C486 1.327 . S
C484 H509 0.950 . S
C485 C484 1.349 . S
C485 C501 1.349 . S
C486 C484 1.327 . S
C486 C505 1.429 . S
C486 H510 0.950 . S
C487 C504 1.574 . S
C487 C506 1.368 . S
C487 H511 0.949 . S
H488 C492 0.949 . S
C489 C490 1.349 . S
C489 C491 1.327 . S
C489 H512 0.950 . S
C490 C489 1.349 . S
C490 C502 1.349 . S
C491 C489 1.327 . S
C491 C507 1.429 . S
C491 H513 0.950 . S
C492 H488 0.949 . S
C492 C500 1.574 . S
C492 C508 1.368 . S
H493 C501 0.950 . S
H494 C499 0.950 . S
H495 C500 0.949 . S
H496 C502 0.950 . S
H497 C503 0.950 . S
H498 C504 0.949 . S
C499 H494 0.950 . S
C499 C501 1.327 . S
C499 C505 1.429 . S
C500 C492 1.574 . S
C500 H495 0.949 . S
C500 C506 1.368 . S
C501 C485 1.349 . S
C501 H493 0.950 . S
C501 C499 1.327 . S
C502 C490 1.349 . S
C502 H496 0.950 . S
C502 C503 1.327 . S
C503 H497 0.950 . S
C503 C502 1.327 . S
C503 C507 1.429 . S
C504 C487 1.574 . S
C504 H498 0.949 . S
C504 C508 1.368 . S
C505 C486 1.429 . S
C505 C499 1.429 . S
C505 C506 1.523 . S
C506 C487 1.368 . S
C506 C500 1.368 . S
C506 C505 1.523 . S
C507 C491 1.429 . S
C507 C503 1.429 . S
C507 C508 1.523 . S
C508 C492 1.368 . S
C508 C504 1.368 . S
C508 C507 1.523 . S
H509 C484 0.950 . S
H510 C486 0.950 . S
H511 C487 0.949 . S
H512 C489 0.950 . S
H513 C491 0.950 . S
C514 C515 1.349 . S
C514 C516 1.327 . S
C514 H539 0.950 . S
C515 C514 1.349 . S
C515 C531 1.349 . S
C516 C514 1.327 . S
C516 C535 1.429 . S
C516 H540 0.950 . S
C517 C534 1.574 . S
C517 C536 1.368 . S
C517 H541 0.949 . S
H518 C522 0.949 . S
C519 C520 1.349 . S
C519 C521 1.327 . S
C519 H542 0.950 . S
C520 C519 1.349 . S
C520 C532 1.349 . S
C521 C519 1.327 . S
C521 C537 1.429 . S
C521 H543 0.950 . S
C522 H518 0.949 . S
C522 C530 1.574 . S
C522 C538 1.368 . S
H523 C531 0.950 . S
H524 C529 0.950 . S
H525 C530 0.949 . S
H526 C532 0.950 . S
H527 C533 0.950 . S
H528 C534 0.949 . S
C529 H524 0.950 . S
C529 C531 1.327 . S
C529 C535 1.429 . S
C530 C522 1.574 . S
C530 H525 0.949 . S
C530 C536 1.368 . S
C531 C515 1.349 . S
C531 H523 0.950 . S
C531 C529 1.327 . S
C532 C520 1.349 . S
C532 H526 0.950 . S
C532 C533 1.327 . S
C533 H527 0.950 . S
C533 C532 1.327 . S
C533 C537 1.429 . S
C534 C517 1.574 . S
C534 H528 0.949 . S
C534 C538 1.368 . S
C535 C516 1.429 . S
C535 C529 1.429 . S
C535 C536 1.523 . S
C536 C517 1.368 . S
C536 C530 1.368 . S
C536 C535 1.523 . S
C537 C521 1.429 . S
C537 C533 1.429 . S
C537 C538 1.523 . S
C538 C522 1.368 . S
C538 C534 1.368 . S
C538 C537 1.523 . S
H539 C514 0.950 . S
H540 C516 0.950 . S
H541 C517 0.949 . S
H542 C519 0.950 . S
H543 C521 0.950 . S
C544 C545 1.349 . S
C544 C546 1.327 . S
C544 H569 0.950 . S
C545 C544 1.349 . S
C545 C561 1.349 . S
C546 C544 1.327 . S
C546 C565 1.429 . S
C546 H570 0.950 . S
C547 C564 1.574 . S
C547 C566 1.368 . S
C547 H571 0.949 . S
H548 C552 0.949 . S
C549 C550 1.349 . S
C549 C551 1.327 . S
C549 H572 0.950 . S
C550 C549 1.349 . S
C550 C562 1.349 . S
C551 C549 1.327 . S
C551 C567 1.429 . S
C551 H573 0.950 . S
C552 H548 0.949 . S
C552 C560 1.574 . S
C552 C568 1.368 . S
H553 C561 0.950 . S
H554 C559 0.950 . S
H555 C560 0.949 . S
H556 C562 0.950 . S
H557 C563 0.950 . S
H558 C564 0.949 . S
C559 H554 0.950 . S
C559 C561 1.327 . S
C559 C565 1.429 . S
C560 C552 1.574 . S
C560 H555 0.949 . S
C560 C566 1.368 . S
C561 C545 1.349 . S
C561 H553 0.950 . S
C561 C559 1.327 . S
C562 C550 1.349 . S
C562 H556 0.950 . S
C562 C563 1.327 . S
C563 H557 0.950 . S
C563 C562 1.327 . S
C563 C567 1.429 . S
C564 C547 1.574 . S
C564 H558 0.949 . S
C564 C568 1.368 . S
C565 C546 1.429 . S
C565 C559 1.429 . S
C565 C566 1.523 . S
C566 C547 1.368 . S
C566 C560 1.368 . S
C566 C565 1.523 . S
C567 C551 1.429 . S
C567 C563 1.429 . S
C567 C568 1.523 . S
C568 C552 1.368 . S
C568 C564 1.368 . S
C568 C567 1.523 . S
H569 C544 0.950 . S
H570 C546 0.950 . S
H571 C547 0.949 . S
H572 C549 0.950 . S
H573 C551 0.950 . S
C574 C575 1.349 . S
C574 C576 1.327 . S
C574 H599 0.950 . S
C575 C574 1.349 . S
C575 C591 1.349 . S
C576 C574 1.327 . S
C576 C595 1.429 . S
C576 H600 0.950 . S
C577 C594 1.574 . S
C577 C596 1.368 . S
C577 H601 0.949 . S
H578 C582 0.949 . S
C579 C580 1.349 . S
C579 C581 1.327 . S
C579 H602 0.950 . S
C580 C579 1.349 . S
C580 C592 1.349 . S
C581 C579 1.327 . S
C581 C597 1.429 . S
C581 H603 0.950 . S
C582 H578 0.949 . S
C582 C590 1.574 . S
C582 C598 1.368 . S
H583 C591 0.950 . S
H584 C589 0.950 . S
H585 C590 0.949 . S
H586 C592 0.950 . S
H587 C593 0.950 . S
H588 C594 0.949 . S
C589 H584 0.950 . S
C589 C591 1.327 . S
C589 C595 1.429 . S
C590 C582 1.574 . S
C590 H585 0.949 . S
C590 C596 1.368 . S
C591 C575 1.349 . S
C591 H583 0.950 . S
C591 C589 1.327 . S
C592 C580 1.349 . S
C592 H586 0.950 . S
C592 C593 1.327 . S
C593 H587 0.950 . S
C593 C592 1.327 . S
C593 C597 1.429 . S
C594 C577 1.574 . S
C594 H588 0.949 . S
C594 C598 1.368 . S
C595 C576 1.429 . S
C595 C589 1.429 . S
C595 C596 1.523 . S
C596 C577 1.368 . S
C596 C590 1.368 . S
C596 C595 1.523 . S
C597 C581 1.429 . S
C597 C593 1.429 . S
C597 C598 1.523 . S
C598 C582 1.368 . S
C598 C594 1.368 . S
C598 C597 1.523 . S
H599 C574 0.950 . S
H600 C576 0.950 . S
H601 C577 0.949 . S
H602 C579 0.950 . S
H603 C581 0.950 . S
C604 C605 1.349 . S
C604 C606 1.327 . S
C604 H629 0.950 . S
C605 C604 1.349 . S
C605 C621 1.349 . S
C606 C604 1.327 . S
C606 C625 1.429 . S
C606 H630 0.950 . S
C607 C624 1.574 . S
C607 C626 1.368 . S
C607 H631 0.949 . S
H608 C612 0.949 . S
C609 C610 1.349 . S
C609 C611 1.327 . S
C609 H632 0.950 . S
C610 C609 1.349 . S
C610 C622 1.349 . S
C611 C609 1.327 . S
C611 C627 1.429 . S
C611 H633 0.950 . S
C612 H608 0.949 . S
C612 C620 1.574 . S
C612 C628 1.368 . S
H613 C621 0.950 . S
H614 C619 0.950 . S
H615 C620 0.949 . S
H616 C622 0.950 . S
H617 C623 0.950 . S
H618 C624 0.949 . S
C619 H614 0.950 . S
C619 C621 1.327 . S
C619 C625 1.429 . S
C620 C612 1.574 . S
C620 H615 0.949 . S
C620 C626 1.368 . S
C621 C605 1.349 . S
C621 H613 0.950 . S
C621 C619 1.327 . S
C622 C610 1.349 . S
C622 H616 0.950 . S
C622 C623 1.327 . S
C623 H617 0.950 . S
C623 C622 1.327 . S
C623 C627 1.429 . S
C624 C607 1.574 . S
C624 H618 0.949 . S
C624 C628 1.368 . S
C625 C606 1.429 . S
C625 C619 1.429 . S
C625 C626 1.523 . S
C626 C607 1.368 . S
C626 C620 1.368 . S
C626 C625 1.523 . S
C627 C611 1.429 . S
C627 C623 1.429 . S
C627 C628 1.523 . S
C628 C612 1.368 . S
C628 C624 1.368 . S
C628 C627 1.523 . S
H629 C604 0.950 . S
H630 C606 0.950 . S
H631 C607 0.949 . S
H632 C609 0.950 . S
H633 C611 0.950 . S
C634 C635 1.349 . S
C634 C636 1.327 . S
C634 H659 0.950 . S
C635 C634 1.349 . S
C635 C651 1.349 . S
C636 C634 1.327 . S
C636 C655 1.429 . S
C636 H660 0.950 . S
C637 C654 1.574 . S
C637 C656 1.368 . S
C637 H661 0.949 . S
H638 C642 0.949 . S
C639 C640 1.349 . S
C639 C641 1.327 . S
C639 H662 0.950 . S
C640 C639 1.349 . S
C640 C652 1.349 . S
C641 C639 1.327 . S
C641 C657 1.429 . S
C641 H663 0.950 . S
C642 H638 0.949 . S
C642 C650 1.574 . S
C642 C658 1.368 . S
H643 C651 0.950 . S
H644 C649 0.950 . S
H645 C650 0.949 . S
H646 C652 0.950 . S
H647 C653 0.950 . S
H648 C654 0.949 . S
C649 H644 0.950 . S
C649 C651 1.327 . S
C649 C655 1.429 . S
C650 C642 1.574 . S
C650 H645 0.949 . S
C650 C656 1.368 . S
C651 C635 1.349 . S
C651 H643 0.950 . S
C651 C649 1.327 . S
C652 C640 1.349 . S
C652 H646 0.950 . S
C652 C653 1.327 . S
C653 H647 0.950 . S
C653 C652 1.327 . S
C653 C657 1.429 . S
C654 C637 1.574 . S
C654 H648 0.949 . S
C654 C658 1.368 . S
C655 C636 1.429 . S
C655 C649 1.429 . S
C655 C656 1.523 . S
C656 C637 1.368 . S
C656 C650 1.368 . S
C656 C655 1.523 . S
C657 C641 1.429 . S
C657 C653 1.429 . S
C657 C658 1.523 . S
C658 C642 1.368 . S
C658 C654 1.368 . S
C658 C657 1.523 . S
H659 C634 0.950 . S
H660 C636 0.950 . S
H661 C637 0.949 . S
H662 C639 0.950 . S
H663 C641 0.950 . S
C664 C665 1.349 . S
C664 C666 1.327 . S
C664 H689 0.950 . S
C665 C664 1.349 . S
C665 C681 1.349 1_554 S
C666 C664 1.327 . S
C666 C685 1.429 . S
C666 H690 0.950 . S
C667 C684 1.574 . S
C667 C686 1.368 1_556 S
C667 H691 0.949 . S
H668 C672 0.949 . S
C669 C670 1.349 1_556 S
C669 C671 1.327 . S
C669 H692 0.950 . S
C670 C669 1.349 1_554 S
C670 C682 1.349 . S
C671 C669 1.327 . S
C671 C687 1.429 1_556 S
C671 H693 0.950 . S
C672 H668 0.949 . S
C672 C680 1.574 . S
C672 C688 1.368 . S
H673 C681 0.950 . S
H674 C679 0.950 . S
H675 C680 0.949 . S
H676 C682 0.950 . S
H677 C683 0.950 . S
H678 C684 0.949 . S
C679 H674 0.950 . S
C679 C681 1.327 . S
C679 C685 1.429 1_556 S
C680 C672 1.574 . S
C680 H675 0.949 . S
C680 C686 1.368 . S
C681 C665 1.349 1_556 S
C681 H673 0.950 . S
C681 C679 1.327 . S
C682 C670 1.349 . S
C682 H676 0.950 . S
C682 C683 1.327 . S
C683 H677 0.950 . S
C683 C682 1.327 . S
C683 C687 1.429 . S
C684 C667 1.574 . S
C684 H678 0.949 . S
C684 C688 1.368 1_556 S
C685 C666 1.429 . S
C685 C679 1.429 1_554 S
C685 C686 1.523 . S
C686 C667 1.368 1_554 S
C686 C680 1.368 . S
C686 C685 1.523 . S
C687 C671 1.429 1_554 S
C687 C683 1.429 . S
C687 C688 1.523 . S
C688 C672 1.368 . S
C688 C684 1.368 1_554 S
C688 C687 1.523 . S
H689 C664 0.950 . S
H690 C666 0.950 . S
H691 C667 0.949 . S
H692 C669 0.950 . S
H693 C671 0.950 . S
C694 C695 1.349 . S
C694 C696 1.327 . S
C694 H719 0.950 . S
C695 C694 1.349 . S
C695 C711 1.349 . S
C696 C694 1.327 . S
C696 C715 1.429 . S
C696 H720 0.950 . S
C697 C714 1.574 . S
C697 C716 1.368 . S
C697 H721 0.949 . S
H698 C702 0.949 . S
C699 C700 1.349 . S
C699 C701 1.327 . S
C699 H722 0.950 . S
C700 C699 1.349 . S
C700 C712 1.349 . S
C701 C699 1.327 . S
C701 C717 1.429 . S
C701 H723 0.950 . S
C702 H698 0.949 . S
C702 C710 1.574 . S
C702 C718 1.368 . S
H703 C711 0.950 . S
H704 C709 0.950 . S
H705 C710 0.949 . S
H706 C712 0.950 . S
H707 C713 0.950 . S
H708 C714 0.949 . S
C709 H704 0.950 . S
C709 C711 1.327 . S
C709 C715 1.429 . S
C710 C702 1.574 . S
C710 H705 0.949 . S
C710 C716 1.368 . S
C711 C695 1.349 . S
C711 H703 0.950 . S
C711 C709 1.327 . S
C712 C700 1.349 . S
C712 H706 0.950 . S
C712 C713 1.327 . S
C713 H707 0.950 . S
C713 C712 1.327 . S
C713 C717 1.429 . S
C714 C697 1.574 . S
C714 H708 0.949 . S
C714 C718 1.368 . S
C715 C696 1.429 . S
C715 C709 1.429 . S
C715 C716 1.523 . S
C716 C697 1.368 . S
C716 C710 1.368 . S
C716 C715 1.523 . S
C717 C701 1.429 . S
C717 C713 1.429 . S
C717 C718 1.523 . S
C718 C702 1.368 . S
C718 C714 1.368 . S
C718 C717 1.523 . S
H719 C694 0.950 . S
H720 C696 0.950 . S
H721 C697 0.949 . S
H722 C699 0.950 . S
H723 C701 0.950 . S
C724 C725 1.349 1_556 S
C724 C726 1.327 . S
C724 H749 0.950 . S
C725 C724 1.349 1_554 S
C725 C741 1.349 . S
C726 C724 1.327 . S
C726 C745 1.429 1_556 S
C726 H750 0.950 . S
C727 C744 1.574 . S
C727 C746 1.368 . S
C727 H751 0.949 . S
H728 C732 0.949 . S
C729 C730 1.349 . S
C729 C731 1.327 . S
C729 H752 0.950 . S
C730 C729 1.349 . S
C730 C742 1.349 1_554 S
C731 C729 1.327 . S
C731 C747 1.429 . S
C731 H753 0.950 . S
C732 H728 0.949 . S
C732 C740 1.574 . S
C732 C748 1.368 1_556 S
H733 C741 0.950 . S
H734 C739 0.950 . S
H735 C740 0.949 . S
H736 C742 0.950 . S
H737 C743 0.950 . S
H738 C744 0.949 . S
C739 H734 0.950 . S
C739 C741 1.327 . S
C739 C745 1.429 . S
C740 C732 1.574 . S
C740 H735 0.949 . S
C740 C746 1.368 1_556 S
C741 C725 1.349 . S
C741 H733 0.950 . S
C741 C739 1.327 . S
C742 C730 1.349 1_556 S
C742 H736 0.950 . S
C742 C743 1.327 . S
C743 H737 0.950 . S
C743 C742 1.327 . S
C743 C747 1.429 1_556 S
C744 C727 1.574 . S
C744 H738 0.949 . S
C744 C748 1.368 . S
C745 C726 1.429 1_554 S
C745 C739 1.429 . S
C745 C746 1.523 . S
C746 C727 1.368 . S
C746 C740 1.368 1_554 S
C746 C745 1.523 . S
C747 C731 1.429 . S
C747 C743 1.429 1_554 S
C747 C748 1.523 . S
C748 C732 1.368 1_554 S
C748 C744 1.368 . S
C748 C747 1.523 . S
H749 C724 0.950 . S
H750 C726 0.950 . S
H751 C727 0.949 . S
H752 C729 0.950 . S
H753 C731 0.950 . S
C754 C755 1.349 . S
C754 C756 1.327 . S
C754 H779 0.950 . S
C755 C754 1.349 . S
C755 C771 1.349 . S
C756 C754 1.327 . S
C756 C775 1.429 . S
C756 H780 0.950 . S
C757 C774 1.574 . S
C757 C776 1.368 . S
C757 H781 0.949 . S
H758 C762 0.949 . S
C759 C760 1.349 . S
C759 C761 1.327 . S
C759 H782 0.950 . S
C760 C759 1.349 . S
C760 C772 1.349 . S
C761 C759 1.327 . S
C761 C777 1.429 . S
C761 H783 0.950 . S
C762 H758 0.949 . S
C762 C770 1.574 . S
C762 C778 1.368 . S
H763 C771 0.950 . S
H764 C769 0.950 . S
H765 C770 0.949 . S
H766 C772 0.950 . S
H767 C773 0.950 . S
H768 C774 0.949 . S
C769 H764 0.950 . S
C769 C771 1.327 . S
C769 C775 1.429 . S
C770 C762 1.574 . S
C770 H765 0.949 . S
C770 C776 1.368 . S
C771 C755 1.349 . S
C771 H763 0.950 . S
C771 C769 1.327 . S
C772 C760 1.349 . S
C772 H766 0.950 . S
C772 C773 1.327 . S
C773 H767 0.950 . S
C773 C772 1.327 . S
C773 C777 1.429 . S
C774 C757 1.574 . S
C774 H768 0.949 . S
C774 C778 1.368 . S
C775 C756 1.429 . S
C775 C769 1.429 . S
C775 C776 1.523 . S
C776 C757 1.368 . S
C776 C770 1.368 . S
C776 C775 1.523 . S
C777 C761 1.429 . S
C777 C773 1.429 . S
C777 C778 1.523 . S
C778 C762 1.368 . S
C778 C774 1.368 . S
C778 C777 1.523 . S
H779 C754 0.950 . S
H780 C756 0.950 . S
H781 C757 0.949 . S
H782 C759 0.950 . S
H783 C761 0.950 . S
C784 C785 1.349 . S
C784 C786 1.327 . S
C784 H809 0.950 . S
C785 C784 1.349 . S
C785 C801 1.349 . S
C786 C784 1.327 . S
C786 C805 1.429 . S
C786 H810 0.950 . S
C787 C804 1.574 . S
C787 C806 1.368 . S
C787 H811 0.949 . S
H788 C792 0.949 . S
C789 C790 1.349 . S
C789 C791 1.327 . S
C789 H812 0.950 . S
C790 C789 1.349 . S
C790 C802 1.349 . S
C791 C789 1.327 . S
C791 C807 1.429 . S
C791 H813 0.950 . S
C792 H788 0.949 . S
C792 C800 1.574 . S
C792 C808 1.368 . S
H793 C801 0.950 . S
H794 C799 0.950 . S
H795 C800 0.949 . S
H796 C802 0.950 . S
H797 C803 0.950 . S
H798 C804 0.949 . S
C799 H794 0.950 . S
C799 C801 1.327 . S
C799 C805 1.429 . S
C800 C792 1.574 . S
C800 H795 0.949 . S
C800 C806 1.368 . S
C801 C785 1.349 . S
C801 H793 0.950 . S
C801 C799 1.327 . S
C802 C790 1.349 . S
C802 H796 0.950 . S
C802 C803 1.327 . S
C803 H797 0.950 . S
C803 C802 1.327 . S
C803 C807 1.429 . S
C804 C787 1.574 . S
C804 H798 0.949 . S
C804 C808 1.368 . S
C805 C786 1.429 . S
C805 C799 1.429 . S
C805 C806 1.523 . S
C806 C787 1.368 . S
C806 C800 1.368 . S
C806 C805 1.523 . S
C807 C791 1.429 . S
C807 C803 1.429 . S
C807 C808 1.523 . S
C808 C792 1.368 . S
C808 C804 1.368 . S
C808 C807 1.523 . S
H809 C784 0.950 . S
H810 C786 0.950 . S
H811 C787 0.949 . S
H812 C789 0.950 . S
H813 C791 0.950 . S
C814 C815 1.349 1_556 S
C814 C816 1.327 . S
C814 H839 0.950 . S
C815 C814 1.349 1_554 S
C815 C831 1.349 . S
C816 C814 1.327 . S
C816 C835 1.429 1_556 S
C816 H840 0.950 . S
C817 C834 1.574 . S
C817 C836 1.368 . S
C817 H841 0.949 . S
H818 C822 0.949 . S
C819 C820 1.349 . S
C819 C821 1.327 . S
C819 H842 0.950 . S
C820 C819 1.349 . S
C820 C832 1.349 1_554 S
C821 C819 1.327 . S
C821 C837 1.429 . S
C821 H843 0.950 . S
C822 H818 0.949 . S
C822 C830 1.574 . S
C822 C838 1.368 1_556 S
H823 C831 0.950 . S
H824 C829 0.950 . S
H825 C830 0.949 . S
H826 C832 0.950 . S
H827 C833 0.950 . S
H828 C834 0.949 . S
C829 H824 0.950 . S
C829 C831 1.327 . S
C829 C835 1.429 . S
C830 C822 1.574 . S
C830 H825 0.949 . S
C830 C836 1.368 1_556 S
C831 C815 1.349 . S
C831 H823 0.950 . S
C831 C829 1.327 . S
C832 C820 1.349 1_556 S
C832 H826 0.950 . S
C832 C833 1.327 . S
C833 H827 0.950 . S
C833 C832 1.327 . S
C833 C837 1.429 1_556 S
C834 C817 1.574 . S
C834 H828 0.949 . S
C834 C838 1.368 . S
C835 C816 1.429 1_554 S
C835 C829 1.429 . S
C835 C836 1.523 . S
C836 C817 1.368 . S
C836 C830 1.368 1_554 S
C836 C835 1.523 . S
C837 C821 1.429 . S
C837 C833 1.429 1_554 S
C837 C838 1.523 . S
C838 C822 1.368 1_554 S
C838 C834 1.368 . S
C838 C837 1.523 . S
H839 C814 0.950 . S
H840 C816 0.950 . S
H841 C817 0.949 . S
H842 C819 0.950 . S
H843 C821 0.950 . S
C844 C845 1.349 . S
C844 C846 1.327 . S
C844 H869 0.950 . S
C845 C844 1.349 . S
C845 C861 1.349 . S
C846 C844 1.327 . S
C846 C865 1.429 . S
C846 H870 0.950 . S
C847 C864 1.574 . S
C847 C866 1.368 . S
C847 H871 0.949 . S
H848 C852 0.949 . S
C849 C850 1.349 . S
C849 C851 1.327 . S
C849 H872 0.950 . S
C850 C849 1.349 . S
C850 C862 1.349 . S
C851 C849 1.327 . S
C851 C867 1.429 . S
C851 H873 0.950 . S
C852 H848 0.949 . S
C852 C860 1.574 . S
C852 C868 1.368 . S
H853 C861 0.950 . S
H854 C859 0.950 . S
H855 C860 0.949 . S
H856 C862 0.950 . S
H857 C863 0.950 . S
H858 C864 0.949 . S
C859 H854 0.950 . S
C859 C861 1.327 . S
C859 C865 1.429 . S
C860 C852 1.574 . S
C860 H855 0.949 . S
C860 C866 1.368 . S
C861 C845 1.349 . S
C861 H853 0.950 . S
C861 C859 1.327 . S
C862 C850 1.349 . S
C862 H856 0.950 . S
C862 C863 1.327 . S
C863 H857 0.950 . S
C863 C862 1.327 . S
C863 C867 1.429 . S
C864 C847 1.574 . S
C864 H858 0.949 . S
C864 C868 1.368 . S
C865 C846 1.429 . S
C865 C859 1.429 . S
C865 C866 1.523 . S
C866 C847 1.368 . S
C866 C860 1.368 . S
C866 C865 1.523 . S
C867 C851 1.429 . S
C867 C863 1.429 . S
C867 C868 1.523 . S
C868 C852 1.368 . S
C868 C864 1.368 . S
C868 C867 1.523 . S
H869 C844 0.950 . S
H870 C846 0.950 . S
H871 C847 0.949 . S
H872 C849 0.950 . S
H873 C851 0.950 . S
C874 C875 1.349 . S
C874 C876 1.327 . S
C874 H899 0.950 . S
C875 C874 1.349 . S
C875 C891 1.349 1_554 S
C876 C874 1.327 . S
C876 C895 1.429 . S
C876 H900 0.950 . S
C877 C894 1.574 . S
C877 C896 1.368 1_556 S
C877 H901 0.949 . S
H878 C882 0.949 . S
C879 C880 1.349 1_556 S
C879 C881 1.327 . S
C879 H902 0.950 . S
C880 C879 1.349 1_554 S
C880 C892 1.349 . S
C881 C879 1.327 . S
C881 C897 1.429 1_556 S
C881 H903 0.950 . S
C882 H878 0.949 . S
C882 C890 1.574 . S
C882 C898 1.368 . S
H883 C891 0.950 . S
H884 C889 0.950 . S
H885 C890 0.949 . S
H886 C892 0.950 . S
H887 C893 0.950 . S
H888 C894 0.949 . S
C889 H884 0.950 . S
C889 C891 1.327 . S
C889 C895 1.429 1_556 S
C890 C882 1.574 . S
C890 H885 0.949 . S
C890 C896 1.368 . S
C891 C875 1.349 1_556 S
C891 H883 0.950 . S
C891 C889 1.327 . S
C892 C880 1.349 . S
C892 H886 0.950 . S
C892 C893 1.327 . S
C893 H887 0.950 . S
C893 C892 1.327 . S
C893 C897 1.429 . S
C894 C877 1.574 . S
C894 H888 0.949 . S
C894 C898 1.368 1_556 S
C895 C876 1.429 . S
C895 C889 1.429 1_554 S
C895 C896 1.523 . S
C896 C877 1.368 1_554 S
C896 C890 1.368 . S
C896 C895 1.523 . S
C897 C881 1.429 1_554 S
C897 C893 1.429 . S
C897 C898 1.523 . S
C898 C882 1.368 . S
C898 C894 1.368 1_554 S
C898 C897 1.523 . S
H899 C874 0.950 . S
H900 C876 0.950 . S
H901 C877 0.949 . S
H902 C879 0.950 . S
H903 C881 0.950 . S
C185 C5 1.443 . S
C190 C130 1.456 . S
C215 C31 1.455 . S
C220 C94 1.467 . S
C250 C109 1.464 . S
C245 C53 1.475 . S
C275 C71 1.463 . S
C280 C121 1.454 . S
C310 C157 1.455 . S
C305 C75 1.463 . S
C340 C169 1.465 . S
C335 C9 1.476 . S
C370 C178 1.468 . S
C365 C27 1.456 . S
C400 C142 1.457 . S
C395 C49 1.443 . S
C425 C51 1.443 . S
C430 C106 1.449 . S
C455 C72 1.456 . S
C460 C118 1.460 . S
C485 C6 1.476 . S
C490 C133 1.469 . S
C520 C97 1.458 . S
C515 C29 1.463 . S
C545 C28 1.463 . S
C550 C181 1.458 . S
C580 C145 1.468 . S
C575 C50 1.475 . S
C610 C154 1.460 . S
C605 C73 1.456 . S
C635 C7 1.443 . S
C640 C166 1.449 . S
C670 C92 1.507 . S
C665 C4 1.502 . S
C700 C104 1.511 . S
C695 C30 1.502 . S
C725 C52 1.502 . S
C730 C116 1.512 . S
C755 C70 1.502 . S
C760 C128 1.507 . S
C790 C140 1.507 . S
C785 C74 1.502 . S
C815 C8 1.502 . S
C820 C152 1.512 . S
C845 C26 1.502 . S
C850 C164 1.512 . S
C875 C48 1.502 . S
C880 C176 1.507 . S
