# Generated by pormake.
# Topology apo, (3,6)-cn, num edge types: 1
# Building blocks:
#     Node 0, Type 0, BuildingBlock: BETDAH_clean_linker_0, # of connection points: 3
#     Node 1, Type 0, BuildingBlock: BETDAH_clean_linker_0, # of connection points: 3
#     Node 2, Type 0, BuildingBlock: BETDAH_clean_linker_0, # of connection points: 3
#     Node 3, Type 0, BuildingBlock: BETDAH_clean_linker_0, # of connection points: 3
#     Node 4, Type 0, BuildingBlock: BETDAH_clean_linker_0, # of connection points: 3
#     Node 5, Type 0, BuildingBlock: BETDAH_clean_linker_0, # of connection points: 3
#     Node 6, Type 0, BuildingBlock: BETDAH_clean_linker_0, # of connection points: 3
#     Node 7, Type 0, BuildingBlock: BETDAH_clean_linker_0, # of connection points: 3
#     Node 8, Type 1, BuildingBlock: KUMJIN_clean_sbu_1, # of connection points: 6
#     Node 9, Type 1, BuildingBlock: KUMJIN_clean_sbu_1, # of connection points: 6
#     Node 10, Type 1, BuildingBlock: KUMJIN_clean_sbu_1, # of connection points: 6
#     Node 11, Type 1, BuildingBlock: KUMJIN_clean_sbu_1, # of connection points: 6
#     Edge 12, Type (0, 1), BuildingBlock: TEMPAE_clean_linker_10, # of connection points: 2
#     Edge 13, Type (0, 1), BuildingBlock: TEMPAE_clean_linker_10, # of connection points: 2
#     Edge 14, Type (0, 1), BuildingBlock: TEMPAE_clean_linker_10, # of connection points: 2
#     Edge 15, Type (0, 1), BuildingBlock: TEMPAE_clean_linker_10, # of connection points: 2
#     Edge 16, Type (0, 1), BuildingBlock: TEMPAE_clean_linker_10, # of connection points: 2
#     Edge 17, Type (0, 1), BuildingBlock: TEMPAE_clean_linker_10, # of connection points: 2
#     Edge 18, Type (0, 1), BuildingBlock: TEMPAE_clean_linker_10, # of connection points: 2
#     Edge 19, Type (0, 1), BuildingBlock: TEMPAE_clean_linker_10, # of connection points: 2
#     Edge 20, Type (0, 1), BuildingBlock: TEMPAE_clean_linker_10, # of connection points: 2
#     Edge 21, Type (0, 1), BuildingBlock: TEMPAE_clean_linker_10, # of connection points: 2
#     Edge 22, Type (0, 1), BuildingBlock: TEMPAE_clean_linker_10, # of connection points: 2
#     Edge 23, Type (0, 1), BuildingBlock: TEMPAE_clean_linker_10, # of connection points: 2
#     Edge 24, Type (0, 1), BuildingBlock: TEMPAE_clean_linker_10, # of connection points: 2
#     Edge 25, Type (0, 1), BuildingBlock: TEMPAE_clean_linker_10, # of connection points: 2
#     Edge 26, Type (0, 1), BuildingBlock: TEMPAE_clean_linker_10, # of connection points: 2
#     Edge 27, Type (0, 1), BuildingBlock: TEMPAE_clean_linker_10, # of connection points: 2
#     Edge 28, Type (0, 1), BuildingBlock: TEMPAE_clean_linker_10, # of connection points: 2
#     Edge 29, Type (0, 1), BuildingBlock: TEMPAE_clean_linker_10, # of connection points: 2
#     Edge 30, Type (0, 1), BuildingBlock: TEMPAE_clean_linker_10, # of connection points: 2
#     Edge 31, Type (0, 1), BuildingBlock: TEMPAE_clean_linker_10, # of connection points: 2
#     Edge 32, Type (0, 1), BuildingBlock: TEMPAE_clean_linker_10, # of connection points: 2
#     Edge 33, Type (0, 1), BuildingBlock: TEMPAE_clean_linker_10, # of connection points: 2
#     Edge 34, Type (0, 1), BuildingBlock: TEMPAE_clean_linker_10, # of connection points: 2
#     Edge 35, Type (0, 1), BuildingBlock: TEMPAE_clean_linker_10, # of connection points: 2
# Relax obj value: 0.037
# Max RMSD: 0.220
# Mean RMSD: 0.156
data_MOF--net-apo--node1-KUMJIN_clean_sbu_1--node2-BETDAH_clean_linker_0--edge1-TEMPAE_clean_linker_10
_symmetry_space_group_name_H-M    P1
_symmetry_Int_Tables_number       1
_symmetry_cell_setting            triclinic
loop_
_symmetry_equiv_pos_as_xyz
'x, y, z'
_cell_length_a     27.720178
_cell_length_b     42.507727
_cell_length_c     52.39655
_cell_angle_alpha  89.791711
_cell_angle_beta   90.052655
_cell_angle_gamma 90.191376
loop_
_atom_site_label
_atom_site_type_symbol
_atom_site_fract_x
_atom_site_fract_y
_atom_site_fract_z
_atom_type_partial_charge
H0 H 0.3515 0.4354 0.42077 0.0
H1 H 0.30918 0.36703 0.36418 0.0
H2 H 0.30474 0.34337 0.44387 0.0
C3 C 0.33874 0.4121 0.41578 0.0
C4 C 0.32921 0.39048 0.43542 0.0
C5 C 0.33299 0.40392 0.38989 0.0
C6 C 0.31331 0.37411 0.38389 0.0
C7 C 0.30236 0.3525 0.40355 0.0
C8 C 0.31118 0.3607 0.42902 0.0
N9 N 0.28716 0.32118 0.39862 0.0
C10 C 0.25765 0.31137 0.37866 0.0
H11 H 0.13252 0.08817 0.92425 0.0
H12 H 0.22282 0.13591 0.86921 0.0
H13 H 0.23606 0.15692 0.94906 0.0
C14 C 0.15973 0.10573 0.91978 0.0
C15 C 0.18218 0.12215 0.93971 0.0
C16 C 0.17429 0.11031 0.89427 0.0
C17 C 0.21104 0.13241 0.88872 0.0
C18 C 0.23291 0.14944 0.90868 0.0
C19 C 0.21852 0.14395 0.93385 0.0
N20 N 0.27113 0.17125 0.90492 0.0
C21 C 0.28481 0.18566 0.88221 0.0
H22 H 0.83741 0.08625 0.58927 0.0
H23 H 0.79276 0.15178 0.64733 0.0
H24 H 0.79313 0.1797 0.56848 0.0
C25 C 0.82388 0.10919 0.59465 0.0
C26 C 0.81537 0.1319 0.5757 0.0
C27 C 0.8157 0.11614 0.62056 0.0
C28 C 0.79863 0.14617 0.62742 0.0
C29 C 0.79011 0.16899 0.60843 0.0
C30 C 0.79884 0.1617 0.58289 0.0
N31 N 0.77485 0.20005 0.61397 0.0
C32 C 0.75188 0.20988 0.63608 0.0
H33 H 0.66582 0.42618 0.0883 0.0
H34 H 0.76063 0.38214 0.14318 0.0
H35 H 0.76548 0.35467 0.06466 0.0
C36 C 0.69334 0.40901 0.09289 0.0
C37 C 0.71325 0.39074 0.07326 0.0
C38 C 0.71026 0.40625 0.11824 0.0
C39 C 0.74711 0.38442 0.12386 0.0
C40 C 0.767 0.36603 0.10428 0.0
C41 C 0.75004 0.36942 0.07935 0.0
N42 N 0.80577 0.34489 0.10824 0.0
C43 C 0.81741 0.32979 0.13095 0.0
H44 H 0.6405 0.59025 0.59073 0.0
H45 H 0.74536 0.62452 0.64538 0.0
H46 H 0.75288 0.65277 0.56679 0.0
C47 C 0.67175 0.60434 0.59565 0.0
C48 C 0.69441 0.62141 0.5762 0.0
C49 C 0.68998 0.60441 0.62082 0.0
C50 C 0.72954 0.6244 0.62649 0.0
C51 C 0.75149 0.64242 0.60704 0.0
C52 C 0.73431 0.64026 0.58196 0.0
N53 N 0.79494 0.65937 0.6112 0.0
C54 C 0.80341 0.68018 0.63117 0.0
H55 H 0.84358 0.93949 0.08665 0.0
H56 H 0.78735 0.85019 0.06318 0.0
H57 H 0.79748 0.87134 0.14311 0.0
C58 C 0.82895 0.91662 0.09166 0.0
C59 C 0.82308 0.90813 0.11755 0.0
C60 C 0.81638 0.89593 0.07198 0.0
C61 C 0.79622 0.86671 0.0782 0.0
C62 C 0.78835 0.85797 0.10361 0.0
C63 C 0.80165 0.87869 0.12342 0.0
N64 N 0.77035 0.82713 0.10804 0.0
C65 C 0.7466 0.81632 0.12972 0.0
H66 H 0.14564 0.9181 0.42306 0.0
H67 H 0.229 0.86764 0.36729 0.0
H68 H 0.23979 0.8434 0.44681 0.0
C69 C 0.17049 0.89935 0.41837 0.0
C70 C 0.19071 0.88123 0.43803 0.0
C71 C 0.18422 0.89473 0.39283 0.0
C72 C 0.21802 0.87116 0.38691 0.0
C73 C 0.23775 0.85246 0.40654 0.0
C74 C 0.22415 0.85781 0.43184 0.0
N75 N 0.27234 0.82858 0.40208 0.0
C76 C 0.28558 0.81654 0.3785 0.0
H77 H 0.35475 0.59606 0.92215 0.0
H78 H 0.25062 0.66354 0.94769 0.0
H79 H 0.24513 0.63041 0.8705 0.0
C80 C 0.32409 0.61105 0.91818 0.0
C81 C 0.30235 0.61068 0.89379 0.0
C82 C 0.30632 0.63052 0.9376 0.0
C83 C 0.26567 0.64909 0.93268 0.0
C84 C 0.24388 0.6494 0.90864 0.0
C85 C 0.26236 0.63036 0.88907 0.0
N86 N 0.20177 0.66785 0.90553 0.0
C87 C 0.18807 0.68308 0.88319 0.0
Eu88 Eu 0.06709 0.11105 0.23318 0.0
C89 C 0.86326 0.07457 0.26475 0.0
N90 N 0.88079 0.1044 0.2625 0.0
C91 C 0.81298 0.11918 0.23682 0.0
C92 C 0.82044 0.06562 0.25214 0.0
C93 C 0.85595 0.1269 0.24934 0.0
C94 C 0.79535 0.08836 0.23803 0.0
C95 C 0.87245 0.02144 0.28111 0.0
C96 C 0.88947 0.05265 0.27885 0.0
C97 C 0.83041 0.01227 0.26807 0.0
C98 C 0.80448 0.03429 0.25364 0.0
Eu99 Eu 0.95501 0.1148 0.28297 0.0
N100 N 0.93081 0.06196 0.29079 0.0
C101 C 0.89763 1.0005 0.29685 0.0
C102 C 0.95227 0.04254 0.30821 0.0
C103 C 0.93704 0.01133 0.31093 0.0
H104 H 0.86981 0.15066 0.24827 0.0
H105 H 0.95524 0.99579 0.3242 0.0
H106 H 0.15037 0.07245 0.26715 0.0
H107 H 0.07348 0.23019 0.19236 0.0
H108 H 0.98054 0.05107 0.32053 0.0
H109 H 0.88576 0.97634 0.29908 0.0
H110 H 0.04283 0.17634 0.19719 0.0
H111 H 0.79366 0.13694 0.22609 0.0
H112 H 0.81725 0.98828 0.26931 0.0
H113 H 0.77199 0.02688 0.24381 0.0
H114 H 0.22974 0.08301 0.2871 0.0
H115 H 0.76237 0.08238 0.22803 0.0
H116 H 0.14814 0.24636 0.21466 0.0
N117 N 0.14306 0.11881 0.25244 0.0
C118 C 0.16338 0.14775 0.24941 0.0
C119 C 0.2114 0.10142 0.27662 0.0
C120 C 0.2085 0.1548 0.2605 0.0
C121 C 0.16649 0.09553 0.26542 0.0
C122 C 0.23242 0.13121 0.27425 0.0
N123 N 0.09482 0.16309 0.22516 0.0
C124 C 0.07326 0.1835 0.20854 0.0
C125 C 0.15845 0.2009 0.23259 0.0
C126 C 0.13821 0.17063 0.23582 0.0
C127 C 0.13382 0.22286 0.21756 0.0
C128 C 0.09151 0.21391 0.20508 0.0
H129 H 0.26707 0.13576 0.2831 0.0
H130 H 0.26248 0.19105 0.26633 0.0
H131 H 0.21902 0.23124 0.24161 0.0
O132 O 0.07368 0.10855 0.19099 0.0
O133 O 0.07945 0.13077 0.27298 0.0
O134 O 0.00914 0.15521 0.28446 0.0
O135 O 0.12157 0.08163 0.21589 0.0
O136 O 0.9992 0.13797 0.22092 0.0
O137 O 0.96788 0.15772 0.25851 0.0
O138 O 0.94347 0.11602 0.32485 0.0
O139 O 0.94456 0.09595 0.24258 0.0
O140 O 0.01447 0.07019 0.2334 0.0
O141 O 0.89957 0.14458 0.2991 0.0
O142 O 0.02372 0.08966 0.29584 0.0
O143 O 0.05497 0.06869 0.25864 0.0
C144 C 0.0565 0.15424 0.28355 0.0
C145 C 0.13485 0.07474 0.17071 0.0
C146 C 0.14802 0.06895 0.1248 0.0
C147 C 0.18301 0.04589 0.12998 0.0
C148 C 0.16997 0.05157 0.17523 0.0
C149 C 0.19382 0.03733 0.15499 0.0
C150 C 0.1241 0.08352 0.14537 0.0
C151 C 0.97323 0.15879 0.23361 0.0
C152 C 0.10929 0.08868 0.19267 0.0
C153 C 0.22802 0.18513 0.2578 0.0
C154 C 0.2031 0.20809 0.24387 0.0
C155 C 0.96733 0.07182 0.23295 0.0
C156 C 0.88131 0.14993 0.344 0.0
C157 C 0.86291 0.15383 0.38947 0.0
C158 C 0.83129 0.17877 0.38411 0.0
C159 C 0.84919 0.17481 0.33918 0.0
C160 C 0.8877 0.1392 0.36928 0.0
C161 C 0.82437 0.18904 0.35912 0.0
C162 C 0.04928 0.06834 0.28357 0.0
C163 C 0.90875 0.13643 0.3225 0.0
H164 H 0.2027 0.03476 0.11463 0.0
H165 H 0.17899 0.04427 0.19448 0.0
H166 H 0.22089 0.01959 0.15872 0.0
H167 H 0.09696 0.10125 0.14163 0.0
H168 H 0.81156 0.19017 0.39932 0.0
H169 H 0.84353 0.18359 0.31998 0.0
H170 H 0.91235 0.12008 0.37332 0.0
H171 H 0.79984 0.20822 0.3552 0.0
Eu172 Eu 0.4434 0.39731 0.73134 0.0
C173 C 0.63034 0.44862 0.7794 0.0
N174 N 0.61839 0.41839 0.77397 0.0
C175 C 0.69561 0.41025 0.75463 0.0
C176 C 0.67492 0.46138 0.7715 0.0
C177 C 0.65071 0.39878 0.7626 0.0
C178 C 0.70757 0.4418 0.75884 0.0
C179 C 0.61015 0.49771 0.80006 0.0
C180 C 0.59832 0.46646 0.7935 0.0
C181 C 0.6533 0.51114 0.79102 0.0
C182 C 0.68568 0.49299 0.77683 0.0
Eu183 Eu 0.54241 0.40056 0.7882 0.0
N184 N 0.55726 0.4526 0.80228 0.0
C185 C 0.57926 0.51403 0.8164 0.0
C186 C 0.5295 0.46745 0.81998 0.0
C187 C 0.5394 0.49854 0.82687 0.0
H188 H 0.6415 0.37438 0.75947 0.0
H189 H 0.51693 0.51028 0.84068 0.0
H190 H 0.35919 0.4508 0.75015 0.0
H191 H 0.41277 0.27491 0.70572 0.0
H192 H 0.50038 0.45513 0.82932 0.0
H193 H 0.5871 0.53803 0.822 0.0
H194 H 0.4564 0.326 0.70663 0.0
H195 H 0.72089 0.39481 0.74521 0.0
H196 H 0.66267 0.53524 0.7956 0.0
H197 H 0.7194 0.50339 0.77054 0.0
H198 H 0.2802 0.45073 0.77145 0.0
H199 H 0.74227 0.45068 0.75253 0.0
H200 H 0.33466 0.26928 0.7282 0.0
N201 N 0.3645 0.40081 0.74891 0.0
C202 C 0.33991 0.37321 0.75124 0.0
C203 C 0.29692 0.42868 0.76627 0.0
C204 C 0.29358 0.37215 0.76235 0.0
C205 C 0.34235 0.42856 0.75468 0.0
C206 C 0.27282 0.40028 0.7706 0.0
N207 N 0.40367 0.34825 0.72964 0.0
C208 C 0.42215 0.32353 0.71631 0.0
C209 C 0.33369 0.31768 0.74098 0.0
C210 C 0.35962 0.34626 0.74079 0.0
C211 C 0.35348 0.29166 0.7285 0.0
C212 C 0.39759 0.29473 0.71578 0.0
H213 H 0.23734 0.40048 0.77927 0.0
H214 H 0.23329 0.34203 0.7726 0.0
H215 H 0.26826 0.29441 0.75364 0.0
O216 O 0.46268 0.39463 0.691 0.0
O217 O 0.45454 0.35606 0.75843 0.0
O218 O 0.46829 0.38022 0.79647 0.0
O219 O 0.39297 0.41248 0.70162 0.0
O220 O 0.51632 0.37507 0.72257 0.0
O221 O 0.54859 0.35896 0.76144 0.0
O222 O 0.57077 0.40037 0.82761 0.0
O223 O 0.55894 0.42114 0.74874 0.0
O224 O 0.48702 0.44197 0.73586 0.0
O225 O 0.5748 0.35814 0.80395 0.0
O226 O 0.46772 0.42031 0.79638 0.0
O227 O 0.44261 0.44031 0.75758 0.0
C228 C 0.4496 0.35703 0.78327 0.0
C229 C 0.4263 0.43061 0.66275 0.0
C230 C 0.4168 0.44506 0.61783 0.0
C231 C 0.43465 0.47529 0.62352 0.0
C232 C 0.4439 0.46082 0.66804 0.0
C233 C 0.4481 0.48303 0.64846 0.0
C234 C 0.41284 0.42281 0.63771 0.0
C235 C 0.54504 0.35699 0.7364 0.0
C236 C 0.42241 0.40669 0.68293 0.0
C237 C 0.26868 0.34335 0.76389 0.0
C238 C 0.28858 0.31621 0.75309 0.0
C239 C 0.53425 0.44321 0.737 0.0
C240 C 0.60885 0.35373 0.84646 0.0
C241 C 0.63283 0.34799 0.89124 0.0
C242 C 0.65787 0.32037 0.88471 0.0
C243 C 0.6335 0.32586 0.84067 0.0
C244 C 0.60854 0.36474 0.8718 0.0
C245 C 0.65791 0.30939 0.85969 0.0
C246 C 0.44345 0.44103 0.78277 0.0
C247 C 0.58444 0.3712 0.8258 0.0
H248 H 0.43879 0.49283 0.60863 0.0
H249 H 0.45432 0.46711 0.68726 0.0
H250 H 0.46194 0.5063 0.65259 0.0
H251 H 0.39883 0.39947 0.63381 0.0
H252 H 0.67816 0.30736 0.89889 0.0
H253 H 0.63447 0.31695 0.82133 0.0
H254 H 0.58896 0.38599 0.87639 0.0
H255 H 0.67731 0.28813 0.85498 0.0
Eu256 Eu 0.04728 0.90177 0.7317 0.0
C257 C 0.85383 0.84676 0.76946 0.0
N258 N 0.86465 0.87757 0.76564 0.0
C259 C 0.79036 0.88503 0.74305 0.0
C260 C 0.81144 0.83346 0.75919 0.0
C261 C 0.83308 0.89707 0.75344 0.0
C262 C 0.77975 0.853 0.74568 0.0
C263 C 0.87401 0.7969 0.78917 0.0
C264 C 0.88473 0.82881 0.78425 0.0
C265 C 0.83321 0.78304 0.77784 0.0
C266 C 0.80185 0.80133 0.76299 0.0
Eu267 Eu 0.93776 0.8962 0.7831 0.0
N268 N 0.92335 0.84311 0.79528 0.0
C269 C 0.90344 0.78028 0.8062 0.0
C270 C 0.94883 0.82792 0.81388 0.0
C271 C 0.94035 0.79608 0.81906 0.0
H272 H 0.84143 0.92179 0.75138 0.0
H273 H 0.9617 0.78394 0.83328 0.0
H274 H 0.12613 0.8471 0.75428 0.0
H275 H 0.08604 0.02495 0.71113 0.0
H276 H 0.97537 0.8404 0.82504 0.0
H277 H 0.89651 0.75572 0.81048 0.0
H278 H 0.042 0.97424 0.70779 0.0
H279 H 0.76577 0.9004 0.73295 0.0
H280 H 0.82473 0.75845 0.78114 0.0
H281 H 0.76976 0.79059 0.75499 0.0
H282 H 0.19906 0.84541 0.78104 0.0
H283 H 0.74679 0.84368 0.73748 0.0
H284 H 0.15758 0.02907 0.73928 0.0
N285 N 0.12091 0.89707 0.75476 0.0
C286 C 0.14489 0.92437 0.75959 0.0
C287 C 0.18375 0.86784 0.77555 0.0
C288 C 0.18822 0.92452 0.77374 0.0
C289 C 0.14158 0.86891 0.76091 0.0
C290 C 0.20665 0.89583 0.78248 0.0
N291 N 0.08751 0.9507 0.73417 0.0
C292 C 0.07316 0.97608 0.72007 0.0
C293 C 0.1544 0.98022 0.75111 0.0
C294 C 0.12824 0.95192 0.74854 0.0
C295 C 0.13844 1.00688 0.73781 0.0
C296 C 0.09807 1.00466 0.7219 0.0
H297 H 0.23977 0.89493 0.79345 0.0
H298 H 0.24604 0.95362 0.78867 0.0
H299 H 0.21674 1.00231 0.76853 0.0
O300 O 0.03986 0.90666 0.69021 0.0
O301 O 0.03021 0.94229 0.7586 0.0
O302 O 0.00998 0.91646 0.79513 0.0
O303 O 0.10289 0.88443 0.70597 0.0
O304 O 0.97688 0.9243 0.71924 0.0
O305 O 0.93438 0.93836 0.75591 0.0
O306 O 0.90343 0.89403 0.82074 0.0
O307 O 0.92745 0.87877 0.74232 0.0
O308 O 1.00047 0.85774 0.73152 0.0
O309 O 0.90147 0.93712 0.79899 0.0
O310 O 0.01133 0.87603 0.7938 0.0
O311 O 0.04067 0.85737 0.75573 0.0
C312 C 0.02933 0.94078 0.78359 0.0
C313 C 0.11322 0.91343 0.66796 0.0
C314 C 0.13924 0.92566 0.62451 0.0
C315 C 0.1728 0.94733 0.63443 0.0
C316 C 0.14754 0.93477 0.67742 0.0
C317 C 0.17677 0.95184 0.6607 0.0
C318 C 0.10913 0.90898 0.64151 0.0
C319 C 0.94542 0.94204 0.73146 0.0
C320 C 0.08232 0.89518 0.68545 0.0
C321 C 0.21294 0.95302 0.77766 0.0
C322 C 0.19625 0.98076 0.76621 0.0
C323 C 0.95307 0.85669 0.73142 0.0
C324 C 0.90839 0.94141 0.84395 0.0
C325 C 0.90499 0.94931 0.89011 0.0
C326 C 0.93765 0.97446 0.88764 0.0
C327 C 0.94103 0.96667 0.84199 0.0
C328 C 0.8907 0.93266 0.86815 0.0
C329 C 0.95569 0.98287 0.86374 0.0
C330 C 0.03613 0.85529 0.78065 0.0
C331 C 0.89323 0.92384 0.82101 0.0
H332 H 0.19702 0.96017 0.62193 0.0
H333 H 0.1523 0.93799 0.69769 0.0
H334 H 0.20317 0.96823 0.66816 0.0
H335 H 0.08273 0.8924 0.63423 0.0
H336 H 0.94975 0.98734 0.90428 0.0
H337 H 0.95539 0.9739 0.82368 0.0
H338 H 0.86554 0.91318 0.86985 0.0
H339 H 0.98127 1.00192 0.86206 0.0
Eu340 Eu 0.46355 0.6114 0.22529 0.0
C341 C 0.6692 0.63902 0.26186 0.0
N342 N 0.6437 0.61182 0.26453 0.0
C343 C 0.71118 0.58246 0.24875 0.0
C344 C 0.71618 0.63905 0.2515 0.0
C345 C 0.66523 0.58359 0.25969 0.0
C346 C 0.73643 0.61037 0.24418 0.0
C347 C 0.6768 0.69476 0.27107 0.0
C348 C 0.64982 0.6666 0.27137 0.0
C349 C 0.72276 0.69513 0.25986 0.0
C350 C 0.74225 0.6674 0.24989 0.0
Eu351 Eu 0.56438 0.61693 0.28122 0.0
N352 N 0.60529 0.66556 0.28205 0.0
C353 C 0.65732 0.72146 0.28274 0.0
C354 C 0.5871 0.69094 0.29467 0.0
C355 C 0.61254 0.71941 0.2949 0.0
H356 H 0.64746 0.56172 0.26447 0.0
H357 H 0.5976 0.73973 0.30439 0.0
H358 H 0.36638 0.63999 0.25485 0.0
H359 H 0.48981 0.49487 0.18335 0.0
H360 H 0.55248 0.68922 0.30407 0.0
H361 H 0.67694 0.74354 0.2829 0.0
H362 H 0.5047 0.55164 0.18858 0.0
H363 H 0.72744 0.56003 0.24429 0.0
H364 H 0.74404 0.71654 0.25941 0.0
H365 H 0.77822 0.6679 0.24183 0.0
H366 H 0.2909 0.62009 0.27448 0.0
H367 H 0.77236 0.6094 0.23609 0.0
H368 H 0.42213 0.46921 0.20612 0.0
N369 N 0.3891 0.59482 0.24266 0.0
C370 C 0.37783 0.56385 0.24024 0.0
C371 C 0.31517 0.604 0.26503 0.0
C372 C 0.33549 0.55141 0.25127 0.0
C373 C 0.35783 0.61521 0.25396 0.0
C374 C 0.30424 0.5719 0.26397 0.0
N375 N 0.44922 0.55758 0.21611 0.0
C376 C 0.4765 0.5405 0.19955 0.0
C377 C 0.39858 0.51233 0.22404 0.0
C378 C 0.40924 0.54458 0.22695 0.0
C379 C 0.42906 0.49407 0.20889 0.0
C380 C 0.46752 0.50841 0.19612 0.0
H381 H 0.2714 0.56324 0.27277 0.0
H382 H 0.29379 0.50896 0.25795 0.0
H383 H 0.34894 0.47474 0.23403 0.0
O384 O 0.43399 0.6058 0.18682 0.0
O385 O 0.45085 0.59455 0.26614 0.0
O386 O 0.52152 0.57178 0.27798 0.0
O387 O 0.4278 0.65044 0.20587 0.0
O388 O 0.53837 0.5923 0.21665 0.0
O389 O 0.56512 0.57349 0.25553 0.0
O390 O 0.54246 0.6193 0.32121 0.0
O391 O 0.55366 0.65735 0.25328 0.0
O392 O 0.5368 0.63253 0.21576 0.0
O393 O 0.61455 0.6045 0.31183 0.0
O394 O 0.49277 0.64159 0.28889 0.0
O395 O 0.45803 0.65518 0.24982 0.0
C396 C 0.47439 0.57108 0.2765 0.0
C397 C 0.44218 0.65113 0.1613 0.0
C398 C 0.44378 0.65655 0.11478 0.0
C399 C 0.48132 0.67874 0.11718 0.0
C400 C 0.47975 0.67328 0.16313 0.0
C401 C 0.49912 0.68694 0.14118 0.0
C402 C 0.42433 0.64286 0.13709 0.0
C403 C 0.56423 0.57255 0.23038 0.0
C404 C 0.42321 0.63539 0.18438 0.0
C405 C 0.32582 0.51906 0.24932 0.0
C406 C 0.35732 0.49955 0.23576 0.0
C407 C 0.557 0.65571 0.22838 0.0
C408 C 0.58145 0.58572 0.35049 0.0
C409 C 0.59183 0.57276 0.39562 0.0
C410 C 0.57778 0.54162 0.39033 0.0
C411 C 0.56757 0.5546 0.34554 0.0
C412 C 0.59358 0.59469 0.37546 0.0
C413 C 0.56602 0.53265 0.36543 0.0
C414 C 0.46361 0.65899 0.27467 0.0
C415 C 0.58354 0.60929 0.33 0.0
H416 H 0.49658 0.69013 0.1005 0.0
H417 H 0.49432 0.67994 0.18151 0.0
H418 H 0.52806 0.70396 0.14277 0.0
H419 H 0.39595 0.62534 0.13566 0.0
H420 H 0.57675 0.52406 0.40535 0.0
H421 H 0.5582 0.54732 0.32637 0.0
H422 H 0.60394 0.61887 0.37919 0.0
H423 H 0.5561 0.50852 0.36152 0.0
C424 C 0.11521 0.9218 0.37148 0.0
C425 C 0.16495 0.91621 0.37297 0.0
C426 C 0.09672 0.9453 0.35539 0.0
C427 C 0.12885 0.96397 0.34074 0.0
C428 C 0.179 0.95766 0.34148 0.0
C429 C 0.19645 0.93366 0.35749 0.0
C430 C 0.04294 0.95089 0.35475 0.0
C431 C 0.2144 0.97723 0.32629 0.0
C432 C 0.07729 0.01274 0.28631 0.0
C433 C 0.07093 0.04204 0.29804 0.0
C434 C 0.09631 0.98712 0.29992 0.0
C435 C 0.11007 0.99109 0.32572 0.0
C436 C 0.10457 0.02084 0.33749 0.0
C437 C 0.08468 0.04591 0.32355 0.0
C438 C 0.10079 0.95569 0.28682 0.0
C439 C 0.11935 0.02611 0.36489 0.0
H440 H 0.09085 0.90819 0.38339 0.0
H441 H 0.23495 0.92957 0.35887 0.0
H442 H 0.0348 0.9744 0.36278 0.0
H443 H 0.02967 0.95077 0.33476 0.0
H444 H 0.02265 0.93288 0.36583 0.0
H445 H 0.25182 0.96812 0.32777 0.0
H446 H 0.20379 0.97783 0.30588 0.0
H447 H 0.21397 1.00183 0.33329 0.0
H448 H 0.06629 0.0096 0.26662 0.0
H449 H 0.08009 0.06862 0.33257 0.0
H450 H 0.07843 0.9379 0.29694 0.0
H451 H 0.13869 0.94746 0.28761 0.0
H452 H 0.08917 0.95666 0.26654 0.0
H453 H 0.09749 0.01087 0.37768 0.0
H454 H 0.11467 0.05097 0.37086 0.0
H455 H 0.1577 0.01948 0.3676 0.0
C456 C 0.3706 0.58461 0.87068 0.0
C457 C 0.3208 0.58889 0.87381 0.0
C458 C 0.38875 0.56189 0.85388 0.0
C459 C 0.35639 0.54286 0.83973 0.0
C460 C 0.30609 0.54802 0.84189 0.0
C461 C 0.28888 0.57094 0.85892 0.0
C462 C 0.44259 0.55724 0.8524 0.0
C463 C 0.27037 0.52847 0.82699 0.0
C464 C 0.40965 0.49569 0.78476 0.0
C465 C 0.41747 0.46639 0.79641 0.0
C466 C 0.38865 0.52063 0.79838 0.0
C467 C 0.37518 0.51613 0.82423 0.0
C468 C 0.38168 0.48625 0.83577 0.0
C469 C 0.40246 0.46176 0.82169 0.0
C470 C 0.38238 0.55209 0.78539 0.0
C471 C 0.36797 0.48037 0.86327 0.0
H472 H 0.39557 0.59872 0.88176 0.0
H473 H 0.25033 0.5739 0.8613 0.0
H474 H 0.45221 0.53566 0.8632 0.0
H475 H 0.45443 0.55406 0.83236 0.0
H476 H 0.46283 0.57732 0.86075 0.0
H477 H 0.23288 0.53729 0.82895 0.0
H478 H 0.28012 0.52831 0.80645 0.0
H479 H 0.27147 0.50376 0.83384 0.0
H480 H 0.42126 0.49943 0.76523 0.0
H481 H 0.4079 0.43904 0.8307 0.0
H482 H 0.40597 0.56981 0.79468 0.0
H483 H 0.34463 0.56029 0.78744 0.0
H484 H 0.39151 0.55118 0.76476 0.0
H485 H 0.39003 0.4956 0.8759 0.0
H486 H 0.37342 0.45547 0.86907 0.0
H487 H 0.3296 0.48658 0.86641 0.0
C488 C 0.65029 0.55281 0.63218 0.0
C489 C 0.66959 0.58185 0.64017 0.0
C490 C 0.62873 0.53182 0.64943 0.0
C491 C 0.62877 0.53887 0.67577 0.0
C492 C 0.65002 0.5673 0.68433 0.0
C493 C 0.66933 0.58873 0.66641 0.0
C494 C 0.60553 0.5021 0.63935 0.0
C495 C 0.65223 0.5751 0.71238 0.0
C496 C 0.53434 0.49573 0.71525 0.0
C497 C 0.5596 0.46882 0.72306 0.0
C498 C 0.5567 0.51917 0.70042 0.0
C499 C 0.60611 0.51625 0.69403 0.0
C500 C 0.63238 0.48983 0.70286 0.0
C501 C 0.60854 0.46615 0.71678 0.0
C502 C 0.52691 0.54637 0.6907 0.0
C503 C 0.68545 0.48627 0.69714 0.0
H504 H 0.65201 0.54611 0.6123 0.0
H505 H 0.68379 0.61094 0.67304 0.0
H506 H 0.62455 0.48117 0.64701 0.0
H507 H 0.56746 0.50057 0.64581 0.0
H508 H 0.60612 0.50097 0.61817 0.0
H509 H 0.67381 0.59666 0.71614 0.0
H510 H 0.61526 0.5787 0.71986 0.0
H511 H 0.66822 0.55521 0.72323 0.0
H512 H 0.49661 0.4982 0.72026 0.0
H513 H 0.62801 0.44517 0.72218 0.0
H514 H 0.52765 0.54688 0.66952 0.0
H515 H 0.54245 0.56892 0.69743 0.0
H516 H 0.48873 0.5449 0.69704 0.0
H517 H 0.6916 0.48627 0.67623 0.0
H518 H 0.70062 0.46426 0.70526 0.0
H519 H 0.70561 0.50659 0.70511 0.0
C520 C 0.81724 0.93391 0.16108 0.0
C521 C 0.8417 0.92976 0.13785 0.0
C522 C 0.83398 0.95565 0.1794 0.0
C523 C 0.87554 0.97409 0.17414 0.0
C524 C 0.90072 0.96959 0.15097 0.0
C525 C 0.88411 0.9472 0.13346 0.0
C526 C 0.80697 0.95917 0.20421 0.0
C527 C 0.94503 0.98881 0.14442 0.0
C528 C 0.90061 0.05359 0.20448 0.0
C529 C 0.94006 0.04651 0.22014 0.0
C530 C 0.87721 0.02988 0.19045 0.0
C531 C 0.89331 0.99833 0.19248 0.0
C532 C 0.93113 0.99091 0.20967 0.0
C533 C 0.95452 0.01517 0.223 0.0
C534 C 0.83735 0.03897 0.17227 0.0
C535 C 0.94838 0.95753 0.21314 0.0
H536 H 0.78451 0.92067 0.16477 0.0
H537 H 0.90451 0.9435 0.11611 0.0
H538 H 0.83221 0.9573 0.2206 0.0
H539 H 0.79026 0.98281 0.20511 0.0
H540 H 0.77815 0.94116 0.20645 0.0
H541 H 0.95946 0.98322 0.1252 0.0
H542 H 0.93635 0.01427 0.14502 0.0
H543 H 0.97382 0.98448 0.15871 0.0
H544 H 0.88937 0.07787 0.20236 0.0
H545 H 0.98449 0.00966 0.23555 0.0
H546 H 0.80574 0.0232 0.17471 0.0
H547 H 0.85022 0.0363 0.15234 0.0
H548 H 0.82551 0.06367 0.17503 0.0
H549 H 0.91729 0.94128 0.21552 0.0
H550 H 0.97263 0.95506 0.22992 0.0
H551 H 0.96839 0.95005 0.19588 0.0
C552 C 0.86102 0.09894 0.65945 0.0
C553 C 0.82732 0.09222 0.64027 0.0
C554 C 0.87731 0.07525 0.67611 0.0
C555 C 0.85866 0.04429 0.67381 0.0
C556 C 0.82257 0.03789 0.65537 0.0
C557 C 0.80778 0.06185 0.63861 0.0
C558 C 0.91645 0.08293 0.69517 0.0
C559 C 0.80102 1.00541 0.65263 0.0
C560 C 0.9389 0.97565 0.69229 0.0
C561 C 0.92212 0.96787 0.7168 0.0
C562 C 0.91899 1.00068 0.67838 0.0
C563 C 0.88027 0.018 0.68884 0.0
C564 C 0.86241 0.00998 0.71335 0.0
C565 C 0.88389 0.98524 0.72717 0.0
C566 C 0.93973 0.00872 0.65249 0.0
C567 C 0.82051 0.02745 0.7249 0.0
H568 H 0.87642 0.12238 0.66057 0.0
H569 H 0.78149 0.05673 0.62385 0.0
H570 H 0.90598 0.07477 0.71452 0.0
H571 H 0.95001 0.07035 0.68992 0.0
H572 H 0.9244 0.10854 0.69593 0.0
H573 H 0.76947 1.00521 0.63954 0.0
H574 H 0.82861 0.9891 0.64502 0.0
H575 H 0.78956 0.99617 0.67151 0.0
H576 H 0.96824 0.96244 0.68395 0.0
H577 H 0.87048 0.97943 0.74603 0.0
H578 H 0.9515 0.0337 0.65208 0.0
H579 H 0.91168 1.00583 0.63757 0.0
H580 H 0.97105 0.99371 0.6475 0.0
H581 H 0.82983 0.0527 0.72707 0.0
H582 H 0.81012 0.01787 0.74388 0.0
H583 H 0.7888 0.02612 0.712 0.0
C584 C 0.72153 0.44378 0.15476 0.0
C585 C 0.69053 0.42728 0.13834 0.0
C586 C 0.7035 0.46623 0.17195 0.0
C587 C 0.65326 0.47217 0.17283 0.0
C588 C 0.6217 0.45457 0.15706 0.0
C589 C 0.64069 0.43243 0.14001 0.0
C590 C 0.73838 0.48454 0.18835 0.0
C591 C 0.56789 0.45972 0.15768 0.0
C592 C 0.5973 0.51779 0.22792 0.0
C593 C 0.59095 0.54755 0.21682 0.0
C594 C 0.61841 0.4931 0.21407 0.0
C595 C 0.63393 0.49844 0.18864 0.0
C596 C 0.62906 0.52882 0.17774 0.0
C597 C 0.60752 0.55293 0.19192 0.0
C598 C 0.62266 0.46107 0.22635 0.0
C599 C 0.64534 0.53567 0.15078 0.0
H600 H 0.76012 0.44009 0.15344 0.0
H601 H 0.61652 0.41938 0.12765 0.0
H602 H 0.73855 0.50959 0.18231 0.0
H603 H 0.72685 0.48382 0.20861 0.0
H604 H 0.77576 0.47534 0.18701 0.0
H605 H 0.54819 0.44383 0.14447 0.0
H606 H 0.5542 0.45571 0.17731 0.0
H607 H 0.55958 0.48442 0.1524 0.0
H608 H 0.58419 0.51351 0.24711 0.0
H609 H 0.60295 0.57599 0.18334 0.0
H610 H 0.66015 0.45226 0.22472 0.0
H611 H 0.59895 0.44413 0.21623 0.0
H612 H 0.61231 0.46135 0.24682 0.0
H613 H 0.68367 0.52889 0.14835 0.0
H614 H 0.64142 0.56091 0.14563 0.0
H615 H 0.62375 0.52145 0.13718 0.0
C616 C 0.32693 0.42998 0.3463 0.0
C617 C 0.35099 0.42606 0.36972 0.0
C618 C 0.34353 0.45194 0.32802 0.0
C619 C 0.38441 0.47087 0.33353 0.0
C620 C 0.40917 0.46659 0.35689 0.0
C621 C 0.39284 0.44394 0.37433 0.0
C622 C 0.31699 0.45519 0.30299 0.0
C623 C 0.45289 0.4862 0.36365 0.0
C624 C 0.4639 0.51407 0.28601 0.0
C625 C 0.44796 0.54505 0.28886 0.0
C626 C 0.44063 0.48914 0.29871 0.0
C627 C 0.40173 0.4956 0.3154 0.0
C628 C 0.38438 0.52683 0.31747 0.0
C629 C 0.40744 0.55116 0.30392 0.0
C630 C 0.45905 0.4561 0.29508 0.0
C631 C 0.34352 0.53492 0.33526 0.0
H632 H 0.29469 0.41633 0.34242 0.0
H633 H 0.41308 0.44037 0.3918 0.0
H634 H 0.29761 0.47796 0.30249 0.0
H635 H 0.34278 0.45521 0.2868 0.0
H636 H 0.29031 0.43596 0.30013 0.0
H637 H 0.46703 0.48079 0.38301 0.0
H638 H 0.48196 0.48195 0.34959 0.0
H639 H 0.44384 0.51159 0.36275 0.0
H640 H 0.49471 0.50936 0.27388 0.0
H641 H 0.39506 0.57519 0.30597 0.0
H642 H 0.42854 0.43943 0.29252 0.0
H643 H 0.47929 0.44861 0.31232 0.0
H644 H 0.48344 0.45433 0.27833 0.0
H645 H 0.31246 0.51889 0.33218 0.0
H646 H 0.33113 0.55956 0.3327 0.0
H647 H 0.35562 0.53179 0.35531 0.0
C648 C 0.18171 0.07161 0.85846 0.0
C649 C 0.15255 0.09021 0.87413 0.0
C650 C 0.16127 0.04869 0.84236 0.0
C651 C 0.11048 0.04454 0.84171 0.0
C652 C 0.08088 0.06481 0.85632 0.0
C653 C 0.10231 0.08705 0.87254 0.0
C654 C 0.19406 0.02834 0.82651 0.0
C655 C 0.02656 0.0627 0.85607 0.0
C656 C 0.0539 0.9973 0.78764 0.0
C657 C 0.04906 0.96736 0.79872 0.0
C658 C 0.07405 0.02255 0.80127 0.0
C659 C 0.08884 0.01801 0.82687 0.0
C660 C 0.08262 0.98806 0.83844 0.0
C661 C 0.06314 0.96305 0.82419 0.0
C662 C 0.07898 0.05419 0.78838 0.0
C663 C 0.09627 0.98252 0.86597 0.0
H664 H 0.22059 0.07394 0.8597 0.0
H665 H 0.0796 0.10159 0.88449 0.0
H666 H 0.18893 1.00321 0.83168 0.0
H667 H 0.18454 0.03093 0.80605 0.0
H668 H 0.23273 0.03456 0.82901 0.0
H669 H 0.01072 0.08667 0.85566 0.0
H670 H 0.01208 0.0493 0.83964 0.0
H671 H 0.01438 0.05134 0.87406 0.0
H672 H 0.04152 1.00112 0.76829 0.0
H673 H 0.05905 0.94007 0.83299 0.0
H674 H 0.11731 0.06179 0.78852 0.0
H675 H 0.05809 0.07203 0.7991 0.0
H676 H 0.06602 0.05384 0.76832 0.0
H677 H 0.1353 0.98733 0.86871 0.0
H678 H 0.08845 0.95805 0.8723 0.0
H679 H 0.07611 0.999 0.87839 0.0
C680 C 0.20723 0.11059 0.98453 0.0
C681 C 0.17006 0.11539 0.9668 0.0
C682 C 0.19712 0.10421 0.01022 0.0
C683 C 0.14856 0.10268 0.01851 0.0
C684 C 0.11075 0.10767 1.00076 0.0
C685 C 0.12197 0.11379 0.97502 0.0
C686 C 0.23855 0.09863 0.02844 0.0
C687 C 0.0586 0.10648 0.00895 0.0
C688 C 0.13501 0.05472 0.07905 0.0
C689 C 0.13844 0.07804 0.09786 0.0
C690 C 0.13496 0.06256 0.05304 0.0
C691 C 0.1381 0.09455 0.04562 0.0
C692 C 0.13769 0.11832 0.06452 0.0
C693 C 0.13793 0.10977 0.09048 0.0
C694 C 0.13513 0.03646 0.03356 0.0
C695 C 0.14044 0.1527 0.05738 0.0
H696 H 0.24443 0.11133 0.97819 0.0
H697 H 0.09317 0.11771 0.96137 0.0
H698 H 0.23678 0.11553 0.04449 0.0
H699 H 0.23587 0.07462 0.03669 0.0
H700 H 0.27424 0.10115 0.019 0.0
H701 H 0.03352 0.1119 0.99299 0.0
H702 H 0.04978 0.08276 0.01655 0.0
H703 H 0.05233 0.12352 0.02458 0.0
H704 H 0.1344 0.03016 0.08469 0.0
H705 H 0.14061 0.12789 0.10492 0.0
H706 H 0.17127 0.03515 0.02453 0.0
H707 H 0.10859 0.04127 0.0182 0.0
H708 H 0.12672 0.0132 0.04224 0.0
H709 H 0.1773 0.15831 0.05045 0.0
H710 H 0.13233 0.1682 0.07385 0.0
H711 H 0.11492 0.15814 0.04167 0.0
C712 C 0.30903 0.39045 0.48227 0.0
C713 C 0.34076 0.39851 0.46242 0.0
C714 C 0.32004 0.39772 0.50779 0.0
C715 C 0.36391 0.41331 0.51364 0.0
C716 C 0.39611 0.42143 0.4937 0.0
C717 C 0.38417 0.41394 0.46839 0.0
C718 C 0.28468 0.38877 0.5285 0.0
C719 C 0.44337 0.4379 0.49911 0.0
C720 C 0.37638 0.45801 0.57615 0.0
C721 C 0.40257 0.43672 0.59126 0.0
C722 C 0.36308 0.45055 0.55099 0.0
C723 C 0.37635 0.42111 0.54061 0.0
C724 C 0.40254 0.39945 0.55579 0.0
C725 C 0.41529 0.40749 0.5809 0.0
C726 C 0.33501 0.47426 0.53548 0.0
C727 C 0.41764 0.3679 0.54539 0.0
H728 H 0.27529 0.37874 0.47779 0.0
H729 H 0.4093 0.41976 0.45324 0.0
H730 H 0.30228 0.3729 0.54252 0.0
H731 H 0.27317 0.41009 0.53898 0.0
H732 H 0.25212 0.37679 0.5208 0.0
H733 H 0.46432 0.44272 0.48145 0.0
H734 H 0.43662 0.46054 0.50894 0.0
H735 H 0.46571 0.42328 0.51209 0.0
H736 H 0.36584 0.48045 0.58411 0.0
H737 H 0.43605 0.39107 0.59231 0.0
H738 H 0.30068 0.46363 0.52876 0.0
H739 H 0.35595 0.48111 0.51829 0.0
H740 H 0.32661 0.49582 0.54651 0.0
H741 H 0.38553 0.35464 0.53869 0.0
H742 H 0.43688 0.35341 0.55982 0.0
H743 H 0.44167 0.37133 0.52868 0.0
C744 C 0.64673 0.3953 0.04055 0.0
C745 C 0.6961 0.39324 0.04633 0.0
C746 C 0.63027 0.393 0.01519 0.0
C747 C 0.66389 0.38789 0.99529 0.0
C748 C 0.71385 0.38779 1.00087 0.0
C749 C 0.72929 0.39093 0.0262 0.0
C750 C 0.5768 0.39435 0.00991 0.0
C751 C 0.75105 0.38226 0.98032 0.0
C752 C 0.63227 0.33729 0.93833 0.0
C753 C 0.63341 0.35918 0.91821 0.0
C754 C 0.63983 0.3466 0.96366 0.0
C755 C 0.6474 0.37879 0.96924 0.0
C756 C 0.6447 0.40137 0.94935 0.0
C757 C 0.63826 0.39128 0.92401 0.0
C758 C 0.64263 0.32165 0.98422 0.0
C759 C 0.65102 0.43601 0.95461 0.0
H760 H 0.62074 0.39722 0.0559 0.0
H761 H 0.76758 0.39039 0.03036 0.0
H762 H 0.56936 0.40859 0.99257 0.0
H763 H 0.56293 0.37024 0.0064 0.0
H764 H 0.55657 0.40446 0.02622 0.0
H765 H 0.78854 0.3846 0.98759 0.0
H766 H 0.74641 0.35824 0.97243 0.0
H767 H 0.74604 0.39915 0.96437 0.0
H768 H 0.62692 0.31256 0.93421 0.0
H769 H 0.63916 0.40847 0.90869 0.0
H770 H 0.61779 0.32734 1.0001 0.0
H771 H 0.67972 0.32098 0.9922 0.0
H772 H 0.63343 0.29786 0.97694 0.0
H773 H 0.63068 0.44293 0.97193 0.0
H774 H 0.63882 0.45073 0.93829 0.0
H775 H 0.68968 0.44118 0.95819 0.0
C776 C 0.79018 0.13358 0.53002 0.0
C777 C 0.8249 0.12552 0.54833 0.0
C778 C 0.80083 0.13267 0.5039 0.0
C779 C 0.84753 0.12363 0.49584 0.0
C780 C 0.88179 0.11351 0.51417 0.0
C781 C 0.87001 0.11451 0.54028 0.0
C782 C 0.76295 0.14329 0.48503 0.0
C783 C 0.93185 0.10359 0.50638 0.0
C784 C 0.85674 0.11307 0.42398 0.0
C785 C 0.86903 0.14368 0.41634 0.0
C786 C 0.85276 0.10533 0.45005 0.0
C787 C 0.86158 0.12875 0.46868 0.0
C788 C 0.8778 0.15894 0.46092 0.0
C789 C 0.88105 0.16606 0.43485 0.0
C790 C 0.8357 0.07285 0.45752 0.0
C791 C 0.88829 0.18451 0.4801 0.0
H792 H 0.75507 0.1417 0.53623 0.0
H793 H 0.89697 0.10835 0.55443 0.0
H794 H 0.77418 0.16597 0.47628 0.0
H795 H 0.75915 0.12592 0.46941 0.0
H796 H 0.72715 0.14658 0.49414 0.0
H797 H 0.95114 0.09141 0.52214 0.0
H798 H 0.93042 0.0878 0.48958 0.0
H799 H 0.95307 0.1247 0.50081 0.0
H800 H 0.84729 0.09581 0.40963 0.0
H801 H 0.89095 0.18967 0.42887 0.0
H802 H 0.79736 0.07398 0.4635 0.0
H803 H 0.85673 0.06372 0.47396 0.0
H804 H 0.83862 0.05598 0.44145 0.0
H805 H 0.85408 0.19218 0.48909 0.0
H806 H 0.90579 0.20536 0.47117 0.0
H807 H 0.91207 0.17553 0.4955 0.0
C808 C 0.79148 0.89961 0.026 0.0
C809 C 0.82664 0.90409 0.04492 0.0
C810 C 0.80134 0.90649 1.00027 0.0
C811 C 0.84769 0.91768 0.99328 0.0
C812 C 0.88336 0.92211 0.01232 0.0
C813 C 0.87229 0.91546 0.03792 0.0
C814 C 0.76214 0.90195 0.9806 0.0
C815 C 0.93339 0.93362 1.00563 0.0
C816 C 0.89095 0.90953 0.92471 0.0
C817 C 0.88667 0.94048 0.91574 0.0
C818 C 0.87769 0.90161 0.94981 0.0
C819 C 0.85894 0.92512 0.96612 0.0
C820 C 0.85294 0.95617 0.95678 0.0
C821 C 0.86729 0.96353 0.93178 0.0
C822 C 0.88529 0.86836 0.95917 0.0
C823 C 0.83229 0.98177 0.97337 0.0
H824 H 0.75607 0.89099 0.0314 0.0
H825 H 0.89975 0.91853 0.05246 0.0
H826 H 0.75507 0.9245 0.97057 0.0
H827 H 0.77401 0.8848 0.966 0.0
H828 H 0.72789 0.89338 0.98919 0.0
H829 H 0.95725 0.93526 0.02263 0.0
H830 H 0.95018 0.91748 0.99164 0.0
H831 H 0.93133 0.95716 0.99651 0.0
H832 H 0.90632 0.89177 0.91236 0.0
H833 H 0.86363 0.98743 0.92475 0.0
H834 H 0.85112 0.85858 0.96688 0.0
H835 H 0.91196 0.86832 0.97498 0.0
H836 H 0.89851 0.85259 0.94384 0.0
H837 H 0.79713 0.97415 0.98144 0.0
H838 H 0.82695 1.00413 0.9627 0.0
H839 H 0.85688 0.98637 0.98966 0.0
C840 C 0.65085 0.6384 0.53665 0.0
C841 C 0.67965 0.61643 0.54942 0.0
C842 C 0.6353 0.63287 0.51148 0.0
C843 C 0.64952 0.60492 0.49886 0.0
C844 C 0.67925 0.58295 0.51175 0.0
C845 C 0.69365 0.58889 0.53696 0.0
C846 C 0.6032 0.65667 0.4985 0.0
C847 C 0.6957 0.55307 0.49895 0.0
C848 C 0.57743 0.57252 0.44293 0.0
C849 C 0.60542 0.58217 0.42201 0.0
C850 C 0.59064 0.5805 0.468 0.0
C851 C 0.63311 0.59834 0.47229 0.0
C852 C 0.66116 0.60852 0.45122 0.0
C853 C 0.64689 0.60041 0.42636 0.0
C854 C 0.55949 0.56944 0.48991 0.0
C855 C 0.70695 0.62728 0.45499 0.0
H856 H 0.63997 0.6596 0.5465 0.0
H857 H 0.71596 0.57198 0.54702 0.0
H858 H 0.62037 0.66517 0.48063 0.0
H859 H 0.56847 0.64545 0.49312 0.0
H860 H 0.59558 0.67723 0.51087 0.0
H861 H 0.71981 0.53887 0.51137 0.0
H862 H 0.66397 0.53849 0.49371 0.0
H863 H 0.7152 0.55881 0.48103 0.0
H864 H 0.54501 0.55878 0.43968 0.0
H865 H 0.66896 0.60768 0.4103 0.0
H866 H 0.54884 0.58974 0.50188 0.0
H867 H 0.58025 0.55311 0.50226 0.0
H868 H 0.52633 0.55718 0.4833 0.0
H869 H 0.69947 0.64867 0.46637 0.0
H870 H 0.7236 0.63452 0.4366 0.0
H871 H 0.73347 0.61304 0.46588 0.0
C872 C 0.34121 0.6042 0.9765 0.0
C873 C 0.32974 0.63182 0.96311 0.0
C874 C 0.36071 0.60551 1.00129 0.0
C875 C 0.36931 0.63512 0.0128 0.0
C876 C 0.35882 0.66304 0.99908 0.0
C877 C 0.33907 0.66103 0.97448 0.0
C878 C 0.37118 0.57524 0.01535 0.0
C879 C 0.368 0.69509 0.01049 0.0
C880 C 0.37503 0.64508 0.08484 0.0
C881 C 0.42482 0.64821 0.08903 0.0
C882 C 0.35657 0.63955 0.06026 0.0
C883 C 0.38862 0.63724 0.03931 0.0
C884 C 0.43897 0.6393 0.04353 0.0
C885 C 0.45644 0.64466 0.06831 0.0
C886 C 0.30264 0.63737 0.05658 0.0
C887 C 0.47436 0.63692 0.02174 0.0
H888 H 0.33371 0.58158 0.96785 0.0
H889 H 0.33085 0.68244 0.96406 0.0
H890 H 0.40942 0.57477 0.0216 0.0
H891 H 0.3486 0.57379 0.0328 0.0
H892 H 0.36395 0.55416 1.00345 0.0
H893 H 0.35893 0.71449 0.99707 0.0
H894 H 0.34619 0.69793 0.02807 0.0
H895 H 0.40649 0.69738 0.01603 0.0
H896 H 0.35028 0.64802 0.10064 0.0
H897 H 0.49501 0.64642 0.07143 0.0
H898 H 0.29321 0.61582 0.04575 0.0
H899 H 0.28997 0.65781 0.04521 0.0
H900 H 0.28287 0.63701 0.07501 0.0
H901 H 0.46765 0.61515 0.01067 0.0
H902 H 0.51241 0.63688 0.02842 0.0
H903 H 0.46935 0.65709 0.00852 0.0
C904 C 0.13075 0.89243 0.47272 0.0
C905 C 0.17868 0.88764 0.46513 0.0
C906 C 0.11932 0.89862 0.49833 0.0
C907 C 0.15677 0.90023 0.51668 0.0
C908 C 0.2052 0.89552 0.50907 0.0
C909 C 0.21553 0.88927 0.48342 0.0
C910 C 0.06726 0.90333 0.50578 0.0
C911 C 0.24622 0.89729 0.52803 0.0
C912 C 0.14248 0.94423 0.57904 0.0
C913 C 0.13776 0.91942 0.59661 0.0
C914 C 0.14665 0.9384 0.55279 0.0
C915 C 0.14584 0.90701 0.54389 0.0
C916 C 0.13868 0.88196 0.56137 0.0
C917 C 0.13486 0.88846 0.58753 0.0
C918 C 0.15407 0.96576 0.53474 0.0
C919 C 0.13738 0.84817 0.55259 0.0
H920 H 0.10213 0.89095 0.45865 0.0
H921 H 0.2527 0.8861 0.47758 0.0
H922 H 0.05664 0.88564 0.52037 0.0
H923 H 0.06261 0.92688 0.51449 0.0
H924 H 0.04241 0.90129 0.48922 0.0
H925 H 0.28184 0.89299 0.51901 0.0
H926 H 0.24698 0.92084 0.5371 0.0
H927 H 0.24074 0.87968 0.54344 0.0
H928 H 0.14386 0.96825 0.58587 0.0
H929 H 0.13167 0.86912 0.60098 0.0
H930 H 0.12796 0.96451 0.51871 0.0
H931 H 0.19079 0.9646 0.52639 0.0
H932 H 0.14996 0.98881 0.5444 0.0
H933 H 0.11178 0.84541 0.53646 0.0
H934 H 0.12667 0.83175 0.56814 0.0
H935 H 0.17359 0.84129 0.5456 0.0
C936 C 0.23291 0.29079 0.33635 0.0
C937 C 0.22452 0.29416 0.36251 0.0
C938 C 0.20415 0.27034 0.32159 0.0
C939 C 0.16697 0.25255 0.33351 0.0
C940 C 0.1577 0.25686 0.35985 0.0
C941 C 0.18656 0.27767 0.37399 0.0
C942 C 0.21528 0.26672 0.2936 0.0
C943 C 0.11875 0.23835 0.37341 0.0
C944 C 0.06781 0.21056 0.29617 0.0
C945 C 0.08481 0.17955 0.29595 0.0
C946 C 0.09495 0.23484 0.30749 0.0
C947 C 0.13982 0.22784 0.31915 0.0
C948 C 0.1573 0.19655 0.31865 0.0
C949 C 0.12954 0.17283 0.30713 0.0
C950 C 0.07555 0.26796 0.30711 0.0
C951 C 0.20504 0.188 0.33065 0.0
H952 H 0.26274 0.30336 0.32759 0.0
H953 H 0.18057 0.28016 0.39434 0.0
H954 H 0.23745 0.24532 0.2909 0.0
H955 H 0.1818 0.26392 0.28219 0.0
H956 H 0.23595 0.28716 0.28606 0.0
H957 H 0.11446 0.24562 0.39362 0.0
H958 H 0.08369 0.24133 0.36349 0.0
H959 H 0.12765 0.21292 0.37299 0.0
H960 H 0.03349 0.2159 0.28723 0.0
H961 H 0.14259 0.14882 0.30718 0.0
H962 H 0.10262 0.28417 0.29859 0.0
H963 H 0.06885 0.27599 0.32691 0.0
H964 H 0.04141 0.26985 0.29609 0.0
H965 H 0.23441 0.20197 0.32172 0.0
H966 H 0.21357 0.16262 0.32853 0.0
H967 H 0.20459 0.19381 0.35128 0.0
C968 C 0.35753 0.21034 0.86499 0.0
C969 C 0.3076 0.20598 0.86364 0.0
C970 C 0.38043 0.234 0.85068 0.0
C971 C 0.35255 0.25368 0.83458 0.0
C972 C 0.30213 0.24847 0.83244 0.0
C973 C 0.2801 0.22468 0.84718 0.0
C974 C 0.43416 0.23881 0.85364 0.0
C975 C 0.27142 0.26851 0.81506 0.0
C976 C 0.40403 0.33509 0.82059 0.0
C977 C 0.4249 0.33073 0.79654 0.0
C978 C 0.37972 0.31033 0.83301 0.0
C979 C 0.37607 0.28055 0.82102 0.0
C980 C 0.39705 0.2761 0.7967 0.0
C981 C 0.42165 0.30113 0.78492 0.0
C982 C 0.35826 0.31595 0.85906 0.0
C983 C 0.39373 0.24488 0.78316 0.0
H984 H 0.3785 0.19605 0.8781 0.0
H985 H 0.24131 0.2214 0.84648 0.0
H986 H 0.45203 0.23833 0.83471 0.0
H987 H 0.44133 0.26227 0.86208 0.0
H988 H 0.45091 0.22061 0.86603 0.0
H989 H 0.23265 0.26191 0.81594 0.0
H990 H 0.27521 0.2937 0.8202 0.0
H991 H 0.28404 0.26598 0.79511 0.0
H992 H 0.40642 0.35794 0.82964 0.0
H993 H 0.4388 0.2974 0.76664 0.0
H994 H 0.37502 0.29985 0.8732 0.0
H995 H 0.31903 0.3107 0.85875 0.0
H996 H 0.36355 0.34056 0.86559 0.0
H997 H 0.40945 0.22601 0.79522 0.0
H998 H 0.41269 0.24515 0.76449 0.0
H999 H 0.35532 0.23872 0.77985 0.0
C1000 C 0.74295 0.25543 0.66409 0.0
C1001 C 0.72527 0.22658 0.65537 0.0
C1002 C 0.71406 0.27526 0.67899 0.0
C1003 C 0.66637 0.26587 0.68518 0.0
C1004 C 0.64925 0.23597 0.6773 0.0
C1005 C 0.67895 0.21668 0.66229 0.0
C1006 C 0.7337 0.30692 0.68695 0.0
C1007 C 0.59883 0.225 0.68369 0.0
C1008 C 0.60256 0.31154 0.73746 0.0
C1009 C 0.57484 0.33301 0.72325 0.0
C1010 C 0.63179 0.28917 0.72536 0.0
C1011 C 0.6336 0.28826 0.69839 0.0
C1012 C 0.60528 0.30956 0.68393 0.0
C1013 C 0.57619 0.3316 0.69652 0.0
C1014 C 0.6612 0.26678 0.74145 0.0
C1015 C 0.60634 0.30944 0.65512 0.0
H1016 H 0.77868 0.26313 0.65832 0.0
H1017 H 0.66527 0.19446 0.65514 0.0
H1018 H 0.7132 0.32586 0.67721 0.0
H1019 H 0.72908 0.31027 0.70779 0.0
H1020 H 0.77253 0.30971 0.68219 0.0
H1021 H 0.59264 0.20008 0.67826 0.0
H1022 H 0.59187 0.22758 0.70443 0.0
H1023 H 0.5722 0.23988 0.67348 0.0
H1024 H 0.60169 0.31223 0.75812 0.0
H1025 H 0.55494 0.34799 0.68534 0.0
H1026 H 0.7002 0.27067 0.73783 0.0
H1027 H 0.6529 0.24211 0.73611 0.0
H1028 H 0.65433 0.2697 0.76219 0.0
H1029 H 0.64343 0.31464 0.64832 0.0
H1030 H 0.58134 0.32701 0.64668 0.0
H1031 H 0.59639 0.28579 0.64789 0.0
C1032 C 0.80771 0.28467 0.16007 0.0
C1033 C 0.83634 0.30901 0.15029 0.0
C1034 C 0.82822 0.26067 0.17505 0.0
C1035 C 0.87851 0.26105 0.17999 0.0
C1036 C 0.90709 0.28637 0.17082 0.0
C1037 C 0.88556 0.31008 0.15602 0.0
C1038 C 0.7965 0.23423 0.18465 0.0
C1039 C 0.96078 0.28767 0.17567 0.0
C1040 C 0.93069 0.21059 0.23319 0.0
C1041 C 0.9487 0.18467 0.21968 0.0
C1042 C 0.90724 0.23538 0.22058 0.0
C1043 C 0.90173 0.23437 0.19377 0.0
C1044 C 0.91946 0.20819 0.18001 0.0
C1045 C 0.94256 0.18359 0.19314 0.0
C1046 C 0.88872 0.26279 0.23595 0.0
C1047 C 0.91432 0.20627 0.15137 0.0
H1048 H 0.7697 0.28375 0.15518 0.0
H1049 H 0.90764 0.32876 0.14799 0.0
H1050 H 0.80687 0.21192 0.17523 0.0
H1051 H 0.80163 0.23087 0.20548 0.0
H1052 H 0.75767 0.23864 0.18084 0.0
H1053 H 0.97735 0.30979 0.16843 0.0
H1054 H 0.96829 0.28565 0.19641 0.0
H1055 H 0.97855 0.26748 0.16622 0.0
H1056 H 0.9352 0.21171 0.25371 0.0
H1057 H 0.95584 0.16351 0.1826 0.0
H1058 H 0.84954 0.26596 0.2325 0.0
H1059 H 0.90703 0.28478 0.22979 0.0
H1060 H 0.89468 0.25957 0.25677 0.0
H1061 H 0.87569 0.20764 0.14595 0.0
H1062 H 0.9296 0.1842 0.14353 0.0
H1063 H 0.93295 0.22655 0.14227 0.0
C1064 C 0.81058 0.70651 0.67336 0.0
C1065 C 0.82091 0.70537 0.64725 0.0
C1066 C 0.82982 0.73073 0.6887 0.0
C1067 C 0.85984 0.75413 0.67751 0.0
C1068 C 0.86978 0.75293 0.65102 0.0
C1069 C 0.85016 0.72857 0.63625 0.0
C1070 C 0.81777 0.73138 0.71676 0.0
C1071 C 0.90161 0.77724 0.63827 0.0
C1072 C 0.88227 0.83407 0.70796 0.0
C1073 C 0.92838 0.83018 0.71847 0.0
C1074 C 0.85856 0.80913 0.69558 0.0
C1075 C 0.88187 0.77967 0.69327 0.0
C1076 C 0.92827 0.77553 0.70415 0.0
C1077 C 0.95095 0.80083 0.71658 0.0
C1078 C 0.80889 0.81446 0.68461 0.0
C1079 C 0.95441 0.74454 0.70217 0.0
H1080 H 0.78782 0.68846 0.68177 0.0
H1081 H 0.8581 0.72749 0.616 0.0
H1082 H 0.85081 0.73492 0.72839 0.0
H1083 H 0.79344 0.75147 0.72057 0.0
H1084 H 0.79952 0.70943 0.72316 0.0
H1085 H 0.90546 0.7731 0.61744 0.0
H1086 H 0.88646 0.80109 0.64114 0.0
H1087 H 0.93802 0.77699 0.64708 0.0
H1088 H 0.86499 0.85684 0.70906 0.0
H1089 H 0.98647 0.79762 0.72485 0.0
H1090 H 0.78293 0.79775 0.69342 0.0
H1091 H 0.80904 0.80989 0.66378 0.0
H1092 H 0.79586 0.8388 0.68787 0.0
H1093 H 0.93135 0.72522 0.70963 0.0
H1094 H 0.98905 0.74459 0.71286 0.0
H1095 H 0.96204 0.73932 0.68184 0.0
C1096 C 0.66812 0.79744 0.14515 0.0
C1097 C 0.7183 0.79838 0.14778 0.0
C1098 C 0.64026 0.77565 0.15905 0.0
C1099 C 0.66341 0.75418 0.17576 0.0
C1100 C 0.71414 0.75591 0.17907 0.0
C1101 C 0.74105 0.77803 0.16495 0.0
C1102 C 0.58641 0.77462 0.15481 0.0
C1103 C 0.74006 0.73394 0.19707 0.0
C1104 C 0.58841 0.71081 0.22556 0.0
C1105 C 0.58269 0.68108 0.21441 0.0
C1106 C 0.61462 0.73477 0.21328 0.0
C1107 C 0.63491 0.72911 0.18897 0.0
C1108 C 0.62805 0.69939 0.17726 0.0
C1109 C 0.60213 0.6757 0.19015 0.0
C1110 C 0.62081 0.76607 0.22642 0.0
C1111 C 0.64854 0.69251 0.1512 0.0
H1112 H 0.6508 0.81289 0.13142 0.0
H1113 H 0.78004 0.77859 0.16663 0.0
H1114 H 0.57713 0.75347 0.14346 0.0
H1115 H 0.56691 0.7728 0.17324 0.0
H1116 H 0.57327 0.7957 0.14436 0.0
H1117 H 0.7798 0.73733 0.19664 0.0
H1118 H 0.72717 0.7381 0.21677 0.0
H1119 H 0.73171 0.7091 0.19228 0.0
H1120 H 0.57217 0.71543 0.24393 0.0
H1121 H 0.59759 0.65283 0.18137 0.0
H1122 H 0.60841 0.78541 0.21377 0.0
H1123 H 0.65959 0.77023 0.23049 0.0
H1124 H 0.60055 0.76726 0.24468 0.0
H1125 H 0.63467 0.70979 0.1371 0.0
H1126 H 0.63927 0.66845 0.14454 0.0
H1127 H 0.6884 0.69497 0.15165 0.0
C1128 C 0.2823 0.77081 0.35014 0.0
C1129 C 0.30506 0.79869 0.35758 0.0
C1130 C 0.3057 0.74946 0.33397 0.0
C1131 C 0.35302 0.75626 0.32527 0.0
C1132 C 0.37487 0.7854 0.33163 0.0
C1133 C 0.35059 0.80627 0.34787 0.0
C1134 C 0.28111 0.71872 0.32763 0.0
C1135 C 0.4251 0.79363 0.32266 0.0
C1136 C 0.43616 0.68682 0.31411 0.0
C1137 C 0.43542 0.68407 0.28743 0.0
C1138 C 0.40953 0.7102 0.32655 0.0
C1139 C 0.38153 0.73156 0.31201 0.0
C1140 C 0.38072 0.72909 0.28509 0.0
C1141 C 0.40758 0.70535 0.27312 0.0
C1142 C 0.41124 0.71192 0.35533 0.0
C1143 C 0.35149 0.75153 0.26895 0.0
H1144 H 0.24724 0.76492 0.35804 0.0
H1145 H 0.36825 0.82777 0.354 0.0
H1146 H 0.28344 0.71393 0.30687 0.0
H1147 H 0.29968 0.69919 0.33769 0.0
H1148 H 0.24253 0.71858 0.33336 0.0
H1149 H 0.43457 0.81855 0.32666 0.0
H1150 H 0.45164 0.77829 0.33249 0.0
H1151 H 0.42864 0.7894 0.30187 0.0
H1152 H 0.45739 0.67054 0.32541 0.0
H1153 H 0.40679 0.70355 0.25249 0.0
H1154 H 0.37437 0.70911 0.36326 0.0
H1155 H 0.4248 0.73533 0.36136 0.0
H1156 H 0.43478 0.69355 0.36383 0.0
H1157 H 0.31284 0.7499 0.27427 0.0
H1158 H 0.355 0.74664 0.24822 0.0
H1159 H 0.36325 0.77608 0.27257 0.0
C1160 C 0.1979 0.72406 0.85017 0.0
C1161 C 0.16808 0.70352 0.86389 0.0
C1162 C 0.17793 0.7478 0.83469 0.0
C1163 C 0.1271 0.75107 0.83329 0.0
C1164 C 0.09702 0.72943 0.84645 0.0
C1165 C 0.11799 0.70589 0.86165 0.0
C1166 C 0.21114 0.77022 0.82077 0.0
C1167 C 0.04274 0.73216 0.84561 0.0
C1168 C 0.07428 0.83184 0.8196 0.0
C1169 C 0.06021 0.82893 0.79404 0.0
C1170 C 0.09655 0.80677 0.8325 0.0
C1171 C 0.10527 0.7782 0.81945 0.0
C1172 C 0.09175 0.77533 0.79351 0.0
C1173 C 0.06931 0.80071 0.78113 0.0
C1174 C 0.11026 0.81076 0.8602 0.0
C1175 C 0.10043 0.74531 0.77893 0.0
H1176 H 0.23672 0.72231 0.85228 0.0
H1177 H 0.09513 0.69015 0.87265 0.0
H1178 H 0.20078 0.7719 0.80035 0.0
H1179 H 0.20775 0.79412 0.82901 0.0
H1180 H 0.2495 0.76289 0.82204 0.0
H1181 H 0.02455 0.71159 0.85458 0.0
H1182 H 0.03154 0.7537 0.8559 0.0
H1183 H 0.02993 0.73444 0.82563 0.0
H1184 H 0.06777 0.85374 0.82955 0.0
H1185 H 0.05838 0.79834 0.76136 0.0
H1186 H 0.14943 0.80649 0.86275 0.0
H1187 H 0.09078 0.79316 0.87205 0.0
H1188 H 0.10174 0.83463 0.86745 0.0
H1189 H 0.13924 0.73907 0.77968 0.0
H1190 H 0.08925 0.74724 0.75862 0.0
H1191 H 0.08009 0.72568 0.78793 0.0
loop_
_geom_bond_atom_site_label_1
_geom_bond_atom_site_label_2
_geom_bond_distance
_geom_bond_site_symmetry_2
_ccdc_geom_bond_type
H0 C3 0.929 . S
H1 C6 0.929 . S
H2 C8 0.930 . S
C3 H0 0.929 . S
C3 C4 1.398 . S
C3 C5 1.396 . S
C4 C3 1.398 . S
C4 C8 1.407 . S
C5 C3 1.396 . S
C5 C6 1.394 . S
C6 H1 0.929 . S
C6 C5 1.394 . S
C6 C7 1.382 . S
C7 C6 1.382 . S
C7 C8 1.392 . S
C7 N9 1.420 . S
C8 H2 0.930 . S
C8 C4 1.407 . S
C8 C7 1.392 . S
N9 C7 1.420 . S
N9 C10 1.244 . S
C10 N9 1.244 . S
H11 C14 0.929 . S
H12 C17 0.929 . S
H13 C19 0.930 . S
C14 H11 0.929 . S
C14 C15 1.398 . S
C14 C16 1.396 . S
C15 C14 1.398 . S
C15 C19 1.407 . S
C16 C14 1.396 . S
C16 C17 1.394 . S
C17 H12 0.929 . S
C17 C16 1.394 . S
C17 C18 1.382 . S
C18 C17 1.382 . S
C18 C19 1.392 . S
C18 N20 1.420 . S
C19 H13 0.930 . S
C19 C15 1.407 . S
C19 C18 1.392 . S
N20 C18 1.420 . S
N20 C21 1.244 . S
C21 N20 1.244 . S
H22 C25 0.929 . S
H23 C28 0.929 . S
H24 C30 0.930 . S
C25 H22 0.929 . S
C25 C26 1.398 . S
C25 C27 1.396 . S
C26 C25 1.398 . S
C26 C30 1.407 . S
C27 C25 1.396 . S
C27 C28 1.394 . S
C28 H23 0.929 . S
C28 C27 1.394 . S
C28 C29 1.382 . S
C29 C28 1.382 . S
C29 C30 1.392 . S
C29 N31 1.420 . S
C30 H24 0.930 . S
C30 C26 1.407 . S
C30 C29 1.392 . S
N31 C29 1.420 . S
N31 C32 1.244 . S
C32 N31 1.244 . S
H33 C36 0.929 . S
H34 C39 0.929 . S
H35 C41 0.930 . S
C36 H33 0.929 . S
C36 C37 1.398 . S
C36 C38 1.396 . S
C37 C36 1.398 . S
C37 C41 1.407 . S
C38 C36 1.396 . S
C38 C39 1.394 . S
C39 H34 0.929 . S
C39 C38 1.394 . S
C39 C40 1.382 . S
C40 C39 1.382 . S
C40 C41 1.392 . S
C40 N42 1.420 . S
C41 H35 0.930 . S
C41 C37 1.407 . S
C41 C40 1.392 . S
N42 C40 1.420 . S
N42 C43 1.244 . S
C43 N42 1.244 . S
H44 C47 0.929 . S
H45 C50 0.929 . S
H46 C52 0.930 . S
C47 H44 0.929 . S
C47 C48 1.398 . S
C47 C49 1.396 . S
C48 C47 1.398 . S
C48 C52 1.407 . S
C49 C47 1.396 . S
C49 C50 1.394 . S
C50 H45 0.929 . S
C50 C49 1.394 . S
C50 C51 1.382 . S
C51 C50 1.382 . S
C51 C52 1.392 . S
C51 N53 1.420 . S
C52 H46 0.930 . S
C52 C48 1.407 . S
C52 C51 1.392 . S
N53 C51 1.420 . S
N53 C54 1.244 . S
C54 N53 1.244 . S
H55 C58 0.929 . S
H56 C61 0.929 . S
H57 C63 0.930 . S
C58 H55 0.929 . S
C58 C59 1.398 . S
C58 C60 1.396 . S
C59 C58 1.398 . S
C59 C63 1.407 . S
C60 C58 1.396 . S
C60 C61 1.394 . S
C61 H56 0.929 . S
C61 C60 1.394 . S
C61 C62 1.382 . S
C62 C61 1.382 . S
C62 C63 1.392 . S
C62 N64 1.420 . S
C63 H57 0.930 . S
C63 C59 1.407 . S
C63 C62 1.392 . S
N64 C62 1.420 . S
N64 C65 1.244 . S
C65 N64 1.244 . S
H66 C69 0.929 . S
H67 C72 0.929 . S
H68 C74 0.930 . S
C69 H66 0.929 . S
C69 C70 1.398 . S
C69 C71 1.396 . S
C70 C69 1.398 . S
C70 C74 1.407 . S
C71 C69 1.396 . S
C71 C72 1.394 . S
C72 H67 0.929 . S
C72 C71 1.394 . S
C72 C73 1.382 . S
C73 C72 1.382 . S
C73 C74 1.392 . S
C73 N75 1.420 . S
C74 H68 0.930 . S
C74 C70 1.407 . S
C74 C73 1.392 . S
N75 C73 1.420 . S
N75 C76 1.244 . S
C76 N75 1.244 . S
H77 C80 0.929 . S
H78 C83 0.929 . S
H79 C85 0.930 . S
C80 H77 0.929 . S
C80 C81 1.398 . S
C80 C82 1.396 . S
C81 C80 1.398 . S
C81 C85 1.407 . S
C82 C80 1.396 . S
C82 C83 1.394 . S
C83 H78 0.929 . S
C83 C82 1.394 . S
C83 C84 1.382 . S
C84 C83 1.382 . S
C84 C85 1.392 . S
C84 N86 1.420 . S
C85 H79 0.930 . S
C85 C81 1.407 . S
C85 C84 1.392 . S
N86 C84 1.420 . S
N86 C87 1.244 . S
C87 N86 1.244 . S
Eu88 N117 2.600 . S
Eu88 N123 2.562 . S
Eu88 O132 2.462 . S
Eu88 O133 2.373 . S
Eu88 O135 2.432 . S
Eu88 O136 2.291 . S
Eu88 O140 2.335 . S
Eu88 O143 2.372 . S
Eu88 C152 2.787 . S
C89 N90 1.365 . S
C89 C92 1.405 . S
C89 C96 1.448 . S
N90 C89 1.365 . S
N90 C93 1.319 . S
N90 Eu99 2.600 . S
C91 C93 1.397 . S
C91 C94 1.367 . S
C91 H111 0.931 . S
C92 C89 1.405 . S
C92 C94 1.403 . S
C92 C98 1.439 . S
C93 N90 1.319 . S
C93 C91 1.397 . S
C93 H104 0.930 . S
C94 C91 1.367 . S
C94 C92 1.403 . S
C94 H115 0.929 . S
C95 C96 1.430 . S
C95 C97 1.387 . S
C95 C101 1.404 1_545 S
C96 C89 1.448 . S
C96 C95 1.430 . S
C96 N100 1.351 . S
C97 C95 1.387 . S
C97 C98 1.374 . S
C97 H112 0.931 . S
C98 C92 1.439 . S
C98 C97 1.374 . S
C98 H113 0.931 . S
Eu99 N90 2.600 . S
Eu99 N100 2.562 . S
Eu99 O134 2.335 1_655 S
Eu99 O137 2.372 . S
Eu99 O138 2.462 . S
Eu99 O139 2.373 . S
Eu99 O141 2.432 . S
Eu99 O142 2.291 1_655 S
Eu99 C163 2.787 . S
N100 C96 1.351 . S
N100 Eu99 2.562 . S
N100 C102 1.325 . S
C101 C95 1.404 1_565 S
C101 C103 1.366 . S
C101 H109 0.930 . S
C102 N100 1.325 . S
C102 C103 1.407 1_545 S
C102 H108 0.929 . S
C103 C101 1.366 . S
C103 C102 1.407 1_565 S
C103 H105 0.938 . S
H104 C93 0.930 . S
H105 C103 0.938 . S
H106 C121 0.930 . S
H107 C128 0.930 . S
H108 C102 0.929 . S
H109 C101 0.930 . S
H110 C124 0.929 . S
H111 C91 0.931 . S
H112 C97 0.931 . S
H113 C98 0.931 . S
H114 C119 0.931 . S
H115 C94 0.929 . S
H116 C127 0.930 . S
N117 Eu88 2.600 . S
N117 C118 1.365 . S
N117 C121 1.319 . S
C118 N117 1.365 . S
C118 C120 1.405 . S
C118 C126 1.448 . S
C119 H114 0.931 . S
C119 C121 1.397 . S
C119 C122 1.367 . S
C120 C118 1.405 . S
C120 C122 1.403 . S
C120 C153 1.439 . S
C121 H106 0.930 . S
C121 N117 1.319 . S
C121 C119 1.397 . S
C122 C119 1.367 . S
C122 C120 1.403 . S
C122 H129 0.929 . S
N123 Eu88 2.562 . S
N123 C124 1.325 . S
N123 C126 1.351 . S
C124 H110 0.929 . S
C124 N123 1.325 . S
C124 C128 1.416 . S
C125 C126 1.430 . S
C125 C127 1.404 . S
C125 C154 1.387 . S
C126 C118 1.448 . S
C126 N123 1.351 . S
C126 C125 1.430 . S
C127 H116 0.930 . S
C127 C125 1.404 . S
C127 C128 1.366 . S
C128 H107 0.930 . S
C128 C124 1.416 . S
C128 C127 1.366 . S
H129 C122 0.929 . S
H130 C153 0.931 . S
H131 C154 0.931 . S
O132 Eu88 2.462 . S
O132 C152 1.252 . S
O133 Eu88 2.373 . S
O133 C144 1.249 . S
O134 Eu99 2.335 1_455 S
O134 C144 1.264 . S
O135 Eu88 2.432 . S
O135 C152 1.268 . S
O136 Eu88 2.291 . S
O136 C151 1.255 1_455 S
O137 Eu99 2.372 . S
O137 C151 1.257 . S
O138 Eu99 2.462 . S
O138 C163 1.252 . S
O139 Eu99 2.373 . S
O139 C155 1.249 . S
O140 Eu88 2.335 . S
O140 C155 1.264 1_455 S
O141 Eu99 2.432 . S
O141 C163 1.268 . S
O142 Eu99 2.291 1_455 S
O142 C162 1.255 . S
O143 Eu88 2.372 . S
O143 C162 1.257 . S
C144 O133 1.249 . S
C144 O134 1.264 . S
C145 C148 1.382 . S
C145 C150 1.390 . S
C145 C152 1.506 . S
C146 C147 1.398 . S
C146 C150 1.392 . S
C147 C146 1.398 . S
C147 C149 1.372 . S
C147 H164 0.931 . S
C148 C145 1.382 . S
C148 C149 1.390 . S
C148 H165 0.931 . S
C149 C147 1.372 . S
C149 C148 1.390 . S
C149 H166 0.929 . S
C150 C145 1.390 . S
C150 C146 1.392 . S
C150 H167 0.930 . S
C151 O136 1.255 1_655 S
C151 O137 1.257 . S
C152 Eu88 2.787 . S
C152 O132 1.252 . S
C152 O135 1.268 . S
C152 C145 1.506 . S
C153 C120 1.439 . S
C153 H130 0.931 . S
C153 C154 1.374 . S
C154 C125 1.387 . S
C154 H131 0.931 . S
C154 C153 1.374 . S
C155 O139 1.249 . S
C155 O140 1.264 1_655 S
C156 C159 1.382 . S
C156 C160 1.390 . S
C156 C163 1.506 . S
C157 C158 1.398 . S
C157 C160 1.392 . S
C158 C157 1.398 . S
C158 C161 1.372 . S
C158 H168 0.931 . S
C159 C156 1.382 . S
C159 C161 1.390 . S
C159 H169 0.931 . S
C160 C156 1.390 . S
C160 C157 1.392 . S
C160 H170 0.930 . S
C161 C158 1.372 . S
C161 C159 1.390 . S
C161 H171 0.929 . S
C162 O142 1.255 . S
C162 O143 1.257 . S
C163 Eu99 2.787 . S
C163 O138 1.252 . S
C163 O141 1.268 . S
C163 C156 1.506 . S
H164 C147 0.931 . S
H165 C148 0.931 . S
H166 C149 0.929 . S
H167 C150 0.930 . S
H168 C158 0.931 . S
H169 C159 0.931 . S
H170 C160 0.930 . S
H171 C161 0.929 . S
Eu172 N201 2.600 . S
Eu172 N207 2.562 . S
Eu172 O216 2.462 . S
Eu172 O217 2.373 . S
Eu172 O219 2.432 . S
Eu172 O220 2.291 . S
Eu172 O224 2.335 . S
Eu172 O227 2.372 . S
Eu172 C236 2.787 . S
C173 N174 1.365 . S
C173 C176 1.405 . S
C173 C180 1.448 . S
N174 C173 1.365 . S
N174 C177 1.319 . S
N174 Eu183 2.600 . S
C175 C177 1.397 . S
C175 C178 1.367 . S
C175 H195 0.931 . S
C176 C173 1.405 . S
C176 C178 1.403 . S
C176 C182 1.439 . S
C177 N174 1.319 . S
C177 C175 1.397 . S
C177 H188 0.930 . S
C178 C175 1.367 . S
C178 C176 1.403 . S
C178 H199 0.929 . S
C179 C180 1.430 . S
C179 C181 1.387 . S
C179 C185 1.404 . S
C180 C173 1.448 . S
C180 C179 1.430 . S
C180 N184 1.351 . S
C181 C179 1.387 . S
C181 C182 1.374 . S
C181 H196 0.931 . S
C182 C176 1.439 . S
C182 C181 1.374 . S
C182 H197 0.931 . S
Eu183 N174 2.600 . S
Eu183 N184 2.562 . S
Eu183 O218 2.335 . S
Eu183 O221 2.372 . S
Eu183 O222 2.462 . S
Eu183 O223 2.373 . S
Eu183 O225 2.432 . S
Eu183 O226 2.291 . S
Eu183 C247 2.787 . S
N184 C180 1.351 . S
N184 Eu183 2.562 . S
N184 C186 1.325 . S
C185 C179 1.404 . S
C185 C187 1.366 . S
C185 H193 0.930 . S
C186 N184 1.325 . S
C186 C187 1.416 . S
C186 H192 0.929 . S
C187 C185 1.366 . S
C187 C186 1.416 . S
C187 H189 0.930 . S
H188 C177 0.930 . S
H189 C187 0.930 . S
H190 C205 0.930 . S
H191 C212 0.930 . S
H192 C186 0.929 . S
H193 C185 0.930 . S
H194 C208 0.929 . S
H195 C175 0.931 . S
H196 C181 0.931 . S
H197 C182 0.931 . S
H198 C203 0.931 . S
H199 C178 0.929 . S
H200 C211 0.930 . S
N201 Eu172 2.600 . S
N201 C202 1.365 . S
N201 C205 1.319 . S
C202 N201 1.365 . S
C202 C204 1.405 . S
C202 C210 1.448 . S
C203 H198 0.931 . S
C203 C205 1.397 . S
C203 C206 1.367 . S
C204 C202 1.405 . S
C204 C206 1.403 . S
C204 C237 1.439 . S
C205 H190 0.930 . S
C205 N201 1.319 . S
C205 C203 1.397 . S
C206 C203 1.367 . S
C206 C204 1.403 . S
C206 H213 0.929 . S
N207 Eu172 2.562 . S
N207 C208 1.325 . S
N207 C210 1.351 . S
C208 H194 0.929 . S
C208 N207 1.325 . S
C208 C212 1.416 . S
C209 C210 1.430 . S
C209 C211 1.404 . S
C209 C238 1.387 . S
C210 C202 1.448 . S
C210 N207 1.351 . S
C210 C209 1.430 . S
C211 H200 0.930 . S
C211 C209 1.404 . S
C211 C212 1.366 . S
C212 H191 0.930 . S
C212 C208 1.416 . S
C212 C211 1.366 . S
H213 C206 0.929 . S
H214 C237 0.931 . S
H215 C238 0.931 . S
O216 Eu172 2.462 . S
O216 C236 1.252 . S
O217 Eu172 2.373 . S
O217 C228 1.249 . S
O218 Eu183 2.335 . S
O218 C228 1.264 . S
O219 Eu172 2.432 . S
O219 C236 1.268 . S
O220 Eu172 2.291 . S
O220 C235 1.255 . S
O221 Eu183 2.372 . S
O221 C235 1.257 . S
O222 Eu183 2.462 . S
O222 C247 1.252 . S
O223 Eu183 2.373 . S
O223 C239 1.249 . S
O224 Eu172 2.335 . S
O224 C239 1.264 . S
O225 Eu183 2.432 . S
O225 C247 1.268 . S
O226 Eu183 2.291 . S
O226 C246 1.255 . S
O227 Eu172 2.372 . S
O227 C246 1.257 . S
C228 O217 1.249 . S
C228 O218 1.264 . S
C229 C232 1.382 . S
C229 C234 1.390 . S
C229 C236 1.506 . S
C230 C231 1.398 . S
C230 C234 1.392 . S
C231 C230 1.398 . S
C231 C233 1.372 . S
C231 H248 0.931 . S
C232 C229 1.382 . S
C232 C233 1.390 . S
C232 H249 0.931 . S
C233 C231 1.372 . S
C233 C232 1.390 . S
C233 H250 0.929 . S
C234 C229 1.390 . S
C234 C230 1.392 . S
C234 H251 0.930 . S
C235 O220 1.255 . S
C235 O221 1.257 . S
C236 Eu172 2.787 . S
C236 O216 1.252 . S
C236 O219 1.268 . S
C236 C229 1.506 . S
C237 C204 1.439 . S
C237 H214 0.931 . S
C237 C238 1.374 . S
C238 C209 1.387 . S
C238 H215 0.931 . S
C238 C237 1.374 . S
C239 O223 1.249 . S
C239 O224 1.264 . S
C240 C243 1.382 . S
C240 C244 1.390 . S
C240 C247 1.506 . S
C241 C242 1.398 . S
C241 C244 1.392 . S
C242 C241 1.398 . S
C242 C245 1.372 . S
C242 H252 0.931 . S
C243 C240 1.382 . S
C243 C245 1.390 . S
C243 H253 0.931 . S
C244 C240 1.390 . S
C244 C241 1.392 . S
C244 H254 0.930 . S
C245 C242 1.372 . S
C245 C243 1.390 . S
C245 H255 0.929 . S
C246 O226 1.255 . S
C246 O227 1.257 . S
C247 Eu183 2.787 . S
C247 O222 1.252 . S
C247 O225 1.268 . S
C247 C240 1.506 . S
H248 C231 0.931 . S
H249 C232 0.931 . S
H250 C233 0.929 . S
H251 C234 0.930 . S
H252 C242 0.931 . S
H253 C243 0.931 . S
H254 C244 0.930 . S
H255 C245 0.929 . S
Eu256 N285 2.600 . S
Eu256 N291 2.562 . S
Eu256 O300 2.462 . S
Eu256 O301 2.373 . S
Eu256 O303 2.432 . S
Eu256 O304 2.308 . S
Eu256 O308 2.339 . S
Eu256 O311 2.372 . S
Eu256 C320 2.787 . S
C257 N258 1.365 . S
C257 C260 1.405 . S
C257 C264 1.448 . S
N258 C257 1.365 . S
N258 C261 1.319 . S
N258 Eu267 2.600 . S
C259 C261 1.397 . S
C259 C262 1.367 . S
C259 H279 0.931 . S
C260 C257 1.405 . S
C260 C262 1.403 . S
C260 C266 1.439 . S
C261 N258 1.319 . S
C261 C259 1.397 . S
C261 H272 0.930 . S
C262 C259 1.367 . S
C262 C260 1.403 . S
C262 H283 0.929 . S
C263 C264 1.430 . S
C263 C265 1.387 . S
C263 C269 1.404 . S
C264 C257 1.448 . S
C264 C263 1.430 . S
C264 N268 1.351 . S
C265 C263 1.387 . S
C265 C266 1.374 . S
C265 H280 0.931 . S
C266 C260 1.439 . S
C266 C265 1.374 . S
C266 H281 0.931 . S
Eu267 N258 2.600 . S
Eu267 N268 2.562 . S
Eu267 O302 2.335 1_655 S
Eu267 O305 2.372 . S
Eu267 O306 2.462 . S
Eu267 O307 2.373 . S
Eu267 O309 2.432 . S
Eu267 O310 2.291 1_655 S
Eu267 C331 2.787 . S
N268 C264 1.351 . S
N268 Eu267 2.562 . S
N268 C270 1.325 . S
C269 C263 1.404 . S
C269 C271 1.366 . S
C269 H277 0.930 . S
C270 N268 1.325 . S
C270 C271 1.416 . S
C270 H276 0.929 . S
C271 C269 1.366 . S
C271 C270 1.416 . S
C271 H273 0.930 . S
H272 C261 0.930 . S
H273 C271 0.930 . S
H274 C289 0.930 . S
H275 C296 0.930 . S
H276 C270 0.929 . S
H277 C269 0.930 . S
H278 C292 0.929 . S
H279 C259 0.931 . S
H280 C265 0.931 . S
H281 C266 0.931 . S
H282 C287 0.931 . S
H283 C262 0.929 . S
H284 C295 0.930 . S
N285 Eu256 2.600 . S
N285 C286 1.365 . S
N285 C289 1.319 . S
C286 N285 1.365 . S
C286 C288 1.405 . S
C286 C294 1.448 . S
C287 H282 0.931 . S
C287 C289 1.397 . S
C287 C290 1.367 . S
C288 C286 1.405 . S
C288 C290 1.403 . S
C288 C321 1.439 . S
C289 H274 0.930 . S
C289 N285 1.319 . S
C289 C287 1.397 . S
C290 C287 1.367 . S
C290 C288 1.403 . S
C290 H297 0.929 . S
N291 Eu256 2.562 . S
N291 C292 1.325 . S
N291 C294 1.351 . S
C292 H278 0.929 . S
C292 N291 1.325 . S
C292 C296 1.416 1_565 S
C293 C294 1.430 . S
C293 C295 1.404 1_565 S
C293 C322 1.387 . S
C294 C286 1.448 . S
C294 N291 1.351 . S
C294 C293 1.430 . S
C295 H284 0.930 . S
C295 C293 1.404 1_545 S
C295 C296 1.366 . S
C296 H275 0.930 . S
C296 C292 1.416 1_545 S
C296 C295 1.366 . S
H297 C290 0.929 . S
H298 C321 0.931 . S
H299 C322 0.931 . S
O300 Eu256 2.462 . S
O300 C320 1.252 . S
O301 Eu256 2.373 . S
O301 C312 1.249 . S
O302 Eu267 2.335 1_455 S
O302 C312 1.264 . S
O303 Eu256 2.432 . S
O303 C320 1.268 . S
O304 Eu256 2.308 . S
O304 C319 1.235 1_455 S
O305 Eu267 2.372 . S
O305 C319 1.257 . S
O306 Eu267 2.462 . S
O306 C331 1.252 . S
O307 Eu267 2.373 . S
O307 C323 1.249 . S
O308 Eu256 2.339 . S
O308 C323 1.258 1_455 S
O309 Eu267 2.432 . S
O309 C331 1.268 . S
O310 Eu267 2.291 1_455 S
O310 C330 1.255 . S
O311 Eu256 2.372 . S
O311 C330 1.257 . S
C312 O301 1.249 . S
C312 O302 1.264 . S
C313 C316 1.382 . S
C313 C318 1.390 . S
C313 C320 1.506 . S
C314 C315 1.398 . S
C314 C318 1.392 . S
C315 C314 1.398 . S
C315 C317 1.372 . S
C315 H332 0.931 . S
C316 C313 1.382 . S
C316 C317 1.390 . S
C316 H333 0.931 . S
C317 C315 1.372 . S
C317 C316 1.390 . S
C317 H334 0.929 . S
C318 C313 1.390 . S
C318 C314 1.392 . S
C318 H335 0.930 . S
C319 O304 1.235 1_655 S
C319 O305 1.257 . S
C320 Eu256 2.787 . S
C320 O300 1.252 . S
C320 O303 1.268 . S
C320 C313 1.506 . S
C321 C288 1.439 . S
C321 H298 0.931 . S
C321 C322 1.374 . S
C322 C293 1.387 . S
C322 H299 0.931 . S
C322 C321 1.374 . S
C323 O307 1.249 . S
C323 O308 1.258 1_655 S
C324 C327 1.382 . S
C324 C328 1.390 . S
C324 C331 1.506 . S
C325 C326 1.398 . S
C325 C328 1.392 . S
C326 C325 1.398 . S
C326 C329 1.372 . S
C326 H336 0.931 . S
C327 C324 1.382 . S
C327 C329 1.390 . S
C327 H337 0.931 . S
C328 C324 1.390 . S
C328 C325 1.392 . S
C328 H338 0.930 . S
C329 C326 1.372 . S
C329 C327 1.390 . S
C329 H339 0.929 . S
C330 O310 1.255 . S
C330 O311 1.257 . S
C331 Eu267 2.787 . S
C331 O306 1.252 . S
C331 O309 1.268 . S
C331 C324 1.506 . S
H332 C315 0.931 . S
H333 C316 0.931 . S
H334 C317 0.929 . S
H335 C318 0.930 . S
H336 C326 0.931 . S
H337 C327 0.931 . S
H338 C328 0.930 . S
H339 C329 0.929 . S
Eu340 N369 2.600 . S
Eu340 N375 2.562 . S
Eu340 O384 2.462 . S
Eu340 O385 2.373 . S
Eu340 O387 2.432 . S
Eu340 O388 2.291 . S
Eu340 O392 2.335 . S
Eu340 O395 2.372 . S
Eu340 C404 2.787 . S
C341 N342 1.365 . S
C341 C344 1.405 . S
C341 C348 1.448 . S
N342 C341 1.365 . S
N342 C345 1.319 . S
N342 Eu351 2.600 . S
C343 C345 1.397 . S
C343 C346 1.367 . S
C343 H363 0.931 . S
C344 C341 1.405 . S
C344 C346 1.403 . S
C344 C350 1.439 . S
C345 N342 1.319 . S
C345 C343 1.397 . S
C345 H356 0.930 . S
C346 C343 1.367 . S
C346 C344 1.403 . S
C346 H367 0.929 . S
C347 C348 1.430 . S
C347 C349 1.387 . S
C347 C353 1.404 . S
C348 C341 1.448 . S
C348 C347 1.430 . S
C348 N352 1.351 . S
C349 C347 1.387 . S
C349 C350 1.374 . S
C349 H364 0.931 . S
C350 C344 1.439 . S
C350 C349 1.374 . S
C350 H365 0.931 . S
Eu351 N342 2.600 . S
Eu351 N352 2.562 . S
Eu351 O386 2.335 . S
Eu351 O389 2.372 . S
Eu351 O390 2.462 . S
Eu351 O391 2.373 . S
Eu351 O393 2.432 . S
Eu351 O394 2.291 . S
Eu351 C415 2.787 . S
N352 C348 1.351 . S
N352 Eu351 2.562 . S
N352 C354 1.325 . S
C353 C347 1.404 . S
C353 C355 1.366 . S
C353 H361 0.930 . S
C354 N352 1.325 . S
C354 C355 1.416 . S
C354 H360 0.929 . S
C355 C353 1.366 . S
C355 C354 1.416 . S
C355 H357 0.930 . S
H356 C345 0.930 . S
H357 C355 0.930 . S
H358 C373 0.930 . S
H359 C380 0.930 . S
H360 C354 0.929 . S
H361 C353 0.930 . S
H362 C376 0.929 . S
H363 C343 0.931 . S
H364 C349 0.931 . S
H365 C350 0.931 . S
H366 C371 0.931 . S
H367 C346 0.929 . S
H368 C379 0.930 . S
N369 Eu340 2.600 . S
N369 C370 1.365 . S
N369 C373 1.319 . S
C370 N369 1.365 . S
C370 C372 1.405 . S
C370 C378 1.448 . S
C371 H366 0.931 . S
C371 C373 1.397 . S
C371 C374 1.367 . S
C372 C370 1.405 . S
C372 C374 1.403 . S
C372 C405 1.439 . S
C373 H358 0.930 . S
C373 N369 1.319 . S
C373 C371 1.397 . S
C374 C371 1.367 . S
C374 C372 1.403 . S
C374 H381 0.929 . S
N375 Eu340 2.562 . S
N375 C376 1.325 . S
N375 C378 1.351 . S
C376 H362 0.929 . S
C376 N375 1.325 . S
C376 C380 1.416 . S
C377 C378 1.430 . S
C377 C379 1.404 . S
C377 C406 1.387 . S
C378 C370 1.448 . S
C378 N375 1.351 . S
C378 C377 1.430 . S
C379 H368 0.930 . S
C379 C377 1.404 . S
C379 C380 1.366 . S
C380 H359 0.930 . S
C380 C376 1.416 . S
C380 C379 1.366 . S
H381 C374 0.929 . S
H382 C405 0.931 . S
H383 C406 0.931 . S
O384 Eu340 2.462 . S
O384 C404 1.252 . S
O385 Eu340 2.373 . S
O385 C396 1.249 . S
O386 Eu351 2.335 . S
O386 C396 1.264 . S
O387 Eu340 2.432 . S
O387 C404 1.268 . S
O388 Eu340 2.291 . S
O388 C403 1.255 . S
O389 Eu351 2.372 . S
O389 C403 1.257 . S
O390 Eu351 2.462 . S
O390 C415 1.252 . S
O391 Eu351 2.373 . S
O391 C407 1.249 . S
O392 Eu340 2.335 . S
O392 C407 1.264 . S
O393 Eu351 2.432 . S
O393 C415 1.268 . S
O394 Eu351 2.291 . S
O394 C414 1.255 . S
O395 Eu340 2.372 . S
O395 C414 1.257 . S
C396 O385 1.249 . S
C396 O386 1.264 . S
C397 C400 1.382 . S
C397 C402 1.390 . S
C397 C404 1.506 . S
C398 C399 1.398 . S
C398 C402 1.392 . S
C399 C398 1.398 . S
C399 C401 1.372 . S
C399 H416 0.931 . S
C400 C397 1.382 . S
C400 C401 1.390 . S
C400 H417 0.931 . S
C401 C399 1.372 . S
C401 C400 1.390 . S
C401 H418 0.929 . S
C402 C397 1.390 . S
C402 C398 1.392 . S
C402 H419 0.930 . S
C403 O388 1.255 . S
C403 O389 1.257 . S
C404 Eu340 2.787 . S
C404 O384 1.252 . S
C404 O387 1.268 . S
C404 C397 1.506 . S
C405 C372 1.439 . S
C405 H382 0.931 . S
C405 C406 1.374 . S
C406 C377 1.387 . S
C406 H383 0.931 . S
C406 C405 1.374 . S
C407 O391 1.249 . S
C407 O392 1.264 . S
C408 C411 1.382 . S
C408 C412 1.390 . S
C408 C415 1.506 . S
C409 C410 1.398 . S
C409 C412 1.392 . S
C410 C409 1.398 . S
C410 C413 1.372 . S
C410 H420 0.931 . S
C411 C408 1.382 . S
C411 C413 1.390 . S
C411 H421 0.931 . S
C412 C408 1.390 . S
C412 C409 1.392 . S
C412 H422 0.930 . S
C413 C410 1.372 . S
C413 C411 1.390 . S
C413 H423 0.929 . S
C414 O394 1.255 . S
C414 O395 1.257 . S
C415 Eu351 2.787 . S
C415 O390 1.252 . S
C415 O393 1.268 . S
C415 C408 1.506 . S
H416 C399 0.931 . S
H417 C400 0.931 . S
H418 C401 0.929 . S
H419 C402 0.930 . S
H420 C410 0.931 . S
H421 C411 0.931 . S
H422 C412 0.930 . S
H423 C413 0.929 . S
C424 C425 1.391 . S
C424 C426 1.394 . S
C424 H440 0.931 . S
C425 C424 1.391 . S
C425 C429 1.376 . S
C426 C424 1.394 . S
C426 C427 1.369 . S
C426 C430 1.531 . S
C427 C426 1.369 . S
C427 C428 1.410 . S
C427 C435 1.503 . S
C428 C427 1.410 . S
C428 C429 1.392 . S
C428 C431 1.511 . S
C429 C425 1.376 . S
C429 C428 1.392 . S
C429 H441 0.929 . S
C430 C426 1.531 . S
C430 H442 0.960 . S
C430 H443 0.962 . S
C430 H444 0.960 . S
C431 C428 1.511 . S
C431 H445 0.961 . S
C431 H446 0.961 . S
C431 H447 0.961 . S
C432 C433 1.370 . S
C432 C434 1.363 1_545 S
C432 H448 0.931 1_545 S
C433 C432 1.370 . S
C433 C437 1.408 . S
C434 C432 1.363 1_565 S
C434 C435 1.370 . S
C434 C438 1.524 . S
C435 C427 1.503 . S
C435 C434 1.370 . S
C435 C436 1.403 1_565 S
C436 C435 1.403 1_545 S
C436 C437 1.404 . S
C436 C439 1.539 . S
C437 C433 1.408 . S
C437 C436 1.404 . S
C437 H449 0.930 . S
C438 C434 1.524 . S
C438 H450 0.956 . S
C438 H451 0.961 . S
C438 H452 0.961 . S
C439 C436 1.539 . S
C439 H453 0.958 . S
C439 H454 0.961 . S
C439 H455 0.960 . S
H440 C424 0.931 . S
H441 C429 0.929 . S
H442 C430 0.960 . S
H443 C430 0.962 . S
H444 C430 0.960 . S
H445 C431 0.961 . S
H446 C431 0.961 . S
H447 C431 0.961 . S
H448 C432 0.931 1_565 S
H449 C437 0.930 . S
H450 C438 0.956 . S
H451 C438 0.961 . S
H452 C438 0.961 . S
H453 C439 0.958 . S
H454 C439 0.961 . S
H455 C439 0.960 . S
C456 C457 1.391 . S
C456 C458 1.394 . S
C456 H472 0.931 . S
C457 C456 1.391 . S
C457 C461 1.376 . S
C458 C456 1.394 . S
C458 C459 1.369 . S
C458 C462 1.531 . S
C459 C458 1.369 . S
C459 C460 1.410 . S
C459 C467 1.503 . S
C460 C459 1.410 . S
C460 C461 1.392 . S
C460 C463 1.511 . S
C461 C457 1.376 . S
C461 C460 1.392 . S
C461 H473 0.929 . S
C462 C458 1.531 . S
C462 H474 0.960 . S
C462 H475 0.962 . S
C462 H476 0.960 . S
C463 C460 1.511 . S
C463 H477 0.961 . S
C463 H478 0.961 . S
C463 H479 0.961 . S
C464 C465 1.370 . S
C464 C466 1.363 . S
C464 H480 0.931 . S
C465 C464 1.370 . S
C465 C469 1.408 . S
C466 C464 1.363 . S
C466 C467 1.370 . S
C466 C470 1.524 . S
C467 C459 1.503 . S
C467 C466 1.370 . S
C467 C468 1.403 . S
C468 C467 1.403 . S
C468 C469 1.404 . S
C468 C471 1.539 . S
C469 C465 1.408 . S
C469 C468 1.404 . S
C469 H481 0.930 . S
C470 C466 1.524 . S
C470 H482 0.956 . S
C470 H483 0.961 . S
C470 H484 0.961 . S
C471 C468 1.539 . S
C471 H485 0.958 . S
C471 H486 0.961 . S
C471 H487 0.960 . S
H472 C456 0.931 . S
H473 C461 0.929 . S
H474 C462 0.960 . S
H475 C462 0.962 . S
H476 C462 0.960 . S
H477 C463 0.961 . S
H478 C463 0.961 . S
H479 C463 0.961 . S
H480 C464 0.931 . S
H481 C469 0.930 . S
H482 C470 0.956 . S
H483 C470 0.961 . S
H484 C470 0.961 . S
H485 C471 0.958 . S
H486 C471 0.961 . S
H487 C471 0.960 . S
C488 C489 1.391 . S
C488 C490 1.394 . S
C488 H504 0.931 . S
C489 C488 1.391 . S
C489 C493 1.376 . S
C490 C488 1.394 . S
C490 C491 1.369 . S
C490 C494 1.531 . S
C491 C490 1.369 . S
C491 C492 1.410 . S
C491 C499 1.503 . S
C492 C491 1.410 . S
C492 C493 1.392 . S
C492 C495 1.511 . S
C493 C489 1.376 . S
C493 C492 1.392 . S
C493 H505 0.929 . S
C494 C490 1.531 . S
C494 H506 0.960 . S
C494 H507 0.962 . S
C494 H508 0.960 . S
C495 C492 1.511 . S
C495 H509 0.961 . S
C495 H510 0.961 . S
C495 H511 0.961 . S
C496 C497 1.370 . S
C496 C498 1.363 . S
C496 H512 0.931 . S
C497 C496 1.370 . S
C497 C501 1.408 . S
C498 C496 1.363 . S
C498 C499 1.370 . S
C498 C502 1.524 . S
C499 C491 1.503 . S
C499 C498 1.370 . S
C499 C500 1.403 . S
C500 C499 1.403 . S
C500 C501 1.404 . S
C500 C503 1.539 . S
C501 C497 1.408 . S
C501 C500 1.404 . S
C501 H513 0.930 . S
C502 C498 1.524 . S
C502 H514 0.956 . S
C502 H515 0.961 . S
C502 H516 0.961 . S
C503 C500 1.539 . S
C503 H517 0.958 . S
C503 H518 0.961 . S
C503 H519 0.960 . S
H504 C488 0.931 . S
H505 C493 0.929 . S
H506 C494 0.960 . S
H507 C494 0.962 . S
H508 C494 0.960 . S
H509 C495 0.961 . S
H510 C495 0.961 . S
H511 C495 0.961 . S
H512 C496 0.931 . S
H513 C501 0.930 . S
H514 C502 0.956 . S
H515 C502 0.961 . S
H516 C502 0.961 . S
H517 C503 0.958 . S
H518 C503 0.961 . S
H519 C503 0.960 . S
C520 C521 1.391 . S
C520 C522 1.394 . S
C520 H536 0.931 . S
C521 C520 1.391 . S
C521 C525 1.376 . S
C522 C520 1.394 . S
C522 C523 1.369 . S
C522 C526 1.531 . S
C523 C522 1.369 . S
C523 C524 1.410 . S
C523 C531 1.503 . S
C524 C523 1.410 . S
C524 C525 1.392 . S
C524 C527 1.511 . S
C525 C521 1.376 . S
C525 C524 1.392 . S
C525 H537 0.929 . S
C526 C522 1.531 . S
C526 H538 0.960 . S
C526 H539 0.962 . S
C526 H540 0.960 . S
C527 C524 1.511 . S
C527 H541 0.961 . S
C527 H542 0.961 1_565 S
C527 H543 0.961 . S
C528 C529 1.370 . S
C528 C530 1.363 . S
C528 H544 0.931 . S
C529 C528 1.370 . S
C529 C533 1.408 . S
C530 C528 1.363 . S
C530 C531 1.370 1_545 S
C530 C534 1.524 . S
C531 C523 1.503 . S
C531 C530 1.370 1_565 S
C531 C532 1.403 . S
C532 C531 1.403 . S
C532 C533 1.404 1_565 S
C532 C535 1.539 . S
C533 C529 1.408 . S
C533 C532 1.404 1_545 S
C533 H545 0.930 . S
C534 C530 1.524 . S
C534 H546 0.956 . S
C534 H547 0.961 . S
C534 H548 0.961 . S
C535 C532 1.539 . S
C535 H549 0.958 . S
C535 H550 0.961 1_655 S
C535 H551 0.960 . S
H536 C520 0.931 . S
H537 C525 0.929 . S
H538 C526 0.960 . S
H539 C526 0.962 . S
H540 C526 0.960 . S
H541 C527 0.961 . S
H542 C527 0.961 1_545 S
H543 C527 0.961 . S
H544 C528 0.931 . S
H545 C533 0.930 . S
H546 C534 0.956 . S
H547 C534 0.961 . S
H548 C534 0.961 . S
H549 C535 0.958 . S
H550 C535 0.961 1_455 S
H551 C535 0.960 . S
C552 C553 1.391 . S
C552 C554 1.394 . S
C552 H568 0.931 . S
C553 C552 1.391 . S
C553 C557 1.376 . S
C554 C552 1.394 . S
C554 C555 1.369 . S
C554 C558 1.531 . S
C555 C554 1.369 . S
C555 C556 1.410 . S
C555 C563 1.503 . S
C556 C555 1.410 . S
C556 C557 1.392 . S
C556 C559 1.511 1_545 S
C557 C553 1.376 . S
C557 C556 1.392 . S
C557 H569 0.929 . S
C558 C554 1.531 . S
C558 H570 0.960 . S
C558 H571 0.962 . S
C558 H572 0.960 . S
C559 C556 1.511 1_565 S
C559 H573 0.961 . S
C559 H574 0.961 . S
C559 H575 0.961 . S
C560 C561 1.370 . S
C560 C562 1.363 1_565 S
C560 H576 0.931 . S
C561 C560 1.370 . S
C561 C565 1.408 . S
C562 C560 1.363 1_545 S
C562 C563 1.370 . S
C562 C566 1.524 . S
C563 C555 1.503 . S
C563 C562 1.370 . S
C563 C564 1.403 1_545 S
C564 C563 1.403 1_565 S
C564 C565 1.404 . S
C564 C567 1.539 1_565 S
C565 C561 1.408 . S
C565 C564 1.404 . S
C565 H577 0.930 . S
C566 C562 1.524 . S
C566 H578 0.956 . S
C566 H579 0.961 . S
C566 H580 0.961 . S
C567 C564 1.539 1_545 S
C567 H581 0.958 . S
C567 H582 0.961 1_545 S
C567 H583 0.960 . S
H568 C552 0.931 . S
H569 C557 0.929 . S
H570 C558 0.960 . S
H571 C558 0.962 . S
H572 C558 0.960 . S
H573 C559 0.961 . S
H574 C559 0.961 . S
H575 C559 0.961 . S
H576 C560 0.931 . S
H577 C565 0.930 . S
H578 C566 0.956 . S
H579 C566 0.961 . S
H580 C566 0.961 . S
H581 C567 0.958 . S
H582 C567 0.961 1_565 S
H583 C567 0.960 . S
C584 C585 1.391 . S
C584 C586 1.394 . S
C584 H600 0.931 . S
C585 C584 1.391 . S
C585 C589 1.376 . S
C586 C584 1.394 . S
C586 C587 1.369 . S
C586 C590 1.531 . S
C587 C586 1.369 . S
C587 C588 1.410 . S
C587 C595 1.503 . S
C588 C587 1.410 . S
C588 C589 1.392 . S
C588 C591 1.511 . S
C589 C585 1.376 . S
C589 C588 1.392 . S
C589 H601 0.929 . S
C590 C586 1.531 . S
C590 H602 0.960 . S
C590 H603 0.962 . S
C590 H604 0.960 . S
C591 C588 1.511 . S
C591 H605 0.961 . S
C591 H606 0.961 . S
C591 H607 0.961 . S
C592 C593 1.370 . S
C592 C594 1.363 . S
C592 H608 0.931 . S
C593 C592 1.370 . S
C593 C597 1.408 . S
C594 C592 1.363 . S
C594 C595 1.370 . S
C594 C598 1.524 . S
C595 C587 1.503 . S
C595 C594 1.370 . S
C595 C596 1.403 . S
C596 C595 1.403 . S
C596 C597 1.404 . S
C596 C599 1.539 . S
C597 C593 1.408 . S
C597 C596 1.404 . S
C597 H609 0.930 . S
C598 C594 1.524 . S
C598 H610 0.956 . S
C598 H611 0.961 . S
C598 H612 0.961 . S
C599 C596 1.539 . S
C599 H613 0.958 . S
C599 H614 0.961 . S
C599 H615 0.960 . S
H600 C584 0.931 . S
H601 C589 0.929 . S
H602 C590 0.960 . S
H603 C590 0.962 . S
H604 C590 0.960 . S
H605 C591 0.961 . S
H606 C591 0.961 . S
H607 C591 0.961 . S
H608 C592 0.931 . S
H609 C597 0.930 . S
H610 C598 0.956 . S
H611 C598 0.961 . S
H612 C598 0.961 . S
H613 C599 0.958 . S
H614 C599 0.961 . S
H615 C599 0.960 . S
C616 C617 1.391 . S
C616 C618 1.394 . S
C616 H632 0.931 . S
C617 C616 1.391 . S
C617 C621 1.376 . S
C618 C616 1.394 . S
C618 C619 1.369 . S
C618 C622 1.531 . S
C619 C618 1.369 . S
C619 C620 1.410 . S
C619 C627 1.503 . S
C620 C619 1.410 . S
C620 C621 1.392 . S
C620 C623 1.511 . S
C621 C617 1.376 . S
C621 C620 1.392 . S
C621 H633 0.929 . S
C622 C618 1.531 . S
C622 H634 0.960 . S
C622 H635 0.962 . S
C622 H636 0.960 . S
C623 C620 1.511 . S
C623 H637 0.961 . S
C623 H638 0.961 . S
C623 H639 0.961 . S
C624 C625 1.370 . S
C624 C626 1.363 . S
C624 H640 0.931 . S
C625 C624 1.370 . S
C625 C629 1.408 . S
C626 C624 1.363 . S
C626 C627 1.370 . S
C626 C630 1.524 . S
C627 C619 1.503 . S
C627 C626 1.370 . S
C627 C628 1.403 . S
C628 C627 1.403 . S
C628 C629 1.404 . S
C628 C631 1.539 . S
C629 C625 1.408 . S
C629 C628 1.404 . S
C629 H641 0.930 . S
C630 C626 1.524 . S
C630 H642 0.956 . S
C630 H643 0.961 . S
C630 H644 0.961 . S
C631 C628 1.539 . S
C631 H645 0.958 . S
C631 H646 0.961 . S
C631 H647 0.960 . S
H632 C616 0.931 . S
H633 C621 0.929 . S
H634 C622 0.960 . S
H635 C622 0.962 . S
H636 C622 0.960 . S
H637 C623 0.961 . S
H638 C623 0.961 . S
H639 C623 0.961 . S
H640 C624 0.931 . S
H641 C629 0.930 . S
H642 C630 0.956 . S
H643 C630 0.961 . S
H644 C630 0.961 . S
H645 C631 0.958 . S
H646 C631 0.961 . S
H647 C631 0.960 . S
C648 C649 1.391 . S
C648 C650 1.394 . S
C648 H664 0.931 . S
C649 C648 1.391 . S
C649 C653 1.376 . S
C650 C648 1.394 . S
C650 C651 1.369 . S
C650 C654 1.537 . S
C651 C650 1.369 . S
C651 C652 1.410 . S
C651 C659 1.503 . S
C652 C651 1.410 . S
C652 C653 1.392 . S
C652 C655 1.511 . S
C653 C649 1.376 . S
C653 C652 1.392 . S
C653 H665 0.929 . S
C654 C650 1.537 . S
C654 H666 0.953 1_545 S
C654 H667 0.964 . S
C654 H668 0.959 1_545 S
C655 C652 1.511 . S
C655 H669 0.961 . S
C655 H670 0.961 . S
C655 H671 0.961 . S
C656 C657 1.370 . S
C656 C658 1.363 1_565 S
C656 H672 0.936 . S
C657 C656 1.370 . S
C657 C661 1.408 . S
C658 C656 1.363 1_545 S
C658 C659 1.370 . S
C658 C662 1.524 . S
C659 C651 1.503 . S
C659 C658 1.370 . S
C659 C660 1.403 1_545 S
C660 C659 1.403 1_565 S
C660 C661 1.404 . S
C660 C663 1.539 . S
C661 C657 1.408 . S
C661 C660 1.404 . S
C661 H673 0.930 . S
C662 C658 1.524 . S
C662 H674 0.956 . S
C662 H675 0.961 . S
C662 H676 0.961 . S
C663 C660 1.539 . S
C663 H677 0.958 . S
C663 H678 0.961 . S
C663 H679 0.960 . S
H664 C648 0.931 . S
H665 C653 0.929 . S
H666 C654 0.953 1_565 S
H667 C654 0.964 . S
H668 C654 0.959 1_565 S
H669 C655 0.961 . S
H670 C655 0.961 . S
H671 C655 0.961 . S
H672 C656 0.936 . S
H673 C661 0.930 . S
H674 C662 0.956 . S
H675 C662 0.961 . S
H676 C662 0.961 . S
H677 C663 0.958 . S
H678 C663 0.961 . S
H679 C663 0.960 . S
C680 C681 1.391 . S
C680 C682 1.394 1_556 S
C680 H696 0.931 . S
C681 C680 1.391 . S
C681 C685 1.376 . S
C682 C680 1.394 1_554 S
C682 C683 1.369 . S
C682 C686 1.531 . S
C683 C682 1.369 . S
C683 C684 1.410 1_554 S
C683 C691 1.503 . S
C684 C683 1.410 1_556 S
C684 C685 1.392 . S
C684 C687 1.511 . S
C685 C681 1.376 . S
C685 C684 1.392 . S
C685 H697 0.929 . S
C686 C682 1.531 . S
C686 H698 0.960 . S
C686 H699 0.962 . S
C686 H700 0.960 . S
C687 C684 1.511 . S
C687 H701 0.961 . S
C687 H702 0.961 1_556 S
C687 H703 0.961 . S
C688 C689 1.370 . S
C688 C690 1.363 . S
C688 H704 0.931 . S
C689 C688 1.370 . S
C689 C693 1.408 . S
C690 C688 1.363 . S
C690 C691 1.370 . S
C690 C694 1.524 . S
C691 C683 1.503 . S
C691 C690 1.370 . S
C691 C692 1.403 . S
C692 C691 1.403 . S
C692 C693 1.404 . S
C692 C695 1.539 . S
C693 C689 1.408 . S
C693 C692 1.404 . S
C693 H705 0.930 . S
C694 C690 1.524 . S
C694 H706 0.956 . S
C694 H707 0.961 . S
C694 H708 0.961 . S
C695 C692 1.539 . S
C695 H709 0.958 . S
C695 H710 0.961 . S
C695 H711 0.960 . S
H696 C680 0.931 . S
H697 C685 0.929 . S
H698 C686 0.960 . S
H699 C686 0.962 . S
H700 C686 0.960 . S
H701 C687 0.961 . S
H702 C687 0.961 1_554 S
H703 C687 0.961 . S
H704 C688 0.931 . S
H705 C693 0.930 . S
H706 C694 0.956 . S
H707 C694 0.961 . S
H708 C694 0.961 . S
H709 C695 0.958 . S
H710 C695 0.961 . S
H711 C695 0.960 . S
C712 C713 1.391 . S
C712 C714 1.394 . S
C712 H728 0.931 . S
C713 C712 1.391 . S
C713 C717 1.376 . S
C714 C712 1.394 . S
C714 C715 1.369 . S
C714 C718 1.531 . S
C715 C714 1.369 . S
C715 C716 1.410 . S
C715 C723 1.503 . S
C716 C715 1.410 . S
C716 C717 1.392 . S
C716 C719 1.511 . S
C717 C713 1.376 . S
C717 C716 1.392 . S
C717 H729 0.929 . S
C718 C714 1.531 . S
C718 H730 0.960 . S
C718 H731 0.962 . S
C718 H732 0.960 . S
C719 C716 1.511 . S
C719 H733 0.961 . S
C719 H734 0.961 . S
C719 H735 0.961 . S
C720 C721 1.370 . S
C720 C722 1.363 . S
C720 H736 0.931 . S
C721 C720 1.370 . S
C721 C725 1.408 . S
C722 C720 1.363 . S
C722 C723 1.370 . S
C722 C726 1.524 . S
C723 C715 1.503 . S
C723 C722 1.370 . S
C723 C724 1.403 . S
C724 C723 1.403 . S
C724 C725 1.404 . S
C724 C727 1.539 . S
C725 C721 1.408 . S
C725 C724 1.404 . S
C725 H737 0.930 . S
C726 C722 1.524 . S
C726 H738 0.956 . S
C726 H739 0.961 . S
C726 H740 0.961 . S
C727 C724 1.539 . S
C727 H741 0.958 . S
C727 H742 0.961 . S
C727 H743 0.960 . S
H728 C712 0.931 . S
H729 C717 0.929 . S
H730 C718 0.960 . S
H731 C718 0.962 . S
H732 C718 0.960 . S
H733 C719 0.961 . S
H734 C719 0.961 . S
H735 C719 0.961 . S
H736 C720 0.931 . S
H737 C725 0.930 . S
H738 C726 0.956 . S
H739 C726 0.961 . S
H740 C726 0.961 . S
H741 C727 0.958 . S
H742 C727 0.961 . S
H743 C727 0.960 . S
C744 C745 1.391 . S
C744 C746 1.394 . S
C744 H760 0.931 . S
C745 C744 1.391 . S
C745 C749 1.376 . S
C746 C744 1.394 . S
C746 C747 1.369 1_554 S
C746 C750 1.531 . S
C747 C746 1.369 1_556 S
C747 C748 1.410 . S
C747 C755 1.503 . S
C748 C747 1.410 . S
C748 C749 1.392 1_556 S
C748 C751 1.511 . S
C749 C745 1.376 . S
C749 C748 1.392 1_554 S
C749 H761 0.929 . S
C750 C746 1.531 . S
C750 H762 0.960 1_554 S
C750 H763 0.962 . S
C750 H764 0.960 . S
C751 C748 1.511 . S
C751 H765 0.961 . S
C751 H766 0.961 . S
C751 H767 0.961 . S
C752 C753 1.370 . S
C752 C754 1.363 . S
C752 H768 0.931 . S
C753 C752 1.370 . S
C753 C757 1.408 . S
C754 C752 1.363 . S
C754 C755 1.370 . S
C754 C758 1.524 . S
C755 C747 1.503 . S
C755 C754 1.370 . S
C755 C756 1.403 . S
C756 C755 1.403 . S
C756 C757 1.404 . S
C756 C759 1.539 . S
C757 C753 1.408 . S
C757 C756 1.404 . S
C757 H769 0.930 . S
C758 C754 1.524 . S
C758 H770 0.956 . S
C758 H771 0.961 . S
C758 H772 0.961 . S
C759 C756 1.539 . S
C759 H773 0.958 . S
C759 H774 0.961 . S
C759 H775 0.960 . S
H760 C744 0.931 . S
H761 C749 0.929 . S
H762 C750 0.960 1_556 S
H763 C750 0.962 . S
H764 C750 0.960 . S
H765 C751 0.961 . S
H766 C751 0.961 . S
H767 C751 0.961 . S
H768 C752 0.931 . S
H769 C757 0.930 . S
H770 C758 0.956 . S
H771 C758 0.961 . S
H772 C758 0.961 . S
H773 C759 0.958 . S
H774 C759 0.961 . S
H775 C759 0.960 . S
C776 C777 1.391 . S
C776 C778 1.394 . S
C776 H792 0.931 . S
C777 C776 1.391 . S
C777 C781 1.376 . S
C778 C776 1.394 . S
C778 C779 1.369 . S
C778 C782 1.531 . S
C779 C778 1.369 . S
C779 C780 1.410 . S
C779 C787 1.503 . S
C780 C779 1.410 . S
C780 C781 1.392 . S
C780 C783 1.511 . S
C781 C777 1.376 . S
C781 C780 1.392 . S
C781 H793 0.929 . S
C782 C778 1.531 . S
C782 H794 0.960 . S
C782 H795 0.962 . S
C782 H796 0.960 . S
C783 C780 1.511 . S
C783 H797 0.961 . S
C783 H798 0.961 . S
C783 H799 0.961 . S
C784 C785 1.370 . S
C784 C786 1.363 . S
C784 H800 0.931 . S
C785 C784 1.370 . S
C785 C789 1.408 . S
C786 C784 1.363 . S
C786 C787 1.370 . S
C786 C790 1.524 . S
C787 C779 1.503 . S
C787 C786 1.370 . S
C787 C788 1.403 . S
C788 C787 1.403 . S
C788 C789 1.404 . S
C788 C791 1.539 . S
C789 C785 1.408 . S
C789 C788 1.404 . S
C789 H801 0.930 . S
C790 C786 1.524 . S
C790 H802 0.956 . S
C790 H803 0.961 . S
C790 H804 0.961 . S
C791 C788 1.539 . S
C791 H805 0.958 . S
C791 H806 0.961 . S
C791 H807 0.960 . S
H792 C776 0.931 . S
H793 C781 0.929 . S
H794 C782 0.960 . S
H795 C782 0.962 . S
H796 C782 0.960 . S
H797 C783 0.961 . S
H798 C783 0.961 . S
H799 C783 0.961 . S
H800 C784 0.931 . S
H801 C789 0.930 . S
H802 C790 0.956 . S
H803 C790 0.961 . S
H804 C790 0.961 . S
H805 C791 0.958 . S
H806 C791 0.961 . S
H807 C791 0.960 . S
C808 C809 1.391 . S
C808 C810 1.394 1_554 S
C808 H824 0.931 . S
C809 C808 1.391 . S
C809 C813 1.376 . S
C810 C808 1.394 1_556 S
C810 C811 1.369 . S
C810 C814 1.531 . S
C811 C810 1.369 . S
C811 C812 1.410 1_556 S
C811 C819 1.503 . S
C812 C811 1.410 1_554 S
C812 C813 1.392 . S
C812 C815 1.511 . S
C813 C809 1.376 . S
C813 C812 1.392 . S
C813 H825 0.929 . S
C814 C810 1.531 . S
C814 H826 0.960 . S
C814 H827 0.962 . S
C814 H828 0.960 . S
C815 C812 1.511 . S
C815 H829 0.961 . S
C815 H830 0.961 1_554 S
C815 H831 0.961 . S
C816 C817 1.370 . S
C816 C818 1.363 . S
C816 H832 0.931 . S
C817 C816 1.370 . S
C817 C821 1.408 . S
C818 C816 1.363 . S
C818 C819 1.370 . S
C818 C822 1.524 . S
C819 C811 1.503 . S
C819 C818 1.370 . S
C819 C820 1.403 . S
C820 C819 1.403 . S
C820 C821 1.404 . S
C820 C823 1.539 . S
C821 C817 1.408 . S
C821 C820 1.404 . S
C821 H833 0.930 . S
C822 C818 1.524 . S
C822 H834 0.956 . S
C822 H835 0.961 1_556 S
C822 H836 0.961 . S
C823 C820 1.539 . S
C823 H837 0.958 . S
C823 H838 0.961 . S
C823 H839 0.960 . S
H824 C808 0.931 . S
H825 C813 0.929 . S
H826 C814 0.960 . S
H827 C814 0.962 . S
H828 C814 0.960 . S
H829 C815 0.961 . S
H830 C815 0.961 1_556 S
H831 C815 0.961 . S
H832 C816 0.931 . S
H833 C821 0.930 . S
H834 C822 0.956 . S
H835 C822 0.961 1_554 S
H836 C822 0.961 . S
H837 C823 0.958 . S
H838 C823 0.961 . S
H839 C823 0.960 . S
C840 C841 1.391 . S
C840 C842 1.394 . S
C840 H856 0.931 . S
C841 C840 1.391 . S
C841 C845 1.376 . S
C842 C840 1.394 . S
C842 C843 1.369 . S
C842 C846 1.531 . S
C843 C842 1.369 . S
C843 C844 1.410 . S
C843 C851 1.503 . S
C844 C843 1.410 . S
C844 C845 1.392 . S
C844 C847 1.511 . S
C845 C841 1.376 . S
C845 C844 1.392 . S
C845 H857 0.929 . S
C846 C842 1.531 . S
C846 H858 0.960 . S
C846 H859 0.962 . S
C846 H860 0.960 . S
C847 C844 1.511 . S
C847 H861 0.961 . S
C847 H862 0.961 . S
C847 H863 0.961 . S
C848 C849 1.370 . S
C848 C850 1.363 . S
C848 H864 0.931 . S
C849 C848 1.370 . S
C849 C853 1.408 . S
C850 C848 1.363 . S
C850 C851 1.370 . S
C850 C854 1.524 . S
C851 C843 1.503 . S
C851 C850 1.370 . S
C851 C852 1.403 . S
C852 C851 1.403 . S
C852 C853 1.404 . S
C852 C855 1.539 . S
C853 C849 1.408 . S
C853 C852 1.404 . S
C853 H865 0.930 . S
C854 C850 1.524 . S
C854 H866 0.956 . S
C854 H867 0.961 . S
C854 H868 0.961 . S
C855 C852 1.539 . S
C855 H869 0.958 . S
C855 H870 0.961 . S
C855 H871 0.960 . S
H856 C840 0.931 . S
H857 C845 0.929 . S
H858 C846 0.960 . S
H859 C846 0.962 . S
H860 C846 0.960 . S
H861 C847 0.961 . S
H862 C847 0.961 . S
H863 C847 0.961 . S
H864 C848 0.931 . S
H865 C853 0.930 . S
H866 C854 0.956 . S
H867 C854 0.961 . S
H868 C854 0.961 . S
H869 C855 0.958 . S
H870 C855 0.961 . S
H871 C855 0.960 . S
C872 C873 1.391 . S
C872 C874 1.394 . S
C872 H888 0.931 . S
C873 C872 1.391 . S
C873 C877 1.376 . S
C874 C872 1.394 . S
C874 C875 1.351 1_556 S
C874 C878 1.531 . S
C875 C874 1.351 1_554 S
C875 C876 1.398 1_554 S
C875 C883 1.534 . S
C876 C875 1.398 1_556 S
C876 C877 1.392 . S
C876 C879 1.511 1_556 S
C877 C873 1.376 . S
C877 C876 1.392 . S
C877 H889 0.929 . S
C878 C874 1.531 . S
C878 H890 0.960 1_556 S
C878 H891 0.962 1_556 S
C878 H892 0.960 . S
C879 C876 1.511 1_554 S
C879 H893 0.968 . S
C879 H894 0.961 . S
C879 H895 0.963 . S
C880 C881 1.370 . S
C880 C882 1.363 . S
C880 H896 0.931 . S
C881 C880 1.370 . S
C881 C885 1.408 . S
C882 C880 1.363 . S
C882 C883 1.370 . S
C882 C886 1.524 . S
C883 C875 1.534 . S
C883 C882 1.370 . S
C883 C884 1.403 . S
C884 C883 1.403 . S
C884 C885 1.404 . S
C884 C887 1.539 . S
C885 C881 1.408 . S
C885 C884 1.404 . S
C885 H897 0.930 . S
C886 C882 1.524 . S
C886 H898 0.956 . S
C886 H899 0.961 . S
C886 H900 0.961 . S
C887 C884 1.539 . S
C887 H901 0.958 . S
C887 H902 0.961 . S
C887 H903 0.960 1_554 S
H888 C872 0.931 . S
H889 C877 0.929 . S
H890 C878 0.960 1_554 S
H891 C878 0.962 1_554 S
H892 C878 0.960 . S
H893 C879 0.968 . S
H894 C879 0.961 . S
H895 C879 0.963 . S
H896 C880 0.931 . S
H897 C885 0.930 . S
H898 C886 0.956 . S
H899 C886 0.961 . S
H900 C886 0.961 . S
H901 C887 0.958 . S
H902 C887 0.961 . S
H903 C887 0.960 1_556 S
C904 C905 1.391 . S
C904 C906 1.394 . S
C904 H920 0.931 . S
C905 C904 1.391 . S
C905 C909 1.376 . S
C906 C904 1.394 . S
C906 C907 1.369 . S
C906 C910 1.531 . S
C907 C906 1.369 . S
C907 C908 1.410 . S
C907 C915 1.503 . S
C908 C907 1.410 . S
C908 C909 1.392 . S
C908 C911 1.511 . S
C909 C905 1.376 . S
C909 C908 1.392 . S
C909 H921 0.929 . S
C910 C906 1.531 . S
C910 H922 0.960 . S
C910 H923 0.962 . S
C910 H924 0.960 . S
C911 C908 1.511 . S
C911 H925 0.961 . S
C911 H926 0.961 . S
C911 H927 0.961 . S
C912 C913 1.370 . S
C912 C914 1.363 . S
C912 H928 0.931 . S
C913 C912 1.370 . S
C913 C917 1.408 . S
C914 C912 1.363 . S
C914 C915 1.370 . S
C914 C918 1.524 . S
C915 C907 1.503 . S
C915 C914 1.370 . S
C915 C916 1.403 . S
C916 C915 1.403 . S
C916 C917 1.404 . S
C916 C919 1.539 . S
C917 C913 1.408 . S
C917 C916 1.404 . S
C917 H929 0.930 . S
C918 C914 1.524 . S
C918 H930 0.956 . S
C918 H931 0.961 . S
C918 H932 0.961 . S
C919 C916 1.539 . S
C919 H933 0.958 . S
C919 H934 0.961 . S
C919 H935 0.960 . S
H920 C904 0.931 . S
H921 C909 0.929 . S
H922 C910 0.960 . S
H923 C910 0.962 . S
H924 C910 0.960 . S
H925 C911 0.961 . S
H926 C911 0.961 . S
H927 C911 0.961 . S
H928 C912 0.931 . S
H929 C917 0.930 . S
H930 C918 0.956 . S
H931 C918 0.961 . S
H932 C918 0.961 . S
H933 C919 0.958 . S
H934 C919 0.961 . S
H935 C919 0.960 . S
C936 C937 1.391 . S
C936 C938 1.394 . S
C936 H952 0.931 . S
C937 C936 1.391 . S
C937 C941 1.376 . S
C938 C936 1.394 . S
C938 C939 1.369 . S
C938 C942 1.531 . S
C939 C938 1.369 . S
C939 C940 1.410 . S
C939 C947 1.503 . S
C940 C939 1.410 . S
C940 C941 1.392 . S
C940 C943 1.511 . S
C941 C937 1.376 . S
C941 C940 1.392 . S
C941 H953 0.929 . S
C942 C938 1.531 . S
C942 H954 0.960 . S
C942 H955 0.962 . S
C942 H956 0.960 . S
C943 C940 1.511 . S
C943 H957 0.961 . S
C943 H958 0.961 . S
C943 H959 0.961 . S
C944 C945 1.370 . S
C944 C946 1.363 . S
C944 H960 0.931 . S
C945 C944 1.370 . S
C945 C949 1.408 . S
C946 C944 1.363 . S
C946 C947 1.370 . S
C946 C950 1.524 . S
C947 C939 1.503 . S
C947 C946 1.370 . S
C947 C948 1.403 . S
C948 C947 1.403 . S
C948 C949 1.404 . S
C948 C951 1.539 . S
C949 C945 1.408 . S
C949 C948 1.404 . S
C949 H961 0.930 . S
C950 C946 1.524 . S
C950 H962 0.956 . S
C950 H963 0.961 . S
C950 H964 0.961 . S
C951 C948 1.539 . S
C951 H965 0.958 . S
C951 H966 0.961 . S
C951 H967 0.960 . S
H952 C936 0.931 . S
H953 C941 0.929 . S
H954 C942 0.960 . S
H955 C942 0.962 . S
H956 C942 0.960 . S
H957 C943 0.961 . S
H958 C943 0.961 . S
H959 C943 0.961 . S
H960 C944 0.931 . S
H961 C949 0.930 . S
H962 C950 0.956 . S
H963 C950 0.961 . S
H964 C950 0.961 . S
H965 C951 0.958 . S
H966 C951 0.961 . S
H967 C951 0.960 . S
C968 C969 1.391 . S
C968 C970 1.394 . S
C968 H984 0.931 . S
C969 C968 1.391 . S
C969 C973 1.376 . S
C970 C968 1.394 . S
C970 C971 1.369 . S
C970 C974 1.531 . S
C971 C970 1.369 . S
C971 C972 1.410 . S
C971 C979 1.503 . S
C972 C971 1.410 . S
C972 C973 1.392 . S
C972 C975 1.511 . S
C973 C969 1.376 . S
C973 C972 1.392 . S
C973 H985 0.929 . S
C974 C970 1.531 . S
C974 H986 0.960 . S
C974 H987 0.962 . S
C974 H988 0.960 . S
C975 C972 1.511 . S
C975 H989 0.961 . S
C975 H990 0.961 . S
C975 H991 0.961 . S
C976 C977 1.370 . S
C976 C978 1.363 . S
C976 H992 0.931 . S
C977 C976 1.370 . S
C977 C981 1.408 . S
C978 C976 1.363 . S
C978 C979 1.370 . S
C978 C982 1.524 . S
C979 C971 1.503 . S
C979 C978 1.370 . S
C979 C980 1.403 . S
C980 C979 1.403 . S
C980 C981 1.404 . S
C980 C983 1.539 . S
C981 C977 1.408 . S
C981 C980 1.404 . S
C981 H993 0.930 . S
C982 C978 1.524 . S
C982 H994 0.956 . S
C982 H995 0.961 . S
C982 H996 0.961 . S
C983 C980 1.539 . S
C983 H997 0.958 . S
C983 H998 0.961 . S
C983 H999 0.960 . S
H984 C968 0.931 . S
H985 C973 0.929 . S
H986 C974 0.960 . S
H987 C974 0.962 . S
H988 C974 0.960 . S
H989 C975 0.961 . S
H990 C975 0.961 . S
H991 C975 0.961 . S
H992 C976 0.931 . S
H993 C981 0.930 . S
H994 C982 0.956 . S
H995 C982 0.961 . S
H996 C982 0.961 . S
H997 C983 0.958 . S
H998 C983 0.961 . S
H999 C983 0.960 . S
C1000 C1001 1.391 . S
C1000 C1002 1.394 . S
C1000 H1016 0.931 . S
C1001 C1000 1.391 . S
C1001 C1005 1.376 . S
C1002 C1000 1.394 . S
C1002 C1003 1.369 . S
C1002 C1006 1.531 . S
C1003 C1002 1.369 . S
C1003 C1004 1.410 . S
C1003 C1011 1.503 . S
C1004 C1003 1.410 . S
C1004 C1005 1.392 . S
C1004 C1007 1.511 . S
C1005 C1001 1.376 . S
C1005 C1004 1.392 . S
C1005 H1017 0.929 . S
C1006 C1002 1.531 . S
C1006 H1018 0.960 . S
C1006 H1019 0.962 . S
C1006 H1020 0.960 . S
C1007 C1004 1.511 . S
C1007 H1021 0.961 . S
C1007 H1022 0.961 . S
C1007 H1023 0.961 . S
C1008 C1009 1.370 . S
C1008 C1010 1.363 . S
C1008 H1024 0.931 . S
C1009 C1008 1.370 . S
C1009 C1013 1.408 . S
C1010 C1008 1.363 . S
C1010 C1011 1.370 . S
C1010 C1014 1.524 . S
C1011 C1003 1.503 . S
C1011 C1010 1.370 . S
C1011 C1012 1.403 . S
C1012 C1011 1.403 . S
C1012 C1013 1.404 . S
C1012 C1015 1.539 . S
C1013 C1009 1.408 . S
C1013 C1012 1.404 . S
C1013 H1025 0.930 . S
C1014 C1010 1.524 . S
C1014 H1026 0.956 . S
C1014 H1027 0.961 . S
C1014 H1028 0.961 . S
C1015 C1012 1.539 . S
C1015 H1029 0.958 . S
C1015 H1030 0.961 . S
C1015 H1031 0.960 . S
H1016 C1000 0.931 . S
H1017 C1005 0.929 . S
H1018 C1006 0.960 . S
H1019 C1006 0.962 . S
H1020 C1006 0.960 . S
H1021 C1007 0.961 . S
H1022 C1007 0.961 . S
H1023 C1007 0.961 . S
H1024 C1008 0.931 . S
H1025 C1013 0.930 . S
H1026 C1014 0.956 . S
H1027 C1014 0.961 . S
H1028 C1014 0.961 . S
H1029 C1015 0.958 . S
H1030 C1015 0.961 . S
H1031 C1015 0.960 . S
C1032 C1033 1.391 . S
C1032 C1034 1.394 . S
C1032 H1048 0.931 . S
C1033 C1032 1.391 . S
C1033 C1037 1.376 . S
C1034 C1032 1.394 . S
C1034 C1035 1.369 . S
C1034 C1038 1.531 . S
C1035 C1034 1.369 . S
C1035 C1036 1.410 . S
C1035 C1043 1.503 . S
C1036 C1035 1.410 . S
C1036 C1037 1.392 . S
C1036 C1039 1.511 . S
C1037 C1033 1.376 . S
C1037 C1036 1.392 . S
C1037 H1049 0.929 . S
C1038 C1034 1.531 . S
C1038 H1050 0.960 . S
C1038 H1051 0.962 . S
C1038 H1052 0.960 . S
C1039 C1036 1.511 . S
C1039 H1053 0.961 . S
C1039 H1054 0.961 . S
C1039 H1055 0.961 . S
C1040 C1041 1.370 . S
C1040 C1042 1.363 . S
C1040 H1056 0.931 . S
C1041 C1040 1.370 . S
C1041 C1045 1.408 . S
C1042 C1040 1.363 . S
C1042 C1043 1.370 . S
C1042 C1046 1.524 . S
C1043 C1035 1.503 . S
C1043 C1042 1.370 . S
C1043 C1044 1.403 . S
C1044 C1043 1.403 . S
C1044 C1045 1.404 . S
C1044 C1047 1.539 . S
C1045 C1041 1.408 . S
C1045 C1044 1.404 . S
C1045 H1057 0.930 . S
C1046 C1042 1.524 . S
C1046 H1058 0.956 . S
C1046 H1059 0.961 . S
C1046 H1060 0.961 . S
C1047 C1044 1.539 . S
C1047 H1061 0.958 . S
C1047 H1062 0.961 . S
C1047 H1063 0.960 . S
H1048 C1032 0.931 . S
H1049 C1037 0.929 . S
H1050 C1038 0.960 . S
H1051 C1038 0.962 . S
H1052 C1038 0.960 . S
H1053 C1039 0.961 . S
H1054 C1039 0.961 . S
H1055 C1039 0.961 . S
H1056 C1040 0.931 . S
H1057 C1045 0.930 . S
H1058 C1046 0.956 . S
H1059 C1046 0.961 . S
H1060 C1046 0.961 . S
H1061 C1047 0.958 . S
H1062 C1047 0.961 . S
H1063 C1047 0.960 . S
C1064 C1065 1.391 . S
C1064 C1066 1.394 . S
C1064 H1080 0.931 . S
C1065 C1064 1.391 . S
C1065 C1069 1.376 . S
C1066 C1064 1.394 . S
C1066 C1067 1.369 . S
C1066 C1070 1.531 . S
C1067 C1066 1.369 . S
C1067 C1068 1.410 . S
C1067 C1075 1.503 . S
C1068 C1067 1.410 . S
C1068 C1069 1.392 . S
C1068 C1071 1.511 . S
C1069 C1065 1.376 . S
C1069 C1068 1.392 . S
C1069 H1081 0.929 . S
C1070 C1066 1.531 . S
C1070 H1082 0.960 . S
C1070 H1083 0.962 . S
C1070 H1084 0.960 . S
C1071 C1068 1.511 . S
C1071 H1085 0.961 . S
C1071 H1086 0.961 . S
C1071 H1087 0.961 . S
C1072 C1073 1.370 . S
C1072 C1074 1.363 . S
C1072 H1088 0.931 . S
C1073 C1072 1.370 . S
C1073 C1077 1.408 . S
C1074 C1072 1.363 . S
C1074 C1075 1.370 . S
C1074 C1078 1.524 . S
C1075 C1067 1.503 . S
C1075 C1074 1.370 . S
C1075 C1076 1.403 . S
C1076 C1075 1.403 . S
C1076 C1077 1.404 . S
C1076 C1079 1.539 . S
C1077 C1073 1.408 . S
C1077 C1076 1.404 . S
C1077 H1089 0.930 . S
C1078 C1074 1.524 . S
C1078 H1090 0.956 . S
C1078 H1091 0.961 . S
C1078 H1092 0.961 . S
C1079 C1076 1.539 . S
C1079 H1093 0.958 . S
C1079 H1094 0.961 . S
C1079 H1095 0.960 . S
H1080 C1064 0.931 . S
H1081 C1069 0.929 . S
H1082 C1070 0.960 . S
H1083 C1070 0.962 . S
H1084 C1070 0.960 . S
H1085 C1071 0.961 . S
H1086 C1071 0.961 . S
H1087 C1071 0.961 . S
H1088 C1072 0.931 . S
H1089 C1077 0.930 . S
H1090 C1078 0.956 . S
H1091 C1078 0.961 . S
H1092 C1078 0.961 . S
H1093 C1079 0.958 . S
H1094 C1079 0.961 . S
H1095 C1079 0.960 . S
C1096 C1097 1.391 . S
C1096 C1098 1.394 . S
C1096 H1112 0.931 . S
C1097 C1096 1.391 . S
C1097 C1101 1.376 . S
C1098 C1096 1.394 . S
C1098 C1099 1.369 . S
C1098 C1102 1.531 . S
C1099 C1098 1.369 . S
C1099 C1100 1.410 . S
C1099 C1107 1.503 . S
C1100 C1099 1.410 . S
C1100 C1101 1.392 . S
C1100 C1103 1.511 . S
C1101 C1097 1.376 . S
C1101 C1100 1.392 . S
C1101 H1113 0.929 . S
C1102 C1098 1.531 . S
C1102 H1114 0.960 . S
C1102 H1115 0.962 . S
C1102 H1116 0.960 . S
C1103 C1100 1.511 . S
C1103 H1117 0.961 . S
C1103 H1118 0.961 . S
C1103 H1119 0.961 . S
C1104 C1105 1.370 . S
C1104 C1106 1.363 . S
C1104 H1120 0.931 . S
C1105 C1104 1.370 . S
C1105 C1109 1.408 . S
C1106 C1104 1.363 . S
C1106 C1107 1.370 . S
C1106 C1110 1.524 . S
C1107 C1099 1.503 . S
C1107 C1106 1.370 . S
C1107 C1108 1.403 . S
C1108 C1107 1.403 . S
C1108 C1109 1.404 . S
C1108 C1111 1.539 . S
C1109 C1105 1.408 . S
C1109 C1108 1.404 . S
C1109 H1121 0.930 . S
C1110 C1106 1.524 . S
C1110 H1122 0.956 . S
C1110 H1123 0.961 . S
C1110 H1124 0.961 . S
C1111 C1108 1.539 . S
C1111 H1125 0.958 . S
C1111 H1126 0.961 . S
C1111 H1127 0.960 . S
H1112 C1096 0.931 . S
H1113 C1101 0.929 . S
H1114 C1102 0.960 . S
H1115 C1102 0.962 . S
H1116 C1102 0.960 . S
H1117 C1103 0.961 . S
H1118 C1103 0.961 . S
H1119 C1103 0.961 . S
H1120 C1104 0.931 . S
H1121 C1109 0.930 . S
H1122 C1110 0.956 . S
H1123 C1110 0.961 . S
H1124 C1110 0.961 . S
H1125 C1111 0.958 . S
H1126 C1111 0.961 . S
H1127 C1111 0.960 . S
C1128 C1129 1.391 . S
C1128 C1130 1.394 . S
C1128 H1144 0.931 . S
C1129 C1128 1.391 . S
C1129 C1133 1.376 . S
C1130 C1128 1.394 . S
C1130 C1131 1.369 . S
C1130 C1134 1.531 . S
C1131 C1130 1.369 . S
C1131 C1132 1.410 . S
C1131 C1139 1.503 . S
C1132 C1131 1.410 . S
C1132 C1133 1.392 . S
C1132 C1135 1.511 . S
C1133 C1129 1.376 . S
C1133 C1132 1.392 . S
C1133 H1145 0.929 . S
C1134 C1130 1.531 . S
C1134 H1146 0.960 . S
C1134 H1147 0.962 . S
C1134 H1148 0.960 . S
C1135 C1132 1.511 . S
C1135 H1149 0.961 . S
C1135 H1150 0.961 . S
C1135 H1151 0.961 . S
C1136 C1137 1.370 . S
C1136 C1138 1.363 . S
C1136 H1152 0.931 . S
C1137 C1136 1.370 . S
C1137 C1141 1.408 . S
C1138 C1136 1.363 . S
C1138 C1139 1.370 . S
C1138 C1142 1.524 . S
C1139 C1131 1.503 . S
C1139 C1138 1.370 . S
C1139 C1140 1.403 . S
C1140 C1139 1.403 . S
C1140 C1141 1.404 . S
C1140 C1143 1.539 . S
C1141 C1137 1.408 . S
C1141 C1140 1.404 . S
C1141 H1153 0.930 . S
C1142 C1138 1.524 . S
C1142 H1154 0.956 . S
C1142 H1155 0.961 . S
C1142 H1156 0.961 . S
C1143 C1140 1.539 . S
C1143 H1157 0.958 . S
C1143 H1158 0.961 . S
C1143 H1159 0.960 . S
H1144 C1128 0.931 . S
H1145 C1133 0.929 . S
H1146 C1134 0.960 . S
H1147 C1134 0.962 . S
H1148 C1134 0.960 . S
H1149 C1135 0.961 . S
H1150 C1135 0.961 . S
H1151 C1135 0.961 . S
H1152 C1136 0.931 . S
H1153 C1141 0.930 . S
H1154 C1142 0.956 . S
H1155 C1142 0.961 . S
H1156 C1142 0.961 . S
H1157 C1143 0.958 . S
H1158 C1143 0.961 . S
H1159 C1143 0.960 . S
C1160 C1161 1.391 . S
C1160 C1162 1.394 . S
C1160 H1176 0.931 . S
C1161 C1160 1.391 . S
C1161 C1165 1.376 . S
C1162 C1160 1.394 . S
C1162 C1163 1.369 . S
C1162 C1166 1.531 . S
C1163 C1162 1.369 . S
C1163 C1164 1.410 . S
C1163 C1171 1.503 . S
C1164 C1163 1.410 . S
C1164 C1165 1.392 . S
C1164 C1167 1.511 . S
C1165 C1161 1.376 . S
C1165 C1164 1.392 . S
C1165 H1177 0.929 . S
C1166 C1162 1.531 . S
C1166 H1178 0.960 . S
C1166 H1179 0.962 . S
C1166 H1180 0.960 . S
C1167 C1164 1.511 . S
C1167 H1181 0.961 . S
C1167 H1182 0.961 . S
C1167 H1183 0.961 . S
C1168 C1169 1.370 . S
C1168 C1170 1.363 . S
C1168 H1184 0.931 . S
C1169 C1168 1.370 . S
C1169 C1173 1.408 . S
C1170 C1168 1.363 . S
C1170 C1171 1.370 . S
C1170 C1174 1.524 . S
C1171 C1163 1.503 . S
C1171 C1170 1.370 . S
C1171 C1172 1.403 . S
C1172 C1171 1.403 . S
C1172 C1173 1.404 . S
C1172 C1175 1.539 . S
C1173 C1169 1.408 . S
C1173 C1172 1.404 . S
C1173 H1185 0.930 . S
C1174 C1170 1.524 . S
C1174 H1186 0.956 . S
C1174 H1187 0.961 . S
C1174 H1188 0.961 . S
C1175 C1172 1.539 . S
C1175 H1189 0.958 . S
C1175 H1190 0.961 . S
C1175 H1191 0.960 . S
H1176 C1160 0.931 . S
H1177 C1165 0.929 . S
H1178 C1166 0.960 . S
H1179 C1166 0.962 . S
H1180 C1166 0.960 . S
H1181 C1167 0.961 . S
H1182 C1167 0.961 . S
H1183 C1167 0.961 . S
H1184 C1168 0.931 . S
H1185 C1173 0.930 . S
H1186 C1174 0.956 . S
H1187 C1174 0.961 . S
H1188 C1174 0.961 . S
H1189 C1175 0.958 . S
H1190 C1175 0.961 . S
H1191 C1175 0.960 . S
C425 C71 1.661 . S
C433 C162 1.654 . S
C465 C246 1.630 . S
C457 C81 1.645 . S
C497 C239 1.654 . S
C489 C49 1.658 . S
C521 C59 1.618 . S
C529 C155 1.636 . S
C561 C319 1.649 . S
C553 C27 1.671 . S
C593 C403 1.697 . S
C585 C38 1.689 . S
C617 C5 1.653 . S
C625 C396 1.654 . S
C649 C16 1.687 . S
C657 C312 1.698 . S
C689 C146 1.421 . S
C681 C15 1.555 . S
C721 C230 1.441 . S
C713 C4 1.562 . S
C753 C241 1.380 . S
C745 C37 1.562 . S
C785 C157 1.385 . S
C777 C26 1.568 . S
C817 C325 1.448 . S
C809 C60 1.614 . S
C841 C48 1.643 . S
C849 C409 1.471 . S
C881 C398 1.433 . S
C873 C82 1.596 . S
C905 C70 1.647 . S
C913 C314 1.408 . S
C945 C144 1.496 . S
C937 C10 1.496 . S
C977 C228 1.544 . S
C969 C21 1.520 . S
C1001 C32 1.495 . S
C1009 C235 1.476 . S
C1041 C151 1.525 . S
C1033 C43 1.541 . S
C1073 C323 1.591 . S
C1065 C54 1.588 . S
C1097 C65 1.543 . S
C1105 C407 1.541 . S
C1129 C76 1.563 . S
C1137 C414 1.560 . S
C1161 C87 1.538 . S
C1169 C330 1.513 . S
