# Generated by pormake.
# Topology rtl, (3,6)-cn, num edge types: 1
# Building blocks:
#     Node 0, Type 0, BuildingBlock: CUQRIR_clean_linker_1, # of connection points: 3
#     Node 1, Type 0, BuildingBlock: CUQRIR_clean_linker_1, # of connection points: 3
#     Node 2, Type 0, BuildingBlock: CUQRIR_clean_linker_1, # of connection points: 3
#     Node 3, Type 0, BuildingBlock: CUQRIR_clean_linker_1, # of connection points: 3
#     Node 4, Type 1, BuildingBlock: KUMBUR_clean_sbu_1, # of connection points: 6
#     Node 5, Type 1, BuildingBlock: KUMBUR_clean_sbu_1, # of connection points: 6
#     Edge 6, Type (0, 1), BuildingBlock: KIFKEQ_clean_linker_1, # of connection points: 2
#     Edge 7, Type (0, 1), BuildingBlock: KIFKEQ_clean_linker_1, # of connection points: 2
#     Edge 8, Type (0, 1), BuildingBlock: KIFKEQ_clean_linker_1, # of connection points: 2
#     Edge 9, Type (0, 1), BuildingBlock: KIFKEQ_clean_linker_1, # of connection points: 2
#     Edge 10, Type (0, 1), BuildingBlock: KIFKEQ_clean_linker_1, # of connection points: 2
#     Edge 11, Type (0, 1), BuildingBlock: KIFKEQ_clean_linker_1, # of connection points: 2
#     Edge 12, Type (0, 1), BuildingBlock: KIFKEQ_clean_linker_1, # of connection points: 2
#     Edge 13, Type (0, 1), BuildingBlock: KIFKEQ_clean_linker_1, # of connection points: 2
#     Edge 14, Type (0, 1), BuildingBlock: KIFKEQ_clean_linker_1, # of connection points: 2
#     Edge 15, Type (0, 1), BuildingBlock: KIFKEQ_clean_linker_1, # of connection points: 2
#     Edge 16, Type (0, 1), BuildingBlock: KIFKEQ_clean_linker_1, # of connection points: 2
#     Edge 17, Type (0, 1), BuildingBlock: KIFKEQ_clean_linker_1, # of connection points: 2
# Relax obj value: 0.064
# Max RMSD: 0.225
# Mean RMSD: 0.175
data_MOF--net-rtl--node1-KUMBUR_clean_sbu_1--node2-CUQRIR_clean_linker_1--edge1-KIFKEQ_clean_linker_1
_symmetry_space_group_name_H-M    P1
_symmetry_Int_Tables_number       1
_symmetry_cell_setting            triclinic
loop_
_symmetry_equiv_pos_as_xyz
'x, y, z'
_cell_length_a     33.324478
_cell_length_b     33.75833
_cell_length_c     25.088907
_cell_angle_alpha  76.42194
_cell_angle_beta   98.211842
_cell_angle_gamma 91.250079
loop_
_atom_site_label
_atom_site_type_symbol
_atom_site_fract_x
_atom_site_fract_y
_atom_site_fract_z
_atom_type_partial_charge
C0 C 0.23457 0.80181 0.99305 0.0
N1 N 0.20886 0.82626 1.00822 0.0
N2 N 0.25778 0.77917 0.03809 0.0
C3 C 0.2374 0.80033 0.93417 0.0
C4 C 0.24539 0.79087 0.08125 0.0
N5 N 0.21571 0.81974 0.06313 0.0
C6 C 0.26014 0.7718 0.14118 0.0
H7 H 0.21659 0.77662 0.92272 0.0
H8 H 0.26867 0.79229 0.92974 0.0
H9 H 0.22833 0.82978 0.90482 0.0
H10 H 0.28534 0.79019 0.15629 0.0
H11 H 0.27154 0.74029 0.14642 0.0
H12 H 0.23554 0.77113 0.16687 0.0
C13 C 0.72484 0.73503 0.70004 0.0
N14 N 0.69893 0.70522 0.6899 0.0
N15 N 0.74558 0.74882 0.65668 0.0
C16 C 0.73117 0.74977 0.7527 0.0
C17 C 0.73173 0.72603 0.62028 0.0
N18 N 0.7037 0.69935 0.64068 0.0
C19 C 0.74486 0.7306 0.56413 0.0
H20 H 0.7038 0.7459 0.77363 0.0
H21 H 0.73986 0.78233 0.74426 0.0
H22 H 0.75621 0.73174 0.78144 0.0
H23 H 0.77577 0.74335 0.56328 0.0
H24 H 0.72336 0.75156 0.53282 0.0
H25 H 0.74463 0.70104 0.55218 0.0
C26 C 0.78722 0.21147 0.13568 0.0
N27 N 0.81574 0.18794 0.12453 0.0
N28 N 0.76903 0.23653 0.08846 0.0
C29 C 0.77919 0.21197 0.19308 0.0
C30 C 0.7879 0.22758 0.04822 0.0
N31 N 0.81663 0.19819 0.07027 0.0
C32 C 0.77609 0.24531 0.98724 0.0
H33 H 0.75507 0.18976 0.20464 0.0
H34 H 0.76886 0.24261 0.19477 0.0
H35 H 0.80671 0.20302 0.22393 0.0
H36 H 0.79525 0.27213 0.9741 0.0
H37 H 0.74387 0.2554 0.97796 0.0
H38 H 0.78089 0.22271 0.96294 0.0
C39 C 0.30317 0.29008 0.43512 0.0
N40 N 0.3304 0.31854 0.44589 0.0
N41 N 0.28709 0.27197 0.48137 0.0
C42 C 0.2928 0.27955 0.37984 0.0
C43 C 0.3056 0.29043 0.52056 0.0
N44 N 0.33214 0.31854 0.4991 0.0
C45 C 0.29543 0.28324 0.57862 0.0
H46 H 0.26726 0.29938 0.35545 0.0
H47 H 0.28334 0.24731 0.38499 0.0
H48 H 0.31889 0.28485 0.3562 0.0
H49 H 0.31591 0.25913 0.60615 0.0
H50 H 0.26367 0.27304 0.58035 0.0
H51 H 0.29971 0.31134 0.59441 0.0
Tb52 Tb 0.04471 0.97354 0.53004 0.0
C53 C 0.95593 0.12974 0.51632 0.0
N54 N 0.99049 0.11481 0.55031 0.0
C55 C 0.02213 0.17973 0.52354 0.0
C56 C 0.95386 0.16957 0.48235 0.0
C57 C 0.02229 0.1403 0.55723 0.0
C58 C 0.98807 0.19415 0.48503 0.0
C59 C 0.8843 0.12105 0.48733 0.0
C60 C 0.9216 0.10602 0.51869 0.0
C61 C 0.88252 0.15991 0.45131 0.0
C62 C 0.91728 0.18409 0.4487 0.0
Tb63 Tb 0.98732 0.0487 0.60046 0.0
N64 N 0.92477 0.06817 0.55279 0.0
C65 C 0.8499 0.09675 0.49386 0.0
C66 C 0.89108 0.04513 0.56162 0.0
C67 C 0.85322 0.05886 0.53177 0.0
H68 H 0.04758 0.13087 0.58948 0.0
H69 H 0.82668 0.04022 0.53792 0.0
H70 H 1.00579 0.88472 0.58312 0.0
H71 H 0.20066 0.02321 0.53362 0.0
H72 H 0.89365 0.01595 0.59106 0.0
H73 H 0.82061 0.10722 0.47061 0.0
H74 H 0.12807 0.02556 0.49689 0.0
H75 H 0.04795 0.19927 0.52819 0.0
H76 H 0.85426 0.17187 0.42621 0.0
H77 H 0.91523 0.21445 0.42186 0.0
H78 H 0.02925 0.82019 0.64925 0.0
H79 H 0.98779 0.22492 0.4596 0.0
H80 H 0.22872 0.96566 0.60975 0.0
N81 N 0.06345 0.91274 0.59028 0.0
C82 C 0.10322 0.90808 0.61199 0.0
C83 C 0.05031 0.84479 0.63942 0.0
C84 C 0.11794 0.87204 0.65018 0.0
C85 C 0.03707 0.88139 0.60218 0.0
C86 C 0.09083 0.84024 0.66404 0.0
N87 N 0.1136 0.97302 0.55656 0.0
C88 C 0.13922 1.00167 0.53237 0.0
C89 C 0.17073 0.93604 0.61609 0.0
C90 C 0.12903 0.93969 0.59536 0.0
C91 C 0.19648 0.96726 0.59495 0.0
C92 C 0.18073 0.99985 0.55214 0.0
H93 H 0.10095 0.81198 0.69314 0.0
H94 H 0.17104 0.84155 0.7026 0.0
H95 H 0.21738 0.8976 0.67258 0.0
O96 O 0.07602 0.95986 0.46928 0.0
O97 O 0.04256 0.95899 0.61985 0.0
O98 O 0.04528 0.0206 0.64386 0.0
O99 O 1.01376 0.94343 0.47186 0.0
O100 O 0.06119 0.03844 0.5146 0.0
O101 O 0.052 0.05998 0.59316 0.0
O102 O 0.96207 0.02814 0.67426 0.0
O103 O 0.96179 0.03651 0.51985 0.0
O104 O 0.01828 0.03126 0.48032 0.0
O105 O 0.97783 0.09069 0.6478 0.0
O106 O 0.96836 0.98477 0.61638 0.0
O107 O 0.98128 0.95889 0.54168 0.0
C108 C 0.05443 0.98157 0.65511 0.0
C109 C 0.05464 0.90298 0.43404 0.0
C110 C 0.08397 0.86758 0.37392 0.0
C111 C 0.07588 0.83012 0.40888 0.0
C112 C 0.04591 0.86522 0.46761 0.0
C113 C 0.05667 0.82903 0.45516 0.0
C114 C 0.07317 0.90398 0.38671 0.0
C115 C 0.0711 0.0615 0.55012 0.0
C116 C 0.04546 0.94172 0.44758 0.0
C117 C 0.15914 0.86884 0.67274 0.0
C118 C 0.18549 0.90082 0.65577 0.0
C119 C 0.98002 0.04111 0.4758 0.0
C120 C 0.98234 0.06371 0.74374 0.0
C121 C 0.97616 0.07861 0.83301 0.0
C122 C 0.0161 0.06412 0.85261 0.0
C123 C 0.0222 0.05005 0.76387 0.0
C124 C 0.95942 0.07811 0.77826 0.0
C125 C 0.03891 0.04999 0.81813 0.0
C126 C 0.96137 0.95901 0.58377 0.0
C127 C 0.96452 0.06343 0.68671 0.0
H128 H 0.08388 0.80168 0.39987 0.0
H129 H 0.03073 0.86358 0.50324 0.0
H130 H 0.05006 0.80001 0.48145 0.0
H131 H 0.07982 0.93304 0.36037 0.0
H132 H 0.03004 0.06452 0.8942 0.0
H133 H 0.04028 0.03969 0.73739 0.0
H134 H 0.92854 0.08867 0.76257 0.0
H135 H 0.06975 0.0393 0.83336 0.0
Tb136 Tb 0.47113 0.48476 1.01221 0.0
C137 C 0.64291 0.55002 0.08982 0.0
N138 N 0.62321 0.51793 0.11803 0.0
C139 C 0.68498 0.4786 0.1423 0.0
C140 C 0.68452 0.54748 0.08618 0.0
C141 C 0.64364 0.48262 0.14479 0.0
C142 C 0.7055 0.51111 0.1127 0.0
C143 C 0.64007 0.61935 0.0339 0.0
C144 C 0.62096 0.58538 0.06376 0.0
C145 C 0.68155 0.61701 0.03 0.0
C146 C 0.70371 0.58114 0.05602 0.0
Tb147 Tb 0.55541 0.52716 0.11657 0.0
N148 N 0.58049 0.58597 0.06692 0.0
C149 C 0.61687 0.65458 1.00886 0.0
C150 C 0.55821 0.62093 0.04479 0.0
C151 C 0.5759 0.65549 1.01487 0.0
H152 H 0.62817 0.45779 0.16886 0.0
H153 H 0.55794 0.68292 0.99671 0.0
H154 H 0.38766 0.53818 1.0041 0.0
H155 H 0.50542 0.32292 0.08869 0.0
H156 H 0.52698 0.62269 0.05028 0.0
H157 H 0.6304 0.68138 0.98548 0.0
H158 H 0.51614 0.39203 0.03591 0.0
H159 H 0.70101 0.45048 0.16336 0.0
H160 H 0.69676 0.64274 1.00699 0.0
H161 H 0.73567 0.57977 0.05259 0.0
H162 H 0.32014 0.52622 0.0344 0.0
H163 H 0.73751 0.50788 0.11081 0.0
H164 H 0.44304 0.3068 0.13188 0.0
N165 N 0.40801 0.4771 0.03802 0.0
C166 C 0.39856 0.43889 0.06468 0.0
C167 C 0.34197 0.50144 0.04337 0.0
C168 C 0.36045 0.43064 0.08282 0.0
C169 C 0.3803 0.50823 0.02663 0.0
C170 C 0.33202 0.46251 0.07174 0.0
N171 N 0.46439 0.41774 0.05724 0.0
C172 C 0.49068 0.38686 0.05848 0.0
C173 C 0.41938 0.36854 0.10377 0.0
C174 C 0.42797 0.40847 0.07564 0.0
C175 C 0.44846 0.33787 0.11059 0.0
C176 C 0.48386 0.34692 0.08671 0.0
H177 H 0.30241 0.45742 0.08503 0.0
H178 H 0.32331 0.38431 0.1269 0.0
H179 H 0.37473 0.32982 0.14476 0.0
O180 O 0.47475 0.45493 0.94798 0.0
O181 O 0.45901 0.48675 0.09567 0.0
O182 O 0.52098 0.47319 0.14894 0.0
O183 O 0.42516 0.49535 0.94371 0.0
O184 O 0.53404 0.46188 0.026 0.0
O185 O 0.55649 0.46246 0.11702 0.0
O186 O 0.53755 0.56003 0.17103 0.0
O187 O 0.56658 0.53387 0.03057 0.0
O188 O 0.50487 0.53779 0.97378 0.0
O189 O 0.59143 0.5228 0.19404 0.0
O190 O 0.49585 0.5581 0.0938 0.0
O191 O 0.46553 0.54994 1.00741 0.0
C192 C 0.48128 0.4723 0.14366 0.0
C193 C 0.44635 0.492 0.85936 0.0
C194 C 0.44038 0.4855 0.76347 0.0
C195 C 0.44919 0.52725 0.74704 0.0
C196 C 0.45495 0.5335 0.84204 0.0
C197 C 0.45674 0.55088 0.7862 0.0
C198 C 0.43983 0.46809 0.82027 0.0
C199 C 0.55925 0.4494 0.07226 0.0
C200 C 0.44263 0.47332 0.91758 0.0
C201 C 0.35229 0.39121 0.11222 0.0
C202 C 0.38168 0.36024 0.12269 0.0
C203 C 0.54398 0.54481 0.98198 0.0
C204 C 0.59096 0.58161 0.22948 0.0
C205 C 0.60949 0.61621 0.30454 0.0
C206 C 0.63017 0.64553 0.26904 0.0
C207 C 0.61174 0.61129 0.19501 0.0
C208 C 0.59015 0.58395 0.28458 0.0
C209 C 0.63131 0.64294 0.21471 0.0
C210 C 0.46907 0.5686 0.04854 0.0
C211 C 0.5693 0.54882 0.20802 0.0
H212 H 0.44923 0.54205 0.70383 0.0
H213 H 0.45962 0.55251 0.87153 0.0
H214 H 0.46319 0.58298 0.77305 0.0
H215 H 0.434 0.4359 0.83444 0.0
H216 H 0.6459 0.67026 0.28356 0.0
H217 H 0.61281 0.61027 0.15285 0.0
H218 H 0.57397 0.56124 0.31144 0.0
H219 H 0.64736 0.6656 0.18773 0.0
H220 H 0.29384 0.20029 0.55657 0.0
H221 H 0.21286 0.27317 0.42178 0.0
H222 H 0.24151 0.14854 0.5728 0.0
H223 H 0.16023 0.22151 0.43742 0.0
H224 H 0.09175 0.10035 0.44994 0.0
H225 H 0.14499 0.15054 0.43146 0.0
H226 H 0.17525 0.14238 0.60701 0.0
H227 H 0.1224 0.09163 0.62543 0.0
C228 C 0.26473 0.20501 0.53043 0.0
C229 C 0.25714 0.2405 0.48805 0.0
C230 C 0.23478 0.17561 0.53974 0.0
C231 C 0.19664 0.18105 0.50661 0.0
C232 C 0.18943 0.21624 0.46331 0.0
C233 C 0.21942 0.24574 0.45422 0.0
C234 C 0.10995 0.10919 0.48453 0.0
C235 C 0.10311 0.09208 0.53912 0.0
C236 C 0.1402 0.13813 0.47394 0.0
C237 C 0.16437 0.15038 0.51776 0.0
C238 C 0.15745 0.1332 0.5724 0.0
C239 C 0.12704 0.10442 0.58295 0.0
H240 H 0.24963 0.71381 0.99334 0.0
H241 H 0.33543 0.77843 0.08598 0.0
H242 H 0.30252 0.66441 0.99393 0.0
H243 H 0.38866 0.72917 0.08701 0.0
H244 H 0.45653 0.60537 0.13102 0.0
H245 H 0.40609 0.65718 0.12774 0.0
H246 H 0.36589 0.66033 0.95532 0.0
H247 H 0.41636 0.60822 0.95846 0.0
C248 C 0.28 0.71742 1.0135 0.0
C249 C 0.28872 0.74973 0.03952 0.0
C250 C 0.31026 0.68935 1.01375 0.0
C251 C 0.34984 0.69298 0.04032 0.0
C252 C 0.3584 0.7253 0.06666 0.0
C253 C 0.3281 0.75343 0.06617 0.0
C254 C 0.43725 0.6173 0.09218 0.0
C255 C 0.4403 0.60229 0.0451 0.0
C256 C 0.40836 0.64713 0.09032 0.0
C257 C 0.38181 0.66269 0.04138 0.0
C258 C 0.38548 0.64845 0.99391 0.0
C259 C 0.41452 0.61871 0.99568 0.0
H260 H 0.74224 0.81551 0.57271 0.0
H261 H 0.8152 0.75403 0.72431 0.0
H262 H 0.79493 0.86681 0.55538 0.0
H263 H 0.86768 0.80598 0.70812 0.0
H264 H 0.92945 0.93335 0.68036 0.0
H265 H 0.87641 0.88314 0.69997 0.0
H266 H 0.86797 0.86502 0.53408 0.0
H267 H 0.92125 0.91503 0.51434 0.0
C268 C 0.76956 0.81326 0.60239 0.0
C269 C 0.77496 0.78088 0.64961 0.0
C270 C 0.79966 0.84243 0.59252 0.0
C271 C 0.83549 0.84016 0.6302 0.0
C272 C 0.84026 0.80854 0.67852 0.0
C273 C 0.81031 0.77899 0.68795 0.0
C274 C 0.91629 0.9187 0.648 0.0
C275 C 0.9295 0.92826 0.59569 0.0
C276 C 0.88609 0.8898 0.65941 0.0
C277 C 0.86802 0.87033 0.61851 0.0
C278 C 0.88115 0.87988 0.56621 0.0
C279 C 0.91179 0.90833 0.55503 0.0
H280 H 0.7707 0.31604 0.0369 0.0
H281 H 0.69777 0.2251 0.12839 0.0
H282 H 0.71943 0.36831 0.03177 0.0
H283 H 0.64666 0.2772 0.12432 0.0
H284 H 0.59145 0.3903 0.16125 0.0
H285 H 0.64232 0.33855 0.16364 0.0
H286 H 0.64731 0.38673 0.98931 0.0
H287 H 0.59671 0.43871 0.98715 0.0
C288 C 0.74341 0.30731 0.05531 0.0
C289 C 0.738 0.26677 0.08305 0.0
C290 C 0.71418 0.33709 0.05255 0.0
C291 C 0.67917 0.32684 0.07794 0.0
C292 C 0.67362 0.2861 0.1051 0.0
C293 C 0.70269 0.25633 0.10739 0.0
C294 C 0.60369 0.38995 0.12362 0.0
C295 C 0.59042 0.41855 0.07411 0.0
C296 C 0.63249 0.36016 0.12484 0.0
C297 C 0.64872 0.35858 0.07662 0.0
C298 C 0.63557 0.38742 0.02718 0.0
C299 C 0.60648 0.41695 0.02587 0.0
H300 H 0.24971 0.86143 0.13659 0.0
H301 H 0.13541 0.81828 0.06961 0.0
H302 H 0.21756 0.87984 0.20959 0.0
H303 H 0.10267 0.83808 0.14109 0.0
H304 H 0.05685 0.90431 0.26585 0.0
H305 H 0.08779 0.9008 0.1837 0.0
H306 H 0.18692 0.82911 0.28933 0.0
H307 H 0.15564 0.83189 0.37089 0.0
C308 C 0.21743 0.85711 0.13663 0.0
C309 C 0.19493 0.8387 0.09744 0.0
C310 C 0.19909 0.86746 0.17833 0.0
C311 C 0.15769 0.86017 0.18111 0.0
C312 C 0.13455 0.84439 0.13957 0.0
C313 C 0.15313 0.83341 0.09834 0.0
C314 C 0.08545 0.88819 0.27128 0.0
C315 C 0.10391 0.8683 0.32453 0.0
C316 C 0.103 0.88606 0.22443 0.0
C317 C 0.13981 0.86486 0.23024 0.0
C318 C 0.15876 0.84602 0.28368 0.0
C319 C 0.14081 0.8474 0.33027 0.0
H320 H 0.63561 0.73196 0.72843 0.0
H321 H 0.70453 0.62468 0.73272 0.0
H322 H 0.59565 0.69189 0.79669 0.0
H323 H 0.66409 0.58389 0.79958 0.0
H324 H 0.62327 0.53938 0.97014 0.0
H325 H 0.65839 0.57787 0.89637 0.0
H326 H 0.54573 0.63784 0.81286 0.0
H327 H 0.51085 0.60044 0.88853 0.0
C328 C 0.64189 0.69966 0.74403 0.0
C329 C 0.67346 0.6813 0.7267 0.0
C330 C 0.61887 0.67662 0.78254 0.0
C331 C 0.62693 0.63472 0.80408 0.0
C332 C 0.65759 0.61621 0.78469 0.0
C333 C 0.68054 0.63932 0.74627 0.0
C334 C 0.60594 0.56078 0.93605 0.0
C335 C 0.56421 0.56671 0.93497 0.0
C336 C 0.62602 0.58256 0.89341 0.0
C337 C 0.60486 0.61076 0.84839 0.0
C338 C 0.56297 0.61648 0.84705 0.0
C339 C 0.54285 0.59466 0.88995 0.0
H340 H 0.89362 0.20151 0.15858 0.0
H341 H 0.79813 0.11429 0.18324 0.0
H342 H 0.93547 0.16223 0.24151 0.0
H343 H 0.8402 0.07321 0.26454 0.0
H344 H 0.89806 0.0452 0.44515 0.0
H345 H 0.86073 0.07779 0.35576 0.0
H346 H 0.97371 0.10362 0.28901 0.0
H347 H 1.01097 0.07382 0.38009 0.0
C348 C 0.88243 0.17297 0.18097 0.0
C349 C 0.84314 0.16046 0.16506 0.0
C350 C 0.90621 0.1504 0.22841 0.0
C351 C 0.89111 0.11465 0.26041 0.0
C352 C 0.85252 0.10102 0.24191 0.0
C353 C 0.82862 0.12401 0.19504 0.0
C354 C 0.91488 0.05852 0.41167 0.0
C355 C 0.95739 0.058 0.42016 0.0
C356 C 0.89348 0.07648 0.35988 0.0
C357 C 0.9141 0.09348 0.31475 0.0
C358 C 0.95675 0.09154 0.32287 0.0
C359 C 0.97814 0.07411 0.37502 0.0
H360 H 0.33162 0.40071 0.47864 0.0
H361 H 0.38744 0.29239 0.58876 0.0
H362 H 0.36564 0.44223 0.53941 0.0
H363 H 0.41979 0.33357 0.65128 0.0
H364 H 0.38619 0.42283 0.76631 0.0
H365 H 0.3688 0.38234 0.69821 0.0
H366 H 0.45016 0.45254 0.5946 0.0
H367 H 0.47027 0.49177 0.66454 0.0
C368 C 0.35244 0.38608 0.51463 0.0
C369 C 0.35753 0.34357 0.52879 0.0
C370 C 0.37153 0.40969 0.54962 0.0
C371 C 0.39522 0.3909 0.5997 0.0
C372 C 0.40176 0.34861 0.61265 0.0
C373 C 0.38336 0.32518 0.57713 0.0
C374 C 0.40146 0.42917 0.72999 0.0
C375 C 0.43005 0.46057 0.72157 0.0
C376 C 0.39113 0.40609 0.69079 0.0
C377 C 0.40837 0.41438 0.64165 0.0
C378 C 0.43658 0.44576 0.63242 0.0
C379 C 0.44772 0.46836 0.67232 0.0
H380 H 0.62542 0.71212 0.5979 0.0
H381 H 0.72694 0.63158 0.61434 0.0
H382 H 0.58934 0.68216 0.5249 0.0
H383 H 0.69218 0.60226 0.54031 0.0
H384 H 0.62694 0.55707 0.40055 0.0
H385 H 0.63849 0.56706 0.49518 0.0
H386 H 0.60428 0.69403 0.43192 0.0
H387 H 0.59184 0.68362 0.33856 0.0
C388 C 0.63927 0.68698 0.5869 0.0
C389 C 0.67888 0.67433 0.61051 0.0
C390 C 0.61896 0.67008 0.54491 0.0
C391 C 0.63824 0.64048 0.52572 0.0
C392 C 0.67627 0.62486 0.55395 0.0
C393 C 0.69634 0.64164 0.59615 0.0
C394 C 0.62078 0.58673 0.40735 0.0
C395 C 0.60913 0.61975 0.36227 0.0
C396 C 0.62763 0.59255 0.46141 0.0
C397 C 0.62269 0.63143 0.47124 0.0
C398 C 0.60802 0.66356 0.42629 0.0
C399 C 0.60134 0.65777 0.37254 0.0
H400 H 0.86562 0.23778 0.99922 0.0
H401 H 0.8255 0.11827 0.07457 0.0
H402 H 0.90503 0.20813 0.94271 0.0
H403 H 0.86495 0.08814 1.01841 0.0
H404 H 0.97099 0.04746 0.94299 0.0
H405 H 0.93456 0.07616 1.00329 0.0
H406 H 0.8908 0.17515 0.86498 0.0
H407 H 0.92813 0.14713 0.80515 0.0
C408 C 0.86544 0.2051 1.0036 0.0
C409 C 0.84251 0.18023 0.04077 0.0
C410 C 0.88779 0.1881 0.97125 0.0
C411 C 0.88781 0.14579 0.97563 0.0
C412 C 0.86583 0.12079 1.01431 0.0
C413 C 0.84335 0.13791 0.04653 0.0
C414 C 0.95377 0.07547 0.92555 0.0
C415 C 0.95254 0.09505 0.86926 0.0
C416 C 0.93261 0.09171 0.96001 0.0
C417 C 0.90992 0.12804 0.93904 0.0
C418 C 0.90844 0.14741 0.88264 0.0
C419 C 0.92942 0.13108 0.84816 0.0
H420 H 0.31333 0.39437 0.38503 0.0
H421 H 0.40021 0.29622 0.41926 0.0
H422 H 0.3524 0.43496 0.31683 0.0
H423 H 0.43809 0.33474 0.34771 0.0
H424 H 0.51503 0.42251 0.24196 0.0
H425 H 0.48058 0.38809 0.31912 0.0
H426 H 0.36655 0.4415 0.22899 0.0
H427 H 0.40181 0.47888 0.15528 0.0
C428 C 0.34118 0.38183 0.37792 0.0
C429 C 0.35455 0.34288 0.40773 0.0
C430 C 0.36328 0.40462 0.33819 0.0
C431 C 0.39856 0.38827 0.32602 0.0
C432 C 0.41172 0.34894 0.35636 0.0
C433 C 0.39003 0.32664 0.39707 0.0
C434 C 0.48268 0.42725 0.23912 0.0
C435 C 0.46096 0.45264 0.19179 0.0
C436 C 0.46273 0.40708 0.28313 0.0
C437 C 0.42047 0.4114 0.28056 0.0
C438 C 0.39909 0.43756 0.23341 0.0
C439 C 0.4192 0.45843 0.19023 0.0
H440 H 0.13029 0.81529 0.97429 0.0
H441 H 0.22747 0.90085 0.95392 0.0
H442 H 0.08872 0.85737 0.89392 0.0
H443 H 0.18815 0.94151 0.87031 0.0
H444 H 0.10525 0.01623 0.7266 0.0
H445 H 0.13669 0.98406 0.82011 0.0
H446 H 0.08489 0.86876 0.80028 0.0
H447 H 0.04993 0.90226 0.71014 0.0
C448 C 0.14208 0.84398 0.95335 0.0
C449 C 0.18142 0.85561 0.9707 0.0
C450 C 0.11885 0.86764 0.90631 0.0
C451 C 0.13519 0.90261 0.87421 0.0
C452 C 0.174 0.91526 0.89377 0.0
C453 C 0.19667 0.89212 0.94179 0.0
C454 C 0.09997 0.98419 0.74295 0.0
C455 C 0.07498 0.9618 0.71105 0.0
C456 C 0.11849 0.96549 0.79638 0.0
C457 C 0.11346 0.92358 0.81861 0.0
C458 C 0.08885 0.90123 0.7859 0.0
C459 C 0.06946 0.92023 0.73329 0.0
loop_
_geom_bond_atom_site_label_1
_geom_bond_atom_site_label_2
_geom_bond_distance
_geom_bond_site_symmetry_2
_ccdc_geom_bond_type
C0 N1 1.317 . S
C0 N2 1.348 1_556 S
C0 C3 1.485 . S
N1 C0 1.317 . S
N1 N5 1.370 1_556 S
N2 C0 1.348 1_554 S
N2 C4 1.346 . S
C3 C0 1.485 . S
C3 H7 0.960 . S
C3 H8 0.961 . S
C3 H9 0.960 . S
C4 N2 1.346 . S
C4 N5 1.307 . S
C4 C6 1.486 . S
N5 N1 1.370 1_554 S
N5 C4 1.307 . S
C6 C4 1.486 . S
C6 H10 0.960 . S
C6 H11 0.960 . S
C6 H12 0.959 . S
H7 C3 0.960 . S
H8 C3 0.961 . S
H9 C3 0.960 . S
H10 C6 0.960 . S
H11 C6 0.960 . S
H12 C6 0.959 . S
C13 N14 1.317 . S
C13 N15 1.348 . S
C13 C16 1.485 . S
N14 C13 1.317 . S
N14 N18 1.370 . S
N15 C13 1.348 . S
N15 C17 1.346 . S
C16 C13 1.485 . S
C16 H20 0.960 . S
C16 H21 0.961 . S
C16 H22 0.960 . S
C17 N15 1.346 . S
C17 N18 1.307 . S
C17 C19 1.486 . S
N18 N14 1.370 . S
N18 C17 1.307 . S
C19 C17 1.486 . S
C19 H23 0.960 . S
C19 H24 0.960 . S
C19 H25 0.959 . S
H20 C16 0.960 . S
H21 C16 0.961 . S
H22 C16 0.960 . S
H23 C19 0.960 . S
H24 C19 0.960 . S
H25 C19 0.959 . S
C26 N27 1.317 . S
C26 N28 1.348 . S
C26 C29 1.485 . S
N27 C26 1.317 . S
N27 N31 1.370 . S
N28 C26 1.348 . S
N28 C30 1.346 . S
C29 C26 1.485 . S
C29 H33 0.960 . S
C29 H34 0.961 . S
C29 H35 0.960 . S
C30 N28 1.346 . S
C30 N31 1.307 . S
C30 C32 1.486 1_554 S
N31 N27 1.370 . S
N31 C30 1.307 . S
C32 C30 1.486 1_556 S
C32 H36 0.960 . S
C32 H37 0.960 . S
C32 H38 0.959 . S
H33 C29 0.960 . S
H34 C29 0.961 . S
H35 C29 0.960 . S
H36 C32 0.960 . S
H37 C32 0.960 . S
H38 C32 0.959 . S
C39 N40 1.317 . S
C39 N41 1.348 . S
C39 C42 1.485 . S
N40 C39 1.317 . S
N40 N44 1.370 . S
N41 C39 1.348 . S
N41 C43 1.346 . S
C42 C39 1.485 . S
C42 H46 0.960 . S
C42 H47 0.961 . S
C42 H48 0.960 . S
C43 N41 1.346 . S
C43 N44 1.307 . S
C43 C45 1.486 . S
N44 N40 1.370 . S
N44 C43 1.307 . S
C45 C43 1.486 . S
C45 H49 0.960 . S
C45 H50 0.960 . S
C45 H51 0.959 . S
H46 C42 0.960 . S
H47 C42 0.961 . S
H48 C42 0.960 . S
H49 C45 0.960 . S
H50 C45 0.960 . S
H51 C45 0.959 . S
Tb52 N81 2.617 . S
Tb52 N87 2.572 . S
Tb52 O96 2.465 . S
Tb52 O97 2.387 . S
Tb52 O99 2.428 . S
Tb52 O100 2.308 1_565 S
Tb52 O104 2.349 1_465 S
Tb52 O107 2.393 1_455 S
Tb52 C116 2.802 . S
C53 N54 1.379 . S
C53 C56 1.416 . S
C53 C60 1.424 . S
N54 C53 1.379 . S
N54 C57 1.334 1_655 S
N54 Tb63 2.617 . S
C55 C57 1.390 . S
C55 C58 1.339 1_455 S
C55 H75 0.930 . S
C56 C53 1.416 . S
C56 C58 1.416 . S
C56 C62 1.448 . S
C57 N54 1.334 1_455 S
C57 C55 1.390 . S
C57 H68 0.930 . S
C58 C55 1.339 1_655 S
C58 C56 1.416 . S
C58 H79 0.930 . S
C59 C60 1.413 . S
C59 C61 1.427 . S
C59 C65 1.416 . S
C60 C53 1.424 . S
C60 C59 1.413 . S
C60 N64 1.361 . S
C61 C59 1.427 . S
C61 C62 1.328 . S
C61 H76 0.929 . S
C62 C56 1.448 . S
C62 C61 1.328 . S
C62 H77 0.930 . S
Tb63 N54 2.617 . S
Tb63 N64 2.572 . S
Tb63 O98 2.349 1_655 S
Tb63 O101 2.393 1_655 S
Tb63 O102 2.465 . S
Tb63 O103 2.387 . S
Tb63 O105 2.428 . S
Tb63 O106 2.308 1_545 S
Tb63 C127 2.802 . S
N64 C60 1.361 . S
N64 Tb63 2.572 . S
N64 C66 1.340 . S
C65 C59 1.416 . S
C65 C67 1.332 . S
C65 H73 0.931 . S
C66 N64 1.340 . S
C66 C67 1.407 . S
C66 H72 0.930 . S
C67 C65 1.332 . S
C67 C66 1.407 . S
C67 H69 0.929 . S
H68 C57 0.930 . S
H69 C67 0.929 . S
H70 C85 0.930 1_655 S
H71 C92 0.929 . S
H72 C66 0.930 . S
H73 C65 0.931 . S
H74 C88 0.930 . S
H75 C55 0.930 . S
H76 C61 0.929 . S
H77 C62 0.930 . S
H78 C83 0.930 1_655 S
H79 C58 0.930 . S
H80 C91 0.931 . S
N81 Tb52 2.617 . S
N81 C82 1.379 . S
N81 C85 1.334 . S
C82 N81 1.379 . S
C82 C84 1.416 . S
C82 C90 1.424 . S
C83 H78 0.930 1_455 S
C83 C85 1.390 . S
C83 C86 1.339 . S
C84 C82 1.416 . S
C84 C86 1.416 . S
C84 C117 1.448 . S
C85 H70 0.930 1_455 S
C85 N81 1.334 . S
C85 C83 1.390 . S
C86 C83 1.339 . S
C86 C84 1.416 . S
C86 H93 0.930 . S
N87 Tb52 2.572 . S
N87 C88 1.340 . S
N87 C90 1.361 . S
C88 H74 0.930 . S
C88 N87 1.340 . S
C88 C92 1.407 . S
C89 C90 1.413 . S
C89 C91 1.416 . S
C89 C118 1.427 . S
C90 C82 1.424 . S
C90 N87 1.361 . S
C90 C89 1.413 . S
C91 H80 0.931 . S
C91 C89 1.416 . S
C91 C92 1.332 . S
C92 H71 0.929 . S
C92 C88 1.407 . S
C92 C91 1.332 . S
H93 C86 0.930 . S
H94 C117 0.930 . S
H95 C118 0.929 . S
O96 Tb52 2.465 . S
O96 C116 1.264 . S
O97 Tb52 2.387 . S
O97 C108 1.264 . S
O98 Tb63 2.349 1_455 S
O98 C108 1.243 1_545 S
O99 Tb52 2.428 . S
O99 C116 1.256 . S
O100 Tb52 2.308 1_545 S
O100 C115 1.266 . S
O101 Tb63 2.393 1_455 S
O101 C115 1.248 . S
O102 Tb63 2.465 . S
O102 C127 1.264 . S
O103 Tb63 2.387 . S
O103 C119 1.264 . S
O104 Tb52 2.349 1_645 S
O104 C119 1.243 . S
O105 Tb63 2.428 . S
O105 C127 1.256 . S
O106 Tb63 2.308 1_565 S
O106 C126 1.266 . S
O107 Tb52 2.393 1_655 S
O107 C126 1.248 . S
C108 O97 1.264 . S
C108 O98 1.243 1_565 S
C109 C112 1.399 . S
C109 C114 1.383 . S
C109 C116 1.496 . S
C110 C111 1.399 . S
C110 C114 1.389 . S
C111 C110 1.399 . S
C111 C113 1.380 . S
C111 H128 0.929 . S
C112 C109 1.399 . S
C112 C113 1.392 . S
C112 H129 0.929 . S
C113 C111 1.380 . S
C113 C112 1.392 . S
C113 H130 0.929 . S
C114 C109 1.383 . S
C114 C110 1.389 . S
C114 H131 0.931 . S
C115 O100 1.266 . S
C115 O101 1.248 . S
C116 Tb52 2.802 . S
C116 O96 1.264 . S
C116 O99 1.256 . S
C116 C109 1.496 . S
C117 C84 1.448 . S
C117 H94 0.930 . S
C117 C118 1.328 . S
C118 C89 1.427 . S
C118 H95 0.929 . S
C118 C117 1.328 . S
C119 O103 1.264 . S
C119 O104 1.243 . S
C120 C123 1.399 . S
C120 C124 1.383 . S
C120 C127 1.496 . S
C121 C122 1.399 . S
C121 C124 1.389 . S
C122 C121 1.399 . S
C122 C125 1.380 . S
C122 H132 0.929 . S
C123 C120 1.399 . S
C123 C125 1.392 . S
C123 H133 0.929 . S
C124 C120 1.383 . S
C124 C121 1.389 . S
C124 H134 0.931 . S
C125 C122 1.380 . S
C125 C123 1.392 . S
C125 H135 0.929 . S
C126 O106 1.266 . S
C126 O107 1.248 . S
C127 Tb63 2.802 . S
C127 O102 1.264 . S
C127 O105 1.256 . S
C127 C120 1.496 . S
H128 C111 0.929 . S
H129 C112 0.929 . S
H130 C113 0.929 . S
H131 C114 0.931 . S
H132 C122 0.929 . S
H133 C123 0.929 . S
H134 C124 0.931 . S
H135 C125 0.929 . S
Tb136 N165 2.617 1_556 S
Tb136 N171 2.572 1_556 S
Tb136 O180 2.465 . S
Tb136 O181 2.387 1_556 S
Tb136 O183 2.428 . S
Tb136 O184 2.308 1_556 S
Tb136 O188 2.349 . S
Tb136 O191 2.393 1_556 S
Tb136 C200 2.802 . S
C137 N138 1.379 . S
C137 C140 1.416 . S
C137 C144 1.424 . S
N138 C137 1.379 . S
N138 C141 1.334 . S
N138 Tb147 2.617 . S
C139 C141 1.390 . S
C139 C142 1.339 . S
C139 H159 0.930 . S
C140 C137 1.416 . S
C140 C142 1.416 . S
C140 C146 1.448 . S
C141 N138 1.334 . S
C141 C139 1.390 . S
C141 H152 0.930 . S
C142 C139 1.339 . S
C142 C140 1.416 . S
C142 H163 0.930 . S
C143 C144 1.413 . S
C143 C145 1.427 . S
C143 C149 1.416 . S
C144 C137 1.424 . S
C144 C143 1.413 . S
C144 N148 1.361 . S
C145 C143 1.427 . S
C145 C146 1.328 . S
C145 H160 0.929 . S
C146 C140 1.448 . S
C146 C145 1.328 . S
C146 H161 0.930 . S
Tb147 N138 2.617 . S
Tb147 N148 2.572 . S
Tb147 O182 2.349 . S
Tb147 O185 2.393 . S
Tb147 O186 2.465 . S
Tb147 O187 2.387 . S
Tb147 O189 2.428 . S
Tb147 O190 2.308 . S
Tb147 C211 2.802 . S
N148 C144 1.361 . S
N148 Tb147 2.572 . S
N148 C150 1.340 . S
C149 C143 1.416 . S
C149 C151 1.332 . S
C149 H157 0.931 . S
C150 N148 1.340 . S
C150 C151 1.407 . S
C150 H156 0.930 . S
C151 C149 1.332 . S
C151 C150 1.407 . S
C151 H153 0.929 . S
H152 C141 0.930 . S
H153 C151 0.929 . S
H154 C169 0.930 . S
H155 C176 0.929 . S
H156 C150 0.930 . S
H157 C149 0.931 . S
H158 C172 0.930 . S
H159 C139 0.930 . S
H160 C145 0.929 . S
H161 C146 0.930 . S
H162 C167 0.930 . S
H163 C142 0.930 . S
H164 C175 0.931 . S
N165 Tb136 2.617 1_554 S
N165 C166 1.379 . S
N165 C169 1.334 1_554 S
C166 N165 1.379 . S
C166 C168 1.416 . S
C166 C174 1.424 . S
C167 H162 0.930 . S
C167 C169 1.390 . S
C167 C170 1.339 1_556 S
C168 C166 1.416 . S
C168 C170 1.416 . S
C168 C201 1.448 . S
C169 H154 0.930 . S
C169 N165 1.334 1_556 S
C169 C167 1.390 . S
C170 C167 1.339 1_554 S
C170 C168 1.416 . S
C170 H177 0.930 . S
N171 Tb136 2.572 1_554 S
N171 C172 1.340 . S
N171 C174 1.361 . S
C172 H158 0.930 . S
C172 N171 1.340 . S
C172 C176 1.407 . S
C173 C174 1.413 . S
C173 C175 1.416 . S
C173 C202 1.427 . S
C174 C166 1.424 . S
C174 N171 1.361 . S
C174 C173 1.413 . S
C175 H164 0.931 . S
C175 C173 1.416 . S
C175 C176 1.332 . S
C176 H155 0.929 . S
C176 C172 1.407 . S
C176 C175 1.332 . S
H177 C170 0.930 . S
H178 C201 0.930 . S
H179 C202 0.929 . S
O180 Tb136 2.465 . S
O180 C200 1.264 . S
O181 Tb136 2.387 1_554 S
O181 C192 1.264 . S
O182 Tb147 2.349 . S
O182 C192 1.243 . S
O183 Tb136 2.428 . S
O183 C200 1.256 . S
O184 Tb136 2.308 1_554 S
O184 C199 1.266 . S
O185 Tb147 2.393 . S
O185 C199 1.248 . S
O186 Tb147 2.465 . S
O186 C211 1.264 . S
O187 Tb147 2.387 . S
O187 C203 1.264 1_554 S
O188 Tb136 2.349 . S
O188 C203 1.243 . S
O189 Tb147 2.428 . S
O189 C211 1.256 . S
O190 Tb147 2.308 . S
O190 C210 1.266 . S
O191 Tb136 2.393 1_554 S
O191 C210 1.248 . S
C192 O181 1.264 . S
C192 O182 1.243 . S
C193 C196 1.399 . S
C193 C198 1.383 . S
C193 C200 1.496 . S
C194 C195 1.399 . S
C194 C198 1.389 . S
C195 C194 1.399 . S
C195 C197 1.380 . S
C195 H212 0.929 . S
C196 C193 1.399 . S
C196 C197 1.392 . S
C196 H213 0.929 . S
C197 C195 1.380 . S
C197 C196 1.392 . S
C197 H214 0.929 . S
C198 C193 1.383 . S
C198 C194 1.389 . S
C198 H215 0.931 . S
C199 O184 1.266 . S
C199 O185 1.248 . S
C200 Tb136 2.802 . S
C200 O180 1.264 . S
C200 O183 1.256 . S
C200 C193 1.496 . S
C201 C168 1.448 . S
C201 H178 0.930 . S
C201 C202 1.328 . S
C202 C173 1.427 . S
C202 H179 0.929 . S
C202 C201 1.328 . S
C203 O187 1.264 1_556 S
C203 O188 1.243 . S
C204 C207 1.399 . S
C204 C208 1.383 . S
C204 C211 1.496 . S
C205 C206 1.399 . S
C205 C208 1.389 . S
C206 C205 1.399 . S
C206 C209 1.380 . S
C206 H216 0.929 . S
C207 C204 1.399 . S
C207 C209 1.392 . S
C207 H217 0.929 . S
C208 C204 1.383 . S
C208 C205 1.389 . S
C208 H218 0.931 . S
C209 C206 1.380 . S
C209 C207 1.392 . S
C209 H219 0.929 . S
C210 O190 1.266 . S
C210 O191 1.248 . S
C211 Tb147 2.802 . S
C211 O186 1.264 . S
C211 O189 1.256 . S
C211 C204 1.496 . S
H212 C195 0.929 . S
H213 C196 0.929 . S
H214 C197 0.929 . S
H215 C198 0.931 . S
H216 C206 0.929 . S
H217 C207 0.929 . S
H218 C208 0.931 . S
H219 C209 0.929 . S
H220 C228 0.950 . S
H221 C233 0.950 . S
H222 C230 0.950 . S
H223 C232 0.950 . S
H224 C234 0.950 . S
H225 C236 0.950 . S
H226 C238 0.950 . S
H227 C239 0.950 . S
C228 H220 0.950 . S
C228 C229 1.386 . S
C228 C230 1.391 . S
C229 C228 1.386 . S
C229 C233 1.393 . S
C230 H222 0.950 . S
C230 C228 1.391 . S
C230 C231 1.400 . S
C231 C230 1.400 . S
C231 C232 1.398 . S
C231 C237 1.491 . S
C232 H223 0.950 . S
C232 C231 1.398 . S
C232 C233 1.391 . S
C233 H221 0.950 . S
C233 C229 1.393 . S
C233 C232 1.391 . S
C234 H224 0.950 . S
C234 C235 1.386 . S
C234 C236 1.391 . S
C235 C234 1.386 . S
C235 C239 1.393 . S
C236 H225 0.950 . S
C236 C234 1.391 . S
C236 C237 1.400 . S
C237 C231 1.491 . S
C237 C236 1.400 . S
C237 C238 1.398 . S
C238 H226 0.950 . S
C238 C237 1.398 . S
C238 C239 1.391 . S
C239 H227 0.950 . S
C239 C235 1.393 . S
C239 C238 1.391 . S
H240 C248 0.950 . S
H241 C253 0.950 . S
H242 C250 0.950 . S
H243 C252 0.950 . S
H244 C254 0.950 . S
H245 C256 0.950 . S
H246 C258 0.950 . S
H247 C259 0.946 1_556 S
C248 H240 0.950 . S
C248 C249 1.386 1_556 S
C248 C250 1.391 . S
C249 C248 1.386 1_554 S
C249 C253 1.393 . S
C250 H242 0.950 . S
C250 C248 1.391 . S
C250 C251 1.400 1_556 S
C251 C250 1.400 1_554 S
C251 C252 1.398 . S
C251 C257 1.491 . S
C252 H243 0.950 . S
C252 C251 1.398 . S
C252 C253 1.391 . S
C253 H241 0.950 . S
C253 C249 1.393 . S
C253 C252 1.391 . S
C254 H244 0.950 . S
C254 C255 1.386 . S
C254 C256 1.391 . S
C255 C254 1.386 . S
C255 C259 1.396 . S
C256 H245 0.950 . S
C256 C254 1.391 . S
C256 C257 1.400 . S
C257 C251 1.491 . S
C257 C256 1.400 . S
C257 C258 1.399 1_554 S
C258 H246 0.950 . S
C258 C257 1.399 1_556 S
C258 C259 1.392 1_556 S
C259 H247 0.946 1_554 S
C259 C255 1.396 . S
C259 C258 1.392 1_554 S
H260 C268 0.950 . S
H261 C273 0.950 . S
H262 C270 0.950 . S
H263 C272 0.950 . S
H264 C274 0.950 . S
H265 C276 0.950 . S
H266 C278 0.950 . S
H267 C279 0.950 . S
C268 H260 0.950 . S
C268 C269 1.386 . S
C268 C270 1.391 . S
C269 C268 1.386 . S
C269 C273 1.393 . S
C270 H262 0.950 . S
C270 C268 1.391 . S
C270 C271 1.400 . S
C271 C270 1.400 . S
C271 C272 1.398 . S
C271 C277 1.491 . S
C272 H263 0.950 . S
C272 C271 1.398 . S
C272 C273 1.391 . S
C273 H261 0.950 . S
C273 C269 1.393 . S
C273 C272 1.391 . S
C274 H264 0.950 . S
C274 C275 1.386 . S
C274 C276 1.391 . S
C275 C274 1.386 . S
C275 C279 1.393 . S
C276 H265 0.950 . S
C276 C274 1.391 . S
C276 C277 1.400 . S
C277 C271 1.491 . S
C277 C276 1.400 . S
C277 C278 1.398 . S
C278 H266 0.950 . S
C278 C277 1.398 . S
C278 C279 1.391 . S
C279 H267 0.950 . S
C279 C275 1.393 . S
C279 C278 1.391 . S
H280 C288 0.950 1_556 S
H281 C293 0.950 . S
H282 C290 0.950 1_556 S
H283 C292 0.950 . S
H284 C294 0.950 . S
H285 C296 0.950 . S
H286 C298 0.950 1_556 S
H287 C299 0.950 1_556 S
C288 H280 0.950 1_554 S
C288 C289 1.386 . S
C288 C290 1.391 . S
C289 C288 1.386 . S
C289 C293 1.393 . S
C290 H282 0.950 1_554 S
C290 C288 1.391 . S
C290 C291 1.400 . S
C291 C290 1.400 . S
C291 C292 1.398 . S
C291 C297 1.491 . S
C292 H283 0.950 . S
C292 C291 1.398 . S
C292 C293 1.391 . S
C293 H281 0.950 . S
C293 C289 1.393 . S
C293 C292 1.391 . S
C294 H284 0.950 . S
C294 C295 1.386 . S
C294 C296 1.391 . S
C295 C294 1.386 . S
C295 C299 1.393 . S
C296 H285 0.950 . S
C296 C294 1.391 . S
C296 C297 1.400 . S
C297 C291 1.491 . S
C297 C296 1.400 . S
C297 C298 1.398 . S
C298 H286 0.950 1_554 S
C298 C297 1.398 . S
C298 C299 1.391 . S
C299 H287 0.950 1_554 S
C299 C295 1.393 . S
C299 C298 1.391 . S
H300 C308 0.950 . S
H301 C313 0.950 . S
H302 C310 0.950 . S
H303 C312 0.950 . S
H304 C314 0.950 . S
H305 C316 0.950 . S
H306 C318 0.950 . S
H307 C319 0.950 . S
C308 H300 0.950 . S
C308 C309 1.386 . S
C308 C310 1.391 . S
C309 C308 1.386 . S
C309 C313 1.393 . S
C310 H302 0.950 . S
C310 C308 1.391 . S
C310 C311 1.400 . S
C311 C310 1.400 . S
C311 C312 1.398 . S
C311 C317 1.491 . S
C312 H303 0.950 . S
C312 C311 1.398 . S
C312 C313 1.391 . S
C313 H301 0.950 . S
C313 C309 1.393 . S
C313 C312 1.391 . S
C314 H304 0.950 . S
C314 C315 1.386 . S
C314 C316 1.391 . S
C315 C314 1.386 . S
C315 C319 1.393 . S
C316 H305 0.950 . S
C316 C314 1.391 . S
C316 C317 1.400 . S
C317 C311 1.491 . S
C317 C316 1.400 . S
C317 C318 1.398 . S
C318 H306 0.950 . S
C318 C317 1.398 . S
C318 C319 1.391 . S
C319 H307 0.950 . S
C319 C315 1.393 . S
C319 C318 1.391 . S
H320 C328 0.950 . S
H321 C333 0.950 . S
H322 C330 0.950 . S
H323 C332 0.950 . S
H324 C334 0.950 . S
H325 C336 0.950 . S
H326 C338 0.950 . S
H327 C339 0.950 . S
C328 H320 0.950 . S
C328 C329 1.386 . S
C328 C330 1.391 . S
C329 C328 1.386 . S
C329 C333 1.393 . S
C330 H322 0.950 . S
C330 C328 1.391 . S
C330 C331 1.400 . S
C331 C330 1.400 . S
C331 C332 1.398 . S
C331 C337 1.491 . S
C332 H323 0.950 . S
C332 C331 1.398 . S
C332 C333 1.391 . S
C333 H321 0.950 . S
C333 C329 1.393 . S
C333 C332 1.391 . S
C334 H324 0.950 . S
C334 C335 1.386 . S
C334 C336 1.391 . S
C335 C334 1.386 . S
C335 C339 1.393 . S
C336 H325 0.950 . S
C336 C334 1.391 . S
C336 C337 1.400 . S
C337 C331 1.491 . S
C337 C336 1.400 . S
C337 C338 1.398 . S
C338 H326 0.950 . S
C338 C337 1.398 . S
C338 C339 1.391 . S
C339 H327 0.950 . S
C339 C335 1.393 . S
C339 C338 1.391 . S
H340 C348 0.950 . S
H341 C353 0.950 . S
H342 C350 0.950 . S
H343 C352 0.950 . S
H344 C354 0.950 . S
H345 C356 0.950 . S
H346 C358 0.950 . S
H347 C359 0.950 . S
C348 H340 0.950 . S
C348 C349 1.386 . S
C348 C350 1.391 . S
C349 C348 1.386 . S
C349 C353 1.393 . S
C350 H342 0.950 . S
C350 C348 1.391 . S
C350 C351 1.400 . S
C351 C350 1.400 . S
C351 C352 1.398 . S
C351 C357 1.491 . S
C352 H343 0.950 . S
C352 C351 1.398 . S
C352 C353 1.391 . S
C353 H341 0.950 . S
C353 C349 1.393 . S
C353 C352 1.391 . S
C354 H344 0.950 . S
C354 C355 1.386 . S
C354 C356 1.391 . S
C355 C354 1.386 . S
C355 C359 1.393 . S
C356 H345 0.950 . S
C356 C354 1.391 . S
C356 C357 1.400 . S
C357 C351 1.491 . S
C357 C356 1.400 . S
C357 C358 1.398 . S
C358 H346 0.950 . S
C358 C357 1.398 . S
C358 C359 1.391 . S
C359 H347 0.950 . S
C359 C355 1.393 . S
C359 C358 1.391 . S
H360 C368 0.950 . S
H361 C373 0.950 . S
H362 C370 0.950 . S
H363 C372 0.950 . S
H364 C374 0.950 . S
H365 C376 0.950 . S
H366 C378 0.950 . S
H367 C379 0.950 . S
C368 H360 0.950 . S
C368 C369 1.386 . S
C368 C370 1.391 . S
C369 C368 1.386 . S
C369 C373 1.393 . S
C370 H362 0.950 . S
C370 C368 1.391 . S
C370 C371 1.400 . S
C371 C370 1.400 . S
C371 C372 1.398 . S
C371 C377 1.491 . S
C372 H363 0.950 . S
C372 C371 1.398 . S
C372 C373 1.391 . S
C373 H361 0.950 . S
C373 C369 1.393 . S
C373 C372 1.391 . S
C374 H364 0.950 . S
C374 C375 1.386 . S
C374 C376 1.391 . S
C375 C374 1.386 . S
C375 C379 1.393 . S
C376 H365 0.950 . S
C376 C374 1.391 . S
C376 C377 1.400 . S
C377 C371 1.491 . S
C377 C376 1.400 . S
C377 C378 1.398 . S
C378 H366 0.950 . S
C378 C377 1.398 . S
C378 C379 1.391 . S
C379 H367 0.950 . S
C379 C375 1.393 . S
C379 C378 1.391 . S
H380 C388 0.950 . S
H381 C393 0.950 . S
H382 C390 0.950 . S
H383 C392 0.950 . S
H384 C394 0.950 . S
H385 C396 0.950 . S
H386 C398 0.950 . S
H387 C399 0.950 . S
C388 H380 0.950 . S
C388 C389 1.386 . S
C388 C390 1.391 . S
C389 C388 1.386 . S
C389 C393 1.393 . S
C390 H382 0.950 . S
C390 C388 1.391 . S
C390 C391 1.400 . S
C391 C390 1.400 . S
C391 C392 1.398 . S
C391 C397 1.491 . S
C392 H383 0.950 . S
C392 C391 1.398 . S
C392 C393 1.391 . S
C393 H381 0.950 . S
C393 C389 1.393 . S
C393 C392 1.391 . S
C394 H384 0.950 . S
C394 C395 1.386 . S
C394 C396 1.391 . S
C395 C394 1.386 . S
C395 C399 1.393 . S
C396 H385 0.950 . S
C396 C394 1.391 . S
C396 C397 1.400 . S
C397 C391 1.491 . S
C397 C396 1.400 . S
C397 C398 1.398 . S
C398 H386 0.950 . S
C398 C397 1.398 . S
C398 C399 1.391 . S
C399 H387 0.950 . S
C399 C395 1.393 . S
C399 C398 1.391 . S
H400 C408 0.950 . S
H401 C413 0.950 . S
H402 C410 0.950 . S
H403 C412 0.950 1_554 S
H404 C414 0.950 . S
H405 C416 0.950 . S
H406 C418 0.950 . S
H407 C419 0.950 . S
C408 H400 0.950 . S
C408 C409 1.386 1_556 S
C408 C410 1.391 . S
C409 C408 1.386 1_554 S
C409 C413 1.393 . S
C410 H402 0.950 . S
C410 C408 1.391 . S
C410 C411 1.400 . S
C411 C410 1.400 . S
C411 C412 1.398 . S
C411 C417 1.491 . S
C412 H403 0.950 1_556 S
C412 C411 1.398 . S
C412 C413 1.391 1_556 S
C413 H401 0.950 . S
C413 C409 1.393 . S
C413 C412 1.391 1_554 S
C414 H404 0.950 . S
C414 C415 1.386 . S
C414 C416 1.391 . S
C415 C414 1.386 . S
C415 C419 1.393 . S
C416 H405 0.950 . S
C416 C414 1.391 . S
C416 C417 1.400 . S
C417 C411 1.491 . S
C417 C416 1.400 . S
C417 C418 1.398 . S
C418 H406 0.950 . S
C418 C417 1.398 . S
C418 C419 1.391 . S
C419 H407 0.950 . S
C419 C415 1.393 . S
C419 C418 1.391 . S
H420 C428 0.950 . S
H421 C433 0.950 . S
H422 C430 0.950 . S
H423 C432 0.950 . S
H424 C434 0.950 . S
H425 C436 0.950 . S
H426 C438 0.950 . S
H427 C439 0.950 . S
C428 H420 0.950 . S
C428 C429 1.386 . S
C428 C430 1.391 . S
C429 C428 1.386 . S
C429 C433 1.393 . S
C430 H422 0.950 . S
C430 C428 1.391 . S
C430 C431 1.400 . S
C431 C430 1.400 . S
C431 C432 1.398 . S
C431 C437 1.491 . S
C432 H423 0.950 . S
C432 C431 1.398 . S
C432 C433 1.391 . S
C433 H421 0.950 . S
C433 C429 1.393 . S
C433 C432 1.391 . S
C434 H424 0.950 . S
C434 C435 1.386 . S
C434 C436 1.391 . S
C435 C434 1.386 . S
C435 C439 1.393 . S
C436 H425 0.950 . S
C436 C434 1.391 . S
C436 C437 1.400 . S
C437 C431 1.491 . S
C437 C436 1.400 . S
C437 C438 1.398 . S
C438 H426 0.950 . S
C438 C437 1.398 . S
C438 C439 1.391 . S
C439 H427 0.950 . S
C439 C435 1.393 . S
C439 C438 1.391 . S
H440 C448 0.950 . S
H441 C453 0.950 . S
H442 C450 0.950 . S
H443 C452 0.950 . S
H444 C454 0.941 1_545 S
H445 C456 0.950 . S
H446 C458 0.950 . S
H447 C459 0.950 . S
C448 H440 0.950 . S
C448 C449 1.386 . S
C448 C450 1.391 . S
C449 C448 1.386 . S
C449 C453 1.393 . S
C450 H442 0.950 . S
C450 C448 1.391 . S
C450 C451 1.400 . S
C451 C450 1.400 . S
C451 C452 1.398 . S
C451 C457 1.491 . S
C452 H443 0.950 . S
C452 C451 1.398 . S
C452 C453 1.391 . S
C453 H441 0.950 . S
C453 C449 1.393 . S
C453 C452 1.391 . S
C454 H444 0.941 1_565 S
C454 C455 1.386 . S
C454 C456 1.391 . S
C455 C454 1.386 . S
C455 C459 1.393 . S
C456 H445 0.950 . S
C456 C454 1.391 . S
C456 C457 1.400 . S
C457 C451 1.491 . S
C457 C456 1.400 . S
C457 C458 1.398 . S
C458 H446 0.950 . S
C458 C457 1.398 . S
C458 C459 1.391 . S
C459 H447 0.950 . S
C459 C455 1.393 . S
C459 C458 1.391 . S
C235 C115 1.668 . S
C229 N41 1.691 . S
C249 N2 1.644 . S
C255 C210 1.627 . S
C269 N15 1.693 . S
C275 C126 1.654 . S
C289 N28 1.641 . S
C295 C199 1.622 . S
C315 C110 1.384 . S
C309 N5 1.600 . S
C335 C203 1.669 . S
C329 N14 1.665 . S
C349 N27 1.568 . S
C355 C119 1.614 . S
C369 N44 1.572 . S
C375 C194 1.439 . S
C395 C205 1.432 . S
C389 N18 1.567 . S
C415 C121 1.423 . S
C409 N31 1.595 . S
C435 C192 1.671 . S
C429 N40 1.674 . S
C449 N1 1.594 . S
C455 C108 1.613 . S
