# Generated by pormake.
# Topology ssa, (4,4)-cn, num edge types: 1
# Building blocks:
#     Node 0, Type 0, BuildingBlock: NAWXER_clean_sbu_0, # of connection points: 4
#     Node 1, Type 0, BuildingBlock: NAWXER_clean_sbu_0, # of connection points: 4
#     Node 2, Type 0, BuildingBlock: NAWXER_clean_sbu_0, # of connection points: 4
#     Node 3, Type 0, BuildingBlock: NAWXER_clean_sbu_0, # of connection points: 4
#     Node 4, Type 0, BuildingBlock: NAWXER_clean_sbu_0, # of connection points: 4
#     Node 5, Type 0, BuildingBlock: NAWXER_clean_sbu_0, # of connection points: 4
#     Node 6, Type 1, BuildingBlock: KUFVIS_clean_linker_0, # of connection points: 4
#     Node 7, Type 1, BuildingBlock: KUFVIS_clean_linker_0, # of connection points: 4
#     Node 8, Type 1, BuildingBlock: KUFVIS_clean_linker_0, # of connection points: 4
#     Node 9, Type 1, BuildingBlock: KUFVIS_clean_linker_0, # of connection points: 4
#     Node 10, Type 1, BuildingBlock: KUFVIS_clean_linker_0, # of connection points: 4
#     Node 11, Type 1, BuildingBlock: KUFVIS_clean_linker_0, # of connection points: 4
#     Edge 12, Type (0, 1), BuildingBlock: TEMPAE_clean_linker_10, # of connection points: 2
#     Edge 13, Type (0, 1), BuildingBlock: TEMPAE_clean_linker_10, # of connection points: 2
#     Edge 14, Type (0, 1), BuildingBlock: TEMPAE_clean_linker_10, # of connection points: 2
#     Edge 15, Type (0, 1), BuildingBlock: TEMPAE_clean_linker_10, # of connection points: 2
#     Edge 16, Type (0, 1), BuildingBlock: TEMPAE_clean_linker_10, # of connection points: 2
#     Edge 17, Type (0, 1), BuildingBlock: TEMPAE_clean_linker_10, # of connection points: 2
#     Edge 18, Type (0, 1), BuildingBlock: TEMPAE_clean_linker_10, # of connection points: 2
#     Edge 19, Type (0, 1), BuildingBlock: TEMPAE_clean_linker_10, # of connection points: 2
#     Edge 20, Type (0, 1), BuildingBlock: TEMPAE_clean_linker_10, # of connection points: 2
#     Edge 21, Type (0, 1), BuildingBlock: TEMPAE_clean_linker_10, # of connection points: 2
#     Edge 22, Type (0, 1), BuildingBlock: TEMPAE_clean_linker_10, # of connection points: 2
#     Edge 23, Type (0, 1), BuildingBlock: TEMPAE_clean_linker_10, # of connection points: 2
#     Edge 24, Type (0, 1), BuildingBlock: TEMPAE_clean_linker_10, # of connection points: 2
#     Edge 25, Type (0, 1), BuildingBlock: TEMPAE_clean_linker_10, # of connection points: 2
#     Edge 26, Type (0, 1), BuildingBlock: TEMPAE_clean_linker_10, # of connection points: 2
#     Edge 27, Type (0, 1), BuildingBlock: TEMPAE_clean_linker_10, # of connection points: 2
#     Edge 28, Type (0, 1), BuildingBlock: TEMPAE_clean_linker_10, # of connection points: 2
#     Edge 29, Type (0, 1), BuildingBlock: TEMPAE_clean_linker_10, # of connection points: 2
#     Edge 30, Type (0, 1), BuildingBlock: TEMPAE_clean_linker_10, # of connection points: 2
#     Edge 31, Type (0, 1), BuildingBlock: TEMPAE_clean_linker_10, # of connection points: 2
#     Edge 32, Type (0, 1), BuildingBlock: TEMPAE_clean_linker_10, # of connection points: 2
#     Edge 33, Type (0, 1), BuildingBlock: TEMPAE_clean_linker_10, # of connection points: 2
#     Edge 34, Type (0, 1), BuildingBlock: TEMPAE_clean_linker_10, # of connection points: 2
#     Edge 35, Type (0, 1), BuildingBlock: TEMPAE_clean_linker_10, # of connection points: 2
# Relax obj value: 0.007
# Max RMSD: 0.057
# Mean RMSD: 0.038
data_MOF--net-ssa--node1-NAWXER_clean_sbu_0--node2-KUFVIS_clean_linker_0--edge1-TEMPAE_clean_linker_10
_symmetry_space_group_name_H-M    P1
_symmetry_Int_Tables_number       1
_symmetry_cell_setting            triclinic
loop_
_symmetry_equiv_pos_as_xyz
'x, y, z'
_cell_length_a     52.82098
_cell_length_b     52.806283
_cell_length_c     28.80776
_cell_angle_alpha  89.955381
_cell_angle_beta   90.063258
_cell_angle_gamma 119.9783
loop_
_atom_site_label
_atom_site_type_symbol
_atom_site_fract_x
_atom_site_fract_y
_atom_site_fract_z
_atom_type_partial_charge
C0 C 0.06592 0.55497 0.00476 0.0
C1 C 1.00186 0.45609 0.94543 0.0
O2 O 0.04615 0.5381 0.03359 0.0
Zn3 Zn 0.01038 0.49416 0.03723 0.0
O4 O 0.06653 0.54543 0.96449 0.0
Zn5 Zn 0.0338 0.50593 0.97306 0.0
O6 O 0.99652 0.51162 0.97523 0.0
O7 O 0.97628 0.49883 0.04446 0.0
O8 O 0.02257 0.47735 0.92377 0.0
O9 O 0.99569 0.45975 0.98701 0.0
O10 O 0.02266 0.47864 0.08768 0.0
O11 O 0.05038 0.48901 0.02532 0.0
C12 C 0.97631 0.50802 0.00363 0.0
C13 C 0.04445 0.47958 0.06719 0.0
C14 C 0.50278 0.05307 0.48609 0.0
C15 C 0.53388 0.98495 0.43218 0.0
O16 O 0.4997 0.03404 0.51665 0.0
Zn17 Zn 0.50674 0.99751 0.52326 0.0
O18 O 0.51211 0.05197 0.44589 0.0
Zn19 Zn 0.5177 0.01878 0.4573 0.0
O20 O 0.47427 0.98244 0.46278 0.0
O21 O 0.46785 0.96417 0.53342 0.0
O22 O 0.53361 0.00533 0.409 0.0
O23 O 0.52476 0.9803 0.47423 0.0
O24 O 0.53542 0.01077 0.57256 0.0
O25 O 0.55211 0.03626 0.50789 0.0
C26 C 0.45795 0.96329 0.49283 0.0
C27 C 0.55619 0.03153 0.55017 0.0
C28 C 0.49188 0.45811 0.94592 0.0
C29 C 0.52305 0.55911 0.99112 0.0
O30 O 0.49144 0.47757 0.92034 0.0
Zn31 Zn 0.50619 0.50896 0.96606 0.0
O32 O 0.50027 0.46417 0.98817 0.0
Zn33 Zn 0.51626 0.49988 0.03492 0.0
O34 O 0.48575 0.48647 0.08203 0.0
O35 O 0.47143 0.49443 0.01438 0.0
O36 O 0.52518 0.54336 0.02303 0.0
O37 O 0.51267 0.54794 0.95157 0.0
O38 O 0.54959 0.51725 0.97629 0.0
O39 O 0.55525 0.50593 0.04798 0.0
C40 C 0.46604 0.48687 0.05704 0.0
C41 C 0.56575 0.51539 0.00775 0.0
C42 C 0.03794 0.55086 0.44974 0.0
C43 C 0.9729 0.45379 0.51367 0.0
O44 O 0.04344 0.5485 0.4924 0.0
Zn45 Zn 0.02784 0.51524 0.54512 0.0
O46 O 0.01771 0.52889 0.42863 0.0
Zn47 Zn 1.00581 0.50198 0.48015 0.0
O48 O 0.98847 0.52073 0.52808 0.0
O49 O 0.0145 0.53161 0.59261 0.0
O50 O 0.97318 0.46247 0.47242 0.0
O51 O 0.99212 0.47122 0.54275 0.0
O52 O 0.06191 0.5111 0.55678 0.0
O53 O 0.0431 0.49631 0.48708 0.0
C54 C 0.99357 0.53087 0.56959 0.0
C55 C 0.06273 0.50076 0.51733 0.0
C56 C 0.52129 0.96977 0.99406 0.0
C57 C 0.49177 0.03837 0.93692 0.0
O58 O 0.52506 0.98941 0.02383 0.0
Zn59 Zn 0.5187 0.02631 0.0291 0.0
O60 O 0.5116 0.97035 0.9539 0.0
Zn61 Zn 0.50698 1.00419 0.96398 0.0
O62 O 0.55088 0.04024 0.96845 0.0
O63 O 0.55786 0.05917 0.03868 0.0
O64 O 0.49097 0.01703 0.91515 0.0
O65 O 0.50135 0.04368 0.97876 0.0
O66 O 0.49028 0.01381 0.07883 0.0
O67 O 0.47278 0.988 0.01461 0.0
C68 C 0.56754 0.05952 -0.00186 0.0
C69 C 0.46915 0.99324 0.05677 0.0
C70 C 0.58556 0.53105 0.50504 0.0
C71 C 0.48701 0.49829 0.44353 0.0
O72 O 0.56878 0.53512 0.5323 0.0
Zn73 Zn 0.52605 0.52926 0.53397 0.0
O74 O 0.57677 0.52141 0.46421 0.0
Zn75 Zn 0.53767 0.51705 0.46853 0.0
O76 O 0.54396 0.55997 0.46967 0.0
O77 O 0.53084 0.56856 0.53783 0.0
O78 O 0.50777 0.4991 0.41976 0.0
O79 O 0.49196 0.50916 0.4844 0.0
O80 O 0.50822 0.49973 0.58325 0.0
O81 O 0.51767 0.4833 0.51871 0.0
C82 C 0.54026 0.57706 0.49682 0.0
C83 C 0.50708 0.4787 0.55974 0.0
H84 H 0.32254 0.44155 0.26467 0.0
H85 H 0.2647 0.44955 0.35937 0.0
H86 H 0.26472 0.46929 0.21288 0.0
H87 H 0.21792 0.45382 0.22416 0.0
H88 H 0.17309 0.48365 0.31188 0.0
H89 H 0.24407 0.47625 0.36827 0.0
C90 C 0.30431 0.4452 0.27075 0.0
C91 C 0.29346 0.45389 0.23382 0.0
C92 C 0.29484 0.44476 0.31597 0.0
C93 C 0.27209 0.45072 0.32405 0.0
C94 C 0.2596 0.4584 0.28683 0.0
C95 C 0.2716 0.46105 0.24175 0.0
C96 C 0.23509 0.46471 0.29477 0.0
C97 C 0.21608 0.46183 0.25781 0.0
C98 C 0.19445 0.46952 0.26375 0.0
C99 C 0.19049 0.4786 0.30714 0.0
C100 C 0.2078 0.48026 0.34492 0.0
C101 C 0.23031 0.47372 0.33882 0.0
H102 H 0.68868 0.16466 0.78233 0.0
H103 H 0.76853 0.23688 0.8322 0.0
H104 H 0.76051 0.20837 0.68877 0.0
H105 H 0.79104 0.25584 0.6758 0.0
H106 H 0.8784 0.31368 0.72149 0.0
H107 H 0.81565 0.25492 0.81935 0.0
C108 C 0.71092 0.18204 0.77582 0.0
C109 C 0.72265 0.18527 0.73151 0.0
C110 C 0.72762 0.2001 0.81222 0.0
C111 C 0.75639 0.22254 0.80379 0.0
C112 C 0.76879 0.22653 0.75877 0.0
C113 C 0.75164 0.20695 0.72314 0.0
C114 C 0.79928 0.25084 0.7486 0.0
C115 C 0.80712 0.26288 0.70331 0.0
C116 C 0.83582 0.28481 0.6934 0.0
C117 C 0.85662 0.29565 0.7288 0.0
C118 C 0.84909 0.28554 0.77423 0.0
C119 C 0.82069 0.26286 0.78405 0.0
H120 H 0.52736 0.67774 0.23877 0.0
H121 H 0.53844 0.74926 0.15511 0.0
H122 H 0.53108 0.75193 0.30491 0.0
H123 H 0.55062 0.79863 0.29636 0.0
H124 H 0.54215 0.86072 0.21248 0.0
H125 H 0.52253 0.77922 0.15226 0.0
C126 C 0.52895 0.69898 0.23613 0.0
C127 C 0.52948 0.71379 0.2767 0.0
C128 C 0.53132 0.71141 0.19232 0.0
C129 C 0.5353 0.73967 0.18921 0.0
C130 C 0.5349 0.75502 0.22927 0.0
C131 C 0.53204 0.74155 0.2732 0.0
C132 C 0.53705 0.78456 0.22475 0.0
C133 C 0.54526 0.80406 0.26299 0.0
C134 C 0.54672 0.83122 0.25847 0.0
C135 C 0.54101 0.83968 0.21575 0.0
C136 C 0.53283 0.82108 0.17758 0.0
C137 C 0.53038 0.79352 0.18206 0.0
H138 H 0.87568 0.55093 0.79253 0.0
H139 H 0.79129 0.52103 0.8507 0.0
H140 H 0.80833 0.54723 0.70573 0.0
H141 H 0.76174 0.52531 0.6976 0.0
H142 H 0.68518 0.51656 0.76302 0.0
H143 H 0.75823 0.53292 0.84722 0.0
C144 C 0.85357 0.5471 0.78871 0.0
C145 C 0.84361 0.54955 0.74504 0.0
C146 C 0.83476 0.53725 0.82668 0.0
C147 C 0.80562 0.53029 0.82116 0.0
C148 C 0.79535 0.53481 0.77803 0.0
C149 C 0.81489 0.54412 0.73979 0.0
C150 C 0.76456 0.52952 0.7732 0.0
C151 C 0.75084 0.52545 0.7292 0.0
C152 C 0.7223 0.52092 0.72537 0.0
C153 C 0.70696 0.51946 0.76581 0.0
C154 C 0.71961 0.52295 0.80972 0.0
C155 C 0.74855 0.52886 0.81307 0.0
H156 H 0.15947 0.6891 0.21553 0.0
H157 H 0.24268 0.7579 0.16943 0.0
H158 H 0.21528 0.7547 0.31242 0.0
H159 H 0.26321 0.77828 0.32553 0.0
H160 H 0.33278 0.8611 0.27976 0.0
H161 H 0.26669 0.80625 0.18265 0.0
C162 C 0.17965 0.70929 0.22273 0.0
C163 C 0.18547 0.7204 0.26774 0.0
C164 C 0.20009 0.72288 0.18737 0.0
C165 C 0.22672 0.74832 0.19698 0.0
C166 C 0.23273 0.76068 0.24218 0.0
C167 C 0.21169 0.74616 0.27743 0.0
C168 C 0.26072 0.78841 0.25268 0.0
C169 C 0.27304 0.79418 0.29793 0.0
C170 C 0.29876 0.8205 0.30762 0.0
C171 C 0.31262 0.84094 0.27234 0.0
C172 C 0.30134 0.83555 0.22745 0.0
C173 C 0.27537 0.80956 0.21756 0.0
H174 H 0.44588 0.31322 0.74205 0.0
H175 H 0.47389 0.25589 0.79483 0.0
H176 H 0.45566 0.25635 0.64773 0.0
H177 H 0.48075 0.23462 0.63868 0.0
H178 H 0.49102 0.16561 0.69598 0.0
H179 H 0.46107 0.21015 0.78397 0.0
C180 C 0.44975 0.2951 0.73613 0.0
C181 C 0.45011 0.28602 0.69091 0.0
C182 C 0.45813 0.28418 0.77335 0.0
C183 C 0.46574 0.26261 0.76566 0.0
C184 C 0.46372 0.25083 0.72055 0.0
C185 C 0.45631 0.26342 0.6831 0.0
C186 C 0.47058 0.22662 0.7128 0.0
C187 C 0.47905 0.22147 0.66853 0.0
C188 C 0.48612 0.19931 0.66252 0.0
C189 C 0.48561 0.18278 0.70064 0.0
C190 C 0.47708 0.18705 0.74428 0.0
C191 C 0.46876 0.20822 0.75011 0.0
C192 C 0.08765 0.47222 0.06793 0.0
C193 C 0.06436 0.47194 0.09188 0.0
C194 C 0.10891 0.46864 0.09146 0.0
C195 C 0.10688 0.46473 0.14014 0.0
C196 C 0.08259 0.46283 0.16419 0.0
C197 C 0.06158 0.46643 0.13975 0.0
C198 C 0.1344 0.4707 0.06456 0.0
C199 C 0.07962 0.45856 0.21615 0.0
C200 C 0.1543 0.44164 0.20673 0.0
C201 C 0.17544 0.46845 0.22536 0.0
C202 C 0.13226 0.44007 0.1774 0.0
C203 C 0.13164 0.46596 0.16661 0.0
C204 C 0.15402 0.49324 0.18339 0.0
C205 C 0.17556 0.49411 0.21275 0.0
C206 C 0.10879 0.41063 0.1601 0.0
C207 C 0.15441 0.5214 0.17228 0.0
H208 H 0.08986 0.47618 0.03083 0.0
H209 H 0.04361 0.46605 0.15848 0.0
H210 H 0.15453 0.49142 0.07346 0.0
H211 H 0.13819 0.4525 0.0741 0.0
H212 H 0.13096 0.4702 0.02644 0.0
H213 H 0.05815 0.45472 0.22897 0.0
H214 H 0.08228 0.43978 0.22647 0.0
H215 H 0.09714 0.47827 0.23366 0.0
H216 H 0.15409 0.4218 0.21713 0.0
H217 H 0.19194 0.51478 0.22752 0.0
H218 H 0.10545 0.41141 0.12222 0.0
H219 H 0.08779 0.40471 0.17739 0.0
H220 H 0.11416 0.39316 0.16722 0.0
H221 H 0.15306 0.52372 0.13422 0.0
H222 H 0.17442 0.54091 0.18547 0.0
H223 H 0.13507 0.52103 0.18808 0.0
C224 C 0.60737 0.07346 0.54672 0.0
C225 C 0.58437 0.05167 0.57294 0.0
C226 C 0.63295 0.09506 0.56811 0.0
C227 C 0.63561 0.09493 0.61692 0.0
C228 C 0.61318 0.07213 0.64339 0.0
C229 C 0.58781 0.05072 0.62105 0.0
C230 C 0.65641 0.1189 0.53869 0.0
C231 C 0.61531 0.0712 0.69558 0.0
C232 C 0.70787 0.14278 0.67863 0.0
C233 C 0.7037 0.16541 0.6948 0.0
C234 C 0.6863 0.12003 0.65167 0.0
C235 C 0.66021 0.1202 0.64081 0.0
C236 C 0.65678 0.14397 0.65506 0.0
C237 C 0.67853 0.16622 0.68213 0.0
C238 C 0.6907 0.09506 0.63707 0.0
C239 C 0.62946 0.14519 0.64378 0.0
H240 H 0.60507 0.07423 0.50943 0.0
H241 H 0.57023 0.03392 0.64154 0.0
H242 H 0.65695 0.13985 0.54549 0.0
H243 H 0.67822 0.12212 0.54789 0.0
H244 H 0.65261 0.11402 0.501 0.0
H245 H 0.5974 0.05065 0.71058 0.0
H246 H 0.63655 0.07336 0.70581 0.0
H247 H 0.6143 0.08991 0.71106 0.0
H248 H 0.7272 0.14206 0.68923 0.0
H249 H 0.67536 0.1837 0.69519 0.0
H250 H 0.68575 0.09024 0.59962 0.0
H251 H 0.67539 0.07506 0.65656 0.0
H252 H 0.71337 0.09976 0.64374 0.0
H253 H 0.62501 0.14236 0.60593 0.0
H254 H 0.63114 0.16615 0.6547 0.0
H255 H 0.61043 0.12702 0.66159 0.0
C256 C 0.55 0.60304 0.04028 0.0
C257 C 0.53053 0.58921 0.00345 0.0
C258 C 0.55198 0.62766 0.06191 0.0
C259 C 0.53419 0.63892 0.04606 0.0
C260 C 0.51696 0.62708 0.00555 0.0
C261 C 0.51522 0.60215 0.98466 0.0
C262 C 0.57085 0.63961 0.10474 0.0
C263 C 0.49846 0.63912 0.98667 0.0
C264 C 0.50828 0.66451 0.14816 0.0
C265 C 0.52937 0.69427 0.15015 0.0
C266 C 0.50836 0.64665 0.11237 0.0
C267 C 0.52983 0.65894 0.07707 0.0
C268 C 0.5496 0.68946 0.07659 0.0
C269 C 0.5493 0.7068 0.11343 0.0
C270 C 0.48678 0.61422 0.11436 0.0
C271 C 0.57224 0.70353 0.0389 0.0
H272 H 0.56232 0.5934 0.05432 0.0
H273 H 0.50028 0.59162 0.95599 0.0
H274 H 0.58431 0.66376 0.10294 0.0
H275 H 0.55667 0.63406 0.13587 0.0
H276 H 0.58563 0.63051 0.10947 0.0
H277 H 0.49233 0.63271 0.94986 0.0
H278 H 0.47808 0.63041 0.00733 0.0
H279 H 0.51008 0.66331 0.9893 0.0
H280 H 0.49227 0.65489 0.17573 0.0
H281 H 0.56558 0.72984 0.11456 0.0
H282 H 0.49862 0.60217 0.12125 0.0
H283 H 0.47537 0.60643 0.08062 0.0
H284 H 0.47013 0.60854 0.14198 0.0
H285 H 0.59088 0.70003 0.0463 0.0
H286 H 0.58075 0.72746 0.03692 0.0
H287 H 0.56311 0.69362 0.00458 0.0
C288 C 0.96847 0.53659 0.6388 0.0
C289 C 0.97379 0.53976 0.59096 0.0
C290 C 0.94697 0.54141 0.65862 0.0
C291 C 0.93101 0.5504 0.63003 0.0
C292 C 0.93743 0.55516 0.58209 0.0
C293 C 0.95846 0.54934 0.56298 0.0
C294 C 0.94044 0.53561 0.70983 0.0
C295 C 0.92158 0.56561 0.5508 0.0
C296 C 0.85625 0.52872 0.67828 0.0
C297 C 0.86252 0.55331 0.70495 0.0
C298 C 0.87798 0.52809 0.65122 0.0
C299 C 0.90643 0.55292 0.65019 0.0
C300 C 0.91195 0.57882 0.67343 0.0
C301 C 0.89 0.57855 0.70124 0.0
C302 C 0.87124 0.49989 0.62755 0.0
C303 C 0.94166 0.60604 0.672 0.0
H304 H 0.98014 0.52899 0.66043 0.0
H305 H 0.96272 0.55205 0.52597 0.0
H306 H 0.94279 0.55538 0.72727 0.0
H307 H 0.91749 0.51788 0.71471 0.0
H308 H 0.9551 0.52912 0.72731 0.0
H309 H 0.93145 0.57146 0.51561 0.0
H310 H 0.89839 0.54822 0.54722 0.0
H311 H 0.92177 0.58497 0.56619 0.0
H312 H 0.83514 0.50905 0.68202 0.0
H313 H 0.89487 0.59742 0.72244 0.0
H314 H 0.88294 0.49019 0.64569 0.0
H315 H 0.87899 0.50399 0.5911 0.0
H316 H 0.84748 0.48366 0.62773 0.0
H317 H 0.95696 0.60303 0.69465 0.0
H318 H 0.94086 0.62556 0.68426 0.0
H319 H 0.95069 0.61021 0.63626 0.0
C320 C 0.43994 0.96848 0.12767 0.0
C321 C 0.44104 0.97358 0.07981 0.0
C322 C 0.41434 0.94641 0.14851 0.0
C323 C 0.38915 0.92953 0.12089 0.0
C324 C 0.38966 0.93585 0.07308 0.0
C325 C 0.4157 0.95759 0.05301 0.0
C326 C 0.41474 0.94011 0.19958 0.0
C327 C 0.36307 0.91886 0.04276 0.0
C328 C 0.33889 0.85292 0.16594 0.0
C329 C 0.3186 0.85693 0.19125 0.0
C330 C 0.36132 0.87615 0.14113 0.0
C331 C 0.36317 0.90387 0.14144 0.0
C332 C 0.34144 0.90739 0.16445 0.0
C333 C 0.31956 0.88389 0.18969 0.0
C334 C 0.3842 0.87154 0.11743 0.0
C335 C 0.34232 0.93639 0.1648 0.0
H336 H 0.45952 0.98067 0.14842 0.0
H337 H 0.41641 0.96166 0.016 0.0
H338 H 0.39638 0.9404 0.2177 0.0
H339 H 0.41177 0.9179 0.20406 0.0
H340 H 0.43553 0.95613 0.21663 0.0
H341 H 0.36601 0.92867 0.00766 0.0
H342 H 0.35857 0.89608 0.03883 0.0
H343 H 0.34356 0.91778 0.05915 0.0
H344 H 0.33839 0.83217 0.16824 0.0
H345 H 0.30409 0.88697 0.21015 0.0
H346 H 0.40554 0.88473 0.13518 0.0
H347 H 0.38705 0.87907 0.08088 0.0
H348 H 0.37853 0.84825 0.11785 0.0
H349 H 0.36065 0.95205 0.18703 0.0
H350 H 0.32172 0.93439 0.17839 0.0
H351 H 0.34624 0.94579 0.12932 0.0
C352 C 0.49413 0.44131 0.62277 0.0
C353 C 0.49215 0.44824 0.57656 0.0
C354 C 0.48343 0.41203 0.63608 0.0
C355 C 0.47014 0.38943 0.60244 0.0
C356 C 0.46656 0.39634 0.55645 0.0
C357 C 0.47775 0.42565 0.54405 0.0
C358 C 0.4875 0.40539 0.6856 0.0
C359 C 0.45202 0.37293 0.51984 0.0
C360 C 0.47655 0.32272 0.63001 0.0
C361 C 0.45025 0.30524 0.65349 0.0
C362 C 0.48268 0.3496 0.61073 0.0
C363 C 0.46181 0.35888 0.61471 0.0
C364 C 0.43393 0.33972 0.63365 0.0
C365 C 0.42846 0.31303 0.65282 0.0
C366 C 0.51253 0.36924 0.59016 0.0
C367 C 0.41086 0.3485 0.63766 0.0
H368 H 0.50528 0.45876 0.64783 0.0
H369 H 0.47578 0.43097 0.50834 0.0
H370 H 0.46628 0.38862 0.7004 0.0
H371 H 0.50239 0.39624 0.6865 0.0
H372 H 0.49679 0.42513 0.70803 0.0
H373 H 0.44817 0.38162 0.48709 0.0
H374 H 0.46602 0.36332 0.51199 0.0
H375 H 0.4308 0.35498 0.53267 0.0
H376 H 0.49356 0.31693 0.63109 0.0
H377 H 0.40821 0.29957 0.67139 0.0
H378 H 0.52516 0.3882 0.61349 0.0
H379 H 0.5106 0.37794 0.55611 0.0
H380 H 0.52507 0.35768 0.58538 0.0
H381 H 0.41696 0.36484 0.66587 0.0
H382 H 0.38903 0.32951 0.64578 0.0
H383 H 0.40927 0.35884 0.60508 0.0
C384 C 0.5394 0.95981 0.36268 0.0
C385 C 0.54256 0.96505 0.41056 0.0
C386 C 0.54355 0.93786 0.34287 0.0
C387 C 0.55171 0.92126 0.37155 0.0
C388 C 0.55661 0.92767 0.41946 0.0
C389 C 0.55163 0.94925 0.43851 0.0
C390 C 0.53778 0.93148 0.29163 0.0
C391 C 0.56609 0.91103 0.45088 0.0
C392 C 0.52677 0.84554 0.32423 0.0
C393 C 0.55119 0.85043 0.29836 0.0
C394 C 0.52721 0.86803 0.35071 0.0
C395 C 0.55288 0.89587 0.35167 0.0
C396 C 0.57846 0.9 0.329 0.0
C397 C 0.57718 0.87728 0.30196 0.0
C398 C 0.49937 0.86274 0.37395 0.0
C399 C 0.60646 0.92908 0.33019 0.0
H400 H 0.53225 0.97186 0.34103 0.0
H401 H 0.55436 0.95342 0.47554 0.0
H402 H 0.55709 0.93257 0.2745 0.0
H403 H 0.51917 0.90896 0.28668 0.0
H404 H 0.53254 0.947 0.27391 0.0
H405 H 0.57236 0.92099 0.48598 0.0
H406 H 0.54798 0.88817 0.45468 0.0
H407 H 0.58489 0.91017 0.4355 0.0
H408 H 0.50653 0.82493 0.32041 0.0
H409 H 0.59586 0.88111 0.28113 0.0
H410 H 0.49072 0.87532 0.35558 0.0
H411 H 0.50366 0.87049 0.41041 0.0
H412 H 0.48226 0.83926 0.37371 0.0
H413 H 0.60432 0.94476 0.30716 0.0
H414 H 0.62544 0.92719 0.31824 0.0
H415 H 0.61094 0.93835 0.36578 0.0
C416 C 0.60913 0.50809 0.01498 0.0
C417 C 0.59553 0.52228 0.99439 0.0
C418 C 0.63405 0.50956 0.99452 0.0
C419 C 0.64522 0.52536 0.9526 0.0
C420 C 0.63311 0.54188 0.93441 0.0
C421 C 0.60855 0.54023 0.95565 0.0
C422 C 0.64694 0.49239 0.01576 0.0
C423 C 0.64431 0.55919 0.88994 0.0
C424 C 0.71401 0.5417 0.88723 0.0
C425 C 0.70224 0.52079 0.85166 0.0
C426 C 0.69621 0.54196 0.92331 0.0
C427 C 0.66596 0.52111 0.92324 0.0
C428 C 0.65455 0.49867 0.88938 0.0
C429 C 0.67287 0.49869 0.85428 0.0
C430 C 0.70938 0.56572 0.95952 0.0
C431 C 0.62245 0.47593 0.8879 0.0
H432 H 0.59925 0.49432 0.04511 0.0
H433 H 0.59843 0.55172 0.94013 0.0
H434 H 0.63865 0.4714 0.99692 0.0
H435 H 0.67112 0.5045 0.01285 0.0
H436 H 0.64081 0.4874 0.05291 0.0
H437 H 0.63427 0.57294 0.88288 0.0
H438 H 0.66837 0.57356 0.89138 0.0
H439 H 0.63929 0.54395 0.86034 0.0
H440 H 0.73673 0.55879 0.8856 0.0
H441 H 0.66386 0.482 0.82758 0.0
H442 H 0.6999 0.55713 0.99426 0.0
H443 H 0.70446 0.58326 0.9506 0.0
H444 H 0.7335 0.57559 0.96146 0.0
H445 H 0.61493 0.46562 0.92246 0.0
H446 H 0.61761 0.45849 0.86202 0.0
H447 H 0.60953 0.48656 0.87874 0.0
C448 C 0.06171 0.57876 0.37748 0.0
C449 C 0.05651 0.57866 0.42514 0.0
C450 C 0.0823 0.6045 0.35503 0.0
C451 C 0.09743 0.63084 0.38073 0.0
C452 C 0.09104 0.63114 0.42832 0.0
C453 C 0.07093 0.60494 0.45012 0.0
C454 C 0.08884 0.6032 0.30433 0.0
C455 C 0.10608 0.65893 0.45651 0.0
C456 C 0.17187 0.68535 0.33269 0.0
C457 C 0.16497 0.70269 0.30467 0.0
C458 C 0.15026 0.66256 0.35929 0.0
C459 C 0.12125 0.65747 0.3583 0.0
C460 C 0.11474 0.67639 0.3326 0.0
C461 C 0.13665 0.69856 0.3054 0.0
C462 C 0.15801 0.64262 0.38563 0.0
C463 C 0.0843 0.67217 0.33164 0.0
H464 H 0.05073 0.55844 0.35817 0.0
H465 H 0.06674 0.60494 0.48696 0.0
H466 H 0.08598 0.6195 0.2842 0.0
H467 H 0.11196 0.60878 0.30031 0.0
H468 H 0.07457 0.58123 0.28903 0.0
H469 H 0.0964 0.65612 0.49166 0.0
H470 H 0.12958 0.66596 0.46042 0.0
H471 H 0.10477 0.67678 0.43837 0.0
H472 H 0.1937 0.68831 0.33118 0.0
H473 H 0.13139 0.71183 0.28307 0.0
H474 H 0.14658 0.6205 0.36981 0.0
H475 H 0.15062 0.64032 0.42218 0.0
H476 H 0.18189 0.65072 0.38534 0.0
H477 H 0.06975 0.6524 0.31103 0.0
H478 H 0.08389 0.69118 0.31592 0.0
H479 H 0.07518 0.66869 0.36726 0.0
C480 C 0.47705 0.05557 0.86616 0.0
C481 C 0.48375 0.05842 0.91364 0.0
C482 C 0.47291 0.07657 0.84279 0.0
C483 C 0.4755 0.10095 0.86753 0.0
C484 C 0.48067 0.10309 0.91591 0.0
C485 C 0.48475 0.08182 0.93838 0.0
C486 C 0.4673 0.07347 0.79112 0.0
C487 C 0.48348 0.12867 0.94352 0.0
C488 C 0.50302 0.16904 0.79403 0.0
C489 C 0.47704 0.16869 0.78296 0.0
C490 C 0.50293 0.14787 0.82339 0.0
C491 C 0.4761 0.12565 0.84178 0.0
C492 C 0.44997 0.12616 0.83277 0.0
C493 C 0.45076 0.14781 0.80336 0.0
C494 C 0.53134 0.14836 0.83253 0.0
C495 C 0.421 0.10289 0.85189 0.0
H496 H 0.47608 0.03751 0.84682 0.0
H497 H 0.48967 0.0841 0.97519 0.0
H498 H 0.44824 0.07605 0.78247 0.0
H499 H 0.48652 0.09098 0.77263 0.0
H500 H 0.46316 0.05198 0.77784 0.0
H501 H 0.48386 0.12527 0.98152 0.0
H502 H 0.50403 0.14874 0.93377 0.0
H503 H 0.46515 0.13255 0.9355 0.0
H504 H 0.52329 0.18523 0.77797 0.0
H505 H 0.43065 0.14743 0.79421 0.0
H506 H 0.53065 0.12899 0.8162 0.0
H507 H 0.53453 0.14713 0.87036 0.0
H508 H 0.55051 0.16835 0.81854 0.0
H509 H 0.41445 0.08179 0.83439 0.0
H510 H 0.40347 0.10839 0.84653 0.0
H511 H 0.42284 0.09967 0.88954 0.0
C512 C 0.44924 0.48584 0.38134 0.0
C513 C 0.45646 0.4835 0.42722 0.0
C514 C 0.41993 0.47551 0.36871 0.0
C515 C 0.39757 0.46222 0.40271 0.0
C516 C 0.40474 0.45822 0.44831 0.0
C517 C 0.43409 0.46907 0.46004 0.0
C518 C 0.41301 0.48001 0.31958 0.0
C519 C 0.38159 0.44368 0.48527 0.0
C520 C 0.33149 0.47009 0.37734 0.0
C521 C 0.31365 0.44409 0.35333 0.0
C522 C 0.35827 0.4756 0.39621 0.0
C523 C 0.36706 0.4544 0.39127 0.0
C524 C 0.34749 0.42676 0.37192 0.0
C525 C 0.32091 0.42191 0.35317 0.0
C526 C 0.37834 0.50521 0.41726 0.0
C527 C 0.35573 0.40335 0.3669 0.0
H528 H 0.46654 0.49703 0.35606 0.0
H529 H 0.43965 0.46685 0.4955 0.0
H530 H 0.39608 0.45893 0.30457 0.0
H531 H 0.40397 0.495 0.31954 0.0
H532 H 0.4326 0.4894 0.29683 0.0
H533 H 0.39039 0.43932 0.51745 0.0
H534 H 0.37245 0.45795 0.49416 0.0
H535 H 0.36328 0.42272 0.47228 0.0
H536 H 0.32608 0.48739 0.37689 0.0
H537 H 0.30718 0.4019 0.33416 0.0
H538 H 0.3972 0.51783 0.39375 0.0
H539 H 0.38717 0.50285 0.45092 0.0
H540 H 0.36711 0.51798 0.42294 0.0
H541 H 0.37177 0.40934 0.33828 0.0
H542 H 0.33645 0.38171 0.3588 0.0
H543 H 0.36621 0.4014 0.39905 0.0
C544 C 0.96911 0.40209 0.94925 0.0
C545 C 0.98321 0.42769 0.92252 0.0
C546 C 0.94828 0.37545 0.92943 0.0
C547 C 0.94078 0.37463 0.8821 0.0
C548 C 0.95571 0.40023 0.85455 0.0
C549 C 0.97707 0.42641 0.87503 0.0
C550 C 0.93355 0.34848 0.95954 0.0
C551 C 0.94801 0.40035 0.80406 0.0
C552 C 0.89809 0.30549 0.81104 0.0
C553 C 0.87016 0.3024 0.81123 0.0
C554 C 0.92098 0.32771 0.83679 0.0
C555 C 0.91589 0.34775 0.862 0.0
C556 C 0.88724 0.34355 0.86444 0.0
C557 C 0.86462 0.32067 0.83934 0.0
C558 C 0.95098 0.33089 0.83447 0.0
C559 C 0.88095 0.36465 0.89036 0.0
H560 H 0.97402 0.40302 0.98598 0.0
H561 H 0.98777 0.44622 0.85443 0.0
H562 H 0.91041 0.34232 0.9653 0.0
H563 H 0.93356 0.32978 0.942 0.0
H564 H 0.94438 0.35192 0.99388 0.0
H565 H 0.96234 0.42176 0.78709 0.0
H566 H 0.94977 0.38314 0.78475 0.0
H567 H 0.925 0.39534 0.80115 0.0
H568 H 0.90235 0.2915 0.78874 0.0
H569 H 0.84312 0.31858 0.83861 0.0
H570 H 0.96112 0.3353 0.86945 0.0
H571 H 0.96529 0.34974 0.81197 0.0
H572 H 0.95025 0.31103 0.82005 0.0
H573 H 0.88937 0.36771 0.92639 0.0
H574 H 0.8572 0.35713 0.89163 0.0
H575 H 0.89234 0.38633 0.87307 0.0
C576 C 0.95115 0.51876 0.93988 0.0
C577 C 0.95249 0.51296 0.98709 0.0
C578 C 0.92831 0.5221 0.92218 0.0
C579 C 0.90619 0.51991 0.95245 0.0
C580 C 0.90751 0.5145 0.00031 0.0
C581 C 0.93061 0.51091 0.01709 0.0
C582 C 0.92776 0.5277 0.87077 0.0
C583 C 0.8845 0.51236 0.03361 0.0
C584 C 0.86843 0.55586 0.8941 0.0
C585 C 0.84598 0.53205 0.87047 0.0
C586 C 0.88635 0.55184 0.92569 0.0
C587 C 0.88199 0.52339 0.93289 0.0
C588 C 0.85743 0.49902 0.91261 0.0
C589 C 0.83963 0.50368 0.88156 0.0
C590 C 0.91193 0.57839 0.94708 0.0
C591 C 0.85196 0.46834 0.91924 0.0
H592 H 0.96781 0.52026 0.91627 0.0
H593 H 0.93147 0.50644 0.0536 0.0
H594 H 0.90718 0.5103 0.85511 0.0
H595 H 0.92839 0.54881 0.86525 0.0
H596 H 0.94645 0.52843 0.85192 0.0
H597 H 0.88917 0.50906 0.07002 0.0
H598 H 0.88297 0.53255 0.03185 0.0
H599 H 0.86281 0.49388 0.02357 0.0
H600 H 0.8734 0.57782 0.88508 0.0
H601 H 0.82246 0.48535 0.86272 0.0
H602 H 0.9321 0.58379 0.92751 0.0
H603 H 0.9153 0.57409 0.98361 0.0
H604 H 0.90886 0.59772 0.94608 0.0
H605 H 0.86757 0.46526 0.89755 0.0
H606 H 0.82941 0.45169 0.90886 0.0
H607 H 0.85553 0.46449 0.95589 0.0
C608 C 0.41849 0.93995 0.43362 0.0
C609 C 0.42891 0.93915 0.47809 0.0
C610 C 0.3932 0.91601 0.41578 0.0
C611 C 0.37758 0.8905 0.44316 0.0
C612 C 0.387 0.89001 0.48905 0.0
C613 C 0.41269 0.91435 0.50597 0.0
C614 C 0.38398 0.91765 0.36663 0.0
C615 C 0.37079 0.8634 0.51951 0.0
C616 C 0.30495 0.84336 0.38495 0.0
C617 C 0.31253 0.82786 0.3539 0.0
C618 C 0.3248 0.86137 0.41912 0.0
C619 C 0.35284 0.86407 0.42151 0.0
C620 C 0.35896 0.84553 0.39403 0.0
C621 C 0.33868 0.82766 0.36036 0.0
C622 C 0.3171 0.88018 0.4485 0.0
C623 C 0.38842 0.84742 0.39565 0.0
H624 H 0.43065 0.95906 0.4119 0.0
H625 H 0.42054 0.91353 0.5404 0.0
H626 H 0.38523 0.90102 0.34474 0.0
H627 H 0.36098 0.91278 0.36608 0.0
H628 H 0.39791 0.93947 0.35064 0.0
H629 H 0.37722 0.86846 0.55655 0.0
H630 H 0.34681 0.85417 0.51652 0.0
H631 H 0.37573 0.84628 0.5081 0.0
H632 H 0.28482 0.84373 0.3795 0.0
H633 H 0.34459 0.81588 0.33588 0.0
H634 H 0.32689 0.90233 0.43291 0.0
H635 H 0.32598 0.88261 0.48416 0.0
H636 H 0.29307 0.87097 0.45054 0.0
H637 H 0.40468 0.86746 0.37717 0.0
H638 H 0.38789 0.82824 0.37878 0.0
H639 H 0.39601 0.84894 0.43197 0.0
C640 C 0.48458 0.40795 0.95728 0.0
C641 C 0.48463 0.42904 0.92738 0.0
C642 C 0.48001 0.38107 0.94038 0.0
C643 C 0.47536 0.37507 0.89239 0.0
C644 C 0.47477 0.39596 0.86208 0.0
C645 C 0.47939 0.42271 0.87995 0.0
C646 C 0.48068 0.35934 0.97375 0.0
C647 C 0.46981 0.3903 0.81056 0.0
C648 C 0.49133 0.32206 0.82835 0.0
C649 C 0.46298 0.29975 0.81781 0.0
C650 C 0.49589 0.34589 0.85593 0.0
C651 C 0.47146 0.34715 0.87333 0.0
C652 C 0.443 0.32297 0.86718 0.0
C653 C 0.43909 0.29952 0.8393 0.0
C654 C 0.52663 0.37107 0.86212 0.0
C655 C 0.4164 0.32323 0.88568 0.0
H656 H 0.48855 0.41255 0.99406 0.0
H657 H 0.47948 0.43886 0.85662 0.0
H658 H 0.46023 0.33795 0.97081 0.0
H659 H 0.49902 0.35568 0.96478 0.0
H660 H 0.48334 0.36684 0.01037 0.0
H661 H 0.46897 0.40832 0.79201 0.0
H662 H 0.48765 0.38765 0.79541 0.0
H663 H 0.44901 0.36966 0.80421 0.0
H664 H 0.50973 0.32247 0.81094 0.0
H665 H 0.41715 0.28246 0.83041 0.0
H666 H 0.53036 0.37914 0.89841 0.0
H667 H 0.52993 0.38944 0.83934 0.0
H668 H 0.54325 0.36487 0.853 0.0
H669 H 0.42004 0.33144 0.92189 0.0
H670 H 0.39664 0.30113 0.8847 0.0
H671 H 0.41214 0.33818 0.86424 0.0
C672 C 0.08724 0.48463 0.46014 0.0
C673 C 0.08716 0.49584 0.50425 0.0
C674 C 0.11128 0.48267 0.44438 0.0
C675 C 0.136 0.49193 0.4735 0.0
C676 C 0.13562 0.50201 0.51892 0.0
C677 C 0.11123 0.50398 0.53373 0.0
C678 C 0.11059 0.47171 0.39563 0.0
C679 C 0.16136 0.51177 0.55118 0.0
C680 C 0.18327 0.46447 0.42136 0.0
C681 C 0.19998 0.4873 0.39047 0.0
C682 C 0.16458 0.46693 0.45349 0.0
C683 C 0.16258 0.49271 0.4542 0.0
C684 C 0.18239 0.51713 0.42735 0.0
C685 C 0.20086 0.51409 0.39571 0.0
C686 C 0.1444 0.44062 0.48228 0.0
C687 C 0.18134 0.54518 0.42726 0.0
H688 H 0.06875 0.47809 0.43713 0.0
H689 H 0.11138 0.51263 0.5679 0.0
H690 H 0.12808 0.48933 0.37447 0.0
H691 H 0.1148 0.45313 0.39633 0.0
H692 H 0.08931 0.46441 0.37806 0.0
H693 H 0.15568 0.51386 0.58756 0.0
H694 H 0.1697 0.49622 0.55026 0.0
H695 H 0.17937 0.53336 0.53972 0.0
H696 H 0.18239 0.44365 0.417 0.0
H697 H 0.21366 0.53165 0.3715 0.0
H698 H 0.12272 0.42876 0.46506 0.0
H699 H 0.14113 0.44727 0.51728 0.0
H700 H 0.15294 0.4253 0.48607 0.0
H701 H 0.16211 0.54195 0.40685 0.0
H702 H 0.20128 0.5635 0.41147 0.0
H703 H 0.1789 0.55141 0.46302 0.0
C704 C 0.61365 0.10779 0.01117 0.0
C705 C 0.59679 0.08321 0.98317 0.0
C706 C 0.63965 0.13174 0.99427 0.0
C707 C 0.64877 0.1311 0.94828 0.0
C708 C 0.6325 0.10576 0.92076 0.0
C709 C 0.60688 0.0822 0.93857 0.0
C710 C 0.65654 0.15814 0.02489 0.0
C711 C 0.64139 0.10396 0.87151 0.0
C712 C 0.68844 0.19405 0.8659 0.0
C713 C 0.71423 0.19319 0.85887 0.0
C714 C 0.66811 0.17633 0.89958 0.0
C715 C 0.6738 0.1573 0.92662 0.0
C716 C 0.70159 0.15943 0.92391 0.0
C717 C 0.72155 0.17737 0.88978 0.0
C718 C 0.63898 0.17513 0.90161 0.0
C719 C 0.70885 0.14009 0.95284 0.0
H720 H 0.60608 0.10877 0.04571 0.0
H721 H 0.59421 0.06326 0.91674 0.0
H722 H 0.6804 0.16678 0.02173 0.0
H723 H 0.65217 0.17572 0.01377 0.0
H724 H 0.65017 0.15308 0.06194 0.0
H725 H 0.62703 0.08225 0.85548 0.0
H726 H 0.6405 0.12088 0.8498 0.0
H727 H 0.66421 0.10832 0.87076 0.0
H728 H 0.68277 0.20619 0.84172 0.0
H729 H 0.7414 0.17652 0.88406 0.0
H730 H 0.63157 0.17362 0.93801 0.0
H731 H 0.62237 0.15533 0.88302 0.0
H732 H 0.63991 0.19459 0.88506 0.0
H733 H 0.70006 0.1376 0.98854 0.0
H734 H 0.73282 0.14888 0.95479 0.0
H735 H 0.69867 0.11802 0.93692 0.0
C736 C 0.55805 0.61491 0.43464 0.0
C737 C 0.54358 0.60462 0.47721 0.0
C738 C 0.55641 0.63685 0.40971 0.0
C739 C 0.54002 0.64914 0.42777 0.0
C740 C 0.52731 0.64059 0.47249 0.0
C741 C 0.52917 0.61834 0.49671 0.0
C742 C 0.5705 0.64529 0.36233 0.0
C743 C 0.51013 0.65352 0.49342 0.0
C744 C 0.5504 0.71387 0.35516 0.0
C745 C 0.52811 0.69973 0.32217 0.0
C746 C 0.55321 0.69823 0.39259 0.0
C747 C 0.53334 0.66782 0.39685 0.0
C748 C 0.50929 0.65419 0.36595 0.0
C749 C 0.50698 0.67031 0.32912 0.0
C750 C 0.57881 0.71376 0.42522 0.0
C751 C 0.4874 0.62191 0.36917 0.0
H752 H 0.56956 0.60473 0.4195 0.0
H753 H 0.51793 0.61059 0.52959 0.0
H754 H 0.55327 0.63778 0.33525 0.0
H755 H 0.58408 0.66939 0.35934 0.0
H756 H 0.58446 0.63554 0.35498 0.0
H757 H 0.50682 0.64923 0.53132 0.0
H758 H 0.52131 0.67747 0.48745 0.0
H759 H 0.48836 0.64371 0.47656 0.0
H760 H 0.56681 0.7366 0.3499 0.0
H761 H 0.48951 0.65941 0.30396 0.0
H762 H 0.59597 0.70846 0.41565 0.0
H763 H 0.57217 0.70641 0.46152 0.0
H764 H 0.58846 0.73787 0.42357 0.0
H765 H 0.49807 0.6092 0.35899 0.0
H766 H 0.46823 0.61543 0.34615 0.0
H767 H 0.47954 0.61577 0.40535 0.0
C768 C 0.48697 0.07738 0.54417 0.0
C769 C 0.49776 0.07736 0.4997 0.0
C770 C 0.48535 0.10148 0.5606 0.0
C771 C 0.49454 0.12633 0.53181 0.0
C772 C 0.50408 0.12597 0.48599 0.0
C773 C 0.50569 0.1015 0.47049 0.0
C774 C 0.47493 0.10077 0.60973 0.0
C775 C 0.51376 0.15185 0.45407 0.0
C776 C 0.46895 0.17454 0.5864 0.0
C777 C 0.49224 0.19093 0.61672 0.0
C778 C 0.47058 0.15562 0.55375 0.0
C779 C 0.49604 0.15308 0.5519 0.0
C780 C 0.52092 0.17253 0.57822 0.0
C781 C 0.51869 0.19124 0.6104 0.0
C782 C 0.44381 0.13581 0.52556 0.0
C783 C 0.54865 0.17091 0.57709 0.0
H784 H 0.48056 0.05881 0.56696 0.0
H785 H 0.51403 0.1017 0.43605 0.0
H786 H 0.49291 0.11798 0.63076 0.0
H787 H 0.45663 0.10539 0.60989 0.0
H788 H 0.46745 0.07933 0.6269 0.0
H789 H 0.51522 0.14616 0.41743 0.0
H790 H 0.49852 0.16054 0.45602 0.0
H791 H 0.53563 0.1696 0.465 0.0
H792 H 0.4484 0.17412 0.59155 0.0
H793 H 0.53664 0.20383 0.6341 0.0
H794 H 0.43185 0.11412 0.5427 0.0
H795 H 0.4499 0.13246 0.4902 0.0
H796 H 0.42877 0.14475 0.52266 0.0
H797 H 0.54528 0.15145 0.59697 0.0
H798 H 0.56735 0.19061 0.59276 0.0
H799 H 0.55438 0.16849 0.54099 0.0
C800 C 0.43147 0.4749 0.12409 0.0
C801 C 0.43743 0.48036 0.07661 0.0
C802 C 0.40504 0.47059 0.14284 0.0
C803 C 0.3841 0.47177 0.11338 0.0
C804 C 0.3898 0.47681 0.06538 0.0
C805 C 0.41634 0.48103 0.04759 0.0
C806 C 0.3997 0.46519 0.19434 0.0
C807 C 0.36803 0.47817 0.03291 0.0
C808 C 0.3087 0.43543 0.16699 0.0
C809 C 0.30915 0.45918 0.1894 0.0
C810 C 0.33207 0.43945 0.13881 0.0
C811 C 0.35639 0.4679 0.13328 0.0
C812 C 0.35541 0.49225 0.15179 0.0
C813 C 0.33166 0.48757 0.17967 0.0
C814 C 0.33203 0.41294 0.11918 0.0
C815 C 0.38076 0.52297 0.14631 0.0
H816 H 0.44763 0.47444 0.14675 0.0
H817 H 0.42066 0.48521 0.01079 0.0
H818 H 0.39736 0.48302 0.21034 0.0
H819 H 0.379 0.44445 0.20057 0.0
H820 H 0.41773 0.46399 0.21217 0.0
H821 H 0.37541 0.48143 0.99619 0.0
H822 H 0.34662 0.45771 0.03537 0.0
H823 H 0.36447 0.4964 0.04318 0.0
H824 H 0.29149 0.41345 0.1753 0.0
H825 H 0.33225 0.50584 0.19783 0.0
H826 H 0.34706 0.4084 0.13984 0.0
H827 H 0.33999 0.41689 0.08283 0.0
H828 H 0.3099 0.39323 0.12014 0.0
H829 H 0.38873 0.52708 0.10997 0.0
H830 H 0.39912 0.52581 0.16869 0.0
H831 H 0.3748 0.53963 0.15639 0.0
C832 C 0.94936 0.41664 0.57634 0.0
C833 C 0.94968 0.4246 0.52978 0.0
C834 C 0.92672 0.39029 0.5939 0.0
C835 C 0.90373 0.37107 0.56413 0.0
C836 C 0.90417 0.37851 0.51678 0.0
C837 C 0.92711 0.4053 0.50015 0.0
C838 C 0.92721 0.38331 0.64473 0.0
C839 C 0.88018 0.35848 0.48399 0.0
C840 C 0.86554 0.29724 0.62168 0.0
C841 C 0.84455 0.29963 0.64798 0.0
C842 C 0.88283 0.31885 0.5892 0.0
C843 C 0.87934 0.3436 0.58387 0.0
C844 C 0.85588 0.34428 0.60653 0.0
C845 C 0.83866 0.32215 0.63839 0.0
C846 C 0.90712 0.31689 0.56507 0.0
C847 C 0.85128 0.37017 0.60184 0.0
H848 H 0.96664 0.4313 0.5996 0.0
H849 H 0.92715 0.41128 0.46414 0.0
H850 H 0.90734 0.38069 0.66225 0.0
H851 H 0.92711 0.36235 0.64843 0.0
H852 H 0.94669 0.40061 0.66313 0.0
H853 H 0.88518 0.36599 0.44738 0.0
H854 H 0.87659 0.33594 0.48633 0.0
H855 H 0.85941 0.35743 0.49397 0.0
H856 H 0.87022 0.27991 0.62955 0.0
H857 H 0.82268 0.32414 0.65929 0.0
H858 H 0.928 0.3308 0.58365 0.0
H859 H 0.90982 0.32496 0.52884 0.0
H860 H 0.90305 0.29411 0.56468 0.0
H861 H 0.86787 0.38854 0.62305 0.0
H862 H 0.82925 0.36496 0.61404 0.0
H863 H 0.85406 0.37773 0.56531 0.0
C864 C 0.51423 0.91933 0.98302 0.0
C865 C 0.5257 0.94532 0.00881 0.0
C866 C 0.51466 0.89468 0.00075 0.0
C867 C 0.52678 0.89614 0.04523 0.0
C868 C 0.5398 0.92284 0.07014 0.0
C869 C 0.53913 0.94702 0.05161 0.0
C870 C 0.50083 0.86672 0.97298 0.0
C871 C 0.55315 0.92551 0.11762 0.0
C872 C 0.50185 0.83471 0.1316 0.0
C873 C 0.52651 0.8314 0.13384 0.0
C874 C 0.50016 0.85353 0.099 0.0
C875 C 0.52388 0.86957 0.06833 0.0
C876 C 0.54736 0.86382 0.06727 0.0
C877 C 0.54846 0.8448 0.10034 0.0
C878 C 0.47457 0.85875 0.10115 0.0
C879 C 0.57286 0.8801 0.03475 0.0
H880 H 0.5038 0.91781 0.94989 0.0
H881 H 0.54832 0.96707 0.07161 0.0
H882 H 0.51473 0.85645 0.97364 0.0
H883 H 0.47949 0.85096 0.98867 0.0
H884 H 0.49704 0.87045 0.9363 0.0
H885 H 0.56388 0.94824 0.13116 0.0
H886 H 0.53593 0.91109 0.14256 0.0
H887 H 0.5696 0.91833 0.1164 0.0
H888 H 0.48507 0.82451 0.15796 0.0
H889 H 0.56768 0.84245 0.10258 0.0
H890 H 0.46685 0.85979 0.06576 0.0
H891 H 0.48152 0.88005 0.1183 0.0
H892 H 0.456 0.84139 0.1211 0.0
H893 H 0.56531 0.88246 -0.0001 0.0
H894 H 0.58583 0.86892 0.03111 0.0
H895 H 0.58742 0.90239 0.04858 0.0
C896 C 0.62371 0.54892 0.56674 0.0
C897 C 0.61312 0.53422 0.52439 0.0
C898 C 0.64561 0.54717 0.59158 0.0
C899 C 0.65758 0.53046 0.57363 0.0
C900 C 0.64875 0.51753 0.52909 0.0
C901 C 0.62651 0.51947 0.50498 0.0
C902 C 0.65434 0.56149 0.63878 0.0
C903 C 0.66138 0.50005 0.50821 0.0
C904 C 0.72234 0.54119 0.64631 0.0
C905 C 0.70823 0.51912 0.67967 0.0
C906 C 0.7067 0.5437 0.6086 0.0
C907 C 0.67629 0.52381 0.60451 0.0
C908 C 0.66271 0.49993 0.6357 0.0
C909 C 0.67886 0.49783 0.67268 0.0
C910 C 0.72222 0.56902 0.5755 0.0
C911 C 0.63042 0.47804 0.63269 0.0
H912 H 0.61379 0.56069 0.5818 0.0
H913 H 0.61852 0.50806 0.47228 0.0
H914 H 0.64699 0.5444 0.66606 0.0
H915 H 0.67845 0.57508 0.64139 0.0
H916 H 0.64467 0.57553 0.64616 0.0
H917 H 0.65714 0.49683 0.47029 0.0
H918 H 0.68529 0.51094 0.51433 0.0
H919 H 0.65127 0.47823 0.52497 0.0
H920 H 0.74504 0.5577 0.65145 0.0
H921 H 0.66799 0.48045 0.69798 0.0
H922 H 0.71711 0.58638 0.58476 0.0
H923 H 0.7147 0.56214 0.53932 0.0
H924 H 0.74631 0.57854 0.57699 0.0
H925 H 0.61777 0.48881 0.64264 0.0
H926 H 0.62396 0.459 0.65599 0.0
H927 H 0.6242 0.46998 0.59662 0.0
C928 C 0.11265 0.60282 0.9921 0.0
C929 C 0.08879 0.58447 0.02041 0.0
C930 C 0.13545 0.62964 0.00901 0.0
C931 C 0.13441 0.63807 0.05534 0.0
C932 C 0.10997 0.61996 0.0835 0.0
C933 C 0.08752 0.59359 0.06566 0.0
C934 C 0.16097 0.64849 0.97782 0.0
C935 C 0.10785 0.62799 0.13318 0.0
C936 C 0.19729 0.68455 0.135 0.0
C937 C 0.19299 0.70838 0.14166 0.0
C938 C 0.18056 0.66276 0.1024 0.0
C939 C 0.15905 0.66498 0.07612 0.0
C940 C 0.15734 0.69088 0.07875 0.0
C941 C 0.17421 0.71223 0.11193 0.0
C942 C 0.18328 0.63565 0.10069 0.0
C943 C 0.13518 0.69447 0.05076 0.0
H944 H 0.11384 0.59599 0.95709 0.0
H945 H 0.06919 0.57972 0.08786 0.0
H946 H 0.16627 0.67162 0.97945 0.0
H947 H 0.18056 0.64777 0.98983 0.0
H948 H 0.15661 0.64106 0.94112 0.0
H949 H 0.08714 0.61173 0.15014 0.0
H950 H 0.12637 0.6296 0.15376 0.0
H951 H 0.10929 0.64966 0.13444 0.0
H952 H 0.21153 0.68143 0.15859 0.0
H953 H 0.17064 0.73051 0.11762 0.0
H954 H 0.18179 0.62794 0.06447 0.0
H955 H 0.16504 0.61791 0.12057 0.0
H956 H 0.20422 0.6395 0.11607 0.0
H957 H 0.13334 0.68586 0.01505 0.0
H958 H 0.1409 0.71774 0.04875 0.0
H959 H 0.11342 0.68188 0.06746 0.0
loop_
_geom_bond_atom_site_label_1
_geom_bond_atom_site_label_2
_geom_bond_distance
_geom_bond_site_symmetry_2
_ccdc_geom_bond_type
C0 O2 1.247 . S
C0 O4 1.270 . S
C1 O8 1.247 . S
C1 O9 1.258 1_556 S
O2 C0 1.247 . S
O2 Zn3 2.028 1_455 S
Zn3 O2 2.028 1_655 S
Zn3 O7 2.035 . S
Zn3 O9 2.035 . S
Zn3 O10 2.028 1_655 S
O4 C0 1.270 . S
O4 Zn5 2.028 1_554 S
Zn5 O4 2.028 1_556 S
Zn5 O6 2.028 1_455 S
Zn5 O8 2.028 1_455 S
Zn5 O11 2.028 1_556 S
O6 Zn5 2.028 1_655 S
O6 C12 1.247 . S
O7 Zn3 2.035 . S
O7 C12 1.258 1_554 S
O8 C1 1.247 . S
O8 Zn5 2.028 1_655 S
O9 C1 1.258 1_554 S
O9 Zn3 2.035 . S
O10 Zn3 2.028 1_455 S
O10 C13 1.247 . S
O11 Zn5 2.028 1_554 S
O11 C13 1.270 . S
C12 O6 1.247 . S
C12 O7 1.258 1_556 S
C13 O10 1.247 . S
C13 O11 1.270 . S
C14 O16 1.247 . S
C14 O18 1.258 . S
C15 O22 1.247 . S
C15 O23 1.258 . S
O16 C14 1.247 . S
O16 Zn17 2.028 1_545 S
Zn17 O16 2.028 1_565 S
Zn17 O21 2.035 . S
Zn17 O23 2.035 . S
Zn17 O24 2.028 1_565 S
O18 C14 1.258 . S
O18 Zn19 2.035 . S
Zn19 O18 2.035 . S
Zn19 O20 2.028 1_545 S
Zn19 O22 2.028 1_545 S
Zn19 O25 2.035 . S
O20 Zn19 2.028 1_565 S
O20 C26 1.247 . S
O21 Zn17 2.035 . S
O21 C26 1.258 . S
O22 C15 1.247 . S
O22 Zn19 2.028 1_565 S
O23 C15 1.258 . S
O23 Zn17 2.035 . S
O24 Zn17 2.028 1_545 S
O24 C27 1.247 . S
O25 Zn19 2.035 . S
O25 C27 1.258 . S
C26 O20 1.247 . S
C26 O21 1.258 . S
C27 O24 1.247 . S
C27 O25 1.258 . S
C28 O30 1.247 . S
C28 O32 1.258 1_556 S
C29 O36 1.247 . S
C29 O37 1.271 . S
O30 C28 1.247 . S
O30 Zn31 2.028 . S
Zn31 O30 2.028 . S
Zn31 O35 2.028 1_556 S
Zn31 O37 2.028 1_556 S
Zn31 O38 2.028 . S
O32 C28 1.258 1_554 S
O32 Zn33 2.035 . S
Zn33 O32 2.035 . S
Zn33 O34 2.028 . S
Zn33 O36 2.028 . S
Zn33 O39 2.035 . S
O34 Zn33 2.028 . S
O34 C40 1.247 . S
O35 Zn31 2.028 1_554 S
O35 C40 1.271 . S
O36 C29 1.247 . S
O36 Zn33 2.028 . S
O37 C29 1.271 . S
O37 Zn31 2.028 1_554 S
O38 Zn31 2.028 . S
O38 C41 1.247 . S
O39 Zn33 2.035 . S
O39 C41 1.258 1_554 S
C40 O34 1.247 . S
C40 O35 1.271 . S
C41 O38 1.247 . S
C41 O39 1.258 1_556 S
C42 O44 1.247 . S
C42 O46 1.258 . S
C43 O50 1.247 . S
C43 O51 1.258 . S
O44 C42 1.247 . S
O44 Zn45 2.028 . S
Zn45 O44 2.028 . S
Zn45 O49 2.035 1_455 S
Zn45 O51 2.035 1_455 S
Zn45 O52 2.028 . S
O46 C42 1.258 . S
O46 Zn47 2.035 1_455 S
Zn47 O46 2.035 1_655 S
Zn47 O48 2.028 . S
Zn47 O50 2.028 . S
Zn47 O53 2.035 1_655 S
O48 Zn47 2.028 . S
O48 C54 1.247 . S
O49 Zn45 2.035 1_655 S
O49 C54 1.258 . S
O50 C43 1.247 . S
O50 Zn47 2.028 . S
O51 C43 1.258 . S
O51 Zn45 2.035 1_655 S
O52 Zn45 2.028 . S
O52 C55 1.247 . S
O53 Zn47 2.035 1_455 S
O53 C55 1.258 . S
C54 O48 1.247 . S
C54 O49 1.258 . S
C55 O52 1.247 . S
C55 O53 1.258 . S
C56 O58 1.247 . S
C56 O60 1.258 . S
C57 O64 1.247 . S
C57 O65 1.258 1_556 S
O58 C56 1.247 . S
O58 Zn59 2.028 1_565 S
Zn59 O58 2.028 1_545 S
Zn59 O63 2.035 . S
Zn59 O65 2.035 . S
Zn59 O66 2.028 1_545 S
O60 C56 1.258 . S
O60 Zn61 2.035 1_554 S
Zn61 O60 2.035 1_556 S
Zn61 O62 2.028 1_565 S
Zn61 O64 2.028 1_565 S
Zn61 O67 2.035 1_556 S
O62 Zn61 2.028 1_545 S
O62 C68 1.247 . S
O63 Zn59 2.035 . S
O63 C68 1.258 1_554 S
O64 C57 1.247 . S
O64 Zn61 2.028 1_545 S
O65 C57 1.258 1_554 S
O65 Zn59 2.035 . S
O66 Zn59 2.028 1_565 S
O66 C69 1.247 . S
O67 Zn61 2.035 1_554 S
O67 C69 1.258 . S
C68 O62 1.247 . S
C68 O63 1.258 1_556 S
C69 O66 1.247 . S
C69 O67 1.258 . S
C70 O72 1.247 . S
C70 O74 1.258 . S
C71 O78 1.247 . S
C71 O79 1.258 . S
O72 C70 1.247 . S
O72 Zn73 2.028 . S
Zn73 O72 2.028 . S
Zn73 O77 2.035 . S
Zn73 O79 2.035 . S
Zn73 O80 2.028 . S
O74 C70 1.258 . S
O74 Zn75 2.035 . S
Zn75 O74 2.035 . S
Zn75 O76 2.028 . S
Zn75 O78 2.028 . S
Zn75 O81 2.035 . S
O76 Zn75 2.028 . S
O76 C82 1.247 . S
O77 Zn73 2.035 . S
O77 C82 1.258 . S
O78 C71 1.247 . S
O78 Zn75 2.028 . S
O79 C71 1.258 . S
O79 Zn73 2.035 . S
O80 Zn73 2.028 . S
O80 C83 1.247 . S
O81 Zn75 2.035 . S
O81 C83 1.258 . S
C82 O76 1.247 . S
C82 O77 1.258 . S
C83 O80 1.247 . S
C83 O81 1.258 . S
H84 C90 0.930 . S
H85 C93 0.931 . S
H86 C95 0.931 . S
H87 C97 0.930 . S
H88 C99 0.930 . S
H89 C101 0.931 . S
C90 H84 0.930 . S
C90 C91 1.380 . S
C90 C92 1.394 . S
C91 C90 1.380 . S
C91 C95 1.382 . S
C92 C90 1.394 . S
C92 C93 1.400 . S
C93 H85 0.931 . S
C93 C92 1.400 . S
C93 C94 1.375 . S
C94 C93 1.375 . S
C94 C95 1.415 . S
C94 C96 1.501 . S
C95 H86 0.931 . S
C95 C91 1.382 . S
C95 C94 1.415 . S
C96 C94 1.501 . S
C96 C97 1.384 . S
C96 C101 1.408 . S
C97 H87 0.930 . S
C97 C96 1.384 . S
C97 C98 1.389 . S
C98 C97 1.389 . S
C98 C99 1.405 . S
C99 H88 0.930 . S
C99 C98 1.405 . S
C99 C100 1.364 . S
C100 C99 1.364 . S
C100 C101 1.400 . S
C101 H89 0.931 . S
C101 C96 1.408 . S
C101 C100 1.400 . S
H102 C108 0.930 . S
H103 C111 0.931 . S
H104 C113 0.931 . S
H105 C115 0.930 . S
H106 C117 0.930 . S
H107 C119 0.931 . S
C108 H102 0.930 . S
C108 C109 1.380 . S
C108 C110 1.394 . S
C109 C108 1.380 . S
C109 C113 1.382 . S
C110 C108 1.394 . S
C110 C111 1.400 . S
C111 H103 0.931 . S
C111 C110 1.400 . S
C111 C112 1.375 . S
C112 C111 1.375 . S
C112 C113 1.415 . S
C112 C114 1.501 . S
C113 H104 0.931 . S
C113 C109 1.382 . S
C113 C112 1.415 . S
C114 C112 1.501 . S
C114 C115 1.384 . S
C114 C119 1.408 . S
C115 H105 0.930 . S
C115 C114 1.384 . S
C115 C116 1.389 . S
C116 C115 1.389 . S
C116 C117 1.405 . S
C117 H106 0.930 . S
C117 C116 1.405 . S
C117 C118 1.364 . S
C118 C117 1.364 . S
C118 C119 1.400 . S
C119 H107 0.931 . S
C119 C114 1.408 . S
C119 C118 1.400 . S
H120 C126 0.930 . S
H121 C129 0.931 . S
H122 C131 0.931 . S
H123 C133 0.930 . S
H124 C135 0.930 . S
H125 C137 0.931 . S
C126 H120 0.930 . S
C126 C127 1.380 . S
C126 C128 1.394 . S
C127 C126 1.380 . S
C127 C131 1.382 . S
C128 C126 1.394 . S
C128 C129 1.400 . S
C129 H121 0.931 . S
C129 C128 1.400 . S
C129 C130 1.375 . S
C130 C129 1.375 . S
C130 C131 1.415 . S
C130 C132 1.501 . S
C131 H122 0.931 . S
C131 C127 1.382 . S
C131 C130 1.415 . S
C132 C130 1.501 . S
C132 C133 1.384 . S
C132 C137 1.408 . S
C133 H123 0.930 . S
C133 C132 1.384 . S
C133 C134 1.389 . S
C134 C133 1.389 . S
C134 C135 1.405 . S
C135 H124 0.930 . S
C135 C134 1.405 . S
C135 C136 1.364 . S
C136 C135 1.364 . S
C136 C137 1.400 . S
C137 H125 0.931 . S
C137 C132 1.408 . S
C137 C136 1.400 . S
H138 C144 0.930 . S
H139 C147 0.931 . S
H140 C149 0.931 . S
H141 C151 0.930 . S
H142 C153 0.930 . S
H143 C155 0.931 . S
C144 H138 0.930 . S
C144 C145 1.380 . S
C144 C146 1.394 . S
C145 C144 1.380 . S
C145 C149 1.382 . S
C146 C144 1.394 . S
C146 C147 1.400 . S
C147 H139 0.931 . S
C147 C146 1.400 . S
C147 C148 1.375 . S
C148 C147 1.375 . S
C148 C149 1.415 . S
C148 C150 1.501 . S
C149 H140 0.931 . S
C149 C145 1.382 . S
C149 C148 1.415 . S
C150 C148 1.501 . S
C150 C151 1.384 . S
C150 C155 1.408 . S
C151 H141 0.930 . S
C151 C150 1.384 . S
C151 C152 1.389 . S
C152 C151 1.389 . S
C152 C153 1.405 . S
C153 H142 0.930 . S
C153 C152 1.405 . S
C153 C154 1.364 . S
C154 C153 1.364 . S
C154 C155 1.400 . S
C155 H143 0.931 . S
C155 C150 1.408 . S
C155 C154 1.400 . S
H156 C162 0.930 . S
H157 C165 0.931 . S
H158 C167 0.931 . S
H159 C169 0.930 . S
H160 C171 0.930 . S
H161 C173 0.931 . S
C162 H156 0.930 . S
C162 C163 1.380 . S
C162 C164 1.394 . S
C163 C162 1.380 . S
C163 C167 1.382 . S
C164 C162 1.394 . S
C164 C165 1.400 . S
C165 H157 0.931 . S
C165 C164 1.400 . S
C165 C166 1.375 . S
C166 C165 1.375 . S
C166 C167 1.415 . S
C166 C168 1.501 . S
C167 H158 0.931 . S
C167 C163 1.382 . S
C167 C166 1.415 . S
C168 C166 1.501 . S
C168 C169 1.384 . S
C168 C173 1.408 . S
C169 H159 0.930 . S
C169 C168 1.384 . S
C169 C170 1.389 . S
C170 C169 1.389 . S
C170 C171 1.405 . S
C171 H160 0.930 . S
C171 C170 1.405 . S
C171 C172 1.364 . S
C172 C171 1.364 . S
C172 C173 1.400 . S
C173 H161 0.931 . S
C173 C168 1.408 . S
C173 C172 1.400 . S
H174 C180 0.930 . S
H175 C183 0.931 . S
H176 C185 0.931 . S
H177 C187 0.930 . S
H178 C189 0.930 . S
H179 C191 0.931 . S
C180 H174 0.930 . S
C180 C181 1.380 . S
C180 C182 1.394 . S
C181 C180 1.380 . S
C181 C185 1.382 . S
C182 C180 1.394 . S
C182 C183 1.400 . S
C183 H175 0.931 . S
C183 C182 1.400 . S
C183 C184 1.375 . S
C184 C183 1.375 . S
C184 C185 1.415 . S
C184 C186 1.501 . S
C185 H176 0.931 . S
C185 C181 1.382 . S
C185 C184 1.415 . S
C186 C184 1.501 . S
C186 C187 1.384 . S
C186 C191 1.408 . S
C187 H177 0.930 . S
C187 C186 1.384 . S
C187 C188 1.389 . S
C188 C187 1.389 . S
C188 C189 1.405 . S
C189 H178 0.930 . S
C189 C188 1.405 . S
C189 C190 1.364 . S
C190 C189 1.364 . S
C190 C191 1.400 . S
C191 H179 0.931 . S
C191 C186 1.408 . S
C191 C190 1.400 . S
C192 C193 1.391 . S
C192 C194 1.394 . S
C192 H208 0.931 . S
C193 C192 1.391 . S
C193 C197 1.376 . S
C194 C192 1.394 . S
C194 C195 1.369 . S
C194 C198 1.531 . S
C195 C194 1.369 . S
C195 C196 1.410 . S
C195 C203 1.503 . S
C196 C195 1.410 . S
C196 C197 1.392 . S
C196 C199 1.511 . S
C197 C193 1.376 . S
C197 C196 1.392 . S
C197 H209 0.929 . S
C198 C194 1.531 . S
C198 H210 0.960 . S
C198 H211 0.962 . S
C198 H212 0.960 . S
C199 C196 1.511 . S
C199 H213 0.961 . S
C199 H214 0.961 . S
C199 H215 0.961 . S
C200 C201 1.370 . S
C200 C202 1.363 . S
C200 H216 0.931 . S
C201 C200 1.370 . S
C201 C205 1.408 . S
C202 C200 1.363 . S
C202 C203 1.370 . S
C202 C206 1.524 . S
C203 C195 1.503 . S
C203 C202 1.370 . S
C203 C204 1.403 . S
C204 C203 1.403 . S
C204 C205 1.404 . S
C204 C207 1.539 . S
C205 C201 1.408 . S
C205 C204 1.404 . S
C205 H217 0.930 . S
C206 C202 1.524 . S
C206 H218 0.956 . S
C206 H219 0.961 . S
C206 H220 0.961 . S
C207 C204 1.539 . S
C207 H221 0.958 . S
C207 H222 0.961 . S
C207 H223 0.960 . S
H208 C192 0.931 . S
H209 C197 0.929 . S
H210 C198 0.960 . S
H211 C198 0.962 . S
H212 C198 0.960 . S
H213 C199 0.961 . S
H214 C199 0.961 . S
H215 C199 0.961 . S
H216 C200 0.931 . S
H217 C205 0.930 . S
H218 C206 0.956 . S
H219 C206 0.961 . S
H220 C206 0.961 . S
H221 C207 0.958 . S
H222 C207 0.961 . S
H223 C207 0.960 . S
C224 C225 1.391 . S
C224 C226 1.394 . S
C224 H240 0.931 . S
C225 C224 1.391 . S
C225 C229 1.376 . S
C226 C224 1.394 . S
C226 C227 1.369 . S
C226 C230 1.531 . S
C227 C226 1.369 . S
C227 C228 1.410 . S
C227 C235 1.503 . S
C228 C227 1.410 . S
C228 C229 1.392 . S
C228 C231 1.511 . S
C229 C225 1.376 . S
C229 C228 1.392 . S
C229 H241 0.929 . S
C230 C226 1.531 . S
C230 H242 0.960 . S
C230 H243 0.962 . S
C230 H244 0.960 . S
C231 C228 1.511 . S
C231 H245 0.961 . S
C231 H246 0.961 . S
C231 H247 0.961 . S
C232 C233 1.370 . S
C232 C234 1.363 . S
C232 H248 0.931 . S
C233 C232 1.370 . S
C233 C237 1.408 . S
C234 C232 1.363 . S
C234 C235 1.370 . S
C234 C238 1.524 . S
C235 C227 1.503 . S
C235 C234 1.370 . S
C235 C236 1.403 . S
C236 C235 1.403 . S
C236 C237 1.404 . S
C236 C239 1.539 . S
C237 C233 1.408 . S
C237 C236 1.404 . S
C237 H249 0.930 . S
C238 C234 1.524 . S
C238 H250 0.956 . S
C238 H251 0.961 . S
C238 H252 0.961 . S
C239 C236 1.539 . S
C239 H253 0.958 . S
C239 H254 0.961 . S
C239 H255 0.960 . S
H240 C224 0.931 . S
H241 C229 0.929 . S
H242 C230 0.960 . S
H243 C230 0.962 . S
H244 C230 0.960 . S
H245 C231 0.961 . S
H246 C231 0.961 . S
H247 C231 0.961 . S
H248 C232 0.931 . S
H249 C237 0.930 . S
H250 C238 0.956 . S
H251 C238 0.961 . S
H252 C238 0.961 . S
H253 C239 0.958 . S
H254 C239 0.961 . S
H255 C239 0.960 . S
C256 C257 1.391 . S
C256 C258 1.394 . S
C256 H272 0.931 . S
C257 C256 1.391 . S
C257 C261 1.376 . S
C258 C256 1.394 . S
C258 C259 1.369 . S
C258 C262 1.531 . S
C259 C258 1.369 . S
C259 C260 1.410 . S
C259 C267 1.503 . S
C260 C259 1.410 . S
C260 C261 1.392 . S
C260 C263 1.511 . S
C261 C257 1.376 . S
C261 C260 1.392 . S
C261 H273 0.929 . S
C262 C258 1.531 . S
C262 H274 0.960 . S
C262 H275 0.962 . S
C262 H276 0.960 . S
C263 C260 1.511 . S
C263 H277 0.961 . S
C263 H278 0.961 . S
C263 H279 0.961 . S
C264 C265 1.370 . S
C264 C266 1.363 . S
C264 H280 0.931 . S
C265 C264 1.370 . S
C265 C269 1.408 . S
C266 C264 1.363 . S
C266 C267 1.370 . S
C266 C270 1.524 . S
C267 C259 1.503 . S
C267 C266 1.370 . S
C267 C268 1.403 . S
C268 C267 1.403 . S
C268 C269 1.404 . S
C268 C271 1.539 . S
C269 C265 1.408 . S
C269 C268 1.404 . S
C269 H281 0.930 . S
C270 C266 1.524 . S
C270 H282 0.956 . S
C270 H283 0.961 . S
C270 H284 0.961 . S
C271 C268 1.539 . S
C271 H285 0.958 . S
C271 H286 0.961 . S
C271 H287 0.960 . S
H272 C256 0.931 . S
H273 C261 0.929 . S
H274 C262 0.960 . S
H275 C262 0.962 . S
H276 C262 0.960 . S
H277 C263 0.961 . S
H278 C263 0.961 . S
H279 C263 0.961 . S
H280 C264 0.931 . S
H281 C269 0.930 . S
H282 C270 0.956 . S
H283 C270 0.961 . S
H284 C270 0.961 . S
H285 C271 0.958 . S
H286 C271 0.961 . S
H287 C271 0.960 . S
C288 C289 1.391 . S
C288 C290 1.394 . S
C288 H304 0.931 . S
C289 C288 1.391 . S
C289 C293 1.376 . S
C290 C288 1.394 . S
C290 C291 1.369 . S
C290 C294 1.531 . S
C291 C290 1.369 . S
C291 C292 1.410 . S
C291 C299 1.503 . S
C292 C291 1.410 . S
C292 C293 1.392 . S
C292 C295 1.511 . S
C293 C289 1.376 . S
C293 C292 1.392 . S
C293 H305 0.929 . S
C294 C290 1.531 . S
C294 H306 0.960 . S
C294 H307 0.962 . S
C294 H308 0.960 . S
C295 C292 1.511 . S
C295 H309 0.961 . S
C295 H310 0.961 . S
C295 H311 0.961 . S
C296 C297 1.370 . S
C296 C298 1.363 . S
C296 H312 0.931 . S
C297 C296 1.370 . S
C297 C301 1.408 . S
C298 C296 1.363 . S
C298 C299 1.370 . S
C298 C302 1.524 . S
C299 C291 1.503 . S
C299 C298 1.370 . S
C299 C300 1.403 . S
C300 C299 1.403 . S
C300 C301 1.404 . S
C300 C303 1.539 . S
C301 C297 1.408 . S
C301 C300 1.404 . S
C301 H313 0.930 . S
C302 C298 1.524 . S
C302 H314 0.956 . S
C302 H315 0.961 . S
C302 H316 0.961 . S
C303 C300 1.539 . S
C303 H317 0.958 . S
C303 H318 0.961 . S
C303 H319 0.960 . S
H304 C288 0.931 . S
H305 C293 0.929 . S
H306 C294 0.960 . S
H307 C294 0.962 . S
H308 C294 0.960 . S
H309 C295 0.961 . S
H310 C295 0.961 . S
H311 C295 0.961 . S
H312 C296 0.931 . S
H313 C301 0.930 . S
H314 C302 0.956 . S
H315 C302 0.961 . S
H316 C302 0.961 . S
H317 C303 0.958 . S
H318 C303 0.961 . S
H319 C303 0.960 . S
C320 C321 1.391 . S
C320 C322 1.394 . S
C320 H336 0.931 . S
C321 C320 1.391 . S
C321 C325 1.376 . S
C322 C320 1.394 . S
C322 C323 1.369 . S
C322 C326 1.531 . S
C323 C322 1.369 . S
C323 C324 1.410 . S
C323 C331 1.503 . S
C324 C323 1.410 . S
C324 C325 1.392 . S
C324 C327 1.511 . S
C325 C321 1.376 . S
C325 C324 1.392 . S
C325 H337 0.929 . S
C326 C322 1.531 . S
C326 H338 0.960 . S
C326 H339 0.962 . S
C326 H340 0.960 . S
C327 C324 1.511 . S
C327 H341 0.961 . S
C327 H342 0.961 . S
C327 H343 0.961 . S
C328 C329 1.370 . S
C328 C330 1.363 . S
C328 H344 0.931 . S
C329 C328 1.370 . S
C329 C333 1.408 . S
C330 C328 1.363 . S
C330 C331 1.370 . S
C330 C334 1.524 . S
C331 C323 1.503 . S
C331 C330 1.370 . S
C331 C332 1.403 . S
C332 C331 1.403 . S
C332 C333 1.404 . S
C332 C335 1.539 . S
C333 C329 1.408 . S
C333 C332 1.404 . S
C333 H345 0.930 . S
C334 C330 1.524 . S
C334 H346 0.956 . S
C334 H347 0.961 . S
C334 H348 0.961 . S
C335 C332 1.539 . S
C335 H349 0.958 . S
C335 H350 0.961 . S
C335 H351 0.960 . S
H336 C320 0.931 . S
H337 C325 0.929 . S
H338 C326 0.960 . S
H339 C326 0.962 . S
H340 C326 0.960 . S
H341 C327 0.961 . S
H342 C327 0.961 . S
H343 C327 0.961 . S
H344 C328 0.931 . S
H345 C333 0.930 . S
H346 C334 0.956 . S
H347 C334 0.961 . S
H348 C334 0.961 . S
H349 C335 0.958 . S
H350 C335 0.961 . S
H351 C335 0.960 . S
C352 C353 1.391 . S
C352 C354 1.394 . S
C352 H368 0.931 . S
C353 C352 1.391 . S
C353 C357 1.376 . S
C354 C352 1.394 . S
C354 C355 1.369 . S
C354 C358 1.531 . S
C355 C354 1.369 . S
C355 C356 1.410 . S
C355 C363 1.503 . S
C356 C355 1.410 . S
C356 C357 1.392 . S
C356 C359 1.511 . S
C357 C353 1.376 . S
C357 C356 1.392 . S
C357 H369 0.929 . S
C358 C354 1.531 . S
C358 H370 0.960 . S
C358 H371 0.962 . S
C358 H372 0.960 . S
C359 C356 1.511 . S
C359 H373 0.961 . S
C359 H374 0.961 . S
C359 H375 0.961 . S
C360 C361 1.370 . S
C360 C362 1.363 . S
C360 H376 0.931 . S
C361 C360 1.370 . S
C361 C365 1.408 . S
C362 C360 1.363 . S
C362 C363 1.370 . S
C362 C366 1.524 . S
C363 C355 1.503 . S
C363 C362 1.370 . S
C363 C364 1.403 . S
C364 C363 1.403 . S
C364 C365 1.404 . S
C364 C367 1.539 . S
C365 C361 1.408 . S
C365 C364 1.404 . S
C365 H377 0.930 . S
C366 C362 1.524 . S
C366 H378 0.956 . S
C366 H379 0.961 . S
C366 H380 0.961 . S
C367 C364 1.539 . S
C367 H381 0.958 . S
C367 H382 0.961 . S
C367 H383 0.960 . S
H368 C352 0.931 . S
H369 C357 0.929 . S
H370 C358 0.960 . S
H371 C358 0.962 . S
H372 C358 0.960 . S
H373 C359 0.961 . S
H374 C359 0.961 . S
H375 C359 0.961 . S
H376 C360 0.931 . S
H377 C365 0.930 . S
H378 C366 0.956 . S
H379 C366 0.961 . S
H380 C366 0.961 . S
H381 C367 0.958 . S
H382 C367 0.961 . S
H383 C367 0.960 . S
C384 C385 1.391 . S
C384 C386 1.394 . S
C384 H400 0.931 . S
C385 C384 1.391 . S
C385 C389 1.376 . S
C386 C384 1.394 . S
C386 C387 1.369 . S
C386 C390 1.531 . S
C387 C386 1.369 . S
C387 C388 1.410 . S
C387 C395 1.503 . S
C388 C387 1.410 . S
C388 C389 1.392 . S
C388 C391 1.511 . S
C389 C385 1.376 . S
C389 C388 1.392 . S
C389 H401 0.929 . S
C390 C386 1.531 . S
C390 H402 0.960 . S
C390 H403 0.962 . S
C390 H404 0.960 . S
C391 C388 1.511 . S
C391 H405 0.961 . S
C391 H406 0.961 . S
C391 H407 0.961 . S
C392 C393 1.370 . S
C392 C394 1.363 . S
C392 H408 0.931 . S
C393 C392 1.370 . S
C393 C397 1.408 . S
C394 C392 1.363 . S
C394 C395 1.370 . S
C394 C398 1.524 . S
C395 C387 1.503 . S
C395 C394 1.370 . S
C395 C396 1.403 . S
C396 C395 1.403 . S
C396 C397 1.404 . S
C396 C399 1.539 . S
C397 C393 1.408 . S
C397 C396 1.404 . S
C397 H409 0.930 . S
C398 C394 1.524 . S
C398 H410 0.956 . S
C398 H411 0.961 . S
C398 H412 0.961 . S
C399 C396 1.539 . S
C399 H413 0.958 . S
C399 H414 0.961 . S
C399 H415 0.960 . S
H400 C384 0.931 . S
H401 C389 0.929 . S
H402 C390 0.960 . S
H403 C390 0.962 . S
H404 C390 0.960 . S
H405 C391 0.961 . S
H406 C391 0.961 . S
H407 C391 0.961 . S
H408 C392 0.931 . S
H409 C397 0.930 . S
H410 C398 0.956 . S
H411 C398 0.961 . S
H412 C398 0.961 . S
H413 C399 0.958 . S
H414 C399 0.961 . S
H415 C399 0.960 . S
C416 C417 1.391 . S
C416 C418 1.394 . S
C416 H432 0.931 . S
C417 C416 1.391 . S
C417 C421 1.376 . S
C418 C416 1.394 . S
C418 C419 1.369 . S
C418 C422 1.531 . S
C419 C418 1.369 . S
C419 C420 1.410 . S
C419 C427 1.503 . S
C420 C419 1.410 . S
C420 C421 1.392 . S
C420 C423 1.511 . S
C421 C417 1.376 . S
C421 C420 1.392 . S
C421 H433 0.929 . S
C422 C418 1.531 . S
C422 H434 0.960 . S
C422 H435 0.962 . S
C422 H436 0.960 . S
C423 C420 1.511 . S
C423 H437 0.961 . S
C423 H438 0.961 . S
C423 H439 0.961 . S
C424 C425 1.370 . S
C424 C426 1.363 . S
C424 H440 0.931 . S
C425 C424 1.370 . S
C425 C429 1.408 . S
C426 C424 1.363 . S
C426 C427 1.370 . S
C426 C430 1.524 . S
C427 C419 1.503 . S
C427 C426 1.370 . S
C427 C428 1.403 . S
C428 C427 1.403 . S
C428 C429 1.404 . S
C428 C431 1.539 . S
C429 C425 1.408 . S
C429 C428 1.404 . S
C429 H441 0.930 . S
C430 C426 1.524 . S
C430 H442 0.956 . S
C430 H443 0.961 . S
C430 H444 0.961 . S
C431 C428 1.539 . S
C431 H445 0.958 . S
C431 H446 0.961 . S
C431 H447 0.960 . S
H432 C416 0.931 . S
H433 C421 0.929 . S
H434 C422 0.960 . S
H435 C422 0.962 . S
H436 C422 0.960 . S
H437 C423 0.961 . S
H438 C423 0.961 . S
H439 C423 0.961 . S
H440 C424 0.931 . S
H441 C429 0.930 . S
H442 C430 0.956 . S
H443 C430 0.961 . S
H444 C430 0.961 . S
H445 C431 0.958 . S
H446 C431 0.961 . S
H447 C431 0.960 . S
C448 C449 1.391 . S
C448 C450 1.394 . S
C448 H464 0.931 . S
C449 C448 1.391 . S
C449 C453 1.376 . S
C450 C448 1.394 . S
C450 C451 1.369 . S
C450 C454 1.531 . S
C451 C450 1.369 . S
C451 C452 1.410 . S
C451 C459 1.503 . S
C452 C451 1.410 . S
C452 C453 1.392 . S
C452 C455 1.511 . S
C453 C449 1.376 . S
C453 C452 1.392 . S
C453 H465 0.929 . S
C454 C450 1.531 . S
C454 H466 0.960 . S
C454 H467 0.962 . S
C454 H468 0.960 . S
C455 C452 1.511 . S
C455 H469 0.961 . S
C455 H470 0.961 . S
C455 H471 0.961 . S
C456 C457 1.370 . S
C456 C458 1.363 . S
C456 H472 0.931 . S
C457 C456 1.370 . S
C457 C461 1.408 . S
C458 C456 1.363 . S
C458 C459 1.370 . S
C458 C462 1.524 . S
C459 C451 1.503 . S
C459 C458 1.370 . S
C459 C460 1.403 . S
C460 C459 1.403 . S
C460 C461 1.404 . S
C460 C463 1.539 . S
C461 C457 1.408 . S
C461 C460 1.404 . S
C461 H473 0.930 . S
C462 C458 1.524 . S
C462 H474 0.956 . S
C462 H475 0.961 . S
C462 H476 0.961 . S
C463 C460 1.539 . S
C463 H477 0.958 . S
C463 H478 0.961 . S
C463 H479 0.960 . S
H464 C448 0.931 . S
H465 C453 0.929 . S
H466 C454 0.960 . S
H467 C454 0.962 . S
H468 C454 0.960 . S
H469 C455 0.961 . S
H470 C455 0.961 . S
H471 C455 0.961 . S
H472 C456 0.931 . S
H473 C461 0.930 . S
H474 C462 0.956 . S
H475 C462 0.961 . S
H476 C462 0.961 . S
H477 C463 0.958 . S
H478 C463 0.961 . S
H479 C463 0.960 . S
C480 C481 1.391 . S
C480 C482 1.394 . S
C480 H496 0.931 . S
C481 C480 1.391 . S
C481 C485 1.376 . S
C482 C480 1.394 . S
C482 C483 1.369 . S
C482 C486 1.531 . S
C483 C482 1.369 . S
C483 C484 1.410 . S
C483 C491 1.503 . S
C484 C483 1.410 . S
C484 C485 1.392 . S
C484 C487 1.511 . S
C485 C481 1.376 . S
C485 C484 1.392 . S
C485 H497 0.929 . S
C486 C482 1.531 . S
C486 H498 0.960 . S
C486 H499 0.962 . S
C486 H500 0.960 . S
C487 C484 1.511 . S
C487 H501 0.961 . S
C487 H502 0.961 . S
C487 H503 0.961 . S
C488 C489 1.370 . S
C488 C490 1.363 . S
C488 H504 0.931 . S
C489 C488 1.370 . S
C489 C493 1.408 . S
C490 C488 1.363 . S
C490 C491 1.370 . S
C490 C494 1.524 . S
C491 C483 1.503 . S
C491 C490 1.370 . S
C491 C492 1.403 . S
C492 C491 1.403 . S
C492 C493 1.404 . S
C492 C495 1.539 . S
C493 C489 1.408 . S
C493 C492 1.404 . S
C493 H505 0.930 . S
C494 C490 1.524 . S
C494 H506 0.956 . S
C494 H507 0.961 . S
C494 H508 0.961 . S
C495 C492 1.539 . S
C495 H509 0.958 . S
C495 H510 0.961 . S
C495 H511 0.960 . S
H496 C480 0.931 . S
H497 C485 0.929 . S
H498 C486 0.960 . S
H499 C486 0.962 . S
H500 C486 0.960 . S
H501 C487 0.961 . S
H502 C487 0.961 . S
H503 C487 0.961 . S
H504 C488 0.931 . S
H505 C493 0.930 . S
H506 C494 0.956 . S
H507 C494 0.961 . S
H508 C494 0.961 . S
H509 C495 0.958 . S
H510 C495 0.961 . S
H511 C495 0.960 . S
C512 C513 1.391 . S
C512 C514 1.394 . S
C512 H528 0.931 . S
C513 C512 1.391 . S
C513 C517 1.376 . S
C514 C512 1.394 . S
C514 C515 1.369 . S
C514 C518 1.531 . S
C515 C514 1.369 . S
C515 C516 1.410 . S
C515 C523 1.503 . S
C516 C515 1.410 . S
C516 C517 1.392 . S
C516 C519 1.511 . S
C517 C513 1.376 . S
C517 C516 1.392 . S
C517 H529 0.929 . S
C518 C514 1.531 . S
C518 H530 0.960 . S
C518 H531 0.962 . S
C518 H532 0.960 . S
C519 C516 1.511 . S
C519 H533 0.961 . S
C519 H534 0.961 . S
C519 H535 0.961 . S
C520 C521 1.370 . S
C520 C522 1.363 . S
C520 H536 0.931 . S
C521 C520 1.370 . S
C521 C525 1.408 . S
C522 C520 1.363 . S
C522 C523 1.370 . S
C522 C526 1.524 . S
C523 C515 1.503 . S
C523 C522 1.370 . S
C523 C524 1.403 . S
C524 C523 1.403 . S
C524 C525 1.404 . S
C524 C527 1.539 . S
C525 C521 1.408 . S
C525 C524 1.404 . S
C525 H537 0.930 . S
C526 C522 1.524 . S
C526 H538 0.956 . S
C526 H539 0.961 . S
C526 H540 0.961 . S
C527 C524 1.539 . S
C527 H541 0.958 . S
C527 H542 0.961 . S
C527 H543 0.960 . S
H528 C512 0.931 . S
H529 C517 0.929 . S
H530 C518 0.960 . S
H531 C518 0.962 . S
H532 C518 0.960 . S
H533 C519 0.961 . S
H534 C519 0.961 . S
H535 C519 0.961 . S
H536 C520 0.931 . S
H537 C525 0.930 . S
H538 C526 0.956 . S
H539 C526 0.961 . S
H540 C526 0.961 . S
H541 C527 0.958 . S
H542 C527 0.961 . S
H543 C527 0.960 . S
C544 C545 1.391 . S
C544 C546 1.394 . S
C544 H560 0.931 . S
C545 C544 1.391 . S
C545 C549 1.376 . S
C546 C544 1.394 . S
C546 C547 1.369 . S
C546 C550 1.531 . S
C547 C546 1.369 . S
C547 C548 1.410 . S
C547 C555 1.503 . S
C548 C547 1.410 . S
C548 C549 1.392 . S
C548 C551 1.511 . S
C549 C545 1.376 . S
C549 C548 1.392 . S
C549 H561 0.929 . S
C550 C546 1.531 . S
C550 H562 0.960 . S
C550 H563 0.962 . S
C550 H564 0.960 . S
C551 C548 1.511 . S
C551 H565 0.961 . S
C551 H566 0.961 . S
C551 H567 0.961 . S
C552 C553 1.370 . S
C552 C554 1.363 . S
C552 H568 0.931 . S
C553 C552 1.370 . S
C553 C557 1.408 . S
C554 C552 1.363 . S
C554 C555 1.370 . S
C554 C558 1.524 . S
C555 C547 1.503 . S
C555 C554 1.370 . S
C555 C556 1.403 . S
C556 C555 1.403 . S
C556 C557 1.404 . S
C556 C559 1.539 . S
C557 C553 1.408 . S
C557 C556 1.404 . S
C557 H569 0.930 . S
C558 C554 1.524 . S
C558 H570 0.956 . S
C558 H571 0.961 . S
C558 H572 0.961 . S
C559 C556 1.539 . S
C559 H573 0.958 . S
C559 H574 0.961 . S
C559 H575 0.960 . S
H560 C544 0.931 . S
H561 C549 0.929 . S
H562 C550 0.960 . S
H563 C550 0.962 . S
H564 C550 0.960 . S
H565 C551 0.961 . S
H566 C551 0.961 . S
H567 C551 0.961 . S
H568 C552 0.931 . S
H569 C557 0.930 . S
H570 C558 0.956 . S
H571 C558 0.961 . S
H572 C558 0.961 . S
H573 C559 0.958 . S
H574 C559 0.961 . S
H575 C559 0.960 . S
C576 C577 1.391 . S
C576 C578 1.394 . S
C576 H592 0.931 . S
C577 C576 1.391 . S
C577 C581 1.376 . S
C578 C576 1.394 . S
C578 C579 1.369 . S
C578 C582 1.531 . S
C579 C578 1.369 . S
C579 C580 1.410 . S
C579 C587 1.503 . S
C580 C579 1.410 . S
C580 C581 1.392 . S
C580 C583 1.511 . S
C581 C577 1.376 . S
C581 C580 1.392 . S
C581 H593 0.929 . S
C582 C578 1.531 . S
C582 H594 0.960 . S
C582 H595 0.962 . S
C582 H596 0.960 . S
C583 C580 1.511 . S
C583 H597 0.961 . S
C583 H598 0.961 . S
C583 H599 0.961 . S
C584 C585 1.370 . S
C584 C586 1.363 . S
C584 H600 0.931 . S
C585 C584 1.370 . S
C585 C589 1.408 . S
C586 C584 1.363 . S
C586 C587 1.370 . S
C586 C590 1.524 . S
C587 C579 1.503 . S
C587 C586 1.370 . S
C587 C588 1.403 . S
C588 C587 1.403 . S
C588 C589 1.404 . S
C588 C591 1.539 . S
C589 C585 1.408 . S
C589 C588 1.404 . S
C589 H601 0.930 . S
C590 C586 1.524 . S
C590 H602 0.956 . S
C590 H603 0.961 . S
C590 H604 0.961 . S
C591 C588 1.539 . S
C591 H605 0.958 . S
C591 H606 0.961 . S
C591 H607 0.960 . S
H592 C576 0.931 . S
H593 C581 0.929 . S
H594 C582 0.960 . S
H595 C582 0.962 . S
H596 C582 0.960 . S
H597 C583 0.961 . S
H598 C583 0.961 . S
H599 C583 0.961 . S
H600 C584 0.931 . S
H601 C589 0.930 . S
H602 C590 0.956 . S
H603 C590 0.961 . S
H604 C590 0.961 . S
H605 C591 0.958 . S
H606 C591 0.961 . S
H607 C591 0.960 . S
C608 C609 1.391 . S
C608 C610 1.394 . S
C608 H624 0.931 . S
C609 C608 1.391 . S
C609 C613 1.376 . S
C610 C608 1.394 . S
C610 C611 1.369 . S
C610 C614 1.531 . S
C611 C610 1.369 . S
C611 C612 1.410 . S
C611 C619 1.503 . S
C612 C611 1.410 . S
C612 C613 1.392 . S
C612 C615 1.511 . S
C613 C609 1.376 . S
C613 C612 1.392 . S
C613 H625 0.929 . S
C614 C610 1.531 . S
C614 H626 0.960 . S
C614 H627 0.962 . S
C614 H628 0.960 . S
C615 C612 1.511 . S
C615 H629 0.961 . S
C615 H630 0.961 . S
C615 H631 0.961 . S
C616 C617 1.370 . S
C616 C618 1.363 . S
C616 H632 0.931 . S
C617 C616 1.370 . S
C617 C621 1.408 . S
C618 C616 1.363 . S
C618 C619 1.370 . S
C618 C622 1.524 . S
C619 C611 1.503 . S
C619 C618 1.370 . S
C619 C620 1.403 . S
C620 C619 1.403 . S
C620 C621 1.404 . S
C620 C623 1.539 . S
C621 C617 1.408 . S
C621 C620 1.404 . S
C621 H633 0.930 . S
C622 C618 1.524 . S
C622 H634 0.956 . S
C622 H635 0.961 . S
C622 H636 0.961 . S
C623 C620 1.539 . S
C623 H637 0.958 . S
C623 H638 0.961 . S
C623 H639 0.960 . S
H624 C608 0.931 . S
H625 C613 0.929 . S
H626 C614 0.960 . S
H627 C614 0.962 . S
H628 C614 0.960 . S
H629 C615 0.961 . S
H630 C615 0.961 . S
H631 C615 0.961 . S
H632 C616 0.931 . S
H633 C621 0.930 . S
H634 C622 0.956 . S
H635 C622 0.961 . S
H636 C622 0.961 . S
H637 C623 0.958 . S
H638 C623 0.961 . S
H639 C623 0.960 . S
C640 C641 1.391 . S
C640 C642 1.394 . S
C640 H656 0.931 . S
C641 C640 1.391 . S
C641 C645 1.376 . S
C642 C640 1.394 . S
C642 C643 1.369 . S
C642 C646 1.531 . S
C643 C642 1.369 . S
C643 C644 1.410 . S
C643 C651 1.503 . S
C644 C643 1.410 . S
C644 C645 1.392 . S
C644 C647 1.511 . S
C645 C641 1.376 . S
C645 C644 1.392 . S
C645 H657 0.929 . S
C646 C642 1.531 . S
C646 H658 0.960 . S
C646 H659 0.962 . S
C646 H660 0.960 . S
C647 C644 1.511 . S
C647 H661 0.961 . S
C647 H662 0.961 . S
C647 H663 0.961 . S
C648 C649 1.370 . S
C648 C650 1.363 . S
C648 H664 0.931 . S
C649 C648 1.370 . S
C649 C653 1.408 . S
C650 C648 1.363 . S
C650 C651 1.370 . S
C650 C654 1.524 . S
C651 C643 1.503 . S
C651 C650 1.370 . S
C651 C652 1.403 . S
C652 C651 1.403 . S
C652 C653 1.404 . S
C652 C655 1.539 . S
C653 C649 1.408 . S
C653 C652 1.404 . S
C653 H665 0.930 . S
C654 C650 1.524 . S
C654 H666 0.956 . S
C654 H667 0.961 . S
C654 H668 0.961 . S
C655 C652 1.539 . S
C655 H669 0.958 . S
C655 H670 0.961 . S
C655 H671 0.960 . S
H656 C640 0.931 . S
H657 C645 0.929 . S
H658 C646 0.960 . S
H659 C646 0.962 . S
H660 C646 0.960 . S
H661 C647 0.961 . S
H662 C647 0.961 . S
H663 C647 0.961 . S
H664 C648 0.931 . S
H665 C653 0.930 . S
H666 C654 0.956 . S
H667 C654 0.961 . S
H668 C654 0.961 . S
H669 C655 0.958 . S
H670 C655 0.961 . S
H671 C655 0.960 . S
C672 C673 1.391 . S
C672 C674 1.394 . S
C672 H688 0.931 . S
C673 C672 1.391 . S
C673 C677 1.376 . S
C674 C672 1.394 . S
C674 C675 1.369 . S
C674 C678 1.531 . S
C675 C674 1.369 . S
C675 C676 1.410 . S
C675 C683 1.503 . S
C676 C675 1.410 . S
C676 C677 1.392 . S
C676 C679 1.511 . S
C677 C673 1.376 . S
C677 C676 1.392 . S
C677 H689 0.929 . S
C678 C674 1.531 . S
C678 H690 0.960 . S
C678 H691 0.962 . S
C678 H692 0.960 . S
C679 C676 1.511 . S
C679 H693 0.961 . S
C679 H694 0.961 . S
C679 H695 0.961 . S
C680 C681 1.370 . S
C680 C682 1.363 . S
C680 H696 0.931 . S
C681 C680 1.370 . S
C681 C685 1.408 . S
C682 C680 1.363 . S
C682 C683 1.370 . S
C682 C686 1.524 . S
C683 C675 1.503 . S
C683 C682 1.370 . S
C683 C684 1.403 . S
C684 C683 1.403 . S
C684 C685 1.404 . S
C684 C687 1.539 . S
C685 C681 1.408 . S
C685 C684 1.404 . S
C685 H697 0.930 . S
C686 C682 1.524 . S
C686 H698 0.956 . S
C686 H699 0.961 . S
C686 H700 0.961 . S
C687 C684 1.539 . S
C687 H701 0.958 . S
C687 H702 0.961 . S
C687 H703 0.960 . S
H688 C672 0.931 . S
H689 C677 0.929 . S
H690 C678 0.960 . S
H691 C678 0.962 . S
H692 C678 0.960 . S
H693 C679 0.961 . S
H694 C679 0.961 . S
H695 C679 0.961 . S
H696 C680 0.931 . S
H697 C685 0.930 . S
H698 C686 0.956 . S
H699 C686 0.961 . S
H700 C686 0.961 . S
H701 C687 0.958 . S
H702 C687 0.961 . S
H703 C687 0.960 . S
C704 C705 1.391 . S
C704 C706 1.394 . S
C704 H720 0.931 . S
C705 C704 1.391 . S
C705 C709 1.376 . S
C706 C704 1.394 . S
C706 C707 1.369 . S
C706 C710 1.531 . S
C707 C706 1.369 . S
C707 C708 1.410 . S
C707 C715 1.503 . S
C708 C707 1.410 . S
C708 C709 1.392 . S
C708 C711 1.511 . S
C709 C705 1.376 . S
C709 C708 1.392 . S
C709 H721 0.929 . S
C710 C706 1.531 . S
C710 H722 0.960 . S
C710 H723 0.962 . S
C710 H724 0.960 . S
C711 C708 1.511 . S
C711 H725 0.961 . S
C711 H726 0.961 . S
C711 H727 0.961 . S
C712 C713 1.370 . S
C712 C714 1.363 . S
C712 H728 0.931 . S
C713 C712 1.370 . S
C713 C717 1.408 . S
C714 C712 1.363 . S
C714 C715 1.370 . S
C714 C718 1.524 . S
C715 C707 1.503 . S
C715 C714 1.370 . S
C715 C716 1.403 . S
C716 C715 1.403 . S
C716 C717 1.404 . S
C716 C719 1.539 . S
C717 C713 1.408 . S
C717 C716 1.404 . S
C717 H729 0.930 . S
C718 C714 1.524 . S
C718 H730 0.956 . S
C718 H731 0.961 . S
C718 H732 0.961 . S
C719 C716 1.539 . S
C719 H733 0.958 . S
C719 H734 0.961 . S
C719 H735 0.960 . S
H720 C704 0.931 . S
H721 C709 0.929 . S
H722 C710 0.960 . S
H723 C710 0.962 . S
H724 C710 0.960 . S
H725 C711 0.961 . S
H726 C711 0.961 . S
H727 C711 0.961 . S
H728 C712 0.931 . S
H729 C717 0.930 . S
H730 C718 0.956 . S
H731 C718 0.961 . S
H732 C718 0.961 . S
H733 C719 0.958 . S
H734 C719 0.961 . S
H735 C719 0.960 . S
C736 C737 1.391 . S
C736 C738 1.394 . S
C736 H752 0.931 . S
C737 C736 1.391 . S
C737 C741 1.376 . S
C738 C736 1.394 . S
C738 C739 1.369 . S
C738 C742 1.531 . S
C739 C738 1.369 . S
C739 C740 1.410 . S
C739 C747 1.503 . S
C740 C739 1.410 . S
C740 C741 1.392 . S
C740 C743 1.511 . S
C741 C737 1.376 . S
C741 C740 1.392 . S
C741 H753 0.929 . S
C742 C738 1.531 . S
C742 H754 0.960 . S
C742 H755 0.962 . S
C742 H756 0.960 . S
C743 C740 1.511 . S
C743 H757 0.961 . S
C743 H758 0.961 . S
C743 H759 0.961 . S
C744 C745 1.370 . S
C744 C746 1.363 . S
C744 H760 0.931 . S
C745 C744 1.370 . S
C745 C749 1.408 . S
C746 C744 1.363 . S
C746 C747 1.370 . S
C746 C750 1.524 . S
C747 C739 1.503 . S
C747 C746 1.370 . S
C747 C748 1.403 . S
C748 C747 1.403 . S
C748 C749 1.404 . S
C748 C751 1.539 . S
C749 C745 1.408 . S
C749 C748 1.404 . S
C749 H761 0.930 . S
C750 C746 1.524 . S
C750 H762 0.956 . S
C750 H763 0.961 . S
C750 H764 0.961 . S
C751 C748 1.539 . S
C751 H765 0.958 . S
C751 H766 0.961 . S
C751 H767 0.960 . S
H752 C736 0.931 . S
H753 C741 0.929 . S
H754 C742 0.960 . S
H755 C742 0.962 . S
H756 C742 0.960 . S
H757 C743 0.961 . S
H758 C743 0.961 . S
H759 C743 0.961 . S
H760 C744 0.931 . S
H761 C749 0.930 . S
H762 C750 0.956 . S
H763 C750 0.961 . S
H764 C750 0.961 . S
H765 C751 0.958 . S
H766 C751 0.961 . S
H767 C751 0.960 . S
C768 C769 1.391 . S
C768 C770 1.394 . S
C768 H784 0.931 . S
C769 C768 1.391 . S
C769 C773 1.376 . S
C770 C768 1.394 . S
C770 C771 1.369 . S
C770 C774 1.531 . S
C771 C770 1.369 . S
C771 C772 1.410 . S
C771 C779 1.503 . S
C772 C771 1.410 . S
C772 C773 1.392 . S
C772 C775 1.511 . S
C773 C769 1.376 . S
C773 C772 1.392 . S
C773 H785 0.929 . S
C774 C770 1.531 . S
C774 H786 0.960 . S
C774 H787 0.962 . S
C774 H788 0.960 . S
C775 C772 1.511 . S
C775 H789 0.961 . S
C775 H790 0.961 . S
C775 H791 0.961 . S
C776 C777 1.370 . S
C776 C778 1.363 . S
C776 H792 0.931 . S
C777 C776 1.370 . S
C777 C781 1.408 . S
C778 C776 1.363 . S
C778 C779 1.370 . S
C778 C782 1.524 . S
C779 C771 1.503 . S
C779 C778 1.370 . S
C779 C780 1.403 . S
C780 C779 1.403 . S
C780 C781 1.404 . S
C780 C783 1.539 . S
C781 C777 1.408 . S
C781 C780 1.404 . S
C781 H793 0.930 . S
C782 C778 1.524 . S
C782 H794 0.956 . S
C782 H795 0.961 . S
C782 H796 0.961 . S
C783 C780 1.539 . S
C783 H797 0.958 . S
C783 H798 0.961 . S
C783 H799 0.960 . S
H784 C768 0.931 . S
H785 C773 0.929 . S
H786 C774 0.960 . S
H787 C774 0.962 . S
H788 C774 0.960 . S
H789 C775 0.961 . S
H790 C775 0.961 . S
H791 C775 0.961 . S
H792 C776 0.931 . S
H793 C781 0.930 . S
H794 C782 0.956 . S
H795 C782 0.961 . S
H796 C782 0.961 . S
H797 C783 0.958 . S
H798 C783 0.961 . S
H799 C783 0.960 . S
C800 C801 1.391 . S
C800 C802 1.394 . S
C800 H816 0.931 . S
C801 C800 1.391 . S
C801 C805 1.376 . S
C802 C800 1.394 . S
C802 C803 1.369 . S
C802 C806 1.531 . S
C803 C802 1.369 . S
C803 C804 1.410 . S
C803 C811 1.503 . S
C804 C803 1.410 . S
C804 C805 1.392 . S
C804 C807 1.511 . S
C805 C801 1.376 . S
C805 C804 1.392 . S
C805 H817 0.929 . S
C806 C802 1.531 . S
C806 H818 0.960 . S
C806 H819 0.962 . S
C806 H820 0.960 . S
C807 C804 1.511 . S
C807 H821 0.961 . S
C807 H822 0.961 . S
C807 H823 0.961 . S
C808 C809 1.370 . S
C808 C810 1.363 . S
C808 H824 0.931 . S
C809 C808 1.370 . S
C809 C813 1.408 . S
C810 C808 1.363 . S
C810 C811 1.370 . S
C810 C814 1.524 . S
C811 C803 1.503 . S
C811 C810 1.370 . S
C811 C812 1.403 . S
C812 C811 1.403 . S
C812 C813 1.404 . S
C812 C815 1.539 . S
C813 C809 1.408 . S
C813 C812 1.404 . S
C813 H825 0.930 . S
C814 C810 1.524 . S
C814 H826 0.956 . S
C814 H827 0.961 . S
C814 H828 0.961 . S
C815 C812 1.539 . S
C815 H829 0.958 . S
C815 H830 0.961 . S
C815 H831 0.960 . S
H816 C800 0.931 . S
H817 C805 0.929 . S
H818 C806 0.960 . S
H819 C806 0.962 . S
H820 C806 0.960 . S
H821 C807 0.961 . S
H822 C807 0.961 . S
H823 C807 0.961 . S
H824 C808 0.931 . S
H825 C813 0.930 . S
H826 C814 0.956 . S
H827 C814 0.961 . S
H828 C814 0.961 . S
H829 C815 0.958 . S
H830 C815 0.961 . S
H831 C815 0.960 . S
C832 C833 1.391 . S
C832 C834 1.394 . S
C832 H848 0.931 . S
C833 C832 1.391 . S
C833 C837 1.376 . S
C834 C832 1.394 . S
C834 C835 1.369 . S
C834 C838 1.531 . S
C835 C834 1.369 . S
C835 C836 1.410 . S
C835 C843 1.503 . S
C836 C835 1.410 . S
C836 C837 1.392 . S
C836 C839 1.511 . S
C837 C833 1.376 . S
C837 C836 1.392 . S
C837 H849 0.929 . S
C838 C834 1.531 . S
C838 H850 0.960 . S
C838 H851 0.962 . S
C838 H852 0.960 . S
C839 C836 1.511 . S
C839 H853 0.961 . S
C839 H854 0.961 . S
C839 H855 0.961 . S
C840 C841 1.370 . S
C840 C842 1.363 . S
C840 H856 0.931 . S
C841 C840 1.370 . S
C841 C845 1.408 . S
C842 C840 1.363 . S
C842 C843 1.370 . S
C842 C846 1.524 . S
C843 C835 1.503 . S
C843 C842 1.370 . S
C843 C844 1.403 . S
C844 C843 1.403 . S
C844 C845 1.404 . S
C844 C847 1.539 . S
C845 C841 1.408 . S
C845 C844 1.404 . S
C845 H857 0.930 . S
C846 C842 1.524 . S
C846 H858 0.956 . S
C846 H859 0.961 . S
C846 H860 0.961 . S
C847 C844 1.539 . S
C847 H861 0.958 . S
C847 H862 0.961 . S
C847 H863 0.960 . S
H848 C832 0.931 . S
H849 C837 0.929 . S
H850 C838 0.960 . S
H851 C838 0.962 . S
H852 C838 0.960 . S
H853 C839 0.961 . S
H854 C839 0.961 . S
H855 C839 0.961 . S
H856 C840 0.931 . S
H857 C845 0.930 . S
H858 C846 0.956 . S
H859 C846 0.961 . S
H860 C846 0.961 . S
H861 C847 0.958 . S
H862 C847 0.961 . S
H863 C847 0.960 . S
C864 C865 1.391 . S
C864 C866 1.394 . S
C864 H880 0.931 . S
C865 C864 1.391 . S
C865 C869 1.376 . S
C866 C864 1.394 . S
C866 C867 1.369 . S
C866 C870 1.531 . S
C867 C866 1.369 . S
C867 C868 1.410 . S
C867 C875 1.503 . S
C868 C867 1.410 . S
C868 C869 1.392 . S
C868 C871 1.511 . S
C869 C865 1.376 . S
C869 C868 1.392 . S
C869 H881 0.929 . S
C870 C866 1.531 . S
C870 H882 0.960 . S
C870 H883 0.962 . S
C870 H884 0.960 . S
C871 C868 1.511 . S
C871 H885 0.961 . S
C871 H886 0.961 . S
C871 H887 0.961 . S
C872 C873 1.370 . S
C872 C874 1.363 . S
C872 H888 0.931 . S
C873 C872 1.370 . S
C873 C877 1.408 . S
C874 C872 1.363 . S
C874 C875 1.370 . S
C874 C878 1.524 . S
C875 C867 1.503 . S
C875 C874 1.370 . S
C875 C876 1.403 . S
C876 C875 1.403 . S
C876 C877 1.404 . S
C876 C879 1.539 . S
C877 C873 1.408 . S
C877 C876 1.404 . S
C877 H889 0.930 . S
C878 C874 1.524 . S
C878 H890 0.956 . S
C878 H891 0.961 . S
C878 H892 0.961 . S
C879 C876 1.539 . S
C879 H893 0.958 . S
C879 H894 0.961 . S
C879 H895 0.960 . S
H880 C864 0.931 . S
H881 C869 0.929 . S
H882 C870 0.960 . S
H883 C870 0.962 . S
H884 C870 0.960 . S
H885 C871 0.961 . S
H886 C871 0.961 . S
H887 C871 0.961 . S
H888 C872 0.931 . S
H889 C877 0.930 . S
H890 C878 0.956 . S
H891 C878 0.961 . S
H892 C878 0.961 . S
H893 C879 0.958 . S
H894 C879 0.961 . S
H895 C879 0.960 . S
C896 C897 1.391 . S
C896 C898 1.394 . S
C896 H912 0.931 . S
C897 C896 1.391 . S
C897 C901 1.376 . S
C898 C896 1.394 . S
C898 C899 1.369 . S
C898 C902 1.531 . S
C899 C898 1.369 . S
C899 C900 1.410 . S
C899 C907 1.503 . S
C900 C899 1.410 . S
C900 C901 1.392 . S
C900 C903 1.511 . S
C901 C897 1.376 . S
C901 C900 1.392 . S
C901 H913 0.929 . S
C902 C898 1.531 . S
C902 H914 0.960 . S
C902 H915 0.962 . S
C902 H916 0.960 . S
C903 C900 1.511 . S
C903 H917 0.961 . S
C903 H918 0.961 . S
C903 H919 0.961 . S
C904 C905 1.370 . S
C904 C906 1.363 . S
C904 H920 0.931 . S
C905 C904 1.370 . S
C905 C909 1.408 . S
C906 C904 1.363 . S
C906 C907 1.370 . S
C906 C910 1.524 . S
C907 C899 1.503 . S
C907 C906 1.370 . S
C907 C908 1.403 . S
C908 C907 1.403 . S
C908 C909 1.404 . S
C908 C911 1.539 . S
C909 C905 1.408 . S
C909 C908 1.404 . S
C909 H921 0.930 . S
C910 C906 1.524 . S
C910 H922 0.956 . S
C910 H923 0.961 . S
C910 H924 0.961 . S
C911 C908 1.539 . S
C911 H925 0.958 . S
C911 H926 0.961 . S
C911 H927 0.960 . S
H912 C896 0.931 . S
H913 C901 0.929 . S
H914 C902 0.960 . S
H915 C902 0.962 . S
H916 C902 0.960 . S
H917 C903 0.961 . S
H918 C903 0.961 . S
H919 C903 0.961 . S
H920 C904 0.931 . S
H921 C909 0.930 . S
H922 C910 0.956 . S
H923 C910 0.961 . S
H924 C910 0.961 . S
H925 C911 0.958 . S
H926 C911 0.961 . S
H927 C911 0.960 . S
C928 C929 1.391 . S
C928 C930 1.394 . S
C928 H944 0.931 . S
C929 C928 1.391 . S
C929 C933 1.376 . S
C930 C928 1.394 . S
C930 C931 1.369 . S
C930 C934 1.531 . S
C931 C930 1.369 . S
C931 C932 1.410 . S
C931 C939 1.503 . S
C932 C931 1.410 . S
C932 C933 1.392 . S
C932 C935 1.511 . S
C933 C929 1.376 . S
C933 C932 1.392 . S
C933 H945 0.929 . S
C934 C930 1.531 . S
C934 H946 0.960 . S
C934 H947 0.962 . S
C934 H948 0.960 . S
C935 C932 1.511 . S
C935 H949 0.961 . S
C935 H950 0.961 . S
C935 H951 0.961 . S
C936 C937 1.370 . S
C936 C938 1.363 . S
C936 H952 0.931 . S
C937 C936 1.370 . S
C937 C941 1.408 . S
C938 C936 1.363 . S
C938 C939 1.370 . S
C938 C942 1.524 . S
C939 C931 1.503 . S
C939 C938 1.370 . S
C939 C940 1.403 . S
C940 C939 1.403 . S
C940 C941 1.404 . S
C940 C943 1.539 . S
C941 C937 1.408 . S
C941 C940 1.404 . S
C941 H953 0.930 . S
C942 C938 1.524 . S
C942 H954 0.956 . S
C942 H955 0.961 . S
C942 H956 0.961 . S
C943 C940 1.539 . S
C943 H957 0.958 . S
C943 H958 0.961 . S
C943 H959 0.960 . S
H944 C928 0.931 . S
H945 C933 0.929 . S
H946 C934 0.960 . S
H947 C934 0.962 . S
H948 C934 0.960 . S
H949 C935 0.961 . S
H950 C935 0.961 . S
H951 C935 0.961 . S
H952 C936 0.931 . S
H953 C941 0.930 . S
H954 C942 0.956 . S
H955 C942 0.961 . S
H956 C942 0.961 . S
H957 C943 0.958 . S
H958 C943 0.961 . S
H959 C943 0.960 . S
C193 C13 1.593 . S
C201 C98 1.497 . S
C225 C27 1.599 . S
C233 C109 1.512 . S
C265 C128 1.525 . S
C257 C29 1.583 . S
C297 C145 1.514 . S
C289 C54 1.588 . S
C329 C172 1.515 . S
C321 C69 1.580 . S
C361 C181 1.515 . S
C353 C83 1.591 . S
C385 C15 1.580 . S
C393 C134 1.519 . S
C417 C41 1.598 . S
C425 C154 1.523 . S
C457 C163 1.516 . S
C449 C42 1.581 . S
C489 C190 1.544 . S
C481 C57 1.582 . S
C513 C71 1.579 . S
C521 C92 1.514 . S
C553 C118 1.538 . S
C545 C1 1.588 . S
C585 C146 1.572 . S
C577 C12 1.643 . S
C609 C26 1.660 . S
C617 C170 1.558 . S
C649 C182 1.568 . S
C641 C28 1.630 . S
C673 C55 1.660 . S
C681 C100 1.527 . S
C705 C68 1.634 . S
C713 C110 1.573 . S
C737 C82 1.658 . S
C745 C127 1.553 . S
C769 C14 1.657 . S
C777 C188 1.556 . S
C809 C91 1.536 . S
C801 C40 1.651 . S
C833 C43 1.657 . S
C841 C116 1.555 . S
C865 C56 1.638 . S
C873 C136 1.555 . S
C897 C70 1.656 . S
C905 C152 1.558 . S
C929 C0 1.638 . S
C937 C164 1.577 . S
