# Generated by pormake.
# Topology pyr, (3,6)-cn, num edge types: 1
# Building blocks:
#     Node 0, Type 0, BuildingBlock: CUQRIR_clean_linker_1, # of connection points: 3
#     Node 1, Type 0, BuildingBlock: CUQRIR_clean_linker_1, # of connection points: 3
#     Node 2, Type 0, BuildingBlock: CUQRIR_clean_linker_1, # of connection points: 3
#     Node 3, Type 0, BuildingBlock: CUQRIR_clean_linker_1, # of connection points: 3
#     Node 4, Type 0, BuildingBlock: CUQRIR_clean_linker_1, # of connection points: 3
#     Node 5, Type 0, BuildingBlock: CUQRIR_clean_linker_1, # of connection points: 3
#     Node 6, Type 0, BuildingBlock: CUQRIR_clean_linker_1, # of connection points: 3
#     Node 7, Type 0, BuildingBlock: CUQRIR_clean_linker_1, # of connection points: 3
#     Node 8, Type 1, BuildingBlock: MIDCAF_clean_sbu_0, # of connection points: 6
#     Node 9, Type 1, BuildingBlock: MIDCAF_clean_sbu_0, # of connection points: 6
#     Node 10, Type 1, BuildingBlock: MIDCAF_clean_sbu_0, # of connection points: 6
#     Node 11, Type 1, BuildingBlock: MIDCAF_clean_sbu_0, # of connection points: 6
#     Edge 12, Type (0, 1), BuildingBlock: UVAHIK_clean_linker_0, # of connection points: 2
#     Edge 13, Type (0, 1), BuildingBlock: UVAHIK_clean_linker_0, # of connection points: 2
#     Edge 14, Type (0, 1), BuildingBlock: UVAHIK_clean_linker_0, # of connection points: 2
#     Edge 15, Type (0, 1), BuildingBlock: UVAHIK_clean_linker_0, # of connection points: 2
#     Edge 16, Type (0, 1), BuildingBlock: UVAHIK_clean_linker_0, # of connection points: 2
#     Edge 17, Type (0, 1), BuildingBlock: UVAHIK_clean_linker_0, # of connection points: 2
#     Edge 18, Type (0, 1), BuildingBlock: UVAHIK_clean_linker_0, # of connection points: 2
#     Edge 19, Type (0, 1), BuildingBlock: UVAHIK_clean_linker_0, # of connection points: 2
#     Edge 20, Type (0, 1), BuildingBlock: UVAHIK_clean_linker_0, # of connection points: 2
#     Edge 21, Type (0, 1), BuildingBlock: UVAHIK_clean_linker_0, # of connection points: 2
#     Edge 22, Type (0, 1), BuildingBlock: UVAHIK_clean_linker_0, # of connection points: 2
#     Edge 23, Type (0, 1), BuildingBlock: UVAHIK_clean_linker_0, # of connection points: 2
#     Edge 24, Type (0, 1), BuildingBlock: UVAHIK_clean_linker_0, # of connection points: 2
#     Edge 25, Type (0, 1), BuildingBlock: UVAHIK_clean_linker_0, # of connection points: 2
#     Edge 26, Type (0, 1), BuildingBlock: UVAHIK_clean_linker_0, # of connection points: 2
#     Edge 27, Type (0, 1), BuildingBlock: UVAHIK_clean_linker_0, # of connection points: 2
#     Edge 28, Type (0, 1), BuildingBlock: UVAHIK_clean_linker_0, # of connection points: 2
#     Edge 29, Type (0, 1), BuildingBlock: UVAHIK_clean_linker_0, # of connection points: 2
#     Edge 30, Type (0, 1), BuildingBlock: UVAHIK_clean_linker_0, # of connection points: 2
#     Edge 31, Type (0, 1), BuildingBlock: UVAHIK_clean_linker_0, # of connection points: 2
#     Edge 32, Type (0, 1), BuildingBlock: UVAHIK_clean_linker_0, # of connection points: 2
#     Edge 33, Type (0, 1), BuildingBlock: UVAHIK_clean_linker_0, # of connection points: 2
#     Edge 34, Type (0, 1), BuildingBlock: UVAHIK_clean_linker_0, # of connection points: 2
#     Edge 35, Type (0, 1), BuildingBlock: UVAHIK_clean_linker_0, # of connection points: 2
# Relax obj value: 0.101
# Max RMSD: 0.208
# Mean RMSD: 0.153
data_MOF--net-pyr--node1-MIDCAF_clean_sbu_0--node2-CUQRIR_clean_linker_1--edge1-UVAHIK_clean_linker_0
_symmetry_space_group_name_H-M    P1
_symmetry_Int_Tables_number       1
_symmetry_cell_setting            triclinic
loop_
_symmetry_equiv_pos_as_xyz
'x, y, z'
_cell_length_a     43.361189
_cell_length_b     43.303615
_cell_length_c     42.532446
_cell_angle_alpha  88.0953
_cell_angle_beta   91.739731
_cell_angle_gamma 93.573713
loop_
_atom_site_label
_atom_site_type_symbol
_atom_site_fract_x
_atom_site_fract_y
_atom_site_fract_z
_atom_type_partial_charge
C0 C 0.22063 0.27662 0.24665 0.0
N1 N 0.23539 0.25019 0.25223 0.0
N2 N 0.2314 0.29198 0.22052 0.0
C3 C 0.19292 0.28535 0.2642 0.0
C4 C 0.25287 0.27361 0.21009 0.0
N5 N 0.25523 0.24821 0.22925 0.0
C6 C 0.272 0.2807 0.18156 0.0
H7 H 0.17972 0.26453 0.27372 0.0
H8 H 0.17712 0.29865 0.24874 0.0
H9 H 0.20091 0.29996 0.28415 0.0
H10 H 0.29528 0.27164 0.18508 0.0
H11 H 0.27439 0.306 0.17631 0.0
H12 H 0.2605 0.26917 0.16104 0.0
C13 C 0.30594 0.81317 0.6889 0.0
N14 N 0.30138 0.8313 0.7135 0.0
N15 N 0.33533 0.80411 0.6896 0.0
C16 C 0.28268 0.8069 0.66251 0.0
C17 C 0.34851 0.81763 0.71542 0.0
N18 N 0.32794 0.83426 0.72979 0.0
C19 C 0.38132 0.81436 0.72687 0.0
H20 H 0.26792 0.78591 0.66887 0.0
H21 H 0.29424 0.80284 0.64024 0.0
H22 H 0.26754 0.82647 0.65862 0.0
H23 H 0.39009 0.79241 0.71911 0.0
H24 H 0.38309 0.81509 0.75292 0.0
H25 H 0.39605 0.83401 0.71707 0.0
C26 C 0.64753 0.33357 0.83017 0.0
N27 N 0.67167 0.32797 0.85003 0.0
N28 N 0.64962 0.36335 0.81915 0.0
C29 C 0.6204 0.31091 0.82412 0.0
C30 C 0.67582 0.37561 0.83323 0.0
N31 N 0.68896 0.3542 0.85226 0.0
C32 C 0.68957 0.40795 0.8272 0.0
H33 H 0.62531 0.29691 0.80369 0.0
H34 H 0.599 0.32307 0.81874 0.0
H35 H 0.61646 0.2949 0.84472 0.0
H36 H 0.68108 0.42341 0.84488 0.0
H37 H 0.68282 0.41679 0.80335 0.0
H38 H 0.71517 0.40864 0.82952 0.0
C39 C 0.79327 0.6948 0.30771 0.0
N40 N 0.81404 0.71844 0.30063 0.0
N41 N 0.77587 0.70199 0.33198 0.0
C42 C 0.78946 0.66496 0.29051 0.0
C43 C 0.78676 0.73091 0.33938 0.0
N44 N 0.80978 0.7411 0.32005 0.0
C45 C 0.77745 0.74772 0.36771 0.0
H46 H 0.76564 0.6543 0.29265 0.0
H47 H 0.80591 0.64857 0.30091 0.0
H48 H 0.79467 0.6689 0.26526 0.0
H49 H 0.76552 0.73183 0.38505 0.0
H50 H 0.76157 0.76576 0.35988 0.0
H51 H 0.79796 0.75939 0.37948 0.0
C52 C 0.86547 0.92063 0.92678 0.0
N53 N 0.8882 0.90886 0.91048 0.0
N54 N 0.85648 0.94727 0.91274 0.0
C55 C 0.8505 0.90496 0.95507 0.0
C56 C 0.87458 0.95127 0.88739 0.0
N57 N 0.89409 0.92816 0.88617 0.0
C58 C 0.8723 0.97704 0.86303 0.0
H59 H 0.82962 0.89091 0.94713 0.0
H60 H 0.84315 0.9221 0.97161 0.0
H61 H 0.86648 0.88953 0.9678 0.0
H62 H 0.86259 0.99754 0.87312 0.0
H63 H 0.85683 0.96889 0.84335 0.0
H64 H 0.89536 0.98371 0.85341 0.0
C65 C 0.6884 0.18847 0.41112 0.0
N66 N 0.68852 0.16073 0.39714 0.0
N67 N 0.66006 0.19993 0.40816 0.0
C68 C 0.71538 0.20387 0.42873 0.0
C69 C 0.643 0.17834 0.39187 0.0
N70 N 0.66011 0.15434 0.38555 0.0
C71 C 0.61037 0.18208 0.37967 0.0
H72 H 0.70744 0.22005 0.44604 0.0
H73 H 0.73029 0.21727 0.41174 0.0
H74 H 0.72936 0.18635 0.44109 0.0
H75 H 0.60584 0.20686 0.37575 0.0
H76 H 0.59411 0.17193 0.39741 0.0
H77 H 0.60556 0.16997 0.35732 0.0
C78 C 0.35891 0.6209 0.18885 0.0
N79 N 0.3749 0.64877 0.18803 0.0
N80 N 0.34951 0.61264 0.15953 0.0
C81 C 0.35349 0.60105 0.21812 0.0
C82 C 0.3605 0.63648 0.14077 0.0
N83 N 0.37634 0.65822 0.15807 0.0
C84 C 0.35262 0.64019 0.10615 0.0
H85 H 0.37353 0.60375 0.23486 0.0
H86 H 0.34953 0.5763 0.21228 0.0
H87 H 0.33275 0.60839 0.22982 0.0
H88 H 0.32906 0.62999 0.10062 0.0
H89 H 0.36934 0.62786 0.09271 0.0
H90 H 0.35388 0.66488 0.09821 0.0
C91 C 0.11505 0.34131 0.70772 0.0
N92 N 0.13989 0.34132 0.68921 0.0
N93 N 0.11923 0.36359 0.72923 0.0
C94 C 0.08633 0.3202 0.70428 0.0
C95 C 0.14756 0.37711 0.72326 0.0
N96 N 0.16033 0.36329 0.69912 0.0
C97 C 0.16219 0.4046 0.74005 0.0
H98 H 0.0746 0.3164 0.727 0.0
H99 H 0.09191 0.29752 0.69524 0.0
H100 H 0.07005 0.33106 0.68727 0.0
H101 H 0.17274 0.42162 0.72282 0.0
H102 H 0.18088 0.39675 0.75622 0.0
H103 H 0.14535 0.41603 0.75412 0.0
Zn104 Zn 0.99173 0.05593 0.54681 0.0
Zn105 Zn 0.06375 0.98547 0.49989 0.0
Zn106 Zn 0.02797 0.02037 0.52128 0.0
C107 C 0.08085 0.0417 0.47243 0.0
C108 C 0.00575 0.96408 0.47907 0.0
O109 O 0.02307 0.00527 0.57173 0.0
O110 O 0.9826 0.02995 0.58531 0.0
C111 C 0.0456 0.09162 0.53246 0.0
O112 O 0.06399 0.04974 0.49495 0.0
O113 O 0.08236 0.01334 0.46721 0.0
O114 O 0.03188 0.95385 0.48571 0.0
O115 O 0.99992 0.99138 0.48758 0.0
O116 O 0.02193 0.09214 0.54896 0.0
O117 O 0.05092 0.06715 0.51755 0.0
O118 O 0.98228 0.0164 0.49484 0.0
O119 O 0.95993 0.05657 0.51295 0.0
C120 C 0.95999 0.03488 0.49392 0.0
O121 O 0.04865 0.99238 0.56087 0.0
O122 O 0.08964 0.97675 0.53786 0.0
C123 C 0.00217 0.01011 0.59166 0.0
C124 C 0.07483 0.97972 0.56251 0.0
Zn125 Zn 0.47236 0.0628 0.01682 0.0
Zn126 Zn 0.5352 0.98351 0.07587 0.0
Zn127 Zn 0.5013 0.02335 0.04543 0.0
C128 C 0.5751 0.01541 0.03573 0.0
C129 C 0.48781 0.94926 0.04476 0.0
O130 O 0.47702 0.04976 0.08086 0.0
O131 O 0.44135 0.06854 0.04891 0.0
C132 C 0.53184 0.08257 0.00914 0.0
O133 O 0.54971 0.02833 0.02839 0.0
O134 O 0.57578 0.99483 0.05738 0.0
O135 O 0.51196 0.94588 0.06148 0.0
O136 O 0.47981 0.97652 0.03613 0.0
O137 O 0.50662 0.09522 0.01138 0.0
O138 O 0.53365 0.05377 0.0172 0.0
O139 O 0.46746 0.99776 0.01374 0.0
O140 O 0.45945 0.03677 0.98052 0.0
C141 C 0.45655 0.00811 0.98715 0.0
O142 O 0.50106 0.03389 0.09616 0.0
O143 O 0.52851 0.99733 0.11875 0.0
C144 C 0.4515 0.06335 0.07657 0.0
C145 C 0.51339 0.0211 0.12093 0.0
Zn146 Zn 0.54664 0.56841 0.55612 0.0
Zn147 Zn 0.4412 0.49708 0.46008 0.0
Zn148 Zn 0.48015 0.51808 0.50335 0.0
C149 C 0.49649 0.46989 0.4493 0.0
C150 C 0.4468 0.56359 0.45784 0.0
O151 O 0.48346 0.57051 0.51148 0.0
O152 O 0.51973 0.60138 0.53715 0.0
C153 C 0.49376 0.51137 0.56845 0.0
O154 O 0.50465 0.48859 0.47146 0.0
O155 O 0.4688 0.46845 0.43895 0.0
O156 O 0.43512 0.54043 0.44329 0.0
O157 O 0.46389 0.55977 0.48255 0.0
O158 O 0.51137 0.53312 0.55681 0.0
O159 O 0.47339 0.49886 0.54983 0.0
O160 O 0.52454 0.50717 0.48784 0.0
O161 O 0.53606 0.53281 0.52895 0.0
C162 C 0.54502 0.52298 0.5034 0.0
O163 O 0.44645 0.48983 0.5313 0.0
O164 O 0.41264 0.47878 0.49281 0.0
C165 C 0.49436 0.59749 0.52105 0.0
C166 C 0.42021 0.47753 0.52179 0.0
Zn167 Zn 0.03414 0.57006 0.98037 0.0
Zn168 Zn 0.96786 0.51797 0.07622 0.0
Zn169 Zn 0.99893 0.54468 0.02661 0.0
C170 C 0.02924 0.50717 0.08762 0.0
C171 C 0.94574 0.48948 0.02013 0.0
O172 O 0.99047 0.59488 0.02207 0.0
O173 O 0.02351 0.61328 0.98633 0.0
C174 C 0.07398 0.54351 0.02361 0.0
O175 O 0.03054 0.52175 0.0607 0.0
O176 O 0.00397 0.50337 0.10163 0.0
O177 O 0.94325 0.48777 0.04968 0.0
O178 O 0.96519 0.50949 0.00737 0.0
O179 O 0.0748 0.55654 0.99664 0.0
O180 O 0.0481 0.53819 0.03751 0.0
O181 O 0.9853 0.52041 0.98312 0.0
O182 O 0.01277 0.54582 0.94644 0.0
C183 C 0.99324 0.52427 0.95424 0.0
O184 O 0.97463 0.58173 0.04822 0.0
O185 O 0.94892 0.55691 0.08666 0.0
C186 C 0.00264 0.6177 0.00547 0.0
C187 C 0.95599 0.58166 0.07125 0.0
C188 C 0.22648 0.23589 0.30784 0.0
C189 C 0.22822 0.22707 0.27653 0.0
C190 C 0.21322 0.21552 0.33052 0.0
C191 C 0.15946 0.14504 0.3353 0.0
H192 H 0.17957 0.14882 0.42465 0.0
C193 C 0.11571 0.05371 0.42738 0.0
C194 C 0.09861 0.06453 0.45198 0.0
C195 C 0.13209 0.07427 0.4072 0.0
C196 C 0.17362 0.14781 0.39976 0.0
H197 H 0.21943 0.18945 0.24471 0.0
H198 H 0.19846 0.15289 0.2846 0.0
H199 H 0.21021 0.18093 0.38725 0.0
H200 H 0.0851 0.10583 0.47384 0.0
H201 H 0.11527 0.14199 0.43934 0.0
H202 H 0.12375 0.11084 0.34801 0.0
C203 C 0.20598 0.17603 0.29157 0.0
C204 C 0.1911 0.1662 0.37825 0.0
C205 C 0.21867 0.1967 0.26876 0.0
C206 C 0.09856 0.09664 0.45586 0.0
C207 C 0.11565 0.11734 0.43597 0.0
C208 C 0.14248 0.12627 0.35673 0.0
C209 C 0.20193 0.18552 0.32252 0.0
C210 C 0.18427 0.1651 0.34565 0.0
C211 C 0.13229 0.10622 0.41131 0.0
C212 C 0.14936 0.12752 0.38911 0.0
H213 H 0.23384 0.25924 0.3143 0.0
H214 H 0.21045 0.22399 0.35385 0.0
H215 H 0.15274 0.14403 0.31063 0.0
H216 H 0.11631 0.02919 0.42337 0.0
H217 H 0.14479 0.06517 0.38838 0.0
C218 C 0.3258 0.84032 0.78699 0.0
C219 C 0.33396 0.85242 0.75721 0.0
C220 C 0.33537 0.85616 0.81415 0.0
C221 C 0.36274 0.93303 0.84205 0.0
H222 H 0.40564 0.88827 0.90886 0.0
C223 C 0.44088 0.99756 0.93161 0.0
C224 C 0.44144 0.98744 0.96335 0.0
C225 C 0.42548 0.97976 0.90864 0.0
C226 C 0.39327 0.90104 0.89071 0.0
H227 H 0.35794 0.89012 0.73186 0.0
H228 H 0.37407 0.91852 0.77914 0.0
H229 H 0.38139 0.86015 0.86464 0.0
H230 H 0.42624 0.95045 0.99577 0.0
H231 H 0.39901 0.91897 0.9554 0.0
H232 H 0.37444 0.97385 0.86775 0.0
C233 C 0.36027 0.89691 0.78173 0.0
C234 C 0.37941 0.88493 0.86536 0.0
C235 C 0.3511 0.88083 0.75472 0.0
C236 C 0.42661 0.95863 0.9715 0.0
C237 C 0.41092 0.94071 0.94835 0.0
C238 C 0.3763 0.94904 0.86741 0.0
C239 C 0.35292 0.88455 0.8118 0.0
C240 C 0.36463 0.90089 0.8404 0.0
C241 C 0.40981 0.95135 0.91666 0.0
C242 C 0.39249 0.93343 0.89167 0.0
H243 H 0.31292 0.81815 0.78917 0.0
H244 H 0.32927 0.84614 0.83697 0.0
H245 H 0.35103 0.94589 0.82348 0.0
H246 H 0.45242 0.01944 0.92437 0.0
H247 H 0.42597 0.98836 0.88445 0.0
C248 C 0.61753 0.36553 0.77034 0.0
C249 C 0.6281 0.37883 0.79863 0.0
C250 C 0.59716 0.38088 0.75011 0.0
C251 C 0.58055 0.45574 0.72188 0.0
H252 H 0.50036 0.42088 0.69353 0.0
C253 C 0.51397 0.51803 0.62341 0.0
C254 C 0.49907 0.49918 0.60071 0.0
C255 C 0.52376 0.50524 0.6523 0.0
C256 C 0.52282 0.43087 0.7009 0.0
H257 H 0.62504 0.41794 0.82855 0.0
H258 H 0.59071 0.44574 0.79217 0.0
H259 H 0.52989 0.39354 0.73434 0.0
H260 H 0.48141 0.45258 0.59064 0.0
H261 H 0.49989 0.42984 0.64006 0.0
H262 H 0.57517 0.49174 0.68723 0.0
C263 C 0.59791 0.42327 0.78599 0.0
C264 C 0.53953 0.41527 0.72443 0.0
C265 C 0.6177 0.40757 0.80654 0.0
C266 C 0.49269 0.46765 0.6079 0.0
C267 C 0.50321 0.45466 0.63643 0.0
C268 C 0.56427 0.47096 0.69786 0.0
C269 C 0.58759 0.41004 0.75762 0.0
C270 C 0.56862 0.42749 0.73479 0.0
C271 C 0.51976 0.47312 0.65867 0.0
C272 C 0.53531 0.45856 0.68669 0.0
H273 H 0.6255 0.34355 0.76366 0.0
H274 H 0.5897 0.37049 0.72811 0.0
H275 H 0.60313 0.46537 0.72941 0.0
H276 H 0.51885 0.54253 0.61846 0.0
H277 H 0.53542 0.52045 0.66916 0.0
C278 C 0.85823 0.69664 0.27636 0.0
C279 C 0.83637 0.71914 0.27627 0.0
C280 C 0.87646 0.69378 0.25024 0.0
C281 C 0.91881 0.69729 0.19444 0.0
H282 H 0.86801 0.6877 0.11836 0.0
C283 C 0.96317 0.63657 0.08802 0.0
C284 C 0.94351 0.6104 0.08162 0.0
C285 C 0.95267 0.66045 0.10564 0.0
C286 C 0.88268 0.69082 0.13923 0.0
H287 H 0.81729 0.75737 0.2501 0.0
H288 H 0.84906 0.75231 0.20378 0.0
H289 H 0.84691 0.71044 0.16421 0.0
H290 H 0.89707 0.58966 0.08594 0.0
H291 H 0.87851 0.63143 0.11572 0.0
H292 H 0.95388 0.67582 0.17008 0.0
C293 C 0.85215 0.73689 0.22406 0.0
C294 C 0.87067 0.70401 0.16546 0.0
C295 C 0.83416 0.73994 0.25046 0.0
C296 C 0.91261 0.60968 0.09056 0.0
C297 C 0.90198 0.63369 0.10752 0.0
C298 C 0.93091 0.68434 0.16811 0.0
C299 C 0.87294 0.71323 0.22336 0.0
C300 C 0.88814 0.70613 0.19379 0.0
C301 C 0.92222 0.65869 0.11645 0.0
C302 C 0.91248 0.67971 0.14071 0.0
H303 H 0.86019 0.68047 0.29619 0.0
H304 H 0.89197 0.67511 0.25038 0.0
H305 H 0.93293 0.69894 0.21584 0.0
H306 H 0.98719 0.63746 0.08155 0.0
H307 H 0.96872 0.67952 0.1121 0.0
C308 C 0.26749 0.20395 0.19835 0.0
C309 C 0.27406 0.22273 0.22418 0.0
C310 C 0.28747 0.18134 0.19096 0.0
C311 C 0.36857 0.16525 0.19507 0.0
H312 H 0.33804 0.08438 0.16714 0.0
C313 C 0.4471 0.08534 0.13046 0.0
C314 C 0.43319 0.07323 0.1029 0.0
C315 C 0.42915 0.09878 0.15271 0.0
C316 C 0.34702 0.10687 0.17482 0.0
H317 H 0.30613 0.2329 0.2628 0.0
H318 H 0.34194 0.19349 0.24952 0.0
H319 H 0.30316 0.11744 0.19224 0.0
H320 H 0.3895 0.0644 0.0777 0.0
H321 H 0.35854 0.08765 0.11583 0.0
H322 H 0.41197 0.15549 0.17597 0.0
C323 C 0.32108 0.196 0.23524 0.0
C324 C 0.32701 0.12575 0.1893 0.0
C325 C 0.30066 0.21831 0.24295 0.0
C326 C 0.40095 0.07355 0.09871 0.0
C327 C 0.3831 0.08669 0.12082 0.0
C328 C 0.38857 0.14645 0.18026 0.0
C329 C 0.31479 0.17746 0.20895 0.0
C330 C 0.3373 0.15553 0.19869 0.0
C331 C 0.39693 0.10008 0.14785 0.0
C332 C 0.37774 0.11744 0.16895 0.0
H333 H 0.24716 0.20734 0.18352 0.0
H334 H 0.28218 0.16775 0.17034 0.0
H335 H 0.37712 0.18816 0.20192 0.0
H336 H 0.47189 0.08594 0.13399 0.0
H337 H 0.44057 0.10875 0.17333 0.0
C338 C 0.24578 0.83337 0.72207 0.0
C339 C 0.27474 0.8488 0.71741 0.0
C340 C 0.21875 0.84925 0.71798 0.0
C341 C 0.189 0.92801 0.70132 0.0
H342 H 0.12921 0.88212 0.64841 0.0
C343 C 0.11905 0.98236 0.60051 0.0
C344 C 0.08917 0.97021 0.59278 0.0
C345 C 0.13584 0.96979 0.62577 0.0
C346 C 0.14517 0.89514 0.66379 0.0
H347 H 0.29866 0.89281 0.7064 0.0
H348 H 0.25173 0.92075 0.69872 0.0
H349 H 0.17041 0.85536 0.67528 0.0
H350 H 0.05269 0.93628 0.60578 0.0
H351 H 0.08238 0.91365 0.65012 0.0
H352 H 0.16468 0.96822 0.68785 0.0
C353 C 0.24952 0.89661 0.70626 0.0
C354 C 0.16892 0.87977 0.67931 0.0
C355 C 0.2765 0.88071 0.71067 0.0
C356 C 0.07565 0.94614 0.61159 0.0
C357 C 0.09267 0.93317 0.63676 0.0
C358 C 0.16536 0.94343 0.68557 0.0
C359 C 0.22021 0.88082 0.70864 0.0
C360 C 0.19182 0.89617 0.6974 0.0
C361 C 0.1233 0.94435 0.64353 0.0
C362 C 0.14383 0.92734 0.66575 0.0
H363 H 0.24411 0.80866 0.7271 0.0
H364 H 0.19669 0.83644 0.72064 0.0
H365 H 0.20578 0.94129 0.71559 0.0
H366 H 0.12996 0.00079 0.58609 0.0
H367 H 0.15946 0.97868 0.63001 0.0
C368 C 0.74316 0.34504 0.8663 0.0
C369 C 0.71589 0.35927 0.87228 0.0
C370 C 0.77055 0.3535 0.88298 0.0
C371 C 0.80096 0.39143 0.95477 0.0
H372 H 0.8723 0.41731 0.90529 0.0
C373 C 0.91535 0.47804 0.97027 0.0
C374 C 0.92516 0.46882 1.00072 0.0
C375 C 0.89302 0.45981 0.95366 0.0
C376 C 0.85259 0.41006 0.91939 0.0
H377 H 0.69487 0.39212 0.90068 0.0
H378 H 0.74249 0.40666 0.93042 0.0
H379 H 0.82601 0.39325 0.87947 0.0
H380 H 0.92033 0.43278 0.03718 0.0
H381 H 0.88141 0.4011 0.0083 0.0
H382 H 0.82692 0.40904 0.99448 0.0
C383 C 0.74298 0.38909 0.91292 0.0
C384 C 0.82626 0.39603 0.90469 0.0
C385 C 0.71583 0.38093 0.89598 0.0
C386 C 0.91305 0.44057 0.0138 0.0
C387 C 0.89073 0.42246 0.99731 0.0
C388 C 0.8273 0.40517 0.96947 0.0
C389 C 0.77077 0.37595 0.90616 0.0
C390 C 0.79997 0.38716 0.92218 0.0
C391 C 0.87991 0.43222 0.96738 0.0
C392 C 0.85322 0.41512 0.95188 0.0
H393 H 0.74344 0.3284 0.84787 0.0
H394 H 0.79162 0.34289 0.87746 0.0
H395 H 0.78109 0.38467 0.96883 0.0
H396 H 0.92384 0.49996 0.95985 0.0
H397 H 0.8849 0.46811 0.93076 0.0
C398 C 0.76244 0.65397 0.36249 0.0
C399 C 0.75375 0.68211 0.3487 0.0
C400 C 0.74129 0.63515 0.37978 0.0
C401 C 0.69708 0.61048 0.4308 0.0
H402 H 0.61315 0.5969 0.39784 0.0
C403 C 0.59468 0.55625 0.50358 0.0
C404 C 0.57321 0.53611 0.48784 0.0
C405 C 0.61882 0.57188 0.48723 0.0
C406 C 0.63656 0.60026 0.40727 0.0
H407 H 0.71665 0.71285 0.34175 0.0
H408 H 0.67928 0.6799 0.37189 0.0
H409 H 0.65068 0.62875 0.36757 0.0
H410 H 0.56142 0.51517 0.44301 0.0
H411 H 0.60348 0.54211 0.41479 0.0
H412 H 0.68281 0.58189 0.47056 0.0
C413 C 0.70235 0.67224 0.36928 0.0
C414 C 0.65796 0.61878 0.39007 0.0
C415 C 0.7236 0.69112 0.35219 0.0
C416 C 0.57738 0.53066 0.45588 0.0
C417 C 0.60136 0.54629 0.43959 0.0
C418 C 0.67556 0.5921 0.44816 0.0
C419 C 0.711 0.64408 0.38336 0.0
C420 C 0.68844 0.62413 0.40163 0.0
C421 C 0.62186 0.56768 0.45485 0.0
C422 C 0.64508 0.58675 0.43652 0.0
H423 H 0.78574 0.64685 0.36022 0.0
H424 H 0.74854 0.61348 0.39011 0.0
H425 H 0.72035 0.6144 0.44043 0.0
H426 H 0.59238 0.56066 0.52826 0.0
H427 H 0.63429 0.58822 0.49963 0.0
C428 C 0.21657 0.34582 0.22376 0.0
C429 C 0.22 0.31968 0.20583 0.0
C430 C 0.20162 0.37118 0.21086 0.0
C431 C 0.17566 0.41006 0.13738 0.0
H432 H 0.10539 0.43001 0.1854 0.0
C433 C 0.07376 0.47431 0.08193 0.0
C434 C 0.0566 0.49232 0.10095 0.0
C435 C 0.09811 0.45793 0.0949 0.0
C436 C 0.12528 0.42546 0.1719 0.0
H437 H 0.2117 0.29996 0.16006 0.0
H438 H 0.18633 0.34476 0.13703 0.0
H439 H 0.14115 0.39354 0.20738 0.0
H440 H 0.05169 0.50819 0.14809 0.0
H441 H 0.09493 0.48057 0.17076 0.0
H442 H 0.15997 0.44216 0.10191 0.0
C443 C 0.19517 0.3456 0.1611 0.0
C444 C 0.14573 0.40435 0.18452 0.0
C445 C 0.20973 0.32003 0.1742 0.0
C446 C 0.0646 0.49434 0.13301 0.0
C447 C 0.08926 0.47834 0.14595 0.0
C448 C 0.15546 0.43165 0.1249 0.0
C449 C 0.19024 0.37107 0.17957 0.0
C450 C 0.17076 0.39597 0.16718 0.0
C451 C 0.10591 0.4593 0.12724 0.0
C452 C 0.12957 0.43913 0.14172 0.0
H453 H 0.22459 0.34612 0.24811 0.0
H454 H 0.19832 0.39061 0.22554 0.0
H455 H 0.19497 0.40419 0.12364 0.0
H456 H 0.06772 0.47213 0.05716 0.0
H457 H 0.10993 0.44325 0.07974 0.0
C458 C 0.67867 0.27221 0.85467 0.0
C459 C 0.67505 0.30033 0.86905 0.0
C460 C 0.67492 0.24429 0.87193 0.0
C461 C 0.66102 0.21002 0.95282 0.0
H462 H 0.60645 0.15199 0.90688 0.0
C463 C 0.56618 0.13061 0.00962 0.0
C464 C 0.55884 0.10126 0.9975 0.0
C465 C 0.58932 0.15024 0.99626 0.0
C466 C 0.62223 0.16749 0.91997 0.0
H467 H 0.66651 0.32204 0.91259 0.0
H468 H 0.65915 0.27338 0.94292 0.0
H469 H 0.63206 0.1955 0.87892 0.0
H470 H 0.56938 0.06936 0.96196 0.0
H471 H 0.61043 0.10343 0.93869 0.0
H472 H 0.64938 0.18269 0.99424 0.0
C473 C 0.66559 0.27254 0.91859 0.0
C474 C 0.63705 0.19253 0.9039 0.0
C475 C 0.66973 0.30045 0.90133 0.0
C476 C 0.57549 0.09144 0.97234 0.0
C477 C 0.59858 0.11114 0.95879 0.0
C478 C 0.64597 0.18502 0.96896 0.0
C479 C 0.66692 0.24404 0.90378 0.0
C480 C 0.65591 0.21467 0.92022 0.0
C481 C 0.60526 0.14103 0.97019 0.0
C482 C 0.62569 0.16403 0.9528 0.0
H483 H 0.68276 0.2719 0.8297 0.0
H484 H 0.6768 0.22286 0.85991 0.0
H485 H 0.67583 0.22626 0.96606 0.0
H486 H 0.55338 0.1387 0.02891 0.0
H487 H 0.59351 0.17327 0.00528 0.0
C488 C 0.82017 0.79716 0.32624 0.0
C489 C 0.831 0.76732 0.32552 0.0
C490 C 0.83885 0.82143 0.33898 0.0
C491 C 0.89665 0.83106 0.40096 0.0
H492 H 0.91414 0.91464 0.36791 0.0
C493 C 0.98716 0.91214 0.46056 0.0
C494 C 0.98276 0.94396 0.46158 0.0
C495 C 0.96703 0.89265 0.44312 0.0
C496 C 0.909 0.89155 0.37767 0.0
H497 H 0.86992 0.7395 0.33568 0.0
H498 H 0.90278 0.78185 0.35794 0.0
H499 H 0.8833 0.87712 0.33608 0.0
H500 H 0.95406 0.98029 0.44431 0.0
H501 H 0.91769 0.94587 0.41467 0.0
H502 H 0.92134 0.84514 0.4427 0.0
C503 C 0.87994 0.78656 0.34868 0.0
C504 C 0.89157 0.87007 0.35935 0.0
C505 C 0.86139 0.76247 0.33569 0.0
C506 C 0.95753 0.95582 0.44472 0.0
C507 C 0.93705 0.93614 0.4273 0.0
C508 C 0.91357 0.85249 0.41935 0.0
C509 C 0.86843 0.81596 0.35149 0.0
C510 C 0.88589 0.83945 0.37063 0.0
C511 C 0.94162 0.90426 0.42634 0.0
C512 C 0.92064 0.8828 0.40772 0.0
H513 H 0.79665 0.80113 0.31867 0.0
H514 H 0.82944 0.84386 0.34097 0.0
H515 H 0.89186 0.80781 0.41055 0.0
H516 H 0.00646 0.90215 0.47308 0.0
H517 H 0.97181 0.86844 0.44239 0.0
C518 C 0.37681 0.79863 0.65208 0.0
C519 C 0.3498 0.7866 0.66655 0.0
C520 C 0.39073 0.78178 0.62951 0.0
C521 C 0.37647 0.7169 0.57502 0.0
H522 H 0.46514 0.71111 0.58351 0.0
C523 C 0.44237 0.61845 0.52504 0.0
C524 C 0.47411 0.62379 0.51974 0.0
C525 C 0.42508 0.64238 0.53499 0.0
C526 C 0.44047 0.71298 0.58013 0.0
H527 H 0.31589 0.74793 0.66877 0.0
H528 H 0.34018 0.71817 0.62929 0.0
H529 H 0.43949 0.74447 0.61768 0.0
H530 H 0.51162 0.65905 0.51645 0.0
H531 H 0.48123 0.70108 0.53236 0.0
H532 H 0.37747 0.68484 0.53776 0.0
C533 C 0.35049 0.74076 0.6351 0.0
C534 C 0.42571 0.73208 0.59995 0.0
C535 C 0.33668 0.75761 0.65778 0.0
C536 C 0.48727 0.65421 0.52077 0.0
C537 C 0.46991 0.6782 0.53027 0.0
C538 C 0.39129 0.69785 0.555 0.0
C539 C 0.37781 0.75257 0.62082 0.0
C540 C 0.39349 0.73392 0.59801 0.0
C541 C 0.43916 0.67217 0.53945 0.0
C542 C 0.42347 0.69527 0.55762 0.0
H543 H 0.38695 0.82123 0.65808 0.0
H544 H 0.41151 0.79172 0.61869 0.0
H545 H 0.35163 0.71816 0.57263 0.0
H546 H 0.43159 0.59522 0.52464 0.0
H547 H 0.40148 0.63676 0.54175 0.0
C548 C 0.94445 0.93299 0.86078 0.0
C549 C 0.91315 0.92279 0.86009 0.0
C550 C 0.96135 0.93431 0.83315 0.0
C551 C 0.95677 0.91301 0.74806 0.0
H552 H 0.00619 0.99007 0.73633 0.0
C553 C 0.97058 0.97784 0.62932 0.0
C554 C 0.99949 0.99174 0.62136 0.0
C555 C 0.96643 0.96298 0.65863 0.0
C556 C 0.99302 0.96814 0.73938 0.0
H557 H 0.87491 0.90534 0.83087 0.0
H558 H 0.90384 0.90795 0.78245 0.0
H559 H 0.98718 0.97516 0.78828 0.0
H560 H 0.04684 0.00112 0.6375 0.0
H561 H 0.03946 0.97546 0.68952 0.0
H562 H 0.961 0.90725 0.69852 0.0
C563 C 0.91596 0.91416 0.80417 0.0
C564 C 0.98212 0.95948 0.76925 0.0
C565 C 0.89926 0.91265 0.83182 0.0
C566 C 0.02446 0.9901 0.64302 0.0
C567 C 0.02017 0.97566 0.67274 0.0
C568 C 0.96736 0.92188 0.71815 0.0
C569 C 0.94703 0.92587 0.80422 0.0
C570 C 0.96301 0.93226 0.77382 0.0
C571 C 0.99097 0.96224 0.68092 0.0
C572 C 0.98482 0.94998 0.71333 0.0
H573 H 0.95529 0.94148 0.88234 0.0
H574 H 0.98529 0.94304 0.83427 0.0
H575 H 0.94279 0.89153 0.75074 0.0
H576 H 0.95097 0.97899 0.61301 0.0
H577 H 0.94358 0.95327 0.66437 0.0
C578 C 0.62797 0.10878 0.36919 0.0
C579 C 0.6514 0.13168 0.36259 0.0
C580 C 0.61193 0.09347 0.34465 0.0
C581 C 0.58284 0.11225 0.26808 0.0
H582 H 0.5708 0.02471 0.25225 0.0
C583 C 0.52942 0.06701 0.15182 0.0
C584 C 0.51584 0.03681 0.15106 0.0
C585 C 0.5417 0.07879 0.18003 0.0
C586 C 0.5732 0.04921 0.2567 0.0
H587 H 0.6778 0.15555 0.32601 0.0
H588 H 0.64954 0.12904 0.28279 0.0
H589 H 0.60376 0.04193 0.29664 0.0
H590 H 0.50236 0.99595 0.17917 0.0
H591 H 0.52192 0.01711 0.22893 0.0
H592 H 0.55173 0.11988 0.22911 0.0
C593 C 0.64381 0.12267 0.30686 0.0
C594 C 0.59243 0.05899 0.28193 0.0
C595 C 0.66019 0.13748 0.33142 0.0
C596 C 0.51247 0.01947 0.17932 0.0
C597 C 0.52422 0.03144 0.20768 0.0
C598 C 0.56311 0.10251 0.24331 0.0
C599 C 0.61882 0.10144 0.31327 0.0
C600 C 0.59786 0.0906 0.28737 0.0
C601 C 0.5404 0.06065 0.20816 0.0
C602 C 0.55846 0.07088 0.23682 0.0
H603 H 0.62057 0.1046 0.39313 0.0
H604 H 0.59265 0.07724 0.35007 0.0
H605 H 0.58628 0.13678 0.27231 0.0
H606 H 0.53296 0.0805 0.13017 0.0
H607 H 0.5542 0.10121 0.17915 0.0
C608 C 0.41909 0.6722 0.21848 0.0
C609 C 0.38723 0.66529 0.21483 0.0
C610 C 0.43179 0.6808 0.24784 0.0
C611 C 0.40968 0.69281 0.33186 0.0
H612 H 0.47699 0.63958 0.34989 0.0
C613 C 0.41505 0.602 0.42971 0.0
C614 C 0.44356 0.59459 0.4434 0.0
C615 C 0.41338 0.62699 0.40829 0.0
C616 C 0.45877 0.65532 0.3454 0.0
H617 H 0.34317 0.66562 0.23701 0.0
H618 H 0.3648 0.6791 0.28829 0.0
H619 H 0.465 0.65495 0.296 0.0
H620 H 0.49227 0.60863 0.44766 0.0
H621 H 0.48956 0.65186 0.40912 0.0
H622 H 0.40149 0.68982 0.38142 0.0
C623 C 0.38047 0.67847 0.26904 0.0
C624 C 0.45183 0.66428 0.31428 0.0
C625 C 0.36792 0.67032 0.2397 0.0
C626 C 0.46997 0.61413 0.43754 0.0
C627 C 0.46845 0.63875 0.41547 0.0
C628 C 0.41624 0.68325 0.36296 0.0
C629 C 0.41274 0.6822 0.27402 0.0
C630 C 0.42598 0.68157 0.30688 0.0
C631 C 0.44036 0.64447 0.39961 0.0
C632 C 0.43981 0.66306 0.36975 0.0
H633 H 0.43429 0.66871 0.19935 0.0
H634 H 0.45665 0.68437 0.25045 0.0
H635 H 0.3903 0.70708 0.32726 0.0
H636 H 0.39443 0.58716 0.43388 0.0
H637 H 0.39147 0.63063 0.39623 0.0
C638 C 0.0897 0.35453 0.77747 0.0
C639 C 0.09702 0.37298 0.75075 0.0
C640 C 0.06834 0.36392 0.79864 0.0
C641 C 0.00773 0.42015 0.80824 0.0
H642 H 0.034 0.41501 0.89606 0.0
C643 C 0.98443 0.50926 0.89868 0.0
C644 C 0.98458 0.5007 0.9308 0.0
C645 C 0.98662 0.48698 0.87602 0.0
C646 C 0.02569 0.41595 0.87179 0.0
H647 H 0.08779 0.41495 0.72432 0.0
H648 H 0.05099 0.43212 0.76163 0.0
H649 H 0.06188 0.38879 0.85737 0.0
H650 H 0.984 0.46189 0.96431 0.0
H651 H 0.98725 0.42281 0.92465 0.0
H652 H 0.9725 0.4488 0.8227 0.0
C653 C 0.06112 0.41012 0.76616 0.0
C654 C 0.04182 0.40094 0.84951 0.0
C655 C 0.08238 0.40061 0.74501 0.0
C656 C 0.98359 0.46914 0.93969 0.0
C657 C 0.98584 0.44679 0.91699 0.0
C658 C 0.9916 0.43525 0.83057 0.0
C659 C 0.05404 0.39203 0.79342 0.0
C660 C 0.03372 0.40373 0.81734 0.0
C661 C 0.9892 0.45571 0.8851 0.0
C662 C 1.00109 0.43419 0.86247 0.0
H663 H 0.10075 0.33302 0.78198 0.0
H664 H 0.0632 0.34929 0.81919 0.0
H665 H 1.00047 0.42219 0.78371 0.0
H666 H 0.98519 0.53346 0.89121 0.0
H667 H 0.98924 0.49475 0.85173 0.0
C668 C 0.82779 0.97819 0.94822 0.0
C669 C 0.82971 0.96362 0.91949 0.0
C670 C 0.80055 0.99146 0.95601 0.0
C671 C 0.71686 0.98478 0.93678 0.0
H672 H 0.71537 0.05488 0.991 0.0
C673 C 0.60252 0.02006 0.98504 0.0
C674 C 0.60331 0.02251 0.01784 0.0
C675 C 0.63005 0.02044 0.96865 0.0
C676 C 0.71543 0.03535 0.97575 0.0
H677 H 0.80579 0.95274 0.87559 0.0
H678 H 0.75834 0.97676 0.88853 0.0
H679 H 0.76436 0.04121 0.96994 0.0
H680 H 0.63303 0.02814 0.05928 0.0
H681 H 0.68115 0.02887 0.03082 0.0
H682 H 0.66814 0.97845 0.94314 0.0
C683 C 0.77745 0.97731 0.90553 0.0
C684 C 0.7435 0.02741 0.96379 0.0
C685 C 0.80462 0.96384 0.89793 0.0
C686 C 0.63193 0.02666 0.03388 0.0
C687 C 0.65943 0.0272 0.01755 0.0
C688 C 0.68883 0.99283 0.94856 0.0
C689 C 0.77479 0.99066 0.935 0.0
C690 C 0.74467 0.00156 0.94474 0.0
C691 C 0.65882 0.02308 0.98488 0.0
C692 C 0.68788 0.01775 0.96876 0.0
H693 H 0.84714 0.97854 0.96493 0.0
H694 H 0.79934 0.00123 0.97901 0.0
H695 H 0.71682 0.96444 0.92265 0.0
H696 H 0.5807 0.01597 0.97233 0.0
H697 H 0.62884 0.01736 0.94347 0.0
C698 C 0.70929 0.10975 0.40879 0.0
C699 C 0.71357 0.14033 0.39705 0.0
C700 C 0.73434 0.09089 0.41222 0.0
C701 C 0.81578 0.08348 0.38947 0.0
H702 H 0.82409 0.04308 0.47171 0.0
C703 C 0.93279 0.05664 0.44733 0.0
C704 C 0.93445 0.03285 0.47038 0.0
C705 C 0.90477 0.06216 0.43169 0.0
C706 C 0.82196 0.05345 0.4483 0.0
H707 H 0.74667 0.17463 0.37772 0.0
H708 H 0.79067 0.14193 0.38384 0.0
H709 H 0.77667 0.06763 0.45699 0.0
H710 H 0.90878 0.99504 0.49411 0.0
H711 H 0.85972 0.00391 0.46606 0.0
H712 H 0.86144 0.06996 0.3811 0.0
C713 C 0.76803 0.13238 0.39047 0.0
C714 C 0.79468 0.0677 0.43988 0.0
C715 C 0.74298 0.15124 0.38723 0.0
C716 C 0.90814 0.01317 0.47597 0.0
C717 C 0.87999 0.01862 0.46024 0.0
C718 C 0.84303 0.06905 0.39781 0.0
C719 C 0.76418 0.10218 0.40368 0.0
C720 C 0.79155 0.08361 0.41071 0.0
C721 C 0.87763 0.04412 0.43896 0.0
C722 C 0.84686 0.05458 0.42771 0.0
H723 H 0.68676 0.10092 0.41649 0.0
H724 H 0.73048 0.06766 0.42212 0.0
H725 H 0.81393 0.09507 0.3666 0.0
H726 H 0.95266 0.07255 0.44321 0.0
H727 H 0.904 0.08219 0.41582 0.0
C728 C 0.33152 0.56918 0.12626 0.0
C729 C 0.32671 0.58859 0.15116 0.0
C730 C 0.3073 0.54949 0.11472 0.0
C731 C 0.22587 0.52006 0.12891 0.0
H732 H 0.21438 0.53961 0.03991 0.0
C733 C 0.1087 0.54139 0.07115 0.0
C734 C 0.10299 0.53501 0.03935 0.0
C735 C 0.13703 0.53518 0.08565 0.0
C736 C 0.21735 0.53303 0.06455 0.0
H737 H 0.29376 0.60172 0.18464 0.0
H738 H 0.25153 0.56747 0.16485 0.0
H739 H 0.26447 0.55041 0.06517 0.0
H740 H 0.12164 0.51647 0.9978 0.0
H741 H 0.1714 0.50556 0.02311 0.0
H742 H 0.178 0.50437 0.12845 0.0
C743 C 0.27395 0.56686 0.15439 0.0
C744 C 0.24622 0.53922 0.07908 0.0
C745 C 0.29807 0.58657 0.16574 0.0
C746 C 0.1257 0.52168 0.02238 0.0
C747 C 0.15405 0.51537 0.03688 0.0
C748 C 0.19694 0.51379 0.11432 0.0
C749 C 0.27794 0.54894 0.12802 0.0
C750 C 0.25037 0.53426 0.1117 0.0
C751 C 0.16029 0.52272 0.06849 0.0
C752 C 0.19204 0.52168 0.08231 0.0
H753 H 0.35359 0.57035 0.11489 0.0
H754 H 0.31111 0.53578 0.09451 0.0
H755 H 0.22858 0.51547 0.154 0.0
H756 H 0.09159 0.55206 0.08454 0.0
H757 H 0.14123 0.54166 0.10985 0.0
C758 C 0.21669 0.37588 0.70117 0.0
C759 C 0.18861 0.37323 0.68389 0.0
C760 C 0.24382 0.38722 0.68663 0.0
C761 C 0.26964 0.43333 0.61615 0.0
H762 H 0.34883 0.39855 0.63427 0.0
C763 C 0.36886 0.45073 0.53216 0.0
C764 C 0.39741 0.46324 0.5441 0.0
C765 C 0.34566 0.43994 0.55232 0.0
C766 C 0.32691 0.4087 0.62937 0.0
H767 H 0.16665 0.37978 0.6381 0.0
H768 H 0.214 0.39839 0.61222 0.0
H769 H 0.30323 0.37877 0.66314 0.0
H770 H 0.42429 0.47288 0.5869 0.0
H771 H 0.38337 0.45316 0.62247 0.0
H772 H 0.293 0.46237 0.58162 0.0
C773 C 0.21519 0.3925 0.63715 0.0
C774 C 0.30081 0.39744 0.64584 0.0
C775 C 0.18813 0.38142 0.65176 0.0
C776 C 0.40261 0.4634 0.57693 0.0
C777 C 0.37926 0.45215 0.59727 0.0
C778 C 0.29553 0.44429 0.59958 0.0
C779 C 0.24332 0.396 0.65448 0.0
C780 C 0.27171 0.4092 0.63891 0.0
C781 C 0.35035 0.44105 0.585 0.0
C782 C 0.32425 0.43169 0.60557 0.0
H783 H 0.21753 0.36934 0.72595 0.0
H784 H 0.26499 0.38971 0.70072 0.0
H785 H 0.24787 0.4436 0.61083 0.0
H786 H 0.36399 0.44991 0.50707 0.0
H787 H 0.32374 0.43103 0.54229 0.0
C788 C 0.93266 0.87783 0.92446 0.0
C789 C 0.90118 0.87937 0.91652 0.0
C790 C 0.94425 0.8498 0.93527 0.0
C791 C 0.91942 0.7768 0.9759 0.0
H792 H 0.99542 0.74704 0.94629 0.0
C793 C 0.95933 0.65332 0.00592 0.0
C794 C 0.99115 0.64904 0.00613 0.0
C795 C 0.94843 0.68259 0.99854 0.0
C796 C 0.97447 0.75524 0.9554 0.0
H797 H 0.85737 0.85305 0.91195 0.0
H798 H 0.87743 0.80399 0.93111 0.0
H799 H 0.97685 0.79527 0.92435 0.0
H800 H 0.03661 0.67216 1.00183 0.0
H801 H 0.01787 0.72328 0.99069 0.0
H802 H 0.91717 0.73707 0.00729 0.0
C803 C 0.89314 0.82439 0.92935 0.0
C804 C 0.96375 0.78284 0.94257 0.0
C805 C 0.88171 0.85228 0.91821 0.0
C806 C 0.01191 0.67484 1.0015 0.0
C807 C 1.00111 0.70407 0.99471 0.0
C808 C 0.93032 0.74933 0.98903 0.0
C809 C 0.92441 0.82297 0.9386 0.0
C810 C 0.93602 0.79382 0.95251 0.0
C811 C 0.96921 0.70811 0.99162 0.0
C812 C 0.95797 0.73808 0.97888 0.0
H813 H 0.9479 0.89859 0.92373 0.0
H814 H 0.96845 0.84942 0.94231 0.0
H815 H 0.89814 0.78496 0.98433 0.0
H816 H 0.94285 0.63371 0.00917 0.0
H817 H 0.9237 0.68468 0.99639 0.0
C818 C 0.37541 0.71498 0.15514 0.0
C819 C 0.38859 0.68787 0.14654 0.0
C820 C 0.384 0.74331 0.14014 0.0
C821 C 0.44544 0.78328 0.09362 0.0
H822 H 0.38127 0.8369 0.06468 0.0
C823 C 0.48002 0.89527 0.02794 0.0
C824 C 0.46745 0.92147 0.03965 0.0
C825 C 0.46616 0.86584 0.03415 0.0
C826 C 0.39946 0.82224 0.07268 0.0
H827 H 0.42132 0.66863 0.11662 0.0
H828 H 0.43693 0.7182 0.09055 0.0
H829 H 0.36724 0.78794 0.09253 0.0
H830 H 0.42944 0.93812 0.06465 0.0
H831 H 0.40541 0.88671 0.07621 0.0
H832 H 0.47777 0.8176 0.07487 0.0
C833 C 0.42001 0.71777 0.10881 0.0
C834 C 0.39143 0.79428 0.08874 0.0
C835 C 0.41123 0.6895 0.12365 0.0
C836 C 0.43921 0.91818 0.05496 0.0
C837 C 0.42557 0.88865 0.06169 0.0
C838 C 0.45347 0.81121 0.0778 0.0
C839 C 0.40609 0.7449 0.11648 0.0
C840 C 0.41438 0.77459 0.09948 0.0
C841 C 0.43995 0.86208 0.05295 0.0
C842 C 0.43063 0.83114 0.06717 0.0
H843 H 0.35761 0.71394 0.17253 0.0
H844 H 0.37319 0.76391 0.14681 0.0
H845 H 0.46367 0.7688 0.10196 0.0
H846 H 0.50194 0.89735 0.01624 0.0
H847 H 0.4773 0.84592 0.0262 0.0
C848 C 0.12138 0.32046 0.63854 0.0
C849 C 0.14347 0.32152 0.66325 0.0
C850 C 0.12243 0.29856 0.61535 0.0
C851 C 0.14799 0.22062 0.60707 0.0
H852 H 0.11149 0.2318 0.52342 0.0
C853 C 0.09911 0.11607 0.53856 0.0
C854 C 0.06744 0.119 0.53229 0.0
C855 C 0.11845 0.14226 0.54549 0.0
C856 C 0.12217 0.22836 0.54653 0.0
H857 H 0.18522 0.3025 0.68225 0.0
H858 H 0.18748 0.264 0.64137 0.0
H859 H 0.12843 0.27707 0.55365 0.0
H860 H 0.03147 0.15127 0.52581 0.0
H861 H 0.06507 0.19688 0.53723 0.0
H862 H 0.14028 0.17196 0.60058 0.0
C863 C 0.169 0.27975 0.64014 0.0
C864 C 0.13171 0.25424 0.56392 0.0
C865 C 0.16787 0.30176 0.66339 0.0
C866 C 0.05586 0.14853 0.53056 0.0
C867 C 0.07518 0.17464 0.5369 0.0
C868 C 0.13864 0.19475 0.5896 0.0
C869 C 0.14575 0.27731 0.61633 0.0
C870 C 0.14324 0.25065 0.59502 0.0
C871 C 0.10638 0.17168 0.5457 0.0
C872 C 0.1242 0.19838 0.5598 0.0
H873 H 0.10268 0.33593 0.63787 0.0
H874 H 0.10392 0.29723 0.59769 0.0
H875 H 0.15659 0.21691 0.63098 0.0
H876 H 0.10844 0.09342 0.54016 0.0
H877 H 0.14243 0.13935 0.55214 0.0
C878 C 0.62474 0.23143 0.43539 0.0
C879 C 0.65045 0.22967 0.41652 0.0
C880 C 0.61129 0.25958 0.43856 0.0
C881 C 0.5739 0.31411 0.42044 0.0
H882 H 0.61919 0.39373 0.42751 0.0
C883 C 0.50977 0.4264 0.41544 0.0
C884 C 0.51851 0.44757 0.43893 0.0
C885 C 0.52837 0.4021 0.40942 0.0
C886 C 0.6062 0.37166 0.42558 0.0
H887 H 0.68322 0.2557 0.38717 0.0
H888 H 0.65977 0.30532 0.39255 0.0
H889 H 0.64738 0.3466 0.42698 0.0
H890 H 0.55472 0.46041 0.47337 0.0
H891 H 0.58672 0.41827 0.46302 0.0
H892 H 0.53276 0.33881 0.41997 0.0
C893 C 0.65009 0.28505 0.40521 0.0
C894 C 0.62238 0.34468 0.42506 0.0
C895 C 0.66361 0.25679 0.40218 0.0
C896 C 0.54714 0.44481 0.45497 0.0
C897 C 0.56568 0.42054 0.44898 0.0
C898 C 0.55778 0.341 0.42096 0.0
C899 C 0.62318 0.28657 0.42267 0.0
C900 C 0.60638 0.31553 0.42285 0.0
C901 C 0.55611 0.39834 0.42679 0.0
C902 C 0.57367 0.37012 0.42378 0.0
H903 H 0.61433 0.21066 0.44657 0.0
H904 H 0.59103 0.26004 0.45278 0.0
H905 H 0.56082 0.29214 0.41808 0.0
H906 H 0.48799 0.42787 0.40249 0.0
H907 H 0.52059 0.38575 0.3917 0.0
loop_
_geom_bond_atom_site_label_1
_geom_bond_atom_site_label_2
_geom_bond_distance
_geom_bond_site_symmetry_2
_ccdc_geom_bond_type
C0 N1 1.317 . S
C0 N2 1.348 . S
C0 C3 1.485 . S
N1 C0 1.317 . S
N1 N5 1.370 . S
N2 C0 1.348 . S
N2 C4 1.346 . S
C3 C0 1.485 . S
C3 H7 0.960 . S
C3 H8 0.961 . S
C3 H9 0.960 . S
C4 N2 1.346 . S
C4 N5 1.307 . S
C4 C6 1.486 . S
N5 N1 1.370 . S
N5 C4 1.307 . S
C6 C4 1.486 . S
C6 H10 0.960 . S
C6 H11 0.960 . S
C6 H12 0.959 . S
H7 C3 0.960 . S
H8 C3 0.961 . S
H9 C3 0.960 . S
H10 C6 0.960 . S
H11 C6 0.960 . S
H12 C6 0.959 . S
C13 N14 1.317 . S
C13 N15 1.348 . S
C13 C16 1.485 . S
N14 C13 1.317 . S
N14 N18 1.370 . S
N15 C13 1.348 . S
N15 C17 1.346 . S
C16 C13 1.485 . S
C16 H20 0.960 . S
C16 H21 0.961 . S
C16 H22 0.960 . S
C17 N15 1.346 . S
C17 N18 1.307 . S
C17 C19 1.486 . S
N18 N14 1.370 . S
N18 C17 1.307 . S
C19 C17 1.486 . S
C19 H23 0.960 . S
C19 H24 0.960 . S
C19 H25 0.959 . S
H20 C16 0.960 . S
H21 C16 0.961 . S
H22 C16 0.960 . S
H23 C19 0.960 . S
H24 C19 0.960 . S
H25 C19 0.959 . S
C26 N27 1.317 . S
C26 N28 1.348 . S
C26 C29 1.485 . S
N27 C26 1.317 . S
N27 N31 1.370 . S
N28 C26 1.348 . S
N28 C30 1.346 . S
C29 C26 1.485 . S
C29 H33 0.960 . S
C29 H34 0.961 . S
C29 H35 0.960 . S
C30 N28 1.346 . S
C30 N31 1.307 . S
C30 C32 1.486 . S
N31 N27 1.370 . S
N31 C30 1.307 . S
C32 C30 1.486 . S
C32 H36 0.960 . S
C32 H37 0.960 . S
C32 H38 0.959 . S
H33 C29 0.960 . S
H34 C29 0.961 . S
H35 C29 0.960 . S
H36 C32 0.960 . S
H37 C32 0.960 . S
H38 C32 0.959 . S
C39 N40 1.317 . S
C39 N41 1.348 . S
C39 C42 1.485 . S
N40 C39 1.317 . S
N40 N44 1.370 . S
N41 C39 1.348 . S
N41 C43 1.346 . S
C42 C39 1.485 . S
C42 H46 0.960 . S
C42 H47 0.961 . S
C42 H48 0.960 . S
C43 N41 1.346 . S
C43 N44 1.307 . S
C43 C45 1.486 . S
N44 N40 1.370 . S
N44 C43 1.307 . S
C45 C43 1.486 . S
C45 H49 0.960 . S
C45 H50 0.960 . S
C45 H51 0.959 . S
H46 C42 0.960 . S
H47 C42 0.961 . S
H48 C42 0.960 . S
H49 C45 0.960 . S
H50 C45 0.960 . S
H51 C45 0.959 . S
C52 N53 1.317 . S
C52 N54 1.348 . S
C52 C55 1.485 1_556 S
N53 C52 1.317 . S
N53 N57 1.370 . S
N54 C52 1.348 . S
N54 C56 1.346 . S
C55 C52 1.485 1_554 S
C55 H59 0.967 . S
C55 H60 0.961 . S
C55 H61 0.960 . S
C56 N54 1.346 . S
C56 N57 1.307 . S
C56 C58 1.486 1_565 S
N57 N53 1.370 . S
N57 C56 1.307 . S
C58 C56 1.486 1_545 S
C58 H62 0.960 . S
C58 H63 0.960 . S
C58 H64 0.959 . S
H59 C55 0.967 . S
H60 C55 0.961 . S
H61 C55 0.960 . S
H62 C58 0.960 . S
H63 C58 0.960 . S
H64 C58 0.959 . S
C65 N66 1.317 . S
C65 N67 1.348 . S
C65 C68 1.485 . S
N66 C65 1.317 . S
N66 N70 1.370 . S
N67 C65 1.348 . S
N67 C69 1.346 . S
C68 C65 1.485 . S
C68 H72 0.960 . S
C68 H73 0.961 . S
C68 H74 0.960 . S
C69 N67 1.346 . S
C69 N70 1.307 . S
C69 C71 1.486 . S
N70 N66 1.370 . S
N70 C69 1.307 . S
C71 C69 1.486 . S
C71 H75 0.960 . S
C71 H76 0.960 . S
C71 H77 0.959 . S
H72 C68 0.960 . S
H73 C68 0.961 . S
H74 C68 0.960 . S
H75 C71 0.960 . S
H76 C71 0.960 . S
H77 C71 0.959 . S
C78 N79 1.317 . S
C78 N80 1.348 . S
C78 C81 1.485 . S
N79 C78 1.317 . S
N79 N83 1.370 . S
N80 C78 1.348 . S
N80 C82 1.346 . S
C81 C78 1.485 . S
C81 H85 0.960 . S
C81 H86 0.961 . S
C81 H87 0.960 . S
C82 N80 1.346 . S
C82 N83 1.307 . S
C82 C84 1.486 . S
N83 N79 1.370 . S
N83 C82 1.307 . S
C84 C82 1.486 . S
C84 H88 0.960 . S
C84 H89 0.960 . S
C84 H90 0.959 . S
H85 C81 0.960 . S
H86 C81 0.961 . S
H87 C81 0.960 . S
H88 C84 0.960 . S
H89 C84 0.960 . S
H90 C84 0.959 . S
C91 N92 1.317 . S
C91 N93 1.348 . S
C91 C94 1.485 . S
N92 C91 1.317 . S
N92 N96 1.370 . S
N93 C91 1.348 . S
N93 C95 1.346 . S
C94 C91 1.485 . S
C94 H98 0.960 . S
C94 H99 0.961 . S
C94 H100 0.960 . S
C95 N93 1.346 . S
C95 N96 1.307 . S
C95 C97 1.486 . S
N96 N92 1.370 . S
N96 C95 1.307 . S
C97 C95 1.486 . S
C97 H101 0.960 . S
C97 H102 0.960 . S
C97 H103 0.959 . S
H98 C94 0.960 . S
H99 C94 0.961 . S
H100 C94 0.960 . S
H101 C97 0.960 . S
H102 C97 0.960 . S
H103 C97 0.959 . S
Zn104 O110 1.920 . S
Zn104 O116 1.898 1_655 S
Zn104 O119 1.905 . S
Zn105 O113 1.905 1_565 S
Zn105 O114 1.898 . S
Zn105 O122 1.920 . S
Zn106 O109 2.080 . S
Zn106 O112 2.114 . S
Zn106 O115 2.120 1_545 S
Zn106 O117 2.120 . S
Zn106 O118 2.114 1_455 S
Zn106 O121 2.080 . S
C107 O112 1.166 . S
C107 O113 1.182 . S
C108 O114 1.167 . S
C108 O115 1.299 . S
O109 Zn106 2.080 . S
O109 C123 1.305 . S
O110 Zn104 1.920 . S
O110 C123 1.234 1_655 S
C111 O116 1.167 . S
C111 O117 1.299 . S
O112 Zn106 2.114 . S
O112 C107 1.166 . S
O113 Zn105 1.905 1_545 S
O113 C107 1.182 . S
O114 Zn105 1.898 . S
O114 C108 1.167 . S
O115 Zn106 2.120 1_565 S
O115 C108 1.299 . S
O116 Zn104 1.898 1_455 S
O116 C111 1.167 . S
O117 Zn106 2.120 . S
O117 C111 1.299 . S
O118 Zn106 2.114 1_655 S
O118 C120 1.166 . S
O119 Zn104 1.905 . S
O119 C120 1.182 . S
C120 O118 1.166 . S
C120 O119 1.182 . S
O121 Zn106 2.080 . S
O121 C124 1.305 1_545 S
O122 Zn105 1.920 . S
O122 C124 1.234 . S
C123 O109 1.305 . S
C123 O110 1.234 1_455 S
C124 O121 1.305 1_565 S
C124 O122 1.234 . S
Zn125 O131 1.920 . S
Zn125 O137 1.898 . S
Zn125 O140 1.905 1_554 S
Zn126 O134 1.905 . S
Zn126 O135 1.898 . S
Zn126 O143 1.920 . S
Zn127 O130 2.080 . S
Zn127 O133 2.114 . S
Zn127 O136 2.120 1_545 S
Zn127 O138 2.120 . S
Zn127 O139 2.114 . S
Zn127 O142 2.080 . S
C128 O133 1.167 . S
C128 O134 1.180 1_545 S
C129 O135 1.167 . S
C129 O136 1.299 . S
O130 Zn127 2.080 . S
O130 C144 1.305 . S
O131 Zn125 1.920 . S
O131 C144 1.234 . S
C132 O137 1.167 . S
C132 O138 1.299 . S
O133 Zn127 2.114 . S
O133 C128 1.167 . S
O134 Zn126 1.905 . S
O134 C128 1.180 1_565 S
O135 Zn126 1.898 . S
O135 C129 1.167 . S
O136 Zn127 2.120 1_565 S
O136 C129 1.299 . S
O137 Zn125 1.898 . S
O137 C132 1.167 . S
O138 Zn127 2.120 . S
O138 C132 1.299 . S
O139 Zn127 2.114 . S
O139 C141 1.166 . S
O140 Zn125 1.905 1_556 S
O140 C141 1.182 1_556 S
C141 O139 1.166 . S
C141 O140 1.182 1_554 S
O142 Zn127 2.080 . S
O142 C145 1.305 . S
O143 Zn126 1.920 . S
O143 C145 1.234 1_565 S
C144 O130 1.305 . S
C144 O131 1.234 . S
C145 O142 1.305 . S
C145 O143 1.234 1_545 S
Zn146 O152 1.920 . S
Zn146 O158 1.898 . S
Zn146 O161 1.905 . S
Zn147 O155 1.905 . S
Zn147 O156 1.898 . S
Zn147 O164 1.920 . S
Zn148 O151 2.080 . S
Zn148 O154 2.114 . S
Zn148 O157 2.120 . S
Zn148 O159 2.120 . S
Zn148 O160 2.114 . S
Zn148 O163 2.080 . S
C149 O154 1.166 . S
C149 O155 1.182 . S
C150 O156 1.167 . S
C150 O157 1.299 . S
O151 Zn148 2.080 . S
O151 C165 1.305 . S
O152 Zn146 1.920 . S
O152 C165 1.234 . S
C153 O158 1.167 . S
C153 O159 1.299 . S
O154 Zn148 2.114 . S
O154 C149 1.166 . S
O155 Zn147 1.905 . S
O155 C149 1.182 . S
O156 Zn147 1.898 . S
O156 C150 1.167 . S
O157 Zn148 2.120 . S
O157 C150 1.299 . S
O158 Zn146 1.898 . S
O158 C153 1.167 . S
O159 Zn148 2.120 . S
O159 C153 1.299 . S
O160 Zn148 2.114 . S
O160 C162 1.166 . S
O161 Zn146 1.905 . S
O161 C162 1.182 . S
C162 O160 1.166 . S
C162 O161 1.182 . S
O163 Zn148 2.080 . S
O163 C166 1.305 . S
O164 Zn147 1.920 . S
O164 C166 1.234 . S
C165 O151 1.305 . S
C165 O152 1.234 . S
C166 O163 1.305 . S
C166 O164 1.234 . S
Zn167 O173 1.920 . S
Zn167 O179 1.898 . S
Zn167 O182 1.905 . S
Zn168 O176 1.905 . S
Zn168 O177 1.898 . S
Zn168 O185 1.920 . S
Zn169 O172 2.080 1_454 S
Zn169 O175 2.114 . S
Zn169 O178 2.120 1_454 S
Zn169 O180 2.120 . S
Zn169 O181 2.114 1_554 S
Zn169 O184 2.080 1_455 S
C170 O175 1.166 . S
C170 O176 1.182 1_455 S
C171 O177 1.167 1_556 S
C171 O178 1.299 . S
O172 Zn169 2.080 1_656 S
O172 C186 1.305 1_655 S
O173 Zn167 1.920 . S
O173 C186 1.234 . S
C174 O179 1.167 1_554 S
C174 O180 1.299 . S
O175 Zn169 2.114 . S
O175 C170 1.166 . S
O176 Zn168 1.905 . S
O176 C170 1.182 1_655 S
O177 Zn168 1.898 . S
O177 C171 1.167 1_554 S
O178 Zn169 2.120 1_656 S
O178 C171 1.299 . S
O179 Zn167 1.898 . S
O179 C174 1.167 1_556 S
O180 Zn169 2.120 . S
O180 C174 1.299 . S
O181 Zn169 2.114 1_556 S
O181 C183 1.166 . S
O182 Zn167 1.905 . S
O182 C183 1.182 . S
C183 O181 1.166 . S
C183 O182 1.182 . S
O184 Zn169 2.080 1_655 S
O184 C187 1.305 . S
O185 Zn168 1.920 . S
O185 C187 1.234 . S
C186 O172 1.305 1_455 S
C186 O173 1.234 . S
C187 O184 1.305 . S
C187 O185 1.234 . S
C188 C189 1.349 . S
C188 C190 1.327 . S
C188 H213 0.950 . S
C189 C188 1.349 . S
C189 C205 1.349 . S
C190 C188 1.327 . S
C190 C209 1.429 . S
C190 H214 0.950 . S
C191 C208 1.574 . S
C191 C210 1.368 . S
C191 H215 0.949 . S
H192 C196 0.949 . S
C193 C194 1.349 . S
C193 C195 1.327 . S
C193 H216 0.950 . S
C194 C193 1.349 . S
C194 C206 1.349 . S
C195 C193 1.327 . S
C195 C211 1.429 . S
C195 H217 0.950 . S
C196 H192 0.949 . S
C196 C204 1.574 . S
C196 C212 1.368 . S
H197 C205 0.950 . S
H198 C203 0.950 . S
H199 C204 0.949 . S
H200 C206 0.950 . S
H201 C207 0.950 . S
H202 C208 0.949 . S
C203 H198 0.950 . S
C203 C205 1.327 . S
C203 C209 1.429 . S
C204 C196 1.574 . S
C204 H199 0.949 . S
C204 C210 1.368 . S
C205 C189 1.349 . S
C205 H197 0.950 . S
C205 C203 1.327 . S
C206 C194 1.349 . S
C206 H200 0.950 . S
C206 C207 1.327 . S
C207 H201 0.950 . S
C207 C206 1.327 . S
C207 C211 1.429 . S
C208 C191 1.574 . S
C208 H202 0.949 . S
C208 C212 1.368 . S
C209 C190 1.429 . S
C209 C203 1.429 . S
C209 C210 1.523 . S
C210 C191 1.368 . S
C210 C204 1.368 . S
C210 C209 1.523 . S
C211 C195 1.429 . S
C211 C207 1.429 . S
C211 C212 1.523 . S
C212 C196 1.368 . S
C212 C208 1.368 . S
C212 C211 1.523 . S
H213 C188 0.950 . S
H214 C190 0.950 . S
H215 C191 0.949 . S
H216 C193 0.950 . S
H217 C195 0.950 . S
C218 C219 1.349 . S
C218 C220 1.327 . S
C218 H243 0.950 . S
C219 C218 1.349 . S
C219 C235 1.349 . S
C220 C218 1.327 . S
C220 C239 1.429 . S
C220 H244 0.950 . S
C221 C238 1.574 . S
C221 C240 1.368 . S
C221 H245 0.949 . S
H222 C226 0.949 . S
C223 C224 1.349 . S
C223 C225 1.327 . S
C223 H246 0.950 1_565 S
C224 C223 1.349 . S
C224 C236 1.349 . S
C225 C223 1.327 . S
C225 C241 1.429 . S
C225 H247 0.950 . S
C226 H222 0.949 . S
C226 C234 1.574 . S
C226 C242 1.368 . S
H227 C235 0.950 . S
H228 C233 0.950 . S
H229 C234 0.949 . S
H230 C236 0.950 . S
H231 C237 0.950 . S
H232 C238 0.949 . S
C233 H228 0.950 . S
C233 C235 1.327 . S
C233 C239 1.429 . S
C234 C226 1.574 . S
C234 H229 0.949 . S
C234 C240 1.368 . S
C235 C219 1.349 . S
C235 H227 0.950 . S
C235 C233 1.327 . S
C236 C224 1.349 . S
C236 H230 0.950 . S
C236 C237 1.327 . S
C237 H231 0.950 . S
C237 C236 1.327 . S
C237 C241 1.429 . S
C238 C221 1.574 . S
C238 H232 0.949 . S
C238 C242 1.368 . S
C239 C220 1.429 . S
C239 C233 1.429 . S
C239 C240 1.523 . S
C240 C221 1.368 . S
C240 C234 1.368 . S
C240 C239 1.523 . S
C241 C225 1.429 . S
C241 C237 1.429 . S
C241 C242 1.523 . S
C242 C226 1.368 . S
C242 C238 1.368 . S
C242 C241 1.523 . S
H243 C218 0.950 . S
H244 C220 0.950 . S
H245 C221 0.949 . S
H246 C223 0.950 1_545 S
H247 C225 0.950 . S
C248 C249 1.349 . S
C248 C250 1.327 . S
C248 H273 0.950 . S
C249 C248 1.349 . S
C249 C265 1.349 . S
C250 C248 1.327 . S
C250 C269 1.429 . S
C250 H274 0.950 . S
C251 C268 1.574 . S
C251 C270 1.368 . S
C251 H275 0.949 . S
H252 C256 0.949 . S
C253 C254 1.349 . S
C253 C255 1.327 . S
C253 H276 0.950 . S
C254 C253 1.349 . S
C254 C266 1.349 . S
C255 C253 1.327 . S
C255 C271 1.429 . S
C255 H277 0.950 . S
C256 H252 0.949 . S
C256 C264 1.574 . S
C256 C272 1.368 . S
H257 C265 0.950 . S
H258 C263 0.950 . S
H259 C264 0.949 . S
H260 C266 0.950 . S
H261 C267 0.950 . S
H262 C268 0.949 . S
C263 H258 0.950 . S
C263 C265 1.327 . S
C263 C269 1.429 . S
C264 C256 1.574 . S
C264 H259 0.949 . S
C264 C270 1.368 . S
C265 C249 1.349 . S
C265 H257 0.950 . S
C265 C263 1.327 . S
C266 C254 1.349 . S
C266 H260 0.950 . S
C266 C267 1.327 . S
C267 H261 0.950 . S
C267 C266 1.327 . S
C267 C271 1.429 . S
C268 C251 1.574 . S
C268 H262 0.949 . S
C268 C272 1.368 . S
C269 C250 1.429 . S
C269 C263 1.429 . S
C269 C270 1.523 . S
C270 C251 1.368 . S
C270 C264 1.368 . S
C270 C269 1.523 . S
C271 C255 1.429 . S
C271 C267 1.429 . S
C271 C272 1.523 . S
C272 C256 1.368 . S
C272 C268 1.368 . S
C272 C271 1.523 . S
H273 C248 0.950 . S
H274 C250 0.950 . S
H275 C251 0.949 . S
H276 C253 0.950 . S
H277 C255 0.950 . S
C278 C279 1.349 . S
C278 C280 1.327 . S
C278 H303 0.950 . S
C279 C278 1.349 . S
C279 C295 1.349 . S
C280 C278 1.327 . S
C280 C299 1.429 . S
C280 H304 0.950 . S
C281 C298 1.574 . S
C281 C300 1.368 . S
C281 H305 0.949 . S
H282 C286 0.949 . S
C283 C284 1.349 . S
C283 C285 1.327 . S
C283 H306 0.950 . S
C284 C283 1.349 . S
C284 C296 1.349 . S
C285 C283 1.327 . S
C285 C301 1.429 . S
C285 H307 0.950 . S
C286 H282 0.949 . S
C286 C294 1.574 . S
C286 C302 1.368 . S
H287 C295 0.950 . S
H288 C293 0.950 . S
H289 C294 0.949 . S
H290 C296 0.950 . S
H291 C297 0.950 . S
H292 C298 0.949 . S
C293 H288 0.950 . S
C293 C295 1.327 . S
C293 C299 1.429 . S
C294 C286 1.574 . S
C294 H289 0.949 . S
C294 C300 1.368 . S
C295 C279 1.349 . S
C295 H287 0.950 . S
C295 C293 1.327 . S
C296 C284 1.349 . S
C296 H290 0.950 . S
C296 C297 1.327 . S
C297 H291 0.950 . S
C297 C296 1.327 . S
C297 C301 1.429 . S
C298 C281 1.574 . S
C298 H292 0.949 . S
C298 C302 1.368 . S
C299 C280 1.429 . S
C299 C293 1.429 . S
C299 C300 1.523 . S
C300 C281 1.368 . S
C300 C294 1.368 . S
C300 C299 1.523 . S
C301 C285 1.429 . S
C301 C297 1.429 . S
C301 C302 1.523 . S
C302 C286 1.368 . S
C302 C298 1.368 . S
C302 C301 1.523 . S
H303 C278 0.950 . S
H304 C280 0.950 . S
H305 C281 0.949 . S
H306 C283 0.950 . S
H307 C285 0.950 . S
C308 C309 1.349 . S
C308 C310 1.327 . S
C308 H333 0.950 . S
C309 C308 1.349 . S
C309 C325 1.349 . S
C310 C308 1.327 . S
C310 C329 1.429 . S
C310 H334 0.950 . S
C311 C328 1.574 . S
C311 C330 1.368 . S
C311 H335 0.949 . S
H312 C316 0.949 . S
C313 C314 1.349 . S
C313 C315 1.327 . S
C313 H336 0.950 . S
C314 C313 1.349 . S
C314 C326 1.349 . S
C315 C313 1.327 . S
C315 C331 1.429 . S
C315 H337 0.950 . S
C316 H312 0.949 . S
C316 C324 1.574 . S
C316 C332 1.368 . S
H317 C325 0.950 . S
H318 C323 0.950 . S
H319 C324 0.949 . S
H320 C326 0.950 . S
H321 C327 0.950 . S
H322 C328 0.949 . S
C323 H318 0.950 . S
C323 C325 1.327 . S
C323 C329 1.429 . S
C324 C316 1.574 . S
C324 H319 0.949 . S
C324 C330 1.368 . S
C325 C309 1.349 . S
C325 H317 0.950 . S
C325 C323 1.327 . S
C326 C314 1.349 . S
C326 H320 0.950 . S
C326 C327 1.327 . S
C327 H321 0.950 . S
C327 C326 1.327 . S
C327 C331 1.429 . S
C328 C311 1.574 . S
C328 H322 0.949 . S
C328 C332 1.368 . S
C329 C310 1.429 . S
C329 C323 1.429 . S
C329 C330 1.523 . S
C330 C311 1.368 . S
C330 C324 1.368 . S
C330 C329 1.523 . S
C331 C315 1.429 . S
C331 C327 1.429 . S
C331 C332 1.523 . S
C332 C316 1.368 . S
C332 C328 1.368 . S
C332 C331 1.523 . S
H333 C308 0.950 . S
H334 C310 0.950 . S
H335 C311 0.949 . S
H336 C313 0.950 . S
H337 C315 0.950 . S
C338 C339 1.349 . S
C338 C340 1.327 . S
C338 H363 0.950 . S
C339 C338 1.349 . S
C339 C355 1.349 . S
C340 C338 1.327 . S
C340 C359 1.429 . S
C340 H364 0.950 . S
C341 C358 1.574 . S
C341 C360 1.368 . S
C341 H365 0.949 . S
H342 C346 0.949 . S
C343 C344 1.349 . S
C343 C345 1.327 . S
C343 H366 0.950 1_565 S
C344 C343 1.349 . S
C344 C356 1.349 . S
C345 C343 1.327 . S
C345 C361 1.429 . S
C345 H367 0.947 1_565 S
C346 H342 0.949 . S
C346 C354 1.574 . S
C346 C362 1.368 . S
H347 C355 0.950 . S
H348 C353 0.950 . S
H349 C354 0.949 . S
H350 C356 0.950 . S
H351 C357 0.950 . S
H352 C358 0.949 . S
C353 H348 0.950 . S
C353 C355 1.327 . S
C353 C359 1.429 . S
C354 C346 1.574 . S
C354 H349 0.949 . S
C354 C360 1.368 . S
C355 C339 1.349 . S
C355 H347 0.950 . S
C355 C353 1.327 . S
C356 C344 1.349 . S
C356 H350 0.950 . S
C356 C357 1.327 . S
C357 H351 0.950 . S
C357 C356 1.327 . S
C357 C361 1.429 . S
C358 C341 1.574 . S
C358 H352 0.949 . S
C358 C362 1.368 . S
C359 C340 1.429 . S
C359 C353 1.429 . S
C359 C360 1.523 . S
C360 C341 1.368 . S
C360 C354 1.368 . S
C360 C359 1.523 . S
C361 C345 1.429 . S
C361 C357 1.429 . S
C361 C362 1.523 . S
C362 C346 1.368 . S
C362 C358 1.368 . S
C362 C361 1.523 . S
H363 C338 0.950 . S
H364 C340 0.950 . S
H365 C341 0.949 . S
H366 C343 0.950 1_545 S
H367 C345 0.947 1_545 S
C368 C369 1.349 . S
C368 C370 1.327 . S
C368 H393 0.950 . S
C369 C368 1.349 . S
C369 C385 1.349 . S
C370 C368 1.327 . S
C370 C389 1.429 . S
C370 H394 0.950 . S
C371 C388 1.574 . S
C371 C390 1.368 . S
C371 H395 0.949 . S
H372 C376 0.949 . S
C373 C374 1.349 . S
C373 C375 1.327 . S
C373 H396 0.950 1_556 S
C374 C373 1.349 . S
C374 C386 1.349 . S
C375 C373 1.327 . S
C375 C391 1.429 . S
C375 H397 0.950 . S
C376 H372 0.949 . S
C376 C384 1.574 . S
C376 C392 1.368 . S
H377 C385 0.950 . S
H378 C383 0.950 . S
H379 C384 0.949 . S
H380 C386 0.950 . S
H381 C387 0.950 . S
H382 C388 0.949 . S
C383 H378 0.950 . S
C383 C385 1.327 . S
C383 C389 1.429 . S
C384 C376 1.574 . S
C384 H379 0.949 . S
C384 C390 1.368 . S
C385 C369 1.349 . S
C385 H377 0.950 . S
C385 C383 1.327 . S
C386 C374 1.349 . S
C386 H380 0.950 . S
C386 C387 1.327 . S
C387 H381 0.950 . S
C387 C386 1.327 . S
C387 C391 1.429 . S
C388 C371 1.574 . S
C388 H382 0.949 . S
C388 C392 1.368 . S
C389 C370 1.429 . S
C389 C383 1.429 . S
C389 C390 1.523 . S
C390 C371 1.368 . S
C390 C384 1.368 . S
C390 C389 1.523 . S
C391 C375 1.429 . S
C391 C387 1.429 . S
C391 C392 1.523 . S
C392 C376 1.368 . S
C392 C388 1.368 . S
C392 C391 1.523 . S
H393 C368 0.950 . S
H394 C370 0.950 . S
H395 C371 0.949 . S
H396 C373 0.950 1_554 S
H397 C375 0.950 . S
C398 C399 1.349 . S
C398 C400 1.327 . S
C398 H423 0.950 . S
C399 C398 1.349 . S
C399 C415 1.349 . S
C400 C398 1.327 . S
C400 C419 1.429 . S
C400 H424 0.950 . S
C401 C418 1.574 . S
C401 C420 1.368 . S
C401 H425 0.949 . S
H402 C406 0.949 . S
C403 C404 1.349 . S
C403 C405 1.327 . S
C403 H426 0.950 . S
C404 C403 1.349 . S
C404 C416 1.349 . S
C405 C403 1.327 . S
C405 C421 1.429 . S
C405 H427 0.950 . S
C406 H402 0.949 . S
C406 C414 1.574 . S
C406 C422 1.368 . S
H407 C415 0.950 . S
H408 C413 0.950 . S
H409 C414 0.949 . S
H410 C416 0.950 . S
H411 C417 0.950 . S
H412 C418 0.949 . S
C413 H408 0.950 . S
C413 C415 1.327 . S
C413 C419 1.429 . S
C414 C406 1.574 . S
C414 H409 0.949 . S
C414 C420 1.368 . S
C415 C399 1.349 . S
C415 H407 0.950 . S
C415 C413 1.327 . S
C416 C404 1.349 . S
C416 H410 0.950 . S
C416 C417 1.327 . S
C417 H411 0.950 . S
C417 C416 1.327 . S
C417 C421 1.429 . S
C418 C401 1.574 . S
C418 H412 0.949 . S
C418 C422 1.368 . S
C419 C400 1.429 . S
C419 C413 1.429 . S
C419 C420 1.523 . S
C420 C401 1.368 . S
C420 C414 1.368 . S
C420 C419 1.523 . S
C421 C405 1.429 . S
C421 C417 1.429 . S
C421 C422 1.523 . S
C422 C406 1.368 . S
C422 C418 1.368 . S
C422 C421 1.523 . S
H423 C398 0.950 . S
H424 C400 0.950 . S
H425 C401 0.949 . S
H426 C403 0.950 . S
H427 C405 0.950 . S
C428 C429 1.349 . S
C428 C430 1.327 . S
C428 H453 0.950 . S
C429 C428 1.349 . S
C429 C445 1.349 . S
C430 C428 1.327 . S
C430 C449 1.429 . S
C430 H454 0.950 . S
C431 C448 1.574 . S
C431 C450 1.368 . S
C431 H455 0.949 . S
H432 C436 0.949 . S
C433 C434 1.349 . S
C433 C435 1.327 . S
C433 H456 0.950 . S
C434 C433 1.349 . S
C434 C446 1.349 . S
C435 C433 1.327 . S
C435 C451 1.429 . S
C435 H457 0.950 . S
C436 H432 0.949 . S
C436 C444 1.574 . S
C436 C452 1.368 . S
H437 C445 0.950 . S
H438 C443 0.950 . S
H439 C444 0.949 . S
H440 C446 0.950 . S
H441 C447 0.950 . S
H442 C448 0.949 . S
C443 H438 0.950 . S
C443 C445 1.327 . S
C443 C449 1.429 . S
C444 C436 1.574 . S
C444 H439 0.949 . S
C444 C450 1.368 . S
C445 C429 1.349 . S
C445 H437 0.950 . S
C445 C443 1.327 . S
C446 C434 1.349 . S
C446 H440 0.950 . S
C446 C447 1.327 . S
C447 H441 0.950 . S
C447 C446 1.327 . S
C447 C451 1.429 . S
C448 C431 1.574 . S
C448 H442 0.949 . S
C448 C452 1.368 . S
C449 C430 1.429 . S
C449 C443 1.429 . S
C449 C450 1.523 . S
C450 C431 1.368 . S
C450 C444 1.368 . S
C450 C449 1.523 . S
C451 C435 1.429 . S
C451 C447 1.429 . S
C451 C452 1.523 . S
C452 C436 1.368 . S
C452 C448 1.368 . S
C452 C451 1.523 . S
H453 C428 0.950 . S
H454 C430 0.950 . S
H455 C431 0.949 . S
H456 C433 0.950 . S
H457 C435 0.950 . S
C458 C459 1.349 . S
C458 C460 1.327 . S
C458 H483 0.950 . S
C459 C458 1.349 . S
C459 C475 1.349 . S
C460 C458 1.327 . S
C460 C479 1.429 . S
C460 H484 0.950 . S
C461 C478 1.574 . S
C461 C480 1.368 . S
C461 H485 0.949 . S
H462 C466 0.949 . S
C463 C464 1.349 . S
C463 C465 1.327 . S
C463 H486 0.950 . S
C464 C463 1.349 . S
C464 C476 1.349 1_554 S
C465 C463 1.327 . S
C465 C481 1.429 1_554 S
C465 H487 0.950 . S
C466 H462 0.949 . S
C466 C474 1.574 . S
C466 C482 1.368 . S
H467 C475 0.950 . S
H468 C473 0.950 . S
H469 C474 0.949 . S
H470 C476 0.950 . S
H471 C477 0.950 . S
H472 C478 0.949 . S
C473 H468 0.950 . S
C473 C475 1.327 . S
C473 C479 1.429 . S
C474 C466 1.574 . S
C474 H469 0.949 . S
C474 C480 1.368 . S
C475 C459 1.349 . S
C475 H467 0.950 . S
C475 C473 1.327 . S
C476 C464 1.349 1_556 S
C476 H470 0.950 . S
C476 C477 1.327 . S
C477 H471 0.950 . S
C477 C476 1.327 . S
C477 C481 1.429 . S
C478 C461 1.574 . S
C478 H472 0.949 . S
C478 C482 1.368 . S
C479 C460 1.429 . S
C479 C473 1.429 . S
C479 C480 1.523 . S
C480 C461 1.368 . S
C480 C474 1.368 . S
C480 C479 1.523 . S
C481 C465 1.429 1_556 S
C481 C477 1.429 . S
C481 C482 1.523 . S
C482 C466 1.368 . S
C482 C478 1.368 . S
C482 C481 1.523 . S
H483 C458 0.950 . S
H484 C460 0.950 . S
H485 C461 0.949 . S
H486 C463 0.950 . S
H487 C465 0.950 . S
C488 C489 1.349 . S
C488 C490 1.327 . S
C488 H513 0.950 . S
C489 C488 1.349 . S
C489 C505 1.349 . S
C490 C488 1.327 . S
C490 C509 1.429 . S
C490 H514 0.950 . S
C491 C508 1.574 . S
C491 C510 1.368 . S
C491 H515 0.949 . S
H492 C496 0.949 . S
C493 C494 1.349 . S
C493 C495 1.327 . S
C493 H516 0.964 . S
C494 C493 1.349 . S
C494 C506 1.349 . S
C495 C493 1.327 . S
C495 C511 1.429 . S
C495 H517 0.950 . S
C496 H492 0.949 . S
C496 C504 1.574 . S
C496 C512 1.368 . S
H497 C505 0.950 . S
H498 C503 0.950 . S
H499 C504 0.949 . S
H500 C506 0.950 . S
H501 C507 0.950 . S
H502 C508 0.949 . S
C503 H498 0.950 . S
C503 C505 1.327 . S
C503 C509 1.429 . S
C504 C496 1.574 . S
C504 H499 0.949 . S
C504 C510 1.368 . S
C505 C489 1.349 . S
C505 H497 0.950 . S
C505 C503 1.327 . S
C506 C494 1.349 . S
C506 H500 0.950 . S
C506 C507 1.327 . S
C507 H501 0.950 . S
C507 C506 1.327 . S
C507 C511 1.429 . S
C508 C491 1.574 . S
C508 H502 0.949 . S
C508 C512 1.368 . S
C509 C490 1.429 . S
C509 C503 1.429 . S
C509 C510 1.523 . S
C510 C491 1.368 . S
C510 C504 1.368 . S
C510 C509 1.523 . S
C511 C495 1.429 . S
C511 C507 1.429 . S
C511 C512 1.523 . S
C512 C496 1.368 . S
C512 C508 1.368 . S
C512 C511 1.523 . S
H513 C488 0.950 . S
H514 C490 0.950 . S
H515 C491 0.949 . S
H516 C493 0.964 . S
H517 C495 0.950 . S
C518 C519 1.349 . S
C518 C520 1.327 . S
C518 H543 0.950 . S
C519 C518 1.349 . S
C519 C535 1.349 . S
C520 C518 1.327 . S
C520 C539 1.429 . S
C520 H544 0.950 . S
C521 C538 1.574 . S
C521 C540 1.368 . S
C521 H545 0.949 . S
H522 C526 0.949 . S
C523 C524 1.349 . S
C523 C525 1.327 . S
C523 H546 0.950 . S
C524 C523 1.349 . S
C524 C536 1.349 . S
C525 C523 1.327 . S
C525 C541 1.429 . S
C525 H547 0.950 . S
C526 H522 0.949 . S
C526 C534 1.574 . S
C526 C542 1.368 . S
H527 C535 0.950 . S
H528 C533 0.950 . S
H529 C534 0.949 . S
H530 C536 0.950 . S
H531 C537 0.950 . S
H532 C538 0.949 . S
C533 H528 0.950 . S
C533 C535 1.327 . S
C533 C539 1.429 . S
C534 C526 1.574 . S
C534 H529 0.949 . S
C534 C540 1.368 . S
C535 C519 1.349 . S
C535 H527 0.950 . S
C535 C533 1.327 . S
C536 C524 1.349 . S
C536 H530 0.950 . S
C536 C537 1.327 . S
C537 H531 0.950 . S
C537 C536 1.327 . S
C537 C541 1.429 . S
C538 C521 1.574 . S
C538 H532 0.949 . S
C538 C542 1.368 . S
C539 C520 1.429 . S
C539 C533 1.429 . S
C539 C540 1.523 . S
C540 C521 1.368 . S
C540 C534 1.368 . S
C540 C539 1.523 . S
C541 C525 1.429 . S
C541 C537 1.429 . S
C541 C542 1.523 . S
C542 C526 1.368 . S
C542 C538 1.368 . S
C542 C541 1.523 . S
H543 C518 0.950 . S
H544 C520 0.950 . S
H545 C521 0.949 . S
H546 C523 0.950 . S
H547 C525 0.950 . S
C548 C549 1.349 . S
C548 C550 1.327 . S
C548 H573 0.950 1_565 S
C549 C548 1.349 . S
C549 C565 1.349 . S
C550 C548 1.327 . S
C550 C569 1.429 . S
C550 H574 0.950 1_565 S
C551 C568 1.574 . S
C551 C570 1.368 . S
C551 H575 0.949 . S
H552 C556 0.949 1_455 S
C553 C554 1.349 1_665 S
C553 C555 1.327 . S
C553 H576 0.950 . S
C554 C553 1.349 1_445 S
C554 C566 1.349 . S
C555 C553 1.327 . S
C555 C571 1.429 . S
C555 H577 0.950 . S
C556 H552 0.949 1_655 S
C556 C564 1.574 . S
C556 C572 1.368 1_545 S
H557 C565 0.950 . S
H558 C563 0.950 . S
H559 C564 0.949 . S
H560 C566 0.950 . S
H561 C567 0.950 . S
H562 C568 0.949 . S
C563 H558 0.950 . S
C563 C565 1.327 . S
C563 C569 1.429 . S
C564 C556 1.574 . S
C564 H559 0.949 . S
C564 C570 1.368 1_545 S
C565 C549 1.349 . S
C565 H557 0.950 . S
C565 C563 1.327 . S
C566 C554 1.349 . S
C566 H560 0.950 . S
C566 C567 1.327 . S
C567 H561 0.950 . S
C567 C566 1.327 . S
C567 C571 1.429 1_445 S
C568 C551 1.574 . S
C568 H562 0.949 . S
C568 C572 1.368 . S
C569 C550 1.429 . S
C569 C563 1.429 . S
C569 C570 1.523 . S
C570 C551 1.368 . S
C570 C564 1.368 1_565 S
C570 C569 1.523 . S
C571 C555 1.429 . S
C571 C567 1.429 1_665 S
C571 C572 1.523 . S
C572 C556 1.368 1_565 S
C572 C568 1.368 . S
C572 C571 1.523 . S
H573 C548 0.950 1_545 S
H574 C550 0.950 1_545 S
H575 C551 0.949 . S
H576 C553 0.950 . S
H577 C555 0.950 . S
C578 C579 1.349 . S
C578 C580 1.327 . S
C578 H603 0.950 . S
C579 C578 1.349 . S
C579 C595 1.349 . S
C580 C578 1.327 . S
C580 C599 1.429 . S
C580 H604 0.950 . S
C581 C598 1.574 . S
C581 C600 1.368 . S
C581 H605 0.949 . S
H582 C586 0.949 . S
C583 C584 1.349 . S
C583 C585 1.327 . S
C583 H606 0.950 . S
C584 C583 1.349 . S
C584 C596 1.349 . S
C585 C583 1.327 . S
C585 C601 1.429 . S
C585 H607 0.950 . S
C586 H582 0.949 . S
C586 C594 1.574 . S
C586 C602 1.368 . S
H587 C595 0.950 . S
H588 C593 0.950 . S
H589 C594 0.949 . S
H590 C596 0.950 1_565 S
H591 C597 0.950 . S
H592 C598 0.949 . S
C593 H588 0.950 . S
C593 C595 1.327 . S
C593 C599 1.429 . S
C594 C586 1.574 . S
C594 H589 0.949 . S
C594 C600 1.368 . S
C595 C579 1.349 . S
C595 H587 0.950 . S
C595 C593 1.327 . S
C596 C584 1.349 . S
C596 H590 0.950 1_545 S
C596 C597 1.327 . S
C597 H591 0.950 . S
C597 C596 1.327 . S
C597 C601 1.429 . S
C598 C581 1.574 . S
C598 H592 0.949 . S
C598 C602 1.368 . S
C599 C580 1.429 . S
C599 C593 1.429 . S
C599 C600 1.523 . S
C600 C581 1.368 . S
C600 C594 1.368 . S
C600 C599 1.523 . S
C601 C585 1.429 . S
C601 C597 1.429 . S
C601 C602 1.523 . S
C602 C586 1.368 . S
C602 C598 1.368 . S
C602 C601 1.523 . S
H603 C578 0.950 . S
H604 C580 0.950 . S
H605 C581 0.949 . S
H606 C583 0.950 . S
H607 C585 0.950 . S
C608 C609 1.349 . S
C608 C610 1.327 . S
C608 H633 0.950 . S
C609 C608 1.349 . S
C609 C625 1.349 . S
C610 C608 1.327 . S
C610 C629 1.429 . S
C610 H634 0.950 . S
C611 C628 1.574 . S
C611 C630 1.368 . S
C611 H635 0.949 . S
H612 C616 0.949 . S
C613 C614 1.349 . S
C613 C615 1.327 . S
C613 H636 0.950 . S
C614 C613 1.349 . S
C614 C626 1.349 . S
C615 C613 1.327 . S
C615 C631 1.429 . S
C615 H637 0.950 . S
C616 H612 0.949 . S
C616 C624 1.574 . S
C616 C632 1.368 . S
H617 C625 0.950 . S
H618 C623 0.950 . S
H619 C624 0.949 . S
H620 C626 0.950 . S
H621 C627 0.950 . S
H622 C628 0.949 . S
C623 H618 0.950 . S
C623 C625 1.327 . S
C623 C629 1.429 . S
C624 C616 1.574 . S
C624 H619 0.949 . S
C624 C630 1.368 . S
C625 C609 1.349 . S
C625 H617 0.950 . S
C625 C623 1.327 . S
C626 C614 1.349 . S
C626 H620 0.950 . S
C626 C627 1.327 . S
C627 H621 0.950 . S
C627 C626 1.327 . S
C627 C631 1.429 . S
C628 C611 1.574 . S
C628 H622 0.949 . S
C628 C632 1.368 . S
C629 C610 1.429 . S
C629 C623 1.429 . S
C629 C630 1.523 . S
C630 C611 1.368 . S
C630 C624 1.368 . S
C630 C629 1.523 . S
C631 C615 1.429 . S
C631 C627 1.429 . S
C631 C632 1.523 . S
C632 C616 1.368 . S
C632 C628 1.368 . S
C632 C631 1.523 . S
H633 C608 0.950 . S
H634 C610 0.950 . S
H635 C611 0.949 . S
H636 C613 0.950 . S
H637 C615 0.950 . S
C638 C639 1.349 . S
C638 C640 1.327 . S
C638 H663 0.950 . S
C639 C638 1.349 . S
C639 C655 1.349 . S
C640 C638 1.327 . S
C640 C659 1.429 . S
C640 H664 0.950 . S
C641 C658 1.574 . S
C641 C660 1.368 . S
C641 H665 0.949 . S
H642 C646 0.949 . S
C643 C644 1.349 1_655 S
C643 C645 1.327 1_655 S
C643 H666 0.950 . S
C644 C643 1.349 1_455 S
C644 C656 1.349 . S
C645 C643 1.327 1_455 S
C645 C661 1.429 . S
C645 H667 0.950 1_455 S
C646 H642 0.949 . S
C646 C654 1.574 . S
C646 C662 1.368 . S
H647 C655 0.950 . S
H648 C653 0.950 . S
H649 C654 0.949 . S
H650 C656 0.950 . S
H651 C657 0.950 . S
H652 C658 0.949 1_655 S
C653 H648 0.950 . S
C653 C655 1.327 . S
C653 C659 1.429 . S
C654 C646 1.574 . S
C654 H649 0.949 . S
C654 C660 1.368 . S
C655 C639 1.349 . S
C655 H647 0.950 . S
C655 C653 1.327 . S
C656 C644 1.349 . S
C656 H650 0.950 . S
C656 C657 1.327 . S
C657 H651 0.950 . S
C657 C656 1.327 . S
C657 C661 1.429 . S
C658 C641 1.574 . S
C658 H652 0.949 1_455 S
C658 C662 1.368 . S
C659 C640 1.429 . S
C659 C653 1.429 . S
C659 C660 1.523 . S
C660 C641 1.368 . S
C660 C654 1.368 . S
C660 C659 1.523 . S
C661 C645 1.429 . S
C661 C657 1.429 . S
C661 C662 1.523 . S
C662 C646 1.368 . S
C662 C658 1.368 . S
C662 C661 1.523 . S
H663 C638 0.950 . S
H664 C640 0.950 . S
H665 C641 0.949 . S
H666 C643 0.950 . S
H667 C645 0.950 1_655 S
C668 C669 1.327 1_545 S
C668 C670 1.333 . S
C668 H693 0.967 . S
C669 C668 1.327 1_565 S
C669 C685 1.365 . S
C670 C668 1.333 . S
C670 C689 1.429 1_545 S
C670 H694 0.950 . S
C671 C688 1.574 . S
C671 C690 1.368 . S
C671 H695 0.949 . S
H672 C676 0.949 1_556 S
C673 C674 1.349 1_565 S
C673 C675 1.327 . S
C673 H696 0.950 . S
C674 C673 1.349 1_545 S
C674 C686 1.349 . S
C675 C673 1.327 . S
C675 C691 1.429 . S
C675 H697 0.950 . S
C676 H672 0.949 1_554 S
C676 C684 1.574 1_554 S
C676 C692 1.368 1_545 S
H677 C685 0.942 1_554 S
H678 C683 0.950 . S
H679 C684 0.949 . S
H680 C686 0.950 . S
H681 C687 0.950 . S
H682 C688 0.949 . S
C683 H678 0.950 . S
C683 C685 1.319 1_554 S
C683 C689 1.429 1_554 S
C684 C676 1.574 1_556 S
C684 H679 0.949 . S
C684 C690 1.368 1_546 S
C685 C669 1.365 . S
C685 H677 0.942 1_556 S
C685 C683 1.319 1_556 S
C686 C674 1.349 . S
C686 H680 0.950 . S
C686 C687 1.327 . S
C687 H681 0.950 . S
C687 C686 1.327 . S
C687 C691 1.429 1_545 S
C688 C671 1.574 . S
C688 H682 0.949 . S
C688 C692 1.368 . S
C689 C670 1.429 1_565 S
C689 C683 1.429 1_556 S
C689 C690 1.523 1_556 S
C690 C671 1.368 . S
C690 C684 1.368 1_564 S
C690 C689 1.523 1_554 S
C691 C675 1.429 . S
C691 C687 1.429 1_565 S
C691 C692 1.523 . S
C692 C676 1.368 1_565 S
C692 C688 1.368 . S
C692 C691 1.523 . S
H693 C668 0.967 . S
H694 C670 0.950 . S
H695 C671 0.949 . S
H696 C673 0.950 . S
H697 C675 0.950 . S
C698 C699 1.349 . S
C698 C700 1.327 . S
C698 H723 0.950 . S
C699 C698 1.349 . S
C699 C715 1.349 . S
C700 C698 1.327 . S
C700 C719 1.429 . S
C700 H724 0.950 . S
C701 C718 1.574 . S
C701 C720 1.368 . S
C701 H725 0.949 . S
H702 C706 0.949 . S
C703 C704 1.349 . S
C703 C705 1.327 . S
C703 H726 0.950 . S
C704 C703 1.349 . S
C704 C716 1.349 . S
C705 C703 1.327 . S
C705 C721 1.429 . S
C705 H727 0.950 . S
C706 H702 0.949 . S
C706 C714 1.574 . S
C706 C722 1.368 . S
H707 C715 0.950 . S
H708 C713 0.950 . S
H709 C714 0.949 . S
H710 C716 0.950 . S
H711 C717 0.950 . S
H712 C718 0.949 . S
C713 H708 0.950 . S
C713 C715 1.327 . S
C713 C719 1.429 . S
C714 C706 1.574 . S
C714 H709 0.949 . S
C714 C720 1.368 . S
C715 C699 1.349 . S
C715 H707 0.950 . S
C715 C713 1.327 . S
C716 C704 1.349 . S
C716 H710 0.950 . S
C716 C717 1.327 . S
C717 H711 0.950 . S
C717 C716 1.327 . S
C717 C721 1.429 . S
C718 C701 1.574 . S
C718 H712 0.949 . S
C718 C722 1.368 . S
C719 C700 1.429 . S
C719 C713 1.429 . S
C719 C720 1.523 . S
C720 C701 1.368 . S
C720 C714 1.368 . S
C720 C719 1.523 . S
C721 C705 1.429 . S
C721 C717 1.429 . S
C721 C722 1.523 . S
C722 C706 1.368 . S
C722 C718 1.368 . S
C722 C721 1.523 . S
H723 C698 0.950 . S
H724 C700 0.950 . S
H725 C701 0.949 . S
H726 C703 0.950 . S
H727 C705 0.950 . S
C728 C729 1.349 . S
C728 C730 1.327 . S
C728 H753 0.950 . S
C729 C728 1.349 . S
C729 C745 1.349 . S
C730 C728 1.327 . S
C730 C749 1.429 . S
C730 H754 0.950 . S
C731 C748 1.574 . S
C731 C750 1.368 . S
C731 H755 0.949 . S
H732 C736 0.979 . S
C733 C734 1.349 . S
C733 C735 1.327 . S
C733 H756 0.950 . S
C734 C733 1.349 . S
C734 C746 1.349 . S
C735 C733 1.327 . S
C735 C751 1.429 . S
C735 H757 0.950 . S
C736 H732 0.979 . S
C736 C744 1.574 . S
C736 C752 1.368 . S
H737 C745 0.950 . S
H738 C743 0.950 . S
H739 C744 0.949 . S
H740 C746 0.950 1_556 S
H741 C747 0.950 1_556 S
H742 C748 0.949 . S
C743 H738 0.950 . S
C743 C745 1.327 . S
C743 C749 1.429 . S
C744 C736 1.574 . S
C744 H739 0.949 . S
C744 C750 1.368 . S
C745 C729 1.349 . S
C745 H737 0.950 . S
C745 C743 1.327 . S
C746 C734 1.349 . S
C746 H740 0.950 1_554 S
C746 C747 1.327 . S
C747 H741 0.950 1_554 S
C747 C746 1.327 . S
C747 C751 1.429 . S
C748 C731 1.574 . S
C748 H742 0.949 . S
C748 C752 1.368 . S
C749 C730 1.429 . S
C749 C743 1.429 . S
C749 C750 1.523 . S
C750 C731 1.368 . S
C750 C744 1.368 . S
C750 C749 1.523 . S
C751 C735 1.429 . S
C751 C747 1.429 . S
C751 C752 1.523 . S
C752 C736 1.368 . S
C752 C748 1.368 . S
C752 C751 1.523 . S
H753 C728 0.950 . S
H754 C730 0.950 . S
H755 C731 0.949 . S
H756 C733 0.950 . S
H757 C735 0.950 . S
C758 C759 1.349 . S
C758 C760 1.327 . S
C758 H783 0.950 . S
C759 C758 1.349 . S
C759 C775 1.349 . S
C760 C758 1.327 . S
C760 C779 1.429 . S
C760 H784 0.950 . S
C761 C778 1.574 . S
C761 C780 1.368 . S
C761 H785 0.949 . S
H762 C766 0.949 . S
C763 C764 1.349 . S
C763 C765 1.327 . S
C763 H786 0.950 . S
C764 C763 1.349 . S
C764 C776 1.349 . S
C765 C763 1.327 . S
C765 C781 1.429 . S
C765 H787 0.950 . S
C766 H762 0.949 . S
C766 C774 1.574 . S
C766 C782 1.368 . S
H767 C775 0.950 . S
H768 C773 0.950 . S
H769 C774 0.949 . S
H770 C776 0.950 . S
H771 C777 0.950 . S
H772 C778 0.949 . S
C773 H768 0.950 . S
C773 C775 1.327 . S
C773 C779 1.429 . S
C774 C766 1.574 . S
C774 H769 0.949 . S
C774 C780 1.368 . S
C775 C759 1.349 . S
C775 H767 0.950 . S
C775 C773 1.327 . S
C776 C764 1.349 . S
C776 H770 0.950 . S
C776 C777 1.327 . S
C777 H771 0.950 . S
C777 C776 1.327 . S
C777 C781 1.429 . S
C778 C761 1.574 . S
C778 H772 0.949 . S
C778 C782 1.368 . S
C779 C760 1.429 . S
C779 C773 1.429 . S
C779 C780 1.523 . S
C780 C761 1.368 . S
C780 C774 1.368 . S
C780 C779 1.523 . S
C781 C765 1.429 . S
C781 C777 1.429 . S
C781 C782 1.523 . S
C782 C766 1.368 . S
C782 C778 1.368 . S
C782 C781 1.523 . S
H783 C758 0.950 . S
H784 C760 0.950 . S
H785 C761 0.949 . S
H786 C763 0.950 . S
H787 C765 0.950 . S
C788 C789 1.349 . S
C788 C790 1.327 . S
C788 H813 0.950 . S
C789 C788 1.349 . S
C789 C805 1.349 . S
C790 C788 1.327 . S
C790 C809 1.429 . S
C790 H814 0.950 . S
C791 C808 1.574 1_556 S
C791 C810 1.368 . S
C791 H815 0.949 1_556 S
H792 C796 0.949 1_455 S
C793 C794 1.349 1_554 S
C793 C795 1.327 . S
C793 H816 0.950 . S
C794 C793 1.349 1_556 S
C794 C806 1.349 1_655 S
C795 C793 1.327 . S
C795 C811 1.429 1_554 S
C795 H817 0.950 . S
C796 H792 0.949 1_655 S
C796 C804 1.574 . S
C796 C812 1.368 . S
H797 C805 0.950 . S
H798 C803 0.950 1_554 S
H799 C804 0.949 . S
H800 C806 0.950 . S
H801 C807 0.950 1_455 S
H802 C808 0.949 . S
C803 H798 0.950 1_556 S
C803 C805 1.327 . S
C803 C809 1.429 . S
C804 C796 1.574 . S
C804 H799 0.949 . S
C804 C810 1.368 . S
C805 C789 1.349 . S
C805 H797 0.950 . S
C805 C803 1.327 . S
C806 C794 1.349 1_455 S
C806 H800 0.950 . S
C806 C807 1.327 1_455 S
C807 H801 0.950 1_655 S
C807 C806 1.327 1_655 S
C807 C811 1.429 . S
C808 C791 1.574 1_554 S
C808 H802 0.949 . S
C808 C812 1.368 1_554 S
C809 C790 1.429 . S
C809 C803 1.429 . S
C809 C810 1.523 . S
C810 C791 1.368 . S
C810 C804 1.368 . S
C810 C809 1.523 . S
C811 C795 1.429 1_556 S
C811 C807 1.429 . S
C811 C812 1.523 . S
C812 C796 1.368 . S
C812 C808 1.368 1_556 S
C812 C811 1.523 . S
H813 C788 0.950 . S
H814 C790 0.950 . S
H815 C791 0.949 1_554 S
H816 C793 0.950 . S
H817 C795 0.950 . S
C818 C819 1.349 . S
C818 C820 1.327 . S
C818 H843 0.950 . S
C819 C818 1.349 . S
C819 C835 1.349 . S
C820 C818 1.327 . S
C820 C839 1.429 . S
C820 H844 0.950 . S
C821 C838 1.574 . S
C821 C840 1.368 . S
C821 H845 0.949 . S
H822 C826 0.949 . S
C823 C824 1.349 . S
C823 C825 1.327 . S
C823 H846 0.950 . S
C824 C823 1.349 . S
C824 C836 1.349 . S
C825 C823 1.327 . S
C825 C841 1.429 . S
C825 H847 0.950 . S
C826 H822 0.949 . S
C826 C834 1.574 . S
C826 C842 1.368 . S
H827 C835 0.950 . S
H828 C833 0.950 . S
H829 C834 0.949 . S
H830 C836 0.950 . S
H831 C837 0.950 . S
H832 C838 0.949 . S
C833 H828 0.950 . S
C833 C835 1.327 . S
C833 C839 1.429 . S
C834 C826 1.574 . S
C834 H829 0.949 . S
C834 C840 1.368 . S
C835 C819 1.349 . S
C835 H827 0.950 . S
C835 C833 1.327 . S
C836 C824 1.349 . S
C836 H830 0.950 . S
C836 C837 1.327 . S
C837 H831 0.950 . S
C837 C836 1.327 . S
C837 C841 1.429 . S
C838 C821 1.574 . S
C838 H832 0.949 . S
C838 C842 1.368 . S
C839 C820 1.429 . S
C839 C833 1.429 . S
C839 C840 1.523 . S
C840 C821 1.368 . S
C840 C834 1.368 . S
C840 C839 1.523 . S
C841 C825 1.429 . S
C841 C837 1.429 . S
C841 C842 1.523 . S
C842 C826 1.368 . S
C842 C838 1.368 . S
C842 C841 1.523 . S
H843 C818 0.950 . S
H844 C820 0.950 . S
H845 C821 0.949 . S
H846 C823 0.950 . S
H847 C825 0.950 . S
C848 C849 1.349 . S
C848 C850 1.327 . S
C848 H873 0.950 . S
C849 C848 1.349 . S
C849 C865 1.349 . S
C850 C848 1.327 . S
C850 C869 1.429 . S
C850 H874 0.950 . S
C851 C868 1.574 . S
C851 C870 1.368 . S
C851 H875 0.949 . S
H852 C856 0.949 . S
C853 C854 1.349 . S
C853 C855 1.327 . S
C853 H876 0.950 . S
C854 C853 1.349 . S
C854 C866 1.349 . S
C855 C853 1.327 . S
C855 C871 1.429 . S
C855 H877 0.950 . S
C856 H852 0.949 . S
C856 C864 1.574 . S
C856 C872 1.368 . S
H857 C865 0.950 . S
H858 C863 0.950 . S
H859 C864 0.949 . S
H860 C866 0.950 . S
H861 C867 0.950 . S
H862 C868 0.949 . S
C863 H858 0.950 . S
C863 C865 1.327 . S
C863 C869 1.429 . S
C864 C856 1.574 . S
C864 H859 0.949 . S
C864 C870 1.368 . S
C865 C849 1.349 . S
C865 H857 0.950 . S
C865 C863 1.327 . S
C866 C854 1.349 . S
C866 H860 0.950 . S
C866 C867 1.327 . S
C867 H861 0.950 . S
C867 C866 1.327 . S
C867 C871 1.429 . S
C868 C851 1.574 . S
C868 H862 0.949 . S
C868 C872 1.368 . S
C869 C850 1.429 . S
C869 C863 1.429 . S
C869 C870 1.523 . S
C870 C851 1.368 . S
C870 C864 1.368 . S
C870 C869 1.523 . S
C871 C855 1.429 . S
C871 C867 1.429 . S
C871 C872 1.523 . S
C872 C856 1.368 . S
C872 C868 1.368 . S
C872 C871 1.523 . S
H873 C848 0.950 . S
H874 C850 0.950 . S
H875 C851 0.949 . S
H876 C853 0.950 . S
H877 C855 0.950 . S
C878 C879 1.349 . S
C878 C880 1.327 . S
C878 H903 0.950 . S
C879 C878 1.349 . S
C879 C895 1.349 . S
C880 C878 1.327 . S
C880 C899 1.429 . S
C880 H904 0.950 . S
C881 C898 1.574 . S
C881 C900 1.368 . S
C881 H905 0.949 . S
H882 C886 0.949 . S
C883 C884 1.349 . S
C883 C885 1.327 . S
C883 H906 0.950 . S
C884 C883 1.349 . S
C884 C896 1.349 . S
C885 C883 1.327 . S
C885 C901 1.429 . S
C885 H907 0.950 . S
C886 H882 0.949 . S
C886 C894 1.574 . S
C886 C902 1.368 . S
H887 C895 0.950 . S
H888 C893 0.950 . S
H889 C894 0.949 . S
H890 C896 0.950 . S
H891 C897 0.950 . S
H892 C898 0.949 . S
C893 H888 0.950 . S
C893 C895 1.327 . S
C893 C899 1.429 . S
C894 C886 1.574 . S
C894 H889 0.949 . S
C894 C900 1.368 . S
C895 C879 1.349 . S
C895 H887 0.950 . S
C895 C893 1.327 . S
C896 C884 1.349 . S
C896 H890 0.950 . S
C896 C897 1.327 . S
C897 H891 0.950 . S
C897 C896 1.327 . S
C897 C901 1.429 . S
C898 C881 1.574 . S
C898 H892 0.949 . S
C898 C902 1.368 . S
C899 C880 1.429 . S
C899 C893 1.429 . S
C899 C900 1.523 . S
C900 C881 1.368 . S
C900 C894 1.368 . S
C900 C899 1.523 . S
C901 C885 1.429 . S
C901 C897 1.429 . S
C901 C902 1.523 . S
C902 C886 1.368 . S
C902 C898 1.368 . S
C902 C901 1.523 . S
H903 C878 0.950 . S
H904 C880 0.950 . S
H905 C881 0.949 . S
H906 C883 0.950 . S
H907 C885 0.950 . S
C189 N1 1.485 . S
C194 C107 1.415 . S
C219 N18 1.908 . S
C224 C141 1.805 1_566 S
C254 C153 0.931 . S
C249 N28 0.985 . S
C279 N40 1.663 . S
C284 C187 1.579 . S
C314 C144 1.798 . S
C309 N5 1.938 . S
C344 C124 1.493 . S
C339 N14 1.552 . S
C374 C171 1.371 . S
C369 N31 1.464 . S
C404 C162 1.034 . S
C399 N41 1.106 . S
C429 N2 1.429 . S
C434 C170 1.350 . S
C464 C132 1.487 . S
C459 N27 1.609 . S
C489 N44 1.664 . S
C494 C108 1.581 1_655 S
C519 N15 1.350 . S
C524 C165 1.238 . S
C554 C123 1.750 . S
C549 N57 1.904 . S
C579 N70 1.308 . S
C584 C145 1.245 . S
C609 N79 1.417 . S
C614 C150 1.382 . S
C639 N93 1.377 . S
C644 C183 1.311 . S
C669 N54 1.528 . S
C674 C128 1.452 . S
C704 C120 1.989 . S
C699 N66 2.106 . S
C734 C174 0.980 . S
C729 N80 1.022 . S
C764 C166 1.429 . S
C759 N96 1.495 . S
C789 N53 1.547 . S
C794 C186 1.461 1_655 S
C824 C129 1.478 . S
C819 N83 1.523 . S
C854 C111 1.606 . S
C849 N92 1.733 . S
C879 N67 1.479 . S
C884 C149 1.439 . S
