# Generated by pormake.
# Topology zzz, (3,6)-cn, num edge types: 1
# Building blocks:
#     Node 0, Type 0, BuildingBlock: BETDIP_clean_linker_0, # of connection points: 3
#     Node 1, Type 0, BuildingBlock: BETDIP_clean_linker_0, # of connection points: 3
#     Node 2, Type 0, BuildingBlock: BETDIP_clean_linker_0, # of connection points: 3
#     Node 3, Type 0, BuildingBlock: BETDIP_clean_linker_0, # of connection points: 3
#     Node 4, Type 0, BuildingBlock: BETDIP_clean_linker_0, # of connection points: 3
#     Node 5, Type 0, BuildingBlock: BETDIP_clean_linker_0, # of connection points: 3
#     Node 6, Type 0, BuildingBlock: BETDIP_clean_linker_0, # of connection points: 3
#     Node 7, Type 0, BuildingBlock: BETDIP_clean_linker_0, # of connection points: 3
#     Node 8, Type 1, BuildingBlock: PAMTOO_clean_sbu_0, # of connection points: 6
#     Node 9, Type 1, BuildingBlock: PAMTOO_clean_sbu_0, # of connection points: 6
#     Node 10, Type 1, BuildingBlock: PAMTOO_clean_sbu_0, # of connection points: 6
#     Node 11, Type 1, BuildingBlock: PAMTOO_clean_sbu_0, # of connection points: 6
#     Edge 12, Type (0, 1), BuildingBlock: MIFKUJ_clean_linker_0, # of connection points: 2
#     Edge 13, Type (0, 1), BuildingBlock: MIFKUJ_clean_linker_0, # of connection points: 2
#     Edge 14, Type (0, 1), BuildingBlock: MIFKUJ_clean_linker_0, # of connection points: 2
#     Edge 15, Type (0, 1), BuildingBlock: MIFKUJ_clean_linker_0, # of connection points: 2
#     Edge 16, Type (0, 1), BuildingBlock: MIFKUJ_clean_linker_0, # of connection points: 2
#     Edge 17, Type (0, 1), BuildingBlock: MIFKUJ_clean_linker_0, # of connection points: 2
#     Edge 18, Type (0, 1), BuildingBlock: MIFKUJ_clean_linker_0, # of connection points: 2
#     Edge 19, Type (0, 1), BuildingBlock: MIFKUJ_clean_linker_0, # of connection points: 2
#     Edge 20, Type (0, 1), BuildingBlock: MIFKUJ_clean_linker_0, # of connection points: 2
#     Edge 21, Type (0, 1), BuildingBlock: MIFKUJ_clean_linker_0, # of connection points: 2
#     Edge 22, Type (0, 1), BuildingBlock: MIFKUJ_clean_linker_0, # of connection points: 2
#     Edge 23, Type (0, 1), BuildingBlock: MIFKUJ_clean_linker_0, # of connection points: 2
#     Edge 24, Type (0, 1), BuildingBlock: MIFKUJ_clean_linker_0, # of connection points: 2
#     Edge 25, Type (0, 1), BuildingBlock: MIFKUJ_clean_linker_0, # of connection points: 2
#     Edge 26, Type (0, 1), BuildingBlock: MIFKUJ_clean_linker_0, # of connection points: 2
#     Edge 27, Type (0, 1), BuildingBlock: MIFKUJ_clean_linker_0, # of connection points: 2
#     Edge 28, Type (0, 1), BuildingBlock: MIFKUJ_clean_linker_0, # of connection points: 2
#     Edge 29, Type (0, 1), BuildingBlock: MIFKUJ_clean_linker_0, # of connection points: 2
#     Edge 30, Type (0, 1), BuildingBlock: MIFKUJ_clean_linker_0, # of connection points: 2
#     Edge 31, Type (0, 1), BuildingBlock: MIFKUJ_clean_linker_0, # of connection points: 2
#     Edge 32, Type (0, 1), BuildingBlock: MIFKUJ_clean_linker_0, # of connection points: 2
#     Edge 33, Type (0, 1), BuildingBlock: MIFKUJ_clean_linker_0, # of connection points: 2
#     Edge 34, Type (0, 1), BuildingBlock: MIFKUJ_clean_linker_0, # of connection points: 2
#     Edge 35, Type (0, 1), BuildingBlock: MIFKUJ_clean_linker_0, # of connection points: 2
# Relax obj value: 0.188
# Max RMSD: 0.232
# Mean RMSD: 0.119
data_MOF--net-zzz--node1-PAMTOO_clean_sbu_0--node2-BETDIP_clean_linker_0--edge1-MIFKUJ_clean_linker_0
_symmetry_space_group_name_H-M    P1
_symmetry_Int_Tables_number       1
_symmetry_cell_setting            triclinic
loop_
_symmetry_equiv_pos_as_xyz
'x, y, z'
_cell_length_a     72.889568
_cell_length_b     64.636184
_cell_length_c     20.11385
_cell_angle_alpha  91.098714
_cell_angle_beta   81.647324
_cell_angle_gamma 86.480583
loop_
_atom_site_label
_atom_site_type_symbol
_atom_site_fract_x
_atom_site_fract_y
_atom_site_fract_z
_atom_type_partial_charge
H0 H 0.78733 0.50772 0.50458 0.0
H1 H 0.77927 0.53595 0.3175 0.0
H2 H 0.83028 0.54215 0.39632 0.0
H3 H 0.74724 0.54378 0.41674 0.0
C4 C 0.74736 0.52747 0.40226 0.0
C5 C 0.79229 0.51712 0.46252 0.0
C6 C 0.81006 0.52528 0.45815 0.0
C7 C 0.78075 0.52176 0.41286 0.0
C8 C 0.78756 0.5334 0.35754 0.0
C9 C 0.80538 0.54062 0.3512 0.0
C10 C 0.81625 0.53702 0.40232 0.0
N11 N 0.76268 0.51412 0.41567 0.0
H12 H 1.00908 0.7293 0.46951 0.0
H13 H 0.97817 0.72231 0.30417 0.0
H14 H 0.97992 0.78219 0.39911 0.0
H15 H 0.97253 0.68876 0.39321 0.0
C16 C 0.98698 0.68629 0.37029 0.0
C17 C 0.99995 0.73588 0.43636 0.0
C18 C 0.99426 0.75714 0.44201 0.0
C19 C 0.99352 0.72309 0.38813 0.0
C20 C 0.98226 0.73193 0.34353 0.0
C21 C 0.97738 0.7533 0.34652 0.0
C22 C 0.98304 0.76555 0.39721 0.0
N23 N 0.99951 0.70169 0.38067 0.0
H24 H 0.76975 0.98298 0.3549 0.0
H25 H 0.7763 0.99514 0.14227 0.0
H26 H 0.72186 0.99571 0.25592 0.0
H27 H 0.79787 0.96422 0.15414 0.0
C28 C 0.80553 0.97396 0.18358 0.0
C29 C 0.76381 0.98678 0.31001 0.0
C30 C 0.74422 0.98927 0.31282 0.0
C31 C 0.7756 0.98841 0.24767 0.0
C32 C 0.76755 0.9934 0.18996 0.0
C33 C 0.74828 0.99576 0.19289 0.0
C34 C 0.73683 0.99372 0.254 0.0
N35 N 0.79537 0.98468 0.24175 0.0
H36 H 0.54002 0.752 0.2882 0.0
H37 H 0.52664 0.74759 0.08648 0.0
H38 H 0.52844 0.69319 0.20525 0.0
H39 H 0.55801 0.77077 0.09205 0.0
C40 C 0.54733 0.78124 0.1205 0.0
C41 C 0.53643 0.74283 0.24689 0.0
C42 C 0.53473 0.72137 0.25333 0.0
C43 C 0.53396 0.75228 0.18594 0.0
C44 C 0.52899 0.74031 0.13288 0.0
C45 C 0.52698 0.71903 0.13992 0.0
C46 C 0.53006 0.70969 0.19975 0.0
N47 N 0.53626 0.77381 0.17815 0.0
H48 H 0.2603 0.4954 0.91781 0.0
H49 H 0.26531 0.48552 0.12602 0.0
H50 H 0.21309 0.479 0.05647 0.0
H51 H 0.2794 0.52093 0.0889 0.0
C52 C 0.28996 0.51026 0.06065 0.0
C53 C 0.25428 0.49107 0.96762 0.0
C54 C 0.23538 0.48617 0.98017 0.0
C55 C 0.26518 0.49087 0.02075 0.0
C56 C 0.25709 0.48563 0.08527 0.0
C57 C 0.23833 0.48163 0.09884 0.0
C58 C 0.2278 0.48139 0.04582 0.0
N59 N 0.28392 0.49693 0.01164 0.0
H60 H 0.04599 0.26419 0.02451 0.0
H61 H 0.0139 0.28292 0.21567 0.0
H62 H 0.01303 0.22055 0.1385 0.0
H63 H 0.01188 0.31481 0.11924 0.0
C64 C 0.02595 0.31433 0.13142 0.0
C65 C 0.03635 0.26063 0.0684 0.0
C66 C 0.0297 0.24064 0.075 0.0
C67 C 0.03044 0.27603 0.11895 0.0
C68 C 0.01812 0.27122 0.17618 0.0
C69 C 1.01176 0.25126 0.18373 0.0
C70 C 0.01757 0.23617 0.13272 0.0
N71 N 0.03767 0.29599 0.11458 0.0
H72 H 0.27723 0.01063 0.12248 0.0
H73 H 0.27266 0.98658 0.32269 0.0
H74 H 0.32619 0.98875 0.20329 0.0
H75 H 0.24761 0.97213 0.27852 0.0
C76 C 0.24116 0.9872 0.26901 0.0
C77 C 0.28365 0.00415 0.1634 0.0
C78 C 0.3032 1.00008 0.15557 0.0
C79 C 0.27239 0.99883 0.22349 0.0
C80 C 0.28103 0.9904 0.27611 0.0
C81 C 0.30034 0.98646 0.26892 0.0
C82 C 0.31121 0.99145 0.2088 0.0
N83 N 0.25249 1.00147 0.23109 0.0
H84 H 0.49931 0.27035 0.17438 0.0
H85 H 0.52525 0.26968 0.35444 0.0
H86 H 0.50991 0.32754 0.27079 0.0
H87 H 0.54033 0.23918 0.28768 0.0
C88 C 0.52692 0.23277 0.28685 0.0
C89 C 0.50442 0.27852 0.21477 0.0
C90 C 0.50354 0.30036 0.21711 0.0
C91 C 0.51226 0.26726 0.26428 0.0
C92 C 0.51929 0.27805 0.3157 0.0
C93 C 0.51816 0.29973 0.31833 0.0
C94 C 0.51022 0.31071 0.26947 0.0
N95 N 0.51254 0.2452 0.26322 0.0
Dy96 Dy 1.01174 0.00821 0.67265 0.0
Dy97 Dy 0.03274 0.99169 0.79433 0.0
C98 C 0.0565 0.00256 0.65245 0.0
O99 O 0.01897 0.9746 0.64634 0.0
O100 O 0.01975 0.96439 0.75407 0.0
O101 O 1.01029 0.01692 0.57009 0.0
O102 O 0.98566 0.01983 0.64466 0.0
O103 O 1.00336 1.0012 0.83952 0.0
O104 O 0.99024 0.99408 0.74684 0.0
O105 O 0.03915 0.02502 0.78805 0.0
O106 O 0.01387 0.0359 0.73938 0.0
O107 O 0.03675 0.99302 0.89868 0.0
O108 O 0.05142 0.96897 0.83147 0.0
C109 C 0.01893 0.95991 0.6906 0.0
O110 O 0.04184 0.01333 0.63704 0.0
O111 O 0.05534 0.99092 0.70567 0.0
C112 C 0.98958 0.04639 0.56876 0.0
C113 C 0.98044 0.08881 0.5532 0.0
C114 C 0.9969 0.08236 0.57784 0.0
C115 C 1.00139 0.06135 0.58579 0.0
C116 C 0.97324 0.05267 0.54369 0.0
C117 C 0.9687 0.07372 0.53581 0.0
C118 C 0.99317 0.02462 0.58475 0.0
C119 C 0.98872 0.99692 0.81222 0.0
C120 C 0.0277 0.03995 0.77186 0.0
C121 C 0.03735 0.95885 0.93584 0.0
C122 C 0.02143 0.92411 0.99675 0.0
C123 C 1.01056 0.93862 0.96584 0.0
C124 C 0.01846 0.95578 0.93555 0.0
C125 C 0.04816 0.94481 0.9685 0.0
C126 C 0.04021 0.92757 0.99916 0.0
C127 C 0.04593 0.97494 0.89381 0.0
H128 H 1.00642 0.09353 0.59055 0.0
H129 H 0.01394 0.0568 0.60626 0.0
H130 H 0.9638 0.04132 0.53161 0.0
H131 H 0.95586 0.0782 0.51725 0.0
H132 H 0.99601 0.9365 0.96399 0.0
H133 H 1.00993 0.96628 0.90971 0.0
H134 H 0.06283 0.94676 0.96813 0.0
H135 H 0.04893 0.91651 0.02226 0.0
Dy136 Dy 0.51394 0.99331 0.65307 0.0
Dy137 Dy 0.52529 0.02156 0.77319 0.0
C138 C 0.51553 0.04163 0.64039 0.0
O139 O 0.54526 0.98914 0.63581 0.0
O140 O 0.55158 0.01704 0.69936 0.0
O141 O 0.5016 0.99031 0.56255 0.0
O142 O 0.51157 0.96283 0.60971 0.0
O143 O 0.53519 0.98886 0.78917 0.0
O144 O 0.51128 0.97513 0.74723 0.0
O145 O 0.4957 0.01468 0.80945 0.0
O146 O 0.48699 0.00824 0.70667 0.0
O147 O 0.52696 0.02724 0.87816 0.0
O148 O 0.53661 0.04964 0.80436 0.0
C149 C 0.55708 1.00194 0.6547 0.0
O150 O 0.52126 0.02385 0.60944 0.0
O151 O 0.51147 0.04266 0.7061 0.0
C152 C 0.48295 0.96184 0.56927 0.0
C153 C 0.44737 0.94651 0.57507 0.0
C154 C 0.44978 0.96514 0.60894 0.0
C155 C 0.46736 0.97266 0.60622 0.0
C156 C 0.48078 0.94297 0.5368 0.0
C157 C 0.46311 0.93535 0.53959 0.0
C158 C 0.50137 0.97019 0.56633 0.0
C159 C 0.52433 0.97363 0.78556 0.0
C160 C 0.48267 0.01222 0.7716 0.0
C161 C 0.55497 0.04225 0.88747 0.0
C162 C 0.59147 0.04053 0.91732 0.0
C163 C 0.58469 0.02329 0.88763 0.0
C164 C 0.56663 0.02417 0.87261 0.0
C165 C 0.5616 0.05952 0.91724 0.0
C166 C 0.57981 0.05868 0.93204 0.0
C167 C 0.53665 0.04343 0.86562 0.0
H168 H 0.43799 0.97442 0.63544 0.0
H169 H 0.46866 0.98721 0.63194 0.0
H170 H 0.49269 0.93426 0.50878 0.0
H171 H 0.46172 0.92088 0.51329 0.0
H172 H 0.5935 0.00926 0.87461 0.0
H173 H 0.56189 0.01084 0.84813 0.0
H174 H 0.55283 0.07368 0.92799 0.0
H175 H 0.58476 0.07215 0.95507 0.0
Dy176 Dy 0.53856 0.51395 0.77005 0.0
Dy177 Dy 0.4996 0.50689 0.69576 0.0
C178 C 0.51003 0.47896 0.81924 0.0
O179 O 0.54281 0.4844 0.70968 0.0
O180 O 0.52522 0.49432 0.62898 0.0
O181 O 0.56863 0.51198 0.76926 0.0
O182 O 0.55006 0.52562 0.85511 0.0
O183 O 0.51042 0.53637 0.65657 0.0
O184 O 0.54087 0.53384 0.67848 0.0
O185 O 0.49044 0.52503 0.79209 0.0
O186 O 0.51785 0.54033 0.79858 0.0
O187 O 0.47149 0.51613 0.67921 0.0
O188 O 0.48553 0.4882 0.63042 0.0
C189 C 0.53781 0.48166 0.65019 0.0
O190 O 0.52165 0.49234 0.83616 0.0
O191 O 0.50218 0.4805 0.76442 0.0
C192 C 0.58053 0.51356 0.87624 0.0
C193 C 0.60768 0.5082 0.96466 0.0
C194 C 0.58889 0.51351 0.98982 0.0
C195 C 0.57554 0.51616 0.94639 0.0
C196 C 0.59917 0.5075 0.85116 0.0
C197 C 0.61254 0.50473 0.89474 0.0
C198 C 0.56726 0.52045 0.82953 0.0
C199 C 0.52733 0.54289 0.65004 0.0
C200 C 0.49981 0.53977 0.81428 0.0
C201 C 0.45974 0.50361 0.58086 0.0
C202 C 0.43545 0.50452 0.4815 0.0
C203 C 0.45303 0.49363 0.46916 0.0
C204 C 0.46497 0.49306 0.51836 0.0
C205 C 0.44251 0.51512 0.59197 0.0
C206 C 0.43058 0.5156 0.54316 0.0
C207 C 0.47045 0.5005 0.63827 0.0
H208 H 0.58451 0.51602 0.04331 0.0
H209 H 0.56141 0.52104 0.96787 0.0
H210 H 0.60362 0.50574 0.79747 0.0
H211 H 0.62685 0.50079 0.87326 0.0
H212 H 0.45725 0.4848 0.42257 0.0
H213 H 0.47801 0.48379 0.50822 0.0
H214 H 0.43792 0.52323 0.6397 0.0
H215 H 0.41735 0.52446 0.55429 0.0
Dy216 Dy 0.0245 0.52273 0.68152 0.0
Dy217 Dy 0.01826 0.48378 0.7795 0.0
C218 C 0.03212 0.47544 0.6247 0.0
O219 O 0.99376 0.52296 0.71478 0.0
O220 O 0.9927 0.48825 0.72878 0.0
O221 O 0.01751 0.53852 0.59395 0.0
O222 O 0.03505 0.55256 0.65755 0.0
O223 O 1.00671 0.51204 0.84248 0.0
O224 O 0.02454 0.53547 0.78507 0.0
O225 O 0.04782 0.49104 0.78358 0.0
O226 O 0.05384 0.51097 0.69009 0.0
O227 O 0.01998 0.46963 0.87489 0.0
O228 O 1.00803 0.45343 0.79828 0.0
C229 C 0.98448 0.50617 0.71679 0.0
O230 O 0.02561 0.49434 0.61424 0.0
O231 O 0.03429 0.46955 0.68523 0.0
C232 C 0.04284 0.55638 0.5421 0.0
C233 C 0.07644 0.5571 0.45492 0.0
C234 C 0.06462 0.54099 0.44938 0.0
C235 C 0.04797 0.54057 0.49287 0.0
C236 C 0.05358 0.57364 0.54252 0.0
C237 C 0.07035 0.57397 0.49929 0.0
C238 C 0.02875 0.55314 0.60021 0.0
C239 C 0.01428 0.52999 0.83999 0.0
C240 C 0.0595 0.50049 0.7399 0.0
C241 C 0.99174 0.45471 0.90904 0.0
C242 C 0.95817 0.47024 0.98477 0.0
C243 C 0.97461 0.46926 0.01365 0.0
C244 C 0.99127 0.46138 0.9762 0.0
C245 C 0.97485 0.45309 0.88369 0.0
C246 C 0.95819 0.46085 0.92129 0.0
C247 C 1.00932 0.45498 0.86223 0.0
H248 H 0.069 0.52769 0.41595 0.0
H249 H 0.03995 0.52704 0.49137 0.0
H250 H 0.04978 0.58602 0.58001 0.0
H251 H 0.07916 0.58668 0.50385 0.0
H252 H 0.97482 0.47601 0.06324 0.0
H253 H 1.00403 0.46251 0.99739 0.0
H254 H 0.97463 0.44776 0.83243 0.0
H255 H 0.94567 0.4613 0.89798 0.0
H256 H 0.22242 0.96475 0.36349 0.0
H257 H 0.19069 0.97038 0.42052 0.0
H258 H 0.18331 0.02559 0.30763 0.0
H259 H 0.21582 0.02032 0.25165 0.0
H260 H 0.16598 0.03211 0.43281 0.0
H261 H 0.16432 0.97881 0.26882 0.0
H262 H 0.17409 0.94624 0.20405 0.0
H263 H 0.16319 0.91158 0.38394 0.0
H264 H 0.15359 0.94397 0.45 0.0
H265 H 0.0668 0.02891 0.54887 0.0
H266 H 0.09704 0.02932 0.47692 0.0
H267 H 0.11809 0.97811 0.58415 0.0
H268 H 0.08812 0.97765 0.6561 0.0
H269 H 0.12652 0.97203 0.44728 0.0
H270 H 0.13022 0.02722 0.61065 0.0
H271 H 0.11962 0.06032 0.67121 0.0
H272 H 0.12517 0.09205 0.48442 0.0
H273 H 0.13556 0.05906 0.42265 0.0
C274 C 0.21409 0.97814 0.35063 0.0
C275 C 0.22164 0.99196 0.30252 0.0
C276 C 0.19581 0.98129 0.38314 0.0
C277 C 0.18421 0.99811 0.36748 0.0
C278 C 0.19183 0.01236 0.32043 0.0
C279 C 0.2104 0.00933 0.28825 0.0
C280 C 0.16429 1.00038 0.40069 0.0
C281 C 0.15726 0.01907 0.43476 0.0
C282 C 0.1527 0.98343 0.40402 0.0
C283 C 0.15834 0.96386 0.36444 0.0
C284 C 0.16411 0.96426 0.29465 0.0
C285 C 0.1696 0.94582 0.2577 0.0
C286 C 0.16928 0.92685 0.28988 0.0
C287 C 0.16343 0.92628 0.35908 0.0
C288 C 0.15793 0.94468 0.39629 0.0
C289 C 0.07787 0.01776 0.55729 0.0
C290 C 0.07491 0.00326 0.60862 0.0
C291 C 0.09522 0.01807 0.51617 0.0
C292 C 0.10999 0.0038 0.52506 0.0
C293 C 0.107 0.98929 0.57604 0.0
C294 C 0.08979 0.98911 0.61745 0.0
C295 C 0.12848 0.00348 0.4809 0.0
C296 C 0.13519 0.98513 0.44462 0.0
C297 C 0.13958 0.02081 0.47481 0.0
C298 C 0.13346 0.04064 0.51199 0.0
C299 C 0.12903 0.04122 0.58245 0.0
C300 C 0.12309 0.05997 0.617 0.0
C301 C 0.12167 0.07827 0.58167 0.0
C302 C 0.12625 0.07786 0.51172 0.0
C303 C 0.13217 0.05915 0.47692 0.0
H304 H 0.11706 0.09276 0.60851 0.0
H305 H 0.17355 0.9126 0.26118 0.0
H306 H 0.4944 0.21243 0.31003 0.0
H307 H 0.48983 0.17964 0.36817 0.0
H308 H 0.54813 0.1739 0.38687 0.0
H309 H 0.55265 0.20668 0.33014 0.0
H310 H 0.50348 0.13982 0.34642 0.0
H311 H 0.55388 0.15553 0.53784 0.0
H312 H 0.56516 0.18539 0.59459 0.0
H313 H 0.51542 0.22201 0.5715 0.0
H314 H 0.50373 0.1923 0.51552 0.0
H315 H 0.528 0.04703 0.50687 0.0
H316 H 0.52708 0.07917 0.44492 0.0
H317 H 0.49858 0.1117 0.6233 0.0
H318 H 0.49993 0.07979 0.68591 0.0
H319 H 0.52448 0.13372 0.5695 0.0
H320 H 0.47627 0.09942 0.48555 0.0
H321 H 0.46166 0.07087 0.43453 0.0
H322 H 0.50079 0.07348 0.25388 0.0
H323 H 0.51581 0.10187 0.30417 0.0
C324 C 0.50624 0.20406 0.32606 0.0
C325 C 0.52388 0.21214 0.31596 0.0
C326 C 0.50363 0.18531 0.35917 0.0
C327 C 0.51858 0.17444 0.38287 0.0
C328 C 0.53631 0.18216 0.37022 0.0
C329 C 0.5389 0.20085 0.33751 0.0
C330 C 0.51571 0.15546 0.42294 0.0
C331 C 0.50805 0.13846 0.39522 0.0
C332 C 0.5212 0.15384 0.48746 0.0
C333 C 0.52802 0.17173 0.52191 0.0
C334 C 0.54532 0.16993 0.54514 0.0
C335 C 0.55179 0.18683 0.57713 0.0
C336 C 0.54104 0.2056 0.58645 0.0
C337 C 0.52377 0.20749 0.56403 0.0
C338 C 0.51722 0.19062 0.5321 0.0
C339 C 0.52141 0.06099 0.53281 0.0
C340 C 0.51407 0.06081 0.60145 0.0
C341 C 0.5208 0.07937 0.49717 0.0
C342 C 0.51259 0.09791 0.52911 0.0
C343 C 0.50503 0.09766 0.59742 0.0
C344 C 0.50578 0.07935 0.63319 0.0
C345 C 0.51268 0.11776 0.49241 0.0
C346 C 0.51984 0.13499 0.5208 0.0
C347 C 0.50627 0.11971 0.42939 0.0
C348 C 0.49727 0.10266 0.39888 0.0
C349 C 0.48185 0.09381 0.43513 0.0
C350 C 0.47348 0.07766 0.40631 0.0
C351 C 0.48032 0.07033 0.34107 0.0
C352 C 0.49552 0.07916 0.30445 0.0
C353 C 0.50396 0.0953 0.33306 0.0
H354 H 0.47382 0.05784 0.31884 0.0
H355 H 0.54609 0.21868 0.61117 0.0
H356 H 0.28947 0.50329 0.19242 0.0
H357 H 0.31563 0.49998 0.25547 0.0
H358 H 0.35374 0.50406 0.07151 0.0
H359 H 0.32726 0.50614 0.00755 0.0
H360 H 0.36958 0.47935 0.15164 0.0
H361 H 0.33966 0.54732 0.18428 0.0
H362 H 0.31343 0.5735 0.21178 0.0
H363 H 0.30229 0.55052 0.41153 0.0
H364 H 0.32831 0.52402 0.38496 0.0
H365 H 0.44198 0.50641 0.34275 0.0
H366 H 0.4193 0.5058 0.26387 0.0
H367 H 0.37541 0.49968 0.42948 0.0
H368 H 0.39787 0.50052 0.50812 0.0
H369 H 0.36444 0.52738 0.34974 0.0
H370 H 0.39419 0.45782 0.31141 0.0
H371 H 0.42115 0.43269 0.28141 0.0
H372 H 0.43406 0.46091 0.09022 0.0
H373 H 0.40715 0.48618 0.119 0.0
C374 C 0.30346 0.50301 0.1652 0.0
C375 C 0.30632 0.5049 0.09507 0.0
C376 C 0.31846 0.50138 0.20144 0.0
C377 C 0.33682 0.50247 0.169 0.0
C378 C 0.33979 0.50335 0.0982 0.0
C379 C 0.32466 0.50447 0.06151 0.0
C380 C 0.35253 0.50363 0.20975 0.0
C381 C 0.36852 0.49006 0.1944 0.0
C382 C 0.35139 0.51752 0.26604 0.0
C383 C 0.33585 0.53359 0.28244 0.0
C384 C 0.33156 0.54779 0.23396 0.0
C385 C 0.31674 0.56268 0.24939 0.0
C386 C 0.30618 0.56365 0.31332 0.0
C387 C 0.31047 0.54975 0.36202 0.0
C388 C 0.32527 0.53481 0.34683 0.0
C389 C 0.42751 0.50476 0.36233 0.0
C390 C 0.42183 0.50367 0.43217 0.0
C391 C 0.41451 0.50435 0.317 0.0
C392 C 0.39549 0.50251 0.34017 0.0
C393 C 0.38989 0.50121 0.40982 0.0
C394 C 0.40281 0.50178 0.45501 0.0
C395 C 0.38121 0.50266 0.29308 0.0
C396 C 0.36552 0.51665 0.30699 0.0
C397 C 0.38278 0.48935 0.23526 0.0
C398 C 0.39876 0.47396 0.21756 0.0
C399 C 0.40281 0.45868 0.26303 0.0
C400 C 0.41805 0.44438 0.24616 0.0
C401 C 0.4293 0.44518 0.18387 0.0
C402 C 0.42529 0.46024 0.13825 0.0
C403 C 0.41002 0.47452 0.15476 0.0
H404 H 0.44112 0.43414 0.17092 0.0
H405 H 0.2947 0.57518 0.32515 0.0
H406 H 0.05405 0.3148 0.20968 0.0
H407 H 0.05954 0.34276 0.28759 0.0
H408 H 0.01513 0.38098 0.22355 0.0
H409 H 1.00936 0.35299 0.14687 0.0
H410 H 0.04799 0.40275 0.24086 0.0
H411 H 1.00513 0.35602 0.35758 0.0
H412 H 0.99622 0.32151 0.39568 0.0
H413 H 0.04314 0.31591 0.50234 0.0
H414 H 0.0525 0.35028 0.46389 0.0
H415 H 0.01988 0.47757 0.50247 0.0
H416 H 0.023 0.45066 0.41412 0.0
H417 H 0.05571 0.41123 0.52927 0.0
H418 H 0.05191 0.43782 0.61925 0.0
H419 H 0.03261 0.38901 0.48377 0.0
H420 H 0.07451 0.4362 0.37963 0.0
H421 H 0.08515 0.47 0.3409 0.0
H422 H 0.04354 0.47418 0.21011 0.0
H423 H 0.03244 0.44054 0.24884 0.0
C424 C 0.0457 0.3293 0.21138 0.0
C425 C 0.03128 0.33177 0.17217 0.0
C426 C 0.04881 0.34524 0.25603 0.0
C427 C 0.03771 0.36396 0.26148 0.0
C428 C 0.02391 0.36673 0.22 0.0
C429 C 0.0206 0.35072 0.17635 0.0
C430 C 0.0394 0.38006 0.31383 0.0
C431 C 0.04456 0.39984 0.29401 0.0
C432 C 0.03544 0.37607 0.38317 0.0
C433 C 0.02963 0.3556 0.40724 0.0
C434 C 0.01362 0.34736 0.38873 0.0
C435 C 1.00848 0.32784 0.41043 0.0
C436 C 0.01914 0.3165 0.45123 0.0
C437 C 0.03492 0.3247 0.47062 0.0
C438 C 0.04014 0.34419 0.4489 0.0
C439 C 0.02793 0.46327 0.50872 0.0
C440 C 0.03565 0.45989 0.56805 0.0
C441 C 0.0298 0.44787 0.45783 0.0
C442 C 0.03983 0.42887 0.46415 0.0
C443 C 0.04788 0.42567 0.52287 0.0
C444 C 0.04575 0.44095 0.5743 0.0
C445 C 0.04108 0.41202 0.41124 0.0
C446 C 0.03636 0.39202 0.43083 0.0
C447 C 0.04578 0.41576 0.34171 0.0
C448 C 0.05255 0.4359 0.31757 0.0
C449 C 0.06755 0.44438 0.34291 0.0
C450 C 0.07367 0.46351 0.32094 0.0
C451 C 0.065 0.47425 0.27318 0.0
C452 C 0.05023 0.46585 0.24715 0.0
C453 C 0.04403 0.44673 0.26904 0.0
H454 H 0.06974 0.48907 0.25628 0.0
H455 H 0.01514 0.30138 0.46794 0.0
H456 H 0.82363 0.95824 0.06605 0.0
H457 H 0.85528 0.96257 0.01319 0.0
H458 H 0.86449 1.00021 0.18318 0.0
H459 H 0.83213 0.9964 0.23577 0.0
H460 H 0.88034 0.01676 0.07326 0.0
H461 H 0.88415 0.94836 0.15341 0.0
H462 H 0.87572 0.91242 0.17374 0.0
H463 H 0.88403 0.8991 0.96115 0.0
H464 H 0.89232 0.93503 0.93947 0.0
H465 H 0.97877 0.00833 0.94563 0.0
H466 H 0.94883 0.00505 0.01672 0.0
H467 H 0.92743 0.9774 0.84956 0.0
H468 H 0.95722 0.98087 0.77791 0.0
H469 H 0.91968 0.95576 0.97044 0.0
H470 H 0.91481 0.02638 0.8949 0.0
H471 H 0.92545 0.06173 0.88071 0.0
H472 H 0.92132 0.07 0.0948 0.0
H473 H 0.91092 0.03456 0.11023 0.0
C474 C 0.83238 0.96737 0.09259 0.0
C475 C 0.82534 0.97682 0.15544 0.0
C476 C 0.85063 0.96974 0.06235 0.0
C477 C 0.86267 0.98132 0.09445 0.0
C478 C 0.85564 0.99104 0.15726 0.0
C479 C 0.83714 0.98881 0.18754 0.0
C480 C 0.88229 0.98346 0.06081 0.0
C481 C 0.88902 0.00333 0.05198 0.0
C482 C 0.89384 0.96607 0.03214 0.0
C483 C 0.8887 0.94446 0.04483 0.0
C484 C 0.88403 0.93782 0.11096 0.0
C485 C 0.8793 0.91744 0.12273 0.0
C486 C 0.87927 0.90351 0.06877 0.0
C487 C 0.88401 0.90992 0.0029 0.0
C488 C 0.88876 0.93029 0.99085 0.0
C489 C 0.9677 1.00158 0.92383 0.0
C490 C 0.97047 0.99494 0.85573 0.0
C491 C 0.95053 0.99977 0.96463 0.0
C492 C 0.93575 0.99107 0.93862 0.0
C493 C 0.93856 0.98418 0.87094 0.0
C494 C 0.95563 0.98625 0.82988 0.0
C495 C 0.9174 0.98899 0.98171 0.0
C496 C 0.91098 0.96911 0.9923 0.0
C497 C 0.90635 0.00631 0.01292 0.0
C498 C 0.91228 0.02774 0.00368 0.0
C499 C 0.9163 0.03568 0.93894 0.0
C500 C 0.92227 0.05574 0.93067 0.0
C501 C 0.92412 0.06808 0.98681 0.0
C502 C 0.91992 0.06041 0.05135 0.0
C503 C 0.91397 0.04035 0.05989 0.0
H504 H 0.92877 0.0836 0.9803 0.0
H505 H 0.87564 0.88772 0.07799 0.0
H506 H 0.51633 0.8083 0.14513 0.0
H507 H 0.51197 0.84248 0.09581 0.0
H508 H 0.56858 0.83681 0.99594 0.0
H509 H 0.5728 0.80239 0.04299 0.0
H510 H 0.55246 0.87891 0.07095 0.0
H511 H 0.54403 0.82655 0.9001 0.0
H512 H 0.52942 0.79586 0.8623 0.0
H513 H 0.47546 0.82741 0.91341 0.0
H514 H 0.48978 0.85819 0.95252 0.0
H515 H 0.55582 0.95712 0.82849 0.0
H516 H 0.55936 0.92556 0.8918 0.0
H517 H 0.50073 0.91715 0.90058 0.0
H518 H 0.49751 0.94789 0.83331 0.0
H519 H 0.51671 0.88227 0.87907 0.0
H520 H 0.52299 0.93532 0.04086 0.0
H521 H 0.53542 0.96644 0.08594 0.0
H522 H 0.58982 0.93537 0.06446 0.0
H523 H 0.57777 0.90414 0.01841 0.0
C524 C 0.5279 0.8145 0.11345 0.0
C525 C 0.54493 0.80278 0.0979 0.0
C526 C 0.52539 0.83396 0.08527 0.0
C527 C 0.53998 0.84214 0.04242 0.0
C528 C 0.5572 0.8308 0.02916 0.0
C529 C 0.55957 0.81117 0.0559 0.0
C530 C 0.537 0.86184 0.0077 0.0
C531 C 0.54476 0.87973 0.02868 0.0
C532 C 0.52651 0.86294 0.954 0.0
C533 C 0.51794 0.84454 0.93 0.0
C534 C 0.52904 0.82685 0.90393 0.0
C535 C 0.52082 0.80947 0.88212 0.0
C536 C 0.50152 0.80966 0.88567 0.0
C537 C 0.49041 0.82727 0.91083 0.0
C538 C 0.49856 0.84468 0.93279 0.0
C539 C 0.54371 0.94853 0.84415 0.0
C540 C 0.5264 0.95496 0.82603 0.0
C541 C 0.54568 0.93055 0.88091 0.0
C542 C 0.53024 0.91903 0.90258 0.0
C543 C 0.51291 0.92562 0.88468 0.0
C544 C 0.51105 0.94325 0.84632 0.0
C545 C 0.53221 0.89977 0.9418 0.0
C546 C 0.52429 0.8818 0.92166 0.0
C547 C 0.54222 0.89877 0.99736 0.0
C548 C 0.5495 0.91745 0.02564 0.0
C549 C 0.53763 0.93517 0.04539 0.0
C550 C 0.5446 0.95282 0.07115 0.0
C551 C 0.56341 0.9529 0.0779 0.0
C552 C 0.57526 0.93529 0.05913 0.0
C553 C 0.56836 0.9176 0.03327 0.0
H554 H 0.56879 0.96659 0.0978 0.0
H555 H 0.49518 0.79618 0.86875 0.0
H556 H 0.71578 0.54972 0.38806 0.0
H557 H 0.69248 0.54232 0.31663 0.0
H558 H 0.72257 0.48422 0.25178 0.0
H559 H 0.74611 0.49164 0.32415 0.0
H560 H 0.71175 0.50624 0.14463 0.0
H561 H 0.68196 0.48414 0.35614 0.0
H562 H 0.6704 0.48687 0.47762 0.0
H563 H 0.6347 0.54005 0.44649 0.0
H564 H 0.64624 0.53782 0.32489 0.0
H565 H 0.63791 0.48011 0.96359 0.0
H566 H 0.6616 0.47941 0.03857 0.0
H567 H 0.63434 0.53411 0.14442 0.0
H568 H 0.61056 0.53465 0.07058 0.0
H569 H 0.64441 0.50911 0.23228 0.0
H570 H 0.67611 0.53381 0.02473 0.0
H571 H 0.68788 0.53236 0.90329 0.0
H572 H 0.72005 0.47575 0.92672 0.0
H573 H 0.70828 0.47674 0.04823 0.0
C574 C 0.71734 0.53521 0.35933 0.0
C575 C 0.73271 0.5212 0.36241 0.0
C576 C 0.70396 0.53098 0.31841 0.0
C577 C 0.70556 0.51261 0.27894 0.0
C578 C 0.72093 0.49847 0.28185 0.0
C579 C 0.73432 0.50265 0.3236 0.0
C580 C 0.69136 0.50877 0.23368 0.0
C581 C 0.69705 0.50644 0.16396 0.0
C582 C 0.67208 0.50952 0.25827 0.0
C583 C 0.66508 0.51089 0.3314 0.0
C584 C 0.67175 0.49651 0.37524 0.0
C585 C 0.66518 0.49796 0.44412 0.0
C586 C 0.65185 0.51365 0.46977 0.0
C587 C 0.64503 0.52791 0.42656 0.0
C588 C 0.65157 0.52655 0.35763 0.0
C589 C 0.63699 0.49204 0.00267 0.0
C590 C 0.6222 0.50741 0.01081 0.0
C591 C 0.65063 0.49166 0.04562 0.0
C592 C 0.65005 0.50686 0.09721 0.0
C593 C 0.63521 0.52211 0.10553 0.0
C594 C 0.62152 0.52238 0.06313 0.0
C595 C 0.66471 0.50702 0.14282 0.0
C596 C 0.65911 0.50868 0.21278 0.0
C597 C 0.68405 0.50583 0.11834 0.0
C598 C 0.69115 0.50523 0.04539 0.0
C599 C 0.68559 0.52098 0.00388 0.0
C600 C 0.69228 0.52025 0.93506 0.0
C601 C 0.70466 0.50394 0.90727 0.0
C602 C 0.71043 0.48835 0.94829 0.0
C603 C 0.70376 0.48899 0.01714 0.0
H604 H 0.70983 0.50341 0.85398 0.0
H605 H 0.64678 0.51474 0.52312 0.0
H606 H 0.96889 0.65106 0.36677 0.0
H607 H 0.97519 0.62216 0.28409 0.0
H608 H 0.02277 0.65174 0.18539 0.0
H609 H 0.01681 0.68044 0.26924 0.0
H610 H 0.99546 0.64079 0.10107 0.0
H611 H 0.03172 0.61019 0.25913 0.0
H612 H 0.03802 0.59761 0.3691 0.0
H613 H 0.99497 0.5551 0.37072 0.0
H614 H 0.98826 0.56758 0.26105 0.0
H615 H 0.03154 0.56567 0.85448 0.0
H616 H 0.02752 0.58985 0.95021 0.0
H617 H 0.98704 0.55193 0.05732 0.0
H618 H 0.9913 0.52712 0.96122 0.0
H619 H 1.00989 0.56641 0.14063 0.0
H620 H 0.97315 0.59636 0.98551 0.0
H621 H 0.96616 0.60834 0.87573 0.0
H622 H 1.00827 0.65216 0.8707 0.0
H623 H 0.0157 0.64023 0.98007 0.0
C624 C 0.98092 0.65116 0.32823 0.0
C625 C 0.9924 0.66792 0.32462 0.0
C626 C 0.98451 0.63464 0.28112 0.0
C627 C 0.99947 0.63475 0.22867 0.0
C628 C 1.0112 0.6513 0.22568 0.0
C629 C 1.00783 0.66764 0.27372 0.0
C630 C 1.00183 0.61855 0.17393 0.0
C631 C 0.99891 0.62458 0.10947 0.0
C632 C 1.00558 0.59728 0.18559 0.0
C633 C 1.00933 0.59001 0.25218 0.0
C634 C 0.02344 0.59834 0.28328 0.0
C635 C 0.02713 0.59117 0.34546 0.0
C636 C 0.01686 0.57562 0.37698 0.0
C637 C 1.00289 0.56717 0.3463 0.0
C638 C 0.99915 0.57427 0.28409 0.0
C639 C 0.02172 0.56237 0.89816 0.0
C640 C 1.01159 0.54448 0.8996 0.0
C641 C 0.01942 0.57631 0.95305 0.0
C642 C 1.00674 0.57299 0.01076 0.0
C643 C 0.99686 0.55491 0.01328 0.0
C644 C 0.99925 0.54078 0.95818 0.0
C645 C 1.00377 0.5887 0.06737 0.0
C646 C 1.00644 0.58262 0.1322 0.0
C647 C 0.99956 0.60996 0.05642 0.0
C648 C 0.99509 0.61727 0.99074 0.0
C649 C 0.98101 0.60845 0.96077 0.0
C650 C 0.97696 0.61524 0.89865 0.0
C651 C 0.9868 0.63097 0.86618 0.0
C652 C 1.00067 0.63996 0.89588 0.0
C653 C 1.0048 0.6332 0.95797 0.0
H654 H 0.98364 0.63621 0.81809 0.0
H655 H 0.01975 0.57008 0.42507 0.0
H656 H 0.98174 0.2277 0.19648 0.0
H657 H 0.96859 0.21036 0.29659 0.0
H658 H 1.00221 0.24435 0.41489 0.0
H659 H 0.01626 0.26094 0.31337 0.0
H660 H 1.00884 0.20609 0.43033 0.0
H661 H 0.9528 0.24649 0.45323 0.0
H662 H 0.9255 0.26596 0.42073 0.0
H663 H 0.90602 0.20957 0.34873 0.0
H664 H 0.93333 0.18976 0.37974 0.0
H665 H 0.98465 0.12181 0.63635 0.0
H666 H 0.98182 0.15867 0.61096 0.0
H667 H 0.96323 0.14313 0.42331 0.0
H668 H 0.96628 0.10639 0.44757 0.0
H669 H 0.94573 0.18062 0.48462 0.0
H670 H 1.00866 0.14563 0.42709 0.0
H671 H 0.03604 0.12631 0.46001 0.0
H672 H 0.04163 0.1749 0.60291 0.0
H673 H 0.01412 0.19439 0.57126 0.0
C674 C 0.98606 0.23181 0.24406 0.0
C675 C 1.00033 0.2453 0.24677 0.0
C676 C 0.97828 0.22212 0.30175 0.0
C677 C 0.98435 0.22602 0.36372 0.0
C678 C 0.99732 0.24105 0.3677 0.0
C679 C 1.00527 0.25061 0.30964 0.0
C680 C 0.97991 0.21153 0.41939 0.0
C681 C 0.99488 0.20112 0.44415 0.0
C682 C 0.96175 0.20485 0.43765 0.0
C683 C 0.94518 0.21661 0.41892 0.0
C684 C 0.94276 0.23823 0.43014 0.0
C685 C 0.92726 0.24934 0.41199 0.0
C686 C 0.91403 0.23901 0.38271 0.0
C687 C 0.91626 0.21755 0.37156 0.0
C688 C 0.93173 0.20636 0.38959 0.0
C689 C 0.97976 0.12628 0.59001 0.0
C690 C 0.976 0.11116 0.54335 0.0
C691 C 0.97796 0.14733 0.57601 0.0
C692 C 0.97244 0.15357 0.51509 0.0
C693 C 0.96737 0.13862 0.47085 0.0
C694 C 0.96918 0.1176 0.48472 0.0
C695 C 0.97475 0.17492 0.49164 0.0
C696 C 0.95945 0.18642 0.47306 0.0
C697 C 0.99255 0.18282 0.4795 0.0
C698 C 1.00927 0.17133 0.49739 0.0
C699 C 0.0157 0.15213 0.46571 0.0
C700 C 0.03123 0.14116 0.48413 0.0
C701 C 0.04054 0.14935 0.53365 0.0
C702 C 0.03438 0.16857 0.56466 0.0
C703 C 0.01883 0.17958 0.54651 0.0
H704 H 0.05255 0.14082 0.54789 0.0
H705 H 0.90205 0.24764 0.36867 0.0
H706 H 0.32824 0.95598 0.25537 0.0
H707 H 0.34549 0.94251 0.34129 0.0
H708 H 0.30967 0.98022 0.49255 0.0
H709 H 0.29289 0.99479 0.40522 0.0
H710 H 0.3433 0.98445 0.50926 0.0
H711 H 0.31024 0.92551 0.49255 0.0
H712 H 0.29514 0.89759 0.44049 0.0
H713 H 0.34824 0.87239 0.34204 0.0
H714 H 0.36367 0.90034 0.39256 0.0
H715 H 0.41719 0.94835 0.67504 0.0
H716 H 0.3846 0.94669 0.65947 0.0
H717 H 0.40182 0.92914 0.45072 0.0
H718 H 0.43419 0.93107 0.46537 0.0
H719 H 0.36874 0.91139 0.50715 0.0
H720 H 0.39722 0.98001 0.50199 0.0
H721 H 0.41171 0.00682 0.56206 0.0
H722 H 0.36398 0.01211 0.71546 0.0
H723 H 0.34931 0.98515 0.65645 0.0
C724 C 0.32398 0.96144 0.30688 0.0
C725 C 0.30935 0.97668 0.32325 0.0
C726 C 0.33366 0.9534 0.35639 0.0
C727 C 0.32871 0.96002 0.42389 0.0
C728 C 0.31367 0.97474 0.44094 0.0
C729 C 0.30403 0.98298 0.39105 0.0
C730 C 0.34072 0.95313 0.47407 0.0
C731 C 0.34837 0.96835 0.51051 0.0
C732 C 0.34725 0.9321 0.47698 0.0
C733 C 0.33812 0.91508 0.44649 0.0
C734 C 0.31871 0.91409 0.45954 0.0
C735 C 0.31008 0.89824 0.43029 0.0
C736 C 0.32072 0.88322 0.388 0.0
C737 C 0.34002 0.88401 0.37493 0.0
C738 C 0.34872 0.89983 0.40402 0.0
C739 C 0.41402 0.94367 0.62619 0.0
C740 C 0.42828 0.94028 0.57103 0.0
C741 C 0.39541 0.94258 0.6176 0.0
C742 C 0.39083 0.93812 0.55371 0.0
C743 C 0.40507 0.93258 0.50049 0.0
C744 C 0.42363 0.93369 0.50897 0.0
C745 C 0.37185 0.94285 0.53795 0.0
C746 C 0.36296 0.92728 0.50808 0.0
C747 C 0.36388 0.96345 0.54233 0.0
C748 C 0.37229 0.98043 0.5754 0.0
C749 C 0.38983 0.98691 0.54853 0.0
C750 C 0.39809 0.00209 0.58242 0.0
C751 C 0.3888 0.01109 0.64272 0.0
C752 C 0.37118 0.00505 0.66895 0.0
C753 C 0.36289 0.98983 0.63533 0.0
H754 H 0.39523 0.0228 0.669 0.0
H755 H 0.31402 0.87097 0.36537 0.0
H756 H 0.55449 0.30375 0.3286 0.0
H757 H 0.56682 0.33042 0.39558 0.0
H758 H 0.51097 0.34989 0.48675 0.0
H759 H 0.49876 0.32343 0.41979 0.0
H760 H 0.55855 0.3712 0.3798 0.0
H761 H 0.5111 0.37142 0.6401 0.0
H762 H 0.49789 0.34611 0.72072 0.0
H763 H 0.54146 0.30063 0.64238 0.0
H764 H 0.55514 0.32575 0.56202 0.0
H765 H 0.52829 0.46871 0.53013 0.0
H766 H 0.53423 0.43414 0.47791 0.0
H767 H 0.56745 0.41582 0.63034 0.0
H768 H 0.56147 0.45034 0.68338 0.0
H769 H 0.54106 0.38977 0.62206 0.0
H770 H 0.58762 0.41812 0.4678 0.0
H771 H 0.60157 0.44312 0.38749 0.0
H772 H 0.56214 0.43047 0.25518 0.0
H773 H 0.54775 0.40565 0.33511 0.0
C774 C 0.545 0.31325 0.36498 0.0
C775 C 0.52576 0.31154 0.37005 0.0
C776 C 0.552 0.32852 0.40272 0.0
C777 C 0.53982 0.34204 0.44636 0.0
C778 C 0.52065 0.3394 0.45431 0.0
C779 C 0.51367 0.32432 0.4162 0.0
C780 C 0.54654 0.36068 0.47652 0.0
C781 C 0.555 0.37518 0.43295 0.0
C782 C 0.54217 0.36566 0.54598 0.0
C783 C 0.53411 0.35048 0.59471 0.0
C784 C 0.51795 0.35607 0.64031 0.0
C785 C 0.51036 0.34173 0.68594 0.0
C786 C 0.51881 0.32176 0.68659 0.0
C787 C 0.5349 0.31609 0.6417 0.0
C788 C 0.54256 0.33036 0.59602 0.0
C789 C 0.53722 0.45752 0.55173 0.0
C790 C 0.54425 0.46225 0.61131 0.0
C791 C 0.54068 0.43775 0.5216 0.0
C792 C 0.55132 0.42241 0.5502 0.0
C793 C 0.5592 0.42743 0.60752 0.0
C794 C 0.55578 0.44721 0.63765 0.0
C795 C 0.55225 0.40064 0.52482 0.0
C796 C 0.54512 0.38561 0.56924 0.0
C797 C 0.55793 0.39514 0.45619 0.0
C798 C 0.56654 0.41007 0.40775 0.0
C799 C 0.58182 0.42078 0.42182 0.0
C800 C 0.58983 0.43491 0.3763 0.0
C801 C 0.58273 0.4384 0.31631 0.0
C802 C 0.56763 0.42775 0.30167 0.0
C803 C 0.55956 0.41362 0.34704 0.0
H804 H 0.58895 0.44934 0.28114 0.0
H805 H 0.5129 0.31069 0.72192 0.0
H806 H 0.21041 0.45765 0.15332 0.0
H807 H 0.1868 0.46893 0.24796 0.0
H808 H 0.22083 0.51738 0.29842 0.0
H809 H 0.24409 0.50691 0.203 0.0
H810 H 0.18096 0.4889 0.39843 0.0
H811 H 0.20303 0.55176 0.2382 0.0
H812 H 0.21917 0.55863 0.1247 0.0
H813 H 0.18969 0.51159 0.0398 0.0
H814 H 0.17365 0.50429 0.15299 0.0
H815 H 0.10677 0.56265 0.51584 0.0
H816 H 0.13873 0.54986 0.47528 0.0
H817 H 0.1223 0.53032 0.28742 0.0
H818 H 0.09038 0.5436 0.32702 0.0
H819 H 0.15564 0.54561 0.26761 0.0
H820 H 0.12376 0.49702 0.41394 0.0
H821 H 0.10651 0.48496 0.51918 0.0
H822 H 0.15195 0.49792 0.62416 0.0
H823 H 0.1694 0.51034 0.5196 0.0
C824 C 0.21323 0.47013 0.18632 0.0
C825 C 0.22873 0.4819 0.1691 0.0
C826 C 0.19985 0.47635 0.24098 0.0
C827 C 0.20203 0.4942 0.27894 0.0
C828 C 0.21899 0.50356 0.26938 0.0
C829 C 0.23228 0.49753 0.2144 0.0
C830 C 0.18525 0.5067 0.30892 0.0
C831 C 0.17553 0.50159 0.37096 0.0
C832 C 0.17802 0.52275 0.27157 0.0
C833 C 0.18717 0.52756 0.2036 0.0
C834 C 0.19997 0.54299 0.19515 0.0
C835 C 0.20916 0.54687 0.13102 0.0
C836 C 0.20547 0.53554 0.07509 0.0
C837 C 0.19254 0.52034 0.08315 0.0
C838 C 0.18345 0.51629 0.14723 0.0
C839 C 0.1101 0.55633 0.46495 0.0
C840 C 0.09611 0.55405 0.42446 0.0
C841 C 0.1283 0.54877 0.44232 0.0
C842 C 0.13271 0.53878 0.3791 0.0
C843 C 0.11908 0.53788 0.33666 0.0
C844 C 0.10089 0.54544 0.35921 0.0
C845 C 0.15118 0.52814 0.35818 0.0
C846 C 0.16122 0.53345 0.29687 0.0
C847 C 0.15837 0.51203 0.39596 0.0
C848 C 0.1478 0.50484 0.4591 0.0
C849 C 0.13 0.49751 0.4596 0.0
C850 C 0.12021 0.49056 0.51909 0.0
C851 C 0.12813 0.49068 0.5783 0.0
C852 C 0.14584 0.49783 0.57824 0.0
C853 C 0.15569 0.50483 0.51887 0.0
H854 H 0.12058 0.48512 0.62411 0.0
H855 H 0.21262 0.53853 0.02554 0.0
H856 H 0.98669 0.74497 0.21151 0.0
H857 H 0.98603 0.77102 0.12616 0.0
H858 H 0.9519 0.8127 0.26986 0.0
H859 H 0.95134 0.78616 0.35421 0.0
H860 H 0.94975 0.82522 0.14384 0.0
H861 H 0.99825 0.80622 0.2785 0.0
H862 H 0.02063 0.78145 0.32052 0.0
H863 H 0.04764 0.7682 0.11859 0.0
H864 H 0.02517 0.79277 0.07543 0.0
H865 H 0.02505 0.90628 0.11652 0.0
H866 H 1.01158 0.87464 0.16039 0.0
H867 H 0.98622 0.86715 0.98117 0.0
H868 H 0.99957 0.89881 0.93722 0.0
H869 H 0.01726 0.83625 0.11313 0.0
H870 H 0.94497 0.84334 0.02471 0.0
H871 H 0.9223 0.87092 0.99884 0.0
H872 H 0.94267 0.91316 0.13395 0.0
H873 H 0.96522 0.88579 0.16141 0.0
C874 C 0.978 0.7591 0.22395 0.0
C875 C 0.96979 0.76391 0.29056 0.0
C876 C 0.97775 0.7741 0.17498 0.0
C877 C 0.96974 0.79412 0.19284 0.0
C878 C 0.95855 0.7975 0.25539 0.0
C879 C 0.95839 0.78234 0.30385 0.0
C880 C 0.97696 0.81224 0.15596 0.0
C881 C 0.96452 0.82752 0.13592 0.0
C882 C 0.99619 0.8156 0.14802 0.0
C883 C 1.00993 0.80113 0.17379 0.0
C884 C 1.00891 0.79798 0.24315 0.0
C885 C 0.0216 0.78396 0.26715 0.0
C886 C 0.03552 0.7732 0.22225 0.0
C887 C 0.03682 0.77651 0.15329 0.0
C888 C 0.02411 0.79047 0.12903 0.0
C889 C 0.01664 0.89784 0.08649 0.0
C890 C 0.01328 0.90503 0.0237 0.0
C891 C 1.00893 0.87983 0.11157 0.0
C892 C 0.99778 0.86866 0.07423 0.0
C893 C 0.9945 0.87573 0.01129 0.0
C894 C 1.00213 0.89381 0.98633 0.0
C895 C 0.99009 0.84929 0.1007 0.0
C896 C 1.00251 0.8338 0.11916 0.0
C897 C 0.97083 0.84618 0.10918 0.0
C898 C 0.95696 0.86258 0.09435 0.0
C899 C 0.94455 0.85849 0.04909 0.0
C900 C 0.93173 0.87408 0.03414 0.0
C901 C 0.93114 0.8938 0.06443 0.0
C902 C 0.94322 0.89791 0.11024 0.0
C903 C 0.95603 0.88237 0.12546 0.0
H904 H 0.92133 0.90591 0.05246 0.0
H905 H 0.04533 0.76234 0.24091 0.0
H906 H 0.72277 0.97372 0.1433 0.0
H907 H 0.70322 0.98484 0.0606 0.0
H908 H 0.73404 0.03952 0.02551 0.0
H909 H 0.75371 0.02831 0.10941 0.0
H910 H 0.69772 0.04903 0.06314 0.0
H911 H 0.73267 0.0056 0.89448 0.0
H912 H 0.75038 0.97422 0.84261 0.0
H913 H 0.70145 0.93995 0.87863 0.0
H914 H 0.68349 0.97099 0.93169 0.0
H915 H 0.61773 0.06884 0.88857 0.0
H916 H 0.65045 0.06522 0.90607 0.0
H917 H 0.64121 0.00585 0.99497 0.0
H918 H 0.60868 0.00943 0.97836 0.0
H919 H 0.67297 0.0057 0.89476 0.0
H920 H 0.64269 0.04571 0.09437 0.0
H921 H 0.62472 0.07621 0.15163 0.0
H922 H 0.66534 0.11606 0.05804 0.0
H923 H 0.68343 0.08576 0.99959 0.0
C924 C 0.72573 0.98777 0.11635 0.0
C925 C 0.7396 1.00026 0.13261 0.0
C926 C 0.71466 0.99406 0.06872 0.0
C927 C 0.71728 0.01294 0.03645 0.0
C928 C 0.73193 0.02482 0.04952 0.0
C929 C 0.74315 0.01842 0.09711 0.0
C930 C 0.70268 0.02152 0.99896 0.0
C931 C 0.69269 0.03993 0.02444 0.0
C932 C 0.696 0.00953 0.94911 0.0
C933 C 0.70672 0.9907 0.9172 0.0
C934 C 0.72569 0.99135 0.89175 0.0
C935 C 0.73578 0.97361 0.86207 0.0
C936 C 0.72705 0.95511 0.85732 0.0
C937 C 0.70819 0.95431 0.88223 0.0
C938 C 0.69804 0.972 0.912 0.0
C939 C 0.6227 0.05516 0.91254 0.0
C940 C 0.61077 0.03935 0.93188 0.0
C941 C 0.64135 0.05306 0.922 0.0
C942 C 0.64819 0.03516 0.95098 0.0
C943 C 0.63619 0.01963 0.97161 0.0
C944 C 0.61764 0.02172 0.96228 0.0
C945 C 0.66775 0.03243 0.9618 0.0
C946 C 0.67854 0.01519 0.93117 0.0
C947 C 0.67515 0.0454 0.00708 0.0
C948 C 0.66424 0.06356 0.04189 0.0
C949 C 0.64768 0.06101 0.0855 0.0
C950 C 0.6375 0.07824 0.11828 0.0
C951 C 0.64384 0.09807 0.10826 0.0
C952 C 0.66041 0.1007 0.06559 0.0
C953 C 0.67063 0.08351 0.03263 0.0
H954 H 0.63595 0.11139 0.13372 0.0
H955 H 0.73488 0.94139 0.83433 0.0
H956 H 0.49414 0.72221 0.08992 0.0
H957 H 0.48205 0.69575 0.02118 0.0
H958 H 0.5345 0.65985 0.00522 0.0
H959 H 0.54645 0.68609 0.07364 0.0
H960 H 0.52003 0.658 0.88915 0.0
H961 H 0.50049 0.65065 0.12755 0.0
H962 H 0.48486 0.66264 0.23993 0.0
H963 H 0.43289 0.67073 0.16374 0.0
H964 H 0.4483 0.65904 0.05059 0.0
H965 H 0.49771 0.54978 0.94602 0.0
H966 H 0.49358 0.58519 0.99339 0.0
H967 H 0.47879 0.60742 0.80612 0.0
H968 H 0.48263 0.57185 0.75922 0.0
H969 H 0.46898 0.62024 0.01275 0.0
H970 H 0.50965 0.64739 0.76433 0.0
H971 H 0.53171 0.63393 0.666 0.0
H972 H 0.54801 0.58191 0.77869 0.0
H973 H 0.52643 0.59533 0.87807 0.0
C974 C 0.5032 0.70896 0.0697 0.0
C975 C 0.52119 0.70607 0.08655 0.0
C976 C 0.49627 0.69383 0.03104 0.0
C977 C 0.50733 0.67577 0.00872 0.0
C978 C 0.52575 0.67368 0.02176 0.0
C979 C 0.53258 0.68864 0.06073 0.0
C980 C 0.49952 0.65799 0.97756 0.0
C981 C 0.50854 0.65003 0.91527 0.0
C982 C 0.48485 0.64732 0.01262 0.0
C983 C 0.47557 0.65425 0.08053 0.0
C984 C 0.48576 0.65515 0.13468 0.0
C985 C 0.47694 0.66186 0.19851 0.0
C986 C 0.45791 0.66751 0.20892 0.0
C987 C 0.44764 0.6664 0.15555 0.0
C988 C 0.45641 0.65974 0.09157 0.0
C989 C 0.49251 0.56209 0.91655 0.0
C990 C 0.49017 0.55821 0.84962 0.0
C991 C 0.49024 0.58232 0.9434 0.0
C992 C 0.48609 0.59894 0.90295 0.0
C993 C 0.482 0.5948 0.83809 0.0
C994 C 0.48402 0.5745 0.81156 0.0
C995 C 0.48955 0.62023 0.9243 0.0
C996 C 0.47983 0.62875 0.98495 0.0
C997 C 0.50405 0.63109 0.88887 0.0
C998 C 0.51617 0.62219 0.8282 0.0
C999 C 0.51785 0.63301 0.76791 0.0
C1000 C 0.53035 0.62545 0.71215 0.0
C1001 C 0.54128 0.60712 0.71627 0.0
C1002 C 0.53953 0.59611 0.77568 0.0
C1003 C 0.52715 0.60368 0.8317 0.0
H1004 H 0.55125 0.60154 0.67368 0.0
H1005 H 0.4511 0.67269 0.25838 0.0
H1006 H 0.82503 0.57521 0.32859 0.0
H1007 H 0.84949 0.57878 0.23337 0.0
H1008 H 0.83134 0.52522 0.13567 0.0
H1009 H 0.80667 0.52228 0.22861 0.0
H1010 H 0.87386 0.5498 0.23088 0.0
H1011 H 0.85257 0.51368 0.98336 0.0
H1012 H 0.82898 0.52064 0.90922 0.0
H1013 H 0.82031 0.58359 0.98474 0.0
H1014 H 0.84411 0.57718 0.05854 0.0
H1015 H 0.92149 0.46192 1.00061 0.0
H1016 H 0.89474 0.48601 0.04113 0.0
H1017 H 0.93175 0.53358 0.07386 0.0
H1018 H 0.95847 0.5096 0.0339 0.0
H1019 H 0.88368 0.52428 0.99389 0.0
H1020 H 0.9126 0.5617 0.21059 0.0
H1021 H 0.93471 0.55451 0.29067 0.0
H1022 H 0.9254 0.48964 0.28039 0.0
H1023 H 0.90319 0.4965 0.20052 0.0
C1024 C 0.82568 0.565 0.28486 0.0
C1025 C 0.81432 0.54819 0.28637 0.0
C1026 C 0.83962 0.56704 0.2304 0.0
C1027 C 0.84259 0.55201 0.17781 0.0
C1028 C 0.82939 0.53717 0.17495 0.0
C1029 C 0.81525 0.53538 0.2287 0.0
C1030 C 0.8615 0.5476 0.13991 0.0
C1031 C 0.87611 0.54506 0.17822 0.0
C1032 C 0.86451 0.54094 0.07149 0.0
C1033 C 0.85017 0.54491 0.02685 0.0
C1034 C 0.84578 0.52907 0.9839 0.0
C1035 C 0.83232 0.53291 0.94195 0.0
C1036 C 0.82314 0.55254 0.94233 0.0
C1037 C 0.8274 0.56838 0.98463 0.0
C1038 C 0.84086 0.56463 0.02664 0.0
C1039 C 0.92386 0.47747 0.01696 0.0
C1040 C 0.94199 0.48381 0.0152 0.0
C1041 C 0.90864 0.49123 0.03951 0.0
C1042 C 0.91133 0.51154 0.06024 0.0
C1043 C 0.92942 0.51792 0.05849 0.0
C1044 C 0.94463 0.50414 0.03639 0.0
C1045 C 0.89512 0.52566 0.08648 0.0
C1046 C 0.88135 0.52995 0.04571 0.0
C1047 C 0.89275 0.53398 0.15272 0.0
C1048 C 0.90647 0.52958 0.19905 0.0
C1049 C 0.91537 0.5459 0.2252 0.0
C1050 C 0.9279 0.54189 0.27058 0.0
C1051 C 0.93151 0.52162 0.2904 0.0
C1052 C 0.92265 0.50532 0.26478 0.0
C1053 C 0.91013 0.50925 0.21934 0.0
H1054 H 0.94115 0.51856 0.32575 0.0
H1055 H 0.81272 0.55547 0.90982 0.0
H1056 H 0.05256 0.20649 0.08451 0.0
H1057 H 0.05499 0.17446 0.01596 0.0
H1058 H 0.0199 0.20372 0.88503 0.0
H1059 H 0.01748 0.23587 0.95414 0.0
H1060 H 1.00699 0.16757 0.92877 0.0
H1061 H 0.06553 0.18924 0.82723 0.0
H1062 H 0.09676 0.20225 0.82296 0.0
H1063 H 0.11435 0.14885 0.92688 0.0
H1064 H 0.08314 0.13565 0.93264 0.0
H1065 H 1.01111 0.07537 0.72835 0.0
H1066 H 0.01422 0.1112 0.76345 0.0
H1067 H 0.05216 0.09009 0.89742 0.0
H1068 H 0.04962 0.05421 0.86064 0.0
H1069 H 0.06392 0.12391 0.83978 0.0
H1070 H 1.00453 0.10459 0.953 0.0
H1071 H 0.97332 0.09138 0.95806 0.0
H1072 H 0.95746 0.14044 0.8328 0.0
H1073 H 0.98865 0.15382 0.82649 0.0
C1074 C 0.04598 0.20629 0.03956 0.0
C1075 C 0.03515 0.22374 0.02372 0.0
C1076 C 0.04729 0.18796 1.00051 0.0
C1077 C 0.03769 0.18661 0.94496 0.0
C1078 C 0.02749 0.20436 0.92743 0.0
C1079 C 0.02628 0.22279 0.96636 0.0
C1080 C 0.0369 0.16617 0.90977 0.0
C1081 C 0.01945 0.15823 0.90805 0.0
C1082 C 0.05312 0.15366 0.88412 0.0
C1083 C 0.07193 0.16154 0.88083 0.0
C1084 C 0.07601 0.18035 0.84967 0.0
C1085 C 0.09372 0.18774 0.84689 0.0
C1086 C 0.10752 0.1764 0.87476 0.0
C1087 C 0.10364 0.15762 0.90535 0.0
C1088 C 0.08595 0.15016 0.90831 0.0
C1089 C 0.02017 0.07831 0.76515 0.0
C1090 C 0.03 0.06182 0.79205 0.0
C1091 C 0.02188 0.09887 0.78544 0.0
C1092 C 0.03316 0.10346 0.83421 0.0
C1093 C 0.04333 0.08705 0.85989 0.0
C1094 C 0.04181 0.06648 0.83896 0.0
C1095 C 0.03403 0.12522 0.85974 0.0
C1096 C 0.05147 0.13337 0.85982 0.0
C1097 C 0.0178 0.13792 0.88418 0.0
C1098 C 0.99896 0.13009 0.88882 0.0
C1099 C 0.99441 0.1125 0.92632 0.0
C1100 C 0.97672 0.10499 0.92943 0.0
C1101 C 0.96343 0.11504 0.89565 0.0
C1102 C 0.96778 0.13266 0.8589 0.0
C1103 C 0.98544 0.14023 0.85561 0.0
H1104 H 0.94976 0.10918 0.89803 0.0
H1105 H 0.12123 0.18215 0.87253 0.0
H1106 H 0.31317 0.03727 0.10209 0.0
H1107 H 0.34079 0.04277 0.01995 0.0
H1108 H 0.35145 0.97656 0.99189 0.0
H1109 H 0.3238 0.97121 0.07235 0.0
H1110 H 0.37457 0.03415 0.03287 0.0
H1111 H 0.37964 0.96326 0.84158 0.0
H1112 H 0.35902 0.94407 0.77952 0.0
H1113 H 0.31848 0.99572 0.80612 0.0
H1114 H 0.33901 0.01545 0.86692 0.0
H1115 H 0.46841 0.00874 0.90447 0.0
H1116 H 0.43588 0.00927 0.95527 0.0
H1117 H 0.4189 0.01948 0.76109 0.0
H1118 H 0.45154 0.01789 0.70958 0.0
H1119 H 0.39686 0.99537 0.81842 0.0
H1120 H 0.41607 0.05923 0.89404 0.0
H1121 H 0.43576 0.08297 0.94456 0.0
H1122 H 0.42508 0.05247 0.13273 0.0
H1123 H 0.40552 0.02836 0.0831 0.0
C1124 C 0.32097 0.02397 0.07602 0.0
C1125 C 0.31609 0.00382 0.09276 0.0
C1126 C 0.33695 0.02708 0.02972 0.0
C1127 C 0.34841 0.01011 0.99905 0.0
C1128 C 0.34287 0.99 0.01328 0.0
C1129 C 0.32695 0.98692 0.05933 0.0
C1130 C 0.36704 0.01316 0.95835 0.0
C1131 C 0.37933 0.0257 0.9858 0.0
C1132 C 0.37339 0.00264 0.89577 0.0
C1133 C 0.3608 0.99075 0.85987 0.0
C1134 C 0.36634 0.97057 0.83419 0.0
C1135 C 0.35466 0.95958 0.79915 0.0
C1136 C 0.33738 0.9686 0.78942 0.0
C1137 C 0.3318 0.98868 0.81426 0.0
C1138 C 0.34345 0.99977 0.8491 0.0
C1139 C 0.45778 0.01124 0.87254 0.0
C1140 C 0.4627 0.01344 0.80289 0.0
C1141 C 0.43905 0.01167 0.90182 0.0
C1142 C 0.42464 0.01492 0.86272 0.0
C1143 C 0.42957 0.01702 0.79293 0.0
C1144 C 0.44832 0.01619 0.7634 0.0
C1145 C 0.40454 0.01565 0.89448 0.0
C1146 C 0.39202 0.00386 0.86534 0.0
C1147 C 0.39776 0.02735 0.95442 0.0
C1148 C 0.40943 0.04189 0.98467 0.0
C1149 C 0.41801 0.05751 0.94609 0.0
C1150 C 0.42914 0.07104 0.97457 0.0
C1151 C 0.4317 0.0692 0.04177 0.0
C1152 C 0.42309 0.05386 0.08067 0.0
C1153 C 0.41196 0.04028 0.05242 0.0
H1154 H 0.44033 0.07969 0.06372 0.0
H1155 H 0.32838 0.96008 0.76217 0.0
H1156 H 0.52013 0.30168 0.08751 0.0
H1157 H 0.51729 0.33105 0.01343 0.0
H1158 H 0.47159 0.35848 0.15418 0.0
H1159 H 0.47446 0.32917 0.22819 0.0
H1160 H 0.46788 0.3678 0.02207 0.0
H1161 H 0.51217 0.37115 0.17378 0.0
H1162 H 0.53852 0.35818 0.22893 0.0
H1163 H 0.57442 0.35635 0.03938 0.0
H1164 H 0.54816 0.36896 0.98287 0.0
H1165 H 0.51676 0.47277 0.94871 0.0
H1166 H 0.51157 0.44172 0.01506 0.0
H1167 H 0.49093 0.41209 0.84923 0.0
H1168 H 0.49539 0.44318 0.78403 0.0
H1169 H 0.52609 0.40474 1.00118 0.0
H1170 H 0.46067 0.3765 0.90038 0.0
H1171 H 0.43248 0.3914 0.86 0.0
H1172 H 0.43578 0.44789 0.97207 0.0
H1173 H 0.46377 0.43319 0.0144 0.0
C1174 C 0.50891 0.31347 0.10088 0.0
C1175 C 0.49744 0.31316 0.16321 0.0
C1176 C 0.50742 0.33036 0.05898 0.0
C1177 C 0.49444 0.34713 0.07892 0.0
C1178 C 0.4817 0.34575 0.13782 0.0
C1179 C 0.48328 0.32896 0.1799 0.0
C1180 C 0.49591 0.36717 0.04411 0.0
C1181 C 0.48063 0.37584 0.01691 0.0
C1182 C 0.51226 0.3781 0.04014 0.0
C1183 C 0.52816 0.37078 0.07397 0.0
C1184 C 0.52565 0.36783 0.14376 0.0
C1185 C 0.54057 0.36056 0.17529 0.0
C1186 C 0.55812 0.3564 0.13765 0.0
C1187 C 0.5608 0.35955 0.06844 0.0
C1188 C 0.54591 0.36676 0.03663 0.0
C1189 C 0.51093 0.45971 0.92671 0.0
C1190 C 0.50635 0.46058 0.86123 0.0
C1191 C 0.50801 0.44192 0.96462 0.0
C1192 C 0.5006 0.42456 0.9377 0.0
C1193 C 0.49618 0.42539 0.8721 0.0
C1194 C 0.49883 0.44323 0.83464 0.0
C1195 C 0.49821 0.40528 0.97688 0.0
C1196 C 0.51333 0.39674 0.00555 0.0
C1197 C 0.48146 0.39488 0.98414 0.0
C1198 C 0.46445 0.40379 0.95997 0.0
C1199 C 0.45533 0.39206 0.91674 0.0
C1200 C 0.43938 0.40047 0.89355 0.0
C1201 C 0.43237 0.42059 0.91343 0.0
C1202 C 0.44125 0.43232 0.95676 0.0
C1203 C 0.45716 0.42396 0.98031 0.0
H1204 H 0.42004 0.4271 0.89531 0.0
H1205 H 0.56966 0.35078 0.16213 0.0
H1206 H 0.21368 0.45614 0.94598 0.0
H1207 H 0.18661 0.46015 0.88812 0.0
H1208 H 0.19914 0.5232 0.84362 0.0
H1209 H 0.22616 0.5193 0.90411 0.0
H1210 H 0.16404 0.52316 0.88782 0.0
H1211 H 0.20222 0.48258 0.71709 0.0
H1212 H 0.22389 0.45386 0.66641 0.0
H1213 H 0.18357 0.41006 0.73213 0.0
H1214 H 0.16174 0.43849 0.78404 0.0
H1215 H 0.08619 0.52794 0.69834 0.0
H1216 H 0.11844 0.52711 0.72195 0.0
H1217 H 0.11061 0.4697 0.82449 0.0
H1218 H 0.07841 0.47069 0.80274 0.0
H1219 H 0.14507 0.46998 0.73489 0.0
H1220 H 0.10855 0.51211 0.91511 0.0
H1221 H 0.08717 0.54176 0.96028 0.0
H1222 H 0.12553 0.58404 0.86657 0.0
H1223 H 0.14702 0.55459 0.81997 0.0
C1224 C 0.21103 0.47068 0.92205 0.0
C1225 C 0.22232 0.48729 0.92894 0.0
C1226 C 0.19545 0.473 0.88876 0.0
C1227 C 0.19068 0.49194 0.86031 0.0
C1228 C 0.2024 0.50836 0.86468 0.0
C1229 C 0.21807 0.50604 0.89839 0.0
C1230 C 0.1728 0.49478 0.83086 0.0
C1231 C 0.16017 0.51171 0.85316 0.0
C1232 C 0.16732 0.47987 0.786 0.0
C1233 C 0.18039 0.46268 0.75491 0.0
C1234 C 0.19802 0.46681 0.72118 0.0
C1235 C 0.21032 0.45059 0.69215 0.0
C1236 C 0.20512 0.43015 0.69616 0.0
C1237 C 0.18758 0.4259 0.72909 0.0
C1238 C 0.17523 0.44207 0.75824 0.0
C1239 C 0.09138 0.51507 0.72554 0.0
C1240 C 0.0796 0.49942 0.74882 0.0
C1241 C 0.10982 0.51467 0.73933 0.0
C1242 C 0.11704 0.49838 0.77541 0.0
C1243 C 0.10547 0.48243 0.79659 0.0
C1244 C 0.08698 0.48306 0.78422 0.0
C1245 C 0.13639 0.49803 0.79302 0.0
C1246 C 0.1492 0.48153 0.76866 0.0
C1247 C 0.14213 0.51349 0.83504 0.0
C1248 C 0.12928 0.53116 0.86339 0.0
C1249 C 0.11235 0.52773 0.90363 0.0
C1250 C 0.10022 0.54449 0.92959 0.0
C1251 C 0.10496 0.56477 0.91612 0.0
C1252 C 0.12186 0.56832 0.87684 0.0
C1253 C 0.13402 0.5516 0.85066 0.0
H1254 H 0.09556 0.57773 0.93627 0.0
H1255 H 0.21467 0.41761 0.67365 0.0
H1256 H 0.97335 0.77664 0.54988 0.0
H1257 H 0.97979 0.80936 0.60245 0.0
H1258 H 0.03492 0.80533 0.48917 0.0
H1259 H 0.02853 0.77229 0.43737 0.0
H1260 H 0.03389 0.82462 0.61573 0.0
H1261 H 1.00102 0.83047 0.4245 0.0
H1262 H 0.97571 0.82353 0.35953 0.0
H1263 H 0.9355 0.85069 0.51914 0.0
H1264 H 0.96051 0.85767 0.58549 0.0
H1265 H 0.01782 0.94409 0.56357 0.0
H1266 H 0.01591 0.90789 0.52904 0.0
H1267 H 0.0145 0.88965 0.73475 0.0
H1268 H 0.01673 0.92572 0.76953 0.0
H1269 H 0.99023 0.88121 0.55825 0.0
H1270 H 0.03473 0.84095 0.73967 0.0
H1271 H 0.06099 0.84829 0.79939 0.0
H1272 H 0.08037 0.89076 0.64724 0.0
H1273 H 0.05436 0.88349 0.58623 0.0
C1274 C 0.98714 0.78224 0.53876 0.0
C1275 C 1.00053 0.77184 0.49023 0.0
C1276 C 0.99074 0.80108 0.56811 0.0
C1277 C 1.0077 0.81006 0.54873 0.0
C1278 C 0.02172 0.79875 0.50484 0.0
C1279 C 0.01813 0.77978 0.47565 0.0
C1280 C 1.00988 0.83211 0.56779 0.0
C1281 C 0.02431 0.83699 0.60344 0.0
C1282 C 0.99763 0.84837 0.55054 0.0
C1283 C 0.98262 0.84445 0.51021 0.0
C1284 C 0.98677 0.83487 0.44592 0.0
C1285 C 0.9725 0.83093 0.40882 0.0
C1286 C 0.95404 0.83657 0.43525 0.0
C1287 C 0.94981 0.84629 0.49876 0.0
C1288 C 0.96402 0.85028 0.5361 0.0
C1289 C 0.01714 0.9324 0.60154 0.0
C1290 C 0.01749 0.93791 0.66936 0.0
C1291 C 0.01601 0.91166 0.58169 0.0
C1292 C 0.01527 0.89589 0.62903 0.0
C1293 C 0.0154 0.90139 0.69692 0.0
C1294 C 0.01658 0.92211 0.7168 0.0
C1295 C 0.01405 0.8738 0.60746 0.0
C1296 C 0.99979 0.86889 0.57099 0.0
C1297 C 0.02661 0.8576 0.62321 0.0
C1298 C 0.04251 0.86179 0.65875 0.0
C1299 C 0.04465 0.85177 0.71882 0.0
C1300 C 0.05948 0.85594 0.75292 0.0
C1301 C 0.07231 0.87002 0.72722 0.0
C1302 C 0.07038 0.87991 0.66721 0.0
C1303 C 0.05559 0.87579 0.6329 0.0
H1304 H 0.08376 0.87325 0.75374 0.0
H1305 H 0.94303 0.83346 0.40642 0.0
H1306 H 0.72391 0.95613 0.34316 0.0
H1307 H 0.69335 0.95702 0.41267 0.0
H1308 H 0.70088 0.01876 0.484 0.0
H1309 H 0.73148 0.01795 0.41344 0.0
H1310 H 0.68028 0.99258 0.58455 0.0
H1311 H 0.67971 0.01608 0.35874 0.0
H1312 H 0.68767 0.01285 0.23537 0.0
H1313 H 0.65817 0.95739 0.23441 0.0
H1314 H 0.65028 0.96009 0.35797 0.0
H1315 H 0.58514 0.02634 0.67873 0.0
H1316 H 0.61794 0.02281 0.63116 0.0
H1317 H 0.60824 0.9684 0.51723 0.0
H1318 H 0.57515 0.97215 0.56358 0.0
H1319 H 0.63063 0.99058 0.44024 0.0
H1320 H 0.63053 0.96654 0.66281 0.0
H1321 H 0.62382 0.96739 0.78658 0.0
H1322 H 0.65494 0.02141 0.79525 0.0
H1323 H 0.66164 0.02106 0.67132 0.0
C1324 C 0.71948 0.96947 0.37635 0.0
C1325 C 0.73037 0.98677 0.37398 0.0
C1326 C 0.70185 0.9701 0.41538 0.0
C1327 C 0.69462 0.98805 0.45313 0.0
C1328 C 0.70612 0.00469 0.45557 0.0
C1329 C 0.72375 0.00413 0.41587 0.0
C1330 C 0.67446 0.99026 0.48304 0.0
C1331 C 0.66941 0.99242 0.55303 0.0
C1332 C 0.66019 0.98958 0.44219 0.0
C1333 C 0.66455 0.98818 0.36772 0.0
C1334 C 0.67502 0.00312 0.33229 0.0
C1335 C 0.6795 1.0014 0.26232 0.0
C1336 C 0.67347 0.9849 0.2271 0.0
C1337 C 0.66286 0.97014 0.26177 0.0
C1338 C 0.65836 0.97177 0.33178 0.0
C1339 C 0.58989 0.01357 0.64357 0.0
C1340 C 0.57729 0.99952 0.62529 0.0
C1341 C 0.60882 0.01148 0.61659 0.0
C1342 C 0.61589 0.99512 0.57105 0.0
C1343 C 0.60332 0.98116 0.55225 0.0
C1344 C 0.58432 0.98329 0.57903 0.0
C1345 C 0.63624 0.99284 0.54234 0.0
C1346 C 0.6414 0.99073 0.47219 0.0
C1347 C 0.65059 0.99342 0.58322 0.0
C1348 C 0.64644 0.99387 0.65771 0.0
C1349 C 0.6358 0.97871 0.69104 0.0
C1350 C 0.63203 0.97908 0.76121 0.0
C1351 C 0.63895 0.99443 0.79867 0.0
C1352 C 0.6496 0.00952 0.7661 0.0
C1353 C 0.6534 0.00924 0.69588 0.0
H1354 H 0.63613 0.99453 0.85291 0.0
H1355 H 0.67698 0.98358 0.17295 0.0
H1356 H 0.50847 0.71486 0.35903 0.0
H1357 H 0.50984 0.68677 0.43868 0.0
H1358 H 0.56766 0.67276 0.36044 0.0
H1359 H 0.56623 0.70092 0.28092 0.0
H1360 H 0.51683 0.64729 0.38904 0.0
H1361 H 0.58813 0.64527 0.48304 0.0
H1362 H 0.61022 0.66956 0.51619 0.0
H1363 H 0.5656 0.71605 0.5702 0.0
H1364 H 0.54321 0.69196 0.53829 0.0
H1365 H 0.55997 0.55574 0.5804 0.0
H1366 H 0.56398 0.5879 0.51751 0.0
H1367 H 0.50588 0.60609 0.57709 0.0
H1368 H 0.50171 0.57408 0.63718 0.0
H1369 H 0.55895 0.62879 0.55454 0.0
H1370 H 0.48783 0.63051 0.45524 0.0
H1371 H 0.46633 0.60585 0.42 0.0
H1372 H 0.51151 0.5597 0.37177 0.0
H1373 H 0.53333 0.58417 0.4057 0.0
C1374 C 0.52167 0.70644 0.36134 0.0
C1375 C 0.53734 0.71025 0.31503 0.0
C1376 C 0.52241 0.69024 0.4062 0.0
C1377 C 0.53884 0.67759 0.40548 0.0
C1378 C 0.55491 0.68244 0.36263 0.0
C1379 C 0.55413 0.69861 0.31754 0.0
C1380 C 0.53837 0.65775 0.44184 0.0
C1381 C 0.52584 0.64342 0.42608 0.0
C1382 C 0.55072 0.65227 0.48778 0.0
C1383 C 0.56403 0.66687 0.50747 0.0
C1384 C 0.58302 0.66066 0.50214 0.0
C1385 C 0.5956 0.6744 0.52071 0.0
C1386 C 0.58933 0.69436 0.54504 0.0
C1387 C 0.57045 0.70062 0.55104 0.0
C1388 C 0.55782 0.68694 0.53257 0.0
C1389 C 0.54809 0.56659 0.57957 0.0
C1390 C 0.53047 0.56221 0.61274 0.0
C1391 C 0.55039 0.58495 0.54379 0.0
C1392 C 0.53515 0.59926 0.54152 0.0
C1393 C 0.51774 0.5951 0.57651 0.0
C1394 C 0.51539 0.57675 0.61101 0.0
C1395 C 0.5371 0.61859 0.50273 0.0
C1396 C 0.54996 0.63271 0.5175 0.0
C1397 C 0.52517 0.62389 0.4552 0.0
C1398 C 0.51219 0.60914 0.43363 0.0
C1399 C 0.4932 0.61513 0.4368 0.0
C1400 C 0.48095 0.60118 0.4171 0.0
C1401 C 0.48754 0.5812 0.39387 0.0
C1402 C 0.50641 0.57516 0.39001 0.0
C1403 C 0.51872 0.58906 0.40954 0.0
H1404 H 0.47803 0.57042 0.37874 0.0
H1405 H 0.59909 0.70497 0.55939 0.0
H1406 H 0.82613 0.55402 0.52696 0.0
H1407 H 0.85387 0.5489 0.58142 0.0
H1408 H 0.85302 0.48277 0.55214 0.0
H1409 H 0.82506 0.48792 0.49691 0.0
H1410 H 0.86486 0.49596 0.67974 0.0
H1411 H 0.87938 0.50723 0.44063 0.0
H1412 H 0.87611 0.52661 0.33808 0.0
H1413 H 0.8956 0.58061 0.42605 0.0
H1414 H 0.89864 0.56169 0.5296 0.0
H1415 H 0.96116 0.47439 0.71008 0.0
H1416 H 0.9301 0.47609 0.67691 0.0
H1417 H 0.93218 0.54217 0.65516 0.0
H1418 H 0.96335 0.54051 0.68684 0.0
H1419 H 0.9193 0.52732 0.55278 0.0
H1420 H 0.9044 0.51924 0.78895 0.0
H1421 H 0.90581 0.50329 0.89849 0.0
H1422 H 0.88602 0.44721 0.82536 0.0
H1423 H 0.88482 0.46271 0.71478 0.0
C1424 C 0.83147 0.53833 0.534 0.0
C1425 C 0.82328 0.52138 0.50776 0.0
C1426 C 0.84747 0.53542 0.56476 0.0
C1427 C 0.85583 0.51547 0.57007 0.0
C1428 C 0.8469 0.49834 0.54864 0.0
C1429 C 0.83081 0.50127 0.51752 0.0
C1430 C 0.87466 0.51291 0.59207 0.0
C1431 C 0.87685 0.50251 0.65144 0.0
C1432 C 0.89027 0.52197 0.55645 0.0
C1433 C 0.88905 0.5331 0.49318 0.0
C1434 C 0.88286 0.52327 0.43826 0.0
C1435 C 0.88103 0.53419 0.37998 0.0
C1436 C 0.88552 0.55488 0.37582 0.0
C1437 C 0.89204 0.56462 0.42953 0.0
C1438 C 0.89383 0.5538 0.48799 0.0
C1439 C 0.95499 0.48934 0.69871 0.0
C1440 C 0.96492 0.50731 0.70125 0.0
C1441 C 0.93709 0.4903 0.67995 0.0
C1442 C 0.92851 0.5093 0.66372 0.0
C1443 C 0.93835 0.52728 0.66707 0.0
C1444 C 0.95624 0.52631 0.68561 0.0
C1445 C 0.90965 0.51044 0.64103 0.0
C1446 C 0.90743 0.52061 0.5812 0.0
C1447 C 0.89397 0.50147 0.67697 0.0
C1448 C 0.89472 0.49206 0.7433 0.0
C1449 C 0.90051 0.50344 0.796 0.0
C1450 C 0.90123 0.49449 0.85835 0.0
C1451 C 0.89603 0.47423 0.86888 0.0
C1452 C 0.89007 0.46289 0.81708 0.0
C1453 C 0.88937 0.47175 0.75455 0.0
H1454 H 0.89655 0.46732 0.91719 0.0
H1455 H 0.88402 0.56338 0.33094 0.0
loop_
_geom_bond_atom_site_label_1
_geom_bond_atom_site_label_2
_geom_bond_distance
_geom_bond_site_symmetry_2
_ccdc_geom_bond_type
H0 C5 0.930 . S
H1 C8 0.930 . S
H2 C10 0.930 . S
H3 C4 1.016 . S
C4 H3 1.016 . S
C4 N11 1.286 . S
C5 H0 0.930 . S
C5 C6 1.397 . S
C5 C7 1.361 . S
C6 C5 1.397 . S
C6 C10 1.390 . S
C7 C5 1.361 . S
C7 C8 1.393 . S
C7 N11 1.413 . S
C8 H1 0.930 . S
C8 C7 1.393 . S
C8 C9 1.399 . S
C9 C8 1.399 . S
C9 C10 1.381 . S
C10 H2 0.930 . S
C10 C6 1.390 . S
C10 C9 1.381 . S
N11 C4 1.286 . S
N11 C7 1.413 . S
H12 C17 0.930 . S
H13 C20 0.930 . S
H14 C22 0.930 . S
H15 C16 1.016 . S
C16 H15 1.016 . S
C16 N23 1.285 . S
C17 H12 0.930 . S
C17 C18 1.397 . S
C17 C19 1.361 . S
C18 C17 1.397 . S
C18 C22 1.390 . S
C19 C17 1.361 . S
C19 C20 1.393 . S
C19 N23 1.413 . S
C20 H13 0.930 . S
C20 C19 1.393 . S
C20 C21 1.399 . S
C21 C20 1.399 . S
C21 C22 1.381 . S
C22 H14 0.930 . S
C22 C18 1.390 . S
C22 C21 1.381 . S
N23 C16 1.285 . S
N23 C19 1.413 . S
H24 C29 0.930 . S
H25 C32 0.930 . S
H26 C34 0.930 . S
H27 C28 1.016 . S
C28 H27 1.016 . S
C28 N35 1.286 1_565 S
C29 H24 0.930 . S
C29 C30 1.395 1_545 S
C29 C31 1.361 . S
C30 C29 1.395 1_565 S
C30 C34 1.391 . S
C31 C29 1.361 . S
C31 C32 1.393 . S
C31 N35 1.413 . S
C32 H25 0.930 . S
C32 C31 1.393 . S
C32 C33 1.391 1_545 S
C33 C32 1.391 1_565 S
C33 C34 1.387 . S
C34 H26 0.930 . S
C34 C30 1.391 . S
C34 C33 1.387 . S
N35 C28 1.286 1_545 S
N35 C31 1.413 . S
H36 C41 0.930 . S
H37 C44 0.930 . S
H38 C46 0.930 . S
H39 C40 1.016 . S
C40 H39 1.016 . S
C40 N47 1.286 . S
C41 H36 0.930 . S
C41 C42 1.397 . S
C41 C43 1.361 . S
C42 C41 1.397 . S
C42 C46 1.390 . S
C43 C41 1.361 . S
C43 C44 1.393 . S
C43 N47 1.413 . S
C44 H37 0.930 . S
C44 C43 1.393 . S
C44 C45 1.399 . S
C45 C44 1.399 . S
C45 C46 1.381 . S
C46 H38 0.930 . S
C46 C42 1.390 . S
C46 C45 1.381 . S
N47 C40 1.286 . S
N47 C43 1.413 . S
H48 C53 0.930 . S
H49 C56 0.930 . S
H50 C58 0.930 . S
H51 C52 1.016 . S
C52 H51 1.016 . S
C52 N59 1.286 1_554 S
C53 H48 0.930 . S
C53 C54 1.397 . S
C53 C55 1.361 . S
C54 C53 1.397 . S
C54 C58 1.390 . S
C55 C53 1.361 . S
C55 C56 1.393 1_556 S
C55 N59 1.413 . S
C56 H49 0.930 . S
C56 C55 1.393 1_554 S
C56 C57 1.399 . S
C57 C56 1.399 . S
C57 C58 1.381 1_554 S
C58 H50 0.930 . S
C58 C54 1.390 . S
C58 C57 1.381 1_556 S
N59 C52 1.286 1_556 S
N59 C55 1.413 . S
H60 C65 0.930 . S
H61 C68 0.930 . S
H62 C70 0.930 . S
H63 C64 1.016 . S
C64 H63 1.016 . S
C64 N71 1.286 . S
C65 H60 0.930 . S
C65 C66 1.397 . S
C65 C67 1.361 . S
C66 C65 1.397 . S
C66 C70 1.390 . S
C67 C65 1.361 . S
C67 C68 1.393 . S
C67 N71 1.413 . S
C68 H61 0.930 . S
C68 C67 1.393 . S
C68 C69 1.399 . S
C69 C68 1.399 . S
C69 C70 1.381 . S
C70 H62 0.930 . S
C70 C66 1.390 . S
C70 C69 1.381 . S
N71 C64 1.286 . S
N71 C67 1.413 . S
H72 C77 0.930 . S
H73 C80 0.930 . S
H74 C82 0.930 . S
H75 C76 1.016 . S
C76 H75 1.016 . S
C76 N83 1.286 . S
C77 H72 0.930 . S
C77 C78 1.397 . S
C77 C79 1.361 . S
C78 C77 1.397 . S
C78 C82 1.390 . S
C79 C77 1.361 . S
C79 C80 1.393 . S
C79 N83 1.413 . S
C80 H73 0.930 . S
C80 C79 1.393 . S
C80 C81 1.399 . S
C81 C80 1.399 . S
C81 C82 1.381 . S
C82 H74 0.930 . S
C82 C78 1.390 . S
C82 C81 1.381 . S
N83 C76 1.286 . S
N83 C79 1.413 . S
H84 C89 0.930 . S
H85 C92 0.930 . S
H86 C94 0.930 . S
H87 C88 1.016 . S
C88 H87 1.016 . S
C88 N95 1.286 . S
C89 H84 0.930 . S
C89 C90 1.397 . S
C89 C91 1.361 . S
C90 C89 1.397 . S
C90 C94 1.390 . S
C91 C89 1.361 . S
C91 C92 1.393 . S
C91 N95 1.413 . S
C92 H85 0.930 . S
C92 C91 1.393 . S
C92 C93 1.399 . S
C93 C92 1.399 . S
C93 C94 1.381 . S
C94 H86 0.930 . S
C94 C90 1.390 . S
C94 C93 1.381 . S
N95 C88 1.286 . S
N95 C91 1.413 . S
Dy96 O99 2.307 1_545 S
Dy96 O101 2.395 1_655 S
Dy96 O102 2.379 . S
Dy96 O104 2.339 . S
Dy96 O106 2.298 1_655 S
Dy96 O110 2.275 1_655 S
Dy96 C118 2.738 . S
Dy97 O100 2.298 . S
Dy97 O103 2.274 1_455 S
Dy97 O105 2.307 1_565 S
Dy97 O107 2.395 . S
Dy97 O108 2.379 . S
Dy97 O111 2.339 . S
Dy97 C127 2.738 . S
C98 O110 1.261 . S
C98 O111 1.242 1_545 S
O99 Dy96 2.307 1_565 S
O99 C109 1.266 1_655 S
O100 Dy97 2.298 . S
O100 C109 1.236 . S
O101 Dy96 2.395 1_455 S
O101 C118 1.255 1_455 S
O102 Dy96 2.379 . S
O102 C118 1.249 . S
O103 Dy97 2.274 1_655 S
O103 C119 1.255 1_565 S
O104 Dy96 2.339 . S
O104 C119 1.257 . S
O105 Dy97 2.307 1_545 S
O105 C120 1.266 . S
O106 Dy96 2.298 1_455 S
O106 C120 1.236 . S
O107 Dy97 2.395 . S
O107 C127 1.255 . S
O108 Dy97 2.379 . S
O108 C127 1.249 . S
C109 O99 1.266 1_455 S
C109 O100 1.236 . S
O110 Dy96 2.275 1_455 S
O110 C98 1.261 . S
O111 Dy97 2.339 . S
O111 C98 1.242 1_565 S
C112 C115 1.344 1_655 S
C112 C116 1.328 . S
C112 C118 1.516 . S
C113 C114 1.304 1_655 S
C113 C117 1.323 . S
C114 C113 1.304 1_455 S
C114 C115 1.371 . S
C114 H128 0.930 . S
C115 C112 1.344 1_455 S
C115 C114 1.371 . S
C115 H129 0.931 . S
C116 C112 1.328 . S
C116 C117 1.433 . S
C116 H130 0.931 . S
C117 C113 1.323 . S
C117 C116 1.433 . S
C117 H131 0.933 . S
C118 Dy96 2.738 . S
C118 O101 1.255 1_655 S
C118 O102 1.249 . S
C118 C112 1.516 . S
C119 O103 1.255 1_545 S
C119 O104 1.257 . S
C120 O105 1.266 . S
C120 O106 1.236 . S
C121 C124 1.353 . S
C121 C125 1.328 . S
C121 C127 1.516 . S
C122 C123 1.308 . S
C122 C126 1.323 . S
C123 C122 1.308 . S
C123 C124 1.371 . S
C123 H132 0.927 1_455 S
C124 C121 1.353 . S
C124 C123 1.371 . S
C124 H133 0.922 1_455 S
C125 C121 1.328 . S
C125 C126 1.433 . S
C125 H134 0.931 . S
C126 C122 1.323 . S
C126 C125 1.433 . S
C126 H135 0.933 . S
C127 Dy97 2.738 . S
C127 O107 1.255 . S
C127 O108 1.249 . S
C127 C121 1.516 . S
H128 C114 0.930 . S
H129 C115 0.931 . S
H130 C116 0.931 . S
H131 C117 0.933 . S
H132 C123 0.927 1_655 S
H133 C124 0.922 1_655 S
H134 C125 0.931 . S
H135 C126 0.933 . S
Dy136 O139 2.307 . S
Dy136 O141 2.395 1_565 S
Dy136 O142 2.379 . S
Dy136 O144 2.339 . S
Dy136 O146 2.298 . S
Dy136 O150 2.275 1_565 S
Dy136 C158 2.738 . S
Dy137 O140 2.298 . S
Dy137 O143 2.275 1_545 S
Dy137 O145 2.307 . S
Dy137 O147 2.395 1_545 S
Dy137 O148 2.379 . S
Dy137 O151 2.339 . S
Dy137 C167 2.738 . S
C138 O150 1.254 . S
C138 O151 1.257 . S
O139 Dy136 2.307 . S
O139 C149 1.266 . S
O140 Dy137 2.298 . S
O140 C149 1.236 1_545 S
O141 Dy136 2.395 1_545 S
O141 C158 1.255 1_545 S
O142 Dy136 2.379 . S
O142 C158 1.249 . S
O143 Dy137 2.275 1_565 S
O143 C159 1.254 . S
O144 Dy136 2.339 . S
O144 C159 1.257 . S
O145 Dy137 2.307 . S
O145 C160 1.266 . S
O146 Dy136 2.298 . S
O146 C160 1.236 1_565 S
O147 Dy137 2.395 1_565 S
O147 C167 1.255 1_565 S
O148 Dy137 2.379 . S
O148 C167 1.249 . S
C149 O139 1.266 . S
C149 O140 1.236 1_565 S
O150 Dy136 2.275 1_545 S
O150 C138 1.254 . S
O151 Dy137 2.339 . S
O151 C138 1.257 . S
C152 C155 1.344 1_565 S
C152 C156 1.328 . S
C152 C158 1.516 . S
C153 C154 1.304 1_565 S
C153 C157 1.323 . S
C154 C153 1.304 1_545 S
C154 C155 1.371 . S
C154 H168 0.930 . S
C155 C152 1.344 1_545 S
C155 C154 1.371 . S
C155 H169 0.931 . S
C156 C152 1.328 . S
C156 C157 1.433 . S
C156 H170 0.931 . S
C157 C153 1.323 . S
C157 C156 1.433 . S
C157 H171 0.933 . S
C158 Dy136 2.738 . S
C158 O141 1.255 1_565 S
C158 O142 1.249 . S
C158 C152 1.516 . S
C159 O143 1.254 . S
C159 O144 1.257 . S
C160 O145 1.266 . S
C160 O146 1.236 1_545 S
C161 C164 1.344 1_545 S
C161 C165 1.328 . S
C161 C167 1.516 . S
C162 C163 1.277 1_545 S
C162 C166 1.323 . S
C163 C162 1.277 1_565 S
C163 C164 1.374 . S
C163 H172 0.957 . S
C164 C161 1.344 1_565 S
C164 C163 1.374 . S
C164 H173 0.931 . S
C165 C161 1.328 . S
C165 C166 1.433 . S
C165 H174 0.931 . S
C166 C162 1.323 . S
C166 C165 1.433 . S
C166 H175 0.933 . S
C167 Dy137 2.738 . S
C167 O147 1.255 1_545 S
C167 O148 1.249 . S
C167 C161 1.516 . S
H168 C154 0.930 . S
H169 C155 0.931 . S
H170 C156 0.931 . S
H171 C157 0.933 . S
H172 C163 0.957 . S
H173 C164 0.931 . S
H174 C165 0.931 . S
H175 C166 0.933 . S
Dy176 O179 2.307 . S
Dy176 O181 2.395 . S
Dy176 O182 2.379 . S
Dy176 O184 2.339 . S
Dy176 O186 2.298 . S
Dy176 O190 2.275 . S
Dy176 C198 2.738 . S
Dy177 O180 2.298 . S
Dy177 O183 2.275 . S
Dy177 O185 2.307 . S
Dy177 O187 2.395 . S
Dy177 O188 2.379 . S
Dy177 O191 2.339 . S
Dy177 C207 2.738 . S
C178 O190 1.254 . S
C178 O191 1.257 . S
O179 Dy176 2.307 . S
O179 C189 1.266 . S
O180 Dy177 2.298 . S
O180 C189 1.236 . S
O181 Dy176 2.395 . S
O181 C198 1.255 . S
O182 Dy176 2.379 . S
O182 C198 1.249 . S
O183 Dy177 2.275 . S
O183 C199 1.254 . S
O184 Dy176 2.339 . S
O184 C199 1.257 . S
O185 Dy177 2.307 . S
O185 C200 1.266 . S
O186 Dy176 2.298 . S
O186 C200 1.236 . S
O187 Dy177 2.395 . S
O187 C207 1.255 . S
O188 Dy177 2.379 . S
O188 C207 1.249 . S
C189 O179 1.266 . S
C189 O180 1.236 . S
O190 Dy176 2.275 . S
O190 C178 1.254 . S
O191 Dy177 2.339 . S
O191 C178 1.257 . S
C192 C195 1.344 . S
C192 C196 1.328 . S
C192 C198 1.516 . S
C193 C194 1.304 . S
C193 C197 1.323 . S
C194 C193 1.304 . S
C194 C195 1.371 . S
C194 H208 0.930 . S
C195 C192 1.344 . S
C195 C194 1.371 . S
C195 H209 0.931 . S
C196 C192 1.328 . S
C196 C197 1.433 . S
C196 H210 0.931 . S
C197 C193 1.323 . S
C197 C196 1.433 . S
C197 H211 0.933 . S
C198 Dy176 2.738 . S
C198 O181 1.255 . S
C198 O182 1.249 . S
C198 C192 1.516 . S
C199 O183 1.254 . S
C199 O184 1.257 . S
C200 O185 1.266 . S
C200 O186 1.236 . S
C201 C204 1.344 . S
C201 C205 1.328 . S
C201 C207 1.516 . S
C202 C203 1.304 . S
C202 C206 1.323 . S
C203 C202 1.304 . S
C203 C204 1.371 . S
C203 H212 0.930 . S
C204 C201 1.344 . S
C204 C203 1.371 . S
C204 H213 0.931 . S
C205 C201 1.328 . S
C205 C206 1.433 . S
C205 H214 0.931 . S
C206 C202 1.323 . S
C206 C205 1.433 . S
C206 H215 0.933 . S
C207 Dy177 2.738 . S
C207 O187 1.255 . S
C207 O188 1.249 . S
C207 C201 1.516 . S
H208 C194 0.930 . S
H209 C195 0.931 . S
H210 C196 0.931 . S
H211 C197 0.933 . S
H212 C203 0.930 . S
H213 C204 0.931 . S
H214 C205 0.931 . S
H215 C206 0.933 . S
Dy216 O219 2.307 1_455 S
Dy216 O221 2.395 . S
Dy216 O222 2.379 . S
Dy216 O224 2.339 . S
Dy216 O226 2.298 . S
Dy216 O230 2.275 . S
Dy216 C238 2.738 . S
Dy217 O220 2.298 . S
Dy217 O223 2.275 1_655 S
Dy217 O225 2.307 1_655 S
Dy217 O227 2.395 . S
Dy217 O228 2.379 . S
Dy217 O231 2.339 . S
Dy217 C247 2.738 . S
C218 O230 1.254 . S
C218 O231 1.257 1_455 S
O219 Dy216 2.307 1_655 S
O219 C229 1.266 . S
O220 Dy217 2.298 . S
O220 C229 1.236 . S
O221 Dy216 2.395 . S
O221 C238 1.255 . S
O222 Dy216 2.379 . S
O222 C238 1.249 . S
O223 Dy217 2.275 1_455 S
O223 C239 1.254 . S
O224 Dy216 2.339 . S
O224 C239 1.257 . S
O225 Dy217 2.307 1_455 S
O225 C240 1.266 . S
O226 Dy216 2.298 . S
O226 C240 1.236 . S
O227 Dy217 2.395 . S
O227 C247 1.255 . S
O228 Dy217 2.379 . S
O228 C247 1.249 . S
C229 O219 1.266 . S
C229 O220 1.236 . S
O230 Dy216 2.275 . S
O230 C218 1.254 . S
O231 Dy217 2.339 . S
O231 C218 1.257 1_655 S
C232 C235 1.344 . S
C232 C236 1.328 . S
C232 C238 1.516 . S
C233 C234 1.304 . S
C233 C237 1.323 . S
C234 C233 1.304 . S
C234 C235 1.371 . S
C234 H248 0.930 . S
C235 C232 1.344 . S
C235 C234 1.371 . S
C235 H249 0.931 . S
C236 C232 1.328 . S
C236 C237 1.433 . S
C236 H250 0.931 . S
C237 C233 1.323 . S
C237 C236 1.433 . S
C237 H251 0.933 . S
C238 Dy216 2.738 . S
C238 O221 1.255 . S
C238 O222 1.249 . S
C238 C232 1.516 . S
C239 O223 1.254 . S
C239 O224 1.257 . S
C240 O225 1.266 . S
C240 O226 1.236 . S
C241 C244 1.344 . S
C241 C245 1.328 . S
C241 C247 1.516 . S
C242 C243 1.304 1_554 S
C242 C246 1.323 1_554 S
C243 C242 1.304 1_556 S
C243 C244 1.371 . S
C243 H252 0.930 1_556 S
C244 C241 1.344 . S
C244 C243 1.371 . S
C244 H253 0.931 . S
C245 C241 1.328 . S
C245 C246 1.433 . S
C245 H254 0.931 . S
C246 C242 1.323 1_556 S
C246 C245 1.433 . S
C246 H255 0.933 1_556 S
C247 Dy217 2.738 . S
C247 O227 1.255 . S
C247 O228 1.249 . S
C247 C241 1.516 . S
H248 C234 0.930 . S
H249 C235 0.931 . S
H250 C236 0.931 . S
H251 C237 0.933 . S
H252 C243 0.930 1_554 S
H253 C244 0.931 . S
H254 C245 0.931 . S
H255 C246 0.933 1_554 S
H256 C274 0.945 1_565 S
H257 C276 0.953 . S
H258 C278 0.950 . S
H259 C279 0.950 . S
H260 C281 0.950 . S
H261 C284 0.950 . S
H262 C285 0.950 . S
H263 C287 0.950 . S
H264 C288 0.950 . S
H265 C289 0.951 . S
H266 C291 0.951 . S
H267 C293 0.965 . S
H268 C294 0.950 . S
H269 C296 0.950 . S
H270 C299 0.950 . S
H271 C300 0.950 . S
H272 C302 0.950 . S
H273 C303 0.950 . S
C274 H256 0.945 1_545 S
C274 C275 1.375 . S
C274 C276 1.384 1_545 S
C275 C274 1.375 . S
C275 C279 1.385 . S
C276 H257 0.953 . S
C276 C274 1.384 1_565 S
C276 C277 1.364 1_565 S
C277 C276 1.364 1_545 S
C277 C278 1.414 . S
C277 C280 1.499 . S
C278 H258 0.950 . S
C278 C277 1.414 . S
C278 C279 1.374 . S
C279 H259 0.950 . S
C279 C275 1.385 . S
C279 C278 1.374 . S
C280 C277 1.499 . S
C280 C281 1.373 . S
C280 C282 1.389 1_545 S
C281 H260 0.950 . S
C281 C280 1.373 . S
C281 C297 1.377 . S
C282 C280 1.389 1_565 S
C282 C283 1.524 . S
C282 C296 1.377 . S
C283 C282 1.524 . S
C283 C284 1.397 . S
C283 C288 1.363 . S
C284 H261 0.950 . S
C284 C283 1.397 . S
C284 C285 1.334 . S
C285 H262 0.950 . S
C285 C284 1.334 . S
C285 C286 1.287 . S
C286 C285 1.287 . S
C286 C287 1.524 . S
C286 H305 0.913 . S
C287 H263 0.950 . S
C287 C286 1.524 . S
C287 C288 1.415 . S
C288 H264 0.950 . S
C288 C283 1.363 . S
C288 C287 1.415 . S
C289 H265 0.951 . S
C289 C290 1.366 . S
C289 C291 1.388 . S
C290 C289 1.366 . S
C290 C294 1.385 1_545 S
C291 H266 0.951 . S
C291 C289 1.388 . S
C291 C292 1.366 . S
C292 C291 1.366 . S
C292 C293 1.397 1_545 S
C292 C295 1.499 . S
C293 H267 0.965 . S
C293 C292 1.397 1_565 S
C293 C294 1.380 . S
C294 H268 0.950 . S
C294 C290 1.385 1_565 S
C294 C293 1.380 . S
C295 C292 1.499 . S
C295 C296 1.373 1_545 S
C295 C297 1.389 . S
C296 H269 0.950 . S
C296 C282 1.377 . S
C296 C295 1.373 1_565 S
C297 C281 1.377 . S
C297 C295 1.389 . S
C297 C298 1.524 . S
C298 C297 1.524 . S
C298 C299 1.397 . S
C298 C303 1.363 . S
C299 H270 0.950 . S
C299 C298 1.397 . S
C299 C300 1.334 . S
C300 H271 0.950 . S
C300 C299 1.334 . S
C300 C301 1.287 . S
C301 C300 1.287 . S
C301 C302 1.524 . S
C301 H304 0.999 . S
C302 H272 0.950 . S
C302 C301 1.524 . S
C302 C303 1.415 . S
C303 H273 0.950 . S
C303 C298 1.363 . S
C303 C302 1.415 . S
H304 C301 0.999 . S
H305 C286 0.913 . S
H306 C324 0.951 . S
H307 C326 0.951 . S
H308 C328 0.950 . S
H309 C329 0.950 . S
H310 C331 0.950 . S
H311 C334 0.950 . S
H312 C335 0.950 . S
H313 C337 0.950 . S
H314 C338 0.950 . S
H315 C339 0.951 . S
H316 C341 0.951 . S
H317 C343 0.950 . S
H318 C344 0.950 . S
H319 C346 0.950 . S
H320 C349 0.950 . S
H321 C350 0.950 . S
H322 C352 0.950 . S
H323 C353 0.950 . S
C324 H306 0.951 . S
C324 C325 1.366 . S
C324 C326 1.388 . S
C325 C324 1.366 . S
C325 C329 1.385 . S
C326 H307 0.951 . S
C326 C324 1.388 . S
C326 C327 1.366 . S
C327 C326 1.366 . S
C327 C328 1.414 . S
C327 C330 1.499 . S
C328 H308 0.950 . S
C328 C327 1.414 . S
C328 C329 1.374 . S
C329 H309 0.950 . S
C329 C325 1.385 . S
C329 C328 1.374 . S
C330 C327 1.499 . S
C330 C331 1.373 . S
C330 C332 1.389 . S
C331 H310 0.950 . S
C331 C330 1.373 . S
C331 C347 1.377 . S
C332 C330 1.389 . S
C332 C333 1.524 . S
C332 C346 1.377 . S
C333 C332 1.524 . S
C333 C334 1.397 . S
C333 C338 1.363 . S
C334 H311 0.950 . S
C334 C333 1.397 . S
C334 C335 1.334 . S
C335 H312 0.950 . S
C335 C334 1.334 . S
C335 C336 1.287 . S
C336 C335 1.287 . S
C336 C337 1.524 . S
C336 H355 0.913 . S
C337 H313 0.950 . S
C337 C336 1.524 . S
C337 C338 1.415 . S
C338 H314 0.950 . S
C338 C333 1.363 . S
C338 C337 1.415 . S
C339 H315 0.951 . S
C339 C340 1.366 . S
C339 C341 1.388 . S
C340 C339 1.366 . S
C340 C344 1.385 . S
C341 H316 0.951 . S
C341 C339 1.388 . S
C341 C342 1.366 . S
C342 C341 1.366 . S
C342 C343 1.414 . S
C342 C345 1.499 . S
C343 H317 0.950 . S
C343 C342 1.414 . S
C343 C344 1.374 . S
C344 H318 0.950 . S
C344 C340 1.385 . S
C344 C343 1.374 . S
C345 C342 1.499 . S
C345 C346 1.373 . S
C345 C347 1.389 . S
C346 H319 0.950 . S
C346 C332 1.377 . S
C346 C345 1.373 . S
C347 C331 1.377 . S
C347 C345 1.389 . S
C347 C348 1.524 . S
C348 C347 1.524 . S
C348 C349 1.397 . S
C348 C353 1.363 . S
C349 H320 0.950 . S
C349 C348 1.397 . S
C349 C350 1.334 . S
C350 H321 0.950 . S
C350 C349 1.334 . S
C350 C351 1.287 . S
C351 C350 1.287 . S
C351 C352 1.524 . S
C351 H354 0.999 . S
C352 H322 0.950 . S
C352 C351 1.524 . S
C352 C353 1.415 . S
C353 H323 0.950 . S
C353 C348 1.363 . S
C353 C352 1.415 . S
H354 C351 0.999 . S
H355 C336 0.913 . S
H356 C374 0.951 . S
H357 C376 0.951 . S
H358 C378 0.950 . S
H359 C379 0.950 . S
H360 C381 0.950 . S
H361 C384 0.950 . S
H362 C385 0.950 . S
H363 C387 0.950 . S
H364 C388 0.950 . S
H365 C389 0.951 . S
H366 C391 0.951 . S
H367 C393 0.950 . S
H368 C394 0.950 . S
H369 C396 0.950 . S
H370 C399 0.950 . S
H371 C400 0.950 . S
H372 C402 0.950 . S
H373 C403 0.950 . S
C374 H356 0.951 . S
C374 C375 1.366 . S
C374 C376 1.388 . S
C375 C374 1.366 . S
C375 C379 1.385 . S
C376 H357 0.951 . S
C376 C374 1.388 . S
C376 C377 1.366 . S
C377 C376 1.366 . S
C377 C378 1.414 . S
C377 C380 1.499 . S
C378 H358 0.950 . S
C378 C377 1.414 . S
C378 C379 1.374 . S
C379 H359 0.950 . S
C379 C375 1.385 . S
C379 C378 1.374 . S
C380 C377 1.499 . S
C380 C381 1.373 . S
C380 C382 1.389 . S
C381 H360 0.950 . S
C381 C380 1.373 . S
C381 C397 1.377 . S
C382 C380 1.389 . S
C382 C383 1.524 . S
C382 C396 1.377 . S
C383 C382 1.524 . S
C383 C384 1.397 . S
C383 C388 1.363 . S
C384 H361 0.950 . S
C384 C383 1.397 . S
C384 C385 1.334 . S
C385 H362 0.950 . S
C385 C384 1.334 . S
C385 C386 1.287 . S
C386 C385 1.287 . S
C386 C387 1.524 . S
C386 H405 0.913 . S
C387 H363 0.950 . S
C387 C386 1.524 . S
C387 C388 1.415 . S
C388 H364 0.950 . S
C388 C383 1.363 . S
C388 C387 1.415 . S
C389 H365 0.951 . S
C389 C390 1.366 . S
C389 C391 1.388 . S
C390 C389 1.366 . S
C390 C394 1.385 . S
C391 H366 0.951 . S
C391 C389 1.388 . S
C391 C392 1.366 . S
C392 C391 1.366 . S
C392 C393 1.414 . S
C392 C395 1.499 . S
C393 H367 0.950 . S
C393 C392 1.414 . S
C393 C394 1.374 . S
C394 H368 0.950 . S
C394 C390 1.385 . S
C394 C393 1.374 . S
C395 C392 1.499 . S
C395 C396 1.373 . S
C395 C397 1.389 . S
C396 H369 0.950 . S
C396 C382 1.377 . S
C396 C395 1.373 . S
C397 C381 1.377 . S
C397 C395 1.389 . S
C397 C398 1.524 . S
C398 C397 1.524 . S
C398 C399 1.397 . S
C398 C403 1.363 . S
C399 H370 0.950 . S
C399 C398 1.397 . S
C399 C400 1.334 . S
C400 H371 0.950 . S
C400 C399 1.334 . S
C400 C401 1.287 . S
C401 C400 1.287 . S
C401 C402 1.524 . S
C401 H404 0.999 . S
C402 H372 0.950 . S
C402 C401 1.524 . S
C402 C403 1.415 . S
C403 H373 0.950 . S
C403 C398 1.363 . S
C403 C402 1.415 . S
H404 C401 0.999 . S
H405 C386 0.913 . S
H406 C424 0.951 . S
H407 C426 0.951 . S
H408 C428 0.950 1_655 S
H409 C429 0.950 1_655 S
H410 C431 0.950 . S
H411 C434 0.950 1_655 S
H412 C435 0.905 1_655 S
H413 C437 0.950 . S
H414 C438 0.950 . S
H415 C439 0.951 . S
H416 C441 0.951 . S
H417 C443 0.950 . S
H418 C444 0.950 . S
H419 C446 0.950 . S
H420 C449 0.950 . S
H421 C450 0.950 . S
H422 C452 0.950 . S
H423 C453 0.950 . S
C424 H406 0.951 . S
C424 C425 1.366 . S
C424 C426 1.388 . S
C425 C424 1.366 . S
C425 C429 1.385 . S
C426 H407 0.951 . S
C426 C424 1.388 . S
C426 C427 1.366 . S
C427 C426 1.366 . S
C427 C428 1.414 . S
C427 C430 1.499 . S
C428 H408 0.950 1_455 S
C428 C427 1.414 . S
C428 C429 1.374 . S
C429 H409 0.950 1_455 S
C429 C425 1.385 . S
C429 C428 1.374 . S
C430 C427 1.499 . S
C430 C431 1.373 . S
C430 C432 1.389 . S
C431 H410 0.950 . S
C431 C430 1.373 . S
C431 C447 1.377 . S
C432 C430 1.389 . S
C432 C433 1.524 . S
C432 C446 1.377 . S
C433 C432 1.524 . S
C433 C434 1.397 . S
C433 C438 1.363 . S
C434 H411 0.950 1_455 S
C434 C433 1.397 . S
C434 C435 1.334 . S
C435 H412 0.905 1_455 S
C435 C434 1.334 . S
C435 C436 1.287 . S
C436 C435 1.287 . S
C436 C437 1.524 . S
C436 H455 0.913 . S
C437 H413 0.950 . S
C437 C436 1.524 . S
C437 C438 1.415 . S
C438 H414 0.950 . S
C438 C433 1.363 . S
C438 C437 1.415 . S
C439 H415 0.951 . S
C439 C440 1.366 1_655 S
C439 C441 1.388 . S
C440 C439 1.366 1_455 S
C440 C444 1.385 . S
C441 H416 0.951 . S
C441 C439 1.388 . S
C441 C442 1.366 1_655 S
C442 C441 1.366 1_455 S
C442 C443 1.414 . S
C442 C445 1.499 . S
C443 H417 0.950 . S
C443 C442 1.414 . S
C443 C444 1.374 . S
C444 H418 0.950 . S
C444 C440 1.385 . S
C444 C443 1.374 . S
C445 C442 1.499 . S
C445 C446 1.373 . S
C445 C447 1.389 . S
C446 H419 0.950 . S
C446 C432 1.377 . S
C446 C445 1.373 . S
C447 C431 1.377 . S
C447 C445 1.389 . S
C447 C448 1.524 . S
C448 C447 1.524 . S
C448 C449 1.397 . S
C448 C453 1.363 1_455 S
C449 H420 0.950 . S
C449 C448 1.397 . S
C449 C450 1.334 . S
C450 H421 0.950 . S
C450 C449 1.334 . S
C450 C451 1.287 . S
C451 C450 1.287 . S
C451 C452 1.524 1_455 S
C451 H454 0.999 . S
C452 H422 0.950 . S
C452 C451 1.524 1_655 S
C452 C453 1.415 . S
C453 H423 0.950 . S
C453 C448 1.363 1_655 S
C453 C452 1.415 . S
H454 C451 0.999 . S
H455 C436 0.913 . S
H456 C474 0.951 . S
H457 C476 0.951 . S
H458 C478 0.955 . S
H459 C479 0.950 . S
H460 C481 0.950 . S
H461 C484 0.950 . S
H462 C485 0.950 . S
H463 C487 0.950 . S
H464 C488 0.950 . S
H465 C489 0.951 . S
H466 C491 0.951 . S
H467 C493 0.950 . S
H468 C494 0.950 . S
H469 C496 0.950 . S
H470 C499 0.950 . S
H471 C500 0.950 . S
H472 C502 0.950 . S
H473 C503 0.950 . S
C474 H456 0.951 . S
C474 C475 1.366 . S
C474 C476 1.389 . S
C475 C474 1.366 . S
C475 C479 1.383 . S
C476 H457 0.951 . S
C476 C474 1.389 . S
C476 C477 1.365 . S
C477 C476 1.365 . S
C477 C478 1.414 . S
C477 C480 1.499 . S
C478 H458 0.955 . S
C478 C477 1.414 . S
C478 C479 1.374 . S
C479 H459 0.950 . S
C479 C475 1.383 . S
C479 C478 1.374 . S
C480 C477 1.499 . S
C480 C481 1.373 1_565 S
C480 C482 1.389 1_554 S
C481 H460 0.950 . S
C481 C480 1.373 1_545 S
C481 C497 1.377 . S
C482 C480 1.389 1_556 S
C482 C483 1.524 . S
C482 C496 1.377 . S
C483 C482 1.524 . S
C483 C484 1.397 1_556 S
C483 C488 1.363 . S
C484 H461 0.950 . S
C484 C483 1.397 1_554 S
C484 C485 1.334 . S
C485 H462 0.950 . S
C485 C484 1.334 . S
C485 C486 1.287 1_554 S
C486 C485 1.287 1_556 S
C486 C487 1.524 . S
C486 H505 0.913 . S
C487 H463 0.950 . S
C487 C486 1.524 . S
C487 C488 1.415 . S
C488 H464 0.950 . S
C488 C483 1.363 . S
C488 C487 1.415 . S
C489 H465 0.951 . S
C489 C490 1.366 . S
C489 C491 1.388 . S
C490 C489 1.366 . S
C490 C494 1.385 . S
C491 H466 0.951 . S
C491 C489 1.388 . S
C491 C492 1.366 . S
C492 C491 1.366 . S
C492 C493 1.414 . S
C492 C495 1.499 . S
C493 H467 0.950 . S
C493 C492 1.414 . S
C493 C494 1.374 . S
C494 H468 0.950 . S
C494 C490 1.385 . S
C494 C493 1.374 . S
C495 C492 1.499 . S
C495 C496 1.373 1_545 S
C495 C497 1.389 1_556 S
C496 H469 0.950 . S
C496 C482 1.377 . S
C496 C495 1.373 1_565 S
C497 C481 1.377 . S
C497 C495 1.389 1_554 S
C497 C498 1.524 . S
C498 C497 1.524 . S
C498 C499 1.397 1_554 S
C498 C503 1.363 . S
C499 H470 0.950 . S
C499 C498 1.397 1_556 S
C499 C500 1.334 . S
C500 H471 0.950 . S
C500 C499 1.334 . S
C500 C501 1.287 1_556 S
C501 C500 1.287 1_554 S
C501 C502 1.524 . S
C501 H504 0.999 . S
C502 H472 0.950 . S
C502 C501 1.524 . S
C502 C503 1.415 . S
C503 H473 0.950 . S
C503 C498 1.363 . S
C503 C502 1.415 . S
H504 C501 0.999 . S
H505 C486 0.913 . S
H506 C524 0.951 . S
H507 C526 0.951 . S
H508 C528 0.950 . S
H509 C529 0.950 . S
H510 C531 0.950 1_554 S
H511 C534 0.950 . S
H512 C535 0.950 . S
H513 C537 0.950 . S
H514 C538 0.950 . S
H515 C539 0.951 . S
H516 C541 0.951 . S
H517 C543 0.950 . S
H518 C544 0.950 . S
H519 C546 0.950 . S
H520 C549 0.952 . S
H521 C550 0.950 . S
H522 C552 0.950 . S
H523 C553 0.950 1_556 S
C524 H506 0.951 . S
C524 C525 1.366 . S
C524 C526 1.388 1_554 S
C525 C524 1.366 . S
C525 C529 1.385 . S
C526 H507 0.951 . S
C526 C524 1.388 1_556 S
C526 C527 1.366 . S
C527 C526 1.366 . S
C527 C528 1.414 . S
C527 C530 1.499 . S
C528 H508 0.950 . S
C528 C527 1.414 . S
C528 C529 1.374 1_556 S
C529 H509 0.950 . S
C529 C525 1.385 . S
C529 C528 1.374 1_554 S
C530 C527 1.499 . S
C530 C531 1.373 . S
C530 C532 1.389 . S
C531 H510 0.950 1_556 S
C531 C530 1.373 . S
C531 C547 1.377 . S
C532 C530 1.389 . S
C532 C533 1.524 . S
C532 C546 1.377 . S
C533 C532 1.524 . S
C533 C534 1.397 . S
C533 C538 1.363 . S
C534 H511 0.950 . S
C534 C533 1.397 . S
C534 C535 1.334 . S
C535 H512 0.950 . S
C535 C534 1.334 . S
C535 C536 1.287 . S
C536 C535 1.287 . S
C536 C537 1.524 . S
C536 H555 0.913 . S
C537 H513 0.950 . S
C537 C536 1.524 . S
C537 C538 1.415 . S
C538 H514 0.950 . S
C538 C533 1.363 . S
C538 C537 1.415 . S
C539 H515 0.951 . S
C539 C540 1.366 . S
C539 C541 1.388 . S
C540 C539 1.366 . S
C540 C544 1.385 . S
C541 H516 0.951 . S
C541 C539 1.388 . S
C541 C542 1.366 . S
C542 C541 1.366 . S
C542 C543 1.414 . S
C542 C545 1.499 . S
C543 H517 0.950 . S
C543 C542 1.414 . S
C543 C544 1.374 . S
C544 H518 0.950 . S
C544 C540 1.385 . S
C544 C543 1.374 . S
C545 C542 1.499 . S
C545 C546 1.373 . S
C545 C547 1.389 . S
C546 H519 0.950 . S
C546 C532 1.377 . S
C546 C545 1.373 . S
C547 C531 1.377 . S
C547 C545 1.389 . S
C547 C548 1.524 . S
C548 C547 1.524 . S
C548 C549 1.397 1_556 S
C548 C553 1.363 1_556 S
C549 H520 0.952 . S
C549 C548 1.397 1_554 S
C549 C550 1.334 . S
C550 H521 0.950 . S
C550 C549 1.334 . S
C550 C551 1.287 . S
C551 C550 1.287 . S
C551 C552 1.524 . S
C551 H554 0.999 . S
C552 H522 0.950 . S
C552 C551 1.524 . S
C552 C553 1.415 . S
C553 H523 0.950 1_554 S
C553 C548 1.363 1_554 S
C553 C552 1.415 . S
H554 C551 0.999 . S
H555 C536 0.913 . S
H556 C574 0.951 . S
H557 C576 0.951 . S
H558 C578 0.950 . S
H559 C579 0.950 . S
H560 C581 0.950 . S
H561 C584 0.950 . S
H562 C585 0.950 . S
H563 C587 0.950 . S
H564 C588 0.950 . S
H565 C589 0.951 . S
H566 C591 0.951 . S
H567 C593 0.950 . S
H568 C594 0.950 1_556 S
H569 C596 0.950 . S
H570 C599 0.950 1_554 S
H571 C600 0.950 . S
H572 C602 0.950 . S
H573 C603 0.950 . S
C574 H556 0.951 . S
C574 C575 1.366 . S
C574 C576 1.388 . S
C575 C574 1.366 . S
C575 C579 1.385 . S
C576 H557 0.951 . S
C576 C574 1.388 . S
C576 C577 1.366 . S
C577 C576 1.366 . S
C577 C578 1.414 . S
C577 C580 1.499 . S
C578 H558 0.950 . S
C578 C577 1.414 . S
C578 C579 1.374 . S
C579 H559 0.950 . S
C579 C575 1.385 . S
C579 C578 1.374 . S
C580 C577 1.499 . S
C580 C581 1.373 . S
C580 C582 1.389 . S
C581 H560 0.950 . S
C581 C580 1.373 . S
C581 C597 1.377 . S
C582 C580 1.389 . S
C582 C583 1.524 . S
C582 C596 1.377 . S
C583 C582 1.524 . S
C583 C584 1.397 . S
C583 C588 1.363 . S
C584 H561 0.950 . S
C584 C583 1.397 . S
C584 C585 1.334 . S
C585 H562 0.950 . S
C585 C584 1.334 . S
C585 C586 1.287 . S
C586 C585 1.287 . S
C586 C587 1.524 . S
C586 H605 0.913 . S
C587 H563 0.950 . S
C587 C586 1.524 . S
C587 C588 1.415 . S
C588 H564 0.950 . S
C588 C583 1.363 . S
C588 C587 1.415 . S
C589 H565 0.951 . S
C589 C590 1.366 . S
C589 C591 1.388 1_556 S
C590 C589 1.366 . S
C590 C594 1.385 1_556 S
C591 H566 0.951 . S
C591 C589 1.388 1_554 S
C591 C592 1.366 . S
C592 C591 1.366 . S
C592 C593 1.414 . S
C592 C595 1.499 . S
C593 H567 0.950 . S
C593 C592 1.414 . S
C593 C594 1.374 . S
C594 H568 0.950 1_554 S
C594 C590 1.385 1_554 S
C594 C593 1.374 . S
C595 C592 1.499 . S
C595 C596 1.373 . S
C595 C597 1.389 . S
C596 H569 0.950 . S
C596 C582 1.377 . S
C596 C595 1.373 . S
C597 C581 1.377 . S
C597 C595 1.389 . S
C597 C598 1.524 . S
C598 C597 1.524 . S
C598 C599 1.397 1_554 S
C598 C603 1.363 . S
C599 H570 0.950 1_556 S
C599 C598 1.397 1_556 S
C599 C600 1.334 . S
C600 H571 0.950 . S
C600 C599 1.334 . S
C600 C601 1.287 . S
C601 C600 1.287 . S
C601 C602 1.524 . S
C601 H604 0.999 . S
C602 H572 0.950 . S
C602 C601 1.524 . S
C602 C603 1.415 1_556 S
C603 H573 0.950 . S
C603 C598 1.363 . S
C603 C602 1.415 1_554 S
H604 C601 0.999 . S
H605 C586 0.913 . S
H606 C624 0.951 . S
H607 C626 0.951 . S
H608 C628 0.950 . S
H609 C629 0.950 . S
H610 C631 0.950 . S
H611 C634 0.950 . S
H612 C635 0.950 . S
H613 C637 0.950 . S
H614 C638 0.950 . S
H615 C639 0.951 . S
H616 C641 0.951 . S
H617 C643 0.961 . S
H618 C644 0.950 . S
H619 C646 0.950 . S
H620 C649 0.950 . S
H621 C650 0.950 . S
H622 C652 0.950 . S
H623 C653 0.950 . S
C624 H606 0.951 . S
C624 C625 1.366 . S
C624 C626 1.388 . S
C625 C624 1.366 . S
C625 C629 1.385 . S
C626 H607 0.951 . S
C626 C624 1.388 . S
C626 C627 1.366 . S
C627 C626 1.366 . S
C627 C628 1.414 . S
C627 C630 1.499 . S
C628 H608 0.950 . S
C628 C627 1.414 . S
C628 C629 1.374 . S
C629 H609 0.950 . S
C629 C625 1.385 . S
C629 C628 1.374 . S
C630 C627 1.499 . S
C630 C631 1.373 . S
C630 C632 1.389 1_655 S
C631 H610 0.950 . S
C631 C630 1.373 . S
C631 C647 1.377 . S
C632 C630 1.389 1_455 S
C632 C633 1.524 . S
C632 C646 1.377 . S
C633 C632 1.524 . S
C633 C634 1.397 . S
C633 C638 1.363 . S
C634 H611 0.950 . S
C634 C633 1.397 . S
C634 C635 1.334 . S
C635 H612 0.950 . S
C635 C634 1.334 . S
C635 C636 1.287 . S
C636 C635 1.287 . S
C636 C637 1.524 . S
C636 H655 0.913 . S
C637 H613 0.950 . S
C637 C636 1.524 . S
C637 C638 1.415 . S
C638 H614 0.950 . S
C638 C633 1.363 . S
C638 C637 1.415 . S
C639 H615 0.951 . S
C639 C640 1.366 . S
C639 C641 1.386 . S
C640 C639 1.366 . S
C640 C644 1.385 . S
C641 H616 0.951 . S
C641 C639 1.386 . S
C641 C642 1.371 1_455 S
C642 C641 1.371 1_655 S
C642 C643 1.414 1_655 S
C642 C645 1.496 1_556 S
C643 H617 0.961 . S
C643 C642 1.414 1_455 S
C643 C644 1.371 . S
C644 H618 0.950 . S
C644 C640 1.385 . S
C644 C643 1.371 . S
C645 C642 1.496 1_554 S
C645 C646 1.373 1_655 S
C645 C647 1.389 . S
C646 H619 0.950 . S
C646 C632 1.377 . S
C646 C645 1.373 1_455 S
C647 C631 1.377 . S
C647 C645 1.389 . S
C647 C648 1.524 1_554 S
C648 C647 1.524 1_556 S
C648 C649 1.397 . S
C648 C653 1.363 . S
C649 H620 0.950 . S
C649 C648 1.397 . S
C649 C650 1.334 . S
C650 H621 0.950 . S
C650 C649 1.334 . S
C650 C651 1.287 . S
C651 C650 1.287 . S
C651 C652 1.524 . S
C651 H654 0.999 . S
C652 H622 0.950 . S
C652 C651 1.524 . S
C652 C653 1.415 . S
C653 H623 0.950 . S
C653 C648 1.363 . S
C653 C652 1.415 . S
H654 C651 0.999 . S
H655 C636 0.913 . S
H656 C674 0.951 . S
H657 C676 0.951 . S
H658 C678 0.950 . S
H659 C679 0.950 . S
H660 C681 0.950 . S
H661 C684 0.950 . S
H662 C685 0.950 . S
H663 C687 0.950 . S
H664 C688 0.950 . S
H665 C689 0.951 . S
H666 C691 0.951 . S
H667 C693 0.950 . S
H668 C694 0.950 . S
H669 C696 0.950 . S
H670 C699 0.950 . S
H671 C700 0.950 . S
H672 C702 0.950 . S
H673 C703 0.950 . S
C674 H656 0.951 . S
C674 C675 1.366 . S
C674 C676 1.388 . S
C675 C674 1.366 . S
C675 C679 1.385 . S
C676 H657 0.951 . S
C676 C674 1.388 . S
C676 C677 1.366 . S
C677 C676 1.366 . S
C677 C678 1.414 . S
C677 C680 1.499 . S
C678 H658 0.950 . S
C678 C677 1.414 . S
C678 C679 1.374 . S
C679 H659 0.950 . S
C679 C675 1.385 . S
C679 C678 1.374 . S
C680 C677 1.499 . S
C680 C681 1.373 . S
C680 C682 1.389 1_455 S
C681 H660 0.950 . S
C681 C680 1.373 . S
C681 C697 1.377 . S
C682 C680 1.389 1_655 S
C682 C683 1.524 . S
C682 C696 1.377 . S
C683 C682 1.524 . S
C683 C684 1.397 . S
C683 C688 1.363 . S
C684 H661 0.950 . S
C684 C683 1.397 . S
C684 C685 1.334 . S
C685 H662 0.950 . S
C685 C684 1.334 . S
C685 C686 1.287 . S
C686 C685 1.287 . S
C686 C687 1.524 . S
C686 H705 0.913 . S
C687 H663 0.950 . S
C687 C686 1.524 . S
C687 C688 1.415 . S
C688 H664 0.950 . S
C688 C683 1.363 . S
C688 C687 1.415 . S
C689 H665 0.951 . S
C689 C690 1.366 1_455 S
C689 C691 1.388 . S
C690 C689 1.366 1_655 S
C690 C694 1.385 . S
C691 H666 0.951 . S
C691 C689 1.388 . S
C691 C692 1.366 . S
C692 C691 1.366 . S
C692 C693 1.414 1_455 S
C692 C695 1.499 . S
C693 H667 0.950 . S
C693 C692 1.414 1_655 S
C693 C694 1.374 . S
C694 H668 0.950 . S
C694 C690 1.385 . S
C694 C693 1.374 . S
C695 C692 1.499 . S
C695 C696 1.373 1_455 S
C695 C697 1.389 . S
C696 H669 0.950 . S
C696 C682 1.377 . S
C696 C695 1.373 1_655 S
C697 C681 1.377 . S
C697 C695 1.389 . S
C697 C698 1.524 . S
C698 C697 1.524 . S
C698 C699 1.397 . S
C698 C703 1.363 . S
C699 H670 0.950 . S
C699 C698 1.397 . S
C699 C700 1.334 . S
C700 H671 0.950 . S
C700 C699 1.334 . S
C700 C701 1.287 . S
C701 C700 1.287 . S
C701 C702 1.524 . S
C701 H704 0.999 . S
C702 H672 0.950 . S
C702 C701 1.524 . S
C702 C703 1.415 . S
C703 H673 0.950 . S
C703 C698 1.363 . S
C703 C702 1.415 . S
H704 C701 0.999 . S
H705 C686 0.913 . S
H706 C724 0.951 . S
H707 C726 0.951 . S
H708 C728 0.950 . S
H709 C729 0.950 . S
H710 C731 0.950 . S
H711 C734 0.950 . S
H712 C735 0.950 . S
H713 C737 0.950 . S
H714 C738 0.950 . S
H715 C739 0.945 1_545 S
H716 C741 0.951 1_545 S
H717 C743 0.950 . S
H718 C744 0.950 . S
H719 C746 0.950 . S
H720 C749 0.950 . S
H721 C750 0.950 . S
H722 C752 0.950 . S
H723 C753 0.950 . S
C724 H706 0.951 . S
C724 C725 1.366 1_565 S
C724 C726 1.388 . S
C725 C724 1.366 1_545 S
C725 C729 1.385 . S
C726 H707 0.951 . S
C726 C724 1.388 . S
C726 C727 1.366 1_565 S
C727 C726 1.366 1_545 S
C727 C728 1.414 . S
C727 C730 1.499 1_545 S
C728 H708 0.950 . S
C728 C727 1.414 . S
C728 C729 1.374 . S
C729 H709 0.950 . S
C729 C725 1.385 . S
C729 C728 1.374 . S
C730 C727 1.499 1_565 S
C730 C731 1.373 1_565 S
C730 C732 1.389 . S
C731 H710 0.950 . S
C731 C730 1.373 1_545 S
C731 C747 1.377 . S
C732 C730 1.389 . S
C732 C733 1.524 . S
C732 C746 1.377 . S
C733 C732 1.524 . S
C733 C734 1.397 . S
C733 C738 1.363 . S
C734 H711 0.950 . S
C734 C733 1.397 . S
C734 C735 1.334 . S
C735 H712 0.950 . S
C735 C734 1.334 . S
C735 C736 1.287 . S
C736 C735 1.287 . S
C736 C737 1.524 . S
C736 H755 0.913 . S
C737 H713 0.950 . S
C737 C736 1.524 . S
C737 C738 1.415 . S
C738 H714 0.950 . S
C738 C733 1.363 . S
C738 C737 1.415 . S
C739 H715 0.945 1_565 S
C739 C740 1.366 . S
C739 C741 1.388 . S
C740 C739 1.366 . S
C740 C744 1.385 . S
C741 H716 0.951 1_565 S
C741 C739 1.388 . S
C741 C742 1.366 . S
C742 C741 1.366 . S
C742 C743 1.414 . S
C742 C745 1.499 . S
C743 H717 0.950 . S
C743 C742 1.414 . S
C743 C744 1.374 . S
C744 H718 0.950 . S
C744 C740 1.385 . S
C744 C743 1.374 . S
C745 C742 1.499 . S
C745 C746 1.373 . S
C745 C747 1.389 1_565 S
C746 H719 0.950 . S
C746 C732 1.377 . S
C746 C745 1.373 . S
C747 C731 1.377 . S
C747 C745 1.389 1_545 S
C747 C748 1.524 . S
C748 C747 1.524 . S
C748 C749 1.397 . S
C748 C753 1.363 . S
C749 H720 0.950 . S
C749 C748 1.397 . S
C749 C750 1.334 . S
C750 H721 0.950 . S
C750 C749 1.334 . S
C750 C751 1.287 . S
C751 C750 1.287 . S
C751 C752 1.524 . S
C751 H754 0.999 . S
C752 H722 0.950 . S
C752 C751 1.524 . S
C752 C753 1.415 . S
C753 H723 0.950 . S
C753 C748 1.363 . S
C753 C752 1.415 . S
H754 C751 0.999 . S
H755 C736 0.913 . S
H756 C774 0.951 . S
H757 C776 0.951 . S
H758 C778 0.950 . S
H759 C779 0.950 . S
H760 C781 0.950 . S
H761 C784 0.950 . S
H762 C785 0.950 . S
H763 C787 0.950 . S
H764 C788 0.950 . S
H765 C789 0.951 . S
H766 C791 0.951 . S
H767 C793 0.950 . S
H768 C794 0.950 . S
H769 C796 0.950 . S
H770 C799 0.950 . S
H771 C800 0.950 . S
H772 C802 0.950 . S
H773 C803 0.950 . S
C774 H756 0.951 . S
C774 C775 1.366 . S
C774 C776 1.388 . S
C775 C774 1.366 . S
C775 C779 1.385 . S
C776 H757 0.951 . S
C776 C774 1.388 . S
C776 C777 1.366 . S
C777 C776 1.366 . S
C777 C778 1.414 . S
C777 C780 1.499 . S
C778 H758 0.950 . S
C778 C777 1.414 . S
C778 C779 1.374 . S
C779 H759 0.950 . S
C779 C775 1.385 . S
C779 C778 1.374 . S
C780 C777 1.499 . S
C780 C781 1.373 . S
C780 C782 1.389 . S
C781 H760 0.950 . S
C781 C780 1.373 . S
C781 C797 1.377 . S
C782 C780 1.389 . S
C782 C783 1.524 . S
C782 C796 1.377 . S
C783 C782 1.524 . S
C783 C784 1.397 . S
C783 C788 1.363 . S
C784 H761 0.950 . S
C784 C783 1.397 . S
C784 C785 1.334 . S
C785 H762 0.950 . S
C785 C784 1.334 . S
C785 C786 1.287 . S
C786 C785 1.287 . S
C786 C787 1.524 . S
C786 H805 0.913 . S
C787 H763 0.950 . S
C787 C786 1.524 . S
C787 C788 1.415 . S
C788 H764 0.950 . S
C788 C783 1.363 . S
C788 C787 1.415 . S
C789 H765 0.951 . S
C789 C790 1.366 . S
C789 C791 1.388 . S
C790 C789 1.366 . S
C790 C794 1.385 . S
C791 H766 0.951 . S
C791 C789 1.388 . S
C791 C792 1.366 . S
C792 C791 1.366 . S
C792 C793 1.414 . S
C792 C795 1.499 . S
C793 H767 0.950 . S
C793 C792 1.414 . S
C793 C794 1.374 . S
C794 H768 0.950 . S
C794 C790 1.385 . S
C794 C793 1.374 . S
C795 C792 1.499 . S
C795 C796 1.373 . S
C795 C797 1.389 . S
C796 H769 0.950 . S
C796 C782 1.377 . S
C796 C795 1.373 . S
C797 C781 1.377 . S
C797 C795 1.389 . S
C797 C798 1.524 . S
C798 C797 1.524 . S
C798 C799 1.397 . S
C798 C803 1.363 . S
C799 H770 0.950 . S
C799 C798 1.397 . S
C799 C800 1.334 . S
C800 H771 0.950 . S
C800 C799 1.334 . S
C800 C801 1.287 . S
C801 C800 1.287 . S
C801 C802 1.524 . S
C801 H804 0.999 . S
C802 H772 0.950 . S
C802 C801 1.524 . S
C802 C803 1.415 . S
C803 H773 0.950 . S
C803 C798 1.363 . S
C803 C802 1.415 . S
H804 C801 0.999 . S
H805 C786 0.913 . S
H806 C824 0.951 1_556 S
H807 C826 0.951 . S
H808 C828 0.950 . S
H809 C829 0.950 . S
H810 C831 0.950 . S
H811 C834 0.950 . S
H812 C835 0.950 . S
H813 C837 0.950 . S
H814 C838 0.950 . S
H815 C839 0.951 . S
H816 C841 0.951 . S
H817 C843 0.950 . S
H818 C844 0.950 . S
H819 C846 0.950 . S
H820 C849 0.950 . S
H821 C850 0.950 . S
H822 C852 0.950 . S
H823 C853 0.950 . S
C824 H806 0.951 1_554 S
C824 C825 1.366 . S
C824 C826 1.388 . S
C825 C824 1.366 . S
C825 C829 1.385 . S
C826 H807 0.951 . S
C826 C824 1.388 . S
C826 C827 1.366 . S
C827 C826 1.366 . S
C827 C828 1.414 . S
C827 C830 1.499 . S
C828 H808 0.950 . S
C828 C827 1.414 . S
C828 C829 1.374 . S
C829 H809 0.950 . S
C829 C825 1.385 . S
C829 C828 1.374 . S
C830 C827 1.499 . S
C830 C831 1.373 . S
C830 C832 1.389 . S
C831 H810 0.950 . S
C831 C830 1.373 . S
C831 C847 1.377 . S
C832 C830 1.389 . S
C832 C833 1.524 . S
C832 C846 1.377 . S
C833 C832 1.524 . S
C833 C834 1.397 . S
C833 C838 1.363 . S
C834 H811 0.950 . S
C834 C833 1.397 . S
C834 C835 1.334 . S
C835 H812 0.950 . S
C835 C834 1.334 . S
C835 C836 1.287 . S
C836 C835 1.287 . S
C836 C837 1.524 . S
C836 H855 0.913 . S
C837 H813 0.950 . S
C837 C836 1.524 . S
C837 C838 1.415 . S
C838 H814 0.950 . S
C838 C833 1.363 . S
C838 C837 1.415 . S
C839 H815 0.951 . S
C839 C840 1.366 . S
C839 C841 1.388 . S
C840 C839 1.366 . S
C840 C844 1.385 . S
C841 H816 0.951 . S
C841 C839 1.388 . S
C841 C842 1.366 . S
C842 C841 1.366 . S
C842 C843 1.414 . S
C842 C845 1.499 . S
C843 H817 0.950 . S
C843 C842 1.414 . S
C843 C844 1.374 . S
C844 H818 0.950 . S
C844 C840 1.385 . S
C844 C843 1.374 . S
C845 C842 1.499 . S
C845 C846 1.373 . S
C845 C847 1.389 . S
C846 H819 0.950 . S
C846 C832 1.377 . S
C846 C845 1.373 . S
C847 C831 1.377 . S
C847 C845 1.389 . S
C847 C848 1.524 . S
C848 C847 1.524 . S
C848 C849 1.397 . S
C848 C853 1.363 . S
C849 H820 0.950 . S
C849 C848 1.397 . S
C849 C850 1.334 . S
C850 H821 0.950 . S
C850 C849 1.334 . S
C850 C851 1.287 . S
C851 C850 1.287 . S
C851 C852 1.524 . S
C851 H854 0.999 . S
C852 H822 0.950 . S
C852 C851 1.524 . S
C852 C853 1.415 . S
C853 H823 0.950 . S
C853 C848 1.363 . S
C853 C852 1.415 . S
H854 C851 0.999 . S
H855 C836 0.913 . S
H856 C874 0.952 . S
H857 C876 0.951 . S
H858 C878 0.950 . S
H859 C879 0.950 . S
H860 C881 0.950 . S
H861 C884 0.950 . S
H862 C885 0.950 . S
H863 C887 0.950 . S
H864 C888 0.950 . S
H865 C889 0.951 . S
H866 C891 0.951 . S
H867 C893 0.950 . S
H868 C894 0.950 . S
H869 C896 0.950 . S
H870 C899 0.950 . S
H871 C900 0.950 . S
H872 C902 0.950 . S
H873 C903 0.950 . S
C874 H856 0.952 . S
C874 C875 1.366 . S
C874 C876 1.388 1_655 S
C875 C874 1.366 . S
C875 C879 1.385 . S
C876 H857 0.951 . S
C876 C874 1.388 1_455 S
C876 C877 1.366 1_455 S
C877 C876 1.366 1_655 S
C877 C878 1.414 . S
C877 C880 1.499 1_655 S
C878 H858 0.950 . S
C878 C877 1.414 . S
C878 C879 1.374 . S
C879 H859 0.950 . S
C879 C875 1.385 . S
C879 C878 1.374 . S
C880 C877 1.499 1_455 S
C880 C881 1.373 1_455 S
C880 C882 1.389 . S
C881 H860 0.950 . S
C881 C880 1.373 1_655 S
C881 C897 1.377 . S
C882 C880 1.389 . S
C882 C883 1.524 . S
C882 C896 1.377 . S
C883 C882 1.524 . S
C883 C884 1.397 . S
C883 C888 1.363 . S
C884 H861 0.950 . S
C884 C883 1.397 . S
C884 C885 1.334 . S
C885 H862 0.950 . S
C885 C884 1.334 . S
C885 C886 1.287 . S
C886 C885 1.287 . S
C886 C887 1.524 . S
C886 H905 0.913 . S
C887 H863 0.950 . S
C887 C886 1.524 . S
C887 C888 1.415 . S
C888 H864 0.950 . S
C888 C883 1.363 . S
C888 C887 1.415 . S
C889 H865 0.951 . S
C889 C890 1.366 1_554 S
C889 C891 1.388 . S
C890 C889 1.366 1_556 S
C890 C894 1.385 . S
C891 H866 0.951 . S
C891 C889 1.388 . S
C891 C892 1.366 . S
C892 C891 1.366 . S
C892 C893 1.414 1_554 S
C892 C895 1.499 . S
C893 H867 0.950 . S
C893 C892 1.414 1_556 S
C893 C894 1.374 . S
C894 H868 0.950 . S
C894 C890 1.385 . S
C894 C893 1.374 . S
C895 C892 1.499 . S
C895 C896 1.373 . S
C895 C897 1.389 1_455 S
C896 H869 0.950 . S
C896 C882 1.377 . S
C896 C895 1.373 . S
C897 C881 1.377 . S
C897 C895 1.389 1_655 S
C897 C898 1.524 . S
C898 C897 1.524 . S
C898 C899 1.397 . S
C898 C903 1.363 . S
C899 H870 0.950 . S
C899 C898 1.397 . S
C899 C900 1.334 . S
C900 H871 0.950 . S
C900 C899 1.334 . S
C900 C901 1.287 . S
C901 C900 1.287 . S
C901 C902 1.524 . S
C901 H904 0.999 . S
C902 H872 0.950 . S
C902 C901 1.524 . S
C902 C903 1.415 . S
C903 H873 0.950 . S
C903 C898 1.363 . S
C903 C902 1.415 . S
H904 C901 0.999 . S
H905 C886 0.913 . S
H906 C924 0.951 . S
H907 C926 0.951 . S
H908 C928 0.950 . S
H909 C929 0.950 . S
H910 C931 0.950 . S
H911 C934 0.950 . S
H912 C935 0.950 . S
H913 C937 0.950 . S
H914 C938 0.950 . S
H915 C939 0.951 . S
H916 C941 0.951 . S
H917 C943 0.950 . S
H918 C944 0.950 . S
H919 C946 0.950 . S
H920 C949 0.950 . S
H921 C950 0.950 . S
H922 C952 0.950 . S
H923 C953 0.950 . S
C924 H906 0.951 . S
C924 C925 1.366 . S
C924 C926 1.388 . S
C925 C924 1.366 . S
C925 C929 1.385 1_565 S
C926 H907 0.951 . S
C926 C924 1.388 . S
C926 C927 1.366 1_565 S
C927 C926 1.366 1_545 S
C927 C928 1.414 . S
C927 C930 1.499 . S
C928 H908 0.950 . S
C928 C927 1.414 . S
C928 C929 1.374 . S
C929 H909 0.950 . S
C929 C925 1.385 1_545 S
C929 C928 1.374 . S
C930 C927 1.499 . S
C930 C931 1.373 . S
C930 C932 1.389 1_545 S
C931 H910 0.950 . S
C931 C930 1.373 . S
C931 C947 1.377 . S
C932 C930 1.389 1_565 S
C932 C933 1.524 . S
C932 C946 1.377 . S
C933 C932 1.524 . S
C933 C934 1.397 . S
C933 C938 1.363 . S
C934 H911 0.950 . S
C934 C933 1.397 . S
C934 C935 1.334 . S
C935 H912 0.950 . S
C935 C934 1.334 . S
C935 C936 1.287 . S
C936 C935 1.287 . S
C936 C937 1.524 . S
C936 H955 0.913 . S
C937 H913 0.950 . S
C937 C936 1.524 . S
C937 C938 1.415 . S
C938 H914 0.950 . S
C938 C933 1.363 . S
C938 C937 1.415 . S
C939 H915 0.951 . S
C939 C940 1.366 . S
C939 C941 1.388 . S
C940 C939 1.366 . S
C940 C944 1.385 1_556 S
C941 H916 0.951 . S
C941 C939 1.388 . S
C941 C942 1.366 1_556 S
C942 C941 1.366 1_554 S
C942 C943 1.414 . S
C942 C945 1.499 . S
C943 H917 0.950 . S
C943 C942 1.414 . S
C943 C944 1.374 . S
C944 H918 0.950 . S
C944 C940 1.385 1_554 S
C944 C943 1.374 . S
C945 C942 1.499 . S
C945 C946 1.373 1_545 S
C945 C947 1.389 . S
C946 H919 0.950 . S
C946 C932 1.377 . S
C946 C945 1.373 1_565 S
C947 C931 1.377 . S
C947 C945 1.389 . S
C947 C948 1.524 . S
C948 C947 1.524 . S
C948 C949 1.397 . S
C948 C953 1.363 1_554 S
C949 H920 0.950 . S
C949 C948 1.397 . S
C949 C950 1.334 . S
C950 H921 0.950 . S
C950 C949 1.334 . S
C950 C951 1.287 . S
C951 C950 1.287 . S
C951 C952 1.524 1_554 S
C951 H954 0.999 1_554 S
C952 H922 0.950 . S
C952 C951 1.524 1_556 S
C952 C953 1.415 . S
C953 H923 0.950 . S
C953 C948 1.363 1_556 S
C953 C952 1.415 . S
H954 C951 0.999 1_556 S
H955 C936 0.913 . S
H956 C974 0.951 . S
H957 C976 0.951 1_556 S
H958 C978 0.950 . S
H959 C979 0.950 . S
H960 C981 0.950 . S
H961 C984 0.950 . S
H962 C985 0.950 . S
H963 C987 0.950 . S
H964 C988 0.950 . S
H965 C989 0.951 . S
H966 C991 0.951 . S
H967 C993 0.950 . S
H968 C994 0.950 . S
H969 C996 0.950 . S
H970 C999 0.950 . S
H971 C1000 0.950 . S
H972 C1002 0.950 . S
H973 C1003 0.950 . S
C974 H956 0.951 . S
C974 C975 1.366 . S
C974 C976 1.388 . S
C975 C974 1.366 . S
C975 C979 1.385 . S
C976 H957 0.951 1_554 S
C976 C974 1.388 . S
C976 C977 1.366 . S
C977 C976 1.366 . S
C977 C978 1.414 . S
C977 C980 1.499 1_554 S
C978 H958 0.950 . S
C978 C977 1.414 . S
C978 C979 1.374 . S
C979 H959 0.950 . S
C979 C975 1.385 . S
C979 C978 1.374 . S
C980 C977 1.499 1_556 S
C980 C981 1.373 . S
C980 C982 1.389 . S
C981 H960 0.950 . S
C981 C980 1.373 . S
C981 C997 1.377 . S
C982 C980 1.389 . S
C982 C983 1.524 1_556 S
C982 C996 1.377 . S
C983 C982 1.524 1_554 S
C983 C984 1.397 . S
C983 C988 1.363 . S
C984 H961 0.950 . S
C984 C983 1.397 . S
C984 C985 1.334 . S
C985 H962 0.950 . S
C985 C984 1.334 . S
C985 C986 1.287 . S
C986 C985 1.287 . S
C986 C987 1.524 . S
C986 H1005 0.913 . S
C987 H963 0.950 . S
C987 C986 1.524 . S
C987 C988 1.415 . S
C988 H964 0.950 . S
C988 C983 1.363 . S
C988 C987 1.415 . S
C989 H965 0.951 . S
C989 C990 1.366 . S
C989 C991 1.388 . S
C990 C989 1.366 . S
C990 C994 1.385 . S
C991 H966 0.951 . S
C991 C989 1.388 . S
C991 C992 1.366 . S
C992 C991 1.366 . S
C992 C993 1.414 . S
C992 C995 1.499 . S
C993 H967 0.950 . S
C993 C992 1.414 . S
C993 C994 1.374 . S
C994 H968 0.950 . S
C994 C990 1.385 . S
C994 C993 1.374 . S
C995 C992 1.499 . S
C995 C996 1.373 . S
C995 C997 1.389 . S
C996 H969 0.950 . S
C996 C982 1.377 . S
C996 C995 1.373 . S
C997 C981 1.377 . S
C997 C995 1.389 . S
C997 C998 1.524 . S
C998 C997 1.524 . S
C998 C999 1.397 . S
C998 C1003 1.363 . S
C999 H970 0.950 . S
C999 C998 1.397 . S
C999 C1000 1.334 . S
C1000 H971 0.950 . S
C1000 C999 1.334 . S
C1000 C1001 1.287 . S
C1001 C1000 1.287 . S
C1001 C1002 1.524 . S
C1001 H1004 0.999 . S
C1002 H972 0.950 . S
C1002 C1001 1.524 . S
C1002 C1003 1.415 . S
C1003 H973 0.950 . S
C1003 C998 1.363 . S
C1003 C1002 1.415 . S
H1004 C1001 0.999 . S
H1005 C986 0.913 . S
H1006 C1024 0.951 . S
H1007 C1026 0.951 . S
H1008 C1028 0.950 . S
H1009 C1029 0.950 . S
H1010 C1031 0.950 . S
H1011 C1034 0.950 . S
H1012 C1035 0.950 . S
H1013 C1037 0.950 . S
H1014 C1038 0.950 . S
H1015 C1039 0.951 . S
H1016 C1041 0.951 . S
H1017 C1043 0.950 . S
H1018 C1044 0.950 1_556 S
H1019 C1046 0.950 . S
H1020 C1049 0.950 . S
H1021 C1050 0.950 . S
H1022 C1052 0.950 . S
H1023 C1053 0.950 . S
C1024 H1006 0.951 . S
C1024 C1025 1.366 . S
C1024 C1026 1.388 . S
C1025 C1024 1.366 . S
C1025 C1029 1.385 . S
C1026 H1007 0.951 . S
C1026 C1024 1.388 . S
C1026 C1027 1.366 . S
C1027 C1026 1.366 . S
C1027 C1028 1.414 . S
C1027 C1030 1.499 . S
C1028 H1008 0.950 . S
C1028 C1027 1.414 . S
C1028 C1029 1.374 . S
C1029 H1009 0.950 . S
C1029 C1025 1.385 . S
C1029 C1028 1.374 . S
C1030 C1027 1.499 . S
C1030 C1031 1.373 . S
C1030 C1032 1.389 . S
C1031 H1010 0.950 . S
C1031 C1030 1.373 . S
C1031 C1047 1.377 . S
C1032 C1030 1.389 . S
C1032 C1033 1.524 . S
C1032 C1046 1.377 . S
C1033 C1032 1.524 . S
C1033 C1034 1.397 . S
C1033 C1038 1.363 . S
C1034 H1011 0.950 . S
C1034 C1033 1.397 . S
C1034 C1035 1.334 . S
C1035 H1012 0.950 . S
C1035 C1034 1.334 . S
C1035 C1036 1.287 . S
C1036 C1035 1.287 . S
C1036 C1037 1.524 . S
C1036 H1055 0.913 . S
C1037 H1013 0.950 . S
C1037 C1036 1.524 . S
C1037 C1038 1.415 . S
C1038 H1014 0.950 . S
C1038 C1033 1.363 . S
C1038 C1037 1.415 . S
C1039 H1015 0.951 . S
C1039 C1040 1.366 . S
C1039 C1041 1.388 . S
C1040 C1039 1.366 . S
C1040 C1044 1.385 . S
C1041 H1016 0.951 . S
C1041 C1039 1.388 . S
C1041 C1042 1.366 . S
C1042 C1041 1.366 . S
C1042 C1043 1.414 . S
C1042 C1045 1.499 . S
C1043 H1017 0.950 . S
C1043 C1042 1.414 . S
C1043 C1044 1.374 . S
C1044 H1018 0.950 1_554 S
C1044 C1040 1.385 . S
C1044 C1043 1.374 . S
C1045 C1042 1.499 . S
C1045 C1046 1.373 . S
C1045 C1047 1.389 . S
C1046 H1019 0.950 . S
C1046 C1032 1.377 . S
C1046 C1045 1.373 . S
C1047 C1031 1.377 . S
C1047 C1045 1.389 . S
C1047 C1048 1.524 . S
C1048 C1047 1.524 . S
C1048 C1049 1.397 . S
C1048 C1053 1.363 . S
C1049 H1020 0.950 . S
C1049 C1048 1.397 . S
C1049 C1050 1.334 . S
C1050 H1021 0.950 . S
C1050 C1049 1.334 . S
C1050 C1051 1.287 . S
C1051 C1050 1.287 . S
C1051 C1052 1.524 . S
C1051 H1054 0.999 . S
C1052 H1022 0.950 . S
C1052 C1051 1.524 . S
C1052 C1053 1.415 . S
C1053 H1023 0.950 . S
C1053 C1048 1.363 . S
C1053 C1052 1.415 . S
H1054 C1051 0.999 . S
H1055 C1036 0.913 . S
H1056 C1074 0.951 . S
H1057 C1076 0.951 . S
H1058 C1078 0.903 1_655 S
H1059 C1079 0.959 . S
H1060 C1081 0.950 1_655 S
H1061 C1084 0.950 . S
H1062 C1085 0.950 . S
H1063 C1087 0.950 . S
H1064 C1088 0.950 . S
H1065 C1089 0.951 1_655 S
H1066 C1091 0.951 1_655 S
H1067 C1093 0.950 . S
H1068 C1094 0.950 . S
H1069 C1096 0.950 . S
H1070 C1099 0.950 . S
H1071 C1100 0.950 1_554 S
H1072 C1102 0.950 . S
H1073 C1103 0.950 . S
C1074 H1056 0.951 . S
C1074 C1075 1.366 1_554 S
C1074 C1076 1.388 1_554 S
C1075 C1074 1.366 1_556 S
C1075 C1079 1.385 . S
C1076 H1057 0.951 . S
C1076 C1074 1.388 1_556 S
C1076 C1077 1.366 . S
C1077 C1076 1.366 . S
C1077 C1078 1.414 . S
C1077 C1080 1.499 . S
C1078 H1058 0.903 1_455 S
C1078 C1077 1.414 . S
C1078 C1079 1.374 . S
C1079 H1059 0.959 . S
C1079 C1075 1.385 . S
C1079 C1078 1.374 . S
C1080 C1077 1.499 . S
C1080 C1081 1.373 . S
C1080 C1082 1.389 . S
C1081 H1060 0.950 1_455 S
C1081 C1080 1.373 . S
C1081 C1097 1.377 . S
C1082 C1080 1.389 . S
C1082 C1083 1.524 . S
C1082 C1096 1.377 . S
C1083 C1082 1.524 . S
C1083 C1084 1.397 . S
C1083 C1088 1.363 . S
C1084 H1061 0.950 . S
C1084 C1083 1.397 . S
C1084 C1085 1.334 . S
C1085 H1062 0.950 . S
C1085 C1084 1.334 . S
C1085 C1086 1.287 . S
C1086 C1085 1.287 . S
C1086 C1087 1.524 . S
C1086 H1105 0.913 . S
C1087 H1063 0.950 . S
C1087 C1086 1.524 . S
C1087 C1088 1.415 . S
C1088 H1064 0.950 . S
C1088 C1083 1.363 . S
C1088 C1087 1.415 . S
C1089 H1065 0.951 1_455 S
C1089 C1090 1.366 . S
C1089 C1091 1.388 . S
C1090 C1089 1.366 . S
C1090 C1094 1.385 . S
C1091 H1066 0.951 1_455 S
C1091 C1089 1.388 . S
C1091 C1092 1.366 . S
C1092 C1091 1.366 . S
C1092 C1093 1.414 . S
C1092 C1095 1.499 . S
C1093 H1067 0.950 . S
C1093 C1092 1.414 . S
C1093 C1094 1.374 . S
C1094 H1068 0.950 . S
C1094 C1090 1.385 . S
C1094 C1093 1.374 . S
C1095 C1092 1.499 . S
C1095 C1096 1.373 . S
C1095 C1097 1.389 . S
C1096 H1069 0.950 . S
C1096 C1082 1.377 . S
C1096 C1095 1.373 . S
C1097 C1081 1.377 . S
C1097 C1095 1.389 . S
C1097 C1098 1.524 1_455 S
C1098 C1097 1.524 1_655 S
C1098 C1099 1.397 . S
C1098 C1103 1.363 . S
C1099 H1070 0.950 . S
C1099 C1098 1.397 . S
C1099 C1100 1.334 . S
C1100 H1071 0.950 1_556 S
C1100 C1099 1.334 . S
C1100 C1101 1.287 . S
C1101 C1100 1.287 . S
C1101 C1102 1.524 . S
C1101 H1104 0.999 . S
C1102 H1072 0.950 . S
C1102 C1101 1.524 . S
C1102 C1103 1.415 . S
C1103 H1073 0.950 . S
C1103 C1098 1.363 . S
C1103 C1102 1.415 . S
H1104 C1101 0.999 . S
H1105 C1086 0.913 . S
H1106 C1124 0.951 . S
H1107 C1126 0.951 . S
H1108 C1128 0.950 . S
H1109 C1129 0.950 . S
H1110 C1131 0.952 1_565 S
H1111 C1134 0.950 . S
H1112 C1135 0.992 . S
H1113 C1137 0.950 . S
H1114 C1138 0.950 . S
H1115 C1139 0.951 . S
H1116 C1141 0.951 . S
H1117 C1143 0.950 . S
H1118 C1144 0.950 . S
H1119 C1146 0.950 . S
H1120 C1149 0.950 . S
H1121 C1150 0.950 . S
H1122 C1152 0.950 . S
H1123 C1153 0.950 . S
C1124 H1106 0.951 . S
C1124 C1125 1.366 . S
C1124 C1126 1.388 1_554 S
C1125 C1124 1.366 . S
C1125 C1129 1.385 1_545 S
C1126 H1107 0.951 . S
C1126 C1124 1.388 1_556 S
C1126 C1127 1.366 1_556 S
C1127 C1126 1.366 1_554 S
C1127 C1128 1.414 1_545 S
C1127 C1130 1.499 1_554 S
C1128 H1108 0.950 . S
C1128 C1127 1.414 1_565 S
C1128 C1129 1.374 . S
C1129 H1109 0.950 . S
C1129 C1125 1.385 1_565 S
C1129 C1128 1.374 . S
C1130 C1127 1.499 1_556 S
C1130 C1131 1.373 1_556 S
C1130 C1132 1.389 . S
C1131 H1110 0.952 1_545 S
C1131 C1130 1.373 1_554 S
C1131 C1147 1.377 1_554 S
C1132 C1130 1.389 . S
C1132 C1133 1.524 . S
C1132 C1146 1.377 . S
C1133 C1132 1.524 . S
C1133 C1134 1.397 1_545 S
C1133 C1138 1.363 . S
C1134 H1111 0.950 . S
C1134 C1133 1.397 1_565 S
C1134 C1135 1.335 . S
C1135 H1112 0.992 . S
C1135 C1134 1.335 . S
C1135 C1136 1.245 1_565 S
C1136 C1135 1.245 1_545 S
C1136 C1137 1.524 . S
C1136 H1155 0.913 . S
C1137 H1113 0.950 . S
C1137 C1136 1.524 . S
C1137 C1138 1.415 . S
C1138 H1114 0.950 . S
C1138 C1133 1.363 . S
C1138 C1137 1.415 . S
C1139 H1115 0.951 . S
C1139 C1140 1.366 1_565 S
C1139 C1141 1.388 . S
C1140 C1139 1.366 1_545 S
C1140 C1144 1.385 . S
C1141 H1116 0.951 . S
C1141 C1139 1.388 . S
C1141 C1142 1.366 1_565 S
C1142 C1141 1.366 1_545 S
C1142 C1143 1.414 . S
C1142 C1145 1.499 . S
C1143 H1117 0.950 . S
C1143 C1142 1.414 . S
C1143 C1144 1.374 . S
C1144 H1118 0.950 . S
C1144 C1140 1.385 . S
C1144 C1143 1.374 . S
C1145 C1142 1.499 . S
C1145 C1146 1.373 . S
C1145 C1147 1.389 . S
C1146 H1119 0.950 . S
C1146 C1132 1.377 . S
C1146 C1145 1.373 . S
C1147 C1131 1.377 1_556 S
C1147 C1145 1.389 . S
C1147 C1148 1.524 1_556 S
C1148 C1147 1.524 1_554 S
C1148 C1149 1.397 . S
C1148 C1153 1.363 1_545 S
C1149 H1120 0.950 . S
C1149 C1148 1.397 . S
C1149 C1150 1.334 . S
C1150 H1121 0.950 . S
C1150 C1149 1.334 . S
C1150 C1151 1.287 . S
C1151 C1150 1.287 . S
C1151 C1152 1.524 1_545 S
C1151 H1154 0.999 . S
C1152 H1122 0.950 . S
C1152 C1151 1.524 1_565 S
C1152 C1153 1.415 . S
C1153 H1123 0.950 . S
C1153 C1148 1.363 1_565 S
C1153 C1152 1.415 . S
H1154 C1151 0.999 . S
H1155 C1136 0.913 . S
H1156 C1174 0.951 . S
H1157 C1176 0.951 . S
H1158 C1178 0.950 . S
H1159 C1179 0.950 . S
H1160 C1181 0.950 . S
H1161 C1184 0.950 . S
H1162 C1185 0.950 . S
H1163 C1187 0.950 . S
H1164 C1188 0.950 . S
H1165 C1189 0.951 . S
H1166 C1191 0.951 1_554 S
H1167 C1193 0.950 . S
H1168 C1194 0.950 . S
H1169 C1196 0.950 . S
H1170 C1199 0.950 1_556 S
H1171 C1200 0.950 1_556 S
H1172 C1202 0.950 . S
H1173 C1203 0.950 . S
C1174 H1156 0.951 . S
C1174 C1175 1.366 . S
C1174 C1176 1.388 . S
C1175 C1174 1.366 . S
C1175 C1179 1.385 . S
C1176 H1157 0.951 . S
C1176 C1174 1.388 . S
C1176 C1177 1.366 . S
C1177 C1176 1.366 . S
C1177 C1178 1.414 . S
C1177 C1180 1.499 . S
C1178 H1158 0.950 . S
C1178 C1177 1.414 . S
C1178 C1179 1.374 . S
C1179 H1159 0.950 . S
C1179 C1175 1.385 . S
C1179 C1178 1.374 . S
C1180 C1177 1.499 . S
C1180 C1181 1.373 . S
C1180 C1182 1.389 . S
C1181 H1160 0.950 . S
C1181 C1180 1.373 . S
C1181 C1197 1.377 . S
C1182 C1180 1.389 . S
C1182 C1183 1.524 . S
C1182 C1196 1.377 1_554 S
C1183 C1182 1.524 . S
C1183 C1184 1.397 . S
C1183 C1188 1.363 1_554 S
C1184 H1161 0.950 . S
C1184 C1183 1.397 . S
C1184 C1185 1.334 . S
C1185 H1162 0.950 . S
C1185 C1184 1.334 . S
C1185 C1186 1.287 . S
C1186 C1185 1.287 . S
C1186 C1187 1.524 1_554 S
C1186 H1205 0.913 . S
C1187 H1163 0.950 . S
C1187 C1186 1.524 1_556 S
C1187 C1188 1.415 . S
C1188 H1164 0.950 . S
C1188 C1183 1.363 1_556 S
C1188 C1187 1.415 . S
C1189 H1165 0.951 . S
C1189 C1190 1.366 . S
C1189 C1191 1.388 . S
C1190 C1189 1.366 . S
C1190 C1194 1.385 . S
C1191 H1166 0.951 1_556 S
C1191 C1189 1.388 . S
C1191 C1192 1.366 . S
C1192 C1191 1.366 . S
C1192 C1193 1.414 . S
C1192 C1195 1.499 1_556 S
C1193 H1167 0.950 . S
C1193 C1192 1.414 . S
C1193 C1194 1.374 . S
C1194 H1168 0.950 . S
C1194 C1190 1.385 . S
C1194 C1193 1.374 . S
C1195 C1192 1.499 1_554 S
C1195 C1196 1.373 1_554 S
C1195 C1197 1.389 . S
C1196 H1169 0.950 . S
C1196 C1182 1.377 1_556 S
C1196 C1195 1.373 1_556 S
C1197 C1181 1.377 . S
C1197 C1195 1.389 . S
C1197 C1198 1.524 . S
C1198 C1197 1.524 . S
C1198 C1199 1.397 . S
C1198 C1203 1.363 . S
C1199 H1170 0.950 1_554 S
C1199 C1198 1.397 . S
C1199 C1200 1.334 . S
C1200 H1171 0.950 1_554 S
C1200 C1199 1.334 . S
C1200 C1201 1.287 . S
C1201 C1200 1.287 . S
C1201 C1202 1.524 . S
C1201 H1204 0.999 . S
C1202 H1172 0.950 . S
C1202 C1201 1.524 . S
C1202 C1203 1.415 . S
C1203 H1173 0.950 . S
C1203 C1198 1.363 . S
C1203 C1202 1.415 . S
H1204 C1201 0.999 . S
H1205 C1186 0.913 . S
H1206 C1224 0.951 . S
H1207 C1226 0.951 . S
H1208 C1228 0.950 . S
H1209 C1229 0.950 . S
H1210 C1231 0.950 . S
H1211 C1234 0.950 . S
H1212 C1235 0.950 . S
H1213 C1237 0.950 . S
H1214 C1238 0.950 . S
H1215 C1239 0.951 . S
H1216 C1241 0.951 . S
H1217 C1243 0.950 . S
H1218 C1244 0.950 . S
H1219 C1246 0.950 . S
H1220 C1249 0.950 . S
H1221 C1250 0.950 . S
H1222 C1252 0.950 . S
H1223 C1253 0.950 . S
C1224 H1206 0.951 . S
C1224 C1225 1.366 . S
C1224 C1226 1.388 . S
C1225 C1224 1.366 . S
C1225 C1229 1.385 . S
C1226 H1207 0.951 . S
C1226 C1224 1.388 . S
C1226 C1227 1.366 . S
C1227 C1226 1.366 . S
C1227 C1228 1.414 . S
C1227 C1230 1.499 . S
C1228 H1208 0.950 . S
C1228 C1227 1.414 . S
C1228 C1229 1.374 . S
C1229 H1209 0.950 . S
C1229 C1225 1.385 . S
C1229 C1228 1.374 . S
C1230 C1227 1.499 . S
C1230 C1231 1.373 . S
C1230 C1232 1.389 . S
C1231 H1210 0.950 . S
C1231 C1230 1.373 . S
C1231 C1247 1.377 . S
C1232 C1230 1.389 . S
C1232 C1233 1.524 . S
C1232 C1246 1.377 . S
C1233 C1232 1.524 . S
C1233 C1234 1.397 . S
C1233 C1238 1.363 . S
C1234 H1211 0.950 . S
C1234 C1233 1.397 . S
C1234 C1235 1.334 . S
C1235 H1212 0.950 . S
C1235 C1234 1.334 . S
C1235 C1236 1.287 . S
C1236 C1235 1.287 . S
C1236 C1237 1.524 . S
C1236 H1255 0.913 . S
C1237 H1213 0.950 . S
C1237 C1236 1.524 . S
C1237 C1238 1.415 . S
C1238 H1214 0.950 . S
C1238 C1233 1.363 . S
C1238 C1237 1.415 . S
C1239 H1215 0.951 . S
C1239 C1240 1.366 . S
C1239 C1241 1.388 . S
C1240 C1239 1.366 . S
C1240 C1244 1.385 . S
C1241 H1216 0.951 . S
C1241 C1239 1.388 . S
C1241 C1242 1.366 . S
C1242 C1241 1.366 . S
C1242 C1243 1.414 . S
C1242 C1245 1.499 . S
C1243 H1217 0.950 . S
C1243 C1242 1.414 . S
C1243 C1244 1.374 . S
C1244 H1218 0.950 . S
C1244 C1240 1.385 . S
C1244 C1243 1.374 . S
C1245 C1242 1.499 . S
C1245 C1246 1.373 . S
C1245 C1247 1.389 . S
C1246 H1219 0.950 . S
C1246 C1232 1.377 . S
C1246 C1245 1.373 . S
C1247 C1231 1.377 . S
C1247 C1245 1.389 . S
C1247 C1248 1.524 . S
C1248 C1247 1.524 . S
C1248 C1249 1.397 . S
C1248 C1253 1.363 . S
C1249 H1220 0.950 . S
C1249 C1248 1.397 . S
C1249 C1250 1.334 . S
C1250 H1221 0.950 . S
C1250 C1249 1.334 . S
C1250 C1251 1.287 . S
C1251 C1250 1.287 . S
C1251 C1252 1.524 . S
C1251 H1254 0.999 . S
C1252 H1222 0.950 . S
C1252 C1251 1.524 . S
C1252 C1253 1.415 . S
C1253 H1223 0.950 . S
C1253 C1248 1.363 . S
C1253 C1252 1.415 . S
H1254 C1251 0.999 . S
H1255 C1236 0.913 . S
H1256 C1274 0.951 . S
H1257 C1276 0.951 . S
H1258 C1278 0.950 . S
H1259 C1279 0.950 . S
H1260 C1281 0.950 . S
H1261 C1284 0.950 . S
H1262 C1285 0.950 . S
H1263 C1287 0.950 . S
H1264 C1288 0.950 . S
H1265 C1289 0.951 . S
H1266 C1291 0.951 . S
H1267 C1293 0.950 . S
H1268 C1294 0.950 . S
H1269 C1296 0.950 . S
H1270 C1299 0.950 . S
H1271 C1300 0.950 . S
H1272 C1302 0.950 . S
H1273 C1303 0.950 . S
C1274 H1256 0.951 . S
C1274 C1275 1.366 . S
C1274 C1276 1.388 . S
C1275 C1274 1.366 . S
C1275 C1279 1.385 1_655 S
C1276 H1257 0.951 . S
C1276 C1274 1.388 . S
C1276 C1277 1.366 . S
C1277 C1276 1.366 . S
C1277 C1278 1.414 1_655 S
C1277 C1280 1.499 . S
C1278 H1258 0.950 . S
C1278 C1277 1.414 1_455 S
C1278 C1279 1.374 . S
C1279 H1259 0.950 . S
C1279 C1275 1.385 1_455 S
C1279 C1278 1.374 . S
C1280 C1277 1.499 . S
C1280 C1281 1.373 1_655 S
C1280 C1282 1.389 . S
C1281 H1260 0.950 . S
C1281 C1280 1.373 1_455 S
C1281 C1297 1.377 . S
C1282 C1280 1.389 . S
C1282 C1283 1.524 . S
C1282 C1296 1.377 . S
C1283 C1282 1.524 . S
C1283 C1284 1.397 . S
C1283 C1288 1.363 . S
C1284 H1261 0.950 . S
C1284 C1283 1.397 . S
C1284 C1285 1.334 . S
C1285 H1262 0.950 . S
C1285 C1284 1.334 . S
C1285 C1286 1.287 . S
C1286 C1285 1.287 . S
C1286 C1287 1.524 . S
C1286 H1305 0.913 . S
C1287 H1263 0.950 . S
C1287 C1286 1.524 . S
C1287 C1288 1.415 . S
C1288 H1264 0.950 . S
C1288 C1283 1.363 . S
C1288 C1287 1.415 . S
C1289 H1265 0.951 . S
C1289 C1290 1.366 1_455 S
C1289 C1291 1.388 . S
C1290 C1289 1.366 1_655 S
C1290 C1294 1.385 . S
C1291 H1266 0.951 . S
C1291 C1289 1.388 . S
C1291 C1292 1.366 1_455 S
C1292 C1291 1.366 1_655 S
C1292 C1293 1.414 . S
C1292 C1295 1.499 . S
C1293 H1267 0.950 . S
C1293 C1292 1.414 . S
C1293 C1294 1.374 . S
C1294 H1268 0.950 . S
C1294 C1290 1.385 . S
C1294 C1293 1.374 . S
C1295 C1292 1.499 . S
C1295 C1296 1.373 . S
C1295 C1297 1.389 1_655 S
C1296 H1269 0.950 . S
C1296 C1282 1.377 . S
C1296 C1295 1.373 . S
C1297 C1281 1.377 . S
C1297 C1295 1.389 1_455 S
C1297 C1298 1.524 . S
C1298 C1297 1.524 . S
C1298 C1299 1.397 . S
C1298 C1303 1.363 . S
C1299 H1270 0.950 . S
C1299 C1298 1.397 . S
C1299 C1300 1.334 . S
C1300 H1271 0.950 . S
C1300 C1299 1.334 . S
C1300 C1301 1.287 . S
C1301 C1300 1.287 . S
C1301 C1302 1.524 . S
C1301 H1304 0.999 . S
C1302 H1272 0.950 . S
C1302 C1301 1.524 . S
C1302 C1303 1.415 . S
C1303 H1273 0.950 . S
C1303 C1298 1.363 . S
C1303 C1302 1.415 . S
H1304 C1301 0.999 . S
H1305 C1286 0.913 . S
H1306 C1324 0.951 . S
H1307 C1326 0.951 . S
H1308 C1328 0.950 . S
H1309 C1329 0.950 . S
H1310 C1331 0.950 . S
H1311 C1334 0.950 . S
H1312 C1335 0.950 . S
H1313 C1337 0.950 . S
H1314 C1338 0.950 . S
H1315 C1339 0.951 . S
H1316 C1341 0.951 . S
H1317 C1343 0.950 . S
H1318 C1344 0.950 . S
H1319 C1346 0.950 . S
H1320 C1349 0.950 . S
H1321 C1350 0.950 . S
H1322 C1352 0.950 . S
H1323 C1353 0.950 . S
C1324 H1306 0.951 . S
C1324 C1325 1.366 . S
C1324 C1326 1.388 . S
C1325 C1324 1.366 . S
C1325 C1329 1.385 1_565 S
C1326 H1307 0.951 . S
C1326 C1324 1.388 . S
C1326 C1327 1.366 . S
C1327 C1326 1.366 . S
C1327 C1328 1.414 1_565 S
C1327 C1330 1.499 . S
C1328 H1308 0.950 . S
C1328 C1327 1.414 1_545 S
C1328 C1329 1.374 . S
C1329 H1309 0.950 . S
C1329 C1325 1.385 1_545 S
C1329 C1328 1.374 . S
C1330 C1327 1.499 . S
C1330 C1331 1.373 1_565 S
C1330 C1332 1.389 . S
C1331 H1310 0.950 . S
C1331 C1330 1.373 1_545 S
C1331 C1347 1.377 . S
C1332 C1330 1.389 . S
C1332 C1333 1.524 . S
C1332 C1346 1.377 . S
C1333 C1332 1.524 . S
C1333 C1334 1.397 . S
C1333 C1338 1.363 . S
C1334 H1311 0.950 . S
C1334 C1333 1.397 . S
C1334 C1335 1.334 . S
C1335 H1312 0.950 . S
C1335 C1334 1.334 . S
C1335 C1336 1.287 . S
C1336 C1335 1.287 . S
C1336 C1337 1.524 . S
C1336 H1355 0.913 . S
C1337 H1313 0.950 . S
C1337 C1336 1.524 . S
C1337 C1338 1.415 . S
C1338 H1314 0.950 . S
C1338 C1333 1.363 . S
C1338 C1337 1.415 . S
C1339 H1315 0.951 . S
C1339 C1340 1.366 1_545 S
C1339 C1341 1.388 . S
C1340 C1339 1.366 1_565 S
C1340 C1344 1.385 . S
C1341 H1316 0.951 . S
C1341 C1339 1.388 . S
C1341 C1342 1.366 1_545 S
C1342 C1341 1.366 1_565 S
C1342 C1343 1.414 . S
C1342 C1345 1.499 . S
C1343 H1317 0.950 . S
C1343 C1342 1.414 . S
C1343 C1344 1.374 . S
C1344 H1318 0.950 . S
C1344 C1340 1.385 . S
C1344 C1343 1.374 . S
C1345 C1342 1.499 . S
C1345 C1346 1.373 . S
C1345 C1347 1.389 1_565 S
C1346 H1319 0.950 . S
C1346 C1332 1.377 . S
C1346 C1345 1.373 . S
C1347 C1331 1.377 . S
C1347 C1345 1.389 1_545 S
C1347 C1348 1.524 . S
C1348 C1347 1.524 . S
C1348 C1349 1.397 . S
C1348 C1353 1.363 . S
C1349 H1320 0.950 . S
C1349 C1348 1.397 . S
C1349 C1350 1.334 . S
C1350 H1321 0.950 . S
C1350 C1349 1.334 . S
C1350 C1351 1.287 . S
C1351 C1350 1.287 . S
C1351 C1352 1.524 . S
C1351 H1354 0.999 . S
C1352 H1322 0.950 . S
C1352 C1351 1.524 . S
C1352 C1353 1.415 . S
C1353 H1323 0.950 . S
C1353 C1348 1.363 . S
C1353 C1352 1.415 . S
H1354 C1351 0.999 . S
H1355 C1336 0.913 . S
H1356 C1374 0.951 . S
H1357 C1376 0.951 . S
H1358 C1378 0.950 . S
H1359 C1379 0.950 . S
H1360 C1381 0.950 . S
H1361 C1384 0.950 . S
H1362 C1385 0.950 . S
H1363 C1387 0.950 . S
H1364 C1388 0.950 . S
H1365 C1389 0.951 . S
H1366 C1391 0.951 . S
H1367 C1393 0.950 . S
H1368 C1394 0.950 . S
H1369 C1396 0.950 . S
H1370 C1399 0.950 . S
H1371 C1400 0.950 . S
H1372 C1402 0.950 . S
H1373 C1403 0.950 . S
C1374 H1356 0.951 . S
C1374 C1375 1.366 . S
C1374 C1376 1.388 . S
C1375 C1374 1.366 . S
C1375 C1379 1.385 . S
C1376 H1357 0.951 . S
C1376 C1374 1.388 . S
C1376 C1377 1.366 . S
C1377 C1376 1.366 . S
C1377 C1378 1.414 . S
C1377 C1380 1.499 . S
C1378 H1358 0.950 . S
C1378 C1377 1.414 . S
C1378 C1379 1.374 . S
C1379 H1359 0.950 . S
C1379 C1375 1.385 . S
C1379 C1378 1.374 . S
C1380 C1377 1.499 . S
C1380 C1381 1.373 . S
C1380 C1382 1.389 . S
C1381 H1360 0.950 . S
C1381 C1380 1.373 . S
C1381 C1397 1.377 . S
C1382 C1380 1.389 . S
C1382 C1383 1.524 . S
C1382 C1396 1.377 . S
C1383 C1382 1.524 . S
C1383 C1384 1.397 . S
C1383 C1388 1.363 . S
C1384 H1361 0.950 . S
C1384 C1383 1.397 . S
C1384 C1385 1.334 . S
C1385 H1362 0.950 . S
C1385 C1384 1.334 . S
C1385 C1386 1.287 . S
C1386 C1385 1.287 . S
C1386 C1387 1.524 . S
C1386 H1405 0.913 . S
C1387 H1363 0.950 . S
C1387 C1386 1.524 . S
C1387 C1388 1.415 . S
C1388 H1364 0.950 . S
C1388 C1383 1.363 . S
C1388 C1387 1.415 . S
C1389 H1365 0.951 . S
C1389 C1390 1.366 . S
C1389 C1391 1.388 . S
C1390 C1389 1.366 . S
C1390 C1394 1.385 . S
C1391 H1366 0.951 . S
C1391 C1389 1.388 . S
C1391 C1392 1.366 . S
C1392 C1391 1.366 . S
C1392 C1393 1.414 . S
C1392 C1395 1.499 . S
C1393 H1367 0.950 . S
C1393 C1392 1.414 . S
C1393 C1394 1.374 . S
C1394 H1368 0.950 . S
C1394 C1390 1.385 . S
C1394 C1393 1.374 . S
C1395 C1392 1.499 . S
C1395 C1396 1.373 . S
C1395 C1397 1.389 . S
C1396 H1369 0.950 . S
C1396 C1382 1.377 . S
C1396 C1395 1.373 . S
C1397 C1381 1.377 . S
C1397 C1395 1.389 . S
C1397 C1398 1.524 . S
C1398 C1397 1.524 . S
C1398 C1399 1.397 . S
C1398 C1403 1.363 . S
C1399 H1370 0.950 . S
C1399 C1398 1.397 . S
C1399 C1400 1.334 . S
C1400 H1371 0.950 . S
C1400 C1399 1.334 . S
C1400 C1401 1.287 . S
C1401 C1400 1.287 . S
C1401 C1402 1.524 . S
C1401 H1404 0.999 . S
C1402 H1372 0.950 . S
C1402 C1401 1.524 . S
C1402 C1403 1.415 . S
C1403 H1373 0.950 . S
C1403 C1398 1.363 . S
C1403 C1402 1.415 . S
H1404 C1401 0.999 . S
H1405 C1386 0.913 . S
H1406 C1424 0.951 . S
H1407 C1426 0.951 . S
H1408 C1428 0.950 . S
H1409 C1429 0.950 . S
H1410 C1431 0.950 . S
H1411 C1434 0.950 . S
H1412 C1435 0.950 . S
H1413 C1437 0.950 . S
H1414 C1438 0.950 . S
H1415 C1439 0.951 . S
H1416 C1441 0.951 . S
H1417 C1443 0.950 . S
H1418 C1444 0.950 . S
H1419 C1446 0.950 . S
H1420 C1449 0.950 . S
H1421 C1450 0.950 . S
H1422 C1452 0.950 . S
H1423 C1453 0.950 . S
C1424 H1406 0.951 . S
C1424 C1425 1.366 . S
C1424 C1426 1.388 . S
C1425 C1424 1.366 . S
C1425 C1429 1.385 . S
C1426 H1407 0.951 . S
C1426 C1424 1.388 . S
C1426 C1427 1.366 . S
C1427 C1426 1.366 . S
C1427 C1428 1.414 . S
C1427 C1430 1.499 . S
C1428 H1408 0.950 . S
C1428 C1427 1.414 . S
C1428 C1429 1.374 . S
C1429 H1409 0.950 . S
C1429 C1425 1.385 . S
C1429 C1428 1.374 . S
C1430 C1427 1.499 . S
C1430 C1431 1.373 . S
C1430 C1432 1.389 . S
C1431 H1410 0.950 . S
C1431 C1430 1.373 . S
C1431 C1447 1.377 . S
C1432 C1430 1.389 . S
C1432 C1433 1.524 . S
C1432 C1446 1.377 . S
C1433 C1432 1.524 . S
C1433 C1434 1.397 . S
C1433 C1438 1.363 . S
C1434 H1411 0.950 . S
C1434 C1433 1.397 . S
C1434 C1435 1.334 . S
C1435 H1412 0.950 . S
C1435 C1434 1.334 . S
C1435 C1436 1.287 . S
C1436 C1435 1.287 . S
C1436 C1437 1.524 . S
C1436 H1455 0.913 . S
C1437 H1413 0.950 . S
C1437 C1436 1.524 . S
C1437 C1438 1.415 . S
C1438 H1414 0.950 . S
C1438 C1433 1.363 . S
C1438 C1437 1.415 . S
C1439 H1415 0.951 . S
C1439 C1440 1.366 . S
C1439 C1441 1.388 . S
C1440 C1439 1.366 . S
C1440 C1444 1.385 . S
C1441 H1416 0.951 . S
C1441 C1439 1.388 . S
C1441 C1442 1.366 . S
C1442 C1441 1.366 . S
C1442 C1443 1.414 . S
C1442 C1445 1.499 . S
C1443 H1417 0.950 . S
C1443 C1442 1.414 . S
C1443 C1444 1.374 . S
C1444 H1418 0.950 . S
C1444 C1440 1.385 . S
C1444 C1443 1.374 . S
C1445 C1442 1.499 . S
C1445 C1446 1.373 . S
C1445 C1447 1.389 . S
C1446 H1419 0.950 . S
C1446 C1432 1.377 . S
C1446 C1445 1.373 . S
C1447 C1431 1.377 . S
C1447 C1445 1.389 . S
C1447 C1448 1.524 . S
C1448 C1447 1.524 . S
C1448 C1449 1.397 . S
C1448 C1453 1.363 . S
C1449 H1420 0.950 . S
C1449 C1448 1.397 . S
C1449 C1450 1.334 . S
C1450 H1421 0.950 . S
C1450 C1449 1.334 . S
C1450 C1451 1.287 . S
C1451 C1450 1.287 . S
C1451 C1452 1.524 . S
C1451 H1454 0.999 . S
C1452 H1422 0.950 . S
C1452 C1451 1.524 . S
C1452 C1453 1.415 . S
C1453 H1423 0.950 . S
C1453 C1448 1.363 . S
C1453 C1452 1.415 . S
H1454 C1451 0.999 . S
H1455 C1436 0.913 . S
C275 C76 1.861 . S
C290 C98 1.922 . S
C340 C138 2.071 . S
C325 C88 2.038 . S
C390 C202 1.843 . S
C375 C52 1.734 . S
C440 C218 1.464 . S
C425 C64 1.353 . S
C490 C119 1.916 . S
C475 C28 1.867 . S
C525 C40 2.046 . S
C540 C159 2.070 . S
C575 C4 1.742 . S
C590 C193 1.843 . S
C625 C16 1.355 . S
C640 C239 1.465 . S
C690 C113 0.288 . S
C675 C69 0.286 . S
C740 C153 0.566 . S
C725 C81 0.577 . S
C790 C189 0.433 . S
C775 C93 0.435 . S
C825 C57 0.382 . S
C840 C233 0.446 . S
C875 C21 0.308 . S
C890 C122 0.288 . S
C940 C162 0.564 . S
C925 C33 0.584 . S
C990 C200 0.435 . S
C975 C45 0.454 . S
C1025 C9 0.403 . S
C1040 C242 0.445 . S
C1075 C66 1.805 1_556 S
C1090 C120 1.960 . S
C1125 C78 1.784 . S
C1140 C160 1.908 . S
C1190 C178 1.489 . S
C1175 C90 1.484 . S
C1240 C240 2.312 . S
C1225 C54 2.125 . S
C1275 C18 1.803 . S
C1290 C109 1.960 1_655 S
C1340 C149 1.907 . S
C1325 C30 1.786 . S
C1390 C199 1.489 . S
C1375 C42 1.474 . S
C1425 C6 2.117 . S
C1440 C229 2.313 . S
