# Generated by pormake.
# Topology anh, (6,3)-cn, num edge types: 1
# Building blocks:
#     Node 0, Type 0, BuildingBlock: HISSIN_clean_sbu_0, # of connection points: 6
#     Node 1, Type 0, BuildingBlock: HISSIN_clean_sbu_0, # of connection points: 6
#     Node 2, Type 0, BuildingBlock: HISSIN_clean_sbu_0, # of connection points: 6
#     Node 3, Type 1, BuildingBlock: KAKCAD_clean_linker_0, # of connection points: 3
#     Node 4, Type 1, BuildingBlock: KAKCAD_clean_linker_0, # of connection points: 3
#     Node 5, Type 1, BuildingBlock: KAKCAD_clean_linker_0, # of connection points: 3
#     Node 6, Type 1, BuildingBlock: KAKCAD_clean_linker_0, # of connection points: 3
#     Node 7, Type 1, BuildingBlock: KAKCAD_clean_linker_0, # of connection points: 3
#     Node 8, Type 1, BuildingBlock: KAKCAD_clean_linker_0, # of connection points: 3
#     Edge 9, Type (0, 1), BuildingBlock: XUDNAN_clean_linker_2, # of connection points: 2
#     Edge 10, Type (0, 1), BuildingBlock: XUDNAN_clean_linker_2, # of connection points: 2
#     Edge 11, Type (0, 1), BuildingBlock: XUDNAN_clean_linker_2, # of connection points: 2
#     Edge 12, Type (0, 1), BuildingBlock: XUDNAN_clean_linker_2, # of connection points: 2
#     Edge 13, Type (0, 1), BuildingBlock: XUDNAN_clean_linker_2, # of connection points: 2
#     Edge 14, Type (0, 1), BuildingBlock: XUDNAN_clean_linker_2, # of connection points: 2
#     Edge 15, Type (0, 1), BuildingBlock: XUDNAN_clean_linker_2, # of connection points: 2
#     Edge 16, Type (0, 1), BuildingBlock: XUDNAN_clean_linker_2, # of connection points: 2
#     Edge 17, Type (0, 1), BuildingBlock: XUDNAN_clean_linker_2, # of connection points: 2
#     Edge 18, Type (0, 1), BuildingBlock: XUDNAN_clean_linker_2, # of connection points: 2
#     Edge 19, Type (0, 1), BuildingBlock: XUDNAN_clean_linker_2, # of connection points: 2
#     Edge 20, Type (0, 1), BuildingBlock: XUDNAN_clean_linker_2, # of connection points: 2
#     Edge 21, Type (0, 1), BuildingBlock: XUDNAN_clean_linker_2, # of connection points: 2
#     Edge 22, Type (0, 1), BuildingBlock: XUDNAN_clean_linker_2, # of connection points: 2
#     Edge 23, Type (0, 1), BuildingBlock: XUDNAN_clean_linker_2, # of connection points: 2
#     Edge 24, Type (0, 1), BuildingBlock: XUDNAN_clean_linker_2, # of connection points: 2
#     Edge 25, Type (0, 1), BuildingBlock: XUDNAN_clean_linker_2, # of connection points: 2
#     Edge 26, Type (0, 1), BuildingBlock: XUDNAN_clean_linker_2, # of connection points: 2
# Relax obj value: 0.236
# Max RMSD: 0.187
# Mean RMSD: 0.154
data_MOF--net-anh--node1-HISSIN_clean_sbu_0--node2-KAKCAD_clean_linker_0--edge1-XUDNAN_clean_linker_2
_symmetry_space_group_name_H-M    P1
_symmetry_Int_Tables_number       1
_symmetry_cell_setting            triclinic
loop_
_symmetry_equiv_pos_as_xyz
'x, y, z'
_cell_length_a     36.744104
_cell_length_b     36.866616
_cell_length_c     66.452325
_cell_angle_alpha  92.852133
_cell_angle_beta   90.698015
_cell_angle_gamma 119.9532
loop_
_atom_site_label
_atom_site_type_symbol
_atom_site_fract_x
_atom_site_fract_y
_atom_site_fract_z
_atom_type_partial_charge
Eu0 Eu 1.06982 0.50606 0.17248 0.0
Eu1 Eu 0.11853 0.6058 0.17156 0.0
C2 C 0.095 0.56516 0.21493 0.0
C3 C 0.97274 0.40756 0.17731 0.0
C4 C 0.94433 0.40909 0.16347 0.0
C5 C 0.92113 0.3899 0.20306 0.0
C6 C 0.90576 0.40321 0.16961 0.0
C7 C 0.95997 0.39609 0.19694 0.0
C8 C 0.89434 0.39514 0.18969 0.0
C9 C 1.0176 0.42631 0.17264 0.0
O10 O 0.1717 0.59026 0.16993 0.0
O11 O 0.13851 0.5194 0.17426 0.0
C12 C 0.17339 0.55555 0.17186 0.0
O13 O 0.10356 0.519 0.14351 0.0
O14 O 0.16969 0.66963 0.17873 0.0
O15 O 0.12161 0.65801 0.15608 0.0
O16 O 0.09919 0.57714 0.13986 0.0
C17 C 0.10719 0.54862 0.13235 0.0
O18 O 1.01949 0.52444 0.16412 0.0
O19 O 1.0523 0.59059 0.17881 0.0
O20 O 0.11604 0.5992 0.20506 0.0
O21 O 1.02831 0.44625 0.15611 0.0
O22 O 1.04452 0.44748 0.18765 0.0
O23 O 1.07377 0.52768 0.20553 0.0
C24 C 0.19134 0.70418 0.14891 0.0
C25 C 0.20827 0.68127 0.13947 0.0
C26 C 0.2413 0.76591 0.1326 0.0
C27 C 0.24307 0.7012 0.12758 0.0
C28 C 0.20689 0.7461 0.14481 0.0
C29 C 0.26073 0.74405 0.12462 0.0
C30 C 0.15906 0.68443 0.16372 0.0
C31 C 1.01773 0.55787 0.17097 0.0
H32 H 0.95286 0.41755 0.14815 0.0
H33 H 0.91265 0.38205 0.21844 0.0
H34 H 0.88593 0.40701 0.15877 0.0
H35 H 0.98099 0.39431 0.20791 0.0
H36 H 0.19597 0.64853 0.14217 0.0
H37 H 0.25486 0.7992 0.13084 0.0
H38 H 0.25773 0.68387 0.12172 0.0
H39 H 0.19382 0.76399 0.15182 0.0
Eu40 Eu 0.59064 1.02004 0.50074 0.0
Eu41 Eu 0.53399 0.06118 0.51362 0.0
C42 C 0.57815 1.0368 0.54713 0.0
C43 C 0.67854 0.99276 0.49847 0.0
C44 C 0.69359 1.00235 0.51866 0.0
C45 C 0.74029 0.98873 0.48941 0.0
C46 C 0.73094 1.00356 0.52428 0.0
C47 C 0.7027 0.98714 0.48382 0.0
C48 C 0.75415 0.99557 0.5098 0.0
C49 C 0.63678 0.98606 0.49261 0.0
O50 O 0.60157 0.11793 0.51285 0.0
O51 O 0.63668 0.08953 0.49622 0.0
C52 C 0.6355 0.12274 0.5037 0.0
O53 O 0.55413 1.01473 0.47224 0.0
O54 O 0.52046 0.09651 0.53657 0.0
O55 O 0.48612 0.07845 0.50773 0.0
O56 O 0.54138 0.06824 0.48045 0.0
C57 C 0.54194 1.04104 0.46723 0.0
O58 O 0.52426 0.96313 0.50379 0.0
O59 O 0.48212 0.99269 0.50605 0.0
O60 O 0.54179 1.03184 0.54116 0.0
O61 O 0.60895 0.97372 0.50651 0.0
O62 O 0.63581 1.01408 0.48173 0.0
O63 O 0.60632 1.04266 0.53378 0.0
C64 C 0.50955 0.14733 0.52148 0.0
C65 C 0.49026 0.15776 0.50617 0.0
C66 C 0.56027 0.22138 0.52823 0.0
C67 C 0.50648 0.19962 0.50163 0.0
C68 C 0.54412 0.17976 0.53277 0.0
C69 C 0.5423 0.23171 0.51232 0.0
C70 C 0.49671 0.10298 0.52419 0.0
C71 C 0.48626 0.95907 0.50397 0.0
H72 H 0.67569 1.00728 0.53022 0.0
H73 H 0.75774 0.98315 0.47783 0.0
H74 H 0.74024 1.00842 0.54015 0.0
H75 H 0.69181 0.98016 0.46813 0.0
H76 H 0.46352 0.13343 0.49725 0.0
H77 H 0.58719 0.24552 0.53711 0.0
H78 H 0.49186 0.20672 0.48936 0.0
H79 H 0.55967 0.17307 0.54477 0.0
Eu80 Eu 0.54017 0.51887 0.83717 0.0
Eu81 Eu 0.64004 0.57369 0.84002 0.0
C82 C 0.58803 0.55308 0.88005 0.0
C83 C 0.4353 0.49682 0.82026 0.0
C84 C 0.39514 0.48751 0.82603 0.0
C85 C 0.43819 0.55004 0.79914 0.0
C86 C 0.37712 0.51031 0.81883 0.0
C87 C 0.45594 0.52713 0.80617 0.0
C88 C 0.39941 0.54295 0.80601 0.0
C89 C 0.45897 0.48095 0.83119 0.0
O90 O 0.62677 0.50674 0.84476 0.0
O91 O 0.55884 0.4679 0.83225 0.0
C92 C 0.59445 0.47011 0.83812 0.0
O93 O 0.56282 0.54591 0.8071 0.0
O94 O 0.69963 0.59571 0.85653 0.0
O95 O 0.69906 0.61546 0.82637 0.0
O96 O 0.62152 0.54138 0.80918 0.0
C97 C 0.59322 0.54368 0.79821 0.0
O98 O 0.55373 0.58719 0.84126 0.0
O99 O 0.62219 0.62328 0.8322 0.0
O100 O 0.61758 0.58309 0.8702 0.0
O101 O 0.48317 0.47215 0.82026 0.0
O102 O 0.47823 0.50273 0.84791 0.0
O103 O 0.55831 0.51913 0.87011 0.0
C104 C 0.75054 0.59866 0.835 0.0
C105 C 0.73438 0.55693 0.8275 0.0
C106 C 0.82098 0.60938 0.8342 0.0
C107 C 0.76133 0.54111 0.82394 0.0
C108 C 0.79394 0.62507 0.8379 0.0
C109 C 0.80481 0.56697 0.82767 0.0
C110 C 0.72175 0.61337 0.84103 0.0
C111 C 0.58666 0.62254 0.83612 0.0
H112 H 0.37897 0.4646 0.83705 0.0
H113 H 0.45602 0.57521 0.78937 0.0
H114 H 0.34742 0.50478 0.82457 0.0
H115 H 0.48711 0.53515 0.80161 0.0
H116 H 0.7008 0.53622 0.82507 0.0
H117 H 0.85433 0.62985 0.83752 0.0
H118 H 0.74813 0.5084 0.81889 0.0
H119 H 0.80678 0.65731 0.8437 0.0
C120 C 0.48212 0.07506 0.31538 0.0
C121 C 0.48875 1.04379 0.32295 0.0
C122 C 0.48729 0.08344 0.29508 0.0
C123 C 0.49975 0.06117 0.28183 0.0
C124 C 0.50562 1.0293 0.28924 0.0
C125 C 0.50013 1.02067 0.3096 0.0
C126 C 0.50803 0.07254 0.26058 0.0
C127 C 0.52889 0.11509 0.25617 0.0
C128 C 0.53699 0.1266 0.23623 0.0
C129 C 0.52296 0.09514 0.22059 0.0
C130 C 0.50376 1.05286 0.22471 0.0
C131 C 0.49631 1.0415 0.24471 0.0
C132 C 0.49338 1.02141 0.20779 0.0
C133 C 0.46905 1.02045 0.19116 0.0
C134 C 0.51103 0.99531 0.20721 0.0
C135 C 0.50464 0.96879 0.1901 0.0
C136 C 0.48011 0.96767 0.17337 0.0
C137 C 0.56423 0.17101 0.23167 0.0
C138 C 0.56138 0.20386 0.24187 0.0
C139 C 0.59514 0.18073 0.21744 0.0
C140 C 0.62262 0.22201 0.21347 0.0
C141 C 0.6203 0.25505 0.22368 0.0
C142 C 0.58942 0.2457 0.23796 0.0
C143 C 0.46222 0.99371 0.17423 0.0
H144 H 0.474 0.094 0.32523 0.0
H145 H 0.48191 0.10777 0.28981 0.0
H146 H 0.51553 1.01176 0.27945 0.0
H147 H 0.50508 0.99608 0.31489 0.0
H148 H 0.54062 0.13932 0.26836 0.0
H149 H 0.48074 1.00861 0.2478 0.0
H150 H 0.52864 0.10363 0.20508 0.0
H151 H 0.45521 1.04043 0.19131 0.0
H152 H 0.53059 0.99622 0.21978 0.0
H153 H 0.51894 0.94925 0.18996 0.0
H154 H 0.53782 0.19723 0.25294 0.0
H155 H 0.59929 0.15646 0.20981 0.0
H156 H 0.44196 0.99281 0.16201 0.0
H157 H 0.58738 0.27065 0.24623 0.0
H158 H 0.64709 0.22804 0.20299 0.0
C159 C 0.70938 0.65582 0.65503 0.0
C160 C 0.70483 0.62051 0.66437 0.0
C161 C 0.73173 0.6685 0.63747 0.0
C162 C 0.74996 0.64609 0.62883 0.0
C163 C 0.74644 0.61147 0.63848 0.0
C164 C 0.7242 0.59887 0.65611 0.0
C165 C 0.76907 0.65668 0.60888 0.0
C166 C 0.79426 0.69864 0.60427 0.0
C167 C 0.80625 0.70916 0.58438 0.0
C168 C 0.79421 0.67657 0.56926 0.0
C169 C 0.77057 0.6344 0.57387 0.0
C170 C 0.75815 0.6248 0.59369 0.0
C171 C 0.75504 0.59993 0.55788 0.0
C172 C 0.73494 0.60147 0.54008 0.0
C173 C 0.75614 0.56325 0.56137 0.0
C174 C 0.73523 0.52788 0.54805 0.0
C175 C 0.71274 0.52837 0.53088 0.0
C176 C 0.82731 0.75383 0.57905 0.0
C177 C 0.81726 0.78212 0.58902 0.0
C178 C 0.85482 0.76784 0.563 0.0
C179 C 0.86947 0.808 0.55626 0.0
C180 C 0.85786 0.83529 0.5658 0.0
C181 C 0.83271 0.82245 0.58259 0.0
C182 C 0.7139 0.56595 0.5267 0.0
H183 H 0.69534 0.67349 0.6612 0.0
H184 H 0.73339 0.69498 0.63027 0.0
H185 H 0.7603 0.5937 0.6322 0.0
H186 H 0.72111 0.57145 0.66294 0.0
H187 H 0.80353 0.72311 0.61619 0.0
H188 H 0.73757 0.5924 0.597 0.0
H189 H 0.8019 0.68376 0.55375 0.0
H190 H 0.73342 0.62929 0.53706 0.0
H191 H 0.7717 0.56135 0.5749 0.0
H192 H 0.73461 0.4994 0.55193 0.0
H193 H 0.79548 0.77259 0.60109 0.0
H194 H 0.86408 0.74741 0.55521 0.0
H195 H 0.69719 0.56742 0.51351 0.0
H196 H 0.82255 0.8426 0.58992 0.0
H197 H 0.88876 0.81729 0.54321 0.0
C198 C 0.23545 0.66757 0.99397 0.0
C199 C 0.21477 0.6247 0.99774 0.0
C200 C 0.23723 0.68005 0.97427 0.0
C201 C 0.21795 0.64983 0.95812 0.0
C202 C 0.19918 0.60713 0.96179 0.0
C203 C 0.19764 0.5947 0.98136 0.0
C204 C 0.21376 0.66204 0.93774 0.0
C205 C 0.24901 0.69132 0.92772 0.0
C206 C 0.24455 0.69988 0.90767 0.0
C207 C 0.20413 0.68022 0.8983 0.0
C208 C 0.16905 0.65118 0.90815 0.0
C209 C 0.17394 0.64214 0.92781 0.0
C210 C 0.12795 0.62818 0.89711 0.0
C211 C 0.11168 0.65037 0.88757 0.0
C212 C 0.1061 0.58417 0.89504 0.0
C213 C 1.06871 0.56265 0.88325 0.0
C214 C 1.05237 0.58484 0.87355 0.0
C215 C 0.28136 0.72165 0.89483 0.0
C216 C 0.31327 0.71125 0.89555 0.0
C217 C 0.27915 0.74339 0.87841 0.0
C218 C 0.30253 0.74704 0.86143 0.0
C219 C 0.32954 0.73044 0.861 0.0
C220 C 0.33735 0.71585 0.87878 0.0
C221 C 1.0741 0.62896 0.87608 0.0
H222 H 0.24926 0.69139 0.0063 0.0
H223 H 0.25187 0.71316 0.97178 0.0
H224 H 0.18444 0.58324 0.94953 0.0
H225 H 0.18109 0.56146 0.98372 0.0
H226 H 0.27994 0.70561 0.93514 0.0
H227 H 0.14663 0.61938 0.93537 0.0
H228 H 0.20003 0.68472 0.88261 0.0
H229 H 0.128 0.68435 0.88909 0.0
H230 H 0.11852 0.56652 0.9021 0.0
H231 H 1.05293 0.52874 0.88155 0.0
H232 H 0.31619 0.6947 0.90791 0.0
H233 H 0.25582 0.75312 0.87771 0.0
H234 H 1.06186 0.64713 0.86943 0.0
H235 H 0.35806 0.70283 0.8789 0.0
H236 H 0.29641 0.75896 0.848 0.0
C237 C 1.0322 0.52713 0.3712 0.0
C238 C 1.07234 0.54448 0.36314 0.0
C239 C 1.02726 0.5229 0.39212 0.0
C240 C 1.06235 0.53566 0.40542 0.0
C241 C 0.10201 0.5506 0.39705 0.0
C242 C 0.10694 0.5552 0.37631 0.0
C243 C 1.0588 0.53613 0.42798 0.0
C244 C 1.02525 0.50318 0.4374 0.0
C245 C 1.02242 0.50275 0.45869 0.0
C246 C 1.05535 0.53828 0.47057 0.0
C247 C 0.08945 0.57276 0.46117 0.0
C248 C 0.08985 0.57037 0.44001 0.0
C249 C 0.12639 0.61201 0.47199 0.0
C250 C 0.13848 0.6524 0.46542 0.0
C251 C 0.15497 0.60973 0.4855 0.0
C252 C 0.19456 0.64566 0.49128 0.0
C253 C 0.20769 0.6857 0.48379 0.0
C254 C 0.98434 0.46479 0.46739 0.0
C255 C 0.96227 0.46879 0.48381 0.0
C256 C 0.96697 0.42381 0.45791 0.0
C257 C 0.92882 0.38932 0.46381 0.0
C258 C 0.90561 0.39353 0.47966 0.0
C259 C 0.92398 0.43416 0.48977 0.0
C260 C 0.1779 0.68823 0.47118 0.0
H261 H 1.00491 0.51865 0.36146 0.0
H262 H 0.99624 0.51133 0.39793 0.0
H263 H 0.12966 0.5596 0.40661 0.0
H264 H 0.1382 0.56795 0.37059 0.0
H265 H 1.00105 0.47747 0.42792 0.0
H266 H 0.11522 0.59596 0.43268 0.0
H267 H 1.05444 0.53914 0.48685 0.0
H268 H 0.11796 0.65599 0.45487 0.0
H269 H 0.14777 0.57963 0.49079 0.0
H270 H 0.21533 0.64157 0.50141 0.0
H271 H 0.97378 0.49916 0.49172 0.0
H272 H 0.98267 0.41818 0.44548 0.0
H273 H 0.18572 0.7176 0.46483 0.0
H274 H 0.9087 0.43966 0.50241 0.0
H275 H 0.91697 0.35947 0.45536 0.0
C276 C 0.56415 1.0083 0.70538 0.0
C277 C 0.59493 1.04412 0.69641 0.0
C278 C 0.56165 1.0076 0.72648 0.0
C279 C 0.5893 1.04301 0.73909 0.0
C280 C 0.61929 0.07913 0.73005 0.0
C281 C 0.62228 0.07956 0.70904 0.0
C282 C 0.58806 1.04222 0.76161 0.0
C283 C 0.58835 1.00936 0.77136 0.0
C284 C 0.59122 1.00926 0.79263 0.0
C285 C 0.59168 1.04381 0.80418 0.0
C286 C 0.58977 0.07701 0.79444 0.0
C287 C 0.58846 0.07529 0.77323 0.0
C288 C 0.59018 0.11508 0.80508 0.0
C289 C 0.55643 0.12266 0.80192 0.0
C290 C 0.62717 0.14852 0.81444 0.0
C291 C 0.63049 0.18782 0.82009 0.0
C292 C 0.59679 0.19585 0.81688 0.0
C293 C 0.59354 0.97241 0.80158 0.0
C294 C 0.61233 0.95197 0.79097 0.0
C295 C 0.57478 0.95477 0.81967 0.0
C296 C 0.57327 0.91777 0.82621 0.0
C297 C 0.59002 0.89588 0.81493 0.0
C298 C 0.61023 0.91479 0.79727 0.0
C299 C 0.55943 0.16173 0.80784 0.0
H300 H 0.54276 0.98042 0.6961 0.0
H301 H 0.53807 0.97935 0.73295 0.0
H302 H 0.64124 0.10683 0.73929 0.0
H303 H 0.64618 0.10774 0.70263 0.0
H304 H 0.58682 0.98372 0.762 0.0
H305 H 0.5879 0.10034 0.76558 0.0
H306 H 0.59365 1.04501 0.82049 0.0
H307 H 0.52766 0.09842 0.79427 0.0
H308 H 0.65455 0.14508 0.81648 0.0
H309 H 0.66059 0.21237 0.82634 0.0
H310 H 0.62872 0.96444 0.77736 0.0
H311 H 0.56009 0.96887 0.82862 0.0
H312 H 0.53219 0.165 0.80506 0.0
H313 H 0.624 0.90062 0.78777 0.0
H314 H 0.55853 0.90656 0.84028 0.0
C315 C 0.59003 0.52087 0.03764 0.0
C316 C 0.58144 0.55032 0.02932 0.0
C317 C 0.58978 0.51704 0.05861 0.0
C318 C 0.58035 0.54213 0.07178 0.0
C319 C 0.57062 0.57068 0.06334 0.0
C320 C 0.57127 0.57478 0.04247 0.0
C321 C 0.58164 0.53962 0.09425 0.0
C322 C 0.61509 0.53821 0.10404 0.0
C323 C 0.61888 0.53844 0.12528 0.0
C324 C 0.58691 0.54059 0.13682 0.0
C325 C 0.55209 0.54136 0.12708 0.0
C326 C 0.5505 0.54077 0.10591 0.0
C327 C 0.5176 0.54543 0.13779 0.0
C328 C 0.47889 0.50996 0.1421 0.0
C329 C 0.51904 0.58439 0.13914 0.0
C330 C 0.48379 0.58799 0.14458 0.0
C331 C 0.44479 0.55273 0.14898 0.0
C332 C 0.65758 0.53803 0.1343 0.0
C333 C 0.67488 0.51574 0.12405 0.0
C334 C 0.68033 0.5626 0.15183 0.0
C335 C 0.71931 0.56631 0.15814 0.0
C336 C 0.73773 0.54575 0.14723 0.0
C337 C 0.7138 0.51959 0.13027 0.0
C338 C 0.44337 0.51353 0.14768 0.0
H339 H 0.59821 0.5017 0.02799 0.0
H340 H 0.59709 0.49446 0.06454 0.0
H341 H 0.56356 0.59081 0.07293 0.0
H342 H 0.56412 0.59753 0.03663 0.0
H343 H 0.63957 0.53886 0.09489 0.0
H344 H 0.52461 0.54162 0.09837 0.0
H345 H 0.589 0.54157 0.15312 0.0
H346 H 0.4756 0.47908 0.14049 0.0
H347 H 0.54727 0.61225 0.13509 0.0
H348 H 0.48705 0.61881 0.14459 0.0
H349 H 0.65859 0.49554 0.11074 0.0
H350 H 0.66884 0.58034 0.16036 0.0
H351 H 0.41465 0.48532 0.15085 0.0
H352 H 0.72566 0.50288 0.1212 0.0
H353 H 0.73513 0.58591 0.17165 0.0
H354 H 0.19777 0.49645 0.1577 0.0
H355 H 0.24882 0.62369 0.18361 0.0
H356 H 0.32043 0.63478 0.18148 0.0
H357 H 0.27616 0.47511 0.18135 0.0
H358 H 0.28002 0.44672 0.15938 0.0
H359 H 0.23182 0.44701 0.1637 0.0
H360 H 0.23457 0.47507 0.12856 0.0
H361 H 0.28277 0.47485 0.12413 0.0
H362 H 0.28082 0.52243 0.1221 0.0
H363 H 0.38787 0.63325 0.17705 0.0
H364 H 0.4458 0.62096 0.16895 0.0
H365 H 0.35601 0.49613 0.14331 0.0
C366 C 0.22397 0.52643 0.1632 0.0
C367 C 0.21668 0.55904 0.17115 0.0
C368 C 0.25261 0.59797 0.1776 0.0
C369 C 0.29384 0.60465 0.17646 0.0
C370 C 0.29996 0.57238 0.16853 0.0
C371 C 0.26613 0.53403 0.16184 0.0
C372 C 0.28249 0.50562 0.15312 0.0
C373 C 0.26667 0.46627 0.1651 0.0
C374 C 0.26937 0.49378 0.13064 0.0
C375 C 0.33048 0.5339 0.15606 0.0
C376 C 0.33947 0.57215 0.16513 0.0
C377 C 0.381 0.60351 0.1697 0.0
C378 C 0.41416 0.59619 0.16476 0.0
C379 C 0.40693 0.55782 0.1549 0.0
C380 C 0.36373 0.52601 0.15078 0.0
H381 H 0.71608 0.14888 0.48821 0.0
H382 H 0.64149 0.19894 0.51451 0.0
H383 H 0.70034 0.27087 0.51136 0.0
H384 H 0.81674 0.22841 0.51224 0.0
H385 H 0.84706 0.23103 0.49068 0.0
H386 H 0.79911 0.18318 0.49483 0.0
H387 H 0.77036 0.18365 0.45923 0.0
H388 H 0.8182 0.23153 0.45498 0.0
H389 H 0.76819 0.22918 0.45222 0.0
H390 H 0.76875 0.33966 0.50499 0.0
H391 H 0.83807 0.39674 0.49645 0.0
H392 H 0.87188 0.30474 0.47485 0.0
C393 C 0.71199 0.17488 0.49336 0.0
C394 C 0.67311 0.1671 0.50173 0.0
C395 C 0.67016 0.20292 0.50815 0.0
C396 C 0.70379 0.24438 0.50638 0.0
C397 C 0.74134 0.2508 0.49817 0.0
C398 C 0.7457 0.21695 0.49178 0.0
C399 C 0.78968 0.23285 0.48354 0.0
C400 C 0.81462 0.21797 0.49607 0.0
C401 C 0.7864 0.21843 0.46116 0.0
C402 C 0.80932 0.28073 0.48623 0.0
C403 C 0.78073 0.29027 0.49471 0.0
C404 C 0.79128 0.33215 0.49852 0.0
C405 C 0.83153 0.36484 0.4937 0.0
C406 C 0.86228 0.35673 0.48505 0.0
C407 C 0.85012 0.31331 0.4813 0.0
H408 H 0.63177 0.69525 0.81399 0.0
H409 H 0.53405 0.64153 0.85726 0.0
H410 H 0.52732 0.70489 0.85773 0.0
H411 H 0.6782 0.80486 0.83364 0.0
H412 H 0.68814 0.8261 0.80916 0.0
H413 H 0.68744 0.77764 0.81282 0.0
H414 H 0.63076 0.7405 0.78397 0.0
H415 H 0.63132 0.78886 0.78022 0.0
H416 H 0.58267 0.74228 0.78501 0.0
H417 H 0.52718 0.77317 0.85206 0.0
H418 H 0.53518 0.83949 0.84194 0.0
H419 H 0.63378 0.85276 0.80214 0.0
C420 C 0.60877 0.69666 0.82352 0.0
C421 C 0.58341 0.66242 0.83565 0.0
C422 C 0.55373 0.66635 0.8477 0.0
C423 C 0.54942 0.70245 0.84797 0.0
C424 C 0.57402 0.73495 0.83566 0.0
C425 C 0.60318 0.73246 0.8236 0.0
C426 C 0.6252 0.77196 0.81163 0.0
C427 C 0.67256 0.7966 0.81714 0.0
C428 C 0.617 0.7602 0.78885 0.0
C429 C 0.60382 0.7968 0.81876 0.0
C430 C 0.57453 0.77476 0.8327 0.0
C431 C 0.55041 0.79069 0.84126 0.0
C432 C 0.55569 0.82942 0.83541 0.0
C433 C 0.58568 0.85377 0.82118 0.0
C434 C 0.61011 0.83631 0.81289 0.0
H435 H 0.93561 0.49961 0.15373 0.0
H436 H 1.0072 0.62316 0.18461 0.0
H437 H 0.94554 0.63224 0.18218 0.0
H438 H 0.87649 0.5267 0.11903 0.0
H439 H 0.8278 0.47775 0.11989 0.0
H440 H 0.87719 0.4795 0.12423 0.0
H441 H 0.85229 0.44709 0.15829 0.0
H442 H 0.80311 0.44571 0.15426 0.0
H443 H 0.8351 0.47198 0.17685 0.0
H444 H 0.87591 0.62989 0.176 0.0
H445 H 0.80504 0.61602 0.16685 0.0
H446 H 0.77377 0.49325 0.14026 0.0
C447 C 0.93836 0.52855 0.16005 0.0
C448 C 0.97744 0.56067 0.16942 0.0
C449 C 0.9786 0.59783 0.17736 0.0
C450 C 0.94333 0.60343 0.17605 0.0
C451 C 0.90583 0.57169 0.16671 0.0
C452 C 0.9029 0.53483 0.15886 0.0
C453 C 0.85838 0.50609 0.14949 0.0
C454 C 0.86008 0.49697 0.12681 0.0
C455 C 0.8359 0.46529 0.16041 0.0
C456 C 0.83712 0.53254 0.15322 0.0
C457 C 0.86531 0.57026 0.16324 0.0
C458 C 0.8536 0.60017 0.16831 0.0
C459 C 0.81248 0.59163 0.16314 0.0
C460 C 0.78199 0.55311 0.15293 0.0
C461 C 0.79532 0.52325 0.14793 0.0
H462 H 0.39918 0.93232 0.498 0.0
H463 H 0.4842 0.88363 0.50482 0.0
H464 H 0.42415 0.81155 0.50103 0.0
H465 H 0.31218 0.85125 0.52489 0.0
H466 H 0.27148 0.84789 0.50816 0.0
H467 H 0.32088 0.89632 0.51172 0.0
H468 H 0.33049 0.89649 0.47327 0.0
H469 H 0.28113 0.84806 0.46959 0.0
H470 H 0.32842 0.85154 0.46005 0.0
H471 H 0.35414 0.7428 0.49629 0.0
H472 H 0.28174 0.68454 0.49034 0.0
H473 H 0.23818 0.77402 0.48624 0.0
C474 C 0.40526 0.90656 0.4988 0.0
C475 C 0.44751 0.91479 0.50185 0.0
C476 C 0.45302 0.87932 0.50256 0.0
C477 C 0.41872 0.83776 0.50041 0.0
C478 C 0.37795 0.83083 0.4974 0.0
C479 C 0.37093 0.86424 0.49652 0.0
C480 C 0.32364 0.84747 0.49278 0.0
C481 C 0.306 0.86158 0.51044 0.0
C482 C 0.31544 0.86175 0.47273 0.0
C483 C 0.30533 0.79967 0.49172 0.0
C484 C 0.33745 0.79101 0.49452 0.0
C485 C 0.32888 0.74951 0.49421 0.0
C486 C 0.28697 0.71617 0.49097 0.0
C487 C 0.25266 0.7233 0.48797 0.0
C488 C 0.26276 0.76637 0.48835 0.0
H489 H 0.54651 0.39083 0.81629 0.0
H490 H 0.65391 0.45966 0.85825 0.0
H491 H 0.6645 0.39868 0.85781 0.0
H492 H 0.50805 0.28693 0.83561 0.0
H493 H 0.49388 0.2592 0.81111 0.0
H494 H 0.49319 0.30759 0.81502 0.0
H495 H 0.54354 0.33869 0.78588 0.0
H496 H 0.54431 0.29037 0.78186 0.0
H497 H 0.5929 0.33928 0.78646 0.0
H498 H 0.66288 0.32846 0.8538 0.0
H499 H 0.65277 0.25874 0.84503 0.0
H500 H 0.54993 0.23375 0.80305 0.0
C501 C 0.57209 0.39303 0.82552 0.0
C502 C 0.59907 0.43091 0.83755 0.0
C503 C 0.63247 0.43177 0.849 0.0
C504 C 0.63879 0.39691 0.84886 0.0
C505 C 0.61192 0.36043 0.83696 0.0
C506 C 0.5794 0.35829 0.82531 0.0
C507 C 0.55623 0.31551 0.8133 0.0
C508 C 0.51009 0.29085 0.8191 0.0
C509 C 0.55943 0.32131 0.79052 0.0
C510 C 0.58055 0.294 0.8201 0.0
C511 C 0.61232 0.32059 0.83389 0.0
C512 C 0.63843 0.30782 0.84274 0.0
C513 C 0.63254 0.26755 0.83736 0.0
C514 C 0.60103 0.23916 0.82278 0.0
C515 C 0.57449 0.25336 0.81423 0.0
H516 H 0.77103 0.93547 0.49496 0.0
H517 H 0.81469 1.03898 0.54021 0.0
H518 H 0.86108 1.01672 0.55576 0.0
H519 H 0.75909 0.8632 0.52496 0.0
H520 H 0.77674 0.83505 0.50865 0.0
H521 H 0.75633 0.86525 0.49795 0.0
H522 H 0.82513 0.90748 0.47916 0.0
H523 H 0.84581 0.87699 0.48974 0.0
H524 H 0.87496 0.93343 0.49313 0.0
H525 H 0.88733 0.97355 0.57106 0.0
H526 H 0.89274 0.91452 0.58389 0.0
H527 H 0.83589 0.84143 0.52777 0.0
C528 C 0.79196 0.95487 0.50748 0.0
C529 C 0.78917 0.98898 0.51634 0.0
C530 C 0.81599 1.0125 0.53324 0.0
C531 C 0.8428 1.00033 0.54206 0.0
C532 C 0.84311 0.96514 0.53355 0.0
C533 C 0.81898 0.94324 0.51635 0.0
C534 C 0.82005 0.90315 0.51183 0.0
C535 C 0.77543 0.86443 0.51082 0.0
C536 C 0.84286 0.90542 0.49231 0.0
C537 C 0.84567 0.90413 0.53005 0.0
C538 C 0.85961 0.94063 0.54218 0.0
C539 C 0.87804 0.9456 0.56136 0.0
C540 C 0.88094 0.91197 0.56856 0.0
C541 C 0.86558 0.87401 0.55658 0.0
C542 C 0.84937 0.8708 0.53684 0.0
H543 H 0.88217 0.59956 0.81174 0.0
H544 H 0.79144 0.49559 0.84438 0.0
H545 H 0.84508 0.47657 0.85238 0.0
H546 H 0.94942 0.54816 0.79555 0.0
H547 H 0.99652 0.59868 0.79923 0.0
H548 H 0.94833 0.59499 0.79001 0.0
H549 H 0.95469 0.64737 0.81917 0.0
H550 H 1.00218 0.65077 0.82865 0.0
H551 H 0.95854 0.63554 0.84486 0.0
H552 H 0.9106 0.483 0.86586 0.0
H553 H 0.98124 0.51153 0.88167 0.0
H554 H 1.03128 0.60879 0.83902 0.0
C555 C 0.87331 0.57165 0.81975 0.0
C556 C 0.83288 0.549 0.82741 0.0
C557 C 0.82213 0.51297 0.83809 0.0
C558 C 0.85246 0.50192 0.84271 0.0
C559 C 0.89306 0.52673 0.83618 0.0
C560 C 0.90329 0.56026 0.82442 0.0
C561 C 0.9503 0.58617 0.82223 0.0
C562 C 0.96181 0.58171 0.80046 0.0
C563 C 0.96737 0.63265 0.82916 0.0
C564 C 0.96508 0.56479 0.83637 0.0
C565 C 0.93164 0.52978 0.84377 0.0
C566 C 0.93718 0.50928 0.85959 0.0
C567 C 0.97755 0.52577 0.86851 0.0
C568 C 1.01186 0.56254 0.86163 0.0
C569 C 1.00564 0.58079 0.8447 0.0
H570 H 0.32762 0.74497 0.14119 0.0
H571 H 0.29083 0.80053 0.09526 0.0
H572 H 0.36372 0.85905 0.0949 0.0
H573 H 0.36898 0.82187 0.17047 0.0
H574 H 0.41334 0.81964 0.18091 0.0
H575 H 0.36927 0.773 0.17005 0.0
H576 H 0.41716 0.7613 0.14562 0.0
H577 H 0.4621 0.80827 0.1567 0.0
H578 H 0.45113 0.80234 0.12985 0.0
H579 H 0.42783 0.92047 0.10779 0.0
H580 H 0.47007 0.97754 0.13328 0.0
H581 H 0.46309 0.88688 0.17434 0.0
C582 C 0.33594 0.76808 0.13008 0.0
C583 C 0.30425 0.76831 0.11808 0.0
C584 C 0.31509 0.79968 0.1043 0.0
C585 C 0.35655 0.83295 0.10402 0.0
C586 C 0.38651 0.83459 0.11779 0.0
C587 C 0.37676 0.80239 0.13045 0.0
C588 C 0.40925 0.81635 0.14771 0.0
C589 C 0.38895 0.80726 0.16846 0.0
C590 C 0.43654 0.79586 0.14478 0.0
C591 C 0.43452 0.86284 0.14469 0.0
C592 C 0.42318 0.87212 0.12652 0.0
C593 C 0.43751 0.91343 0.12182 0.0
C594 C 0.46108 0.94571 0.13654 0.0
C595 C 0.46889 0.93645 0.156 0.0
C596 C 0.45804 0.89488 0.15953 0.0
H597 H 0.62572 0.28827 0.50973 0.0
H598 H 0.50203 0.27528 0.50385 0.0
H599 H 0.53484 0.35154 0.50025 0.0
H600 H 0.66827 0.37402 0.54148 0.0
H601 H 0.72022 0.39946 0.53168 0.0
H602 H 0.68782 0.34348 0.52849 0.0
H603 H 0.69545 0.3466 0.48988 0.0
H604 H 0.72815 0.40287 0.49289 0.0
H605 H 0.68176 0.37961 0.47635 0.0
H606 H 0.57985 0.42919 0.50435 0.0
H607 H 0.63241 0.50107 0.51666 0.0
H608 H 0.72752 0.46435 0.51969 0.0
C609 C 0.60556 0.30138 0.5072 0.0
C610 C 0.56137 0.27599 0.5071 0.0
C611 C 0.53596 0.29412 0.50373 0.0
C612 C 0.55435 0.3374 0.50164 0.0
C613 C 0.59812 0.36188 0.50266 0.0
C614 C 0.62342 0.34439 0.50516 0.0
C615 C 0.66918 0.37779 0.50859 0.0
C616 C 0.68738 0.37342 0.52876 0.0
C617 C 0.69516 0.37664 0.49086 0.0
C618 C 0.66537 0.41684 0.5091 0.0
C619 C 0.62434 0.40709 0.50505 0.0
C620 C 0.61227 0.43739 0.50697 0.0
C621 C 0.64248 0.47828 0.51391 0.0
C622 C 0.68419 0.48842 0.51907 0.0
C623 C 0.69595 0.45758 0.5158 0.0
H624 H 0.44576 0.62522 0.81663 0.0
H625 H 0.32366 0.53099 0.79129 0.0
H626 H 0.29976 0.58307 0.79341 0.0
H627 H 0.40782 0.65881 0.85392 0.0
H628 H 0.45003 0.71257 0.85471 0.0
H629 H 0.45833 0.67133 0.84478 0.0
H630 H 0.48378 0.71349 0.8125 0.0
H631 H 0.46943 0.75158 0.82143 0.0
H632 H 0.44745 0.72195 0.79778 0.0
H633 H 0.28459 0.63858 0.80509 0.0
H634 H 0.27525 0.68495 0.82969 0.0
H635 H 0.40576 0.742 0.84994 0.0
C636 C 0.41469 0.61633 0.81059 0.0
C637 C 0.38679 0.57469 0.80332 0.0
C638 C 0.34563 0.56313 0.79652 0.0
C639 C 0.33203 0.59263 0.79754 0.0
C640 C 0.35989 0.63328 0.8056 0.0
C641 C 0.40039 0.64498 0.81214 0.0
C642 C 0.42089 0.68645 0.82448 0.0
C643 C 0.43508 0.68205 0.84572 0.0
C644 C 0.45761 0.72036 0.81339 0.0
C645 C 0.38465 0.69484 0.82528 0.0
C646 C 0.35043 0.66496 0.81344 0.0
C647 C 0.31146 0.66271 0.81398 0.0
C648 C 0.30649 0.68946 0.82796 0.0
C649 C 0.34001 0.71722 0.84158 0.0
C650 C 0.38008 0.72169 0.83934 0.0
H651 H 0.81858 0.3618 0.16879 0.0
H652 H 0.88085 0.42262 0.22658 0.0
H653 H 0.8134 0.41044 0.23945 0.0
H654 H 0.73582 0.39767 0.17085 0.0
H655 H 0.69666 0.34811 0.15886 0.0
H656 H 0.75077 0.37071 0.15222 0.0
H657 H 0.75119 0.30335 0.1608 0.0
H658 H 0.6971 0.28 0.16681 0.0
H659 H 0.73508 0.28303 0.18525 0.0
H660 H 0.73934 0.37452 0.24859 0.0
H661 H 0.6672 0.31711 0.2528 0.0
H662 H 0.6511 0.28869 0.18825 0.0
C663 C 0.81848 0.37426 0.18386 0.0
C664 C 0.85498 0.39273 0.19669 0.0
C665 C 0.85314 0.4075 0.21654 0.0
C666 C 0.81508 0.40151 0.22388 0.0
C667 C 0.77931 0.38185 0.21103 0.0
C668 C 0.78091 0.36923 0.19125 0.0
C669 C 0.73735 0.34304 0.18146 0.0
C670 C 0.72975 0.36634 0.16487 0.0
C671 C 0.72977 0.29984 0.17314 0.0
C672 C 0.71098 0.33941 0.19937 0.0
C673 C 0.73563 0.36295 0.21619 0.0
C674 C 0.71941 0.35731 0.23542 0.0
C675 C 0.67817 0.32473 0.2377 0.0
C676 C 0.65391 0.29848 0.2208 0.0
C677 C 0.66919 0.30866 0.20133 0.0
H678 H 0.12346 0.61017 0.10663 0.0
H679 H 0.13141 0.49751 0.1126 0.0
H680 H 0.16526 0.50795 0.07983 0.0
H681 H 0.09852 0.59491 0.05384 0.0
H682 H 0.12915 0.64991 0.04947 0.0
H683 H 0.10681 0.63391 0.07361 0.0
H684 H 0.1809 0.67887 0.0911 0.0
H685 H 0.20338 0.69471 0.06694 0.0
H686 H 0.22304 0.67032 0.08334 0.0
H687 H 0.1972 0.5302 0.04618 0.0
H688 H 0.22029 0.55975 0.01308 0.0
H689 H 0.19062 0.65728 0.0293 0.0
C690 C 0.13204 0.58748 0.10103 0.0
C691 C 0.1245 0.55281 0.11211 0.0
C692 C 0.13658 0.52411 0.10429 0.0
C693 C 0.1561 0.52995 0.08578 0.0
C694 C 0.16345 0.56472 0.07536 0.0
C695 C 0.15158 0.59286 0.08265 0.0
C696 C 0.16184 0.62694 0.06827 0.0
C697 C 0.12169 0.62635 0.06086 0.0
C698 C 0.19421 0.67027 0.07801 0.0
C699 C 0.18066 0.61315 0.05153 0.0
C700 C 0.18177 0.57749 0.056 0.0
C701 C 0.19657 0.55817 0.04253 0.0
C702 C 0.20952 0.57511 0.02377 0.0
C703 C 0.20732 0.61085 0.01862 0.0
C704 C 0.19348 0.63047 0.03291 0.0
H705 H 0.57009 1.02456 0.43178 0.0
H706 H 0.47734 1.05247 0.45638 0.0
H707 H 0.44905 1.04882 0.422 0.0
H708 H 0.59252 0.08929 0.39066 0.0
H709 H 0.60047 1.05524 0.37312 0.0
H710 H 0.61042 1.05532 0.39971 0.0
H711 H 0.55882 0.97512 0.39848 0.0
H712 H 0.54848 0.97487 0.37188 0.0
H713 H 0.50561 0.9543 0.38875 0.0
H714 H 0.43177 1.04374 0.38538 0.0
H715 H 0.4314 1.04563 0.3484 0.0
H716 H 0.53925 1.02711 0.34723 0.0
C717 C 0.54349 1.02932 0.42985 0.0
C718 C 0.52559 1.03849 0.44661 0.0
C719 C 0.49144 1.04549 0.44364 0.0
C720 C 0.47497 1.04314 0.42422 0.0
C721 C 0.49339 1.03429 0.40795 0.0
C722 C 0.52723 1.02804 0.41048 0.0
C723 C 0.54356 1.02298 0.39033 0.0
C724 C 0.58945 1.05779 0.38834 0.0
C725 C 0.53882 0.9792 0.38718 0.0
C726 C 0.51391 1.02787 0.37614 0.0
C727 C 0.48474 1.03352 0.38665 0.0
C728 C 0.45454 1.03952 0.37695 0.0
C729 C 0.4548 1.04084 0.35595 0.0
C730 C 0.48556 1.03699 0.34486 0.0
C731 C 0.51495 1.02961 0.35516 0.0
H732 H 0.65742 0.54746 0.77638 0.0
H733 H 0.54293 0.55393 0.77093 0.0
H734 H 0.55698 0.57038 0.73526 0.0
H735 H 0.71909 0.63299 0.74806 0.0
H736 H 0.74796 0.6105 0.73638 0.0
H737 H 0.72675 0.59508 0.76077 0.0
H738 H 0.68646 0.51712 0.74731 0.0
H739 H 0.70776 0.53223 0.72287 0.0
H740 H 0.65167 0.50177 0.72526 0.0
H741 H 0.58653 0.5915 0.70107 0.0
H742 H 0.62828 0.61387 0.67063 0.0
H743 H 0.72373 0.5944 0.69889 0.0
C744 C 0.63484 0.55158 0.76763 0.0
C745 C 0.59899 0.54929 0.77641 0.0
C746 C 0.57052 0.55537 0.76448 0.0
C747 C 0.57823 0.56472 0.74422 0.0
C748 C 0.6144 0.56765 0.73616 0.0
C749 C 0.64207 0.56098 0.74747 0.0
C750 C 0.67976 0.56809 0.73562 0.0
C751 C 0.7208 0.60379 0.74582 0.0
C752 C 0.68149 0.52737 0.73258 0.0
C753 C 0.6694 0.58061 0.71598 0.0
C754 C 0.63147 0.57995 0.71654 0.0
C755 C 0.61612 0.59186 0.70041 0.0
C756 C 0.6402 0.60483 0.68327 0.0
C757 C 0.67926 0.60591 0.68242 0.0
C758 C 0.69375 0.59334 0.69899 0.0
H759 H 0.52451 1.0166 0.57882 0.0
H760 H 0.65478 0.06041 0.56538 0.0
H761 H 0.67267 0.06608 0.60177 0.0
H762 H 0.54423 0.08233 0.62378 0.0
H763 H 0.50114 1.04302 0.63701 0.0
H764 H 0.49822 1.0417 0.60989 0.0
H765 H 0.48446 0.96552 0.60779 0.0
H766 H 0.48725 0.96656 0.63492 0.0
H767 H 0.52096 0.95397 0.62032 0.0
H768 H 0.67731 0.07048 0.63984 0.0
H769 H 0.66755 0.06913 0.67657 0.0
H770 H 0.53387 1.01961 0.66573 0.0
C771 C 0.55679 1.02721 0.5835 0.0
C772 C 0.58825 1.03817 0.5691 0.0
C773 C 0.63004 1.05176 0.57599 0.0
C774 C 0.64056 1.05517 0.59668 0.0
C775 C 0.60892 1.04448 0.61044 0.0
C776 C 0.56778 1.03036 0.60414 0.0
C777 C 0.53976 1.02066 0.62209 0.0
C778 C 0.51966 1.0486 0.62325 0.0
C779 C 0.50612 0.9739 0.62122 0.0
C780 C 0.57162 1.03192 0.63947 0.0
C781 C 0.61138 1.04582 0.63238 0.0
C782 C 0.64626 0.05937 0.64552 0.0
C783 C 0.64044 0.05868 0.66639 0.0
C784 C 0.59998 1.0442 0.67409 0.0
C785 C 0.56512 1.03041 0.66033 0.0
H786 H 0.55286 0.49324 0.90875 0.0
H787 H 0.62492 0.62748 0.90218 0.0
H788 H 0.62978 0.64043 0.93904 0.0
H789 H 0.49485 0.49739 0.95236 0.0
H790 H 0.49745 0.45609 0.96454 0.0
H791 H 0.49765 0.45672 0.93744 0.0
H792 H 0.56711 0.45478 0.93774 0.0
H793 H 0.5672 0.45432 0.96484 0.0
H794 H 0.61194 0.49429 0.95277 0.0
H795 H 0.62793 0.63992 0.97637 0.0
H796 H 0.62073 0.62575 0.01236 0.0
H797 H 0.55189 0.49188 0.99625 0.0
C798 C 0.56924 0.52532 0.9151 0.0
C799 C 0.58838 0.55936 0.90244 0.0
C800 C 0.61008 0.60083 0.91143 0.0
C801 C 0.61297 0.60858 0.93242 0.0
C802 C 0.59433 0.57458 0.94446 0.0
C803 C 0.57298 0.53372 0.93624 0.0
C804 C 0.55717 0.50309 0.95291 0.0
C805 C 0.50891 0.47677 0.95174 0.0
C806 C 0.57705 0.47496 0.95201 0.0
C807 C 0.57299 0.5332 0.97166 0.0
C808 C 0.59409 0.57426 0.96631 0.0
C809 C 0.61137 0.60788 0.98075 0.0
C810 C 0.60693 0.59948 1.00121 0.0
C811 C 0.58553 0.55774 0.00727 0.0
C812 C 0.56859 0.52414 0.99217 0.0
H813 H 1.0464 0.50529 0.24173 0.0
H814 H 0.14579 0.63499 0.23945 0.0
H815 H 0.1492 0.64326 0.27651 0.0
H816 H 0.9943 0.52349 0.28416 0.0
H817 H 0.98103 0.47492 0.29519 0.0
H818 H 0.98588 0.47861 0.26831 0.0
H819 H 1.04085 0.45432 0.26942 0.0
H820 H 1.03617 0.45052 0.29629 0.0
H821 H 1.08693 0.48256 0.28604 0.0
H822 H 0.14421 0.63761 0.31372 0.0
H823 H 0.12939 0.61897 0.34898 0.0
H824 H 1.03148 0.49363 0.32837 0.0
C825 C 1.06885 0.53545 0.24902 0.0
C826 C 0.09589 0.56949 0.23747 0.0
C827 C 0.12463 0.60841 0.24775 0.0
C828 C 0.12687 0.61345 0.26888 0.0
C829 C 0.09996 0.57944 0.27975 0.0
C830 C 1.07128 0.54122 0.27024 0.0
C831 C 1.04593 0.50992 0.28571 0.0
C832 C 0.999 0.49591 0.28319 0.0
C833 C 1.0529 0.47209 0.28428 0.0
C834 C 1.06517 0.53648 0.30535 0.0
C835 C 0.09639 0.57643 0.30145 0.0
C836 C 0.11972 0.60648 0.31695 0.0
C837 C 0.11117 0.59553 0.33696 0.0
C838 C 1.07935 0.55486 0.34152 0.0
C839 C 1.05575 0.52507 0.3254 0.0
loop_
_geom_bond_atom_site_label_1
_geom_bond_atom_site_label_2
_geom_bond_distance
_geom_bond_site_symmetry_2
_ccdc_geom_bond_type
Eu0 C9 2.828 . S
Eu0 O11 2.392 1_655 S
Eu0 O13 2.418 . S
Eu0 O18 2.373 . S
Eu0 O21 2.488 . S
Eu0 O22 2.471 . S
Eu0 O23 2.349 . S
Eu1 O10 2.373 . S
Eu1 O14 2.488 . S
Eu1 O15 2.471 . S
Eu1 O16 2.349 . S
Eu1 O19 2.392 1_455 S
Eu1 O20 2.418 . S
Eu1 C30 2.828 . S
C2 O20 1.244 . S
C2 O23 1.265 1_455 S
C3 C4 1.379 . S
C3 C7 1.373 . S
C3 C9 1.505 . S
C4 C3 1.379 . S
C4 C6 1.369 . S
C4 H32 0.930 . S
C5 C7 1.383 . S
C5 C8 1.382 . S
C5 H33 0.930 . S
C6 C4 1.369 . S
C6 C8 1.392 . S
C6 H34 0.930 . S
C7 C3 1.373 . S
C7 C5 1.383 . S
C7 H35 0.931 . S
C8 C5 1.382 . S
C8 C6 1.392 . S
C9 Eu0 2.828 . S
C9 C3 1.505 . S
C9 O21 1.249 . S
C9 O22 1.244 . S
O10 Eu1 2.373 . S
O10 C12 1.258 . S
O11 Eu0 2.392 1_455 S
O11 C12 1.242 . S
C12 O10 1.258 . S
C12 O11 1.242 . S
O13 Eu0 2.418 . S
O13 C17 1.243 1_655 S
O14 Eu1 2.488 . S
O14 C30 1.249 . S
O15 Eu1 2.471 . S
O15 C30 1.244 . S
O16 Eu1 2.349 . S
O16 C17 1.265 . S
C17 O13 1.243 1_455 S
C17 O16 1.265 . S
O18 Eu0 2.373 . S
O18 C31 1.258 . S
O19 Eu1 2.392 1_655 S
O19 C31 1.242 . S
O20 Eu1 2.418 . S
O20 C2 1.244 . S
O21 Eu0 2.488 . S
O21 C9 1.249 . S
O22 Eu0 2.471 . S
O22 C9 1.244 . S
O23 Eu0 2.349 . S
O23 C2 1.265 1_655 S
C24 C25 1.379 . S
C24 C28 1.373 . S
C24 C30 1.505 . S
C25 C24 1.379 . S
C25 C27 1.369 . S
C25 H36 0.930 . S
C26 C28 1.383 . S
C26 C29 1.382 . S
C26 H37 0.930 . S
C27 C25 1.369 . S
C27 C29 1.392 . S
C27 H38 0.930 . S
C28 C24 1.373 . S
C28 C26 1.383 . S
C28 H39 0.931 . S
C29 C26 1.382 . S
C29 C27 1.392 . S
C30 Eu1 2.828 . S
C30 O14 1.249 . S
C30 O15 1.244 . S
C30 C24 1.505 . S
C31 O18 1.258 . S
C31 O19 1.242 . S
H32 C4 0.930 . S
H33 C5 0.930 . S
H34 C6 0.930 . S
H35 C7 0.931 . S
H36 C25 0.930 . S
H37 C26 0.930 . S
H38 C27 0.930 . S
H39 C28 0.931 . S
Eu40 C49 2.828 . S
Eu40 O51 2.392 1_565 S
Eu40 O53 2.418 . S
Eu40 O58 2.373 . S
Eu40 O61 2.488 . S
Eu40 O62 2.471 . S
Eu40 O63 2.349 1_565 S
Eu41 O50 2.373 . S
Eu41 O54 2.488 . S
Eu41 O55 2.471 . S
Eu41 O56 2.349 . S
Eu41 O59 2.392 1_545 S
Eu41 O60 2.418 . S
Eu41 C70 2.828 . S
C42 O60 1.244 . S
C42 O63 1.265 . S
C43 C44 1.379 . S
C43 C47 1.373 . S
C43 C49 1.505 . S
C44 C43 1.379 . S
C44 C46 1.369 . S
C44 H72 0.930 . S
C45 C47 1.383 . S
C45 C48 1.382 . S
C45 H73 0.930 . S
C46 C44 1.369 . S
C46 C48 1.392 . S
C46 H74 0.930 . S
C47 C43 1.373 . S
C47 C45 1.383 . S
C47 H75 0.931 . S
C48 C45 1.382 . S
C48 C46 1.392 . S
C49 Eu40 2.828 . S
C49 C43 1.505 . S
C49 O61 1.249 . S
C49 O62 1.244 . S
O50 Eu41 2.373 . S
O50 C52 1.258 . S
O51 Eu40 2.392 1_545 S
O51 C52 1.242 . S
C52 O50 1.258 . S
C52 O51 1.242 . S
O53 Eu40 2.418 . S
O53 C57 1.244 1_565 S
O54 Eu41 2.488 . S
O54 C70 1.249 . S
O55 Eu41 2.471 . S
O55 C70 1.244 . S
O56 Eu41 2.349 . S
O56 C57 1.265 . S
C57 O53 1.244 1_545 S
C57 O56 1.265 . S
O58 Eu40 2.373 . S
O58 C71 1.258 . S
O59 Eu41 2.392 1_565 S
O59 C71 1.242 . S
O60 Eu41 2.418 . S
O60 C42 1.244 . S
O61 Eu40 2.488 . S
O61 C49 1.249 . S
O62 Eu40 2.471 . S
O62 C49 1.244 . S
O63 Eu40 2.349 1_545 S
O63 C42 1.265 . S
C64 C65 1.379 . S
C64 C68 1.373 . S
C64 C70 1.505 . S
C65 C64 1.379 . S
C65 C67 1.369 . S
C65 H76 0.930 . S
C66 C68 1.383 . S
C66 C69 1.382 . S
C66 H77 0.930 . S
C67 C65 1.369 . S
C67 C69 1.392 . S
C67 H78 0.930 . S
C68 C64 1.373 . S
C68 C66 1.383 . S
C68 H79 0.931 . S
C69 C66 1.382 . S
C69 C67 1.392 . S
C70 Eu41 2.828 . S
C70 O54 1.249 . S
C70 O55 1.244 . S
C70 C64 1.505 . S
C71 O58 1.258 . S
C71 O59 1.242 . S
H72 C44 0.930 . S
H73 C45 0.930 . S
H74 C46 0.930 . S
H75 C47 0.931 . S
H76 C65 0.930 . S
H77 C66 0.930 . S
H78 C67 0.930 . S
H79 C68 0.931 . S
Eu80 C89 2.828 . S
Eu80 O91 2.392 . S
Eu80 O93 2.418 . S
Eu80 O98 2.373 . S
Eu80 O101 2.488 . S
Eu80 O102 2.471 . S
Eu80 O103 2.349 . S
Eu81 O90 2.373 . S
Eu81 O94 2.488 . S
Eu81 O95 2.471 . S
Eu81 O96 2.349 . S
Eu81 O99 2.392 . S
Eu81 O100 2.418 . S
Eu81 C110 2.828 . S
C82 O100 1.244 . S
C82 O103 1.265 . S
C83 C84 1.379 . S
C83 C87 1.373 . S
C83 C89 1.505 . S
C84 C83 1.379 . S
C84 C86 1.369 . S
C84 H112 0.930 . S
C85 C87 1.383 . S
C85 C88 1.382 . S
C85 H113 0.930 . S
C86 C84 1.369 . S
C86 C88 1.392 . S
C86 H114 0.930 . S
C87 C83 1.373 . S
C87 C85 1.383 . S
C87 H115 0.931 . S
C88 C85 1.382 . S
C88 C86 1.392 . S
C89 Eu80 2.828 . S
C89 C83 1.505 . S
C89 O101 1.249 . S
C89 O102 1.244 . S
O90 Eu81 2.373 . S
O90 C92 1.258 . S
O91 Eu80 2.392 . S
O91 C92 1.242 . S
C92 O90 1.258 . S
C92 O91 1.242 . S
O93 Eu80 2.418 . S
O93 C97 1.244 . S
O94 Eu81 2.488 . S
O94 C110 1.249 . S
O95 Eu81 2.471 . S
O95 C110 1.244 . S
O96 Eu81 2.349 . S
O96 C97 1.265 . S
C97 O93 1.244 . S
C97 O96 1.265 . S
O98 Eu80 2.373 . S
O98 C111 1.258 . S
O99 Eu81 2.392 . S
O99 C111 1.242 . S
O100 Eu81 2.418 . S
O100 C82 1.244 . S
O101 Eu80 2.488 . S
O101 C89 1.249 . S
O102 Eu80 2.471 . S
O102 C89 1.244 . S
O103 Eu80 2.349 . S
O103 C82 1.265 . S
C104 C105 1.379 . S
C104 C108 1.373 . S
C104 C110 1.505 . S
C105 C104 1.379 . S
C105 C107 1.369 . S
C105 H116 0.930 . S
C106 C108 1.383 . S
C106 C109 1.382 . S
C106 H117 0.930 . S
C107 C105 1.369 . S
C107 C109 1.392 . S
C107 H118 0.930 . S
C108 C104 1.373 . S
C108 C106 1.383 . S
C108 H119 0.931 . S
C109 C106 1.382 . S
C109 C107 1.392 . S
C110 Eu81 2.828 . S
C110 O94 1.249 . S
C110 O95 1.244 . S
C110 C104 1.505 . S
C111 O98 1.258 . S
C111 O99 1.242 . S
H112 C84 0.930 . S
H113 C85 0.930 . S
H114 C86 0.930 . S
H115 C87 0.931 . S
H116 C105 0.930 . S
H117 C106 0.930 . S
H118 C107 0.930 . S
H119 C108 0.931 . S
C120 C121 1.386 . S
C120 C122 1.397 . S
C120 H144 0.931 . S
C121 C120 1.386 . S
C121 C125 1.397 1_545 S
C122 C120 1.397 . S
C122 C123 1.384 . S
C122 H145 0.930 . S
C123 C122 1.384 . S
C123 C124 1.377 1_545 S
C123 C126 1.481 . S
C124 C123 1.377 1_565 S
C124 C125 1.389 . S
C124 H146 0.929 . S
C125 C121 1.397 1_565 S
C125 C124 1.389 . S
C125 H147 0.931 . S
C126 C123 1.481 . S
C126 C127 1.387 . S
C126 C131 1.389 . S
C127 C126 1.387 . S
C127 C128 1.401 . S
C127 H148 0.930 . S
C128 C127 1.401 . S
C128 C129 1.376 . S
C128 C137 1.511 . S
C129 C128 1.376 . S
C129 C130 1.392 1_545 S
C129 H150 0.931 . S
C130 C129 1.392 1_565 S
C130 C131 1.361 1_565 S
C130 C132 1.500 . S
C131 C126 1.389 . S
C131 C130 1.361 1_545 S
C131 H149 0.932 1_545 S
C132 C130 1.500 . S
C132 C133 1.371 . S
C132 C134 1.365 . S
C133 C132 1.371 . S
C133 C143 1.386 . S
C133 H151 0.931 . S
C134 C132 1.365 . S
C134 C135 1.409 . S
C134 H152 0.929 . S
C135 C134 1.409 . S
C135 C136 1.380 . S
C135 H153 0.930 . S
C136 C135 1.380 . S
C136 C143 1.357 . S
C137 C128 1.511 . S
C137 C138 1.341 . S
C137 C139 1.371 . S
C138 C137 1.341 . S
C138 C142 1.394 . S
C138 H154 0.930 . S
C139 C137 1.371 . S
C139 C140 1.392 . S
C139 H155 0.931 . S
C140 C139 1.392 . S
C140 C141 1.331 . S
C140 H158 0.932 . S
C141 C140 1.331 . S
C141 C142 1.336 . S
C142 C138 1.394 . S
C142 C141 1.336 . S
C142 H157 0.929 . S
C143 C133 1.386 . S
C143 C136 1.357 . S
C143 H156 0.928 . S
H144 C120 0.931 . S
H145 C122 0.930 . S
H146 C124 0.929 . S
H147 C125 0.931 . S
H148 C127 0.930 . S
H149 C131 0.932 1_565 S
H150 C129 0.931 . S
H151 C133 0.931 . S
H152 C134 0.929 . S
H153 C135 0.930 . S
H154 C138 0.930 . S
H155 C139 0.931 . S
H156 C143 0.928 . S
H157 C142 0.929 . S
H158 C140 0.932 . S
C159 C160 1.386 . S
C159 C161 1.397 . S
C159 H183 0.931 . S
C160 C159 1.386 . S
C160 C164 1.397 . S
C161 C159 1.397 . S
C161 C162 1.384 . S
C161 H184 0.930 . S
C162 C161 1.384 . S
C162 C163 1.377 . S
C162 C165 1.481 . S
C163 C162 1.377 . S
C163 C164 1.389 . S
C163 H185 0.929 . S
C164 C160 1.397 . S
C164 C163 1.389 . S
C164 H186 0.931 . S
C165 C162 1.481 . S
C165 C166 1.387 . S
C165 C170 1.390 . S
C166 C165 1.387 . S
C166 C167 1.401 . S
C166 H187 0.930 . S
C167 C166 1.401 . S
C167 C168 1.376 . S
C167 C176 1.511 . S
C168 C167 1.376 . S
C168 C169 1.392 . S
C168 H189 0.931 . S
C169 C168 1.392 . S
C169 C170 1.361 . S
C169 C171 1.500 . S
C170 C165 1.390 . S
C170 C169 1.361 . S
C170 H188 0.931 . S
C171 C169 1.500 . S
C171 C172 1.371 . S
C171 C173 1.365 . S
C172 C171 1.371 . S
C172 C182 1.386 . S
C172 H190 0.931 . S
C173 C171 1.365 . S
C173 C174 1.409 . S
C173 H191 0.929 . S
C174 C173 1.409 . S
C174 C175 1.380 . S
C174 H192 0.930 . S
C175 C174 1.380 . S
C175 C182 1.357 . S
C176 C167 1.511 . S
C176 C177 1.341 . S
C176 C178 1.371 . S
C177 C176 1.341 . S
C177 C181 1.394 . S
C177 H193 0.930 . S
C178 C176 1.371 . S
C178 C179 1.392 . S
C178 H194 0.931 . S
C179 C178 1.392 . S
C179 C180 1.331 . S
C179 H197 0.932 . S
C180 C179 1.331 . S
C180 C181 1.336 . S
C181 C177 1.394 . S
C181 C180 1.336 . S
C181 H196 0.929 . S
C182 C172 1.386 . S
C182 C175 1.357 . S
C182 H195 0.928 . S
H183 C159 0.931 . S
H184 C161 0.930 . S
H185 C163 0.929 . S
H186 C164 0.931 . S
H187 C166 0.930 . S
H188 C170 0.931 . S
H189 C168 0.931 . S
H190 C172 0.931 . S
H191 C173 0.929 . S
H192 C174 0.930 . S
H193 C177 0.930 . S
H194 C178 0.931 . S
H195 C182 0.928 . S
H196 C181 0.929 . S
H197 C179 0.932 . S
C198 C199 1.386 . S
C198 C200 1.397 . S
C198 H222 0.931 . S
C199 C198 1.386 . S
C199 C203 1.397 . S
C200 C198 1.397 . S
C200 C201 1.384 . S
C200 H223 0.930 . S
C201 C200 1.384 . S
C201 C202 1.377 . S
C201 C204 1.481 . S
C202 C201 1.377 . S
C202 C203 1.389 . S
C202 H224 0.929 1_455 S
C203 C199 1.397 . S
C203 C202 1.389 . S
C203 H225 0.931 1_455 S
C204 C201 1.481 . S
C204 C205 1.387 . S
C204 C209 1.390 . S
C205 C204 1.387 . S
C205 C206 1.401 . S
C205 H226 0.930 . S
C206 C205 1.401 . S
C206 C207 1.376 . S
C206 C215 1.511 . S
C207 C206 1.376 . S
C207 C208 1.392 . S
C207 H228 0.931 . S
C208 C207 1.392 . S
C208 C209 1.361 . S
C208 C210 1.500 1_455 S
C209 C204 1.390 . S
C209 C208 1.361 . S
C209 H227 0.931 1_455 S
C210 C208 1.500 1_655 S
C210 C211 1.371 . S
C210 C212 1.365 . S
C211 C210 1.371 . S
C211 C221 1.386 . S
C211 H229 0.931 1_655 S
C212 C210 1.365 . S
C212 C213 1.409 . S
C212 H230 0.929 . S
C213 C212 1.409 . S
C213 C214 1.380 . S
C213 H231 0.930 . S
C214 C213 1.380 . S
C214 C221 1.357 . S
C215 C206 1.511 . S
C215 C216 1.341 . S
C215 C217 1.371 . S
C216 C215 1.341 . S
C216 C220 1.394 . S
C216 H232 0.930 . S
C217 C215 1.371 . S
C217 C218 1.392 . S
C217 H233 0.931 . S
C218 C217 1.392 . S
C218 C219 1.331 . S
C218 H236 0.932 . S
C219 C218 1.331 . S
C219 C220 1.336 . S
C220 C216 1.394 . S
C220 C219 1.336 . S
C220 H235 0.929 . S
C221 C211 1.386 . S
C221 C214 1.357 . S
C221 H234 0.928 . S
H222 C198 0.931 . S
H223 C200 0.930 . S
H224 C202 0.929 1_655 S
H225 C203 0.931 1_655 S
H226 C205 0.930 . S
H227 C209 0.931 1_655 S
H228 C207 0.931 . S
H229 C211 0.931 1_455 S
H230 C212 0.929 . S
H231 C213 0.930 . S
H232 C216 0.930 . S
H233 C217 0.931 . S
H234 C221 0.928 . S
H235 C220 0.929 . S
H236 C218 0.932 . S
C237 C238 1.386 1_655 S
C237 C239 1.397 . S
C237 H261 0.931 . S
C238 C237 1.386 1_455 S
C238 C242 1.397 . S
C239 C237 1.397 . S
C239 C240 1.384 1_655 S
C239 H262 0.930 . S
C240 C239 1.384 1_455 S
C240 C241 1.377 . S
C240 C243 1.481 . S
C241 C240 1.377 . S
C241 C242 1.389 . S
C241 H263 0.929 . S
C242 C238 1.397 . S
C242 C241 1.389 . S
C242 H264 0.931 . S
C243 C240 1.481 . S
C243 C244 1.387 1_455 S
C243 C248 1.390 . S
C244 C243 1.387 1_655 S
C244 C245 1.401 . S
C244 H265 0.930 . S
C245 C244 1.401 . S
C245 C246 1.376 1_655 S
C245 C254 1.511 . S
C246 C245 1.376 1_455 S
C246 C247 1.392 . S
C246 H267 0.931 . S
C247 C246 1.392 . S
C247 C248 1.361 . S
C247 C249 1.500 . S
C248 C243 1.390 . S
C248 C247 1.361 . S
C248 H266 0.931 . S
C249 C247 1.500 . S
C249 C250 1.371 . S
C249 C251 1.365 . S
C250 C249 1.371 . S
C250 C260 1.386 . S
C250 H268 0.931 . S
C251 C249 1.365 . S
C251 C252 1.409 . S
C251 H269 0.929 . S
C252 C251 1.409 . S
C252 C253 1.380 . S
C252 H270 0.930 . S
C253 C252 1.380 . S
C253 C260 1.357 . S
C254 C245 1.511 . S
C254 C255 1.341 . S
C254 C256 1.371 . S
C255 C254 1.341 . S
C255 C259 1.394 . S
C255 H271 0.930 . S
C256 C254 1.371 . S
C256 C257 1.392 . S
C256 H272 0.931 . S
C257 C256 1.392 . S
C257 C258 1.331 . S
C257 H275 0.932 . S
C258 C257 1.331 . S
C258 C259 1.336 . S
C259 C255 1.394 . S
C259 C258 1.336 . S
C259 H274 0.929 . S
C260 C250 1.386 . S
C260 C253 1.357 . S
C260 H273 0.928 . S
H261 C237 0.931 . S
H262 C239 0.930 . S
H263 C241 0.929 . S
H264 C242 0.931 . S
H265 C244 0.930 . S
H266 C248 0.931 . S
H267 C246 0.931 . S
H268 C250 0.931 . S
H269 C251 0.929 . S
H270 C252 0.930 . S
H271 C255 0.930 . S
H272 C256 0.931 . S
H273 C260 0.928 . S
H274 C259 0.929 . S
H275 C257 0.932 . S
C276 C277 1.386 1_565 S
C276 C278 1.397 . S
C276 H300 0.931 . S
C277 C276 1.386 1_545 S
C277 C281 1.397 . S
C278 C276 1.397 . S
C278 C279 1.384 1_565 S
C278 H301 0.930 . S
C279 C278 1.384 1_545 S
C279 C280 1.377 . S
C279 C282 1.481 . S
C280 C279 1.377 . S
C280 C281 1.389 . S
C280 H302 0.929 . S
C281 C277 1.397 . S
C281 C280 1.389 . S
C281 H303 0.931 . S
C282 C279 1.481 . S
C282 C283 1.387 1_545 S
C282 C287 1.390 . S
C283 C282 1.387 1_565 S
C283 C284 1.401 . S
C283 H304 0.930 . S
C284 C283 1.401 . S
C284 C285 1.376 1_565 S
C284 C293 1.511 . S
C285 C284 1.376 1_545 S
C285 C286 1.392 . S
C285 H306 0.931 . S
C286 C285 1.392 . S
C286 C287 1.361 . S
C286 C288 1.500 . S
C287 C282 1.390 . S
C287 C286 1.361 . S
C287 H305 0.931 . S
C288 C286 1.500 . S
C288 C289 1.371 . S
C288 C290 1.365 . S
C289 C288 1.371 . S
C289 C299 1.386 . S
C289 H307 0.931 . S
C290 C288 1.365 . S
C290 C291 1.409 . S
C290 H308 0.929 . S
C291 C290 1.409 . S
C291 C292 1.380 . S
C291 H309 0.930 . S
C292 C291 1.380 . S
C292 C299 1.357 . S
C293 C284 1.511 . S
C293 C294 1.341 . S
C293 C295 1.371 . S
C294 C293 1.341 . S
C294 C298 1.394 . S
C294 H310 0.930 . S
C295 C293 1.371 . S
C295 C296 1.392 . S
C295 H311 0.931 . S
C296 C295 1.392 . S
C296 C297 1.331 . S
C296 H314 0.932 . S
C297 C296 1.331 . S
C297 C298 1.336 . S
C298 C294 1.394 . S
C298 C297 1.336 . S
C298 H313 0.929 . S
C299 C289 1.386 . S
C299 C292 1.357 . S
C299 H312 0.928 . S
H300 C276 0.931 . S
H301 C278 0.930 . S
H302 C280 0.929 . S
H303 C281 0.931 . S
H304 C283 0.930 . S
H305 C287 0.931 . S
H306 C285 0.931 . S
H307 C289 0.931 . S
H308 C290 0.929 . S
H309 C291 0.930 . S
H310 C294 0.930 . S
H311 C295 0.931 . S
H312 C299 0.928 . S
H313 C298 0.929 . S
H314 C296 0.932 . S
C315 C316 1.386 . S
C315 C317 1.397 . S
C315 H339 0.931 . S
C316 C315 1.386 . S
C316 C320 1.397 . S
C317 C315 1.397 . S
C317 C318 1.384 . S
C317 H340 0.930 . S
C318 C317 1.384 . S
C318 C319 1.377 . S
C318 C321 1.481 . S
C319 C318 1.377 . S
C319 C320 1.389 . S
C319 H341 0.929 . S
C320 C316 1.397 . S
C320 C319 1.389 . S
C320 H342 0.931 . S
C321 C318 1.481 . S
C321 C322 1.387 . S
C321 C326 1.390 . S
C322 C321 1.387 . S
C322 C323 1.401 . S
C322 H343 0.930 . S
C323 C322 1.401 . S
C323 C324 1.376 . S
C323 C332 1.511 . S
C324 C323 1.376 . S
C324 C325 1.392 . S
C324 H345 0.931 . S
C325 C324 1.392 . S
C325 C326 1.361 . S
C325 C327 1.500 . S
C326 C321 1.390 . S
C326 C325 1.361 . S
C326 H344 0.931 . S
C327 C325 1.500 . S
C327 C328 1.371 . S
C327 C329 1.365 . S
C328 C327 1.371 . S
C328 C338 1.386 . S
C328 H346 0.931 . S
C329 C327 1.365 . S
C329 C330 1.409 . S
C329 H347 0.929 . S
C330 C329 1.409 . S
C330 C331 1.380 . S
C330 H348 0.930 . S
C331 C330 1.380 . S
C331 C338 1.357 . S
C332 C323 1.511 . S
C332 C333 1.341 . S
C332 C334 1.371 . S
C333 C332 1.341 . S
C333 C337 1.394 . S
C333 H349 0.930 . S
C334 C332 1.371 . S
C334 C335 1.392 . S
C334 H350 0.931 . S
C335 C334 1.392 . S
C335 C336 1.331 . S
C335 H353 0.932 . S
C336 C335 1.331 . S
C336 C337 1.336 . S
C337 C333 1.394 . S
C337 C336 1.336 . S
C337 H352 0.929 . S
C338 C328 1.386 . S
C338 C331 1.357 . S
C338 H351 0.928 . S
H339 C315 0.931 . S
H340 C317 0.930 . S
H341 C319 0.929 . S
H342 C320 0.931 . S
H343 C322 0.930 . S
H344 C326 0.931 . S
H345 C324 0.931 . S
H346 C328 0.931 . S
H347 C329 0.929 . S
H348 C330 0.930 . S
H349 C333 0.930 . S
H350 C334 0.931 . S
H351 C338 0.928 . S
H352 C337 0.929 . S
H353 C335 0.932 . S
H354 C366 0.930 . S
H355 C368 0.930 . S
H356 C369 0.930 . S
H357 C373 0.959 . S
H358 C373 0.959 . S
H359 C373 0.961 . S
H360 C374 0.960 . S
H361 C374 0.961 . S
H362 C374 0.959 . S
H363 C377 0.929 . S
H364 C378 0.931 . S
H365 C380 0.930 . S
C366 H354 0.930 . S
C366 C367 1.399 . S
C366 C371 1.399 . S
C367 C366 1.399 . S
C367 C368 1.376 . S
C368 H355 0.930 . S
C368 C367 1.376 . S
C368 C369 1.388 . S
C369 H356 0.930 . S
C369 C368 1.388 . S
C369 C370 1.390 . S
C370 C369 1.390 . S
C370 C371 1.394 . S
C370 C376 1.465 . S
C371 C366 1.399 . S
C371 C370 1.394 . S
C371 C372 1.516 . S
C372 C371 1.516 . S
C372 C373 1.502 . S
C372 C374 1.561 . S
C372 C375 1.526 . S
C373 H357 0.959 . S
C373 H358 0.959 . S
C373 H359 0.961 . S
C373 C372 1.502 . S
C374 H360 0.960 . S
C374 H361 0.961 . S
C374 H362 0.959 . S
C374 C372 1.561 . S
C375 C372 1.526 . S
C375 C376 1.396 . S
C375 C380 1.390 . S
C376 C370 1.465 . S
C376 C375 1.396 . S
C376 C377 1.399 . S
C377 H363 0.929 . S
C377 C376 1.399 . S
C377 C378 1.385 . S
C378 H364 0.931 . S
C378 C377 1.385 . S
C378 C379 1.389 . S
C379 C378 1.389 . S
C379 C380 1.387 . S
C380 H365 0.930 . S
C380 C375 1.390 . S
C380 C379 1.387 . S
H381 C393 0.930 . S
H382 C395 0.930 . S
H383 C396 0.930 . S
H384 C400 0.959 . S
H385 C400 0.959 . S
H386 C400 0.961 . S
H387 C401 0.960 . S
H388 C401 0.961 . S
H389 C401 0.959 . S
H390 C404 0.929 . S
H391 C405 0.931 . S
H392 C407 0.930 . S
C393 H381 0.930 . S
C393 C394 1.399 . S
C393 C398 1.399 . S
C394 C393 1.399 . S
C394 C395 1.376 . S
C395 H382 0.930 . S
C395 C394 1.376 . S
C395 C396 1.388 . S
C396 H383 0.930 . S
C396 C395 1.388 . S
C396 C397 1.390 . S
C397 C396 1.390 . S
C397 C398 1.394 . S
C397 C403 1.465 . S
C398 C393 1.399 . S
C398 C397 1.394 . S
C398 C399 1.516 . S
C399 C398 1.516 . S
C399 C400 1.502 . S
C399 C401 1.561 . S
C399 C402 1.526 . S
C400 H384 0.959 . S
C400 H385 0.959 . S
C400 H386 0.961 . S
C400 C399 1.502 . S
C401 H387 0.960 . S
C401 H388 0.961 . S
C401 H389 0.959 . S
C401 C399 1.561 . S
C402 C399 1.526 . S
C402 C403 1.396 . S
C402 C407 1.390 . S
C403 C397 1.465 . S
C403 C402 1.396 . S
C403 C404 1.399 . S
C404 H390 0.929 . S
C404 C403 1.399 . S
C404 C405 1.385 . S
C405 H391 0.931 . S
C405 C404 1.385 . S
C405 C406 1.389 . S
C406 C405 1.389 . S
C406 C407 1.387 . S
C407 H392 0.930 . S
C407 C402 1.390 . S
C407 C406 1.387 . S
H408 C420 0.930 . S
H409 C422 0.930 . S
H410 C423 0.930 . S
H411 C427 0.959 . S
H412 C427 0.959 . S
H413 C427 0.961 . S
H414 C428 0.960 . S
H415 C428 0.961 . S
H416 C428 0.959 . S
H417 C431 0.929 . S
H418 C432 0.931 . S
H419 C434 0.930 . S
C420 H408 0.930 . S
C420 C421 1.399 . S
C420 C425 1.399 . S
C421 C420 1.399 . S
C421 C422 1.376 . S
C422 H409 0.930 . S
C422 C421 1.376 . S
C422 C423 1.388 . S
C423 H410 0.930 . S
C423 C422 1.388 . S
C423 C424 1.390 . S
C424 C423 1.390 . S
C424 C425 1.394 . S
C424 C430 1.465 . S
C425 C420 1.399 . S
C425 C424 1.394 . S
C425 C426 1.516 . S
C426 C425 1.516 . S
C426 C427 1.502 . S
C426 C428 1.561 . S
C426 C429 1.526 . S
C427 H411 0.959 . S
C427 H412 0.959 . S
C427 H413 0.961 . S
C427 C426 1.502 . S
C428 H414 0.960 . S
C428 H415 0.961 . S
C428 H416 0.959 . S
C428 C426 1.561 . S
C429 C426 1.526 . S
C429 C430 1.396 . S
C429 C434 1.390 . S
C430 C424 1.465 . S
C430 C429 1.396 . S
C430 C431 1.399 . S
C431 H417 0.929 . S
C431 C430 1.399 . S
C431 C432 1.385 . S
C432 H418 0.931 . S
C432 C431 1.385 . S
C432 C433 1.389 . S
C433 C432 1.389 . S
C433 C434 1.387 . S
C434 H419 0.930 . S
C434 C429 1.390 . S
C434 C433 1.387 . S
H435 C447 0.930 . S
H436 C449 0.930 . S
H437 C450 0.930 . S
H438 C454 0.959 . S
H439 C454 0.959 . S
H440 C454 0.961 . S
H441 C455 0.960 . S
H442 C455 0.961 . S
H443 C455 0.959 . S
H444 C458 0.929 . S
H445 C459 0.931 . S
H446 C461 0.930 . S
C447 H435 0.930 . S
C447 C448 1.399 . S
C447 C452 1.399 . S
C448 C447 1.399 . S
C448 C449 1.376 . S
C449 H436 0.930 . S
C449 C448 1.376 . S
C449 C450 1.388 . S
C450 H437 0.930 . S
C450 C449 1.388 . S
C450 C451 1.390 . S
C451 C450 1.390 . S
C451 C452 1.394 . S
C451 C457 1.465 . S
C452 C447 1.399 . S
C452 C451 1.394 . S
C452 C453 1.516 . S
C453 C452 1.516 . S
C453 C454 1.502 . S
C453 C455 1.561 . S
C453 C456 1.526 . S
C454 H438 0.959 . S
C454 H439 0.959 . S
C454 H440 0.961 . S
C454 C453 1.502 . S
C455 H441 0.960 . S
C455 H442 0.961 . S
C455 H443 0.959 . S
C455 C453 1.561 . S
C456 C453 1.526 . S
C456 C457 1.396 . S
C456 C461 1.390 . S
C457 C451 1.465 . S
C457 C456 1.396 . S
C457 C458 1.399 . S
C458 H444 0.929 . S
C458 C457 1.399 . S
C458 C459 1.385 . S
C459 H445 0.931 . S
C459 C458 1.385 . S
C459 C460 1.389 . S
C460 C459 1.389 . S
C460 C461 1.387 . S
C461 H446 0.930 . S
C461 C456 1.390 . S
C461 C460 1.387 . S
H462 C474 0.930 . S
H463 C476 0.930 . S
H464 C477 0.930 . S
H465 C481 0.959 . S
H466 C481 0.959 . S
H467 C481 0.961 . S
H468 C482 0.960 . S
H469 C482 0.961 . S
H470 C482 0.959 . S
H471 C485 0.929 . S
H472 C486 0.931 . S
H473 C488 0.930 . S
C474 H462 0.930 . S
C474 C475 1.399 . S
C474 C479 1.399 . S
C475 C474 1.399 . S
C475 C476 1.376 . S
C476 H463 0.930 . S
C476 C475 1.376 . S
C476 C477 1.388 . S
C477 H464 0.930 . S
C477 C476 1.388 . S
C477 C478 1.390 . S
C478 C477 1.390 . S
C478 C479 1.394 . S
C478 C484 1.465 . S
C479 C474 1.399 . S
C479 C478 1.394 . S
C479 C480 1.516 . S
C480 C479 1.516 . S
C480 C481 1.502 . S
C480 C482 1.561 . S
C480 C483 1.526 . S
C481 H465 0.959 . S
C481 H466 0.959 . S
C481 H467 0.961 . S
C481 C480 1.502 . S
C482 H468 0.960 . S
C482 H469 0.961 . S
C482 H470 0.959 . S
C482 C480 1.561 . S
C483 C480 1.526 . S
C483 C484 1.396 . S
C483 C488 1.390 . S
C484 C478 1.465 . S
C484 C483 1.396 . S
C484 C485 1.399 . S
C485 H471 0.929 . S
C485 C484 1.399 . S
C485 C486 1.385 . S
C486 H472 0.931 . S
C486 C485 1.385 . S
C486 C487 1.389 . S
C487 C486 1.389 . S
C487 C488 1.387 . S
C488 H473 0.930 . S
C488 C483 1.390 . S
C488 C487 1.387 . S
H489 C501 0.930 . S
H490 C503 0.930 . S
H491 C504 0.930 . S
H492 C508 0.959 . S
H493 C508 0.959 . S
H494 C508 0.961 . S
H495 C509 0.960 . S
H496 C509 0.961 . S
H497 C509 0.959 . S
H498 C512 0.929 . S
H499 C513 0.931 . S
H500 C515 0.930 . S
C501 H489 0.930 . S
C501 C502 1.399 . S
C501 C506 1.399 . S
C502 C501 1.399 . S
C502 C503 1.376 . S
C503 H490 0.930 . S
C503 C502 1.376 . S
C503 C504 1.388 . S
C504 H491 0.930 . S
C504 C503 1.388 . S
C504 C505 1.390 . S
C505 C504 1.390 . S
C505 C506 1.394 . S
C505 C511 1.465 . S
C506 C501 1.399 . S
C506 C505 1.394 . S
C506 C507 1.516 . S
C507 C506 1.516 . S
C507 C508 1.502 . S
C507 C509 1.561 . S
C507 C510 1.526 . S
C508 H492 0.959 . S
C508 H493 0.959 . S
C508 H494 0.961 . S
C508 C507 1.502 . S
C509 H495 0.960 . S
C509 H496 0.961 . S
C509 H497 0.959 . S
C509 C507 1.561 . S
C510 C507 1.526 . S
C510 C511 1.396 . S
C510 C515 1.390 . S
C511 C505 1.465 . S
C511 C510 1.396 . S
C511 C512 1.399 . S
C512 H498 0.929 . S
C512 C511 1.399 . S
C512 C513 1.385 . S
C513 H499 0.931 . S
C513 C512 1.385 . S
C513 C514 1.389 . S
C514 C513 1.389 . S
C514 C515 1.387 . S
C515 H500 0.930 . S
C515 C510 1.390 . S
C515 C514 1.387 . S
H516 C528 0.930 . S
H517 C530 0.930 . S
H518 C531 0.930 . S
H519 C535 0.959 . S
H520 C535 0.959 . S
H521 C535 0.961 . S
H522 C536 0.960 . S
H523 C536 0.961 . S
H524 C536 0.959 . S
H525 C539 0.929 . S
H526 C540 0.931 . S
H527 C542 0.930 . S
C528 H516 0.930 . S
C528 C529 1.399 . S
C528 C533 1.399 . S
C529 C528 1.399 . S
C529 C530 1.376 . S
C530 H517 0.930 . S
C530 C529 1.376 . S
C530 C531 1.388 . S
C531 H518 0.930 . S
C531 C530 1.388 . S
C531 C532 1.390 . S
C532 C531 1.390 . S
C532 C533 1.394 . S
C532 C538 1.465 . S
C533 C528 1.399 . S
C533 C532 1.394 . S
C533 C534 1.516 . S
C534 C533 1.516 . S
C534 C535 1.502 . S
C534 C536 1.561 . S
C534 C537 1.526 . S
C535 H519 0.959 . S
C535 H520 0.959 . S
C535 H521 0.961 . S
C535 C534 1.502 . S
C536 H522 0.960 . S
C536 H523 0.961 . S
C536 H524 0.959 . S
C536 C534 1.561 . S
C537 C534 1.526 . S
C537 C538 1.396 . S
C537 C542 1.390 . S
C538 C532 1.465 . S
C538 C537 1.396 . S
C538 C539 1.399 . S
C539 H525 0.929 . S
C539 C538 1.399 . S
C539 C540 1.385 . S
C540 H526 0.931 . S
C540 C539 1.385 . S
C540 C541 1.389 . S
C541 C540 1.389 . S
C541 C542 1.387 . S
C542 H527 0.930 . S
C542 C537 1.390 . S
C542 C541 1.387 . S
H543 C555 0.930 . S
H544 C557 0.930 . S
H545 C558 0.930 . S
H546 C562 0.959 . S
H547 C562 0.959 . S
H548 C562 0.961 . S
H549 C563 0.960 . S
H550 C563 0.961 . S
H551 C563 0.959 . S
H552 C566 0.929 . S
H553 C567 0.931 . S
H554 C569 0.930 . S
C555 H543 0.930 . S
C555 C556 1.399 . S
C555 C560 1.399 . S
C556 C555 1.399 . S
C556 C557 1.376 . S
C557 H544 0.930 . S
C557 C556 1.376 . S
C557 C558 1.388 . S
C558 H545 0.930 . S
C558 C557 1.388 . S
C558 C559 1.390 . S
C559 C558 1.390 . S
C559 C560 1.394 . S
C559 C565 1.465 . S
C560 C555 1.399 . S
C560 C559 1.394 . S
C560 C561 1.516 . S
C561 C560 1.516 . S
C561 C562 1.502 . S
C561 C563 1.561 . S
C561 C564 1.526 . S
C562 H546 0.959 . S
C562 H547 0.959 . S
C562 H548 0.961 . S
C562 C561 1.502 . S
C563 H549 0.960 . S
C563 H550 0.961 . S
C563 H551 0.959 . S
C563 C561 1.561 . S
C564 C561 1.526 . S
C564 C565 1.396 . S
C564 C569 1.390 . S
C565 C559 1.465 . S
C565 C564 1.396 . S
C565 C566 1.399 . S
C566 H552 0.929 . S
C566 C565 1.399 . S
C566 C567 1.385 . S
C567 H553 0.931 . S
C567 C566 1.385 . S
C567 C568 1.389 . S
C568 C567 1.389 . S
C568 C569 1.387 . S
C569 H554 0.930 . S
C569 C564 1.390 . S
C569 C568 1.387 . S
H570 C582 0.930 . S
H571 C584 0.930 . S
H572 C585 0.930 . S
H573 C589 0.959 . S
H574 C589 0.959 . S
H575 C589 0.961 . S
H576 C590 0.960 . S
H577 C590 0.961 . S
H578 C590 0.959 . S
H579 C593 0.929 . S
H580 C594 0.931 . S
H581 C596 0.930 . S
C582 H570 0.930 . S
C582 C583 1.399 . S
C582 C587 1.399 . S
C583 C582 1.399 . S
C583 C584 1.376 . S
C584 H571 0.930 . S
C584 C583 1.376 . S
C584 C585 1.388 . S
C585 H572 0.930 . S
C585 C584 1.388 . S
C585 C586 1.390 . S
C586 C585 1.390 . S
C586 C587 1.394 . S
C586 C592 1.465 . S
C587 C582 1.399 . S
C587 C586 1.394 . S
C587 C588 1.516 . S
C588 C587 1.516 . S
C588 C589 1.502 . S
C588 C590 1.561 . S
C588 C591 1.526 . S
C589 H573 0.959 . S
C589 H574 0.959 . S
C589 H575 0.961 . S
C589 C588 1.502 . S
C590 H576 0.960 . S
C590 H577 0.961 . S
C590 H578 0.959 . S
C590 C588 1.561 . S
C591 C588 1.526 . S
C591 C592 1.396 . S
C591 C596 1.390 . S
C592 C586 1.465 . S
C592 C591 1.396 . S
C592 C593 1.399 . S
C593 H579 0.929 . S
C593 C592 1.399 . S
C593 C594 1.385 . S
C594 H580 0.931 . S
C594 C593 1.385 . S
C594 C595 1.389 . S
C595 C594 1.389 . S
C595 C596 1.387 . S
C596 H581 0.930 . S
C596 C591 1.390 . S
C596 C595 1.387 . S
H597 C609 0.930 . S
H598 C611 0.930 . S
H599 C612 0.930 . S
H600 C616 0.959 . S
H601 C616 0.959 . S
H602 C616 0.961 . S
H603 C617 0.960 . S
H604 C617 0.961 . S
H605 C617 0.959 . S
H606 C620 0.929 . S
H607 C621 0.931 . S
H608 C623 0.930 . S
C609 H597 0.930 . S
C609 C610 1.399 . S
C609 C614 1.399 . S
C610 C609 1.399 . S
C610 C611 1.376 . S
C611 H598 0.930 . S
C611 C610 1.376 . S
C611 C612 1.388 . S
C612 H599 0.930 . S
C612 C611 1.388 . S
C612 C613 1.390 . S
C613 C612 1.390 . S
C613 C614 1.394 . S
C613 C619 1.465 . S
C614 C609 1.399 . S
C614 C613 1.394 . S
C614 C615 1.516 . S
C615 C614 1.516 . S
C615 C616 1.502 . S
C615 C617 1.561 . S
C615 C618 1.526 . S
C616 H600 0.959 . S
C616 H601 0.959 . S
C616 H602 0.961 . S
C616 C615 1.502 . S
C617 H603 0.960 . S
C617 H604 0.961 . S
C617 H605 0.959 . S
C617 C615 1.561 . S
C618 C615 1.526 . S
C618 C619 1.396 . S
C618 C623 1.390 . S
C619 C613 1.465 . S
C619 C618 1.396 . S
C619 C620 1.399 . S
C620 H606 0.929 . S
C620 C619 1.399 . S
C620 C621 1.385 . S
C621 H607 0.931 . S
C621 C620 1.385 . S
C621 C622 1.389 . S
C622 C621 1.389 . S
C622 C623 1.387 . S
C623 H608 0.930 . S
C623 C618 1.390 . S
C623 C622 1.387 . S
H624 C636 0.930 . S
H625 C638 0.930 . S
H626 C639 0.930 . S
H627 C643 0.959 . S
H628 C643 0.959 . S
H629 C643 0.961 . S
H630 C644 0.960 . S
H631 C644 0.961 . S
H632 C644 0.959 . S
H633 C647 0.929 . S
H634 C648 0.931 . S
H635 C650 0.930 . S
C636 H624 0.930 . S
C636 C637 1.399 . S
C636 C641 1.399 . S
C637 C636 1.399 . S
C637 C638 1.376 . S
C638 H625 0.930 . S
C638 C637 1.376 . S
C638 C639 1.388 . S
C639 H626 0.930 . S
C639 C638 1.388 . S
C639 C640 1.390 . S
C640 C639 1.390 . S
C640 C641 1.394 . S
C640 C646 1.465 . S
C641 C636 1.399 . S
C641 C640 1.394 . S
C641 C642 1.516 . S
C642 C641 1.516 . S
C642 C643 1.502 . S
C642 C644 1.561 . S
C642 C645 1.526 . S
C643 H627 0.959 . S
C643 H628 0.959 . S
C643 H629 0.961 . S
C643 C642 1.502 . S
C644 H630 0.960 . S
C644 H631 0.961 . S
C644 H632 0.959 . S
C644 C642 1.561 . S
C645 C642 1.526 . S
C645 C646 1.396 . S
C645 C650 1.390 . S
C646 C640 1.465 . S
C646 C645 1.396 . S
C646 C647 1.399 . S
C647 H633 0.929 . S
C647 C646 1.399 . S
C647 C648 1.385 . S
C648 H634 0.931 . S
C648 C647 1.385 . S
C648 C649 1.389 . S
C649 C648 1.389 . S
C649 C650 1.387 . S
C650 H635 0.930 . S
C650 C645 1.390 . S
C650 C649 1.387 . S
H651 C663 0.930 . S
H652 C665 0.930 . S
H653 C666 0.930 . S
H654 C670 0.959 . S
H655 C670 0.959 . S
H656 C670 0.961 . S
H657 C671 0.960 . S
H658 C671 0.961 . S
H659 C671 0.959 . S
H660 C674 0.929 . S
H661 C675 0.931 . S
H662 C677 0.930 . S
C663 H651 0.930 . S
C663 C664 1.399 . S
C663 C668 1.399 . S
C664 C663 1.399 . S
C664 C665 1.376 . S
C665 H652 0.930 . S
C665 C664 1.376 . S
C665 C666 1.388 . S
C666 H653 0.930 . S
C666 C665 1.388 . S
C666 C667 1.390 . S
C667 C666 1.390 . S
C667 C668 1.394 . S
C667 C673 1.465 . S
C668 C663 1.399 . S
C668 C667 1.394 . S
C668 C669 1.516 . S
C669 C668 1.516 . S
C669 C670 1.502 . S
C669 C671 1.561 . S
C669 C672 1.526 . S
C670 H654 0.959 . S
C670 H655 0.959 . S
C670 H656 0.961 . S
C670 C669 1.502 . S
C671 H657 0.960 . S
C671 H658 0.961 . S
C671 H659 0.959 . S
C671 C669 1.561 . S
C672 C669 1.526 . S
C672 C673 1.396 . S
C672 C677 1.390 . S
C673 C667 1.465 . S
C673 C672 1.396 . S
C673 C674 1.399 . S
C674 H660 0.929 . S
C674 C673 1.399 . S
C674 C675 1.385 . S
C675 H661 0.931 . S
C675 C674 1.385 . S
C675 C676 1.389 . S
C676 C675 1.389 . S
C676 C677 1.387 . S
C677 H662 0.930 . S
C677 C672 1.390 . S
C677 C676 1.387 . S
H678 C690 0.930 . S
H679 C692 0.930 . S
H680 C693 0.930 . S
H681 C697 0.959 . S
H682 C697 0.959 . S
H683 C697 0.961 . S
H684 C698 0.960 . S
H685 C698 0.961 . S
H686 C698 0.959 . S
H687 C701 0.929 . S
H688 C702 0.931 . S
H689 C704 0.930 . S
C690 H678 0.930 . S
C690 C691 1.399 . S
C690 C695 1.399 . S
C691 C690 1.399 . S
C691 C692 1.376 . S
C692 H679 0.930 . S
C692 C691 1.376 . S
C692 C693 1.388 . S
C693 H680 0.930 . S
C693 C692 1.388 . S
C693 C694 1.390 . S
C694 C693 1.390 . S
C694 C695 1.394 . S
C694 C700 1.465 . S
C695 C690 1.399 . S
C695 C694 1.394 . S
C695 C696 1.516 . S
C696 C695 1.516 . S
C696 C697 1.502 1_455 S
C696 C698 1.561 . S
C696 C699 1.526 . S
C697 H681 0.959 . S
C697 H682 0.959 . S
C697 H683 0.961 . S
C697 C696 1.502 1_655 S
C698 H684 0.960 . S
C698 H685 0.961 . S
C698 H686 0.959 . S
C698 C696 1.561 . S
C699 C696 1.526 . S
C699 C700 1.396 . S
C699 C704 1.390 . S
C700 C694 1.465 . S
C700 C699 1.396 . S
C700 C701 1.399 . S
C701 H687 0.929 . S
C701 C700 1.399 . S
C701 C702 1.385 . S
C702 H688 0.931 . S
C702 C701 1.385 . S
C702 C703 1.389 . S
C703 C702 1.389 . S
C703 C704 1.387 . S
C704 H689 0.930 . S
C704 C699 1.390 . S
C704 C703 1.387 . S
H705 C717 0.930 . S
H706 C719 0.930 . S
H707 C720 0.930 . S
H708 C724 0.959 . S
H709 C724 0.959 . S
H710 C724 0.961 . S
H711 C725 0.960 . S
H712 C725 0.961 . S
H713 C725 0.959 . S
H714 C728 0.929 . S
H715 C729 0.931 . S
H716 C731 0.930 1_565 S
C717 H705 0.930 . S
C717 C718 1.399 1_565 S
C717 C722 1.399 . S
C718 C717 1.399 1_545 S
C718 C719 1.376 . S
C719 H706 0.930 . S
C719 C718 1.376 . S
C719 C720 1.388 . S
C720 H707 0.930 . S
C720 C719 1.388 . S
C720 C721 1.390 . S
C721 C720 1.390 . S
C721 C722 1.394 1_545 S
C721 C727 1.465 . S
C722 C717 1.399 . S
C722 C721 1.394 1_565 S
C722 C723 1.516 . S
C723 C722 1.516 . S
C723 C724 1.502 . S
C723 C725 1.561 . S
C723 C726 1.526 1_565 S
C724 H708 0.959 . S
C724 H709 0.959 . S
C724 H710 0.961 . S
C724 C723 1.502 . S
C725 H711 0.960 . S
C725 H712 0.961 . S
C725 H713 0.959 . S
C725 C723 1.561 . S
C726 C723 1.526 1_545 S
C726 C727 1.396 . S
C726 C731 1.390 . S
C727 C721 1.465 . S
C727 C726 1.396 . S
C727 C728 1.399 . S
C728 H714 0.929 . S
C728 C727 1.399 . S
C728 C729 1.385 . S
C729 H715 0.931 . S
C729 C728 1.385 . S
C729 C730 1.389 . S
C730 C729 1.389 . S
C730 C731 1.387 . S
C731 H716 0.930 1_545 S
C731 C726 1.390 . S
C731 C730 1.387 . S
H732 C744 0.930 . S
H733 C746 0.930 . S
H734 C747 0.930 . S
H735 C751 0.959 . S
H736 C751 0.959 . S
H737 C751 0.961 . S
H738 C752 0.960 . S
H739 C752 0.961 . S
H740 C752 0.959 . S
H741 C755 0.929 . S
H742 C756 0.931 . S
H743 C758 0.930 . S
C744 H732 0.930 . S
C744 C745 1.399 . S
C744 C749 1.399 . S
C745 C744 1.399 . S
C745 C746 1.376 . S
C746 H733 0.930 . S
C746 C745 1.376 . S
C746 C747 1.388 . S
C747 H734 0.930 . S
C747 C746 1.388 . S
C747 C748 1.390 . S
C748 C747 1.390 . S
C748 C749 1.394 . S
C748 C754 1.465 . S
C749 C744 1.399 . S
C749 C748 1.394 . S
C749 C750 1.516 . S
C750 C749 1.516 . S
C750 C751 1.502 . S
C750 C752 1.561 . S
C750 C753 1.526 . S
C751 H735 0.959 . S
C751 H736 0.959 . S
C751 H737 0.961 . S
C751 C750 1.502 . S
C752 H738 0.960 . S
C752 H739 0.961 . S
C752 H740 0.959 . S
C752 C750 1.561 . S
C753 C750 1.526 . S
C753 C754 1.396 . S
C753 C758 1.390 . S
C754 C748 1.465 . S
C754 C753 1.396 . S
C754 C755 1.399 . S
C755 H741 0.929 . S
C755 C754 1.399 . S
C755 C756 1.385 . S
C756 H742 0.931 . S
C756 C755 1.385 . S
C756 C757 1.389 . S
C757 C756 1.389 . S
C757 C758 1.387 . S
C758 H743 0.930 . S
C758 C753 1.390 . S
C758 C757 1.387 . S
H759 C771 0.930 . S
H760 C773 0.930 . S
H761 C774 0.930 . S
H762 C778 0.959 . S
H763 C778 0.959 . S
H764 C778 0.961 . S
H765 C779 0.960 . S
H766 C779 0.961 . S
H767 C779 0.959 . S
H768 C782 0.929 . S
H769 C783 0.931 . S
H770 C785 0.930 . S
C771 H759 0.930 . S
C771 C772 1.399 1_565 S
C771 C776 1.399 . S
C772 C771 1.399 1_545 S
C772 C773 1.376 . S
C773 H760 0.930 . S
C773 C772 1.376 . S
C773 C774 1.388 . S
C774 H761 0.930 . S
C774 C773 1.388 . S
C774 C775 1.390 . S
C775 C774 1.390 . S
C775 C776 1.394 1_545 S
C775 C781 1.465 . S
C776 C771 1.399 . S
C776 C775 1.394 1_565 S
C776 C777 1.516 . S
C777 C776 1.516 . S
C777 C778 1.502 . S
C777 C779 1.561 . S
C777 C780 1.526 . S
C778 H762 0.959 . S
C778 H763 0.959 . S
C778 H764 0.961 . S
C778 C777 1.502 . S
C779 H765 0.960 . S
C779 H766 0.961 . S
C779 H767 0.959 . S
C779 C777 1.561 . S
C780 C777 1.526 . S
C780 C781 1.396 1_565 S
C780 C785 1.390 . S
C781 C775 1.465 . S
C781 C780 1.396 1_545 S
C781 C782 1.399 . S
C782 H768 0.929 . S
C782 C781 1.399 . S
C782 C783 1.385 . S
C783 H769 0.931 . S
C783 C782 1.385 . S
C783 C784 1.389 . S
C784 C783 1.389 . S
C784 C785 1.387 1_545 S
C785 H770 0.930 . S
C785 C780 1.390 . S
C785 C784 1.387 1_565 S
H786 C798 0.930 . S
H787 C800 0.930 . S
H788 C801 0.930 . S
H789 C805 0.959 . S
H790 C805 0.959 . S
H791 C805 0.961 . S
H792 C806 0.960 . S
H793 C806 0.961 . S
H794 C806 0.959 . S
H795 C809 0.929 . S
H796 C810 0.931 1_554 S
H797 C812 0.930 . S
C798 H786 0.930 . S
C798 C799 1.399 . S
C798 C803 1.399 . S
C799 C798 1.399 . S
C799 C800 1.376 . S
C800 H787 0.930 . S
C800 C799 1.376 . S
C800 C801 1.388 . S
C801 H788 0.930 . S
C801 C800 1.388 . S
C801 C802 1.390 . S
C802 C801 1.390 . S
C802 C803 1.394 . S
C802 C808 1.465 . S
C803 C798 1.399 . S
C803 C802 1.394 . S
C803 C804 1.516 . S
C804 C803 1.516 . S
C804 C805 1.502 . S
C804 C806 1.561 . S
C804 C807 1.526 . S
C805 H789 0.959 . S
C805 H790 0.959 . S
C805 H791 0.961 . S
C805 C804 1.502 . S
C806 H792 0.960 . S
C806 H793 0.961 . S
C806 H794 0.959 . S
C806 C804 1.561 . S
C807 C804 1.526 . S
C807 C808 1.396 . S
C807 C812 1.390 . S
C808 C802 1.465 . S
C808 C807 1.396 . S
C808 C809 1.399 . S
C809 H795 0.929 . S
C809 C808 1.399 . S
C809 C810 1.385 . S
C810 H796 0.931 1_556 S
C810 C809 1.385 . S
C810 C811 1.389 . S
C811 C810 1.389 . S
C811 C812 1.387 . S
C812 H797 0.930 . S
C812 C807 1.390 . S
C812 C811 1.387 . S
H813 C825 0.930 . S
H814 C827 0.930 . S
H815 C828 0.930 . S
H816 C832 0.959 . S
H817 C832 0.959 . S
H818 C832 0.961 . S
H819 C833 0.960 . S
H820 C833 0.961 . S
H821 C833 0.958 1_455 S
H822 C836 0.929 . S
H823 C837 0.931 . S
H824 C839 0.930 . S
C825 H813 0.930 . S
C825 C826 1.399 1_655 S
C825 C830 1.399 . S
C826 C825 1.399 1_455 S
C826 C827 1.376 . S
C827 H814 0.930 . S
C827 C826 1.376 . S
C827 C828 1.388 . S
C828 H815 0.930 . S
C828 C827 1.388 . S
C828 C829 1.390 . S
C829 C828 1.390 . S
C829 C830 1.394 1_455 S
C829 C835 1.465 . S
C830 C825 1.399 . S
C830 C829 1.394 1_655 S
C830 C831 1.516 . S
C831 C830 1.516 . S
C831 C832 1.502 . S
C831 C833 1.561 . S
C831 C834 1.526 . S
C832 H816 0.959 . S
C832 H817 0.959 . S
C832 H818 0.961 . S
C832 C831 1.502 . S
C833 H819 0.960 . S
C833 H820 0.961 . S
C833 H821 0.958 1_655 S
C833 C831 1.561 . S
C834 C831 1.526 . S
C834 C835 1.396 1_655 S
C834 C839 1.390 . S
C835 C829 1.465 . S
C835 C834 1.396 1_455 S
C835 C836 1.399 . S
C836 H822 0.929 . S
C836 C835 1.399 . S
C836 C837 1.385 . S
C837 H823 0.931 . S
C837 C836 1.385 . S
C837 C838 1.389 . S
C838 C837 1.389 . S
C838 C839 1.387 1_455 S
C839 H824 0.930 . S
C839 C834 1.390 . S
C839 C838 1.387 1_655 S
C367 C12 2.947 . S
C379 C331 2.887 . S
C394 C52 2.944 . S
C406 C258 2.899 . S
C421 C111 3.000 . S
C433 C297 2.958 . S
C448 C31 3.125 . S
C460 C336 3.074 . S
C487 C253 3.052 . S
C475 C71 3.132 . S
C514 C292 2.998 . S
C502 C92 3.072 . S
C529 C48 0.401 . S
C541 C180 0.507 . S
C556 C109 0.420 . S
C568 C214 0.464 . S
C583 C29 0.623 . S
C595 C136 0.445 . S
C622 C175 0.285 . S
C610 C69 0.361 . S
C649 C219 0.283 . S
C637 C88 0.312 . S
C664 C8 0.239 . S
C676 C141 0.251 . S
C703 C199 1.071 1_554 S
C691 C17 1.043 . S
C718 C57 1.091 . S
C730 C121 1.081 . S
C745 C97 1.090 . S
C757 C160 1.086 . S
C784 C277 1.781 . S
C772 C42 1.737 . S
C811 C316 1.776 1_556 S
C799 C82 1.700 . S
C826 C2 1.711 . S
C838 C238 1.781 . S
