# Generated by pormake.
# Topology sqc, (4,8)-cn, num edge types: 1
# Building blocks:
#     Node 0, Type 0, BuildingBlock: GIZVER_clean_linker_0, # of connection points: 4
#     Node 1, Type 0, BuildingBlock: GIZVER_clean_linker_0, # of connection points: 4
#     Node 2, Type 0, BuildingBlock: GIZVER_clean_linker_0, # of connection points: 4
#     Node 3, Type 0, BuildingBlock: GIZVER_clean_linker_0, # of connection points: 4
#     Node 4, Type 0, BuildingBlock: GIZVER_clean_linker_0, # of connection points: 4
#     Node 5, Type 0, BuildingBlock: GIZVER_clean_linker_0, # of connection points: 4
#     Node 6, Type 0, BuildingBlock: GIZVER_clean_linker_0, # of connection points: 4
#     Node 7, Type 0, BuildingBlock: GIZVER_clean_linker_0, # of connection points: 4
#     Node 8, Type 1, BuildingBlock: VETTIZ_charged_sbu_0, # of connection points: 8
#     Node 9, Type 1, BuildingBlock: VETTIZ_charged_sbu_0, # of connection points: 8
#     Node 10, Type 1, BuildingBlock: VETTIZ_charged_sbu_0, # of connection points: 8
#     Node 11, Type 1, BuildingBlock: VETTIZ_charged_sbu_0, # of connection points: 8
#     Edge 12, Type (0, 1), BuildingBlock: OJICUG_clean_linker_0, # of connection points: 2
#     Edge 13, Type (0, 1), BuildingBlock: OJICUG_clean_linker_0, # of connection points: 2
#     Edge 14, Type (0, 1), BuildingBlock: OJICUG_clean_linker_0, # of connection points: 2
#     Edge 15, Type (0, 1), BuildingBlock: OJICUG_clean_linker_0, # of connection points: 2
#     Edge 16, Type (0, 1), BuildingBlock: OJICUG_clean_linker_0, # of connection points: 2
#     Edge 17, Type (0, 1), BuildingBlock: OJICUG_clean_linker_0, # of connection points: 2
#     Edge 18, Type (0, 1), BuildingBlock: OJICUG_clean_linker_0, # of connection points: 2
#     Edge 19, Type (0, 1), BuildingBlock: OJICUG_clean_linker_0, # of connection points: 2
#     Edge 20, Type (0, 1), BuildingBlock: OJICUG_clean_linker_0, # of connection points: 2
#     Edge 21, Type (0, 1), BuildingBlock: OJICUG_clean_linker_0, # of connection points: 2
#     Edge 22, Type (0, 1), BuildingBlock: OJICUG_clean_linker_0, # of connection points: 2
#     Edge 23, Type (0, 1), BuildingBlock: OJICUG_clean_linker_0, # of connection points: 2
#     Edge 24, Type (0, 1), BuildingBlock: OJICUG_clean_linker_0, # of connection points: 2
#     Edge 25, Type (0, 1), BuildingBlock: OJICUG_clean_linker_0, # of connection points: 2
#     Edge 26, Type (0, 1), BuildingBlock: OJICUG_clean_linker_0, # of connection points: 2
#     Edge 27, Type (0, 1), BuildingBlock: OJICUG_clean_linker_0, # of connection points: 2
#     Edge 28, Type (0, 1), BuildingBlock: OJICUG_clean_linker_0, # of connection points: 2
#     Edge 29, Type (0, 1), BuildingBlock: OJICUG_clean_linker_0, # of connection points: 2
#     Edge 30, Type (0, 1), BuildingBlock: OJICUG_clean_linker_0, # of connection points: 2
#     Edge 31, Type (0, 1), BuildingBlock: OJICUG_clean_linker_0, # of connection points: 2
#     Edge 32, Type (0, 1), BuildingBlock: OJICUG_clean_linker_0, # of connection points: 2
#     Edge 33, Type (0, 1), BuildingBlock: OJICUG_clean_linker_0, # of connection points: 2
#     Edge 34, Type (0, 1), BuildingBlock: OJICUG_clean_linker_0, # of connection points: 2
#     Edge 35, Type (0, 1), BuildingBlock: OJICUG_clean_linker_0, # of connection points: 2
#     Edge 36, Type (0, 1), BuildingBlock: OJICUG_clean_linker_0, # of connection points: 2
#     Edge 37, Type (0, 1), BuildingBlock: OJICUG_clean_linker_0, # of connection points: 2
#     Edge 38, Type (0, 1), BuildingBlock: OJICUG_clean_linker_0, # of connection points: 2
#     Edge 39, Type (0, 1), BuildingBlock: OJICUG_clean_linker_0, # of connection points: 2
#     Edge 40, Type (0, 1), BuildingBlock: OJICUG_clean_linker_0, # of connection points: 2
#     Edge 41, Type (0, 1), BuildingBlock: OJICUG_clean_linker_0, # of connection points: 2
#     Edge 42, Type (0, 1), BuildingBlock: OJICUG_clean_linker_0, # of connection points: 2
#     Edge 43, Type (0, 1), BuildingBlock: OJICUG_clean_linker_0, # of connection points: 2
# Relax obj value: 0.167
# Max RMSD: 0.279
# Mean RMSD: 0.219
data_MOF--net-sqc--node1-VETTIZ_charged_sbu_0--node2-GIZVER_clean_linker_0--edge1-OJICUG_clean_linker_0
_symmetry_space_group_name_H-M    P1
_symmetry_Int_Tables_number       1
_symmetry_cell_setting            triclinic
loop_
_symmetry_equiv_pos_as_xyz
'x, y, z'
_cell_length_a     18.592555
_cell_length_b     18.579257
_cell_length_c     52.652702
_cell_angle_alpha  89.617559
_cell_angle_beta   90.111251
_cell_angle_gamma 89.792025
loop_
_atom_site_label
_atom_site_type_symbol
_atom_site_fract_x
_atom_site_fract_y
_atom_site_fract_z
_atom_type_partial_charge
H0 H 0.92328 0.03005 0.45325 0.0
H1 H 0.9546 0.13785 0.52441 0.0
H2 H 0.77118 1.00294 0.51371 0.0
H3 H 0.99631 0.13734 0.45528 0.0
H4 H 0.99754 0.19026 0.48327 0.0
H5 H 0.1066 0.0883 0.4429 0.0
H6 H 0.28477 0.0773 0.49461 0.0
H7 H 0.07604 0.13551 0.52236 0.0
C8 C 0.90732 0.03893 0.47275 0.0
C9 C 0.84422 1.00652 0.48222 0.0
C10 C 0.94766 0.08649 0.48798 0.0
C11 C 0.92546 0.09942 0.51306 0.0
C12 C 0.86252 0.06817 0.52278 0.0
C13 C 0.82288 0.02201 0.50716 0.0
C14 C 1.00464 0.13438 0.4762 0.0
C15 C 0.08131 0.11168 0.48212 0.0
C16 C 0.12751 0.09236 0.46207 0.0
C17 C 0.20126 0.08142 0.46643 0.0
C18 C 0.22798 0.08668 0.49121 0.0
C19 C 0.1832 0.1044 0.51161 0.0
C20 C 0.10994 0.1183 0.50689 0.0
H21 H 0.38912 0.86591 0.7216 0.0
H22 H 0.28521 0.82535 0.79367 0.0
H23 H 0.27806 0.03568 0.76018 0.0
H24 H 0.4065 0.75266 0.7411 0.0
H25 H 0.39743 0.75131 0.77469 0.0
H26 H 0.33234 0.67686 0.71608 0.0
H27 H 0.17229 0.54501 0.753 0.0
H28 H 0.28779 0.70223 0.79531 0.0
C29 C 0.35499 0.88346 0.73705 0.0
C30 C 0.33542 0.95624 0.73865 0.0
C31 C 0.3357 0.83477 0.75658 0.0
C32 C 0.29637 0.86031 0.77768 0.0
C33 C 0.27568 0.93281 0.77891 0.0
C34 C 0.29331 0.97932 0.75899 0.0
C35 C 0.36684 0.75939 0.75671 0.0
C36 C 0.30969 0.70189 0.75501 0.0
C37 C 0.29898 0.66367 0.73225 0.0
C38 C 0.25174 0.60414 0.73136 0.0
C39 C 0.2104 0.58895 0.75307 0.0
C40 C 0.22479 0.6229 0.77616 0.0
C41 C 0.27404 0.67925 0.77709 0.0
H42 H 0.62066 1.00563 0.04037 0.0
H43 H 0.57768 0.04609 0.96127 0.0
H44 H 0.76818 0.93009 0.98445 0.0
H45 H 0.53868 0.09855 0.02837 0.0
H46 H 0.5377 0.12893 -0.0035 0.0
H47 H 0.45574 0.98854 0.04028 0.0
H48 H 0.24491 0.02809 0.00982 0.0
H49 H 0.42816 0.12281 0.97338 0.0
C50 C 0.63354 0.99677 0.02057 0.0
C51 C 0.69921 0.9635 0.01429 0.0
C52 C 0.58828 0.02562 0.00138 0.0
C53 C 0.61008 0.01986 0.97573 0.0
C54 C 0.67684 0.98783 0.96916 0.0
C55 C 0.71727 0.95544 -0.01131 0.0
C56 C 0.53018 0.08007 0.00853 0.0
C57 C 0.45235 0.05544 0.0063 0.0
C58 C 0.42176 1.01214 0.02568 0.0
C59 C 0.34667 1.00325 0.02695 0.0
C60 C 0.30274 0.03578 0.00874 0.0
C61 C 0.33113 0.07857 -0.0106 0.0
C62 C 0.40623 0.0875 0.98785 0.0
H63 H 0.22395 0.21879 0.21654 0.0
H64 H 0.28734 0.17929 0.29397 0.0
H65 H 0.34502 0.02861 0.23639 0.0
H66 H 0.15477 0.26457 0.25468 0.0
H67 H 0.19496 0.26386 0.2851 0.0
H68 H 0.16382 0.36872 0.22823 0.0
H69 H 0.26901 0.55403 0.25896 0.0
H70 H 0.30344 0.34729 0.29381 0.0
C71 C 0.25427 0.18706 0.23019 0.0
C72 C 0.28376 0.11972 0.22296 0.0
C73 C 0.25702 0.21039 0.25572 0.0
C74 C 0.29028 0.16528 0.27405 0.0
C75 C 0.32029 0.09863 0.26709 0.0
C76 C 0.32126 0.07973 0.2414 0.0
C77 C 0.20734 0.27075 0.26456 0.0
C78 C 0.23393 0.34746 0.26055 0.0
C79 C 0.20162 0.39163 0.2416 0.0
C80 C 0.21317 0.46646 0.24138 0.0
C81 C 0.25948 0.49636 0.25926 0.0
C82 C 0.29201 0.45447 0.27808 0.0
C83 C 0.2799 0.37965 0.27873 0.0
H84 H 0.66229 0.34274 0.27277 0.0
H85 H 0.77074 0.37676 0.20165 0.0
H86 H 0.80001 0.52478 0.2629 0.0
H87 H 0.61071 0.30043 0.23171 0.0
H88 H 0.66298 0.3045 0.20347 0.0
H89 H 0.67393 0.22237 0.27025 0.0
H90 H 0.72717 1.01414 0.24116 0.0
H91 H 0.70618 0.19306 0.18978 0.0
C92 C 0.70123 0.37197 0.26155 0.0
C93 C 0.73384 0.43353 0.27166 0.0
C94 C 0.71407 0.35103 0.23632 0.0
C95 C 0.76204 0.39167 0.22126 0.0
C96 C 0.79501 0.45389 0.23101 0.0
C97 C 0.78022 0.47367 0.25613 0.0
C98 C 0.66641 0.29458 0.2243 0.0
C99 C 0.6902 0.21779 0.22953 0.0
C100 C 0.68824 0.18877 0.25438 0.0
C101 C 0.70295 0.11548 0.25875 0.0
C102 C 0.71711 0.071 0.23797 0.0
C103 C 0.71771 0.09805 0.21311 0.0
C104 C 0.70572 0.17187 0.20901 0.0
H105 H 0.73298 0.71832 0.71727 0.0
H106 H 0.77415 0.67022 0.79597 0.0
H107 H 0.84869 0.52619 0.73863 0.0
H108 H 0.65155 0.75738 0.75465 0.0
H109 H 0.6907 0.76251 0.78528 0.0
H110 H 0.65445 0.86181 0.72802 0.0
H111 H 0.77365 0.04593 0.75277 0.0
H112 H 0.80377 0.84329 0.79092 0.0
C113 C 0.75916 0.6849 0.73148 0.0
C114 C 0.78989 0.61813 0.72449 0.0
C115 C 0.75446 0.70527 0.75721 0.0
C116 C 0.78252 0.65822 0.77608 0.0
C117 C 0.81533 0.59259 0.76931 0.0
C118 C 0.8231 0.5765 0.74352 0.0
C119 C 0.70351 0.76595 0.76468 0.0
C120 C 0.72993 0.84175 0.75897 0.0
C121 C 0.69579 0.88472 0.74 0.0
C122 C 0.71118 0.95878 0.73797 0.0
C123 C 0.76226 0.98871 0.75413 0.0
C124 C 0.79536 0.94795 0.77315 0.0
C125 C 0.77973 0.87432 0.77558 0.0
H126 H 0.46429 0.50562 0.04368 0.0
H127 H 0.40693 0.39906 0.97392 0.0
H128 H 0.24642 0.51106 0.01707 0.0
H129 H 0.52956 0.38975 0.02436 0.0
H130 H 0.52232 0.37899 -0.00899 0.0
H131 H 0.59341 0.49259 0.04287 0.0
H132 H 0.75909 0.57517 -0.00461 0.0
H133 H 0.57702 0.46578 0.96224 0.0
C134 C 0.42523 0.49335 0.02907 0.0
C135 C 0.35345 0.5138 0.03243 0.0
C136 C 0.44527 0.4527 0.00771 0.0
C137 C 0.39255 0.43329 -0.01027 0.0
C138 C 0.32033 0.4531 -0.00676 0.0
C139 C 0.30199 0.49497 0.01426 0.0
C140 C 0.51929 0.4198 0.00636 0.0
C141 C 0.57802 0.47486 0.00268 0.0
C142 C 0.61291 0.50402 0.02389 0.0
C143 C 0.67681 0.54222 0.0208 0.0
C144 C 0.70653 0.55073 -0.00345 0.0
C145 C 0.67322 0.52167 0.97488 0.0
C146 C 0.60579 0.48782 0.97823 0.0
H147 H 0.11769 0.52035 0.5459 0.0
H148 H 0.07967 0.57784 0.4677 0.0
H149 H 0.27313 0.46524 0.48948 0.0
H150 H 0.02502 0.6021 0.53639 0.0
H151 H 0.02831 0.64681 0.50671 0.0
H152 H 0.93237 0.51197 0.54566 0.0
H153 H 0.75231 0.50639 0.49423 0.0
H154 H 0.94006 0.62541 0.47405 0.0
C155 C 0.13286 0.51713 0.52608 0.0
C156 C 0.20096 0.48959 0.51968 0.0
C157 C 0.08723 0.54717 0.50728 0.0
C158 C 0.11171 0.54957 0.48179 0.0
C159 C 0.18004 0.52129 0.47507 0.0
C160 C 0.22095 0.48737 0.49409 0.0
C161 C 0.02291 0.59254 0.51556 0.0
C162 C 0.94902 0.56283 0.5089 0.0
C163 C 0.90868 0.5238 0.52729 0.0
C164 C 0.83573 0.5066 0.52269 0.0
C165 C 0.80705 0.52202 0.4987 0.0
C166 C 0.84178 0.5688 0.48207 0.0
C167 C 0.91369 0.58746 0.48665 0.0
Fe168 Fe 1.00682 0.83031 0.18443 0.0
O169 O 0.01726 0.82644 0.1471 0.0
Fe170 Fe 0.93491 0.77397 0.12689 0.0
Fe171 Fe 0.10313 0.78225 0.13042 0.0
O172 O 1.00967 0.82452 0.1473 0.0
O173 O 0.02037 0.72832 0.11056 0.0
O174 O 0.02838 0.72861 0.11077 0.0
Fe175 Fe 0.03031 0.71911 0.07378 0.0
C176 C 0.14543 0.90455 0.16776 0.0
O177 O 0.08922 0.75869 0.19206 0.0
O178 O 0.10392 0.69867 0.15626 0.0
O179 O 0.94636 0.64787 0.07886 0.0
O180 O 0.86764 0.71403 0.10319 0.0
O181 O 0.93093 0.68937 0.15186 0.0
O182 O 0.93538 0.74576 0.18903 0.0
O183 O 0.18232 0.72416 0.11042 0.0
O184 O 0.1155 0.65245 0.08327 0.0
C185 C 0.92251 0.69017 0.17572 0.0
O186 O 0.95059 0.79445 0.06559 0.0
O187 O 0.93353 0.85678 0.10112 0.0
O188 O 0.0838 0.90677 0.1792 0.0
O189 O 0.1678 0.85123 0.15349 0.0
C190 C 0.10526 0.70131 0.18029 0.0
C191 C 0.17442 0.66929 0.09528 0.0
C192 C 0.13097 0.84966 0.0811 0.0
O193 O 0.10851 0.86311 0.10343 0.0
O194 O 0.10922 0.79493 0.06897 0.0
C195 C 0.88261 0.66191 0.08766 0.0
O196 O 0.85521 0.83174 0.1467 0.0
O197 O 0.92069 0.8954 0.17627 0.0
C198 C 0.92377 0.84776 0.07749 0.0
C199 C 0.86421 0.8849 0.1624 0.0
Fe200 Fe 0.47355 0.78809 0.4357 0.0
O201 O 0.47382 0.78122 0.39818 0.0
Fe202 Fe 0.52464 0.86535 0.37821 0.0
Fe203 Fe 0.51507 0.69695 0.37969 0.0
O204 O 0.47655 0.78849 0.39858 0.0
O205 O 0.56998 0.78155 0.3607 0.0
O206 O 0.56881 0.77337 0.36067 0.0
Fe207 Fe 0.57686 0.77484 0.32368 0.0
C208 C 0.60179 0.68824 0.4282 0.0
O209 O 0.39721 0.71074 0.43082 0.0
O210 O 0.44723 0.63007 0.40257 0.0
O211 O 0.50067 0.85451 0.31702 0.0
O212 O 0.44007 0.86716 0.35328 0.0
O213 O 0.46694 0.94256 0.39928 0.0
O214 O 0.40657 0.87384 0.42907 0.0
O215 O 0.43259 0.69549 0.35332 0.0
O216 O 0.50034 0.69677 0.31868 0.0
C217 C 0.41514 0.93152 0.41549 0.0
O218 O 0.64792 0.85946 0.32895 0.0
O219 O 0.58106 0.9352 0.35416 0.0
O220 O 0.54803 0.70658 0.44167 0.0
O221 O 0.60019 0.69126 0.40422 0.0
C222 C 0.3966 0.65104 0.41826 0.0
C223 C 0.44535 0.67463 0.33072 0.0
C224 C 0.62428 0.62745 0.34267 0.0
O225 O 0.56996 0.61987 0.35811 0.0
O226 O 0.64356 0.68766 0.33174 0.0
C227 C 0.44727 0.87853 0.3296 0.0
O228 O 0.61117 0.8692 0.40241 0.0
O229 O 0.55676 0.86081 0.43995 0.0
C230 C 0.63162 0.92281 0.33769 0.0
C231 C 0.61142 0.87583 0.42637 0.0
Fe232 Fe 0.51272 0.33602 0.68818 0.0
O233 O 0.51922 0.33445 0.65099 0.0
Fe234 Fe 0.43403 0.28663 0.63109 0.0
Fe235 Fe 0.60214 0.29063 0.63256 0.0
O236 O 0.51185 0.33368 0.65104 0.0
O237 O 0.51672 0.24188 0.61264 0.0
O238 O 0.52458 0.24192 0.61275 0.0
Fe239 Fe 0.52414 0.23906 0.57557 0.0
C240 C 0.6529 0.4058 0.67057 0.0
O241 O 0.5913 0.25821 0.69391 0.0
O242 O 0.60397 0.20326 0.65685 0.0
O243 O 0.43827 0.16877 0.57994 0.0
O244 O 0.36334 0.23133 0.60699 0.0
O245 O 0.43324 0.19898 0.65522 0.0
O246 O 0.43668 0.25672 0.69207 0.0
O247 O 0.67816 0.23588 0.6102 0.0
O248 O 0.60898 0.16901 0.58244 0.0
C249 C 0.42723 0.1997 0.67925 0.0
O250 O 0.44574 0.31673 0.56984 0.0
O251 O 0.43031 0.37295 0.60677 0.0
O252 O 0.59303 0.40914 0.68307 0.0
O253 O 0.67169 0.35308 0.6556 0.0
C254 C 0.60575 0.20229 0.68095 0.0
C255 C 0.66932 0.1844 0.59374 0.0
C256 C 0.62309 0.3699 0.58479 0.0
O257 O 0.60525 0.37647 0.60791 0.0
O258 O 0.6037 0.3162 0.57156 0.0
C259 C 0.3754 0.18327 0.58957 0.0
O260 O 0.35797 0.3431 0.65338 0.0
O261 O 0.42874 0.40548 0.68184 0.0
C262 C 0.42052 0.36833 0.58297 0.0
C263 C 0.3693 0.3948 0.66958 0.0
Fe264 Fe 0.95021 0.26065 0.93567 0.0
O265 O 0.95868 0.25876 0.89836 0.0
Fe266 Fe 1.00675 0.34874 0.88114 0.0
Fe267 Fe 1.00907 0.18028 0.87954 0.0
O268 O 0.95942 0.26616 0.89866 0.0
O269 O 0.05955 0.27074 0.86286 0.0
O270 O 0.05978 0.2627 0.86281 0.0
Fe271 Fe 0.0723 0.27023 0.82598 0.0
C272 C 0.08841 0.1734 0.92992 0.0
O273 O 0.88229 0.17775 0.92794 0.0
O274 O 0.94337 0.10533 0.89964 0.0
O275 O 0.99337 0.3474 0.81932 0.0
O276 O 0.92656 0.35225 0.85441 0.0
O277 O 0.94098 0.41916 0.90256 0.0
O278 O 0.87799 0.34117 0.92856 0.0
O279 O 0.93049 0.17898 0.85202 0.0
O280 O 1.00072 0.1892 0.81817 0.0
C281 C 0.88594 0.40194 0.91669 0.0
O282 O 0.13784 0.35685 0.83435 0.0
O283 O 0.06416 0.42508 0.86006 0.0
O284 O 0.03078 0.18563 0.94225 0.0
O285 O 0.09057 0.17679 0.90589 0.0
C286 C 0.88878 0.12013 0.91444 0.0
C287 C 0.94589 0.16286 0.82921 0.0
C288 C 0.12667 0.1229 0.84287 0.0
O289 O 0.07172 0.10961 0.85755 0.0
O290 O 0.1428 0.18579 0.83333 0.0
C291 C 0.93724 0.36784 0.8312 0.0
O292 O 0.08857 0.35031 0.90742 0.0
O293 O 0.02436 0.34023 0.94273 0.0
C294 C 0.11811 0.41731 0.8446 0.0
C295 C 0.08286 0.35487 0.93136 0.0
C296 C 0.32181 0.08685 0.44509 0.0
C297 C 0.25116 0.05943 0.44592 0.0
H298 H 0.43118 0.06737 0.43391 0.0
C299 C 0.23337 1.00111 0.4304 0.0
H300 H 0.33658 0.13278 0.45652 0.0
C301 C 0.28724 0.96474 0.41723 0.0
C302 C 0.35939 0.98634 0.41929 0.0
H303 H 0.1796 0.97884 0.43059 0.0
H304 H 0.27366 0.91517 0.40761 0.0
C305 C 0.37584 0.05021 0.43191 0.0
C306 C 0.40262 0.06978 0.73356 0.0
C307 C 0.3672 1.012 0.72203 0.0
H308 H 0.44759 0.1741 0.72927 0.0
C309 C 0.35655 1.01295 0.69562 0.0
H310 H 0.41257 0.06973 0.75386 0.0
C311 C 0.37765 0.07323 0.68123 0.0
C312 C 0.40885 0.13308 0.69324 0.0
H313 H 0.32934 0.9688 0.68637 0.0
H314 H 0.36723 0.07409 0.66098 0.0
C315 C 0.42245 0.12973 0.71944 0.0
C316 C 0.27436 0.09936 0.94654 0.0
C317 C 0.27882 0.11587 0.97247 0.0
H318 H 0.21003 0.10424 0.91262 0.0
C319 C 0.22334 0.15657 0.98356 0.0
H320 H 0.3159 0.06727 0.93765 0.0
C321 C 0.16222 0.17571 0.96963 0.0
C322 C 0.15537 0.15563 0.9441 0.0
H323 H 0.2255 0.17002 0.00355 0.0
H324 H 0.11963 0.20511 0.97906 0.0
C325 C 0.21327 0.11958 0.9324 0.0
C326 C 0.18878 0.08935 0.19089 0.0
C327 C 0.25989 0.08063 0.19943 0.0
H328 H 0.09819 0.0409 0.17317 0.0
C329 C 0.29945 0.0211 0.18992 0.0
H330 H 0.15595 0.13415 0.19701 0.0
C331 C 0.26462 0.96483 0.17708 0.0
C332 C 0.19051 0.96904 0.17253 0.0
H333 H 0.35575 1.01419 0.19465 0.0
H334 H 0.29409 0.91595 0.1729 0.0
C335 C 0.15496 0.03466 0.17741 0.0
C336 C 0.27095 0.06582 0.5452 0.0
C337 C 0.21675 0.11387 0.53706 0.0
H338 H 0.36435 0.05027 0.56847 0.0
C339 C 0.20538 0.17728 0.5509 0.0
H340 H 0.27988 0.01562 0.53531 0.0
C341 C 0.25282 0.19615 0.57045 0.0
C342 C 0.31288 0.15251 0.5761 0.0
H343 H 0.16412 0.21537 0.54515 0.0
H344 H 0.24642 0.24811 0.57932 0.0
C345 C 0.31916 0.08539 0.56427 0.0
C346 C 0.17039 0.95272 0.80763 0.0
C347 C 0.2429 0.96497 0.80173 0.0
H348 H 0.07607 0.99386 0.82612 0.0
C349 C 0.27961 0.02123 0.81379 0.0
H350 H 0.14094 0.91022 0.79827 0.0
C351 C 0.24267 0.06947 0.8292 0.0
C352 C 0.16862 0.06154 0.83319 0.0
H353 H 0.33557 0.03168 0.80941 0.0
H354 H 0.27092 0.11583 0.83655 0.0
C355 C 0.13344 1.00064 0.82348 0.0
C356 C 0.2956 0.88774 0.04106 0.0
C357 C 0.30972 0.95984 0.04651 0.0
H358 H 0.22731 0.79757 0.04718 0.0
C359 C 0.26876 0.99454 0.06535 0.0
H360 H 0.32493 0.86054 0.02614 0.0
C361 C 0.21204 0.95855 0.07756 0.0
C362 C 0.19426 0.88806 0.07051 0.0
H363 H 0.27737 0.05103 0.06926 0.0
H364 H 0.17976 0.98707 0.09136 0.0
C365 C 0.23837 0.85244 0.05276 0.0
C366 C 0.38312 0.06123 0.30788 0.0
C367 C 0.34292 0.04319 0.28623 0.0
H368 H 0.44571 0.02163 0.33941 0.0
C369 C 0.32772 0.96981 0.28183 0.0
H370 H 0.39528 0.1169 0.31202 0.0
C371 C 0.35869 0.91582 0.29681 0.0
C372 C 0.40239 0.93392 0.31735 0.0
H373 H 0.2941 0.95367 0.26606 0.0
H374 H 0.35036 0.85993 0.29188 0.0
C375 C 0.41206 1.00683 0.32348 0.0
C376 C 0.78395 0.04745 0.56108 0.0
C377 C 0.82991 0.09306 0.54709 0.0
H378 H 0.69497 0.04134 0.58691 0.0
C379 C 0.83344 0.16611 0.55383 0.0
H380 H 0.78154 0.99039 0.55712 0.0
C381 C 0.78629 0.19414 0.57181 0.0
C382 C 0.73369 0.1504 0.58294 0.0
H383 H 0.86736 0.2035 0.54359 0.0
H384 H 0.78593 0.25145 0.57479 0.0
C385 C 0.73494 0.07622 0.57839 0.0
C386 C 0.63616 0.09405 0.29944 0.0
C387 C 0.69704 0.08164 0.28432 0.0
H388 H 0.56879 0.05392 0.32914 0.0
C389 C 0.74516 0.02638 0.29145 0.0
H390 H 0.59814 0.13624 0.29454 0.0
C391 C 0.72739 0.97801 0.31081 0.0
C392 C 0.66206 0.98515 0.32385 0.0
H393 H 0.79365 0.01678 0.28059 0.0
H394 H 0.76215 0.93203 0.31426 0.0
C395 C 0.61917 0.04648 0.31924 0.0
C396 C 0.8279 0.96178 0.02883 0.0
C397 C 0.75514 0.94486 0.03369 0.0
H398 H 0.93853 0.94297 0.03865 0.0
C399 C 0.73863 0.9047 0.05559 0.0
H400 H 0.84255 0.99464 0.01259 0.0
C401 C 0.79412 0.87744 0.07106 0.0
C402 C 0.86666 0.88941 0.0647 0.0
H403 H 0.68341 0.89098 0.05992 0.0
H404 H 0.78053 0.8433 0.0871 0.0
C405 C 0.88305 0.93304 0.04384 0.0
C406 C 0.81193 0.01479 0.8136 0.0
C407 C 0.84144 0.98738 0.79106 0.0
H408 H 0.82126 0.09272 0.84342 0.0
C409 C 0.90655 0.0151 0.7821 0.0
H410 H 0.76047 0.99548 0.82038 0.0
C411 C 0.93998 0.07163 0.79466 0.0
C412 C 0.90904 0.10206 0.81655 0.0
H413 H 0.92922 0.99599 0.76442 0.0
H414 H 0.98956 0.09242 0.78678 0.0
C415 C 0.84581 0.07141 0.8264 0.0
C416 C 0.75212 0.90901 0.47682 0.0
C417 C 0.79412 0.96401 0.46586 0.0
H418 H 0.6597 0.84172 0.47356 0.0
C419 C 0.77994 0.98416 0.44049 0.0
H420 H 0.76249 0.89022 0.496 0.0
C421 C 0.72245 0.95325 0.42712 0.0
C422 C 0.67696 0.90314 0.4391 0.0
H423 H 0.81051 0.02652 0.43138 0.0
H424 H 0.71128 0.97143 0.40792 0.0
C425 C 0.69331 0.88054 0.46389 0.0
C426 C 0.79253 0.06623 0.17557 0.0
C427 C 0.73642 0.04838 0.19216 0.0
H428 H 0.8767 0.02577 0.15196 0.0
C429 C 0.70957 0.97744 0.19216 0.0
H430 H 0.81424 0.12025 0.17509 0.0
C431 C 0.7456 0.92316 0.17893 0.0
C432 C 0.80809 0.93971 0.16539 0.0
H433 H 0.66525 0.96261 0.20443 0.0
H434 H 0.72962 0.86765 0.18174 0.0
C435 C 0.82817 1.01211 0.16228 0.0
C436 C 0.70326 0.0718 0.93271 0.0
C437 C 0.71502 1.00475 0.94456 0.0
H438 H 0.7499 0.15936 0.91231 0.0
C439 C 0.77705 0.96535 0.93711 0.0
H440 H 0.65625 0.10404 0.9368 0.0
C441 C 0.83343 0.99945 0.924 0.0
C442 C 0.82608 0.0716 0.91669 0.0
H443 H 0.78611 0.91103 0.94397 0.0
H444 H 0.88468 0.97211 0.92213 0.0
C445 C 0.75787 0.10423 0.91864 0.0
C446 C 0.63107 0.06508 0.73383 0.0
C447 C 0.66981 1.00995 0.72179 0.0
H448 H 0.58275 0.1692 0.73072 0.0
C449 C 0.68244 0.01542 0.69556 0.0
H450 H 0.62143 0.06257 0.75412 0.0
C451 C 0.65972 0.07687 0.68195 0.0
C452 C 0.6254 0.13439 0.6945 0.0
H453 H 0.71349 0.97439 0.68596 0.0
H454 H 0.67201 0.08077 0.66189 0.0
C455 C 0.60982 0.12669 0.72046 0.0
C456 C 0.78185 0.54933 0.94696 0.0
C457 C 0.71657 0.51165 0.95095 0.0
H458 H 0.89018 0.54284 0.93278 0.0
C459 C 0.70243 0.4527 0.93499 0.0
H460 H 0.79351 0.59852 0.95699 0.0
C461 C 0.75645 0.42423 0.91978 0.0
C462 C 0.82614 0.45268 0.92055 0.0
H463 H 0.65325 0.42224 0.93613 0.0
H464 H 0.74631 0.37382 0.91016 0.0
C465 C 0.83716 0.51888 0.93239 0.0
C466 C 0.89239 0.54639 0.2256 0.0
C467 C 0.83688 0.50508 0.21477 0.0
H468 H 0.95983 0.63907 0.22232 0.0
C469 C 0.8152 0.52114 0.18972 0.0
H470 H 0.91225 0.53452 0.24453 0.0
C471 C 0.84511 0.5797 0.17657 0.0
C472 C 0.89574 0.6244 0.18846 0.0
H473 H 0.7724 0.49119 0.18074 0.0
H474 H 0.82586 0.59224 0.15761 0.0
C475 C 0.92006 0.60629 0.21288 0.0
C476 C 0.78067 0.59364 0.44036 0.0
C477 C 0.79364 0.6123 0.4657 0.0
H478 H 0.70954 0.60396 0.40835 0.0
C479 C 0.7459 0.65957 0.47793 0.0
H480 H 0.81559 0.55569 0.43083 0.0
C481 C 0.68358 0.68356 0.46579 0.0
C482 C 0.66891 0.66341 0.44072 0.0
H483 H 0.75396 0.67322 0.49772 0.0
H484 H 0.64599 0.71647 0.47629 0.0
C485 C 0.71932 0.62018 0.42778 0.0
C486 C 0.69971 0.59134 0.69055 0.0
C487 C 0.76941 0.58082 0.70028 0.0
H488 H 0.60917 0.54348 0.67258 0.0
C489 C 0.80845 0.51993 0.69169 0.0
H490 H 0.66747 0.63749 0.69574 0.0
C491 C 0.77309 0.46346 0.67922 0.0
C492 C 0.69946 0.46937 0.67405 0.0
H493 H 0.86403 0.51182 0.69719 0.0
H494 H 0.80131 0.41322 0.67606 0.0
C495 C 0.66547 0.53639 0.67743 0.0
C496 C 0.78538 0.52725 0.0475 0.0
C497 C 0.72028 0.56332 0.04288 0.0
H498 H 0.88759 0.52953 0.066 0.0
C499 C 0.70356 0.62552 0.0566 0.0
H500 H 0.79892 0.47899 0.03706 0.0
C501 C 0.75436 0.65474 0.07323 0.0
C502 C 0.82245 0.62216 0.07606 0.0
H503 H 0.65358 0.65412 0.05311 0.0
H504 H 0.74239 0.70563 0.08224 0.0
C505 C 0.83602 0.55632 0.06398 0.0
C506 C 0.75784 0.50943 0.31012 0.0
C507 C 0.71079 0.46455 0.29644 0.0
H508 H 0.76651 0.59908 0.33536 0.0
C509 C 0.63824 0.46135 0.304 0.0
H510 H 0.81472 0.51091 0.30577 0.0
C511 C 0.6119 0.50878 0.32224 0.0
C512 C 0.65684 0.56187 0.33234 0.0
H513 H 0.59994 0.42761 0.29424 0.0
H514 H 0.5548 0.50911 0.32622 0.0
C515 C 0.73069 0.55932 0.32734 0.0
C516 C 0.71198 0.50479 0.54214 0.0
C517 C 0.78457 0.48128 0.54285 0.0
H518 H 0.60345 0.48619 0.5543 0.0
C519 C 0.80459 0.43118 0.5617 0.0
H520 H 0.69463 0.54678 0.52912 0.0
C521 C 0.75198 0.40044 0.57752 0.0
C522 C 0.67874 0.41727 0.57408 0.0
H523 H 0.85981 0.41308 0.56341 0.0
H524 H 0.76792 0.36062 0.59153 0.0
C525 C 0.65945 0.47152 0.55696 0.0
C526 C 0.82258 0.46224 0.7825 0.0
C527 C 0.83476 0.53539 0.78835 0.0
H528 H 0.84707 0.35181 0.7912 0.0
C529 C 0.87029 0.55153 0.81118 0.0
H530 H 0.79249 0.44731 0.76572 0.0
C531 C 0.89816 0.49585 0.82653 0.0
C532 C 0.89222 0.42356 0.819 0.0
H533 H 0.88002 0.60689 0.81646 0.0
H534 H 0.92846 0.50946 0.84341 0.0
C535 C 0.85264 0.40714 0.79726 0.0
C536 C 0.34087 0.62247 0.05972 0.0
C537 C 0.32813 0.54901 0.05576 0.0
H538 H 0.30186 0.71939 0.07697 0.0
C539 C 0.27653 0.51331 0.07056 0.0
H540 H 0.38023 0.6509 0.04834 0.0
C541 C 0.23138 0.55225 0.08647 0.0
C542 C 0.23792 0.62721 0.08801 0.0
H543 H 0.26608 0.45655 0.06775 0.0
H544 H 0.18684 0.52487 0.09556 0.0
C545 C 0.29609 0.6615 0.07604 0.0
C546 C 0.24938 0.53345 0.80977 0.0
C547 C 0.20287 0.58583 0.79957 0.0
H548 H 0.25848 0.438 0.83257 0.0
C549 C 0.13199 0.59056 0.80832 0.0
H550 H 0.30412 0.5287 0.80292 0.0
C551 C 0.10638 0.53977 0.82576 0.0
C552 C 0.15083 0.48259 0.83385 0.0
H553 H 0.09528 0.63012 0.80034 0.0
H554 H 0.05011 0.54126 0.8309 0.0
C555 C 0.22336 0.48167 0.82663 0.0
C556 C 0.23801 0.43018 0.56113 0.0
C557 C 0.25599 0.46986 0.53925 0.0
H558 H 0.27773 0.36915 0.59304 0.0
C559 C 0.32906 0.48675 0.535 0.0
H560 H 0.18255 0.41675 0.56516 0.0
C561 C 0.38312 0.45732 0.55028 0.0
C562 C 0.3652 0.41365 0.57096 0.0
H563 H 0.345 0.52009 0.51904 0.0
H564 H 0.43895 0.46636 0.54535 0.0
C565 C 0.29239 0.40292 0.57704 0.0
C566 C 0.30605 0.52845 0.31731 0.0
C567 C 0.3376 0.49354 0.2964 0.0
H568 H 0.31504 0.61331 0.34487 0.0
C569 C 0.40546 0.51574 0.28815 0.0
H570 H 0.25242 0.51387 0.32342 0.0
C571 C 0.43932 0.57422 0.29943 0.0
C572 C 0.40704 0.61168 0.3197 0.0
H573 H 0.42989 0.49136 0.27161 0.0
H574 H 0.49072 0.5908 0.29176 0.0
C575 C 0.34103 0.58642 0.32916 0.0
C576 C 0.2669 0.42654 0.9502 0.0
C577 C 0.26207 0.42476 0.97682 0.0
H578 H 0.21361 0.40644 0.91477 0.0
C579 C 0.19942 0.39727 -0.01186 0.0
H580 H 0.31467 0.44728 0.94098 0.0
C581 C 0.14183 0.37473 0.97331 0.0
C582 C 0.14531 0.3784 0.9467 0.0
H583 H 0.19476 0.39339 0.0086 0.0
H584 H 0.09438 0.35432 0.98285 0.0
C585 C 0.20894 0.40356 0.93523 0.0
C586 C 0.28403 0.56773 0.68634 0.0
C587 C 0.25746 0.54926 0.71058 0.0
H588 H 0.3399 0.53073 0.65323 0.0
C589 C 0.24871 0.47528 0.71631 0.0
H590 H 0.28949 0.62349 0.68063 0.0
C591 C 0.27416 0.42237 0.6999 0.0
C592 C 0.31027 0.44178 0.67766 0.0
H593 H 0.22963 0.45705 0.73461 0.0
H594 H 0.27428 0.36679 0.70632 0.0
C595 C 0.31127 0.51446 0.67022 0.0
C596 C 0.21102 0.61283 0.44168 0.0
C597 C 0.21866 0.54231 0.45103 0.0
H598 H 0.26131 0.70125 0.42289 0.0
C599 C 0.27732 0.50085 0.44186 0.0
H600 H 0.16687 0.64681 0.44764 0.0
C601 C 0.33402 0.53355 0.42842 0.0
C602 C 0.33108 0.60736 0.42298 0.0
H603 H 0.28345 0.44499 0.44746 0.0
H604 H 0.38245 0.50296 0.42461 0.0
C605 C 0.26622 0.64458 0.42764 0.0
C606 C 0.13664 0.57509 0.23586 0.0
C607 C 0.17346 0.51734 0.22461 0.0
H608 H 0.08844 0.67859 0.23097 0.0
C609 C 0.1828 0.51732 0.19817 0.0
H610 H 0.12863 0.57632 0.25624 0.0
C611 C 0.15908 0.57628 0.18347 0.0
C612 C 0.12662 0.63635 0.19511 0.0
H613 H 0.21175 0.47384 0.1891 0.0
H614 H 0.16872 0.57603 0.16319 0.0
C615 C 0.1143 0.63408 0.22139 0.0
loop_
_geom_bond_atom_site_label_1
_geom_bond_atom_site_label_2
_geom_bond_distance
_geom_bond_site_symmetry_2
_ccdc_geom_bond_type
H0 C8 0.930 . S
H1 C11 0.930 . S
H2 C13 0.930 1_565 S
H3 C14 0.970 . S
H4 C14 0.970 . S
H5 C16 0.930 . S
H6 C18 0.930 1_565 S
H7 C20 0.930 . S
C8 H0 0.930 . S
C8 C9 1.382 1_545 S
C8 C10 1.426 . S
C9 C8 1.382 1_565 S
C9 C13 1.389 1_565 S
C10 C8 1.426 . S
C10 C11 1.375 . S
C10 C14 1.532 1_655 S
C11 H1 0.930 . S
C11 C10 1.375 . S
C11 C12 1.416 . S
C12 C11 1.416 . S
C12 C13 1.371 . S
C13 H2 0.930 1_545 S
C13 C9 1.389 1_545 S
C13 C12 1.371 . S
C14 H3 0.970 . S
C14 H4 0.970 . S
C14 C10 1.532 1_455 S
C14 C15 1.499 . S
C15 C14 1.499 . S
C15 C16 1.370 . S
C15 C20 1.415 . S
C16 H5 0.930 . S
C16 C15 1.370 . S
C16 C17 1.407 1_545 S
C17 C16 1.407 1_565 S
C17 C18 1.365 1_565 S
C18 H6 0.930 1_545 S
C18 C17 1.365 1_545 S
C18 C19 1.393 . S
C19 C18 1.393 . S
C19 C20 1.387 . S
C20 H7 0.930 . S
C20 C15 1.415 . S
C20 C19 1.387 . S
H21 C29 0.930 . S
H22 C32 0.930 . S
H23 C34 0.930 . S
H24 C35 0.970 . S
H25 C35 0.970 . S
H26 C37 0.930 . S
H27 C39 0.930 . S
H28 C41 0.930 . S
C29 H21 0.930 . S
C29 C30 1.382 . S
C29 C31 1.426 . S
C30 C29 1.382 . S
C30 C34 1.389 . S
C31 C29 1.426 . S
C31 C32 1.375 . S
C31 C35 1.532 . S
C32 H22 0.930 . S
C32 C31 1.375 . S
C32 C33 1.416 . S
C33 C32 1.416 . S
C33 C34 1.371 . S
C34 H23 0.930 . S
C34 C30 1.389 . S
C34 C33 1.371 . S
C35 H24 0.970 . S
C35 H25 0.970 . S
C35 C31 1.532 . S
C35 C36 1.499 . S
C36 C35 1.499 . S
C36 C37 1.370 . S
C36 C41 1.415 . S
C37 H26 0.930 . S
C37 C36 1.370 . S
C37 C38 1.407 . S
C38 C37 1.407 . S
C38 C39 1.365 . S
C39 H27 0.930 . S
C39 C38 1.365 . S
C39 C40 1.393 . S
C40 C39 1.393 . S
C40 C41 1.387 . S
C41 H28 0.930 . S
C41 C36 1.415 . S
C41 C40 1.387 . S
H42 C50 0.930 1_565 S
H43 C53 0.930 1_556 S
H44 C55 0.930 . S
H45 C56 0.970 . S
H46 C56 0.970 . S
H47 C58 0.930 1_565 S
H48 C60 0.930 . S
H49 C62 0.930 1_556 S
C50 H42 0.930 1_545 S
C50 C51 1.382 1_545 S
C50 C52 1.426 . S
C51 C50 1.382 1_565 S
C51 C55 1.389 . S
C52 C50 1.426 . S
C52 C53 1.375 . S
C52 C56 1.532 . S
C53 H43 0.930 1_554 S
C53 C52 1.375 . S
C53 C54 1.416 1_554 S
C54 C53 1.416 1_556 S
C54 C55 1.371 1_546 S
C55 H44 0.930 . S
C55 C51 1.389 . S
C55 C54 1.371 1_564 S
C56 H45 0.970 . S
C56 H46 0.970 . S
C56 C52 1.532 . S
C56 C57 1.499 . S
C57 C56 1.499 . S
C57 C58 1.370 . S
C57 C62 1.415 . S
C58 H47 0.930 1_545 S
C58 C57 1.370 . S
C58 C59 1.407 1_545 S
C59 C58 1.407 1_565 S
C59 C60 1.365 . S
C60 H48 0.930 . S
C60 C59 1.365 . S
C60 C61 1.393 1_564 S
C61 C60 1.393 1_546 S
C61 C62 1.387 1_556 S
C62 H49 0.930 1_554 S
C62 C57 1.415 . S
C62 C61 1.387 1_554 S
H63 C71 0.930 . S
H64 C74 0.930 . S
H65 C76 0.930 . S
H66 C77 0.970 . S
H67 C77 0.970 . S
H68 C79 0.930 . S
H69 C81 0.930 . S
H70 C83 0.930 . S
C71 H63 0.930 . S
C71 C72 1.382 . S
C71 C73 1.426 . S
C72 C71 1.382 . S
C72 C76 1.389 . S
C73 C71 1.426 . S
C73 C74 1.375 . S
C73 C77 1.532 . S
C74 H64 0.930 . S
C74 C73 1.375 . S
C74 C75 1.416 . S
C75 C74 1.416 . S
C75 C76 1.371 . S
C76 H65 0.930 . S
C76 C72 1.389 . S
C76 C75 1.371 . S
C77 H66 0.970 . S
C77 H67 0.970 . S
C77 C73 1.532 . S
C77 C78 1.499 . S
C78 C77 1.499 . S
C78 C79 1.370 . S
C78 C83 1.415 . S
C79 H68 0.930 . S
C79 C78 1.370 . S
C79 C80 1.407 . S
C80 C79 1.407 . S
C80 C81 1.365 . S
C81 H69 0.930 . S
C81 C80 1.365 . S
C81 C82 1.393 . S
C82 C81 1.393 . S
C82 C83 1.387 . S
C83 H70 0.930 . S
C83 C78 1.415 . S
C83 C82 1.387 . S
H84 C92 0.930 . S
H85 C95 0.930 . S
H86 C97 0.930 . S
H87 C98 0.970 . S
H88 C98 0.970 . S
H89 C100 0.930 . S
H90 C102 0.930 . S
H91 C104 0.930 . S
C92 H84 0.930 . S
C92 C93 1.382 . S
C92 C94 1.426 . S
C93 C92 1.382 . S
C93 C97 1.389 . S
C94 C92 1.426 . S
C94 C95 1.375 . S
C94 C98 1.532 . S
C95 H85 0.930 . S
C95 C94 1.375 . S
C95 C96 1.416 . S
C96 C95 1.416 . S
C96 C97 1.371 . S
C97 H86 0.930 . S
C97 C93 1.389 . S
C97 C96 1.371 . S
C98 H87 0.970 . S
C98 H88 0.970 . S
C98 C94 1.532 . S
C98 C99 1.499 . S
C99 C98 1.499 . S
C99 C100 1.370 . S
C99 C104 1.415 . S
C100 H89 0.930 . S
C100 C99 1.370 . S
C100 C101 1.407 . S
C101 C100 1.407 . S
C101 C102 1.365 . S
C102 H90 0.930 . S
C102 C101 1.365 . S
C102 C103 1.393 . S
C103 C102 1.393 . S
C103 C104 1.387 . S
C104 H91 0.930 . S
C104 C99 1.415 . S
C104 C103 1.387 . S
H105 C113 0.930 . S
H106 C116 0.930 . S
H107 C118 0.930 . S
H108 C119 0.970 . S
H109 C119 0.970 . S
H110 C121 0.930 . S
H111 C123 0.930 . S
H112 C125 0.930 . S
C113 H105 0.930 . S
C113 C114 1.382 . S
C113 C115 1.426 . S
C114 C113 1.382 . S
C114 C118 1.389 . S
C115 C113 1.426 . S
C115 C116 1.375 . S
C115 C119 1.532 . S
C116 H106 0.930 . S
C116 C115 1.375 . S
C116 C117 1.416 . S
C117 C116 1.416 . S
C117 C118 1.371 . S
C118 H107 0.930 . S
C118 C114 1.389 . S
C118 C117 1.371 . S
C119 H108 0.970 . S
C119 H109 0.970 . S
C119 C115 1.532 . S
C119 C120 1.499 . S
C120 C119 1.499 . S
C120 C121 1.370 . S
C120 C125 1.415 . S
C121 H110 0.930 . S
C121 C120 1.370 . S
C121 C122 1.407 . S
C122 C121 1.407 . S
C122 C123 1.365 . S
C123 H111 0.930 . S
C123 C122 1.365 . S
C123 C124 1.393 . S
C124 C123 1.393 . S
C124 C125 1.387 . S
C125 H112 0.930 . S
C125 C120 1.415 . S
C125 C124 1.387 . S
H126 C134 0.930 . S
H127 C137 0.930 1_556 S
H128 C139 0.930 . S
H129 C140 0.970 . S
H130 C140 0.970 . S
H131 C142 0.930 . S
H132 C144 0.930 . S
H133 C146 0.930 1_556 S
C134 H126 0.930 . S
C134 C135 1.382 . S
C134 C136 1.426 . S
C135 C134 1.382 . S
C135 C139 1.389 . S
C136 C134 1.426 . S
C136 C137 1.375 . S
C136 C140 1.532 . S
C137 H127 0.930 1_554 S
C137 C136 1.375 . S
C137 C138 1.416 1_554 S
C138 C137 1.416 1_556 S
C138 C139 1.371 1_556 S
C139 H128 0.930 . S
C139 C135 1.389 . S
C139 C138 1.371 1_554 S
C140 H129 0.970 . S
C140 H130 0.970 . S
C140 C136 1.532 . S
C140 C141 1.499 . S
C141 C140 1.499 . S
C141 C142 1.370 . S
C141 C146 1.415 . S
C142 H131 0.930 . S
C142 C141 1.370 . S
C142 C143 1.407 . S
C143 C142 1.407 . S
C143 C144 1.365 . S
C144 H132 0.930 . S
C144 C143 1.365 . S
C144 C145 1.393 1_554 S
C145 C144 1.393 1_556 S
C145 C146 1.387 1_556 S
C146 H133 0.930 1_554 S
C146 C141 1.415 . S
C146 C145 1.387 1_554 S
H147 C155 0.930 . S
H148 C158 0.930 . S
H149 C160 0.930 . S
H150 C161 0.970 . S
H151 C161 0.970 . S
H152 C163 0.930 . S
H153 C165 0.930 . S
H154 C167 0.930 . S
C155 H147 0.930 . S
C155 C156 1.382 . S
C155 C157 1.426 . S
C156 C155 1.382 . S
C156 C160 1.389 . S
C157 C155 1.426 . S
C157 C158 1.375 . S
C157 C161 1.532 . S
C158 H148 0.930 . S
C158 C157 1.375 . S
C158 C159 1.416 . S
C159 C158 1.416 . S
C159 C160 1.371 . S
C160 H149 0.930 . S
C160 C156 1.389 . S
C160 C159 1.371 . S
C161 H150 0.970 . S
C161 H151 0.970 . S
C161 C157 1.532 . S
C161 C162 1.499 1_455 S
C162 C161 1.499 1_655 S
C162 C163 1.370 . S
C162 C167 1.415 . S
C163 H152 0.930 . S
C163 C162 1.370 . S
C163 C164 1.407 . S
C164 C163 1.407 . S
C164 C165 1.365 . S
C165 H153 0.930 . S
C165 C164 1.365 . S
C165 C166 1.393 . S
C166 C165 1.393 . S
C166 C167 1.387 . S
C167 H154 0.930 . S
C167 C162 1.415 . S
C167 C166 1.387 . S
Fe168 O169 1.886 . S
Fe168 O172 1.715 1_455 S
Fe168 O177 2.077 . S
Fe168 O182 1.935 1_455 S
Fe168 O188 2.077 . S
Fe168 O197 1.935 1_455 S
O169 Fe168 1.886 . S
O169 Fe171 1.715 . S
Fe170 O172 1.886 . S
Fe170 O173 1.715 . S
Fe170 O180 1.935 . S
Fe170 O181 2.077 . S
Fe170 O187 1.935 . S
Fe170 O196 2.077 . S
Fe171 O169 1.715 . S
Fe171 O174 1.886 . S
Fe171 O178 1.935 . S
Fe171 O183 2.077 . S
Fe171 O189 1.935 . S
Fe171 O193 2.077 . S
O172 Fe168 1.715 1_655 S
O172 Fe170 1.886 . S
O173 Fe170 1.715 . S
O173 Fe175 1.886 1_655 S
O174 Fe171 1.886 . S
O174 Fe175 1.715 . S
Fe175 O173 1.886 1_455 S
Fe175 O174 1.715 . S
Fe175 O179 2.077 1_455 S
Fe175 O184 1.935 . S
Fe175 O186 2.077 1_455 S
Fe175 O194 1.935 . S
C176 O188 1.381 . S
C176 O189 1.421 . S
O177 Fe168 2.077 . S
O177 C190 1.381 . S
O178 Fe171 1.935 . S
O178 C190 1.421 . S
O179 Fe175 2.077 1_655 S
O179 C195 1.381 . S
O180 Fe170 1.935 . S
O180 C195 1.421 . S
O181 Fe170 2.077 . S
O181 C185 1.381 . S
O182 Fe168 1.935 1_655 S
O182 C185 1.421 . S
O183 Fe171 2.077 . S
O183 C191 1.381 . S
O184 Fe175 1.935 . S
O184 C191 1.421 . S
C185 O181 1.381 . S
C185 O182 1.421 . S
O186 Fe175 2.077 1_655 S
O186 C198 1.381 . S
O187 Fe170 1.935 . S
O187 C198 1.421 . S
O188 Fe168 2.077 . S
O188 C176 1.381 . S
O189 Fe171 1.935 . S
O189 C176 1.421 . S
C190 O177 1.381 . S
C190 O178 1.421 . S
C191 O183 1.381 . S
C191 O184 1.421 . S
C192 O193 1.381 . S
C192 O194 1.421 . S
O193 Fe171 2.077 . S
O193 C192 1.381 . S
O194 Fe175 1.935 . S
O194 C192 1.421 . S
C195 O179 1.381 . S
C195 O180 1.421 . S
O196 Fe170 2.077 . S
O196 C199 1.381 . S
O197 Fe168 1.935 1_655 S
O197 C199 1.421 . S
C198 O186 1.381 . S
C198 O187 1.421 . S
C199 O196 1.381 . S
C199 O197 1.421 . S
Fe200 O201 1.886 . S
Fe200 O204 1.715 . S
Fe200 O209 2.077 . S
Fe200 O214 1.935 . S
Fe200 O220 2.077 . S
Fe200 O229 1.935 . S
O201 Fe200 1.886 . S
O201 Fe203 1.715 . S
Fe202 O204 1.886 . S
Fe202 O205 1.715 . S
Fe202 O212 1.935 . S
Fe202 O213 2.077 . S
Fe202 O219 1.935 . S
Fe202 O228 2.077 . S
Fe203 O201 1.715 . S
Fe203 O206 1.886 . S
Fe203 O210 1.935 . S
Fe203 O215 2.077 . S
Fe203 O221 1.935 . S
Fe203 O225 2.077 . S
O204 Fe200 1.715 . S
O204 Fe202 1.886 . S
O205 Fe202 1.715 . S
O205 Fe207 1.886 . S
O206 Fe203 1.886 . S
O206 Fe207 1.715 . S
Fe207 O205 1.886 . S
Fe207 O206 1.715 . S
Fe207 O211 2.077 . S
Fe207 O216 1.935 . S
Fe207 O218 2.077 . S
Fe207 O226 1.935 . S
C208 O220 1.381 . S
C208 O221 1.421 . S
O209 Fe200 2.077 . S
O209 C222 1.381 . S
O210 Fe203 1.935 . S
O210 C222 1.421 . S
O211 Fe207 2.077 . S
O211 C227 1.381 . S
O212 Fe202 1.935 . S
O212 C227 1.421 . S
O213 Fe202 2.077 . S
O213 C217 1.381 . S
O214 Fe200 1.935 . S
O214 C217 1.421 . S
O215 Fe203 2.077 . S
O215 C223 1.381 . S
O216 Fe207 1.935 . S
O216 C223 1.421 . S
C217 O213 1.381 . S
C217 O214 1.421 . S
O218 Fe207 2.077 . S
O218 C230 1.381 . S
O219 Fe202 1.935 . S
O219 C230 1.421 . S
O220 Fe200 2.077 . S
O220 C208 1.381 . S
O221 Fe203 1.935 . S
O221 C208 1.421 . S
C222 O209 1.381 . S
C222 O210 1.421 . S
C223 O215 1.381 . S
C223 O216 1.421 . S
C224 O225 1.381 . S
C224 O226 1.421 . S
O225 Fe203 2.077 . S
O225 C224 1.381 . S
O226 Fe207 1.935 . S
O226 C224 1.421 . S
C227 O211 1.381 . S
C227 O212 1.421 . S
O228 Fe202 2.077 . S
O228 C231 1.381 . S
O229 Fe200 1.935 . S
O229 C231 1.421 . S
C230 O218 1.381 . S
C230 O219 1.421 . S
C231 O228 1.381 . S
C231 O229 1.421 . S
Fe232 O233 1.886 . S
Fe232 O236 1.715 . S
Fe232 O241 2.077 . S
Fe232 O246 1.935 . S
Fe232 O252 2.077 . S
Fe232 O261 1.935 . S
O233 Fe232 1.886 . S
O233 Fe235 1.715 . S
Fe234 O236 1.886 . S
Fe234 O237 1.715 . S
Fe234 O244 1.935 . S
Fe234 O245 2.077 . S
Fe234 O251 1.935 . S
Fe234 O260 2.077 . S
Fe235 O233 1.715 . S
Fe235 O238 1.886 . S
Fe235 O242 1.935 . S
Fe235 O247 2.077 . S
Fe235 O253 1.935 . S
Fe235 O257 2.077 . S
O236 Fe232 1.715 . S
O236 Fe234 1.886 . S
O237 Fe234 1.715 . S
O237 Fe239 1.886 . S
O238 Fe235 1.886 . S
O238 Fe239 1.715 . S
Fe239 O237 1.886 . S
Fe239 O238 1.715 . S
Fe239 O243 2.077 . S
Fe239 O248 1.935 . S
Fe239 O250 2.077 . S
Fe239 O258 1.935 . S
C240 O252 1.381 . S
C240 O253 1.421 . S
O241 Fe232 2.077 . S
O241 C254 1.381 . S
O242 Fe235 1.935 . S
O242 C254 1.421 . S
O243 Fe239 2.077 . S
O243 C259 1.381 . S
O244 Fe234 1.935 . S
O244 C259 1.421 . S
O245 Fe234 2.077 . S
O245 C249 1.381 . S
O246 Fe232 1.935 . S
O246 C249 1.421 . S
O247 Fe235 2.077 . S
O247 C255 1.381 . S
O248 Fe239 1.935 . S
O248 C255 1.421 . S
C249 O245 1.381 . S
C249 O246 1.421 . S
O250 Fe239 2.077 . S
O250 C262 1.381 . S
O251 Fe234 1.935 . S
O251 C262 1.421 . S
O252 Fe232 2.077 . S
O252 C240 1.381 . S
O253 Fe235 1.935 . S
O253 C240 1.421 . S
C254 O241 1.381 . S
C254 O242 1.421 . S
C255 O247 1.381 . S
C255 O248 1.421 . S
C256 O257 1.381 . S
C256 O258 1.421 . S
O257 Fe235 2.077 . S
O257 C256 1.381 . S
O258 Fe239 1.935 . S
O258 C256 1.421 . S
C259 O243 1.381 . S
C259 O244 1.421 . S
O260 Fe234 2.077 . S
O260 C263 1.381 . S
O261 Fe232 1.935 . S
O261 C263 1.421 . S
C262 O250 1.381 . S
C262 O251 1.421 . S
C263 O260 1.381 . S
C263 O261 1.421 . S
Fe264 O265 1.886 . S
Fe264 O268 1.715 . S
Fe264 O273 2.077 1_455 S
Fe264 O278 1.935 1_455 S
Fe264 O284 2.077 . S
Fe264 O293 1.935 . S
O265 Fe264 1.886 . S
O265 Fe267 1.715 . S
Fe266 O268 1.886 . S
Fe266 O269 1.715 . S
Fe266 O276 1.935 1_455 S
Fe266 O277 2.077 1_455 S
Fe266 O283 1.935 . S
Fe266 O292 2.077 . S
Fe267 O265 1.715 . S
Fe267 O270 1.886 . S
Fe267 O274 1.935 1_455 S
Fe267 O279 2.077 1_455 S
Fe267 O285 1.935 . S
Fe267 O289 2.077 . S
O268 Fe264 1.715 . S
O268 Fe266 1.886 . S
O269 Fe266 1.715 . S
O269 Fe271 1.886 . S
O270 Fe267 1.886 . S
O270 Fe271 1.715 . S
Fe271 O269 1.886 . S
Fe271 O270 1.715 . S
Fe271 O275 2.077 1_455 S
Fe271 O280 1.935 1_455 S
Fe271 O282 2.077 . S
Fe271 O290 1.935 . S
C272 O284 1.381 . S
C272 O285 1.421 . S
O273 Fe264 2.077 1_655 S
O273 C286 1.381 . S
O274 Fe267 1.935 1_655 S
O274 C286 1.421 . S
O275 Fe271 2.077 1_655 S
O275 C291 1.381 . S
O276 Fe266 1.935 1_655 S
O276 C291 1.421 . S
O277 Fe266 2.077 1_655 S
O277 C281 1.381 . S
O278 Fe264 1.935 1_655 S
O278 C281 1.421 . S
O279 Fe267 2.077 1_655 S
O279 C287 1.381 . S
O280 Fe271 1.935 1_655 S
O280 C287 1.421 . S
C281 O277 1.381 . S
C281 O278 1.421 . S
O282 Fe271 2.077 . S
O282 C294 1.381 . S
O283 Fe266 1.935 . S
O283 C294 1.421 . S
O284 Fe264 2.077 . S
O284 C272 1.381 . S
O285 Fe267 1.935 . S
O285 C272 1.421 . S
C286 O273 1.381 . S
C286 O274 1.421 . S
C287 O279 1.381 . S
C287 O280 1.421 . S
C288 O289 1.381 . S
C288 O290 1.421 . S
O289 Fe267 2.077 . S
O289 C288 1.381 . S
O290 Fe271 1.935 . S
O290 C288 1.421 . S
C291 O275 1.381 . S
C291 O276 1.421 . S
O292 Fe266 2.077 . S
O292 C295 1.381 . S
O293 Fe264 1.935 . S
O293 C295 1.421 . S
C294 O282 1.381 . S
C294 O283 1.421 . S
C295 O292 1.381 . S
C295 O293 1.421 . S
C296 C297 1.387 . S
C296 H300 0.950 1_565 S
C296 C305 1.390 . S
C297 C296 1.387 . S
C297 C299 1.387 . S
H298 C305 0.950 1_545 S
C299 C297 1.387 . S
C299 C301 1.390 . S
C299 H303 0.950 . S
H300 C296 0.950 1_545 S
C301 C299 1.390 . S
C301 C302 1.387 . S
C301 H304 0.950 . S
C302 C301 1.387 . S
C302 C305 1.387 . S
H303 C299 0.950 . S
H304 C301 0.950 . S
C305 C296 1.390 . S
C305 H298 0.950 1_565 S
C305 C302 1.387 . S
C306 C307 1.387 1_545 S
C306 H310 0.950 . S
C306 C315 1.390 . S
C307 C306 1.387 1_565 S
C307 C309 1.387 . S
H308 C315 0.950 . S
C309 C307 1.387 . S
C309 C311 1.390 1_565 S
C309 H313 0.950 . S
H310 C306 0.950 . S
C311 C309 1.390 1_545 S
C311 C312 1.387 . S
C311 H314 0.950 . S
C312 C311 1.387 . S
C312 C315 1.387 . S
H313 C309 0.950 . S
H314 C311 0.950 . S
C315 C306 1.390 . S
C315 H308 0.950 . S
C315 C312 1.387 . S
C316 C317 1.387 . S
C316 H320 0.950 1_545 S
C316 C325 1.390 . S
C317 C316 1.387 . S
C317 C319 1.387 . S
H318 C325 0.950 . S
C319 C317 1.387 . S
C319 C321 1.390 . S
C319 H323 0.950 . S
H320 C316 0.950 1_565 S
C321 C319 1.390 . S
C321 C322 1.387 . S
C321 H324 0.950 . S
C322 C321 1.387 . S
C322 C325 1.387 . S
H323 C319 0.950 . S
H324 C321 0.950 . S
C325 C316 1.390 . S
C325 H318 0.950 . S
C325 C322 1.387 . S
C326 C327 1.387 . S
C326 H330 0.950 . S
C326 C335 1.390 1_545 S
C327 C326 1.387 . S
C327 C329 1.387 . S
H328 C335 0.950 . S
C329 C327 1.387 . S
C329 C331 1.390 1_545 S
C329 H333 0.950 . S
H330 C326 0.950 . S
C331 C329 1.390 1_565 S
C331 C332 1.387 . S
C331 H334 0.950 . S
C332 C331 1.387 . S
C332 C335 1.387 . S
H333 C329 0.950 . S
H334 C331 0.950 . S
C335 C326 1.390 1_565 S
C335 H328 0.950 . S
C335 C332 1.387 . S
C336 C337 1.387 . S
C336 H340 0.950 1_545 S
C336 C345 1.390 . S
C337 C336 1.387 . S
C337 C339 1.387 . S
H338 C345 0.950 . S
C339 C337 1.387 . S
C339 C341 1.390 . S
C339 H343 0.950 . S
H340 C336 0.950 1_565 S
C341 C339 1.390 . S
C341 C342 1.387 . S
C341 H344 0.950 . S
C342 C341 1.387 . S
C342 C345 1.387 . S
H343 C339 0.950 . S
H344 C341 0.950 . S
C345 C336 1.390 . S
C345 H338 0.950 . S
C345 C342 1.387 . S
C346 C347 1.387 . S
C346 H350 0.950 . S
C346 C355 1.390 1_565 S
C347 C346 1.387 . S
C347 C349 1.387 1_565 S
H348 C355 0.950 . S
C349 C347 1.387 1_545 S
C349 C351 1.390 . S
C349 H353 0.950 . S
H350 C346 0.950 . S
C351 C349 1.390 . S
C351 C352 1.387 . S
C351 H354 0.950 . S
C352 C351 1.387 . S
C352 C355 1.387 . S
H353 C349 0.950 . S
H354 C351 0.950 . S
C355 C346 1.390 1_545 S
C355 H348 0.950 . S
C355 C352 1.387 . S
C356 C357 1.387 . S
C356 H360 0.950 . S
C356 C365 1.390 . S
C357 C356 1.387 . S
C357 C359 1.387 . S
H358 C365 0.950 . S
C359 C357 1.387 . S
C359 C361 1.390 . S
C359 H363 0.950 1_565 S
H360 C356 0.950 . S
C361 C359 1.390 . S
C361 C362 1.387 . S
C361 H364 0.950 1_565 S
C362 C361 1.387 . S
C362 C365 1.387 . S
H363 C359 0.950 1_545 S
H364 C361 0.950 1_545 S
C365 C356 1.390 . S
C365 H358 0.950 . S
C365 C362 1.387 . S
C366 C367 1.387 . S
C366 H370 0.950 . S
C366 C375 1.390 . S
C367 C366 1.387 . S
C367 C369 1.387 1_545 S
H368 C375 0.950 . S
C369 C367 1.387 1_565 S
C369 C371 1.390 . S
C369 H373 0.950 . S
H370 C366 0.950 . S
C371 C369 1.390 . S
C371 C372 1.387 . S
C371 H374 0.950 . S
C372 C371 1.387 . S
C372 C375 1.387 1_565 S
H373 C369 0.950 . S
H374 C371 0.950 . S
C375 C366 1.390 . S
C375 H368 0.950 . S
C375 C372 1.387 1_545 S
C376 C377 1.387 . S
C376 H380 0.950 1_545 S
C376 C385 1.390 . S
C377 C376 1.387 . S
C377 C379 1.387 . S
H378 C385 0.950 . S
C379 C377 1.387 . S
C379 C381 1.390 . S
C379 H383 0.950 . S
H380 C376 0.950 1_565 S
C381 C379 1.390 . S
C381 C382 1.387 . S
C381 H384 0.950 . S
C382 C381 1.387 . S
C382 C385 1.387 . S
H383 C379 0.950 . S
H384 C381 0.950 . S
C385 C376 1.390 . S
C385 H378 0.950 . S
C385 C382 1.387 . S
C386 C387 1.387 1_565 S
C386 H390 0.950 . S
C386 C395 1.390 . S
C387 C386 1.387 1_545 S
C387 C389 1.387 . S
H388 C395 0.950 . S
C389 C387 1.387 . S
C389 C391 1.390 . S
C389 H393 0.950 . S
H390 C386 0.950 . S
C391 C389 1.390 . S
C391 C392 1.387 1_545 S
C391 H394 0.950 . S
C392 C391 1.387 1_565 S
C392 C395 1.387 . S
H393 C389 0.950 . S
H394 C391 0.950 . S
C395 C386 1.390 . S
C395 H388 0.950 . S
C395 C392 1.387 . S
C396 C397 1.387 . S
C396 H400 0.950 1_565 S
C396 C405 1.390 . S
C397 C396 1.387 . S
C397 C399 1.387 . S
H398 C405 0.950 . S
C399 C397 1.387 . S
C399 C401 1.390 . S
C399 H403 0.950 . S
H400 C396 0.950 1_545 S
C401 C399 1.390 . S
C401 C402 1.387 . S
C401 H404 0.950 . S
C402 C401 1.387 . S
C402 C405 1.387 . S
H403 C399 0.950 . S
H404 C401 0.950 . S
C405 C396 1.390 . S
C405 H398 0.950 . S
C405 C402 1.387 . S
C406 C407 1.387 . S
C406 H410 0.950 . S
C406 C415 1.390 1_565 S
C407 C406 1.387 . S
C407 C409 1.387 1_565 S
H408 C415 0.950 . S
C409 C407 1.387 1_545 S
C409 C411 1.390 . S
C409 H413 0.950 . S
H410 C406 0.950 . S
C411 C409 1.390 . S
C411 C412 1.387 . S
C411 H414 0.950 . S
C412 C411 1.387 . S
C412 C415 1.387 . S
H413 C409 0.950 . S
H414 C411 0.950 . S
C415 C406 1.390 1_545 S
C415 H408 0.950 . S
C415 C412 1.387 . S
C416 C417 1.387 . S
C416 H420 0.950 . S
C416 C425 1.390 . S
C417 C416 1.387 . S
C417 C419 1.387 . S
H418 C425 0.950 . S
C419 C417 1.387 . S
C419 C421 1.390 . S
C419 H423 0.950 1_565 S
H420 C416 0.950 . S
C421 C419 1.390 . S
C421 C422 1.387 . S
C421 H424 0.950 . S
C422 C421 1.387 . S
C422 C425 1.387 . S
H423 C419 0.950 1_545 S
H424 C421 0.950 . S
C425 C416 1.390 . S
C425 H418 0.950 . S
C425 C422 1.387 . S
C426 C427 1.387 . S
C426 H430 0.950 . S
C426 C435 1.390 1_545 S
C427 C426 1.387 . S
C427 C429 1.387 1_545 S
H428 C435 0.950 . S
C429 C427 1.387 1_565 S
C429 C431 1.390 . S
C429 H433 0.950 . S
H430 C426 0.950 . S
C431 C429 1.390 . S
C431 C432 1.387 . S
C431 H434 0.950 . S
C432 C431 1.387 . S
C432 C435 1.387 . S
H433 C429 0.950 . S
H434 C431 0.950 . S
C435 C426 1.390 1_565 S
C435 H428 0.950 . S
C435 C432 1.387 . S
C436 C437 1.387 . S
C436 H440 0.950 . S
C436 C445 1.390 . S
C437 C436 1.387 . S
C437 C439 1.387 . S
H438 C445 0.950 . S
C439 C437 1.387 . S
C439 C441 1.390 . S
C439 H443 0.950 1_545 S
H440 C436 0.950 . S
C441 C439 1.390 . S
C441 C442 1.387 . S
C441 H444 0.950 . S
C442 C441 1.387 . S
C442 C445 1.387 . S
H443 C439 0.950 1_565 S
H444 C441 0.950 . S
C445 C436 1.390 . S
C445 H438 0.950 . S
C445 C442 1.387 . S
C446 C447 1.387 1_545 S
C446 H450 0.950 . S
C446 C455 1.390 . S
C447 C446 1.387 1_565 S
C447 C449 1.387 . S
H448 C455 0.950 . S
C449 C447 1.387 . S
C449 C451 1.390 1_565 S
C449 H453 0.950 . S
H450 C446 0.950 . S
C451 C449 1.390 1_545 S
C451 C452 1.387 . S
C451 H454 0.950 . S
C452 C451 1.387 . S
C452 C455 1.387 . S
H453 C449 0.950 . S
H454 C451 0.950 . S
C455 C446 1.390 . S
C455 H448 0.950 . S
C455 C452 1.387 . S
C456 C457 1.387 . S
C456 H460 0.950 . S
C456 C465 1.390 . S
C457 C456 1.387 . S
C457 C459 1.387 . S
H458 C465 0.950 . S
C459 C457 1.387 . S
C459 C461 1.390 . S
C459 H463 0.950 . S
H460 C456 0.950 . S
C461 C459 1.390 . S
C461 C462 1.387 . S
C461 H464 0.950 . S
C462 C461 1.387 . S
C462 C465 1.387 . S
H463 C459 0.950 . S
H464 C461 0.950 . S
C465 C456 1.390 . S
C465 H458 0.950 . S
C465 C462 1.387 . S
C466 C467 1.387 . S
C466 H470 0.950 . S
C466 C475 1.390 . S
C467 C466 1.387 . S
C467 C469 1.387 . S
H468 C475 0.950 . S
C469 C467 1.387 . S
C469 C471 1.390 . S
C469 H473 0.950 . S
H470 C466 0.950 . S
C471 C469 1.390 . S
C471 C472 1.387 . S
C471 H474 0.950 . S
C472 C471 1.387 . S
C472 C475 1.387 . S
H473 C469 0.950 . S
H474 C471 0.950 . S
C475 C466 1.390 . S
C475 H468 0.950 . S
C475 C472 1.387 . S
C476 C477 1.387 . S
C476 H480 0.950 . S
C476 C485 1.390 . S
C477 C476 1.387 . S
C477 C479 1.387 . S
H478 C485 0.950 . S
C479 C477 1.387 . S
C479 C481 1.390 . S
C479 H483 0.950 . S
H480 C476 0.950 . S
C481 C479 1.390 . S
C481 C482 1.387 . S
C481 H484 0.950 . S
C482 C481 1.387 . S
C482 C485 1.387 . S
H483 C479 0.950 . S
H484 C481 0.950 . S
C485 C476 1.390 . S
C485 H478 0.950 . S
C485 C482 1.387 . S
C486 C487 1.387 . S
C486 H490 0.950 . S
C486 C495 1.390 . S
C487 C486 1.387 . S
C487 C489 1.387 . S
H488 C495 0.950 . S
C489 C487 1.387 . S
C489 C491 1.390 . S
C489 H493 0.950 . S
H490 C486 0.950 . S
C491 C489 1.390 . S
C491 C492 1.387 . S
C491 H494 0.950 . S
C492 C491 1.387 . S
C492 C495 1.387 . S
H493 C489 0.950 . S
H494 C491 0.950 . S
C495 C486 1.390 . S
C495 H488 0.950 . S
C495 C492 1.387 . S
C496 C497 1.387 . S
C496 H500 0.950 . S
C496 C505 1.390 . S
C497 C496 1.387 . S
C497 C499 1.387 . S
H498 C505 0.950 . S
C499 C497 1.387 . S
C499 C501 1.390 . S
C499 H503 0.950 . S
H500 C496 0.950 . S
C501 C499 1.390 . S
C501 C502 1.387 . S
C501 H504 0.950 . S
C502 C501 1.387 . S
C502 C505 1.387 . S
H503 C499 0.950 . S
H504 C501 0.950 . S
C505 C496 1.390 . S
C505 H498 0.950 . S
C505 C502 1.387 . S
C506 C507 1.387 . S
C506 H510 0.950 . S
C506 C515 1.390 . S
C507 C506 1.387 . S
C507 C509 1.387 . S
H508 C515 0.950 . S
C509 C507 1.387 . S
C509 C511 1.390 . S
C509 H513 0.950 . S
H510 C506 0.950 . S
C511 C509 1.390 . S
C511 C512 1.387 . S
C511 H514 0.950 . S
C512 C511 1.387 . S
C512 C515 1.387 . S
H513 C509 0.950 . S
H514 C511 0.950 . S
C515 C506 1.390 . S
C515 H508 0.950 . S
C515 C512 1.387 . S
C516 C517 1.387 . S
C516 H520 0.950 . S
C516 C525 1.390 . S
C517 C516 1.387 . S
C517 C519 1.387 . S
H518 C525 0.950 . S
C519 C517 1.387 . S
C519 C521 1.390 . S
C519 H523 0.950 . S
H520 C516 0.950 . S
C521 C519 1.390 . S
C521 C522 1.387 . S
C521 H524 0.950 . S
C522 C521 1.387 . S
C522 C525 1.387 . S
H523 C519 0.950 . S
H524 C521 0.950 . S
C525 C516 1.390 . S
C525 H518 0.950 . S
C525 C522 1.387 . S
C526 C527 1.387 . S
C526 H530 0.950 . S
C526 C535 1.390 . S
C527 C526 1.387 . S
C527 C529 1.387 . S
H528 C535 0.950 . S
C529 C527 1.387 . S
C529 C531 1.390 . S
C529 H533 0.950 . S
H530 C526 0.950 . S
C531 C529 1.390 . S
C531 C532 1.387 . S
C531 H534 0.950 . S
C532 C531 1.387 . S
C532 C535 1.387 . S
H533 C529 0.950 . S
H534 C531 0.950 . S
C535 C526 1.390 . S
C535 H528 0.950 . S
C535 C532 1.387 . S
C536 C537 1.387 . S
C536 H540 0.950 . S
C536 C545 1.390 . S
C537 C536 1.387 . S
C537 C539 1.387 . S
H538 C545 0.950 . S
C539 C537 1.387 . S
C539 C541 1.390 . S
C539 H543 0.950 . S
H540 C536 0.950 . S
C541 C539 1.390 . S
C541 C542 1.387 . S
C541 H544 0.950 . S
C542 C541 1.387 . S
C542 C545 1.387 . S
H543 C539 0.950 . S
H544 C541 0.950 . S
C545 C536 1.390 . S
C545 H538 0.950 . S
C545 C542 1.387 . S
C546 C547 1.387 . S
C546 H550 0.950 . S
C546 C555 1.390 . S
C547 C546 1.387 . S
C547 C549 1.387 . S
H548 C555 0.950 . S
C549 C547 1.387 . S
C549 C551 1.390 . S
C549 H553 0.950 . S
H550 C546 0.950 . S
C551 C549 1.390 . S
C551 C552 1.387 . S
C551 H554 0.950 . S
C552 C551 1.387 . S
C552 C555 1.387 . S
H553 C549 0.950 . S
H554 C551 0.950 . S
C555 C546 1.390 . S
C555 H548 0.950 . S
C555 C552 1.387 . S
C556 C557 1.387 . S
C556 H560 0.950 . S
C556 C565 1.390 . S
C557 C556 1.387 . S
C557 C559 1.387 . S
H558 C565 0.950 . S
C559 C557 1.387 . S
C559 C561 1.390 . S
C559 H563 0.950 . S
H560 C556 0.950 . S
C561 C559 1.390 . S
C561 C562 1.387 . S
C561 H564 0.950 . S
C562 C561 1.387 . S
C562 C565 1.387 . S
H563 C559 0.950 . S
H564 C561 0.950 . S
C565 C556 1.390 . S
C565 H558 0.950 . S
C565 C562 1.387 . S
C566 C567 1.387 . S
C566 H570 0.950 . S
C566 C575 1.390 . S
C567 C566 1.387 . S
C567 C569 1.387 . S
H568 C575 0.950 . S
C569 C567 1.387 . S
C569 C571 1.390 . S
C569 H573 0.950 . S
H570 C566 0.950 . S
C571 C569 1.390 . S
C571 C572 1.387 . S
C571 H574 0.950 . S
C572 C571 1.387 . S
C572 C575 1.387 . S
H573 C569 0.950 . S
H574 C571 0.950 . S
C575 C566 1.390 . S
C575 H568 0.950 . S
C575 C572 1.387 . S
C576 C577 1.387 . S
C576 H580 0.950 . S
C576 C585 1.390 . S
C577 C576 1.387 . S
C577 C579 1.387 . S
H578 C585 0.950 . S
C579 C577 1.387 . S
C579 C581 1.390 . S
C579 H583 0.950 . S
H580 C576 0.950 . S
C581 C579 1.390 . S
C581 C582 1.387 . S
C581 H584 0.950 . S
C582 C581 1.387 . S
C582 C585 1.387 . S
H583 C579 0.950 . S
H584 C581 0.950 . S
C585 C576 1.390 . S
C585 H578 0.950 . S
C585 C582 1.387 . S
C586 C587 1.387 . S
C586 H590 0.950 . S
C586 C595 1.390 . S
C587 C586 1.387 . S
C587 C589 1.387 . S
H588 C595 0.950 . S
C589 C587 1.387 . S
C589 C591 1.390 . S
C589 H593 0.950 . S
H590 C586 0.950 . S
C591 C589 1.390 . S
C591 C592 1.387 . S
C591 H594 0.950 . S
C592 C591 1.387 . S
C592 C595 1.387 . S
H593 C589 0.950 . S
H594 C591 0.950 . S
C595 C586 1.390 . S
C595 H588 0.950 . S
C595 C592 1.387 . S
C596 C597 1.387 . S
C596 H600 0.950 . S
C596 C605 1.390 . S
C597 C596 1.387 . S
C597 C599 1.387 . S
H598 C605 0.950 . S
C599 C597 1.387 . S
C599 C601 1.390 . S
C599 H603 0.950 . S
H600 C596 0.950 . S
C601 C599 1.390 . S
C601 C602 1.387 . S
C601 H604 0.950 . S
C602 C601 1.387 . S
C602 C605 1.387 . S
H603 C599 0.950 . S
H604 C601 0.950 . S
C605 C596 1.390 . S
C605 H598 0.950 . S
C605 C602 1.387 . S
C606 C607 1.387 . S
C606 H610 0.950 . S
C606 C615 1.390 . S
C607 C606 1.387 . S
C607 C609 1.387 . S
H608 C615 0.950 . S
C609 C607 1.387 . S
C609 C611 1.390 . S
C609 H613 0.950 . S
H610 C606 0.950 . S
C611 C609 1.390 . S
C611 C612 1.387 . S
C611 H614 0.950 . S
C612 C611 1.387 . S
C612 C615 1.387 . S
H613 C609 0.950 . S
H614 C611 0.950 . S
C615 C606 1.390 . S
C615 H608 0.950 . S
C615 C612 1.387 . S
C302 C217 1.591 . S
C297 C17 1.508 . S
C307 C30 1.516 . S
C312 C249 1.554 . S
C317 C61 1.512 . S
C322 C272 1.556 . S
C332 C176 1.602 . S
C327 C72 1.544 . S
C342 C259 1.407 . S
C337 C19 1.535 . S
C352 C288 1.455 . S
C347 C33 1.489 . S
C362 C192 1.455 . S
C357 C59 1.503 . S
C372 C227 1.412 . S
C367 C75 1.463 . S
C377 C12 1.495 . S
C382 C255 1.427 . S
C387 C101 1.502 . S
C392 C230 1.413 . S
C397 C51 1.451 . S
C402 C198 1.380 . S
C412 C287 1.388 . S
C407 C124 1.458 . S
C422 C231 1.580 . S
C417 C9 1.516 . S
C427 C103 1.516 . S
C432 C199 1.569 . S
C437 C54 1.542 . S
C442 C286 1.620 . S
C452 C254 1.627 . S
C447 C122 1.551 . S
C457 C145 1.520 . S
C462 C281 1.546 . S
C467 C96 1.486 . S
C472 C185 1.581 . S
C477 C166 1.547 . S
C482 C208 1.591 . S
C487 C114 1.514 . S
C492 C240 1.571 . S
C502 C195 1.441 . S
C497 C143 1.507 . S
C507 C93 1.529 . S
C512 C224 1.423 . S
C517 C164 1.475 . S
C522 C256 1.428 . S
C532 C291 1.441 . S
C527 C117 1.493 . S
C537 C135 1.457 . S
C542 C191 1.401 . S
C547 C40 1.457 . S
C552 C294 1.373 . S
C557 C156 1.479 . S
C562 C262 1.406 . S
C572 C223 1.420 . S
C567 C82 1.490 . S
C582 C295 1.613 . S
C577 C138 1.543 . S
C592 C263 1.612 . S
C587 C38 1.547 . S
C602 C222 1.588 . S
C597 C159 1.512 . S
C612 C190 1.598 . S
C607 C80 1.525 . S
