# Generated by pormake.
# Topology apo, (3,6)-cn, num edge types: 1
# Building blocks:
#     Node 0, Type 0, BuildingBlock: BELTOD_clean_linker_0, # of connection points: 3
#     Node 1, Type 0, BuildingBlock: BELTOD_clean_linker_0, # of connection points: 3
#     Node 2, Type 0, BuildingBlock: BELTOD_clean_linker_0, # of connection points: 3
#     Node 3, Type 0, BuildingBlock: BELTOD_clean_linker_0, # of connection points: 3
#     Node 4, Type 0, BuildingBlock: BELTOD_clean_linker_0, # of connection points: 3
#     Node 5, Type 0, BuildingBlock: BELTOD_clean_linker_0, # of connection points: 3
#     Node 6, Type 0, BuildingBlock: BELTOD_clean_linker_0, # of connection points: 3
#     Node 7, Type 0, BuildingBlock: BELTOD_clean_linker_0, # of connection points: 3
#     Node 8, Type 1, BuildingBlock: KUMBOL_clean_sbu_1, # of connection points: 6
#     Node 9, Type 1, BuildingBlock: KUMBOL_clean_sbu_1, # of connection points: 6
#     Node 10, Type 1, BuildingBlock: KUMBOL_clean_sbu_1, # of connection points: 6
#     Node 11, Type 1, BuildingBlock: KUMBOL_clean_sbu_1, # of connection points: 6
#     Edge 12, Type (0, 1), BuildingBlock: OJICUG_clean_linker_0, # of connection points: 2
#     Edge 13, Type (0, 1), BuildingBlock: OJICUG_clean_linker_0, # of connection points: 2
#     Edge 14, Type (0, 1), BuildingBlock: OJICUG_clean_linker_0, # of connection points: 2
#     Edge 15, Type (0, 1), BuildingBlock: OJICUG_clean_linker_0, # of connection points: 2
#     Edge 16, Type (0, 1), BuildingBlock: OJICUG_clean_linker_0, # of connection points: 2
#     Edge 17, Type (0, 1), BuildingBlock: OJICUG_clean_linker_0, # of connection points: 2
#     Edge 18, Type (0, 1), BuildingBlock: OJICUG_clean_linker_0, # of connection points: 2
#     Edge 19, Type (0, 1), BuildingBlock: OJICUG_clean_linker_0, # of connection points: 2
#     Edge 20, Type (0, 1), BuildingBlock: OJICUG_clean_linker_0, # of connection points: 2
#     Edge 21, Type (0, 1), BuildingBlock: OJICUG_clean_linker_0, # of connection points: 2
#     Edge 22, Type (0, 1), BuildingBlock: OJICUG_clean_linker_0, # of connection points: 2
#     Edge 23, Type (0, 1), BuildingBlock: OJICUG_clean_linker_0, # of connection points: 2
#     Edge 24, Type (0, 1), BuildingBlock: OJICUG_clean_linker_0, # of connection points: 2
#     Edge 25, Type (0, 1), BuildingBlock: OJICUG_clean_linker_0, # of connection points: 2
#     Edge 26, Type (0, 1), BuildingBlock: OJICUG_clean_linker_0, # of connection points: 2
#     Edge 27, Type (0, 1), BuildingBlock: OJICUG_clean_linker_0, # of connection points: 2
#     Edge 28, Type (0, 1), BuildingBlock: OJICUG_clean_linker_0, # of connection points: 2
#     Edge 29, Type (0, 1), BuildingBlock: OJICUG_clean_linker_0, # of connection points: 2
#     Edge 30, Type (0, 1), BuildingBlock: OJICUG_clean_linker_0, # of connection points: 2
#     Edge 31, Type (0, 1), BuildingBlock: OJICUG_clean_linker_0, # of connection points: 2
#     Edge 32, Type (0, 1), BuildingBlock: OJICUG_clean_linker_0, # of connection points: 2
#     Edge 33, Type (0, 1), BuildingBlock: OJICUG_clean_linker_0, # of connection points: 2
#     Edge 34, Type (0, 1), BuildingBlock: OJICUG_clean_linker_0, # of connection points: 2
#     Edge 35, Type (0, 1), BuildingBlock: OJICUG_clean_linker_0, # of connection points: 2
# Relax obj value: 0.007
# Max RMSD: 0.129
# Mean RMSD: 0.093
data_MOF--net-apo--node1-KUMBOL_clean_sbu_1--node2-BELTOD_clean_linker_0--edge1-OJICUG_clean_linker_0
_symmetry_space_group_name_H-M    P1
_symmetry_Int_Tables_number       1
_symmetry_cell_setting            triclinic
loop_
_symmetry_equiv_pos_as_xyz
'x, y, z'
_cell_length_a     21.172939
_cell_length_b     36.639064
_cell_length_c     47.530077
_cell_angle_alpha  89.58563
_cell_angle_beta   89.925674
_cell_angle_gamma 90.55299
loop_
_atom_site_label
_atom_site_type_symbol
_atom_site_fract_x
_atom_site_fract_y
_atom_site_fract_z
_atom_type_partial_charge
P0 P 0.36227 0.35386 0.39945 0.0
H1 H 0.40402 0.31358 0.44925 0.0
H2 H 0.39619 0.3258 0.49961 0.0
H3 H 0.28065 0.41973 0.48155 0.0
H4 H 0.29013 0.40775 0.43118 0.0
H5 H 0.34474 0.33492 0.34103 0.0
H6 H 0.26828 0.29643 0.31648 0.0
H7 H 0.17215 0.27448 0.39514 0.0
H8 H 0.24947 0.31306 0.41969 0.0
H9 H 0.46888 0.40411 0.39616 0.0
H10 H 0.2773 0.40034 0.36559 0.0
O11 O 0.4298 0.33125 0.39577 0.0
H12 H 0.48832 0.46006 0.36915 0.0
H13 H 0.29694 0.45598 0.33781 0.0
C14 C 0.34877 0.36023 0.43651 0.0
C15 C 0.37677 0.33671 0.45616 0.0
C16 C 0.37197 0.34362 0.48499 0.0
C17 C 0.33869 0.37411 0.49467 0.0
C18 C 0.30804 0.39655 0.47482 0.0
C19 C 0.31297 0.38961 0.44601 0.0
C20 C 0.30223 0.32724 0.38207 0.0
C21 C 0.30679 0.32215 0.35296 0.0
C22 C 0.26294 0.30022 0.33894 0.0
C23 C 0.2139 0.2826 0.35385 0.0
C24 C 0.20959 0.28759 0.38313 0.0
C25 C 0.25348 0.30981 0.39715 0.0
C26 C 0.37243 0.39746 0.38214 0.0
C27 C 0.43098 0.41537 0.38363 0.0
C28 C 0.44205 0.44726 0.36809 0.0
C29 C 0.39461 0.46193 0.35079 0.0
C30 C 0.33451 0.44523 0.35079 0.0
C31 C 0.32344 0.41326 0.36648 0.0
P32 P 0.30498 0.09487 0.9109 0.0
H33 H 0.34443 0.04755 0.86546 0.0
H34 H 0.28637 0.00774 0.83347 0.0
H35 H 0.11027 0.04432 0.86932 0.0
H36 H 0.1689 0.08562 0.90009 0.0
H37 H 0.41667 0.11446 0.87914 0.0
H38 H 0.44758 0.16794 0.85208 0.0
H39 H 0.27477 0.2213 0.87652 0.0
H40 H 0.24272 0.16615 0.90277 0.0
H41 H 0.22723 0.04302 0.94176 0.0
H42 H 0.29359 0.15357 0.95304 0.0
O43 O 0.37028 0.07185 0.91887 0.0
H44 H 0.17911 0.04356 0.98815 0.0
H45 H 0.2445 0.15452 0.99983 0.0
C46 C 0.26098 0.06841 0.88581 0.0
C47 C 0.2933 0.04712 0.86628 0.0
C48 C 0.25999 0.02421 0.84813 0.0
C49 C 0.19362 0.02207 0.84929 0.0
C50 C 0.1613 0.04518 0.86783 0.0
C51 C 0.19478 0.06852 0.8857 0.0
C52 C 0.32847 0.13681 0.8938 0.0
C53 C 0.3858 0.13785 0.87914 0.0
C54 C 0.40359 0.1687 0.86368 0.0
C55 C 0.36443 0.19949 0.86249 0.0
C56 C 0.30625 0.1982 0.87697 0.0
C57 C 0.28815 0.1669 0.89228 0.0
C58 C 0.26182 0.09875 0.94341 0.0
C59 C 0.22967 0.06792 0.95387 0.0
C60 C 0.20216 0.06823 0.98051 0.0
C61 C 0.2072 0.09924 0.9976 0.0
C62 C 0.23965 0.13023 0.98713 0.0
C63 C 0.2671 0.12989 0.96027 0.0
P64 P 0.86204 0.15248 0.61395 0.0
H65 H 0.92015 0.19944 0.57174 0.0
H66 H 0.90846 0.20478 0.52091 0.0
H67 H 0.77503 0.11481 0.52191 0.0
H68 H 0.78791 0.10926 0.5732 0.0
H69 H 0.86727 0.22819 0.63264 0.0
H70 H 0.79098 0.26717 0.65632 0.0
H71 H 0.65032 0.18144 0.65101 0.0
H72 H 0.72658 0.14274 0.62643 0.0
H73 H 0.91927 0.08393 0.59694 0.0
H74 H 0.80483 0.12198 0.66563 0.0
O75 O 0.933 0.16932 0.6224 0.0
H76 H 0.93551 0.02638 0.62194 0.0
H77 H 0.81591 0.06387 0.68949 0.0
C78 C 0.85568 0.15359 0.57616 0.0
C79 C 0.88903 0.18048 0.56104 0.0
C80 C 0.88194 0.18369 0.53195 0.0
C81 C 0.84066 0.16031 0.51732 0.0
C82 C 0.80776 0.13296 0.53251 0.0
C83 C 0.81487 0.12982 0.56179 0.0
C84 C 0.80318 0.18212 0.62865 0.0
C85 C 0.81993 0.21779 0.63634 0.0
C86 C 0.77624 0.24015 0.64974 0.0
C87 C 0.71511 0.2271 0.6558 0.0
C88 C 0.69748 0.19193 0.64691 0.0
C89 C 0.74091 0.16986 0.63292 0.0
C90 C 0.85938 0.10707 0.62891 0.0
C91 C 0.89543 0.07935 0.61685 0.0
C92 C 0.90453 0.04631 0.63122 0.0
C93 C 0.87747 0.04028 0.65799 0.0
C94 C 0.83873 0.06758 0.66926 0.0
C95 C 0.83101 0.10082 0.6552 0.0
P96 P 0.80401 0.40292 0.1027 0.0
H97 H 0.80329 0.48255 0.10239 0.0
H98 H 0.74645 0.52716 0.13049 0.0
H99 H 0.64445 0.43956 0.17229 0.0
H100 H 0.70194 0.39502 0.14418 0.0
H101 H 0.90229 0.39416 0.1448 0.0
H102 H 0.9298 0.34417 0.17685 0.0
H103 H 0.77235 0.28071 0.14566 0.0
H104 H 0.74361 0.33134 0.11427 0.0
H105 H 0.71475 0.43824 0.06398 0.0
H106 H 0.81456 0.33638 0.06964 0.0
O107 O 0.87195 0.42291 0.09315 0.0
H108 H 0.67158 0.41994 0.01815 0.0
H109 H 0.76985 0.31759 0.02474 0.0
C110 C 0.75763 0.43552 0.12159 0.0
C111 C 0.76856 0.47295 0.11753 0.0
C112 C 0.73581 0.49842 0.13351 0.0
C113 C 0.69142 0.48684 0.1538 0.0
C114 C 0.67922 0.44926 0.15719 0.0
C115 C 0.71181 0.42381 0.14105 0.0
C116 C 0.82247 0.36587 0.12637 0.0
C117 C 0.8737 0.36949 0.14481 0.0
C118 C 0.8891 0.34108 0.16325 0.0
C119 C 0.85355 0.30854 0.16344 0.0
C120 C 0.801 0.30538 0.14557 0.0
C121 C 0.78488 0.33414 0.12752 0.0
C122 C 0.76579 0.38801 0.07085 0.0
C123 C 0.72609 0.4116 0.05578 0.0
C124 C 0.70179 0.40129 0.02955 0.0
C125 C 0.71656 0.36712 0.01819 0.0
C126 C 0.75651 0.34372 0.03332 0.0
C127 C 0.78175 0.35435 0.05912 0.0
P128 P 0.7956 0.59934 0.6042 0.0
H129 H 0.84875 0.61943 0.54989 0.0
H130 H 0.80429 0.62084 0.50277 0.0
H131 H 0.61756 0.60333 0.53773 0.0
H132 H 0.66333 0.60055 0.58492 0.0
H133 H 0.8596 0.60537 0.65721 0.0
H134 H 0.89198 0.65684 0.68609 0.0
H135 H 0.80497 0.73103 0.62696 0.0
H136 H 0.77133 0.67877 0.59822 0.0
H137 H 0.78547 0.52017 0.60359 0.0
H138 H 0.69925 0.60903 0.64802 0.0
O139 O 0.86417 0.57893 0.59768 0.0
H140 H 0.72668 0.47632 0.63268 0.0
H141 H 0.64094 0.56526 0.67763 0.0
C142 C 0.75956 0.60913 0.57077 0.0
C143 C 0.79812 0.61643 0.54744 0.0
C144 C 0.77237 0.61746 0.52043 0.0
C145 C 0.70722 0.61166 0.51625 0.0
C146 C 0.66809 0.60699 0.54004 0.0
C147 C 0.69411 0.60572 0.56709 0.0
C148 C 0.81379 0.63835 0.6255 0.0
C149 C 0.84708 0.6327 0.65054 0.0
C150 C 0.8658 0.66218 0.66696 0.0
C151 C 0.85191 0.69809 0.65861 0.0
C152 C 0.81629 0.70368 0.63396 0.0
C153 C 0.79741 0.67391 0.61744 0.0
C154 C 0.74783 0.56771 0.62418 0.0
C155 C 0.75391 0.53021 0.61966 0.0
C156 C 0.7205 0.50521 0.63637 0.0
C157 C 0.68002 0.51735 0.65776 0.0
C158 C 0.67179 0.55508 0.66133 0.0
C159 C 0.70538 0.5801 0.64457 0.0
P160 P 0.86329 0.85721 0.11372 0.0
H161 H 0.96136 0.87938 0.15328 0.0
H162 H 0.97818 0.93341 0.18133 0.0
H163 H 0.80304 0.97814 0.15006 0.0
H164 H 0.78989 0.92483 0.11984 0.0
H165 H 0.85159 0.77818 0.11984 0.0
H166 H 0.77472 0.73857 0.14343 0.0
H167 H 0.66087 0.83247 0.1626 0.0
H168 H 0.73871 0.87201 0.13946 0.0
H169 H 0.91749 0.91376 0.07764 0.0
H170 H 0.78731 0.82339 0.06888 0.0
O171 O 0.93049 0.83381 0.11491 0.0
H172 H 0.91423 0.9245 0.02695 0.0
H173 H 0.78259 0.83444 0.01808 0.0
C174 C 0.87408 0.89782 0.13459 0.0
C175 C 0.92665 0.90083 0.15227 0.0
C176 C 0.93571 0.93179 0.16875 0.0
C177 C 0.89138 0.96026 0.16865 0.0
C178 C 0.83857 0.95712 0.15073 0.0
C179 C 0.83045 0.92637 0.13365 0.0
C180 C 0.8019 0.82824 0.12843 0.0
C181 C 0.81005 0.79031 0.12905 0.0
C182 C 0.76566 0.76758 0.14238 0.0
C183 C 0.71177 0.78231 0.15519 0.0
C184 C 0.70245 0.82026 0.15347 0.0
C185 C 0.74698 0.84297 0.1401 0.0
C186 C 0.85128 0.86845 0.07717 0.0
C187 C 0.88694 0.89677 0.06487 0.0
C188 C 0.88522 0.90279 0.03581 0.0
C189 C 0.84813 0.88035 0.01834 0.0
C190 C 0.81225 0.85197 0.03082 0.0
C191 C 0.81411 0.84597 0.05995 0.0
P192 P 0.29986 0.89944 0.40747 0.0
H193 H 0.36139 0.88453 0.46097 0.0
H194 H 0.32237 0.86513 0.50689 0.0
H195 H 0.13144 0.86421 0.47467 0.0
H196 H 0.17155 0.88258 0.4283 0.0
H197 H 0.29031 0.88841 0.34631 0.0
H198 H 0.31451 0.83723 0.31634 0.0
H199 H 0.37376 0.77537 0.38949 0.0
H200 H 0.34317 0.82564 0.41951 0.0
H201 H 0.30602 0.97891 0.40482 0.0
H202 H 0.18265 0.89358 0.3744 0.0
O203 O 0.37071 0.91878 0.41224 0.0
H204 H 0.24633 0.02415 0.3782 0.0
H205 H 0.12294 0.93889 0.34733 0.0
C206 C 0.26928 0.88575 0.44136 0.0
C207 C 0.31107 0.8804 0.46379 0.0
C208 C 0.28855 0.86945 0.49016 0.0
C209 C 0.22354 0.86355 0.49472 0.0
C210 C 0.18179 0.86835 0.47196 0.0
C211 C 0.20457 0.87917 0.44546 0.0
C212 C 0.31226 0.86042 0.38536 0.0
C213 C 0.30603 0.86336 0.35608 0.0
C214 C 0.32147 0.83412 0.33878 0.0
C215 C 0.34645 0.8018 0.35026 0.0
C216 C 0.35317 0.79921 0.37971 0.0
C217 C 0.33597 0.82815 0.39704 0.0
C218 C 0.2498 0.9328 0.39096 0.0
C219 C 0.26583 0.96991 0.39255 0.0
C220 C 0.23154 0.99578 0.37741 0.0
C221 C 0.18064 0.98492 0.36038 0.0
C222 C 0.16271 0.94788 0.35991 0.0
C223 C 0.19656 0.92206 0.37543 0.0
P224 P 0.34917 0.64457 0.90017 0.0
H225 H 0.398 0.62822 0.84512 0.0
H226 H 0.41625 0.57166 0.81988 0.0
H227 H 0.34029 0.50997 0.89023 0.0
H228 H 0.32254 0.56717 0.9156 0.0
H229 H 0.32994 0.72303 0.89791 0.0
H230 H 0.25711 0.76173 0.8716 0.0
H231 H 0.16929 0.66568 0.83602 0.0
H232 H 0.24257 0.62709 0.86242 0.0
H233 H 0.41481 0.61055 0.94739 0.0
H234 H 0.24276 0.67047 0.93442 0.0
O235 O 0.41845 0.66657 0.89838 0.0
H236 H 0.40081 0.61535 0.99851 0.0
H237 H 0.22892 0.67547 0.98512 0.0
C238 C 0.35952 0.60187 0.88227 0.0
C239 C 0.38514 0.60253 0.85512 0.0
C240 C 0.3951 0.57014 0.84062 0.0
C241 C 0.37951 0.53624 0.85298 0.0
C242 C 0.35329 0.53563 0.88024 0.0
C243 C 0.343 0.56828 0.89473 0.0
C244 C 0.29253 0.67228 0.88167 0.0
C245 C 0.29495 0.71031 0.88446 0.0
C246 C 0.25295 0.73238 0.86957 0.0
C247 C 0.20761 0.7168 0.85157 0.0
C248 C 0.20429 0.67853 0.84938 0.0
C249 C 0.2461 0.65644 0.86449 0.0
C250 C 0.33012 0.6403 0.93705 0.0
C251 C 0.37331 0.62397 0.95552 0.0
C252 C 0.36531 0.62674 0.9847 0.0
C253 C 0.31432 0.64631 0.99578 0.0
C254 C 0.26929 0.66079 0.97717 0.0
C255 C 0.27705 0.65776 0.9481 0.0
C256 C 0.81214 0.08741 0.26303 0.0
C257 C 0.82568 0.02623 0.28165 0.0
C258 C 0.84589 0.06294 0.27947 0.0
C259 C 0.77228 0.01444 0.26658 0.0
C260 C 0.75783 0.07593 0.24833 0.0
C261 C 0.73837 0.03924 0.25001 0.0
N262 N 0.83339 0.12244 0.26098 0.0
C263 C 0.80018 0.14805 0.24639 0.0
C264 C 0.72469 0.10174 0.23241 0.0
C265 C 0.74563 0.13803 0.23168 0.0
Gd266 Gd 0.07614 0.14219 0.23315 0.0
Gd267 Gd 0.92535 0.13691 0.28591 0.0
N268 N 0.89772 0.07515 0.29364 0.0
C269 C 0.8592 0.00259 0.29925 0.0
C270 C 0.9277 0.05279 0.31232 0.0
C271 C 0.90985 0.01608 0.31496 0.0
H272 H 0.96441 0.06318 0.3258 0.0
H273 H 0.93461 0.99833 0.32942 0.0
H274 H 0.06157 0.22534 0.20603 0.0
H275 H 0.81586 0.17617 0.24605 0.0
H276 H 0.1181 0.28492 0.20707 0.0
H277 H 0.84528 0.97418 0.30146 0.0
H278 H 0.75634 0.98629 0.26788 0.0
H279 H 0.18008 0.08016 0.25821 0.0
H280 H 0.68258 0.09402 0.22088 0.0
H281 H 0.71977 0.15829 0.21981 0.0
H282 H 0.30001 0.26187 0.26476 0.0
H283 H 0.69694 0.02982 0.23874 0.0
H284 H 0.33629 0.1383 0.29381 0.0
H285 H 0.28036 0.08009 0.28432 0.0
N286 N 0.17505 0.13814 0.25566 0.0
C287 C 0.20709 0.17013 0.25902 0.0
C288 C 0.20217 0.10591 0.26338 0.0
C289 C 0.29129 0.13859 0.28298 0.0
C290 C 0.25981 0.10569 0.27772 0.0
C291 C 0.26583 0.17129 0.27297 0.0
H292 H 0.34306 0.20625 0.28651 0.0
N293 N 0.12705 0.19918 0.23309 0.0
C294 C 0.18297 0.20149 0.24689 0.0
C295 C 0.19245 0.26522 0.23401 0.0
C296 C 0.21672 0.23478 0.24818 0.0
C297 C 0.10465 0.22815 0.21803 0.0
C298 C 0.13659 0.26175 0.21854 0.0
O299 O 0.92238 0.11361 0.24161 0.0
O300 O 0.02067 0.08981 0.23642 0.0
O301 O 0.05982 0.1459 0.18821 0.0
O302 O 0.14734 0.1237 0.20363 0.0
O303 O 0.01706 0.11382 0.30253 0.0
O304 O 0.06999 0.09339 0.26301 0.0
O305 O 0.05561 0.18853 0.26288 0.0
O306 O 0.01676 0.16076 0.30262 0.0
O307 O 0.87943 0.13048 0.32683 0.0
O308 O 0.87097 0.18175 0.30306 0.0
O309 O 0.98382 0.16669 0.21862 0.0
O310 O 0.93302 0.18758 0.2586 0.0
C311 C 0.95952 0.08763 0.23289 0.0
C312 C 0.05871 0.09259 0.29033 0.0
C313 C 0.1074 0.10088 0.16088 0.0
C314 C 0.11959 0.08072 0.11238 0.0
C315 C 0.07484 0.03969 0.14788 0.0
C316 C 0.08172 0.0667 0.16824 0.0
C317 C 0.09362 0.04656 0.12013 0.0
C318 C 0.12627 0.10779 0.13304 0.0
C319 C 0.11251 0.13014 0.18167 0.0
C320 C 0.27379 0.23643 0.26315 0.0
C321 C 0.29822 0.20477 0.27559 0.0
H322 H 0.21699 0.29129 0.23447 0.0
C323 C 0.05243 0.18568 0.29032 0.0
C324 C 0.94637 0.18976 0.23152 0.0
C325 C 0.81775 0.17853 0.34846 0.0
C326 C 0.79346 0.1856 0.39845 0.0
C327 C 0.73441 0.21927 0.36301 0.0
C328 C 0.77048 0.20368 0.34177 0.0
C329 C 0.74586 0.21046 0.39114 0.0
C330 C 0.82864 0.16915 0.37685 0.0
C331 C 0.85692 0.16336 0.32582 0.0
H332 H 0.05493 0.01334 0.15363 0.0
H333 H 0.06686 0.06095 0.18961 0.0
H334 H 0.08856 0.02498 0.10482 0.0
H335 H 0.1451 0.13449 0.12741 0.0
H336 H 0.69779 0.23853 0.35768 0.0
H337 H 0.76134 0.21123 0.32008 0.0
H338 H 0.71744 0.22317 0.40723 0.0
H339 H 0.86604 0.15031 0.38214 0.0
C340 C 0.71673 0.38296 0.76664 0.0
C341 C 0.7259 0.44711 0.77852 0.0
C342 C 0.69053 0.41429 0.77791 0.0
C343 C 0.78749 0.44802 0.76749 0.0
C344 C 0.77853 0.38378 0.75553 0.0
C345 C 0.81371 0.41646 0.75603 0.0
N346 N 0.68108 0.35193 0.76582 0.0
C347 C 0.70491 0.32053 0.75502 0.0
C348 C 0.80291 0.3518 0.74399 0.0
C349 C 0.76598 0.32001 0.74382 0.0
Gd350 Gd 0.4269 0.36431 0.73136 0.0
Gd351 Gd 0.57869 0.35567 0.78433 0.0
N352 N 0.63 0.41284 0.78768 0.0
C353 C 0.69833 0.47806 0.7902 0.0
C354 C 0.60417 0.44253 0.80025 0.0
C355 C 0.63745 0.47564 0.80136 0.0
H356 H 0.55861 0.44088 0.81 0.0
H357 H 0.61629 0.49919 0.81109 0.0
H358 H 0.46628 0.28636 0.69652 0.0
H359 H 0.67717 0.29568 0.75551 0.0
H360 H 0.42392 0.22463 0.69069 0.0
H361 H 0.72395 0.50377 0.79107 0.0
H362 H 0.81523 0.47302 0.76772 0.0
H363 H 0.31866 0.40933 0.76788 0.0
H364 H 0.85018 0.35134 0.73524 0.0
H365 H 0.7846 0.29506 0.73518 0.0
H366 H 0.22259 0.22713 0.73655 0.0
H367 H 0.86122 0.41764 0.74755 0.0
H368 H 0.15862 0.33849 0.77988 0.0
H369 H 0.21099 0.39845 0.78663 0.0
N370 N 0.32682 0.356 0.75116 0.0
C371 C 0.29886 0.32296 0.74689 0.0
C372 C 0.29622 0.38301 0.76512 0.0
C373 C 0.20577 0.34313 0.77163 0.0
C374 C 0.23525 0.37698 0.77559 0.0
C375 C 0.23758 0.31557 0.75724 0.0
H376 H 0.16351 0.27464 0.76125 0.0
N377 N 0.39231 0.30382 0.7236 0.0
C378 C 0.3329 0.29597 0.73321 0.0
C379 C 0.33949 0.23496 0.71446 0.0
C380 C 0.30535 0.26116 0.72917 0.0
C381 C 0.42345 0.27915 0.70738 0.0
C382 C 0.39839 0.24418 0.70319 0.0
O383 O 0.59372 0.38776 0.74409 0.0
O384 O 0.49612 0.41156 0.73354 0.0
O385 O 0.41379 0.36537 0.68535 0.0
O386 O 0.35993 0.4013 0.7127 0.0
O387 O 0.49344 0.38674 0.80065 0.0
O388 O 0.44217 0.4107 0.7615 0.0
O389 O 0.41029 0.33677 0.7739 0.0
O390 O 0.50672 0.31152 0.7778 0.0
O391 O 0.57736 0.35586 0.83099 0.0
O392 O 0.63876 0.3194 0.80726 0.0
O393 O 0.51769 0.34028 0.71409 0.0
O394 O 0.5587 0.31106 0.75293 0.0
C395 C 0.55778 0.41101 0.73058 0.0
C396 C 0.45422 0.41007 0.78872 0.0
C397 C 0.33766 0.40691 0.66295 0.0
C398 C 0.31809 0.41263 0.61237 0.0
C399 C 0.26218 0.45112 0.64536 0.0
C400 C 0.29359 0.43466 0.66775 0.0
C401 C 0.27435 0.44031 0.61788 0.0
C402 C 0.34945 0.3957 0.63511 0.0
C403 C 0.37117 0.39066 0.68723 0.0
C404 C 0.24429 0.25374 0.73945 0.0
C405 C 0.2105 0.28085 0.75341 0.0
H406 H 0.31996 0.20794 0.71091 0.0
C407 C 0.44876 0.31437 0.78672 0.0
C408 C 0.55686 0.31674 0.72557 0.0
C409 C 0.64331 0.3119 0.85736 0.0
C410 C 0.66593 0.3108 0.90782 0.0
C411 C 0.68894 0.25798 0.87892 0.0
C412 C 0.66615 0.27614 0.85528 0.0
C413 C 0.68907 0.27511 0.90495 0.0
C414 C 0.6432 0.32925 0.88374 0.0
C415 C 0.61976 0.33026 0.83175 0.0
H416 H 0.22829 0.47242 0.64933 0.0
H417 H 0.28336 0.44383 0.68887 0.0
H418 H 0.24893 0.45341 0.60088 0.0
H419 H 0.38352 0.37447 0.63109 0.0
H420 H 0.70686 0.23054 0.87703 0.0
H421 H 0.66635 0.26208 0.8353 0.0
H422 H 0.70828 0.26051 0.92284 0.0
H423 H 0.62536 0.35676 0.88553 0.0
C424 C 0.80346 0.82958 0.75825 0.0
C425 C 0.80376 0.7662 0.77344 0.0
C426 C 0.83363 0.80075 0.77177 0.0
C427 C 0.74422 0.76091 0.76103 0.0
C428 C 0.74359 0.82437 0.74586 0.0
C429 C 0.71421 0.78991 0.74732 0.0
N430 N 0.83358 0.86246 0.75647 0.0
C431 C 0.80605 0.89147 0.74335 0.0
C432 C 0.71525 0.85392 0.73213 0.0
C433 C 0.74659 0.88762 0.73092 0.0
Gd434 Gd 0.08504 0.86472 0.72864 0.0
Gd435 Gd 0.9313 0.86665 0.77915 0.0
N436 N 0.89166 0.80654 0.78344 0.0
C437 C 0.83412 0.73805 0.78793 0.0
C438 C 0.91918 0.7798 0.79924 0.0
C439 C 0.89167 0.74503 0.80118 0.0
H440 H 0.96113 0.78512 0.81128 0.0
H441 H 0.91429 0.72382 0.8134 0.0
H442 H 0.05829 0.95005 0.70344 0.0
H443 H 0.82938 0.91778 0.74294 0.0
H444 H 0.10481 0.01137 0.7074 0.0
H445 H 0.81271 0.71114 0.78969 0.0
H446 H 0.72074 0.73453 0.76209 0.0
H447 H 0.18916 0.80738 0.75692 0.0
H448 H 0.66921 0.85102 0.72242 0.0
H449 H 0.72482 0.91069 0.72056 0.0
H450 H 0.29753 0.99214 0.75803 0.0
H451 H 0.66824 0.78539 0.7379 0.0
H452 H 0.34882 0.86968 0.78508 0.0
H453 H 0.29345 0.81026 0.78017 0.0
N454 N 0.18494 0.86451 0.7497 0.0
C455 C 0.21513 0.89733 0.75154 0.0
C456 C 0.21251 0.83343 0.75948 0.0
C457 C 0.30299 0.86855 0.77499 0.0
C458 C 0.2718 0.83497 0.77235 0.0
C459 C 0.27479 0.90027 0.7645 0.0
H460 H 0.34975 0.93751 0.77686 0.0
N461 N 0.12688 0.92457 0.72931 0.0
C462 C 0.18516 0.92825 0.74117 0.0
C463 C 0.1846 0.99309 0.73156 0.0
C464 C 0.21494 0.96274 0.74311 0.0
C465 C 0.09973 0.95359 0.71608 0.0
C466 C 0.12727 0.98836 0.71754 0.0
O467 O 0.9215 0.84101 0.73578 0.0
O468 O 0.01917 0.81635 0.72787 0.0
O469 O 0.0928 0.87385 0.68351 0.0
O470 O 0.15445 0.8354 0.70424 0.0
O471 O 0.01917 0.83794 0.79536 0.0
O472 O 0.06823 0.81468 0.75578 0.0
O473 O 0.09457 0.88797 0.77234 0.0
O474 O 0.99903 0.91458 0.78084 0.0
O475 O 0.91814 0.86415 0.82535 0.0
O476 O 0.86038 0.89946 0.79879 0.0
O477 O 0.99674 0.89284 0.71244 0.0
O478 O 0.94926 0.91619 0.75205 0.0
C479 C 0.95785 0.81658 0.72399 0.0
C480 C 0.05794 0.81478 0.78317 0.0
C481 C 0.12989 0.82471 0.65637 0.0
C482 C 0.14178 0.81457 0.6058 0.0
C483 C 0.10896 0.76478 0.63702 0.0
C484 C 0.11216 0.78803 0.66013 0.0
C485 C 0.12405 0.77778 0.61008 0.0
C486 C 0.14372 0.83791 0.62924 0.0
C487 C 0.13668 0.84955 0.68039 0.0
C488 C 0.27419 0.96581 0.75619 0.0
C489 C 0.30402 0.93468 0.76685 0.0
H490 H 0.20593 0.02005 0.73258 0.0
C491 C 0.06032 0.91298 0.78439 0.0
C492 C 0.95911 0.91632 0.72475 0.0
C493 C 0.83606 0.90132 0.84837 0.0
C494 C 0.81813 0.90783 0.899 0.0
C495 C 0.75011 0.93877 0.8655 0.0
C496 C 0.78438 0.9243 0.84329 0.0
C497 C 0.76687 0.93076 0.89313 0.0
C498 C 0.85243 0.89272 0.87644 0.0
C499 C 0.8726 0.88782 0.82402 0.0
H500 H 0.09574 0.73641 0.64006 0.0
H501 H 0.10163 0.7773 0.6809 0.0
H502 H 0.12316 0.75875 0.59277 0.0
H503 H 0.15633 0.86647 0.62655 0.0
H504 H 0.71046 0.95641 0.86128 0.0
H505 H 0.77035 0.93134 0.82204 0.0
H506 H 0.73925 0.9423 0.91003 0.0
H507 H 0.89229 0.87521 0.88073 0.0
C508 C 0.70714 0.67338 0.25321 0.0
C509 C 0.71257 0.73828 0.26294 0.0
C510 C 0.68076 0.70437 0.26469 0.0
C511 C 0.76987 0.74092 0.24812 0.0
C512 C 0.76612 0.67559 0.23945 0.0
C513 C 0.79648 0.70966 0.23631 0.0
N514 N 0.67713 0.64077 0.25711 0.0
C515 C 0.70657 0.60905 0.2502 0.0
C516 C 0.7939 0.64333 0.23017 0.0
C517 C 0.76449 0.60986 0.23603 0.0
Gd518 Gd 0.42768 0.63448 0.22674 0.0
Gd519 Gd 0.57765 0.64306 0.27928 0.0
N520 N 0.62461 0.70113 0.27832 0.0
C521 C 0.6862 0.76835 0.27652 0.0
C522 C 0.60027 0.72974 0.29289 0.0
C523 C 0.63024 0.76392 0.29189 0.0
H524 H 0.55718 0.72615 0.30485 0.0
H525 H 0.61018 0.7868 0.30293 0.0
H526 H 0.47074 0.56049 0.18878 0.0
H527 H 0.68614 0.58295 0.25594 0.0
H528 H 0.44032 0.49586 0.18506 0.0
H529 H 0.70923 0.79487 0.2757 0.0
H530 H 0.7946 0.76684 0.24616 0.0
H531 H 0.31681 0.67341 0.26584 0.0
H532 H 0.83915 0.64385 0.21949 0.0
H533 H 0.78688 0.58463 0.23005 0.0
H534 H 0.25635 0.48418 0.24351 0.0
H535 H 0.84148 0.71194 0.22552 0.0
H536 H 0.18048 0.59154 0.28911 0.0
H537 H 0.21873 0.65554 0.29078 0.0
N538 N 0.33506 0.61981 0.25134 0.0
C539 C 0.31349 0.58491 0.24903 0.0
C540 C 0.30111 0.64531 0.26545 0.0
C541 C 0.22369 0.59921 0.27825 0.0
C542 C 0.24525 0.63534 0.27935 0.0
C543 C 0.25769 0.5735 0.26285 0.0
H544 H 0.19515 0.52763 0.27151 0.0
N545 N 0.40125 0.57262 0.21964 0.0
C546 C 0.34821 0.56047 0.23317 0.0
C547 C 0.36227 0.50026 0.21388 0.0
C548 C 0.32762 0.52389 0.23082 0.0
C549 C 0.43272 0.55021 0.20171 0.0
C550 C 0.41456 0.51361 0.199 0.0
O551 O 0.55457 0.68884 0.24885 0.0
O552 O 0.51782 0.65983 0.20964 0.0
O553 O 0.38253 0.62743 0.18575 0.0
O554 O 0.37154 0.67839 0.20918 0.0
O555 O 0.48293 0.66386 0.29375 0.0
O556 O 0.43288 0.68504 0.25364 0.0
O557 O 0.42525 0.60915 0.27073 0.0
O558 O 0.52635 0.58938 0.27643 0.0
O559 O 0.56036 0.64609 0.32424 0.0
O560 O 0.65043 0.62738 0.30902 0.0
O561 O 0.52039 0.6127 0.21025 0.0
O562 O 0.57564 0.59419 0.24993 0.0
C563 C 0.55199 0.68556 0.22146 0.0
C564 C 0.44502 0.68666 0.28078 0.0
C565 C 0.31779 0.67469 0.16415 0.0
C566 C 0.28845 0.67958 0.11448 0.0
C567 C 0.2313 0.71364 0.15006 0.0
C568 C 0.27009 0.69939 0.17101 0.0
C569 C 0.24021 0.70384 0.12205 0.0
C570 C 0.32668 0.66464 0.13587 0.0
C571 C 0.35809 0.65985 0.18664 0.0
C572 C 0.27267 0.51221 0.245 0.0
C573 C 0.23772 0.53697 0.26091 0.0
H574 H 0.34804 0.47196 0.21155 0.0
C575 C 0.46547 0.58504 0.28034 0.0
C576 C 0.56399 0.5928 0.22266 0.0
C577 C 0.61388 0.6034 0.35227 0.0
C578 C 0.62678 0.58473 0.40138 0.0
C579 C 0.60076 0.5398 0.36548 0.0
C580 C 0.60117 0.56713 0.34487 0.0
C581 C 0.61383 0.5484 0.3935 0.0
C582 C 0.6259 0.61215 0.38044 0.0
C583 C 0.61487 0.63253 0.33094 0.0
H584 H 0.19415 0.73241 0.15555 0.0
H585 H 0.26236 0.70739 0.19263 0.0
H586 H 0.20893 0.71517 0.10632 0.0
H587 H 0.3644 0.64613 0.1305 0.0
H588 H 0.59112 0.51178 0.35966 0.0
H589 H 0.59211 0.56001 0.32319 0.0
H590 H 0.61514 0.52641 0.40881 0.0
H591 H 0.63446 0.64042 0.38593 0.0
C592 C 0.13699 0.00514 0.31387 0.0
C593 C 0.14803 0.01212 0.34251 0.0
H594 H 0.10069 0.02545 0.27474 0.0
C595 C 0.12993 0.04582 0.3537 0.0
H596 H 0.1511 0.97952 0.30466 0.0
C597 C 0.10115 0.07198 0.33664 0.0
C598 C 0.09063 0.06514 0.30799 0.0
H599 H 0.13765 0.05183 0.37571 0.0
H600 H 0.08745 0.09768 0.34585 0.0
C601 C 0.10886 0.03152 0.29671 0.0
C602 C 0.38021 0.50016 0.80835 0.0
C603 C 0.39214 0.50198 0.83739 0.0
H604 H 0.38996 0.47004 0.77039 0.0
C605 C 0.41992 0.47182 0.85083 0.0
H606 H 0.35776 0.52261 0.79744 0.0
C607 C 0.4381 0.44129 0.83529 0.0
C608 C 0.42897 0.44033 0.80597 0.0
H609 H 0.42997 0.47241 0.87316 0.0
H610 H 0.46112 0.41898 0.84612 0.0
C611 C 0.39838 0.4698 0.79286 0.0
C612 C 0.58468 0.49463 0.68445 0.0
C613 C 0.64835 0.49061 0.67677 0.0
H614 H 0.50587 0.47256 0.70744 0.0
C615 C 0.68203 0.46066 0.68735 0.0
H616 H 0.55744 0.51734 0.67649 0.0
C617 C 0.65259 0.43502 0.70489 0.0
C618 C 0.5888 0.43878 0.71241 0.0
H619 H 0.73141 0.45709 0.68216 0.0
H620 H 0.67982 0.41199 0.71222 0.0
C621 C 0.5551 0.46888 0.70204 0.0
C622 C 0.88205 0.02807 0.17815 0.0
C623 C 0.90159 0.99302 0.18681 0.0
H624 H 0.88388 0.08572 0.18655 0.0
C625 C 0.93415 0.98974 0.21255 0.0
H626 H 0.85734 0.03201 0.15847 0.0
C627 C 0.95107 0.02061 0.22791 0.0
C628 C 0.93372 0.0554 0.21858 0.0
H629 H 0.94791 0.96334 0.22069 0.0
H630 H 0.97853 0.01735 0.24698 0.0
C631 C 0.89737 0.05895 0.19412 0.0
C632 C 0.90035 0.00998 0.70454 0.0
C633 C 0.89376 0.00732 0.67513 0.0
H634 H 0.92515 0.98343 0.74311 0.0
C635 C 0.90605 0.97352 0.66238 0.0
H636 H 0.89309 0.03558 0.71523 0.0
C637 C 0.92611 0.94365 0.6785 0.0
C638 C 0.93333 0.94674 0.70777 0.0
H639 H 0.90063 0.97011 0.6399 0.0
H640 H 0.93636 0.91821 0.66804 0.0
C641 C 0.91923 0.98002 0.72064 0.0
C642 C 0.65141 0.50795 0.20066 0.0
C643 C 0.65868 0.51394 0.17156 0.0
H644 H 0.61597 0.52834 0.23972 0.0
C645 C 0.6353 0.54627 0.15959 0.0
H646 H 0.66952 0.48346 0.21053 0.0
C647 C 0.60507 0.57197 0.1763 0.0
C648 C 0.5979 0.56601 0.20535 0.0
H649 H 0.63967 0.5515 0.13722 0.0
H650 H 0.58729 0.59657 0.16645 0.0
C651 C 0.62145 0.5338 0.21741 0.0
C652 C 0.36833 0.52258 0.32815 0.0
C653 C 0.40972 0.49304 0.33162 0.0
H654 H 0.35387 0.57543 0.30946 0.0
C655 C 0.46693 0.49324 0.31664 0.0
H656 H 0.32382 0.52315 0.33938 0.0
C657 C 0.48355 0.52267 0.2994 0.0
C658 C 0.44369 0.5529 0.29678 0.0
H659 H 0.49912 0.47052 0.31825 0.0
H660 H 0.52826 0.52187 0.28832 0.0
C661 C 0.38536 0.55239 0.31095 0.0
C662 C 0.18441 0.95952 0.82865 0.0
C663 C 0.15886 0.99445 0.83236 0.0
H664 H 0.1728 0.90642 0.81106 0.0
C665 C 0.09953 0.00215 0.8205 0.0
H666 H 0.2292 0.95225 0.838 0.0
C667 C 0.06675 0.97552 0.80522 0.0
C668 C 0.09292 0.94085 0.80139 0.0
H669 H 0.07873 0.02885 0.8227 0.0
H670 H 0.02153 0.98229 0.79601 0.0
C671 C 0.15189 0.93311 0.81333 0.0
C672 C 0.21758 0.11162 0.04936 0.0
C673 C 0.18187 0.09792 0.0268 0.0
H674 H 0.22648 0.11645 0.09405 0.0
C675 C 0.12385 0.08039 0.03256 0.0
H676 H 0.26283 0.12485 0.04568 0.0
C677 C 0.10316 0.07543 0.06025 0.0
C678 C 0.13989 0.08797 0.08288 0.0
H679 H 0.09469 0.07007 0.01563 0.0
H680 H 0.05844 0.06161 0.06395 0.0
C681 C 0.19681 0.1067 0.0771 0.0
C682 C 0.33136 0.35597 0.54601 0.0
C683 C 0.33752 0.38332 0.52516 0.0
H684 H 0.32074 0.34377 0.59007 0.0
C685 C 0.34244 0.41992 0.53363 0.0
H686 H 0.3273 0.32751 0.54025 0.0
C687 C 0.33856 0.42911 0.56201 0.0
C688 C 0.32992 0.40198 0.58274 0.0
H689 H 0.34911 0.44161 0.51828 0.0
H690 H 0.34152 0.45764 0.56776 0.0
C691 C 0.32776 0.36522 0.57455 0.0
C692 C 0.70347 0.37781 0.96624 0.0
C693 C 0.69301 0.35582 0.9902 0.0
H694 H 0.70338 0.38071 0.9211 0.0
C695 C 0.66573 0.32108 0.98691 0.0
H696 H 0.72464 0.40469 0.96826 0.0
C697 C 0.65296 0.30757 0.96014 0.0
C698 C 0.66796 0.32829 0.93597 0.0
H699 H 0.65632 0.30382 1.00507 0.0
H700 H 0.63358 0.28022 0.95832 0.0
C701 C 0.69118 0.36411 0.93929 0.0
C702 C 0.82236 0.20172 0.47605 0.0
C703 C 0.82972 0.16611 0.48667 0.0
H704 H 0.80603 0.23563 0.44007 0.0
C705 C 0.82636 0.13666 0.46786 0.0
H706 H 0.82403 0.22501 0.48994 0.0
C707 C 0.81586 0.14281 0.43906 0.0
C708 C 0.80759 0.17848 0.42864 0.0
H709 H 0.83232 0.10893 0.47538 0.0
H710 H 0.81297 0.11967 0.42505 0.0
C711 C 0.81142 0.2078 0.44747 0.0
C712 C 0.8441 0.92291 0.97677 0.0
C713 C 0.84612 0.88703 0.98737 0.0
H714 H 0.83504 0.95745 0.94054 0.0
C715 C 0.84475 0.85788 0.96818 0.0
H716 H 0.84469 0.94603 0.99084 0.0
C717 C 0.8392 0.86452 0.93918 0.0
C718 C 0.83436 0.9004 0.92888 0.0
H719 H 0.84728 0.82992 0.97559 0.0
H720 H 0.83602 0.8416 0.92496 0.0
C721 C 0.83828 0.92948 0.94793 0.0
C722 C 0.63469 0.58126 0.48138 0.0
C723 C 0.68162 0.60761 0.48719 0.0
H724 H 0.57948 0.55403 0.45013 0.0
C725 C 0.70731 0.62793 0.46464 0.0
H726 H 0.61417 0.56474 0.49808 0.0
C727 C 0.68884 0.62093 0.43697 0.0
C728 C 0.64334 0.59379 0.43106 0.0
H729 H 0.74275 0.64887 0.46826 0.0
H730 H 0.71192 0.6361 0.42019 0.0
C731 C 0.61556 0.57461 0.45372 0.0
C732 C 0.31929 0.62704 0.04686 0.0
C733 C 0.31035 0.65435 0.02634 0.0
H734 H 0.31844 0.61333 0.09085 0.0
C735 C 0.29776 0.69006 0.0351 0.0
H736 H 0.32927 0.59928 0.04069 0.0
C737 C 0.29237 0.6982 0.06362 0.0
C738 C 0.29882 0.67077 0.08424 0.0
H739 H 0.2924 0.71191 0.01984 0.0
H740 H 0.2831 0.72614 0.06949 0.0
C741 C 0.31334 0.63514 0.07555 0.0
C742 C 0.15077 0.82648 0.52611 0.0
C743 C 0.20009 0.85222 0.5231 0.0
H744 H 0.09275 0.79505 0.55431 0.0
C745 C 0.22831 0.86638 0.54751 0.0
H746 H 0.12819 0.81475 0.50781 0.0
C747 C 0.20917 0.85438 0.57417 0.0
C748 C 0.16048 0.82823 0.57726 0.0
H749 H 0.26563 0.88673 0.5461 0.0
H750 H 0.23374 0.86513 0.59231 0.0
C751 C 0.13106 0.81475 0.55284 0.0
C752 C 0.1513 0.22419 0.34964 0.0
C753 C 0.16846 0.25867 0.33871 0.0
H754 H 0.10119 0.17384 0.34272 0.0
C755 C 0.14388 0.26962 0.31256 0.0
H756 H 0.16985 0.21488 0.36964 0.0
C757 C 0.1045 0.24628 0.29733 0.0
C758 C 0.08945 0.21132 0.3077 0.0
H759 H 0.15533 0.29624 0.30379 0.0
H760 H 0.08625 0.2555 0.27727 0.0
C761 C 0.1121 0.20071 0.33425 0.0
C762 C 0.34033 0.25213 0.8296 0.0
C763 C 0.3843 0.23197 0.84541 0.0
H764 H 0.32585 0.29473 0.79932 0.0
C765 C 0.44861 0.24174 0.84348 0.0
H766 H 0.29045 0.24543 0.83042 0.0
C767 C 0.46887 0.26905 0.82489 0.0
C768 C 0.42534 0.28804 0.80819 0.0
H769 H 0.4838 0.2278 0.85597 0.0
H770 H 0.51899 0.27487 0.82335 0.0
C771 C 0.36066 0.28018 0.81144 0.0
C772 C 0.65989 0.28608 0.66526 0.0
C773 C 0.67133 0.24952 0.67264 0.0
H774 H 0.61357 0.33591 0.67616 0.0
C775 C 0.64337 0.23497 0.69713 0.0
H776 H 0.68097 0.29791 0.64648 0.0
C777 C 0.60589 0.2568 0.71429 0.0
C778 C 0.5948 0.29339 0.707 0.0
H779 H 0.65198 0.20698 0.70343 0.0
H780 H 0.58571 0.24511 0.73332 0.0
C781 C 0.62129 0.30771 0.68213 0.0
C782 C 0.88465 0.28247 0.21026 0.0
C783 C 0.87304 0.27752 0.18144 0.0
H784 H 0.91597 0.25815 0.24893 0.0
C785 C 0.88322 0.24314 0.1695 0.0
H786 H 0.87704 0.30876 0.21991 0.0
C787 C 0.9065 0.2145 0.1859 0.0
C788 C 0.91868 0.21951 0.21467 0.0
H789 H 0.87502 0.23875 0.14728 0.0
H790 H 0.91518 0.18844 0.17605 0.0
C791 C 0.90659 0.25355 0.22683 0.0
C792 C 0.84166 0.76012 0.68098 0.0
C793 C 0.87802 0.72921 0.67492 0.0
H794 H 0.83852 0.8124 0.701 0.0
C795 C 0.94043 0.72775 0.68483 0.0
H796 H 0.79334 0.76198 0.67371 0.0
C797 C 0.9656 0.75602 0.70083 0.0
C798 C 0.92946 0.78686 0.70711 0.0
H799 H 0.9702 0.7047 0.68011 0.0
H800 H 0.01352 0.75343 0.70846 0.0
C801 C 0.86724 0.78875 0.69691 0.0
C802 C 0.6415 0.76985 0.19694 0.0
C803 C 0.66706 0.75831 0.1712 0.0
H804 H 0.58376 0.75617 0.23259 0.0
C805 C 0.65145 0.72315 0.16149 0.0
H806 H 0.65292 0.79654 0.20526 0.0
C807 C 0.61269 0.69981 0.17748 0.0
C808 C 0.58892 0.71108 0.20356 0.0
H809 H 0.66948 0.71355 0.14156 0.0
H810 H 0.60267 0.67261 0.16977 0.0
C811 C 0.60259 0.74655 0.21284 0.0
C812 C 0.39301 0.77949 0.30462 0.0
C813 C 0.36818 0.77175 0.3316 0.0
H814 H 0.43563 0.75836 0.2672 0.0
C815 C 0.36646 0.73514 0.34089 0.0
H816 H 0.39682 0.80723 0.2968 0.0
C817 C 0.39102 0.70743 0.32421 0.0
C818 C 0.4159 0.7155 0.29753 0.0
H819 H 0.3464 0.72773 0.36112 0.0
H820 H 0.3903 0.6796 0.3321 0.0
C821 C 0.41574 0.75156 0.28762 0.0
C822 C 0.13807 0.77172 0.84633 0.0
C823 C 0.16558 0.74057 0.8345 0.0
H824 H 0.08224 0.81939 0.83946 0.0
C825 C 0.15481 0.73316 0.80591 0.0
H826 H 0.14483 0.77796 0.86836 0.0
C827 C 0.11885 0.75687 0.78936 0.0
C828 C 0.09274 0.78848 0.80104 0.0
H829 H 0.17573 0.70958 0.79609 0.0
H830 H 0.11225 0.75068 0.7673 0.0
C831 C 0.10185 0.79532 0.82981 0.0
loop_
_geom_bond_atom_site_label_1
_geom_bond_atom_site_label_2
_geom_bond_distance
_geom_bond_site_symmetry_2
_ccdc_geom_bond_type
P0 O11 1.490 . S
P0 C14 1.812 . S
P0 C20 1.803 . S
P0 C26 1.819 . S
H1 C15 0.941 . S
H2 C16 0.939 . S
H3 C18 0.940 . S
H4 C19 0.940 . S
H5 C21 0.939 . S
H6 C22 0.942 . S
H7 C24 0.940 . S
H8 C25 0.939 . S
H9 C27 0.941 . S
H10 C31 0.939 . S
O11 P0 1.490 . S
H12 C28 0.939 . S
H13 C30 0.940 . S
C14 P0 1.812 . S
C14 C15 1.389 . S
C14 C19 1.391 . S
C15 H1 0.941 . S
C15 C14 1.389 . S
C15 C16 1.397 . S
C16 H2 0.939 . S
C16 C15 1.397 . S
C16 C17 1.378 . S
C17 C16 1.378 . S
C17 C18 1.378 . S
C18 H3 0.940 . S
C18 C17 1.378 . S
C18 C19 1.396 . S
C19 H4 0.940 . S
C19 C14 1.391 . S
C19 C18 1.396 . S
C20 P0 1.803 . S
C20 C21 1.378 . S
C20 C25 1.400 . S
C21 H5 0.939 . S
C21 C20 1.378 . S
C21 C22 1.361 . S
C22 H6 0.942 . S
C22 C21 1.361 . S
C22 C23 1.369 . S
C23 C22 1.369 . S
C23 C24 1.404 . S
C24 H7 0.940 . S
C24 C23 1.404 . S
C24 C25 1.389 . S
C25 H8 0.939 . S
C25 C20 1.400 . S
C25 C24 1.389 . S
C26 P0 1.819 . S
C26 C27 1.391 . S
C26 C31 1.391 . S
C27 H9 0.941 . S
C27 C26 1.391 . S
C27 C28 1.396 . S
C28 H12 0.939 . S
C28 C27 1.396 . S
C28 C29 1.397 . S
C29 C28 1.397 . S
C29 C30 1.385 . S
C30 H13 0.940 . S
C30 C29 1.385 . S
C30 C31 1.388 . S
C31 H10 0.939 . S
C31 C26 1.391 . S
C31 C30 1.388 . S
P32 O43 1.490 . S
P32 C46 1.812 . S
P32 C52 1.803 . S
P32 C58 1.819 . S
H33 C47 0.941 . S
H34 C48 0.939 1_565 S
H35 C50 0.940 . S
H36 C51 0.940 . S
H37 C53 0.939 . S
H38 C54 0.942 . S
H39 C56 0.940 . S
H40 C57 0.939 . S
H41 C59 0.941 . S
H42 C63 0.939 . S
O43 P32 1.490 . S
H44 C60 0.939 . S
H45 C62 0.940 . S
C46 P32 1.812 . S
C46 C47 1.389 . S
C46 C51 1.391 . S
C47 H33 0.941 . S
C47 C46 1.389 . S
C47 C48 1.397 . S
C48 H34 0.939 1_545 S
C48 C47 1.397 . S
C48 C49 1.378 . S
C49 C48 1.378 . S
C49 C50 1.378 . S
C50 H35 0.940 . S
C50 C49 1.378 . S
C50 C51 1.396 . S
C51 H36 0.940 . S
C51 C46 1.391 . S
C51 C50 1.396 . S
C52 P32 1.803 . S
C52 C53 1.378 . S
C52 C57 1.400 . S
C53 H37 0.939 . S
C53 C52 1.378 . S
C53 C54 1.361 . S
C54 H38 0.942 . S
C54 C53 1.361 . S
C54 C55 1.369 . S
C55 C54 1.369 . S
C55 C56 1.404 . S
C56 H39 0.940 . S
C56 C55 1.404 . S
C56 C57 1.389 . S
C57 H40 0.939 . S
C57 C52 1.400 . S
C57 C56 1.389 . S
C58 P32 1.819 . S
C58 C59 1.391 . S
C58 C63 1.391 . S
C59 H41 0.941 . S
C59 C58 1.391 . S
C59 C60 1.396 . S
C60 H44 0.939 . S
C60 C59 1.396 . S
C60 C61 1.397 . S
C61 C60 1.397 . S
C61 C62 1.385 . S
C62 H45 0.940 . S
C62 C61 1.385 . S
C62 C63 1.388 . S
C63 H42 0.939 . S
C63 C58 1.391 . S
C63 C62 1.388 . S
P64 O75 1.490 . S
P64 C78 1.812 . S
P64 C84 1.803 . S
P64 C90 1.819 . S
H65 C79 0.941 . S
H66 C80 0.939 . S
H67 C82 0.940 . S
H68 C83 0.940 . S
H69 C85 0.939 . S
H70 C86 0.942 . S
H71 C88 0.940 . S
H72 C89 0.939 . S
H73 C91 0.941 . S
H74 C95 0.939 . S
O75 P64 1.490 . S
H76 C92 0.939 . S
H77 C94 0.940 . S
C78 P64 1.812 . S
C78 C79 1.389 . S
C78 C83 1.391 . S
C79 H65 0.941 . S
C79 C78 1.389 . S
C79 C80 1.397 . S
C80 H66 0.939 . S
C80 C79 1.397 . S
C80 C81 1.378 . S
C81 C80 1.378 . S
C81 C82 1.378 . S
C82 H67 0.940 . S
C82 C81 1.378 . S
C82 C83 1.396 . S
C83 H68 0.940 . S
C83 C78 1.391 . S
C83 C82 1.396 . S
C84 P64 1.803 . S
C84 C85 1.378 . S
C84 C89 1.400 . S
C85 H69 0.939 . S
C85 C84 1.378 . S
C85 C86 1.361 . S
C86 H70 0.942 . S
C86 C85 1.361 . S
C86 C87 1.369 . S
C87 C86 1.369 . S
C87 C88 1.404 . S
C88 H71 0.940 . S
C88 C87 1.404 . S
C88 C89 1.389 . S
C89 H72 0.939 . S
C89 C84 1.400 . S
C89 C88 1.389 . S
C90 P64 1.819 . S
C90 C91 1.391 . S
C90 C95 1.391 . S
C91 H73 0.941 . S
C91 C90 1.391 . S
C91 C92 1.396 . S
C92 H76 0.939 . S
C92 C91 1.396 . S
C92 C93 1.397 . S
C93 C92 1.397 . S
C93 C94 1.385 . S
C94 H77 0.940 . S
C94 C93 1.385 . S
C94 C95 1.388 . S
C95 H74 0.939 . S
C95 C90 1.391 . S
C95 C94 1.388 . S
P96 O107 1.490 . S
P96 C110 1.812 . S
P96 C116 1.803 . S
P96 C122 1.819 . S
H97 C111 0.941 . S
H98 C112 0.939 . S
H99 C114 0.940 . S
H100 C115 0.940 . S
H101 C117 0.939 . S
H102 C118 0.942 . S
H103 C120 0.940 . S
H104 C121 0.939 . S
H105 C123 0.941 . S
H106 C127 0.939 . S
O107 P96 1.490 . S
H108 C124 0.939 . S
H109 C126 0.940 . S
C110 P96 1.812 . S
C110 C111 1.389 . S
C110 C115 1.391 . S
C111 H97 0.941 . S
C111 C110 1.389 . S
C111 C112 1.397 . S
C112 H98 0.939 . S
C112 C111 1.397 . S
C112 C113 1.378 . S
C113 C112 1.378 . S
C113 C114 1.378 . S
C114 H99 0.940 . S
C114 C113 1.378 . S
C114 C115 1.396 . S
C115 H100 0.940 . S
C115 C110 1.391 . S
C115 C114 1.396 . S
C116 P96 1.803 . S
C116 C117 1.378 . S
C116 C121 1.400 . S
C117 H101 0.939 . S
C117 C116 1.378 . S
C117 C118 1.361 . S
C118 H102 0.942 . S
C118 C117 1.361 . S
C118 C119 1.369 . S
C119 C118 1.369 . S
C119 C120 1.404 . S
C120 H103 0.940 . S
C120 C119 1.404 . S
C120 C121 1.389 . S
C121 H104 0.939 . S
C121 C116 1.400 . S
C121 C120 1.389 . S
C122 P96 1.819 . S
C122 C123 1.391 . S
C122 C127 1.391 . S
C123 H105 0.941 . S
C123 C122 1.391 . S
C123 C124 1.396 . S
C124 H108 0.939 . S
C124 C123 1.396 . S
C124 C125 1.397 . S
C125 C124 1.397 . S
C125 C126 1.385 . S
C126 H109 0.940 . S
C126 C125 1.385 . S
C126 C127 1.388 . S
C127 H106 0.939 . S
C127 C122 1.391 . S
C127 C126 1.388 . S
P128 O139 1.490 . S
P128 C142 1.812 . S
P128 C148 1.803 . S
P128 C154 1.819 . S
H129 C143 0.941 . S
H130 C144 0.939 . S
H131 C146 0.940 . S
H132 C147 0.940 . S
H133 C149 0.939 . S
H134 C150 0.942 . S
H135 C152 0.940 . S
H136 C153 0.939 . S
H137 C155 0.941 . S
H138 C159 0.939 . S
O139 P128 1.490 . S
H140 C156 0.939 . S
H141 C158 0.940 . S
C142 P128 1.812 . S
C142 C143 1.389 . S
C142 C147 1.391 . S
C143 H129 0.941 . S
C143 C142 1.389 . S
C143 C144 1.397 . S
C144 H130 0.939 . S
C144 C143 1.397 . S
C144 C145 1.378 . S
C145 C144 1.378 . S
C145 C146 1.378 . S
C146 H131 0.940 . S
C146 C145 1.378 . S
C146 C147 1.396 . S
C147 H132 0.940 . S
C147 C142 1.391 . S
C147 C146 1.396 . S
C148 P128 1.803 . S
C148 C149 1.378 . S
C148 C153 1.400 . S
C149 H133 0.939 . S
C149 C148 1.378 . S
C149 C150 1.361 . S
C150 H134 0.942 . S
C150 C149 1.361 . S
C150 C151 1.369 . S
C151 C150 1.369 . S
C151 C152 1.404 . S
C152 H135 0.940 . S
C152 C151 1.404 . S
C152 C153 1.389 . S
C153 H136 0.939 . S
C153 C148 1.400 . S
C153 C152 1.389 . S
C154 P128 1.819 . S
C154 C155 1.391 . S
C154 C159 1.391 . S
C155 H137 0.941 . S
C155 C154 1.391 . S
C155 C156 1.396 . S
C156 H140 0.939 . S
C156 C155 1.396 . S
C156 C157 1.397 . S
C157 C156 1.397 . S
C157 C158 1.385 . S
C158 H141 0.940 . S
C158 C157 1.385 . S
C158 C159 1.388 . S
C159 H138 0.939 . S
C159 C154 1.391 . S
C159 C158 1.388 . S
P160 O171 1.490 . S
P160 C174 1.812 . S
P160 C180 1.803 . S
P160 C186 1.819 . S
H161 C175 0.941 . S
H162 C176 0.939 . S
H163 C178 0.940 . S
H164 C179 0.940 . S
H165 C181 0.939 . S
H166 C182 0.942 . S
H167 C184 0.940 . S
H168 C185 0.939 . S
H169 C187 0.941 . S
H170 C191 0.939 . S
O171 P160 1.490 . S
H172 C188 0.939 . S
H173 C190 0.940 . S
C174 P160 1.812 . S
C174 C175 1.389 . S
C174 C179 1.391 . S
C175 H161 0.941 . S
C175 C174 1.389 . S
C175 C176 1.397 . S
C176 H162 0.939 . S
C176 C175 1.397 . S
C176 C177 1.378 . S
C177 C176 1.378 . S
C177 C178 1.378 . S
C178 H163 0.940 . S
C178 C177 1.378 . S
C178 C179 1.396 . S
C179 H164 0.940 . S
C179 C174 1.391 . S
C179 C178 1.396 . S
C180 P160 1.803 . S
C180 C181 1.378 . S
C180 C185 1.400 . S
C181 H165 0.939 . S
C181 C180 1.378 . S
C181 C182 1.361 . S
C182 H166 0.942 . S
C182 C181 1.361 . S
C182 C183 1.369 . S
C183 C182 1.369 . S
C183 C184 1.404 . S
C184 H167 0.940 . S
C184 C183 1.404 . S
C184 C185 1.389 . S
C185 H168 0.939 . S
C185 C180 1.400 . S
C185 C184 1.389 . S
C186 P160 1.819 . S
C186 C187 1.391 . S
C186 C191 1.391 . S
C187 H169 0.941 . S
C187 C186 1.391 . S
C187 C188 1.396 . S
C188 H172 0.939 . S
C188 C187 1.396 . S
C188 C189 1.397 . S
C189 C188 1.397 . S
C189 C190 1.385 . S
C190 H173 0.940 . S
C190 C189 1.385 . S
C190 C191 1.388 . S
C191 H170 0.939 . S
C191 C186 1.391 . S
C191 C190 1.388 . S
P192 O203 1.490 . S
P192 C206 1.812 . S
P192 C212 1.803 . S
P192 C218 1.819 . S
H193 C207 0.941 . S
H194 C208 0.939 . S
H195 C210 0.940 . S
H196 C211 0.940 . S
H197 C213 0.939 . S
H198 C214 0.942 . S
H199 C216 0.940 . S
H200 C217 0.939 . S
H201 C219 0.941 . S
H202 C223 0.939 . S
O203 P192 1.490 . S
H204 C220 0.939 1_545 S
H205 C222 0.940 . S
C206 P192 1.812 . S
C206 C207 1.389 . S
C206 C211 1.391 . S
C207 H193 0.941 . S
C207 C206 1.389 . S
C207 C208 1.397 . S
C208 H194 0.939 . S
C208 C207 1.397 . S
C208 C209 1.378 . S
C209 C208 1.378 . S
C209 C210 1.378 . S
C210 H195 0.940 . S
C210 C209 1.378 . S
C210 C211 1.396 . S
C211 H196 0.940 . S
C211 C206 1.391 . S
C211 C210 1.396 . S
C212 P192 1.803 . S
C212 C213 1.378 . S
C212 C217 1.400 . S
C213 H197 0.939 . S
C213 C212 1.378 . S
C213 C214 1.361 . S
C214 H198 0.942 . S
C214 C213 1.361 . S
C214 C215 1.369 . S
C215 C214 1.369 . S
C215 C216 1.404 . S
C216 H199 0.940 . S
C216 C215 1.404 . S
C216 C217 1.389 . S
C217 H200 0.939 . S
C217 C212 1.400 . S
C217 C216 1.389 . S
C218 P192 1.819 . S
C218 C219 1.391 . S
C218 C223 1.391 . S
C219 H201 0.941 . S
C219 C218 1.391 . S
C219 C220 1.396 . S
C220 H204 0.939 1_565 S
C220 C219 1.396 . S
C220 C221 1.397 . S
C221 C220 1.397 . S
C221 C222 1.385 . S
C222 H205 0.940 . S
C222 C221 1.385 . S
C222 C223 1.388 . S
C223 H202 0.939 . S
C223 C218 1.391 . S
C223 C222 1.388 . S
P224 O235 1.490 . S
P224 C238 1.812 . S
P224 C244 1.803 . S
P224 C250 1.819 . S
H225 C239 0.941 . S
H226 C240 0.939 . S
H227 C242 0.940 . S
H228 C243 0.940 . S
H229 C245 0.939 . S
H230 C246 0.942 . S
H231 C248 0.940 . S
H232 C249 0.939 . S
H233 C251 0.941 . S
H234 C255 0.939 . S
O235 P224 1.490 . S
H236 C252 0.939 . S
H237 C254 0.940 . S
C238 P224 1.812 . S
C238 C239 1.389 . S
C238 C243 1.391 . S
C239 H225 0.941 . S
C239 C238 1.389 . S
C239 C240 1.397 . S
C240 H226 0.939 . S
C240 C239 1.397 . S
C240 C241 1.378 . S
C241 C240 1.378 . S
C241 C242 1.378 . S
C242 H227 0.940 . S
C242 C241 1.378 . S
C242 C243 1.396 . S
C243 H228 0.940 . S
C243 C238 1.391 . S
C243 C242 1.396 . S
C244 P224 1.803 . S
C244 C245 1.378 . S
C244 C249 1.400 . S
C245 H229 0.939 . S
C245 C244 1.378 . S
C245 C246 1.361 . S
C246 H230 0.942 . S
C246 C245 1.361 . S
C246 C247 1.369 . S
C247 C246 1.369 . S
C247 C248 1.404 . S
C248 H231 0.940 . S
C248 C247 1.404 . S
C248 C249 1.389 . S
C249 H232 0.939 . S
C249 C244 1.400 . S
C249 C248 1.389 . S
C250 P224 1.819 . S
C250 C251 1.391 . S
C250 C255 1.391 . S
C251 H233 0.941 . S
C251 C250 1.391 . S
C251 C252 1.396 . S
C252 H236 0.939 . S
C252 C251 1.396 . S
C252 C253 1.397 . S
C253 C252 1.397 . S
C253 C254 1.385 . S
C254 H237 0.940 . S
C254 C253 1.385 . S
C254 C255 1.388 . S
C255 H234 0.939 . S
C255 C250 1.391 . S
C255 C254 1.388 . S
C256 C258 1.422 . S
C256 C260 1.415 . S
C256 N262 1.369 . S
C257 C258 1.421 . S
C257 C259 1.417 . S
C257 C269 1.422 . S
C258 C256 1.422 . S
C258 C257 1.421 . S
C258 N268 1.359 . S
C259 C257 1.417 . S
C259 C261 1.329 . S
C259 H278 0.930 . S
C260 C256 1.415 . S
C260 C261 1.437 . S
C260 C264 1.413 . S
C261 C259 1.329 . S
C261 C260 1.437 . S
C261 H283 0.929 . S
N262 C256 1.369 . S
N262 C263 1.338 . S
N262 Gd267 2.622 . S
C263 N262 1.338 . S
C263 C265 1.378 . S
C263 H275 0.929 . S
C264 C260 1.413 . S
C264 C265 1.348 . S
C264 H280 0.931 . S
C265 C263 1.378 . S
C265 C264 1.348 . S
C265 H281 0.930 . S
Gd266 N286 2.622 . S
Gd266 N293 2.570 . S
Gd266 O300 2.353 . S
Gd266 O301 2.468 . S
Gd266 O302 2.427 . S
Gd266 O304 2.388 . S
Gd266 O305 2.386 . S
Gd266 O309 2.307 . S
Gd266 C319 2.805 . S
Gd267 N262 2.622 . S
Gd267 N268 2.570 . S
Gd267 O299 2.386 . S
Gd267 O303 2.307 1_655 S
Gd267 O306 2.353 1_655 S
Gd267 O307 2.468 . S
Gd267 O308 2.427 . S
Gd267 O310 2.388 . S
Gd267 C331 2.805 . S
N268 C258 1.359 . S
N268 Gd267 2.570 . S
N268 C270 1.343 . S
C269 C257 1.422 . S
C269 C271 1.321 . S
C269 H277 0.931 1_545 S
C270 N268 1.343 . S
C270 C271 1.390 . S
C270 H272 0.931 . S
C271 C269 1.321 . S
C271 C270 1.390 . S
C271 H273 0.930 1_545 S
H272 C270 0.931 . S
H273 C271 0.930 1_565 S
H274 C297 0.931 . S
H275 C263 0.929 . S
H276 C298 0.930 . S
H277 C269 0.931 1_565 S
H278 C259 0.930 . S
H279 C288 0.929 . S
H280 C264 0.931 . S
H281 C265 0.930 . S
H282 C320 0.930 . S
H283 C261 0.929 . S
H284 C289 0.931 . S
H285 C290 0.930 . S
N286 Gd266 2.622 . S
N286 C287 1.369 . S
N286 C288 1.338 . S
C287 N286 1.369 . S
C287 C291 1.415 . S
C287 C294 1.422 . S
C288 H279 0.929 . S
C288 N286 1.338 . S
C288 C290 1.378 . S
C289 H284 0.931 . S
C289 C290 1.348 . S
C289 C291 1.413 . S
C290 H285 0.930 . S
C290 C288 1.378 . S
C290 C289 1.348 . S
C291 C287 1.415 . S
C291 C289 1.413 . S
C291 C321 1.437 . S
H292 C321 0.929 . S
N293 Gd266 2.570 . S
N293 C294 1.359 . S
N293 C297 1.343 . S
C294 C287 1.422 . S
C294 N293 1.359 . S
C294 C296 1.421 . S
C295 C296 1.422 . S
C295 C298 1.321 . S
C295 H322 0.931 . S
C296 C294 1.421 . S
C296 C295 1.422 . S
C296 C320 1.417 . S
C297 H274 0.931 . S
C297 N293 1.343 . S
C297 C298 1.390 . S
C298 H276 0.930 . S
C298 C295 1.321 . S
C298 C297 1.390 . S
O299 Gd267 2.386 . S
O299 C311 1.265 . S
O300 Gd266 2.353 . S
O300 C311 1.242 1_455 S
O301 Gd266 2.468 . S
O301 C319 1.263 . S
O302 Gd266 2.427 . S
O302 C319 1.252 . S
O303 Gd267 2.307 1_455 S
O303 C312 1.261 . S
O304 Gd266 2.388 . S
O304 C312 1.252 . S
O305 Gd266 2.386 . S
O305 C323 1.265 . S
O306 Gd267 2.353 1_455 S
O306 C323 1.242 . S
O307 Gd267 2.468 . S
O307 C331 1.263 . S
O308 Gd267 2.427 . S
O308 C331 1.252 . S
O309 Gd266 2.307 . S
O309 C324 1.261 1_455 S
O310 Gd267 2.388 . S
O310 C324 1.252 . S
C311 O299 1.265 . S
C311 O300 1.242 1_655 S
C312 O303 1.261 . S
C312 O304 1.252 . S
C313 C316 1.394 . S
C313 C318 1.370 . S
C313 C319 1.500 . S
C314 C317 1.383 . S
C314 C318 1.395 . S
C315 C316 1.396 . S
C315 C317 1.365 . S
C315 H332 0.929 . S
C316 C313 1.394 . S
C316 C315 1.396 . S
C316 H333 0.930 . S
C317 C314 1.383 . S
C317 C315 1.365 . S
C317 H334 0.931 . S
C318 C313 1.370 . S
C318 C314 1.395 . S
C318 H335 0.930 . S
C319 Gd266 2.805 . S
C319 O301 1.263 . S
C319 O302 1.252 . S
C319 C313 1.500 . S
C320 H282 0.930 . S
C320 C296 1.417 . S
C320 C321 1.329 . S
C321 C291 1.437 . S
C321 H292 0.929 . S
C321 C320 1.329 . S
H322 C295 0.931 . S
C323 O305 1.265 . S
C323 O306 1.242 . S
C324 O309 1.261 1_655 S
C324 O310 1.252 . S
C325 C328 1.394 . S
C325 C330 1.370 . S
C325 C331 1.500 . S
C326 C329 1.383 . S
C326 C330 1.395 . S
C327 C328 1.396 . S
C327 C329 1.365 . S
C327 H336 0.929 . S
C328 C325 1.394 . S
C328 C327 1.396 . S
C328 H337 0.930 . S
C329 C326 1.383 . S
C329 C327 1.365 . S
C329 H338 0.931 . S
C330 C325 1.370 . S
C330 C326 1.395 . S
C330 H339 0.930 . S
C331 Gd267 2.805 . S
C331 O307 1.263 . S
C331 O308 1.252 . S
C331 C325 1.500 . S
H332 C315 0.929 . S
H333 C316 0.930 . S
H334 C317 0.931 . S
H335 C318 0.930 . S
H336 C327 0.929 . S
H337 C328 0.930 . S
H338 C329 0.931 . S
H339 C330 0.930 . S
C340 C342 1.422 . S
C340 C344 1.415 . S
C340 N346 1.369 . S
C341 C342 1.421 . S
C341 C343 1.417 . S
C341 C353 1.422 . S
C342 C340 1.422 . S
C342 C341 1.421 . S
C342 N352 1.359 . S
C343 C341 1.417 . S
C343 C345 1.329 . S
C343 H362 0.930 . S
C344 C340 1.415 . S
C344 C345 1.437 . S
C344 C348 1.413 . S
C345 C343 1.329 . S
C345 C344 1.437 . S
C345 H367 0.929 . S
N346 C340 1.369 . S
N346 C347 1.338 . S
N346 Gd351 2.622 . S
C347 N346 1.338 . S
C347 C349 1.378 . S
C347 H359 0.929 . S
C348 C344 1.413 . S
C348 C349 1.348 . S
C348 H364 0.931 . S
C349 C347 1.378 . S
C349 C348 1.348 . S
C349 H365 0.930 . S
Gd350 N370 2.622 . S
Gd350 N377 2.570 . S
Gd350 O384 2.353 . S
Gd350 O385 2.468 . S
Gd350 O386 2.427 . S
Gd350 O388 2.388 . S
Gd350 O389 2.386 . S
Gd350 O393 2.307 . S
Gd350 C403 2.805 . S
Gd351 N346 2.622 . S
Gd351 N352 2.570 . S
Gd351 O383 2.386 . S
Gd351 O387 2.307 . S
Gd351 O390 2.353 . S
Gd351 O391 2.468 . S
Gd351 O392 2.427 . S
Gd351 O394 2.388 . S
Gd351 C415 2.805 . S
N352 C342 1.359 . S
N352 Gd351 2.570 . S
N352 C354 1.343 . S
C353 C341 1.422 . S
C353 C355 1.321 . S
C353 H361 0.931 . S
C354 N352 1.343 . S
C354 C355 1.390 . S
C354 H356 0.931 . S
C355 C353 1.321 . S
C355 C354 1.390 . S
C355 H357 0.930 . S
H356 C354 0.931 . S
H357 C355 0.930 . S
H358 C381 0.931 . S
H359 C347 0.929 . S
H360 C382 0.930 . S
H361 C353 0.931 . S
H362 C343 0.930 . S
H363 C372 0.929 . S
H364 C348 0.931 . S
H365 C349 0.930 . S
H366 C404 0.930 . S
H367 C345 0.929 . S
H368 C373 0.931 . S
H369 C374 0.930 . S
N370 Gd350 2.622 . S
N370 C371 1.369 . S
N370 C372 1.338 . S
C371 N370 1.369 . S
C371 C375 1.415 . S
C371 C378 1.422 . S
C372 H363 0.929 . S
C372 N370 1.338 . S
C372 C374 1.378 . S
C373 H368 0.931 . S
C373 C374 1.348 . S
C373 C375 1.413 . S
C374 H369 0.930 . S
C374 C372 1.378 . S
C374 C373 1.348 . S
C375 C371 1.415 . S
C375 C373 1.413 . S
C375 C405 1.437 . S
H376 C405 0.929 . S
N377 Gd350 2.570 . S
N377 C378 1.359 . S
N377 C381 1.343 . S
C378 C371 1.422 . S
C378 N377 1.359 . S
C378 C380 1.421 . S
C379 C380 1.422 . S
C379 C382 1.321 . S
C379 H406 0.931 . S
C380 C378 1.421 . S
C380 C379 1.422 . S
C380 C404 1.417 . S
C381 H358 0.931 . S
C381 N377 1.343 . S
C381 C382 1.390 . S
C382 H360 0.930 . S
C382 C379 1.321 . S
C382 C381 1.390 . S
O383 Gd351 2.386 . S
O383 C395 1.265 . S
O384 Gd350 2.353 . S
O384 C395 1.242 . S
O385 Gd350 2.468 . S
O385 C403 1.263 . S
O386 Gd350 2.427 . S
O386 C403 1.252 . S
O387 Gd351 2.307 . S
O387 C396 1.261 . S
O388 Gd350 2.388 . S
O388 C396 1.252 . S
O389 Gd350 2.386 . S
O389 C407 1.265 . S
O390 Gd351 2.353 . S
O390 C407 1.242 . S
O391 Gd351 2.468 . S
O391 C415 1.263 . S
O392 Gd351 2.427 . S
O392 C415 1.252 . S
O393 Gd350 2.307 . S
O393 C408 1.261 . S
O394 Gd351 2.388 . S
O394 C408 1.252 . S
C395 O383 1.265 . S
C395 O384 1.242 . S
C396 O387 1.261 . S
C396 O388 1.252 . S
C397 C400 1.394 . S
C397 C402 1.370 . S
C397 C403 1.500 . S
C398 C401 1.383 . S
C398 C402 1.395 . S
C399 C400 1.396 . S
C399 C401 1.365 . S
C399 H416 0.929 . S
C400 C397 1.394 . S
C400 C399 1.396 . S
C400 H417 0.930 . S
C401 C398 1.383 . S
C401 C399 1.365 . S
C401 H418 0.931 . S
C402 C397 1.370 . S
C402 C398 1.395 . S
C402 H419 0.930 . S
C403 Gd350 2.805 . S
C403 O385 1.263 . S
C403 O386 1.252 . S
C403 C397 1.500 . S
C404 H366 0.930 . S
C404 C380 1.417 . S
C404 C405 1.329 . S
C405 C375 1.437 . S
C405 H376 0.929 . S
C405 C404 1.329 . S
H406 C379 0.931 . S
C407 O389 1.265 . S
C407 O390 1.242 . S
C408 O393 1.261 . S
C408 O394 1.252 . S
C409 C412 1.394 . S
C409 C414 1.370 . S
C409 C415 1.500 . S
C410 C413 1.383 . S
C410 C414 1.395 . S
C411 C412 1.396 . S
C411 C413 1.365 . S
C411 H420 0.929 . S
C412 C409 1.394 . S
C412 C411 1.396 . S
C412 H421 0.930 . S
C413 C410 1.383 . S
C413 C411 1.365 . S
C413 H422 0.931 . S
C414 C409 1.370 . S
C414 C410 1.395 . S
C414 H423 0.930 . S
C415 Gd351 2.805 . S
C415 O391 1.263 . S
C415 O392 1.252 . S
C415 C409 1.500 . S
H416 C399 0.929 . S
H417 C400 0.930 . S
H418 C401 0.931 . S
H419 C402 0.930 . S
H420 C411 0.929 . S
H421 C412 0.930 . S
H422 C413 0.931 . S
H423 C414 0.930 . S
C424 C426 1.422 . S
C424 C428 1.415 . S
C424 N430 1.369 . S
C425 C426 1.421 . S
C425 C427 1.417 . S
C425 C437 1.422 . S
C426 C424 1.422 . S
C426 C425 1.421 . S
C426 N436 1.359 . S
C427 C425 1.417 . S
C427 C429 1.329 . S
C427 H446 0.930 . S
C428 C424 1.415 . S
C428 C429 1.437 . S
C428 C432 1.413 . S
C429 C427 1.329 . S
C429 C428 1.437 . S
C429 H451 0.929 . S
N430 C424 1.369 . S
N430 C431 1.338 . S
N430 Gd435 2.622 . S
C431 N430 1.338 . S
C431 C433 1.378 . S
C431 H443 0.929 . S
C432 C428 1.413 . S
C432 C433 1.348 . S
C432 H448 0.931 . S
C433 C431 1.378 . S
C433 C432 1.348 . S
C433 H449 0.930 . S
Gd434 N454 2.622 . S
Gd434 N461 2.570 . S
Gd434 O468 2.344 1_455 S
Gd434 O469 2.468 . S
Gd434 O470 2.427 . S
Gd434 O472 2.388 . S
Gd434 O473 2.386 . S
Gd434 O477 2.307 1_455 S
Gd434 C487 2.805 . S
Gd435 N430 2.622 . S
Gd435 N436 2.570 . S
Gd435 O467 2.386 . S
Gd435 O471 2.307 1_655 S
Gd435 O474 2.353 1_655 S
Gd435 O475 2.468 . S
Gd435 O476 2.427 . S
Gd435 O478 2.388 . S
Gd435 C499 2.805 . S
N436 C426 1.359 . S
N436 Gd435 2.570 . S
N436 C438 1.343 . S
C437 C425 1.422 . S
C437 C439 1.321 . S
C437 H445 0.931 . S
C438 N436 1.343 . S
C438 C439 1.390 . S
C438 H440 0.931 . S
C439 C437 1.321 . S
C439 C438 1.390 . S
C439 H441 0.930 . S
H440 C438 0.931 . S
H441 C439 0.930 . S
H442 C465 0.931 . S
H443 C431 0.929 . S
H444 C466 0.930 1_545 S
H445 C437 0.931 . S
H446 C427 0.930 . S
H447 C456 0.929 . S
H448 C432 0.931 . S
H449 C433 0.930 . S
H450 C488 0.930 . S
H451 C429 0.929 . S
H452 C457 0.931 . S
H453 C458 0.930 . S
N454 Gd434 2.622 . S
N454 C455 1.369 . S
N454 C456 1.338 . S
C455 N454 1.369 . S
C455 C459 1.415 . S
C455 C462 1.422 . S
C456 H447 0.929 . S
C456 N454 1.338 . S
C456 C458 1.378 . S
C457 H452 0.931 . S
C457 C458 1.348 . S
C457 C459 1.413 . S
C458 H453 0.930 . S
C458 C456 1.378 . S
C458 C457 1.348 . S
C459 C455 1.415 . S
C459 C457 1.413 . S
C459 C489 1.437 . S
H460 C489 0.929 . S
N461 Gd434 2.570 . S
N461 C462 1.359 . S
N461 C465 1.343 . S
C462 C455 1.422 . S
C462 N461 1.359 . S
C462 C464 1.421 . S
C463 C464 1.422 . S
C463 C466 1.321 . S
C463 H490 0.931 1_565 S
C464 C462 1.421 . S
C464 C463 1.422 . S
C464 C488 1.417 . S
C465 H442 0.931 . S
C465 N461 1.343 . S
C465 C466 1.390 . S
C466 H444 0.930 1_565 S
C466 C463 1.321 . S
C466 C465 1.390 . S
O467 Gd435 2.386 . S
O467 C479 1.265 . S
O468 Gd434 2.344 1_655 S
O468 C479 1.253 . S
O469 Gd434 2.468 . S
O469 C487 1.263 . S
O470 Gd434 2.427 . S
O470 C487 1.252 . S
O471 Gd435 2.307 1_455 S
O471 C480 1.261 . S
O472 Gd434 2.388 . S
O472 C480 1.252 . S
O473 Gd434 2.386 . S
O473 C491 1.265 . S
O474 Gd435 2.353 1_455 S
O474 C491 1.242 . S
O475 Gd435 2.468 . S
O475 C499 1.263 . S
O476 Gd435 2.427 . S
O476 C499 1.252 . S
O477 Gd434 2.307 1_655 S
O477 C492 1.261 . S
O478 Gd435 2.388 . S
O478 C492 1.252 . S
C479 O467 1.265 . S
C479 O468 1.253 . S
C480 O471 1.261 . S
C480 O472 1.252 . S
C481 C484 1.394 . S
C481 C486 1.370 . S
C481 C487 1.500 . S
C482 C485 1.383 . S
C482 C486 1.395 . S
C483 C484 1.396 . S
C483 C485 1.365 . S
C483 H500 0.929 . S
C484 C481 1.394 . S
C484 C483 1.396 . S
C484 H501 0.930 . S
C485 C482 1.383 . S
C485 C483 1.365 . S
C485 H502 0.931 . S
C486 C481 1.370 . S
C486 C482 1.395 . S
C486 H503 0.930 . S
C487 Gd434 2.805 . S
C487 O469 1.263 . S
C487 O470 1.252 . S
C487 C481 1.500 . S
C488 H450 0.930 . S
C488 C464 1.417 . S
C488 C489 1.329 . S
C489 C459 1.437 . S
C489 H460 0.929 . S
C489 C488 1.329 . S
H490 C463 0.931 1_545 S
C491 O473 1.265 . S
C491 O474 1.242 . S
C492 O477 1.261 . S
C492 O478 1.252 . S
C493 C496 1.394 . S
C493 C498 1.370 . S
C493 C499 1.500 . S
C494 C497 1.383 . S
C494 C498 1.395 . S
C495 C496 1.396 . S
C495 C497 1.365 . S
C495 H504 0.929 . S
C496 C493 1.394 . S
C496 C495 1.396 . S
C496 H505 0.930 . S
C497 C494 1.383 . S
C497 C495 1.365 . S
C497 H506 0.931 . S
C498 C493 1.370 . S
C498 C494 1.395 . S
C498 H507 0.930 . S
C499 Gd435 2.805 . S
C499 O475 1.263 . S
C499 O476 1.252 . S
C499 C493 1.500 . S
H500 C483 0.929 . S
H501 C484 0.930 . S
H502 C485 0.931 . S
H503 C486 0.930 . S
H504 C495 0.929 . S
H505 C496 0.930 . S
H506 C497 0.931 . S
H507 C498 0.930 . S
C508 C510 1.422 . S
C508 C512 1.415 . S
C508 N514 1.369 . S
C509 C510 1.421 . S
C509 C511 1.417 . S
C509 C521 1.422 . S
C510 C508 1.422 . S
C510 C509 1.421 . S
C510 N520 1.359 . S
C511 C509 1.417 . S
C511 C513 1.329 . S
C511 H530 0.930 . S
C512 C508 1.415 . S
C512 C513 1.437 . S
C512 C516 1.413 . S
C513 C511 1.329 . S
C513 C512 1.437 . S
C513 H535 0.929 . S
N514 C508 1.369 . S
N514 C515 1.338 . S
N514 Gd519 2.622 . S
C515 N514 1.338 . S
C515 C517 1.378 . S
C515 H527 0.929 . S
C516 C512 1.413 . S
C516 C517 1.348 . S
C516 H532 0.931 . S
C517 C515 1.378 . S
C517 C516 1.348 . S
C517 H533 0.930 . S
Gd518 N538 2.622 . S
Gd518 N545 2.570 . S
Gd518 O552 2.353 . S
Gd518 O553 2.468 . S
Gd518 O554 2.427 . S
Gd518 O556 2.388 . S
Gd518 O557 2.386 . S
Gd518 O561 2.307 . S
Gd518 C571 2.805 . S
Gd519 N514 2.622 . S
Gd519 N520 2.570 . S
Gd519 O551 2.386 . S
Gd519 O555 2.307 . S
Gd519 O558 2.353 . S
Gd519 O559 2.468 . S
Gd519 O560 2.427 . S
Gd519 O562 2.388 . S
Gd519 C583 2.805 . S
N520 C510 1.359 . S
N520 Gd519 2.570 . S
N520 C522 1.343 . S
C521 C509 1.422 . S
C521 C523 1.321 . S
C521 H529 0.931 . S
C522 N520 1.343 . S
C522 C523 1.390 . S
C522 H524 0.931 . S
C523 C521 1.321 . S
C523 C522 1.390 . S
C523 H525 0.930 . S
H524 C522 0.931 . S
H525 C523 0.930 . S
H526 C549 0.931 . S
H527 C515 0.929 . S
H528 C550 0.930 . S
H529 C521 0.931 . S
H530 C511 0.930 . S
H531 C540 0.929 . S
H532 C516 0.931 . S
H533 C517 0.930 . S
H534 C572 0.930 . S
H535 C513 0.929 . S
H536 C541 0.931 . S
H537 C542 0.930 . S
N538 Gd518 2.622 . S
N538 C539 1.369 . S
N538 C540 1.338 . S
C539 N538 1.369 . S
C539 C543 1.415 . S
C539 C546 1.422 . S
C540 H531 0.929 . S
C540 N538 1.338 . S
C540 C542 1.378 . S
C541 H536 0.931 . S
C541 C542 1.348 . S
C541 C543 1.413 . S
C542 H537 0.930 . S
C542 C540 1.378 . S
C542 C541 1.348 . S
C543 C539 1.415 . S
C543 C541 1.413 . S
C543 C573 1.437 . S
H544 C573 0.929 . S
N545 Gd518 2.570 . S
N545 C546 1.359 . S
N545 C549 1.343 . S
C546 C539 1.422 . S
C546 N545 1.359 . S
C546 C548 1.421 . S
C547 C548 1.422 . S
C547 C550 1.321 . S
C547 H574 0.931 . S
C548 C546 1.421 . S
C548 C547 1.422 . S
C548 C572 1.417 . S
C549 H526 0.931 . S
C549 N545 1.343 . S
C549 C550 1.390 . S
C550 H528 0.930 . S
C550 C547 1.321 . S
C550 C549 1.390 . S
O551 Gd519 2.386 . S
O551 C563 1.265 . S
O552 Gd518 2.353 . S
O552 C563 1.242 . S
O553 Gd518 2.468 . S
O553 C571 1.263 . S
O554 Gd518 2.427 . S
O554 C571 1.252 . S
O555 Gd519 2.307 . S
O555 C564 1.261 . S
O556 Gd518 2.388 . S
O556 C564 1.252 . S
O557 Gd518 2.386 . S
O557 C575 1.265 . S
O558 Gd519 2.353 . S
O558 C575 1.242 . S
O559 Gd519 2.468 . S
O559 C583 1.263 . S
O560 Gd519 2.427 . S
O560 C583 1.252 . S
O561 Gd518 2.307 . S
O561 C576 1.261 . S
O562 Gd519 2.388 . S
O562 C576 1.252 . S
C563 O551 1.265 . S
C563 O552 1.242 . S
C564 O555 1.261 . S
C564 O556 1.252 . S
C565 C568 1.394 . S
C565 C570 1.370 . S
C565 C571 1.500 . S
C566 C569 1.383 . S
C566 C570 1.395 . S
C567 C568 1.396 . S
C567 C569 1.365 . S
C567 H584 0.929 . S
C568 C565 1.394 . S
C568 C567 1.396 . S
C568 H585 0.930 . S
C569 C566 1.383 . S
C569 C567 1.365 . S
C569 H586 0.931 . S
C570 C565 1.370 . S
C570 C566 1.395 . S
C570 H587 0.930 . S
C571 Gd518 2.805 . S
C571 O553 1.263 . S
C571 O554 1.252 . S
C571 C565 1.500 . S
C572 H534 0.930 . S
C572 C548 1.417 . S
C572 C573 1.329 . S
C573 C543 1.437 . S
C573 H544 0.929 . S
C573 C572 1.329 . S
H574 C547 0.931 . S
C575 O557 1.265 . S
C575 O558 1.242 . S
C576 O561 1.261 . S
C576 O562 1.252 . S
C577 C580 1.394 . S
C577 C582 1.370 . S
C577 C583 1.500 . S
C578 C581 1.383 . S
C578 C582 1.395 . S
C579 C580 1.396 . S
C579 C581 1.365 . S
C579 H588 0.929 . S
C580 C577 1.394 . S
C580 C579 1.396 . S
C580 H589 0.930 . S
C581 C578 1.383 . S
C581 C579 1.365 . S
C581 H590 0.931 . S
C582 C577 1.370 . S
C582 C578 1.395 . S
C582 H591 0.930 . S
C583 Gd519 2.805 . S
C583 O559 1.263 . S
C583 O560 1.252 . S
C583 C577 1.500 . S
H584 C567 0.929 . S
H585 C568 0.930 . S
H586 C569 0.931 . S
H587 C570 0.930 . S
H588 C579 0.929 . S
H589 C580 0.930 . S
H590 C581 0.931 . S
H591 C582 0.930 . S
C592 C593 1.391 . S
C592 H596 0.950 1_545 S
C592 C601 1.390 . S
C593 C592 1.391 . S
C593 C595 1.401 . S
H594 C601 0.950 . S
C595 C593 1.401 . S
C595 C597 1.390 . S
C595 H599 0.950 . S
H596 C592 0.950 1_565 S
C597 C595 1.390 . S
C597 C598 1.387 . S
C597 H600 0.950 . S
C598 C597 1.387 . S
C598 C601 1.387 . S
H599 C595 0.950 . S
H600 C597 0.950 . S
C601 C592 1.390 . S
C601 H594 0.950 . S
C601 C598 1.387 . S
C602 C603 1.387 . S
C602 H606 0.950 . S
C602 C611 1.390 . S
C603 C602 1.387 . S
C603 C605 1.387 . S
H604 C611 0.950 . S
C605 C603 1.387 . S
C605 C607 1.390 . S
C605 H609 0.950 . S
H606 C602 0.950 . S
C607 C605 1.390 . S
C607 C608 1.387 . S
C607 H610 0.950 . S
C608 C607 1.387 . S
C608 C611 1.387 . S
H609 C605 0.950 . S
H610 C607 0.950 . S
C611 C602 1.390 . S
C611 H604 0.950 . S
C611 C608 1.387 . S
C612 C613 1.387 . S
C612 H616 0.950 . S
C612 C621 1.390 . S
C613 C612 1.387 . S
C613 C615 1.387 . S
H614 C621 0.950 . S
C615 C613 1.387 . S
C615 C617 1.390 . S
C615 H619 0.950 . S
H616 C612 0.950 . S
C617 C615 1.390 . S
C617 C618 1.387 . S
C617 H620 0.950 . S
C618 C617 1.387 . S
C618 C621 1.387 . S
H619 C615 0.950 . S
H620 C617 0.950 . S
C621 C612 1.390 . S
C621 H614 0.950 . S
C621 C618 1.387 . S
C622 C623 1.387 . S
C622 H626 0.950 . S
C622 C631 1.390 . S
C623 C622 1.387 . S
C623 C625 1.387 1_545 S
H624 C631 0.950 . S
C625 C623 1.387 1_565 S
C625 C627 1.390 1_565 S
C625 H629 0.950 . S
H626 C622 0.950 . S
C627 C625 1.390 1_545 S
C627 C628 1.387 . S
C627 H630 0.950 . S
C628 C627 1.387 . S
C628 C631 1.387 . S
H629 C625 0.950 . S
H630 C627 0.950 . S
C631 C622 1.390 . S
C631 H624 0.950 . S
C631 C628 1.387 . S
C632 C633 1.384 1_545 S
C632 H636 0.950 . S
C632 C641 1.390 1_545 S
C633 C632 1.384 1_565 S
C633 C635 1.407 . S
H634 C641 0.950 . S
C635 C633 1.407 . S
C635 C637 1.390 . S
C635 H639 0.950 . S
H636 C632 0.950 . S
C637 C635 1.390 . S
C637 C638 1.387 . S
C637 H640 0.950 . S
C638 C637 1.387 . S
C638 C641 1.387 . S
H639 C635 0.950 . S
H640 C637 0.950 . S
C641 C632 1.390 1_565 S
C641 H634 0.950 . S
C641 C638 1.387 . S
C642 C643 1.387 . S
C642 H646 0.950 . S
C642 C651 1.390 . S
C643 C642 1.387 . S
C643 C645 1.387 . S
H644 C651 0.950 . S
C645 C643 1.387 . S
C645 C647 1.390 . S
C645 H649 0.950 . S
H646 C642 0.950 . S
C647 C645 1.390 . S
C647 C648 1.387 . S
C647 H650 0.950 . S
C648 C647 1.387 . S
C648 C651 1.387 . S
H649 C645 0.950 . S
H650 C647 0.950 . S
C651 C642 1.390 . S
C651 H644 0.950 . S
C651 C648 1.387 . S
C652 C653 1.387 . S
C652 H656 0.950 . S
C652 C661 1.390 . S
C653 C652 1.387 . S
C653 C655 1.387 . S
H654 C661 0.950 . S
C655 C653 1.387 . S
C655 C657 1.390 . S
C655 H659 0.950 . S
H656 C652 0.950 . S
C657 C655 1.390 . S
C657 C658 1.387 . S
C657 H660 0.950 . S
C658 C657 1.387 . S
C658 C661 1.387 . S
H659 C655 0.950 . S
H660 C657 0.950 . S
C661 C652 1.390 . S
C661 H654 0.950 . S
C661 C658 1.387 . S
C662 C663 1.387 . S
C662 H666 0.950 . S
C662 C671 1.390 . S
C663 C662 1.387 . S
C663 C665 1.387 1_565 S
H664 C671 0.950 . S
C665 C663 1.387 1_545 S
C665 C667 1.390 1_545 S
C665 H669 0.950 . S
H666 C662 0.950 . S
C667 C665 1.390 1_565 S
C667 C668 1.387 . S
C667 H670 0.950 . S
C668 C667 1.387 . S
C668 C671 1.387 . S
H669 C665 0.950 . S
H670 C667 0.950 . S
C671 C662 1.390 . S
C671 H664 0.950 . S
C671 C668 1.387 . S
C672 C673 1.387 . S
C672 H676 0.950 . S
C672 C681 1.390 . S
C673 C672 1.387 . S
C673 C675 1.387 . S
H674 C681 0.950 . S
C675 C673 1.387 . S
C675 C677 1.390 . S
C675 H679 0.950 . S
H676 C672 0.950 . S
C677 C675 1.390 . S
C677 C678 1.387 . S
C677 H680 0.950 . S
C678 C677 1.387 . S
C678 C681 1.387 . S
H679 C675 0.950 . S
H680 C677 0.950 . S
C681 C672 1.390 . S
C681 H674 0.950 . S
C681 C678 1.387 . S
C682 C683 1.387 . S
C682 H686 0.950 . S
C682 C691 1.390 . S
C683 C682 1.387 . S
C683 C685 1.387 . S
H684 C691 0.950 . S
C685 C683 1.387 . S
C685 C687 1.390 . S
C685 H689 0.950 . S
H686 C682 0.950 . S
C687 C685 1.390 . S
C687 C688 1.387 . S
C687 H690 0.950 . S
C688 C687 1.387 . S
C688 C691 1.387 . S
H689 C685 0.950 . S
H690 C687 0.950 . S
C691 C682 1.390 . S
C691 H684 0.950 . S
C691 C688 1.387 . S
C692 C693 1.387 . S
C692 H696 0.950 . S
C692 C701 1.390 . S
C693 C692 1.387 . S
C693 C695 1.387 . S
H694 C701 0.950 . S
C695 C693 1.387 . S
C695 C697 1.390 . S
C695 H699 0.950 . S
H696 C692 0.950 . S
C697 C695 1.390 . S
C697 C698 1.387 . S
C697 H700 0.950 . S
C698 C697 1.387 . S
C698 C701 1.387 . S
H699 C695 0.950 . S
H700 C697 0.950 . S
C701 C692 1.390 . S
C701 H694 0.950 . S
C701 C698 1.387 . S
C702 C703 1.387 . S
C702 H706 0.950 . S
C702 C711 1.390 . S
C703 C702 1.387 . S
C703 C705 1.387 . S
H704 C711 0.950 . S
C705 C703 1.387 . S
C705 C707 1.390 . S
C705 H709 0.950 . S
H706 C702 0.950 . S
C707 C705 1.390 . S
C707 C708 1.387 . S
C707 H710 0.950 . S
C708 C707 1.387 . S
C708 C711 1.387 . S
H709 C705 0.950 . S
H710 C707 0.950 . S
C711 C702 1.390 . S
C711 H704 0.950 . S
C711 C708 1.387 . S
C712 C713 1.387 . S
C712 H716 0.950 . S
C712 C721 1.390 . S
C713 C712 1.387 . S
C713 C715 1.387 . S
H714 C721 0.950 . S
C715 C713 1.387 . S
C715 C717 1.390 . S
C715 H719 0.950 . S
H716 C712 0.950 . S
C717 C715 1.390 . S
C717 C718 1.387 . S
C717 H720 0.950 . S
C718 C717 1.387 . S
C718 C721 1.387 . S
H719 C715 0.950 . S
H720 C717 0.950 . S
C721 C712 1.390 . S
C721 H714 0.950 . S
C721 C718 1.387 . S
C722 C723 1.387 . S
C722 H726 0.950 . S
C722 C731 1.390 . S
C723 C722 1.387 . S
C723 C725 1.387 . S
H724 C731 0.950 . S
C725 C723 1.387 . S
C725 C727 1.390 . S
C725 H729 0.950 . S
H726 C722 0.950 . S
C727 C725 1.390 . S
C727 C728 1.387 . S
C727 H730 0.950 . S
C728 C727 1.387 . S
C728 C731 1.387 . S
H729 C725 0.950 . S
H730 C727 0.950 . S
C731 C722 1.390 . S
C731 H724 0.950 . S
C731 C728 1.387 . S
C732 C733 1.387 . S
C732 H736 0.950 . S
C732 C741 1.390 . S
C733 C732 1.387 . S
C733 C735 1.387 . S
H734 C741 0.950 . S
C735 C733 1.387 . S
C735 C737 1.390 . S
C735 H739 0.950 . S
H736 C732 0.950 . S
C737 C735 1.390 . S
C737 C738 1.387 . S
C737 H740 0.950 . S
C738 C737 1.387 . S
C738 C741 1.387 . S
H739 C735 0.950 . S
H740 C737 0.950 . S
C741 C732 1.390 . S
C741 H734 0.950 . S
C741 C738 1.387 . S
C742 C743 1.387 . S
C742 H746 0.950 . S
C742 C751 1.390 . S
C743 C742 1.387 . S
C743 C745 1.387 . S
H744 C751 0.950 . S
C745 C743 1.387 . S
C745 C747 1.390 . S
C745 H749 0.950 . S
H746 C742 0.950 . S
C747 C745 1.390 . S
C747 C748 1.387 . S
C747 H750 0.950 . S
C748 C747 1.387 . S
C748 C751 1.387 . S
H749 C745 0.950 . S
H750 C747 0.950 . S
C751 C742 1.390 . S
C751 H744 0.950 . S
C751 C748 1.387 . S
C752 C753 1.387 . S
C752 H756 0.950 . S
C752 C761 1.390 . S
C753 C752 1.387 . S
C753 C755 1.387 . S
H754 C761 0.950 . S
C755 C753 1.387 . S
C755 C757 1.390 . S
C755 H759 0.950 . S
H756 C752 0.950 . S
C757 C755 1.390 . S
C757 C758 1.387 . S
C757 H760 0.950 . S
C758 C757 1.387 . S
C758 C761 1.387 . S
H759 C755 0.950 . S
H760 C757 0.950 . S
C761 C752 1.390 . S
C761 H754 0.950 . S
C761 C758 1.387 . S
C762 C763 1.387 . S
C762 H766 0.950 . S
C762 C771 1.390 . S
C763 C762 1.387 . S
C763 C765 1.387 . S
H764 C771 0.950 . S
C765 C763 1.387 . S
C765 C767 1.390 . S
C765 H769 0.950 . S
H766 C762 0.950 . S
C767 C765 1.390 . S
C767 C768 1.387 . S
C767 H770 0.950 . S
C768 C767 1.387 . S
C768 C771 1.387 . S
H769 C765 0.950 . S
H770 C767 0.950 . S
C771 C762 1.390 . S
C771 H764 0.950 . S
C771 C768 1.387 . S
C772 C773 1.387 . S
C772 H776 0.950 . S
C772 C781 1.390 . S
C773 C772 1.387 . S
C773 C775 1.387 . S
H774 C781 0.950 . S
C775 C773 1.387 . S
C775 C777 1.390 . S
C775 H779 0.950 . S
H776 C772 0.950 . S
C777 C775 1.390 . S
C777 C778 1.387 . S
C777 H780 0.950 . S
C778 C777 1.387 . S
C778 C781 1.387 . S
H779 C775 0.950 . S
H780 C777 0.950 . S
C781 C772 1.390 . S
C781 H774 0.950 . S
C781 C778 1.387 . S
C782 C783 1.387 . S
C782 H786 0.950 . S
C782 C791 1.390 . S
C783 C782 1.387 . S
C783 C785 1.387 . S
H784 C791 0.950 1_455 S
C785 C783 1.387 . S
C785 C787 1.390 . S
C785 H789 0.950 . S
H786 C782 0.950 . S
C787 C785 1.390 . S
C787 C788 1.387 . S
C787 H790 0.950 . S
C788 C787 1.387 . S
C788 C791 1.387 . S
H789 C785 0.950 . S
H790 C787 0.950 . S
C791 C782 1.390 . S
C791 H784 0.950 1_655 S
C791 C788 1.387 . S
C792 C793 1.387 . S
C792 H796 0.950 . S
C792 C801 1.390 . S
C793 C792 1.387 . S
C793 C795 1.387 . S
H794 C801 0.950 . S
C795 C793 1.387 . S
C795 C797 1.390 . S
C795 H799 0.950 . S
H796 C792 0.950 . S
C797 C795 1.390 . S
C797 C798 1.387 . S
C797 H800 0.950 . S
C798 C797 1.387 . S
C798 C801 1.387 . S
H799 C795 0.950 . S
H800 C797 0.950 . S
C801 C792 1.390 . S
C801 H794 0.950 . S
C801 C798 1.387 . S
C802 C803 1.387 . S
C802 H806 0.950 . S
C802 C811 1.390 . S
C803 C802 1.387 . S
C803 C805 1.387 . S
H804 C811 0.950 . S
C805 C803 1.387 . S
C805 C807 1.390 . S
C805 H809 0.950 . S
H806 C802 0.950 . S
C807 C805 1.390 . S
C807 C808 1.387 . S
C807 H810 0.950 . S
C808 C807 1.387 . S
C808 C811 1.387 . S
H809 C805 0.950 . S
H810 C807 0.950 . S
C811 C802 1.390 . S
C811 H804 0.950 . S
C811 C808 1.387 . S
C812 C813 1.387 . S
C812 H816 0.950 . S
C812 C821 1.390 . S
C813 C812 1.387 . S
C813 C815 1.387 . S
H814 C821 0.950 . S
C815 C813 1.387 . S
C815 C817 1.390 . S
C815 H819 0.950 . S
H816 C812 0.950 . S
C817 C815 1.390 . S
C817 C818 1.387 . S
C817 H820 0.950 . S
C818 C817 1.387 . S
C818 C821 1.387 . S
H819 C815 0.950 . S
H820 C817 0.950 . S
C821 C812 1.390 . S
C821 H814 0.950 . S
C821 C818 1.387 . S
C822 C823 1.387 . S
C822 H826 0.950 . S
C822 C831 1.390 . S
C823 C822 1.387 . S
C823 C825 1.387 . S
H824 C831 0.950 . S
C825 C823 1.387 . S
C825 C827 1.390 . S
C825 H829 0.950 . S
H826 C822 0.950 . S
C827 C825 1.390 . S
C827 C828 1.387 . S
C827 H830 0.950 . S
C828 C827 1.387 . S
C828 C831 1.387 . S
H829 C825 0.950 . S
H830 C827 0.950 . S
C831 C822 1.390 . S
C831 H824 0.950 . S
C831 C828 1.387 . S
C593 C221 1.463 1_545 S
C598 C312 1.479 . S
C608 C396 1.484 . S
C603 C241 1.451 . S
C618 C395 1.486 . S
C613 C157 1.477 . S
C623 C177 1.438 1_545 S
C628 C311 1.491 . S
C638 C492 1.479 . S
C633 C93 1.427 1_565 S
C648 C576 1.484 . S
C643 C113 1.492 . S
C653 C29 1.428 . S
C658 C575 1.486 . S
C663 C49 1.491 1_565 S
C668 C491 1.491 . S
C678 C314 1.317 . S
C673 C61 1.516 1_554 S
C688 C398 1.321 . S
C683 C17 1.463 . S
C698 C410 1.391 . S
C693 C125 1.527 1_556 S
C708 C326 1.395 . S
C703 C81 1.485 . S
C718 C494 1.317 . S
C713 C189 1.450 1_556 S
C723 C145 1.510 . S
C728 C578 1.322 . S
C738 C566 1.396 . S
C733 C253 1.472 1_554 S
C743 C209 1.522 . S
C748 C482 1.392 . S
C758 C323 1.552 . S
C753 C23 1.492 . S
C768 C407 1.566 . S
C763 C55 1.554 . S
C773 C87 1.491 . S
C778 C408 1.534 . S
C788 C324 1.545 . S
C783 C119 1.540 . S
C798 C479 1.552 . S
C793 C151 1.550 . S
C803 C183 1.491 . S
C808 C563 1.566 . S
C813 C215 1.536 . S
C818 C564 1.534 . S
C823 C247 1.489 . S
C828 C480 1.547 . S
