# Generated by pormake.
# Topology zzz, (3,6)-cn, num edge types: 1
# Building blocks:
#     Node 0, Type 0, BuildingBlock: KAKCAD_clean_linker_0, # of connection points: 3
#     Node 1, Type 0, BuildingBlock: KAKCAD_clean_linker_0, # of connection points: 3
#     Node 2, Type 0, BuildingBlock: KAKCAD_clean_linker_0, # of connection points: 3
#     Node 3, Type 0, BuildingBlock: KAKCAD_clean_linker_0, # of connection points: 3
#     Node 4, Type 0, BuildingBlock: KAKCAD_clean_linker_0, # of connection points: 3
#     Node 5, Type 0, BuildingBlock: KAKCAD_clean_linker_0, # of connection points: 3
#     Node 6, Type 0, BuildingBlock: KAKCAD_clean_linker_0, # of connection points: 3
#     Node 7, Type 0, BuildingBlock: KAKCAD_clean_linker_0, # of connection points: 3
#     Node 8, Type 1, BuildingBlock: KUMBOL_clean_sbu_1, # of connection points: 6
#     Node 9, Type 1, BuildingBlock: KUMBOL_clean_sbu_1, # of connection points: 6
#     Node 10, Type 1, BuildingBlock: KUMBOL_clean_sbu_1, # of connection points: 6
#     Node 11, Type 1, BuildingBlock: KUMBOL_clean_sbu_1, # of connection points: 6
#     Edge 12, Type (0, 1), BuildingBlock: ZUJKAS_clean_linker_0, # of connection points: 2
#     Edge 13, Type (0, 1), BuildingBlock: ZUJKAS_clean_linker_0, # of connection points: 2
#     Edge 14, Type (0, 1), BuildingBlock: ZUJKAS_clean_linker_0, # of connection points: 2
#     Edge 15, Type (0, 1), BuildingBlock: ZUJKAS_clean_linker_0, # of connection points: 2
#     Edge 16, Type (0, 1), BuildingBlock: ZUJKAS_clean_linker_0, # of connection points: 2
#     Edge 17, Type (0, 1), BuildingBlock: ZUJKAS_clean_linker_0, # of connection points: 2
#     Edge 18, Type (0, 1), BuildingBlock: ZUJKAS_clean_linker_0, # of connection points: 2
#     Edge 19, Type (0, 1), BuildingBlock: ZUJKAS_clean_linker_0, # of connection points: 2
#     Edge 20, Type (0, 1), BuildingBlock: ZUJKAS_clean_linker_0, # of connection points: 2
#     Edge 21, Type (0, 1), BuildingBlock: ZUJKAS_clean_linker_0, # of connection points: 2
#     Edge 22, Type (0, 1), BuildingBlock: ZUJKAS_clean_linker_0, # of connection points: 2
#     Edge 23, Type (0, 1), BuildingBlock: ZUJKAS_clean_linker_0, # of connection points: 2
#     Edge 24, Type (0, 1), BuildingBlock: ZUJKAS_clean_linker_0, # of connection points: 2
#     Edge 25, Type (0, 1), BuildingBlock: ZUJKAS_clean_linker_0, # of connection points: 2
#     Edge 26, Type (0, 1), BuildingBlock: ZUJKAS_clean_linker_0, # of connection points: 2
#     Edge 27, Type (0, 1), BuildingBlock: ZUJKAS_clean_linker_0, # of connection points: 2
#     Edge 28, Type (0, 1), BuildingBlock: ZUJKAS_clean_linker_0, # of connection points: 2
#     Edge 29, Type (0, 1), BuildingBlock: ZUJKAS_clean_linker_0, # of connection points: 2
#     Edge 30, Type (0, 1), BuildingBlock: ZUJKAS_clean_linker_0, # of connection points: 2
#     Edge 31, Type (0, 1), BuildingBlock: ZUJKAS_clean_linker_0, # of connection points: 2
#     Edge 32, Type (0, 1), BuildingBlock: ZUJKAS_clean_linker_0, # of connection points: 2
#     Edge 33, Type (0, 1), BuildingBlock: ZUJKAS_clean_linker_0, # of connection points: 2
#     Edge 34, Type (0, 1), BuildingBlock: ZUJKAS_clean_linker_0, # of connection points: 2
#     Edge 35, Type (0, 1), BuildingBlock: ZUJKAS_clean_linker_0, # of connection points: 2
# Relax obj value: 0.285
# Max RMSD: 0.210
# Mean RMSD: 0.179
data_MOF--net-zzz--node1-KUMBOL_clean_sbu_1--node2-KAKCAD_clean_linker_0--edge1-ZUJKAS_clean_linker_0
_symmetry_space_group_name_H-M    P1
_symmetry_Int_Tables_number       1
_symmetry_cell_setting            triclinic
loop_
_symmetry_equiv_pos_as_xyz
'x, y, z'
_cell_length_a     70.766147
_cell_length_b     70.782722
_cell_length_c     26.072394
_cell_angle_alpha  89.912194
_cell_angle_beta   89.918678
_cell_angle_gamma 90.44342
loop_
_atom_site_label
_atom_site_type_symbol
_atom_site_fract_x
_atom_site_fract_y
_atom_site_fract_z
_atom_type_partial_charge
C0 C 0.78164 0.57696 0.04745 0.0
C1 C 0.79606 0.56356 0.04486 0.0
C2 C 0.76881 0.5764 0.08815 0.0
C3 C 0.77066 0.56262 0.12657 0.0
C4 C 0.78548 0.54961 0.12427 0.0
C5 C 0.79809 0.55009 0.08374 0.0
C6 C 0.7566 0.56053 0.1675 0.0
C7 C 0.73756 0.55846 0.15543 0.0
C8 C 0.72445 0.55222 0.19227 0.0
C9 C 0.73101 0.54753 0.24237 0.0
C10 C 0.7504 0.55041 0.25485 0.0
C11 C 0.7627 0.55737 0.21738 0.0
C12 C 0.75979 0.54494 0.30363 0.0
C13 C 0.76573 0.55934 0.33724 0.0
C14 C 0.76959 0.52772 0.30459 0.0
C15 C 0.78581 0.52554 0.33496 0.0
C16 C 0.79264 0.54048 0.36558 0.0
C17 C 0.70453 0.55011 0.17401 0.0
C18 C 0.69617 0.56551 0.14878 0.0
C19 C 0.69605 0.53222 0.16867 0.0
C20 C 0.68027 0.52967 0.13633 0.0
C21 C 0.67277 0.54489 0.10772 0.0
C22 C 0.68076 0.56295 0.11587 0.0
C23 C 0.78186 0.55711 0.36807 0.0
H24 H 0.77999 0.58739 0.01736 0.0
H25 H 0.75738 0.58648 0.08936 0.0
H26 H 0.78695 0.53862 0.15298 0.0
H27 H 0.80925 0.53969 0.08219 0.0
H28 H 0.73307 0.56066 0.11609 0.0
H29 H 0.77761 0.55911 0.22625 0.0
H30 H 0.72131 0.54188 0.27075 0.0
H31 H 0.75903 0.57305 0.33581 0.0
H32 H 0.76589 0.51663 0.27774 0.0
H33 H 0.79357 0.51245 0.33241 0.0
H34 H 0.70259 0.57943 0.15128 0.0
H35 H 0.70235 0.52 0.1867 0.0
H36 H 0.78671 0.569 0.39074 0.0
H37 H 0.67599 0.57512 0.09456 0.0
H38 H 0.67441 0.51558 0.13261 0.0
C39 C 0.95146 0.77977 0.04989 0.0
C40 C 0.96419 0.795 0.04803 0.0
C41 C 0.9521 0.76717 0.09106 0.0
C42 C 0.96531 0.77 0.13052 0.0
C43 C 0.97749 0.78574 0.12907 0.0
C44 C 0.97688 0.79816 0.08821 0.0
C45 C 0.96808 0.75587 0.17095 0.0
C46 C 0.97073 0.73699 0.15811 0.0
C47 C 0.97783 0.7241 0.194 0.0
C48 C 0.98291 0.73071 0.24373 0.0
C49 C 0.97943 0.74985 0.25709 0.0
C50 C 0.97147 0.76189 0.22082 0.0
C51 C 0.98538 0.75935 0.30532 0.0
C52 C 0.97136 0.76467 0.34059 0.0
C53 C 1.00241 0.7697 0.30466 0.0
C54 C 1.00474 0.78586 0.33526 0.0
C55 C 0.99017 0.79209 0.36802 0.0
C56 C 0.98041 0.7044 0.17508 0.0
C57 C 0.96483 0.69517 0.15245 0.0
C58 C 0.99855 0.69714 0.16608 0.0
C59 C 1.00109 0.68179 0.13242 0.0
C60 C 0.98555 0.6736 0.10658 0.0
C61 C 0.96736 0.68009 0.11855 0.0
C62 C 0.97377 0.78068 0.3718 0.0
H63 H 0.94166 0.77724 0.01873 0.0
H64 H 0.94266 0.75506 0.09155 0.0
H65 H 0.9881 0.788 0.1584 0.0
H66 H 0.98676 0.80994 0.08709 0.0
H67 H 0.96833 0.73251 0.11885 0.0
H68 H 0.96924 0.77664 0.23045 0.0
H69 H 0.98932 0.72124 0.27119 0.0
H70 H 0.9578 0.75745 0.34064 0.0
H71 H 0.01313 0.76652 0.27631 0.0
H72 H 0.01749 0.79418 0.33004 0.0
H73 H 0.9507 0.70062 0.15792 0.0
H74 H 0.01086 0.70423 0.18181 0.0
H75 H 0.96231 0.78455 0.39711 0.0
H76 H 0.95505 0.67399 0.10007 0.0
H77 H 0.01531 0.67717 0.12401 0.0
C78 C 0.75279 0.95525 0.03408 0.0
C79 C 0.73503 0.96377 0.036 0.0
C80 C 0.76513 0.95712 0.07542 0.0
C81 C 0.75997 0.96795 0.11838 0.0
C82 C 0.7421 0.97645 0.11972 0.0
C83 C 0.72969 0.97421 0.07912 0.0
C84 C 0.77338 0.97142 0.16065 0.0
C85 C 0.79248 0.97463 0.15044 0.0
C86 C 0.80505 0.97973 0.18954 0.0
C87 C 0.79806 0.98242 0.24012 0.0
C88 C 0.77867 0.97883 0.25069 0.0
C89 C 0.76679 0.97295 0.2109 0.0
C90 C 0.76922 0.98164 0.3011 0.0
C91 C 0.76083 0.96585 0.3251 0.0
C92 C 0.76267 0.9997 0.3142 0.0
C93 C 0.74718 1.00182 0.34758 0.0
C94 C 0.73776 0.98589 0.36819 0.0
C95 C 0.8251 0.9821 0.17364 0.0
C96 C 0.83478 0.9661 0.15593 0.0
C97 C 0.832 1.00006 0.15978 0.0
C98 C 0.84754 1.00192 0.12641 0.0
C99 C 0.85639 0.98584 0.10568 0.0
C100 C 0.8502 0.96793 0.1225 0.0
C101 C 0.74532 0.96793 0.35808 0.0
H102 H 0.75709 0.9473 1.00062 0.0
H103 H 0.77874 0.95027 0.07349 0.0
H104 H 0.73787 0.98538 0.15133 0.0
H105 H 0.71616 0.98128 0.08052 0.0
H106 H 0.79766 0.97369 0.11135 0.0
H107 H 0.75201 0.97006 0.21914 0.0
H108 H 0.80749 0.98692 0.27048 0.0
H109 H 0.76516 0.95173 0.31455 0.0
H110 H 0.76835 0.01207 0.29492 0.0
H111 H 0.74174 0.01587 0.35409 0.0
H112 H 0.82942 0.95207 0.16464 0.0
H113 H 0.82441 0.0126 0.17123 0.0
H114 H 0.73867 0.95534 0.37371 0.0
H115 H 0.85676 0.95522 0.1081 0.0
H116 H 0.85176 0.01595 0.11409 0.0
C117 C 0.52752 0.7472 0.34643 0.0
C118 C 0.54345 0.73726 0.36419 0.0
C119 C 0.5296 0.76324 0.31472 0.0
C120 C 0.54764 0.76992 0.30064 0.0
C121 C 0.56349 0.76087 0.32175 0.0
C122 C 0.56145 0.74479 0.35284 0.0
C123 C 0.55023 0.78058 0.25165 0.0
C124 C 0.54755 0.80036 0.24468 0.0
C125 C 0.55143 0.8087 0.19593 0.0
C126 C 0.55741 0.79715 0.1557 0.0
C127 C 0.55922 0.77775 0.16191 0.0
C128 C 0.55573 0.76961 0.2097 0.0
C129 C 0.56314 0.76575 0.11723 0.0
C130 C 0.55403 0.76944 0.07053 0.0
C131 C 0.57462 0.74976 0.12193 0.0
C132 C 0.5758 0.73691 0.08179 0.0
C133 C 0.56571 0.74008 0.03634 0.0
C134 C 0.5493 0.82906 0.1822 0.0
C135 C 0.53129 0.83647 0.1727 0.0
C136 C 0.56501 0.8385 0.16081 0.0
C137 C 0.56275 0.85367 0.12687 0.0
C138 C 0.54465 0.86048 0.1142 0.0
C139 C 0.52901 0.85212 0.13981 0.0
C140 C 0.55552 0.75683 0.03019 0.0
H141 H 0.51342 0.74183 0.35395 0.0
H142 H 0.51713 0.7694 0.29766 0.0
H143 H 0.5776 0.76526 0.31036 0.0
H144 H 0.57407 0.73777 0.36622 0.0
H145 H 0.54295 0.80905 0.2764 0.0
H146 H 0.5568 0.75441 0.21421 0.0
H147 H 0.56033 0.80338 0.11842 0.0
H148 H 0.54489 0.78152 0.06589 0.0
H149 H 0.58205 0.7468 0.1573 0.0
H150 H 0.58365 0.724 0.08753 0.0
H151 H 0.51884 0.82927 0.18738 0.0
H152 H 0.57905 0.8328 0.16602 0.0
H153 H 0.54784 0.75968 0.99514 0.0
H154 H 0.51481 0.85706 0.13304 0.0
H155 H 0.57532 0.85906 0.10814 0.0
C156 C 0.2503 0.47389 0.198 0.0
C157 C 0.23483 0.46172 0.19139 0.0
C158 C 0.26463 0.47439 0.16168 0.0
C159 C 0.26358 0.46276 0.11816 0.0
C160 C 0.24885 0.44943 0.11394 0.0
C161 C 0.23449 0.44889 0.15059 0.0
C162 C 0.27571 0.46726 0.07388 0.0
C163 C 0.29464 0.47199 0.0813 0.0
C164 C 0.30506 0.48121 0.04303 0.0
C165 C 0.29639 0.48514 0.99506 0.0
C166 C 0.27742 0.47921 0.98631 0.0
C167 C 0.2674 0.4704 0.02618 0.0
C168 C 0.2664 0.4829 0.93863 0.0
C169 C 0.2601 0.50119 0.92723 0.0
C170 C 0.25743 0.46753 0.91437 0.0
C171 C 0.24166 0.47019 0.88284 0.0
C172 C 0.23443 0.48839 0.8738 0.0
C173 C 0.32419 0.48776 0.05871 0.0
C174 C 0.32555 0.50364 0.09076 0.0
C175 C 0.33922 0.47492 0.05833 0.0
C176 C 0.35482 0.47743 0.09104 0.0
C177 C 0.35561 0.49263 0.12605 0.0
C178 C 0.34094 0.50602 0.12404 0.0
C179 C 0.24441 0.50392 0.89492 0.0
H180 H 0.25063 0.48391 0.2294 0.0
H181 H 0.27563 0.48503 0.16554 0.0
H182 H 0.24782 0.44032 0.08069 0.0
H183 H 0.22249 0.43952 0.14505 0.0
H184 H 0.30101 0.46955 0.11857 0.0
H185 H 0.2525 0.46721 0.02104 0.0
H186 H 0.30414 0.49268 0.96552 0.0
H187 H 0.26638 0.51329 0.94629 0.0
H188 H 0.26163 0.45322 0.92346 0.0
H189 H 0.23448 0.45774 0.86849 0.0
H190 H 0.31381 0.51333 0.09359 0.0
H191 H 0.33825 0.46217 0.03551 0.0
H192 H 0.23972 0.51822 0.88822 0.0
H193 H 0.34054 0.51773 0.1506 0.0
H194 H 0.36586 0.46695 0.09015 0.0
C195 C 0.06285 0.25401 0.19558 0.0
C196 C 0.07379 0.23818 0.18374 0.0
C197 C 0.05991 0.26786 0.15877 0.0
C198 C 0.06807 0.26612 0.10988 0.0
C199 C 0.08052 0.25118 0.09999 0.0
C200 C 0.08318 0.23714 0.13656 0.0
C201 C 0.06126 0.27807 0.0676 0.0
C202 C 0.05735 0.29707 0.07567 0.0
C203 C 0.0482 0.30786 0.0383 0.0
C204 C 0.04324 0.29932 0.99071 0.0
C205 C 0.04804 0.28013 0.98157 0.0
C206 C 0.05666 0.2698 0.02073 0.0
C207 C 0.0444 0.26941 0.93326 0.0
C208 C 0.02616 0.26277 0.92164 0.0
C209 C 0.05984 0.26065 0.90923 0.0
C210 C 0.05732 0.24468 0.87827 0.0
C211 C 0.03915 0.23708 0.869 0.0
C212 C 0.04388 0.32763 0.05352 0.0
C213 C 0.02595 0.33193 0.07337 0.0
C214 C 0.05908 0.33979 0.0653 0.0
C215 C 0.05675 0.35503 0.09895 0.0
C216 C 0.03911 0.35861 0.12185 0.0
C217 C 0.02356 0.3473 0.1069 0.0
C218 C 0.02355 0.24698 0.88946 0.0
H219 H 0.05523 0.25485 0.2316 0.0
H220 H 0.05004 0.27904 0.16733 0.0
H221 H 0.08724 0.24973 0.06287 0.0
H222 H 0.09164 0.22495 0.127 0.0
H223 H 0.06099 0.30346 0.1122 0.0
H224 H 0.05917 0.25484 0.01506 0.0
H225 H 0.03614 0.30745 0.96139 0.0
H226 H 0.014 0.26888 0.94047 0.0
H227 H 0.07412 0.26507 0.91854 0.0
H228 H 0.06988 0.23766 0.86469 0.0
H229 H 0.01413 0.32245 0.06661 0.0
H230 H 0.07319 0.33651 0.05195 0.0
H231 H 0.00925 0.24215 0.88249 0.0
H232 H 0.00978 0.34947 0.1239 0.0
H233 H 0.06902 0.36352 0.10874 0.0
C234 C 0.26681 0.06533 0.20475 0.0
C235 C 0.2843 0.07456 0.20022 0.0
C236 C 0.25465 0.06457 0.16322 0.0
C237 C 0.25953 0.07348 0.11674 0.0
C238 C 0.27603 0.08463 0.11439 0.0
C239 C 0.28845 0.08504 0.15582 0.0
C240 C 0.24918 0.06824 0.06962 0.0
C241 C 0.22996 0.06401 0.07226 0.0
C242 C 0.2211 0.05326 0.03425 0.0
C243 C 0.2314 0.04825 0.9895 0.0
C244 C 0.25046 0.05446 0.98391 0.0
C245 C 0.25915 0.06392 0.02491 0.0
C246 C 0.26268 0.05085 0.93823 0.0
C247 C 0.2681 0.03247 0.92468 0.0
C248 C 0.27278 0.06615 0.91687 0.0
C249 C 0.28876 0.06328 0.8863 0.0
C250 C 0.29506 0.04492 0.87485 0.0
C251 C 0.20203 0.04601 0.04841 0.0
C252 C 0.20097 0.02983 0.07961 0.0
C253 C 0.18685 0.05869 0.0495 0.0
C254 C 0.17159 0.0559 0.08326 0.0
C255 C 0.17123 0.04051 0.1178 0.0
C256 C 0.18588 0.02716 0.11395 0.0
C257 C 0.28399 0.02954 0.89304 0.0
H258 H 0.26322 0.05738 0.23902 0.0
H259 H 0.24225 0.0556 0.16655 0.0
H260 H 0.27998 0.09195 0.07942 0.0
H261 H 0.30191 0.09227 0.15149 0.0
H262 H 0.2221 0.06769 0.10655 0.0
H263 H 0.27419 0.06688 0.02292 0.0
H264 H 0.22475 0.03983 0.95984 0.0
H265 H 0.26085 0.02038 0.94119 0.0
H266 H 0.26916 0.0805 0.92725 0.0
H267 H 0.29674 0.07563 0.87448 0.0
H268 H 0.21282 0.02025 0.08139 0.0
H269 H 0.18759 0.07166 0.02742 0.0
H270 H 0.28791 0.01515 0.88438 0.0
H271 H 0.18656 0.01527 0.14 0.0
H272 H 0.16052 0.06635 0.08373 0.0
C273 C 0.4746 0.28063 0.8638 0.0
C274 C 0.49012 0.29295 0.87008 0.0
C275 C 0.47244 0.26464 0.8955 0.0
C276 C 0.48596 0.26038 0.93328 0.0
C277 C 0.50225 0.27185 0.93627 0.0
C278 C 0.50422 0.28802 0.90548 0.0
C279 C 0.47974 0.25052 0.98089 0.0
C280 C 0.48424 0.23166 0.99478 0.0
C281 C 0.47966 0.22496 0.04484 0.0
C282 C 0.47182 0.23744 0.08062 0.0
C283 C 0.4683 0.25613 0.06721 0.0
C284 C 0.47118 0.26217 0.01699 0.0
C285 C 0.46591 0.27054 0.10677 0.0
C286 C 0.45057 0.27028 0.14079 0.0
C287 C 0.47937 0.28513 0.10926 0.0
C288 C 0.47718 0.29974 0.14379 0.0
C289 C 0.46146 0.30009 0.17654 0.0
C290 C 0.48434 0.20582 0.06437 0.0
C291 C 0.46975 0.19254 0.07192 0.0
C292 C 0.50163 0.20298 0.08945 0.0
C293 C 0.50401 0.18767 0.12306 0.0
C294 C 0.48915 0.17469 0.13257 0.0
C295 C 0.47216 0.17709 0.10506 0.0
C296 C 0.44833 0.28509 0.17567 0.0
H297 H 0.46342 0.28416 0.8372 0.0
H298 H 0.45935 0.25663 0.89377 0.0
H299 H 0.51253 0.26945 0.96634 0.0
H300 H 0.51632 0.29723 0.91122 0.0
H301 H 0.49142 0.22258 0.9678 0.0
H302 H 0.46846 0.27684 1.00735 0.0
H303 H 0.46974 0.23295 0.12007 0.0
H304 H 0.44021 0.25895 0.13953 0.0
H305 H 0.49159 0.28526 0.08413 0.0
H306 H 0.48793 0.31072 0.14508 0.0
H307 H 0.45605 0.19474 0.05448 0.0
H308 H 0.51284 0.21342 0.08601 0.0
H309 H 0.43625 0.28499 0.20124 0.0
H310 H 0.46043 0.16737 0.11022 0.0
H311 H 0.5172 0.18674 0.14383 0.0
C312 C 0.06587 0.03535 0.70097 0.0
C313 C 0.0539 0.04824 0.78087 0.0
C314 C 0.05156 0.03652 0.73762 0.0
C315 C 0.07058 0.0589 0.78644 0.0
C316 C 0.08266 0.04598 0.70662 0.0
C317 C 0.08491 0.05776 0.74948 0.0
N318 N 0.06324 0.02407 0.65938 0.0
C319 C 0.07696 0.02233 0.6229 0.0
C320 C 0.09669 0.04449 0.66892 0.0
C321 C 0.09383 0.03257 0.62697 0.0
Gd322 Gd 0.99354 0.02373 0.57071 0.0
Gd323 Gd 0.03493 1.00691 0.65789 0.0
N324 N 0.03539 0.02625 0.73093 0.0
C325 C 0.0395 0.04873 0.81766 0.0
C326 C 0.02195 0.02572 0.76845 0.0
C327 C 0.02357 0.03723 0.81171 0.0
H328 H 0.01034 0.01597 0.76664 0.0
H329 H 0.01271 0.0369 0.84099 0.0
H330 H 0.01799 0.01179 0.46389 0.0
H331 H 0.07517 0.01262 0.59143 0.0
H332 H 0.0146 0.99022 0.39115 0.0
H333 H 0.04078 0.05753 0.85145 0.0
H334 H 0.07259 0.06799 0.81941 0.0
H335 H 0.95281 0.02121 0.63606 0.0
H336 H 0.1098 0.0524 0.672 0.0
H337 H 0.1047 0.03112 0.59802 0.0
H338 H 0.95286 0.96305 0.41323 0.0
H339 H 0.09772 0.06603 0.75446 0.0
H340 H 0.91628 0.98229 0.5586 0.0
H341 H 0.92237 1.00417 0.63074 0.0
N342 N 0.96421 1.00834 0.56944 0.0
C343 C 0.96106 0.99671 0.52887 0.0
C344 C 0.95055 0.01122 0.60551 0.0
C345 C 0.92978 0.98954 0.56118 0.0
C346 C 0.93318 1.00181 0.60209 0.0
C347 C 0.94376 0.9869 0.52385 0.0
H348 H 0.92775 0.96709 0.4775 0.0
N349 N 0.99199 1.00382 0.49885 0.0
C350 C 0.9753 0.99441 0.49254 0.0
C351 C 0.98697 0.98046 0.4142 0.0
C352 C 0.97246 0.98228 0.45035 0.0
C353 C 1.00568 1.00295 0.46207 0.0
C354 C 1.00356 0.99101 0.41982 0.0
O355 O 0.03286 0.0386 0.64251 0.0
O356 O 1.00107 0.04322 0.63639 0.0
O357 O 0.99514 0.04471 0.51059 0.0
O358 O 0.96939 0.04143 0.55485 0.0
O359 O 1.00482 0.99959 0.68351 0.0
O360 O 0.98711 0.02452 0.65521 0.0
O361 O 0.99543 0.99197 0.58445 0.0
O362 O 0.02715 0.98684 0.59374 0.0
O363 O 0.03496 0.98606 0.7185 0.0
O364 O 0.05999 0.99037 0.6721 0.0
O365 O 0.02371 0.03051 0.54446 0.0
O366 O 0.04137 1.00564 0.57344 0.0
C367 C 0.01807 0.04956 0.6472 0.0
C368 C 0.98971 0.01032 0.68679 0.0
C369 C 0.97913 0.07232 0.53299 0.0
C370 C 0.99165 0.10326 0.51076 0.0
C371 C 0.97218 0.0994 0.58676 0.0
C372 C 0.97035 0.08012 0.57646 0.0
C373 C 0.98278 0.11097 0.55409 0.0
C374 C 0.98964 0.08399 0.50035 0.0
C375 C 0.97885 0.05195 0.52285 0.0
C376 C 0.95526 0.97244 0.44537 0.0
C377 C 0.94096 0.97476 0.48197 0.0
H378 H 0.98534 0.97127 0.38128 0.0
C379 C 0.01013 0.98078 0.58176 0.0
C380 C 0.03874 0.01967 0.54132 0.0
C381 C 0.05312 0.95926 0.69909 0.0
C382 C 0.04245 0.92771 0.72202 0.0
C383 C 0.06717 0.93187 0.65848 0.0
C384 C 0.06604 0.95143 0.66418 0.0
C385 C 0.05547 0.92 0.68737 0.0
C386 C 0.04141 0.94728 0.7279 0.0
C387 C 0.05163 0.97979 0.70607 0.0
H388 H 0.96549 0.10536 0.62032 0.0
H389 H 0.96236 0.07135 0.60289 0.0
H390 H 0.98395 0.12591 0.56247 0.0
H391 H 0.99683 0.07789 0.46759 0.0
H392 H 0.07714 0.92589 0.63162 0.0
H393 H 0.07528 0.96036 0.64135 0.0
H394 H 0.05644 0.90485 0.68236 0.0
H395 H 0.03158 0.95316 0.75546 0.0
C396 C 0.51577 0.95365 0.58634 0.0
C397 C 0.49011 0.93935 0.63512 0.0
C398 C 0.49882 0.95533 0.61274 0.0
C399 C 0.499 0.92173 0.63201 0.0
C400 C 0.52427 0.9358 0.58109 0.0
C401 C 0.51602 0.91995 0.60497 0.0
N402 N 0.52317 0.96914 0.5626 0.0
C403 C 0.53809 0.9674 0.52972 0.0
C404 C 0.54037 0.93424 0.55017 0.0
C405 C 0.54712 0.95007 0.52372 0.0
Gd406 Gd 0.52505 0.03659 0.66741 0.0
Gd407 Gd 0.50646 0.99737 0.57387 0.0
N408 N 0.49042 0.97251 0.61469 0.0
C409 C 0.47243 0.94144 0.65862 0.0
C410 C 0.47265 0.97438 0.63443 0.0
C411 C 0.46356 0.959 0.65767 0.0
H412 H 0.46544 0.9877 0.6322 0.0
H413 H 0.44965 0.96064 0.67429 0.0
H414 H 0.56589 0.04519 0.60042 0.0
H415 H 0.54259 0.97914 0.5063 0.0
H416 H 0.57963 0.07089 0.54956 0.0
H417 H 0.46529 0.9295 0.67627 0.0
H418 H 0.49258 0.9093 0.64918 0.0
H419 H 0.48582 0.05407 0.71986 0.0
H420 H 0.54722 0.92075 0.54484 0.0
H421 H 0.559 0.94883 0.4978 0.0
H422 H 0.53613 0.12189 0.56952 0.0
H423 H 0.52242 0.90616 0.60156 0.0
H424 H 0.48103 0.11167 0.67308 0.0
H425 H 0.46855 0.08407 0.72101 0.0
N426 N 0.50718 0.06408 0.66889 0.0
C427 C 0.51488 0.07927 0.64453 0.0
C428 C 0.49106 0.06574 0.69722 0.0
C429 C 0.48857 0.09841 0.6719 0.0
C430 C 0.4814 0.08285 0.69873 0.0
C431 C 0.50553 0.09679 0.64456 0.0
H432 H 0.50631 0.12563 0.61675 0.0
N433 N 0.54088 0.06017 0.61986 0.0
C434 C 0.53199 0.07719 0.61861 0.0
C435 C 0.55692 0.0901 0.56531 0.0
C436 C 0.53979 0.09258 0.59117 0.0
C437 C 0.55804 0.05801 0.59666 0.0
C438 C 0.56613 0.07279 0.5684 0.0
O439 O 0.50823 0.98982 0.65851 0.0
O440 O 0.53422 1.00656 0.6836 0.0
O441 O 0.54546 0.05109 0.71533 0.0
O442 O 0.51961 0.0398 0.74851 0.0
O443 O 0.48467 0.01711 0.60824 0.0
O444 O 0.49687 0.02324 0.68791 0.0
O445 O 0.50868 0.04489 0.59558 0.0
O446 O 0.52006 0.02333 0.53982 0.0
O447 O 0.48184 1.00462 0.52889 0.0
O448 O 0.50135 0.9827 0.5022 0.0
O449 O 0.54891 0.01874 0.63478 0.0
O450 O 0.53702 1.00631 0.55899 0.0
C451 C 0.5227 0.9921 0.68934 0.0
C452 C 0.48236 0.02144 0.65688 0.0
C453 C 0.54687 0.0375 0.79799 0.0
C454 C 0.57385 0.01927 0.82598 0.0
C455 C 0.5476 0.02448 0.88406 0.0
C456 C 0.53845 0.03494 0.84628 0.0
C457 C 0.56521 0.0166 0.874 0.0
C458 C 0.56465 0.02968 0.78804 0.0
C459 C 0.53627 0.04699 0.75736 0.0
C460 C 0.53034 0.10995 0.59047 0.0
C461 C 0.51334 0.11208 0.61734 0.0
H462 H 0.5633 0.10155 0.54359 0.0
C463 C 0.51317 0.04011 0.54851 0.0
C464 C 0.55129 0.01066 0.58953 0.0
C465 C 0.47458 0.98942 0.44806 0.0
C466 C 0.44611 0.99635 0.40047 0.0
C467 C 0.4702 0.97643 0.36292 0.0
C468 C 0.48115 0.97846 0.40706 0.0
C469 C 0.45275 0.98538 0.35946 0.0
C470 C 0.45702 0.99817 0.44479 0.0
C471 C 0.48613 0.99231 0.49368 0.0
H472 H 0.54103 0.02248 0.92119 0.0
H473 H 0.52466 0.04077 0.85441 0.0
H474 H 0.57226 1.00875 0.904 0.0
H475 H 0.57125 0.03134 0.75072 0.0
H476 H 0.47535 0.96811 0.33113 0.0
H477 H 0.49478 0.97165 0.40885 0.0
H478 H 0.44465 0.98403 0.32443 0.0
H479 H 0.45183 1.00646 0.47673 0.0
C480 C 0.464 0.49517 0.70319 0.0
C481 C 0.47295 0.48666 0.79022 0.0
C482 C 0.47658 0.4964 0.744 0.0
C483 C 0.45669 0.47532 0.79456 0.0
C484 C 0.44739 0.48417 0.70807 0.0
C485 C 0.44395 0.47406 0.75359 0.0
N486 N 0.4675 0.50544 0.65994 0.0
C487 C 0.45414 0.50655 0.62234 0.0
C488 C 0.43437 0.48417 0.66775 0.0
C489 C 0.43765 0.49562 0.62501 0.0
Gd490 Gd 0.53535 0.50416 0.5732 0.0
Gd491 Gd 0.49515 0.5241 0.6619 0.0
N492 N 0.49237 0.50724 0.73855 0.0
C493 C 0.48574 0.48874 0.83085 0.0
C494 C 0.50447 0.50997 0.77865 0.0
C495 C 0.50151 0.50055 0.82511 0.0
H496 H 0.51628 0.51959 0.775 0.0
H497 H 0.51127 0.50257 0.85661 0.0
H498 H 0.51292 0.50315 0.45745 0.0
H499 H 0.4556 0.51643 0.59125 0.0
H500 H 0.51582 0.51875 0.37399 0.0
H501 H 0.48344 0.48149 0.86698 0.0
H502 H 0.4537 0.46766 0.82969 0.0
H503 H 0.57406 0.51602 0.63889 0.0
H504 H 0.42141 0.47596 0.67009 0.0
H505 H 0.42724 0.49642 0.59472 0.0
H506 H 0.5736 0.55418 0.38602 0.0
H507 H 0.43128 0.46552 0.7579 0.0
H508 H 0.60863 0.55097 0.54287 0.0
H509 H 0.60304 0.53485 0.62585 0.0
N510 N 0.56267 0.5225 0.56559 0.0
C511 C 0.56587 0.5303 0.51876 0.0
C512 C 0.57597 0.52353 0.6033 0.0
C513 C 0.59574 0.54289 0.54865 0.0
C514 C 0.59259 0.53393 0.59567 0.0
C515 C 0.58238 0.54105 0.50937 0.0
H516 H 0.59753 0.55807 0.45354 0.0
N517 N 0.5367 0.51718 0.49027 0.0
C518 C 0.55234 0.52794 0.48045 0.0
C519 C 0.54146 0.53355 0.39395 0.0
C520 C 0.55506 0.53649 0.43206 0.0
C521 C 0.52411 0.51326 0.45204 0.0
C522 C 0.52604 0.52171 0.40384 0.0
O523 O 0.50696 0.49487 0.67777 0.0
O524 O 0.51227 0.48369 0.5976 0.0
O525 O 0.54847 0.48565 0.51792 0.0
O526 O 0.5553 0.4831 0.59868 0.0
O527 O 0.52522 0.53226 0.68283 0.0
O528 O 0.54134 0.50577 0.65854 0.0
O529 O 0.53471 0.53639 0.58301 0.0
O530 O 0.50328 0.54286 0.59501 0.0
O531 O 0.49627 0.54611 0.7182 0.0
O532 O 0.47016 0.54092 0.67733 0.0
O533 O 0.50542 0.49832 0.54521 0.0
O534 O 0.4881 0.52322 0.57686 0.0
C535 C 0.50799 0.48062 0.64584 0.0
C536 C 0.53935 0.52049 0.68873 0.0
C537 C 0.55429 0.45518 0.55078 0.0
C538 C 0.53731 0.42737 0.5206 0.0
C539 C 0.56348 0.42405 0.58 0.0
C540 C 0.56607 0.44359 0.58018 0.0
C541 C 0.54919 0.41594 0.55038 0.0
C542 C 0.53988 0.44701 0.52101 0.0
C543 C 0.55686 0.47571 0.55317 0.0
C544 C 0.57134 0.54747 0.42293 0.0
C545 C 0.58498 0.54967 0.46136 0.0
H546 H 0.54301 0.53993 0.35636 0.0
C547 C 0.52035 0.54816 0.58093 0.0
C548 C 0.49077 0.50971 0.54293 0.0
C549 C 0.47708 0.57242 0.70188 0.0
C550 C 0.48915 0.60391 0.72039 0.0
C551 C 0.45733 0.59971 0.68713 0.0
C552 C 0.45979 0.58015 0.6866 0.0
C553 C 0.47178 0.61156 0.70493 0.0
C554 C 0.49191 0.58446 0.71598 0.0
C555 C 0.47924 0.55197 0.70869 0.0
H556 H 0.57261 0.41516 0.60271 0.0
H557 H 0.57719 0.4497 0.60353 0.0
H558 H 0.54764 0.40071 0.55007 0.0
H559 H 0.53049 0.45586 0.49878 0.0
H560 H 0.44392 0.60564 0.67578 0.0
H561 H 0.4481 0.57109 0.6754 0.0
H562 H 0.46903 0.62653 0.70835 0.0
H563 H 0.50551 0.57858 0.72598 0.0
C564 C 0.03374 0.46892 0.71093 0.0
C565 C 0.03713 0.47808 0.80041 0.0
C566 C 0.02877 0.48055 0.75185 0.0
C567 C 0.0504 0.46368 0.80755 0.0
C568 C 0.04675 0.45419 0.71848 0.0
C569 C 0.05516 0.45176 0.76677 0.0
N570 N 0.02567 0.47181 0.66414 0.0
C571 C 0.02816 0.45899 0.62572 0.0
C572 C 0.05062 0.44205 0.67756 0.0
C573 C 0.04101 0.44425 0.6313 0.0
Gd574 Gd 0.02504 0.53529 0.57041 0.0
Gd575 Gd 1.00385 0.49659 0.66081 0.0
N576 N 0.01624 0.49472 0.74363 0.0
C577 C 0.03213 0.49037 0.84016 0.0
C578 C 0.01102 0.50651 0.78241 0.0
C579 C 0.01898 0.50461 0.83112 0.0
H580 H 1.00043 0.51712 0.77616 0.0
H581 H 0.01488 0.51405 0.86173 0.0
H582 H 0.02903 0.51451 0.4555 0.0
H583 H 0.01974 0.45941 0.59152 0.0
H584 H 0.01459 0.51706 0.36977 0.0
H585 H 0.0383 0.48896 0.87796 0.0
H586 H 0.05703 0.46162 0.84453 0.0
H587 H 0.00909 0.57282 0.63826 0.0
H588 H 0.06047 0.43051 0.68189 0.0
H589 H 0.04315 0.43434 0.60029 0.0
H590 H 0.97222 0.56941 0.38475 0.0
H591 H 0.06528 0.44059 0.77309 0.0
H592 H 0.96884 0.60157 0.54591 0.0
H593 H 0.98595 0.59805 0.62795 0.0
N594 N 1.00345 0.56024 0.56568 0.0
C595 C 0.99543 0.56288 0.51872 0.0
C596 C 1.00087 0.5732 0.60369 0.0
C597 C 0.97863 0.59001 0.55082 0.0
C598 C 0.98813 0.58799 0.59733 0.0
C599 C 0.98248 0.57761 0.51046 0.0
H600 H 0.96402 0.59093 0.45516 0.0
N601 N 0.01298 0.53692 0.48719 0.0
C602 C 1.00039 0.55098 0.47837 0.0
C603 C 0.99714 0.5407 0.39044 0.0
C604 C 0.99205 0.55316 0.4297 0.0
C605 C 0.01835 0.52501 0.44884 0.0
C606 C 0.0104 0.52661 0.40003 0.0
O607 O 0.03364 0.5075 0.6781 0.0
O608 O 0.04583 0.51364 0.59882 0.0
O609 O 0.04432 0.5464 0.51327 0.0
O610 O 0.04437 0.55815 0.58976 0.0
O611 O 0.99622 0.52629 0.68386 0.0
O612 O 0.02267 0.54233 0.65575 0.0
O613 O 0.9951 0.52473 0.55355 0.0
O614 O 0.98278 0.51806 0.63258 0.0
O615 O 0.98473 0.48557 0.71836 0.0
O616 O 0.98503 0.4732 0.64257 0.0
O617 O 0.03247 0.50545 0.54806 0.0
O618 O 1.00562 0.48991 0.57516 0.0
C619 C 0.04824 0.50936 0.64727 0.0
C620 C 1.00847 0.54027 0.68817 0.0
C621 C 0.07374 0.55578 0.54778 0.0
C622 C 0.10293 0.54167 0.51838 0.0
C623 C 0.1038 0.56564 0.58437 0.0
C624 C 0.08414 0.56712 0.58193 0.0
C625 C 0.11321 0.55297 0.55257 0.0
C626 C 0.08329 0.54298 0.51607 0.0
C627 C 0.05304 0.55732 0.54573 0.0
C628 C 0.97882 0.56754 0.42186 0.0
C629 C 0.97409 0.57975 0.46205 0.0
H630 H 0.991 0.54189 0.35254 0.0
C631 C 0.9805 0.52288 0.58441 0.0
C632 C 0.01988 0.49185 0.54297 0.0
C633 C 0.95579 0.47411 0.68557 0.0
C634 C 0.92585 0.48655 0.71541 0.0
C635 C 0.9263 0.45994 0.65699 0.0
C636 C 0.94602 0.46049 0.65668 0.0
C637 C 0.91622 0.47281 0.68659 0.0
C638 C 0.94559 0.48735 0.71425 0.0
C639 C 0.97652 0.47393 0.68681 0.0
H640 H 0.11174 0.57442 0.61069 0.0
H641 H 0.07706 0.5771 0.60672 0.0
H642 H 0.12848 0.55208 0.55425 0.0
H643 H 0.07559 0.53408 0.48932 0.0
H644 H 0.91883 0.44937 0.63478 0.0
H645 H 0.95365 0.45017 0.63424 0.0
H646 H 0.90093 0.47205 0.68702 0.0
H647 H 0.95292 0.49792 0.73702 0.0
H648 H 0.15643 1.0084 0.1646 0.0
H649 H 0.13437 1.0064 0.23645 0.0
H650 H 0.12978 0.067 0.23835 0.0
H651 H 0.1526 0.06939 0.16837 0.0
H652 H 0.13875 0.02576 0.3382 0.0
H653 H 0.07366 0.04612 0.23291 0.0
H654 H 0.09435 0.03729 0.20036 0.0
H655 H 0.09424 0.06094 0.22493 0.0
C656 C 0.15097 0.02141 0.18026 0.0
C657 C 0.15653 0.03908 0.15975 0.0
C658 C 0.13817 0.02018 0.22134 0.0
C659 C 0.13024 0.03652 0.24259 0.0
C660 C 0.13548 0.05416 0.22216 0.0
H661 H 0.04326 0.05103 0.48 0.0
H662 H 0.06589 0.05581 0.40986 0.0
C663 C 0.1485 0.05544 0.18156 0.0
C664 C 0.11693 0.03508 0.28701 0.0
H665 H 0.07063 0.04048 0.32155 0.0
C666 C 0.12385 0.02896 0.33461 0.0
C667 C 0.09755 0.03956 0.28263 0.0
C668 C 0.08936 0.04625 0.23248 0.0
C669 C 0.11199 0.02729 0.37791 0.0
C670 C 0.09238 0.03105 0.37318 0.0
C671 C 0.08555 0.03743 0.32555 0.0
C672 C 0.07871 0.02823 0.41674 0.0
C673 C 0.12085 0.02206 0.42856 0.0
C674 C 0.07797 0.01105 0.44395 0.0
C675 C 0.06524 1.00841 0.48463 0.0
C676 C 0.05255 0.02273 0.49863 0.0
C677 C 0.05291 0.03975 0.4706 0.0
C678 C 0.06586 0.04247 0.4303 0.0
H679 H 0.13598 0.02634 0.42988 0.0
H680 H 0.11343 0.02877 0.46126 0.0
H681 H 0.1202 1.00649 0.43349 0.0
H682 H 0.08711 0.9995 0.43338 0.0
H683 H 0.06515 0.99499 0.50463 0.0
H684 H 0.52115 0.15531 0.16259 0.0
H685 H 0.52436 0.13222 0.23155 0.0
H686 H 0.46478 0.13597 0.26355 0.0
H687 H 0.46144 0.15955 0.19597 0.0
H688 H 0.5169 0.13623 0.33515 0.0
H689 H 0.47217 0.07896 0.25386 0.0
H690 H 0.48026 0.09883 0.21603 0.0
H691 H 0.46055 0.10134 0.25902 0.0
C692 C 0.50867 0.15141 0.18426 0.0
C693 C 0.491 0.15951 0.17293 0.0
C694 C 0.51054 0.13802 0.22367 0.0
C695 C 0.4948 0.13207 0.25253 0.0
C696 C 0.47711 0.13995 0.24125 0.0
H697 H 0.49688 0.07525 0.55084 0.0
H698 H 0.49281 0.09752 0.48014 0.0
C699 C 0.47523 0.15347 0.20214 0.0
C700 C 0.49708 0.11824 0.29558 0.0
H701 H 0.48273 0.07479 0.33956 0.0
C702 C 0.50944 0.12279 0.336 0.0
C703 C 0.48746 0.10059 0.2968 0.0
C704 C 0.47449 0.09451 0.25393 0.0
C705 C 0.51226 0.11038 0.37757 0.0
C706 C 0.50241 0.0929 0.37918 0.0
C707 C 0.49022 0.08822 0.33855 0.0
C708 C 0.5048 0.07923 0.42243 0.0
C709 C 0.52602 0.11594 0.41917 0.0
C710 C 0.51262 0.06133 0.41376 0.0
C711 C 0.51533 0.04865 0.45455 0.0
C712 C 0.51005 0.05348 0.50496 0.0
C713 C 0.50169 0.07121 0.51311 0.0
C714 C 0.49923 0.08397 0.47249 0.0
H715 H 0.53542 0.12777 0.40697 0.0
H716 H 0.51805 0.12056 0.45357 0.0
H717 H 0.5349 0.10375 0.43044 0.0
H718 H 0.5169 0.05725 0.37546 0.0
H719 H 0.52162 0.03507 0.44651 0.0
H720 H 0.37075 0.52454 0.17269 0.0
H721 H 0.3934 0.52624 0.24303 0.0
H722 H 0.39866 0.46571 0.24164 0.0
H723 H 0.37517 0.46357 0.1734 0.0
H724 H 0.38944 0.5029 0.34594 0.0
H725 H 0.45484 0.49126 0.23158 0.0
H726 H 0.43384 0.50132 0.20352 0.0
H727 H 0.43438 0.47666 0.21896 0.0
C728 C 0.37644 0.51147 0.18737 0.0
C729 C 0.37081 0.49389 0.1666 0.0
C730 C 0.38959 0.51254 0.22755 0.0
C731 C 0.39781 0.49613 0.24751 0.0
C732 C 0.39262 0.47859 0.22658 0.0
H733 H 0.48578 0.47913 0.47921 0.0
H734 H 0.46311 0.47545 0.40894 0.0
C735 C 0.37923 0.47746 0.18693 0.0
C736 C 0.41142 0.49735 0.2911 0.0
H737 H 0.45841 0.49493 0.32079 0.0
C738 C 0.40452 0.50117 0.3405 0.0
C739 C 0.43106 0.49488 0.28411 0.0
C740 C 0.43914 0.49087 0.23175 0.0
C741 C 0.41672 0.50252 0.38307 0.0
C742 C 0.43649 0.50058 0.37595 0.0
C743 C 0.44333 0.49652 0.32648 0.0
C744 C 0.4503 0.50286 0.41911 0.0
C745 C 0.40821 0.50553 0.4355 0.0
C746 C 0.45098 0.5196 0.44806 0.0
C747 C 0.46402 0.52179 0.48814 0.0
C748 C 0.4768 0.50731 0.50035 0.0
C749 C 0.47618 0.4906 0.47106 0.0
C750 C 0.46319 0.48846 0.43077 0.0
H751 H 0.3932 0.50081 0.43685 0.0
H752 H 0.41617 0.4978 0.4655 0.0
H753 H 0.40862 0.52081 0.44478 0.0
H754 H 0.44156 0.53114 0.43926 0.0
H755 H 0.46417 0.53493 0.50934 0.0
H756 H 0.00989 0.38336 0.14015 0.0
H757 H 1.00695 0.40634 0.20986 0.0
H758 H 0.06094 0.38916 0.26951 0.0
H759 H 0.06407 0.36639 0.1999 0.0
H760 H 1.0052 0.40165 0.31145 0.0
H761 H 0.06891 0.44497 0.26971 0.0
H762 H 0.06005 0.4275 0.22533 0.0
H763 H 0.07406 0.4205 0.27965 0.0
C764 C 0.0212 0.38452 0.16794 0.0
C765 C 0.03734 0.37311 0.16365 0.0
C766 C 0.01952 0.39774 0.20784 0.0
C767 C 0.03391 0.39993 0.24463 0.0
C768 C 0.0499 0.38834 0.24089 0.0
H769 H 0.05097 0.47203 0.51366 0.0
H770 H 0.05365 0.44927 0.44327 0.0
C771 C 0.05165 0.37523 0.20086 0.0
C772 C 0.03181 0.41372 0.28795 0.0
H773 H 0.05336 0.45095 0.34846 0.0
C774 C 0.0157 0.4125 0.31938 0.0
C775 C 0.04556 0.42783 0.29896 0.0
C776 C 0.06303 0.43043 0.26636 0.0
C777 C 0.01312 0.42453 0.36189 0.0
C778 C 0.02675 0.43885 0.37264 0.0
C779 C 0.04284 0.4401 0.34088 0.0
C780 C 0.02484 0.45254 0.41657 0.0
C781 C 0.9961 0.4211 0.39567 0.0
C782 C 1.00787 0.46232 0.4256 0.0
C783 C 1.00615 0.47474 0.46727 0.0
C784 C 0.02163 0.47846 0.49943 0.0
C785 C 0.03882 0.46939 0.48942 0.0
C786 C 0.04033 0.4564 0.44899 0.0
H787 H 0.99112 0.4062 0.3932 0.0
H788 H 0.99919 0.42433 0.43646 0.0
H789 H 0.98433 0.43016 0.38252 0.0
H790 H 0.99592 0.46053 0.40022 0.0
H791 H 0.99284 0.48185 0.47357 0.0
H792 H 0.86027 0.96396 0.01937 0.0
H793 H 0.88341 0.96717 0.95022 0.0
H794 H 0.90806 0.01549 0.0259 0.0
H795 H 0.88526 0.01205 0.09619 0.0
H796 H 0.88916 0.99679 0.88398 0.0
H797 H 0.95449 0.98361 0.99517 0.0
H798 H 0.93123 0.97801 0.0197 0.0
H799 H 0.93995 1.00193 0.0213 0.0
C800 C 0.87082 0.97508 0.02201 0.0
C801 C 0.87095 0.98762 0.06399 0.0
C802 C 0.88398 0.97699 0.98204 0.0
C803 C 0.89772 0.99141 0.98296 0.0
C804 C 0.89788 1.00401 0.02462 0.0
H805 H 0.96169 0.03395 0.72016 0.0
H806 H 0.93942 0.02895 0.79059 0.0
C807 C 0.88467 1.00214 0.06463 0.0
C808 C 0.91139 0.99359 0.93949 0.0
H809 H 0.95853 0.99487 0.90992 0.0
C810 C 0.90432 0.99632 0.88969 0.0
C811 C 0.93121 0.99269 0.94657 0.0
C812 C 0.93973 0.98872 0.99845 0.0
C813 C 0.91645 0.99853 0.84717 0.0
C814 C 0.93629 0.99834 0.85452 0.0
C815 C 0.94336 0.99523 0.90417 0.0
C816 C 0.94992 1.00134 0.81128 0.0
C817 C 0.90784 1.00072 0.79459 0.0
C818 C 0.96369 0.98774 0.79992 0.0
C819 C 0.97649 0.99055 0.75938 0.0
C820 C 0.9759 1.00709 0.72937 0.0
C821 C 0.96231 0.02083 0.74148 0.0
C822 C 0.94951 0.01798 0.78188 0.0
H823 H 0.89316 0.99506 0.79337 0.0
H824 H 0.90732 0.01595 0.78458 0.0
H825 H 0.91636 0.99338 0.76499 0.0
H826 H 0.96445 0.97485 0.82223 0.0
H827 H 0.98685 0.97974 0.75157 0.0
H828 H 0.57036 0.88772 0.07889 0.0
H829 H 0.56704 0.90956 1.00752 0.0
H830 H 0.51 0.89012 0.98319 0.0
H831 H 0.51339 0.86718 0.05203 0.0
H832 H 0.55735 0.90146 0.90095 0.0
H833 H 0.50577 0.94886 0.99531 0.0
H834 H 0.52034 0.93259 0.03076 0.0
H835 H 0.49978 0.92413 0.99736 0.0
C836 C 0.5571 0.88765 0.05836 0.0
C837 C 0.54219 0.87524 0.07246 0.0
C838 C 0.55522 0.90044 0.01746 0.0
C839 C 0.53822 0.90169 0.99011 0.0
C840 C 0.52321 0.88965 1.0041 0.0
H841 H 0.49792 0.96521 0.72583 0.0
H842 H 0.50217 0.94337 0.79764 0.0
C843 C 0.52518 0.87655 0.04427 0.0
C844 C 0.53625 0.91536 0.94656 0.0
H845 H 0.51159 0.95417 0.9068 0.0
C846 C 0.54742 0.91304 0.90238 0.0
C847 C 0.52335 0.93055 0.94827 0.0
C848 C 0.51171 0.93438 0.99556 0.0
C849 C 0.5457 0.92519 0.85968 0.0
C850 C 0.53261 0.9402 0.8612 0.0
C851 C 0.52155 0.94262 0.90547 0.0
C852 C 0.53016 0.95348 0.81706 0.0
C853 C 0.55753 0.92165 0.81256 0.0
C854 C 0.5444 0.96658 0.80402 0.0
C855 C 0.54204 0.9791 0.76268 0.0
C856 C 0.52537 0.97876 0.73323 0.0
C857 C 0.51108 0.96569 0.74677 0.0
C858 C 0.51343 0.95325 0.78821 0.0
H859 H 0.56498 0.90791 0.8145 0.0
H860 H 0.54854 0.92184 0.77769 0.0
H861 H 0.56826 0.93308 0.80853 0.0
H862 H 0.5573 0.96715 0.82612 0.0
H863 H 0.55333 0.98899 0.75372 0.0
H864 H 0.64596 0.57031 0.07214 0.0
H865 H 0.62362 0.56638 1.00198 0.0
H866 H 0.64159 0.50892 0.98171 0.0
H867 H 0.6649 0.51289 0.04967 0.0
H868 H 0.63167 0.55546 0.89614 0.0
H869 H 0.58267 0.50546 0.99425 0.0
H870 H 0.5992 0.52029 0.0287 0.0
H871 H 0.60729 0.49937 0.9969 0.0
C872 C 0.64552 0.55683 0.05272 0.0
C873 C 0.65763 0.54198 0.06743 0.0
C874 C 0.63248 0.55459 0.01258 0.0
C875 C 0.63075 0.53732 0.98665 0.0
C876 C 0.64245 0.52234 1.00152 0.0
H877 H 0.56412 0.49491 0.72956 0.0
H878 H 0.58611 0.49942 0.80107 0.0
C879 C 0.65575 0.52464 0.04104 0.0
C880 C 0.61704 0.5351 0.94334 0.0
H881 H 0.57739 0.51081 0.90571 0.0
C882 C 0.61975 0.54577 0.89836 0.0
C883 C 0.60144 0.52248 0.94607 0.0
C884 C 0.59729 0.51132 0.99415 0.0
C885 C 0.60757 0.54384 0.85584 0.0
C886 C 0.59204 0.53112 0.85846 0.0
C887 C 0.58929 0.52053 0.90353 0.0
C888 C 0.5786 0.52854 0.81472 0.0
C889 C 0.61167 0.55507 0.80782 0.0
C890 C 0.56684 0.54333 0.79866 0.0
C891 C 0.55411 0.54075 0.7579 0.0
C892 C 0.55292 0.52335 0.73198 0.0
C893 C 0.56471 0.50855 0.74826 0.0
C894 C 0.57729 0.51108 0.78932 0.0
H895 H 0.62614 0.56128 0.80809 0.0
H896 H 0.6101 0.54604 0.77327 0.0
H897 H 0.60139 0.56678 0.80467 0.0
H898 H 0.56738 0.55685 0.81799 0.0
H899 H 0.54525 0.55244 0.74658 0.0
H900 H 0.96869 0.67287 0.01216 0.0
H901 H 0.97282 0.64993 0.94297 0.0
H902 H 0.01264 0.61931 0.03557 0.0
H903 H 1.00859 0.64232 0.10528 0.0
H904 H 1.00856 0.63987 0.89248 0.0
H905 H 0.97213 0.57892 0.9853 0.0
H906 H 0.96799 0.60309 1.0041 0.0
H907 H 0.98926 0.59149 0.02355 0.0
C908 C 0.97821 0.66116 0.01814 0.0
C909 C 0.9882 0.65939 0.06464 0.0
C910 C 0.98063 0.6481 0.97833 0.0
C911 C 0.99291 0.63277 0.98409 0.0
C912 C 1.00294 0.63092 0.03035 0.0
H913 H 0.03572 0.56309 0.73072 0.0
H914 H 0.0325 0.58504 0.80248 0.0
C915 C 1.0007 0.64414 0.07008 0.0
C916 C 0.99545 0.61903 0.94118 0.0
H917 H 0.98692 0.57324 0.90576 0.0
C918 C 1.00387 0.62528 0.89534 0.0
C919 C 0.98902 0.6001 0.94452 0.0
C920 C 0.97895 0.5929 0.99177 0.0
C921 C 1.00619 0.61314 0.85301 0.0
C922 C 1.00028 0.59395 0.85674 0.0
C923 C 0.99165 0.58781 0.90261 0.0
C924 C 1.0025 0.58016 0.81341 0.0
C925 C 0.01447 0.62127 0.8043 0.0
C926 C 0.98698 0.56927 0.7965 0.0
C927 C 0.98892 0.55631 0.75615 0.0
C928 C 1.00642 0.55395 0.73134 0.0
C929 C 0.02197 0.56472 0.74845 0.0
C930 C 0.0201 0.57744 0.78937 0.0
H931 H 0.01251 0.63681 0.80222 0.0
H932 H 0.02989 0.61857 0.80351 0.0
H933 H 1.00797 0.61478 0.76977 0.0
H934 H 0.97325 0.57091 0.81426 0.0
H935 H 0.97664 0.54827 0.74403 0.0
H936 H 0.0622 0.20347 0.15503 0.0
H937 H 0.05211 0.1779 0.21198 0.0
H938 H 0.07135 0.21001 0.34283 0.0
H939 H 0.08083 0.23599 0.2859 0.0
H940 H 0.06806 0.15562 0.28442 0.0
H941 H 0.01529 0.2041 0.36946 0.0
H942 H 0.0289 0.21018 0.31323 0.0
H943 H 0.03912 0.21253 0.37612 0.0
C944 C 0.06481 0.20477 0.19583 0.0
C945 C 0.07229 0.22151 0.21653 0.0
C946 C 0.05897 0.19026 0.22819 0.0
C947 C 0.0607 0.19237 0.28134 0.0
C948 C 0.0696 0.20843 0.30179 0.0
H949 H 0.01752 0.13001 0.5382 0.0
H950 H 0.03625 0.15017 0.48103 0.0
C951 C 0.07515 0.2231 0.26949 0.0
C952 C 0.05172 0.17851 0.31535 0.0
H953 H 0.01806 0.174 0.40789 0.0
C954 C 0.05718 0.15957 0.31161 0.0
C955 C 0.03719 0.18383 0.34957 0.0
C956 C 0.02962 0.20372 0.35202 0.0
C957 C 0.04877 0.14574 0.3426 0.0
C958 C 0.03474 0.15123 0.37792 0.0
C959 C 0.02913 0.17009 0.38118 0.0
C960 C 0.0252 0.13766 0.41148 0.0
C961 C 0.05496 0.12548 0.33759 0.0
C962 C 0.01288 0.12419 0.39067 0.0
C963 C 1.00199 0.1129 0.42307 0.0
C964 C 1.0033 0.11507 0.47656 0.0
C965 C 0.01599 0.12835 0.49714 0.0
C966 C 0.02683 0.13964 0.46471 0.0
H967 H 0.06864 0.12432 0.3169 0.0
H968 H 0.05633 0.11876 0.3759 0.0
H969 H 0.04414 0.11746 0.31566 0.0
H970 H 0.01121 0.12286 0.34952 0.0
H971 H 0.9922 0.10284 0.40625 0.0
H972 H 0.29306 0.04027 0.23834 0.0
H973 H 0.31958 0.0322 0.29272 0.0
H974 H 0.33678 0.09079 0.29755 0.0
H975 H 0.30985 0.09915 0.24285 0.0
H976 H 0.36438 0.06487 0.26453 0.0
H977 H 0.33043 0.04067 0.44519 0.0
H978 H 0.31953 0.03124 0.38853 0.0
H979 H 0.31889 0.05627 0.40025 0.0
C980 C 0.30204 0.05157 0.25246 0.0
C981 C 0.29922 0.07042 0.23747 0.0
C982 C 0.31717 0.04692 0.28349 0.0
C983 C 0.32965 0.06102 0.30017 0.0
C984 C 0.32691 0.07987 0.28568 0.0
H985 H 0.43924 0.03269 0.42895 0.0
H986 H 0.41015 0.05043 0.41561 0.0
C987 C 0.31169 0.08458 0.25446 0.0
C988 C 0.34678 0.0554 0.32712 0.0
H989 H 0.36161 0.02856 0.42754 0.0
C990 C 0.36397 0.05747 0.301 0.0
C991 C 0.34589 0.04551 0.37414 0.0
C992 C 0.3277 0.04342 0.40391 0.0
C993 C 0.38026 0.04884 0.31938 0.0
C994 C 0.37914 0.0382 0.36508 0.0
C995 C 0.3622 0.03687 0.39256 0.0
C996 C 0.39512 0.02691 0.3816 0.0
C997 C 0.39827 0.05005 0.28834 0.0
C998 C 0.39575 1.00782 0.36786 0.0
C999 C 0.41224 0.99766 0.37536 0.0
C1000 C 0.42817 1.00655 0.39659 0.0
C1001 C 0.4271 0.02548 0.41266 0.0
C1002 C 0.41059 0.03562 0.40521 0.0
H1003 H 0.39648 0.05829 0.25239 0.0
H1004 H 0.40956 0.05683 0.31155 0.0
H1005 H 0.4031 0.03563 0.27827 0.0
H1006 H 0.38379 1.00106 0.34935 0.0
H1007 H 0.41267 0.98299 0.36362 0.0
H1008 H 0.46643 0.33741 0.15626 0.0
H1009 H 0.47249 0.36211 0.2193 0.0
H1010 H 0.45796 0.32332 0.3413 0.0
H1011 H 0.45299 0.29814 0.27842 0.0
H1012 H 0.45467 0.37969 0.29913 0.0
H1013 H 0.51381 0.3345 0.36504 0.0
H1014 H 0.50036 0.32937 0.30804 0.0
H1015 H 0.49102 0.32338 0.37023 0.0
C1016 C 0.46422 0.33426 0.19652 0.0
C1017 C 0.45973 0.31583 0.21282 0.0
C1018 C 0.46754 0.34839 0.23234 0.0
C1019 C 0.4661 0.34429 0.2847 0.0
C1020 C 0.45949 0.32651 0.30085 0.0
H1021 H 0.51231 0.39979 0.54751 0.0
H1022 H 0.49153 0.38191 0.49061 0.0
C1023 C 0.45646 0.31224 0.26501 0.0
C1024 C 0.47389 0.35777 0.32186 0.0
H1025 H 0.5092 0.36302 0.40922 0.0
C1026 C 0.46647 0.37607 0.32367 0.0
C1027 C 0.48969 0.35302 0.35229 0.0
C1028 C 0.49934 0.33409 0.34855 0.0
C1029 C 0.47421 0.38974 0.35643 0.0
C1030 C 0.4896 0.38478 0.38786 0.0
C1031 C 0.49711 0.36655 0.3856 0.0
C1032 C 0.4987 0.3982 0.42299 0.0
C1033 C 0.46592 0.4093 0.35722 0.0
C1034 C 0.50914 0.41355 0.40368 0.0
C1035 C 0.52097 0.42385 0.4362 0.0
C1036 C 0.52265 0.41865 0.48806 0.0
C1037 C 0.51136 0.40396 0.50765 0.0
C1038 C 0.49944 0.39382 0.47534 0.0
H1039 H 0.45163 0.40959 0.33964 0.0
H1040 H 0.465 0.41473 0.39707 0.0
H1041 H 0.47524 0.419 0.33503 0.0
H1042 H 0.50902 0.41682 0.36307 0.0
H1043 H 0.52966 0.43506 0.42015 0.0
H1044 H 0.21784 0.43719 0.25785 0.0
H1045 H 0.19054 0.44404 0.31358 0.0
H1046 H 0.18697 0.4999 0.24782 0.0
H1047 H 0.21415 0.49322 0.19303 0.0
H1048 H 0.19201 0.47928 0.38209 0.0
H1049 H 0.13148 0.476 0.24659 0.0
H1050 H 0.15294 0.4627 0.23719 0.0
H1051 H 0.15256 0.48754 0.22331 0.0
C1052 C 0.21095 0.45077 0.25518 0.0
C1053 C 0.21789 0.46478 0.22202 0.0
C1054 C 0.19549 0.45463 0.28659 0.0
C1055 C 0.18679 0.47232 0.28384 0.0
C1056 C 0.19343 0.48607 0.24956 0.0
H1057 H 0.11529 0.54997 0.42322 0.0
H1058 H 0.13387 0.52961 0.36647 0.0
C1059 C 0.20894 0.48233 0.2188 0.0
C1060 C 0.17201 0.47748 0.3202 0.0
H1061 H 0.12663 0.49288 0.32492 0.0
C1062 C 0.17754 0.48178 0.37036 0.0
C1063 C 0.15342 0.481 0.30369 0.0
C1064 C 0.14712 0.47646 0.24981 0.0
C1065 C 0.16507 0.4906 0.4041 0.0
C1066 C 0.14656 0.49463 0.38718 0.0
C1067 C 0.14081 0.48956 0.33761 0.0
C1068 C 0.13368 0.5058 0.41878 0.0
C1069 C 0.17216 0.4967 0.45616 0.0
C1070 C 0.12717 0.49885 0.46601 0.0
C1071 C 0.11675 0.51046 0.49833 0.0
C1072 C 0.11277 0.52902 0.48341 0.0
C1073 C 0.11851 0.53569 0.43523 0.0
C1074 C 0.12894 0.5241 0.40296 0.0
H1075 H 0.18778 0.49561 0.45936 0.0
H1076 H 0.16807 0.51152 0.46421 0.0
H1077 H 0.16571 0.48756 0.48613 0.0
H1078 H 0.13056 0.48464 0.47826 0.0
H1079 H 0.1121 0.50512 0.53518 0.0
H1080 H 0.99452 0.79884 0.98748 0.0
H1081 H 0.99985 0.82331 0.92304 0.0
H1082 H 0.94274 0.84299 0.94393 0.0
H1083 H 0.93743 0.81841 1.00959 0.0
H1084 H 0.97955 0.83256 0.8308 0.0
H1085 H 0.97881 0.88828 0.98228 0.0
H1086 H 0.98111 0.86356 0.9978 0.0
H1087 H 0.95876 0.87257 0.97719 0.0
C1088 C 0.98301 0.80814 0.97733 0.0
C1089 C 0.96562 0.80702 1.00291 0.0
C1090 C 0.98603 0.82203 0.94078 0.0
C1091 C 0.97169 0.83489 0.92951 0.0
C1092 C 0.9539 0.83313 0.95279 0.0
H1093 H 1.00444 0.93092 0.73535 0.0
H1094 H 0.98374 0.90994 0.78566 0.0
C1095 C 0.95085 0.81913 0.98961 0.0
C1096 C 0.9763 0.85082 0.89613 0.0
H1097 H 0.99091 0.89674 0.9015 0.0
C1098 C 0.98151 0.84677 0.84557 0.0
C1099 C 0.97908 0.86913 0.91648 0.0
C1100 C 0.97427 0.87377 0.97146 0.0
C1101 C 0.9905 0.86038 0.81536 0.0
C1102 C 0.99416 0.87835 0.83652 0.0
C1103 C 0.98788 0.88285 0.88588 0.0
C1104 C 1.00644 0.89175 0.80984 0.0
C1105 C 0.99706 0.85521 0.76214 0.0
C1106 C 0.0259 0.88838 0.80824 0.0
C1107 C 0.03766 0.90016 0.77966 0.0
C1108 C 0.03004 0.91545 0.75272 0.0
C1109 C 0.01057 0.91914 0.75582 0.0
C1110 C 0.99879 0.90729 0.78437 0.0
H1111 H 0.99028 0.84196 0.7483 0.0
H1112 H 0.99395 0.86678 0.7347 0.0
H1113 H 0.01259 0.85314 0.76251 0.0
H1114 H 0.0319 0.87646 0.82844 0.0
H1115 H 0.05269 0.89737 0.77863 0.0
H1116 H 0.74255 0.9771 0.9409 0.0
H1117 H 0.71877 0.98535 0.87633 0.0
H1118 H 0.67543 0.95908 0.96929 0.0
H1119 H 0.69905 0.951 0.03396 0.0
H1120 H 0.68374 0.96231 0.82576 0.0
H1121 H 0.66966 0.0204 0.96421 0.0
H1122 H 0.69175 1.00778 0.96306 0.0
H1123 H 0.6711 0.99705 0.99106 0.0
C1124 C 0.72807 0.97237 0.94617 0.0
C1125 C 0.72242 0.96346 0.99183 0.0
C1126 C 0.71459 0.97711 0.90957 0.0
C1127 C 0.69555 0.97281 0.91867 0.0
C1128 C 0.69018 0.96235 0.96198 0.0
H1129 H 0.58595 0.98337 0.83976 0.0
H1130 H 0.61871 0.97292 0.84204 0.0
C1131 C 0.70358 0.95775 0.99865 0.0
C1132 C 0.68091 0.9819 0.8883 0.0
H1133 H 0.64675 0.01511 0.8992 0.0
C1134 C 0.67583 0.97412 0.84095 0.0
C1135 C 0.67095 0.9974 0.9086 0.0
C1136 C 0.67618 1.00629 0.95937 0.0
C1137 C 0.65999 0.98077 0.81463 0.0
C1138 C 0.64931 0.99542 0.83661 0.0
C1139 C 0.6552 1.00399 0.88233 0.0
C1140 C 0.63032 0.99997 0.81861 0.0
C1141 C 0.65425 0.97168 0.76479 0.0
C1142 C 0.62617 0.01845 0.80325 0.0
C1143 C 0.60746 0.02439 0.80172 0.0
C1144 C 0.59289 0.01197 0.81664 0.0
C1145 C 0.59701 0.99312 0.82825 0.0
C1146 C 0.61566 0.98711 0.82899 0.0
H1147 H 0.66613 0.96385 0.7471 0.0
H1148 H 0.64249 0.96155 0.77207 0.0
H1149 H 0.64914 0.9825 0.73729 0.0
H1150 H 0.63744 0.02858 0.79615 0.0
H1151 H 0.60452 0.03903 0.79285 0.0
H1152 H 0.53331 0.72901 0.99028 0.0
H1153 H 0.52873 0.70234 0.93316 0.0
H1154 H 0.58805 0.68917 0.94289 0.0
H1155 H 0.59304 0.7166 0.99911 0.0
H1156 H 0.56989 0.68813 0.83942 0.0
H1157 H 0.53224 0.64716 0.98982 0.0
H1158 H 0.52389 0.67095 0.98409 0.0
H1159 H 0.5478 0.6668 1.00432 0.0
C1160 C 0.54552 0.7208 0.97926 0.0
C1161 C 0.56359 0.72492 0.99858 0.0
C1162 C 0.54281 0.70547 0.94725 0.0
C1163 C 0.55804 0.69387 0.93488 0.0
C1164 C 0.57622 0.69809 0.95269 0.0
H1165 H 0.51224 0.59333 0.79943 0.0
H1166 H 0.53506 0.61244 0.84482 0.0
C1167 C 0.57899 0.71361 0.98468 0.0
C1168 C 0.55441 0.67709 0.90416 0.0
H1169 H 0.52496 0.63914 0.90221 0.0
C1170 C 0.56053 0.677 0.85314 0.0
C1171 C 0.54246 0.66265 0.92298 0.0
C1172 C 0.53636 0.66176 0.97849 0.0
C1173 C 0.55371 0.6634 0.8189 0.0
C1174 C 0.54018 0.65011 0.83646 0.0
C1175 C 0.53526 0.64943 0.88862 0.0
C1176 C 0.52953 0.63785 0.80135 0.0
C1177 C 0.56063 0.66382 0.76418 0.0
C1178 C 0.51916 0.64573 0.76086 0.0
C1179 C 0.50661 0.63457 0.73284 0.0
C1180 C 0.50377 0.61554 0.74615 0.0
C1181 C 0.5144 0.60773 0.78658 0.0
C1182 C 0.52738 0.61869 0.81317 0.0
H1183 H 0.57535 0.66933 0.76199 0.0
H1184 H 0.56011 0.64957 0.74647 0.0
H1185 H 0.55161 0.67347 0.74145 0.0
H1186 H 0.52013 0.66068 0.75229 0.0
H1187 H 0.4988 0.64097 0.70176 0.0
H1188 H 0.80001 0.53413 0.98128 0.0
H1189 H 0.82507 0.52968 0.91817 0.0
H1190 H 0.84594 0.58611 0.94768 0.0
H1191 H 0.82073 0.59055 0.01175 0.0
H1192 H 0.83599 0.55225 0.82883 0.0
H1193 H 0.88973 0.54811 0.98506 0.0
H1194 H 0.86478 0.54551 0.99792 0.0
H1195 H 0.87442 0.5683 0.98233 0.0
C1196 C 0.80972 0.54569 0.97333 0.0
C1197 C 0.8087 0.56263 1.00081 0.0
C1198 C 0.82394 0.54317 0.93752 0.0
C1199 C 0.83727 0.55756 0.92898 0.0
C1200 C 0.8357 0.57491 0.95433 0.0
H1201 H 0.92868 0.52498 0.71891 0.0
H1202 H 0.90964 0.54647 0.7716 0.0
C1203 C 0.82135 0.57747 0.99029 0.0
C1204 C 0.85347 0.5534 0.89624 0.0
H1205 H 0.89864 0.53731 0.90346 0.0
C1206 C 0.84992 0.54959 0.84448 0.0
C1207 C 0.87137 0.54962 0.91774 0.0
C1208 C 0.87543 0.55298 0.97384 0.0
C1209 C 0.8636 0.54101 0.81402 0.0
C1210 C 0.88114 0.53638 0.83612 0.0
C1211 C 0.88514 0.54119 0.887 0.0
C1212 C 0.8941 0.52393 0.80905 0.0
C1213 C 0.85881 0.5356 0.75959 0.0
C1214 C 0.89159 0.50438 0.81383 0.0
C1215 C 0.90213 0.49221 0.78361 0.0
C1216 C 0.91536 0.49952 0.7486 0.0
C1217 C 0.91843 0.51913 0.74552 0.0
C1218 C 0.90772 0.53133 0.77552 0.0
H1219 H 0.84503 0.54143 0.74709 0.0
H1220 H 0.87005 0.54072 0.73313 0.0
H1221 H 0.85816 0.51997 0.75639 0.0
H1222 H 0.88106 0.49859 0.83981 0.0
H1223 H 0.89986 0.47711 0.78722 0.0
H1224 H 0.0104 0.21032 0.87896 0.0
H1225 H 1.00744 0.17963 0.83737 0.0
H1226 H 0.0599 0.18923 0.75758 0.0
H1227 H 0.06255 0.22052 0.79588 0.0
H1228 H 0.01164 0.17171 0.71536 0.0
H1229 H 0.0622 0.13623 0.84694 0.0
H1230 H 0.0492 0.1569 0.86649 0.0
H1231 H 0.06814 0.15919 0.82119 0.0
C1232 C 0.02118 0.20634 0.8517 0.0
C1233 C 0.03676 0.21839 0.84138 0.0
C1234 C 0.01951 0.18853 0.8283 0.0
C1235 C 0.03351 0.18202 0.79466 0.0
C1236 C 0.04897 0.19388 0.78372 0.0
H1237 H 0.05106 0.06978 0.6608 0.0
H1238 H 0.05498 0.10171 0.69491 0.0
C1239 C 0.05051 0.21183 0.80631 0.0
C1240 C 0.03198 0.16279 0.77136 0.0
H1241 H 0.04808 0.11753 0.78296 0.0
C1242 C 0.01958 0.15985 0.73011 0.0
C1243 C 0.04259 0.14738 0.78994 0.0
C1244 C 0.05629 0.14989 0.83369 0.0
C1245 C 0.01751 0.14194 0.70699 0.0
C1246 C 0.02754 0.12625 0.72692 0.0
C1247 C 0.04019 0.12935 0.76776 0.0
C1248 C 0.02509 0.10658 0.70622 0.0
C1249 C 1.00502 0.14022 0.66035 0.0
C1250 C 1.00703 0.09825 0.70185 0.0
C1251 C 1.00477 0.07988 0.68245 0.0
C1252 C 0.02052 0.06919 0.66742 0.0
C1253 C 0.0386 0.07744 0.67237 0.0
C1254 C 0.04086 0.09581 0.69178 0.0
H1255 H 1.00388 0.15392 0.63977 0.0
H1256 H 0.01047 0.1295 0.63319 0.0
H1257 H 0.99058 0.13593 0.67251 0.0
H1258 H 0.99461 0.10587 0.71401 0.0
H1259 H 0.99064 0.07399 0.6798 0.0
H1260 H 0.32012 0.01506 0.88283 0.0
H1261 H 0.35094 0.01156 0.84202 0.0
H1262 H 0.34418 0.06504 0.76576 0.0
H1263 H 0.31285 0.06828 0.80343 0.0
H1264 H 0.36094 0.01388 0.72839 0.0
H1265 H 0.39571 0.06821 0.85098 0.0
H1266 H 0.3739 0.0566 0.86944 0.0
H1267 H 0.37379 0.07448 0.82064 0.0
C1268 C 0.3248 0.02597 0.85653 0.0
C1269 C 0.31362 0.04205 0.84717 0.0
C1270 C 0.34265 0.02398 0.83355 0.0
C1271 C 0.35003 0.03814 0.80134 0.0
C1272 C 0.33892 0.05403 0.79104 0.0
H1273 H 0.45068 0.03178 0.60383 0.0
H1274 H 0.41868 0.03648 0.63732 0.0
C1275 C 0.32094 0.05589 0.81319 0.0
C1276 C 0.36938 0.03636 0.77897 0.0
H1277 H 0.41446 0.054 0.78715 0.0
C1278 C 0.37264 0.02267 0.74109 0.0
C1279 C 0.38467 0.0478 0.79566 0.0
C1280 C 0.38202 0.06256 0.83663 0.0
C1281 C 0.39073 0.02014 0.71947 0.0
C1282 C 0.40605 0.03158 0.73618 0.0
C1283 C 0.40277 0.04524 0.7742 0.0
C1284 C 0.42567 0.02924 0.71568 0.0
C1285 C 0.3934 1.00491 0.67975 0.0
C1286 C 0.44051 0.02419 0.74866 0.0
C1287 C 0.4589 0.02175 0.72968 0.0
C1288 C 0.46288 0.02425 0.6772 0.0
C1289 C 0.44806 0.02949 0.64431 0.0
C1290 C 0.42971 0.03211 0.66341 0.0
H1291 H 0.38118 0.99497 0.67841 0.0
H1292 H 0.3949 0.01153 0.64134 0.0
H1293 H 0.40643 0.99677 0.68762 0.0
H1294 H 0.43781 0.02192 0.78912 0.0
H1295 H 0.46996 0.01766 0.75603 0.0
H1296 H 0.49258 0.32773 0.9142 0.0
H1297 H 0.49405 0.35865 0.87234 0.0
H1298 H 0.49207 0.33147 0.72433 0.0
H1299 H 0.48924 0.30058 0.76664 0.0
H1300 H 0.51881 0.37414 0.81777 0.0
H1301 H 0.4558 0.37084 0.69239 0.0
H1302 H 0.46022 0.35316 0.74063 0.0
H1303 H 0.47203 0.35218 0.67934 0.0
C1304 C 0.49226 0.3284 0.87269 0.0
C1305 C 0.49083 0.31171 0.8437 0.0
C1306 C 0.49311 0.34612 0.84863 0.0
C1307 C 0.49289 0.34773 0.79476 0.0
C1308 C 0.49161 0.33095 0.76577 0.0
H1309 H 0.50662 0.44703 0.59186 0.0
H1310 H 0.50357 0.41486 0.62659 0.0
C1311 C 0.49023 0.3132 0.78996 0.0
C1312 C 0.49509 0.36685 0.76981 0.0
H1313 H 0.47687 0.39661 0.67874 0.0
C1314 C 0.50948 0.379 0.78761 0.0
C1315 C 0.48318 0.37342 0.72981 0.0
C1316 C 0.46684 0.36179 0.70978 0.0
C1317 C 0.51233 0.39723 0.76705 0.0
C1318 C 0.50031 0.40387 0.72753 0.0
C1319 C 0.48612 0.39166 0.70894 0.0
C1320 C 0.50199 0.42353 0.70598 0.0
C1321 C 0.52853 0.40897 0.78756 0.0
C1322 C 0.5019 0.4393 0.73861 0.0
C1323 C 0.50426 0.45759 0.719 0.0
C1324 C 0.50585 0.46088 0.6659 0.0
C1325 C 0.50546 0.44513 0.63295 0.0
C1326 C 0.5036 0.42669 0.65279 0.0
H1327 H 0.53979 0.39995 0.80402 0.0
H1328 H 0.53489 0.41803 0.75724 0.0
H1329 H 0.52327 0.41817 0.81884 0.0
H1330 H 0.50012 0.43753 0.77958 0.0
H1331 H 0.50507 0.46914 0.74584 0.0
H1332 H 0.21892 0.46636 0.79619 0.0
H1333 H 0.18803 0.46926 0.75559 0.0
H1334 H 0.17681 0.51901 0.8451 0.0
H1335 H 0.20725 0.51587 0.88775 0.0
H1336 H 0.15155 0.46924 0.8003 0.0
H1337 H 0.16603 0.53639 0.69719 0.0
H1338 H 0.18457 0.52207 0.7241 0.0
H1339 H 0.17096 0.53732 0.76472 0.0
C1340 C 0.20995 0.4779 0.80785 0.0
C1341 C 0.21597 0.49091 0.84563 0.0
C1342 C 0.19222 0.47957 0.78414 0.0
C1343 C 0.1801 0.49449 0.79666 0.0
C1344 C 0.18601 0.50757 0.83392 0.0
H1345 H 0.0592 0.5055 0.74768 0.0
H1346 H 0.09088 0.50057 0.78156 0.0
C1347 C 0.20362 0.50579 0.85814 0.0
C1348 C 0.16115 0.49619 0.77159 0.0
H1349 H 0.13404 0.52584 0.69903 0.0
C1350 C 0.14776 0.48159 0.77802 0.0
C1351 C 0.15621 0.51214 0.74171 0.0
C1352 C 0.17023 0.52781 0.73098 0.0
C1353 C 0.12948 0.48278 0.7568 0.0
C1354 C 0.12429 0.4991 0.72873 0.0
C1355 C 0.13787 0.51342 0.72098 0.0
C1356 C 0.1048 0.50168 0.70767 0.0
C1357 C 0.11592 0.46643 0.76415 0.0
C1358 C 0.10191 0.5044 0.65483 0.0
C1359 C 0.08361 0.50684 0.63511 0.0
C1360 C 0.06777 0.50688 0.66791 0.0
C1361 C 0.07084 0.50476 0.72095 0.0
C1362 C 0.08906 0.50205 0.74051 0.0
H1363 H 0.12346 0.45318 0.77379 0.0
H1364 H 0.10615 0.46966 0.79625 0.0
H1365 H 0.10732 0.464 0.72914 0.0
H1366 H 0.11383 0.50445 0.62877 0.0
H1367 H 0.0819 0.50868 0.59414 0.0
H1368 H 0.02209 0.81093 0.4035 0.0
H1369 H 0.02435 0.8425 0.44046 0.0
H1370 H 0.96389 0.84805 0.43211 0.0
H1371 H 0.9614 0.81688 0.39293 0.0
H1372 H 0.01207 0.87713 0.39625 0.0
H1373 H 0.97588 0.86309 0.58179 0.0
H1374 H 0.98471 0.84437 0.54153 0.0
H1375 H 0.96302 0.85598 0.52554 0.0
C1376 C 0.00919 0.81877 0.40902 0.0
C1377 C 0.99153 0.81097 0.39484 0.0
C1378 C 0.01054 0.83688 0.43067 0.0
C1379 C 0.9943 0.84766 0.43977 0.0
C1380 C 0.97663 0.83993 0.42647 0.0
H1381 H 0.97693 0.96148 0.56296 0.0
H1382 H 0.97289 0.9298 0.5271 0.0
C1383 C 0.97526 0.82191 0.40419 0.0
C1384 C 0.99598 0.86722 0.46114 0.0
H1385 H 0.98406 0.8949 0.5637 0.0
C1386 C 1.006 0.88097 0.43296 0.0
C1387 C 0.98791 0.87239 0.50883 0.0
C1388 C 0.97739 0.85819 0.54153 0.0
C1389 C 1.00805 0.89966 0.45082 0.0
C1390 C 1.0003 0.90475 0.49898 0.0
C1391 C 0.99009 0.89106 0.52693 0.0
C1392 C 1.00281 0.92413 0.52104 0.0
C1393 C 0.0181 0.91394 0.41726 0.0
C1394 C 0.02097 0.93157 0.53041 0.0
C1395 C 0.02333 0.94984 0.55034 0.0
C1396 C 1.00759 0.96114 0.56179 0.0
C1397 C 0.98941 0.95345 0.55364 0.0
C1398 C 0.98706 0.93521 0.53346 0.0
H1399 H 0.01848 0.90935 0.37654 0.0
H1400 H 0.01116 0.92794 0.41933 0.0
H1401 H 0.0329 0.91561 0.43058 0.0
H1402 H 0.03337 0.92321 0.52245 0.0
H1403 H 0.03755 0.95513 0.55652 0.0
H1404 H 0.72744 0.01266 0.43967 0.0
H1405 H 0.6969 0.01607 0.48299 0.0
H1406 H 0.67538 0.96756 0.40135 0.0
H1407 H 0.70587 0.96382 0.35912 0.0
H1408 H 0.66343 0.02371 0.45002 0.0
H1409 H 0.65797 0.95313 0.5399 0.0
H1410 H 0.67948 0.96141 0.50996 0.0
H1411 H 0.66075 0.95126 0.47183 0.0
C1412 C 0.71625 1.00261 0.43126 0.0
C1413 C 0.71933 0.98779 0.39633 0.0
C1414 C 0.69874 1.00456 0.45617 0.0
C1415 C 0.68377 0.99181 0.4467 0.0
C1416 C 0.68675 0.9772 0.41116 0.0
H1417 H 0.56311 1.00383 0.49061 0.0
H1418 H 0.59528 0.99882 0.45951 0.0
C1419 C 0.70429 0.97511 0.38675 0.0
C1420 C 0.66482 0.99436 0.47184 0.0
H1421 H 0.6293 0.97101 0.53612 0.0
C1422 C 0.65613 0.01217 0.46921 0.0
C1423 C 0.65512 0.97945 0.4976 0.0
C1424 C 0.66391 0.96032 0.50549 0.0
C1425 C 0.63801 0.01527 0.48995 0.0
C1426 C 0.6281 1.00019 0.51362 0.0
C1427 C 0.63684 0.98252 0.51747 0.0
C1428 C 0.60848 1.00254 0.53352 0.0
C1429 C 0.62941 0.03465 0.4865 0.0
C1430 C 0.60512 1.00617 0.58567 0.0
C1431 C 0.58661 1.00872 0.60392 0.0
C1432 C 0.57102 1.00766 0.57039 0.0
C1433 C 0.57456 1.00415 0.51804 0.0
C1434 C 0.59302 1.00149 0.49996 0.0
H1435 H 0.63928 0.04519 0.46935 0.0
H1436 H 0.6164 0.03399 0.46283 0.0
H1437 H 0.62527 0.03951 0.52537 0.0
H1438 H 0.61684 1.00719 0.61221 0.0
H1439 H 0.58453 0.01156 0.64434 0.0
H1440 H 0.56475 0.70523 0.35104 0.0
H1441 H 0.5608 0.67433 0.3917 0.0
H1442 H 0.51395 0.69557 0.4797 0.0
H1443 H 0.51756 0.72644 0.43818 0.0
H1444 H 0.56311 0.66173 0.48669 0.0
H1445 H 0.48927 0.64966 0.42357 0.0
H1446 H 0.50338 0.66906 0.39953 0.0
H1447 H 0.4922 0.67056 0.46148 0.0
C1448 C 0.55363 0.70342 0.37926 0.0
C1449 C 0.54142 0.71848 0.391 0.0
C1450 C 0.55133 0.68561 0.40244 0.0
C1451 C 0.53676 0.68224 0.43814 0.0
C1452 C 0.5249 0.69741 0.45109 0.0
H1453 H 0.49763 0.57905 0.59661 0.0
H1454 H 0.50231 0.6115 0.56648 0.0
C1455 C 0.52705 0.71519 0.42745 0.0
C1456 C 0.53418 0.66294 0.46174 0.0
H1457 H 0.50201 0.62714 0.4803 0.0
C1458 C 0.54973 0.65418 0.4852 0.0
C1459 C 0.51673 0.65293 0.46039 0.0
C1460 C 0.49949 0.66094 0.43449 0.0
C1461 C 0.54832 0.63606 0.50773 0.0
C1462 C 0.53093 0.62587 0.50559 0.0
C1463 C 0.51536 0.63472 0.48238 0.0
C1464 C 0.52852 0.60603 0.52621 0.0
C1465 C 0.56548 0.62841 0.53483 0.0
C1466 C 0.5415 0.59175 0.5141 0.0
C1467 C 0.53916 0.57331 0.53309 0.0
C1468 C 0.5233 0.56814 0.56261 0.0
C1469 C 0.51004 0.58231 0.57385 0.0
C1470 C 0.5127 0.60098 0.55636 0.0
H1471 H 0.57471 0.64003 0.54916 0.0
H1472 H 0.56151 0.61927 0.56779 0.0
H1473 H 0.57398 0.62005 0.50732 0.0
H1474 H 0.55344 0.5947 0.48931 0.0
H1475 H 0.5497 0.56312 0.52361 0.0
H1476 H 0.82555 0.52605 0.32641 0.0
H1477 H 0.85671 0.52453 0.36687 0.0
H1478 H 0.83447 0.55114 0.50232 0.0
H1479 H 0.80312 0.55271 0.46211 0.0
H1480 H 0.87862 0.55843 0.41423 0.0
H1481 H 0.86159 0.49961 0.54908 0.0
H1482 H 0.84855 0.50303 0.49028 0.0
H1483 H 0.84515 0.51881 0.54314 0.0
C1484 C 0.82716 0.53139 0.36508 0.0
C1485 C 0.81163 0.53928 0.39115 0.0
C1486 C 0.84508 0.53064 0.388 0.0
C1487 C 0.84796 0.53758 0.43782 0.0
C1488 C 0.83259 0.54557 0.46399 0.0
H1489 H 0.94735 0.52708 0.6381 0.0
H1490 H 0.9155 0.53186 0.60402 0.0
C1491 C 0.81467 0.54651 0.44085 0.0
C1492 C 0.86707 0.53642 0.46207 0.0
H1493 H 0.89254 0.51178 0.55092 0.0
C1494 C 0.88168 0.54827 0.44422 0.0
C1495 C 0.87104 0.52337 0.50168 0.0
C1496 C 0.85586 0.51036 0.52233 0.0
C1497 C 0.90009 0.54745 0.46488 0.0
C1498 C 0.90432 0.5338 0.50315 0.0
C1499 C 0.88954 0.52217 0.5215 0.0
C1500 C 0.92393 0.53116 0.52411 0.0
C1501 C 0.9146 0.56163 0.44625 0.0
C1502 C 0.93948 0.52874 0.49106 0.0
C1503 C 0.95774 0.52618 0.5106 0.0
C1504 C 0.96102 0.52568 0.56382 0.0
C1505 C 0.94542 0.52757 0.59695 0.0
C1506 C 0.92714 0.53029 0.57738 0.0
H1507 H 0.90778 0.57475 0.43229 0.0
H1508 H 0.92478 0.56548 0.47695 0.0
H1509 H 0.92254 0.55552 0.41359 0.0
H1510 H 0.9375 0.52852 0.44992 0.0
H1511 H 0.96925 0.5242 0.48382 0.0
loop_
_geom_bond_atom_site_label_1
_geom_bond_atom_site_label_2
_geom_bond_distance
_geom_bond_site_symmetry_2
_ccdc_geom_bond_type
C0 C1 1.386 . S
C0 C2 1.397 . S
C0 H24 0.931 1_554 S
C1 C0 1.386 . S
C1 C5 1.397 . S
C2 C0 1.397 . S
C2 C3 1.384 . S
C2 H25 0.930 . S
C3 C2 1.384 . S
C3 C4 1.377 . S
C3 C6 1.481 . S
C4 C3 1.377 . S
C4 C5 1.389 . S
C4 H26 0.929 . S
C5 C1 1.397 . S
C5 C4 1.389 . S
C5 H27 0.931 . S
C6 C3 1.481 . S
C6 C7 1.387 . S
C6 C11 1.390 . S
C7 C6 1.387 . S
C7 C8 1.401 . S
C7 H28 0.930 . S
C8 C7 1.401 . S
C8 C9 1.376 . S
C8 C17 1.511 . S
C9 C8 1.376 . S
C9 C10 1.392 . S
C9 H30 0.931 . S
C10 C9 1.392 . S
C10 C11 1.361 . S
C10 C12 1.500 . S
C11 C6 1.390 . S
C11 C10 1.361 . S
C11 H29 0.931 . S
C12 C10 1.500 . S
C12 C13 1.371 . S
C12 C14 1.365 . S
C13 C12 1.371 . S
C13 C23 1.386 . S
C13 H31 0.931 . S
C14 C12 1.365 . S
C14 C15 1.409 . S
C14 H32 0.929 . S
C15 C14 1.409 . S
C15 C16 1.380 . S
C15 H33 0.930 . S
C16 C15 1.380 . S
C16 C23 1.357 . S
C17 C8 1.511 . S
C17 C18 1.341 . S
C17 C19 1.371 . S
C18 C17 1.341 . S
C18 C22 1.394 . S
C18 H34 0.930 . S
C19 C17 1.371 . S
C19 C20 1.392 . S
C19 H35 0.931 . S
C20 C19 1.392 . S
C20 C21 1.331 . S
C20 H38 0.932 . S
C21 C20 1.331 . S
C21 C22 1.336 . S
C22 C18 1.394 . S
C22 C21 1.336 . S
C22 H37 0.929 . S
C23 C13 1.386 . S
C23 C16 1.357 . S
C23 H36 0.928 . S
H24 C0 0.931 1_556 S
H25 C2 0.930 . S
H26 C4 0.929 . S
H27 C5 0.931 . S
H28 C7 0.930 . S
H29 C11 0.931 . S
H30 C9 0.931 . S
H31 C13 0.931 . S
H32 C14 0.929 . S
H33 C15 0.930 . S
H34 C18 0.930 . S
H35 C19 0.931 . S
H36 C23 0.928 . S
H37 C22 0.929 . S
H38 C20 0.932 . S
C39 C40 1.386 . S
C39 C41 1.397 . S
C39 H63 0.931 1_554 S
C40 C39 1.386 . S
C40 C44 1.397 . S
C41 C39 1.397 . S
C41 C42 1.384 . S
C41 H64 0.930 . S
C42 C41 1.384 . S
C42 C43 1.377 . S
C42 C45 1.481 . S
C43 C42 1.377 . S
C43 C44 1.389 . S
C43 H65 0.929 . S
C44 C40 1.397 . S
C44 C43 1.389 . S
C44 H66 0.931 . S
C45 C42 1.481 . S
C45 C46 1.387 . S
C45 C50 1.390 . S
C46 C45 1.387 . S
C46 C47 1.401 . S
C46 H67 0.930 . S
C47 C46 1.401 . S
C47 C48 1.376 . S
C47 C56 1.511 . S
C48 C47 1.376 . S
C48 C49 1.392 . S
C48 H69 0.931 . S
C49 C48 1.392 . S
C49 C50 1.361 . S
C49 C51 1.500 . S
C50 C45 1.390 . S
C50 C49 1.361 . S
C50 H68 0.931 . S
C51 C49 1.500 . S
C51 C52 1.371 . S
C51 C53 1.365 . S
C52 C51 1.371 . S
C52 C62 1.386 . S
C52 H70 0.931 . S
C53 C51 1.365 . S
C53 C54 1.409 . S
C53 H71 0.929 . S
C54 C53 1.409 . S
C54 C55 1.380 . S
C54 H72 0.930 . S
C55 C54 1.380 . S
C55 C62 1.357 . S
C56 C47 1.511 . S
C56 C57 1.341 . S
C56 C58 1.371 . S
C57 C56 1.341 . S
C57 C61 1.394 . S
C57 H73 0.930 . S
C58 C56 1.371 . S
C58 C59 1.392 . S
C58 H74 0.931 . S
C59 C58 1.392 . S
C59 C60 1.331 . S
C59 H77 0.932 . S
C60 C59 1.331 . S
C60 C61 1.336 . S
C61 C57 1.394 . S
C61 C60 1.336 . S
C61 H76 0.929 . S
C62 C52 1.386 . S
C62 C55 1.357 . S
C62 H75 0.928 . S
H63 C39 0.931 1_556 S
H64 C41 0.930 . S
H65 C43 0.929 . S
H66 C44 0.931 . S
H67 C46 0.930 . S
H68 C50 0.931 . S
H69 C48 0.931 . S
H70 C52 0.931 . S
H71 C53 0.929 . S
H72 C54 0.930 . S
H73 C57 0.930 . S
H74 C58 0.931 . S
H75 C62 0.928 . S
H76 C61 0.929 . S
H77 C59 0.932 . S
C78 C79 1.386 . S
C78 C80 1.397 . S
C78 H102 0.931 1_554 S
C79 C78 1.386 . S
C79 C83 1.397 . S
C80 C78 1.397 . S
C80 C81 1.384 . S
C80 H103 0.930 . S
C81 C80 1.384 . S
C81 C82 1.377 . S
C81 C84 1.481 . S
C82 C81 1.377 . S
C82 C83 1.389 . S
C82 H104 0.929 . S
C83 C79 1.397 . S
C83 C82 1.389 . S
C83 H105 0.931 . S
C84 C81 1.481 . S
C84 C85 1.387 . S
C84 C89 1.390 . S
C85 C84 1.387 . S
C85 C86 1.401 . S
C85 H106 0.930 . S
C86 C85 1.401 . S
C86 C87 1.376 . S
C86 C95 1.511 . S
C87 C86 1.376 . S
C87 C88 1.392 . S
C87 H108 0.931 . S
C88 C87 1.392 . S
C88 C89 1.361 . S
C88 C90 1.500 . S
C89 C84 1.390 . S
C89 C88 1.361 . S
C89 H107 0.931 . S
C90 C88 1.500 . S
C90 C91 1.371 . S
C90 C92 1.365 . S
C91 C90 1.371 . S
C91 C101 1.386 . S
C91 H109 0.931 . S
C92 C90 1.365 . S
C92 C93 1.409 . S
C92 H110 0.929 . S
C93 C92 1.409 . S
C93 C94 1.380 . S
C93 H111 0.930 . S
C94 C93 1.380 . S
C94 C101 1.357 . S
C95 C86 1.511 . S
C95 C96 1.341 . S
C95 C97 1.371 . S
C96 C95 1.341 . S
C96 C100 1.394 . S
C96 H112 0.930 . S
C97 C95 1.371 . S
C97 C98 1.392 . S
C97 H113 0.931 . S
C98 C97 1.392 . S
C98 C99 1.331 . S
C98 H116 0.932 . S
C99 C98 1.331 . S
C99 C100 1.336 . S
C100 C96 1.394 . S
C100 C99 1.336 . S
C100 H115 0.929 . S
C101 C91 1.386 . S
C101 C94 1.357 . S
C101 H114 0.928 . S
H102 C78 0.931 1_556 S
H103 C80 0.930 . S
H104 C82 0.929 . S
H105 C83 0.931 . S
H106 C85 0.930 . S
H107 C89 0.931 . S
H108 C87 0.931 . S
H109 C91 0.931 . S
H110 C92 0.929 . S
H111 C93 0.930 . S
H112 C96 0.930 . S
H113 C97 0.931 . S
H114 C101 0.928 . S
H115 C100 0.929 . S
H116 C98 0.932 . S
C117 C118 1.386 . S
C117 C119 1.397 . S
C117 H141 0.931 . S
C118 C117 1.386 . S
C118 C122 1.397 . S
C119 C117 1.397 . S
C119 C120 1.384 . S
C119 H142 0.930 . S
C120 C119 1.384 . S
C120 C121 1.377 . S
C120 C123 1.481 . S
C121 C120 1.377 . S
C121 C122 1.389 . S
C121 H143 0.929 . S
C122 C118 1.397 . S
C122 C121 1.389 . S
C122 H144 0.931 . S
C123 C120 1.481 . S
C123 C124 1.387 . S
C123 C128 1.390 . S
C124 C123 1.387 . S
C124 C125 1.401 . S
C124 H145 0.930 . S
C125 C124 1.401 . S
C125 C126 1.376 . S
C125 C134 1.511 . S
C126 C125 1.376 . S
C126 C127 1.392 . S
C126 H147 0.931 . S
C127 C126 1.392 . S
C127 C128 1.361 . S
C127 C129 1.500 . S
C128 C123 1.390 . S
C128 C127 1.361 . S
C128 H146 0.931 . S
C129 C127 1.500 . S
C129 C130 1.371 . S
C129 C131 1.365 . S
C130 C129 1.371 . S
C130 C140 1.386 . S
C130 H148 0.931 . S
C131 C129 1.365 . S
C131 C132 1.409 . S
C131 H149 0.929 . S
C132 C131 1.409 . S
C132 C133 1.380 . S
C132 H150 0.930 . S
C133 C132 1.380 . S
C133 C140 1.357 . S
C134 C125 1.511 . S
C134 C135 1.341 . S
C134 C136 1.371 . S
C135 C134 1.341 . S
C135 C139 1.394 . S
C135 H151 0.930 . S
C136 C134 1.371 . S
C136 C137 1.392 . S
C136 H152 0.931 . S
C137 C136 1.392 . S
C137 C138 1.331 . S
C137 H155 0.932 . S
C138 C137 1.331 . S
C138 C139 1.336 . S
C139 C135 1.394 . S
C139 C138 1.336 . S
C139 H154 0.929 . S
C140 C130 1.386 . S
C140 C133 1.357 . S
C140 H153 0.928 1_554 S
H141 C117 0.931 . S
H142 C119 0.930 . S
H143 C121 0.929 . S
H144 C122 0.931 . S
H145 C124 0.930 . S
H146 C128 0.931 . S
H147 C126 0.931 . S
H148 C130 0.931 . S
H149 C131 0.929 . S
H150 C132 0.930 . S
H151 C135 0.930 . S
H152 C136 0.931 . S
H153 C140 0.928 1_556 S
H154 C139 0.929 . S
H155 C137 0.932 . S
C156 C157 1.386 . S
C156 C158 1.397 . S
C156 H180 0.931 . S
C157 C156 1.386 . S
C157 C161 1.397 . S
C158 C156 1.397 . S
C158 C159 1.384 . S
C158 H181 0.930 . S
C159 C158 1.384 . S
C159 C160 1.377 . S
C159 C162 1.481 . S
C160 C159 1.377 . S
C160 C161 1.389 . S
C160 H182 0.929 . S
C161 C157 1.397 . S
C161 C160 1.389 . S
C161 H183 0.931 . S
C162 C159 1.481 . S
C162 C163 1.387 . S
C162 C167 1.390 . S
C163 C162 1.387 . S
C163 C164 1.401 . S
C163 H184 0.930 . S
C164 C163 1.401 . S
C164 C165 1.376 1_554 S
C164 C173 1.511 . S
C165 C164 1.376 1_556 S
C165 C166 1.392 . S
C165 H186 0.931 . S
C166 C165 1.392 . S
C166 C167 1.361 1_556 S
C166 C168 1.500 . S
C167 C162 1.390 . S
C167 C166 1.361 1_554 S
C167 H185 0.931 . S
C168 C166 1.500 . S
C168 C169 1.371 . S
C168 C170 1.365 . S
C169 C168 1.371 . S
C169 C179 1.386 . S
C169 H187 0.931 . S
C170 C168 1.365 . S
C170 C171 1.409 . S
C170 H188 0.929 . S
C171 C170 1.409 . S
C171 C172 1.380 . S
C171 H189 0.930 . S
C172 C171 1.380 . S
C172 C179 1.357 . S
C173 C164 1.511 . S
C173 C174 1.341 . S
C173 C175 1.371 . S
C174 C173 1.341 . S
C174 C178 1.394 . S
C174 H190 0.930 . S
C175 C173 1.371 . S
C175 C176 1.392 . S
C175 H191 0.931 1_554 S
C176 C175 1.392 . S
C176 C177 1.331 . S
C176 H194 0.932 . S
C177 C176 1.331 . S
C177 C178 1.336 . S
C178 C174 1.394 . S
C178 C177 1.336 . S
C178 H193 0.929 . S
C179 C169 1.386 . S
C179 C172 1.357 . S
C179 H192 0.928 . S
H180 C156 0.931 . S
H181 C158 0.930 . S
H182 C160 0.929 . S
H183 C161 0.931 . S
H184 C163 0.930 . S
H185 C167 0.931 . S
H186 C165 0.931 . S
H187 C169 0.931 . S
H188 C170 0.929 . S
H189 C171 0.930 . S
H190 C174 0.930 . S
H191 C175 0.931 1_556 S
H192 C179 0.928 . S
H193 C178 0.929 . S
H194 C176 0.932 . S
C195 C196 1.386 . S
C195 C197 1.397 . S
C195 H219 0.931 . S
C196 C195 1.386 . S
C196 C200 1.397 . S
C197 C195 1.397 . S
C197 C198 1.384 . S
C197 H220 0.930 . S
C198 C197 1.384 . S
C198 C199 1.377 . S
C198 C201 1.481 . S
C199 C198 1.377 . S
C199 C200 1.389 . S
C199 H221 0.929 . S
C200 C196 1.397 . S
C200 C199 1.389 . S
C200 H222 0.931 . S
C201 C198 1.481 . S
C201 C202 1.387 . S
C201 C206 1.390 . S
C202 C201 1.387 . S
C202 C203 1.401 . S
C202 H223 0.930 . S
C203 C202 1.401 . S
C203 C204 1.376 1_554 S
C203 C212 1.511 . S
C204 C203 1.376 1_556 S
C204 C205 1.392 . S
C204 H225 0.931 . S
C205 C204 1.392 . S
C205 C206 1.361 1_556 S
C205 C207 1.500 . S
C206 C201 1.390 . S
C206 C205 1.361 1_554 S
C206 H224 0.931 . S
C207 C205 1.500 . S
C207 C208 1.371 . S
C207 C209 1.365 . S
C208 C207 1.371 . S
C208 C218 1.386 . S
C208 H226 0.931 . S
C209 C207 1.365 . S
C209 C210 1.409 . S
C209 H227 0.929 . S
C210 C209 1.409 . S
C210 C211 1.380 . S
C210 H228 0.930 . S
C211 C210 1.380 . S
C211 C218 1.357 . S
C212 C203 1.511 . S
C212 C213 1.341 . S
C212 C214 1.371 . S
C213 C212 1.341 . S
C213 C217 1.394 . S
C213 H229 0.930 . S
C214 C212 1.371 . S
C214 C215 1.392 . S
C214 H230 0.931 1_554 S
C215 C214 1.392 . S
C215 C216 1.331 . S
C215 H233 0.932 . S
C216 C215 1.331 . S
C216 C217 1.336 . S
C217 C213 1.394 . S
C217 C216 1.336 . S
C217 H232 0.929 . S
C218 C208 1.386 . S
C218 C211 1.357 . S
C218 H231 0.928 . S
H219 C195 0.931 . S
H220 C197 0.930 . S
H221 C199 0.929 . S
H222 C200 0.931 . S
H223 C202 0.930 . S
H224 C206 0.931 . S
H225 C204 0.931 . S
H226 C208 0.931 . S
H227 C209 0.929 . S
H228 C210 0.930 . S
H229 C213 0.930 . S
H230 C214 0.931 1_556 S
H231 C218 0.928 . S
H232 C217 0.929 . S
H233 C215 0.932 . S
C234 C235 1.386 . S
C234 C236 1.397 . S
C234 H258 0.931 . S
C235 C234 1.386 . S
C235 C239 1.397 . S
C236 C234 1.397 . S
C236 C237 1.384 . S
C236 H259 0.930 . S
C237 C236 1.384 . S
C237 C238 1.377 . S
C237 C240 1.481 . S
C238 C237 1.377 . S
C238 C239 1.389 . S
C238 H260 0.929 . S
C239 C235 1.397 . S
C239 C238 1.389 . S
C239 H261 0.931 . S
C240 C237 1.481 . S
C240 C241 1.387 . S
C240 C245 1.390 . S
C241 C240 1.387 . S
C241 C242 1.401 . S
C241 H262 0.930 . S
C242 C241 1.401 . S
C242 C243 1.376 1_554 S
C242 C251 1.511 . S
C243 C242 1.376 1_556 S
C243 C244 1.392 . S
C243 H264 0.931 . S
C244 C243 1.392 . S
C244 C245 1.361 1_556 S
C244 C246 1.500 . S
C245 C240 1.390 . S
C245 C244 1.361 1_554 S
C245 H263 0.931 . S
C246 C244 1.500 . S
C246 C247 1.371 . S
C246 C248 1.365 . S
C247 C246 1.371 . S
C247 C257 1.386 . S
C247 H265 0.931 . S
C248 C246 1.365 . S
C248 C249 1.409 . S
C248 H266 0.929 . S
C249 C248 1.409 . S
C249 C250 1.380 . S
C249 H267 0.930 . S
C250 C249 1.380 . S
C250 C257 1.357 . S
C251 C242 1.511 . S
C251 C252 1.341 . S
C251 C253 1.371 . S
C252 C251 1.341 . S
C252 C256 1.394 . S
C252 H268 0.930 . S
C253 C251 1.371 . S
C253 C254 1.392 . S
C253 H269 0.931 1_554 S
C254 C253 1.392 . S
C254 C255 1.331 . S
C254 H272 0.932 . S
C255 C254 1.331 . S
C255 C256 1.336 . S
C256 C252 1.394 . S
C256 C255 1.336 . S
C256 H271 0.929 . S
C257 C247 1.386 . S
C257 C250 1.357 . S
C257 H270 0.928 . S
H258 C234 0.931 . S
H259 C236 0.930 . S
H260 C238 0.929 . S
H261 C239 0.931 . S
H262 C241 0.930 . S
H263 C245 0.931 . S
H264 C243 0.931 . S
H265 C247 0.931 . S
H266 C248 0.929 . S
H267 C249 0.930 . S
H268 C252 0.930 . S
H269 C253 0.931 1_556 S
H270 C257 0.928 . S
H271 C256 0.929 . S
H272 C254 0.932 . S
C273 C274 1.386 . S
C273 C275 1.397 . S
C273 H297 0.931 . S
C274 C273 1.386 . S
C274 C278 1.397 . S
C275 C273 1.397 . S
C275 C276 1.384 . S
C275 H298 0.930 . S
C276 C275 1.384 . S
C276 C277 1.377 . S
C276 C279 1.481 . S
C277 C276 1.377 . S
C277 C278 1.389 . S
C277 H299 0.929 . S
C278 C274 1.397 . S
C278 C277 1.389 . S
C278 H300 0.931 . S
C279 C276 1.481 . S
C279 C280 1.387 . S
C279 C284 1.390 1_556 S
C280 C279 1.387 . S
C280 C281 1.401 1_556 S
C280 H301 0.930 . S
C281 C280 1.401 1_554 S
C281 C282 1.376 . S
C281 C290 1.511 . S
C282 C281 1.376 . S
C282 C283 1.392 . S
C282 H303 0.931 . S
C283 C282 1.392 . S
C283 C284 1.361 . S
C283 C285 1.500 . S
C284 C279 1.390 1_554 S
C284 C283 1.361 . S
C284 H302 0.931 . S
C285 C283 1.500 . S
C285 C286 1.371 . S
C285 C287 1.365 . S
C286 C285 1.371 . S
C286 C296 1.386 . S
C286 H304 0.931 . S
C287 C285 1.365 . S
C287 C288 1.409 . S
C287 H305 0.929 . S
C288 C287 1.409 . S
C288 C289 1.380 . S
C288 H306 0.930 . S
C289 C288 1.380 . S
C289 C296 1.357 . S
C290 C281 1.511 . S
C290 C291 1.341 . S
C290 C292 1.371 . S
C291 C290 1.341 . S
C291 C295 1.394 . S
C291 H307 0.930 1_554 S
C292 C290 1.371 . S
C292 C293 1.392 . S
C292 H308 0.931 . S
C293 C292 1.392 . S
C293 C294 1.331 . S
C293 H311 0.932 . S
C294 C293 1.331 . S
C294 C295 1.336 . S
C295 C291 1.394 . S
C295 C294 1.336 . S
C295 H310 0.929 . S
C296 C286 1.386 . S
C296 C289 1.357 . S
C296 H309 0.928 . S
H297 C273 0.931 . S
H298 C275 0.930 . S
H299 C277 0.929 . S
H300 C278 0.931 . S
H301 C280 0.930 . S
H302 C284 0.931 . S
H303 C282 0.931 . S
H304 C286 0.931 . S
H305 C287 0.929 . S
H306 C288 0.930 . S
H307 C291 0.930 1_556 S
H308 C292 0.931 . S
H309 C296 0.928 . S
H310 C295 0.929 . S
H311 C293 0.932 . S
C312 C314 1.422 . S
C312 C316 1.415 . S
C312 N318 1.369 1_545 S
C313 C314 1.421 . S
C313 C315 1.417 . S
C313 C325 1.422 . S
C314 C312 1.422 . S
C314 C313 1.421 . S
C314 N324 1.359 . S
C315 C313 1.417 . S
C315 C317 1.329 . S
C315 H334 0.930 . S
C316 C312 1.415 . S
C316 C317 1.437 . S
C316 C320 1.413 . S
C317 C315 1.329 . S
C317 C316 1.437 . S
C317 H339 0.929 . S
N318 C312 1.369 1_565 S
N318 C319 1.338 . S
N318 Gd323 2.622 . S
C319 N318 1.338 . S
C319 C321 1.378 1_565 S
C319 H331 0.929 . S
C320 C316 1.413 . S
C320 C321 1.348 . S
C320 H336 0.931 . S
C321 C319 1.378 1_545 S
C321 C320 1.348 . S
C321 H337 0.930 . S
Gd322 N342 2.622 . S
Gd322 N349 2.570 . S
Gd322 O356 2.353 1_655 S
Gd322 O357 2.446 1_655 S
Gd322 O358 2.427 . S
Gd322 O360 2.388 . S
Gd322 O361 2.386 1_545 S
Gd322 O365 2.307 1_655 S
Gd322 C375 2.805 . S
Gd323 N318 2.622 . S
Gd323 N324 2.570 1_565 S
Gd323 O355 2.386 1_565 S
Gd323 O359 2.300 1_465 S
Gd323 O362 2.353 . S
Gd323 O363 2.468 . S
Gd323 O364 2.427 . S
Gd323 O366 2.388 . S
Gd323 C387 2.805 . S
N324 C314 1.359 . S
N324 Gd323 2.570 1_545 S
N324 C326 1.343 . S
C325 C313 1.422 . S
C325 C327 1.321 . S
C325 H333 0.931 . S
C326 N324 1.343 . S
C326 C327 1.390 . S
C326 H328 0.890 1_445 S
C327 C325 1.321 . S
C327 C326 1.390 . S
C327 H329 0.930 . S
H328 C326 0.890 1_665 S
H329 C327 0.930 . S
H330 C353 0.969 . S
H331 C319 0.929 . S
H332 C354 0.923 1_455 S
H333 C325 0.931 . S
H334 C315 0.930 . S
H335 C344 0.929 . S
H336 C320 0.931 . S
H337 C321 0.930 . S
H338 C376 0.930 . S
H339 C317 0.929 . S
H340 C345 0.936 . S
H341 C346 0.930 . S
N342 Gd322 2.622 . S
N342 C343 1.369 . S
N342 C344 1.338 . S
C343 N342 1.369 . S
C343 C347 1.415 1_545 S
C343 C350 1.422 . S
C344 H335 0.929 . S
C344 N342 1.338 . S
C344 C346 1.378 . S
C345 H340 0.936 . S
C345 C346 1.342 1_565 S
C345 C347 1.414 . S
C346 H341 0.930 . S
C346 C344 1.378 . S
C346 C345 1.342 1_545 S
C347 C343 1.415 1_565 S
C347 C345 1.414 . S
C347 C377 1.437 . S
H348 C377 0.929 . S
N349 Gd322 2.570 . S
N349 C350 1.359 . S
N349 C353 1.309 1_655 S
C350 C343 1.422 . S
C350 N349 1.359 . S
C350 C352 1.421 1_545 S
C351 C352 1.422 . S
C351 C354 1.353 . S
C351 H378 0.931 . S
C352 C350 1.421 1_565 S
C352 C351 1.422 . S
C352 C376 1.417 . S
C353 H330 0.969 . S
C353 N349 1.309 1_455 S
C353 C354 1.367 1_445 S
C354 H332 0.923 1_655 S
C354 C351 1.353 . S
C354 C353 1.367 1_665 S
O355 Gd323 2.386 1_545 S
O355 C367 1.265 . S
O356 Gd322 2.353 1_455 S
O356 C367 1.242 . S
O357 Gd322 2.446 1_455 S
O357 C375 1.211 1_455 S
O358 Gd322 2.427 . S
O358 C375 1.252 . S
O359 Gd323 2.300 1_645 S
O359 C368 1.267 . S
O360 Gd322 2.388 . S
O360 C368 1.252 . S
O361 Gd322 2.386 1_565 S
O361 C379 1.265 . S
O362 Gd323 2.353 . S
O362 C379 1.242 1_455 S
O363 Gd323 2.468 . S
O363 C387 1.263 . S
O364 Gd323 2.427 . S
O364 C387 1.252 . S
O365 Gd322 2.307 1_455 S
O365 C380 1.261 . S
O366 Gd323 2.388 . S
O366 C380 1.252 1_565 S
C367 O355 1.265 . S
C367 O356 1.242 . S
C368 O359 1.267 . S
C368 O360 1.252 . S
C369 C372 1.394 . S
C369 C374 1.393 . S
C369 C375 1.500 . S
C370 C373 1.383 . S
C370 C374 1.399 . S
C371 C372 1.396 . S
C371 C373 1.365 . S
C371 H388 0.929 . S
C372 C369 1.394 . S
C372 C371 1.396 . S
C372 H389 0.930 . S
C373 C370 1.383 . S
C373 C371 1.365 . S
C373 H390 0.931 . S
C374 C369 1.393 . S
C374 C370 1.399 . S
C374 H391 0.904 1_655 S
C375 Gd322 2.805 . S
C375 O357 1.211 1_655 S
C375 O358 1.252 . S
C375 C369 1.500 . S
C376 H338 0.930 . S
C376 C352 1.417 . S
C376 C377 1.329 . S
C377 C347 1.437 . S
C377 H348 0.929 . S
C377 C376 1.329 . S
H378 C351 0.931 . S
C379 O361 1.265 . S
C379 O362 1.242 1_655 S
C380 O365 1.261 . S
C380 O366 1.252 1_545 S
C381 C384 1.394 . S
C381 C386 1.370 . S
C381 C387 1.500 . S
C382 C385 1.383 . S
C382 C386 1.395 . S
C383 C384 1.396 . S
C383 C385 1.365 . S
C383 H392 0.929 . S
C384 C381 1.394 . S
C384 C383 1.396 . S
C384 H393 0.930 . S
C385 C382 1.383 . S
C385 C383 1.365 . S
C385 H394 0.931 . S
C386 C381 1.370 . S
C386 C382 1.395 . S
C386 H395 0.987 . S
C387 Gd323 2.805 . S
C387 O363 1.263 . S
C387 O364 1.252 . S
C387 C381 1.500 . S
H388 C371 0.929 . S
H389 C372 0.930 . S
H390 C373 0.931 . S
H391 C374 0.904 1_455 S
H392 C383 0.929 . S
H393 C384 0.930 . S
H394 C385 0.931 . S
H395 C386 0.987 . S
C396 C398 1.422 . S
C396 C400 1.415 . S
C396 N402 1.369 . S
C397 C398 1.421 . S
C397 C399 1.417 . S
C397 C409 1.422 . S
C398 C396 1.422 . S
C398 C397 1.421 . S
C398 N408 1.359 . S
C399 C397 1.417 . S
C399 C401 1.329 . S
C399 H418 0.930 . S
C400 C396 1.415 . S
C400 C401 1.437 . S
C400 C404 1.413 . S
C401 C399 1.329 . S
C401 C400 1.437 . S
C401 H423 0.929 . S
N402 C396 1.369 . S
N402 C403 1.338 . S
N402 Gd407 2.622 . S
C403 N402 1.338 . S
C403 C405 1.378 . S
C403 H415 0.929 . S
C404 C400 1.413 . S
C404 C405 1.348 . S
C404 H420 0.931 . S
C405 C403 1.378 . S
C405 C404 1.348 . S
C405 H421 0.930 . S
Gd406 N426 2.622 . S
Gd406 N433 2.570 . S
Gd406 O440 2.353 1_545 S
Gd406 O441 2.468 . S
Gd406 O442 2.427 . S
Gd406 O444 2.388 . S
Gd406 O445 2.386 . S
Gd406 O449 2.307 . S
Gd406 C459 2.805 . S
Gd407 N402 2.622 . S
Gd407 N408 2.570 . S
Gd407 O439 2.386 . S
Gd407 O443 2.307 1_565 S
Gd407 O446 2.353 1_565 S
Gd407 O447 2.468 . S
Gd407 O448 2.427 . S
Gd407 O450 2.388 . S
Gd407 C471 2.805 . S
N408 C398 1.359 . S
N408 Gd407 2.570 . S
N408 C410 1.343 . S
C409 C397 1.422 . S
C409 C411 1.321 . S
C409 H417 0.931 . S
C410 N408 1.343 . S
C410 C411 1.390 . S
C410 H412 0.931 . S
C411 C409 1.321 . S
C411 C410 1.390 . S
C411 H413 0.930 . S
H412 C410 0.931 . S
H413 C411 0.930 . S
H414 C437 0.931 . S
H415 C403 0.929 . S
H416 C438 0.930 . S
H417 C409 0.931 . S
H418 C399 0.930 . S
H419 C428 0.929 . S
H420 C404 0.931 . S
H421 C405 0.930 . S
H422 C460 0.930 . S
H423 C401 0.929 . S
H424 C429 0.931 . S
H425 C430 0.930 . S
N426 Gd406 2.622 . S
N426 C427 1.369 . S
N426 C428 1.338 . S
C427 N426 1.369 . S
C427 C431 1.415 . S
C427 C434 1.422 . S
C428 H419 0.929 . S
C428 N426 1.338 . S
C428 C430 1.378 . S
C429 H424 0.931 . S
C429 C430 1.348 . S
C429 C431 1.413 . S
C430 H425 0.930 . S
C430 C428 1.378 . S
C430 C429 1.348 . S
C431 C427 1.415 . S
C431 C429 1.413 . S
C431 C461 1.437 . S
H432 C461 0.929 . S
N433 Gd406 2.570 . S
N433 C434 1.359 . S
N433 C437 1.343 . S
C434 C427 1.422 . S
C434 N433 1.359 . S
C434 C436 1.421 . S
C435 C436 1.422 . S
C435 C438 1.321 . S
C435 H462 0.931 . S
C436 C434 1.421 . S
C436 C435 1.422 . S
C436 C460 1.417 . S
C437 H414 0.931 . S
C437 N433 1.343 . S
C437 C438 1.390 . S
C438 H416 0.930 . S
C438 C435 1.321 . S
C438 C437 1.390 . S
O439 Gd407 2.386 . S
O439 C451 1.265 . S
O440 Gd406 2.353 1_565 S
O440 C451 1.242 . S
O441 Gd406 2.468 . S
O441 C459 1.263 . S
O442 Gd406 2.427 . S
O442 C459 1.252 . S
O443 Gd407 2.307 1_545 S
O443 C452 1.261 . S
O444 Gd406 2.388 . S
O444 C452 1.252 . S
O445 Gd406 2.386 . S
O445 C463 1.265 . S
O446 Gd407 2.353 1_545 S
O446 C463 1.242 . S
O447 Gd407 2.468 . S
O447 C471 1.263 . S
O448 Gd407 2.427 . S
O448 C471 1.252 . S
O449 Gd406 2.307 . S
O449 C464 1.261 1_545 S
O450 Gd407 2.388 . S
O450 C464 1.252 . S
C451 O439 1.265 . S
C451 O440 1.242 . S
C452 O443 1.261 . S
C452 O444 1.252 . S
C453 C456 1.394 . S
C453 C458 1.370 . S
C453 C459 1.500 . S
C454 C457 1.383 . S
C454 C458 1.395 . S
C455 C456 1.396 . S
C455 C457 1.365 . S
C455 H472 0.929 . S
C456 C453 1.394 . S
C456 C455 1.396 . S
C456 H473 0.930 . S
C457 C454 1.383 . S
C457 C455 1.365 . S
C457 H474 0.931 . S
C458 C453 1.370 . S
C458 C454 1.395 . S
C458 H475 0.930 . S
C459 Gd406 2.805 . S
C459 O441 1.263 . S
C459 O442 1.252 . S
C459 C453 1.500 . S
C460 H422 0.930 . S
C460 C436 1.417 . S
C460 C461 1.329 . S
C461 C431 1.437 . S
C461 H432 0.929 . S
C461 C460 1.329 . S
H462 C435 0.931 . S
C463 O445 1.265 . S
C463 O446 1.242 . S
C464 O449 1.261 1_565 S
C464 O450 1.252 . S
C465 C468 1.394 . S
C465 C470 1.370 1_565 S
C465 C471 1.500 . S
C466 C469 1.383 1_545 S
C466 C470 1.395 . S
C467 C468 1.396 . S
C467 C469 1.365 . S
C467 H476 0.929 . S
C468 C465 1.394 . S
C468 C467 1.396 . S
C468 H477 0.930 . S
C469 C466 1.383 1_565 S
C469 C467 1.365 . S
C469 H478 0.931 . S
C470 C465 1.370 1_545 S
C470 C466 1.395 . S
C470 H479 0.930 . S
C471 Gd407 2.805 . S
C471 O447 1.263 . S
C471 O448 1.252 . S
C471 C465 1.500 . S
H472 C455 0.929 . S
H473 C456 0.930 . S
H474 C457 0.931 . S
H475 C458 0.930 . S
H476 C467 0.929 . S
H477 C468 0.930 . S
H478 C469 0.931 . S
H479 C470 0.930 . S
C480 C482 1.422 . S
C480 C484 1.415 . S
C480 N486 1.369 . S
C481 C482 1.421 . S
C481 C483 1.417 . S
C481 C493 1.422 . S
C482 C480 1.422 . S
C482 C481 1.421 . S
C482 N492 1.359 . S
C483 C481 1.417 . S
C483 C485 1.329 . S
C483 H502 0.930 . S
C484 C480 1.415 . S
C484 C485 1.437 . S
C484 C488 1.413 . S
C485 C483 1.329 . S
C485 C484 1.437 . S
C485 H507 0.929 . S
N486 C480 1.369 . S
N486 C487 1.338 . S
N486 Gd491 2.622 . S
C487 N486 1.338 . S
C487 C489 1.378 . S
C487 H499 0.929 . S
C488 C484 1.413 . S
C488 C489 1.348 . S
C488 H504 0.931 . S
C489 C487 1.378 . S
C489 C488 1.348 . S
C489 H505 0.930 . S
Gd490 N510 2.622 . S
Gd490 N517 2.570 . S
Gd490 O524 2.353 . S
Gd490 O525 2.468 . S
Gd490 O526 2.427 . S
Gd490 O528 2.388 . S
Gd490 O529 2.386 . S
Gd490 O533 2.307 . S
Gd490 C543 2.805 . S
Gd491 N486 2.622 . S
Gd491 N492 2.570 . S
Gd491 O523 2.386 . S
Gd491 O527 2.307 . S
Gd491 O530 2.353 . S
Gd491 O531 2.468 . S
Gd491 O532 2.427 . S
Gd491 O534 2.388 . S
Gd491 C555 2.805 . S
N492 C482 1.359 . S
N492 Gd491 2.570 . S
N492 C494 1.343 . S
C493 C481 1.422 . S
C493 C495 1.321 . S
C493 H501 0.931 . S
C494 N492 1.343 . S
C494 C495 1.390 . S
C494 H496 0.931 . S
C495 C493 1.321 . S
C495 C494 1.390 . S
C495 H497 0.930 . S
H496 C494 0.931 . S
H497 C495 0.930 . S
H498 C521 0.931 . S
H499 C487 0.929 . S
H500 C522 0.930 . S
H501 C493 0.931 . S
H502 C483 0.930 . S
H503 C512 0.929 . S
H504 C488 0.931 . S
H505 C489 0.930 . S
H506 C544 0.930 . S
H507 C485 0.929 . S
H508 C513 0.931 . S
H509 C514 0.930 . S
N510 Gd490 2.622 . S
N510 C511 1.369 . S
N510 C512 1.338 . S
C511 N510 1.369 . S
C511 C515 1.415 . S
C511 C518 1.422 . S
C512 H503 0.929 . S
C512 N510 1.338 . S
C512 C514 1.378 . S
C513 H508 0.931 . S
C513 C514 1.348 . S
C513 C515 1.413 . S
C514 H509 0.930 . S
C514 C512 1.378 . S
C514 C513 1.348 . S
C515 C511 1.415 . S
C515 C513 1.413 . S
C515 C545 1.437 . S
H516 C545 0.929 . S
N517 Gd490 2.570 . S
N517 C518 1.359 . S
N517 C521 1.343 . S
C518 C511 1.422 . S
C518 N517 1.359 . S
C518 C520 1.421 . S
C519 C520 1.422 . S
C519 C522 1.321 . S
C519 H546 0.931 . S
C520 C518 1.421 . S
C520 C519 1.422 . S
C520 C544 1.417 . S
C521 H498 0.931 . S
C521 N517 1.343 . S
C521 C522 1.390 . S
C522 H500 0.930 . S
C522 C519 1.321 . S
C522 C521 1.390 . S
O523 Gd491 2.386 . S
O523 C535 1.265 . S
O524 Gd490 2.353 . S
O524 C535 1.242 . S
O525 Gd490 2.468 . S
O525 C543 1.263 . S
O526 Gd490 2.427 . S
O526 C543 1.252 . S
O527 Gd491 2.307 . S
O527 C536 1.261 . S
O528 Gd490 2.388 . S
O528 C536 1.252 . S
O529 Gd490 2.386 . S
O529 C547 1.265 . S
O530 Gd491 2.353 . S
O530 C547 1.242 . S
O531 Gd491 2.468 . S
O531 C555 1.263 . S
O532 Gd491 2.427 . S
O532 C555 1.252 . S
O533 Gd490 2.307 . S
O533 C548 1.261 . S
O534 Gd491 2.388 . S
O534 C548 1.252 . S
C535 O523 1.265 . S
C535 O524 1.242 . S
C536 O527 1.261 . S
C536 O528 1.252 . S
C537 C540 1.394 . S
C537 C542 1.370 . S
C537 C543 1.500 . S
C538 C541 1.383 . S
C538 C542 1.395 . S
C539 C540 1.396 . S
C539 C541 1.365 . S
C539 H556 0.929 . S
C540 C537 1.394 . S
C540 C539 1.396 . S
C540 H557 0.930 . S
C541 C538 1.383 . S
C541 C539 1.365 . S
C541 H558 0.931 . S
C542 C537 1.370 . S
C542 C538 1.395 . S
C542 H559 0.930 . S
C543 Gd490 2.805 . S
C543 O525 1.263 . S
C543 O526 1.252 . S
C543 C537 1.500 . S
C544 H506 0.930 . S
C544 C520 1.417 . S
C544 C545 1.329 . S
C545 C515 1.437 . S
C545 H516 0.929 . S
C545 C544 1.329 . S
H546 C519 0.931 . S
C547 O529 1.265 . S
C547 O530 1.242 . S
C548 O533 1.261 . S
C548 O534 1.252 . S
C549 C552 1.394 . S
C549 C554 1.370 . S
C549 C555 1.500 . S
C550 C553 1.383 . S
C550 C554 1.395 . S
C551 C552 1.396 . S
C551 C553 1.365 . S
C551 H560 0.929 . S
C552 C549 1.394 . S
C552 C551 1.396 . S
C552 H561 0.930 . S
C553 C550 1.383 . S
C553 C551 1.365 . S
C553 H562 0.931 . S
C554 C549 1.370 . S
C554 C550 1.395 . S
C554 H563 0.930 . S
C555 Gd491 2.805 . S
C555 O531 1.263 . S
C555 O532 1.252 . S
C555 C549 1.500 . S
H556 C539 0.929 . S
H557 C540 0.930 . S
H558 C541 0.931 . S
H559 C542 0.930 . S
H560 C551 0.929 . S
H561 C552 0.930 . S
H562 C553 0.931 . S
H563 C554 0.930 . S
C564 C566 1.422 . S
C564 C568 1.415 . S
C564 N570 1.369 1_455 S
C565 C566 1.421 . S
C565 C567 1.417 . S
C565 C577 1.422 . S
C566 C564 1.422 . S
C566 C565 1.421 . S
C566 N576 1.359 . S
C567 C565 1.417 . S
C567 C569 1.329 . S
C567 H586 0.930 . S
C568 C564 1.415 . S
C568 C569 1.437 . S
C568 C572 1.413 . S
C569 C567 1.329 . S
C569 C568 1.437 . S
C569 H591 0.929 . S
N570 C564 1.369 1_655 S
N570 C571 1.338 . S
N570 Gd575 2.622 . S
C571 N570 1.338 . S
C571 C573 1.378 1_655 S
C571 H583 0.929 . S
C572 C568 1.413 . S
C572 C573 1.348 . S
C572 H588 0.931 . S
C573 C571 1.378 1_455 S
C573 C572 1.348 . S
C573 H589 0.930 . S
Gd574 N594 2.622 . S
Gd574 N601 2.570 . S
Gd574 O608 2.353 . S
Gd574 O609 2.468 . S
Gd574 O610 2.427 . S
Gd574 O612 2.388 . S
Gd574 O613 2.386 1_455 S
Gd574 O617 2.307 . S
Gd574 C627 2.805 . S
Gd575 N570 2.622 . S
Gd575 N576 2.570 1_655 S
Gd575 O607 2.386 1_655 S
Gd575 O611 2.293 1_655 S
Gd575 O614 2.353 . S
Gd575 O615 2.468 . S
Gd575 O616 2.427 . S
Gd575 O618 2.388 . S
Gd575 C639 2.805 . S
N576 C566 1.359 . S
N576 Gd575 2.570 1_455 S
N576 C578 1.343 . S
C577 C565 1.422 . S
C577 C579 1.321 . S
C577 H585 0.931 . S
C578 N576 1.343 . S
C578 C579 1.390 . S
C578 H580 0.918 1_455 S
C579 C577 1.321 . S
C579 C578 1.390 . S
C579 H581 0.930 . S
H580 C578 0.918 1_655 S
H581 C579 0.930 . S
H582 C605 0.931 . S
H583 C571 0.929 . S
H584 C606 0.931 . S
H585 C577 0.931 . S
H586 C567 0.930 . S
H587 C596 0.929 . S
H588 C572 0.931 . S
H589 C573 0.930 . S
H590 C628 0.930 . S
H591 C569 0.929 . S
H592 C597 0.931 1_655 S
H593 C598 0.930 . S
N594 Gd574 2.622 . S
N594 C595 1.369 . S
N594 C596 1.338 . S
C595 N594 1.369 . S
C595 C599 1.412 1_455 S
C595 C602 1.422 . S
C596 H587 0.929 . S
C596 N594 1.338 . S
C596 C598 1.378 . S
C597 H592 0.931 1_455 S
C597 C598 1.348 . S
C597 C599 1.412 1_455 S
C598 H593 0.930 . S
C598 C596 1.378 . S
C598 C597 1.348 . S
C599 C595 1.412 1_655 S
C599 C597 1.412 1_655 S
C599 C629 1.441 . S
H600 C629 0.929 . S
N601 Gd574 2.570 . S
N601 C602 1.359 . S
N601 C605 1.343 . S
C602 C595 1.422 . S
C602 N601 1.359 . S
C602 C604 1.421 1_455 S
C603 C604 1.422 . S
C603 C606 1.325 . S
C603 H630 0.931 . S
C604 C602 1.421 1_655 S
C604 C603 1.422 . S
C604 C628 1.417 . S
C605 H582 0.931 . S
C605 N601 1.343 . S
C605 C606 1.386 1_455 S
C606 H584 0.931 . S
C606 C603 1.325 . S
C606 C605 1.386 1_655 S
O607 Gd575 2.386 1_455 S
O607 C619 1.265 . S
O608 Gd574 2.353 . S
O608 C619 1.242 . S
O609 Gd574 2.468 . S
O609 C627 1.263 . S
O610 Gd574 2.427 . S
O610 C627 1.252 . S
O611 Gd575 2.293 1_455 S
O611 C620 1.273 . S
O612 Gd574 2.388 . S
O612 C620 1.252 . S
O613 Gd574 2.386 1_655 S
O613 C631 1.265 . S
O614 Gd575 2.353 . S
O614 C631 1.242 . S
O615 Gd575 2.468 . S
O615 C639 1.263 . S
O616 Gd575 2.427 . S
O616 C639 1.252 . S
O617 Gd574 2.307 . S
O617 C632 1.261 . S
O618 Gd575 2.388 . S
O618 C632 1.252 1_655 S
C619 O607 1.265 . S
C619 O608 1.242 . S
C620 O611 1.273 . S
C620 O612 1.252 . S
C621 C624 1.394 . S
C621 C626 1.370 . S
C621 C627 1.500 . S
C622 C625 1.383 . S
C622 C626 1.395 . S
C623 C624 1.396 . S
C623 C625 1.365 . S
C623 H640 0.929 . S
C624 C621 1.394 . S
C624 C623 1.396 . S
C624 H641 0.930 . S
C625 C622 1.383 . S
C625 C623 1.365 . S
C625 H642 0.931 . S
C626 C621 1.370 . S
C626 C622 1.395 . S
C626 H643 0.930 . S
C627 Gd574 2.805 . S
C627 O609 1.263 . S
C627 O610 1.252 . S
C627 C621 1.500 . S
C628 H590 0.930 . S
C628 C604 1.417 . S
C628 C629 1.329 . S
C629 C599 1.441 . S
C629 H600 0.929 . S
C629 C628 1.329 . S
H630 C603 0.931 . S
C631 O613 1.265 . S
C631 O614 1.242 . S
C632 O617 1.261 . S
C632 O618 1.252 1_455 S
C633 C636 1.394 . S
C633 C638 1.370 . S
C633 C639 1.500 . S
C634 C637 1.383 . S
C634 C638 1.395 . S
C635 C636 1.396 . S
C635 C637 1.365 . S
C635 H644 0.929 . S
C636 C633 1.394 . S
C636 C635 1.396 . S
C636 H645 0.930 . S
C637 C634 1.383 . S
C637 C635 1.365 . S
C637 H646 0.931 . S
C638 C633 1.370 . S
C638 C634 1.395 . S
C638 H647 0.930 . S
C639 Gd575 2.805 . S
C639 O615 1.263 . S
C639 O616 1.252 . S
C639 C633 1.500 . S
H640 C623 0.929 . S
H641 C624 0.930 . S
H642 C625 0.931 . S
H643 C626 0.930 . S
H644 C635 0.929 . S
H645 C636 0.930 . S
H646 C637 0.931 . S
H647 C638 0.930 . S
H648 C656 0.929 . S
H649 C658 0.930 . S
H650 C660 0.930 . S
H651 C663 0.929 . S
H652 C666 0.930 . S
H653 C668 0.960 . S
H654 C668 0.960 . S
H655 C668 0.960 . S
C656 H648 0.929 . S
C656 C657 1.377 . S
C656 C658 1.384 . S
C657 C656 1.377 . S
C657 C663 1.390 . S
C658 H649 0.930 . S
C658 C656 1.384 . S
C658 C659 1.372 . S
C659 C658 1.372 . S
C659 C660 1.400 . S
C659 C664 1.490 . S
C660 H650 0.930 . S
C660 C659 1.400 . S
C660 C663 1.386 . S
H661 C677 0.930 . S
H662 C678 0.931 . S
C663 H651 0.929 . S
C663 C657 1.390 . S
C663 C660 1.386 . S
C664 C659 1.490 . S
C664 C666 1.395 . S
C664 C667 1.403 . S
H665 C671 0.930 . S
C666 H652 0.930 . S
C666 C664 1.395 . S
C666 C669 1.403 . S
C667 C664 1.403 . S
C667 C668 1.524 . S
C667 C671 1.400 . S
C668 H653 0.960 . S
C668 H654 0.960 . S
C668 H655 0.960 . S
C668 C667 1.524 . S
C669 C666 1.403 . S
C669 C670 1.392 . S
C669 C673 1.495 . S
C670 C669 1.392 . S
C670 C671 1.385 . S
C670 C672 1.478 . S
C671 H665 0.930 . S
C671 C667 1.400 . S
C671 C670 1.385 . S
C672 C670 1.478 . S
C672 C674 1.381 . S
C672 C678 1.383 . S
C673 C669 1.495 . S
C673 H679 0.959 . S
C673 H680 0.961 . S
C673 H681 0.960 . S
C674 C672 1.381 . S
C674 C675 1.401 . S
C674 H682 0.930 1_545 S
C675 C674 1.401 . S
C675 C676 1.410 . S
C675 H683 0.896 1_545 S
C676 C675 1.410 . S
C676 C677 1.377 . S
C677 H661 0.930 . S
C677 C676 1.377 . S
C677 C678 1.379 . S
C678 H662 0.931 . S
C678 C672 1.383 . S
C678 C677 1.379 . S
H679 C673 0.959 . S
H680 C673 0.961 . S
H681 C673 0.960 . S
H682 C674 0.930 1_565 S
H683 C675 0.896 1_565 S
H684 C692 0.929 . S
H685 C694 0.930 . S
H686 C696 0.930 . S
H687 C699 0.929 . S
H688 C702 0.930 . S
H689 C704 0.960 . S
H690 C704 0.960 . S
H691 C704 0.960 . S
C692 H684 0.929 . S
C692 C693 1.377 . S
C692 C694 1.384 . S
C693 C692 1.377 . S
C693 C699 1.390 . S
C694 H685 0.930 . S
C694 C692 1.384 . S
C694 C695 1.372 . S
C695 C694 1.372 . S
C695 C696 1.400 . S
C695 C700 1.490 . S
C696 H686 0.930 . S
C696 C695 1.400 . S
C696 C699 1.386 . S
H697 C713 0.930 . S
H698 C714 0.931 . S
C699 H687 0.929 . S
C699 C693 1.390 . S
C699 C696 1.386 . S
C700 C695 1.490 . S
C700 C702 1.395 . S
C700 C703 1.403 . S
H701 C707 0.930 . S
C702 H688 0.930 . S
C702 C700 1.395 . S
C702 C705 1.403 . S
C703 C700 1.403 . S
C703 C704 1.524 . S
C703 C707 1.400 . S
C704 H689 0.960 . S
C704 H690 0.960 . S
C704 H691 0.960 . S
C704 C703 1.524 . S
C705 C702 1.403 . S
C705 C706 1.392 . S
C705 C709 1.495 . S
C706 C705 1.392 . S
C706 C707 1.385 . S
C706 C708 1.478 . S
C707 H701 0.930 . S
C707 C703 1.400 . S
C707 C706 1.385 . S
C708 C706 1.478 . S
C708 C710 1.381 . S
C708 C714 1.383 . S
C709 C705 1.495 . S
C709 H715 0.959 . S
C709 H716 0.961 . S
C709 H717 0.960 . S
C710 C708 1.381 . S
C710 C711 1.394 . S
C710 H718 0.930 . S
C711 C710 1.394 . S
C711 C712 1.383 . S
C711 H719 0.929 . S
C712 C711 1.383 . S
C712 C713 1.377 . S
C713 H697 0.930 . S
C713 C712 1.377 . S
C713 C714 1.379 . S
C714 H698 0.931 . S
C714 C708 1.383 . S
C714 C713 1.379 . S
H715 C709 0.959 . S
H716 C709 0.961 . S
H717 C709 0.960 . S
H718 C710 0.930 . S
H719 C711 0.929 . S
H720 C728 0.929 . S
H721 C730 0.930 . S
H722 C732 0.930 . S
H723 C735 0.929 . S
H724 C738 0.930 . S
H725 C740 0.960 . S
H726 C740 0.960 . S
H727 C740 0.960 . S
C728 H720 0.929 . S
C728 C729 1.377 . S
C728 C730 1.384 . S
C729 C728 1.377 . S
C729 C735 1.390 . S
C730 H721 0.930 . S
C730 C728 1.384 . S
C730 C731 1.372 . S
C731 C730 1.372 . S
C731 C732 1.400 . S
C731 C736 1.490 . S
C732 H722 0.930 . S
C732 C731 1.400 . S
C732 C735 1.386 . S
H733 C749 0.930 . S
H734 C750 0.931 . S
C735 H723 0.929 . S
C735 C729 1.390 . S
C735 C732 1.386 . S
C736 C731 1.490 . S
C736 C738 1.395 . S
C736 C739 1.403 . S
H737 C743 0.930 . S
C738 H724 0.930 . S
C738 C736 1.395 . S
C738 C741 1.403 . S
C739 C736 1.403 . S
C739 C740 1.524 . S
C739 C743 1.400 . S
C740 H725 0.960 . S
C740 H726 0.960 . S
C740 H727 0.960 . S
C740 C739 1.524 . S
C741 C738 1.403 . S
C741 C742 1.392 . S
C741 C745 1.495 . S
C742 C741 1.392 . S
C742 C743 1.385 . S
C742 C744 1.478 . S
C743 H737 0.930 . S
C743 C739 1.400 . S
C743 C742 1.385 . S
C744 C742 1.478 . S
C744 C746 1.381 . S
C744 C750 1.383 . S
C745 C741 1.495 . S
C745 H751 0.959 . S
C745 H752 0.961 . S
C745 H753 0.960 . S
C746 C744 1.381 . S
C746 C747 1.394 . S
C746 H754 0.930 . S
C747 C746 1.394 . S
C747 C748 1.383 . S
C747 H755 0.929 . S
C748 C747 1.383 . S
C748 C749 1.377 . S
C749 H733 0.930 . S
C749 C748 1.377 . S
C749 C750 1.379 . S
C750 H734 0.931 . S
C750 C744 1.383 . S
C750 C749 1.379 . S
H751 C745 0.959 . S
H752 C745 0.961 . S
H753 C745 0.960 . S
H754 C746 0.930 . S
H755 C747 0.929 . S
H756 C764 0.929 . S
H757 C766 0.930 . S
H758 C768 0.930 . S
H759 C771 0.929 . S
H760 C774 0.930 . S
H761 C776 0.960 . S
H762 C776 0.960 . S
H763 C776 0.960 . S
C764 H756 0.929 . S
C764 C765 1.377 . S
C764 C766 1.384 . S
C765 C764 1.377 . S
C765 C771 1.390 . S
C766 H757 0.930 . S
C766 C764 1.384 . S
C766 C767 1.372 . S
C767 C766 1.372 . S
C767 C768 1.400 . S
C767 C772 1.490 . S
C768 H758 0.930 . S
C768 C767 1.400 . S
C768 C771 1.386 . S
H769 C785 0.930 . S
H770 C786 0.931 . S
C771 H759 0.929 . S
C771 C765 1.390 . S
C771 C768 1.386 . S
C772 C767 1.490 . S
C772 C774 1.395 . S
C772 C775 1.403 . S
H773 C779 0.930 . S
C774 H760 0.930 . S
C774 C772 1.395 . S
C774 C777 1.403 . S
C775 C772 1.403 . S
C775 C776 1.524 . S
C775 C779 1.400 . S
C776 H761 0.960 . S
C776 H762 0.960 . S
C776 H763 0.960 . S
C776 C775 1.524 . S
C777 C774 1.403 . S
C777 C778 1.392 . S
C777 C781 1.495 1_455 S
C778 C777 1.392 . S
C778 C779 1.385 . S
C778 C780 1.478 . S
C779 H773 0.930 . S
C779 C775 1.400 . S
C779 C778 1.385 . S
C780 C778 1.478 . S
C780 C782 1.381 . S
C780 C786 1.383 . S
C781 C777 1.495 1_655 S
C781 H787 0.959 . S
C781 H788 0.961 . S
C781 H789 0.960 . S
C782 C780 1.381 . S
C782 C783 1.394 . S
C782 H790 0.930 . S
C783 C782 1.394 . S
C783 C784 1.383 . S
C783 H791 0.929 . S
C784 C783 1.383 . S
C784 C785 1.377 . S
C785 H769 0.930 . S
C785 C784 1.377 . S
C785 C786 1.379 . S
C786 H770 0.931 . S
C786 C780 1.383 . S
C786 C785 1.379 . S
H787 C781 0.959 . S
H788 C781 0.961 . S
H789 C781 0.960 . S
H790 C782 0.930 . S
H791 C783 0.929 . S
H792 C800 0.929 . S
H793 C802 0.930 . S
H794 C804 0.930 . S
H795 C807 0.929 . S
H796 C810 0.930 . S
H797 C812 0.960 . S
H798 C812 0.960 . S
H799 C812 0.960 1_554 S
C800 H792 0.929 . S
C800 C801 1.377 . S
C800 C802 1.384 1_554 S
C801 C800 1.377 . S
C801 C807 1.390 . S
C802 H793 0.930 . S
C802 C800 1.384 1_556 S
C802 C803 1.372 . S
C803 C802 1.372 . S
C803 C804 1.400 1_556 S
C803 C808 1.490 . S
C804 H794 0.930 . S
C804 C803 1.400 1_554 S
C804 C807 1.386 . S
H805 C821 0.930 . S
H806 C822 0.931 . S
C807 H795 0.929 . S
C807 C801 1.390 . S
C807 C804 1.386 . S
C808 C803 1.490 . S
C808 C810 1.395 . S
C808 C811 1.403 . S
H809 C815 0.930 . S
C810 H796 0.930 . S
C810 C808 1.395 . S
C810 C813 1.403 . S
C811 C808 1.403 . S
C811 C812 1.524 . S
C811 C815 1.400 . S
C812 H797 0.960 . S
C812 H798 0.960 . S
C812 H799 0.960 1_556 S
C812 C811 1.524 . S
C813 C810 1.403 . S
C813 C814 1.392 . S
C813 C817 1.495 . S
C814 C813 1.392 . S
C814 C815 1.385 . S
C814 C816 1.478 . S
C815 H809 0.930 . S
C815 C811 1.400 . S
C815 C814 1.385 . S
C816 C814 1.478 . S
C816 C818 1.381 . S
C816 C822 1.383 1_565 S
C817 C813 1.495 . S
C817 H823 0.959 . S
C817 H824 0.961 1_565 S
C817 H825 0.960 . S
C818 C816 1.381 . S
C818 C819 1.394 . S
C818 H826 0.930 . S
C819 C818 1.394 . S
C819 C820 1.383 . S
C819 H827 0.929 . S
C820 C819 1.383 . S
C820 C821 1.377 1_565 S
C821 H805 0.930 . S
C821 C820 1.377 1_545 S
C821 C822 1.379 . S
C822 H806 0.931 . S
C822 C816 1.383 1_545 S
C822 C821 1.379 . S
H823 C817 0.959 . S
H824 C817 0.961 1_545 S
H825 C817 0.960 . S
H826 C818 0.930 . S
H827 C819 0.929 . S
H828 C836 0.929 . S
H829 C838 0.930 1_556 S
H830 C840 0.930 . S
H831 C843 0.929 . S
H832 C846 0.930 . S
H833 C848 0.960 . S
H834 C848 0.960 1_554 S
H835 C848 0.960 1_554 S
C836 H828 0.929 . S
C836 C837 1.377 . S
C836 C838 1.384 . S
C837 C836 1.377 . S
C837 C843 1.390 . S
C838 H829 0.930 1_554 S
C838 C836 1.384 . S
C838 C839 1.372 1_554 S
C839 C838 1.372 1_556 S
C839 C840 1.400 1_556 S
C839 C844 1.490 . S
C840 H830 0.930 . S
C840 C839 1.400 1_554 S
C840 C843 1.386 . S
H841 C857 0.930 . S
H842 C858 0.931 . S
C843 H831 0.929 . S
C843 C837 1.390 . S
C843 C840 1.386 . S
C844 C839 1.490 . S
C844 C846 1.395 . S
C844 C847 1.403 . S
H845 C851 0.930 . S
C846 H832 0.930 . S
C846 C844 1.395 . S
C846 C849 1.403 . S
C847 C844 1.403 . S
C847 C848 1.524 . S
C847 C851 1.400 . S
C848 H833 0.960 . S
C848 H834 0.960 1_556 S
C848 H835 0.960 1_556 S
C848 C847 1.524 . S
C849 C846 1.403 . S
C849 C850 1.392 . S
C849 C853 1.495 . S
C850 C849 1.392 . S
C850 C851 1.385 . S
C850 C852 1.478 . S
C851 H845 0.930 . S
C851 C847 1.400 . S
C851 C850 1.385 . S
C852 C850 1.478 . S
C852 C854 1.381 . S
C852 C858 1.383 . S
C853 C849 1.495 . S
C853 H859 0.959 . S
C853 H860 0.961 . S
C853 H861 0.960 . S
C854 C852 1.381 . S
C854 C855 1.394 . S
C854 H862 0.930 . S
C855 C854 1.394 . S
C855 C856 1.383 . S
C855 H863 0.929 . S
C856 C855 1.383 . S
C856 C857 1.377 . S
C857 H841 0.930 . S
C857 C856 1.377 . S
C857 C858 1.379 . S
C858 H842 0.931 . S
C858 C852 1.383 . S
C858 C857 1.379 . S
H859 C853 0.959 . S
H860 C853 0.961 . S
H861 C853 0.960 . S
H862 C854 0.930 . S
H863 C855 0.929 . S
H864 C872 0.929 . S
H865 C874 0.930 1_556 S
H866 C876 0.930 . S
H867 C879 0.929 . S
H868 C882 0.930 . S
H869 C884 0.960 . S
H870 C884 0.960 1_554 S
H871 C884 0.960 1_554 S
C872 H864 0.929 . S
C872 C873 1.377 . S
C872 C874 1.384 . S
C873 C872 1.377 . S
C873 C879 1.390 . S
C874 H865 0.930 1_554 S
C874 C872 1.384 . S
C874 C875 1.372 1_554 S
C875 C874 1.372 1_556 S
C875 C876 1.400 1_556 S
C875 C880 1.490 . S
C876 H866 0.930 . S
C876 C875 1.400 1_554 S
C876 C879 1.386 . S
H877 C893 0.930 . S
H878 C894 0.931 . S
C879 H867 0.929 . S
C879 C873 1.390 . S
C879 C876 1.386 . S
C880 C875 1.490 . S
C880 C882 1.395 . S
C880 C883 1.403 . S
H881 C887 0.930 . S
C882 H868 0.930 . S
C882 C880 1.395 . S
C882 C885 1.403 . S
C883 C880 1.403 . S
C883 C884 1.524 . S
C883 C887 1.400 . S
C884 H869 0.960 . S
C884 H870 0.960 1_556 S
C884 H871 0.960 1_556 S
C884 C883 1.524 . S
C885 C882 1.403 . S
C885 C886 1.392 . S
C885 C889 1.495 . S
C886 C885 1.392 . S
C886 C887 1.385 . S
C886 C888 1.478 . S
C887 H881 0.930 . S
C887 C883 1.400 . S
C887 C886 1.385 . S
C888 C886 1.478 . S
C888 C890 1.381 . S
C888 C894 1.383 . S
C889 C885 1.495 . S
C889 H895 0.959 . S
C889 H896 0.961 . S
C889 H897 0.960 . S
C890 C888 1.381 . S
C890 C891 1.394 . S
C890 H898 0.930 . S
C891 C890 1.394 . S
C891 C892 1.383 . S
C891 H899 0.929 . S
C892 C891 1.383 . S
C892 C893 1.377 . S
C893 H877 0.930 . S
C893 C892 1.377 . S
C893 C894 1.379 . S
C894 H878 0.931 . S
C894 C888 1.383 . S
C894 C893 1.379 . S
H895 C889 0.959 . S
H896 C889 0.961 . S
H897 C889 0.960 . S
H898 C890 0.930 . S
H899 C891 0.929 . S
H900 C908 0.929 . S
H901 C910 0.930 . S
H902 C912 0.930 . S
H903 C915 0.929 . S
H904 C918 0.930 . S
H905 C920 0.960 . S
H906 C920 0.960 . S
H907 C920 0.960 . S
C908 H900 0.929 . S
C908 C909 1.377 . S
C908 C910 1.384 1_554 S
C909 C908 1.377 . S
C909 C915 1.390 . S
C910 H901 0.930 . S
C910 C908 1.384 1_556 S
C910 C911 1.372 . S
C911 C910 1.372 . S
C911 C912 1.400 1_556 S
C911 C916 1.490 . S
C912 H902 0.930 . S
C912 C911 1.400 1_554 S
C912 C915 1.386 . S
H913 C929 0.930 . S
H914 C930 0.931 . S
C915 H903 0.929 . S
C915 C909 1.390 . S
C915 C912 1.386 . S
C916 C911 1.490 . S
C916 C918 1.395 . S
C916 C919 1.403 . S
H917 C923 0.930 . S
C918 H904 0.930 . S
C918 C916 1.395 . S
C918 C921 1.403 . S
C919 C916 1.403 . S
C919 C920 1.524 . S
C919 C923 1.400 . S
C920 H905 0.960 . S
C920 H906 0.960 . S
C920 H907 0.960 . S
C920 C919 1.524 . S
C921 C918 1.403 . S
C921 C922 1.392 . S
C921 C925 1.495 1_655 S
C922 C921 1.392 . S
C922 C923 1.385 . S
C922 C924 1.478 . S
C923 H917 0.930 . S
C923 C919 1.400 . S
C923 C922 1.385 . S
C924 C922 1.478 . S
C924 C926 1.381 . S
C924 C930 1.383 1_655 S
C925 C921 1.495 1_455 S
C925 H931 0.959 . S
C925 H932 0.961 . S
C925 H933 0.960 . S
C926 C924 1.381 . S
C926 C927 1.394 . S
C926 H934 0.930 . S
C927 C926 1.394 . S
C927 C928 1.383 . S
C927 H935 0.929 . S
C928 C927 1.383 . S
C928 C929 1.377 1_655 S
C929 H913 0.930 . S
C929 C928 1.377 1_455 S
C929 C930 1.379 . S
C930 H914 0.931 . S
C930 C924 1.383 1_455 S
C930 C929 1.379 . S
H931 C925 0.959 . S
H932 C925 0.961 . S
H933 C925 0.960 . S
H934 C926 0.930 . S
H935 C927 0.929 . S
H936 C944 0.929 . S
H937 C946 0.930 . S
H938 C948 0.930 . S
H939 C951 0.929 . S
H940 C954 0.930 . S
H941 C956 0.960 . S
H942 C956 0.960 . S
H943 C956 0.960 . S
C944 H936 0.929 . S
C944 C945 1.377 . S
C944 C946 1.384 . S
C945 C944 1.377 . S
C945 C951 1.390 . S
C946 H937 0.930 . S
C946 C944 1.384 . S
C946 C947 1.372 . S
C947 C946 1.372 . S
C947 C948 1.400 . S
C947 C952 1.490 . S
C948 H938 0.930 . S
C948 C947 1.400 . S
C948 C951 1.386 . S
H949 C965 0.930 . S
H950 C966 0.931 . S
C951 H939 0.929 . S
C951 C945 1.390 . S
C951 C948 1.386 . S
C952 C947 1.490 . S
C952 C954 1.395 . S
C952 C955 1.403 . S
H953 C959 0.930 . S
C954 H940 0.930 . S
C954 C952 1.395 . S
C954 C957 1.403 . S
C955 C952 1.403 . S
C955 C956 1.524 . S
C955 C959 1.400 . S
C956 H941 0.960 . S
C956 H942 0.960 . S
C956 H943 0.960 . S
C956 C955 1.524 . S
C957 C954 1.403 . S
C957 C958 1.392 . S
C957 C961 1.495 . S
C958 C957 1.392 . S
C958 C959 1.385 . S
C958 C960 1.478 . S
C959 H953 0.930 . S
C959 C955 1.400 . S
C959 C958 1.385 . S
C960 C958 1.478 . S
C960 C962 1.381 . S
C960 C966 1.383 . S
C961 C957 1.495 . S
C961 H967 0.959 . S
C961 H968 0.961 . S
C961 H969 0.960 . S
C962 C960 1.381 . S
C962 C963 1.394 1_455 S
C962 H970 0.930 1_455 S
C963 C962 1.394 1_655 S
C963 C964 1.383 1_655 S
C963 H971 0.929 . S
C964 C963 1.383 1_455 S
C964 C965 1.377 . S
C965 H949 0.930 . S
C965 C964 1.377 . S
C965 C966 1.379 . S
C966 H950 0.931 . S
C966 C960 1.383 . S
C966 C965 1.379 . S
H967 C961 0.959 . S
H968 C961 0.961 . S
H969 C961 0.960 . S
H970 C962 0.930 1_655 S
H971 C963 0.929 . S
H972 C980 0.929 . S
H973 C982 0.930 . S
H974 C984 0.930 . S
H975 C987 0.929 . S
H976 C990 0.930 . S
H977 C992 0.960 . S
H978 C992 0.960 . S
H979 C992 0.960 . S
C980 H972 0.929 . S
C980 C981 1.377 . S
C980 C982 1.384 . S
C981 C980 1.377 . S
C981 C987 1.390 . S
C982 H973 0.930 . S
C982 C980 1.384 . S
C982 C983 1.372 . S
C983 C982 1.372 . S
C983 C984 1.400 . S
C983 C988 1.490 . S
C984 H974 0.930 . S
C984 C983 1.400 . S
C984 C987 1.386 . S
H985 C1001 0.930 . S
H986 C1002 0.931 . S
C987 H975 0.929 . S
C987 C981 1.390 . S
C987 C984 1.386 . S
C988 C983 1.490 . S
C988 C990 1.395 . S
C988 C991 1.403 . S
H989 C995 0.930 . S
C990 H976 0.930 . S
C990 C988 1.395 . S
C990 C993 1.403 . S
C991 C988 1.403 . S
C991 C992 1.524 . S
C991 C995 1.400 . S
C992 H977 0.960 . S
C992 H978 0.960 . S
C992 H979 0.960 . S
C992 C991 1.524 . S
C993 C990 1.403 . S
C993 C994 1.392 . S
C993 C997 1.495 . S
C994 C993 1.392 . S
C994 C995 1.385 . S
C994 C996 1.478 . S
C995 H989 0.930 . S
C995 C991 1.400 . S
C995 C994 1.385 . S
C996 C994 1.478 . S
C996 C998 1.381 1_545 S
C996 C1002 1.383 . S
C997 C993 1.495 . S
C997 H1003 0.959 . S
C997 H1004 0.961 . S
C997 H1005 0.960 . S
C998 C996 1.381 1_565 S
C998 C999 1.394 . S
C998 H1006 0.930 . S
C999 C998 1.394 . S
C999 C1000 1.383 1_565 S
C999 H1007 0.929 . S
C1000 C999 1.383 1_545 S
C1000 C1001 1.377 . S
C1001 H985 0.930 . S
C1001 C1000 1.377 . S
C1001 C1002 1.379 . S
C1002 H986 0.931 . S
C1002 C996 1.383 . S
C1002 C1001 1.379 . S
H1003 C997 0.959 . S
H1004 C997 0.961 . S
H1005 C997 0.960 . S
H1006 C998 0.930 . S
H1007 C999 0.929 . S
H1008 C1016 0.929 . S
H1009 C1018 0.930 . S
H1010 C1020 0.930 . S
H1011 C1023 0.929 . S
H1012 C1026 0.930 . S
H1013 C1028 0.960 . S
H1014 C1028 0.960 . S
H1015 C1028 0.960 . S
C1016 H1008 0.929 . S
C1016 C1017 1.377 . S
C1016 C1018 1.384 . S
C1017 C1016 1.377 . S
C1017 C1023 1.390 . S
C1018 H1009 0.930 . S
C1018 C1016 1.384 . S
C1018 C1019 1.372 . S
C1019 C1018 1.372 . S
C1019 C1020 1.400 . S
C1019 C1024 1.490 . S
C1020 H1010 0.930 . S
C1020 C1019 1.400 . S
C1020 C1023 1.386 . S
H1021 C1037 0.930 . S
H1022 C1038 0.931 . S
C1023 H1011 0.929 . S
C1023 C1017 1.390 . S
C1023 C1020 1.386 . S
C1024 C1019 1.490 . S
C1024 C1026 1.395 . S
C1024 C1027 1.403 . S
H1025 C1031 0.930 . S
C1026 H1012 0.930 . S
C1026 C1024 1.395 . S
C1026 C1029 1.403 . S
C1027 C1024 1.403 . S
C1027 C1028 1.524 . S
C1027 C1031 1.400 . S
C1028 H1013 0.960 . S
C1028 H1014 0.960 . S
C1028 H1015 0.960 . S
C1028 C1027 1.524 . S
C1029 C1026 1.403 . S
C1029 C1030 1.392 . S
C1029 C1033 1.495 . S
C1030 C1029 1.392 . S
C1030 C1031 1.385 . S
C1030 C1032 1.478 . S
C1031 H1025 0.930 . S
C1031 C1027 1.400 . S
C1031 C1030 1.385 . S
C1032 C1030 1.478 . S
C1032 C1034 1.381 . S
C1032 C1038 1.383 . S
C1033 C1029 1.495 . S
C1033 H1039 0.959 . S
C1033 H1040 0.961 . S
C1033 H1041 0.960 . S
C1034 C1032 1.381 . S
C1034 C1035 1.394 . S
C1034 H1042 0.930 . S
C1035 C1034 1.394 . S
C1035 C1036 1.383 . S
C1035 H1043 0.929 . S
C1036 C1035 1.383 . S
C1036 C1037 1.377 . S
C1037 H1021 0.930 . S
C1037 C1036 1.377 . S
C1037 C1038 1.379 . S
C1038 H1022 0.931 . S
C1038 C1032 1.383 . S
C1038 C1037 1.379 . S
H1039 C1033 0.959 . S
H1040 C1033 0.961 . S
H1041 C1033 0.960 . S
H1042 C1034 0.930 . S
H1043 C1035 0.929 . S
H1044 C1052 0.929 . S
H1045 C1054 0.930 . S
H1046 C1056 0.930 . S
H1047 C1059 0.929 . S
H1048 C1062 0.930 . S
H1049 C1064 0.960 . S
H1050 C1064 0.960 . S
H1051 C1064 0.960 . S
C1052 H1044 0.929 . S
C1052 C1053 1.377 . S
C1052 C1054 1.384 . S
C1053 C1052 1.377 . S
C1053 C1059 1.390 . S
C1054 H1045 0.930 . S
C1054 C1052 1.384 . S
C1054 C1055 1.372 . S
C1055 C1054 1.372 . S
C1055 C1056 1.400 . S
C1055 C1060 1.490 . S
C1056 H1046 0.930 . S
C1056 C1055 1.400 . S
C1056 C1059 1.386 . S
H1057 C1073 0.930 . S
H1058 C1074 0.931 . S
C1059 H1047 0.929 . S
C1059 C1053 1.390 . S
C1059 C1056 1.386 . S
C1060 C1055 1.490 . S
C1060 C1062 1.395 . S
C1060 C1063 1.403 . S
H1061 C1067 0.930 . S
C1062 H1048 0.930 . S
C1062 C1060 1.395 . S
C1062 C1065 1.403 . S
C1063 C1060 1.403 . S
C1063 C1064 1.524 . S
C1063 C1067 1.400 . S
C1064 H1049 0.960 . S
C1064 H1050 0.960 . S
C1064 H1051 0.960 . S
C1064 C1063 1.524 . S
C1065 C1062 1.403 . S
C1065 C1066 1.392 . S
C1065 C1069 1.495 . S
C1066 C1065 1.392 . S
C1066 C1067 1.385 . S
C1066 C1068 1.478 . S
C1067 H1061 0.930 . S
C1067 C1063 1.400 . S
C1067 C1066 1.385 . S
C1068 C1066 1.478 . S
C1068 C1070 1.381 . S
C1068 C1074 1.383 . S
C1069 C1065 1.495 . S
C1069 H1075 0.959 . S
C1069 H1076 0.961 . S
C1069 H1077 0.960 . S
C1070 C1068 1.381 . S
C1070 C1071 1.394 . S
C1070 H1078 0.930 . S
C1071 C1070 1.394 . S
C1071 C1072 1.383 . S
C1071 H1079 0.929 . S
C1072 C1071 1.383 . S
C1072 C1073 1.377 . S
C1073 H1057 0.930 . S
C1073 C1072 1.377 . S
C1073 C1074 1.379 . S
C1074 H1058 0.931 . S
C1074 C1068 1.383 . S
C1074 C1073 1.379 . S
H1075 C1069 0.959 . S
H1076 C1069 0.961 . S
H1077 C1069 0.960 . S
H1078 C1070 0.930 . S
H1079 C1071 0.929 . S
H1080 C1088 0.929 . S
H1081 C1090 0.943 . S
H1082 C1092 0.930 . S
H1083 C1095 0.925 1_554 S
H1084 C1098 0.930 . S
H1085 C1100 0.960 . S
H1086 C1100 0.960 1_554 S
H1087 C1100 0.960 . S
C1088 H1080 0.929 . S
C1088 C1089 1.377 . S
C1088 C1090 1.384 1_554 S
C1089 C1088 1.377 . S
C1089 C1095 1.384 1_554 S
C1090 H1081 0.943 . S
C1090 C1088 1.384 1_556 S
C1090 C1091 1.372 . S
C1091 C1090 1.372 . S
C1091 C1092 1.400 . S
C1091 C1096 1.490 . S
C1092 H1082 0.930 . S
C1092 C1091 1.400 . S
C1092 C1095 1.396 . S
H1093 C1109 0.930 . S
H1094 C1110 0.931 . S
C1095 H1083 0.925 1_556 S
C1095 C1089 1.384 1_556 S
C1095 C1092 1.396 . S
C1096 C1091 1.490 . S
C1096 C1098 1.395 . S
C1096 C1099 1.403 . S
H1097 C1103 0.930 . S
C1098 H1084 0.930 . S
C1098 C1096 1.395 . S
C1098 C1101 1.403 . S
C1099 C1096 1.403 . S
C1099 C1100 1.524 . S
C1099 C1103 1.400 . S
C1100 H1085 0.960 . S
C1100 H1086 0.960 1_556 S
C1100 H1087 0.960 . S
C1100 C1099 1.524 . S
C1101 C1098 1.403 . S
C1101 C1102 1.392 . S
C1101 C1105 1.495 1_655 S
C1102 C1101 1.392 . S
C1102 C1103 1.385 . S
C1102 C1104 1.478 . S
C1103 H1097 0.930 . S
C1103 C1099 1.400 . S
C1103 C1102 1.385 . S
C1104 C1102 1.478 . S
C1104 C1106 1.381 1_655 S
C1104 C1110 1.383 . S
C1105 C1101 1.495 1_455 S
C1105 H1111 0.959 . S
C1105 H1112 0.961 1_455 S
C1105 H1113 0.960 . S
C1106 C1104 1.381 1_455 S
C1106 C1107 1.394 . S
C1106 H1114 0.930 . S
C1107 C1106 1.394 . S
C1107 C1108 1.383 . S
C1107 H1115 0.929 . S
C1108 C1107 1.383 . S
C1108 C1109 1.377 1_455 S
C1109 H1093 0.930 . S
C1109 C1108 1.377 1_655 S
C1109 C1110 1.379 . S
C1110 H1094 0.931 . S
C1110 C1104 1.383 . S
C1110 C1109 1.379 . S
H1111 C1105 0.959 . S
H1112 C1105 0.961 1_655 S
H1113 C1105 0.960 . S
H1114 C1106 0.930 . S
H1115 C1107 0.929 . S
H1116 C1124 0.929 . S
H1117 C1126 0.930 . S
H1118 C1128 0.930 1_554 S
H1119 C1131 0.929 . S
H1120 C1134 0.930 . S
H1121 C1136 0.940 1_545 S
H1122 C1136 0.961 1_545 S
H1123 C1136 0.963 . S
C1124 H1116 0.929 . S
C1124 C1125 1.377 1_556 S
C1124 C1126 1.384 . S
C1125 C1124 1.377 1_554 S
C1125 C1131 1.390 . S
C1126 H1117 0.930 . S
C1126 C1124 1.384 . S
C1126 C1127 1.372 . S
C1127 C1126 1.372 . S
C1127 C1128 1.400 . S
C1127 C1132 1.490 . S
C1128 H1118 0.930 1_556 S
C1128 C1127 1.400 . S
C1128 C1131 1.386 1_556 S
H1129 C1145 0.930 . S
H1130 C1146 0.931 . S
C1131 H1119 0.929 . S
C1131 C1125 1.390 . S
C1131 C1128 1.386 1_554 S
C1132 C1127 1.490 . S
C1132 C1134 1.395 . S
C1132 C1135 1.403 . S
H1133 C1139 0.956 . S
C1134 H1120 0.930 . S
C1134 C1132 1.395 . S
C1134 C1137 1.403 . S
C1135 C1132 1.403 . S
C1135 C1136 1.519 1_556 S
C1135 C1139 1.400 . S
C1136 H1121 0.940 1_565 S
C1136 H1122 0.961 1_565 S
C1136 H1123 0.963 . S
C1136 C1135 1.519 1_554 S
C1137 C1134 1.403 . S
C1137 C1138 1.392 . S
C1137 C1141 1.495 . S
C1138 C1137 1.392 . S
C1138 C1139 1.385 . S
C1138 C1140 1.478 . S
C1139 H1133 0.956 . S
C1139 C1135 1.400 . S
C1139 C1138 1.385 . S
C1140 C1138 1.478 . S
C1140 C1142 1.381 1_565 S
C1140 C1146 1.383 . S
C1141 C1137 1.495 . S
C1141 H1147 0.959 . S
C1141 H1148 0.961 . S
C1141 H1149 0.960 . S
C1142 C1140 1.381 1_545 S
C1142 C1143 1.394 . S
C1142 H1150 0.930 . S
C1143 C1142 1.394 . S
C1143 C1144 1.383 . S
C1143 H1151 0.929 . S
C1144 C1143 1.383 . S
C1144 C1145 1.377 1_545 S
C1145 H1129 0.930 . S
C1145 C1144 1.377 1_565 S
C1145 C1146 1.379 . S
C1146 H1130 0.931 . S
C1146 C1140 1.383 . S
C1146 C1145 1.379 . S
H1147 C1141 0.959 . S
H1148 C1141 0.961 . S
H1149 C1141 0.960 . S
H1150 C1142 0.930 . S
H1151 C1143 0.929 . S
H1152 C1160 0.929 . S
H1153 C1162 0.930 . S
H1154 C1164 0.930 1_554 S
H1155 C1167 0.929 . S
H1156 C1170 0.930 . S
H1157 C1172 0.960 . S
H1158 C1172 0.960 . S
H1159 C1172 0.960 . S
C1160 H1152 0.929 . S
C1160 C1161 1.377 1_556 S
C1160 C1162 1.384 . S
C1161 C1160 1.377 1_554 S
C1161 C1167 1.390 . S
C1162 H1153 0.930 . S
C1162 C1160 1.384 . S
C1162 C1163 1.372 . S
C1163 C1162 1.372 . S
C1163 C1164 1.400 . S
C1163 C1168 1.490 . S
C1164 H1154 0.930 1_556 S
C1164 C1163 1.400 . S
C1164 C1167 1.386 1_556 S
H1165 C1181 0.930 . S
H1166 C1182 0.931 . S
C1167 H1155 0.929 . S
C1167 C1161 1.390 . S
C1167 C1164 1.386 1_554 S
C1168 C1163 1.490 . S
C1168 C1170 1.395 . S
C1168 C1171 1.403 . S
H1169 C1175 0.930 . S
C1170 H1156 0.930 . S
C1170 C1168 1.395 . S
C1170 C1173 1.403 . S
C1171 C1168 1.403 . S
C1171 C1172 1.524 1_556 S
C1171 C1175 1.400 . S
C1172 H1157 0.960 . S
C1172 H1158 0.960 . S
C1172 H1159 0.960 . S
C1172 C1171 1.524 1_554 S
C1173 C1170 1.403 . S
C1173 C1174 1.392 . S
C1173 C1177 1.495 . S
C1174 C1173 1.392 . S
C1174 C1175 1.385 . S
C1174 C1176 1.478 . S
C1175 H1169 0.930 . S
C1175 C1171 1.400 . S
C1175 C1174 1.385 . S
C1176 C1174 1.478 . S
C1176 C1178 1.381 . S
C1176 C1182 1.383 . S
C1177 C1173 1.495 . S
C1177 H1183 0.959 . S
C1177 H1184 0.961 . S
C1177 H1185 0.960 . S
C1178 C1176 1.381 . S
C1178 C1179 1.394 . S
C1178 H1186 0.930 . S
C1179 C1178 1.394 . S
C1179 C1180 1.383 . S
C1179 H1187 0.929 . S
C1180 C1179 1.383 . S
C1180 C1181 1.377 . S
C1181 H1165 0.930 . S
C1181 C1180 1.377 . S
C1181 C1182 1.379 . S
C1182 H1166 0.931 . S
C1182 C1176 1.383 . S
C1182 C1181 1.379 . S
H1183 C1177 0.959 . S
H1184 C1177 0.961 . S
H1185 C1177 0.960 . S
H1186 C1178 0.930 . S
H1187 C1179 0.929 . S
H1188 C1196 0.929 . S
H1189 C1198 0.930 . S
H1190 C1200 0.930 . S
H1191 C1203 0.929 . S
H1192 C1206 0.930 . S
H1193 C1208 0.960 . S
H1194 C1208 0.960 1_554 S
H1195 C1208 0.959 1_554 S
C1196 H1188 0.929 . S
C1196 C1197 1.377 . S
C1196 C1198 1.384 1_554 S
C1197 C1196 1.377 . S
C1197 C1203 1.390 . S
C1198 H1189 0.930 . S
C1198 C1196 1.384 1_556 S
C1198 C1199 1.372 . S
C1199 C1198 1.372 . S
C1199 C1200 1.400 . S
C1199 C1204 1.490 . S
C1200 H1190 0.930 . S
C1200 C1199 1.400 . S
C1200 C1203 1.386 1_556 S
H1201 C1217 0.930 . S
H1202 C1218 0.931 . S
C1203 H1191 0.929 . S
C1203 C1197 1.390 . S
C1203 C1200 1.386 1_554 S
C1204 C1199 1.490 . S
C1204 C1206 1.395 . S
C1204 C1207 1.403 . S
H1205 C1211 0.930 . S
C1206 H1192 0.930 . S
C1206 C1204 1.395 . S
C1206 C1209 1.403 . S
C1207 C1204 1.403 . S
C1207 C1208 1.524 . S
C1207 C1211 1.400 . S
C1208 H1193 0.960 . S
C1208 H1194 0.960 1_556 S
C1208 H1195 0.959 1_556 S
C1208 C1207 1.524 . S
C1209 C1206 1.403 . S
C1209 C1210 1.392 . S
C1209 C1213 1.495 . S
C1210 C1209 1.392 . S
C1210 C1211 1.385 . S
C1210 C1212 1.478 . S
C1211 H1205 0.930 . S
C1211 C1207 1.400 . S
C1211 C1210 1.385 . S
C1212 C1210 1.478 . S
C1212 C1214 1.381 . S
C1212 C1218 1.383 . S
C1213 C1209 1.495 . S
C1213 H1219 0.959 . S
C1213 H1220 0.961 . S
C1213 H1221 0.960 . S
C1214 C1212 1.381 . S
C1214 C1215 1.394 . S
C1214 H1222 0.930 . S
C1215 C1214 1.394 . S
C1215 C1216 1.383 . S
C1215 H1223 0.929 . S
C1216 C1215 1.383 . S
C1216 C1217 1.377 . S
C1217 H1201 0.930 . S
C1217 C1216 1.377 . S
C1217 C1218 1.379 . S
C1218 H1202 0.931 . S
C1218 C1212 1.383 . S
C1218 C1217 1.379 . S
H1219 C1213 0.959 . S
H1220 C1213 0.961 . S
H1221 C1213 0.960 . S
H1222 C1214 0.930 . S
H1223 C1215 0.929 . S
H1224 C1232 0.929 . S
H1225 C1234 0.930 . S
H1226 C1236 0.930 . S
H1227 C1239 0.929 . S
H1228 C1242 0.930 . S
H1229 C1244 0.960 . S
H1230 C1244 0.960 . S
H1231 C1244 0.960 . S
C1232 H1224 0.929 . S
C1232 C1233 1.377 . S
C1232 C1234 1.384 . S
C1233 C1232 1.377 . S
C1233 C1239 1.390 . S
C1234 H1225 0.930 . S
C1234 C1232 1.384 . S
C1234 C1235 1.372 . S
C1235 C1234 1.372 . S
C1235 C1236 1.400 . S
C1235 C1240 1.490 . S
C1236 H1226 0.930 . S
C1236 C1235 1.400 . S
C1236 C1239 1.386 . S
H1237 C1253 0.930 . S
H1238 C1254 0.931 . S
C1239 H1227 0.929 . S
C1239 C1233 1.390 . S
C1239 C1236 1.386 . S
C1240 C1235 1.490 . S
C1240 C1242 1.395 . S
C1240 C1243 1.403 . S
H1241 C1247 0.930 . S
C1242 H1228 0.930 . S
C1242 C1240 1.395 . S
C1242 C1245 1.403 . S
C1243 C1240 1.403 . S
C1243 C1244 1.524 . S
C1243 C1247 1.400 . S
C1244 H1229 0.960 . S
C1244 H1230 0.960 . S
C1244 H1231 0.960 . S
C1244 C1243 1.524 . S
C1245 C1242 1.403 . S
C1245 C1246 1.392 . S
C1245 C1249 1.495 . S
C1246 C1245 1.392 . S
C1246 C1247 1.385 . S
C1246 C1248 1.478 . S
C1247 H1241 0.930 . S
C1247 C1243 1.400 . S
C1247 C1246 1.385 . S
C1248 C1246 1.478 . S
C1248 C1250 1.381 . S
C1248 C1254 1.383 . S
C1249 C1245 1.495 . S
C1249 H1255 0.959 1_455 S
C1249 H1256 0.961 . S
C1249 H1257 0.960 1_455 S
C1250 C1248 1.381 . S
C1250 C1251 1.394 . S
C1250 H1258 0.930 1_455 S
C1251 C1250 1.394 . S
C1251 C1252 1.383 . S
C1251 H1259 0.929 1_455 S
C1252 C1251 1.383 . S
C1252 C1253 1.377 . S
C1253 H1237 0.930 . S
C1253 C1252 1.377 . S
C1253 C1254 1.379 . S
C1254 H1238 0.931 . S
C1254 C1248 1.383 . S
C1254 C1253 1.379 . S
H1255 C1249 0.959 1_655 S
H1256 C1249 0.961 . S
H1257 C1249 0.960 1_655 S
H1258 C1250 0.930 1_655 S
H1259 C1251 0.929 1_655 S
H1260 C1268 0.929 . S
H1261 C1270 0.930 . S
H1262 C1272 0.930 . S
H1263 C1275 0.929 . S
H1264 C1278 0.930 . S
H1265 C1280 0.960 . S
H1266 C1280 0.960 . S
H1267 C1280 0.960 . S
C1268 H1260 0.929 . S
C1268 C1269 1.377 . S
C1268 C1270 1.384 . S
C1269 C1268 1.377 . S
C1269 C1275 1.390 . S
C1270 H1261 0.930 . S
C1270 C1268 1.384 . S
C1270 C1271 1.372 . S
C1271 C1270 1.372 . S
C1271 C1272 1.400 . S
C1271 C1276 1.490 . S
C1272 H1262 0.930 . S
C1272 C1271 1.400 . S
C1272 C1275 1.386 . S
H1273 C1289 0.930 . S
H1274 C1290 0.931 . S
C1275 H1263 0.929 . S
C1275 C1269 1.390 . S
C1275 C1272 1.386 . S
C1276 C1271 1.490 . S
C1276 C1278 1.395 . S
C1276 C1279 1.403 . S
H1277 C1283 0.930 . S
C1278 H1264 0.930 . S
C1278 C1276 1.395 . S
C1278 C1281 1.403 . S
C1279 C1276 1.403 . S
C1279 C1280 1.524 . S
C1279 C1283 1.400 . S
C1280 H1265 0.960 . S
C1280 H1266 0.960 . S
C1280 H1267 0.960 . S
C1280 C1279 1.524 . S
C1281 C1278 1.403 . S
C1281 C1282 1.392 . S
C1281 C1285 1.495 . S
C1282 C1281 1.392 . S
C1282 C1283 1.385 . S
C1282 C1284 1.478 . S
C1283 H1277 0.930 . S
C1283 C1279 1.400 . S
C1283 C1282 1.385 . S
C1284 C1282 1.478 . S
C1284 C1286 1.381 . S
C1284 C1290 1.383 . S
C1285 C1281 1.495 . S
C1285 H1291 0.959 . S
C1285 H1292 0.961 . S
C1285 H1293 0.960 1_545 S
C1286 C1284 1.381 . S
C1286 C1287 1.394 . S
C1286 H1294 0.930 1_545 S
C1287 C1286 1.394 . S
C1287 C1288 1.383 . S
C1287 H1295 0.929 1_545 S
C1288 C1287 1.383 . S
C1288 C1289 1.377 . S
C1289 H1273 0.930 . S
C1289 C1288 1.377 . S
C1289 C1290 1.379 . S
C1290 H1274 0.931 . S
C1290 C1284 1.383 . S
C1290 C1289 1.379 . S
H1291 C1285 0.959 . S
H1292 C1285 0.961 . S
H1293 C1285 0.960 1_565 S
H1294 C1286 0.930 1_565 S
H1295 C1287 0.929 1_565 S
H1296 C1304 0.929 . S
H1297 C1306 0.930 . S
H1298 C1308 0.930 . S
H1299 C1311 0.929 . S
H1300 C1314 0.930 . S
H1301 C1316 0.960 . S
H1302 C1316 0.960 . S
H1303 C1316 0.960 . S
C1304 H1296 0.929 . S
C1304 C1305 1.377 . S
C1304 C1306 1.384 . S
C1305 C1304 1.377 . S
C1305 C1311 1.390 . S
C1306 H1297 0.930 . S
C1306 C1304 1.384 . S
C1306 C1307 1.372 . S
C1307 C1306 1.372 . S
C1307 C1308 1.400 . S
C1307 C1312 1.490 . S
C1308 H1298 0.930 . S
C1308 C1307 1.400 . S
C1308 C1311 1.386 . S
H1309 C1325 0.930 . S
H1310 C1326 0.931 . S
C1311 H1299 0.929 . S
C1311 C1305 1.390 . S
C1311 C1308 1.386 . S
C1312 C1307 1.490 . S
C1312 C1314 1.395 . S
C1312 C1315 1.403 . S
H1313 C1319 0.930 . S
C1314 H1300 0.930 . S
C1314 C1312 1.395 . S
C1314 C1317 1.403 . S
C1315 C1312 1.403 . S
C1315 C1316 1.524 . S
C1315 C1319 1.400 . S
C1316 H1301 0.960 . S
C1316 H1302 0.960 . S
C1316 H1303 0.960 . S
C1316 C1315 1.524 . S
C1317 C1314 1.403 . S
C1317 C1318 1.392 . S
C1317 C1321 1.495 . S
C1318 C1317 1.392 . S
C1318 C1319 1.385 . S
C1318 C1320 1.478 . S
C1319 H1313 0.930 . S
C1319 C1315 1.400 . S
C1319 C1318 1.385 . S
C1320 C1318 1.478 . S
C1320 C1322 1.381 . S
C1320 C1326 1.383 . S
C1321 C1317 1.495 . S
C1321 H1327 0.959 . S
C1321 H1328 0.961 . S
C1321 H1329 0.960 . S
C1322 C1320 1.381 . S
C1322 C1323 1.394 . S
C1322 H1330 0.930 . S
C1323 C1322 1.394 . S
C1323 C1324 1.383 . S
C1323 H1331 0.929 . S
C1324 C1323 1.383 . S
C1324 C1325 1.377 . S
C1325 H1309 0.930 . S
C1325 C1324 1.377 . S
C1325 C1326 1.379 . S
C1326 H1310 0.931 . S
C1326 C1320 1.383 . S
C1326 C1325 1.379 . S
H1327 C1321 0.959 . S
H1328 C1321 0.961 . S
H1329 C1321 0.960 . S
H1330 C1322 0.930 . S
H1331 C1323 0.929 . S
H1332 C1340 0.929 . S
H1333 C1342 0.930 . S
H1334 C1344 0.930 . S
H1335 C1347 0.929 . S
H1336 C1350 0.930 . S
H1337 C1352 0.960 . S
H1338 C1352 0.960 . S
H1339 C1352 0.960 . S
C1340 H1332 0.929 . S
C1340 C1341 1.377 . S
C1340 C1342 1.384 . S
C1341 C1340 1.377 . S
C1341 C1347 1.390 . S
C1342 H1333 0.930 . S
C1342 C1340 1.384 . S
C1342 C1343 1.372 . S
C1343 C1342 1.372 . S
C1343 C1344 1.400 . S
C1343 C1348 1.490 . S
C1344 H1334 0.930 . S
C1344 C1343 1.400 . S
C1344 C1347 1.386 . S
H1345 C1361 0.930 . S
H1346 C1362 0.931 . S
C1347 H1335 0.929 . S
C1347 C1341 1.390 . S
C1347 C1344 1.386 . S
C1348 C1343 1.490 . S
C1348 C1350 1.395 . S
C1348 C1351 1.403 . S
H1349 C1355 0.930 . S
C1350 H1336 0.930 . S
C1350 C1348 1.395 . S
C1350 C1353 1.403 . S
C1351 C1348 1.403 . S
C1351 C1352 1.524 . S
C1351 C1355 1.400 . S
C1352 H1337 0.960 . S
C1352 H1338 0.960 . S
C1352 H1339 0.960 . S
C1352 C1351 1.524 . S
C1353 C1350 1.403 . S
C1353 C1354 1.392 . S
C1353 C1357 1.495 . S
C1354 C1353 1.392 . S
C1354 C1355 1.385 . S
C1354 C1356 1.478 . S
C1355 H1349 0.930 . S
C1355 C1351 1.400 . S
C1355 C1354 1.385 . S
C1356 C1354 1.478 . S
C1356 C1358 1.381 . S
C1356 C1362 1.383 . S
C1357 C1353 1.495 . S
C1357 H1363 0.959 . S
C1357 H1364 0.961 . S
C1357 H1365 0.960 . S
C1358 C1356 1.381 . S
C1358 C1359 1.394 . S
C1358 H1366 0.930 . S
C1359 C1358 1.394 . S
C1359 C1360 1.383 . S
C1359 H1367 0.929 . S
C1360 C1359 1.383 . S
C1360 C1361 1.377 . S
C1361 H1345 0.930 . S
C1361 C1360 1.377 . S
C1361 C1362 1.379 . S
C1362 H1346 0.931 . S
C1362 C1356 1.383 . S
C1362 C1361 1.379 . S
H1363 C1357 0.959 . S
H1364 C1357 0.961 . S
H1365 C1357 0.960 . S
H1366 C1358 0.930 . S
H1367 C1359 0.929 . S
H1368 C1376 0.929 . S
H1369 C1378 0.901 1_455 S
H1370 C1380 0.930 . S
H1371 C1383 0.929 . S
H1372 C1386 0.930 . S
H1373 C1388 0.960 . S
H1374 C1388 0.960 . S
H1375 C1388 0.960 . S
C1376 H1368 0.929 . S
C1376 C1377 1.377 . S
C1376 C1378 1.384 . S
C1377 C1376 1.377 . S
C1377 C1383 1.390 . S
C1378 H1369 0.901 1_655 S
C1378 C1376 1.384 . S
C1378 C1379 1.372 . S
C1379 C1378 1.372 . S
C1379 C1380 1.400 . S
C1379 C1384 1.490 . S
C1380 H1370 0.930 . S
C1380 C1379 1.400 . S
C1380 C1383 1.386 . S
H1381 C1397 0.930 . S
H1382 C1398 0.931 . S
C1383 H1371 0.929 . S
C1383 C1377 1.390 . S
C1383 C1380 1.386 . S
C1384 C1379 1.490 . S
C1384 C1386 1.395 . S
C1384 C1387 1.403 . S
H1385 C1391 0.930 . S
C1386 H1372 0.930 . S
C1386 C1384 1.395 . S
C1386 C1389 1.403 . S
C1387 C1384 1.403 . S
C1387 C1388 1.524 . S
C1387 C1391 1.400 . S
C1388 H1373 0.960 . S
C1388 H1374 0.960 . S
C1388 H1375 0.960 . S
C1388 C1387 1.524 . S
C1389 C1386 1.403 . S
C1389 C1390 1.392 . S
C1389 C1393 1.495 . S
C1390 C1389 1.392 . S
C1390 C1391 1.385 . S
C1390 C1392 1.478 . S
C1391 H1385 0.930 . S
C1391 C1387 1.400 . S
C1391 C1390 1.385 . S
C1392 C1390 1.478 . S
C1392 C1394 1.381 1_655 S
C1392 C1398 1.383 . S
C1393 C1389 1.495 . S
C1393 H1399 0.959 . S
C1393 H1400 0.961 . S
C1393 H1401 0.960 1_655 S
C1394 C1392 1.381 1_455 S
C1394 C1395 1.394 . S
C1394 H1402 0.930 . S
C1395 C1394 1.394 . S
C1395 C1396 1.383 1_455 S
C1395 H1403 0.929 . S
C1396 C1395 1.383 1_655 S
C1396 C1397 1.377 . S
C1397 H1381 0.930 . S
C1397 C1396 1.377 . S
C1397 C1398 1.379 . S
C1398 H1382 0.931 . S
C1398 C1392 1.383 . S
C1398 C1397 1.379 . S
H1399 C1393 0.959 . S
H1400 C1393 0.961 . S
H1401 C1393 0.960 1_455 S
H1402 C1394 0.930 . S
H1403 C1395 0.929 . S
H1404 C1412 0.929 . S
H1405 C1414 0.930 . S
H1406 C1416 0.930 . S
H1407 C1419 0.929 . S
H1408 C1422 0.930 1_545 S
H1409 C1424 0.960 . S
H1410 C1424 0.960 . S
H1411 C1424 0.960 . S
C1412 H1404 0.929 . S
C1412 C1413 1.377 . S
C1412 C1414 1.384 . S
C1413 C1412 1.377 . S
C1413 C1419 1.390 . S
C1414 H1405 0.930 . S
C1414 C1412 1.384 . S
C1414 C1415 1.372 . S
C1415 C1414 1.372 . S
C1415 C1416 1.400 . S
C1415 C1420 1.490 . S
C1416 H1406 0.930 . S
C1416 C1415 1.400 . S
C1416 C1419 1.386 . S
H1417 C1433 0.930 . S
H1418 C1434 0.931 . S
C1419 H1407 0.929 . S
C1419 C1413 1.390 . S
C1419 C1416 1.386 . S
C1420 C1415 1.490 . S
C1420 C1422 1.395 . S
C1420 C1423 1.403 . S
H1421 C1427 0.930 . S
C1422 H1408 0.930 1_565 S
C1422 C1420 1.395 . S
C1422 C1425 1.414 . S
C1423 C1420 1.403 . S
C1423 C1424 1.524 . S
C1423 C1427 1.400 . S
C1424 H1409 0.960 . S
C1424 H1410 0.960 . S
C1424 H1411 0.960 . S
C1424 C1423 1.524 . S
C1425 C1422 1.414 . S
C1425 C1426 1.421 . S
C1425 C1429 1.458 1_565 S
C1426 C1425 1.421 . S
C1426 C1427 1.385 . S
C1426 C1428 1.478 . S
C1427 H1421 0.930 . S
C1427 C1423 1.400 . S
C1427 C1426 1.385 . S
C1428 C1426 1.478 . S
C1428 C1430 1.413 . S
C1428 C1434 1.383 . S
C1429 C1425 1.458 1_545 S
C1429 H1435 0.959 . S
C1429 H1436 0.961 . S
C1429 H1437 0.960 . S
C1430 C1428 1.413 . S
C1430 C1431 1.387 1_565 S
C1430 H1438 0.906 1_565 S
C1431 C1430 1.387 1_545 S
C1431 C1432 1.358 1_545 S
C1431 H1439 0.962 . S
C1432 C1431 1.358 1_565 S
C1432 C1433 1.377 . S
C1433 H1417 0.930 . S
C1433 C1432 1.377 . S
C1433 C1434 1.379 . S
C1434 H1418 0.931 . S
C1434 C1428 1.383 . S
C1434 C1433 1.379 . S
H1435 C1429 0.959 . S
H1436 C1429 0.961 . S
H1437 C1429 0.960 . S
H1438 C1430 0.906 1_545 S
H1439 C1431 0.962 . S
H1440 C1448 0.929 . S
H1441 C1450 0.930 . S
H1442 C1452 0.930 . S
H1443 C1455 0.929 . S
H1444 C1458 0.930 . S
H1445 C1460 0.960 . S
H1446 C1460 0.960 . S
H1447 C1460 0.960 . S
C1448 H1440 0.929 . S
C1448 C1449 1.377 . S
C1448 C1450 1.384 . S
C1449 C1448 1.377 . S
C1449 C1455 1.390 . S
C1450 H1441 0.930 . S
C1450 C1448 1.384 . S
C1450 C1451 1.372 . S
C1451 C1450 1.372 . S
C1451 C1452 1.400 . S
C1451 C1456 1.490 . S
C1452 H1442 0.930 . S
C1452 C1451 1.400 . S
C1452 C1455 1.386 . S
H1453 C1469 0.930 . S
H1454 C1470 0.931 . S
C1455 H1443 0.929 . S
C1455 C1449 1.390 . S
C1455 C1452 1.386 . S
C1456 C1451 1.490 . S
C1456 C1458 1.395 . S
C1456 C1459 1.403 . S
H1457 C1463 0.930 . S
C1458 H1444 0.930 . S
C1458 C1456 1.395 . S
C1458 C1461 1.403 . S
C1459 C1456 1.403 . S
C1459 C1460 1.524 . S
C1459 C1463 1.400 . S
C1460 H1445 0.960 . S
C1460 H1446 0.960 . S
C1460 H1447 0.960 . S
C1460 C1459 1.524 . S
C1461 C1458 1.403 . S
C1461 C1462 1.392 . S
C1461 C1465 1.495 . S
C1462 C1461 1.392 . S
C1462 C1463 1.385 . S
C1462 C1464 1.478 . S
C1463 H1457 0.930 . S
C1463 C1459 1.400 . S
C1463 C1462 1.385 . S
C1464 C1462 1.478 . S
C1464 C1466 1.381 . S
C1464 C1470 1.383 . S
C1465 C1461 1.495 . S
C1465 H1471 0.959 . S
C1465 H1472 0.961 . S
C1465 H1473 0.960 . S
C1466 C1464 1.381 . S
C1466 C1467 1.394 . S
C1466 H1474 0.930 . S
C1467 C1466 1.394 . S
C1467 C1468 1.383 . S
C1467 H1475 0.929 . S
C1468 C1467 1.383 . S
C1468 C1469 1.377 . S
C1469 H1453 0.930 . S
C1469 C1468 1.377 . S
C1469 C1470 1.379 . S
C1470 H1454 0.931 . S
C1470 C1464 1.383 . S
C1470 C1469 1.379 . S
H1471 C1465 0.959 . S
H1472 C1465 0.961 . S
H1473 C1465 0.960 . S
H1474 C1466 0.930 . S
H1475 C1467 0.929 . S
H1476 C1484 0.929 . S
H1477 C1486 0.930 . S
H1478 C1488 0.930 . S
H1479 C1491 0.929 . S
H1480 C1494 0.930 . S
H1481 C1496 0.960 . S
H1482 C1496 0.960 . S
H1483 C1496 0.960 . S
C1484 H1476 0.929 . S
C1484 C1485 1.377 . S
C1484 C1486 1.384 . S
C1485 C1484 1.377 . S
C1485 C1491 1.390 . S
C1486 H1477 0.930 . S
C1486 C1484 1.384 . S
C1486 C1487 1.372 . S
C1487 C1486 1.372 . S
C1487 C1488 1.400 . S
C1487 C1492 1.490 . S
C1488 H1478 0.930 . S
C1488 C1487 1.400 . S
C1488 C1491 1.386 . S
H1489 C1505 0.930 . S
H1490 C1506 0.931 . S
C1491 H1479 0.929 . S
C1491 C1485 1.390 . S
C1491 C1488 1.386 . S
C1492 C1487 1.490 . S
C1492 C1494 1.395 . S
C1492 C1495 1.403 . S
H1493 C1499 0.930 . S
C1494 H1480 0.930 . S
C1494 C1492 1.395 . S
C1494 C1497 1.403 . S
C1495 C1492 1.403 . S
C1495 C1496 1.524 . S
C1495 C1499 1.400 . S
C1496 H1481 0.960 . S
C1496 H1482 0.960 . S
C1496 H1483 0.960 . S
C1496 C1495 1.524 . S
C1497 C1494 1.403 . S
C1497 C1498 1.392 . S
C1497 C1501 1.495 . S
C1498 C1497 1.392 . S
C1498 C1499 1.385 . S
C1498 C1500 1.478 . S
C1499 H1493 0.930 . S
C1499 C1495 1.400 . S
C1499 C1498 1.385 . S
C1500 C1498 1.478 . S
C1500 C1502 1.381 . S
C1500 C1506 1.383 . S
C1501 C1497 1.495 . S
C1501 H1507 0.959 . S
C1501 H1508 0.961 . S
C1501 H1509 0.960 . S
C1502 C1500 1.381 . S
C1502 C1503 1.394 . S
C1502 H1510 0.930 . S
C1503 C1502 1.394 . S
C1503 C1504 1.383 . S
C1503 H1511 0.929 . S
C1504 C1503 1.383 . S
C1504 C1505 1.377 . S
C1505 H1489 0.930 . S
C1505 C1504 1.377 . S
C1505 C1506 1.379 . S
C1506 H1490 0.931 . S
C1506 C1500 1.383 . S
C1506 C1505 1.379 . S
H1507 C1501 0.959 . S
H1508 C1501 0.961 . S
H1509 C1501 0.960 . S
H1510 C1502 0.930 . S
H1511 C1503 0.929 . S
C657 C255 2.088 . S
C676 C380 2.199 . S
C712 C463 2.230 . S
C693 C294 2.100 . S
C748 C548 2.191 . S
C729 C177 2.075 . S
C784 C632 2.158 . S
C765 C216 2.068 . S
C820 C368 2.197 1_565 S
C801 C99 2.096 . S
C837 C138 2.093 . S
C856 C451 2.225 . S
C873 C21 2.087 . S
C892 C536 2.192 . S
C909 C60 2.069 . S
C928 C620 2.166 1_655 S
C964 C370 0.518 1_455 S
C945 C196 0.296 . S
C1000 C466 0.430 . S
C981 C235 0.287 . S
C1036 C538 0.520 . S
C1017 C289 0.304 . S
C1053 C157 0.319 . S
C1072 C622 0.371 . S
C1089 C40 0.281 . S
C1108 C382 0.378 . S
C1144 C454 0.621 . S
C1125 C79 0.266 . S
C1180 C550 0.444 . S
C1161 C133 0.298 . S
C1197 C1 0.272 . S
C1216 C634 0.379 . S
C1233 C211 2.412 . S
C1252 C367 2.646 . S
C1269 C250 2.393 . S
C1288 C452 2.655 . S
C1324 C535 2.688 . S
C1305 C274 2.447 . S
C1360 C619 2.680 . S
C1341 C172 2.446 . S
C1377 C55 2.417 . S
C1396 C379 2.661 . S
C1432 C464 2.650 . S
C1413 C94 2.400 . S
C1468 C547 2.679 . S
C1449 C118 2.440 . S
C1485 C16 2.435 . S
C1504 C631 2.681 . S
