# Generated by pormake.
# Topology zzz, (3,6)-cn, num edge types: 1
# Building blocks:
#     Node 0, Type 0, BuildingBlock: ESEHIV_clean_linker_0, # of connection points: 3
#     Node 1, Type 0, BuildingBlock: ESEHIV_clean_linker_0, # of connection points: 3
#     Node 2, Type 0, BuildingBlock: ESEHIV_clean_linker_0, # of connection points: 3
#     Node 3, Type 0, BuildingBlock: ESEHIV_clean_linker_0, # of connection points: 3
#     Node 4, Type 0, BuildingBlock: ESEHIV_clean_linker_0, # of connection points: 3
#     Node 5, Type 0, BuildingBlock: ESEHIV_clean_linker_0, # of connection points: 3
#     Node 6, Type 0, BuildingBlock: ESEHIV_clean_linker_0, # of connection points: 3
#     Node 7, Type 0, BuildingBlock: ESEHIV_clean_linker_0, # of connection points: 3
#     Node 8, Type 1, BuildingBlock: JUFBIX_clean_sbu_0, # of connection points: 6
#     Node 9, Type 1, BuildingBlock: JUFBIX_clean_sbu_0, # of connection points: 6
#     Node 10, Type 1, BuildingBlock: JUFBIX_clean_sbu_0, # of connection points: 6
#     Node 11, Type 1, BuildingBlock: JUFBIX_clean_sbu_0, # of connection points: 6
#     Edge 12, Type (0, 1), BuildingBlock: EZIPEK_clean_linker_0, # of connection points: 2
#     Edge 13, Type (0, 1), BuildingBlock: EZIPEK_clean_linker_0, # of connection points: 2
#     Edge 14, Type (0, 1), BuildingBlock: EZIPEK_clean_linker_0, # of connection points: 2
#     Edge 15, Type (0, 1), BuildingBlock: EZIPEK_clean_linker_0, # of connection points: 2
#     Edge 16, Type (0, 1), BuildingBlock: EZIPEK_clean_linker_0, # of connection points: 2
#     Edge 17, Type (0, 1), BuildingBlock: EZIPEK_clean_linker_0, # of connection points: 2
#     Edge 18, Type (0, 1), BuildingBlock: EZIPEK_clean_linker_0, # of connection points: 2
#     Edge 19, Type (0, 1), BuildingBlock: EZIPEK_clean_linker_0, # of connection points: 2
#     Edge 20, Type (0, 1), BuildingBlock: EZIPEK_clean_linker_0, # of connection points: 2
#     Edge 21, Type (0, 1), BuildingBlock: EZIPEK_clean_linker_0, # of connection points: 2
#     Edge 22, Type (0, 1), BuildingBlock: EZIPEK_clean_linker_0, # of connection points: 2
#     Edge 23, Type (0, 1), BuildingBlock: EZIPEK_clean_linker_0, # of connection points: 2
#     Edge 24, Type (0, 1), BuildingBlock: EZIPEK_clean_linker_0, # of connection points: 2
#     Edge 25, Type (0, 1), BuildingBlock: EZIPEK_clean_linker_0, # of connection points: 2
#     Edge 26, Type (0, 1), BuildingBlock: EZIPEK_clean_linker_0, # of connection points: 2
#     Edge 27, Type (0, 1), BuildingBlock: EZIPEK_clean_linker_0, # of connection points: 2
#     Edge 28, Type (0, 1), BuildingBlock: EZIPEK_clean_linker_0, # of connection points: 2
#     Edge 29, Type (0, 1), BuildingBlock: EZIPEK_clean_linker_0, # of connection points: 2
#     Edge 30, Type (0, 1), BuildingBlock: EZIPEK_clean_linker_0, # of connection points: 2
#     Edge 31, Type (0, 1), BuildingBlock: EZIPEK_clean_linker_0, # of connection points: 2
#     Edge 32, Type (0, 1), BuildingBlock: EZIPEK_clean_linker_0, # of connection points: 2
#     Edge 33, Type (0, 1), BuildingBlock: EZIPEK_clean_linker_0, # of connection points: 2
#     Edge 34, Type (0, 1), BuildingBlock: EZIPEK_clean_linker_0, # of connection points: 2
#     Edge 35, Type (0, 1), BuildingBlock: EZIPEK_clean_linker_0, # of connection points: 2
# Relax obj value: 0.268
# Max RMSD: 0.230
# Mean RMSD: 0.186
data_MOF--net-zzz--node1-JUFBIX_clean_sbu_0--node2-ESEHIV_clean_linker_0--edge1-EZIPEK_clean_linker_0
_symmetry_space_group_name_H-M    P1
_symmetry_Int_Tables_number       1
_symmetry_cell_setting            triclinic
loop_
_symmetry_equiv_pos_as_xyz
'x, y, z'
_cell_length_a     32.967235
_cell_length_b     32.303174
_cell_length_c     12.971491
_cell_angle_alpha  79.205291
_cell_angle_beta   90.608192
_cell_angle_gamma 93.41411
loop_
_atom_site_label
_atom_site_type_symbol
_atom_site_fract_x
_atom_site_fract_y
_atom_site_fract_z
_atom_type_partial_charge
H0 H 0.91315 0.49401 0.40058 0.0
H1 H 0.83527 0.47537 0.14731 0.0
H2 H 0.78525 0.51396 0.41875 0.0
C3 C 0.88251 0.492 0.36953 0.0
C4 C 0.85043 0.5066 0.41994 0.0
C5 C 0.8768 0.48065 0.27216 0.0
C6 C 0.83826 0.48154 0.22655 0.0
C7 C 0.80403 0.49168 0.27857 0.0
C8 C 0.81046 0.5047 0.37713 0.0
H9 H 0.98135 0.82353 0.23328 0.0
H10 H 0.0137 0.71393 0.12793 0.0
H11 H 0.06008 0.73809 0.42517 0.0
C12 C 0.99614 0.79388 0.2502 0.0
C13 C 0.01906 0.78393 0.34269 0.0
C14 C 1.00028 0.77208 0.16849 0.0
C15 C 0.01412 0.73202 0.19054 0.0
C16 C 0.03587 0.71879 0.28315 0.0
C17 C 0.04004 0.7458 0.35857 0.0
H18 H 0.70356 0.03031 0.26206 0.0
H19 H 0.78058 0.02311 1.00371 0.0
H20 H 0.82655 0.99428 0.32078 0.0
C21 C 0.7335 0.02572 0.23329 0.0
C22 C 0.76335 0.01036 0.30469 0.0
C23 C 0.73881 0.02811 0.12608 0.0
C24 C 0.77671 0.02136 0.08739 0.0
C25 C 0.80958 0.01192 0.15594 0.0
C26 C 0.80252 1.00483 0.26637 0.0
H27 H 0.54408 0.64758 0.31113 0.0
H28 H 0.55589 0.77421 0.37064 0.0
H29 H 0.54801 0.75151 0.05223 0.0
C30 C 0.54735 0.68139 0.28195 0.0
C31 C 0.54562 0.69621 0.17427 0.0
C32 C 0.55252 0.70843 0.35371 0.0
C33 C 0.55415 0.75264 0.31592 0.0
C34 C 0.55176 0.76844 0.20587 0.0
C35 C 0.54903 0.73979 0.13616 0.0
H36 H 0.15737 0.54496 0.15723 0.0
H37 H 0.21221 0.53219 0.46055 0.0
H38 H 0.27659 0.49701 0.20455 0.0
C39 C 0.18285 0.53599 0.20863 0.0
C40 C 0.2148 0.51577 0.17297 0.0
C41 C 0.18106 0.54026 0.31292 0.0
C42 C 0.21403 0.52885 0.37906 0.0
C43 C 0.25059 0.51716 0.34012 0.0
C44 C 0.25022 0.50873 0.23606 0.0
H45 H 0.09906 0.16132 0.38693 0.0
H46 H 0.08476 0.26682 0.53381 0.0
H47 H 0.10608 0.2869 0.2003 0.0
C48 C 0.10139 0.19534 0.3817 0.0
C49 C 0.10744 0.2218 0.28396 0.0
C50 C 0.09134 0.21172 0.46914 0.0
C51 C 0.09356 0.25497 0.46471 0.0
C52 C 0.09793 0.28276 0.36833 0.0
C53 C 0.10511 0.2662 0.27635 0.0
H54 H 0.35514 0.01089 0.40494 0.0
H55 H 0.26469 0.96973 0.64305 0.0
H56 H 0.23003 0.03664 0.33784 0.0
C57 C 0.32363 0.00861 0.43004 0.0
C58 C 0.29386 0.02375 0.35773 0.0
C59 C 0.31352 0.98848 0.53187 0.0
C60 C 0.2728 0.98543 0.56395 0.0
C61 C 0.2429 1.00512 0.49737 0.0
C62 C 0.25315 0.02329 0.39188 0.0
H63 H 0.49997 0.36561 0.35523 0.0
H64 H 0.47879 0.23981 0.29111 0.0
H65 H 0.51468 0.2593 0.60108 0.0
C66 C 0.49914 0.33156 0.38086 0.0
C67 C 0.50822 0.31523 0.48452 0.0
C68 C 0.48783 0.3052 0.31049 0.0
C69 C 0.48684 0.26072 0.34525 0.0
C70 C 0.49726 0.24377 0.45082 0.0
C71 C 0.50747 0.27159 0.51974 0.0
Co72 Co 0.04238 0.01041 0.89731 0.0
C73 C 0.95675 1.00286 0.91739 0.0
Co74 Co 1.00884 0.99468 0.75775 0.0
C75 C 0.08784 0.06695 0.00981 0.0
C76 C 0.05847 0.01544 0.11563 0.0
N77 N 0.06725 0.02907 0.01312 0.0
N78 N 0.09039 0.07844 0.1046 0.0
C79 C 0.07248 0.04576 0.17186 0.0
H80 H 0.09746 0.08768 0.93787 0.0
H81 H 0.03927 0.98762 0.14579 0.0
C82 C 0.09495 1.00285 0.73915 0.0
N83 N 0.98817 0.97743 0.6338 0.0
C84 C 0.98379 0.93668 0.61878 0.0
C85 C 1.00346 0.99872 0.54159 0.0
N86 N 1.00009 0.93123 0.52653 0.0
C87 C 1.01245 0.97074 0.47914 0.0
C88 C 0.02004 0.07941 0.74769 0.0
O89 O 0.09498 0.00926 0.83308 0.0
O90 O 0.0613 0.99608 0.69575 0.0
O91 O 1.00432 0.05186 0.699 0.0
O92 O 0.03911 0.06717 0.83202 0.0
O93 O 0.95624 0.99391 0.82496 0.0
H94 H 0.01522 0.03125 0.52806 0.0
H95 H 0.97254 0.91088 0.67905 0.0
O96 O 0.99048 0.01169 0.95916 0.0
O97 O 0.04328 0.95198 0.96146 0.0
O98 O 0.01316 0.93883 0.81803 0.0
C99 C 0.0262 0.92589 0.90926 0.0
H100 H 0.0662 0.04574 0.25364 0.0
H101 H 0.03042 0.97886 0.40806 0.0
Co102 Co 0.50608 0.01642 0.88353 0.0
C103 C 0.53414 0.93404 0.9454 0.0
Co104 Co 0.54172 0.99391 0.76131 0.0
C105 C 0.43277 0.0365 0.98824 0.0
C106 C 0.48571 0.03635 0.08497 0.0
N107 N 0.47349 0.03191 0.98771 0.0
N108 N 0.41941 0.04258 0.08234 0.0
C109 C 0.45271 0.04281 0.1429 0.0
H110 H 0.41294 0.03376 0.92265 0.0
H111 H 0.51641 0.03347 0.11402 0.0
C112 C 0.51292 0.07601 0.6989 0.0
N113 N 0.57563 0.9796 0.65783 0.0
C114 C 0.6168 0.97766 0.66011 0.0
C115 C 0.56557 0.97857 0.55717 0.0
N116 N 0.63258 0.97677 0.56476 0.0
C117 C 0.60036 0.97678 0.50014 0.0
C118 C 0.46002 0.97205 0.75262 0.0
O119 O 0.49733 0.069 0.79049 0.0
O120 O 0.53435 0.04819 0.6718 0.0
O121 O 0.49331 0.97074 0.70427 0.0
O122 O 0.46031 0.99154 0.82897 0.0
O123 O 0.54839 0.94032 0.85224 0.0
H124 H 0.53523 0.9819 0.52539 0.0
H125 H 0.63537 0.97978 0.72841 0.0
O126 O 0.51491 0.96306 0.97448 0.0
O127 O 0.5538 0.04076 0.93801 0.0
O128 O 0.58823 0.01598 0.82194 0.0
C129 C 0.58769 0.03417 0.90008 0.0
H130 H 0.45282 0.04553 0.22485 0.0
H131 H 0.60211 0.97786 0.41635 0.0
Co132 Co 0.55291 0.50055 0.85036 0.0
C133 C 0.49209 0.44274 0.97079 0.0
Co134 Co 0.4869 0.50953 0.81303 0.0
C135 C 0.63576 0.50602 0.95471 0.0
C136 C 0.61272 0.44476 0.93572 0.0
N137 N 0.60524 0.4859 0.90726 0.0
N138 N 0.6608 0.47853 0.01381 0.0
C139 C 0.64527 0.44015 1.00208 0.0
H140 H 0.63835 0.53988 0.95004 0.0
H141 H 0.59387 0.41903 0.91564 0.0
C142 C 0.54597 0.56735 0.6912 0.0
N143 N 0.43491 0.52358 0.75525 0.0
C144 C 0.40659 0.5019 0.70496 0.0
C145 C 0.42617 0.56421 0.72384 0.0
N146 N 0.38198 0.52797 0.64068 0.0
C147 C 0.39519 0.56704 0.65283 0.0
C148 C 0.518 0.55787 0.95231 0.0
O149 O 0.57449 0.54608 0.73899 0.0
O150 O 0.50963 0.55479 0.71565 0.0
O151 O 0.48454 0.54736 0.91065 0.0
O152 O 0.55014 0.53998 0.93744 0.0
O153 O 0.46509 0.46299 0.91447 0.0
H154 H 0.44369 0.59086 0.74273 0.0
H155 H 0.40553 0.46798 0.71112 0.0
O156 O 0.52926 0.45601 0.95817 0.0
O157 O 0.55438 0.46071 0.76025 0.0
O158 O 0.49096 0.47267 0.71685 0.0
C159 C 0.52243 0.45254 0.71004 0.0
H160 H 0.65627 0.41028 0.04097 0.0
H161 H 0.38395 0.59622 0.61024 0.0
Co162 Co 0.03959 0.55225 0.80194 0.0
C163 C 0.10388 0.49771 0.87134 0.0
Co164 Co 0.03332 0.48767 0.7649 0.0
C165 C 0.06092 0.59792 0.96491 0.0
C166 C 0.03359 0.63925 0.8382 0.0
N167 N 0.04679 0.59999 0.86526 0.0
N168 N 0.05621 0.63363 1.00186 0.0
C169 C 0.03943 0.66001 0.92202 0.0
H170 H 0.07183 0.56961 0.01275 0.0
H171 H 0.0186 0.65117 0.76497 0.0
C172 C 0.96854 0.54114 0.69456 0.0
N173 N 0.02568 0.43846 0.70466 0.0
C174 C 0.05261 0.41913 0.65346 0.0
C175 C 0.98919 0.42668 0.6679 0.0
N176 N 0.03434 0.39825 0.58153 0.0
C177 C 0.99451 0.40437 0.59 0.0
C178 C 0.9962 0.48959 0.94804 0.0
O179 O 0.98731 0.56936 0.7375 0.0
O180 O 0.98496 0.50666 0.69757 0.0
O181 O 1.00149 0.46303 0.88842 0.0
O182 O 0.01284 0.5263 0.92408 0.0
O183 O 0.08303 0.46937 0.83396 0.0
H184 H 0.96025 0.43672 0.68908 0.0
H185 H 0.08511 0.42239 0.66486 0.0
O186 O 0.09049 0.53435 0.86176 0.0
O187 O 0.06597 0.57855 0.67764 0.0
O188 O 0.06314 0.51407 0.64423 0.0
C189 C 0.07321 0.5533 0.6168 0.0
H190 H 0.0303 0.69134 0.92585 0.0
H191 H 0.97051 0.39435 0.54093 0.0
C192 C 0.17451 0.97154 0.55983 0.0
C193 C 0.20197 0.00763 0.54428 0.0
C194 C 0.15779 0.04213 0.65079 0.0
C195 C 0.13308 1.00406 0.6769 0.0
N196 N 0.12021 0.93078 0.66515 0.0
N197 N 0.2222 0.07609 0.58267 0.0
C198 C 0.14191 0.96835 0.6331 0.0
C199 C 0.19415 0.0427 0.59151 0.0
N200 N 0.17955 0.94042 0.50358 0.0
N201 N 0.14566 0.07829 0.67858 0.0
H202 H 0.24826 0.07857 0.53647 0.0
H203 H 0.2209 0.10006 0.62598 0.0
H204 H 0.11937 0.07932 0.72178 0.0
H205 H 0.15974 0.108 0.6514 0.0
H206 H 0.15852 0.91513 0.50282 0.0
H207 H 0.20317 0.94202 0.44975 0.0
H208 H 0.12745 0.90253 0.64427 0.0
H209 H 0.09692 0.92688 0.72054 0.0
C210 C 0.46529 0.17037 0.52327 0.0
C211 C 0.50044 0.19743 0.49263 0.0
C212 C 0.54277 0.14564 0.59915 0.0
C213 C 0.50825 0.11745 0.62601 0.0
N214 N 0.43757 0.09955 0.5972 0.0
N215 N 0.57331 0.20565 0.4789 0.0
C216 C 0.46972 0.12875 0.58278 0.0
C217 C 0.5394 0.18306 0.52271 0.0
N218 N 0.42766 0.18504 0.49969 0.0
N219 N 0.57817 0.13837 0.65292 0.0
H220 H 0.57173 0.23309 0.42215 0.0
H221 H 0.60248 0.1949 0.49079 0.0
H222 H 0.58012 0.11346 0.71601 0.0
H223 H 0.6035 0.15961 0.64405 0.0
H224 H 0.40084 0.16883 0.52979 0.0
H225 H 0.42342 0.21474 0.45448 0.0
H226 H 0.40978 0.10426 0.5592 0.0
H227 H 0.43977 0.06914 0.64077 0.0
C228 C 0.29311 0.55213 0.46548 0.0
C229 C 0.28803 0.51834 0.40959 0.0
C230 C 0.34982 0.49031 0.50066 0.0
C231 C 0.34861 0.51972 0.57037 0.0
N232 N 0.3061 0.567 0.63759 0.0
N233 N 0.30892 0.44911 0.39456 0.0
C234 C 0.31595 0.54675 0.55888 0.0
C235 C 0.31563 0.48541 0.43287 0.0
N236 N 0.27726 0.59007 0.42813 0.0
N237 N 0.38374 0.46886 0.49377 0.0
H238 H 0.28329 0.44334 0.35059 0.0
H239 H 0.32667 0.42321 0.41626 0.0
H240 H 0.41046 0.47422 0.53385 0.0
H241 H 0.38668 0.44958 0.43849 0.0
H242 H 0.28194 0.61587 0.46561 0.0
H243 H 0.26441 0.59687 0.35349 0.0
H244 H 0.281 0.58552 0.63276 0.0
H245 H 0.31985 0.56084 0.7113 0.0
C246 C 0.04041 0.32427 0.38959 0.0
C247 C 0.08236 0.32521 0.36923 0.0
C248 C 0.09073 0.3854 0.46087 0.0
C249 C 0.05149 0.37469 0.50785 0.0
N250 N 0.99637 0.32045 0.53686 0.0
N251 N 0.14869 0.35789 0.38657 0.0
C252 C 0.02777 0.34083 0.47647 0.0
C253 C 0.10795 0.35663 0.40414 0.0
N254 N 0.01371 0.30213 0.33673 0.0
N255 N 0.11089 0.42297 0.46621 0.0
H256 H 0.16123 0.33793 0.34231 0.0
H257 H 0.16953 0.37727 0.41936 0.0
H258 H 0.09738 0.44679 0.49502 0.0
H259 H 0.13858 0.43258 0.42855 0.0
H260 H 0.98237 0.30131 0.34833 0.0
H261 H 0.02321 0.28855 0.27484 0.0
H262 H 0.98022 0.29396 0.51881 0.0
H263 H 0.99087 0.32566 0.61225 0.0
C264 C 0.86699 0.04623 0.03764 0.0
C265 C 0.85032 0.00976 0.10663 0.0
C266 C 0.90626 0.96979 0.0592 0.0
C267 C 0.91879 1.00424 0.97839 0.0
N268 N 0.90893 0.07469 0.88506 0.0
N269 N 0.851 0.93463 0.17006 0.0
C270 C 0.89841 0.04229 0.96588 0.0
C271 C 0.8692 0.97091 0.11428 0.0
N272 N 0.85345 0.08496 0.04304 0.0
N273 N 0.93032 0.93648 0.08586 0.0
H274 H 0.82376 0.93392 0.21047 0.0
H275 H 0.86115 0.9048 0.16867 0.0
H276 H 0.95818 0.93519 0.04984 0.0
H277 H 0.92461 0.91233 0.15038 0.0
H278 H 0.86681 0.11321 1.00215 0.0
H279 H 0.83146 0.08914 0.09687 0.0
H280 H 0.89242 0.10152 0.86492 0.0
H281 H 0.93236 0.07328 0.83261 0.0
C282 C 0.51081 0.83206 0.14736 0.0
C283 C 0.54941 0.81446 0.15885 0.0
C284 C 0.5792 0.87799 0.04181 0.0
C285 C 0.53967 0.89311 0.02024 0.0
N286 N 0.46704 0.88075 0.04086 0.0
N287 N 0.62031 0.81926 0.11391 0.0
C288 C 0.5053 0.8694 0.0711 0.0
C289 C 0.58364 0.83725 0.10558 0.0
N290 N 0.47912 0.81266 0.20858 0.0
N291 N 0.61264 0.90304 1.00382 0.0
H292 H 0.62513 0.79093 0.165 0.0
H293 H 0.64534 0.83115 0.06706 0.0
H294 H 0.61087 0.93293 0.95753 0.0
H295 H 0.64232 0.89586 0.02479 0.0
H296 H 0.4514 0.82612 0.21259 0.0
H297 H 0.48172 0.78473 0.26286 0.0
H298 H 0.44072 0.86245 0.06635 0.0
H299 H 0.46153 0.90637 0.98172 0.0
C300 C 0.73541 0.52091 0.20496 0.0
C301 C 0.76328 0.48817 0.22334 0.0
C302 C 0.72841 0.45723 0.08537 0.0
C303 C 0.69645 0.48519 0.07903 0.0
N304 N 0.66546 0.53593 0.1641 0.0
N305 N 0.77348 0.41627 0.20522 0.0
C306 C 0.69864 0.51502 0.14761 0.0
C307 C 0.75537 0.45332 0.17189 0.0
N308 N 0.74421 0.55835 0.23669 0.0
N309 N 0.73451 0.43566 0.00657 0.0
H310 H 0.79138 0.41115 0.27279 0.0
H311 H 0.76667 0.38956 0.17234 0.0
H312 H 0.71837 0.44125 0.93618 0.0
H313 H 0.75907 0.41673 0.00634 0.0
H314 H 0.72583 0.58387 0.21733 0.0
H315 H 0.77169 0.56546 0.27158 0.0
H316 H 0.66512 0.55433 0.22202 0.0
H317 H 0.63732 0.53015 0.1311 0.0
C318 C 0.09421 0.68787 0.21902 0.0
C319 C 0.05895 0.68052 0.28202 0.0
C320 C 0.03495 0.62427 0.18949 0.0
C321 C 0.06312 0.64108 0.10776 0.0
N322 N 0.12558 0.68066 0.05426 0.0
N323 N 1.00723 0.63061 0.36009 0.0
C324 C 0.09544 0.66957 0.1271 0.0
C325 C 0.03427 0.64347 0.28023 0.0
N326 N 0.12414 0.71539 0.24309 0.0
N327 N 1.0076 0.59221 0.17699 0.0
H328 H 1.00717 0.64618 0.42383 0.0
H329 H 0.98659 0.60467 0.36559 0.0
H330 H 1.00693 0.57862 0.11025 0.0
H331 H 0.9859 0.57862 0.23258 0.0
H332 H 0.1515 0.72243 0.2026 0.0
H333 H 0.12183 0.72914 0.30941 0.0
H334 H 0.14883 0.7035 0.05846 0.0
H335 H 0.12687 0.66658 0.98824 0.0
C336 C 0.07953 0.1771 0.65683 0.0
C337 C 0.0661 0.18517 0.55154 0.0
C338 C 1.00593 0.13754 0.59727 0.0
C339 C 0.02365 0.12451 0.69665 0.0
N340 N 0.0583 0.15139 0.83622 0.0
N341 N 1.00891 0.18727 0.43203 0.0
C342 C 0.05438 0.15078 0.73196 0.0
C343 C 0.02659 0.17001 0.52481 0.0
N344 N 0.11659 0.19282 0.68433 0.0
N345 N 0.96985 0.11862 0.57321 0.0
H346 H 0.02268 0.21228 0.37909 0.0
H347 H 0.97933 0.17941 0.41089 0.0
H348 H 0.95211 0.09892 0.63072 0.0
H349 H 0.9575 0.12246 0.49809 0.0
H350 H 0.12886 0.18415 0.75914 0.0
H351 H 0.13617 0.21199 0.63046 0.0
H352 H 0.07882 0.17203 0.86591 0.0
H353 H 0.03725 0.13468 0.8903 0.0
C354 C 0.37592 0.94653 0.56736 0.0
C355 C 0.34673 0.97154 0.6032 0.0
C356 C 0.3846 0.96679 0.76538 0.0
C357 C 0.41964 0.95724 0.71457 0.0
N358 N 0.44557 0.9254 0.57649 0.0
N359 N 0.32782 0.01029 0.73764 0.0
C360 C 0.41446 0.94286 0.61826 0.0
C361 C 0.35169 0.98242 0.70361 0.0
N362 N 0.36633 0.92579 0.48696 0.0
N363 N 0.38265 0.96079 0.87192 0.0
H364 H 0.30605 0.02691 0.6911 0.0
H365 H 0.33335 0.02054 0.80845 0.0
H366 H 0.40544 0.94614 0.91913 0.0
H367 H 0.35632 0.96545 0.91117 0.0
H368 H 0.38518 0.90487 0.46198 0.0
H369 H 0.33757 0.92633 0.45239 0.0
H370 H 0.44546 0.92 0.4998 0.0
H371 H 0.4712 0.91563 0.61994 0.0
C372 C 0.55091 0.37139 0.54888 0.0
C373 C 0.51456 0.34534 0.55633 0.0
C374 C 0.48588 0.38582 0.67544 0.0
C375 C 0.51985 0.41577 0.6563 0.0
N376 N 0.5817 0.44035 0.55984 0.0
N377 N 0.44453 0.33189 0.61131 0.0
C378 C 0.55184 0.40931 0.5896 0.0
C379 C 0.48127 0.3536 0.61549 0.0
N380 N 0.58432 0.3599 0.50212 0.0
N381 N 0.45884 0.38647 0.75415 0.0
H382 H 0.4398 0.30707 0.57066 0.0
H383 H 0.41788 0.34079 0.64142 0.0
H384 H 0.46115 0.40806 0.80399 0.0
H385 H 0.4366 0.36238 0.77816 0.0
H386 H 0.61286 0.37554 0.50266 0.0
H387 H 0.58426 0.33225 0.47139 0.0
H388 H 0.60353 0.43892 0.50337 0.0
H389 H 0.58228 0.46956 0.5832 0.0
C390 C 0.15241 0.59162 0.40842 0.0
C391 C 0.1453 0.55733 0.35555 0.0
C392 C 0.07765 0.54567 0.43218 0.0
C393 C 0.09159 0.56763 0.51176 0.0
N394 N 0.1405 0.61828 0.56659 0.0
N395 N 0.09745 0.50398 0.30718 0.0
C396 C 0.12789 0.5938 0.49596 0.0
C397 C 0.10627 0.53586 0.36124 0.0
N398 N 0.18281 0.62144 0.37497 0.0
N399 N 0.03758 0.53257 0.42897 0.0
H400 H 0.11802 0.49341 0.25927 0.0
H401 H 0.07036 0.48536 0.31648 0.0
H402 H 0.01647 0.53983 0.48141 0.0
H403 H 0.02484 0.51898 0.36847 0.0
H404 H 0.18784 0.6488 0.40604 0.0
H405 H 0.19961 0.62074 0.30758 0.0
H406 H 0.16949 0.63313 0.56489 0.0
H407 H 0.12264 0.623 0.62845 0.0
C408 C 0.04433 0.81243 0.02729 0.0
C409 C 1.00438 0.79774 0.06147 0.0
C410 C 0.97824 0.86173 0.96028 0.0
C411 C 0.01876 0.88076 0.95408 0.0
N412 N 0.09099 0.87308 0.97308 0.0
N413 N 0.93273 0.80435 0.04851 0.0
C414 C 0.05208 0.85572 0.98463 0.0
C415 C 0.97107 0.82071 0.02086 0.0
N416 N 0.07449 0.78494 0.03371 0.0
N417 N 0.9465 0.88271 0.91126 0.0
H418 H 0.92748 0.77342 0.08939 0.0
H419 H 0.90683 0.82153 0.03523 0.0
H420 H 0.94857 0.9141 0.87404 0.0
H421 H 0.91792 0.86814 0.90303 0.0
H422 H 0.10369 0.7935 1.00442 0.0
H423 H 0.06874 0.7525 0.0537 0.0
H424 H 0.11604 0.85747 0.00665 0.0
H425 H 0.09818 0.90393 0.93447 0.0
C426 C 0.6699 0.99902 0.09197 0.0
C427 C 0.70197 0.02966 0.06001 0.0
C428 C 0.66037 0.06195 0.9141 0.0
C429 C 0.62583 0.03688 0.95986 0.0
N430 N 0.59781 0.98596 0.10812 0.0
N431 N 0.72573 0.09488 0.9485 0.0
C432 C 0.63047 1.00714 0.05432 0.0
C433 C 0.69675 0.06264 0.97329 0.0
N434 N 0.67735 0.96152 0.15602 0.0
N435 N 0.65931 0.08359 0.81336 0.0
H436 H 0.75259 0.09664 0.99107 0.0
H437 H 0.7213 0.12157 0.89138 0.0
H438 H 0.63424 0.08161 0.76514 0.0
H439 H 0.68492 0.09929 0.77444 0.0
H440 H 0.65528 0.93687 0.17531 0.0
H441 H 0.7066 0.95321 0.17958 0.0
H442 H 0.6004 0.96705 0.18216 0.0
H443 H 0.56796 0.9902 0.0851 0.0
C444 C 0.56383 0.62834 0.12704 0.0
C445 C 0.54015 0.66419 0.10551 0.0
C446 C 0.50487 0.63275 0.97038 0.0
C447 C 0.52203 0.59353 0.00961 0.0
N448 N 0.56031 0.55263 0.14856 0.0
N449 N 0.48018 0.69495 0.02004 0.0
C450 C 0.54926 0.59082 0.09523 0.0
C451 C 0.50815 0.66496 0.03117 0.0
N452 N 0.60029 0.63017 0.17718 0.0
N453 N 0.4888 0.64096 0.87208 0.0
H454 H 0.47961 0.71763 0.06737 0.0
H455 H 0.45499 0.6941 0.97093 0.0
H456 H 0.49253 0.6211 0.81891 0.0
H457 H 0.47815 0.67028 0.83902 0.0
H458 H 0.61926 0.60511 0.18911 0.0
H459 H 0.61323 0.65814 0.19582 0.0
H460 H 0.57741 0.54973 0.21741 0.0
H461 H 0.54838 0.52404 0.13131 0.0
C462 C 0.93166 0.44438 0.19337 0.0
C463 C 0.91204 0.48142 0.20301 0.0
C464 C 0.94176 0.51854 0.04093 0.0
C465 C 0.96528 0.48344 0.03345 0.0
N466 N 0.98775 0.41525 0.11574 0.0
N467 N 0.90914 0.55706 0.15442 0.0
C468 C 0.96175 0.44674 0.11347 0.0
C469 C 0.92131 0.51964 0.13391 0.0
N470 N 0.92128 0.40727 0.25947 0.0
N471 N 0.93593 0.5497 0.95644 0.0
H472 H 0.89287 0.5595 0.22117 0.0
H473 H 0.91902 0.58625 0.11026 0.0
H474 H 0.94559 0.54796 0.88239 0.0
H475 H 0.91606 0.57364 0.95634 0.0
H476 H 0.93165 0.37835 0.25021 0.0
H477 H 0.90054 0.40543 0.32065 0.0
H478 H 0.98896 0.3897 0.1778 0.0
H479 H 1.01036 0.41643 0.05954 0.0
C480 C 0.07045 0.18767 0.15082 0.0
C481 C 0.10834 0.1991 0.19332 0.0
C482 C 0.13703 0.13646 0.14527 0.0
C483 C 0.09735 0.12116 0.12326 0.0
N484 N 0.02596 0.13195 0.10156 0.0
N485 N 0.1792 0.18811 0.21989 0.0
C486 C 0.06405 0.1471 0.1232 0.0
C487 C 0.14239 0.17503 0.18433 0.0
N488 N 0.04045 0.21551 0.13917 0.0
N489 N 0.16917 0.11338 0.13101 0.0
H490 H 0.18353 0.21706 0.24449 0.0
H491 H 0.20486 0.17056 0.22673 0.0
H492 H 0.16535 0.08472 0.10494 0.0
H493 H 0.19942 0.12339 0.13906 0.0
H494 H 0.01289 0.21083 0.10197 0.0
H495 H 0.04502 0.24551 0.15729 0.0
H496 H 0.99957 0.1468 0.11212 0.0
H497 H 0.02044 0.10312 0.07739 0.0
C498 C 0.33015 0.07571 0.21748 0.0
C499 C 0.30819 0.03629 0.24693 0.0
C500 C 0.35404 1.00372 0.14264 0.0
C501 C 0.37809 0.04222 0.11944 0.0
N502 N 0.38418 0.11707 0.11091 0.0
N503 N 0.28959 0.96831 0.20714 0.0
C504 C 0.36407 0.07916 0.14808 0.0
C505 C 0.31647 1.0026 0.19634 0.0
N506 N 0.32016 0.10864 0.26259 0.0
N507 N 0.36897 0.96742 0.12335 0.0
H508 H 0.26249 0.96714 0.24887 0.0
H509 H 0.29229 0.94356 0.16689 0.0
H510 H 0.39741 0.96666 0.08979 0.0
H511 H 0.35471 0.93763 0.14837 0.0
H512 H 0.33729 0.13717 0.25467 0.0
H513 H 0.29461 0.10645 0.31071 0.0
H514 H 0.37451 0.14588 0.123 0.0
H515 H 0.40914 0.11963 0.06074 0.0
C516 C 0.44668 0.35618 0.19159 0.0
C517 C 0.47818 0.32751 0.20198 0.0
C518 C 0.50683 0.36641 0.03624 0.0
C519 C 0.48232 0.40089 0.04177 0.0
N520 N 0.42798 0.42802 0.12849 0.0
N521 N 0.53896 0.30543 0.13219 0.0
C522 C 0.45117 0.39529 0.1189 0.0
C523 C 0.50794 0.33208 0.12241 0.0
N524 N 0.41355 0.34656 0.25566 0.0
N525 N 0.52839 0.36585 0.94748 0.0
H526 H 0.54012 0.27905 0.19204 0.0
H527 H 0.56455 0.31086 0.08394 0.0
H528 H 0.52731 0.38963 0.88166 0.0
H529 H 0.5436 0.33981 0.93526 0.0
H530 H 0.38798 0.36434 0.24795 0.0
H531 H 0.41043 0.31823 0.30988 0.0
H532 H 0.40792 0.42707 0.19048 0.0
H533 H 0.43095 0.45745 0.07922 0.0
C534 C 0.206 0.52672 0.97837 0.0
C535 C 0.20563 0.49841 0.07572 0.0
C536 C 0.14608 0.45868 0.02022 0.0
C537 C 0.14346 0.48998 0.92766 0.0
N538 N 0.17872 0.54387 0.80145 0.0
N539 N 0.18668 0.42927 0.17116 0.0
C540 C 0.17641 0.52051 0.90074 0.0
C541 C 0.17991 0.46112 0.08884 0.0
N542 N 0.23277 0.56116 0.96412 0.0
N543 N 0.11487 0.42905 0.04787 0.0
H544 H 0.21086 0.43141 0.22292 0.0
H545 H 0.17125 0.39972 0.18111 0.0
H546 H 0.0898 0.42564 1.00014 0.0
H547 H 0.11275 0.40914 0.12097 0.0
H548 H 0.23194 0.58603 0.90032 0.0
H549 H 0.25523 0.565 0.01955 0.0
H550 H 0.20319 0.56476 0.77414 0.0
H551 H 0.15765 0.53912 0.74345 0.0
C552 C 0.03189 0.86074 0.34541 0.0
C553 C 0.02548 0.81929 0.40449 0.0
C554 C 0.0149 0.85299 0.55678 0.0
C555 C 1.00832 0.89246 0.48858 0.0
N556 N 0.99689 0.92449 0.30672 0.0
N557 N 1.00722 0.7767 0.57322 0.0
C558 C 0.01328 0.89395 0.37934 0.0
C559 C 0.01595 0.81538 0.51274 0.0
N560 N 0.05269 0.86782 0.2529 0.0
N561 N 0.02338 0.85129 0.66045 0.0
H562 H 1.00753 0.74885 0.54377 0.0
H563 H 0.99697 0.77306 0.65039 0.0
H564 H 0.03026 0.87831 0.69162 0.0
H565 H 0.03007 0.82332 0.71052 0.0
H566 H 0.0582 0.89813 0.20875 0.0
H567 H 0.06744 0.84381 0.22746 0.0
H568 H 0.99856 0.92444 0.22646 0.0
H569 H 0.97682 0.94543 0.32695 0.0
C570 C 0.73552 0.02649 0.46835 0.0
C571 C 0.74799 0.99517 0.41448 0.0
C572 C 0.69261 0.94671 0.50031 0.0
C573 C 0.67492 0.98112 0.53244 0.0
N574 N 0.67999 0.05394 0.55192 0.0
N575 N 0.74294 0.92311 0.39146 0.0
C576 C 0.69709 0.02085 0.52068 0.0
C577 C 0.7286 0.95403 0.43743 0.0
N578 N 0.7597 0.06258 0.46291 0.0
N579 N 0.67422 0.90729 0.52888 0.0
H580 H 0.77011 0.9276 0.3493 0.0
H581 H 0.72795 0.89373 0.39312 0.0
H582 H 0.64784 0.90186 0.57445 0.0
H583 H 0.68637 0.8799 0.51465 0.0
H584 H 0.75435 0.08619 0.5049 0.0
H585 H 0.78733 0.06667 0.42243 0.0
H586 H 0.69262 0.08476 0.53665 0.0
H587 H 0.65171 0.05107 0.58847 0.0
C588 C 0.51448 0.66176 0.49426 0.0
C589 C 0.55063 0.68655 0.46642 0.0
C590 C 0.58553 0.63742 0.60359 0.0
C591 C 0.55144 0.60747 0.60934 0.0
N592 N 0.48959 0.58943 0.51941 0.0
N593 N 0.62244 0.69688 0.4933 0.0
C594 C 0.51733 0.61926 0.54383 0.0
C595 C 0.58677 0.67429 0.52164 0.0
N596 N 0.47806 0.67696 0.45996 0.0
N597 N 0.61593 0.63194 0.67608 0.0
H598 H 0.62356 0.72461 0.43691 0.0
H599 H 0.65056 0.68692 0.52226 0.0
H600 H 0.61583 0.6068 0.7392 0.0
H601 H 0.63938 0.6548 0.67895 0.0
H602 H 0.45049 0.6601 0.48127 0.0
H603 H 0.47599 0.70787 0.41903 0.0
H604 H 0.46572 0.59696 0.46709 0.0
H605 H 0.49386 0.55715 0.5386 0.0
C606 C 0.88424 0.56616 0.49371 0.0
C607 C 0.86247 0.52607 0.51292 0.0
C608 C 0.89808 0.50797 0.68058 0.0
C609 C 0.92607 0.54358 0.65009 0.0
N610 N 0.93803 0.61313 0.54711 0.0
N611 N 0.84299 0.46196 0.63039 0.0
C612 C 0.9163 0.57518 0.56339 0.0
C613 C 0.86674 0.49869 0.61026 0.0
N614 N 0.87586 0.59394 0.40412 0.0
N615 N 0.90199 0.48278 0.77676 0.0
H616 H 0.81898 0.45589 0.58117 0.0
H617 H 0.84724 0.43737 0.69311 0.0
H618 H 0.92502 0.4882 0.82868 0.0
H619 H 0.88115 0.45844 0.80861 0.0
H620 H 0.89239 0.62227 0.3774 0.0
H621 H 0.85153 0.588 0.35568 0.0
H622 H 0.93177 0.63857 0.48842 0.0
H623 H 0.96119 0.62022 0.59736 0.0
loop_
_geom_bond_atom_site_label_1
_geom_bond_atom_site_label_2
_geom_bond_distance
_geom_bond_site_symmetry_2
_ccdc_geom_bond_type
H0 C3 0.931 . S
H1 C6 0.928 . S
H2 C8 0.930 . S
C3 H0 0.931 . S
C3 C4 1.413 . S
C3 C5 1.360 . S
C4 C3 1.413 . S
C4 C8 1.429 . S
C5 C3 1.360 . S
C5 C6 1.372 . S
C6 H1 0.928 . S
C6 C5 1.372 . S
C6 C7 1.404 . S
C7 C6 1.404 . S
C7 C8 1.391 . S
C8 H2 0.930 . S
C8 C4 1.429 . S
C8 C7 1.391 . S
H9 C12 0.931 . S
H10 C15 0.928 . S
H11 C17 0.930 . S
C12 H9 0.931 . S
C12 C13 1.413 . S
C12 C14 1.360 1_554 S
C13 C12 1.413 . S
C13 C17 1.429 . S
C14 C12 1.360 1_556 S
C14 C15 1.372 . S
C15 H10 0.928 . S
C15 C14 1.372 . S
C15 C16 1.404 1_556 S
C16 C15 1.404 1_554 S
C16 C17 1.391 . S
C17 H11 0.930 . S
C17 C13 1.429 . S
C17 C16 1.391 . S
H18 C21 0.931 . S
H19 C24 0.928 . S
H20 C26 0.930 . S
C21 H18 0.931 . S
C21 C22 1.413 . S
C21 C23 1.360 1_554 S
C22 C21 1.413 . S
C22 C26 1.430 1_565 S
C23 C21 1.360 1_556 S
C23 C24 1.375 . S
C24 H19 0.928 . S
C24 C23 1.375 . S
C24 C25 1.406 1_556 S
C25 C24 1.406 1_554 S
C25 C26 1.387 1_565 S
C26 H20 0.930 . S
C26 C22 1.430 1_545 S
C26 C25 1.387 1_545 S
H27 C30 0.931 . S
H28 C33 0.928 . S
H29 C35 0.930 1_556 S
C30 H27 0.931 . S
C30 C31 1.413 . S
C30 C32 1.360 . S
C31 C30 1.413 . S
C31 C35 1.429 . S
C32 C30 1.360 . S
C32 C33 1.372 . S
C33 H28 0.928 . S
C33 C32 1.372 . S
C33 C34 1.404 . S
C34 C33 1.404 . S
C34 C35 1.391 . S
C35 H29 0.930 1_554 S
C35 C31 1.429 . S
C35 C34 1.391 . S
H36 C39 0.931 . S
H37 C42 0.928 . S
H38 C44 0.930 . S
C39 H36 0.931 . S
C39 C40 1.413 . S
C39 C41 1.360 . S
C40 C39 1.413 . S
C40 C44 1.429 . S
C41 C39 1.360 . S
C41 C42 1.372 . S
C42 H37 0.928 . S
C42 C41 1.372 . S
C42 C43 1.404 . S
C43 C42 1.404 . S
C43 C44 1.391 . S
C44 H38 0.930 . S
C44 C40 1.429 . S
C44 C43 1.391 . S
H45 C48 0.931 . S
H46 C51 0.928 . S
H47 C53 0.930 . S
C48 H45 0.931 . S
C48 C49 1.413 . S
C48 C50 1.360 . S
C49 C48 1.413 . S
C49 C53 1.429 . S
C50 C48 1.360 . S
C50 C51 1.372 . S
C51 H46 0.928 . S
C51 C50 1.372 . S
C51 C52 1.404 . S
C52 C51 1.404 . S
C52 C53 1.391 . S
C53 H47 0.930 . S
C53 C49 1.429 . S
C53 C52 1.391 . S
H54 C57 0.930 . S
H55 C60 0.928 . S
H56 C62 0.930 . S
C57 H54 0.930 . S
C57 C58 1.414 . S
C57 C59 1.360 . S
C58 C57 1.414 . S
C58 C62 1.428 1_565 S
C59 C57 1.360 . S
C59 C60 1.371 . S
C60 H55 0.928 . S
C60 C59 1.371 . S
C60 C61 1.403 . S
C61 C60 1.403 . S
C61 C62 1.394 1_565 S
C62 H56 0.930 . S
C62 C58 1.428 1_545 S
C62 C61 1.394 1_545 S
H63 C66 0.931 . S
H64 C69 0.928 . S
H65 C71 0.930 . S
C66 H63 0.931 . S
C66 C67 1.413 . S
C66 C68 1.360 . S
C67 C66 1.413 . S
C67 C71 1.429 . S
C68 C66 1.360 . S
C68 C69 1.372 . S
C69 H64 0.928 . S
C69 C68 1.372 . S
C69 C70 1.404 . S
C70 C69 1.404 . S
C70 C71 1.391 . S
C71 H65 0.930 . S
C71 C67 1.429 . S
C71 C70 1.391 . S
Co72 N77 2.057 1_556 S
Co72 O89 2.021 1_545 S
Co72 O92 2.062 . S
Co72 O96 2.117 1_455 S
Co72 O97 2.020 1_545 S
C73 O93 1.259 . S
C73 O96 1.258 . S
Co74 N83 2.057 1_455 S
Co74 O90 2.117 . S
Co74 O91 2.020 1_565 S
Co74 O93 2.021 1_465 S
Co74 O98 2.062 1_455 S
C75 N77 1.316 . S
C75 N78 1.347 . S
C75 H80 0.931 . S
C76 N77 1.375 . S
C76 C79 1.350 . S
C76 H81 0.930 1_455 S
N77 Co72 2.057 1_554 S
N77 C75 1.316 . S
N77 C76 1.375 . S
N78 C75 1.347 . S
N78 C79 1.373 . S
C79 C76 1.350 . S
C79 N78 1.373 . S
C79 H100 0.931 . S
H80 C75 0.931 . S
H81 C76 0.930 1_655 S
C82 O89 1.259 . S
C82 O90 1.258 . S
N83 Co74 2.057 1_655 S
N83 C84 1.316 . S
N83 C85 1.375 1_655 S
C84 N83 1.316 . S
C84 N86 1.347 . S
C84 H95 0.931 . S
C85 N83 1.375 1_455 S
C85 C87 1.350 . S
C85 H94 0.930 . S
N86 C84 1.347 . S
N86 C87 1.373 1_655 S
C87 C85 1.350 . S
C87 N86 1.373 1_455 S
C87 H101 0.931 . S
C88 O91 1.256 . S
C88 O92 1.255 . S
O89 Co72 2.021 1_565 S
O89 C82 1.259 . S
O90 Co74 2.117 . S
O90 C82 1.258 . S
O91 Co74 2.020 1_545 S
O91 C88 1.256 . S
O92 Co72 2.062 . S
O92 C88 1.255 . S
O93 C73 1.259 . S
O93 Co74 2.021 1_645 S
H94 C85 0.930 . S
H95 C84 0.931 . S
O96 Co72 2.117 1_655 S
O96 C73 1.258 . S
O97 Co72 2.020 1_565 S
O97 C99 1.256 1_455 S
O98 Co74 2.062 1_655 S
O98 C99 1.255 . S
C99 O97 1.256 1_655 S
C99 O98 1.255 . S
H100 C79 0.931 . S
H101 C87 0.931 . S
Co102 N107 2.057 1_546 S
Co102 O119 2.021 . S
Co102 O122 2.062 1_545 S
Co102 O126 2.117 1_545 S
Co102 O127 2.020 . S
C103 O123 1.259 . S
C103 O126 1.258 . S
Co104 N113 2.057 1_565 S
Co104 O120 2.117 1_565 S
Co104 O121 2.020 . S
Co104 O123 2.021 . S
Co104 O128 2.062 1_565 S
C105 N107 1.316 1_545 S
C105 N108 1.347 . S
C105 H110 0.931 . S
C106 N107 1.375 . S
C106 C109 1.350 . S
C106 H111 0.930 . S
N107 Co102 2.057 1_564 S
N107 C105 1.316 1_565 S
N107 C106 1.375 . S
N108 C105 1.347 . S
N108 C109 1.373 1_545 S
C109 C106 1.350 . S
C109 N108 1.373 1_565 S
C109 H130 0.931 . S
H110 C105 0.931 . S
H111 C106 0.930 . S
C112 O119 1.259 . S
C112 O120 1.258 . S
N113 Co104 2.057 1_545 S
N113 C114 1.316 1_545 S
N113 C115 1.375 . S
C114 N113 1.316 1_565 S
C114 N116 1.347 . S
C114 H125 0.931 . S
C115 N113 1.375 . S
C115 C117 1.350 . S
C115 H124 0.930 . S
N116 C114 1.347 . S
N116 C117 1.373 1_565 S
C117 C115 1.350 . S
C117 N116 1.373 1_545 S
C117 H131 0.931 . S
C118 O121 1.256 . S
C118 O122 1.255 . S
O119 Co102 2.021 . S
O119 C112 1.259 . S
O120 Co104 2.117 1_545 S
O120 C112 1.258 . S
O121 Co104 2.020 . S
O121 C118 1.256 . S
O122 Co102 2.062 1_565 S
O122 C118 1.255 . S
O123 C103 1.259 . S
O123 Co104 2.021 . S
H124 C115 0.930 . S
H125 C114 0.931 . S
O126 Co102 2.117 1_565 S
O126 C103 1.258 . S
O127 Co102 2.020 . S
O127 C129 1.256 . S
O128 Co104 2.062 1_545 S
O128 C129 1.255 . S
C129 O127 1.256 . S
C129 O128 1.255 . S
H130 C109 0.931 . S
H131 C117 0.931 . S
Co132 N137 2.057 . S
Co132 O149 2.021 . S
Co132 O152 2.062 . S
Co132 O156 2.117 . S
Co132 O157 2.020 . S
C133 O153 1.259 . S
C133 O156 1.258 . S
Co134 N143 2.057 . S
Co134 O150 2.117 . S
Co134 O151 2.020 . S
Co134 O153 2.021 . S
Co134 O158 2.062 . S
C135 N137 1.316 . S
C135 N138 1.347 . S
C135 H140 0.931 . S
C136 N137 1.375 . S
C136 C139 1.350 1_556 S
C136 H141 0.930 1_556 S
N137 Co132 2.057 . S
N137 C135 1.316 . S
N137 C136 1.375 . S
N138 C135 1.347 . S
N138 C139 1.373 1_556 S
C139 C136 1.350 1_554 S
C139 N138 1.373 1_554 S
C139 H160 0.931 . S
H140 C135 0.931 . S
H141 C136 0.930 1_554 S
C142 O149 1.259 . S
C142 O150 1.258 . S
N143 Co134 2.057 . S
N143 C144 1.316 . S
N143 C145 1.375 . S
C144 N143 1.316 . S
C144 N146 1.347 . S
C144 H155 0.931 . S
C145 N143 1.375 . S
C145 C147 1.350 . S
C145 H154 0.930 . S
N146 C144 1.347 . S
N146 C147 1.373 . S
C147 C145 1.350 . S
C147 N146 1.373 . S
C147 H161 0.931 . S
C148 O151 1.256 . S
C148 O152 1.255 . S
O149 Co132 2.021 . S
O149 C142 1.259 . S
O150 Co134 2.117 . S
O150 C142 1.258 . S
O151 Co134 2.020 . S
O151 C148 1.256 . S
O152 Co132 2.062 . S
O152 C148 1.255 . S
O153 C133 1.259 . S
O153 Co134 2.021 . S
H154 C145 0.930 . S
H155 C144 0.931 . S
O156 Co132 2.117 . S
O156 C133 1.258 . S
O157 Co132 2.020 . S
O157 C159 1.256 . S
O158 Co134 2.062 . S
O158 C159 1.255 . S
C159 O157 1.256 . S
C159 O158 1.255 . S
H160 C139 0.931 . S
H161 C147 0.931 . S
Co162 N167 2.057 . S
Co162 O179 2.021 1_455 S
Co162 O182 2.062 1_455 S
Co162 O186 2.117 . S
Co162 O187 2.020 . S
C163 O183 1.259 . S
C163 O186 1.258 . S
Co164 N173 2.057 . S
Co164 O180 2.117 1_455 S
Co164 O181 2.020 1_455 S
Co164 O183 2.021 . S
Co164 O188 2.062 . S
C165 N167 1.316 1_655 S
C165 N168 1.347 . S
C165 H170 0.931 . S
C166 N167 1.375 . S
C166 C169 1.350 . S
C166 H171 0.930 . S
N167 Co162 2.057 . S
N167 C165 1.316 1_455 S
N167 C166 1.375 . S
N168 C165 1.347 . S
N168 C169 1.373 1_655 S
C169 C166 1.350 . S
C169 N168 1.373 1_455 S
C169 H190 0.931 . S
H170 C165 0.931 . S
H171 C166 0.930 . S
C172 O179 1.259 . S
C172 O180 1.258 . S
N173 Co164 2.057 . S
N173 C174 1.316 . S
N173 C175 1.375 . S
C174 N173 1.316 . S
C174 N176 1.347 . S
C174 H185 0.931 . S
C175 N173 1.375 . S
C175 C177 1.350 . S
C175 H184 0.930 1_455 S
N176 C174 1.347 . S
N176 C177 1.373 . S
C177 C175 1.350 . S
C177 N176 1.373 . S
C177 H191 0.931 . S
C178 O181 1.256 . S
C178 O182 1.255 . S
O179 Co162 2.021 1_655 S
O179 C172 1.259 . S
O180 Co164 2.117 1_655 S
O180 C172 1.258 . S
O181 Co164 2.020 1_655 S
O181 C178 1.256 . S
O182 Co162 2.062 1_655 S
O182 C178 1.255 . S
O183 C163 1.259 . S
O183 Co164 2.021 . S
H184 C175 0.930 1_655 S
H185 C174 0.931 . S
O186 Co162 2.117 . S
O186 C163 1.258 . S
O187 Co162 2.020 . S
O187 C189 1.256 . S
O188 Co164 2.062 . S
O188 C189 1.255 . S
C189 O187 1.256 . S
C189 O188 1.255 . S
H190 C169 0.931 . S
H191 C177 0.931 . S
C192 C193 1.363 . S
C192 C198 1.379 . S
C192 N200 1.356 . S
C193 C192 1.363 . S
C193 C199 1.361 1_565 S
C194 C195 1.363 . S
C194 C199 1.379 1_565 S
C194 N201 1.356 . S
C195 C194 1.363 . S
C195 C198 1.363 . S
N196 C198 1.356 . S
N196 H208 0.984 . S
N196 H209 0.985 . S
N197 C199 1.358 . S
N197 H202 0.984 . S
N197 H203 0.985 . S
C198 C192 1.379 . S
C198 C195 1.363 . S
C198 N196 1.356 . S
C199 C193 1.361 1_545 S
C199 C194 1.379 1_545 S
C199 N197 1.358 . S
N200 C192 1.356 . S
N200 H206 0.984 . S
N200 H207 0.984 . S
N201 C194 1.356 . S
N201 H204 0.984 . S
N201 H205 0.985 1_565 S
H202 N197 0.984 . S
H203 N197 0.985 . S
H204 N201 0.984 . S
H205 N201 0.985 1_545 S
H206 N200 0.984 . S
H207 N200 0.984 . S
H208 N196 0.984 . S
H209 N196 0.985 . S
C210 C211 1.363 . S
C210 C216 1.379 . S
C210 N218 1.356 . S
C211 C210 1.363 . S
C211 C217 1.363 . S
C212 C213 1.363 . S
C212 C217 1.379 . S
C212 N219 1.356 . S
C213 C212 1.363 . S
C213 C216 1.363 . S
N214 C216 1.356 . S
N214 H226 0.984 . S
N214 H227 0.985 . S
N215 C217 1.356 . S
N215 H220 0.984 . S
N215 H221 0.985 . S
C216 C210 1.379 . S
C216 C213 1.363 . S
C216 N214 1.356 . S
C217 C211 1.363 . S
C217 C212 1.379 . S
C217 N215 1.356 . S
N218 C210 1.356 . S
N218 H224 0.984 . S
N218 H225 0.984 . S
N219 C212 1.356 . S
N219 H222 0.984 . S
N219 H223 0.985 . S
H220 N215 0.984 . S
H221 N215 0.985 . S
H222 N219 0.984 . S
H223 N219 0.985 . S
H224 N218 0.984 . S
H225 N218 0.984 . S
H226 N214 0.984 . S
H227 N214 0.985 . S
C228 C229 1.363 . S
C228 C234 1.379 . S
C228 N236 1.356 . S
C229 C228 1.363 . S
C229 C235 1.363 . S
C230 C231 1.363 . S
C230 C235 1.379 . S
C230 N237 1.356 . S
C231 C230 1.363 . S
C231 C234 1.363 . S
N232 C234 1.356 . S
N232 H244 0.984 . S
N232 H245 0.985 . S
N233 C235 1.356 . S
N233 H238 0.984 . S
N233 H239 0.985 . S
C234 C228 1.379 . S
C234 C231 1.363 . S
C234 N232 1.356 . S
C235 C229 1.363 . S
C235 C230 1.379 . S
C235 N233 1.356 . S
N236 C228 1.356 . S
N236 H242 0.984 . S
N236 H243 0.984 . S
N237 C230 1.356 . S
N237 H240 0.984 . S
N237 H241 0.985 . S
H238 N233 0.984 . S
H239 N233 0.985 . S
H240 N237 0.984 . S
H241 N237 0.985 . S
H242 N236 0.984 . S
H243 N236 0.984 . S
H244 N232 0.984 . S
H245 N232 0.985 . S
C246 C247 1.363 . S
C246 C252 1.379 . S
C246 N254 1.356 . S
C247 C246 1.363 . S
C247 C253 1.363 . S
C248 C249 1.363 . S
C248 C253 1.379 . S
C248 N255 1.356 . S
C249 C248 1.363 . S
C249 C252 1.363 . S
N250 C252 1.356 . S
N250 H262 0.984 . S
N250 H263 0.985 . S
N251 C253 1.356 . S
N251 H256 0.984 . S
N251 H257 0.985 . S
C252 C246 1.379 . S
C252 C249 1.363 . S
C252 N250 1.356 . S
C253 C247 1.363 . S
C253 C248 1.379 . S
C253 N251 1.356 . S
N254 C246 1.356 . S
N254 H260 0.984 . S
N254 H261 0.984 . S
N255 C248 1.356 . S
N255 H258 0.984 . S
N255 H259 0.985 . S
H256 N251 0.984 . S
H257 N251 0.985 . S
H258 N255 0.984 . S
H259 N255 0.985 . S
H260 N254 0.984 . S
H261 N254 0.984 . S
H262 N250 0.984 . S
H263 N250 0.985 . S
C264 C265 1.363 . S
C264 C270 1.379 . S
C264 N272 1.356 . S
C265 C264 1.363 . S
C265 C271 1.363 1_546 S
C266 C267 1.363 1_565 S
C266 C271 1.379 1_556 S
C266 N273 1.356 . S
C267 C266 1.363 1_545 S
C267 C270 1.363 . S
N268 C270 1.356 . S
N268 H280 0.984 . S
N268 H281 0.985 . S
N269 C271 1.356 . S
N269 H274 0.984 . S
N269 H275 0.985 . S
C270 C264 1.379 . S
C270 C267 1.363 . S
C270 N268 1.356 . S
C271 C265 1.363 1_564 S
C271 C266 1.379 1_554 S
C271 N269 1.356 . S
N272 C264 1.356 . S
N272 H278 0.984 . S
N272 H279 0.984 . S
N273 C266 1.356 . S
N273 H276 0.984 . S
N273 H277 0.985 . S
H274 N269 0.984 . S
H275 N269 0.985 . S
H276 N273 0.984 . S
H277 N273 0.985 . S
H278 N272 0.984 . S
H279 N272 0.984 . S
H280 N268 0.984 . S
H281 N268 0.985 . S
C282 C283 1.363 . S
C282 C288 1.379 . S
C282 N290 1.356 . S
C283 C282 1.363 . S
C283 C289 1.363 1_554 S
C284 C285 1.363 . S
C284 C289 1.379 . S
C284 N291 1.356 . S
C285 C284 1.363 . S
C285 C288 1.363 1_556 S
N286 C288 1.356 . S
N286 H298 0.984 . S
N286 H299 0.985 1_554 S
N287 C289 1.356 . S
N287 H292 0.984 1_556 S
N287 H293 0.985 . S
C288 C282 1.379 . S
C288 C285 1.363 1_554 S
C288 N286 1.356 . S
C289 C283 1.363 1_556 S
C289 C284 1.379 . S
C289 N287 1.356 . S
N290 C282 1.356 . S
N290 H296 0.984 . S
N290 H297 0.984 . S
N291 C284 1.356 . S
N291 H294 0.984 . S
N291 H295 0.985 . S
H292 N287 0.984 1_554 S
H293 N287 0.985 . S
H294 N291 0.984 . S
H295 N291 0.985 . S
H296 N290 0.984 . S
H297 N290 0.984 . S
H298 N286 0.984 . S
H299 N286 0.985 1_556 S
C300 C301 1.363 . S
C300 C306 1.379 . S
C300 N308 1.356 . S
C301 C300 1.363 . S
C301 C307 1.363 . S
C302 C303 1.363 . S
C302 C307 1.379 1_556 S
C302 N309 1.356 . S
C303 C302 1.363 . S
C303 C306 1.363 1_556 S
N304 C306 1.356 . S
N304 H316 0.984 . S
N304 H317 0.985 1_554 S
N305 C307 1.356 . S
N305 H310 0.984 . S
N305 H311 0.985 . S
C306 C300 1.379 . S
C306 C303 1.363 1_554 S
C306 N304 1.356 . S
C307 C301 1.363 . S
C307 C302 1.379 1_554 S
C307 N305 1.356 . S
N308 C300 1.356 . S
N308 H314 0.984 . S
N308 H315 0.984 . S
N309 C302 1.356 . S
N309 H312 0.984 . S
N309 H313 0.985 . S
H310 N305 0.984 . S
H311 N305 0.985 . S
H312 N309 0.984 . S
H313 N309 0.985 . S
H314 N308 0.984 . S
H315 N308 0.984 . S
H316 N304 0.984 . S
H317 N304 0.985 1_556 S
C318 C319 1.363 . S
C318 C324 1.379 1_554 S
C318 N326 1.356 . S
C319 C318 1.363 . S
C319 C325 1.363 1_554 S
C320 C321 1.363 . S
C320 C325 1.379 . S
C320 N327 1.356 . S
C321 C320 1.363 . S
C321 C324 1.363 . S
N322 C324 1.356 1_554 S
N322 H334 0.984 . S
N322 H335 0.985 1_554 S
N323 C325 1.356 . S
N323 H328 0.984 . S
N323 H329 0.985 . S
C324 C318 1.379 1_556 S
C324 C321 1.363 . S
C324 N322 1.356 1_556 S
C325 C319 1.363 1_556 S
C325 C320 1.379 . S
C325 N323 1.356 . S
N326 C318 1.356 . S
N326 H332 0.984 . S
N326 H333 0.984 . S
N327 C320 1.356 . S
N327 H330 0.984 . S
N327 H331 0.985 . S
H328 N323 0.984 . S
H329 N323 0.985 . S
H330 N327 0.984 . S
H331 N327 0.985 . S
H332 N326 0.984 . S
H333 N326 0.984 . S
H334 N322 0.984 . S
H335 N322 0.985 1_556 S
C336 C337 1.363 . S
C336 C342 1.379 . S
C336 N344 1.356 . S
C337 C336 1.363 . S
C337 C343 1.363 . S
C338 C339 1.363 . S
C338 C343 1.379 . S
C338 N345 1.356 . S
C339 C338 1.363 . S
C339 C342 1.363 . S
N340 C342 1.356 . S
N340 H352 0.984 . S
N340 H353 0.985 . S
N341 C343 1.356 . S
N341 H346 0.984 . S
N341 H347 0.985 . S
C342 C336 1.379 . S
C342 C339 1.363 . S
C342 N340 1.356 . S
C343 C337 1.363 . S
C343 C338 1.379 . S
C343 N341 1.356 . S
N344 C336 1.356 . S
N344 H350 0.984 . S
N344 H351 0.984 . S
N345 C338 1.356 . S
N345 H348 0.984 . S
N345 H349 0.985 . S
H346 N341 0.984 . S
H347 N341 0.985 . S
H348 N345 0.984 . S
H349 N345 0.985 . S
H350 N344 0.984 . S
H351 N344 0.984 . S
H352 N340 0.984 . S
H353 N340 0.985 . S
C354 C355 1.373 . S
C354 C360 1.379 . S
C354 N362 1.356 . S
C355 C354 1.373 . S
C355 C361 1.358 1_565 S
C356 C357 1.363 . S
C356 C361 1.379 1_565 S
C356 N363 1.356 . S
C357 C356 1.363 . S
C357 C360 1.363 . S
N358 C360 1.356 . S
N358 H370 0.984 . S
N358 H371 0.985 . S
N359 C361 1.356 . S
N359 H364 0.984 . S
N359 H365 0.985 . S
C360 C354 1.379 . S
C360 C357 1.363 . S
C360 N358 1.356 . S
C361 C355 1.358 1_545 S
C361 C356 1.379 1_545 S
C361 N359 1.356 . S
N362 C354 1.356 . S
N362 H368 0.984 . S
N362 H369 0.984 . S
N363 C356 1.356 . S
N363 H366 0.984 . S
N363 H367 0.985 1_565 S
H364 N359 0.984 . S
H365 N359 0.985 . S
H366 N363 0.984 . S
H367 N363 0.985 1_545 S
H368 N362 0.984 . S
H369 N362 0.984 . S
H370 N358 0.984 . S
H371 N358 0.985 . S
C372 C373 1.363 . S
C372 C378 1.379 . S
C372 N380 1.356 . S
C373 C372 1.363 . S
C373 C379 1.363 . S
C374 C375 1.363 . S
C374 C379 1.379 . S
C374 N381 1.356 . S
C375 C374 1.363 . S
C375 C378 1.363 . S
N376 C378 1.356 . S
N376 H388 0.984 . S
N376 H389 0.985 . S
N377 C379 1.356 . S
N377 H382 0.984 . S
N377 H383 0.985 . S
C378 C372 1.379 . S
C378 C375 1.363 . S
C378 N376 1.356 . S
C379 C373 1.363 . S
C379 C374 1.379 . S
C379 N377 1.356 . S
N380 C372 1.356 . S
N380 H386 0.984 . S
N380 H387 0.984 . S
N381 C374 1.356 . S
N381 H384 0.984 . S
N381 H385 0.985 . S
H382 N377 0.984 . S
H383 N377 0.985 . S
H384 N381 0.984 . S
H385 N381 0.985 . S
H386 N380 0.984 . S
H387 N380 0.984 . S
H388 N376 0.984 . S
H389 N376 0.985 . S
C390 C391 1.363 . S
C390 C396 1.379 . S
C390 N398 1.356 . S
C391 C390 1.363 . S
C391 C397 1.363 . S
C392 C393 1.363 . S
C392 C397 1.379 . S
C392 N399 1.356 . S
C393 C392 1.363 . S
C393 C396 1.363 . S
N394 C396 1.356 . S
N394 H406 0.984 . S
N394 H407 0.985 . S
N395 C397 1.356 . S
N395 H400 0.984 . S
N395 H401 0.985 . S
C396 C390 1.379 . S
C396 C393 1.363 . S
C396 N394 1.356 . S
C397 C391 1.363 . S
C397 C392 1.379 . S
C397 N395 1.356 . S
N398 C390 1.356 . S
N398 H404 0.984 . S
N398 H405 0.984 . S
N399 C392 1.356 . S
N399 H402 0.984 . S
N399 H403 0.985 . S
H400 N395 0.984 . S
H401 N395 0.985 . S
H402 N399 0.984 . S
H403 N399 0.985 . S
H404 N398 0.984 . S
H405 N398 0.984 . S
H406 N394 0.984 . S
H407 N394 0.985 . S
C408 C409 1.363 . S
C408 C414 1.379 . S
C408 N416 1.356 . S
C409 C408 1.363 . S
C409 C415 1.363 1_556 S
C410 C411 1.363 1_554 S
C410 C415 1.379 . S
C410 N417 1.356 . S
C411 C410 1.363 1_556 S
C411 C414 1.363 . S
N412 C414 1.356 1_455 S
N412 H424 0.984 . S
N412 H425 0.985 . S
N413 C415 1.356 . S
N413 H418 0.984 . S
N413 H419 0.985 . S
C414 C408 1.379 . S
C414 C411 1.363 . S
C414 N412 1.356 1_655 S
C415 C409 1.363 1_554 S
C415 C410 1.379 . S
C415 N413 1.356 . S
N416 C408 1.356 . S
N416 H422 0.984 . S
N416 H423 0.984 . S
N417 C410 1.356 . S
N417 H420 0.984 1_655 S
N417 H421 0.985 . S
H418 N413 0.984 . S
H419 N413 0.985 . S
H420 N417 0.984 1_455 S
H421 N417 0.985 . S
H422 N416 0.984 . S
H423 N416 0.984 . S
H424 N412 0.984 . S
H425 N412 0.985 . S
C426 C427 1.363 1_554 S
C426 C432 1.379 . S
C426 N434 1.356 1_545 S
C427 C426 1.363 1_556 S
C427 C433 1.363 . S
C428 C429 1.363 . S
C428 C433 1.379 . S
C428 N435 1.356 . S
C429 C428 1.363 . S
C429 C432 1.363 1_556 S
N430 C432 1.356 . S
N430 H442 0.984 . S
N430 H443 0.985 . S
N431 C433 1.356 . S
N431 H436 0.986 . S
N431 H437 0.985 . S
C432 C426 1.379 . S
C432 C429 1.363 1_554 S
C432 N430 1.356 . S
C433 C427 1.363 . S
C433 C428 1.379 . S
C433 N431 1.356 . S
N434 C426 1.356 1_565 S
N434 H440 0.984 . S
N434 H441 0.984 . S
N435 C428 1.356 . S
N435 H438 0.984 . S
N435 H439 0.985 . S
H436 N431 0.986 . S
H437 N431 0.985 . S
H438 N435 0.984 . S
H439 N435 0.985 . S
H440 N434 0.984 . S
H441 N434 0.984 . S
H442 N430 0.984 . S
H443 N430 0.985 . S
C444 C445 1.363 . S
C444 C450 1.379 . S
C444 N452 1.356 . S
C445 C444 1.363 . S
C445 C451 1.363 1_554 S
C446 C447 1.363 . S
C446 C451 1.379 . S
C446 N453 1.356 . S
C447 C446 1.363 . S
C447 C450 1.363 1_556 S
N448 C450 1.356 . S
N448 H460 0.984 . S
N448 H461 0.985 . S
N449 C451 1.356 . S
N449 H454 0.984 . S
N449 H455 0.985 . S
C450 C444 1.379 . S
C450 C447 1.363 1_554 S
C450 N448 1.356 . S
C451 C445 1.363 1_556 S
C451 C446 1.379 . S
C451 N449 1.356 . S
N452 C444 1.356 . S
N452 H458 0.984 . S
N452 H459 0.984 . S
N453 C446 1.356 . S
N453 H456 0.984 . S
N453 H457 0.985 . S
H454 N449 0.984 . S
H455 N449 0.985 . S
H456 N453 0.984 . S
H457 N453 0.985 . S
H458 N452 0.984 . S
H459 N452 0.984 . S
H460 N448 0.984 . S
H461 N448 0.985 . S
C462 C463 1.363 . S
C462 C468 1.379 . S
C462 N470 1.356 . S
C463 C462 1.363 . S
C463 C469 1.363 . S
C464 C465 1.363 . S
C464 C469 1.379 1_556 S
C464 N471 1.356 . S
C465 C464 1.363 . S
C465 C468 1.363 1_556 S
N466 C468 1.356 . S
N466 H478 0.984 . S
N466 H479 0.985 1_554 S
N467 C469 1.356 . S
N467 H472 0.984 . S
N467 H473 0.985 1_554 S
C468 C462 1.379 . S
C468 C465 1.363 1_554 S
C468 N466 1.356 . S
C469 C463 1.363 . S
C469 C464 1.379 1_554 S
C469 N467 1.356 . S
N470 C462 1.356 . S
N470 H476 0.984 . S
N470 H477 0.984 . S
N471 C464 1.356 . S
N471 H474 0.984 . S
N471 H475 0.985 . S
H472 N467 0.984 . S
H473 N467 0.985 1_556 S
H474 N471 0.984 . S
H475 N471 0.985 . S
H476 N470 0.984 . S
H477 N470 0.984 . S
H478 N466 0.984 . S
H479 N466 0.985 1_556 S
C480 C481 1.363 . S
C480 C486 1.379 . S
C480 N488 1.356 . S
C481 C480 1.363 . S
C481 C487 1.363 . S
C482 C483 1.363 . S
C482 C487 1.379 . S
C482 N489 1.356 . S
C483 C482 1.363 . S
C483 C486 1.363 . S
N484 C486 1.356 . S
N484 H496 0.984 . S
N484 H497 0.985 . S
N485 C487 1.356 . S
N485 H490 0.984 . S
N485 H491 0.985 . S
C486 C480 1.379 . S
C486 C483 1.363 . S
C486 N484 1.356 . S
C487 C481 1.363 . S
C487 C482 1.379 . S
C487 N485 1.356 . S
N488 C480 1.356 . S
N488 H494 0.984 . S
N488 H495 0.984 . S
N489 C482 1.356 . S
N489 H492 0.984 . S
N489 H493 0.985 . S
H490 N485 0.984 . S
H491 N485 0.985 . S
H492 N489 0.984 . S
H493 N489 0.985 . S
H494 N488 0.984 . S
H495 N488 0.984 . S
H496 N484 0.984 . S
H497 N484 0.985 . S
C498 C499 1.363 . S
C498 C504 1.379 . S
C498 N506 1.356 . S
C499 C498 1.363 . S
C499 C505 1.363 1_545 S
C500 C501 1.363 1_565 S
C500 C505 1.379 . S
C500 N507 1.356 . S
C501 C500 1.363 1_545 S
C501 C504 1.363 . S
N502 C504 1.356 . S
N502 H514 0.984 . S
N502 H515 0.985 . S
N503 C505 1.356 . S
N503 H508 0.984 . S
N503 H509 0.985 . S
C504 C498 1.379 . S
C504 C501 1.363 . S
C504 N502 1.356 . S
C505 C499 1.363 1_565 S
C505 C500 1.379 . S
C505 N503 1.356 . S
N506 C498 1.356 . S
N506 H512 0.984 . S
N506 H513 0.984 . S
N507 C500 1.356 . S
N507 H510 0.984 . S
N507 H511 0.985 . S
H508 N503 0.984 . S
H509 N503 0.985 . S
H510 N507 0.984 . S
H511 N507 0.985 . S
H512 N506 0.984 . S
H513 N506 0.984 . S
H514 N502 0.984 . S
H515 N502 0.985 . S
C516 C517 1.363 . S
C516 C522 1.379 . S
C516 N524 1.356 . S
C517 C516 1.363 . S
C517 C523 1.363 . S
C518 C519 1.363 . S
C518 C523 1.379 . S
C518 N525 1.356 1_554 S
C519 C518 1.363 . S
C519 C522 1.363 . S
N520 C522 1.356 . S
N520 H532 0.984 . S
N520 H533 0.985 . S
N521 C523 1.356 . S
N521 H526 0.984 . S
N521 H527 0.985 . S
C522 C516 1.379 . S
C522 C519 1.363 . S
C522 N520 1.356 . S
C523 C517 1.363 . S
C523 C518 1.379 . S
C523 N521 1.356 . S
N524 C516 1.356 . S
N524 H530 0.984 . S
N524 H531 0.984 . S
N525 C518 1.356 1_556 S
N525 H528 0.984 . S
N525 H529 0.985 . S
H526 N521 0.984 . S
H527 N521 0.985 . S
H528 N525 0.984 . S
H529 N525 0.985 . S
H530 N524 0.984 . S
H531 N524 0.984 . S
H532 N520 0.984 . S
H533 N520 0.985 . S
C534 C535 1.363 . S
C534 C540 1.379 . S
C534 N542 1.356 . S
C535 C534 1.363 . S
C535 C541 1.363 . S
C536 C537 1.363 . S
C536 C541 1.379 . S
C536 N543 1.356 . S
C537 C536 1.363 . S
C537 C540 1.363 . S
N538 C540 1.356 1_556 S
N538 H550 0.984 . S
N538 H551 0.985 . S
N539 C541 1.356 . S
N539 H544 0.984 . S
N539 H545 0.985 . S
C540 C534 1.379 . S
C540 C537 1.363 . S
C540 N538 1.356 1_554 S
C541 C535 1.363 . S
C541 C536 1.379 . S
C541 N539 1.356 . S
N542 C534 1.356 . S
N542 H548 0.984 . S
N542 H549 0.984 . S
N543 C536 1.356 . S
N543 H546 0.984 . S
N543 H547 0.985 . S
H544 N539 0.984 . S
H545 N539 0.985 . S
H546 N543 0.984 . S
H547 N543 0.985 . S
H548 N542 0.984 . S
H549 N542 0.984 . S
H550 N538 0.984 . S
H551 N538 0.985 . S
C552 C553 1.363 . S
C552 C558 1.379 . S
C552 N560 1.356 . S
C553 C552 1.363 . S
C553 C559 1.363 . S
C554 C555 1.363 . S
C554 C559 1.379 . S
C554 N561 1.356 . S
C555 C554 1.363 . S
C555 C558 1.363 . S
N556 C558 1.356 . S
N556 H568 0.984 1_655 S
N556 H569 0.985 . S
N557 C559 1.356 . S
N557 H562 0.984 . S
N557 H563 0.985 . S
C558 C552 1.379 . S
C558 C555 1.363 . S
C558 N556 1.356 . S
C559 C553 1.363 . S
C559 C554 1.379 . S
C559 N557 1.356 . S
N560 C552 1.356 . S
N560 H566 0.984 . S
N560 H567 0.984 . S
N561 C554 1.356 . S
N561 H564 0.984 . S
N561 H565 0.985 . S
H562 N557 0.984 . S
H563 N557 0.985 . S
H564 N561 0.984 . S
H565 N561 0.985 . S
H566 N560 0.984 . S
H567 N560 0.984 . S
H568 N556 0.984 1_455 S
H569 N556 0.985 . S
C570 C571 1.363 1_545 S
C570 C576 1.379 . S
C570 N578 1.356 . S
C571 C570 1.363 1_565 S
C571 C577 1.363 . S
C572 C573 1.363 . S
C572 C577 1.379 . S
C572 N579 1.356 . S
C573 C572 1.363 . S
C573 C576 1.363 1_565 S
N574 C576 1.356 . S
N574 H586 0.984 . S
N574 H587 0.985 . S
N575 C577 1.356 . S
N575 H580 0.984 . S
N575 H581 0.985 . S
C576 C570 1.379 . S
C576 C573 1.363 1_545 S
C576 N574 1.356 . S
C577 C571 1.363 . S
C577 C572 1.379 . S
C577 N575 1.356 . S
N578 C570 1.356 . S
N578 H584 0.984 . S
N578 H585 0.984 . S
N579 C572 1.356 . S
N579 H582 0.984 . S
N579 H583 0.985 . S
H580 N575 0.984 . S
H581 N575 0.985 . S
H582 N579 0.984 . S
H583 N579 0.985 . S
H584 N578 0.984 . S
H585 N578 0.984 . S
H586 N574 0.984 . S
H587 N574 0.985 . S
C588 C589 1.363 . S
C588 C594 1.379 . S
C588 N596 1.356 . S
C589 C588 1.363 . S
C589 C595 1.363 . S
C590 C591 1.363 . S
C590 C595 1.379 . S
C590 N597 1.356 . S
C591 C590 1.363 . S
C591 C594 1.363 . S
N592 C594 1.356 . S
N592 H604 0.984 . S
N592 H605 0.985 . S
N593 C595 1.356 . S
N593 H598 0.984 . S
N593 H599 0.985 . S
C594 C588 1.379 . S
C594 C591 1.363 . S
C594 N592 1.356 . S
C595 C589 1.363 . S
C595 C590 1.379 . S
C595 N593 1.356 . S
N596 C588 1.356 . S
N596 H602 0.984 . S
N596 H603 0.984 . S
N597 C590 1.356 . S
N597 H600 0.984 . S
N597 H601 0.985 . S
H598 N593 0.984 . S
H599 N593 0.985 . S
H600 N597 0.984 . S
H601 N597 0.985 . S
H602 N596 0.984 . S
H603 N596 0.984 . S
H604 N592 0.984 . S
H605 N592 0.985 . S
C606 C607 1.363 . S
C606 C612 1.379 . S
C606 N614 1.356 . S
C607 C606 1.363 . S
C607 C613 1.363 . S
C608 C609 1.363 . S
C608 C613 1.379 . S
C608 N615 1.356 . S
C609 C608 1.363 . S
C609 C612 1.363 . S
N610 C612 1.356 . S
N610 H622 0.984 . S
N610 H623 0.985 . S
N611 C613 1.356 . S
N611 H616 0.984 . S
N611 H617 0.985 . S
C612 C606 1.379 . S
C612 C609 1.363 . S
C612 N610 1.356 . S
C613 C607 1.363 . S
C613 C608 1.379 . S
C613 N611 1.356 . S
N614 C606 1.356 . S
N614 H620 0.984 . S
N614 H621 0.984 . S
N615 C608 1.356 . S
N615 H618 0.984 . S
N615 H619 0.985 . S
H616 N611 0.984 . S
H617 N611 0.985 . S
H618 N615 0.984 . S
H619 N615 0.985 . S
H620 N614 0.984 . S
H621 N614 0.984 . S
H622 N610 0.984 . S
H623 N610 0.985 . S
C193 C61 1.677 . S
C195 C82 1.666 . S
C213 C112 1.792 . S
C211 C70 1.767 . S
C231 N146 1.353 . S
C229 C43 1.405 . S
C249 N176 1.524 . S
C247 C52 1.512 . S
C267 C73 1.666 . S
C265 C25 1.681 1_546 S
C283 C34 1.763 . S
C285 C103 1.795 . S
C301 C7 1.404 . S
C303 N138 1.353 . S
C319 C16 1.520 . S
C321 N168 1.524 . S
C339 C88 0.803 . S
C337 C50 0.775 . S
C357 C118 0.905 . S
C355 C59 0.888 . S
C375 C159 1.196 . S
C373 C67 1.179 . S
C391 C41 0.691 . S
C393 C189 0.693 . S
C409 C14 0.781 . S
C411 C99 0.805 . S
C429 C129 0.905 . S
C427 C23 0.889 1_545 S
C447 C148 1.196 . S
C445 C31 1.175 . S
C463 C5 0.690 . S
C465 C178 0.693 . S
C481 C49 1.520 . S
C483 N78 1.554 . S
C499 C58 1.442 1_545 S
C501 N108 1.459 . S
C519 C133 1.717 1_554 S
C517 C68 1.666 . S
C537 C163 1.536 1_554 S
C535 C40 1.495 . S
C553 C13 1.524 . S
C555 N86 1.558 . S
C573 N116 1.459 . S
C571 C22 1.440 . S
C591 C142 1.717 . S
C589 C32 1.662 . S
C607 C4 1.493 . S
C609 C172 1.536 . S
