# Generated by pormake.
# Topology anh, (6,3)-cn, num edge types: 1
# Building blocks:
#     Node 0, Type 0, BuildingBlock: NUHQIS_clean_sbu_0, # of connection points: 6
#     Node 1, Type 0, BuildingBlock: NUHQIS_clean_sbu_0, # of connection points: 6
#     Node 2, Type 0, BuildingBlock: NUHQIS_clean_sbu_0, # of connection points: 6
#     Node 3, Type 1, BuildingBlock: MIDCAF_clean_linker_0, # of connection points: 3
#     Node 4, Type 1, BuildingBlock: MIDCAF_clean_linker_0, # of connection points: 3
#     Node 5, Type 1, BuildingBlock: MIDCAF_clean_linker_0, # of connection points: 3
#     Node 6, Type 1, BuildingBlock: MIDCAF_clean_linker_0, # of connection points: 3
#     Node 7, Type 1, BuildingBlock: MIDCAF_clean_linker_0, # of connection points: 3
#     Node 8, Type 1, BuildingBlock: MIDCAF_clean_linker_0, # of connection points: 3
#     Edge 9, Type (0, 1), BuildingBlock: UVAHIK_clean_linker_0, # of connection points: 2
#     Edge 10, Type (0, 1), BuildingBlock: UVAHIK_clean_linker_0, # of connection points: 2
#     Edge 11, Type (0, 1), BuildingBlock: UVAHIK_clean_linker_0, # of connection points: 2
#     Edge 12, Type (0, 1), BuildingBlock: UVAHIK_clean_linker_0, # of connection points: 2
#     Edge 13, Type (0, 1), BuildingBlock: UVAHIK_clean_linker_0, # of connection points: 2
#     Edge 14, Type (0, 1), BuildingBlock: UVAHIK_clean_linker_0, # of connection points: 2
#     Edge 15, Type (0, 1), BuildingBlock: UVAHIK_clean_linker_0, # of connection points: 2
#     Edge 16, Type (0, 1), BuildingBlock: UVAHIK_clean_linker_0, # of connection points: 2
#     Edge 17, Type (0, 1), BuildingBlock: UVAHIK_clean_linker_0, # of connection points: 2
#     Edge 18, Type (0, 1), BuildingBlock: UVAHIK_clean_linker_0, # of connection points: 2
#     Edge 19, Type (0, 1), BuildingBlock: UVAHIK_clean_linker_0, # of connection points: 2
#     Edge 20, Type (0, 1), BuildingBlock: UVAHIK_clean_linker_0, # of connection points: 2
#     Edge 21, Type (0, 1), BuildingBlock: UVAHIK_clean_linker_0, # of connection points: 2
#     Edge 22, Type (0, 1), BuildingBlock: UVAHIK_clean_linker_0, # of connection points: 2
#     Edge 23, Type (0, 1), BuildingBlock: UVAHIK_clean_linker_0, # of connection points: 2
#     Edge 24, Type (0, 1), BuildingBlock: UVAHIK_clean_linker_0, # of connection points: 2
#     Edge 25, Type (0, 1), BuildingBlock: UVAHIK_clean_linker_0, # of connection points: 2
#     Edge 26, Type (0, 1), BuildingBlock: UVAHIK_clean_linker_0, # of connection points: 2
# Relax obj value: 0.204
# Max RMSD: 0.184
# Mean RMSD: 0.150
data_MOF--net-anh--node1-NUHQIS_clean_sbu_0--node2-MIDCAF_clean_linker_0--edge1-UVAHIK_clean_linker_0
_symmetry_space_group_name_H-M    P1
_symmetry_Int_Tables_number       1
_symmetry_cell_setting            triclinic
loop_
_symmetry_equiv_pos_as_xyz
'x, y, z'
_cell_length_a     45.181243
_cell_length_b     45.166737
_cell_length_c     81.94428
_cell_angle_alpha  90.687341
_cell_angle_beta   92.538597
_cell_angle_gamma 120.12129
loop_
_atom_site_label
_atom_site_type_symbol
_atom_site_fract_x
_atom_site_fract_y
_atom_site_fract_z
_atom_type_partial_charge
Tb0 Tb 0.11411 0.56323 0.1603 0.0
Eu1 Eu 0.07224 0.60448 0.15967 0.0
C2 C 0.09561 0.5843 0.19236 0.0
C3 C 1.03184 0.52155 0.16002 0.0
C4 C 0.17999 0.54037 0.17079 0.0
C5 C 0.21686 0.52112 0.18301 0.0
C6 C 0.18581 0.51377 0.17509 0.0
C7 C 0.20508 0.57445 0.17495 0.0
C8 C 0.23629 0.58186 0.18277 0.0
C9 C 0.24261 0.55526 0.18671 0.0
C10 C 0.14733 0.53219 0.16239 0.0
O11 O 0.09344 0.55791 0.1352 0.0
O12 O 0.09043 0.60701 0.13438 0.0
O13 O 0.12771 0.64618 0.16472 0.0
O14 O 0.15483 0.61664 0.15765 0.0
C15 C 0.09197 0.58197 0.12694 0.0
O16 O 1.03418 0.61558 0.14863 0.0
O17 O 1.06065 0.64045 0.17181 0.0
O18 O 0.06896 0.58203 0.18424 0.0
O19 O 0.12125 0.58663 0.18452 0.0
O20 O 1.0611 0.52319 0.16439 0.0
O21 O 1.03107 0.54881 0.15518 0.0
C22 C 0.15577 0.64552 0.16166 0.0
O23 O 0.12316 0.52721 0.17197 0.0
O24 O 0.14902 0.55135 0.15027 0.0
C25 C 1.0006 0.61604 0.16938 0.0
C26 C 0.93414 0.56956 0.17868 0.0
C27 C 0.93897 0.59078 0.16541 0.0
C28 C 0.97201 0.61379 0.16077 0.0
C29 C 0.99579 0.5969 0.18343 0.0
C30 C 0.96288 0.57391 0.18804 0.0
C31 C 1.0339 0.63179 0.16187 0.0
H32 H 0.22122 0.50013 0.18565 0.0
H33 H 0.16653 0.48734 0.17211 0.0
H34 H 0.20071 0.5953 0.17195 0.0
H35 H 0.25565 0.60835 0.18552 0.0
H36 H 0.91726 0.58777 0.15787 0.0
H37 H 0.97511 0.62793 0.14977 0.0
H38 H 1.01735 0.59786 0.19025 0.0
H39 H 0.95991 0.55819 0.19842 0.0
Tb40 Tb 0.63285 0.09458 0.4964 0.0
Eu41 Eu 0.55003 0.05426 0.49349 0.0
C42 C 0.59184 0.07061 0.52743 0.0
C43 C 0.59269 1.01364 0.49551 0.0
C44 C 0.71559 0.17035 0.49792 0.0
C45 C 0.74471 0.22688 0.51139 0.0
C46 C 0.73445 0.19211 0.51144 0.0
C47 C 0.70908 0.18438 0.48394 0.0
C48 C 0.71966 0.21917 0.48382 0.0
C49 C 0.73656 0.24061 0.49775 0.0
C50 C 0.6966 0.13304 0.49991 0.0
O51 O 0.62051 0.10117 0.47114 0.0
O52 O 0.56523 0.05653 0.46764 0.0
O53 O 0.56477 0.10899 0.48823 0.0
O54 O 0.61804 0.1334 0.50134 0.0
C55 C 0.59365 0.08003 0.46162 0.0
O56 O 0.50111 1.01302 0.48303 0.0
O57 O 0.50188 0.04582 0.50267 0.0
O58 O 0.56757 0.07313 0.51949 0.0
O59 O 0.61609 0.07001 0.51955 0.0
O60 O 0.61986 1.0415 0.49078 0.0
O61 O 0.56551 1.0147 0.49989 0.0
C62 C 0.59221 0.13606 0.4949 0.0
O63 O 0.67648 0.12372 0.51202 0.0
O64 O 0.68133 0.11363 0.48678 0.0
C65 C 0.46382 0.98683 0.50374 0.0
C66 C 0.42868 0.92389 0.519 0.0
C67 C 0.41122 0.9338 0.50766 0.0
C68 C 0.42876 0.96504 0.50002 0.0
C69 C 0.48093 0.9778 0.51562 0.0
C70 C 0.46353 0.94655 0.52317 0.0
C71 C 0.48366 1.01711 0.49419 0.0
H72 H 0.75754 0.24258 0.52236 0.0
H73 H 0.73926 0.18177 0.52245 0.0
H74 H 0.69427 0.16825 0.47337 0.0
H75 H 0.7138 0.22905 0.47294 0.0
H76 H 0.38446 0.91661 0.50405 0.0
H77 H 0.4153 0.97156 0.49077 0.0
H78 H 0.5081 0.99439 0.51861 0.0
H79 H 0.47753 0.93965 0.53192 0.0
Tb80 Tb 0.60912 0.60953 0.82896 0.0
Eu81 Eu 0.56985 0.52647 0.82374 0.0
C82 C 0.59005 0.56241 0.85857 0.0
C83 C 0.65337 0.57204 0.8273 0.0
C84 C 0.61854 0.68962 0.84276 0.0
C85 C 0.57137 0.68315 0.85841 0.0
C86 C 0.59252 0.67095 0.85345 0.0
C87 C 0.62459 0.72177 0.83798 0.0
C88 C 0.60343 0.7341 0.843 0.0
C89 C 0.57578 0.7142 0.85273 0.0
C90 C 0.63468 0.67276 0.83453 0.0
O91 O 0.61383 0.599 0.80334 0.0
O92 O 0.56465 0.54715 0.79976 0.0
O93 O 0.52694 0.53706 0.82876 0.0
O94 O 0.55488 0.59535 0.82571 0.0
C95 C 0.58944 0.57471 0.79369 0.0
O96 O 0.56003 0.48045 0.81005 0.0
O97 O 0.53475 0.47602 0.83254 0.0
O98 O 0.59276 0.54025 0.84935 0.0
O99 O 0.58747 0.58733 0.85198 0.0
O100 O 0.65137 0.59877 0.83245 0.0
O101 O 0.62606 0.5439 0.82132 0.0
C102 C 0.52659 0.56596 0.82767 0.0
O103 O 0.64196 0.65348 0.84362 0.0
O104 O 0.61926 0.65732 0.82058 0.0
C105 C 0.55674 0.43975 0.82833 0.0
C106 C 0.58581 0.4016 0.84058 0.0
C107 C 0.55373 0.38518 0.83178 0.0
C108 C 0.5393 0.40419 0.82567 0.0
C109 C 0.58837 0.45614 0.83737 0.0
C110 C 0.60282 0.43725 0.84343 0.0
C111 C 0.54275 0.46035 0.82162 0.0
H112 H 0.55037 0.6674 0.86596 0.0
H113 H 0.58712 0.64589 0.85719 0.0
H114 H 0.64424 0.73631 0.82957 0.0
H115 H 0.60714 0.75798 0.8383 0.0
H116 H 0.54027 0.35778 0.82919 0.0
H117 H 0.51488 0.39124 0.81871 0.0
H118 H 0.60208 0.48366 0.8396 0.0
H119 H 0.62738 0.45054 0.85026 0.0
C120 C 0.50501 0.96508 0.20206 0.0
C121 C 0.48729 0.96348 0.18722 0.0
C122 C 0.50116 0.99346 0.178 0.0
C123 C 0.53117 1.02403 0.18373 0.0
H124 H 0.65182 0.12232 0.17675 0.0
H125 H 0.70109 0.1739 0.16659 0.0
H126 H 0.71047 0.22897 0.21174 0.0
H127 H 0.66171 0.17894 0.22144 0.0
H128 H 0.64207 0.14225 0.25395 0.0
H129 H 0.64219 0.14338 0.28372 0.0
H130 H 0.56469 1.03611 0.2819 0.0
H131 H 0.56385 1.03516 0.25226 0.0
H132 H 0.54661 0.99488 0.21938 0.0
H133 H 0.4954 0.94332 0.20983 0.0
H134 H 0.48869 0.99346 0.16642 0.0
H135 H 0.54036 0.04676 0.17664 0.0
N136 N 0.60004 0.08584 0.19891 0.0
N137 N 0.62527 0.11495 0.22431 0.0
N138 N 0.57791 0.05984 0.22369 0.0
C139 C 0.62491 0.11457 0.20767 0.0
C140 C 0.60205 0.08786 0.23242 0.0
C141 C 0.57625 0.05816 0.20708 0.0
C142 C 0.65242 0.14603 0.19998 0.0
C143 C 0.66409 0.14566 0.18434 0.0
C144 C 0.69269 0.17526 0.1786 0.0
C145 C 0.71018 0.20614 0.18826 0.0
C146 C 0.69778 0.20635 0.20368 0.0
C147 C 0.66962 0.17712 0.20936 0.0
C148 C 0.60285 0.08866 0.25061 0.0
C149 C 0.62504 0.11889 0.25989 0.0
C150 C 0.62525 0.11949 0.27701 0.0
C151 C 0.60335 0.08987 0.28529 0.0
C152 C 0.58145 0.05961 0.27599 0.0
C153 C 0.58113 0.05903 0.25892 0.0
C154 C 0.54797 1.02547 0.19888 0.0
C155 C 0.53463 0.99519 0.20768 0.0
C156 C 0.57027 0.45642 0.53403 0.0
C157 C 0.59005 0.4569 0.52114 0.0
C158 C 0.6075 0.48771 0.51271 0.0
C159 C 0.60671 0.5175 0.51771 0.0
H160 H 0.57408 0.6134 0.50889 0.0
H161 H 0.57508 0.66541 0.49924 0.0
H162 H 0.63202 0.72009 0.54385 0.0
H163 H 0.63209 0.66964 0.55293 0.0
H164 H 0.60564 0.63039 0.58523 0.0
H165 H 0.60559 0.63126 0.61494 0.0
H166 H 0.58538 0.52711 0.61467 0.0
H167 H 0.58488 0.52592 0.58492 0.0
H168 H 0.55473 0.4842 0.54933 0.0
H169 H 0.55557 0.43324 0.54058 0.0
H170 H 0.623 0.48928 0.50269 0.0
H171 H 0.62181 0.5411 0.51152 0.0
N172 N 0.59568 0.57703 0.53093 0.0
N173 N 0.59884 0.60475 0.55607 0.0
N174 N 0.59172 0.54998 0.55588 0.0
C175 C 0.59905 0.60515 0.53949 0.0
C176 C 0.5952 0.57753 0.56438 0.0
C177 C 0.59199 0.54912 0.53928 0.0
C178 C 0.60301 0.63698 0.53172 0.0
C179 C 0.58748 0.63682 0.5164 0.0
C180 C 0.58768 0.66666 0.51098 0.0
C181 C 0.60366 0.69755 0.52068 0.0
C182 C 0.61993 0.69754 0.53573 0.0
C183 C 0.61971 0.6681 0.54107 0.0
C184 C 0.59523 0.57806 0.58257 0.0
C185 C 0.60113 0.60759 0.59145 0.0
C186 C 0.60133 0.60821 0.60854 0.0
C187 C 0.59551 0.57928 0.61723 0.0
C188 C 0.58955 0.54973 0.60837 0.0
C189 C 0.58947 0.54913 0.59128 0.0
C190 C 0.5884 0.51718 0.53126 0.0
C191 C 0.56954 0.48584 0.53898 0.0
C192 C 1.00415 0.6041 0.86418 0.0
C193 C 0.9817 0.58105 0.85168 0.0
C194 C 0.99115 0.55865 0.84437 0.0
C195 C 1.02138 0.55864 0.8498 0.0
H196 H 0.14025 0.57523 0.84123 0.0
H197 H 0.1899 0.5724 0.83178 0.0
H198 H 0.21325 0.55461 0.88109 0.0
H199 H 0.16428 0.5559 0.89016 0.0
H200 H 0.1156 0.54105 0.91875 0.0
H201 H 0.1139 0.54042 0.94836 0.0
H202 H 0.07025 0.60657 0.94682 0.0
H203 H 0.06994 0.60511 0.91713 0.0
H204 H 1.04946 0.62115 0.87975 0.0
H205 H 0.99802 0.62144 0.87041 0.0
H206 H 0.9749 0.54067 0.83461 0.0
H207 H 1.02696 0.54007 0.84445 0.0
N208 N 0.09448 0.57227 0.8641 0.0
N209 N 0.1172 0.56875 0.88998 0.0
N210 N 0.07024 0.577 0.88827 0.0
C211 C 0.11862 0.5687 0.87343 0.0
C212 C 0.09339 0.57288 0.89749 0.0
C213 C 0.07005 0.57643 0.87167 0.0
C214 C 0.14759 0.5657 0.86651 0.0
C215 C 0.15578 0.57027 0.84997 0.0
C216 C 0.18457 0.56893 0.84458 0.0
C217 C 0.20592 0.56287 0.85557 0.0
C218 C 0.19744 0.55838 0.87201 0.0
C219 C 0.16902 0.55953 0.8773 0.0
C220 C 0.09283 0.57306 0.91558 0.0
C221 C 0.10558 0.55538 0.92477 0.0
C222 C 0.10482 0.55528 0.94183 0.0
C223 C 0.09204 0.57355 0.95023 0.0
C224 C 0.07961 0.59152 0.94094 0.0
C225 C 0.07964 0.59094 0.92385 0.0
C226 C 1.04277 0.58081 0.86279 0.0
C227 C 1.03391 0.6039 0.86961 0.0
C228 C 0.18312 0.62302 0.46538 0.0
C229 C 0.17723 0.62124 0.48215 0.0
C230 C 0.14342 0.60666 0.48693 0.0
C231 C 0.11632 0.59623 0.47525 0.0
H232 H 1.02707 0.60222 0.47037 0.0
H233 H 0.97231 0.58371 0.48224 0.0
H234 H 0.91938 0.52822 0.43706 0.0
H235 H 0.97412 0.54768 0.42502 0.0
H236 H 1.0205 0.55629 0.39484 0.0
H237 H 1.02634 0.55365 0.36564 0.0
H238 H 0.1365 0.60481 0.3738 0.0
H239 H 0.13059 0.60641 0.40318 0.0
H240 H 0.16148 0.61548 0.44087 0.0
H241 H 0.20895 0.63447 0.46132 0.0
H242 H 0.13804 0.60448 0.49975 0.0
H243 H 0.09071 0.58611 0.47943 0.0
N244 N 1.06409 0.58839 0.45158 0.0
N245 N 1.04137 0.57941 0.42458 0.0
N246 N 0.09765 0.59074 0.43009 0.0
C247 C 1.03773 0.58192 0.4408 0.0
C248 C 0.07133 0.584 0.41912 0.0
C249 C 0.09402 0.59265 0.44639 0.0
C250 C 1.00487 0.5757 0.44689 0.0
C251 C 1.00373 0.58662 0.46286 0.0
C252 C 0.97235 0.57607 0.46966 0.0
C253 C 0.94147 0.55398 0.46072 0.0
C254 C 0.94264 0.54543 0.44428 0.0
C255 C 0.97408 0.55634 0.4374 0.0
C256 C 0.07509 0.58175 0.40136 0.0
C257 C 1.04601 0.56697 0.39044 0.0
C258 C 1.04937 0.56561 0.37366 0.0
C259 C 0.08192 0.57934 0.36732 0.0
C260 C 0.11102 0.59367 0.37826 0.0
C261 C 0.10764 0.59474 0.39511 0.0
C262 C 0.12239 0.6 0.4585 0.0
C263 C 0.15593 0.61243 0.45366 0.0
C264 C 0.60875 0.13297 0.79405 0.0
C265 C 0.60542 0.12923 0.81099 0.0
C266 C 0.58431 0.0965 0.81687 0.0
C267 C 0.56558 0.06841 0.80603 0.0
H268 H 0.46768 0.97888 0.80114 0.0
H269 H 0.43788 0.9272 0.81655 0.0
H270 H 0.44755 0.86846 0.7773 0.0
H271 H 0.47683 0.92018 0.76169 0.0
H272 H 0.51106 0.96571 0.72787 0.0
H273 H 0.52084 0.97115 0.69862 0.0
H274 H 0.57179 0.08123 0.70485 0.0
H275 H 0.56236 0.07605 0.73397 0.0
H276 H 0.59242 0.10877 0.77018 0.0
H277 H 0.62447 0.15796 0.78912 0.0
H278 H 0.58156 0.09275 0.82987 0.0
H279 H 0.54898 1.0437 0.81101 0.0
N280 N 0.52072 1.01341 0.78342 0.0
N281 N 0.50585 0.98786 0.75702 0.0
N282 N 0.55027 1.045 0.76133 0.0
C283 C 0.50062 0.98588 0.77328 0.0
C284 C 0.53047 1.01761 0.75095 0.0
C285 C 0.54572 1.04294 0.77761 0.0
C286 C 0.47535 0.95363 0.78041 0.0
C287 C 0.46261 0.95476 0.7956 0.0
C288 C 0.44546 0.92518 0.80442 0.0
C289 C 0.44104 0.89398 0.79829 0.0
C290 C 0.45049 0.89214 0.78233 0.0
C291 C 0.46745 0.9218 0.77341 0.0
C292 C 0.53592 1.02044 0.73324 0.0
C293 C 0.52429 0.99106 0.72299 0.0
C294 C 0.53004 0.99413 0.70629 0.0
C295 C 0.54698 1.02659 0.69953 0.0
C296 C 0.55842 0.0559 0.70975 0.0
C297 C 0.55316 0.05288 0.72644 0.0
C298 C 0.56763 0.07238 0.78904 0.0
C299 C 0.59009 0.10481 0.78317 0.0
C300 C 0.61694 0.39537 0.10623 0.0
C301 C 0.62092 0.39455 0.12333 0.0
C302 C 0.60364 0.40594 0.1332 0.0
C303 C 0.58479 0.41975 0.12627 0.0
H304 H 0.54881 0.48069 0.14009 0.0
H305 H 0.52166 0.50041 0.15905 0.0
H306 H 0.46987 0.51906 0.11841 0.0
H307 H 0.49696 0.49938 0.09933 0.0
H308 H 0.52084 0.49548 0.06347 0.0
H309 H 0.52508 0.51068 0.03492 0.0
H310 H 0.59521 0.47335 0.0286 0.0
H311 H 0.59127 0.45824 0.05723 0.0
H312 H 0.59686 0.41111 0.0861 0.0
H313 H 0.62938 0.38627 0.09823 0.0
H314 H 0.6064 0.40635 0.14641 0.0
H315 H 0.57309 0.42944 0.13442 0.0
N316 N 0.55297 0.45512 0.11253 0.0
N317 N 0.54001 0.48013 0.09059 0.0
N318 N 0.5676 0.44861 0.0862 0.0
C319 C 0.53951 0.4741 0.10679 0.0
C320 C 0.5541 0.46758 0.08021 0.0
C321 C 0.56687 0.44209 0.10238 0.0
C322 C 0.52472 0.4881 0.11819 0.0
C323 C 0.53178 0.48916 0.13516 0.0
C324 C 0.51652 0.50072 0.14604 0.0
C325 C 0.49363 0.51107 0.14017 0.0
C326 C 0.48726 0.51093 0.12322 0.0
C327 C 0.50283 0.49975 0.11232 0.0
C328 C 0.55575 0.47564 0.06268 0.0
C329 C 0.53716 0.49043 0.05603 0.0
C330 C 0.53942 0.49901 0.03964 0.0
C331 C 0.56053 0.49328 0.02956 0.0
C332 C 0.57902 0.47839 0.03615 0.0
C333 C 0.57654 0.46951 0.05252 0.0
C334 C 0.58291 0.42295 0.10927 0.0
C335 C 0.59825 0.40957 0.09926 0.0
C336 C 0.28082 0.54282 0.20488 0.0
C337 C 0.27708 0.56277 0.19285 0.0
C338 C 0.31216 0.54408 0.2077 0.0
C339 C 0.3617 0.52411 0.1958 0.0
H340 H 0.44978 0.59772 0.18362 0.0
C341 C 0.43886 0.50416 0.14933 0.0
C342 C 0.47455 0.51963 0.15169 0.0
C343 C 0.4203 0.51128 0.16023 0.0
C344 C 0.42565 0.57699 0.1874 0.0
H345 H 0.30391 0.60222 0.17556 0.0
H346 H 0.35806 0.60388 0.1801 0.0
H347 H 0.40844 0.61124 0.19478 0.0
H348 H 0.519 0.55465 0.16726 0.0
H349 H 0.48625 0.56781 0.18632 0.0
H350 H 0.3782 0.48987 0.18766 0.0
C351 C 0.33725 0.58762 0.18762 0.0
C352 C 0.40189 0.58468 0.19368 0.0
C353 C 0.30605 0.58657 0.18493 0.0
C354 C 0.49143 0.54238 0.16522 0.0
C355 C 0.4728 0.54991 0.17607 0.0
C356 C 0.3854 0.51649 0.18958 0.0
C357 C 0.34012 0.56497 0.19835 0.0
C358 C 0.3689 0.55821 0.19702 0.0
C359 C 0.43703 0.5342 0.1737 0.0
C360 C 0.41672 0.54274 0.18444 0.0
H361 H 0.25899 0.52476 0.21141 0.0
H362 H 0.31377 0.5269 0.21633 0.0
H363 H 0.33661 0.50296 0.19817 0.0
H364 H 0.4252 0.48625 0.1391 0.0
H365 H 0.39279 0.49929 0.15793 0.0
C366 C 0.7759 0.30268 0.50575 0.0
C367 C 0.74497 0.27692 0.49809 0.0
C368 C 0.78475 0.33699 0.50519 0.0
C369 C 0.77696 0.39296 0.47747 0.0
H370 H 0.82665 0.46093 0.51255 0.0
C371 C 0.87725 0.52608 0.46116 0.0
C372 C 0.90901 0.53516 0.46916 0.0
C373 C 0.8467 0.50132 0.46755 0.0
C374 C 0.81261 0.44234 0.50262 0.0
H375 H 0.69796 0.26696 0.4848 0.0
H376 H 0.71437 0.32724 0.48318 0.0
H377 H 0.79139 0.4007 0.51889 0.0
H378 H 0.93333 0.52758 0.49089 0.0
H379 H 0.88091 0.48473 0.50178 0.0
H380 H 0.80065 0.43351 0.46103 0.0
C381 C 0.73155 0.32063 0.48967 0.0
C382 C 0.79235 0.40794 0.50628 0.0
C383 C 0.72244 0.28622 0.49043 0.0
C384 C 0.9094 0.52153 0.48444 0.0
C385 C 0.87904 0.49679 0.49076 0.0
C386 C 0.79764 0.42724 0.47379 0.0
C387 C 0.76305 0.34633 0.49681 0.0
C388 C 0.77585 0.38281 0.49365 0.0
C389 C 0.84743 0.48504 0.48198 0.0
C390 C 0.81736 0.45203 0.48625 0.0
H391 H 0.794 0.29655 0.51162 0.0
H392 H 0.80951 0.35638 0.51053 0.0
H393 H 0.76453 0.37405 0.4675 0.0
H394 H 0.8761 0.53667 0.44952 0.0
H395 H 0.82272 0.49342 0.46066 0.0
C396 C 0.51433 0.69827 0.85081 0.0
C397 C 0.54875 0.7231 0.85474 0.0
C398 C 0.48912 0.70746 0.84968 0.0
C399 C 0.46815 0.77449 0.85841 0.0
H400 H 0.43596 0.76097 0.81281 0.0
C401 C 0.45179 0.87377 0.82476 0.0
C402 C 0.43351 0.86589 0.80951 0.0
C403 C 0.45176 0.84805 0.83394 0.0
C404 C 0.44341 0.76417 0.82573 0.0
H405 H 0.58347 0.77641 0.86179 0.0
H406 H 0.53916 0.79255 0.86001 0.0
H407 H 0.4633 0.73032 0.82343 0.0
H408 H 0.39789 0.82459 0.79275 0.0
H409 H 0.39667 0.77916 0.80914 0.0
H410 H 0.44879 0.80877 0.86072 0.0
C411 C 0.53178 0.76596 0.8578 0.0
C412 C 0.45937 0.74664 0.83179 0.0
C413 C 0.55714 0.75685 0.85868 0.0
C414 C 0.41258 0.83138 0.80436 0.0
C415 C 0.41209 0.80544 0.81374 0.0
C416 C 0.45139 0.79143 0.85246 0.0
C417 C 0.49783 0.74157 0.85271 0.0
C418 C 0.47344 0.75305 0.84792 0.0
C419 C 0.43315 0.81364 0.82822 0.0
C420 C 0.44074 0.78813 0.83578 0.0
H421 H 0.50731 0.67219 0.84758 0.0
H422 H 0.46315 0.68828 0.84565 0.0
H423 H 0.47847 0.77944 0.87097 0.0
H424 H 0.46856 0.90013 0.829 0.0
H425 H 0.46876 0.85578 0.84484 0.0
C426 C 0.87065 0.54374 0.18005 0.0
C427 C 0.89973 0.5401 0.18126 0.0
C428 C 0.8379 0.51491 0.17962 0.0
C429 C 0.76998 0.4493 0.18218 0.0
H430 H 0.76203 0.39065 0.14526 0.0
C431 C 0.64264 0.37351 0.1467 0.0
C432 C 0.64692 0.38727 0.13107 0.0
C433 C 0.67075 0.37662 0.15607 0.0
C434 C 0.76379 0.40617 0.15586 0.0
H435 H 0.91737 0.50357 0.18395 0.0
H436 H 0.85998 0.45328 0.1834 0.0
H437 H 0.81836 0.42972 0.15839 0.0
H438 H 0.68337 0.41089 0.11228 0.0
H439 H 0.73168 0.41527 0.12832 0.0
H440 H 0.7158 0.42779 0.17882 0.0
C441 C 0.86265 0.47841 0.18265 0.0
C442 C 0.796 0.42845 0.16342 0.0
C443 C 0.89543 0.50725 0.18313 0.0
C444 C 0.67886 0.39988 0.12421 0.0
C445 C 0.70676 0.40245 0.13346 0.0
C446 C 0.73776 0.42679 0.17472 0.0
C447 C 0.83362 0.48188 0.18031 0.0
C448 C 0.79954 0.45167 0.176 0.0
C449 C 0.70342 0.39281 0.14981 0.0
C450 C 0.73466 0.40656 0.16086 0.0
H451 H 0.87325 0.56876 0.17873 0.0
H452 H 0.81598 0.51837 0.17765 0.0
H453 H 0.77203 0.46665 0.19198 0.0
H454 H 0.61813 0.3626 0.15218 0.0
H455 H 0.66744 0.36857 0.16858 0.0
C456 C 0.42747 0.86889 0.52419 0.0
C457 C 0.41144 0.88866 0.52501 0.0
C458 C 0.40909 0.83383 0.52684 0.0
C459 C 0.3264 0.76273 0.53986 0.0
H460 H 0.32682 0.71832 0.49918 0.0
C461 C 0.20554 0.66071 0.50654 0.0
C462 C 0.2064 0.63889 0.49446 0.0
C463 C 0.23499 0.68284 0.51611 0.0
C464 C 0.3268 0.7296 0.51091 0.0
H465 H 0.36484 0.88809 0.53076 0.0
H466 H 0.33259 0.8268 0.53529 0.0
H467 H 0.37306 0.77561 0.50638 0.0
H468 H 0.23779 0.62055 0.48407 0.0
H469 H 0.28943 0.659 0.50103 0.0
H470 H 0.27918 0.71716 0.54399 0.0
C471 C 0.35935 0.83834 0.53265 0.0
C472 C 0.35344 0.76269 0.51502 0.0
C473 C 0.37764 0.87333 0.52986 0.0
C474 C 0.2366 0.63756 0.49311 0.0
C475 C 0.26612 0.65957 0.50282 0.0
C476 C 0.29992 0.72937 0.53585 0.0
C477 C 0.37447 0.818 0.53049 0.0
C478 C 0.35242 0.78028 0.52904 0.0
C479 C 0.26607 0.68364 0.51389 0.0
C480 C 0.2987 0.7133 0.5208 0.0
H481 H 0.45348 0.88 0.5204 0.0
H482 H 0.42135 0.81874 0.52515 0.0
H483 H 0.32535 0.77557 0.55088 0.0
H484 H 0.1828 0.66266 0.50779 0.0
H485 H 0.23386 0.70123 0.52427 0.0
C486 C 0.63708 0.39414 0.84324 0.0
C487 C 0.60233 0.38183 0.84587 0.0
C488 C 0.6515 0.3735 0.84608 0.0
C489 C 0.63533 0.29076 0.86287 0.0
H490 H 0.67022 0.28091 0.82203 0.0
C491 C 0.60029 0.16272 0.83401 0.0
C492 C 0.62049 0.15989 0.82223 0.0
C493 C 0.61133 0.19376 0.84246 0.0
C494 C 0.66166 0.28372 0.83378 0.0
H495 H 0.55628 0.33958 0.85484 0.0
H496 H 0.58117 0.30324 0.85946 0.0
H497 H 0.66523 0.33093 0.82729 0.0
H498 H 0.66964 0.18629 0.81132 0.0
H499 H 0.68915 0.24076 0.82622 0.0
H500 H 0.62997 0.2424 0.86891 0.0
C501 C 0.59741 0.32889 0.85534 0.0
C502 C 0.65871 0.31253 0.83679 0.0
C503 C 0.58297 0.34948 0.85246 0.0
C504 C 0.65327 0.18796 0.82011 0.0
C505 C 0.66443 0.21908 0.82866 0.0
C506 C 0.63854 0.262 0.85992 0.0
C507 C 0.63147 0.34023 0.85163 0.0
C508 C 0.6437 0.31537 0.85093 0.0
C509 C 0.64288 0.22275 0.83937 0.0
C510 C 0.64979 0.25719 0.8449 0.0
H511 H 0.65264 0.41896 0.83813 0.0
H512 H 0.67786 0.38294 0.84319 0.0
H513 H 0.6243 0.29268 0.87403 0.0
H514 H 0.57477 0.1417 0.83583 0.0
H515 H 0.59375 0.19561 0.85041 0.0
C516 C 0.61905 0.97648 0.48994 0.0
C517 C 0.5932 0.98061 0.49675 0.0
C518 C 0.61966 0.9457 0.49135 0.0
C519 C 0.56579 0.85305 0.50328 0.0
H520 H 0.65328 0.85667 0.50433 0.0
C521 C 0.57438 0.72781 0.50711 0.0
C522 C 0.60298 0.72952 0.51572 0.0
C523 C 0.57302 0.75776 0.50379 0.0
C524 C 0.62848 0.85488 0.50428 0.0
H525 H 0.54772 0.95486 0.51059 0.0
H526 H 0.54936 0.90215 0.51355 0.0
H527 H 0.65122 0.90889 0.50141 0.0
H528 H 0.65337 0.76542 0.52682 0.0
H529 H 0.65041 0.81652 0.5218 0.0
H530 H 0.54326 0.79921 0.50696 0.0
C531 C 0.56882 0.9222 0.50664 0.0
C532 C 0.62723 0.88518 0.50228 0.0
C533 C 0.56798 0.95282 0.50504 0.0
C534 C 0.63045 0.76244 0.52047 0.0
C535 C 0.62898 0.79222 0.51731 0.0
C536 C 0.56708 0.82276 0.50547 0.0
C537 C 0.5947 0.91791 0.49984 0.0
C538 C 0.59588 0.88503 0.50177 0.0
C539 C 0.60016 0.79064 0.509 0.0
C540 C 0.59849 0.823 0.50609 0.0
H541 H 0.63883 0.99704 0.48336 0.0
H542 H 0.63971 0.94373 0.48558 0.0
H543 H 0.54092 0.85115 0.5027 0.0
H544 H 0.55251 0.70322 0.50326 0.0
H545 H 0.5505 0.75496 0.49711 0.0
C546 C 0.68926 0.54324 0.82604 0.0
C547 C 0.68727 0.57306 0.8288 0.0
C548 C 0.72072 0.54383 0.82793 0.0
C549 C 0.81098 0.5971 0.84663 0.0
H550 H 0.82849 0.53718 0.81959 0.0
C551 C 0.94591 0.60988 0.84765 0.0
C552 C 0.94819 0.57983 0.84708 0.0
C553 C 0.91437 0.60871 0.84489 0.0
C554 C 0.82403 0.5539 0.82739 0.0
H555 H 0.71771 0.62711 0.83564 0.0
H556 H 0.7723 0.62841 0.83854 0.0
H557 H 0.77408 0.53613 0.81585 0.0
H558 H 0.91795 0.5248 0.84268 0.0
H559 H 0.8632 0.52282 0.83767 0.0
H560 H 0.86103 0.61505 0.85806 0.0
C561 C 0.74944 0.60419 0.83523 0.0
C562 C 0.79256 0.55328 0.82526 0.0
C563 C 0.71794 0.60354 0.83343 0.0
C564 C 0.91769 0.54863 0.84308 0.0
C565 C 0.88605 0.54748 0.84024 0.0
C566 C 0.84247 0.59785 0.84868 0.0
C567 C 0.75151 0.57431 0.8326 0.0
C568 C 0.78536 0.5749 0.83483 0.0
C569 C 0.88372 0.57746 0.84134 0.0
C570 C 0.84968 0.57633 0.83909 0.0
H571 H 0.66634 0.51911 0.82262 0.0
H572 H 0.72064 0.52004 0.82603 0.0
H573 H 0.80661 0.61368 0.85456 0.0
H574 H 0.96864 0.63461 0.85027 0.0
H575 H 0.91411 0.63253 0.84548 0.0
C576 C 0.21911 0.68073 0.15648 0.0
C577 C 0.18974 0.67842 0.16301 0.0
C578 C 0.25094 0.71147 0.15787 0.0
C579 C 0.29181 0.80636 0.16946 0.0
H580 H 0.3752 0.80193 0.17033 0.0
C581 C 0.42653 0.93157 0.17367 0.0
C582 C 0.45416 0.9309 0.18202 0.0
C583 C 0.39481 0.90121 0.17022 0.0
C584 C 0.35237 0.80401 0.17035 0.0
H585 H 0.17157 0.70721 0.17643 0.0
H586 H 0.22673 0.7599 0.17947 0.0
H587 H 0.3203 0.74959 0.16759 0.0
H588 H 0.46953 0.8963 0.19241 0.0
H589 H 0.41479 0.84468 0.18734 0.0
H590 H 0.32396 0.86071 0.17316 0.0
C591 C 0.22529 0.73846 0.17271 0.0
C592 C 0.3204 0.77356 0.16844 0.0
C593 C 0.19337 0.70788 0.17108 0.0
C594 C 0.44903 0.89854 0.18633 0.0
C595 C 0.41734 0.8684 0.1831 0.0
C596 C 0.32381 0.83681 0.17163 0.0
C597 C 0.25484 0.74102 0.16611 0.0
C598 C 0.28935 0.77398 0.16797 0.0
C599 C 0.38936 0.86898 0.17509 0.0
C600 C 0.35484 0.83633 0.17219 0.0
H601 H 0.2175 0.65878 0.1501 0.0
H602 H 0.27239 0.71197 0.15225 0.0
H603 H 0.26898 0.80848 0.16889 0.0
H604 H 0.42899 0.95568 0.17014 0.0
H605 H 0.37455 0.90322 0.16374 0.0
C606 C 0.56485 0.17327 0.49166 0.0
C607 C 0.59365 0.17015 0.49606 0.0
C608 C 0.56597 0.20495 0.49337 0.0
C609 C 0.61605 0.29141 0.51523 0.0
H610 H 0.56302 0.31534 0.48542 0.0
C611 C 0.59486 0.40567 0.52997 0.0
C612 C 0.59307 0.42564 0.51726 0.0
C613 C 0.59636 0.37583 0.5267 0.0
C614 C 0.57829 0.30937 0.49383 0.0
H615 H 0.64673 0.199 0.50534 0.0
H616 H 0.64882 0.25383 0.50811 0.0
H617 H 0.56323 0.26194 0.48076 0.0
H618 H 0.59198 0.4292 0.49093 0.0
H619 H 0.59489 0.3773 0.48519 0.0
H620 H 0.63146 0.33894 0.52818 0.0
C621 C 0.62495 0.23166 0.50364 0.0
C622 C 0.57807 0.27829 0.49126 0.0
C623 C 0.62381 0.2 0.50196 0.0
C624 C 0.59342 0.41479 0.50109 0.0
C625 C 0.59473 0.38466 0.4978 0.0
C626 C 0.61618 0.32237 0.51782 0.0
C627 C 0.59596 0.23476 0.49953 0.0
C628 C 0.59681 0.26857 0.50196 0.0
C629 C 0.59616 0.36455 0.51056 0.0
C630 C 0.59711 0.3319 0.50726 0.0
H631 H 0.5411 0.15105 0.4871 0.0
H632 H 0.54289 0.20578 0.49021 0.0
H633 H 0.63062 0.28513 0.52392 0.0
H634 H 0.59524 0.41316 0.54261 0.0
H635 H 0.59704 0.36123 0.53694 0.0
C636 C 0.46152 0.53477 0.82691 0.0
C637 C 0.49319 0.56554 0.82896 0.0
C638 C 0.43028 0.53421 0.8284 0.0
C639 C 0.39206 0.59244 0.83184 0.0
H640 H 0.31415 0.50924 0.84564 0.0
C641 C 0.25822 0.58234 0.83832 0.0
C642 C 0.23705 0.56137 0.85042 0.0
C643 C 0.28854 0.58238 0.83465 0.0
C644 C 0.33556 0.53303 0.84199 0.0
H645 H 0.5162 0.62 0.83437 0.0
H646 H 0.46226 0.61886 0.83758 0.0
H647 H 0.36779 0.51098 0.84225 0.0
H648 H 0.2314 0.52262 0.86745 0.0
H649 H 0.28399 0.52399 0.86181 0.0
H650 H 0.36015 0.61502 0.83252 0.0
C651 C 0.46125 0.59512 0.83432 0.0
C652 C 0.36664 0.53382 0.83969 0.0
C653 C 0.49249 0.59576 0.83256 0.0
C654 C 0.247 0.53986 0.85833 0.0
C655 C 0.27732 0.54018 0.85482 0.0
C656 C 0.36105 0.5918 0.83439 0.0
C657 C 0.42939 0.56433 0.83232 0.0
C658 C 0.39569 0.56353 0.83457 0.0
C659 C 0.29896 0.56154 0.84297 0.0
C660 C 0.33211 0.56211 0.8396 0.0
H661 H 0.46078 0.51095 0.82399 0.0
H662 H 0.4068 0.50993 0.8263 0.0
H663 H 0.41314 0.61583 0.82762 0.0
H664 H 0.25186 0.59942 0.83192 0.0
H665 H 0.30377 0.59886 0.82523 0.0
C666 C 0.99748 0.46068 0.16958 0.0
C667 C 0.99859 0.48836 0.16132 0.0
C668 C 0.96622 0.43013 0.17138 0.0
C669 C 0.86973 0.39289 0.16722 0.0
H670 H 0.86884 0.30751 0.17305 0.0
C671 C 0.74795 0.27094 0.18745 0.0
C672 C 0.74158 0.23795 0.18281 0.0
C673 C 0.77839 0.30067 0.18378 0.0
C674 C 0.86826 0.33092 0.17126 0.0
H675 H 0.96688 0.50481 0.1483 0.0
H676 H 0.91306 0.45167 0.15076 0.0
H677 H 0.92232 0.35925 0.1683 0.0
H678 H 0.76295 0.21135 0.17003 0.0
H679 H 0.81531 0.26299 0.16313 0.0
H680 H 0.81546 0.3643 0.16954 0.0
C681 C 0.93611 0.45354 0.15636 0.0
C682 C 0.89943 0.36112 0.16879 0.0
C683 C 0.96732 0.48425 0.15477 0.0
C684 C 0.7665 0.23603 0.17381 0.0
C685 C 0.79701 0.26589 0.17005 0.0
C686 C 0.83856 0.36269 0.16957 0.0
C687 C 0.93477 0.42579 0.16479 0.0
C688 C 0.90098 0.39293 0.1669 0.0
C689 C 0.80378 0.29885 0.17514 0.0
C690 C 0.83716 0.33107 0.17182 0.0
H691 H 1.0208 0.46277 0.17499 0.0
H692 H 0.96689 0.4102 0.17829 0.0
H693 H 0.86915 0.41636 0.16589 0.0
H694 H 0.72941 0.27398 0.19411 0.0
H695 H 0.78223 0.32512 0.18815 0.0
C696 C 0.1064 0.56393 0.1008 0.0
C697 C 0.09147 0.58045 0.10885 0.0
C698 C 0.10657 0.5631 0.08372 0.0
C699 C 1.06026 0.5632 0.04664 0.0
H700 H 0.14665 0.60088 0.02587 0.0
C701 C 1.06615 0.57647 0.97656 0.0
C702 C 0.09176 0.57392 0.96853 0.0
C703 C 1.06617 0.57728 0.99364 0.0
C704 C 0.12216 0.58957 0.03137 0.0
H705 H 1.06446 0.60844 0.10528 0.0
H706 H 1.06372 0.60586 0.07536 0.0
H707 H 0.14619 0.60103 0.0556 0.0
H708 H 0.1377 0.57036 0.97265 0.0
H709 H 0.13629 0.56925 0.00211 0.0
H710 H 1.03584 0.55024 0.02264 0.0
C711 C 0.07571 0.59407 0.08234 0.0
C712 C 0.12202 0.58995 0.04845 0.0
C713 C 0.07627 0.59565 0.09944 0.0
C714 C 0.11713 0.57177 0.9782 0.0
C715 C 0.11672 0.57183 0.99527 0.0
C716 C 1.06027 0.56206 0.02956 0.0
C717 C 0.09107 0.57801 0.07434 0.0
C718 C 0.09111 0.57699 0.05624 0.0
C719 C 0.09136 0.57481 0.00331 0.0
C720 C 0.09126 0.57546 0.02161 0.0
H721 H 0.11843 0.55212 0.10773 0.0
H722 H 0.11848 0.55047 0.07782 0.0
H723 H 1.03604 0.55275 0.05239 0.0
H724 H 1.04574 0.57758 0.96969 0.0
H725 H 1.04647 0.58021 -0.00078 0.0
C726 C 0.56581 0.06298 0.43325 0.0
C727 C 0.59529 0.08278 0.44358 0.0
C728 C 0.56735 0.06474 0.41625 0.0
C729 C 0.62079 0.11821 0.38324 0.0
H730 H 0.56657 1.03448 0.35679 0.0
C731 C 0.63373 0.10922 0.31331 0.0
C732 C 0.60313 0.0904 0.30353 0.0
C733 C 0.63341 0.10909 0.3304 0.0
C734 C 0.58163 0.05816 0.36398 0.0
H735 H 0.6496 0.12019 0.44403 0.0
H736 H 0.65242 0.12281 0.41438 0.0
H737 H 0.56506 1.03279 0.38643 0.0
H738 H 0.54803 0.05748 0.30425 0.0
H739 H 0.5476 0.05695 0.33394 0.0
H740 H 0.63758 0.14343 0.36067 0.0
C741 C 0.62792 0.10628 0.41943 0.0
C742 C 0.58072 0.05723 0.38101 0.0
C743 C 0.62634 0.10465 0.43646 0.0
C744 C 0.57221 0.07171 0.31133 0.0
C745 C 0.57192 0.07144 0.32839 0.0
C746 C 0.62183 0.1191 0.36618 0.0
C747 C 0.59847 0.08619 0.40908 0.0
C748 C 0.60009 0.08726 0.3909 0.0
C749 C 0.60252 0.09 0.33815 0.0
C750 C 0.60208 0.08911 0.35633 0.0
H751 H 0.54138 0.04602 0.43826 0.0
H752 H 0.54398 0.04939 0.40873 0.0
H753 H 0.63571 0.14194 0.3904 0.0
H754 H 0.65809 0.12354 0.30777 0.0
H755 H 0.65749 0.12337 0.33756 0.0
C756 C 0.6166 0.60611 0.76837 0.0
C757 C 0.59056 0.57721 0.77562 0.0
C758 C 0.61792 0.60754 0.7513 0.0
C759 C 0.5883 0.55129 0.71382 0.0
H760 H 0.60843 0.63394 0.69146 0.0
C761 C 0.5712 0.5514 0.64359 0.0
C762 C 0.59558 0.57989 0.63545 0.0
C763 C 0.57127 0.55189 0.66067 0.0
C764 C 0.60319 0.61076 0.69751 0.0
H765 H 0.54517 0.52739 0.77047 0.0
H766 H 0.54743 0.53002 0.74093 0.0
H767 H 0.60769 0.63368 0.72125 0.0
H768 H 0.63944 0.63118 0.63901 0.0
H769 H 0.63972 0.63196 0.66879 0.0
H770 H 0.58393 0.52833 0.69019 0.0
C771 C 0.56712 0.55141 0.74839 0.0
C772 C 0.60275 0.61062 0.71461 0.0
C773 C 0.56571 0.55003 0.76538 0.0
C774 C 0.61999 0.60895 0.64486 0.0
C775 C 0.62013 0.60941 0.66196 0.0
C776 C 0.58884 0.55144 0.69677 0.0
C777 C 0.59334 0.58004 0.74111 0.0
C778 C 0.59502 0.58078 0.72297 0.0
C779 C 0.59581 0.58085 0.67011 0.0
C780 C 0.59604 0.58109 0.68835 0.0
H781 H 0.63616 0.62751 0.77587 0.0
H782 H 0.6386 0.6299 0.7461 0.0
H783 H 0.58289 0.52804 0.71986 0.0
H784 H 0.55167 0.52882 0.63674 0.0
H785 H 0.55173 0.52966 0.66647 0.0
C786 C 0.57133 0.07747 0.55418 0.0
C787 C 0.59093 0.06738 0.54532 0.0
C788 C 0.56957 0.07382 0.57104 0.0
C789 C 0.57452 1.02295 0.60369 0.0
H790 H 0.58841 0.09883 0.63199 0.0
C791 C 0.56718 1.01307 0.67399 0.0
C792 C 0.55269 1.03016 0.68185 0.0
C793 C 0.57393 1.01782 0.65744 0.0
C794 C 0.58398 0.07721 0.62426 0.0
H795 H 0.62393 1.04538 0.54711 0.0
H796 H 0.62023 1.03833 0.57672 0.0
H797 H 0.59673 0.10704 0.60287 0.0
H798 H 0.53276 0.06454 0.67856 0.0
H799 H 0.54335 0.07197 0.64962 0.0
H800 H 0.56045 0.99267 0.62489 0.0
C801 C 0.60652 0.04933 0.57054 0.0
C802 C 0.589 0.08204 0.60761 0.0
C803 C 0.60877 0.05353 0.55366 0.0
C804 C 0.5444 0.05146 0.67282 0.0
C805 C 0.5507 0.05585 0.65627 0.0
C806 C 0.56903 1.01795 0.62035 0.0
C807 C 0.58695 0.05953 0.57935 0.0
C808 C 0.58399 0.05489 0.59716 0.0
C809 C 0.56592 1.03942 0.64839 0.0
C810 C 0.57331 1.04494 0.63081 0.0
H811 H 0.55734 0.08828 0.54809 0.0
H812 H 0.55407 0.08159 0.57755 0.0
H813 H 0.57021 1.00154 0.59583 0.0
H814 H 0.57407 0.99673 0.68075 0.0
H815 H 0.58603 1.00507 0.65185 0.0
C816 C 0.58798 0.58268 0.88693 0.0
C817 C 0.58775 0.55777 0.87638 0.0
C818 C 0.58491 0.57754 0.90373 0.0
C819 C 0.55172 0.50912 0.93311 0.0
H820 H 0.61306 0.5799 0.96513 0.0
C821 C 0.53367 0.49461 0.00236 0.0
C822 C 0.56323 0.50281 0.01222 0.0
C823 C 0.53614 0.50304 0.98594 0.0
C824 C 0.59578 0.55993 0.9563 0.0
H825 H 0.58435 0.50808 0.87519 0.0
H826 H 0.57882 0.49917 0.90437 0.0
H827 H 0.61856 0.59138 0.93595 0.0
H828 H 0.6186 0.52703 0.01275 0.0
H829 H 0.62291 0.54169 0.984 0.0
H830 H 0.52919 0.47751 0.95337 0.0
C831 C 0.58121 0.52254 0.89967 0.0
C832 C 0.59875 0.56658 0.93965 0.0
C833 C 0.5846 0.52779 0.88296 0.0
C834 C 0.59536 0.52009 0.00539 0.0
C835 C 0.59786 0.52879 0.989 0.0
C836 C 0.54854 0.50259 0.94974 0.0
C837 C 0.58117 0.54725 0.91021 0.0
C838 C 0.577 0.54108 0.9279 0.0
C839 C 0.56825 0.52011 0.97908 0.0
C840 C 0.57075 0.52779 0.9615 0.0
H841 H 0.59042 0.60607 0.88223 0.0
H842 H 0.58482 0.59693 0.91159 0.0
H843 H 0.5344 0.48911 0.92432 0.0
H844 H 0.50856 0.48113 0.00727 0.0
H845 H 0.51292 0.49624 0.9786 0.0
C846 C 0.12207 0.58091 0.21934 0.0
C847 C 0.09622 0.58346 0.21038 0.0
C848 C 0.1218 0.57914 0.23637 0.0
C849 C 1.06344 0.559 0.27016 0.0
H850 H 0.14752 0.60883 0.29745 0.0
C851 C 1.06369 0.58527 0.33878 0.0
C852 C 0.0853 0.57922 0.34936 0.0
C853 C 1.0661 0.58445 0.32189 0.0
C854 C 0.12392 0.59449 0.28996 0.0
H855 H 1.05023 0.58681 0.21231 0.0
H856 H 1.05021 0.58456 0.24187 0.0
H857 H 0.14983 0.61008 0.2677 0.0
H858 H 0.12668 0.56788 0.35038 0.0
H859 H 0.1313 0.56719 0.32077 0.0
H860 H 1.03748 0.54415 0.2924 0.0
C861 C 0.07025 0.58307 0.23578 0.0
C862 C 0.12521 0.59513 0.27293 0.0
C863 C 0.0704 0.58463 0.21881 0.0
C864 C 0.10988 0.573 0.34261 0.0
C865 C 0.11248 0.5725 0.32567 0.0
C866 C 1.06215 0.55859 0.28713 0.0
C867 C 0.09575 0.58001 0.24477 0.0
C868 C 0.0949 0.57778 0.26284 0.0
C869 C 0.09037 0.57791 0.31516 0.0
C870 C 0.09229 0.57669 0.29719 0.0
H871 H 0.14225 0.57982 0.21319 0.0
H872 H 0.14165 0.57649 0.24291 0.0
H873 H 1.0397 0.54464 0.26277 0.0
H874 H 1.04505 0.59098 0.34353 0.0
H875 H 1.04916 0.58935 0.31408 0.0
loop_
_geom_bond_atom_site_label_1
_geom_bond_atom_site_label_2
_geom_bond_distance
_geom_bond_site_symmetry_2
_ccdc_geom_bond_type
Tb0 C10 2.825 . S
Tb0 O11 2.347 . S
Tb0 O14 2.366 . S
Tb0 O19 2.418 . S
Tb0 O20 2.384 1_455 S
Tb0 O23 2.479 . S
Tb0 O24 2.471 . S
Eu1 O12 2.422 . S
Eu1 O13 2.399 . S
Eu1 O16 2.462 1_455 S
Eu1 O17 2.456 1_455 S
Eu1 O18 2.356 . S
Eu1 O21 2.364 1_455 S
Eu1 C31 2.807 1_455 S
C2 O18 1.259 . S
C2 O19 1.265 . S
C3 O20 1.255 . S
C3 O21 1.265 . S
C4 C6 1.380 . S
C4 C7 1.374 . S
C4 C10 1.507 . S
C5 C6 1.384 . S
C5 C9 1.387 . S
C5 H32 0.930 . S
C6 C4 1.380 . S
C6 C5 1.384 . S
C6 H33 0.931 . S
C7 C4 1.374 . S
C7 C8 1.390 . S
C7 H34 0.930 . S
C8 C7 1.390 . S
C8 C9 1.391 . S
C8 H35 0.930 . S
C9 C5 1.387 . S
C9 C8 1.391 . S
C10 Tb0 2.825 . S
C10 C4 1.507 . S
C10 O23 1.238 . S
C10 O24 1.247 . S
O11 Tb0 2.347 . S
O11 C15 1.259 . S
O12 Eu1 2.422 . S
O12 C15 1.265 . S
O13 Eu1 2.399 . S
O13 C22 1.255 . S
O14 Tb0 2.366 . S
O14 C22 1.265 . S
C15 O11 1.259 . S
C15 O12 1.265 . S
O16 Eu1 2.462 1_655 S
O16 C31 1.238 . S
O17 Eu1 2.456 1_655 S
O17 C31 1.247 . S
O18 Eu1 2.356 . S
O18 C2 1.259 . S
O19 Tb0 2.418 . S
O19 C2 1.265 . S
O20 Tb0 2.384 1_655 S
O20 C3 1.255 . S
O21 Eu1 2.364 1_655 S
O21 C3 1.265 . S
C22 O13 1.255 . S
C22 O14 1.265 . S
O23 Tb0 2.479 . S
O23 C10 1.238 . S
O24 Tb0 2.471 . S
O24 C10 1.247 . S
C25 C28 1.380 . S
C25 C29 1.374 . S
C25 C31 1.507 . S
C26 C27 1.387 . S
C26 C30 1.391 . S
C27 C26 1.387 . S
C27 C28 1.384 . S
C27 H36 0.930 . S
C28 C25 1.380 . S
C28 C27 1.384 . S
C28 H37 0.931 . S
C29 C25 1.374 . S
C29 C30 1.390 . S
C29 H38 0.930 . S
C30 C26 1.391 . S
C30 C29 1.390 . S
C30 H39 0.930 . S
C31 Eu1 2.807 1_655 S
C31 O16 1.238 . S
C31 O17 1.247 . S
C31 C25 1.507 . S
H32 C5 0.930 . S
H33 C6 0.931 . S
H34 C7 0.930 . S
H35 C8 0.930 . S
H36 C27 0.930 . S
H37 C28 0.931 . S
H38 C29 0.930 . S
H39 C30 0.930 . S
Tb40 C50 2.825 . S
Tb40 O51 2.347 . S
Tb40 O54 2.366 . S
Tb40 O59 2.418 . S
Tb40 O60 2.409 . S
Tb40 O63 2.479 . S
Tb40 O64 2.471 . S
Eu41 O52 2.418 . S
Eu41 O53 2.384 . S
Eu41 O56 2.479 1_545 S
Eu41 O57 2.471 1_545 S
Eu41 O58 2.347 . S
Eu41 O61 2.366 1_545 S
Eu41 C71 2.825 1_545 S
C42 O58 1.259 . S
C42 O59 1.265 . S
C43 O60 1.245 1_565 S
C43 O61 1.265 . S
C44 C46 1.380 . S
C44 C47 1.374 . S
C44 C50 1.507 . S
C45 C46 1.384 . S
C45 C49 1.387 . S
C45 H72 0.930 . S
C46 C44 1.380 . S
C46 C45 1.384 . S
C46 H73 0.931 . S
C47 C44 1.374 . S
C47 C48 1.390 . S
C47 H74 0.930 . S
C48 C47 1.390 . S
C48 C49 1.391 . S
C48 H75 0.930 . S
C49 C45 1.387 . S
C49 C48 1.391 . S
C50 Tb40 2.825 . S
C50 C44 1.507 . S
C50 O63 1.238 . S
C50 O64 1.247 . S
O51 Tb40 2.347 . S
O51 C55 1.259 . S
O52 Eu41 2.418 . S
O52 C55 1.265 . S
O53 Eu41 2.384 . S
O53 C62 1.255 . S
O54 Tb40 2.366 . S
O54 C62 1.265 . S
C55 O51 1.259 . S
C55 O52 1.265 . S
O56 Eu41 2.479 1_565 S
O56 C71 1.238 . S
O57 Eu41 2.471 1_565 S
O57 C71 1.247 . S
O58 Eu41 2.347 . S
O58 C42 1.259 . S
O59 Tb40 2.418 . S
O59 C42 1.265 . S
O60 Tb40 2.409 . S
O60 C43 1.245 1_545 S
O61 Eu41 2.366 1_565 S
O61 C43 1.265 . S
C62 O53 1.255 . S
C62 O54 1.265 . S
O63 Tb40 2.479 . S
O63 C50 1.238 . S
O64 Tb40 2.471 . S
O64 C50 1.247 . S
C65 C68 1.380 . S
C65 C69 1.374 . S
C65 C71 1.507 . S
C66 C67 1.387 . S
C66 C70 1.391 . S
C67 C66 1.387 . S
C67 C68 1.384 . S
C67 H76 0.930 . S
C68 C65 1.380 . S
C68 C67 1.384 . S
C68 H77 0.931 . S
C69 C65 1.374 . S
C69 C70 1.390 . S
C69 H78 0.930 . S
C70 C66 1.391 . S
C70 C69 1.390 . S
C70 H79 0.930 . S
C71 Eu41 2.825 1_565 S
C71 O56 1.238 . S
C71 O57 1.247 . S
C71 C65 1.507 . S
H72 C45 0.930 . S
H73 C46 0.931 . S
H74 C47 0.930 . S
H75 C48 0.930 . S
H76 C67 0.930 . S
H77 C68 0.931 . S
H78 C69 0.930 . S
H79 C70 0.930 . S
Tb80 C90 2.825 . S
Tb80 O91 2.347 . S
Tb80 O94 2.366 . S
Tb80 O99 2.418 . S
Tb80 O100 2.384 . S
Tb80 O103 2.479 . S
Tb80 O104 2.471 . S
Eu81 O92 2.418 . S
Eu81 O93 2.384 . S
Eu81 O96 2.479 . S
Eu81 O97 2.471 . S
Eu81 O98 2.347 . S
Eu81 O101 2.366 . S
Eu81 C111 2.825 . S
C82 O98 1.259 . S
C82 O99 1.265 . S
C83 O100 1.255 . S
C83 O101 1.265 . S
C84 C86 1.380 . S
C84 C87 1.374 . S
C84 C90 1.507 . S
C85 C86 1.384 . S
C85 C89 1.387 . S
C85 H112 0.930 . S
C86 C84 1.380 . S
C86 C85 1.384 . S
C86 H113 0.931 . S
C87 C84 1.374 . S
C87 C88 1.390 . S
C87 H114 0.930 . S
C88 C87 1.390 . S
C88 C89 1.391 . S
C88 H115 0.930 . S
C89 C85 1.387 . S
C89 C88 1.391 . S
C90 Tb80 2.825 . S
C90 C84 1.507 . S
C90 O103 1.238 . S
C90 O104 1.247 . S
O91 Tb80 2.347 . S
O91 C95 1.259 . S
O92 Eu81 2.418 . S
O92 C95 1.265 . S
O93 Eu81 2.384 . S
O93 C102 1.255 . S
O94 Tb80 2.366 . S
O94 C102 1.265 . S
C95 O91 1.259 . S
C95 O92 1.265 . S
O96 Eu81 2.479 . S
O96 C111 1.238 . S
O97 Eu81 2.471 . S
O97 C111 1.247 . S
O98 Eu81 2.347 . S
O98 C82 1.259 . S
O99 Tb80 2.418 . S
O99 C82 1.265 . S
O100 Tb80 2.384 . S
O100 C83 1.255 . S
O101 Eu81 2.366 . S
O101 C83 1.265 . S
C102 O93 1.255 . S
C102 O94 1.265 . S
O103 Tb80 2.479 . S
O103 C90 1.238 . S
O104 Tb80 2.471 . S
O104 C90 1.247 . S
C105 C108 1.380 . S
C105 C109 1.374 . S
C105 C111 1.507 . S
C106 C107 1.387 . S
C106 C110 1.391 . S
C107 C106 1.387 . S
C107 C108 1.384 . S
C107 H116 0.930 . S
C108 C105 1.380 . S
C108 C107 1.384 . S
C108 H117 0.931 . S
C109 C105 1.374 . S
C109 C110 1.390 . S
C109 H118 0.930 . S
C110 C106 1.391 . S
C110 C109 1.390 . S
C110 H119 0.930 . S
C111 Eu81 2.825 . S
C111 O96 1.238 . S
C111 O97 1.247 . S
C111 C105 1.507 . S
H112 C85 0.930 . S
H113 C86 0.931 . S
H114 C87 0.930 . S
H115 C88 0.930 . S
H116 C107 0.930 . S
H117 C108 0.931 . S
H118 C109 0.930 . S
H119 C110 0.930 . S
C120 C121 1.384 . S
C120 H133 0.947 . S
C120 C155 1.382 . S
C121 C120 1.384 . S
C121 C122 1.378 . S
C122 C121 1.378 . S
C122 C123 1.378 . S
C122 H134 0.952 . S
C123 C122 1.378 . S
C123 H135 0.950 . S
C123 C154 1.383 . S
H124 C143 0.947 . S
H125 C144 0.946 . S
H126 C146 0.953 . S
H127 C147 0.945 . S
H128 C149 0.952 . S
H129 C150 0.949 . S
H130 C152 0.950 . S
H131 C153 0.948 . S
H132 C155 0.951 . S
H133 C120 0.947 . S
H134 C122 0.952 . S
H135 C123 0.950 . S
N136 C139 1.382 . S
N136 C141 1.363 1_545 S
N137 C139 1.371 . S
N137 C140 1.372 . S
N138 C140 1.361 1_565 S
N138 C141 1.377 . S
C139 N136 1.382 . S
C139 N137 1.371 . S
C139 C142 1.480 . S
C140 N137 1.372 . S
C140 N138 1.361 1_545 S
C140 C148 1.457 . S
C141 N136 1.363 1_565 S
C141 N138 1.377 . S
C141 C154 1.479 . S
C142 C139 1.480 . S
C142 C143 1.383 . S
C142 C147 1.385 . S
C143 H124 0.947 . S
C143 C142 1.383 . S
C143 C144 1.388 . S
C144 H125 0.946 . S
C144 C143 1.388 . S
C144 C145 1.384 . S
C145 C144 1.384 . S
C145 C146 1.377 . S
C146 H126 0.953 . S
C146 C145 1.377 . S
C146 C147 1.369 . S
C147 H127 0.945 . S
C147 C142 1.385 . S
C147 C146 1.369 . S
C148 C140 1.457 . S
C148 C149 1.372 . S
C148 C153 1.364 1_545 S
C149 H128 0.952 . S
C149 C148 1.372 . S
C149 C150 1.389 . S
C150 H129 0.949 . S
C150 C149 1.389 . S
C150 C151 1.387 . S
C151 C150 1.387 . S
C151 C152 1.372 1_545 S
C152 H130 0.950 . S
C152 C151 1.372 1_565 S
C152 C153 1.379 . S
C153 H131 0.948 . S
C153 C148 1.364 1_565 S
C153 C152 1.379 . S
C154 C123 1.383 . S
C154 C141 1.479 . S
C154 C155 1.398 . S
C155 C120 1.382 . S
C155 H132 0.951 . S
C155 C154 1.398 . S
C156 C157 1.384 . S
C156 H169 0.947 . S
C156 C191 1.382 . S
C157 C156 1.384 . S
C157 C158 1.378 . S
C158 C157 1.378 . S
C158 C159 1.378 . S
C158 H170 0.952 . S
C159 C158 1.378 . S
C159 H171 0.950 . S
C159 C190 1.383 . S
H160 C179 0.947 . S
H161 C180 0.946 . S
H162 C182 0.953 . S
H163 C183 0.945 . S
H164 C185 0.952 . S
H165 C186 0.949 . S
H166 C188 0.950 . S
H167 C189 0.948 . S
H168 C191 0.951 . S
H169 C156 0.947 . S
H170 C158 0.952 . S
H171 C159 0.950 . S
N172 C175 1.382 . S
N172 C177 1.363 . S
N173 C175 1.371 . S
N173 C176 1.372 . S
N174 C176 1.361 . S
N174 C177 1.377 . S
C175 N172 1.382 . S
C175 N173 1.371 . S
C175 C178 1.480 . S
C176 N173 1.372 . S
C176 N174 1.361 . S
C176 C184 1.457 . S
C177 N172 1.363 . S
C177 N174 1.377 . S
C177 C190 1.479 . S
C178 C175 1.480 . S
C178 C179 1.383 . S
C178 C183 1.385 . S
C179 H160 0.947 . S
C179 C178 1.383 . S
C179 C180 1.388 . S
C180 H161 0.946 . S
C180 C179 1.388 . S
C180 C181 1.384 . S
C181 C180 1.384 . S
C181 C182 1.377 . S
C182 H162 0.953 . S
C182 C181 1.377 . S
C182 C183 1.369 . S
C183 H163 0.945 . S
C183 C178 1.385 . S
C183 C182 1.369 . S
C184 C176 1.457 . S
C184 C185 1.372 . S
C184 C189 1.364 . S
C185 H164 0.952 . S
C185 C184 1.372 . S
C185 C186 1.389 . S
C186 H165 0.949 . S
C186 C185 1.389 . S
C186 C187 1.387 . S
C187 C186 1.387 . S
C187 C188 1.372 . S
C188 H166 0.950 . S
C188 C187 1.372 . S
C188 C189 1.379 . S
C189 H167 0.948 . S
C189 C184 1.364 . S
C189 C188 1.379 . S
C190 C159 1.383 . S
C190 C177 1.479 . S
C190 C191 1.398 . S
C191 C156 1.382 . S
C191 H168 0.951 . S
C191 C190 1.398 . S
C192 C193 1.384 . S
C192 H205 0.947 . S
C192 C227 1.382 . S
C193 C192 1.384 . S
C193 C194 1.378 . S
C194 C193 1.378 . S
C194 C195 1.378 . S
C194 H206 0.952 . S
C195 C194 1.378 . S
C195 H207 0.950 . S
C195 C226 1.383 . S
H196 C215 0.947 . S
H197 C216 0.946 . S
H198 C218 0.953 . S
H199 C219 0.945 . S
H200 C221 0.952 . S
H201 C222 0.949 . S
H202 C224 0.950 . S
H203 C225 0.948 . S
H204 C227 0.951 . S
H205 C192 0.947 . S
H206 C194 0.952 . S
H207 C195 0.950 . S
N208 C211 1.382 . S
N208 C213 1.363 1_455 S
N209 C211 1.371 . S
N209 C212 1.372 . S
N210 C212 1.361 1_655 S
N210 C213 1.377 . S
C211 N208 1.382 . S
C211 N209 1.371 . S
C211 C214 1.480 . S
C212 N209 1.372 . S
C212 N210 1.361 1_455 S
C212 C220 1.457 . S
C213 N208 1.363 1_655 S
C213 N210 1.377 . S
C213 C226 1.479 . S
C214 C211 1.480 . S
C214 C215 1.383 . S
C214 C219 1.385 . S
C215 H196 0.947 . S
C215 C214 1.383 . S
C215 C216 1.388 . S
C216 H197 0.946 . S
C216 C215 1.388 . S
C216 C217 1.384 . S
C217 C216 1.384 . S
C217 C218 1.377 . S
C218 H198 0.953 . S
C218 C217 1.377 . S
C218 C219 1.369 . S
C219 H199 0.945 . S
C219 C214 1.385 . S
C219 C218 1.369 . S
C220 C212 1.457 . S
C220 C221 1.372 . S
C220 C225 1.364 1_455 S
C221 H200 0.952 . S
C221 C220 1.372 . S
C221 C222 1.389 . S
C222 H201 0.949 . S
C222 C221 1.389 . S
C222 C223 1.387 . S
C223 C222 1.387 . S
C223 C224 1.372 1_455 S
C224 H202 0.950 . S
C224 C223 1.372 1_655 S
C224 C225 1.379 . S
C225 H203 0.948 . S
C225 C220 1.364 1_655 S
C225 C224 1.379 . S
C226 C195 1.383 . S
C226 C213 1.479 . S
C226 C227 1.398 . S
C227 C192 1.382 . S
C227 H204 0.951 . S
C227 C226 1.398 . S
C228 C229 1.384 . S
C228 H241 0.947 . S
C228 C263 1.382 . S
C229 C228 1.384 . S
C229 C230 1.378 . S
C230 C229 1.378 . S
C230 C231 1.378 . S
C230 H242 0.952 . S
C231 C230 1.378 . S
C231 H243 0.950 . S
C231 C262 1.383 . S
H232 C251 0.947 . S
H233 C252 0.946 . S
H234 C254 0.953 . S
H235 C255 0.945 . S
H236 C257 0.952 . S
H237 C258 0.949 . S
H238 C260 0.950 . S
H239 C261 0.948 . S
H240 C263 0.951 . S
H241 C228 0.947 . S
H242 C230 0.952 . S
H243 C231 0.950 . S
N244 C247 1.382 1_455 S
N244 C249 1.363 . S
N245 C247 1.371 . S
N245 C248 1.372 1_655 S
N246 C248 1.361 . S
N246 C249 1.377 . S
C247 N244 1.382 1_655 S
C247 N245 1.371 . S
C247 C250 1.480 . S
C248 N245 1.372 1_455 S
C248 N246 1.361 . S
C248 C256 1.457 . S
C249 N244 1.363 . S
C249 N246 1.377 . S
C249 C262 1.479 . S
C250 C247 1.480 . S
C250 C251 1.383 . S
C250 C255 1.385 . S
C251 H232 0.947 . S
C251 C250 1.383 . S
C251 C252 1.388 . S
C252 H233 0.946 . S
C252 C251 1.388 . S
C252 C253 1.384 . S
C253 C252 1.384 . S
C253 C254 1.377 . S
C254 H234 0.953 . S
C254 C253 1.377 . S
C254 C255 1.369 . S
C255 H235 0.945 . S
C255 C250 1.385 . S
C255 C254 1.369 . S
C256 C248 1.457 . S
C256 C257 1.372 1_455 S
C256 C261 1.364 . S
C257 H236 0.952 . S
C257 C256 1.372 1_655 S
C257 C258 1.389 . S
C258 H237 0.949 . S
C258 C257 1.389 . S
C258 C259 1.387 1_655 S
C259 C258 1.387 1_455 S
C259 C260 1.372 . S
C260 H238 0.950 . S
C260 C259 1.372 . S
C260 C261 1.379 . S
C261 H239 0.948 . S
C261 C256 1.364 . S
C261 C260 1.379 . S
C262 C231 1.383 . S
C262 C249 1.479 . S
C262 C263 1.398 . S
C263 C228 1.382 . S
C263 H240 0.951 . S
C263 C262 1.398 . S
C264 C265 1.384 . S
C264 H277 0.947 . S
C264 C299 1.382 . S
C265 C264 1.384 . S
C265 C266 1.378 . S
C266 C265 1.378 . S
C266 C267 1.378 . S
C266 H278 0.952 . S
C267 C266 1.378 . S
C267 H279 0.950 . S
C267 C298 1.383 . S
H268 C287 0.947 . S
H269 C288 0.946 . S
H270 C290 0.953 . S
H271 C291 0.945 . S
H272 C293 0.952 . S
H273 C294 0.949 . S
H274 C296 0.950 . S
H275 C297 0.948 . S
H276 C299 0.951 . S
H277 C264 0.947 . S
H278 C266 0.952 . S
H279 C267 0.950 . S
N280 C283 1.382 1_545 S
N280 C285 1.363 . S
N281 C283 1.371 . S
N281 C284 1.372 1_565 S
N282 C284 1.361 . S
N282 C285 1.377 . S
C283 N280 1.382 1_565 S
C283 N281 1.371 . S
C283 C286 1.480 . S
C284 N281 1.372 1_545 S
C284 N282 1.361 . S
C284 C292 1.457 . S
C285 N280 1.363 . S
C285 N282 1.377 . S
C285 C298 1.479 . S
C286 C283 1.480 . S
C286 C287 1.383 . S
C286 C291 1.385 . S
C287 H268 0.947 . S
C287 C286 1.383 . S
C287 C288 1.388 . S
C288 H269 0.946 . S
C288 C287 1.388 . S
C288 C289 1.384 . S
C289 C288 1.384 . S
C289 C290 1.377 . S
C290 H270 0.953 . S
C290 C289 1.377 . S
C290 C291 1.369 . S
C291 H271 0.945 . S
C291 C286 1.385 . S
C291 C290 1.369 . S
C292 C284 1.457 . S
C292 C293 1.372 1_545 S
C292 C297 1.364 . S
C293 H272 0.952 . S
C293 C292 1.372 1_565 S
C293 C294 1.389 . S
C294 H273 0.949 . S
C294 C293 1.389 . S
C294 C295 1.387 1_565 S
C295 C294 1.387 1_545 S
C295 C296 1.372 . S
C296 H274 0.950 . S
C296 C295 1.372 . S
C296 C297 1.379 . S
C297 H275 0.948 . S
C297 C292 1.364 . S
C297 C296 1.379 . S
C298 C267 1.383 . S
C298 C285 1.479 . S
C298 C299 1.398 . S
C299 C264 1.382 . S
C299 H276 0.951 . S
C299 C298 1.398 . S
C300 C301 1.384 . S
C300 H313 0.947 . S
C300 C335 1.382 . S
C301 C300 1.384 . S
C301 C302 1.378 . S
C302 C301 1.378 . S
C302 C303 1.378 . S
C302 H314 0.952 . S
C303 C302 1.378 . S
C303 H315 0.950 . S
C303 C334 1.383 . S
H304 C323 0.947 . S
H305 C324 0.946 . S
H306 C326 0.953 . S
H307 C327 0.945 . S
H308 C329 0.952 . S
H309 C330 0.949 . S
H310 C332 0.950 . S
H311 C333 0.948 . S
H312 C335 0.951 . S
H313 C300 0.947 . S
H314 C302 0.952 . S
H315 C303 0.950 . S
N316 C319 1.382 . S
N316 C321 1.363 . S
N317 C319 1.371 . S
N317 C320 1.372 . S
N318 C320 1.361 . S
N318 C321 1.377 . S
C319 N316 1.382 . S
C319 N317 1.371 . S
C319 C322 1.480 . S
C320 N317 1.372 . S
C320 N318 1.361 . S
C320 C328 1.457 . S
C321 N316 1.363 . S
C321 N318 1.377 . S
C321 C334 1.479 . S
C322 C319 1.480 . S
C322 C323 1.383 . S
C322 C327 1.385 . S
C323 H304 0.947 . S
C323 C322 1.383 . S
C323 C324 1.388 . S
C324 H305 0.946 . S
C324 C323 1.388 . S
C324 C325 1.384 . S
C325 C324 1.384 . S
C325 C326 1.377 . S
C326 H306 0.953 . S
C326 C325 1.377 . S
C326 C327 1.369 . S
C327 H307 0.945 . S
C327 C322 1.385 . S
C327 C326 1.369 . S
C328 C320 1.457 . S
C328 C329 1.372 . S
C328 C333 1.364 . S
C329 H308 0.952 . S
C329 C328 1.372 . S
C329 C330 1.389 . S
C330 H309 0.949 . S
C330 C329 1.389 . S
C330 C331 1.387 . S
C331 C330 1.387 . S
C331 C332 1.372 . S
C332 H310 0.950 . S
C332 C331 1.372 . S
C332 C333 1.379 . S
C333 H311 0.948 . S
C333 C328 1.364 . S
C333 C332 1.379 . S
C334 C303 1.383 . S
C334 C321 1.479 . S
C334 C335 1.398 . S
C335 C300 1.382 . S
C335 H312 0.951 . S
C335 C334 1.398 . S
C336 C337 1.349 . S
C336 C338 1.327 . S
C336 H361 0.950 . S
C337 C336 1.349 . S
C337 C353 1.349 . S
C338 C336 1.327 . S
C338 C357 1.429 . S
C338 H362 0.950 . S
C339 C356 1.574 . S
C339 C358 1.368 . S
C339 H363 0.949 . S
H340 C344 0.949 . S
C341 C342 1.349 . S
C341 C343 1.327 . S
C341 H364 0.950 . S
C342 C341 1.349 . S
C342 C354 1.349 . S
C343 C341 1.327 . S
C343 C359 1.429 . S
C343 H365 0.950 . S
C344 H340 0.949 . S
C344 C352 1.574 . S
C344 C360 1.368 . S
H345 C353 0.950 . S
H346 C351 0.950 . S
H347 C352 0.949 . S
H348 C354 0.950 . S
H349 C355 0.950 . S
H350 C356 0.949 . S
C351 H346 0.950 . S
C351 C353 1.327 . S
C351 C357 1.429 . S
C352 C344 1.574 . S
C352 H347 0.949 . S
C352 C358 1.368 . S
C353 C337 1.349 . S
C353 H345 0.950 . S
C353 C351 1.327 . S
C354 C342 1.349 . S
C354 H348 0.950 . S
C354 C355 1.327 . S
C355 H349 0.950 . S
C355 C354 1.327 . S
C355 C359 1.429 . S
C356 C339 1.574 . S
C356 H350 0.949 . S
C356 C360 1.368 . S
C357 C338 1.429 . S
C357 C351 1.429 . S
C357 C358 1.523 . S
C358 C339 1.368 . S
C358 C352 1.368 . S
C358 C357 1.523 . S
C359 C343 1.429 . S
C359 C355 1.429 . S
C359 C360 1.523 . S
C360 C344 1.368 . S
C360 C356 1.368 . S
C360 C359 1.523 . S
H361 C336 0.950 . S
H362 C338 0.950 . S
H363 C339 0.949 . S
H364 C341 0.950 . S
H365 C343 0.950 . S
C366 C367 1.349 . S
C366 C368 1.327 . S
C366 H391 0.950 . S
C367 C366 1.349 . S
C367 C383 1.349 . S
C368 C366 1.327 . S
C368 C387 1.429 . S
C368 H392 0.950 . S
C369 C386 1.574 . S
C369 C388 1.368 . S
C369 H393 0.949 . S
H370 C374 0.949 . S
C371 C372 1.349 . S
C371 C373 1.327 . S
C371 H394 0.950 . S
C372 C371 1.349 . S
C372 C384 1.349 . S
C373 C371 1.327 . S
C373 C389 1.429 . S
C373 H395 0.950 . S
C374 H370 0.949 . S
C374 C382 1.574 . S
C374 C390 1.368 . S
H375 C383 0.950 . S
H376 C381 0.950 . S
H377 C382 0.949 . S
H378 C384 0.950 . S
H379 C385 0.950 . S
H380 C386 0.949 . S
C381 H376 0.950 . S
C381 C383 1.327 . S
C381 C387 1.429 . S
C382 C374 1.574 . S
C382 H377 0.949 . S
C382 C388 1.368 . S
C383 C367 1.349 . S
C383 H375 0.950 . S
C383 C381 1.327 . S
C384 C372 1.349 . S
C384 H378 0.950 . S
C384 C385 1.327 . S
C385 H379 0.950 . S
C385 C384 1.327 . S
C385 C389 1.429 . S
C386 C369 1.574 . S
C386 H380 0.949 . S
C386 C390 1.368 . S
C387 C368 1.429 . S
C387 C381 1.429 . S
C387 C388 1.523 . S
C388 C369 1.368 . S
C388 C382 1.368 . S
C388 C387 1.523 . S
C389 C373 1.429 . S
C389 C385 1.429 . S
C389 C390 1.523 . S
C390 C374 1.368 . S
C390 C386 1.368 . S
C390 C389 1.523 . S
H391 C366 0.950 . S
H392 C368 0.950 . S
H393 C369 0.949 . S
H394 C371 0.950 . S
H395 C373 0.950 . S
C396 C397 1.349 . S
C396 C398 1.327 . S
C396 H421 0.950 . S
C397 C396 1.349 . S
C397 C413 1.349 . S
C398 C396 1.327 . S
C398 C417 1.429 . S
C398 H422 0.950 . S
C399 C416 1.574 . S
C399 C418 1.368 . S
C399 H423 0.949 . S
H400 C404 0.949 . S
C401 C402 1.349 . S
C401 C403 1.327 . S
C401 H424 0.950 . S
C402 C401 1.349 . S
C402 C414 1.349 . S
C403 C401 1.327 . S
C403 C419 1.429 . S
C403 H425 0.950 . S
C404 H400 0.949 . S
C404 C412 1.574 . S
C404 C420 1.368 . S
H405 C413 0.950 . S
H406 C411 0.950 . S
H407 C412 0.949 . S
H408 C414 0.950 . S
H409 C415 0.950 . S
H410 C416 0.949 . S
C411 H406 0.950 . S
C411 C413 1.327 . S
C411 C417 1.429 . S
C412 C404 1.574 . S
C412 H407 0.949 . S
C412 C418 1.368 . S
C413 C397 1.349 . S
C413 H405 0.950 . S
C413 C411 1.327 . S
C414 C402 1.349 . S
C414 H408 0.950 . S
C414 C415 1.327 . S
C415 H409 0.950 . S
C415 C414 1.327 . S
C415 C419 1.429 . S
C416 C399 1.574 . S
C416 H410 0.949 . S
C416 C420 1.368 . S
C417 C398 1.429 . S
C417 C411 1.429 . S
C417 C418 1.523 . S
C418 C399 1.368 . S
C418 C412 1.368 . S
C418 C417 1.523 . S
C419 C403 1.429 . S
C419 C415 1.429 . S
C419 C420 1.523 . S
C420 C404 1.368 . S
C420 C416 1.368 . S
C420 C419 1.523 . S
H421 C396 0.950 . S
H422 C398 0.950 . S
H423 C399 0.949 . S
H424 C401 0.950 . S
H425 C403 0.950 . S
C426 C427 1.349 . S
C426 C428 1.327 . S
C426 H451 0.950 . S
C427 C426 1.349 . S
C427 C443 1.349 . S
C428 C426 1.327 . S
C428 C447 1.429 . S
C428 H452 0.950 . S
C429 C446 1.574 . S
C429 C448 1.368 . S
C429 H453 0.949 . S
H430 C434 0.949 . S
C431 C432 1.349 . S
C431 C433 1.327 . S
C431 H454 0.950 . S
C432 C431 1.349 . S
C432 C444 1.349 . S
C433 C431 1.327 . S
C433 C449 1.429 . S
C433 H455 0.950 . S
C434 H430 0.949 . S
C434 C442 1.574 . S
C434 C450 1.368 . S
H435 C443 0.950 . S
H436 C441 0.950 . S
H437 C442 0.949 . S
H438 C444 0.950 . S
H439 C445 0.950 . S
H440 C446 0.949 . S
C441 H436 0.950 . S
C441 C443 1.327 . S
C441 C447 1.429 . S
C442 C434 1.574 . S
C442 H437 0.949 . S
C442 C448 1.368 . S
C443 C427 1.349 . S
C443 H435 0.950 . S
C443 C441 1.327 . S
C444 C432 1.349 . S
C444 H438 0.950 . S
C444 C445 1.327 . S
C445 H439 0.950 . S
C445 C444 1.327 . S
C445 C449 1.429 . S
C446 C429 1.574 . S
C446 H440 0.949 . S
C446 C450 1.368 . S
C447 C428 1.429 . S
C447 C441 1.429 . S
C447 C448 1.523 . S
C448 C429 1.368 . S
C448 C442 1.368 . S
C448 C447 1.523 . S
C449 C433 1.429 . S
C449 C445 1.429 . S
C449 C450 1.523 . S
C450 C434 1.368 . S
C450 C446 1.368 . S
C450 C449 1.523 . S
H451 C426 0.950 . S
H452 C428 0.950 . S
H453 C429 0.949 . S
H454 C431 0.950 . S
H455 C433 0.950 . S
C456 C457 1.349 . S
C456 C458 1.327 . S
C456 H481 0.950 . S
C457 C456 1.349 . S
C457 C473 1.349 . S
C458 C456 1.327 . S
C458 C477 1.429 . S
C458 H482 0.950 . S
C459 C476 1.574 . S
C459 C478 1.368 . S
C459 H483 0.949 . S
H460 C464 0.949 . S
C461 C462 1.349 . S
C461 C463 1.327 . S
C461 H484 0.950 . S
C462 C461 1.349 . S
C462 C474 1.349 . S
C463 C461 1.327 . S
C463 C479 1.429 . S
C463 H485 0.950 . S
C464 H460 0.949 . S
C464 C472 1.574 . S
C464 C480 1.368 . S
H465 C473 0.950 . S
H466 C471 0.950 . S
H467 C472 0.949 . S
H468 C474 0.950 . S
H469 C475 0.950 . S
H470 C476 0.949 . S
C471 H466 0.950 . S
C471 C473 1.327 . S
C471 C477 1.429 . S
C472 C464 1.574 . S
C472 H467 0.949 . S
C472 C478 1.368 . S
C473 C457 1.349 . S
C473 H465 0.950 . S
C473 C471 1.327 . S
C474 C462 1.349 . S
C474 H468 0.950 . S
C474 C475 1.327 . S
C475 H469 0.950 . S
C475 C474 1.327 . S
C475 C479 1.429 . S
C476 C459 1.574 . S
C476 H470 0.949 . S
C476 C480 1.368 . S
C477 C458 1.429 . S
C477 C471 1.429 . S
C477 C478 1.523 . S
C478 C459 1.368 . S
C478 C472 1.368 . S
C478 C477 1.523 . S
C479 C463 1.429 . S
C479 C475 1.429 . S
C479 C480 1.523 . S
C480 C464 1.368 . S
C480 C476 1.368 . S
C480 C479 1.523 . S
H481 C456 0.950 . S
H482 C458 0.950 . S
H483 C459 0.949 . S
H484 C461 0.950 . S
H485 C463 0.950 . S
C486 C487 1.349 . S
C486 C488 1.327 . S
C486 H511 0.950 . S
C487 C486 1.349 . S
C487 C503 1.349 . S
C488 C486 1.327 . S
C488 C507 1.429 . S
C488 H512 0.950 . S
C489 C506 1.574 . S
C489 C508 1.368 . S
C489 H513 0.949 . S
H490 C494 0.949 . S
C491 C492 1.349 . S
C491 C493 1.327 . S
C491 H514 0.950 . S
C492 C491 1.349 . S
C492 C504 1.349 . S
C493 C491 1.327 . S
C493 C509 1.429 . S
C493 H515 0.950 . S
C494 H490 0.949 . S
C494 C502 1.574 . S
C494 C510 1.368 . S
H495 C503 0.950 . S
H496 C501 0.950 . S
H497 C502 0.949 . S
H498 C504 0.950 . S
H499 C505 0.950 . S
H500 C506 0.949 . S
C501 H496 0.950 . S
C501 C503 1.327 . S
C501 C507 1.429 . S
C502 C494 1.574 . S
C502 H497 0.949 . S
C502 C508 1.368 . S
C503 C487 1.349 . S
C503 H495 0.950 . S
C503 C501 1.327 . S
C504 C492 1.349 . S
C504 H498 0.950 . S
C504 C505 1.327 . S
C505 H499 0.950 . S
C505 C504 1.327 . S
C505 C509 1.429 . S
C506 C489 1.574 . S
C506 H500 0.949 . S
C506 C510 1.368 . S
C507 C488 1.429 . S
C507 C501 1.429 . S
C507 C508 1.523 . S
C508 C489 1.368 . S
C508 C502 1.368 . S
C508 C507 1.523 . S
C509 C493 1.429 . S
C509 C505 1.429 . S
C509 C510 1.523 . S
C510 C494 1.368 . S
C510 C506 1.368 . S
C510 C509 1.523 . S
H511 C486 0.950 . S
H512 C488 0.950 . S
H513 C489 0.949 . S
H514 C491 0.950 . S
H515 C493 0.950 . S
C516 C517 1.349 . S
C516 C518 1.327 . S
C516 H541 0.950 . S
C517 C516 1.349 . S
C517 C533 1.349 . S
C518 C516 1.327 . S
C518 C537 1.429 . S
C518 H542 0.950 . S
C519 C536 1.574 . S
C519 C538 1.368 . S
C519 H543 0.949 . S
H520 C524 0.949 . S
C521 C522 1.349 . S
C521 C523 1.327 . S
C521 H544 0.950 . S
C522 C521 1.349 . S
C522 C534 1.349 . S
C523 C521 1.327 . S
C523 C539 1.429 . S
C523 H545 0.950 . S
C524 H520 0.949 . S
C524 C532 1.574 . S
C524 C540 1.368 . S
H525 C533 0.950 . S
H526 C531 0.950 . S
H527 C532 0.949 . S
H528 C534 0.950 . S
H529 C535 0.950 . S
H530 C536 0.949 . S
C531 H526 0.950 . S
C531 C533 1.327 . S
C531 C537 1.429 . S
C532 C524 1.574 . S
C532 H527 0.949 . S
C532 C538 1.368 . S
C533 C517 1.349 . S
C533 H525 0.950 . S
C533 C531 1.327 . S
C534 C522 1.349 . S
C534 H528 0.950 . S
C534 C535 1.327 . S
C535 H529 0.950 . S
C535 C534 1.327 . S
C535 C539 1.429 . S
C536 C519 1.574 . S
C536 H530 0.949 . S
C536 C540 1.368 . S
C537 C518 1.429 . S
C537 C531 1.429 . S
C537 C538 1.523 . S
C538 C519 1.368 . S
C538 C532 1.368 . S
C538 C537 1.523 . S
C539 C523 1.429 . S
C539 C535 1.429 . S
C539 C540 1.523 . S
C540 C524 1.368 . S
C540 C536 1.368 . S
C540 C539 1.523 . S
H541 C516 0.950 . S
H542 C518 0.950 . S
H543 C519 0.949 . S
H544 C521 0.950 . S
H545 C523 0.950 . S
C546 C547 1.349 . S
C546 C548 1.327 . S
C546 H571 0.950 . S
C547 C546 1.349 . S
C547 C563 1.349 . S
C548 C546 1.327 . S
C548 C567 1.429 . S
C548 H572 0.950 . S
C549 C566 1.574 . S
C549 C568 1.368 . S
C549 H573 0.949 . S
H550 C554 0.949 . S
C551 C552 1.349 . S
C551 C553 1.327 . S
C551 H574 0.950 . S
C552 C551 1.349 . S
C552 C564 1.349 . S
C553 C551 1.327 . S
C553 C569 1.429 . S
C553 H575 0.950 . S
C554 H550 0.949 . S
C554 C562 1.574 . S
C554 C570 1.368 . S
H555 C563 0.950 . S
H556 C561 0.950 . S
H557 C562 0.949 . S
H558 C564 0.950 . S
H559 C565 0.950 . S
H560 C566 0.949 . S
C561 H556 0.950 . S
C561 C563 1.327 . S
C561 C567 1.429 . S
C562 C554 1.574 . S
C562 H557 0.949 . S
C562 C568 1.368 . S
C563 C547 1.349 . S
C563 H555 0.950 . S
C563 C561 1.327 . S
C564 C552 1.349 . S
C564 H558 0.950 . S
C564 C565 1.327 . S
C565 H559 0.950 . S
C565 C564 1.327 . S
C565 C569 1.429 . S
C566 C549 1.574 . S
C566 H560 0.949 . S
C566 C570 1.368 . S
C567 C548 1.429 . S
C567 C561 1.429 . S
C567 C568 1.523 . S
C568 C549 1.368 . S
C568 C562 1.368 . S
C568 C567 1.523 . S
C569 C553 1.429 . S
C569 C565 1.429 . S
C569 C570 1.523 . S
C570 C554 1.368 . S
C570 C566 1.368 . S
C570 C569 1.523 . S
H571 C546 0.950 . S
H572 C548 0.950 . S
H573 C549 0.949 . S
H574 C551 0.950 . S
H575 C553 0.950 . S
C576 C577 1.349 . S
C576 C578 1.327 . S
C576 H601 0.950 . S
C577 C576 1.349 . S
C577 C593 1.349 . S
C578 C576 1.327 . S
C578 C597 1.429 . S
C578 H602 0.950 . S
C579 C596 1.574 . S
C579 C598 1.368 . S
C579 H603 0.949 . S
H580 C584 0.949 . S
C581 C582 1.349 . S
C581 C583 1.327 . S
C581 H604 0.950 . S
C582 C581 1.349 . S
C582 C594 1.349 . S
C583 C581 1.327 . S
C583 C599 1.429 . S
C583 H605 0.950 . S
C584 H580 0.949 . S
C584 C592 1.574 . S
C584 C600 1.368 . S
H585 C593 0.950 . S
H586 C591 0.950 . S
H587 C592 0.949 . S
H588 C594 0.950 . S
H589 C595 0.950 . S
H590 C596 0.949 . S
C591 H586 0.950 . S
C591 C593 1.327 . S
C591 C597 1.429 . S
C592 C584 1.574 . S
C592 H587 0.949 . S
C592 C598 1.368 . S
C593 C577 1.349 . S
C593 H585 0.950 . S
C593 C591 1.327 . S
C594 C582 1.349 . S
C594 H588 0.950 . S
C594 C595 1.327 . S
C595 H589 0.950 . S
C595 C594 1.327 . S
C595 C599 1.429 . S
C596 C579 1.574 . S
C596 H590 0.949 . S
C596 C600 1.368 . S
C597 C578 1.429 . S
C597 C591 1.429 . S
C597 C598 1.523 . S
C598 C579 1.368 . S
C598 C592 1.368 . S
C598 C597 1.523 . S
C599 C583 1.429 . S
C599 C595 1.429 . S
C599 C600 1.523 . S
C600 C584 1.368 . S
C600 C596 1.368 . S
C600 C599 1.523 . S
H601 C576 0.950 . S
H602 C578 0.950 . S
H603 C579 0.949 . S
H604 C581 0.950 . S
H605 C583 0.950 . S
C606 C607 1.349 . S
C606 C608 1.327 . S
C606 H631 0.950 . S
C607 C606 1.349 . S
C607 C623 1.349 . S
C608 C606 1.327 . S
C608 C627 1.429 . S
C608 H632 0.950 . S
C609 C626 1.574 . S
C609 C628 1.368 . S
C609 H633 0.949 . S
H610 C614 0.949 . S
C611 C612 1.349 . S
C611 C613 1.327 . S
C611 H634 0.950 . S
C612 C611 1.349 . S
C612 C624 1.349 . S
C613 C611 1.327 . S
C613 C629 1.429 . S
C613 H635 0.950 . S
C614 H610 0.949 . S
C614 C622 1.574 . S
C614 C630 1.368 . S
H615 C623 0.950 . S
H616 C621 0.950 . S
H617 C622 0.949 . S
H618 C624 0.950 . S
H619 C625 0.950 . S
H620 C626 0.949 . S
C621 H616 0.950 . S
C621 C623 1.327 . S
C621 C627 1.429 . S
C622 C614 1.574 . S
C622 H617 0.949 . S
C622 C628 1.368 . S
C623 C607 1.349 . S
C623 H615 0.950 . S
C623 C621 1.327 . S
C624 C612 1.349 . S
C624 H618 0.950 . S
C624 C625 1.327 . S
C625 H619 0.950 . S
C625 C624 1.327 . S
C625 C629 1.429 . S
C626 C609 1.574 . S
C626 H620 0.949 . S
C626 C630 1.368 . S
C627 C608 1.429 . S
C627 C621 1.429 . S
C627 C628 1.523 . S
C628 C609 1.368 . S
C628 C622 1.368 . S
C628 C627 1.523 . S
C629 C613 1.429 . S
C629 C625 1.429 . S
C629 C630 1.523 . S
C630 C614 1.368 . S
C630 C626 1.368 . S
C630 C629 1.523 . S
H631 C606 0.950 . S
H632 C608 0.950 . S
H633 C609 0.949 . S
H634 C611 0.950 . S
H635 C613 0.950 . S
C636 C637 1.349 . S
C636 C638 1.327 . S
C636 H661 0.950 . S
C637 C636 1.349 . S
C637 C653 1.349 . S
C638 C636 1.327 . S
C638 C657 1.429 . S
C638 H662 0.950 . S
C639 C656 1.574 . S
C639 C658 1.368 . S
C639 H663 0.949 . S
H640 C644 0.949 . S
C641 C642 1.349 . S
C641 C643 1.327 . S
C641 H664 0.950 . S
C642 C641 1.349 . S
C642 C654 1.349 . S
C643 C641 1.327 . S
C643 C659 1.429 . S
C643 H665 0.950 . S
C644 H640 0.949 . S
C644 C652 1.574 . S
C644 C660 1.368 . S
H645 C653 0.950 . S
H646 C651 0.950 . S
H647 C652 0.949 . S
H648 C654 0.950 . S
H649 C655 0.950 . S
H650 C656 0.949 . S
C651 H646 0.950 . S
C651 C653 1.327 . S
C651 C657 1.429 . S
C652 C644 1.574 . S
C652 H647 0.949 . S
C652 C658 1.368 . S
C653 C637 1.349 . S
C653 H645 0.950 . S
C653 C651 1.327 . S
C654 C642 1.349 . S
C654 H648 0.950 . S
C654 C655 1.327 . S
C655 H649 0.950 . S
C655 C654 1.327 . S
C655 C659 1.429 . S
C656 C639 1.574 . S
C656 H650 0.949 . S
C656 C660 1.368 . S
C657 C638 1.429 . S
C657 C651 1.429 . S
C657 C658 1.523 . S
C658 C639 1.368 . S
C658 C652 1.368 . S
C658 C657 1.523 . S
C659 C643 1.429 . S
C659 C655 1.429 . S
C659 C660 1.523 . S
C660 C644 1.368 . S
C660 C656 1.368 . S
C660 C659 1.523 . S
H661 C636 0.950 . S
H662 C638 0.950 . S
H663 C639 0.949 . S
H664 C641 0.950 . S
H665 C643 0.950 . S
C666 C667 1.349 . S
C666 C668 1.327 . S
C666 H691 0.950 . S
C667 C666 1.349 . S
C667 C683 1.349 . S
C668 C666 1.327 . S
C668 C687 1.429 . S
C668 H692 0.950 . S
C669 C686 1.574 . S
C669 C688 1.368 . S
C669 H693 0.949 . S
H670 C674 0.949 . S
C671 C672 1.349 . S
C671 C673 1.327 . S
C671 H694 0.950 . S
C672 C671 1.349 . S
C672 C684 1.349 . S
C673 C671 1.327 . S
C673 C689 1.429 . S
C673 H695 0.950 . S
C674 H670 0.949 . S
C674 C682 1.574 . S
C674 C690 1.368 . S
H675 C683 0.950 . S
H676 C681 0.950 . S
H677 C682 0.949 . S
H678 C684 0.950 . S
H679 C685 0.950 . S
H680 C686 0.949 . S
C681 H676 0.950 . S
C681 C683 1.327 . S
C681 C687 1.429 . S
C682 C674 1.574 . S
C682 H677 0.949 . S
C682 C688 1.368 . S
C683 C667 1.349 . S
C683 H675 0.950 . S
C683 C681 1.327 . S
C684 C672 1.349 . S
C684 H678 0.950 . S
C684 C685 1.327 . S
C685 H679 0.950 . S
C685 C684 1.327 . S
C685 C689 1.429 . S
C686 C669 1.574 . S
C686 H680 0.949 . S
C686 C690 1.368 . S
C687 C668 1.429 . S
C687 C681 1.429 . S
C687 C688 1.523 . S
C688 C669 1.368 . S
C688 C682 1.368 . S
C688 C687 1.523 . S
C689 C673 1.429 . S
C689 C685 1.429 . S
C689 C690 1.523 . S
C690 C674 1.368 . S
C690 C686 1.368 . S
C690 C689 1.523 . S
H691 C666 0.950 . S
H692 C668 0.950 . S
H693 C669 0.949 . S
H694 C671 0.950 . S
H695 C673 0.950 . S
C696 C697 1.349 . S
C696 C698 1.327 . S
C696 H721 0.950 . S
C697 C696 1.349 . S
C697 C713 1.349 1_455 S
C698 C696 1.327 . S
C698 C717 1.429 . S
C698 H722 0.950 . S
C699 C716 1.574 . S
C699 C718 1.368 1_655 S
C699 H723 0.949 . S
H700 C704 0.949 . S
C701 C702 1.349 1_655 S
C701 C703 1.327 1_556 S
C701 H724 0.950 . S
C702 C701 1.349 1_455 S
C702 C714 1.349 . S
C703 C701 1.327 1_554 S
C703 C719 1.429 1_655 S
C703 H725 0.950 . S
C704 H700 0.949 . S
C704 C712 1.574 . S
C704 C720 1.368 . S
H705 C713 0.950 . S
H706 C711 0.950 . S
H707 C712 0.949 . S
H708 C714 0.950 . S
H709 C715 0.950 . S
H710 C716 0.949 . S
C711 H706 0.950 . S
C711 C713 1.327 . S
C711 C717 1.429 1_655 S
C712 C704 1.574 . S
C712 H707 0.949 . S
C712 C718 1.368 . S
C713 C697 1.349 1_655 S
C713 H705 0.950 . S
C713 C711 1.327 . S
C714 C702 1.349 . S
C714 H708 0.950 . S
C714 C715 1.327 1_556 S
C715 H709 0.950 . S
C715 C714 1.327 1_554 S
C715 C719 1.429 . S
C716 C699 1.574 . S
C716 H710 0.949 . S
C716 C720 1.368 1_655 S
C717 C698 1.429 . S
C717 C711 1.429 1_455 S
C717 C718 1.523 . S
C718 C699 1.368 1_455 S
C718 C712 1.368 . S
C718 C717 1.523 . S
C719 C703 1.429 1_455 S
C719 C715 1.429 . S
C719 C720 1.523 . S
C720 C704 1.368 . S
C720 C716 1.368 1_455 S
C720 C719 1.523 . S
H721 C696 0.950 . S
H722 C698 0.950 . S
H723 C699 0.949 . S
H724 C701 0.950 . S
H725 C703 0.950 . S
C726 C727 1.349 . S
C726 C728 1.327 . S
C726 H751 0.950 1_545 S
C727 C726 1.349 . S
C727 C743 1.349 . S
C728 C726 1.327 . S
C728 C747 1.429 . S
C728 H752 0.950 1_545 S
C729 C746 1.574 . S
C729 C748 1.368 . S
C729 H753 0.949 . S
H730 C734 0.949 1_565 S
C731 C732 1.349 . S
C731 C733 1.327 . S
C731 H754 0.950 . S
C732 C731 1.349 . S
C732 C744 1.349 . S
C733 C731 1.327 . S
C733 C749 1.429 . S
C733 H755 0.950 . S
C734 H730 0.949 1_545 S
C734 C742 1.574 . S
C734 C750 1.368 . S
H735 C743 0.950 . S
H736 C741 0.950 . S
H737 C742 0.949 1_565 S
H738 C744 0.950 1_565 S
H739 C745 0.950 1_565 S
H740 C746 0.949 . S
C741 H736 0.950 . S
C741 C743 1.327 . S
C741 C747 1.429 . S
C742 C734 1.574 . S
C742 H737 0.949 1_545 S
C742 C748 1.368 . S
C743 C727 1.349 . S
C743 H735 0.950 . S
C743 C741 1.327 . S
C744 C732 1.349 . S
C744 H738 0.950 1_545 S
C744 C745 1.327 . S
C745 H739 0.950 1_545 S
C745 C744 1.327 . S
C745 C749 1.429 . S
C746 C729 1.574 . S
C746 H740 0.949 . S
C746 C750 1.368 . S
C747 C728 1.429 . S
C747 C741 1.429 . S
C747 C748 1.523 . S
C748 C729 1.368 . S
C748 C742 1.368 . S
C748 C747 1.523 . S
C749 C733 1.429 . S
C749 C745 1.429 . S
C749 C750 1.523 . S
C750 C734 1.368 . S
C750 C746 1.368 . S
C750 C749 1.523 . S
H751 C726 0.950 1_565 S
H752 C728 0.950 1_565 S
H753 C729 0.949 . S
H754 C731 0.950 . S
H755 C733 0.950 . S
C756 C757 1.349 . S
C756 C758 1.327 . S
C756 H781 0.950 . S
C757 C756 1.349 . S
C757 C773 1.349 . S
C758 C756 1.327 . S
C758 C777 1.429 . S
C758 H782 0.950 . S
C759 C776 1.574 . S
C759 C778 1.368 . S
C759 H783 0.949 . S
H760 C764 0.949 . S
C761 C762 1.349 . S
C761 C763 1.327 . S
C761 H784 0.950 . S
C762 C761 1.349 . S
C762 C774 1.349 . S
C763 C761 1.327 . S
C763 C779 1.429 . S
C763 H785 0.950 . S
C764 H760 0.949 . S
C764 C772 1.574 . S
C764 C780 1.368 . S
H765 C773 0.950 . S
H766 C771 0.950 . S
H767 C772 0.949 . S
H768 C774 0.950 . S
H769 C775 0.950 . S
H770 C776 0.949 . S
C771 H766 0.950 . S
C771 C773 1.327 . S
C771 C777 1.429 . S
C772 C764 1.574 . S
C772 H767 0.949 . S
C772 C778 1.368 . S
C773 C757 1.349 . S
C773 H765 0.950 . S
C773 C771 1.327 . S
C774 C762 1.349 . S
C774 H768 0.950 . S
C774 C775 1.327 . S
C775 H769 0.950 . S
C775 C774 1.327 . S
C775 C779 1.429 . S
C776 C759 1.574 . S
C776 H770 0.949 . S
C776 C780 1.368 . S
C777 C758 1.429 . S
C777 C771 1.429 . S
C777 C778 1.523 . S
C778 C759 1.368 . S
C778 C772 1.368 . S
C778 C777 1.523 . S
C779 C763 1.429 . S
C779 C775 1.429 . S
C779 C780 1.523 . S
C780 C764 1.368 . S
C780 C776 1.368 . S
C780 C779 1.523 . S
H781 C756 0.950 . S
H782 C758 0.950 . S
H783 C759 0.949 . S
H784 C761 0.950 . S
H785 C763 0.950 . S
C786 C787 1.349 . S
C786 C788 1.327 . S
C786 H811 0.950 . S
C787 C786 1.349 . S
C787 C803 1.349 . S
C788 C786 1.327 . S
C788 C807 1.429 . S
C788 H812 0.950 . S
C789 C806 1.574 . S
C789 C808 1.368 1_565 S
C789 H813 0.949 . S
H790 C794 0.949 . S
C791 C792 1.349 1_565 S
C791 C793 1.327 . S
C791 H814 0.950 . S
C792 C791 1.349 1_545 S
C792 C804 1.349 . S
C793 C791 1.327 . S
C793 C809 1.429 1_565 S
C793 H815 0.950 . S
C794 H790 0.949 . S
C794 C802 1.574 . S
C794 C810 1.368 . S
H795 C803 0.950 1_565 S
H796 C801 0.950 1_565 S
H797 C802 0.949 . S
H798 C804 0.950 . S
H799 C805 0.950 . S
H800 C806 0.949 . S
C801 H796 0.950 1_545 S
C801 C803 1.327 . S
C801 C807 1.429 . S
C802 C794 1.574 . S
C802 H797 0.949 . S
C802 C808 1.368 . S
C803 C787 1.349 . S
C803 H795 0.950 1_545 S
C803 C801 1.327 . S
C804 C792 1.349 . S
C804 H798 0.950 . S
C804 C805 1.327 . S
C805 H799 0.950 . S
C805 C804 1.327 . S
C805 C809 1.429 . S
C806 C789 1.574 . S
C806 H800 0.949 . S
C806 C810 1.368 1_565 S
C807 C788 1.429 . S
C807 C801 1.429 . S
C807 C808 1.523 . S
C808 C789 1.368 1_545 S
C808 C802 1.368 . S
C808 C807 1.523 . S
C809 C793 1.429 1_545 S
C809 C805 1.429 . S
C809 C810 1.523 . S
C810 C794 1.368 . S
C810 C806 1.368 1_545 S
C810 C809 1.523 . S
H811 C786 0.950 . S
H812 C788 0.950 . S
H813 C789 0.949 . S
H814 C791 0.950 . S
H815 C793 0.950 . S
C816 C817 1.349 . S
C816 C818 1.327 . S
C816 H841 0.950 . S
C817 C816 1.349 . S
C817 C833 1.349 . S
C818 C816 1.327 . S
C818 C837 1.429 . S
C818 H842 0.950 . S
C819 C836 1.574 . S
C819 C838 1.368 . S
C819 H843 0.949 . S
H820 C824 0.949 . S
C821 C822 1.349 . S
C821 C823 1.327 1_554 S
C821 H844 0.950 . S
C822 C821 1.349 . S
C822 C834 1.349 . S
C823 C821 1.327 1_556 S
C823 C839 1.429 . S
C823 H845 0.950 . S
C824 H820 0.949 . S
C824 C832 1.574 . S
C824 C840 1.368 . S
H825 C833 0.950 . S
H826 C831 0.950 . S
H827 C832 0.949 . S
H828 C834 0.950 . S
H829 C835 0.950 . S
H830 C836 0.949 . S
C831 H826 0.950 . S
C831 C833 1.327 . S
C831 C837 1.429 . S
C832 C824 1.574 . S
C832 H827 0.949 . S
C832 C838 1.368 . S
C833 C817 1.349 . S
C833 H825 0.950 . S
C833 C831 1.327 . S
C834 C822 1.349 . S
C834 H828 0.950 . S
C834 C835 1.327 1_554 S
C835 H829 0.950 . S
C835 C834 1.327 1_556 S
C835 C839 1.429 . S
C836 C819 1.574 . S
C836 H830 0.949 . S
C836 C840 1.368 . S
C837 C818 1.429 . S
C837 C831 1.429 . S
C837 C838 1.523 . S
C838 C819 1.368 . S
C838 C832 1.368 . S
C838 C837 1.523 . S
C839 C823 1.429 . S
C839 C835 1.429 . S
C839 C840 1.523 . S
C840 C824 1.368 . S
C840 C836 1.368 . S
C840 C839 1.523 . S
H841 C816 0.950 . S
H842 C818 0.950 . S
H843 C819 0.949 . S
H844 C821 0.950 . S
H845 C823 0.950 . S
C846 C847 1.349 . S
C846 C848 1.327 . S
C846 H871 0.950 . S
C847 C846 1.349 . S
C847 C863 1.349 . S
C848 C846 1.327 . S
C848 C867 1.429 . S
C848 H872 0.950 . S
C849 C866 1.574 . S
C849 C868 1.368 . S
C849 H873 0.949 . S
H850 C854 0.949 . S
C851 C852 1.349 . S
C851 C853 1.327 . S
C851 H874 0.952 1_455 S
C852 C851 1.349 . S
C852 C864 1.349 . S
C853 C851 1.327 . S
C853 C869 1.429 . S
C853 H875 0.950 . S
C854 H850 0.949 . S
C854 C862 1.574 . S
C854 C870 1.368 . S
H855 C863 0.950 . S
H856 C861 0.950 . S
H857 C862 0.949 . S
H858 C864 0.950 . S
H859 C865 0.950 . S
H860 C866 0.949 . S
C861 H856 0.950 . S
C861 C863 1.327 . S
C861 C867 1.429 . S
C862 C854 1.574 . S
C862 H857 0.949 . S
C862 C868 1.368 . S
C863 C847 1.349 . S
C863 H855 0.950 . S
C863 C861 1.327 . S
C864 C852 1.349 . S
C864 H858 0.950 . S
C864 C865 1.327 . S
C865 H859 0.950 . S
C865 C864 1.327 . S
C865 C869 1.429 . S
C866 C849 1.574 . S
C866 H860 0.949 . S
C866 C870 1.368 . S
C867 C848 1.429 . S
C867 C861 1.429 . S
C867 C868 1.523 . S
C868 C849 1.368 . S
C868 C862 1.368 . S
C868 C867 1.523 . S
C869 C853 1.429 . S
C869 C865 1.429 . S
C869 C870 1.523 . S
C870 C854 1.368 . S
C870 C866 1.368 . S
C870 C869 1.523 . S
H871 C846 0.950 . S
H872 C848 0.950 . S
H873 C849 0.949 . S
H874 C851 0.952 1_655 S
H875 C853 0.950 . S
C337 C9 0.403 . S
C342 C325 0.380 . S
C367 C49 0.252 . S
C372 C253 0.309 . S
C397 C89 0.247 . S
C402 C289 0.326 . S
C427 C26 0.342 . S
C432 C301 0.225 . S
C462 C229 0.322 . S
C457 C66 0.406 . S
C492 C265 0.348 . S
C487 C106 0.431 . S
C517 C43 2.874 . S
C522 C181 2.812 . S
C547 C83 3.034 . S
C552 C193 2.994 . S
C577 C22 3.105 . S
C582 C121 3.061 . S
C612 C157 3.053 . S
C607 C62 3.094 . S
C642 C217 2.864 . S
C637 C102 2.929 . S
C667 C3 2.864 . S
C672 C145 2.805 . S
C702 C223 1.772 . S
C697 C15 1.719 . S
C727 C55 1.731 . S
C732 C151 1.771 . S
C757 C95 1.727 . S
C762 C187 1.767 . S
C792 C295 1.093 . S
C787 C42 1.084 . S
C822 C331 1.105 . S
C817 C82 1.088 . S
C847 C2 1.084 . S
C852 C259 1.091 . S
