# Generated by pormake.
# Topology zzz, (3,6)-cn, num edge types: 1
# Building blocks:
#     Node 0, Type 0, BuildingBlock: ESEHIV_clean_linker_0, # of connection points: 3
#     Node 1, Type 0, BuildingBlock: ESEHIV_clean_linker_0, # of connection points: 3
#     Node 2, Type 0, BuildingBlock: ESEHIV_clean_linker_0, # of connection points: 3
#     Node 3, Type 0, BuildingBlock: ESEHIV_clean_linker_0, # of connection points: 3
#     Node 4, Type 0, BuildingBlock: ESEHIV_clean_linker_0, # of connection points: 3
#     Node 5, Type 0, BuildingBlock: ESEHIV_clean_linker_0, # of connection points: 3
#     Node 6, Type 0, BuildingBlock: ESEHIV_clean_linker_0, # of connection points: 3
#     Node 7, Type 0, BuildingBlock: ESEHIV_clean_linker_0, # of connection points: 3
#     Node 8, Type 1, BuildingBlock: KUMBUR_clean_sbu_1, # of connection points: 6
#     Node 9, Type 1, BuildingBlock: KUMBUR_clean_sbu_1, # of connection points: 6
#     Node 10, Type 1, BuildingBlock: KUMBUR_clean_sbu_1, # of connection points: 6
#     Node 11, Type 1, BuildingBlock: KUMBUR_clean_sbu_1, # of connection points: 6
#     Edge 12, Type (0, 1), BuildingBlock: OJICUG_clean_linker_0, # of connection points: 2
#     Edge 13, Type (0, 1), BuildingBlock: OJICUG_clean_linker_0, # of connection points: 2
#     Edge 14, Type (0, 1), BuildingBlock: OJICUG_clean_linker_0, # of connection points: 2
#     Edge 15, Type (0, 1), BuildingBlock: OJICUG_clean_linker_0, # of connection points: 2
#     Edge 16, Type (0, 1), BuildingBlock: OJICUG_clean_linker_0, # of connection points: 2
#     Edge 17, Type (0, 1), BuildingBlock: OJICUG_clean_linker_0, # of connection points: 2
#     Edge 18, Type (0, 1), BuildingBlock: OJICUG_clean_linker_0, # of connection points: 2
#     Edge 19, Type (0, 1), BuildingBlock: OJICUG_clean_linker_0, # of connection points: 2
#     Edge 20, Type (0, 1), BuildingBlock: OJICUG_clean_linker_0, # of connection points: 2
#     Edge 21, Type (0, 1), BuildingBlock: OJICUG_clean_linker_0, # of connection points: 2
#     Edge 22, Type (0, 1), BuildingBlock: OJICUG_clean_linker_0, # of connection points: 2
#     Edge 23, Type (0, 1), BuildingBlock: OJICUG_clean_linker_0, # of connection points: 2
#     Edge 24, Type (0, 1), BuildingBlock: OJICUG_clean_linker_0, # of connection points: 2
#     Edge 25, Type (0, 1), BuildingBlock: OJICUG_clean_linker_0, # of connection points: 2
#     Edge 26, Type (0, 1), BuildingBlock: OJICUG_clean_linker_0, # of connection points: 2
#     Edge 27, Type (0, 1), BuildingBlock: OJICUG_clean_linker_0, # of connection points: 2
#     Edge 28, Type (0, 1), BuildingBlock: OJICUG_clean_linker_0, # of connection points: 2
#     Edge 29, Type (0, 1), BuildingBlock: OJICUG_clean_linker_0, # of connection points: 2
#     Edge 30, Type (0, 1), BuildingBlock: OJICUG_clean_linker_0, # of connection points: 2
#     Edge 31, Type (0, 1), BuildingBlock: OJICUG_clean_linker_0, # of connection points: 2
#     Edge 32, Type (0, 1), BuildingBlock: OJICUG_clean_linker_0, # of connection points: 2
#     Edge 33, Type (0, 1), BuildingBlock: OJICUG_clean_linker_0, # of connection points: 2
#     Edge 34, Type (0, 1), BuildingBlock: OJICUG_clean_linker_0, # of connection points: 2
#     Edge 35, Type (0, 1), BuildingBlock: OJICUG_clean_linker_0, # of connection points: 2
# Relax obj value: 0.450
# Max RMSD: 0.196
# Mean RMSD: 0.188
data_MOF--net-zzz--node1-KUMBUR_clean_sbu_1--node2-ESEHIV_clean_linker_0--edge1-OJICUG_clean_linker_0
_symmetry_space_group_name_H-M    P1
_symmetry_Int_Tables_number       1
_symmetry_cell_setting            triclinic
loop_
_symmetry_equiv_pos_as_xyz
'x, y, z'
_cell_length_a     30.953413
_cell_length_b     30.833517
_cell_length_c     11.603716
_cell_angle_alpha  89.503878
_cell_angle_beta   89.898475
_cell_angle_gamma 90.508547
loop_
_atom_site_label
_atom_site_type_symbol
_atom_site_fract_x
_atom_site_fract_y
_atom_site_fract_z
_atom_type_partial_charge
H0 H 0.81102 0.43992 0.32599 0.0
H1 H 0.69337 0.45352 0.13943 0.0
H2 H 0.74086 0.55968 0.34635 0.0
C3 C 0.78252 0.4588 0.30728 0.0
C4 C 0.77841 0.49981 0.35849 0.0
C5 C 0.75248 0.44237 0.22815 0.0
C6 C 0.71693 0.46728 0.19799 0.0
C7 C 0.71199 0.51013 0.23418 0.0
C8 C 0.74358 0.52695 0.31569 0.0
H9 H 0.91018 0.84442 0.22944 0.0
H10 H 0.90782 0.72629 0.03803 0.0
H11 H 1.00698 0.74709 0.29148 0.0
C12 C 0.92331 0.81274 0.21241 0.0
C13 C 0.95862 0.79877 0.27949 0.0
C14 C 0.90712 0.78882 0.11839 0.0
C15 C 0.92201 0.74631 0.10413 0.0
C16 C 0.95853 0.73037 0.16078 0.0
C17 C 0.97829 0.75798 0.24711 0.0
H18 H 0.72569 0.10727 0.35947 0.0
H19 H 0.83636 0.10478 0.139 0.0
H20 H 0.78372 0.98481 0.27871 0.0
C21 C 0.7517 0.08908 0.32055 0.0
C22 C 0.75157 0.04405 0.33524 0.0
C23 C 0.78117 0.11056 0.24748 0.0
C24 C 0.81412 0.08727 0.19529 0.0
C25 C 0.8171 0.04199 0.20591 0.0
C26 C 0.78414 0.01979 0.27387 0.0
H27 H 0.62032 0.72296 0.28191 0.0
H28 H 0.51853 0.81578 0.33182 0.0
H29 H 0.61896 0.84063 0.08251 0.0
C30 C 0.6061 0.75408 0.26262 0.0
C31 C 0.62182 0.77823 0.16703 0.0
C32 C 0.56973 0.76682 0.32757 0.0
C33 C 0.54829 0.8062 0.29048 0.0
C34 C 0.56682 0.83341 0.20029 0.0
C35 C 0.60523 0.81994 0.14913 0.0
H36 H 0.21175 0.42579 0.16494 0.0
H37 H 0.31705 0.44684 0.39644 0.0
H38 H 0.28051 0.54864 0.16241 0.0
C39 C 0.23706 0.44656 0.19715 0.0
C40 C 0.2411 0.48912 0.15078 0.0
C41 C 0.26316 0.43102 0.28815 0.0
C42 C 0.29671 0.45788 0.32683 0.0
C43 C 0.30472 0.4997 0.28408 0.0
C44 C 0.27556 0.51624 0.19677 0.0
H45 H 0.10695 0.21409 0.16307 0.0
H46 H 0.09171 0.33758 0.32149 0.0
H47 H 0.98806 0.28397 0.1196 0.0
C48 C 0.08818 0.24306 0.17577 0.0
C49 C 0.0488 0.24732 0.11523 0.0
C50 C 0.10106 0.27239 0.26216 0.0
C51 C 0.07931 0.31201 0.26711 0.0
C52 C 0.0365 0.31511 0.23042 0.0
C53 C 0.02082 0.28229 0.1516 0.0
H54 H 0.32552 0.95715 0.11138 0.0
H55 H 0.21293 0.94657 0.32307 0.0
H56 H 0.24734 0.07026 0.16559 0.0
C57 C 0.29664 0.97206 0.14584 0.0
C58 C 0.29057 0.01636 0.12673 0.0
C59 C 0.269 0.94724 0.21631 0.0
C60 C 0.23276 0.96625 0.26544 0.0
C61 C 0.22252 1.01017 0.24574 0.0
C62 C 0.25284 0.03598 0.17791 0.0
H63 H 0.40452 0.35577 0.17718 0.0
H64 H 0.50302 0.26292 0.10441 0.0
H65 H 0.41203 0.23866 0.37851 0.0
C66 C 0.4195 0.32498 0.195 0.0
C67 C 0.40626 0.30071 0.29322 0.0
C68 C 0.45487 0.31296 0.12594 0.0
C69 C 0.47619 0.27295 0.15645 0.0
C70 C 0.46056 0.24568 0.25043 0.0
C71 C 0.42372 0.25922 0.30901 0.0
Tb72 Tb 0.96892 0.04564 0.60687 0.0
C73 C 0.14544 0.03968 0.85683 0.0
N74 N 0.12937 1.01192 0.77716 0.0
C75 C 0.19808 1.01246 0.68005 0.0
C76 C 0.18786 0.05637 0.84904 0.0
C77 C 0.15581 0.99659 0.69231 0.0
C78 C 0.21387 0.0432 0.75727 0.0
C79 C 0.13413 0.07873 0.03436 0.0
C80 C 0.11924 0.05074 0.94756 0.0
C81 C 0.17591 0.09659 1.02578 0.0
C82 C 0.20279 0.08542 0.93321 0.0
Tb83 Tb 0.05747 0.99299 0.79591 0.0
N84 N 0.07841 0.03454 0.94888 0.0
C85 C 0.10645 0.08788 0.12645 0.0
C86 C 0.05217 0.04128 0.04133 0.0
C87 C 0.06548 0.06846 0.13083 0.0
H88 H 0.14446 0.97219 0.63304 0.0
H89 H 0.04415 0.07452 0.20277 0.0
H90 H 0.87406 0.05244 0.74462 0.0
H91 H 1.0108 0.9725 0.20048 0.0
H92 H 0.02099 0.02578 0.04509 0.0
H93 H 0.11661 0.10921 0.19521 0.0
H94 H 0.02038 0.02243 0.36357 0.0
H95 H 0.21836 1.00108 0.61067 0.0
H96 H 0.18785 0.1187 0.0907 0.0
H97 H 0.23517 0.09894 0.9284 0.0
H98 H 0.80329 1.01571 0.73742 0.0
H99 H 0.24631 0.05598 0.74614 0.0
H100 H 0.94248 0.93101 0.18025 0.0
N101 N 0.89901 0.02026 0.59697 0.0
C102 C 0.88977 0.99332 0.50814 0.0
C103 C 0.82748 1.00886 0.67275 0.0
C104 C 0.84975 0.97143 0.501 0.0
C105 C 0.86793 0.02937 0.67695 0.0
C106 C 0.81856 0.97925 0.5854 0.0
N107 N 0.96022 1.0065 0.44093 0.0
C108 C 0.99128 1.00345 0.35805 0.0
C109 C 0.91385 0.95827 0.3336 0.0
C110 C 0.92131 0.98664 0.42618 0.0
C111 C 0.9468 0.95261 0.25258 0.0
C112 C 0.98546 0.97587 0.26397 0.0
H113 H 0.7874 0.96298 0.58319 0.0
H114 H 0.81212 0.92445 0.40499 0.0
H115 H 0.86784 0.91375 0.25683 0.0
O116 O 0.98012 0.09209 0.47717 0.0
O117 O 0.96794 0.97264 0.61901 0.0
O118 O 0.03819 0.95299 0.64366 0.0
O119 O 0.92401 0.09633 0.58466 0.0
O120 O 0.03867 0.0574 0.55527 0.0
O121 O 0.07054 0.99458 0.61038 0.0
O122 O 0.09912 0.93966 0.82017 0.0
O123 O 0.05494 0.06618 0.79742 0.0
O124 O 0.98446 0.08419 0.76265 0.0
O125 O 0.04597 0.9506 0.93468 0.0
O126 O 0.98949 0.98668 0.86643 0.0
O127 O 0.949 0.04226 0.78906 0.0
C128 C 0.99933 0.94453 0.60204 0.0
C129 C 0.96785 0.15943 0.56344 0.0
C130 C 0.03246 0.20504 0.59047 0.0
C131 C 0.01192 0.22513 0.68403 0.0
C132 C 0.94775 0.18058 0.65564 0.0
C133 C 0.96954 0.21361 0.71428 0.0
C134 C 1.00914 0.17349 0.52857 0.0
C135 C 0.07101 0.02973 0.54657 0.0
C136 C 0.95081 0.11771 0.51853 0.0
C137 C 0.84245 0.9421 0.41097 0.0
C138 C 0.87422 0.93594 0.32662 0.0
C139 C 0.02214 0.09319 0.80974 0.0
C140 C 0.05514 0.87988 0.87099 0.0
C141 C 0.98937 0.83798 0.83568 0.0
C142 C 0.01321 0.79956 0.8511 0.0
C143 C 0.07835 0.84166 0.88782 0.0
C144 C 0.01179 0.87747 0.83621 0.0
C145 C 0.05756 0.80154 0.87481 0.0
C146 C 0.95453 1.01146 0.86686 0.0
C147 C 0.07383 0.92261 0.89772 0.0
H148 H 0.02831 0.24963 0.73427 0.0
H149 H 0.91601 0.17048 0.68539 0.0
H150 H 0.95403 0.22937 0.78617 0.0
H151 H 0.02335 0.15874 0.45335 0.0
H152 H 0.99737 0.76811 0.85313 0.0
H153 H 0.11198 0.84285 0.91332 0.0
H154 H 0.99407 0.90693 0.82088 0.0
H155 H 0.07529 0.7719 0.88953 0.0
Tb156 Tb 0.54717 0.08282 0.82757 0.0
C157 C 0.48839 0.90236 0.64513 0.0
N158 N 0.51767 0.93499 0.62803 0.0
C159 C 0.57386 0.88236 0.60546 0.0
C160 C 0.50093 0.85847 0.64536 0.0
C161 C 0.55989 0.9254 0.60585 0.0
C162 C 0.54431 0.84872 0.62554 0.0
C163 C 0.41443 0.88054 0.68563 0.0
C164 C 0.44567 0.9132 0.66376 0.0
C165 C 0.42678 0.83682 0.68629 0.0
C166 C 0.46983 0.8258 0.6647 0.0
Tb167 Tb 0.48975 1.00372 0.61742 0.0
N168 N 0.43455 0.95566 0.65677 0.0
C169 C 0.37151 0.89274 0.70315 0.0
C170 C 0.39218 0.96726 0.6661 0.0
C171 C 0.36028 0.93631 0.69226 0.0
H172 H 0.58305 0.9504 0.58629 0.0
H173 H 0.32688 0.94593 0.70063 0.0
H174 H 0.44545 0.12561 0.83293 0.0
H175 H 0.70166 0.15546 0.72065 0.0
H176 H 0.38264 1.00016 0.64879 0.0
H177 H 0.3466 0.86867 0.72081 0.0
H178 H 0.65144 0.09487 0.75801 0.0
H179 H 0.6074 0.87514 0.58826 0.0
H180 H 0.40318 0.81126 0.70176 0.0
H181 H 0.47875 0.79191 0.6632 0.0
H182 H 0.41509 0.19788 0.84028 0.0
H183 H 0.55521 0.81541 0.62468 0.0
H184 H 0.67546 0.23088 0.72819 0.0
N185 N 0.5104 0.1468 0.80541 0.0
C186 C 0.5369 0.18219 0.79335 0.0
C187 C 0.44943 0.19392 0.82669 0.0
C188 C 0.5206 0.22471 0.8005 0.0
C189 C 0.46704 0.15237 0.82138 0.0
C190 C 0.47635 0.23023 0.81792 0.0
N191 N 0.59596 0.13463 0.77115 0.0
C192 C 0.63882 0.12714 0.75242 0.0
C193 C 0.60903 0.21175 0.76062 0.0
C194 C 0.58083 0.17588 0.77448 0.0
C195 C 0.65281 0.20417 0.73933 0.0
C196 C 0.66768 0.16166 0.73443 0.0
H197 H 0.46271 0.26234 0.82507 0.0
H198 H 0.53705 0.29314 0.80036 0.0
H199 H 0.61428 0.28185 0.76286 0.0
O200 O 0.59821 0.08942 0.94603 0.0
O201 O 0.5391 0.10775 0.64666 0.0
O202 O 0.47638 0.07395 0.59745 0.0
O203 O 0.53422 0.10981 0.99009 0.0
O204 O 0.59418 0.04187 0.73226 0.0
O205 O 0.55605 0.02604 0.56746 0.0
O206 O 0.44311 1.00036 0.4871 0.0
O207 O 0.50652 0.97138 0.78529 0.0
O208 O 0.55469 1.01464 0.88734 0.0
O209 O 0.51059 0.99378 0.44621 0.0
O210 O 0.44404 0.04043 0.72702 0.0
O211 O 0.48354 0.05602 0.88943 0.0
C212 C 0.50558 0.1045 0.57674 0.0
C213 C 0.59247 0.15372 0.05698 0.0
C214 C 0.65492 0.20055 0.09769 0.0
C215 C 0.62732 0.23204 0.14148 0.0
C216 C 0.56539 0.18569 0.10263 0.0
C217 C 0.58303 0.22434 0.14528 0.0
C218 C 0.63719 0.16161 0.05469 0.0
C219 C 0.59329 0.03151 0.62156 0.0
C220 C 0.57487 0.11127 1.01811 0.0
C221 C 0.54893 0.26037 0.79176 0.0
C222 C 0.59293 0.25394 0.77081 0.0
C223 C 0.5331 0.97773 0.87347 0.0
C224 C 0.4599 0.96091 0.31952 0.0
C225 C 0.41106 0.90242 0.25861 0.0
C226 C 0.4213 0.91334 0.14289 0.0
C227 C 0.4683 0.97153 0.20445 0.0
C228 C 0.43346 0.92493 0.34623 0.0
C229 C 0.44904 0.94783 0.11692 0.0
C230 C 0.44613 0.04637 0.83973 0.0
C231 C 0.47132 0.99325 0.40677 0.0
H232 H 0.64022 0.26155 0.17859 0.0
H233 H 0.53082 0.18042 0.10762 0.0
H234 H 0.56305 0.24797 0.18669 0.0
H235 H 0.65847 0.13614 1.02598 0.0
H236 H 0.40533 0.89823 0.07073 0.0
H237 H 0.48792 0.99967 0.18224 0.0
H238 H 0.42726 0.91764 0.43557 0.0
H239 H 0.45343 0.95791 1.02816 0.0
Tb240 Tb 0.55501 0.51934 0.64382 0.0
C241 C 0.38735 0.51673 0.92544 0.0
N242 N 0.3982 0.54917 0.85088 0.0
C243 C 0.32493 0.55081 0.7836 0.0
C244 C 0.34588 0.49764 0.92614 0.0
C245 C 0.36716 0.56737 0.78299 0.0
C246 C 0.3144 0.51508 0.85338 0.0
C247 C 0.4104 0.46776 0.07645 0.0
C248 C 0.41831 0.50292 1.00144 0.0
C249 C 0.36989 0.44668 0.07338 0.0
C250 C 0.33749 0.46195 0.99928 0.0
Tb251 Tb 0.47004 0.56925 0.84467 0.0
N252 N 0.45751 0.52275 0.99644 0.0
C253 C 0.44378 0.45486 0.15052 0.0
C254 C 0.48738 0.51466 0.07953 0.0
C255 C 0.48152 0.47991 0.15647 0.0
H256 H 0.37471 0.59526 0.72987 0.0
H257 H 0.50613 0.47227 0.21944 0.0
H258 H 0.64909 0.50487 0.78085 0.0
H259 H 0.51844 0.60066 0.24059 0.0
H260 H 0.5156 0.53491 0.08579 0.0
H261 H 0.43991 0.42716 0.20765 0.0
H262 H 0.50361 0.55302 0.40685 0.0
H263 H 0.30071 0.56575 0.73017 0.0
H264 H 0.36296 0.41925 0.12941 0.0
H265 H 0.30615 0.44605 0.99937 0.0
H266 H 0.72284 0.53468 0.76999 0.0
H267 H 0.28187 0.50185 0.85206 0.0
H268 H 0.59016 0.63578 0.21867 0.0
N269 N 0.62593 0.54167 0.63735 0.0
C270 C 0.63695 0.56888 0.54915 0.0
C271 C 0.69884 0.54499 0.70804 0.0
C272 C 0.67887 0.58678 0.53983 0.0
C273 C 0.65662 0.52856 0.71463 0.0
C274 C 0.70991 0.57464 0.62111 0.0
N275 N 0.56552 0.56205 0.48284 0.0
C276 C 0.53466 0.56864 0.40057 0.0
C277 C 0.61582 0.60661 0.37426 0.0
C278 C 0.60587 0.57889 0.46804 0.0
C279 C 0.58378 0.61485 0.29231 0.0
C280 C 0.54319 0.59529 0.30481 0.0
H281 H 0.74262 0.58737 0.61636 0.0
H282 H 0.72034 0.63053 0.44179 0.0
H283 H 0.66548 0.64708 0.29553 0.0
O284 O 0.54286 0.47918 0.50299 0.0
O285 O 0.5586 0.59144 0.6649 0.0
O286 O 0.48902 0.6121 0.69586 0.0
O287 O 0.59683 0.4667 0.61387 0.0
O288 O 0.48464 0.51493 0.59185 0.0
O289 O 0.44902 0.57383 0.66378 0.0
O290 O 0.48325 0.60834 0.98757 0.0
O291 O 0.46762 0.4965 0.81787 0.0
O292 O 0.53724 0.47593 0.79041 0.0
O293 O 0.42968 0.62269 0.87755 0.0
O294 O 0.5396 0.57363 0.90433 0.0
O295 O 0.57483 0.51557 0.82679 0.0
C296 C 0.52757 0.62022 0.6515 0.0
C297 C 0.55432 0.40687 0.556 0.0
C298 C 0.4912 0.35922 0.57668 0.0
C299 C 0.51864 0.32316 0.56772 0.0
C300 C 0.58106 0.37072 0.5467 0.0
C301 C 0.56329 0.329 0.55489 0.0
C302 C 0.50998 0.40073 0.57827 0.0
C303 C 0.45237 0.5433 0.58604 0.0
C304 C 0.57144 0.45099 0.53544 0.0
C305 C 0.68848 0.61594 0.44948 0.0
C306 C 0.65722 0.62538 0.36605 0.0
C307 C 0.49827 0.46699 0.82947 0.0
C308 C 0.47576 0.68039 0.92669 0.0
C309 C 0.54127 0.72276 0.88629 0.0
C310 C 0.51601 0.76063 0.88465 0.0
C311 C 0.45133 0.71831 0.92751 0.0
C312 C 0.51988 0.68285 0.89842 0.0
C313 C 0.47134 0.75822 0.90384 0.0
C314 C 0.57215 0.54579 0.90595 0.0
C315 C 0.45618 0.63783 0.9538 0.0
H316 H 0.5056 0.29052 0.56365 0.0
H317 H 0.61536 0.37477 0.53074 0.0
H318 H 0.58388 0.30106 0.54545 0.0
H319 H 0.48934 0.4286 0.58802 0.0
H320 H 0.53076 0.79238 0.87527 0.0
H321 H 0.41708 0.71706 0.94662 0.0
H322 H 0.5384 0.65355 0.89258 0.0
H323 H 0.4525 0.78761 0.90521 0.0
Tb324 Tb 0.03437 0.5545 0.63265 0.0
C325 C 0.0751 0.42193 0.97235 0.0
N326 N 0.05551 0.42074 0.86732 0.0
C327 C 0.09923 0.36006 0.81332 0.0
C328 C 0.10757 0.39206 1.00103 0.0
C329 C 0.06736 0.3904 0.78759 0.0
C330 C 0.11907 0.36055 0.9209 0.0
C331 C 0.0877 0.45987 0.15159 0.0
C332 C 0.06439 0.45515 0.04796 0.0
C333 C 0.11939 0.42957 0.18123 0.0
C334 C 0.1287 0.39536 0.10685 0.0
Tb335 Tb 0.99931 0.46807 0.84583 0.0
N336 N 0.03186 0.48299 1.01959 0.0
C337 C 0.07826 0.49468 0.22314 0.0
C338 C 0.01898 0.51324 0.09791 0.0
C339 C 0.04359 0.52138 0.19637 0.0
H340 H 0.05242 0.38913 0.70423 0.0
H341 H 0.0347 0.54707 0.25427 0.0
H342 H 0.11033 0.6214 0.72921 0.0
H343 H 0.92137 0.58274 0.28535 0.0
H344 H 0.98936 0.5308 0.08808 0.0
H345 H 0.09633 0.50005 0.30154 0.0
H346 H 0.97384 0.53923 0.39603 0.0
H347 H 0.10851 0.33631 0.75007 0.0
H348 H 0.13683 0.43251 0.26151 0.0
H349 H 0.15319 0.37208 0.12922 0.0
H350 H 0.11891 0.70069 0.75342 0.0
H351 H 0.14395 0.33709 0.94026 0.0
H352 H 0.91053 0.66034 0.33417 0.0
N353 N 0.05222 0.62666 0.63261 0.0
C354 C 0.0232 0.65367 0.58482 0.0
C355 C 0.09161 0.68784 0.70616 0.0
C356 C 0.02557 0.69884 0.59948 0.0
C357 C 0.08682 0.64296 0.69157 0.0
C358 C 0.06049 0.71591 0.6611 0.0
N359 N 0.99491 0.59233 0.49847 0.0
C360 C 0.97147 0.57355 0.41214 0.0
C361 C 0.96242 0.66147 0.45795 0.0
C362 C 0.99281 0.63554 0.51498 0.0
C363 C 0.93528 0.64178 0.37745 0.0
C364 C 0.94133 0.59807 0.35006 0.0
H365 H 0.06418 0.75056 0.67201 0.0
H366 H 0.99339 0.75977 0.56418 0.0
H367 H 0.93644 0.72637 0.44374 0.0
O368 O 0.07153 0.50303 0.58172 0.0
O369 O 0.96213 0.5502 0.63794 0.0
O370 O 0.94601 0.48345 0.72169 0.0
O371 O 0.08853 0.56851 0.52625 0.0
O372 O 0.01218 0.49337 0.5395 0.0
O373 O 0.99593 0.4389 0.67283 0.0
O374 O 0.94424 0.45295 0.94919 0.0
O375 O 0.06906 0.48042 0.80346 0.0
O376 O 0.07492 0.55211 0.7926 0.0
O377 O 0.98802 0.40403 0.89798 0.0
O378 O 0.9777 0.53592 0.89181 0.0
O379 O 0.02995 0.57924 0.80959 0.0
C380 C 0.93465 0.51775 0.65841 0.0
C381 C 0.14477 0.51685 0.56602 0.0
C382 C 0.19758 0.45899 0.59105 0.0
C383 C 0.22985 0.49119 0.60655 0.0
C384 C 0.17723 0.54821 0.57901 0.0
C385 C 0.21946 0.53527 0.60147 0.0
C386 C 0.15481 0.47276 0.57878 0.0
C387 C 1.00208 0.45196 0.56514 0.0
C388 C 0.10044 0.52781 0.53248 0.0
C389 C 0.99327 0.72503 0.55084 0.0
C390 C 0.96107 0.70608 0.48181 0.0
C391 C 0.09066 0.51558 0.83241 0.0
C392 C 0.91633 0.38238 0.90803 0.0
C393 C 0.84847 0.34553 0.95151 0.0
C394 C 0.84928 0.32554 0.84345 0.0
C395 C 0.91701 0.3621 0.79977 0.0
C396 C 0.88252 0.37328 0.98382 0.0
C397 C 0.88389 0.33343 0.76845 0.0
C398 C 0.99888 0.57375 0.88557 0.0
C399 C 0.95141 0.41152 0.94528 0.0
H400 H 0.26361 0.4829 0.61426 0.0
H401 H 0.17023 0.58242 0.56996 0.0
H402 H 0.24459 0.55962 0.60794 0.0
H403 H 0.1292 0.44887 0.57078 0.0
H404 H 0.82255 0.30526 0.81589 0.0
H405 H 0.94303 0.3684 0.73951 0.0
H406 H 0.88149 0.38991 0.06585 0.0
H407 H 0.88449 0.31822 0.68474 0.0
C408 C 0.17734 0.05886 0.38247 0.0
C409 C 0.18003 0.025 0.30112 0.0
H410 H 0.14089 0.08787 0.5216 0.0
C411 C 0.14321 0.99762 0.29233 0.0
H412 H 0.20486 0.0802 0.39496 0.0
C413 C 0.10761 1.00084 0.36774 0.0
C414 C 0.10537 0.03326 0.45214 0.0
H415 H 0.1433 0.97107 0.23179 0.0
H416 H 0.08243 0.97633 0.36296 0.0
C417 C 0.14045 0.06313 0.45596 0.0
C418 C 0.45839 0.16562 0.30989 0.0
C419 C 0.48157 0.20551 0.30564 0.0
H420 H 0.44683 0.104 0.39504 0.0
C421 C 0.51479 0.2102 0.38852 0.0
H422 H 0.43142 0.16078 0.25193 0.0
C423 C 0.52356 0.17735 0.47248 0.0
C424 C 0.49875 0.13851 0.48021 0.0
H425 H 0.53233 0.24066 0.39347 0.0
H426 H 0.54877 0.18346 0.53488 0.0
C427 C 0.46669 0.13309 0.39465 0.0
C428 C 0.34538 0.55762 0.40781 0.0
C429 C 0.34559 0.52077 0.33615 0.0
H430 H 0.37861 0.59504 0.53778 0.0
C431 C 0.38331 0.49526 0.34262 0.0
H432 H 0.31703 0.57789 0.41037 0.0
C433 C 0.41833 0.50458 0.41582 0.0
C434 C 0.41696 0.53878 0.49401 0.0
H435 H 0.38365 0.4647 0.29943 0.0
H436 H 0.44599 0.48352 0.41481 0.0
C437 C 0.38059 0.56665 0.48439 0.0
C438 C 1.00929 0.39252 0.26822 0.0
C439 C 1.0106 0.34813 0.30007 0.0
H440 H 1.00368 0.45936 0.32282 0.0
C441 C 1.00295 0.33898 0.41808 0.0
H442 H 0.01494 0.40139 0.1793 0.0
C443 C 0.99782 0.37221 0.50071 0.0
C444 C 1.00011 0.41684 0.47077 0.0
H445 H 1.00489 0.30576 0.44879 0.0
H446 H 0.99456 0.36243 0.58995 0.0
C447 C 1.00375 0.42603 0.35143 0.0
C448 C 0.84909 0.99368 0.04502 0.0
C449 C 0.85485 0.02232 0.1385 0.0
H450 H 0.87581 0.96682 0.88835 0.0
C451 C 0.89612 0.04232 0.14724 0.0
H452 H 0.81787 0.97846 1.03176 0.0
C453 C 0.92848 0.03723 0.0626 0.0
C454 C 0.92255 1.00989 0.96732 0.0
H455 H 0.90229 0.06514 0.21592 0.0
H456 H 0.9573 0.05707 0.06902 0.0
C457 C 0.88242 0.98742 0.96144 0.0
C458 C 0.52074 0.86805 0.04336 0.0
C459 C 0.54749 0.8734 0.14097 0.0
H460 H 0.49568 0.89447 0.88477 0.0
C461 C 0.56858 0.91421 0.14987 0.0
H462 H 0.5048 0.83717 1.03023 0.0
C463 C 0.56381 0.94745 0.06501 0.0
C464 C 0.53825 0.94151 0.96507 0.0
H465 H 0.59107 0.91958 0.21982 0.0
H466 H 0.58118 0.9777 0.07693 0.0
C467 C 0.51644 0.90098 0.95739 0.0
C468 C 0.67727 0.56335 0.08757 0.0
C469 C 0.6728 0.5325 0.17833 0.0
H470 H 0.64947 0.59295 0.93443 0.0
C471 C 0.63239 0.51055 0.18386 0.0
H472 H 0.70792 0.57998 0.07559 0.0
C473 C 0.60059 0.51514 0.09723 0.0
C474 C 0.60498 0.54519 1.00554 0.0
H475 H 0.62742 0.48545 0.2486 0.0
H476 H 0.57356 0.49281 0.0992 0.0
C477 C 0.64375 0.57014 1.00438 0.0
C478 C 0.01389 0.68105 0.05885 0.0
C479 C 0.97392 0.68609 0.11574 0.0
H480 H 0.05287 0.64314 0.94333 0.0
C481 C 0.94337 0.65184 0.0998 0.0
H482 H 0.03789 0.70676 0.06308 0.0
C483 C 0.95185 0.61503 1.03109 0.0
C484 C 0.99095 0.61091 0.97051 0.0
H485 H 0.91124 0.65466 0.1356 0.0
H486 H 0.92666 0.59078 1.02089 0.0
C487 C 0.02211 0.64448 0.98765 0.0
C488 C 0.11715 0.28023 0.47176 0.0
C489 C 0.1236 0.25623 0.36994 0.0
H490 H 0.07471 0.2849 0.61615 0.0
C491 C 0.12551 0.211 0.38717 0.0
H492 H 0.12399 0.31465 0.47434 0.0
C493 C 0.1003 0.19231 0.47496 0.0
C494 C 0.07592 0.21935 0.54752 0.0
H495 H 0.13833 0.18993 0.32159 0.0
H496 H 0.09558 0.15747 0.47569 0.0
C497 C 0.08928 0.26293 0.55564 0.0
C498 C 0.30296 0.90527 0.36902 0.0
C499 C 0.285 0.90496 0.25831 0.0
H500 H 0.36107 0.89993 0.46287 0.0
C501 C 0.30256 0.87632 0.17754 0.0
H502 H 0.28855 0.92441 0.43668 0.0
C503 C 0.34485 0.86177 0.19335 0.0
C504 C 0.36927 0.87887 0.28524 0.0
H505 H 0.28777 0.87277 0.09355 0.0
H506 H 0.36044 0.84554 0.12236 0.0
C507 C 0.34552 0.8917 0.38302 0.0
C508 C 0.38912 0.3015 0.50361 0.0
C509 C 0.38569 0.32279 0.39556 0.0
H510 H 0.43307 0.29366 0.64546 0.0
C511 C 0.39217 0.36782 0.40087 0.0
H512 H 0.37542 0.26942 0.51675 0.0
C513 C 0.42441 0.3831 0.47434 0.0
C514 C 0.44411 0.35429 0.5529 0.0
H515 H 0.38142 0.38878 0.33186 0.0
H516 H 0.43794 0.41459 0.45611 0.0
C517 C 0.42193 0.31536 0.57828 0.0
C518 C 0.20678 0.38151 0.36624 0.0
C519 C 0.25102 0.39101 0.35883 0.0
H520 H 0.15011 0.39715 0.4598 0.0
C521 C 0.27271 0.38481 0.46476 0.0
H522 H 0.18853 0.37336 0.29086 0.0
C523 C 0.25229 0.40023 0.56415 0.0
C524 C 0.20918 0.41404 0.55468 0.0
H525 H 0.30729 0.38046 0.46694 0.0
H526 H 0.2717 0.40821 0.63871 0.0
C527 C 0.18486 0.39487 0.46492 0.0
C528 C 0.8842 0.78918 0.91273 0.0
C529 C 0.88407 0.81111 1.01925 0.0
H530 H 0.9262 0.7774 0.76851 0.0
C531 C 0.89203 0.85589 1.008 0.0
H532 H 0.86851 0.75785 0.90445 0.0
C533 C 0.92385 0.86908 0.92936 0.0
C534 C 0.9417 0.83798 0.85419 0.0
H535 H 0.88334 0.87799 0.07582 0.0
H536 H 0.93854 0.90063 0.942 0.0
C537 C 0.91685 0.80042 0.83379 0.0
C538 C 0.76468 0.15951 0.08411 0.0
C539 C 0.77017 0.15435 0.20383 0.0
H540 H 0.72184 0.18155 0.95248 0.0
C541 C 0.74961 0.18357 0.27766 0.0
H542 H 0.78119 0.13871 1.02388 0.0
C543 C 0.71486 0.20756 0.23648 0.0
C544 C 0.70172 0.20268 0.12136 0.0
H545 H 0.75482 0.18172 0.3699 0.0
H546 H 0.6942 0.22316 0.2988 0.0
C547 C 0.73039 0.18402 0.04272 0.0
C548 C 0.63924 0.71113 0.06204 0.0
C549 C 0.64521 0.75625 0.06874 0.0
H550 H 0.59528 0.66356 1.00065 0.0
C551 C 0.64389 0.7774 0.96021 0.0
H552 H 0.64911 0.69002 0.13172 0.0
C553 C 0.61218 0.76371 0.88206 0.0
C554 C 0.58892 0.72526 0.90652 0.0
H555 H 0.65794 0.80941 0.94854 0.0
H556 H 0.60233 0.78548 0.81346 0.0
C557 C 0.60815 0.69577 0.98498 0.0
C558 C 0.75292 0.40065 0.04381 0.0
C559 C 0.76194 0.40216 0.16284 0.0
H560 H 0.77264 0.37685 0.88049 0.0
C561 C 0.78755 0.36927 0.21143 0.0
H562 H 0.73305 0.42473 1.00179 0.0
C563 C 0.8112 0.34216 0.13976 0.0
C564 C 0.80863 0.34751 1.01974 0.0
H565 H 0.79335 0.36783 0.30339 0.0
H566 H 0.83614 0.32208 0.17738 0.0
C567 C 0.77553 0.37266 0.97302 0.0
C568 C 0.99804 0.19054 1.01473 0.0
C569 C 0.03868 0.21149 1.02579 0.0
H570 H 0.96083 0.13789 0.94024 0.0
C571 C 0.07272 0.19376 0.95883 0.0
H572 H 0.97077 0.20206 0.06392 0.0
C573 C 0.06736 0.15621 0.89042 0.0
C574 C 0.02727 0.13457 0.8818 0.0
H575 H 0.10455 0.20857 0.96105 0.0
H576 H 0.095 0.14408 0.84373 0.0
C577 C 0.99245 0.15309 0.94393 0.0
C578 C 0.32479 0.04057 0.9353 0.0
C579 C 0.32688 0.03827 0.05677 0.0
H580 H 0.35842 0.0477 0.77354 0.0
C581 C 0.36871 0.04234 0.10511 0.0
H582 H 0.294 0.03579 0.89347 0.0
C583 C 0.40642 0.04689 0.03563 0.0
C584 C 0.40459 0.04664 0.91376 0.0
H585 H 0.37264 0.03908 0.19753 0.0
H586 H 0.43744 0.04874 0.07814 0.0
C587 C 0.36251 0.04557 0.86569 0.0
C588 C 0.4383 0.36612 0.95935 0.0
C589 C 0.46933 0.34604 1.03188 0.0
H590 H 0.42237 0.41805 0.84089 0.0
C591 C 0.51146 0.36427 1.0272 0.0
H592 H 0.40541 0.35385 0.95902 0.0
C593 C 0.52121 0.40191 0.95859 0.0
C594 C 0.48924 0.42348 0.89225 0.0
H595 H 0.53648 0.35092 0.0817 0.0
H596 H 0.55356 0.41547 0.9622 0.0
C597 C 0.44798 0.4036 0.89134 0.0
C598 C 0.181 0.53887 0.06256 0.0
C599 C 0.20782 0.50187 0.05631 0.0
H600 H 0.12426 0.5726 0.99932 0.0
C601 C 0.19719 0.47217 0.96761 0.0
H602 H 0.18675 0.56246 0.12949 0.0
C603 C 0.16091 0.47764 0.89411 0.0
C604 C 0.13286 0.51331 0.90364 0.0
H605 H 0.2163 0.4432 0.95746 0.0
H606 H 0.15409 0.45283 0.83114 0.0
C607 C 0.14459 0.54458 0.98752 0.0
C608 C 0.01483 0.84744 0.38877 0.0
C609 C 0.97261 0.82988 0.37745 0.0
H610 H 0.05648 0.89613 0.46607 0.0
C611 C 0.94067 0.84881 0.44894 0.0
H612 H 0.04057 0.83507 0.33537 0.0
C613 C 0.94956 0.88444 0.52232 0.0
C614 C 0.99112 0.90334 0.52997 0.0
H615 H 0.90766 0.83699 0.44473 0.0
H616 H 0.92324 0.89789 0.57173 0.0
C617 C 0.02389 0.88311 0.46381 0.0
C618 C 0.71521 0.03052 0.53091 0.0
C619 C 0.71398 0.02666 0.40935 0.0
H620 H 0.68051 0.03254 0.6923 0.0
C621 C 0.67239 0.02166 0.36069 0.0
H622 H 0.74577 0.03693 0.57263 0.0
C623 C 0.6342 0.0218 0.42927 0.0
C624 C 0.63535 0.02721 0.5506 0.0
H625 H 0.6691 0.02067 0.26783 0.0
H626 H 0.60339 0.0194 0.38565 0.0
C627 C 0.67708 0.02972 0.59997 0.0
C628 C 0.58751 0.71518 0.49574 0.0
C629 C 0.55563 0.73531 0.42588 0.0
H630 H 0.60444 0.66482 0.61713 0.0
C631 C 0.51296 0.71917 0.44043 0.0
H632 H 0.62078 0.72615 0.49004 0.0
C633 C 0.5034 0.68342 0.51635 0.0
C634 C 0.53612 0.66182 0.58005 0.0
H635 H 0.48718 0.73271 0.38891 0.0
H636 H 0.47047 0.6714 0.52104 0.0
C637 C 0.57814 0.67941 0.56957 0.0
C638 C 0.82662 0.47621 0.52757 0.0
C639 C 0.8126 0.5101 0.45272 0.0
H640 H 0.87428 0.45112 0.64477 0.0
C641 C 0.83648 0.54936 0.46011 0.0
H642 H 0.80915 0.44562 0.52967 0.0
C643 C 0.87396 0.55298 0.53224 0.0
C644 C 0.89036 0.51724 0.5966 0.0
H645 H 0.82739 0.57678 0.40686 0.0
H646 H 0.8907 0.5838 0.53583 0.0
C647 C 0.86452 0.47937 0.59551 0.0
loop_
_geom_bond_atom_site_label_1
_geom_bond_atom_site_label_2
_geom_bond_distance
_geom_bond_site_symmetry_2
_ccdc_geom_bond_type
H0 C3 0.931 . S
H1 C6 0.928 . S
H2 C8 0.930 . S
C3 H0 0.931 . S
C3 C4 1.413 . S
C3 C5 1.360 . S
C4 C3 1.413 . S
C4 C8 1.429 . S
C5 C3 1.360 . S
C5 C6 1.372 . S
C6 H1 0.928 . S
C6 C5 1.372 . S
C6 C7 1.404 . S
C7 C6 1.404 . S
C7 C8 1.391 . S
C8 H2 0.930 . S
C8 C4 1.429 . S
C8 C7 1.391 . S
H9 C12 0.931 . S
H10 C15 0.928 . S
H11 C17 0.930 . S
C12 H9 0.931 . S
C12 C13 1.413 . S
C12 C14 1.360 . S
C13 C12 1.413 . S
C13 C17 1.429 . S
C14 C12 1.360 . S
C14 C15 1.372 . S
C15 H10 0.928 . S
C15 C14 1.372 . S
C15 C16 1.404 . S
C16 C15 1.404 . S
C16 C17 1.391 . S
C17 H11 0.930 . S
C17 C13 1.429 . S
C17 C16 1.391 . S
H18 C21 0.931 . S
H19 C24 0.928 . S
H20 C26 0.930 . S
C21 H18 0.931 . S
C21 C22 1.413 . S
C21 C23 1.360 . S
C22 C21 1.413 . S
C22 C26 1.429 . S
C23 C21 1.360 . S
C23 C24 1.372 . S
C24 H19 0.928 . S
C24 C23 1.372 . S
C24 C25 1.404 . S
C25 C24 1.404 . S
C25 C26 1.391 . S
C26 H20 0.930 . S
C26 C22 1.429 . S
C26 C25 1.391 . S
H27 C30 0.931 . S
H28 C33 0.928 . S
H29 C35 0.930 . S
C30 H27 0.931 . S
C30 C31 1.413 . S
C30 C32 1.360 . S
C31 C30 1.413 . S
C31 C35 1.429 . S
C32 C30 1.360 . S
C32 C33 1.372 . S
C33 H28 0.928 . S
C33 C32 1.372 . S
C33 C34 1.404 . S
C34 C33 1.404 . S
C34 C35 1.391 . S
C35 H29 0.930 . S
C35 C31 1.429 . S
C35 C34 1.391 . S
H36 C39 0.931 . S
H37 C42 0.928 . S
H38 C44 0.930 . S
C39 H36 0.931 . S
C39 C40 1.413 . S
C39 C41 1.360 1_556 S
C40 C39 1.413 . S
C40 C44 1.429 . S
C41 C39 1.360 1_554 S
C41 C42 1.372 . S
C42 H37 0.928 . S
C42 C41 1.372 . S
C42 C43 1.404 . S
C43 C42 1.404 . S
C43 C44 1.391 1_554 S
C44 H38 0.930 . S
C44 C40 1.429 . S
C44 C43 1.391 1_556 S
H45 C48 0.931 . S
H46 C51 0.928 . S
H47 C53 0.930 . S
C48 H45 0.931 . S
C48 C49 1.413 . S
C48 C50 1.360 1_556 S
C49 C48 1.413 . S
C49 C53 1.429 . S
C50 C48 1.360 1_554 S
C50 C51 1.372 . S
C51 H46 0.928 . S
C51 C50 1.372 . S
C51 C52 1.404 . S
C52 C51 1.404 . S
C52 C53 1.391 1_554 S
C53 H47 0.930 . S
C53 C49 1.429 . S
C53 C52 1.391 1_556 S
H54 C57 0.931 . S
H55 C60 0.928 . S
H56 C62 0.930 . S
C57 H54 0.931 . S
C57 C58 1.413 . S
C57 C59 1.360 1_556 S
C58 C57 1.413 . S
C58 C62 1.429 . S
C59 C57 1.360 1_554 S
C59 C60 1.372 . S
C60 H55 0.928 . S
C60 C59 1.372 . S
C60 C61 1.404 . S
C61 C60 1.404 . S
C61 C62 1.391 1_554 S
C62 H56 0.930 . S
C62 C58 1.429 . S
C62 C61 1.391 1_556 S
H63 C66 0.931 . S
H64 C69 0.928 . S
H65 C71 0.930 . S
C66 H63 0.931 . S
C66 C67 1.413 1_556 S
C66 C68 1.360 . S
C67 C66 1.413 1_554 S
C67 C71 1.429 . S
C68 C66 1.360 . S
C68 C69 1.372 . S
C69 H64 0.928 . S
C69 C68 1.372 . S
C69 C70 1.404 1_556 S
C70 C69 1.404 1_554 S
C70 C71 1.391 . S
C71 H65 0.930 . S
C71 C67 1.429 . S
C71 C70 1.391 . S
Tb72 N101 2.617 . S
Tb72 N107 2.572 . S
Tb72 O116 2.465 . S
Tb72 O117 2.387 1_545 S
Tb72 O119 2.428 . S
Tb72 O120 2.308 1_655 S
Tb72 O124 2.349 . S
Tb72 O127 2.393 . S
Tb72 C136 2.802 . S
C73 N74 1.379 . S
C73 C76 1.416 . S
C73 C80 1.424 1_556 S
N74 C73 1.379 . S
N74 C77 1.336 . S
N74 Tb83 2.617 1_545 S
C75 C77 1.394 . S
C75 C78 1.339 . S
C75 H95 0.930 . S
C76 C73 1.416 . S
C76 C78 1.416 . S
C76 C82 1.448 1_556 S
C77 N74 1.336 . S
C77 C75 1.394 . S
C77 H88 0.925 1_545 S
C78 C75 1.339 . S
C78 C76 1.416 . S
C78 H99 0.930 . S
C79 C80 1.413 . S
C79 C81 1.427 . S
C79 C85 1.416 . S
C80 C73 1.424 1_554 S
C80 C79 1.413 . S
C80 N84 1.361 1_554 S
C81 C79 1.427 . S
C81 C82 1.328 . S
C81 H96 0.929 . S
C82 C76 1.448 1_554 S
C82 C81 1.328 . S
C82 H97 0.930 . S
Tb83 N74 2.617 1_565 S
Tb83 N84 2.572 1_565 S
Tb83 O118 2.349 . S
Tb83 O121 2.393 . S
Tb83 O122 2.465 . S
Tb83 O123 2.387 1_565 S
Tb83 O125 2.428 . S
Tb83 O126 2.308 1_455 S
Tb83 C147 2.802 . S
N84 C80 1.361 1_556 S
N84 Tb83 2.572 1_545 S
N84 C86 1.340 1_556 S
C85 C79 1.416 . S
C85 C87 1.332 . S
C85 H93 0.931 . S
C86 N84 1.340 1_554 S
C86 C87 1.407 . S
C86 H92 0.930 . S
C87 C85 1.332 . S
C87 C86 1.407 . S
C87 H89 0.929 . S
H88 C77 0.925 1_565 S
H89 C87 0.929 . S
H90 C105 0.930 . S
H91 C112 0.929 . S
H92 C86 0.930 . S
H93 C85 0.931 . S
H94 C108 0.930 1_445 S
H95 C75 0.930 . S
H96 C81 0.929 . S
H97 C82 0.930 . S
H98 C103 0.930 1_545 S
H99 C78 0.930 . S
H100 C111 0.931 . S
N101 Tb72 2.617 . S
N101 C102 1.379 1_545 S
N101 C105 1.334 . S
C102 N101 1.379 1_565 S
C102 C104 1.416 . S
C102 C110 1.424 . S
C103 H98 0.930 1_565 S
C103 C105 1.390 1_565 S
C103 C106 1.339 . S
C104 C102 1.416 . S
C104 C106 1.416 . S
C104 C137 1.448 . S
C105 H90 0.930 . S
C105 N101 1.334 . S
C105 C103 1.390 1_545 S
C106 C103 1.339 . S
C106 C104 1.416 . S
C106 H113 0.930 . S
N107 Tb72 2.572 . S
N107 C108 1.340 1_545 S
N107 C110 1.361 1_545 S
C108 H94 0.930 1_665 S
C108 N107 1.340 1_565 S
C108 C112 1.407 . S
C109 C110 1.413 . S
C109 C111 1.416 . S
C109 C138 1.427 . S
C110 C102 1.424 . S
C110 N107 1.361 1_565 S
C110 C109 1.413 . S
C111 H100 0.931 . S
C111 C109 1.416 . S
C111 C112 1.332 . S
C112 H91 0.929 . S
C112 C108 1.407 . S
C112 C111 1.332 . S
H113 C106 0.930 . S
H114 C137 0.930 . S
H115 C138 0.929 . S
O116 Tb72 2.465 . S
O116 C136 1.264 . S
O117 Tb72 2.387 1_565 S
O117 C128 1.264 . S
O118 Tb83 2.349 . S
O118 C128 1.243 1_455 S
O119 Tb72 2.428 . S
O119 C136 1.256 . S
O120 Tb72 2.308 1_455 S
O120 C135 1.266 . S
O121 Tb83 2.393 . S
O121 C135 1.248 1_565 S
O122 Tb83 2.465 . S
O122 C147 1.264 . S
O123 Tb83 2.387 1_545 S
O123 C139 1.264 . S
O124 Tb72 2.349 . S
O124 C139 1.243 1_655 S
O125 Tb83 2.428 . S
O125 C147 1.256 . S
O126 Tb83 2.308 1_655 S
O126 C146 1.266 1_565 S
O127 Tb72 2.393 . S
O127 C146 1.248 . S
C128 O117 1.264 . S
C128 O118 1.243 1_655 S
C129 C132 1.399 . S
C129 C134 1.383 . S
C129 C136 1.496 . S
C130 C131 1.399 . S
C130 C134 1.389 . S
C131 C130 1.399 . S
C131 C133 1.380 . S
C131 H148 0.929 . S
C132 C129 1.399 . S
C132 C133 1.392 . S
C132 H149 0.929 . S
C133 C131 1.380 . S
C133 C132 1.392 . S
C133 H150 0.929 . S
C134 C129 1.383 . S
C134 C130 1.389 . S
C134 H151 0.931 . S
C135 O120 1.266 . S
C135 O121 1.248 1_545 S
C136 Tb72 2.802 . S
C136 O116 1.264 . S
C136 O119 1.256 . S
C136 C129 1.496 . S
C137 C104 1.448 . S
C137 H114 0.930 . S
C137 C138 1.328 . S
C138 C109 1.427 . S
C138 H115 0.929 . S
C138 C137 1.328 . S
C139 O123 1.264 . S
C139 O124 1.243 1_455 S
C140 C143 1.399 . S
C140 C144 1.383 1_556 S
C140 C147 1.496 . S
C141 C142 1.399 . S
C141 C144 1.389 . S
C142 C141 1.399 . S
C142 C145 1.380 . S
C142 H152 0.929 . S
C143 C140 1.399 . S
C143 C145 1.392 1_556 S
C143 H153 0.929 . S
C144 C140 1.383 1_554 S
C144 C141 1.389 . S
C144 H154 0.931 . S
C145 C142 1.380 . S
C145 C143 1.392 1_554 S
C145 H155 0.929 1_554 S
C146 O126 1.266 1_545 S
C146 O127 1.248 . S
C147 Tb83 2.802 . S
C147 O122 1.264 . S
C147 O125 1.256 . S
C147 C140 1.496 . S
H148 C131 0.929 . S
H149 C132 0.929 . S
H150 C133 0.929 . S
H151 C134 0.931 . S
H152 C142 0.929 . S
H153 C143 0.929 . S
H154 C144 0.931 . S
H155 C145 0.929 1_556 S
Tb156 N185 2.617 . S
Tb156 N191 2.572 . S
Tb156 O200 2.465 . S
Tb156 O201 2.387 . S
Tb156 O203 2.428 . S
Tb156 O204 2.308 . S
Tb156 O208 2.349 1_545 S
Tb156 O211 2.393 . S
Tb156 C220 2.802 . S
C157 N158 1.379 . S
C157 C160 1.416 . S
C157 C164 1.424 . S
N158 C157 1.379 . S
N158 C161 1.334 . S
N158 Tb167 2.617 . S
C159 C161 1.390 . S
C159 C162 1.339 . S
C159 H179 0.930 . S
C160 C157 1.416 . S
C160 C162 1.416 . S
C160 C166 1.448 . S
C161 N158 1.334 . S
C161 C159 1.390 . S
C161 H172 0.930 . S
C162 C159 1.339 . S
C162 C160 1.416 . S
C162 H183 0.930 . S
C163 C164 1.413 . S
C163 C165 1.427 . S
C163 C169 1.416 . S
C164 C157 1.424 . S
C164 C163 1.413 . S
C164 N168 1.361 . S
C165 C163 1.427 . S
C165 C166 1.328 . S
C165 H180 0.929 . S
C166 C160 1.448 . S
C166 C165 1.328 . S
C166 H181 0.930 . S
Tb167 N158 2.617 . S
Tb167 N168 2.572 . S
Tb167 O202 2.349 1_565 S
Tb167 O205 2.393 . S
Tb167 O206 2.465 . S
Tb167 O207 2.387 . S
Tb167 O209 2.428 . S
Tb167 O210 2.308 . S
Tb167 C231 2.802 . S
N168 C164 1.361 . S
N168 Tb167 2.572 . S
N168 C170 1.340 . S
C169 C163 1.416 . S
C169 C171 1.332 . S
C169 H177 0.931 . S
C170 N168 1.340 . S
C170 C171 1.407 . S
C170 H176 0.930 . S
C171 C169 1.332 . S
C171 C170 1.407 . S
C171 H173 0.929 . S
H172 C161 0.930 . S
H173 C171 0.929 . S
H174 C189 0.930 . S
H175 C196 0.929 . S
H176 C170 0.930 . S
H177 C169 0.931 . S
H178 C192 0.930 . S
H179 C159 0.930 . S
H180 C165 0.929 . S
H181 C166 0.930 . S
H182 C187 0.930 . S
H183 C162 0.930 . S
H184 C195 0.931 . S
N185 Tb156 2.617 . S
N185 C186 1.379 . S
N185 C189 1.334 . S
C186 N185 1.379 . S
C186 C188 1.416 . S
C186 C194 1.424 . S
C187 H182 0.930 . S
C187 C189 1.390 . S
C187 C190 1.339 . S
C188 C186 1.416 . S
C188 C190 1.416 . S
C188 C221 1.448 . S
C189 H174 0.930 . S
C189 N185 1.334 . S
C189 C187 1.390 . S
C190 C187 1.339 . S
C190 C188 1.416 . S
C190 H197 0.930 . S
N191 Tb156 2.572 . S
N191 C192 1.340 . S
N191 C194 1.361 . S
C192 H178 0.930 . S
C192 N191 1.340 . S
C192 C196 1.407 . S
C193 C194 1.413 . S
C193 C195 1.416 . S
C193 C222 1.427 . S
C194 C186 1.424 . S
C194 N191 1.361 . S
C194 C193 1.413 . S
C195 H184 0.931 . S
C195 C193 1.416 . S
C195 C196 1.332 . S
C196 H175 0.929 . S
C196 C192 1.407 . S
C196 C195 1.332 . S
H197 C190 0.930 . S
H198 C221 0.930 . S
H199 C222 0.929 . S
O200 Tb156 2.465 . S
O200 C220 1.264 . S
O201 Tb156 2.387 . S
O201 C212 1.264 . S
O202 Tb167 2.349 1_545 S
O202 C212 1.243 . S
O203 Tb156 2.428 . S
O203 C220 1.256 . S
O204 Tb156 2.308 . S
O204 C219 1.266 1_545 S
O205 Tb167 2.393 . S
O205 C219 1.248 . S
O206 Tb167 2.465 . S
O206 C231 1.264 . S
O207 Tb167 2.387 . S
O207 C223 1.264 . S
O208 Tb156 2.349 1_565 S
O208 C223 1.243 . S
O209 Tb167 2.428 . S
O209 C231 1.256 . S
O210 Tb167 2.308 . S
O210 C230 1.266 1_565 S
O211 Tb156 2.393 . S
O211 C230 1.248 . S
C212 O201 1.264 . S
C212 O202 1.243 . S
C213 C216 1.399 . S
C213 C218 1.383 . S
C213 C220 1.496 1_554 S
C214 C215 1.399 . S
C214 C218 1.389 . S
C215 C214 1.399 . S
C215 C217 1.380 . S
C215 H232 0.929 . S
C216 C213 1.399 . S
C216 C217 1.392 . S
C216 H233 0.929 . S
C217 C215 1.380 . S
C217 C216 1.392 . S
C217 H234 0.929 . S
C218 C213 1.383 . S
C218 C214 1.389 . S
C218 H235 0.931 . S
C219 O204 1.266 1_565 S
C219 O205 1.248 . S
C220 Tb156 2.802 . S
C220 O200 1.264 . S
C220 O203 1.256 . S
C220 C213 1.496 1_556 S
C221 C188 1.448 . S
C221 H198 0.930 . S
C221 C222 1.328 . S
C222 C193 1.427 . S
C222 H199 0.929 . S
C222 C221 1.328 . S
C223 O207 1.264 . S
C223 O208 1.243 . S
C224 C227 1.399 . S
C224 C228 1.383 . S
C224 C231 1.496 . S
C225 C226 1.399 . S
C225 C228 1.389 . S
C226 C225 1.399 . S
C226 C229 1.380 . S
C226 H236 0.929 . S
C227 C224 1.399 . S
C227 C229 1.392 . S
C227 H237 0.929 . S
C228 C224 1.383 . S
C228 C225 1.389 . S
C228 H238 0.931 . S
C229 C226 1.380 . S
C229 C227 1.392 . S
C229 H239 0.929 . S
C230 O210 1.266 1_545 S
C230 O211 1.248 . S
C231 Tb167 2.802 . S
C231 O206 1.264 . S
C231 O209 1.256 . S
C231 C224 1.496 . S
H232 C215 0.929 . S
H233 C216 0.929 . S
H234 C217 0.929 . S
H235 C218 0.931 . S
H236 C226 0.929 . S
H237 C227 0.929 . S
H238 C228 0.931 . S
H239 C229 0.929 . S
Tb240 N269 2.617 . S
Tb240 N275 2.572 . S
Tb240 O284 2.465 . S
Tb240 O285 2.387 . S
Tb240 O287 2.428 . S
Tb240 O288 2.308 . S
Tb240 O292 2.349 . S
Tb240 O295 2.393 . S
Tb240 C304 2.802 . S
C241 N242 1.379 . S
C241 C244 1.416 . S
C241 C248 1.424 1_556 S
N242 C241 1.379 . S
N242 C245 1.334 . S
N242 Tb251 2.617 . S
C243 C245 1.390 . S
C243 C246 1.339 . S
C243 H263 0.930 . S
C244 C241 1.416 . S
C244 C246 1.416 . S
C244 C250 1.448 1_556 S
C245 N242 1.334 . S
C245 C243 1.390 . S
C245 H256 0.930 . S
C246 C243 1.339 . S
C246 C244 1.416 . S
C246 H267 0.930 . S
C247 C248 1.413 . S
C247 C249 1.427 . S
C247 C253 1.416 . S
C248 C241 1.424 1_554 S
C248 C247 1.413 . S
C248 N252 1.361 1_554 S
C249 C247 1.427 . S
C249 C250 1.328 . S
C249 H264 0.929 . S
C250 C244 1.448 1_554 S
C250 C249 1.328 . S
C250 H265 0.930 . S
Tb251 N242 2.617 . S
Tb251 N252 2.572 . S
Tb251 O286 2.349 . S
Tb251 O289 2.393 . S
Tb251 O290 2.465 . S
Tb251 O291 2.387 . S
Tb251 O293 2.428 . S
Tb251 O294 2.308 . S
Tb251 C315 2.802 . S
N252 C248 1.361 1_556 S
N252 Tb251 2.572 . S
N252 C254 1.340 1_556 S
C253 C247 1.416 . S
C253 C255 1.332 . S
C253 H261 0.931 . S
C254 N252 1.340 1_554 S
C254 C255 1.407 . S
C254 H260 0.930 . S
C255 C253 1.332 . S
C255 C254 1.407 . S
C255 H257 0.929 . S
H256 C245 0.930 . S
H257 C255 0.929 . S
H258 C273 0.930 . S
H259 C280 0.929 . S
H260 C254 0.930 . S
H261 C253 0.931 . S
H262 C276 0.930 . S
H263 C243 0.930 . S
H264 C249 0.929 . S
H265 C250 0.930 . S
H266 C271 0.930 . S
H267 C246 0.930 . S
H268 C279 0.931 . S
N269 Tb240 2.617 . S
N269 C270 1.379 . S
N269 C273 1.334 . S
C270 N269 1.379 . S
C270 C272 1.416 . S
C270 C278 1.424 . S
C271 H266 0.930 . S
C271 C273 1.390 . S
C271 C274 1.339 . S
C272 C270 1.416 . S
C272 C274 1.416 . S
C272 C305 1.448 . S
C273 H258 0.930 . S
C273 N269 1.334 . S
C273 C271 1.390 . S
C274 C271 1.339 . S
C274 C272 1.416 . S
C274 H281 0.930 . S
N275 Tb240 2.572 . S
N275 C276 1.340 . S
N275 C278 1.361 . S
C276 H262 0.930 . S
C276 N275 1.340 . S
C276 C280 1.407 . S
C277 C278 1.413 . S
C277 C279 1.416 . S
C277 C306 1.427 . S
C278 C270 1.424 . S
C278 N275 1.361 . S
C278 C277 1.413 . S
C279 H268 0.931 . S
C279 C277 1.416 . S
C279 C280 1.332 . S
C280 H259 0.929 . S
C280 C276 1.407 . S
C280 C279 1.332 . S
H281 C274 0.930 . S
H282 C305 0.930 . S
H283 C306 0.929 . S
O284 Tb240 2.465 . S
O284 C304 1.264 . S
O285 Tb240 2.387 . S
O285 C296 1.264 . S
O286 Tb251 2.349 . S
O286 C296 1.243 . S
O287 Tb240 2.428 . S
O287 C304 1.256 . S
O288 Tb240 2.308 . S
O288 C303 1.266 . S
O289 Tb251 2.393 . S
O289 C303 1.248 . S
O290 Tb251 2.465 . S
O290 C315 1.264 . S
O291 Tb251 2.387 . S
O291 C307 1.264 . S
O292 Tb240 2.349 . S
O292 C307 1.243 . S
O293 Tb251 2.428 . S
O293 C315 1.256 . S
O294 Tb251 2.308 . S
O294 C314 1.266 . S
O295 Tb240 2.393 . S
O295 C314 1.248 . S
C296 O285 1.264 . S
C296 O286 1.243 . S
C297 C300 1.399 . S
C297 C302 1.383 . S
C297 C304 1.496 . S
C298 C299 1.399 . S
C298 C302 1.389 . S
C299 C298 1.399 . S
C299 C301 1.380 . S
C299 H316 0.929 . S
C300 C297 1.399 . S
C300 C301 1.392 . S
C300 H317 0.929 . S
C301 C299 1.380 . S
C301 C300 1.392 . S
C301 H318 0.929 . S
C302 C297 1.383 . S
C302 C298 1.389 . S
C302 H319 0.931 . S
C303 O288 1.266 . S
C303 O289 1.248 . S
C304 Tb240 2.802 . S
C304 O284 1.264 . S
C304 O287 1.256 . S
C304 C297 1.496 . S
C305 C272 1.448 . S
C305 H282 0.930 . S
C305 C306 1.328 . S
C306 C277 1.427 . S
C306 H283 0.929 . S
C306 C305 1.328 . S
C307 O291 1.264 . S
C307 O292 1.243 . S
C308 C311 1.399 . S
C308 C312 1.383 1_556 S
C308 C315 1.496 . S
C309 C310 1.399 . S
C309 C312 1.389 . S
C310 C309 1.399 . S
C310 C313 1.380 . S
C310 H320 0.929 . S
C311 C308 1.399 . S
C311 C313 1.392 1_556 S
C311 H321 0.929 . S
C312 C308 1.383 1_554 S
C312 C309 1.389 . S
C312 H322 0.931 . S
C313 C310 1.380 . S
C313 C311 1.392 1_554 S
C313 H323 0.929 1_554 S
C314 O294 1.266 . S
C314 O295 1.248 . S
C315 Tb251 2.802 . S
C315 O290 1.264 . S
C315 O293 1.256 . S
C315 C308 1.496 . S
H316 C299 0.929 . S
H317 C300 0.929 . S
H318 C301 0.929 . S
H319 C302 0.931 . S
H320 C310 0.929 . S
H321 C311 0.929 . S
H322 C312 0.931 . S
H323 C313 0.929 1_556 S
Tb324 N353 2.617 . S
Tb324 N359 2.572 . S
Tb324 O368 2.465 . S
Tb324 O369 2.387 1_455 S
Tb324 O371 2.428 . S
Tb324 O372 2.308 . S
Tb324 O376 2.349 . S
Tb324 O379 2.393 . S
Tb324 C388 2.802 . S
C325 N326 1.376 1_455 S
C325 C328 1.416 . S
C325 C332 1.424 1_556 S
N326 C325 1.376 1_655 S
N326 C329 1.335 . S
N326 Tb335 2.619 . S
C327 C329 1.390 1_455 S
C327 C330 1.339 . S
C327 H347 0.930 . S
C328 C325 1.416 . S
C328 C330 1.416 . S
C328 C334 1.448 1_556 S
C329 N326 1.335 . S
C329 C327 1.390 1_655 S
C329 H340 0.930 . S
C330 C327 1.339 . S
C330 C328 1.416 . S
C330 H351 0.930 . S
C331 C332 1.413 . S
C331 C333 1.427 . S
C331 C337 1.416 . S
C332 C325 1.424 1_554 S
C332 C331 1.413 . S
C332 N336 1.361 1_554 S
C333 C331 1.427 . S
C333 C334 1.328 . S
C333 H348 0.929 . S
C334 C328 1.448 1_554 S
C334 C333 1.328 . S
C334 H349 0.930 . S
Tb335 N326 2.619 . S
Tb335 N336 2.572 1_655 S
Tb335 O370 2.349 . S
Tb335 O373 2.393 . S
Tb335 O374 2.465 . S
Tb335 O375 2.387 1_655 S
Tb335 O377 2.428 . S
Tb335 O378 2.308 . S
Tb335 C399 2.802 . S
N336 C332 1.361 1_556 S
N336 Tb335 2.572 1_455 S
N336 C338 1.340 1_556 S
C337 C331 1.416 . S
C337 C339 1.332 . S
C337 H345 0.931 . S
C338 N336 1.340 1_554 S
C338 C339 1.407 . S
C338 H344 0.930 . S
C339 C337 1.332 . S
C339 C338 1.407 . S
C339 H341 0.929 . S
H340 C329 0.930 . S
H341 C339 0.929 . S
H342 C357 0.930 . S
H343 C364 0.929 . S
H344 C338 0.930 . S
H345 C337 0.931 . S
H346 C360 0.930 1_455 S
H347 C327 0.930 . S
H348 C333 0.929 . S
H349 C334 0.930 . S
H350 C355 0.929 1_455 S
H351 C330 0.930 . S
H352 C363 0.931 . S
N353 Tb324 2.617 . S
N353 C354 1.379 1_455 S
N353 C357 1.334 . S
C354 N353 1.379 1_655 S
C354 C356 1.416 . S
C354 C362 1.424 . S
C355 H350 0.929 1_655 S
C355 C357 1.387 1_655 S
C355 C358 1.344 . S
C356 C354 1.416 . S
C356 C358 1.416 . S
C356 C389 1.448 . S
C357 H342 0.930 . S
C357 N353 1.334 . S
C357 C355 1.387 1_455 S
C358 C355 1.344 . S
C358 C356 1.416 . S
C358 H365 0.930 . S
N359 Tb324 2.572 . S
N359 C360 1.340 1_455 S
N359 C362 1.361 1_455 S
C360 H346 0.930 1_655 S
C360 N359 1.340 1_655 S
C360 C364 1.407 . S
C361 C362 1.413 . S
C361 C363 1.416 . S
C361 C390 1.427 . S
C362 C354 1.424 . S
C362 N359 1.361 1_655 S
C362 C361 1.413 . S
C363 H352 0.931 . S
C363 C361 1.416 . S
C363 C364 1.332 . S
C364 H343 0.929 . S
C364 C360 1.407 . S
C364 C363 1.332 . S
H365 C358 0.930 . S
H366 C389 0.930 . S
H367 C390 0.929 . S
O368 Tb324 2.465 . S
O368 C388 1.264 . S
O369 Tb324 2.387 1_655 S
O369 C380 1.264 . S
O370 Tb335 2.349 . S
O370 C380 1.243 . S
O371 Tb324 2.428 . S
O371 C388 1.256 . S
O372 Tb324 2.308 . S
O372 C387 1.266 . S
O373 Tb335 2.393 . S
O373 C387 1.248 1_655 S
O374 Tb335 2.465 . S
O374 C399 1.264 . S
O375 Tb335 2.387 1_455 S
O375 C391 1.264 . S
O376 Tb324 2.349 . S
O376 C391 1.243 . S
O377 Tb335 2.428 . S
O377 C399 1.256 . S
O378 Tb335 2.308 . S
O378 C398 1.266 1_655 S
O379 Tb324 2.393 . S
O379 C398 1.248 . S
C380 O369 1.264 . S
C380 O370 1.243 . S
C381 C384 1.399 . S
C381 C386 1.383 . S
C381 C388 1.496 . S
C382 C383 1.399 . S
C382 C386 1.389 . S
C383 C382 1.399 . S
C383 C385 1.380 . S
C383 H400 0.929 . S
C384 C381 1.399 . S
C384 C385 1.392 . S
C384 H401 0.929 . S
C385 C383 1.380 . S
C385 C384 1.392 . S
C385 H402 0.929 . S
C386 C381 1.383 . S
C386 C382 1.389 . S
C386 H403 0.931 . S
C387 O372 1.266 . S
C387 O373 1.248 1_455 S
C388 Tb324 2.802 . S
C388 O368 1.264 . S
C388 O371 1.256 . S
C388 C381 1.496 . S
C389 C356 1.448 . S
C389 H366 0.930 . S
C389 C390 1.328 . S
C390 C361 1.427 . S
C390 H367 0.929 . S
C390 C389 1.328 . S
C391 O375 1.264 . S
C391 O376 1.243 . S
C392 C395 1.399 . S
C392 C396 1.383 1_556 S
C392 C399 1.496 . S
C393 C394 1.399 . S
C393 C396 1.389 . S
C394 C393 1.399 . S
C394 C397 1.380 . S
C394 H404 0.929 . S
C395 C392 1.399 . S
C395 C397 1.392 1_556 S
C395 H405 0.929 . S
C396 C392 1.383 1_554 S
C396 C393 1.389 . S
C396 H406 0.931 . S
C397 C394 1.380 . S
C397 C395 1.392 1_554 S
C397 H407 0.929 1_554 S
C398 O378 1.266 1_455 S
C398 O379 1.248 . S
C399 Tb335 2.802 . S
C399 O374 1.264 . S
C399 O377 1.256 . S
C399 C392 1.496 . S
H400 C383 0.929 . S
H401 C384 0.929 . S
H402 C385 0.929 . S
H403 C386 0.931 . S
H404 C394 0.929 . S
H405 C395 0.929 . S
H406 C396 0.931 . S
H407 C397 0.929 1_556 S
C408 C409 1.387 . S
C408 H412 0.950 . S
C408 C417 1.390 . S
C409 C408 1.387 . S
C409 C411 1.387 1_545 S
H410 C417 0.950 . S
C411 C409 1.387 1_565 S
C411 C413 1.390 . S
C411 H415 0.950 . S
H412 C408 0.950 . S
C413 C411 1.390 . S
C413 C414 1.387 1_565 S
C413 H416 0.950 . S
C414 C413 1.387 1_545 S
C414 C417 1.387 . S
H415 C411 0.950 . S
H416 C413 0.950 . S
C417 C408 1.390 . S
C417 H410 0.950 . S
C417 C414 1.387 . S
C418 C419 1.387 . S
C418 H422 0.950 . S
C418 C427 1.390 . S
C419 C418 1.387 . S
C419 C421 1.387 . S
H420 C427 0.950 . S
C421 C419 1.387 . S
C421 C423 1.390 . S
C421 H425 0.950 . S
H422 C418 0.950 . S
C423 C421 1.390 . S
C423 C424 1.387 . S
C423 H426 0.950 . S
C424 C423 1.387 . S
C424 C427 1.387 . S
H425 C421 0.950 . S
H426 C423 0.950 . S
C427 C418 1.390 . S
C427 H420 0.950 . S
C427 C424 1.387 . S
C428 C429 1.387 . S
C428 H432 0.950 . S
C428 C437 1.390 . S
C429 C428 1.387 . S
C429 C431 1.387 . S
H430 C437 0.950 . S
C431 C429 1.387 . S
C431 C433 1.390 . S
C431 H435 0.950 . S
H432 C428 0.950 . S
C433 C431 1.390 . S
C433 C434 1.387 . S
C433 H436 0.950 . S
C434 C433 1.387 . S
C434 C437 1.387 . S
H435 C431 0.950 . S
H436 C433 0.950 . S
C437 C428 1.390 . S
C437 H430 0.950 . S
C437 C434 1.387 . S
C438 C439 1.387 . S
C438 H442 0.950 . S
C438 C447 1.390 . S
C439 C438 1.387 . S
C439 C441 1.387 1_455 S
H440 C447 0.950 . S
C441 C439 1.387 1_655 S
C441 C443 1.390 . S
C441 H445 0.950 . S
H442 C438 0.950 . S
C443 C441 1.390 . S
C443 C444 1.387 1_655 S
C443 H446 0.950 . S
C444 C443 1.387 1_455 S
C444 C447 1.387 . S
H445 C441 0.950 . S
H446 C443 0.950 . S
C447 C438 1.390 . S
C447 H440 0.950 . S
C447 C444 1.387 . S
C448 C449 1.387 . S
C448 H452 0.950 . S
C448 C457 1.390 . S
C449 C448 1.387 . S
C449 C451 1.387 1_565 S
H450 C457 0.950 . S
C451 C449 1.387 1_545 S
C451 C453 1.390 . S
C451 H455 0.950 . S
H452 C448 0.950 . S
C453 C451 1.390 . S
C453 C454 1.387 1_544 S
C453 H456 0.950 . S
C454 C453 1.387 1_566 S
C454 C457 1.387 1_556 S
H455 C451 0.950 . S
H456 C453 0.950 . S
C457 C448 1.390 . S
C457 H450 0.950 . S
C457 C454 1.387 1_554 S
C458 C459 1.387 . S
C458 H462 0.950 . S
C458 C467 1.390 . S
C459 C458 1.387 . S
C459 C461 1.387 . S
H460 C467 0.950 . S
C461 C459 1.387 . S
C461 C463 1.390 . S
C461 H465 0.950 . S
H462 C458 0.950 . S
C463 C461 1.390 . S
C463 C464 1.387 . S
C463 H466 0.950 . S
C464 C463 1.387 . S
C464 C467 1.387 . S
H465 C461 0.950 . S
H466 C463 0.950 . S
C467 C458 1.390 . S
C467 H460 0.950 . S
C467 C464 1.387 . S
C468 C469 1.387 . S
C468 H472 0.950 . S
C468 C477 1.390 . S
C469 C468 1.387 . S
C469 C471 1.387 . S
H470 C477 0.956 . S
C471 C469 1.387 . S
C471 C473 1.390 . S
C471 H475 0.950 . S
H472 C468 0.950 . S
C473 C471 1.390 . S
C473 C474 1.387 1_554 S
C473 H476 0.950 . S
C474 C473 1.387 1_556 S
C474 C477 1.387 1_556 S
H475 C471 0.950 . S
H476 C473 0.950 . S
C477 C468 1.390 . S
C477 H470 0.956 . S
C477 C474 1.387 1_554 S
C478 C479 1.387 1_455 S
C478 H482 0.950 . S
C478 C487 1.390 . S
C479 C478 1.387 1_655 S
C479 C481 1.387 . S
H480 C487 0.950 1_556 S
C481 C479 1.387 . S
C481 C483 1.390 . S
C481 H485 0.950 . S
H482 C478 0.950 . S
C483 C481 1.390 . S
C483 C484 1.387 1_554 S
C483 H486 0.950 . S
C484 C483 1.387 1_556 S
C484 C487 1.387 1_656 S
H485 C481 0.950 . S
H486 C483 0.950 . S
C487 C478 1.390 . S
C487 H480 0.950 1_554 S
C487 C484 1.387 1_454 S
C488 C489 1.387 1_655 S
C488 H492 0.950 . S
C488 C497 1.390 . S
C489 C488 1.387 1_455 S
C489 C491 1.387 . S
H490 C497 0.950 . S
C491 C489 1.387 . S
C491 C493 1.390 . S
C491 H495 0.950 . S
H492 C488 0.950 . S
C493 C491 1.390 . S
C493 C494 1.387 1_455 S
C493 H496 0.950 . S
C494 C493 1.387 1_655 S
C494 C497 1.387 . S
H495 C491 0.950 . S
H496 C493 0.950 . S
C497 C488 1.390 . S
C497 H490 0.950 . S
C497 C494 1.387 . S
C498 C499 1.387 . S
C498 H502 0.950 . S
C498 C507 1.390 . S
C499 C498 1.387 . S
C499 C501 1.387 . S
H500 C507 0.950 . S
C501 C499 1.387 . S
C501 C503 1.390 1_545 S
C501 H505 0.950 . S
H502 C498 0.950 . S
C503 C501 1.390 1_565 S
C503 C504 1.387 . S
C503 H506 0.950 . S
C504 C503 1.387 . S
C504 C507 1.387 1_565 S
H505 C501 0.950 . S
H506 C503 0.950 . S
C507 C498 1.390 . S
C507 H500 0.950 . S
C507 C504 1.387 1_545 S
C508 C509 1.387 . S
C508 H512 0.950 . S
C508 C517 1.390 . S
C509 C508 1.387 . S
C509 C511 1.387 . S
H510 C517 0.950 . S
C511 C509 1.387 . S
C511 C513 1.390 . S
C511 H515 0.950 . S
H512 C508 0.950 . S
C513 C511 1.390 . S
C513 C514 1.387 . S
C513 H516 0.950 . S
C514 C513 1.387 . S
C514 C517 1.387 . S
H515 C511 0.950 . S
H516 C513 0.950 . S
C517 C508 1.390 . S
C517 H510 0.950 . S
C517 C514 1.387 . S
C518 C519 1.387 . S
C518 H522 0.950 . S
C518 C527 1.390 . S
C519 C518 1.387 . S
C519 C521 1.387 . S
H520 C527 0.950 . S
C521 C519 1.387 . S
C521 C523 1.390 . S
C521 H525 0.950 . S
H522 C518 0.950 . S
C523 C521 1.390 . S
C523 C524 1.387 . S
C523 H526 0.950 . S
C524 C523 1.387 . S
C524 C527 1.387 . S
H525 C521 0.950 . S
H526 C523 0.950 . S
C527 C518 1.390 . S
C527 H520 0.950 . S
C527 C524 1.387 . S
C528 C529 1.381 1_455 S
C528 H532 0.946 1_455 S
C528 C537 1.400 . S
C529 C528 1.381 1_655 S
C529 C531 1.387 . S
H530 C537 0.950 . S
C531 C529 1.387 . S
C531 C533 1.390 1_655 S
C531 H535 0.950 . S
H532 C528 0.946 1_655 S
C533 C531 1.390 1_455 S
C533 C534 1.387 . S
C533 H536 0.950 . S
C534 C533 1.387 . S
C534 C537 1.387 . S
H535 C531 0.950 . S
H536 C533 0.950 . S
C537 C528 1.400 . S
C537 H530 0.950 . S
C537 C534 1.387 . S
C538 C539 1.387 . S
C538 H542 0.950 . S
C538 C547 1.390 1_565 S
C539 C538 1.387 . S
C539 C541 1.387 1_565 S
H540 C547 0.950 1_565 S
C541 C539 1.387 1_545 S
C541 C543 1.390 . S
C541 H545 0.950 . S
H542 C538 0.950 . S
C543 C541 1.390 . S
C543 C544 1.387 . S
C543 H546 0.950 . S
C544 C543 1.387 . S
C544 C547 1.387 . S
H545 C541 0.950 . S
H546 C543 0.950 . S
C547 C538 1.390 1_545 S
C547 H540 0.950 1_545 S
C547 C544 1.387 . S
C548 C549 1.387 . S
C548 H552 0.950 . S
C548 C557 1.390 . S
C549 C548 1.387 . S
C549 C551 1.387 . S
H550 C557 0.950 . S
C551 C549 1.387 . S
C551 C553 1.390 . S
C551 H555 0.950 . S
H552 C548 0.950 . S
C553 C551 1.390 . S
C553 C554 1.387 . S
C553 H556 0.950 . S
C554 C553 1.387 . S
C554 C557 1.387 . S
H555 C551 0.950 . S
H556 C553 0.950 . S
C557 C548 1.390 . S
C557 H550 0.950 . S
C557 C554 1.387 . S
C558 C559 1.387 . S
C558 H562 0.950 . S
C558 C567 1.390 . S
C559 C558 1.387 . S
C559 C561 1.387 . S
H560 C567 0.950 . S
C561 C559 1.387 . S
C561 C563 1.390 . S
C561 H565 0.950 . S
H562 C558 0.950 . S
C563 C561 1.390 . S
C563 C564 1.387 . S
C563 H566 0.950 . S
C564 C563 1.387 . S
C564 C567 1.387 . S
H565 C561 0.950 . S
H566 C563 0.950 . S
C567 C558 1.390 . S
C567 H560 0.950 . S
C567 C564 1.387 . S
C568 C569 1.387 1_655 S
C568 H572 0.950 . S
C568 C577 1.390 . S
C569 C568 1.387 1_455 S
C569 C571 1.387 . S
H570 C577 0.950 . S
C571 C569 1.387 . S
C571 C573 1.390 . S
C571 H575 0.950 . S
H572 C568 0.950 . S
C573 C571 1.390 . S
C573 C574 1.387 . S
C573 H576 0.950 . S
C574 C573 1.387 . S
C574 C577 1.387 1_455 S
H575 C571 0.950 . S
H576 C573 0.950 . S
C577 C568 1.390 . S
C577 H570 0.950 . S
C577 C574 1.387 1_655 S
C578 C579 1.387 1_565 S
C578 H582 0.950 . S
C578 C587 1.390 . S
C579 C578 1.387 1_545 S
C579 C581 1.387 . S
H580 C587 0.950 . S
C581 C579 1.387 . S
C581 C583 1.390 . S
C581 H585 0.950 . S
H582 C578 0.950 . S
C583 C581 1.390 . S
C583 C584 1.387 . S
C583 H586 0.950 . S
C584 C583 1.387 . S
C584 C587 1.387 1_545 S
H585 C581 0.950 . S
H586 C583 0.950 . S
C587 C578 1.390 . S
C587 H580 0.950 . S
C587 C584 1.387 1_565 S
C588 C589 1.387 . S
C588 H592 0.950 . S
C588 C597 1.390 . S
C589 C588 1.387 . S
C589 C591 1.387 . S
H590 C597 0.950 . S
C591 C589 1.387 . S
C591 C593 1.390 . S
C591 H595 0.950 . S
H592 C588 0.950 . S
C593 C591 1.390 . S
C593 C594 1.387 . S
C593 H596 0.950 . S
C594 C593 1.387 . S
C594 C597 1.387 . S
H595 C591 0.950 . S
H596 C593 0.950 . S
C597 C588 1.390 . S
C597 H590 0.950 . S
C597 C594 1.387 . S
C598 C599 1.387 . S
C598 H602 0.950 . S
C598 C607 1.390 . S
C599 C598 1.387 . S
C599 C601 1.387 . S
H600 C607 0.950 . S
C601 C599 1.387 . S
C601 C603 1.390 . S
C601 H605 0.950 . S
H602 C598 0.950 . S
C603 C601 1.390 . S
C603 C604 1.387 . S
C603 H606 0.950 . S
C604 C603 1.387 . S
C604 C607 1.387 . S
H605 C601 0.950 . S
H606 C603 0.950 . S
C607 C598 1.390 . S
C607 H600 0.950 . S
C607 C604 1.387 . S
C608 C609 1.387 . S
C608 H612 0.950 1_655 S
C608 C617 1.390 . S
C609 C608 1.387 . S
C609 C611 1.387 . S
H610 C617 0.950 1_455 S
C611 C609 1.387 . S
C611 C613 1.390 . S
C611 H615 0.950 . S
H612 C608 0.950 1_455 S
C613 C611 1.390 . S
C613 C614 1.387 . S
C613 H616 0.950 . S
C614 C613 1.387 . S
C614 C617 1.387 . S
H615 C611 0.950 . S
H616 C613 0.950 . S
C617 C608 1.390 . S
C617 H610 0.950 1_655 S
C617 C614 1.387 . S
C618 C619 1.387 1_545 S
C618 H622 0.950 . S
C618 C627 1.390 . S
C619 C618 1.387 1_565 S
C619 C621 1.387 . S
H620 C627 0.950 . S
C621 C619 1.387 . S
C621 C623 1.390 . S
C621 H625 0.950 . S
H622 C618 0.950 . S
C623 C621 1.390 . S
C623 C624 1.387 . S
C623 H626 0.950 . S
C624 C623 1.387 . S
C624 C627 1.387 1_565 S
H625 C621 0.950 . S
H626 C623 0.950 . S
C627 C618 1.390 . S
C627 H620 0.950 . S
C627 C624 1.387 1_545 S
C628 C629 1.387 . S
C628 H632 0.950 . S
C628 C637 1.390 . S
C629 C628 1.387 . S
C629 C631 1.387 . S
H630 C637 0.950 . S
C631 C629 1.387 . S
C631 C633 1.390 . S
C631 H635 0.950 . S
H632 C628 0.950 . S
C633 C631 1.390 . S
C633 C634 1.387 . S
C633 H636 0.950 . S
C634 C633 1.387 . S
C634 C637 1.387 . S
H635 C631 0.950 . S
H636 C633 0.950 . S
C637 C628 1.390 . S
C637 H630 0.950 . S
C637 C634 1.387 . S
C638 C639 1.387 . S
C638 H642 0.950 . S
C638 C647 1.390 . S
C639 C638 1.387 . S
C639 C641 1.387 . S
H640 C647 0.950 . S
C641 C639 1.387 . S
C641 C643 1.390 . S
C641 H645 0.950 . S
H642 C638 0.950 . S
C643 C641 1.390 . S
C643 C644 1.387 . S
C643 H646 0.950 . S
C644 C643 1.387 . S
C644 C647 1.387 . S
H645 C641 0.950 . S
H646 C643 0.950 . S
C647 C638 1.390 . S
C647 H640 0.950 . S
C647 C644 1.387 . S
C409 C61 2.008 . S
C414 C135 2.222 . S
C424 C212 2.228 . S
C419 C70 2.026 . S
C434 C303 2.224 . S
C429 C43 2.009 . S
C444 C387 2.212 . S
C439 C52 1.999 . S
C454 C146 2.223 1_565 S
C449 C25 2.013 . S
C459 C34 2.024 . S
C464 C223 2.228 1_554 S
C469 C7 2.011 . S
C474 C314 2.224 . S
C479 C16 2.001 . S
C484 C398 2.211 1_655 S
C494 C130 0.784 . S
C489 C50 0.779 . S
C504 C225 0.766 . S
C499 C59 0.765 . S
C514 C298 0.793 . S
C509 C67 0.789 . S
C519 C41 0.766 . S
C524 C382 0.775 . S
C529 C14 0.774 . S
C534 C141 0.783 . S
C544 C214 0.760 . S
C539 C23 0.762 . S
C554 C309 0.795 . S
C549 C31 0.788 . S
C559 C5 0.768 . S
C564 C393 0.776 . S
C569 C49 2.059 . S
C574 C139 2.343 . S
C579 C58 2.059 . S
C584 C230 2.365 . S
C594 C307 2.356 . S
C589 C68 2.071 . S
C604 C391 2.359 . S
C599 C40 2.073 . S
C609 C13 2.061 . S
C614 C128 2.343 . S
C624 C219 2.364 . S
C619 C22 2.063 . S
C634 C296 2.355 . S
C629 C32 2.067 . S
C639 C4 2.077 . S
C644 C380 2.360 . S
