# Generated by pormake.
# Topology pyr, (3,6)-cn, num edge types: 1
# Building blocks:
#     Node 0, Type 0, BuildingBlock: VETTIZ_charged_linker_0, # of connection points: 3
#     Node 1, Type 0, BuildingBlock: VETTIZ_charged_linker_0, # of connection points: 3
#     Node 2, Type 0, BuildingBlock: VETTIZ_charged_linker_0, # of connection points: 3
#     Node 3, Type 0, BuildingBlock: VETTIZ_charged_linker_0, # of connection points: 3
#     Node 4, Type 0, BuildingBlock: VETTIZ_charged_linker_0, # of connection points: 3
#     Node 5, Type 0, BuildingBlock: VETTIZ_charged_linker_0, # of connection points: 3
#     Node 6, Type 0, BuildingBlock: VETTIZ_charged_linker_0, # of connection points: 3
#     Node 7, Type 0, BuildingBlock: VETTIZ_charged_linker_0, # of connection points: 3
#     Node 8, Type 1, BuildingBlock: JUFBIX_clean_sbu_0, # of connection points: 6
#     Node 9, Type 1, BuildingBlock: JUFBIX_clean_sbu_0, # of connection points: 6
#     Node 10, Type 1, BuildingBlock: JUFBIX_clean_sbu_0, # of connection points: 6
#     Node 11, Type 1, BuildingBlock: JUFBIX_clean_sbu_0, # of connection points: 6
#     Edge 12, Type (0, 1), BuildingBlock: TEMPAE_clean_linker_10, # of connection points: 2
#     Edge 13, Type (0, 1), BuildingBlock: TEMPAE_clean_linker_10, # of connection points: 2
#     Edge 14, Type (0, 1), BuildingBlock: TEMPAE_clean_linker_10, # of connection points: 2
#     Edge 15, Type (0, 1), BuildingBlock: TEMPAE_clean_linker_10, # of connection points: 2
#     Edge 16, Type (0, 1), BuildingBlock: TEMPAE_clean_linker_10, # of connection points: 2
#     Edge 17, Type (0, 1), BuildingBlock: TEMPAE_clean_linker_10, # of connection points: 2
#     Edge 18, Type (0, 1), BuildingBlock: TEMPAE_clean_linker_10, # of connection points: 2
#     Edge 19, Type (0, 1), BuildingBlock: TEMPAE_clean_linker_10, # of connection points: 2
#     Edge 20, Type (0, 1), BuildingBlock: TEMPAE_clean_linker_10, # of connection points: 2
#     Edge 21, Type (0, 1), BuildingBlock: TEMPAE_clean_linker_10, # of connection points: 2
#     Edge 22, Type (0, 1), BuildingBlock: TEMPAE_clean_linker_10, # of connection points: 2
#     Edge 23, Type (0, 1), BuildingBlock: TEMPAE_clean_linker_10, # of connection points: 2
#     Edge 24, Type (0, 1), BuildingBlock: TEMPAE_clean_linker_10, # of connection points: 2
#     Edge 25, Type (0, 1), BuildingBlock: TEMPAE_clean_linker_10, # of connection points: 2
#     Edge 26, Type (0, 1), BuildingBlock: TEMPAE_clean_linker_10, # of connection points: 2
#     Edge 27, Type (0, 1), BuildingBlock: TEMPAE_clean_linker_10, # of connection points: 2
#     Edge 28, Type (0, 1), BuildingBlock: TEMPAE_clean_linker_10, # of connection points: 2
#     Edge 29, Type (0, 1), BuildingBlock: TEMPAE_clean_linker_10, # of connection points: 2
#     Edge 30, Type (0, 1), BuildingBlock: TEMPAE_clean_linker_10, # of connection points: 2
#     Edge 31, Type (0, 1), BuildingBlock: TEMPAE_clean_linker_10, # of connection points: 2
#     Edge 32, Type (0, 1), BuildingBlock: TEMPAE_clean_linker_10, # of connection points: 2
#     Edge 33, Type (0, 1), BuildingBlock: TEMPAE_clean_linker_10, # of connection points: 2
#     Edge 34, Type (0, 1), BuildingBlock: TEMPAE_clean_linker_10, # of connection points: 2
#     Edge 35, Type (0, 1), BuildingBlock: TEMPAE_clean_linker_10, # of connection points: 2
# Relax obj value: 0.046
# Max RMSD: 0.093
# Mean RMSD: 0.031
data_MOF--net-pry--node1-JUFBIX_clean_sbu_0--node2-VETTIZ_charged_linker_0--edge1-TEMPAE_clean_linker_10
_symmetry_space_group_name_H-M    P1
_symmetry_Int_Tables_number       1
_symmetry_cell_setting            triclinic
loop_
_symmetry_equiv_pos_as_xyz
'x, y, z'
_cell_length_a     46.139871
_cell_length_b     44.03909
_cell_length_c     46.180278
_cell_angle_alpha  85.435138
_cell_angle_beta   90.154234
_cell_angle_gamma 91.506957
loop_
_atom_site_label
_atom_site_type_symbol
_atom_site_fract_x
_atom_site_fract_y
_atom_site_fract_z
_atom_type_partial_charge
C0 C 0.15862 0.10385 0.26023 0.0
C1 C 0.13403 0.11377 0.27472 0.0
C2 C 0.11934 0.13918 0.26193 0.0
C3 C 0.15357 0.14476 0.22181 0.0
C4 C 0.16806 0.11976 0.23398 0.0
C5 C 0.19416 0.11305 0.21598 0.0
H6 H 0.27895 0.14832 0.09636 0.0
C7 C 0.16897 0.1566 0.19481 0.0
C8 C 0.19295 0.13818 0.19124 0.0
H9 H 0.2896 0.0753 0.16365 0.0
H10 H 0.2473 0.09111 0.18828 0.0
H11 H 0.26443 0.19921 0.14063 0.0
H12 H 0.20785 0.14252 0.09189 0.0
H13 H 0.19611 0.1804 0.08786 0.0
H14 H 0.23145 0.17173 0.07487 0.0
H15 H 0.26001 0.20602 0.10204 0.0
H16 H 0.23549 0.22135 0.12721 0.0
C17 C 0.22162 0.11632 0.2349 0.0
C18 C 0.18942 0.08103 0.20495 0.0
C19 C 0.12965 0.24909 0.1351 0.0
C20 C 0.13955 0.26678 0.11014 0.0
C21 C 0.16543 0.25846 0.09694 0.0
C22 C 0.18092 0.23295 0.10811 0.0
C23 C 0.17075 0.21552 0.1331 0.0
C24 C 0.14562 0.22396 0.14627 0.0
C25 C 0.13869 0.20385 0.17341 0.0
C26 C 0.16345 0.18162 0.17419 0.0
C27 C 0.18214 0.18829 0.15038 0.0
C28 C 0.13982 0.2239 0.19956 0.0
C29 C 0.10899 0.18765 0.16894 0.0
C30 C 0.27241 0.13579 0.11649 0.0
C31 C 0.28794 0.11013 0.12764 0.0
C32 C 0.27805 0.09463 0.15393 0.0
C33 C 0.25344 0.10401 0.16846 0.0
C34 C 0.23816 0.12943 0.15692 0.0
C35 C 0.24782 0.14495 0.13138 0.0
C36 C 0.2291 0.17177 0.12253 0.0
C37 C 0.20646 0.16954 0.14664 0.0
C38 C 0.21185 0.14461 0.16687 0.0
C39 C 0.2481 0.20125 0.12285 0.0
C40 C 0.21543 0.16664 0.09263 0.0
H41 H 0.11652 0.17363 0.22745 0.0
H42 H 0.17058 0.08454 0.26938 0.0
H43 H 0.16644 0.07745 0.19839 0.0
H44 H 0.20228 0.07769 0.1854 0.0
H45 H 0.19457 0.06291 0.22217 0.0
H46 H 0.21977 0.13577 0.2487 0.0
H47 H 0.22485 0.09542 0.24955 0.0
H48 H 0.24145 0.12142 0.22193 0.0
H49 H 0.11015 0.25508 0.14611 0.0
H50 H 0.17355 0.27156 0.07767 0.0
H51 H 0.2003 0.2278 0.09688 0.0
H52 H 0.15567 0.24328 0.1957 0.0
H53 H 0.11834 0.23363 0.20348 0.0
H54 H 0.14739 0.21146 0.21979 0.0
H55 H 0.10691 0.18083 0.14632 0.0
H56 H 0.10602 0.16626 0.18289 0.0
H57 H 0.09085 0.2029 0.1728 0.0
H58 H 0.1001 0.14709 0.27209 0.0
C59 C 0.12886 0.15456 0.23578 0.0
C60 C 0.33906 0.92116 0.54159 0.0
C61 C 0.32536 0.94701 0.55059 0.0
C62 C 0.33904 0.96378 0.57181 0.0
C63 C 0.37648 0.92637 0.57799 0.0
C64 C 0.36438 0.9111 0.55572 0.0
C65 C 0.3799 0.88219 0.5512 0.0
H66 H 0.46601 0.77106 0.60698 0.0
C67 C 0.39967 0.90758 0.59143 0.0
C68 C 0.40189 0.88167 0.57585 0.0
H69 H 0.4237 0.77812 0.5229 0.0
H70 H 0.40768 0.82814 0.53149 0.0
H71 H 0.49406 0.84029 0.59788 0.0
H72 H 0.41848 0.80181 0.64311 0.0
H73 H 0.43496 0.82803 0.66515 0.0
H74 H 0.45461 0.79518 0.65623 0.0
H75 H 0.49647 0.81655 0.6312 0.0
H76 H 0.49186 0.85713 0.63102 0.0
C77 C 0.39471 0.88574 0.52097 0.0
C78 C 0.35766 0.8552 0.55507 0.0
C79 C 0.44358 0.93629 0.68659 0.0
C80 C 0.46004 0.92021 0.70815 0.0
C81 C 0.47066 0.89151 0.70238 0.0
C82 C 0.4642 0.87874 0.67617 0.0
C83 C 0.44651 0.89452 0.65557 0.0
C84 C 0.43666 0.92287 0.66093 0.0
C85 C 0.41608 0.93527 0.63793 0.0
C86 C 0.41575 0.90997 0.61744 0.0
C87 C 0.43371 0.88624 0.62778 0.0
C88 C 0.42956 0.96517 0.6233 0.0
C89 C 0.38604 0.93897 0.65231 0.0
C90 C 0.45354 0.78333 0.59019 0.0
C91 C 0.44555 0.76992 0.56451 0.0
C92 C 0.42933 0.78715 0.54337 0.0
C93 C 0.42021 0.81638 0.54822 0.0
C94 C 0.4274 0.8288 0.57441 0.0
C95 C 0.44467 0.81283 0.59441 0.0
C96 C 0.45207 0.83081 0.61993 0.0
C97 C 0.43599 0.85998 0.61205 0.0
C98 C 0.42092 0.85824 0.58575 0.0
C99 C 0.48534 0.83644 0.62036 0.0
C100 C 0.43965 0.81314 0.64771 0.0
H101 H 0.37343 0.96696 0.60192 0.0
H102 H 0.32948 0.90819 0.52487 0.0
H103 H 0.34469 0.85668 0.57516 0.0
H104 H 0.36777 0.83276 0.55725 0.0
H105 H 0.34243 0.8554 0.53639 0.0
H106 H 0.39796 0.91011 0.513 0.0
H107 H 0.38151 0.87461 0.50446 0.0
H108 H 0.41676 0.87632 0.52152 0.0
H109 H 0.43527 0.95851 0.68993 0.0
H110 H 0.48301 0.87823 0.71859 0.0
H111 H 0.47244 0.8566 0.67339 0.0
H112 H 0.45309 0.9626 0.61924 0.0
H113 H 0.42726 0.98428 0.63737 0.0
H114 H 0.41994 0.97165 0.60182 0.0
H115 H 0.38391 0.92524 0.67353 0.0
H116 H 0.36785 0.93062 0.63919 0.0
H117 H 0.38241 0.96308 0.65644 0.0
H118 H 0.32908 0.98369 0.57936 0.0
C119 C 0.36462 0.95375 0.58532 0.0
C120 C 0.64946 0.25816 0.89273 0.0
C121 C 0.62495 0.24406 0.88093 0.0
C122 C 0.61359 0.25624 0.85435 0.0
C123 C 0.65037 0.29682 0.85204 0.0
C124 C 0.66196 0.28433 0.87781 0.0
C125 C 0.68878 0.30165 0.88657 0.0
H126 H 0.77802 0.4261 0.86669 0.0
C127 C 0.66789 0.32449 0.8425 0.0
C128 C 0.6905 0.32743 0.86256 0.0
H129 H 0.78694 0.34698 0.92799 0.0
H130 H 0.74394 0.32443 0.90904 0.0
H131 H 0.70759 0.43028 0.86699 0.0
H132 H 0.7654 0.38414 0.81278 0.0
H133 H 0.73852 0.40148 0.79062 0.0
H134 H 0.76306 0.4249 0.81026 0.0
H135 H 0.73189 0.45052 0.84149 0.0
H136 H 0.69674 0.43681 0.83047 0.0
C137 C 0.6832 0.31362 0.9166 0.0
C138 C 0.71499 0.28033 0.88589 0.0
C139 C 0.63794 0.38916 0.75186 0.0
C140 C 0.6483 0.41699 0.73816 0.0
C141 C 0.67187 0.43219 0.75083 0.0
C142 C 0.68512 0.41963 0.77637 0.0
C143 C 0.67469 0.39155 0.78957 0.0
C144 C 0.65127 0.37703 0.77737 0.0
C145 C 0.64233 0.34796 0.79467 0.0
C146 C 0.66464 0.34692 0.81891 0.0
C147 C 0.68369 0.37244 0.81588 0.0
C148 C 0.61119 0.35171 0.80618 0.0
C149 C 0.64555 0.32126 0.77507 0.0
C150 C 0.77111 0.4038 0.87604 0.0
C151 C 0.78614 0.38904 0.89972 0.0
C152 C 0.77566 0.3599 0.91074 0.0
C153 C 0.75071 0.3464 0.89938 0.0
C154 C 0.736 0.36158 0.87612 0.0
C155 C 0.7466 0.38947 0.86436 0.0
C156 C 0.72946 0.40089 0.83797 0.0
C157 C 0.70666 0.37546 0.83625 0.0
C158 C 0.71033 0.35277 0.85907 0.0
C159 C 0.71575 0.43135 0.84428 0.0
C160 C 0.75003 0.40326 0.8114 0.0
H161 H 0.61624 0.29087 0.81982 0.0
H162 H 0.65882 0.24883 0.91296 0.0
H163 H 0.71079 0.26147 0.87164 0.0
H164 H 0.73467 0.29232 0.87664 0.0
H165 H 0.72004 0.2698 0.90793 0.0
H166 H 0.66168 0.32442 0.91692 0.0
H167 H 0.6833 0.29469 0.93401 0.0
H168 H 0.69922 0.3312 0.92227 0.0
H169 H 0.61951 0.37717 0.74312 0.0
H170 H 0.68035 0.45362 0.74072 0.0
H171 H 0.70301 0.43224 0.78486 0.0
H172 H 0.60778 0.37558 0.81143 0.0
H173 H 0.59469 0.34607 0.78975 0.0
H174 H 0.60664 0.33781 0.82669 0.0
H175 H 0.66453 0.32532 0.76032 0.0
H176 H 0.64977 0.29935 0.78752 0.0
H177 H 0.62602 0.31851 0.76131 0.0
H178 H 0.59478 0.24551 0.84494 0.0
C179 C 0.62607 0.28259 0.8399 0.0
C180 C 0.97557 0.71782 0.44301 0.0
C181 C 0.96882 0.72847 0.47009 0.0
C182 C 0.95044 0.71025 0.4892 0.0
C183 C 0.9438 0.67352 0.45322 0.0
C184 C 0.9632 0.69028 0.43526 0.0
C185 C 0.96831 0.6758 0.40739 0.0
H186 H 0.93473 0.56441 0.3194 0.0
C187 C 0.93344 0.64709 0.43794 0.0
C188 C 0.94828 0.64792 0.41135 0.0
H189 H 0.99591 0.63975 0.30333 0.0
H190 H 0.98609 0.65667 0.35086 0.0
H191 H 0.95093 0.54753 0.38918 0.0
H192 H 0.88794 0.60058 0.34111 0.0
H193 H 0.87078 0.58966 0.37421 0.0
H194 H 0.88155 0.56084 0.35101 0.0
H195 H 0.92178 0.53206 0.36861 0.0
H196 H 0.91699 0.53981 0.40603 0.0
C197 C 1.0006 0.66711 0.40641 0.0
C198 C 0.95863 0.69823 0.38183 0.0
C199 C 0.84439 0.58544 0.47448 0.0
C200 C 0.82743 0.56275 0.46206 0.0
C201 C 0.83844 0.54921 0.43783 0.0
C202 C 0.86476 0.55937 0.42509 0.0
C203 C 0.88018 0.58371 0.43629 0.0
C204 C 0.87048 0.59575 0.46111 0.0
C205 C 0.88961 0.62192 0.46949 0.0
C206 C 0.91129 0.6246 0.44458 0.0
C207 C 0.90553 0.60216 0.42526 0.0
C208 C 0.90426 0.6125 0.49897 0.0
C209 C 0.8708 0.65051 0.46982 0.0
C210 C 0.94643 0.58419 0.32642 0.0
C211 C 0.96633 0.60063 0.3079 0.0
C212 C 0.9805 0.62678 0.31736 0.0
C213 C 0.97478 0.63648 0.34493 0.0
C214 C 0.95434 0.6201 0.36303 0.0
C215 C 0.94061 0.59441 0.35364 0.0
C216 C 0.91818 0.58097 0.37477 0.0
C217 C 0.92123 0.60235 0.39885 0.0
C218 C 0.94243 0.62516 0.3919 0.0
C219 C 0.92715 0.54826 0.38519 0.0
C220 C 0.88804 0.58284 0.35966 0.0
H221 H 0.92374 0.67037 0.49614 0.0
H222 H 0.98945 0.73102 0.4276 0.0
H223 H 0.93903 0.71054 0.38778 0.0
H224 H 0.95223 0.68675 0.36232 0.0
H225 H 0.97596 0.71556 0.37583 0.0
H226 H 1.00876 0.65996 0.42855 0.0
H227 H 0.01441 0.68672 0.39757 0.0
H228 H 1.00422 0.6474 0.39363 0.0
H229 H 0.8369 0.59589 0.49344 0.0
H230 H 0.82594 0.5319 0.42754 0.0
H231 H 0.87144 0.54873 0.40621 0.0
H232 H 0.90618 0.58734 0.50242 0.0
H233 H 0.89162 0.62004 0.51742 0.0
H234 H 0.9268 0.62156 0.50012 0.0
H235 H 0.85715 0.65302 0.44992 0.0
H236 H 0.88361 0.67192 0.47016 0.0
H237 H 0.85613 0.64874 0.48894 0.0
H238 H 0.94548 0.71723 0.51055 0.0
C239 C 0.93791 0.68292 0.48089 0.0
C240 C 0.87039 0.76142 0.9083 0.0
C241 C 0.89665 0.74889 0.89993 0.0
C242 C 0.91108 0.76245 0.8751 0.0
C243 C 0.87352 0.79999 0.8674 0.0
C244 C 0.85945 0.78708 0.89196 0.0
C245 C 0.8326 0.80425 0.89846 0.0
H246 H 0.74059 0.9199 0.86291 0.0
C247 C 0.8566 0.82638 0.85527 0.0
C248 C 0.83267 0.8292 0.87356 0.0
H249 H 0.73701 0.85378 0.93742 0.0
H250 H 0.77991 0.83058 0.92103 0.0
H251 H 0.75962 0.87192 0.81562 0.0
H252 H 0.81116 0.9323 0.86564 0.0
H253 H 0.82392 0.93493 0.82961 0.0
H254 H 0.78759 0.94634 0.83687 0.0
H255 H 0.75862 0.91265 0.80919 0.0
H256 H 0.78603 0.89105 0.79299 0.0
C257 C 0.80608 0.78218 0.89693 0.0
C258 C 0.83685 0.81751 0.92832 0.0
C259 C 0.88993 0.88482 0.76088 0.0
C260 C 0.87941 0.91018 0.74381 0.0
C261 C 0.85422 0.924 0.75342 0.0
C262 C 0.83983 0.91276 0.77914 0.0
C263 C 0.85062 0.88736 0.79583 0.0
C264 C 0.87538 0.87396 0.78656 0.0
C265 C 0.88421 0.84753 0.8071 0.0
C266 C 0.86056 0.8469 0.83004 0.0
C267 C 0.84076 0.87027 0.82345 0.0
C268 C 0.88308 0.81847 0.79027 0.0
C269 C 0.91446 0.85528 0.81972 0.0
C270 C 0.74911 0.90057 0.87585 0.0
C271 C 0.73477 0.88869 0.90153 0.0
C272 C 0.74686 0.86324 0.91732 0.0
C273 C 0.7721 0.84983 0.90787 0.0
C274 C 0.786 0.86183 0.88225 0.0
C275 C 0.77453 0.88686 0.86669 0.0
C276 C 0.7925 0.89653 0.84001 0.0
C277 C 0.8166 0.87337 0.84227 0.0
C278 C 0.8126 0.85298 0.86713 0.0
C279 C 0.77331 0.89313 0.81288 0.0
C280 C 0.80437 0.92933 0.84288 0.0
H281 H 0.91177 0.79665 0.84011 0.0
H282 H 0.85892 0.75182 0.92747 0.0
H283 H 0.86003 0.82378 0.93195 0.0
H284 H 0.8252 0.83888 0.93003 0.0
H285 H 0.82999 0.80071 0.94637 0.0
H286 H 0.80818 0.76784 0.87831 0.0
H287 H 0.80417 0.76668 0.91706 0.0
H288 H 0.78548 0.79406 0.89325 0.0
H289 H 0.90942 0.87384 0.75463 0.0
H290 H 0.84533 0.94334 0.74077 0.0
H291 H 0.82077 0.92428 0.78504 0.0
H292 H 0.86375 0.81837 0.7758 0.0
H293 H 0.90262 0.81724 0.77646 0.0
H294 H 0.88092 0.79725 0.80458 0.0
H295 H 0.91758 0.88027 0.82112 0.0
H296 H 0.91737 0.84536 0.84226 0.0
H297 H 0.93212 0.84767 0.80593 0.0
H298 H 0.93117 0.75322 0.868 0.0
C299 C 0.89968 0.78768 0.85882 0.0
C300 C 0.68538 0.08801 0.47567 0.0
C301 C 0.69894 0.06209 0.46666 0.0
C302 C 0.68515 0.04539 0.44545 0.0
C303 C 0.64784 0.08294 0.43936 0.0
C304 C 0.66006 0.09818 0.46159 0.0
C305 C 0.64466 0.12716 0.46614 0.0
H306 H 0.55819 0.23827 0.41086 0.0
C307 C 0.62464 0.1018 0.42601 0.0
C308 C 0.62257 0.12773 0.44159 0.0
H309 H 0.60136 0.23151 0.49449 0.0
H310 H 0.61734 0.18147 0.48586 0.0
H311 H 0.5303 0.16901 0.42024 0.0
H312 H 0.60541 0.20772 0.3744 0.0
H313 H 0.589 0.18129 0.35255 0.0
H314 H 0.56918 0.21404 0.36145 0.0
H315 H 0.52759 0.19277 0.38697 0.0
H316 H 0.53222 0.1522 0.38707 0.0
C317 C 0.62998 0.12369 0.49644 0.0
C318 C 0.66698 0.15406 0.46215 0.0
C319 C 0.58002 0.07308 0.33115 0.0
C320 C 0.56346 0.0892 0.3097 0.0
C321 C 0.55292 0.11791 0.31556 0.0
C322 C 0.55957 0.13066 0.34173 0.0
C323 C 0.57737 0.11486 0.36221 0.0
C324 C 0.58714 0.08649 0.35677 0.0
C325 C 0.60786 0.07408 0.37965 0.0
C326 C 0.60838 0.0994 0.40012 0.0
C327 C 0.59038 0.12313 0.3899 0.0
C328 C 0.59444 0.0442 0.39438 0.0
C329 C 0.63778 0.07034 0.36505 0.0
C330 C 0.57083 0.22606 0.42754 0.0
C331 C 0.57906 0.23953 0.45311 0.0
C332 C 0.59552 0.2224 0.47411 0.0
C333 C 0.60462 0.19316 0.46924 0.0
C334 C 0.59715 0.18065 0.44316 0.0
C335 C 0.57969 0.19657 0.42329 0.0
C336 C 0.5721 0.17855 0.39784 0.0
C337 C 0.58825 0.14941 0.40562 0.0
C338 C 0.60352 0.15119 0.4318 0.0
C339 C 0.53882 0.17288 0.39769 0.0
C340 C 0.58429 0.19622 0.36995 0.0
H341 H 0.65069 0.04235 0.4154 0.0
H342 H 0.69503 0.10095 0.49237 0.0
H343 H 0.67993 0.15245 0.44207 0.0
H344 H 0.65695 0.17654 0.45986 0.0
H345 H 0.68223 0.15389 0.48081 0.0
H346 H 0.62646 0.09933 0.50431 0.0
H347 H 0.64341 0.13457 0.51293 0.0
H348 H 0.60805 0.13339 0.49602 0.0
H349 H 0.58828 0.05086 0.32776 0.0
H350 H 0.54049 0.13121 0.29944 0.0
H351 H 0.55138 0.1528 0.34456 0.0
H352 H 0.57093 0.0468 0.39858 0.0
H353 H 0.59662 0.02508 0.3803 0.0
H354 H 0.60418 0.03773 0.41579 0.0
H355 H 0.63982 0.08417 0.34388 0.0
H356 H 0.65609 0.07856 0.3781 0.0
H357 H 0.6413 0.04624 0.36079 0.0
H358 H 0.69502 0.02543 0.43788 0.0
C359 C 0.65959 0.05553 0.43199 0.0
C360 C 0.39102 0.61599 0.26277 0.0
C361 C 0.37749 0.59166 0.27956 0.0
C362 C 0.35001 0.58082 0.27099 0.0
C363 C 0.35023 0.61809 0.22919 0.0
C364 C 0.37692 0.62905 0.23804 0.0
C365 C 0.38763 0.65624 0.21889 0.0
H366 H 0.36621 0.76004 0.10503 0.0
C367 C 0.3415 0.63696 0.20265 0.0
C368 C 0.36326 0.65957 0.19679 0.0
H369 H 0.43898 0.75436 0.16415 0.0
H370 H 0.41772 0.70907 0.18925 0.0
H371 H 0.31538 0.74175 0.15324 0.0
H372 H 0.36351 0.68988 0.09556 0.0
H373 H 0.32848 0.67343 0.09771 0.0
H374 H 0.33351 0.71246 0.08301 0.0
H375 H 0.31132 0.74553 0.11444 0.0
H376 H 0.29093 0.71709 0.13664 0.0
C377 C 0.39004 0.68387 0.23766 0.0
C378 C 0.41648 0.64793 0.20474 0.0
C379 C 0.24877 0.61071 0.14822 0.0
C380 C 0.23561 0.62379 0.12273 0.0
C381 C 0.24894 0.64993 0.10823 0.0
C382 C 0.27466 0.66274 0.11873 0.0
C383 C 0.28755 0.64938 0.14406 0.0
C384 C 0.27462 0.6238 0.15841 0.0
C385 C 0.29152 0.61279 0.18506 0.0
C386 C 0.31701 0.63552 0.18388 0.0
C387 C 0.31444 0.65702 0.15987 0.0
C388 C 0.27225 0.61551 0.2121 0.0
C389 C 0.30131 0.58003 0.18115 0.0
C390 C 0.37738 0.74914 0.12355 0.0
C391 C 0.40425 0.76092 0.13273 0.0
C392 C 0.41838 0.74568 0.15655 0.0
C393 C 0.40589 0.71944 0.1712 0.0
C394 C 0.37895 0.70804 0.16195 0.0
C395 C 0.3653 0.72266 0.13829 0.0
C396 C 0.33737 0.70653 0.13085 0.0
C397 C 0.3361 0.68039 0.15446 0.0
C398 C 0.36046 0.68149 0.17268 0.0
C399 C 0.31229 0.72878 0.1337 0.0
C400 C 0.34058 0.69507 0.10014 0.0
H401 H 0.31561 0.58434 0.24031 0.0
H402 H 0.41189 0.62516 0.26915 0.0
H403 H 0.41591 0.62367 0.19954 0.0
H404 H 0.42076 0.6611 0.18376 0.0
H405 H 0.43512 0.65116 0.21955 0.0
H406 H 0.37262 0.68275 0.25436 0.0
H407 H 0.41118 0.68446 0.24921 0.0
H408 H 0.38713 0.70591 0.225 0.0
H409 H 0.23905 0.59088 0.16016 0.0
H410 H 0.23972 0.66028 0.08835 0.0
H411 H 0.28359 0.68255 0.10658 0.0
H412 H 0.25766 0.6352 0.20878 0.0
H413 H 0.25841 0.59468 0.21678 0.0
H414 H 0.28498 0.61997 0.23168 0.0
H415 H 0.30956 0.57834 0.15873 0.0
H416 H 0.31927 0.57288 0.19572 0.0
H417 H 0.28294 0.56335 0.18476 0.0
H418 H 0.33919 0.56212 0.28368 0.0
C419 C 0.33641 0.59374 0.24581 0.0
C420 C 0.03889 0.29237 0.58077 0.0
C421 C 0.04787 0.27822 0.55614 0.0
C422 C 0.07077 0.29198 0.53912 0.0
C423 C 0.07682 0.33135 0.57258 0.0
C424 C 0.05382 0.31849 0.58875 0.0
C425 C 0.04904 0.33415 0.61604 0.0
H426 H 0.09692 0.43545 0.7088 0.0
C427 C 0.0891 0.35688 0.588 0.0
C428 C 0.07283 0.35864 0.61348 0.0
H429 H 0.02442 0.37156 0.72037 0.0
H430 H 0.03131 0.35625 0.67167 0.0
H431 H 0.08185 0.46009 0.6449 0.0
H432 H 0.13888 0.39076 0.67955 0.0
H433 H 0.15773 0.4125 0.6518 0.0
H434 H 0.14523 0.43075 0.68273 0.0
H435 H 0.11749 0.46933 0.65762 0.0
H436 H 0.11096 0.46098 0.62042 0.0
C437 C 0.01852 0.34797 0.61452 0.0
C438 C 0.05374 0.31062 0.64236 0.0
C439 C 0.18147 0.41302 0.55132 0.0
C440 C 0.19876 0.43615 0.56265 0.0
C441 C 0.18862 0.45019 0.58696 0.0
C442 C 0.16262 0.44047 0.60057 0.0
C443 C 0.14659 0.41611 0.59015 0.0
C444 C 0.15551 0.40342 0.56538 0.0
C445 C 0.13537 0.37785 0.55752 0.0
C446 C 0.11334 0.37699 0.58205 0.0
C447 C 0.1204 0.39917 0.60126 0.0
C448 C 0.12151 0.38723 0.52768 0.0
C449 C 0.15295 0.34827 0.55834 0.0
C450 C 0.08262 0.41802 0.70089 0.0
C451 C 0.06047 0.40425 0.71854 0.0
C452 C 0.04175 0.38236 0.70717 0.0
C453 C 0.04591 0.37341 0.67899 0.0
C454 C 0.06909 0.38644 0.66211 0.0
C455 C 0.08655 0.40881 0.67298 0.0
C456 C 0.11008 0.42027 0.65222 0.0
C457 C 0.10435 0.40058 0.62725 0.0
C458 C 0.08049 0.38065 0.6332 0.0
C459 C 0.10514 0.45448 0.64336 0.0
C460 C 0.13963 0.41351 0.66718 0.0
H461 H 0.10267 0.32746 0.53354 0.0
H462 H 0.02119 0.2828 0.5942 0.0
H463 H 0.07088 0.2944 0.63765 0.0
H464 H 0.0615 0.32108 0.66197 0.0
H465 H 0.03356 0.29705 0.64774 0.0
H466 H 0.01354 0.35734 0.59202 0.0
H467 H 1.00151 0.33046 0.62106 0.0
H468 H 0.01659 0.3674 0.62805 0.0
H469 H 0.18839 0.40201 0.53246 0.0
H470 H 0.2015 0.46775 0.59647 0.0
H471 H 0.15661 0.45158 0.6194 0.0
H472 H 0.11712 0.41203 0.52556 0.0
H473 H 0.13613 0.38249 0.5096 0.0
H474 H 0.10023 0.37587 0.52461 0.0
H475 H 0.16918 0.34764 0.57623 0.0
H476 H 0.13945 0.32739 0.56282 0.0
H477 H 0.16487 0.34671 0.53767 0.0
H478 H 0.07857 0.28154 0.52029 0.0
C479 C 0.08507 0.31854 0.54707 0.0
Co480 Co 0.99113 0.00657 0.49769 0.0
C481 C 0.01369 0.94822 0.49863 0.0
Co482 Co 0.03289 1.00115 0.52031 0.0
C483 C 0.93078 0.01911 0.48827 0.0
C484 C 0.94982 0.99917 0.4523 0.0
N485 N 0.95607 0.00912 0.47851 0.0
N486 N 0.90887 0.01563 0.46926 0.0
C487 C 0.92087 1.00314 0.44655 0.0
H488 H 0.92854 0.02852 0.50907 0.0
H489 H 0.96519 0.98893 0.43861 0.0
C490 C 1.0106 0.05958 0.51921 0.0
N491 N 0.06798 0.99866 0.53944 0.0
C492 C 0.09323 0.98856 0.5297 0.0
C493 C 0.07433 0.00893 0.5655 0.0
N494 N 0.11522 0.99229 0.54857 0.0
C495 C 0.10331 1.00503 0.57118 0.0
C496 C 0.03878 0.02008 0.46098 0.0
O497 O 0.98922 0.04811 0.50607 0.0
O498 O 0.03157 0.0428 0.52722 0.0
O499 O 0.0528 0.01247 0.48411 0.0
O500 O 1.0112 0.01915 0.46203 0.0
O501 O 0.0341 0.95937 0.51332 0.0
H502 H 0.05904 0.01939 0.57909 0.0
H503 H 0.09541 0.97893 0.509 0.0
O504 O 0.99325 0.96516 0.48936 0.0
O505 O 0.97124 0.99395 0.53351 0.0
O506 O 0.0127 0.98994 0.55634 0.0
C507 C 0.98513 0.98775 0.557 0.0
H508 H 0.90943 0.99638 0.42752 0.0
H509 H 0.11484 0.01206 0.59006 0.0
Co510 Co 0.49849 1.0016 0.98919 0.0
C511 C 0.49391 0.95485 0.03441 0.0
Co512 Co 0.52407 0.00957 0.02824 0.0
C513 C 0.48506 0.99169 0.92952 0.0
C514 C 0.44903 0.98129 0.95808 0.0
N515 N 0.47651 0.99256 0.95737 0.0
N516 N 0.46416 0.97979 0.91303 0.0
C517 C 0.44143 0.97328 0.93087 0.0
H518 H 0.50673 0.99797 0.92187 0.0
H519 H 0.43584 0.97781 0.97746 0.0
C520 C 0.52898 0.05611 0.98296 0.0
N521 N 0.54609 0.01853 0.06004 0.0
C522 C 0.53751 0.0194 0.08787 0.0
C523 C 0.57368 0.02948 0.05941 0.0
N524 N 0.55852 0.031 0.10445 0.0
C525 C 0.58133 0.03733 0.08667 0.0
C526 C 0.55523 0.97977 0.9873 0.0
O527 O 0.51074 0.03981 0.96997 0.0
O528 O 0.5372 0.04704 1.00841 0.0
O529 O 0.55657 0.98944 0.01255 0.0
O530 O 0.53157 0.98261 0.97321 0.0
O531 O 0.51091 0.97205 0.04788 0.0
H532 H 0.58695 0.0328 0.04008 0.0
H533 H 0.5158 0.01327 0.09548 0.0
O534 O 0.48644 0.96333 1.00856 0.0
O535 O 0.46561 0.02072 1.00539 0.0
O536 O 0.49138 0.02961 0.04375 0.0
C537 C 0.46735 0.03146 0.03016 0.0
H538 H 0.42109 0.9627 0.92481 0.0
H539 H 0.60178 0.0476 0.09282 0.0
Co540 Co 0.53213 0.5142 0.49834 0.0
C541 C 0.48419 0.5165 0.46185 0.0
Co542 Co 0.49223 0.4951 0.51977 0.0
C543 C 0.59317 0.52251 0.48654 0.0
C544 C 0.56792 0.55467 0.46084 0.0
N545 N 0.56562 0.53074 0.48091 0.0
N546 N 0.61253 0.54038 0.47086 0.0
C547 C 0.59674 0.56055 0.45453 0.0
H548 H 0.59896 0.50388 0.502 0.0
H549 H 0.54985 0.56748 0.45188 0.0
C550 C 0.54032 0.49304 0.55636 0.0
N551 N 0.45892 0.47825 0.53741 0.0
C552 C 0.43103 0.48489 0.53137 0.0
C553 C 0.4575 0.4552 0.55847 0.0
N554 N 0.41235 0.46693 0.54787 0.0
C555 C 0.42893 0.4483 0.56504 0.0
C556 C 0.52439 0.45247 0.49365 0.0
O557 O 0.55308 0.50479 0.53366 0.0
O558 O 0.51319 0.48751 0.55526 0.0
O559 O 0.502 0.4562 0.50878 0.0
O560 O 0.54078 0.47531 0.48587 0.0
O561 O 0.47155 0.50288 0.48381 0.0
H562 H 0.47603 0.44361 0.568 0.0
H563 H 0.42452 0.50246 0.51511 0.0
O564 O 0.51094 0.52365 0.46348 0.0
O565 O 0.52317 0.55281 0.51064 0.0
O566 O 0.48276 0.53427 0.53091 0.0
C567 C 0.49997 0.5568 0.52443 0.0
H568 H 0.60546 0.57891 0.43985 0.0
H569 H 0.42095 0.4303 0.58053 0.0
Co570 Co 0.02264 0.50504 0.99074 0.0
C571 C 0.96665 0.48005 0.98974 0.0
Co572 Co 0.99922 0.50757 0.0319 0.0
C573 C 0.03907 0.48392 0.93579 0.0
C574 C 0.05963 0.52668 0.94343 0.0
N575 N 0.04184 0.50457 0.95575 0.0
N576 N 0.05409 0.49245 0.91132 0.0
C577 C 0.06722 0.51929 0.91616 0.0
H578 H 0.02519 0.46371 0.93862 0.0
H579 H 0.0659 0.54737 0.95323 0.0
C580 C 0.0552 0.53269 0.033 0.0
N581 N 0.97999 0.50835 0.0669 0.0
C582 C 0.98403 0.52851 0.08715 0.0
C583 C 0.96032 0.48776 0.07863 0.0
N584 N 0.96788 0.52122 0.11109 0.0
C585 C 0.95274 0.4957 0.10577 0.0
C586 C 0.03217 0.45463 0.02923 0.0
O587 O 0.0555 0.52564 1.00683 0.0
O588 O 0.03243 0.52674 0.04796 0.0
O589 O 0.01468 0.46832 0.04477 0.0
O590 O 0.03866 0.46669 1.00403 0.0
O591 O 0.96591 0.48851 0.01539 0.0
H592 H 0.95266 0.46773 0.06851 0.0
H593 H 0.99889 0.54797 0.08461 0.0
O594 O 0.98983 0.48437 0.97507 0.0
O595 O 1.00628 0.54345 0.97746 0.0
O596 O 0.98416 0.54672 0.01894 0.0
C597 C 0.98975 0.55794 0.99323 0.0
H598 H 0.08093 0.53292 0.90091 0.0
H599 H 0.93823 0.48296 0.12091 0.0
C600 C 0.12102 0.0663 0.3074 0.0
C601 C 0.1233 0.09822 0.303 0.0
C602 C 0.10863 0.05182 0.33304 0.0
C603 C 0.09841 0.06956 0.35508 0.0
C604 C 0.10155 0.10173 0.35111 0.0
C605 C 0.11383 0.11557 0.32527 0.0
C606 C 0.10572 0.01752 0.3362 0.0
C607 C 0.09136 0.12168 0.37398 0.0
C608 C 0.03872 0.03876 0.40787 0.0
C609 C 0.0543 0.03099 0.43347 0.0
C610 C 0.05284 0.05051 0.38215 0.0
C611 C 0.08343 0.05482 0.38177 0.0
C612 C 0.09935 0.04644 0.40738 0.0
C613 C 0.08467 0.03464 0.43279 0.0
C614 C 0.03489 0.05891 0.35548 0.0
C615 C 0.1319 0.05063 0.40816 0.0
H616 H 0.12805 0.05263 0.29035 0.0
H617 H 0.1159 0.14019 0.32244 0.0
H618 H 0.11572 0.00846 0.35688 0.0
H619 H 0.08243 0.01054 0.33706 0.0
H620 H 0.11604 0.00686 0.31795 0.0
H621 H 0.09644 0.14622 0.36822 0.0
H622 H 0.06757 0.11865 0.3769 0.0
H623 H 0.10164 0.11488 0.39517 0.0
H624 H 0.01531 0.03601 0.40796 0.0
H625 H 0.09703 0.02874 0.45234 0.0
H626 H 0.04297 0.04729 0.33675 0.0
H627 H 0.03697 0.08381 0.34965 0.0
H628 H 1.01156 0.05274 0.35875 0.0
H629 H 0.14191 0.03926 0.39021 0.0
H630 H 0.14134 0.04133 0.42908 0.0
H631 H 0.13783 0.07524 0.40487 0.0
C632 C 0.4893 0.9266 0.75359 0.0
C633 C 0.46395 0.93212 0.7373 0.0
C634 C 0.49192 0.93545 0.78207 0.0
C635 C 0.46892 0.95077 0.79432 0.0
C636 C 0.44386 0.9576 0.77761 0.0
C637 C 0.4415 0.94783 0.74955 0.0
C638 C 0.51881 0.92739 0.79942 0.0
C639 C 0.41899 0.97427 0.78975 0.0
C640 C 0.45549 0.9442 0.87545 0.0
C641 C 0.4667 0.97215 0.88351 0.0
C642 C 0.45719 0.93648 0.84667 0.0
C643 C 0.46982 0.95758 0.82532 0.0
C644 C 0.48157 0.98573 0.83342 0.0
C645 C 0.48016 0.99252 0.86259 0.0
C646 C 0.44499 0.90596 0.83905 0.0
C647 C 0.49464 0.00904 0.81116 0.0
H648 H 0.50699 0.91497 0.74426 0.0
H649 H 0.42152 0.9517 0.73763 0.0
H650 H 0.52846 0.94795 0.80843 0.0
H651 H 0.51294 0.91096 0.81809 0.0
H652 H 0.53546 0.91707 0.7862 0.0
H653 H 0.40245 0.98062 0.77297 0.0
H654 H 0.40831 0.95963 0.80748 0.0
H655 H 0.4271 0.99529 0.79918 0.0
H656 H 0.44557 0.92826 0.89182 0.0
H657 H 0.48873 0.01415 0.86896 0.0
H658 H 0.46146 0.89376 0.82729 0.0
H659 H 0.42609 0.90935 0.82436 0.0
H660 H 0.43793 0.89128 0.85857 0.0
H661 H 0.5117 0.99866 0.79858 0.0
H662 H 0.50423 0.02907 0.82123 0.0
H663 H 0.47766 0.01705 0.7955 0.0
C664 C 0.62781 0.46094 0.70704 0.0
C665 C 0.63439 0.42994 0.71084 0.0
C666 C 0.61335 0.47295 0.68195 0.0
C667 C 0.60545 0.45356 0.65999 0.0
C668 C 0.61265 0.4224 0.66344 0.0
C669 C 0.62691 0.41099 0.68879 0.0
C670 C 0.60593 0.50623 0.67924 0.0
C671 C 0.60494 0.40098 0.64048 0.0
C672 C 0.54258 0.47329 0.60881 0.0
C673 C 0.55698 0.48467 0.58333 0.0
C674 C 0.55807 0.4638 0.63405 0.0
C675 C 0.58879 0.46547 0.63386 0.0
C676 C 0.60346 0.47739 0.60835 0.0
C677 C 0.5874 0.48693 0.58346 0.0
C678 C 0.54154 0.45143 0.6608 0.0
C679 C 0.63615 0.47944 0.60713 0.0
H680 H 0.63328 0.47569 0.72406 0.0
H681 H 0.63229 0.38711 0.69135 0.0
H682 H 0.6148 0.51747 0.65868 0.0
H683 H 0.58204 0.50847 0.67842 0.0
H684 H 0.61452 0.51853 0.69766 0.0
H685 H 0.61302 0.37768 0.64592 0.0
H686 H 0.58105 0.39945 0.63786 0.0
H687 H 0.61416 0.40989 0.61922 0.0
H688 H 0.51911 0.4715 0.609 0.0
H689 H 0.59878 0.49563 0.5639 0.0
H690 H 0.54808 0.46413 0.67967 0.0
H691 H 0.54684 0.42721 0.66616 0.0
H692 H 0.5177 0.45296 0.65788 0.0
H693 H 0.6447 0.49268 0.62489 0.0
H694 H 0.64425 0.49033 0.58606 0.0
H695 H 0.64507 0.45626 0.61041 0.0
C696 C 0.9764 0.56077 0.2741 0.0
C697 C 0.97088 0.59124 0.27827 0.0
C698 C 0.97781 0.55079 0.24608 0.0
C699 C 0.97312 0.57172 0.22174 0.0
C700 C 0.96837 0.60273 0.22581 0.0
C701 C 0.9675 0.61218 0.2541 0.0
C702 C 0.98341 0.51765 0.24259 0.0
C703 C 0.96297 0.62561 0.20038 0.0
C704 C 0.99504 0.54806 0.14781 0.0
C705 C 0.96884 0.53571 0.13791 0.0
C706 C 0.9967 0.5604 0.17486 0.0
C707 C 0.97149 0.56066 0.19221 0.0
C708 C 0.9448 0.54906 0.18191 0.0
C709 C 0.94387 0.53651 0.15495 0.0
C710 C 0.02561 0.5722 0.18529 0.0
C711 C 0.91735 0.54938 0.1996 0.0
H712 H 0.97921 0.54466 0.29284 0.0
H713 H 0.96293 0.63568 0.25739 0.0
H714 H 0.96393 0.5067 0.23335 0.0
H715 H 1.00154 0.51562 0.22717 0.0
H716 H 0.98879 0.50489 0.26355 0.0
H717 H 0.96146 0.64918 0.20711 0.0
H718 H 0.98057 0.62517 0.18412 0.0
H719 H 0.94242 0.61949 0.18947 0.0
H720 H 0.01446 0.54709 0.13482 0.0
H721 H 0.92358 0.52726 0.14712 0.0
H722 H 0.0326 0.55781 0.20474 0.0
H723 H 0.02368 0.59575 0.19185 0.0
H724 H 0.04272 0.57215 0.16842 0.0
H725 H 0.91971 0.53473 0.2201 0.0
H726 H 0.89809 0.5411 0.18774 0.0
H727 H 0.91336 0.57282 0.20558 0.0
C728 C 0.33388 0.12026 0.09756 0.0
C729 C 0.31423 0.09944 0.11222 0.0
C730 C 0.3588 0.11041 0.0836 0.0
C731 C 0.36464 0.07888 0.08427 0.0
C732 C 0.34487 0.05774 0.09886 0.0
C733 C 0.32003 0.06818 0.11242 0.0
C734 C 0.37906 0.13385 0.06826 0.0
C735 C 0.35 0.02394 0.10027 0.0
C736 C 0.41537 0.04859 0.02797 0.0
C737 C 0.44144 0.04485 0.04354 0.0
C738 C 0.39052 0.06008 0.04071 0.0
C739 C 0.3914 0.06791 0.06993 0.0
C740 C 0.41773 0.06443 0.08567 0.0
C741 C 0.44232 0.05311 0.07234 0.0
C742 C 0.36316 0.06354 0.02291 0.0
C743 C 0.41982 0.0722 0.11687 0.0
H744 H 0.33011 0.14445 0.09739 0.0
H745 H 0.30495 0.05164 0.12302 0.0
H746 H 0.40085 0.13262 0.07844 0.0
H747 H 0.38163 0.12896 0.04522 0.0
H748 H 0.37121 0.15741 0.06896 0.0
H749 H 0.33279 0.0104 0.1126 0.0
H750 H 0.35094 0.01626 0.078 0.0
H751 H 0.37121 0.01897 0.11075 0.0
H752 H 0.41429 0.04236 1.00575 0.0
H753 H 0.46218 0.05029 0.08473 0.0
H754 H 0.3558 0.08735 0.02243 0.0
H755 H 0.3456 0.04867 0.03307 0.0
H756 H 0.36619 0.05755 1.00022 0.0
H757 H 0.4139 0.09624 0.11858 0.0
H758 H 0.44192 0.06888 0.126 0.0
H759 H 0.40421 0.0577 0.13039 0.0
C760 C 0.28637 0.98445 0.5375 0.0
C761 C 0.29528 0.95417 0.54117 0.0
C762 C 0.25691 0.99125 0.53458 0.0
C763 C 0.23593 0.96718 0.53504 0.0
C764 C 0.24495 0.93665 0.5363 0.0
C765 C 0.27449 0.9305 0.53953 0.0
C766 C 0.24814 0.02412 0.53318 0.0
C767 C 0.22328 0.91034 0.53648 0.0
C768 C 0.16321 0.98006 0.56927 0.0
C769 C 0.14535 0.98552 0.54491 0.0
C770 C 0.1927 0.97428 0.56624 0.0
C771 C 0.20469 0.97364 0.53811 0.0
C772 C 0.18682 0.97884 0.51337 0.0
C773 C 0.15736 0.98483 0.51705 0.0
C774 C 0.21105 0.96883 0.59322 0.0
C775 C 0.19884 0.97815 0.48306 0.0
H776 H 0.30233 1.00288 0.53815 0.0
H777 H 0.281 0.907 0.54263 0.0
H778 H 0.23191 0.02883 0.51575 0.0
H779 H 0.23788 0.02875 0.55403 0.0
H780 H 0.26699 0.04014 0.52926 0.0
H781 H 0.23383 0.88848 0.53324 0.0
H782 H 0.21178 0.90789 0.55765 0.0
H783 H 0.20673 0.91461 0.51927 0.0
H784 H 0.15408 0.98005 0.59084 0.0
H785 H 0.14388 0.98944 0.49808 0.0
H786 H 0.22946 0.98559 0.59271 0.0
H787 H 0.22034 0.9458 0.59396 0.0
H788 H 0.1985 0.97067 0.61347 0.0
H789 H 0.21663 0.99546 0.47947 0.0
H790 H 0.18204 0.9826 0.46607 0.0
H791 H 0.2082 0.9556 0.48039 0.0
C792 C 0.8309 0.42413 0.8961 0.0
C793 C 0.81266 0.4034 0.91276 0.0
C794 C 0.85574 0.43751 0.90821 0.0
C795 C 0.86348 0.42911 0.93741 0.0
C796 C 0.84555 0.40801 0.95426 0.0
C797 C 0.82014 0.39612 0.94205 0.0
C798 C 0.87366 0.46075 0.88974 0.0
C799 C 0.85331 0.39772 0.98524 0.0
C800 C 0.9424 0.44185 0.9597 0.0
C801 C 0.94042 0.46677 0.97658 0.0
C802 C 0.91752 0.42909 0.94717 0.0
C803 C 0.8902 0.44246 0.95048 0.0
C804 C 0.88833 0.46822 0.96689 0.0
C805 C 0.91334 0.47962 0.98027 0.0
C806 C 0.92038 0.40093 0.93087 0.0
C807 C 0.85999 0.48402 0.97 0.0
H808 H 0.82611 0.42981 0.8734 0.0
H809 H 0.80613 0.38109 0.95577 0.0
H810 H 0.87655 0.48194 0.90105 0.0
H811 H 0.89556 0.45191 0.88627 0.0
H812 H 0.8636 0.46656 0.86819 0.0
H813 H 0.83828 0.37951 0.99476 0.0
H814 H 0.8757 0.38906 0.98621 0.0
H815 H 0.8528 0.41727 0.99893 0.0
H816 H 0.96335 0.43189 0.9569 0.0
H817 H 0.91188 0.4992 0.99298 0.0
H818 H 0.91348 0.40567 0.90798 0.0
H819 H 0.9059 0.38239 0.94068 0.0
H820 H 0.94295 0.39273 0.93108 0.0
H821 H 0.85067 0.49029 0.94822 0.0
H822 H 0.86257 0.50495 0.98179 0.0
H823 H 0.84411 0.46838 0.98191 0.0
C824 C 0.78472 0.52648 0.47055 0.0
C825 C 0.79699 0.55589 0.47161 0.0
C826 C 0.75472 0.52114 0.47376 0.0
C827 C 0.73667 0.54571 0.47861 0.0
C828 C 0.74918 0.57488 0.48209 0.0
C829 C 0.77913 0.57968 0.47833 0.0
C830 C 0.7422 0.48969 0.46995 0.0
C831 C 0.7307 0.60158 0.48775 0.0
C832 C 0.66047 0.54734 0.44785 0.0
C833 C 0.64363 0.53962 0.47263 0.0
C834 C 0.69081 0.54839 0.44942 0.0
C835 C 0.70463 0.54198 0.47657 0.0
C836 C 0.68776 0.53356 0.50162 0.0
C837 C 0.6574 0.5323 0.49931 0.0
C838 C 0.70804 0.55699 0.42209 0.0
C839 C 0.70168 0.52694 0.53098 0.0
H840 H 0.79841 0.50781 0.46601 0.0
H841 H 0.78819 0.60257 0.47892 0.0
H842 H 0.7264 0.48269 0.48743 0.0
H843 H 0.73035 0.48996 0.44899 0.0
H844 H 0.75926 0.47235 0.46996 0.0
H845 H 0.74394 0.62156 0.49376 0.0
H846 H 0.71809 0.60849 0.46792 0.0
H847 H 0.71495 0.59514 0.50543 0.0
H848 H 0.64982 0.55259 0.42718 0.0
H849 H 0.64438 0.52663 0.51857 0.0
H850 H 0.72424 0.5394 0.41881 0.0
H851 H 0.72013 0.57882 0.42421 0.0
H852 H 0.69405 0.5596 0.40248 0.0
H853 H 0.71875 0.50982 0.52974 0.0
H854 H 0.68568 0.5184 0.54784 0.0
H855 H 0.71236 0.54803 0.53793 0.0
C856 C 0.13755 0.32205 0.09116 0.0
C857 C 0.12316 0.29393 0.09811 0.0
C858 C 0.12236 0.34791 0.08022 0.0
C859 C 0.09201 0.34562 0.07541 0.0
C860 C 0.07744 0.31716 0.08208 0.0
C861 C 0.09308 0.29184 0.09363 0.0
C862 C 0.13878 0.37781 0.0741 0.0
C863 C 0.04531 0.31335 0.07676 0.0
C864 C 0.0477 0.4183 0.07102 0.0
C865 C 0.04611 0.4259 0.04094 0.0
C866 C 0.06251 0.39239 0.08248 0.0
C867 C 0.0756 0.373 0.06348 0.0
C868 C 0.07341 0.38015 0.03305 0.0
C869 C 0.05906 0.40661 0.02221 0.0
C870 C 0.06471 0.38615 0.11502 0.0
C871 C 0.08639 0.35991 0.0119 0.0
H872 H 0.16072 0.32398 0.09482 0.0
H873 H 0.08181 0.27017 0.09869 0.0
H874 H 0.13681 0.38572 0.05078 0.0
H875 H 0.12929 0.39548 0.08677 0.0
H876 H 0.16216 0.37607 0.07962 0.0
H877 H 0.03727 0.28962 0.08239 0.0
H878 H 0.03318 0.32886 0.0898 0.0
H879 H 0.04037 0.31968 0.05356 0.0
H880 H 0.03803 0.43313 0.08573 0.0
H881 H 0.05791 0.41215 0.99894 0.0
H882 H 0.08785 0.38613 0.12165 0.0
H883 H 0.05528 0.36327 0.12177 0.0
H884 H 0.0534 0.40333 0.12689 0.0
H885 H 0.11026 0.35948 0.01475 0.0
H886 H 0.08157 0.36768 0.98895 0.0
H887 H 0.07793 0.33617 0.01629 0.0
C888 C 0.61376 0.18811 0.88545 0.0
C889 C 0.61099 0.21672 0.89621 0.0
C890 C 0.60015 0.16202 0.89943 0.0
C891 C 0.58281 0.16481 0.92434 0.0
C892 C 0.57972 0.19386 0.93501 0.0
C893 C 0.59413 0.21944 0.92097 0.0
C894 C 0.60456 0.13143 0.88772 0.0
C895 C 0.56103 0.19795 0.96113 0.0
C896 C 0.52802 0.10029 0.94499 0.0
C897 C 0.54205 0.08438 0.96827 0.0
C898 C 0.54075 0.12684 0.93083 0.0
C899 C 0.56851 0.13722 0.93964 0.0
C900 C 0.58283 0.12104 0.96298 0.0
C901 C 0.56929 0.09511 0.97722 0.0
C902 C 0.52447 0.14382 0.90649 0.0
C903 C 0.61272 0.13083 0.97263 0.0
H904 H 0.62681 0.18617 0.86623 0.0
H905 H 0.59187 0.24172 0.92904 0.0
H906 H 0.61411 0.11557 0.90481 0.0
H907 H 0.5834 0.12128 0.88157 0.0
H908 H 0.61903 0.13308 0.86844 0.0
H909 H 0.56 0.2222 0.96601 0.0
H910 H 0.53869 0.18915 0.95739 0.0
H911 H 0.56965 0.18459 0.98048 0.0
H912 H 0.50694 0.09216 0.93805 0.0
H913 H 0.58043 0.08274 0.995 0.0
H914 H 0.53695 0.14405 0.88598 0.0
H915 H 0.52195 0.16789 0.91134 0.0
H916 H 0.50264 0.13349 0.903 0.0
H917 H 0.62809 0.13115 0.95416 0.0
H918 H 0.62111 0.11548 0.99083 0.0
H919 H 0.61232 0.15431 0.97967 0.0
C920 C 0.96163 0.77766 0.49283 0.0
C921 C 0.97949 0.75917 0.47751 0.0
C922 C 0.97013 0.80763 0.49768 0.0
C923 C 0.99681 0.81979 0.48629 0.0
C924 C 0.01536 0.80111 0.47158 0.0
C925 C 1.00666 0.77092 0.46771 0.0
C926 C 0.94997 0.82668 0.514 0.0
C927 C 0.04381 0.81341 0.45881 0.0
C928 C 0.99716 0.90546 0.47002 0.0
C929 C 0.01242 0.9155 0.49387 0.0
C930 C 0.99319 0.87429 0.4666 0.0
C931 C 1.00408 0.85269 0.48797 0.0
C932 C 0.02018 0.86271 0.51172 0.0
C933 C 0.02447 0.89409 0.5142 0.0
C934 C 0.97651 0.86451 0.44057 0.0
C935 C 0.03158 0.84038 0.53526 0.0
H936 H 0.94043 0.76919 0.50017 0.0
H937 H 0.02098 0.75671 0.45646 0.0
H938 H 0.96197 0.83785 0.53129 0.0
H939 H 0.94104 0.84497 0.49892 0.0
H940 H 0.93158 0.81293 0.5241 0.0
H941 H 0.05659 0.79544 0.4496 0.0
H942 H 0.03961 0.8315 0.4413 0.0
H943 H 0.05708 0.82396 0.47557 0.0
H944 H 0.98801 0.92202 0.45416 0.0
H945 H 0.03607 0.90186 0.5328 0.0
H946 H 0.95563 0.85337 0.44779 0.0
H947 H 0.98888 0.84756 0.42946 0.0
H948 H 0.97183 0.88403 0.42465 0.0
H949 H 0.0131 0.82874 0.54726 0.0
H950 H 0.04562 0.8517 0.551 0.0
H951 H 0.04413 0.82254 0.52567 0.0
C952 C 0.43506 0.71922 0.54473 0.0
C953 C 0.45378 0.73815 0.55978 0.0
C954 C 0.44268 0.68955 0.53946 0.0
C955 C 0.46926 0.67805 0.55029 0.0
C956 C 0.48796 0.69661 0.56613 0.0
C957 C 0.48021 0.72656 0.57031 0.0
C958 C 0.42242 0.67064 0.52196 0.0
C959 C 0.51625 0.68489 0.57851 0.0
C960 C 0.47572 0.59193 0.55608 0.0
C961 C 0.49265 0.58767 0.53168 0.0
C962 C 0.46857 0.62133 0.56288 0.0
C963 C 0.47783 0.64686 0.54429 0.0
C964 C 0.49474 0.64258 0.51948 0.0
C965 C 0.5023 0.61305 0.51372 0.0
C966 C 0.45117 0.62509 0.58995 0.0
C967 C 0.50431 0.66913 0.49867 0.0
H968 H 0.41428 0.72749 0.53709 0.0
H969 H 0.49512 0.74097 0.58154 0.0
H970 H 0.4339 0.66351 0.50263 0.0
H971 H 0.41537 0.6496 0.53512 0.0
H972 H 0.40285 0.68321 0.51451 0.0
H973 H 0.52739 0.70146 0.59197 0.0
H974 H 0.51235 0.66322 0.59206 0.0
H975 H 0.53097 0.67996 0.56062 0.0
H976 H 0.46841 0.57229 0.57006 0.0
H977 H 0.51516 0.60973 0.49465 0.0
H978 H 0.43008 0.6354 0.584 0.0
H979 H 0.46286 0.64084 0.60382 0.0
H980 H 0.44693 0.60306 0.60287 0.0
H981 H 0.48507 0.68133 0.48984 0.0
H982 H 0.51713 0.66185 0.48023 0.0
H983 H 0.51766 0.68563 0.51025 0.0
C984 C 0.9057 0.90196 0.69711 0.0
C985 C 0.8946 0.92208 0.71623 0.0
C986 C 0.92012 0.91273 0.67123 0.0
C987 C 0.92386 0.94452 0.6641 0.0
C988 C 0.91273 0.96497 0.68329 0.0
C989 C 0.89822 0.95356 0.70893 0.0
C990 C 0.9313 0.89001 0.65144 0.0
C991 C 0.91635 0.99899 0.67683 0.0
C992 C 0.98457 0.9715 0.61075 0.0
C993 C 0.9694 0.97744 0.58456 0.0
C994 C 0.97007 0.96112 0.6367 0.0
C995 C 0.93953 0.95631 0.6367 0.0
C996 C 0.92408 0.96245 0.61037 0.0
C997 C 0.93911 0.97295 0.58476 0.0
C998 C 0.9875 0.95514 0.66417 0.0
C999 C 0.8916 0.95761 0.60914 0.0
H1000 H 0.90276 0.87762 0.70217 0.0
H1001 H 0.89013 0.9694 0.72359 0.0
H1002 H 0.92141 0.89391 0.62957 0.0
H1003 H 0.9551 0.89318 0.64875 0.0
H1004 H 0.9265 0.86608 0.65986 0.0
H1005 H 0.90641 0.01191 0.69378 0.0
H1006 H 0.93974 0.00541 0.67519 0.0
H1007 H 0.90631 0.00603 0.65558 0.0
H1008 H 1.00792 0.97488 0.61101 0.0
H1009 H 0.92706 0.97739 0.56476 0.0
H1010 H 0.98496 0.93082 0.67228 0.0
H1011 H 0.97931 0.9689 0.68136 0.0
H1012 H 1.01095 0.96063 0.66082 0.0
H1013 H 0.88585 0.93335 0.61534 0.0
H1014 H 0.88265 0.96391 0.58718 0.0
H1015 H 0.88097 0.97137 0.62497 0.0
C1016 C 0.58169 0.06158 0.26817 0.0
C1017 C 0.55935 0.07734 0.28056 0.0
C1018 C 0.5792 0.05196 0.24007 0.0
C1019 C 0.55413 0.05901 0.22345 0.0
C1020 C 0.53122 0.07433 0.23585 0.0
C1021 C 0.53397 0.08302 0.26438 0.0
C1022 C 0.60396 0.03524 0.22776 0.0
C1023 C 0.50434 0.08264 0.2186 0.0
C1024 C 0.56745 0.06619 0.1423 0.0
C1025 C 0.55607 0.0384 0.13404 0.0
C1026 C 0.56584 0.07366 0.17116 0.0
C1027 C 0.55314 0.05246 0.19238 0.0
C1028 C 0.54123 0.02447 0.18407 0.0
C1029 C 0.54253 0.01793 0.15483 0.0
C1030 C 0.57821 0.10404 0.179 0.0
C1031 C 0.5281 1.00104 0.20619 0.0
H1032 H 0.6017 0.05758 0.28 0.0
H1033 H 0.51635 0.09467 0.27382 0.0
H1034 H 0.59572 0.01438 0.21816 0.0
H1035 H 0.61471 0.04997 0.21014 0.0
H1036 H 0.62047 0.02864 0.24449 0.0
H1037 H 0.48774 0.09287 0.23194 0.0
H1038 H 0.51022 0.09921 0.20006 0.0
H1039 H 0.49461 0.06221 0.20941 0.0
H1040 H 0.57744 0.08219 0.12603 0.0
H1041 H 0.53383 0.99642 0.1483 0.0
H1042 H 0.59712 0.10042 0.19363 0.0
H1043 H 0.56183 0.11622 0.19091 0.0
H1044 H 0.58529 0.11884 0.15957 0.0
H1045 H 0.54507 0.99279 0.22175 0.0
H1046 H 0.51837 0.98117 0.19597 0.0
H1047 H 0.51113 0.01139 0.21891 0.0
C1048 C 0.42003 0.56717 0.30483 0.0
C1049 C 0.39186 0.57812 0.30621 0.0
C1050 C 0.43436 0.5553 0.33 0.0
C1051 C 0.42051 0.5552 0.35738 0.0
C1052 C 0.39196 0.56614 0.35883 0.0
C1053 C 0.37784 0.57708 0.33317 0.0
C1054 C 0.46444 0.54314 0.32731 0.0
C1055 C 0.3767 0.56727 0.38759 0.0
C1056 C 0.44874 0.50558 0.42254 0.0
C1057 C 0.46766 0.526 0.43535 0.0
C1058 C 0.43357 0.51457 0.39688 0.0
C1059 C 0.43646 0.54505 0.38456 0.0
C1060 C 0.45497 0.56592 0.39805 0.0
C1061 C 0.47081 0.55596 0.42289 0.0
C1062 C 0.41494 0.49132 0.38265 0.0
C1063 C 0.4579 0.59888 0.3864 0.0
H1064 H 0.43082 0.5678 0.28395 0.0
H1065 H 0.35614 0.58578 0.33428 0.0
H1066 H 0.4803 0.55764 0.33838 0.0
H1067 H 0.46541 0.51979 0.33817 0.0
H1068 H 0.4712 0.54252 0.3043 0.0
H1069 H 0.35437 0.57594 0.38498 0.0
H1070 H 0.37549 0.54426 0.39922 0.0
H1071 H 0.38925 0.58228 0.40153 0.0
H1072 H 0.44644 0.48237 0.43216 0.0
H1073 H 0.48521 0.57183 0.43305 0.0
H1074 H 0.42237 0.48956 0.36002 0.0
H1075 H 0.39212 0.49863 0.38148 0.0
H1076 H 0.41557 0.46839 0.39452 0.0
H1077 H 0.46745 0.60044 0.3643 0.0
H1078 H 0.47176 0.61259 0.40045 0.0
H1079 H 0.43619 0.60914 0.38454 0.0
C1080 C 0.03068 0.41947 0.76008 0.0
C1081 C 0.05767 0.41247 0.74886 0.0
C1082 C 0.02852 0.43013 0.78784 0.0
C1083 C 0.05393 0.43371 0.80463 0.0
C1084 C 0.08101 0.42525 0.79392 0.0
C1085 C 0.08253 0.41473 0.76617 0.0
C1086 C 0.99927 0.43887 0.79863 0.0
C1087 C 0.10857 0.42853 0.81125 0.0
C1088 C 0.05732 0.49473 0.85794 0.0
C1089 C 0.05379 0.47757 0.88465 0.0
C1090 C 0.05688 0.48073 0.83175 0.0
C1091 C 0.05279 0.44873 0.83225 0.0
C1092 C 0.0489 0.43124 0.85907 0.0
C1093 C 0.04945 0.44589 0.88499 0.0
C1094 C 0.06105 0.50018 0.80354 0.0
C1095 C 0.0446 0.39705 0.86041 0.0
H1096 H 1.01145 0.41778 0.7467 0.0
H1097 H 0.10335 0.40874 0.75774 0.0
H1098 H 0.99526 0.42821 0.82088 0.0
H1099 H 0.99889 0.46392 0.79979 0.0
H1100 H 0.98133 0.43198 0.78424 0.0
H1101 H 0.12744 0.41867 0.80081 0.0
H1102 H 0.11348 0.45302 0.81358 0.0
H1103 H 0.10587 0.4172 0.83344 0.0
H1104 H 0.06008 0.51925 0.85744 0.0
H1105 H 0.04695 0.43248 0.90557 0.0
H1106 H 0.04244 0.49665 0.78882 0.0
H1107 H 0.08083 0.49333 0.7924 0.0
H1108 H 0.06317 0.52485 0.80688 0.0
H1109 H 0.02604 0.39093 0.8465 0.0
H1110 H 0.04054 0.38694 0.88289 0.0
H1111 H 0.06411 0.38663 0.85183 0.0
C1112 C 0.68542 0.88387 0.92581 0.0
C1113 C 0.70753 0.90248 0.91223 0.0
C1114 C 0.66051 0.89629 0.93743 0.0
C1115 C 0.65709 0.92828 0.93536 0.0
C1116 C 0.67894 0.94723 0.92112 0.0
C1117 C 0.70378 0.93418 0.90983 0.0
C1118 C 0.63793 0.87507 0.95227 0.0
C1119 C 0.67628 0.98141 0.9182 0.0
C1120 C 0.58063 0.95841 0.94517 0.0
C1121 C 0.58116 0.96626 0.97411 0.0
C1122 C 0.60511 0.94639 0.93226 0.0
C1123 C 0.63096 0.94181 0.94857 0.0
C1124 C 0.6316 0.94964 0.9778 0.0
C1125 C 0.60687 0.96179 0.99012 0.0
C1126 C 0.6033 0.93861 0.90105 0.0
C1127 C 0.65845 0.94503 0.99619 0.0
H1128 H 0.6875 0.85935 0.92735 0.0
H1129 H 0.72063 0.94898 0.89972 0.0
H1130 H 0.63548 0.88034 0.97522 0.0
H1131 H 0.61658 0.87846 0.94157 0.0
H1132 H 0.64355 0.85073 0.95189 0.0
H1133 H 0.69444 0.99298 0.90558 0.0
H1134 H 0.65555 0.98765 0.90734 0.0
H1135 H 0.6759 0.99017 0.94006 0.0
H1136 H 0.56105 0.96185 0.93243 0.0
H1137 H 0.60771 0.96777 0.01243 0.0
H1138 H 0.60718 0.91401 0.89973 0.0
H1139 H 0.62043 0.95144 0.88802 0.0
H1140 H 0.58189 0.94394 0.8911 0.0
H1141 H 0.6641 0.92062 0.99788 0.0
H1142 H 0.65564 0.95238 0.01845 0.0
H1143 H 0.67707 0.95806 0.98577 0.0
C1144 C 0.74988 0.07827 0.47784 0.0
C1145 C 0.72897 0.05473 0.4761 0.0
C1146 C 0.77937 0.07193 0.48116 0.0
C1147 C 0.78823 0.04135 0.4824 0.0
C1148 C 0.76713 0.0174 0.48273 0.0
C1149 C 0.73772 0.02439 0.47975 0.0
C1150 C 0.80119 0.09811 0.4811 0.0
C1151 C 0.77571 0.98448 0.4841 0.0
C1152 C 0.861 0.02815 0.44841 0.0
C1153 C 0.87875 0.0225 0.47283 0.0
C1154 C 0.83152 0.03408 0.45134 0.0
C1155 C 0.81944 0.03471 0.47943 0.0
C1156 C 0.83719 0.02932 0.50423 0.0
C1157 C 0.86664 0.02317 0.50064 0.0
C1158 C 0.8133 0.0397 0.4243 0.0
C1159 C 0.82508 0.03001 0.5345 0.0
H1160 H 0.7435 0.10182 0.47476 0.0
H1161 H 0.72166 0.00605 0.47903 0.0
H1162 H 0.81765 0.0937 0.49837 0.0
H1163 H 0.81276 0.10054 0.45998 0.0
H1164 H 0.79074 0.12003 0.48436 0.0
H1165 H 0.75677 0.96857 0.48789 0.0
H1166 H 0.78604 0.97985 0.46327 0.0
H1167 H 0.79185 0.97962 0.50159 0.0
H1168 H 0.8702 0.02819 0.42687 0.0
H1169 H 0.88002 0.01843 0.51967 0.0
H1170 H 0.80415 0.0628 0.42356 0.0
H1171 H 0.79479 0.02306 0.42471 0.0
H1172 H 0.8259 0.03781 0.40409 0.0
H1173 H 0.81584 0.05262 0.53719 0.0
H1174 H 0.8418 0.0254 0.55154 0.0
H1175 H 0.80718 0.01281 0.53798 0.0
C1176 C 0.20427 0.57857 0.11089 0.0
C1177 C 0.20835 0.61029 0.11092 0.0
C1178 C 0.17924 0.56572 0.09871 0.0
C1179 C 0.15767 0.58498 0.08614 0.0
C1180 C 0.16146 0.61697 0.08644 0.0
C1181 C 0.18663 0.62919 0.09884 0.0
C1182 C 0.17605 0.5315 0.09894 0.0
C1183 C 0.13901 0.63835 0.0734 0.0
C1184 C 0.1064 0.55385 0.0299 0.0
C1185 C 0.08124 0.54668 0.04633 0.0
C1186 C 0.13135 0.56634 0.04255 0.0
C1187 C 0.13128 0.57172 0.07241 0.0
C1188 C 0.10593 0.56459 0.08909 0.0
C1189 C 0.08126 0.55227 0.07586 0.0
C1190 C 0.15784 0.57373 0.02393 0.0
C1191 C 0.10486 0.56989 0.12097 0.0
H1192 H 0.22099 0.56373 0.11983 0.0
H1193 H 0.18924 0.65369 0.09917 0.0
H1194 H 0.15551 0.52355 0.10986 0.0
H1195 H 0.17489 0.52472 0.07633 0.0
H1196 H 0.19434 0.51964 0.11023 0.0
H1197 H 0.14507 0.66266 0.07553 0.0
H1198 H 0.13609 0.63492 0.05002 0.0
H1199 H 0.11776 0.6333 0.08416 0.0
H1200 H 0.10666 0.54964 1.00709 0.0
H1201 H 0.06199 0.54678 0.08882 0.0
H1202 H 0.17652 0.56072 0.03296 0.0
H1203 H 0.16379 0.59829 0.02411 0.0
H1204 H 0.15441 0.56832 1.00107 0.0
H1205 H 0.1223 0.55723 0.13282 0.0
H1206 H 0.0837 0.56258 0.13102 0.0
H1207 H 0.10872 0.59443 0.12388 0.0
C1208 C 0.23992 0.47347 0.5509 0.0
C1209 C 0.22858 0.44352 0.55162 0.0
C1210 C 0.26961 0.47975 0.54642 0.0
C1211 C 0.28831 0.45555 0.54217 0.0
C1212 C 0.27662 0.42571 0.54037 0.0
C1213 C 0.24692 0.42001 0.54528 0.0
C1214 C 0.28122 0.51189 0.5484 0.0
C1215 C 0.2958 0.39935 0.53544 0.0
C1216 C 0.36688 0.47139 0.51973 0.0
C1217 C 0.3812 0.4662 0.54643 0.0
C1218 C 0.33654 0.46848 0.51792 0.0
C1219 C 0.32026 0.46054 0.54347 0.0
C1220 C 0.33462 0.45623 0.57058 0.0
C1221 C 0.3649 0.45895 0.57168 0.0
C1222 C 0.32202 0.47293 0.48861 0.0
C1223 C 0.31802 0.44821 0.59842 0.0
H1224 H 0.22578 0.49187 0.55514 0.0
H1225 H 0.23848 0.39677 0.54596 0.0
H1226 H 0.29341 0.5132 0.56903 0.0
H1227 H 0.2965 0.5185 0.53036 0.0
H1228 H 0.26361 0.52866 0.54787 0.0
H1229 H 0.28303 0.37864 0.53052 0.0
H1230 H 0.31107 0.40552 0.51727 0.0
H1231 H 0.30894 0.39375 0.55521 0.0
H1232 H 0.3795 0.47669 0.50015 0.0
H1233 H 0.37595 0.45535 0.59235 0.0
H1234 H 0.30439 0.48951 0.48927 0.0
H1235 H 0.31196 0.45103 0.48293 0.0
H1236 H 0.33753 0.48114 0.47117 0.0
H1237 H 0.30131 0.46539 0.60125 0.0
H1238 H 0.33236 0.44698 0.61782 0.0
H1239 H 0.3066 0.42583 0.59738 0.0
C1240 C 0.93879 0.72198 0.92431 0.0
C1241 C 0.9093 0.72182 0.91666 0.0
C1242 C 0.95162 0.69609 0.93836 0.0
C1243 C 0.9348 0.66895 0.94452 0.0
C1244 C 0.90488 0.66879 0.93724 0.0
C1245 C 0.89245 0.69526 0.92371 0.0
C1246 C 0.98338 0.69767 0.94618 0.0
C1247 C 0.88616 0.64033 0.94288 0.0
C1248 C 0.97559 0.59414 0.95094 0.0
C1249 C 0.97613 0.58669 0.9811 0.0
C1250 C 0.96194 0.62047 0.93886 0.0
C1251 C 0.94884 0.64043 0.95728 0.0
C1252 C 0.9496 0.63324 0.98778 0.0
C1253 C 0.96293 0.60638 0.99927 0.0
C1254 C 0.96134 0.6268 0.90625 0.0
C1255 C 0.93647 0.65406 1.00831 0.0
H1256 H 0.95191 0.74248 0.91922 0.0
H1257 H 0.86973 0.69484 0.91768 0.0
H1258 H 0.98641 0.69033 0.96952 0.0
H1259 H 0.99554 0.68184 0.93351 0.0
H1260 H 0.99298 0.72098 0.94181 0.0
H1261 H 0.86314 0.64412 0.93687 0.0
H1262 H 0.89446 0.62202 0.93021 0.0
H1263 H 0.8872 0.63203 0.96617 0.0
H1264 H 0.98547 0.57904 0.93662 0.0
H1265 H 0.96322 0.60093 0.02258 0.0
H1266 H 0.97274 0.64881 0.89994 0.0
H1267 H 0.9386 0.62885 0.8986 0.0
H1268 H 0.97171 0.60864 0.89486 0.0
H1269 H 0.94672 0.67714 1.00497 0.0
H1270 H 0.93917 0.64556 0.03144 0.0
H1271 H 0.913 0.65642 1.0037 0.0
C1272 C 0.44702 0.79005 0.11 0.0
C1273 C 0.4176 0.78904 0.11771 0.0
C1274 C 0.46008 0.81659 0.09627 0.0
C1275 C 0.44344 0.84297 0.09048 0.0
C1276 C 0.41372 0.8421 0.09829 0.0
C1277 C 0.40111 0.81509 0.11159 0.0
C1278 C 0.49166 0.81635 0.08786 0.0
C1279 C 0.3953 0.86981 0.09287 0.0
C1280 C 0.48331 0.91998 0.07905 0.0
C1281 C 0.48204 0.92578 0.04876 0.0
C1282 C 0.47079 0.8932 0.09292 0.0
C1283 C 0.45706 0.87142 0.07608 0.0
C1284 C 0.45619 0.87692 0.04546 0.0
C1285 C 0.46845 0.9041 0.03221 0.0
C1286 C 0.47185 0.88843 0.12564 0.0
C1287 C 0.4422 0.85413 0.02665 0.0
H1288 H 0.45979 0.76989 0.11441 0.0
H1289 H 0.37845 0.81452 0.11778 0.0
H1290 H 0.49403 0.82212 0.06414 0.0
H1291 H 0.50407 0.83394 0.09898 0.0
H1292 H 0.50148 0.79388 0.0935 0.0
H1293 H 0.37266 0.86555 0.10058 0.0
H1294 H 0.40489 0.88907 0.10405 0.0
H1295 H 0.39481 0.87702 0.06931 0.0
H1296 H 0.49357 0.93669 0.09202 0.0
H1297 H 0.46744 0.90833 1.00878 0.0
H1298 H 0.48305 0.86701 0.13232 0.0
H1299 H 0.4495 0.88604 0.13448 0.0
H1300 H 0.48325 0.90755 0.1356 0.0
H1301 H 0.45239 0.83165 0.03084 0.0
H1302 H 0.44411 0.86137 1.00312 0.0
H1303 H 0.41889 0.85093 0.03219 0.0
C1304 C 0.03253 0.23995 0.521 0.0
C1305 C 0.03541 0.2479 0.54973 0.0
C1306 C 0.02482 0.21006 0.51494 0.0
C1307 C 0.01931 0.18772 0.53817 0.0
C1308 C 0.02014 0.19607 0.56711 0.0
C1309 C 0.02849 0.22591 0.57256 0.0
C1310 C 0.0244 0.20197 0.48378 0.0
C1311 C 0.01401 0.17301 0.59249 0.0
C1312 C 0.9873 0.11001 0.52285 0.0
C1313 C 0.0122 0.09237 0.52391 0.0
C1314 C 0.98914 0.1412 0.52743 0.0
C1315 C 0.01656 0.155 0.53257 0.0
C1316 C 0.04175 0.13731 0.53316 0.0
C1317 C 0.03922 0.10621 0.52911 0.0
C1318 C 0.96179 0.15927 0.52722 0.0
C1319 C 0.07147 0.15122 0.53813 0.0
H1320 H 0.03715 0.25688 0.50317 0.0
H1321 H 0.03096 0.23147 0.59488 0.0
H1322 H 0.04297 0.18727 0.47999 0.0
H1323 H 1.0043 0.18884 0.47918 0.0
H1324 H 0.02595 0.22248 0.46816 0.0
H1325 H 1.01135 0.18398 0.61313 0.0
H1326 H 0.9941 0.15929 0.58849 0.0
H1327 H 0.03223 0.15707 0.59516 0.0
H1328 H 0.96637 0.09935 0.51888 0.0
H1329 H 0.05859 0.09276 0.52964 0.0
H1330 H 0.96351 0.17905 0.51082 0.0
H1331 H 0.95885 0.16844 0.54868 0.0
H1332 H 0.94223 0.14531 0.52236 0.0
H1333 H 0.07582 0.17069 0.52183 0.0
H1334 H 0.08898 0.13455 0.53673 0.0
H1335 H 0.07243 0.16019 0.5599 0.0
C1336 C 0.58965 0.29036 0.4726 0.0
C1337 C 0.5708 0.27128 0.45787 0.0
C1338 C 0.58201 0.32002 0.47787 0.0
C1339 C 0.55524 0.33136 0.46739 0.0
C1340 C 0.53639 0.31264 0.45188 0.0
C1341 C 0.54419 0.28271 0.44767 0.0
C1342 C 0.60246 0.33911 0.495 0.0
C1343 C 0.50787 0.32416 0.4399 0.0
C1344 C 0.52251 0.3962 0.50445 0.0
C1345 C 0.53173 0.42162 0.4863 0.0
C1346 C 0.53009 0.3667 0.49857 0.0
C1347 C 0.54662 0.36249 0.47349 0.0
C1348 C 0.55543 0.38805 0.45471 0.0
C1349 C 0.54824 0.41742 0.46159 0.0
C1350 C 0.52095 0.34012 0.51953 0.0
C1351 C 0.57243 0.38436 0.42737 0.0
H1352 H 0.61056 0.2822 0.47998 0.0
H1353 H 0.52917 0.26818 0.43669 0.0
H1354 H 0.60916 0.36019 0.48171 0.0
H1355 H 0.59127 0.34616 0.51453 0.0
H1356 H 0.62223 0.3267 0.50211 0.0
H1357 H 0.49661 0.30749 0.42663 0.0
H1358 H 0.49339 0.32903 0.458 0.0
H1359 H 0.51147 0.34583 0.42627 0.0
H1360 H 0.50995 0.39944 0.52372 0.0
H1361 H 0.55521 0.43707 0.44745 0.0
H1362 H 0.54038 0.32808 0.5281 0.0
H1363 H 0.50753 0.3235 0.50817 0.0
H1364 H 0.50834 0.34733 0.53815 0.0
H1365 H 0.59365 0.3742 0.433 0.0
H1366 H 0.57637 0.40639 0.41436 0.0
H1367 H 0.56059 0.36852 0.41371 0.0
loop_
_geom_bond_atom_site_label_1
_geom_bond_atom_site_label_2
_geom_bond_distance
_geom_bond_site_symmetry_2
_ccdc_geom_bond_type
C0 C1 1.391 . S
C0 C4 1.391 . S
C0 H42 0.948 . S
C1 C0 1.391 . S
C1 C2 1.391 . S
C2 C1 1.391 . S
C2 H58 0.947 . S
C2 C59 1.392 . S
C3 C4 1.391 . S
C3 C7 1.397 . S
C3 C59 1.419 . S
C4 C0 1.391 . S
C4 C3 1.391 . S
C4 C5 1.399 . S
C5 C4 1.399 . S
C5 C8 1.396 . S
C5 C17 1.453 . S
C5 C18 1.684 . S
H6 C30 0.948 . S
C7 C3 1.397 . S
C7 C8 1.394 . S
C7 C26 1.723 . S
C8 C5 1.396 . S
C8 C7 1.394 . S
C8 C38 1.723 . S
H9 C32 0.947 . S
H10 C33 0.948 . S
H11 C39 0.982 . S
H12 C40 0.979 . S
H13 C40 0.980 . S
H14 C40 0.983 . S
H15 C39 0.979 . S
H16 C39 0.977 . S
C17 C5 1.453 . S
C17 H46 0.982 . S
C17 H47 0.979 . S
C17 H48 0.977 . S
C18 C5 1.684 . S
C18 H43 0.979 . S
C18 H44 0.980 . S
C18 H45 0.983 . S
C19 C20 1.391 . S
C19 C24 1.391 . S
C19 H49 0.948 . S
C20 C19 1.391 . S
C20 C21 1.391 . S
C21 C20 1.391 . S
C21 C22 1.392 . S
C21 H50 0.947 . S
C22 C21 1.392 . S
C22 C23 1.419 . S
C22 H51 0.948 . S
C23 C22 1.419 . S
C23 C24 1.391 . S
C23 C27 1.397 . S
C24 C19 1.391 . S
C24 C23 1.391 . S
C24 C25 1.399 . S
C25 C24 1.399 . S
C25 C26 1.396 . S
C25 C28 1.453 . S
C25 C29 1.684 . S
C26 C7 1.723 . S
C26 C25 1.396 . S
C26 C27 1.394 . S
C27 C23 1.397 . S
C27 C26 1.394 . S
C27 C37 1.723 . S
C28 C25 1.453 . S
C28 H52 0.982 . S
C28 H53 0.979 . S
C28 H54 0.977 . S
C29 C25 1.684 . S
C29 H55 0.979 . S
C29 H56 0.980 . S
C29 H57 0.983 . S
C30 H6 0.948 . S
C30 C31 1.391 . S
C30 C35 1.391 . S
C31 C30 1.391 . S
C31 C32 1.391 . S
C32 H9 0.947 . S
C32 C31 1.391 . S
C32 C33 1.392 . S
C33 H10 0.948 . S
C33 C32 1.392 . S
C33 C34 1.419 . S
C34 C33 1.419 . S
C34 C35 1.391 . S
C34 C38 1.397 . S
C35 C30 1.391 . S
C35 C34 1.391 . S
C35 C36 1.399 . S
C36 C35 1.399 . S
C36 C37 1.396 . S
C36 C39 1.453 . S
C36 C40 1.684 . S
C37 C27 1.723 . S
C37 C36 1.396 . S
C37 C38 1.394 . S
C38 C8 1.723 . S
C38 C34 1.397 . S
C38 C37 1.394 . S
C39 H11 0.982 . S
C39 H15 0.979 . S
C39 H16 0.977 . S
C39 C36 1.453 . S
C40 H12 0.979 . S
C40 H13 0.980 . S
C40 H14 0.983 . S
C40 C36 1.684 . S
H41 C59 0.948 . S
H42 C0 0.948 . S
H43 C18 0.979 . S
H44 C18 0.980 . S
H45 C18 0.983 . S
H46 C17 0.982 . S
H47 C17 0.979 . S
H48 C17 0.977 . S
H49 C19 0.948 . S
H50 C21 0.947 . S
H51 C22 0.948 . S
H52 C28 0.982 . S
H53 C28 0.979 . S
H54 C28 0.977 . S
H55 C29 0.979 . S
H56 C29 0.980 . S
H57 C29 0.983 . S
H58 C2 0.947 . S
C59 C2 1.392 . S
C59 C3 1.419 . S
C59 H41 0.948 . S
C60 C61 1.391 . S
C60 C64 1.391 . S
C60 H102 0.948 . S
C61 C60 1.391 . S
C61 C62 1.391 . S
C62 C61 1.391 . S
C62 H118 0.947 . S
C62 C119 1.392 . S
C63 C64 1.391 . S
C63 C67 1.397 . S
C63 C119 1.419 . S
C64 C60 1.391 . S
C64 C63 1.391 . S
C64 C65 1.399 . S
C65 C64 1.399 . S
C65 C68 1.396 . S
C65 C77 1.453 . S
C65 C78 1.684 . S
H66 C90 0.948 . S
C67 C63 1.397 . S
C67 C68 1.394 . S
C67 C86 1.723 . S
C68 C65 1.396 . S
C68 C67 1.394 . S
C68 C98 1.723 . S
H69 C92 0.947 . S
H70 C93 0.948 . S
H71 C99 0.982 . S
H72 C100 0.979 . S
H73 C100 0.980 . S
H74 C100 0.983 . S
H75 C99 0.979 . S
H76 C99 0.977 . S
C77 C65 1.453 . S
C77 H106 0.982 . S
C77 H107 0.979 . S
C77 H108 0.977 . S
C78 C65 1.684 . S
C78 H103 0.979 . S
C78 H104 0.980 . S
C78 H105 0.983 . S
C79 C80 1.391 . S
C79 C84 1.391 . S
C79 H109 0.948 . S
C80 C79 1.391 . S
C80 C81 1.391 . S
C81 C80 1.391 . S
C81 C82 1.392 . S
C81 H110 0.947 . S
C82 C81 1.392 . S
C82 C83 1.419 . S
C82 H111 0.948 . S
C83 C82 1.419 . S
C83 C84 1.391 . S
C83 C87 1.397 . S
C84 C79 1.391 . S
C84 C83 1.391 . S
C84 C85 1.399 . S
C85 C84 1.399 . S
C85 C86 1.396 . S
C85 C88 1.453 . S
C85 C89 1.684 . S
C86 C67 1.723 . S
C86 C85 1.396 . S
C86 C87 1.394 . S
C87 C83 1.397 . S
C87 C86 1.394 . S
C87 C97 1.723 . S
C88 C85 1.453 . S
C88 H112 0.982 . S
C88 H113 0.979 . S
C88 H114 0.977 . S
C89 C85 1.684 . S
C89 H115 0.979 . S
C89 H116 0.980 . S
C89 H117 0.983 . S
C90 H66 0.948 . S
C90 C91 1.391 . S
C90 C95 1.391 . S
C91 C90 1.391 . S
C91 C92 1.391 . S
C92 H69 0.947 . S
C92 C91 1.391 . S
C92 C93 1.392 . S
C93 H70 0.948 . S
C93 C92 1.392 . S
C93 C94 1.419 . S
C94 C93 1.419 . S
C94 C95 1.391 . S
C94 C98 1.397 . S
C95 C90 1.391 . S
C95 C94 1.391 . S
C95 C96 1.399 . S
C96 C95 1.399 . S
C96 C97 1.396 . S
C96 C99 1.453 . S
C96 C100 1.684 . S
C97 C87 1.723 . S
C97 C96 1.396 . S
C97 C98 1.394 . S
C98 C68 1.723 . S
C98 C94 1.397 . S
C98 C97 1.394 . S
C99 H71 0.982 . S
C99 H75 0.979 . S
C99 H76 0.977 . S
C99 C96 1.453 . S
C100 H72 0.979 . S
C100 H73 0.980 . S
C100 H74 0.983 . S
C100 C96 1.684 . S
H101 C119 0.948 . S
H102 C60 0.948 . S
H103 C78 0.979 . S
H104 C78 0.980 . S
H105 C78 0.983 . S
H106 C77 0.982 . S
H107 C77 0.979 . S
H108 C77 0.977 . S
H109 C79 0.948 . S
H110 C81 0.947 . S
H111 C82 0.948 . S
H112 C88 0.982 . S
H113 C88 0.979 . S
H114 C88 0.977 . S
H115 C89 0.979 . S
H116 C89 0.980 . S
H117 C89 0.983 . S
H118 C62 0.947 . S
C119 C62 1.392 . S
C119 C63 1.419 . S
C119 H101 0.948 . S
C120 C121 1.391 . S
C120 C124 1.391 . S
C120 H162 0.948 . S
C121 C120 1.391 . S
C121 C122 1.391 . S
C122 C121 1.391 . S
C122 H178 0.947 . S
C122 C179 1.392 . S
C123 C124 1.391 . S
C123 C127 1.397 . S
C123 C179 1.419 . S
C124 C120 1.391 . S
C124 C123 1.391 . S
C124 C125 1.399 . S
C125 C124 1.399 . S
C125 C128 1.396 . S
C125 C137 1.453 . S
C125 C138 1.684 . S
H126 C150 0.948 . S
C127 C123 1.397 . S
C127 C128 1.394 . S
C127 C146 1.723 . S
C128 C125 1.396 . S
C128 C127 1.394 . S
C128 C158 1.723 . S
H129 C152 0.947 . S
H130 C153 0.948 . S
H131 C159 0.982 . S
H132 C160 0.979 . S
H133 C160 0.980 . S
H134 C160 0.983 . S
H135 C159 0.979 . S
H136 C159 0.977 . S
C137 C125 1.453 . S
C137 H166 0.982 . S
C137 H167 0.979 . S
C137 H168 0.977 . S
C138 C125 1.684 . S
C138 H163 0.979 . S
C138 H164 0.980 . S
C138 H165 0.983 . S
C139 C140 1.391 . S
C139 C144 1.391 . S
C139 H169 0.948 . S
C140 C139 1.391 . S
C140 C141 1.391 . S
C141 C140 1.391 . S
C141 C142 1.392 . S
C141 H170 0.947 . S
C142 C141 1.392 . S
C142 C143 1.419 . S
C142 H171 0.948 . S
C143 C142 1.419 . S
C143 C144 1.391 . S
C143 C147 1.397 . S
C144 C139 1.391 . S
C144 C143 1.391 . S
C144 C145 1.399 . S
C145 C144 1.399 . S
C145 C146 1.396 . S
C145 C148 1.453 . S
C145 C149 1.684 . S
C146 C127 1.723 . S
C146 C145 1.396 . S
C146 C147 1.394 . S
C147 C143 1.397 . S
C147 C146 1.394 . S
C147 C157 1.723 . S
C148 C145 1.453 . S
C148 H172 0.982 . S
C148 H173 0.979 . S
C148 H174 0.977 . S
C149 C145 1.684 . S
C149 H175 0.979 . S
C149 H176 0.980 . S
C149 H177 0.983 . S
C150 H126 0.948 . S
C150 C151 1.391 . S
C150 C155 1.391 . S
C151 C150 1.391 . S
C151 C152 1.391 . S
C152 H129 0.947 . S
C152 C151 1.391 . S
C152 C153 1.392 . S
C153 H130 0.948 . S
C153 C152 1.392 . S
C153 C154 1.419 . S
C154 C153 1.419 . S
C154 C155 1.391 . S
C154 C158 1.397 . S
C155 C150 1.391 . S
C155 C154 1.391 . S
C155 C156 1.399 . S
C156 C155 1.399 . S
C156 C157 1.396 . S
C156 C159 1.453 . S
C156 C160 1.684 . S
C157 C147 1.723 . S
C157 C156 1.396 . S
C157 C158 1.394 . S
C158 C128 1.723 . S
C158 C154 1.397 . S
C158 C157 1.394 . S
C159 H131 0.982 . S
C159 H135 0.979 . S
C159 H136 0.977 . S
C159 C156 1.453 . S
C160 H132 0.979 . S
C160 H133 0.980 . S
C160 H134 0.983 . S
C160 C156 1.684 . S
H161 C179 0.948 . S
H162 C120 0.948 . S
H163 C138 0.979 . S
H164 C138 0.980 . S
H165 C138 0.983 . S
H166 C137 0.982 . S
H167 C137 0.979 . S
H168 C137 0.977 . S
H169 C139 0.948 . S
H170 C141 0.947 . S
H171 C142 0.948 . S
H172 C148 0.982 . S
H173 C148 0.979 . S
H174 C148 0.977 . S
H175 C149 0.979 . S
H176 C149 0.980 . S
H177 C149 0.983 . S
H178 C122 0.947 . S
C179 C122 1.392 . S
C179 C123 1.419 . S
C179 H161 0.948 . S
C180 C181 1.391 . S
C180 C184 1.391 . S
C180 H222 0.948 . S
C181 C180 1.391 . S
C181 C182 1.391 . S
C182 C181 1.391 . S
C182 H238 0.947 . S
C182 C239 1.392 . S
C183 C184 1.391 . S
C183 C187 1.397 . S
C183 C239 1.419 . S
C184 C180 1.391 . S
C184 C183 1.391 . S
C184 C185 1.399 . S
C185 C184 1.399 . S
C185 C188 1.396 . S
C185 C197 1.453 . S
C185 C198 1.684 . S
H186 C210 0.948 . S
C187 C183 1.397 . S
C187 C188 1.394 . S
C187 C206 1.723 . S
C188 C185 1.396 . S
C188 C187 1.394 . S
C188 C218 1.723 . S
H189 C212 0.947 . S
H190 C213 0.948 . S
H191 C219 0.982 . S
H192 C220 0.979 . S
H193 C220 0.980 . S
H194 C220 0.983 . S
H195 C219 0.979 . S
H196 C219 0.977 . S
C197 C185 1.453 . S
C197 H226 0.982 . S
C197 H227 0.979 . S
C197 H228 0.977 . S
C198 C185 1.684 . S
C198 H223 0.979 . S
C198 H224 0.980 . S
C198 H225 0.983 . S
C199 C200 1.391 . S
C199 C204 1.391 . S
C199 H229 0.948 . S
C200 C199 1.391 . S
C200 C201 1.391 . S
C201 C200 1.391 . S
C201 C202 1.392 . S
C201 H230 0.947 . S
C202 C201 1.392 . S
C202 C203 1.419 . S
C202 H231 0.948 . S
C203 C202 1.419 . S
C203 C204 1.391 . S
C203 C207 1.397 . S
C204 C199 1.391 . S
C204 C203 1.391 . S
C204 C205 1.399 . S
C205 C204 1.399 . S
C205 C206 1.396 . S
C205 C208 1.453 . S
C205 C209 1.684 . S
C206 C187 1.723 . S
C206 C205 1.396 . S
C206 C207 1.394 . S
C207 C203 1.397 . S
C207 C206 1.394 . S
C207 C217 1.723 . S
C208 C205 1.453 . S
C208 H232 0.982 . S
C208 H233 0.979 . S
C208 H234 0.977 . S
C209 C205 1.684 . S
C209 H235 0.979 . S
C209 H236 0.980 . S
C209 H237 0.983 . S
C210 H186 0.948 . S
C210 C211 1.391 . S
C210 C215 1.391 . S
C211 C210 1.391 . S
C211 C212 1.391 . S
C212 H189 0.947 . S
C212 C211 1.391 . S
C212 C213 1.392 . S
C213 H190 0.948 . S
C213 C212 1.392 . S
C213 C214 1.419 . S
C214 C213 1.419 . S
C214 C215 1.391 . S
C214 C218 1.397 . S
C215 C210 1.391 . S
C215 C214 1.391 . S
C215 C216 1.399 . S
C216 C215 1.399 . S
C216 C217 1.396 . S
C216 C219 1.453 . S
C216 C220 1.684 . S
C217 C207 1.723 . S
C217 C216 1.396 . S
C217 C218 1.394 . S
C218 C188 1.723 . S
C218 C214 1.397 . S
C218 C217 1.394 . S
C219 H191 0.982 . S
C219 H195 0.979 . S
C219 H196 0.977 . S
C219 C216 1.453 . S
C220 H192 0.979 . S
C220 H193 0.980 . S
C220 H194 0.983 . S
C220 C216 1.684 . S
H221 C239 0.948 . S
H222 C180 0.948 . S
H223 C198 0.979 . S
H224 C198 0.980 . S
H225 C198 0.983 . S
H226 C197 0.982 . S
H227 C197 0.979 . S
H228 C197 0.977 . S
H229 C199 0.948 . S
H230 C201 0.947 . S
H231 C202 0.948 . S
H232 C208 0.982 . S
H233 C208 0.979 . S
H234 C208 0.977 . S
H235 C209 0.979 . S
H236 C209 0.980 . S
H237 C209 0.983 . S
H238 C182 0.947 . S
C239 C182 1.392 . S
C239 C183 1.419 . S
C239 H221 0.948 . S
C240 C241 1.391 . S
C240 C244 1.391 . S
C240 H282 0.948 . S
C241 C240 1.391 . S
C241 C242 1.391 . S
C242 C241 1.391 . S
C242 H298 0.947 . S
C242 C299 1.392 . S
C243 C244 1.391 . S
C243 C247 1.397 . S
C243 C299 1.419 . S
C244 C240 1.391 . S
C244 C243 1.391 . S
C244 C245 1.399 . S
C245 C244 1.399 . S
C245 C248 1.396 . S
C245 C257 1.453 . S
C245 C258 1.684 . S
H246 C270 0.948 . S
C247 C243 1.397 . S
C247 C248 1.394 . S
C247 C266 1.723 . S
C248 C245 1.396 . S
C248 C247 1.394 . S
C248 C278 1.723 . S
H249 C272 0.947 . S
H250 C273 0.948 . S
H251 C279 0.982 . S
H252 C280 0.979 . S
H253 C280 0.980 . S
H254 C280 0.983 . S
H255 C279 0.979 . S
H256 C279 0.977 . S
C257 C245 1.453 . S
C257 H286 0.982 . S
C257 H287 0.979 . S
C257 H288 0.977 . S
C258 C245 1.684 . S
C258 H283 0.979 . S
C258 H284 0.980 . S
C258 H285 0.983 . S
C259 C260 1.391 . S
C259 C264 1.391 . S
C259 H289 0.948 . S
C260 C259 1.391 . S
C260 C261 1.391 . S
C261 C260 1.391 . S
C261 C262 1.392 . S
C261 H290 0.947 . S
C262 C261 1.392 . S
C262 C263 1.419 . S
C262 H291 0.948 . S
C263 C262 1.419 . S
C263 C264 1.391 . S
C263 C267 1.397 . S
C264 C259 1.391 . S
C264 C263 1.391 . S
C264 C265 1.399 . S
C265 C264 1.399 . S
C265 C266 1.396 . S
C265 C268 1.453 . S
C265 C269 1.684 . S
C266 C247 1.723 . S
C266 C265 1.396 . S
C266 C267 1.394 . S
C267 C263 1.397 . S
C267 C266 1.394 . S
C267 C277 1.723 . S
C268 C265 1.453 . S
C268 H292 0.982 . S
C268 H293 0.979 . S
C268 H294 0.977 . S
C269 C265 1.684 . S
C269 H295 0.979 . S
C269 H296 0.980 . S
C269 H297 0.983 . S
C270 H246 0.948 . S
C270 C271 1.391 . S
C270 C275 1.391 . S
C271 C270 1.391 . S
C271 C272 1.391 . S
C272 H249 0.947 . S
C272 C271 1.391 . S
C272 C273 1.392 . S
C273 H250 0.948 . S
C273 C272 1.392 . S
C273 C274 1.419 . S
C274 C273 1.419 . S
C274 C275 1.391 . S
C274 C278 1.397 . S
C275 C270 1.391 . S
C275 C274 1.391 . S
C275 C276 1.399 . S
C276 C275 1.399 . S
C276 C277 1.396 . S
C276 C279 1.453 . S
C276 C280 1.684 . S
C277 C267 1.723 . S
C277 C276 1.396 . S
C277 C278 1.394 . S
C278 C248 1.723 . S
C278 C274 1.397 . S
C278 C277 1.394 . S
C279 H251 0.982 . S
C279 H255 0.979 . S
C279 H256 0.977 . S
C279 C276 1.453 . S
C280 H252 0.979 . S
C280 H253 0.980 . S
C280 H254 0.983 . S
C280 C276 1.684 . S
H281 C299 0.948 . S
H282 C240 0.948 . S
H283 C258 0.979 . S
H284 C258 0.980 . S
H285 C258 0.983 . S
H286 C257 0.982 . S
H287 C257 0.979 . S
H288 C257 0.977 . S
H289 C259 0.948 . S
H290 C261 0.947 . S
H291 C262 0.948 . S
H292 C268 0.982 . S
H293 C268 0.979 . S
H294 C268 0.977 . S
H295 C269 0.979 . S
H296 C269 0.980 . S
H297 C269 0.983 . S
H298 C242 0.947 . S
C299 C242 1.392 . S
C299 C243 1.419 . S
C299 H281 0.948 . S
C300 C301 1.391 . S
C300 C304 1.391 . S
C300 H342 0.948 . S
C301 C300 1.391 . S
C301 C302 1.391 . S
C302 C301 1.391 . S
C302 H358 0.947 . S
C302 C359 1.392 . S
C303 C304 1.391 . S
C303 C307 1.397 . S
C303 C359 1.419 . S
C304 C300 1.391 . S
C304 C303 1.391 . S
C304 C305 1.399 . S
C305 C304 1.399 . S
C305 C308 1.396 . S
C305 C317 1.453 . S
C305 C318 1.684 . S
H306 C330 0.948 . S
C307 C303 1.397 . S
C307 C308 1.394 . S
C307 C326 1.723 . S
C308 C305 1.396 . S
C308 C307 1.394 . S
C308 C338 1.723 . S
H309 C332 0.947 . S
H310 C333 0.948 . S
H311 C339 0.982 . S
H312 C340 0.979 . S
H313 C340 0.980 . S
H314 C340 0.983 . S
H315 C339 0.979 . S
H316 C339 0.977 . S
C317 C305 1.453 . S
C317 H346 0.982 . S
C317 H347 0.979 . S
C317 H348 0.977 . S
C318 C305 1.684 . S
C318 H343 0.979 . S
C318 H344 0.980 . S
C318 H345 0.983 . S
C319 C320 1.391 . S
C319 C324 1.391 . S
C319 H349 0.948 . S
C320 C319 1.391 . S
C320 C321 1.391 . S
C321 C320 1.391 . S
C321 C322 1.392 . S
C321 H350 0.947 . S
C322 C321 1.392 . S
C322 C323 1.419 . S
C322 H351 0.948 . S
C323 C322 1.419 . S
C323 C324 1.391 . S
C323 C327 1.397 . S
C324 C319 1.391 . S
C324 C323 1.391 . S
C324 C325 1.399 . S
C325 C324 1.399 . S
C325 C326 1.396 . S
C325 C328 1.453 . S
C325 C329 1.684 . S
C326 C307 1.723 . S
C326 C325 1.396 . S
C326 C327 1.394 . S
C327 C323 1.397 . S
C327 C326 1.394 . S
C327 C337 1.723 . S
C328 C325 1.453 . S
C328 H352 0.982 . S
C328 H353 0.979 . S
C328 H354 0.977 . S
C329 C325 1.684 . S
C329 H355 0.979 . S
C329 H356 0.980 . S
C329 H357 0.983 . S
C330 H306 0.948 . S
C330 C331 1.391 . S
C330 C335 1.391 . S
C331 C330 1.391 . S
C331 C332 1.391 . S
C332 H309 0.947 . S
C332 C331 1.391 . S
C332 C333 1.392 . S
C333 H310 0.948 . S
C333 C332 1.392 . S
C333 C334 1.419 . S
C334 C333 1.419 . S
C334 C335 1.391 . S
C334 C338 1.397 . S
C335 C330 1.391 . S
C335 C334 1.391 . S
C335 C336 1.399 . S
C336 C335 1.399 . S
C336 C337 1.396 . S
C336 C339 1.453 . S
C336 C340 1.684 . S
C337 C327 1.723 . S
C337 C336 1.396 . S
C337 C338 1.394 . S
C338 C308 1.723 . S
C338 C334 1.397 . S
C338 C337 1.394 . S
C339 H311 0.982 . S
C339 H315 0.979 . S
C339 H316 0.977 . S
C339 C336 1.453 . S
C340 H312 0.979 . S
C340 H313 0.980 . S
C340 H314 0.983 . S
C340 C336 1.684 . S
H341 C359 0.948 . S
H342 C300 0.948 . S
H343 C318 0.979 . S
H344 C318 0.980 . S
H345 C318 0.983 . S
H346 C317 0.982 . S
H347 C317 0.979 . S
H348 C317 0.977 . S
H349 C319 0.948 . S
H350 C321 0.947 . S
H351 C322 0.948 . S
H352 C328 0.982 . S
H353 C328 0.979 . S
H354 C328 0.977 . S
H355 C329 0.979 . S
H356 C329 0.980 . S
H357 C329 0.983 . S
H358 C302 0.947 . S
C359 C302 1.392 . S
C359 C303 1.419 . S
C359 H341 0.948 . S
C360 C361 1.391 . S
C360 C364 1.391 . S
C360 H402 0.948 . S
C361 C360 1.391 . S
C361 C362 1.391 . S
C362 C361 1.391 . S
C362 H418 0.947 . S
C362 C419 1.392 . S
C363 C364 1.391 . S
C363 C367 1.397 . S
C363 C419 1.419 . S
C364 C360 1.391 . S
C364 C363 1.391 . S
C364 C365 1.399 . S
C365 C364 1.399 . S
C365 C368 1.396 . S
C365 C377 1.453 . S
C365 C378 1.684 . S
H366 C390 0.948 . S
C367 C363 1.397 . S
C367 C368 1.394 . S
C367 C386 1.723 . S
C368 C365 1.396 . S
C368 C367 1.394 . S
C368 C398 1.723 . S
H369 C392 0.947 . S
H370 C393 0.948 . S
H371 C399 0.982 . S
H372 C400 0.979 . S
H373 C400 0.980 . S
H374 C400 0.983 . S
H375 C399 0.979 . S
H376 C399 0.977 . S
C377 C365 1.453 . S
C377 H406 0.982 . S
C377 H407 0.979 . S
C377 H408 0.977 . S
C378 C365 1.684 . S
C378 H403 0.979 . S
C378 H404 0.980 . S
C378 H405 0.983 . S
C379 C380 1.391 . S
C379 C384 1.391 . S
C379 H409 0.948 . S
C380 C379 1.391 . S
C380 C381 1.391 . S
C381 C380 1.391 . S
C381 C382 1.392 . S
C381 H410 0.947 . S
C382 C381 1.392 . S
C382 C383 1.419 . S
C382 H411 0.948 . S
C383 C382 1.419 . S
C383 C384 1.391 . S
C383 C387 1.397 . S
C384 C379 1.391 . S
C384 C383 1.391 . S
C384 C385 1.399 . S
C385 C384 1.399 . S
C385 C386 1.396 . S
C385 C388 1.453 . S
C385 C389 1.684 . S
C386 C367 1.723 . S
C386 C385 1.396 . S
C386 C387 1.394 . S
C387 C383 1.397 . S
C387 C386 1.394 . S
C387 C397 1.723 . S
C388 C385 1.453 . S
C388 H412 0.982 . S
C388 H413 0.979 . S
C388 H414 0.977 . S
C389 C385 1.684 . S
C389 H415 0.979 . S
C389 H416 0.980 . S
C389 H417 0.983 . S
C390 H366 0.948 . S
C390 C391 1.391 . S
C390 C395 1.391 . S
C391 C390 1.391 . S
C391 C392 1.391 . S
C392 H369 0.947 . S
C392 C391 1.391 . S
C392 C393 1.392 . S
C393 H370 0.948 . S
C393 C392 1.392 . S
C393 C394 1.419 . S
C394 C393 1.419 . S
C394 C395 1.391 . S
C394 C398 1.397 . S
C395 C390 1.391 . S
C395 C394 1.391 . S
C395 C396 1.399 . S
C396 C395 1.399 . S
C396 C397 1.396 . S
C396 C399 1.453 . S
C396 C400 1.684 . S
C397 C387 1.723 . S
C397 C396 1.396 . S
C397 C398 1.394 . S
C398 C368 1.723 . S
C398 C394 1.397 . S
C398 C397 1.394 . S
C399 H371 0.982 . S
C399 H375 0.979 . S
C399 H376 0.977 . S
C399 C396 1.453 . S
C400 H372 0.979 . S
C400 H373 0.980 . S
C400 H374 0.983 . S
C400 C396 1.684 . S
H401 C419 0.948 . S
H402 C360 0.948 . S
H403 C378 0.979 . S
H404 C378 0.980 . S
H405 C378 0.983 . S
H406 C377 0.982 . S
H407 C377 0.979 . S
H408 C377 0.977 . S
H409 C379 0.948 . S
H410 C381 0.947 . S
H411 C382 0.948 . S
H412 C388 0.982 . S
H413 C388 0.979 . S
H414 C388 0.977 . S
H415 C389 0.979 . S
H416 C389 0.980 . S
H417 C389 0.983 . S
H418 C362 0.947 . S
C419 C362 1.392 . S
C419 C363 1.419 . S
C419 H401 0.948 . S
C420 C421 1.391 . S
C420 C424 1.391 . S
C420 H462 0.948 . S
C421 C420 1.391 . S
C421 C422 1.391 . S
C422 C421 1.391 . S
C422 H478 0.947 . S
C422 C479 1.392 . S
C423 C424 1.391 . S
C423 C427 1.397 . S
C423 C479 1.419 . S
C424 C420 1.391 . S
C424 C423 1.391 . S
C424 C425 1.399 . S
C425 C424 1.399 . S
C425 C428 1.396 . S
C425 C437 1.453 . S
C425 C438 1.684 . S
H426 C450 0.948 . S
C427 C423 1.397 . S
C427 C428 1.394 . S
C427 C446 1.723 . S
C428 C425 1.396 . S
C428 C427 1.394 . S
C428 C458 1.723 . S
H429 C452 0.947 . S
H430 C453 0.948 . S
H431 C459 0.982 . S
H432 C460 0.979 . S
H433 C460 0.980 . S
H434 C460 0.983 . S
H435 C459 0.979 . S
H436 C459 0.977 . S
C437 C425 1.453 . S
C437 H466 0.982 . S
C437 H467 0.979 . S
C437 H468 0.977 . S
C438 C425 1.684 . S
C438 H463 0.979 . S
C438 H464 0.980 . S
C438 H465 0.983 . S
C439 C440 1.391 . S
C439 C444 1.391 . S
C439 H469 0.948 . S
C440 C439 1.391 . S
C440 C441 1.391 . S
C441 C440 1.391 . S
C441 C442 1.392 . S
C441 H470 0.947 . S
C442 C441 1.392 . S
C442 C443 1.419 . S
C442 H471 0.948 . S
C443 C442 1.419 . S
C443 C444 1.391 . S
C443 C447 1.397 . S
C444 C439 1.391 . S
C444 C443 1.391 . S
C444 C445 1.399 . S
C445 C444 1.399 . S
C445 C446 1.396 . S
C445 C448 1.453 . S
C445 C449 1.684 . S
C446 C427 1.723 . S
C446 C445 1.396 . S
C446 C447 1.394 . S
C447 C443 1.397 . S
C447 C446 1.394 . S
C447 C457 1.723 . S
C448 C445 1.453 . S
C448 H472 0.982 . S
C448 H473 0.979 . S
C448 H474 0.977 . S
C449 C445 1.684 . S
C449 H475 0.979 . S
C449 H476 0.980 . S
C449 H477 0.983 . S
C450 H426 0.948 . S
C450 C451 1.391 . S
C450 C455 1.391 . S
C451 C450 1.391 . S
C451 C452 1.391 . S
C452 H429 0.947 . S
C452 C451 1.391 . S
C452 C453 1.392 . S
C453 H430 0.948 . S
C453 C452 1.392 . S
C453 C454 1.419 . S
C454 C453 1.419 . S
C454 C455 1.391 . S
C454 C458 1.397 . S
C455 C450 1.391 . S
C455 C454 1.391 . S
C455 C456 1.399 . S
C456 C455 1.399 . S
C456 C457 1.396 . S
C456 C459 1.453 . S
C456 C460 1.684 . S
C457 C447 1.723 . S
C457 C456 1.396 . S
C457 C458 1.394 . S
C458 C428 1.723 . S
C458 C454 1.397 . S
C458 C457 1.394 . S
C459 H431 0.982 . S
C459 H435 0.979 . S
C459 H436 0.977 . S
C459 C456 1.453 . S
C460 H432 0.979 . S
C460 H433 0.980 . S
C460 H434 0.983 . S
C460 C456 1.684 . S
H461 C479 0.948 . S
H462 C420 0.948 . S
H463 C438 0.979 . S
H464 C438 0.980 . S
H465 C438 0.983 . S
H466 C437 0.982 . S
H467 C437 0.979 . S
H468 C437 0.977 . S
H469 C439 0.948 . S
H470 C441 0.947 . S
H471 C442 0.948 . S
H472 C448 0.982 . S
H473 C448 0.979 . S
H474 C448 0.977 . S
H475 C449 0.979 . S
H476 C449 0.980 . S
H477 C449 0.983 . S
H478 C422 0.947 . S
C479 C422 1.392 . S
C479 C423 1.419 . S
C479 H461 0.948 . S
Co480 N485 2.057 . S
Co480 O497 2.021 . S
Co480 O500 2.062 . S
Co480 O504 2.117 1_545 S
Co480 O505 2.020 1_545 S
C481 O501 1.259 1_655 S
C481 O504 1.258 . S
Co482 N491 2.057 . S
Co482 O498 2.117 1_565 S
Co482 O499 2.020 1_565 S
Co482 O501 2.021 . S
Co482 O506 2.062 . S
C483 N485 1.316 . S
C483 N486 1.347 . S
C483 H488 0.931 . S
C484 N485 1.375 1_565 S
C484 C487 1.350 1_565 S
C484 H489 0.930 . S
N485 Co480 2.057 . S
N485 C483 1.316 . S
N485 C484 1.375 1_545 S
N486 C483 1.347 . S
N486 C487 1.373 . S
C487 C484 1.350 1_545 S
C487 N486 1.373 . S
C487 H508 0.931 1_545 S
H488 C483 0.931 . S
H489 C484 0.930 . S
C490 O497 1.259 1_455 S
C490 O498 1.258 . S
N491 Co482 2.057 . S
N491 C492 1.316 . S
N491 C493 1.375 1_565 S
C492 N491 1.316 . S
C492 N494 1.347 . S
C492 H503 0.931 . S
C493 N491 1.375 1_545 S
C493 C495 1.350 1_545 S
C493 H502 0.930 . S
N494 C492 1.347 . S
N494 C495 1.373 . S
C495 C493 1.350 1_565 S
C495 N494 1.373 . S
C495 H509 0.931 1_565 S
C496 O499 1.256 . S
C496 O500 1.255 1_455 S
O497 Co480 2.021 . S
O497 C490 1.259 1_655 S
O498 Co482 2.117 1_545 S
O498 C490 1.258 . S
O499 Co482 2.020 1_545 S
O499 C496 1.256 . S
O500 Co480 2.062 . S
O500 C496 1.255 1_655 S
O501 C481 1.259 1_455 S
O501 Co482 2.021 . S
H502 C493 0.930 . S
H503 C492 0.931 . S
O504 Co480 2.117 1_565 S
O504 C481 1.258 . S
O505 Co480 2.020 1_565 S
O505 C507 1.256 . S
O506 Co482 2.062 . S
O506 C507 1.255 1_455 S
C507 O505 1.256 . S
C507 O506 1.255 1_655 S
H508 C487 0.931 1_565 S
H509 C495 0.931 1_545 S
Co510 N515 2.057 . S
Co510 O527 2.021 1_565 S
Co510 O530 2.062 . S
Co510 O534 2.117 . S
Co510 O535 2.020 1_565 S
C511 O531 1.259 . S
C511 O534 1.258 1_554 S
Co512 N521 2.057 . S
Co512 O528 2.117 . S
Co512 O529 2.020 1_545 S
Co512 O531 2.021 1_545 S
Co512 O536 2.062 . S
C513 N515 1.316 . S
C513 N516 1.347 . S
C513 H518 0.931 1_565 S
C514 N515 1.375 . S
C514 C517 1.350 . S
C514 H519 0.930 . S
N515 Co510 2.057 . S
N515 C513 1.316 . S
N515 C514 1.375 . S
N516 C513 1.347 . S
N516 C517 1.373 . S
C517 C514 1.350 . S
C517 N516 1.373 . S
C517 H538 0.931 . S
H518 C513 0.931 1_545 S
H519 C514 0.930 . S
C520 O527 1.259 . S
C520 O528 1.258 1_556 S
N521 Co512 2.057 . S
N521 C522 1.316 . S
N521 C523 1.375 . S
C522 N521 1.316 . S
C522 N524 1.347 . S
C522 H533 0.931 1_545 S
C523 N521 1.375 . S
C523 C525 1.350 . S
C523 H532 0.930 . S
N524 C522 1.347 . S
N524 C525 1.373 . S
C525 C523 1.350 . S
C525 N524 1.373 . S
C525 H539 0.931 . S
C526 O529 1.256 1_556 S
C526 O530 1.255 . S
O527 Co510 2.021 1_545 S
O527 C520 1.259 . S
O528 Co512 2.117 . S
O528 C520 1.258 1_554 S
O529 Co512 2.020 1_565 S
O529 C526 1.256 1_554 S
O530 Co510 2.062 . S
O530 C526 1.255 . S
O531 C511 1.259 . S
O531 Co512 2.021 1_565 S
H532 C523 0.930 . S
H533 C522 0.931 1_565 S
O534 Co510 2.117 . S
O534 C511 1.258 1_556 S
O535 Co510 2.020 1_545 S
O535 C537 1.256 1_556 S
O536 Co512 2.062 . S
O536 C537 1.255 . S
C537 O535 1.256 1_554 S
C537 O536 1.255 . S
H538 C517 0.931 . S
H539 C525 0.931 . S
Co540 N545 2.057 . S
Co540 O557 2.021 . S
Co540 O560 2.062 . S
Co540 O564 2.117 . S
Co540 O565 2.020 . S
C541 O561 1.259 . S
C541 O564 1.258 . S
Co542 N551 2.057 . S
Co542 O558 2.117 . S
Co542 O559 2.020 . S
Co542 O561 2.021 . S
Co542 O566 2.062 . S
C543 N545 1.316 . S
C543 N546 1.347 . S
C543 H548 0.931 . S
C544 N545 1.375 . S
C544 C547 1.350 . S
C544 H549 0.930 . S
N545 Co540 2.057 . S
N545 C543 1.316 . S
N545 C544 1.375 . S
N546 C543 1.347 . S
N546 C547 1.373 . S
C547 C544 1.350 . S
C547 N546 1.373 . S
C547 H568 0.931 . S
H548 C543 0.931 . S
H549 C544 0.930 . S
C550 O557 1.259 . S
C550 O558 1.258 . S
N551 Co542 2.057 . S
N551 C552 1.316 . S
N551 C553 1.375 . S
C552 N551 1.316 . S
C552 N554 1.347 . S
C552 H563 0.931 . S
C553 N551 1.375 . S
C553 C555 1.350 . S
C553 H562 0.930 . S
N554 C552 1.347 . S
N554 C555 1.373 . S
C555 C553 1.350 . S
C555 N554 1.373 . S
C555 H569 0.931 . S
C556 O559 1.256 . S
C556 O560 1.255 . S
O557 Co540 2.021 . S
O557 C550 1.259 . S
O558 Co542 2.117 . S
O558 C550 1.258 . S
O559 Co542 2.020 . S
O559 C556 1.256 . S
O560 Co540 2.062 . S
O560 C556 1.255 . S
O561 C541 1.259 . S
O561 Co542 2.021 . S
H562 C553 0.930 . S
H563 C552 0.931 . S
O564 Co540 2.117 . S
O564 C541 1.258 . S
O565 Co540 2.020 . S
O565 C567 1.256 . S
O566 Co542 2.062 . S
O566 C567 1.255 . S
C567 O565 1.256 . S
C567 O566 1.255 . S
H568 C547 0.931 . S
H569 C555 0.931 . S
Co570 N575 2.057 . S
Co570 O587 2.021 . S
Co570 O590 2.062 . S
Co570 O594 2.117 1_455 S
Co570 O595 2.020 1_455 S
C571 O591 1.259 1_556 S
C571 O594 1.258 . S
Co572 N581 2.057 . S
Co572 O588 2.117 1_655 S
Co572 O589 2.020 1_655 S
Co572 O591 2.021 . S
Co572 O596 2.062 . S
C573 N575 1.316 . S
C573 N576 1.347 . S
C573 H578 0.931 . S
C574 N575 1.375 1_655 S
C574 C577 1.350 1_655 S
C574 H579 0.930 . S
N575 Co570 2.057 . S
N575 C573 1.316 . S
N575 C574 1.375 1_455 S
N576 C573 1.347 . S
N576 C577 1.373 . S
C577 C574 1.350 1_455 S
C577 N576 1.373 . S
C577 H598 0.931 1_455 S
H578 C573 0.931 . S
H579 C574 0.930 . S
C580 O587 1.259 1_554 S
C580 O588 1.258 . S
N581 Co572 2.057 . S
N581 C582 1.316 . S
N581 C583 1.375 1_655 S
C582 N581 1.316 . S
C582 N584 1.347 . S
C582 H593 0.931 . S
C583 N581 1.375 1_455 S
C583 C585 1.350 1_455 S
C583 H592 0.930 . S
N584 C582 1.347 . S
N584 C585 1.373 . S
C585 C583 1.350 1_655 S
C585 N584 1.373 . S
C585 H599 0.931 1_655 S
C586 O589 1.256 . S
C586 O590 1.255 1_554 S
O587 Co570 2.021 . S
O587 C580 1.259 1_556 S
O588 Co572 2.117 1_455 S
O588 C580 1.258 . S
O589 Co572 2.020 1_455 S
O589 C586 1.256 . S
O590 Co570 2.062 . S
O590 C586 1.255 1_556 S
O591 C571 1.259 1_554 S
O591 Co572 2.021 . S
H592 C583 0.930 . S
H593 C582 0.931 . S
O594 Co570 2.117 1_655 S
O594 C571 1.258 . S
O595 Co570 2.020 1_655 S
O595 C597 1.256 . S
O596 Co572 2.062 . S
O596 C597 1.255 1_554 S
C597 O595 1.256 . S
C597 O596 1.255 1_556 S
H598 C577 0.931 1_655 S
H599 C585 0.931 1_455 S
C600 C601 1.391 . S
C600 C602 1.394 . S
C600 H616 0.931 . S
C601 C600 1.391 . S
C601 C605 1.376 . S
C602 C600 1.394 . S
C602 C603 1.369 . S
C602 C606 1.531 1_545 S
C603 C602 1.369 . S
C603 C604 1.410 . S
C603 C611 1.503 . S
C604 C603 1.410 . S
C604 C605 1.392 . S
C604 C607 1.511 . S
C605 C601 1.376 . S
C605 C604 1.392 . S
C605 H617 0.929 . S
C606 C602 1.531 1_565 S
C606 H618 0.960 . S
C606 H619 0.962 . S
C606 H620 0.960 . S
C607 C604 1.511 . S
C607 H621 0.961 . S
C607 H622 0.961 . S
C607 H623 0.961 . S
C608 C609 1.370 . S
C608 C610 1.363 . S
C608 H624 0.931 1_455 S
C609 C608 1.370 . S
C609 C613 1.408 . S
C610 C608 1.363 . S
C610 C611 1.370 . S
C610 C614 1.524 1_455 S
C611 C603 1.503 . S
C611 C610 1.370 . S
C611 C612 1.403 . S
C612 C611 1.403 . S
C612 C613 1.404 . S
C612 C615 1.539 . S
C613 C609 1.408 . S
C613 C612 1.404 . S
C613 H625 0.930 . S
C614 C610 1.524 1_655 S
C614 H626 0.956 . S
C614 H627 0.961 1_655 S
C614 H628 0.961 . S
C615 C612 1.539 . S
C615 H629 0.958 1_545 S
C615 H630 0.961 . S
C615 H631 0.960 . S
H616 C600 0.931 . S
H617 C605 0.929 . S
H618 C606 0.960 . S
H619 C606 0.962 . S
H620 C606 0.960 . S
H621 C607 0.961 . S
H622 C607 0.961 . S
H623 C607 0.961 . S
H624 C608 0.931 1_655 S
H625 C613 0.930 . S
H626 C614 0.956 . S
H627 C614 0.961 1_455 S
H628 C614 0.961 . S
H629 C615 0.958 1_565 S
H630 C615 0.961 . S
H631 C615 0.960 . S
C632 C633 1.391 . S
C632 C634 1.394 . S
C632 H648 0.931 . S
C633 C632 1.391 . S
C633 C637 1.376 . S
C634 C632 1.394 . S
C634 C635 1.369 . S
C634 C638 1.531 . S
C635 C634 1.369 . S
C635 C636 1.410 . S
C635 C643 1.503 . S
C636 C635 1.410 . S
C636 C637 1.392 . S
C636 C639 1.511 . S
C637 C633 1.376 . S
C637 C636 1.392 . S
C637 H649 0.929 . S
C638 C634 1.531 . S
C638 H650 0.960 . S
C638 H651 0.962 . S
C638 H652 0.960 . S
C639 C636 1.511 . S
C639 H653 0.961 . S
C639 H654 0.961 . S
C639 H655 0.961 . S
C640 C641 1.370 . S
C640 C642 1.363 . S
C640 H656 0.931 . S
C641 C640 1.370 . S
C641 C645 1.408 . S
C642 C640 1.363 . S
C642 C643 1.370 . S
C642 C646 1.524 . S
C643 C635 1.503 . S
C643 C642 1.370 . S
C643 C644 1.403 . S
C644 C643 1.403 . S
C644 C645 1.404 . S
C644 C647 1.539 1_565 S
C645 C641 1.408 . S
C645 C644 1.404 . S
C645 H657 0.930 1_565 S
C646 C642 1.524 . S
C646 H658 0.956 . S
C646 H659 0.961 . S
C646 H660 0.961 . S
C647 C644 1.539 1_545 S
C647 H661 0.958 . S
C647 H662 0.961 . S
C647 H663 0.960 1_545 S
H648 C632 0.931 . S
H649 C637 0.929 . S
H650 C638 0.960 . S
H651 C638 0.962 . S
H652 C638 0.960 . S
H653 C639 0.961 . S
H654 C639 0.961 . S
H655 C639 0.961 . S
H656 C640 0.931 . S
H657 C645 0.930 1_545 S
H658 C646 0.956 . S
H659 C646 0.961 . S
H660 C646 0.961 . S
H661 C647 0.958 . S
H662 C647 0.961 . S
H663 C647 0.960 1_565 S
C664 C665 1.391 . S
C664 C666 1.394 . S
C664 H680 0.931 . S
C665 C664 1.391 . S
C665 C669 1.376 . S
C666 C664 1.394 . S
C666 C667 1.369 . S
C666 C670 1.531 . S
C667 C666 1.369 . S
C667 C668 1.410 . S
C667 C675 1.503 . S
C668 C667 1.410 . S
C668 C669 1.392 . S
C668 C671 1.511 . S
C669 C665 1.376 . S
C669 C668 1.392 . S
C669 H681 0.929 . S
C670 C666 1.531 . S
C670 H682 0.960 . S
C670 H683 0.962 . S
C670 H684 0.960 . S
C671 C668 1.511 . S
C671 H685 0.961 . S
C671 H686 0.961 . S
C671 H687 0.961 . S
C672 C673 1.370 . S
C672 C674 1.363 . S
C672 H688 0.931 . S
C673 C672 1.370 . S
C673 C677 1.408 . S
C674 C672 1.363 . S
C674 C675 1.370 . S
C674 C678 1.524 . S
C675 C667 1.503 . S
C675 C674 1.370 . S
C675 C676 1.403 . S
C676 C675 1.403 . S
C676 C677 1.404 . S
C676 C679 1.539 . S
C677 C673 1.408 . S
C677 C676 1.404 . S
C677 H689 0.930 . S
C678 C674 1.524 . S
C678 H690 0.956 . S
C678 H691 0.961 . S
C678 H692 0.961 . S
C679 C676 1.539 . S
C679 H693 0.958 . S
C679 H694 0.961 . S
C679 H695 0.960 . S
H680 C664 0.931 . S
H681 C669 0.929 . S
H682 C670 0.960 . S
H683 C670 0.962 . S
H684 C670 0.960 . S
H685 C671 0.961 . S
H686 C671 0.961 . S
H687 C671 0.961 . S
H688 C672 0.931 . S
H689 C677 0.930 . S
H690 C678 0.956 . S
H691 C678 0.961 . S
H692 C678 0.961 . S
H693 C679 0.958 . S
H694 C679 0.961 . S
H695 C679 0.960 . S
C696 C697 1.391 . S
C696 C698 1.394 . S
C696 H712 0.931 . S
C697 C696 1.391 . S
C697 C701 1.376 . S
C698 C696 1.394 . S
C698 C699 1.369 . S
C698 C702 1.531 . S
C699 C698 1.369 . S
C699 C700 1.410 . S
C699 C707 1.503 . S
C700 C699 1.410 . S
C700 C701 1.392 . S
C700 C703 1.511 . S
C701 C697 1.376 . S
C701 C700 1.392 . S
C701 H713 0.929 . S
C702 C698 1.531 . S
C702 H714 0.960 . S
C702 H715 0.962 . S
C702 H716 0.960 . S
C703 C700 1.511 . S
C703 H717 0.961 . S
C703 H718 0.961 . S
C703 H719 0.961 . S
C704 C705 1.370 . S
C704 C706 1.363 . S
C704 H720 0.931 . S
C705 C704 1.370 . S
C705 C709 1.408 . S
C706 C704 1.363 . S
C706 C707 1.370 . S
C706 C710 1.524 . S
C707 C699 1.503 . S
C707 C706 1.370 . S
C707 C708 1.403 . S
C708 C707 1.403 . S
C708 C709 1.404 . S
C708 C711 1.539 . S
C709 C705 1.408 . S
C709 C708 1.404 . S
C709 H721 0.930 . S
C710 C706 1.524 . S
C710 H722 0.956 1_655 S
C710 H723 0.961 . S
C710 H724 0.961 1_655 S
C711 C708 1.539 . S
C711 H725 0.958 . S
C711 H726 0.961 . S
C711 H727 0.960 . S
H712 C696 0.931 . S
H713 C701 0.929 . S
H714 C702 0.960 . S
H715 C702 0.962 . S
H716 C702 0.960 . S
H717 C703 0.961 . S
H718 C703 0.961 . S
H719 C703 0.961 . S
H720 C704 0.931 . S
H721 C709 0.930 . S
H722 C710 0.956 1_455 S
H723 C710 0.961 . S
H724 C710 0.961 1_455 S
H725 C711 0.958 . S
H726 C711 0.961 . S
H727 C711 0.960 . S
C728 C729 1.391 . S
C728 C730 1.394 . S
C728 H744 0.931 . S
C729 C728 1.391 . S
C729 C733 1.376 . S
C730 C728 1.394 . S
C730 C731 1.369 . S
C730 C734 1.531 . S
C731 C730 1.369 . S
C731 C732 1.410 . S
C731 C739 1.503 . S
C732 C731 1.410 . S
C732 C733 1.392 . S
C732 C735 1.511 1_545 S
C733 C729 1.376 . S
C733 C732 1.392 . S
C733 H745 0.929 . S
C734 C730 1.531 . S
C734 H746 0.960 . S
C734 H747 0.962 . S
C734 H748 0.960 . S
C735 C732 1.511 1_565 S
C735 H749 0.961 . S
C735 H750 0.961 . S
C735 H751 0.961 . S
C736 C737 1.370 . S
C736 C738 1.363 . S
C736 H752 0.931 1_554 S
C737 C736 1.370 . S
C737 C741 1.408 . S
C738 C736 1.363 . S
C738 C739 1.370 . S
C738 C742 1.524 1_554 S
C739 C731 1.503 . S
C739 C738 1.370 . S
C739 C740 1.403 . S
C740 C739 1.403 . S
C740 C741 1.404 . S
C740 C743 1.539 . S
C741 C737 1.408 . S
C741 C740 1.404 . S
C741 H753 0.930 . S
C742 C738 1.524 1_556 S
C742 H754 0.956 1_556 S
C742 H755 0.961 . S
C742 H756 0.961 . S
C743 C740 1.539 . S
C743 H757 0.958 . S
C743 H758 0.961 1_545 S
C743 H759 0.960 . S
H744 C728 0.931 . S
H745 C733 0.929 . S
H746 C734 0.960 . S
H747 C734 0.962 . S
H748 C734 0.960 . S
H749 C735 0.961 . S
H750 C735 0.961 . S
H751 C735 0.961 . S
H752 C736 0.931 1_556 S
H753 C741 0.930 . S
H754 C742 0.956 1_554 S
H755 C742 0.961 . S
H756 C742 0.961 . S
H757 C743 0.958 . S
H758 C743 0.961 1_565 S
H759 C743 0.960 . S
C760 C761 1.391 . S
C760 C762 1.394 . S
C760 H776 0.931 . S
C761 C760 1.391 . S
C761 C765 1.376 . S
C762 C760 1.394 . S
C762 C763 1.369 . S
C762 C766 1.531 . S
C763 C762 1.369 . S
C763 C764 1.410 . S
C763 C771 1.503 . S
C764 C763 1.410 . S
C764 C765 1.392 . S
C764 C767 1.511 . S
C765 C761 1.376 . S
C765 C764 1.392 . S
C765 H777 0.929 . S
C766 C762 1.531 . S
C766 H778 0.960 . S
C766 H779 0.962 . S
C766 H780 0.960 . S
C767 C764 1.511 . S
C767 H781 0.961 . S
C767 H782 0.961 . S
C767 H783 0.961 . S
C768 C769 1.370 . S
C768 C770 1.363 . S
C768 H784 0.931 . S
C769 C768 1.370 . S
C769 C773 1.408 . S
C770 C768 1.363 . S
C770 C771 1.370 . S
C770 C774 1.524 . S
C771 C763 1.503 . S
C771 C770 1.370 . S
C771 C772 1.403 . S
C772 C771 1.403 . S
C772 C773 1.404 . S
C772 C775 1.539 . S
C773 C769 1.408 . S
C773 C772 1.404 . S
C773 H785 0.930 . S
C774 C770 1.524 . S
C774 H786 0.956 . S
C774 H787 0.961 . S
C774 H788 0.961 . S
C775 C772 1.539 . S
C775 H789 0.958 . S
C775 H790 0.961 . S
C775 H791 0.960 . S
H776 C760 0.931 . S
H777 C765 0.929 . S
H778 C766 0.960 . S
H779 C766 0.962 . S
H780 C766 0.960 . S
H781 C767 0.961 . S
H782 C767 0.961 . S
H783 C767 0.961 . S
H784 C768 0.931 . S
H785 C773 0.930 . S
H786 C774 0.956 . S
H787 C774 0.961 . S
H788 C774 0.961 . S
H789 C775 0.958 . S
H790 C775 0.961 . S
H791 C775 0.960 . S
C792 C793 1.391 . S
C792 C794 1.394 . S
C792 H808 0.931 . S
C793 C792 1.391 . S
C793 C797 1.376 . S
C794 C792 1.394 . S
C794 C795 1.369 . S
C794 C798 1.531 . S
C795 C794 1.369 . S
C795 C796 1.410 . S
C795 C803 1.503 . S
C796 C795 1.410 . S
C796 C797 1.392 . S
C796 C799 1.511 1_556 S
C797 C793 1.376 . S
C797 C796 1.392 . S
C797 H809 0.929 . S
C798 C794 1.531 . S
C798 H810 0.960 . S
C798 H811 0.962 . S
C798 H812 0.960 . S
C799 C796 1.511 1_554 S
C799 H813 0.961 . S
C799 H814 0.961 . S
C799 H815 0.961 . S
C800 C801 1.370 . S
C800 C802 1.363 . S
C800 H816 0.931 . S
C801 C800 1.370 . S
C801 C805 1.408 . S
C802 C800 1.363 . S
C802 C803 1.370 . S
C802 C806 1.524 . S
C803 C795 1.503 . S
C803 C802 1.370 . S
C803 C804 1.403 . S
C804 C803 1.403 . S
C804 C805 1.404 . S
C804 C807 1.539 . S
C805 C801 1.408 . S
C805 C804 1.404 . S
C805 H817 0.930 . S
C806 C802 1.524 . S
C806 H818 0.956 . S
C806 H819 0.961 . S
C806 H820 0.961 . S
C807 C804 1.539 . S
C807 H821 0.958 . S
C807 H822 0.961 . S
C807 H823 0.960 . S
H808 C792 0.931 . S
H809 C797 0.929 . S
H810 C798 0.960 . S
H811 C798 0.962 . S
H812 C798 0.960 . S
H813 C799 0.961 . S
H814 C799 0.961 . S
H815 C799 0.961 . S
H816 C800 0.931 . S
H817 C805 0.930 . S
H818 C806 0.956 . S
H819 C806 0.961 . S
H820 C806 0.961 . S
H821 C807 0.958 . S
H822 C807 0.961 . S
H823 C807 0.960 . S
C824 C825 1.391 . S
C824 C826 1.394 . S
C824 H840 0.931 . S
C825 C824 1.391 . S
C825 C829 1.376 . S
C826 C824 1.394 . S
C826 C827 1.369 . S
C826 C830 1.531 . S
C827 C826 1.369 . S
C827 C828 1.410 . S
C827 C835 1.503 . S
C828 C827 1.410 . S
C828 C829 1.392 . S
C828 C831 1.511 . S
C829 C825 1.376 . S
C829 C828 1.392 . S
C829 H841 0.929 . S
C830 C826 1.531 . S
C830 H842 0.960 . S
C830 H843 0.962 . S
C830 H844 0.960 . S
C831 C828 1.511 . S
C831 H845 0.961 . S
C831 H846 0.961 . S
C831 H847 0.961 . S
C832 C833 1.370 . S
C832 C834 1.363 . S
C832 H848 0.931 . S
C833 C832 1.370 . S
C833 C837 1.408 . S
C834 C832 1.363 . S
C834 C835 1.370 . S
C834 C838 1.524 . S
C835 C827 1.503 . S
C835 C834 1.370 . S
C835 C836 1.403 . S
C836 C835 1.403 . S
C836 C837 1.404 . S
C836 C839 1.539 . S
C837 C833 1.408 . S
C837 C836 1.404 . S
C837 H849 0.930 . S
C838 C834 1.524 . S
C838 H850 0.956 . S
C838 H851 0.961 . S
C838 H852 0.961 . S
C839 C836 1.539 . S
C839 H853 0.958 . S
C839 H854 0.961 . S
C839 H855 0.960 . S
H840 C824 0.931 . S
H841 C829 0.929 . S
H842 C830 0.960 . S
H843 C830 0.962 . S
H844 C830 0.960 . S
H845 C831 0.961 . S
H846 C831 0.961 . S
H847 C831 0.961 . S
H848 C832 0.931 . S
H849 C837 0.930 . S
H850 C838 0.956 . S
H851 C838 0.961 . S
H852 C838 0.961 . S
H853 C839 0.958 . S
H854 C839 0.961 . S
H855 C839 0.960 . S
C856 C857 1.391 . S
C856 C858 1.394 . S
C856 H872 0.931 . S
C857 C856 1.391 . S
C857 C861 1.376 . S
C858 C856 1.394 . S
C858 C859 1.369 . S
C858 C862 1.531 . S
C859 C858 1.369 . S
C859 C860 1.410 . S
C859 C867 1.503 . S
C860 C859 1.410 . S
C860 C861 1.392 . S
C860 C863 1.511 . S
C861 C857 1.376 . S
C861 C860 1.392 . S
C861 H873 0.929 . S
C862 C858 1.531 . S
C862 H874 0.960 1_554 S
C862 H875 0.962 . S
C862 H876 0.960 1_554 S
C863 C860 1.511 . S
C863 H877 0.961 1_455 S
C863 H878 0.961 . S
C863 H879 0.961 1_455 S
C864 C865 1.370 . S
C864 C866 1.363 . S
C864 H880 0.931 . S
C865 C864 1.370 . S
C865 C869 1.408 . S
C866 C864 1.363 . S
C866 C867 1.370 . S
C866 C870 1.524 . S
C867 C859 1.503 . S
C867 C866 1.370 . S
C867 C868 1.403 . S
C868 C867 1.403 . S
C868 C869 1.404 . S
C868 C871 1.539 1_554 S
C869 C865 1.408 . S
C869 C868 1.404 . S
C869 H881 0.930 1_554 S
C870 C866 1.524 . S
C870 H882 0.956 . S
C870 H883 0.961 . S
C870 H884 0.961 . S
C871 C868 1.539 1_556 S
C871 H885 0.958 . S
C871 H886 0.961 1_455 S
C871 H887 0.960 . S
H872 C856 0.931 . S
H873 C861 0.929 . S
H874 C862 0.960 1_556 S
H875 C862 0.962 . S
H876 C862 0.960 1_556 S
H877 C863 0.961 1_655 S
H878 C863 0.961 . S
H879 C863 0.961 1_655 S
H880 C864 0.931 . S
H881 C869 0.930 1_556 S
H882 C870 0.956 . S
H883 C870 0.961 . S
H884 C870 0.961 . S
H885 C871 0.958 . S
H886 C871 0.961 1_655 S
H887 C871 0.960 . S
C888 C889 1.391 . S
C888 C890 1.394 . S
C888 H904 0.931 . S
C889 C888 1.391 . S
C889 C893 1.376 . S
C890 C888 1.394 . S
C890 C891 1.369 . S
C890 C894 1.531 . S
C891 C890 1.369 . S
C891 C892 1.410 . S
C891 C899 1.503 . S
C892 C891 1.410 . S
C892 C893 1.392 . S
C892 C895 1.511 . S
C893 C889 1.376 . S
C893 C892 1.392 . S
C893 H905 0.929 . S
C894 C890 1.531 . S
C894 H906 0.960 . S
C894 H907 0.962 . S
C894 H908 0.960 . S
C895 C892 1.511 . S
C895 H909 0.961 1_556 S
C895 H910 0.961 . S
C895 H911 0.961 . S
C896 C897 1.370 . S
C896 C898 1.363 . S
C896 H912 0.931 . S
C897 C896 1.370 . S
C897 C901 1.408 . S
C898 C896 1.363 . S
C898 C899 1.370 . S
C898 C902 1.524 . S
C899 C891 1.503 . S
C899 C898 1.370 . S
C899 C900 1.403 . S
C900 C899 1.403 . S
C900 C901 1.404 . S
C900 C903 1.539 . S
C901 C897 1.408 . S
C901 C900 1.404 . S
C901 H913 0.930 . S
C902 C898 1.524 . S
C902 H914 0.956 . S
C902 H915 0.961 . S
C902 H916 0.961 . S
C903 C900 1.539 . S
C903 H917 0.958 . S
C903 H918 0.961 . S
C903 H919 0.960 . S
H904 C888 0.931 . S
H905 C893 0.929 . S
H906 C894 0.960 . S
H907 C894 0.962 . S
H908 C894 0.960 . S
H909 C895 0.961 1_554 S
H910 C895 0.961 . S
H911 C895 0.961 . S
H912 C896 0.931 . S
H913 C901 0.930 . S
H914 C902 0.956 . S
H915 C902 0.961 . S
H916 C902 0.961 . S
H917 C903 0.958 . S
H918 C903 0.961 . S
H919 C903 0.960 . S
C920 C921 1.391 . S
C920 C922 1.394 . S
C920 H936 0.931 . S
C921 C920 1.391 . S
C921 C925 1.376 . S
C922 C920 1.394 . S
C922 C923 1.369 . S
C922 C926 1.531 . S
C923 C922 1.369 . S
C923 C924 1.410 . S
C923 C931 1.503 . S
C924 C923 1.410 . S
C924 C925 1.392 . S
C924 C927 1.511 1_655 S
C925 C921 1.376 . S
C925 C924 1.392 . S
C925 H937 0.929 . S
C926 C922 1.531 . S
C926 H938 0.960 . S
C926 H939 0.962 . S
C926 H940 0.960 . S
C927 C924 1.511 1_455 S
C927 H941 0.961 . S
C927 H942 0.961 . S
C927 H943 0.961 . S
C928 C929 1.370 . S
C928 C930 1.363 . S
C928 H944 0.931 . S
C929 C928 1.370 . S
C929 C933 1.408 . S
C930 C928 1.363 . S
C930 C931 1.370 . S
C930 C934 1.524 . S
C931 C923 1.503 . S
C931 C930 1.370 . S
C931 C932 1.403 . S
C932 C931 1.403 . S
C932 C933 1.404 . S
C932 C935 1.539 . S
C933 C929 1.408 . S
C933 C932 1.404 . S
C933 H945 0.930 . S
C934 C930 1.524 . S
C934 H946 0.956 . S
C934 H947 0.961 . S
C934 H948 0.961 . S
C935 C932 1.539 . S
C935 H949 0.958 . S
C935 H950 0.961 1_655 S
C935 H951 0.949 1_655 S
H936 C920 0.931 . S
H937 C925 0.929 . S
H938 C926 0.960 . S
H939 C926 0.962 . S
H940 C926 0.960 . S
H941 C927 0.961 . S
H942 C927 0.961 . S
H943 C927 0.961 . S
H944 C928 0.931 . S
H945 C933 0.930 . S
H946 C934 0.956 . S
H947 C934 0.961 . S
H948 C934 0.961 . S
H949 C935 0.958 . S
H950 C935 0.961 1_455 S
H951 C935 0.949 1_455 S
C952 C953 1.391 . S
C952 C954 1.394 . S
C952 H968 0.931 . S
C953 C952 1.391 . S
C953 C957 1.376 . S
C954 C952 1.394 . S
C954 C955 1.369 . S
C954 C958 1.531 . S
C955 C954 1.369 . S
C955 C956 1.410 . S
C955 C963 1.503 . S
C956 C955 1.410 . S
C956 C957 1.392 . S
C956 C959 1.511 . S
C957 C953 1.376 . S
C957 C956 1.392 . S
C957 H969 0.929 . S
C958 C954 1.531 . S
C958 H970 0.960 . S
C958 H971 0.962 . S
C958 H972 0.960 . S
C959 C956 1.511 . S
C959 H973 0.961 . S
C959 H974 0.961 . S
C959 H975 0.961 . S
C960 C961 1.370 . S
C960 C962 1.363 . S
C960 H976 0.931 . S
C961 C960 1.370 . S
C961 C965 1.408 . S
C962 C960 1.363 . S
C962 C963 1.370 . S
C962 C966 1.524 . S
C963 C955 1.503 . S
C963 C962 1.370 . S
C963 C964 1.403 . S
C964 C963 1.403 . S
C964 C965 1.404 . S
C964 C967 1.539 . S
C965 C961 1.408 . S
C965 C964 1.404 . S
C965 H977 0.930 . S
C966 C962 1.524 . S
C966 H978 0.956 . S
C966 H979 0.961 . S
C966 H980 0.961 . S
C967 C964 1.539 . S
C967 H981 0.958 . S
C967 H982 0.961 . S
C967 H983 0.960 . S
H968 C952 0.931 . S
H969 C957 0.929 . S
H970 C958 0.960 . S
H971 C958 0.962 . S
H972 C958 0.960 . S
H973 C959 0.961 . S
H974 C959 0.961 . S
H975 C959 0.961 . S
H976 C960 0.931 . S
H977 C965 0.930 . S
H978 C966 0.956 . S
H979 C966 0.961 . S
H980 C966 0.961 . S
H981 C967 0.958 . S
H982 C967 0.961 . S
H983 C967 0.960 . S
C984 C985 1.391 . S
C984 C986 1.394 . S
C984 H1000 0.931 . S
C985 C984 1.391 . S
C985 C989 1.376 . S
C986 C984 1.394 . S
C986 C987 1.369 . S
C986 C990 1.531 . S
C987 C986 1.369 . S
C987 C988 1.410 . S
C987 C995 1.503 . S
C988 C987 1.410 . S
C988 C989 1.392 . S
C988 C991 1.511 . S
C989 C985 1.376 . S
C989 C988 1.392 . S
C989 H1001 0.929 . S
C990 C986 1.531 . S
C990 H1002 0.960 . S
C990 H1003 0.962 1_655 S
C990 H1004 0.960 1_655 S
C991 C988 1.511 . S
C991 H1005 0.961 . S
C991 H1006 0.961 . S
C991 H1007 0.961 . S
C992 C993 1.370 . S
C992 C994 1.363 . S
C992 H1008 0.931 1_565 S
C993 C992 1.370 . S
C993 C997 1.408 . S
C994 C992 1.363 . S
C994 C995 1.370 . S
C994 C998 1.524 1_565 S
C995 C987 1.503 . S
C995 C994 1.370 . S
C995 C996 1.403 . S
C996 C995 1.403 . S
C996 C997 1.404 . S
C996 C999 1.539 . S
C997 C993 1.408 . S
C997 C996 1.404 . S
C997 H1009 0.930 . S
C998 C994 1.524 1_545 S
C998 H1010 0.956 . S
C998 H1011 0.961 . S
C998 H1012 0.961 . S
C999 C996 1.539 . S
C999 H1013 0.958 . S
C999 H1014 0.961 . S
C999 H1015 0.960 . S
H1000 C984 0.931 . S
H1001 C989 0.929 . S
H1002 C990 0.960 . S
H1003 C990 0.962 1_455 S
H1004 C990 0.960 1_455 S
H1005 C991 0.961 . S
H1006 C991 0.961 . S
H1007 C991 0.961 . S
H1008 C992 0.931 1_545 S
H1009 C997 0.930 . S
H1010 C998 0.956 . S
H1011 C998 0.961 . S
H1012 C998 0.961 . S
H1013 C999 0.958 . S
H1014 C999 0.961 . S
H1015 C999 0.960 . S
C1016 C1017 1.391 . S
C1016 C1018 1.394 . S
C1016 H1032 0.931 . S
C1017 C1016 1.391 . S
C1017 C1021 1.376 . S
C1018 C1016 1.394 . S
C1018 C1019 1.369 . S
C1018 C1022 1.531 . S
C1019 C1018 1.369 . S
C1019 C1020 1.410 . S
C1019 C1027 1.503 . S
C1020 C1019 1.410 . S
C1020 C1021 1.392 . S
C1020 C1023 1.511 . S
C1021 C1017 1.376 . S
C1021 C1020 1.392 . S
C1021 H1033 0.929 . S
C1022 C1018 1.531 . S
C1022 H1034 0.960 . S
C1022 H1035 0.962 . S
C1022 H1036 0.960 . S
C1023 C1020 1.511 . S
C1023 H1037 0.961 . S
C1023 H1038 0.961 . S
C1023 H1039 0.961 . S
C1024 C1025 1.370 . S
C1024 C1026 1.363 . S
C1024 H1040 0.931 . S
C1025 C1024 1.370 . S
C1025 C1029 1.408 . S
C1026 C1024 1.363 . S
C1026 C1027 1.370 . S
C1026 C1030 1.524 . S
C1027 C1019 1.503 . S
C1027 C1026 1.370 . S
C1027 C1028 1.403 . S
C1028 C1027 1.403 . S
C1028 C1029 1.404 . S
C1028 C1031 1.539 1_545 S
C1029 C1025 1.408 . S
C1029 C1028 1.404 . S
C1029 H1041 0.930 1_545 S
C1030 C1026 1.524 . S
C1030 H1042 0.956 . S
C1030 H1043 0.961 . S
C1030 H1044 0.961 . S
C1031 C1028 1.539 1_565 S
C1031 H1045 0.958 . S
C1031 H1046 0.961 . S
C1031 H1047 0.960 1_565 S
H1032 C1016 0.931 . S
H1033 C1021 0.929 . S
H1034 C1022 0.960 . S
H1035 C1022 0.962 . S
H1036 C1022 0.960 . S
H1037 C1023 0.961 . S
H1038 C1023 0.961 . S
H1039 C1023 0.961 . S
H1040 C1024 0.931 . S
H1041 C1029 0.930 1_565 S
H1042 C1030 0.956 . S
H1043 C1030 0.961 . S
H1044 C1030 0.961 . S
H1045 C1031 0.958 . S
H1046 C1031 0.961 . S
H1047 C1031 0.960 1_545 S
C1048 C1049 1.391 . S
C1048 C1050 1.394 . S
C1048 H1064 0.931 . S
C1049 C1048 1.391 . S
C1049 C1053 1.376 . S
C1050 C1048 1.394 . S
C1050 C1051 1.369 . S
C1050 C1054 1.531 . S
C1051 C1050 1.369 . S
C1051 C1052 1.410 . S
C1051 C1059 1.503 . S
C1052 C1051 1.410 . S
C1052 C1053 1.392 . S
C1052 C1055 1.511 . S
C1053 C1049 1.376 . S
C1053 C1052 1.392 . S
C1053 H1065 0.929 . S
C1054 C1050 1.531 . S
C1054 H1066 0.960 . S
C1054 H1067 0.962 . S
C1054 H1068 0.960 . S
C1055 C1052 1.511 . S
C1055 H1069 0.961 . S
C1055 H1070 0.961 . S
C1055 H1071 0.961 . S
C1056 C1057 1.370 . S
C1056 C1058 1.363 . S
C1056 H1072 0.931 . S
C1057 C1056 1.370 . S
C1057 C1061 1.408 . S
C1058 C1056 1.363 . S
C1058 C1059 1.370 . S
C1058 C1062 1.524 . S
C1059 C1051 1.503 . S
C1059 C1058 1.370 . S
C1059 C1060 1.403 . S
C1060 C1059 1.403 . S
C1060 C1061 1.404 . S
C1060 C1063 1.539 . S
C1061 C1057 1.408 . S
C1061 C1060 1.404 . S
C1061 H1073 0.930 . S
C1062 C1058 1.524 . S
C1062 H1074 0.956 . S
C1062 H1075 0.961 . S
C1062 H1076 0.961 . S
C1063 C1060 1.539 . S
C1063 H1077 0.958 . S
C1063 H1078 0.961 . S
C1063 H1079 0.960 . S
H1064 C1048 0.931 . S
H1065 C1053 0.929 . S
H1066 C1054 0.960 . S
H1067 C1054 0.962 . S
H1068 C1054 0.960 . S
H1069 C1055 0.961 . S
H1070 C1055 0.961 . S
H1071 C1055 0.961 . S
H1072 C1056 0.931 . S
H1073 C1061 0.930 . S
H1074 C1062 0.956 . S
H1075 C1062 0.961 . S
H1076 C1062 0.961 . S
H1077 C1063 0.958 . S
H1078 C1063 0.961 . S
H1079 C1063 0.960 . S
C1080 C1081 1.391 . S
C1080 C1082 1.394 . S
C1080 H1096 0.931 . S
C1081 C1080 1.391 . S
C1081 C1085 1.376 . S
C1082 C1080 1.394 . S
C1082 C1083 1.369 . S
C1082 C1086 1.550 . S
C1083 C1082 1.369 . S
C1083 C1084 1.410 . S
C1083 C1091 1.503 . S
C1084 C1083 1.410 . S
C1084 C1085 1.392 . S
C1084 C1087 1.511 . S
C1085 C1081 1.376 . S
C1085 C1084 1.392 . S
C1085 H1097 0.929 . S
C1086 C1082 1.550 . S
C1086 H1098 0.967 . S
C1086 H1099 0.947 1_455 S
C1086 H1100 0.951 1_455 S
C1087 C1084 1.511 . S
C1087 H1101 0.961 . S
C1087 H1102 0.961 . S
C1087 H1103 0.961 . S
C1088 C1089 1.370 . S
C1088 C1090 1.363 . S
C1088 H1104 0.931 . S
C1089 C1088 1.370 . S
C1089 C1093 1.408 . S
C1090 C1088 1.363 . S
C1090 C1091 1.370 . S
C1090 C1094 1.524 . S
C1091 C1083 1.503 . S
C1091 C1090 1.370 . S
C1091 C1092 1.403 . S
C1092 C1091 1.403 . S
C1092 C1093 1.404 . S
C1092 C1095 1.539 . S
C1093 C1089 1.408 . S
C1093 C1092 1.404 . S
C1093 H1105 0.930 . S
C1094 C1090 1.524 . S
C1094 H1106 0.956 . S
C1094 H1107 0.961 . S
C1094 H1108 0.961 . S
C1095 C1092 1.539 . S
C1095 H1109 0.958 . S
C1095 H1110 0.961 . S
C1095 H1111 0.960 . S
H1096 C1080 0.931 . S
H1097 C1085 0.929 . S
H1098 C1086 0.967 . S
H1099 C1086 0.947 1_655 S
H1100 C1086 0.951 1_655 S
H1101 C1087 0.961 . S
H1102 C1087 0.961 . S
H1103 C1087 0.961 . S
H1104 C1088 0.931 . S
H1105 C1093 0.930 . S
H1106 C1094 0.956 . S
H1107 C1094 0.961 . S
H1108 C1094 0.961 . S
H1109 C1095 0.958 . S
H1110 C1095 0.961 . S
H1111 C1095 0.960 . S
C1112 C1113 1.391 . S
C1112 C1114 1.394 . S
C1112 H1128 0.931 . S
C1113 C1112 1.391 . S
C1113 C1117 1.376 . S
C1114 C1112 1.394 . S
C1114 C1115 1.369 . S
C1114 C1118 1.531 . S
C1115 C1114 1.369 . S
C1115 C1116 1.410 . S
C1115 C1123 1.503 . S
C1116 C1115 1.410 . S
C1116 C1117 1.392 . S
C1116 C1119 1.511 . S
C1117 C1113 1.376 . S
C1117 C1116 1.392 . S
C1117 H1129 0.929 . S
C1118 C1114 1.531 . S
C1118 H1130 0.960 . S
C1118 H1131 0.962 . S
C1118 H1132 0.960 . S
C1119 C1116 1.511 . S
C1119 H1133 0.961 1_565 S
C1119 H1134 0.961 . S
C1119 H1135 0.961 1_556 S
C1120 C1121 1.370 . S
C1120 C1122 1.363 . S
C1120 H1136 0.931 . S
C1121 C1120 1.370 . S
C1121 C1125 1.408 . S
C1122 C1120 1.363 . S
C1122 C1123 1.370 . S
C1122 C1126 1.524 . S
C1123 C1115 1.503 . S
C1123 C1122 1.370 . S
C1123 C1124 1.403 . S
C1124 C1123 1.403 . S
C1124 C1125 1.404 . S
C1124 C1127 1.539 1_556 S
C1125 C1121 1.408 . S
C1125 C1124 1.404 . S
C1125 H1137 0.930 1_556 S
C1126 C1122 1.524 . S
C1126 H1138 0.956 . S
C1126 H1139 0.966 . S
C1126 H1140 0.961 1_565 S
C1127 C1124 1.539 1_554 S
C1127 H1141 0.958 . S
C1127 H1142 0.961 . S
C1127 H1143 0.960 . S
H1128 C1112 0.931 . S
H1129 C1117 0.929 . S
H1130 C1118 0.960 . S
H1131 C1118 0.962 . S
H1132 C1118 0.960 . S
H1133 C1119 0.961 1_545 S
H1134 C1119 0.961 . S
H1135 C1119 0.961 1_554 S
H1136 C1120 0.931 . S
H1137 C1125 0.930 1_554 S
H1138 C1126 0.956 . S
H1139 C1126 0.966 . S
H1140 C1126 0.961 1_545 S
H1141 C1127 0.958 . S
H1142 C1127 0.961 . S
H1143 C1127 0.960 . S
C1144 C1145 1.391 . S
C1144 C1146 1.394 . S
C1144 H1160 0.931 . S
C1145 C1144 1.391 . S
C1145 C1149 1.376 . S
C1146 C1144 1.394 . S
C1146 C1147 1.369 . S
C1146 C1150 1.531 . S
C1147 C1146 1.369 . S
C1147 C1148 1.410 . S
C1147 C1155 1.503 . S
C1148 C1147 1.410 . S
C1148 C1149 1.392 . S
C1148 C1151 1.511 . S
C1149 C1145 1.376 . S
C1149 C1148 1.392 . S
C1149 H1161 0.929 . S
C1150 C1146 1.531 . S
C1150 H1162 0.960 . S
C1150 H1163 0.962 . S
C1150 H1164 0.960 . S
C1151 C1148 1.511 . S
C1151 H1165 0.961 . S
C1151 H1166 0.961 . S
C1151 H1167 0.961 . S
C1152 C1153 1.370 . S
C1152 C1154 1.363 . S
C1152 H1168 0.931 . S
C1153 C1152 1.370 . S
C1153 C1157 1.408 . S
C1154 C1152 1.363 . S
C1154 C1155 1.370 . S
C1154 C1158 1.524 . S
C1155 C1147 1.503 . S
C1155 C1154 1.370 . S
C1155 C1156 1.403 . S
C1156 C1155 1.403 . S
C1156 C1157 1.404 . S
C1156 C1159 1.539 . S
C1157 C1153 1.408 . S
C1157 C1156 1.404 . S
C1157 H1169 0.930 . S
C1158 C1154 1.524 . S
C1158 H1170 0.956 . S
C1158 H1171 0.961 . S
C1158 H1172 0.961 . S
C1159 C1156 1.539 . S
C1159 H1173 0.958 . S
C1159 H1174 0.961 . S
C1159 H1175 0.960 . S
H1160 C1144 0.931 . S
H1161 C1149 0.929 . S
H1162 C1150 0.960 . S
H1163 C1150 0.962 . S
H1164 C1150 0.960 . S
H1165 C1151 0.961 . S
H1166 C1151 0.961 . S
H1167 C1151 0.961 . S
H1168 C1152 0.931 . S
H1169 C1157 0.930 . S
H1170 C1158 0.956 . S
H1171 C1158 0.961 . S
H1172 C1158 0.961 . S
H1173 C1159 0.958 . S
H1174 C1159 0.961 . S
H1175 C1159 0.960 . S
C1176 C1177 1.391 . S
C1176 C1178 1.394 . S
C1176 H1192 0.931 . S
C1177 C1176 1.391 . S
C1177 C1181 1.376 . S
C1178 C1176 1.394 . S
C1178 C1179 1.369 . S
C1178 C1182 1.531 . S
C1179 C1178 1.369 . S
C1179 C1180 1.410 . S
C1179 C1187 1.503 . S
C1180 C1179 1.410 . S
C1180 C1181 1.392 . S
C1180 C1183 1.511 . S
C1181 C1177 1.376 . S
C1181 C1180 1.392 . S
C1181 H1193 0.929 . S
C1182 C1178 1.531 . S
C1182 H1194 0.960 . S
C1182 H1195 0.962 . S
C1182 H1196 0.960 . S
C1183 C1180 1.511 . S
C1183 H1197 0.961 . S
C1183 H1198 0.961 . S
C1183 H1199 0.961 . S
C1184 C1185 1.370 . S
C1184 C1186 1.363 . S
C1184 H1200 0.931 1_554 S
C1185 C1184 1.370 . S
C1185 C1189 1.408 . S
C1186 C1184 1.363 . S
C1186 C1187 1.370 . S
C1186 C1190 1.538 . S
C1187 C1179 1.503 . S
C1187 C1186 1.370 . S
C1187 C1188 1.403 . S
C1188 C1187 1.403 . S
C1188 C1189 1.404 . S
C1188 C1191 1.539 . S
C1189 C1185 1.408 . S
C1189 C1188 1.404 . S
C1189 H1201 0.930 . S
C1190 C1186 1.538 . S
C1190 H1202 0.948 1_554 S
C1190 H1203 0.975 . S
C1190 H1204 0.941 1_554 S
C1191 C1188 1.539 . S
C1191 H1205 0.958 . S
C1191 H1206 0.961 . S
C1191 H1207 0.960 . S
H1192 C1176 0.931 . S
H1193 C1181 0.929 . S
H1194 C1182 0.960 . S
H1195 C1182 0.962 . S
H1196 C1182 0.960 . S
H1197 C1183 0.961 . S
H1198 C1183 0.961 . S
H1199 C1183 0.961 . S
H1200 C1184 0.931 1_556 S
H1201 C1189 0.930 . S
H1202 C1190 0.948 1_556 S
H1203 C1190 0.975 . S
H1204 C1190 0.941 1_556 S
H1205 C1191 0.958 . S
H1206 C1191 0.961 . S
H1207 C1191 0.960 . S
C1208 C1209 1.391 . S
C1208 C1210 1.394 . S
C1208 H1224 0.931 . S
C1209 C1208 1.391 . S
C1209 C1213 1.376 . S
C1210 C1208 1.394 . S
C1210 C1211 1.369 . S
C1210 C1214 1.531 . S
C1211 C1210 1.369 . S
C1211 C1212 1.410 . S
C1211 C1219 1.503 . S
C1212 C1211 1.410 . S
C1212 C1213 1.392 . S
C1212 C1215 1.511 . S
C1213 C1209 1.376 . S
C1213 C1212 1.392 . S
C1213 H1225 0.929 . S
C1214 C1210 1.531 . S
C1214 H1226 0.960 . S
C1214 H1227 0.962 . S
C1214 H1228 0.960 . S
C1215 C1212 1.511 . S
C1215 H1229 0.961 . S
C1215 H1230 0.961 . S
C1215 H1231 0.961 . S
C1216 C1217 1.370 . S
C1216 C1218 1.363 . S
C1216 H1232 0.931 . S
C1217 C1216 1.370 . S
C1217 C1221 1.408 . S
C1218 C1216 1.363 . S
C1218 C1219 1.370 . S
C1218 C1222 1.524 . S
C1219 C1211 1.503 . S
C1219 C1218 1.370 . S
C1219 C1220 1.403 . S
C1220 C1219 1.403 . S
C1220 C1221 1.404 . S
C1220 C1223 1.539 . S
C1221 C1217 1.408 . S
C1221 C1220 1.404 . S
C1221 H1233 0.930 . S
C1222 C1218 1.524 . S
C1222 H1234 0.956 . S
C1222 H1235 0.961 . S
C1222 H1236 0.961 . S
C1223 C1220 1.539 . S
C1223 H1237 0.958 . S
C1223 H1238 0.961 . S
C1223 H1239 0.960 . S
H1224 C1208 0.931 . S
H1225 C1213 0.929 . S
H1226 C1214 0.960 . S
H1227 C1214 0.962 . S
H1228 C1214 0.960 . S
H1229 C1215 0.961 . S
H1230 C1215 0.961 . S
H1231 C1215 0.961 . S
H1232 C1216 0.931 . S
H1233 C1221 0.930 . S
H1234 C1222 0.956 . S
H1235 C1222 0.961 . S
H1236 C1222 0.961 . S
H1237 C1223 0.958 . S
H1238 C1223 0.961 . S
H1239 C1223 0.960 . S
C1240 C1241 1.391 . S
C1240 C1242 1.394 . S
C1240 H1256 0.931 . S
C1241 C1240 1.391 . S
C1241 C1245 1.376 . S
C1242 C1240 1.394 . S
C1242 C1243 1.369 . S
C1242 C1246 1.531 . S
C1243 C1242 1.369 . S
C1243 C1244 1.410 . S
C1243 C1251 1.503 . S
C1244 C1243 1.410 . S
C1244 C1245 1.392 . S
C1244 C1247 1.511 . S
C1245 C1241 1.376 . S
C1245 C1244 1.392 . S
C1245 H1257 0.929 . S
C1246 C1242 1.531 . S
C1246 H1258 0.960 . S
C1246 H1259 0.962 1_655 S
C1246 H1260 0.960 1_655 S
C1247 C1244 1.511 . S
C1247 H1261 0.961 . S
C1247 H1262 0.961 . S
C1247 H1263 0.961 . S
C1248 C1249 1.370 . S
C1248 C1250 1.363 . S
C1248 H1264 0.931 . S
C1249 C1248 1.370 . S
C1249 C1253 1.422 . S
C1250 C1248 1.363 . S
C1250 C1251 1.370 . S
C1250 C1254 1.524 . S
C1251 C1243 1.503 . S
C1251 C1250 1.370 . S
C1251 C1252 1.403 . S
C1252 C1251 1.403 . S
C1252 C1253 1.406 . S
C1252 C1255 1.539 1_556 S
C1253 C1249 1.422 . S
C1253 C1252 1.406 . S
C1253 H1265 0.914 1_556 S
C1254 C1250 1.524 . S
C1254 H1266 0.956 . S
C1254 H1267 0.961 . S
C1254 H1268 0.961 . S
C1255 C1252 1.539 1_554 S
C1255 H1269 0.958 . S
C1255 H1270 0.961 . S
C1255 H1271 0.960 . S
H1256 C1240 0.931 . S
H1257 C1245 0.929 . S
H1258 C1246 0.960 . S
H1259 C1246 0.962 1_455 S
H1260 C1246 0.960 1_455 S
H1261 C1247 0.961 . S
H1262 C1247 0.961 . S
H1263 C1247 0.961 . S
H1264 C1248 0.931 . S
H1265 C1253 0.914 1_554 S
H1266 C1254 0.956 . S
H1267 C1254 0.961 . S
H1268 C1254 0.961 . S
H1269 C1255 0.958 . S
H1270 C1255 0.961 . S
H1271 C1255 0.960 . S
C1272 C1273 1.391 . S
C1272 C1274 1.394 . S
C1272 H1288 0.931 . S
C1273 C1272 1.391 . S
C1273 C1277 1.376 . S
C1274 C1272 1.394 . S
C1274 C1275 1.369 . S
C1274 C1278 1.531 . S
C1275 C1274 1.369 . S
C1275 C1276 1.410 . S
C1275 C1283 1.503 . S
C1276 C1275 1.410 . S
C1276 C1277 1.392 . S
C1276 C1279 1.511 . S
C1277 C1273 1.376 . S
C1277 C1276 1.392 . S
C1277 H1289 0.929 . S
C1278 C1274 1.531 . S
C1278 H1290 0.960 1_554 S
C1278 H1291 0.962 . S
C1278 H1292 0.960 1_554 S
C1279 C1276 1.511 . S
C1279 H1293 0.961 . S
C1279 H1294 0.961 . S
C1279 H1295 0.961 . S
C1280 C1281 1.370 . S
C1280 C1282 1.363 . S
C1280 H1296 0.931 . S
C1281 C1280 1.370 . S
C1281 C1285 1.408 . S
C1282 C1280 1.363 . S
C1282 C1283 1.370 . S
C1282 C1286 1.524 . S
C1283 C1275 1.503 . S
C1283 C1282 1.370 . S
C1283 C1284 1.403 . S
C1284 C1283 1.403 . S
C1284 C1285 1.404 . S
C1284 C1287 1.539 . S
C1285 C1281 1.408 . S
C1285 C1284 1.404 . S
C1285 H1297 0.930 . S
C1286 C1282 1.524 . S
C1286 H1298 0.956 . S
C1286 H1299 0.961 . S
C1286 H1300 0.961 . S
C1287 C1284 1.539 . S
C1287 H1301 0.958 1_554 S
C1287 H1302 0.961 . S
C1287 H1303 0.960 . S
H1288 C1272 0.931 . S
H1289 C1277 0.929 . S
H1290 C1278 0.960 1_556 S
H1291 C1278 0.962 . S
H1292 C1278 0.960 1_556 S
H1293 C1279 0.961 . S
H1294 C1279 0.961 . S
H1295 C1279 0.961 . S
H1296 C1280 0.931 . S
H1297 C1285 0.930 . S
H1298 C1286 0.956 . S
H1299 C1286 0.961 . S
H1300 C1286 0.961 . S
H1301 C1287 0.958 1_556 S
H1302 C1287 0.961 . S
H1303 C1287 0.960 . S
C1304 C1305 1.391 . S
C1304 C1306 1.394 . S
C1304 H1320 0.931 . S
C1305 C1304 1.391 . S
C1305 C1309 1.376 . S
C1306 C1304 1.394 . S
C1306 C1307 1.369 . S
C1306 C1310 1.531 1_455 S
C1307 C1306 1.369 . S
C1307 C1308 1.410 . S
C1307 C1315 1.503 . S
C1308 C1307 1.410 . S
C1308 C1309 1.392 . S
C1308 C1311 1.511 . S
C1309 C1305 1.376 . S
C1309 C1308 1.392 . S
C1309 H1321 0.929 . S
C1310 C1306 1.531 1_655 S
C1310 H1322 0.965 . S
C1310 H1323 0.962 . S
C1310 H1324 0.960 . S
C1311 C1308 1.511 . S
C1311 H1325 0.961 . S
C1311 H1326 0.961 . S
C1311 H1327 0.961 . S
C1312 C1313 1.370 . S
C1312 C1314 1.363 . S
C1312 H1328 0.931 1_455 S
C1313 C1312 1.370 . S
C1313 C1317 1.408 . S
C1314 C1312 1.363 . S
C1314 C1315 1.370 . S
C1314 C1318 1.524 . S
C1315 C1307 1.503 . S
C1315 C1314 1.370 . S
C1315 C1316 1.403 . S
C1316 C1315 1.403 . S
C1316 C1317 1.404 . S
C1316 C1319 1.539 . S
C1317 C1313 1.408 . S
C1317 C1316 1.404 . S
C1317 H1329 0.930 . S
C1318 C1314 1.524 . S
C1318 H1330 0.956 1_455 S
C1318 H1331 0.961 . S
C1318 H1332 0.961 1_455 S
C1319 C1316 1.539 . S
C1319 H1333 0.958 . S
C1319 H1334 0.961 . S
C1319 H1335 0.960 . S
H1320 C1304 0.931 . S
H1321 C1309 0.929 . S
H1322 C1310 0.965 . S
H1323 C1310 0.962 . S
H1324 C1310 0.960 . S
H1325 C1311 0.961 . S
H1326 C1311 0.961 . S
H1327 C1311 0.961 . S
H1328 C1312 0.931 1_655 S
H1329 C1317 0.930 . S
H1330 C1318 0.956 1_655 S
H1331 C1318 0.961 . S
H1332 C1318 0.961 1_655 S
H1333 C1319 0.958 . S
H1334 C1319 0.961 . S
H1335 C1319 0.960 . S
C1336 C1337 1.391 . S
C1336 C1338 1.394 . S
C1336 H1352 0.931 . S
C1337 C1336 1.391 . S
C1337 C1341 1.376 . S
C1338 C1336 1.394 . S
C1338 C1339 1.369 . S
C1338 C1342 1.531 . S
C1339 C1338 1.369 . S
C1339 C1340 1.410 . S
C1339 C1347 1.503 . S
C1340 C1339 1.410 . S
C1340 C1341 1.392 . S
C1340 C1343 1.511 . S
C1341 C1337 1.376 . S
C1341 C1340 1.392 . S
C1341 H1353 0.929 . S
C1342 C1338 1.531 . S
C1342 H1354 0.960 . S
C1342 H1355 0.962 . S
C1342 H1356 0.960 . S
C1343 C1340 1.511 . S
C1343 H1357 0.961 . S
C1343 H1358 0.961 . S
C1343 H1359 0.961 . S
C1344 C1345 1.370 . S
C1344 C1346 1.363 . S
C1344 H1360 0.931 . S
C1345 C1344 1.370 . S
C1345 C1349 1.408 . S
C1346 C1344 1.363 . S
C1346 C1347 1.370 . S
C1346 C1350 1.524 . S
C1347 C1339 1.503 . S
C1347 C1346 1.370 . S
C1347 C1348 1.403 . S
C1348 C1347 1.403 . S
C1348 C1349 1.404 . S
C1348 C1351 1.539 . S
C1349 C1345 1.408 . S
C1349 C1348 1.404 . S
C1349 H1361 0.930 . S
C1350 C1346 1.524 . S
C1350 H1362 0.956 . S
C1350 H1363 0.961 . S
C1350 H1364 0.961 . S
C1351 C1348 1.539 . S
C1351 H1365 0.958 . S
C1351 H1366 0.961 . S
C1351 H1367 0.960 . S
H1352 C1336 0.931 . S
H1353 C1341 0.929 . S
H1354 C1342 0.960 . S
H1355 C1342 0.962 . S
H1356 C1342 0.960 . S
H1357 C1343 0.961 . S
H1358 C1343 0.961 . S
H1359 C1343 0.961 . S
H1360 C1344 0.931 . S
H1361 C1349 0.930 . S
H1362 C1350 0.956 . S
H1363 C1350 0.961 . S
H1364 C1350 0.961 . S
H1365 C1351 0.958 . S
H1366 C1351 0.961 . S
H1367 C1351 0.960 . S
C601 C1 2.145 . S
C609 C496 2.170 . S
C633 C80 1.138 . S
C641 N516 1.123 . S
C673 C550 2.003 . S
C665 C140 1.925 . S
C697 C211 1.313 . S
C705 N584 1.300 . S
C737 C537 2.342 . S
C729 C31 2.306 . S
C769 N494 1.171 . S
C761 C61 1.206 . S
C801 C571 2.003 . S
C793 C151 1.952 . S
C833 N546 1.056 . S
C825 C200 1.064 . S
C857 C20 1.832 . S
C865 C586 1.847 . S
C897 C520 1.730 . S
C889 C121 1.631 . S
C921 C181 1.442 . S
C929 C481 1.495 . S
C953 C91 1.433 . S
C961 C567 1.466 . S
C993 C507 2.174 . S
C985 C260 2.158 . S
C1017 C320 1.136 . S
C1025 N524 1.124 . S
C1049 C361 1.989 . S
C1057 C541 2.007 . S
C1081 C451 1.272 . S
C1089 N576 1.295 . S
C1113 C271 2.306 . S
C1121 C526 2.344 . S
C1153 N486 1.155 . S
C1145 C301 1.203 . S
C1185 C580 2.006 . S
C1177 C380 1.982 . S
C1217 N554 1.043 . S
C1209 C440 0.962 . S
C1241 C241 1.829 . S
C1249 C597 1.848 . S
C1281 C511 1.729 . S
C1273 C391 1.718 . S
C1313 C490 1.500 . S
C1305 C421 1.399 . S
C1337 C331 1.401 . S
C1345 C556 1.473 . S
