# Generated by pormake.
# Topology zzz, (3,6)-cn, num edge types: 1
# Building blocks:
#     Node 0, Type 0, BuildingBlock: BETDAH_clean_linker_0, # of connection points: 3
#     Node 1, Type 0, BuildingBlock: BETDAH_clean_linker_0, # of connection points: 3
#     Node 2, Type 0, BuildingBlock: BETDAH_clean_linker_0, # of connection points: 3
#     Node 3, Type 0, BuildingBlock: BETDAH_clean_linker_0, # of connection points: 3
#     Node 4, Type 0, BuildingBlock: BETDAH_clean_linker_0, # of connection points: 3
#     Node 5, Type 0, BuildingBlock: BETDAH_clean_linker_0, # of connection points: 3
#     Node 6, Type 0, BuildingBlock: BETDAH_clean_linker_0, # of connection points: 3
#     Node 7, Type 0, BuildingBlock: BETDAH_clean_linker_0, # of connection points: 3
#     Node 8, Type 1, BuildingBlock: JUFBIX_clean_sbu_0, # of connection points: 6
#     Node 9, Type 1, BuildingBlock: JUFBIX_clean_sbu_0, # of connection points: 6
#     Node 10, Type 1, BuildingBlock: JUFBIX_clean_sbu_0, # of connection points: 6
#     Node 11, Type 1, BuildingBlock: JUFBIX_clean_sbu_0, # of connection points: 6
#     Edge 12, Type (0, 1), BuildingBlock: ZUJKAS_clean_linker_0, # of connection points: 2
#     Edge 13, Type (0, 1), BuildingBlock: ZUJKAS_clean_linker_0, # of connection points: 2
#     Edge 14, Type (0, 1), BuildingBlock: ZUJKAS_clean_linker_0, # of connection points: 2
#     Edge 15, Type (0, 1), BuildingBlock: ZUJKAS_clean_linker_0, # of connection points: 2
#     Edge 16, Type (0, 1), BuildingBlock: ZUJKAS_clean_linker_0, # of connection points: 2
#     Edge 17, Type (0, 1), BuildingBlock: ZUJKAS_clean_linker_0, # of connection points: 2
#     Edge 18, Type (0, 1), BuildingBlock: ZUJKAS_clean_linker_0, # of connection points: 2
#     Edge 19, Type (0, 1), BuildingBlock: ZUJKAS_clean_linker_0, # of connection points: 2
#     Edge 20, Type (0, 1), BuildingBlock: ZUJKAS_clean_linker_0, # of connection points: 2
#     Edge 21, Type (0, 1), BuildingBlock: ZUJKAS_clean_linker_0, # of connection points: 2
#     Edge 22, Type (0, 1), BuildingBlock: ZUJKAS_clean_linker_0, # of connection points: 2
#     Edge 23, Type (0, 1), BuildingBlock: ZUJKAS_clean_linker_0, # of connection points: 2
#     Edge 24, Type (0, 1), BuildingBlock: ZUJKAS_clean_linker_0, # of connection points: 2
#     Edge 25, Type (0, 1), BuildingBlock: ZUJKAS_clean_linker_0, # of connection points: 2
#     Edge 26, Type (0, 1), BuildingBlock: ZUJKAS_clean_linker_0, # of connection points: 2
#     Edge 27, Type (0, 1), BuildingBlock: ZUJKAS_clean_linker_0, # of connection points: 2
#     Edge 28, Type (0, 1), BuildingBlock: ZUJKAS_clean_linker_0, # of connection points: 2
#     Edge 29, Type (0, 1), BuildingBlock: ZUJKAS_clean_linker_0, # of connection points: 2
#     Edge 30, Type (0, 1), BuildingBlock: ZUJKAS_clean_linker_0, # of connection points: 2
#     Edge 31, Type (0, 1), BuildingBlock: ZUJKAS_clean_linker_0, # of connection points: 2
#     Edge 32, Type (0, 1), BuildingBlock: ZUJKAS_clean_linker_0, # of connection points: 2
#     Edge 33, Type (0, 1), BuildingBlock: ZUJKAS_clean_linker_0, # of connection points: 2
#     Edge 34, Type (0, 1), BuildingBlock: ZUJKAS_clean_linker_0, # of connection points: 2
#     Edge 35, Type (0, 1), BuildingBlock: ZUJKAS_clean_linker_0, # of connection points: 2
# Relax obj value: 0.129
# Max RMSD: 0.180
# Mean RMSD: 0.087
data_MOF--net-zzz--node1-JUFBIX_clean_sbu_0--node2-BETDAH_clean_linker_0--edge1-ZUJKAS_clean_linker_0
_symmetry_space_group_name_H-M    P1
_symmetry_Int_Tables_number       1
_symmetry_cell_setting            triclinic
loop_
_symmetry_equiv_pos_as_xyz
'x, y, z'
_cell_length_a     66.972021
_cell_length_b     66.535991
_cell_length_c     22.533698
_cell_angle_alpha  83.135321
_cell_angle_beta   89.833171
_cell_angle_gamma 91.305401
loop_
_atom_site_label
_atom_site_type_symbol
_atom_site_fract_x
_atom_site_fract_y
_atom_site_fract_z
_atom_type_partial_charge
H0 H 0.83647 0.49871 0.25894 0.0
H1 H 0.77946 0.50488 0.17227 0.0
H2 H 0.78702 0.52084 0.35112 0.0
C3 C 0.82075 0.50225 0.26009 0.0
C4 C 0.81306 0.50936 0.3112 0.0
C5 C 0.80884 0.50053 0.20977 0.0
C6 C 0.78874 0.50614 0.21098 0.0
C7 C 0.78076 0.51341 0.26226 0.0
C8 C 0.7931 0.5152 0.31182 0.0
N9 N 0.7605 0.51911 0.26563 0.0
C10 C 0.74616 0.51633 0.22264 0.0
H11 H 0.99407 0.81421 0.24934 0.0
H12 H 0.98494 0.75901 0.17157 0.0
H13 H 0.97108 0.76113 0.35782 0.0
C14 C 0.98993 0.79823 0.25455 0.0
C15 C 0.98282 0.78898 0.30994 0.0
C16 C 0.99075 0.78754 0.20474 0.0
C17 C 0.98451 0.76714 0.21037 0.0
C18 C 0.97764 0.75744 0.26604 0.0
C19 C 0.97656 0.76854 0.31525 0.0
N20 N 0.97159 0.73666 0.27408 0.0
C21 C 0.97435 0.72335 0.23174 0.0
H22 H 0.69582 0.01226 0.16967 0.0
H23 H 0.75012 1.00203 0.07691 0.0
H24 H 0.74605 0.98735 0.26833 0.0
C25 C 0.71133 0.00787 0.17087 0.0
C26 C 0.71972 1.00021 0.22551 0.0
C27 C 0.72208 0.00846 0.11717 0.0
C28 C 0.74187 1.00183 0.1184 0.0
C29 C 0.7507 0.99453 0.17334 0.0
C30 C 0.7394 0.99342 0.22636 0.0
N31 N 0.77062 0.98762 0.17713 0.0
C32 C 0.78482 0.99096 0.13158 0.0
H33 H 0.53339 0.6778 0.17398 0.0
H34 H 0.52481 0.73808 0.08826 0.0
H35 H 0.52925 0.72702 0.28043 0.0
C36 C 0.53213 0.69387 0.17728 0.0
C37 C 0.53197 0.70075 0.23357 0.0
C38 C 0.52952 0.70718 0.1251 0.0
C39 C 0.52703 0.72787 0.12876 0.0
C40 C 0.52723 0.73513 0.18513 0.0
C41 C 0.52942 0.72145 0.23716 0.0
N42 N 0.52498 0.75593 0.19164 0.0
C43 C 0.52479 0.77152 0.14471 0.0
H44 H 0.17571 0.48443 0.32127 0.0
H45 H 0.23484 0.49629 0.38319 0.0
H46 H 0.22544 0.48601 0.19966 0.0
C47 C 0.19167 0.48581 0.31274 0.0
C48 C 0.19897 0.48438 0.25518 0.0
C49 C 0.20446 0.49021 0.35873 0.0
C50 C 0.22503 0.49279 0.34751 0.0
C51 C 0.23273 0.49091 0.29011 0.0
C52 C 0.21957 0.48709 0.24402 0.0
N53 N 0.2535 0.49296 0.27698 0.0
C54 C 0.26828 0.49417 0.31977 0.0
H55 H 0.03028 0.19025 0.30079 0.0
H56 H 0.0302 0.24703 0.37318 0.0
H57 H 0.03575 0.24579 0.18266 0.0
C58 C 0.03116 0.20667 0.294 0.0
C59 C 0.03291 0.21664 0.23588 0.0
C60 C 0.0303 0.21748 0.34352 0.0
C61 C 0.03104 0.23872 0.33479 0.0
C62 C 0.03322 0.24904 0.27655 0.0
C63 C 0.0343 0.23788 0.22745 0.0
N64 N 0.03424 0.27054 0.26559 0.0
C65 C 0.03258 0.28338 0.3097 0.0
H66 H 0.31874 0.02 0.37254 0.0
H67 H 0.26294 0.00646 0.46519 0.0
H68 H 0.26537 0.01178 0.27256 0.0
C69 C 0.30268 0.01749 0.37144 0.0
C70 C 0.29333 0.01684 0.31629 0.0
C71 C 0.29195 0.01364 0.42528 0.0
C72 C 0.27127 0.00956 0.42371 0.0
C73 C 0.26156 0.00922 0.3683 0.0
C74 C 0.27277 0.01244 0.31503 0.0
N75 N 0.24071 0.00527 0.36417 0.0
C76 C 0.22696 0.00606 0.41021 0.0
H77 H 0.4973 0.3288 0.36259 0.0
H78 H 0.48365 0.27005 0.45635 0.0
H79 H 0.47895 0.28014 0.26411 0.0
C80 C 0.49306 0.313 0.36153 0.0
C81 C 0.48869 0.30599 0.30685 0.0
C82 C 0.49107 0.30022 0.41528 0.0
C83 C 0.48525 0.27987 0.41457 0.0
C84 C 0.48113 0.27248 0.35962 0.0
C85 C 0.48242 0.28574 0.30621 0.0
N86 N 0.47535 0.25198 0.35636 0.0
C87 C 0.47863 0.23623 0.4014 0.0
Co88 Co 0.01218 0.00934 0.81107 0.0
C89 C 0.97082 1.00196 0.81312 0.0
Co90 Co 1.00029 0.99754 0.73017 0.0
C91 C 0.0293 0.03929 0.87933 0.0
C92 C 0.01739 0.01369 0.93583 0.0
N93 N 0.02096 0.02067 0.87808 0.0
N94 N 0.03062 0.0445 0.93537 0.0
C95 C 0.02332 0.02826 0.97108 0.0
H96 H 0.03349 0.0492 0.83944 0.0
H97 H 0.00981 0.99947 0.95107 0.0
C98 C 0.04168 0.00488 0.72825 0.0
N99 N 0.99157 0.98626 0.66301 0.0
C100 C 0.98312 0.96771 0.66119 0.0
C101 C 0.99541 0.9933 0.60548 0.0
N102 N 0.98197 0.96259 0.60494 0.0
C103 C 0.98955 0.97886 0.5698 0.0
C104 C 1.00055 0.03905 0.7198 0.0
O105 O 0.03873 0.01049 0.77956 0.0
O106 O 0.02688 0.99873 0.69952 0.0
O107 O 0.99602 0.02421 0.6914 0.0
O108 O 0.00762 0.0356 0.77207 0.0
O109 O 0.97373 0.99641 0.7617 0.0
H110 H 0.00314 0.00748 0.59072 0.0
H111 H 0.97874 0.95782 0.70088 0.0
O112 O 0.98564 0.00811 0.84179 0.0
O113 O 0.01651 0.98284 0.84964 0.0
O114 O 0.00476 0.97116 0.76956 0.0
C115 C 0.01185 0.96788 0.8219 0.0
H116 H 0.02108 0.02741 0.0189 0.0
H117 H 0.992 0.97986 0.52206 0.0
Co118 Co 0.50053 0.00806 0.81564 0.0
C119 C 0.51021 0.96745 0.81466 0.0
Co120 Co 0.51251 1.00079 0.7292 0.0
C121 C 0.47074 0.01897 0.89788 0.0
C122 C 0.49717 0.00825 0.94307 0.0
N123 N 0.48948 0.01297 0.88811 0.0
N124 N 0.4662 0.01775 0.9567 0.0
C125 C 0.48295 0.01118 0.98523 0.0
H126 H 0.46034 0.02339 0.86231 0.0
H127 H 0.51175 1.00191 0.95196 0.0
C128 C 0.5028 0.04139 0.73015 0.0
N129 N 0.52348 0.99577 0.65637 0.0
C130 C 0.54252 0.99102 0.64486 0.0
C131 C 0.51466 0.99825 0.60236 0.0
N132 N 0.54605 0.99076 0.58585 0.0
C133 C 0.52842 0.99514 0.55912 0.0
C134 C 0.4715 0.99661 0.73663 0.0
O135 O 0.49753 0.03569 0.78398 0.0
O136 O 0.50983 0.0285 0.69878 0.0
O137 O 0.48623 0.99507 0.70192 0.0
O138 O 0.4747 1.00178 0.78817 0.0
O139 O 0.51511 0.97304 0.76047 0.0
H140 H 0.49941 0.00281 0.59445 0.0
H141 H 0.55385 0.98874 0.6789 0.0
O142 O 0.5036 0.98046 0.8463 0.0
O143 O 0.52662 0.01424 0.84264 0.0
O144 O 0.53844 0.00669 0.75756 0.0
C145 C 0.54148 0.01233 0.8087 0.0
H146 H 0.48446 0.00747 0.03305 0.0
H147 H 0.52566 0.99651 0.51156 0.0
Co148 Co 0.52384 0.5025 0.77657 0.0
C149 C 0.5025 0.47877 0.86518 0.0
Co150 Co 0.49111 0.50489 0.76607 0.0
C151 C 0.56262 0.50238 0.83312 0.0
C152 C 0.56447 0.49743 0.74119 0.0
N153 N 0.55133 0.50056 0.78436 0.0
N154 N 0.58233 0.5006 0.82205 0.0
C155 C 0.58348 0.49744 0.76413 0.0
H156 H 0.55648 0.50537 0.87556 0.0
H157 H 0.56047 0.49536 0.6958 0.0
C158 C 0.51246 0.52863 0.67752 0.0
N159 N 0.46362 0.50687 0.75819 0.0
C160 C 0.45233 0.50496 0.70948 0.0
C161 C 0.45053 0.51058 0.80088 0.0
N162 N 0.43269 0.50738 0.72003 0.0
C163 C 0.43155 0.51094 0.77759 0.0
C164 C 0.50821 0.53387 0.83069 0.0
O165 O 0.52738 0.52098 0.70598 0.0
O166 O 0.49492 0.52317 0.69537 0.0
O167 O 0.49177 0.52742 0.81118 0.0
O168 O 0.52416 0.52469 0.82171 0.0
O169 O 0.48756 0.4865 0.83696 0.0
H170 H 0.45452 0.51277 0.84617 0.0
H171 H 0.45846 0.50206 0.66691 0.0
O172 O 0.52003 0.48414 0.84703 0.0
O173 O 0.52326 0.48022 0.73122 0.0
O174 O 0.4908 0.48247 0.72116 0.0
C175 C 0.50689 0.47353 0.71194 0.0
H176 H 0.59706 0.49513 0.73998 0.0
H177 H 0.41794 0.51329 0.80157 0.0
Co178 Co 0.00692 0.51808 0.78339 0.0
C179 C 0.03063 0.49532 0.86464 0.0
Co180 Co 0.00626 0.48553 0.7717 0.0
C181 C 0.00423 0.55431 0.84236 0.0
C182 C 0.01005 0.56098 0.74856 0.0
N183 N 0.00718 0.54547 0.7922 0.0
N184 N 0.00515 0.57476 0.83177 0.0
C185 C 0.00884 0.57896 0.77267 0.0
H186 H 1.00156 0.54586 0.88585 0.0
H187 H 0.01264 0.55931 0.70201 0.0
C188 C 0.98257 0.50833 0.69047 0.0
N189 N 0.006 0.45816 0.7627 0.0
C190 C 0.00859 0.44944 0.71216 0.0
C191 C 0.00339 0.44257 0.80622 0.0
N192 N 0.00768 0.42899 0.72235 0.0
C193 C 0.00438 0.42466 0.78162 0.0
C194 C 0.97622 0.4962 0.84565 0.0
O195 O 0.98896 0.5228 0.71792 0.0
O196 O 0.98885 0.49058 0.70574 0.0
O197 O 0.98355 0.48148 0.82254 0.0
O198 O 0.98458 0.51363 0.836 0.0
O199 O 0.02386 0.48076 0.83816 0.0
H200 H 1.00107 0.44414 0.85295 0.0
H201 H 0.01094 0.45799 0.66865 0.0
O202 O 0.0247 0.51314 0.84842 0.0
O203 O 0.02943 0.52218 0.73071 0.0
O204 O 0.02873 0.4898 0.72071 0.0
C205 C 0.03693 0.50723 0.70905 0.0
H206 H 0.01013 0.59395 0.7482 0.0
H207 H 0.00317 0.40962 0.80585 0.0
H208 H 0.22202 0.98514 0.5204 0.0
H209 H 0.19245 0.9853 0.5856 0.0
H210 H 0.16532 0.0292 0.45576 0.0
H211 H 0.19492 0.02925 0.39143 0.0
H212 H 0.16001 0.03787 0.57177 0.0
H213 H 0.13939 0.95761 0.55115 0.0
H214 H 0.164 0.96168 0.57955 0.0
H215 H 0.15807 0.97155 0.50409 0.0
C216 C 0.20977 0.99494 0.50642 0.0
C217 C 0.21056 0.00718 0.4513 0.0
C218 C 0.19287 0.99494 0.54332 0.0
C219 C 0.17652 0.00704 0.52514 0.0
C220 C 0.1777 0.01973 0.47069 0.0
H221 H 0.05229 0.99554 0.6179 0.0
H222 H 0.08563 0.99633 0.57367 0.0
C223 C 0.19457 0.01975 0.434 0.0
C224 C 0.15786 0.00616 0.56138 0.0
H225 H 0.11871 0.97486 0.61193 0.0
C226 C 0.15103 0.02407 0.58098 0.0
C227 C 0.14604 0.98819 0.57268 0.0
C228 C 0.15209 0.96868 0.55042 0.0
C229 C 0.13262 0.02457 0.61086 0.0
C230 C 0.12084 0.00657 0.62232 0.0
C231 C 0.12781 0.98861 0.60347 0.0
C232 C 0.10067 0.00627 0.65024 0.0
C233 C 0.12558 0.04451 0.62781 0.0
C234 C 0.09799 0.01148 0.70831 0.0
C235 C 0.07884 0.01114 0.73378 0.0
C236 C 0.06204 0.00541 0.70178 0.0
C237 C 0.06485 1.00004 0.64387 0.0
C238 C 0.08394 1.00045 0.61848 0.0
H239 H 0.13411 0.05757 0.60393 0.0
H240 H 0.10946 0.04644 0.61785 0.0
H241 H 0.12767 0.04483 0.67652 0.0
H242 H 0.11071 0.01565 0.73413 0.0
H243 H 0.07722 0.01525 0.77859 0.0
H244 H 0.46374 0.22735 0.5136 0.0
H245 H 0.46882 0.19599 0.58135 0.0
H246 H 0.50627 0.17382 0.44837 0.0
H247 H 0.50141 0.20515 0.38147 0.0
H248 H 0.45874 0.15702 0.5616 0.0
H249 H 0.54022 0.16355 0.59717 0.0
H250 H 0.52564 0.18472 0.56606 0.0
H251 H 0.53388 0.16634 0.51939 0.0
C252 C 0.47325 0.21581 0.49954 0.0
C253 C 0.48235 0.21851 0.44296 0.0
C254 C 0.47612 0.19796 0.53801 0.0
C255 C 0.48821 0.18269 0.52036 0.0
C256 C 0.49731 0.18556 0.46362 0.0
H257 H 0.51538 0.05869 0.62004 0.0
H258 H 0.51145 0.09363 0.57515 0.0
C259 C 0.49445 0.20337 0.42533 0.0
C260 C 0.49044 0.16324 0.55935 0.0
H261 H 0.52527 0.13039 0.62097 0.0
C262 C 0.47325 0.15132 0.57545 0.0
C263 C 0.50939 0.15584 0.57748 0.0
C264 C 0.52831 0.16837 0.56466 0.0
C265 C 0.47459 0.1318 0.60667 0.0
C266 C 0.49359 0.12413 0.62271 0.0
C267 C 0.51073 0.13629 0.60832 0.0
C268 C 0.4961 0.10309 0.65133 0.0
C269 C 0.45575 0.11919 0.62002 0.0
C270 C 0.48895 0.09688 0.7094 0.0
C271 C 0.49122 0.07686 0.7354 0.0
C272 C 0.50067 0.06273 0.70366 0.0
C273 C 0.50798 0.06913 0.64571 0.0
C274 C 0.50578 0.08912 0.61997 0.0
H275 H 0.44265 0.12597 0.59569 0.0
H276 H 0.45766 0.10365 0.60785 0.0
H277 H 0.45249 0.1179 0.66866 0.0
H278 H 0.48166 0.10752 0.73463 0.0
H279 H 0.48546 0.07245 0.78014 0.0
H280 H 0.27081 0.51701 0.41102 0.0
H281 H 0.29915 0.51917 0.47952 0.0
H282 H 0.33035 0.47519 0.39041 0.0
H283 H 0.30215 0.47323 0.32173 0.0
H284 H 0.31669 0.48818 0.558 0.0
H285 H 0.37103 0.52242 0.38628 0.0
H286 H 0.34445 0.52166 0.37316 0.0
H287 H 0.35894 0.49946 0.36909 0.0
C288 C 0.28377 0.50786 0.40633 0.0
C289 C 0.28453 0.49504 0.36138 0.0
C290 C 0.2999 0.50907 0.4453 0.0
C291 C 0.317 0.49759 0.43943 0.0
C292 C 0.3175 0.48449 0.39498 0.0
H293 H 0.4306 0.48547 0.62588 0.0
H294 H 0.40232 0.48283 0.55837 0.0
C295 C 0.30139 0.48328 0.35609 0.0
C296 C 0.33422 0.49913 0.48014 0.0
H297 H 0.38385 0.51208 0.48274 0.0
C298 C 0.33136 0.49349 0.54165 0.0
C299 C 0.35337 0.50596 0.45862 0.0
C300 C 0.35718 0.5129 0.39326 0.0
C301 C 0.34721 0.49419 0.58216 0.0
C302 C 0.36635 0.50114 0.56071 0.0
C303 C 0.3692 0.50674 0.49914 0.0
C304 C 0.38356 0.50291 0.60143 0.0
C305 C 0.34339 0.48701 0.64738 0.0
C306 C 0.3826 0.51538 0.64734 0.0
C307 C 0.39872 0.5169 0.68595 0.0
C308 C 0.41628 0.50616 0.67909 0.0
C309 C 0.41739 0.49405 0.63217 0.0
C310 C 0.40119 0.49245 0.59371 0.0
H311 H 0.32992 0.47691 0.65375 0.0
H312 H 0.35637 0.47877 0.66788 0.0
H313 H 0.34084 0.5003 0.67161 0.0
H314 H 0.36939 0.52405 0.65313 0.0
H315 H 0.39751 0.52668 0.72079 0.0
H316 H 0.04836 0.32114 0.30026 0.0
H317 H 0.04472 0.34601 0.37166 0.0
H318 H 0.00876 0.30272 0.48616 0.0
H319 H 0.01259 0.2778 0.41491 0.0
H320 H 0.00942 0.36193 0.41059 0.0
H321 H 0.05052 0.32175 0.60109 0.0
H322 H 0.05234 0.315 0.52603 0.0
H323 H 0.03098 0.30687 0.57194 0.0
C324 C 0.03983 0.31697 0.341 0.0
C325 C 0.03085 0.29767 0.35273 0.0
C326 C 0.03773 0.33114 0.38159 0.0
C327 C 0.02669 0.32614 0.43462 0.0
C328 C 0.01767 0.30677 0.44615 0.0
H329 H 0.99265 0.39053 0.73015 0.0
H330 H 0.99728 0.36606 0.65897 0.0
C331 C 0.01977 0.2926 0.40547 0.0
C332 C 0.0241 0.34144 0.47678 0.0
H333 H 0.03274 0.35075 0.62042 0.0
C334 C 0.0146 0.35955 0.45639 0.0
C335 C 0.03086 0.33828 0.53651 0.0
C336 C 0.04191 0.31951 0.56022 0.0
C337 C 0.01131 0.37442 0.49448 0.0
C338 C 0.01802 0.37124 0.55428 0.0
C339 C 0.02758 0.35315 0.57459 0.0
C340 C 0.0151 0.38637 0.59678 0.0
C341 C 1.00023 0.39316 0.47077 0.0
C342 C 0.02371 0.40591 0.58576 0.0
C343 C 0.02112 0.41996 0.62654 0.0
C344 C 0.01001 0.41469 0.67946 0.0
C345 C 1.00148 0.39506 0.69033 0.0
C346 C 0.00404 0.38105 0.64952 0.0
H347 H 0.99173 0.39096 0.42969 0.0
H348 H 0.9897 0.39758 0.50482 0.0
H349 H 0.01113 0.40586 0.4594 0.0
H350 H 0.03267 0.41021 0.546 0.0
H351 H 0.0282 0.43479 0.61717 0.0
H352 H 0.81934 0.0102 0.15041 0.0
H353 H 0.84951 0.01224 0.08774 0.0
H354 H 0.8187 0.97931 0.96048 0.0
H355 H 0.78839 0.97736 0.02336 0.0
H356 H 0.86954 0.97752 0.05654 0.0
H357 H 0.84595 0.0281 0.85557 0.0
H358 H 0.83312 0.02698 0.92657 0.0
H359 H 0.82949 0.00701 0.88049 0.0
C360 C 0.81897 0.00372 0.10851 0.0
C361 C 0.80168 0.99377 0.09114 0.0
C362 C 0.83617 0.00484 0.0729 0.0
C363 C 0.83631 0.99609 0.0192 0.0
C364 C 0.81882 0.98645 0.00122 0.0
H365 H 0.93593 0.98689 0.76964 0.0
H366 H 0.90285 0.98455 0.81752 0.0
C367 C 0.80158 0.9853 0.03707 0.0
C368 C 0.85521 0.99592 0.98465 0.0
H369 H 0.8782 0.01455 0.85324 0.0
C370 C 0.87143 0.98559 0.01204 0.0
C371 C 0.85756 0.00626 0.92637 0.0
C372 C 0.8407 0.01786 0.89539 0.0
C373 C 0.88999 0.98546 0.98304 0.0
C374 C 0.89258 0.99637 0.92554 0.0
C375 C 0.87622 0.00627 0.89741 0.0
C376 C 0.91241 0.99831 0.89528 0.0
C377 C 0.90662 0.9735 0.0142 0.0
C378 C 0.92865 0.0072 0.92245 0.0
C379 C 0.94751 0.00848 0.89547 0.0
C380 C 0.95054 1.00108 0.84027 0.0
C381 C 0.93413 0.99267 0.81224 0.0
C382 C 0.91521 0.99134 0.83949 0.0
H383 H 0.90072 0.96138 0.04837 0.0
H384 H 0.91594 0.96647 0.9818 0.0
H385 H 0.91634 0.9838 0.03733 0.0
H386 H 0.92675 0.01312 0.9648 0.0
H387 H 0.95974 0.01523 0.91811 0.0
H388 H 0.54411 0.80663 0.15442 0.0
H389 H 0.54203 0.8382 0.0866 0.0
H390 H 0.50327 0.80817 0.9705 0.0
H391 H 0.50515 0.77657 0.0392 0.0
H392 H 0.55151 0.84801 0.9659 0.0
H393 H 0.47045 0.85625 0.00879 0.0
H394 H 0.48549 0.83832 0.05419 0.0
H395 H 0.4772 0.83297 0.98184 0.0
C396 C 0.5353 0.8068 0.1141 0.0
C397 C 0.52474 0.78939 0.10167 0.0
C398 C 0.53413 0.82478 0.07542 0.0
C399 C 0.52229 0.82562 0.02388 0.0
C400 C 0.51222 0.80795 0.0105 0.0
H401 H 0.52307 0.93512 0.76056 0.0
H402 H 0.52598 0.89991 0.80582 0.0
C403 C 0.51338 0.78993 0.04939 0.0
C404 C 0.52005 0.84526 0.98587 0.0
H405 H 0.48619 0.88162 0.94184 0.0
C406 C 0.53721 0.8553 0.96011 0.0
C407 C 0.5014 0.85483 0.97902 0.0
C408 C 0.48258 0.84518 0.00774 0.0
C409 C 0.53629 0.87481 0.92857 0.0
C410 C 0.51765 0.88439 0.92191 0.0
C411 C 0.50044 0.87418 0.94669 0.0
C412 C 0.51584 0.90557 0.89345 0.0
C413 C 0.55538 0.88533 0.90478 0.0
C414 C 0.5088 0.92034 0.9273 0.0
C415 C 0.50701 0.94037 0.9016 0.0
C416 C 0.51215 0.9461 0.84127 0.0
C417 C 0.51907 0.93124 0.80719 0.0
C418 C 0.52084 0.91114 0.83305 0.0
H419 H 0.56882 0.87765 0.9243 0.0
H420 H 0.55603 0.8853 0.85558 0.0
H421 H 0.55591 0.90132 0.91432 0.0
H422 H 0.50483 0.91639 0.97395 0.0
H423 H 0.50161 0.95138 0.9292 0.0
H424 H 0.70824 0.50523 0.25125 0.0
H425 H 0.68044 0.50178 0.18207 0.0
H426 H 0.72016 0.51881 0.03246 0.0
H427 H 0.74804 0.52199 0.10188 0.0
H428 H 0.66516 0.53145 0.0983 0.0
H429 H 0.69284 0.46709 0.98804 0.0
H430 H 0.70321 0.47391 0.05694 0.0
H431 H 0.71019 0.48812 0.98677 0.0
C432 C 0.71098 0.50804 0.20352 0.0
C433 C 0.73012 0.51373 0.18144 0.0
C434 C 0.69515 0.50612 0.16413 0.0
C435 C 0.69826 0.50978 0.10207 0.0
C436 C 0.71749 0.51551 0.08009 0.0
H437 H 0.62088 0.51131 0.79373 0.0
H438 H 0.6487 0.51359 0.86255 0.0
C439 C 0.73335 0.51743 0.11959 0.0
C440 C 0.68121 0.50827 0.06069 0.0
H441 H 0.66412 0.48339 0.94608 0.0
C442 C 0.66488 0.52088 0.06519 0.0
C443 C 0.68089 0.49449 0.01747 0.0
C444 C 0.69762 0.47999 0.01217 0.0
C445 C 0.64838 0.52033 0.02698 0.0
C446 C 0.64806 0.50655 0.98378 0.0
C447 C 0.6644 0.49395 0.97924 0.0
C448 C 0.631 0.50511 0.94241 0.0
C449 C 0.63166 0.53484 0.03228 0.0
C450 C 0.61181 0.49937 0.96438 0.0
C451 C 0.59583 0.49796 0.92506 0.0
C452 C 0.59876 0.50213 0.86287 0.0
C453 C 0.61807 0.50774 0.84115 0.0
C454 C 0.63401 0.50915 0.88048 0.0
H455 H 0.6364 0.54767 0.05674 0.0
H456 H 0.62616 0.54102 0.98748 0.0
H457 H 0.61903 0.52668 0.05732 0.0
H458 H 0.60923 0.49576 0.01197 0.0
H459 H 0.58128 0.49326 0.94338 0.0
H460 H 0.95821 0.68574 0.24105 0.0
H461 H 0.96371 0.6599 0.17376 0.0
H462 H 1.00205 0.70196 0.06299 0.0
H463 H 0.99681 0.72765 0.13094 0.0
H464 H 0.95573 0.6606 0.05306 0.0
H465 H 0.03689 0.65244 0.09531 0.0
H466 H 0.02084 0.66535 0.14212 0.0
H467 H 0.02972 0.67798 0.07165 0.0
C468 C 0.96781 0.68937 0.20226 0.0
C469 C 0.97715 0.70851 0.19085 0.0
C470 C 0.97093 0.67467 0.16393 0.0
C471 C 0.98354 0.67888 0.11385 0.0
C472 C 0.99261 0.69822 0.10202 0.0
H473 H 0.02024 0.61316 0.82447 0.0
H474 H 0.01441 0.63804 0.89367 0.0
C475 C 0.98951 0.71292 0.14047 0.0
C476 C 0.98698 0.66311 0.07372 0.0
H477 H 0.02344 0.63584 0.01624 0.0
C478 C 0.97051 0.6551 0.04524 0.0
C479 C 0.00629 0.65592 0.06367 0.0
C480 C 0.02444 0.6632 0.09519 0.0
C481 C 0.97288 0.64043 0.00592 0.0
C482 C 0.9922 0.63336 0.99553 0.0
C483 C 0.00865 0.6413 0.02423 0.0
C484 C 0.99572 0.61803 0.95411 0.0
C485 C 0.95474 0.63299 0.97466 0.0
C486 C 0.98738 0.59838 0.96554 0.0
C487 C 0.99062 0.58411 0.92584 0.0
C488 C 1.0023 0.5892 0.87395 0.0
C489 C 0.0109 0.6088 0.86335 0.0
C490 C 0.00769 0.62303 0.90309 0.0
H491 H 0.94195 0.64325 0.97647 0.0
H492 H 0.95817 0.63156 0.92712 0.0
H493 H 0.95007 0.61781 0.99684 0.0
H494 H 0.97836 0.59409 0.0052 0.0
H495 H 0.98367 0.56922 0.93529 0.0
H496 H 1.0009 0.22039 0.42624 0.0
H497 H 0.99299 0.19549 0.51329 0.0
H498 H 0.04601 0.16294 0.47907 0.0
H499 H 0.05405 0.18785 0.39364 0.0
H500 H 0.98444 0.15664 0.50165 0.0
H501 H 0.04732 0.15869 0.65781 0.0
H502 H 0.04293 0.17914 0.5994 0.0
H503 H 0.05663 0.15731 0.58383 0.0
C504 C 0.01122 0.20835 0.43903 0.0
C505 C 0.02805 0.20595 0.4035 0.0
C506 C 0.00664 0.19409 0.48837 0.0
C507 C 0.01899 0.17743 0.50305 0.0
C508 C 0.03649 0.17587 0.46967 0.0
H509 H 0.99563 0.05285 0.60147 0.0
H510 H 0.99695 0.08806 0.55551 0.0
C511 C 0.04102 0.19003 0.42058 0.0
C512 C 0.01242 0.16009 0.54683 0.0
H513 H 0.03031 0.12583 0.65736 0.0
C514 C 0.99424 0.15015 0.53673 0.0
C515 C 0.02501 0.15175 0.59321 0.0
C516 C 0.04395 0.16245 0.60956 0.0
C517 C 0.98902 0.13136 0.5688 0.0
C518 C 1.00258 0.12206 0.61097 0.0
C519 C 0.02005 0.13273 0.62418 0.0
C520 C 0.99968 0.10087 0.63923 0.0
C521 C 0.96919 0.12155 0.55631 0.0
C522 C 1.00103 0.09629 0.70147 0.0
C523 C 1.00063 0.07618 0.72765 0.0
C524 C 0.99882 0.06022 0.69213 0.0
C525 C 0.99683 0.06481 0.63001 0.0
C526 C 0.99745 0.08496 0.60376 0.0
H527 H 0.95803 0.13312 0.54095 0.0
H528 H 0.97113 0.11183 0.52009 0.0
H529 H 0.96318 0.11204 0.59652 0.0
H530 H 1.00284 0.10828 0.72973 0.0
H531 H 1.00216 0.07314 0.77573 0.0
H532 H 0.31852 0.04137 0.45962 0.0
H533 H 0.34459 0.03496 0.53434 0.0
H534 H 0.31746 0.97655 0.59367 0.0
H535 H 0.29163 0.98266 0.51686 0.0
H536 H 0.34889 0.02531 0.65316 0.0
H537 H 0.37112 0.96109 0.53195 0.0
H538 H 0.3523 0.97863 0.50392 0.0
H539 H 0.34648 0.95907 0.56404 0.0
C540 C 0.31782 0.02738 0.48966 0.0
C541 C 0.3033 0.01236 0.48187 0.0
C542 C 0.33272 0.02372 0.53238 0.0
C543 C 0.33333 0.00502 0.56835 0.0
C544 C 0.31757 0.99086 0.56521 0.0
H545 H 0.43782 0.99146 0.80574 0.0
H546 H 0.40318 0.9906 0.77215 0.0
C547 C 0.30266 0.99448 0.52197 0.0
C548 C 0.35165 0.99986 0.60338 0.0
H549 H 0.39236 0.96969 0.60759 0.0
C550 C 0.35829 0.01297 0.64396 0.0
C551 C 0.36403 0.98393 0.59043 0.0
C552 C 0.35828 0.96994 0.54491 0.0
C553 C 0.37728 0.01113 0.6701 0.0
C554 C 0.38974 0.99533 0.65662 0.0
C555 C 0.38276 0.98173 0.61798 0.0
C556 C 0.41067 0.99371 0.67794 0.0
C557 C 0.38421 0.02686 0.70903 0.0
C558 C 0.42645 0.99459 0.63635 0.0
C559 C 0.44629 0.99464 0.65547 0.0
C560 C 0.45071 0.99397 0.71655 0.0
C561 C 0.43489 0.99223 0.75827 0.0
C562 C 0.41507 0.9919 0.73916 0.0
H563 H 0.37491 0.04056 0.70295 0.0
H564 H 0.38311 0.02038 0.75667 0.0
H565 H 0.40001 0.03155 0.69915 0.0
H566 H 0.42341 0.99589 0.58886 0.0
H567 H 0.45813 0.99601 0.62227 0.0
H568 H 0.52605 0.30959 0.46652 0.0
H569 H 0.53064 0.3351 0.53559 0.0
H570 H 0.46666 0.33924 0.55136 0.0
H571 H 0.46219 0.3133 0.484 0.0
H572 H 0.51835 0.37223 0.4998 0.0
H573 H 0.48307 0.3466 0.71885 0.0
H574 H 0.48929 0.32923 0.66622 0.0
H575 H 0.46662 0.34333 0.65793 0.0
C576 C 0.51306 0.31518 0.48753 0.0
C577 C 0.49379 0.30935 0.47111 0.0
C578 C 0.51565 0.32986 0.52646 0.0
C579 C 0.499 0.33906 0.54891 0.0
C580 C 0.47974 0.33206 0.53594 0.0
H581 H 0.47417 0.45351 0.67327 0.0
H582 H 0.47321 0.42061 0.63484 0.0
C583 C 0.47716 0.31722 0.49751 0.0
C584 C 0.50166 0.35816 0.57624 0.0
H585 H 0.48763 0.38268 0.6939 0.0
C586 C 0.51193 0.37438 0.54277 0.0
C587 C 0.49305 0.36107 0.63187 0.0
C588 C 0.48256 0.34406 0.67103 0.0
C589 C 0.51333 0.39356 0.5625 0.0
C590 C 0.5044 0.39656 0.61751 0.0
C591 C 0.49438 0.38032 0.65155 0.0
C592 C 0.50513 0.41656 0.64001 0.0
C593 C 0.52377 0.41064 0.52333 0.0
C594 C 0.52343 0.42518 0.65529 0.0
C595 C 0.52407 0.444 0.67695 0.0
C596 C 0.50638 0.4545 0.68399 0.0
C597 C 0.48808 0.44588 0.66808 0.0
C598 C 0.48747 0.42704 0.64648 0.0
H599 H 0.5259 0.40699 0.47692 0.0
H600 H 0.51519 0.42478 0.52181 0.0
H601 H 0.53871 0.41354 0.54214 0.0
H602 H 0.5372 0.41721 0.65124 0.0
H603 H 0.53839 0.45013 0.68921 0.0
H604 H 0.20515 0.52467 0.41283 0.0
H605 H 0.18218 0.53243 0.49184 0.0
H606 H 0.15941 0.4708 0.50992 0.0
H607 H 0.18229 0.4631 0.4317 0.0
H608 H 0.14184 0.52952 0.47288 0.0
H609 H 0.16033 0.48216 0.68259 0.0
H610 H 0.17807 0.48767 0.62191 0.0
H611 H 0.15974 0.46747 0.62086 0.0
C612 C 0.19585 0.51263 0.43575 0.0
C613 C 0.19547 0.49329 0.41672 0.0
C614 C 0.18266 0.51708 0.48047 0.0
C615 C 0.16919 0.50216 0.50711 0.0
C616 C 0.16995 0.48244 0.49106 0.0
H617 H 0.05571 0.47845 0.65461 0.0
H618 H 0.08891 0.48069 0.60929 0.0
C619 C 0.18297 0.47805 0.44627 0.0
C620 C 0.15216 0.50762 0.54367 0.0
H621 H 0.12536 0.49088 0.66956 0.0
C622 C 0.13846 0.52151 0.51668 0.0
C623 C 0.14778 0.49714 0.60069 0.0
C624 C 0.16239 0.48294 0.63341 0.0
C625 C 0.11981 0.52401 0.54309 0.0
C626 C 0.1149 0.51245 0.59813 0.0
C627 C 0.12911 0.49957 0.62699 0.0
C628 C 0.09448 0.5119 0.62354 0.0
C629 C 0.10497 0.53792 0.51017 0.0
C630 C 0.0865 0.52886 0.64571 0.0
C631 C 0.06739 0.52767 0.6715 0.0
C632 C 0.05606 0.50947 0.6757 0.0
C633 C 0.064 0.4927 0.65212 0.0
C634 C 0.08302 0.49391 0.62645 0.0
H635 H 0.11016 0.54374 0.46431 0.0
H636 H 0.09034 0.52992 0.50709 0.0
H637 H 0.1026 0.55105 0.53522 0.0
H638 H 0.0952 0.54283 0.64428 0.0
H639 H 0.06175 0.54081 0.68966 0.0
H640 H 0.02523 0.80907 0.17914 0.0
H641 H 0.0309 0.83546 0.09509 0.0
H642 H 0.97526 0.81853 0.01676 0.0
H643 H 0.96948 0.79206 0.10122 0.0
H644 H 0.02986 0.83926 0.96171 0.0
H645 H 0.96835 0.87649 0.07136 0.0
H646 H 0.98096 0.85484 0.1083 0.0
H647 H 0.9631 0.85162 0.05078 0.0
C648 C 0.01458 0.81052 0.14284 0.0
C649 C 0.99685 0.79873 0.14665 0.0
C650 C 0.01784 0.82555 0.0949 0.0
C651 C 0.00336 0.82908 0.05034 0.0
C652 C 0.98654 0.81605 0.05104 0.0
H653 H 0.00505 0.93286 0.7721 0.0
H654 H 0.00414 0.89825 0.82296 0.0
C655 C 0.98331 0.80089 0.09898 0.0
C656 C 0.00439 0.84826 0.00977 0.0
H657 H 0.98449 0.89534 0.98992 0.0
C658 C 0.0198 0.85147 0.96713 0.0
C659 C 0.99144 0.86422 0.01801 0.0
C660 C 0.97508 0.86181 0.06478 0.0
C661 C 0.02268 0.87038 0.93268 0.0
C662 C 0.00984 0.88634 0.94149 0.0
C663 C 0.99429 0.88302 0.98348 0.0
C664 C 0.01252 0.90691 0.90913 0.0
C665 C 0.03977 0.87343 0.88858 0.0
C666 C 0.0176 0.92319 0.94083 0.0
C667 C 0.01813 0.94299 0.91202 0.0
C668 C 0.01337 0.94685 0.85109 0.0
C669 C 0.0088 0.93041 0.81911 0.0
C670 C 0.00837 0.9106 0.84794 0.0
H671 H 0.05017 0.86058 0.89372 0.0
H672 H 0.03376 0.8749 0.84245 0.0
H673 H 0.04827 0.88762 0.89404 0.0
H674 H 0.02074 0.92059 0.98823 0.0
H675 H 0.02166 0.9553 0.93792 0.0
H676 H 0.7012 0.04255 0.08443 0.0
H677 H 0.67424 0.0458 0.01116 0.0
H678 H 0.69051 0.98922 0.95102 0.0
H679 H 0.71742 0.9858 0.02494 0.0
H680 H 0.66772 0.04306 0.88343 0.0
H681 H 0.63515 0.97888 0.03743 0.0
H682 H 0.6568 0.99331 0.05677 0.0
H683 H 0.65913 0.9748 0.00546 0.0
C684 C 0.69951 0.03123 0.0539 0.0
C685 C 0.7112 0.01383 0.06063 0.0
C686 C 0.68411 0.03309 0.01212 0.0
C687 C 0.68017 0.01755 0.97663 0.0
C688 C 0.69323 1.00127 0.97855 0.0
H689 H 0.57616 0.01038 0.74545 0.0
H690 H 0.61036 0.01283 0.78193 0.0
C691 C 0.7087 0.99941 0.02037 0.0
C692 C 0.66068 0.01682 0.94602 0.0
H693 H 0.61524 0.9923 0.95761 0.0
C694 C 0.65628 0.03186 0.89904 0.0
C695 C 0.64568 1.00243 0.96758 0.0
C696 C 0.64925 0.98651 0.01986 0.0
C697 C 0.6372 0.03286 0.87302 0.0
C698 C 0.62227 0.01841 0.89458 0.0
C699 C 0.62675 0.00333 0.94121 0.0
C700 C 0.60169 0.01877 0.87061 0.0
C701 C 0.63296 0.0497 0.82405 0.0
C702 C 0.58546 0.02121 0.90848 0.0
C703 C 0.56587 0.01972 0.88793 0.0
C704 C 0.56216 0.0156 0.82918 0.0
C705 C 0.57848 0.01359 0.79096 0.0
C706 C 0.59807 0.01511 0.81155 0.0
H707 H 0.64456 0.06198 0.8215 0.0
H708 H 0.63265 0.04351 0.78046 0.0
H709 H 0.61816 0.05626 0.83103 0.0
H710 H 0.58797 0.02393 0.95435 0.0
H711 H 0.55366 0.02132 0.91852 0.0
H712 H 0.49595 0.70117 0.06213 0.0
H713 H 0.49152 0.6747 0.99585 0.0
H714 H 0.55498 0.66515 0.99907 0.0
H715 H 0.55938 0.69139 0.06576 0.0
H716 H 0.51186 0.66207 0.88208 0.0
H717 H 0.52518 0.61415 0.09748 0.0
H718 H 0.51881 0.64048 0.09379 0.0
H719 H 0.54371 0.63366 0.0759 0.0
C720 C 0.50902 0.69416 0.04595 0.0
C721 C 0.52801 0.69829 0.06846 0.0
C722 C 0.50648 0.67897 0.00852 0.0
C723 C 0.52291 0.66785 0.99343 0.0
C724 C 0.54214 0.67357 0.01048 0.0
H725 H 0.54076 0.55086 0.87965 0.0
H726 H 0.54326 0.58378 0.91703 0.0
C727 C 0.54467 0.68863 0.04807 0.0
C728 C 0.51969 0.64825 0.96985 0.0
H729 H 0.52179 0.59731 0.0116 0.0
C730 C 0.51394 0.64788 0.91022 0.0
C731 C 0.52226 0.62983 0.00713 0.0
C732 C 0.52768 0.62941 0.0723 0.0
C733 C 0.51129 0.62942 0.88631 0.0
C734 C 0.51417 0.61101 0.92347 0.0
C735 C 0.51963 0.61146 0.98329 0.0
C736 C 0.51228 0.59104 0.90096 0.0
C737 C 0.50599 0.62973 0.8212 0.0
C738 C 0.49387 0.58401 0.88094 0.0
C739 C 0.49234 0.5651 0.85981 0.0
C740 C 0.5092 0.55292 0.85847 0.0
C741 C 0.52748 0.55985 0.88001 0.0
C742 C 0.52897 0.57869 0.90121 0.0
H743 H 0.50845 0.64499 0.79595 0.0
H744 H 0.51494 0.61866 0.79999 0.0
H745 H 0.48998 0.6254 0.81747 0.0
H746 H 0.48072 0.59315 0.88162 0.0
H747 H 0.47805 0.56021 0.84351 0.0
H748 H 0.80466 0.51672 0.09253 0.0
H749 H 0.82672 0.51147 0.0092 0.0
H750 H 0.85804 0.46623 0.12442 0.0
H751 H 0.83504 0.47004 0.20509 0.0
H752 H 0.8625 0.52159 0.00394 0.0
H753 H 0.86293 0.44082 0.97936 0.0
H754 H 0.84368 0.45118 0.022 0.0
H755 H 0.86679 0.44272 0.05694 0.0
C756 C 0.81564 0.50496 0.09905 0.0
C757 C 0.81835 0.49406 0.1557 0.0
C758 C 0.82841 0.5021 0.05155 0.0
C759 C 0.84418 0.48843 0.06009 0.0
C760 C 0.84582 0.47649 0.11553 0.0
H761 H 0.96363 0.51532 0.93899 0.0
H762 H 0.93046 0.51285 0.9855 0.0
C763 C 0.83281 0.47897 0.16227 0.0
C764 C 0.86078 0.48891 0.01575 0.0
H765 H 0.89566 0.45879 0.9632 0.0
C766 C 0.8694 0.5078 0.99379 0.0
C767 C 0.86972 0.47109 0.0007 0.0
C768 C 0.86007 0.45038 0.01554 0.0
C769 C 0.88734 0.50932 0.96113 0.0
C770 C 0.89761 0.49145 0.95304 0.0
C771 C 0.88826 0.47257 0.97105 0.0
C772 C 0.91815 0.49202 0.92732 0.0
C773 C 0.89495 0.53012 0.93577 0.0
C774 C 0.92281 0.48004 0.88211 0.0
C775 C 0.94204 0.48072 0.8576 0.0
C776 C 0.95685 0.49368 0.87702 0.0
C777 C 0.95239 0.50532 0.92303 0.0
C778 C 0.93334 0.50414 0.94889 0.0
H779 H 0.88238 0.54054 0.92512 0.0
H780 H 0.90434 0.5366 0.96958 0.0
H781 H 0.90393 0.52964 0.8945 0.0
H782 H 0.91148 0.47045 0.86486 0.0
H783 H 0.94508 0.47171 0.82172 0.0
H784 H 0.06002 0.21799 0.14379 0.0
H785 H 0.06258 0.19359 0.07027 0.0
H786 H 0.00902 0.16271 0.14326 0.0
H787 H 0.00623 0.1871 0.21519 0.0
H788 H 0.06777 0.15307 0.09835 0.0
H789 H 0.99884 0.16458 0.96666 0.0
H790 H 0.00827 0.183 0.01296 0.0
H791 H 0.99321 0.16161 0.04506 0.0
C792 C 0.04852 0.20632 0.14274 0.0
C793 C 0.03295 0.20437 0.18511 0.0
C794 C 0.05005 0.19235 0.10109 0.0
C795 C 0.03586 0.17645 0.10078 0.0
C796 C 0.0199 0.17507 0.14161 0.0
H797 H 0.04172 0.05349 0.04519 0.0
H798 H 0.04573 0.08707 0.07704 0.0
C799 C 0.0184 0.18892 0.18307 0.0
C800 C 0.03856 0.15997 0.06265 0.0
H801 H 0.01263 0.13093 0.97295 0.0
C802 C 0.0559 0.14847 0.06984 0.0
C803 C 0.02327 0.15412 0.02464 0.0
C804 C 0.00496 0.16664 0.01137 0.0
C805 C 0.05773 0.13051 0.04338 0.0
C806 C 0.0416 0.12366 0.01 0.0
C807 C 0.02489 0.13594 -0.00063 0.0
C808 C 0.04105 0.10328 0.98918 0.0
C809 C 0.0768 0.11893 0.05231 0.0
C810 C 0.03678 0.10109 0.92933 0.0
C811 C 0.03404 0.08184 0.91118 0.0
C812 C 0.03545 0.0643 0.95259 0.0
C813 C 0.04032 0.06658 0.01215 0.0
C814 C 0.04293 0.08583 0.0303 0.0
H815 H 0.08969 0.12923 0.05893 0.0
H816 H 0.07535 0.10784 0.09305 0.0
H817 H 0.08007 0.11061 0.01366 0.0
H818 H 0.03509 0.11432 0.89686 0.0
H819 H 0.03004 0.08086 0.86515 0.0
H820 H 0.31955 0.0478 0.28141 0.0
H821 H 0.34506 0.04902 0.20321 0.0
H822 H 0.32136 0.99308 0.15019 0.0
H823 H 0.29578 0.99176 0.22904 0.0
H824 H 0.3619 0.99221 0.17936 0.0
H825 H 0.34639 0.06003 0.02017 0.0
H826 H 0.34611 0.06492 0.09682 0.0
H827 H 0.32772 0.04785 0.07125 0.0
C828 C 0.31946 0.03606 0.25197 0.0
C829 C 0.30573 0.01968 0.26119 0.0
C830 C 0.33397 0.03683 0.20709 0.0
C831 C 0.33502 0.02123 0.17052 0.0
C832 C 0.3207 0.00535 0.17765 0.0
H833 H 0.42975 0.01505 0.90409 0.0
H834 H 0.39709 0.01605 0.9519 0.0
C835 C 0.30604 0.00466 0.22238 0.0
C836 C 0.3526 0.02028 0.13085 0.0
H837 H 0.37982 0.04754 0.01913 0.0
C838 C 0.36565 0.00415 0.1437 0.0
C839 C 0.35747 0.03583 0.08426 0.0
C840 C 0.34359 0.05305 0.06683 0.0
C841 C 0.38385 0.0036 0.11299 0.0
C842 C 0.3892 0.01969 0.06864 0.0
C843 C 0.37577 0.03536 0.05377 0.0
C844 C 0.40894 0.02062 0.03851 0.0
C845 C 0.39737 0.98594 0.12874 0.0
C846 C 0.4264 0.0234 0.07105 0.0
C847 C 0.44514 0.02306 0.04377 0.0
C848 C 0.44681 0.01989 0.98334 0.0
C849 C 0.42917 0.01775 0.95042 0.0
C850 C 0.41042 0.0182 0.97774 0.0
H851 H 0.38926 0.9728 0.15366 0.0
H852 H 0.40411 0.98108 0.08785 0.0
H853 H 0.40968 0.99062 0.15736 0.0
H854 H 0.42552 0.02559 0.11785 0.0
H855 H 0.45831 0.02512 0.07024 0.0
H856 H 0.45999 0.31472 0.22225 0.0
H857 H 0.46083 0.34269 0.14023 0.0
H858 H 0.5212 0.35805 0.18699 0.0
H859 H 0.52041 0.33028 0.26864 0.0
H860 H 0.46892 0.38477 0.16263 0.0
H861 H 0.52239 0.35834 0.00157 0.0
H862 H 0.50897 0.34119 0.05683 0.0
H863 H 0.53038 0.35535 0.07815 0.0
C864 C 0.47358 0.32376 0.21385 0.0
C865 C 0.49015 0.32038 0.25151 0.0
C866 C 0.474 0.33977 0.1674 0.0
C867 C 0.49112 0.35232 0.15745 0.0
C868 C 0.50795 0.34838 0.19346 0.0
H869 H 0.53073 0.46105 0.94027 0.0
H870 H 0.52658 0.43079 0.01266 0.0
C871 C 0.50746 0.33258 0.24011 0.0
C872 C 0.49102 0.37061 0.11307 0.0
H873 H 0.51489 0.39335 0.988 0.0
C874 C 0.47876 0.38662 0.12395 0.0
C875 C 0.50402 0.37296 0.06316 0.0
C876 C 0.5171 0.35601 0.04872 0.0
C877 C 0.4797 0.40525 0.08733 0.0
C878 C 0.49293 0.40772 0.03775 0.0
C879 C 0.50485 0.3915 0.0262 0.0
C880 C 0.49489 0.42703 0.9975 0.0
C881 C 0.4671 0.42233 0.1035 0.0
C882 C 0.4784 0.43515 0.96551 0.0
C883 C 0.48067 0.4526 0.92462 0.0
C884 C 0.49956 0.46207 0.91425 0.0
C885 C 0.51597 0.45415 0.94728 0.0
C886 C 0.51364 0.4368 0.98849 0.0
H887 H 0.46219 0.41985 0.15102 0.0
H888 H 0.47538 0.43706 0.0956 0.0
H889 H 0.45352 0.42329 0.07529 0.0
H890 H 0.46387 0.42764 0.97072 0.0
H891 H 0.46777 0.45817 0.89944 0.0
H892 H 0.19604 0.50611 0.14461 0.0
H893 H 0.16797 0.50528 0.07494 0.0
H894 H 0.14105 0.45516 0.18863 0.0
H895 H 0.16893 0.45597 0.2583 0.0
H896 H 0.14907 0.47444 0.01234 0.0
H897 H 0.09998 0.50095 0.18492 0.0
H898 H 0.12687 0.5017 0.18991 0.0
H899 H 0.1132 0.47826 0.20911 0.0
C900 C 0.18439 0.49459 0.15383 0.0
C901 C 0.18453 0.48125 0.20713 0.0
C902 C 0.16834 0.49419 0.11423 0.0
C903 C 0.15225 0.48045 0.12742 0.0
C904 C 0.15312 0.46615 0.1783 0.0
H905 H 0.04997 0.46008 0.90026 0.0
H906 H 0.07932 0.45577 0.96466 0.0
C907 C 0.16908 0.46658 0.21789 0.0
C908 C 0.1339 0.48201 0.09068 0.0
H909 H 0.08434 0.49272 0.09676 0.0
C910 C 0.1349 0.4784 0.03068 0.0
C911 C 0.11551 0.48748 0.11463 0.0
C912 C 0.11375 0.49251 0.178 0.0
C913 C 0.11789 0.47987 0.99413 0.0
C914 C 0.09939 0.48486 0.01857 0.0
C915 C 0.09848 0.48868 0.07837 0.0
C916 C 0.08098 0.48703 0.98218 0.0
C917 C 0.11993 0.47655 0.92934 0.0
C918 C 0.07169 0.50583 0.97273 0.0
C919 C 0.05483 0.50831 0.93641 0.0
C920 C 0.04686 0.492 0.90905 0.0
C921 C 0.05574 0.47297 0.92055 0.0
C922 C 0.07263 0.47051 0.95687 0.0
H923 H 0.13578 0.47744 0.91434 0.0
H924 H 0.11385 0.46127 0.92333 0.0
H925 H 0.11136 0.48788 0.90019 0.0
H926 H 0.0778 0.51873 0.99227 0.0
H927 H 0.04838 0.52317 0.92858 0.0
H928 H 0.01085 0.81528 0.34528 0.0
H929 H 0.0065 0.84027 0.41448 0.0
H930 H 0.94739 0.81584 0.45908 0.0
H931 H 0.9514 0.79116 0.38735 0.0
H932 H 0.94647 0.8556 0.432 0.0
H933 H 0.00779 0.83939 0.5914 0.0
H934 H 0.01751 0.84208 0.51669 0.0
H935 H 0.99998 0.82172 0.54068 0.0
C936 C 0.99701 0.81501 0.37045 0.0
C937 C 0.98141 0.80134 0.36052 0.0
C938 C 0.99463 0.82918 0.41064 0.0
C939 C 0.97672 0.82981 0.44278 0.0
C940 C 0.9614 0.81556 0.43508 0.0
H941 H 0.979 0.92627 0.67593 0.0
H942 H 0.97361 0.89298 0.64377 0.0
C943 C 0.96375 0.80137 0.39446 0.0
C944 C 0.97347 0.84676 0.47897 0.0
H945 H 0.99689 0.87434 0.57768 0.0
C946 C 0.95727 0.85946 0.46484 0.0
C947 C 0.98725 0.85167 0.5228 0.0
C948 C 0.00396 0.83782 0.5442 0.0
C949 C 0.95526 0.8776 0.49023 0.0
C950 C 0.9702 0.88351 0.52944 0.0
C951 C 0.98561 0.8701 0.54674 0.0
C952 C 0.97096 0.90398 0.54988 0.0
C953 C 0.93725 0.8903 0.47414 0.0
C954 C 0.97103 0.92141 0.50806 0.0
C955 C 0.97374 0.94062 0.52641 0.0
C956 C 0.97693 0.9429 0.587 0.0
C957 C 0.97642 0.92539 0.62899 0.0
C958 C 0.97347 0.90619 0.61061 0.0
H959 H 0.92422 0.88068 0.46399 0.0
H960 H 0.93304 0.8992 0.51073 0.0
H961 H 0.94064 0.90093 0.43338 0.0
H962 H 0.96966 0.92017 0.46076 0.0
H963 H 0.97376 0.95361 0.49266 0.0
H964 H 0.71356 0.96663 0.30681 0.0
H965 H 0.68741 0.96158 0.38425 0.0
H966 H 0.67053 0.0238 0.3425 0.0
H967 H 0.69667 0.02897 0.26581 0.0
H968 H 0.66954 0.00865 0.46875 0.0
H969 H 0.62852 0.95931 0.32476 0.0
H970 H 0.65365 0.9525 0.34498 0.0
H971 H 0.64931 0.97553 0.29717 0.0
C972 C 0.70463 0.97935 0.31544 0.0
C973 C 0.707 0.99815 0.28005 0.0
C974 C 0.68962 0.97641 0.35926 0.0
C975 C 0.67685 0.99223 0.36835 0.0
C976 C 0.68017 0.01137 0.33602 0.0
H977 H 0.55647 0.00403 0.47077 0.0
H978 H 0.58903 1.00207 0.42386 0.0
C979 C 0.69506 0.01429 0.29217 0.0
C980 C 0.65886 0.98863 0.40699 0.0
H981 H 0.61218 0.96669 0.41149 0.0
C982 C 0.6571 0.99923 0.45694 0.0
C983 C 0.64257 0.97654 0.39079 0.0
C984 C 0.64341 0.96539 0.33633 0.0
C985 C 0.63928 0.9984 0.4904 0.0
C986 C 0.62289 0.9866 0.47348 0.0
C987 C 0.62483 0.97561 0.42446 0.0
C988 C 0.60304 0.98689 0.5026 0.0
C989 C 0.63776 0.01086 0.54186 0.0
C990 C 0.6 0.97866 0.56228 0.0
C991 C 0.58124 0.97955 0.58933 0.0
C992 C 0.56515 0.98873 0.55718 0.0
C993 C 0.56828 0.99661 0.49697 0.0
C994 C 0.58698 0.99563 0.47002 0.0
H995 H 0.65072 0.02151 0.5435 0.0
H996 H 0.62384 0.01967 0.53856 0.0
H997 H 0.63716 1.00063 0.58452 0.0
H998 H 0.61214 0.97155 0.58791 0.0
H999 H 0.57938 0.97301 0.63536 0.0
H1000 H 0.55802 0.66982 0.25446 0.0
H1001 H 0.55595 0.64131 0.33371 0.0
H1002 H 0.5066 0.6689 0.41378 0.0
H1003 H 0.50844 0.69748 0.33405 0.0
H1004 H 0.53721 0.64911 0.49679 0.0
H1005 H 0.50659 0.60082 0.33187 0.0
H1006 H 0.52948 0.61446 0.31049 0.0
H1007 H 0.50704 0.62814 0.31876 0.0
C1008 C 0.5469 0.66995 0.28941 0.0
C1009 C 0.53322 0.68575 0.28769 0.0
C1010 C 0.54574 0.65367 0.33455 0.0
C1011 C 0.53091 0.65288 0.3788 0.0
C1012 C 0.5181 0.66925 0.37972 0.0
H1013 H 0.48403 0.54799 0.6064 0.0
H1014 H 0.48869 0.57819 0.53383 0.0
C1015 C 0.51924 0.68559 0.33441 0.0
C1016 C 0.52791 0.63432 0.42131 0.0
H1017 H 0.5136 0.58448 0.42838 0.0
C1018 C 0.53204 0.63497 0.48201 0.0
C1019 C 0.52093 0.616 0.40175 0.0
C1020 C 0.51557 0.61472 0.33727 0.0
C1021 C 0.52971 0.61759 0.52368 0.0
C1022 C 0.52323 0.59914 0.5038 0.0
C1023 C 0.51875 0.59861 0.44327 0.0
C1024 C 0.52069 0.58028 0.54541 0.0
C1025 C 0.53394 0.61911 0.58873 0.0
C1026 C 0.53724 0.57114 0.57445 0.0
C1027 C 0.53467 0.5538 0.61559 0.0
C1028 C 0.51547 0.54533 0.62845 0.0
C1029 C 0.49901 0.55414 0.59759 0.0
C1030 C 0.50162 0.57142 0.55624 0.0
H1031 H 0.53462 0.63509 0.5985 0.0
H1032 H 0.52233 0.61072 0.61772 0.0
H1033 H 0.54856 0.61224 0.6006 0.0
H1034 H 0.55212 0.57756 0.56581 0.0
H1035 H 0.54767 0.5474 0.63852 0.0
H1036 H 0.8351 0.47945 0.36824 0.0
H1037 H 0.86287 0.48312 0.43655 0.0
H1038 H 0.85026 0.54643 0.43561 0.0
H1039 H 0.82222 0.54276 0.36702 0.0
H1040 H 0.89524 0.51125 0.39888 0.0
H1041 H 0.86117 0.5254 0.61547 0.0
H1042 H 0.84745 0.51301 0.56065 0.0
H1043 H 0.85233 0.53979 0.54829 0.0
C1044 C 0.83793 0.49403 0.3839 0.0
C1045 C 0.8266 0.51084 0.36243 0.0
C1046 C 0.85381 0.49611 0.42271 0.0
C1047 C 0.85863 0.51503 0.44099 0.0
C1048 C 0.84662 0.53165 0.42251 0.0
H1049 H 0.96199 0.54306 0.65844 0.0
H1050 H 0.93264 0.54706 0.5938 0.0
C1051 C 0.83061 0.52954 0.38357 0.0
C1052 C 0.87745 0.51751 0.474 0.0
H1053 H 0.89632 0.52484 0.61052 0.0
C1054 C 0.8955 0.51435 0.44506 0.0
C1055 C 0.87772 0.5218 0.53388 0.0
C1056 C 0.85868 0.52511 0.56685 0.0
C1057 C 0.91381 0.51484 0.47489 0.0
C1058 C 0.91404 0.51822 0.53564 0.0
C1059 C 0.89607 0.52218 0.56397 0.0
C1060 C 0.93258 0.51633 0.57151 0.0
C1061 C 0.93275 0.51164 0.44115 0.0
C1062 C 0.94233 0.49777 0.58002 0.0
C1063 C 0.9591 0.49544 0.61668 0.0
C1064 C 0.9664 0.51161 0.6459 0.0
C1065 C 0.95684 0.53034 0.63627 0.0
C1066 C 0.94001 0.53264 0.59963 0.0
H1067 H 0.93081 0.51544 0.39217 0.0
H1068 H 0.94535 0.52095 0.45587 0.0
H1069 H 0.93677 0.49547 0.4497 0.0
H1070 H 0.93664 0.48488 0.55959 0.0
H1071 H 0.96599 0.48077 0.62342 0.0
loop_
_geom_bond_atom_site_label_1
_geom_bond_atom_site_label_2
_geom_bond_distance
_geom_bond_site_symmetry_2
_ccdc_geom_bond_type
H0 C3 0.929 . S
H1 C6 0.929 . S
H2 C8 0.930 . S
C3 H0 0.929 . S
C3 C4 1.398 . S
C3 C5 1.396 . S
C4 C3 1.398 . S
C4 C8 1.407 . S
C5 C3 1.396 . S
C5 C6 1.394 . S
C6 H1 0.929 . S
C6 C5 1.394 . S
C6 C7 1.382 . S
C7 C6 1.382 . S
C7 C8 1.392 . S
C7 N9 1.420 . S
C8 H2 0.930 . S
C8 C4 1.407 . S
C8 C7 1.392 . S
N9 C7 1.420 . S
N9 C10 1.244 . S
C10 N9 1.244 . S
H11 C14 0.929 . S
H12 C17 0.929 . S
H13 C19 0.930 . S
C14 H11 0.929 . S
C14 C15 1.398 . S
C14 C16 1.396 . S
C15 C14 1.398 . S
C15 C19 1.407 . S
C16 C14 1.396 . S
C16 C17 1.394 . S
C17 H12 0.929 . S
C17 C16 1.394 . S
C17 C18 1.382 . S
C18 C17 1.382 . S
C18 C19 1.392 . S
C18 N20 1.420 . S
C19 H13 0.930 . S
C19 C15 1.407 . S
C19 C18 1.392 . S
N20 C18 1.420 . S
N20 C21 1.244 . S
C21 N20 1.244 . S
H22 C25 0.929 . S
H23 C28 0.929 1_556 S
H24 C30 0.930 . S
C25 H22 0.929 . S
C25 C26 1.393 1_565 S
C25 C27 1.396 1_565 S
C26 C25 1.393 1_545 S
C26 C30 1.412 . S
C27 C25 1.396 1_545 S
C27 C28 1.396 . S
C28 H23 0.929 1_554 S
C28 C27 1.396 . S
C28 C29 1.382 . S
C29 C28 1.382 . S
C29 C30 1.392 . S
C29 N31 1.420 . S
C30 H24 0.930 . S
C30 C26 1.412 . S
C30 C29 1.392 . S
N31 C29 1.420 . S
N31 C32 1.229 1_545 S
C32 N31 1.229 1_565 S
H33 C36 0.929 . S
H34 C39 0.929 . S
H35 C41 0.930 . S
C36 H33 0.929 . S
C36 C37 1.398 . S
C36 C38 1.396 . S
C37 C36 1.398 . S
C37 C41 1.407 . S
C38 C36 1.396 . S
C38 C39 1.394 . S
C39 H34 0.929 . S
C39 C38 1.394 . S
C39 C40 1.382 . S
C40 C39 1.382 . S
C40 C41 1.392 . S
C40 N42 1.420 . S
C41 H35 0.930 . S
C41 C37 1.407 . S
C41 C40 1.392 . S
N42 C40 1.420 . S
N42 C43 1.244 . S
C43 N42 1.244 . S
H44 C47 0.929 . S
H45 C50 0.929 . S
H46 C52 0.930 . S
C47 H44 0.929 . S
C47 C48 1.398 . S
C47 C49 1.396 . S
C48 C47 1.398 . S
C48 C52 1.407 . S
C49 C47 1.396 . S
C49 C50 1.394 . S
C50 H45 0.929 . S
C50 C49 1.394 . S
C50 C51 1.382 . S
C51 C50 1.382 . S
C51 C52 1.392 . S
C51 N53 1.420 . S
C52 H46 0.930 . S
C52 C48 1.407 . S
C52 C51 1.392 . S
N53 C51 1.420 . S
N53 C54 1.244 . S
C54 N53 1.244 . S
H55 C58 0.929 . S
H56 C61 0.929 . S
H57 C63 0.930 . S
C58 H55 0.929 . S
C58 C59 1.398 . S
C58 C60 1.396 . S
C59 C58 1.398 . S
C59 C63 1.407 . S
C60 C58 1.396 . S
C60 C61 1.394 . S
C61 H56 0.929 . S
C61 C60 1.394 . S
C61 C62 1.382 . S
C62 C61 1.382 . S
C62 C63 1.392 . S
C62 N64 1.420 . S
C63 H57 0.930 . S
C63 C59 1.407 . S
C63 C62 1.392 . S
N64 C62 1.420 . S
N64 C65 1.244 . S
C65 N64 1.244 . S
H66 C69 0.929 . S
H67 C72 0.929 . S
H68 C74 0.930 . S
C69 H66 0.929 . S
C69 C70 1.398 1_565 S
C69 C71 1.391 1_565 S
C70 C69 1.398 1_545 S
C70 C74 1.417 . S
C71 C69 1.391 1_545 S
C71 C72 1.399 . S
C72 H67 0.929 . S
C72 C71 1.399 . S
C72 C73 1.382 . S
C73 C72 1.382 . S
C73 C74 1.392 . S
C73 N75 1.420 . S
C74 H68 0.930 . S
C74 C70 1.417 . S
C74 C73 1.392 . S
N75 C73 1.420 . S
N75 C76 1.239 1_545 S
C76 N75 1.239 1_565 S
H77 C80 0.929 . S
H78 C83 0.929 . S
H79 C85 0.930 . S
C80 H77 0.929 . S
C80 C81 1.398 . S
C80 C82 1.396 . S
C81 C80 1.398 . S
C81 C85 1.407 . S
C82 C80 1.396 . S
C82 C83 1.394 . S
C83 H78 0.929 . S
C83 C82 1.394 . S
C83 C84 1.382 . S
C84 C83 1.382 . S
C84 C85 1.392 . S
C84 N86 1.420 . S
C85 H79 0.930 . S
C85 C81 1.407 . S
C85 C84 1.392 . S
N86 C84 1.420 . S
N86 C87 1.244 . S
C87 N86 1.244 . S
Co88 N93 2.057 . S
Co88 O105 2.021 . S
Co88 O108 2.062 . S
Co88 O112 2.117 1_455 S
Co88 O113 2.020 1_545 S
C89 O109 1.259 1_545 S
C89 O112 1.258 . S
Co90 N99 2.057 . S
Co90 O106 2.117 1_655 S
Co90 O107 2.019 1_665 S
Co90 O109 2.021 . S
Co90 O114 2.062 . S
C91 N93 1.316 . S
C91 N94 1.347 . S
C91 H96 0.931 . S
C92 N93 1.375 1_655 S
C92 C95 1.350 1_655 S
C92 H97 0.930 . S
N93 Co88 2.057 . S
N93 C91 1.316 . S
N93 C92 1.375 1_455 S
N94 C91 1.347 . S
N94 C95 1.373 . S
C95 C92 1.350 1_455 S
C95 N94 1.373 . S
C95 H116 0.931 1_455 S
H96 C91 0.931 . S
H97 C92 0.930 . S
C98 O105 1.259 1_565 S
C98 O106 1.258 . S
N99 Co90 2.057 . S
N99 C100 1.316 . S
N99 C101 1.375 1_655 S
C100 N99 1.316 . S
C100 N102 1.347 . S
C100 H111 0.931 . S
C101 N99 1.375 1_455 S
C101 C103 1.350 . S
C101 H110 0.930 . S
N102 C100 1.347 . S
N102 C103 1.373 1_655 S
C103 C101 1.350 . S
C103 N102 1.373 1_455 S
C103 H117 0.931 . S
C104 O107 1.256 . S
C104 O108 1.255 . S
O105 Co88 2.021 . S
O105 C98 1.259 1_545 S
O106 Co90 2.117 1_455 S
O106 C98 1.258 . S
O107 Co90 2.019 1_445 S
O107 C104 1.256 . S
O108 Co88 2.062 . S
O108 C104 1.255 . S
O109 C89 1.259 1_565 S
O109 Co90 2.021 . S
H110 C101 0.930 . S
H111 C100 0.931 . S
O112 Co88 2.117 1_655 S
O112 C89 1.258 . S
O113 Co88 2.020 1_565 S
O113 C115 1.256 . S
O114 Co90 2.062 . S
O114 C115 1.255 1_655 S
C115 O113 1.256 . S
C115 O114 1.255 1_455 S
H116 C95 0.931 1_655 S
H117 C103 0.931 . S
Co118 N123 2.057 1_545 S
Co118 O135 2.021 . S
Co118 O138 2.064 . S
Co118 O142 2.117 1_545 S
Co118 O143 2.020 . S
C119 O139 1.259 . S
C119 O142 1.258 . S
Co120 N129 2.057 1_565 S
Co120 O136 2.117 1_565 S
Co120 O137 2.020 . S
Co120 O139 2.021 . S
Co120 O144 2.062 . S
C121 N123 1.318 1_545 S
C121 N124 1.347 . S
C121 H126 0.931 . S
C122 N123 1.373 . S
C122 C125 1.350 . S
C122 H127 0.930 . S
N123 Co118 2.057 1_565 S
N123 C121 1.318 1_565 S
N123 C122 1.373 . S
N124 C121 1.347 . S
N124 C125 1.373 1_545 S
C125 C122 1.350 . S
C125 N124 1.373 1_565 S
C125 H146 0.931 1_556 S
H126 C121 0.931 . S
H127 C122 0.930 . S
C128 O135 1.259 . S
C128 O136 1.258 . S
N129 Co120 2.057 1_545 S
N129 C130 1.308 1_545 S
N129 C131 1.383 . S
C130 N129 1.308 1_565 S
C130 N132 1.347 . S
C130 H141 0.931 . S
C131 N129 1.383 . S
C131 C133 1.350 . S
C131 H140 0.930 . S
N132 C130 1.347 . S
N132 C133 1.373 1_565 S
C133 C131 1.350 . S
C133 N132 1.373 1_545 S
C133 H147 0.931 . S
C134 O137 1.256 . S
C134 O138 1.250 1_565 S
O135 Co118 2.021 . S
O135 C128 1.259 . S
O136 Co120 2.117 1_545 S
O136 C128 1.258 . S
O137 Co120 2.020 . S
O137 C134 1.256 . S
O138 Co118 2.064 . S
O138 C134 1.250 1_545 S
O139 C119 1.259 . S
O139 Co120 2.021 . S
H140 C131 0.930 . S
H141 C130 0.931 . S
O142 Co118 2.117 1_565 S
O142 C119 1.258 . S
O143 Co118 2.020 . S
O143 C145 1.256 . S
O144 Co120 2.062 . S
O144 C145 1.254 1_565 S
C145 O143 1.256 . S
C145 O144 1.254 1_545 S
H146 C125 0.931 1_554 S
H147 C133 0.931 . S
Co148 N153 2.057 . S
Co148 O165 2.021 . S
Co148 O168 2.062 . S
Co148 O172 2.117 . S
Co148 O173 2.020 . S
C149 O169 1.259 . S
C149 O172 1.258 . S
Co150 N159 2.057 . S
Co150 O166 2.117 . S
Co150 O167 2.020 . S
Co150 O169 2.021 . S
Co150 O174 2.062 . S
C151 N153 1.316 . S
C151 N154 1.347 . S
C151 H156 0.931 . S
C152 N153 1.375 . S
C152 C155 1.350 . S
C152 H157 0.930 . S
N153 Co148 2.057 . S
N153 C151 1.316 . S
N153 C152 1.375 . S
N154 C151 1.347 . S
N154 C155 1.373 . S
C155 C152 1.350 . S
C155 N154 1.373 . S
C155 H176 0.931 . S
H156 C151 0.931 . S
H157 C152 0.930 . S
C158 O165 1.259 . S
C158 O166 1.258 . S
N159 Co150 2.057 . S
N159 C160 1.316 . S
N159 C161 1.375 . S
C160 N159 1.316 . S
C160 N162 1.347 . S
C160 H171 0.931 . S
C161 N159 1.375 . S
C161 C163 1.350 . S
C161 H170 0.930 . S
N162 C160 1.347 . S
N162 C163 1.373 . S
C163 C161 1.350 . S
C163 N162 1.373 . S
C163 H177 0.931 . S
C164 O167 1.256 . S
C164 O168 1.255 . S
O165 Co148 2.021 . S
O165 C158 1.259 . S
O166 Co150 2.117 . S
O166 C158 1.258 . S
O167 Co150 2.020 . S
O167 C164 1.256 . S
O168 Co148 2.062 . S
O168 C164 1.255 . S
O169 C149 1.259 . S
O169 Co150 2.021 . S
H170 C161 0.930 . S
H171 C160 0.931 . S
O172 Co148 2.117 . S
O172 C149 1.258 . S
O173 Co148 2.020 . S
O173 C175 1.256 . S
O174 Co150 2.062 . S
O174 C175 1.255 . S
C175 O173 1.256 . S
C175 O174 1.255 . S
H176 C155 0.931 . S
H177 C163 0.931 . S
Co178 N183 2.057 . S
Co178 O195 2.021 1_455 S
Co178 O198 2.062 1_455 S
Co178 O202 2.117 . S
Co178 O203 2.020 . S
C179 O199 1.259 . S
C179 O202 1.258 . S
Co180 N189 2.057 . S
Co180 O196 2.117 1_455 S
Co180 O197 2.020 1_455 S
Co180 O199 2.021 . S
Co180 O204 2.062 . S
C181 N183 1.316 1_655 S
C181 N184 1.359 . S
C181 H186 0.931 . S
C182 N183 1.375 . S
C182 C185 1.350 . S
C182 H187 0.930 . S
N183 Co178 2.057 . S
N183 C181 1.316 1_455 S
N183 C182 1.375 . S
N184 C181 1.359 . S
N184 C185 1.330 1_655 S
C185 C182 1.350 . S
C185 N184 1.330 1_455 S
C185 H206 0.931 . S
H186 C181 0.931 . S
H187 C182 0.930 . S
C188 O195 1.259 . S
C188 O196 1.258 . S
N189 Co180 2.057 . S
N189 C190 1.316 . S
N189 C191 1.375 1_455 S
C190 N189 1.316 . S
C190 N192 1.347 . S
C190 H201 0.931 . S
C191 N189 1.375 1_655 S
C191 C193 1.350 . S
C191 H200 0.930 . S
N192 C190 1.347 . S
N192 C193 1.373 1_455 S
C193 C191 1.350 . S
C193 N192 1.373 1_655 S
C193 H207 0.931 . S
C194 O197 1.256 . S
C194 O198 1.255 . S
O195 Co178 2.021 1_655 S
O195 C188 1.259 . S
O196 Co180 2.117 1_655 S
O196 C188 1.258 . S
O197 Co180 2.020 1_655 S
O197 C194 1.256 . S
O198 Co178 2.062 1_655 S
O198 C194 1.255 . S
O199 C179 1.259 . S
O199 Co180 2.021 . S
H200 C191 0.930 . S
H201 C190 0.931 . S
O202 Co178 2.117 . S
O202 C179 1.258 . S
O203 Co178 2.020 . S
O203 C205 1.256 . S
O204 Co180 2.062 . S
O204 C205 1.255 . S
C205 O203 1.256 . S
C205 O204 1.255 . S
H206 C185 0.931 . S
H207 C193 0.931 . S
H208 C216 0.929 . S
H209 C218 0.930 . S
H210 C220 0.930 . S
H211 C223 0.929 . S
H212 C226 0.930 . S
H213 C228 0.960 . S
H214 C228 0.960 . S
H215 C228 0.960 . S
C216 H208 0.929 . S
C216 C217 1.387 . S
C216 C218 1.384 . S
C217 C216 1.387 . S
C217 C223 1.380 1_565 S
C218 H209 0.930 . S
C218 C216 1.384 . S
C218 C219 1.372 . S
C219 C218 1.372 . S
C219 C220 1.400 1_565 S
C219 C224 1.490 . S
C220 H210 0.930 . S
C220 C219 1.400 1_545 S
C220 C223 1.386 . S
H221 C237 0.930 . S
H222 C238 0.931 . S
C223 H211 0.929 . S
C223 C217 1.380 1_545 S
C223 C220 1.386 . S
C224 C219 1.490 . S
C224 C226 1.395 1_565 S
C224 C227 1.403 . S
H225 C231 0.930 . S
C226 H212 0.930 . S
C226 C224 1.395 1_545 S
C226 C229 1.403 . S
C227 C224 1.403 . S
C227 C228 1.524 . S
C227 C231 1.400 . S
C228 H213 0.960 . S
C228 H214 0.960 . S
C228 H215 0.960 . S
C228 C227 1.524 . S
C229 C226 1.403 . S
C229 C230 1.369 1_545 S
C229 C233 1.495 . S
C230 C229 1.369 1_565 S
C230 C231 1.415 . S
C230 C232 1.477 . S
C231 H225 0.930 . S
C231 C227 1.400 . S
C231 C230 1.415 . S
C232 C230 1.477 . S
C232 C234 1.404 . S
C232 C238 1.360 1_565 S
C233 C229 1.495 . S
C233 H239 0.959 . S
C233 H240 0.961 . S
C233 H241 0.960 . S
C234 C232 1.404 . S
C234 C235 1.394 . S
C234 H242 0.930 . S
C235 C234 1.394 . S
C235 C236 1.383 . S
C235 H243 0.929 . S
C236 C235 1.383 . S
C236 C237 1.377 1_565 S
C237 H221 0.930 . S
C237 C236 1.377 1_545 S
C237 C238 1.379 . S
C238 H222 0.931 . S
C238 C232 1.360 1_545 S
C238 C237 1.379 . S
H239 C233 0.959 . S
H240 C233 0.961 . S
H241 C233 0.960 . S
H242 C234 0.930 . S
H243 C235 0.929 . S
H244 C252 0.929 . S
H245 C254 0.930 . S
H246 C256 0.930 . S
H247 C259 0.929 . S
H248 C262 0.930 . S
H249 C264 0.960 . S
H250 C264 0.960 . S
H251 C264 0.960 . S
C252 H244 0.929 . S
C252 C253 1.377 . S
C252 C254 1.384 . S
C253 C252 1.377 . S
C253 C259 1.390 . S
C254 H245 0.930 . S
C254 C252 1.384 . S
C254 C255 1.372 . S
C255 C254 1.372 . S
C255 C256 1.400 . S
C255 C260 1.490 . S
C256 H246 0.930 . S
C256 C255 1.400 . S
C256 C259 1.386 . S
H257 C273 0.930 . S
H258 C274 0.931 . S
C259 H247 0.929 . S
C259 C253 1.390 . S
C259 C256 1.386 . S
C260 C255 1.490 . S
C260 C262 1.395 . S
C260 C263 1.403 . S
H261 C267 0.930 . S
C262 H248 0.930 . S
C262 C260 1.395 . S
C262 C265 1.403 . S
C263 C260 1.403 . S
C263 C264 1.524 . S
C263 C267 1.400 . S
C264 H249 0.960 . S
C264 H250 0.960 . S
C264 H251 0.960 . S
C264 C263 1.524 . S
C265 C262 1.403 . S
C265 C266 1.392 . S
C265 C269 1.495 . S
C266 C265 1.392 . S
C266 C267 1.385 . S
C266 C268 1.478 . S
C267 H261 0.930 . S
C267 C263 1.400 . S
C267 C266 1.385 . S
C268 C266 1.478 . S
C268 C270 1.381 . S
C268 C274 1.383 . S
C269 C265 1.495 . S
C269 H275 0.959 . S
C269 H276 0.961 . S
C269 H277 0.960 . S
C270 C268 1.381 . S
C270 C271 1.394 . S
C270 H278 0.930 . S
C271 C270 1.394 . S
C271 C272 1.383 . S
C271 H279 0.929 . S
C272 C271 1.383 . S
C272 C273 1.377 . S
C273 H257 0.930 . S
C273 C272 1.377 . S
C273 C274 1.379 . S
C274 H258 0.931 . S
C274 C268 1.383 . S
C274 C273 1.379 . S
H275 C269 0.959 . S
H276 C269 0.961 . S
H277 C269 0.960 . S
H278 C270 0.930 . S
H279 C271 0.929 . S
H280 C288 0.929 . S
H281 C290 0.930 . S
H282 C292 0.930 . S
H283 C295 0.929 . S
H284 C298 0.930 . S
H285 C300 0.960 . S
H286 C300 0.960 . S
H287 C300 0.960 . S
C288 H280 0.929 . S
C288 C289 1.377 . S
C288 C290 1.384 . S
C289 C288 1.377 . S
C289 C295 1.390 . S
C290 H281 0.930 . S
C290 C288 1.384 . S
C290 C291 1.372 . S
C291 C290 1.372 . S
C291 C292 1.400 . S
C291 C296 1.490 . S
C292 H282 0.930 . S
C292 C291 1.400 . S
C292 C295 1.386 . S
H293 C309 0.930 . S
H294 C310 0.931 . S
C295 H283 0.929 . S
C295 C289 1.390 . S
C295 C292 1.386 . S
C296 C291 1.490 . S
C296 C298 1.395 . S
C296 C299 1.403 . S
H297 C303 0.930 . S
C298 H284 0.930 . S
C298 C296 1.395 . S
C298 C301 1.403 . S
C299 C296 1.403 . S
C299 C300 1.524 . S
C299 C303 1.400 . S
C300 H285 0.960 . S
C300 H286 0.960 . S
C300 H287 0.960 . S
C300 C299 1.524 . S
C301 C298 1.403 . S
C301 C302 1.392 . S
C301 C305 1.495 . S
C302 C301 1.392 . S
C302 C303 1.385 . S
C302 C304 1.478 . S
C303 H297 0.930 . S
C303 C299 1.400 . S
C303 C302 1.385 . S
C304 C302 1.478 . S
C304 C306 1.381 . S
C304 C310 1.383 . S
C305 C301 1.495 . S
C305 H311 0.959 . S
C305 H312 0.961 . S
C305 H313 0.960 . S
C306 C304 1.381 . S
C306 C307 1.394 . S
C306 H314 0.930 . S
C307 C306 1.394 . S
C307 C308 1.383 . S
C307 H315 0.929 . S
C308 C307 1.383 . S
C308 C309 1.377 . S
C309 H293 0.930 . S
C309 C308 1.377 . S
C309 C310 1.379 . S
C310 H294 0.931 . S
C310 C304 1.383 . S
C310 C309 1.379 . S
H311 C305 0.959 . S
H312 C305 0.961 . S
H313 C305 0.960 . S
H314 C306 0.930 . S
H315 C307 0.929 . S
H316 C324 0.929 . S
H317 C326 0.930 . S
H318 C328 0.930 . S
H319 C331 0.929 . S
H320 C334 0.930 . S
H321 C336 0.960 . S
H322 C336 0.960 . S
H323 C336 0.960 . S
C324 H316 0.929 . S
C324 C325 1.377 . S
C324 C326 1.384 . S
C325 C324 1.377 . S
C325 C331 1.390 . S
C326 H317 0.930 . S
C326 C324 1.384 . S
C326 C327 1.372 . S
C327 C326 1.372 . S
C327 C328 1.400 . S
C327 C332 1.490 . S
C328 H318 0.930 . S
C328 C327 1.400 . S
C328 C331 1.386 . S
H329 C345 0.930 . S
H330 C346 0.931 . S
C331 H319 0.929 . S
C331 C325 1.390 . S
C331 C328 1.386 . S
C332 C327 1.490 . S
C332 C334 1.395 . S
C332 C335 1.403 . S
H333 C339 0.930 . S
C334 H320 0.930 . S
C334 C332 1.395 . S
C334 C337 1.403 . S
C335 C332 1.403 . S
C335 C336 1.524 . S
C335 C339 1.400 . S
C336 H321 0.960 . S
C336 H322 0.960 . S
C336 H323 0.960 . S
C336 C335 1.524 . S
C337 C334 1.403 . S
C337 C338 1.392 . S
C337 C341 1.495 1_455 S
C338 C337 1.392 . S
C338 C339 1.385 . S
C338 C340 1.478 . S
C339 H333 0.930 . S
C339 C335 1.400 . S
C339 C338 1.385 . S
C340 C338 1.478 . S
C340 C342 1.381 . S
C340 C346 1.383 . S
C341 C337 1.495 1_655 S
C341 H347 0.959 . S
C341 H348 0.961 . S
C341 H349 0.960 1_655 S
C342 C340 1.381 . S
C342 C343 1.394 . S
C342 H350 0.930 . S
C343 C342 1.394 . S
C343 C344 1.383 . S
C343 H351 0.929 . S
C344 C343 1.383 . S
C344 C345 1.377 . S
C345 H329 0.930 . S
C345 C344 1.377 . S
C345 C346 1.379 . S
C346 H330 0.931 . S
C346 C340 1.383 . S
C346 C345 1.379 . S
H347 C341 0.959 . S
H348 C341 0.961 . S
H349 C341 0.960 1_455 S
H350 C342 0.930 . S
H351 C343 0.929 . S
H352 C360 0.929 . S
H353 C362 0.930 . S
H354 C364 0.930 . S
H355 C367 0.929 . S
H356 C370 0.930 1_554 S
H357 C372 0.960 . S
H358 C372 0.960 . S
H359 C372 0.960 . S
C360 H352 0.929 . S
C360 C361 1.402 1_556 S
C360 C362 1.384 . S
C361 C360 1.402 1_554 S
C361 C367 1.364 1_545 S
C362 H353 0.930 . S
C362 C360 1.384 . S
C362 C363 1.372 . S
C363 C362 1.372 . S
C363 C364 1.400 1_545 S
C363 C368 1.490 . S
C364 H354 0.930 . S
C364 C363 1.400 1_565 S
C364 C367 1.386 1_556 S
H365 C381 0.930 . S
H366 C382 0.931 . S
C367 H355 0.929 . S
C367 C361 1.364 1_565 S
C367 C364 1.386 1_554 S
C368 C363 1.490 . S
C368 C370 1.395 . S
C368 C371 1.403 1_545 S
H369 C375 0.930 . S
C370 H356 0.930 1_556 S
C370 C368 1.395 . S
C370 C373 1.403 . S
C371 C368 1.403 1_565 S
C371 C372 1.524 . S
C371 C375 1.400 . S
C372 H357 0.960 . S
C372 H358 0.960 . S
C372 H359 0.960 . S
C372 C371 1.524 . S
C373 C370 1.403 . S
C373 C374 1.392 . S
C373 C377 1.495 . S
C374 C373 1.392 . S
C374 C375 1.385 1_545 S
C374 C376 1.478 . S
C375 H369 0.930 . S
C375 C371 1.400 . S
C375 C374 1.385 1_565 S
C376 C374 1.478 . S
C376 C378 1.381 . S
C376 C382 1.383 1_545 S
C377 C373 1.495 . S
C377 H383 0.959 1_556 S
C377 H384 0.961 . S
C377 H385 0.960 . S
C378 C376 1.381 . S
C378 C379 1.394 . S
C378 H386 0.930 . S
C379 C378 1.394 . S
C379 C380 1.383 . S
C379 H387 0.929 . S
C380 C379 1.383 . S
C380 C381 1.377 1_545 S
C381 H365 0.930 . S
C381 C380 1.377 1_565 S
C381 C382 1.379 . S
C382 H366 0.931 . S
C382 C376 1.383 1_565 S
C382 C381 1.379 . S
H383 C377 0.959 1_554 S
H384 C377 0.961 . S
H385 C377 0.960 . S
H386 C378 0.930 . S
H387 C379 0.929 . S
H388 C396 0.929 . S
H389 C398 0.930 . S
H390 C400 0.930 . S
H391 C403 0.929 . S
H392 C406 0.930 . S
H393 C408 0.960 . S
H394 C408 0.960 1_554 S
H395 C408 0.960 . S
C396 H388 0.929 . S
C396 C397 1.377 . S
C396 C398 1.384 . S
C397 C396 1.377 . S
C397 C403 1.390 1_554 S
C398 H389 0.930 . S
C398 C396 1.384 . S
C398 C399 1.372 1_554 S
C399 C398 1.372 1_556 S
C399 C400 1.400 . S
C399 C404 1.490 . S
C400 H390 0.930 . S
C400 C399 1.400 . S
C400 C403 1.386 . S
H401 C417 0.930 . S
H402 C418 0.931 . S
C403 H391 0.929 . S
C403 C397 1.390 1_556 S
C403 C400 1.386 . S
C404 C399 1.490 . S
C404 C406 1.395 . S
C404 C407 1.403 . S
H405 C411 0.930 . S
C406 H392 0.930 . S
C406 C404 1.395 . S
C406 C409 1.403 . S
C407 C404 1.403 . S
C407 C408 1.524 . S
C407 C411 1.400 . S
C408 H393 0.960 . S
C408 H394 0.960 1_556 S
C408 H395 0.960 . S
C408 C407 1.524 . S
C409 C406 1.403 . S
C409 C410 1.392 . S
C409 C413 1.495 . S
C410 C409 1.392 . S
C410 C411 1.385 . S
C410 C412 1.478 . S
C411 H405 0.930 . S
C411 C407 1.400 . S
C411 C410 1.385 . S
C412 C410 1.478 . S
C412 C414 1.381 . S
C412 C418 1.383 . S
C413 C409 1.495 . S
C413 H419 0.959 . S
C413 H420 0.961 . S
C413 H421 0.960 . S
C414 C412 1.381 . S
C414 C415 1.394 . S
C414 H422 0.930 . S
C415 C414 1.394 . S
C415 C416 1.383 . S
C415 H423 0.929 . S
C416 C415 1.383 . S
C416 C417 1.377 . S
C417 H401 0.930 . S
C417 C416 1.377 . S
C417 C418 1.379 . S
C418 H402 0.931 . S
C418 C412 1.383 . S
C418 C417 1.379 . S
H419 C413 0.959 . S
H420 C413 0.961 . S
H421 C413 0.960 . S
H422 C414 0.930 . S
H423 C415 0.929 . S
H424 C432 0.929 . S
H425 C434 0.930 . S
H426 C436 0.930 1_556 S
H427 C439 0.929 . S
H428 C442 0.930 . S
H429 C444 0.960 . S
H430 C444 0.960 1_554 S
H431 C444 0.960 . S
C432 H424 0.929 . S
C432 C433 1.377 . S
C432 C434 1.384 . S
C433 C432 1.377 . S
C433 C439 1.390 . S
C434 H425 0.930 . S
C434 C432 1.384 . S
C434 C435 1.372 . S
C435 C434 1.372 . S
C435 C436 1.400 . S
C435 C440 1.490 . S
C436 H426 0.930 1_554 S
C436 C435 1.400 . S
C436 C439 1.386 . S
H437 C453 0.930 . S
H438 C454 0.931 . S
C439 H427 0.929 . S
C439 C433 1.390 . S
C439 C436 1.386 . S
C440 C435 1.490 . S
C440 C442 1.395 . S
C440 C443 1.403 1_554 S
H441 C447 0.930 . S
C442 H428 0.930 . S
C442 C440 1.395 . S
C442 C445 1.403 1_554 S
C443 C440 1.403 1_556 S
C443 C444 1.524 . S
C443 C447 1.400 . S
C444 H429 0.960 . S
C444 H430 0.960 1_556 S
C444 H431 0.960 . S
C444 C443 1.524 . S
C445 C442 1.403 1_556 S
C445 C446 1.392 . S
C445 C449 1.495 1_556 S
C446 C445 1.392 . S
C446 C447 1.385 . S
C446 C448 1.478 . S
C447 H441 0.930 . S
C447 C443 1.400 . S
C447 C446 1.385 . S
C448 C446 1.478 . S
C448 C450 1.381 . S
C448 C454 1.383 . S
C449 C445 1.495 1_554 S
C449 H455 0.959 . S
C449 H456 0.961 1_554 S
C449 H457 0.960 . S
C450 C448 1.381 . S
C450 C451 1.394 . S
C450 H458 0.930 . S
C451 C450 1.394 . S
C451 C452 1.383 . S
C451 H459 0.929 . S
C452 C451 1.383 . S
C452 C453 1.377 . S
C453 H437 0.930 . S
C453 C452 1.377 . S
C453 C454 1.379 . S
C454 H438 0.931 . S
C454 C448 1.383 . S
C454 C453 1.379 . S
H455 C449 0.959 . S
H456 C449 0.961 1_556 S
H457 C449 0.960 . S
H458 C450 0.930 . S
H459 C451 0.929 . S
H460 C468 0.929 . S
H461 C470 0.930 . S
H462 C472 0.930 1_556 S
H463 C475 0.929 . S
H464 C478 0.930 . S
H465 C480 0.960 1_455 S
H466 C480 0.960 . S
H467 C480 0.960 1_455 S
C468 H460 0.929 . S
C468 C469 1.377 . S
C468 C470 1.384 . S
C469 C468 1.377 . S
C469 C475 1.390 . S
C470 H461 0.930 . S
C470 C468 1.384 . S
C470 C471 1.372 . S
C471 C470 1.372 . S
C471 C472 1.400 . S
C471 C476 1.490 1_554 S
C472 H462 0.930 1_554 S
C472 C471 1.400 . S
C472 C475 1.386 . S
H473 C489 0.930 . S
H474 C490 0.931 1_455 S
C475 H463 0.929 . S
C475 C469 1.390 . S
C475 C472 1.386 . S
C476 C471 1.490 1_556 S
C476 C478 1.395 . S
C476 C479 1.403 . S
H477 C483 0.930 . S
C478 H464 0.930 . S
C478 C476 1.395 . S
C478 C481 1.403 . S
C479 C476 1.403 . S
C479 C480 1.524 1_556 S
C479 C483 1.400 . S
C480 H465 0.960 1_655 S
C480 H466 0.960 . S
C480 H467 0.960 1_655 S
C480 C479 1.524 1_554 S
C481 C478 1.403 . S
C481 C482 1.392 . S
C481 C485 1.495 . S
C482 C481 1.392 . S
C482 C483 1.385 . S
C482 C484 1.478 . S
C483 H477 0.930 . S
C483 C479 1.400 . S
C483 C482 1.385 . S
C484 C482 1.478 . S
C484 C486 1.381 . S
C484 C490 1.383 . S
C485 C481 1.495 . S
C485 H491 0.959 . S
C485 H492 0.961 . S
C485 H493 0.960 . S
C486 C484 1.381 . S
C486 C487 1.394 . S
C486 H494 0.930 . S
C487 C486 1.394 . S
C487 C488 1.383 . S
C487 H495 0.929 . S
C488 C487 1.383 . S
C488 C489 1.377 1_655 S
C489 H473 0.930 . S
C489 C488 1.377 1_455 S
C489 C490 1.379 1_455 S
C490 H474 0.931 1_655 S
C490 C484 1.383 . S
C490 C489 1.379 1_655 S
H491 C485 0.959 . S
H492 C485 0.961 . S
H493 C485 0.960 . S
H494 C486 0.930 . S
H495 C487 0.929 . S
H496 C504 0.929 . S
H497 C506 0.930 . S
H498 C508 0.930 . S
H499 C511 0.929 . S
H500 C514 0.930 . S
H501 C516 0.960 . S
H502 C516 0.960 . S
H503 C516 0.960 . S
C504 H496 0.929 . S
C504 C505 1.377 . S
C504 C506 1.384 . S
C505 C504 1.377 . S
C505 C511 1.390 . S
C506 H497 0.930 . S
C506 C504 1.384 . S
C506 C507 1.372 . S
C507 C506 1.372 . S
C507 C508 1.400 . S
C507 C512 1.490 . S
C508 H498 0.930 . S
C508 C507 1.400 . S
C508 C511 1.386 . S
H509 C525 0.930 . S
H510 C526 0.931 . S
C511 H499 0.929 . S
C511 C505 1.390 . S
C511 C508 1.386 . S
C512 C507 1.490 . S
C512 C514 1.395 . S
C512 C515 1.403 . S
H513 C519 0.930 . S
C514 H500 0.930 . S
C514 C512 1.395 . S
C514 C517 1.403 . S
C515 C512 1.403 . S
C515 C516 1.524 . S
C515 C519 1.400 . S
C516 H501 0.960 . S
C516 H502 0.960 . S
C516 H503 0.960 . S
C516 C515 1.524 . S
C517 C514 1.403 . S
C517 C518 1.392 . S
C517 C521 1.495 . S
C518 C517 1.392 . S
C518 C519 1.385 . S
C518 C520 1.478 . S
C519 H513 0.930 . S
C519 C515 1.400 . S
C519 C518 1.385 . S
C520 C518 1.478 . S
C520 C522 1.381 1_455 S
C520 C526 1.383 . S
C521 C517 1.495 . S
C521 H527 0.959 . S
C521 H528 0.961 . S
C521 H529 0.960 . S
C522 C520 1.381 1_655 S
C522 C523 1.394 . S
C522 H530 0.930 . S
C523 C522 1.394 . S
C523 C524 1.383 1_655 S
C523 H531 0.929 . S
C524 C523 1.383 1_455 S
C524 C525 1.377 . S
C525 H509 0.930 . S
C525 C524 1.377 . S
C525 C526 1.379 . S
C526 H510 0.931 . S
C526 C520 1.383 . S
C526 C525 1.379 . S
H527 C521 0.959 . S
H528 C521 0.961 . S
H529 C521 0.960 . S
H530 C522 0.930 . S
H531 C523 0.929 . S
H532 C540 0.929 . S
H533 C542 0.930 . S
H534 C544 0.930 . S
H535 C547 0.929 . S
H536 C550 0.930 . S
H537 C552 0.960 . S
H538 C552 0.960 . S
H539 C552 0.960 . S
C540 H532 0.929 . S
C540 C541 1.396 . S
C540 C542 1.384 . S
C541 C540 1.396 . S
C541 C547 1.371 1_545 S
C542 H533 0.930 . S
C542 C540 1.384 . S
C542 C543 1.368 1_545 S
C543 C542 1.368 1_565 S
C543 C544 1.403 . S
C543 C548 1.490 . S
C544 H534 0.930 . S
C544 C543 1.403 . S
C544 C547 1.386 . S
H545 C561 0.930 . S
H546 C562 0.931 . S
C547 H535 0.929 . S
C547 C541 1.371 1_565 S
C547 C544 1.386 . S
C548 C543 1.490 . S
C548 C550 1.377 1_565 S
C548 C551 1.420 . S
H549 C555 0.930 . S
C550 H536 0.930 . S
C550 C548 1.377 1_545 S
C550 C553 1.403 . S
C551 C548 1.420 . S
C551 C552 1.524 . S
C551 C555 1.400 . S
C552 H537 0.960 . S
C552 H538 0.960 . S
C552 H539 0.960 . S
C552 C551 1.524 . S
C553 C550 1.403 . S
C553 C554 1.369 1_545 S
C553 C557 1.495 . S
C554 C553 1.369 1_565 S
C554 C555 1.409 . S
C554 C556 1.479 . S
C555 H549 0.930 . S
C555 C551 1.400 . S
C555 C554 1.409 . S
C556 C554 1.479 . S
C556 C558 1.381 1_565 S
C556 C562 1.383 . S
C557 C553 1.495 . S
C557 H563 0.959 . S
C557 H564 0.961 . S
C557 H565 0.960 . S
C558 C556 1.381 1_545 S
C558 C559 1.394 . S
C558 H566 0.930 . S
C559 C558 1.394 . S
C559 C560 1.383 1_545 S
C559 H567 0.929 . S
C560 C559 1.383 1_565 S
C560 C561 1.377 . S
C561 H545 0.930 . S
C561 C560 1.377 . S
C561 C562 1.379 . S
C562 H546 0.931 . S
C562 C556 1.383 . S
C562 C561 1.379 . S
H563 C557 0.959 . S
H564 C557 0.961 . S
H565 C557 0.960 . S
H566 C558 0.930 . S
H567 C559 0.929 . S
H568 C576 0.929 . S
H569 C578 0.930 . S
H570 C580 0.930 . S
H571 C583 0.929 . S
H572 C586 0.930 . S
H573 C588 0.960 . S
H574 C588 0.960 . S
H575 C588 0.960 . S
C576 H568 0.929 . S
C576 C577 1.377 . S
C576 C578 1.384 . S
C577 C576 1.377 . S
C577 C583 1.390 . S
C578 H569 0.930 . S
C578 C576 1.384 . S
C578 C579 1.372 . S
C579 C578 1.372 . S
C579 C580 1.400 . S
C579 C584 1.490 . S
C580 H570 0.930 . S
C580 C579 1.400 . S
C580 C583 1.386 . S
H581 C597 0.930 . S
H582 C598 0.931 . S
C583 H571 0.929 . S
C583 C577 1.390 . S
C583 C580 1.386 . S
C584 C579 1.490 . S
C584 C586 1.395 . S
C584 C587 1.403 . S
H585 C591 0.930 . S
C586 H572 0.930 . S
C586 C584 1.395 . S
C586 C589 1.403 . S
C587 C584 1.403 . S
C587 C588 1.524 . S
C587 C591 1.400 . S
C588 H573 0.960 . S
C588 H574 0.960 . S
C588 H575 0.960 . S
C588 C587 1.524 . S
C589 C586 1.403 . S
C589 C590 1.392 . S
C589 C593 1.495 . S
C590 C589 1.392 . S
C590 C591 1.385 . S
C590 C592 1.478 . S
C591 H585 0.930 . S
C591 C587 1.400 . S
C591 C590 1.385 . S
C592 C590 1.478 . S
C592 C594 1.381 . S
C592 C598 1.383 . S
C593 C589 1.495 . S
C593 H599 0.959 . S
C593 H600 0.961 . S
C593 H601 0.960 . S
C594 C592 1.381 . S
C594 C595 1.394 . S
C594 H602 0.930 . S
C595 C594 1.394 . S
C595 C596 1.383 . S
C595 H603 0.929 . S
C596 C595 1.383 . S
C596 C597 1.377 . S
C597 H581 0.930 . S
C597 C596 1.377 . S
C597 C598 1.379 . S
C598 H582 0.931 . S
C598 C592 1.383 . S
C598 C597 1.379 . S
H599 C593 0.959 . S
H600 C593 0.961 . S
H601 C593 0.960 . S
H602 C594 0.930 . S
H603 C595 0.929 . S
H604 C612 0.929 . S
H605 C614 0.930 . S
H606 C616 0.930 . S
H607 C619 0.929 . S
H608 C622 0.930 . S
H609 C624 0.960 . S
H610 C624 0.960 . S
H611 C624 0.960 . S
C612 H604 0.929 . S
C612 C613 1.377 . S
C612 C614 1.384 . S
C613 C612 1.377 . S
C613 C619 1.390 . S
C614 H605 0.930 . S
C614 C612 1.384 . S
C614 C615 1.372 . S
C615 C614 1.372 . S
C615 C616 1.400 . S
C615 C620 1.490 . S
C616 H606 0.930 . S
C616 C615 1.400 . S
C616 C619 1.386 . S
H617 C633 0.930 . S
H618 C634 0.931 . S
C619 H607 0.929 . S
C619 C613 1.390 . S
C619 C616 1.386 . S
C620 C615 1.490 . S
C620 C622 1.395 . S
C620 C623 1.403 . S
H621 C627 0.930 . S
C622 H608 0.930 . S
C622 C620 1.395 . S
C622 C625 1.403 . S
C623 C620 1.403 . S
C623 C624 1.524 . S
C623 C627 1.400 . S
C624 H609 0.960 . S
C624 H610 0.960 . S
C624 H611 0.960 . S
C624 C623 1.524 . S
C625 C622 1.403 . S
C625 C626 1.392 . S
C625 C629 1.495 . S
C626 C625 1.392 . S
C626 C627 1.385 . S
C626 C628 1.478 . S
C627 H621 0.930 . S
C627 C623 1.400 . S
C627 C626 1.385 . S
C628 C626 1.478 . S
C628 C630 1.381 . S
C628 C634 1.383 . S
C629 C625 1.495 . S
C629 H635 0.959 . S
C629 H636 0.961 . S
C629 H637 0.960 . S
C630 C628 1.381 . S
C630 C631 1.394 . S
C630 H638 0.930 . S
C631 C630 1.394 . S
C631 C632 1.383 . S
C631 H639 0.929 . S
C632 C631 1.383 . S
C632 C633 1.377 . S
C633 H617 0.930 . S
C633 C632 1.377 . S
C633 C634 1.379 . S
C634 H618 0.931 . S
C634 C628 1.383 . S
C634 C633 1.379 . S
H635 C629 0.959 . S
H636 C629 0.961 . S
H637 C629 0.960 . S
H638 C630 0.930 . S
H639 C631 0.929 . S
H640 C648 0.929 . S
H641 C650 0.930 . S
H642 C652 0.930 . S
H643 C655 0.929 . S
H644 C658 0.930 . S
H645 C660 0.960 . S
H646 C660 0.960 . S
H647 C660 0.960 1_556 S
C648 H640 0.929 . S
C648 C649 1.377 . S
C648 C650 1.384 . S
C649 C648 1.377 . S
C649 C655 1.390 . S
C650 H641 0.930 . S
C650 C648 1.384 . S
C650 C651 1.372 . S
C651 C650 1.372 . S
C651 C652 1.400 1_554 S
C651 C656 1.490 1_554 S
C652 H642 0.930 . S
C652 C651 1.400 1_556 S
C652 C655 1.386 1_556 S
H653 C669 0.930 . S
H654 C670 0.931 . S
C655 H643 0.929 . S
C655 C649 1.390 . S
C655 C652 1.386 1_554 S
C656 C651 1.490 1_556 S
C656 C658 1.395 . S
C656 C659 1.403 . S
H657 C663 0.930 . S
C658 H644 0.930 . S
C658 C656 1.395 . S
C658 C661 1.403 . S
C659 C656 1.403 . S
C659 C660 1.524 1_556 S
C659 C663 1.400 . S
C660 H645 0.960 . S
C660 H646 0.960 . S
C660 H647 0.960 1_554 S
C660 C659 1.524 1_554 S
C661 C658 1.403 . S
C661 C662 1.392 . S
C661 C665 1.495 1_655 S
C662 C661 1.392 . S
C662 C663 1.385 . S
C662 C664 1.478 . S
C663 H657 0.930 . S
C663 C659 1.400 . S
C663 C662 1.385 . S
C664 C662 1.478 . S
C664 C666 1.381 1_655 S
C664 C670 1.383 . S
C665 C661 1.495 1_455 S
C665 H671 0.959 . S
C665 H672 0.961 . S
C665 H673 0.960 . S
C666 C664 1.381 1_455 S
C666 C667 1.394 . S
C666 H674 0.930 . S
C667 C666 1.394 . S
C667 C668 1.383 . S
C667 H675 0.929 . S
C668 C667 1.383 . S
C668 C669 1.377 1_455 S
C669 H653 0.930 . S
C669 C668 1.377 1_655 S
C669 C670 1.379 . S
C670 H654 0.931 . S
C670 C664 1.383 . S
C670 C669 1.379 . S
H671 C665 0.959 . S
H672 C665 0.961 . S
H673 C665 0.960 . S
H674 C666 0.930 . S
H675 C667 0.929 . S
H676 C684 0.929 . S
H677 C686 0.930 . S
H678 C688 0.930 . S
H679 C691 0.929 . S
H680 C694 0.930 . S
H681 C696 0.960 . S
H682 C696 0.960 . S
H683 C696 0.960 . S
C684 H676 0.929 . S
C684 C685 1.375 . S
C684 C686 1.384 1_554 S
C685 C684 1.375 . S
C685 C691 1.397 1_545 S
C686 H677 0.930 . S
C686 C684 1.384 1_556 S
C686 C687 1.372 . S
C687 C686 1.372 . S
C687 C688 1.400 1_545 S
C687 C692 1.490 . S
C688 H678 0.930 . S
C688 C687 1.400 1_565 S
C688 C691 1.382 1_556 S
H689 C705 0.930 . S
H690 C706 0.931 . S
C691 H679 0.929 . S
C691 C685 1.397 1_565 S
C691 C688 1.382 1_554 S
C692 C687 1.490 . S
C692 C694 1.395 . S
C692 C695 1.403 1_545 S
H693 C699 0.930 . S
C694 H680 0.930 . S
C694 C692 1.395 . S
C694 C697 1.403 . S
C695 C692 1.403 1_565 S
C695 C696 1.524 1_556 S
C695 C699 1.400 . S
C696 H681 0.960 . S
C696 H682 0.960 . S
C696 H683 0.960 . S
C696 C695 1.524 1_554 S
C697 C694 1.403 . S
C697 C698 1.392 . S
C697 C701 1.495 . S
C698 C697 1.392 . S
C698 C699 1.385 1_545 S
C698 C700 1.478 . S
C699 H693 0.930 . S
C699 C695 1.400 . S
C699 C698 1.385 1_565 S
C700 C698 1.478 . S
C700 C702 1.381 . S
C700 C706 1.383 1_545 S
C701 C697 1.495 . S
C701 H707 0.959 . S
C701 H708 0.961 . S
C701 H709 0.960 . S
C702 C700 1.381 . S
C702 C703 1.394 . S
C702 H710 0.930 . S
C703 C702 1.394 . S
C703 C704 1.383 . S
C703 H711 0.929 . S
C704 C703 1.383 . S
C704 C705 1.377 1_545 S
C705 H689 0.930 . S
C705 C704 1.377 1_565 S
C705 C706 1.379 . S
C706 H690 0.931 . S
C706 C700 1.383 1_565 S
C706 C705 1.379 . S
H707 C701 0.959 . S
H708 C701 0.961 . S
H709 C701 0.960 . S
H710 C702 0.930 . S
H711 C703 0.929 . S
H712 C720 0.929 . S
H713 C722 0.930 . S
H714 C724 0.930 . S
H715 C727 0.929 . S
H716 C730 0.930 . S
H717 C732 0.960 . S
H718 C732 0.960 . S
H719 C732 0.960 . S
C720 H712 0.929 . S
C720 C721 1.377 . S
C720 C722 1.384 1_554 S
C721 C720 1.377 . S
C721 C727 1.390 . S
C722 H713 0.930 . S
C722 C720 1.384 1_556 S
C722 C723 1.372 1_556 S
C723 C722 1.372 1_554 S
C723 C724 1.400 . S
C723 C728 1.490 1_554 S
C724 H714 0.930 . S
C724 C723 1.400 . S
C724 C727 1.386 . S
H725 C741 0.930 . S
H726 C742 0.931 . S
C727 H715 0.929 . S
C727 C721 1.390 . S
C727 C724 1.386 . S
C728 C723 1.490 1_556 S
C728 C730 1.395 . S
C728 C731 1.403 1_556 S
H729 C735 0.930 1_554 S
C730 H716 0.930 . S
C730 C728 1.395 . S
C730 C733 1.403 . S
C731 C728 1.403 1_554 S
C731 C732 1.524 . S
C731 C735 1.400 1_554 S
C732 H717 0.960 . S
C732 H718 0.960 . S
C732 H719 0.960 . S
C732 C731 1.524 . S
C733 C730 1.403 . S
C733 C734 1.392 . S
C733 C737 1.495 . S
C734 C733 1.392 . S
C734 C735 1.385 . S
C734 C736 1.478 . S
C735 H729 0.930 1_556 S
C735 C731 1.400 1_556 S
C735 C734 1.385 . S
C736 C734 1.478 . S
C736 C738 1.381 . S
C736 C742 1.383 . S
C737 C733 1.495 . S
C737 H743 0.959 . S
C737 H744 0.961 . S
C737 H745 0.960 . S
C738 C736 1.381 . S
C738 C739 1.394 . S
C738 H746 0.930 . S
C739 C738 1.394 . S
C739 C740 1.383 . S
C739 H747 0.929 . S
C740 C739 1.383 . S
C740 C741 1.377 . S
C741 H725 0.930 . S
C741 C740 1.377 . S
C741 C742 1.379 . S
C742 H726 0.931 . S
C742 C736 1.383 . S
C742 C741 1.379 . S
H743 C737 0.959 . S
H744 C737 0.961 . S
H745 C737 0.960 . S
H746 C738 0.930 . S
H747 C739 0.929 . S
H748 C756 0.929 . S
H749 C758 0.930 1_556 S
H750 C760 0.930 . S
H751 C763 0.929 . S
H752 C766 0.930 . S
H753 C768 0.960 . S
H754 C768 0.960 . S
H755 C768 0.960 1_554 S
C756 H748 0.929 . S
C756 C757 1.377 . S
C756 C758 1.384 . S
C757 C756 1.377 . S
C757 C763 1.390 . S
C758 H749 0.930 1_554 S
C758 C756 1.384 . S
C758 C759 1.372 . S
C759 C758 1.372 . S
C759 C760 1.400 . S
C759 C764 1.490 . S
C760 H750 0.930 . S
C760 C759 1.400 . S
C760 C763 1.386 . S
H761 C777 0.930 . S
H762 C778 0.931 . S
C763 H751 0.929 . S
C763 C757 1.390 . S
C763 C760 1.386 . S
C764 C759 1.490 . S
C764 C766 1.395 . S
C764 C767 1.403 1_554 S
H765 C771 0.930 . S
C766 H752 0.930 . S
C766 C764 1.395 . S
C766 C769 1.403 1_554 S
C767 C764 1.403 1_556 S
C767 C768 1.524 . S
C767 C771 1.400 . S
C768 H753 0.960 . S
C768 H754 0.960 . S
C768 H755 0.960 1_556 S
C768 C767 1.524 . S
C769 C766 1.403 1_556 S
C769 C770 1.392 . S
C769 C773 1.495 . S
C770 C769 1.392 . S
C770 C771 1.385 . S
C770 C772 1.478 . S
C771 H765 0.930 . S
C771 C767 1.400 . S
C771 C770 1.385 . S
C772 C770 1.478 . S
C772 C774 1.381 . S
C772 C778 1.383 . S
C773 C769 1.495 . S
C773 H779 0.959 . S
C773 H780 0.961 . S
C773 H781 0.960 . S
C774 C772 1.381 . S
C774 C775 1.394 . S
C774 H782 0.930 . S
C775 C774 1.394 . S
C775 C776 1.383 . S
C775 H783 0.929 . S
C776 C775 1.383 . S
C776 C777 1.377 . S
C777 H761 0.930 . S
C777 C776 1.377 . S
C777 C778 1.379 . S
C778 H762 0.931 . S
C778 C772 1.383 . S
C778 C777 1.379 . S
H779 C773 0.959 . S
H780 C773 0.961 . S
H781 C773 0.960 . S
H782 C774 0.930 . S
H783 C775 0.929 . S
H784 C792 0.929 . S
H785 C794 0.930 . S
H786 C796 0.930 . S
H787 C799 0.929 . S
H788 C802 0.930 . S
H789 C804 0.960 1_655 S
H790 C804 0.960 . S
H791 C804 0.960 . S
C792 H784 0.929 . S
C792 C793 1.377 . S
C792 C794 1.384 . S
C793 C792 1.377 . S
C793 C799 1.390 . S
C794 H785 0.930 . S
C794 C792 1.384 . S
C794 C795 1.372 . S
C795 C794 1.372 . S
C795 C796 1.400 . S
C795 C800 1.490 . S
C796 H786 0.930 . S
C796 C795 1.400 . S
C796 C799 1.386 . S
H797 C813 0.930 . S
H798 C814 0.931 . S
C799 H787 0.929 . S
C799 C793 1.390 . S
C799 C796 1.386 . S
C800 C795 1.490 . S
C800 C802 1.395 . S
C800 C803 1.403 . S
H801 C807 0.930 . S
C802 H788 0.930 . S
C802 C800 1.395 . S
C802 C805 1.403 . S
C803 C800 1.403 . S
C803 C804 1.524 . S
C803 C807 1.400 . S
C804 H789 0.960 1_455 S
C804 H790 0.960 . S
C804 H791 0.960 . S
C804 C803 1.524 . S
C805 C802 1.403 . S
C805 C806 1.392 . S
C805 C809 1.495 . S
C806 C805 1.392 . S
C806 C807 1.385 . S
C806 C808 1.478 . S
C807 H801 0.930 . S
C807 C803 1.400 . S
C807 C806 1.385 . S
C808 C806 1.478 . S
C808 C810 1.381 . S
C808 C814 1.383 . S
C809 C805 1.495 . S
C809 H815 0.959 . S
C809 H816 0.961 . S
C809 H817 0.960 . S
C810 C808 1.381 . S
C810 C811 1.394 1_554 S
C810 H818 0.930 1_554 S
C811 C810 1.394 1_556 S
C811 C812 1.383 . S
C811 H819 0.929 . S
C812 C811 1.383 . S
C812 C813 1.377 1_556 S
C813 H797 0.930 . S
C813 C812 1.377 1_554 S
C813 C814 1.379 . S
C814 H798 0.931 . S
C814 C808 1.383 . S
C814 C813 1.379 . S
H815 C809 0.959 . S
H816 C809 0.961 . S
H817 C809 0.960 . S
H818 C810 0.930 1_556 S
H819 C811 0.929 . S
H820 C828 0.929 . S
H821 C830 0.930 . S
H822 C832 0.930 . S
H823 C835 0.929 . S
H824 C838 0.930 . S
H825 C840 0.960 . S
H826 C840 0.960 . S
H827 C840 0.960 . S
C828 H820 0.929 . S
C828 C829 1.399 . S
C828 C830 1.384 . S
C829 C828 1.399 . S
C829 C835 1.368 1_545 S
C830 H821 0.930 . S
C830 C828 1.384 . S
C830 C831 1.372 . S
C831 C830 1.372 . S
C831 C832 1.400 1_545 S
C831 C836 1.490 . S
C832 H822 0.930 . S
C832 C831 1.400 1_565 S
C832 C835 1.386 . S
H833 C849 0.930 1_556 S
H834 C850 0.931 . S
C835 H823 0.929 . S
C835 C829 1.368 1_565 S
C835 C832 1.386 . S
C836 C831 1.490 . S
C836 C838 1.395 1_545 S
C836 C839 1.403 . S
H837 C843 0.930 . S
C838 H824 0.930 . S
C838 C836 1.395 1_565 S
C838 C841 1.403 . S
C839 C836 1.403 . S
C839 C840 1.524 . S
C839 C843 1.400 . S
C840 H825 0.960 . S
C840 H826 0.960 . S
C840 H827 0.960 . S
C840 C839 1.524 . S
C841 C838 1.403 . S
C841 C842 1.392 1_565 S
C841 C845 1.495 . S
C842 C841 1.392 1_545 S
C842 C843 1.385 . S
C842 C844 1.478 . S
C843 H837 0.930 . S
C843 C839 1.400 . S
C843 C842 1.385 . S
C844 C842 1.478 . S
C844 C846 1.381 . S
C844 C850 1.383 1_545 S
C845 C841 1.495 . S
C845 H851 0.959 . S
C845 H852 0.961 . S
C845 H853 0.960 . S
C846 C844 1.381 . S
C846 C847 1.394 . S
C846 H854 0.930 . S
C847 C846 1.394 . S
C847 C848 1.383 . S
C847 H855 0.929 . S
C848 C847 1.383 . S
C848 C849 1.377 1_545 S
C849 H833 0.930 1_554 S
C849 C848 1.377 1_565 S
C849 C850 1.379 . S
C850 H834 0.931 . S
C850 C844 1.383 1_565 S
C850 C849 1.379 . S
H851 C845 0.959 . S
H852 C845 0.961 . S
H853 C845 0.960 . S
H854 C846 0.930 . S
H855 C847 0.929 . S
H856 C864 0.929 . S
H857 C866 0.930 . S
H858 C868 0.930 . S
H859 C871 0.929 . S
H860 C874 0.930 . S
H861 C876 0.960 . S
H862 C876 0.960 . S
H863 C876 0.960 . S
C864 H856 0.929 . S
C864 C865 1.377 . S
C864 C866 1.384 . S
C865 C864 1.377 . S
C865 C871 1.390 . S
C866 H857 0.930 . S
C866 C864 1.384 . S
C866 C867 1.372 . S
C867 C866 1.372 . S
C867 C868 1.400 . S
C867 C872 1.490 . S
C868 H858 0.930 . S
C868 C867 1.400 . S
C868 C871 1.386 . S
H869 C885 0.930 . S
H870 C886 0.931 . S
C871 H859 0.929 . S
C871 C865 1.390 . S
C871 C868 1.386 . S
C872 C867 1.490 . S
C872 C874 1.395 . S
C872 C875 1.403 . S
H873 C879 0.930 . S
C874 H860 0.930 . S
C874 C872 1.395 . S
C874 C877 1.403 . S
C875 C872 1.403 . S
C875 C876 1.524 . S
C875 C879 1.400 . S
C876 H861 0.960 . S
C876 H862 0.960 . S
C876 H863 0.960 . S
C876 C875 1.524 . S
C877 C874 1.403 . S
C877 C878 1.392 . S
C877 C881 1.495 . S
C878 C877 1.392 . S
C878 C879 1.385 . S
C878 C880 1.478 . S
C879 H873 0.930 . S
C879 C875 1.400 . S
C879 C878 1.385 . S
C880 C878 1.478 . S
C880 C882 1.381 1_554 S
C880 C886 1.383 . S
C881 C877 1.495 . S
C881 H887 0.959 . S
C881 H888 0.961 . S
C881 H889 0.960 . S
C882 C880 1.381 1_556 S
C882 C883 1.394 . S
C882 H890 0.930 . S
C883 C882 1.394 . S
C883 C884 1.383 . S
C883 H891 0.929 . S
C884 C883 1.383 . S
C884 C885 1.377 . S
C885 H869 0.930 . S
C885 C884 1.377 . S
C885 C886 1.379 1_556 S
C886 H870 0.931 . S
C886 C880 1.383 . S
C886 C885 1.379 1_554 S
H887 C881 0.959 . S
H888 C881 0.961 . S
H889 C881 0.960 . S
H890 C882 0.930 . S
H891 C883 0.929 . S
H892 C900 0.929 . S
H893 C902 0.930 . S
H894 C904 0.930 . S
H895 C907 0.929 . S
H896 C910 0.930 . S
H897 C912 0.960 . S
H898 C912 0.960 . S
H899 C912 0.960 . S
C900 H892 0.929 . S
C900 C901 1.377 . S
C900 C902 1.384 . S
C901 C900 1.377 . S
C901 C907 1.390 . S
C902 H893 0.930 . S
C902 C900 1.384 . S
C902 C903 1.372 . S
C903 C902 1.372 . S
C903 C904 1.400 . S
C903 C908 1.490 . S
C904 H894 0.930 . S
C904 C903 1.400 . S
C904 C907 1.386 . S
H905 C921 0.930 . S
H906 C922 0.931 . S
C907 H895 0.929 . S
C907 C901 1.390 . S
C907 C904 1.386 . S
C908 C903 1.490 . S
C908 C910 1.395 . S
C908 C911 1.403 . S
H909 C915 0.930 . S
C910 H896 0.930 . S
C910 C908 1.395 . S
C910 C913 1.403 . S
C911 C908 1.403 . S
C911 C912 1.524 . S
C911 C915 1.400 . S
C912 H897 0.960 . S
C912 H898 0.960 . S
C912 H899 0.960 . S
C912 C911 1.524 . S
C913 C910 1.403 . S
C913 C914 1.392 . S
C913 C917 1.495 1_554 S
C914 C913 1.392 . S
C914 C915 1.385 . S
C914 C916 1.478 1_554 S
C915 H909 0.930 . S
C915 C911 1.400 . S
C915 C914 1.385 . S
C916 C914 1.478 1_556 S
C916 C918 1.381 . S
C916 C922 1.383 1_556 S
C917 C913 1.495 1_556 S
C917 H923 0.959 . S
C917 H924 0.961 . S
C917 H925 0.960 . S
C918 C916 1.381 . S
C918 C919 1.394 . S
C918 H926 0.930 . S
C919 C918 1.394 . S
C919 C920 1.383 . S
C919 H927 0.929 . S
C920 C919 1.383 . S
C920 C921 1.377 . S
C921 H905 0.930 . S
C921 C920 1.377 . S
C921 C922 1.379 1_556 S
C922 H906 0.931 . S
C922 C916 1.383 1_554 S
C922 C921 1.379 1_554 S
H923 C917 0.959 . S
H924 C917 0.961 . S
H925 C917 0.960 . S
H926 C918 0.930 . S
H927 C919 0.929 . S
H928 C936 0.929 . S
H929 C938 0.930 . S
H930 C940 0.930 . S
H931 C943 0.929 . S
H932 C946 0.930 . S
H933 C948 0.960 1_455 S
H934 C948 0.960 1_455 S
H935 C948 0.960 . S
C936 H928 0.929 . S
C936 C937 1.377 . S
C936 C938 1.384 . S
C937 C936 1.377 . S
C937 C943 1.390 . S
C938 H929 0.930 . S
C938 C936 1.384 . S
C938 C939 1.372 . S
C939 C938 1.372 . S
C939 C940 1.400 . S
C939 C944 1.490 . S
C940 H930 0.930 . S
C940 C939 1.400 . S
C940 C943 1.386 . S
H941 C957 0.930 . S
H942 C958 0.931 . S
C943 H931 0.929 . S
C943 C937 1.390 . S
C943 C940 1.386 . S
C944 C939 1.490 . S
C944 C946 1.395 . S
C944 C947 1.403 . S
H945 C951 0.930 . S
C946 H932 0.930 . S
C946 C944 1.395 . S
C946 C949 1.403 . S
C947 C944 1.403 . S
C947 C948 1.524 . S
C947 C951 1.400 . S
C948 H933 0.960 1_655 S
C948 H934 0.960 1_655 S
C948 H935 0.960 . S
C948 C947 1.524 . S
C949 C946 1.403 . S
C949 C950 1.392 . S
C949 C953 1.495 . S
C950 C949 1.392 . S
C950 C951 1.385 . S
C950 C952 1.478 . S
C951 H945 0.930 . S
C951 C947 1.400 . S
C951 C950 1.385 . S
C952 C950 1.478 . S
C952 C954 1.381 . S
C952 C958 1.383 . S
C953 C949 1.495 . S
C953 H959 0.959 . S
C953 H960 0.961 . S
C953 H961 0.960 . S
C954 C952 1.381 . S
C954 C955 1.394 . S
C954 H962 0.930 . S
C955 C954 1.394 . S
C955 C956 1.383 . S
C955 H963 0.929 . S
C956 C955 1.383 . S
C956 C957 1.377 . S
C957 H941 0.930 . S
C957 C956 1.377 . S
C957 C958 1.379 . S
C958 H942 0.931 . S
C958 C952 1.383 . S
C958 C957 1.379 . S
H959 C953 0.959 . S
H960 C953 0.961 . S
H961 C953 0.960 . S
H962 C954 0.930 . S
H963 C955 0.929 . S
H964 C972 0.929 . S
H965 C974 0.930 . S
H966 C976 0.930 . S
H967 C979 0.929 . S
H968 C982 0.930 . S
H969 C984 0.960 . S
H970 C984 0.960 1_565 S
H971 C984 0.960 . S
C972 H964 0.929 . S
C972 C973 1.409 . S
C972 C974 1.384 . S
C973 C972 1.409 . S
C973 C979 1.358 1_565 S
C974 H965 0.930 . S
C974 C972 1.384 . S
C974 C975 1.372 . S
C975 C974 1.372 . S
C975 C976 1.400 1_565 S
C975 C980 1.490 . S
C976 H966 0.930 . S
C976 C975 1.400 1_545 S
C976 C979 1.386 . S
H977 C993 0.930 . S
H978 C994 0.931 . S
C979 H967 0.929 . S
C979 C973 1.358 1_545 S
C979 C976 1.386 . S
C980 C975 1.490 . S
C980 C982 1.395 . S
C980 C983 1.403 . S
H981 C987 0.936 . S
C982 H968 0.930 . S
C982 C980 1.395 . S
C982 C985 1.403 . S
C983 C980 1.403 . S
C983 C984 1.524 1_565 S
C983 C987 1.400 . S
C984 H969 0.960 . S
C984 H970 0.960 1_545 S
C984 H971 0.960 . S
C984 C983 1.524 1_545 S
C985 C982 1.403 . S
C985 C986 1.392 . S
C985 C989 1.495 . S
C986 C985 1.392 . S
C986 C987 1.385 . S
C986 C988 1.478 . S
C987 H981 0.936 . S
C987 C983 1.400 . S
C987 C986 1.385 . S
C988 C986 1.478 . S
C988 C990 1.381 . S
C988 C994 1.383 1_565 S
C989 C985 1.495 . S
C989 H995 0.959 . S
C989 H996 0.961 . S
C989 H997 0.960 . S
C990 C988 1.381 . S
C990 C991 1.394 . S
C990 H998 0.930 . S
C991 C990 1.394 . S
C991 C992 1.383 . S
C991 H999 0.929 . S
C992 C991 1.383 . S
C992 C993 1.377 1_565 S
C993 H977 0.930 . S
C993 C992 1.377 1_545 S
C993 C994 1.379 . S
C994 H978 0.931 . S
C994 C988 1.383 1_545 S
C994 C993 1.379 . S
H995 C989 0.959 . S
H996 C989 0.961 . S
H997 C989 0.960 . S
H998 C990 0.930 . S
H999 C991 0.929 . S
H1000 C1008 0.929 . S
H1001 C1010 0.930 . S
H1002 C1012 0.930 . S
H1003 C1015 0.929 . S
H1004 C1018 0.930 . S
H1005 C1020 0.960 . S
H1006 C1020 0.960 . S
H1007 C1020 0.960 . S
C1008 H1000 0.929 . S
C1008 C1009 1.377 . S
C1008 C1010 1.384 . S
C1009 C1008 1.377 . S
C1009 C1015 1.390 . S
C1010 H1001 0.930 . S
C1010 C1008 1.384 . S
C1010 C1011 1.372 . S
C1011 C1010 1.372 . S
C1011 C1012 1.400 . S
C1011 C1016 1.490 . S
C1012 H1002 0.930 . S
C1012 C1011 1.400 . S
C1012 C1015 1.386 . S
H1013 C1029 0.930 . S
H1014 C1030 0.931 . S
C1015 H1003 0.929 . S
C1015 C1009 1.390 . S
C1015 C1012 1.386 . S
C1016 C1011 1.490 . S
C1016 C1018 1.395 . S
C1016 C1019 1.403 . S
H1017 C1023 0.930 . S
C1018 H1004 0.930 . S
C1018 C1016 1.395 . S
C1018 C1021 1.403 . S
C1019 C1016 1.403 . S
C1019 C1020 1.524 . S
C1019 C1023 1.400 . S
C1020 H1005 0.960 . S
C1020 H1006 0.960 . S
C1020 H1007 0.960 . S
C1020 C1019 1.524 . S
C1021 C1018 1.403 . S
C1021 C1022 1.392 . S
C1021 C1025 1.495 . S
C1022 C1021 1.392 . S
C1022 C1023 1.385 . S
C1022 C1024 1.478 . S
C1023 H1017 0.930 . S
C1023 C1019 1.400 . S
C1023 C1022 1.385 . S
C1024 C1022 1.478 . S
C1024 C1026 1.381 . S
C1024 C1030 1.383 . S
C1025 C1021 1.495 . S
C1025 H1031 0.959 . S
C1025 H1032 0.961 . S
C1025 H1033 0.960 . S
C1026 C1024 1.381 . S
C1026 C1027 1.394 . S
C1026 H1034 0.930 . S
C1027 C1026 1.394 . S
C1027 C1028 1.383 . S
C1027 H1035 0.929 . S
C1028 C1027 1.383 . S
C1028 C1029 1.377 . S
C1029 H1013 0.930 . S
C1029 C1028 1.377 . S
C1029 C1030 1.379 . S
C1030 H1014 0.931 . S
C1030 C1024 1.383 . S
C1030 C1029 1.379 . S
H1031 C1025 0.959 . S
H1032 C1025 0.961 . S
H1033 C1025 0.960 . S
H1034 C1026 0.930 . S
H1035 C1027 0.929 . S
H1036 C1044 0.929 . S
H1037 C1046 0.930 . S
H1038 C1048 0.930 . S
H1039 C1051 0.929 . S
H1040 C1054 0.930 . S
H1041 C1056 0.960 . S
H1042 C1056 0.960 . S
H1043 C1056 0.960 . S
C1044 H1036 0.929 . S
C1044 C1045 1.377 . S
C1044 C1046 1.384 . S
C1045 C1044 1.377 . S
C1045 C1051 1.390 . S
C1046 H1037 0.930 . S
C1046 C1044 1.384 . S
C1046 C1047 1.372 . S
C1047 C1046 1.372 . S
C1047 C1048 1.400 . S
C1047 C1052 1.490 . S
C1048 H1038 0.930 . S
C1048 C1047 1.400 . S
C1048 C1051 1.386 . S
H1049 C1065 0.930 . S
H1050 C1066 0.931 . S
C1051 H1039 0.929 . S
C1051 C1045 1.390 . S
C1051 C1048 1.386 . S
C1052 C1047 1.490 . S
C1052 C1054 1.395 . S
C1052 C1055 1.403 . S
H1053 C1059 0.930 . S
C1054 H1040 0.930 . S
C1054 C1052 1.395 . S
C1054 C1057 1.403 . S
C1055 C1052 1.403 . S
C1055 C1056 1.524 . S
C1055 C1059 1.400 . S
C1056 H1041 0.960 . S
C1056 H1042 0.960 . S
C1056 H1043 0.960 . S
C1056 C1055 1.524 . S
C1057 C1054 1.403 . S
C1057 C1058 1.392 . S
C1057 C1061 1.495 . S
C1058 C1057 1.392 . S
C1058 C1059 1.385 . S
C1058 C1060 1.478 . S
C1059 H1053 0.930 . S
C1059 C1055 1.400 . S
C1059 C1058 1.385 . S
C1060 C1058 1.478 . S
C1060 C1062 1.381 . S
C1060 C1066 1.383 . S
C1061 C1057 1.495 . S
C1061 H1067 0.959 . S
C1061 H1068 0.961 . S
C1061 H1069 0.960 . S
C1062 C1060 1.381 . S
C1062 C1063 1.394 . S
C1062 H1070 0.930 . S
C1063 C1062 1.394 . S
C1063 C1064 1.383 . S
C1063 H1071 0.929 . S
C1064 C1063 1.383 . S
C1064 C1065 1.377 . S
C1065 H1049 0.930 . S
C1065 C1064 1.377 . S
C1065 C1066 1.379 . S
C1066 H1050 0.931 . S
C1066 C1060 1.383 . S
C1066 C1065 1.379 . S
H1067 C1061 0.959 . S
H1068 C1061 0.961 . S
H1069 C1061 0.960 . S
H1070 C1062 0.930 . S
H1071 C1063 0.929 . S
C217 C76 1.623 . S
C236 C98 1.633 . S
C272 C128 1.796 . S
C253 C87 1.771 . S
C308 N162 1.351 . S
C289 C54 1.395 . S
C344 N192 1.341 . S
C325 C65 1.383 . S
C380 C89 1.634 . S
C361 C32 1.623 1_545 S
C397 C43 1.787 . S
C416 C119 1.802 . S
C433 C10 1.394 . S
C452 N154 1.371 . S
C469 C21 1.390 . S
C488 N184 1.423 . S
C524 C104 0.289 . S
C505 C60 0.409 . S
C560 C134 0.418 . S
C541 C71 0.503 . S
C596 C175 0.739 . S
C577 C82 0.736 . S
C613 C49 0.368 . S
C632 C205 0.381 . S
C649 C16 0.415 . S
C668 C115 0.318 . S
C704 C145 0.454 . S
C685 C27 0.498 . S
C740 C164 0.703 . S
C721 C38 0.721 . S
C757 C5 0.379 . S
C776 C194 0.291 . S
C793 C59 1.475 . S
C812 N94 1.489 . S
C829 C70 1.426 . S
C848 N124 1.398 1_554 S
C884 C149 1.647 . S
C865 C81 1.618 . S
C920 C179 1.582 . S
C901 C48 1.550 . S
C937 C15 1.460 . S
C956 N102 1.496 . S
C992 N132 1.430 . S
C973 C26 1.433 1_565 S
C1028 C158 1.642 . S
C1009 C37 1.604 . S
C1045 C4 1.548 . S
C1064 C188 1.588 . S
