# Generated by pormake.
# Topology zzz, (3,6)-cn, num edge types: 1
# Building blocks:
#     Node 0, Type 0, BuildingBlock: CUQRIR_clean_linker_1, # of connection points: 3
#     Node 1, Type 0, BuildingBlock: CUQRIR_clean_linker_1, # of connection points: 3
#     Node 2, Type 0, BuildingBlock: CUQRIR_clean_linker_1, # of connection points: 3
#     Node 3, Type 0, BuildingBlock: CUQRIR_clean_linker_1, # of connection points: 3
#     Node 4, Type 0, BuildingBlock: CUQRIR_clean_linker_1, # of connection points: 3
#     Node 5, Type 0, BuildingBlock: CUQRIR_clean_linker_1, # of connection points: 3
#     Node 6, Type 0, BuildingBlock: CUQRIR_clean_linker_1, # of connection points: 3
#     Node 7, Type 0, BuildingBlock: CUQRIR_clean_linker_1, # of connection points: 3
#     Node 8, Type 1, BuildingBlock: CUKXOW_clean_sbu_0, # of connection points: 6
#     Node 9, Type 1, BuildingBlock: CUKXOW_clean_sbu_0, # of connection points: 6
#     Node 10, Type 1, BuildingBlock: CUKXOW_clean_sbu_0, # of connection points: 6
#     Node 11, Type 1, BuildingBlock: CUKXOW_clean_sbu_0, # of connection points: 6
#     Edge 12, Type (0, 1), BuildingBlock: CIFDUS_clean_linker_0, # of connection points: 2
#     Edge 13, Type (0, 1), BuildingBlock: CIFDUS_clean_linker_0, # of connection points: 2
#     Edge 14, Type (0, 1), BuildingBlock: CIFDUS_clean_linker_0, # of connection points: 2
#     Edge 15, Type (0, 1), BuildingBlock: CIFDUS_clean_linker_0, # of connection points: 2
#     Edge 16, Type (0, 1), BuildingBlock: CIFDUS_clean_linker_0, # of connection points: 2
#     Edge 17, Type (0, 1), BuildingBlock: CIFDUS_clean_linker_0, # of connection points: 2
#     Edge 18, Type (0, 1), BuildingBlock: CIFDUS_clean_linker_0, # of connection points: 2
#     Edge 19, Type (0, 1), BuildingBlock: CIFDUS_clean_linker_0, # of connection points: 2
#     Edge 20, Type (0, 1), BuildingBlock: CIFDUS_clean_linker_0, # of connection points: 2
#     Edge 21, Type (0, 1), BuildingBlock: CIFDUS_clean_linker_0, # of connection points: 2
#     Edge 22, Type (0, 1), BuildingBlock: CIFDUS_clean_linker_0, # of connection points: 2
#     Edge 23, Type (0, 1), BuildingBlock: CIFDUS_clean_linker_0, # of connection points: 2
#     Edge 24, Type (0, 1), BuildingBlock: CIFDUS_clean_linker_0, # of connection points: 2
#     Edge 25, Type (0, 1), BuildingBlock: CIFDUS_clean_linker_0, # of connection points: 2
#     Edge 26, Type (0, 1), BuildingBlock: CIFDUS_clean_linker_0, # of connection points: 2
#     Edge 27, Type (0, 1), BuildingBlock: CIFDUS_clean_linker_0, # of connection points: 2
#     Edge 28, Type (0, 1), BuildingBlock: CIFDUS_clean_linker_0, # of connection points: 2
#     Edge 29, Type (0, 1), BuildingBlock: CIFDUS_clean_linker_0, # of connection points: 2
#     Edge 30, Type (0, 1), BuildingBlock: CIFDUS_clean_linker_0, # of connection points: 2
#     Edge 31, Type (0, 1), BuildingBlock: CIFDUS_clean_linker_0, # of connection points: 2
#     Edge 32, Type (0, 1), BuildingBlock: CIFDUS_clean_linker_0, # of connection points: 2
#     Edge 33, Type (0, 1), BuildingBlock: CIFDUS_clean_linker_0, # of connection points: 2
#     Edge 34, Type (0, 1), BuildingBlock: CIFDUS_clean_linker_0, # of connection points: 2
#     Edge 35, Type (0, 1), BuildingBlock: CIFDUS_clean_linker_0, # of connection points: 2
# Relax obj value: 0.062
# Max RMSD: 0.111
# Mean RMSD: 0.082
data_MOF--net-zzz--node1-CUKXOW_clean_sbu_0--node2-CUQRIR_clean_linker_1--edge1-CIFDUS_clean_linker_0
_symmetry_space_group_name_H-M    P1
_symmetry_Int_Tables_number       1
_symmetry_cell_setting            triclinic
loop_
_symmetry_equiv_pos_as_xyz
'x, y, z'
_cell_length_a     40.940986
_cell_length_b     43.035627
_cell_length_c     12.278389
_cell_angle_alpha  93.933766
_cell_angle_beta   85.994845
_cell_angle_gamma 93.533489
loop_
_atom_site_label
_atom_site_type_symbol
_atom_site_fract_x
_atom_site_fract_y
_atom_site_fract_z
_atom_type_partial_charge
C0 C 0.75459 0.55336 0.15249 0.0
N1 N 0.78743 0.55249 0.15682 0.0
N2 N 0.7463 0.55079 0.04705 0.0
C3 C 0.73074 0.55515 0.25094 0.0
C4 C 0.77526 0.54802 0.98785 0.0
N5 N 0.80025 0.54918 0.05462 0.0
C6 C 0.77904 0.54464 0.86505 0.0
H7 H 0.73782 0.53972 0.31311 0.0
H8 H 0.7053 0.54854 0.22898 0.0
H9 H 0.73174 0.57941 0.28802 0.0
H10 H 0.75935 0.5563 0.82871 0.0
H11 H 0.7771 0.51947 0.83829 0.0
H12 H 0.80334 0.55458 0.83446 0.0
C13 C 0.96217 0.7577 0.03916 0.0
N14 N 0.96072 0.78902 0.05128 0.0
N15 N 0.95973 0.74753 0.93307 0.0
C16 C 0.96688 0.73715 0.13025 0.0
C17 C 0.95721 0.77396 0.88084 0.0
N18 N 0.95763 0.79922 0.95301 0.0
C19 C 0.95772 0.77535 0.75889 0.0
H20 H 0.99352 0.73484 0.13635 0.0
H21 H 0.95513 0.71352 0.11359 0.0
H22 H 0.95657 0.74751 0.20957 0.0
H23 H 0.94286 0.75536 0.72261 0.0
H24 H 0.98336 0.77377 0.72409 0.0
H25 H 0.94832 0.79754 0.73647 0.0
C26 C 0.74761 0.96438 0.14028 0.0
N27 N 0.71489 0.96772 0.14187 0.0
N28 N 0.76064 0.96081 0.03577 0.0
C29 C 0.76696 0.96633 0.24034 0.0
C30 C 0.7347 0.9624 0.9742 0.0
N31 N 0.70689 0.9665 0.03853 0.0
C32 C 0.73705 0.96208 0.85134 0.0
H33 H 0.75945 0.98639 0.29619 0.0
H34 H 0.79374 0.96864 0.21932 0.0
H35 H 0.76142 0.94482 0.28464 0.0
H36 H 0.75469 0.94498 0.81595 0.0
H37 H 0.74625 0.9855 0.82637 0.0
H38 H 0.71281 0.95622 0.81769 0.0
C39 C 0.56021 0.75326 0.14535 0.0
N40 N 0.56157 0.7221 0.14932 0.0
N41 N 0.56593 0.76175 0.04129 0.0
C42 C 0.54838 0.77463 0.23975 0.0
C43 C 0.57026 0.73443 0.98199 0.0
N44 N 0.56767 0.71026 0.04763 0.0
C45 C 0.57374 0.73132 0.85918 0.0
H46 H 0.52117 0.77368 0.24456 0.0
H47 H 0.55763 0.79905 0.22816 0.0
H48 H 0.55639 0.76706 0.31778 0.0
H49 H 0.58866 0.75157 0.82748 0.0
H50 H 0.54909 0.73122 0.82687 0.0
H51 H 0.58525 0.70934 0.82964 0.0
C52 C 0.27373 0.51238 0.2532 0.0
N53 N 0.24067 0.51365 0.26309 0.0
N54 N 0.28534 0.50636 0.35017 0.0
C55 C 0.2948 0.51931 0.15179 0.0
C56 C 0.25815 0.50429 0.41933 0.0
N57 N 0.23112 0.50892 0.36668 0.0
C58 C 0.25837 0.49961 0.53981 0.0
H59 H 0.31951 0.51024 0.15438 0.0
H60 H 0.29746 0.54495 0.14562 0.0
H61 H 0.28308 0.50897 0.07794 0.0
H62 H 0.26881 0.5212 0.58209 0.0
H63 H 0.27403 0.48037 0.55372 0.0
H64 H 0.23344 0.49389 0.57684 0.0
C65 C 0.03785 0.25655 0.35106 0.0
N66 N 0.03648 0.22515 0.3546 0.0
N67 N 0.02643 0.27004 0.44793 0.0
C68 C 0.04733 0.27375 0.25027 0.0
C69 C 0.0178 0.24575 0.51027 0.0
N70 N 0.02374 0.21833 0.45346 0.0
C71 C 0.00399 0.24915 0.62686 0.0
H72 H 0.05667 0.29796 0.27205 0.0
H73 H 0.02532 0.27476 0.20301 0.0
H74 H 0.06618 0.26135 0.19765 0.0
H75 H 0.97699 0.2504 0.62773 0.0
H76 H 0.01406 0.27107 0.66808 0.0
H77 H 0.0096 0.22902 0.67283 0.0
C78 C 0.271 0.04025 0.27965 0.0
N79 N 0.30266 0.03265 0.28268 0.0
N80 N 0.25411 0.03552 0.37673 0.0
C81 C 0.25595 0.05004 0.18024 0.0
C82 C 0.27644 0.02478 0.43866 0.0
N83 N 0.30584 0.02285 0.38179 0.0
C84 C 0.26954 0.01735 0.55638 0.0
H85 H 0.25955 0.07574 0.17742 0.0
H86 H 0.22922 0.04376 0.18353 0.0
H87 H 0.26791 0.03908 0.10451 0.0
H88 H 0.26071 0.99252 0.55966 0.0
H89 H 0.2501 0.0319 0.59647 0.0
H90 H 0.29198 0.02126 0.60234 0.0
C91 C 0.43484 0.26734 0.30279 0.0
N92 N 0.44359 0.29821 0.30722 0.0
N93 N 0.43728 0.25561 0.4013 0.0
C94 C 0.42782 0.24804 0.1997 0.0
C95 C 0.448 0.28049 0.46525 0.0
N96 N 0.45235 0.30637 0.40801 0.0
C97 C 0.45429 0.27902 0.58405 0.0
H98 H 0.41406 0.22581 0.21839 0.0
H99 H 0.45143 0.24263 0.15448 0.0
H100 H 0.41368 0.26125 0.14639 0.0
H101 H 0.47939 0.2713 0.5907 0.0
H102 H 0.43676 0.26166 0.62262 0.0
H103 H 0.45196 0.30214 0.62884 0.0
Tb104 Tb 0.99651 0.98081 0.60919 0.0
C105 C 0.06892 0.00945 0.60679 0.0
Tb106 Tb 0.0138 0.03234 0.78669 0.0
O107 O 0.00505 0.01449 0.48292 0.0
O108 O 0.98851 0.02862 0.64192 0.0
O109 O 0.04947 0.98465 0.57946 0.0
C110 C 0.02277 0.08785 0.89511 0.0
O111 O 0.05903 0.03263 0.67703 0.0
C112 C 0.0135 0.97443 0.84288 0.0
C113 C 0.94285 0.00055 0.79795 0.0
O114 O 0.03891 0.06338 0.90857 0.0
O115 O 0.00238 0.08102 0.81981 0.0
O116 O 0.00673 0.99767 0.91257 0.0
O117 O 0.02222 0.98479 0.75203 0.0
O118 O 0.96132 0.02602 0.82359 0.0
O119 O 0.95327 0.97818 0.726 0.0
C120 C 0.97772 0.92914 0.49288 0.0
O121 O 0.96309 0.95516 0.49975 0.0
O122 O 0.00315 0.93218 0.5511 0.0
C123 C 0.99815 0.03816 0.55002 0.0
Tb124 Tb 0.5082 0.04565 0.68926 0.0
C125 C 0.56539 0.00843 0.56285 0.0
Tb126 Tb 0.51761 0.97765 0.74338 0.0
O127 O 0.54969 0.06431 0.78014 0.0
O128 O 0.52555 0.02267 0.81992 0.0
O129 O 0.54389 0.03024 0.55734 0.0
C130 C 0.53832 0.92504 0.81206 0.0
O131 O 0.56116 0.9868 0.63528 0.0
C132 C 0.47617 0.98438 0.59309 0.0
C133 C 0.46072 0.01416 0.87126 0.0
O134 O 0.5083 0.92999 0.7944 0.0
O135 O 0.55682 0.94967 0.79044 0.0
O136 O 0.47528 0.9603 0.6513 0.0
O137 O 0.50176 0.0008 0.6116 0.0
O138 O 0.48243 0.99252 0.87574 0.0
O139 O 0.4646 0.03627 0.7998 0.0
C140 C 0.49308 0.09895 0.61028 0.0
O141 O 0.47203 0.0761 0.6334 0.0
O142 O 0.52188 0.09186 0.63381 0.0
C143 C 0.551 0.03992 0.83541 0.0
Tb144 Tb 0.52115 0.53452 0.63778 0.0
C145 C 0.45149 0.50136 0.64198 0.0
Tb146 Tb 0.50519 0.4803 0.78903 0.0
O147 O 0.52271 0.50396 0.48779 0.0
O148 O 0.53092 0.48691 0.63573 0.0
O149 O 0.46788 0.52897 0.64022 0.0
C150 C 0.49148 0.42657 0.88464 0.0
O151 O 0.46334 0.47736 0.68603 0.0
C152 C 0.5026 0.53782 0.87826 0.0
C153 C 0.57621 0.51188 0.78112 0.0
O154 O 0.47388 0.45084 0.89785 0.0
O155 O 0.51646 0.4325 0.8168 0.0
O156 O 0.51118 0.51461 0.93008 0.0
O157 O 0.49416 0.52752 0.78631 0.0
O158 O 0.55788 0.48614 0.80114 0.0
O159 O 0.56587 0.53488 0.72753 0.0
C160 C 0.53317 0.59068 0.55918 0.0
O161 O 0.54805 0.58032 0.63797 0.0
O162 O 0.51199 0.56938 0.52436 0.0
C163 C 0.52531 0.47878 0.53813 0.0
Tb164 Tb 0.98277 0.51167 0.61892 0.0
C165 C 0.01984 0.45019 0.63354 0.0
Tb166 Tb 0.04054 0.51359 0.76991 0.0
O167 O 0.0155 0.50529 0.47212 0.0
O168 O 0.03247 0.52865 0.6139 0.0
O169 O 0.9924 0.46209 0.6069 0.0
C170 C 0.09862 0.51292 0.85918 0.0
O171 O 0.04225 0.46648 0.69096 0.0
C172 C 0.98105 0.50463 0.86428 0.0
C173 C 0.00632 0.57443 0.7473 0.0
O174 O 0.07401 0.52877 0.898 0.0
O175 O 0.09052 0.49729 0.76996 0.0
O176 O 0.00557 0.5175 0.91531 0.0
O177 O 0.99157 0.49521 0.77088 0.0
O178 O 0.03544 0.56272 0.75059 0.0
O179 O 0.98051 0.55677 0.71487 0.0
C180 C 0.92474 0.51576 0.53514 0.0
O181 O 0.94948 0.53594 0.52638 0.0
O182 O 0.93268 0.493 0.59042 0.0
C183 C 0.04113 0.51712 0.52012 0.0
H184 H 0.21223 0.98663 0.40434 0.0
H185 H 0.2193 0.08678 0.41704 0.0
H186 H 0.16197 0.08828 0.49238 0.0
H187 H 0.11053 0.06036 0.56292 0.0
H188 H 0.10436 0.95964 0.54255 0.0
H189 H 0.16047 0.95892 0.46308 0.0
C190 C 0.20083 0.00867 0.42218 0.0
C191 C 0.21947 0.03653 0.40506 0.0
C192 C 0.16822 0.00916 0.46554 0.0
C193 C 0.20499 0.06512 0.42877 0.0
C194 C 0.17243 0.06589 0.47261 0.0
C195 C 0.12155 0.03832 0.54114 0.0
C196 C 0.10328 0.0101 0.55933 0.0
C197 C 0.15391 0.03801 0.49303 0.0
C198 C 0.11777 0.98171 0.52933 0.0
C199 C 0.14991 0.98123 0.48378 0.0
H200 H 0.49366 0.2299 0.41306 0.0
H201 H 0.38932 0.211 0.4415 0.0
H202 H 0.39682 0.15891 0.50512 0.0
H203 H 0.43397 0.12046 0.56523 0.0
H204 H 0.53845 0.1425 0.54287 0.0
H205 H 0.53026 0.19158 0.4648 0.0
C206 C 0.47273 0.21399 0.43175 0.0
C207 C 0.44112 0.22372 0.4227 0.0
C208 C 0.47735 0.18492 0.47072 0.0
C209 C 0.41386 0.2035 0.44744 0.0
C210 C 0.41821 0.17399 0.48445 0.0
C211 C 0.45481 0.13606 0.54281 0.0
C212 C 0.48673 0.12805 0.56065 0.0
C213 C 0.44991 0.16468 0.49862 0.0
C214 C 0.51362 0.14827 0.53085 0.0
C215 C 0.50902 0.17633 0.48587 0.0
H216 H 0.31731 0.46147 0.43058 0.0
H217 H 0.32726 0.5568 0.34308 0.0
H218 H 0.38044 0.56379 0.42484 0.0
H219 H 0.42188 0.5437 0.53267 0.0
H220 H 0.41078 0.44857 0.62702 0.0
H221 H 0.35992 0.44069 0.53361 0.0
C222 C 0.33141 0.48362 0.42907 0.0
C223 C 0.31865 0.50865 0.38157 0.0
C224 C 0.3613 0.48763 0.47942 0.0
C225 C 0.33698 0.53723 0.37847 0.0
C226 C 0.36709 0.54126 0.42627 0.0
C227 C 0.40832 0.52125 0.53342 0.0
C228 C 0.41999 0.49692 0.58843 0.0
C229 C 0.37911 0.51683 0.47921 0.0
C230 C 0.40222 0.46788 0.58684 0.0
C231 C 0.3732 0.46327 0.5328 0.0
H232 H 0.0706 0.31604 0.49852 0.0
H233 H 0.96804 0.29532 0.45752 0.0
H234 H 0.95643 0.34996 0.50875 0.0
H235 H 0.97575 0.4034 0.56912 0.0
H236 H 0.0786 0.42332 0.61692 0.0
H237 H 0.08996 0.3695 0.55949 0.0
C238 C 0.04586 0.32381 0.50041 0.0
C239 C 0.02015 0.30224 0.47395 0.0
C240 C 0.03949 0.35501 0.53163 0.0
C241 C 0.98802 0.31195 0.47735 0.0
C242 C 0.98148 0.34303 0.5067 0.0
C243 C 1.00064 0.39597 0.56665 0.0
C244 C 0.02621 0.41738 0.59784 0.0
C245 C 0.00702 0.36478 0.53459 0.0
C246 C 0.05834 0.4073 0.59455 0.0
C247 C 0.06494 0.37651 0.56129 0.0
H248 H 0.80307 0.01027 0.04886 0.0
H249 H 0.79341 0.91393 0.93231 0.0
H250 H 0.84975 0.91713 0.84834 0.0
H251 H 0.90091 0.9484 0.8021 0.0
H252 H 0.9097 0.0453 0.91954 0.0
H253 H 0.85484 0.04093 0.00913 0.0
C254 C 0.8137 0.99 0.00631 0.0
C255 C 0.79463 0.96187 0.99687 0.0
C256 C 0.84578 0.99224 0.95761 0.0
C257 C 0.80805 0.93569 0.94061 0.0
C258 C 0.84008 0.93761 0.89242 0.0
C259 C 0.89081 0.96857 0.84709 0.0
C260 C 0.90946 0.99719 0.85306 0.0
C261 C 0.85906 0.96593 0.8991 0.0
C262 C 0.89603 0.02296 0.9131 0.0
C263 C 0.86457 0.02054 0.96458 0.0
H264 H 0.60519 0.81114 0.98662 0.0
H265 H 0.505 0.77458 0.00395 0.0
H266 H 0.48726 0.82228 0.93294 0.0
H267 H 0.50048 0.87427 0.86671 0.0
H268 H 0.60073 0.91161 0.84896 0.0
H269 H 0.61854 0.86395 0.91958 0.0
C270 C 0.57959 0.81393 0.97448 0.0
C271 C 0.55623 0.78987 0.99985 0.0
C272 C 0.56975 0.84142 0.93389 0.0
C273 C 0.52307 0.79317 0.98451 0.0
C274 C 0.51306 0.82029 0.94411 0.0
C275 C 0.52623 0.87192 0.87813 0.0
C276 C 0.54929 0.89628 0.85293 0.0
C277 C 0.53617 0.84456 0.91855 0.0
C278 C 0.58256 0.89307 0.86815 0.0
C279 C 0.59273 0.86585 0.90837 0.0
H280 H 0.71679 0.50041 0.95029 0.0
H281 H 0.7045 0.59674 0.05202 0.0
H282 H 0.65079 0.59408 0.97229 0.0
H283 H 0.60752 0.56382 0.87246 0.0
H284 H 0.61866 0.46617 0.78365 0.0
H285 H 0.67273 0.46965 0.85794 0.0
C286 C 0.7021 0.52064 0.95489 0.0
C287 C 0.71415 0.54871 0.00614 0.0
C288 C 0.67132 0.51867 0.91034 0.0
C289 C 0.69528 0.57495 0.01291 0.0
C290 C 0.6648 0.57341 0.96703 0.0
C291 C 0.62199 0.54344 0.86875 0.0
C292 C 0.60942 0.51485 0.82168 0.0
C293 C 0.65263 0.54539 0.915 0.0
C294 C 0.62798 0.48842 0.81922 0.0
C295 C 0.65884 0.49038 0.86179 0.0
H296 H 0.01349 0.71548 0.93039 0.0
H297 H 0.91441 0.71004 0.83293 0.0
H298 H 0.91982 0.65544 0.764 0.0
H299 H 0.95264 0.60888 0.73752 0.0
H300 H 0.05228 0.61529 0.83555 0.0
H301 H 0.04685 0.6697 0.89836 0.0
C302 C 0.99329 0.7022 0.89335 0.0
C303 C 0.96367 0.71638 0.88596 0.0
C304 C 0.99667 0.67103 0.85467 0.0
C305 C 0.93747 0.69936 0.83809 0.0
C306 C 0.94056 0.66824 0.79944 0.0
C307 C 0.9732 0.62219 0.77223 0.0
C308 C 0.0028 0.60785 0.78177 0.0
C309 C 0.97001 0.65372 0.80811 0.0
C310 C 0.02919 0.62559 0.82686 0.0
C311 C 0.02615 0.65679 0.86306 0.0
H312 H 0.06232 0.16982 0.44062 0.0
H313 H 0.96496 0.19711 0.54272 0.0
H314 H 0.94919 0.14391 0.59308 0.0
H315 H 0.96243 0.08866 0.59711 0.0
H316 H 0.05604 0.05997 0.45656 0.0
H317 H 0.07382 0.11427 0.42691 0.0
C318 C 0.03742 0.16392 0.47072 0.0
C319 C 0.01482 0.18727 0.48705 0.0
C320 C 0.0279 0.13292 0.49144 0.0
C321 C 0.98298 0.17962 0.53125 0.0
C322 C 0.97387 0.14915 0.55876 0.0
C323 C 0.98667 0.09449 0.56 0.0
C324 C 0.00813 0.07072 0.53003 0.0
C325 C 0.99601 0.12551 0.53784 0.0
C326 C 0.0393 0.07812 0.48057 0.0
C327 C 0.04944 0.10908 0.46379 0.0
H328 H 0.36669 0.05052 0.37496 0.0
H329 H 0.31007 0.96797 0.47024 0.0
H330 H 0.35831 0.94812 0.54259 0.0
H331 H 0.41609 0.95523 0.58409 0.0
H332 H 0.47471 0.03461 0.47012 0.0
H333 H 0.42648 0.05457 0.39694 0.0
C334 C 0.36518 0.02807 0.41057 0.0
C335 C 0.33488 0.01096 0.41973 0.0
C336 C 0.39331 0.01631 0.44807 0.0
C337 C 0.33302 0.98184 0.46547 0.0
C338 C 0.36061 0.97039 0.5057 0.0
C339 C 0.41834 0.97674 0.54229 0.0
C340 C 0.44848 0.99408 0.53569 0.0
C341 C 0.39079 0.98757 0.49839 0.0
C342 C 0.45134 0.02152 0.47938 0.0
C343 C 0.42387 0.03282 0.43711 0.0
H344 H 0.43379 0.36419 0.38245 0.0
H345 H 0.50949 0.31406 0.50721 0.0
H346 H 0.53793 0.36318 0.56679 0.0
H347 H 0.54191 0.42088 0.57884 0.0
H348 H 0.47233 0.46992 0.41771 0.0
H349 H 0.44158 0.42092 0.37205 0.0
C350 C 0.45687 0.364 0.42019 0.0
C351 C 0.46916 0.33553 0.44193 0.0
C352 C 0.47439 0.39223 0.44639 0.0
C353 C 0.49885 0.33571 0.49322 0.0
C354 C 0.5154 0.36377 0.52578 0.0
C355 C 0.52017 0.42062 0.533 0.0
C356 C 0.50912 0.44875 0.50262 0.0
C357 C 0.50345 0.39222 0.50244 0.0
C358 C 0.48123 0.44839 0.44192 0.0
C359 C 0.46355 0.42045 0.41621 0.0
H360 H 0.17701 0.47763 0.30025 0.0
H361 H 0.21212 0.54798 0.53682 0.0
H362 H 0.15582 0.55599 0.61 0.0
H363 H 0.09646 0.54458 0.59974 0.0
H364 H 0.06134 0.47742 0.35146 0.0
H365 H 0.11769 0.46711 0.28692 0.0
C366 C 0.17211 0.4946 0.36791 0.0
C367 C 0.19832 0.51189 0.41449 0.0
C368 C 0.13977 0.49999 0.40573 0.0
C369 C 0.1921 0.53399 0.50181 0.0
C370 C 0.16002 0.53878 0.54258 0.0
C371 C 0.10127 0.52771 0.53156 0.0
C372 C 0.07505 0.5118 0.48011 0.0
C373 C 0.13365 0.52218 0.49424 0.0
C374 C 0.08132 0.49007 0.39169 0.0
C375 C 0.11345 0.48405 0.35516 0.0
H376 H 0.01154 0.82831 0.86449 0.0
H377 H 0.91225 0.84212 0.98694 0.0
H378 H 0.92142 0.89872 0.97399 0.0
H379 H 0.9587 0.94446 0.93148 0.0
H380 H 0.05584 0.92971 0.78667 0.0
H381 H 0.04699 0.87343 0.80472 0.0
C382 C 0.99194 0.84385 0.88645 0.0
C383 C 0.96151 0.83153 0.92842 0.0
C384 C 0.99728 0.87613 0.87621 0.0
C385 C 0.93602 0.85149 0.95647 0.0
C386 C 0.94129 0.88372 0.94911 0.0
C387 C 0.97791 0.92883 0.90504 0.0
C388 C 0.00816 0.94099 0.86053 0.0
C389 C 0.97203 0.89638 0.91073 0.0
C390 C 0.0326 0.92067 0.823 0.0
C391 C 0.02748 0.88856 0.83265 0.0
H392 H 0.69592 0.01497 0.92664 0.0
H393 H 0.64817 0.93594 0.07965 0.0
H394 H 0.59429 0.95247 0.03661 0.0
H395 H 0.56105 0.99042 0.95573 0.0
H396 H 0.61075 0.06858 0.79964 0.0
H397 H 0.66348 0.05192 0.84509 0.0
C398 C 0.67367 0.00112 0.9481 0.0
C399 C 0.67567 0.97412 0.00394 0.0
C400 C 0.64319 0.01091 0.92392 0.0
C401 C 0.64687 0.95664 0.03514 0.0
C402 C 0.61623 0.96622 0.01124 0.0
C403 C 0.58352 0.00349 0.93099 0.0
C404 C 0.58207 0.03029 0.87275 0.0
C405 C 0.61408 0.99343 0.95576 0.0
C406 C 0.61119 0.04772 0.84406 0.0
C407 C 0.64143 0.03816 0.86938 0.0
H408 H 0.52266 0.68411 0.91701 0.0
H409 H 0.60062 0.66336 0.1128 0.0
H410 H 0.58652 0.60722 0.08346 0.0
H411 H 0.55038 0.56416 0.00559 0.0
H412 H 0.47388 0.58591 0.80373 0.0
H413 H 0.48887 0.64152 0.83131 0.0
C414 C 0.53713 0.66718 0.95015 0.0
C415 C 0.563 0.67756 0.01497 0.0
C416 C 0.52864 0.63523 0.93362 0.0
C417 C 0.58088 0.6556 0.06136 0.0
C418 C 0.57262 0.62365 0.04539 0.0
C419 C 0.53684 0.5812 0.96904 0.0
C420 C 0.51072 0.57117 0.90443 0.0
C421 C 0.54617 0.61319 0.98297 0.0
C422 C 0.49381 0.59326 0.85498 0.0
C423 C 0.50248 0.625 0.87009 0.0
H424 H 0.82712 0.5011 0.93885 0.0
H425 H 0.8498 0.59066 0.10199 0.0
H426 H 0.90861 0.58374 0.0664 0.0
H427 H 0.95358 0.55203 0.98714 0.0
H428 H 0.93072 0.4646 0.8085 0.0
H429 H 0.87202 0.47066 0.85058 0.0
C430 C 0.84509 0.51913 0.96506 0.0
C431 C 0.83452 0.54611 0.02411 0.0
C432 C 0.87871 0.5152 0.94203 0.0
C433 C 0.85771 0.56943 0.05853 0.0
C434 C 0.89121 0.56551 0.03779 0.0
C435 C 0.93565 0.53419 0.95895 0.0
C436 C 0.94615 0.50768 0.89673 0.0
C437 C 0.90201 0.53837 0.98032 0.0
C438 C 0.92292 0.48505 0.8576 0.0
C439 C 0.88946 0.48856 0.8812 0.0
H440 H 0.99126 0.20371 0.2184 0.0
H441 H 0.092 0.19732 0.28651 0.0
H442 H 0.09754 0.15353 0.14807 0.0
H443 H 0.07184 0.11473 0.01604 0.0
H444 H 0.97243 0.12538 0.93586 0.0
H445 H 0.96805 0.16992 0.06909 0.0
C446 C 0.01444 0.1929 0.20096 0.0
C447 C 0.04101 0.20288 0.26284 0.0
C448 C 0.0175 0.16846 0.11973 0.0
C449 C 0.07125 0.18941 0.23978 0.0
C450 C 0.0743 0.16443 0.16124 0.0
C451 C 0.04943 0.12709 0.02725 0.0
C452 C 0.02238 0.11666 0.96745 0.0
C453 C 0.04735 0.15332 0.10212 0.0
C454 C 0.99356 0.13301 0.98125 0.0
C455 C 0.99098 0.15841 0.05762 0.0
H456 H 0.34002 0.98565 0.20706 0.0
H457 H 0.3229 0.08146 0.16281 0.0
H458 H 0.36975 0.0843 0.02691 0.0
H459 H 0.41764 0.06003 0.92821 0.0
H460 H 0.43689 0.96537 0.98837 0.0
H461 H 0.38806 0.96191 0.11284 0.0
C462 C 0.34669 0.00715 0.16779 0.0
C463 C 0.32818 0.03334 0.19502 0.0
C464 C 0.37445 0.00895 0.09393 0.0
C465 C 0.33663 0.06092 0.14219 0.0
C466 C 0.36361 0.06261 0.06551 0.0
C467 C 0.41114 0.03866 0.96853 0.0
C468 C 0.43114 0.01306 0.94888 0.0
C469 C 0.38305 0.03689 0.04186 0.0
C470 C 0.42228 0.98558 0.00233 0.0
C471 C 0.39417 0.98347 0.07328 0.0
H472 H 0.49812 0.31465 0.18671 0.0
H473 H 0.39461 0.32703 0.2313 0.0
H474 H 0.39965 0.36802 0.10034 0.0
H475 H 0.43476 0.40305 0.98408 0.0
H476 H 0.53783 0.38779 0.92903 0.0
H477 H 0.53202 0.34513 0.05199 0.0
C478 C 0.47675 0.32602 0.16538 0.0
C479 C 0.4461 0.31831 0.21782 0.0
C480 C 0.47991 0.34916 0.08923 0.0
C481 C 0.41832 0.33283 0.1907 0.0
C482 C 0.4213 0.35631 0.11678 0.0
C483 C 0.45579 0.39009 0.99824 0.0
C484 C 0.48672 0.39867 0.94877 0.0
C485 C 0.45211 0.36513 0.06721 0.0
C486 C 0.51378 0.38156 0.96645 0.0
C487 C 0.5105 0.35725 0.03698 0.0
H488 H 0.2262 0.47985 0.07856 0.0
H489 H 0.20578 0.5646 0.27073 0.0
H490 H 0.16001 0.5727 0.1594 0.0
H491 H 0.12273 0.55289 0.01824 0.0
H492 H 0.1442 0.46919 0.81981 0.0
H493 H 0.19278 0.46347 0.92102 0.0
C494 C 0.21231 0.50054 0.09319 0.0
C495 C 0.21918 0.52168 0.18222 0.0
C496 C 0.18597 0.50491 0.02877 0.0
C497 C 0.20081 0.54819 0.20221 0.0
C498 C 0.17456 0.55264 0.13918 0.0
C499 C 0.13827 0.53358 0.99654 0.0
C500 C 0.12971 0.51126 0.91278 0.0
C501 C 0.16635 0.53071 0.05415 0.0
C502 C 0.15022 0.48658 0.88444 0.0
C503 C 0.17798 0.48329 0.94238 0.0
H504 H 0.91862 0.82586 0.16384 0.0
H505 H 0.01711 0.79606 0.15229 0.0
H506 H 0.0305 0.83524 0.30001 0.0
H507 H 0.01537 0.8816 0.4181 0.0
H508 H 0.91847 0.91513 0.41142 0.0
H509 H 0.90314 0.87147 0.28352 0.0
C510 C 0.94295 0.8282 0.19399 0.0
C511 C 0.96705 0.80875 0.14748 0.0
C512 C 0.9507 0.85165 0.27436 0.0
C513 C 0.99832 0.81098 0.18809 0.0
C514 C 0.00596 0.83347 0.27147 0.0
C515 C 0.99082 0.87903 0.38947 0.0
C516 C 0.96803 0.90139 0.4235 0.0
C517 C 0.98256 0.85448 0.31321 0.0
C518 C 0.93638 0.89815 0.3856 0.0
C519 C 0.92761 0.87323 0.3127 0.0
H520 H 0.67817 0.01731 0.18465 0.0
H521 H 0.70107 0.93065 0.30844 0.0
H522 H 0.65768 0.93652 0.4553 0.0
H523 H 0.61062 0.96421 0.53839 0.0
H524 H 0.58479 0.04904 0.4051 0.0
H525 H 0.6313 0.04556 0.26963 0.0
C526 C 0.67356 0.99982 0.24414 0.0
C527 C 0.6925 0.9735 0.23606 0.0
C528 C 0.64771 0.00276 0.32492 0.0
C529 C 0.68691 0.95119 0.31426 0.0
C530 C 0.6619 0.95441 0.39711 0.0
C531 C 0.61512 0.98205 0.48007 0.0
C532 C 0.59399 0.00676 0.48175 0.0
C533 C 0.64169 0.97975 0.40173 0.0
C534 C 0.60044 0.02965 0.40547 0.0
C535 C 0.62712 0.02775 0.32812 0.0
H536 H 0.59342 0.70747 0.31988 0.0
H537 H 0.50125 0.69517 0.17051 0.0
H538 H 0.48263 0.6543 0.29374 0.0
H539 H 0.49564 0.61802 0.42731 0.0
H540 H 0.58771 0.62988 0.57947 0.0
H541 H 0.60347 0.67537 0.4735 0.0
C542 C 0.56896 0.69635 0.31753 0.0
C543 C 0.54854 0.70388 0.23748 0.0
C544 C 0.55877 0.67267 0.38772 0.0
C545 C 0.517 0.68947 0.23271 0.0
C546 C 0.50658 0.66607 0.30223 0.0
C547 C 0.51895 0.63088 0.43828 0.0
C548 C 0.54078 0.62053 0.50916 0.0
C549 C 0.5277 0.65679 0.37743 0.0
C550 C 0.57068 0.63747 0.52441 0.0
C551 C 0.5797 0.66336 0.46373 0.0
H552 H 0.80551 0.50052 0.23606 0.0
H553 H 0.81143 0.60047 0.28398 0.0
H554 H 0.85439 0.59815 0.41283 0.0
H555 H 0.89465 0.56748 0.49343 0.0
H556 H 0.8862 0.46709 0.45491 0.0
H557 H 0.83962 0.46939 0.34135 0.0
C558 C 0.81558 0.52157 0.27804 0.0
C559 C 0.80568 0.55062 0.25174 0.0
C560 C 0.84007 0.51988 0.35171 0.0
C561 C 0.81875 0.57797 0.30473 0.0
C562 C 0.84347 0.57659 0.37705 0.0
C563 C 0.88221 0.54616 0.46139 0.0
C564 C 0.89395 0.51717 0.4807 0.0
C565 C 0.85506 0.5477 0.39831 0.0
C566 C 0.87752 0.48964 0.44052 0.0
C567 C 0.851 0.49096 0.37544 0.0
loop_
_geom_bond_atom_site_label_1
_geom_bond_atom_site_label_2
_geom_bond_distance
_geom_bond_site_symmetry_2
_ccdc_geom_bond_type
C0 N1 1.317 . S
C0 N2 1.348 . S
C0 C3 1.485 . S
N1 C0 1.317 . S
N1 N5 1.370 . S
N2 C0 1.348 . S
N2 C4 1.346 1_554 S
C3 C0 1.485 . S
C3 H7 0.960 . S
C3 H8 0.961 . S
C3 H9 0.960 . S
C4 N2 1.346 1_556 S
C4 N5 1.307 1_556 S
C4 C6 1.486 . S
N5 N1 1.370 . S
N5 C4 1.307 1_554 S
C6 C4 1.486 . S
C6 H10 0.960 . S
C6 H11 0.960 . S
C6 H12 0.959 . S
H7 C3 0.960 . S
H8 C3 0.961 . S
H9 C3 0.960 . S
H10 C6 0.960 . S
H11 C6 0.960 . S
H12 C6 0.959 . S
C13 N14 1.317 . S
C13 N15 1.348 1_554 S
C13 C16 1.485 . S
N14 C13 1.317 . S
N14 N18 1.370 1_554 S
N15 C13 1.348 1_556 S
N15 C17 1.346 . S
C16 C13 1.485 . S
C16 H20 0.960 . S
C16 H21 0.961 . S
C16 H22 0.960 . S
C17 N15 1.346 . S
C17 N18 1.307 . S
C17 C19 1.486 . S
N18 N14 1.370 1_556 S
N18 C17 1.307 . S
C19 C17 1.486 . S
C19 H23 0.960 . S
C19 H24 0.960 . S
C19 H25 0.959 . S
H20 C16 0.960 . S
H21 C16 0.961 . S
H22 C16 0.960 . S
H23 C19 0.960 . S
H24 C19 0.960 . S
H25 C19 0.959 . S
C26 N27 1.317 . S
C26 N28 1.348 . S
C26 C29 1.485 . S
N27 C26 1.317 . S
N27 N31 1.370 . S
N28 C26 1.348 . S
N28 C30 1.346 1_554 S
C29 C26 1.485 . S
C29 H33 0.960 . S
C29 H34 0.961 . S
C29 H35 0.960 . S
C30 N28 1.346 1_556 S
C30 N31 1.307 1_556 S
C30 C32 1.486 . S
N31 N27 1.370 . S
N31 C30 1.307 1_554 S
C32 C30 1.486 . S
C32 H36 0.960 . S
C32 H37 0.960 . S
C32 H38 0.959 . S
H33 C29 0.960 . S
H34 C29 0.961 . S
H35 C29 0.960 . S
H36 C32 0.960 . S
H37 C32 0.960 . S
H38 C32 0.959 . S
C39 N40 1.317 . S
C39 N41 1.348 . S
C39 C42 1.485 . S
N40 C39 1.317 . S
N40 N44 1.370 . S
N41 C39 1.348 . S
N41 C43 1.346 1_554 S
C42 C39 1.485 . S
C42 H46 0.960 . S
C42 H47 0.961 . S
C42 H48 0.960 . S
C43 N41 1.346 1_556 S
C43 N44 1.307 1_556 S
C43 C45 1.486 . S
N44 N40 1.370 . S
N44 C43 1.307 1_554 S
C45 C43 1.486 . S
C45 H49 0.960 . S
C45 H50 0.960 . S
C45 H51 0.959 . S
H46 C42 0.960 . S
H47 C42 0.961 . S
H48 C42 0.960 . S
H49 C45 0.960 . S
H50 C45 0.960 . S
H51 C45 0.959 . S
C52 N53 1.317 . S
C52 N54 1.348 . S
C52 C55 1.485 . S
N53 C52 1.317 . S
N53 N57 1.370 . S
N54 C52 1.348 . S
N54 C56 1.346 . S
C55 C52 1.485 . S
C55 H59 0.960 . S
C55 H60 0.961 . S
C55 H61 0.960 . S
C56 N54 1.346 . S
C56 N57 1.307 . S
C56 C58 1.486 . S
N57 N53 1.370 . S
N57 C56 1.307 . S
C58 C56 1.486 . S
C58 H62 0.960 . S
C58 H63 0.960 . S
C58 H64 0.959 . S
H59 C55 0.960 . S
H60 C55 0.961 . S
H61 C55 0.960 . S
H62 C58 0.960 . S
H63 C58 0.960 . S
H64 C58 0.959 . S
C65 N66 1.317 . S
C65 N67 1.348 . S
C65 C68 1.485 . S
N66 C65 1.317 . S
N66 N70 1.370 . S
N67 C65 1.348 . S
N67 C69 1.346 . S
C68 C65 1.485 . S
C68 H72 0.960 . S
C68 H73 0.961 . S
C68 H74 0.960 . S
C69 N67 1.346 . S
C69 N70 1.307 . S
C69 C71 1.486 . S
N70 N66 1.370 . S
N70 C69 1.307 . S
C71 C69 1.486 . S
C71 H75 0.960 . S
C71 H76 0.960 . S
C71 H77 0.959 . S
H72 C68 0.960 . S
H73 C68 0.961 . S
H74 C68 0.960 . S
H75 C71 0.960 . S
H76 C71 0.960 . S
H77 C71 0.959 . S
C78 N79 1.317 . S
C78 N80 1.348 . S
C78 C81 1.485 . S
N79 C78 1.317 . S
N79 N83 1.370 . S
N80 C78 1.348 . S
N80 C82 1.346 . S
C81 C78 1.485 . S
C81 H85 0.960 . S
C81 H86 0.961 . S
C81 H87 0.960 . S
C82 N80 1.346 . S
C82 N83 1.307 . S
C82 C84 1.486 . S
N83 N79 1.370 . S
N83 C82 1.307 . S
C84 C82 1.486 . S
C84 H88 0.960 . S
C84 H89 0.960 . S
C84 H90 0.959 . S
H85 C81 0.960 . S
H86 C81 0.961 . S
H87 C81 0.960 . S
H88 C84 0.960 . S
H89 C84 0.960 . S
H90 C84 0.959 . S
C91 N92 1.317 . S
C91 N93 1.348 . S
C91 C94 1.485 . S
N92 C91 1.317 . S
N92 N96 1.370 . S
N93 C91 1.348 . S
N93 C95 1.346 . S
C94 C91 1.485 . S
C94 H98 0.960 . S
C94 H99 0.961 . S
C94 H100 0.960 . S
C95 N93 1.346 . S
C95 N96 1.307 . S
C95 C97 1.486 . S
N96 N92 1.370 . S
N96 C95 1.307 . S
C97 C95 1.486 . S
C97 H101 0.960 . S
C97 H102 0.960 . S
C97 H103 0.959 . S
H98 C94 0.960 . S
H99 C94 0.961 . S
H100 C94 0.960 . S
H101 C97 0.960 . S
H102 C97 0.960 . S
H103 C97 0.959 . S
Tb104 O107 2.444 1_565 S
Tb104 O108 2.589 1_665 S
Tb104 O109 2.374 1_665 S
Tb104 O117 2.348 1_655 S
Tb104 O119 2.352 1_565 S
Tb104 O121 2.434 . S
Tb104 O122 2.521 1_655 S
C105 O109 1.251 . S
C105 O111 1.263 . S
Tb106 O108 2.343 . S
Tb106 O111 2.353 . S
Tb106 O114 2.427 . S
Tb106 O115 2.513 1_455 S
Tb106 O116 2.453 1_545 S
Tb106 O117 2.596 1_545 S
Tb106 O118 2.374 1_455 S
O107 Tb104 2.444 1_545 S
O107 C123 1.245 1_655 S
O108 Tb104 2.589 1_445 S
O108 Tb106 2.343 . S
O108 C123 1.259 . S
O109 Tb104 2.374 1_445 S
O109 C105 1.251 . S
C110 O114 1.275 . S
C110 O115 1.246 1_455 S
O111 C105 1.263 . S
O111 Tb106 2.353 . S
C112 O116 1.245 . S
C112 O117 1.259 . S
C113 O118 1.250 . S
C113 O119 1.263 . S
O114 Tb106 2.427 . S
O114 C110 1.275 . S
O115 Tb106 2.513 1_655 S
O115 C110 1.246 1_655 S
O116 Tb106 2.453 1_565 S
O116 C112 1.245 . S
O117 Tb104 2.348 1_455 S
O117 Tb106 2.596 1_565 S
O117 C112 1.259 . S
O118 Tb106 2.374 1_655 S
O118 C113 1.250 . S
O119 Tb104 2.352 1_545 S
O119 C113 1.263 . S
C120 O121 1.275 . S
C120 O122 1.246 1_655 S
O121 Tb104 2.434 . S
O121 C120 1.275 . S
O122 Tb104 2.521 1_455 S
O122 C120 1.246 1_455 S
C123 O107 1.245 1_455 S
C123 O108 1.259 . S
Tb124 O127 2.453 . S
Tb124 O128 2.560 1_545 S
Tb124 O129 2.374 . S
Tb124 O137 2.343 . S
Tb124 O139 2.353 . S
Tb124 O141 2.427 . S
Tb124 O142 2.513 . S
C125 O129 1.278 . S
C125 O131 1.241 1_545 S
Tb126 O128 2.364 . S
Tb126 O131 2.353 . S
Tb126 O134 2.427 . S
Tb126 O135 2.513 . S
Tb126 O136 2.453 . S
Tb126 O137 2.596 1_565 S
Tb126 O138 2.374 . S
O127 Tb124 2.453 . S
O127 C143 1.245 . S
O128 Tb124 2.560 1_565 S
O128 Tb126 2.364 . S
O128 C143 1.249 1_565 S
O129 Tb124 2.374 . S
O129 C125 1.278 . S
C130 O134 1.275 . S
C130 O135 1.246 . S
O131 C125 1.241 1_565 S
O131 Tb126 2.353 . S
C132 O136 1.245 1_545 S
C132 O137 1.259 . S
C133 O138 1.250 1_545 S
C133 O139 1.263 . S
O134 Tb126 2.427 . S
O134 C130 1.275 . S
O135 Tb126 2.513 . S
O135 C130 1.246 . S
O136 Tb126 2.453 . S
O136 C132 1.245 1_565 S
O137 Tb124 2.343 . S
O137 Tb126 2.596 1_545 S
O137 C132 1.259 . S
O138 Tb126 2.374 . S
O138 C133 1.250 1_565 S
O139 Tb124 2.353 . S
O139 C133 1.263 . S
C140 O141 1.275 . S
C140 O142 1.246 . S
O141 Tb124 2.427 . S
O141 C140 1.275 . S
O142 Tb124 2.513 . S
O142 C140 1.246 . S
C143 O127 1.245 . S
C143 O128 1.249 1_545 S
Tb144 O147 2.453 . S
Tb144 O148 2.596 . S
Tb144 O149 2.374 . S
Tb144 O157 2.343 . S
Tb144 O159 2.353 . S
Tb144 O161 2.427 . S
Tb144 O162 2.513 . S
C145 O149 1.251 . S
C145 O151 1.263 . S
Tb146 O148 2.343 . S
Tb146 O151 2.353 . S
Tb146 O154 2.427 . S
Tb146 O155 2.513 . S
Tb146 O156 2.453 . S
Tb146 O157 2.596 . S
Tb146 O158 2.374 . S
O147 Tb144 2.453 . S
O147 C163 1.245 . S
O148 Tb144 2.596 . S
O148 Tb146 2.343 . S
O148 C163 1.259 . S
O149 Tb144 2.374 . S
O149 C145 1.251 . S
C150 O154 1.275 . S
C150 O155 1.246 . S
O151 C145 1.263 . S
O151 Tb146 2.353 . S
C152 O156 1.245 . S
C152 O157 1.259 . S
C153 O158 1.250 . S
C153 O159 1.263 . S
O154 Tb146 2.427 . S
O154 C150 1.275 . S
O155 Tb146 2.513 . S
O155 C150 1.246 . S
O156 Tb146 2.453 . S
O156 C152 1.245 . S
O157 Tb144 2.343 . S
O157 Tb146 2.596 . S
O157 C152 1.259 . S
O158 Tb146 2.374 . S
O158 C153 1.250 . S
O159 Tb144 2.353 . S
O159 C153 1.263 . S
C160 O161 1.275 . S
C160 O162 1.246 . S
O161 Tb144 2.427 . S
O161 C160 1.275 . S
O162 Tb144 2.513 . S
O162 C160 1.246 . S
C163 O147 1.245 . S
C163 O148 1.259 . S
Tb164 O167 2.453 1_655 S
Tb164 O168 2.596 1_655 S
Tb164 O169 2.374 1_655 S
Tb164 O177 2.343 . S
Tb164 O179 2.353 1_655 S
Tb164 O181 2.427 . S
Tb164 O182 2.513 . S
C165 O169 1.251 . S
C165 O171 1.263 . S
Tb166 O168 2.343 . S
Tb166 O171 2.353 . S
Tb166 O174 2.427 . S
Tb166 O175 2.513 . S
Tb166 O176 2.453 1_455 S
Tb166 O177 2.596 1_455 S
Tb166 O178 2.374 . S
O167 Tb164 2.453 1_455 S
O167 C183 1.245 . S
O168 Tb164 2.596 1_455 S
O168 Tb166 2.343 . S
O168 C183 1.259 . S
O169 Tb164 2.374 1_455 S
O169 C165 1.251 . S
C170 O174 1.275 . S
C170 O175 1.246 . S
O171 C165 1.263 . S
O171 Tb166 2.353 . S
C172 O176 1.245 . S
C172 O177 1.259 . S
C173 O178 1.250 . S
C173 O179 1.263 . S
O174 Tb166 2.427 . S
O174 C170 1.275 . S
O175 Tb166 2.513 . S
O175 C170 1.246 . S
O176 Tb166 2.453 1_655 S
O176 C172 1.245 . S
O177 Tb164 2.343 . S
O177 Tb166 2.596 1_655 S
O177 C172 1.259 . S
O178 Tb166 2.374 . S
O178 C173 1.250 . S
O179 Tb164 2.353 1_455 S
O179 C173 1.263 . S
C180 O181 1.275 . S
C180 O182 1.246 . S
O181 Tb164 2.427 . S
O181 C180 1.275 . S
O182 Tb164 2.513 . S
O182 C180 1.246 . S
C183 O167 1.245 . S
C183 O168 1.259 . S
H184 C190 0.930 . S
H185 C193 0.930 . S
H186 C194 0.930 . S
H187 C195 0.930 . S
H188 C198 0.930 . S
H189 C199 0.930 . S
C190 H184 0.930 . S
C190 C191 1.355 . S
C190 C192 1.415 . S
C191 C190 1.355 . S
C191 C193 1.419 . S
C192 C190 1.415 . S
C192 C197 1.425 . S
C192 C199 1.409 1_545 S
C193 H185 0.930 . S
C193 C191 1.419 . S
C193 C194 1.362 . S
C194 H186 0.930 . S
C194 C193 1.362 . S
C194 C197 1.409 . S
C195 H187 0.930 . S
C195 C196 1.355 . S
C195 C197 1.415 . S
C196 C195 1.355 . S
C196 C198 1.419 1_545 S
C197 C192 1.425 . S
C197 C194 1.409 . S
C197 C195 1.415 . S
C198 H188 0.930 . S
C198 C196 1.419 1_565 S
C198 C199 1.362 . S
C199 H189 0.930 . S
C199 C192 1.409 1_565 S
C199 C198 1.362 . S
H200 C206 0.930 . S
H201 C209 0.930 . S
H202 C210 0.930 . S
H203 C211 0.930 . S
H204 C214 0.930 . S
H205 C215 0.930 . S
C206 H200 0.930 . S
C206 C207 1.355 . S
C206 C208 1.415 . S
C207 C206 1.355 . S
C207 C209 1.419 . S
C208 C206 1.415 . S
C208 C213 1.425 . S
C208 C215 1.409 . S
C209 H201 0.930 . S
C209 C207 1.419 . S
C209 C210 1.362 . S
C210 H202 0.930 . S
C210 C209 1.362 . S
C210 C213 1.409 . S
C211 H203 0.930 . S
C211 C212 1.355 . S
C211 C213 1.415 . S
C212 C211 1.355 . S
C212 C214 1.419 . S
C213 C208 1.425 . S
C213 C210 1.409 . S
C213 C211 1.415 . S
C214 H204 0.930 . S
C214 C212 1.419 . S
C214 C215 1.362 . S
C215 H205 0.930 . S
C215 C208 1.409 . S
C215 C214 1.362 . S
H216 C222 0.930 . S
H217 C225 0.930 . S
H218 C226 0.930 . S
H219 C227 0.930 . S
H220 C230 0.930 . S
H221 C231 0.930 . S
C222 H216 0.930 . S
C222 C223 1.355 . S
C222 C224 1.415 . S
C223 C222 1.355 . S
C223 C225 1.419 . S
C224 C222 1.415 . S
C224 C229 1.425 . S
C224 C231 1.409 . S
C225 H217 0.930 . S
C225 C223 1.419 . S
C225 C226 1.362 . S
C226 H218 0.930 . S
C226 C225 1.362 . S
C226 C229 1.409 . S
C227 H219 0.930 . S
C227 C228 1.355 . S
C227 C229 1.415 . S
C228 C227 1.355 . S
C228 C230 1.419 . S
C229 C224 1.425 . S
C229 C226 1.409 . S
C229 C227 1.415 . S
C230 H220 0.930 . S
C230 C228 1.419 . S
C230 C231 1.362 . S
C231 H221 0.930 . S
C231 C224 1.409 . S
C231 C230 1.362 . S
H232 C238 0.930 . S
H233 C241 0.930 . S
H234 C242 0.930 . S
H235 C243 0.930 . S
H236 C246 0.930 . S
H237 C247 0.930 . S
C238 H232 0.930 . S
C238 C239 1.355 . S
C238 C240 1.415 . S
C239 C238 1.355 . S
C239 C241 1.419 . S
C240 C238 1.415 . S
C240 C245 1.425 . S
C240 C247 1.409 . S
C241 H233 0.930 . S
C241 C239 1.419 . S
C241 C242 1.362 . S
C242 H234 0.930 . S
C242 C241 1.362 . S
C242 C245 1.409 . S
C243 H235 0.930 . S
C243 C244 1.355 . S
C243 C245 1.415 . S
C244 C243 1.355 . S
C244 C246 1.419 . S
C245 C240 1.425 . S
C245 C242 1.409 . S
C245 C243 1.415 . S
C246 H236 0.930 . S
C246 C244 1.419 . S
C246 C247 1.362 . S
C247 H237 0.930 . S
C247 C240 1.409 . S
C247 C246 1.362 . S
H248 C254 0.930 1_545 S
H249 C257 0.930 . S
H250 C258 0.930 . S
H251 C259 0.930 . S
H252 C262 0.930 . S
H253 C263 0.930 . S
C254 H248 0.930 1_565 S
C254 C255 1.355 . S
C254 C256 1.415 . S
C255 C254 1.355 . S
C255 C257 1.419 1_556 S
C256 C254 1.415 . S
C256 C261 1.425 . S
C256 C263 1.409 1_565 S
C257 H249 0.930 . S
C257 C255 1.419 1_554 S
C257 C258 1.362 1_554 S
C258 H250 0.930 . S
C258 C257 1.362 1_556 S
C258 C261 1.409 . S
C259 H251 0.930 . S
C259 C260 1.368 . S
C259 C261 1.415 . S
C260 C259 1.368 . S
C260 C262 1.406 1_565 S
C261 C256 1.425 . S
C261 C258 1.409 . S
C261 C259 1.415 . S
C262 H252 0.930 . S
C262 C260 1.406 1_545 S
C262 C263 1.362 . S
C263 H253 0.930 . S
C263 C256 1.409 1_545 S
C263 C262 1.362 . S
H264 C270 0.930 1_554 S
H265 C273 0.930 . S
H266 C274 0.930 . S
H267 C275 0.930 . S
H268 C278 0.930 . S
H269 C279 0.930 . S
C270 H264 0.930 1_556 S
C270 C271 1.355 1_556 S
C270 C272 1.414 . S
C271 C270 1.355 1_554 S
C271 C273 1.419 1_554 S
C272 C270 1.414 . S
C272 C277 1.425 . S
C272 C279 1.409 . S
C273 H265 0.930 . S
C273 C271 1.419 1_556 S
C273 C274 1.362 . S
C274 H266 0.930 . S
C274 C273 1.362 . S
C274 C277 1.409 . S
C275 H267 0.930 . S
C275 C276 1.355 . S
C275 C277 1.415 . S
C276 C275 1.355 . S
C276 C278 1.419 . S
C277 C272 1.425 . S
C277 C274 1.409 . S
C277 C275 1.415 . S
C278 H268 0.930 . S
C278 C276 1.419 . S
C278 C279 1.362 . S
C279 H269 0.930 . S
C279 C272 1.409 . S
C279 C278 1.362 . S
H280 C286 0.930 . S
H281 C289 0.930 . S
H282 C290 0.930 . S
H283 C291 0.930 . S
H284 C294 0.930 . S
H285 C295 0.930 . S
C286 H280 0.930 . S
C286 C287 1.355 1_556 S
C286 C288 1.415 . S
C287 C286 1.355 1_554 S
C287 C289 1.419 . S
C288 C286 1.415 . S
C288 C293 1.425 . S
C288 C295 1.409 . S
C289 H281 0.930 . S
C289 C287 1.419 . S
C289 C290 1.362 . S
C290 H282 0.930 . S
C290 C289 1.362 . S
C290 C293 1.409 1_554 S
C291 H283 0.930 . S
C291 C292 1.355 . S
C291 C293 1.415 . S
C292 C291 1.355 . S
C292 C294 1.419 . S
C293 C288 1.425 . S
C293 C290 1.409 1_556 S
C293 C291 1.415 . S
C294 H284 0.930 . S
C294 C292 1.419 . S
C294 C295 1.362 . S
C295 H285 0.930 . S
C295 C288 1.409 . S
C295 C294 1.362 . S
H296 C302 0.930 . S
H297 C305 0.930 1_554 S
H298 C306 0.930 . S
H299 C307 0.930 . S
H300 C310 0.930 . S
H301 C311 0.930 . S
C302 H296 0.930 . S
C302 C303 1.355 . S
C302 C304 1.415 . S
C303 C302 1.355 . S
C303 C305 1.419 . S
C304 C302 1.415 . S
C304 C309 1.425 . S
C304 C311 1.409 1_655 S
C305 H297 0.930 1_556 S
C305 C303 1.419 . S
C305 C306 1.362 . S
C306 H298 0.930 . S
C306 C305 1.362 . S
C306 C309 1.409 . S
C307 H299 0.930 . S
C307 C308 1.355 . S
C307 C309 1.415 . S
C308 C307 1.355 . S
C308 C310 1.419 1_655 S
C309 C304 1.425 . S
C309 C306 1.409 . S
C309 C307 1.415 . S
C310 H300 0.930 . S
C310 C308 1.419 1_455 S
C310 C311 1.362 . S
C311 H301 0.930 . S
C311 C304 1.409 1_455 S
C311 C310 1.362 . S
H312 C318 0.930 . S
H313 C321 0.930 . S
H314 C322 0.914 1_655 S
H315 C323 0.930 1_655 S
H316 C326 0.930 . S
H317 C327 0.930 . S
C318 H312 0.930 . S
C318 C319 1.355 . S
C318 C320 1.415 . S
C319 C318 1.355 . S
C319 C321 1.419 . S
C320 C318 1.415 . S
C320 C325 1.425 . S
C320 C327 1.409 . S
C321 H313 0.930 . S
C321 C319 1.419 . S
C321 C322 1.369 . S
C322 H314 0.914 1_455 S
C322 C321 1.369 . S
C322 C325 1.419 . S
C323 H315 0.930 1_455 S
C323 C324 1.355 . S
C323 C325 1.415 . S
C324 C323 1.355 . S
C324 C326 1.419 . S
C325 C320 1.425 . S
C325 C322 1.419 . S
C325 C323 1.415 . S
C326 H316 0.930 . S
C326 C324 1.419 . S
C326 C327 1.362 . S
C327 H317 0.930 . S
C327 C320 1.409 . S
C327 C326 1.362 . S
H328 C334 0.930 . S
H329 C337 0.930 . S
H330 C338 0.930 . S
H331 C339 0.930 . S
H332 C342 0.930 . S
H333 C343 0.930 . S
C334 H328 0.930 . S
C334 C335 1.355 . S
C334 C336 1.415 . S
C335 C334 1.355 . S
C335 C337 1.419 . S
C336 C334 1.415 . S
C336 C341 1.425 . S
C336 C343 1.409 . S
C337 H329 0.930 . S
C337 C335 1.419 . S
C337 C338 1.362 . S
C338 H330 0.930 . S
C338 C337 1.362 . S
C338 C341 1.409 . S
C339 H331 0.930 . S
C339 C340 1.355 . S
C339 C341 1.415 . S
C340 C339 1.355 . S
C340 C342 1.419 . S
C341 C336 1.425 . S
C341 C338 1.409 . S
C341 C339 1.415 . S
C342 H332 0.930 . S
C342 C340 1.419 . S
C342 C343 1.362 . S
C343 H333 0.930 . S
C343 C336 1.409 . S
C343 C342 1.362 . S
H344 C350 0.930 . S
H345 C353 0.930 . S
H346 C354 0.930 . S
H347 C355 0.930 . S
H348 C358 0.930 . S
H349 C359 0.930 . S
C350 H344 0.930 . S
C350 C351 1.355 . S
C350 C352 1.415 . S
C351 C350 1.355 . S
C351 C353 1.419 . S
C352 C350 1.415 . S
C352 C357 1.425 . S
C352 C359 1.409 . S
C353 H345 0.930 . S
C353 C351 1.419 . S
C353 C354 1.362 . S
C354 H346 0.930 . S
C354 C353 1.362 . S
C354 C357 1.409 . S
C355 H347 0.930 . S
C355 C356 1.355 . S
C355 C357 1.415 . S
C356 C355 1.355 . S
C356 C358 1.419 . S
C357 C352 1.425 . S
C357 C354 1.409 . S
C357 C355 1.415 . S
C358 H348 0.930 . S
C358 C356 1.419 . S
C358 C359 1.362 . S
C359 H349 0.930 . S
C359 C352 1.409 . S
C359 C358 1.362 . S
H360 C366 0.930 . S
H361 C369 0.930 . S
H362 C370 0.930 . S
H363 C371 0.930 . S
H364 C374 0.930 . S
H365 C375 0.930 . S
C366 H360 0.930 . S
C366 C367 1.355 . S
C366 C368 1.415 . S
C367 C366 1.355 . S
C367 C369 1.419 . S
C368 C366 1.415 . S
C368 C373 1.425 . S
C368 C375 1.409 . S
C369 H361 0.930 . S
C369 C367 1.419 . S
C369 C370 1.362 . S
C370 H362 0.930 . S
C370 C369 1.362 . S
C370 C373 1.409 . S
C371 H363 0.930 . S
C371 C372 1.355 . S
C371 C373 1.415 . S
C372 C371 1.355 . S
C372 C374 1.419 . S
C373 C368 1.425 . S
C373 C370 1.409 . S
C373 C371 1.415 . S
C374 H364 0.930 . S
C374 C372 1.419 . S
C374 C375 1.362 . S
C375 H365 0.930 . S
C375 C368 1.409 . S
C375 C374 1.362 . S
H376 C382 0.930 1_455 S
H377 C385 0.930 . S
H378 C386 0.930 . S
H379 C387 0.930 . S
H380 C390 0.930 . S
H381 C391 0.930 . S
C382 H376 0.930 1_655 S
C382 C383 1.355 . S
C382 C384 1.415 . S
C383 C382 1.355 . S
C383 C385 1.419 . S
C384 C382 1.415 . S
C384 C389 1.425 . S
C384 C391 1.409 1_655 S
C385 H377 0.930 . S
C385 C383 1.419 . S
C385 C386 1.362 . S
C386 H378 0.930 . S
C386 C385 1.362 . S
C386 C389 1.409 . S
C387 H379 0.930 . S
C387 C388 1.355 . S
C387 C389 1.415 . S
C388 C387 1.355 . S
C388 C390 1.419 1_655 S
C389 C384 1.425 . S
C389 C386 1.409 . S
C389 C387 1.415 . S
C390 H380 0.930 . S
C390 C388 1.419 1_455 S
C390 C391 1.362 . S
C391 H381 0.930 . S
C391 C384 1.409 1_455 S
C391 C390 1.362 . S
H392 C398 0.930 . S
H393 C401 0.930 . S
H394 C402 0.930 . S
H395 C403 0.930 . S
H396 C406 0.930 1_545 S
H397 C407 0.930 . S
C398 H392 0.930 . S
C398 C399 1.355 . S
C398 C400 1.415 . S
C399 C398 1.355 . S
C399 C401 1.419 1_556 S
C400 C398 1.415 . S
C400 C405 1.425 . S
C400 C407 1.409 . S
C401 H393 0.930 . S
C401 C399 1.419 1_554 S
C401 C402 1.362 . S
C402 H394 0.930 . S
C402 C401 1.362 . S
C402 C405 1.409 1_554 S
C403 H395 0.930 . S
C403 C404 1.355 . S
C403 C405 1.415 . S
C404 C403 1.355 . S
C404 C406 1.419 . S
C405 C400 1.425 . S
C405 C402 1.409 1_556 S
C405 C403 1.415 . S
C406 H396 0.930 1_565 S
C406 C404 1.419 . S
C406 C407 1.362 . S
C407 H397 0.930 . S
C407 C400 1.409 . S
C407 C406 1.362 . S
H408 C414 0.930 . S
H409 C417 0.930 . S
H410 C418 0.930 . S
H411 C419 0.930 . S
H412 C422 0.930 . S
H413 C423 0.930 . S
C414 H408 0.930 . S
C414 C415 1.355 . S
C414 C416 1.415 . S
C415 C414 1.355 . S
C415 C417 1.419 . S
C416 C414 1.415 . S
C416 C421 1.425 . S
C416 C423 1.409 . S
C417 H409 0.930 . S
C417 C415 1.419 . S
C417 C418 1.362 . S
C418 H410 0.930 . S
C418 C417 1.362 . S
C418 C421 1.409 . S
C419 H411 0.930 . S
C419 C420 1.355 . S
C419 C421 1.415 . S
C420 C419 1.355 . S
C420 C422 1.419 . S
C421 C416 1.425 . S
C421 C418 1.409 . S
C421 C419 1.415 . S
C422 H412 0.930 . S
C422 C420 1.419 . S
C422 C423 1.362 . S
C423 H413 0.930 . S
C423 C416 1.409 . S
C423 C422 1.362 . S
H424 C430 0.930 1_554 S
H425 C433 0.930 . S
H426 C434 0.930 . S
H427 C435 0.930 . S
H428 C438 0.930 . S
H429 C439 0.930 . S
C430 H424 0.930 1_556 S
C430 C431 1.355 . S
C430 C432 1.415 . S
C431 C430 1.355 . S
C431 C433 1.419 . S
C432 C430 1.415 . S
C432 C437 1.425 . S
C432 C439 1.409 . S
C433 H425 0.930 . S
C433 C431 1.419 . S
C433 C434 1.362 . S
C434 H426 0.930 . S
C434 C433 1.362 . S
C434 C437 1.409 . S
C435 H427 0.930 . S
C435 C436 1.355 . S
C435 C437 1.415 . S
C436 C435 1.355 . S
C436 C438 1.419 . S
C437 C432 1.425 . S
C437 C434 1.409 . S
C437 C435 1.415 . S
C438 H428 0.930 . S
C438 C436 1.419 . S
C438 C439 1.362 . S
C439 H429 0.930 . S
C439 C432 1.409 . S
C439 C438 1.362 . S
H440 C446 0.930 . S
H441 C449 0.930 . S
H442 C450 0.930 . S
H443 C451 0.930 . S
H444 C454 0.930 1_656 S
H445 C455 0.923 1_655 S
C446 H440 0.930 . S
C446 C447 1.355 . S
C446 C448 1.415 . S
C447 C446 1.355 . S
C447 C449 1.419 . S
C448 C446 1.415 . S
C448 C453 1.425 . S
C448 C455 1.416 . S
C449 H441 0.930 . S
C449 C447 1.419 . S
C449 C450 1.362 . S
C450 H442 0.930 . S
C450 C449 1.362 . S
C450 C453 1.409 . S
C451 H443 0.930 . S
C451 C452 1.355 1_554 S
C451 C453 1.415 . S
C452 C451 1.355 1_556 S
C452 C454 1.419 1_556 S
C453 C448 1.425 . S
C453 C450 1.409 . S
C453 C451 1.415 . S
C454 H444 0.930 1_454 S
C454 C452 1.419 1_554 S
C454 C455 1.362 . S
C455 H445 0.923 1_455 S
C455 C448 1.416 . S
C455 C454 1.362 . S
H456 C462 0.930 . S
H457 C465 0.930 . S
H458 C466 0.930 . S
H459 C467 0.930 . S
H460 C470 0.930 1_565 S
H461 C471 0.930 1_565 S
C462 H456 0.930 . S
C462 C463 1.355 . S
C462 C464 1.415 . S
C463 C462 1.355 . S
C463 C465 1.419 . S
C464 C462 1.415 . S
C464 C469 1.425 . S
C464 C471 1.409 1_554 S
C465 H457 0.930 . S
C465 C463 1.419 . S
C465 C466 1.362 . S
C466 H458 0.930 . S
C466 C465 1.362 . S
C466 C469 1.409 . S
C467 H459 0.930 . S
C467 C468 1.355 1_554 S
C467 C469 1.415 . S
C468 C467 1.355 1_556 S
C468 C470 1.419 . S
C469 C464 1.425 . S
C469 C466 1.409 . S
C469 C467 1.415 . S
C470 H460 0.930 1_545 S
C470 C468 1.419 . S
C470 C471 1.362 . S
C471 H461 0.930 1_545 S
C471 C464 1.409 1_556 S
C471 C470 1.362 . S
H472 C478 0.930 . S
H473 C481 0.930 . S
H474 C482 0.930 . S
H475 C483 0.930 . S
H476 C486 0.930 1_556 S
H477 C487 0.930 . S
C478 H472 0.930 . S
C478 C479 1.355 . S
C478 C480 1.415 . S
C479 C478 1.355 . S
C479 C481 1.419 . S
C480 C478 1.415 . S
C480 C485 1.425 . S
C480 C487 1.409 . S
C481 H473 0.930 . S
C481 C479 1.419 . S
C481 C482 1.362 . S
C482 H474 0.930 . S
C482 C481 1.362 . S
C482 C485 1.409 . S
C483 H475 0.930 . S
C483 C484 1.355 . S
C483 C485 1.415 1_556 S
C484 C483 1.355 . S
C484 C486 1.419 1_556 S
C485 C480 1.425 . S
C485 C482 1.409 . S
C485 C483 1.415 1_554 S
C486 H476 0.930 1_554 S
C486 C484 1.419 1_554 S
C486 C487 1.362 . S
C487 H477 0.930 . S
C487 C480 1.409 . S
C487 C486 1.362 . S
H488 C494 0.930 . S
H489 C497 0.930 . S
H490 C498 0.930 . S
H491 C499 0.930 . S
H492 C502 0.930 . S
H493 C503 0.930 . S
C494 H488 0.930 . S
C494 C495 1.355 . S
C494 C496 1.415 . S
C495 C494 1.355 . S
C495 C497 1.419 . S
C496 C494 1.415 . S
C496 C501 1.425 . S
C496 C503 1.409 1_554 S
C497 H489 0.930 . S
C497 C495 1.419 . S
C497 C498 1.362 . S
C498 H490 0.930 . S
C498 C497 1.362 . S
C498 C501 1.409 . S
C499 H491 0.930 . S
C499 C500 1.355 1_554 S
C499 C501 1.415 . S
C500 C499 1.355 1_556 S
C500 C502 1.419 . S
C501 C496 1.425 . S
C501 C498 1.409 . S
C501 C499 1.415 . S
C502 H492 0.930 . S
C502 C500 1.419 . S
C502 C503 1.362 . S
C503 H493 0.930 . S
C503 C496 1.409 1_556 S
C503 C502 1.362 . S
H504 C510 0.930 . S
H505 C513 0.930 1_455 S
H506 C514 0.930 . S
H507 C515 0.930 1_455 S
H508 C518 0.930 . S
H509 C519 0.930 . S
C510 H504 0.930 . S
C510 C511 1.355 . S
C510 C512 1.415 . S
C511 C510 1.355 . S
C511 C513 1.419 . S
C512 C510 1.415 . S
C512 C517 1.425 . S
C512 C519 1.409 . S
C513 H505 0.930 1_655 S
C513 C511 1.419 . S
C513 C514 1.362 1_655 S
C514 H506 0.930 . S
C514 C513 1.362 1_455 S
C514 C517 1.409 1_455 S
C515 H507 0.930 1_655 S
C515 C516 1.355 . S
C515 C517 1.415 . S
C516 C515 1.355 . S
C516 C518 1.419 . S
C517 C512 1.425 . S
C517 C514 1.409 1_655 S
C517 C515 1.415 . S
C518 H508 0.930 . S
C518 C516 1.419 . S
C518 C519 1.362 . S
C519 H509 0.930 . S
C519 C512 1.409 . S
C519 C518 1.362 . S
H520 C526 0.930 . S
H521 C529 0.930 . S
H522 C530 0.930 . S
H523 C531 0.930 . S
H524 C534 0.930 1_545 S
H525 C535 0.930 . S
C526 H520 0.930 . S
C526 C527 1.355 . S
C526 C528 1.415 . S
C527 C526 1.355 . S
C527 C529 1.419 . S
C528 C526 1.415 . S
C528 C533 1.425 . S
C528 C535 1.409 . S
C529 H521 0.930 . S
C529 C527 1.419 . S
C529 C530 1.362 . S
C530 H522 0.930 . S
C530 C529 1.362 . S
C530 C533 1.409 . S
C531 H523 0.930 . S
C531 C532 1.355 . S
C531 C533 1.415 . S
C532 C531 1.355 . S
C532 C534 1.419 . S
C533 C528 1.425 . S
C533 C530 1.409 . S
C533 C531 1.415 . S
C534 H524 0.930 1_565 S
C534 C532 1.419 . S
C534 C535 1.362 . S
C535 H525 0.930 . S
C535 C528 1.409 . S
C535 C534 1.362 . S
H536 C542 0.930 . S
H537 C545 0.930 . S
H538 C546 0.930 . S
H539 C547 0.930 . S
H540 C550 0.930 . S
H541 C551 0.930 . S
C542 H536 0.930 . S
C542 C543 1.355 . S
C542 C544 1.415 . S
C543 C542 1.355 . S
C543 C545 1.419 . S
C544 C542 1.415 . S
C544 C549 1.425 . S
C544 C551 1.409 . S
C545 H537 0.930 . S
C545 C543 1.419 . S
C545 C546 1.362 . S
C546 H538 0.930 . S
C546 C545 1.362 . S
C546 C549 1.409 . S
C547 H539 0.930 . S
C547 C548 1.355 . S
C547 C549 1.415 . S
C548 C547 1.355 . S
C548 C550 1.419 . S
C549 C544 1.425 . S
C549 C546 1.409 . S
C549 C547 1.415 . S
C550 H540 0.930 . S
C550 C548 1.419 . S
C550 C551 1.362 . S
C551 H541 0.930 . S
C551 C544 1.409 . S
C551 C550 1.362 . S
H552 C558 0.930 . S
H553 C561 0.930 . S
H554 C562 0.930 . S
H555 C563 0.930 . S
H556 C566 0.930 . S
H557 C567 0.930 . S
C558 H552 0.930 . S
C558 C559 1.355 . S
C558 C560 1.415 . S
C559 C558 1.355 . S
C559 C561 1.419 . S
C560 C558 1.415 . S
C560 C565 1.425 . S
C560 C567 1.409 . S
C561 H553 0.930 . S
C561 C559 1.419 . S
C561 C562 1.362 . S
C562 H554 0.930 . S
C562 C561 1.362 . S
C562 C565 1.409 . S
C563 H555 0.930 . S
C563 C564 1.355 . S
C563 C565 1.415 . S
C564 C563 1.355 . S
C564 C566 1.419 . S
C565 C560 1.425 . S
C565 C562 1.409 . S
C565 C563 1.415 . S
C566 H556 0.930 . S
C566 C564 1.419 . S
C566 C567 1.362 . S
C567 H557 0.930 . S
C567 C560 1.409 . S
C567 C566 1.362 . S
C191 N80 1.587 . S
C196 C105 1.576 . S
C212 C140 1.545 . S
C207 N93 1.532 . S
C228 C145 1.387 . S
C223 N54 1.372 . S
C244 C165 1.484 . S
C239 N67 1.477 . S
C260 C113 1.575 1_565 S
C255 N28 1.593 1_556 S
C271 N41 1.518 . S
C276 C130 1.565 . S
C287 N2 1.384 . S
C292 C153 1.370 . S
C303 N15 1.499 . S
C308 C173 1.481 1_655 S
C324 C123 1.297 . S
C319 N70 1.273 . S
C340 C132 1.086 . S
C335 N83 1.056 . S
C356 C163 1.304 . S
C351 N96 1.266 . S
C367 N57 1.047 . S
C372 C183 1.032 . S
C383 N18 1.313 . S
C388 C112 1.278 1_655 S
C404 C143 1.071 1_565 S
C399 N31 1.071 1_556 S
C420 C152 1.307 . S
C415 N44 1.333 1_556 S
C431 N5 1.070 1_556 S
C436 C172 1.001 . S
C447 N66 1.476 . S
C452 C110 1.460 . S
C463 N79 1.493 . S
C468 C133 1.520 . S
C484 C150 1.521 . S
C479 N92 1.541 . S
C500 C170 1.571 . S
C495 N53 1.552 . S
C511 N14 1.472 . S
C516 C120 1.454 . S
C532 C125 1.502 1_565 S
C527 N27 1.521 . S
C548 C160 1.549 . S
C543 N40 1.524 . S
C559 N1 1.557 . S
C564 C180 1.569 . S
