# Generated by pormake.
# Topology eea, (3,6)-cn, num edge types: 1
# Building blocks:
#     Node 0, Type 0, BuildingBlock: ESEHIV_clean_linker_0, # of connection points: 3
#     Node 1, Type 0, BuildingBlock: ESEHIV_clean_linker_0, # of connection points: 3
#     Node 2, Type 0, BuildingBlock: ESEHIV_clean_linker_0, # of connection points: 3
#     Node 3, Type 0, BuildingBlock: ESEHIV_clean_linker_0, # of connection points: 3
#     Node 4, Type 0, BuildingBlock: ESEHIV_clean_linker_0, # of connection points: 3
#     Node 5, Type 0, BuildingBlock: ESEHIV_clean_linker_0, # of connection points: 3
#     Node 6, Type 0, BuildingBlock: ESEHIV_clean_linker_0, # of connection points: 3
#     Node 7, Type 0, BuildingBlock: ESEHIV_clean_linker_0, # of connection points: 3
#     Node 8, Type 0, BuildingBlock: ESEHIV_clean_linker_0, # of connection points: 3
#     Node 9, Type 0, BuildingBlock: ESEHIV_clean_linker_0, # of connection points: 3
#     Node 10, Type 0, BuildingBlock: ESEHIV_clean_linker_0, # of connection points: 3
#     Node 11, Type 0, BuildingBlock: ESEHIV_clean_linker_0, # of connection points: 3
#     Node 12, Type 0, BuildingBlock: ESEHIV_clean_linker_0, # of connection points: 3
#     Node 13, Type 0, BuildingBlock: ESEHIV_clean_linker_0, # of connection points: 3
#     Node 14, Type 0, BuildingBlock: ESEHIV_clean_linker_0, # of connection points: 3
#     Node 15, Type 0, BuildingBlock: ESEHIV_clean_linker_0, # of connection points: 3
#     Node 16, Type 0, BuildingBlock: ESEHIV_clean_linker_0, # of connection points: 3
#     Node 17, Type 0, BuildingBlock: ESEHIV_clean_linker_0, # of connection points: 3
#     Node 18, Type 1, BuildingBlock: KUMBOL_clean_sbu_0, # of connection points: 6
#     Node 19, Type 1, BuildingBlock: KUMBOL_clean_sbu_0, # of connection points: 6
#     Node 20, Type 1, BuildingBlock: KUMBOL_clean_sbu_0, # of connection points: 6
#     Node 21, Type 1, BuildingBlock: KUMBOL_clean_sbu_0, # of connection points: 6
#     Node 22, Type 1, BuildingBlock: KUMBOL_clean_sbu_0, # of connection points: 6
#     Node 23, Type 1, BuildingBlock: KUMBOL_clean_sbu_0, # of connection points: 6
#     Node 24, Type 1, BuildingBlock: KUMBOL_clean_sbu_0, # of connection points: 6
#     Node 25, Type 1, BuildingBlock: KUMBOL_clean_sbu_0, # of connection points: 6
#     Node 26, Type 1, BuildingBlock: KUMBOL_clean_sbu_0, # of connection points: 6
#     Edge 27, Type (0, 1), BuildingBlock: ZUJKAS_clean_linker_0, # of connection points: 2
#     Edge 28, Type (0, 1), BuildingBlock: ZUJKAS_clean_linker_0, # of connection points: 2
#     Edge 29, Type (0, 1), BuildingBlock: ZUJKAS_clean_linker_0, # of connection points: 2
#     Edge 30, Type (0, 1), BuildingBlock: ZUJKAS_clean_linker_0, # of connection points: 2
#     Edge 31, Type (0, 1), BuildingBlock: ZUJKAS_clean_linker_0, # of connection points: 2
#     Edge 32, Type (0, 1), BuildingBlock: ZUJKAS_clean_linker_0, # of connection points: 2
#     Edge 33, Type (0, 1), BuildingBlock: ZUJKAS_clean_linker_0, # of connection points: 2
#     Edge 34, Type (0, 1), BuildingBlock: ZUJKAS_clean_linker_0, # of connection points: 2
#     Edge 35, Type (0, 1), BuildingBlock: ZUJKAS_clean_linker_0, # of connection points: 2
#     Edge 36, Type (0, 1), BuildingBlock: ZUJKAS_clean_linker_0, # of connection points: 2
#     Edge 37, Type (0, 1), BuildingBlock: ZUJKAS_clean_linker_0, # of connection points: 2
#     Edge 38, Type (0, 1), BuildingBlock: ZUJKAS_clean_linker_0, # of connection points: 2
#     Edge 39, Type (0, 1), BuildingBlock: ZUJKAS_clean_linker_0, # of connection points: 2
#     Edge 40, Type (0, 1), BuildingBlock: ZUJKAS_clean_linker_0, # of connection points: 2
#     Edge 41, Type (0, 1), BuildingBlock: ZUJKAS_clean_linker_0, # of connection points: 2
#     Edge 42, Type (0, 1), BuildingBlock: ZUJKAS_clean_linker_0, # of connection points: 2
#     Edge 43, Type (0, 1), BuildingBlock: ZUJKAS_clean_linker_0, # of connection points: 2
#     Edge 44, Type (0, 1), BuildingBlock: ZUJKAS_clean_linker_0, # of connection points: 2
#     Edge 45, Type (0, 1), BuildingBlock: ZUJKAS_clean_linker_0, # of connection points: 2
#     Edge 46, Type (0, 1), BuildingBlock: ZUJKAS_clean_linker_0, # of connection points: 2
#     Edge 47, Type (0, 1), BuildingBlock: ZUJKAS_clean_linker_0, # of connection points: 2
#     Edge 48, Type (0, 1), BuildingBlock: ZUJKAS_clean_linker_0, # of connection points: 2
#     Edge 49, Type (0, 1), BuildingBlock: ZUJKAS_clean_linker_0, # of connection points: 2
#     Edge 50, Type (0, 1), BuildingBlock: ZUJKAS_clean_linker_0, # of connection points: 2
#     Edge 51, Type (0, 1), BuildingBlock: ZUJKAS_clean_linker_0, # of connection points: 2
#     Edge 52, Type (0, 1), BuildingBlock: ZUJKAS_clean_linker_0, # of connection points: 2
#     Edge 53, Type (0, 1), BuildingBlock: ZUJKAS_clean_linker_0, # of connection points: 2
#     Edge 54, Type (0, 1), BuildingBlock: ZUJKAS_clean_linker_0, # of connection points: 2
#     Edge 55, Type (0, 1), BuildingBlock: ZUJKAS_clean_linker_0, # of connection points: 2
#     Edge 56, Type (0, 1), BuildingBlock: ZUJKAS_clean_linker_0, # of connection points: 2
#     Edge 57, Type (0, 1), BuildingBlock: ZUJKAS_clean_linker_0, # of connection points: 2
#     Edge 58, Type (0, 1), BuildingBlock: ZUJKAS_clean_linker_0, # of connection points: 2
#     Edge 59, Type (0, 1), BuildingBlock: ZUJKAS_clean_linker_0, # of connection points: 2
#     Edge 60, Type (0, 1), BuildingBlock: ZUJKAS_clean_linker_0, # of connection points: 2
#     Edge 61, Type (0, 1), BuildingBlock: ZUJKAS_clean_linker_0, # of connection points: 2
#     Edge 62, Type (0, 1), BuildingBlock: ZUJKAS_clean_linker_0, # of connection points: 2
#     Edge 63, Type (0, 1), BuildingBlock: ZUJKAS_clean_linker_0, # of connection points: 2
#     Edge 64, Type (0, 1), BuildingBlock: ZUJKAS_clean_linker_0, # of connection points: 2
#     Edge 65, Type (0, 1), BuildingBlock: ZUJKAS_clean_linker_0, # of connection points: 2
#     Edge 66, Type (0, 1), BuildingBlock: ZUJKAS_clean_linker_0, # of connection points: 2
#     Edge 67, Type (0, 1), BuildingBlock: ZUJKAS_clean_linker_0, # of connection points: 2
#     Edge 68, Type (0, 1), BuildingBlock: ZUJKAS_clean_linker_0, # of connection points: 2
#     Edge 69, Type (0, 1), BuildingBlock: ZUJKAS_clean_linker_0, # of connection points: 2
#     Edge 70, Type (0, 1), BuildingBlock: ZUJKAS_clean_linker_0, # of connection points: 2
#     Edge 71, Type (0, 1), BuildingBlock: ZUJKAS_clean_linker_0, # of connection points: 2
#     Edge 72, Type (0, 1), BuildingBlock: ZUJKAS_clean_linker_0, # of connection points: 2
#     Edge 73, Type (0, 1), BuildingBlock: ZUJKAS_clean_linker_0, # of connection points: 2
#     Edge 74, Type (0, 1), BuildingBlock: ZUJKAS_clean_linker_0, # of connection points: 2
#     Edge 75, Type (0, 1), BuildingBlock: ZUJKAS_clean_linker_0, # of connection points: 2
#     Edge 76, Type (0, 1), BuildingBlock: ZUJKAS_clean_linker_0, # of connection points: 2
#     Edge 77, Type (0, 1), BuildingBlock: ZUJKAS_clean_linker_0, # of connection points: 2
#     Edge 78, Type (0, 1), BuildingBlock: ZUJKAS_clean_linker_0, # of connection points: 2
#     Edge 79, Type (0, 1), BuildingBlock: ZUJKAS_clean_linker_0, # of connection points: 2
#     Edge 80, Type (0, 1), BuildingBlock: ZUJKAS_clean_linker_0, # of connection points: 2
# Relax obj value: 0.009
# Max RMSD: 0.094
# Mean RMSD: 0.062
data_MOF--net-eea--node1-KUMBOL_clean_sbu_0--node2-ESEHIV_clean_linker_0--edge1-ZUJKAS_clean_linker_0
_symmetry_space_group_name_H-M    P1
_symmetry_Int_Tables_number       1
_symmetry_cell_setting            triclinic
loop_
_symmetry_equiv_pos_as_xyz
'x, y, z'
_cell_length_a     63.226736
_cell_length_b     64.602208
_cell_length_c     89.47892
_cell_angle_alpha  90.070188
_cell_angle_beta   90.11816
_cell_angle_gamma 119.98572
loop_
_atom_site_label
_atom_site_type_symbol
_atom_site_fract_x
_atom_site_fract_y
_atom_site_fract_z
_atom_type_partial_charge
H0 H 0.25272 0.15861 0.44234 0.0
H1 H 0.25454 0.09294 0.4424 0.0
H2 H 0.22312 0.11008 0.40515 0.0
C3 C 0.24865 0.14199 0.43695 0.0
C4 C 0.23712 0.13621 0.42289 0.0
C5 C 0.25504 0.12649 0.44408 0.0
C6 C 0.24969 0.10499 0.43698 0.0
C7 C 0.23818 0.09891 0.42293 0.0
C8 C 0.23197 0.11463 0.41599 0.0
H9 H 0.85645 0.09318 0.4415 0.0
H10 H 0.92384 0.16028 0.4398 0.0
H11 H 0.90029 0.11328 0.4017 0.0
C12 C 0.87264 0.10583 0.43547 0.0
C13 C 0.87631 0.10053 0.42079 0.0
C14 C 0.88961 0.12737 0.44242 0.0
C15 C 0.91062 0.14365 0.43453 0.0
C16 C 0.91462 0.13866 0.41983 0.0
C17 C 0.89733 0.11712 0.41305 0.0
H18 H 0.8517 0.76699 0.4393 0.0
H19 H 0.91978 0.7672 0.43868 0.0
H20 H 0.89585 0.7884 0.39954 0.0
C21 C 0.86798 0.77015 0.43339 0.0
C22 C 0.87152 0.77822 0.41848 0.0
C23 C 0.88514 0.7659 0.44075 0.0
C24 C 0.9064 0.77031 0.43309 0.0
C25 C 0.91052 0.7786 0.41824 0.0
C26 C 0.89288 0.7823 0.41102 0.0
H27 H 0.08614 0.23434 0.57414 0.0
H28 H 0.15333 0.23272 0.57396 0.0
H29 H 0.1069 0.20857 0.61263 0.0
C30 C 0.09889 0.23028 0.57968 0.0
C31 C 0.09381 0.22083 0.59427 0.0
C32 C 0.12034 0.23468 0.57223 0.0
C33 C 0.13676 0.22938 0.57958 0.0
C34 C 0.13215 0.21999 0.59416 0.0
C35 C 0.11058 0.21574 0.60139 0.0
H36 H 0.75447 0.91066 0.57098 0.0
H37 H 0.75077 0.8424 0.57189 0.0
H38 H 0.78267 0.89113 0.60883 0.0
C39 C 0.75806 0.8979 0.57664 0.0
C40 C 0.76926 0.9035 0.59078 0.0
C41 C 0.75135 0.87591 0.56975 0.0
C42 C 0.75601 0.85942 0.57714 0.0
C43 C 0.76741 0.86479 0.59124 0.0
C44 C 0.77394 0.88687 0.59795 0.0
H45 H 0.08275 0.84147 0.57416 0.0
H46 H 0.14845 0.90982 0.57186 0.0
H47 H 0.10517 0.88926 0.61192 0.0
C48 C 0.09545 0.85843 0.57932 0.0
C49 C 0.09126 0.86348 0.59396 0.0
C50 C 0.11605 0.87508 0.5713 0.0
C51 C 0.13256 0.89695 0.57804 0.0
C52 C 0.12892 0.9022 0.59274 0.0
C53 C 0.10815 0.88537 0.60059 0.0
H54 H 0.91989 0.492 0.7753 0.0
H55 H 0.92074 0.42579 0.77482 0.0
H56 H 0.88729 0.44291 0.73867 0.0
C57 C 0.91524 0.47518 0.76995 0.0
C58 C 0.90278 0.46924 0.75621 0.0
C59 C 0.9217 0.45954 0.77682 0.0
C60 C 0.91576 0.43791 0.76964 0.0
C61 C 0.90347 0.43179 0.75584 0.0
C62 C 0.89691 0.44752 0.74927 0.0
H63 H 0.52176 0.42545 0.77423 0.0
H64 H 0.58823 0.49358 0.77312 0.0
H65 H 0.56559 0.44743 0.73454 0.0
C66 C 0.53785 0.43865 0.76835 0.0
C67 C 0.54168 0.43406 0.75357 0.0
C68 C 0.55437 0.46017 0.77552 0.0
C69 C 0.57545 0.47683 0.76779 0.0
C70 C 0.57961 0.47244 0.75296 0.0
C71 C 0.56245 0.45111 0.7459 0.0
H72 H 0.51745 0.09849 0.77213 0.0
H73 H 0.58549 0.09849 0.77143 0.0
H74 H 0.56314 0.12318 0.73314 0.0
C75 C 0.53403 0.10215 0.76638 0.0
C76 C 0.53826 0.11151 0.75179 0.0
C77 C 0.55092 0.09734 0.77359 0.0
C78 C 0.57223 0.10187 0.76592 0.0
C79 C 0.57698 0.11145 0.75137 0.0
C80 C 0.55993 0.11635 0.74446 0.0
H81 H 0.75394 0.56894 0.90768 0.0
H82 H 0.82215 0.56963 0.90782 0.0
H83 H 0.77337 0.54065 0.94537 0.0
C84 C 0.76683 0.56514 0.91327 0.0
C85 C 0.76129 0.55468 0.92756 0.0
C86 C 0.7885 0.57008 0.90594 0.0
C87 C 0.80497 0.56477 0.91321 0.0
C88 C 0.79988 0.55414 0.92749 0.0
C89 C 0.77777 0.54897 0.93446 0.0
H90 H 0.42332 0.2437 0.90518 0.0
H91 H 0.41697 0.1744 0.9072 0.0
H92 H 0.44836 0.22327 0.94416 0.0
C93 C 0.42602 0.23066 0.91121 0.0
C94 C 0.43638 0.23605 0.92558 0.0
C95 C 0.41898 0.20847 0.90456 0.0
C96 C 0.42252 0.19158 0.91233 0.0
C97 C 0.43336 0.19686 0.92659 0.0
C98 C 0.44012 0.21911 0.93314 0.0
H99 H 0.75021 0.17371 0.90782 0.0
H100 H 0.81741 0.24094 0.90671 0.0
H101 H 0.77097 0.22171 0.94533 0.0
C102 C 0.76314 0.19038 0.91318 0.0
C103 C 0.7582 0.19564 0.92757 0.0
C104 C 0.78423 0.20688 0.90545 0.0
C105 C 0.8007 0.2286 0.91242 0.0
C106 C 0.7962 0.23414 0.92684 0.0
C107 C 0.77476 0.21758 0.93426 0.0
H108 H 0.58457 0.82354 0.10964 0.0
H109 H 0.58452 0.75692 0.11001 0.0
H110 H 0.55588 0.7757 0.07208 0.0
C111 C 0.58033 0.80686 0.10426 0.0
C112 C 0.56896 0.80125 0.09015 0.0
C113 C 0.58636 0.79113 0.11143 0.0
C114 C 0.58066 0.7695 0.10436 0.0
C115 C 0.56944 0.76367 0.09023 0.0
C116 C 0.56378 0.77971 0.0832 0.0
H117 H 0.18765 0.75879 0.1072 0.0
H118 H 0.25432 0.82665 0.10678 0.0
H119 H 0.23425 0.77985 0.06867 0.0
C120 C 0.20397 0.77188 0.10147 0.0
C121 C 0.20893 0.76673 0.08707 0.0
C122 C 0.22016 0.79347 0.1087 0.0
C123 C 0.24173 0.80994 0.10133 0.0
C124 C 0.24712 0.80503 0.08695 0.0
C125 C 0.23059 0.78339 0.07993 0.0
H126 H 0.18579 0.43383 0.10552 0.0
H127 H 0.25374 0.43373 0.10518 0.0
H128 H 0.23121 0.45717 0.06634 0.0
C129 C 0.2023 0.43728 0.09976 0.0
C130 C 0.20634 0.44596 0.08501 0.0
C131 C 0.21926 0.43278 0.10711 0.0
C132 C 0.24066 0.43728 0.09958 0.0
C133 C 0.24523 0.44622 0.08488 0.0
C134 C 0.22792 0.45045 0.07769 0.0
H135 H 0.41897 0.89946 0.24152 0.0
H136 H 0.48635 0.89824 0.24114 0.0
H137 H 0.44118 0.8758 0.28038 0.0
C138 C 0.43193 0.89574 0.2471 0.0
C139 C 0.42743 0.88715 0.26189 0.0
C140 C 0.45308 0.8997 0.23946 0.0
C141 C 0.46976 0.89476 0.2468 0.0
C142 C 0.46579 0.88638 0.26162 0.0
C143 C 0.4446 0.88271 0.26908 0.0
H144 H 0.08798 0.57681 0.23797 0.0
H145 H 0.084 0.5084 0.23943 0.0
H146 H 0.11544 0.55751 0.27623 0.0
C147 C 0.09103 0.56387 0.24384 0.0
C148 C 0.10207 0.5696 0.25802 0.0
C149 C 0.08454 0.54189 0.237 0.0
C150 C 0.08944 0.52561 0.24448 0.0
C151 C 0.10061 0.5311 0.25865 0.0
C152 C 0.10684 0.55314 0.26531 0.0
H153 H 0.4189 0.50695 0.24177 0.0
H154 H 0.48566 0.57459 0.23998 0.0
H155 H 0.43994 0.55583 0.27885 0.0
C156 C 0.43163 0.52394 0.24686 0.0
C157 C 0.42661 0.52965 0.26112 0.0
C158 C 0.45305 0.53995 0.2392 0.0
C159 C 0.46944 0.56189 0.24597 0.0
C160 C 0.46486 0.56786 0.26024 0.0
C161 C 0.44333 0.55165 0.26769 0.0
Gd162 Gd 0.51439 0.01615 0.02463 0.0
Gd163 Gd 0.49173 0.98216 0.98902 0.0
C164 C 0.417 0.91471 0.98481 0.0
C165 C 0.42796 0.88405 0.98074 0.0
C166 C 0.45958 0.92564 0.98367 0.0
C167 C 0.44199 0.9321 0.98563 0.0
C168 C 0.45281 0.90162 0.98091 0.0
C169 C 0.41008 0.89059 0.98268 0.0
C170 C 0.39975 0.92218 0.98573 0.0
C171 C 0.40759 0.94648 0.9871 0.0
N172 N 0.44934 0.95557 0.98758 0.0
C173 C 0.43259 0.96305 0.98782 0.0
H174 H 0.43832 0.98174 0.9889 0.0
C175 C 0.50128 0.93803 0.98016 0.0
N176 N 0.48334 0.9431 0.98373 0.0
C177 C 0.49552 0.91444 0.97747 0.0
C178 C 0.47118 0.8961 0.97801 0.0
H179 H 0.52013 0.95213 0.9798 0.0
H180 H 0.39097 0.87695 0.98218 0.0
H181 H 0.56816 0.0173 0.02434 0.0
H182 H 0.38039 0.9094 0.98501 0.0
H183 H 0.3944 0.95248 0.98761 0.0
H184 H 0.42238 0.86546 0.97876 0.0
H185 H 0.48563 0.04542 0.03488 0.0
H186 H 0.62558 0.08998 0.02777 0.0
H187 H 0.61201 0.04699 0.02517 0.0
H188 H 0.58277 0.13285 0.03553 0.0
H189 H 0.50983 0.91042 0.97498 0.0
H190 H 0.46674 0.87786 0.97585 0.0
H191 H 0.61449 0.12197 0.03139 0.0
H192 H 0.49552 0.08682 0.04027 0.0
N193 N 0.55674 0.04315 0.02594 0.0
C194 C 0.60625 0.077 0.02735 0.0
C195 C 0.59866 0.05275 0.02594 0.0
C196 C 0.58878 0.08415 0.02866 0.0
C197 C 0.56385 0.06653 0.02802 0.0
C198 C 0.5737 0.03595 0.02548 0.0
N199 N 0.52243 0.05498 0.03037 0.0
C200 C 0.5461 0.07266 0.0303 0.0
C201 C 0.50992 0.08311 0.03741 0.0
C202 C 0.53412 0.10169 0.0367 0.0
C203 C 0.50439 0.05968 0.03439 0.0
C204 C 0.55263 0.09655 0.03334 0.0
H205 H 0.53837 0.11981 0.0391 0.0
O206 O 0.49589 0.00878 0.04607 0.0
O207 O 0.48412 0.98532 0.01283 0.0
O208 O 0.48119 0.01085 0.9918 0.0
O209 O 0.50922 0.03972 0.00826 0.0
O210 O 0.47427 0.00364 0.02745 0.0
O211 O 0.52809 0.00548 0.0437 0.0
O212 O 0.51003 0.98852 0.96757 0.0
O213 O 0.52188 0.01302 1.00078 0.0
O214 O 0.52524 0.9877 0.02164 0.0
O215 O 0.49635 0.95863 0.0057 0.0
O216 O 0.53192 0.99486 0.98616 0.0
O217 O 0.47855 0.99309 0.96982 0.0
C218 C 0.46604 0.9856 0.01851 0.0
C219 C 0.57738 0.11435 0.03335 0.0
C220 C 0.59544 0.10816 0.031 0.0
C221 C 0.51162 0.0046 0.05284 0.0
C222 C 0.52031 0.01614 0.06753 0.0
C223 C 0.53693 0.04071 0.06851 0.0
C224 C 0.51146 0.00261 0.08072 0.0
C225 C 0.51891 0.01368 0.09486 0.0
C226 C 0.5445 0.05174 0.08244 0.0
C227 C 0.53555 0.0384 0.09552 0.0
C228 C 0.49269 0.03282 0.99745 0.0
C229 C 0.54003 0.01297 0.99504 0.0
C230 C 0.49478 0.99332 0.96074 0.0
C231 C 0.48593 0.98196 0.94602 0.0
C232 C 0.46917 0.95743 0.94495 0.0
C233 C 0.49475 0.99564 0.93287 0.0
C234 C 0.48708 0.9848 0.91868 0.0
C235 C 0.46138 0.94662 0.93097 0.0
C236 C 0.47027 0.96012 0.91793 0.0
C237 C 0.51319 0.96556 0.01631 0.0
H238 H 0.54397 0.05137 0.05852 0.0
H239 H 0.49845 0.98363 0.07997 0.0
H240 H 0.55736 0.07073 0.08311 0.0
H241 H 0.54189 0.04741 0.10618 0.0
H242 H 0.46218 0.94665 0.9549 0.0
H243 H 0.50787 0.01457 0.9337 0.0
H244 H 0.44841 0.92767 0.93023 0.0
H245 H 0.46374 0.95127 0.90724 0.0
Gd246 Gd 0.98421 0.49587 0.02269 0.0
Gd247 Gd 0.02392 0.5058 0.98994 0.0
C248 C 0.09241 0.49915 0.99268 0.0
C249 C 0.1247 0.54027 0.98915 0.0
C250 C 0.08214 0.53015 0.98865 0.0
C251 C 0.07488 0.50648 0.99137 0.0
C252 C 0.1071 0.54725 0.98717 0.0
C253 C 0.11736 0.51626 0.99191 0.0
C254 C 0.0843 0.47478 0.99434 0.0
C255 C 0.05929 0.45838 0.99419 0.0
N256 N 0.05063 0.49043 0.99195 0.0
C257 C 0.04262 0.46652 0.99278 0.0
H258 H 0.02337 0.45362 0.99275 0.0
C259 C 0.07076 0.55871 0.98212 0.0
N260 N 0.06467 0.53621 0.98666 0.0
C261 C 0.09528 0.57636 0.98061 0.0
C262 C 0.11356 0.57069 0.98334 0.0
H263 H 0.05667 0.56319 0.98009 0.0
H264 H 0.1311 0.51101 0.99307 0.0
H265 H 0.9842 0.54771 0.01934 0.0
H266 H 0.09716 0.46842 0.99539 0.0
H267 H 0.05283 0.43945 0.99521 0.0
H268 H 0.14399 0.55319 0.98821 0.0
H269 H 0.95219 0.43869 0.03307 0.0
H270 H 0.9102 0.53252 0.0185 0.0
H271 H 0.95449 0.56161 0.01754 0.0
H272 H 0.86422 0.44804 0.02698 0.0
H273 H 0.10007 0.59431 0.97737 0.0
H274 H 0.13254 0.58436 0.9821 0.0
H275 H 0.8766 0.49 0.02176 0.0
H276 H 0.90909 0.40759 0.03683 0.0
N277 N 0.95717 0.5109 0.02094 0.0
C278 C 0.9232 0.52627 0.01928 0.0
C279 C 0.94817 0.54274 0.01876 0.0
C280 C 0.91532 0.502 0.0212 0.0
C281 C 0.93299 0.49481 0.02212 0.0
C282 C 0.96499 0.53475 0.0198 0.0
N283 N 0.94368 0.46539 0.02664 0.0
C284 C 0.92602 0.47127 0.02503 0.0
C285 C 0.91359 0.4254 0.03345 0.0
C286 C 0.89508 0.43089 0.03114 0.0
C287 C 0.93796 0.44305 0.03133 0.0
C288 C 0.90119 0.45415 0.02712 0.0
H289 H 0.87622 0.41721 0.03284 0.0
O290 O 0.98739 0.48542 0.04525 0.0
O291 O 0.01722 0.49643 0.0139 0.0
O292 O 0.99357 0.46691 0.99208 0.0
O293 O 0.96227 0.46692 0.00593 0.0
O294 O 0.99645 0.46933 0.02855 0.0
O295 O 0.99239 0.52066 0.04109 0.0
O296 O 0.02186 0.51695 0.96737 0.0
O297 O 0.99081 0.50508 0.99867 0.0
O298 O 0.01415 0.53484 0.02016 0.0
O299 O 0.04566 0.53441 0.00692 0.0
O300 O 0.01137 0.53208 0.9839 0.0
O301 O 0.01637 0.48145 0.97135 0.0
C302 C 0.01613 0.47887 0.02071 0.0
C303 C 0.88341 0.46097 0.02555 0.0
C304 C 0.89046 0.48486 0.02259 0.0
C305 C 0.99077 0.50531 0.05113 0.0
C306 C 0.97625 0.50289 0.06447 0.0
C307 C 0.95206 0.49796 0.06328 0.0
C308 C 0.98671 0.50514 0.07863 0.0
C309 C 0.97313 0.50243 0.09167 0.0
C310 C 0.93844 0.49522 0.07613 0.0
C311 C 0.94884 0.4974 0.09025 0.0
C312 C 0.97036 0.4569 0.99629 0.0
C313 C 0.99164 0.52242 0.99171 0.0
C314 C 0.0185 0.49712 0.96139 0.0
C315 C 0.0334 0.49972 0.94821 0.0
C316 C 0.05766 0.50497 0.94965 0.0
C317 C 0.02322 0.49736 0.93394 0.0
C318 C 0.03717 0.50035 0.92104 0.0
C319 C 0.07164 0.50794 0.93693 0.0
C320 C 0.06153 0.50569 0.9227 0.0
C321 C 0.03746 0.54466 0.01627 0.0
H322 H 0.94372 0.49622 0.05247 0.0
H323 H 0.00554 0.50929 0.07946 0.0
H324 H 0.91973 0.49131 0.07514 0.0
H325 H 0.93778 0.4949 0.10004 0.0
H326 H 0.0658 0.50681 0.96054 0.0
H327 H 0.00433 0.49295 0.93294 0.0
H328 H 0.09041 0.5121 0.93809 0.0
H329 H 0.07289 0.50844 0.91302 0.0
Gd330 Gd 0.49213 0.50687 0.99047 0.0
Gd331 Gd 0.51629 0.49382 0.02473 0.0
C332 C 0.59056 0.49818 0.02748 0.0
C333 C 0.57909 0.45656 0.03096 0.0
C334 C 0.54785 0.46784 0.02868 0.0
C335 C 0.56564 0.49146 0.02685 0.0
C336 C 0.55434 0.45014 0.03101 0.0
C337 C 0.59718 0.48055 0.02923 0.0
C338 C 0.60805 0.52247 0.0268 0.0
C339 C 0.60053 0.53936 0.02564 0.0
N340 N 0.5586 0.50803 0.02527 0.0
C341 C 0.57561 0.53181 0.02507 0.0
H342 H 0.57014 0.54512 0.02423 0.0
C343 C 0.5061 0.43974 0.03238 0.0
N344 N 0.52418 0.46237 0.02896 0.0
C345 C 0.51158 0.4215 0.03459 0.0
C346 C 0.53579 0.42667 0.03375 0.0
H347 H 0.48734 0.43562 0.03301 0.0
H348 H 0.61623 0.48535 0.02959 0.0
H349 H 0.43822 0.4555 0.99045 0.0
H350 H 0.62734 0.52838 0.02751 0.0
H351 H 0.61392 0.55822 0.02526 0.0
H352 H 0.58445 0.4432 0.03262 0.0
H353 H 0.52065 0.56486 0.98167 0.0
H354 H 0.381 0.47253 0.99082 0.0
H355 H 0.39442 0.44252 0.99107 0.0
H356 H 0.42383 0.55772 0.98523 0.0
H357 H 0.49714 0.4035 0.03695 0.0
H358 H 0.54002 0.41254 0.03556 0.0
H359 H 0.39218 0.51564 0.9888 0.0
H360 H 0.51075 0.59708 0.97842 0.0
N361 N 0.44978 0.49262 0.9902 0.0
C362 C 0.40031 0.47835 0.99051 0.0
C363 C 0.40781 0.46137 0.99062 0.0
C364 C 0.41781 0.50263 0.98954 0.0
C365 C 0.44271 0.50925 0.98927 0.0
C366 C 0.43274 0.46884 0.99024 0.0
N367 N 0.48404 0.53823 0.98641 0.0
C368 C 0.46043 0.53283 0.98729 0.0
C369 C 0.49643 0.5791 0.98097 0.0
C370 C 0.47232 0.57404 0.98253 0.0
C371 C 0.50196 0.56082 0.98276 0.0
C372 C 0.4539 0.5506 0.98551 0.0
H373 H 0.46807 0.58822 0.9811 0.0
O374 O 0.5089 0.5189 0.96869 0.0
O375 O 0.52286 0.50485 1.00098 0.0
O376 O 0.52738 0.53309 0.02266 0.0
O377 O 0.4978 0.53448 0.00776 0.0
O378 O 0.5323 0.53326 0.98693 0.0
O379 O 0.47753 0.48342 0.97119 0.0
O380 O 0.49949 0.48187 0.04651 0.0
O381 O 0.4856 0.49577 0.01419 0.0
O382 O 0.48115 0.4676 0.99249 0.0
O383 O 0.51075 0.4663 0.00744 0.0
O384 O 0.47612 0.4674 0.02829 0.0
O385 O 0.53076 0.5174 0.04396 0.0
C386 C 0.54083 0.52273 0.99515 0.0
C387 C 0.42921 0.5443 0.98642 0.0
C388 C 0.4112 0.52034 0.98845 0.0
C389 C 0.49309 0.4993 0.96194 0.0
C390 C 0.48321 0.50226 0.94775 0.0
C391 C 0.46556 0.50934 0.94752 0.0
C392 C 0.49176 0.49813 0.93422 0.0
C393 C 0.48274 0.50097 0.92042 0.0
C394 C 0.45655 0.51225 0.93391 0.0
C395 C 0.46503 0.50812 0.92045 0.0
C396 C 0.51522 0.54372 0.01802 0.0
C397 C 0.46763 0.47786 0.01999 0.0
C398 C 0.51529 0.50149 0.05324 0.0
C399 C 0.52535 0.49855 0.06737 0.0
C400 C 0.54334 0.49193 0.06745 0.0
C401 C 0.51661 0.50219 0.08097 0.0
C402 C 0.52576 0.49924 0.0947 0.0
C403 C 0.55249 0.48892 0.08098 0.0
C404 C 0.54379 0.49251 0.09451 0.0
C405 C 0.49332 0.457 0.99718 0.0
H406 H 0.45881 0.51262 0.95783 0.0
H407 H 0.50521 0.4924 0.93449 0.0
H408 H 0.44298 0.5178 0.93378 0.0
H409 H 0.45794 0.51082 0.91006 0.0
H410 H 0.55028 0.48906 0.0571 0.0
H411 H 0.5029 0.50758 0.08083 0.0
H412 H 0.56631 0.4837 0.08098 0.0
H413 H 0.55096 0.4897 0.10483 0.0
Gd414 Gd 0.18179 0.3513 0.35752 0.0
Gd415 Gd 0.15895 0.3166 0.32216 0.0
C416 C 0.08473 0.24827 0.31958 0.0
C417 C 0.09625 0.21791 0.31594 0.0
C418 C 0.12743 0.25984 0.31777 0.0
C419 C 0.10964 0.26601 0.31976 0.0
C420 C 0.12097 0.23579 0.3155 0.0
C421 C 0.07816 0.22414 0.318 0.0
C422 C 0.0672 0.25538 0.32058 0.0
C423 C 0.07469 0.27969 0.32116 0.0
N424 N 0.11666 0.28948 0.32114 0.0
C425 C 0.09963 0.29661 0.32122 0.0
H426 H 0.10514 0.31531 0.32178 0.0
C427 C 0.16912 0.27271 0.31364 0.0
N428 N 0.15108 0.27757 0.31734 0.0
C429 C 0.16365 0.24912 0.31136 0.0
C430 C 0.1395 0.23053 0.31247 0.0
H431 H 0.18784 0.287 0.31287 0.0
H432 H 0.05913 0.21024 0.31798 0.0
H433 H 0.23541 0.35209 0.35746 0.0
H434 H 0.04788 0.24232 0.32055 0.0
H435 H 0.06129 0.28542 0.32164 0.0
H436 H 0.09092 0.1993 0.31436 0.0
H437 H 0.15331 0.38106 0.36717 0.0
H438 H 0.29313 0.42462 0.36085 0.0
H439 H 0.2793 0.38155 0.3584 0.0
H440 H 0.25077 0.46806 0.36795 0.0
H441 H 0.17806 0.24528 0.30877 0.0
H442 H 0.1353 0.21228 0.31066 0.0
H443 H 0.28231 0.45685 0.36415 0.0
H444 H 0.16342 0.42261 0.37226 0.0
N445 N 0.22419 0.37811 0.35886 0.0
C446 C 0.27377 0.41174 0.36037 0.0
C447 C 0.26603 0.38745 0.35905 0.0
C448 C 0.25642 0.41905 0.36152 0.0
C449 C 0.23145 0.40155 0.36084 0.0
C450 C 0.24104 0.37076 0.35853 0.0
N451 N 0.1901 0.3903 0.36297 0.0
C452 C 0.21381 0.40786 0.36294 0.0
C453 C 0.17777 0.41873 0.3696 0.0
C454 C 0.20204 0.43718 0.36895 0.0
C455 C 0.17212 0.39522 0.36674 0.0
C456 C 0.22047 0.43183 0.36582 0.0
H457 H 0.2064 0.45537 0.37122 0.0
O458 O 0.16384 0.34519 0.37908 0.0
O459 O 0.15147 0.32038 0.3459 0.0
O460 O 0.14827 0.34526 0.32463 0.0
O461 O 0.1765 0.37446 0.34086 0.0
O462 O 0.14167 0.33885 0.3604 0.0
O463 O 0.19474 0.33977 0.37652 0.0
O464 O 0.17754 0.32363 0.30081 0.0
O465 O 0.1891 0.34777 0.33371 0.0
O466 O 0.19262 0.32276 0.3548 0.0
O467 O 0.16368 0.29341 0.33903 0.0
O468 O 0.19916 0.32943 0.31924 0.0
O469 O 0.14447 0.32557 0.30267 0.0
C470 C 0.1334 0.32073 0.35154 0.0
C471 C 0.24527 0.44951 0.36589 0.0
C472 C 0.26323 0.44313 0.36373 0.0
C473 C 0.17889 0.33994 0.38574 0.0
C474 C 0.1883 0.35126 0.4004 0.0
C475 C 0.20534 0.37572 0.40141 0.0
C476 C 0.18013 0.33748 0.41352 0.0
C477 C 0.18902 0.34805 0.42766 0.0
C478 C 0.21411 0.38634 0.41533 0.0
C479 C 0.20605 0.37269 0.42836 0.0
C480 C 0.15984 0.36734 0.3301 0.0
C481 C 0.20726 0.34768 0.32801 0.0
C482 C 0.16139 0.32687 0.29375 0.0
C483 C 0.15337 0.31492 0.27912 0.0
C484 C 0.13981 0.28996 0.2782 0.0
C485 C 0.16016 0.32859 0.26592 0.0
C486 C 0.15371 0.31738 0.25174 0.0
C487 C 0.13336 0.2787 0.2643 0.0
C488 C 0.14035 0.2922 0.25118 0.0
C489 C 0.18052 0.30051 0.34964 0.0
H490 H 0.21182 0.38657 0.39145 0.0
H491 H 0.16715 0.31851 0.41268 0.0
H492 H 0.22719 0.40527 0.41604 0.0
H493 H 0.21297 0.38153 0.439 0.0
H494 H 0.13442 0.27918 0.28821 0.0
H495 H 0.17034 0.34791 0.26675 0.0
H496 H 0.12311 0.25938 0.26366 0.0
H497 H 0.13556 0.28277 0.24061 0.0
Gd498 Gd 0.64946 0.82842 0.35649 0.0
Gd499 Gd 0.69066 0.84063 0.3242 0.0
C500 C 0.75995 0.83533 0.327 0.0
C501 C 0.79179 0.87683 0.32431 0.0
C502 C 0.74903 0.86596 0.32348 0.0
C503 C 0.74213 0.84229 0.32576 0.0
C504 C 0.77392 0.88347 0.3224 0.0
C505 C 0.78481 0.85279 0.32661 0.0
C506 C 0.75223 0.81098 0.32816 0.0
C507 C 0.72733 0.79425 0.32758 0.0
N508 N 0.71795 0.8259 0.32597 0.0
C509 C 0.71036 0.80204 0.32628 0.0
H510 H 0.69119 0.7889 0.32593 0.0
C511 C 0.73711 0.89431 0.31747 0.0
N512 N 0.73129 0.87168 0.32154 0.0
C513 C 0.76155 0.91234 0.31637 0.0
C514 C 0.78006 0.90697 0.31903 0.0
H515 H 0.72286 0.89858 0.3155 0.0
H516 H 0.79877 0.84782 0.32771 0.0
H517 H 0.64887 0.88012 0.35488 0.0
H518 H 0.76533 0.8049 0.32914 0.0
H519 H 0.72117 0.77535 0.32821 0.0
H520 H 0.81103 0.89005 0.32366 0.0
H521 H 0.61716 0.77042 0.36514 0.0
H522 H 0.57477 0.86401 0.35081 0.0
H523 H 0.61888 0.89362 0.35225 0.0
H524 H 0.52907 0.77879 0.35603 0.0
H525 H 0.76609 0.93037 0.31349 0.0
H526 H 0.79898 0.92095 0.31811 0.0
H527 H 0.54135 0.82103 0.35199 0.0
H528 H 0.57391 0.73854 0.36677 0.0
N529 N 0.62215 0.84312 0.35463 0.0
C530 C 0.58786 0.85796 0.35201 0.0
C531 C 0.61274 0.87472 0.35286 0.0
C532 C 0.58016 0.83361 0.35316 0.0
C533 C 0.59798 0.82669 0.35463 0.0
C534 C 0.62971 0.86696 0.35436 0.0
N535 N 0.6088 0.79732 0.35899 0.0
C536 C 0.59107 0.80301 0.35688 0.0
C537 C 0.57848 0.75659 0.36392 0.0
C538 C 0.56 0.76193 0.36107 0.0
C539 C 0.60294 0.77467 0.36304 0.0
C540 C 0.56617 0.78545 0.35772 0.0
H541 H 0.54108 0.74791 0.3618 0.0
O542 O 0.65117 0.81639 0.37885 0.0
O543 O 0.68296 0.82982 0.3479 0.0
O544 O 0.66071 0.80142 0.32561 0.0
O545 O 0.62862 0.80086 0.33881 0.0
O546 O 0.66198 0.80192 0.362 0.0
O547 O 0.65629 0.85188 0.37549 0.0
O548 O 0.6888 0.8526 0.30185 0.0
O549 O 0.65725 0.8393 0.33282 0.0
O550 O 0.67942 0.86761 0.35511 0.0
O551 O 0.71153 0.86831 0.34184 0.0
O552 O 0.67816 0.86716 0.31871 0.0
O553 O 0.68363 0.8171 0.30522 0.0
C554 C 0.68191 0.81205 0.3544 0.0
C555 C 0.54831 0.79205 0.35558 0.0
C556 C 0.5553 0.8161 0.35329 0.0
C557 C 0.65425 0.8359 0.38516 0.0
C558 C 0.63922 0.83266 0.39837 0.0
C559 C 0.61439 0.82547 0.39704 0.0
C560 C 0.64988 0.83627 0.41257 0.0
C561 C 0.63588 0.8326 0.42552 0.0
C562 C 0.60034 0.82179 0.40984 0.0
C563 C 0.61095 0.82525 0.42402 0.0
C564 C 0.63727 0.79122 0.3293 0.0
C565 C 0.65826 0.85706 0.32633 0.0
C566 C 0.68566 0.83307 0.29554 0.0
C567 C 0.70064 0.83627 0.28231 0.0
C568 C 0.7252 0.84247 0.28363 0.0
C569 C 0.69017 0.83346 0.2681 0.0
C570 C 0.7041 0.83694 0.25513 0.0
C571 C 0.73917 0.8459 0.27084 0.0
C572 C 0.72875 0.84319 0.25666 0.0
C573 C 0.70285 0.87789 0.35138 0.0
H574 H 0.60588 0.82262 0.38617 0.0
H575 H 0.66903 0.84152 0.41353 0.0
H576 H 0.58117 0.81622 0.40877 0.0
H577 H 0.59975 0.82245 0.43379 0.0
H578 H 0.73356 0.84471 0.2945 0.0
H579 H 0.67106 0.82833 0.2672 0.0
H580 H 0.75816 0.85078 0.27191 0.0
H581 H 0.74008 0.84629 0.24692 0.0
Gd582 Gd 0.15813 0.84106 0.32339 0.0
Gd583 Gd 0.18101 0.82645 0.35759 0.0
C584 C 0.25575 0.83189 0.36029 0.0
C585 C 0.24483 0.79023 0.36259 0.0
C586 C 0.21317 0.80102 0.3608 0.0
C587 C 0.23075 0.82485 0.35958 0.0
C588 C 0.21998 0.78346 0.36262 0.0
C589 C 0.26269 0.81441 0.36146 0.0
C590 C 0.27298 0.8563 0.36028 0.0
C591 C 0.26512 0.87298 0.35976 0.0
N592 N 0.2234 0.84125 0.35856 0.0
C593 C 0.24013 0.86512 0.35907 0.0
H594 H 0.23442 0.87827 0.3587 0.0
C595 C 0.1715 0.7723 0.36412 0.0
N596 N 0.18939 0.79518 0.36107 0.0
C597 C 0.1773 0.75419 0.36583 0.0
C598 C 0.20163 0.75974 0.3649 0.0
H599 H 0.15266 0.76792 0.3648 0.0
H600 H 0.28181 0.81946 0.36184 0.0
H601 H 0.10407 0.78989 0.32286 0.0
H602 H 0.29234 0.86247 0.36098 0.0
H603 H 0.27829 0.89191 0.35992 0.0
H604 H 0.25043 0.77698 0.36385 0.0
H605 H 0.18703 0.89903 0.31462 0.0
H606 H 0.04714 0.80734 0.32313 0.0
H607 H 0.06031 0.77714 0.32328 0.0
H608 H 0.09049 0.89258 0.3178 0.0
H609 H 0.16302 0.73599 0.36787 0.0
H610 H 0.2061 0.74571 0.36633 0.0
H611 H 0.05861 0.85055 0.32125 0.0
H612 H 0.17743 0.93142 0.31117 0.0
N613 N 0.11584 0.82706 0.3229 0.0
C614 C 0.06643 0.81306 0.32294 0.0
C615 C 0.07379 0.79598 0.32298 0.0
C616 C 0.08406 0.83732 0.32214 0.0
C617 C 0.10892 0.8438 0.32202 0.0
C618 C 0.09869 0.80332 0.32272 0.0
N619 N 0.15033 0.87261 0.31933 0.0
C620 C 0.12677 0.86736 0.32013 0.0
C621 C 0.16301 0.91349 0.31375 0.0
C622 C 0.13895 0.9086 0.31524 0.0
C623 C 0.16838 0.89512 0.31567 0.0
C624 C 0.1204 0.88523 0.31826 0.0
H625 H 0.13482 0.92285 0.31373 0.0
O626 O 0.17541 0.8535 0.30176 0.0
O627 O 0.18841 0.83861 0.33412 0.0
O628 O 0.19175 0.86573 0.35646 0.0
O629 O 0.16366 0.86847 0.34079 0.0
O630 O 0.19851 0.86747 0.3204 0.0
O631 O 0.14382 0.81809 0.30387 0.0
O632 O 0.16275 0.81314 0.37883 0.0
O633 O 0.15075 0.82911 0.34697 0.0
O634 O 0.147 0.80168 0.32483 0.0
O635 O 0.1762 0.79981 0.33984 0.0
O636 O 0.14075 0.79974 0.36029 0.0
O637 O 0.19505 0.84823 0.37765 0.0
C638 C 0.20665 0.85668 0.32869 0.0
C639 C 0.09575 0.87907 0.31905 0.0
C640 C 0.0776 0.85515 0.32102 0.0
C641 C 0.15959 0.83415 0.2948 0.0
C642 C 0.14991 0.83759 0.28066 0.0
C643 C 0.13259 0.84508 0.28058 0.0
C644 C 0.15825 0.83343 0.26706 0.0
C645 C 0.14934 0.83669 0.25333 0.0
C646 C 0.1237 0.84842 0.26704 0.0
C647 C 0.13198 0.84428 0.25351 0.0
C648 C 0.18029 0.87692 0.35156 0.0
C649 C 0.13258 0.81084 0.35232 0.0
C650 C 0.17858 0.83189 0.38628 0.0
C651 C 0.18715 0.82714 0.40044 0.0
C652 C 0.2017 0.81642 0.4006 0.0
C653 C 0.17984 0.83259 0.414 0.0
C654 C 0.1866 0.82698 0.42779 0.0
C655 C 0.2086 0.8109 0.41416 0.0
C656 C 0.20102 0.81596 0.42766 0.0
C657 C 0.15906 0.79091 0.3294 0.0
H658 H 0.12596 0.84834 0.29094 0.0
H659 H 0.17142 0.82735 0.26722 0.0
H660 H 0.11039 0.85429 0.26703 0.0
H661 H 0.12501 0.84732 0.24318 0.0
H662 H 0.20751 0.81214 0.39028 0.0
H663 H 0.16894 0.84125 0.41372 0.0
H664 H 0.21965 0.80241 0.41422 0.0
H665 H 0.20617 0.81086 0.43796 0.0
Gd666 Gd 0.84703 0.6849 0.69122 0.0
Gd667 Gd 0.82543 0.64992 0.65592 0.0
C668 C 0.75102 0.5819 0.65248 0.0
C669 C 0.76236 0.5514 0.64892 0.0
C670 C 0.79368 0.59322 0.65115 0.0
C671 C 0.77596 0.59951 0.65297 0.0
C672 C 0.78713 0.56917 0.64877 0.0
C673 C 0.74433 0.55776 0.6508 0.0
C674 C 0.73358 0.58916 0.65328 0.0
C675 C 0.74123 0.6135 0.65392 0.0
N676 N 0.78311 0.62301 0.65442 0.0
C677 C 0.7662 0.63028 0.65426 0.0
H678 H 0.7718 0.649 0.65485 0.0
C679 C 0.83543 0.6059 0.64753 0.0
N680 N 0.81737 0.61086 0.65099 0.0
C681 C 0.82987 0.5823 0.64514 0.0
C682 C 0.80564 0.56381 0.64594 0.0
H683 H 0.85421 0.6201 0.647 0.0
H684 H 0.72526 0.54395 0.65055 0.0
H685 H 0.89982 0.68418 0.69289 0.0
H686 H 0.71424 0.5762 0.65301 0.0
H687 H 0.72791 0.61935 0.65423 0.0
H688 H 0.75695 0.53278 0.64726 0.0
H689 H 0.81954 0.71606 0.6996 0.0
H690 H 0.95869 0.75615 0.69595 0.0
H691 H 0.94384 0.71281 0.69449 0.0
H692 H 0.91804 0.80174 0.69996 0.0
H693 H 0.84428 0.5784 0.64271 0.0
H694 H 0.80137 0.54555 0.64406 0.0
H695 H 0.94891 0.78935 0.69746 0.0
H696 H 0.83055 0.75813 0.70375 0.0
N697 N 0.88952 0.71094 0.69293 0.0
C698 C 0.93926 0.74366 0.69512 0.0
C699 C 0.93096 0.7192 0.69438 0.0
C700 C 0.92237 0.75164 0.69529 0.0
C701 C 0.89729 0.73458 0.69433 0.0
C702 C 0.90589 0.70299 0.69348 0.0
N703 N 0.85614 0.72437 0.69579 0.0
C704 C 0.88001 0.74154 0.69577 0.0
C705 C 0.84464 0.75373 0.70145 0.0
C706 C 0.86909 0.77177 0.70075 0.0
C707 C 0.83847 0.72994 0.69913 0.0
C708 C 0.88719 0.76576 0.69814 0.0
H709 H 0.87385 0.79017 0.70262 0.0
O710 O 0.82829 0.67979 0.71241 0.0
O711 O 0.81706 0.6538 0.67949 0.0
O712 O 0.81475 0.67861 0.65785 0.0
O713 O 0.84282 0.70803 0.67399 0.0
O714 O 0.80687 0.67279 0.69329 0.0
O715 O 0.85912 0.67405 0.71096 0.0
O716 O 0.84447 0.65644 0.63473 0.0
O717 O 0.8553 0.68093 0.66773 0.0
O718 O 0.85707 0.65566 0.68952 0.0
O719 O 0.82949 0.62658 0.673 0.0
O720 O 0.8657 0.66229 0.65383 0.0
O721 O 0.81239 0.66013 0.63632 0.0
C722 C 0.79885 0.65436 0.68469 0.0
C723 C 0.91214 0.783 0.69831 0.0
C724 C 0.92972 0.77595 0.69689 0.0
C725 C 0.84302 0.67476 0.71969 0.0
C726 C 0.85196 0.6868 0.73421 0.0
C727 C 0.86826 0.71147 0.73489 0.0
C728 C 0.84375 0.6736 0.74755 0.0
C729 C 0.85153 0.68507 0.76155 0.0
C730 C 0.87615 0.72291 0.74868 0.0
C731 C 0.86783 0.70988 0.76192 0.0
C732 C 0.82647 0.70085 0.66305 0.0
C733 C 0.8736 0.68053 0.66257 0.0
C734 C 0.82915 0.66076 0.62756 0.0
C735 C 0.82104 0.64932 0.6128 0.0
C736 C 0.80522 0.6246 0.61164 0.0
C737 C 0.82965 0.66317 0.59972 0.0
C738 C 0.82273 0.65234 0.58548 0.0
C739 C 0.79817 0.61378 0.59761 0.0
C740 C 0.80687 0.62747 0.58463 0.0
C741 C 0.8455 0.63354 0.6841 0.0
H742 H 0.87482 0.72188 0.72477 0.0
H743 H 0.83101 0.65454 0.74703 0.0
H744 H 0.88875 0.74197 0.74912 0.0
H745 H 0.87441 0.7192 0.77247 0.0
H746 H 0.79839 0.61369 0.62157 0.0
H747 H 0.84206 0.68226 0.60063 0.0
H748 H 0.78592 0.59469 0.59679 0.0
H749 H 0.80094 0.61861 0.5739 0.0
Gd750 Gd 0.31527 0.1602 0.69053 0.0
Gd751 Gd 0.35578 0.174 0.65783 0.0
C752 C 0.4253 0.16906 0.65983 0.0
C753 C 0.45698 0.21079 0.65803 0.0
C754 C 0.41416 0.19969 0.65717 0.0
C755 C 0.40737 0.17592 0.65887 0.0
C756 C 0.43902 0.21738 0.65643 0.0
C757 C 0.45013 0.18666 0.65973 0.0
C758 C 0.41772 0.1447 0.66052 0.0
C759 C 0.39285 0.12788 0.65978 0.0
N760 N 0.38323 0.1594 0.65889 0.0
C761 C 0.37577 0.13558 0.65877 0.0
H762 H 0.35662 0.12237 0.65831 0.0
C763 C 0.40207 0.22821 0.65209 0.0
N764 N 0.39634 0.20538 0.65554 0.0
C765 C 0.42648 0.24644 0.65138 0.0
C766 C 0.44505 0.24105 0.65374 0.0
H767 H 0.38775 0.23246 0.65037 0.0
H768 H 0.46416 0.18176 0.66063 0.0
H769 H 0.31474 0.21194 0.68999 0.0
H770 H 0.4309 0.13868 0.6613 0.0
H771 H 0.3868 0.10898 0.66006 0.0
H772 H 0.4762 0.22413 0.65763 0.0
H773 H 0.28339 0.1016 0.69753 0.0
H774 H 0.2407 0.19625 0.69127 0.0
H775 H 0.28484 0.22564 0.69045 0.0
H776 H 0.19507 0.11079 0.69425 0.0
H777 H 0.43095 0.26461 0.64905 0.0
H778 H 0.46395 0.25518 0.65313 0.0
H779 H 0.20725 0.15328 0.69207 0.0
H780 H 0.24028 0.06971 0.69988 0.0
N781 N 0.28794 0.17494 0.68997 0.0
C782 C 0.25376 0.19006 0.69087 0.0
C783 C 0.27865 0.20671 0.69047 0.0
C784 C 0.24601 0.16563 0.69103 0.0
C785 C 0.2638 0.15855 0.69071 0.0
C786 C 0.29559 0.19881 0.69019 0.0
N787 N 0.27474 0.12886 0.69305 0.0
C788 C 0.25696 0.13472 0.69215 0.0
C789 C 0.24471 0.0879 0.69766 0.0
C790 C 0.22612 0.09347 0.69615 0.0
C791 C 0.26908 0.10599 0.69634 0.0
C792 C 0.23214 0.11719 0.69367 0.0
H793 H 0.20726 0.07947 0.69733 0.0
O794 O 0.31787 0.14724 0.7124 0.0
O795 O 0.34885 0.16232 0.68143 0.0
O796 O 0.32594 0.13469 0.6587 0.0
O797 O 0.29407 0.13348 0.67251 0.0
O798 O 0.32789 0.1335 0.6949 0.0
O799 O 0.32207 0.18254 0.71015 0.0
O800 O 0.3544 0.18717 0.63577 0.0
O801 O 0.32231 0.1719 0.66701 0.0
O802 O 0.34489 0.1996 0.6895 0.0
O803 O 0.37684 0.20081 0.67581 0.0
O804 O 0.34255 0.2003 0.65319 0.0
O805 O 0.34871 0.15133 0.63838 0.0
C806 C 0.34787 0.14419 0.68738 0.0
C807 C 0.21425 0.124 0.69321 0.0
C808 C 0.22118 0.1482 0.69197 0.0
C809 C 0.32064 0.1662 0.71931 0.0
C810 C 0.30578 0.16182 0.73276 0.0
C811 C 0.28043 0.15204 0.73185 0.0
C812 C 0.31717 0.16665 0.74679 0.0
C813 C 0.30336 0.1613 0.76001 0.0
C814 C 0.26657 0.14685 0.74485 0.0
C815 C 0.27787 0.15129 0.75885 0.0
C816 C 0.30257 0.12424 0.6626 0.0
C817 C 0.32282 0.18972 0.66097 0.0
C818 C 0.35113 0.16787 0.62904 0.0
C819 C 0.36632 0.17152 0.61585 0.0
C820 C 0.39102 0.17826 0.61726 0.0
C821 C 0.35593 0.16852 0.60159 0.0
C822 C 0.37007 0.17231 0.58867 0.0
C823 C 0.4052 0.18203 0.60452 0.0
C824 C 0.39487 0.17912 0.59031 0.0
C825 C 0.36822 0.21015 0.68554 0.0
H826 H 0.27135 0.14824 0.72114 0.0
H827 H 0.33685 0.17464 0.74733 0.0
H828 H 0.24696 0.13911 0.74409 0.0
H829 H 0.26656 0.14651 0.76874 0.0
H830 H 0.39932 0.18063 0.62814 0.0
H831 H 0.33672 0.16296 0.60061 0.0
H832 H 0.4243 0.18732 0.60567 0.0
H833 H 0.40636 0.1825 0.58061 0.0
Gd834 Gd 0.82449 0.1733 0.65669 0.0
Gd835 Gd 0.84828 0.1605 0.69117 0.0
C836 C 0.92259 0.16505 0.69409 0.0
C837 C 0.91119 0.12345 0.69763 0.0
C838 C 0.87989 0.13464 0.69526 0.0
C839 C 0.89766 0.15828 0.69343 0.0
C840 C 0.88643 0.11699 0.69765 0.0
C841 C 0.92925 0.14746 0.69589 0.0
C842 C 0.94005 0.18935 0.69339 0.0
C843 C 0.9325 0.20621 0.6922 0.0
N844 N 0.89059 0.17482 0.69181 0.0
C845 C 0.90756 0.19862 0.69161 0.0
H846 H 0.90205 0.2119 0.69075 0.0
C847 C 0.83815 0.1065 0.69897 0.0
N848 N 0.8562 0.12911 0.6955 0.0
C849 C 0.84367 0.08831 0.70124 0.0
C850 C 0.8679 0.09351 0.70042 0.0
H851 H 0.81938 0.10237 0.69959 0.0
H852 H 0.94831 0.15229 0.69627 0.0
H853 H 0.77041 0.12213 0.65748 0.0
H854 H 0.95935 0.19529 0.69412 0.0
H855 H 0.94586 0.22507 0.69182 0.0
H856 H 0.91659 0.11013 0.69934 0.0
H857 H 0.85335 0.23091 0.64701 0.0
H858 H 0.71348 0.13951 0.65636 0.0
H859 H 0.72667 0.1094 0.65779 0.0
H860 H 0.75673 0.22437 0.64905 0.0
H861 H 0.82926 0.0703 0.70365 0.0
H862 H 0.87217 0.07943 0.70228 0.0
H863 H 0.72489 0.18254 0.65324 0.0
H864 H 0.84367 0.26304 0.64266 0.0
N865 N 0.78219 0.15926 0.65632 0.0
C866 C 0.73277 0.14524 0.65622 0.0
C867 C 0.74015 0.12819 0.65699 0.0
C868 C 0.75038 0.16942 0.65484 0.0
C869 C 0.77525 0.17592 0.65482 0.0
C870 C 0.76504 0.13552 0.6568 0.0
N871 N 0.81666 0.20464 0.65191 0.0
C872 C 0.79308 0.19938 0.65253 0.0
C873 C 0.82927 0.24524 0.6455 0.0
C874 C 0.80519 0.24036 0.64678 0.0
C875 C 0.83468 0.22699 0.64793 0.0
C876 C 0.78667 0.21712 0.65012 0.0
H877 H 0.80104 0.2545 0.64485 0.0
O878 O 0.84179 0.18446 0.63497 0.0
O879 O 0.85513 0.17128 0.66739 0.0
O880 O 0.85921 0.19976 0.6891 0.0
O881 O 0.83047 0.20158 0.67355 0.0
O882 O 0.86468 0.19964 0.65327 0.0
O883 O 0.80944 0.14969 0.63749 0.0
O884 O 0.83117 0.14855 0.71287 0.0
O885 O 0.81777 0.16268 0.68053 0.0
O886 O 0.81325 0.134 0.65902 0.0
O887 O 0.84284 0.13281 0.67401 0.0
O888 O 0.80806 0.13431 0.69467 0.0
O889 O 0.86293 0.18382 0.71052 0.0
C890 C 0.87315 0.18918 0.66159 0.0
C891 C 0.76201 0.21096 0.65073 0.0
C892 C 0.74389 0.18715 0.65311 0.0
C893 C 0.82546 0.16512 0.62824 0.0
C894 C 0.81608 0.16863 0.614 0.0
C895 C 0.79848 0.17577 0.61372 0.0
C896 C 0.82536 0.16538 0.60049 0.0
C897 C 0.8173 0.16943 0.58669 0.0
C898 C 0.79033 0.17974 0.6001 0.0
C899 C 0.79968 0.17668 0.58666 0.0
C900 C 0.84746 0.21061 0.6841 0.0
C901 C 0.79971 0.14494 0.6864 0.0
C902 C 0.84715 0.16798 0.7197 0.0
C903 C 0.85678 0.1646 0.73388 0.0
C904 C 0.87424 0.15729 0.73407 0.0
C905 C 0.8479 0.16823 0.74743 0.0
C906 C 0.85627 0.16441 0.7612 0.0
C907 C 0.88267 0.15352 0.74766 0.0
C908 C 0.87374 0.15699 0.76114 0.0
C909 C 0.82542 0.12343 0.66375 0.0
H910 H 0.79111 0.17831 0.624 0.0
H911 H 0.83918 0.16011 0.60075 0.0
H912 H 0.77672 0.18524 0.59994 0.0
H913 H 0.7929 0.17968 0.57624 0.0
H914 H 0.88131 0.15446 0.72377 0.0
H915 H 0.83419 0.17363 0.74724 0.0
H916 H 0.89617 0.14789 0.74774 0.0
H917 H 0.88075 0.15416 0.77153 0.0
H918 H 0.27863 0.79626 0.07085 0.0
H919 H 0.31555 0.82514 0.0576 0.0
H920 H 0.30341 0.88223 0.0717 0.0
H921 H 0.26659 0.85349 0.08501 0.0
H922 H 0.32164 0.85608 0.0346 0.0
H923 H 0.3735 0.90667 0.0847 0.0
H924 H 0.34596 0.87797 0.08594 0.0
H925 H 0.34424 0.90467 0.08311 0.0
C926 C 0.28382 0.81497 0.07111 0.0
C927 C 0.26976 0.82261 0.07908 0.0
C928 C 0.30493 0.83145 0.06355 0.0
C929 C 0.31247 0.85589 0.06384 0.0
C930 C 0.2983 0.86353 0.07162 0.0
H931 H 0.42464 0.98588 0.0251 0.0
H932 H 0.38634 0.95253 0.03443 0.0
C933 C 0.27725 0.84709 0.07923 0.0
C934 C 0.33498 0.87341 0.05591 0.0
H935 H 0.38967 0.9246 0.06108 0.0
C936 C 0.33664 0.87092 0.0404 0.0
C937 C 0.3546 0.8927 0.06351 0.0
C938 C 0.35466 0.89558 0.08025 0.0
C939 C 0.35707 0.88768 0.03226 0.0
C940 C 0.3762 0.90732 0.03981 0.0
C941 C 0.37479 0.90956 0.05532 0.0
C942 C 0.39772 0.92625 0.03189 0.0
C943 C 0.35777 0.88492 0.01557 0.0
C944 C 0.41658 0.92234 0.02711 0.0
C945 C 0.43853 0.94141 0.02183 0.0
C946 C 0.44176 0.96456 0.02114 0.0
C947 C 0.42246 0.96815 0.02536 0.0
C948 C 0.40063 0.94916 0.03069 0.0
H949 H 0.34104 0.86902 0.01126 0.0
H950 H 0.35977 0.90113 0.00998 0.0
H951 H 0.37387 0.88325 0.01254 0.0
H952 H 0.41477 0.90482 0.02815 0.0
H953 H 0.4533 0.93824 0.01901 0.0
H954 H 0.15673 0.41669 0.08447 0.0
H955 H 0.12624 0.4235 0.07209 0.0
H956 H 0.18339 0.49139 0.05584 0.0
H957 H 0.21403 0.48448 0.06803 0.0
H958 H 0.11522 0.45791 0.07674 0.0
H959 H 0.1452 0.46319 0.01795 0.0
H960 H 0.15661 0.45261 0.03286 0.0
H961 H 0.16878 0.48415 0.03015 0.0
C962 C 0.16282 0.43307 0.07825 0.0
C963 C 0.18784 0.45003 0.07723 0.0
C964 C 0.14537 0.43692 0.07112 0.0
C965 C 0.15246 0.4578 0.0628 0.0
C966 C 0.17743 0.47484 0.06182 0.0
H967 H 0.06434 0.51381 0.02321 0.0
H968 H 0.09824 0.50929 0.03271 0.0
C969 C 0.19495 0.47091 0.06886 0.0
C970 C 0.13355 0.46203 0.05575 0.0
H971 H 0.1144 0.47328 0.02248 0.0
C972 C 0.11504 0.46117 0.06486 0.0
C973 C 0.13328 0.46638 0.04024 0.0
C974 C 0.15188 0.46643 0.02969 0.0
C975 C 0.09639 0.46454 0.05893 0.0
C976 C 0.0961 0.46878 0.04346 0.0
C977 C 0.11471 0.47002 0.03434 0.0
C978 C 0.0761 0.47129 0.0366 0.0
C979 C 0.07712 0.46367 0.06925 0.0
C980 C 0.05255 0.45136 0.03542 0.0
C981 C 0.03326 0.45386 0.02983 0.0
C982 C 0.03723 0.47626 0.02516 0.0
C983 C 0.06087 0.49621 0.0263 0.0
C984 C 0.08021 0.49368 0.03181 0.0
H985 H 0.08231 0.46452 0.0812 0.0
H986 H 0.0738 0.47868 0.06686 0.0
H987 H 0.05972 0.44673 0.06737 0.0
H988 H 0.04902 0.43393 0.03904 0.0
H989 H 0.01515 0.43828 0.02927 0.0
H990 H 0.5977 0.74253 0.0891 0.0
H991 H 0.58839 0.70528 0.07645 0.0
H992 H 0.51946 0.69642 0.06153 0.0
H993 H 0.52831 0.73334 0.07439 0.0
H994 H 0.54538 0.65812 0.08101 0.0
H995 H 0.55395 0.6917 0.02285 0.0
H996 H 0.56694 0.71143 0.03873 0.0
H997 H 0.53474 0.69715 0.0351 0.0
C998 C 0.58046 0.73255 0.08325 0.0
C999 C 0.56378 0.74095 0.08271 0.0
C1000 C 0.57525 0.71138 0.07596 0.0
C1001 C 0.55342 0.69837 0.06792 0.0
C1002 C 0.53662 0.7065 0.06747 0.0
H1003 H 0.4897 0.56754 0.01583 0.0
H1004 H 0.49908 0.60512 0.02796 0.0
C1005 C 0.54174 0.7276 0.0748 0.0
C1006 C 0.54798 0.67599 0.06024 0.0
H1007 H 0.53971 0.6504 0.02575 0.0
C1008 C 0.54422 0.6564 0.06893 0.0
C1009 C 0.54636 0.67389 0.0445 0.0
C1010 C 0.55087 0.69467 0.03468 0.0
C1011 C 0.53851 0.63454 0.06228 0.0
C1012 C 0.53713 0.63248 0.04652 0.0
C1013 C 0.54082 0.65208 0.03783 0.0
C1014 C 0.53193 0.61013 0.03883 0.0
C1015 C 0.53346 0.6137 0.07222 0.0
C1016 C 0.54759 0.6008 0.04067 0.0
C1017 C 0.5423 0.57934 0.03378 0.0
C1018 C 0.52137 0.56696 0.02477 0.0
C1019 C 0.50604 0.57668 0.02263 0.0
C1020 C 0.51132 0.59812 0.02958 0.0
H1021 H 0.52861 0.6162 0.08375 0.0
H1022 H 0.51837 0.5967 0.06765 0.0
H1023 H 0.55009 0.61207 0.07292 0.0
H1024 H 0.56391 0.6101 0.04748 0.0
H1025 H 0.5546 0.57247 0.03557 0.0
H1026 H 0.8102 0.24176 0.95633 0.0
H1027 H 0.83879 0.27944 0.96846 0.0
H1028 H 0.85253 0.31581 0.92615 0.0
H1029 H 0.82284 0.27852 0.91408 0.0
H1030 H 0.8864 0.30826 0.96441 0.0
H1031 H 0.83838 0.35823 0.95198 0.0
H1032 H 0.82437 0.32643 0.94907 0.0
H1033 H 0.84513 0.34697 0.93543 0.0
C1034 C 0.8189 0.25784 0.94963 0.0
C1035 C 0.81397 0.25707 0.93422 0.0
C1036 C 0.83545 0.27935 0.95657 0.0
C1037 C 0.84751 0.30056 0.94828 0.0
C1038 C 0.84301 0.29981 0.93286 0.0
H1039 H 0.97934 0.42926 0.97693 0.0
H1040 H 0.94971 0.39131 0.96554 0.0
C1041 C 0.82628 0.27835 0.92593 0.0
C1042 C 0.86522 0.32331 0.95574 0.0
H1043 H 0.87904 0.38105 0.96129 0.0
C1044 C 0.88472 0.32415 0.96379 0.0
C1045 C 0.86282 0.34395 0.95514 0.0
C1046 C 0.84141 0.34384 0.94757 0.0
C1047 C 0.90207 0.34511 0.97108 0.0
C1048 C 0.90029 0.36604 0.96992 0.0
C1049 C 0.88058 0.3651 0.96204 0.0
C1050 C 0.91843 0.38904 0.97692 0.0
C1051 C 0.9218 0.34441 0.98022 0.0
C1052 C 0.91068 0.40087 0.98674 0.0
C1053 C 0.92752 0.42284 0.99304 0.0
C1054 C 0.95256 0.43339 0.98978 0.0
C1055 C 0.96027 0.42157 0.97986 0.0
C1056 C 0.94335 0.39972 0.97342 0.0
H1057 H 0.91631 0.3259 0.98371 0.0
H1058 H 0.93855 0.35116 0.97335 0.0
H1059 H 0.92629 0.35577 0.99037 0.0
H1060 H 0.89152 0.39312 0.98951 0.0
H1061 H 0.92079 0.43163 1.00033 0.0
H1062 H 0.72922 0.51498 0.94361 0.0
H1063 H 0.69167 0.50763 0.95618 0.0
H1064 H 0.70433 0.5766 0.94186 0.0
H1065 H 0.74173 0.58403 0.92927 0.0
H1066 H 0.6841 0.53202 0.97881 0.0
H1067 H 0.63485 0.53319 0.92785 0.0
H1068 H 0.66241 0.5314 0.92709 0.0
H1069 H 0.66404 0.55976 0.9299 0.0
C1070 C 0.72404 0.52862 0.94317 0.0
C1071 C 0.73842 0.55003 0.9353 0.0
C1072 C 0.70252 0.52435 0.95033 0.0
C1073 C 0.69487 0.54135 0.94974 0.0
C1074 C 0.70943 0.56291 0.94214 0.0
H1075 H 0.58215 0.56295 0.98731 0.0
H1076 H 0.61996 0.56641 0.9775 0.0
C1077 C 0.73086 0.56715 0.93494 0.0
C1078 C 0.67193 0.53683 0.95726 0.0
H1079 H 0.61787 0.53554 0.95119 0.0
C1080 C 0.66949 0.53249 0.97273 0.0
C1081 C 0.65278 0.53737 0.94935 0.0
C1082 C 0.65349 0.54043 0.93261 0.0
C1083 C 0.64883 0.52951 0.98054 0.0
C1084 C 0.63015 0.53087 0.9727 0.0
C1085 C 0.63233 0.5347 0.95721 0.0
C1086 C 0.60841 0.52901 0.98033 0.0
C1087 C 0.64752 0.52602 0.99722 0.0
C1088 C 0.58946 0.50686 0.98534 0.0
C1089 C 0.56776 0.50483 0.99087 0.0
C1090 C 0.56479 0.52498 0.99166 0.0
C1091 C 0.58407 0.5472 0.98702 0.0
C1092 C 0.60565 0.54919 0.9814 0.0
H1093 H 0.66394 0.52616 1.00179 0.0
H1094 H 0.6457 0.5405 1.00266 0.0
H1095 H 0.63114 0.50874 1.00011 0.0
H1096 H 0.59108 0.49099 0.98442 0.0
H1097 H 0.55302 0.48735 0.99396 0.0
H1098 H 0.45061 0.16907 0.91482 0.0
H1099 H 0.4596 0.14124 0.928 0.0
H1100 H 0.43752 0.15851 0.96958 0.0
H1101 H 0.42737 0.18552 0.95639 0.0
H1102 H 0.49272 0.15103 0.95035 0.0
H1103 H 0.39929 0.08605 0.96978 0.0
H1104 H 0.40505 0.10834 0.95579 0.0
H1105 H 0.40949 0.11635 0.97527 0.0
C1106 C 0.44719 0.1666 0.92672 0.0
C1107 C 0.43816 0.17944 0.93453 0.0
C1108 C 0.45256 0.15086 0.93425 0.0
C1109 C 0.44898 0.14762 0.94973 0.0
C1110 C 0.44001 0.16042 0.95759 0.0
H1111 H 0.5139 0.08071 1.00387 0.0
H1112 H 0.50333 0.1093 0.99339 0.0
C1113 C 0.4345 0.17606 0.95005 0.0
C1114 C 0.45533 0.13136 0.95766 0.0
H1115 H 0.43161 0.0812 0.97923 0.0
C1116 C 0.47938 0.13575 0.95667 0.0
C1117 C 0.43781 0.11136 0.96579 0.0
C1118 C 0.41141 0.10505 0.96663 0.0
C1119 C 0.48639 0.12058 0.96353 0.0
C1120 C 0.46898 0.10083 0.97189 0.0
C1121 C 0.44496 0.09651 0.97294 0.0
C1122 C 0.47489 0.08355 0.97885 0.0
C1123 C 0.51214 0.12543 0.96135 0.0
C1124 C 0.46188 0.05947 0.97453 0.0
C1125 C 0.46753 0.04301 0.9807 0.0
C1126 C 0.48633 0.0503 0.99135 0.0
C1127 C 0.49918 0.07442 0.9958 0.0
C1128 C 0.49336 0.09087 0.98969 0.0
H1129 H 0.52121 0.13752 0.95173 0.0
H1130 H 0.52305 0.13418 0.97153 0.0
H1131 H 0.51239 0.10856 0.95949 0.0
H1132 H 0.44753 0.05345 0.96619 0.0
H1133 H 0.45721 0.02461 0.97698 0.0
H1134 H 0.73935 0.14739 0.93038 0.0
H1135 H 0.70291 0.11897 0.94427 0.0
H1136 H 0.69038 0.17621 0.95732 0.0
H1137 H 0.72658 0.20468 0.94331 0.0
H1138 H 0.69314 0.12212 0.97653 0.0
H1139 H 0.62466 0.12355 0.93795 0.0
H1140 H 0.65557 0.13309 0.93221 0.0
H1141 H 0.64944 0.15198 0.94398 0.0
C1142 C 0.72869 0.15388 0.93608 0.0
C1143 C 0.73581 0.17827 0.93572 0.0
C1144 C 0.70801 0.13767 0.9441 0.0
C1145 C 0.69393 0.1455 0.95174 0.0
C1146 C 0.70092 0.1698 0.9514 0.0
H1147 H 0.55207 0.06009 0.99488 0.0
H1148 H 0.59084 0.0943 0.98688 0.0
C1149 C 0.72168 0.18604 0.94347 0.0
C1150 C 0.67193 0.1282 0.9601 0.0
H1151 H 0.60967 0.09976 0.95947 0.0
C1152 C 0.67487 0.11726 0.97286 0.0
C1153 C 0.64819 0.12213 0.95536 0.0
C1154 C 0.64408 0.13312 0.94158 0.0
C1155 C 0.6546 0.10021 0.98095 0.0
C1156 C 0.63077 0.09351 0.97592 0.0
C1157 C 0.62792 0.10492 0.96336 0.0
C1158 C 0.60854 0.07353 0.98277 0.0
C1159 C 0.65898 0.08968 0.99486 0.0
C1160 C 0.60566 0.05054 0.98331 0.0
C1161 C 0.58369 0.0311 0.98809 0.0
C1162 C 0.56413 0.03423 0.99237 0.0
C1163 C 0.56705 0.05726 0.99203 0.0
C1164 C 0.58914 0.07677 0.98735 0.0
H1165 H 0.67687 0.10226 1.00006 0.0
H1166 H 0.64439 0.08504 1.00325 0.0
H1167 H 0.65929 0.07318 0.99183 0.0
H1168 H 0.62004 0.04741 0.97944 0.0
H1169 H 0.58169 0.01344 0.98797 0.0
H1170 H 0.83118 0.54093 0.91481 0.0
H1171 H 0.86189 0.53479 0.92711 0.0
H1172 H 0.83904 0.54705 0.96999 0.0
H1173 H 0.80992 0.55566 0.95768 0.0
H1174 H 0.88509 0.56827 0.97009 0.0
H1175 H 0.85526 0.47827 0.94768 0.0
H1176 H 0.86258 0.49899 0.93264 0.0
H1177 H 0.83757 0.49284 0.94499 0.0
C1178 C 0.83278 0.54268 0.92684 0.0
C1179 C 0.81781 0.54887 0.93515 0.0
C1180 C 0.85013 0.53861 0.93393 0.0
C1181 C 0.85249 0.53977 0.94957 0.0
C1182 C 0.83752 0.54579 0.95792 0.0
H1183 H 0.94308 0.48787 0.99114 0.0
H1184 H 0.90862 0.49216 0.98288 0.0
C1185 C 0.82055 0.55042 0.95083 0.0
C1186 C 0.87134 0.53589 0.95715 0.0
H1187 H 0.89589 0.49927 0.95789 0.0
C1188 C 0.8872 0.55299 0.96754 0.0
C1189 C 0.87397 0.51572 0.95419 0.0
C1190 C 0.85623 0.49531 0.9444 0.0
C1191 C 0.90589 0.55089 0.97467 0.0
C1192 C 0.90972 0.5317 0.97081 0.0
C1193 C 0.89339 0.51423 0.96075 0.0
C1194 C 0.93061 0.52951 0.97683 0.0
C1195 C 0.92092 0.56913 0.98645 0.0
C1196 C 0.95465 0.54891 0.9762 0.0
C1197 C 0.97425 0.54666 0.9815 0.0
C1198 C 0.97039 0.52486 0.98729 0.0
C1199 C 0.94655 0.50517 0.98735 0.0
C1200 C 0.92684 0.50756 0.98241 0.0
H1201 H 0.91018 0.57624 0.99204 0.0
H1202 H 0.92758 0.56149 0.99512 0.0
H1203 H 0.93687 0.58443 0.98109 0.0
H1204 H 0.9584 0.56573 0.97134 0.0
H1205 H 0.99254 0.56193 0.98087 0.0
H1206 H 0.41014 0.25922 0.92571 0.0
H1207 H 0.42074 0.29708 0.93792 0.0
H1208 H 0.48738 0.30248 0.95458 0.0
H1209 H 0.47743 0.26513 0.94191 0.0
H1210 H 0.42828 0.30776 0.96811 0.0
H1211 H 0.51133 0.36771 0.93553 0.0
H1212 H 0.48984 0.33764 0.9296 0.0
H1213 H 0.51197 0.34278 0.9439 0.0
C1214 C 0.42727 0.26867 0.93175 0.0
C1215 C 0.44301 0.25923 0.93278 0.0
C1216 C 0.43319 0.29019 0.93881 0.0
C1217 C 0.45497 0.3027 0.94698 0.0
C1218 C 0.47069 0.29331 0.9481 0.0
H1219 H 0.51856 0.43299 0.99983 0.0
H1220 H 0.50868 0.39481 0.98837 0.0
C1221 C 0.46483 0.27183 0.941 0.0
C1222 C 0.46084 0.3252 0.95472 0.0
H1223 H 0.50309 0.38462 0.95674 0.0
C1224 C 0.44458 0.32459 0.9656 0.0
C1225 C 0.48216 0.34708 0.95141 0.0
C1226 C 0.49974 0.34899 0.93938 0.0
C1227 C 0.4492 0.34529 0.97339 0.0
C1228 C 0.47049 0.36714 0.97007 0.0
C1229 C 0.48683 0.36775 0.95926 0.0
C1230 C 0.47587 0.38972 0.97743 0.0
C1231 C 0.43148 0.34361 0.98525 0.0
C1232 C 0.46072 0.39946 0.97498 0.0
C1233 C 0.46625 0.42123 0.98152 0.0
C1234 C 0.48708 0.43364 0.99061 0.0
C1235 C 0.50222 0.42377 0.99305 0.0
C1236 C 0.49668 0.40202 0.98646 0.0
H1237 H 0.41928 0.32487 0.98887 0.0
H1238 H 0.44135 0.35456 0.99517 0.0
H1239 H 0.4199 0.35056 0.98069 0.0
H1240 H 0.44478 0.39038 0.96783 0.0
H1241 H 0.45425 0.42835 0.97936 0.0
H1242 H 0.21902 0.73712 0.07035 0.0
H1243 H 0.19 0.70013 0.05753 0.0
H1244 H 0.13014 0.70755 0.07412 0.0
H1245 H 0.159 0.74493 0.08653 0.0
H1246 H 0.15258 0.65827 0.06985 0.0
H1247 H 0.1156 0.69726 0.02938 0.0
H1248 H 0.14333 0.71529 0.03987 0.0
H1249 H 0.11408 0.70478 0.04852 0.0
C1250 C 0.19969 0.73105 0.0711 0.0
C1251 C 0.19135 0.74406 0.07941 0.0
C1252 C 0.18314 0.70984 0.06385 0.0
C1253 C 0.15794 0.70128 0.06468 0.0
C1254 C 0.14952 0.71406 0.07309 0.0
H1255 H 0.02793 0.57479 0.03282 0.0
H1256 H 0.05749 0.61269 0.04445 0.0
C1257 C 0.16605 0.73527 0.08033 0.0
C1258 C 0.14043 0.67864 0.0571 0.0
H1259 H 0.09486 0.65487 0.03096 0.0
C1260 C 0.14006 0.65753 0.06128 0.0
C1261 C 0.12409 0.67774 0.04595 0.0
C1262 C 0.12437 0.7 0.04054 0.0
C1263 C 0.12344 0.63544 0.05482 0.0
C1264 C 0.10703 0.63453 0.04371 0.0
C1265 C 0.10744 0.65564 0.0395 0.0
C1266 C 0.08924 0.6118 0.03637 0.0
C1267 C 0.12318 0.61317 0.06018 0.0
C1268 C 0.09732 0.59893 0.02777 0.0
C1269 C 0.0805 0.57724 0.02113 0.0
C1270 C 0.05524 0.56809 0.02286 0.0
C1271 C 0.04723 0.58126 0.03128 0.0
C1272 C 0.06409 0.60295 0.03792 0.0
H1273 H 0.13254 0.61603 0.07114 0.0
H1274 H 0.10418 0.59806 0.06123 0.0
H1275 H 0.13284 0.60801 0.05195 0.0
H1276 H 0.11666 0.60563 0.02623 0.0
H1277 H 0.08736 0.56752 0.01484 0.0
H1278 H 0.29201 0.46939 0.09573 0.0
H1279 H 0.32938 0.47684 0.08299 0.0
H1280 H 0.28733 0.4407 0.04371 0.0
H1281 H 0.25 0.43375 0.0563 0.0
H1282 H 0.34228 0.44666 0.07312 0.0
H1283 H 0.3412 0.49949 0.02478 0.0
H1284 H 0.32114 0.49293 0.04058 0.0
H1285 H 0.31375 0.47104 0.02604 0.0
C1286 C 0.29075 0.46312 0.08436 0.0
C1287 C 0.26803 0.45104 0.07702 0.0
C1288 C 0.31215 0.46745 0.07705 0.0
C1289 C 0.31137 0.45973 0.06225 0.0
C1290 C 0.28864 0.44752 0.05494 0.0
H1291 H 0.42538 0.43699 0.02531 0.0
H1292 H 0.38685 0.43268 0.03436 0.0
C1293 C 0.26726 0.44341 0.06219 0.0
C1294 C 0.33412 0.46329 0.05488 0.0
H1295 H 0.36936 0.48504 0.02349 0.0
C1296 C 0.34821 0.45518 0.0623 0.0
C1297 C 0.34219 0.47469 0.04083 0.0
C1298 C 0.32892 0.48526 0.03266 0.0
C1299 C 0.36978 0.45781 0.05606 0.0
C1300 C 0.37724 0.4682 0.04172 0.0
C1301 C 0.36346 0.47673 0.03437 0.0
C1302 C 0.3995 0.47062 0.03438 0.0
C1303 C 0.38465 0.44985 0.06508 0.0
C1304 C 0.41903 0.49325 0.03057 0.0
C1305 C 0.44097 0.49569 0.02516 0.0
C1306 C 0.44362 0.47549 0.02332 0.0
C1307 C 0.42376 0.45282 0.02658 0.0
C1308 C 0.40182 0.45038 0.03185 0.0
H1309 H 0.38047 0.4489 0.0772 0.0
H1310 H 0.38024 0.43173 0.06136 0.0
H1311 H 0.40452 0.46216 0.06353 0.0
H1312 H 0.41766 0.50913 0.03234 0.0
H1313 H 0.4561 0.51342 0.023 0.0
H1314 H 0.52739 0.79003 0.07446 0.0
H1315 H 0.51797 0.81713 0.06074 0.0
H1316 H 0.58623 0.87718 0.07528 0.0
H1317 H 0.59631 0.85012 0.08851 0.0
H1318 H 0.5127 0.85422 0.07086 0.0
H1319 H 0.58897 0.88695 0.03035 0.0
H1320 H 0.58032 0.86119 0.04202 0.0
H1321 H 0.59882 0.89084 0.04948 0.0
C1322 C 0.54055 0.80898 0.0746 0.0
C1323 C 0.56272 0.81789 0.08247 0.0
C1324 C 0.53505 0.82444 0.06683 0.0
C1325 C 0.5516 0.8491 0.06676 0.0
C1326 C 0.57346 0.85815 0.07491 0.0
H1327 H 0.55155 0.97406 0.03441 0.0
H1328 H 0.56003 0.94474 0.04591 0.0
C1329 C 0.57904 0.84269 0.08264 0.0
C1330 C 0.54574 0.86536 0.05837 0.0
H1331 H 0.56676 0.9078 0.03102 0.0
C1332 C 0.5244 0.8658 0.06206 0.0
C1333 C 0.561 0.88034 0.04685 0.0
C1334 C 0.58343 0.87969 0.04182 0.0
C1335 C 0.51827 0.88134 0.05482 0.0
C1336 C 0.53379 0.89663 0.04354 0.0
C1337 C 0.55495 0.89602 0.03971 0.0
C1338 C 0.52886 0.91413 0.03601 0.0
C1339 C 0.49562 0.88182 0.05956 0.0
C1340 C 0.5087 0.90654 0.02644 0.0
C1341 C 0.50378 0.92326 0.01979 0.0
C1342 C 0.51898 0.94783 0.02262 0.0
C1343 C 0.53941 0.9553 0.03202 0.0
C1344 C 0.54434 0.93859 0.03859 0.0
H1345 H 0.48792 0.8719 0.07013 0.0
H1346 H 0.49967 0.90052 0.06106 0.0
H1347 H 0.4815 0.87347 0.05069 0.0
H1348 H 0.4967 0.88769 0.02421 0.0
H1349 H 0.48784 0.9169 0.01267 0.0
H1350 H 0.91742 0.15499 0.39131 0.0
H1351 H 0.95398 0.18375 0.37775 0.0
H1352 H 0.99852 0.1896 0.4159 0.0
H1353 H 0.96191 0.16131 0.42962 0.0
H1354 H 0.01091 0.2321 0.40561 0.0
H1355 H 0.00591 0.17564 0.35763 0.0
H1356 H 0.97872 0.17756 0.35954 0.0
H1357 H 0.987 0.1635 0.37397 0.0
C1358 C 0.93506 0.16226 0.39674 0.0
C1359 C 0.93683 0.15589 0.41152 0.0
C1360 C 0.95597 0.17858 0.38894 0.0
C1361 C 0.97913 0.18851 0.39566 0.0
C1362 C 0.98089 0.18211 0.41043 0.0
H1363 H 0.12164 0.27387 0.35405 0.0
H1364 H 0.0832 0.2408 0.36352 0.0
C1365 C 0.95997 0.16603 0.41829 0.0
C1366 C 1.00136 0.20664 0.38769 0.0
H1367 H 0.03421 0.21752 0.35543 0.0
C1368 C 0.01603 0.22881 0.39467 0.0
C1369 C 0.00829 0.20231 0.37349 0.0
C1370 C 0.9943 0.17837 0.36578 0.0
C1371 C 0.03716 0.24683 0.38782 0.0
C1372 C 0.04347 0.24293 0.37333 0.0
C1373 C 0.02911 0.22063 0.36642 0.0
C1374 C 0.06524 0.26175 0.36544 0.0
C1375 C 0.05281 0.26973 0.39636 0.0
C1376 C 0.06751 0.28417 0.36272 0.0
C1377 C 0.08943 0.30304 0.35741 0.0
C1378 C 0.10925 0.29967 0.35431 0.0
C1379 C 0.10651 0.27685 0.35612 0.0
C1380 C 0.0846 0.25798 0.36159 0.0
H1381 H 0.04939 0.26726 0.40858 0.0
H1382 H 0.07253 0.27652 0.39437 0.0
H1383 H 0.04843 0.28352 0.3926 0.0
H1384 H 0.05262 0.28732 0.36528 0.0
H1385 H 0.09118 0.32051 0.35614 0.0
H1386 H 0.82147 0.75166 0.4206 0.0
H1387 H 0.79111 0.75889 0.40844 0.0
H1388 H 0.84843 0.82049 0.38622 0.0
H1389 H 0.8791 0.81399 0.39873 0.0
H1390 H 0.78989 0.80492 0.40996 0.0
H1391 H 0.79806 0.77651 0.35248 0.0
H1392 H 0.80712 0.76653 0.36889 0.0
H1393 H 0.82586 0.79649 0.36227 0.0
C1394 C 0.82775 0.76693 0.41327 0.0
C1395 C 0.85288 0.78226 0.41073 0.0
C1396 C 0.8103 0.77092 0.40623 0.0
C1397 C 0.8175 0.7901 0.39634 0.0
C1398 C 0.84247 0.80539 0.39367 0.0
H1399 H 0.72949 0.8474 0.3585 0.0
H1400 H 0.76346 0.84288 0.36788 0.0
C1401 C 0.85998 0.80155 0.4008 0.0
C1402 C 0.79883 0.79441 0.38916 0.0
H1403 H 0.7707 0.79099 0.3558 0.0
C1404 C 0.78576 0.80199 0.39811 0.0
C1405 C 0.79346 0.7905 0.37371 0.0
C1406 C 0.80669 0.78192 0.36371 0.0
C1407 C 0.76747 0.80577 0.39201 0.0
C1408 C 0.76201 0.80174 0.37659 0.0
C1409 C 0.77506 0.79419 0.36761 0.0
C1410 C 0.74207 0.80442 0.36983 0.0
C1411 C 0.75374 0.81373 0.40206 0.0
C1412 C 0.71891 0.78427 0.36771 0.0
C1413 C 0.69952 0.78682 0.36235 0.0
C1414 C 0.70308 0.80949 0.35875 0.0
C1415 C 0.72636 0.82965 0.36078 0.0
C1416 C 0.74573 0.82711 0.36623 0.0
H1417 H 0.75919 0.81477 0.41397 0.0
H1418 H 0.75722 0.83161 0.39849 0.0
H1419 H 0.7338 0.80116 0.40105 0.0
H1420 H 0.71572 0.76664 0.37053 0.0
H1421 H 0.68166 0.77106 0.3611 0.0
H1422 H 0.22047 0.05477 0.43566 0.0
H1423 H 0.21175 0.01748 0.42338 0.0
H1424 H 0.23329 0.05392 0.38102 0.0
H1425 H 0.24321 0.09151 0.3933 0.0
H1426 H 0.17907 0.99281 0.40141 0.0
H1427 H 0.27283 0.02036 0.38226 0.0
H1428 H 0.26656 0.03749 0.39566 0.0
H1429 H 0.26215 0.03992 0.37601 0.0
C1430 C 0.22376 0.05495 0.42377 0.0
C1431 C 0.23268 0.07617 0.41548 0.0
C1432 C 0.21857 0.03358 0.41676 0.0
C1433 C 0.22221 0.03301 0.40134 0.0
C1434 C 0.23082 0.05406 0.39299 0.0
H1435 H 0.15856 0.90397 0.34687 0.0
H1436 H 0.16889 0.94204 0.35853 0.0
C1437 C 0.23616 0.07547 0.4 0.0
C1438 C 0.21641 0.01023 0.39395 0.0
H1439 H 0.24085 0.98363 0.37259 0.0
C1440 C 0.19258 0.99075 0.39515 0.0
C1441 C 0.23417 0.00753 0.38595 0.0
C1442 C 0.26042 0.02735 0.385 0.0
C1443 C 0.18594 0.96869 0.38843 0.0
C1444 C 0.20348 0.96625 0.37999 0.0
C1445 C 0.22737 0.98564 0.37893 0.0
C1446 C 0.19762 0.94352 0.3725 0.0
C1447 C 0.16038 0.94808 0.39072 0.0
C1448 C 0.21088 0.93212 0.3761 0.0
C1449 C 0.20538 0.91059 0.36921 0.0
C1450 C 0.1865 0.90006 0.35855 0.0
C1451 C 0.17338 0.91166 0.35489 0.0
C1452 C 0.17904 0.9333 0.3617 0.0
H1453 H 0.1516 0.95091 0.40066 0.0
H1454 H 0.14907 0.94638 0.3808 0.0
H1455 H 0.16037 0.931 0.39214 0.0
H1456 H 0.22535 0.93976 0.38438 0.0
H1457 H 0.21589 0.9022 0.37232 0.0
H1458 H 0.4556 0.59857 0.2764 0.0
H1459 H 0.48528 0.63636 0.28818 0.0
H1460 H 0.54419 0.62695 0.27214 0.0
H1461 H 0.51471 0.58909 0.26047 0.0
H1462 H 0.52117 0.64459 0.31 0.0
H1463 H 0.5629 0.69436 0.25765 0.0
H1464 H 0.53403 0.66674 0.2579 0.0
H1465 H 0.56216 0.66628 0.25923 0.0
C1466 C 0.47487 0.60447 0.27545 0.0
C1467 C 0.48278 0.59086 0.26741 0.0
C1468 C 0.49179 0.62611 0.28213 0.0
C1469 C 0.51693 0.63462 0.28083 0.0
C1470 C 0.52489 0.62097 0.27299 0.0
H1471 H 0.64747 0.76133 0.31296 0.0
H1472 H 0.61829 0.72291 0.30166 0.0
C1473 C 0.50801 0.59934 0.26632 0.0
C1474 C 0.53482 0.65756 0.28794 0.0
H1475 H 0.58226 0.71338 0.28036 0.0
C1476 C 0.53447 0.65968 0.30354 0.0
C1477 C 0.5522 0.67716 0.27946 0.0
C1478 C 0.5528 0.6762 0.26262 0.0
C1479 C 0.5513 0.68079 0.31092 0.0
C1480 C 0.56862 0.70042 0.30243 0.0
C1481 C 0.569 0.69828 0.28684 0.0
C1482 C 0.58625 0.72351 0.30949 0.0
C1483 C 0.55068 0.68171 0.32776 0.0
C1484 C 0.5779 0.73673 0.31746 0.0
C1485 C 0.59449 0.75865 0.32392 0.0
C1486 C 0.6198 0.76787 0.3225 0.0
C1487 C 0.62812 0.75472 0.31434 0.0
C1488 C 0.61148 0.73276 0.30787 0.0
H1489 H 0.54109 0.66353 0.33271 0.0
H1490 H 0.56943 0.69167 0.33249 0.0
H1491 H 0.54074 0.69106 0.33116 0.0
H1492 H 0.55853 0.73024 0.31853 0.0
H1493 H 0.5874 0.7685 0.32985 0.0
H1494 H 0.38068 0.86609 0.25088 0.0
H1495 H 0.3438 0.85984 0.26368 0.0
H1496 H 0.38587 0.89208 0.30362 0.0
H1497 H 0.42286 0.89829 0.2909 0.0
H1498 H 0.34218 0.85143 0.30974 0.0
H1499 H 0.32681 0.91137 0.27264 0.0
H1500 H 0.32852 0.88802 0.26281 0.0
H1501 H 0.35493 0.91059 0.27259 0.0
C1502 C 0.38214 0.87203 0.26235 0.0
C1503 C 0.40482 0.88289 0.2698 0.0
C1504 C 0.36101 0.86845 0.26967 0.0
C1505 C 0.36208 0.87587 0.28455 0.0
C1506 C 0.38457 0.88626 0.29213 0.0
H1507 H 0.24948 0.89748 0.32439 0.0
H1508 H 0.28799 0.9017 0.31542 0.0
C1509 C 0.40571 0.88975 0.28484 0.0
C1510 C 0.3398 0.87293 0.29219 0.0
H1511 H 0.29519 0.88791 0.2897 0.0
C1512 C 0.33194 0.85948 0.30541 0.0
C1513 C 0.32657 0.88366 0.28665 0.0
C1514 C 0.33473 0.89941 0.27298 0.0
C1515 C 0.31111 0.85625 0.31313 0.0
C1516 C 0.29747 0.86645 0.30737 0.0
C1517 C 0.3055 0.88002 0.29418 0.0
C1518 C 0.275 0.86368 0.31475 0.0
C1519 C 0.30435 0.84242 0.32756 0.0
C1520 C 0.25487 0.84096 0.31774 0.0
C1521 C 0.23297 0.83859 0.32316 0.0
C1522 C 0.23067 0.85889 0.32554 0.0
C1523 C 0.25087 0.88157 0.32281 0.0
C1524 C 0.27284 0.88396 0.31762 0.0
H1525 H 0.32031 0.84233 0.33272 0.0
H1526 H 0.29693 0.85006 0.33569 0.0
H1527 H 0.29019 0.8236 0.32532 0.0
H1528 H 0.25567 0.82496 0.31526 0.0
H1529 H 0.21752 0.82085 0.32477 0.0
H1530 H 0.09474 0.51963 0.28838 0.0
H1531 H 0.10564 0.49319 0.30159 0.0
H1532 H 0.12815 0.47641 0.26 0.0
H1533 H 0.11835 0.50369 0.24678 0.0
H1534 H 0.08836 0.44573 0.29856 0.0
H1535 H 0.18748 0.49587 0.28632 0.0
H1536 H 0.16779 0.50818 0.28305 0.0
H1537 H 0.16888 0.48777 0.26979 0.0
C1538 C 0.10231 0.51056 0.28206 0.0
C1539 C 0.10594 0.51399 0.26654 0.0
C1540 C 0.10837 0.49533 0.28962 0.0
C1541 C 0.11815 0.48321 0.28182 0.0
C1542 C 0.12116 0.48604 0.26628 0.0
H1543 H 0.12393 0.35881 0.30986 0.0
H1544 H 0.11395 0.38748 0.29911 0.0
C1545 C 0.11523 0.50138 0.25872 0.0
C1546 C 0.12477 0.46728 0.28994 0.0
H1547 H 0.17181 0.4568 0.29651 0.0
C1548 C 0.10664 0.44823 0.29819 0.0
C1549 C 0.14875 0.47085 0.28969 0.0
C1550 C 0.16941 0.49192 0.28187 0.0
C1551 C 0.11166 0.43223 0.30586 0.0
C1552 C 0.1353 0.43506 0.30494 0.0
C1553 C 0.15362 0.45452 0.29706 0.0
C1554 C 0.14125 0.41769 0.31173 0.0
C1555 C 0.09164 0.41259 0.31497 0.0
C1556 C 0.16045 0.42529 0.32208 0.0
C1557 C 0.16649 0.40896 0.32812 0.0
C1558 C 0.15339 0.38472 0.32393 0.0
C1559 C 0.13429 0.37726 0.31347 0.0
C1560 C 0.12839 0.39361 0.30738 0.0
H1561 H 0.07761 0.41727 0.3183 0.0
H1562 H 0.08243 0.39602 0.30815 0.0
H1563 H 0.09906 0.40882 0.32521 0.0
H1564 H 0.17079 0.44387 0.32546 0.0
H1565 H 0.1816 0.41543 0.33592 0.0
H1566 H 0.40747 0.48138 0.26425 0.0
H1567 H 0.37083 0.45329 0.27808 0.0
H1568 H 0.35881 0.511 0.29072 0.0
H1569 H 0.39524 0.53918 0.27675 0.0
H1570 H 0.36075 0.45643 0.3101 0.0
H1571 H 0.29305 0.45881 0.27128 0.0
H1572 H 0.32398 0.4682 0.26568 0.0
H1573 H 0.31789 0.4871 0.27746 0.0
C1574 C 0.39688 0.48806 0.26984 0.0
C1575 C 0.40419 0.51249 0.26934 0.0
C1576 C 0.37608 0.47203 0.27782 0.0
C1577 C 0.36206 0.48006 0.28533 0.0
C1578 C 0.36928 0.50442 0.28489 0.0
H1579 H 0.21945 0.39485 0.32776 0.0
H1580 H 0.25836 0.42901 0.31992 0.0
C1581 C 0.39017 0.5205 0.27699 0.0
C1582 C 0.3399 0.46289 0.29362 0.0
H1583 H 0.27766 0.4348 0.29268 0.0
C1584 C 0.34256 0.45174 0.30636 0.0
C1585 C 0.31625 0.45703 0.28878 0.0
C1586 C 0.31243 0.46823 0.275 0.0
C1587 C 0.32213 0.43467 0.31433 0.0
C1588 C 0.2984 0.42815 0.30919 0.0
C1589 C 0.29582 0.4398 0.29665 0.0
C1590 C 0.276 0.40816 0.3159 0.0
C1591 C 0.32624 0.4239 0.32821 0.0
C1592 C 0.27301 0.38512 0.31643 0.0
C1593 C 0.25095 0.36571 0.32113 0.0
C1594 C 0.2314 0.3689 0.32535 0.0
C1595 C 0.23442 0.39197 0.32498 0.0
C1596 C 0.25659 0.41146 0.32038 0.0
H1597 H 0.34404 0.43638 0.33354 0.0
H1598 H 0.31151 0.41912 0.33651 0.0
H1599 H 0.3266 0.40744 0.32512 0.0
H1600 H 0.28739 0.38195 0.31262 0.0
H1601 H 0.2489 0.34802 0.32103 0.0
H1602 H 0.48871 0.86316 0.25059 0.0
H1603 H 0.51942 0.8566 0.26293 0.0
H1604 H 0.51528 0.89315 0.30223 0.0
H1605 H 0.48419 0.89934 0.29002 0.0
H1606 H 0.56362 0.88808 0.2723 0.0
H1607 H 0.51076 0.83474 0.32106 0.0
H1608 H 0.49656 0.84067 0.3054 0.0
H1609 H 0.51162 0.86285 0.31977 0.0
C1610 C 0.49427 0.86971 0.26189 0.0
C1611 C 0.48394 0.88172 0.26933 0.0
C1612 C 0.51179 0.86589 0.26896 0.0
C1613 C 0.51948 0.87402 0.28363 0.0
C1614 C 0.50922 0.88607 0.29109 0.0
H1615 H 0.65828 0.89799 0.31989 0.0
H1616 H 0.62432 0.90232 0.31034 0.0
C1617 C 0.4915 0.8897 0.28406 0.0
C1618 C 0.53917 0.87101 0.29073 0.0
H1619 H 0.5537 0.84955 0.3217 0.0
C1620 C 0.56136 0.87956 0.28308 0.0
C1621 C 0.53623 0.85963 0.30473 0.0
C1622 C 0.51242 0.84873 0.31315 0.0
C1623 C 0.58069 0.8773 0.28904 0.0
C1624 C 0.57811 0.86679 0.30329 0.0
C1625 C 0.55582 0.85792 0.31088 0.0
C1626 C 0.59818 0.86439 0.31028 0.0
C1627 C 0.60349 0.88572 0.2798 0.0
C1628 C 0.5946 0.84174 0.31403 0.0
C1629 C 0.61391 0.8393 0.31968 0.0
C1630 C 0.63707 0.8595 0.3219 0.0
C1631 C 0.64054 0.88216 0.31838 0.0
C1632 C 0.6212 0.88462 0.31283 0.0
H1633 H 0.59993 0.88685 0.26775 0.0
H1634 H 0.6175 0.90384 0.28358 0.0
H1635 H 0.61109 0.8736 0.28106 0.0
H1636 H 0.57702 0.82586 0.31218 0.0
H1637 H 0.61084 0.82156 0.32195 0.0
H1638 H 0.07497 0.5919 0.25877 0.0
H1639 H 0.08545 0.62987 0.27079 0.0
H1640 H 0.15339 0.63692 0.28628 0.0
H1641 H 0.14356 0.59949 0.27377 0.0
H1642 H 0.09423 0.64167 0.30068 0.0
H1643 H 0.17558 0.70134 0.26673 0.0
H1644 H 0.15423 0.67098 0.26126 0.0
H1645 H 0.1771 0.67697 0.27523 0.0
C1646 C 0.09233 0.60172 0.26452 0.0
C1647 C 0.10849 0.59273 0.26525 0.0
C1648 C 0.09819 0.62331 0.27148 0.0
C1649 C 0.12033 0.63634 0.27924 0.0
C1650 C 0.13642 0.62736 0.2801 0.0
H1651 H 0.18467 0.7672 0.33143 0.0
H1652 H 0.1747 0.72909 0.31983 0.0
C1653 C 0.13063 0.60582 0.2731 0.0
C1654 C 0.12623 0.659 0.2868 0.0
H1655 H 0.16811 0.7186 0.28808 0.0
C1656 C 0.11032 0.65852 0.29789 0.0
C1657 C 0.14726 0.68092 0.28312 0.0
C1658 C 0.16442 0.68272 0.27084 0.0
C1659 C 0.11504 0.67936 0.30555 0.0
C1660 C 0.13607 0.70122 0.30189 0.0
C1661 C 0.15204 0.70173 0.29086 0.0
C1662 C 0.14162 0.72389 0.30922 0.0
C1663 C 0.09772 0.67781 0.31765 0.0
C1664 C 0.12637 0.73358 0.30697 0.0
C1665 C 0.13195 0.75532 0.31359 0.0
C1666 C 0.15292 0.76772 0.32258 0.0
C1667 C 0.16821 0.75796 0.32475 0.0
C1668 C 0.16263 0.73625 0.31808 0.0
H1669 H 0.08562 0.65911 0.32138 0.0
H1670 H 0.10795 0.68886 0.32746 0.0
H1671 H 0.08604 0.68477 0.31328 0.0
H1672 H 0.11027 0.72444 0.29996 0.0
H1673 H 0.11985 0.76237 0.31164 0.0
H1674 H 0.82638 0.07873 0.42155 0.0
H1675 H 0.79667 0.04078 0.40999 0.0
H1676 H 0.85542 0.03317 0.39162 0.0
H1677 H 0.88524 0.07068 0.40353 0.0
H1678 H 0.79032 0.02794 0.37974 0.0
H1679 H 0.81353 0.96929 0.41277 0.0
H1680 H 0.82347 -0.00023 0.41811 0.0
H1681 H 0.83916 0.99355 0.40361 0.0
C1682 C 0.83299 0.06884 0.41521 0.0
C1683 C 0.8582 0.07767 0.41355 0.0
C1684 C 0.81599 0.04724 0.40853 0.0
C1685 C 0.82384 0.03399 0.40013 0.0
C1686 C 0.84896 0.04289 0.39828 0.0
H1687 H 0.75276 0.90129 0.35036 0.0
H1688 H 0.78149 0.93957 0.36177 0.0
C1689 C 0.86598 0.06448 0.40495 0.0
C1690 C 0.80574 0.01105 0.39311 0.0
H1691 H 0.78667 0.9514 0.39217 0.0
C1692 C 0.78941 0.01117 0.38251 0.0
C1693 C 0.80462 0.98921 0.39675 0.0
C1694 C 0.82096 0.9878 0.40853 0.0
C1695 C 0.77231 0.9901 0.37519 0.0
C1696 C 0.77129 0.9683 0.37877 0.0
C1697 C 0.78754 0.96816 0.38943 0.0
C1698 C 0.75362 0.94541 0.37153 0.0
C1699 C 0.75589 0.99144 0.36344 0.0
C1700 C 0.72838 0.93588 0.37331 0.0
C1701 C 0.71183 0.91402 0.3667 0.0
C1702 C 0.72025 0.90124 0.35822 0.0
C1703 C 0.74558 0.91079 0.35658 0.0
C1704 C 0.76207 0.93263 0.36318 0.0
H1705 H 0.76296 0.01002 0.35942 0.0
H1706 H 0.75385 0.97987 0.35372 0.0
H1707 H 0.73752 0.9851 0.36828 0.0
H1708 H 0.72147 0.94521 0.37997 0.0
H1709 H 0.69247 0.90714 0.36828 0.0
H1710 H 0.9575 0.80236 0.4288 0.0
H1711 H 0.99477 0.80986 0.41592 0.0
H1712 H 0.9523 0.77269 0.37699 0.0
H1713 H 0.91502 0.76556 0.38974 0.0
H1714 H 0.00778 0.7795 0.40607 0.0
H1715 H 0.00562 0.83175 0.3577 0.0
H1716 H 0.98587 0.8253 0.37364 0.0
H1717 H 0.9783 0.80323 0.3592 0.0
C1718 C 0.9561 0.79583 0.41748 0.0
C1719 C 0.93327 0.78341 0.41029 0.0
C1720 C 0.97745 0.80021 0.41009 0.0
C1721 C 0.97653 0.79223 0.39535 0.0
C1722 C 0.9537 0.77968 0.38817 0.0
H1723 H 0.09027 0.76997 0.35754 0.0
H1724 H 0.05185 0.76564 0.36683 0.0
C1725 C 0.93235 0.77549 0.39551 0.0
C1726 C 0.99926 0.79591 0.38788 0.0
H1727 H 0.03415 0.81776 0.35636 0.0
C1728 C 0.01355 0.78798 0.39524 0.0
C1729 C 0.00711 0.80727 0.3738 0.0
C1730 C 0.99357 0.8176 0.36569 0.0
C1731 C 0.03511 0.79072 0.38889 0.0
C1732 C 0.04237 0.8011 0.37453 0.0
C1733 C 0.0284 0.80947 0.36726 0.0
C1734 C 0.06459 0.80359 0.36709 0.0
C1735 C 0.05016 0.78287 0.3978 0.0
C1736 C 0.08414 0.82626 0.36336 0.0
C1737 C 0.10604 0.82872 0.35786 0.0
C1738 C 0.10862 0.80851 0.35582 0.0
C1739 C 0.08871 0.78581 0.35898 0.0
C1740 C 0.06683 0.78335 0.36438 0.0
H1741 H 0.04604 0.78179 0.40994 0.0
H1742 H 0.04589 0.76482 0.39401 0.0
H1743 H 0.07 0.79531 0.39622 0.0
H1744 H 0.08282 0.84213 0.36528 0.0
H1745 H 0.1212 0.84646 0.35575 0.0
H1746 H 0.19525 0.12489 0.40744 0.0
H1747 H 0.1856 0.15197 0.39387 0.0
H1748 H 0.2541 0.21205 0.40808 0.0
H1749 H 0.2644 0.18502 0.42112 0.0
H1750 H 0.18049 0.18909 0.40414 0.0
H1751 H 0.25616 0.2219 0.36321 0.0
H1752 H 0.2477 0.19613 0.37484 0.0
H1753 H 0.26635 0.22578 0.38227 0.0
C1754 C 0.20842 0.14384 0.40752 0.0
C1755 C 0.23071 0.15277 0.41525 0.0
C1756 C 0.20279 0.1593 0.39984 0.0
C1757 C 0.21933 0.18396 0.39973 0.0
C1758 C 0.24132 0.19301 0.40774 0.0
H1759 H 0.21898 0.30916 0.36772 0.0
H1760 H 0.22756 0.2799 0.37926 0.0
C1761 C 0.24702 0.17756 0.41536 0.0
C1762 C 0.21336 0.20025 0.39147 0.0
H1763 H 0.23412 0.24291 0.36425 0.0
C1764 C 0.19209 0.20072 0.39533 0.0
C1765 C 0.22849 0.21531 0.37993 0.0
C1766 C 0.25082 0.21464 0.3747 0.0
C1767 C 0.18592 0.21636 0.38826 0.0
C1768 C 0.20132 0.23173 0.37696 0.0
C1769 C 0.22241 0.23109 0.37296 0.0
C1770 C 0.19626 0.24921 0.36951 0.0
C1771 C 0.16335 0.21684 0.39317 0.0
C1772 C 0.17599 0.24157 0.36004 0.0
C1773 C 0.17103 0.25824 0.35337 0.0
C1774 C 0.18629 0.28284 0.35609 0.0
C1775 C 0.2068 0.29038 0.36542 0.0
C1776 C 0.21178 0.2737 0.37201 0.0
H1777 H 0.15583 0.20693 0.40377 0.0
H1778 H 0.16741 0.23554 0.39471 0.0
H1779 H 0.14909 0.20847 0.38439 0.0
H1780 H 0.16396 0.2227 0.35787 0.0
H1781 H 0.15501 0.25182 0.34632 0.0
H1782 H 0.58261 0.48908 0.7245 0.0
H1783 H 0.61924 0.51796 0.71105 0.0
H1784 H 0.66348 0.52403 0.7494 0.0
H1785 H 0.6268 0.49559 0.76301 0.0
H1786 H 0.67607 0.56654 0.73885 0.0
H1787 H 0.67121 0.5094 0.69131 0.0
H1788 H 0.64402 0.51136 0.69307 0.0
H1789 H 0.65225 0.4975 0.70766 0.0
C1790 C 0.60019 0.49645 0.73001 0.0
C1791 C 0.60185 0.49004 0.7448 0.0
C1792 C 0.62115 0.51283 0.72227 0.0
C1793 C 0.64425 0.52282 0.72907 0.0
C1794 C 0.6459 0.51649 0.74387 0.0
H1795 H 0.78694 0.60747 0.68745 0.0
H1796 H 0.74848 0.57457 0.69701 0.0
C1797 C 0.62493 0.50032 0.75167 0.0
C1798 C 0.66655 0.54083 0.72109 0.0
H1799 H 0.69955 0.55123 0.68893 0.0
C1800 C 0.68123 0.56309 0.72797 0.0
C1801 C 0.67355 0.53629 0.70696 0.0
C1802 C 0.65957 0.51225 0.69938 0.0
C1803 C 0.7024 0.58101 0.72109 0.0
C1804 C 0.70876 0.5769 0.70666 0.0
C1805 C 0.69441 0.5545 0.69986 0.0
C1806 C 0.73058 0.5956 0.69872 0.0
C1807 C 0.71804 0.60402 0.72952 0.0
C1808 C 0.73288 0.61799 0.69584 0.0
C1809 C 0.75483 0.63678 0.69047 0.0
C1810 C 0.77465 0.63334 0.6875 0.0
C1811 C 0.77185 0.61052 0.68944 0.0
C1812 C 0.74991 0.59175 0.69496 0.0
H1813 H 0.71457 0.60172 0.74174 0.0
H1814 H 0.73776 0.61077 0.72758 0.0
H1815 H 0.71368 0.61777 0.72563 0.0
H1816 H 0.71801 0.62121 0.69831 0.0
H1817 H 0.7566 0.65423 0.68907 0.0
H1818 H 0.48867 0.08203 0.75092 0.0
H1819 H 0.45822 0.08885 0.73849 0.0
H1820 H 0.51528 0.15743 0.7231 0.0
H1821 H 0.5459 0.15051 0.73533 0.0
H1822 H 0.44637 0.12253 0.74324 0.0
H1823 H 0.47837 0.1302 0.68477 0.0
H1824 H 0.48962 0.11946 0.69966 0.0
H1825 H 0.50141 0.15101 0.6973 0.0
C1826 C 0.49475 0.09858 0.7449 0.0
C1827 C 0.51975 0.11571 0.74411 0.0
C1828 C 0.47732 0.10242 0.73773 0.0
C1829 C 0.48439 0.12349 0.72961 0.0
C1830 C 0.50933 0.14074 0.72891 0.0
H1831 H 0.3957 0.17957 0.69104 0.0
H1832 H 0.42968 0.17511 0.70044 0.0
C1833 C 0.52684 0.13681 0.73598 0.0
C1834 C 0.46548 0.12764 0.72246 0.0
H1835 H 0.44706 0.13966 0.68915 0.0
C1836 C 0.44653 0.12618 0.7314 0.0
C1837 C 0.46562 0.13248 0.70698 0.0
C1838 C 0.4847 0.13317 0.69658 0.0
C1839 C 0.42787 0.12943 0.72536 0.0
C1840 C 0.42803 0.13422 0.70994 0.0
C1841 C 0.44705 0.13602 0.70098 0.0
C1842 C 0.4081 0.13675 0.70299 0.0
C1843 C 0.40808 0.12784 0.7355 0.0
C1844 C 0.38485 0.11663 0.70106 0.0
C1845 C 0.36553 0.11911 0.69551 0.0
C1846 C 0.36914 0.14172 0.69165 0.0
C1847 C 0.3925 0.16185 0.69349 0.0
C1848 C 0.4119 0.15935 0.69895 0.0
H1849 H 0.41263 0.12786 0.7475 0.0
H1850 H 0.40489 0.14302 0.73342 0.0
H1851 H 0.39077 0.11107 0.73308 0.0
H1852 H 0.38156 0.09905 0.70412 0.0
H1853 H 0.34763 0.10336 0.69441 0.0
H1854 H 0.88653 0.38758 0.76834 0.0
H1855 H 0.87784 0.35051 0.75575 0.0
H1856 H 0.89731 0.38726 0.71344 0.0
H1857 H 0.90714 0.42461 0.72601 0.0
H1858 H 0.84459 0.32551 0.73387 0.0
H1859 H 0.93841 0.35515 0.71384 0.0
H1860 H 0.93193 0.3717 0.72756 0.0
H1861 H 0.92694 0.37428 0.70802 0.0
C1862 C 0.88932 0.38786 0.75639 0.0
C1863 C 0.89768 0.40911 0.7482 0.0
C1864 C 0.88416 0.36663 0.7492 0.0
C1865 C 0.88729 0.36622 0.7337 0.0
C1866 C 0.89525 0.38728 0.72546 0.0
H1867 H 0.82524 0.23715 0.67912 0.0
H1868 H 0.83503 0.2752 0.69064 0.0
C1869 C 0.90054 0.40855 0.73264 0.0
C1870 C 0.8818 0.34365 0.72615 0.0
H1871 H 0.90683 0.31808 0.70437 0.0
C1872 C 0.8582 0.32384 0.72745 0.0
C1873 C 0.89969 0.34147 0.71794 0.0
C1874 C 0.92573 0.3617 0.71686 0.0
C1875 C 0.85192 0.30193 0.72063 0.0
C1876 C 0.86958 0.29998 0.71202 0.0
C1877 C 0.89325 0.31972 0.71084 0.0
C1878 C 0.86415 0.27737 0.70454 0.0
C1879 C 0.8266 0.28094 0.72303 0.0
C1880 C 0.87784 0.2664 0.70812 0.0
C1881 C 0.87262 0.24488 0.70134 0.0
C1882 C 0.8536 0.23392 0.6908 0.0
C1883 C 0.84013 0.24515 0.68708 0.0
C1884 C 0.8455 0.26678 0.6938 0.0
H1885 H 0.81771 0.28355 0.73298 0.0
H1886 H 0.81511 0.27889 0.71313 0.0
H1887 H 0.82709 0.26412 0.72445 0.0
H1888 H 0.89238 0.27434 0.71634 0.0
H1889 H 0.8834 0.23679 0.70448 0.0
H1890 H 0.12006 0.93197 0.61019 0.0
H1891 H 0.15004 0.96958 0.62202 0.0
H1892 H 0.20856 0.96174 0.60348 0.0
H1893 H 0.17877 0.92409 0.59173 0.0
H1894 H 0.18704 0.97776 0.6427 0.0
H1895 H 0.22583 0.02925 0.59048 0.0
H1896 H 0.19727 0.00133 0.59084 0.0
H1897 H 0.22574 0.00143 0.59131 0.0
C1898 C 0.13931 0.93819 0.60869 0.0
C1899 C 0.14702 0.92509 0.59993 0.0
C1900 C 0.1564 0.95973 0.6154 0.0
C1901 C 0.18151 0.96863 0.61343 0.0
C1902 C 0.18927 0.95548 0.60486 0.0
H1903 H 0.3126 0.09516 0.64526 0.0
H1904 H 0.28331 0.057 0.63373 0.0
C1905 C 0.17221 0.93396 0.59814 0.0
C1906 C 0.19958 0.99144 0.62059 0.0
H1907 H 0.24621 0.04773 0.61308 0.0
C1908 C 0.19992 0.9931 0.63624 0.0
C1909 C 0.2164 0.01138 0.61212 0.0
C1910 C 0.21624 0.01093 0.59525 0.0
C1911 C 0.21689 0.01409 0.64367 0.0
C1912 C 0.23367 0.03406 0.63519 0.0
C1913 C 0.23337 0.03237 0.61955 0.0
C1914 C 0.25137 0.05703 0.64234 0.0
C1915 C 0.21702 0.01456 0.66053 0.0
C1916 C 0.2431 0.06985 0.65081 0.0
C1917 C 0.25975 0.09164 0.65739 0.0
C1918 C 0.28504 0.1011 0.65561 0.0
C1919 C 0.29327 0.08836 0.64693 0.0
C1920 C 0.27657 0.06654 0.64033 0.0
H1921 H 0.20778 0.99624 0.6653 0.0
H1922 H 0.23597 0.02451 0.66497 0.0
H1923 H 0.20713 0.02368 0.66446 0.0
H1924 H 0.22373 0.06315 0.65219 0.0
H1925 H 0.25271 0.10117 0.66372 0.0
H1926 H 0.06244 0.18206 0.61119 0.0
H1927 H 0.02501 0.17498 0.62376 0.0
H1928 H 0.03663 0.24289 0.60793 0.0
H1929 H 0.0739 0.25 0.59528 0.0
H1930 H 0.01714 0.19973 0.64574 0.0
H1931 H 0.96718 0.19863 0.59457 0.0
H1932 H 0.99498 0.19727 0.59393 0.0
H1933 H 0.99617 0.22551 0.59635 0.0
C1934 C 0.05706 0.19552 0.61042 0.0
C1935 C 0.07111 0.21652 0.6021 0.0
C1936 C 0.0356 0.19142 0.61758 0.0
C1937 C 0.02766 0.20817 0.61656 0.0
C1938 C 0.04193 0.22936 0.60854 0.0
H1939 H 0.91447 0.22944 0.65384 0.0
H1940 H 0.95238 0.23301 0.64413 0.0
C1941 C 0.0633 0.23342 0.60131 0.0
C1942 C 0.00472 0.20372 0.62407 0.0
H1943 H 0.95021 0.20146 0.61779 0.0
C1944 C 1.00239 0.19982 0.63959 0.0
C1945 C 0.98536 0.20375 0.61607 0.0
C1946 C 0.98588 0.20626 0.59929 0.0
C1947 C 0.98165 0.19674 0.64734 0.0
C1948 C 0.96276 0.19758 0.6394 0.0
C1949 C 0.96483 0.20101 0.62388 0.0
C1950 C 0.94092 0.19564 0.64698 0.0
C1951 C 0.9804 0.19362 0.66405 0.0
C1952 C 0.92199 0.17346 0.65197 0.0
C1953 C 0.90022 0.17136 0.65745 0.0
C1954 C 0.89717 0.19147 0.65819 0.0
C1955 C 0.91645 0.21372 0.65357 0.0
C1956 C 0.93808 0.21578 0.64801 0.0
H1957 H 0.99692 0.19405 0.66869 0.0
H1958 H 0.9784 0.2081 0.66933 0.0
H1959 H 0.96414 0.17632 0.66705 0.0
H1960 H 0.92368 0.15763 0.65109 0.0
H1961 H 0.88549 0.15387 0.66053 0.0
H1962 H 0.78475 0.83731 0.57898 0.0
H1963 H 0.794 0.80934 0.59178 0.0
H1964 H 0.77281 0.82628 0.63379 0.0
H1965 H 0.76239 0.85338 0.621 0.0
H1966 H 0.82729 0.81822 0.61383 0.0
H1967 H 0.73401 0.75397 0.63372 0.0
H1968 H 0.7398 0.77653 0.61992 0.0
H1969 H 0.7445 0.78421 0.63945 0.0
C1970 C 0.78162 0.83476 0.5909 0.0
C1971 C 0.77271 0.84751 0.59895 0.0
C1972 C 0.78713 0.81893 0.59822 0.0
C1973 C 0.7838 0.81551 0.61371 0.0
C1974 C 0.77508 0.8283 0.62179 0.0
H1975 H 0.8486 0.74916 0.66824 0.0
H1976 H 0.8384 0.77755 0.65699 0.0
C1977 C 0.76942 0.84402 0.61448 0.0
C1978 C 0.79004 0.79897 0.62142 0.0
H1979 H 0.76632 0.7491 0.64326 0.0
C1980 C 0.81397 0.80307 0.62024 0.0
C1981 C 0.77254 0.7791 0.62966 0.0
C1982 C 0.74622 0.773 0.63067 0.0
C1983 C 0.82092 0.78786 0.62712 0.0
C1984 C 0.80358 0.76835 0.63568 0.0
C1985 C 0.77964 0.76423 0.63682 0.0
C1986 C 0.80951 0.75126 0.64293 0.0
C1987 C 0.84655 0.79245 0.6248 0.0
C1988 C 0.79617 0.72696 0.63912 0.0
C1989 C 0.80159 0.71063 0.64575 0.0
C1990 C 0.8205 0.71826 0.65636 0.0
C1991 C 0.83377 0.74262 0.66024 0.0
C1992 C 0.82817 0.75894 0.65368 0.0
H1993 H 0.85537 0.80408 0.61496 0.0
H1994 H 0.85776 0.80163 0.6348 0.0
H1995 H 0.84665 0.77545 0.62321 0.0
H1996 H 0.78166 0.72065 0.63088 0.0
H1997 H 0.79097 0.69204 0.64246 0.0
H1998 H 0.08892 0.84908 0.62298 0.0
H1999 H 0.0529 0.81946 0.63663 0.0
H2000 H 0.00812 0.80885 0.59776 0.0
H2001 H 0.04409 0.83821 0.584 0.0
H2002 H 0.00978 0.81733 0.6439 0.0
H2003 H 0.99242 0.74137 0.60704 0.0
H2004 H 0.02034 0.76979 0.60624 0.0
H2005 H 0.99317 0.76584 0.59711 0.0
C2006 C 0.07137 0.8405 0.61737 0.0
C2007 C 0.06937 0.84582 0.60237 0.0
C2008 C 0.05082 0.82357 0.62518 0.0
C2009 C 0.02788 0.81163 0.61815 0.0
C2010 C 0.02573 0.81738 0.6033 0.0
H2011 H 0.88514 0.72716 0.65933 0.0
H2012 H 0.92374 0.7602 0.65024 0.0
C2013 C 0.04629 0.83416 0.59545 0.0
C2014 C 0.00626 0.79302 0.6263 0.0
H2015 H 0.96146 0.73449 0.62454 0.0
C2016 C 0.99926 0.79916 0.63973 0.0
C2017 C 0.99277 0.76924 0.62097 0.0
C2018 C 1.00017 0.76106 0.60713 0.0
C2019 C 0.97888 0.78225 0.64785 0.0
C2020 C 0.96486 0.75867 0.64223 0.0
C2021 C 0.97211 0.75254 0.62888 0.0
C2022 C 0.94254 0.73988 0.64981 0.0
C2023 C 0.97293 0.78974 0.66249 0.0
C2024 C 0.9401 0.71739 0.65264 0.0
C2025 C 0.9179 0.69841 0.65756 0.0
C2026 C 0.89785 0.70164 0.66005 0.0
C2027 C 0.9005 0.72435 0.65786 0.0
C2028 C 0.92264 0.74329 0.6527 0.0
H2029 H 0.98921 0.80543 0.6674 0.0
H2030 H 0.95879 0.79484 0.66059 0.0
H2031 H 0.96578 0.77493 0.67068 0.0
H2032 H 0.95513 0.71426 0.65049 0.0
H2033 H 0.91618 0.68099 0.65902 0.0
H2034 H 0.14804 0.22977 0.62326 0.0
H2035 H 0.17902 0.22343 0.63549 0.0
H2036 H 0.18814 0.19291 0.59483 0.0
H2037 H 0.15716 0.19912 0.58254 0.0
H2038 H 0.18137 0.18221 0.64041 0.0
H2039 H 0.25783 0.24512 0.60434 0.0
H2040 H 0.22879 0.24409 0.6047 0.0
H2041 H 0.23224 0.22217 0.59425 0.0
C2042 C 0.15646 0.2215 0.61695 0.0
C2043 C 0.15021 0.21513 0.60186 0.0
C2044 C 0.17426 0.21798 0.62395 0.0
C2045 C 0.18626 0.2081 0.61601 0.0
C2046 C 0.1796 0.20112 0.60108 0.0
H2047 H 0.27585 0.1537 0.6559 0.0
H2048 H 0.24202 0.15744 0.64578 0.0
C2049 C 0.16185 0.20467 0.59407 0.0
C2050 C 0.20574 0.20512 0.62337 0.0
H2051 H 0.26604 0.22156 0.621 0.0
C2052 C 0.19993 0.19087 0.63622 0.0
C2053 C 0.23 0.21659 0.61798 0.0
C2054 C 0.23772 0.23303 0.60464 0.0
C2055 C 0.21762 0.18765 0.64377 0.0
C2056 C 0.24186 0.19874 0.63823 0.0
C2057 C 0.24759 0.21304 0.62536 0.0
C2058 C 0.26175 0.19618 0.64554 0.0
C2059 C 0.21013 0.17288 0.65782 0.0
C2060 C 0.28448 0.21657 0.64861 0.0
C2061 C 0.30403 0.21439 0.6541 0.0
C2062 C 0.3012 0.1918 0.65699 0.0
C2063 C 0.2784 0.17138 0.65424 0.0
C2064 C 0.25895 0.17353 0.64847 0.0
H2065 H 0.19407 0.17247 0.66314 0.0
H2066 H 0.20504 0.15421 0.65504 0.0
H2067 H 0.22528 0.18 0.66599 0.0
H2068 H 0.28728 0.23427 0.64646 0.0
H2069 H 0.32151 0.23039 0.65594 0.0
H2070 H 0.74226 0.9259 0.59194 0.0
H2071 H 0.75276 0.96354 0.60443 0.0
H2072 H 0.8207 0.97015 0.61952 0.0
H2073 H 0.81086 0.93309 0.60652 0.0
H2074 H 0.76132 0.97431 0.63437 0.0
H2075 H 0.84304 0.03526 0.6011 0.0
H2076 H 0.82181 0.00508 0.59523 0.0
H2077 H 0.84453 0.01063 0.60922 0.0
C2078 C 0.75964 0.93558 0.59769 0.0
C2079 C 0.77578 0.92655 0.59817 0.0
C2080 C 0.76551 0.95697 0.60492 0.0
C2081 C 0.78764 0.96978 0.61273 0.0
C2082 C 0.80374 0.96078 0.61331 0.0
H2083 H 0.85091 0.09962 0.66627 0.0
H2084 H 0.84127 0.06159 0.65465 0.0
C2085 C 0.79794 0.93944 0.60603 0.0
C2086 C 0.79348 0.99216 0.62065 0.0
H2087 H 0.83525 0.05174 0.62271 0.0
C2088 C 0.77743 0.99126 0.63179 0.0
C2089 C 0.81455 0.01422 0.61727 0.0
C2090 C 0.83187 0.01649 0.60496 0.0
C2091 C 0.78201 0.01182 0.63974 0.0
C2092 C 0.80304 0.03383 0.63634 0.0
C2093 C 0.81919 0.03475 0.6253 0.0
C2094 C 0.80828 0.0563 0.64384 0.0
C2095 C 0.7645 0.00984 0.65183 0.0
C2096 C 0.79294 0.06587 0.64154 0.0
C2097 C 0.79836 0.08756 0.64815 0.0
C2098 C 0.81924 0.10006 0.65719 0.0
C2099 C 0.83453 0.09033 0.65951 0.0
C2100 C 0.82913 0.06867 0.65284 0.0
H2101 H 0.75246 0.99102 0.65538 0.0
H2102 H 0.77455 0.02067 0.66175 0.0
H2103 H 0.75275 0.01678 0.64754 0.0
H2104 H 0.77696 0.05672 0.63443 0.0
H2105 H 0.78623 0.09457 0.64608 0.0
H2106 H 0.51938 0.42851 0.72654 0.0
H2107 H 0.48876 0.39112 0.71473 0.0
H2108 H 0.49422 0.35129 0.75176 0.0
H2109 H 0.52402 0.38868 0.76385 0.0
H2110 H 0.49018 0.35399 0.70467 0.0
H2111 H 0.42216 0.32318 0.75016 0.0
H2112 H 0.44843 0.35284 0.74988 0.0
H2113 H 0.45107 0.328 0.75674 0.0
C2114 C 0.51395 0.41173 0.73214 0.0
C2115 C 0.52384 0.41143 0.74615 0.0
C2116 C 0.49646 0.3904 0.72541 0.0
C2117 C 0.48871 0.36836 0.7325 0.0
C2118 C 0.49921 0.36805 0.7463 0.0
H2119 H 0.41769 0.23063 0.68776 0.0
H2120 H 0.44646 0.26919 0.69879 0.0
C2121 C 0.51637 0.38939 0.75315 0.0
C2122 C 0.4701 0.34571 0.72531 0.0
H2123 H 0.41646 0.29404 0.73168 0.0
C2124 C 0.47395 0.34098 0.71054 0.0
C2125 C 0.44863 0.32888 0.73282 0.0
C2126 C 0.44218 0.33359 0.74821 0.0
C2127 C 0.4573 0.31972 0.70322 0.0
C2128 C 0.43661 0.30226 0.71107 0.0
C2129 C 0.43246 0.30723 0.72571 0.0
C2130 C 0.41906 0.27871 0.70437 0.0
C2131 C 0.46187 0.3165 0.68706 0.0
C2132 C 0.39389 0.27064 0.70435 0.0
C2133 C 0.37729 0.24827 0.69836 0.0
C2134 C 0.38557 0.23364 0.69214 0.0
C2135 C 0.41074 0.24165 0.69226 0.0
C2136 C 0.42727 0.26381 0.69847 0.0
H2137 H 0.47309 0.334 0.68145 0.0
H2138 H 0.4721 0.3067 0.68649 0.0
H2139 H 0.44451 0.3062 0.68075 0.0
H2140 H 0.38707 0.28172 0.70892 0.0
H2141 H 0.35802 0.24261 0.69843 0.0
H2142 H 0.60834 0.15106 0.73516 0.0
H2143 H 0.64548 0.1585 0.72194 0.0
H2144 H 0.63394 0.08991 0.73616 0.0
H2145 H 0.59682 0.08233 0.74938 0.0
H2146 H 0.68806 0.15659 0.73582 0.0
H2147 H 0.64308 0.09258 0.68899 0.0
H2148 H 0.62764 0.10472 0.69979 0.0
H2149 H 0.6321 0.08153 0.70748 0.0
C2150 C 0.61362 0.13749 0.73538 0.0
C2151 C 0.59959 0.11608 0.74332 0.0
C2152 C 0.63489 0.14181 0.72787 0.0
C2153 C 0.64234 0.12467 0.72795 0.0
C2154 C 0.62839 0.10329 0.73584 0.0
H2155 H 0.75812 0.10496 0.69419 0.0
H2156 H 0.72003 0.10166 0.7032 0.0
C2157 C 0.60729 0.09906 0.74348 0.0
C2158 C 0.66503 0.12929 0.72013 0.0
H2159 H 0.68597 0.10989 0.69122 0.0
C2160 C 0.68767 0.14657 0.72598 0.0
C2161 C 0.66442 0.11614 0.70734 0.0
C2162 C 0.64054 0.09779 0.7004 0.0
C2163 C 0.70976 0.15042 0.71974 0.0
C2164 C 0.70921 0.13707 0.70699 0.0
C2165 C 0.68647 0.12017 0.70094 0.0
C2166 C 0.73187 0.13917 0.7004 0.0
C2167 C 0.73342 0.16796 0.7273 0.0
C2168 C 0.75111 0.16125 0.69544 0.0
C2169 C 0.77304 0.16319 0.69043 0.0
C2170 C 0.77586 0.14295 0.68987 0.0
C2171 C 0.75633 0.12079 0.69436 0.0
C2172 C 0.73456 0.1189 0.69949 0.0
H2173 H 0.73043 0.17198 0.73892 0.0
H2174 H 0.74632 0.16101 0.7276 0.0
H2175 H 0.74209 0.18498 0.72097 0.0
H2176 H 0.74935 0.17707 0.69568 0.0
H2177 H 0.7879 0.18059 0.68733 0.0
H2178 H 0.85895 0.4584 0.74374 0.0
H2179 H 0.84847 0.48551 0.73079 0.0
H2180 H 0.92085 0.54444 0.7394 0.0
H2181 H 0.93155 0.51741 0.75224 0.0
H2182 H 0.85175 0.52953 0.74276 0.0
H2183 H 0.91007 0.5441 0.69296 0.0
H2184 H 0.90063 0.51894 0.70535 0.0
H2185 H 0.92473 0.54801 0.71082 0.0
C2186 C 0.87265 0.47712 0.74281 0.0
C2187 C 0.8961 0.4858 0.74893 0.0
C2188 C 0.86661 0.49256 0.73549 0.0
C2189 C 0.88399 0.51685 0.73402 0.0
C2190 C 0.9073 0.52566 0.74029 0.0
H2191 H 0.88091 0.64173 0.70468 0.0
H2192 H 0.88925 0.6124 0.71638 0.0
C2193 C 0.91331 0.51027 0.74772 0.0
C2194 C 0.87771 0.53304 0.72599 0.0
H2195 H 0.89152 0.56812 0.69494 0.0
C2196 C 0.86031 0.53787 0.73227 0.0
C2197 C 0.88887 0.54373 0.71227 0.0
C2198 C 0.90699 0.53836 0.70483 0.0
C2199 C 0.85423 0.55367 0.72532 0.0
C2200 C 0.86575 0.56469 0.71179 0.0
C2201 C 0.88282 0.55958 0.70536 0.0
C2202 C 0.86078 0.58221 0.70442 0.0
C2203 C 0.83583 0.55887 0.73252 0.0
C2204 C 0.84206 0.57478 0.69379 0.0
C2205 C 0.83714 0.59146 0.68707 0.0
C2206 C 0.851 0.61585 0.69085 0.0
C2207 C 0.86988 0.62314 0.70147 0.0
C2208 C 0.87473 0.60645 0.70817 0.0
H2209 H 0.82796 0.54832 0.74287 0.0
H2210 H 0.84469 0.57818 0.73533 0.0
H2211 H 0.82079 0.55483 0.72452 0.0
H2212 H 0.83111 0.55606 0.69082 0.0
H2213 H 0.82228 0.58517 0.6791 0.0
H2214 H 0.44785 0.93644 0.22838 0.0
H2215 H 0.45728 0.95349 0.2032 0.0
H2216 H 0.47966 0.90299 0.19039 0.0
H2217 H 0.47001 0.88562 0.21552 0.0
H2218 H 0.50465 0.97354 0.18877 0.0
H2219 H 0.43131 0.89776 0.1567 0.0
H2220 H 0.42962 0.90094 0.17666 0.0
H2221 H 0.44903 0.89059 0.16919 0.0
C2222 C 0.45445 0.92872 0.22015 0.0
C2223 C 0.4581 0.90959 0.22397 0.0
C2224 C 0.45995 0.93857 0.20578 0.0
C2225 C 0.46893 0.92936 0.19486 0.0
C2226 C 0.47244 0.91018 0.19857 0.0
H2227 H 0.51434 0.97025 0.102 0.0
H2228 H 0.50213 0.94935 0.12607 0.0
C2229 C 0.46712 0.90041 0.21298 0.0
C2230 C 0.47565 0.94059 0.17981 0.0
H2231 H 0.46054 0.9307 0.14273 0.0
C2232 C 0.49498 0.9642 0.1787 0.0
C2233 C 0.46318 0.92829 0.16667 0.0
C2234 C 0.442 0.90304 0.16727 0.0
C2235 C 0.50231 0.97583 0.16483 0.0
C2236 C 0.48949 0.96377 0.15168 0.0
C2237 C 0.47031 0.94001 0.15278 0.0
C2238 C 0.49558 0.97569 0.13678 0.0
C2239 C 0.52412 0.00077 0.1644 0.0
C2240 C 0.49524 0.99704 0.13459 0.0
C2241 C 0.50233 0.00904 0.12091 0.0
C2242 C 0.50958 -0.00021 0.10898 0.0
C2243 C 0.50882 0.97782 0.11094 0.0
C2244 C 0.50192 0.96591 0.12472 0.0
H2245 H 0.53616 0.00442 0.17428 0.0
H2246 H 0.53509 0.00364 0.15414 0.0
H2247 H 0.51772 0.01393 0.16451 0.0
H2248 H 0.48967 0.00459 0.14352 0.0
H2249 H 0.50221 0.02566 0.11967 0.0
H2250 H 0.09334 0.52023 0.21332 0.0
H2251 H 0.07466 0.5122 0.1884 0.0
H2252 H 0.03055 0.54262 0.20189 0.0
H2253 H 0.04873 0.55033 0.22685 0.0
H2254 H 0.02308 0.48497 0.18021 0.0
H2255 H 0.06728 0.58052 0.16382 0.0
H2256 H 0.0781 0.57023 0.17922 0.0
H2257 H 0.05171 0.57352 0.18147 0.0
C2258 C 0.07947 0.52497 0.21103 0.0
C2259 C 0.07267 0.53611 0.22203 0.0
C2260 C 0.06893 0.52048 0.19678 0.0
C2261 C 0.05155 0.52718 0.19328 0.0
C2262 C 0.0443 0.53776 0.20431 0.0
H2263 H 0.96836 0.52488 0.11632 0.0
H2264 H 0.9871 0.52946 0.14091 0.0
C2265 C 0.05475 0.54219 0.21855 0.0
C2266 C 0.04095 0.52322 0.17809 0.0
H2267 H 0.03626 0.55258 0.14773 0.0
C2268 C 0.02605 0.4997 0.17303 0.0
C2269 C 0.04493 0.54253 0.16882 0.0
C2270 C 0.06154 0.56815 0.17351 0.0
C2271 C 0.01436 0.49495 0.15905 0.0
C2272 C 0.01812 0.51428 0.14984 0.0
C2273 C 0.03333 0.5378 0.15484 0.0
C2274 C 0.00618 0.51061 0.13504 0.0
C2275 C 0.99752 0.46931 0.15449 0.0
C2276 C 0.01078 0.49859 0.12356 0.0
C2277 C 0.99989 0.49572 0.10953 0.0
C2278 C 0.98436 0.50503 0.10667 0.0
C2279 C 0.9799 0.51716 0.1182 0.0
C2280 C 0.99074 0.51995 0.13223 0.0
H2281 H 0.99178 0.45706 0.16423 0.0
H2282 H 0.98095 0.46728 0.14881 0.0
H2283 H 0.00719 0.4637 0.14656 0.0
H2284 H 0.02301 0.49164 0.12541 0.0
H2285 H 0.00356 0.48611 0.10094 0.0
H2286 H 0.42172 0.51881 0.2155 0.0
H2287 H 0.43139 0.50951 0.19073 0.0
H2288 H 0.50662 0.53885 0.20403 0.0
H2289 H 0.49701 0.54747 0.22886 0.0
H2290 H 0.46444 0.5408 0.1697 0.0
H2291 H 0.48981 0.47379 0.18711 0.0
H2292 H 0.47352 0.4834 0.19921 0.0
H2293 H 0.50611 0.50146 0.19719 0.0
C2294 C 0.44024 0.52294 0.21322 0.0
C2295 C 0.45858 0.53384 0.22419 0.0
C2296 C 0.44576 0.51777 0.19903 0.0
C2297 C 0.46965 0.52318 0.1956 0.0
C2298 C 0.48797 0.5341 0.2065 0.0
H2299 H 0.55212 0.52104 0.11998 0.0
H2300 H 0.53693 0.52618 0.14399 0.0
C2301 C 0.48249 0.53928 0.22066 0.0
C2302 C 0.47573 0.51813 0.1805 0.0
H2303 H 0.50133 0.48943 0.16244 0.0
C2304 C 0.47225 0.52936 0.16807 0.0
C2305 C 0.48587 0.50315 0.17839 0.0
C2306 C 0.48884 0.48956 0.19116 0.0
C2307 C 0.47951 0.52675 0.15368 0.0
C2308 C 0.49025 0.51228 0.15166 0.0
C2309 C 0.49323 0.50064 0.16403 0.0
C2310 C 0.49921 0.5095 0.13689 0.0
C2311 C 0.47642 0.54012 0.14083 0.0
C2312 C 0.48299 0.49829 0.12494 0.0
C2313 C 0.4916 0.49516 0.1112 0.0
C2314 C 0.51658 0.50309 0.10917 0.0
C2315 C 0.53273 0.5144 0.12119 0.0
C2316 C 0.52411 0.51747 0.13491 0.0
H2317 H 0.47266 0.55429 0.14474 0.0
H2318 H 0.493 0.54842 0.13372 0.0
H2319 H 0.46082 0.52741 0.13378 0.0
H2320 H 0.46363 0.49161 0.12632 0.0
H2321 H 0.47859 0.48605 0.10228 0.0
H2322 H 0.95948 0.45306 0.78573 0.0
H2323 H 0.97903 0.46121 0.81029 0.0
H2324 H 0.93339 0.48901 0.8255 0.0
H2325 H 0.91296 0.47994 0.80117 0.0
H2326 H 0.00482 0.50343 0.82574 0.0
H2327 H 0.92215 0.43989 0.85739 0.0
H2328 H 0.92347 0.43971 0.83725 0.0
H2329 H 0.91848 0.46144 0.84676 0.0
C2330 C 0.95337 0.46064 0.79435 0.0
C2331 C 0.93446 0.46561 0.79152 0.0
C2332 C 0.96471 0.46546 0.80834 0.0
C2333 C 0.95737 0.47532 0.8198 0.0
C2334 C 0.93898 0.48092 0.81692 0.0
H2335 H 0.00617 0.5159 0.9116 0.0
H2336 H 0.98734 0.51064 0.88695 0.0
C2337 C 0.92754 0.47601 0.80294 0.0
C2338 C 0.9691 0.47981 0.83473 0.0
H2339 H 0.95743 0.46527 0.87165 0.0
C2340 C 0.99448 0.49505 0.83578 0.0
C2341 C 0.95555 0.46883 0.8478 0.0
C2342 C 0.92845 0.45138 0.84729 0.0
C2343 C 0.00664 0.49977 0.84958 0.0
C2344 C 0.99308 0.48878 0.86262 0.0
C2345 C 0.96772 0.47371 0.86161 0.0
C2346 C 0.00494 0.49237 0.87741 0.0
C2347 C 0.03384 0.51668 0.85017 0.0
C2348 C 0.02089 0.48363 0.8802 0.0
C2349 C 0.03147 0.48634 0.89432 0.0
C2350 C 0.02628 0.49785 0.90592 0.0
C2351 C 0.01031 0.50665 0.90301 0.0
C2352 C 0.99965 0.50381 0.88891 0.0
H2353 H 0.04064 0.52762 0.83986 0.0
H2354 H 0.03881 0.52883 0.85996 0.0
H2355 H 0.04331 0.50621 0.85135 0.0
H2356 H 0.02484 0.47436 0.87152 0.0
H2357 H 0.04333 0.47899 0.89623 0.0
H2358 H 0.51046 0.45137 0.78676 0.0
H2359 H 0.50131 0.45871 0.81206 0.0
H2360 H 0.57693 0.4882 0.82443 0.0
H2361 H 0.58627 0.48065 0.79909 0.0
H2362 H 0.50855 0.44053 0.83911 0.0
H2363 H 0.56095 0.53991 0.83799 0.0
H2364 H 0.55328 0.52202 0.8212 0.0
H2365 H 0.57769 0.52516 0.83303 0.0
C2366 C 0.52517 0.45928 0.79487 0.0
C2367 C 0.54911 0.46532 0.79089 0.0
C2368 C 0.51991 0.46357 0.80931 0.0
C2369 C 0.53845 0.4742 0.8201 0.0
C2370 C 0.56241 0.48036 0.81621 0.0
H2371 H 0.5297 0.51341 0.91282 0.0
H2372 H 0.54415 0.50605 0.8891 0.0
C2373 C 0.56771 0.47604 0.80172 0.0
C2374 C 0.53236 0.47819 0.83547 0.0
H2375 H 0.54128 0.52175 0.86058 0.0
C2376 C 0.51575 0.45829 0.84382 0.0
C2377 C 0.5419 0.50135 0.84163 0.0
C2378 C 0.55931 0.5234 0.833 0.0
C2379 C 0.50829 0.46091 0.85813 0.0
C2380 C 0.51728 0.4841 0.86414 0.0
C2381 C 0.53435 0.50399 0.85594 0.0
C2382 C 0.50848 0.48813 0.87865 0.0
C2383 C 0.49097 0.43877 0.86674 0.0
C2384 C 0.48367 0.48071 0.88062 0.0
C2385 C 0.47534 0.48474 0.89417 0.0
C2386 C 0.49167 0.49647 0.90605 0.0
C2387 C 0.51656 0.50402 0.904 0.0
C2388 C 0.52489 0.49998 0.89042 0.0
H2389 H 0.49158 0.42281 0.86269 0.0
H2390 H 0.49527 0.44106 0.87887 0.0
H2391 H 0.47204 0.43528 0.8652 0.0
H2392 H 0.47073 0.47193 0.87161 0.0
H2393 H 0.45603 0.4785 0.89537 0.0
H2394 H 0.53387 0.11117 0.79756 0.0
H2395 H 0.52554 0.09468 0.82288 0.0
H2396 H 0.54832 0.04445 0.81001 0.0
H2397 H 0.557 0.0611 0.78475 0.0
H2398 H 0.49381 0.05088 0.83259 0.0
H2399 H 0.58696 0.0706 0.84783 0.0
H2400 H 0.58092 0.08325 0.83153 0.0
H2401 H 0.57614 0.05334 0.83098 0.0
C2402 C 0.53713 0.09662 0.80012 0.0
C2403 C 0.5462 0.08753 0.78911 0.0
C2404 C 0.53244 0.08725 0.81463 0.0
C2405 C 0.5367 0.06857 0.81851 0.0
C2406 C 0.54555 0.05931 0.80749 0.0
H2407 H 0.50252 0.97265 0.89331 0.0
H2408 H 0.51513 0.99432 0.86961 0.0
C2409 C 0.55042 0.0688 0.79301 0.0
C2410 C 0.53093 0.05814 0.83386 0.0
H2411 H 0.55464 0.04348 0.86378 0.0
C2412 C 0.50722 0.04951 0.83946 0.0
C2413 C 0.54839 0.05637 0.84292 0.0
C2414 C 0.57459 0.06661 0.83808 0.0
C2415 C 0.50032 0.03857 0.85357 0.0
C2416 C 0.5176 0.0363 0.86243 0.0
C2417 C 0.54138 0.04517 0.85696 0.0
C2418 C 0.51101 0.02392 0.87714 0.0
C2419 C 0.47436 0.02886 0.85874 0.0
C2420 C 0.50495 0.03358 0.88939 0.0
C2421 C 0.49779 0.02124 0.90301 0.0
C2422 C 0.49638 0.99891 0.90461 0.0
C2423 C 0.50305 0.98962 0.89241 0.0
C2424 C 0.51039 0.00204 0.87886 0.0
H2425 H 0.4622 0.02826 0.84957 0.0
H2426 H 0.46695 0.01058 0.86336 0.0
H2427 H 0.474 0.04046 0.86778 0.0
H2428 H 0.50557 0.05058 0.88836 0.0
H2429 H 0.49269 0.02885 0.91215 0.0
H2430 H 0.16437 0.26916 0.56106 0.0
H2431 H 0.17355 0.28564 0.5358 0.0
H2432 H 0.09814 0.24051 0.52321 0.0
H2433 H 0.08879 0.22368 0.54846 0.0
H2434 H 0.16719 0.26148 0.50847 0.0
H2435 H 0.11252 0.3072 0.51005 0.0
H2436 H 0.1203 0.29671 0.52672 0.0
H2437 H 0.09619 0.27598 0.51468 0.0
C2438 C 0.14972 0.26258 0.55292 0.0
C2439 C 0.12581 0.24505 0.55685 0.0
C2440 C 0.155 0.27213 0.53848 0.0
C2441 C 0.1365 0.26454 0.52764 0.0
C2442 C 0.11263 0.24701 0.53146 0.0
H2443 H 0.14261 0.31275 0.43514 0.0
H2444 H 0.12905 0.29049 0.45866 0.0
C2445 C 0.10731 0.23741 0.54592 0.0
C2446 C 0.14247 0.27473 0.51229 0.0
H2447 H 0.13171 0.30834 0.48721 0.0
C2448 C 0.15941 0.2717 0.50382 0.0
C2449 C 0.13218 0.28793 0.50616 0.0
C2450 C 0.11443 0.29238 0.51488 0.0
C2451 C 0.16639 0.28153 0.48944 0.0
C2452 C 0.15658 0.29524 0.48345 0.0
C2453 C 0.13924 0.29785 0.49179 0.0
C2454 C 0.1649 0.30793 0.46888 0.0
C2455 C 0.18406 0.27693 0.48074 0.0
C2456 C 0.18954 0.3252 0.46679 0.0
C2457 C 0.19735 0.33782 0.45335 0.0
C2458 C 0.18069 0.33366 0.44169 0.0
C2459 C 0.156 0.31623 0.44378 0.0
C2460 C 0.14819 0.3036 0.45727 0.0
H2461 H 0.1839 0.26056 0.4847 0.0
H2462 H 0.17973 0.27499 0.46861 0.0
H2463 H 0.20283 0.29223 0.48231 0.0
H2464 H 0.20273 0.32922 0.47565 0.0
H2465 H 0.21653 0.35091 0.45211 0.0
H2466 H 0.7645 0.90461 0.54512 0.0
H2467 H 0.74405 0.89558 0.52074 0.0
H2468 H 0.69102 0.82533 0.53624 0.0
H2469 H 0.71121 0.8343 0.56074 0.0
H2470 H 0.73366 0.85495 0.50089 0.0
H2471 H 0.65064 0.85624 0.52008 0.0
H2472 H 0.67887 0.87017 0.53058 0.0
H2473 H 0.65964 0.83828 0.53072 0.0
C2474 C 0.7484 0.88729 0.54336 0.0
C2475 C 0.73937 0.8702 0.55485 0.0
C2476 C 0.73684 0.88213 0.52943 0.0
C2477 C 0.71593 0.85991 0.52679 0.0
C2478 C 0.70701 0.84268 0.53815 0.0
H2479 H 0.61784 0.80398 0.45015 0.0
H2480 H 0.63737 0.80977 0.47467 0.0
C2481 C 0.71865 0.84776 0.55207 0.0
C2482 C 0.70352 0.85479 0.51211 0.0
H2483 H 0.6515 0.8461 0.49486 0.0
C2484 C 0.7157 0.85299 0.49953 0.0
C2485 C 0.68006 0.85214 0.51046 0.0
C2486 C 0.66649 0.85444 0.52363 0.0
C2487 C 0.70493 0.84845 0.48528 0.0
C2488 C 0.68164 0.84628 0.48356 0.0
C2489 C 0.66936 0.84781 0.4962 0.0
C2490 C 0.66986 0.84282 0.46872 0.0
C2491 C 0.71844 0.84561 0.47228 0.0
C2492 C 0.68144 0.85969 0.45733 0.0
C2493 C 0.67036 0.8564 0.44334 0.0
C2494 C 0.64733 0.83632 0.44051 0.0
C2495 C 0.63552 0.8197 0.45203 0.0
C2496 C 0.64669 0.82293 0.46601 0.0
H2497 H 0.73207 0.84065 0.47607 0.0
H2498 H 0.70565 0.83178 0.46432 0.0
H2499 H 0.72841 0.86285 0.46623 0.0
H2500 H 0.69899 0.87551 0.4593 0.0
H2501 H 0.67971 0.86972 0.43477 0.0
H2502 H 0.11663 0.83515 0.56197 0.0
H2503 H 0.12765 0.82731 0.53722 0.0
H2504 H 0.13643 0.89419 0.52132 0.0
H2505 H 0.12635 0.90247 0.54623 0.0
H2506 H 0.10863 0.82157 0.51033 0.0
H2507 H 0.20077 0.90193 0.50959 0.0
H2508 H 0.18203 0.89257 0.52611 0.0
H2509 H 0.1771 0.90926 0.51177 0.0
C2510 C 0.12083 0.8481 0.55315 0.0
C2511 C 0.12087 0.86951 0.55602 0.0
C2512 C 0.12716 0.84365 0.53903 0.0
C2513 C 0.13345 0.86041 0.52746 0.0
C2514 C 0.13246 0.88134 0.53016 0.0
H2515 H 0.14301 0.82514 0.43409 0.0
H2516 H 0.13002 0.83395 0.45772 0.0
C2517 C 0.12653 0.88599 0.54436 0.0
C2518 C 0.14113 0.85597 0.51264 0.0
H2519 H 0.18694 0.88016 0.48685 0.0
C2520 C 0.12579 0.83435 0.50522 0.0
C2521 C 0.16372 0.87246 0.50605 0.0
C2522 C 0.18196 0.89523 0.51386 0.0
C2523 C 0.13234 0.8288 0.49141 0.0
C2524 C 0.15449 0.84571 0.48455 0.0
C2525 C 0.16984 0.86729 0.492 0.0
C2526 C 0.1626 0.8411 0.46992 0.0
C2527 C 0.11576 0.80455 0.4846 0.0
C2528 C 0.18575 0.84324 0.46864 0.0
C2529 C 0.19362 0.839 0.45498 0.0
C2530 C 0.17844 0.83228 0.44225 0.0
C2531 C 0.15536 0.83046 0.44354 0.0
C2532 C 0.14767 0.83508 0.45717 0.0
H2533 H 0.10396 0.79142 0.49316 0.0
H2534 H 0.10362 0.80609 0.47625 0.0
H2535 H 0.12639 0.79744 0.47889 0.0
H2536 H 0.19775 0.8481 0.47826 0.0
H2537 H 0.21172 0.84117 0.45441 0.0
H2538 H 0.62376 0.78456 0.12083 0.0
H2539 H 0.64336 0.79347 0.14539 0.0
H2540 H 0.5975 0.82143 0.1599 0.0
H2541 H 0.57709 0.81168 0.13554 0.0
H2542 H 0.66905 0.83675 0.16001 0.0
H2543 H 0.58744 0.77373 0.19271 0.0
H2544 H 0.58843 0.77258 0.17259 0.0
H2545 H 0.58329 0.79456 0.1816 0.0
C2546 C 0.6176 0.79231 0.1293 0.0
C2547 C 0.5987 0.79721 0.12625 0.0
C2548 C 0.62895 0.79756 0.14329 0.0
C2549 C 0.62163 0.80777 0.15454 0.0
C2550 C 0.60311 0.81312 0.15147 0.0
H2551 H 0.67187 0.85107 0.24591 0.0
H2552 H 0.65234 0.84489 0.22141 0.0
C2553 C 0.59167 0.8078 0.13748 0.0
C2554 C 0.63368 0.81304 0.16938 0.0
H2555 H 0.62305 0.79966 0.2065 0.0
C2556 C 0.65901 0.82862 0.17017 0.0
C2557 C 0.62051 0.8024 0.18262 0.0
C2558 C 0.59345 0.78472 0.18239 0.0
C2559 C 0.67152 0.83397 0.18387 0.0
C2560 C 0.65837 0.82324 0.19707 0.0
C2561 C 0.63303 0.80787 0.19633 0.0
C2562 C 0.67066 0.82739 0.21176 0.0
C2563 C 0.69866 0.85126 0.18416 0.0
C2564 C 0.68727 0.81941 0.21445 0.0
C2565 C 0.69829 0.82268 0.22847 0.0
C2566 C 0.69285 0.83396 0.24009 0.0
C2567 C 0.67623 0.84201 0.23729 0.0
C2568 C 0.66515 0.83864 0.22329 0.0
H2569 H 0.70496 0.86211 0.17379 0.0
H2570 H 0.70375 0.8635 0.19391 0.0
H2571 H 0.70848 0.8411 0.18517 0.0
H2572 H 0.6914 0.81028 0.20576 0.0
H2573 H 0.71067 0.81591 0.2303 0.0
H2574 H 0.25121 0.81392 0.13262 0.0
H2575 H 0.24102 0.82138 0.15773 0.0
H2576 H 0.16589 0.7922 0.14431 0.0
H2577 H 0.1759 0.78497 0.11919 0.0
H2578 H 0.21974 0.8491 0.16672 0.0
H2579 H 0.16127 0.75374 0.18199 0.0
H2580 H 0.18204 0.76324 0.16636 0.0
H2581 H 0.15296 0.76171 0.16463 0.0
C2582 C 0.23255 0.80927 0.13497 0.0
C2583 C 0.21433 0.79866 0.1239 0.0
C2584 C 0.22675 0.81343 0.14935 0.0
C2585 C 0.20262 0.80693 0.15296 0.0
C2586 C 0.18451 0.79682 0.14187 0.0
H2587 H 0.12236 0.81491 0.22825 0.0
H2588 H 0.13673 0.80849 0.20429 0.0
C2589 C 0.19028 0.79269 0.12751 0.0
C2590 C 0.19629 0.811 0.16825 0.0
H2591 H 0.15967 0.78228 0.19808 0.0
C2592 C 0.20678 0.83451 0.17365 0.0
C2593 C 0.17941 0.7919 0.17727 0.0
C2594 C 0.16841 0.7662 0.17236 0.0
C2595 C 0.20017 0.83951 0.18762 0.0
C2596 C 0.18293 0.82043 0.19652 0.0
C2597 C 0.1728 0.79689 0.19122 0.0
C2598 C 0.17452 0.82451 0.21116 0.0
C2599 C 0.21105 0.86522 0.19249 0.0
C2600 C 0.19094 0.83539 0.22307 0.0
C2601 C 0.18281 0.83926 0.23677 0.0
C2602 C 0.15804 0.83221 0.23887 0.0
C2603 C 0.14161 0.82095 0.22696 0.0
C2604 C 0.14976 0.81711 0.21329 0.0
H2605 H 0.2193 0.87777 0.18298 0.0
H2606 H 0.197 0.86836 0.19775 0.0
H2607 H 0.22562 0.86943 0.20087 0.0
H2608 H 0.21006 0.84084 0.22178 0.0
H2609 H 0.196 0.84809 0.24565 0.0
H2610 H 0.22138 0.39413 0.11764 0.0
H2611 H 0.21102 0.37662 0.14269 0.0
H2612 H 0.19666 0.43235 0.1567 0.0
H2613 H 0.20601 0.44925 0.13149 0.0
H2614 H 0.22922 0.39123 0.16931 0.0
H2615 H 0.13488 0.37583 0.16979 0.0
H2616 H 0.15342 0.38502 0.15319 0.0
H2617 H 0.15713 0.40671 0.16716 0.0
C2618 C 0.21603 0.40263 0.12609 0.0
C2619 C 0.21428 0.42292 0.12257 0.0
C2620 C 0.21008 0.39261 0.14041 0.0
C2621 C 0.20247 0.40278 0.15159 0.0
C2622 C 0.20163 0.42362 0.14821 0.0
H2623 H 0.19581 0.36015 0.24581 0.0
H2624 H 0.20784 0.3823 0.22234 0.0
C2625 C 0.20715 0.43339 0.13381 0.0
C2626 C 0.19552 0.39156 0.16672 0.0
H2627 H 0.14991 0.36988 0.19274 0.0
C2628 C 0.21183 0.38651 0.1744 0.0
C2629 C 0.17269 0.38504 0.17337 0.0
C2630 C 0.15343 0.38819 0.16539 0.0
C2631 C 0.206 0.37514 0.18842 0.0
C2632 C 0.18351 0.36935 0.19529 0.0
C2633 C 0.16726 0.3745 0.18763 0.0
C2634 C 0.17581 0.35676 0.20999 0.0
C2635 C 0.22367 0.36868 0.19542 0.0
C2636 C 0.15318 0.33562 0.21124 0.0
C2637 C 0.14584 0.32331 0.22481 0.0
C2638 C 0.16104 0.33159 0.23753 0.0
C2639 C 0.18347 0.35314 0.23636 0.0
C2640 C 0.19063 0.36567 0.2228 0.0
H2641 H 0.23604 0.36781 0.18695 0.0
H2642 H 0.23518 0.38258 0.20372 0.0
H2643 H 0.2139 0.35118 0.20121 0.0
H2644 H 0.1412 0.32842 0.20163 0.0
H2645 H 0.12814 0.30722 0.22526 0.0
H2646 H 0.78304 0.60706 0.8955 0.0
H2647 H 0.79238 0.62484 0.87049 0.0
H2648 H 0.81612 0.57566 0.85696 0.0
H2649 H 0.8066 0.55761 0.88189 0.0
H2650 H 0.8398 0.64585 0.85567 0.0
H2651 H 0.76644 0.56963 0.82389 0.0
H2652 H 0.76513 0.5727 0.84389 0.0
H2653 H 0.78466 0.56272 0.83613 0.0
C2654 C 0.79001 0.59985 0.88716 0.0
C2655 C 0.79402 0.58087 0.8907 0.0
C2656 C 0.79543 0.6101 0.87289 0.0
C2657 C 0.80468 0.6014 0.86181 0.0
C2658 C 0.80869 0.58245 0.86528 0.0
H2659 H 0.84793 0.64211 0.76881 0.0
H2660 H 0.83653 0.62153 0.793 0.0
C2661 C 0.80345 0.57231 0.87958 0.0
C2662 C 0.81094 0.61273 0.84679 0.0
H2663 H 0.79522 0.60269 0.80982 0.0
C2664 C 0.83002 0.63646 0.84564 0.0
C2665 C 0.79832 0.60036 0.83371 0.0
C2666 C 0.77736 0.57499 0.83438 0.0
C2667 C 0.837 0.6481 0.83176 0.0
C2668 C 0.82407 0.63592 0.81867 0.0
C2669 C 0.80509 0.61208 0.81982 0.0
C2670 C 0.82983 0.64775 0.80375 0.0
C2671 C 0.8586 0.67316 0.83124 0.0
C2672 C 0.82917 0.66894 0.80155 0.0
C2673 C 0.8358 0.68076 0.7878 0.0
C2674 C 0.84288 0.67148 0.77582 0.0
C2675 C 0.84251 0.6497 0.77781 0.0
C2676 C 0.83608 0.63797 0.79164 0.0
H2677 H 0.8708 0.67699 0.84106 0.0
H2678 H 0.86946 0.67612 0.82092 0.0
H2679 H 0.85196 0.68613 0.83141 0.0
H2680 H 0.82367 0.67647 0.81053 0.0
H2681 H 0.83539 0.69723 0.78655 0.0
H2682 H 0.37603 0.1698 0.89595 0.0
H2683 H 0.35701 0.16154 0.87115 0.0
H2684 H 0.41846 0.22629 0.85438 0.0
H2685 H 0.43697 0.23503 0.87934 0.0
H2686 H 0.37791 0.22301 0.84497 0.0
H2687 H 0.37245 0.13599 0.83482 0.0
H2688 H 0.35694 0.13565 0.85164 0.0
H2689 H 0.38949 0.15514 0.85023 0.0
C2690 C 0.3855 0.18211 0.8869 0.0
C2691 C 0.40794 0.20299 0.88947 0.0
C2692 C 0.37473 0.17733 0.87273 0.0
C2693 C 0.38654 0.19303 0.86081 0.0
C2694 C 0.40905 0.21386 0.86339 0.0
H2695 H 0.34257 0.1564 0.76808 0.0
H2696 H 0.36343 0.16544 0.79215 0.0
C2697 C 0.4196 0.21885 0.87761 0.0
C2698 C 0.37499 0.18834 0.84579 0.0
H2699 H 0.34909 0.14604 0.8184 0.0
C2700 C 0.37178 0.20624 0.83911 0.0
C2701 C 0.36735 0.16662 0.83802 0.0
C2702 C 0.37197 0.14738 0.84398 0.0
C2703 C 0.36083 0.20292 0.82499 0.0
C2704 C 0.35198 0.1807 0.81759 0.0
C2705 C 0.35554 0.16294 0.82417 0.0
C2706 C 0.33935 0.17562 0.80292 0.0
C2707 C 0.35944 0.22349 0.81805 0.0
C2708 C 0.31868 0.17809 0.80096 0.0
C2709 C 0.30708 0.17358 0.78706 0.0
C2710 C 0.31555 0.16594 0.77488 0.0
C2711 C 0.33585 0.16283 0.77704 0.0
C2712 C 0.34767 0.16773 0.79087 0.0
H2713 H 0.37364 0.24093 0.82271 0.0
H2714 H 0.36172 0.22388 0.80574 0.0
H2715 H 0.34137 0.22159 0.82053 0.0
H2716 H 0.31148 0.1835 0.81019 0.0
H2717 H 0.29164 0.17635 0.78584 0.0
H2718 H 0.79979 0.23668 0.8813 0.0
H2719 H 0.80952 0.22858 0.8563 0.0
H2720 H 0.79035 0.1573 0.86995 0.0
H2721 H 0.78028 0.16521 0.89495 0.0
H2722 H 0.84392 0.21787 0.84829 0.0
H2723 H 0.75308 0.14378 0.83116 0.0
H2724 H 0.75727 0.16234 0.84724 0.0
H2725 H 0.76364 0.13818 0.84848 0.0
C2726 C 0.79758 0.21924 0.87896 0.0
C2727 C 0.78924 0.20157 0.8901 0.0
C2728 C 0.80307 0.21461 0.86465 0.0
C2729 C 0.80034 0.19221 0.86115 0.0
C2730 C 0.792 0.1745 0.87225 0.0
H2731 H 0.84235 0.13595 0.78603 0.0
H2732 H 0.82841 0.143 0.81003 0.0
C2733 C 0.78632 0.17907 0.88655 0.0
C2734 C 0.80744 0.1879 0.84613 0.0
H2735 H 0.78676 0.1507 0.81576 0.0
C2736 C 0.83135 0.20329 0.84114 0.0
C2737 C 0.79104 0.16887 0.83678 0.0
C2738 C 0.76476 0.15248 0.8411 0.0
C2739 C 0.83943 0.19992 0.82722 0.0
C2740 C 0.82313 0.18074 0.81799 0.0
C2741 C 0.79922 0.16536 0.82291 0.0
C2742 C 0.83078 0.17621 0.80326 0.0
C2743 C 0.8655 0.21658 0.82262 0.0
C2744 C 0.83637 0.19239 0.79145 0.0
C2745 C 0.84433 0.18842 0.77772 0.0
C2746 C 0.84691 0.16822 0.77558 0.0
C2747 C 0.84088 0.15185 0.78739 0.0
C2748 C 0.83278 0.15576 0.80107 0.0
H2749 H 0.87696 0.22754 0.83213 0.0
H2750 H 0.87375 0.20636 0.81786 0.0
H2751 H 0.86584 0.22886 0.81384 0.0
H2752 H 0.83471 0.20817 0.79289 0.0
H2753 H 0.84895 0.20143 0.76889 0.0
H2754 H 0.29309 0.12092 0.45353 0.0
H2755 H 0.31226 0.12971 0.47822 0.0
H2756 H 0.26486 0.15588 0.4927 0.0
H2757 H 0.24488 0.14624 0.46821 0.0
H2758 H 0.33686 0.17262 0.49333 0.0
H2759 H 0.255 0.10767 0.52508 0.0
H2760 H 0.25653 0.10711 0.50496 0.0
H2761 H 0.25053 0.12843 0.51411 0.0
C2762 C 0.28651 0.12826 0.46202 0.0
C2763 C 0.26729 0.13267 0.45893 0.0
C2764 C 0.29762 0.13344 0.47609 0.0
C2765 C 0.28972 0.14308 0.48737 0.0
C2766 C 0.27091 0.148 0.48425 0.0
H2767 H 0.33714 0.1854 0.57923 0.0
H2768 H 0.31807 0.1791 0.55456 0.0
C2769 C 0.25972 0.14275 0.47019 0.0
C2770 C 0.3014 0.14818 0.50232 0.0
H2771 H 0.28996 0.13393 0.53929 0.0
C2772 C 0.32663 0.16414 0.50338 0.0
C2773 C 0.28799 0.13706 0.51541 0.0
C2774 C 0.26106 0.11894 0.51488 0.0
C2775 C 0.33878 0.16943 0.5172 0.0
C2776 C 0.32538 0.15827 0.53026 0.0
C2777 C 0.30014 0.14248 0.52924 0.0
C2778 C 0.33729 0.1624 0.54507 0.0
C2779 C 0.3658 0.18714 0.51779 0.0
C2780 C 0.35422 0.15487 0.5479 0.0
C2781 C 0.36498 0.15821 0.56201 0.0
C2782 C 0.35895 0.16911 0.57358 0.0
C2783 C 0.34196 0.17665 0.57065 0.0
C2784 C 0.33115 0.17321 0.55655 0.0
H2785 H 0.37221 0.19818 0.5075 0.0
H2786 H 0.37037 0.19919 0.5276 0.0
H2787 H 0.37596 0.17733 0.51888 0.0
H2788 H 0.35884 0.14607 0.53925 0.0
H2789 H 0.37765 0.15181 0.56394 0.0
H2790 H 0.87392 0.09781 0.46677 0.0
H2791 H 0.86381 0.10625 0.49163 0.0
H2792 H 0.88486 0.17788 0.47781 0.0
H2793 H 0.89473 0.16951 0.45285 0.0
H2794 H 0.89496 0.14525 0.51271 0.0
H2795 H 0.81265 0.14768 0.49314 0.0
H2796 H 0.82649 0.13391 0.48238 0.0
H2797 H 0.8404 0.16586 0.48296 0.0
C2798 C 0.87636 0.11535 0.46902 0.0
C2799 C 0.88498 0.13295 0.45781 0.0
C2800 C 0.87071 0.12018 0.48324 0.0
C2801 C 0.87334 0.14259 0.48649 0.0
C2802 C 0.88248 0.16039 0.47547 0.0
H2803 H 0.83187 0.19869 0.56225 0.0
H2804 H 0.84686 0.19271 0.53837 0.0
C2805 C 0.88828 0.15563 0.46126 0.0
C2806 C 0.86599 0.14716 0.50131 0.0
H2807 H 0.8237 0.15713 0.51845 0.0
C2808 C 0.87938 0.14784 0.51401 0.0
C2809 C 0.8457 0.15056 0.50292 0.0
C2810 C 0.83029 0.14932 0.48967 0.0
C2811 C 0.87322 0.15223 0.5283 0.0
C2812 C 0.85274 0.15541 0.52996 0.0
C2813 C 0.8394 0.15473 0.5172 0.0
C2814 C 0.84469 0.1594 0.54476 0.0
C2815 C 0.88908 0.15398 0.54142 0.0
C2816 C 0.83836 0.14263 0.55632 0.0
C2817 C 0.82987 0.14607 0.57002 0.0
C2818 C 0.82718 0.16617 0.57235 0.0
C2819 C 0.83351 0.18291 0.56075 0.0
C2820 C 0.84216 0.17955 0.54712 0.0
H2821 H 0.90762 0.15826 0.53778 0.0
H2822 H 0.89092 0.16786 0.54949 0.0
H2823 H 0.88064 0.13654 0.54729 0.0
H2824 H 0.8395 0.12662 0.55466 0.0
H2825 H 0.8248 0.13267 0.57864 0.0
H2826 H 0.89151 0.73004 0.4522 0.0
H2827 H 0.88245 0.7134 0.47747 0.0
H2828 H 0.85974 0.76382 0.48997 0.0
H2829 H 0.86845 0.78031 0.46465 0.0
H2830 H 0.90029 0.73271 0.50463 0.0
H2831 H 0.80123 0.70201 0.50272 0.0
H2832 H 0.8202 0.71203 0.4863 0.0
H2833 H 0.82025 0.73338 0.49925 0.0
C2834 C 0.88471 0.73768 0.46035 0.0
C2835 C 0.88054 0.75641 0.45635 0.0
C2836 C 0.87946 0.72809 0.4748 0.0
C2837 C 0.86992 0.73699 0.4856 0.0
C2838 C 0.86639 0.75614 0.48176 0.0
H2839 H 0.82596 0.69535 0.57883 0.0
H2840 H 0.83889 0.7175 0.55519 0.0
C2841 C 0.87146 0.76562 0.46727 0.0
C2842 C 0.86383 0.72624 0.50086 0.0
H2843 H 0.81718 0.69867 0.52601 0.0
C2844 C 0.8821 0.72525 0.50928 0.0
C2845 C 0.84008 0.71648 0.507 0.0
C2846 C 0.81924 0.71578 0.49831 0.0
C2847 C 0.87733 0.7149 0.52359 0.0
C2848 C 0.8536 0.70507 0.52966 0.0
C2849 C 0.83541 0.70634 0.52138 0.0
C2850 C 0.84696 0.69237 0.54427 0.0
C2851 C 0.89777 0.71469 0.53219 0.0
C2852 C 0.84717 0.67088 0.54599 0.0
C2853 C 0.83972 0.65817 0.55943 0.0
C2854 C 0.83191 0.66668 0.57149 0.0
C2855 C 0.83208 0.68843 0.56983 0.0
C2856 C 0.83934 0.70104 0.5563 0.0
H2857 H 0.91597 0.72789 0.5277 0.0
H2858 H 0.89704 0.7186 0.5442 0.0
H2859 H 0.89582 0.69667 0.53133 0.0
H2860 H 0.85267 0.66367 0.53682 0.0
H2861 H 0.84001 0.6416 0.56036 0.0
loop_
_geom_bond_atom_site_label_1
_geom_bond_atom_site_label_2
_geom_bond_distance
_geom_bond_site_symmetry_2
_ccdc_geom_bond_type
H0 C3 0.931 . S
H1 C6 0.928 . S
H2 C8 0.930 . S
C3 H0 0.931 . S
C3 C4 1.413 . S
C3 C5 1.360 . S
C4 C3 1.413 . S
C4 C8 1.429 . S
C5 C3 1.360 . S
C5 C6 1.372 . S
C6 H1 0.928 . S
C6 C5 1.372 . S
C6 C7 1.404 . S
C7 C6 1.404 . S
C7 C8 1.391 . S
C8 H2 0.930 . S
C8 C4 1.429 . S
C8 C7 1.391 . S
H9 C12 0.931 . S
H10 C15 0.928 . S
H11 C17 0.930 . S
C12 H9 0.931 . S
C12 C13 1.413 . S
C12 C14 1.360 . S
C13 C12 1.413 . S
C13 C17 1.429 . S
C14 C12 1.360 . S
C14 C15 1.372 . S
C15 H10 0.928 . S
C15 C14 1.372 . S
C15 C16 1.404 . S
C16 C15 1.404 . S
C16 C17 1.391 . S
C17 H11 0.930 . S
C17 C13 1.429 . S
C17 C16 1.391 . S
H18 C21 0.931 . S
H19 C24 0.928 . S
H20 C26 0.930 . S
C21 H18 0.931 . S
C21 C22 1.413 . S
C21 C23 1.360 . S
C22 C21 1.413 . S
C22 C26 1.429 . S
C23 C21 1.360 . S
C23 C24 1.372 . S
C24 H19 0.928 . S
C24 C23 1.372 . S
C24 C25 1.404 . S
C25 C24 1.404 . S
C25 C26 1.391 . S
C26 H20 0.930 . S
C26 C22 1.429 . S
C26 C25 1.391 . S
H27 C30 0.931 . S
H28 C33 0.928 . S
H29 C35 0.930 . S
C30 H27 0.931 . S
C30 C31 1.413 . S
C30 C32 1.360 . S
C31 C30 1.413 . S
C31 C35 1.429 . S
C32 C30 1.360 . S
C32 C33 1.372 . S
C33 H28 0.928 . S
C33 C32 1.372 . S
C33 C34 1.404 . S
C34 C33 1.404 . S
C34 C35 1.391 . S
C35 H29 0.930 . S
C35 C31 1.429 . S
C35 C34 1.391 . S
H36 C39 0.931 . S
H37 C42 0.928 . S
H38 C44 0.930 . S
C39 H36 0.931 . S
C39 C40 1.413 . S
C39 C41 1.360 . S
C40 C39 1.413 . S
C40 C44 1.429 . S
C41 C39 1.360 . S
C41 C42 1.372 . S
C42 H37 0.928 . S
C42 C41 1.372 . S
C42 C43 1.404 . S
C43 C42 1.404 . S
C43 C44 1.391 . S
C44 H38 0.930 . S
C44 C40 1.429 . S
C44 C43 1.391 . S
H45 C48 0.931 . S
H46 C51 0.928 . S
H47 C53 0.930 . S
C48 H45 0.931 . S
C48 C49 1.413 . S
C48 C50 1.360 . S
C49 C48 1.413 . S
C49 C53 1.429 . S
C50 C48 1.360 . S
C50 C51 1.372 . S
C51 H46 0.928 . S
C51 C50 1.372 . S
C51 C52 1.404 . S
C52 C51 1.404 . S
C52 C53 1.391 . S
C53 H47 0.930 . S
C53 C49 1.429 . S
C53 C52 1.391 . S
H54 C57 0.931 . S
H55 C60 0.928 . S
H56 C62 0.930 . S
C57 H54 0.931 . S
C57 C58 1.413 . S
C57 C59 1.360 . S
C58 C57 1.413 . S
C58 C62 1.429 . S
C59 C57 1.360 . S
C59 C60 1.372 . S
C60 H55 0.928 . S
C60 C59 1.372 . S
C60 C61 1.404 . S
C61 C60 1.404 . S
C61 C62 1.391 . S
C62 H56 0.930 . S
C62 C58 1.429 . S
C62 C61 1.391 . S
H63 C66 0.931 . S
H64 C69 0.928 . S
H65 C71 0.930 . S
C66 H63 0.931 . S
C66 C67 1.413 . S
C66 C68 1.360 . S
C67 C66 1.413 . S
C67 C71 1.429 . S
C68 C66 1.360 . S
C68 C69 1.372 . S
C69 H64 0.928 . S
C69 C68 1.372 . S
C69 C70 1.404 . S
C70 C69 1.404 . S
C70 C71 1.391 . S
C71 H65 0.930 . S
C71 C67 1.429 . S
C71 C70 1.391 . S
H72 C75 0.931 . S
H73 C78 0.928 . S
H74 C80 0.930 . S
C75 H72 0.931 . S
C75 C76 1.413 . S
C75 C77 1.360 . S
C76 C75 1.413 . S
C76 C80 1.429 . S
C77 C75 1.360 . S
C77 C78 1.372 . S
C78 H73 0.928 . S
C78 C77 1.372 . S
C78 C79 1.404 . S
C79 C78 1.404 . S
C79 C80 1.391 . S
C80 H74 0.930 . S
C80 C76 1.429 . S
C80 C79 1.391 . S
H81 C84 0.931 . S
H82 C87 0.928 . S
H83 C89 0.930 . S
C84 H81 0.931 . S
C84 C85 1.413 . S
C84 C86 1.360 . S
C85 C84 1.413 . S
C85 C89 1.429 . S
C86 C84 1.360 . S
C86 C87 1.372 . S
C87 H82 0.928 . S
C87 C86 1.372 . S
C87 C88 1.404 . S
C88 C87 1.404 . S
C88 C89 1.391 . S
C89 H83 0.930 . S
C89 C85 1.429 . S
C89 C88 1.391 . S
H90 C93 0.931 . S
H91 C96 0.928 . S
H92 C98 0.930 . S
C93 H90 0.931 . S
C93 C94 1.413 . S
C93 C95 1.360 . S
C94 C93 1.413 . S
C94 C98 1.429 . S
C95 C93 1.360 . S
C95 C96 1.372 . S
C96 H91 0.928 . S
C96 C95 1.372 . S
C96 C97 1.404 . S
C97 C96 1.404 . S
C97 C98 1.391 . S
C98 H92 0.930 . S
C98 C94 1.429 . S
C98 C97 1.391 . S
H99 C102 0.931 . S
H100 C105 0.928 . S
H101 C107 0.930 . S
C102 H99 0.931 . S
C102 C103 1.413 . S
C102 C104 1.360 . S
C103 C102 1.413 . S
C103 C107 1.429 . S
C104 C102 1.360 . S
C104 C105 1.372 . S
C105 H100 0.928 . S
C105 C104 1.372 . S
C105 C106 1.404 . S
C106 C105 1.404 . S
C106 C107 1.391 . S
C107 H101 0.930 . S
C107 C103 1.429 . S
C107 C106 1.391 . S
H108 C111 0.931 . S
H109 C114 0.928 . S
H110 C116 0.930 . S
C111 H108 0.931 . S
C111 C112 1.413 . S
C111 C113 1.360 . S
C112 C111 1.413 . S
C112 C116 1.429 . S
C113 C111 1.360 . S
C113 C114 1.372 . S
C114 H109 0.928 . S
C114 C113 1.372 . S
C114 C115 1.404 . S
C115 C114 1.404 . S
C115 C116 1.391 . S
C116 H110 0.930 . S
C116 C112 1.429 . S
C116 C115 1.391 . S
H117 C120 0.931 . S
H118 C123 0.928 . S
H119 C125 0.930 . S
C120 H117 0.931 . S
C120 C121 1.413 . S
C120 C122 1.360 . S
C121 C120 1.413 . S
C121 C125 1.429 . S
C122 C120 1.360 . S
C122 C123 1.372 . S
C123 H118 0.928 . S
C123 C122 1.372 . S
C123 C124 1.404 . S
C124 C123 1.404 . S
C124 C125 1.391 . S
C125 H119 0.930 . S
C125 C121 1.429 . S
C125 C124 1.391 . S
H126 C129 0.931 . S
H127 C132 0.928 . S
H128 C134 0.930 . S
C129 H126 0.931 . S
C129 C130 1.413 . S
C129 C131 1.360 . S
C130 C129 1.413 . S
C130 C134 1.429 . S
C131 C129 1.360 . S
C131 C132 1.372 . S
C132 H127 0.928 . S
C132 C131 1.372 . S
C132 C133 1.404 . S
C133 C132 1.404 . S
C133 C134 1.391 . S
C134 H128 0.930 . S
C134 C130 1.429 . S
C134 C133 1.391 . S
H135 C138 0.931 . S
H136 C141 0.928 . S
H137 C143 0.930 . S
C138 H135 0.931 . S
C138 C139 1.413 . S
C138 C140 1.360 . S
C139 C138 1.413 . S
C139 C143 1.429 . S
C140 C138 1.360 . S
C140 C141 1.372 . S
C141 H136 0.928 . S
C141 C140 1.372 . S
C141 C142 1.404 . S
C142 C141 1.404 . S
C142 C143 1.391 . S
C143 H137 0.930 . S
C143 C139 1.429 . S
C143 C142 1.391 . S
H144 C147 0.931 . S
H145 C150 0.928 . S
H146 C152 0.930 . S
C147 H144 0.931 . S
C147 C148 1.413 . S
C147 C149 1.360 . S
C148 C147 1.413 . S
C148 C152 1.429 . S
C149 C147 1.360 . S
C149 C150 1.372 . S
C150 H145 0.928 . S
C150 C149 1.372 . S
C150 C151 1.404 . S
C151 C150 1.404 . S
C151 C152 1.391 . S
C152 H146 0.930 . S
C152 C148 1.429 . S
C152 C151 1.391 . S
H153 C156 0.931 . S
H154 C159 0.928 . S
H155 C161 0.930 . S
C156 H153 0.931 . S
C156 C157 1.413 . S
C156 C158 1.360 . S
C157 C156 1.413 . S
C157 C161 1.429 . S
C158 C156 1.360 . S
C158 C159 1.372 . S
C159 H154 0.928 . S
C159 C158 1.372 . S
C159 C160 1.404 . S
C160 C159 1.404 . S
C160 C161 1.391 . S
C161 H155 0.930 . S
C161 C157 1.429 . S
C161 C160 1.391 . S
Gd162 N193 2.661 . S
Gd162 N199 2.601 . S
Gd162 O206 2.545 . S
Gd162 O207 2.606 1_545 S
Gd162 O209 2.429 . S
Gd162 O210 2.545 1_545 S
Gd162 O211 2.412 . S
Gd162 O213 2.362 1_554 S
Gd162 O214 2.324 1_545 S
Gd162 C221 2.828 . S
Gd163 N172 2.661 . S
Gd163 N176 2.601 . S
Gd163 O207 2.362 1_556 S
Gd163 O208 2.324 1_565 S
Gd163 O212 2.545 . S
Gd163 O213 2.606 1_565 S
Gd163 O215 2.429 . S
Gd163 O216 2.545 1_565 S
Gd163 O217 2.412 . S
Gd163 C230 2.828 . S
C164 C167 1.417 . S
C164 C169 1.431 . S
C164 C170 1.412 . S
C165 C168 1.437 . S
C165 C169 1.317 . S
C165 H184 0.929 . S
C166 C167 1.426 . S
C166 C168 1.413 . S
C166 N176 1.359 . S
C167 C164 1.417 . S
C167 C166 1.426 . S
C167 N172 1.350 . S
C168 C165 1.437 . S
C168 C166 1.413 . S
C168 C178 1.391 . S
C169 C164 1.431 . S
C169 C165 1.317 . S
C169 H180 0.930 . S
C170 C164 1.412 . S
C170 C171 1.355 . S
C170 H182 0.930 . S
C171 C170 1.355 . S
C171 C173 1.402 . S
C171 H183 0.930 . S
N172 Gd163 2.661 . S
N172 C167 1.350 . S
N172 C173 1.307 . S
C173 C171 1.402 . S
C173 N172 1.307 . S
C173 H174 0.930 . S
H174 C173 0.930 . S
C175 N176 1.334 . S
C175 C177 1.394 . S
C175 H179 0.930 . S
N176 Gd163 2.601 . S
N176 C166 1.359 . S
N176 C175 1.334 . S
C177 C175 1.394 . S
C177 C178 1.359 . S
C177 H189 0.930 . S
C178 C168 1.391 . S
C178 C177 1.359 . S
C178 H190 0.929 . S
H179 C175 0.930 . S
H180 C169 0.930 . S
H181 C198 0.930 . S
H182 C170 0.930 . S
H183 C171 0.930 . S
H184 C165 0.929 . S
H185 C203 0.930 . S
H186 C194 0.930 . S
H187 C195 0.930 . S
H188 C219 0.929 . S
H189 C177 0.930 . S
H190 C178 0.929 . S
H191 C220 0.930 . S
H192 C201 0.930 . S
N193 Gd162 2.661 . S
N193 C197 1.350 . S
N193 C198 1.307 . S
C194 H186 0.930 . S
C194 C195 1.355 . S
C194 C196 1.412 . S
C195 H187 0.930 . S
C195 C194 1.355 . S
C195 C198 1.402 . S
C196 C194 1.412 . S
C196 C197 1.417 . S
C196 C220 1.431 . S
C197 N193 1.350 . S
C197 C196 1.417 . S
C197 C200 1.426 . S
C198 H181 0.930 . S
C198 N193 1.307 . S
C198 C195 1.402 . S
N199 Gd162 2.601 . S
N199 C200 1.359 . S
N199 C203 1.334 . S
C200 C197 1.426 . S
C200 N199 1.359 . S
C200 C204 1.413 . S
C201 H192 0.930 . S
C201 C202 1.359 . S
C201 C203 1.394 . S
C202 C201 1.359 . S
C202 C204 1.391 . S
C202 H205 0.929 . S
C203 H185 0.930 . S
C203 N199 1.334 . S
C203 C201 1.394 . S
C204 C200 1.413 . S
C204 C202 1.391 . S
C204 C219 1.437 . S
H205 C202 0.929 . S
O206 Gd162 2.545 . S
O206 C221 1.258 . S
O207 Gd162 2.606 1_565 S
O207 Gd163 2.362 1_554 S
O207 C218 1.284 . S
O208 Gd163 2.324 1_545 S
O208 C228 1.254 . S
O209 Gd162 2.429 . S
O209 C228 1.268 1_554 S
O210 Gd162 2.545 1_565 S
O210 C218 1.250 . S
O211 Gd162 2.412 . S
O211 C221 1.252 . S
O212 Gd163 2.545 . S
O212 C230 1.258 . S
O213 Gd162 2.362 1_556 S
O213 Gd163 2.606 1_545 S
O213 C229 1.284 . S
O214 Gd162 2.324 1_565 S
O214 C237 1.254 . S
O215 Gd163 2.429 . S
O215 C237 1.268 1_556 S
O216 Gd163 2.545 1_545 S
O216 C229 1.250 . S
O217 Gd163 2.412 . S
O217 C230 1.252 . S
C218 O207 1.284 . S
C218 O210 1.250 . S
C219 H188 0.929 . S
C219 C204 1.437 . S
C219 C220 1.317 . S
C220 H191 0.930 . S
C220 C196 1.431 . S
C220 C219 1.317 . S
C221 Gd162 2.828 . S
C221 O206 1.258 . S
C221 O211 1.252 . S
C221 C222 1.497 . S
C222 C221 1.497 . S
C222 C223 1.395 . S
C222 C224 1.380 1_545 S
C223 C222 1.395 . S
C223 C226 1.398 . S
C223 H238 0.930 . S
C224 C222 1.380 1_565 S
C224 C225 1.391 . S
C224 H239 0.930 . S
C225 C224 1.391 . S
C225 C227 1.387 1_565 S
C226 C223 1.398 . S
C226 C227 1.380 . S
C226 H240 0.930 . S
C227 C225 1.387 1_545 S
C227 C226 1.380 . S
C227 H241 0.930 . S
C228 O208 1.254 . S
C228 O209 1.268 1_556 S
C229 O213 1.284 . S
C229 O216 1.250 . S
C230 Gd163 2.828 . S
C230 O212 1.258 . S
C230 O217 1.252 . S
C230 C231 1.497 . S
C231 C230 1.497 . S
C231 C232 1.395 . S
C231 C233 1.380 1_565 S
C232 C231 1.395 . S
C232 C235 1.398 . S
C232 H242 0.930 . S
C233 C231 1.380 1_545 S
C233 C234 1.391 . S
C233 H243 0.930 . S
C234 C233 1.391 . S
C234 C236 1.387 1_545 S
C235 C232 1.398 . S
C235 C236 1.380 . S
C235 H244 0.930 . S
C236 C234 1.387 1_565 S
C236 C235 1.380 . S
C236 H245 0.930 . S
C237 O214 1.254 . S
C237 O215 1.268 1_554 S
H238 C223 0.930 . S
H239 C224 0.930 . S
H240 C226 0.930 . S
H241 C227 0.930 . S
H242 C232 0.930 . S
H243 C233 0.930 . S
H244 C235 0.930 . S
H245 C236 0.930 . S
Gd246 N277 2.661 . S
Gd246 N283 2.601 . S
Gd246 O290 2.545 . S
Gd246 O291 2.606 1_655 S
Gd246 O293 2.429 . S
Gd246 O294 2.545 1_655 S
Gd246 O295 2.412 . S
Gd246 O297 2.362 1_554 S
Gd246 O298 2.324 1_655 S
Gd246 C305 2.828 . S
Gd247 N256 2.661 . S
Gd247 N260 2.601 . S
Gd247 O291 2.362 1_556 S
Gd247 O292 2.324 1_455 S
Gd247 O296 2.545 . S
Gd247 O297 2.606 1_455 S
Gd247 O299 2.429 . S
Gd247 O300 2.545 1_455 S
Gd247 O301 2.412 . S
Gd247 C314 2.828 . S
C248 C251 1.417 . S
C248 C253 1.431 . S
C248 C254 1.412 . S
C249 C252 1.437 . S
C249 C253 1.317 . S
C249 H268 0.929 . S
C250 C251 1.426 . S
C250 C252 1.413 . S
C250 N260 1.359 . S
C251 C248 1.417 . S
C251 C250 1.426 . S
C251 N256 1.350 . S
C252 C249 1.437 . S
C252 C250 1.413 . S
C252 C262 1.391 . S
C253 C248 1.431 . S
C253 C249 1.317 . S
C253 H264 0.930 . S
C254 C248 1.412 . S
C254 C255 1.355 . S
C254 H266 0.930 . S
C255 C254 1.355 . S
C255 C257 1.402 . S
C255 H267 0.930 . S
N256 Gd247 2.661 . S
N256 C251 1.350 . S
N256 C257 1.307 . S
C257 C255 1.402 . S
C257 N256 1.307 . S
C257 H258 0.930 . S
H258 C257 0.930 . S
C259 N260 1.334 . S
C259 C261 1.394 . S
C259 H263 0.930 . S
N260 Gd247 2.601 . S
N260 C250 1.359 . S
N260 C259 1.334 . S
C261 C259 1.394 . S
C261 C262 1.359 . S
C261 H273 0.930 . S
C262 C252 1.391 . S
C262 C261 1.359 . S
C262 H274 0.929 . S
H263 C259 0.930 . S
H264 C253 0.930 . S
H265 C282 0.930 . S
H266 C254 0.930 . S
H267 C255 0.930 . S
H268 C249 0.929 . S
H269 C287 0.930 . S
H270 C278 0.930 . S
H271 C279 0.930 . S
H272 C303 0.929 . S
H273 C261 0.930 . S
H274 C262 0.929 . S
H275 C304 0.930 . S
H276 C285 0.930 . S
N277 Gd246 2.661 . S
N277 C281 1.350 . S
N277 C282 1.307 . S
C278 H270 0.930 . S
C278 C279 1.355 . S
C278 C280 1.412 . S
C279 H271 0.930 . S
C279 C278 1.355 . S
C279 C282 1.402 . S
C280 C278 1.412 . S
C280 C281 1.417 . S
C280 C304 1.431 . S
C281 N277 1.350 . S
C281 C280 1.417 . S
C281 C284 1.426 . S
C282 H265 0.930 . S
C282 N277 1.307 . S
C282 C279 1.402 . S
N283 Gd246 2.601 . S
N283 C284 1.359 . S
N283 C287 1.334 . S
C284 C281 1.426 . S
C284 N283 1.359 . S
C284 C288 1.413 . S
C285 H276 0.930 . S
C285 C286 1.359 . S
C285 C287 1.394 . S
C286 C285 1.359 . S
C286 C288 1.391 . S
C286 H289 0.929 . S
C287 H269 0.930 . S
C287 N283 1.334 . S
C287 C285 1.394 . S
C288 C284 1.413 . S
C288 C286 1.391 . S
C288 C303 1.437 . S
H289 C286 0.929 . S
O290 Gd246 2.545 . S
O290 C305 1.258 . S
O291 Gd246 2.606 1_455 S
O291 Gd247 2.362 1_554 S
O291 C302 1.284 . S
O292 Gd247 2.324 1_655 S
O292 C312 1.254 . S
O293 Gd246 2.429 . S
O293 C312 1.268 1_554 S
O294 Gd246 2.545 1_455 S
O294 C302 1.250 . S
O295 Gd246 2.412 . S
O295 C305 1.252 . S
O296 Gd247 2.545 . S
O296 C314 1.258 . S
O297 Gd246 2.362 1_556 S
O297 Gd247 2.606 1_655 S
O297 C313 1.284 . S
O298 Gd246 2.324 1_455 S
O298 C321 1.254 . S
O299 Gd247 2.429 . S
O299 C321 1.268 1_556 S
O300 Gd247 2.545 1_655 S
O300 C313 1.250 . S
O301 Gd247 2.412 . S
O301 C314 1.252 . S
C302 O291 1.284 . S
C302 O294 1.250 . S
C303 H272 0.929 . S
C303 C288 1.437 . S
C303 C304 1.317 . S
C304 H275 0.930 . S
C304 C280 1.431 . S
C304 C303 1.317 . S
C305 Gd246 2.828 . S
C305 O290 1.258 . S
C305 O295 1.252 . S
C305 C306 1.497 . S
C306 C305 1.497 . S
C306 C307 1.395 . S
C306 C308 1.380 1_655 S
C307 C306 1.395 . S
C307 C310 1.398 . S
C307 H322 0.930 . S
C308 C306 1.380 1_455 S
C308 C309 1.391 . S
C308 H323 0.930 . S
C309 C308 1.391 . S
C309 C311 1.387 1_455 S
C310 C307 1.398 . S
C310 C311 1.380 . S
C310 H324 0.930 . S
C311 C309 1.387 1_655 S
C311 C310 1.380 . S
C311 H325 0.930 . S
C312 O292 1.254 . S
C312 O293 1.268 1_556 S
C313 O297 1.284 . S
C313 O300 1.250 . S
C314 Gd247 2.828 . S
C314 O296 1.258 . S
C314 O301 1.252 . S
C314 C315 1.497 . S
C315 C314 1.497 . S
C315 C316 1.395 . S
C315 C317 1.380 1_455 S
C316 C315 1.395 . S
C316 C319 1.398 . S
C316 H326 0.930 . S
C317 C315 1.380 1_655 S
C317 C318 1.391 . S
C317 H327 0.930 . S
C318 C317 1.391 . S
C318 C320 1.387 1_655 S
C319 C316 1.398 . S
C319 C320 1.380 . S
C319 H328 0.930 . S
C320 C318 1.387 1_455 S
C320 C319 1.380 . S
C320 H329 0.930 . S
C321 O298 1.254 . S
C321 O299 1.268 1_554 S
H322 C307 0.930 . S
H323 C308 0.930 . S
H324 C310 0.930 . S
H325 C311 0.930 . S
H326 C316 0.930 . S
H327 C317 0.930 . S
H328 C319 0.930 . S
H329 C320 0.930 . S
Gd330 N361 2.661 . S
Gd330 N367 2.601 . S
Gd330 O374 2.545 . S
Gd330 O375 2.606 . S
Gd330 O377 2.429 . S
Gd330 O378 2.545 . S
Gd330 O379 2.412 . S
Gd330 O381 2.362 1_556 S
Gd330 O382 2.324 . S
Gd330 C389 2.828 . S
Gd331 N340 2.661 . S
Gd331 N344 2.601 . S
Gd331 O375 2.362 1_554 S
Gd331 O376 2.324 . S
Gd331 O380 2.545 . S
Gd331 O381 2.606 . S
Gd331 O383 2.429 . S
Gd331 O384 2.545 . S
Gd331 O385 2.412 . S
Gd331 C398 2.828 . S
C332 C335 1.417 . S
C332 C337 1.431 . S
C332 C338 1.412 . S
C333 C336 1.437 . S
C333 C337 1.317 . S
C333 H352 0.929 . S
C334 C335 1.426 . S
C334 C336 1.413 . S
C334 N344 1.359 . S
C335 C332 1.417 . S
C335 C334 1.426 . S
C335 N340 1.350 . S
C336 C333 1.437 . S
C336 C334 1.413 . S
C336 C346 1.391 . S
C337 C332 1.431 . S
C337 C333 1.317 . S
C337 H348 0.930 . S
C338 C332 1.412 . S
C338 C339 1.355 . S
C338 H350 0.930 . S
C339 C338 1.355 . S
C339 C341 1.402 . S
C339 H351 0.930 . S
N340 Gd331 2.661 . S
N340 C335 1.350 . S
N340 C341 1.307 . S
C341 C339 1.402 . S
C341 N340 1.307 . S
C341 H342 0.930 . S
H342 C341 0.930 . S
C343 N344 1.334 . S
C343 C345 1.394 . S
C343 H347 0.930 . S
N344 Gd331 2.601 . S
N344 C334 1.359 . S
N344 C343 1.334 . S
C345 C343 1.394 . S
C345 C346 1.359 . S
C345 H357 0.930 . S
C346 C336 1.391 . S
C346 C345 1.359 . S
C346 H358 0.929 . S
H347 C343 0.930 . S
H348 C337 0.930 . S
H349 C366 0.930 . S
H350 C338 0.930 . S
H351 C339 0.930 . S
H352 C333 0.929 . S
H353 C371 0.930 . S
H354 C362 0.930 . S
H355 C363 0.930 . S
H356 C387 0.929 . S
H357 C345 0.930 . S
H358 C346 0.929 . S
H359 C388 0.930 . S
H360 C369 0.930 . S
N361 Gd330 2.661 . S
N361 C365 1.350 . S
N361 C366 1.307 . S
C362 H354 0.930 . S
C362 C363 1.355 . S
C362 C364 1.412 . S
C363 H355 0.930 . S
C363 C362 1.355 . S
C363 C366 1.402 . S
C364 C362 1.412 . S
C364 C365 1.417 . S
C364 C388 1.431 . S
C365 N361 1.350 . S
C365 C364 1.417 . S
C365 C368 1.426 . S
C366 H349 0.930 . S
C366 N361 1.307 . S
C366 C363 1.402 . S
N367 Gd330 2.601 . S
N367 C368 1.359 . S
N367 C371 1.334 . S
C368 C365 1.426 . S
C368 N367 1.359 . S
C368 C372 1.413 . S
C369 H360 0.930 . S
C369 C370 1.359 . S
C369 C371 1.394 . S
C370 C369 1.359 . S
C370 C372 1.391 . S
C370 H373 0.929 . S
C371 H353 0.930 . S
C371 N367 1.334 . S
C371 C369 1.394 . S
C372 C368 1.413 . S
C372 C370 1.391 . S
C372 C387 1.437 . S
H373 C370 0.929 . S
O374 Gd330 2.545 . S
O374 C389 1.258 . S
O375 Gd330 2.606 . S
O375 Gd331 2.362 1_556 S
O375 C386 1.284 . S
O376 Gd331 2.324 . S
O376 C396 1.254 . S
O377 Gd330 2.429 . S
O377 C396 1.268 1_556 S
O378 Gd330 2.545 . S
O378 C386 1.250 . S
O379 Gd330 2.412 . S
O379 C389 1.252 . S
O380 Gd331 2.545 . S
O380 C398 1.258 . S
O381 Gd330 2.362 1_554 S
O381 Gd331 2.606 . S
O381 C397 1.284 . S
O382 Gd330 2.324 . S
O382 C405 1.254 . S
O383 Gd331 2.429 . S
O383 C405 1.268 1_554 S
O384 Gd331 2.545 . S
O384 C397 1.250 . S
O385 Gd331 2.412 . S
O385 C398 1.252 . S
C386 O375 1.284 . S
C386 O378 1.250 . S
C387 H356 0.929 . S
C387 C372 1.437 . S
C387 C388 1.317 . S
C388 H359 0.930 . S
C388 C364 1.431 . S
C388 C387 1.317 . S
C389 Gd330 2.828 . S
C389 O374 1.258 . S
C389 O379 1.252 . S
C389 C390 1.497 . S
C390 C389 1.497 . S
C390 C391 1.395 . S
C390 C392 1.380 . S
C391 C390 1.395 . S
C391 C394 1.398 . S
C391 H406 0.930 . S
C392 C390 1.380 . S
C392 C393 1.391 . S
C392 H407 0.930 . S
C393 C392 1.391 . S
C393 C395 1.387 . S
C394 C391 1.398 . S
C394 C395 1.380 . S
C394 H408 0.930 . S
C395 C393 1.387 . S
C395 C394 1.380 . S
C395 H409 0.930 . S
C396 O376 1.254 . S
C396 O377 1.268 1_554 S
C397 O381 1.284 . S
C397 O384 1.250 . S
C398 Gd331 2.828 . S
C398 O380 1.258 . S
C398 O385 1.252 . S
C398 C399 1.497 . S
C399 C398 1.497 . S
C399 C400 1.395 . S
C399 C401 1.380 . S
C400 C399 1.395 . S
C400 C403 1.398 . S
C400 H410 0.930 . S
C401 C399 1.380 . S
C401 C402 1.391 . S
C401 H411 0.930 . S
C402 C401 1.391 . S
C402 C404 1.387 . S
C403 C400 1.398 . S
C403 C404 1.380 . S
C403 H412 0.930 . S
C404 C402 1.387 . S
C404 C403 1.380 . S
C404 H413 0.930 . S
C405 O382 1.254 . S
C405 O383 1.268 1_556 S
H406 C391 0.930 . S
H407 C392 0.930 . S
H408 C394 0.930 . S
H409 C395 0.930 . S
H410 C400 0.930 . S
H411 C401 0.930 . S
H412 C403 0.930 . S
H413 C404 0.930 . S
Gd414 N445 2.661 . S
Gd414 N451 2.601 . S
Gd414 O458 2.545 . S
Gd414 O459 2.606 . S
Gd414 O461 2.429 . S
Gd414 O462 2.545 . S
Gd414 O463 2.412 . S
Gd414 O465 2.362 . S
Gd414 O466 2.324 . S
Gd414 C473 2.828 . S
Gd415 N424 2.661 . S
Gd415 N428 2.601 . S
Gd415 O459 2.362 . S
Gd415 O460 2.324 . S
Gd415 O464 2.545 . S
Gd415 O465 2.606 . S
Gd415 O467 2.429 . S
Gd415 O468 2.545 . S
Gd415 O469 2.412 . S
Gd415 C482 2.828 . S
C416 C419 1.417 . S
C416 C421 1.431 . S
C416 C422 1.412 . S
C417 C420 1.437 . S
C417 C421 1.317 . S
C417 H436 0.929 . S
C418 C419 1.426 . S
C418 C420 1.413 . S
C418 N428 1.359 . S
C419 C416 1.417 . S
C419 C418 1.426 . S
C419 N424 1.350 . S
C420 C417 1.437 . S
C420 C418 1.413 . S
C420 C430 1.391 . S
C421 C416 1.431 . S
C421 C417 1.317 . S
C421 H432 0.930 . S
C422 C416 1.412 . S
C422 C423 1.355 . S
C422 H434 0.930 . S
C423 C422 1.355 . S
C423 C425 1.402 . S
C423 H435 0.930 . S
N424 Gd415 2.661 . S
N424 C419 1.350 . S
N424 C425 1.307 . S
C425 C423 1.402 . S
C425 N424 1.307 . S
C425 H426 0.930 . S
H426 C425 0.930 . S
C427 N428 1.334 . S
C427 C429 1.394 . S
C427 H431 0.930 . S
N428 Gd415 2.601 . S
N428 C418 1.359 . S
N428 C427 1.334 . S
C429 C427 1.394 . S
C429 C430 1.359 . S
C429 H441 0.930 . S
C430 C420 1.391 . S
C430 C429 1.359 . S
C430 H442 0.929 . S
H431 C427 0.930 . S
H432 C421 0.930 . S
H433 C450 0.930 . S
H434 C422 0.930 . S
H435 C423 0.930 . S
H436 C417 0.929 . S
H437 C455 0.930 . S
H438 C446 0.930 . S
H439 C447 0.930 . S
H440 C471 0.929 . S
H441 C429 0.930 . S
H442 C430 0.929 . S
H443 C472 0.930 . S
H444 C453 0.930 . S
N445 Gd414 2.661 . S
N445 C449 1.350 . S
N445 C450 1.307 . S
C446 H438 0.930 . S
C446 C447 1.355 . S
C446 C448 1.412 . S
C447 H439 0.930 . S
C447 C446 1.355 . S
C447 C450 1.402 . S
C448 C446 1.412 . S
C448 C449 1.417 . S
C448 C472 1.431 . S
C449 N445 1.350 . S
C449 C448 1.417 . S
C449 C452 1.426 . S
C450 H433 0.930 . S
C450 N445 1.307 . S
C450 C447 1.402 . S
N451 Gd414 2.601 . S
N451 C452 1.359 . S
N451 C455 1.334 . S
C452 C449 1.426 . S
C452 N451 1.359 . S
C452 C456 1.413 . S
C453 H444 0.930 . S
C453 C454 1.359 . S
C453 C455 1.394 . S
C454 C453 1.359 . S
C454 C456 1.391 . S
C454 H457 0.929 . S
C455 H437 0.930 . S
C455 N451 1.334 . S
C455 C453 1.394 . S
C456 C452 1.413 . S
C456 C454 1.391 . S
C456 C471 1.437 . S
H457 C454 0.929 . S
O458 Gd414 2.545 . S
O458 C473 1.258 . S
O459 Gd414 2.606 . S
O459 Gd415 2.362 . S
O459 C470 1.284 . S
O460 Gd415 2.324 . S
O460 C480 1.254 . S
O461 Gd414 2.429 . S
O461 C480 1.268 . S
O462 Gd414 2.545 . S
O462 C470 1.250 . S
O463 Gd414 2.412 . S
O463 C473 1.252 . S
O464 Gd415 2.545 . S
O464 C482 1.258 . S
O465 Gd414 2.362 . S
O465 Gd415 2.606 . S
O465 C481 1.284 . S
O466 Gd414 2.324 . S
O466 C489 1.254 . S
O467 Gd415 2.429 . S
O467 C489 1.268 . S
O468 Gd415 2.545 . S
O468 C481 1.250 . S
O469 Gd415 2.412 . S
O469 C482 1.252 . S
C470 O459 1.284 . S
C470 O462 1.250 . S
C471 H440 0.929 . S
C471 C456 1.437 . S
C471 C472 1.317 . S
C472 H443 0.930 . S
C472 C448 1.431 . S
C472 C471 1.317 . S
C473 Gd414 2.828 . S
C473 O458 1.258 . S
C473 O463 1.252 . S
C473 C474 1.497 . S
C474 C473 1.497 . S
C474 C475 1.395 . S
C474 C476 1.380 . S
C475 C474 1.395 . S
C475 C478 1.398 . S
C475 H490 0.930 . S
C476 C474 1.380 . S
C476 C477 1.391 . S
C476 H491 0.930 . S
C477 C476 1.391 . S
C477 C479 1.387 . S
C478 C475 1.398 . S
C478 C479 1.380 . S
C478 H492 0.930 . S
C479 C477 1.387 . S
C479 C478 1.380 . S
C479 H493 0.930 . S
C480 O460 1.254 . S
C480 O461 1.268 . S
C481 O465 1.284 . S
C481 O468 1.250 . S
C482 Gd415 2.828 . S
C482 O464 1.258 . S
C482 O469 1.252 . S
C482 C483 1.497 . S
C483 C482 1.497 . S
C483 C484 1.395 . S
C483 C485 1.380 . S
C484 C483 1.395 . S
C484 C487 1.398 . S
C484 H494 0.930 . S
C485 C483 1.380 . S
C485 C486 1.391 . S
C485 H495 0.930 . S
C486 C485 1.391 . S
C486 C488 1.387 . S
C487 C484 1.398 . S
C487 C488 1.380 . S
C487 H496 0.930 . S
C488 C486 1.387 . S
C488 C487 1.380 . S
C488 H497 0.930 . S
C489 O466 1.254 . S
C489 O467 1.268 . S
H490 C475 0.930 . S
H491 C476 0.930 . S
H492 C478 0.930 . S
H493 C479 0.930 . S
H494 C484 0.930 . S
H495 C485 0.930 . S
H496 C487 0.930 . S
H497 C488 0.930 . S
Gd498 N529 2.661 . S
Gd498 N535 2.601 . S
Gd498 O542 2.545 . S
Gd498 O543 2.606 . S
Gd498 O545 2.429 . S
Gd498 O546 2.545 . S
Gd498 O547 2.412 . S
Gd498 O549 2.362 . S
Gd498 O550 2.324 . S
Gd498 C557 2.828 . S
Gd499 N508 2.661 . S
Gd499 N512 2.601 . S
Gd499 O543 2.362 . S
Gd499 O544 2.324 . S
Gd499 O548 2.545 . S
Gd499 O549 2.606 . S
Gd499 O551 2.429 . S
Gd499 O552 2.545 . S
Gd499 O553 2.412 . S
Gd499 C566 2.828 . S
C500 C503 1.417 . S
C500 C505 1.431 . S
C500 C506 1.412 . S
C501 C504 1.437 . S
C501 C505 1.317 . S
C501 H520 0.929 . S
C502 C503 1.426 . S
C502 C504 1.413 . S
C502 N512 1.359 . S
C503 C500 1.417 . S
C503 C502 1.426 . S
C503 N508 1.350 . S
C504 C501 1.437 . S
C504 C502 1.413 . S
C504 C514 1.391 . S
C505 C500 1.431 . S
C505 C501 1.317 . S
C505 H516 0.930 . S
C506 C500 1.412 . S
C506 C507 1.355 . S
C506 H518 0.930 . S
C507 C506 1.355 . S
C507 C509 1.402 . S
C507 H519 0.930 . S
N508 Gd499 2.661 . S
N508 C503 1.350 . S
N508 C509 1.307 . S
C509 C507 1.402 . S
C509 N508 1.307 . S
C509 H510 0.930 . S
H510 C509 0.930 . S
C511 N512 1.334 . S
C511 C513 1.394 . S
C511 H515 0.930 . S
N512 Gd499 2.601 . S
N512 C502 1.359 . S
N512 C511 1.334 . S
C513 C511 1.394 . S
C513 C514 1.359 . S
C513 H525 0.930 . S
C514 C504 1.391 . S
C514 C513 1.359 . S
C514 H526 0.929 . S
H515 C511 0.930 . S
H516 C505 0.930 . S
H517 C534 0.930 . S
H518 C506 0.930 . S
H519 C507 0.930 . S
H520 C501 0.929 . S
H521 C539 0.930 . S
H522 C530 0.930 . S
H523 C531 0.930 . S
H524 C555 0.929 . S
H525 C513 0.930 . S
H526 C514 0.929 . S
H527 C556 0.930 . S
H528 C537 0.930 . S
N529 Gd498 2.661 . S
N529 C533 1.350 . S
N529 C534 1.307 . S
C530 H522 0.930 . S
C530 C531 1.355 . S
C530 C532 1.412 . S
C531 H523 0.930 . S
C531 C530 1.355 . S
C531 C534 1.402 . S
C532 C530 1.412 . S
C532 C533 1.417 . S
C532 C556 1.431 . S
C533 N529 1.350 . S
C533 C532 1.417 . S
C533 C536 1.426 . S
C534 H517 0.930 . S
C534 N529 1.307 . S
C534 C531 1.402 . S
N535 Gd498 2.601 . S
N535 C536 1.359 . S
N535 C539 1.334 . S
C536 C533 1.426 . S
C536 N535 1.359 . S
C536 C540 1.413 . S
C537 H528 0.930 . S
C537 C538 1.359 . S
C537 C539 1.394 . S
C538 C537 1.359 . S
C538 C540 1.391 . S
C538 H541 0.929 . S
C539 H521 0.930 . S
C539 N535 1.334 . S
C539 C537 1.394 . S
C540 C536 1.413 . S
C540 C538 1.391 . S
C540 C555 1.437 . S
H541 C538 0.929 . S
O542 Gd498 2.545 . S
O542 C557 1.258 . S
O543 Gd498 2.606 . S
O543 Gd499 2.362 . S
O543 C554 1.284 . S
O544 Gd499 2.324 . S
O544 C564 1.254 . S
O545 Gd498 2.429 . S
O545 C564 1.268 . S
O546 Gd498 2.545 . S
O546 C554 1.250 . S
O547 Gd498 2.412 . S
O547 C557 1.252 . S
O548 Gd499 2.545 . S
O548 C566 1.258 . S
O549 Gd498 2.362 . S
O549 Gd499 2.606 . S
O549 C565 1.284 . S
O550 Gd498 2.324 . S
O550 C573 1.254 . S
O551 Gd499 2.429 . S
O551 C573 1.268 . S
O552 Gd499 2.545 . S
O552 C565 1.250 . S
O553 Gd499 2.412 . S
O553 C566 1.252 . S
C554 O543 1.284 . S
C554 O546 1.250 . S
C555 H524 0.929 . S
C555 C540 1.437 . S
C555 C556 1.317 . S
C556 H527 0.930 . S
C556 C532 1.431 . S
C556 C555 1.317 . S
C557 Gd498 2.828 . S
C557 O542 1.258 . S
C557 O547 1.252 . S
C557 C558 1.497 . S
C558 C557 1.497 . S
C558 C559 1.395 . S
C558 C560 1.380 . S
C559 C558 1.395 . S
C559 C562 1.398 . S
C559 H574 0.930 . S
C560 C558 1.380 . S
C560 C561 1.391 . S
C560 H575 0.930 . S
C561 C560 1.391 . S
C561 C563 1.387 . S
C562 C559 1.398 . S
C562 C563 1.380 . S
C562 H576 0.930 . S
C563 C561 1.387 . S
C563 C562 1.380 . S
C563 H577 0.930 . S
C564 O544 1.254 . S
C564 O545 1.268 . S
C565 O549 1.284 . S
C565 O552 1.250 . S
C566 Gd499 2.828 . S
C566 O548 1.258 . S
C566 O553 1.252 . S
C566 C567 1.497 . S
C567 C566 1.497 . S
C567 C568 1.395 . S
C567 C569 1.380 . S
C568 C567 1.395 . S
C568 C571 1.398 . S
C568 H578 0.930 . S
C569 C567 1.380 . S
C569 C570 1.391 . S
C569 H579 0.930 . S
C570 C569 1.391 . S
C570 C572 1.387 . S
C571 C568 1.398 . S
C571 C572 1.380 . S
C571 H580 0.930 . S
C572 C570 1.387 . S
C572 C571 1.380 . S
C572 H581 0.930 . S
C573 O550 1.254 . S
C573 O551 1.268 . S
H574 C559 0.930 . S
H575 C560 0.930 . S
H576 C562 0.930 . S
H577 C563 0.930 . S
H578 C568 0.930 . S
H579 C569 0.930 . S
H580 C571 0.930 . S
H581 C572 0.930 . S
Gd582 N613 2.661 . S
Gd582 N619 2.601 . S
Gd582 O626 2.545 . S
Gd582 O627 2.606 . S
Gd582 O629 2.429 . S
Gd582 O630 2.545 . S
Gd582 O631 2.412 . S
Gd582 O633 2.362 . S
Gd582 O634 2.324 . S
Gd582 C641 2.828 . S
Gd583 N592 2.661 . S
Gd583 N596 2.601 . S
Gd583 O627 2.362 . S
Gd583 O628 2.324 . S
Gd583 O632 2.545 . S
Gd583 O633 2.606 . S
Gd583 O635 2.429 . S
Gd583 O636 2.545 . S
Gd583 O637 2.412 . S
Gd583 C650 2.828 . S
C584 C587 1.417 . S
C584 C589 1.431 . S
C584 C590 1.412 . S
C585 C588 1.437 . S
C585 C589 1.317 . S
C585 H604 0.929 . S
C586 C587 1.426 . S
C586 C588 1.413 . S
C586 N596 1.359 . S
C587 C584 1.417 . S
C587 C586 1.426 . S
C587 N592 1.350 . S
C588 C585 1.437 . S
C588 C586 1.413 . S
C588 C598 1.391 . S
C589 C584 1.431 . S
C589 C585 1.317 . S
C589 H600 0.930 . S
C590 C584 1.412 . S
C590 C591 1.355 . S
C590 H602 0.930 . S
C591 C590 1.355 . S
C591 C593 1.402 . S
C591 H603 0.930 . S
N592 Gd583 2.661 . S
N592 C587 1.350 . S
N592 C593 1.307 . S
C593 C591 1.402 . S
C593 N592 1.307 . S
C593 H594 0.930 . S
H594 C593 0.930 . S
C595 N596 1.334 . S
C595 C597 1.394 . S
C595 H599 0.930 . S
N596 Gd583 2.601 . S
N596 C586 1.359 . S
N596 C595 1.334 . S
C597 C595 1.394 . S
C597 C598 1.359 . S
C597 H609 0.930 . S
C598 C588 1.391 . S
C598 C597 1.359 . S
C598 H610 0.929 . S
H599 C595 0.930 . S
H600 C589 0.930 . S
H601 C618 0.930 . S
H602 C590 0.930 . S
H603 C591 0.930 . S
H604 C585 0.929 . S
H605 C623 0.930 . S
H606 C614 0.930 . S
H607 C615 0.930 . S
H608 C639 0.929 . S
H609 C597 0.930 . S
H610 C598 0.929 . S
H611 C640 0.930 . S
H612 C621 0.930 . S
N613 Gd582 2.661 . S
N613 C617 1.350 . S
N613 C618 1.307 . S
C614 H606 0.930 . S
C614 C615 1.355 . S
C614 C616 1.412 . S
C615 H607 0.930 . S
C615 C614 1.355 . S
C615 C618 1.402 . S
C616 C614 1.412 . S
C616 C617 1.417 . S
C616 C640 1.431 . S
C617 N613 1.350 . S
C617 C616 1.417 . S
C617 C620 1.426 . S
C618 H601 0.930 . S
C618 N613 1.307 . S
C618 C615 1.402 . S
N619 Gd582 2.601 . S
N619 C620 1.359 . S
N619 C623 1.334 . S
C620 C617 1.426 . S
C620 N619 1.359 . S
C620 C624 1.413 . S
C621 H612 0.930 . S
C621 C622 1.359 . S
C621 C623 1.394 . S
C622 C621 1.359 . S
C622 C624 1.391 . S
C622 H625 0.929 . S
C623 H605 0.930 . S
C623 N619 1.334 . S
C623 C621 1.394 . S
C624 C620 1.413 . S
C624 C622 1.391 . S
C624 C639 1.437 . S
H625 C622 0.929 . S
O626 Gd582 2.545 . S
O626 C641 1.258 . S
O627 Gd582 2.606 . S
O627 Gd583 2.362 . S
O627 C638 1.284 . S
O628 Gd583 2.324 . S
O628 C648 1.254 . S
O629 Gd582 2.429 . S
O629 C648 1.268 . S
O630 Gd582 2.545 . S
O630 C638 1.250 . S
O631 Gd582 2.412 . S
O631 C641 1.252 . S
O632 Gd583 2.545 . S
O632 C650 1.258 . S
O633 Gd582 2.362 . S
O633 Gd583 2.606 . S
O633 C649 1.284 . S
O634 Gd582 2.324 . S
O634 C657 1.254 . S
O635 Gd583 2.429 . S
O635 C657 1.268 . S
O636 Gd583 2.545 . S
O636 C649 1.250 . S
O637 Gd583 2.412 . S
O637 C650 1.252 . S
C638 O627 1.284 . S
C638 O630 1.250 . S
C639 H608 0.929 . S
C639 C624 1.437 . S
C639 C640 1.317 . S
C640 H611 0.930 . S
C640 C616 1.431 . S
C640 C639 1.317 . S
C641 Gd582 2.828 . S
C641 O626 1.258 . S
C641 O631 1.252 . S
C641 C642 1.497 . S
C642 C641 1.497 . S
C642 C643 1.395 . S
C642 C644 1.380 . S
C643 C642 1.395 . S
C643 C646 1.398 . S
C643 H658 0.930 . S
C644 C642 1.380 . S
C644 C645 1.391 . S
C644 H659 0.930 . S
C645 C644 1.391 . S
C645 C647 1.387 . S
C646 C643 1.398 . S
C646 C647 1.380 . S
C646 H660 0.930 . S
C647 C645 1.387 . S
C647 C646 1.380 . S
C647 H661 0.930 . S
C648 O628 1.254 . S
C648 O629 1.268 . S
C649 O633 1.284 . S
C649 O636 1.250 . S
C650 Gd583 2.828 . S
C650 O632 1.258 . S
C650 O637 1.252 . S
C650 C651 1.497 . S
C651 C650 1.497 . S
C651 C652 1.395 . S
C651 C653 1.380 . S
C652 C651 1.395 . S
C652 C655 1.398 . S
C652 H662 0.930 . S
C653 C651 1.380 . S
C653 C654 1.391 . S
C653 H663 0.930 . S
C654 C653 1.391 . S
C654 C656 1.387 . S
C655 C652 1.398 . S
C655 C656 1.380 . S
C655 H664 0.930 . S
C656 C654 1.387 . S
C656 C655 1.380 . S
C656 H665 0.930 . S
C657 O634 1.254 . S
C657 O635 1.268 . S
H658 C643 0.930 . S
H659 C644 0.930 . S
H660 C646 0.930 . S
H661 C647 0.930 . S
H662 C652 0.930 . S
H663 C653 0.930 . S
H664 C655 0.930 . S
H665 C656 0.930 . S
Gd666 N697 2.661 . S
Gd666 N703 2.601 . S
Gd666 O710 2.545 . S
Gd666 O711 2.606 . S
Gd666 O713 2.429 . S
Gd666 O714 2.545 . S
Gd666 O715 2.412 . S
Gd666 O717 2.362 . S
Gd666 O718 2.324 . S
Gd666 C725 2.828 . S
Gd667 N676 2.661 . S
Gd667 N680 2.601 . S
Gd667 O711 2.362 . S
Gd667 O712 2.324 . S
Gd667 O716 2.545 . S
Gd667 O717 2.606 . S
Gd667 O719 2.429 . S
Gd667 O720 2.545 . S
Gd667 O721 2.412 . S
Gd667 C734 2.828 . S
C668 C671 1.417 . S
C668 C673 1.431 . S
C668 C674 1.412 . S
C669 C672 1.437 . S
C669 C673 1.317 . S
C669 H688 0.929 . S
C670 C671 1.426 . S
C670 C672 1.413 . S
C670 N680 1.359 . S
C671 C668 1.417 . S
C671 C670 1.426 . S
C671 N676 1.350 . S
C672 C669 1.437 . S
C672 C670 1.413 . S
C672 C682 1.391 . S
C673 C668 1.431 . S
C673 C669 1.317 . S
C673 H684 0.930 . S
C674 C668 1.412 . S
C674 C675 1.355 . S
C674 H686 0.930 . S
C675 C674 1.355 . S
C675 C677 1.402 . S
C675 H687 0.930 . S
N676 Gd667 2.661 . S
N676 C671 1.350 . S
N676 C677 1.307 . S
C677 C675 1.402 . S
C677 N676 1.307 . S
C677 H678 0.930 . S
H678 C677 0.930 . S
C679 N680 1.334 . S
C679 C681 1.394 . S
C679 H683 0.930 . S
N680 Gd667 2.601 . S
N680 C670 1.359 . S
N680 C679 1.334 . S
C681 C679 1.394 . S
C681 C682 1.359 . S
C681 H693 0.930 . S
C682 C672 1.391 . S
C682 C681 1.359 . S
C682 H694 0.929 . S
H683 C679 0.930 . S
H684 C673 0.930 . S
H685 C702 0.930 . S
H686 C674 0.930 . S
H687 C675 0.930 . S
H688 C669 0.929 . S
H689 C707 0.930 . S
H690 C698 0.930 . S
H691 C699 0.930 . S
H692 C723 0.929 . S
H693 C681 0.930 . S
H694 C682 0.929 . S
H695 C724 0.930 . S
H696 C705 0.930 . S
N697 Gd666 2.661 . S
N697 C701 1.350 . S
N697 C702 1.307 . S
C698 H690 0.930 . S
C698 C699 1.355 . S
C698 C700 1.412 . S
C699 H691 0.930 . S
C699 C698 1.355 . S
C699 C702 1.402 . S
C700 C698 1.412 . S
C700 C701 1.417 . S
C700 C724 1.431 . S
C701 N697 1.350 . S
C701 C700 1.417 . S
C701 C704 1.426 . S
C702 H685 0.930 . S
C702 N697 1.307 . S
C702 C699 1.402 . S
N703 Gd666 2.601 . S
N703 C704 1.359 . S
N703 C707 1.334 . S
C704 C701 1.426 . S
C704 N703 1.359 . S
C704 C708 1.413 . S
C705 H696 0.930 . S
C705 C706 1.359 . S
C705 C707 1.394 . S
C706 C705 1.359 . S
C706 C708 1.391 . S
C706 H709 0.929 . S
C707 H689 0.930 . S
C707 N703 1.334 . S
C707 C705 1.394 . S
C708 C704 1.413 . S
C708 C706 1.391 . S
C708 C723 1.437 . S
H709 C706 0.929 . S
O710 Gd666 2.545 . S
O710 C725 1.258 . S
O711 Gd666 2.606 . S
O711 Gd667 2.362 . S
O711 C722 1.284 . S
O712 Gd667 2.324 . S
O712 C732 1.254 . S
O713 Gd666 2.429 . S
O713 C732 1.268 . S
O714 Gd666 2.545 . S
O714 C722 1.250 . S
O715 Gd666 2.412 . S
O715 C725 1.252 . S
O716 Gd667 2.545 . S
O716 C734 1.258 . S
O717 Gd666 2.362 . S
O717 Gd667 2.606 . S
O717 C733 1.284 . S
O718 Gd666 2.324 . S
O718 C741 1.254 . S
O719 Gd667 2.429 . S
O719 C741 1.268 . S
O720 Gd667 2.545 . S
O720 C733 1.250 . S
O721 Gd667 2.412 . S
O721 C734 1.252 . S
C722 O711 1.284 . S
C722 O714 1.250 . S
C723 H692 0.929 . S
C723 C708 1.437 . S
C723 C724 1.317 . S
C724 H695 0.930 . S
C724 C700 1.431 . S
C724 C723 1.317 . S
C725 Gd666 2.828 . S
C725 O710 1.258 . S
C725 O715 1.252 . S
C725 C726 1.497 . S
C726 C725 1.497 . S
C726 C727 1.395 . S
C726 C728 1.380 . S
C727 C726 1.395 . S
C727 C730 1.398 . S
C727 H742 0.930 . S
C728 C726 1.380 . S
C728 C729 1.391 . S
C728 H743 0.930 . S
C729 C728 1.391 . S
C729 C731 1.387 . S
C730 C727 1.398 . S
C730 C731 1.380 . S
C730 H744 0.930 . S
C731 C729 1.387 . S
C731 C730 1.380 . S
C731 H745 0.930 . S
C732 O712 1.254 . S
C732 O713 1.268 . S
C733 O717 1.284 . S
C733 O720 1.250 . S
C734 Gd667 2.828 . S
C734 O716 1.258 . S
C734 O721 1.252 . S
C734 C735 1.497 . S
C735 C734 1.497 . S
C735 C736 1.395 . S
C735 C737 1.380 . S
C736 C735 1.395 . S
C736 C739 1.398 . S
C736 H746 0.930 . S
C737 C735 1.380 . S
C737 C738 1.391 . S
C737 H747 0.930 . S
C738 C737 1.391 . S
C738 C740 1.387 . S
C739 C736 1.398 . S
C739 C740 1.380 . S
C739 H748 0.930 . S
C740 C738 1.387 . S
C740 C739 1.380 . S
C740 H749 0.930 . S
C741 O718 1.254 . S
C741 O719 1.268 . S
H742 C727 0.930 . S
H743 C728 0.930 . S
H744 C730 0.930 . S
H745 C731 0.930 . S
H746 C736 0.930 . S
H747 C737 0.930 . S
H748 C739 0.930 . S
H749 C740 0.930 . S
Gd750 N781 2.661 . S
Gd750 N787 2.601 . S
Gd750 O794 2.545 . S
Gd750 O795 2.606 . S
Gd750 O797 2.429 . S
Gd750 O798 2.545 . S
Gd750 O799 2.412 . S
Gd750 O801 2.362 . S
Gd750 O802 2.324 . S
Gd750 C809 2.828 . S
Gd751 N760 2.661 . S
Gd751 N764 2.601 . S
Gd751 O795 2.362 . S
Gd751 O796 2.324 . S
Gd751 O800 2.545 . S
Gd751 O801 2.606 . S
Gd751 O803 2.429 . S
Gd751 O804 2.545 . S
Gd751 O805 2.412 . S
Gd751 C818 2.828 . S
C752 C755 1.417 . S
C752 C757 1.431 . S
C752 C758 1.412 . S
C753 C756 1.437 . S
C753 C757 1.317 . S
C753 H772 0.929 . S
C754 C755 1.426 . S
C754 C756 1.413 . S
C754 N764 1.359 . S
C755 C752 1.417 . S
C755 C754 1.426 . S
C755 N760 1.350 . S
C756 C753 1.437 . S
C756 C754 1.413 . S
C756 C766 1.391 . S
C757 C752 1.431 . S
C757 C753 1.317 . S
C757 H768 0.930 . S
C758 C752 1.412 . S
C758 C759 1.355 . S
C758 H770 0.930 . S
C759 C758 1.355 . S
C759 C761 1.402 . S
C759 H771 0.930 . S
N760 Gd751 2.661 . S
N760 C755 1.350 . S
N760 C761 1.307 . S
C761 C759 1.402 . S
C761 N760 1.307 . S
C761 H762 0.930 . S
H762 C761 0.930 . S
C763 N764 1.334 . S
C763 C765 1.394 . S
C763 H767 0.930 . S
N764 Gd751 2.601 . S
N764 C754 1.359 . S
N764 C763 1.334 . S
C765 C763 1.394 . S
C765 C766 1.359 . S
C765 H777 0.930 . S
C766 C756 1.391 . S
C766 C765 1.359 . S
C766 H778 0.929 . S
H767 C763 0.930 . S
H768 C757 0.930 . S
H769 C786 0.930 . S
H770 C758 0.930 . S
H771 C759 0.930 . S
H772 C753 0.929 . S
H773 C791 0.930 . S
H774 C782 0.930 . S
H775 C783 0.930 . S
H776 C807 0.929 . S
H777 C765 0.930 . S
H778 C766 0.929 . S
H779 C808 0.930 . S
H780 C789 0.930 . S
N781 Gd750 2.661 . S
N781 C785 1.350 . S
N781 C786 1.307 . S
C782 H774 0.930 . S
C782 C783 1.355 . S
C782 C784 1.412 . S
C783 H775 0.930 . S
C783 C782 1.355 . S
C783 C786 1.402 . S
C784 C782 1.412 . S
C784 C785 1.417 . S
C784 C808 1.431 . S
C785 N781 1.350 . S
C785 C784 1.417 . S
C785 C788 1.426 . S
C786 H769 0.930 . S
C786 N781 1.307 . S
C786 C783 1.402 . S
N787 Gd750 2.601 . S
N787 C788 1.359 . S
N787 C791 1.334 . S
C788 C785 1.426 . S
C788 N787 1.359 . S
C788 C792 1.413 . S
C789 H780 0.930 . S
C789 C790 1.359 . S
C789 C791 1.394 . S
C790 C789 1.359 . S
C790 C792 1.391 . S
C790 H793 0.929 . S
C791 H773 0.930 . S
C791 N787 1.334 . S
C791 C789 1.394 . S
C792 C788 1.413 . S
C792 C790 1.391 . S
C792 C807 1.437 . S
H793 C790 0.929 . S
O794 Gd750 2.545 . S
O794 C809 1.258 . S
O795 Gd750 2.606 . S
O795 Gd751 2.362 . S
O795 C806 1.284 . S
O796 Gd751 2.324 . S
O796 C816 1.254 . S
O797 Gd750 2.429 . S
O797 C816 1.268 . S
O798 Gd750 2.545 . S
O798 C806 1.250 . S
O799 Gd750 2.412 . S
O799 C809 1.252 . S
O800 Gd751 2.545 . S
O800 C818 1.258 . S
O801 Gd750 2.362 . S
O801 Gd751 2.606 . S
O801 C817 1.284 . S
O802 Gd750 2.324 . S
O802 C825 1.254 . S
O803 Gd751 2.429 . S
O803 C825 1.268 . S
O804 Gd751 2.545 . S
O804 C817 1.250 . S
O805 Gd751 2.412 . S
O805 C818 1.252 . S
C806 O795 1.284 . S
C806 O798 1.250 . S
C807 H776 0.929 . S
C807 C792 1.437 . S
C807 C808 1.317 . S
C808 H779 0.930 . S
C808 C784 1.431 . S
C808 C807 1.317 . S
C809 Gd750 2.828 . S
C809 O794 1.258 . S
C809 O799 1.252 . S
C809 C810 1.497 . S
C810 C809 1.497 . S
C810 C811 1.395 . S
C810 C812 1.380 . S
C811 C810 1.395 . S
C811 C814 1.398 . S
C811 H826 0.930 . S
C812 C810 1.380 . S
C812 C813 1.391 . S
C812 H827 0.930 . S
C813 C812 1.391 . S
C813 C815 1.387 . S
C814 C811 1.398 . S
C814 C815 1.380 . S
C814 H828 0.930 . S
C815 C813 1.387 . S
C815 C814 1.380 . S
C815 H829 0.930 . S
C816 O796 1.254 . S
C816 O797 1.268 . S
C817 O801 1.284 . S
C817 O804 1.250 . S
C818 Gd751 2.828 . S
C818 O800 1.258 . S
C818 O805 1.252 . S
C818 C819 1.497 . S
C819 C818 1.497 . S
C819 C820 1.395 . S
C819 C821 1.380 . S
C820 C819 1.395 . S
C820 C823 1.398 . S
C820 H830 0.930 . S
C821 C819 1.380 . S
C821 C822 1.391 . S
C821 H831 0.930 . S
C822 C821 1.391 . S
C822 C824 1.387 . S
C823 C820 1.398 . S
C823 C824 1.380 . S
C823 H832 0.930 . S
C824 C822 1.387 . S
C824 C823 1.380 . S
C824 H833 0.930 . S
C825 O802 1.254 . S
C825 O803 1.268 . S
H826 C811 0.930 . S
H827 C812 0.930 . S
H828 C814 0.930 . S
H829 C815 0.930 . S
H830 C820 0.930 . S
H831 C821 0.930 . S
H832 C823 0.930 . S
H833 C824 0.930 . S
Gd834 N865 2.661 . S
Gd834 N871 2.601 . S
Gd834 O878 2.545 . S
Gd834 O879 2.606 . S
Gd834 O881 2.429 . S
Gd834 O882 2.545 . S
Gd834 O883 2.412 . S
Gd834 O885 2.362 . S
Gd834 O886 2.324 . S
Gd834 C893 2.828 . S
Gd835 N844 2.661 . S
Gd835 N848 2.601 . S
Gd835 O879 2.362 . S
Gd835 O880 2.324 . S
Gd835 O884 2.545 . S
Gd835 O885 2.606 . S
Gd835 O887 2.429 . S
Gd835 O888 2.545 . S
Gd835 O889 2.412 . S
Gd835 C902 2.828 . S
C836 C839 1.417 . S
C836 C841 1.431 . S
C836 C842 1.412 . S
C837 C840 1.437 . S
C837 C841 1.317 . S
C837 H856 0.929 . S
C838 C839 1.426 . S
C838 C840 1.413 . S
C838 N848 1.359 . S
C839 C836 1.417 . S
C839 C838 1.426 . S
C839 N844 1.350 . S
C840 C837 1.437 . S
C840 C838 1.413 . S
C840 C850 1.391 . S
C841 C836 1.431 . S
C841 C837 1.317 . S
C841 H852 0.930 . S
C842 C836 1.412 . S
C842 C843 1.355 . S
C842 H854 0.930 . S
C843 C842 1.355 . S
C843 C845 1.402 . S
C843 H855 0.930 . S
N844 Gd835 2.661 . S
N844 C839 1.350 . S
N844 C845 1.307 . S
C845 C843 1.402 . S
C845 N844 1.307 . S
C845 H846 0.930 . S
H846 C845 0.930 . S
C847 N848 1.334 . S
C847 C849 1.394 . S
C847 H851 0.930 . S
N848 Gd835 2.601 . S
N848 C838 1.359 . S
N848 C847 1.334 . S
C849 C847 1.394 . S
C849 C850 1.359 . S
C849 H861 0.930 . S
C850 C840 1.391 . S
C850 C849 1.359 . S
C850 H862 0.929 . S
H851 C847 0.930 . S
H852 C841 0.930 . S
H853 C870 0.930 . S
H854 C842 0.930 . S
H855 C843 0.930 . S
H856 C837 0.929 . S
H857 C875 0.930 . S
H858 C866 0.930 . S
H859 C867 0.930 . S
H860 C891 0.929 . S
H861 C849 0.930 . S
H862 C850 0.929 . S
H863 C892 0.930 . S
H864 C873 0.930 . S
N865 Gd834 2.661 . S
N865 C869 1.350 . S
N865 C870 1.307 . S
C866 H858 0.930 . S
C866 C867 1.355 . S
C866 C868 1.412 . S
C867 H859 0.930 . S
C867 C866 1.355 . S
C867 C870 1.402 . S
C868 C866 1.412 . S
C868 C869 1.417 . S
C868 C892 1.431 . S
C869 N865 1.350 . S
C869 C868 1.417 . S
C869 C872 1.426 . S
C870 H853 0.930 . S
C870 N865 1.307 . S
C870 C867 1.402 . S
N871 Gd834 2.601 . S
N871 C872 1.359 . S
N871 C875 1.334 . S
C872 C869 1.426 . S
C872 N871 1.359 . S
C872 C876 1.413 . S
C873 H864 0.930 . S
C873 C874 1.359 . S
C873 C875 1.394 . S
C874 C873 1.359 . S
C874 C876 1.391 . S
C874 H877 0.929 . S
C875 H857 0.930 . S
C875 N871 1.334 . S
C875 C873 1.394 . S
C876 C872 1.413 . S
C876 C874 1.391 . S
C876 C891 1.437 . S
H877 C874 0.929 . S
O878 Gd834 2.545 . S
O878 C893 1.258 . S
O879 Gd834 2.606 . S
O879 Gd835 2.362 . S
O879 C890 1.284 . S
O880 Gd835 2.324 . S
O880 C900 1.254 . S
O881 Gd834 2.429 . S
O881 C900 1.268 . S
O882 Gd834 2.545 . S
O882 C890 1.250 . S
O883 Gd834 2.412 . S
O883 C893 1.252 . S
O884 Gd835 2.545 . S
O884 C902 1.258 . S
O885 Gd834 2.362 . S
O885 Gd835 2.606 . S
O885 C901 1.284 . S
O886 Gd834 2.324 . S
O886 C909 1.254 . S
O887 Gd835 2.429 . S
O887 C909 1.268 . S
O888 Gd835 2.545 . S
O888 C901 1.250 . S
O889 Gd835 2.412 . S
O889 C902 1.252 . S
C890 O879 1.284 . S
C890 O882 1.250 . S
C891 H860 0.929 . S
C891 C876 1.437 . S
C891 C892 1.317 . S
C892 H863 0.930 . S
C892 C868 1.431 . S
C892 C891 1.317 . S
C893 Gd834 2.828 . S
C893 O878 1.258 . S
C893 O883 1.252 . S
C893 C894 1.497 . S
C894 C893 1.497 . S
C894 C895 1.395 . S
C894 C896 1.380 . S
C895 C894 1.395 . S
C895 C898 1.398 . S
C895 H910 0.930 . S
C896 C894 1.380 . S
C896 C897 1.391 . S
C896 H911 0.930 . S
C897 C896 1.391 . S
C897 C899 1.387 . S
C898 C895 1.398 . S
C898 C899 1.380 . S
C898 H912 0.930 . S
C899 C897 1.387 . S
C899 C898 1.380 . S
C899 H913 0.930 . S
C900 O880 1.254 . S
C900 O881 1.268 . S
C901 O885 1.284 . S
C901 O888 1.250 . S
C902 Gd835 2.828 . S
C902 O884 1.258 . S
C902 O889 1.252 . S
C902 C903 1.497 . S
C903 C902 1.497 . S
C903 C904 1.395 . S
C903 C905 1.380 . S
C904 C903 1.395 . S
C904 C907 1.398 . S
C904 H914 0.930 . S
C905 C903 1.380 . S
C905 C906 1.391 . S
C905 H915 0.930 . S
C906 C905 1.391 . S
C906 C908 1.387 . S
C907 C904 1.398 . S
C907 C908 1.380 . S
C907 H916 0.930 . S
C908 C906 1.387 . S
C908 C907 1.380 . S
C908 H917 0.930 . S
C909 O886 1.254 . S
C909 O887 1.268 . S
H910 C895 0.930 . S
H911 C896 0.930 . S
H912 C898 0.930 . S
H913 C899 0.930 . S
H914 C904 0.930 . S
H915 C905 0.930 . S
H916 C907 0.930 . S
H917 C908 0.930 . S
H918 C926 0.929 . S
H919 C928 0.930 . S
H920 C930 0.930 . S
H921 C933 0.929 . S
H922 C936 0.930 . S
H923 C938 0.960 . S
H924 C938 0.960 . S
H925 C938 0.960 . S
C926 H918 0.929 . S
C926 C927 1.377 . S
C926 C928 1.384 . S
C927 C926 1.377 . S
C927 C933 1.390 . S
C928 H919 0.930 . S
C928 C926 1.384 . S
C928 C929 1.372 . S
C929 C928 1.372 . S
C929 C930 1.400 . S
C929 C934 1.490 . S
C930 H920 0.930 . S
C930 C929 1.400 . S
C930 C933 1.386 . S
H931 C947 0.930 . S
H932 C948 0.931 . S
C933 H921 0.929 . S
C933 C927 1.390 . S
C933 C930 1.386 . S
C934 C929 1.490 . S
C934 C936 1.395 . S
C934 C937 1.403 . S
H935 C941 0.930 . S
C936 H922 0.930 . S
C936 C934 1.395 . S
C936 C939 1.403 . S
C937 C934 1.403 . S
C937 C938 1.524 . S
C937 C941 1.400 . S
C938 H923 0.960 . S
C938 H924 0.960 . S
C938 H925 0.960 . S
C938 C937 1.524 . S
C939 C936 1.403 . S
C939 C940 1.392 . S
C939 C943 1.495 . S
C940 C939 1.392 . S
C940 C941 1.385 . S
C940 C942 1.478 . S
C941 H935 0.930 . S
C941 C937 1.400 . S
C941 C940 1.385 . S
C942 C940 1.478 . S
C942 C944 1.381 . S
C942 C948 1.383 . S
C943 C939 1.495 . S
C943 H949 0.959 . S
C943 H950 0.961 . S
C943 H951 0.960 . S
C944 C942 1.381 . S
C944 C945 1.394 . S
C944 H952 0.930 . S
C945 C944 1.394 . S
C945 C946 1.383 . S
C945 H953 0.929 . S
C946 C945 1.383 . S
C946 C947 1.377 . S
C947 H931 0.930 . S
C947 C946 1.377 . S
C947 C948 1.379 . S
C948 H932 0.931 . S
C948 C942 1.383 . S
C948 C947 1.379 . S
H949 C943 0.959 . S
H950 C943 0.961 . S
H951 C943 0.960 . S
H952 C944 0.930 . S
H953 C945 0.929 . S
H954 C962 0.929 . S
H955 C964 0.930 . S
H956 C966 0.930 . S
H957 C969 0.929 . S
H958 C972 0.930 . S
H959 C974 0.960 . S
H960 C974 0.960 . S
H961 C974 0.960 . S
C962 H954 0.929 . S
C962 C963 1.377 . S
C962 C964 1.384 . S
C963 C962 1.377 . S
C963 C969 1.390 . S
C964 H955 0.930 . S
C964 C962 1.384 . S
C964 C965 1.372 . S
C965 C964 1.372 . S
C965 C966 1.400 . S
C965 C970 1.490 . S
C966 H956 0.930 . S
C966 C965 1.400 . S
C966 C969 1.386 . S
H967 C983 0.930 . S
H968 C984 0.931 . S
C969 H957 0.929 . S
C969 C963 1.390 . S
C969 C966 1.386 . S
C970 C965 1.490 . S
C970 C972 1.395 . S
C970 C973 1.403 . S
H971 C977 0.930 . S
C972 H958 0.930 . S
C972 C970 1.395 . S
C972 C975 1.403 . S
C973 C970 1.403 . S
C973 C974 1.524 . S
C973 C977 1.400 . S
C974 H959 0.960 . S
C974 H960 0.960 . S
C974 H961 0.960 . S
C974 C973 1.524 . S
C975 C972 1.403 . S
C975 C976 1.392 . S
C975 C979 1.495 . S
C976 C975 1.392 . S
C976 C977 1.385 . S
C976 C978 1.478 . S
C977 H971 0.930 . S
C977 C973 1.400 . S
C977 C976 1.385 . S
C978 C976 1.478 . S
C978 C980 1.381 . S
C978 C984 1.383 . S
C979 C975 1.495 . S
C979 H985 0.959 . S
C979 H986 0.961 . S
C979 H987 0.960 . S
C980 C978 1.381 . S
C980 C981 1.394 . S
C980 H988 0.930 . S
C981 C980 1.394 . S
C981 C982 1.383 . S
C981 H989 0.929 . S
C982 C981 1.383 . S
C982 C983 1.377 . S
C983 H967 0.930 . S
C983 C982 1.377 . S
C983 C984 1.379 . S
C984 H968 0.931 . S
C984 C978 1.383 . S
C984 C983 1.379 . S
H985 C979 0.959 . S
H986 C979 0.961 . S
H987 C979 0.960 . S
H988 C980 0.930 . S
H989 C981 0.929 . S
H990 C998 0.929 . S
H991 C1000 0.930 . S
H992 C1002 0.930 . S
H993 C1005 0.929 . S
H994 C1008 0.930 . S
H995 C1010 0.960 . S
H996 C1010 0.960 . S
H997 C1010 0.960 . S
C998 H990 0.929 . S
C998 C999 1.377 . S
C998 C1000 1.384 . S
C999 C998 1.377 . S
C999 C1005 1.390 . S
C1000 H991 0.930 . S
C1000 C998 1.384 . S
C1000 C1001 1.372 . S
C1001 C1000 1.372 . S
C1001 C1002 1.400 . S
C1001 C1006 1.490 . S
C1002 H992 0.930 . S
C1002 C1001 1.400 . S
C1002 C1005 1.386 . S
H1003 C1019 0.930 . S
H1004 C1020 0.931 . S
C1005 H993 0.929 . S
C1005 C999 1.390 . S
C1005 C1002 1.386 . S
C1006 C1001 1.490 . S
C1006 C1008 1.395 . S
C1006 C1009 1.403 . S
H1007 C1013 0.930 . S
C1008 H994 0.930 . S
C1008 C1006 1.395 . S
C1008 C1011 1.403 . S
C1009 C1006 1.403 . S
C1009 C1010 1.524 . S
C1009 C1013 1.400 . S
C1010 H995 0.960 . S
C1010 H996 0.960 . S
C1010 H997 0.960 . S
C1010 C1009 1.524 . S
C1011 C1008 1.403 . S
C1011 C1012 1.392 . S
C1011 C1015 1.495 . S
C1012 C1011 1.392 . S
C1012 C1013 1.385 . S
C1012 C1014 1.478 . S
C1013 H1007 0.930 . S
C1013 C1009 1.400 . S
C1013 C1012 1.385 . S
C1014 C1012 1.478 . S
C1014 C1016 1.381 . S
C1014 C1020 1.383 . S
C1015 C1011 1.495 . S
C1015 H1021 0.959 . S
C1015 H1022 0.961 . S
C1015 H1023 0.960 . S
C1016 C1014 1.381 . S
C1016 C1017 1.394 . S
C1016 H1024 0.930 . S
C1017 C1016 1.394 . S
C1017 C1018 1.383 . S
C1017 H1025 0.929 . S
C1018 C1017 1.383 . S
C1018 C1019 1.377 . S
C1019 H1003 0.930 . S
C1019 C1018 1.377 . S
C1019 C1020 1.379 . S
C1020 H1004 0.931 . S
C1020 C1014 1.383 . S
C1020 C1019 1.379 . S
H1021 C1015 0.959 . S
H1022 C1015 0.961 . S
H1023 C1015 0.960 . S
H1024 C1016 0.930 . S
H1025 C1017 0.929 . S
H1026 C1034 0.929 . S
H1027 C1036 0.930 . S
H1028 C1038 0.930 . S
H1029 C1041 0.929 . S
H1030 C1044 0.930 . S
H1031 C1046 0.960 . S
H1032 C1046 0.960 . S
H1033 C1046 0.960 . S
C1034 H1026 0.929 . S
C1034 C1035 1.377 . S
C1034 C1036 1.384 . S
C1035 C1034 1.377 . S
C1035 C1041 1.390 . S
C1036 H1027 0.930 . S
C1036 C1034 1.384 . S
C1036 C1037 1.372 . S
C1037 C1036 1.372 . S
C1037 C1038 1.400 . S
C1037 C1042 1.490 . S
C1038 H1028 0.930 . S
C1038 C1037 1.400 . S
C1038 C1041 1.386 . S
H1039 C1055 0.930 . S
H1040 C1056 0.931 . S
C1041 H1029 0.929 . S
C1041 C1035 1.390 . S
C1041 C1038 1.386 . S
C1042 C1037 1.490 . S
C1042 C1044 1.395 . S
C1042 C1045 1.403 . S
H1043 C1049 0.930 . S
C1044 H1030 0.930 . S
C1044 C1042 1.395 . S
C1044 C1047 1.403 . S
C1045 C1042 1.403 . S
C1045 C1046 1.524 . S
C1045 C1049 1.400 . S
C1046 H1031 0.960 . S
C1046 H1032 0.960 . S
C1046 H1033 0.960 . S
C1046 C1045 1.524 . S
C1047 C1044 1.403 . S
C1047 C1048 1.392 . S
C1047 C1051 1.495 . S
C1048 C1047 1.392 . S
C1048 C1049 1.385 . S
C1048 C1050 1.478 . S
C1049 H1043 0.930 . S
C1049 C1045 1.400 . S
C1049 C1048 1.385 . S
C1050 C1048 1.478 . S
C1050 C1052 1.381 . S
C1050 C1056 1.383 . S
C1051 C1047 1.495 . S
C1051 H1057 0.959 . S
C1051 H1058 0.961 . S
C1051 H1059 0.960 . S
C1052 C1050 1.381 . S
C1052 C1053 1.394 . S
C1052 H1060 0.930 . S
C1053 C1052 1.394 . S
C1053 C1054 1.383 . S
C1053 H1061 0.929 1_556 S
C1054 C1053 1.383 . S
C1054 C1055 1.377 . S
C1055 H1039 0.930 . S
C1055 C1054 1.377 . S
C1055 C1056 1.379 . S
C1056 H1040 0.931 . S
C1056 C1050 1.383 . S
C1056 C1055 1.379 . S
H1057 C1051 0.959 . S
H1058 C1051 0.961 . S
H1059 C1051 0.960 . S
H1060 C1052 0.930 . S
H1061 C1053 0.929 1_554 S
H1062 C1070 0.929 . S
H1063 C1072 0.930 . S
H1064 C1074 0.930 . S
H1065 C1077 0.929 . S
H1066 C1080 0.930 . S
H1067 C1082 0.960 . S
H1068 C1082 0.960 . S
H1069 C1082 0.960 . S
C1070 H1062 0.929 . S
C1070 C1071 1.377 . S
C1070 C1072 1.384 . S
C1071 C1070 1.377 . S
C1071 C1077 1.390 . S
C1072 H1063 0.930 . S
C1072 C1070 1.384 . S
C1072 C1073 1.372 . S
C1073 C1072 1.372 . S
C1073 C1074 1.400 . S
C1073 C1078 1.490 . S
C1074 H1064 0.930 . S
C1074 C1073 1.400 . S
C1074 C1077 1.386 . S
H1075 C1091 0.930 . S
H1076 C1092 0.931 . S
C1077 H1065 0.929 . S
C1077 C1071 1.390 . S
C1077 C1074 1.386 . S
C1078 C1073 1.490 . S
C1078 C1080 1.395 . S
C1078 C1081 1.403 . S
H1079 C1085 0.930 . S
C1080 H1066 0.930 . S
C1080 C1078 1.395 . S
C1080 C1083 1.403 . S
C1081 C1078 1.403 . S
C1081 C1082 1.524 . S
C1081 C1085 1.400 . S
C1082 H1067 0.960 . S
C1082 H1068 0.960 . S
C1082 H1069 0.960 . S
C1082 C1081 1.524 . S
C1083 C1080 1.403 . S
C1083 C1084 1.392 . S
C1083 C1087 1.495 . S
C1084 C1083 1.392 . S
C1084 C1085 1.385 . S
C1084 C1086 1.478 . S
C1085 H1079 0.930 . S
C1085 C1081 1.400 . S
C1085 C1084 1.385 . S
C1086 C1084 1.478 . S
C1086 C1088 1.381 . S
C1086 C1092 1.383 . S
C1087 C1083 1.495 . S
C1087 H1093 0.959 . S
C1087 H1094 0.961 . S
C1087 H1095 0.960 . S
C1088 C1086 1.381 . S
C1088 C1089 1.394 . S
C1088 H1096 0.930 . S
C1089 C1088 1.394 . S
C1089 C1090 1.383 . S
C1089 H1097 0.929 . S
C1090 C1089 1.383 . S
C1090 C1091 1.377 . S
C1091 H1075 0.930 . S
C1091 C1090 1.377 . S
C1091 C1092 1.379 . S
C1092 H1076 0.931 . S
C1092 C1086 1.383 . S
C1092 C1091 1.379 . S
H1093 C1087 0.959 . S
H1094 C1087 0.961 . S
H1095 C1087 0.960 . S
H1096 C1088 0.930 . S
H1097 C1089 0.929 . S
H1098 C1106 0.929 . S
H1099 C1108 0.930 . S
H1100 C1110 0.930 . S
H1101 C1113 0.929 . S
H1102 C1116 0.930 . S
H1103 C1118 0.960 . S
H1104 C1118 0.960 . S
H1105 C1118 0.960 . S
C1106 H1098 0.929 . S
C1106 C1107 1.377 . S
C1106 C1108 1.384 . S
C1107 C1106 1.377 . S
C1107 C1113 1.390 . S
C1108 H1099 0.930 . S
C1108 C1106 1.384 . S
C1108 C1109 1.372 . S
C1109 C1108 1.372 . S
C1109 C1110 1.400 . S
C1109 C1114 1.490 . S
C1110 H1100 0.930 . S
C1110 C1109 1.400 . S
C1110 C1113 1.386 . S
H1111 C1127 0.941 . S
H1112 C1128 0.931 . S
C1113 H1101 0.929 . S
C1113 C1107 1.390 . S
C1113 C1110 1.386 . S
C1114 C1109 1.490 . S
C1114 C1116 1.395 . S
C1114 C1117 1.403 . S
H1115 C1121 0.930 . S
C1116 H1102 0.930 . S
C1116 C1114 1.395 . S
C1116 C1119 1.403 . S
C1117 C1114 1.403 . S
C1117 C1118 1.524 . S
C1117 C1121 1.400 . S
C1118 H1103 0.960 . S
C1118 H1104 0.960 . S
C1118 H1105 0.960 . S
C1118 C1117 1.524 . S
C1119 C1116 1.403 . S
C1119 C1120 1.392 . S
C1119 C1123 1.495 . S
C1120 C1119 1.392 . S
C1120 C1121 1.385 . S
C1120 C1122 1.478 . S
C1121 H1115 0.930 . S
C1121 C1117 1.400 . S
C1121 C1120 1.385 . S
C1122 C1120 1.478 . S
C1122 C1124 1.381 . S
C1122 C1128 1.383 . S
C1123 C1119 1.495 . S
C1123 H1129 0.959 . S
C1123 H1130 0.961 . S
C1123 H1131 0.960 . S
C1124 C1122 1.381 . S
C1124 C1125 1.394 . S
C1124 H1132 0.930 . S
C1125 C1124 1.394 . S
C1125 C1126 1.383 . S
C1125 H1133 0.929 . S
C1126 C1125 1.383 . S
C1126 C1127 1.377 . S
C1127 H1111 0.941 . S
C1127 C1126 1.377 . S
C1127 C1128 1.379 . S
C1128 H1112 0.931 . S
C1128 C1122 1.383 . S
C1128 C1127 1.379 . S
H1129 C1123 0.959 . S
H1130 C1123 0.961 . S
H1131 C1123 0.960 . S
H1132 C1124 0.930 . S
H1133 C1125 0.929 . S
H1134 C1142 0.929 . S
H1135 C1144 0.930 . S
H1136 C1146 0.930 . S
H1137 C1149 0.929 . S
H1138 C1152 0.930 . S
H1139 C1154 0.960 . S
H1140 C1154 0.960 . S
H1141 C1154 0.960 . S
C1142 H1134 0.929 . S
C1142 C1143 1.377 . S
C1142 C1144 1.384 . S
C1143 C1142 1.377 . S
C1143 C1149 1.390 . S
C1144 H1135 0.930 . S
C1144 C1142 1.384 . S
C1144 C1145 1.372 . S
C1145 C1144 1.372 . S
C1145 C1146 1.400 . S
C1145 C1150 1.490 . S
C1146 H1136 0.930 . S
C1146 C1145 1.400 . S
C1146 C1149 1.386 . S
H1147 C1163 0.899 1_554 S
H1148 C1164 0.931 . S
C1149 H1137 0.929 . S
C1149 C1143 1.390 . S
C1149 C1146 1.386 . S
C1150 C1145 1.490 . S
C1150 C1152 1.395 . S
C1150 C1153 1.403 . S
H1151 C1157 0.930 . S
C1152 H1138 0.930 . S
C1152 C1150 1.395 . S
C1152 C1155 1.403 . S
C1153 C1150 1.403 . S
C1153 C1154 1.524 . S
C1153 C1157 1.400 . S
C1154 H1139 0.960 . S
C1154 H1140 0.960 . S
C1154 H1141 0.960 . S
C1154 C1153 1.524 . S
C1155 C1152 1.403 . S
C1155 C1156 1.392 . S
C1155 C1159 1.495 . S
C1156 C1155 1.392 . S
C1156 C1157 1.385 . S
C1156 C1158 1.478 . S
C1157 H1151 0.930 . S
C1157 C1153 1.400 . S
C1157 C1156 1.385 . S
C1158 C1156 1.478 . S
C1158 C1160 1.381 . S
C1158 C1164 1.383 . S
C1159 C1155 1.495 . S
C1159 H1165 0.959 . S
C1159 H1166 0.961 . S
C1159 H1167 0.960 . S
C1160 C1158 1.381 . S
C1160 C1161 1.394 . S
C1160 H1168 0.930 . S
C1161 C1160 1.394 . S
C1161 C1162 1.383 . S
C1161 H1169 0.929 . S
C1162 C1161 1.383 . S
C1162 C1163 1.377 . S
C1163 H1147 0.899 1_556 S
C1163 C1162 1.377 . S
C1163 C1164 1.379 . S
C1164 H1148 0.931 . S
C1164 C1158 1.383 . S
C1164 C1163 1.379 . S
H1165 C1159 0.959 . S
H1166 C1159 0.961 . S
H1167 C1159 0.960 . S
H1168 C1160 0.930 . S
H1169 C1161 0.929 . S
H1170 C1178 0.929 . S
H1171 C1180 0.930 . S
H1172 C1182 0.930 . S
H1173 C1185 0.929 . S
H1174 C1188 0.930 . S
H1175 C1190 0.960 . S
H1176 C1190 0.960 . S
H1177 C1190 0.960 . S
C1178 H1170 0.929 . S
C1178 C1179 1.377 . S
C1178 C1180 1.384 . S
C1179 C1178 1.377 . S
C1179 C1185 1.390 . S
C1180 H1171 0.930 . S
C1180 C1178 1.384 . S
C1180 C1181 1.372 . S
C1181 C1180 1.372 . S
C1181 C1182 1.400 . S
C1181 C1186 1.490 . S
C1182 H1172 0.930 . S
C1182 C1181 1.400 . S
C1182 C1185 1.386 . S
H1183 C1199 0.930 1_554 S
H1184 C1200 0.931 . S
C1185 H1173 0.929 . S
C1185 C1179 1.390 . S
C1185 C1182 1.386 . S
C1186 C1181 1.490 . S
C1186 C1188 1.395 . S
C1186 C1189 1.403 . S
H1187 C1193 0.930 . S
C1188 H1174 0.930 . S
C1188 C1186 1.395 . S
C1188 C1191 1.403 . S
C1189 C1186 1.403 . S
C1189 C1190 1.524 . S
C1189 C1193 1.400 . S
C1190 H1175 0.960 . S
C1190 H1176 0.960 . S
C1190 H1177 0.960 . S
C1190 C1189 1.524 . S
C1191 C1188 1.403 . S
C1191 C1192 1.392 . S
C1191 C1195 1.495 . S
C1192 C1191 1.392 . S
C1192 C1193 1.385 . S
C1192 C1194 1.478 . S
C1193 H1187 0.930 . S
C1193 C1189 1.400 . S
C1193 C1192 1.385 . S
C1194 C1192 1.478 . S
C1194 C1196 1.381 . S
C1194 C1200 1.383 . S
C1195 C1191 1.495 . S
C1195 H1201 0.959 . S
C1195 H1202 0.961 . S
C1195 H1203 0.960 . S
C1196 C1194 1.381 . S
C1196 C1197 1.394 . S
C1196 H1204 0.930 . S
C1197 C1196 1.394 . S
C1197 C1198 1.383 . S
C1197 H1205 0.929 . S
C1198 C1197 1.383 . S
C1198 C1199 1.377 . S
C1199 H1183 0.930 1_556 S
C1199 C1198 1.377 . S
C1199 C1200 1.379 . S
C1200 H1184 0.931 . S
C1200 C1194 1.383 . S
C1200 C1199 1.379 . S
H1201 C1195 0.959 . S
H1202 C1195 0.961 . S
H1203 C1195 0.960 . S
H1204 C1196 0.930 . S
H1205 C1197 0.929 . S
H1206 C1214 0.929 . S
H1207 C1216 0.930 . S
H1208 C1218 0.930 . S
H1209 C1221 0.929 . S
H1210 C1224 0.930 . S
H1211 C1226 0.960 . S
H1212 C1226 0.960 . S
H1213 C1226 0.960 . S
C1214 H1206 0.929 . S
C1214 C1215 1.377 . S
C1214 C1216 1.384 . S
C1215 C1214 1.377 . S
C1215 C1221 1.390 . S
C1216 H1207 0.930 . S
C1216 C1214 1.384 . S
C1216 C1217 1.372 . S
C1217 C1216 1.372 . S
C1217 C1218 1.400 . S
C1217 C1222 1.490 . S
C1218 H1208 0.930 . S
C1218 C1217 1.400 . S
C1218 C1221 1.386 . S
H1219 C1235 0.891 1_554 S
H1220 C1236 0.931 . S
C1221 H1209 0.929 . S
C1221 C1215 1.390 . S
C1221 C1218 1.386 . S
C1222 C1217 1.490 . S
C1222 C1224 1.395 . S
C1222 C1225 1.403 . S
H1223 C1229 0.930 . S
C1224 H1210 0.930 . S
C1224 C1222 1.395 . S
C1224 C1227 1.403 . S
C1225 C1222 1.403 . S
C1225 C1226 1.524 . S
C1225 C1229 1.400 . S
C1226 H1211 0.960 . S
C1226 H1212 0.960 . S
C1226 H1213 0.960 . S
C1226 C1225 1.524 . S
C1227 C1224 1.403 . S
C1227 C1228 1.392 . S
C1227 C1231 1.495 . S
C1228 C1227 1.392 . S
C1228 C1229 1.385 . S
C1228 C1230 1.478 . S
C1229 H1223 0.930 . S
C1229 C1225 1.400 . S
C1229 C1228 1.385 . S
C1230 C1228 1.478 . S
C1230 C1232 1.381 . S
C1230 C1236 1.383 . S
C1231 C1227 1.495 . S
C1231 H1237 0.959 . S
C1231 H1238 0.961 . S
C1231 H1239 0.960 . S
C1232 C1230 1.381 . S
C1232 C1233 1.394 . S
C1232 H1240 0.930 . S
C1233 C1232 1.394 . S
C1233 C1234 1.383 . S
C1233 H1241 0.929 . S
C1234 C1233 1.383 . S
C1234 C1235 1.377 . S
C1235 H1219 0.891 1_556 S
C1235 C1234 1.377 . S
C1235 C1236 1.379 . S
C1236 H1220 0.931 . S
C1236 C1230 1.383 . S
C1236 C1235 1.379 . S
H1237 C1231 0.959 . S
H1238 C1231 0.961 . S
H1239 C1231 0.960 . S
H1240 C1232 0.930 . S
H1241 C1233 0.929 . S
H1242 C1250 0.929 . S
H1243 C1252 0.930 . S
H1244 C1254 0.930 . S
H1245 C1257 0.929 . S
H1246 C1260 0.930 . S
H1247 C1262 0.960 . S
H1248 C1262 0.960 . S
H1249 C1262 0.960 . S
C1250 H1242 0.929 . S
C1250 C1251 1.377 . S
C1250 C1252 1.384 . S
C1251 C1250 1.377 . S
C1251 C1257 1.390 . S
C1252 H1243 0.930 . S
C1252 C1250 1.384 . S
C1252 C1253 1.372 . S
C1253 C1252 1.372 . S
C1253 C1254 1.400 . S
C1253 C1258 1.490 . S
C1254 H1244 0.930 . S
C1254 C1253 1.400 . S
C1254 C1257 1.386 . S
H1255 C1271 0.930 . S
H1256 C1272 0.931 . S
C1257 H1245 0.929 . S
C1257 C1251 1.390 . S
C1257 C1254 1.386 . S
C1258 C1253 1.490 . S
C1258 C1260 1.395 . S
C1258 C1261 1.403 . S
H1259 C1265 0.930 . S
C1260 H1246 0.930 . S
C1260 C1258 1.395 . S
C1260 C1263 1.403 . S
C1261 C1258 1.403 . S
C1261 C1262 1.524 . S
C1261 C1265 1.400 . S
C1262 H1247 0.960 . S
C1262 H1248 0.960 . S
C1262 H1249 0.960 . S
C1262 C1261 1.524 . S
C1263 C1260 1.403 . S
C1263 C1264 1.392 . S
C1263 C1267 1.495 . S
C1264 C1263 1.392 . S
C1264 C1265 1.385 . S
C1264 C1266 1.478 . S
C1265 H1259 0.930 . S
C1265 C1261 1.400 . S
C1265 C1264 1.385 . S
C1266 C1264 1.478 . S
C1266 C1268 1.381 . S
C1266 C1272 1.383 . S
C1267 C1263 1.495 . S
C1267 H1273 0.959 . S
C1267 H1274 0.961 . S
C1267 H1275 0.960 . S
C1268 C1266 1.381 . S
C1268 C1269 1.394 . S
C1268 H1276 0.930 . S
C1269 C1268 1.394 . S
C1269 C1270 1.383 . S
C1269 H1277 0.929 . S
C1270 C1269 1.383 . S
C1270 C1271 1.377 . S
C1271 H1255 0.930 . S
C1271 C1270 1.377 . S
C1271 C1272 1.379 . S
C1272 H1256 0.931 . S
C1272 C1266 1.383 . S
C1272 C1271 1.379 . S
H1273 C1267 0.959 . S
H1274 C1267 0.961 . S
H1275 C1267 0.960 . S
H1276 C1268 0.930 . S
H1277 C1269 0.929 . S
H1278 C1286 0.929 . S
H1279 C1288 0.930 . S
H1280 C1290 0.930 . S
H1281 C1293 0.929 . S
H1282 C1296 0.930 . S
H1283 C1298 0.960 . S
H1284 C1298 0.960 . S
H1285 C1298 0.960 . S
C1286 H1278 0.929 . S
C1286 C1287 1.377 . S
C1286 C1288 1.384 . S
C1287 C1286 1.377 . S
C1287 C1293 1.390 . S
C1288 H1279 0.930 . S
C1288 C1286 1.384 . S
C1288 C1289 1.372 . S
C1289 C1288 1.372 . S
C1289 C1290 1.400 . S
C1289 C1294 1.490 . S
C1290 H1280 0.930 . S
C1290 C1289 1.400 . S
C1290 C1293 1.386 . S
H1291 C1307 0.930 . S
H1292 C1308 0.931 . S
C1293 H1281 0.929 . S
C1293 C1287 1.390 . S
C1293 C1290 1.386 . S
C1294 C1289 1.490 . S
C1294 C1296 1.395 . S
C1294 C1297 1.403 . S
H1295 C1301 0.930 . S
C1296 H1282 0.930 . S
C1296 C1294 1.395 . S
C1296 C1299 1.403 . S
C1297 C1294 1.403 . S
C1297 C1298 1.524 . S
C1297 C1301 1.400 . S
C1298 H1283 0.960 . S
C1298 H1284 0.960 . S
C1298 H1285 0.960 . S
C1298 C1297 1.524 . S
C1299 C1296 1.403 . S
C1299 C1300 1.392 . S
C1299 C1303 1.495 . S
C1300 C1299 1.392 . S
C1300 C1301 1.385 . S
C1300 C1302 1.478 . S
C1301 H1295 0.930 . S
C1301 C1297 1.400 . S
C1301 C1300 1.385 . S
C1302 C1300 1.478 . S
C1302 C1304 1.381 . S
C1302 C1308 1.383 . S
C1303 C1299 1.495 . S
C1303 H1309 0.959 . S
C1303 H1310 0.961 . S
C1303 H1311 0.960 . S
C1304 C1302 1.381 . S
C1304 C1305 1.394 . S
C1304 H1312 0.930 . S
C1305 C1304 1.394 . S
C1305 C1306 1.383 . S
C1305 H1313 0.929 . S
C1306 C1305 1.383 . S
C1306 C1307 1.377 . S
C1307 H1291 0.930 . S
C1307 C1306 1.377 . S
C1307 C1308 1.379 . S
C1308 H1292 0.931 . S
C1308 C1302 1.383 . S
C1308 C1307 1.379 . S
H1309 C1303 0.959 . S
H1310 C1303 0.961 . S
H1311 C1303 0.960 . S
H1312 C1304 0.930 . S
H1313 C1305 0.929 . S
H1314 C1322 0.929 . S
H1315 C1324 0.930 . S
H1316 C1326 0.930 . S
H1317 C1329 0.929 . S
H1318 C1332 0.930 . S
H1319 C1334 0.960 . S
H1320 C1334 0.960 . S
H1321 C1334 0.960 . S
C1322 H1314 0.929 . S
C1322 C1323 1.377 . S
C1322 C1324 1.384 . S
C1323 C1322 1.377 . S
C1323 C1329 1.390 . S
C1324 H1315 0.930 . S
C1324 C1322 1.384 . S
C1324 C1325 1.372 . S
C1325 C1324 1.372 . S
C1325 C1326 1.400 . S
C1325 C1330 1.490 . S
C1326 H1316 0.930 . S
C1326 C1325 1.400 . S
C1326 C1329 1.386 . S
H1327 C1343 0.930 . S
H1328 C1344 0.931 . S
C1329 H1317 0.929 . S
C1329 C1323 1.390 . S
C1329 C1326 1.386 . S
C1330 C1325 1.490 . S
C1330 C1332 1.395 . S
C1330 C1333 1.403 . S
H1331 C1337 0.930 . S
C1332 H1318 0.930 . S
C1332 C1330 1.395 . S
C1332 C1335 1.403 . S
C1333 C1330 1.403 . S
C1333 C1334 1.524 . S
C1333 C1337 1.400 . S
C1334 H1319 0.960 . S
C1334 H1320 0.960 . S
C1334 H1321 0.960 . S
C1334 C1333 1.524 . S
C1335 C1332 1.403 . S
C1335 C1336 1.392 . S
C1335 C1339 1.495 . S
C1336 C1335 1.392 . S
C1336 C1337 1.385 . S
C1336 C1338 1.478 . S
C1337 H1331 0.930 . S
C1337 C1333 1.400 . S
C1337 C1336 1.385 . S
C1338 C1336 1.478 . S
C1338 C1340 1.381 . S
C1338 C1344 1.383 . S
C1339 C1335 1.495 . S
C1339 H1345 0.959 . S
C1339 H1346 0.961 . S
C1339 H1347 0.960 . S
C1340 C1338 1.381 . S
C1340 C1341 1.394 . S
C1340 H1348 0.930 . S
C1341 C1340 1.394 . S
C1341 C1342 1.383 . S
C1341 H1349 0.934 . S
C1342 C1341 1.383 . S
C1342 C1343 1.377 . S
C1343 H1327 0.930 . S
C1343 C1342 1.377 . S
C1343 C1344 1.379 . S
C1344 H1328 0.931 . S
C1344 C1338 1.383 . S
C1344 C1343 1.379 . S
H1345 C1339 0.959 . S
H1346 C1339 0.961 . S
H1347 C1339 0.960 . S
H1348 C1340 0.930 . S
H1349 C1341 0.934 . S
H1350 C1358 0.929 . S
H1351 C1360 0.930 . S
H1352 C1362 0.930 . S
H1353 C1365 0.929 . S
H1354 C1368 0.930 1_655 S
H1355 C1370 0.960 1_455 S
H1356 C1370 0.960 . S
H1357 C1370 0.960 . S
C1358 H1350 0.929 . S
C1358 C1359 1.377 . S
C1358 C1360 1.384 . S
C1359 C1358 1.377 . S
C1359 C1365 1.390 . S
C1360 H1351 0.930 . S
C1360 C1358 1.384 . S
C1360 C1361 1.372 . S
C1361 C1360 1.372 . S
C1361 C1362 1.400 . S
C1361 C1366 1.490 . S
C1362 H1352 0.930 . S
C1362 C1361 1.400 . S
C1362 C1365 1.386 . S
H1363 C1379 0.930 . S
H1364 C1380 0.931 . S
C1365 H1353 0.929 . S
C1365 C1359 1.390 . S
C1365 C1362 1.386 . S
C1366 C1361 1.490 . S
C1366 C1368 1.395 1_655 S
C1366 C1369 1.403 1_655 S
H1367 C1373 0.930 . S
C1368 H1354 0.930 1_455 S
C1368 C1366 1.395 1_455 S
C1368 C1371 1.403 . S
C1369 C1366 1.403 1_455 S
C1369 C1370 1.524 1_455 S
C1369 C1373 1.400 . S
C1370 H1355 0.960 1_655 S
C1370 H1356 0.960 . S
C1370 H1357 0.960 . S
C1370 C1369 1.524 1_655 S
C1371 C1368 1.403 . S
C1371 C1372 1.392 . S
C1371 C1375 1.495 . S
C1372 C1371 1.392 . S
C1372 C1373 1.385 . S
C1372 C1374 1.478 . S
C1373 H1367 0.930 . S
C1373 C1369 1.400 . S
C1373 C1372 1.385 . S
C1374 C1372 1.478 . S
C1374 C1376 1.381 . S
C1374 C1380 1.383 . S
C1375 C1371 1.495 . S
C1375 H1381 0.959 . S
C1375 H1382 0.961 . S
C1375 H1383 0.960 . S
C1376 C1374 1.381 . S
C1376 C1377 1.394 . S
C1376 H1384 0.930 . S
C1377 C1376 1.394 . S
C1377 C1378 1.383 . S
C1377 H1385 0.929 . S
C1378 C1377 1.383 . S
C1378 C1379 1.377 . S
C1379 H1363 0.930 . S
C1379 C1378 1.377 . S
C1379 C1380 1.379 . S
C1380 H1364 0.931 . S
C1380 C1374 1.383 . S
C1380 C1379 1.379 . S
H1381 C1375 0.959 . S
H1382 C1375 0.961 . S
H1383 C1375 0.960 . S
H1384 C1376 0.930 . S
H1385 C1377 0.929 . S
H1386 C1394 0.929 . S
H1387 C1396 0.930 . S
H1388 C1398 0.930 . S
H1389 C1401 0.929 . S
H1390 C1404 0.930 . S
H1391 C1406 0.960 . S
H1392 C1406 0.960 . S
H1393 C1406 0.960 . S
C1394 H1386 0.929 . S
C1394 C1395 1.377 . S
C1394 C1396 1.384 . S
C1395 C1394 1.377 . S
C1395 C1401 1.390 . S
C1396 H1387 0.930 . S
C1396 C1394 1.384 . S
C1396 C1397 1.372 . S
C1397 C1396 1.372 . S
C1397 C1398 1.400 . S
C1397 C1402 1.490 . S
C1398 H1388 0.930 . S
C1398 C1397 1.400 . S
C1398 C1401 1.386 . S
H1399 C1415 0.930 . S
H1400 C1416 0.931 . S
C1401 H1389 0.929 . S
C1401 C1395 1.390 . S
C1401 C1398 1.386 . S
C1402 C1397 1.490 . S
C1402 C1404 1.395 . S
C1402 C1405 1.403 . S
H1403 C1409 0.930 . S
C1404 H1390 0.930 . S
C1404 C1402 1.395 . S
C1404 C1407 1.403 . S
C1405 C1402 1.403 . S
C1405 C1406 1.524 . S
C1405 C1409 1.400 . S
C1406 H1391 0.960 . S
C1406 H1392 0.960 . S
C1406 H1393 0.960 . S
C1406 C1405 1.524 . S
C1407 C1404 1.403 . S
C1407 C1408 1.392 . S
C1407 C1411 1.495 . S
C1408 C1407 1.392 . S
C1408 C1409 1.385 . S
C1408 C1410 1.478 . S
C1409 H1403 0.930 . S
C1409 C1405 1.400 . S
C1409 C1408 1.385 . S
C1410 C1408 1.478 . S
C1410 C1412 1.381 . S
C1410 C1416 1.383 . S
C1411 C1407 1.495 . S
C1411 H1417 0.959 . S
C1411 H1418 0.961 . S
C1411 H1419 0.960 . S
C1412 C1410 1.381 . S
C1412 C1413 1.394 . S
C1412 H1420 0.930 . S
C1413 C1412 1.394 . S
C1413 C1414 1.383 . S
C1413 H1421 0.929 . S
C1414 C1413 1.383 . S
C1414 C1415 1.377 . S
C1415 H1399 0.930 . S
C1415 C1414 1.377 . S
C1415 C1416 1.379 . S
C1416 H1400 0.931 . S
C1416 C1410 1.383 . S
C1416 C1415 1.379 . S
H1417 C1411 0.959 . S
H1418 C1411 0.961 . S
H1419 C1411 0.960 . S
H1420 C1412 0.930 . S
H1421 C1413 0.929 . S
H1422 C1430 0.929 . S
H1423 C1432 0.930 . S
H1424 C1434 0.930 . S
H1425 C1437 0.929 . S
H1426 C1440 0.892 1_545 S
H1427 C1442 0.960 . S
H1428 C1442 0.960 . S
H1429 C1442 0.960 . S
C1430 H1422 0.929 . S
C1430 C1431 1.377 . S
C1430 C1432 1.384 . S
C1431 C1430 1.377 . S
C1431 C1437 1.390 . S
C1432 H1423 0.930 . S
C1432 C1430 1.384 . S
C1432 C1433 1.372 . S
C1433 C1432 1.372 . S
C1433 C1434 1.400 . S
C1433 C1438 1.490 . S
C1434 H1424 0.930 . S
C1434 C1433 1.400 . S
C1434 C1437 1.386 . S
H1435 C1451 0.930 . S
H1436 C1452 0.931 . S
C1437 H1425 0.929 . S
C1437 C1431 1.390 . S
C1437 C1434 1.386 . S
C1438 C1433 1.490 . S
C1438 C1440 1.395 1_545 S
C1438 C1441 1.403 . S
H1439 C1445 0.930 . S
C1440 H1426 0.892 1_565 S
C1440 C1438 1.395 1_565 S
C1440 C1443 1.403 . S
C1441 C1438 1.403 . S
C1441 C1442 1.524 . S
C1441 C1445 1.400 1_545 S
C1442 H1427 0.960 . S
C1442 H1428 0.960 . S
C1442 H1429 0.960 . S
C1442 C1441 1.524 . S
C1443 C1440 1.403 . S
C1443 C1444 1.392 . S
C1443 C1447 1.495 . S
C1444 C1443 1.392 . S
C1444 C1445 1.385 . S
C1444 C1446 1.478 . S
C1445 H1439 0.930 . S
C1445 C1441 1.400 1_565 S
C1445 C1444 1.385 . S
C1446 C1444 1.478 . S
C1446 C1448 1.381 . S
C1446 C1452 1.383 . S
C1447 C1443 1.495 . S
C1447 H1453 0.959 . S
C1447 H1454 0.961 . S
C1447 H1455 0.960 . S
C1448 C1446 1.381 . S
C1448 C1449 1.394 . S
C1448 H1456 0.930 . S
C1449 C1448 1.394 . S
C1449 C1450 1.383 . S
C1449 H1457 0.929 . S
C1450 C1449 1.383 . S
C1450 C1451 1.377 . S
C1451 H1435 0.930 . S
C1451 C1450 1.377 . S
C1451 C1452 1.379 . S
C1452 H1436 0.931 . S
C1452 C1446 1.383 . S
C1452 C1451 1.379 . S
H1453 C1447 0.959 . S
H1454 C1447 0.961 . S
H1455 C1447 0.960 . S
H1456 C1448 0.930 . S
H1457 C1449 0.929 . S
H1458 C1466 0.929 . S
H1459 C1468 0.930 . S
H1460 C1470 0.930 . S
H1461 C1473 0.929 . S
H1462 C1476 0.930 . S
H1463 C1478 0.960 . S
H1464 C1478 0.960 . S
H1465 C1478 0.960 . S
C1466 H1458 0.929 . S
C1466 C1467 1.377 . S
C1466 C1468 1.384 . S
C1467 C1466 1.377 . S
C1467 C1473 1.390 . S
C1468 H1459 0.930 . S
C1468 C1466 1.384 . S
C1468 C1469 1.372 . S
C1469 C1468 1.372 . S
C1469 C1470 1.400 . S
C1469 C1474 1.490 . S
C1470 H1460 0.930 . S
C1470 C1469 1.400 . S
C1470 C1473 1.386 . S
H1471 C1487 0.930 . S
H1472 C1488 0.931 . S
C1473 H1461 0.929 . S
C1473 C1467 1.390 . S
C1473 C1470 1.386 . S
C1474 C1469 1.490 . S
C1474 C1476 1.395 . S
C1474 C1477 1.403 . S
H1475 C1481 0.930 . S
C1476 H1462 0.930 . S
C1476 C1474 1.395 . S
C1476 C1479 1.403 . S
C1477 C1474 1.403 . S
C1477 C1478 1.524 . S
C1477 C1481 1.400 . S
C1478 H1463 0.960 . S
C1478 H1464 0.960 . S
C1478 H1465 0.960 . S
C1478 C1477 1.524 . S
C1479 C1476 1.403 . S
C1479 C1480 1.392 . S
C1479 C1483 1.495 . S
C1480 C1479 1.392 . S
C1480 C1481 1.385 . S
C1480 C1482 1.478 . S
C1481 H1475 0.930 . S
C1481 C1477 1.400 . S
C1481 C1480 1.385 . S
C1482 C1480 1.478 . S
C1482 C1484 1.381 . S
C1482 C1488 1.383 . S
C1483 C1479 1.495 . S
C1483 H1489 0.959 . S
C1483 H1490 0.961 . S
C1483 H1491 0.960 . S
C1484 C1482 1.381 . S
C1484 C1485 1.394 . S
C1484 H1492 0.930 . S
C1485 C1484 1.394 . S
C1485 C1486 1.383 . S
C1485 H1493 0.929 . S
C1486 C1485 1.383 . S
C1486 C1487 1.377 . S
C1487 H1471 0.930 . S
C1487 C1486 1.377 . S
C1487 C1488 1.379 . S
C1488 H1472 0.931 . S
C1488 C1482 1.383 . S
C1488 C1487 1.379 . S
H1489 C1483 0.959 . S
H1490 C1483 0.961 . S
H1491 C1483 0.960 . S
H1492 C1484 0.930 . S
H1493 C1485 0.929 . S
H1494 C1502 0.929 . S
H1495 C1504 0.930 . S
H1496 C1506 0.930 . S
H1497 C1509 0.929 . S
H1498 C1512 0.930 . S
H1499 C1514 0.960 . S
H1500 C1514 0.960 . S
H1501 C1514 0.960 . S
C1502 H1494 0.929 . S
C1502 C1503 1.377 . S
C1502 C1504 1.384 . S
C1503 C1502 1.377 . S
C1503 C1509 1.390 . S
C1504 H1495 0.930 . S
C1504 C1502 1.384 . S
C1504 C1505 1.372 . S
C1505 C1504 1.372 . S
C1505 C1506 1.400 . S
C1505 C1510 1.490 . S
C1506 H1496 0.930 . S
C1506 C1505 1.400 . S
C1506 C1509 1.386 . S
H1507 C1523 0.930 . S
H1508 C1524 0.931 . S
C1509 H1497 0.929 . S
C1509 C1503 1.390 . S
C1509 C1506 1.386 . S
C1510 C1505 1.490 . S
C1510 C1512 1.395 . S
C1510 C1513 1.403 . S
H1511 C1517 0.930 . S
C1512 H1498 0.930 . S
C1512 C1510 1.395 . S
C1512 C1515 1.403 . S
C1513 C1510 1.403 . S
C1513 C1514 1.524 . S
C1513 C1517 1.400 . S
C1514 H1499 0.960 . S
C1514 H1500 0.960 . S
C1514 H1501 0.960 . S
C1514 C1513 1.524 . S
C1515 C1512 1.403 . S
C1515 C1516 1.392 . S
C1515 C1519 1.495 . S
C1516 C1515 1.392 . S
C1516 C1517 1.385 . S
C1516 C1518 1.478 . S
C1517 H1511 0.930 . S
C1517 C1513 1.400 . S
C1517 C1516 1.385 . S
C1518 C1516 1.478 . S
C1518 C1520 1.381 . S
C1518 C1524 1.383 . S
C1519 C1515 1.495 . S
C1519 H1525 0.959 . S
C1519 H1526 0.961 . S
C1519 H1527 0.960 . S
C1520 C1518 1.381 . S
C1520 C1521 1.394 . S
C1520 H1528 0.930 . S
C1521 C1520 1.394 . S
C1521 C1522 1.383 . S
C1521 H1529 0.929 . S
C1522 C1521 1.383 . S
C1522 C1523 1.377 . S
C1523 H1507 0.930 . S
C1523 C1522 1.377 . S
C1523 C1524 1.379 . S
C1524 H1508 0.931 . S
C1524 C1518 1.383 . S
C1524 C1523 1.379 . S
H1525 C1519 0.959 . S
H1526 C1519 0.961 . S
H1527 C1519 0.960 . S
H1528 C1520 0.930 . S
H1529 C1521 0.929 . S
H1530 C1538 0.929 . S
H1531 C1540 0.930 . S
H1532 C1542 0.930 . S
H1533 C1545 0.929 . S
H1534 C1548 0.930 . S
H1535 C1550 0.960 . S
H1536 C1550 0.960 . S
H1537 C1550 0.960 . S
C1538 H1530 0.929 . S
C1538 C1539 1.377 . S
C1538 C1540 1.384 . S
C1539 C1538 1.377 . S
C1539 C1545 1.390 . S
C1540 H1531 0.930 . S
C1540 C1538 1.384 . S
C1540 C1541 1.372 . S
C1541 C1540 1.372 . S
C1541 C1542 1.400 . S
C1541 C1546 1.490 . S
C1542 H1532 0.930 . S
C1542 C1541 1.400 . S
C1542 C1545 1.386 . S
H1543 C1559 0.930 . S
H1544 C1560 0.931 . S
C1545 H1533 0.929 . S
C1545 C1539 1.390 . S
C1545 C1542 1.386 . S
C1546 C1541 1.490 . S
C1546 C1548 1.395 . S
C1546 C1549 1.403 . S
H1547 C1553 0.930 . S
C1548 H1534 0.930 . S
C1548 C1546 1.395 . S
C1548 C1551 1.403 . S
C1549 C1546 1.403 . S
C1549 C1550 1.524 . S
C1549 C1553 1.400 . S
C1550 H1535 0.960 . S
C1550 H1536 0.960 . S
C1550 H1537 0.960 . S
C1550 C1549 1.524 . S
C1551 C1548 1.403 . S
C1551 C1552 1.392 . S
C1551 C1555 1.495 . S
C1552 C1551 1.392 . S
C1552 C1553 1.385 . S
C1552 C1554 1.478 . S
C1553 H1547 0.930 . S
C1553 C1549 1.400 . S
C1553 C1552 1.385 . S
C1554 C1552 1.478 . S
C1554 C1556 1.381 . S
C1554 C1560 1.383 . S
C1555 C1551 1.495 . S
C1555 H1561 0.959 . S
C1555 H1562 0.961 . S
C1555 H1563 0.960 . S
C1556 C1554 1.381 . S
C1556 C1557 1.394 . S
C1556 H1564 0.930 . S
C1557 C1556 1.394 . S
C1557 C1558 1.383 . S
C1557 H1565 0.929 . S
C1558 C1557 1.383 . S
C1558 C1559 1.377 . S
C1559 H1543 0.930 . S
C1559 C1558 1.377 . S
C1559 C1560 1.379 . S
C1560 H1544 0.931 . S
C1560 C1554 1.383 . S
C1560 C1559 1.379 . S
H1561 C1555 0.959 . S
H1562 C1555 0.961 . S
H1563 C1555 0.960 . S
H1564 C1556 0.930 . S
H1565 C1557 0.929 . S
H1566 C1574 0.929 . S
H1567 C1576 0.930 . S
H1568 C1578 0.930 . S
H1569 C1581 0.929 . S
H1570 C1584 0.930 . S
H1571 C1586 0.960 . S
H1572 C1586 0.960 . S
H1573 C1586 0.960 . S
C1574 H1566 0.929 . S
C1574 C1575 1.377 . S
C1574 C1576 1.384 . S
C1575 C1574 1.377 . S
C1575 C1581 1.390 . S
C1576 H1567 0.930 . S
C1576 C1574 1.384 . S
C1576 C1577 1.372 . S
C1577 C1576 1.372 . S
C1577 C1578 1.400 . S
C1577 C1582 1.490 . S
C1578 H1568 0.930 . S
C1578 C1577 1.400 . S
C1578 C1581 1.386 . S
H1579 C1595 0.930 . S
H1580 C1596 0.931 . S
C1581 H1569 0.929 . S
C1581 C1575 1.390 . S
C1581 C1578 1.386 . S
C1582 C1577 1.490 . S
C1582 C1584 1.395 . S
C1582 C1585 1.403 . S
H1583 C1589 0.930 . S
C1584 H1570 0.930 . S
C1584 C1582 1.395 . S
C1584 C1587 1.403 . S
C1585 C1582 1.403 . S
C1585 C1586 1.524 . S
C1585 C1589 1.400 . S
C1586 H1571 0.960 . S
C1586 H1572 0.960 . S
C1586 H1573 0.960 . S
C1586 C1585 1.524 . S
C1587 C1584 1.403 . S
C1587 C1588 1.392 . S
C1587 C1591 1.495 . S
C1588 C1587 1.392 . S
C1588 C1589 1.385 . S
C1588 C1590 1.478 . S
C1589 H1583 0.930 . S
C1589 C1585 1.400 . S
C1589 C1588 1.385 . S
C1590 C1588 1.478 . S
C1590 C1592 1.381 . S
C1590 C1596 1.383 . S
C1591 C1587 1.495 . S
C1591 H1597 0.959 . S
C1591 H1598 0.961 . S
C1591 H1599 0.960 . S
C1592 C1590 1.381 . S
C1592 C1593 1.394 . S
C1592 H1600 0.930 . S
C1593 C1592 1.394 . S
C1593 C1594 1.383 . S
C1593 H1601 0.929 . S
C1594 C1593 1.383 . S
C1594 C1595 1.377 . S
C1595 H1579 0.930 . S
C1595 C1594 1.377 . S
C1595 C1596 1.379 . S
C1596 H1580 0.931 . S
C1596 C1590 1.383 . S
C1596 C1595 1.379 . S
H1597 C1591 0.959 . S
H1598 C1591 0.961 . S
H1599 C1591 0.960 . S
H1600 C1592 0.930 . S
H1601 C1593 0.929 . S
H1602 C1610 0.929 . S
H1603 C1612 0.930 . S
H1604 C1614 0.930 . S
H1605 C1617 0.929 . S
H1606 C1620 0.930 . S
H1607 C1622 0.960 . S
H1608 C1622 0.960 . S
H1609 C1622 0.960 . S
C1610 H1602 0.929 . S
C1610 C1611 1.377 . S
C1610 C1612 1.384 . S
C1611 C1610 1.377 . S
C1611 C1617 1.390 . S
C1612 H1603 0.930 . S
C1612 C1610 1.384 . S
C1612 C1613 1.372 . S
C1613 C1612 1.372 . S
C1613 C1614 1.400 . S
C1613 C1618 1.490 . S
C1614 H1604 0.930 . S
C1614 C1613 1.400 . S
C1614 C1617 1.386 . S
H1615 C1631 0.930 . S
H1616 C1632 0.931 . S
C1617 H1605 0.929 . S
C1617 C1611 1.390 . S
C1617 C1614 1.386 . S
C1618 C1613 1.490 . S
C1618 C1620 1.395 . S
C1618 C1621 1.403 . S
H1619 C1625 0.930 . S
C1620 H1606 0.930 . S
C1620 C1618 1.395 . S
C1620 C1623 1.403 . S
C1621 C1618 1.403 . S
C1621 C1622 1.524 . S
C1621 C1625 1.400 . S
C1622 H1607 0.960 . S
C1622 H1608 0.960 . S
C1622 H1609 0.960 . S
C1622 C1621 1.524 . S
C1623 C1620 1.403 . S
C1623 C1624 1.392 . S
C1623 C1627 1.495 . S
C1624 C1623 1.392 . S
C1624 C1625 1.385 . S
C1624 C1626 1.478 . S
C1625 H1619 0.930 . S
C1625 C1621 1.400 . S
C1625 C1624 1.385 . S
C1626 C1624 1.478 . S
C1626 C1628 1.381 . S
C1626 C1632 1.383 . S
C1627 C1623 1.495 . S
C1627 H1633 0.959 . S
C1627 H1634 0.961 . S
C1627 H1635 0.960 . S
C1628 C1626 1.381 . S
C1628 C1629 1.394 . S
C1628 H1636 0.930 . S
C1629 C1628 1.394 . S
C1629 C1630 1.383 . S
C1629 H1637 0.929 . S
C1630 C1629 1.383 . S
C1630 C1631 1.377 . S
C1631 H1615 0.930 . S
C1631 C1630 1.377 . S
C1631 C1632 1.379 . S
C1632 H1616 0.931 . S
C1632 C1626 1.383 . S
C1632 C1631 1.379 . S
H1633 C1627 0.959 . S
H1634 C1627 0.961 . S
H1635 C1627 0.960 . S
H1636 C1628 0.930 . S
H1637 C1629 0.929 . S
H1638 C1646 0.929 . S
H1639 C1648 0.930 . S
H1640 C1650 0.930 . S
H1641 C1653 0.929 . S
H1642 C1656 0.930 . S
H1643 C1658 0.960 . S
H1644 C1658 0.960 . S
H1645 C1658 0.960 . S
C1646 H1638 0.929 . S
C1646 C1647 1.377 . S
C1646 C1648 1.384 . S
C1647 C1646 1.377 . S
C1647 C1653 1.390 . S
C1648 H1639 0.930 . S
C1648 C1646 1.384 . S
C1648 C1649 1.372 . S
C1649 C1648 1.372 . S
C1649 C1650 1.400 . S
C1649 C1654 1.490 . S
C1650 H1640 0.930 . S
C1650 C1649 1.400 . S
C1650 C1653 1.386 . S
H1651 C1667 0.930 . S
H1652 C1668 0.931 . S
C1653 H1641 0.929 . S
C1653 C1647 1.390 . S
C1653 C1650 1.386 . S
C1654 C1649 1.490 . S
C1654 C1656 1.395 . S
C1654 C1657 1.403 . S
H1655 C1661 0.930 . S
C1656 H1642 0.930 . S
C1656 C1654 1.395 . S
C1656 C1659 1.403 . S
C1657 C1654 1.403 . S
C1657 C1658 1.524 . S
C1657 C1661 1.400 . S
C1658 H1643 0.960 . S
C1658 H1644 0.960 . S
C1658 H1645 0.960 . S
C1658 C1657 1.524 . S
C1659 C1656 1.403 . S
C1659 C1660 1.392 . S
C1659 C1663 1.495 . S
C1660 C1659 1.392 . S
C1660 C1661 1.385 . S
C1660 C1662 1.478 . S
C1661 H1655 0.930 . S
C1661 C1657 1.400 . S
C1661 C1660 1.385 . S
C1662 C1660 1.478 . S
C1662 C1664 1.381 . S
C1662 C1668 1.383 . S
C1663 C1659 1.495 . S
C1663 H1669 0.959 . S
C1663 H1670 0.961 . S
C1663 H1671 0.960 . S
C1664 C1662 1.381 . S
C1664 C1665 1.394 . S
C1664 H1672 0.930 . S
C1665 C1664 1.394 . S
C1665 C1666 1.383 . S
C1665 H1673 0.929 . S
C1666 C1665 1.383 . S
C1666 C1667 1.377 . S
C1667 H1651 0.930 . S
C1667 C1666 1.377 . S
C1667 C1668 1.379 . S
C1668 H1652 0.931 . S
C1668 C1662 1.383 . S
C1668 C1667 1.379 . S
H1669 C1663 0.959 . S
H1670 C1663 0.961 . S
H1671 C1663 0.960 . S
H1672 C1664 0.930 . S
H1673 C1665 0.929 . S
H1674 C1682 0.929 . S
H1675 C1684 0.930 . S
H1676 C1686 0.930 . S
H1677 C1689 0.929 . S
H1678 C1692 0.930 . S
H1679 C1694 0.960 . S
H1680 C1694 0.960 . S
H1681 C1694 0.960 1_545 S
C1682 H1674 0.929 . S
C1682 C1683 1.377 . S
C1682 C1684 1.384 . S
C1683 C1682 1.377 . S
C1683 C1689 1.390 . S
C1684 H1675 0.930 . S
C1684 C1682 1.384 . S
C1684 C1685 1.372 . S
C1685 C1684 1.372 . S
C1685 C1686 1.400 . S
C1685 C1690 1.490 . S
C1686 H1676 0.930 . S
C1686 C1685 1.400 . S
C1686 C1689 1.386 . S
H1687 C1703 0.930 . S
H1688 C1704 0.931 . S
C1689 H1677 0.929 . S
C1689 C1683 1.390 . S
C1689 C1686 1.386 . S
C1690 C1685 1.490 . S
C1690 C1692 1.395 . S
C1690 C1693 1.403 1_545 S
H1691 C1697 0.930 . S
C1692 H1678 0.930 . S
C1692 C1690 1.395 . S
C1692 C1695 1.403 1_545 S
C1693 C1690 1.403 1_565 S
C1693 C1694 1.524 . S
C1693 C1697 1.400 . S
C1694 H1679 0.960 . S
C1694 H1680 0.960 . S
C1694 H1681 0.960 1_565 S
C1694 C1693 1.524 . S
C1695 C1692 1.403 1_565 S
C1695 C1696 1.392 . S
C1695 C1699 1.495 . S
C1696 C1695 1.392 . S
C1696 C1697 1.385 . S
C1696 C1698 1.478 . S
C1697 H1691 0.930 . S
C1697 C1693 1.400 . S
C1697 C1696 1.385 . S
C1698 C1696 1.478 . S
C1698 C1700 1.381 . S
C1698 C1704 1.383 . S
C1699 C1695 1.495 . S
C1699 H1705 0.959 . S
C1699 H1706 0.961 . S
C1699 H1707 0.960 . S
C1700 C1698 1.381 . S
C1700 C1701 1.394 . S
C1700 H1708 0.930 . S
C1701 C1700 1.394 . S
C1701 C1702 1.383 . S
C1701 H1709 0.929 . S
C1702 C1701 1.383 . S
C1702 C1703 1.377 . S
C1703 H1687 0.930 . S
C1703 C1702 1.377 . S
C1703 C1704 1.379 . S
C1704 H1688 0.931 . S
C1704 C1698 1.383 . S
C1704 C1703 1.379 . S
H1705 C1699 0.959 . S
H1706 C1699 0.961 . S
H1707 C1699 0.960 . S
H1708 C1700 0.930 . S
H1709 C1701 0.929 . S
H1710 C1718 0.929 . S
H1711 C1720 0.930 . S
H1712 C1722 0.930 . S
H1713 C1725 0.929 . S
H1714 C1728 0.930 . S
H1715 C1730 0.960 . S
H1716 C1730 0.960 . S
H1717 C1730 0.960 . S
C1718 H1710 0.929 . S
C1718 C1719 1.377 . S
C1718 C1720 1.384 . S
C1719 C1718 1.377 . S
C1719 C1725 1.390 . S
C1720 H1711 0.930 . S
C1720 C1718 1.384 . S
C1720 C1721 1.372 . S
C1721 C1720 1.372 . S
C1721 C1722 1.400 . S
C1721 C1726 1.490 . S
C1722 H1712 0.930 . S
C1722 C1721 1.400 . S
C1722 C1725 1.386 . S
H1723 C1739 0.930 . S
H1724 C1740 0.931 . S
C1725 H1713 0.929 . S
C1725 C1719 1.390 . S
C1725 C1722 1.386 . S
C1726 C1721 1.490 . S
C1726 C1728 1.395 1_655 S
C1726 C1729 1.403 1_655 S
H1727 C1733 0.930 . S
C1728 H1714 0.930 . S
C1728 C1726 1.395 1_455 S
C1728 C1731 1.403 . S
C1729 C1726 1.403 1_455 S
C1729 C1730 1.524 1_455 S
C1729 C1733 1.400 . S
C1730 H1715 0.960 . S
C1730 H1716 0.960 . S
C1730 H1717 0.960 . S
C1730 C1729 1.524 1_655 S
C1731 C1728 1.403 . S
C1731 C1732 1.392 . S
C1731 C1735 1.495 . S
C1732 C1731 1.392 . S
C1732 C1733 1.385 . S
C1732 C1734 1.478 . S
C1733 H1727 0.930 . S
C1733 C1729 1.400 . S
C1733 C1732 1.385 . S
C1734 C1732 1.478 . S
C1734 C1736 1.381 . S
C1734 C1740 1.383 . S
C1735 C1731 1.495 . S
C1735 H1741 0.959 . S
C1735 H1742 0.961 . S
C1735 H1743 0.960 . S
C1736 C1734 1.381 . S
C1736 C1737 1.394 . S
C1736 H1744 0.930 . S
C1737 C1736 1.394 . S
C1737 C1738 1.383 . S
C1737 H1745 0.929 . S
C1738 C1737 1.383 . S
C1738 C1739 1.377 . S
C1739 H1723 0.930 . S
C1739 C1738 1.377 . S
C1739 C1740 1.379 . S
C1740 H1724 0.931 . S
C1740 C1734 1.383 . S
C1740 C1739 1.379 . S
H1741 C1735 0.959 . S
H1742 C1735 0.961 . S
H1743 C1735 0.960 . S
H1744 C1736 0.930 . S
H1745 C1737 0.929 . S
H1746 C1754 0.929 . S
H1747 C1756 0.930 . S
H1748 C1758 0.930 . S
H1749 C1761 0.929 . S
H1750 C1764 0.930 . S
H1751 C1766 0.960 . S
H1752 C1766 0.960 . S
H1753 C1766 0.960 . S
C1754 H1746 0.929 . S
C1754 C1755 1.377 . S
C1754 C1756 1.384 . S
C1755 C1754 1.377 . S
C1755 C1761 1.390 . S
C1756 H1747 0.930 . S
C1756 C1754 1.384 . S
C1756 C1757 1.372 . S
C1757 C1756 1.372 . S
C1757 C1758 1.400 . S
C1757 C1762 1.490 . S
C1758 H1748 0.930 . S
C1758 C1757 1.400 . S
C1758 C1761 1.386 . S
H1759 C1775 0.930 . S
H1760 C1776 0.931 . S
C1761 H1749 0.929 . S
C1761 C1755 1.390 . S
C1761 C1758 1.386 . S
C1762 C1757 1.490 . S
C1762 C1764 1.395 . S
C1762 C1765 1.403 . S
H1763 C1769 0.930 . S
C1764 H1750 0.930 . S
C1764 C1762 1.395 . S
C1764 C1767 1.403 . S
C1765 C1762 1.403 . S
C1765 C1766 1.524 . S
C1765 C1769 1.400 . S
C1766 H1751 0.960 . S
C1766 H1752 0.960 . S
C1766 H1753 0.960 . S
C1766 C1765 1.524 . S
C1767 C1764 1.403 . S
C1767 C1768 1.392 . S
C1767 C1771 1.495 . S
C1768 C1767 1.392 . S
C1768 C1769 1.385 . S
C1768 C1770 1.478 . S
C1769 H1763 0.930 . S
C1769 C1765 1.400 . S
C1769 C1768 1.385 . S
C1770 C1768 1.478 . S
C1770 C1772 1.381 . S
C1770 C1776 1.383 . S
C1771 C1767 1.495 . S
C1771 H1777 0.959 . S
C1771 H1778 0.961 . S
C1771 H1779 0.960 . S
C1772 C1770 1.381 . S
C1772 C1773 1.394 . S
C1772 H1780 0.930 . S
C1773 C1772 1.394 . S
C1773 C1774 1.383 . S
C1773 H1781 0.929 . S
C1774 C1773 1.383 . S
C1774 C1775 1.377 . S
C1775 H1759 0.930 . S
C1775 C1774 1.377 . S
C1775 C1776 1.379 . S
C1776 H1760 0.931 . S
C1776 C1770 1.383 . S
C1776 C1775 1.379 . S
H1777 C1771 0.959 . S
H1778 C1771 0.961 . S
H1779 C1771 0.960 . S
H1780 C1772 0.930 . S
H1781 C1773 0.929 . S
H1782 C1790 0.929 . S
H1783 C1792 0.930 . S
H1784 C1794 0.930 . S
H1785 C1797 0.929 . S
H1786 C1800 0.930 . S
H1787 C1802 0.960 . S
H1788 C1802 0.960 . S
H1789 C1802 0.960 . S
C1790 H1782 0.929 . S
C1790 C1791 1.377 . S
C1790 C1792 1.384 . S
C1791 C1790 1.377 . S
C1791 C1797 1.390 . S
C1792 H1783 0.930 . S
C1792 C1790 1.384 . S
C1792 C1793 1.372 . S
C1793 C1792 1.372 . S
C1793 C1794 1.400 . S
C1793 C1798 1.490 . S
C1794 H1784 0.930 . S
C1794 C1793 1.400 . S
C1794 C1797 1.386 . S
H1795 C1811 0.930 . S
H1796 C1812 0.931 . S
C1797 H1785 0.929 . S
C1797 C1791 1.390 . S
C1797 C1794 1.386 . S
C1798 C1793 1.490 . S
C1798 C1800 1.395 . S
C1798 C1801 1.403 . S
H1799 C1805 0.930 . S
C1800 H1786 0.930 . S
C1800 C1798 1.395 . S
C1800 C1803 1.403 . S
C1801 C1798 1.403 . S
C1801 C1802 1.524 . S
C1801 C1805 1.400 . S
C1802 H1787 0.960 . S
C1802 H1788 0.960 . S
C1802 H1789 0.960 . S
C1802 C1801 1.524 . S
C1803 C1800 1.403 . S
C1803 C1804 1.392 . S
C1803 C1807 1.495 . S
C1804 C1803 1.392 . S
C1804 C1805 1.385 . S
C1804 C1806 1.478 . S
C1805 H1799 0.930 . S
C1805 C1801 1.400 . S
C1805 C1804 1.385 . S
C1806 C1804 1.478 . S
C1806 C1808 1.381 . S
C1806 C1812 1.383 . S
C1807 C1803 1.495 . S
C1807 H1813 0.959 . S
C1807 H1814 0.961 . S
C1807 H1815 0.960 . S
C1808 C1806 1.381 . S
C1808 C1809 1.394 . S
C1808 H1816 0.930 . S
C1809 C1808 1.394 . S
C1809 C1810 1.383 . S
C1809 H1817 0.929 . S
C1810 C1809 1.383 . S
C1810 C1811 1.377 . S
C1811 H1795 0.930 . S
C1811 C1810 1.377 . S
C1811 C1812 1.379 . S
C1812 H1796 0.931 . S
C1812 C1806 1.383 . S
C1812 C1811 1.379 . S
H1813 C1807 0.959 . S
H1814 C1807 0.961 . S
H1815 C1807 0.960 . S
H1816 C1808 0.930 . S
H1817 C1809 0.929 . S
H1818 C1826 0.929 . S
H1819 C1828 0.930 . S
H1820 C1830 0.930 . S
H1821 C1833 0.929 . S
H1822 C1836 0.930 . S
H1823 C1838 0.960 . S
H1824 C1838 0.960 . S
H1825 C1838 0.960 . S
C1826 H1818 0.929 . S
C1826 C1827 1.377 . S
C1826 C1828 1.384 . S
C1827 C1826 1.377 . S
C1827 C1833 1.390 . S
C1828 H1819 0.930 . S
C1828 C1826 1.384 . S
C1828 C1829 1.372 . S
C1829 C1828 1.372 . S
C1829 C1830 1.400 . S
C1829 C1834 1.490 . S
C1830 H1820 0.930 . S
C1830 C1829 1.400 . S
C1830 C1833 1.386 . S
H1831 C1847 0.930 . S
H1832 C1848 0.931 . S
C1833 H1821 0.929 . S
C1833 C1827 1.390 . S
C1833 C1830 1.386 . S
C1834 C1829 1.490 . S
C1834 C1836 1.395 . S
C1834 C1837 1.403 . S
H1835 C1841 0.930 . S
C1836 H1822 0.930 . S
C1836 C1834 1.395 . S
C1836 C1839 1.403 . S
C1837 C1834 1.403 . S
C1837 C1838 1.524 . S
C1837 C1841 1.400 . S
C1838 H1823 0.960 . S
C1838 H1824 0.960 . S
C1838 H1825 0.960 . S
C1838 C1837 1.524 . S
C1839 C1836 1.403 . S
C1839 C1840 1.392 . S
C1839 C1843 1.495 . S
C1840 C1839 1.392 . S
C1840 C1841 1.385 . S
C1840 C1842 1.478 . S
C1841 H1835 0.930 . S
C1841 C1837 1.400 . S
C1841 C1840 1.385 . S
C1842 C1840 1.478 . S
C1842 C1844 1.381 . S
C1842 C1848 1.383 . S
C1843 C1839 1.495 . S
C1843 H1849 0.959 . S
C1843 H1850 0.961 . S
C1843 H1851 0.960 . S
C1844 C1842 1.381 . S
C1844 C1845 1.394 . S
C1844 H1852 0.930 . S
C1845 C1844 1.394 . S
C1845 C1846 1.383 . S
C1845 H1853 0.929 . S
C1846 C1845 1.383 . S
C1846 C1847 1.377 . S
C1847 H1831 0.930 . S
C1847 C1846 1.377 . S
C1847 C1848 1.379 . S
C1848 H1832 0.931 . S
C1848 C1842 1.383 . S
C1848 C1847 1.379 . S
H1849 C1843 0.959 . S
H1850 C1843 0.961 . S
H1851 C1843 0.960 . S
H1852 C1844 0.930 . S
H1853 C1845 0.929 . S
H1854 C1862 0.929 . S
H1855 C1864 0.930 . S
H1856 C1866 0.930 . S
H1857 C1869 0.929 . S
H1858 C1872 0.930 . S
H1859 C1874 0.960 . S
H1860 C1874 0.960 . S
H1861 C1874 0.960 . S
C1862 H1854 0.929 . S
C1862 C1863 1.377 . S
C1862 C1864 1.384 . S
C1863 C1862 1.377 . S
C1863 C1869 1.390 . S
C1864 H1855 0.930 . S
C1864 C1862 1.384 . S
C1864 C1865 1.372 . S
C1865 C1864 1.372 . S
C1865 C1866 1.400 . S
C1865 C1870 1.490 . S
C1866 H1856 0.930 . S
C1866 C1865 1.400 . S
C1866 C1869 1.386 . S
H1867 C1883 0.930 . S
H1868 C1884 0.931 . S
C1869 H1857 0.929 . S
C1869 C1863 1.390 . S
C1869 C1866 1.386 . S
C1870 C1865 1.490 . S
C1870 C1872 1.395 . S
C1870 C1873 1.403 . S
H1871 C1877 0.930 . S
C1872 H1858 0.930 . S
C1872 C1870 1.395 . S
C1872 C1875 1.403 . S
C1873 C1870 1.403 . S
C1873 C1874 1.524 . S
C1873 C1877 1.400 . S
C1874 H1859 0.960 . S
C1874 H1860 0.960 . S
C1874 H1861 0.960 . S
C1874 C1873 1.524 . S
C1875 C1872 1.403 . S
C1875 C1876 1.392 . S
C1875 C1879 1.495 . S
C1876 C1875 1.392 . S
C1876 C1877 1.385 . S
C1876 C1878 1.478 . S
C1877 H1871 0.930 . S
C1877 C1873 1.400 . S
C1877 C1876 1.385 . S
C1878 C1876 1.478 . S
C1878 C1880 1.381 . S
C1878 C1884 1.383 . S
C1879 C1875 1.495 . S
C1879 H1885 0.959 . S
C1879 H1886 0.961 . S
C1879 H1887 0.960 . S
C1880 C1878 1.381 . S
C1880 C1881 1.394 . S
C1880 H1888 0.930 . S
C1881 C1880 1.394 . S
C1881 C1882 1.383 . S
C1881 H1889 0.929 . S
C1882 C1881 1.383 . S
C1882 C1883 1.377 . S
C1883 H1867 0.930 . S
C1883 C1882 1.377 . S
C1883 C1884 1.379 . S
C1884 H1868 0.931 . S
C1884 C1878 1.383 . S
C1884 C1883 1.379 . S
H1885 C1879 0.959 . S
H1886 C1879 0.961 . S
H1887 C1879 0.960 . S
H1888 C1880 0.930 . S
H1889 C1881 0.929 . S
H1890 C1898 0.929 . S
H1891 C1900 0.930 . S
H1892 C1902 0.930 . S
H1893 C1905 0.929 . S
H1894 C1908 0.930 . S
H1895 C1910 0.960 . S
H1896 C1910 0.960 . S
H1897 C1910 0.960 1_565 S
C1898 H1890 0.929 . S
C1898 C1899 1.377 . S
C1898 C1900 1.384 . S
C1899 C1898 1.377 . S
C1899 C1905 1.390 . S
C1900 H1891 0.930 . S
C1900 C1898 1.384 . S
C1900 C1901 1.372 . S
C1901 C1900 1.372 . S
C1901 C1902 1.400 . S
C1901 C1906 1.490 . S
C1902 H1892 0.930 . S
C1902 C1901 1.400 . S
C1902 C1905 1.386 . S
H1903 C1919 0.930 . S
H1904 C1920 0.931 . S
C1905 H1893 0.929 . S
C1905 C1899 1.390 . S
C1905 C1902 1.386 . S
C1906 C1901 1.490 . S
C1906 C1908 1.395 . S
C1906 C1909 1.403 1_565 S
H1907 C1913 0.930 . S
C1908 H1894 0.930 . S
C1908 C1906 1.395 . S
C1908 C1911 1.403 1_565 S
C1909 C1906 1.403 1_545 S
C1909 C1910 1.524 . S
C1909 C1913 1.400 . S
C1910 H1895 0.960 . S
C1910 H1896 0.960 . S
C1910 H1897 0.960 1_545 S
C1910 C1909 1.524 . S
C1911 C1908 1.403 1_545 S
C1911 C1912 1.392 . S
C1911 C1915 1.495 . S
C1912 C1911 1.392 . S
C1912 C1913 1.385 . S
C1912 C1914 1.478 . S
C1913 H1907 0.930 . S
C1913 C1909 1.400 . S
C1913 C1912 1.385 . S
C1914 C1912 1.478 . S
C1914 C1916 1.381 . S
C1914 C1920 1.383 . S
C1915 C1911 1.495 . S
C1915 H1921 0.959 . S
C1915 H1922 0.961 . S
C1915 H1923 0.960 . S
C1916 C1914 1.381 . S
C1916 C1917 1.394 . S
C1916 H1924 0.930 . S
C1917 C1916 1.394 . S
C1917 C1918 1.383 . S
C1917 H1925 0.929 . S
C1918 C1917 1.383 . S
C1918 C1919 1.377 . S
C1919 H1903 0.930 . S
C1919 C1918 1.377 . S
C1919 C1920 1.379 . S
C1920 H1904 0.931 . S
C1920 C1914 1.383 . S
C1920 C1919 1.379 . S
H1921 C1915 0.959 . S
H1922 C1915 0.961 . S
H1923 C1915 0.960 . S
H1924 C1916 0.930 . S
H1925 C1917 0.929 . S
H1926 C1934 0.929 . S
H1927 C1936 0.930 . S
H1928 C1938 0.930 . S
H1929 C1941 0.929 . S
H1930 C1944 0.930 . S
H1931 C1946 0.960 . S
H1932 C1946 0.960 . S
H1933 C1946 0.960 1_455 S
C1934 H1926 0.929 . S
C1934 C1935 1.377 . S
C1934 C1936 1.384 . S
C1935 C1934 1.377 . S
C1935 C1941 1.390 . S
C1936 H1927 0.930 . S
C1936 C1934 1.384 . S
C1936 C1937 1.372 . S
C1937 C1936 1.372 . S
C1937 C1938 1.400 . S
C1937 C1942 1.490 . S
C1938 H1928 0.930 . S
C1938 C1937 1.400 . S
C1938 C1941 1.386 . S
H1939 C1955 0.930 . S
H1940 C1956 0.931 . S
C1941 H1929 0.929 . S
C1941 C1935 1.390 . S
C1941 C1938 1.386 . S
C1942 C1937 1.490 . S
C1942 C1944 1.395 . S
C1942 C1945 1.403 1_455 S
H1943 C1949 0.930 . S
C1944 H1930 0.930 . S
C1944 C1942 1.395 . S
C1944 C1947 1.403 1_455 S
C1945 C1942 1.403 1_655 S
C1945 C1946 1.524 . S
C1945 C1949 1.400 . S
C1946 H1931 0.960 . S
C1946 H1932 0.960 . S
C1946 H1933 0.960 1_655 S
C1946 C1945 1.524 . S
C1947 C1944 1.403 1_655 S
C1947 C1948 1.392 . S
C1947 C1951 1.495 . S
C1948 C1947 1.392 . S
C1948 C1949 1.385 . S
C1948 C1950 1.478 . S
C1949 H1943 0.930 . S
C1949 C1945 1.400 . S
C1949 C1948 1.385 . S
C1950 C1948 1.478 . S
C1950 C1952 1.381 . S
C1950 C1956 1.383 . S
C1951 C1947 1.495 . S
C1951 H1957 0.959 . S
C1951 H1958 0.961 . S
C1951 H1959 0.960 . S
C1952 C1950 1.381 . S
C1952 C1953 1.394 . S
C1952 H1960 0.930 . S
C1953 C1952 1.394 . S
C1953 C1954 1.383 . S
C1953 H1961 0.929 . S
C1954 C1953 1.383 . S
C1954 C1955 1.377 . S
C1955 H1939 0.930 . S
C1955 C1954 1.377 . S
C1955 C1956 1.379 . S
C1956 H1940 0.931 . S
C1956 C1950 1.383 . S
C1956 C1955 1.379 . S
H1957 C1951 0.959 . S
H1958 C1951 0.961 . S
H1959 C1951 0.960 . S
H1960 C1952 0.930 . S
H1961 C1953 0.929 . S
H1962 C1970 0.929 . S
H1963 C1972 0.930 . S
H1964 C1974 0.930 . S
H1965 C1977 0.929 . S
H1966 C1980 0.930 . S
H1967 C1982 0.960 . S
H1968 C1982 0.960 . S
H1969 C1982 0.960 . S
C1970 H1962 0.929 . S
C1970 C1971 1.377 . S
C1970 C1972 1.384 . S
C1971 C1970 1.377 . S
C1971 C1977 1.390 . S
C1972 H1963 0.930 . S
C1972 C1970 1.384 . S
C1972 C1973 1.372 . S
C1973 C1972 1.372 . S
C1973 C1974 1.400 . S
C1973 C1978 1.490 . S
C1974 H1964 0.930 . S
C1974 C1973 1.400 . S
C1974 C1977 1.386 . S
H1975 C1991 0.930 . S
H1976 C1992 0.931 . S
C1977 H1965 0.929 . S
C1977 C1971 1.390 . S
C1977 C1974 1.386 . S
C1978 C1973 1.490 . S
C1978 C1980 1.395 . S
C1978 C1981 1.403 . S
H1979 C1985 0.930 . S
C1980 H1966 0.930 . S
C1980 C1978 1.395 . S
C1980 C1983 1.403 . S
C1981 C1978 1.403 . S
C1981 C1982 1.524 . S
C1981 C1985 1.400 . S
C1982 H1967 0.960 . S
C1982 H1968 0.960 . S
C1982 H1969 0.960 . S
C1982 C1981 1.524 . S
C1983 C1980 1.403 . S
C1983 C1984 1.392 . S
C1983 C1987 1.495 . S
C1984 C1983 1.392 . S
C1984 C1985 1.385 . S
C1984 C1986 1.478 . S
C1985 H1979 0.930 . S
C1985 C1981 1.400 . S
C1985 C1984 1.385 . S
C1986 C1984 1.478 . S
C1986 C1988 1.381 . S
C1986 C1992 1.383 . S
C1987 C1983 1.495 . S
C1987 H1993 0.959 . S
C1987 H1994 0.961 . S
C1987 H1995 0.960 . S
C1988 C1986 1.381 . S
C1988 C1989 1.394 . S
C1988 H1996 0.930 . S
C1989 C1988 1.394 . S
C1989 C1990 1.383 . S
C1989 H1997 0.929 . S
C1990 C1989 1.383 . S
C1990 C1991 1.377 . S
C1991 H1975 0.930 . S
C1991 C1990 1.377 . S
C1991 C1992 1.379 . S
C1992 H1976 0.931 . S
C1992 C1986 1.383 . S
C1992 C1991 1.379 . S
H1993 C1987 0.959 . S
H1994 C1987 0.961 . S
H1995 C1987 0.960 . S
H1996 C1988 0.930 . S
H1997 C1989 0.929 . S
H1998 C2006 0.929 . S
H1999 C2008 0.930 . S
H2000 C2010 0.930 . S
H2001 C2013 0.929 . S
H2002 C2016 0.930 1_455 S
H2003 C2018 0.960 1_655 S
H2004 C2018 0.960 . S
H2005 C2018 0.960 . S
C2006 H1998 0.929 . S
C2006 C2007 1.377 . S
C2006 C2008 1.384 . S
C2007 C2006 1.377 . S
C2007 C2013 1.390 . S
C2008 H1999 0.930 . S
C2008 C2006 1.384 . S
C2008 C2009 1.372 . S
C2009 C2008 1.372 . S
C2009 C2010 1.400 . S
C2009 C2014 1.490 . S
C2010 H2000 0.930 . S
C2010 C2009 1.400 . S
C2010 C2013 1.386 . S
H2011 C2027 0.930 . S
H2012 C2028 0.931 . S
C2013 H2001 0.929 . S
C2013 C2007 1.390 . S
C2013 C2010 1.386 . S
C2014 C2009 1.490 . S
C2014 C2016 1.395 1_455 S
C2014 C2017 1.403 1_455 S
H2015 C2021 0.930 . S
C2016 H2002 0.930 1_655 S
C2016 C2014 1.395 1_655 S
C2016 C2019 1.403 . S
C2017 C2014 1.403 1_655 S
C2017 C2018 1.524 1_655 S
C2017 C2021 1.400 . S
C2018 H2003 0.960 1_455 S
C2018 H2004 0.960 . S
C2018 H2005 0.960 . S
C2018 C2017 1.524 1_455 S
C2019 C2016 1.403 . S
C2019 C2020 1.392 . S
C2019 C2023 1.495 . S
C2020 C2019 1.392 . S
C2020 C2021 1.385 . S
C2020 C2022 1.478 . S
C2021 H2015 0.930 . S
C2021 C2017 1.400 . S
C2021 C2020 1.385 . S
C2022 C2020 1.478 . S
C2022 C2024 1.381 . S
C2022 C2028 1.383 . S
C2023 C2019 1.495 . S
C2023 H2029 0.959 . S
C2023 H2030 0.961 . S
C2023 H2031 0.960 . S
C2024 C2022 1.381 . S
C2024 C2025 1.394 . S
C2024 H2032 0.930 . S
C2025 C2024 1.394 . S
C2025 C2026 1.383 . S
C2025 H2033 0.929 . S
C2026 C2025 1.383 . S
C2026 C2027 1.377 . S
C2027 H2011 0.930 . S
C2027 C2026 1.377 . S
C2027 C2028 1.379 . S
C2028 H2012 0.931 . S
C2028 C2022 1.383 . S
C2028 C2027 1.379 . S
H2029 C2023 0.959 . S
H2030 C2023 0.961 . S
H2031 C2023 0.960 . S
H2032 C2024 0.930 . S
H2033 C2025 0.929 . S
H2034 C2042 0.929 . S
H2035 C2044 0.930 . S
H2036 C2046 0.930 . S
H2037 C2049 0.929 . S
H2038 C2052 0.930 . S
H2039 C2054 0.960 . S
H2040 C2054 0.960 . S
H2041 C2054 0.960 . S
C2042 H2034 0.929 . S
C2042 C2043 1.377 . S
C2042 C2044 1.384 . S
C2043 C2042 1.377 . S
C2043 C2049 1.390 . S
C2044 H2035 0.930 . S
C2044 C2042 1.384 . S
C2044 C2045 1.372 . S
C2045 C2044 1.372 . S
C2045 C2046 1.400 . S
C2045 C2050 1.490 . S
C2046 H2036 0.930 . S
C2046 C2045 1.400 . S
C2046 C2049 1.386 . S
H2047 C2063 0.930 . S
H2048 C2064 0.931 . S
C2049 H2037 0.929 . S
C2049 C2043 1.390 . S
C2049 C2046 1.386 . S
C2050 C2045 1.490 . S
C2050 C2052 1.395 . S
C2050 C2053 1.403 . S
H2051 C2057 0.930 . S
C2052 H2038 0.930 . S
C2052 C2050 1.395 . S
C2052 C2055 1.403 . S
C2053 C2050 1.403 . S
C2053 C2054 1.524 . S
C2053 C2057 1.400 . S
C2054 H2039 0.960 . S
C2054 H2040 0.960 . S
C2054 H2041 0.960 . S
C2054 C2053 1.524 . S
C2055 C2052 1.403 . S
C2055 C2056 1.392 . S
C2055 C2059 1.495 . S
C2056 C2055 1.392 . S
C2056 C2057 1.385 . S
C2056 C2058 1.478 . S
C2057 H2051 0.930 . S
C2057 C2053 1.400 . S
C2057 C2056 1.385 . S
C2058 C2056 1.478 . S
C2058 C2060 1.381 . S
C2058 C2064 1.383 . S
C2059 C2055 1.495 . S
C2059 H2065 0.959 . S
C2059 H2066 0.961 . S
C2059 H2067 0.960 . S
C2060 C2058 1.381 . S
C2060 C2061 1.394 . S
C2060 H2068 0.930 . S
C2061 C2060 1.394 . S
C2061 C2062 1.383 . S
C2061 H2069 0.929 . S
C2062 C2061 1.383 . S
C2062 C2063 1.377 . S
C2063 H2047 0.930 . S
C2063 C2062 1.377 . S
C2063 C2064 1.379 . S
C2064 H2048 0.931 . S
C2064 C2058 1.383 . S
C2064 C2063 1.379 . S
H2065 C2059 0.959 . S
H2066 C2059 0.961 . S
H2067 C2059 0.960 . S
H2068 C2060 0.930 . S
H2069 C2061 0.929 . S
H2070 C2078 0.929 . S
H2071 C2080 0.930 . S
H2072 C2082 0.930 . S
H2073 C2085 0.929 . S
H2074 C2088 0.930 . S
H2075 C2090 0.960 . S
H2076 C2090 0.960 . S
H2077 C2090 0.960 1_565 S
C2078 H2070 0.929 . S
C2078 C2079 1.377 . S
C2078 C2080 1.384 . S
C2079 C2078 1.377 . S
C2079 C2085 1.390 . S
C2080 H2071 0.930 . S
C2080 C2078 1.384 . S
C2080 C2081 1.372 . S
C2081 C2080 1.372 . S
C2081 C2082 1.400 . S
C2081 C2086 1.490 . S
C2082 H2072 0.930 . S
C2082 C2081 1.400 . S
C2082 C2085 1.386 . S
H2083 C2099 0.930 . S
H2084 C2100 0.931 . S
C2085 H2073 0.929 . S
C2085 C2079 1.390 . S
C2085 C2082 1.386 . S
C2086 C2081 1.490 . S
C2086 C2088 1.395 . S
C2086 C2089 1.403 1_565 S
H2087 C2093 0.930 . S
C2088 H2074 0.930 . S
C2088 C2086 1.395 . S
C2088 C2091 1.403 1_565 S
C2089 C2086 1.403 1_545 S
C2089 C2090 1.524 . S
C2089 C2093 1.400 . S
C2090 H2075 0.960 . S
C2090 H2076 0.960 . S
C2090 H2077 0.960 1_545 S
C2090 C2089 1.524 . S
C2091 C2088 1.403 1_545 S
C2091 C2092 1.392 . S
C2091 C2095 1.495 . S
C2092 C2091 1.392 . S
C2092 C2093 1.385 . S
C2092 C2094 1.478 . S
C2093 H2087 0.930 . S
C2093 C2089 1.400 . S
C2093 C2092 1.385 . S
C2094 C2092 1.478 . S
C2094 C2096 1.381 . S
C2094 C2100 1.383 . S
C2095 C2091 1.495 . S
C2095 H2101 0.959 1_545 S
C2095 H2102 0.961 . S
C2095 H2103 0.960 . S
C2096 C2094 1.381 . S
C2096 C2097 1.394 . S
C2096 H2104 0.930 . S
C2097 C2096 1.394 . S
C2097 C2098 1.383 . S
C2097 H2105 0.929 . S
C2098 C2097 1.383 . S
C2098 C2099 1.377 . S
C2099 H2083 0.930 . S
C2099 C2098 1.377 . S
C2099 C2100 1.379 . S
C2100 H2084 0.931 . S
C2100 C2094 1.383 . S
C2100 C2099 1.379 . S
H2101 C2095 0.959 1_565 S
H2102 C2095 0.961 . S
H2103 C2095 0.960 . S
H2104 C2096 0.930 . S
H2105 C2097 0.929 . S
H2106 C2114 0.929 . S
H2107 C2116 0.930 . S
H2108 C2118 0.930 . S
H2109 C2121 0.929 . S
H2110 C2124 0.930 . S
H2111 C2126 0.960 . S
H2112 C2126 0.960 . S
H2113 C2126 0.960 . S
C2114 H2106 0.929 . S
C2114 C2115 1.377 . S
C2114 C2116 1.384 . S
C2115 C2114 1.377 . S
C2115 C2121 1.390 . S
C2116 H2107 0.930 . S
C2116 C2114 1.384 . S
C2116 C2117 1.372 . S
C2117 C2116 1.372 . S
C2117 C2118 1.400 . S
C2117 C2122 1.490 . S
C2118 H2108 0.930 . S
C2118 C2117 1.400 . S
C2118 C2121 1.386 . S
H2119 C2135 0.930 . S
H2120 C2136 0.931 . S
C2121 H2109 0.929 . S
C2121 C2115 1.390 . S
C2121 C2118 1.386 . S
C2122 C2117 1.490 . S
C2122 C2124 1.395 . S
C2122 C2125 1.403 . S
H2123 C2129 0.930 . S
C2124 H2110 0.930 . S
C2124 C2122 1.395 . S
C2124 C2127 1.403 . S
C2125 C2122 1.403 . S
C2125 C2126 1.524 . S
C2125 C2129 1.400 . S
C2126 H2111 0.960 . S
C2126 H2112 0.960 . S
C2126 H2113 0.960 . S
C2126 C2125 1.524 . S
C2127 C2124 1.403 . S
C2127 C2128 1.392 . S
C2127 C2131 1.495 . S
C2128 C2127 1.392 . S
C2128 C2129 1.385 . S
C2128 C2130 1.478 . S
C2129 H2123 0.930 . S
C2129 C2125 1.400 . S
C2129 C2128 1.385 . S
C2130 C2128 1.478 . S
C2130 C2132 1.381 . S
C2130 C2136 1.383 . S
C2131 C2127 1.495 . S
C2131 H2137 0.959 . S
C2131 H2138 0.961 . S
C2131 H2139 0.960 . S
C2132 C2130 1.381 . S
C2132 C2133 1.394 . S
C2132 H2140 0.930 . S
C2133 C2132 1.394 . S
C2133 C2134 1.383 . S
C2133 H2141 0.929 . S
C2134 C2133 1.383 . S
C2134 C2135 1.377 . S
C2135 H2119 0.930 . S
C2135 C2134 1.377 . S
C2135 C2136 1.379 . S
C2136 H2120 0.931 . S
C2136 C2130 1.383 . S
C2136 C2135 1.379 . S
H2137 C2131 0.959 . S
H2138 C2131 0.961 . S
H2139 C2131 0.960 . S
H2140 C2132 0.930 . S
H2141 C2133 0.929 . S
H2142 C2150 0.929 . S
H2143 C2152 0.930 . S
H2144 C2154 0.930 . S
H2145 C2157 0.929 . S
H2146 C2160 0.930 . S
H2147 C2162 0.960 . S
H2148 C2162 0.960 . S
H2149 C2162 0.960 . S
C2150 H2142 0.929 . S
C2150 C2151 1.377 . S
C2150 C2152 1.384 . S
C2151 C2150 1.377 . S
C2151 C2157 1.390 . S
C2152 H2143 0.930 . S
C2152 C2150 1.384 . S
C2152 C2153 1.372 . S
C2153 C2152 1.372 . S
C2153 C2154 1.400 . S
C2153 C2158 1.490 . S
C2154 H2144 0.930 . S
C2154 C2153 1.400 . S
C2154 C2157 1.386 . S
H2155 C2171 0.930 . S
H2156 C2172 0.931 . S
C2157 H2145 0.929 . S
C2157 C2151 1.390 . S
C2157 C2154 1.386 . S
C2158 C2153 1.490 . S
C2158 C2160 1.395 . S
C2158 C2161 1.403 . S
H2159 C2165 0.930 . S
C2160 H2146 0.930 . S
C2160 C2158 1.395 . S
C2160 C2163 1.403 . S
C2161 C2158 1.403 . S
C2161 C2162 1.524 . S
C2161 C2165 1.400 . S
C2162 H2147 0.960 . S
C2162 H2148 0.960 . S
C2162 H2149 0.960 . S
C2162 C2161 1.524 . S
C2163 C2160 1.403 . S
C2163 C2164 1.392 . S
C2163 C2167 1.495 . S
C2164 C2163 1.392 . S
C2164 C2165 1.385 . S
C2164 C2166 1.478 . S
C2165 H2159 0.930 . S
C2165 C2161 1.400 . S
C2165 C2164 1.385 . S
C2166 C2164 1.478 . S
C2166 C2168 1.381 . S
C2166 C2172 1.383 . S
C2167 C2163 1.495 . S
C2167 H2173 0.959 . S
C2167 H2174 0.961 . S
C2167 H2175 0.960 . S
C2168 C2166 1.381 . S
C2168 C2169 1.394 . S
C2168 H2176 0.930 . S
C2169 C2168 1.394 . S
C2169 C2170 1.383 . S
C2169 H2177 0.929 . S
C2170 C2169 1.383 . S
C2170 C2171 1.377 . S
C2171 H2155 0.930 . S
C2171 C2170 1.377 . S
C2171 C2172 1.379 . S
C2172 H2156 0.931 . S
C2172 C2166 1.383 . S
C2172 C2171 1.379 . S
H2173 C2167 0.959 . S
H2174 C2167 0.961 . S
H2175 C2167 0.960 . S
H2176 C2168 0.930 . S
H2177 C2169 0.929 . S
H2178 C2186 0.929 . S
H2179 C2188 0.930 . S
H2180 C2190 0.930 . S
H2181 C2193 0.929 . S
H2182 C2196 0.930 . S
H2183 C2198 0.960 . S
H2184 C2198 0.960 . S
H2185 C2198 0.960 . S
C2186 H2178 0.929 . S
C2186 C2187 1.377 . S
C2186 C2188 1.384 . S
C2187 C2186 1.377 . S
C2187 C2193 1.390 . S
C2188 H2179 0.930 . S
C2188 C2186 1.384 . S
C2188 C2189 1.372 . S
C2189 C2188 1.372 . S
C2189 C2190 1.400 . S
C2189 C2194 1.490 . S
C2190 H2180 0.930 . S
C2190 C2189 1.400 . S
C2190 C2193 1.386 . S
H2191 C2207 0.930 . S
H2192 C2208 0.931 . S
C2193 H2181 0.929 . S
C2193 C2187 1.390 . S
C2193 C2190 1.386 . S
C2194 C2189 1.490 . S
C2194 C2196 1.395 . S
C2194 C2197 1.403 . S
H2195 C2201 0.930 . S
C2196 H2182 0.930 . S
C2196 C2194 1.395 . S
C2196 C2199 1.403 . S
C2197 C2194 1.403 . S
C2197 C2198 1.524 . S
C2197 C2201 1.400 . S
C2198 H2183 0.960 . S
C2198 H2184 0.960 . S
C2198 H2185 0.960 . S
C2198 C2197 1.524 . S
C2199 C2196 1.403 . S
C2199 C2200 1.392 . S
C2199 C2203 1.495 . S
C2200 C2199 1.392 . S
C2200 C2201 1.385 . S
C2200 C2202 1.478 . S
C2201 H2195 0.930 . S
C2201 C2197 1.400 . S
C2201 C2200 1.385 . S
C2202 C2200 1.478 . S
C2202 C2204 1.381 . S
C2202 C2208 1.383 . S
C2203 C2199 1.495 . S
C2203 H2209 0.959 . S
C2203 H2210 0.961 . S
C2203 H2211 0.960 . S
C2204 C2202 1.381 . S
C2204 C2205 1.394 . S
C2204 H2212 0.930 . S
C2205 C2204 1.394 . S
C2205 C2206 1.383 . S
C2205 H2213 0.929 . S
C2206 C2205 1.383 . S
C2206 C2207 1.377 . S
C2207 H2191 0.930 . S
C2207 C2206 1.377 . S
C2207 C2208 1.379 . S
C2208 H2192 0.931 . S
C2208 C2202 1.383 . S
C2208 C2207 1.379 . S
H2209 C2203 0.959 . S
H2210 C2203 0.961 . S
H2211 C2203 0.960 . S
H2212 C2204 0.930 . S
H2213 C2205 0.929 . S
H2214 C2222 0.929 . S
H2215 C2224 0.930 . S
H2216 C2226 0.930 . S
H2217 C2229 0.929 . S
H2218 C2232 0.930 . S
H2219 C2234 0.960 . S
H2220 C2234 0.960 . S
H2221 C2234 0.960 . S
C2222 H2214 0.929 . S
C2222 C2223 1.377 . S
C2222 C2224 1.384 . S
C2223 C2222 1.377 . S
C2223 C2229 1.390 . S
C2224 H2215 0.930 . S
C2224 C2222 1.384 . S
C2224 C2225 1.372 . S
C2225 C2224 1.372 . S
C2225 C2226 1.400 . S
C2225 C2230 1.490 . S
C2226 H2216 0.930 . S
C2226 C2225 1.400 . S
C2226 C2229 1.386 . S
H2227 C2243 0.930 . S
H2228 C2244 0.931 . S
C2229 H2217 0.929 . S
C2229 C2223 1.390 . S
C2229 C2226 1.386 . S
C2230 C2225 1.490 . S
C2230 C2232 1.395 . S
C2230 C2233 1.403 . S
H2231 C2237 0.930 . S
C2232 H2218 0.930 . S
C2232 C2230 1.395 . S
C2232 C2235 1.403 . S
C2233 C2230 1.403 . S
C2233 C2234 1.524 . S
C2233 C2237 1.400 . S
C2234 H2219 0.960 . S
C2234 H2220 0.960 . S
C2234 H2221 0.960 . S
C2234 C2233 1.524 . S
C2235 C2232 1.403 . S
C2235 C2236 1.392 . S
C2235 C2239 1.536 . S
C2236 C2235 1.392 . S
C2236 C2237 1.385 . S
C2236 C2238 1.478 . S
C2237 H2231 0.930 . S
C2237 C2233 1.400 . S
C2237 C2236 1.385 . S
C2238 C2236 1.478 . S
C2238 C2240 1.381 . S
C2238 C2244 1.383 . S
C2239 C2235 1.536 . S
C2239 H2245 0.942 1_565 S
C2239 H2246 0.971 1_565 S
C2239 H2247 0.929 1_565 S
C2240 C2238 1.381 . S
C2240 C2241 1.394 . S
C2240 H2248 0.930 . S
C2241 C2240 1.394 . S
C2241 C2242 1.383 . S
C2241 H2249 0.929 . S
C2242 C2241 1.383 . S
C2242 C2243 1.377 . S
C2243 H2227 0.930 . S
C2243 C2242 1.377 . S
C2243 C2244 1.379 . S
C2244 H2228 0.931 . S
C2244 C2238 1.383 . S
C2244 C2243 1.379 . S
H2245 C2239 0.942 1_545 S
H2246 C2239 0.971 1_545 S
H2247 C2239 0.929 1_545 S
H2248 C2240 0.930 . S
H2249 C2241 0.929 . S
H2250 C2258 0.929 . S
H2251 C2260 0.930 . S
H2252 C2262 0.930 . S
H2253 C2265 0.929 . S
H2254 C2268 0.930 . S
H2255 C2270 0.960 . S
H2256 C2270 0.960 . S
H2257 C2270 0.960 . S
C2258 H2250 0.929 . S
C2258 C2259 1.377 . S
C2258 C2260 1.384 . S
C2259 C2258 1.377 . S
C2259 C2265 1.390 . S
C2260 H2251 0.930 . S
C2260 C2258 1.384 . S
C2260 C2261 1.372 . S
C2261 C2260 1.372 . S
C2261 C2262 1.400 . S
C2261 C2266 1.490 . S
C2262 H2252 0.930 . S
C2262 C2261 1.400 . S
C2262 C2265 1.386 . S
H2263 C2279 0.930 . S
H2264 C2280 0.931 . S
C2265 H2253 0.929 . S
C2265 C2259 1.390 . S
C2265 C2262 1.386 . S
C2266 C2261 1.490 . S
C2266 C2268 1.395 . S
C2266 C2269 1.403 . S
H2267 C2273 0.930 . S
C2268 H2254 0.930 . S
C2268 C2266 1.395 . S
C2268 C2271 1.403 . S
C2269 C2266 1.403 . S
C2269 C2270 1.524 . S
C2269 C2273 1.400 . S
C2270 H2255 0.960 . S
C2270 H2256 0.960 . S
C2270 H2257 0.960 . S
C2270 C2269 1.524 . S
C2271 C2268 1.403 . S
C2271 C2272 1.392 . S
C2271 C2275 1.495 . S
C2272 C2271 1.392 . S
C2272 C2273 1.385 . S
C2272 C2274 1.478 . S
C2273 H2267 0.930 . S
C2273 C2269 1.400 . S
C2273 C2272 1.385 . S
C2274 C2272 1.478 . S
C2274 C2276 1.381 . S
C2274 C2280 1.383 . S
C2275 C2271 1.495 . S
C2275 H2281 0.959 . S
C2275 H2282 0.974 . S
C2275 H2283 0.960 . S
C2276 C2274 1.381 . S
C2276 C2277 1.394 . S
C2276 H2284 0.930 . S
C2277 C2276 1.394 . S
C2277 C2278 1.383 . S
C2277 H2285 0.929 . S
C2278 C2277 1.383 . S
C2278 C2279 1.377 . S
C2279 H2263 0.930 . S
C2279 C2278 1.377 . S
C2279 C2280 1.379 . S
C2280 H2264 0.931 . S
C2280 C2274 1.383 . S
C2280 C2279 1.379 . S
H2281 C2275 0.959 . S
H2282 C2275 0.974 . S
H2283 C2275 0.960 . S
H2284 C2276 0.930 . S
H2285 C2277 0.929 . S
H2286 C2294 0.929 . S
H2287 C2296 0.930 . S
H2288 C2298 0.930 . S
H2289 C2301 0.929 . S
H2290 C2304 0.930 . S
H2291 C2306 0.960 . S
H2292 C2306 0.960 . S
H2293 C2306 0.960 . S
C2294 H2286 0.929 . S
C2294 C2295 1.377 . S
C2294 C2296 1.384 . S
C2295 C2294 1.377 . S
C2295 C2301 1.390 . S
C2296 H2287 0.930 . S
C2296 C2294 1.384 . S
C2296 C2297 1.372 . S
C2297 C2296 1.372 . S
C2297 C2298 1.400 . S
C2297 C2302 1.490 . S
C2298 H2288 0.930 . S
C2298 C2297 1.400 . S
C2298 C2301 1.386 . S
H2299 C2315 0.930 . S
H2300 C2316 0.931 . S
C2301 H2289 0.929 . S
C2301 C2295 1.390 . S
C2301 C2298 1.386 . S
C2302 C2297 1.490 . S
C2302 C2304 1.395 . S
C2302 C2305 1.403 . S
H2303 C2309 0.930 . S
C2304 H2290 0.930 . S
C2304 C2302 1.395 . S
C2304 C2307 1.403 . S
C2305 C2302 1.403 . S
C2305 C2306 1.524 . S
C2305 C2309 1.400 . S
C2306 H2291 0.960 . S
C2306 H2292 0.960 . S
C2306 H2293 0.960 . S
C2306 C2305 1.524 . S
C2307 C2304 1.403 . S
C2307 C2308 1.392 . S
C2307 C2311 1.495 . S
C2308 C2307 1.392 . S
C2308 C2309 1.385 . S
C2308 C2310 1.478 . S
C2309 H2303 0.930 . S
C2309 C2305 1.400 . S
C2309 C2308 1.385 . S
C2310 C2308 1.478 . S
C2310 C2312 1.381 . S
C2310 C2316 1.383 . S
C2311 C2307 1.495 . S
C2311 H2317 0.959 . S
C2311 H2318 0.961 . S
C2311 H2319 0.960 . S
C2312 C2310 1.381 . S
C2312 C2313 1.394 . S
C2312 H2320 0.930 . S
C2313 C2312 1.394 . S
C2313 C2314 1.383 . S
C2313 H2321 0.929 . S
C2314 C2313 1.383 . S
C2314 C2315 1.377 . S
C2315 H2299 0.930 . S
C2315 C2314 1.377 . S
C2315 C2316 1.379 . S
C2316 H2300 0.931 . S
C2316 C2310 1.383 . S
C2316 C2315 1.379 . S
H2317 C2311 0.959 . S
H2318 C2311 0.961 . S
H2319 C2311 0.960 . S
H2320 C2312 0.930 . S
H2321 C2313 0.929 . S
H2322 C2330 0.929 . S
H2323 C2332 0.930 . S
H2324 C2334 0.930 . S
H2325 C2337 0.929 . S
H2326 C2340 0.930 . S
H2327 C2342 0.960 . S
H2328 C2342 0.960 . S
H2329 C2342 0.960 . S
C2330 H2322 0.929 . S
C2330 C2331 1.377 . S
C2330 C2332 1.384 . S
C2331 C2330 1.377 . S
C2331 C2337 1.390 . S
C2332 H2323 0.930 . S
C2332 C2330 1.384 . S
C2332 C2333 1.372 . S
C2333 C2332 1.372 . S
C2333 C2334 1.400 . S
C2333 C2338 1.490 . S
C2334 H2324 0.930 . S
C2334 C2333 1.400 . S
C2334 C2337 1.386 . S
H2335 C2351 0.930 . S
H2336 C2352 0.931 . S
C2337 H2325 0.929 . S
C2337 C2331 1.390 . S
C2337 C2334 1.386 . S
C2338 C2333 1.490 . S
C2338 C2340 1.395 . S
C2338 C2341 1.403 . S
H2339 C2345 0.930 . S
C2340 H2326 0.930 . S
C2340 C2338 1.395 . S
C2340 C2343 1.403 . S
C2341 C2338 1.403 . S
C2341 C2342 1.524 . S
C2341 C2345 1.400 . S
C2342 H2327 0.960 . S
C2342 H2328 0.960 . S
C2342 H2329 0.960 . S
C2342 C2341 1.524 . S
C2343 C2340 1.403 . S
C2343 C2344 1.392 . S
C2343 C2347 1.495 1_655 S
C2344 C2343 1.392 . S
C2344 C2345 1.385 . S
C2344 C2346 1.478 . S
C2345 H2339 0.930 . S
C2345 C2341 1.400 . S
C2345 C2344 1.385 . S
C2346 C2344 1.478 . S
C2346 C2348 1.381 . S
C2346 C2352 1.383 . S
C2347 C2343 1.495 1_455 S
C2347 H2353 0.959 . S
C2347 H2354 0.961 . S
C2347 H2355 0.960 . S
C2348 C2346 1.381 . S
C2348 C2349 1.394 . S
C2348 H2356 0.930 . S
C2349 C2348 1.394 . S
C2349 C2350 1.383 . S
C2349 H2357 0.929 . S
C2350 C2349 1.383 . S
C2350 C2351 1.377 . S
C2351 H2335 0.930 . S
C2351 C2350 1.377 . S
C2351 C2352 1.379 . S
C2352 H2336 0.931 . S
C2352 C2346 1.383 . S
C2352 C2351 1.379 . S
H2353 C2347 0.959 . S
H2354 C2347 0.961 . S
H2355 C2347 0.960 . S
H2356 C2348 0.930 . S
H2357 C2349 0.929 . S
H2358 C2366 0.929 . S
H2359 C2368 0.930 . S
H2360 C2370 0.930 . S
H2361 C2373 0.929 . S
H2362 C2376 0.930 . S
H2363 C2378 0.960 . S
H2364 C2378 0.960 . S
H2365 C2378 0.960 . S
C2366 H2358 0.929 . S
C2366 C2367 1.377 . S
C2366 C2368 1.384 . S
C2367 C2366 1.377 . S
C2367 C2373 1.390 . S
C2368 H2359 0.930 . S
C2368 C2366 1.384 . S
C2368 C2369 1.372 . S
C2369 C2368 1.372 . S
C2369 C2370 1.400 . S
C2369 C2374 1.490 . S
C2370 H2360 0.930 . S
C2370 C2369 1.400 . S
C2370 C2373 1.386 . S
H2371 C2387 0.930 . S
H2372 C2388 0.931 . S
C2373 H2361 0.929 . S
C2373 C2367 1.390 . S
C2373 C2370 1.386 . S
C2374 C2369 1.490 . S
C2374 C2376 1.395 . S
C2374 C2377 1.403 . S
H2375 C2381 0.930 . S
C2376 H2362 0.930 . S
C2376 C2374 1.395 . S
C2376 C2379 1.403 . S
C2377 C2374 1.403 . S
C2377 C2378 1.524 . S
C2377 C2381 1.400 . S
C2378 H2363 0.960 . S
C2378 H2364 0.960 . S
C2378 H2365 0.960 . S
C2378 C2377 1.524 . S
C2379 C2376 1.403 . S
C2379 C2380 1.392 . S
C2379 C2383 1.495 . S
C2380 C2379 1.392 . S
C2380 C2381 1.385 . S
C2380 C2382 1.478 . S
C2381 H2375 0.930 . S
C2381 C2377 1.400 . S
C2381 C2380 1.385 . S
C2382 C2380 1.478 . S
C2382 C2384 1.381 . S
C2382 C2388 1.383 . S
C2383 C2379 1.495 . S
C2383 H2389 0.959 . S
C2383 H2390 0.961 . S
C2383 H2391 0.960 . S
C2384 C2382 1.381 . S
C2384 C2385 1.394 . S
C2384 H2392 0.930 . S
C2385 C2384 1.394 . S
C2385 C2386 1.383 . S
C2385 H2393 0.929 . S
C2386 C2385 1.383 . S
C2386 C2387 1.377 . S
C2387 H2371 0.930 . S
C2387 C2386 1.377 . S
C2387 C2388 1.379 . S
C2388 H2372 0.931 . S
C2388 C2382 1.383 . S
C2388 C2387 1.379 . S
H2389 C2383 0.959 . S
H2390 C2383 0.961 . S
H2391 C2383 0.960 . S
H2392 C2384 0.930 . S
H2393 C2385 0.929 . S
H2394 C2402 0.929 . S
H2395 C2404 0.930 . S
H2396 C2406 0.930 . S
H2397 C2409 0.929 . S
H2398 C2412 0.930 . S
H2399 C2414 0.960 . S
H2400 C2414 0.960 . S
H2401 C2414 0.960 . S
C2402 H2394 0.929 . S
C2402 C2403 1.377 . S
C2402 C2404 1.384 . S
C2403 C2402 1.377 . S
C2403 C2409 1.390 . S
C2404 H2395 0.930 . S
C2404 C2402 1.384 . S
C2404 C2405 1.372 . S
C2405 C2404 1.372 . S
C2405 C2406 1.400 . S
C2405 C2410 1.490 . S
C2406 H2396 0.930 . S
C2406 C2405 1.400 . S
C2406 C2409 1.386 . S
H2407 C2423 0.930 . S
H2408 C2424 0.931 . S
C2409 H2397 0.929 . S
C2409 C2403 1.390 . S
C2409 C2406 1.386 . S
C2410 C2405 1.490 . S
C2410 C2412 1.395 . S
C2410 C2413 1.403 . S
H2411 C2417 0.930 . S
C2412 H2398 0.930 . S
C2412 C2410 1.395 . S
C2412 C2415 1.403 . S
C2413 C2410 1.403 . S
C2413 C2414 1.524 . S
C2413 C2417 1.400 . S
C2414 H2399 0.960 . S
C2414 H2400 0.960 . S
C2414 H2401 0.960 . S
C2414 C2413 1.524 . S
C2415 C2412 1.403 . S
C2415 C2416 1.392 . S
C2415 C2419 1.495 . S
C2416 C2415 1.392 . S
C2416 C2417 1.385 . S
C2416 C2418 1.478 . S
C2417 H2411 0.930 . S
C2417 C2413 1.400 . S
C2417 C2416 1.385 . S
C2418 C2416 1.478 . S
C2418 C2420 1.381 . S
C2418 C2424 1.383 . S
C2419 C2415 1.495 . S
C2419 H2425 0.959 . S
C2419 H2426 0.961 . S
C2419 H2427 0.960 . S
C2420 C2418 1.381 . S
C2420 C2421 1.394 . S
C2420 H2428 0.930 . S
C2421 C2420 1.394 . S
C2421 C2422 1.383 . S
C2421 H2429 0.929 . S
C2422 C2421 1.383 . S
C2422 C2423 1.377 . S
C2423 H2407 0.930 . S
C2423 C2422 1.377 . S
C2423 C2424 1.379 . S
C2424 H2408 0.931 . S
C2424 C2418 1.383 . S
C2424 C2423 1.379 . S
H2425 C2419 0.959 . S
H2426 C2419 0.961 . S
H2427 C2419 0.960 . S
H2428 C2420 0.930 . S
H2429 C2421 0.929 . S
H2430 C2438 0.929 . S
H2431 C2440 0.930 . S
H2432 C2442 0.930 . S
H2433 C2445 0.929 . S
H2434 C2448 0.930 . S
H2435 C2450 0.960 . S
H2436 C2450 0.960 . S
H2437 C2450 0.960 . S
C2438 H2430 0.929 . S
C2438 C2439 1.377 . S
C2438 C2440 1.384 . S
C2439 C2438 1.377 . S
C2439 C2445 1.390 . S
C2440 H2431 0.930 . S
C2440 C2438 1.384 . S
C2440 C2441 1.372 . S
C2441 C2440 1.372 . S
C2441 C2442 1.400 . S
C2441 C2446 1.490 . S
C2442 H2432 0.930 . S
C2442 C2441 1.400 . S
C2442 C2445 1.386 . S
H2443 C2459 0.930 . S
H2444 C2460 0.931 . S
C2445 H2433 0.929 . S
C2445 C2439 1.390 . S
C2445 C2442 1.386 . S
C2446 C2441 1.490 . S
C2446 C2448 1.395 . S
C2446 C2449 1.403 . S
H2447 C2453 0.930 . S
C2448 H2434 0.930 . S
C2448 C2446 1.395 . S
C2448 C2451 1.403 . S
C2449 C2446 1.403 . S
C2449 C2450 1.524 . S
C2449 C2453 1.400 . S
C2450 H2435 0.960 . S
C2450 H2436 0.960 . S
C2450 H2437 0.960 . S
C2450 C2449 1.524 . S
C2451 C2448 1.403 . S
C2451 C2452 1.392 . S
C2451 C2455 1.495 . S
C2452 C2451 1.392 . S
C2452 C2453 1.385 . S
C2452 C2454 1.478 . S
C2453 H2447 0.930 . S
C2453 C2449 1.400 . S
C2453 C2452 1.385 . S
C2454 C2452 1.478 . S
C2454 C2456 1.381 . S
C2454 C2460 1.383 . S
C2455 C2451 1.495 . S
C2455 H2461 0.959 . S
C2455 H2462 0.961 . S
C2455 H2463 0.960 . S
C2456 C2454 1.381 . S
C2456 C2457 1.394 . S
C2456 H2464 0.930 . S
C2457 C2456 1.394 . S
C2457 C2458 1.383 . S
C2457 H2465 0.929 . S
C2458 C2457 1.383 . S
C2458 C2459 1.377 . S
C2459 H2443 0.930 . S
C2459 C2458 1.377 . S
C2459 C2460 1.379 . S
C2460 H2444 0.931 . S
C2460 C2454 1.383 . S
C2460 C2459 1.379 . S
H2461 C2455 0.959 . S
H2462 C2455 0.961 . S
H2463 C2455 0.960 . S
H2464 C2456 0.930 . S
H2465 C2457 0.929 . S
H2466 C2474 0.929 . S
H2467 C2476 0.930 . S
H2468 C2478 0.930 . S
H2469 C2481 0.929 . S
H2470 C2484 0.930 . S
H2471 C2486 0.960 . S
H2472 C2486 0.960 . S
H2473 C2486 0.960 . S
C2474 H2466 0.929 . S
C2474 C2475 1.377 . S
C2474 C2476 1.384 . S
C2475 C2474 1.377 . S
C2475 C2481 1.390 . S
C2476 H2467 0.930 . S
C2476 C2474 1.384 . S
C2476 C2477 1.372 . S
C2477 C2476 1.372 . S
C2477 C2478 1.400 . S
C2477 C2482 1.490 . S
C2478 H2468 0.930 . S
C2478 C2477 1.400 . S
C2478 C2481 1.386 . S
H2479 C2495 0.930 . S
H2480 C2496 0.931 . S
C2481 H2469 0.929 . S
C2481 C2475 1.390 . S
C2481 C2478 1.386 . S
C2482 C2477 1.490 . S
C2482 C2484 1.395 . S
C2482 C2485 1.403 . S
H2483 C2489 0.930 . S
C2484 H2470 0.930 . S
C2484 C2482 1.395 . S
C2484 C2487 1.403 . S
C2485 C2482 1.403 . S
C2485 C2486 1.524 . S
C2485 C2489 1.400 . S
C2486 H2471 0.960 . S
C2486 H2472 0.960 . S
C2486 H2473 0.960 . S
C2486 C2485 1.524 . S
C2487 C2484 1.403 . S
C2487 C2488 1.392 . S
C2487 C2491 1.495 . S
C2488 C2487 1.392 . S
C2488 C2489 1.385 . S
C2488 C2490 1.478 . S
C2489 H2483 0.930 . S
C2489 C2485 1.400 . S
C2489 C2488 1.385 . S
C2490 C2488 1.478 . S
C2490 C2492 1.381 . S
C2490 C2496 1.383 . S
C2491 C2487 1.495 . S
C2491 H2497 0.959 . S
C2491 H2498 0.961 . S
C2491 H2499 0.960 . S
C2492 C2490 1.381 . S
C2492 C2493 1.394 . S
C2492 H2500 0.930 . S
C2493 C2492 1.394 . S
C2493 C2494 1.383 . S
C2493 H2501 0.929 . S
C2494 C2493 1.383 . S
C2494 C2495 1.377 . S
C2495 H2479 0.930 . S
C2495 C2494 1.377 . S
C2495 C2496 1.379 . S
C2496 H2480 0.931 . S
C2496 C2490 1.383 . S
C2496 C2495 1.379 . S
H2497 C2491 0.959 . S
H2498 C2491 0.961 . S
H2499 C2491 0.960 . S
H2500 C2492 0.930 . S
H2501 C2493 0.929 . S
H2502 C2510 0.929 . S
H2503 C2512 0.930 . S
H2504 C2514 0.930 . S
H2505 C2517 0.929 . S
H2506 C2520 0.930 . S
H2507 C2522 0.960 . S
H2508 C2522 0.960 . S
H2509 C2522 0.960 . S
C2510 H2502 0.929 . S
C2510 C2511 1.377 . S
C2510 C2512 1.384 . S
C2511 C2510 1.377 . S
C2511 C2517 1.390 . S
C2512 H2503 0.930 . S
C2512 C2510 1.384 . S
C2512 C2513 1.372 . S
C2513 C2512 1.372 . S
C2513 C2514 1.400 . S
C2513 C2518 1.490 . S
C2514 H2504 0.930 . S
C2514 C2513 1.400 . S
C2514 C2517 1.386 . S
H2515 C2531 0.930 . S
H2516 C2532 0.931 . S
C2517 H2505 0.929 . S
C2517 C2511 1.390 . S
C2517 C2514 1.386 . S
C2518 C2513 1.490 . S
C2518 C2520 1.395 . S
C2518 C2521 1.403 . S
H2519 C2525 0.930 . S
C2520 H2506 0.930 . S
C2520 C2518 1.395 . S
C2520 C2523 1.403 . S
C2521 C2518 1.403 . S
C2521 C2522 1.524 . S
C2521 C2525 1.400 . S
C2522 H2507 0.960 . S
C2522 H2508 0.960 . S
C2522 H2509 0.960 . S
C2522 C2521 1.524 . S
C2523 C2520 1.403 . S
C2523 C2524 1.392 . S
C2523 C2527 1.495 . S
C2524 C2523 1.392 . S
C2524 C2525 1.385 . S
C2524 C2526 1.478 . S
C2525 H2519 0.930 . S
C2525 C2521 1.400 . S
C2525 C2524 1.385 . S
C2526 C2524 1.478 . S
C2526 C2528 1.381 . S
C2526 C2532 1.383 . S
C2527 C2523 1.495 . S
C2527 H2533 0.959 . S
C2527 H2534 0.961 . S
C2527 H2535 0.960 . S
C2528 C2526 1.381 . S
C2528 C2529 1.394 . S
C2528 H2536 0.930 . S
C2529 C2528 1.394 . S
C2529 C2530 1.383 . S
C2529 H2537 0.929 . S
C2530 C2529 1.383 . S
C2530 C2531 1.377 . S
C2531 H2515 0.930 . S
C2531 C2530 1.377 . S
C2531 C2532 1.379 . S
C2532 H2516 0.931 . S
C2532 C2526 1.383 . S
C2532 C2531 1.379 . S
H2533 C2527 0.959 . S
H2534 C2527 0.961 . S
H2535 C2527 0.960 . S
H2536 C2528 0.930 . S
H2537 C2529 0.929 . S
H2538 C2546 0.929 . S
H2539 C2548 0.930 . S
H2540 C2550 0.930 . S
H2541 C2553 0.929 . S
H2542 C2556 0.930 . S
H2543 C2558 0.960 . S
H2544 C2558 0.960 . S
H2545 C2558 0.960 . S
C2546 H2538 0.929 . S
C2546 C2547 1.377 . S
C2546 C2548 1.384 . S
C2547 C2546 1.377 . S
C2547 C2553 1.390 . S
C2548 H2539 0.930 . S
C2548 C2546 1.384 . S
C2548 C2549 1.372 . S
C2549 C2548 1.372 . S
C2549 C2550 1.400 . S
C2549 C2554 1.490 . S
C2550 H2540 0.930 . S
C2550 C2549 1.400 . S
C2550 C2553 1.386 . S
H2551 C2567 0.930 . S
H2552 C2568 0.931 . S
C2553 H2541 0.929 . S
C2553 C2547 1.390 . S
C2553 C2550 1.386 . S
C2554 C2549 1.490 . S
C2554 C2556 1.395 . S
C2554 C2557 1.403 . S
H2555 C2561 0.930 . S
C2556 H2542 0.930 . S
C2556 C2554 1.395 . S
C2556 C2559 1.403 . S
C2557 C2554 1.403 . S
C2557 C2558 1.524 . S
C2557 C2561 1.400 . S
C2558 H2543 0.960 . S
C2558 H2544 0.960 . S
C2558 H2545 0.960 . S
C2558 C2557 1.524 . S
C2559 C2556 1.403 . S
C2559 C2560 1.392 . S
C2559 C2563 1.495 . S
C2560 C2559 1.392 . S
C2560 C2561 1.385 . S
C2560 C2562 1.478 . S
C2561 H2555 0.930 . S
C2561 C2557 1.400 . S
C2561 C2560 1.385 . S
C2562 C2560 1.478 . S
C2562 C2564 1.381 . S
C2562 C2568 1.383 . S
C2563 C2559 1.495 . S
C2563 H2569 0.959 . S
C2563 H2570 0.961 . S
C2563 H2571 0.960 . S
C2564 C2562 1.381 . S
C2564 C2565 1.394 . S
C2564 H2572 0.930 . S
C2565 C2564 1.394 . S
C2565 C2566 1.383 . S
C2565 H2573 0.929 . S
C2566 C2565 1.383 . S
C2566 C2567 1.377 . S
C2567 H2551 0.930 . S
C2567 C2566 1.377 . S
C2567 C2568 1.379 . S
C2568 H2552 0.931 . S
C2568 C2562 1.383 . S
C2568 C2567 1.379 . S
H2569 C2563 0.959 . S
H2570 C2563 0.961 . S
H2571 C2563 0.960 . S
H2572 C2564 0.930 . S
H2573 C2565 0.929 . S
H2574 C2582 0.929 . S
H2575 C2584 0.930 . S
H2576 C2586 0.930 . S
H2577 C2589 0.929 . S
H2578 C2592 0.930 . S
H2579 C2594 0.960 . S
H2580 C2594 0.960 . S
H2581 C2594 0.960 . S
C2582 H2574 0.929 . S
C2582 C2583 1.377 . S
C2582 C2584 1.384 . S
C2583 C2582 1.377 . S
C2583 C2589 1.390 . S
C2584 H2575 0.930 . S
C2584 C2582 1.384 . S
C2584 C2585 1.372 . S
C2585 C2584 1.372 . S
C2585 C2586 1.400 . S
C2585 C2590 1.490 . S
C2586 H2576 0.930 . S
C2586 C2585 1.400 . S
C2586 C2589 1.386 . S
H2587 C2603 0.930 . S
H2588 C2604 0.931 . S
C2589 H2577 0.929 . S
C2589 C2583 1.390 . S
C2589 C2586 1.386 . S
C2590 C2585 1.490 . S
C2590 C2592 1.395 . S
C2590 C2593 1.403 . S
H2591 C2597 0.930 . S
C2592 H2578 0.930 . S
C2592 C2590 1.395 . S
C2592 C2595 1.403 . S
C2593 C2590 1.403 . S
C2593 C2594 1.524 . S
C2593 C2597 1.400 . S
C2594 H2579 0.960 . S
C2594 H2580 0.960 . S
C2594 H2581 0.960 . S
C2594 C2593 1.524 . S
C2595 C2592 1.403 . S
C2595 C2596 1.392 . S
C2595 C2599 1.495 . S
C2596 C2595 1.392 . S
C2596 C2597 1.385 . S
C2596 C2598 1.478 . S
C2597 H2591 0.930 . S
C2597 C2593 1.400 . S
C2597 C2596 1.385 . S
C2598 C2596 1.478 . S
C2598 C2600 1.381 . S
C2598 C2604 1.383 . S
C2599 C2595 1.495 . S
C2599 H2605 0.959 . S
C2599 H2606 0.961 . S
C2599 H2607 0.960 . S
C2600 C2598 1.381 . S
C2600 C2601 1.394 . S
C2600 H2608 0.930 . S
C2601 C2600 1.394 . S
C2601 C2602 1.383 . S
C2601 H2609 0.929 . S
C2602 C2601 1.383 . S
C2602 C2603 1.377 . S
C2603 H2587 0.930 . S
C2603 C2602 1.377 . S
C2603 C2604 1.379 . S
C2604 H2588 0.931 . S
C2604 C2598 1.383 . S
C2604 C2603 1.379 . S
H2605 C2599 0.959 . S
H2606 C2599 0.961 . S
H2607 C2599 0.960 . S
H2608 C2600 0.930 . S
H2609 C2601 0.929 . S
H2610 C2618 0.929 . S
H2611 C2620 0.930 . S
H2612 C2622 0.930 . S
H2613 C2625 0.929 . S
H2614 C2628 0.930 . S
H2615 C2630 0.960 . S
H2616 C2630 0.960 . S
H2617 C2630 0.960 . S
C2618 H2610 0.929 . S
C2618 C2619 1.377 . S
C2618 C2620 1.384 . S
C2619 C2618 1.377 . S
C2619 C2625 1.390 . S
C2620 H2611 0.930 . S
C2620 C2618 1.384 . S
C2620 C2621 1.372 . S
C2621 C2620 1.372 . S
C2621 C2622 1.400 . S
C2621 C2626 1.490 . S
C2622 H2612 0.930 . S
C2622 C2621 1.400 . S
C2622 C2625 1.386 . S
H2623 C2639 0.930 . S
H2624 C2640 0.931 . S
C2625 H2613 0.929 . S
C2625 C2619 1.390 . S
C2625 C2622 1.386 . S
C2626 C2621 1.490 . S
C2626 C2628 1.395 . S
C2626 C2629 1.403 . S
H2627 C2633 0.930 . S
C2628 H2614 0.930 . S
C2628 C2626 1.395 . S
C2628 C2631 1.403 . S
C2629 C2626 1.403 . S
C2629 C2630 1.524 . S
C2629 C2633 1.400 . S
C2630 H2615 0.960 . S
C2630 H2616 0.960 . S
C2630 H2617 0.960 . S
C2630 C2629 1.524 . S
C2631 C2628 1.403 . S
C2631 C2632 1.392 . S
C2631 C2635 1.495 . S
C2632 C2631 1.392 . S
C2632 C2633 1.385 . S
C2632 C2634 1.478 . S
C2633 H2627 0.930 . S
C2633 C2629 1.400 . S
C2633 C2632 1.385 . S
C2634 C2632 1.478 . S
C2634 C2636 1.381 . S
C2634 C2640 1.383 . S
C2635 C2631 1.495 . S
C2635 H2641 0.959 . S
C2635 H2642 0.961 . S
C2635 H2643 0.960 . S
C2636 C2634 1.381 . S
C2636 C2637 1.394 . S
C2636 H2644 0.930 . S
C2637 C2636 1.394 . S
C2637 C2638 1.383 . S
C2637 H2645 0.929 . S
C2638 C2637 1.383 . S
C2638 C2639 1.377 . S
C2639 H2623 0.930 . S
C2639 C2638 1.377 . S
C2639 C2640 1.379 . S
C2640 H2624 0.931 . S
C2640 C2634 1.383 . S
C2640 C2639 1.379 . S
H2641 C2635 0.959 . S
H2642 C2635 0.961 . S
H2643 C2635 0.960 . S
H2644 C2636 0.930 . S
H2645 C2637 0.929 . S
H2646 C2654 0.929 . S
H2647 C2656 0.930 . S
H2648 C2658 0.930 . S
H2649 C2661 0.929 . S
H2650 C2664 0.930 . S
H2651 C2666 0.960 . S
H2652 C2666 0.960 . S
H2653 C2666 0.960 . S
C2654 H2646 0.929 . S
C2654 C2655 1.377 . S
C2654 C2656 1.384 . S
C2655 C2654 1.377 . S
C2655 C2661 1.390 . S
C2656 H2647 0.930 . S
C2656 C2654 1.384 . S
C2656 C2657 1.372 . S
C2657 C2656 1.372 . S
C2657 C2658 1.400 . S
C2657 C2662 1.490 . S
C2658 H2648 0.930 . S
C2658 C2657 1.400 . S
C2658 C2661 1.386 . S
H2659 C2675 0.930 . S
H2660 C2676 0.931 . S
C2661 H2649 0.929 . S
C2661 C2655 1.390 . S
C2661 C2658 1.386 . S
C2662 C2657 1.490 . S
C2662 C2664 1.395 . S
C2662 C2665 1.403 . S
H2663 C2669 0.930 . S
C2664 H2650 0.930 . S
C2664 C2662 1.395 . S
C2664 C2667 1.403 . S
C2665 C2662 1.403 . S
C2665 C2666 1.524 . S
C2665 C2669 1.400 . S
C2666 H2651 0.960 . S
C2666 H2652 0.960 . S
C2666 H2653 0.960 . S
C2666 C2665 1.524 . S
C2667 C2664 1.403 . S
C2667 C2668 1.392 . S
C2667 C2671 1.495 . S
C2668 C2667 1.392 . S
C2668 C2669 1.385 . S
C2668 C2670 1.478 . S
C2669 H2663 0.930 . S
C2669 C2665 1.400 . S
C2669 C2668 1.385 . S
C2670 C2668 1.478 . S
C2670 C2672 1.381 . S
C2670 C2676 1.383 . S
C2671 C2667 1.495 . S
C2671 H2677 0.959 . S
C2671 H2678 0.961 . S
C2671 H2679 0.960 . S
C2672 C2670 1.381 . S
C2672 C2673 1.394 . S
C2672 H2680 0.930 . S
C2673 C2672 1.394 . S
C2673 C2674 1.383 . S
C2673 H2681 0.929 . S
C2674 C2673 1.383 . S
C2674 C2675 1.377 . S
C2675 H2659 0.930 . S
C2675 C2674 1.377 . S
C2675 C2676 1.379 . S
C2676 H2660 0.931 . S
C2676 C2670 1.383 . S
C2676 C2675 1.379 . S
H2677 C2671 0.959 . S
H2678 C2671 0.961 . S
H2679 C2671 0.960 . S
H2680 C2672 0.930 . S
H2681 C2673 0.929 . S
H2682 C2690 0.929 . S
H2683 C2692 0.930 . S
H2684 C2694 0.930 . S
H2685 C2697 0.929 . S
H2686 C2700 0.930 . S
H2687 C2702 0.960 . S
H2688 C2702 0.960 . S
H2689 C2702 0.960 . S
C2690 H2682 0.929 . S
C2690 C2691 1.377 . S
C2690 C2692 1.384 . S
C2691 C2690 1.377 . S
C2691 C2697 1.390 . S
C2692 H2683 0.930 . S
C2692 C2690 1.384 . S
C2692 C2693 1.372 . S
C2693 C2692 1.372 . S
C2693 C2694 1.400 . S
C2693 C2698 1.490 . S
C2694 H2684 0.930 . S
C2694 C2693 1.400 . S
C2694 C2697 1.386 . S
H2695 C2711 0.930 . S
H2696 C2712 0.931 . S
C2697 H2685 0.929 . S
C2697 C2691 1.390 . S
C2697 C2694 1.386 . S
C2698 C2693 1.490 . S
C2698 C2700 1.395 . S
C2698 C2701 1.403 . S
H2699 C2705 0.930 . S
C2700 H2686 0.930 . S
C2700 C2698 1.395 . S
C2700 C2703 1.403 . S
C2701 C2698 1.403 . S
C2701 C2702 1.524 . S
C2701 C2705 1.400 . S
C2702 H2687 0.960 . S
C2702 H2688 0.960 . S
C2702 H2689 0.960 . S
C2702 C2701 1.524 . S
C2703 C2700 1.403 . S
C2703 C2704 1.392 . S
C2703 C2707 1.495 . S
C2704 C2703 1.392 . S
C2704 C2705 1.385 . S
C2704 C2706 1.478 . S
C2705 H2699 0.930 . S
C2705 C2701 1.400 . S
C2705 C2704 1.385 . S
C2706 C2704 1.478 . S
C2706 C2708 1.381 . S
C2706 C2712 1.383 . S
C2707 C2703 1.495 . S
C2707 H2713 0.959 . S
C2707 H2714 0.961 . S
C2707 H2715 0.960 . S
C2708 C2706 1.381 . S
C2708 C2709 1.394 . S
C2708 H2716 0.930 . S
C2709 C2708 1.394 . S
C2709 C2710 1.383 . S
C2709 H2717 0.929 . S
C2710 C2709 1.383 . S
C2710 C2711 1.377 . S
C2711 H2695 0.930 . S
C2711 C2710 1.377 . S
C2711 C2712 1.379 . S
C2712 H2696 0.931 . S
C2712 C2706 1.383 . S
C2712 C2711 1.379 . S
H2713 C2707 0.959 . S
H2714 C2707 0.961 . S
H2715 C2707 0.960 . S
H2716 C2708 0.930 . S
H2717 C2709 0.929 . S
H2718 C2726 0.929 . S
H2719 C2728 0.930 . S
H2720 C2730 0.930 . S
H2721 C2733 0.929 . S
H2722 C2736 0.930 . S
H2723 C2738 0.960 . S
H2724 C2738 0.960 . S
H2725 C2738 0.960 . S
C2726 H2718 0.929 . S
C2726 C2727 1.377 . S
C2726 C2728 1.384 . S
C2727 C2726 1.377 . S
C2727 C2733 1.390 . S
C2728 H2719 0.930 . S
C2728 C2726 1.384 . S
C2728 C2729 1.372 . S
C2729 C2728 1.372 . S
C2729 C2730 1.400 . S
C2729 C2734 1.490 . S
C2730 H2720 0.930 . S
C2730 C2729 1.400 . S
C2730 C2733 1.386 . S
H2731 C2747 0.930 . S
H2732 C2748 0.931 . S
C2733 H2721 0.929 . S
C2733 C2727 1.390 . S
C2733 C2730 1.386 . S
C2734 C2729 1.490 . S
C2734 C2736 1.395 . S
C2734 C2737 1.403 . S
H2735 C2741 0.930 . S
C2736 H2722 0.930 . S
C2736 C2734 1.395 . S
C2736 C2739 1.403 . S
C2737 C2734 1.403 . S
C2737 C2738 1.524 . S
C2737 C2741 1.400 . S
C2738 H2723 0.960 . S
C2738 H2724 0.960 . S
C2738 H2725 0.960 . S
C2738 C2737 1.524 . S
C2739 C2736 1.403 . S
C2739 C2740 1.392 . S
C2739 C2743 1.495 . S
C2740 C2739 1.392 . S
C2740 C2741 1.385 . S
C2740 C2742 1.478 . S
C2741 H2735 0.930 . S
C2741 C2737 1.400 . S
C2741 C2740 1.385 . S
C2742 C2740 1.478 . S
C2742 C2744 1.381 . S
C2742 C2748 1.383 . S
C2743 C2739 1.495 . S
C2743 H2749 0.959 . S
C2743 H2750 0.961 . S
C2743 H2751 0.960 . S
C2744 C2742 1.381 . S
C2744 C2745 1.394 . S
C2744 H2752 0.930 . S
C2745 C2744 1.394 . S
C2745 C2746 1.383 . S
C2745 H2753 0.929 . S
C2746 C2745 1.383 . S
C2746 C2747 1.377 . S
C2747 H2731 0.930 . S
C2747 C2746 1.377 . S
C2747 C2748 1.379 . S
C2748 H2732 0.931 . S
C2748 C2742 1.383 . S
C2748 C2747 1.379 . S
H2749 C2743 0.959 . S
H2750 C2743 0.961 . S
H2751 C2743 0.960 . S
H2752 C2744 0.930 . S
H2753 C2745 0.929 . S
H2754 C2762 0.929 . S
H2755 C2764 0.930 . S
H2756 C2766 0.930 . S
H2757 C2769 0.929 . S
H2758 C2772 0.930 . S
H2759 C2774 0.960 . S
H2760 C2774 0.960 . S
H2761 C2774 0.960 . S
C2762 H2754 0.929 . S
C2762 C2763 1.377 . S
C2762 C2764 1.384 . S
C2763 C2762 1.377 . S
C2763 C2769 1.390 . S
C2764 H2755 0.930 . S
C2764 C2762 1.384 . S
C2764 C2765 1.372 . S
C2765 C2764 1.372 . S
C2765 C2766 1.400 . S
C2765 C2770 1.490 . S
C2766 H2756 0.930 . S
C2766 C2765 1.400 . S
C2766 C2769 1.386 . S
H2767 C2783 0.930 . S
H2768 C2784 0.931 . S
C2769 H2757 0.929 . S
C2769 C2763 1.390 . S
C2769 C2766 1.386 . S
C2770 C2765 1.490 . S
C2770 C2772 1.395 . S
C2770 C2773 1.403 . S
H2771 C2777 0.930 . S
C2772 H2758 0.930 . S
C2772 C2770 1.395 . S
C2772 C2775 1.403 . S
C2773 C2770 1.403 . S
C2773 C2774 1.524 . S
C2773 C2777 1.400 . S
C2774 H2759 0.960 . S
C2774 H2760 0.960 . S
C2774 H2761 0.960 . S
C2774 C2773 1.524 . S
C2775 C2772 1.403 . S
C2775 C2776 1.392 . S
C2775 C2779 1.495 . S
C2776 C2775 1.392 . S
C2776 C2777 1.385 . S
C2776 C2778 1.478 . S
C2777 H2771 0.930 . S
C2777 C2773 1.400 . S
C2777 C2776 1.385 . S
C2778 C2776 1.478 . S
C2778 C2780 1.381 . S
C2778 C2784 1.383 . S
C2779 C2775 1.495 . S
C2779 H2785 0.959 . S
C2779 H2786 0.961 . S
C2779 H2787 0.960 . S
C2780 C2778 1.381 . S
C2780 C2781 1.394 . S
C2780 H2788 0.930 . S
C2781 C2780 1.394 . S
C2781 C2782 1.383 . S
C2781 H2789 0.929 . S
C2782 C2781 1.383 . S
C2782 C2783 1.377 . S
C2783 H2767 0.930 . S
C2783 C2782 1.377 . S
C2783 C2784 1.379 . S
C2784 H2768 0.931 . S
C2784 C2778 1.383 . S
C2784 C2783 1.379 . S
H2785 C2779 0.959 . S
H2786 C2779 0.961 . S
H2787 C2779 0.960 . S
H2788 C2780 0.930 . S
H2789 C2781 0.929 . S
H2790 C2798 0.929 . S
H2791 C2800 0.930 . S
H2792 C2802 0.930 . S
H2793 C2805 0.929 . S
H2794 C2808 0.930 . S
H2795 C2810 0.960 . S
H2796 C2810 0.960 . S
H2797 C2810 0.960 . S
C2798 H2790 0.929 . S
C2798 C2799 1.377 . S
C2798 C2800 1.384 . S
C2799 C2798 1.377 . S
C2799 C2805 1.390 . S
C2800 H2791 0.930 . S
C2800 C2798 1.384 . S
C2800 C2801 1.372 . S
C2801 C2800 1.372 . S
C2801 C2802 1.400 . S
C2801 C2806 1.490 . S
C2802 H2792 0.930 . S
C2802 C2801 1.400 . S
C2802 C2805 1.386 . S
H2803 C2819 0.930 . S
H2804 C2820 0.931 . S
C2805 H2793 0.929 . S
C2805 C2799 1.390 . S
C2805 C2802 1.386 . S
C2806 C2801 1.490 . S
C2806 C2808 1.395 . S
C2806 C2809 1.403 . S
H2807 C2813 0.930 . S
C2808 H2794 0.930 . S
C2808 C2806 1.395 . S
C2808 C2811 1.403 . S
C2809 C2806 1.403 . S
C2809 C2810 1.524 . S
C2809 C2813 1.400 . S
C2810 H2795 0.960 . S
C2810 H2796 0.960 . S
C2810 H2797 0.960 . S
C2810 C2809 1.524 . S
C2811 C2808 1.403 . S
C2811 C2812 1.392 . S
C2811 C2815 1.495 . S
C2812 C2811 1.392 . S
C2812 C2813 1.385 . S
C2812 C2814 1.478 . S
C2813 H2807 0.930 . S
C2813 C2809 1.400 . S
C2813 C2812 1.385 . S
C2814 C2812 1.478 . S
C2814 C2816 1.381 . S
C2814 C2820 1.383 . S
C2815 C2811 1.495 . S
C2815 H2821 0.959 . S
C2815 H2822 0.961 . S
C2815 H2823 0.960 . S
C2816 C2814 1.381 . S
C2816 C2817 1.394 . S
C2816 H2824 0.930 . S
C2817 C2816 1.394 . S
C2817 C2818 1.383 . S
C2817 H2825 0.929 . S
C2818 C2817 1.383 . S
C2818 C2819 1.377 . S
C2819 H2803 0.930 . S
C2819 C2818 1.377 . S
C2819 C2820 1.379 . S
C2820 H2804 0.931 . S
C2820 C2814 1.383 . S
C2820 C2819 1.379 . S
H2821 C2815 0.959 . S
H2822 C2815 0.961 . S
H2823 C2815 0.960 . S
H2824 C2816 0.930 . S
H2825 C2817 0.929 . S
H2826 C2834 0.929 . S
H2827 C2836 0.930 . S
H2828 C2838 0.930 . S
H2829 C2841 0.929 . S
H2830 C2844 0.930 . S
H2831 C2846 0.960 . S
H2832 C2846 0.960 . S
H2833 C2846 0.960 . S
C2834 H2826 0.929 . S
C2834 C2835 1.377 . S
C2834 C2836 1.384 . S
C2835 C2834 1.377 . S
C2835 C2841 1.390 . S
C2836 H2827 0.930 . S
C2836 C2834 1.384 . S
C2836 C2837 1.372 . S
C2837 C2836 1.372 . S
C2837 C2838 1.400 . S
C2837 C2842 1.490 . S
C2838 H2828 0.930 . S
C2838 C2837 1.400 . S
C2838 C2841 1.386 . S
H2839 C2855 0.930 . S
H2840 C2856 0.931 . S
C2841 H2829 0.929 . S
C2841 C2835 1.390 . S
C2841 C2838 1.386 . S
C2842 C2837 1.490 . S
C2842 C2844 1.395 . S
C2842 C2845 1.403 . S
H2843 C2849 0.930 . S
C2844 H2830 0.930 . S
C2844 C2842 1.395 . S
C2844 C2847 1.403 . S
C2845 C2842 1.403 . S
C2845 C2846 1.524 . S
C2845 C2849 1.400 . S
C2846 H2831 0.960 . S
C2846 H2832 0.960 . S
C2846 H2833 0.960 . S
C2846 C2845 1.524 . S
C2847 C2844 1.403 . S
C2847 C2848 1.392 . S
C2847 C2851 1.495 . S
C2848 C2847 1.392 . S
C2848 C2849 1.385 . S
C2848 C2850 1.478 . S
C2849 H2843 0.930 . S
C2849 C2845 1.400 . S
C2849 C2848 1.385 . S
C2850 C2848 1.478 . S
C2850 C2852 1.381 . S
C2850 C2856 1.383 . S
C2851 C2847 1.495 . S
C2851 H2857 0.959 . S
C2851 H2858 0.961 . S
C2851 H2859 0.960 . S
C2852 C2850 1.381 . S
C2852 C2853 1.394 . S
C2852 H2860 0.930 . S
C2853 C2852 1.394 . S
C2853 C2854 1.383 . S
C2853 H2861 0.929 . S
C2854 C2853 1.383 . S
C2854 C2855 1.377 . S
C2855 H2839 0.930 . S
C2855 C2854 1.377 . S
C2855 C2856 1.379 . S
C2856 H2840 0.931 . S
C2856 C2850 1.383 . S
C2856 C2855 1.379 . S
H2857 C2851 0.959 . S
H2858 C2851 0.961 . S
H2859 C2851 0.960 . S
H2860 C2852 0.930 . S
H2861 C2853 0.929 . S
C927 C124 1.404 . S
C946 C218 1.361 . S
C963 C130 1.467 . S
C982 C302 1.367 . S
C999 C115 1.442 . S
C1018 C396 1.400 . S
C1035 C106 1.412 . S
C1054 C312 1.355 . S
C1090 C386 1.361 . S
C1071 C85 1.404 . S
C1107 C97 1.366 . S
C1126 C228 1.349 . S
C1162 C229 1.341 . S
C1143 C103 1.433 . S
C1198 C313 1.339 . S
C1179 C88 1.435 . S
C1215 C94 1.438 . S
C1234 C405 1.378 . S
C1251 C121 1.410 . S
C1270 C321 1.391 . S
C1287 C133 1.375 . S
C1306 C397 1.265 . S
C1342 C237 1.383 . S
C1323 C112 1.396 . S
C1378 C470 1.291 . S
C1359 C16 1.406 . S
C1395 C22 1.467 . S
C1414 C554 1.372 . S
C1431 C7 1.440 . S
C1450 C648 1.426 . S
C1467 C160 1.410 . S
C1486 C564 1.359 . S
C1503 C139 1.404 . S
C1522 C638 1.360 . S
C1539 C151 1.367 . S
C1558 C480 1.306 . S
C1575 C157 1.432 . S
C1594 C481 1.331 . S
C1611 C142 1.435 . S
C1630 C565 1.327 . S
C1666 C657 1.379 . S
C1647 C148 1.438 . S
C1683 C13 1.409 . S
C1702 C573 1.351 . S
C1738 C649 1.263 . S
C1719 C25 1.374 . S
C1755 C4 1.396 . S
C1774 C489 1.381 . S
C1810 C722 1.298 . S
C1791 C70 1.406 . S
C1827 C76 1.466 . S
C1846 C806 1.362 . S
C1882 C900 1.424 . S
C1863 C61 1.440 . S
C1918 C816 1.376 . S
C1899 C52 1.410 . S
C1954 C890 1.360 . S
C1935 C31 1.403 . S
C1971 C43 1.367 . S
C1990 C732 1.356 . S
C2007 C49 1.435 . S
C2026 C733 1.380 . S
C2043 C34 1.437 . S
C2062 C817 1.389 . S
C2098 C909 1.378 . S
C2079 C40 1.438 . S
C2115 C67 1.410 . S
C2134 C825 1.369 . S
C2151 C79 1.375 . S
C2170 C901 1.275 . S
C2187 C58 1.394 . S
C2206 C741 1.370 . S
C2223 C140 1.452 . S
C2242 C225 1.294 . S
C2278 C309 1.315 . S
C2259 C149 1.492 . S
C2295 C158 1.487 . S
C2314 C402 1.394 . S
C2331 C59 1.514 . S
C2350 C318 1.330 . S
C2367 C68 1.464 . S
C2386 C393 1.362 . S
C2422 C234 1.317 . S
C2403 C77 1.451 . S
C2439 C32 1.452 . S
C2458 C477 1.329 . S
C2475 C41 1.492 . S
C2494 C561 1.375 . S
C2511 C50 1.487 . S
C2530 C654 1.339 . S
C2547 C113 1.514 . S
C2566 C570 1.330 . S
C2602 C645 1.291 . S
C2583 C122 1.464 . S
C2619 C131 1.452 . S
C2638 C486 1.304 . S
C2655 C86 1.452 . S
C2674 C729 1.305 . S
C2691 C95 1.492 . S
C2710 C813 1.340 . S
C2746 C906 1.349 . S
C2727 C104 1.487 . S
C2763 C5 1.514 . S
C2782 C822 1.332 . S
C2799 C14 1.464 . S
C2818 C897 1.358 . S
C2835 C23 1.452 . S
C2854 C738 1.321 . S
