# Generated by pormake.
# Topology anh, (6,3)-cn, num edge types: 1
# Building blocks:
#     Node 0, Type 0, BuildingBlock: INOVEN_clean_sbu_0, # of connection points: 6
#     Node 1, Type 0, BuildingBlock: INOVEN_clean_sbu_0, # of connection points: 6
#     Node 2, Type 0, BuildingBlock: INOVEN_clean_sbu_0, # of connection points: 6
#     Node 3, Type 1, BuildingBlock: KAKCAD_clean_linker_0, # of connection points: 3
#     Node 4, Type 1, BuildingBlock: KAKCAD_clean_linker_0, # of connection points: 3
#     Node 5, Type 1, BuildingBlock: KAKCAD_clean_linker_0, # of connection points: 3
#     Node 6, Type 1, BuildingBlock: KAKCAD_clean_linker_0, # of connection points: 3
#     Node 7, Type 1, BuildingBlock: KAKCAD_clean_linker_0, # of connection points: 3
#     Node 8, Type 1, BuildingBlock: KAKCAD_clean_linker_0, # of connection points: 3
#     Edge 9, Type (0, 1), BuildingBlock: CIFDUS_clean_linker_0, # of connection points: 2
#     Edge 10, Type (0, 1), BuildingBlock: CIFDUS_clean_linker_0, # of connection points: 2
#     Edge 11, Type (0, 1), BuildingBlock: CIFDUS_clean_linker_0, # of connection points: 2
#     Edge 12, Type (0, 1), BuildingBlock: CIFDUS_clean_linker_0, # of connection points: 2
#     Edge 13, Type (0, 1), BuildingBlock: CIFDUS_clean_linker_0, # of connection points: 2
#     Edge 14, Type (0, 1), BuildingBlock: CIFDUS_clean_linker_0, # of connection points: 2
#     Edge 15, Type (0, 1), BuildingBlock: CIFDUS_clean_linker_0, # of connection points: 2
#     Edge 16, Type (0, 1), BuildingBlock: CIFDUS_clean_linker_0, # of connection points: 2
#     Edge 17, Type (0, 1), BuildingBlock: CIFDUS_clean_linker_0, # of connection points: 2
#     Edge 18, Type (0, 1), BuildingBlock: CIFDUS_clean_linker_0, # of connection points: 2
#     Edge 19, Type (0, 1), BuildingBlock: CIFDUS_clean_linker_0, # of connection points: 2
#     Edge 20, Type (0, 1), BuildingBlock: CIFDUS_clean_linker_0, # of connection points: 2
#     Edge 21, Type (0, 1), BuildingBlock: CIFDUS_clean_linker_0, # of connection points: 2
#     Edge 22, Type (0, 1), BuildingBlock: CIFDUS_clean_linker_0, # of connection points: 2
#     Edge 23, Type (0, 1), BuildingBlock: CIFDUS_clean_linker_0, # of connection points: 2
#     Edge 24, Type (0, 1), BuildingBlock: CIFDUS_clean_linker_0, # of connection points: 2
#     Edge 25, Type (0, 1), BuildingBlock: CIFDUS_clean_linker_0, # of connection points: 2
#     Edge 26, Type (0, 1), BuildingBlock: CIFDUS_clean_linker_0, # of connection points: 2
# Relax obj value: 0.189
# Max RMSD: 0.218
# Mean RMSD: 0.160
data_MOF--net-anh--node1-INOVEN_clean_sbu_0--node2-KAKCAD_clean_linker_0--edge1-CIFDUS_clean_linker_0
_symmetry_space_group_name_H-M    P1
_symmetry_Int_Tables_number       1
_symmetry_cell_setting            triclinic
loop_
_symmetry_equiv_pos_as_xyz
'x, y, z'
_cell_length_a     34.376516
_cell_length_b     40.313731
_cell_length_c     59.835419
_cell_angle_alpha  93.025863
_cell_angle_beta   89.040991
_cell_angle_gamma 129.7099
loop_
_atom_site_label
_atom_site_type_symbol
_atom_site_fract_x
_atom_site_fract_y
_atom_site_fract_z
_atom_type_partial_charge
Gd0 Gd 0.10129 0.51154 0.15544 0.0
Gd1 Gd 1.04724 0.54451 0.15319 0.0
C2 C 0.1656 0.61665 0.15538 0.0
C3 C 0.16483 0.49841 0.15433 0.0
C4 C 0.2167 0.52627 0.16304 0.0
C5 C 0.2321 0.50904 0.17642 0.0
C6 C 0.25059 0.57035 0.1589 0.0
C7 C 0.31857 0.57612 0.1753 0.0
C8 C 0.30106 0.59558 0.16567 0.0
C9 C 0.28272 0.53389 0.18271 0.0
C10 C 0.06464 0.51263 0.19536 0.0
C11 C 0.98379 0.44099 0.15076 0.0
C12 C 0.99976 0.56911 0.16976 0.0
C13 C 0.96223 0.54826 0.18714 0.0
C14 C 0.92915 0.55691 0.19001 0.0
C15 C 0.95149 0.5121 0.1966 0.0
C16 C 0.86757 0.48611 0.2049 0.0
C17 C 0.90417 0.48098 0.20547 0.0
C18 C 0.88209 0.52615 0.19919 0.0
C19 C 0.06267 0.5334 0.10969 0.0
O20 O 0.1664 0.585 0.15944 0.0
O21 O 0.12294 0.60824 0.15055 0.0
O22 O 0.13091 0.48346 0.1697 0.0
O23 O 0.15597 0.51155 0.13708 0.0
O24 O 0.06131 0.48065 0.18708 0.0
O25 O 0.08608 0.54231 0.18164 0.0
O26 O 0.98462 0.47308 0.15777 0.0
O27 O 1.02582 0.44894 0.14441 0.0
O28 O 0.98532 0.54532 0.15105 0.0
O29 O 1.04583 0.58697 0.17616 0.0
O30 O 1.04197 0.54998 0.11624 0.0
O31 O 0.07687 0.52536 0.12646 0.0
H32 H 0.20569 0.47556 0.18072 0.0
H33 H 0.239 0.58468 0.14918 0.0
H34 H 0.32735 0.62856 0.16061 0.0
H35 H 0.29404 0.51773 0.19076 0.0
H36 H 0.93714 0.58478 0.18284 0.0
H37 H 0.97706 0.50526 0.19463 0.0
H38 H 0.89407 0.45064 0.20987 0.0
H39 H 0.85476 0.53122 0.19856 0.0
Gd40 Gd 0.59833 0.01376 0.47711 0.0
Gd41 Gd 0.52684 0.03092 0.4775 0.0
C42 C 0.47594 0.93325 0.47387 0.0
C43 C 0.64206 0.98167 0.48419 0.0
C44 C 0.62468 0.93856 0.48859 0.0
C45 C 0.65206 0.92597 0.48023 0.0
C46 C 0.58087 0.90963 0.50083 0.0
C47 C 0.59408 0.85702 0.49752 0.0
C48 C 0.56571 0.8692 0.50526 0.0
C49 C 0.63695 0.88558 0.48465 0.0
C50 C 0.58301 0.02981 0.43649 0.0
C51 C 0.64966 0.11235 0.47935 0.0
C52 C 0.48498 0.06493 0.47165 0.0
C53 C 0.50298 0.10928 0.47541 0.0
C54 C 0.52497 0.1325 0.49604 0.0
C55 C 0.4997 0.1293 0.45792 0.0
C56 C 0.53723 0.19411 0.48199 0.0
C57 C 0.5168 0.17139 0.46114 0.0
C58 C 0.54171 0.17441 0.49931 0.0
C59 C 0.54379 0.01485 0.51778 0.0
O60 O 0.52119 0.94766 0.48043 0.0
O61 O 0.4689 0.9603 0.46825 0.0
O62 O 0.63162 0.98586 0.46418 0.0
O63 O 0.63489 1.00091 0.49998 0.0
O64 O 0.62622 0.04289 0.44396 0.0
O65 O 0.5487 1.00684 0.45049 0.0
O66 O 0.60305 0.09772 0.47598 0.0
O67 O 0.65871 0.08567 0.48258 0.0
O68 O 0.47803 0.04429 0.48942 0.0
O69 O 0.50693 0.05943 0.45562 0.0
O70 O 0.49989 1.00086 0.51087 0.0
O71 O 0.57717 0.03867 0.50376 0.0
H72 H 0.68567 0.94772 0.47058 0.0
H73 H 0.55869 0.91843 0.50717 0.0
H74 H 0.53209 0.84766 0.51494 0.0
H75 H 0.65991 0.87738 0.47864 0.0
H76 H 0.52912 0.11831 0.50971 0.0
H77 H 0.48356 0.11221 0.44178 0.0
H78 H 0.51273 0.18568 0.44751 0.0
H79 H 0.55812 0.19143 0.51544 0.0
Gd80 Gd 0.64858 0.59308 0.83393 0.0
Gd81 Gd 0.58094 0.49916 0.83473 0.0
C82 C 0.52272 0.54016 0.83776 0.0
C83 C 0.69085 0.67005 0.82248 0.0
C84 C 0.67457 0.69602 0.82103 0.0
C85 C 0.6609 0.7081 0.84013 0.0
C86 C 0.67154 0.70811 0.8 0.0
C87 C 0.64242 0.74468 0.8171 0.0
C88 C 0.6554 0.73196 0.79803 0.0
C89 C 0.64501 0.73227 0.83817 0.0
C90 C 0.62737 0.56356 0.87485 0.0
C91 C 0.70735 0.55335 0.83711 0.0
C92 C 0.5374 0.42062 0.84374 0.0
C93 C 0.5482 0.39094 0.83911 0.0
C94 C 0.55817 0.38368 0.81732 0.0
C95 C 0.54873 0.36962 0.85673 0.0
C96 C 0.56675 0.33268 0.83075 0.0
C97 C 0.5581 0.34085 0.85262 0.0
C98 C 0.56712 0.35467 0.81318 0.0
C99 C 0.59884 0.52718 0.793 0.0
O100 O 0.56902 0.57717 0.83374 0.0
O101 O 0.51863 0.50535 0.84066 0.0
O102 O 0.69628 0.66167 0.8425 0.0
O103 O 0.66915 0.63689 0.80804 0.0
O104 O 0.67247 0.59723 0.86958 0.0
O105 O 0.59642 0.54855 0.85884 0.0
O106 O 0.66022 0.51582 0.83862 0.0
O107 O 0.71265 0.58855 0.83367 0.0
O108 O 0.52453 0.43074 0.82653 0.0
O109 O 0.56851 0.45359 0.85781 0.0
O110 O 0.55553 0.49329 0.79953 0.0
O111 O 0.63185 0.54369 0.80854 0.0
H112 H 0.66253 0.69903 0.85659 0.0
H113 H 0.68146 0.69889 0.78502 0.0
H114 H 0.65286 0.74028 0.78151 0.0
H115 H 0.63562 0.74187 0.85318 0.0
H116 H 0.5588 0.40018 0.80342 0.0
H117 H 0.54146 0.37497 0.87368 0.0
H118 H 0.55733 0.32417 0.86646 0.0
H119 H 0.57442 0.34948 0.79621 0.0
C120 C 0.58455 0.06229 0.29343 0.0
C121 C 0.57759 0.02785 0.30313 0.0
C122 C 0.58383 0.06372 0.27006 0.0
C123 C 0.5756 0.03047 0.25607 0.0
C124 C 0.56759 0.99572 0.26598 0.0
C125 C 0.56836 0.99436 0.28915 0.0
C126 C 0.57641 0.03164 0.23122 0.0
C127 C 0.6136 0.06958 0.22043 0.0
C128 C 0.61851 0.06915 0.19696 0.0
C129 C 0.58537 0.02923 0.18427 0.0
C130 C 0.54736 0.99095 0.19505 0.0
C131 C 0.54254 0.99322 0.21826 0.0
C132 C 0.51385 0.94698 0.18356 0.0
C133 C 0.47689 0.93502 0.16755 0.0
C134 C 0.51224 0.91437 0.1922 0.0
C135 C 0.47303 0.87081 0.18627 0.0
C136 C 0.43422 0.85813 0.17112 0.0
C137 C 0.66054 0.11057 0.18666 0.0
C138 C 0.6701 0.14917 0.19354 0.0
C139 C 0.6947 0.11307 0.17202 0.0
C140 C 0.73836 0.15333 0.16528 0.0
C141 C 0.74884 0.19215 0.17285 0.0
C142 C 0.71341 0.18922 0.18677 0.0
C143 C 0.43762 0.89109 0.16133 0.0
H144 H 0.59206 0.08867 0.30389 0.0
H145 H 0.58986 0.0908 0.26295 0.0
H146 H 0.562 0.96988 0.25582 0.0
H147 H 0.56255 0.96729 0.29616 0.0
H148 H 0.6406 0.09923 0.23045 0.0
H149 H 0.51282 0.96404 0.22646 0.0
H150 H 0.58957 0.02787 0.16634 0.0
H151 H 0.47674 0.95935 0.16081 0.0
H152 H 0.53989 0.92252 0.20476 0.0
H153 H 0.47199 0.8471 0.19462 0.0
H154 H 0.64456 0.14852 0.20475 0.0
H155 H 0.68881 0.0841 0.16653 0.0
H156 H 0.40924 0.88303 0.14927 0.0
H157 H 0.71998 0.21807 0.19321 0.0
H158 H 0.76421 0.15401 0.15431 0.0
C159 C 0.5651 0.55069 0.64869 0.0
C160 C 0.59819 0.54861 0.66076 0.0
C161 C 0.56737 0.55241 0.6254 0.0
C162 C 0.60268 0.55194 0.61357 0.0
C163 C 0.637 0.5514 0.62569 0.0
C164 C 0.63493 0.54995 0.64906 0.0
C165 C 0.60181 0.54976 0.58865 0.0
C166 C 0.59487 0.57479 0.57675 0.0
C167 C 0.59131 0.57108 0.55323 0.0
C168 C 0.59485 0.54201 0.54153 0.0
C169 C 0.60125 0.51635 0.55314 0.0
C170 C 0.60501 0.5207 0.57668 0.0
C171 C 0.60036 0.48269 0.54108 0.0
C172 C 0.56413 0.45548 0.52394 0.0
C173 C 0.63246 0.47476 0.54812 0.0
C174 C 0.62598 0.43865 0.53947 0.0
C175 C 0.58781 0.4102 0.52343 0.0
C176 C 0.58333 0.59741 0.54105 0.0
C177 C 0.54615 0.60007 0.54796 0.0
C178 C 0.61395 0.62126 0.52304 0.0
C179 C 0.60924 0.64906 0.51291 0.0
C180 C 0.5734 0.65316 0.52045 0.0
C181 C 0.54098 0.62738 0.53768 0.0
C182 C 0.55791 0.41944 0.51519 0.0
H183 H 0.53666 0.55011 0.65724 0.0
H184 H 0.54017 0.55251 0.61659 0.0
H185 H 0.66501 0.55147 0.61706 0.0
H186 H 0.66076 0.54817 0.65788 0.0
H187 H 0.59276 0.59761 0.58579 0.0
H188 H 0.60797 0.49986 0.58581 0.0
H189 H 0.59172 0.53886 0.52341 0.0
H190 H 0.53854 0.46047 0.51827 0.0
H191 H 0.6613 0.49554 0.56098 0.0
H192 H 0.64925 0.43181 0.54604 0.0
H193 H 0.52136 0.58131 0.56152 0.0
H194 H 0.64296 0.61979 0.51742 0.0
H195 H 0.52786 0.39744 0.50297 0.0
H196 H 0.51209 0.62883 0.54353 0.0
H197 H 0.63517 0.66866 0.49985 0.0
C198 C 0.15057 0.57443 0.96562 0.0
C199 C 0.10547 0.5437 0.97676 0.0
C200 C 0.15212 0.57309 0.94214 0.0
C201 C 0.10831 0.54155 0.9291 0.0
C202 C 0.0633 0.51043 0.94025 0.0
C203 C 0.06203 0.51121 0.96379 0.0
C204 C 0.10952 0.54203 0.90403 0.0
C205 C 0.14719 0.5445 0.8924 0.0
C206 C 0.15122 0.54599 0.86892 0.0
C207 C 0.11375 0.54558 0.85692 0.0
C208 C 0.07412 0.54336 0.86869 0.0
C209 C 0.07386 0.5412 0.89215 0.0
C210 C 1.02994 0.54096 0.85882 0.0
C211 C 1.0358 0.57729 0.8519 0.0
C212 C 0.97882 0.50417 0.86211 0.0
C213 C 0.93689 0.50317 0.8587 0.0
C214 C 0.94191 0.53906 0.85169 0.0
C215 C 0.19739 0.55018 0.85952 0.0
C216 C 0.24738 0.58557 0.86711 0.0
C217 C 0.19326 0.51579 0.8484 0.0
C218 C 0.23625 0.51725 0.84503 0.0
C219 C 0.28647 0.55306 0.85272 0.0
C220 C 0.28986 0.58705 0.86384 0.0
C221 C 0.99337 0.5763 0.84832 0.0
H222 H 0.18461 0.59996 0.97512 0.0
H223 H 0.18733 0.59763 0.93414 0.0
H224 H 1.02896 0.48556 0.93072 0.0
H225 H 1.02662 0.48736 0.97186 0.0
H226 H 0.17399 0.54491 0.90201 0.0
H227 H 1.04557 0.53967 0.90158 0.0
H228 H 0.11543 0.54702 0.8389 0.0
H229 H 0.07367 0.6074 0.85 0.0
H230 H 0.97101 0.47578 0.8684 0.0
H231 H 0.90007 0.47368 0.86256 0.0
H232 H 0.25362 0.61226 0.87665 0.0
H233 H 0.15616 0.48668 0.84294 0.0
H234 H 1.00137 0.60538 0.84312 0.0
H235 H 0.32568 0.61514 0.87101 0.0
H236 H 0.2297 0.48972 0.83644 0.0
C237 C 1.01629 0.50322 0.34021 0.0
C238 C 0.05938 0.51456 0.32919 0.0
C239 C 1.01506 0.5043 0.36366 0.0
C240 C 0.05728 0.51757 0.37641 0.0
C241 C 0.10074 0.52986 0.36531 0.0
C242 C 0.10157 0.52793 0.34193 0.0
C243 C 0.05632 0.51858 0.40125 0.0
C244 C 1.0172 0.4822 0.41247 0.0
C245 C 1.017 0.48233 0.43605 0.0
C246 C 0.0569 0.52038 0.44843 0.0
C247 C 0.09646 0.55723 0.43722 0.0
C248 C 0.09564 0.55569 0.41372 0.0
C249 C 0.13922 0.59836 0.44917 0.0
C250 C 0.13072 0.62186 0.46345 0.0
C251 C 0.18908 0.61797 0.44304 0.0
C252 C 0.22908 0.66098 0.44968 0.0
C253 C 0.22043 0.68573 0.46269 0.0
C254 C 0.97562 0.44171 0.44704 0.0
C255 C 0.9256 0.41629 0.43868 0.0
C256 C 0.98611 0.42553 0.4641 0.0
C257 C 0.94806 0.38402 0.47168 0.0
C258 C 0.89854 0.35774 0.46245 0.0
C259 C 0.88779 0.375 0.44617 0.0
C260 C 0.17091 0.66515 0.47011 0.0
H261 H 0.98314 0.49237 0.33067 0.0
H262 H 0.98121 0.49489 0.37184 0.0
H263 H 0.13369 0.53999 0.37475 0.0
H264 H 0.13506 0.53652 0.33376 0.0
H265 H 0.98774 0.45309 0.40267 0.0
H266 H 0.12556 0.584 0.40501 0.0
H267 H 0.05736 0.52128 0.46656 0.0
H268 H 0.09263 0.60768 0.4683 0.0
H269 H 0.19671 0.60063 0.43198 0.0
H270 H 0.26632 0.67546 0.44341 0.0
H271 H 0.91591 0.42786 0.42574 0.0
H272 H 1.0242 0.44413 0.47089 0.0
H273 H 0.16288 0.6829 0.48047 0.0
H274 H 0.85051 0.35594 0.43841 0.0
H275 H 0.9577 0.37224 0.48451 0.0
C276 C 0.54612 0.98722 0.65944 0.0
C277 C 0.58429 0.02657 0.64974 0.0
C278 C 0.54506 0.98398 0.68268 0.0
C279 C 0.58173 0.02013 0.69665 0.0
C280 C 0.62085 0.05884 0.68697 0.0
C281 C 0.62239 0.06193 0.66381 0.0
C282 C 0.57802 0.01867 0.72132 0.0
C283 C 0.57366 0.98684 0.73256 0.0
C284 C 0.57281 0.98718 0.75612 0.0
C285 C 0.57469 0.019 0.76831 0.0
C286 C 0.57865 0.05078 0.75718 0.0
C287 C 0.5804 0.05039 0.73373 0.0
C288 C 0.58051 0.08445 0.76968 0.0
C289 C 0.5442 0.07315 0.7858 0.0
C290 C 0.61583 0.12772 0.76398 0.0
C291 C 0.61295 0.15859 0.77316 0.0
C292 C 0.5748 0.14668 0.78817 0.0
C293 C 0.57468 0.95674 0.76783 0.0
C294 C 0.54494 0.9132 0.7601 0.0
C295 C 0.61027 0.97217 0.7853 0.0
C296 C 0.61851 0.94543 0.79373 0.0
C297 C 0.59083 0.90282 0.78502 0.0
C298 C 0.55296 0.88639 0.76867 0.0
C299 C 0.54114 0.1041 0.79489 0.0
H300 H 0.5159 0.95937 0.64922 0.0
H301 H 0.51444 0.95378 0.68981 0.0
H302 H 0.65006 0.08698 0.69739 0.0
H303 H 0.6532 0.09236 0.65698 0.0
H304 H 0.5735 0.96315 0.723 0.0
H305 H 0.58277 0.07453 0.72502 0.0
H306 H 0.574 0.01951 0.78644 0.0
H307 H 0.51645 0.03999 0.79041 0.0
H308 H 0.64456 0.13733 0.75179 0.0
H309 H 0.63903 0.19134 0.76775 0.0
H310 H 0.51694 0.9004 0.74681 0.0
H311 H 0.63404 1.00565 0.79145 0.0
H312 H 0.51125 0.09445 0.80637 0.0
H313 H 0.53167 0.85362 0.76164 0.0
H314 H 0.6483 0.95863 0.80618 0.0
C315 C 0.55917 0.42385 0.99888 0.0
C316 C 0.56572 0.45988 0.99197 0.0
C317 C 0.54593 0.41141 0.02091 0.0
C318 C 0.53913 0.43492 0.03618 0.0
C319 C 0.54644 0.47124 0.02922 0.0
C320 C 0.5594 0.48348 0.00736 0.0
C321 C 0.52678 0.42356 0.0597 0.0
C322 C 0.55524 0.41716 0.07243 0.0
C323 C 0.55089 0.41608 0.09573 0.0
C324 C 0.51767 0.42043 0.10622 0.0
C325 C 0.49007 0.42758 0.09373 0.0
C326 C 0.49284 0.42707 0.07042 0.0
C327 C 0.47078 0.4473 0.10528 0.0
C328 C 0.44102 0.4294 0.12429 0.0
C329 C 0.48998 0.48843 0.09945 0.0
C330 C 0.48098 0.51199 0.11276 0.0
C331 C 0.4515 0.49453 0.13193 0.0
C332 C 0.58654 0.4181 0.10994 0.0
C333 C 0.58223 0.3815 0.11208 0.0
C334 C 0.61971 0.45501 0.12409 0.0
C335 C 0.64609 0.45449 0.14117 0.0
C336 C 0.63941 0.41689 0.14443 0.0
C337 C 0.6086 0.38087 0.12931 0.0
C338 C 0.43094 0.45268 0.13741 0.0
H339 H 0.56393 0.40524 0.98722 0.0
H340 H 0.54077 0.38346 0.02599 0.0
H341 H 0.5432 0.4909 0.04081 0.0
H342 H 0.56553 0.51205 0.00262 0.0
H343 H 0.58362 0.41678 0.06458 0.0
H344 H 0.47198 0.4335 0.06083 0.0
H345 H 0.51731 0.42264 0.12438 0.0
H346 H 0.42661 0.39792 0.12921 0.0
H347 H 0.51447 0.50351 0.08526 0.0
H348 H 0.49849 0.54446 0.10829 0.0
H349 H 0.55649 0.35279 0.10126 0.0
H350 H 0.62348 0.48362 0.12251 0.0
H351 H 0.4073 0.43796 0.15184 0.0
H352 H 0.60332 0.35169 0.13132 0.0
H353 H 0.67109 0.48331 0.15203 0.0
H354 H 0.3803 0.56939 0.19931 0.0
H355 H 0.37125 0.61497 0.13741 0.0
H356 H 0.41726 0.59579 0.11859 0.0
H357 H 0.4366 0.54776 0.11699 0.0
H358 H 0.44333 0.49789 0.17767 0.0
H359 H 0.41755 0.53391 0.19924 0.0
C360 C 0.39007 0.57652 0.1819 0.0
C361 C 0.36933 0.59086 0.16957 0.0
C362 C 0.41307 0.56205 0.17055 0.0
C363 C 0.38499 0.60261 0.14741 0.0
C364 C 0.41043 0.59064 0.13632 0.0
C365 C 0.43451 0.54598 0.13504 0.0
C366 C 0.4413 0.51972 0.14562 0.0
C367 C 0.42076 0.56723 0.14731 0.0
C368 C 0.43692 0.51697 0.169 0.0
C369 C 0.42297 0.53808 0.1814 0.0
H370 H 0.75281 0.15753 0.48089 0.0
H371 H 0.64141 0.17458 0.47544 0.0
H372 H 0.70786 0.25126 0.47105 0.0
H373 H 0.79716 0.3136 0.46738 0.0
H374 H 0.90973 0.29789 0.47149 0.0
H375 H 0.84377 0.22154 0.47844 0.0
C376 C 0.74311 0.17808 0.47895 0.0
C377 C 0.69182 0.15981 0.47843 0.0
C378 C 0.78189 0.22276 0.47628 0.0
C379 C 0.68026 0.18724 0.47584 0.0
C380 C 0.71837 0.23137 0.47332 0.0
C381 C 0.80748 0.29359 0.46968 0.0
C382 C 0.85868 0.31188 0.46871 0.0
C383 C 0.76925 0.24943 0.47324 0.0
C384 C 0.87093 0.28519 0.47233 0.0
C385 C 0.83305 0.24125 0.47611 0.0
H386 H 0.6855 0.81265 0.79116 0.0
H387 H 0.56602 0.7375 0.83828 0.0
H388 H 0.54014 0.7809 0.83327 0.0
H389 H 0.54954 0.83868 0.81399 0.0
H390 H 0.66868 0.91223 0.76669 0.0
H391 H 0.69607 0.87037 0.77282 0.0
C392 C 0.65348 0.80545 0.80019 0.0
C393 C 0.62741 0.77163 0.81486 0.0
C394 C 0.6386 0.8301 0.79706 0.0
C395 C 0.58687 0.76351 0.82693 0.0
C396 C 0.57185 0.78812 0.82397 0.0
C397 C 0.58159 0.84542 0.80522 0.0
C398 C 0.60736 0.87821 0.78999 0.0
C399 C 0.59715 0.82125 0.8089 0.0
C400 C 0.64876 0.88709 0.77857 0.0
C401 C 0.66429 0.8632 0.78204 0.0
H402 H 0.78676 0.4734 0.22336 0.0
H403 H 0.82812 0.4141 0.17821 0.0
H404 H 0.75067 0.37843 0.15645 0.0
H405 H 0.68761 0.38388 0.144 0.0
H406 H 0.65009 0.44844 0.18734 0.0
H407 H 0.71011 0.46319 0.21572 0.0
C408 C 0.77729 0.4508 0.20945 0.0
C409 C 0.81374 0.4478 0.20186 0.0
C410 C 0.73461 0.43316 0.19598 0.0
C411 C 0.80098 0.41762 0.18422 0.0
C412 C 0.75709 0.3979 0.1714 0.0
C413 C 0.6911 0.39966 0.15999 0.0
C414 C 0.66585 0.41628 0.16334 0.0
C415 C 0.72613 0.40857 0.17607 0.0
C416 C 0.67062 0.43667 0.18414 0.0
C417 C 0.70456 0.44481 0.20044 0.0
H418 H 0.37449 0.89088 0.46884 0.0
H419 H 0.48055 0.86865 0.47732 0.0
H420 H 0.41136 0.79102 0.47601 0.0
H421 H 0.32085 0.72893 0.47169 0.0
H422 H 0.21434 0.75038 0.46238 0.0
H423 H 0.28314 0.82832 0.4654 0.0
C424 C 0.38248 0.86907 0.47038 0.0
C425 C 0.43292 0.88588 0.47309 0.0
C426 C 0.34224 0.82407 0.46968 0.0
C427 C 0.4423 0.85693 0.47526 0.0
C428 C 0.40265 0.81234 0.4745 0.0
C429 C 0.31254 0.75055 0.47026 0.0
C430 C 0.26214 0.73338 0.46675 0.0
C431 C 0.35248 0.7955 0.47161 0.0
C432 C 0.25242 0.76229 0.46539 0.0
C433 C 0.29193 0.80704 0.46688 0.0
H434 H 0.52218 0.26986 0.79756 0.0
H435 H 0.62648 0.32269 0.85378 0.0
H436 H 0.63735 0.26881 0.84609 0.0
H437 H 0.6181 0.20712 0.82271 0.0
H438 H 0.51344 0.15473 0.7668 0.0
H439 H 0.5019 0.20811 0.77484 0.0
C440 C 0.5476 0.26978 0.80801 0.0
C441 C 0.5737 0.30029 0.82612 0.0
C442 C 0.55344 0.23873 0.80355 0.0
C443 C 0.60577 0.29933 0.8398 0.0
C444 C 0.61211 0.26865 0.83538 0.0
C445 C 0.59256 0.20745 0.81251 0.0
C446 C 0.56631 0.17731 0.79434 0.0
C447 C 0.58618 0.23821 0.81727 0.0
C448 C 0.53353 0.17772 0.78098 0.0
C449 C 0.52713 0.20821 0.78552 0.0
H450 H 0.59441 0.79923 0.47171 0.0
H451 H 0.56636 0.82373 0.53869 0.0
H452 H 0.55424 0.7612 0.55118 0.0
H453 H 0.55909 0.70389 0.54401 0.0
H454 H 0.58652 0.67812 0.47718 0.0
H455 H 0.59274 0.73763 0.46386 0.0
C456 C 0.58547 0.79075 0.48902 0.0
C457 C 0.58153 0.81627 0.50425 0.0
C458 C 0.57919 0.75498 0.4962 0.0
C459 C 0.56912 0.80446 0.52654 0.0
C460 C 0.5626 0.7689 0.53376 0.0
C461 C 0.56523 0.71047 0.5264 0.0
C462 C 0.57248 0.68652 0.51167 0.0
C463 C 0.56845 0.74444 0.51884 0.0
C464 C 0.58156 0.69639 0.489 0.0
C465 C 0.58487 0.73029 0.48133 0.0
H466 H 0.71871 0.48855 0.83916 0.0
H467 H 0.80885 0.62678 0.841 0.0
H468 H 0.88572 0.6356 0.84543 0.0
H469 H 0.93082 0.6049 0.84923 0.0
H470 H 0.83927 0.46609 0.84519 0.0
H471 H 0.76375 0.45812 0.8416 0.0
C472 C 0.75494 0.52085 0.84049 0.0
C473 C 0.75567 0.55687 0.83963 0.0
C474 C 0.80081 0.5261 0.84291 0.0
C475 C 0.80481 0.5979 0.84143 0.0
C476 C 0.84976 0.60312 0.84405 0.0
C477 C 0.89471 0.5726 0.84751 0.0
C478 C 0.89388 0.53632 0.84824 0.0
C479 C 0.8489 0.56757 0.84484 0.0
C480 C 0.84441 0.49548 0.8457 0.0
C481 C 0.79976 0.49055 0.84331 0.0
H482 H 0.26561 0.65279 0.16279 0.0
H483 H 0.17104 0.68659 0.15213 0.0
H484 H 0.24427 0.76266 0.15544 0.0
H485 H 0.33494 0.82052 0.16242 0.0
H486 H 0.43159 0.78804 0.17031 0.0
H487 H 0.35826 0.7115 0.16728 0.0
C488 C 0.26099 0.67666 0.16099 0.0
C489 C 0.2123 0.66323 0.15712 0.0
C490 C 0.3039 0.72115 0.1626 0.0
C491 C 0.20762 0.69528 0.15505 0.0
C492 C 0.2497 0.73917 0.15695 0.0
C493 C 0.3405 0.79698 0.16302 0.0
C494 C 0.38944 0.81091 0.16685 0.0
C495 C 0.29807 0.7526 0.16076 0.0
C496 C 0.39473 0.77903 0.16793 0.0
C497 C 0.35261 0.73489 0.16603 0.0
H498 H 0.5148 0.22202 0.51798 0.0
H499 H 0.59096 0.2628 0.45498 0.0
H500 H 0.61266 0.33346 0.46178 0.0
H501 H 0.61023 0.38399 0.48611 0.0
H502 H 0.53513 0.34235 0.54924 0.0
H503 H 0.51272 0.27164 0.54203 0.0
C504 C 0.53663 0.24653 0.50584 0.0
C505 C 0.55147 0.23731 0.48608 0.0
C506 C 0.54893 0.28684 0.50988 0.0
C507 C 0.57883 0.26908 0.47028 0.0
C508 C 0.59136 0.30948 0.47418 0.0
C509 C 0.58889 0.3592 0.49814 0.0
C510 C 0.5742 0.36784 0.51815 0.0
C511 C 0.57655 0.31873 0.49394 0.0
C512 C 0.54672 0.33597 0.53377 0.0
C513 C 0.534 0.29572 0.52966 0.0
H514 H 0.51107 0.6051 0.84327 0.0
H515 H 0.42156 0.46692 0.83707 0.0
H516 H 0.3442 0.45775 0.84034 0.0
H517 H 0.29839 0.48795 0.84557 0.0
H518 H 0.38902 0.62652 0.8519 0.0
H519 H 0.46538 0.63515 0.84849 0.0
C520 C 0.47485 0.57276 0.84256 0.0
C521 C 0.47441 0.53682 0.83976 0.0
C522 C 0.42871 0.56727 0.84478 0.0
C523 C 0.42534 0.49571 0.83918 0.0
C524 C 0.38011 0.49029 0.84107 0.0
C525 C 0.33451 0.52032 0.84615 0.0
C526 C 0.33497 0.55633 0.8495 0.0
C527 C 0.38066 0.52568 0.84396 0.0
C528 C 0.38438 0.59735 0.85006 0.0
C529 C 0.4294 0.60264 0.84783 0.0
H530 H 0.97068 0.36652 0.15468 0.0
H531 H 0.88829 0.41365 0.15124 0.0
H532 H 0.8091 0.34147 0.15692 0.0
H533 H 0.7628 0.26519 0.16377 0.0
H534 H 0.84456 0.21779 0.16927 0.0
H535 H 0.92359 0.28911 0.16159 0.0
C536 C 0.9353 0.36084 0.15485 0.0
C537 C 0.93565 0.39568 0.15233 0.0
C538 C 0.88949 0.31899 0.15855 0.0
C539 C 0.88938 0.38766 0.15307 0.0
C540 C 0.84392 0.34627 0.15635 0.0
C541 C 0.79783 0.27031 0.16341 0.0
C542 C 0.79711 0.2356 0.16708 0.0
C543 C 0.84348 0.31174 0.15933 0.0
C544 C 0.84328 0.2433 0.16616 0.0
C545 C 0.88879 0.28436 0.16192 0.0
H546 H 0.09707 0.59197 0.07837 0.0
H547 H 1.05068 0.46602 0.08737 0.0
H548 H 0.05857 0.45704 0.04698 0.0
H549 H 0.07571 0.48453 0.00849 0.0
H550 H 0.12977 0.61356 0.00094 0.0
H551 H 0.12244 0.62207 0.04113 0.0
C552 C 0.08911 0.5627 0.07149 0.0
C553 C 0.07289 0.52955 0.0858 0.0
C554 C 0.09505 0.55835 0.0484 0.0
C555 C 0.06335 0.49204 0.07672 0.0
C556 C 0.06763 0.48686 0.05359 0.0
C557 C 0.08599 0.51449 0.01573 0.0
C558 C 0.10284 0.54828 0.00163 0.0
C559 C 0.08289 0.51963 0.03916 0.0
C560 C 0.11669 0.58711 0.01133 0.0
C561 C 0.11238 0.59196 0.03435 0.0
H562 H 0.62567 0.01828 0.40255 0.0
H563 H 0.51931 0.03915 0.41659 0.0
H564 H 0.50985 0.04287 0.37644 0.0
H565 H 0.53268 0.0402 0.33706 0.0
H566 H 0.63533 0.01454 0.32398 0.0
H567 H 0.64493 0.01206 0.36394 0.0
C568 C 0.60033 0.02357 0.3968 0.0
C569 C 0.57363 0.02893 0.41243 0.0
C570 C 0.59434 0.02461 0.37382 0.0
C571 C 0.54029 0.03502 0.40483 0.0
C572 C 0.53502 0.03724 0.38188 0.0
C573 C 0.55733 0.03436 0.34306 0.0
C574 C 0.5834 0.0277 0.32762 0.0
C575 C 0.56208 0.03225 0.36619 0.0
C576 C 0.61471 0.01956 0.33554 0.0
C577 C 0.62032 0.01823 0.35838 0.0
H578 H 0.52982 0.49152 0.75948 0.0
H579 H 0.68991 0.58871 0.77331 0.0
H580 H 0.70436 0.60441 0.73349 0.0
H581 H 0.67075 0.58903 0.69443 0.0
H582 H 0.51 0.49138 0.68182 0.0
H583 H 0.49658 0.47737 0.72144 0.0
C584 C 0.56796 0.51621 0.75383 0.0
C585 C 0.60877 0.53872 0.76928 0.0
C586 C 0.5758 0.52493 0.73108 0.0
C587 C 0.65787 0.57084 0.76171 0.0
C588 C 0.6661 0.57974 0.73894 0.0
C589 C 0.63287 0.5647 0.70042 0.0
C590 C 0.59137 0.5415 0.68516 0.0
C591 C 0.6253 0.55675 0.72342 0.0
C592 C 0.54247 0.5102 0.69319 0.0
C593 C 0.53476 0.50197 0.71585 0.0
H594 H 0.58481 0.07664 0.55106 0.0
H595 H 0.52355 0.94551 0.53613 0.0
H596 H 0.53299 0.93772 0.57566 0.0
H597 H 0.55541 0.96765 0.61471 0.0
H598 H 0.60954 0.09717 0.62962 0.0
H599 H 0.60681 0.10635 0.59002 0.0
C600 C 0.57427 0.04666 0.55654 0.0
C601 C 0.55418 0.01183 0.54095 0.0
C602 C 0.57835 0.04211 0.57931 0.0
C603 C 0.53957 0.97276 0.54803 0.0
C604 C 0.54476 0.96831 0.57057 0.0
C605 C 0.56636 0.99781 0.60934 0.0
C606 C 0.58313 0.03174 0.62529 0.0
C607 C 0.56342 1.0026 0.58645 0.0
C608 C 0.59763 0.07074 0.61784 0.0
C609 C 0.59568 0.07599 0.59513 0.0
H610 H 0.66817 0.53913 0.90021 0.0
H611 H 0.54997 0.5481 0.89769 0.0
H612 H 0.51815 0.51402 0.93349 0.0
H613 H 0.52422 0.4819 0.96522 0.0
H614 H 0.6403 0.47019 0.96761 0.0
H615 H 0.6716 0.50338 0.93151 0.0
C616 C 0.63596 0.53403 0.90781 0.0
C617 C 0.61191 0.54672 0.89699 0.0
C618 C 0.61692 0.5131 0.9279 0.0
C619 C 0.5692 0.53895 0.90622 0.0
C620 C 0.55088 0.51928 0.92648 0.0
C621 C 0.55637 0.48663 0.95779 0.0
C622 C 0.58043 0.47426 0.96902 0.0
C623 C 0.5744 0.50616 0.9374 0.0
C624 C 0.62121 0.47947 0.95911 0.0
C625 C 0.63941 0.49883 0.93866 0.0
H626 H 0.06354 0.46785 0.22761 0.0
H627 H 0.06062 0.57156 0.2183 0.0
H628 H 0.05582 0.58001 0.25899 0.0
H629 H 0.0541 0.55824 0.29753 0.0
H630 H 0.06485 0.45876 0.30583 0.0
H631 H 0.06529 0.4484 0.26524 0.0
C632 C 0.06168 0.49228 0.2344 0.0
C633 C 0.06182 0.51873 0.21988 0.0
C634 C 0.06061 0.49777 0.2577 0.0
C635 C 0.06025 0.55063 0.22908 0.0
C636 C 0.05756 0.55546 0.25235 0.0
C637 C 0.05635 0.53427 0.29031 0.0
C638 C 0.05914 0.50904 0.30451 0.0
C639 C 0.0579 0.52928 0.26686 0.0
C640 C 0.06265 0.47842 0.29514 0.0
C641 C 0.06286 0.4725 0.27197 0.0
loop_
_geom_bond_atom_site_label_1
_geom_bond_atom_site_label_2
_geom_bond_distance
_geom_bond_site_symmetry_2
_ccdc_geom_bond_type
Gd0 C3 2.818 . S
Gd0 O20 2.377 . S
Gd0 O22 2.448 . S
Gd0 O23 2.506 . S
Gd0 O24 2.435 . S
Gd0 O25 2.717 . S
Gd0 O27 2.395 1_455 S
Gd0 O31 2.327 . S
Gd1 C12 2.818 1_455 S
Gd1 O21 2.395 . S
Gd1 O25 2.327 . S
Gd1 O26 2.377 1_455 S
Gd1 O28 2.448 1_455 S
Gd1 O29 2.506 1_455 S
Gd1 O30 2.435 . S
Gd1 O31 2.717 . S
C2 O20 1.240 . S
C2 O21 1.240 . S
C3 Gd0 2.818 . S
C3 C4 1.510 . S
C3 O22 1.249 . S
C3 O23 1.252 . S
C4 C3 1.510 . S
C4 C5 1.404 . S
C4 C6 1.352 . S
C5 C4 1.404 . S
C5 C9 1.389 . S
C5 H32 0.930 . S
C6 C4 1.352 . S
C6 C8 1.374 . S
C6 H33 0.931 . S
C7 C8 1.359 . S
C7 C9 1.364 . S
C8 C6 1.374 . S
C8 C7 1.359 . S
C8 H34 0.931 . S
C9 C5 1.389 . S
C9 C7 1.364 . S
C9 H35 0.931 . S
C10 O24 1.256 . S
C10 O25 1.257 . S
C11 O26 1.240 . S
C11 O27 1.240 . S
C12 Gd1 2.818 1_655 S
C12 C13 1.510 . S
C12 O28 1.249 . S
C12 O29 1.252 . S
C13 C12 1.510 . S
C13 C14 1.404 . S
C13 C15 1.352 . S
C14 C13 1.404 . S
C14 C18 1.389 . S
C14 H36 0.930 . S
C15 C13 1.352 . S
C15 C17 1.374 . S
C15 H37 0.931 . S
C16 C17 1.359 . S
C16 C18 1.364 . S
C17 C15 1.374 . S
C17 C16 1.359 . S
C17 H38 0.931 . S
C18 C14 1.389 . S
C18 C16 1.364 . S
C18 H39 0.931 . S
C19 O30 1.256 . S
C19 O31 1.257 . S
O20 Gd0 2.377 . S
O20 C2 1.240 . S
O21 Gd1 2.395 . S
O21 C2 1.240 . S
O22 Gd0 2.448 . S
O22 C3 1.249 . S
O23 Gd0 2.506 . S
O23 C3 1.252 . S
O24 Gd0 2.435 . S
O24 C10 1.256 . S
O25 Gd0 2.717 . S
O25 Gd1 2.327 . S
O25 C10 1.257 . S
O26 Gd1 2.377 1_655 S
O26 C11 1.240 . S
O27 Gd0 2.395 1_655 S
O27 C11 1.240 . S
O28 Gd1 2.448 1_655 S
O28 C12 1.249 . S
O29 Gd1 2.506 1_655 S
O29 C12 1.252 . S
O30 Gd1 2.435 . S
O30 C19 1.256 . S
O31 Gd0 2.327 . S
O31 Gd1 2.717 . S
O31 C19 1.257 . S
H32 C5 0.930 . S
H33 C6 0.931 . S
H34 C8 0.931 . S
H35 C9 0.931 . S
H36 C14 0.930 . S
H37 C15 0.931 . S
H38 C17 0.931 . S
H39 C18 0.931 . S
Gd40 C43 2.818 . S
Gd40 O60 2.377 . S
Gd40 O62 2.448 . S
Gd40 O63 2.506 . S
Gd40 O64 2.435 . S
Gd40 O65 2.717 1_565 S
Gd40 O67 2.395 1_565 S
Gd40 O71 2.327 1_565 S
Gd41 C52 2.818 . S
Gd41 O61 2.395 1_545 S
Gd41 O65 2.327 . S
Gd41 O66 2.377 . S
Gd41 O68 2.448 . S
Gd41 O69 2.506 . S
Gd41 O70 2.435 . S
Gd41 O71 2.717 . S
C42 O60 1.240 . S
C42 O61 1.240 . S
C43 Gd40 2.818 . S
C43 C44 1.510 . S
C43 O62 1.249 . S
C43 O63 1.252 . S
C44 C43 1.510 . S
C44 C45 1.404 . S
C44 C46 1.352 . S
C45 C44 1.404 . S
C45 C49 1.389 . S
C45 H72 0.930 . S
C46 C44 1.352 . S
C46 C48 1.374 . S
C46 H73 0.931 . S
C47 C48 1.359 . S
C47 C49 1.364 . S
C48 C46 1.374 . S
C48 C47 1.359 . S
C48 H74 0.931 . S
C49 C45 1.389 . S
C49 C47 1.364 . S
C49 H75 0.931 . S
C50 O64 1.256 1_545 S
C50 O65 1.257 . S
C51 O66 1.240 . S
C51 O67 1.240 . S
C52 Gd41 2.818 . S
C52 C53 1.510 . S
C52 O68 1.249 . S
C52 O69 1.252 . S
C53 C52 1.510 . S
C53 C54 1.404 . S
C53 C55 1.352 . S
C54 C53 1.404 . S
C54 C58 1.389 . S
C54 H76 0.930 . S
C55 C53 1.352 . S
C55 C57 1.374 . S
C55 H77 0.931 . S
C56 C57 1.359 . S
C56 C58 1.364 . S
C57 C55 1.374 . S
C57 C56 1.359 . S
C57 H78 0.931 . S
C58 C54 1.389 . S
C58 C56 1.364 . S
C58 H79 0.931 . S
C59 O70 1.256 . S
C59 O71 1.257 . S
O60 Gd40 2.377 . S
O60 C42 1.240 . S
O61 Gd41 2.395 1_565 S
O61 C42 1.240 . S
O62 Gd40 2.448 . S
O62 C43 1.249 . S
O63 Gd40 2.506 . S
O63 C43 1.252 . S
O64 Gd40 2.435 . S
O64 C50 1.256 1_565 S
O65 Gd40 2.717 1_545 S
O65 Gd41 2.327 . S
O65 C50 1.257 . S
O66 Gd41 2.377 . S
O66 C51 1.240 . S
O67 Gd40 2.395 1_545 S
O67 C51 1.240 . S
O68 Gd41 2.448 . S
O68 C52 1.249 . S
O69 Gd41 2.506 . S
O69 C52 1.252 . S
O70 Gd41 2.435 . S
O70 C59 1.256 . S
O71 Gd40 2.327 1_545 S
O71 Gd41 2.717 . S
O71 C59 1.257 . S
H72 C45 0.930 . S
H73 C46 0.931 . S
H74 C48 0.931 . S
H75 C49 0.931 . S
H76 C54 0.930 . S
H77 C55 0.931 . S
H78 C57 0.931 . S
H79 C58 0.931 . S
Gd80 C83 2.818 . S
Gd80 O100 2.377 . S
Gd80 O102 2.448 . S
Gd80 O103 2.506 . S
Gd80 O104 2.435 . S
Gd80 O105 2.717 . S
Gd80 O107 2.395 . S
Gd80 O111 2.327 . S
Gd81 C92 2.818 . S
Gd81 O101 2.395 . S
Gd81 O105 2.327 . S
Gd81 O106 2.377 . S
Gd81 O108 2.448 . S
Gd81 O109 2.506 . S
Gd81 O110 2.435 . S
Gd81 O111 2.717 . S
C82 O100 1.240 . S
C82 O101 1.240 . S
C83 Gd80 2.818 . S
C83 C84 1.510 . S
C83 O102 1.249 . S
C83 O103 1.252 . S
C84 C83 1.510 . S
C84 C85 1.404 . S
C84 C86 1.352 . S
C85 C84 1.404 . S
C85 C89 1.389 . S
C85 H112 0.930 . S
C86 C84 1.352 . S
C86 C88 1.374 . S
C86 H113 0.931 . S
C87 C88 1.359 . S
C87 C89 1.364 . S
C88 C86 1.374 . S
C88 C87 1.359 . S
C88 H114 0.931 . S
C89 C85 1.389 . S
C89 C87 1.364 . S
C89 H115 0.931 . S
C90 O104 1.256 . S
C90 O105 1.257 . S
C91 O106 1.240 . S
C91 O107 1.240 . S
C92 Gd81 2.818 . S
C92 C93 1.510 . S
C92 O108 1.249 . S
C92 O109 1.252 . S
C93 C92 1.510 . S
C93 C94 1.404 . S
C93 C95 1.352 . S
C94 C93 1.404 . S
C94 C98 1.389 . S
C94 H116 0.930 . S
C95 C93 1.352 . S
C95 C97 1.374 . S
C95 H117 0.931 . S
C96 C97 1.359 . S
C96 C98 1.364 . S
C97 C95 1.374 . S
C97 C96 1.359 . S
C97 H118 0.931 . S
C98 C94 1.389 . S
C98 C96 1.364 . S
C98 H119 0.931 . S
C99 O110 1.256 . S
C99 O111 1.257 . S
O100 Gd80 2.377 . S
O100 C82 1.240 . S
O101 Gd81 2.395 . S
O101 C82 1.240 . S
O102 Gd80 2.448 . S
O102 C83 1.249 . S
O103 Gd80 2.506 . S
O103 C83 1.252 . S
O104 Gd80 2.435 . S
O104 C90 1.256 . S
O105 Gd80 2.717 . S
O105 Gd81 2.327 . S
O105 C90 1.257 . S
O106 Gd81 2.377 . S
O106 C91 1.240 . S
O107 Gd80 2.395 . S
O107 C91 1.240 . S
O108 Gd81 2.448 . S
O108 C92 1.249 . S
O109 Gd81 2.506 . S
O109 C92 1.252 . S
O110 Gd81 2.435 . S
O110 C99 1.256 . S
O111 Gd80 2.327 . S
O111 Gd81 2.717 . S
O111 C99 1.257 . S
H112 C85 0.930 . S
H113 C86 0.931 . S
H114 C88 0.931 . S
H115 C89 0.931 . S
H116 C94 0.930 . S
H117 C95 0.931 . S
H118 C97 0.931 . S
H119 C98 0.931 . S
C120 C121 1.386 . S
C120 C122 1.397 . S
C120 H144 0.931 . S
C121 C120 1.386 . S
C121 C125 1.397 1_545 S
C122 C120 1.397 . S
C122 C123 1.384 . S
C122 H145 0.930 . S
C123 C122 1.384 . S
C123 C124 1.377 1_545 S
C123 C126 1.481 . S
C124 C123 1.377 1_565 S
C124 C125 1.389 . S
C124 H146 0.929 . S
C125 C121 1.397 1_565 S
C125 C124 1.389 . S
C125 H147 0.931 . S
C126 C123 1.481 . S
C126 C127 1.387 . S
C126 C131 1.390 1_545 S
C127 C126 1.387 . S
C127 C128 1.401 . S
C127 H148 0.930 . S
C128 C127 1.401 . S
C128 C129 1.376 . S
C128 C137 1.511 . S
C129 C128 1.376 . S
C129 C130 1.392 1_545 S
C129 H150 0.931 . S
C130 C129 1.392 1_565 S
C130 C131 1.361 . S
C130 C132 1.500 . S
C131 C126 1.390 1_565 S
C131 C130 1.361 . S
C131 H149 0.931 . S
C132 C130 1.500 . S
C132 C133 1.371 . S
C132 C134 1.365 . S
C133 C132 1.371 . S
C133 C143 1.386 . S
C133 H151 0.931 . S
C134 C132 1.365 . S
C134 C135 1.409 . S
C134 H152 0.929 . S
C135 C134 1.409 . S
C135 C136 1.380 . S
C135 H153 0.930 . S
C136 C135 1.380 . S
C136 C143 1.357 . S
C137 C128 1.511 . S
C137 C138 1.341 . S
C137 C139 1.371 . S
C138 C137 1.341 . S
C138 C142 1.394 . S
C138 H154 0.930 . S
C139 C137 1.371 . S
C139 C140 1.392 . S
C139 H155 0.931 . S
C140 C139 1.392 . S
C140 C141 1.331 . S
C140 H158 0.932 . S
C141 C140 1.331 . S
C141 C142 1.336 . S
C142 C138 1.394 . S
C142 C141 1.336 . S
C142 H157 0.929 . S
C143 C133 1.386 . S
C143 C136 1.357 . S
C143 H156 0.928 . S
H144 C120 0.931 . S
H145 C122 0.930 . S
H146 C124 0.929 . S
H147 C125 0.931 . S
H148 C127 0.930 . S
H149 C131 0.931 . S
H150 C129 0.931 . S
H151 C133 0.931 . S
H152 C134 0.929 . S
H153 C135 0.930 . S
H154 C138 0.930 . S
H155 C139 0.931 . S
H156 C143 0.928 . S
H157 C142 0.929 . S
H158 C140 0.932 . S
C159 C160 1.386 . S
C159 C161 1.397 . S
C159 H183 0.931 . S
C160 C159 1.386 . S
C160 C164 1.397 . S
C161 C159 1.397 . S
C161 C162 1.384 . S
C161 H184 0.930 . S
C162 C161 1.384 . S
C162 C163 1.377 . S
C162 C165 1.481 . S
C163 C162 1.377 . S
C163 C164 1.389 . S
C163 H185 0.929 . S
C164 C160 1.397 . S
C164 C163 1.389 . S
C164 H186 0.931 . S
C165 C162 1.481 . S
C165 C166 1.387 . S
C165 C170 1.390 . S
C166 C165 1.387 . S
C166 C167 1.401 . S
C166 H187 0.930 . S
C167 C166 1.401 . S
C167 C168 1.376 . S
C167 C176 1.511 . S
C168 C167 1.376 . S
C168 C169 1.392 . S
C168 H189 0.931 . S
C169 C168 1.392 . S
C169 C170 1.361 . S
C169 C171 1.500 . S
C170 C165 1.390 . S
C170 C169 1.361 . S
C170 H188 0.931 . S
C171 C169 1.500 . S
C171 C172 1.371 . S
C171 C173 1.365 . S
C172 C171 1.371 . S
C172 C182 1.386 . S
C172 H190 0.931 . S
C173 C171 1.365 . S
C173 C174 1.409 . S
C173 H191 0.929 . S
C174 C173 1.409 . S
C174 C175 1.380 . S
C174 H192 0.930 . S
C175 C174 1.380 . S
C175 C182 1.357 . S
C176 C167 1.511 . S
C176 C177 1.341 . S
C176 C178 1.371 . S
C177 C176 1.341 . S
C177 C181 1.394 . S
C177 H193 0.930 . S
C178 C176 1.371 . S
C178 C179 1.392 . S
C178 H194 0.931 . S
C179 C178 1.392 . S
C179 C180 1.331 . S
C179 H197 0.932 . S
C180 C179 1.331 . S
C180 C181 1.336 . S
C181 C177 1.394 . S
C181 C180 1.336 . S
C181 H196 0.929 . S
C182 C172 1.386 . S
C182 C175 1.357 . S
C182 H195 0.928 . S
H183 C159 0.931 . S
H184 C161 0.930 . S
H185 C163 0.929 . S
H186 C164 0.931 . S
H187 C166 0.930 . S
H188 C170 0.931 . S
H189 C168 0.931 . S
H190 C172 0.931 . S
H191 C173 0.929 . S
H192 C174 0.930 . S
H193 C177 0.930 . S
H194 C178 0.931 . S
H195 C182 0.928 . S
H196 C181 0.929 . S
H197 C179 0.932 . S
C198 C199 1.386 . S
C198 C200 1.397 . S
C198 H222 0.931 . S
C199 C198 1.386 . S
C199 C203 1.397 . S
C200 C198 1.397 . S
C200 C201 1.384 . S
C200 H223 0.930 . S
C201 C200 1.384 . S
C201 C202 1.377 . S
C201 C204 1.481 . S
C202 C201 1.377 . S
C202 C203 1.389 . S
C202 H224 0.929 1_455 S
C203 C199 1.397 . S
C203 C202 1.389 . S
C203 H225 0.931 1_455 S
C204 C201 1.481 . S
C204 C205 1.387 . S
C204 C209 1.390 . S
C205 C204 1.387 . S
C205 C206 1.401 . S
C205 H226 0.930 . S
C206 C205 1.401 . S
C206 C207 1.376 . S
C206 C215 1.511 . S
C207 C206 1.376 . S
C207 C208 1.392 . S
C207 H228 0.931 . S
C208 C207 1.392 . S
C208 C209 1.361 . S
C208 C210 1.500 1_455 S
C209 C204 1.390 . S
C209 C208 1.361 . S
C209 H227 0.931 . S
C210 C208 1.500 1_655 S
C210 C211 1.371 1_655 S
C210 C212 1.365 . S
C211 C210 1.371 1_455 S
C211 C221 1.386 1_455 S
C211 H229 0.931 . S
C212 C210 1.365 . S
C212 C213 1.409 . S
C212 H230 0.929 . S
C213 C212 1.409 . S
C213 C214 1.380 . S
C213 H231 0.930 . S
C214 C213 1.380 . S
C214 C221 1.357 . S
C215 C206 1.511 . S
C215 C216 1.341 . S
C215 C217 1.371 . S
C216 C215 1.341 . S
C216 C220 1.394 . S
C216 H232 0.930 . S
C217 C215 1.371 . S
C217 C218 1.392 . S
C217 H233 0.931 . S
C218 C217 1.392 . S
C218 C219 1.331 . S
C218 H236 0.932 . S
C219 C218 1.331 . S
C219 C220 1.336 . S
C220 C216 1.394 . S
C220 C219 1.336 . S
C220 H235 0.929 . S
C221 C211 1.386 1_655 S
C221 C214 1.357 . S
C221 H234 0.928 . S
H222 C198 0.931 . S
H223 C200 0.930 . S
H224 C202 0.929 1_655 S
H225 C203 0.931 1_655 S
H226 C205 0.930 . S
H227 C209 0.931 . S
H228 C207 0.931 . S
H229 C211 0.931 . S
H230 C212 0.929 . S
H231 C213 0.930 . S
H232 C216 0.930 . S
H233 C217 0.931 . S
H234 C221 0.928 . S
H235 C220 0.929 . S
H236 C218 0.932 . S
C237 C238 1.386 . S
C237 C239 1.397 . S
C237 H261 0.931 . S
C238 C237 1.386 . S
C238 C242 1.397 1_655 S
C239 C237 1.397 . S
C239 C240 1.384 . S
C239 H262 0.930 . S
C240 C239 1.384 . S
C240 C241 1.377 1_655 S
C240 C243 1.481 . S
C241 C240 1.377 1_455 S
C241 C242 1.389 . S
C241 H263 0.929 . S
C242 C238 1.397 1_455 S
C242 C241 1.389 . S
C242 H264 0.931 . S
C243 C240 1.481 . S
C243 C244 1.387 . S
C243 C248 1.390 1_655 S
C244 C243 1.387 . S
C244 C245 1.401 . S
C244 H265 0.930 . S
C245 C244 1.401 . S
C245 C246 1.376 . S
C245 C254 1.511 . S
C246 C245 1.376 . S
C246 C247 1.392 1_655 S
C246 H267 0.931 . S
C247 C246 1.392 1_455 S
C247 C248 1.361 . S
C247 C249 1.500 . S
C248 C243 1.390 1_455 S
C248 C247 1.361 . S
C248 H266 0.931 . S
C249 C247 1.500 . S
C249 C250 1.371 . S
C249 C251 1.365 . S
C250 C249 1.371 . S
C250 C260 1.386 . S
C250 H268 0.931 . S
C251 C249 1.365 . S
C251 C252 1.409 . S
C251 H269 0.929 . S
C252 C251 1.409 . S
C252 C253 1.380 . S
C252 H270 0.930 . S
C253 C252 1.380 . S
C253 C260 1.357 . S
C254 C245 1.511 . S
C254 C255 1.341 . S
C254 C256 1.371 . S
C255 C254 1.341 . S
C255 C259 1.394 . S
C255 H271 0.930 . S
C256 C254 1.371 . S
C256 C257 1.392 . S
C256 H272 0.931 . S
C257 C256 1.392 . S
C257 C258 1.331 . S
C257 H275 0.932 . S
C258 C257 1.331 . S
C258 C259 1.336 . S
C259 C255 1.394 . S
C259 C258 1.336 . S
C259 H274 0.929 . S
C260 C250 1.386 . S
C260 C253 1.357 . S
C260 H273 0.928 . S
H261 C237 0.931 . S
H262 C239 0.930 . S
H263 C241 0.929 . S
H264 C242 0.931 . S
H265 C244 0.930 . S
H266 C248 0.931 . S
H267 C246 0.931 . S
H268 C250 0.931 . S
H269 C251 0.929 . S
H270 C252 0.930 . S
H271 C255 0.930 . S
H272 C256 0.931 . S
H273 C260 0.928 . S
H274 C259 0.929 . S
H275 C257 0.932 . S
C276 C277 1.386 . S
C276 C278 1.397 . S
C276 H300 0.931 . S
C277 C276 1.386 . S
C277 C281 1.397 1_565 S
C278 C276 1.397 . S
C278 C279 1.384 . S
C278 H301 0.930 . S
C279 C278 1.384 . S
C279 C280 1.377 1_565 S
C279 C282 1.480 . S
C280 C279 1.377 1_545 S
C280 C281 1.389 . S
C280 H302 0.929 . S
C281 C277 1.397 1_545 S
C281 C280 1.389 . S
C281 H303 0.931 . S
C282 C279 1.480 . S
C282 C283 1.412 . S
C282 C287 1.366 1_565 S
C283 C282 1.412 . S
C283 C284 1.401 . S
C283 H304 0.930 . S
C284 C283 1.401 . S
C284 C285 1.376 1_565 S
C284 C293 1.511 . S
C285 C284 1.376 1_545 S
C285 C286 1.392 . S
C285 H306 0.931 . S
C286 C285 1.392 . S
C286 C287 1.361 . S
C286 C288 1.500 . S
C287 C282 1.366 1_545 S
C287 C286 1.361 . S
C287 H305 0.931 . S
C288 C286 1.500 . S
C288 C289 1.371 . S
C288 C290 1.365 . S
C289 C288 1.371 . S
C289 C299 1.386 . S
C289 H307 0.931 . S
C290 C288 1.365 . S
C290 C291 1.409 . S
C290 H308 0.929 . S
C291 C290 1.409 . S
C291 C292 1.380 . S
C291 H309 0.930 . S
C292 C291 1.380 . S
C292 C299 1.357 . S
C293 C284 1.511 . S
C293 C294 1.341 . S
C293 C295 1.371 . S
C294 C293 1.341 . S
C294 C298 1.394 . S
C294 H310 0.930 . S
C295 C293 1.371 . S
C295 C296 1.392 . S
C295 H311 0.931 . S
C296 C295 1.392 . S
C296 C297 1.331 . S
C296 H314 0.932 . S
C297 C296 1.331 . S
C297 C298 1.336 . S
C298 C294 1.394 . S
C298 C297 1.336 . S
C298 H313 0.929 . S
C299 C289 1.386 . S
C299 C292 1.357 . S
C299 H312 0.928 . S
H300 C276 0.931 . S
H301 C278 0.930 . S
H302 C280 0.929 . S
H303 C281 0.931 . S
H304 C283 0.930 . S
H305 C287 0.931 . S
H306 C285 0.931 . S
H307 C289 0.931 . S
H308 C290 0.929 . S
H309 C291 0.930 . S
H310 C294 0.930 . S
H311 C295 0.931 . S
H312 C299 0.928 . S
H313 C298 0.929 . S
H314 C296 0.932 . S
C315 C316 1.386 1_554 S
C315 C317 1.397 . S
C315 H339 0.931 1_554 S
C316 C315 1.386 1_556 S
C316 C320 1.397 1_556 S
C317 C315 1.397 . S
C317 C318 1.384 . S
C317 H340 0.930 . S
C318 C317 1.384 . S
C318 C319 1.377 . S
C318 C321 1.481 . S
C319 C318 1.377 . S
C319 C320 1.389 . S
C319 H341 0.929 . S
C320 C316 1.397 1_554 S
C320 C319 1.389 . S
C320 H342 0.931 1_554 S
C321 C318 1.481 . S
C321 C322 1.387 . S
C321 C326 1.390 . S
C322 C321 1.387 . S
C322 C323 1.401 . S
C322 H343 0.930 . S
C323 C322 1.401 . S
C323 C324 1.376 . S
C323 C332 1.511 . S
C324 C323 1.376 . S
C324 C325 1.392 . S
C324 H345 0.931 . S
C325 C324 1.392 . S
C325 C326 1.361 . S
C325 C327 1.500 . S
C326 C321 1.390 . S
C326 C325 1.361 . S
C326 H344 0.931 . S
C327 C325 1.500 . S
C327 C328 1.371 . S
C327 C329 1.365 . S
C328 C327 1.371 . S
C328 C338 1.386 . S
C328 H346 0.931 . S
C329 C327 1.365 . S
C329 C330 1.409 . S
C329 H347 0.929 . S
C330 C329 1.409 . S
C330 C331 1.380 . S
C330 H348 0.930 . S
C331 C330 1.380 . S
C331 C338 1.357 . S
C332 C323 1.511 . S
C332 C333 1.341 . S
C332 C334 1.371 . S
C333 C332 1.341 . S
C333 C337 1.394 . S
C333 H349 0.930 . S
C334 C332 1.371 . S
C334 C335 1.392 . S
C334 H350 0.931 . S
C335 C334 1.392 . S
C335 C336 1.331 . S
C335 H353 0.932 . S
C336 C335 1.331 . S
C336 C337 1.336 . S
C337 C333 1.394 . S
C337 C336 1.336 . S
C337 H352 0.929 . S
C338 C328 1.386 . S
C338 C331 1.357 . S
C338 H351 0.928 . S
H339 C315 0.931 1_556 S
H340 C317 0.930 . S
H341 C319 0.929 . S
H342 C320 0.931 1_556 S
H343 C322 0.930 . S
H344 C326 0.931 . S
H345 C324 0.931 . S
H346 C328 0.931 . S
H347 C329 0.929 . S
H348 C330 0.930 . S
H349 C333 0.930 . S
H350 C334 0.931 . S
H351 C338 0.928 . S
H352 C337 0.929 . S
H353 C335 0.932 . S
H354 C360 0.930 . S
H355 C363 0.930 . S
H356 C364 0.930 . S
H357 C365 0.930 . S
H358 C368 0.930 . S
H359 C369 0.930 . S
C360 H354 0.930 . S
C360 C361 1.355 . S
C360 C362 1.415 . S
C361 C360 1.355 . S
C361 C363 1.419 . S
C362 C360 1.415 . S
C362 C367 1.425 . S
C362 C369 1.409 . S
C363 H355 0.930 . S
C363 C361 1.419 . S
C363 C364 1.362 . S
C364 H356 0.930 . S
C364 C363 1.362 . S
C364 C367 1.409 . S
C365 H357 0.930 . S
C365 C366 1.355 . S
C365 C367 1.415 . S
C366 C365 1.355 . S
C366 C368 1.419 . S
C367 C362 1.425 . S
C367 C364 1.409 . S
C367 C365 1.415 . S
C368 H358 0.930 . S
C368 C366 1.419 . S
C368 C369 1.362 . S
C369 H359 0.930 . S
C369 C362 1.409 . S
C369 C368 1.362 . S
H370 C376 0.930 . S
H371 C379 0.930 . S
H372 C380 0.930 . S
H373 C381 0.930 . S
H374 C384 0.930 . S
H375 C385 0.930 . S
C376 H370 0.930 . S
C376 C377 1.355 . S
C376 C378 1.415 . S
C377 C376 1.355 . S
C377 C379 1.419 . S
C378 C376 1.415 . S
C378 C383 1.425 . S
C378 C385 1.409 . S
C379 H371 0.930 . S
C379 C377 1.419 . S
C379 C380 1.362 . S
C380 H372 0.930 . S
C380 C379 1.362 . S
C380 C383 1.409 . S
C381 H373 0.930 . S
C381 C382 1.355 . S
C381 C383 1.415 . S
C382 C381 1.355 . S
C382 C384 1.419 . S
C383 C378 1.425 . S
C383 C380 1.409 . S
C383 C381 1.415 . S
C384 H374 0.930 . S
C384 C382 1.419 . S
C384 C385 1.362 . S
C385 H375 0.930 . S
C385 C378 1.409 . S
C385 C384 1.362 . S
H386 C392 0.930 . S
H387 C395 0.930 . S
H388 C396 0.930 . S
H389 C397 0.930 . S
H390 C400 0.930 . S
H391 C401 0.930 . S
C392 H386 0.930 . S
C392 C393 1.355 . S
C392 C394 1.415 . S
C393 C392 1.355 . S
C393 C395 1.419 . S
C394 C392 1.415 . S
C394 C399 1.425 . S
C394 C401 1.409 . S
C395 H387 0.930 . S
C395 C393 1.419 . S
C395 C396 1.362 . S
C396 H388 0.930 . S
C396 C395 1.362 . S
C396 C399 1.409 . S
C397 H389 0.930 . S
C397 C398 1.355 . S
C397 C399 1.415 . S
C398 C397 1.355 . S
C398 C400 1.419 . S
C399 C394 1.425 . S
C399 C396 1.409 . S
C399 C397 1.415 . S
C400 H390 0.930 . S
C400 C398 1.419 . S
C400 C401 1.362 . S
C401 H391 0.930 . S
C401 C394 1.409 . S
C401 C400 1.362 . S
H402 C408 0.930 . S
H403 C411 0.930 . S
H404 C412 0.930 . S
H405 C413 0.930 . S
H406 C416 0.930 . S
H407 C417 0.930 . S
C408 H402 0.930 . S
C408 C409 1.355 . S
C408 C410 1.415 . S
C409 C408 1.355 . S
C409 C411 1.419 . S
C410 C408 1.415 . S
C410 C415 1.425 . S
C410 C417 1.409 . S
C411 H403 0.930 . S
C411 C409 1.419 . S
C411 C412 1.362 . S
C412 H404 0.930 . S
C412 C411 1.362 . S
C412 C415 1.409 . S
C413 H405 0.930 . S
C413 C414 1.355 . S
C413 C415 1.415 . S
C414 C413 1.355 . S
C414 C416 1.419 . S
C415 C410 1.425 . S
C415 C412 1.409 . S
C415 C413 1.415 . S
C416 H406 0.930 . S
C416 C414 1.419 . S
C416 C417 1.362 . S
C417 H407 0.930 . S
C417 C410 1.409 . S
C417 C416 1.362 . S
H418 C424 0.930 . S
H419 C427 0.930 . S
H420 C428 0.930 . S
H421 C429 0.930 . S
H422 C432 0.930 . S
H423 C433 0.930 . S
C424 H418 0.930 . S
C424 C425 1.355 . S
C424 C426 1.415 . S
C425 C424 1.355 . S
C425 C427 1.419 . S
C426 C424 1.415 . S
C426 C431 1.425 . S
C426 C433 1.409 . S
C427 H419 0.930 . S
C427 C425 1.419 . S
C427 C428 1.362 . S
C428 H420 0.930 . S
C428 C427 1.362 . S
C428 C431 1.409 . S
C429 H421 0.930 . S
C429 C430 1.355 . S
C429 C431 1.415 . S
C430 C429 1.355 . S
C430 C432 1.419 . S
C431 C426 1.425 . S
C431 C428 1.409 . S
C431 C429 1.415 . S
C432 H422 0.930 . S
C432 C430 1.419 . S
C432 C433 1.362 . S
C433 H423 0.930 . S
C433 C426 1.409 . S
C433 C432 1.362 . S
H434 C440 0.930 . S
H435 C443 0.930 . S
H436 C444 0.930 . S
H437 C445 0.930 . S
H438 C448 0.930 . S
H439 C449 0.930 . S
C440 H434 0.930 . S
C440 C441 1.355 . S
C440 C442 1.415 . S
C441 C440 1.355 . S
C441 C443 1.419 . S
C442 C440 1.415 . S
C442 C447 1.425 . S
C442 C449 1.409 . S
C443 H435 0.930 . S
C443 C441 1.419 . S
C443 C444 1.362 . S
C444 H436 0.930 . S
C444 C443 1.362 . S
C444 C447 1.409 . S
C445 H437 0.930 . S
C445 C446 1.355 . S
C445 C447 1.415 . S
C446 C445 1.355 . S
C446 C448 1.419 . S
C447 C442 1.425 . S
C447 C444 1.409 . S
C447 C445 1.415 . S
C448 H438 0.930 . S
C448 C446 1.419 . S
C448 C449 1.362 . S
C449 H439 0.930 . S
C449 C442 1.409 . S
C449 C448 1.362 . S
H450 C456 0.930 . S
H451 C459 0.930 . S
H452 C460 0.930 . S
H453 C461 0.930 . S
H454 C464 0.930 . S
H455 C465 0.930 . S
C456 H450 0.930 . S
C456 C457 1.355 . S
C456 C458 1.415 . S
C457 C456 1.355 . S
C457 C459 1.419 . S
C458 C456 1.415 . S
C458 C463 1.425 . S
C458 C465 1.409 . S
C459 H451 0.930 . S
C459 C457 1.419 . S
C459 C460 1.362 . S
C460 H452 0.930 . S
C460 C459 1.362 . S
C460 C463 1.409 . S
C461 H453 0.930 . S
C461 C462 1.355 . S
C461 C463 1.415 . S
C462 C461 1.355 . S
C462 C464 1.419 . S
C463 C458 1.425 . S
C463 C460 1.409 . S
C463 C461 1.415 . S
C464 H454 0.930 . S
C464 C462 1.419 . S
C464 C465 1.362 . S
C465 H455 0.930 . S
C465 C458 1.409 . S
C465 C464 1.362 . S
H466 C472 0.930 . S
H467 C475 0.930 . S
H468 C476 0.930 . S
H469 C477 0.930 . S
H470 C480 0.930 . S
H471 C481 0.930 . S
C472 H466 0.930 . S
C472 C473 1.355 . S
C472 C474 1.415 . S
C473 C472 1.355 . S
C473 C475 1.419 . S
C474 C472 1.415 . S
C474 C479 1.425 . S
C474 C481 1.409 . S
C475 H467 0.930 . S
C475 C473 1.419 . S
C475 C476 1.362 . S
C476 H468 0.930 . S
C476 C475 1.362 . S
C476 C479 1.409 . S
C477 H469 0.930 . S
C477 C478 1.355 . S
C477 C479 1.415 . S
C478 C477 1.355 . S
C478 C480 1.419 . S
C479 C474 1.425 . S
C479 C476 1.409 . S
C479 C477 1.415 . S
C480 H470 0.930 . S
C480 C478 1.419 . S
C480 C481 1.362 . S
C481 H471 0.930 . S
C481 C474 1.409 . S
C481 C480 1.362 . S
H482 C488 0.930 . S
H483 C491 0.930 . S
H484 C492 0.930 . S
H485 C493 0.930 . S
H486 C496 0.930 . S
H487 C497 0.930 . S
C488 H482 0.930 . S
C488 C489 1.355 . S
C488 C490 1.415 . S
C489 C488 1.355 . S
C489 C491 1.419 . S
C490 C488 1.415 . S
C490 C495 1.425 . S
C490 C497 1.409 . S
C491 H483 0.930 . S
C491 C489 1.419 . S
C491 C492 1.362 . S
C492 H484 0.930 . S
C492 C491 1.362 . S
C492 C495 1.409 . S
C493 H485 0.930 . S
C493 C494 1.355 . S
C493 C495 1.415 . S
C494 C493 1.355 . S
C494 C496 1.419 . S
C495 C490 1.425 . S
C495 C492 1.409 . S
C495 C493 1.415 . S
C496 H486 0.930 . S
C496 C494 1.419 . S
C496 C497 1.362 . S
C497 H487 0.930 . S
C497 C490 1.409 . S
C497 C496 1.362 . S
H498 C504 0.930 . S
H499 C507 0.930 . S
H500 C508 0.930 . S
H501 C509 0.930 . S
H502 C512 0.930 . S
H503 C513 0.930 . S
C504 H498 0.930 . S
C504 C505 1.355 . S
C504 C506 1.415 . S
C505 C504 1.355 . S
C505 C507 1.419 . S
C506 C504 1.415 . S
C506 C511 1.425 . S
C506 C513 1.409 . S
C507 H499 0.930 . S
C507 C505 1.419 . S
C507 C508 1.362 . S
C508 H500 0.930 . S
C508 C507 1.362 . S
C508 C511 1.409 . S
C509 H501 0.930 . S
C509 C510 1.355 . S
C509 C511 1.415 . S
C510 C509 1.355 . S
C510 C512 1.419 . S
C511 C506 1.425 . S
C511 C508 1.409 . S
C511 C509 1.415 . S
C512 H502 0.930 . S
C512 C510 1.419 . S
C512 C513 1.362 . S
C513 H503 0.930 . S
C513 C506 1.409 . S
C513 C512 1.362 . S
H514 C520 0.930 . S
H515 C523 0.930 . S
H516 C524 0.930 . S
H517 C525 0.930 . S
H518 C528 0.930 . S
H519 C529 0.930 . S
C520 H514 0.930 . S
C520 C521 1.355 . S
C520 C522 1.415 . S
C521 C520 1.355 . S
C521 C523 1.419 . S
C522 C520 1.415 . S
C522 C527 1.425 . S
C522 C529 1.409 . S
C523 H515 0.930 . S
C523 C521 1.419 . S
C523 C524 1.362 . S
C524 H516 0.930 . S
C524 C523 1.362 . S
C524 C527 1.409 . S
C525 H517 0.930 . S
C525 C526 1.355 . S
C525 C527 1.415 . S
C526 C525 1.355 . S
C526 C528 1.419 . S
C527 C522 1.425 . S
C527 C524 1.409 . S
C527 C525 1.415 . S
C528 H518 0.930 . S
C528 C526 1.419 . S
C528 C529 1.362 . S
C529 H519 0.930 . S
C529 C522 1.409 . S
C529 C528 1.362 . S
H530 C536 0.930 . S
H531 C539 0.930 . S
H532 C540 0.930 . S
H533 C541 0.930 . S
H534 C544 0.930 . S
H535 C545 0.930 . S
C536 H530 0.930 . S
C536 C537 1.355 . S
C536 C538 1.415 . S
C537 C536 1.355 . S
C537 C539 1.419 . S
C538 C536 1.415 . S
C538 C543 1.425 . S
C538 C545 1.409 . S
C539 H531 0.930 . S
C539 C537 1.419 . S
C539 C540 1.362 . S
C540 H532 0.930 . S
C540 C539 1.362 . S
C540 C543 1.409 . S
C541 H533 0.930 . S
C541 C542 1.355 . S
C541 C543 1.415 . S
C542 C541 1.355 . S
C542 C544 1.419 . S
C543 C538 1.425 . S
C543 C540 1.409 . S
C543 C541 1.415 . S
C544 H534 0.930 . S
C544 C542 1.419 . S
C544 C545 1.362 . S
C545 H535 0.930 . S
C545 C538 1.409 . S
C545 C544 1.362 . S
H546 C552 0.930 . S
H547 C555 0.930 1_655 S
H548 C556 0.930 1_655 S
H549 C557 0.930 . S
H550 C560 0.930 . S
H551 C561 0.930 . S
C552 H546 0.930 . S
C552 C553 1.355 . S
C552 C554 1.415 . S
C553 C552 1.355 . S
C553 C555 1.419 . S
C554 C552 1.415 . S
C554 C559 1.425 . S
C554 C561 1.409 . S
C555 H547 0.930 1_455 S
C555 C553 1.419 . S
C555 C556 1.362 . S
C556 H548 0.930 1_455 S
C556 C555 1.362 . S
C556 C559 1.409 . S
C557 H549 0.930 . S
C557 C558 1.355 . S
C557 C559 1.415 . S
C558 C557 1.355 . S
C558 C560 1.419 . S
C559 C554 1.425 . S
C559 C556 1.409 . S
C559 C557 1.415 . S
C560 H550 0.930 . S
C560 C558 1.419 . S
C560 C561 1.362 . S
C561 H551 0.930 . S
C561 C554 1.409 . S
C561 C560 1.362 . S
H562 C568 0.930 . S
H563 C571 0.930 . S
H564 C572 0.930 . S
H565 C573 0.930 . S
H566 C576 0.930 . S
H567 C577 0.930 . S
C568 H562 0.930 . S
C568 C569 1.355 1_565 S
C568 C570 1.415 1_565 S
C569 C568 1.355 1_545 S
C569 C571 1.419 . S
C570 C568 1.415 1_545 S
C570 C575 1.425 . S
C570 C577 1.409 1_545 S
C571 H563 0.930 . S
C571 C569 1.419 . S
C571 C572 1.362 . S
C572 H564 0.930 . S
C572 C571 1.362 . S
C572 C575 1.409 . S
C573 H565 0.930 . S
C573 C574 1.355 . S
C573 C575 1.415 . S
C574 C573 1.355 . S
C574 C576 1.419 1_545 S
C575 C570 1.425 . S
C575 C572 1.409 . S
C575 C573 1.415 . S
C576 H566 0.930 . S
C576 C574 1.419 1_565 S
C576 C577 1.362 . S
C577 H567 0.930 . S
C577 C570 1.409 1_565 S
C577 C576 1.362 . S
H578 C584 0.930 . S
H579 C587 0.930 . S
H580 C588 0.930 . S
H581 C589 0.930 . S
H582 C592 0.930 . S
H583 C593 0.930 . S
C584 H578 0.930 . S
C584 C585 1.355 . S
C584 C586 1.415 . S
C585 C584 1.355 . S
C585 C587 1.419 . S
C586 C584 1.415 . S
C586 C591 1.425 . S
C586 C593 1.409 . S
C587 H579 0.930 . S
C587 C585 1.419 . S
C587 C588 1.362 . S
C588 H580 0.930 . S
C588 C587 1.362 . S
C588 C591 1.409 . S
C589 H581 0.930 . S
C589 C590 1.355 . S
C589 C591 1.415 . S
C590 C589 1.355 . S
C590 C592 1.419 . S
C591 C586 1.425 . S
C591 C588 1.409 . S
C591 C589 1.415 . S
C592 H582 0.930 . S
C592 C590 1.419 . S
C592 C593 1.362 . S
C593 H583 0.930 . S
C593 C586 1.409 . S
C593 C592 1.362 . S
H594 C600 0.930 . S
H595 C603 0.930 . S
H596 C604 0.930 . S
H597 C605 0.930 . S
H598 C608 0.930 . S
H599 C609 0.930 . S
C600 H594 0.930 . S
C600 C601 1.355 . S
C600 C602 1.415 . S
C601 C600 1.355 . S
C601 C603 1.419 1_545 S
C602 C600 1.415 . S
C602 C607 1.425 1_545 S
C602 C609 1.409 . S
C603 H595 0.930 . S
C603 C601 1.419 1_565 S
C603 C604 1.362 . S
C604 H596 0.930 . S
C604 C603 1.362 . S
C604 C607 1.409 . S
C605 H597 0.930 . S
C605 C606 1.355 . S
C605 C607 1.415 . S
C606 C605 1.355 . S
C606 C608 1.419 1_565 S
C607 C602 1.425 1_565 S
C607 C604 1.409 . S
C607 C605 1.415 . S
C608 H598 0.930 . S
C608 C606 1.419 1_545 S
C608 C609 1.362 . S
C609 H599 0.930 . S
C609 C602 1.409 . S
C609 C608 1.362 . S
H610 C616 0.930 . S
H611 C619 0.930 . S
H612 C620 0.930 . S
H613 C621 0.930 . S
H614 C624 0.930 . S
H615 C625 0.930 . S
C616 H610 0.930 . S
C616 C617 1.355 . S
C616 C618 1.415 . S
C617 C616 1.355 . S
C617 C619 1.419 . S
C618 C616 1.415 . S
C618 C623 1.425 . S
C618 C625 1.409 . S
C619 H611 0.930 . S
C619 C617 1.419 . S
C619 C620 1.362 . S
C620 H612 0.930 . S
C620 C619 1.362 . S
C620 C623 1.409 . S
C621 H613 0.930 . S
C621 C622 1.355 . S
C621 C623 1.415 . S
C622 C621 1.355 . S
C622 C624 1.419 . S
C623 C618 1.425 . S
C623 C620 1.409 . S
C623 C621 1.415 . S
C624 H614 0.930 . S
C624 C622 1.419 . S
C624 C625 1.362 . S
C625 H615 0.930 . S
C625 C618 1.409 . S
C625 C624 1.362 . S
H626 C632 0.930 . S
H627 C635 0.930 . S
H628 C636 0.930 . S
H629 C637 0.930 . S
H630 C640 0.930 . S
H631 C641 0.930 . S
C632 H626 0.930 . S
C632 C633 1.355 . S
C632 C634 1.415 . S
C633 C632 1.355 . S
C633 C635 1.419 1_455 S
C634 C632 1.415 . S
C634 C639 1.425 . S
C634 C641 1.409 . S
C635 H627 0.930 . S
C635 C633 1.419 1_655 S
C635 C636 1.362 . S
C636 H628 0.930 . S
C636 C635 1.362 . S
C636 C639 1.409 1_655 S
C637 H629 0.930 . S
C637 C638 1.355 1_655 S
C637 C639 1.415 1_655 S
C638 C637 1.355 1_455 S
C638 C640 1.419 . S
C639 C634 1.425 . S
C639 C636 1.409 1_455 S
C639 C637 1.415 1_455 S
C640 H630 0.930 . S
C640 C638 1.419 . S
C640 C641 1.362 . S
C641 H631 0.930 . S
C641 C634 1.409 . S
C641 C640 1.362 . S
C361 C7 0.780 . S
C366 C331 0.837 . S
C377 C51 1.967 . S
C382 C258 1.919 . S
C393 C87 1.291 . S
C398 C297 1.283 . S
C409 C16 0.395 . S
C414 C336 0.406 . S
C430 C253 2.019 . S
C425 C42 2.110 . S
C446 C292 1.342 . S
C441 C96 1.373 . S
C457 C47 1.222 . S
C462 C180 1.265 . S
C473 C91 3.160 . S
C478 C214 3.106 . S
C489 C2 2.120 . S
C494 C136 2.056 . S
C510 C175 1.338 . S
C505 C56 1.360 . S
C526 C219 2.970 . S
C521 C82 3.031 . S
C537 C11 1.949 . S
C542 C141 1.889 . S
C558 C199 1.776 1_554 S
C553 C19 1.709 . S
C569 C50 1.354 . S
C574 C121 1.369 . S
C585 C99 1.481 . S
C590 C160 1.505 . S
C606 C277 1.482 . S
C601 C59 1.473 . S
C622 C316 1.117 . S
C617 C90 1.089 . S
C633 C10 1.362 . S
C638 C238 1.358 1_455 S
