# Generated by pormake.
# Topology wbl, (4,4)-cn, num edge types: 1
# Building blocks:
#     Node 0, Type 0, BuildingBlock: MUDLON_clean_linker_0, # of connection points: 4
#     Node 1, Type 0, BuildingBlock: MUDLON_clean_linker_0, # of connection points: 4
#     Node 2, Type 0, BuildingBlock: MUDLON_clean_linker_0, # of connection points: 4
#     Node 3, Type 0, BuildingBlock: MUDLON_clean_linker_0, # of connection points: 4
#     Node 4, Type 0, BuildingBlock: MUDLON_clean_linker_0, # of connection points: 4
#     Node 5, Type 0, BuildingBlock: MUDLON_clean_linker_0, # of connection points: 4
#     Node 6, Type 0, BuildingBlock: MUDLON_clean_linker_0, # of connection points: 4
#     Node 7, Type 0, BuildingBlock: MUDLON_clean_linker_0, # of connection points: 4
#     Node 8, Type 1, BuildingBlock: QUQFOY_clean_sbu_3, # of connection points: 4
#     Node 9, Type 1, BuildingBlock: QUQFOY_clean_sbu_3, # of connection points: 4
#     Node 10, Type 1, BuildingBlock: QUQFOY_clean_sbu_3, # of connection points: 4
#     Node 11, Type 1, BuildingBlock: QUQFOY_clean_sbu_3, # of connection points: 4
#     Node 12, Type 1, BuildingBlock: QUQFOY_clean_sbu_3, # of connection points: 4
#     Node 13, Type 1, BuildingBlock: QUQFOY_clean_sbu_3, # of connection points: 4
#     Node 14, Type 1, BuildingBlock: QUQFOY_clean_sbu_3, # of connection points: 4
#     Node 15, Type 1, BuildingBlock: QUQFOY_clean_sbu_3, # of connection points: 4
#     Edge 16, Type (0, 1), BuildingBlock: MIFKUJ_clean_linker_0, # of connection points: 2
#     Edge 17, Type (0, 1), BuildingBlock: MIFKUJ_clean_linker_0, # of connection points: 2
#     Edge 18, Type (0, 1), BuildingBlock: MIFKUJ_clean_linker_0, # of connection points: 2
#     Edge 19, Type (0, 1), BuildingBlock: MIFKUJ_clean_linker_0, # of connection points: 2
#     Edge 20, Type (0, 1), BuildingBlock: MIFKUJ_clean_linker_0, # of connection points: 2
#     Edge 21, Type (0, 1), BuildingBlock: MIFKUJ_clean_linker_0, # of connection points: 2
#     Edge 22, Type (0, 1), BuildingBlock: MIFKUJ_clean_linker_0, # of connection points: 2
#     Edge 23, Type (0, 1), BuildingBlock: MIFKUJ_clean_linker_0, # of connection points: 2
#     Edge 24, Type (0, 1), BuildingBlock: MIFKUJ_clean_linker_0, # of connection points: 2
#     Edge 25, Type (0, 1), BuildingBlock: MIFKUJ_clean_linker_0, # of connection points: 2
#     Edge 26, Type (0, 1), BuildingBlock: MIFKUJ_clean_linker_0, # of connection points: 2
#     Edge 27, Type (0, 1), BuildingBlock: MIFKUJ_clean_linker_0, # of connection points: 2
#     Edge 28, Type (0, 1), BuildingBlock: MIFKUJ_clean_linker_0, # of connection points: 2
#     Edge 29, Type (0, 1), BuildingBlock: MIFKUJ_clean_linker_0, # of connection points: 2
#     Edge 30, Type (0, 1), BuildingBlock: MIFKUJ_clean_linker_0, # of connection points: 2
#     Edge 31, Type (0, 1), BuildingBlock: MIFKUJ_clean_linker_0, # of connection points: 2
#     Edge 32, Type (0, 1), BuildingBlock: MIFKUJ_clean_linker_0, # of connection points: 2
#     Edge 33, Type (0, 1), BuildingBlock: MIFKUJ_clean_linker_0, # of connection points: 2
#     Edge 34, Type (0, 1), BuildingBlock: MIFKUJ_clean_linker_0, # of connection points: 2
#     Edge 35, Type (0, 1), BuildingBlock: MIFKUJ_clean_linker_0, # of connection points: 2
#     Edge 36, Type (0, 1), BuildingBlock: MIFKUJ_clean_linker_0, # of connection points: 2
#     Edge 37, Type (0, 1), BuildingBlock: MIFKUJ_clean_linker_0, # of connection points: 2
#     Edge 38, Type (0, 1), BuildingBlock: MIFKUJ_clean_linker_0, # of connection points: 2
#     Edge 39, Type (0, 1), BuildingBlock: MIFKUJ_clean_linker_0, # of connection points: 2
#     Edge 40, Type (0, 1), BuildingBlock: MIFKUJ_clean_linker_0, # of connection points: 2
#     Edge 41, Type (0, 1), BuildingBlock: MIFKUJ_clean_linker_0, # of connection points: 2
#     Edge 42, Type (0, 1), BuildingBlock: MIFKUJ_clean_linker_0, # of connection points: 2
#     Edge 43, Type (0, 1), BuildingBlock: MIFKUJ_clean_linker_0, # of connection points: 2
#     Edge 44, Type (0, 1), BuildingBlock: MIFKUJ_clean_linker_0, # of connection points: 2
#     Edge 45, Type (0, 1), BuildingBlock: MIFKUJ_clean_linker_0, # of connection points: 2
#     Edge 46, Type (0, 1), BuildingBlock: MIFKUJ_clean_linker_0, # of connection points: 2
#     Edge 47, Type (0, 1), BuildingBlock: MIFKUJ_clean_linker_0, # of connection points: 2
# Relax obj value: 0.127
# Max RMSD: 0.144
# Mean RMSD: 0.129
data_MOF--net-wbl--node1-QUQFOY_clean_sbu_3--node2-MUDLON_clean_linker_0--edge1-MIFKUJ_clean_linker_0
_symmetry_space_group_name_H-M    P1
_symmetry_Int_Tables_number       1
_symmetry_cell_setting            triclinic
loop_
_symmetry_equiv_pos_as_xyz
'x, y, z'
_cell_length_a     66.865949
_cell_length_b     67.181727
_cell_length_c     93.718988
_cell_angle_alpha  90.782801
_cell_angle_beta   90.095903
_cell_angle_gamma 89.879853
loop_
_atom_site_label
_atom_site_type_symbol
_atom_site_fract_x
_atom_site_fract_y
_atom_site_fract_z
_atom_type_partial_charge
H0 H 0.10575 0.97387 0.3225 0.0
N1 N 0.07513 0.9705 0.30459 0.0
H2 H 0.11086 0.95606 0.34489 0.0
H3 H 0.04846 0.9455 0.31708 0.0
H4 H 0.05321 0.92806 0.33973 0.0
H5 H 0.06556 0.93539 0.29159 0.0
H6 H 0.08776 0.91566 0.27609 0.0
H7 H 0.10829 0.98316 0.29229 0.0
H8 H 0.13087 0.96359 0.27727 0.0
H9 H 0.0754 0.00957 0.30849 0.0
H10 H 0.03783 0.96099 0.29478 0.0
H11 H 0.04751 0.03277 0.3058 0.0
H12 H 0.00959 0.98416 0.29197 0.0
H13 H 0.98296 0.09488 0.32058 0.0
H14 H 0.97217 0.10433 0.34484 0.0
H15 H 0.92359 0.06233 0.34165 0.0
H16 H 0.9347 0.05249 0.31781 0.0
H17 H 0.93565 0.04434 0.29287 0.0
H18 H 0.9047 0.05452 0.28117 0.0
H19 H 0.92794 0.11423 0.27737 0.0
H20 H 0.95832 0.10407 0.28984 0.0
H21 H 0.0 0.07315 0.28984 0.0
H22 H 0.02641 0.048 0.28786 0.0
H23 H 0.98751 0.00502 0.30747 0.0
N24 N 0.9649 0.06973 0.30256 0.0
H25 H 0.96106 0.0302 0.30909 0.0
C26 C 0.07668 0.9612 0.31827 0.0
C27 C 0.09417 0.96401 0.32628 0.0
C28 C 0.09712 0.95375 0.33896 0.0
C29 C 0.08245 0.94067 0.34395 0.0
C30 C 0.06468 0.93815 0.33609 0.0
C31 C 0.06192 0.94816 0.32322 0.0
C32 C 0.08534 0.96075 0.29298 0.0
C33 C 0.07947 0.94183 0.28803 0.0
C34 C 0.09232 0.93051 0.27933 0.0
C35 C 0.11127 0.93789 0.27552 0.0
C36 C 0.11636 0.95743 0.27976 0.0
C37 C 0.10349 0.9687 0.28837 0.0
C38 C 0.05865 0.98368 0.30187 0.0
C39 C 0.06112 0.00401 0.30473 0.0
C40 C 0.04517 0.01722 0.3031 0.0
C41 C 0.02629 0.01035 0.29859 0.0
C42 C 0.02389 0.9899 0.29555 0.0
C43 C 0.04 0.97666 0.2971 0.0
C44 C 0.95957 0.07321 0.31729 0.0
C45 C 0.97021 0.08749 0.32525 0.0
C46 C 0.96405 0.09287 0.33903 0.0
C47 C 0.94693 0.0842 0.34496 0.0
C48 C 0.93669 0.06939 0.3372 0.0
C49 C 0.94307 0.06375 0.32356 0.0
C50 C 0.94917 0.07359 0.29244 0.0
C51 C 0.93423 0.05951 0.28929 0.0
C52 C 0.91651 0.06538 0.28251 0.0
C53 C 0.91356 0.08536 0.27861 0.0
C54 C 0.9294 0.09888 0.28061 0.0
C55 C 0.94691 0.09306 0.28753 0.0
C56 C 0.97867 0.05365 0.29968 0.0
C57 C -0.00293 0.05817 0.29342 0.0
C58 C 0.01217 0.04383 0.29242 0.0
C59 C 0.0092 0.02457 0.29772 0.0
C60 C -0.00972 0.01968 0.30323 0.0
C61 C 0.97513 0.0341 0.30422 0.0
H62 H 0.9527 0.42613 0.56558 0.0
N63 N 0.93771 0.45875 0.55201 0.0
H64 H 0.94376 0.41491 0.58938 0.0
H65 H 0.91483 0.47765 0.57104 0.0
H66 H 0.90574 0.4665 0.59499 0.0
H67 H 0.9005 0.45076 0.54427 0.0
H68 H 0.88835 0.42131 0.53166 0.0
H69 H 0.96131 0.43189 0.53681 0.0
H70 H 0.94939 0.40308 0.5235 0.0
H71 H 0.97683 0.44742 0.55615 0.0
H72 H 0.93922 0.49614 0.54329 0.0
H73 H 0.00617 0.46832 0.55409 0.0
H74 H 0.9685 0.51781 0.54212 0.0
H75 H 0.09606 0.54511 0.56153 0.0
H76 H 0.10745 0.55917 0.58433 0.0
H77 H 0.0467 0.57653 0.59429 0.0
H78 H 0.03563 0.56298 0.57129 0.0
H79 H 0.03787 0.58105 0.54892 0.0
H80 H 0.04852 0.61101 0.53668 0.0
H81 H 0.09717 0.578 0.51726 0.0
H82 H 0.08688 0.54833 0.53016 0.0
H83 H 0.05121 0.51502 0.56679 0.0
H84 H 0.02204 0.49375 0.56628 0.0
H85 H -0.00163 0.52681 0.53076 0.0
N86 N 0.05938 0.54637 0.55052 0.0
H87 H 0.02703 0.54885 0.53183 0.0
C88 C 0.93451 0.45288 0.56658 0.0
C89 C 0.94283 0.43529 0.57203 0.0
C90 C 0.93765 0.42885 0.58565 0.0
C91 C 0.92397 0.43978 0.59404 0.0
C92 C 0.91613 0.45764 0.58871 0.0
C93 C 0.92141 0.46412 0.57512 0.0
C94 C 0.93177 0.44372 0.54165 0.0
C95 C 0.91125 0.44062 0.53947 0.0
C96 C 0.90433 0.42371 0.53219 0.0
C97 C 0.91784 0.4095 0.52665 0.0
C98 C 0.93848 0.41335 0.52794 0.0
C99 C 0.94539 0.43012 0.53547 0.0
C100 C 0.9557 0.47011 0.54963 0.0
C101 C 0.97484 0.46257 0.55272 0.0
C102 C -0.0083 0.47476 0.55176 0.0
C103 C -0.01015 0.49497 0.5481 0.0
C104 C 0.97069 0.50233 0.54477 0.0
C105 C 0.95387 0.48999 0.54548 0.0
C106 C 0.06507 0.55289 0.56473 0.0
C107 C 0.08522 0.55174 0.56874 0.0
C108 C 0.09166 0.55974 0.58179 0.0
C109 C 0.078 0.56904 0.59116 0.0
C110 C 0.05767 0.56976 0.58725 0.0
C111 C 0.05128 0.56187 0.57415 0.0
C112 C 0.06175 0.56244 0.54055 0.0
C113 C 0.05057 0.58016 0.5418 0.0
C114 C 0.05666 0.5973 0.53471 0.0
C115 C 0.07396 0.59707 0.52615 0.0
C116 C 0.08407 0.57888 0.52402 0.0
C117 C 0.07806 0.5618 0.5312 0.0
C118 C 0.04133 0.53428 0.54982 0.0
C119 C 0.0396 0.51802 0.55904 0.0
C120 C 0.02294 0.50555 0.55856 0.0
C121 C 0.00767 0.50843 0.54846 0.0
C122 C 0.00956 0.52434 0.53891 0.0
C123 C 0.02615 0.53707 0.53954 0.0
H124 H 0.57268 0.45374 0.81537 0.0
N125 N 0.53943 0.43966 0.80152 0.0
H126 H 0.58476 0.44367 0.83873 0.0
H127 H 0.52118 0.41587 0.81985 0.0
H128 H 0.53317 0.40569 0.84343 0.0
H129 H 0.54867 0.40342 0.79232 0.0
H130 H 0.57835 0.3931 0.77921 0.0
H131 H 0.56502 0.46496 0.78718 0.0
H132 H 0.59403 0.45489 0.77335 0.0
H133 H 0.55008 0.47828 0.808 0.0
H134 H 0.50192 0.44154 0.79223 0.0
H135 H 0.52853 0.50735 0.80731 0.0
H136 H 0.4797 0.47055 0.79222 0.0
H137 H 0.45205 0.5967 0.81582 0.0
H138 H 0.43881 0.60824 0.83878 0.0
H139 H 0.42141 0.54795 0.84845 0.0
H140 H 0.43402 0.53678 0.82525 0.0
H141 H 0.4164 0.537 0.80256 0.0
H142 H 0.38497 0.54661 0.79121 0.0
H143 H 0.41385 0.59837 0.77379 0.0
H144 H 0.44505 0.58892 0.78561 0.0
H145 H 0.48052 0.55009 0.82169 0.0
H146 H 0.50207 0.52119 0.82013 0.0
H147 H 0.47113 0.50161 0.78196 0.0
N148 N 0.45 0.56022 0.80449 0.0
H149 H 0.44885 0.53008 0.78388 0.0
C150 C 0.54587 0.43563 0.8159 0.0
C151 C 0.56371 0.44359 0.82152 0.0
C152 C 0.57064 0.43778 0.8349 0.0
C153 C 0.55994 0.42384 0.84292 0.0
C154 C 0.54186 0.41629 0.83743 0.0
C155 C 0.5349 0.42219 0.82406 0.0
C156 C 0.55445 0.43489 0.7909 0.0
C157 C 0.55829 0.41474 0.78791 0.0
C158 C 0.57533 0.40888 0.78034 0.0
C159 C 0.58891 0.42312 0.77529 0.0
C160 C 0.58428 0.44343 0.77738 0.0
C161 C 0.56738 0.44927 0.78521 0.0
C162 C 0.5277 0.45761 0.79999 0.0
C163 C 0.53491 0.47643 0.80425 0.0
C164 C 0.52238 0.49311 0.80404 0.0
C165 C 0.50219 0.49138 0.79989 0.0
C166 C 0.49516 0.47259 0.79533 0.0
C167 C 0.50782 0.45595 0.79536 0.0
C168 C 0.44414 0.56595 0.81883 0.0
C169 C 0.44559 0.586 0.823 0.0
C170 C 0.43806 0.59252 0.83615 0.0
C171 C 0.42896 0.57905 0.84549 0.0
C172 C 0.42798 0.55881 0.84144 0.0
C173 C 0.43536 0.55234 0.82822 0.0
C174 C 0.4331 0.56236 0.79498 0.0
C175 C 0.41608 0.55015 0.79603 0.0
C176 C 0.39811 0.55566 0.78948 0.0
C177 C 0.39679 0.57347 0.78178 0.0
C178 C 0.41424 0.58479 0.77988 0.0
C179 C 0.43216 0.57928 0.78645 0.0
C180 C 0.46205 0.54213 0.80345 0.0
C181 C 0.4779 0.53938 0.81315 0.0
C182 C 0.49058 0.52292 0.81209 0.0
C183 C 0.48841 0.5089 0.80093 0.0
C184 C 0.473 0.51181 0.79091 0.0
C185 C 0.46009 0.52825 0.79207 0.0
H186 H 0.45052 0.92559 0.06254 0.0
N187 N 0.4371 0.96127 0.05236 0.0
H188 H 0.44354 0.91197 0.08606 0.0
H189 H 0.42073 0.98027 0.0746 0.0
H190 H 0.41422 0.96682 0.09842 0.0
H191 H 0.3991 0.95281 0.04727 0.0
H192 H 0.38593 0.92352 0.035 0.0
H193 H 0.45874 0.93686 0.03384 0.0
H194 H 0.44564 0.90821 0.02094 0.0
H195 H 0.4762 0.94906 0.0542 0.0
H196 H 0.4384 -0.00083 0.04475 0.0
H197 H 0.50572 0.96975 0.05154 0.0
H198 H 0.46783 0.02051 0.04301 0.0
H199 H 0.59575 0.04595 0.06006 0.0
H200 H 0.60746 0.05828 0.08334 0.0
H201 H 0.54726 0.07687 0.09375 0.0
H202 H 0.53569 0.06431 0.07053 0.0
H203 H 0.5375 0.08301 0.04847 0.0
H204 H 0.54782 0.11332 0.03646 0.0
H205 H 0.59631 0.08097 0.01632 0.0
H206 H 0.58623 0.05088 0.02883 0.0
H207 H 0.55217 0.01538 0.06422 0.0
H208 H 0.52298 -0.00591 0.06387 0.0
H209 H 0.49671 0.03015 0.03087 0.0
N210 N 0.55898 0.04824 0.0493 0.0
H211 H 0.52542 0.05214 0.03183 0.0
C212 C 0.43586 0.95394 0.06675 0.0
C213 C 0.44277 0.93481 0.07031 0.0
C214 C 0.43873 0.92699 0.08373 0.0
C215 C 0.42819 0.93831 0.09394 0.0
C216 C 0.42238 0.95783 0.0907 0.0
C217 C 0.42609 0.96552 0.07716 0.0
C218 C 0.4299 0.94713 0.04174 0.0
C219 C 0.40927 0.94341 0.04121 0.0
C220 C 0.40176 0.92657 0.03414 0.0
C221 C 0.41472 0.91312 0.02716 0.0
C222 C 0.43523 0.91784 0.02658 0.0
C223 C 0.44278 0.93453 0.03388 0.0
C224 C 0.455 0.97251 0.04944 0.0
C225 C 0.47424 0.9645 0.05138 0.0
C226 C 0.49118 0.97652 0.05007 0.0
C227 C 0.48932 -0.003 0.04722 0.0
C228 C 0.47002 0.00482 0.045 0.0
C229 C 0.45312 -0.00733 0.04604 0.0
C230 C 0.56492 0.05412 0.06358 0.0
C231 C 0.58509 0.05248 0.06746 0.0
C232 C 0.59175 0.05967 0.08069 0.0
C233 C 0.57829 0.06864 0.09034 0.0
C234 C 0.55795 0.06989 0.08659 0.0
C235 C 0.55133 0.06279 0.07331 0.0
C236 C 0.56121 0.06464 0.0396 0.0
C237 C 0.55005 0.08233 0.04121 0.0
C238 C 0.55597 0.09967 0.03428 0.0
C239 C 0.57312 0.09969 0.02559 0.0
C240 C 0.58328 0.0816 0.02316 0.0
C241 C 0.57739 0.06431 0.03013 0.0
C242 C 0.54105 0.03601 0.04853 0.0
C243 C 0.54001 0.01897 0.05704 0.0
C244 C 0.52333 0.00652 0.05665 0.0
C245 C 0.5073 0.01027 0.04733 0.0
C246 C 0.50851 0.02697 0.03843 0.0
C247 C 0.52514 0.03967 0.03899 0.0
H248 H 0.07603 0.55523 0.944 0.0
N249 N 0.03936 0.56434 0.95543 0.0
H250 H 0.08817 0.56442 0.92066 0.0
H251 H 0.01811 0.57976 0.93418 0.0
H252 H 0.02958 0.58761 0.91016 0.0
H253 H 0.0467 0.60179 0.96281 0.0
H254 H 0.07557 0.61458 0.97579 0.0
H255 H 0.06514 0.54172 0.97185 0.0
H256 H 0.09336 0.55433 0.98551 0.0
H257 H 0.05263 0.52638 0.94988 0.0
H258 H 0.00232 0.56053 0.96524 0.0
H259 H 0.03304 0.49592 0.95132 0.0
H260 H 0.98216 0.5302 0.96613 0.0
H261 H 0.96022 0.40364 0.94269 0.0
H262 H 0.94565 0.39252 0.91994 0.0
H263 H 0.9234 0.45201 0.91289 0.0
H264 H 0.93822 0.46303 0.93551 0.0
H265 H 0.92292 0.46172 0.95874 0.0
H266 H 0.8925 0.45058 0.97057 0.0
H267 H 0.92376 0.39837 0.98528 0.0
H268 H 0.95401 0.40943 0.97306 0.0
H269 H 0.98663 0.45053 0.93758 0.0
H270 H 0.00692 0.48034 0.93877 0.0
H271 H 0.97617 0.49897 0.9772 0.0
N272 N 0.95699 0.43943 0.95504 0.0
H273 H 0.95529 0.46951 0.97575 0.0
C274 C 0.04619 0.56723 0.94098 0.0
C275 C 0.06578 0.56232 0.93671 0.0
C276 C 0.07266 0.56743 0.92319 0.0
C277 C 0.05998 0.57701 0.91341 0.0
C278 C 0.04003 0.58082 0.91747 0.0
C279 C 0.03331 0.57612 0.93114 0.0
C280 C 0.05362 0.57084 0.96617 0.0
C281 C 0.05656 0.59137 0.96806 0.0
C282 C 0.07315 0.59866 0.97554 0.0
C283 C 0.08714 0.58553 0.98157 0.0
C284 C 0.08328 0.56493 0.98068 0.0
C285 C 0.06684 0.55764 0.97296 0.0
C286 C 0.02895 0.54579 0.95757 0.0
C287 C 0.0374 0.52731 0.95371 0.0
C288 C 0.02604 0.50988 0.95438 0.0
C289 C 0.00586 0.51053 0.95869 0.0
C290 C -0.00233 0.52901 0.96292 0.0
C291 C 0.00913 0.5464 0.96238 0.0
C292 C 0.95038 0.43409 0.94079 0.0
C293 C 0.95248 0.41431 0.9361 0.0
C294 C 0.944 0.40797 0.92319 0.0
C295 C 0.93326 0.42137 0.91468 0.0
C296 C 0.93172 0.44138 0.91915 0.0
C297 C 0.94012 0.44768 0.93211 0.0
C298 C 0.94081 0.43633 0.96499 0.0
C299 C 0.92338 0.44815 0.96481 0.0
C300 C 0.90598 0.44175 0.97163 0.0
C301 C 0.9056 0.4234 0.97869 0.0
C302 C 0.92344 0.41238 0.97971 0.0
C303 C 0.94082 0.41881 0.97292 0.0
C304 C 0.96841 0.45788 0.95604 0.0
C305 C 0.98383 0.46118 0.94613 0.0
C306 C -0.00423 0.47817 0.94697 0.0
C307 C -0.00682 0.49224 0.95805 0.0
C308 C 0.97828 0.48873 0.96831 0.0
C309 C 0.96617 0.47173 0.96741 0.0
H310 H 0.51199 0.38674 0.18348 0.0
N311 N 0.51392 0.41833 0.20063 0.0
H312 H 0.52926 0.38138 0.16087 0.0
H313 H 0.53646 0.44586 0.18673 0.0
H314 H 0.55295 0.44121 0.16365 0.0
H315 H 0.55087 0.42979 0.21008 0.0
H316 H 0.57339 0.40967 0.22459 0.0
H317 H 0.50396 0.38686 0.21571 0.0
H318 H 0.5264 0.36624 0.22976 0.0
H319 H 0.47574 0.42172 0.19392 0.0
H320 H 0.52456 0.45394 0.21327 0.0
H321 H 0.45429 0.4509 0.19641 0.0
H322 H 0.50297 0.48316 0.21644 0.0
H323 H 0.38599 0.54073 0.19581 0.0
H324 H 0.37458 0.5532 0.17283 0.0
H325 H 0.43583 0.55435 0.1581 0.0
H326 H 0.44705 0.54295 0.18127 0.0
H327 H 0.448 0.56883 0.20196 0.0
H328 H 0.44328 0.60113 0.21371 0.0
H329 H 0.39616 0.57635 0.23943 0.0
H330 H 0.40086 0.54408 0.22742 0.0
H331 H 0.41421 0.49956 0.21118 0.0
H332 H 0.43656 0.47088 0.21259 0.0
H333 H 0.48692 0.50894 0.2035 0.0
N334 N 0.42342 0.53661 0.20474 0.0
H335 H 0.4645 0.53766 0.20301 0.0
C336 C 0.52275 0.41669 0.18667 0.0
C337 C 0.52077 0.39872 0.17909 0.0
C338 C 0.53059 0.39576 0.16612 0.0
C339 C 0.54248 0.41089 0.16031 0.0
C340 C 0.54416 0.42911 0.16785 0.0
C341 C 0.53453 0.43192 0.18098 0.0
C342 C 0.52566 0.40982 0.21191 0.0
C343 C 0.54521 0.41637 0.21485 0.0
C344 C 0.55817 0.40465 0.22298 0.0
C345 C 0.55187 0.38612 0.2282 0.0
C346 C 0.53181 0.38046 0.2261 0.0
C347 C 0.51888 0.39223 0.21806 0.0
C348 C 0.5016 0.43553 0.20352 0.0
C349 C 0.48167 0.43505 0.19898 0.0
C350 C 0.46941 0.45176 0.20052 0.0
C351 C 0.47676 0.46946 0.20678 0.0
C352 C 0.4968 0.46988 0.21148 0.0
C353 C 0.50916 0.45309 0.2098 0.0
C354 C 0.41729 0.54074 0.19031 0.0
C355 C 0.39687 0.54335 0.1875 0.0
C356 C 0.3904 0.55043 0.17432 0.0
C357 C 0.40428 0.55495 0.16358 0.0
C358 C 0.42472 0.55143 0.1662 0.0
C359 C 0.43118 0.5446 0.17945 0.0
C360 C 0.42475 0.55399 0.21386 0.0
C361 C 0.43718 0.57012 0.21048 0.0
C362 C 0.4344 0.58865 0.2172 0.0
C363 C 0.41912 0.59139 0.22736 0.0
C364 C 0.40781 0.57481 0.23147 0.0
C365 C 0.41063 0.55632 0.22477 0.0
C366 C 0.43755 0.52066 0.20678 0.0
C367 C 0.43012 0.5017 0.20971 0.0
C368 C 0.44294 0.4853 0.21036 0.0
C369 C 0.46358 0.48742 0.20785 0.0
C370 C 0.47116 0.50667 0.20554 0.0
C371 C 0.45829 0.52316 0.20511 0.0
H372 H 0.41065 0.96719 0.44385 0.0
N373 N 0.44567 0.95313 0.45512 0.0
H374 H 0.39697 0.9589 0.42033 0.0
H375 H 0.46404 0.93367 0.43397 0.0
H376 H 0.45045 0.92545 0.41028 0.0
H377 H 0.43743 0.91583 0.46145 0.0
H378 H 0.40824 0.90359 0.47395 0.0
H379 H 0.4208 0.97618 0.4723 0.0
H380 H 0.39226 0.96409 0.48558 0.0
H381 H 0.43446 -0.00782 0.45198 0.0
H382 H 0.48362 0.95401 0.46338 0.0
H383 H 0.45627 0.02109 0.45356 0.0
H384 H 0.50596 0.98277 0.4643 0.0
H385 H 0.53872 0.10757 0.44379 0.0
H386 H 0.55159 0.1182 0.42074 0.0
H387 H 0.56013 0.05656 0.40822 0.0
H388 H 0.54822 0.04622 0.43153 0.0
H389 H 0.5689 0.04409 0.453 0.0
H390 H 0.60243 0.04982 0.46264 0.0
H391 H 0.58188 0.10458 0.48246 0.0
H392 H 0.54838 0.09859 0.47286 0.0
H393 H 0.50457 0.06324 0.43848 0.0
H394 H 0.48183 0.03539 0.44021 0.0
H395 H 0.51577 0.0129 0.4758 0.0
N396 N 0.53779 0.07075 0.45394 0.0
H397 H 0.53906 0.04029 0.47373 0.0
C398 C 0.43838 0.95087 0.44069 0.0
C399 C 0.41959 0.95834 0.43654 0.0
C400 C 0.41172 0.9535 0.42312 0.0
C401 C 0.42259 0.94141 0.41355 0.0
C402 C 0.44181 0.93489 0.41742 0.0
C403 C 0.44957 0.93953 0.43092 0.0
C404 C 0.43143 0.94687 0.46576 0.0
C405 C 0.4279 0.92641 0.46702 0.0
C406 C 0.41112 0.91944 0.47424 0.0
C407 C 0.39752 0.93282 0.48067 0.0
C408 C 0.402 0.95332 0.48042 0.0
C409 C 0.41862 0.9603 0.47293 0.0
C410 C 0.45738 0.97085 0.45773 0.0
C411 C 0.4499 0.99002 0.45504 0.0
C412 C 0.46253 0.00658 0.45575 0.0
C413 C 0.48303 0.00435 0.45889 0.0
C414 C 0.49027 0.9852 0.46202 0.0
C415 C 0.47754 0.9687 0.46148 0.0
C416 C 0.5424 0.07618 0.4394 0.0
C417 C 0.54309 0.0964 0.43595 0.0
C418 C 0.55041 0.10241 0.42274 0.0
C419 C 0.55708 0.08825 0.4126 0.0
C420 C 0.55556 0.06791 0.41585 0.0
C421 C 0.54851 0.06194 0.42914 0.0
C422 C 0.55608 0.07099 0.46222 0.0
C423 C 0.57149 0.05705 0.45972 0.0
C424 C 0.59071 0.06045 0.46514 0.0
C425 C 0.59492 0.07781 0.47316 0.0
C426 C 0.57915 0.09098 0.47644 0.0
C427 C 0.55997 0.08758 0.471 0.0
C428 C 0.52459 0.05359 0.45528 0.0
C429 C 0.50753 0.05213 0.44648 0.0
C430 C 0.49419 0.03628 0.44766 0.0
C431 C 0.49698 0.02165 0.45806 0.0
C432 C 0.51343 0.02353 0.46738 0.0
C433 C 0.52693 0.03934 0.46611 0.0
H434 H 0.03875 0.92299 0.69245 0.0
N435 N 0.05219 0.95619 0.70679 0.0
H436 H 0.05079 0.91043 0.66962 0.0
H437 H 0.07658 0.97454 0.68888 0.0
H438 H 0.0882 0.96247 0.66554 0.0
H439 H 0.08763 0.9517 0.71896 0.0
H440 H 0.09969 0.92261 0.73177 0.0
H441 H 0.02814 0.9271 0.71831 0.0
H442 H 0.03999 0.89818 0.73117 0.0
H443 H 0.01344 0.94517 0.70076 0.0
H444 H 0.05031 -0.00605 0.71522 0.0
H445 H 0.98415 0.9665 0.70158 0.0
H446 H 0.02127 0.01605 0.71496 0.0
H447 H 0.89353 0.04765 0.69541 0.0
H448 H 0.8803 0.06027 0.67304 0.0
H449 H 0.94061 0.06516 0.65678 0.0
H450 H 0.95361 0.05405 0.67957 0.0
H451 H 0.95511 0.07887 0.69952 0.0
H452 H 0.94784 0.11244 0.70873 0.0
H453 H 0.90092 0.08877 0.73502 0.0
H454 H 0.90757 0.05529 0.72525 0.0
H455 H 0.93992 0.01303 0.6878 0.0
H456 H 0.9687 -0.00867 0.68928 0.0
H457 H -0.00885 0.02616 0.72494 0.0
N458 N 0.93165 0.04601 0.70355 0.0
H459 H 0.9631 0.04873 0.72281 0.0
C460 C 0.05692 0.94972 0.69245 0.0
C461 C 0.04935 0.93186 0.68662 0.0
C462 C 0.05621 0.9247 0.67345 0.0
C463 C 0.07061 0.93534 0.66574 0.0
C464 C 0.07742 0.95368 0.67131 0.0
C465 C 0.07067 0.96073 0.68456 0.0
C466 C 0.05706 0.94171 0.71753 0.0
C467 C 0.07702 0.94039 0.72204 0.0
C468 C 0.08389 0.9237 0.72935 0.0
C469 C 0.07086 0.9079 0.7323 0.0
C470 C 0.05049 0.90994 0.72881 0.0
C471 C 0.04363 0.92667 0.72151 0.0
C472 C 0.03414 0.96784 0.70828 0.0
C473 C 0.01525 0.96042 0.70434 0.0
C474 C -0.00155 0.97287 0.70452 0.0
C475 C 0.00017 -0.00678 0.7082 0.0
C476 C 0.01911 0.00047 0.7123 0.0
C477 C 0.03581 0.98788 0.71241 0.0
C478 C 0.92449 0.04973 0.68921 0.0
C479 C 0.90382 0.05112 0.6869 0.0
C480 C 0.89631 0.05831 0.67403 0.0
C481 C 0.90934 0.06398 0.66302 0.0
C482 C 0.93007 0.06148 0.66508 0.0
C483 C 0.93757 0.05477 0.67808 0.0
C484 C 0.93163 0.06458 0.71157 0.0
C485 C 0.94353 0.08081 0.70746 0.0
C486 C 0.93938 0.09996 0.71271 0.0
C487 C 0.92373 0.10309 0.72246 0.0
C488 C 0.91309 0.08666 0.72754 0.0
C489 C 0.91693 0.06758 0.72203 0.0
C490 C 0.94953 0.03356 0.70451 0.0
C491 C 0.95128 0.01648 0.6957 0.0
C492 C 0.96768 0.00369 0.69677 0.0
C493 C 0.98254 0.00692 0.70718 0.0
C494 C 0.98042 0.02344 0.71648 0.0
C495 C 0.96417 0.03651 0.71522 0.0
C496 C 0.35837 0.6506 0.03179 0.0
O497 O 0.37415 0.65227 0.02441 0.0
Cd498 Cd 0.37498 0.66318 0.00033 0.0
O499 O 0.34133 0.65508 0.02657 0.0
Cd500 Cd 0.32763 0.66781 0.00346 0.0
C501 C 0.35548 0.71033 0.00475 0.0
O502 O 0.3482 0.6463 0.98842 0.0
O503 O 0.33179 0.66896 0.97728 0.0
O504 O 0.29979 0.64483 0.00591 0.0
C505 C 0.34293 0.65367 0.97663 0.0
O506 O 0.37026 0.699 0.00189 0.0
C507 C 0.28594 0.65767 0.00504 0.0
O508 O 0.33805 0.70308 0.00657 0.0
O509 O 0.29135 0.67568 0.00371 0.0
C510 C 0.37556 0.85662 0.22969 0.0
O511 O 0.3897 0.85634 0.23875 0.0
Cd512 Cd 0.38717 0.84418 0.26238 0.0
O513 O 0.35803 0.85068 0.23298 0.0
Cd514 Cd 0.34039 0.83853 0.25489 0.0
C515 C 0.36945 0.79674 0.25565 0.0
O516 O 0.35815 0.86109 0.27081 0.0
O517 O 0.33919 0.84026 0.28146 0.0
O518 O 0.31243 0.85905 0.24678 0.0
C519 C 0.35078 0.85511 0.28238 0.0
O520 O 0.38352 0.80816 0.25983 0.0
C521 C 0.29883 0.84657 0.24963 0.0
O522 O 0.35229 0.80384 0.25258 0.0
O523 O 0.30458 0.82989 0.2544 0.0
C524 C 0.13619 0.86873 0.48156 0.0
O525 O 0.1352 0.88296 0.49058 0.0
Cd526 Cd 0.14912 0.88247 0.5139 0.0
O527 O 0.14377 0.85195 0.48493 0.0
Cd528 Cd 0.15672 0.83565 0.50721 0.0
C529 C 0.19737 0.86586 0.50659 0.0
O530 O 0.13511 0.8534 0.52377 0.0
O531 O 0.15872 0.83687 0.53372 0.0
O532 O 0.1347 0.80784 0.50137 0.0
C533 C 0.14327 0.84767 0.53517 0.0
O534 O 0.18523 0.87957 0.5104 0.0
C535 C 0.1476 0.79421 0.50306 0.0
O536 O 0.19119 0.84816 0.5042 0.0
O537 O 0.16525 0.7998 0.5062 0.0
C538 C 0.13433 0.63799 0.7766 0.0
O539 O 0.13309 0.62401 0.7674 0.0
Cd540 Cd 0.14765 0.62516 0.74432 0.0
O541 O 0.14241 0.65459 0.77352 0.0
Cd542 Cd 0.15608 0.67074 0.75149 0.0
C543 C 0.19607 0.63983 0.75256 0.0
O544 O 0.13399 0.65453 0.73433 0.0
O545 O 0.15952 0.66876 0.72511 0.0
O546 O 0.13512 0.69934 0.75773 0.0
C547 C 0.1431 0.6597 0.72319 0.0
O548 O 0.18391 0.62661 0.74799 0.0
C549 C 0.14827 0.71253 0.75555 0.0
O550 O 0.18996 0.65742 0.75547 0.0
O551 O 0.16555 0.70633 0.75197 0.0
C552 C 0.86274 0.13759 0.48093 0.0
O553 O 0.86327 0.12346 0.48977 0.0
Cd554 Cd 0.84554 0.12408 0.51171 0.0
O555 O 0.85386 0.15393 0.48401 0.0
Cd556 Cd 0.83744 0.16966 0.50552 0.0
C557 C 0.79805 0.13886 0.50097 0.0
O558 O 0.857 0.15328 0.52379 0.0
O559 O 0.82954 0.16662 0.53122 0.0
O560 O 0.8601 0.1976 0.50325 0.0
C561 C 0.84593 0.15809 0.53421 0.0
O562 O 0.8099 0.1255 0.50556 0.0
C563 C 0.84691 0.21117 0.50304 0.0
O564 O 0.80412 0.15666 0.49929 0.0
O565 O 0.82878 0.20555 0.50364 0.0
C566 C 0.86572 0.36119 0.72974 0.0
O567 O 0.87995 0.35879 0.73855 0.0
Cd568 Cd 0.87644 0.34764 0.7625 0.0
O569 O 0.84772 0.35741 0.73331 0.0
Cd570 Cd 0.83009 0.34491 0.75495 0.0
C571 C 0.8568 0.30167 0.75505 0.0
O572 O 0.84852 0.36536 0.77196 0.0
O573 O 0.83078 0.34227 0.78132 0.0
O574 O 0.80279 0.36815 0.75045 0.0
C575 C 0.8417 0.35751 0.78314 0.0
O576 O 0.87085 0.31188 0.76067 0.0
C577 C 0.78883 0.35541 0.75084 0.0
O578 O 0.84076 0.31001 0.75079 0.0
O579 O 0.79401 0.33741 0.75269 0.0
C580 C 0.64535 0.3705 0.97767 0.0
O581 O 0.64729 0.38553 0.98592 0.0
Cd582 Cd 0.65719 0.38508 0.01038 0.0
O583 O 0.64897 0.35296 0.98212 0.0
Cd584 Cd 0.66014 0.33715 0.00493 0.0
C585 C 0.70378 0.36392 0.00621 0.0
O586 O 0.63881 0.35808 0.01973 0.0
O587 O 0.65795 0.33833 0.03141 0.0
O588 O 0.63741 0.30991 0.99863 0.0
C589 C 0.64424 0.35137 0.03166 0.0
O590 O 0.6929 0.37874 0.00976 0.0
C591 C 0.64956 0.29591 0.00131 0.0
O592 O 0.69588 0.34712 0.00308 0.0
O593 O 0.66707 0.30102 0.00516 0.0
C594 C 0.64936 0.13255 0.27882 0.0
O595 O 0.65158 0.11693 0.2712 0.0
Cd596 Cd 0.66177 0.117 0.24673 0.0
O597 O 0.65304 0.14966 0.27374 0.0
Cd598 Cd 0.66514 0.16386 0.25082 0.0
C599 C 0.70853 0.13709 0.25093 0.0
O600 O 0.64352 0.14327 0.23562 0.0
O601 O 0.66548 0.16072 0.22462 0.0
O602 O 0.64268 0.19129 0.25706 0.0
C603 C 0.65052 0.1492 0.22387 0.0
O604 O 0.69772 0.12235 0.24717 0.0
C605 C 0.65452 0.20518 0.2537 0.0
O606 O 0.70057 0.15389 0.25401 0.0
O607 O 0.67175 0.19997 0.2493 0.0
H608 H 0.11821 0.89826 0.28028 0.0
H609 H 0.14666 0.87834 0.27229 0.0
H610 H 0.16861 0.92798 0.24822 0.0
H611 H 0.13953 0.94769 0.25549 0.0
H612 H 0.1771 0.89406 0.23454 0.0
H613 H 0.18452 0.91924 0.28268 0.0
H614 H 0.17454 0.92426 0.3078 0.0
H615 H 0.17549 0.86107 0.31409 0.0
H616 H 0.1852 0.85567 0.28893 0.0
H617 H 0.28255 0.88004 0.23809 0.0
H618 H 0.2477 0.89093 0.23914 0.0
H619 H 0.23167 0.8365 0.2601 0.0
H620 H 0.26659 0.82549 0.25912 0.0
H621 H 0.21846 0.8692 0.27456 0.0
H622 H 0.21564 0.84494 0.22648 0.0
H623 H 0.22658 0.84116 0.20148 0.0
H624 H 0.21835 0.90382 0.19515 0.0
H625 H 0.20762 0.90804 0.22018 0.0
C626 C 0.12868 0.9048 0.27291 0.0
C627 C 0.12664 0.92475 0.26871 0.0
C628 C 0.14512 0.89342 0.26848 0.0
C629 C 0.16008 0.90182 0.25997 0.0
C630 C 0.15738 0.92122 0.25492 0.0
C631 C 0.14082 0.93254 0.25921 0.0
C632 C 0.17927 0.89113 0.25735 0.0
C633 C 0.1862 0.8887 0.24329 0.0
C634 C 0.19103 0.88382 0.26874 0.0
C635 C 0.18537 0.88704 0.28389 0.0
C636 C 0.18247 0.90642 0.2894 0.0
C637 C 0.17688 0.90933 0.30364 0.0
C638 C 0.17432 0.89299 0.31252 0.0
C639 C 0.17743 0.87371 0.30719 0.0
C640 C 0.18298 0.87071 0.29294 0.0
C641 C 0.27157 0.87022 0.2427 0.0
C642 C 0.27737 0.85192 0.24857 0.0
C643 C 0.25161 0.87644 0.24324 0.0
C644 C 0.23704 0.8645 0.24964 0.0
C645 C 0.24266 0.84593 0.25509 0.0
C646 C 0.26262 0.83964 0.25448 0.0
C647 C 0.21638 0.87222 0.25176 0.0
C648 C 0.20923 0.87421 0.26577 0.0
C649 C 0.20458 0.87929 0.24034 0.0
C650 C 0.21097 0.87682 0.22526 0.0
C651 C 0.21631 0.85794 0.2198 0.0
C652 C 0.22245 0.85572 0.20561 0.0
C653 C 0.2232 0.87225 0.19674 0.0
C654 C 0.21777 0.89103 0.20204 0.0
C655 C 0.21163 0.89334 0.21622 0.0
H656 H 0.22796 0.87049 0.18576 0.0
H657 H 0.16999 0.89528 0.32355 0.0
H658 H 0.11343 0.60772 0.52476 0.0
H659 H 0.12745 0.63965 0.518 0.0
H660 H 0.06819 0.66195 0.50935 0.0
H661 H 0.05402 0.62961 0.51549 0.0
H662 H 0.09476 0.67491 0.48975 0.0
H663 H 0.09177 0.67203 0.54122 0.0
H664 H 0.09867 0.65718 0.56466 0.0
H665 H 0.16181 0.66134 0.55702 0.0
H666 H 0.15529 0.67601 0.53347 0.0
H667 H 0.11072 0.77874 0.49733 0.0
H668 H 0.10025 0.74408 0.49858 0.0
H669 H 0.16076 0.7266 0.50852 0.0
H670 H 0.17131 0.76147 0.50755 0.0
H671 H 0.13549 0.71016 0.52644 0.0
H672 H 0.13898 0.71514 0.47582 0.0
H673 H 0.13258 0.72958 0.4522 0.0
H674 H 0.06944 0.72128 0.45781 0.0
H675 H 0.07544 0.70703 0.48156 0.0
C676 C 0.10334 0.61919 0.52109 0.0
C677 C 0.08252 0.61602 0.52072 0.0
C678 C 0.1114 0.63757 0.51739 0.0
C679 C 0.09886 0.65334 0.51342 0.0
C680 C 0.07816 0.65004 0.51247 0.0
C681 C 0.07007 0.63158 0.5161 0.0
C682 C 0.10725 0.67348 0.5109 0.0
C683 C 0.1035 0.68272 0.49782 0.0
C684 C 0.11912 0.68346 0.52127 0.0
C685 C 0.12304 0.67493 0.53553 0.0
C686 C 0.10712 0.66967 0.54451 0.0
C687 C 0.11097 0.6613 0.55782 0.0
C688 C 0.13066 0.65825 0.56229 0.0
C689 C 0.14656 0.66368 0.55352 0.0
C690 C 0.1428 0.67204 0.5402 0.0
C691 C 0.12189 0.76752 0.4996 0.0
C692 C 0.14186 0.7729 0.50235 0.0
C693 C 0.11588 0.74765 0.50024 0.0
C694 C 0.12973 0.73264 0.50351 0.0
C695 C 0.1498 0.7379 0.50596 0.0
C696 C 0.15582 0.75783 0.50535 0.0
C697 C 0.12294 0.71173 0.5053 0.0
C698 C 0.12692 0.70234 0.51829 0.0
C699 C 0.11134 0.70162 0.49482 0.0
C700 C 0.10766 0.71017 0.48053 0.0
C701 C 0.12372 0.71654 0.47207 0.0
C702 C 0.12016 0.72466 0.45865 0.0
C703 C 0.10061 0.72639 0.45352 0.0
C704 C 0.08457 0.71995 0.4618 0.0
C705 C 0.08805 0.71182 0.47523 0.0
H706 H 0.09789 0.73268 0.44312 0.0
H707 H 0.13362 0.6517 0.57256 0.0
H708 H 0.383 0.61176 0.78336 0.0
H709 H 0.34988 0.62421 0.7771 0.0
H710 H 0.33221 0.56515 0.76368 0.0
H711 H 0.36564 0.55261 0.76956 0.0
H712 H 0.31866 0.59365 0.74531 0.0
H713 H 0.31868 0.58303 0.79598 0.0
H714 H 0.33133 0.58685 0.8206 0.0
H715 H 0.32276 0.65011 0.81862 0.0
H716 H 0.31032 0.6467 0.7939 0.0
H717 H 0.21365 0.60366 0.74753 0.0
H718 H 0.24838 0.59416 0.75134 0.0
H719 H 0.26189 0.65377 0.76602 0.0
H720 H 0.22688 0.66341 0.76242 0.0
H721 H 0.27828 0.62662 0.78325 0.0
H722 H 0.27694 0.63737 0.73301 0.0
H723 H 0.26446 0.6338 0.70834 0.0
H724 H 0.27568 0.57088 0.7093 0.0
H725 H 0.28797 0.57402 0.73406 0.0
C726 C 0.37224 0.60144 0.77881 0.0
C727 C 0.37702 0.58115 0.77695 0.0
C728 C 0.35321 0.60857 0.77538 0.0
C729 C 0.33847 0.59557 0.7701 0.0
C730 C 0.34334 0.57544 0.7678 0.0
C731 C 0.3624 0.56827 0.77125 0.0
C732 C 0.31785 0.60291 0.76737 0.0
C733 C 0.30973 0.60065 0.75363 0.0
C734 C 0.30641 0.61255 0.77815 0.0
C735 C 0.31376 0.61462 0.79304 0.0
C736 C 0.31963 0.59777 0.80076 0.0
C737 C 0.32674 0.59986 0.81473 0.0
C738 C 0.3279 0.61872 0.82115 0.0
C739 C 0.32189 0.63552 0.81362 0.0
C740 C 0.31479 0.63351 0.79963 0.0
C741 C 0.22396 0.61484 0.75152 0.0
C742 C 0.21741 0.63435 0.75464 0.0
C743 C 0.24389 0.60938 0.75363 0.0
C744 C 0.25785 0.6233 0.75878 0.0
C745 C 0.2514 0.64278 0.76198 0.0
C746 C 0.23139 0.64828 0.75989 0.0
C747 C 0.27899 0.61726 0.76118 0.0
C748 C 0.28722 0.61973 0.77488 0.0
C749 C 0.29055 0.60786 0.75035 0.0
C750 C 0.28322 0.60591 0.73544 0.0
C751 C 0.2766 0.62274 0.72801 0.0
C752 C 0.26959 0.6208 0.714 0.0
C753 C 0.26924 0.60212 0.70727 0.0
C754 C 0.27594 0.58534 0.71453 0.0
C755 C 0.28296 0.5872 0.72855 0.0
H756 H 0.2638 0.60065 0.69642 0.0
H757 H 0.3334 0.6203 0.83198 0.0
H758 H 0.43402 0.87703 0.02752 0.0
H759 H 0.42089 0.84449 0.02076 0.0
H760 H 0.36473 0.87123 0.00896 0.0
H761 H 0.37803 0.9042 0.01503 0.0
H762 H 0.36179 0.83776 0.02799 0.0
H763 H 0.3911 0.85463 0.98324 0.0
H764 H 0.41773 0.86652 0.96733 0.0
H765 H 0.4558 0.81849 0.98031 0.0
H766 H 0.42951 0.80647 0.99647 0.0
H767 H 0.32792 0.74094 0.00461 0.0
H768 H 0.33477 0.7768 0.00597 0.0
H769 H 0.39793 0.76447 0.0096 0.0
H770 H 0.3913 0.72899 0.00779 0.0
H771 H 0.39312 0.79298 0.9919 0.0
H772 H 0.36714 0.7788 0.03877 0.0
H773 H 0.34212 0.76696 0.05599 0.0
H774 H 0.2996 0.80952 0.04046 0.0
H775 H 0.32431 0.82145 0.02303 0.0
C776 C 0.41907 0.87623 0.0231 0.0
C777 C 0.40718 0.89345 0.0218 0.0
C778 C 0.41152 0.8575 0.01937 0.0
C779 C 0.39185 0.85546 0.01437 0.0
C780 C 0.37994 0.87251 0.01286 0.0
C781 C 0.38758 0.89134 0.0164 0.0
C782 C 0.3837 0.83533 0.01125 0.0
C783 C 0.36832 0.82805 0.0199 0.0
C784 C 0.39254 0.82261 0.00091 0.0
C785 C 0.40837 0.82973 0.99115 0.0
C786 C 0.40521 0.84669 0.98279 0.0
C787 C 0.42023 0.85344 0.97371 0.0
C788 C 0.43846 0.84329 0.97283 0.0
C789 C 0.44168 0.82634 0.98101 0.0
C790 C 0.42671 0.81954 0.99012 0.0
C791 C 0.34325 0.74592 0.00573 0.0
C792 C 0.35905 0.73208 0.00606 0.0
C793 C 0.34715 0.76642 0.00655 0.0
C794 C 0.3669 0.77341 0.00797 0.0
C795 C 0.3826 0.75954 0.0084 0.0
C796 C 0.37875 0.73918 0.00741 0.0
C797 C 0.37156 0.79507 0.00894 0.0
C798 C 0.38631 0.8027 -0.00014 0.0
C799 C 0.36233 0.80802 0.01903 0.0
C800 C 0.34747 0.80084 0.02948 0.0
C801 C 0.35239 0.78552 0.03895 0.0
C802 C 0.33828 0.77882 0.04876 0.0
C803 C 0.31926 0.78744 0.04928 0.0
C804 C 0.31433 0.80283 0.04002 0.0
C805 C 0.32838 0.80957 0.03018 0.0
H806 H 0.30836 0.78223 0.05689 0.0
H807 H 0.45007 0.84853 0.9658 0.0
H808 H 0.12427 0.56805 0.98008 0.0
H809 H 0.15623 0.58188 0.98772 0.0
H810 H 0.12651 0.63487 0.00319 0.0
H811 H 0.09416 0.62076 0.99628 0.0
H812 H 0.15959 0.64131 0.98383 0.0
H813 H 0.14467 0.60694 0.02698 0.0
H814 H 0.13462 0.57817 0.04133 0.0
H815 H 0.18536 0.54508 0.02593 0.0
H816 H 0.19557 0.57356 0.01131 0.0
H817 H 0.25263 0.68143 0.00776 0.0
H818 H 0.21753 0.67099 0.00702 0.0
H819 H 0.2362 0.60992 0.00095 0.0
H820 H 0.27109 0.62014 0.00228 0.0
H821 H 0.2065 0.61029 0.01807 0.0
H822 H 0.21929 0.64101 0.97284 0.0
H823 H 0.22949 0.66796 0.95681 0.0
H824 H 0.18338 0.70574 0.97407 0.0
H825 H 0.17306 0.67908 0.99034 0.0
C826 C 0.1243 0.58239 0.98549 0.0
C827 C 0.10644 0.59322 0.98753 0.0
C828 C 0.14269 0.59035 0.98975 0.0
C829 C 0.14373 0.60939 0.996 0.0
C830 C 0.12602 0.62016 0.99832 0.0
C831 C 0.10754 0.61208 0.99427 0.0
C832 C 0.16347 0.61834 0.99937 0.0
C833 C 0.16974 0.63482 0.99153 0.0
C834 C 0.17683 0.60948 0.00912 0.0
C835 C 0.17079 0.59235 0.01796 0.0
C836 C 0.1536 0.59348 0.02656 0.0
C837 C 0.14789 0.57723 0.03476 0.0
C838 C 0.15932 0.5598 0.03452 0.0
C839 C 0.17652 0.55859 0.0261 0.0
C840 C 0.18228 0.5748 0.01787 0.0
C841 C 0.24921 0.66578 0.00634 0.0
C842 C 0.26464 0.65163 0.00503 0.0
C843 C 0.22914 0.65982 0.00585 0.0
C844 C 0.22413 0.63966 0.00371 0.0
C845 C 0.23959 0.62554 0.00264 0.0
C846 C 0.25958 0.63143 0.00335 0.0
C847 C 0.20291 0.63311 0.00231 0.0
C848 C 0.19633 0.61703 0.01051 0.0
C849 C 0.18937 0.64211 0.99267 0.0
C850 C 0.19557 0.65815 0.98293 0.0
C851 C 0.21143 0.65513 0.9733 0.0
C852 C 0.21722 0.67033 0.96415 0.0
C853 C 0.20714 0.68858 0.96446 0.0
C854 C 0.19121 0.69162 0.97387 0.0
C855 C 0.18538 0.67647 0.98305 0.0
H856 H 0.21163 0.70033 0.95737 0.0
H857 H 0.15488 0.54723 0.04088 0.0
H858 H 0.444 0.62197 0.23568 0.0
H859 H 0.43449 0.65624 0.24198 0.0
H860 H 0.37227 0.64111 0.23657 0.0
H861 H 0.38163 0.60705 0.23004 0.0
H862 H 0.38194 0.67498 0.22265 0.0
H863 H 0.39113 0.64841 0.2695 0.0
H864 H 0.40935 0.63119 0.28862 0.0
H865 H 0.45559 0.67539 0.28749 0.0
H866 H 0.43778 0.69274 0.2682 0.0
H867 H 0.34284 0.76674 0.24923 0.0
H868 H 0.35015 0.73125 0.24594 0.0
H869 H 0.41255 0.74238 0.25462 0.0
H870 H 0.40533 0.77763 0.25829 0.0
H871 H 0.40162 0.70988 0.26748 0.0
H872 H 0.39408 0.73548 0.22011 0.0
H873 H 0.37691 0.75271 0.2005 0.0
H874 H 0.32888 0.71046 0.20203 0.0
H875 H 0.34566 0.69312 0.22179 0.0
C876 C 0.4283 0.62594 0.23592 0.0
C877 C 0.41358 0.61174 0.23244 0.0
C878 C 0.42288 0.64548 0.2396 0.0
C879 C 0.40265 0.6512 0.23983 0.0
C880 C 0.38795 0.63702 0.23651 0.0
C881 C 0.39334 0.61749 0.23291 0.0
C882 C 0.3968 0.67216 0.24293 0.0
C883 C 0.38598 0.68253 0.23255 0.0
C884 C 0.40249 0.68214 0.25569 0.0
C885 C 0.41321 0.67177 0.26731 0.0
C886 C 0.40527 0.65437 0.27324 0.0
C887 C 0.41551 0.6446 0.28413 0.0
C888 C 0.43364 0.65216 0.28924 0.0
C889 C 0.44155 0.66954 0.2835 0.0
C890 C 0.43138 0.67936 0.2726 0.0
C891 C 0.35811 0.76162 0.25048 0.0
C892 C 0.3735 0.77509 0.25397 0.0
C893 C 0.36229 0.74132 0.24854 0.0
C894 C 0.38197 0.73414 0.24984 0.0
C895 C 0.39725 0.74752 0.25356 0.0
C896 C 0.39308 0.76773 0.25561 0.0
C897 C 0.38682 0.71278 0.24716 0.0
C898 C 0.39748 0.70232 0.25761 0.0
C899 C 0.38113 0.70275 0.23441 0.0
C900 C 0.37102 0.71314 0.22253 0.0
C901 C 0.37978 0.72996 0.21634 0.0
C902 C 0.37013 0.73973 0.20519 0.0
C903 C 0.35179 0.73272 0.20005 0.0
C904 C 0.34308 0.71589 0.20603 0.0
C905 C 0.35265 0.70608 0.21721 0.0
H906 H 0.34434 0.74029 0.19141 0.0
H907 H 0.44155 0.64458 0.29767 0.0
H908 H 0.38941 0.89719 0.49388 0.0
H909 H 0.35663 0.88374 0.50003 0.0
H910 H 0.32859 0.93842 0.48714 0.0
H911 H 0.36095 0.95161 0.4801 0.0
H912 H 0.31508 0.92099 0.51471 0.0
H913 H 0.32656 0.90476 0.46455 0.0
H914 H 0.34606 0.88991 0.44477 0.0
H915 H 0.34268 0.83262 0.46438 0.0
H916 H 0.32341 0.84722 0.4844 0.0
H917 H 0.21355 0.90283 0.50437 0.0
H918 H 0.24858 0.91178 0.50202 0.0
H919 H 0.26518 0.84971 0.50296 0.0
H920 H 0.22976 0.84053 0.50483 0.0
H921 H 0.2866 0.86757 0.48377 0.0
H922 H 0.27245 0.88151 0.53242 0.0
H923 H 0.25397 0.89513 0.5531 0.0
H924 H 0.26368 0.95453 0.53831 0.0
H925 H 0.28199 0.94127 0.51741 0.0
C926 C 0.37632 0.90639 0.49225 0.0
C927 C 0.37801 0.92552 0.48635 0.0
C928 C 0.3576 0.89869 0.49589 0.0
C929 C 0.34024 0.91007 0.49397 0.0
C930 C 0.34187 0.92945 0.48876 0.0
C931 C 0.36049 0.93702 0.48485 0.0
C932 C 0.32021 0.90153 0.49669 0.0
C933 C 0.30875 0.9094 0.50793 0.0
C934 C 0.31234 0.88591 0.48813 0.0
C935 C 0.32378 0.87712 0.47605 0.0
C936 C 0.33015 0.88904 0.46471 0.0
C937 C 0.34112 0.88066 0.45345 0.0
C938 C 0.34566 0.86035 0.45334 0.0
C939 C 0.33919 0.84836 0.46449 0.0
C940 C 0.32824 0.85667 0.47579 0.0
C941 C 0.2246 0.89102 0.50411 0.0
C942 C 0.21883 0.87094 0.50491 0.0
C943 C 0.2447 0.89619 0.50285 0.0
C944 C 0.25965 0.88148 0.50267 0.0
C945 C 0.25395 0.86136 0.50319 0.0
C946 C 0.23371 0.85612 0.50427 0.0
C947 C 0.28108 0.88732 0.50167 0.0
C948 C 0.2929 0.87896 0.49074 0.0
C949 C 0.28942 0.90228 0.5107 0.0
C950 C 0.27848 0.91037 0.52328 0.0
C951 C 0.27053 0.89748 0.53352 0.0
C952 C 0.2601 0.90513 0.54529 0.0
C953 C 0.25762 0.92568 0.54701 0.0
C954 C 0.26561 0.93862 0.53696 0.0
C955 C 0.27604 0.93104 0.52516 0.0
H956 H 0.24953 0.93158 0.55613 0.0
H957 H 0.35415 0.85389 0.44461 0.0
H958 H 0.09942 0.90155 0.75294 0.0
H959 H 0.11529 0.86983 0.75909 0.0
H960 H 0.07652 0.83902 0.72939 0.0
H961 H 0.06096 0.87053 0.72298 0.0
H962 H 0.10145 0.83427 0.76982 0.0
H963 H 0.10387 0.8043 0.71154 0.0
H964 H 0.10581 0.8175 0.68713 0.0
H965 H 0.13494 0.87014 0.70317 0.0
H966 H 0.13344 0.85715 0.72762 0.0
H967 H 0.11338 0.72949 0.76472 0.0
H968 H 0.1034 0.76438 0.76335 0.0
H969 H 0.16124 0.77918 0.74623 0.0
H970 H 0.17134 0.74415 0.74751 0.0
H971 H 0.13176 0.79454 0.73036 0.0
H972 H 0.14865 0.79426 0.77967 0.0
H973 H 0.14862 0.78227 0.80442 0.0
H974 H 0.08525 0.79201 0.80705 0.0
H975 H 0.08484 0.8038 0.78224 0.0
C976 C 0.09422 0.88799 0.74779 0.0
C977 C 0.07893 0.8886 0.73745 0.0
C978 C 0.10322 0.86988 0.75137 0.0
C979 C 0.09726 0.85211 0.74456 0.0
C980 C 0.08151 0.85259 0.73466 0.0
C981 C 0.07247 0.87062 0.73112 0.0
C982 C 0.10791 0.83312 0.74733 0.0
C983 C 0.10813 0.82558 0.76121 0.0
C984 C 0.11707 0.82203 0.73615 0.0
C985 C 0.11839 0.8298 0.72143 0.0
C986 C 0.11079 0.81864 0.70984 0.0
C987 C 0.11179 0.8261 0.696 0.0
C988 C 0.12045 0.84467 0.69361 0.0
C989 C 0.12818 0.85579 0.70504 0.0
C990 C 0.12724 0.8484 0.71889 0.0
C991 C 0.1241 0.74019 0.76085 0.0
C992 C 0.14315 0.73402 0.7562 0.0
C993 C 0.11839 0.76017 0.76012 0.0
C994 C 0.13159 0.77445 0.75476 0.0
C995 C 0.15081 0.76843 0.75042 0.0
C996 C 0.15658 0.74842 0.75121 0.0
C997 C 0.12478 0.79532 0.75279 0.0
C998 C 0.12525 0.80324 0.73901 0.0
C999 C 0.11653 0.80685 0.76412 0.0
C1000 C 0.1167 0.79978 0.77905 0.0
C1001 C 0.13468 0.7937 0.78549 0.0
C1002 C 0.13475 0.78697 0.79953 0.0
C1003 C 0.11694 0.78634 0.80729 0.0
C1004 C 0.09903 0.79249 0.80102 0.0
C1005 C 0.09887 0.79923 0.78697 0.0
H1006 H 0.11702 0.78112 0.81817 0.0
H1007 H 0.12121 0.85042 0.68289 0.0
H1008 H 0.59728 0.3898 0.75873 0.0
H1009 H 0.63016 0.37731 0.75153 0.0
H1010 H 0.65791 0.42955 0.76983 0.0
H1011 H 0.6254 0.44168 0.77786 0.0
H1012 H 0.67263 0.41597 0.74113 0.0
H1013 H 0.65906 0.39286 0.78924 0.0
H1014 H 0.63858 0.3757 0.80712 0.0
H1015 H 0.64171 0.32161 0.78227 0.0
H1016 H 0.66198 0.33857 0.76412 0.0
H1017 H 0.77384 0.39308 0.75259 0.0
H1018 H 0.73892 0.40332 0.75334 0.0
H1019 H 0.72056 0.34213 0.74785 0.0
H1020 H 0.7557 0.33168 0.74771 0.0
H1021 H 0.69908 0.35792 0.76743 0.0
H1022 H 0.71543 0.37838 0.72067 0.0
H1023 H 0.73479 0.39448 0.70169 0.0
H1024 H 0.72523 0.45159 0.72168 0.0
H1025 H 0.70604 0.43581 0.7409 0.0
C1026 C 0.61032 0.39867 0.7613 0.0
C1027 C 0.60851 0.41673 0.76904 0.0
C1028 C 0.6291 0.39155 0.75704 0.0
C1029 C 0.64642 0.40249 0.7602 0.0
C1030 C 0.64467 0.42095 0.76723 0.0
C1031 C 0.62597 0.42792 0.77173 0.0
C1032 C 0.6665 0.39414 0.75709 0.0
C1033 C 0.67854 0.40335 0.7469 0.0
C1034 C 0.67383 0.37727 0.76429 0.0
C1035 C 0.66181 0.36704 0.77525 0.0
C1036 C 0.65522 0.37736 0.78753 0.0
C1037 C 0.64369 0.36766 0.79772 0.0
C1038 C 0.63879 0.34759 0.79581 0.0
C1039 C 0.64548 0.33717 0.78372 0.0
C1040 C 0.657 0.34681 0.77348 0.0
C1041 C 0.7624 0.38179 0.75138 0.0
C1042 C 0.76756 0.36156 0.75005 0.0
C1043 C 0.74236 0.3877 0.75172 0.0
C1044 C 0.72697 0.37358 0.7504 0.0
C1045 C 0.73211 0.35335 0.74885 0.0
C1046 C 0.7522 0.34739 0.74872 0.0
C1047 C 0.70563 0.37991 0.75153 0.0
C1048 C 0.69325 0.37035 0.76141 0.0
C1049 C 0.69789 0.39627 0.74384 0.0
C1050 C 0.70941 0.40587 0.73229 0.0
C1051 C 0.71757 0.39436 0.72108 0.0
C1052 C 0.7285 0.40343 0.71026 0.0
C1053 C 0.73127 0.42404 0.71049 0.0
C1054 C 0.72308 0.43562 0.72152 0.0
C1055 C 0.71215 0.42662 0.73237 0.0
H1056 H 0.73974 0.43104 0.70211 0.0
H1057 H 0.62986 0.3401 0.80372 0.0
H1058 H 0.61239 0.1109 0.02479 0.0
H1059 H 0.62615 0.14306 0.0182 0.0
H1060 H 0.56686 0.16442 0.00854 0.0
H1061 H 0.55295 0.13192 0.01472 0.0
H1062 H 0.59475 0.17713 0.98897 0.0
H1063 H 0.58783 0.17586 0.04003 0.0
H1064 H 0.59263 0.16204 0.06403 0.0
H1065 H 0.65633 0.16651 0.05931 0.0
H1066 H 0.65191 0.18009 0.03517 0.0
H1067 H 0.61254 0.2813 0.99468 0.0
H1068 H 0.60086 0.24703 0.99646 0.0
H1069 H 0.66003 0.22833 0.00897 0.0
H1070 H 0.67176 0.26275 0.00747 0.0
H1071 H 0.63303 0.21358 0.02641 0.0
H1072 H 0.64015 0.21623 0.97575 0.0
H1073 H 0.63548 0.22979 0.95165 0.0
H1074 H 0.57191 0.22273 0.95541 0.0
H1075 H 0.57617 0.20938 0.97962 0.0
C1076 C 0.60226 0.12223 0.02096 0.0
C1077 C 0.58151 0.11877 0.0203 0.0
C1078 C 0.61016 0.14072 0.01733 0.0
C1079 C 0.59752 0.15625 0.01307 0.0
C1080 C 0.5769 0.15267 0.01186 0.0
C1081 C 0.56895 0.13414 0.01549 0.0
C1082 C 0.60576 0.17644 0.01055 0.0
C1083 C 0.60293 0.18522 0.99719 0.0
C1084 C 0.61685 0.1868 0.02117 0.0
C1085 C 0.61954 0.1788 0.03574 0.0
C1086 C 0.60287 0.17375 0.04406 0.0
C1087 C 0.60552 0.16599 0.0577 0.0
C1088 C 0.62477 0.16335 0.06318 0.0
C1089 C 0.64142 0.16853 0.05505 0.0
C1090 C 0.63885 0.17628 0.04139 0.0
C1091 C 0.62316 0.26987 0.99764 0.0
C1092 C 0.6431 0.27478 0.00094 0.0
C1093 C 0.61646 0.25023 0.99859 0.0
C1094 C 0.62958 0.23501 0.00274 0.0
C1095 C 0.64962 0.2398 0.00574 0.0
C1096 C 0.65633 0.25947 0.00482 0.0
C1097 C 0.62209 0.21437 0.00479 0.0
C1098 C 0.62499 0.2055 0.01811 0.0
C1099 C 0.6111 0.20396 0.99412 0.0
C1100 C 0.60848 0.21197 0.97955 0.0
C1101 C 0.62516 0.21772 0.97148 0.0
C1102 C 0.62259 0.22534 0.95779 0.0
C1103 C 0.60341 0.22716 0.95202 0.0
C1104 C 0.58676 0.22133 0.9599 0.0
C1105 C 0.58925 0.21371 0.9736 0.0
H1106 H 0.60145 0.23306 0.94141 0.0
H1107 H 0.6268 0.15733 0.07374 0.0
H1108 H 0.88625 0.0662 0.26114 0.0
H1109 H 0.85239 0.07714 0.25514 0.0
H1110 H 0.86182 0.1318 0.27886 0.0
H1111 H 0.89513 0.12059 0.28551 0.0
H1112 H 0.82726 0.11705 0.28557 0.0
H1113 H 0.86073 0.12991 0.24156 0.0
H1114 H 0.8816 0.1221 0.22054 0.0
H1115 H 0.83996 0.07692 0.20726 0.0
H1116 H 0.81896 0.08428 0.22831 0.0
H1117 H 0.73661 0.1626 0.26244 0.0
H1118 H 0.77246 0.15626 0.26562 0.0
H1119 H 0.76583 0.09857 0.24545 0.0
H1120 H 0.73023 0.10477 0.24213 0.0
H1121 H 0.79951 0.11703 0.23646 0.0
H1122 H 0.76741 0.103 0.28133 0.0
H1123 H 0.7466 0.11088 0.30237 0.0
H1124 H 0.78609 0.15881 0.3139 0.0
H1125 H 0.807 0.15137 0.29281 0.0
C1126 C 0.88113 0.08054 0.26509 0.0
C1127 C 0.89356 0.09252 0.27376 0.0
C1128 C 0.86181 0.08689 0.26152 0.0
C1129 C 0.85458 0.10542 0.26641 0.0
C1130 C 0.86704 0.11749 0.2749 0.0
C1131 C 0.88625 0.11112 0.27855 0.0
C1132 C 0.83373 0.11189 0.2633 0.0
C1133 C 0.82134 0.11737 0.27479 0.0
C1134 C 0.8258 0.11196 0.24928 0.0
C1135 C 0.83837 0.10753 0.23659 0.0
C1136 C 0.8561 0.11821 0.23422 0.0
C1137 C 0.86794 0.11388 0.22228 0.0
C1138 C 0.86213 0.09899 0.21259 0.0
C1139 C 0.84445 0.08843 0.21479 0.0
C1140 C 0.83256 0.09269 0.22671 0.0
C1141 C 0.74282 0.14864 0.25858 0.0
C1142 C 0.73048 0.13415 0.25213 0.0
C1143 C 0.7633 0.14501 0.26045 0.0
C1144 C 0.77179 0.12684 0.2559 0.0
C1145 C 0.75963 0.11267 0.24904 0.0
C1146 C 0.73922 0.11624 0.24723 0.0
C1147 C 0.79314 0.12212 0.25872 0.0
C1148 C 0.80557 0.1169 0.2472 0.0
C1149 C 0.80115 0.12233 0.27271 0.0
C1150 C 0.78863 0.12677 0.28541 0.0
C1151 C 0.77156 0.11532 0.28829 0.0
C1152 C 0.75977 0.11969 0.30024 0.0
C1153 C 0.76498 0.13538 0.30944 0.0
C1154 C 0.78205 0.14669 0.30675 0.0
C1155 C 0.79388 0.1424 0.2948 0.0
H1156 H 0.75584 0.13873 0.31869 0.0
H1157 H 0.87132 0.09567 0.20336 0.0
H1158 H 0.88327 0.40211 0.51127 0.0
H1159 H 0.8694 0.36974 0.50434 0.0
H1160 H 0.92169 0.34053 0.52102 0.0
H1161 H 0.93524 0.37254 0.52872 0.0
H1162 H 0.90753 0.32595 0.49311 0.0
H1163 H 0.88405 0.34149 0.54117 0.0
H1164 H 0.86694 0.3627 0.55905 0.0
H1165 H 0.81273 0.35979 0.53448 0.0
H1166 H 0.82964 0.33879 0.51633 0.0
H1167 H 0.88433 0.22651 0.50583 0.0
H1168 H 0.89424 0.2613 0.50655 0.0
H1169 H 0.8329 0.2791 0.49999 0.0
H1170 H 0.82271 0.244 0.49978 0.0
H1171 H 0.84848 0.30164 0.51968 0.0
H1172 H 0.8694 0.28309 0.47312 0.0
H1173 H 0.88556 0.26275 0.45431 0.0
H1174 H 0.94284 0.27235 0.47396 0.0
H1175 H 0.927 0.29252 0.49302 0.0
C1176 C 0.89185 0.38885 0.51355 0.0
C1177 C 0.9104 0.39011 0.52069 0.0
C1178 C 0.88393 0.37036 0.50946 0.0
C1179 C 0.8945 0.35277 0.51223 0.0
C1180 C 0.91336 0.35396 0.51873 0.0
C1181 C 0.92115 0.37238 0.52303 0.0
C1182 C 0.88554 0.33301 0.50911 0.0
C1183 C 0.89469 0.32053 0.49893 0.0
C1184 C 0.86835 0.32631 0.51636 0.0
C1185 C 0.85817 0.33879 0.52732 0.0
C1186 C 0.86853 0.34553 0.53952 0.0
C1187 C 0.85887 0.35748 0.54971 0.0
C1188 C 0.83878 0.36264 0.54788 0.0
C1189 C 0.8283 0.35581 0.53587 0.0
C1190 C 0.83792 0.34388 0.52563 0.0
C1191 C 0.87291 0.23777 0.50442 0.0
C1192 C 0.85272 0.23245 0.50269 0.0
C1193 C 0.87865 0.25773 0.50474 0.0
C1194 C 0.86441 0.27292 0.50304 0.0
C1195 C 0.8442 0.26768 0.50125 0.0
C1196 C 0.83839 0.24762 0.5011 0.0
C1197 C 0.87072 0.29418 0.50383 0.0
C1198 C 0.86112 0.30702 0.51361 0.0
C1199 C 0.88732 0.30132 0.49602 0.0
C1200 C 0.89697 0.28923 0.48456 0.0
C1201 C 0.88542 0.28076 0.47349 0.0
C1202 C 0.89453 0.26927 0.46277 0.0
C1203 C 0.91521 0.26623 0.46295 0.0
C1204 C 0.92683 0.27471 0.47384 0.0
C1205 C 0.91779 0.2862 0.48459 0.0
H1206 H 0.92223 0.25733 0.45465 0.0
H1207 H 0.83132 0.37189 0.55579 0.0
H1208 H 0.60897 0.09437 0.4982 0.0
H1209 H 0.64296 0.10597 0.50336 0.0
H1210 H 0.66229 0.08479 0.46197 0.0
H1211 H 0.62833 0.07371 0.45658 0.0
H1212 H 0.67852 0.08768 0.50519 0.0
H1213 H 0.69678 0.11705 0.44874 0.0
H1214 H 0.67902 0.13106 0.42806 0.0
H1215 H 0.6318 0.15172 0.45552 0.0
H1216 H 0.64943 0.13817 0.47639 0.0
H1217 H 0.7822 0.10155 0.49863 0.0
H1218 H 0.74749 0.09231 0.49427 0.0
H1219 H 0.73118 0.15436 0.49205 0.0
H1220 H 0.76616 0.16377 0.49604 0.0
H1221 H 0.71206 0.13393 0.47206 0.0
H1222 H 0.72189 0.12656 0.52231 0.0
H1223 H 0.73876 0.11463 0.54401 0.0
H1224 H 0.72779 0.05408 0.53104 0.0
H1225 H 0.71107 0.06564 0.50916 0.0
C1226 C 0.62046 0.09218 0.4902 0.0
C1227 C 0.61589 0.08313 0.47697 0.0
C1228 C 0.6399 0.09873 0.49319 0.0
C1229 C 0.65511 0.0965 0.48298 0.0
C1230 C 0.65074 0.08693 0.46994 0.0
C1231 C 0.63134 0.08038 0.46694 0.0
C1232 C 0.6755 0.10438 0.48586 0.0
C1233 C 0.68584 0.0978 0.49795 0.0
C1234 C 0.68494 0.11792 0.47657 0.0
C1235 C 0.67435 0.1264 0.46411 0.0
C1236 C 0.68265 0.12466 0.45037 0.0
C1237 C 0.67259 0.1325 0.43861 0.0
C1238 C 0.65425 0.1422 0.44047 0.0
C1239 C 0.64597 0.14414 0.45409 0.0
C1240 C 0.65598 0.13637 0.46589 0.0
C1241 C 0.77128 0.11328 0.4972 0.0
C1242 C 0.77697 0.13343 0.4978 0.0
C1243 C 0.75137 0.10795 0.49476 0.0
C1244 C 0.7366 0.12263 0.49312 0.0
C1245 C 0.74229 0.14276 0.49336 0.0
C1246 C 0.76229 0.14812 0.49566 0.0
C1247 C 0.71527 0.11686 0.49123 0.0
C1248 C 0.70473 0.12384 0.47932 0.0
C1249 C 0.70551 0.10397 0.50083 0.0
C1250 C 0.71536 0.09697 0.51405 0.0
C1251 C 0.72317 0.1107 0.52405 0.0
C1252 C 0.7327 0.104 0.53638 0.0
C1253 C 0.73438 0.08361 0.53888 0.0
C1254 C 0.72649 0.06987 0.52908 0.0
C1255 C 0.71696 0.07649 0.51672 0.0
H1256 H 0.74177 0.07845 0.54843 0.0
H1257 H 0.6465 0.14825 0.43136 0.0
H1258 H 0.92192 0.12107 0.74876 0.0
H1259 H 0.90913 0.15447 0.75452 0.0
H1260 H 0.89591 0.16354 0.70993 0.0
H1261 H 0.90991 0.13075 0.70417 0.0
H1262 H 0.90869 0.19578 0.71937 0.0
H1263 H 0.85906 0.15163 0.73674 0.0
H1264 H 0.84525 0.1236 0.75026 0.0
H1265 H 0.864 0.15137 0.78958 0.0
H1266 H 0.87818 0.17945 0.77628 0.0
H1267 H 0.84206 0.27795 0.73353 0.0
H1268 H 0.85139 0.24324 0.72814 0.0
H1269 H 0.88801 0.24207 0.76602 0.0
H1270 H 0.87926 0.27682 0.77124 0.0
H1271 H 0.86124 0.2061 0.75946 0.0
H1272 H 0.9121 0.25009 0.73946 0.0
H1273 H 0.92237 0.27814 0.72445 0.0
H1274 H 0.89598 0.24958 0.68775 0.0
H1275 H 0.88528 0.22149 0.70261 0.0
C1276 C 0.91644 0.13037 0.74024 0.0
C1277 C 0.91695 0.1235 0.72604 0.0
C1278 C 0.90893 0.14935 0.74352 0.0
C1279 C 0.90108 0.16149 0.73271 0.0
C1280 C 0.90184 0.15459 0.71849 0.0
C1281 C 0.90983 0.13585 0.71519 0.0
C1282 C 0.89224 0.18141 0.73615 0.0
C1283 C 0.89809 0.19785 0.72802 0.0
C1284 C 0.87839 0.18439 0.74744 0.0
C1285 C 0.86986 0.16755 0.7555 0.0
C1286 C 0.86037 0.15169 0.74826 0.0
C1287 C 0.85245 0.13581 0.75589 0.0
C1288 C 0.85379 0.13568 0.77077 0.0
C1289 C 0.863 0.15147 0.77805 0.0
C1290 C 0.87097 0.16739 0.77048 0.0
C1291 C 0.85183 0.27016 0.74082 0.0
C1292 C 0.86001 0.28008 0.75277 0.0
C1293 C 0.85717 0.2504 0.73772 0.0
C1294 C 0.87041 0.24019 0.74668 0.0
C1295 C 0.87774 0.24972 0.75901 0.0
C1296 C 0.87279 0.26957 0.76193 0.0
C1297 C 0.87783 0.22009 0.74274 0.0
C1298 C 0.87173 0.20376 0.75078 0.0
C1299 C 0.89098 0.21708 0.73112 0.0
C1300 C 0.8977 0.23381 0.72217 0.0
C1301 C 0.90834 0.24988 0.72821 0.0
C1302 C 0.91427 0.26577 0.71973 0.0
C1303 C 0.90978 0.26568 0.70516 0.0
C1304 C 0.89942 0.24965 0.69904 0.0
C1305 C 0.89343 0.23374 0.70748 0.0
H1306 H 0.91436 0.278 0.69861 0.0
H1307 H 0.84765 0.12337 0.77665 0.0
H1308 H 0.87489 0.44266 0.99266 0.0
H1309 H 0.8422 0.42909 0.99903 0.0
H1310 H 0.85999 0.37151 0.9825 0.0
H1311 H 0.89246 0.38507 0.97578 0.0
H1312 H 0.82369 0.38176 0.97278 0.0
H1313 H 0.85592 0.3795 0.01823 0.0
H1314 H 0.87508 0.39258 0.0388 0.0
H1315 H 0.82906 0.4358 0.04724 0.0
H1316 H 0.80973 0.42317 0.02659 0.0
H1317 H 0.73265 0.33748 0.99672 0.0
H1318 H 0.76854 0.3439 0.99385 0.0
H1319 H 0.76024 0.40365 0.01026 0.0
H1320 H 0.72477 0.39732 0.01339 0.0
H1321 H 0.7934 0.38825 0.0209 0.0
H1322 H 0.76328 0.39318 0.97407 0.0
H1323 H 0.74416 0.38088 0.95323 0.0
H1324 H 0.78635 0.33321 0.94726 0.0
H1325 H 0.80558 0.3451 0.9682 0.0
C1326 C 0.87187 0.42709 0.99044 0.0
C1327 C 0.88635 0.41495 0.98377 0.0
C1328 C 0.85323 0.41931 0.99418 0.0
C1329 C 0.84869 0.39922 0.99135 0.0
C1330 C 0.86318 0.38702 0.98484 0.0
C1331 C 0.88182 0.39477 0.98114 0.0
C1332 C 0.82851 0.39119 0.99458 0.0
C1333 C 0.8172 0.38284 0.98337 0.0
C1334 C 0.8199 0.39287 0.00833 0.0
C1335 C 0.83145 0.40048 0.02079 0.0
C1336 C 0.84995 0.39189 0.0244 0.0
C1337 C 0.86083 0.39921 0.03609 0.0
C1338 C 0.85331 0.41504 0.0443 0.0
C1339 C 0.83487 0.42355 0.04086 0.0
C1340 C 0.82394 0.4163 0.02918 0.0
C1341 C 0.73852 0.35191 -0.00017 0.0
C1342 C 0.72575 0.3669 0.0052 0.0
C1343 C 0.75902 0.35559 0.99813 0.0
C1344 C 0.76707 0.37435 0.00169 0.0
C1345 C 0.75443 0.38907 0.00744 0.0
C1346 C 0.73406 0.38541 0.00916 0.0
C1347 C 0.78846 0.37916 0.99904 0.0
C1348 C 0.79999 0.38693 0.01036 0.0
C1349 C 0.79725 0.37701 0.98537 0.0
C1350 C 0.78572 0.36988 0.9728 0.0
C1351 C 0.76838 0.37998 0.96838 0.0
C1352 C 0.75755 0.3731 0.95655 0.0
C1353 C 0.764 0.35623 0.94896 0.0
C1354 C 0.78134 0.34625 0.95317 0.0
C1355 C 0.79222 0.35305 0.96502 0.0
H1356 H 0.75559 0.35093 0.93979 0.0
H1357 H 0.86176 0.42068 0.05334 0.0
H1358 H 0.54626 0.35967 0.25002 0.0
H1359 H 0.56812 0.33224 0.25672 0.0
H1360 H 0.61279 0.35255 0.22714 0.0
H1361 H 0.59056 0.3793 0.21977 0.0
H1362 H 0.60703 0.31516 0.22289 0.0
H1363 H 0.61951 0.35452 0.26448 0.0
H1364 H 0.61143 0.3751 0.28568 0.0
H1365 H 0.58049 0.32587 0.30422 0.0
H1366 H 0.58814 0.30505 0.28304 0.0
H1367 H 0.67352 0.23752 0.2425 0.0
H1368 H 0.66052 0.27155 0.24078 0.0
H1369 H 0.60763 0.25444 0.26382 0.0
H1370 H 0.62047 0.22047 0.26557 0.0
H1371 H 0.62161 0.29222 0.27192 0.0
H1372 H 0.60621 0.25484 0.22864 0.0
H1373 H 0.61474 0.23452 0.20739 0.0
H1374 H 0.65242 0.28133 0.19216 0.0
H1375 H 0.64431 0.30183 0.21344 0.0
C1376 C 0.56079 0.35841 0.24499 0.0
C1377 C 0.56651 0.37169 0.23425 0.0
C1378 C 0.57342 0.34282 0.24898 0.0
C1379 C 0.59222 0.34031 0.2425 0.0
C1380 C 0.59838 0.35413 0.23231 0.0
C1381 C 0.58568 0.36961 0.22821 0.0
C1382 C 0.60454 0.32228 0.24533 0.0
C1383 C 0.61059 0.31045 0.23363 0.0
C1384 C 0.60891 0.3158 0.25933 0.0
C1385 C 0.60428 0.32826 0.27211 0.0
C1386 C 0.61085 0.34812 0.27303 0.0
C1387 C 0.60637 0.35982 0.28505 0.0
C1388 C 0.59542 0.35181 0.29628 0.0
C1389 C 0.58896 0.33206 0.29551 0.0
C1390 C 0.59339 0.32029 0.28351 0.0
C1391 C 0.65927 0.24108 0.24738 0.0
C1392 C 0.64795 0.22626 0.25406 0.0
C1393 C 0.65184 0.26052 0.24637 0.0
C1394 C 0.63302 0.26547 0.25206 0.0
C1395 C 0.62219 0.25095 0.25936 0.0
C1396 C 0.62951 0.23151 0.26029 0.0
C1397 C 0.62385 0.28526 0.2495 0.0
C1398 C 0.61832 0.29727 0.26122 0.0
C1399 C 0.62005 0.29203 0.23553 0.0
C1400 C 0.62485 0.27976 0.22271 0.0
C1401 C 0.61644 0.26073 0.22082 0.0
C1402 C 0.62118 0.2492 0.20876 0.0
C1403 C 0.63417 0.25661 0.19845 0.0
C1404 C 0.6424 0.2756 0.20016 0.0
C1405 C 0.63773 0.28718 0.21222 0.0
H1406 H 0.63781 0.24766 0.18912 0.0
H1407 H 0.59197 0.3609 0.30558 0.0
H1408 H 0.11452 0.91763 0.35074 0.0
H1409 H 0.12152 0.90163 0.37361 0.0
H1410 H 0.06548 0.92364 0.39026 0.0
H1411 H 0.05823 0.93935 0.36729 0.0
H1412 H 0.10217 0.93302 0.40668 0.0
H1413 H 0.06705 0.87777 0.38469 0.0
H1414 H 0.06085 0.85289 0.36562 0.0
H1415 H 0.11989 0.82902 0.37136 0.0
H1416 H 0.12655 0.85397 0.39034 0.0
H1417 H 0.10466 0.89173 0.47414 0.0
H1418 H 0.09361 0.90028 0.45019 0.0
H1419 H 0.13989 0.86283 0.43214 0.0
H1420 H 0.15031 0.85334 0.45627 0.0
H1421 H 0.1085 0.86067 0.41578 0.0
H1422 H 0.14551 0.91455 0.43603 0.0
H1423 H 0.15494 0.93989 0.45409 0.0
H1424 H 0.09711 0.96723 0.45031 0.0
H1425 H 0.08722 0.94188 0.43237 0.0
C1426 C 0.10362 0.91884 0.35925 0.0
C1427 C 0.08587 0.92973 0.35733 0.0
C1428 C 0.10758 0.90964 0.37224 0.0
C1429 C 0.09398 0.91145 0.38356 0.0
C1430 C 0.0761 0.92205 0.3816 0.0
C1431 C 0.07195 0.93094 0.36851 0.0
C1432 C 0.09913 0.90353 0.39775 0.0
C1433 C 0.10323 0.91721 0.40877 0.0
C1434 C 0.10139 0.88293 0.40019 0.0
C1435 C 0.09737 0.86787 0.38884 0.0
C1436 C 0.07878 0.86734 0.3818 0.0
C1437 C 0.07517 0.8532 0.37102 0.0
C1438 C 0.08999 0.83942 0.36725 0.0
C1439 C 0.10844 0.83972 0.37428 0.0
C1440 C 0.11213 0.85385 0.38505 0.0
C1441 C 0.11234 0.88514 0.46505 0.0
C1442 C 0.12849 0.87208 0.46702 0.0
C1443 C 0.10608 0.89012 0.45136 0.0
C1444 C 0.1163 0.88271 0.43933 0.0
C1445 C 0.13186 0.86887 0.44125 0.0
C1446 C 0.13783 0.86347 0.45501 0.0
C1447 C 0.11124 0.89019 0.4249 0.0
C1448 C 0.10735 0.8765 0.41377 0.0
C1449 C 0.10966 0.91086 0.42221 0.0
C1450 C 0.11556 0.9262 0.43295 0.0
C1451 C 0.13475 0.92589 0.43912 0.0
C1452 C 0.14019 0.94026 0.44933 0.0
C1453 C 0.12661 0.95513 0.45337 0.0
C1454 C 0.10759 0.95569 0.44718 0.0
C1455 C 0.10207 0.94133 0.43699 0.0
H1456 H 0.13085 0.96625 0.46127 0.0
H1457 H 0.08716 0.82848 0.35891 0.0
H1458 H 0.06547 0.6042 0.60339 0.0
H1459 H 0.07744 0.61992 0.62541 0.0
H1460 H 0.11921 0.57167 0.63128 0.0
H1461 H 0.10659 0.55533 0.60964 0.0
H1462 H 0.10277 0.58073 0.6556 0.0
H1463 H 0.13449 0.6176 0.61895 0.0
H1464 H 0.13648 0.63711 0.59694 0.0
H1465 H 0.09915 0.68243 0.61575 0.0
H1466 H 0.09676 0.66305 0.63786 0.0
H1467 H 0.16383 0.6606 0.698 0.0
H1468 H 0.15386 0.64574 0.67505 0.0
H1469 H 0.09749 0.62817 0.69327 0.0
H1470 H 0.10753 0.6425 0.71625 0.0
H1471 H 0.12449 0.65134 0.65642 0.0
H1472 H 0.08388 0.58331 0.68052 0.0
H1473 H 0.08565 0.56269 0.70207 0.0
H1474 H 0.1477 0.57748 0.70728 0.0
H1475 H 0.14638 0.59794 0.68565 0.0
C1476 C 0.077 0.59676 0.60946 0.0
C1477 C 0.08507 0.57848 0.60471 0.0
C1478 C 0.08403 0.60592 0.62196 0.0
C1479 C 0.09946 0.59715 0.62989 0.0
C1480 C 0.10736 0.57878 0.6253 0.0
C1481 C 0.10024 0.56954 0.61285 0.0
C1482 C 0.10719 0.607 0.64307 0.0
C1483 C 0.10752 0.59616 0.65576 0.0
C1484 C 0.11383 0.62702 0.64325 0.0
C1485 C 0.11531 0.63879 0.63001 0.0
C1486 C 0.12659 0.63166 0.61836 0.0
C1487 C 0.1278 0.64271 0.60586 0.0
C1488 C 0.11789 0.66098 0.60492 0.0
C1489 C 0.1068 0.66826 0.61649 0.0
C1490 C 0.10553 0.65726 0.62902 0.0
C1491 C 0.14927 0.65368 0.69707 0.0
C1492 C 0.13656 0.6525 0.70896 0.0
C1493 C 0.14358 0.64523 0.68395 0.0
C1494 C 0.12509 0.63552 0.68251 0.0
C1495 C 0.11201 0.63519 0.69421 0.0
C1496 C 0.11775 0.64345 0.70732 0.0
C1497 C 0.11964 0.62517 0.66897 0.0
C1498 C 0.11974 0.63591 0.65623 0.0
C1499 C 0.11392 0.60488 0.66865 0.0
C1500 C 0.11496 0.59231 0.68154 0.0
C1501 C 0.09792 0.58208 0.68623 0.0
C1502 C 0.09884 0.57043 0.69846 0.0
C1503 C 0.11676 0.56882 0.70606 0.0
C1504 C 0.13381 0.57879 0.70141 0.0
C1505 C 0.13298 0.59043 0.68917 0.0
H1506 H 0.11743 0.55982 0.71554 0.0
H1507 H 0.11884 0.66952 0.59523 0.0
H1508 H 0.44318 0.60789 0.86389 0.0
H1509 H 0.42772 0.62035 0.88583 0.0
H1510 H 0.37947 0.57838 0.8804 0.0
H1511 H 0.3942 0.56663 0.85802 0.0
H1512 H 0.36478 0.61241 0.88859 0.0
H1513 H 0.41811 0.5709 0.90471 0.0
H1514 H 0.45281 0.5586 0.90634 0.0
H1515 H 0.47196 0.61561 0.92242 0.0
H1516 H 0.43741 0.62834 0.9207 0.0
H1517 H 0.36219 0.61843 0.97218 0.0
H1518 H 0.37562 0.60511 0.94981 0.0
H1519 H 0.35553 0.65765 0.92795 0.0
H1520 H 0.34141 0.67075 0.95027 0.0
H1521 H 0.40382 0.61691 0.93356 0.0
H1522 H 0.34545 0.64674 0.89324 0.0
H1523 H 0.30949 0.65495 0.89233 0.0
H1524 H 0.29802 0.61391 0.92606 0.0
H1525 H 0.33385 0.60526 0.92704 0.0
C1526 C 0.42917 0.60143 0.86727 0.0
C1527 C 0.42 0.58618 0.85917 0.0
C1528 C 0.42046 0.60843 0.87992 0.0
C1529 C 0.40256 0.60013 0.88489 0.0
C1530 C 0.39331 0.58498 0.87682 0.0
C1531 C 0.40191 0.5781 0.86409 0.0
C1532 C 0.39342 0.60727 0.89847 0.0
C1533 C 0.37332 0.6134 0.89842 0.0
C1534 C 0.40442 0.60823 0.91138 0.0
C1535 C 0.42521 0.60062 0.91245 0.0
C1536 C 0.42975 0.58086 0.90849 0.0
C1537 C 0.44938 0.5738 0.90945 0.0
C1538 C 0.46459 0.58633 0.91445 0.0
C1539 C 0.46017 0.60593 0.91853 0.0
C1540 C 0.44057 0.61307 0.91758 0.0
C1541 C 0.36053 0.62711 0.96259 0.0
C1542 C 0.35071 0.64562 0.96297 0.0
C1543 C 0.36827 0.61949 0.94981 0.0
C1544 C 0.36649 0.63028 0.93715 0.0
C1545 C 0.35678 0.64886 0.93751 0.0
C1546 C 0.34879 0.65638 0.95029 0.0
C1547 C 0.3752 0.62218 0.92368 0.0
C1548 C 0.39526 0.61594 0.92373 0.0
C1549 C 0.36399 0.62056 0.91089 0.0
C1550 C 0.34237 0.62553 0.91031 0.0
C1551 C 0.33524 0.63943 0.90043 0.0
C1552 C 0.31488 0.64416 0.89991 0.0
C1553 C 0.30149 0.63501 0.90917 0.0
C1554 C 0.30842 0.62105 0.91894 0.0
C1555 C 0.32875 0.61624 0.91949 0.0
H1556 H 0.28574 0.63871 0.90876 0.0
H1557 H 0.47978 0.58084 0.91518 0.0
H1558 H 0.435 0.95279 0.12086 0.0
H1559 H 0.42507 0.93766 0.14351 0.0
H1560 H 0.39762 0.88897 0.12036 0.0
H1561 H 0.40793 0.90377 0.09773 0.0
H1562 H 0.37371 0.9092 0.14404 0.0
H1563 H 0.43699 0.87719 0.13331 0.0
H1564 H 0.47278 0.87699 0.127 0.0
H1565 H 0.4863 0.91122 0.16481 0.0
H1566 H 0.45052 0.91189 0.17123 0.0
H1567 H 0.35633 0.8479 0.20449 0.0
H1568 H 0.36434 0.86059 0.18077 0.0
H1569 H 0.41122 0.89686 0.19921 0.0
H1570 H 0.404 0.88344 0.22263 0.0
H1571 H 0.42482 0.88146 0.17669 0.0
H1572 H 0.36329 0.9154 0.18771 0.0
H1573 H 0.32776 0.91829 0.19447 0.0
H1574 H 0.31088 0.88425 0.15727 0.0
H1575 H 0.34635 0.88094 0.15038 0.0
C1576 C 0.42687 0.93886 0.12065 0.0
C1577 C 0.42232 0.92934 0.10762 0.0
C1578 C 0.42122 0.93027 0.13354 0.0
C1579 C 0.41063 0.91225 0.13354 0.0
C1580 C 0.40576 0.9029 0.12053 0.0
C1581 C 0.41176 0.91127 0.10767 0.0
C1582 C 0.40497 0.90299 0.14716 0.0
C1583 C 0.38478 0.90288 0.15116 0.0
C1584 C 0.41954 0.89524 0.15648 0.0
C1585 C 0.44106 0.89477 0.15267 0.0
C1586 C 0.44757 0.88484 0.14021 0.0
C1587 C 0.46786 0.8846 0.13663 0.0
C1588 C 0.4818 0.89413 0.14548 0.0
C1589 C 0.47548 0.90387 0.15795 0.0
C1590 C 0.4552 0.90417 0.16157 0.0
C1591 C 0.3683 0.85861 0.20343 0.0
C1592 C 0.37958 0.86463 0.21538 0.0
C1593 C 0.37281 0.86595 0.18989 0.0
C1594 C 0.38827 0.8799 0.18817 0.0
C1595 C 0.39932 0.88605 0.20018 0.0
C1596 C 0.39515 0.87839 0.2136 0.0
C1597 C 0.39341 0.88788 0.17389 0.0
C1598 C 0.41359 0.88771 0.16968 0.0
C1599 C 0.37882 0.89573 0.16451 0.0
C1600 C 0.35749 0.89773 0.16862 0.0
C1601 C 0.35201 0.9084 0.18103 0.0
C1602 C 0.33189 0.91014 0.18487 0.0
C1603 C 0.31708 0.90141 0.17633 0.0
C1604 C 0.32237 0.89097 0.16389 0.0
C1605 C 0.34248 0.88917 0.16001 0.0
H1606 H 0.30151 0.90277 0.17932 0.0
H1607 H 0.4975 0.89393 0.14269 0.0
H1608 H 0.08883 0.55916 0.89656 0.0
H1609 H 0.10319 0.57133 0.87455 0.0
H1610 H 0.06194 0.62083 0.87525 0.0
H1611 H 0.04893 0.60996 0.89803 0.0
H1612 H 0.09122 0.57507 0.8499 0.0
H1613 H 0.07928 0.6605 0.85821 0.0
H1614 H 0.0791 0.68519 0.87794 0.0
H1615 H 0.11629 0.64688 0.90299 0.0
H1616 H 0.11692 0.62209 0.88334 0.0
H1617 H 0.10078 0.61771 0.7833 0.0
H1618 H 0.08863 0.60933 0.80699 0.0
H1619 H 0.13827 0.641 0.82608 0.0
H1620 H 0.14972 0.65053 0.80225 0.0
H1621 H 0.10843 0.64594 0.84234 0.0
H1622 H 0.13768 0.58829 0.82135 0.0
H1623 H 0.14391 0.56246 0.80292 0.0
H1624 H 0.08292 0.54309 0.80592 0.0
H1625 H 0.07626 0.56898 0.82423 0.0
C1626 C 0.08306 0.5729 0.89226 0.0
C1627 C 0.06778 0.58361 0.8993 0.0
C1628 C 0.09116 0.57972 0.8795 0.0
C1629 C 0.08395 0.59723 0.87327 0.0
C1630 C 0.06821 0.60759 0.87998 0.0
C1631 C 0.06045 0.60106 0.89293 0.0
C1632 C 0.09256 0.60433 0.85959 0.0
C1633 C 0.09502 0.59057 0.84831 0.0
C1634 C 0.09812 0.62445 0.85751 0.0
C1635 C 0.09797 0.63936 0.86934 0.0
C1636 C 0.08748 0.65739 0.8679 0.0
C1637 C 0.08729 0.67139 0.87908 0.0
C1638 C 0.09762 0.66757 0.89173 0.0
C1639 C 0.10823 0.64978 0.89321 0.0
C1640 C 0.10849 0.63574 0.88206 0.0
C1641 C 0.10896 0.62306 0.79258 0.0
C1642 C 0.12627 0.63459 0.791 0.0
C1643 C 0.1021 0.61815 0.80612 0.0
C1644 C 0.11286 0.62396 0.81836 0.0
C1645 C 0.12976 0.63619 0.81682 0.0
C1646 C 0.13631 0.64162 0.80322 0.0
C1647 C 0.10673 0.61672 0.83265 0.0
C1648 C 0.10471 0.63043 0.844 0.0
C1649 C 0.1025 0.59637 0.83504 0.0
C1650 C 0.10644 0.58069 0.82408 0.0
C1651 C 0.12557 0.5786 0.81801 0.0
C1652 C 0.12918 0.56394 0.8076 0.0
C1653 C 0.11381 0.55117 0.80323 0.0
C1654 C 0.09481 0.553 0.8093 0.0
C1655 C 0.09111 0.56765 0.81971 0.0
H1656 H 0.11663 0.53984 0.79516 0.0
H1657 H 0.09744 0.67843 0.90037 0.0
H1658 H 0.42335 0.58395 0.1485 0.0
H1659 H 0.4121 0.60029 0.12693 0.0
H1660 H 0.35815 0.56517 0.12693 0.0
H1661 H 0.36995 0.54772 0.14807 0.0
H1662 H 0.37104 0.56789 0.10093 0.0
H1663 H 0.35855 0.61501 0.13806 0.0
H1664 H 0.36583 0.6358 0.15931 0.0
H1665 H 0.41129 0.66677 0.13619 0.0
H1666 H 0.40449 0.64596 0.11485 0.0
H1667 H 0.32939 0.63219 0.04752 0.0
H1668 H 0.33345 0.61658 0.0709 0.0
H1669 H 0.39494 0.63572 0.07237 0.0
H1670 H 0.39114 0.65101 0.04903 0.0
H1671 H 0.37306 0.64161 0.09855 0.0
H1672 H 0.38665 0.59074 0.06227 0.0
H1673 H 0.37781 0.57005 0.04127 0.0
H1674 H 0.3272 0.54671 0.06364 0.0
H1675 H 0.3356 0.5675 0.08472 0.0
C1676 C 0.40926 0.57936 0.14381 0.0
C1677 C 0.39759 0.56445 0.15009 0.0
C1678 C 0.40267 0.589 0.13157 0.0
C1679 C 0.38404 0.58432 0.12547 0.0
C1680 C 0.37249 0.56919 0.13152 0.0
C1681 C 0.3792 0.55933 0.14369 0.0
C1682 C 0.37687 0.5951 0.11268 0.0
C1683 C 0.37111 0.58402 0.10054 0.0
C1684 C 0.377 0.61618 0.11208 0.0
C1685 C 0.3811 0.62881 0.12487 0.0
C1686 C 0.3702 0.62616 0.13753 0.0
C1687 C 0.37422 0.63796 0.14959 0.0
C1688 C 0.38903 0.65257 0.14911 0.0
C1689 C 0.39982 0.65544 0.13655 0.0
C1690 C 0.39587 0.64366 0.12446 0.0
C1691 C 0.34369 0.63325 0.05292 0.0
C1692 C 0.35998 0.64273 0.04642 0.0
C1693 C 0.346 0.62429 0.06623 0.0
C1694 C 0.36452 0.62495 0.07329 0.0
C1695 C 0.38053 0.63508 0.06708 0.0
C1696 C 0.37835 0.64372 0.05372 0.0
C1697 C 0.36772 0.61436 0.08686 0.0
C1698 C 0.37271 0.6255 0.09911 0.0
C1699 C 0.36659 0.59339 0.08763 0.0
C1700 C 0.36161 0.58085 0.07499 0.0
C1701 C 0.37353 0.58133 0.06266 0.0
C1702 C 0.36862 0.56956 0.05075 0.0
C1703 C 0.35191 0.55712 0.0511 0.0
C1704 C 0.34011 0.55639 0.06337 0.0
C1705 C 0.34495 0.56815 0.07531 0.0
H1706 H 0.34814 0.54802 0.04187 0.0
H1707 H 0.39213 0.66169 0.15846 0.0
H1708 H 0.38543 0.9257 0.40967 0.0
H1709 H 0.371 0.91211 0.38757 0.0
H1710 H 0.42461 0.92764 0.36478 0.0
H1711 H 0.43918 0.94123 0.3869 0.0
H1712 H 0.38755 0.93732 0.3505 0.0
H1713 H 0.42005 0.88213 0.37415 0.0
H1714 H 0.42618 0.86019 0.39458 0.0
H1715 H 0.36436 0.84298 0.39452 0.0
H1716 H 0.35781 0.86505 0.37419 0.0
H1717 H 0.38158 0.88059 0.28744 0.0
H1718 H 0.39135 0.89603 0.31005 0.0
H1719 H 0.34258 0.86648 0.33114 0.0
H1720 H 0.33315 0.85031 0.30849 0.0
H1721 H 0.37424 0.86475 0.34712 0.0
H1722 H 0.34104 0.91726 0.32321 0.0
H1723 H 0.33299 0.9398 0.30346 0.0
H1724 H 0.39274 0.96307 0.30474 0.0
H1725 H 0.40124 0.94046 0.32437 0.0
C1726 C 0.39402 0.92646 0.3999 0.0
C1727 C 0.41342 0.93451 0.39997 0.0
C1728 C 0.38582 0.9186 0.38733 0.0
C1729 C 0.39681 0.91879 0.3746 0.0
C1730 C 0.41593 0.92737 0.37453 0.0
C1731 C 0.42425 0.93501 0.38714 0.0
C1732 C 0.38867 0.90942 0.36146 0.0
C1733 C 0.3848 0.92143 0.34966 0.0
C1734 C 0.38442 0.88883 0.36064 0.0
C1735 C 0.3884 0.8754 0.37275 0.0
C1736 C 0.40773 0.87379 0.37856 0.0
C1737 C 0.41129 0.86131 0.39011 0.0
C1738 C 0.39566 0.85024 0.39587 0.0
C1739 C 0.37645 0.85159 0.39006 0.0
C1740 C 0.37281 0.86406 0.37852 0.0
C1741 C 0.37289 0.87739 0.29688 0.0
C1742 C 0.35653 0.86432 0.29619 0.0
C1743 C 0.37842 0.88634 0.3098 0.0
C1744 C 0.36745 0.88278 0.32226 0.0
C1745 C 0.35121 0.86954 0.32165 0.0
C1746 C 0.34582 0.86033 0.30871 0.0
C1747 C 0.37334 0.89258 0.33594 0.0
C1748 C 0.37678 0.88067 0.3479 0.0
C1749 C 0.37687 0.91335 0.33698 0.0
C1750 C 0.37182 0.92704 0.32519 0.0
C1751 C 0.35251 0.92708 0.31921 0.0
C1752 C 0.34786 0.93989 0.30805 0.0
C1753 C 0.36236 0.95283 0.30283 0.0
C1754 C 0.38153 0.95303 0.30879 0.0
C1755 C 0.38626 0.94023 0.31995 0.0
H1756 H 0.35873 0.96273 0.29418 0.0
H1757 H 0.39844 0.84059 0.40482 0.0
H1758 H 0.05121 0.91428 0.64456 0.0
H1759 H 0.06584 0.89847 0.62337 0.0
H1760 H 0.12379 0.92156 0.63506 0.0
H1761 H 0.10949 0.93687 0.65653 0.0
H1762 H 0.11483 0.92655 0.60638 0.0
H1763 H 0.11546 0.87485 0.64082 0.0
H1764 H 0.10119 0.85304 0.65911 0.0
H1765 H 0.0599 0.82894 0.62833 0.0
H1766 H 0.07372 0.85085 0.60989 0.0
H1767 H 0.15726 0.83769 0.56166 0.0
H1768 H 0.14701 0.85202 0.58475 0.0
H1769 H 0.10428 0.88954 0.56342 0.0
H1770 H 0.11435 0.87538 0.54042 0.0
H1771 H 0.10992 0.8535 0.59841 0.0
H1772 H 0.10563 0.93526 0.57962 0.0
H1773 H 0.12177 0.95683 0.56195 0.0
H1774 H 0.17448 0.92025 0.56287 0.0
H1775 H 0.15877 0.89864 0.5807 0.0
C1776 C 0.0671 0.91588 0.64271 0.0
C1777 C 0.07916 0.92682 0.65232 0.0
C1778 C 0.07541 0.90689 0.63057 0.0
C1779 C 0.09592 0.90872 0.62774 0.0
C1780 C 0.10792 0.92001 0.63706 0.0
C1781 C 0.09967 0.92886 0.64928 0.0
C1782 C 0.10481 0.89879 0.61505 0.0
C1783 C 0.11379 0.91058 0.60464 0.0
C1784 C 0.10381 0.87791 0.61296 0.0
C1785 C 0.09551 0.86463 0.624 0.0
C1786 C 0.10323 0.86502 0.63797 0.0
C1787 C 0.09524 0.85262 0.64837 0.0
C1788 C 0.07962 0.83964 0.64489 0.0
C1789 C 0.07199 0.83901 0.63101 0.0
C1790 C 0.0799 0.85141 0.62057 0.0
C1791 C 0.14563 0.84894 0.56192 0.0
C1792 C 0.13668 0.85548 0.54922 0.0
C1793 C 0.13977 0.85706 0.5751 0.0
C1794 C 0.12505 0.87198 0.57575 0.0
C1795 C 0.11584 0.87821 0.56312 0.0
C1796 C 0.12158 0.87005 0.54999 0.0
C1797 C 0.1194 0.88135 0.58957 0.0
C1798 C 0.11103 0.86945 0.60018 0.0
C1799 C 0.12122 0.90211 0.59195 0.0
C1800 C 0.13094 0.91523 0.58141 0.0
C1801 C 0.1207 0.93188 0.57611 0.0
C1802 C 0.12977 0.9441 0.56605 0.0
C1803 C 0.14911 0.93988 0.56126 0.0
C1804 C 0.15946 0.92346 0.56655 0.0
C1805 C 0.15047 0.91121 0.57662 0.0
H1806 H 0.1561 0.94935 0.55347 0.0
H1807 H 0.07346 0.83004 0.65296 0.0
H1808 H 0.57731 0.44584 0.86434 0.0
H1809 H 0.59264 0.43374 0.88627 0.0
H1810 H 0.57662 0.37353 0.87454 0.0
H1811 H 0.56121 0.38556 0.85255 0.0
H1812 H 0.56984 0.38047 0.90239 0.0
H1813 H 0.62427 0.38939 0.87043 0.0
H1814 H 0.64528 0.4071 0.85315 0.0
H1815 H 0.65886 0.45178 0.88488 0.0
H1816 H 0.63769 0.43449 0.9023 0.0
H1817 H 0.63283 0.34243 0.95797 0.0
H1818 H 0.61929 0.3484 0.93405 0.0
H1819 H 0.62814 0.41152 0.94015 0.0
H1820 H 0.64169 0.40576 0.96387 0.0
H1821 H 0.63996 0.39895 0.91371 0.0
H1822 H 0.58259 0.39109 0.94477 0.0
H1823 H 0.56155 0.373 0.96184 0.0
H1824 H 0.55408 0.3253 0.93134 0.0
H1825 H 0.57531 0.34301 0.91415 0.0
C1826 C 0.57709 0.43002 0.86641 0.0
C1827 C 0.56814 0.41665 0.85667 0.0
C1828 C 0.58587 0.42311 0.87894 0.0
C1829 C 0.58608 0.40268 0.88193 0.0
C1830 C 0.57667 0.38935 0.87243 0.0
C1831 C 0.56781 0.39625 0.85991 0.0
C1832 C 0.59627 0.39534 0.89493 0.0
C1833 C 0.58528 0.38421 0.90475 0.0
C1834 C 0.61639 0.40032 0.89806 0.0
C1835 C 0.62926 0.41071 0.88764 0.0
C1836 C 0.63162 0.40307 0.8737 0.0
C1837 C 0.64358 0.41302 0.86388 0.0
C1838 C 0.65337 0.43057 0.86791 0.0
C1839 C 0.65126 0.43818 0.88178 0.0
C1840 C 0.6393 0.4283 0.89163 0.0
C1841 C 0.63203 0.35755 0.95416 0.0
C1842 C 0.63824 0.37362 0.96287 0.0
C1843 C 0.62422 0.36095 0.94052 0.0
C1844 C 0.62256 0.38043 0.93538 0.0
C1845 C 0.62928 0.39638 0.9439 0.0
C1846 C 0.63696 0.39304 0.9575 0.0
C1847 C 0.61338 0.38453 0.9213 0.0
C1848 C 0.6246 0.39501 0.91126 0.0
C1849 C 0.59353 0.37885 0.91795 0.0
C1850 C 0.58072 0.36826 0.92825 0.0
C1851 C 0.57659 0.37667 0.94175 0.0
C1852 C 0.56461 0.3665 0.95144 0.0
C1853 C 0.55653 0.34798 0.9477 0.0
C1854 C 0.56038 0.33962 0.93424 0.0
C1855 C 0.57237 0.34972 0.92452 0.0
H1856 H 0.54726 0.34013 0.95521 0.0
H1857 H 0.66262 0.43826 0.86029 0.0
H1858 H 0.56139 0.06528 0.11679 0.0
H1859 H 0.5734 0.07957 0.13937 0.0
H1860 H 0.62347 0.10566 0.11751 0.0
H1861 H 0.61163 0.09127 0.09495 0.0
H1862 H 0.6356 0.08938 0.14148 0.0
H1863 H 0.58284 0.13378 0.12824 0.0
H1864 H 0.5487 0.14318 0.12094 0.0
H1865 H 0.52521 0.11922 0.15969 0.0
H1866 H 0.55921 0.10941 0.16714 0.0
H1867 H 0.66527 0.156 0.19718 0.0
H1868 H 0.65268 0.14277 0.17442 0.0
H1869 H 0.60546 0.11235 0.19654 0.0
H1870 H 0.61791 0.12555 0.21932 0.0
H1871 H 0.59195 0.13125 0.17244 0.0
H1872 H 0.64533 0.08678 0.18538 0.0
H1873 H 0.67976 0.07813 0.1925 0.0
H1874 H 0.70236 0.10336 0.1539 0.0
H1875 H 0.66807 0.11242 0.14664 0.0
C1876 C 0.57489 0.07416 0.1168 0.0
C1877 C 0.58556 0.07715 0.1041 0.0
C1878 C 0.58174 0.08234 0.1297 0.0
C1879 C 0.59922 0.0939 0.13012 0.0
C1880 C 0.60997 0.09677 0.11746 0.0
C1881 C 0.60321 0.0885 0.10458 0.0
C1882 C 0.60647 0.10282 0.14376 0.0
C1883 C 0.62613 0.09876 0.14814 0.0
C1884 C 0.59401 0.11476 0.1526 0.0
C1885 C 0.57355 0.12069 0.14818 0.0
C1886 C 0.57038 0.13037 0.13515 0.0
C1887 C 0.55106 0.1358 0.131 0.0
C1888 C 0.53479 0.13175 0.13983 0.0
C1889 C 0.53782 0.12232 0.15285 0.0
C1890 C 0.55712 0.11684 0.15705 0.0
C1891 C 0.65218 0.14654 0.19719 0.0
C1892 C 0.64264 0.14173 0.21005 0.0
C1893 C 0.64504 0.13895 0.18419 0.0
C1894 C 0.62825 0.12643 0.18382 0.0
C1895 C 0.61845 0.12196 0.1966 0.0
C1896 C 0.62563 0.12946 0.20961 0.0
C1897 C 0.62103 0.11779 0.17011 0.0
C1898 C 0.60139 0.12189 0.16574 0.0
C1899 C 0.63354 0.10599 0.16123 0.0
C1900 C 0.65415 0.10046 0.16554 0.0
C1901 C 0.65766 0.09063 0.17846 0.0
C1902 C 0.67714 0.08563 0.18251 0.0
C1903 C 0.69324 0.09025 0.17367 0.0
C1904 C 0.68988 0.09982 0.16075 0.0
C1905 C 0.67042 0.10488 0.15665 0.0
H1906 H 0.70831 0.08636 0.17683 0.0
H1907 H 0.51984 0.13596 0.1366 0.0
H1908 H 0.90953 0.09778 0.35091 0.0
H1909 H 0.89639 0.10916 0.37406 0.0
H1910 H 0.95353 0.09727 0.39361 0.0
H1911 H 0.96691 0.08633 0.37035 0.0
H1912 H 0.91555 0.08004 0.40684 0.0
H1913 H 0.94582 0.14119 0.39039 0.0
H1914 H 0.95103 0.16771 0.37285 0.0
H1915 H 0.88849 0.18225 0.37429 0.0
H1916 H 0.88286 0.15559 0.39168 0.0
H1917 H 0.89676 0.11691 0.47546 0.0
H1918 H 0.91223 0.11018 0.45234 0.0
H1919 H 0.86582 0.14412 0.43168 0.0
H1920 H 0.85103 0.15197 0.45504 0.0
H1921 H 0.89826 0.15031 0.41838 0.0
H1922 H 0.86597 0.09096 0.43315 0.0
H1923 H 0.85734 0.06347 0.44917 0.0
H1924 H 0.91852 0.04392 0.44908 0.0
H1925 H 0.92757 0.07146 0.4332 0.0
C1926 C 0.91927 0.09765 0.36016 0.0
C1927 C 0.93919 0.09116 0.35893 0.0
C1928 C 0.91179 0.10421 0.37332 0.0
C1929 C 0.92404 0.10407 0.38547 0.0
C1930 C 0.94391 0.09751 0.3843 0.0
C1931 C 0.95153 0.09132 0.37107 0.0
C1932 C 0.91583 0.1102 0.39948 0.0
C1933 C 0.91205 0.09543 0.40951 0.0
C1934 C 0.91048 0.13015 0.40259 0.0
C1935 C 0.91389 0.14626 0.39222 0.0
C1936 C 0.93315 0.14991 0.38686 0.0
C1937 C 0.93619 0.165 0.37697 0.0
C1938 C 0.92009 0.17662 0.37243 0.0
C1939 C 0.90094 0.17322 0.3778 0.0
C1940 C 0.89782 0.15814 0.38768 0.0
C1941 C 0.88996 0.12306 0.46598 0.0
C1942 C 0.8726 0.13478 0.46698 0.0
C1943 C 0.89872 0.11909 0.45275 0.0
C1944 C 0.88987 0.12609 0.44017 0.0
C1945 C 0.87288 0.13842 0.4412 0.0
C1946 C 0.86441 0.14288 0.45453 0.0
C1947 C 0.89813 0.12015 0.42599 0.0
C1948 C 0.9018 0.1349 0.41584 0.0
C1949 C 0.90287 0.10003 0.42259 0.0
C1950 C 0.89748 0.08339 0.43209 0.0
C1951 C 0.87761 0.08088 0.43662 0.0
C1952 C 0.87264 0.06528 0.44566 0.0
C1953 C 0.88739 0.05199 0.45017 0.0
C1954 C 0.90712 0.05424 0.4456 0.0
C1955 C 0.91218 0.06983 0.43657 0.0
H1956 H 0.88351 0.03992 0.45717 0.0
H1957 H 0.92248 0.18829 0.36477 0.0
H1958 H 0.88583 0.43846 0.60438 0.0
H1959 H 0.8745 0.4247 0.62697 0.0
H1960 H 0.93539 0.40971 0.63778 0.0
H1961 H 0.9468 0.42331 0.61511 0.0
H1962 H 0.91124 0.3796 0.64349 0.0
H1963 H 0.91102 0.45004 0.65318 0.0
H1964 H 0.90217 0.48515 0.64907 0.0
H1965 H 0.83985 0.47113 0.65322 0.0
H1966 H 0.84832 0.43586 0.65717 0.0
H1967 H 0.9025 0.36576 0.71768 0.0
H1968 H 0.91037 0.37832 0.69408 0.0
H1969 H 0.84751 0.38593 0.6853 0.0
H1970 H 0.8394 0.37334 0.70904 0.0
H1971 H 0.87043 0.41884 0.678 0.0
H1972 H 0.87129 0.34842 0.66984 0.0
H1973 H 0.8808 0.31369 0.67474 0.0
H1974 H 0.94264 0.32803 0.66827 0.0
H1975 H 0.93354 0.36294 0.66355 0.0
C1976 C 0.89684 0.43246 0.61165 0.0
C1977 C 0.91723 0.43207 0.60801 0.0
C1978 C 0.89033 0.42456 0.62455 0.0
C1979 C 0.90411 0.41635 0.63415 0.0
C1980 C 0.92448 0.41593 0.63053 0.0
C1981 C 0.93098 0.42371 0.61758 0.0
C1982 C 0.8973 0.40797 0.6479 0.0
C1983 C 0.9025 0.38827 0.6511 0.0
C1984 C 0.88542 0.41908 0.65767 0.0
C1985 C 0.8803 0.44028 0.65532 0.0
C1986 C 0.89542 0.45442 0.6531 0.0
C1987 C 0.89048 0.47435 0.65082 0.0
C1988 C 0.87046 0.48036 0.65084 0.0
C1989 C 0.85534 0.46645 0.65318 0.0
C1990 C 0.86021 0.44649 0.65546 0.0
C1991 C 0.89029 0.37004 0.71076 0.0
C1992 C 0.8703 0.36851 0.71526 0.0
C1993 C 0.89484 0.37715 0.69723 0.0
C1994 C 0.87952 0.38288 0.6879 0.0
C1995 C 0.85954 0.38152 0.69235 0.0
C1996 C 0.85494 0.37427 0.70589 0.0
C1997 C 0.88458 0.39061 0.67362 0.0
C1998 C 0.87903 0.41016 0.67033 0.0
C1999 C 0.89622 0.3794 0.6638 0.0
C2000 C 0.90174 0.35835 0.66645 0.0
C2001 C 0.88694 0.34421 0.66956 0.0
C2002 C 0.89225 0.32448 0.67229 0.0
C2003 C 0.91231 0.31867 0.67185 0.0
C2004 C 0.9271 0.33256 0.66862 0.0
C2005 C 0.92187 0.35231 0.6659 0.0
H2006 H 0.9164 0.30339 0.67398 0.0
H2007 H 0.86666 0.4958 0.64907 0.0
H2008 H 0.58887 0.07113 0.39864 0.0
H2009 H 0.60473 0.08176 0.37671 0.0
H2010 H 0.56389 0.13141 0.3743 0.0
H2011 H 0.54697 0.12006 0.3958 0.0
H2012 H 0.56836 0.11635 0.34908 0.0
H2013 H 0.61368 0.13709 0.3852 0.0
H2014 H 0.63484 0.13416 0.40664 0.0
H2015 H 0.67093 0.08998 0.38537 0.0
H2016 H 0.6498 0.09241 0.36386 0.0
H2017 H 0.62944 0.16059 0.29481 0.0
H2018 H 0.61448 0.15632 0.31848 0.0
H2019 H 0.63742 0.09635 0.31978 0.0
H2020 H 0.65199 0.1003 0.29605 0.0
H2021 H 0.64229 0.12121 0.34618 0.0
H2022 H 0.59289 0.09954 0.31085 0.0
H2023 H 0.57155 0.10461 0.28971 0.0
H2024 H 0.54336 0.15465 0.31046 0.0
H2025 H 0.56477 0.15003 0.33165 0.0
C2026 C 0.58297 0.08412 0.39336 0.0
C2027 C 0.56656 0.09469 0.39904 0.0
C2028 C 0.59232 0.0904 0.38091 0.0
C2029 C 0.58582 0.10766 0.37399 0.0
C2030 C 0.5693 0.11814 0.37951 0.0
C2031 C 0.55974 0.11171 0.39188 0.0
C2032 C 0.59604 0.1144 0.36084 0.0
C2033 C 0.5845 0.11778 0.34857 0.0
C2034 C 0.61714 0.11624 0.36007 0.0
C2035 C 0.63004 0.11483 0.37294 0.0
C2036 C 0.62605 0.12665 0.38512 0.0
C2037 C 0.63805 0.1251 0.39729 0.0
C2038 C 0.65419 0.11187 0.39738 0.0
C2039 C 0.65841 0.10021 0.38529 0.0
C2040 C 0.64643 0.10169 0.3731 0.0
C2041 C 0.63146 0.14658 0.30022 0.0
C2042 C 0.64178 0.13073 0.29356 0.0
C2043 C 0.6229 0.14417 0.3137 0.0
C2044 C 0.62486 0.12602 0.32081 0.0
C2045 C 0.63581 0.11048 0.31444 0.0
C2046 C 0.64402 0.11273 0.30087 0.0
C2047 C 0.61459 0.12272 0.33454 0.0
C2048 C 0.62614 0.12003 0.34686 0.0
C2049 C 0.59352 0.12191 0.33544 0.0
C2050 C 0.58059 0.1246 0.32275 0.0
C2051 C 0.58228 0.11174 0.31084 0.0
C2052 C 0.57014 0.11451 0.29887 0.0
C2053 C 0.55615 0.12998 0.29872 0.0
C2054 C 0.55423 0.14269 0.31058 0.0
C2055 C 0.56635 0.14 0.32257 0.0
H2056 H 0.54677 0.1321 0.28945 0.0
H2057 H 0.66345 0.11066 0.40681 0.0
H2058 H 0.92693 0.09333 0.64723 0.0
H2059 H 0.91388 0.10967 0.62626 0.0
H2060 H 0.85994 0.07473 0.62867 0.0
H2061 H 0.87373 0.05685 0.64892 0.0
H2062 H 0.86863 0.07776 0.60266 0.0
H2063 H 0.86294 0.12569 0.63997 0.0
H2064 H 0.87348 0.14653 0.66049 0.0
H2065 H 0.91673 0.17572 0.63424 0.0
H2066 H 0.90665 0.15485 0.61361 0.0
H2067 H 0.81979 0.14866 0.55551 0.0
H2068 H 0.82806 0.13376 0.57862 0.0
H2069 H 0.89084 0.13737 0.56865 0.0
H2070 H 0.88272 0.15156 0.5454 0.0
H2071 H 0.87317 0.1513 0.59944 0.0
H2072 H 0.87943 0.09733 0.56313 0.0
H2073 H 0.86531 0.07739 0.54326 0.0
H2074 H 0.81548 0.06118 0.56948 0.0
H2075 H 0.82919 0.08131 0.58944 0.0
C2076 C 0.91248 0.08869 0.64318 0.0
C2077 C 0.90145 0.07365 0.6499 0.0
C2078 C 0.90482 0.09842 0.63129 0.0
C2079 C 0.88565 0.0939 0.62607 0.0
C2080 C 0.8747 0.07868 0.63256 0.0
C2081 C 0.88255 0.06859 0.64428 0.0
C2082 C 0.87728 0.10483 0.6137 0.0
C2083 C 0.86937 0.09386 0.60214 0.0
C2084 C 0.87806 0.12591 0.6129 0.0
C2085 C 0.88413 0.13858 0.62526 0.0
C2086 C 0.87479 0.13646 0.63859 0.0
C2087 C 0.88067 0.14829 0.65024 0.0
C2088 C 0.89579 0.16241 0.64868 0.0
C2089 C 0.90503 0.16476 0.63544 0.0
C2090 C 0.89922 0.15295 0.62376 0.0
C2091 C 0.83535 0.14649 0.55835 0.0
C2092 C 0.85065 0.15118 0.5487 0.0
C2093 C 0.84002 0.13798 0.57149 0.0
C2094 C 0.86003 0.13451 0.57525 0.0
C2095 C 0.87533 0.14 0.5659 0.0
C2096 C 0.87067 0.14802 0.55264 0.0
C2097 C 0.86514 0.12412 0.58854 0.0
C2098 C 0.87233 0.13522 0.6002 0.0
C2099 C 0.86324 0.10328 0.5896 0.0
C2100 C 0.85519 0.091 0.57769 0.0
C2101 C 0.86536 0.08967 0.5646 0.0
C2102 C 0.85746 0.0783 0.55334 0.0
C2103 C 0.83947 0.06808 0.55509 0.0
C2104 C 0.82939 0.06914 0.56813 0.0
C2105 C 0.83722 0.08052 0.57942 0.0
H2106 H 0.83337 0.05928 0.54636 0.0
H2107 H 0.90033 0.17155 0.65771 0.0
H2108 H 0.932 0.43938 0.88868 0.0
H2109 H 0.91433 0.42808 0.86718 0.0
H2110 H 0.8935 0.37631 0.88945 0.0
H2111 H 0.91126 0.38747 0.91093 0.0
H2112 H 0.90577 0.3661 0.86357 0.0
H2113 H 0.86233 0.41595 0.88306 0.0
H2114 H 0.85305 0.44895 0.89283 0.0
H2115 H 0.86988 0.47613 0.85344 0.0
H2116 H 0.87955 0.44331 0.8435 0.0
H2117 H 0.83568 0.33954 0.8089 0.0
H2118 H 0.84908 0.35003 0.8322 0.0
H2119 H 0.87661 0.40097 0.81282 0.0
H2120 H 0.86329 0.39069 0.78962 0.0
H2121 H 0.85859 0.41056 0.83828 0.0
H2122 H 0.90392 0.36045 0.81961 0.0
H2123 H 0.91274 0.32722 0.81002 0.0
H2124 H 0.89132 0.30026 0.84834 0.0
H2125 H 0.8821 0.33333 0.85808 0.0
C2126 C 0.92358 0.42564 0.889 0.0
C2127 C 0.923 0.41433 0.9015 0.0
C2128 C 0.91346 0.41921 0.87673 0.0
C2129 C 0.90234 0.40148 0.87676 0.0
C2130 C 0.90197 0.39003 0.88917 0.0
C2131 C 0.91218 0.39639 0.90142 0.0
C2132 C 0.8913 0.3948 0.86381 0.0
C2133 C 0.8952 0.37571 0.85818 0.0
C2134 C 0.87769 0.40741 0.85666 0.0
C2135 C 0.87183 0.42718 0.86258 0.0
C2136 C 0.8642 0.42898 0.87652 0.0
C2137 C 0.85884 0.44765 0.88208 0.0
C2138 C 0.86091 0.46463 0.87377 0.0
C2139 C 0.8683 0.46296 0.85987 0.0
C2140 C 0.8737 0.44433 0.85426 0.0
C2141 C 0.84447 0.35306 0.80964 0.0
C2142 C 0.84855 0.36423 0.79741 0.0
C2143 C 0.85215 0.35898 0.82293 0.0
C2144 C 0.86398 0.37618 0.82419 0.0
C2145 C 0.86752 0.38766 0.81208 0.0
C2146 C 0.85996 0.38171 0.79881 0.0
C2147 C 0.87327 0.38201 0.838 0.0
C2148 C 0.86903 0.40092 0.84377 0.0
C2149 C 0.88648 0.3692 0.84532 0.0
C2150 C 0.89212 0.34934 0.83951 0.0
C2151 C 0.90094 0.34742 0.82594 0.0
C2152 C 0.90604 0.32862 0.82049 0.0
C2153 C 0.90254 0.31163 0.82854 0.0
C2154 C 0.89399 0.31342 0.8421 0.0
C2155 C 0.88883 0.33219 0.8476 0.0
H2156 H 0.9065 0.29709 0.8243 0.0
H2157 H 0.85676 0.47907 0.8781 0.0
H2158 H 0.57984 0.42424 0.1528 0.0
H2159 H 0.59802 0.41753 0.1307 0.0
H2160 H 0.54907 0.38129 0.11537 0.0
H2161 H 0.53018 0.38923 0.13684 0.0
H2162 H 0.61274 0.38599 0.11976 0.0
H2163 H 0.54558 0.38028 0.08015 0.0
H2164 H 0.51255 0.39585 0.07655 0.0
H2165 H 0.53187 0.44797 0.0997 0.0
H2166 H 0.5651 0.43283 0.10328 0.0
H2167 H 0.64268 0.33315 0.05751 0.0
H2168 H 0.62671 0.34566 0.07935 0.0
H2169 H 0.61144 0.40024 0.05802 0.0
H2170 H 0.62635 0.38727 0.03603 0.0
H2171 H 0.58151 0.3902 0.07186 0.0
H2172 H 0.65017 0.39625 0.08439 0.0
H2173 H 0.68519 0.38559 0.08761 0.0
H2174 H 0.66655 0.34193 0.11784 0.0
H2175 H 0.63138 0.35214 0.11465 0.0
C2176 C 0.5727 0.41526 0.14459 0.0
C2177 C 0.55345 0.40735 0.14666 0.0
C2178 C 0.58326 0.41121 0.13201 0.0
C2179 C 0.57489 0.39905 0.12126 0.0
C2180 C 0.55575 0.39105 0.12334 0.0
C2181 C 0.54505 0.39537 0.13578 0.0
C2182 C 0.58631 0.39426 0.10804 0.0
C2183 C 0.60595 0.38701 0.10928 0.0
C2184 C 0.57768 0.39603 0.0943 0.0
C2185 C 0.55778 0.40533 0.09209 0.0
C2186 C 0.54281 0.3951 0.08442 0.0
C2187 C 0.52404 0.40384 0.0824 0.0
C2188 C 0.52009 0.42286 0.08793 0.0
C2189 C 0.53493 0.43321 0.09546 0.0
C2190 C 0.55372 0.42454 0.09751 0.0
C2191 C 0.63599 0.34784 0.05755 0.0
C2192 C 0.63569 0.35923 0.04511 0.0
C2193 C 0.62697 0.35506 0.07006 0.0
C2194 C 0.61805 0.37405 0.07045 0.0
C2195 C 0.61811 0.38553 0.05803 0.0
C2196 C 0.62668 0.37813 0.04546 0.0
C2197 C 0.60789 0.38166 0.08356 0.0
C2198 C 0.58842 0.38935 0.08232 0.0
C2199 C 0.61699 0.38104 0.09721 0.0
C2200 C 0.63812 0.37485 0.09918 0.0
C2201 C 0.65353 0.38428 0.09165 0.0
C2202 C 0.6734 0.37833 0.09348 0.0
C2203 C 0.67808 0.36306 0.1029 0.0
C2204 C 0.6629 0.35374 0.11053 0.0
C2205 C 0.64299 0.35962 0.10873 0.0
H2206 H 0.69348 0.35848 0.1043 0.0
H2207 H 0.50555 0.4296 0.08636 0.0
loop_
_geom_bond_atom_site_label_1
_geom_bond_atom_site_label_2
_geom_bond_distance
_geom_bond_site_symmetry_2
_ccdc_geom_bond_type
H0 C27 0.929 . S
N1 C26 1.433 . S
N1 C32 1.435 . S
N1 C38 1.423 . S
H2 C28 0.930 . S
H3 C31 0.931 . S
H4 C30 0.929 . S
H5 C33 0.930 . S
H6 C34 0.932 . S
H7 C37 0.929 . S
H8 C36 0.931 . S
H9 C39 0.929 . S
H10 C43 0.932 . S
H11 C40 0.931 . S
H12 C42 0.929 . S
H13 C45 0.929 . S
H14 C46 0.930 . S
H15 C48 0.929 . S
H16 C49 0.931 . S
H17 C51 0.930 . S
H18 C52 0.932 . S
H19 C54 0.931 . S
H20 C55 0.929 . S
H21 C57 0.929 . S
H22 C58 0.931 . S
H23 C60 0.929 . S
N24 C44 1.433 . S
N24 C50 1.435 . S
N24 C56 1.423 . S
H25 C61 0.932 . S
C26 N1 1.433 . S
C26 C27 1.363 . S
C26 C31 1.370 . S
C27 H0 0.929 . S
C27 C26 1.363 . S
C27 C28 1.385 . S
C28 H2 0.930 . S
C28 C27 1.385 . S
C28 C29 1.357 . S
C29 C28 1.357 . S
C29 C30 1.406 . S
C30 H4 0.929 . S
C30 C29 1.406 . S
C30 C31 1.391 . S
C31 H3 0.931 . S
C31 C26 1.370 . S
C31 C30 1.391 . S
C32 N1 1.435 . S
C32 C33 1.358 . S
C32 C37 1.371 . S
C33 H5 0.930 . S
C33 C32 1.358 . S
C33 C34 1.405 . S
C34 H6 0.932 . S
C34 C33 1.405 . S
C34 C35 1.383 . S
C35 C34 1.383 . S
C35 C36 1.393 . S
C36 H8 0.931 . S
C36 C35 1.393 . S
C36 C37 1.382 . S
C37 H7 0.929 . S
C37 C32 1.371 . S
C37 C36 1.382 . S
C38 N1 1.423 . S
C38 C39 1.362 1_565 S
C38 C43 1.388 . S
C39 H9 0.929 . S
C39 C38 1.362 1_545 S
C39 C40 1.376 . S
C40 H11 0.931 . S
C40 C39 1.376 . S
C40 C41 1.396 . S
C41 C40 1.396 . S
C41 C42 1.348 1_545 S
C41 C59 1.472 . S
C42 H12 0.929 . S
C42 C41 1.348 1_565 S
C42 C43 1.443 . S
C43 H10 0.932 . S
C43 C38 1.388 . S
C43 C42 1.443 . S
C44 N24 1.433 . S
C44 C45 1.363 . S
C44 C49 1.370 . S
C45 H13 0.929 . S
C45 C44 1.363 . S
C45 C46 1.385 . S
C46 H14 0.930 . S
C46 C45 1.385 . S
C46 C47 1.357 . S
C47 C46 1.357 . S
C47 C48 1.406 . S
C48 H15 0.929 . S
C48 C47 1.406 . S
C48 C49 1.391 . S
C49 H16 0.931 . S
C49 C44 1.370 . S
C49 C48 1.391 . S
C50 N24 1.435 . S
C50 C51 1.358 . S
C50 C55 1.371 . S
C51 H17 0.930 . S
C51 C50 1.358 . S
C51 C52 1.405 . S
C52 H18 0.932 . S
C52 C51 1.405 . S
C52 C53 1.383 . S
C53 C52 1.383 . S
C53 C54 1.393 . S
C54 H19 0.931 . S
C54 C53 1.393 . S
C54 C55 1.382 . S
C55 H20 0.929 . S
C55 C50 1.371 . S
C55 C54 1.382 . S
C56 N24 1.423 . S
C56 C57 1.362 . S
C56 C61 1.388 . S
C57 H21 0.929 . S
C57 C56 1.362 . S
C57 C58 1.376 1_655 S
C58 H22 0.931 . S
C58 C57 1.376 1_455 S
C58 C59 1.396 . S
C59 C41 1.472 . S
C59 C58 1.396 . S
C59 C60 1.348 1_455 S
C60 H23 0.929 . S
C60 C59 1.348 1_655 S
C60 C61 1.443 . S
C61 H25 0.932 . S
C61 C56 1.388 . S
C61 C60 1.443 . S
H62 C89 0.929 . S
N63 C88 1.433 . S
N63 C94 1.435 . S
N63 C100 1.423 . S
H64 C90 0.930 . S
H65 C93 0.931 . S
H66 C92 0.929 . S
H67 C95 0.930 . S
H68 C96 0.932 . S
H69 C99 0.929 . S
H70 C98 0.931 . S
H71 C101 0.929 . S
H72 C105 0.932 . S
H73 C102 0.931 . S
H74 C104 0.931 . S
H75 C107 0.929 . S
H76 C108 0.930 . S
H77 C110 0.929 . S
H78 C111 0.931 . S
H79 C113 0.930 . S
H80 C114 0.932 . S
H81 C116 0.931 . S
H82 C117 0.929 . S
H83 C119 0.929 . S
H84 C120 0.931 . S
H85 C122 0.929 . S
N86 C106 1.433 . S
N86 C112 1.435 . S
N86 C118 1.423 . S
H87 C123 0.932 . S
C88 N63 1.433 . S
C88 C89 1.363 . S
C88 C93 1.370 . S
C89 H62 0.929 . S
C89 C88 1.363 . S
C89 C90 1.385 . S
C90 H64 0.930 . S
C90 C89 1.385 . S
C90 C91 1.357 . S
C91 C90 1.357 . S
C91 C92 1.406 . S
C92 H66 0.929 . S
C92 C91 1.406 . S
C92 C93 1.391 . S
C93 H65 0.931 . S
C93 C88 1.370 . S
C93 C92 1.391 . S
C94 N63 1.435 . S
C94 C95 1.358 . S
C94 C99 1.371 . S
C95 H67 0.930 . S
C95 C94 1.358 . S
C95 C96 1.405 . S
C96 H68 0.932 . S
C96 C95 1.405 . S
C96 C97 1.383 . S
C97 C96 1.383 . S
C97 C98 1.393 . S
C98 H70 0.931 . S
C98 C97 1.393 . S
C98 C99 1.382 . S
C99 H69 0.929 . S
C99 C94 1.371 . S
C99 C98 1.382 . S
C100 N63 1.423 . S
C100 C101 1.362 1_655 S
C100 C105 1.388 . S
C101 H71 0.929 . S
C101 C100 1.362 1_455 S
C101 C102 1.376 . S
C102 H73 0.931 . S
C102 C101 1.376 . S
C102 C103 1.396 . S
C103 C102 1.396 . S
C103 C104 1.330 1_455 S
C103 C121 1.472 . S
C104 H74 0.931 . S
C104 C103 1.330 1_655 S
C104 C105 1.459 . S
C105 H72 0.932 . S
C105 C100 1.388 . S
C105 C104 1.459 . S
C106 N86 1.433 . S
C106 C107 1.363 . S
C106 C111 1.370 . S
C107 H75 0.929 . S
C107 C106 1.363 . S
C107 C108 1.385 . S
C108 H76 0.930 . S
C108 C107 1.385 . S
C108 C109 1.357 . S
C109 C108 1.357 . S
C109 C110 1.406 . S
C110 H77 0.929 . S
C110 C109 1.406 . S
C110 C111 1.391 . S
C111 H78 0.931 . S
C111 C106 1.370 . S
C111 C110 1.391 . S
C112 N86 1.435 . S
C112 C113 1.358 . S
C112 C117 1.371 . S
C113 H79 0.930 . S
C113 C112 1.358 . S
C113 C114 1.405 . S
C114 H80 0.932 . S
C114 C113 1.405 . S
C114 C115 1.383 . S
C115 C114 1.383 . S
C115 C116 1.393 . S
C116 H81 0.931 . S
C116 C115 1.393 . S
C116 C117 1.382 . S
C117 H82 0.929 . S
C117 C112 1.371 . S
C117 C116 1.382 . S
C118 N86 1.423 . S
C118 C119 1.362 . S
C118 C123 1.388 . S
C119 H83 0.929 . S
C119 C118 1.362 . S
C119 C120 1.376 . S
C120 H84 0.931 . S
C120 C119 1.376 . S
C120 C121 1.396 . S
C121 C103 1.472 . S
C121 C120 1.396 . S
C121 C122 1.348 . S
C122 H85 0.929 . S
C122 C121 1.348 . S
C122 C123 1.443 . S
C123 H87 0.932 . S
C123 C118 1.388 . S
C123 C122 1.443 . S
H124 C151 0.929 . S
N125 C150 1.433 . S
N125 C156 1.435 . S
N125 C162 1.423 . S
H126 C152 0.930 . S
H127 C155 0.931 . S
H128 C154 0.929 . S
H129 C157 0.930 . S
H130 C158 0.932 . S
H131 C161 0.929 . S
H132 C160 0.931 . S
H133 C163 0.929 . S
H134 C167 0.932 . S
H135 C164 0.931 . S
H136 C166 0.929 . S
H137 C169 0.929 . S
H138 C170 0.930 . S
H139 C172 0.929 . S
H140 C173 0.931 . S
H141 C175 0.930 . S
H142 C176 0.932 . S
H143 C178 0.931 . S
H144 C179 0.929 . S
H145 C181 0.929 . S
H146 C182 0.931 . S
H147 C184 0.929 . S
N148 C168 1.433 . S
N148 C174 1.435 . S
N148 C180 1.423 . S
H149 C185 0.932 . S
C150 N125 1.433 . S
C150 C151 1.363 . S
C150 C155 1.370 . S
C151 H124 0.929 . S
C151 C150 1.363 . S
C151 C152 1.385 . S
C152 H126 0.930 . S
C152 C151 1.385 . S
C152 C153 1.357 . S
C153 C152 1.357 . S
C153 C154 1.406 . S
C154 H128 0.929 . S
C154 C153 1.406 . S
C154 C155 1.391 . S
C155 H127 0.931 . S
C155 C150 1.370 . S
C155 C154 1.391 . S
C156 N125 1.435 . S
C156 C157 1.358 . S
C156 C161 1.371 . S
C157 H129 0.930 . S
C157 C156 1.358 . S
C157 C158 1.405 . S
C158 H130 0.932 . S
C158 C157 1.405 . S
C158 C159 1.383 . S
C159 C158 1.383 . S
C159 C160 1.393 . S
C160 H132 0.931 . S
C160 C159 1.393 . S
C160 C161 1.382 . S
C161 H131 0.929 . S
C161 C156 1.371 . S
C161 C160 1.382 . S
C162 N125 1.423 . S
C162 C163 1.362 . S
C162 C167 1.388 . S
C163 H133 0.929 . S
C163 C162 1.362 . S
C163 C164 1.376 . S
C164 H135 0.931 . S
C164 C163 1.376 . S
C164 C165 1.396 . S
C165 C164 1.396 . S
C165 C166 1.348 . S
C165 C183 1.472 . S
C166 H136 0.929 . S
C166 C165 1.348 . S
C166 C167 1.443 . S
C167 H134 0.932 . S
C167 C162 1.388 . S
C167 C166 1.443 . S
C168 N148 1.433 . S
C168 C169 1.363 . S
C168 C173 1.370 . S
C169 H137 0.929 . S
C169 C168 1.363 . S
C169 C170 1.385 . S
C170 H138 0.930 . S
C170 C169 1.385 . S
C170 C171 1.357 . S
C171 C170 1.357 . S
C171 C172 1.406 . S
C172 H139 0.929 . S
C172 C171 1.406 . S
C172 C173 1.391 . S
C173 H140 0.931 . S
C173 C168 1.370 . S
C173 C172 1.391 . S
C174 N148 1.435 . S
C174 C175 1.358 . S
C174 C179 1.371 . S
C175 H141 0.930 . S
C175 C174 1.358 . S
C175 C176 1.405 . S
C176 H142 0.932 . S
C176 C175 1.405 . S
C176 C177 1.383 . S
C177 C176 1.383 . S
C177 C178 1.393 . S
C178 H143 0.931 . S
C178 C177 1.393 . S
C178 C179 1.382 . S
C179 H144 0.929 . S
C179 C174 1.371 . S
C179 C178 1.382 . S
C180 N148 1.423 . S
C180 C181 1.362 . S
C180 C185 1.388 . S
C181 H145 0.929 . S
C181 C180 1.362 . S
C181 C182 1.376 . S
C182 H146 0.931 . S
C182 C181 1.376 . S
C182 C183 1.396 . S
C183 C165 1.472 . S
C183 C182 1.396 . S
C183 C184 1.348 . S
C184 H147 0.929 . S
C184 C183 1.348 . S
C184 C185 1.443 . S
C185 H149 0.932 . S
C185 C180 1.388 . S
C185 C184 1.443 . S
H186 C213 0.929 . S
N187 C212 1.433 . S
N187 C218 1.435 . S
N187 C224 1.423 . S
H188 C214 0.930 . S
H189 C217 0.931 . S
H190 C216 0.929 . S
H191 C219 0.930 . S
H192 C220 0.932 . S
H193 C223 0.929 . S
H194 C222 0.931 . S
H195 C225 0.929 . S
H196 C229 0.932 . S
H197 C226 0.931 . S
H198 C228 0.929 . S
H199 C231 0.929 . S
H200 C232 0.930 . S
H201 C234 0.929 . S
H202 C235 0.931 . S
H203 C237 0.930 . S
H204 C238 0.932 . S
H205 C240 0.931 . S
H206 C241 0.929 . S
H207 C243 0.929 . S
H208 C244 0.931 1_565 S
H209 C246 0.929 . S
N210 C230 1.433 . S
N210 C236 1.435 . S
N210 C242 1.423 . S
H211 C247 0.932 . S
C212 N187 1.433 . S
C212 C213 1.363 . S
C212 C217 1.370 . S
C213 H186 0.929 . S
C213 C212 1.363 . S
C213 C214 1.385 . S
C214 H188 0.930 . S
C214 C213 1.385 . S
C214 C215 1.357 . S
C215 C214 1.357 . S
C215 C216 1.406 . S
C216 H190 0.929 . S
C216 C215 1.406 . S
C216 C217 1.391 . S
C217 H189 0.931 . S
C217 C212 1.370 . S
C217 C216 1.391 . S
C218 N187 1.435 . S
C218 C219 1.358 . S
C218 C223 1.371 . S
C219 H191 0.930 . S
C219 C218 1.358 . S
C219 C220 1.405 . S
C220 H192 0.932 . S
C220 C219 1.405 . S
C220 C221 1.383 . S
C221 C220 1.383 . S
C221 C222 1.393 . S
C222 H194 0.931 . S
C222 C221 1.393 . S
C222 C223 1.382 . S
C223 H193 0.929 . S
C223 C218 1.371 . S
C223 C222 1.382 . S
C224 N187 1.423 . S
C224 C225 1.362 . S
C224 C229 1.388 . S
C225 H195 0.929 . S
C225 C224 1.362 . S
C225 C226 1.376 . S
C226 H197 0.931 . S
C226 C225 1.376 . S
C226 C227 1.396 . S
C227 C226 1.396 . S
C227 C228 1.348 . S
C227 C245 1.472 1_565 S
C228 H198 0.929 . S
C228 C227 1.348 . S
C228 C229 1.443 . S
C229 H196 0.932 . S
C229 C224 1.388 . S
C229 C228 1.443 . S
C230 N210 1.433 . S
C230 C231 1.363 . S
C230 C235 1.370 . S
C231 H199 0.929 . S
C231 C230 1.363 . S
C231 C232 1.385 . S
C232 H200 0.930 . S
C232 C231 1.385 . S
C232 C233 1.357 . S
C233 C232 1.357 . S
C233 C234 1.406 . S
C234 H201 0.929 . S
C234 C233 1.406 . S
C234 C235 1.391 . S
C235 H202 0.931 . S
C235 C230 1.370 . S
C235 C234 1.391 . S
C236 N210 1.435 . S
C236 C237 1.358 . S
C236 C241 1.371 . S
C237 H203 0.930 . S
C237 C236 1.358 . S
C237 C238 1.405 . S
C238 H204 0.932 . S
C238 C237 1.405 . S
C238 C239 1.383 . S
C239 C238 1.383 . S
C239 C240 1.393 . S
C240 H205 0.931 . S
C240 C239 1.393 . S
C240 C241 1.382 . S
C241 H206 0.929 . S
C241 C236 1.371 . S
C241 C240 1.382 . S
C242 N210 1.423 . S
C242 C243 1.362 . S
C242 C247 1.388 . S
C243 H207 0.929 . S
C243 C242 1.362 . S
C243 C244 1.376 . S
C244 H208 0.931 1_545 S
C244 C243 1.376 . S
C244 C245 1.396 . S
C245 C227 1.472 1_545 S
C245 C244 1.396 . S
C245 C246 1.348 . S
C246 H209 0.929 . S
C246 C245 1.348 . S
C246 C247 1.443 . S
C247 H211 0.932 . S
C247 C242 1.388 . S
C247 C246 1.443 . S
H248 C275 0.929 . S
N249 C274 1.433 . S
N249 C280 1.435 . S
N249 C286 1.423 . S
H250 C276 0.930 . S
H251 C279 0.931 . S
H252 C278 0.929 . S
H253 C281 0.930 . S
H254 C282 0.932 . S
H255 C285 0.929 . S
H256 C284 0.931 . S
H257 C287 0.929 . S
H258 C291 0.932 . S
H259 C288 0.931 . S
H260 C290 0.929 . S
H261 C293 0.929 . S
H262 C294 0.930 . S
H263 C296 0.929 . S
H264 C297 0.931 . S
H265 C299 0.930 . S
H266 C300 0.932 . S
H267 C302 0.931 . S
H268 C303 0.929 . S
H269 C305 0.929 . S
H270 C306 0.894 1_455 S
H271 C308 0.929 . S
N272 C292 1.433 . S
N272 C298 1.435 . S
N272 C304 1.423 . S
H273 C309 0.932 . S
C274 N249 1.433 . S
C274 C275 1.363 . S
C274 C279 1.370 . S
C275 H248 0.929 . S
C275 C274 1.363 . S
C275 C276 1.385 . S
C276 H250 0.930 . S
C276 C275 1.385 . S
C276 C277 1.357 . S
C277 C276 1.357 . S
C277 C278 1.406 . S
C278 H252 0.929 . S
C278 C277 1.406 . S
C278 C279 1.391 . S
C279 H251 0.931 . S
C279 C274 1.370 . S
C279 C278 1.391 . S
C280 N249 1.435 . S
C280 C281 1.358 . S
C280 C285 1.371 . S
C281 H253 0.930 . S
C281 C280 1.358 . S
C281 C282 1.405 . S
C282 H254 0.932 . S
C282 C281 1.405 . S
C282 C283 1.383 . S
C283 C282 1.383 . S
C283 C284 1.393 . S
C284 H256 0.931 . S
C284 C283 1.393 . S
C284 C285 1.382 . S
C285 H255 0.929 . S
C285 C280 1.371 . S
C285 C284 1.382 . S
C286 N249 1.423 . S
C286 C287 1.362 . S
C286 C291 1.388 . S
C287 H257 0.929 . S
C287 C286 1.362 . S
C287 C288 1.376 . S
C288 H259 0.931 . S
C288 C287 1.376 . S
C288 C289 1.396 . S
C289 C288 1.396 . S
C289 C290 1.348 . S
C289 C307 1.472 . S
C290 H260 0.929 . S
C290 C289 1.348 . S
C290 C291 1.443 . S
C291 H258 0.932 . S
C291 C286 1.388 . S
C291 C290 1.443 . S
C292 N272 1.433 . S
C292 C293 1.363 . S
C292 C297 1.370 . S
C293 H261 0.929 . S
C293 C292 1.363 . S
C293 C294 1.385 . S
C294 H262 0.930 . S
C294 C293 1.385 . S
C294 C295 1.357 . S
C295 C294 1.357 . S
C295 C296 1.406 . S
C296 H263 0.929 . S
C296 C295 1.406 . S
C296 C297 1.391 . S
C297 H264 0.931 . S
C297 C292 1.370 . S
C297 C296 1.391 . S
C298 N272 1.435 . S
C298 C299 1.358 . S
C298 C303 1.371 . S
C299 H265 0.930 . S
C299 C298 1.358 . S
C299 C300 1.405 . S
C300 H266 0.932 . S
C300 C299 1.405 . S
C300 C301 1.383 . S
C301 C300 1.383 . S
C301 C302 1.393 . S
C302 H267 0.931 . S
C302 C301 1.393 . S
C302 C303 1.382 . S
C303 H268 0.929 . S
C303 C298 1.371 . S
C303 C302 1.382 . S
C304 N272 1.423 . S
C304 C305 1.362 . S
C304 C309 1.388 . S
C305 H269 0.929 . S
C305 C304 1.362 . S
C305 C306 1.418 . S
C306 H270 0.894 1_655 S
C306 C305 1.418 . S
C306 C307 1.392 1_655 S
C307 C289 1.472 . S
C307 C306 1.392 1_455 S
C307 C308 1.348 1_455 S
C308 H271 0.929 . S
C308 C307 1.348 1_655 S
C308 C309 1.443 . S
C309 H273 0.932 . S
C309 C304 1.388 . S
C309 C308 1.443 . S
H310 C337 0.929 . S
N311 C336 1.433 . S
N311 C342 1.435 . S
N311 C348 1.423 . S
H312 C338 0.930 . S
H313 C341 0.931 . S
H314 C340 0.929 . S
H315 C343 0.930 . S
H316 C344 0.932 . S
H317 C347 0.929 . S
H318 C346 0.931 . S
H319 C349 0.929 . S
H320 C353 0.932 . S
H321 C350 0.931 . S
H322 C352 0.929 . S
H323 C355 0.929 . S
H324 C356 0.930 . S
H325 C358 0.929 . S
H326 C359 0.931 . S
H327 C361 0.930 . S
H328 C362 0.932 . S
H329 C364 0.931 . S
H330 C365 0.929 . S
H331 C367 0.929 . S
H332 C368 0.931 . S
H333 C370 0.929 . S
N334 C354 1.433 . S
N334 C360 1.435 . S
N334 C366 1.423 . S
H335 C371 0.932 . S
C336 N311 1.433 . S
C336 C337 1.363 . S
C336 C341 1.370 . S
C337 H310 0.929 . S
C337 C336 1.363 . S
C337 C338 1.385 . S
C338 H312 0.930 . S
C338 C337 1.385 . S
C338 C339 1.357 . S
C339 C338 1.357 . S
C339 C340 1.406 . S
C340 H314 0.929 . S
C340 C339 1.406 . S
C340 C341 1.391 . S
C341 H313 0.931 . S
C341 C336 1.370 . S
C341 C340 1.391 . S
C342 N311 1.435 . S
C342 C343 1.358 . S
C342 C347 1.371 . S
C343 H315 0.930 . S
C343 C342 1.358 . S
C343 C344 1.405 . S
C344 H316 0.932 . S
C344 C343 1.405 . S
C344 C345 1.383 . S
C345 C344 1.383 . S
C345 C346 1.393 . S
C346 H318 0.931 . S
C346 C345 1.393 . S
C346 C347 1.382 . S
C347 H317 0.929 . S
C347 C342 1.371 . S
C347 C346 1.382 . S
C348 N311 1.423 . S
C348 C349 1.362 . S
C348 C353 1.388 . S
C349 H319 0.929 . S
C349 C348 1.362 . S
C349 C350 1.376 . S
C350 H321 0.931 . S
C350 C349 1.376 . S
C350 C351 1.396 . S
C351 C350 1.396 . S
C351 C352 1.348 . S
C351 C369 1.472 . S
C352 H322 0.929 . S
C352 C351 1.348 . S
C352 C353 1.443 . S
C353 H320 0.932 . S
C353 C348 1.388 . S
C353 C352 1.443 . S
C354 N334 1.433 . S
C354 C355 1.363 . S
C354 C359 1.370 . S
C355 H323 0.929 . S
C355 C354 1.363 . S
C355 C356 1.385 . S
C356 H324 0.930 . S
C356 C355 1.385 . S
C356 C357 1.357 . S
C357 C356 1.357 . S
C357 C358 1.406 . S
C358 H325 0.929 . S
C358 C357 1.406 . S
C358 C359 1.391 . S
C359 H326 0.931 . S
C359 C354 1.370 . S
C359 C358 1.391 . S
C360 N334 1.435 . S
C360 C361 1.358 . S
C360 C365 1.371 . S
C361 H327 0.930 . S
C361 C360 1.358 . S
C361 C362 1.405 . S
C362 H328 0.932 . S
C362 C361 1.405 . S
C362 C363 1.383 . S
C363 C362 1.383 . S
C363 C364 1.393 . S
C364 H329 0.931 . S
C364 C363 1.393 . S
C364 C365 1.382 . S
C365 H330 0.929 . S
C365 C360 1.371 . S
C365 C364 1.382 . S
C366 N334 1.423 . S
C366 C367 1.362 . S
C366 C371 1.388 . S
C367 H331 0.929 . S
C367 C366 1.362 . S
C367 C368 1.376 . S
C368 H332 0.931 . S
C368 C367 1.376 . S
C368 C369 1.396 . S
C369 C351 1.472 . S
C369 C368 1.396 . S
C369 C370 1.348 . S
C370 H333 0.929 . S
C370 C369 1.348 . S
C370 C371 1.443 . S
C371 H335 0.932 . S
C371 C366 1.388 . S
C371 C370 1.443 . S
H372 C399 0.929 . S
N373 C398 1.433 . S
N373 C404 1.435 . S
N373 C410 1.423 . S
H374 C400 0.930 . S
H375 C403 0.931 . S
H376 C402 0.929 . S
H377 C405 0.930 . S
H378 C406 0.932 . S
H379 C409 0.929 . S
H380 C408 0.931 . S
H381 C411 0.929 . S
H382 C415 0.932 . S
H383 C412 0.931 . S
H384 C414 0.933 . S
H385 C417 0.929 . S
H386 C418 0.930 . S
H387 C420 0.929 . S
H388 C421 0.931 . S
H389 C423 0.930 . S
H390 C424 0.932 . S
H391 C426 0.931 . S
H392 C427 0.929 . S
H393 C429 0.929 . S
H394 C430 0.931 . S
H395 C432 0.929 . S
N396 C416 1.433 . S
N396 C422 1.435 . S
N396 C428 1.423 . S
H397 C433 0.932 . S
C398 N373 1.433 . S
C398 C399 1.363 . S
C398 C403 1.370 . S
C399 H372 0.929 . S
C399 C398 1.363 . S
C399 C400 1.385 . S
C400 H374 0.930 . S
C400 C399 1.385 . S
C400 C401 1.357 . S
C401 C400 1.357 . S
C401 C402 1.406 . S
C402 H376 0.929 . S
C402 C401 1.406 . S
C402 C403 1.391 . S
C403 H375 0.931 . S
C403 C398 1.370 . S
C403 C402 1.391 . S
C404 N373 1.435 . S
C404 C405 1.358 . S
C404 C409 1.371 . S
C405 H377 0.930 . S
C405 C404 1.358 . S
C405 C406 1.405 . S
C406 H378 0.932 . S
C406 C405 1.405 . S
C406 C407 1.383 . S
C407 C406 1.383 . S
C407 C408 1.393 . S
C408 H380 0.931 . S
C408 C407 1.393 . S
C408 C409 1.382 . S
C409 H379 0.929 . S
C409 C404 1.371 . S
C409 C408 1.382 . S
C410 N373 1.423 . S
C410 C411 1.362 1_565 S
C410 C415 1.388 . S
C411 H381 0.929 . S
C411 C410 1.362 1_545 S
C411 C412 1.376 . S
C412 H383 0.931 . S
C412 C411 1.376 . S
C412 C413 1.396 . S
C413 C412 1.396 . S
C413 C414 1.321 1_545 S
C413 C431 1.472 . S
C414 H384 0.933 . S
C414 C413 1.321 1_565 S
C414 C415 1.468 . S
C415 H382 0.932 . S
C415 C410 1.388 . S
C415 C414 1.468 . S
C416 N396 1.433 . S
C416 C417 1.363 . S
C416 C421 1.370 . S
C417 H385 0.929 . S
C417 C416 1.363 . S
C417 C418 1.385 . S
C418 H386 0.930 . S
C418 C417 1.385 . S
C418 C419 1.357 . S
C419 C418 1.357 . S
C419 C420 1.406 . S
C420 H387 0.929 . S
C420 C419 1.406 . S
C420 C421 1.391 . S
C421 H388 0.931 . S
C421 C416 1.370 . S
C421 C420 1.391 . S
C422 N396 1.435 . S
C422 C423 1.358 . S
C422 C427 1.371 . S
C423 H389 0.930 . S
C423 C422 1.358 . S
C423 C424 1.405 . S
C424 H390 0.932 . S
C424 C423 1.405 . S
C424 C425 1.383 . S
C425 C424 1.383 . S
C425 C426 1.393 . S
C426 H391 0.931 . S
C426 C425 1.393 . S
C426 C427 1.382 . S
C427 H392 0.929 . S
C427 C422 1.371 . S
C427 C426 1.382 . S
C428 N396 1.423 . S
C428 C429 1.362 . S
C428 C433 1.388 . S
C429 H393 0.929 . S
C429 C428 1.362 . S
C429 C430 1.376 . S
C430 H394 0.931 . S
C430 C429 1.376 . S
C430 C431 1.396 . S
C431 C413 1.472 . S
C431 C430 1.396 . S
C431 C432 1.348 . S
C432 H395 0.929 . S
C432 C431 1.348 . S
C432 C433 1.443 . S
C433 H397 0.932 . S
C433 C428 1.388 . S
C433 C432 1.443 . S
H434 C461 0.929 . S
N435 C460 1.433 . S
N435 C466 1.435 . S
N435 C472 1.423 . S
H436 C462 0.930 . S
H437 C465 0.931 . S
H438 C464 0.929 . S
H439 C467 0.930 . S
H440 C468 0.932 . S
H441 C471 0.929 . S
H442 C470 0.931 . S
H443 C473 0.929 . S
H444 C477 0.932 . S
H445 C474 0.931 1_655 S
H446 C476 0.929 . S
H447 C479 0.929 . S
H448 C480 0.930 . S
H449 C482 0.929 . S
H450 C483 0.931 . S
H451 C485 0.930 . S
H452 C486 0.932 . S
H453 C488 0.931 . S
H454 C489 0.929 . S
H455 C491 0.929 . S
H456 C492 0.931 . S
H457 C494 0.929 1_455 S
N458 C478 1.433 . S
N458 C484 1.435 . S
N458 C490 1.423 . S
H459 C495 0.932 . S
C460 N435 1.433 . S
C460 C461 1.363 . S
C460 C465 1.370 . S
C461 H434 0.929 . S
C461 C460 1.363 . S
C461 C462 1.385 . S
C462 H436 0.930 . S
C462 C461 1.385 . S
C462 C463 1.357 . S
C463 C462 1.357 . S
C463 C464 1.406 . S
C464 H438 0.929 . S
C464 C463 1.406 . S
C464 C465 1.391 . S
C465 H437 0.931 . S
C465 C460 1.370 . S
C465 C464 1.391 . S
C466 N435 1.435 . S
C466 C467 1.358 . S
C466 C471 1.371 . S
C467 H439 0.930 . S
C467 C466 1.358 . S
C467 C468 1.405 . S
C468 H440 0.932 . S
C468 C467 1.405 . S
C468 C469 1.383 . S
C469 C468 1.383 . S
C469 C470 1.393 . S
C470 H442 0.931 . S
C470 C469 1.393 . S
C470 C471 1.382 . S
C471 H441 0.929 . S
C471 C466 1.371 . S
C471 C470 1.382 . S
C472 N435 1.423 . S
C472 C473 1.362 . S
C472 C477 1.388 . S
C473 H443 0.929 . S
C473 C472 1.362 . S
C473 C474 1.376 . S
C474 H445 0.931 1_455 S
C474 C473 1.376 . S
C474 C475 1.396 1_565 S
C475 C474 1.396 1_545 S
C475 C476 1.348 . S
C475 C493 1.472 1_455 S
C476 H446 0.929 . S
C476 C475 1.348 . S
C476 C477 1.443 1_545 S
C477 H444 0.932 . S
C477 C472 1.388 . S
C477 C476 1.443 1_565 S
C478 N458 1.433 . S
C478 C479 1.363 . S
C478 C483 1.370 . S
C479 H447 0.929 . S
C479 C478 1.363 . S
C479 C480 1.385 . S
C480 H448 0.930 . S
C480 C479 1.385 . S
C480 C481 1.357 . S
C481 C480 1.357 . S
C481 C482 1.406 . S
C482 H449 0.929 . S
C482 C481 1.406 . S
C482 C483 1.391 . S
C483 H450 0.931 . S
C483 C478 1.370 . S
C483 C482 1.391 . S
C484 N458 1.435 . S
C484 C485 1.358 . S
C484 C489 1.371 . S
C485 H451 0.930 . S
C485 C484 1.358 . S
C485 C486 1.405 . S
C486 H452 0.932 . S
C486 C485 1.405 . S
C486 C487 1.383 . S
C487 C486 1.383 . S
C487 C488 1.393 . S
C488 H453 0.931 . S
C488 C487 1.393 . S
C488 C489 1.382 . S
C489 H454 0.929 . S
C489 C484 1.371 . S
C489 C488 1.382 . S
C490 N458 1.423 . S
C490 C491 1.362 . S
C490 C495 1.388 . S
C491 H455 0.929 . S
C491 C490 1.362 . S
C491 C492 1.376 . S
C492 H456 0.931 . S
C492 C491 1.376 . S
C492 C493 1.396 . S
C493 C475 1.472 1_655 S
C493 C492 1.396 . S
C493 C494 1.348 . S
C494 H457 0.929 1_655 S
C494 C493 1.348 . S
C494 C495 1.443 . S
C495 H459 0.932 . S
C495 C490 1.388 . S
C495 C494 1.443 . S
C496 O497 1.306 . S
C496 O499 1.160 . S
O497 C496 1.306 . S
O497 Cd498 2.228 . S
Cd498 O497 2.228 . S
Cd498 O502 2.273 1_554 S
Cd498 O506 2.277 . S
O499 C496 1.160 . S
O499 Cd500 2.203 . S
Cd500 O499 2.203 . S
Cd500 O502 2.411 1_554 S
Cd500 O503 2.333 1_554 S
Cd500 O504 2.352 . S
Cd500 O508 2.277 . S
Cd500 O509 2.356 . S
C501 O506 1.209 . S
C501 O508 1.226 . S
O502 Cd498 2.273 1_556 S
O502 Cd500 2.411 1_556 S
O502 C505 1.320 . S
O503 Cd500 2.333 1_556 S
O503 C505 1.214 . S
O504 Cd500 2.352 . S
O504 C507 1.258 . S
C505 O502 1.320 . S
C505 O503 1.214 . S
O506 Cd498 2.277 . S
O506 C501 1.209 . S
C507 O504 1.258 . S
C507 O509 1.282 . S
O508 Cd500 2.277 . S
O508 C501 1.226 . S
O509 Cd500 2.356 . S
O509 C507 1.282 . S
C510 O511 1.306 . S
C510 O513 1.160 . S
O511 C510 1.306 . S
O511 Cd512 2.228 . S
Cd512 O511 2.228 . S
Cd512 O516 2.273 . S
Cd512 O520 2.277 . S
O513 C510 1.160 . S
O513 Cd514 2.203 . S
Cd514 O513 2.203 . S
Cd514 O516 2.411 . S
Cd514 O517 2.333 . S
Cd514 O518 2.352 . S
Cd514 O522 2.277 . S
Cd514 O523 2.356 . S
C515 O520 1.209 . S
C515 O522 1.226 . S
O516 Cd512 2.273 . S
O516 Cd514 2.411 . S
O516 C519 1.320 . S
O517 Cd514 2.333 . S
O517 C519 1.214 . S
O518 Cd514 2.352 . S
O518 C521 1.258 . S
C519 O516 1.320 . S
C519 O517 1.214 . S
O520 Cd512 2.277 . S
O520 C515 1.209 . S
C521 O518 1.258 . S
C521 O523 1.282 . S
O522 Cd514 2.277 . S
O522 C515 1.226 . S
O523 Cd514 2.356 . S
O523 C521 1.282 . S
C524 O525 1.306 . S
C524 O527 1.160 . S
O525 C524 1.306 . S
O525 Cd526 2.228 . S
Cd526 O525 2.228 . S
Cd526 O530 2.273 . S
Cd526 O534 2.277 . S
O527 C524 1.160 . S
O527 Cd528 2.203 . S
Cd528 O527 2.203 . S
Cd528 O530 2.411 . S
Cd528 O531 2.333 . S
Cd528 O532 2.352 . S
Cd528 O536 2.277 . S
Cd528 O537 2.356 . S
C529 O534 1.209 . S
C529 O536 1.226 . S
O530 Cd526 2.273 . S
O530 Cd528 2.411 . S
O530 C533 1.320 . S
O531 Cd528 2.333 . S
O531 C533 1.214 . S
O532 Cd528 2.352 . S
O532 C535 1.258 . S
C533 O530 1.320 . S
C533 O531 1.214 . S
O534 Cd526 2.277 . S
O534 C529 1.209 . S
C535 O532 1.258 . S
C535 O537 1.282 . S
O536 Cd528 2.277 . S
O536 C529 1.226 . S
O537 Cd528 2.356 . S
O537 C535 1.282 . S
C538 O539 1.306 . S
C538 O541 1.160 . S
O539 C538 1.306 . S
O539 Cd540 2.228 . S
Cd540 O539 2.228 . S
Cd540 O544 2.273 . S
Cd540 O548 2.277 . S
O541 C538 1.160 . S
O541 Cd542 2.203 . S
Cd542 O541 2.203 . S
Cd542 O544 2.411 . S
Cd542 O545 2.333 . S
Cd542 O546 2.352 . S
Cd542 O550 2.277 . S
Cd542 O551 2.356 . S
C543 O548 1.209 . S
C543 O550 1.226 . S
O544 Cd540 2.273 . S
O544 Cd542 2.411 . S
O544 C547 1.320 . S
O545 Cd542 2.333 . S
O545 C547 1.214 . S
O546 Cd542 2.352 . S
O546 C549 1.258 . S
C547 O544 1.320 . S
C547 O545 1.214 . S
O548 Cd540 2.277 . S
O548 C543 1.209 . S
C549 O546 1.258 . S
C549 O551 1.282 . S
O550 Cd542 2.277 . S
O550 C543 1.226 . S
O551 Cd542 2.356 . S
O551 C549 1.282 . S
C552 O553 1.306 . S
C552 O555 1.160 . S
O553 C552 1.306 . S
O553 Cd554 2.228 . S
Cd554 O553 2.228 . S
Cd554 O558 2.273 . S
Cd554 O562 2.277 . S
O555 C552 1.160 . S
O555 Cd556 2.203 . S
Cd556 O555 2.203 . S
Cd556 O558 2.411 . S
Cd556 O559 2.333 . S
Cd556 O560 2.352 . S
Cd556 O564 2.277 . S
Cd556 O565 2.356 . S
C557 O562 1.209 . S
C557 O564 1.226 . S
O558 Cd554 2.273 . S
O558 Cd556 2.411 . S
O558 C561 1.320 . S
O559 Cd556 2.333 . S
O559 C561 1.214 . S
O560 Cd556 2.352 . S
O560 C563 1.258 . S
C561 O558 1.320 . S
C561 O559 1.214 . S
O562 Cd554 2.277 . S
O562 C557 1.209 . S
C563 O560 1.258 . S
C563 O565 1.282 . S
O564 Cd556 2.277 . S
O564 C557 1.226 . S
O565 Cd556 2.356 . S
O565 C563 1.282 . S
C566 O567 1.306 . S
C566 O569 1.160 . S
O567 C566 1.306 . S
O567 Cd568 2.228 . S
Cd568 O567 2.228 . S
Cd568 O572 2.273 . S
Cd568 O576 2.277 . S
O569 C566 1.160 . S
O569 Cd570 2.203 . S
Cd570 O569 2.203 . S
Cd570 O572 2.411 . S
Cd570 O573 2.333 . S
Cd570 O574 2.352 . S
Cd570 O578 2.277 . S
Cd570 O579 2.356 . S
C571 O576 1.209 . S
C571 O578 1.226 . S
O572 Cd568 2.273 . S
O572 Cd570 2.411 . S
O572 C575 1.320 . S
O573 Cd570 2.333 . S
O573 C575 1.214 . S
O574 Cd570 2.352 . S
O574 C577 1.258 . S
C575 O572 1.320 . S
C575 O573 1.214 . S
O576 Cd568 2.277 . S
O576 C571 1.209 . S
C577 O574 1.258 . S
C577 O579 1.282 . S
O578 Cd570 2.277 . S
O578 C571 1.226 . S
O579 Cd570 2.356 . S
O579 C577 1.282 . S
C580 O581 1.306 . S
C580 O583 1.160 . S
O581 C580 1.306 . S
O581 Cd582 2.228 1_556 S
Cd582 O581 2.228 1_554 S
Cd582 O586 2.273 . S
Cd582 O590 2.272 1_554 S
O583 C580 1.160 . S
O583 Cd584 2.203 1_556 S
Cd584 O583 2.203 1_554 S
Cd584 O586 2.411 . S
Cd584 O587 2.333 . S
Cd584 O588 2.352 . S
Cd584 O592 2.277 1_554 S
Cd584 O593 2.356 . S
C585 O590 1.219 . S
C585 O592 1.226 . S
O586 Cd582 2.273 . S
O586 Cd584 2.411 . S
O586 C589 1.320 . S
O587 Cd584 2.333 . S
O587 C589 1.214 . S
O588 Cd584 2.352 . S
O588 C591 1.258 . S
C589 O586 1.320 . S
C589 O587 1.214 . S
O590 Cd582 2.272 1_556 S
O590 C585 1.219 . S
C591 O588 1.258 . S
C591 O593 1.282 . S
O592 Cd584 2.277 1_556 S
O592 C585 1.226 . S
O593 Cd584 2.356 . S
O593 C591 1.282 . S
C594 O595 1.306 . S
C594 O597 1.160 . S
O595 C594 1.306 . S
O595 Cd596 2.228 . S
Cd596 O595 2.228 . S
Cd596 O600 2.273 . S
Cd596 O604 2.277 . S
O597 C594 1.160 . S
O597 Cd598 2.203 . S
Cd598 O597 2.203 . S
Cd598 O600 2.411 . S
Cd598 O601 2.333 . S
Cd598 O602 2.352 . S
Cd598 O606 2.277 . S
Cd598 O607 2.356 . S
C599 O604 1.209 . S
C599 O606 1.226 . S
O600 Cd596 2.273 . S
O600 Cd598 2.411 . S
O600 C603 1.320 . S
O601 Cd598 2.333 . S
O601 C603 1.214 . S
O602 Cd598 2.352 . S
O602 C605 1.258 . S
C603 O600 1.320 . S
C603 O601 1.214 . S
O604 Cd596 2.277 . S
O604 C599 1.209 . S
C605 O602 1.258 . S
C605 O607 1.282 . S
O606 Cd598 2.277 . S
O606 C599 1.226 . S
O607 Cd598 2.356 . S
O607 C605 1.282 . S
H608 C626 0.951 . S
H609 C628 0.951 . S
H610 C630 0.950 . S
H611 C631 0.950 . S
H612 C633 0.950 . S
H613 C636 0.950 . S
H614 C637 0.950 . S
H615 C639 0.950 . S
H616 C640 0.950 . S
H617 C641 0.951 . S
H618 C643 0.951 . S
H619 C645 0.950 . S
H620 C646 0.950 . S
H621 C648 0.950 . S
H622 C651 0.950 . S
H623 C652 0.950 . S
H624 C654 0.950 . S
H625 C655 0.950 . S
C626 H608 0.951 . S
C626 C627 1.366 . S
C626 C628 1.388 . S
C627 C626 1.366 . S
C627 C631 1.385 . S
C628 H609 0.951 . S
C628 C626 1.388 . S
C628 C629 1.366 . S
C629 C628 1.366 . S
C629 C630 1.414 . S
C629 C632 1.499 . S
C630 H610 0.950 . S
C630 C629 1.414 . S
C630 C631 1.374 . S
C631 H611 0.950 . S
C631 C627 1.385 . S
C631 C630 1.374 . S
C632 C629 1.499 . S
C632 C633 1.373 . S
C632 C634 1.389 . S
C633 H612 0.950 . S
C633 C632 1.373 . S
C633 C649 1.377 . S
C634 C632 1.389 . S
C634 C635 1.524 . S
C634 C648 1.377 . S
C635 C634 1.524 . S
C635 C636 1.397 . S
C635 C640 1.363 . S
C636 H613 0.950 . S
C636 C635 1.397 . S
C636 C637 1.334 . S
C637 H614 0.950 . S
C637 C636 1.334 . S
C637 C638 1.287 . S
C638 C637 1.287 . S
C638 C639 1.524 . S
C638 H657 0.913 . S
C639 H615 0.950 . S
C639 C638 1.524 . S
C639 C640 1.415 . S
C640 H616 0.950 . S
C640 C635 1.363 . S
C640 C639 1.415 . S
C641 H617 0.951 . S
C641 C642 1.366 . S
C641 C643 1.388 . S
C642 C641 1.366 . S
C642 C646 1.385 . S
C643 H618 0.951 . S
C643 C641 1.388 . S
C643 C644 1.366 . S
C644 C643 1.366 . S
C644 C645 1.414 . S
C644 C647 1.499 . S
C645 H619 0.950 . S
C645 C644 1.414 . S
C645 C646 1.374 . S
C646 H620 0.950 . S
C646 C642 1.385 . S
C646 C645 1.374 . S
C647 C644 1.499 . S
C647 C648 1.373 . S
C647 C649 1.389 . S
C648 H621 0.950 . S
C648 C634 1.377 . S
C648 C647 1.373 . S
C649 C633 1.377 . S
C649 C647 1.389 . S
C649 C650 1.524 . S
C650 C649 1.524 . S
C650 C651 1.397 . S
C650 C655 1.363 . S
C651 H622 0.950 . S
C651 C650 1.397 . S
C651 C652 1.334 . S
C652 H623 0.950 . S
C652 C651 1.334 . S
C652 C653 1.287 . S
C653 C652 1.287 . S
C653 C654 1.524 . S
C653 H656 0.999 . S
C654 H624 0.950 . S
C654 C653 1.524 . S
C654 C655 1.415 . S
C655 H625 0.950 . S
C655 C650 1.363 . S
C655 C654 1.415 . S
H656 C653 0.999 . S
H657 C638 0.913 . S
H658 C676 0.951 . S
H659 C678 0.951 . S
H660 C680 0.950 . S
H661 C681 0.950 . S
H662 C683 0.950 . S
H663 C686 0.950 . S
H664 C687 0.950 . S
H665 C689 0.950 . S
H666 C690 0.950 . S
H667 C691 0.951 . S
H668 C693 0.951 . S
H669 C695 0.950 . S
H670 C696 0.950 . S
H671 C698 0.950 . S
H672 C701 0.950 . S
H673 C702 0.950 . S
H674 C704 0.950 . S
H675 C705 0.950 . S
C676 H658 0.951 . S
C676 C677 1.366 . S
C676 C678 1.388 . S
C677 C676 1.366 . S
C677 C681 1.385 . S
C678 H659 0.951 . S
C678 C676 1.388 . S
C678 C679 1.366 . S
C679 C678 1.366 . S
C679 C680 1.414 . S
C679 C682 1.499 . S
C680 H660 0.950 . S
C680 C679 1.414 . S
C680 C681 1.374 . S
C681 H661 0.950 . S
C681 C677 1.385 . S
C681 C680 1.374 . S
C682 C679 1.499 . S
C682 C683 1.373 . S
C682 C684 1.389 . S
C683 H662 0.950 . S
C683 C682 1.373 . S
C683 C699 1.377 . S
C684 C682 1.389 . S
C684 C685 1.524 . S
C684 C698 1.377 . S
C685 C684 1.524 . S
C685 C686 1.397 . S
C685 C690 1.363 . S
C686 H663 0.950 . S
C686 C685 1.397 . S
C686 C687 1.334 . S
C687 H664 0.950 . S
C687 C686 1.334 . S
C687 C688 1.287 . S
C688 C687 1.287 . S
C688 C689 1.524 . S
C688 H707 0.913 . S
C689 H665 0.950 . S
C689 C688 1.524 . S
C689 C690 1.415 . S
C690 H666 0.950 . S
C690 C685 1.363 . S
C690 C689 1.415 . S
C691 H667 0.951 . S
C691 C692 1.366 . S
C691 C693 1.388 . S
C692 C691 1.366 . S
C692 C696 1.385 . S
C693 H668 0.951 . S
C693 C691 1.388 . S
C693 C694 1.366 . S
C694 C693 1.366 . S
C694 C695 1.414 . S
C694 C697 1.499 . S
C695 H669 0.950 . S
C695 C694 1.414 . S
C695 C696 1.374 . S
C696 H670 0.950 . S
C696 C692 1.385 . S
C696 C695 1.374 . S
C697 C694 1.499 . S
C697 C698 1.373 . S
C697 C699 1.389 . S
C698 H671 0.950 . S
C698 C684 1.377 . S
C698 C697 1.373 . S
C699 C683 1.377 . S
C699 C697 1.389 . S
C699 C700 1.524 . S
C700 C699 1.524 . S
C700 C701 1.397 . S
C700 C705 1.363 . S
C701 H672 0.950 . S
C701 C700 1.397 . S
C701 C702 1.334 . S
C702 H673 0.950 . S
C702 C701 1.334 . S
C702 C703 1.287 . S
C703 C702 1.287 . S
C703 C704 1.524 . S
C703 H706 0.999 . S
C704 H674 0.950 . S
C704 C703 1.524 . S
C704 C705 1.415 . S
C705 H675 0.950 . S
C705 C700 1.363 . S
C705 C704 1.415 . S
H706 C703 0.999 . S
H707 C688 0.913 . S
H708 C726 0.951 . S
H709 C728 0.951 . S
H710 C730 0.950 . S
H711 C731 0.950 . S
H712 C733 0.950 . S
H713 C736 0.950 . S
H714 C737 0.950 . S
H715 C739 0.950 . S
H716 C740 0.950 . S
H717 C741 0.951 . S
H718 C743 0.951 . S
H719 C745 0.950 . S
H720 C746 0.950 . S
H721 C748 0.950 . S
H722 C751 0.950 . S
H723 C752 0.950 . S
H724 C754 0.950 . S
H725 C755 0.950 . S
C726 H708 0.951 . S
C726 C727 1.366 . S
C726 C728 1.388 . S
C727 C726 1.366 . S
C727 C731 1.385 . S
C728 H709 0.951 . S
C728 C726 1.388 . S
C728 C729 1.366 . S
C729 C728 1.366 . S
C729 C730 1.414 . S
C729 C732 1.499 . S
C730 H710 0.950 . S
C730 C729 1.414 . S
C730 C731 1.374 . S
C731 H711 0.950 . S
C731 C727 1.385 . S
C731 C730 1.374 . S
C732 C729 1.499 . S
C732 C733 1.373 . S
C732 C734 1.389 . S
C733 H712 0.950 . S
C733 C732 1.373 . S
C733 C749 1.377 . S
C734 C732 1.389 . S
C734 C735 1.524 . S
C734 C748 1.377 . S
C735 C734 1.524 . S
C735 C736 1.397 . S
C735 C740 1.363 . S
C736 H713 0.950 . S
C736 C735 1.397 . S
C736 C737 1.334 . S
C737 H714 0.950 . S
C737 C736 1.334 . S
C737 C738 1.287 . S
C738 C737 1.287 . S
C738 C739 1.524 . S
C738 H757 0.913 . S
C739 H715 0.950 . S
C739 C738 1.524 . S
C739 C740 1.415 . S
C740 H716 0.950 . S
C740 C735 1.363 . S
C740 C739 1.415 . S
C741 H717 0.951 . S
C741 C742 1.366 . S
C741 C743 1.388 . S
C742 C741 1.366 . S
C742 C746 1.385 . S
C743 H718 0.951 . S
C743 C741 1.388 . S
C743 C744 1.366 . S
C744 C743 1.366 . S
C744 C745 1.414 . S
C744 C747 1.499 . S
C745 H719 0.950 . S
C745 C744 1.414 . S
C745 C746 1.374 . S
C746 H720 0.950 . S
C746 C742 1.385 . S
C746 C745 1.374 . S
C747 C744 1.499 . S
C747 C748 1.373 . S
C747 C749 1.389 . S
C748 H721 0.950 . S
C748 C734 1.377 . S
C748 C747 1.373 . S
C749 C733 1.377 . S
C749 C747 1.389 . S
C749 C750 1.524 . S
C750 C749 1.524 . S
C750 C751 1.397 . S
C750 C755 1.363 . S
C751 H722 0.950 . S
C751 C750 1.397 . S
C751 C752 1.334 . S
C752 H723 0.950 . S
C752 C751 1.334 . S
C752 C753 1.287 . S
C753 C752 1.287 . S
C753 C754 1.524 . S
C753 H756 0.999 . S
C754 H724 0.950 . S
C754 C753 1.524 . S
C754 C755 1.415 . S
C755 H725 0.950 . S
C755 C750 1.363 . S
C755 C754 1.415 . S
H756 C753 0.999 . S
H757 C738 0.913 . S
H758 C776 0.951 . S
H759 C778 0.951 . S
H760 C780 0.950 . S
H761 C781 0.950 . S
H762 C783 0.950 . S
H763 C786 0.950 . S
H764 C787 0.950 . S
H765 C789 0.950 . S
H766 C790 0.950 . S
H767 C791 0.951 . S
H768 C793 0.951 . S
H769 C795 0.950 . S
H770 C796 0.950 . S
H771 C798 0.950 . S
H772 C801 0.950 . S
H773 C802 0.950 . S
H774 C804 0.950 . S
H775 C805 0.950 . S
C776 H758 0.951 . S
C776 C777 1.366 . S
C776 C778 1.388 . S
C777 C776 1.366 . S
C777 C781 1.385 . S
C778 H759 0.951 . S
C778 C776 1.388 . S
C778 C779 1.366 . S
C779 C778 1.366 . S
C779 C780 1.414 . S
C779 C782 1.499 . S
C780 H760 0.950 . S
C780 C779 1.414 . S
C780 C781 1.374 . S
C781 H761 0.950 . S
C781 C777 1.385 . S
C781 C780 1.374 . S
C782 C779 1.499 . S
C782 C783 1.373 . S
C782 C784 1.389 . S
C783 H762 0.950 . S
C783 C782 1.373 . S
C783 C799 1.377 . S
C784 C782 1.389 . S
C784 C785 1.524 . S
C784 C798 1.377 . S
C785 C784 1.524 . S
C785 C786 1.397 1_554 S
C785 C790 1.363 . S
C786 H763 0.950 . S
C786 C785 1.397 1_556 S
C786 C787 1.334 . S
C787 H764 0.950 . S
C787 C786 1.334 . S
C787 C788 1.287 . S
C788 C787 1.287 . S
C788 C789 1.524 . S
C788 H807 0.913 . S
C789 H765 0.950 . S
C789 C788 1.524 . S
C789 C790 1.415 1_556 S
C790 H766 0.950 . S
C790 C785 1.363 . S
C790 C789 1.415 1_554 S
C791 H767 0.951 . S
C791 C792 1.366 . S
C791 C793 1.388 . S
C792 C791 1.366 . S
C792 C796 1.385 . S
C793 H768 0.951 . S
C793 C791 1.388 . S
C793 C794 1.366 . S
C794 C793 1.366 . S
C794 C795 1.414 . S
C794 C797 1.499 . S
C795 H769 0.950 . S
C795 C794 1.414 . S
C795 C796 1.374 . S
C796 H770 0.950 . S
C796 C792 1.385 . S
C796 C795 1.374 . S
C797 C794 1.499 . S
C797 C798 1.373 . S
C797 C799 1.389 . S
C798 H771 0.950 . S
C798 C784 1.377 . S
C798 C797 1.373 . S
C799 C783 1.377 . S
C799 C797 1.389 . S
C799 C800 1.524 . S
C800 C799 1.524 . S
C800 C801 1.397 . S
C800 C805 1.363 . S
C801 H772 0.950 . S
C801 C800 1.397 . S
C801 C802 1.334 . S
C802 H773 0.950 . S
C802 C801 1.334 . S
C802 C803 1.287 . S
C803 C802 1.287 . S
C803 C804 1.524 . S
C803 H806 0.999 . S
C804 H774 0.950 . S
C804 C803 1.524 . S
C804 C805 1.415 . S
C805 H775 0.950 . S
C805 C800 1.363 . S
C805 C804 1.415 . S
H806 C803 0.999 . S
H807 C788 0.913 . S
H808 C826 0.951 . S
H809 C828 0.951 . S
H810 C830 0.950 . S
H811 C831 0.950 . S
H812 C833 0.950 . S
H813 C836 0.950 . S
H814 C837 0.950 . S
H815 C839 0.950 . S
H816 C840 0.966 . S
H817 C841 0.951 . S
H818 C843 0.951 . S
H819 C845 0.950 . S
H820 C846 0.950 . S
H821 C848 0.950 . S
H822 C851 0.950 . S
H823 C852 0.950 . S
H824 C854 0.950 . S
H825 C855 0.950 . S
C826 H808 0.951 . S
C826 C827 1.366 . S
C826 C828 1.388 . S
C827 C826 1.366 . S
C827 C831 1.385 . S
C828 H809 0.951 . S
C828 C826 1.388 . S
C828 C829 1.366 . S
C829 C828 1.366 . S
C829 C830 1.414 . S
C829 C832 1.499 . S
C830 H810 0.950 . S
C830 C829 1.414 . S
C830 C831 1.374 . S
C831 H811 0.950 . S
C831 C827 1.385 . S
C831 C830 1.374 . S
C832 C829 1.499 . S
C832 C833 1.373 . S
C832 C834 1.354 1_556 S
C833 H812 0.950 . S
C833 C832 1.373 . S
C833 C849 1.377 . S
C834 C832 1.354 1_554 S
C834 C835 1.567 . S
C834 C848 1.381 . S
C835 C834 1.567 . S
C835 C836 1.397 . S
C835 C840 1.363 . S
C836 H813 0.950 . S
C836 C835 1.397 . S
C836 C837 1.334 . S
C837 H814 0.950 . S
C837 C836 1.334 . S
C837 C838 1.287 . S
C838 C837 1.287 . S
C838 C839 1.524 . S
C838 H857 0.913 . S
C839 H815 0.950 . S
C839 C838 1.524 . S
C839 C840 1.415 . S
C840 H816 0.966 . S
C840 C835 1.363 . S
C840 C839 1.415 . S
C841 H817 0.951 . S
C841 C842 1.366 . S
C841 C843 1.388 . S
C842 C841 1.366 . S
C842 C846 1.385 1_554 S
C843 H818 0.951 . S
C843 C841 1.388 . S
C843 C844 1.366 1_554 S
C844 C843 1.366 1_556 S
C844 C845 1.414 . S
C844 C847 1.499 . S
C845 H819 0.950 . S
C845 C844 1.414 . S
C845 C846 1.374 . S
C846 H820 0.950 . S
C846 C842 1.385 1_556 S
C846 C845 1.374 . S
C847 C844 1.499 . S
C847 C848 1.373 1_556 S
C847 C849 1.389 . S
C848 H821 0.950 . S
C848 C834 1.381 . S
C848 C847 1.373 1_554 S
C849 C833 1.377 . S
C849 C847 1.389 . S
C849 C850 1.524 . S
C850 C849 1.524 . S
C850 C851 1.397 . S
C850 C855 1.363 . S
C851 H822 0.950 . S
C851 C850 1.397 . S
C851 C852 1.334 . S
C852 H823 0.950 . S
C852 C851 1.334 . S
C852 C853 1.287 . S
C853 C852 1.287 . S
C853 C854 1.524 . S
C853 H856 0.999 . S
C854 H824 0.950 . S
C854 C853 1.524 . S
C854 C855 1.415 . S
C855 H825 0.950 . S
C855 C850 1.363 . S
C855 C854 1.415 . S
H856 C853 0.999 . S
H857 C838 0.913 . S
H858 C876 0.951 . S
H859 C878 0.951 . S
H860 C880 0.950 . S
H861 C881 0.950 . S
H862 C883 0.950 . S
H863 C886 0.950 . S
H864 C887 0.950 . S
H865 C889 0.950 . S
H866 C890 0.950 . S
H867 C891 0.951 . S
H868 C893 0.951 . S
H869 C895 0.950 . S
H870 C896 0.950 . S
H871 C898 0.950 . S
H872 C901 0.950 . S
H873 C902 0.950 . S
H874 C904 0.950 . S
H875 C905 0.950 . S
C876 H858 0.951 . S
C876 C877 1.366 . S
C876 C878 1.388 . S
C877 C876 1.366 . S
C877 C881 1.385 . S
C878 H859 0.951 . S
C878 C876 1.388 . S
C878 C879 1.366 . S
C879 C878 1.366 . S
C879 C880 1.414 . S
C879 C882 1.499 . S
C880 H860 0.950 . S
C880 C879 1.414 . S
C880 C881 1.374 . S
C881 H861 0.950 . S
C881 C877 1.385 . S
C881 C880 1.374 . S
C882 C879 1.499 . S
C882 C883 1.373 . S
C882 C884 1.389 . S
C883 H862 0.950 . S
C883 C882 1.373 . S
C883 C899 1.377 . S
C884 C882 1.389 . S
C884 C885 1.524 . S
C884 C898 1.377 . S
C885 C884 1.524 . S
C885 C886 1.397 . S
C885 C890 1.363 . S
C886 H863 0.950 . S
C886 C885 1.397 . S
C886 C887 1.334 . S
C887 H864 0.950 . S
C887 C886 1.334 . S
C887 C888 1.287 . S
C888 C887 1.287 . S
C888 C889 1.524 . S
C888 H907 0.913 . S
C889 H865 0.950 . S
C889 C888 1.524 . S
C889 C890 1.415 . S
C890 H866 0.950 . S
C890 C885 1.363 . S
C890 C889 1.415 . S
C891 H867 0.951 . S
C891 C892 1.366 . S
C891 C893 1.388 . S
C892 C891 1.366 . S
C892 C896 1.385 . S
C893 H868 0.951 . S
C893 C891 1.388 . S
C893 C894 1.366 . S
C894 C893 1.366 . S
C894 C895 1.414 . S
C894 C897 1.499 . S
C895 H869 0.950 . S
C895 C894 1.414 . S
C895 C896 1.374 . S
C896 H870 0.950 . S
C896 C892 1.385 . S
C896 C895 1.374 . S
C897 C894 1.499 . S
C897 C898 1.373 . S
C897 C899 1.389 . S
C898 H871 0.950 . S
C898 C884 1.377 . S
C898 C897 1.373 . S
C899 C883 1.377 . S
C899 C897 1.389 . S
C899 C900 1.524 . S
C900 C899 1.524 . S
C900 C901 1.397 . S
C900 C905 1.363 . S
C901 H872 0.950 . S
C901 C900 1.397 . S
C901 C902 1.334 . S
C902 H873 0.950 . S
C902 C901 1.334 . S
C902 C903 1.287 . S
C903 C902 1.287 . S
C903 C904 1.524 . S
C903 H906 0.999 . S
C904 H874 0.950 . S
C904 C903 1.524 . S
C904 C905 1.415 . S
C905 H875 0.950 . S
C905 C900 1.363 . S
C905 C904 1.415 . S
H906 C903 0.999 . S
H907 C888 0.913 . S
H908 C926 0.951 . S
H909 C928 0.951 . S
H910 C930 0.950 . S
H911 C931 0.950 . S
H912 C933 0.950 . S
H913 C936 0.950 . S
H914 C937 0.950 . S
H915 C939 0.950 . S
H916 C940 0.950 . S
H917 C941 0.951 . S
H918 C943 0.951 . S
H919 C945 0.950 . S
H920 C946 0.950 . S
H921 C948 0.950 . S
H922 C951 0.950 . S
H923 C952 0.950 . S
H924 C954 0.950 . S
H925 C955 0.950 . S
C926 H908 0.951 . S
C926 C927 1.366 . S
C926 C928 1.388 . S
C927 C926 1.366 . S
C927 C931 1.385 . S
C928 H909 0.951 . S
C928 C926 1.388 . S
C928 C929 1.366 . S
C929 C928 1.366 . S
C929 C930 1.414 . S
C929 C932 1.499 . S
C930 H910 0.950 . S
C930 C929 1.414 . S
C930 C931 1.374 . S
C931 H911 0.950 . S
C931 C927 1.385 . S
C931 C930 1.374 . S
C932 C929 1.499 . S
C932 C933 1.373 . S
C932 C934 1.389 . S
C933 H912 0.950 . S
C933 C932 1.373 . S
C933 C949 1.377 . S
C934 C932 1.389 . S
C934 C935 1.524 . S
C934 C948 1.377 . S
C935 C934 1.524 . S
C935 C936 1.397 . S
C935 C940 1.363 . S
C936 H913 0.950 . S
C936 C935 1.397 . S
C936 C937 1.334 . S
C937 H914 0.950 . S
C937 C936 1.334 . S
C937 C938 1.287 . S
C938 C937 1.287 . S
C938 C939 1.524 . S
C938 H957 0.913 . S
C939 H915 0.950 . S
C939 C938 1.524 . S
C939 C940 1.415 . S
C940 H916 0.950 . S
C940 C935 1.363 . S
C940 C939 1.415 . S
C941 H917 0.951 . S
C941 C942 1.366 . S
C941 C943 1.388 . S
C942 C941 1.366 . S
C942 C946 1.385 . S
C943 H918 0.951 . S
C943 C941 1.388 . S
C943 C944 1.366 . S
C944 C943 1.366 . S
C944 C945 1.414 . S
C944 C947 1.499 . S
C945 H919 0.950 . S
C945 C944 1.414 . S
C945 C946 1.374 . S
C946 H920 0.950 . S
C946 C942 1.385 . S
C946 C945 1.374 . S
C947 C944 1.499 . S
C947 C948 1.373 . S
C947 C949 1.389 . S
C948 H921 0.950 . S
C948 C934 1.377 . S
C948 C947 1.373 . S
C949 C933 1.377 . S
C949 C947 1.389 . S
C949 C950 1.524 . S
C950 C949 1.524 . S
C950 C951 1.397 . S
C950 C955 1.363 . S
C951 H922 0.950 . S
C951 C950 1.397 . S
C951 C952 1.334 . S
C952 H923 0.950 . S
C952 C951 1.334 . S
C952 C953 1.287 . S
C953 C952 1.287 . S
C953 C954 1.524 . S
C953 H956 0.999 . S
C954 H924 0.950 . S
C954 C953 1.524 . S
C954 C955 1.415 . S
C955 H925 0.950 . S
C955 C950 1.363 . S
C955 C954 1.415 . S
H956 C953 0.999 . S
H957 C938 0.913 . S
H958 C976 0.951 . S
H959 C978 0.951 . S
H960 C980 0.950 . S
H961 C981 0.950 . S
H962 C983 0.950 . S
H963 C986 0.950 . S
H964 C987 0.950 . S
H965 C989 0.950 . S
H966 C990 0.950 . S
H967 C991 0.951 . S
H968 C993 0.951 . S
H969 C995 0.950 . S
H970 C996 0.950 . S
H971 C998 0.950 . S
H972 C1001 0.950 . S
H973 C1002 0.950 . S
H974 C1004 0.950 . S
H975 C1005 0.950 . S
C976 H958 0.951 . S
C976 C977 1.366 . S
C976 C978 1.388 . S
C977 C976 1.366 . S
C977 C981 1.385 . S
C978 H959 0.951 . S
C978 C976 1.388 . S
C978 C979 1.366 . S
C979 C978 1.366 . S
C979 C980 1.414 . S
C979 C982 1.499 . S
C980 H960 0.950 . S
C980 C979 1.414 . S
C980 C981 1.374 . S
C981 H961 0.950 . S
C981 C977 1.385 . S
C981 C980 1.374 . S
C982 C979 1.499 . S
C982 C983 1.373 . S
C982 C984 1.389 . S
C983 H962 0.950 . S
C983 C982 1.373 . S
C983 C999 1.377 . S
C984 C982 1.389 . S
C984 C985 1.524 . S
C984 C998 1.377 . S
C985 C984 1.524 . S
C985 C986 1.397 . S
C985 C990 1.363 . S
C986 H963 0.950 . S
C986 C985 1.397 . S
C986 C987 1.334 . S
C987 H964 0.950 . S
C987 C986 1.334 . S
C987 C988 1.287 . S
C988 C987 1.287 . S
C988 C989 1.524 . S
C988 H1007 0.913 . S
C989 H965 0.950 . S
C989 C988 1.524 . S
C989 C990 1.415 . S
C990 H966 0.950 . S
C990 C985 1.363 . S
C990 C989 1.415 . S
C991 H967 0.951 . S
C991 C992 1.366 . S
C991 C993 1.388 . S
C992 C991 1.366 . S
C992 C996 1.385 . S
C993 H968 0.951 . S
C993 C991 1.388 . S
C993 C994 1.366 . S
C994 C993 1.366 . S
C994 C995 1.414 . S
C994 C997 1.499 . S
C995 H969 0.950 . S
C995 C994 1.414 . S
C995 C996 1.374 . S
C996 H970 0.950 . S
C996 C992 1.385 . S
C996 C995 1.374 . S
C997 C994 1.499 . S
C997 C998 1.373 . S
C997 C999 1.389 . S
C998 H971 0.950 . S
C998 C984 1.377 . S
C998 C997 1.373 . S
C999 C983 1.377 . S
C999 C997 1.389 . S
C999 C1000 1.524 . S
C1000 C999 1.524 . S
C1000 C1001 1.397 . S
C1000 C1005 1.363 . S
C1001 H972 0.950 . S
C1001 C1000 1.397 . S
C1001 C1002 1.334 . S
C1002 H973 0.950 . S
C1002 C1001 1.334 . S
C1002 C1003 1.287 . S
C1003 C1002 1.287 . S
C1003 C1004 1.524 . S
C1003 H1006 0.999 . S
C1004 H974 0.950 . S
C1004 C1003 1.524 . S
C1004 C1005 1.415 . S
C1005 H975 0.950 . S
C1005 C1000 1.363 . S
C1005 C1004 1.415 . S
H1006 C1003 0.999 . S
H1007 C988 0.913 . S
H1008 C1026 0.951 . S
H1009 C1028 0.951 . S
H1010 C1030 0.950 . S
H1011 C1031 0.950 . S
H1012 C1033 0.950 . S
H1013 C1036 0.950 . S
H1014 C1037 0.950 . S
H1015 C1039 0.950 . S
H1016 C1040 0.950 . S
H1017 C1041 0.951 . S
H1018 C1043 0.951 . S
H1019 C1045 0.950 . S
H1020 C1046 0.950 . S
H1021 C1048 0.950 . S
H1022 C1051 0.950 . S
H1023 C1052 0.950 . S
H1024 C1054 0.950 . S
H1025 C1055 0.950 . S
C1026 H1008 0.951 . S
C1026 C1027 1.366 . S
C1026 C1028 1.388 . S
C1027 C1026 1.366 . S
C1027 C1031 1.385 . S
C1028 H1009 0.951 . S
C1028 C1026 1.388 . S
C1028 C1029 1.366 . S
C1029 C1028 1.366 . S
C1029 C1030 1.414 . S
C1029 C1032 1.499 . S
C1030 H1010 0.950 . S
C1030 C1029 1.414 . S
C1030 C1031 1.374 . S
C1031 H1011 0.950 . S
C1031 C1027 1.385 . S
C1031 C1030 1.374 . S
C1032 C1029 1.499 . S
C1032 C1033 1.373 . S
C1032 C1034 1.389 . S
C1033 H1012 0.950 . S
C1033 C1032 1.373 . S
C1033 C1049 1.377 . S
C1034 C1032 1.389 . S
C1034 C1035 1.524 . S
C1034 C1048 1.377 . S
C1035 C1034 1.524 . S
C1035 C1036 1.397 . S
C1035 C1040 1.363 . S
C1036 H1013 0.950 . S
C1036 C1035 1.397 . S
C1036 C1037 1.334 . S
C1037 H1014 0.950 . S
C1037 C1036 1.334 . S
C1037 C1038 1.287 . S
C1038 C1037 1.287 . S
C1038 C1039 1.524 . S
C1038 H1057 0.913 . S
C1039 H1015 0.950 . S
C1039 C1038 1.524 . S
C1039 C1040 1.415 . S
C1040 H1016 0.950 . S
C1040 C1035 1.363 . S
C1040 C1039 1.415 . S
C1041 H1017 0.951 . S
C1041 C1042 1.366 . S
C1041 C1043 1.388 . S
C1042 C1041 1.366 . S
C1042 C1046 1.385 . S
C1043 H1018 0.951 . S
C1043 C1041 1.388 . S
C1043 C1044 1.366 . S
C1044 C1043 1.366 . S
C1044 C1045 1.414 . S
C1044 C1047 1.499 . S
C1045 H1019 0.950 . S
C1045 C1044 1.414 . S
C1045 C1046 1.374 . S
C1046 H1020 0.950 . S
C1046 C1042 1.385 . S
C1046 C1045 1.374 . S
C1047 C1044 1.499 . S
C1047 C1048 1.373 . S
C1047 C1049 1.389 . S
C1048 H1021 0.950 . S
C1048 C1034 1.377 . S
C1048 C1047 1.373 . S
C1049 C1033 1.377 . S
C1049 C1047 1.389 . S
C1049 C1050 1.524 . S
C1050 C1049 1.524 . S
C1050 C1051 1.397 . S
C1050 C1055 1.363 . S
C1051 H1022 0.950 . S
C1051 C1050 1.397 . S
C1051 C1052 1.334 . S
C1052 H1023 0.950 . S
C1052 C1051 1.334 . S
C1052 C1053 1.287 . S
C1053 C1052 1.287 . S
C1053 C1054 1.524 . S
C1053 H1056 0.999 . S
C1054 H1024 0.950 . S
C1054 C1053 1.524 . S
C1054 C1055 1.415 . S
C1055 H1025 0.950 . S
C1055 C1050 1.363 . S
C1055 C1054 1.415 . S
H1056 C1053 0.999 . S
H1057 C1038 0.913 . S
H1058 C1076 0.951 . S
H1059 C1078 0.951 . S
H1060 C1080 0.950 . S
H1061 C1081 0.950 . S
H1062 C1083 0.953 1_556 S
H1063 C1086 0.950 . S
H1064 C1087 0.950 . S
H1065 C1089 0.950 . S
H1066 C1090 0.950 . S
H1067 C1091 0.951 . S
H1068 C1093 0.951 . S
H1069 C1095 0.950 . S
H1070 C1096 0.950 . S
H1071 C1098 0.950 . S
H1072 C1101 0.950 . S
H1073 C1102 0.950 . S
H1074 C1104 0.950 . S
H1075 C1105 0.950 . S
C1076 H1058 0.951 . S
C1076 C1077 1.366 . S
C1076 C1078 1.388 . S
C1077 C1076 1.366 . S
C1077 C1081 1.385 . S
C1078 H1059 0.951 . S
C1078 C1076 1.388 . S
C1078 C1079 1.366 . S
C1079 C1078 1.366 . S
C1079 C1080 1.414 . S
C1079 C1082 1.499 . S
C1080 H1060 0.950 . S
C1080 C1079 1.414 . S
C1080 C1081 1.374 . S
C1081 H1061 0.950 . S
C1081 C1077 1.385 . S
C1081 C1080 1.374 . S
C1082 C1079 1.499 . S
C1082 C1083 1.373 . S
C1082 C1084 1.389 . S
C1083 H1062 0.953 1_554 S
C1083 C1082 1.373 . S
C1083 C1099 1.377 . S
C1084 C1082 1.389 . S
C1084 C1085 1.524 . S
C1084 C1098 1.377 . S
C1085 C1084 1.524 . S
C1085 C1086 1.397 . S
C1085 C1090 1.363 . S
C1086 H1063 0.950 . S
C1086 C1085 1.397 . S
C1086 C1087 1.334 . S
C1087 H1064 0.950 . S
C1087 C1086 1.334 . S
C1087 C1088 1.287 . S
C1088 C1087 1.287 . S
C1088 C1089 1.524 . S
C1088 H1107 0.913 . S
C1089 H1065 0.950 . S
C1089 C1088 1.524 . S
C1089 C1090 1.415 . S
C1090 H1066 0.950 . S
C1090 C1085 1.363 . S
C1090 C1089 1.415 . S
C1091 H1067 0.951 . S
C1091 C1092 1.366 . S
C1091 C1093 1.388 . S
C1092 C1091 1.366 . S
C1092 C1096 1.385 . S
C1093 H1068 0.951 . S
C1093 C1091 1.388 . S
C1093 C1094 1.366 . S
C1094 C1093 1.366 . S
C1094 C1095 1.414 . S
C1094 C1097 1.499 . S
C1095 H1069 0.950 . S
C1095 C1094 1.414 . S
C1095 C1096 1.374 . S
C1096 H1070 0.950 . S
C1096 C1092 1.385 . S
C1096 C1095 1.374 . S
C1097 C1094 1.499 . S
C1097 C1098 1.373 . S
C1097 C1099 1.389 . S
C1098 H1071 0.950 . S
C1098 C1084 1.377 . S
C1098 C1097 1.373 . S
C1099 C1083 1.377 . S
C1099 C1097 1.389 . S
C1099 C1100 1.524 1_554 S
C1100 C1099 1.524 1_556 S
C1100 C1101 1.397 . S
C1100 C1105 1.363 . S
C1101 H1072 0.950 . S
C1101 C1100 1.397 . S
C1101 C1102 1.334 . S
C1102 H1073 0.950 . S
C1102 C1101 1.334 . S
C1102 C1103 1.287 . S
C1103 C1102 1.287 . S
C1103 C1104 1.524 . S
C1103 H1106 0.999 . S
C1104 H1074 0.950 . S
C1104 C1103 1.524 . S
C1104 C1105 1.415 . S
C1105 H1075 0.950 . S
C1105 C1100 1.363 . S
C1105 C1104 1.415 . S
H1106 C1103 0.999 . S
H1107 C1088 0.913 . S
H1108 C1126 0.951 . S
H1109 C1128 0.951 . S
H1110 C1130 0.950 . S
H1111 C1131 0.950 . S
H1112 C1133 0.950 . S
H1113 C1136 0.950 . S
H1114 C1137 0.950 . S
H1115 C1139 0.950 . S
H1116 C1140 0.950 . S
H1117 C1141 0.951 . S
H1118 C1143 0.951 . S
H1119 C1145 0.950 . S
H1120 C1146 0.950 . S
H1121 C1148 0.950 . S
H1122 C1151 0.950 . S
H1123 C1152 0.950 . S
H1124 C1154 0.950 . S
H1125 C1155 0.950 . S
C1126 H1108 0.951 . S
C1126 C1127 1.366 . S
C1126 C1128 1.388 . S
C1127 C1126 1.366 . S
C1127 C1131 1.385 . S
C1128 H1109 0.951 . S
C1128 C1126 1.388 . S
C1128 C1129 1.366 . S
C1129 C1128 1.366 . S
C1129 C1130 1.414 . S
C1129 C1132 1.499 . S
C1130 H1110 0.950 . S
C1130 C1129 1.414 . S
C1130 C1131 1.374 . S
C1131 H1111 0.950 . S
C1131 C1127 1.385 . S
C1131 C1130 1.374 . S
C1132 C1129 1.499 . S
C1132 C1133 1.373 . S
C1132 C1134 1.389 . S
C1133 H1112 0.950 . S
C1133 C1132 1.373 . S
C1133 C1149 1.377 . S
C1134 C1132 1.389 . S
C1134 C1135 1.524 . S
C1134 C1148 1.377 . S
C1135 C1134 1.524 . S
C1135 C1136 1.397 . S
C1135 C1140 1.363 . S
C1136 H1113 0.950 . S
C1136 C1135 1.397 . S
C1136 C1137 1.334 . S
C1137 H1114 0.950 . S
C1137 C1136 1.334 . S
C1137 C1138 1.287 . S
C1138 C1137 1.287 . S
C1138 C1139 1.524 . S
C1138 H1157 0.913 . S
C1139 H1115 0.950 . S
C1139 C1138 1.524 . S
C1139 C1140 1.415 . S
C1140 H1116 0.950 . S
C1140 C1135 1.363 . S
C1140 C1139 1.415 . S
C1141 H1117 0.951 . S
C1141 C1142 1.366 . S
C1141 C1143 1.388 . S
C1142 C1141 1.366 . S
C1142 C1146 1.385 . S
C1143 H1118 0.951 . S
C1143 C1141 1.388 . S
C1143 C1144 1.366 . S
C1144 C1143 1.366 . S
C1144 C1145 1.414 . S
C1144 C1147 1.499 . S
C1145 H1119 0.950 . S
C1145 C1144 1.414 . S
C1145 C1146 1.374 . S
C1146 H1120 0.950 . S
C1146 C1142 1.385 . S
C1146 C1145 1.374 . S
C1147 C1144 1.499 . S
C1147 C1148 1.373 . S
C1147 C1149 1.389 . S
C1148 H1121 0.950 . S
C1148 C1134 1.377 . S
C1148 C1147 1.373 . S
C1149 C1133 1.377 . S
C1149 C1147 1.389 . S
C1149 C1150 1.524 . S
C1150 C1149 1.524 . S
C1150 C1151 1.397 . S
C1150 C1155 1.363 . S
C1151 H1122 0.950 . S
C1151 C1150 1.397 . S
C1151 C1152 1.334 . S
C1152 H1123 0.950 . S
C1152 C1151 1.334 . S
C1152 C1153 1.287 . S
C1153 C1152 1.287 . S
C1153 C1154 1.524 . S
C1153 H1156 0.999 . S
C1154 H1124 0.950 . S
C1154 C1153 1.524 . S
C1154 C1155 1.415 . S
C1155 H1125 0.950 . S
C1155 C1150 1.363 . S
C1155 C1154 1.415 . S
H1156 C1153 0.999 . S
H1157 C1138 0.913 . S
H1158 C1176 0.951 . S
H1159 C1178 0.951 . S
H1160 C1180 0.950 . S
H1161 C1181 0.950 . S
H1162 C1183 0.950 . S
H1163 C1186 0.950 . S
H1164 C1187 0.950 . S
H1165 C1189 0.950 . S
H1166 C1190 0.950 . S
H1167 C1191 0.951 . S
H1168 C1193 0.951 . S
H1169 C1195 0.950 . S
H1170 C1196 0.950 . S
H1171 C1198 0.950 . S
H1172 C1201 0.950 . S
H1173 C1202 0.950 . S
H1174 C1204 0.950 . S
H1175 C1205 0.950 . S
C1176 H1158 0.951 . S
C1176 C1177 1.366 . S
C1176 C1178 1.388 . S
C1177 C1176 1.366 . S
C1177 C1181 1.385 . S
C1178 H1159 0.951 . S
C1178 C1176 1.388 . S
C1178 C1179 1.366 . S
C1179 C1178 1.366 . S
C1179 C1180 1.414 . S
C1179 C1182 1.499 . S
C1180 H1160 0.950 . S
C1180 C1179 1.414 . S
C1180 C1181 1.374 . S
C1181 H1161 0.950 . S
C1181 C1177 1.385 . S
C1181 C1180 1.374 . S
C1182 C1179 1.499 . S
C1182 C1183 1.373 . S
C1182 C1184 1.389 . S
C1183 H1162 0.950 . S
C1183 C1182 1.373 . S
C1183 C1199 1.377 . S
C1184 C1182 1.389 . S
C1184 C1185 1.524 . S
C1184 C1198 1.377 . S
C1185 C1184 1.524 . S
C1185 C1186 1.397 . S
C1185 C1190 1.363 . S
C1186 H1163 0.950 . S
C1186 C1185 1.397 . S
C1186 C1187 1.334 . S
C1187 H1164 0.950 . S
C1187 C1186 1.334 . S
C1187 C1188 1.287 . S
C1188 C1187 1.287 . S
C1188 C1189 1.524 . S
C1188 H1207 0.913 . S
C1189 H1165 0.950 . S
C1189 C1188 1.524 . S
C1189 C1190 1.415 . S
C1190 H1166 0.950 . S
C1190 C1185 1.363 . S
C1190 C1189 1.415 . S
C1191 H1167 0.951 . S
C1191 C1192 1.366 . S
C1191 C1193 1.388 . S
C1192 C1191 1.366 . S
C1192 C1196 1.385 . S
C1193 H1168 0.951 . S
C1193 C1191 1.388 . S
C1193 C1194 1.366 . S
C1194 C1193 1.366 . S
C1194 C1195 1.414 . S
C1194 C1197 1.499 . S
C1195 H1169 0.950 . S
C1195 C1194 1.414 . S
C1195 C1196 1.374 . S
C1196 H1170 0.950 . S
C1196 C1192 1.385 . S
C1196 C1195 1.374 . S
C1197 C1194 1.499 . S
C1197 C1198 1.373 . S
C1197 C1199 1.389 . S
C1198 H1171 0.950 . S
C1198 C1184 1.377 . S
C1198 C1197 1.373 . S
C1199 C1183 1.377 . S
C1199 C1197 1.389 . S
C1199 C1200 1.524 . S
C1200 C1199 1.524 . S
C1200 C1201 1.397 . S
C1200 C1205 1.363 . S
C1201 H1172 0.950 . S
C1201 C1200 1.397 . S
C1201 C1202 1.334 . S
C1202 H1173 0.950 . S
C1202 C1201 1.334 . S
C1202 C1203 1.287 . S
C1203 C1202 1.287 . S
C1203 C1204 1.524 . S
C1203 H1206 0.999 . S
C1204 H1174 0.950 . S
C1204 C1203 1.524 . S
C1204 C1205 1.415 . S
C1205 H1175 0.950 . S
C1205 C1200 1.363 . S
C1205 C1204 1.415 . S
H1206 C1203 0.999 . S
H1207 C1188 0.913 . S
H1208 C1226 0.951 . S
H1209 C1228 0.951 . S
H1210 C1230 0.950 . S
H1211 C1231 0.950 . S
H1212 C1233 0.950 . S
H1213 C1236 0.950 . S
H1214 C1237 0.950 . S
H1215 C1239 0.950 . S
H1216 C1240 0.950 . S
H1217 C1241 0.951 . S
H1218 C1243 0.951 . S
H1219 C1245 0.950 . S
H1220 C1246 0.950 . S
H1221 C1248 0.950 . S
H1222 C1251 0.950 . S
H1223 C1252 0.950 . S
H1224 C1254 0.950 . S
H1225 C1255 0.950 . S
C1226 H1208 0.951 . S
C1226 C1227 1.366 . S
C1226 C1228 1.388 . S
C1227 C1226 1.366 . S
C1227 C1231 1.385 . S
C1228 H1209 0.951 . S
C1228 C1226 1.388 . S
C1228 C1229 1.366 . S
C1229 C1228 1.366 . S
C1229 C1230 1.414 . S
C1229 C1232 1.499 . S
C1230 H1210 0.950 . S
C1230 C1229 1.414 . S
C1230 C1231 1.374 . S
C1231 H1211 0.950 . S
C1231 C1227 1.385 . S
C1231 C1230 1.374 . S
C1232 C1229 1.499 . S
C1232 C1233 1.373 . S
C1232 C1234 1.389 . S
C1233 H1212 0.950 . S
C1233 C1232 1.373 . S
C1233 C1249 1.377 . S
C1234 C1232 1.389 . S
C1234 C1235 1.524 . S
C1234 C1248 1.377 . S
C1235 C1234 1.524 . S
C1235 C1236 1.397 . S
C1235 C1240 1.363 . S
C1236 H1213 0.950 . S
C1236 C1235 1.397 . S
C1236 C1237 1.334 . S
C1237 H1214 0.950 . S
C1237 C1236 1.334 . S
C1237 C1238 1.287 . S
C1238 C1237 1.287 . S
C1238 C1239 1.524 . S
C1238 H1257 0.913 . S
C1239 H1215 0.950 . S
C1239 C1238 1.524 . S
C1239 C1240 1.415 . S
C1240 H1216 0.950 . S
C1240 C1235 1.363 . S
C1240 C1239 1.415 . S
C1241 H1217 0.951 . S
C1241 C1242 1.366 . S
C1241 C1243 1.388 . S
C1242 C1241 1.366 . S
C1242 C1246 1.385 . S
C1243 H1218 0.951 . S
C1243 C1241 1.388 . S
C1243 C1244 1.366 . S
C1244 C1243 1.366 . S
C1244 C1245 1.414 . S
C1244 C1247 1.499 . S
C1245 H1219 0.950 . S
C1245 C1244 1.414 . S
C1245 C1246 1.374 . S
C1246 H1220 0.950 . S
C1246 C1242 1.385 . S
C1246 C1245 1.374 . S
C1247 C1244 1.499 . S
C1247 C1248 1.373 . S
C1247 C1249 1.389 . S
C1248 H1221 0.950 . S
C1248 C1234 1.377 . S
C1248 C1247 1.373 . S
C1249 C1233 1.377 . S
C1249 C1247 1.389 . S
C1249 C1250 1.524 . S
C1250 C1249 1.524 . S
C1250 C1251 1.397 . S
C1250 C1255 1.363 . S
C1251 H1222 0.950 . S
C1251 C1250 1.397 . S
C1251 C1252 1.334 . S
C1252 H1223 0.950 . S
C1252 C1251 1.334 . S
C1252 C1253 1.287 . S
C1253 C1252 1.287 . S
C1253 C1254 1.524 . S
C1253 H1256 0.999 . S
C1254 H1224 0.950 . S
C1254 C1253 1.524 . S
C1254 C1255 1.415 . S
C1255 H1225 0.950 . S
C1255 C1250 1.363 . S
C1255 C1254 1.415 . S
H1256 C1253 0.999 . S
H1257 C1238 0.913 . S
H1258 C1276 0.951 . S
H1259 C1278 0.951 . S
H1260 C1280 0.950 . S
H1261 C1281 0.950 . S
H1262 C1283 0.950 . S
H1263 C1286 0.950 . S
H1264 C1287 0.950 . S
H1265 C1289 0.950 . S
H1266 C1290 0.950 . S
H1267 C1291 0.951 . S
H1268 C1293 0.951 . S
H1269 C1295 0.950 . S
H1270 C1296 0.950 . S
H1271 C1298 0.950 . S
H1272 C1301 0.950 . S
H1273 C1302 0.950 . S
H1274 C1304 0.950 . S
H1275 C1305 0.950 . S
C1276 H1258 0.951 . S
C1276 C1277 1.366 . S
C1276 C1278 1.388 . S
C1277 C1276 1.366 . S
C1277 C1281 1.385 . S
C1278 H1259 0.951 . S
C1278 C1276 1.388 . S
C1278 C1279 1.366 . S
C1279 C1278 1.366 . S
C1279 C1280 1.414 . S
C1279 C1282 1.499 . S
C1280 H1260 0.950 . S
C1280 C1279 1.414 . S
C1280 C1281 1.374 . S
C1281 H1261 0.950 . S
C1281 C1277 1.385 . S
C1281 C1280 1.374 . S
C1282 C1279 1.499 . S
C1282 C1283 1.373 . S
C1282 C1284 1.389 . S
C1283 H1262 0.950 . S
C1283 C1282 1.373 . S
C1283 C1299 1.377 . S
C1284 C1282 1.389 . S
C1284 C1285 1.524 . S
C1284 C1298 1.377 . S
C1285 C1284 1.524 . S
C1285 C1286 1.397 . S
C1285 C1290 1.363 . S
C1286 H1263 0.950 . S
C1286 C1285 1.397 . S
C1286 C1287 1.334 . S
C1287 H1264 0.950 . S
C1287 C1286 1.334 . S
C1287 C1288 1.287 . S
C1288 C1287 1.287 . S
C1288 C1289 1.524 . S
C1288 H1307 0.913 . S
C1289 H1265 0.950 . S
C1289 C1288 1.524 . S
C1289 C1290 1.415 . S
C1290 H1266 0.950 . S
C1290 C1285 1.363 . S
C1290 C1289 1.415 . S
C1291 H1267 0.951 . S
C1291 C1292 1.366 . S
C1291 C1293 1.388 . S
C1292 C1291 1.366 . S
C1292 C1296 1.385 . S
C1293 H1268 0.951 . S
C1293 C1291 1.388 . S
C1293 C1294 1.366 . S
C1294 C1293 1.366 . S
C1294 C1295 1.414 . S
C1294 C1297 1.499 . S
C1295 H1269 0.950 . S
C1295 C1294 1.414 . S
C1295 C1296 1.374 . S
C1296 H1270 0.950 . S
C1296 C1292 1.385 . S
C1296 C1295 1.374 . S
C1297 C1294 1.499 . S
C1297 C1298 1.373 . S
C1297 C1299 1.389 . S
C1298 H1271 0.950 . S
C1298 C1284 1.377 . S
C1298 C1297 1.373 . S
C1299 C1283 1.377 . S
C1299 C1297 1.389 . S
C1299 C1300 1.524 . S
C1300 C1299 1.524 . S
C1300 C1301 1.397 . S
C1300 C1305 1.363 . S
C1301 H1272 0.950 . S
C1301 C1300 1.397 . S
C1301 C1302 1.334 . S
C1302 H1273 0.950 . S
C1302 C1301 1.334 . S
C1302 C1303 1.287 . S
C1303 C1302 1.287 . S
C1303 C1304 1.524 . S
C1303 H1306 0.999 . S
C1304 H1274 0.950 . S
C1304 C1303 1.524 . S
C1304 C1305 1.415 . S
C1305 H1275 0.950 . S
C1305 C1300 1.363 . S
C1305 C1304 1.415 . S
H1306 C1303 0.999 . S
H1307 C1288 0.913 . S
H1308 C1326 0.951 . S
H1309 C1328 0.951 . S
H1310 C1330 0.950 . S
H1311 C1331 0.950 . S
H1312 C1333 0.950 . S
H1313 C1336 0.950 . S
H1314 C1337 0.950 . S
H1315 C1339 0.950 . S
H1316 C1340 0.950 . S
H1317 C1341 0.951 . S
H1318 C1343 0.951 . S
H1319 C1345 0.950 . S
H1320 C1346 0.950 . S
H1321 C1348 1.005 . S
H1322 C1351 0.950 . S
H1323 C1352 0.950 . S
H1324 C1354 0.950 . S
H1325 C1355 0.950 . S
C1326 H1308 0.951 . S
C1326 C1327 1.366 . S
C1326 C1328 1.388 . S
C1327 C1326 1.366 . S
C1327 C1331 1.385 . S
C1328 H1309 0.951 . S
C1328 C1326 1.388 . S
C1328 C1329 1.366 . S
C1329 C1328 1.366 . S
C1329 C1330 1.414 . S
C1329 C1332 1.499 . S
C1330 H1310 0.950 . S
C1330 C1329 1.414 . S
C1330 C1331 1.374 . S
C1331 H1311 0.950 . S
C1331 C1327 1.385 . S
C1331 C1330 1.374 . S
C1332 C1329 1.499 . S
C1332 C1333 1.373 . S
C1332 C1334 1.363 1_556 S
C1333 H1312 0.950 . S
C1333 C1332 1.373 . S
C1333 C1349 1.377 . S
C1334 C1332 1.363 1_554 S
C1334 C1335 1.552 . S
C1334 C1348 1.376 . S
C1335 C1334 1.552 . S
C1335 C1336 1.397 . S
C1335 C1340 1.363 . S
C1336 H1313 0.950 . S
C1336 C1335 1.397 . S
C1336 C1337 1.334 . S
C1337 H1314 0.950 . S
C1337 C1336 1.334 . S
C1337 C1338 1.287 . S
C1338 C1337 1.287 . S
C1338 C1339 1.524 . S
C1338 H1357 0.913 . S
C1339 H1315 0.950 . S
C1339 C1338 1.524 . S
C1339 C1340 1.415 . S
C1340 H1316 0.950 . S
C1340 C1335 1.363 . S
C1340 C1339 1.415 . S
C1341 H1317 0.951 . S
C1341 C1342 1.366 . S
C1341 C1343 1.388 . S
C1342 C1341 1.366 . S
C1342 C1346 1.385 . S
C1343 H1318 0.951 . S
C1343 C1341 1.388 . S
C1343 C1344 1.366 . S
C1344 C1343 1.366 . S
C1344 C1345 1.414 . S
C1344 C1347 1.499 . S
C1345 H1319 0.950 . S
C1345 C1344 1.414 . S
C1345 C1346 1.374 . S
C1346 H1320 0.950 . S
C1346 C1342 1.385 . S
C1346 C1345 1.374 . S
C1347 C1344 1.499 . S
C1347 C1348 1.325 1_556 S
C1347 C1349 1.389 . S
C1348 H1321 1.005 . S
C1348 C1334 1.376 . S
C1348 C1347 1.325 1_554 S
C1349 C1333 1.377 . S
C1349 C1347 1.389 . S
C1349 C1350 1.524 . S
C1350 C1349 1.524 . S
C1350 C1351 1.397 . S
C1350 C1355 1.363 . S
C1351 H1322 0.950 . S
C1351 C1350 1.397 . S
C1351 C1352 1.334 . S
C1352 H1323 0.950 . S
C1352 C1351 1.334 . S
C1352 C1353 1.287 . S
C1353 C1352 1.287 . S
C1353 C1354 1.524 . S
C1353 H1356 0.999 . S
C1354 H1324 0.950 . S
C1354 C1353 1.524 . S
C1354 C1355 1.415 . S
C1355 H1325 0.950 . S
C1355 C1350 1.363 . S
C1355 C1354 1.415 . S
H1356 C1353 0.999 . S
H1357 C1338 0.913 . S
H1358 C1376 0.951 . S
H1359 C1378 0.951 . S
H1360 C1380 0.950 . S
H1361 C1381 0.950 . S
H1362 C1383 0.950 . S
H1363 C1386 0.950 . S
H1364 C1387 0.950 . S
H1365 C1389 0.950 . S
H1366 C1390 0.950 . S
H1367 C1391 0.951 . S
H1368 C1393 0.951 . S
H1369 C1395 0.950 . S
H1370 C1396 0.950 . S
H1371 C1398 0.950 . S
H1372 C1401 0.950 . S
H1373 C1402 0.950 . S
H1374 C1404 0.950 . S
H1375 C1405 0.950 . S
C1376 H1358 0.951 . S
C1376 C1377 1.366 . S
C1376 C1378 1.388 . S
C1377 C1376 1.366 . S
C1377 C1381 1.385 . S
C1378 H1359 0.951 . S
C1378 C1376 1.388 . S
C1378 C1379 1.366 . S
C1379 C1378 1.366 . S
C1379 C1380 1.414 . S
C1379 C1382 1.499 . S
C1380 H1360 0.950 . S
C1380 C1379 1.414 . S
C1380 C1381 1.374 . S
C1381 H1361 0.950 . S
C1381 C1377 1.385 . S
C1381 C1380 1.374 . S
C1382 C1379 1.499 . S
C1382 C1383 1.373 . S
C1382 C1384 1.389 . S
C1383 H1362 0.950 . S
C1383 C1382 1.373 . S
C1383 C1399 1.377 . S
C1384 C1382 1.389 . S
C1384 C1385 1.524 . S
C1384 C1398 1.377 . S
C1385 C1384 1.524 . S
C1385 C1386 1.397 . S
C1385 C1390 1.363 . S
C1386 H1363 0.950 . S
C1386 C1385 1.397 . S
C1386 C1387 1.334 . S
C1387 H1364 0.950 . S
C1387 C1386 1.334 . S
C1387 C1388 1.287 . S
C1388 C1387 1.287 . S
C1388 C1389 1.524 . S
C1388 H1407 0.913 . S
C1389 H1365 0.950 . S
C1389 C1388 1.524 . S
C1389 C1390 1.415 . S
C1390 H1366 0.950 . S
C1390 C1385 1.363 . S
C1390 C1389 1.415 . S
C1391 H1367 0.951 . S
C1391 C1392 1.366 . S
C1391 C1393 1.388 . S
C1392 C1391 1.366 . S
C1392 C1396 1.385 . S
C1393 H1368 0.951 . S
C1393 C1391 1.388 . S
C1393 C1394 1.366 . S
C1394 C1393 1.366 . S
C1394 C1395 1.414 . S
C1394 C1397 1.499 . S
C1395 H1369 0.950 . S
C1395 C1394 1.414 . S
C1395 C1396 1.374 . S
C1396 H1370 0.950 . S
C1396 C1392 1.385 . S
C1396 C1395 1.374 . S
C1397 C1394 1.499 . S
C1397 C1398 1.373 . S
C1397 C1399 1.389 . S
C1398 H1371 0.950 . S
C1398 C1384 1.377 . S
C1398 C1397 1.373 . S
C1399 C1383 1.377 . S
C1399 C1397 1.389 . S
C1399 C1400 1.524 . S
C1400 C1399 1.524 . S
C1400 C1401 1.397 . S
C1400 C1405 1.363 . S
C1401 H1372 0.950 . S
C1401 C1400 1.397 . S
C1401 C1402 1.334 . S
C1402 H1373 0.950 . S
C1402 C1401 1.334 . S
C1402 C1403 1.287 . S
C1403 C1402 1.287 . S
C1403 C1404 1.524 . S
C1403 H1406 0.999 . S
C1404 H1374 0.950 . S
C1404 C1403 1.524 . S
C1404 C1405 1.415 . S
C1405 H1375 0.950 . S
C1405 C1400 1.363 . S
C1405 C1404 1.415 . S
H1406 C1403 0.999 . S
H1407 C1388 0.913 . S
H1408 C1426 0.951 . S
H1409 C1428 0.951 . S
H1410 C1430 0.950 . S
H1411 C1431 0.950 . S
H1412 C1433 0.950 . S
H1413 C1436 0.950 . S
H1414 C1437 0.950 . S
H1415 C1439 0.950 . S
H1416 C1440 0.950 . S
H1417 C1441 0.951 . S
H1418 C1443 0.951 . S
H1419 C1445 0.950 . S
H1420 C1446 0.950 . S
H1421 C1448 0.950 . S
H1422 C1451 0.950 . S
H1423 C1452 0.950 . S
H1424 C1454 0.950 . S
H1425 C1455 0.950 . S
C1426 H1408 0.951 . S
C1426 C1427 1.366 . S
C1426 C1428 1.388 . S
C1427 C1426 1.366 . S
C1427 C1431 1.385 . S
C1428 H1409 0.951 . S
C1428 C1426 1.388 . S
C1428 C1429 1.366 . S
C1429 C1428 1.366 . S
C1429 C1430 1.414 . S
C1429 C1432 1.499 . S
C1430 H1410 0.950 . S
C1430 C1429 1.414 . S
C1430 C1431 1.374 . S
C1431 H1411 0.950 . S
C1431 C1427 1.385 . S
C1431 C1430 1.374 . S
C1432 C1429 1.499 . S
C1432 C1433 1.373 . S
C1432 C1434 1.389 . S
C1433 H1412 0.950 . S
C1433 C1432 1.373 . S
C1433 C1449 1.377 . S
C1434 C1432 1.389 . S
C1434 C1435 1.524 . S
C1434 C1448 1.377 . S
C1435 C1434 1.524 . S
C1435 C1436 1.397 . S
C1435 C1440 1.363 . S
C1436 H1413 0.950 . S
C1436 C1435 1.397 . S
C1436 C1437 1.334 . S
C1437 H1414 0.950 . S
C1437 C1436 1.334 . S
C1437 C1438 1.287 . S
C1438 C1437 1.287 . S
C1438 C1439 1.524 . S
C1438 H1457 0.913 . S
C1439 H1415 0.950 . S
C1439 C1438 1.524 . S
C1439 C1440 1.415 . S
C1440 H1416 0.950 . S
C1440 C1435 1.363 . S
C1440 C1439 1.415 . S
C1441 H1417 0.951 . S
C1441 C1442 1.366 . S
C1441 C1443 1.388 . S
C1442 C1441 1.366 . S
C1442 C1446 1.385 . S
C1443 H1418 0.951 . S
C1443 C1441 1.388 . S
C1443 C1444 1.366 . S
C1444 C1443 1.366 . S
C1444 C1445 1.414 . S
C1444 C1447 1.499 . S
C1445 H1419 0.950 . S
C1445 C1444 1.414 . S
C1445 C1446 1.374 . S
C1446 H1420 0.950 . S
C1446 C1442 1.385 . S
C1446 C1445 1.374 . S
C1447 C1444 1.499 . S
C1447 C1448 1.373 . S
C1447 C1449 1.389 . S
C1448 H1421 0.950 . S
C1448 C1434 1.377 . S
C1448 C1447 1.373 . S
C1449 C1433 1.377 . S
C1449 C1447 1.389 . S
C1449 C1450 1.524 . S
C1450 C1449 1.524 . S
C1450 C1451 1.397 . S
C1450 C1455 1.363 . S
C1451 H1422 0.950 . S
C1451 C1450 1.397 . S
C1451 C1452 1.334 . S
C1452 H1423 0.950 . S
C1452 C1451 1.334 . S
C1452 C1453 1.287 . S
C1453 C1452 1.287 . S
C1453 C1454 1.524 . S
C1453 H1456 0.999 . S
C1454 H1424 0.950 . S
C1454 C1453 1.524 . S
C1454 C1455 1.415 . S
C1455 H1425 0.950 . S
C1455 C1450 1.363 . S
C1455 C1454 1.415 . S
H1456 C1453 0.999 . S
H1457 C1438 0.913 . S
H1458 C1476 0.951 . S
H1459 C1478 0.951 . S
H1460 C1480 0.950 . S
H1461 C1481 0.950 . S
H1462 C1483 0.950 . S
H1463 C1486 0.950 . S
H1464 C1487 0.950 . S
H1465 C1489 0.950 . S
H1466 C1490 0.950 . S
H1467 C1491 0.951 . S
H1468 C1493 0.951 . S
H1469 C1495 0.950 . S
H1470 C1496 0.950 . S
H1471 C1498 0.950 . S
H1472 C1501 0.950 . S
H1473 C1502 0.950 . S
H1474 C1504 0.950 . S
H1475 C1505 0.950 . S
C1476 H1458 0.951 . S
C1476 C1477 1.366 . S
C1476 C1478 1.388 . S
C1477 C1476 1.366 . S
C1477 C1481 1.385 . S
C1478 H1459 0.951 . S
C1478 C1476 1.388 . S
C1478 C1479 1.366 . S
C1479 C1478 1.366 . S
C1479 C1480 1.414 . S
C1479 C1482 1.499 . S
C1480 H1460 0.950 . S
C1480 C1479 1.414 . S
C1480 C1481 1.374 . S
C1481 H1461 0.950 . S
C1481 C1477 1.385 . S
C1481 C1480 1.374 . S
C1482 C1479 1.499 . S
C1482 C1483 1.373 . S
C1482 C1484 1.389 . S
C1483 H1462 0.950 . S
C1483 C1482 1.373 . S
C1483 C1499 1.377 . S
C1484 C1482 1.389 . S
C1484 C1485 1.524 . S
C1484 C1498 1.377 . S
C1485 C1484 1.524 . S
C1485 C1486 1.397 . S
C1485 C1490 1.363 . S
C1486 H1463 0.950 . S
C1486 C1485 1.397 . S
C1486 C1487 1.334 . S
C1487 H1464 0.950 . S
C1487 C1486 1.334 . S
C1487 C1488 1.287 . S
C1488 C1487 1.287 . S
C1488 C1489 1.524 . S
C1488 H1507 0.913 . S
C1489 H1465 0.950 . S
C1489 C1488 1.524 . S
C1489 C1490 1.415 . S
C1490 H1466 0.950 . S
C1490 C1485 1.363 . S
C1490 C1489 1.415 . S
C1491 H1467 0.951 . S
C1491 C1492 1.366 . S
C1491 C1493 1.388 . S
C1492 C1491 1.366 . S
C1492 C1496 1.385 . S
C1493 H1468 0.951 . S
C1493 C1491 1.388 . S
C1493 C1494 1.366 . S
C1494 C1493 1.366 . S
C1494 C1495 1.414 . S
C1494 C1497 1.499 . S
C1495 H1469 0.950 . S
C1495 C1494 1.414 . S
C1495 C1496 1.374 . S
C1496 H1470 0.950 . S
C1496 C1492 1.385 . S
C1496 C1495 1.374 . S
C1497 C1494 1.499 . S
C1497 C1498 1.373 . S
C1497 C1499 1.389 . S
C1498 H1471 0.950 . S
C1498 C1484 1.377 . S
C1498 C1497 1.373 . S
C1499 C1483 1.377 . S
C1499 C1497 1.389 . S
C1499 C1500 1.524 . S
C1500 C1499 1.524 . S
C1500 C1501 1.397 . S
C1500 C1505 1.363 . S
C1501 H1472 0.950 . S
C1501 C1500 1.397 . S
C1501 C1502 1.334 . S
C1502 H1473 0.950 . S
C1502 C1501 1.334 . S
C1502 C1503 1.287 . S
C1503 C1502 1.287 . S
C1503 C1504 1.524 . S
C1503 H1506 0.999 . S
C1504 H1474 0.950 . S
C1504 C1503 1.524 . S
C1504 C1505 1.415 . S
C1505 H1475 0.950 . S
C1505 C1500 1.363 . S
C1505 C1504 1.415 . S
H1506 C1503 0.999 . S
H1507 C1488 0.913 . S
H1508 C1526 0.951 . S
H1509 C1528 0.951 . S
H1510 C1530 0.950 . S
H1511 C1531 0.950 . S
H1512 C1533 0.950 . S
H1513 C1536 0.950 . S
H1514 C1537 0.950 . S
H1515 C1539 0.950 . S
H1516 C1540 0.950 . S
H1517 C1541 0.951 . S
H1518 C1543 0.951 . S
H1519 C1545 0.950 . S
H1520 C1546 0.950 . S
H1521 C1548 0.950 . S
H1522 C1551 0.950 . S
H1523 C1552 0.950 . S
H1524 C1554 0.950 . S
H1525 C1555 0.950 . S
C1526 H1508 0.951 . S
C1526 C1527 1.366 . S
C1526 C1528 1.388 . S
C1527 C1526 1.366 . S
C1527 C1531 1.385 . S
C1528 H1509 0.951 . S
C1528 C1526 1.388 . S
C1528 C1529 1.366 . S
C1529 C1528 1.366 . S
C1529 C1530 1.414 . S
C1529 C1532 1.499 . S
C1530 H1510 0.950 . S
C1530 C1529 1.414 . S
C1530 C1531 1.374 . S
C1531 H1511 0.950 . S
C1531 C1527 1.385 . S
C1531 C1530 1.374 . S
C1532 C1529 1.499 . S
C1532 C1533 1.373 . S
C1532 C1534 1.389 . S
C1533 H1512 0.950 . S
C1533 C1532 1.373 . S
C1533 C1549 1.377 . S
C1534 C1532 1.389 . S
C1534 C1535 1.524 . S
C1534 C1548 1.377 . S
C1535 C1534 1.524 . S
C1535 C1536 1.397 . S
C1535 C1540 1.363 . S
C1536 H1513 0.950 . S
C1536 C1535 1.397 . S
C1536 C1537 1.334 . S
C1537 H1514 0.950 . S
C1537 C1536 1.334 . S
C1537 C1538 1.287 . S
C1538 C1537 1.287 . S
C1538 C1539 1.524 . S
C1538 H1557 0.913 . S
C1539 H1515 0.950 . S
C1539 C1538 1.524 . S
C1539 C1540 1.415 . S
C1540 H1516 0.950 . S
C1540 C1535 1.363 . S
C1540 C1539 1.415 . S
C1541 H1517 0.951 . S
C1541 C1542 1.366 . S
C1541 C1543 1.388 . S
C1542 C1541 1.366 . S
C1542 C1546 1.385 . S
C1543 H1518 0.951 . S
C1543 C1541 1.388 . S
C1543 C1544 1.366 . S
C1544 C1543 1.366 . S
C1544 C1545 1.414 . S
C1544 C1547 1.499 . S
C1545 H1519 0.950 . S
C1545 C1544 1.414 . S
C1545 C1546 1.374 . S
C1546 H1520 0.950 . S
C1546 C1542 1.385 . S
C1546 C1545 1.374 . S
C1547 C1544 1.499 . S
C1547 C1548 1.373 . S
C1547 C1549 1.389 . S
C1548 H1521 0.950 . S
C1548 C1534 1.377 . S
C1548 C1547 1.373 . S
C1549 C1533 1.377 . S
C1549 C1547 1.389 . S
C1549 C1550 1.524 . S
C1550 C1549 1.524 . S
C1550 C1551 1.397 . S
C1550 C1555 1.363 . S
C1551 H1522 0.950 . S
C1551 C1550 1.397 . S
C1551 C1552 1.334 . S
C1552 H1523 0.950 . S
C1552 C1551 1.334 . S
C1552 C1553 1.287 . S
C1553 C1552 1.287 . S
C1553 C1554 1.524 . S
C1553 H1556 0.999 . S
C1554 H1524 0.950 . S
C1554 C1553 1.524 . S
C1554 C1555 1.415 . S
C1555 H1525 0.950 . S
C1555 C1550 1.363 . S
C1555 C1554 1.415 . S
H1556 C1553 0.999 . S
H1557 C1538 0.913 . S
H1558 C1576 0.951 . S
H1559 C1578 0.951 . S
H1560 C1580 0.950 . S
H1561 C1581 0.950 . S
H1562 C1583 0.950 . S
H1563 C1586 0.950 . S
H1564 C1587 0.950 . S
H1565 C1589 0.950 . S
H1566 C1590 0.950 . S
H1567 C1591 0.951 . S
H1568 C1593 0.951 . S
H1569 C1595 0.950 . S
H1570 C1596 0.950 . S
H1571 C1598 0.950 . S
H1572 C1601 0.950 . S
H1573 C1602 0.950 . S
H1574 C1604 0.950 . S
H1575 C1605 0.950 . S
C1576 H1558 0.951 . S
C1576 C1577 1.366 . S
C1576 C1578 1.388 . S
C1577 C1576 1.366 . S
C1577 C1581 1.385 . S
C1578 H1559 0.951 . S
C1578 C1576 1.388 . S
C1578 C1579 1.366 . S
C1579 C1578 1.366 . S
C1579 C1580 1.414 . S
C1579 C1582 1.499 . S
C1580 H1560 0.950 . S
C1580 C1579 1.414 . S
C1580 C1581 1.374 . S
C1581 H1561 0.950 . S
C1581 C1577 1.385 . S
C1581 C1580 1.374 . S
C1582 C1579 1.499 . S
C1582 C1583 1.373 . S
C1582 C1584 1.389 . S
C1583 H1562 0.950 . S
C1583 C1582 1.373 . S
C1583 C1599 1.377 . S
C1584 C1582 1.389 . S
C1584 C1585 1.524 . S
C1584 C1598 1.377 . S
C1585 C1584 1.524 . S
C1585 C1586 1.397 . S
C1585 C1590 1.363 . S
C1586 H1563 0.950 . S
C1586 C1585 1.397 . S
C1586 C1587 1.334 . S
C1587 H1564 0.950 . S
C1587 C1586 1.334 . S
C1587 C1588 1.287 . S
C1588 C1587 1.287 . S
C1588 C1589 1.524 . S
C1588 H1607 0.913 . S
C1589 H1565 0.950 . S
C1589 C1588 1.524 . S
C1589 C1590 1.415 . S
C1590 H1566 0.950 . S
C1590 C1585 1.363 . S
C1590 C1589 1.415 . S
C1591 H1567 0.951 . S
C1591 C1592 1.366 . S
C1591 C1593 1.388 . S
C1592 C1591 1.366 . S
C1592 C1596 1.385 . S
C1593 H1568 0.951 . S
C1593 C1591 1.388 . S
C1593 C1594 1.366 . S
C1594 C1593 1.366 . S
C1594 C1595 1.414 . S
C1594 C1597 1.499 . S
C1595 H1569 0.950 . S
C1595 C1594 1.414 . S
C1595 C1596 1.374 . S
C1596 H1570 0.950 . S
C1596 C1592 1.385 . S
C1596 C1595 1.374 . S
C1597 C1594 1.499 . S
C1597 C1598 1.373 . S
C1597 C1599 1.389 . S
C1598 H1571 0.950 . S
C1598 C1584 1.377 . S
C1598 C1597 1.373 . S
C1599 C1583 1.377 . S
C1599 C1597 1.389 . S
C1599 C1600 1.524 . S
C1600 C1599 1.524 . S
C1600 C1601 1.397 . S
C1600 C1605 1.363 . S
C1601 H1572 0.950 . S
C1601 C1600 1.397 . S
C1601 C1602 1.334 . S
C1602 H1573 0.950 . S
C1602 C1601 1.334 . S
C1602 C1603 1.287 . S
C1603 C1602 1.287 . S
C1603 C1604 1.524 . S
C1603 H1606 0.999 . S
C1604 H1574 0.950 . S
C1604 C1603 1.524 . S
C1604 C1605 1.415 . S
C1605 H1575 0.950 . S
C1605 C1600 1.363 . S
C1605 C1604 1.415 . S
H1606 C1603 0.999 . S
H1607 C1588 0.913 . S
H1608 C1626 0.951 . S
H1609 C1628 0.951 . S
H1610 C1630 0.950 . S
H1611 C1631 0.950 . S
H1612 C1633 0.950 . S
H1613 C1636 0.950 . S
H1614 C1637 0.950 . S
H1615 C1639 0.950 . S
H1616 C1640 0.950 . S
H1617 C1641 0.951 . S
H1618 C1643 0.951 . S
H1619 C1645 0.950 . S
H1620 C1646 0.950 . S
H1621 C1648 0.950 . S
H1622 C1651 0.950 . S
H1623 C1652 0.950 . S
H1624 C1654 0.950 . S
H1625 C1655 0.950 . S
C1626 H1608 0.951 . S
C1626 C1627 1.366 . S
C1626 C1628 1.388 . S
C1627 C1626 1.366 . S
C1627 C1631 1.385 . S
C1628 H1609 0.951 . S
C1628 C1626 1.388 . S
C1628 C1629 1.366 . S
C1629 C1628 1.366 . S
C1629 C1630 1.414 . S
C1629 C1632 1.499 . S
C1630 H1610 0.950 . S
C1630 C1629 1.414 . S
C1630 C1631 1.374 . S
C1631 H1611 0.950 . S
C1631 C1627 1.385 . S
C1631 C1630 1.374 . S
C1632 C1629 1.499 . S
C1632 C1633 1.373 . S
C1632 C1634 1.389 . S
C1633 H1612 0.950 . S
C1633 C1632 1.373 . S
C1633 C1649 1.377 . S
C1634 C1632 1.389 . S
C1634 C1635 1.524 . S
C1634 C1648 1.377 . S
C1635 C1634 1.524 . S
C1635 C1636 1.397 . S
C1635 C1640 1.363 . S
C1636 H1613 0.950 . S
C1636 C1635 1.397 . S
C1636 C1637 1.334 . S
C1637 H1614 0.950 . S
C1637 C1636 1.334 . S
C1637 C1638 1.287 . S
C1638 C1637 1.287 . S
C1638 C1639 1.524 . S
C1638 H1657 0.913 . S
C1639 H1615 0.950 . S
C1639 C1638 1.524 . S
C1639 C1640 1.415 . S
C1640 H1616 0.950 . S
C1640 C1635 1.363 . S
C1640 C1639 1.415 . S
C1641 H1617 0.951 . S
C1641 C1642 1.366 . S
C1641 C1643 1.388 . S
C1642 C1641 1.366 . S
C1642 C1646 1.385 . S
C1643 H1618 0.951 . S
C1643 C1641 1.388 . S
C1643 C1644 1.366 . S
C1644 C1643 1.366 . S
C1644 C1645 1.414 . S
C1644 C1647 1.499 . S
C1645 H1619 0.950 . S
C1645 C1644 1.414 . S
C1645 C1646 1.374 . S
C1646 H1620 0.950 . S
C1646 C1642 1.385 . S
C1646 C1645 1.374 . S
C1647 C1644 1.499 . S
C1647 C1648 1.373 . S
C1647 C1649 1.389 . S
C1648 H1621 0.950 . S
C1648 C1634 1.377 . S
C1648 C1647 1.373 . S
C1649 C1633 1.377 . S
C1649 C1647 1.389 . S
C1649 C1650 1.524 . S
C1650 C1649 1.524 . S
C1650 C1651 1.397 . S
C1650 C1655 1.363 . S
C1651 H1622 0.950 . S
C1651 C1650 1.397 . S
C1651 C1652 1.334 . S
C1652 H1623 0.950 . S
C1652 C1651 1.334 . S
C1652 C1653 1.287 . S
C1653 C1652 1.287 . S
C1653 C1654 1.524 . S
C1653 H1656 0.999 . S
C1654 H1624 0.950 . S
C1654 C1653 1.524 . S
C1654 C1655 1.415 . S
C1655 H1625 0.950 . S
C1655 C1650 1.363 . S
C1655 C1654 1.415 . S
H1656 C1653 0.999 . S
H1657 C1638 0.913 . S
H1658 C1676 0.951 . S
H1659 C1678 0.951 . S
H1660 C1680 0.950 . S
H1661 C1681 0.950 . S
H1662 C1683 0.950 . S
H1663 C1686 0.950 . S
H1664 C1687 0.950 . S
H1665 C1689 0.950 . S
H1666 C1690 0.950 . S
H1667 C1691 0.951 . S
H1668 C1693 0.951 . S
H1669 C1695 0.950 . S
H1670 C1696 0.950 . S
H1671 C1698 0.950 . S
H1672 C1701 0.950 . S
H1673 C1702 0.950 . S
H1674 C1704 0.950 . S
H1675 C1705 0.950 . S
C1676 H1658 0.951 . S
C1676 C1677 1.366 . S
C1676 C1678 1.388 . S
C1677 C1676 1.366 . S
C1677 C1681 1.385 . S
C1678 H1659 0.951 . S
C1678 C1676 1.388 . S
C1678 C1679 1.366 . S
C1679 C1678 1.366 . S
C1679 C1680 1.414 . S
C1679 C1682 1.499 . S
C1680 H1660 0.950 . S
C1680 C1679 1.414 . S
C1680 C1681 1.374 . S
C1681 H1661 0.950 . S
C1681 C1677 1.385 . S
C1681 C1680 1.374 . S
C1682 C1679 1.499 . S
C1682 C1683 1.373 . S
C1682 C1684 1.389 . S
C1683 H1662 0.950 . S
C1683 C1682 1.373 . S
C1683 C1699 1.377 . S
C1684 C1682 1.389 . S
C1684 C1685 1.524 . S
C1684 C1698 1.377 . S
C1685 C1684 1.524 . S
C1685 C1686 1.397 . S
C1685 C1690 1.363 . S
C1686 H1663 0.950 . S
C1686 C1685 1.397 . S
C1686 C1687 1.334 . S
C1687 H1664 0.950 . S
C1687 C1686 1.334 . S
C1687 C1688 1.287 . S
C1688 C1687 1.287 . S
C1688 C1689 1.524 . S
C1688 H1707 0.913 . S
C1689 H1665 0.950 . S
C1689 C1688 1.524 . S
C1689 C1690 1.415 . S
C1690 H1666 0.950 . S
C1690 C1685 1.363 . S
C1690 C1689 1.415 . S
C1691 H1667 0.951 . S
C1691 C1692 1.366 . S
C1691 C1693 1.388 . S
C1692 C1691 1.366 . S
C1692 C1696 1.385 . S
C1693 H1668 0.951 . S
C1693 C1691 1.388 . S
C1693 C1694 1.366 . S
C1694 C1693 1.366 . S
C1694 C1695 1.414 . S
C1694 C1697 1.499 . S
C1695 H1669 0.950 . S
C1695 C1694 1.414 . S
C1695 C1696 1.374 . S
C1696 H1670 0.950 . S
C1696 C1692 1.385 . S
C1696 C1695 1.374 . S
C1697 C1694 1.499 . S
C1697 C1698 1.373 . S
C1697 C1699 1.389 . S
C1698 H1671 0.950 . S
C1698 C1684 1.377 . S
C1698 C1697 1.373 . S
C1699 C1683 1.377 . S
C1699 C1697 1.389 . S
C1699 C1700 1.524 . S
C1700 C1699 1.524 . S
C1700 C1701 1.397 . S
C1700 C1705 1.363 . S
C1701 H1672 0.950 . S
C1701 C1700 1.397 . S
C1701 C1702 1.334 . S
C1702 H1673 0.950 . S
C1702 C1701 1.334 . S
C1702 C1703 1.287 . S
C1703 C1702 1.287 . S
C1703 C1704 1.524 . S
C1703 H1706 0.999 . S
C1704 H1674 0.950 . S
C1704 C1703 1.524 . S
C1704 C1705 1.415 . S
C1705 H1675 0.950 . S
C1705 C1700 1.363 . S
C1705 C1704 1.415 . S
H1706 C1703 0.999 . S
H1707 C1688 0.913 . S
H1708 C1726 0.951 . S
H1709 C1728 0.951 . S
H1710 C1730 0.950 . S
H1711 C1731 0.950 . S
H1712 C1733 0.950 . S
H1713 C1736 0.950 . S
H1714 C1737 0.950 . S
H1715 C1739 0.950 . S
H1716 C1740 0.950 . S
H1717 C1741 0.951 . S
H1718 C1743 0.951 . S
H1719 C1745 0.950 . S
H1720 C1746 0.950 . S
H1721 C1748 0.950 . S
H1722 C1751 0.950 . S
H1723 C1752 0.950 . S
H1724 C1754 0.950 . S
H1725 C1755 0.950 . S
C1726 H1708 0.951 . S
C1726 C1727 1.366 . S
C1726 C1728 1.388 . S
C1727 C1726 1.366 . S
C1727 C1731 1.385 . S
C1728 H1709 0.951 . S
C1728 C1726 1.388 . S
C1728 C1729 1.366 . S
C1729 C1728 1.366 . S
C1729 C1730 1.414 . S
C1729 C1732 1.499 . S
C1730 H1710 0.950 . S
C1730 C1729 1.414 . S
C1730 C1731 1.374 . S
C1731 H1711 0.950 . S
C1731 C1727 1.385 . S
C1731 C1730 1.374 . S
C1732 C1729 1.499 . S
C1732 C1733 1.373 . S
C1732 C1734 1.389 . S
C1733 H1712 0.950 . S
C1733 C1732 1.373 . S
C1733 C1749 1.377 . S
C1734 C1732 1.389 . S
C1734 C1735 1.524 . S
C1734 C1748 1.377 . S
C1735 C1734 1.524 . S
C1735 C1736 1.397 . S
C1735 C1740 1.363 . S
C1736 H1713 0.950 . S
C1736 C1735 1.397 . S
C1736 C1737 1.334 . S
C1737 H1714 0.950 . S
C1737 C1736 1.334 . S
C1737 C1738 1.287 . S
C1738 C1737 1.287 . S
C1738 C1739 1.524 . S
C1738 H1757 0.913 . S
C1739 H1715 0.950 . S
C1739 C1738 1.524 . S
C1739 C1740 1.415 . S
C1740 H1716 0.950 . S
C1740 C1735 1.363 . S
C1740 C1739 1.415 . S
C1741 H1717 0.951 . S
C1741 C1742 1.366 . S
C1741 C1743 1.388 . S
C1742 C1741 1.366 . S
C1742 C1746 1.385 . S
C1743 H1718 0.951 . S
C1743 C1741 1.388 . S
C1743 C1744 1.366 . S
C1744 C1743 1.366 . S
C1744 C1745 1.414 . S
C1744 C1747 1.499 . S
C1745 H1719 0.950 . S
C1745 C1744 1.414 . S
C1745 C1746 1.374 . S
C1746 H1720 0.950 . S
C1746 C1742 1.385 . S
C1746 C1745 1.374 . S
C1747 C1744 1.499 . S
C1747 C1748 1.373 . S
C1747 C1749 1.389 . S
C1748 H1721 0.950 . S
C1748 C1734 1.377 . S
C1748 C1747 1.373 . S
C1749 C1733 1.377 . S
C1749 C1747 1.389 . S
C1749 C1750 1.524 . S
C1750 C1749 1.524 . S
C1750 C1751 1.397 . S
C1750 C1755 1.363 . S
C1751 H1722 0.950 . S
C1751 C1750 1.397 . S
C1751 C1752 1.334 . S
C1752 H1723 0.950 . S
C1752 C1751 1.334 . S
C1752 C1753 1.287 . S
C1753 C1752 1.287 . S
C1753 C1754 1.524 . S
C1753 H1756 0.999 . S
C1754 H1724 0.950 . S
C1754 C1753 1.524 . S
C1754 C1755 1.415 . S
C1755 H1725 0.950 . S
C1755 C1750 1.363 . S
C1755 C1754 1.415 . S
H1756 C1753 0.999 . S
H1757 C1738 0.913 . S
H1758 C1776 0.951 . S
H1759 C1778 0.951 . S
H1760 C1780 0.950 . S
H1761 C1781 0.950 . S
H1762 C1783 0.950 . S
H1763 C1786 0.950 . S
H1764 C1787 0.950 . S
H1765 C1789 0.950 . S
H1766 C1790 0.950 . S
H1767 C1791 0.951 . S
H1768 C1793 0.951 . S
H1769 C1795 0.950 . S
H1770 C1796 0.950 . S
H1771 C1798 0.950 . S
H1772 C1801 0.950 . S
H1773 C1802 0.950 . S
H1774 C1804 0.950 . S
H1775 C1805 0.950 . S
C1776 H1758 0.951 . S
C1776 C1777 1.366 . S
C1776 C1778 1.388 . S
C1777 C1776 1.366 . S
C1777 C1781 1.385 . S
C1778 H1759 0.951 . S
C1778 C1776 1.388 . S
C1778 C1779 1.366 . S
C1779 C1778 1.366 . S
C1779 C1780 1.414 . S
C1779 C1782 1.499 . S
C1780 H1760 0.950 . S
C1780 C1779 1.414 . S
C1780 C1781 1.374 . S
C1781 H1761 0.950 . S
C1781 C1777 1.385 . S
C1781 C1780 1.374 . S
C1782 C1779 1.499 . S
C1782 C1783 1.373 . S
C1782 C1784 1.389 . S
C1783 H1762 0.950 . S
C1783 C1782 1.373 . S
C1783 C1799 1.377 . S
C1784 C1782 1.389 . S
C1784 C1785 1.524 . S
C1784 C1798 1.377 . S
C1785 C1784 1.524 . S
C1785 C1786 1.397 . S
C1785 C1790 1.363 . S
C1786 H1763 0.950 . S
C1786 C1785 1.397 . S
C1786 C1787 1.334 . S
C1787 H1764 0.950 . S
C1787 C1786 1.334 . S
C1787 C1788 1.287 . S
C1788 C1787 1.287 . S
C1788 C1789 1.524 . S
C1788 H1807 0.913 . S
C1789 H1765 0.950 . S
C1789 C1788 1.524 . S
C1789 C1790 1.415 . S
C1790 H1766 0.950 . S
C1790 C1785 1.363 . S
C1790 C1789 1.415 . S
C1791 H1767 0.951 . S
C1791 C1792 1.366 . S
C1791 C1793 1.388 . S
C1792 C1791 1.366 . S
C1792 C1796 1.385 . S
C1793 H1768 0.951 . S
C1793 C1791 1.388 . S
C1793 C1794 1.366 . S
C1794 C1793 1.366 . S
C1794 C1795 1.414 . S
C1794 C1797 1.499 . S
C1795 H1769 0.950 . S
C1795 C1794 1.414 . S
C1795 C1796 1.374 . S
C1796 H1770 0.950 . S
C1796 C1792 1.385 . S
C1796 C1795 1.374 . S
C1797 C1794 1.499 . S
C1797 C1798 1.373 . S
C1797 C1799 1.389 . S
C1798 H1771 0.950 . S
C1798 C1784 1.377 . S
C1798 C1797 1.373 . S
C1799 C1783 1.377 . S
C1799 C1797 1.389 . S
C1799 C1800 1.524 . S
C1800 C1799 1.524 . S
C1800 C1801 1.397 . S
C1800 C1805 1.363 . S
C1801 H1772 0.950 . S
C1801 C1800 1.397 . S
C1801 C1802 1.334 . S
C1802 H1773 0.950 . S
C1802 C1801 1.334 . S
C1802 C1803 1.287 . S
C1803 C1802 1.287 . S
C1803 C1804 1.524 . S
C1803 H1806 0.999 . S
C1804 H1774 0.950 . S
C1804 C1803 1.524 . S
C1804 C1805 1.415 . S
C1805 H1775 0.950 . S
C1805 C1800 1.363 . S
C1805 C1804 1.415 . S
H1806 C1803 0.999 . S
H1807 C1788 0.913 . S
H1808 C1826 0.951 . S
H1809 C1828 0.951 . S
H1810 C1830 0.950 . S
H1811 C1831 0.950 . S
H1812 C1833 0.950 . S
H1813 C1836 0.950 . S
H1814 C1837 0.950 . S
H1815 C1839 0.950 . S
H1816 C1840 0.950 . S
H1817 C1841 0.951 . S
H1818 C1843 0.951 . S
H1819 C1845 0.950 . S
H1820 C1846 0.950 . S
H1821 C1848 0.950 . S
H1822 C1851 0.950 . S
H1823 C1852 0.950 . S
H1824 C1854 0.950 . S
H1825 C1855 0.950 . S
C1826 H1808 0.951 . S
C1826 C1827 1.366 . S
C1826 C1828 1.388 . S
C1827 C1826 1.366 . S
C1827 C1831 1.385 . S
C1828 H1809 0.951 . S
C1828 C1826 1.388 . S
C1828 C1829 1.366 . S
C1829 C1828 1.366 . S
C1829 C1830 1.414 . S
C1829 C1832 1.499 . S
C1830 H1810 0.950 . S
C1830 C1829 1.414 . S
C1830 C1831 1.374 . S
C1831 H1811 0.950 . S
C1831 C1827 1.385 . S
C1831 C1830 1.374 . S
C1832 C1829 1.499 . S
C1832 C1833 1.373 . S
C1832 C1834 1.389 . S
C1833 H1812 0.950 . S
C1833 C1832 1.373 . S
C1833 C1849 1.377 . S
C1834 C1832 1.389 . S
C1834 C1835 1.524 . S
C1834 C1848 1.377 . S
C1835 C1834 1.524 . S
C1835 C1836 1.397 . S
C1835 C1840 1.363 . S
C1836 H1813 0.950 . S
C1836 C1835 1.397 . S
C1836 C1837 1.334 . S
C1837 H1814 0.950 . S
C1837 C1836 1.334 . S
C1837 C1838 1.287 . S
C1838 C1837 1.287 . S
C1838 C1839 1.524 . S
C1838 H1857 0.913 . S
C1839 H1815 0.950 . S
C1839 C1838 1.524 . S
C1839 C1840 1.415 . S
C1840 H1816 0.950 . S
C1840 C1835 1.363 . S
C1840 C1839 1.415 . S
C1841 H1817 0.951 . S
C1841 C1842 1.366 . S
C1841 C1843 1.388 . S
C1842 C1841 1.366 . S
C1842 C1846 1.385 . S
C1843 H1818 0.951 . S
C1843 C1841 1.388 . S
C1843 C1844 1.366 . S
C1844 C1843 1.366 . S
C1844 C1845 1.414 . S
C1844 C1847 1.499 . S
C1845 H1819 0.950 . S
C1845 C1844 1.414 . S
C1845 C1846 1.374 . S
C1846 H1820 0.950 . S
C1846 C1842 1.385 . S
C1846 C1845 1.374 . S
C1847 C1844 1.499 . S
C1847 C1848 1.373 . S
C1847 C1849 1.389 . S
C1848 H1821 0.950 . S
C1848 C1834 1.377 . S
C1848 C1847 1.373 . S
C1849 C1833 1.377 . S
C1849 C1847 1.389 . S
C1849 C1850 1.524 . S
C1850 C1849 1.524 . S
C1850 C1851 1.397 . S
C1850 C1855 1.363 . S
C1851 H1822 0.950 . S
C1851 C1850 1.397 . S
C1851 C1852 1.334 . S
C1852 H1823 0.950 . S
C1852 C1851 1.334 . S
C1852 C1853 1.287 . S
C1853 C1852 1.287 . S
C1853 C1854 1.524 . S
C1853 H1856 0.999 . S
C1854 H1824 0.950 . S
C1854 C1853 1.524 . S
C1854 C1855 1.415 . S
C1855 H1825 0.950 . S
C1855 C1850 1.363 . S
C1855 C1854 1.415 . S
H1856 C1853 0.999 . S
H1857 C1838 0.913 . S
H1858 C1876 0.951 . S
H1859 C1878 0.951 . S
H1860 C1880 0.950 . S
H1861 C1881 0.950 . S
H1862 C1883 0.950 . S
H1863 C1886 0.950 . S
H1864 C1887 0.950 . S
H1865 C1889 0.950 . S
H1866 C1890 0.950 . S
H1867 C1891 0.951 . S
H1868 C1893 0.951 . S
H1869 C1895 0.950 . S
H1870 C1896 0.950 . S
H1871 C1898 0.950 . S
H1872 C1901 0.950 . S
H1873 C1902 0.950 . S
H1874 C1904 0.950 . S
H1875 C1905 0.950 . S
C1876 H1858 0.951 . S
C1876 C1877 1.366 . S
C1876 C1878 1.388 . S
C1877 C1876 1.366 . S
C1877 C1881 1.385 . S
C1878 H1859 0.951 . S
C1878 C1876 1.388 . S
C1878 C1879 1.366 . S
C1879 C1878 1.366 . S
C1879 C1880 1.414 . S
C1879 C1882 1.499 . S
C1880 H1860 0.950 . S
C1880 C1879 1.414 . S
C1880 C1881 1.374 . S
C1881 H1861 0.950 . S
C1881 C1877 1.385 . S
C1881 C1880 1.374 . S
C1882 C1879 1.499 . S
C1882 C1883 1.373 . S
C1882 C1884 1.389 . S
C1883 H1862 0.950 . S
C1883 C1882 1.373 . S
C1883 C1899 1.377 . S
C1884 C1882 1.389 . S
C1884 C1885 1.524 . S
C1884 C1898 1.377 . S
C1885 C1884 1.524 . S
C1885 C1886 1.397 . S
C1885 C1890 1.363 . S
C1886 H1863 0.950 . S
C1886 C1885 1.397 . S
C1886 C1887 1.334 . S
C1887 H1864 0.950 . S
C1887 C1886 1.334 . S
C1887 C1888 1.287 . S
C1888 C1887 1.287 . S
C1888 C1889 1.524 . S
C1888 H1907 0.913 . S
C1889 H1865 0.950 . S
C1889 C1888 1.524 . S
C1889 C1890 1.415 . S
C1890 H1866 0.950 . S
C1890 C1885 1.363 . S
C1890 C1889 1.415 . S
C1891 H1867 0.951 . S
C1891 C1892 1.366 . S
C1891 C1893 1.388 . S
C1892 C1891 1.366 . S
C1892 C1896 1.385 . S
C1893 H1868 0.951 . S
C1893 C1891 1.388 . S
C1893 C1894 1.366 . S
C1894 C1893 1.366 . S
C1894 C1895 1.414 . S
C1894 C1897 1.499 . S
C1895 H1869 0.950 . S
C1895 C1894 1.414 . S
C1895 C1896 1.374 . S
C1896 H1870 0.950 . S
C1896 C1892 1.385 . S
C1896 C1895 1.374 . S
C1897 C1894 1.499 . S
C1897 C1898 1.373 . S
C1897 C1899 1.389 . S
C1898 H1871 0.950 . S
C1898 C1884 1.377 . S
C1898 C1897 1.373 . S
C1899 C1883 1.377 . S
C1899 C1897 1.389 . S
C1899 C1900 1.524 . S
C1900 C1899 1.524 . S
C1900 C1901 1.397 . S
C1900 C1905 1.363 . S
C1901 H1872 0.950 . S
C1901 C1900 1.397 . S
C1901 C1902 1.334 . S
C1902 H1873 0.950 . S
C1902 C1901 1.334 . S
C1902 C1903 1.287 . S
C1903 C1902 1.287 . S
C1903 C1904 1.524 . S
C1903 H1906 0.999 . S
C1904 H1874 0.950 . S
C1904 C1903 1.524 . S
C1904 C1905 1.415 . S
C1905 H1875 0.950 . S
C1905 C1900 1.363 . S
C1905 C1904 1.415 . S
H1906 C1903 0.999 . S
H1907 C1888 0.913 . S
H1908 C1926 0.951 . S
H1909 C1928 0.951 . S
H1910 C1930 0.950 . S
H1911 C1931 0.950 . S
H1912 C1933 0.950 . S
H1913 C1936 0.950 . S
H1914 C1937 0.950 . S
H1915 C1939 0.950 . S
H1916 C1940 0.950 . S
H1917 C1941 0.951 . S
H1918 C1943 0.951 . S
H1919 C1945 0.950 . S
H1920 C1946 0.950 . S
H1921 C1948 0.950 . S
H1922 C1951 0.950 . S
H1923 C1952 0.950 . S
H1924 C1954 0.950 . S
H1925 C1955 0.950 . S
C1926 H1908 0.951 . S
C1926 C1927 1.366 . S
C1926 C1928 1.388 . S
C1927 C1926 1.366 . S
C1927 C1931 1.385 . S
C1928 H1909 0.951 . S
C1928 C1926 1.388 . S
C1928 C1929 1.366 . S
C1929 C1928 1.366 . S
C1929 C1930 1.414 . S
C1929 C1932 1.499 . S
C1930 H1910 0.950 . S
C1930 C1929 1.414 . S
C1930 C1931 1.374 . S
C1931 H1911 0.950 . S
C1931 C1927 1.385 . S
C1931 C1930 1.374 . S
C1932 C1929 1.499 . S
C1932 C1933 1.373 . S
C1932 C1934 1.389 . S
C1933 H1912 0.950 . S
C1933 C1932 1.373 . S
C1933 C1949 1.377 . S
C1934 C1932 1.389 . S
C1934 C1935 1.524 . S
C1934 C1948 1.377 . S
C1935 C1934 1.524 . S
C1935 C1936 1.397 . S
C1935 C1940 1.363 . S
C1936 H1913 0.950 . S
C1936 C1935 1.397 . S
C1936 C1937 1.334 . S
C1937 H1914 0.950 . S
C1937 C1936 1.334 . S
C1937 C1938 1.287 . S
C1938 C1937 1.287 . S
C1938 C1939 1.524 . S
C1938 H1957 0.913 . S
C1939 H1915 0.950 . S
C1939 C1938 1.524 . S
C1939 C1940 1.415 . S
C1940 H1916 0.950 . S
C1940 C1935 1.363 . S
C1940 C1939 1.415 . S
C1941 H1917 0.951 . S
C1941 C1942 1.366 . S
C1941 C1943 1.388 . S
C1942 C1941 1.366 . S
C1942 C1946 1.385 . S
C1943 H1918 0.951 . S
C1943 C1941 1.388 . S
C1943 C1944 1.366 . S
C1944 C1943 1.366 . S
C1944 C1945 1.414 . S
C1944 C1947 1.499 . S
C1945 H1919 0.950 . S
C1945 C1944 1.414 . S
C1945 C1946 1.374 . S
C1946 H1920 0.950 . S
C1946 C1942 1.385 . S
C1946 C1945 1.374 . S
C1947 C1944 1.499 . S
C1947 C1948 1.373 . S
C1947 C1949 1.389 . S
C1948 H1921 0.950 . S
C1948 C1934 1.377 . S
C1948 C1947 1.373 . S
C1949 C1933 1.377 . S
C1949 C1947 1.389 . S
C1949 C1950 1.524 . S
C1950 C1949 1.524 . S
C1950 C1951 1.397 . S
C1950 C1955 1.363 . S
C1951 H1922 0.950 . S
C1951 C1950 1.397 . S
C1951 C1952 1.334 . S
C1952 H1923 0.950 . S
C1952 C1951 1.334 . S
C1952 C1953 1.287 . S
C1953 C1952 1.287 . S
C1953 C1954 1.524 . S
C1953 H1956 0.999 . S
C1954 H1924 0.950 . S
C1954 C1953 1.524 . S
C1954 C1955 1.415 . S
C1955 H1925 0.950 . S
C1955 C1950 1.363 . S
C1955 C1954 1.415 . S
H1956 C1953 0.999 . S
H1957 C1938 0.913 . S
H1958 C1976 0.951 . S
H1959 C1978 0.951 . S
H1960 C1980 0.950 . S
H1961 C1981 0.950 . S
H1962 C1983 0.950 . S
H1963 C1986 0.950 . S
H1964 C1987 0.950 . S
H1965 C1989 0.950 . S
H1966 C1990 0.950 . S
H1967 C1991 0.951 . S
H1968 C1993 0.951 . S
H1969 C1995 0.950 . S
H1970 C1996 0.950 . S
H1971 C1998 0.950 . S
H1972 C2001 0.950 . S
H1973 C2002 0.950 . S
H1974 C2004 0.950 . S
H1975 C2005 0.950 . S
C1976 H1958 0.951 . S
C1976 C1977 1.366 . S
C1976 C1978 1.388 . S
C1977 C1976 1.366 . S
C1977 C1981 1.385 . S
C1978 H1959 0.951 . S
C1978 C1976 1.388 . S
C1978 C1979 1.366 . S
C1979 C1978 1.366 . S
C1979 C1980 1.414 . S
C1979 C1982 1.499 . S
C1980 H1960 0.950 . S
C1980 C1979 1.414 . S
C1980 C1981 1.374 . S
C1981 H1961 0.950 . S
C1981 C1977 1.385 . S
C1981 C1980 1.374 . S
C1982 C1979 1.499 . S
C1982 C1983 1.373 . S
C1982 C1984 1.389 . S
C1983 H1962 0.950 . S
C1983 C1982 1.373 . S
C1983 C1999 1.377 . S
C1984 C1982 1.389 . S
C1984 C1985 1.524 . S
C1984 C1998 1.377 . S
C1985 C1984 1.524 . S
C1985 C1986 1.397 . S
C1985 C1990 1.363 . S
C1986 H1963 0.950 . S
C1986 C1985 1.397 . S
C1986 C1987 1.334 . S
C1987 H1964 0.950 . S
C1987 C1986 1.334 . S
C1987 C1988 1.287 . S
C1988 C1987 1.287 . S
C1988 C1989 1.524 . S
C1988 H2007 0.913 . S
C1989 H1965 0.950 . S
C1989 C1988 1.524 . S
C1989 C1990 1.415 . S
C1990 H1966 0.950 . S
C1990 C1985 1.363 . S
C1990 C1989 1.415 . S
C1991 H1967 0.951 . S
C1991 C1992 1.366 . S
C1991 C1993 1.388 . S
C1992 C1991 1.366 . S
C1992 C1996 1.385 . S
C1993 H1968 0.951 . S
C1993 C1991 1.388 . S
C1993 C1994 1.366 . S
C1994 C1993 1.366 . S
C1994 C1995 1.414 . S
C1994 C1997 1.499 . S
C1995 H1969 0.950 . S
C1995 C1994 1.414 . S
C1995 C1996 1.374 . S
C1996 H1970 0.950 . S
C1996 C1992 1.385 . S
C1996 C1995 1.374 . S
C1997 C1994 1.499 . S
C1997 C1998 1.373 . S
C1997 C1999 1.389 . S
C1998 H1971 0.950 . S
C1998 C1984 1.377 . S
C1998 C1997 1.373 . S
C1999 C1983 1.377 . S
C1999 C1997 1.389 . S
C1999 C2000 1.524 . S
C2000 C1999 1.524 . S
C2000 C2001 1.397 . S
C2000 C2005 1.363 . S
C2001 H1972 0.950 . S
C2001 C2000 1.397 . S
C2001 C2002 1.334 . S
C2002 H1973 0.950 . S
C2002 C2001 1.334 . S
C2002 C2003 1.287 . S
C2003 C2002 1.287 . S
C2003 C2004 1.524 . S
C2003 H2006 0.999 . S
C2004 H1974 0.950 . S
C2004 C2003 1.524 . S
C2004 C2005 1.415 . S
C2005 H1975 0.950 . S
C2005 C2000 1.363 . S
C2005 C2004 1.415 . S
H2006 C2003 0.999 . S
H2007 C1988 0.913 . S
H2008 C2026 0.951 . S
H2009 C2028 0.951 . S
H2010 C2030 0.950 . S
H2011 C2031 0.950 . S
H2012 C2033 0.950 . S
H2013 C2036 0.950 . S
H2014 C2037 0.950 . S
H2015 C2039 0.950 . S
H2016 C2040 0.950 . S
H2017 C2041 0.951 . S
H2018 C2043 0.951 . S
H2019 C2045 0.950 . S
H2020 C2046 0.950 . S
H2021 C2048 0.950 . S
H2022 C2051 0.950 . S
H2023 C2052 0.950 . S
H2024 C2054 0.950 . S
H2025 C2055 0.950 . S
C2026 H2008 0.951 . S
C2026 C2027 1.366 . S
C2026 C2028 1.388 . S
C2027 C2026 1.366 . S
C2027 C2031 1.385 . S
C2028 H2009 0.951 . S
C2028 C2026 1.388 . S
C2028 C2029 1.366 . S
C2029 C2028 1.366 . S
C2029 C2030 1.414 . S
C2029 C2032 1.499 . S
C2030 H2010 0.950 . S
C2030 C2029 1.414 . S
C2030 C2031 1.374 . S
C2031 H2011 0.950 . S
C2031 C2027 1.385 . S
C2031 C2030 1.374 . S
C2032 C2029 1.499 . S
C2032 C2033 1.373 . S
C2032 C2034 1.389 . S
C2033 H2012 0.950 . S
C2033 C2032 1.373 . S
C2033 C2049 1.377 . S
C2034 C2032 1.389 . S
C2034 C2035 1.524 . S
C2034 C2048 1.377 . S
C2035 C2034 1.524 . S
C2035 C2036 1.397 . S
C2035 C2040 1.363 . S
C2036 H2013 0.950 . S
C2036 C2035 1.397 . S
C2036 C2037 1.334 . S
C2037 H2014 0.950 . S
C2037 C2036 1.334 . S
C2037 C2038 1.287 . S
C2038 C2037 1.287 . S
C2038 C2039 1.524 . S
C2038 H2057 0.913 . S
C2039 H2015 0.950 . S
C2039 C2038 1.524 . S
C2039 C2040 1.415 . S
C2040 H2016 0.950 . S
C2040 C2035 1.363 . S
C2040 C2039 1.415 . S
C2041 H2017 0.951 . S
C2041 C2042 1.366 . S
C2041 C2043 1.388 . S
C2042 C2041 1.366 . S
C2042 C2046 1.385 . S
C2043 H2018 0.951 . S
C2043 C2041 1.388 . S
C2043 C2044 1.366 . S
C2044 C2043 1.366 . S
C2044 C2045 1.414 . S
C2044 C2047 1.499 . S
C2045 H2019 0.950 . S
C2045 C2044 1.414 . S
C2045 C2046 1.374 . S
C2046 H2020 0.950 . S
C2046 C2042 1.385 . S
C2046 C2045 1.374 . S
C2047 C2044 1.499 . S
C2047 C2048 1.373 . S
C2047 C2049 1.389 . S
C2048 H2021 0.950 . S
C2048 C2034 1.377 . S
C2048 C2047 1.373 . S
C2049 C2033 1.377 . S
C2049 C2047 1.389 . S
C2049 C2050 1.524 . S
C2050 C2049 1.524 . S
C2050 C2051 1.397 . S
C2050 C2055 1.363 . S
C2051 H2022 0.950 . S
C2051 C2050 1.397 . S
C2051 C2052 1.334 . S
C2052 H2023 0.950 . S
C2052 C2051 1.334 . S
C2052 C2053 1.287 . S
C2053 C2052 1.287 . S
C2053 C2054 1.524 . S
C2053 H2056 0.999 . S
C2054 H2024 0.950 . S
C2054 C2053 1.524 . S
C2054 C2055 1.415 . S
C2055 H2025 0.950 . S
C2055 C2050 1.363 . S
C2055 C2054 1.415 . S
H2056 C2053 0.999 . S
H2057 C2038 0.913 . S
H2058 C2076 0.951 . S
H2059 C2078 0.951 . S
H2060 C2080 0.950 . S
H2061 C2081 0.950 . S
H2062 C2083 0.950 . S
H2063 C2086 0.950 . S
H2064 C2087 0.950 . S
H2065 C2089 0.950 . S
H2066 C2090 0.950 . S
H2067 C2091 0.951 . S
H2068 C2093 0.951 . S
H2069 C2095 0.950 . S
H2070 C2096 0.950 . S
H2071 C2098 0.950 . S
H2072 C2101 0.950 . S
H2073 C2102 0.950 . S
H2074 C2104 0.950 . S
H2075 C2105 0.950 . S
C2076 H2058 0.951 . S
C2076 C2077 1.366 . S
C2076 C2078 1.388 . S
C2077 C2076 1.366 . S
C2077 C2081 1.385 . S
C2078 H2059 0.951 . S
C2078 C2076 1.388 . S
C2078 C2079 1.366 . S
C2079 C2078 1.366 . S
C2079 C2080 1.414 . S
C2079 C2082 1.499 . S
C2080 H2060 0.950 . S
C2080 C2079 1.414 . S
C2080 C2081 1.374 . S
C2081 H2061 0.950 . S
C2081 C2077 1.385 . S
C2081 C2080 1.374 . S
C2082 C2079 1.499 . S
C2082 C2083 1.373 . S
C2082 C2084 1.389 . S
C2083 H2062 0.950 . S
C2083 C2082 1.373 . S
C2083 C2099 1.377 . S
C2084 C2082 1.389 . S
C2084 C2085 1.524 . S
C2084 C2098 1.377 . S
C2085 C2084 1.524 . S
C2085 C2086 1.397 . S
C2085 C2090 1.363 . S
C2086 H2063 0.950 . S
C2086 C2085 1.397 . S
C2086 C2087 1.334 . S
C2087 H2064 0.950 . S
C2087 C2086 1.334 . S
C2087 C2088 1.287 . S
C2088 C2087 1.287 . S
C2088 C2089 1.524 . S
C2088 H2107 0.913 . S
C2089 H2065 0.950 . S
C2089 C2088 1.524 . S
C2089 C2090 1.415 . S
C2090 H2066 0.950 . S
C2090 C2085 1.363 . S
C2090 C2089 1.415 . S
C2091 H2067 0.951 . S
C2091 C2092 1.366 . S
C2091 C2093 1.388 . S
C2092 C2091 1.366 . S
C2092 C2096 1.385 . S
C2093 H2068 0.951 . S
C2093 C2091 1.388 . S
C2093 C2094 1.366 . S
C2094 C2093 1.366 . S
C2094 C2095 1.414 . S
C2094 C2097 1.499 . S
C2095 H2069 0.950 . S
C2095 C2094 1.414 . S
C2095 C2096 1.374 . S
C2096 H2070 0.950 . S
C2096 C2092 1.385 . S
C2096 C2095 1.374 . S
C2097 C2094 1.499 . S
C2097 C2098 1.373 . S
C2097 C2099 1.389 . S
C2098 H2071 0.950 . S
C2098 C2084 1.377 . S
C2098 C2097 1.373 . S
C2099 C2083 1.377 . S
C2099 C2097 1.389 . S
C2099 C2100 1.524 . S
C2100 C2099 1.524 . S
C2100 C2101 1.397 . S
C2100 C2105 1.363 . S
C2101 H2072 0.950 . S
C2101 C2100 1.397 . S
C2101 C2102 1.334 . S
C2102 H2073 0.950 . S
C2102 C2101 1.334 . S
C2102 C2103 1.287 . S
C2103 C2102 1.287 . S
C2103 C2104 1.524 . S
C2103 H2106 0.999 . S
C2104 H2074 0.950 . S
C2104 C2103 1.524 . S
C2104 C2105 1.415 . S
C2105 H2075 0.950 . S
C2105 C2100 1.363 . S
C2105 C2104 1.415 . S
H2106 C2103 0.999 . S
H2107 C2088 0.913 . S
H2108 C2126 0.951 . S
H2109 C2128 0.951 . S
H2110 C2130 0.950 . S
H2111 C2131 0.950 . S
H2112 C2133 0.950 . S
H2113 C2136 0.950 . S
H2114 C2137 0.950 . S
H2115 C2139 0.950 . S
H2116 C2140 0.950 . S
H2117 C2141 0.951 . S
H2118 C2143 0.951 . S
H2119 C2145 0.950 . S
H2120 C2146 0.950 . S
H2121 C2148 0.950 . S
H2122 C2151 0.950 . S
H2123 C2152 0.950 . S
H2124 C2154 0.950 . S
H2125 C2155 0.950 . S
C2126 H2108 0.951 . S
C2126 C2127 1.366 . S
C2126 C2128 1.388 . S
C2127 C2126 1.366 . S
C2127 C2131 1.385 . S
C2128 H2109 0.951 . S
C2128 C2126 1.388 . S
C2128 C2129 1.366 . S
C2129 C2128 1.366 . S
C2129 C2130 1.414 . S
C2129 C2132 1.499 . S
C2130 H2110 0.950 . S
C2130 C2129 1.414 . S
C2130 C2131 1.374 . S
C2131 H2111 0.950 . S
C2131 C2127 1.385 . S
C2131 C2130 1.374 . S
C2132 C2129 1.499 . S
C2132 C2133 1.373 . S
C2132 C2134 1.389 . S
C2133 H2112 0.950 . S
C2133 C2132 1.373 . S
C2133 C2149 1.377 . S
C2134 C2132 1.389 . S
C2134 C2135 1.524 . S
C2134 C2148 1.377 . S
C2135 C2134 1.524 . S
C2135 C2136 1.397 . S
C2135 C2140 1.363 . S
C2136 H2113 0.950 . S
C2136 C2135 1.397 . S
C2136 C2137 1.334 . S
C2137 H2114 0.950 . S
C2137 C2136 1.334 . S
C2137 C2138 1.287 . S
C2138 C2137 1.287 . S
C2138 C2139 1.524 . S
C2138 H2157 0.913 . S
C2139 H2115 0.950 . S
C2139 C2138 1.524 . S
C2139 C2140 1.415 . S
C2140 H2116 0.950 . S
C2140 C2135 1.363 . S
C2140 C2139 1.415 . S
C2141 H2117 0.951 . S
C2141 C2142 1.366 . S
C2141 C2143 1.388 . S
C2142 C2141 1.366 . S
C2142 C2146 1.385 . S
C2143 H2118 0.951 . S
C2143 C2141 1.388 . S
C2143 C2144 1.366 . S
C2144 C2143 1.366 . S
C2144 C2145 1.414 . S
C2144 C2147 1.499 . S
C2145 H2119 0.950 . S
C2145 C2144 1.414 . S
C2145 C2146 1.374 . S
C2146 H2120 0.950 . S
C2146 C2142 1.385 . S
C2146 C2145 1.374 . S
C2147 C2144 1.499 . S
C2147 C2148 1.373 . S
C2147 C2149 1.389 . S
C2148 H2121 0.950 . S
C2148 C2134 1.377 . S
C2148 C2147 1.373 . S
C2149 C2133 1.377 . S
C2149 C2147 1.389 . S
C2149 C2150 1.524 . S
C2150 C2149 1.524 . S
C2150 C2151 1.397 . S
C2150 C2155 1.363 . S
C2151 H2122 0.950 . S
C2151 C2150 1.397 . S
C2151 C2152 1.334 . S
C2152 H2123 0.950 . S
C2152 C2151 1.334 . S
C2152 C2153 1.287 . S
C2153 C2152 1.287 . S
C2153 C2154 1.524 . S
C2153 H2156 0.999 . S
C2154 H2124 0.950 . S
C2154 C2153 1.524 . S
C2154 C2155 1.415 . S
C2155 H2125 0.950 . S
C2155 C2150 1.363 . S
C2155 C2154 1.415 . S
H2156 C2153 0.999 . S
H2157 C2138 0.913 . S
H2158 C2176 0.951 . S
H2159 C2178 0.951 . S
H2160 C2180 0.950 . S
H2161 C2181 0.950 . S
H2162 C2183 0.950 . S
H2163 C2186 0.950 . S
H2164 C2187 0.950 . S
H2165 C2189 0.950 . S
H2166 C2190 0.950 . S
H2167 C2191 0.951 . S
H2168 C2193 0.951 . S
H2169 C2195 0.950 . S
H2170 C2196 0.950 . S
H2171 C2198 0.950 . S
H2172 C2201 0.950 . S
H2173 C2202 0.950 . S
H2174 C2204 0.950 . S
H2175 C2205 0.950 . S
C2176 H2158 0.951 . S
C2176 C2177 1.366 . S
C2176 C2178 1.388 . S
C2177 C2176 1.366 . S
C2177 C2181 1.385 . S
C2178 H2159 0.951 . S
C2178 C2176 1.388 . S
C2178 C2179 1.366 . S
C2179 C2178 1.366 . S
C2179 C2180 1.414 . S
C2179 C2182 1.499 . S
C2180 H2160 0.950 . S
C2180 C2179 1.414 . S
C2180 C2181 1.374 . S
C2181 H2161 0.950 . S
C2181 C2177 1.385 . S
C2181 C2180 1.374 . S
C2182 C2179 1.499 . S
C2182 C2183 1.373 . S
C2182 C2184 1.389 . S
C2183 H2162 0.950 . S
C2183 C2182 1.373 . S
C2183 C2199 1.377 . S
C2184 C2182 1.389 . S
C2184 C2185 1.524 . S
C2184 C2198 1.377 . S
C2185 C2184 1.524 . S
C2185 C2186 1.397 . S
C2185 C2190 1.363 . S
C2186 H2163 0.950 . S
C2186 C2185 1.397 . S
C2186 C2187 1.334 . S
C2187 H2164 0.950 . S
C2187 C2186 1.334 . S
C2187 C2188 1.287 . S
C2188 C2187 1.287 . S
C2188 C2189 1.524 . S
C2188 H2207 0.913 . S
C2189 H2165 0.950 . S
C2189 C2188 1.524 . S
C2189 C2190 1.415 . S
C2190 H2166 0.950 . S
C2190 C2185 1.363 . S
C2190 C2189 1.415 . S
C2191 H2167 0.951 . S
C2191 C2192 1.366 . S
C2191 C2193 1.388 . S
C2192 C2191 1.366 . S
C2192 C2196 1.385 . S
C2193 H2168 0.951 . S
C2193 C2191 1.388 . S
C2193 C2194 1.366 . S
C2194 C2193 1.366 . S
C2194 C2195 1.414 . S
C2194 C2197 1.499 . S
C2195 H2169 0.950 . S
C2195 C2194 1.414 . S
C2195 C2196 1.374 . S
C2196 H2170 0.950 . S
C2196 C2192 1.385 . S
C2196 C2195 1.374 . S
C2197 C2194 1.499 . S
C2197 C2198 1.373 . S
C2197 C2199 1.389 . S
C2198 H2171 0.950 . S
C2198 C2184 1.377 . S
C2198 C2197 1.373 . S
C2199 C2183 1.377 . S
C2199 C2197 1.389 . S
C2199 C2200 1.524 . S
C2200 C2199 1.524 . S
C2200 C2201 1.397 . S
C2200 C2205 1.363 . S
C2201 H2172 0.950 . S
C2201 C2200 1.397 . S
C2201 C2202 1.334 . S
C2202 H2173 0.950 . S
C2202 C2201 1.334 . S
C2202 C2203 1.287 . S
C2203 C2202 1.287 . S
C2203 C2204 1.524 . S
C2203 H2206 0.999 . S
C2204 H2174 0.950 . S
C2204 C2203 1.524 . S
C2204 C2205 1.415 . S
C2205 H2175 0.950 . S
C2205 C2200 1.363 . S
C2205 C2204 1.415 . S
H2206 C2203 0.999 . S
H2207 C2188 0.913 . S
C642 C521 1.362 . S
C627 C35 1.232 . S
C692 C535 1.355 . S
C677 C115 1.244 . S
C742 C543 1.394 . S
C727 C177 1.278 . S
C777 C221 1.235 . S
C792 C501 1.359 . S
C827 C283 1.205 . S
C842 C507 1.331 . S
C877 C363 1.237 . S
C892 C515 1.355 . S
C942 C529 1.466 . S
C927 C407 1.328 . S
C992 C549 1.400 . S
C977 C469 1.272 . S
C1027 C159 1.212 . S
C1042 C577 1.336 . S
C1092 C591 1.437 . S
C1077 C239 1.315 . S
C1127 C53 1.243 . S
C1142 C599 1.362 . S
C1192 C563 1.289 . S
C1177 C97 1.172 . S
C1227 C425 1.270 . S
C1242 C557 1.391 . S
C1277 C487 1.273 . S
C1292 C571 1.389 . S
C1342 C585 1.391 . S
C1327 C301 1.275 . S
C1377 C345 1.288 . S
C1392 C605 1.423 . S
C1442 C524 1.852 . S
C1427 C29 1.869 . S
C1492 C547 1.878 . S
C1477 C109 1.836 . S
C1527 C171 1.834 . S
C1542 C505 1.879 . S
C1577 C215 1.886 . S
C1592 C510 1.866 . S
C1627 C277 1.863 . S
C1642 C538 1.843 . S
C1692 C496 1.849 . S
C1677 C357 1.837 . S
C1742 C519 1.880 . S
C1727 C401 1.869 . S
C1792 C533 1.891 . S
C1777 C463 1.879 . S
C1842 C580 1.846 . S
C1827 C153 1.866 . S
C1892 C603 1.875 . S
C1877 C233 1.839 . S
C1927 C47 1.820 . S
C1942 C552 1.831 . S
C1992 C566 1.828 . S
C1977 C91 1.847 . S
C2042 C594 1.878 . S
C2027 C419 1.866 . S
C2077 C481 1.851 . S
C2092 C561 1.898 . S
C2142 C575 1.887 . S
C2127 C295 1.843 . S
C2192 C589 1.894 . S
C2177 C339 1.881 . S
