# Generated by pormake.
# Topology ctn, (3,4)-cn, num edge types: 1
# Building blocks:
#     Node 0, Type 0, BuildingBlock: CUQRIR_clean_linker_1, # of connection points: 3
#     Node 1, Type 0, BuildingBlock: CUQRIR_clean_linker_1, # of connection points: 3
#     Node 2, Type 0, BuildingBlock: CUQRIR_clean_linker_1, # of connection points: 3
#     Node 3, Type 0, BuildingBlock: CUQRIR_clean_linker_1, # of connection points: 3
#     Node 4, Type 0, BuildingBlock: CUQRIR_clean_linker_1, # of connection points: 3
#     Node 5, Type 0, BuildingBlock: CUQRIR_clean_linker_1, # of connection points: 3
#     Node 6, Type 0, BuildingBlock: CUQRIR_clean_linker_1, # of connection points: 3
#     Node 7, Type 0, BuildingBlock: CUQRIR_clean_linker_1, # of connection points: 3
#     Node 8, Type 0, BuildingBlock: CUQRIR_clean_linker_1, # of connection points: 3
#     Node 9, Type 0, BuildingBlock: CUQRIR_clean_linker_1, # of connection points: 3
#     Node 10, Type 0, BuildingBlock: CUQRIR_clean_linker_1, # of connection points: 3
#     Node 11, Type 0, BuildingBlock: CUQRIR_clean_linker_1, # of connection points: 3
#     Node 12, Type 0, BuildingBlock: CUQRIR_clean_linker_1, # of connection points: 3
#     Node 13, Type 0, BuildingBlock: CUQRIR_clean_linker_1, # of connection points: 3
#     Node 14, Type 0, BuildingBlock: CUQRIR_clean_linker_1, # of connection points: 3
#     Node 15, Type 0, BuildingBlock: CUQRIR_clean_linker_1, # of connection points: 3
#     Node 16, Type 1, BuildingBlock: KUFVIS_clean_sbu_0, # of connection points: 4
#     Node 17, Type 1, BuildingBlock: KUFVIS_clean_sbu_0, # of connection points: 4
#     Node 18, Type 1, BuildingBlock: KUFVIS_clean_sbu_0, # of connection points: 4
#     Node 19, Type 1, BuildingBlock: KUFVIS_clean_sbu_0, # of connection points: 4
#     Node 20, Type 1, BuildingBlock: KUFVIS_clean_sbu_0, # of connection points: 4
#     Node 21, Type 1, BuildingBlock: KUFVIS_clean_sbu_0, # of connection points: 4
#     Node 22, Type 1, BuildingBlock: KUFVIS_clean_sbu_0, # of connection points: 4
#     Node 23, Type 1, BuildingBlock: KUFVIS_clean_sbu_0, # of connection points: 4
#     Node 24, Type 1, BuildingBlock: KUFVIS_clean_sbu_0, # of connection points: 4
#     Node 25, Type 1, BuildingBlock: KUFVIS_clean_sbu_0, # of connection points: 4
#     Node 26, Type 1, BuildingBlock: KUFVIS_clean_sbu_0, # of connection points: 4
#     Node 27, Type 1, BuildingBlock: KUFVIS_clean_sbu_0, # of connection points: 4
#     Edge 28, Type (0, 1), BuildingBlock: OJICUG_clean_linker_0, # of connection points: 2
#     Edge 29, Type (0, 1), BuildingBlock: OJICUG_clean_linker_0, # of connection points: 2
#     Edge 30, Type (0, 1), BuildingBlock: OJICUG_clean_linker_0, # of connection points: 2
#     Edge 31, Type (0, 1), BuildingBlock: OJICUG_clean_linker_0, # of connection points: 2
#     Edge 32, Type (0, 1), BuildingBlock: OJICUG_clean_linker_0, # of connection points: 2
#     Edge 33, Type (0, 1), BuildingBlock: OJICUG_clean_linker_0, # of connection points: 2
#     Edge 34, Type (0, 1), BuildingBlock: OJICUG_clean_linker_0, # of connection points: 2
#     Edge 35, Type (0, 1), BuildingBlock: OJICUG_clean_linker_0, # of connection points: 2
#     Edge 36, Type (0, 1), BuildingBlock: OJICUG_clean_linker_0, # of connection points: 2
#     Edge 37, Type (0, 1), BuildingBlock: OJICUG_clean_linker_0, # of connection points: 2
#     Edge 38, Type (0, 1), BuildingBlock: OJICUG_clean_linker_0, # of connection points: 2
#     Edge 39, Type (0, 1), BuildingBlock: OJICUG_clean_linker_0, # of connection points: 2
#     Edge 40, Type (0, 1), BuildingBlock: OJICUG_clean_linker_0, # of connection points: 2
#     Edge 41, Type (0, 1), BuildingBlock: OJICUG_clean_linker_0, # of connection points: 2
#     Edge 42, Type (0, 1), BuildingBlock: OJICUG_clean_linker_0, # of connection points: 2
#     Edge 43, Type (0, 1), BuildingBlock: OJICUG_clean_linker_0, # of connection points: 2
#     Edge 44, Type (0, 1), BuildingBlock: OJICUG_clean_linker_0, # of connection points: 2
#     Edge 45, Type (0, 1), BuildingBlock: OJICUG_clean_linker_0, # of connection points: 2
#     Edge 46, Type (0, 1), BuildingBlock: OJICUG_clean_linker_0, # of connection points: 2
#     Edge 47, Type (0, 1), BuildingBlock: OJICUG_clean_linker_0, # of connection points: 2
#     Edge 48, Type (0, 1), BuildingBlock: OJICUG_clean_linker_0, # of connection points: 2
#     Edge 49, Type (0, 1), BuildingBlock: OJICUG_clean_linker_0, # of connection points: 2
#     Edge 50, Type (0, 1), BuildingBlock: OJICUG_clean_linker_0, # of connection points: 2
#     Edge 51, Type (0, 1), BuildingBlock: OJICUG_clean_linker_0, # of connection points: 2
#     Edge 52, Type (0, 1), BuildingBlock: OJICUG_clean_linker_0, # of connection points: 2
#     Edge 53, Type (0, 1), BuildingBlock: OJICUG_clean_linker_0, # of connection points: 2
#     Edge 54, Type (0, 1), BuildingBlock: OJICUG_clean_linker_0, # of connection points: 2
#     Edge 55, Type (0, 1), BuildingBlock: OJICUG_clean_linker_0, # of connection points: 2
#     Edge 56, Type (0, 1), BuildingBlock: OJICUG_clean_linker_0, # of connection points: 2
#     Edge 57, Type (0, 1), BuildingBlock: OJICUG_clean_linker_0, # of connection points: 2
#     Edge 58, Type (0, 1), BuildingBlock: OJICUG_clean_linker_0, # of connection points: 2
#     Edge 59, Type (0, 1), BuildingBlock: OJICUG_clean_linker_0, # of connection points: 2
#     Edge 60, Type (0, 1), BuildingBlock: OJICUG_clean_linker_0, # of connection points: 2
#     Edge 61, Type (0, 1), BuildingBlock: OJICUG_clean_linker_0, # of connection points: 2
#     Edge 62, Type (0, 1), BuildingBlock: OJICUG_clean_linker_0, # of connection points: 2
#     Edge 63, Type (0, 1), BuildingBlock: OJICUG_clean_linker_0, # of connection points: 2
#     Edge 64, Type (0, 1), BuildingBlock: OJICUG_clean_linker_0, # of connection points: 2
#     Edge 65, Type (0, 1), BuildingBlock: OJICUG_clean_linker_0, # of connection points: 2
#     Edge 66, Type (0, 1), BuildingBlock: OJICUG_clean_linker_0, # of connection points: 2
#     Edge 67, Type (0, 1), BuildingBlock: OJICUG_clean_linker_0, # of connection points: 2
#     Edge 68, Type (0, 1), BuildingBlock: OJICUG_clean_linker_0, # of connection points: 2
#     Edge 69, Type (0, 1), BuildingBlock: OJICUG_clean_linker_0, # of connection points: 2
#     Edge 70, Type (0, 1), BuildingBlock: OJICUG_clean_linker_0, # of connection points: 2
#     Edge 71, Type (0, 1), BuildingBlock: OJICUG_clean_linker_0, # of connection points: 2
#     Edge 72, Type (0, 1), BuildingBlock: OJICUG_clean_linker_0, # of connection points: 2
#     Edge 73, Type (0, 1), BuildingBlock: OJICUG_clean_linker_0, # of connection points: 2
#     Edge 74, Type (0, 1), BuildingBlock: OJICUG_clean_linker_0, # of connection points: 2
#     Edge 75, Type (0, 1), BuildingBlock: OJICUG_clean_linker_0, # of connection points: 2
# Relax obj value: 0.097
# Max RMSD: 0.203
# Mean RMSD: 0.135
data_MOF--net-ctn--node1-KUFVIS_clean_sbu_0--node2-CUQRIR_clean_linker_1--edge1-OJICUG_clean_linker_0
_symmetry_space_group_name_H-M    P1
_symmetry_Int_Tables_number       1
_symmetry_cell_setting            triclinic
loop_
_symmetry_equiv_pos_as_xyz
'x, y, z'
_cell_length_a     35.559267
_cell_length_b     32.566223
_cell_length_c     33.798436
_cell_angle_alpha  97.443325
_cell_angle_beta   89.501906
_cell_angle_gamma 94.38806
loop_
_atom_site_label
_atom_site_type_symbol
_atom_site_fract_x
_atom_site_fract_y
_atom_site_fract_z
_atom_type_partial_charge
C0 C 0.06356 0.03051 0.10846 0.0
N1 N 0.07504 0.04534 0.07414 0.0
N2 N 0.02963 0.04383 0.12029 0.0
C3 C 0.08528 1.00215 0.13005 0.0
C4 C 0.0204 0.06693 0.09185 0.0
N5 N 0.04758 0.06755 0.06335 0.0
C6 C 0.98415 0.08803 0.09118 0.0
H7 H 0.09528 0.97661 0.10851 0.0
H8 H 0.06843 0.98873 0.15359 0.0
H9 H 0.11037 1.02003 0.14455 0.0
H10 H 0.96971 0.09078 0.12043 0.0
H11 H 0.96474 0.06961 0.06893 0.0
H12 H 0.98971 0.11948 0.08209 0.0
C13 C 0.32379 0.73223 0.20219 0.0
N14 N 0.33193 0.7138 0.2347 0.0
N15 N 0.34096 0.77095 0.20438 0.0
C16 C 0.29838 0.71315 0.16819 0.0
C17 C 0.36034 0.77562 0.23917 0.0
N18 N 0.35489 0.74097 0.25795 0.0
C19 C 0.3867 0.81301 0.25288 0.0
H20 H 0.31551 0.69531 0.14543 0.0
H21 H 0.28529 0.73726 0.1538 0.0
H22 H 0.27579 0.69163 0.17798 0.0
H23 H 0.3723 0.83393 0.27567 0.0
H24 H 0.39484 0.83055 0.22769 0.0
H25 H 0.41256 0.80365 0.26631 0.0
C26 C 0.99186 0.52932 0.10335 0.0
N27 N 1.01359 0.49704 0.10528 0.0
N28 N 0.96214 0.51812 0.07825 0.0
C29 C 0.99988 0.57207 0.12598 0.0
C30 C 0.96657 0.47764 0.06498 0.0
N31 N 0.99766 0.46465 0.08135 0.0
C32 C 0.94012 0.45051 0.03625 0.0
H33 H 0.9884 0.57231 0.15663 0.0
H34 H 0.98676 0.59593 0.11124 0.0
H35 H 0.03059 0.58062 0.1285 0.0
H36 H 0.94997 0.4529 1.00534 0.0
H37 H 0.91101 0.46053 0.03925 0.0
H38 H 0.93943 0.41745 0.04098 0.0
C39 C 0.65831 0.82551 0.21452 0.0
N40 N 0.69218 0.84016 0.2013 0.0
N41 N 0.64767 0.84939 0.24792 0.0
C42 C 0.63811 0.78473 0.19801 0.0
C43 C 0.67636 0.87909 0.25444 0.0
N44 N 0.7039 0.87324 0.2267 0.0
C45 C 0.67858 0.91183 0.29031 0.0
H46 H 0.63703 0.7818 0.16497 0.0
H47 H 0.60901 0.78167 0.20997 0.0
H48 H 0.65399 0.75905 0.20629 0.0
H49 H 0.68982 0.89866 0.31608 0.0
H50 H 0.65 0.92164 0.29841 0.0
H51 H 0.69728 0.93928 0.2845 0.0
C52 C 0.03024 1.00183 0.53029 0.0
N53 N 0.06333 0.99781 0.54903 0.0
N54 N 0.03609 1.01101 0.49281 0.0
C55 C 0.99184 0.98989 0.54613 0.0
C56 C 0.07395 1.01283 0.48904 0.0
N57 N 0.09091 1.00677 0.52353 0.0
C58 C 0.09399 1.01457 0.4498 0.0
H59 H 0.98348 0.95707 0.53438 0.0
H60 H 0.97064 1.00952 0.53592 0.0
H61 H 0.99206 0.99311 0.57923 0.0
H62 H 0.07484 0.02111 0.42608 0.0
H63 H 0.1056 0.98418 0.44031 0.0
H64 H 0.11786 0.03853 0.45287 0.0
C65 C 0.16599 0.7124 0.86409 0.0
N66 N 0.19861 0.70752 0.88319 0.0
N67 N 0.16664 0.69464 0.82565 0.0
C68 C 0.13393 0.7365 0.88202 0.0
C69 C 0.20051 0.67852 0.82171 0.0
N70 N 0.21998 0.68622 0.85647 0.0
C71 C 0.2144 0.6548 0.78396 0.0
H72 H 0.11692 0.71701 0.9012 0.0
H73 H 0.1151 0.74515 0.85904 0.0
H74 H 0.14437 0.76536 0.90075 0.0
H75 H 0.23587 0.67495 0.77006 0.0
H76 H 0.19105 0.64502 0.76242 0.0
H77 H 0.22807 0.62699 0.79074 0.0
C78 C 0.97441 0.55523 0.4608 0.0
N79 N 1.00177 0.58705 0.46546 0.0
N80 N 0.94182 0.56708 0.47792 0.0
C81 C 0.97812 0.51372 0.43626 0.0
C82 C 0.9498 0.6073 0.49267 0.0
N83 N 0.98639 0.61958 0.48575 0.0
C84 C 0.92161 0.63469 0.51384 0.0
H85 H 0.99151 0.5179 0.40713 0.0
H86 H 0.95031 0.49613 0.43066 0.0
H87 H 0.9963 0.49518 0.45238 0.0
H88 H 0.89479 0.61733 0.52014 0.0
H89 H 0.915 0.65842 0.49473 0.0
H90 H 0.93353 0.65101 0.54221 0.0
C91 C 0.81717 0.85731 0.89281 0.0
N92 N 0.84521 0.83181 0.88295 0.0
N93 N 0.8189 0.88907 0.87063 0.0
C94 C 0.78629 0.84959 0.92233 0.0
C95 C 0.84903 0.88213 0.84658 0.0
N96 N 0.86544 0.84747 0.85399 0.0
C97 C 0.85935 0.90612 0.81223 0.0
H98 H 0.76534 0.82521 0.90819 0.0
H99 H 0.77178 0.8782 0.93189 0.0
H100 H 0.79787 0.83831 0.94896 0.0
H101 H 0.88455 0.92763 0.82058 0.0
H102 H 0.83624 0.92466 0.80453 0.0
H103 H 0.86642 0.88476 0.78535 0.0
C104 C 0.31749 0.35742 0.39292 0.0
N105 N 0.34507 0.33147 0.38248 0.0
N106 N 0.31952 0.38952 0.37115 0.0
C107 C 0.28675 0.34987 0.42264 0.0
C108 C 0.3494 0.38235 0.3468 0.0
N109 N 0.36536 0.34724 0.35364 0.0
C110 C 0.35981 0.40659 0.31263 0.0
H111 H 0.26519 0.32628 0.40836 0.0
H112 H 0.27297 0.3788 0.43294 0.0
H113 H 0.29828 0.33767 0.4488 0.0
H114 H 0.38501 0.42804 0.32116 0.0
H115 H 0.33673 0.42522 0.30502 0.0
H116 H 0.3669 0.38541 0.28563 0.0
C117 C 0.4829 0.02357 0.6103 0.0
N118 N 0.50849 0.99455 0.60999 0.0
N119 N 0.46003 1.01596 0.57783 0.0
C120 C 0.47922 0.0584 0.64373 0.0
C121 C 0.47254 0.98086 0.55767 0.0
N122 N 0.50199 0.9678 0.57689 0.0
C123 C 0.45617 0.95923 0.51879 0.0
H124 H 0.48927 0.04972 0.6723 0.0
H125 H 0.4495 0.06639 0.64724 0.0
H126 H 0.49678 0.08626 0.63694 0.0
H127 H 0.47799 0.94368 0.50008 0.0
H128 H 0.44347 0.98143 0.50156 0.0
H129 H 0.43399 0.93511 0.52518 0.0
C130 C 0.15997 0.32315 0.71568 0.0
N131 N 0.19359 0.33846 0.70247 0.0
N132 N 0.14864 0.34724 0.74863 0.0
C133 C 0.14051 0.2819 0.69942 0.0
C134 C 0.17669 0.37773 0.75492 0.0
N135 N 0.20448 0.37222 0.72739 0.0
C136 C 0.17815 0.41091 0.79041 0.0
H137 H 0.141 0.27781 0.66632 0.0
H138 H 0.11089 0.27911 0.70998 0.0
H139 H 0.15588 0.25678 0.7096 0.0
H140 H 0.1893 0.39832 0.81656 0.0
H141 H 0.14935 0.42032 0.79799 0.0
H142 H 0.19657 0.43852 0.78447 0.0
C143 C 0.82411 0.23132 0.70158 0.0
N144 N 0.83207 0.21306 0.73426 0.0
N145 N 0.84119 0.2701 0.70375 0.0
C146 C 0.79925 0.21187 0.66724 0.0
C147 C 0.8604 0.27493 0.73867 0.0
N148 N 0.85491 0.24035 0.75753 0.0
C149 C 0.88663 0.31241 0.75242 0.0
H150 H 0.81677 0.19386 0.64499 0.0
H151 H 0.78642 0.23574 0.65228 0.0
H152 H 0.77648 0.19041 0.67677 0.0
H153 H 0.87211 0.33331 0.77512 0.0
H154 H 0.89482 0.32992 0.72723 0.0
H155 H 0.91248 0.30315 0.76597 0.0
C156 C 0.56413 0.53112 0.60831 0.0
N157 N 0.5759 0.54609 0.57414 0.0
N158 N 0.53015 0.54444 0.61993 0.0
C159 C 0.58564 0.50263 0.62997 0.0
C160 C 0.52117 0.56768 0.5915 0.0
N161 N 0.54856 0.5684 0.56323 0.0
C162 C 0.48495 0.5888 0.59057 0.0
H163 H 0.56857 0.48906 0.65328 0.0
H164 H 0.61061 0.52045 0.64479 0.0
H165 H 0.59581 0.47719 0.60843 0.0
H166 H 0.49067 0.62039 0.58187 0.0
H167 H 0.47014 0.59119 0.61961 0.0
H168 H 0.46582 0.57061 0.5679 0.0
C169 C 0.53078 0.50211 0.02965 0.0
N170 N 0.56384 0.49763 0.04823 0.0
N171 N 0.53661 0.51108 0.9921 0.0
C172 C 0.49232 0.49081 0.04573 0.0
C173 C 0.57444 0.5123 0.98813 0.0
N174 N 0.59142 0.50617 0.02259 0.0
C175 C 0.59433 0.5133 0.94872 0.0
H176 H 0.48344 0.45813 0.03395 0.0
H177 H 0.47141 0.51089 0.03571 0.0
H178 H 0.49272 0.49395 0.07882 0.0
H179 H 0.57519 0.51982 0.92498 0.0
H180 H 0.6056 0.48268 0.9395 0.0
H181 H 0.61843 0.53697 0.9514 0.0
C182 C 0.66624 0.21289 0.36421 0.0
N183 N 0.69881 0.2078 0.3833 0.0
N184 N 0.66682 0.19511 0.32578 0.0
C185 C 0.63434 0.23723 0.38215 0.0
C186 C 0.70059 0.17878 0.32182 0.0
N187 N 0.72008 0.18638 0.35659 0.0
C188 C 0.71437 0.15493 0.28409 0.0
H189 H 0.61722 0.21787 0.40138 0.0
H190 H 0.61556 0.24599 0.35918 0.0
H191 H 0.64495 0.26605 0.40084 0.0
H192 H 0.73593 0.17495 0.27016 0.0
H193 H 0.69099 0.14526 0.26256 0.0
H194 H 0.7279 0.12704 0.29088 0.0
C195 C 0.473 0.05554 0.96077 0.0
N196 N 0.50049 0.08721 0.96545 0.0
N197 N 0.44048 0.06755 0.97793 0.0
C198 C 0.47654 1.01401 0.93619 0.0
C199 C 0.44864 0.10773 0.99272 0.0
N200 N 0.48527 0.11982 0.98577 0.0
C201 C 0.42055 0.13532 1.01381 0.0
H202 H 0.44864 0.99666 0.93043 0.0
H203 H 0.49445 0.99526 0.95239 0.0
H204 H 0.49011 1.01812 0.90714 0.0
H205 H 0.39377 0.11806 0.02043 0.0
H206 H 0.41385 0.15882 0.99449 0.0
H207 H 0.43261 0.15192 0.042 0.0
Mn208 Mn 0.261 0.90114 0.04167 0.0
Mn209 Mn 0.24644 0.91771 0.94645 0.0
C210 C 0.23105 0.84915 0.99671 0.0
C211 C 0.29531 0.87474 0.09125 0.0
C212 C 0.2002 0.95599 1.01509 0.0
O213 O 0.30116 0.94779 0.0347 0.0
O214 O 0.28608 0.95835 0.9722 0.0
C215 C 0.32117 0.89576 0.91423 0.0
N216 N 0.2828 0.89043 0.9126 0.0
C217 C 0.28492 0.84135 0.8531 0.0
C218 C 0.32442 0.84644 0.85405 0.0
C219 C 0.34262 0.87365 0.88486 0.0
C220 C 0.26503 0.86407 0.8833 0.0
H221 H 0.33535 0.91669 0.93773 0.0
C222 C 0.3061 0.96669 1.00394 0.0
O223 O 0.27165 0.90296 0.1004 0.0
O224 O 0.30046 0.86372 0.0535 0.0
N225 N 0.20963 0.8802 0.91707 0.0
C226 C 0.17146 0.87729 0.9215 0.0
C227 C 0.14899 0.85201 0.89265 0.0
C228 C 0.16604 0.82987 0.85969 0.0
C229 C 0.2054 0.83256 0.85632 0.0
C230 C 0.22626 0.85898 0.88545 0.0
H231 H 0.15826 0.8946 0.94653 0.0
O232 O 0.22387 0.85127 0.03462 0.0
O233 O 0.25319 0.87939 0.98597 0.0
O234 O 0.2186 0.94213 0.04237 0.0
O235 O 0.20707 0.94703 0.97801 0.0
C236 C 0.22477 0.81021 0.8251 0.0
C237 C 0.2645 0.81425 0.82367 0.0
H238 H 0.34106 0.82943 0.83144 0.0
H239 H 0.3731 0.87764 0.8859 0.0
H240 H 0.11861 0.8497 0.89569 0.0
H241 H 0.14864 0.8105 0.8374 0.0
H242 H 0.2094 0.78966 0.80219 0.0
H243 H 0.27905 0.79633 0.79985 0.0
Mn244 Mn 0.17837 0.54113 0.2953 0.0
Mn245 Mn 0.14688 0.63217 0.27756 0.0
C246 C 0.21767 0.58829 0.26431 0.0
C247 C 0.21096 0.49885 0.33201 0.0
C248 C 0.1208 0.54912 0.22943 0.0
O249 O 0.1354 0.54889 0.33623 0.0
O250 O 0.11772 0.61038 0.32194 0.0
C251 C 0.16989 0.68303 0.35395 0.0
N252 N 0.17046 0.67695 0.31331 0.0
C253 C 0.20774 0.74151 0.31106 0.0
C254 C 0.2074 0.74853 0.35287 0.0
C255 C 0.18856 0.71905 0.3744 0.0
C256 C 0.18896 0.70485 0.29235 0.0
H257 H 0.15541 0.66052 0.37066 0.0
C258 C 0.1152 0.58007 0.34282 0.0
O259 O 0.18506 0.48357 0.30635 0.0
O260 O 0.21624 0.53905 0.33843 0.0
N261 N 0.173 0.65763 0.23622 0.0
C262 C 0.17165 0.64565 0.1961 0.0
C263 C 0.18772 0.67245 0.17017 0.0
C264 C 0.20506 0.71127 0.18577 0.0
C265 C 0.20728 0.72239 0.22719 0.0
C266 C 0.18983 0.69488 0.25149 0.0
H267 H 0.15768 0.61631 0.18392 0.0
O268 O 0.22184 0.54873 0.2577 0.0
O269 O 0.18904 0.59865 0.28652 0.0
O270 O 0.14039 0.52715 0.24862 0.0
O271 O 0.12106 0.58856 0.23782 0.0
C272 C 0.22582 0.75982 0.24529 0.0
C273 C 0.2264 0.76917 0.28724 0.0
H274 H 0.22165 0.77633 0.36874 0.0
H275 H 0.18835 0.72414 0.40668 0.0
H276 H 0.18634 0.66343 0.13822 0.0
H277 H 0.21698 0.73208 0.16564 0.0
H278 H 0.23999 0.78146 0.22724 0.0
H279 H 0.24121 0.79774 0.30086 0.0
Mn280 Mn 0.78615 0.65315 0.04158 0.0
Mn281 Mn 0.71269 0.68259 0.99231 0.0
C282 C 0.72656 0.61587 0.04317 0.0
C283 C 0.83998 0.61631 0.04627 0.0
C284 C 0.74261 0.72854 0.07142 0.0
O285 O 0.81202 0.69192 1.00322 0.0
O286 O 0.76088 0.70237 0.96807 0.0
C287 C 0.72138 0.63391 0.91298 0.0
N288 N 0.69987 0.64465 0.94566 0.0
C289 C 0.64392 0.6111 0.91278 0.0
C290 C 0.66538 0.59986 0.87862 0.0
C291 C 0.7044 0.61078 0.87895 0.0
C292 C 0.66271 0.63255 0.94635 0.0
H293 H 0.75115 0.64333 0.9128 0.0
C294 C 0.79655 0.70636 0.97424 0.0
O295 O 0.83418 0.64953 0.07027 0.0
O296 O 0.81531 0.60511 0.01799 0.0
N297 N 0.66387 0.66587 1.01156 0.0
C298 C 0.64714 0.6794 0.04679 0.0
C299 C 0.60856 0.66888 0.05224 0.0
C300 C 0.58723 0.64619 0.02083 0.0
C301 C 0.60479 0.6339 0.98438 0.0
C302 C 0.64365 0.64368 0.9813 0.0
H303 H 0.66308 0.6981 0.07056 0.0
O304 O 0.752 0.61402 0.06999 0.0
O305 O 0.73699 0.63862 1.01535 0.0
O306 O 0.76687 0.7031 0.07696 0.0
O307 O 0.72221 0.72453 0.04004 0.0
C308 C 0.58503 0.61367 0.95052 0.0
C309 C 0.60454 0.6026 0.91462 0.0
H310 H 0.6522 0.58292 0.85199 0.0
H311 H 0.72118 0.60219 0.85274 0.0
H312 H 0.59513 0.679 0.0803 0.0
H313 H 0.5573 0.63897 0.02481 0.0
H314 H 0.55486 0.6064 0.95175 0.0
H315 H 0.58908 0.58679 0.88888 0.0
Mn316 Mn 0.87386 0.02769 0.30995 0.0
Mn317 Mn 0.90202 0.92992 0.29274 0.0
C318 C 0.83744 0.97517 0.27091 0.0
C319 C 0.83996 0.08099 0.34369 0.0
C320 C 0.9347 0.99969 0.24912 0.0
O321 O 0.91246 0.02787 0.35495 0.0
O322 O 0.92993 0.96272 0.33857 0.0
C323 C 0.87417 0.90002 0.36761 0.0
N324 N 0.87525 0.89553 0.32699 0.0
C325 C 0.83614 0.83144 0.32258 0.0
C326 C 0.83481 0.83525 0.36436 0.0
C327 C 0.85382 0.86976 0.38695 0.0
C328 C 0.85707 0.86243 0.30495 0.0
H329 H 0.88874 0.92646 0.38513 0.0
C330 C 0.93227 0.9979 0.36077 0.0
O331 O 0.8689 0.08876 0.32151 0.0
O332 O 0.8323 0.04235 0.34869 0.0
N333 N 0.87695 0.89437 0.24986 0.0
C334 C 0.87807 0.89736 0.21001 0.0
C335 C 0.85892 0.86629 0.18329 0.0
C336 C 0.8391 0.83233 0.19774 0.0
C337 C 0.83837 0.82991 0.23886 0.0
C338 C 0.85807 0.86174 0.26406 0.0
H339 H 0.89312 0.92348 0.19878 0.0
O340 O 0.83508 1.01388 0.26655 0.0
O341 O 0.8614 0.96804 0.29763 0.0
O342 O 0.91636 0.02789 0.26842 0.0
O343 O 0.93092 0.96176 0.2552 0.0
C344 C 0.81818 0.79766 0.25592 0.0
C345 C 0.81693 0.79851 0.29774 0.0
H346 H 0.81897 0.8121 0.3794 0.0
H347 H 0.85278 0.87303 0.41921 0.0
H348 H 0.8594 0.86852 0.15161 0.0
H349 H 0.82426 0.80852 0.17703 0.0
H350 H 0.80312 0.77231 0.23719 0.0
H351 H 0.80071 0.77395 0.31052 0.0
Mn352 Mn 0.28592 0.15232 0.54026 0.0
Mn353 Mn 0.21172 0.18321 0.49323 0.0
C354 C 0.22589 0.11652 0.54401 0.0
C355 C 0.33919 0.11416 0.54285 0.0
C356 C 0.24401 0.22877 0.57139 0.0
O357 O 0.31135 0.18986 0.50069 0.0
O358 O 0.25954 0.20264 0.46792 0.0
C359 C 0.2185 0.1348 0.41347 0.0
N360 N 0.19775 0.14555 0.44672 0.0
C361 C 0.14097 0.11272 0.41502 0.0
C362 C 0.16164 0.10144 0.3803 0.0
C363 C 0.2007 0.112 0.37974 0.0
C364 C 0.16056 0.13382 0.44823 0.0
H365 H 0.24828 0.14398 0.41259 0.0
C366 C 0.29539 0.20539 0.47272 0.0
O367 O 0.33529 0.14818 0.56647 0.0
O368 O 0.31278 0.10276 0.51648 0.0
N369 N 0.16319 0.16697 0.5135 0.0
C370 C 0.14725 0.18059 0.54915 0.0
C371 C 0.10876 0.1704 0.55547 0.0
C372 C 0.08671 0.14793 0.52452 0.0
C373 C 0.10345 0.13555 0.48763 0.0
C374 C 0.14226 0.14501 0.48366 0.0
H375 H 0.16375 0.1991 0.57259 0.0
O376 O 0.25189 0.1145 0.57023 0.0
O377 O 0.23595 0.13882 0.51573 0.0
O378 O 0.26862 0.20334 0.57584 0.0
O379 O 0.22245 0.2248 0.5409 0.0
C380 C 0.08292 0.11555 0.45419 0.0
C381 C 0.10161 0.10455 0.41777 0.0
H382 H 0.14783 0.08475 0.35391 0.0
H383 H 0.21687 0.10339 0.35308 0.0
H384 H 0.09595 0.18059 0.58386 0.0
H385 H 0.05684 0.14096 0.52918 0.0
H386 H 0.05276 0.10851 0.45612 0.0
H387 H 0.08554 0.08902 0.39232 0.0
Mn388 Mn 0.37414 0.52819 0.80956 0.0
Mn389 Mn 0.40235 0.43046 0.79223 0.0
C390 C 0.33761 0.47557 0.77077 0.0
C391 C 0.34026 0.58142 0.84344 0.0
C392 C 0.43484 0.50026 0.74851 0.0
O393 O 0.41294 0.52842 0.8544 0.0
O394 O 0.43033 0.46323 0.83801 0.0
C395 C 0.37474 0.40048 0.86715 0.0
N396 N 0.37569 0.39604 0.82653 0.0
C397 C 0.33662 0.33192 0.82218 0.0
C398 C 0.33542 0.33568 0.86396 0.0
C399 C 0.35447 0.37018 0.88653 0.0
C400 C 0.35745 0.36296 0.80452 0.0
H401 H 0.38935 0.4269 0.88466 0.0
C402 C 0.43273 0.49842 0.8602 0.0
O403 O 0.36909 0.58925 0.82114 0.0
O404 O 0.33272 0.54277 0.84849 0.0
N405 N 0.37717 0.39495 0.7494 0.0
C406 C 0.37817 0.39797 0.70956 0.0
C407 C 0.35896 0.36691 0.68287 0.0
C408 C 0.33921 0.33293 0.69735 0.0
C409 C 0.33861 0.33047 0.73846 0.0
C410 C 0.35833 0.36231 0.76363 0.0
H411 H 0.39319 0.4241 0.6983 0.0
O412 O 0.33515 0.51425 0.76635 0.0
O413 O 0.36175 0.46855 0.79733 0.0
O414 O 0.41647 0.52844 0.76783 0.0
O415 O 0.43114 0.46234 0.75464 0.0
C416 C 0.31857 0.29815 0.75555 0.0
C417 C 0.31741 0.29897 0.79737 0.0
H418 H 0.31967 0.31249 0.87902 0.0
H419 H 0.35354 0.37341 0.91879 0.0
H420 H 0.35935 0.36916 0.6512 0.0
H421 H 0.32434 0.30912 0.67666 0.0
H422 H 0.30358 0.27274 0.73684 0.0
H423 H 0.3013 0.27435 0.81016 0.0
Mn424 Mn 0.76169 0.40132 0.54155 0.0
Mn425 Mn 0.74701 0.41803 0.44639 0.0
C426 C 0.73146 0.34948 0.49664 0.0
C427 C 0.79594 0.37457 0.59096 0.0
C428 C 0.70112 0.45661 0.51523 0.0
O429 O 0.80206 0.44776 0.53447 0.0
O430 O 0.787 0.45832 0.47196 0.0
C431 C 0.82142 0.39546 0.41372 0.0
N432 N 0.78303 0.39042 0.41232 0.0
C433 C 0.78458 0.34137 0.35275 0.0
C434 C 0.82409 0.34613 0.35347 0.0
C435 C 0.84258 0.37317 0.3842 0.0
C436 C 0.76498 0.36422 0.3831 0.0
H437 H 0.83583 0.41627 0.43715 0.0
C438 C 0.80712 0.46655 0.50364 0.0
O439 O 0.77247 0.40296 0.60023 0.0
O440 O 0.80099 0.36362 0.55319 0.0
N441 N 0.70986 0.3808 0.41721 0.0
C442 C 0.67172 0.37816 0.42189 0.0
C443 C 0.64897 0.35309 0.39314 0.0
C444 C 0.66572 0.33089 0.36003 0.0
C445 C 0.70507 0.33324 0.35644 0.0
C446 C 0.72621 0.35945 0.38549 0.0
H447 H 0.65874 0.39554 0.44703 0.0
O448 O 0.72434 0.35164 0.53455 0.0
O449 O 0.75368 0.37965 0.48586 0.0
O450 O 0.71946 0.44256 0.54244 0.0
O451 O 0.70795 0.44769 0.47814 0.0
C452 C 0.72413 0.31077 0.32506 0.0
C453 C 0.76386 0.31446 0.32341 0.0
H454 H 0.84052 0.329 0.33074 0.0
H455 H 0.87308 0.37693 0.38506 0.0
H456 H 0.61861 0.35102 0.39637 0.0
H457 H 0.64811 0.3117 0.33781 0.0
H458 H 0.70853 0.29041 0.30219 0.0
H459 H 0.77818 0.29646 0.29946 0.0
Mn460 Mn 0.6775 0.04141 0.79586 0.0
Mn461 Mn 0.64751 0.13353 0.77964 0.0
C462 C 0.71738 0.08851 0.7654 0.0
C463 C 0.70996 0.99827 0.83181 0.0
C464 C 0.62023 0.05159 0.73019 0.0
O465 O 0.63482 0.04919 0.83705 0.0
O466 O 0.61756 0.11095 0.82307 0.0
C467 C 0.66984 0.18255 0.85715 0.0
N468 N 0.6709 0.17741 0.81651 0.0
C469 C 0.70773 0.24253 0.81604 0.0
C470 C 0.7068 0.24864 0.85785 0.0
C471 C 0.68798 0.21839 0.87849 0.0
C472 C 0.68937 0.20607 0.79641 0.0
H473 H 0.65531 0.15949 0.87317 0.0
C474 C 0.6147 0.08043 0.84367 0.0
O475 O 0.68385 0.98343 0.80619 0.0
O476 O 0.71544 0.03842 0.83862 0.0
N477 N 0.67447 0.15982 0.73934 0.0
C478 C 0.67474 0.14808 0.69919 0.0
C479 C 0.69118 0.17552 0.67406 0.0
C480 C 0.70755 0.21453 0.69054 0.0
C481 C 0.70867 0.22508 0.73205 0.0
C482 C 0.69078 0.19701 0.75549 0.0
H483 H 0.66212 0.11825 0.68643 0.0
O484 O 0.7209 0.04886 0.75812 0.0
O485 O 0.68906 0.0991 0.78798 0.0
O486 O 0.63897 0.0287 0.74934 0.0
O487 O 0.6218 0.09108 0.73888 0.0
C488 C 0.72671 0.26238 0.75106 0.0
C489 C 0.72656 0.27092 0.79307 0.0
H490 H 0.72055 0.27633 0.87441 0.0
H491 H 0.68732 0.22278 0.91077 0.0
H492 H 0.69102 0.16677 0.64206 0.0
H493 H 0.71982 0.23582 0.67104 0.0
H494 H 0.74115 0.28448 0.73369 0.0
H495 H 0.74103 0.29937 0.80742 0.0
Mn496 Mn 0.01534 0.25634 0.9145 0.0
Mn497 Mn 0.93702 0.24059 0.96841 0.0
C498 C 0.95956 0.22653 0.88294 0.0
C499 C 0.05545 0.29221 0.87354 0.0
C500 C 1.00425 0.18815 0.96963 0.0
O501 O 0.02514 0.29916 0.9643 0.0
O502 O 0.97197 0.28507 0.9988 0.0
C503 C 0.90485 0.32212 0.97 0.0
N504 N 0.9016 0.28007 0.96011 0.0
C505 C 0.83994 0.2823 0.93197 0.0
C506 C 0.84261 0.32557 0.942 0.0
C507 C 0.87519 0.34554 0.96115 0.0
C508 C 0.87012 0.26047 0.94218 0.0
H509 H 0.92989 0.33779 0.98442 0.0
C510 C 1.00362 0.30622 0.99473 0.0
O511 O 0.06736 0.26496 0.8942 0.0
O512 O 0.0205 0.30076 0.87854 0.0
N513 N 0.90115 0.19994 0.94109 0.0
C514 C 0.90437 0.15859 0.93018 0.0
C515 C 0.87486 0.13439 0.90906 0.0
C516 C 0.84245 0.15295 0.89913 0.0
C517 C 0.83984 0.1956 0.91044 0.0
C518 C 0.86998 0.21808 0.93184 0.0
H519 H 0.92947 0.14431 0.93706 0.0
O520 O 0.99227 0.21749 0.86834 0.0
O521 O 0.96079 0.24994 0.91727 0.0
O522 O 0.02441 0.20819 0.94629 0.0
O523 O 0.97071 0.19693 0.97928 0.0
C524 C 0.80895 0.21686 0.90036 0.0
C525 C 0.80898 0.26016 0.9112 0.0
H526 H 0.82001 0.34381 0.93474 0.0
H527 H 0.87754 0.37895 0.96884 0.0
H528 H 0.87724 0.10156 0.90012 0.0
H529 H 0.81995 0.13428 0.8824 0.0
H530 H 0.78527 0.20031 0.88376 0.0
H531 H 0.78536 0.27627 0.90278 0.0
Mn532 Mn 0.51591 0.75697 0.41408 0.0
Mn533 Mn 0.43796 0.74151 0.46858 0.0
C534 C 0.45995 0.72705 0.38292 0.0
C535 C 0.55555 0.79304 0.37292 0.0
C536 C 0.50536 0.68914 0.46961 0.0
O537 O 0.52613 0.7998 0.4638 0.0
O538 O 0.47289 0.78643 0.49838 0.0
C539 C 0.40533 0.82272 0.46959 0.0
N540 N 0.40225 0.78062 0.46011 0.0
C541 C 0.34036 0.7822 0.43224 0.0
C542 C 0.34286 0.82551 0.44187 0.0
C543 C 0.37547 0.84583 0.46067 0.0
C544 C 0.37075 0.76069 0.4425 0.0
H545 H 0.4304 0.83865 0.48372 0.0
C546 C 0.50464 0.80734 0.49416 0.0
O547 O 0.56775 0.76573 0.39334 0.0
O548 O 0.52059 0.80142 0.37822 0.0
N549 N 0.40214 0.70045 0.44175 0.0
C550 C 0.40554 0.65909 0.43115 0.0
C551 C 0.37605 0.63454 0.41035 0.0
C552 C 0.34346 0.65278 0.40042 0.0
C553 C 0.34066 0.69544 0.41139 0.0
C554 C 0.3708 0.71828 0.4325 0.0
H555 H 0.43077 0.64505 0.43803 0.0
O556 O 0.49257 0.71807 0.36807 0.0
O557 O 0.46139 0.75052 0.41722 0.0
O558 O 0.52526 0.7088 0.44577 0.0
O559 O 0.47198 0.69821 0.47968 0.0
C560 C 0.30957 0.71638 0.40128 0.0
C561 C 0.30939 0.7597 0.41178 0.0
H562 H 0.32011 0.84352 0.43455 0.0
H563 H 0.3777 0.87928 0.46803 0.0
H564 H 0.37857 0.6017 0.40167 0.0
H565 H 0.32096 0.63383 0.38393 0.0
H566 H 0.28589 0.69955 0.3849 0.0
H567 H 0.2856 0.77554 0.40335 0.0
Mn568 Mn 0.02877 0.79698 0.66653 0.0
Mn569 Mn 0.98083 0.70521 0.67913 0.0
C570 C 0.0293 0.7396 0.61637 0.0
C571 C 0.03568 0.86277 0.64274 0.0
C572 C 0.05636 0.73344 0.71731 0.0
O573 O 0.9924 0.81408 0.71382 0.0
O574 O 0.96303 0.7509 0.71691 0.0
C575 C 0.90478 0.72285 0.65457 0.0
N576 N 0.93434 0.69842 0.65054 0.0
C577 C 0.89635 0.64229 0.61381 0.0
C578 C 0.86548 0.66687 0.61727 0.0
C579 C 0.8699 0.70759 0.6372 0.0
C580 C 0.93097 0.66009 0.62963 0.0
H581 H 0.90763 0.75336 0.67162 0.0
C582 C 0.96796 0.78961 0.72939 0.0
O583 O 0.0569 0.85385 0.67094 0.0
O584 O 1.0085 0.83513 0.63089 0.0
N585 N 0.99411 0.65667 0.64563 0.0
C586 C 0.02573 0.63582 0.64754 0.0
C587 C 0.02654 0.59532 0.62757 0.0
C588 C 0.99402 0.57563 0.60813 0.0
C589 C 0.96114 0.59683 0.60856 0.0
C590 C 0.96269 0.63801 0.62688 0.0
H591 H 0.05019 0.65001 0.66418 0.0
O592 O 0.05554 0.76967 0.61865 0.0
O593 O 1.00278 0.74388 0.64312 0.0
O594 O 0.06077 0.76828 0.7037 0.0
O595 O 0.0276 0.70797 0.70989 0.0
C596 C 0.92632 0.57785 0.59373 0.0
C597 C 0.89391 0.60047 0.59636 0.0
H598 H 0.83821 0.65467 0.60508 0.0
H599 H 0.84616 0.72666 0.64026 0.0
H600 H 0.05178 0.57885 0.62824 0.0
H601 H 0.9943 0.54385 0.59396 0.0
H602 H 0.92397 0.5455 0.58134 0.0
H603 H 0.86733 0.58543 0.58474 0.0
Mn604 Mn 0.52886 0.297 0.16619 0.0
Mn605 Mn 0.48124 0.20509 0.179 0.0
C606 C 0.52946 0.23957 0.11611 0.0
C607 C 0.53559 0.36272 0.1422 0.0
C608 C 0.55657 0.234 0.21743 0.0
O609 O 0.49238 0.31392 0.21347 0.0
O610 O 0.46277 0.25075 0.21632 0.0
C611 C 0.40503 0.22132 0.15371 0.0
N612 N 0.43497 0.19743 0.15 0.0
C613 C 0.39784 0.14055 0.11331 0.0
C614 C 0.3666 0.16457 0.11641 0.0
C615 C 0.37038 0.20539 0.13617 0.0
C616 C 0.43218 0.15899 0.1293 0.0
H617 H 0.4074 0.2519 0.17064 0.0
C618 C 0.46772 0.28947 0.22881 0.0
O619 O 0.55682 0.35397 0.17047 0.0
O620 O 0.50844 0.33499 0.13046 0.0
N621 N 0.49532 0.15667 0.14588 0.0
C622 C 0.52726 0.13643 0.14808 0.0
C623 C 0.52873 0.09595 0.12825 0.0
C624 C 0.49656 0.07569 0.10859 0.0
C625 C 0.46335 0.09628 0.10866 0.0
C626 C 0.46423 0.13746 0.1269 0.0
H627 H 0.55149 0.15108 0.16483 0.0
O628 O 0.55564 0.2697 0.1183 0.0
O629 O 0.50303 0.2438 0.14295 0.0
O630 O 0.56108 0.2686 0.20341 0.0
O631 O 0.52777 0.20857 0.21023 0.0
C632 C 0.42885 0.07671 0.09354 0.0
C633 C 0.39608 0.09871 0.0959 0.0
H634 H 0.33953 0.15187 0.10405 0.0
H635 H 0.34635 0.22404 0.13895 0.0
H636 H 0.55423 0.07995 0.12916 0.0
H637 H 0.49735 0.04393 0.0945 0.0
H638 H 0.42705 0.04436 0.08116 0.0
H639 H 0.36974 0.0832 0.0841 0.0
C640 C 0.24556 0.76053 0.91524 0.0
C641 C 0.21255 0.73463 0.9181 0.0
H642 H 0.27839 0.81554 0.93986 0.0
C643 C 0.18921 0.74278 0.95164 0.0
H644 H 0.26462 0.75487 0.89037 0.0
C645 C 0.19497 0.78012 0.97736 0.0
C646 C 0.22541 0.80862 0.97116 0.0
H647 H 0.16437 0.72235 0.95555 0.0
H648 H 0.17488 0.78736 1.00104 0.0
C649 C 0.25247 0.79644 0.94239 0.0
C650 C 0.03852 0.61958 0.41428 0.0
C651 C 0.03492 0.5895 0.44046 0.0
H652 H 0.06577 0.6399 0.36297 0.0
C653 C 0.05988 0.55765 0.4363 0.0
H654 H 0.01943 0.64414 0.41652 0.0
C655 C 0.08609 0.55437 0.40486 0.0
C656 C 0.08822 0.58322 0.37714 0.0
H657 H 0.05792 0.53425 0.45638 0.0
H658 H 0.10418 0.52886 0.40191 0.0
C659 C 0.06475 0.61655 0.38311 0.0
C660 C 0.82089 0.75947 0.88281 0.0
C661 C 0.84685 0.79226 0.89797 0.0
H662 H 0.78487 0.70688 0.8948 0.0
C663 C 0.86192 0.79135 0.93631 0.0
H664 H 0.80767 0.76004 0.85416 0.0
C665 C 0.84853 0.76082 0.96026 0.0
C666 C 0.81935 0.73085 0.94646 0.0
H667 H 0.88096 0.81694 0.9494 0.0
H668 H 0.85835 0.76322 0.99077 0.0
C669 C 0.80723 0.72942 0.90665 0.0
C670 C 1.00478 0.97161 0.43377 0.0
C671 C 1.00877 1.00777 0.46109 0.0
H672 H 0.97809 0.94023 0.38101 0.0
C673 C 0.98742 0.04121 0.45582 0.0
H674 H 0.02117 0.94564 0.43739 0.0
C675 C 0.96261 0.03856 0.42322 0.0
C676 C 0.95876 1.00229 0.39542 0.0
H677 H 0.99036 0.06944 0.47669 0.0
H678 H 0.94655 0.06482 0.4198 0.0
C679 C 0.98017 0.96883 0.40142 0.0
C680 C 0.2381 0.28755 0.67594 0.0
C681 C 0.21458 0.31871 0.6697 0.0
H682 H 0.26659 0.23498 0.64976 0.0
C683 C 0.20446 0.32315 0.63058 0.0
H684 H 0.24502 0.28288 0.70606 0.0
C685 C 0.21576 0.29532 0.59833 0.0
C686 C 0.23763 0.26246 0.60457 0.0
H687 H 0.18554 0.34641 0.62536 0.0
H688 H 0.20584 0.29842 0.56873 0.0
C689 C 0.24992 0.25993 0.64368 0.0
C690 C 0.49814 0.56372 0.68403 0.0
C691 C 0.50719 0.53335 0.65281 0.0
H692 H 0.46782 0.57725 0.73872 0.0
C693 C 0.49316 0.49206 0.65362 0.0
H694 H 0.50892 0.59571 0.68392 0.0
C695 C 0.47047 0.48119 0.6852 0.0
C696 C 0.4606 0.51164 0.7162 0.0
H697 H 0.49972 0.4683 0.62962 0.0
H698 H 0.46003 0.44902 0.68483 0.0
C699 C 0.47472 0.55308 0.71526 0.0
C700 C 0.81533 0.33519 0.68979 0.0
C701 C 0.83561 0.3005 0.67712 0.0
H702 H 0.7869 0.38608 0.67264 0.0
C703 C 0.84599 0.29298 0.63684 0.0
H704 H 0.80665 0.34123 0.72066 0.0
C705 C 0.83482 0.31846 0.60935 0.0
C706 C 0.81274 0.352 0.62144 0.0
H707 H 0.86142 0.26626 0.62644 0.0
H708 H 0.84215 0.31073 0.57825 0.0
C709 C 0.80393 0.36068 0.66224 0.0
C710 C 0.54727 0.9789 0.66657 0.0
C711 C 0.54255 1.00107 0.63411 0.0
H712 H 0.57606 0.97693 0.72221 0.0
C713 C 0.56629 0.03725 0.6318 0.0
H714 H 0.52877 0.95154 0.66972 0.0
C715 C 0.59181 0.05284 0.66242 0.0
C716 C 0.59558 0.03198 0.69591 0.0
H717 H 0.56281 0.05538 0.60756 0.0
H718 H 0.60777 0.08208 0.66029 0.0
C719 C 0.574 0.99384 0.69685 0.0
C720 C 0.895 0.19671 0.79231 0.0
C721 C 0.87485 0.23237 0.79286 0.0
H722 H 0.93727 0.16646 0.82071 0.0
C723 C 0.87917 0.26299 0.82619 0.0
H724 H 0.89252 0.1727 0.76694 0.0
C725 C 0.9056 0.26015 0.85606 0.0
C726 C 0.92697 0.22541 0.85494 0.0
H727 H 0.86367 0.29049 0.82795 0.0
H728 H 0.91077 0.28643 0.87891 0.0
C729 C 0.92082 0.1933 0.82298 0.0
C730 C 0.53948 0.91832 0.53505 0.0
C731 C 0.51502 0.92664 0.56754 0.0
H732 H 0.55583 0.87408 0.48641 0.0
C733 C 0.49315 0.89307 0.58034 0.0
H734 H 0.55588 0.94376 0.52387 0.0
C735 C 0.49233 0.85325 0.55851 0.0
C736 C 0.51364 0.84577 0.52329 0.0
H737 H 0.47342 0.89874 0.60466 0.0
H738 H 0.47268 0.82913 0.56757 0.0
C739 C 0.53894 0.87834 0.51324 0.0
C740 C 0.08862 0.34798 0.78596 0.0
C741 C 0.1246 0.33362 0.77947 0.0
H742 H 0.03818 0.34632 0.82136 0.0
C743 C 0.1383 0.30755 0.80492 0.0
H744 H 0.078 0.36862 0.76675 0.0
C745 C 0.11619 0.29534 0.83623 0.0
C746 C 0.07976 0.30889 0.84265 0.0
H747 H 0.16631 0.29681 0.80048 0.0
H748 H 0.12752 0.27472 0.85502 0.0
C749 C 0.06619 0.33554 0.8173 0.0
C750 C 0.51673 0.58356 0.50315 0.0
C751 C 0.54732 0.59216 0.5299 0.0
H752 H 0.47858 0.60762 0.46454 0.0
C753 C 0.56732 0.63134 0.53201 0.0
H754 H 0.5004 0.55391 0.5014 0.0
C755 C 0.55507 0.66217 0.51042 0.0
C756 C 0.52199 0.65474 0.48711 0.0
H757 H 0.59031 0.6393 0.55307 0.0
H758 H 0.56987 0.69276 0.51429 0.0
C759 C 0.50376 0.61462 0.48267 0.0
C760 C 0.88662 0.79169 0.80423 0.0
C761 C 0.89484 0.82894 0.82926 0.0
H762 H 0.90233 0.75088 0.75325 0.0
C763 C 0.92843 0.85303 0.82217 0.0
H764 H 0.86049 0.77325 0.80778 0.0
C765 C 0.95223 0.84113 0.78976 0.0
C766 C 0.94327 0.80442 0.76385 0.0
H767 H 0.93515 0.88236 0.84063 0.0
H768 H 0.97735 0.86078 0.78485 0.0
C769 C 0.91046 0.77952 0.77227 0.0
C770 C 0.05793 0.92322 0.55542 0.0
C771 C 0.06468 0.96449 0.57362 0.0
H772 H 0.04199 0.85978 0.56275 0.0
C773 C 0.06361 0.97213 0.61558 0.0
H774 H 0.0577 0.91654 0.52318 0.0
C775 C 0.05529 0.93919 0.63858 0.0
C776 C 0.04617 0.89837 0.61989 0.0
H777 H 0.06774 1.00367 0.63037 0.0
H778 H 0.05433 0.9459 0.67078 0.0
C779 C 0.04819 0.89087 0.57808 0.0
C780 C 0.15084 0.72425 0.76507 0.0
C781 C 0.14032 0.69944 0.7949 0.0
H782 H 0.13223 0.75573 0.71765 0.0
C783 C 0.10272 0.68384 0.7975 0.0
H784 H 0.17991 0.73574 0.76216 0.0
C785 C 0.07563 0.69443 0.77176 0.0
C786 C 0.08562 0.72137 0.74336 0.0
H787 H 0.09423 0.66472 0.82045 0.0
H788 H 0.0466 0.68262 0.775 0.0
C789 C 0.12361 0.73572 0.73984 0.0
C790 C 0.99189 0.69342 0.5147 0.0
C791 C 1.00675 0.65427 0.5096 0.0
H792 H 0.98473 0.7492 0.5546 0.0
C793 C 0.03499 0.64692 0.53615 0.0
H794 H 0.9714 0.7008 0.49374 0.0
C795 C 0.04452 0.67604 0.56968 0.0
C796 C 0.024 0.71126 0.57854 0.0
H797 H 0.04751 0.61739 0.53269 0.0
H798 H 0.06609 0.6697 0.58996 0.0
C799 C 0.99922 0.72089 0.54965 0.0
C800 C 0.75783 0.91839 0.20627 0.0
C801 C 0.74208 0.89126 0.23205 0.0
H802 H 0.80141 0.96631 0.19819 0.0
C803 C 0.7604 0.88887 0.26817 0.0
H804 H 0.74373 0.92117 0.17859 0.0
C805 C 0.79145 0.91604 0.28035 0.0
C806 C 0.80709 0.94381 0.25526 0.0
H807 H 0.74857 0.86831 0.28858 0.0
H808 H 0.8022 0.91652 0.31026 0.0
C809 C 0.79034 0.94447 0.21776 0.0
C810 C 0.75181 0.13127 0.38311 0.0
C811 C 0.75415 0.16738 0.36433 0.0
H812 H 0.77725 0.0753 0.39147 0.0
C813 C 0.78756 0.17805 0.34444 0.0
H814 H 0.72594 0.12208 0.39785 0.0
C815 C 0.81704 0.15161 0.3409 0.0
C816 C 0.81337 0.11342 0.35648 0.0
H817 H 0.7896 0.20535 0.32911 0.0
H818 H 0.84143 0.15965 0.32326 0.0
C819 C 0.78106 0.10438 0.37909 0.0
C820 C 0.37189 0.05161 0.96991 0.0
C821 C 0.40663 0.04216 0.98424 0.0
H822 H 0.31236 0.03561 0.96597 0.0
C823 C 0.40787 1.00896 1.00668 0.0
H824 H 0.37056 0.07698 0.9523 0.0
C825 C 0.37466 0.98624 1.01578 0.0
C826 C 0.33981 0.99554 1.00133 0.0
H827 H 0.4346 1.0011 0.01759 0.0
H828 H 0.37644 0.9603 0.03259 0.0
C829 C 0.33877 0.02837 0.97819 0.0
C830 C 0.2988 0.46054 0.37341 0.0
C831 C 0.29066 0.41736 0.36669 0.0
H832 H 0.27949 0.52053 0.36856 0.0
C833 C 0.25486 0.40144 0.35243 0.0
H834 H 0.32638 0.47328 0.38424 0.0
C835 C 0.22814 0.42814 0.34329 0.0
C836 C 0.23664 0.4714 0.34841 0.0
H837 H 0.24822 0.36819 0.34675 0.0
H838 H 0.20132 0.41479 0.33078 0.0
C839 C 0.27192 0.4874 0.36459 0.0
C840 C 0.13042 0.06135 0.56602 0.0
C841 C 0.12761 0.0277 0.53518 0.0
H842 H 0.16404 0.11519 0.59376 0.0
C843 C 0.15926 0.02154 0.51032 0.0
H844 H 0.10678 0.06714 0.58582 0.0
C845 C 0.19038 0.05109 0.51254 0.0
C846 C 0.19195 0.08625 0.54147 0.0
H847 H 0.15875 0.99528 0.48712 0.0
H848 H 0.2133 0.04648 0.49148 0.0
C849 C 0.16274 0.08958 0.56982 0.0
C850 C 0.78904 0.18203 0.78187 0.0
C851 C 0.81023 0.17749 0.74657 0.0
H852 H 0.74428 0.15636 0.81621 0.0
C853 C 0.80387 0.14059 0.72 0.0
H854 H 0.79358 0.20976 0.8032 0.0
C855 C 0.77367 0.11166 0.72592 0.0
C856 C 0.75003 0.11842 0.75924 0.0
H857 H 0.82048 0.1358 0.69302 0.0
H858 H 0.76808 0.08474 0.7038 0.0
C859 C 0.75984 0.15227 0.78852 0.0
C860 C 0.43593 0.08371 0.56888 0.0
C861 C 0.43011 0.04028 0.56689 0.0
H862 H 0.41167 0.14106 0.56329 0.0
C863 C 0.39452 0.0212 0.55457 0.0
H864 H 0.46319 0.09927 0.57734 0.0
C865 C 0.3655 0.04499 0.54466 0.0
C866 C 0.37106 0.0885 0.54817 0.0
H867 H 0.38889 0.98794 0.55338 0.0
H868 H 0.33822 0.02951 0.53597 0.0
C869 C 0.40658 0.10758 0.56035 0.0
C870 C 0.64449 0.53964 0.5728 0.0
C871 C 0.6096 0.53403 0.55259 0.0
H872 H 0.69979 0.51847 0.57826 0.0
C873 C 0.60664 0.50604 0.51727 0.0
H874 H 0.64758 0.56093 0.60017 0.0
C875 C 0.6369 0.48216 0.50419 0.0
C876 C 0.67039 0.4848 0.52684 0.0
H877 H 0.58 0.50039 0.5015 0.0
H878 H 0.63318 0.45984 0.47761 0.0
C879 C 0.67415 0.5148 0.56066 0.0
C880 C 0.68956 0.24308 0.45175 0.0
C881 C 0.71284 0.23488 0.41818 0.0
H882 H 0.67529 0.28773 0.50112 0.0
C883 C 0.74584 0.26077 0.41522 0.0
H884 H 0.6647 0.22268 0.4557 0.0
C885 C 0.75279 0.29672 0.44231 0.0
C886 C 0.72577 0.30894 0.47113 0.0
H887 H 0.76485 0.25506 0.39031 0.0
H888 H 0.77869 0.3158 0.43971 0.0
C889 C 0.69534 0.28045 0.47742 0.0
C890 C 0.5585 0.05751 0.93641 0.0
C891 C 0.53371 0.08951 0.94058 0.0
H892 H 0.60291 0.0287 0.90223 0.0
C893 C 0.53767 0.1198 0.91464 0.0
H894 H 0.55627 0.03396 0.95634 0.0
C895 C 0.56411 0.11685 0.88369 0.0
C896 C 0.58745 0.08341 0.87772 0.0
H897 H 0.51873 0.1445 0.91691 0.0
H898 H 0.56543 0.1404 0.86374 0.0
C899 C 0.58494 0.05431 0.90519 0.0
C900 C 0.36177 0.28936 0.43452 0.0
C901 C 0.34602 0.29143 0.39672 0.0
H902 H 0.35863 0.26022 0.48839 0.0
C903 C 0.31902 0.25963 0.38174 0.0
H904 H 0.38166 0.31419 0.44749 0.0
C905 C 0.30503 0.22954 0.40541 0.0
C906 C 0.31799 0.22984 0.44476 0.0
H907 H 0.30536 0.26111 0.3535 0.0
H908 H 0.28191 0.20786 0.39385 0.0
C909 C 0.34813 0.25871 0.45821 0.0
C910 C 0.48845 0.54177 0.95487 0.0
C911 C 0.50919 0.50797 0.96049 0.0
H912 H 0.44804 0.56575 0.91857 0.0
C913 C 0.50459 0.47156 0.93358 0.0
H914 H 0.49188 0.5702 0.97542 0.0
C915 C 0.47998 0.46889 0.90124 0.0
C916 C 0.45918 0.5027 0.89486 0.0
H917 H 0.52052 0.44531 0.93747 0.0
H918 H 0.47742 0.44008 0.88115 0.0
C919 C 0.46361 0.53921 0.92229 0.0
C920 C 0.70106 0.82246 0.12932 0.0
C921 C 0.71273 0.81998 0.1684 0.0
H922 H 0.70128 0.79577 0.06801 0.0
C923 C 0.73768 0.79026 0.17491 0.0
H924 H 0.68108 0.84461 0.12394 0.0
C925 C 0.74933 0.76203 0.14304 0.0
C926 C 0.7356 0.76259 0.10408 0.0
H927 H 0.74597 0.78718 0.20503 0.0
H928 H 0.76726 0.73826 0.14939 0.0
C929 C 0.7123 0.79411 0.09749 0.0
C930 C 0.99792 0.06311 0.18457 0.0
C931 C 1.00688 0.03274 0.15331 0.0
H932 H 0.96773 0.07666 0.23933 0.0
C933 C 0.99291 0.99144 0.15417 0.0
H934 H 1.00868 0.09511 0.1844 0.0
C935 C 0.97032 0.98057 0.18582 0.0
C936 C 0.96049 1.01104 0.21683 0.0
H937 H 0.99942 0.96768 0.13015 0.0
H938 H 0.95989 0.94841 0.18548 0.0
C939 C 0.9746 0.05248 0.21586 0.0
C940 C 0.34579 0.79371 0.13746 0.0
C941 C 0.33542 0.80134 0.17773 0.0
H942 H 0.34182 0.81117 0.07877 0.0
C943 C 0.315 0.83595 0.19029 0.0
H944 H 0.36129 0.76702 0.12714 0.0
C945 C 0.30345 0.86123 0.16263 0.0
C946 C 0.31225 0.85242 0.12183 0.0
H947 H 0.30629 0.84203 0.22114 0.0
H948 H 0.28631 0.88656 0.17293 0.0
C949 C 0.33449 0.819 0.10986 0.0
C950 C 0.079 0.52084 0.12507 0.0
C951 C 0.04503 0.49809 0.13249 0.0
H952 H 0.12928 0.55507 0.14973 0.0
C953 C 0.0385 0.48802 0.17134 0.0
H954 H 0.08431 0.52994 0.09571 0.0
C955 C 0.06419 0.50256 0.2025 0.0
C956 C 0.09663 0.52819 0.1956 0.0
H957 H 1.01209 0.47158 0.17816 0.0
H958 H 0.05747 0.49596 0.23247 0.0
C959 C 0.10432 0.536 0.15625 0.0
C960 C 0.395 0.69723 0.2926 0.0
C961 C 0.37487 0.7329 0.29323 0.0
H962 H 0.43738 0.66695 0.32083 0.0
C963 C 0.37928 0.7635 0.32657 0.0
H964 H 0.39246 0.67323 0.26721 0.0
C965 C 0.40581 0.76065 0.35633 0.0
C966 C 0.42719 0.7259 0.35513 0.0
H967 H 0.3638 0.79102 0.32839 0.0
H968 H 0.41108 0.78694 0.37914 0.0
C969 C 0.42092 0.6938 0.32317 0.0
C970 C 0.03408 0.41826 0.03531 0.0
C971 C 1.01188 0.42435 0.06988 0.0
H972 H 0.04956 0.37611 0.98466 0.0
C973 C 0.99331 0.38927 0.08365 0.0
H974 H 0.04788 0.44487 0.02349 0.0
C975 C 0.99326 0.3499 0.06093 0.0
C976 C 1.01233 0.34447 0.02407 0.0
H977 H 0.97527 0.39322 0.10963 0.0
H978 H 0.97593 0.32436 0.07081 0.0
C979 C 0.03458 0.37877 1.01281 0.0
C980 C 0.58761 0.84898 0.28514 0.0
C981 C 0.62393 0.83555 0.27887 0.0
H982 H 0.53714 0.84627 0.3204 0.0
C983 C 0.63821 0.81004 0.30453 0.0
H984 H 0.57653 0.86915 0.26573 0.0
C985 C 0.61632 0.79747 0.33583 0.0
C986 C 0.57956 0.81011 0.34203 0.0
H987 H 0.66647 0.79999 0.30022 0.0
H988 H 0.62808 0.77729 0.35479 0.0
C989 C 0.56542 0.83622 0.3165 0.0
C990 C 0.06645 0.13002 0.03144 0.0
C991 C 0.04606 0.09111 0.02991 0.0
H992 H 0.06936 0.19123 1.01325 0.0
C993 C 1.01509 0.08269 1.00364 0.0
H994 H 0.08979 0.13783 0.0521 0.0
C995 C 1.00213 0.11376 0.98318 0.0
C996 C 0.02078 0.15366 0.98709 0.0
H997 H 0.99851 0.05323 1.00229 0.0
H998 H 0.97666 0.10696 0.96549 0.0
C999 C 0.05423 0.16082 1.00982 0.0
C1000 C 0.42836 0.35253 0.32184 0.0
C1001 C 0.39458 0.32864 0.32868 0.0
H1002 H 0.47741 0.36019 0.28471 0.0
C1003 C 0.3861 0.29167 0.30333 0.0
H1004 H 0.43528 0.38166 0.34056 0.0
C1005 C 0.40991 0.27958 0.2713 0.0
C1006 C 0.44293 0.30429 0.26317 0.0
H1007 H 0.35985 0.27339 0.30674 0.0
H1008 H 0.40164 0.25114 0.25205 0.0
C1009 C 0.45211 0.34072 0.28938 0.0
C1010 C 0.55717 0.42301 0.0546 0.0
C1011 C 0.56485 0.46418 0.07274 0.0
H1012 H 0.54042 0.35979 0.06208 0.0
C1013 C 0.5645 0.47178 0.11472 0.0
H1014 H 0.5564 0.41636 0.02236 0.0
C1015 C 0.55603 0.43893 0.1378 0.0
C1016 C 0.54603 0.39826 0.11922 0.0
H1017 H 0.56937 0.50326 0.1295 0.0
H1018 H 0.55571 0.44562 0.17002 0.0
C1019 C 0.54728 0.39078 0.07736 0.0
C1020 C 0.65106 0.22455 0.26507 0.0
C1021 C 0.64048 0.19996 0.29506 0.0
H1022 H 0.63253 0.2559 0.21752 0.0
C1023 C 0.60281 0.18468 0.29786 0.0
H1024 H 0.68019 0.23579 0.262 0.0
C1025 C 0.57573 0.19535 0.27216 0.0
C1026 C 0.58581 0.22206 0.24358 0.0
H1027 H 0.59428 0.16573 0.32092 0.0
H1028 H 0.54666 0.18376 0.27555 0.0
C1029 C 0.62385 0.2361 0.23987 0.0
C1030 C 0.49118 0.19365 1.01477 0.0
C1031 C 0.50584 0.15441 1.00953 0.0
H1032 H 0.48456 0.2495 0.05474 0.0
C1033 C 0.5343 0.14692 0.03577 0.0
H1034 H 0.47054 0.20114 0.99402 0.0
C1035 C 0.54424 0.17602 0.06919 0.0
C1036 C 0.52393 0.21137 0.07825 0.0
H1037 H 0.5467 0.11732 0.03217 0.0
H1038 H 0.56597 0.16958 0.08922 0.0
C1039 C 0.49893 0.22112 0.04963 0.0
C1040 C 0.26069 0.3893 0.76914 0.0
C1041 C 0.24238 0.39103 0.73286 0.0
H1042 H 0.30255 0.4175 0.8109 0.0
C1043 C 0.25796 0.4179 0.70676 0.0
H1044 H 0.24899 0.36893 0.78979 0.0
C1045 C 0.29034 0.44429 0.71799 0.0
C1046 C 0.30718 0.44413 0.75552 0.0
H1047 H 0.24386 0.42016 0.67895 0.0
H1048 H 0.30133 0.46587 0.69813 0.0
C1049 C 0.29167 0.41668 0.78099 0.0
C1050 C 0.28749 0.67822 0.84426 0.0
C1051 C 0.25416 0.66742 0.86421 0.0
H1052 H 0.3414 0.66005 0.82299 0.0
C1053 C 0.25201 0.63135 0.88304 0.0
H1054 H 0.2894 0.7055 0.82889 0.0
C1055 C 0.28137 0.60461 0.879 0.0
C1056 C 0.3136 0.61375 0.8563 0.0
H1057 H 0.2262 0.62206 0.89784 0.0
H1058 H 0.2777 0.57553 0.89141 0.0
C1059 C 0.31708 0.65193 0.84069 0.0
C1060 C 0.90901 0.50864 0.50673 0.0
C1061 C 0.90796 0.54163 0.484 0.0
H1062 H 0.87733 0.46025 0.53282 0.0
C1063 C 0.87333 0.55095 0.46929 0.0
H1064 H 0.93564 0.50097 0.51805 0.0
C1065 C 0.84013 0.52782 0.4775 0.0
C1066 C 0.84096 0.49521 0.50094 0.0
H1067 H 0.87214 0.57619 0.4515 0.0
H1068 H 0.81382 0.53501 0.46504 0.0
C1069 C 0.87571 0.486 0.51574 0.0
C1070 C 0.75434 0.90064 0.85111 0.0
C1071 C 0.78993 0.9167 0.86594 0.0
H1072 H 0.70087 0.91388 0.82908 0.0
C1073 C 0.79776 0.95988 0.87319 0.0
H1074 H 0.74796 0.86737 0.84505 0.0
C1075 C 0.77079 0.98665 0.86445 0.0
C1076 C 0.73571 0.97058 0.84778 0.0
H1077 H 0.82516 0.97272 0.88447 0.0
H1078 H 0.77813 1.01982 0.86896 0.0
C1079 C 0.72752 0.92728 0.84199 0.0
C1080 C 0.65976 0.52105 1.00921 0.0
C1081 C 0.62812 0.52721 0.0341 0.0
H1082 H 0.71382 0.54596 0.99033 0.0
C1083 C 0.63094 0.56092 0.06488 0.0
H1084 H 0.65926 0.49475 0.98606 0.0
C1085 C 0.66325 0.58915 0.06862 0.0
C1086 C 0.69248 0.5858 0.04027 0.0
H1087 H 0.60732 0.56672 0.08471 0.0
H1088 H 0.66457 0.61476 0.09256 0.0
C1089 C 0.69089 0.55063 1.01136 0.0
C1090 C 0.30425 0.64123 0.2199 0.0
C1091 C 0.31031 0.67798 0.24675 0.0
H1092 H 0.26876 0.58527 0.2031 0.0
C1093 C 0.28883 0.68218 0.28185 0.0
H1094 H 0.32102 0.63676 0.19302 0.0
C1095 C 0.25963 0.65225 0.28804 0.0
C1096 C 0.25016 0.61852 0.25851 0.0
H1097 H 0.29314 0.7098 0.30337 0.0
H1098 H 0.24381 0.6561 0.31557 0.0
C1099 C 0.27409 0.61209 0.22539 0.0
C1100 C 0.91991 0.54423 0.03015 0.0
C1101 C 0.93161 0.54277 0.06965 0.0
H1102 H 0.88119 0.56791 0.99159 0.0
C1103 C 0.91274 0.5655 0.10086 0.0
H1104 H 0.93418 0.52746 1.00543 0.0
C1105 C 0.88362 0.58982 0.09289 0.0
C1106 C 0.87162 0.59096 0.05354 0.0
H1107 H 0.9204 0.56425 0.13158 0.0
H1108 H 0.86985 0.60707 0.11775 0.0
C1109 C 0.88978 0.56754 0.02221 0.0
C1110 C 0.14365 0.03924 0.07234 0.0
C1111 C 0.10863 0.03328 0.0524 0.0
H1112 H 0.19909 1.01838 0.07761 0.0
C1113 C 0.10551 1.00496 0.01731 0.0
H1114 H 0.14684 0.06077 0.09955 0.0
C1115 C 0.13578 0.98109 1.00422 0.0
C1116 C 0.16942 0.98411 0.02664 0.0
H1117 H 0.07876 0.99904 1.00177 0.0
H1118 H 0.13196 0.9585 0.97785 0.0
C1119 C 0.17333 1.01443 0.0602 0.0
loop_
_geom_bond_atom_site_label_1
_geom_bond_atom_site_label_2
_geom_bond_distance
_geom_bond_site_symmetry_2
_ccdc_geom_bond_type
C0 N1 1.317 1_565 S
C0 N2 1.348 1_465 S
C0 C3 1.485 . S
N1 C0 1.317 1_545 S
N1 N5 1.370 . S
N2 C0 1.348 1_645 S
N2 C4 1.346 . S
C3 C0 1.485 . S
C3 H7 0.960 . S
C3 H8 0.961 . S
C3 H9 0.960 . S
C4 N2 1.346 . S
C4 N5 1.307 1_655 S
C4 C6 1.486 . S
N5 N1 1.370 . S
N5 C4 1.307 1_455 S
C6 C4 1.486 . S
C6 H10 0.960 . S
C6 H11 0.960 . S
C6 H12 0.959 . S
H7 C3 0.960 . S
H8 C3 0.961 . S
H9 C3 0.960 . S
H10 C6 0.960 . S
H11 C6 0.960 . S
H12 C6 0.959 . S
C13 N14 1.317 . S
C13 N15 1.348 . S
C13 C16 1.485 . S
N14 C13 1.317 . S
N14 N18 1.370 . S
N15 C13 1.348 . S
N15 C17 1.346 . S
C16 C13 1.485 . S
C16 H20 0.960 . S
C16 H21 0.961 . S
C16 H22 0.960 . S
C17 N15 1.346 . S
C17 N18 1.307 . S
C17 C19 1.486 . S
N18 N14 1.370 . S
N18 C17 1.307 . S
C19 C17 1.486 . S
C19 H23 0.960 . S
C19 H24 0.960 . S
C19 H25 0.959 . S
H20 C16 0.960 . S
H21 C16 0.961 . S
H22 C16 0.960 . S
H23 C19 0.960 . S
H24 C19 0.960 . S
H25 C19 0.959 . S
C26 N27 1.317 . S
C26 N28 1.348 . S
C26 C29 1.485 . S
N27 C26 1.317 . S
N27 N31 1.370 . S
N28 C26 1.348 . S
N28 C30 1.346 . S
C29 C26 1.485 . S
C29 H33 0.960 . S
C29 H34 0.961 . S
C29 H35 0.975 . S
C30 N28 1.346 . S
C30 N31 1.307 . S
C30 C32 1.486 1_554 S
N31 N27 1.370 . S
N31 C30 1.307 . S
C32 C30 1.486 1_556 S
C32 H36 0.960 . S
C32 H37 0.960 1_556 S
C32 H38 0.959 . S
H33 C29 0.960 . S
H34 C29 0.961 . S
H35 C29 0.975 . S
H36 C32 0.960 . S
H37 C32 0.960 1_554 S
H38 C32 0.959 . S
C39 N40 1.317 . S
C39 N41 1.348 . S
C39 C42 1.485 . S
N40 C39 1.317 . S
N40 N44 1.370 . S
N41 C39 1.348 . S
N41 C43 1.346 . S
C42 C39 1.485 . S
C42 H46 0.960 . S
C42 H47 0.961 . S
C42 H48 0.960 . S
C43 N41 1.346 . S
C43 N44 1.307 . S
C43 C45 1.486 . S
N44 N40 1.370 . S
N44 C43 1.307 . S
C45 C43 1.486 . S
C45 H49 0.960 . S
C45 H50 0.960 . S
C45 H51 0.959 . S
H46 C42 0.960 . S
H47 C42 0.961 . S
H48 C42 0.960 . S
H49 C45 0.960 . S
H50 C45 0.960 . S
H51 C45 0.959 . S
C52 N53 1.317 . S
C52 N54 1.348 . S
C52 C55 1.485 1_455 S
N53 C52 1.317 . S
N53 N57 1.370 1_565 S
N54 C52 1.348 . S
N54 C56 1.346 1_565 S
C55 C52 1.485 1_655 S
C55 H59 0.960 . S
C55 H60 0.961 . S
C55 H61 0.960 . S
C56 N54 1.346 1_545 S
C56 N57 1.307 . S
C56 C58 1.486 . S
N57 N53 1.370 1_545 S
N57 C56 1.307 . S
C58 C56 1.486 . S
C58 H62 0.960 . S
C58 H63 0.960 . S
C58 H64 0.959 . S
H59 C55 0.960 . S
H60 C55 0.961 . S
H61 C55 0.960 . S
H62 C58 0.960 . S
H63 C58 0.960 . S
H64 C58 0.959 . S
C65 N66 1.317 . S
C65 N67 1.348 . S
C65 C68 1.485 . S
N66 C65 1.317 . S
N66 N70 1.370 . S
N67 C65 1.348 . S
N67 C69 1.346 . S
C68 C65 1.485 . S
C68 H72 0.960 . S
C68 H73 0.961 . S
C68 H74 0.960 . S
C69 N67 1.346 . S
C69 N70 1.307 . S
C69 C71 1.486 . S
N70 N66 1.370 . S
N70 C69 1.307 . S
C71 C69 1.486 . S
C71 H75 0.960 . S
C71 H76 0.960 . S
C71 H77 0.959 . S
H72 C68 0.960 . S
H73 C68 0.961 . S
H74 C68 0.960 . S
H75 C71 0.960 . S
H76 C71 0.960 . S
H77 C71 0.959 . S
C78 N79 1.317 . S
C78 N80 1.348 . S
C78 C81 1.485 . S
N79 C78 1.317 . S
N79 N83 1.370 . S
N80 C78 1.348 . S
N80 C82 1.346 . S
C81 C78 1.485 . S
C81 H85 0.960 . S
C81 H86 0.961 . S
C81 H87 0.960 . S
C82 N80 1.346 . S
C82 N83 1.307 . S
C82 C84 1.486 . S
N83 N79 1.370 . S
N83 C82 1.307 . S
C84 C82 1.486 . S
C84 H88 0.960 . S
C84 H89 0.960 . S
C84 H90 0.959 . S
H85 C81 0.960 . S
H86 C81 0.961 . S
H87 C81 0.960 . S
H88 C84 0.960 . S
H89 C84 0.960 . S
H90 C84 0.959 . S
C91 N92 1.317 . S
C91 N93 1.348 . S
C91 C94 1.485 . S
N92 C91 1.317 . S
N92 N96 1.370 . S
N93 C91 1.348 . S
N93 C95 1.346 . S
C94 C91 1.485 . S
C94 H98 0.960 . S
C94 H99 0.961 . S
C94 H100 0.960 . S
C95 N93 1.346 . S
C95 N96 1.307 . S
C95 C97 1.486 . S
N96 N92 1.370 . S
N96 C95 1.307 . S
C97 C95 1.486 . S
C97 H101 0.960 . S
C97 H102 0.960 . S
C97 H103 0.959 . S
H98 C94 0.960 . S
H99 C94 0.961 . S
H100 C94 0.960 . S
H101 C97 0.960 . S
H102 C97 0.960 . S
H103 C97 0.959 . S
C104 N105 1.317 . S
C104 N106 1.348 . S
C104 C107 1.485 . S
N105 C104 1.317 . S
N105 N109 1.370 . S
N106 C104 1.348 . S
N106 C108 1.346 . S
C107 C104 1.485 . S
C107 H111 0.960 . S
C107 H112 0.961 . S
C107 H113 0.960 . S
C108 N106 1.346 . S
C108 N109 1.307 . S
C108 C110 1.486 . S
N109 N105 1.370 . S
N109 C108 1.307 . S
C110 C108 1.486 . S
C110 H114 0.960 . S
C110 H115 0.960 . S
C110 H116 0.959 . S
H111 C107 0.960 . S
H112 C107 0.961 . S
H113 C107 0.960 . S
H114 C110 0.960 . S
H115 C110 0.960 . S
H116 C110 0.959 . S
C117 N118 1.317 1_545 S
C117 N119 1.348 . S
C117 C120 1.485 . S
N118 C117 1.317 1_565 S
N118 N122 1.370 . S
N119 C117 1.348 . S
N119 C121 1.346 1_545 S
C120 C117 1.485 . S
C120 H124 0.960 . S
C120 H125 0.961 . S
C120 H126 0.960 . S
C121 N119 1.346 1_565 S
C121 N122 1.307 . S
C121 C123 1.486 . S
N122 N118 1.370 . S
N122 C121 1.307 . S
C123 C121 1.486 . S
C123 H127 0.960 . S
C123 H128 0.960 . S
C123 H129 0.959 . S
H124 C120 0.960 . S
H125 C120 0.961 . S
H126 C120 0.960 . S
H127 C123 0.960 . S
H128 C123 0.960 . S
H129 C123 0.959 . S
C130 N131 1.317 . S
C130 N132 1.348 . S
C130 C133 1.485 . S
N131 C130 1.317 . S
N131 N135 1.370 . S
N132 C130 1.348 . S
N132 C134 1.346 . S
C133 C130 1.485 . S
C133 H137 0.960 . S
C133 H138 0.961 . S
C133 H139 0.960 . S
C134 N132 1.346 . S
C134 N135 1.307 . S
C134 C136 1.486 . S
N135 N131 1.370 . S
N135 C134 1.307 . S
C136 C134 1.486 . S
C136 H140 0.960 . S
C136 H141 0.960 . S
C136 H142 0.959 . S
H137 C133 0.960 . S
H138 C133 0.961 . S
H139 C133 0.960 . S
H140 C136 0.960 . S
H141 C136 0.960 . S
H142 C136 0.959 . S
C143 N144 1.317 . S
C143 N145 1.348 . S
C143 C146 1.485 . S
N144 C143 1.317 . S
N144 N148 1.370 . S
N145 C143 1.348 . S
N145 C147 1.346 . S
C146 C143 1.485 . S
C146 H150 0.960 . S
C146 H151 0.961 . S
C146 H152 0.960 . S
C147 N145 1.346 . S
C147 N148 1.307 . S
C147 C149 1.486 . S
N148 N144 1.370 . S
N148 C147 1.307 . S
C149 C147 1.486 . S
C149 H153 0.960 . S
C149 H154 0.960 . S
C149 H155 0.959 . S
H150 C146 0.960 . S
H151 C146 0.961 . S
H152 C146 0.960 . S
H153 C149 0.960 . S
H154 C149 0.960 . S
H155 C149 0.959 . S
C156 N157 1.317 . S
C156 N158 1.348 . S
C156 C159 1.485 . S
N157 C156 1.317 . S
N157 N161 1.370 . S
N158 C156 1.348 . S
N158 C160 1.346 . S
C159 C156 1.485 . S
C159 H163 0.960 . S
C159 H164 0.961 . S
C159 H165 0.960 . S
C160 N158 1.346 . S
C160 N161 1.307 . S
C160 C162 1.486 . S
N161 N157 1.370 . S
N161 C160 1.307 . S
C162 C160 1.486 . S
C162 H166 0.960 . S
C162 H167 0.960 . S
C162 H168 0.959 . S
H163 C159 0.960 . S
H164 C159 0.961 . S
H165 C159 0.960 . S
H166 C162 0.960 . S
H167 C162 0.960 . S
H168 C162 0.959 . S
C169 N170 1.318 . S
C169 N171 1.348 . S
C169 C172 1.485 . S
N170 C169 1.318 . S
N170 N174 1.371 . S
N171 C169 1.348 . S
N171 C173 1.346 . S
C172 C169 1.485 . S
C172 H176 0.960 . S
C172 H177 0.961 . S
C172 H178 0.960 1_556 S
C173 N171 1.346 . S
C173 N174 1.307 . S
C173 C175 1.486 . S
N174 N170 1.371 . S
N174 C173 1.307 . S
C175 C173 1.486 . S
C175 H179 0.960 . S
C175 H180 0.960 . S
C175 H181 0.959 . S
H176 C172 0.960 . S
H177 C172 0.961 . S
H178 C172 0.960 1_554 S
H179 C175 0.960 . S
H180 C175 0.960 . S
H181 C175 0.959 . S
C182 N183 1.317 . S
C182 N184 1.348 . S
C182 C185 1.485 . S
N183 C182 1.317 . S
N183 N187 1.370 . S
N184 C182 1.348 . S
N184 C186 1.346 . S
C185 C182 1.485 . S
C185 H189 0.960 . S
C185 H190 0.961 . S
C185 H191 0.960 . S
C186 N184 1.346 . S
C186 N187 1.307 . S
C186 C188 1.486 . S
N187 N183 1.370 . S
N187 C186 1.307 . S
C188 C186 1.486 . S
C188 H192 0.960 . S
C188 H193 0.960 . S
C188 H194 0.959 . S
H189 C185 0.960 . S
H190 C185 0.961 . S
H191 C185 0.960 . S
H192 C188 0.960 . S
H193 C188 0.960 . S
H194 C188 0.959 . S
C195 N196 1.317 . S
C195 N197 1.348 . S
C195 C198 1.485 1_545 S
N196 C195 1.317 . S
N196 N200 1.370 1_556 S
N197 C195 1.348 . S
N197 C199 1.346 1_556 S
C198 C195 1.485 1_565 S
C198 H202 0.960 . S
C198 H203 0.961 . S
C198 H204 0.960 . S
C199 N197 1.346 1_554 S
C199 N200 1.307 . S
C199 C201 1.486 . S
N200 N196 1.370 1_554 S
N200 C199 1.307 . S
C201 C199 1.486 . S
C201 H205 0.960 . S
C201 H206 0.960 . S
C201 H207 0.959 . S
H202 C198 0.960 . S
H203 C198 0.961 . S
H204 C198 0.960 . S
H205 C201 0.960 . S
H206 C201 0.960 . S
H207 C201 0.959 . S
Mn208 O213 2.095 . S
Mn208 O223 2.162 . S
Mn208 O224 2.297 . S
Mn208 O232 2.385 . S
Mn208 O233 2.209 1_554 S
Mn208 O234 2.094 . S
Mn209 O214 2.121 . S
Mn209 N216 2.257 . S
Mn209 N225 2.282 . S
Mn209 O233 2.215 . S
Mn209 O235 2.117 . S
C210 O232 1.234 1_556 S
C210 O233 1.283 . S
C211 O223 1.281 . S
C211 O224 1.236 . S
C212 O234 1.240 . S
C212 O235 1.264 1_554 S
O213 Mn208 2.095 . S
O213 C222 1.250 . S
O214 Mn209 2.121 . S
O214 C222 1.258 1_556 S
C215 N216 1.326 . S
C215 C219 1.460 . S
C215 H221 0.929 . S
N216 Mn209 2.257 . S
N216 C215 1.326 . S
N216 C220 1.362 . S
C217 C218 1.258 . S
C217 C220 1.431 . S
C217 C237 1.449 . S
C218 C217 1.258 . S
C218 C219 1.477 . S
C218 H238 0.931 . S
C219 C215 1.460 . S
C219 C218 1.477 . S
C219 H239 0.930 . S
C220 N216 1.362 . S
C220 C217 1.431 . S
C220 C230 1.476 . S
H221 C215 0.929 . S
C222 O213 1.250 . S
C222 O214 1.258 1_554 S
O223 Mn208 2.162 . S
O223 C211 1.281 . S
O224 Mn208 2.297 . S
O224 C211 1.236 . S
N225 Mn209 2.282 . S
N225 C226 1.328 . S
N225 C230 1.318 . S
C226 N225 1.328 . S
C226 C227 1.457 . S
C226 H231 0.929 . S
C227 C226 1.457 . S
C227 C228 1.291 . S
C227 H240 0.931 . S
C228 C227 1.291 . S
C228 C229 1.373 . S
C228 H241 0.929 . S
C229 C228 1.373 . S
C229 C230 1.396 . S
C229 C236 1.403 . S
C230 C220 1.476 . S
C230 N225 1.318 . S
C230 C229 1.396 . S
H231 C226 0.929 . S
O232 Mn208 2.385 . S
O232 C210 1.234 1_554 S
O233 Mn208 2.209 1_556 S
O233 Mn209 2.215 . S
O233 C210 1.283 . S
O234 Mn208 2.094 . S
O234 C212 1.240 . S
O235 Mn209 2.117 . S
O235 C212 1.264 1_556 S
C236 C229 1.403 . S
C236 C237 1.399 . S
C236 H242 0.929 . S
C237 C217 1.449 . S
C237 C236 1.399 . S
C237 H243 0.930 . S
H238 C218 0.931 . S
H239 C219 0.930 . S
H240 C227 0.931 . S
H241 C228 0.929 . S
H242 C236 0.929 . S
H243 C237 0.930 . S
Mn244 O249 2.095 . S
Mn244 O259 2.162 . S
Mn244 O260 2.297 . S
Mn244 O268 2.385 . S
Mn244 O269 2.209 . S
Mn244 O270 2.094 . S
Mn245 O250 2.121 . S
Mn245 N252 2.257 . S
Mn245 N261 2.282 . S
Mn245 O269 2.215 . S
Mn245 O271 2.117 . S
C246 O268 1.234 . S
C246 O269 1.283 . S
C247 O259 1.281 . S
C247 O260 1.236 . S
C248 O270 1.240 . S
C248 O271 1.264 . S
O249 Mn244 2.095 . S
O249 C258 1.250 . S
O250 Mn245 2.121 . S
O250 C258 1.258 . S
C251 N252 1.326 . S
C251 C255 1.460 . S
C251 H257 0.929 . S
N252 Mn245 2.257 . S
N252 C251 1.326 . S
N252 C256 1.362 . S
C253 C254 1.258 . S
C253 C256 1.431 . S
C253 C273 1.449 . S
C254 C253 1.258 . S
C254 C255 1.477 . S
C254 H274 0.931 . S
C255 C251 1.460 . S
C255 C254 1.477 . S
C255 H275 0.930 . S
C256 N252 1.362 . S
C256 C253 1.431 . S
C256 C266 1.476 . S
H257 C251 0.929 . S
C258 O249 1.250 . S
C258 O250 1.258 . S
O259 Mn244 2.162 . S
O259 C247 1.281 . S
O260 Mn244 2.297 . S
O260 C247 1.236 . S
N261 Mn245 2.282 . S
N261 C262 1.328 . S
N261 C266 1.318 . S
C262 N261 1.328 . S
C262 C263 1.457 . S
C262 H267 0.929 . S
C263 C262 1.457 . S
C263 C264 1.291 . S
C263 H276 0.931 . S
C264 C263 1.291 . S
C264 C265 1.373 . S
C264 H277 0.929 . S
C265 C264 1.373 . S
C265 C266 1.396 . S
C265 C272 1.403 . S
C266 C256 1.476 . S
C266 N261 1.318 . S
C266 C265 1.396 . S
H267 C262 0.929 . S
O268 Mn244 2.385 . S
O268 C246 1.234 . S
O269 Mn244 2.209 . S
O269 Mn245 2.215 . S
O269 C246 1.283 . S
O270 Mn244 2.094 . S
O270 C248 1.240 . S
O271 Mn245 2.117 . S
O271 C248 1.264 . S
C272 C265 1.403 . S
C272 C273 1.399 . S
C272 H278 0.929 . S
C273 C253 1.449 . S
C273 C272 1.399 . S
C273 H279 0.930 . S
H274 C254 0.931 . S
H275 C255 0.930 . S
H276 C263 0.931 . S
H277 C264 0.929 . S
H278 C272 0.929 . S
H279 C273 0.930 . S
Mn280 O285 2.095 1_554 S
Mn280 O295 2.162 . S
Mn280 O296 2.297 1_554 S
Mn280 O304 2.385 . S
Mn280 O305 2.209 1_554 S
Mn280 O306 2.094 . S
Mn281 O286 2.121 . S
Mn281 N288 2.257 . S
Mn281 N297 2.282 1_556 S
Mn281 O305 2.215 . S
Mn281 O307 2.117 1_556 S
C282 O304 1.234 . S
C282 O305 1.283 1_554 S
C283 O295 1.281 . S
C283 O296 1.236 1_554 S
C284 O306 1.240 . S
C284 O307 1.264 . S
O285 Mn280 2.095 1_556 S
O285 C294 1.250 . S
O286 Mn281 2.121 . S
O286 C294 1.258 . S
C287 N288 1.326 . S
C287 C291 1.460 . S
C287 H293 0.929 . S
N288 Mn281 2.257 . S
N288 C287 1.326 . S
N288 C292 1.362 . S
C289 C290 1.258 . S
C289 C292 1.431 . S
C289 C309 1.449 . S
C290 C289 1.258 . S
C290 C291 1.477 . S
C290 H310 0.931 . S
C291 C287 1.460 . S
C291 C290 1.477 . S
C291 H311 0.930 . S
C292 N288 1.362 . S
C292 C289 1.431 . S
C292 C302 1.476 . S
H293 C287 0.929 . S
C294 O285 1.250 . S
C294 O286 1.258 . S
O295 Mn280 2.162 . S
O295 C283 1.281 . S
O296 Mn280 2.297 1_556 S
O296 C283 1.236 1_556 S
N297 Mn281 2.282 1_554 S
N297 C298 1.328 . S
N297 C302 1.318 1_554 S
C298 N297 1.328 . S
C298 C299 1.457 . S
C298 H303 0.929 . S
C299 C298 1.457 . S
C299 C300 1.291 . S
C299 H312 0.931 . S
C300 C299 1.291 . S
C300 C301 1.373 1_554 S
C300 H313 0.929 . S
C301 C300 1.373 1_556 S
C301 C302 1.396 . S
C301 C308 1.403 . S
C302 C292 1.476 . S
C302 N297 1.318 1_556 S
C302 C301 1.396 . S
H303 C298 0.929 . S
O304 Mn280 2.385 . S
O304 C282 1.234 . S
O305 Mn280 2.209 1_556 S
O305 Mn281 2.215 . S
O305 C282 1.283 1_556 S
O306 Mn280 2.094 . S
O306 C284 1.240 . S
O307 Mn281 2.117 1_554 S
O307 C284 1.264 . S
C308 C301 1.403 . S
C308 C309 1.399 . S
C308 H314 0.929 . S
C309 C289 1.449 . S
C309 C308 1.399 . S
C309 H315 0.930 . S
H310 C290 0.931 . S
H311 C291 0.930 . S
H312 C299 0.931 . S
H313 C300 0.929 . S
H314 C308 0.929 . S
H315 C309 0.930 . S
Mn316 O321 2.095 . S
Mn316 O331 2.162 . S
Mn316 O332 2.297 . S
Mn316 O340 2.385 1_545 S
Mn316 O341 2.209 1_545 S
Mn316 O342 2.094 . S
Mn317 O322 2.121 . S
Mn317 N324 2.257 . S
Mn317 N333 2.282 . S
Mn317 O341 2.215 . S
Mn317 O343 2.117 . S
C318 O340 1.234 . S
C318 O341 1.283 . S
C319 O331 1.281 . S
C319 O332 1.236 . S
C320 O342 1.240 . S
C320 O343 1.264 1_545 S
O321 Mn316 2.095 . S
O321 C330 1.250 . S
O322 Mn317 2.121 . S
O322 C330 1.258 1_565 S
C323 N324 1.326 . S
C323 C327 1.460 . S
C323 H329 0.929 . S
N324 Mn317 2.257 . S
N324 C323 1.326 . S
N324 C328 1.362 . S
C325 C326 1.258 . S
C325 C328 1.431 . S
C325 C345 1.449 . S
C326 C325 1.258 . S
C326 C327 1.477 . S
C326 H346 0.931 . S
C327 C323 1.460 . S
C327 C326 1.477 . S
C327 H347 0.930 . S
C328 N324 1.362 . S
C328 C325 1.431 . S
C328 C338 1.476 . S
H329 C323 0.929 . S
C330 O321 1.250 . S
C330 O322 1.258 1_545 S
O331 Mn316 2.162 . S
O331 C319 1.281 . S
O332 Mn316 2.297 . S
O332 C319 1.236 . S
N333 Mn317 2.282 . S
N333 C334 1.328 . S
N333 C338 1.318 . S
C334 N333 1.328 . S
C334 C335 1.457 . S
C334 H339 0.929 . S
C335 C334 1.457 . S
C335 C336 1.291 . S
C335 H348 0.931 . S
C336 C335 1.291 . S
C336 C337 1.373 . S
C336 H349 0.929 . S
C337 C336 1.373 . S
C337 C338 1.396 . S
C337 C344 1.403 . S
C338 C328 1.476 . S
C338 N333 1.318 . S
C338 C337 1.396 . S
H339 C334 0.929 . S
O340 Mn316 2.385 1_565 S
O340 C318 1.234 . S
O341 Mn316 2.209 1_565 S
O341 Mn317 2.215 . S
O341 C318 1.283 . S
O342 Mn316 2.094 . S
O342 C320 1.240 . S
O343 Mn317 2.117 . S
O343 C320 1.264 1_565 S
C344 C337 1.403 . S
C344 C345 1.399 . S
C344 H350 0.929 . S
C345 C325 1.449 . S
C345 C344 1.399 . S
C345 H351 0.930 . S
H346 C326 0.931 . S
H347 C327 0.930 . S
H348 C335 0.931 . S
H349 C336 0.929 . S
H350 C344 0.929 . S
H351 C345 0.930 . S
Mn352 O357 2.095 . S
Mn352 O367 2.162 . S
Mn352 O368 2.297 . S
Mn352 O376 2.385 . S
Mn352 O377 2.209 . S
Mn352 O378 2.094 . S
Mn353 O358 2.121 . S
Mn353 N360 2.257 . S
Mn353 N369 2.282 . S
Mn353 O377 2.215 . S
Mn353 O379 2.117 . S
C354 O376 1.234 . S
C354 O377 1.283 . S
C355 O367 1.281 . S
C355 O368 1.236 . S
C356 O378 1.240 . S
C356 O379 1.264 . S
O357 Mn352 2.095 . S
O357 C366 1.250 . S
O358 Mn353 2.121 . S
O358 C366 1.258 . S
C359 N360 1.326 . S
C359 C363 1.460 . S
C359 H365 0.929 . S
N360 Mn353 2.257 . S
N360 C359 1.326 . S
N360 C364 1.362 . S
C361 C362 1.258 . S
C361 C364 1.431 . S
C361 C381 1.449 . S
C362 C361 1.258 . S
C362 C363 1.477 . S
C362 H382 0.931 . S
C363 C359 1.460 . S
C363 C362 1.477 . S
C363 H383 0.930 . S
C364 N360 1.362 . S
C364 C361 1.431 . S
C364 C374 1.476 . S
H365 C359 0.929 . S
C366 O357 1.250 . S
C366 O358 1.258 . S
O367 Mn352 2.162 . S
O367 C355 1.281 . S
O368 Mn352 2.297 . S
O368 C355 1.236 . S
N369 Mn353 2.282 . S
N369 C370 1.328 . S
N369 C374 1.318 . S
C370 N369 1.328 . S
C370 C371 1.457 . S
C370 H375 0.929 . S
C371 C370 1.457 . S
C371 C372 1.291 . S
C371 H384 0.931 . S
C372 C371 1.291 . S
C372 C373 1.373 . S
C372 H385 0.929 . S
C373 C372 1.373 . S
C373 C374 1.396 . S
C373 C380 1.403 . S
C374 C364 1.476 . S
C374 N369 1.318 . S
C374 C373 1.396 . S
H375 C370 0.929 . S
O376 Mn352 2.385 . S
O376 C354 1.234 . S
O377 Mn352 2.209 . S
O377 Mn353 2.215 . S
O377 C354 1.283 . S
O378 Mn352 2.094 . S
O378 C356 1.240 . S
O379 Mn353 2.117 . S
O379 C356 1.264 . S
C380 C373 1.403 . S
C380 C381 1.399 . S
C380 H386 0.929 . S
C381 C361 1.449 . S
C381 C380 1.399 . S
C381 H387 0.930 . S
H382 C362 0.931 . S
H383 C363 0.930 . S
H384 C371 0.931 . S
H385 C372 0.929 . S
H386 C380 0.929 . S
H387 C381 0.930 . S
Mn388 O393 2.095 . S
Mn388 O403 2.162 . S
Mn388 O404 2.297 . S
Mn388 O412 2.385 . S
Mn388 O413 2.209 . S
Mn388 O414 2.094 . S
Mn389 O394 2.121 . S
Mn389 N396 2.257 . S
Mn389 N405 2.282 . S
Mn389 O413 2.215 . S
Mn389 O415 2.117 . S
C390 O412 1.234 . S
C390 O413 1.283 . S
C391 O403 1.281 . S
C391 O404 1.236 . S
C392 O414 1.240 . S
C392 O415 1.264 . S
O393 Mn388 2.095 . S
O393 C402 1.250 . S
O394 Mn389 2.121 . S
O394 C402 1.258 . S
C395 N396 1.326 . S
C395 C399 1.460 . S
C395 H401 0.929 . S
N396 Mn389 2.257 . S
N396 C395 1.326 . S
N396 C400 1.362 . S
C397 C398 1.258 . S
C397 C400 1.431 . S
C397 C417 1.449 . S
C398 C397 1.258 . S
C398 C399 1.477 . S
C398 H418 0.931 . S
C399 C395 1.460 . S
C399 C398 1.477 . S
C399 H419 0.930 . S
C400 N396 1.362 . S
C400 C397 1.431 . S
C400 C410 1.476 . S
H401 C395 0.929 . S
C402 O393 1.250 . S
C402 O394 1.258 . S
O403 Mn388 2.162 . S
O403 C391 1.281 . S
O404 Mn388 2.297 . S
O404 C391 1.236 . S
N405 Mn389 2.282 . S
N405 C406 1.328 . S
N405 C410 1.318 . S
C406 N405 1.328 . S
C406 C407 1.457 . S
C406 H411 0.929 . S
C407 C406 1.457 . S
C407 C408 1.291 . S
C407 H420 0.931 . S
C408 C407 1.291 . S
C408 C409 1.373 . S
C408 H421 0.929 . S
C409 C408 1.373 . S
C409 C410 1.396 . S
C409 C416 1.403 . S
C410 C400 1.476 . S
C410 N405 1.318 . S
C410 C409 1.396 . S
H411 C406 0.929 . S
O412 Mn388 2.385 . S
O412 C390 1.234 . S
O413 Mn388 2.209 . S
O413 Mn389 2.215 . S
O413 C390 1.283 . S
O414 Mn388 2.094 . S
O414 C392 1.240 . S
O415 Mn389 2.117 . S
O415 C392 1.264 . S
C416 C409 1.403 . S
C416 C417 1.399 . S
C416 H422 0.929 . S
C417 C397 1.449 . S
C417 C416 1.399 . S
C417 H423 0.930 . S
H418 C398 0.931 . S
H419 C399 0.930 . S
H420 C407 0.931 . S
H421 C408 0.929 . S
H422 C416 0.929 . S
H423 C417 0.930 . S
Mn424 O429 2.095 . S
Mn424 O439 2.162 . S
Mn424 O440 2.297 . S
Mn424 O448 2.385 . S
Mn424 O449 2.209 . S
Mn424 O450 2.094 . S
Mn425 O430 2.121 . S
Mn425 N432 2.257 . S
Mn425 N441 2.282 . S
Mn425 O449 2.215 . S
Mn425 O451 2.117 . S
C426 O448 1.234 . S
C426 O449 1.283 . S
C427 O439 1.281 . S
C427 O440 1.236 . S
C428 O450 1.240 . S
C428 O451 1.264 . S
O429 Mn424 2.095 . S
O429 C438 1.250 . S
O430 Mn425 2.121 . S
O430 C438 1.258 . S
C431 N432 1.326 . S
C431 C435 1.460 . S
C431 H437 0.929 . S
N432 Mn425 2.257 . S
N432 C431 1.326 . S
N432 C436 1.362 . S
C433 C434 1.258 . S
C433 C436 1.431 . S
C433 C453 1.449 . S
C434 C433 1.258 . S
C434 C435 1.477 . S
C434 H454 0.931 . S
C435 C431 1.460 . S
C435 C434 1.477 . S
C435 H455 0.930 . S
C436 N432 1.362 . S
C436 C433 1.431 . S
C436 C446 1.476 . S
H437 C431 0.929 . S
C438 O429 1.250 . S
C438 O430 1.258 . S
O439 Mn424 2.162 . S
O439 C427 1.281 . S
O440 Mn424 2.297 . S
O440 C427 1.236 . S
N441 Mn425 2.282 . S
N441 C442 1.328 . S
N441 C446 1.318 . S
C442 N441 1.328 . S
C442 C443 1.457 . S
C442 H447 0.929 . S
C443 C442 1.457 . S
C443 C444 1.291 . S
C443 H456 0.931 . S
C444 C443 1.291 . S
C444 C445 1.373 . S
C444 H457 0.929 . S
C445 C444 1.373 . S
C445 C446 1.396 . S
C445 C452 1.403 . S
C446 C436 1.476 . S
C446 N441 1.318 . S
C446 C445 1.396 . S
H447 C442 0.929 . S
O448 Mn424 2.385 . S
O448 C426 1.234 . S
O449 Mn424 2.209 . S
O449 Mn425 2.215 . S
O449 C426 1.283 . S
O450 Mn424 2.094 . S
O450 C428 1.240 . S
O451 Mn425 2.117 . S
O451 C428 1.264 . S
C452 C445 1.403 . S
C452 C453 1.399 . S
C452 H458 0.929 . S
C453 C433 1.449 . S
C453 C452 1.399 . S
C453 H459 0.930 . S
H454 C434 0.931 . S
H455 C435 0.930 . S
H456 C443 0.931 . S
H457 C444 0.929 . S
H458 C452 0.929 . S
H459 C453 0.930 . S
Mn460 O465 2.095 . S
Mn460 O475 2.162 1_545 S
Mn460 O476 2.298 . S
Mn460 O484 2.385 . S
Mn460 O485 2.209 . S
Mn460 O486 2.094 1_545 S
Mn461 O466 2.121 . S
Mn461 N468 2.257 . S
Mn461 N477 2.282 . S
Mn461 O485 2.215 . S
Mn461 O487 2.117 . S
C462 O484 1.234 . S
C462 O485 1.283 . S
C463 O475 1.281 . S
C463 O476 1.233 1_565 S
C464 O486 1.240 1_545 S
C464 O487 1.264 . S
O465 Mn460 2.095 . S
O465 C474 1.250 . S
O466 Mn461 2.121 . S
O466 C474 1.258 . S
C467 N468 1.326 . S
C467 C471 1.460 . S
C467 H473 0.929 . S
N468 Mn461 2.257 . S
N468 C467 1.326 . S
N468 C472 1.362 . S
C469 C470 1.258 . S
C469 C472 1.431 . S
C469 C489 1.449 . S
C470 C469 1.258 . S
C470 C471 1.477 . S
C470 H490 0.931 . S
C471 C467 1.460 . S
C471 C470 1.477 . S
C471 H491 0.930 . S
C472 N468 1.362 . S
C472 C469 1.431 . S
C472 C482 1.476 . S
H473 C467 0.929 . S
C474 O465 1.250 . S
C474 O466 1.258 . S
O475 Mn460 2.162 1_565 S
O475 C463 1.281 . S
O476 Mn460 2.298 . S
O476 C463 1.233 1_545 S
N477 Mn461 2.282 . S
N477 C478 1.328 . S
N477 C482 1.318 . S
C478 N477 1.328 . S
C478 C479 1.457 . S
C478 H483 0.929 . S
C479 C478 1.457 . S
C479 C480 1.291 . S
C479 H492 0.931 . S
C480 C479 1.291 . S
C480 C481 1.373 . S
C480 H493 0.929 . S
C481 C480 1.373 . S
C481 C482 1.396 . S
C481 C488 1.403 . S
C482 C472 1.476 . S
C482 N477 1.318 . S
C482 C481 1.396 . S
H483 C478 0.929 . S
O484 Mn460 2.385 . S
O484 C462 1.234 . S
O485 Mn460 2.209 . S
O485 Mn461 2.215 . S
O485 C462 1.283 . S
O486 Mn460 2.094 1_565 S
O486 C464 1.240 1_565 S
O487 Mn461 2.117 . S
O487 C464 1.264 . S
C488 C481 1.403 . S
C488 C489 1.399 . S
C488 H494 0.929 . S
C489 C469 1.449 . S
C489 C488 1.399 . S
C489 H495 0.930 . S
H490 C470 0.931 . S
H491 C471 0.930 . S
H492 C479 0.931 . S
H493 C480 0.929 . S
H494 C488 0.929 . S
H495 C489 0.930 . S
Mn496 O501 2.095 . S
Mn496 O511 2.162 . S
Mn496 O512 2.297 . S
Mn496 O520 2.385 1_455 S
Mn496 O521 2.209 1_455 S
Mn496 O522 2.094 . S
Mn497 O502 2.121 . S
Mn497 N504 2.257 . S
Mn497 N513 2.282 . S
Mn497 O521 2.215 . S
Mn497 O523 2.117 . S
C498 O520 1.234 . S
C498 O521 1.283 . S
C499 O511 1.281 . S
C499 O512 1.236 . S
C500 O522 1.235 1_655 S
C500 O523 1.270 . S
O501 Mn496 2.095 . S
O501 C510 1.250 1_455 S
O502 Mn497 2.121 . S
O502 C510 1.258 . S
C503 N504 1.326 . S
C503 C507 1.460 . S
C503 H509 0.929 . S
N504 Mn497 2.257 . S
N504 C503 1.326 . S
N504 C508 1.362 . S
C505 C506 1.258 . S
C505 C508 1.431 . S
C505 C525 1.449 . S
C506 C505 1.258 . S
C506 C507 1.477 . S
C506 H526 0.931 . S
C507 C503 1.460 . S
C507 C506 1.477 . S
C507 H527 0.930 . S
C508 N504 1.362 . S
C508 C505 1.431 . S
C508 C518 1.476 . S
H509 C503 0.929 . S
C510 O501 1.250 1_655 S
C510 O502 1.258 . S
O511 Mn496 2.162 . S
O511 C499 1.281 . S
O512 Mn496 2.297 . S
O512 C499 1.236 . S
N513 Mn497 2.282 . S
N513 C514 1.328 . S
N513 C518 1.318 . S
C514 N513 1.328 . S
C514 C515 1.457 . S
C514 H519 0.929 . S
C515 C514 1.457 . S
C515 C516 1.291 . S
C515 H528 0.931 . S
C516 C515 1.291 . S
C516 C517 1.373 . S
C516 H529 0.929 . S
C517 C516 1.373 . S
C517 C518 1.396 . S
C517 C524 1.403 . S
C518 C508 1.476 . S
C518 N513 1.318 . S
C518 C517 1.396 . S
H519 C514 0.929 . S
O520 Mn496 2.385 1_655 S
O520 C498 1.234 . S
O521 Mn496 2.209 1_655 S
O521 Mn497 2.215 . S
O521 C498 1.283 . S
O522 Mn496 2.094 . S
O522 C500 1.235 1_455 S
O523 Mn497 2.117 . S
O523 C500 1.270 . S
C524 C517 1.403 . S
C524 C525 1.399 . S
C524 H530 0.929 . S
C525 C505 1.449 . S
C525 C524 1.399 . S
C525 H531 0.930 . S
H526 C506 0.931 . S
H527 C507 0.930 . S
H528 C515 0.931 . S
H529 C516 0.929 . S
H530 C524 0.929 . S
H531 C525 0.930 . S
Mn532 O537 2.095 . S
Mn532 O547 2.162 . S
Mn532 O548 2.297 . S
Mn532 O556 2.385 . S
Mn532 O557 2.209 . S
Mn532 O558 2.094 . S
Mn533 O538 2.121 . S
Mn533 N540 2.257 . S
Mn533 N549 2.282 . S
Mn533 O557 2.215 . S
Mn533 O559 2.117 . S
C534 O556 1.234 . S
C534 O557 1.283 . S
C535 O547 1.281 . S
C535 O548 1.236 . S
C536 O558 1.240 . S
C536 O559 1.264 . S
O537 Mn532 2.095 . S
O537 C546 1.250 . S
O538 Mn533 2.121 . S
O538 C546 1.258 . S
C539 N540 1.326 . S
C539 C543 1.460 . S
C539 H545 0.929 . S
N540 Mn533 2.257 . S
N540 C539 1.326 . S
N540 C544 1.362 . S
C541 C542 1.258 . S
C541 C544 1.431 . S
C541 C561 1.449 . S
C542 C541 1.258 . S
C542 C543 1.477 . S
C542 H562 0.931 . S
C543 C539 1.460 . S
C543 C542 1.477 . S
C543 H563 0.930 . S
C544 N540 1.362 . S
C544 C541 1.431 . S
C544 C554 1.476 . S
H545 C539 0.929 . S
C546 O537 1.250 . S
C546 O538 1.258 . S
O547 Mn532 2.162 . S
O547 C535 1.281 . S
O548 Mn532 2.297 . S
O548 C535 1.236 . S
N549 Mn533 2.282 . S
N549 C550 1.328 . S
N549 C554 1.318 . S
C550 N549 1.328 . S
C550 C551 1.457 . S
C550 H555 0.929 . S
C551 C550 1.457 . S
C551 C552 1.291 . S
C551 H564 0.931 . S
C552 C551 1.291 . S
C552 C553 1.373 . S
C552 H565 0.929 . S
C553 C552 1.373 . S
C553 C554 1.396 . S
C553 C560 1.403 . S
C554 C544 1.476 . S
C554 N549 1.318 . S
C554 C553 1.396 . S
H555 C550 0.929 . S
O556 Mn532 2.385 . S
O556 C534 1.234 . S
O557 Mn532 2.209 . S
O557 Mn533 2.215 . S
O557 C534 1.283 . S
O558 Mn532 2.094 . S
O558 C536 1.240 . S
O559 Mn533 2.117 . S
O559 C536 1.264 . S
C560 C553 1.403 . S
C560 C561 1.399 . S
C560 H566 0.929 . S
C561 C541 1.449 . S
C561 C560 1.399 . S
C561 H567 0.930 . S
H562 C542 0.931 . S
H563 C543 0.930 . S
H564 C551 0.931 . S
H565 C552 0.929 . S
H566 C560 0.929 . S
H567 C561 0.930 . S
Mn568 O573 2.095 . S
Mn568 O583 2.162 . S
Mn568 O584 2.297 . S
Mn568 O592 2.385 . S
Mn568 O593 2.209 1_455 S
Mn568 O594 2.094 . S
Mn569 O574 2.121 . S
Mn569 N576 2.257 . S
Mn569 N585 2.282 1_655 S
Mn569 O593 2.215 . S
Mn569 O595 2.117 1_655 S
C570 O592 1.234 . S
C570 O593 1.283 1_455 S
C571 O583 1.281 . S
C571 O584 1.236 . S
C572 O594 1.240 . S
C572 O595 1.264 . S
O573 Mn568 2.095 . S
O573 C582 1.250 1_455 S
O574 Mn569 2.121 . S
O574 C582 1.258 . S
C575 N576 1.326 . S
C575 C579 1.460 . S
C575 H581 0.929 . S
N576 Mn569 2.257 . S
N576 C575 1.326 . S
N576 C580 1.362 . S
C577 C578 1.258 . S
C577 C580 1.431 . S
C577 C597 1.449 . S
C578 C577 1.258 . S
C578 C579 1.477 . S
C578 H598 0.931 . S
C579 C575 1.460 . S
C579 C578 1.477 . S
C579 H599 0.930 . S
C580 N576 1.362 . S
C580 C577 1.431 . S
C580 C590 1.476 . S
H581 C575 0.929 . S
C582 O573 1.250 1_655 S
C582 O574 1.258 . S
O583 Mn568 2.162 . S
O583 C571 1.281 . S
O584 Mn568 2.297 . S
O584 C571 1.236 . S
N585 Mn569 2.282 1_455 S
N585 C586 1.328 . S
N585 C590 1.318 1_455 S
C586 N585 1.328 . S
C586 C587 1.457 . S
C586 H591 0.929 . S
C587 C586 1.457 . S
C587 C588 1.291 . S
C587 H600 0.931 . S
C588 C587 1.291 . S
C588 C589 1.373 1_455 S
C588 H601 0.929 . S
C589 C588 1.373 1_655 S
C589 C590 1.396 . S
C589 C596 1.403 . S
C590 C580 1.476 . S
C590 N585 1.318 1_655 S
C590 C589 1.396 . S
H591 C586 0.929 . S
O592 Mn568 2.385 . S
O592 C570 1.234 . S
O593 Mn568 2.209 1_655 S
O593 Mn569 2.215 . S
O593 C570 1.283 1_655 S
O594 Mn568 2.094 . S
O594 C572 1.240 . S
O595 Mn569 2.117 1_455 S
O595 C572 1.264 . S
C596 C589 1.403 . S
C596 C597 1.399 . S
C596 H602 0.929 . S
C597 C577 1.449 . S
C597 C596 1.399 . S
C597 H603 0.930 . S
H598 C578 0.931 . S
H599 C579 0.930 . S
H600 C587 0.931 . S
H601 C588 0.929 . S
H602 C596 0.929 . S
H603 C597 0.930 . S
Mn604 O609 2.095 . S
Mn604 O619 2.162 . S
Mn604 O620 2.297 . S
Mn604 O628 2.385 . S
Mn604 O629 2.209 . S
Mn604 O630 2.094 . S
Mn605 O610 2.121 . S
Mn605 N612 2.257 . S
Mn605 N621 2.282 . S
Mn605 O629 2.215 . S
Mn605 O631 2.117 . S
C606 O628 1.234 . S
C606 O629 1.283 . S
C607 O619 1.281 . S
C607 O620 1.236 . S
C608 O630 1.240 . S
C608 O631 1.264 . S
O609 Mn604 2.095 . S
O609 C618 1.250 . S
O610 Mn605 2.121 . S
O610 C618 1.258 . S
C611 N612 1.326 . S
C611 C615 1.460 . S
C611 H617 0.929 . S
N612 Mn605 2.257 . S
N612 C611 1.326 . S
N612 C616 1.362 . S
C613 C614 1.258 . S
C613 C616 1.431 . S
C613 C633 1.449 . S
C614 C613 1.258 . S
C614 C615 1.477 . S
C614 H634 0.931 . S
C615 C611 1.460 . S
C615 C614 1.477 . S
C615 H635 0.930 . S
C616 N612 1.362 . S
C616 C613 1.431 . S
C616 C626 1.476 . S
H617 C611 0.929 . S
C618 O609 1.250 . S
C618 O610 1.258 . S
O619 Mn604 2.162 . S
O619 C607 1.281 . S
O620 Mn604 2.297 . S
O620 C607 1.236 . S
N621 Mn605 2.282 . S
N621 C622 1.328 . S
N621 C626 1.318 . S
C622 N621 1.328 . S
C622 C623 1.457 . S
C622 H627 0.929 . S
C623 C622 1.457 . S
C623 C624 1.291 . S
C623 H636 0.931 . S
C624 C623 1.291 . S
C624 C625 1.373 . S
C624 H637 0.929 . S
C625 C624 1.373 . S
C625 C626 1.396 . S
C625 C632 1.403 . S
C626 C616 1.476 . S
C626 N621 1.318 . S
C626 C625 1.396 . S
H627 C622 0.929 . S
O628 Mn604 2.385 . S
O628 C606 1.234 . S
O629 Mn604 2.209 . S
O629 Mn605 2.215 . S
O629 C606 1.283 . S
O630 Mn604 2.094 . S
O630 C608 1.240 . S
O631 Mn605 2.117 . S
O631 C608 1.264 . S
C632 C625 1.403 . S
C632 C633 1.399 . S
C632 H638 0.929 . S
C633 C613 1.449 . S
C633 C632 1.399 . S
C633 H639 0.930 . S
H634 C614 0.931 . S
H635 C615 0.930 . S
H636 C623 0.931 . S
H637 C624 0.929 . S
H638 C632 0.929 . S
H639 C633 0.930 . S
C640 C641 1.387 . S
C640 H644 0.950 . S
C640 C649 1.390 . S
C641 C640 1.387 . S
C641 C643 1.387 . S
H642 C649 0.950 . S
C643 C641 1.387 . S
C643 C645 1.390 . S
C643 H647 0.950 . S
H644 C640 0.950 . S
C645 C643 1.390 . S
C645 C646 1.387 . S
C645 H648 0.950 . S
C646 C645 1.387 . S
C646 C649 1.387 . S
H647 C643 0.950 . S
H648 C645 0.950 . S
C649 C640 1.390 . S
C649 H642 0.950 . S
C649 C646 1.387 . S
C650 C651 1.387 . S
C650 H654 0.950 . S
C650 C659 1.390 . S
C651 C650 1.387 . S
C651 C653 1.387 . S
H652 C659 0.950 . S
C653 C651 1.387 . S
C653 C655 1.390 . S
C653 H657 0.950 . S
H654 C650 0.950 . S
C655 C653 1.390 . S
C655 C656 1.387 . S
C655 H658 0.950 . S
C656 C655 1.387 . S
C656 C659 1.387 . S
H657 C653 0.950 . S
H658 C655 0.950 . S
C659 C650 1.390 . S
C659 H652 0.950 . S
C659 C656 1.387 . S
C660 C661 1.387 . S
C660 H664 0.950 . S
C660 C669 1.390 . S
C661 C660 1.387 . S
C661 C663 1.387 . S
H662 C669 0.950 . S
C663 C661 1.387 . S
C663 C665 1.390 . S
C663 H667 0.950 . S
H664 C660 0.950 . S
C665 C663 1.390 . S
C665 C666 1.387 . S
C665 H668 0.950 . S
C666 C665 1.387 . S
C666 C669 1.387 . S
H667 C663 0.950 . S
H668 C665 0.950 . S
C669 C660 1.390 . S
C669 H662 0.950 . S
C669 C666 1.387 . S
C670 C671 1.399 . S
C670 H674 0.950 . S
C670 C679 1.390 . S
C671 C670 1.399 . S
C671 C673 1.370 1_565 S
H672 C679 0.950 . S
C673 C671 1.370 1_545 S
C673 C675 1.390 . S
C673 H677 0.950 . S
H674 C670 0.950 . S
C675 C673 1.390 . S
C675 C676 1.387 . S
C675 H678 0.950 . S
C676 C675 1.387 . S
C676 C679 1.387 1_545 S
H677 C673 0.950 . S
H678 C675 0.950 . S
C679 C670 1.390 . S
C679 H672 0.950 . S
C679 C676 1.387 1_565 S
C680 C681 1.387 . S
C680 H684 0.950 . S
C680 C689 1.390 . S
C681 C680 1.387 . S
C681 C683 1.387 . S
H682 C689 0.950 . S
C683 C681 1.387 . S
C683 C685 1.390 . S
C683 H687 0.950 . S
H684 C680 0.950 . S
C685 C683 1.390 . S
C685 C686 1.387 . S
C685 H688 0.950 . S
C686 C685 1.387 . S
C686 C689 1.387 . S
H687 C683 0.950 . S
H688 C685 0.950 . S
C689 C680 1.390 . S
C689 H682 0.950 . S
C689 C686 1.387 . S
C690 C691 1.387 . S
C690 H694 0.950 . S
C690 C699 1.390 . S
C691 C690 1.387 . S
C691 C693 1.387 . S
H692 C699 0.950 . S
C693 C691 1.387 . S
C693 C695 1.390 . S
C693 H697 0.950 . S
H694 C690 0.950 . S
C695 C693 1.390 . S
C695 C696 1.387 . S
C695 H698 0.950 . S
C696 C695 1.387 . S
C696 C699 1.387 . S
H697 C693 0.950 . S
H698 C695 0.950 . S
C699 C690 1.390 . S
C699 H692 0.950 . S
C699 C696 1.387 . S
C700 C701 1.387 . S
C700 H704 0.950 . S
C700 C709 1.390 . S
C701 C700 1.387 . S
C701 C703 1.387 . S
H702 C709 0.950 . S
C703 C701 1.387 . S
C703 C705 1.390 . S
C703 H707 0.950 . S
H704 C700 0.950 . S
C705 C703 1.390 . S
C705 C706 1.387 . S
C705 H708 0.950 . S
C706 C705 1.387 . S
C706 C709 1.387 . S
H707 C703 0.950 . S
H708 C705 0.950 . S
C709 C700 1.390 . S
C709 H702 0.950 . S
C709 C706 1.387 . S
C710 C711 1.387 1_545 S
C710 H714 0.950 . S
C710 C719 1.390 . S
C711 C710 1.387 1_565 S
C711 C713 1.387 . S
H712 C719 0.950 . S
C713 C711 1.387 . S
C713 C715 1.390 . S
C713 H717 0.950 . S
H714 C710 0.950 . S
C715 C713 1.390 . S
C715 C716 1.387 . S
C715 H718 0.950 . S
C716 C715 1.387 . S
C716 C719 1.387 1_565 S
H717 C713 0.950 . S
H718 C715 0.950 . S
C719 C710 1.390 . S
C719 H712 0.950 . S
C719 C716 1.387 1_545 S
C720 C721 1.387 . S
C720 H724 0.950 . S
C720 C729 1.390 . S
C721 C720 1.387 . S
C721 C723 1.387 . S
H722 C729 0.950 . S
C723 C721 1.387 . S
C723 C725 1.390 . S
C723 H727 0.950 . S
H724 C720 0.950 . S
C725 C723 1.390 . S
C725 C726 1.387 . S
C725 H728 0.950 . S
C726 C725 1.387 . S
C726 C729 1.387 . S
H727 C723 0.950 . S
H728 C725 0.950 . S
C729 C720 1.390 . S
C729 H722 0.950 . S
C729 C726 1.387 . S
C730 C731 1.387 . S
C730 H734 0.950 . S
C730 C739 1.390 . S
C731 C730 1.387 . S
C731 C733 1.387 . S
H732 C739 0.950 . S
C733 C731 1.387 . S
C733 C735 1.390 . S
C733 H737 0.950 . S
H734 C730 0.950 . S
C735 C733 1.390 . S
C735 C736 1.387 . S
C735 H738 0.950 . S
C736 C735 1.387 . S
C736 C739 1.387 . S
H737 C733 0.950 . S
H738 C735 0.950 . S
C739 C730 1.390 . S
C739 H732 0.950 . S
C739 C736 1.387 . S
C740 C741 1.387 . S
C740 H744 0.950 . S
C740 C749 1.390 . S
C741 C740 1.387 . S
C741 C743 1.387 . S
H742 C749 0.950 . S
C743 C741 1.387 . S
C743 C745 1.390 . S
C743 H747 0.950 . S
H744 C740 0.950 . S
C745 C743 1.390 . S
C745 C746 1.387 . S
C745 H748 0.950 . S
C746 C745 1.387 . S
C746 C749 1.387 . S
H747 C743 0.950 . S
H748 C745 0.950 . S
C749 C740 1.390 . S
C749 H742 0.950 . S
C749 C746 1.387 . S
C750 C751 1.387 . S
C750 H754 0.950 . S
C750 C759 1.390 . S
C751 C750 1.387 . S
C751 C753 1.387 . S
H752 C759 0.950 . S
C753 C751 1.387 . S
C753 C755 1.390 . S
C753 H757 0.950 . S
H754 C750 0.950 . S
C755 C753 1.390 . S
C755 C756 1.387 . S
C755 H758 0.950 . S
C756 C755 1.387 . S
C756 C759 1.387 . S
H757 C753 0.950 . S
H758 C755 0.950 . S
C759 C750 1.390 . S
C759 H752 0.950 . S
C759 C756 1.387 . S
C760 C761 1.387 . S
C760 H764 0.950 . S
C760 C769 1.390 . S
C761 C760 1.387 . S
C761 C763 1.387 . S
H762 C769 0.950 . S
C763 C761 1.387 . S
C763 C765 1.390 . S
C763 H767 0.950 . S
H764 C760 0.950 . S
C765 C763 1.390 . S
C765 C766 1.387 . S
C765 H768 0.950 . S
C766 C765 1.387 . S
C766 C769 1.387 . S
H767 C763 0.950 . S
H768 C765 0.950 . S
C769 C760 1.390 . S
C769 H762 0.950 . S
C769 C766 1.387 . S
C770 C771 1.387 . S
C770 H774 0.950 . S
C770 C779 1.390 . S
C771 C770 1.387 . S
C771 C773 1.387 . S
H772 C779 0.950 . S
C773 C771 1.387 . S
C773 C775 1.390 . S
C773 H777 0.950 1_455 S
H774 C770 0.950 . S
C775 C773 1.390 . S
C775 C776 1.387 . S
C775 H778 0.950 1_455 S
C776 C775 1.387 . S
C776 C779 1.387 . S
H777 C773 0.950 1_655 S
H778 C775 0.950 1_655 S
C779 C770 1.390 . S
C779 H772 0.950 . S
C779 C776 1.387 . S
C780 C781 1.387 . S
C780 H784 0.950 . S
C780 C789 1.390 . S
C781 C780 1.387 . S
C781 C783 1.387 . S
H782 C789 0.950 . S
C783 C781 1.387 . S
C783 C785 1.390 . S
C783 H787 0.950 . S
H784 C780 0.950 . S
C785 C783 1.390 . S
C785 C786 1.387 . S
C785 H788 0.950 . S
C786 C785 1.387 . S
C786 C789 1.387 . S
H787 C783 0.950 . S
H788 C785 0.950 . S
C789 C780 1.390 . S
C789 H782 0.950 . S
C789 C786 1.387 . S
C790 C791 1.387 . S
C790 H794 0.950 . S
C790 C799 1.390 . S
C791 C790 1.387 . S
C791 C793 1.387 1_655 S
H792 C799 0.950 . S
C793 C791 1.387 1_455 S
C793 C795 1.390 . S
C793 H797 0.950 . S
H794 C790 0.950 . S
C795 C793 1.390 . S
C795 C796 1.387 . S
C795 H798 0.950 . S
C796 C795 1.387 . S
C796 C799 1.387 1_455 S
H797 C793 0.950 . S
H798 C795 0.950 . S
C799 C790 1.390 . S
C799 H792 0.950 . S
C799 C796 1.387 1_655 S
C800 C801 1.387 . S
C800 H804 0.950 . S
C800 C809 1.390 . S
C801 C800 1.387 . S
C801 C803 1.387 . S
H802 C809 0.950 . S
C803 C801 1.387 . S
C803 C805 1.390 . S
C803 H807 0.950 . S
H804 C800 0.950 . S
C805 C803 1.390 . S
C805 C806 1.387 . S
C805 H808 0.950 . S
C806 C805 1.387 . S
C806 C809 1.387 . S
H807 C803 0.950 . S
H808 C805 0.950 . S
C809 C800 1.390 . S
C809 H802 0.950 . S
C809 C806 1.387 . S
C810 C811 1.387 . S
C810 H814 0.950 . S
C810 C819 1.390 . S
C811 C810 1.387 . S
C811 C813 1.387 . S
H812 C819 0.950 . S
C813 C811 1.387 . S
C813 C815 1.390 . S
C813 H817 0.950 . S
H814 C810 0.950 . S
C815 C813 1.390 . S
C815 C816 1.387 . S
C815 H818 0.950 . S
C816 C815 1.387 . S
C816 C819 1.387 . S
H817 C813 0.950 . S
H818 C815 0.950 . S
C819 C810 1.390 . S
C819 H812 0.950 . S
C819 C816 1.387 . S
C820 C821 1.387 1_544 S
C820 H824 0.950 . S
C820 C829 1.390 1_545 S
C821 C820 1.387 1_566 S
C821 C823 1.387 . S
H822 C829 0.950 1_545 S
C823 C821 1.387 . S
C823 C825 1.390 . S
C823 H827 0.950 . S
H824 C820 0.950 . S
C825 C823 1.390 . S
C825 C826 1.387 1_556 S
C825 H828 0.950 . S
C826 C825 1.387 1_554 S
C826 C829 1.387 . S
H827 C823 0.950 . S
H828 C825 0.950 . S
C829 C820 1.390 1_565 S
C829 H822 0.950 1_565 S
C829 C826 1.387 . S
C830 C831 1.387 . S
C830 H834 0.950 . S
C830 C839 1.390 . S
C831 C830 1.387 . S
C831 C833 1.387 . S
H832 C839 0.950 . S
C833 C831 1.387 . S
C833 C835 1.390 . S
C833 H837 0.950 . S
H834 C830 0.950 . S
C835 C833 1.390 . S
C835 C836 1.387 . S
C835 H838 0.950 . S
C836 C835 1.387 . S
C836 C839 1.387 . S
H837 C833 0.950 . S
H838 C835 0.950 . S
C839 C830 1.390 . S
C839 H832 0.950 . S
C839 C836 1.387 . S
C840 C841 1.387 . S
C840 H844 0.950 . S
C840 C849 1.390 . S
C841 C840 1.387 . S
C841 C843 1.387 . S
H842 C849 0.950 . S
C843 C841 1.387 . S
C843 C845 1.390 . S
C843 H847 0.950 1_545 S
H844 C840 0.950 . S
C845 C843 1.390 . S
C845 C846 1.387 . S
C845 H848 0.950 . S
C846 C845 1.387 . S
C846 C849 1.387 . S
H847 C843 0.950 1_565 S
H848 C845 0.950 . S
C849 C840 1.390 . S
C849 H842 0.950 . S
C849 C846 1.387 . S
C850 C851 1.387 . S
C850 H854 0.950 . S
C850 C859 1.390 . S
C851 C850 1.387 . S
C851 C853 1.387 . S
H852 C859 0.950 . S
C853 C851 1.387 . S
C853 C855 1.390 . S
C853 H857 0.950 . S
H854 C850 0.950 . S
C855 C853 1.390 . S
C855 C856 1.387 . S
C855 H858 0.950 . S
C856 C855 1.387 . S
C856 C859 1.387 . S
H857 C853 0.950 . S
H858 C855 0.950 . S
C859 C850 1.390 . S
C859 H852 0.950 . S
C859 C856 1.387 . S
C860 C861 1.387 . S
C860 H864 0.950 . S
C860 C869 1.390 . S
C861 C860 1.387 . S
C861 C863 1.387 . S
H862 C869 0.950 . S
C863 C861 1.387 . S
C863 C865 1.390 . S
C863 H867 0.950 1_545 S
H864 C860 0.950 . S
C865 C863 1.390 . S
C865 C866 1.387 . S
C865 H868 0.950 . S
C866 C865 1.387 . S
C866 C869 1.387 . S
H867 C863 0.950 1_565 S
H868 C865 0.950 . S
C869 C860 1.390 . S
C869 H862 0.950 . S
C869 C866 1.387 . S
C870 C871 1.387 . S
C870 H874 0.950 . S
C870 C879 1.390 . S
C871 C870 1.387 . S
C871 C873 1.387 . S
H872 C879 0.950 . S
C873 C871 1.387 . S
C873 C875 1.390 . S
C873 H877 0.950 . S
H874 C870 0.950 . S
C875 C873 1.390 . S
C875 C876 1.387 . S
C875 H878 0.950 . S
C876 C875 1.387 . S
C876 C879 1.387 . S
H877 C873 0.950 . S
H878 C875 0.950 . S
C879 C870 1.390 . S
C879 H872 0.950 . S
C879 C876 1.387 . S
C880 C881 1.387 . S
C880 H884 0.950 . S
C880 C889 1.390 . S
C881 C880 1.387 . S
C881 C883 1.387 . S
H882 C889 0.950 . S
C883 C881 1.387 . S
C883 C885 1.390 . S
C883 H887 0.950 . S
H884 C880 0.950 . S
C885 C883 1.390 . S
C885 C886 1.387 . S
C885 H888 0.950 . S
C886 C885 1.387 . S
C886 C889 1.387 . S
H887 C883 0.950 . S
H888 C885 0.950 . S
C889 C880 1.390 . S
C889 H882 0.950 . S
C889 C886 1.387 . S
C890 C891 1.387 . S
C890 H894 0.950 1_545 S
C890 C899 1.390 . S
C891 C890 1.387 . S
C891 C893 1.387 . S
H892 C899 0.950 1_565 S
C893 C891 1.387 . S
C893 C895 1.390 . S
C893 H897 0.950 . S
H894 C890 0.950 1_565 S
C895 C893 1.390 . S
C895 C896 1.387 . S
C895 H898 0.950 . S
C896 C895 1.387 . S
C896 C899 1.387 . S
H897 C893 0.950 . S
H898 C895 0.950 . S
C899 C890 1.390 . S
C899 H892 0.950 1_545 S
C899 C896 1.387 . S
C900 C901 1.387 . S
C900 H904 0.950 . S
C900 C909 1.390 . S
C901 C900 1.387 . S
C901 C903 1.387 . S
H902 C909 0.950 . S
C903 C901 1.387 . S
C903 C905 1.390 . S
C903 H907 0.950 . S
H904 C900 0.950 . S
C905 C903 1.390 . S
C905 C906 1.387 . S
C905 H908 0.950 . S
C906 C905 1.387 . S
C906 C909 1.387 . S
H907 C903 0.950 . S
H908 C905 0.950 . S
C909 C900 1.390 . S
C909 H902 0.950 . S
C909 C906 1.387 . S
C910 C911 1.387 . S
C910 H914 0.950 . S
C910 C919 1.390 . S
C911 C910 1.387 . S
C911 C913 1.387 . S
H912 C919 0.950 . S
C913 C911 1.387 . S
C913 C915 1.390 . S
C913 H917 0.950 . S
H914 C910 0.950 . S
C915 C913 1.390 . S
C915 C916 1.387 . S
C915 H918 0.950 . S
C916 C915 1.387 . S
C916 C919 1.387 . S
H917 C913 0.950 . S
H918 C915 0.950 . S
C919 C910 1.390 . S
C919 H912 0.950 . S
C919 C916 1.387 . S
C920 C921 1.387 . S
C920 H924 0.950 . S
C920 C929 1.390 . S
C921 C920 1.387 . S
C921 C923 1.387 . S
H922 C929 0.950 . S
C923 C921 1.387 . S
C923 C925 1.390 . S
C923 H927 0.950 . S
H924 C920 0.950 . S
C925 C923 1.390 . S
C925 C926 1.387 . S
C925 H928 0.950 . S
C926 C925 1.387 . S
C926 C929 1.387 . S
H927 C923 0.950 . S
H928 C925 0.950 . S
C929 C920 1.390 . S
C929 H922 0.950 . S
C929 C926 1.387 . S
C930 C931 1.387 . S
C930 H934 0.950 . S
C930 C939 1.390 . S
C931 C930 1.387 . S
C931 C933 1.387 1_545 S
H932 C939 0.950 . S
C933 C931 1.387 1_565 S
C933 C935 1.390 . S
C933 H937 0.950 . S
H934 C930 0.950 . S
C935 C933 1.390 . S
C935 C936 1.387 1_565 S
C935 H938 0.950 . S
C936 C935 1.387 1_545 S
C936 C939 1.387 . S
H937 C933 0.950 . S
H938 C935 0.950 . S
C939 C930 1.390 . S
C939 H932 0.950 . S
C939 C936 1.387 . S
C940 C941 1.387 . S
C940 H944 0.950 . S
C940 C949 1.390 . S
C941 C940 1.387 . S
C941 C943 1.387 . S
H942 C949 0.950 . S
C943 C941 1.387 . S
C943 C945 1.390 . S
C943 H947 0.950 . S
H944 C940 0.950 . S
C945 C943 1.390 . S
C945 C946 1.387 . S
C945 H948 0.950 . S
C946 C945 1.387 . S
C946 C949 1.387 . S
H947 C943 0.950 . S
H948 C945 0.950 . S
C949 C940 1.390 . S
C949 H942 0.950 . S
C949 C946 1.387 . S
C950 C951 1.387 . S
C950 H954 0.950 . S
C950 C959 1.390 . S
C951 C950 1.387 . S
C951 C953 1.387 . S
H952 C959 0.950 . S
C953 C951 1.387 . S
C953 C955 1.390 . S
C953 H957 0.950 . S
H954 C950 0.950 . S
C955 C953 1.390 . S
C955 C956 1.387 . S
C955 H958 0.950 . S
C956 C955 1.387 . S
C956 C959 1.387 . S
H957 C953 0.950 . S
H958 C955 0.950 . S
C959 C950 1.390 . S
C959 H952 0.950 . S
C959 C956 1.387 . S
C960 C961 1.387 . S
C960 H964 0.950 . S
C960 C969 1.390 . S
C961 C960 1.387 . S
C961 C963 1.387 . S
H962 C969 0.950 . S
C963 C961 1.387 . S
C963 C965 1.390 . S
C963 H967 0.950 . S
H964 C960 0.950 . S
C965 C963 1.390 . S
C965 C966 1.387 . S
C965 H968 0.950 . S
C966 C965 1.387 . S
C966 C969 1.387 . S
H967 C963 0.950 . S
H968 C965 0.950 . S
C969 C960 1.390 . S
C969 H962 0.950 . S
C969 C966 1.387 . S
C970 C971 1.387 1_556 S
C970 H974 0.950 . S
C970 C979 1.390 . S
C971 C970 1.387 1_554 S
C971 C973 1.387 1_655 S
H972 C979 0.950 . S
C973 C971 1.387 1_455 S
C973 C975 1.390 . S
C973 H977 0.950 . S
H974 C970 0.950 . S
C975 C973 1.390 . S
C975 C976 1.387 1_454 S
C975 H978 0.950 . S
C976 C975 1.387 1_656 S
C976 C979 1.387 . S
H977 C973 0.950 . S
H978 C975 0.950 . S
C979 C970 1.390 . S
C979 H972 0.950 . S
C979 C976 1.387 . S
C980 C981 1.387 . S
C980 H984 0.950 . S
C980 C989 1.390 . S
C981 C980 1.387 . S
C981 C983 1.387 . S
H982 C989 0.950 . S
C983 C981 1.387 . S
C983 C985 1.390 . S
C983 H987 0.950 . S
H984 C980 0.950 . S
C985 C983 1.390 . S
C985 C986 1.387 . S
C985 H988 0.950 . S
C986 C985 1.387 . S
C986 C989 1.387 . S
H987 C983 0.950 . S
H988 C985 0.950 . S
C989 C980 1.390 . S
C989 H982 0.950 . S
C989 C986 1.387 . S
C990 C991 1.387 1_556 S
C990 H994 0.950 . S
C990 C999 1.390 . S
C991 C990 1.387 1_554 S
C991 C993 1.387 1_455 S
H992 C999 0.950 . S
C993 C991 1.387 1_655 S
C993 C995 1.390 1_554 S
C993 H997 0.950 . S
H994 C990 0.950 . S
C995 C993 1.390 1_556 S
C995 C996 1.387 1_655 S
C995 H998 0.950 . S
C996 C995 1.387 1_455 S
C996 C999 1.387 . S
H997 C993 0.950 . S
H998 C995 0.950 . S
C999 C990 1.390 . S
C999 H992 0.950 . S
C999 C996 1.387 . S
C1000 C1001 1.387 . S
C1000 H1004 0.950 . S
C1000 C1009 1.390 . S
C1001 C1000 1.387 . S
C1001 C1003 1.387 . S
H1002 C1009 0.950 . S
C1003 C1001 1.387 . S
C1003 C1005 1.390 . S
C1003 H1007 0.950 . S
H1004 C1000 0.950 . S
C1005 C1003 1.390 . S
C1005 C1006 1.387 . S
C1005 H1008 0.950 . S
C1006 C1005 1.387 . S
C1006 C1009 1.387 . S
H1007 C1003 0.950 . S
H1008 C1005 0.950 . S
C1009 C1000 1.390 . S
C1009 H1002 0.950 . S
C1009 C1006 1.387 . S
C1010 C1011 1.387 . S
C1010 H1014 0.950 . S
C1010 C1019 1.390 . S
C1011 C1010 1.387 . S
C1011 C1013 1.387 . S
H1012 C1019 0.950 . S
C1013 C1011 1.387 . S
C1013 C1015 1.390 . S
C1013 H1017 0.950 . S
H1014 C1010 0.950 . S
C1015 C1013 1.390 . S
C1015 C1016 1.387 . S
C1015 H1018 0.950 . S
C1016 C1015 1.387 . S
C1016 C1019 1.387 . S
H1017 C1013 0.950 . S
H1018 C1015 0.950 . S
C1019 C1010 1.390 . S
C1019 H1012 0.950 . S
C1019 C1016 1.387 . S
C1020 C1021 1.387 . S
C1020 H1024 0.950 . S
C1020 C1029 1.390 . S
C1021 C1020 1.387 . S
C1021 C1023 1.387 . S
H1022 C1029 0.950 . S
C1023 C1021 1.387 . S
C1023 C1025 1.390 . S
C1023 H1027 0.950 . S
H1024 C1020 0.950 . S
C1025 C1023 1.390 . S
C1025 C1026 1.387 . S
C1025 H1028 0.950 . S
C1026 C1025 1.387 . S
C1026 C1029 1.387 . S
H1027 C1023 0.950 . S
H1028 C1025 0.950 . S
C1029 C1020 1.390 . S
C1029 H1022 0.950 . S
C1029 C1026 1.387 . S
C1030 C1031 1.387 . S
C1030 H1034 0.950 . S
C1030 C1039 1.390 . S
C1031 C1030 1.387 . S
C1031 C1033 1.387 . S
H1032 C1039 0.950 . S
C1033 C1031 1.387 . S
C1033 C1035 1.390 . S
C1033 H1037 0.950 . S
H1034 C1030 0.950 . S
C1035 C1033 1.390 . S
C1035 C1036 1.387 . S
C1035 H1038 0.950 . S
C1036 C1035 1.387 . S
C1036 C1039 1.387 . S
H1037 C1033 0.950 . S
H1038 C1035 0.950 . S
C1039 C1030 1.390 . S
C1039 H1032 0.950 . S
C1039 C1036 1.387 . S
C1040 C1041 1.387 . S
C1040 H1044 0.950 . S
C1040 C1049 1.390 . S
C1041 C1040 1.387 . S
C1041 C1043 1.387 . S
H1042 C1049 0.950 . S
C1043 C1041 1.387 . S
C1043 C1045 1.390 . S
C1043 H1047 0.950 . S
H1044 C1040 0.950 . S
C1045 C1043 1.390 . S
C1045 C1046 1.387 . S
C1045 H1048 0.950 . S
C1046 C1045 1.387 . S
C1046 C1049 1.387 . S
H1047 C1043 0.950 . S
H1048 C1045 0.950 . S
C1049 C1040 1.390 . S
C1049 H1042 0.950 . S
C1049 C1046 1.387 . S
C1050 C1051 1.387 . S
C1050 H1054 0.950 . S
C1050 C1059 1.390 . S
C1051 C1050 1.387 . S
C1051 C1053 1.387 . S
H1052 C1059 0.950 . S
C1053 C1051 1.387 . S
C1053 C1055 1.390 . S
C1053 H1057 0.950 . S
H1054 C1050 0.950 . S
C1055 C1053 1.390 . S
C1055 C1056 1.387 . S
C1055 H1058 0.950 . S
C1056 C1055 1.387 . S
C1056 C1059 1.387 . S
H1057 C1053 0.950 . S
H1058 C1055 0.950 . S
C1059 C1050 1.390 . S
C1059 H1052 0.950 . S
C1059 C1056 1.387 . S
C1060 C1061 1.387 . S
C1060 H1064 0.950 . S
C1060 C1069 1.390 . S
C1061 C1060 1.387 . S
C1061 C1063 1.387 . S
H1062 C1069 0.950 . S
C1063 C1061 1.387 . S
C1063 C1065 1.390 . S
C1063 H1067 0.950 . S
H1064 C1060 0.950 . S
C1065 C1063 1.390 . S
C1065 C1066 1.387 . S
C1065 H1068 0.950 . S
C1066 C1065 1.387 . S
C1066 C1069 1.387 . S
H1067 C1063 0.950 . S
H1068 C1065 0.950 . S
C1069 C1060 1.390 . S
C1069 H1062 0.950 . S
C1069 C1066 1.387 . S
C1070 C1071 1.387 . S
C1070 H1074 0.950 . S
C1070 C1079 1.390 . S
C1071 C1070 1.387 . S
C1071 C1073 1.387 . S
H1072 C1079 0.950 . S
C1073 C1071 1.387 . S
C1073 C1075 1.390 . S
C1073 H1077 0.950 . S
H1074 C1070 0.950 . S
C1075 C1073 1.390 . S
C1075 C1076 1.387 . S
C1075 H1078 0.950 . S
C1076 C1075 1.387 . S
C1076 C1079 1.387 . S
H1077 C1073 0.950 . S
H1078 C1075 0.950 . S
C1079 C1070 1.390 . S
C1079 H1072 0.950 . S
C1079 C1076 1.387 . S
C1080 C1081 1.387 . S
C1080 H1084 0.950 . S
C1080 C1089 1.390 . S
C1081 C1080 1.387 . S
C1081 C1083 1.387 1_556 S
H1082 C1089 0.950 . S
C1083 C1081 1.387 1_554 S
C1083 C1085 1.390 . S
C1083 H1087 0.950 . S
H1084 C1080 0.950 . S
C1085 C1083 1.390 . S
C1085 C1086 1.387 1_554 S
C1085 H1088 0.950 . S
C1086 C1085 1.387 1_556 S
C1086 C1089 1.387 . S
H1087 C1083 0.950 . S
H1088 C1085 0.950 . S
C1089 C1080 1.390 . S
C1089 H1082 0.950 . S
C1089 C1086 1.387 . S
C1090 C1091 1.387 . S
C1090 H1094 0.950 . S
C1090 C1099 1.390 . S
C1091 C1090 1.387 . S
C1091 C1093 1.387 . S
H1092 C1099 0.950 . S
C1093 C1091 1.387 . S
C1093 C1095 1.390 . S
C1093 H1097 0.950 . S
H1094 C1090 0.950 . S
C1095 C1093 1.390 . S
C1095 C1096 1.387 . S
C1095 H1098 0.950 . S
C1096 C1095 1.387 . S
C1096 C1099 1.387 . S
H1097 C1093 0.950 . S
H1098 C1095 0.950 . S
C1099 C1090 1.390 . S
C1099 H1092 0.950 . S
C1099 C1096 1.387 . S
C1100 C1101 1.387 . S
C1100 H1104 0.950 1_554 S
C1100 C1109 1.390 1_554 S
C1101 C1100 1.387 . S
C1101 C1103 1.387 . S
H1102 C1109 0.950 . S
C1103 C1101 1.387 . S
C1103 C1105 1.390 . S
C1103 H1107 0.950 . S
H1104 C1100 0.950 1_556 S
C1105 C1103 1.390 . S
C1105 C1106 1.387 . S
C1105 H1108 0.950 . S
C1106 C1105 1.387 . S
C1106 C1109 1.387 1_554 S
H1107 C1103 0.950 . S
H1108 C1105 0.950 . S
C1109 C1100 1.390 1_556 S
C1109 H1102 0.950 . S
C1109 C1106 1.387 1_556 S
C1110 C1111 1.387 . S
C1110 H1114 0.950 . S
C1110 C1119 1.390 . S
C1111 C1110 1.387 . S
C1111 C1113 1.387 . S
H1112 C1119 0.950 . S
C1113 C1111 1.387 . S
C1113 C1115 1.390 . S
C1113 H1117 0.950 1_554 S
H1114 C1110 0.950 . S
C1115 C1113 1.390 . S
C1115 C1116 1.387 . S
C1115 H1118 0.950 1_554 S
C1116 C1115 1.387 . S
C1116 C1119 1.387 . S
H1117 C1113 0.950 1_556 S
H1118 C1115 0.950 1_556 S
C1119 C1110 1.390 . S
C1119 H1112 0.950 . S
C1119 C1116 1.387 . S
C646 C210 1.273 . S
C641 N66 1.231 . S
C656 C258 1.567 . S
C651 N79 1.607 1_455 S
C661 N92 1.695 . S
C666 C294 1.631 . S
C676 C330 1.394 . S
C671 N54 1.486 1_655 S
C686 C356 1.433 . S
C681 N131 1.410 . S
C696 C392 1.340 . S
C691 N158 1.338 . S
C701 N145 1.536 . S
C706 C427 1.544 . S
C716 C464 1.728 1_565 S
C711 N118 1.695 . S
C721 N148 1.790 . S
C726 C498 1.788 . S
C736 C546 1.626 . S
C731 N122 1.653 . S
C741 N132 1.269 . S
C746 C499 1.285 . S
C756 C536 1.564 . S
C751 N161 1.508 . S
C761 N96 1.754 . S
C766 C582 1.698 . S
C771 N53 1.671 . S
C776 C571 1.701 . S
C781 N67 1.246 . S
C786 C572 1.242 . S
C791 N83 1.509 . S
C796 C570 1.529 . S
C801 N44 1.358 . S
C806 C318 1.368 . S
C811 N187 1.478 . S
C816 C319 1.487 . S
C826 C222 1.334 . S
C821 N197 1.379 1_565 S
C836 C247 1.376 . S
C831 N106 1.374 . S
C841 N57 1.804 . S
C846 C354 1.805 . S
C856 C462 1.437 . S
C851 N144 1.417 . S
C866 C355 1.464 . S
C861 N119 1.482 . S
C876 C428 1.770 . S
C871 N157 1.744 . S
C886 C426 1.272 . S
C881 N183 1.229 . S
C891 N196 1.608 . S
C896 C474 1.565 . S
C901 N105 1.696 . S
C906 C366 1.631 . S
C916 C402 1.392 . S
C911 N171 1.481 . S
C921 N40 1.410 . S
C926 C284 1.434 . S
C936 C320 1.340 . S
C931 N2 1.337 . S
C946 C211 1.544 . S
C941 N15 1.537 . S
C956 C248 1.728 . S
C951 N27 1.695 1_455 S
C961 N18 1.790 . S
C966 C534 1.788 . S
C971 N31 1.653 . S
C976 C510 1.626 . S
C981 N41 1.269 . S
C986 C535 1.285 . S
C991 N5 1.506 . S
C996 C500 1.562 1_455 S
C1006 C618 1.697 . S
C1001 N109 1.752 . S
C1016 C607 1.701 . S
C1011 N170 1.670 1_554 S
C1026 C608 1.240 . S
C1021 N184 1.243 . S
C1031 N200 1.509 . S
C1036 C606 1.528 . S
C1041 N135 1.358 . S
C1046 C390 1.369 . S
C1056 C391 1.488 . S
C1051 N70 1.479 . S
C1066 C438 1.336 . S
C1061 N80 1.379 . S
C1076 C463 1.376 . S
C1071 N93 1.375 . S
C1081 N174 1.805 . S
C1086 C282 1.805 1_556 S
C1096 C246 1.436 . S
C1091 N14 1.414 . S
C1101 N28 1.481 . S
C1106 C283 1.463 . S
C1116 C212 1.770 . S
C1111 N1 1.744 1_565 S
