# Generated by pormake.
# Topology nom, (4,4)-cn, num edge types: 1
# Building blocks:
#     Node 0, Type 0, BuildingBlock: MIFKUJ_clean_linker_1, # of connection points: 4
#     Node 1, Type 0, BuildingBlock: MIFKUJ_clean_linker_1, # of connection points: 4
#     Node 2, Type 0, BuildingBlock: MIFKUJ_clean_linker_1, # of connection points: 4
#     Node 3, Type 0, BuildingBlock: MIFKUJ_clean_linker_1, # of connection points: 4
#     Node 4, Type 0, BuildingBlock: MIFKUJ_clean_linker_1, # of connection points: 4
#     Node 5, Type 0, BuildingBlock: MIFKUJ_clean_linker_1, # of connection points: 4
#     Node 6, Type 1, BuildingBlock: UXUYUI_clean_sbu_0, # of connection points: 4
#     Node 7, Type 1, BuildingBlock: UXUYUI_clean_sbu_0, # of connection points: 4
#     Node 8, Type 1, BuildingBlock: UXUYUI_clean_sbu_0, # of connection points: 4
#     Node 9, Type 1, BuildingBlock: UXUYUI_clean_sbu_0, # of connection points: 4
#     Node 10, Type 1, BuildingBlock: UXUYUI_clean_sbu_0, # of connection points: 4
#     Node 11, Type 1, BuildingBlock: UXUYUI_clean_sbu_0, # of connection points: 4
#     Edge 12, Type (0, 1), BuildingBlock: AJUNOK_clean_linker_0, # of connection points: 2
#     Edge 13, Type (0, 1), BuildingBlock: AJUNOK_clean_linker_0, # of connection points: 2
#     Edge 14, Type (0, 1), BuildingBlock: AJUNOK_clean_linker_0, # of connection points: 2
#     Edge 15, Type (0, 1), BuildingBlock: AJUNOK_clean_linker_0, # of connection points: 2
#     Edge 16, Type (0, 1), BuildingBlock: AJUNOK_clean_linker_0, # of connection points: 2
#     Edge 17, Type (0, 1), BuildingBlock: AJUNOK_clean_linker_0, # of connection points: 2
#     Edge 18, Type (0, 1), BuildingBlock: AJUNOK_clean_linker_0, # of connection points: 2
#     Edge 19, Type (0, 1), BuildingBlock: AJUNOK_clean_linker_0, # of connection points: 2
#     Edge 20, Type (0, 1), BuildingBlock: AJUNOK_clean_linker_0, # of connection points: 2
#     Edge 21, Type (0, 1), BuildingBlock: AJUNOK_clean_linker_0, # of connection points: 2
#     Edge 22, Type (0, 1), BuildingBlock: AJUNOK_clean_linker_0, # of connection points: 2
#     Edge 23, Type (0, 1), BuildingBlock: AJUNOK_clean_linker_0, # of connection points: 2
#     Edge 24, Type (0, 1), BuildingBlock: AJUNOK_clean_linker_0, # of connection points: 2
#     Edge 25, Type (0, 1), BuildingBlock: AJUNOK_clean_linker_0, # of connection points: 2
#     Edge 26, Type (0, 1), BuildingBlock: AJUNOK_clean_linker_0, # of connection points: 2
#     Edge 27, Type (0, 1), BuildingBlock: AJUNOK_clean_linker_0, # of connection points: 2
#     Edge 28, Type (0, 1), BuildingBlock: AJUNOK_clean_linker_0, # of connection points: 2
#     Edge 29, Type (0, 1), BuildingBlock: AJUNOK_clean_linker_0, # of connection points: 2
#     Edge 30, Type (0, 1), BuildingBlock: AJUNOK_clean_linker_0, # of connection points: 2
#     Edge 31, Type (0, 1), BuildingBlock: AJUNOK_clean_linker_0, # of connection points: 2
#     Edge 32, Type (0, 1), BuildingBlock: AJUNOK_clean_linker_0, # of connection points: 2
#     Edge 33, Type (0, 1), BuildingBlock: AJUNOK_clean_linker_0, # of connection points: 2
#     Edge 34, Type (0, 1), BuildingBlock: AJUNOK_clean_linker_0, # of connection points: 2
#     Edge 35, Type (0, 1), BuildingBlock: AJUNOK_clean_linker_0, # of connection points: 2
# Relax obj value: 0.035
# Max RMSD: 0.144
# Mean RMSD: 0.118
data_MOF--net-nom--node1-UXUYUI_clean_sbu_0--node2-MIFKUJ_clean_linker_1--edge1-AJUNOK_clean_linker_0
_symmetry_space_group_name_H-M    P1
_symmetry_Int_Tables_number       1
_symmetry_cell_setting            triclinic
loop_
_symmetry_equiv_pos_as_xyz
'x, y, z'
_cell_length_a     51.740521
_cell_length_b     51.735355
_cell_length_c     54.992945
_cell_angle_alpha  89.983333
_cell_angle_beta   90.039949
_cell_angle_gamma 119.99378
loop_
_atom_site_label
_atom_site_type_symbol
_atom_site_fract_x
_atom_site_fract_y
_atom_site_fract_z
_atom_type_partial_charge
H0 H 0.99634 0.47835 0.28298 0.0
H1 H 0.96059 0.45695 0.24946 0.0
H2 H 0.91995 0.50854 0.27155 0.0
H3 H 0.95604 0.53028 0.3049 0.0
H4 H 0.03783 0.53631 0.29234 0.0
H5 H 0.94409 0.45992 0.33288 0.0
H6 H 0.89198 0.44054 0.34513 0.0
H7 H 0.91658 0.52488 0.37937 0.0
H8 H 0.96843 0.54405 0.36722 0.0
H9 H 0.04718 0.5716 0.39563 0.0
H10 H 0.08065 0.58244 0.43037 0.0
H11 H 0.12368 0.54049 0.3935 0.0
H12 H 0.08973 0.52893 0.35895 0.0
H13 H 0.00652 0.52357 0.37873 0.0
H14 H 0.09087 0.60222 0.34471 0.0
H15 H 0.14204 0.63575 0.33138 0.0
H16 H 0.13723 0.56691 0.28404 0.0
H17 H 0.08588 0.53325 0.29747 0.0
C18 C 0.97863 0.50559 0.29669 0.0
C19 C 0.97977 0.48511 0.2806 0.0
C20 C 0.95936 0.47289 0.26148 0.0
C21 C 0.93732 0.48083 0.25812 0.0
C22 C 0.93635 0.50158 0.27405 0.0
C23 C 0.95695 0.51401 0.29308 0.0
C24 C 1.00049 0.51821 0.31694 0.0
C25 C 0.03106 0.53313 0.31128 0.0
C26 C 0.99166 0.51597 0.34156 0.0
C27 C 0.96007 0.50352 0.34894 0.0
C28 C 0.93819 0.47425 0.3429 0.0
C29 C 0.90846 0.46326 0.34983 0.0
C30 C 0.90025 0.48134 0.36301 0.0
C31 C 0.92231 0.51043 0.36933 0.0
C32 C 0.9519 0.52139 0.36237 0.0
C33 C 0.06589 0.54949 0.37455 0.0
C34 C 0.06376 0.56465 0.39497 0.0
C35 C 0.08283 0.57081 0.41482 0.0
C36 C 0.10448 0.562 0.41464 0.0
C37 C 0.10719 0.54755 0.39402 0.0
C38 C 0.0879 0.54111 0.37424 0.0
C39 C 0.04404 0.54088 0.35425 0.0
C40 C 0.0135 0.52672 0.35985 0.0
C41 C 0.05295 0.54542 0.32955 0.0
C42 C 0.08457 0.56507 0.32228 0.0
C43 C 0.10091 0.59413 0.33173 0.0
C44 C 0.13012 0.61333 0.32404 0.0
C45 C 0.14349 0.604 0.30654 0.0
C46 C 0.12726 0.57484 0.29724 0.0
C47 C 0.09802 0.55557 0.30498 0.0
H48 H 0.44144 0.96804 0.53398 0.0
H49 H 0.40947 0.91663 0.54752 0.0
H50 H 0.46964 0.8917 0.51468 0.0
H51 H 0.50186 0.94346 0.50121 0.0
H52 H 0.49918 0.00725 0.54531 0.0
H53 H 0.4441 0.95438 0.47061 0.0
H54 H 0.43129 0.91867 0.43714 0.0
H55 H 0.52466 0.95845 0.41891 0.0
H56 H 0.53735 0.99405 0.45229 0.0
H57 H 0.56773 0.08308 0.4612 0.0
H58 H 0.584 0.13314 0.44544 0.0
H59 H 0.52445 0.1418 0.49547 0.0
H60 H 0.50673 0.09118 0.5099 0.0
H61 H 0.51901 0.03544 0.45832 0.0
H62 H 0.57762 0.08763 0.52552 0.0
H63 H 0.59946 0.12364 0.55887 0.0
H64 H 0.51282 0.08584 0.59275 0.0
H65 H 0.49092 0.05021 0.55919 0.0
C66 C 0.47398 0.95959 0.5165 0.0
C67 C 0.44791 0.95159 0.52983 0.0
C68 C 0.42973 0.92226 0.53765 0.0
C69 C 0.43732 0.90033 0.53241 0.0
C70 C 0.46334 0.90824 0.51895 0.0
C71 C 0.48167 0.93772 0.51121 0.0
C72 C 0.49286 0.991 0.50851 0.0
C73 C 0.50333 0.0135 0.52627 0.0
C74 C 0.49996 0.99906 0.4838 0.0
C75 C 0.49172 0.97667 0.46411 0.0
C76 C 0.46182 0.95513 0.45961 0.0
C77 C 0.45454 0.93471 0.44055 0.0
C78 C 0.47704 0.93562 0.4256 0.0
C79 C 0.50689 0.95727 0.43012 0.0
C80 C 0.51415 0.97758 0.44917 0.0
C81 C 0.53613 0.08328 0.4869 0.0
C82 C 0.55805 0.09568 0.46869 0.0
C83 C 0.56745 0.12436 0.45978 0.0
C84 C 0.55515 0.14124 0.46891 0.0
C85 C 0.53376 0.12909 0.48755 0.0
C86 C 0.52408 0.10031 0.4962 0.0
C87 C 0.52427 0.05192 0.49507 0.0
C88 C 0.51521 0.0294 0.47741 0.0
C89 C 0.51959 0.04382 0.51995 0.0
C90 C 0.53256 0.06637 0.53972 0.0
C91 C 0.56324 0.08734 0.53995 0.0
C92 C 0.57574 0.10775 0.55906 0.0
C93 C 0.55777 0.10765 0.57824 0.0
C94 C 0.52708 0.08671 0.57798 0.0
C95 C 0.51461 0.06622 0.55893 0.0
H96 H 0.53583 0.55869 0.71948 0.0
H97 H 0.5219 0.58086 0.75266 0.0
H98 H 0.42977 0.5309 0.72998 0.0
H99 H 0.44368 0.5083 0.69699 0.0
H100 H 0.51828 0.50052 0.71032 0.0
H101 H 0.50165 0.57735 0.67122 0.0
H102 H 0.46925 0.59723 0.65907 0.0
H103 H 0.41296 0.5161 0.61947 0.0
H104 H 0.44459 0.49587 0.6322 0.0
H105 H 0.49125 0.4626 0.60859 0.0
H106 H 0.51218 0.44828 0.57478 0.0
H107 H 0.59866 0.49289 0.60939 0.0
H108 H 0.57788 0.50798 0.6429 0.0
H109 H 0.50119 0.51369 0.62362 0.0
H110 H 0.50578 0.43439 0.65784 0.0
H111 H 0.52401 0.40114 0.67064 0.0
H112 H 0.58624 0.46889 0.71963 0.0
H113 H 0.56849 0.50263 0.70633 0.0
C114 C 0.49088 0.53215 0.70553 0.0
C115 C 0.5126 0.55241 0.72168 0.0
C116 C 0.50466 0.56508 0.74059 0.0
C117 C 0.47485 0.55783 0.74366 0.0
C118 C 0.45301 0.53727 0.7277 0.0
C119 C 0.46092 0.52435 0.7089 0.0
C120 C 0.49994 0.51924 0.6854 0.0
C121 C 0.51499 0.50378 0.69133 0.0
C122 C 0.4938 0.52177 0.66067 0.0
C123 C 0.47532 0.53491 0.65293 0.0
C124 C 0.48217 0.56372 0.66014 0.0
C125 C 0.46376 0.57508 0.65317 0.0
C126 C 0.43862 0.55805 0.63846 0.0
C127 C 0.43227 0.52964 0.63075 0.0
C128 C 0.45035 0.51814 0.638 0.0
C129 C 0.53291 0.48616 0.62842 0.0
C130 C 0.51472 0.4693 0.60893 0.0
C131 C 0.52662 0.4609 0.58974 0.0
C132 C 0.55695 0.46917 0.58965 0.0
C133 C 0.5752 0.48618 0.60906 0.0
C134 C 0.56329 0.4946 0.62827 0.0
C135 C 0.52037 0.49576 0.64849 0.0
C136 C 0.5047 0.51055 0.64259 0.0
C137 C 0.52442 0.49114 0.67325 0.0
C138 C 0.53615 0.47131 0.68074 0.0
C139 C 0.52378 0.44242 0.67096 0.0
C140 C 0.5341 0.42337 0.67834 0.0
C141 C 0.5567 0.43263 0.69592 0.0
C142 C 0.5688 0.4613 0.70602 0.0
C143 C 0.55868 0.48053 0.69843 0.0
H144 H 0.0527 0.56441 0.7832 0.0
H145 H 0.08902 0.585 0.75003 0.0
H146 H 0.12497 0.52895 0.77148 0.0
H147 H 0.08803 0.50778 0.80425 0.0
H148 H 0.00887 0.5055 0.79048 0.0
H149 H 0.10086 0.57939 0.83229 0.0
H150 H 0.15287 0.59867 0.84476 0.0
H151 H 0.12776 0.51498 0.88033 0.0
H152 H 0.07597 0.49567 0.86769 0.0
H153 H 0.99494 0.46374 0.89149 0.0
H154 H 0.95962 0.44956 0.92516 0.0
H155 H 0.91947 0.4962 0.89112 0.0
H156 H 0.95568 0.51143 0.85789 0.0
H157 H 0.03693 0.51414 0.87754 0.0
H158 H 0.95137 0.43837 0.84117 0.0
H159 H 0.90019 0.40765 0.82682 0.0
H160 H 0.91208 0.47842 0.77825 0.0
H161 H 0.96266 0.50988 0.79384 0.0
C162 C 0.06774 0.53468 0.79627 0.0
C163 C 0.06836 0.5565 0.78072 0.0
C164 C 0.08921 0.56838 0.7619 0.0
C165 C 0.10969 0.55846 0.75812 0.0
C166 C 0.10917 0.5367 0.77378 0.0
C167 C 0.08827 0.52479 0.79262 0.0
C168 C 0.0452 0.52208 0.81599 0.0
C169 C 0.01489 0.5078 0.80958 0.0
C170 C 0.05318 0.52341 0.84076 0.0
C171 C 0.08459 0.53593 0.84878 0.0
C172 C 0.1066 0.56513 0.84262 0.0
C173 C 0.13625 0.57611 0.84972 0.0
C174 C 0.14429 0.55816 0.86328 0.0
C175 C 0.12211 0.52927 0.86993 0.0
C176 C 0.09257 0.51825 0.86272 0.0
C177 C 0.97785 0.48843 0.87198 0.0
C178 C 0.97854 0.47092 0.89122 0.0
C179 C 0.95814 0.46256 0.91034 0.0
C180 C 0.9365 0.47141 0.91058 0.0
C181 C 0.93586 0.48902 0.89138 0.0
C182 C 0.95637 0.49749 0.87228 0.0
C183 C 1.00035 0.49824 0.85216 0.0
C184 C 0.03067 0.51194 0.8585 0.0
C185 C 0.9923 0.49507 0.82724 0.0
C186 C 0.96079 0.47676 0.81901 0.0
C187 C 0.94277 0.44764 0.8279 0.0
C188 C 0.91361 0.4299 0.81942 0.0
C189 C 0.90194 0.44069 0.80157 0.0
C190 C 0.92011 0.46971 0.79245 0.0
C191 C 0.94917 0.4876 0.80117 0.0
H192 H 0.60192 0.07473 0.03569 0.0
H193 H 0.63441 0.12654 0.04814 0.0
H194 H 0.57459 0.15108 0.01391 0.0
H195 H 0.54216 0.09909 1.00127 0.0
H196 H 0.54315 0.03574 0.04633 0.0
H197 H 0.60178 0.08711 0.9734 0.0
H198 H 0.61751 0.12324 0.94001 0.0
H199 H 0.52575 0.08508 0.9171 0.0
H200 H 0.51002 0.04969 0.95095 0.0
H201 H 0.47487 0.95929 0.96319 0.0
H202 H 0.45728 0.90855 0.94832 0.0
H203 H 0.51895 0.90075 0.99652 0.0
H204 H 0.53729 0.95179 0.01063 0.0
H205 H 0.52595 0.00691 0.95933 0.0
H206 H 0.4657 0.95292 0.0246 0.0
H207 H 0.44321 0.91658 0.05741 0.0
H208 H 0.5271 0.95932 0.09612 0.0
H209 H 0.55007 0.99451 0.06254 0.0
C210 C 0.5698 0.08311 0.01733 0.0
C211 C 0.59573 0.09124 0.03092 0.0
C212 C 0.61425 0.12081 0.03805 0.0
C213 C 0.60719 0.14288 0.03177 0.0
C214 C 0.5809 0.13464 0.01855 0.0
C215 C 0.56233 0.10497 0.0114 0.0
C216 C 0.55095 0.05166 0.00944 0.0
C217 C 0.53959 0.02929 0.02732 0.0
C218 C 0.54476 0.04349 0.98466 0.0
C219 C 0.55469 0.06585 0.96479 0.0
C220 C 0.58503 0.08675 0.96136 0.0
C221 C 0.59401 0.10716 0.94214 0.0
C222 C 0.57285 0.10676 0.92583 0.0
C223 C 0.54251 0.08598 0.92944 0.0
C224 C 0.53354 0.06566 0.94867 0.0
C225 C 0.50716 0.95928 0.98827 0.0
C226 C 0.48453 0.94662 0.97062 0.0
C227 C 0.47432 0.91755 0.96228 0.0
C228 C 0.48654 0.90061 0.97145 0.0
C229 C 0.50915 0.91331 0.98912 0.0
C230 C 0.51941 0.94236 0.99738 0.0
C231 C 0.51927 0.99072 0.99622 0.0
C232 C 0.52921 0.01312 0.9784 0.0
C233 C 0.52327 0.99891 0.0211 0.0
C234 C 0.50971 0.97641 0.04092 0.0
C235 C 0.47944 0.95423 0.03995 0.0
C236 C 0.46643 0.93375 0.05893 0.0
C237 C 0.48324 0.93539 0.07956 0.0
C238 C 0.51357 0.95745 0.08045 0.0
C239 C 0.52666 0.97773 0.06134 0.0
H240 H 0.50836 0.47718 0.21585 0.0
H241 H 0.52316 0.45626 0.24951 0.0
H242 H 0.61587 0.51779 0.23374 0.0
H243 H 0.60096 0.5388 0.20007 0.0
H244 H 0.52343 0.53834 0.21038 0.0
H245 H 0.54447 0.4656 0.16993 0.0
H246 H 0.57792 0.44706 0.15786 0.0
H247 H 0.63564 0.53087 0.12216 0.0
H248 H 0.60253 0.54952 0.13451 0.0
H249 H 0.55203 0.58045 0.10918 0.0
H250 H 0.52989 0.59416 0.07575 0.0
H251 H 0.44322 0.54398 0.1094 0.0
H252 H 0.46536 0.53038 0.14277 0.0
H253 H 0.54521 0.53018 0.1238 0.0
H254 H 0.53761 0.6064 0.16051 0.0
H255 H 0.51841 0.6386 0.17403 0.0
H256 H 0.45236 0.56675 0.21796 0.0
H257 H 0.47122 0.53423 0.20393 0.0
C258 C 0.55356 0.50944 0.20545 0.0
C259 C 0.53187 0.48615 0.21965 0.0
C260 C 0.54032 0.47415 0.23875 0.0
C261 C 0.57061 0.48554 0.24424 0.0
C262 C 0.59236 0.50885 0.23001 0.0
C263 C 0.58389 0.52072 0.21074 0.0
C264 C 0.54414 0.52211 0.18545 0.0
C265 C 0.52775 0.53616 0.1914 0.0
C266 C 0.55162 0.52108 0.16085 0.0
C267 C 0.57121 0.50912 0.15342 0.0
C268 C 0.56449 0.4801 0.15975 0.0
C269 C 0.58356 0.46953 0.15284 0.0
C270 C 0.60945 0.48768 0.13928 0.0
C271 C 0.61579 0.51644 0.13257 0.0
C272 C 0.5969 0.52707 0.13962 0.0
C273 C 0.51045 0.55466 0.12866 0.0
C274 C 0.52828 0.57246 0.1094 0.0
C275 C 0.51562 0.58026 0.09032 0.0
C276 C 0.48491 0.57041 0.09014 0.0
C277 C 0.46707 0.55247 0.10935 0.0
C278 C 0.47971 0.54466 0.1284 0.0
C279 C 0.52361 0.54558 0.14864 0.0
C280 C 0.54071 0.53229 0.14274 0.0
C281 C 0.51831 0.54885 0.17338 0.0
C282 C 0.50561 0.56775 0.18095 0.0
C283 C 0.51867 0.59737 0.17273 0.0
C284 C 0.50788 0.61584 0.18063 0.0
C285 C 0.48382 0.6051 0.19692 0.0
C286 C 0.47065 0.57544 0.20511 0.0
C287 C 0.48153 0.55694 0.19724 0.0
Li288 Li 0.63873 0.40769 0.4393 0.0
Li289 Li 0.6332 0.36449 0.41926 0.0
Li290 Li 0.67859 0.40889 0.41322 0.0
Li291 Li 0.63123 0.4008 0.39304 0.0
C292 C 0.68268 0.40333 0.46324 0.0
N293 N 0.72191 0.43461 0.50053 0.0
C294 C 0.68328 0.38853 0.48434 0.0
C295 C 0.70196 0.4341 0.46125 0.0
C296 C 0.70327 0.40472 0.50296 0.0
C297 C 0.72167 0.4495 0.48023 0.0
C298 C 0.57698 0.3531 0.42257 0.0
C299 C 0.53054 0.31466 0.40571 0.0
N300 N 0.52314 0.30083 0.42773 0.0
C301 C 0.56883 0.33872 0.4451 0.0
C302 C 0.55766 0.34116 0.40274 0.0
C303 C 0.54155 0.31221 0.4473 0.0
C304 C 0.6239 0.44591 0.46563 0.0
N305 N 0.62824 0.42211 0.46714 0.0
C306 C 0.61247 0.41401 0.50863 0.0
C307 C 0.62289 0.40628 0.48808 0.0
C308 C 0.60712 0.43804 0.50751 0.0
C309 C 0.61346 0.45444 0.4858 0.0
H310 H 0.6278 0.45774 0.44859 0.0
H311 H 0.62604 0.38714 0.48864 0.0
C312 C 0.63013 0.3154 0.44296 0.0
N313 N 0.61729 0.32239 0.42446 0.0
C314 C 0.61999 0.28573 0.44907 0.0
C315 C 0.58416 0.27057 0.41636 0.0
C316 C 0.59487 0.30067 0.411 0.0
C317 C 0.59652 0.26282 0.43587 0.0
H318 H 0.64826 0.33291 0.45309 0.0
H319 H 0.58526 0.30663 0.3961 0.0
C320 C 0.67795 0.46517 0.40587 0.0
N321 N 0.71091 0.52443 0.39222 0.0
C322 C 0.68302 0.4729 0.38127 0.0
C323 C 0.68934 0.48765 0.42351 0.0
C324 C 0.69981 0.50296 0.37474 0.0
C325 C 0.70605 0.51745 0.41625 0.0
C326 C 0.65281 0.35518 0.37835 0.0
C327 C 0.67302 0.34649 0.38624 0.0
C328 C 0.63095 0.33778 0.36127 0.0
C329 C 0.67091 0.32036 0.37698 0.0
C330 C 0.6296 0.31182 0.35241 0.0
N331 N 0.64943 0.30371 0.3604 0.0
C332 C 0.73654 0.41608 0.42003 0.0
C333 C 0.73188 0.44258 0.38677 0.0
C334 C 0.76596 0.42514 0.41353 0.0
N335 N 0.7202 0.425 0.40672 0.0
C336 C 0.76118 0.45217 0.37962 0.0
C337 C 0.77843 0.44307 0.39287 0.0
H338 H 0.72647 0.40109 0.43523 0.0
H339 H 0.71817 0.44836 0.3759 0.0
C340 C 0.60293 0.42815 0.36981 0.0
N341 N 0.61638 0.41174 0.36571 0.0
C342 C 0.59484 0.43993 0.35031 0.0
C343 C 0.61382 0.41697 0.32272 0.0
C344 C 0.62186 0.4059 0.34277 0.0
C345 C 0.60063 0.43465 0.32643 0.0
H346 H 0.59931 0.43279 0.38829 0.0
H347 H 0.63339 0.39356 0.34004 0.0
O348 O 0.6626 0.38778 0.44512 0.0
O349 O 0.60363 0.37892 0.41996 0.0
O350 O 0.661 0.43587 0.41264 0.0
O351 O 0.65425 0.38043 0.38753 0.0
H352 H 0.66823 0.36484 0.48652 0.0
H353 H 0.70205 0.44596 0.44514 0.0
H354 H 0.70389 0.39352 0.51938 0.0
H355 H 0.73678 0.47329 0.47881 0.0
H356 H 0.51541 0.30504 0.39049 0.0
H357 H 0.58357 0.34774 0.46061 0.0
H358 H 0.56367 0.35215 0.38521 0.0
H359 H 0.53504 0.30066 0.46456 0.0
H360 H 0.60832 0.40112 0.52515 0.0
H361 H 0.60948 0.47303 0.48422 0.0
H362 H 0.63017 0.28078 0.46425 0.0
H363 H 0.56655 0.2536 0.40527 0.0
H364 H 0.67436 0.45588 0.36734 0.0
H365 H 0.68529 0.48218 0.44264 0.0
H366 H 0.70403 0.50921 0.35577 0.0
H367 H 0.71508 0.53505 0.42972 0.0
H368 H 0.68992 0.35959 0.39959 0.0
H369 H 0.61482 0.3439 0.35526 0.0
H370 H 0.68629 0.31328 0.38302 0.0
H371 H 0.61268 0.29802 0.33931 0.0
H372 H 0.77849 0.41743 0.42406 0.0
H373 H 0.77011 0.46626 0.36372 0.0
H374 H 0.58445 0.45326 0.35383 0.0
H375 H 0.6188 0.41265 0.30454 0.0
Li376 Li 0.25271 0.6399 0.6074 0.0
Li377 Li 0.29003 0.63045 0.58838 0.0
Li378 Li 0.28804 0.67739 0.57961 0.0
Li379 Li 0.24999 0.62998 0.56358 0.0
C380 C 0.30108 0.67017 0.63489 0.0
N381 N 0.30853 0.68281 0.68407 0.0
C382 C 0.30517 0.65151 0.65087 0.0
C383 C 0.30127 0.69553 0.64388 0.0
C384 C 0.30875 0.65819 0.67568 0.0
C385 C 0.30494 0.70147 0.6688 0.0
C386 C 0.23732 0.57492 0.5824 0.0
C387 C 0.2436 0.54152 0.55568 0.0
N388 N 0.21854 0.5181 0.56516 0.0
C389 C 0.21167 0.55056 0.5919 0.0
C390 C 0.25347 0.57042 0.56417 0.0
C391 C 0.20253 0.52199 0.58294 0.0
C392 C 0.21052 0.64021 0.64147 0.0
N393 N 0.22945 0.62986 0.63636 0.0
C394 C 0.21282 0.59819 0.67133 0.0
C395 C 0.23086 0.60925 0.65077 0.0
C396 C 0.19261 0.60797 0.67685 0.0
C397 C 0.19192 0.62963 0.66187 0.0
H398 H 0.20913 0.65591 0.62937 0.0
H399 H 0.24561 0.6009 0.64595 0.0
C400 C 0.34391 0.6294 0.58516 0.0
N401 N 0.31589 0.61515 0.5946 0.0
C402 C 0.36435 0.62039 0.59158 0.0
C403 C 0.32664 0.58229 0.61731 0.0
C404 C 0.30686 0.59181 0.6102 0.0
C405 C 0.35589 0.59693 0.6082 0.0
H406 H 0.3506 0.64825 0.57314 0.0
H407 H 0.28454 0.58119 0.61767 0.0
C408 C 0.24061 0.68474 0.57805 0.0
N409 N 0.2347 0.73463 0.57229 0.0
C410 C 0.23133 0.69035 0.55575 0.0
C411 C 0.24665 0.7044 0.59744 0.0
C412 C 0.22853 0.71571 0.5532 0.0
C413 C 0.24361 0.72953 0.59416 0.0
C414 C 0.29793 0.65148 0.53226 0.0
C415 C 0.28633 0.66485 0.51705 0.0
C416 C 0.31349 0.63845 0.52217 0.0
C417 C 0.2906 0.6651 0.49196 0.0
C418 C 0.31733 0.63919 0.49698 0.0
N419 N 0.3059 0.65238 0.48252 0.0
C420 C 0.33865 0.73422 0.58659 0.0
C421 C 0.30867 0.73201 0.5532 0.0
C422 C 0.35944 0.76394 0.58127 0.0
N423 N 0.31378 0.71891 0.57264 0.0
C424 C 0.32885 0.76161 0.54721 0.0
C425 C 0.35464 0.77793 0.5613 0.0
H426 H 0.34271 0.72313 0.60153 0.0
H427 H 0.28924 0.71947 0.542 0.0
C428 C 0.19721 0.61284 0.53839 0.0
N429 N 0.22252 0.61109 0.53729 0.0
C430 C 0.17693 0.60257 0.51914 0.0
C431 C 0.20813 0.58708 0.49847 0.0
C432 C 0.22794 0.59783 0.51813 0.0
C433 C 0.18238 0.58972 0.49873 0.0
H434 H 0.19316 0.62302 0.55399 0.0
H435 H 0.24794 0.59617 0.51777 0.0
O436 O 0.29711 0.66376 0.61057 0.0
O437 O 0.24651 0.60298 0.59103 0.0
O438 O 0.24362 0.66008 0.5809 0.0
O439 O 0.2937 0.65069 0.55686 0.0
H440 H 0.30528 0.6319 0.64424 0.0
H441 H 0.29881 0.71059 0.63173 0.0
H442 H 0.31169 0.64379 0.68828 0.0
H443 H 0.30501 0.72096 0.67601 0.0
H444 H 0.25585 0.53771 0.54155 0.0
H445 H 0.19898 0.55372 0.60606 0.0
H446 H 0.27338 0.58902 0.55664 0.0
H447 H 0.18271 0.50291 0.59012 0.0
H448 H 0.21438 0.58187 0.68261 0.0
H449 H 0.17645 0.63753 0.66542 0.0
H450 H 0.38678 0.6322 0.58426 0.0
H451 H 0.31928 0.56388 0.62996 0.0
H452 H 0.22683 0.67563 0.54042 0.0
H453 H 0.25357 0.7003 0.61485 0.0
H454 H 0.22157 0.72042 0.53601 0.0
H455 H 0.24831 0.74496 0.60902 0.0
H456 H 0.2734 0.67411 0.52447 0.0
H457 H 0.32239 0.62776 0.53364 0.0
H458 H 0.28155 0.67518 0.47997 0.0
H459 H 0.32932 0.62919 0.48892 0.0
H460 H 0.37941 0.77558 0.59226 0.0
H461 H 0.32438 0.77164 0.53166 0.0
H462 H 0.15768 0.60556 0.51995 0.0
H463 H 0.21303 0.57709 0.48315 0.0
Li464 Li 0.67921 0.28947 0.75515 0.0
Li465 Li 0.63711 0.25083 0.77495 0.0
Li466 Li 0.64244 0.24948 0.72907 0.0
Li467 Li 0.63144 0.28661 0.74964 0.0
C468 C 0.69395 0.24702 0.75276 0.0
N469 N 0.74779 0.24848 0.74738 0.0
C470 C 0.71347 0.25444 0.77249 0.0
C471 C 0.70184 0.24031 0.7303 0.0
C472 C 0.7406 0.25509 0.76939 0.0
C473 C 0.72914 0.24116 0.72795 0.0
C474 C 0.64696 0.29562 0.80358 0.0
C475 C 0.61268 0.29532 0.83344 0.0
N476 N 0.63141 0.29687 0.85147 0.0
C477 C 0.66601 0.29752 0.82241 0.0
C478 C 0.6202 0.29477 0.80913 0.0
C479 C 0.6577 0.298 0.84649 0.0
C480 C 0.72708 0.33852 0.77756 0.0
N481 N 0.72088 0.31853 0.75932 0.0
C482 C 0.77291 0.34057 0.75015 0.0
C483 C 0.74308 0.31953 0.74535 0.0
C484 C 0.7799 0.36092 0.76936 0.0
C485 C 0.75649 0.35971 0.78311 0.0
H486 H 0.70919 0.33793 0.78804 0.0
H487 H 0.73776 0.30385 0.73064 0.0
C488 C 0.59448 0.20577 0.80697 0.0
N489 N 0.62386 0.22567 0.80313 0.0
C490 C 0.58568 0.18665 0.82709 0.0
C491 C 0.63743 0.20895 0.83892 0.0
C492 C 0.6452 0.22751 0.81862 0.0
C493 C 0.60738 0.18789 0.84318 0.0
H494 H 0.57793 0.20429 0.79421 0.0
H495 H 0.66834 0.24339 0.81521 0.0
C496 C 0.68469 0.31503 0.71232 0.0
N497 N 0.73404 0.3605 0.68952 0.0
C498 C 0.69421 0.34475 0.71811 0.0
C499 C 0.7001 0.30838 0.69485 0.0
C500 C 0.71928 0.36744 0.70642 0.0
C501 C 0.72503 0.33171 0.68353 0.0
C502 C 0.57779 0.23406 0.74496 0.0
C503 C 0.5645 0.22216 0.72249 0.0
C504 C 0.56114 0.23786 0.76316 0.0
C505 C 0.53491 0.21474 0.71847 0.0
C506 C 0.53162 0.23019 0.75844 0.0
N507 N 0.51923 0.21891 0.73637 0.0
C508 C 0.62499 0.196 0.70283 0.0
C509 C 0.62992 0.23677 0.67946 0.0
C510 C 0.61418 0.17719 0.68258 0.0
N511 N 0.63237 0.2251 0.7009 0.0
C512 C 0.61906 0.21874 0.65883 0.0
C513 C 0.61056 0.18843 0.66038 0.0
H514 H 0.62677 0.18727 0.72024 0.0
H515 H 0.6355 0.25988 0.67859 0.0
C516 C 0.62301 0.33625 0.75544 0.0
N517 N 0.61337 0.31021 0.74314 0.0
C518 C 0.6134 0.3561 0.74856 0.0
C519 C 0.58385 0.32178 0.71673 0.0
C520 C 0.59425 0.30278 0.72405 0.0
C521 C 0.59398 0.34918 0.72867 0.0
H522 H 0.63906 0.34214 0.76999 0.0
H523 H 0.58789 0.28262 0.71389 0.0
O524 O 0.66717 0.24604 0.75542 0.0
O525 O 0.65456 0.29474 0.77986 0.0
O526 O 0.66059 0.29252 0.72391 0.0
O527 O 0.60682 0.24163 0.74916 0.0
H528 H 0.70811 0.26024 0.78987 0.0
H529 H 0.6872 0.23473 0.71477 0.0
H530 H 0.75599 0.26101 0.78446 0.0
H531 H 0.73553 0.23608 0.71066 0.0
H532 H 0.59196 0.29456 0.83797 0.0
H533 H 0.68686 0.29825 0.81849 0.0
H534 H 0.60539 0.29377 0.79484 0.0
H535 H 0.67212 0.29921 0.86123 0.0
H536 H 0.79032 0.34087 0.73903 0.0
H537 H 0.76081 0.37452 0.79839 0.0
H538 H 0.56226 0.17058 0.82972 0.0
H539 H 0.65479 0.21103 0.85115 0.0
H540 H 0.68254 0.3502 0.73168 0.0
H541 H 0.69312 0.28545 0.69031 0.0
H542 H 0.72704 0.39056 0.71082 0.0
H543 H 0.73729 0.32692 0.67007 0.0
H544 H 0.57688 0.2188 0.70823 0.0
H545 H 0.57083 0.24651 0.78078 0.0
H546 H 0.52442 0.20567 0.70112 0.0
H547 H 0.51853 0.23313 0.77234 0.0
H548 H 0.60775 0.15389 0.68446 0.0
H549 H 0.61694 0.22828 0.64193 0.0
H550 H 0.62196 0.37712 0.75811 0.0
H551 H 0.56849 0.31534 0.70156 0.0
Li552 Li 0.40572 0.63371 0.93877 0.0
Li553 Li 0.41474 0.68011 0.91924 0.0
Li554 Li 0.36626 0.63193 0.91223 0.0
Li555 Li 0.41229 0.64005 0.89332 0.0
C556 C 0.37315 0.65348 0.96612 0.0
N557 N 0.35371 0.65072 0.01337 0.0
C558 C 0.38936 0.67717 0.98214 0.0
C559 C 0.34668 0.62868 0.974 0.0
C560 C 0.37929 0.67527 0.00599 0.0
C561 C 0.33731 0.62762 0.99798 0.0
C562 C 0.47055 0.68467 0.92006 0.0
C563 C 0.51315 0.72515 0.90024 0.0
N564 N 0.52945 0.72995 0.92087 0.0
C565 C 0.48783 0.68977 0.94097 0.0
C566 C 0.48338 0.70229 0.89945 0.0
C567 C 0.51753 0.71286 0.94106 0.0
C568 C 0.41244 0.5917 0.96794 0.0
N569 N 0.41572 0.61947 0.96728 0.0
C570 C 0.43806 0.63046 0.00678 0.0
C571 C 0.42844 0.63885 0.98609 0.0
C572 C 0.43474 0.60187 0.00809 0.0
C573 C 0.42175 0.58235 0.98833 0.0
H574 H 0.40316 0.57702 0.95245 0.0
H575 H 0.43215 0.66127 0.98466 0.0
C576 C 0.41876 0.7362 0.91353 0.0
N577 N 0.43109 0.7217 0.92505 0.0
C578 C 0.42784 0.76582 0.91939 0.0
C579 C 0.46232 0.7651 0.94869 0.0
C580 C 0.45252 0.73551 0.94232 0.0
C581 C 0.44959 0.78045 0.93744 0.0
H582 H 0.40131 0.72451 0.90022 0.0
H583 H 0.46112 0.72321 0.95192 0.0
C584 C 0.36007 0.57583 0.91462 0.0
N585 N 0.31341 0.51789 0.91919 0.0
C586 C 0.35132 0.55635 0.89479 0.0
C587 C 0.34541 0.56566 0.93688 0.0
C588 C 0.32758 0.5272 0.89742 0.0
C589 C 0.32181 0.53635 0.93881 0.0
C590 C 0.39563 0.67311 0.86503 0.0
C591 C 0.37391 0.65647 0.84761 0.0
C592 C 0.42097 0.69976 0.85823 0.0
C593 C 0.37833 0.66632 0.82352 0.0
C594 C 0.42456 0.7089 0.83396 0.0
N595 N 0.40337 0.69209 0.81723 0.0
C596 C 0.30933 0.62647 0.91828 0.0
C597 C 0.31224 0.59602 0.88744 0.0
C598 C 0.27974 0.61708 0.91202 0.0
N599 N 0.32487 0.61586 0.90597 0.0
C600 C 0.28282 0.58615 0.88052 0.0
C601 C 0.26637 0.59706 0.89264 0.0
H602 H 0.32015 0.64287 0.93249 0.0
H603 H 0.32534 0.58861 0.87749 0.0
C604 C 0.45502 0.63601 0.86276 0.0
N605 N 0.42619 0.62944 0.865 0.0
C606 C 0.46396 0.62619 0.84245 0.0
C607 C 0.41335 0.60272 0.82737 0.0
C608 C 0.40544 0.61306 0.84788 0.0
C609 C 0.44297 0.60928 0.82443 0.0
H610 H 0.47094 0.64828 0.87694 0.0
H611 H 0.38248 0.60731 0.85049 0.0
O612 O 0.38269 0.65501 0.94266 0.0
O613 O 0.44134 0.66233 0.91974 0.0
O614 O 0.3831 0.60457 0.91232 0.0
O615 O 0.39174 0.66373 0.88872 0.0
H616 H 0.40967 0.69672 0.9763 0.0
H617 H 0.33327 0.61057 0.96169 0.0
H618 H 0.3918 0.69333 0.01863 0.0
H619 H 0.31693 0.60849 1.00433 0.0
H620 H 0.52332 0.73899 0.88443 0.0
H621 H 0.47842 0.67616 0.957 0.0
H622 H 0.47061 0.69815 0.88294 0.0
H623 H 0.53109 0.71717 0.95717 0.0
H624 H 0.4489 0.64655 0.02125 0.0
H625 H 0.41907 0.56021 0.98856 0.0
H626 H 0.41771 0.77704 0.91015 0.0
H627 H 0.47888 0.77552 0.9629 0.0
H628 H 0.36261 0.56367 0.8775 0.0
H629 H 0.35244 0.58012 0.95258 0.0
H630 H 0.32044 0.51197 0.88217 0.0
H631 H 0.31025 0.52824 0.95593 0.0
H632 H 0.35395 0.63604 0.85259 0.0
H633 H 0.43756 0.71343 0.87156 0.0
H634 H 0.36182 0.65349 0.80982 0.0
H635 H 0.44414 0.72942 0.82844 0.0
H636 H 0.26776 0.62609 0.92169 0.0
H637 H 0.27313 0.57042 0.86566 0.0
H638 H 0.48699 0.63154 0.84094 0.0
H639 H 0.39626 0.58898 0.81433 0.0
Li640 Li 0.75656 0.41318 0.08871 0.0
Li641 Li 0.79399 0.40411 0.10714 0.0
Li642 Li 0.79394 0.41105 0.06169 0.0
Li643 Li 0.75617 0.36481 0.08128 0.0
C644 C 0.80841 0.46927 0.08543 0.0
N645 N 0.82415 0.52842 0.07939 0.0
C646 C 0.81824 0.48875 0.10529 0.0
C647 C 0.80723 0.48008 0.06241 0.0
C648 C 0.82589 0.51851 0.10191 0.0
C649 C 0.81511 0.50999 0.05975 0.0
C650 C 0.74581 0.37276 0.13595 0.0
C651 C 0.7432 0.33974 0.16804 0.0
N652 N 0.73827 0.35649 0.18442 0.0
C653 C 0.74027 0.38938 0.15305 0.0
C654 C 0.74692 0.34753 0.14344 0.0
C655 C 0.73669 0.3809 0.17749 0.0
C656 C 0.70487 0.41847 0.0837 0.0
N657 N 0.73159 0.42963 0.09526 0.0
C658 C 0.72021 0.46021 0.12053 0.0
C659 C 0.73954 0.45015 0.11334 0.0
C660 C 0.69237 0.44885 0.10909 0.0
C661 C 0.68493 0.4281 0.09018 0.0
H662 H 0.69864 0.40147 0.06992 0.0
H663 H 0.76042 0.45789 0.12281 0.0
C664 C 0.83958 0.40582 0.13797 0.0
N665 N 0.8185 0.41399 0.13542 0.0
C666 C 0.85821 0.4149 0.15839 0.0
C667 C 0.83323 0.44077 0.17301 0.0
C668 C 0.81512 0.43119 0.15238 0.0
C669 C 0.85512 0.43261 0.17624 0.0
H670 H 0.8423 0.39272 0.12398 0.0
H671 H 0.79867 0.43795 0.14963 0.0
C672 C 0.73956 0.39386 0.03598 0.0
N673 N 0.71858 0.40064 0.99156 0.0
C674 C 0.72708 0.37021 0.0194 0.0
C675 C 0.74078 0.42074 0.03014 0.0
C676 C 0.71678 0.37414 0.99698 0.0
C677 C 0.73021 0.42379 0.00756 0.0
C678 C 0.80578 0.35878 0.07744 0.0
C679 C 0.81543 0.3543 0.05492 0.0
C680 C 0.80201 0.3397 0.0968 0.0
C681 C 0.82051 0.33038 0.052 0.0
C682 C 0.80733 0.31604 0.09317 0.0
N683 N 0.81635 0.31188 0.07102 0.0
C684 C 0.84596 0.44921 0.03434 0.0
C685 C 0.80782 0.4086 0.01242 0.0
C686 C 0.86487 0.45765 0.01413 0.0
N687 N 0.81807 0.42498 0.03313 0.0
C688 C 0.82588 0.41627 0.99181 0.0
C689 C 0.85503 0.44073 0.99266 0.0
H690 H 0.8538 0.46151 0.05119 0.0
H691 H 0.78603 0.38887 0.01213 0.0
C692 C 0.70617 0.30691 0.08868 0.0
N693 N 0.73079 0.32342 0.07478 0.0
C694 C 0.68579 0.27741 0.08231 0.0
C695 C 0.71661 0.28244 0.0476 0.0
C696 C 0.7363 0.3118 0.0546 0.0
C697 C 0.69068 0.26503 0.06128 0.0
H698 H 0.7019 0.31691 0.10429 0.0
H699 H 0.75548 0.32566 0.04341 0.0
O700 O 0.80089 0.44005 0.08844 0.0
O701 O 0.74972 0.38092 0.11196 0.0
O702 O 0.74973 0.39033 0.05803 0.0
O703 O 0.80054 0.38201 0.08059 0.0
H704 H 0.81981 0.48098 0.12318 0.0
H705 H 0.80061 0.46565 0.0467 0.0
H706 H 0.83328 0.53373 0.11717 0.0
H707 H 0.81417 0.51858 0.04203 0.0
H708 H 0.74415 0.32033 0.17409 0.0
H709 H 0.739 0.40878 0.14757 0.0
H710 H 0.75039 0.33395 0.13039 0.0
H711 H 0.73267 0.39373 0.19094 0.0
H712 H 0.7268 0.47642 0.13507 0.0
H713 H 0.66354 0.4187 0.08108 0.0
H714 H 0.87495 0.40828 0.16017 0.0
H715 H 0.83065 0.45509 0.18595 0.0
H716 H 0.72556 0.34911 0.02369 0.0
H717 H 0.74931 0.4389 0.04303 0.0
H718 H 0.70732 0.3561 0.98391 0.0
H719 H 0.7311 0.44451 1.0028 0.0
H720 H 0.8188 0.36901 0.0398 0.0
H721 H 0.79527 0.34325 0.11449 0.0
H722 H 0.82778 0.32653 0.03461 0.0
H723 H 0.80439 0.30105 0.10798 0.0
H724 H 0.88727 0.47657 0.01553 0.0
H725 H 0.81728 0.40289 0.97551 0.0
H726 H 0.66597 0.26471 0.09326 0.0
H727 H 0.72146 0.27359 0.0315 0.0
Li728 Li 0.41231 0.7933 0.27435 0.0
Li729 Li 0.36489 0.75542 0.2576 0.0
Li730 Li 0.41205 0.75367 0.2493 0.0
Li731 Li 0.40348 0.79183 0.23032 0.0
C732 C 0.38658 0.74375 0.30489 0.0
N733 N 0.37847 0.73335 0.35431 0.0
C734 C 0.37168 0.75519 0.31836 0.0
C735 C 0.39745 0.72709 0.31653 0.0
C736 C 0.36779 0.74968 0.34334 0.0
C737 C 0.39309 0.72204 0.34154 0.0
C738 C 0.35983 0.80602 0.25542 0.0
C739 C 0.32158 0.80873 0.23237 0.0
N740 N 0.31413 0.8189 0.25246 0.0
C741 C 0.35197 0.81676 0.27578 0.0
C742 C 0.34467 0.80217 0.23349 0.0
C743 C 0.32873 0.82303 0.27394 0.0
C744 C 0.42826 0.8451 0.30072 0.0
N745 N 0.42951 0.8195 0.30152 0.0
C746 C 0.4498 0.831 0.34174 0.0
C747 C 0.4407 0.81251 0.32126 0.0
C748 C 0.44751 0.85694 0.34177 0.0
C749 C 0.43717 0.86423 0.32073 0.0
H750 H 0.41963 0.85032 0.28468 0.0
H751 H 0.44192 0.79227 0.32139 0.0
C752 C 0.3096 0.70263 0.25296 0.0
N753 N 0.32333 0.72984 0.26393 0.0
C754 C 0.27993 0.68183 0.25842 0.0
C755 C 0.27904 0.71742 0.28635 0.0
C756 C 0.30866 0.73751 0.28032 0.0
C757 C 0.26437 0.68911 0.27545 0.0
H758 H 0.32196 0.69678 0.24043 0.0
H759 H 0.32005 0.75889 0.28926 0.0
C760 C 0.46753 0.80536 0.25673 0.0
N761 N 0.52297 0.82136 0.27576 0.0
C762 C 0.49302 0.83044 0.24782 0.0
C763 C 0.47022 0.7884 0.2753 0.0
C764 C 0.52086 0.83816 0.25768 0.0
C765 C 0.49844 0.79686 0.28469 0.0
C766 C 0.36929 0.73882 0.20375 0.0
C767 C 0.38439 0.72975 0.18794 0.0
C768 C 0.34314 0.73795 0.196 0.0
C769 C 0.37351 0.72077 0.16436 0.0
C770 C 0.33296 0.7288 0.1723 0.0
N771 N 0.34826 0.72052 0.15708 0.0
C772 C 0.41202 0.6993 0.25211 0.0
C773 C 0.45097 0.73664 0.22824 0.0
C774 C 0.42088 0.6787 0.24589 0.0
N775 N 0.427 0.72753 0.24313 0.0
C776 C 0.46057 0.71679 0.22155 0.0
C777 C 0.44518 0.68726 0.23012 0.0
H778 H 0.39282 0.69265 0.2637 0.0
H779 H 0.46211 0.75911 0.22104 0.0
C780 C 0.41182 0.84149 0.20208 0.0
N781 N 0.413 0.81583 0.20177 0.0
C782 C 0.42141 0.86053 0.18193 0.0
C783 C 0.4334 0.82645 0.16161 0.0
C784 C 0.42386 0.80826 0.1822 0.0
C785 C 0.43236 0.85307 0.16131 0.0
H786 H 0.40428 0.84766 0.21823 0.0
H787 H 0.42597 0.78855 0.18283 0.0
O788 O 0.39132 0.74952 0.28055 0.0
O789 O 0.38247 0.79966 0.25694 0.0
O790 O 0.44017 0.7976 0.24722 0.0
O791 O 0.37957 0.74757 0.22693 0.0
H792 H 0.36394 0.76886 0.30974 0.0
H793 H 0.40932 0.71834 0.30638 0.0
H794 H 0.35649 0.75859 0.35403 0.0
H795 H 0.4014 0.70921 0.35081 0.0
H796 H 0.30964 0.8058 0.21551 0.0
H797 H 0.36341 0.8198 0.29294 0.0
H798 H 0.35085 0.79447 0.21745 0.0
H799 H 0.32227 0.83114 0.28961 0.0
H800 H 0.45835 0.82499 0.35743 0.0
H801 H 0.43518 0.88409 0.32 0.0
H802 H 0.2696 0.65999 0.25 0.0
H803 H 0.2678 0.72384 0.2996 0.0
H804 H 0.49127 0.84377 0.23343 0.0
H805 H 0.45075 0.76891 0.2824 0.0
H806 H 0.54078 0.85752 0.25097 0.0
H807 H 0.50084 0.78395 0.29908 0.0
H808 H 0.40445 0.72992 0.19374 0.0
H809 H 0.33064 0.74396 0.20823 0.0
H810 H 0.38513 0.71397 0.15186 0.0
H811 H 0.31281 0.72814 0.16603 0.0
H812 H 0.40874 0.65628 0.2532 0.0
H813 H 0.4793 0.72418 0.20925 0.0
H814 H 0.4212 0.88133 0.18285 0.0
H815 H 0.44193 0.81998 0.1462 0.0
C816 C 0.19709 0.64088 0.31507 0.0
C817 C 0.17427 0.62491 0.29804 0.0
C818 C 0.22613 0.66148 0.30758 0.0
C819 C 0.23346 0.66692 0.28276 0.0
H820 H 0.19249 0.63731 0.33438 0.0
H821 H 0.24304 0.67309 0.32135 0.0
S822 S 0.18143 0.63228 0.23093 0.0
N823 N 0.16066 0.61675 0.25525 0.0
N824 N 0.21532 0.65548 0.24116 0.0
C825 C 0.21086 0.65117 0.26552 0.0
C826 C 0.18125 0.63018 0.27316 0.0
C827 C 0.5955 0.19208 0.45615 0.0
C828 C 0.56492 0.17162 0.45926 0.0
C829 C 0.60542 0.22125 0.44809 0.0
C830 C 0.58517 0.23116 0.44279 0.0
H831 H 0.61199 0.18572 0.46049 0.0
H832 H 0.62921 0.23624 0.44614 0.0
S833 S 0.50264 0.186 0.44695 0.0
N834 N 0.51433 0.16287 0.4552 0.0
N835 N 0.53305 0.21805 0.44096 0.0
C836 C 0.55449 0.2108 0.44539 0.0
C837 C 0.54437 0.181 0.45346 0.0
C838 C 0.41256 0.5708 0.6064 0.0
C839 C 0.41867 0.56953 0.63116 0.0
C840 C 0.39259 0.58018 0.59908 0.0
C841 C 0.37766 0.58807 0.6163 0.0
H842 H 0.42326 0.56443 0.59261 0.0
H843 H 0.38833 0.5807 0.57984 0.0
S844 S 0.38615 0.58881 0.68329 0.0
N845 N 0.40858 0.57725 0.67286 0.0
N846 N 0.37082 0.59467 0.65911 0.0
C847 C 0.38375 0.58709 0.64109 0.0
C848 C 0.40436 0.57792 0.64853 0.0
C849 C 0.86128 0.39137 0.78617 0.0
C850 C 0.8711 0.42131 0.79225 0.0
C851 C 0.83204 0.37227 0.77814 0.0
C852 C 0.81143 0.38233 0.7759 0.0
H853 H 0.8763 0.38255 0.78771 0.0
H854 H 0.82532 0.34921 0.77428 0.0
S855 S 0.8262 0.45902 0.78851 0.0
N856 N 0.85791 0.46022 0.79513 0.0
N857 N 0.8033 0.42461 0.77921 0.0
C858 C 0.82115 0.41241 0.78132 0.0
C859 C 0.85088 0.43183 0.78964 0.0
C860 C 0.49758 0.86191 0.95523 0.0
C861 C 0.47642 0.87002 0.96224 0.0
C862 C 0.48871 0.83303 0.94694 0.0
C863 C 0.45835 0.81121 0.94525 0.0
H864 H 0.52121 0.87806 0.95607 0.0
H865 H 0.50574 0.82776 0.94175 0.0
S866 S 0.39423 0.82047 0.96279 0.0
N867 N 0.42382 0.8535 0.96787 0.0
N868 N 0.40715 0.79926 0.95216 0.0
C869 C 0.43696 0.81897 0.95222 0.0
C870 C 0.446 0.84836 0.96073 0.0
C871 C 0.63848 0.47849 0.10745 0.0
C872 C 0.62995 0.47683 0.13195 0.0
C873 C 0.65842 0.46908 0.10015 0.0
C874 C 0.67089 0.45812 0.11716 0.0
H875 H 0.62956 0.48703 0.09381 0.0
H876 H 0.6645 0.47083 0.08113 0.0
S877 S 0.6556 0.44903 0.18343 0.0
N878 N 0.63534 0.46324 0.17318 0.0
N879 N 0.67281 0.4455 0.15946 0.0
C880 C 0.66244 0.45622 0.14169 0.0
C881 C 0.64193 0.46554 0.14908 0.0
C882 C 0.40719 0.84563 0.52361 0.0
C883 C 0.41761 0.86912 0.54051 0.0
C884 C 0.38697 0.81619 0.53053 0.0
C885 C 0.37669 0.80915 0.55466 0.0
H886 H 0.41417 0.85014 0.50478 0.0
H887 H 0.37929 0.79879 0.51689 0.0
S888 S 0.39812 0.86246 0.606 0.0
N889 N 0.41699 0.88332 0.58256 0.0
N890 N 0.37877 0.82802 0.59551 0.0
C891 C 0.3874 0.83236 0.57182 0.0
C892 C 0.40786 0.86234 0.56475 0.0
C893 C 0.56694 0.40541 0.72878 0.0
C894 C 0.5672 0.41209 0.70396 0.0
C895 C 0.57567 0.3851 0.73664 0.0
C896 C 0.58511 0.37086 0.71997 0.0
H897 H 0.55936 0.41551 0.74216 0.0
H898 H 0.57458 0.38016 0.75588 0.0
S899 S 0.59283 0.38334 0.65322 0.0
N900 N 0.57939 0.40448 0.66293 0.0
N901 N 0.59635 0.36677 0.67764 0.0
C902 C 0.58622 0.37804 0.69514 0.0
C903 C 0.57714 0.39854 0.68716 0.0
C904 C 0.18282 0.56733 0.89485 0.0
C905 C 0.17573 0.56924 0.87045 0.0
C906 C 0.21226 0.57675 0.90195 0.0
C907 C 0.23555 0.58801 0.88484 0.0
H908 H 0.16548 0.55852 0.90856 0.0
H909 H 0.21674 0.57472 0.92089 0.0
S910 S 0.22876 0.59793 0.81876 0.0
N911 N 0.19436 0.58341 0.82921 0.0
N912 N 0.24973 0.60129 0.84255 0.0
C913 C 0.22879 0.59025 0.86042 0.0
C914 C 0.19888 0.58087 0.85323 0.0
C915 C 0.63787 0.18119 0.06314 0.0
C916 C 0.62749 0.17437 0.03902 0.0
C917 C 0.65796 0.21058 0.07027 0.0
C918 C 0.66864 0.23423 0.05348 0.0
H919 H 0.6304 0.16363 0.07663 0.0
H920 H 0.66561 0.21475 0.08895 0.0
S921 S 0.64788 0.22836 0.98826 0.0
N922 N 0.62924 0.1937 0.99839 0.0
N923 N 0.66654 0.24903 0.01186 0.0
C924 C 0.65814 0.22778 0.02938 0.0
C925 C 0.63764 0.19786 0.02215 0.0
C926 C 0.49377 0.65358 0.21505 0.0
C927 C 0.47319 0.62525 0.2058 0.0
C928 C 0.48448 0.67333 0.22311 0.0
C929 C 0.45425 0.66551 0.22221 0.0
H930 H 0.51725 0.66047 0.21619 0.0
H931 H 0.50108 0.69487 0.23019 0.0
S932 S 0.39184 0.59476 0.19805 0.0
N933 N 0.42146 0.5908 0.1953 0.0
N934 N 0.40395 0.62798 0.21034 0.0
C935 C 0.43346 0.63729 0.21289 0.0
C936 C 0.44293 0.61716 0.20472 0.0
C937 C 0.86214 0.47359 0.39452 0.0
C938 C 0.86882 0.4702 0.37033 0.0
C939 C 0.83282 0.46441 0.40173 0.0
C940 C 0.80914 0.45179 0.38496 0.0
H941 H 0.87974 0.48344 0.408 0.0
H942 H 0.82872 0.46772 0.42048 0.0
S943 S 0.81463 0.43737 0.31963 0.0
N944 N 0.84932 0.45304 0.32967 0.0
N945 N 0.79411 0.43536 0.34331 0.0
C946 C 0.81544 0.4479 0.3608 0.0
C947 C 0.84528 0.45715 0.35347 0.0
C948 C 0.15513 0.58298 0.43351 0.0
C949 C 0.12392 0.56756 0.43611 0.0
C950 C 0.17388 0.58946 0.45378 0.0
C951 C 0.16206 0.58056 0.47735 0.0
H952 H 0.16512 0.59072 0.41576 0.0
H953 H 0.1978 0.60224 0.45105 0.0
S954 S 0.08173 0.53639 0.4933 0.0
N955 N 0.08197 0.54156 0.46365 0.0
N956 N 0.11711 0.55324 0.5017 0.0
C957 C 0.13085 0.56416 0.48 0.0
C958 C 0.11181 0.55778 0.4594 0.0
C959 C 0.59599 0.13101 0.61127 0.0
C960 C 0.57121 0.12884 0.59882 0.0
C961 C 0.60857 0.15027 0.6312 0.0
C962 C 0.59709 0.16836 0.63915 0.0
H963 H 0.60544 0.11736 0.60579 0.0
H964 H 0.62755 0.15116 0.64036 0.0
S965 S 0.53263 0.17125 0.61261 0.0
N966 N 0.53585 0.14663 0.5957 0.0
N967 N 0.5594 0.18273 0.6332 0.0
C968 C 0.57244 0.16655 0.62676 0.0
C969 C 0.55951 0.14679 0.60661 0.0
C970 C 0.47568 0.5702 0.78774 0.0
C971 C 0.46665 0.57139 0.76383 0.0
C972 C 0.4682 0.58278 0.80715 0.0
C973 C 0.45153 0.59715 0.80337 0.0
H974 H 0.48825 0.55905 0.79152 0.0
H975 H 0.47508 0.58075 0.82532 0.0
S976 S 0.42496 0.60869 0.74386 0.0
N977 N 0.44166 0.58948 0.73719 0.0
N978 N 0.42786 0.61346 0.77363 0.0
C979 C 0.44289 0.59901 0.77945 0.0
C980 C 0.45039 0.58606 0.75971 0.0
C981 C 0.91098 0.48475 0.94288 0.0
C982 C 0.91511 0.46292 0.93112 0.0
C983 C 0.89159 0.47745 0.96278 0.0
C984 C 0.87539 0.44798 0.97151 0.0
H985 H 0.92318 0.50777 0.9369 0.0
H986 H 0.8891 0.49496 0.9713 0.0
S987 S 0.87806 0.38252 0.94699 0.0
N988 N 0.901 0.41053 0.92939 0.0
N989 N 0.86509 0.39691 0.96707 0.0
C990 C 0.87924 0.42593 0.95986 0.0
C991 C 0.89898 0.43337 0.93963 0.0
C992 C 0.48425 0.90019 0.11037 0.0
C993 C 0.4694 0.91412 0.10013 0.0
C994 C 0.47199 0.88038 0.12995 0.0
C995 C 0.44436 0.87367 0.14014 0.0
H996 H 0.50551 0.90453 0.10311 0.0
H997 H 0.48451 0.87056 0.1374 0.0
S998 S 0.39635 0.90405 0.11998 0.0
N999 N 0.42569 0.9201 0.10187 0.0
N1000 N 0.40218 0.88207 0.13815 0.0
C1001 C 0.42915 0.88727 0.12999 0.0
C1002 C 0.44172 0.90759 0.11009 0.0
C1003 C 0.56831 0.44227 0.2666 0.0
C1004 C 0.57928 0.47318 0.265 0.0
C1005 C 0.57559 0.42998 0.28639 0.0
C1006 C 0.59363 0.44813 0.30548 0.0
H1007 H 0.5541 0.4275 0.25238 0.0
H1008 H 0.56667 0.40606 0.28697 0.0
S1009 S 0.62811 0.53035 0.30989 0.0
N1010 N 0.60923 0.52165 0.28409 0.0
N1011 N 0.62279 0.49854 0.32134 0.0
C1012 C 0.6048 0.47905 0.30406 0.0
C1013 C 0.59769 0.49159 0.28379 0.0
C1014 C 0.48123 0.92625 0.38154 0.0
C1015 C 0.46953 0.91488 0.40471 0.0
C1016 C 0.47421 0.90733 0.36137 0.0
C1017 C 0.45546 0.87629 0.36364 0.0
H1018 H 0.49559 0.95004 0.37889 0.0
H1019 H 0.48359 0.91709 0.34385 0.0
S1020 S 0.4194 0.83527 0.42039 0.0
N1021 N 0.4387 0.87058 0.42886 0.0
N1022 N 0.4252 0.83501 0.39088 0.0
C1023 C 0.44381 0.86458 0.38674 0.0
C1024 C 0.45085 0.88388 0.40727 0.0
C1025 C 0.59554 0.48239 0.55717 0.0
C1026 C 0.56969 0.4606 0.56907 0.0
C1027 C 0.60746 0.47497 0.53722 0.0
C1028 C 0.59418 0.44543 0.52866 0.0
H1029 H 0.60636 0.50544 0.56308 0.0
H1030 H 0.62735 0.49243 0.52855 0.0
S1031 S 0.52639 0.38009 0.55368 0.0
N1032 N 0.53148 0.40823 0.57112 0.0
N1033 N 0.55362 0.39434 0.53347 0.0
C1034 C 0.56843 0.42342 0.5405 0.0
C1035 C 0.55623 0.431 0.56071 0.0
C1036 C 0.14835 0.60164 0.73396 0.0
C1037 C 0.1312 0.57061 0.73763 0.0
C1038 C 0.16823 0.61358 0.71434 0.0
C1039 C 0.17169 0.59491 0.69766 0.0
H1040 H 0.14651 0.61683 0.74646 0.0
H1041 H 0.18116 0.63761 0.71232 0.0
S1042 S 0.13018 0.51208 0.69803 0.0
N1043 N 0.11787 0.52145 0.72226 0.0
N1044 N 0.15509 0.54381 0.68537 0.0
C1045 C 0.15443 0.56383 0.70099 0.0
C1046 C 0.13425 0.5517 0.72096 0.0
C1047 C 0.56775 0.14392 0.89995 0.0
C1048 C 0.58226 0.1276 0.90483 0.0
C1049 C 0.57588 0.16327 0.87994 0.0
C1050 C 0.59885 0.16704 0.8641 0.0
H1051 H 0.55012 0.1419 0.91181 0.0
H1052 H 0.56435 0.17565 0.87701 0.0
S1053 S 0.64202 0.12753 0.86765 0.0
N1054 N 0.61951 0.11521 0.89138 0.0
N1055 N 0.63481 0.15158 0.85384 0.0
C1056 C 0.61325 0.15055 0.86859 0.0
C1057 C 0.60497 0.13086 0.88893 0.0
C1058 C 0.47749 0.5738 0.0455 0.0
C1059 C 0.47145 0.57825 0.0696 0.0
C1060 C 0.46507 0.58097 0.02576 0.0
C1061 C 0.44635 0.59311 0.02937 0.0
H1062 H 0.4918 0.56452 0.04186 0.0
H1063 H 0.47063 0.5775 0.00752 0.0
S1064 S 0.42345 0.60894 0.08889 0.0
N1065 N 0.44557 0.5956 0.09599 0.0
N1066 N 0.42189 0.6087 0.05889 0.0
C1067 C 0.44 0.59751 0.05338 0.0
C1068 C 0.45257 0.59012 0.07348 0.0
C1069 C 0.9263 0.46869 0.21391 0.0
C1070 C 0.91583 0.46786 0.23767 0.0
C1071 C 0.90651 0.45688 0.19423 0.0
C1072 C 0.87549 0.44371 0.19757 0.0
H1073 H 0.95003 0.47901 0.21045 0.0
H1074 H 0.91563 0.45862 0.17618 0.0
S1075 S 0.83663 0.43337 0.25649 0.0
N1076 N 0.87242 0.45122 0.26368 0.0
N1077 N 0.83517 0.42878 0.22672 0.0
C1078 C 0.86471 0.44214 0.22133 0.0
C1079 C 0.88488 0.45428 0.24135 0.0
loop_
_geom_bond_atom_site_label_1
_geom_bond_atom_site_label_2
_geom_bond_distance
_geom_bond_site_symmetry_2
_ccdc_geom_bond_type
H0 C19 0.949 . S
H1 C20 0.950 . S
H2 C22 0.950 . S
H3 C23 0.950 . S
H4 C25 0.950 . S
H5 C28 0.950 . S
H6 C29 0.950 . S
H7 C31 0.951 . S
H8 C32 0.949 . S
H9 C34 0.949 . S
H10 C35 0.950 . S
H11 C37 0.950 . S
H12 C38 0.950 . S
H13 C40 0.950 . S
H14 C43 0.950 . S
H15 C44 0.950 . S
H16 C46 0.951 . S
H17 C47 0.949 . S
C18 C19 1.376 . S
C18 C23 1.386 . S
C18 C24 1.483 . S
C19 H0 0.949 . S
C19 C18 1.376 . S
C19 C20 1.397 . S
C20 H1 0.950 . S
C20 C19 1.397 . S
C20 C21 1.391 . S
C21 C20 1.391 . S
C21 C22 1.405 . S
C22 H2 0.950 . S
C22 C21 1.405 . S
C22 C23 1.367 . S
C23 H3 0.950 . S
C23 C18 1.386 . S
C23 C22 1.367 . S
C24 C18 1.483 . S
C24 C25 1.382 1_655 S
C24 C26 1.403 . S
C25 H4 0.950 . S
C25 C24 1.382 1_455 S
C25 C41 1.411 . S
C26 C24 1.403 . S
C26 C27 1.489 . S
C26 C40 1.411 1_655 S
C27 C26 1.489 . S
C27 C28 1.383 . S
C27 C32 1.382 . S
C28 H5 0.950 . S
C28 C27 1.383 . S
C28 C29 1.395 . S
C29 H6 0.950 . S
C29 C28 1.395 . S
C29 C30 1.288 . S
C30 C29 1.288 . S
C30 C31 1.392 . S
C31 H7 0.951 . S
C31 C30 1.392 . S
C31 C32 1.392 . S
C32 H8 0.949 . S
C32 C27 1.382 . S
C32 C31 1.392 . S
C33 C34 1.376 . S
C33 C38 1.386 . S
C33 C39 1.483 . S
C34 H9 0.949 . S
C34 C33 1.376 . S
C34 C35 1.397 . S
C35 H10 0.950 . S
C35 C34 1.397 . S
C35 C36 1.391 . S
C36 C35 1.391 . S
C36 C37 1.405 . S
C37 H11 0.950 . S
C37 C36 1.405 . S
C37 C38 1.367 . S
C38 H12 0.950 . S
C38 C33 1.386 . S
C38 C37 1.367 . S
C39 C33 1.483 . S
C39 C40 1.382 . S
C39 C41 1.403 . S
C40 H13 0.950 . S
C40 C26 1.411 1_455 S
C40 C39 1.382 . S
C41 C25 1.411 . S
C41 C39 1.403 . S
C41 C42 1.489 . S
C42 C41 1.489 . S
C42 C43 1.383 . S
C42 C47 1.382 . S
C43 H14 0.950 . S
C43 C42 1.383 . S
C43 C44 1.395 . S
C44 H15 0.950 . S
C44 C43 1.395 . S
C44 C45 1.288 . S
C45 C44 1.288 . S
C45 C46 1.392 . S
C46 H16 0.951 . S
C46 C45 1.392 . S
C46 C47 1.392 . S
C47 H17 0.949 . S
C47 C42 1.382 . S
C47 C46 1.392 . S
H48 C67 0.949 . S
H49 C68 0.950 . S
H50 C70 0.950 . S
H51 C71 0.950 . S
H52 C73 0.950 . S
H53 C76 0.950 . S
H54 C77 0.950 . S
H55 C79 0.951 . S
H56 C80 0.949 . S
H57 C82 0.949 . S
H58 C83 0.950 . S
H59 C85 0.950 . S
H60 C86 0.950 . S
H61 C88 0.950 . S
H62 C91 0.950 . S
H63 C92 0.950 . S
H64 C94 0.951 . S
H65 C95 0.949 . S
C66 C67 1.376 . S
C66 C71 1.386 . S
C66 C72 1.483 . S
C67 H48 0.949 . S
C67 C66 1.376 . S
C67 C68 1.397 . S
C68 H49 0.950 . S
C68 C67 1.397 . S
C68 C69 1.391 . S
C69 C68 1.391 . S
C69 C70 1.405 . S
C70 H50 0.950 . S
C70 C69 1.405 . S
C70 C71 1.367 . S
C71 H51 0.950 . S
C71 C66 1.386 . S
C71 C70 1.367 . S
C72 C66 1.483 . S
C72 C73 1.382 1_565 S
C72 C74 1.403 . S
C73 H52 0.950 . S
C73 C72 1.382 1_545 S
C73 C89 1.411 . S
C74 C72 1.403 . S
C74 C75 1.489 . S
C74 C88 1.411 1_565 S
C75 C74 1.489 . S
C75 C76 1.383 . S
C75 C80 1.382 . S
C76 H53 0.950 . S
C76 C75 1.383 . S
C76 C77 1.395 . S
C77 H54 0.950 . S
C77 C76 1.395 . S
C77 C78 1.288 . S
C78 C77 1.288 . S
C78 C79 1.392 . S
C79 H55 0.951 . S
C79 C78 1.392 . S
C79 C80 1.392 . S
C80 H56 0.949 . S
C80 C75 1.382 . S
C80 C79 1.392 . S
C81 C82 1.376 . S
C81 C86 1.386 . S
C81 C87 1.483 . S
C82 H57 0.949 . S
C82 C81 1.376 . S
C82 C83 1.397 . S
C83 H58 0.950 . S
C83 C82 1.397 . S
C83 C84 1.391 . S
C84 C83 1.391 . S
C84 C85 1.405 . S
C85 H59 0.950 . S
C85 C84 1.405 . S
C85 C86 1.367 . S
C86 H60 0.950 . S
C86 C81 1.386 . S
C86 C85 1.367 . S
C87 C81 1.483 . S
C87 C88 1.382 . S
C87 C89 1.403 . S
C88 H61 0.950 . S
C88 C74 1.411 1_545 S
C88 C87 1.382 . S
C89 C73 1.411 . S
C89 C87 1.403 . S
C89 C90 1.489 . S
C90 C89 1.489 . S
C90 C91 1.383 . S
C90 C95 1.382 . S
C91 H62 0.950 . S
C91 C90 1.383 . S
C91 C92 1.395 . S
C92 H63 0.950 . S
C92 C91 1.395 . S
C92 C93 1.288 . S
C93 C92 1.288 . S
C93 C94 1.392 . S
C94 H64 0.951 . S
C94 C93 1.392 . S
C94 C95 1.392 . S
C95 H65 0.949 . S
C95 C90 1.382 . S
C95 C94 1.392 . S
H96 C115 0.949 . S
H97 C116 0.950 . S
H98 C118 0.950 . S
H99 C119 0.950 . S
H100 C121 0.950 . S
H101 C124 0.950 . S
H102 C125 0.950 . S
H103 C127 0.951 . S
H104 C128 0.949 . S
H105 C130 0.949 . S
H106 C131 0.950 . S
H107 C133 0.950 . S
H108 C134 0.950 . S
H109 C136 0.950 . S
H110 C139 0.950 . S
H111 C140 0.950 . S
H112 C142 0.951 . S
H113 C143 0.949 . S
C114 C115 1.376 . S
C114 C119 1.386 . S
C114 C120 1.483 . S
C115 H96 0.949 . S
C115 C114 1.376 . S
C115 C116 1.397 . S
C116 H97 0.950 . S
C116 C115 1.397 . S
C116 C117 1.391 . S
C117 C116 1.391 . S
C117 C118 1.405 . S
C118 H98 0.950 . S
C118 C117 1.405 . S
C118 C119 1.367 . S
C119 H99 0.950 . S
C119 C114 1.386 . S
C119 C118 1.367 . S
C120 C114 1.483 . S
C120 C121 1.382 . S
C120 C122 1.403 . S
C121 H100 0.950 . S
C121 C120 1.382 . S
C121 C137 1.411 . S
C122 C120 1.403 . S
C122 C123 1.489 . S
C122 C136 1.411 . S
C123 C122 1.489 . S
C123 C124 1.383 . S
C123 C128 1.382 . S
C124 H101 0.950 . S
C124 C123 1.383 . S
C124 C125 1.395 . S
C125 H102 0.950 . S
C125 C124 1.395 . S
C125 C126 1.288 . S
C126 C125 1.288 . S
C126 C127 1.392 . S
C127 H103 0.951 . S
C127 C126 1.392 . S
C127 C128 1.392 . S
C128 H104 0.949 . S
C128 C123 1.382 . S
C128 C127 1.392 . S
C129 C130 1.376 . S
C129 C134 1.386 . S
C129 C135 1.483 . S
C130 H105 0.949 . S
C130 C129 1.376 . S
C130 C131 1.397 . S
C131 H106 0.950 . S
C131 C130 1.397 . S
C131 C132 1.391 . S
C132 C131 1.391 . S
C132 C133 1.405 . S
C133 H107 0.950 . S
C133 C132 1.405 . S
C133 C134 1.367 . S
C134 H108 0.950 . S
C134 C129 1.386 . S
C134 C133 1.367 . S
C135 C129 1.483 . S
C135 C136 1.382 . S
C135 C137 1.403 . S
C136 H109 0.950 . S
C136 C122 1.411 . S
C136 C135 1.382 . S
C137 C121 1.411 . S
C137 C135 1.403 . S
C137 C138 1.489 . S
C138 C137 1.489 . S
C138 C139 1.383 . S
C138 C143 1.382 . S
C139 H110 0.950 . S
C139 C138 1.383 . S
C139 C140 1.395 . S
C140 H111 0.950 . S
C140 C139 1.395 . S
C140 C141 1.288 . S
C141 C140 1.288 . S
C141 C142 1.392 . S
C142 H112 0.951 . S
C142 C141 1.392 . S
C142 C143 1.392 . S
C143 H113 0.949 . S
C143 C138 1.382 . S
C143 C142 1.392 . S
H144 C163 0.949 . S
H145 C164 0.950 . S
H146 C166 0.950 . S
H147 C167 0.950 . S
H148 C169 0.950 . S
H149 C172 0.950 . S
H150 C173 0.950 . S
H151 C175 0.951 . S
H152 C176 0.949 . S
H153 C178 0.949 . S
H154 C179 0.950 . S
H155 C181 0.950 . S
H156 C182 0.950 . S
H157 C184 0.950 . S
H158 C187 0.950 . S
H159 C188 0.950 . S
H160 C190 0.951 . S
H161 C191 0.949 . S
C162 C163 1.376 . S
C162 C167 1.386 . S
C162 C168 1.483 . S
C163 H144 0.949 . S
C163 C162 1.376 . S
C163 C164 1.397 . S
C164 H145 0.950 . S
C164 C163 1.397 . S
C164 C165 1.391 . S
C165 C164 1.391 . S
C165 C166 1.405 . S
C166 H146 0.950 . S
C166 C165 1.405 . S
C166 C167 1.367 . S
C167 H147 0.950 . S
C167 C162 1.386 . S
C167 C166 1.367 . S
C168 C162 1.483 . S
C168 C169 1.382 . S
C168 C170 1.403 . S
C169 H148 0.950 . S
C169 C168 1.382 . S
C169 C185 1.411 1_455 S
C170 C168 1.403 . S
C170 C171 1.489 . S
C170 C184 1.411 . S
C171 C170 1.489 . S
C171 C172 1.383 . S
C171 C176 1.382 . S
C172 H149 0.950 . S
C172 C171 1.383 . S
C172 C173 1.395 . S
C173 H150 0.950 . S
C173 C172 1.395 . S
C173 C174 1.288 . S
C174 C173 1.288 . S
C174 C175 1.392 . S
C175 H151 0.951 . S
C175 C174 1.392 . S
C175 C176 1.392 . S
C176 H152 0.949 . S
C176 C171 1.382 . S
C176 C175 1.392 . S
C177 C178 1.376 . S
C177 C182 1.386 . S
C177 C183 1.483 . S
C178 H153 0.949 . S
C178 C177 1.376 . S
C178 C179 1.397 . S
C179 H154 0.950 . S
C179 C178 1.397 . S
C179 C180 1.391 . S
C180 C179 1.391 . S
C180 C181 1.405 . S
C181 H155 0.950 . S
C181 C180 1.405 . S
C181 C182 1.367 . S
C182 H156 0.950 . S
C182 C177 1.386 . S
C182 C181 1.367 . S
C183 C177 1.483 . S
C183 C184 1.382 1_655 S
C183 C185 1.403 . S
C184 H157 0.950 . S
C184 C170 1.411 . S
C184 C183 1.382 1_455 S
C185 C169 1.411 1_655 S
C185 C183 1.403 . S
C185 C186 1.489 . S
C186 C185 1.489 . S
C186 C187 1.383 . S
C186 C191 1.382 . S
C187 H158 0.950 . S
C187 C186 1.383 . S
C187 C188 1.395 . S
C188 H159 0.950 . S
C188 C187 1.395 . S
C188 C189 1.288 . S
C189 C188 1.288 . S
C189 C190 1.392 . S
C190 H160 0.951 . S
C190 C189 1.392 . S
C190 C191 1.392 . S
C191 H161 0.949 . S
C191 C186 1.382 . S
C191 C190 1.392 . S
H192 C211 0.949 . S
H193 C212 0.950 . S
H194 C214 0.950 . S
H195 C215 0.950 1_556 S
H196 C217 0.950 . S
H197 C220 0.950 . S
H198 C221 0.950 . S
H199 C223 0.951 . S
H200 C224 0.949 . S
H201 C226 0.949 . S
H202 C227 0.950 . S
H203 C229 0.950 . S
H204 C230 0.963 . S
H205 C232 0.950 . S
H206 C235 0.950 . S
H207 C236 0.950 . S
H208 C238 0.951 . S
H209 C239 0.949 . S
C210 C211 1.376 . S
C210 C215 1.386 . S
C210 C216 1.488 . S
C211 H192 0.949 . S
C211 C210 1.376 . S
C211 C212 1.397 . S
C212 H193 0.950 . S
C212 C211 1.397 . S
C212 C213 1.391 . S
C213 C212 1.391 . S
C213 C214 1.405 . S
C214 H194 0.950 . S
C214 C213 1.405 . S
C214 C215 1.367 . S
C215 H195 0.950 1_554 S
C215 C210 1.386 . S
C215 C214 1.367 . S
C216 C210 1.488 . S
C216 C217 1.397 . S
C216 C218 1.383 1_554 S
C217 H196 0.950 . S
C217 C216 1.397 . S
C217 C233 1.411 1_545 S
C218 C216 1.383 1_556 S
C218 C219 1.489 . S
C218 C232 1.411 . S
C219 C218 1.489 . S
C219 C220 1.383 . S
C219 C224 1.382 . S
C220 H197 0.950 . S
C220 C219 1.383 . S
C220 C221 1.395 . S
C221 H198 0.950 . S
C221 C220 1.395 . S
C221 C222 1.288 . S
C222 C221 1.288 . S
C222 C223 1.392 . S
C223 H199 0.951 . S
C223 C222 1.392 . S
C223 C224 1.392 . S
C224 H200 0.949 . S
C224 C219 1.382 . S
C224 C223 1.392 . S
C225 C226 1.376 . S
C225 C230 1.386 . S
C225 C231 1.483 . S
C226 H201 0.949 . S
C226 C225 1.376 . S
C226 C227 1.397 . S
C227 H202 0.950 . S
C227 C226 1.397 . S
C227 C228 1.391 . S
C228 C227 1.391 . S
C228 C229 1.405 . S
C229 H203 0.950 . S
C229 C228 1.405 . S
C229 C230 1.367 . S
C230 H204 0.963 . S
C230 C225 1.386 . S
C230 C229 1.367 . S
C231 C225 1.483 . S
C231 C232 1.382 1_565 S
C231 C233 1.403 1_556 S
C232 H205 0.950 . S
C232 C218 1.411 . S
C232 C231 1.382 1_545 S
C233 C217 1.411 1_565 S
C233 C231 1.403 1_554 S
C233 C234 1.489 . S
C234 C233 1.489 . S
C234 C235 1.383 . S
C234 C239 1.382 . S
C235 H206 0.950 . S
C235 C234 1.383 . S
C235 C236 1.395 . S
C236 H207 0.950 . S
C236 C235 1.395 . S
C236 C237 1.288 . S
C237 C236 1.288 . S
C237 C238 1.392 . S
C238 H208 0.951 . S
C238 C237 1.392 . S
C238 C239 1.392 . S
C239 H209 0.949 . S
C239 C234 1.382 . S
C239 C238 1.392 . S
H240 C259 0.949 . S
H241 C260 0.950 . S
H242 C262 0.950 . S
H243 C263 0.950 . S
H244 C265 0.950 . S
H245 C268 0.950 . S
H246 C269 0.950 . S
H247 C271 0.951 . S
H248 C272 0.949 . S
H249 C274 0.949 . S
H250 C275 0.950 . S
H251 C277 0.950 . S
H252 C278 0.950 . S
H253 C280 0.950 . S
H254 C283 0.950 . S
H255 C284 0.950 . S
H256 C286 0.951 . S
H257 C287 0.949 . S
C258 C259 1.376 . S
C258 C263 1.386 . S
C258 C264 1.483 . S
C259 H240 0.949 . S
C259 C258 1.376 . S
C259 C260 1.397 . S
C260 H241 0.950 . S
C260 C259 1.397 . S
C260 C261 1.391 . S
C261 C260 1.391 . S
C261 C262 1.405 . S
C262 H242 0.950 . S
C262 C261 1.405 . S
C262 C263 1.367 . S
C263 H243 0.950 . S
C263 C258 1.386 . S
C263 C262 1.367 . S
C264 C258 1.483 . S
C264 C265 1.382 . S
C264 C266 1.403 . S
C265 H244 0.950 . S
C265 C264 1.382 . S
C265 C281 1.411 . S
C266 C264 1.403 . S
C266 C267 1.489 . S
C266 C280 1.411 . S
C267 C266 1.489 . S
C267 C268 1.383 . S
C267 C272 1.382 . S
C268 H245 0.950 . S
C268 C267 1.383 . S
C268 C269 1.395 . S
C269 H246 0.950 . S
C269 C268 1.395 . S
C269 C270 1.288 . S
C270 C269 1.288 . S
C270 C271 1.392 . S
C271 H247 0.951 . S
C271 C270 1.392 . S
C271 C272 1.392 . S
C272 H248 0.949 . S
C272 C267 1.382 . S
C272 C271 1.392 . S
C273 C274 1.376 . S
C273 C278 1.386 . S
C273 C279 1.483 . S
C274 H249 0.949 . S
C274 C273 1.376 . S
C274 C275 1.397 . S
C275 H250 0.950 . S
C275 C274 1.397 . S
C275 C276 1.391 . S
C276 C275 1.391 . S
C276 C277 1.405 . S
C277 H251 0.950 . S
C277 C276 1.405 . S
C277 C278 1.367 . S
C278 H252 0.950 . S
C278 C273 1.386 . S
C278 C277 1.367 . S
C279 C273 1.483 . S
C279 C280 1.382 . S
C279 C281 1.403 . S
C280 H253 0.950 . S
C280 C266 1.411 . S
C280 C279 1.382 . S
C281 C265 1.411 . S
C281 C279 1.403 . S
C281 C282 1.489 . S
C282 C281 1.489 . S
C282 C283 1.383 . S
C282 C287 1.382 . S
C283 H254 0.950 . S
C283 C282 1.383 . S
C283 C284 1.395 . S
C284 H255 0.950 . S
C284 C283 1.395 . S
C284 C285 1.288 . S
C285 C284 1.288 . S
C285 C286 1.392 . S
C286 H256 0.951 . S
C286 C285 1.392 . S
C286 C287 1.392 . S
C287 H257 0.949 . S
C287 C282 1.382 . S
C287 C286 1.392 . S
Li288 N305 1.990 . S
Li288 O348 1.956 . S
Li288 O349 1.970 . S
Li288 O350 1.961 . S
Li289 N313 1.990 . S
Li289 O348 1.970 . S
Li289 O349 1.956 . S
Li289 O351 1.961 . S
Li290 N335 1.990 . S
Li290 O348 1.961 . S
Li290 O350 1.956 . S
Li290 O351 1.970 . S
Li291 N341 1.990 . S
Li291 O349 1.961 . S
Li291 O350 1.970 . S
Li291 O351 1.956 . S
C292 C294 1.348 . S
C292 C295 1.356 . S
C292 O348 1.325 . S
N293 C296 1.314 . S
N293 C297 1.279 . S
C294 C292 1.348 . S
C294 C296 1.353 . S
C294 H352 0.929 . S
C295 C292 1.356 . S
C295 C297 1.358 . S
C295 H353 0.930 . S
C296 N293 1.314 . S
C296 C294 1.353 . S
C296 H354 0.930 . S
C297 N293 1.279 . S
C297 C295 1.358 . S
C297 H355 0.930 . S
C298 C301 1.348 . S
C298 C302 1.356 . S
C298 O349 1.325 . S
C299 N300 1.279 . S
C299 C302 1.358 . S
C299 H356 0.930 . S
N300 C299 1.279 . S
N300 C303 1.314 . S
C301 C298 1.348 . S
C301 C303 1.353 . S
C301 H357 0.929 . S
C302 C298 1.356 . S
C302 C299 1.358 . S
C302 H358 0.930 . S
C303 N300 1.314 . S
C303 C301 1.353 . S
C303 H359 0.930 . S
C304 N305 1.314 . S
C304 C309 1.353 . S
C304 H310 0.930 . S
N305 Li288 1.990 . S
N305 C304 1.314 . S
N305 C307 1.279 . S
C306 C307 1.358 . S
C306 C308 1.356 . S
C306 H360 0.930 . S
C307 N305 1.279 . S
C307 C306 1.358 . S
C307 H311 0.930 . S
C308 C306 1.356 . S
C308 C309 1.348 . S
C309 C304 1.353 . S
C309 C308 1.348 . S
C309 H361 0.929 . S
H310 C304 0.930 . S
H311 C307 0.930 . S
C312 N313 1.314 . S
C312 C314 1.353 . S
C312 H318 0.930 . S
N313 Li289 1.990 . S
N313 C312 1.314 . S
N313 C316 1.279 . S
C314 C312 1.353 . S
C314 C317 1.348 . S
C314 H362 0.929 . S
C315 C316 1.358 . S
C315 C317 1.356 . S
C315 H363 0.930 . S
C316 N313 1.279 . S
C316 C315 1.358 . S
C316 H319 0.930 . S
C317 C314 1.348 . S
C317 C315 1.356 . S
H318 C312 0.930 . S
H319 C316 0.930 . S
C320 C322 1.348 . S
C320 C323 1.356 . S
C320 O350 1.325 . S
N321 C324 1.314 . S
N321 C325 1.279 . S
C322 C320 1.348 . S
C322 C324 1.353 . S
C322 H364 0.929 . S
C323 C320 1.356 . S
C323 C325 1.358 . S
C323 H365 0.930 . S
C324 N321 1.314 . S
C324 C322 1.353 . S
C324 H366 0.930 . S
C325 N321 1.279 . S
C325 C323 1.358 . S
C325 H367 0.930 . S
C326 C327 1.348 . S
C326 C328 1.356 . S
C326 O351 1.325 . S
C327 C326 1.348 . S
C327 C329 1.353 . S
C327 H368 0.929 . S
C328 C326 1.356 . S
C328 C330 1.358 . S
C328 H369 0.930 . S
C329 C327 1.353 . S
C329 N331 1.314 . S
C329 H370 0.930 . S
C330 C328 1.358 . S
C330 N331 1.279 . S
C330 H371 0.930 . S
N331 C329 1.314 . S
N331 C330 1.279 . S
C332 C334 1.353 . S
C332 N335 1.314 . S
C332 H338 0.930 . S
C333 N335 1.279 . S
C333 C336 1.358 . S
C333 H339 0.930 . S
C334 C332 1.353 . S
C334 C337 1.348 . S
C334 H372 0.929 . S
N335 Li290 1.990 . S
N335 C332 1.314 . S
N335 C333 1.279 . S
C336 C333 1.358 . S
C336 C337 1.356 . S
C336 H373 0.930 . S
C337 C334 1.348 . S
C337 C336 1.356 . S
H338 C332 0.930 . S
H339 C333 0.930 . S
C340 N341 1.314 . S
C340 C342 1.353 . S
C340 H346 0.930 . S
N341 Li291 1.990 . S
N341 C340 1.314 . S
N341 C344 1.279 . S
C342 C340 1.353 . S
C342 C345 1.348 . S
C342 H374 0.929 . S
C343 C344 1.358 . S
C343 C345 1.356 . S
C343 H375 0.930 . S
C344 N341 1.279 . S
C344 C343 1.358 . S
C344 H347 0.930 . S
C345 C342 1.348 . S
C345 C343 1.356 . S
H346 C340 0.930 . S
H347 C344 0.930 . S
O348 Li288 1.956 . S
O348 Li289 1.970 . S
O348 Li290 1.961 . S
O348 C292 1.325 . S
O349 Li288 1.970 . S
O349 Li289 1.956 . S
O349 Li291 1.961 . S
O349 C298 1.325 . S
O350 Li288 1.961 . S
O350 Li290 1.956 . S
O350 Li291 1.970 . S
O350 C320 1.325 . S
O351 Li289 1.961 . S
O351 Li290 1.970 . S
O351 Li291 1.956 . S
O351 C326 1.325 . S
H352 C294 0.929 . S
H353 C295 0.930 . S
H354 C296 0.930 . S
H355 C297 0.930 . S
H356 C299 0.930 . S
H357 C301 0.929 . S
H358 C302 0.930 . S
H359 C303 0.930 . S
H360 C306 0.930 . S
H361 C309 0.929 . S
H362 C314 0.929 . S
H363 C315 0.930 . S
H364 C322 0.929 . S
H365 C323 0.930 . S
H366 C324 0.930 . S
H367 C325 0.930 . S
H368 C327 0.929 . S
H369 C328 0.930 . S
H370 C329 0.930 . S
H371 C330 0.930 . S
H372 C334 0.929 . S
H373 C336 0.930 . S
H374 C342 0.929 . S
H375 C343 0.930 . S
Li376 N393 1.990 . S
Li376 O436 1.956 . S
Li376 O437 1.970 . S
Li376 O438 1.961 . S
Li377 N401 1.990 . S
Li377 O436 1.970 . S
Li377 O437 1.956 . S
Li377 O439 1.961 . S
Li378 N423 1.990 . S
Li378 O436 1.961 . S
Li378 O438 1.956 . S
Li378 O439 1.970 . S
Li379 N429 1.990 . S
Li379 O437 1.961 . S
Li379 O438 1.970 . S
Li379 O439 1.956 . S
C380 C382 1.348 . S
C380 C383 1.356 . S
C380 O436 1.325 . S
N381 C384 1.314 . S
N381 C385 1.279 . S
C382 C380 1.348 . S
C382 C384 1.353 . S
C382 H440 0.929 . S
C383 C380 1.356 . S
C383 C385 1.358 . S
C383 H441 0.930 . S
C384 N381 1.314 . S
C384 C382 1.353 . S
C384 H442 0.930 . S
C385 N381 1.279 . S
C385 C383 1.358 . S
C385 H443 0.930 . S
C386 C389 1.348 . S
C386 C390 1.356 . S
C386 O437 1.325 . S
C387 N388 1.279 . S
C387 C390 1.358 . S
C387 H444 0.930 . S
N388 C387 1.279 . S
N388 C391 1.314 . S
C389 C386 1.348 . S
C389 C391 1.353 . S
C389 H445 0.929 . S
C390 C386 1.356 . S
C390 C387 1.358 . S
C390 H446 0.930 . S
C391 N388 1.314 . S
C391 C389 1.353 . S
C391 H447 0.930 . S
C392 N393 1.314 . S
C392 C397 1.353 . S
C392 H398 0.930 . S
N393 Li376 1.990 . S
N393 C392 1.314 . S
N393 C395 1.279 . S
C394 C395 1.358 . S
C394 C396 1.356 . S
C394 H448 0.930 . S
C395 N393 1.279 . S
C395 C394 1.358 . S
C395 H399 0.930 . S
C396 C394 1.356 . S
C396 C397 1.348 . S
C397 C392 1.353 . S
C397 C396 1.348 . S
C397 H449 0.929 . S
H398 C392 0.930 . S
H399 C395 0.930 . S
C400 N401 1.314 . S
C400 C402 1.353 . S
C400 H406 0.930 . S
N401 Li377 1.990 . S
N401 C400 1.314 . S
N401 C404 1.279 . S
C402 C400 1.353 . S
C402 C405 1.348 . S
C402 H450 0.929 . S
C403 C404 1.358 . S
C403 C405 1.356 . S
C403 H451 0.930 . S
C404 N401 1.279 . S
C404 C403 1.358 . S
C404 H407 0.930 . S
C405 C402 1.348 . S
C405 C403 1.356 . S
H406 C400 0.930 . S
H407 C404 0.930 . S
C408 C410 1.348 . S
C408 C411 1.356 . S
C408 O438 1.325 . S
N409 C412 1.314 . S
N409 C413 1.279 . S
C410 C408 1.348 . S
C410 C412 1.353 . S
C410 H452 0.929 . S
C411 C408 1.356 . S
C411 C413 1.358 . S
C411 H453 0.930 . S
C412 N409 1.314 . S
C412 C410 1.353 . S
C412 H454 0.930 . S
C413 N409 1.279 . S
C413 C411 1.358 . S
C413 H455 0.930 . S
C414 C415 1.348 . S
C414 C416 1.356 . S
C414 O439 1.325 . S
C415 C414 1.348 . S
C415 C417 1.353 . S
C415 H456 0.929 . S
C416 C414 1.356 . S
C416 C418 1.358 . S
C416 H457 0.930 . S
C417 C415 1.353 . S
C417 N419 1.314 . S
C417 H458 0.930 . S
C418 C416 1.358 . S
C418 N419 1.279 . S
C418 H459 0.930 . S
N419 C417 1.314 . S
N419 C418 1.279 . S
C420 C422 1.353 . S
C420 N423 1.314 . S
C420 H426 0.930 . S
C421 N423 1.279 . S
C421 C424 1.358 . S
C421 H427 0.930 . S
C422 C420 1.353 . S
C422 C425 1.348 . S
C422 H460 0.929 . S
N423 Li378 1.990 . S
N423 C420 1.314 . S
N423 C421 1.279 . S
C424 C421 1.358 . S
C424 C425 1.356 . S
C424 H461 0.930 . S
C425 C422 1.348 . S
C425 C424 1.356 . S
H426 C420 0.930 . S
H427 C421 0.930 . S
C428 N429 1.314 . S
C428 C430 1.353 . S
C428 H434 0.930 . S
N429 Li379 1.990 . S
N429 C428 1.314 . S
N429 C432 1.279 . S
C430 C428 1.353 . S
C430 C433 1.348 . S
C430 H462 0.929 . S
C431 C432 1.358 . S
C431 C433 1.356 . S
C431 H463 0.930 . S
C432 N429 1.279 . S
C432 C431 1.358 . S
C432 H435 0.930 . S
C433 C430 1.348 . S
C433 C431 1.356 . S
H434 C428 0.930 . S
H435 C432 0.930 . S
O436 Li376 1.956 . S
O436 Li377 1.970 . S
O436 Li378 1.961 . S
O436 C380 1.325 . S
O437 Li376 1.970 . S
O437 Li377 1.956 . S
O437 Li379 1.961 . S
O437 C386 1.325 . S
O438 Li376 1.961 . S
O438 Li378 1.956 . S
O438 Li379 1.970 . S
O438 C408 1.325 . S
O439 Li377 1.961 . S
O439 Li378 1.970 . S
O439 Li379 1.956 . S
O439 C414 1.325 . S
H440 C382 0.929 . S
H441 C383 0.930 . S
H442 C384 0.930 . S
H443 C385 0.930 . S
H444 C387 0.930 . S
H445 C389 0.929 . S
H446 C390 0.930 . S
H447 C391 0.930 . S
H448 C394 0.930 . S
H449 C397 0.929 . S
H450 C402 0.929 . S
H451 C403 0.930 . S
H452 C410 0.929 . S
H453 C411 0.930 . S
H454 C412 0.930 . S
H455 C413 0.930 . S
H456 C415 0.929 . S
H457 C416 0.930 . S
H458 C417 0.930 . S
H459 C418 0.930 . S
H460 C422 0.929 . S
H461 C424 0.930 . S
H462 C430 0.929 . S
H463 C431 0.930 . S
Li464 N481 1.990 . S
Li464 O524 1.956 . S
Li464 O525 1.970 . S
Li464 O526 1.961 . S
Li465 N489 1.990 . S
Li465 O524 1.970 . S
Li465 O525 1.956 . S
Li465 O527 1.961 . S
Li466 N511 1.990 . S
Li466 O524 1.961 . S
Li466 O526 1.956 . S
Li466 O527 1.970 . S
Li467 N517 1.990 . S
Li467 O525 1.961 . S
Li467 O526 1.970 . S
Li467 O527 1.956 . S
C468 C470 1.348 . S
C468 C471 1.356 . S
C468 O524 1.325 . S
N469 C472 1.314 . S
N469 C473 1.279 . S
C470 C468 1.348 . S
C470 C472 1.353 . S
C470 H528 0.929 . S
C471 C468 1.356 . S
C471 C473 1.358 . S
C471 H529 0.930 . S
C472 N469 1.314 . S
C472 C470 1.353 . S
C472 H530 0.930 . S
C473 N469 1.279 . S
C473 C471 1.358 . S
C473 H531 0.930 . S
C474 C477 1.348 . S
C474 C478 1.356 . S
C474 O525 1.325 . S
C475 N476 1.279 . S
C475 C478 1.358 . S
C475 H532 0.930 . S
N476 C475 1.279 . S
N476 C479 1.314 . S
C477 C474 1.348 . S
C477 C479 1.353 . S
C477 H533 0.929 . S
C478 C474 1.356 . S
C478 C475 1.358 . S
C478 H534 0.930 . S
C479 N476 1.314 . S
C479 C477 1.353 . S
C479 H535 0.930 . S
C480 N481 1.314 . S
C480 C485 1.353 . S
C480 H486 0.930 . S
N481 Li464 1.990 . S
N481 C480 1.314 . S
N481 C483 1.279 . S
C482 C483 1.358 . S
C482 C484 1.356 . S
C482 H536 0.930 . S
C483 N481 1.279 . S
C483 C482 1.358 . S
C483 H487 0.930 . S
C484 C482 1.356 . S
C484 C485 1.348 . S
C485 C480 1.353 . S
C485 C484 1.348 . S
C485 H537 0.929 . S
H486 C480 0.930 . S
H487 C483 0.930 . S
C488 N489 1.314 . S
C488 C490 1.353 . S
C488 H494 0.930 . S
N489 Li465 1.990 . S
N489 C488 1.314 . S
N489 C492 1.279 . S
C490 C488 1.353 . S
C490 C493 1.348 . S
C490 H538 0.929 . S
C491 C492 1.358 . S
C491 C493 1.356 . S
C491 H539 0.930 . S
C492 N489 1.279 . S
C492 C491 1.358 . S
C492 H495 0.930 . S
C493 C490 1.348 . S
C493 C491 1.356 . S
H494 C488 0.930 . S
H495 C492 0.930 . S
C496 C498 1.348 . S
C496 C499 1.356 . S
C496 O526 1.325 . S
N497 C500 1.314 . S
N497 C501 1.279 . S
C498 C496 1.348 . S
C498 C500 1.353 . S
C498 H540 0.929 . S
C499 C496 1.356 . S
C499 C501 1.358 . S
C499 H541 0.930 . S
C500 N497 1.314 . S
C500 C498 1.353 . S
C500 H542 0.930 . S
C501 N497 1.279 . S
C501 C499 1.358 . S
C501 H543 0.930 . S
C502 C503 1.348 . S
C502 C504 1.356 . S
C502 O527 1.325 . S
C503 C502 1.348 . S
C503 C505 1.353 . S
C503 H544 0.929 . S
C504 C502 1.356 . S
C504 C506 1.358 . S
C504 H545 0.930 . S
C505 C503 1.353 . S
C505 N507 1.314 . S
C505 H546 0.930 . S
C506 C504 1.358 . S
C506 N507 1.279 . S
C506 H547 0.930 . S
N507 C505 1.314 . S
N507 C506 1.279 . S
C508 C510 1.353 . S
C508 N511 1.314 . S
C508 H514 0.930 . S
C509 N511 1.279 . S
C509 C512 1.358 . S
C509 H515 0.930 . S
C510 C508 1.353 . S
C510 C513 1.348 . S
C510 H548 0.929 . S
N511 Li466 1.990 . S
N511 C508 1.314 . S
N511 C509 1.279 . S
C512 C509 1.358 . S
C512 C513 1.356 . S
C512 H549 0.930 . S
C513 C510 1.348 . S
C513 C512 1.356 . S
H514 C508 0.930 . S
H515 C509 0.930 . S
C516 N517 1.314 . S
C516 C518 1.353 . S
C516 H522 0.930 . S
N517 Li467 1.990 . S
N517 C516 1.314 . S
N517 C520 1.279 . S
C518 C516 1.353 . S
C518 C521 1.348 . S
C518 H550 0.929 . S
C519 C520 1.358 . S
C519 C521 1.356 . S
C519 H551 0.930 . S
C520 N517 1.279 . S
C520 C519 1.358 . S
C520 H523 0.930 . S
C521 C518 1.348 . S
C521 C519 1.356 . S
H522 C516 0.930 . S
H523 C520 0.930 . S
O524 Li464 1.956 . S
O524 Li465 1.970 . S
O524 Li466 1.961 . S
O524 C468 1.325 . S
O525 Li464 1.970 . S
O525 Li465 1.956 . S
O525 Li467 1.961 . S
O525 C474 1.325 . S
O526 Li464 1.961 . S
O526 Li466 1.956 . S
O526 Li467 1.970 . S
O526 C496 1.325 . S
O527 Li465 1.961 . S
O527 Li466 1.970 . S
O527 Li467 1.956 . S
O527 C502 1.325 . S
H528 C470 0.929 . S
H529 C471 0.930 . S
H530 C472 0.930 . S
H531 C473 0.930 . S
H532 C475 0.930 . S
H533 C477 0.929 . S
H534 C478 0.930 . S
H535 C479 0.930 . S
H536 C482 0.930 . S
H537 C485 0.929 . S
H538 C490 0.929 . S
H539 C491 0.930 . S
H540 C498 0.929 . S
H541 C499 0.930 . S
H542 C500 0.930 . S
H543 C501 0.930 . S
H544 C503 0.929 . S
H545 C504 0.930 . S
H546 C505 0.930 . S
H547 C506 0.930 . S
H548 C510 0.929 . S
H549 C512 0.930 . S
H550 C518 0.929 . S
H551 C519 0.930 . S
Li552 N569 1.990 . S
Li552 O612 1.956 . S
Li552 O613 1.970 . S
Li552 O614 1.961 . S
Li553 N577 1.990 . S
Li553 O612 1.970 . S
Li553 O613 1.956 . S
Li553 O615 1.961 . S
Li554 N599 1.990 . S
Li554 O612 1.961 . S
Li554 O614 1.956 . S
Li554 O615 1.970 . S
Li555 N605 1.990 . S
Li555 O613 1.961 . S
Li555 O614 1.970 . S
Li555 O615 1.956 . S
C556 C558 1.348 . S
C556 C559 1.356 . S
C556 O612 1.325 . S
N557 C560 1.314 . S
N557 C561 1.279 . S
C558 C556 1.348 . S
C558 C560 1.353 . S
C558 H616 0.929 . S
C559 C556 1.356 . S
C559 C561 1.358 . S
C559 H617 0.930 . S
C560 N557 1.314 . S
C560 C558 1.353 . S
C560 H618 0.930 . S
C561 N557 1.279 . S
C561 C559 1.358 . S
C561 H619 0.930 . S
C562 C565 1.348 . S
C562 C566 1.356 . S
C562 O613 1.325 . S
C563 N564 1.279 . S
C563 C566 1.358 . S
C563 H620 0.930 . S
N564 C563 1.279 . S
N564 C567 1.314 . S
C565 C562 1.348 . S
C565 C567 1.353 . S
C565 H621 0.929 . S
C566 C562 1.356 . S
C566 C563 1.358 . S
C566 H622 0.930 . S
C567 N564 1.314 . S
C567 C565 1.353 . S
C567 H623 0.930 . S
C568 N569 1.314 . S
C568 C573 1.353 . S
C568 H574 0.930 . S
N569 Li552 1.990 . S
N569 C568 1.314 . S
N569 C571 1.279 . S
C570 C571 1.358 1_554 S
C570 C572 1.356 . S
C570 H624 0.930 . S
C571 N569 1.279 . S
C571 C570 1.358 1_556 S
C571 H575 0.930 . S
C572 C570 1.356 . S
C572 C573 1.348 1_554 S
C573 C568 1.353 . S
C573 C572 1.348 1_556 S
C573 H625 0.929 . S
H574 C568 0.930 . S
H575 C571 0.930 . S
C576 N577 1.314 . S
C576 C578 1.353 . S
C576 H582 0.930 . S
N577 Li553 1.990 . S
N577 C576 1.314 . S
N577 C580 1.279 . S
C578 C576 1.353 . S
C578 C581 1.348 . S
C578 H626 0.929 . S
C579 C580 1.358 . S
C579 C581 1.356 . S
C579 H627 0.930 . S
C580 N577 1.279 . S
C580 C579 1.358 . S
C580 H583 0.930 . S
C581 C578 1.348 . S
C581 C579 1.356 . S
H582 C576 0.930 . S
H583 C580 0.930 . S
C584 C586 1.348 . S
C584 C587 1.356 . S
C584 O614 1.325 . S
N585 C588 1.314 . S
N585 C589 1.279 . S
C586 C584 1.348 . S
C586 C588 1.353 . S
C586 H628 0.929 . S
C587 C584 1.356 . S
C587 C589 1.358 . S
C587 H629 0.930 . S
C588 N585 1.314 . S
C588 C586 1.353 . S
C588 H630 0.930 . S
C589 N585 1.279 . S
C589 C587 1.358 . S
C589 H631 0.930 . S
C590 C591 1.348 . S
C590 C592 1.356 . S
C590 O615 1.325 . S
C591 C590 1.348 . S
C591 C593 1.353 . S
C591 H632 0.929 . S
C592 C590 1.356 . S
C592 C594 1.358 . S
C592 H633 0.930 . S
C593 C591 1.353 . S
C593 N595 1.314 . S
C593 H634 0.930 . S
C594 C592 1.358 . S
C594 N595 1.279 . S
C594 H635 0.930 . S
N595 C593 1.314 . S
N595 C594 1.279 . S
C596 C598 1.353 . S
C596 N599 1.314 . S
C596 H602 0.930 . S
C597 N599 1.279 . S
C597 C600 1.358 . S
C597 H603 0.930 . S
C598 C596 1.353 . S
C598 C601 1.348 . S
C598 H636 0.929 . S
N599 Li554 1.990 . S
N599 C596 1.314 . S
N599 C597 1.279 . S
C600 C597 1.358 . S
C600 C601 1.356 . S
C600 H637 0.930 . S
C601 C598 1.348 . S
C601 C600 1.356 . S
H602 C596 0.930 . S
H603 C597 0.930 . S
C604 N605 1.314 . S
C604 C606 1.353 . S
C604 H610 0.930 . S
N605 Li555 1.990 . S
N605 C604 1.314 . S
N605 C608 1.279 . S
C606 C604 1.353 . S
C606 C609 1.348 . S
C606 H638 0.929 . S
C607 C608 1.358 . S
C607 C609 1.356 . S
C607 H639 0.930 . S
C608 N605 1.279 . S
C608 C607 1.358 . S
C608 H611 0.930 . S
C609 C606 1.348 . S
C609 C607 1.356 . S
H610 C604 0.930 . S
H611 C608 0.930 . S
O612 Li552 1.956 . S
O612 Li553 1.970 . S
O612 Li554 1.961 . S
O612 C556 1.325 . S
O613 Li552 1.970 . S
O613 Li553 1.956 . S
O613 Li555 1.961 . S
O613 C562 1.325 . S
O614 Li552 1.961 . S
O614 Li554 1.956 . S
O614 Li555 1.970 . S
O614 C584 1.325 . S
O615 Li553 1.961 . S
O615 Li554 1.970 . S
O615 Li555 1.956 . S
O615 C590 1.325 . S
H616 C558 0.929 . S
H617 C559 0.930 . S
H618 C560 0.930 . S
H619 C561 0.930 . S
H620 C563 0.930 . S
H621 C565 0.929 . S
H622 C566 0.930 . S
H623 C567 0.930 . S
H624 C570 0.930 . S
H625 C573 0.929 . S
H626 C578 0.929 . S
H627 C579 0.930 . S
H628 C586 0.929 . S
H629 C587 0.930 . S
H630 C588 0.930 . S
H631 C589 0.930 . S
H632 C591 0.929 . S
H633 C592 0.930 . S
H634 C593 0.930 . S
H635 C594 0.930 . S
H636 C598 0.929 . S
H637 C600 0.930 . S
H638 C606 0.929 . S
H639 C607 0.930 . S
Li640 N657 1.990 . S
Li640 O700 1.956 . S
Li640 O701 1.970 . S
Li640 O702 1.961 . S
Li641 N665 1.990 . S
Li641 O700 1.970 . S
Li641 O701 1.956 . S
Li641 O703 1.961 . S
Li642 N687 1.990 . S
Li642 O700 1.961 . S
Li642 O702 1.956 . S
Li642 O703 1.970 . S
Li643 N693 1.990 . S
Li643 O701 1.961 . S
Li643 O702 1.970 . S
Li643 O703 1.956 . S
C644 C646 1.348 . S
C644 C647 1.356 . S
C644 O700 1.325 . S
N645 C648 1.314 . S
N645 C649 1.279 . S
C646 C644 1.348 . S
C646 C648 1.353 . S
C646 H704 0.929 . S
C647 C644 1.356 . S
C647 C649 1.358 . S
C647 H705 0.930 . S
C648 N645 1.314 . S
C648 C646 1.353 . S
C648 H706 0.930 . S
C649 N645 1.279 . S
C649 C647 1.358 . S
C649 H707 0.930 . S
C650 C653 1.348 . S
C650 C654 1.356 . S
C650 O701 1.325 . S
C651 N652 1.279 . S
C651 C654 1.358 . S
C651 H708 0.930 . S
N652 C651 1.279 . S
N652 C655 1.314 . S
C653 C650 1.348 . S
C653 C655 1.353 . S
C653 H709 0.929 . S
C654 C650 1.356 . S
C654 C651 1.358 . S
C654 H710 0.930 . S
C655 N652 1.314 . S
C655 C653 1.353 . S
C655 H711 0.930 . S
C656 N657 1.314 . S
C656 C661 1.353 . S
C656 H662 0.930 . S
N657 Li640 1.990 . S
N657 C656 1.314 . S
N657 C659 1.279 . S
C658 C659 1.358 . S
C658 C660 1.356 . S
C658 H712 0.930 . S
C659 N657 1.279 . S
C659 C658 1.358 . S
C659 H663 0.930 . S
C660 C658 1.356 . S
C660 C661 1.348 . S
C661 C656 1.353 . S
C661 C660 1.348 . S
C661 H713 0.929 . S
H662 C656 0.930 . S
H663 C659 0.930 . S
C664 N665 1.314 . S
C664 C666 1.353 . S
C664 H670 0.930 . S
N665 Li641 1.990 . S
N665 C664 1.314 . S
N665 C668 1.279 . S
C666 C664 1.353 . S
C666 C669 1.348 . S
C666 H714 0.929 . S
C667 C668 1.358 . S
C667 C669 1.356 . S
C667 H715 0.930 . S
C668 N665 1.279 . S
C668 C667 1.358 . S
C668 H671 0.930 . S
C669 C666 1.348 . S
C669 C667 1.356 . S
H670 C664 0.930 . S
H671 C668 0.930 . S
C672 C674 1.348 . S
C672 C675 1.356 . S
C672 O702 1.325 . S
N673 C676 1.314 1_556 S
N673 C677 1.279 1_556 S
C674 C672 1.348 . S
C674 C676 1.353 . S
C674 H716 0.929 . S
C675 C672 1.356 . S
C675 C677 1.358 . S
C675 H717 0.930 . S
C676 N673 1.314 1_554 S
C676 C674 1.353 . S
C676 H718 0.930 1_554 S
C677 N673 1.279 1_554 S
C677 C675 1.358 . S
C677 H719 0.930 1_554 S
C678 C679 1.348 . S
C678 C680 1.356 . S
C678 O703 1.325 . S
C679 C678 1.348 . S
C679 C681 1.353 . S
C679 H720 0.929 . S
C680 C678 1.356 . S
C680 C682 1.358 . S
C680 H721 0.930 . S
C681 C679 1.353 . S
C681 N683 1.314 . S
C681 H722 0.930 . S
C682 C680 1.358 . S
C682 N683 1.279 . S
C682 H723 0.930 . S
N683 C681 1.314 . S
N683 C682 1.279 . S
C684 C686 1.353 . S
C684 N687 1.314 . S
C684 H690 0.930 . S
C685 N687 1.279 . S
C685 C688 1.358 1_554 S
C685 H691 0.930 . S
C686 C684 1.353 . S
C686 C689 1.348 1_554 S
C686 H724 0.929 . S
N687 Li642 1.990 . S
N687 C684 1.314 . S
N687 C685 1.279 . S
C688 C685 1.358 1_556 S
C688 C689 1.356 . S
C688 H725 0.930 . S
C689 C686 1.348 1_556 S
C689 C688 1.356 . S
H690 C684 0.930 . S
H691 C685 0.930 . S
C692 N693 1.314 . S
C692 C694 1.353 . S
C692 H698 0.930 . S
N693 Li643 1.990 . S
N693 C692 1.314 . S
N693 C696 1.279 . S
C694 C692 1.353 . S
C694 C697 1.348 . S
C694 H726 0.929 . S
C695 C696 1.358 . S
C695 C697 1.356 . S
C695 H727 0.930 . S
C696 N693 1.279 . S
C696 C695 1.358 . S
C696 H699 0.930 . S
C697 C694 1.348 . S
C697 C695 1.356 . S
H698 C692 0.930 . S
H699 C696 0.930 . S
O700 Li640 1.956 . S
O700 Li641 1.970 . S
O700 Li642 1.961 . S
O700 C644 1.325 . S
O701 Li640 1.970 . S
O701 Li641 1.956 . S
O701 Li643 1.961 . S
O701 C650 1.325 . S
O702 Li640 1.961 . S
O702 Li642 1.956 . S
O702 Li643 1.970 . S
O702 C672 1.325 . S
O703 Li641 1.961 . S
O703 Li642 1.970 . S
O703 Li643 1.956 . S
O703 C678 1.325 . S
H704 C646 0.929 . S
H705 C647 0.930 . S
H706 C648 0.930 . S
H707 C649 0.930 . S
H708 C651 0.930 . S
H709 C653 0.929 . S
H710 C654 0.930 . S
H711 C655 0.930 . S
H712 C658 0.930 . S
H713 C661 0.929 . S
H714 C666 0.929 . S
H715 C667 0.930 . S
H716 C674 0.929 . S
H717 C675 0.930 . S
H718 C676 0.930 1_556 S
H719 C677 0.930 1_556 S
H720 C679 0.929 . S
H721 C680 0.930 . S
H722 C681 0.930 . S
H723 C682 0.930 . S
H724 C686 0.929 . S
H725 C688 0.930 . S
H726 C694 0.929 . S
H727 C695 0.930 . S
Li728 N745 1.990 . S
Li728 O788 1.956 . S
Li728 O789 1.970 . S
Li728 O790 1.961 . S
Li729 N753 1.990 . S
Li729 O788 1.970 . S
Li729 O789 1.956 . S
Li729 O791 1.961 . S
Li730 N775 1.990 . S
Li730 O788 1.961 . S
Li730 O790 1.956 . S
Li730 O791 1.970 . S
Li731 N781 1.990 . S
Li731 O789 1.961 . S
Li731 O790 1.970 . S
Li731 O791 1.956 . S
C732 C734 1.348 . S
C732 C735 1.356 . S
C732 O788 1.325 . S
N733 C736 1.314 . S
N733 C737 1.279 . S
C734 C732 1.348 . S
C734 C736 1.353 . S
C734 H792 0.929 . S
C735 C732 1.356 . S
C735 C737 1.358 . S
C735 H793 0.930 . S
C736 N733 1.314 . S
C736 C734 1.353 . S
C736 H794 0.930 . S
C737 N733 1.279 . S
C737 C735 1.358 . S
C737 H795 0.930 . S
C738 C741 1.348 . S
C738 C742 1.356 . S
C738 O789 1.325 . S
C739 N740 1.279 . S
C739 C742 1.358 . S
C739 H796 0.930 . S
N740 C739 1.279 . S
N740 C743 1.314 . S
C741 C738 1.348 . S
C741 C743 1.353 . S
C741 H797 0.929 . S
C742 C738 1.356 . S
C742 C739 1.358 . S
C742 H798 0.930 . S
C743 N740 1.314 . S
C743 C741 1.353 . S
C743 H799 0.930 . S
C744 N745 1.314 . S
C744 C749 1.353 . S
C744 H750 0.930 . S
N745 Li728 1.990 . S
N745 C744 1.314 . S
N745 C747 1.279 . S
C746 C747 1.358 . S
C746 C748 1.356 . S
C746 H800 0.930 . S
C747 N745 1.279 . S
C747 C746 1.358 . S
C747 H751 0.930 . S
C748 C746 1.356 . S
C748 C749 1.348 . S
C749 C744 1.353 . S
C749 C748 1.348 . S
C749 H801 0.929 . S
H750 C744 0.930 . S
H751 C747 0.930 . S
C752 N753 1.314 . S
C752 C754 1.353 . S
C752 H758 0.930 . S
N753 Li729 1.990 . S
N753 C752 1.314 . S
N753 C756 1.279 . S
C754 C752 1.353 . S
C754 C757 1.348 . S
C754 H802 0.929 . S
C755 C756 1.358 . S
C755 C757 1.356 . S
C755 H803 0.930 . S
C756 N753 1.279 . S
C756 C755 1.358 . S
C756 H759 0.930 . S
C757 C754 1.348 . S
C757 C755 1.356 . S
H758 C752 0.930 . S
H759 C756 0.930 . S
C760 C762 1.348 . S
C760 C763 1.356 . S
C760 O790 1.325 . S
N761 C764 1.314 . S
N761 C765 1.279 . S
C762 C760 1.348 . S
C762 C764 1.353 . S
C762 H804 0.929 . S
C763 C760 1.356 . S
C763 C765 1.358 . S
C763 H805 0.930 . S
C764 N761 1.314 . S
C764 C762 1.353 . S
C764 H806 0.930 . S
C765 N761 1.279 . S
C765 C763 1.358 . S
C765 H807 0.930 . S
C766 C767 1.348 . S
C766 C768 1.356 . S
C766 O791 1.325 . S
C767 C766 1.348 . S
C767 C769 1.353 . S
C767 H808 0.929 . S
C768 C766 1.356 . S
C768 C770 1.358 . S
C768 H809 0.930 . S
C769 C767 1.353 . S
C769 N771 1.314 . S
C769 H810 0.930 . S
C770 C768 1.358 . S
C770 N771 1.279 . S
C770 H811 0.930 . S
N771 C769 1.314 . S
N771 C770 1.279 . S
C772 C774 1.353 . S
C772 N775 1.314 . S
C772 H778 0.930 . S
C773 N775 1.279 . S
C773 C776 1.358 . S
C773 H779 0.930 . S
C774 C772 1.353 . S
C774 C777 1.348 . S
C774 H812 0.929 . S
N775 Li730 1.990 . S
N775 C772 1.314 . S
N775 C773 1.279 . S
C776 C773 1.358 . S
C776 C777 1.356 . S
C776 H813 0.930 . S
C777 C774 1.348 . S
C777 C776 1.356 . S
H778 C772 0.930 . S
H779 C773 0.930 . S
C780 N781 1.314 . S
C780 C782 1.353 . S
C780 H786 0.930 . S
N781 Li731 1.990 . S
N781 C780 1.314 . S
N781 C784 1.279 . S
C782 C780 1.353 . S
C782 C785 1.348 . S
C782 H814 0.929 . S
C783 C784 1.358 . S
C783 C785 1.356 . S
C783 H815 0.930 . S
C784 N781 1.279 . S
C784 C783 1.358 . S
C784 H787 0.930 . S
C785 C782 1.348 . S
C785 C783 1.356 . S
H786 C780 0.930 . S
H787 C784 0.930 . S
O788 Li728 1.956 . S
O788 Li729 1.970 . S
O788 Li730 1.961 . S
O788 C732 1.325 . S
O789 Li728 1.970 . S
O789 Li729 1.956 . S
O789 Li731 1.961 . S
O789 C738 1.325 . S
O790 Li728 1.961 . S
O790 Li730 1.956 . S
O790 Li731 1.970 . S
O790 C760 1.325 . S
O791 Li729 1.961 . S
O791 Li730 1.970 . S
O791 Li731 1.956 . S
O791 C766 1.325 . S
H792 C734 0.929 . S
H793 C735 0.930 . S
H794 C736 0.930 . S
H795 C737 0.930 . S
H796 C739 0.930 . S
H797 C741 0.929 . S
H798 C742 0.930 . S
H799 C743 0.930 . S
H800 C746 0.930 . S
H801 C749 0.929 . S
H802 C754 0.929 . S
H803 C755 0.930 . S
H804 C762 0.929 . S
H805 C763 0.930 . S
H806 C764 0.930 . S
H807 C765 0.930 . S
H808 C767 0.929 . S
H809 C768 0.930 . S
H810 C769 0.930 . S
H811 C770 0.930 . S
H812 C774 0.929 . S
H813 C776 0.930 . S
H814 C782 0.929 . S
H815 C783 0.930 . S
C816 C817 1.369 . S
C816 C818 1.419 . S
C816 H820 0.930 . S
C817 C816 1.369 . S
C817 C826 1.429 . S
C818 C816 1.419 . S
C818 C819 1.363 . S
C818 H821 0.929 . S
C819 C818 1.363 . S
C819 C825 1.428 . S
H820 C816 0.930 . S
H821 C818 0.929 . S
S822 N823 1.613 . S
S822 N824 1.610 . S
N823 S822 1.613 . S
N823 C826 1.350 . S
N824 S822 1.610 . S
N824 C825 1.351 . S
C825 C819 1.428 . S
C825 N824 1.351 . S
C825 C826 1.434 . S
C826 C817 1.429 . S
C826 N823 1.350 . S
C826 C825 1.434 . S
C827 C828 1.369 . S
C827 C829 1.419 . S
C827 H831 0.930 . S
C828 C827 1.369 . S
C828 C837 1.429 . S
C829 C827 1.419 . S
C829 C830 1.363 . S
C829 H832 0.929 . S
C830 C829 1.363 . S
C830 C836 1.428 . S
H831 C827 0.930 . S
H832 C829 0.929 . S
S833 N834 1.613 . S
S833 N835 1.610 . S
N834 S833 1.613 . S
N834 C837 1.350 . S
N835 S833 1.610 . S
N835 C836 1.351 . S
C836 C830 1.428 . S
C836 N835 1.351 . S
C836 C837 1.434 . S
C837 C828 1.429 . S
C837 N834 1.350 . S
C837 C836 1.434 . S
C838 C839 1.369 . S
C838 C840 1.419 . S
C838 H842 0.930 . S
C839 C838 1.369 . S
C839 C848 1.429 . S
C840 C838 1.419 . S
C840 C841 1.363 . S
C840 H843 0.929 . S
C841 C840 1.363 . S
C841 C847 1.428 . S
H842 C838 0.930 . S
H843 C840 0.929 . S
S844 N845 1.613 . S
S844 N846 1.610 . S
N845 S844 1.613 . S
N845 C848 1.350 . S
N846 S844 1.610 . S
N846 C847 1.351 . S
C847 C841 1.428 . S
C847 N846 1.351 . S
C847 C848 1.434 . S
C848 C839 1.429 . S
C848 N845 1.350 . S
C848 C847 1.434 . S
C849 C850 1.369 . S
C849 C851 1.419 . S
C849 H853 0.930 . S
C850 C849 1.369 . S
C850 C859 1.429 . S
C851 C849 1.419 . S
C851 C852 1.363 . S
C851 H854 0.929 . S
C852 C851 1.363 . S
C852 C858 1.428 . S
H853 C849 0.930 . S
H854 C851 0.929 . S
S855 N856 1.613 . S
S855 N857 1.610 . S
N856 S855 1.613 . S
N856 C859 1.350 . S
N857 S855 1.610 . S
N857 C858 1.351 . S
C858 C852 1.428 . S
C858 N857 1.351 . S
C858 C859 1.434 . S
C859 C850 1.429 . S
C859 N856 1.350 . S
C859 C858 1.434 . S
C860 C861 1.369 . S
C860 C862 1.419 . S
C860 H864 0.930 . S
C861 C860 1.369 . S
C861 C870 1.429 . S
C862 C860 1.419 . S
C862 C863 1.363 . S
C862 H865 0.929 . S
C863 C862 1.363 . S
C863 C869 1.428 . S
H864 C860 0.930 . S
H865 C862 0.929 . S
S866 N867 1.613 . S
S866 N868 1.610 . S
N867 S866 1.613 . S
N867 C870 1.350 . S
N868 S866 1.610 . S
N868 C869 1.351 . S
C869 C863 1.428 . S
C869 N868 1.351 . S
C869 C870 1.434 . S
C870 C861 1.429 . S
C870 N867 1.350 . S
C870 C869 1.434 . S
C871 C872 1.369 . S
C871 C873 1.419 . S
C871 H875 0.930 . S
C872 C871 1.369 . S
C872 C881 1.429 . S
C873 C871 1.419 . S
C873 C874 1.363 . S
C873 H876 0.929 . S
C874 C873 1.363 . S
C874 C880 1.428 . S
H875 C871 0.930 . S
H876 C873 0.929 . S
S877 N878 1.613 . S
S877 N879 1.610 . S
N878 S877 1.613 . S
N878 C881 1.350 . S
N879 S877 1.610 . S
N879 C880 1.351 . S
C880 C874 1.428 . S
C880 N879 1.351 . S
C880 C881 1.434 . S
C881 C872 1.429 . S
C881 N878 1.350 . S
C881 C880 1.434 . S
C882 C883 1.369 . S
C882 C884 1.419 . S
C882 H886 0.930 . S
C883 C882 1.369 . S
C883 C892 1.429 . S
C884 C882 1.419 . S
C884 C885 1.363 . S
C884 H887 0.929 . S
C885 C884 1.363 . S
C885 C891 1.428 . S
H886 C882 0.930 . S
H887 C884 0.929 . S
S888 N889 1.613 . S
S888 N890 1.610 . S
N889 S888 1.613 . S
N889 C892 1.350 . S
N890 S888 1.610 . S
N890 C891 1.351 . S
C891 C885 1.428 . S
C891 N890 1.351 . S
C891 C892 1.434 . S
C892 C883 1.429 . S
C892 N889 1.350 . S
C892 C891 1.434 . S
C893 C894 1.369 . S
C893 C895 1.419 . S
C893 H897 0.930 . S
C894 C893 1.369 . S
C894 C903 1.429 . S
C895 C893 1.419 . S
C895 C896 1.363 . S
C895 H898 0.929 . S
C896 C895 1.363 . S
C896 C902 1.428 . S
H897 C893 0.930 . S
H898 C895 0.929 . S
S899 N900 1.613 . S
S899 N901 1.610 . S
N900 S899 1.613 . S
N900 C903 1.350 . S
N901 S899 1.610 . S
N901 C902 1.351 . S
C902 C896 1.428 . S
C902 N901 1.351 . S
C902 C903 1.434 . S
C903 C894 1.429 . S
C903 N900 1.350 . S
C903 C902 1.434 . S
C904 C905 1.369 . S
C904 C906 1.419 . S
C904 H908 0.930 . S
C905 C904 1.369 . S
C905 C914 1.429 . S
C906 C904 1.419 . S
C906 C907 1.363 . S
C906 H909 0.929 . S
C907 C906 1.363 . S
C907 C913 1.428 . S
H908 C904 0.930 . S
H909 C906 0.929 . S
S910 N911 1.613 . S
S910 N912 1.610 . S
N911 S910 1.613 . S
N911 C914 1.350 . S
N912 S910 1.610 . S
N912 C913 1.351 . S
C913 C907 1.428 . S
C913 N912 1.351 . S
C913 C914 1.434 . S
C914 C905 1.429 . S
C914 N911 1.350 . S
C914 C913 1.434 . S
C915 C916 1.369 . S
C915 C917 1.419 . S
C915 H919 0.930 . S
C916 C915 1.369 . S
C916 C925 1.429 . S
C917 C915 1.419 . S
C917 C918 1.363 . S
C917 H920 0.929 . S
C918 C917 1.363 . S
C918 C924 1.428 . S
H919 C915 0.930 . S
H920 C917 0.929 . S
S921 N922 1.613 . S
S921 N923 1.610 1_556 S
N922 S921 1.613 . S
N922 C925 1.350 1_556 S
N923 S921 1.610 1_554 S
N923 C924 1.351 . S
C924 C918 1.428 . S
C924 N923 1.351 . S
C924 C925 1.434 . S
C925 C916 1.429 . S
C925 N922 1.350 1_554 S
C925 C924 1.434 . S
C926 C927 1.369 . S
C926 C928 1.419 . S
C926 H930 0.930 . S
C927 C926 1.369 . S
C927 C936 1.429 . S
C928 C926 1.419 . S
C928 C929 1.363 . S
C928 H931 0.929 . S
C929 C928 1.363 . S
C929 C935 1.428 . S
H930 C926 0.930 . S
H931 C928 0.929 . S
S932 N933 1.613 . S
S932 N934 1.610 . S
N933 S932 1.613 . S
N933 C936 1.350 . S
N934 S932 1.610 . S
N934 C935 1.351 . S
C935 C929 1.428 . S
C935 N934 1.351 . S
C935 C936 1.434 . S
C936 C927 1.429 . S
C936 N933 1.350 . S
C936 C935 1.434 . S
C937 C938 1.369 . S
C937 C939 1.419 . S
C937 H941 0.930 . S
C938 C937 1.369 . S
C938 C947 1.429 . S
C939 C937 1.419 . S
C939 C940 1.363 . S
C939 H942 0.929 . S
C940 C939 1.363 . S
C940 C946 1.428 . S
H941 C937 0.930 . S
H942 C939 0.929 . S
S943 N944 1.613 . S
S943 N945 1.610 . S
N944 S943 1.613 . S
N944 C947 1.350 . S
N945 S943 1.610 . S
N945 C946 1.351 . S
C946 C940 1.428 . S
C946 N945 1.351 . S
C946 C947 1.434 . S
C947 C938 1.429 . S
C947 N944 1.350 . S
C947 C946 1.434 . S
C948 C949 1.369 . S
C948 C950 1.419 . S
C948 H952 0.930 . S
C949 C948 1.369 . S
C949 C958 1.429 . S
C950 C948 1.419 . S
C950 C951 1.363 . S
C950 H953 0.929 . S
C951 C950 1.363 . S
C951 C957 1.428 . S
H952 C948 0.930 . S
H953 C950 0.929 . S
S954 N955 1.613 . S
S954 N956 1.610 . S
N955 S954 1.613 . S
N955 C958 1.350 . S
N956 S954 1.610 . S
N956 C957 1.351 . S
C957 C951 1.428 . S
C957 N956 1.351 . S
C957 C958 1.434 . S
C958 C949 1.429 . S
C958 N955 1.350 . S
C958 C957 1.434 . S
C959 C960 1.369 . S
C959 C961 1.419 . S
C959 H963 0.930 . S
C960 C959 1.369 . S
C960 C969 1.429 . S
C961 C959 1.419 . S
C961 C962 1.363 . S
C961 H964 0.929 . S
C962 C961 1.363 . S
C962 C968 1.428 . S
H963 C959 0.930 . S
H964 C961 0.929 . S
S965 N966 1.613 . S
S965 N967 1.610 . S
N966 S965 1.613 . S
N966 C969 1.350 . S
N967 S965 1.610 . S
N967 C968 1.351 . S
C968 C962 1.428 . S
C968 N967 1.351 . S
C968 C969 1.434 . S
C969 C960 1.429 . S
C969 N966 1.350 . S
C969 C968 1.434 . S
C970 C971 1.369 . S
C970 C972 1.419 . S
C970 H974 0.930 . S
C971 C970 1.369 . S
C971 C980 1.429 . S
C972 C970 1.419 . S
C972 C973 1.363 . S
C972 H975 0.929 . S
C973 C972 1.363 . S
C973 C979 1.428 . S
H974 C970 0.930 . S
H975 C972 0.929 . S
S976 N977 1.613 . S
S976 N978 1.610 . S
N977 S976 1.613 . S
N977 C980 1.350 . S
N978 S976 1.610 . S
N978 C979 1.351 . S
C979 C973 1.428 . S
C979 N978 1.351 . S
C979 C980 1.434 . S
C980 C971 1.429 . S
C980 N977 1.350 . S
C980 C979 1.434 . S
C981 C982 1.369 . S
C981 C983 1.419 . S
C981 H985 0.930 . S
C982 C981 1.369 . S
C982 C991 1.429 . S
C983 C981 1.419 . S
C983 C984 1.363 . S
C983 H986 0.929 . S
C984 C983 1.363 . S
C984 C990 1.428 . S
H985 C981 0.930 . S
H986 C983 0.929 . S
S987 N988 1.613 . S
S987 N989 1.610 . S
N988 S987 1.613 . S
N988 C991 1.350 . S
N989 S987 1.610 . S
N989 C990 1.351 . S
C990 C984 1.428 . S
C990 N989 1.351 . S
C990 C991 1.434 . S
C991 C982 1.429 . S
C991 N988 1.350 . S
C991 C990 1.434 . S
C992 C993 1.369 . S
C992 C994 1.419 . S
C992 H996 0.930 . S
C993 C992 1.369 . S
C993 C1002 1.429 . S
C994 C992 1.419 . S
C994 C995 1.363 . S
C994 H997 0.929 . S
C995 C994 1.363 . S
C995 C1001 1.428 . S
H996 C992 0.930 . S
H997 C994 0.929 . S
S998 N999 1.613 . S
S998 N1000 1.610 . S
N999 S998 1.613 . S
N999 C1002 1.350 . S
N1000 S998 1.610 . S
N1000 C1001 1.351 . S
C1001 C995 1.428 . S
C1001 N1000 1.351 . S
C1001 C1002 1.434 . S
C1002 C993 1.429 . S
C1002 N999 1.350 . S
C1002 C1001 1.434 . S
C1003 C1004 1.369 . S
C1003 C1005 1.419 . S
C1003 H1007 0.930 . S
C1004 C1003 1.369 . S
C1004 C1013 1.429 . S
C1005 C1003 1.419 . S
C1005 C1006 1.363 . S
C1005 H1008 0.929 . S
C1006 C1005 1.363 . S
C1006 C1012 1.428 . S
H1007 C1003 0.930 . S
H1008 C1005 0.929 . S
S1009 N1010 1.613 . S
S1009 N1011 1.610 . S
N1010 S1009 1.613 . S
N1010 C1013 1.350 . S
N1011 S1009 1.610 . S
N1011 C1012 1.351 . S
C1012 C1006 1.428 . S
C1012 N1011 1.351 . S
C1012 C1013 1.434 . S
C1013 C1004 1.429 . S
C1013 N1010 1.350 . S
C1013 C1012 1.434 . S
C1014 C1015 1.369 . S
C1014 C1016 1.419 . S
C1014 H1018 0.930 . S
C1015 C1014 1.369 . S
C1015 C1024 1.429 . S
C1016 C1014 1.419 . S
C1016 C1017 1.363 . S
C1016 H1019 0.929 . S
C1017 C1016 1.363 . S
C1017 C1023 1.428 . S
H1018 C1014 0.930 . S
H1019 C1016 0.929 . S
S1020 N1021 1.613 . S
S1020 N1022 1.610 . S
N1021 S1020 1.613 . S
N1021 C1024 1.350 . S
N1022 S1020 1.610 . S
N1022 C1023 1.351 . S
C1023 C1017 1.428 . S
C1023 N1022 1.351 . S
C1023 C1024 1.434 . S
C1024 C1015 1.429 . S
C1024 N1021 1.350 . S
C1024 C1023 1.434 . S
C1025 C1026 1.369 . S
C1025 C1027 1.419 . S
C1025 H1029 0.930 . S
C1026 C1025 1.369 . S
C1026 C1035 1.429 . S
C1027 C1025 1.419 . S
C1027 C1028 1.363 . S
C1027 H1030 0.929 . S
C1028 C1027 1.363 . S
C1028 C1034 1.428 . S
H1029 C1025 0.930 . S
H1030 C1027 0.929 . S
S1031 N1032 1.613 . S
S1031 N1033 1.610 . S
N1032 S1031 1.613 . S
N1032 C1035 1.350 . S
N1033 S1031 1.610 . S
N1033 C1034 1.351 . S
C1034 C1028 1.428 . S
C1034 N1033 1.351 . S
C1034 C1035 1.434 . S
C1035 C1026 1.429 . S
C1035 N1032 1.350 . S
C1035 C1034 1.434 . S
C1036 C1037 1.369 . S
C1036 C1038 1.419 . S
C1036 H1040 0.930 . S
C1037 C1036 1.369 . S
C1037 C1046 1.429 . S
C1038 C1036 1.419 . S
C1038 C1039 1.363 . S
C1038 H1041 0.929 . S
C1039 C1038 1.363 . S
C1039 C1045 1.428 . S
H1040 C1036 0.930 . S
H1041 C1038 0.929 . S
S1042 N1043 1.613 . S
S1042 N1044 1.610 . S
N1043 S1042 1.613 . S
N1043 C1046 1.350 . S
N1044 S1042 1.610 . S
N1044 C1045 1.351 . S
C1045 C1039 1.428 . S
C1045 N1044 1.351 . S
C1045 C1046 1.434 . S
C1046 C1037 1.429 . S
C1046 N1043 1.350 . S
C1046 C1045 1.434 . S
C1047 C1048 1.369 . S
C1047 C1049 1.419 . S
C1047 H1051 0.930 . S
C1048 C1047 1.369 . S
C1048 C1057 1.429 . S
C1049 C1047 1.419 . S
C1049 C1050 1.363 . S
C1049 H1052 0.929 . S
C1050 C1049 1.363 . S
C1050 C1056 1.428 . S
H1051 C1047 0.930 . S
H1052 C1049 0.929 . S
S1053 N1054 1.613 . S
S1053 N1055 1.610 . S
N1054 S1053 1.613 . S
N1054 C1057 1.350 . S
N1055 S1053 1.610 . S
N1055 C1056 1.351 . S
C1056 C1050 1.428 . S
C1056 N1055 1.351 . S
C1056 C1057 1.434 . S
C1057 C1048 1.429 . S
C1057 N1054 1.350 . S
C1057 C1056 1.434 . S
C1058 C1059 1.369 . S
C1058 C1060 1.419 . S
C1058 H1062 0.930 . S
C1059 C1058 1.369 . S
C1059 C1068 1.429 . S
C1060 C1058 1.419 . S
C1060 C1061 1.363 . S
C1060 H1063 0.929 . S
C1061 C1060 1.363 . S
C1061 C1067 1.428 . S
H1062 C1058 0.930 . S
H1063 C1060 0.929 . S
S1064 N1065 1.613 . S
S1064 N1066 1.610 . S
N1065 S1064 1.613 . S
N1065 C1068 1.350 . S
N1066 S1064 1.610 . S
N1066 C1067 1.351 . S
C1067 C1061 1.428 . S
C1067 N1066 1.351 . S
C1067 C1068 1.434 . S
C1068 C1059 1.429 . S
C1068 N1065 1.350 . S
C1068 C1067 1.434 . S
C1069 C1070 1.369 . S
C1069 C1071 1.419 . S
C1069 H1073 0.930 . S
C1070 C1069 1.369 . S
C1070 C1079 1.429 . S
C1071 C1069 1.419 . S
C1071 C1072 1.363 . S
C1071 H1074 0.929 . S
C1072 C1071 1.363 . S
C1072 C1078 1.428 . S
H1073 C1069 0.930 . S
H1074 C1071 0.929 . S
S1075 N1076 1.613 . S
S1075 N1077 1.610 . S
N1076 S1075 1.613 . S
N1076 C1079 1.350 . S
N1077 S1075 1.610 . S
N1077 C1078 1.351 . S
C1078 C1072 1.428 . S
C1078 N1077 1.351 . S
C1078 C1079 1.434 . S
C1079 C1070 1.429 . S
C1079 N1076 1.350 . S
C1079 C1078 1.434 . S
C819 C757 1.738 . S
C817 C45 1.747 . S
C828 C84 1.728 . S
C830 C317 1.740 . S
C839 C126 1.658 . S
C841 C405 1.738 . S
C850 C189 1.752 . S
C852 C484 1.734 . S
C863 C581 1.735 . S
C861 C228 1.735 . S
C872 C270 1.656 . S
C874 C660 1.740 . S
C883 C69 1.702 . S
C885 C425 1.738 . S
C894 C141 1.748 . S
C896 C521 1.735 . S
C905 C174 1.657 . S
C907 C601 1.739 . S
C918 C697 1.739 . S
C916 C213 1.696 . S
C929 C777 1.734 . S
C927 C285 1.751 . S
C940 C337 1.739 . S
C938 C30 1.658 . S
C949 C36 1.518 . S
C951 C433 1.507 . S
C960 C93 1.520 . S
C962 C513 1.504 . S
C973 C609 1.509 . S
C971 C117 1.507 . S
C982 C180 1.517 . S
C984 C689 1.507 . S
C995 C785 1.505 . S
C993 C237 1.521 . S
C1006 C345 1.505 . S
C1004 C261 1.511 . S
C1017 C748 1.506 . S
C1015 C78 1.502 . S
C1026 C132 1.517 . S
C1028 C308 1.506 . S
C1039 C396 1.506 . S
C1037 C165 1.511 . S
C1048 C222 1.505 . S
C1050 C493 1.504 . S
C1059 C276 1.515 . S
C1061 C572 1.509 . S
C1070 C21 1.507 . S
C1072 C669 1.509 . S
