# Generated by pormake.
# Topology anh, (6,3)-cn, num edge types: 1
# Building blocks:
#     Node 0, Type 0, BuildingBlock: HISSIN_clean_sbu_0, # of connection points: 6
#     Node 1, Type 0, BuildingBlock: HISSIN_clean_sbu_0, # of connection points: 6
#     Node 2, Type 0, BuildingBlock: HISSIN_clean_sbu_0, # of connection points: 6
#     Node 3, Type 1, BuildingBlock: QEWDON_clean_linker_0, # of connection points: 3
#     Node 4, Type 1, BuildingBlock: QEWDON_clean_linker_0, # of connection points: 3
#     Node 5, Type 1, BuildingBlock: QEWDON_clean_linker_0, # of connection points: 3
#     Node 6, Type 1, BuildingBlock: QEWDON_clean_linker_0, # of connection points: 3
#     Node 7, Type 1, BuildingBlock: QEWDON_clean_linker_0, # of connection points: 3
#     Node 8, Type 1, BuildingBlock: QEWDON_clean_linker_0, # of connection points: 3
#     Edge 9, Type (0, 1), BuildingBlock: CIFDUS_clean_linker_0, # of connection points: 2
#     Edge 10, Type (0, 1), BuildingBlock: CIFDUS_clean_linker_0, # of connection points: 2
#     Edge 11, Type (0, 1), BuildingBlock: CIFDUS_clean_linker_0, # of connection points: 2
#     Edge 12, Type (0, 1), BuildingBlock: CIFDUS_clean_linker_0, # of connection points: 2
#     Edge 13, Type (0, 1), BuildingBlock: CIFDUS_clean_linker_0, # of connection points: 2
#     Edge 14, Type (0, 1), BuildingBlock: CIFDUS_clean_linker_0, # of connection points: 2
#     Edge 15, Type (0, 1), BuildingBlock: CIFDUS_clean_linker_0, # of connection points: 2
#     Edge 16, Type (0, 1), BuildingBlock: CIFDUS_clean_linker_0, # of connection points: 2
#     Edge 17, Type (0, 1), BuildingBlock: CIFDUS_clean_linker_0, # of connection points: 2
#     Edge 18, Type (0, 1), BuildingBlock: CIFDUS_clean_linker_0, # of connection points: 2
#     Edge 19, Type (0, 1), BuildingBlock: CIFDUS_clean_linker_0, # of connection points: 2
#     Edge 20, Type (0, 1), BuildingBlock: CIFDUS_clean_linker_0, # of connection points: 2
#     Edge 21, Type (0, 1), BuildingBlock: CIFDUS_clean_linker_0, # of connection points: 2
#     Edge 22, Type (0, 1), BuildingBlock: CIFDUS_clean_linker_0, # of connection points: 2
#     Edge 23, Type (0, 1), BuildingBlock: CIFDUS_clean_linker_0, # of connection points: 2
#     Edge 24, Type (0, 1), BuildingBlock: CIFDUS_clean_linker_0, # of connection points: 2
#     Edge 25, Type (0, 1), BuildingBlock: CIFDUS_clean_linker_0, # of connection points: 2
#     Edge 26, Type (0, 1), BuildingBlock: CIFDUS_clean_linker_0, # of connection points: 2
# Relax obj value: 0.255
# Max RMSD: 0.139
# Mean RMSD: 0.120
data_MOF--net-anh--node1-HISSIN_clean_sbu_0--node2-QEWDON_clean_linker_0--edge1-CIFDUS_clean_linker_0
_symmetry_space_group_name_H-M    P1
_symmetry_Int_Tables_number       1
_symmetry_cell_setting            triclinic
loop_
_symmetry_equiv_pos_as_xyz
'x, y, z'
_cell_length_a     27.939615
_cell_length_b     28.102999
_cell_length_c     43.249794
_cell_angle_alpha  95.772501
_cell_angle_beta   93.204496
_cell_angle_gamma 120.26699
loop_
_atom_site_label
_atom_site_type_symbol
_atom_site_fract_x
_atom_site_fract_y
_atom_site_fract_z
_atom_type_partial_charge
Eu0 Eu 0.17066 0.55415 0.13042 0.0
Eu1 Eu 0.21661 0.68371 0.15468 0.0
C2 C 0.18221 0.60021 0.20552 0.0
C3 C 1.05257 0.41571 0.11166 0.0
C4 C 1.03471 0.40225 0.14098 0.0
C5 C 0.96867 0.41851 0.09731 0.0
C6 C 0.98813 0.40385 0.14954 0.0
C7 C 1.01556 0.41719 0.08877 0.0
C8 C 0.95813 0.41745 0.12864 0.0
C9 C 1.1134 0.44848 0.10964 0.0
O10 O 0.29422 0.67805 0.14387 0.0
O11 O 0.26282 0.58432 0.13985 0.0
C12 C 0.30406 0.6362 0.14162 0.0
O13 O 0.21221 0.60164 0.09101 0.0
O14 O 0.28032 0.76597 0.17865 0.0
O15 O 0.20581 0.75491 0.15285 0.0
O16 O 0.18898 0.66696 0.10352 0.0
C17 C 0.20319 0.64051 0.08318 0.0
O18 O 1.09777 0.56881 0.12162 0.0
O19 O 1.12341 0.64336 0.1588 0.0
O20 O 0.20907 0.65171 0.20008 0.0
O21 O 1.12813 0.4863 0.09119 0.0
O22 O 1.14581 0.46857 0.13635 0.0
O23 O 0.16136 0.5574 0.18281 0.0
C24 C 0.28818 0.84042 0.15411 0.0
C25 C 0.32673 0.8436 0.13374 0.0
C26 C 0.31719 0.9366 0.15155 0.0
C27 C 0.36215 0.89407 0.12338 0.0
C28 C 0.28211 0.88638 0.16193 0.0
C29 C 0.35915 0.94167 0.13323 0.0
C30 C 0.25474 0.79024 0.16809 0.0
C31 C 1.08494 0.60198 0.13815 0.0
H32 H 1.06095 0.3986 0.15886 0.0
H33 H 0.94495 0.42699 0.08037 0.0
H34 H 0.979 0.40003 0.1735 0.0
H35 H 1.02704 0.42562 0.06556 0.0
H36 H 0.33097 0.80785 0.12695 0.0
H37 H 0.31417 0.97249 0.16 0.0
H38 H 0.39386 0.8967 0.10914 0.0
H39 H 0.2519 0.88417 0.17728 0.0
Eu40 Eu 0.72809 1.0781 0.46838 0.0
Eu41 Eu 0.65912 0.13438 0.49415 0.0
C42 C 0.71129 1.09002 0.54061 0.0
C43 C 0.7448 0.97142 0.42205 0.0
C44 C 0.71009 0.96685 0.39564 0.0
C45 C 0.70081 0.87081 0.41455 0.0
C46 C 0.66894 0.9145 0.37999 0.0
C47 C 0.74226 0.92318 0.43001 0.0
C48 C 0.66114 0.86583 0.39079 0.0
C49 C 0.77274 1.02278 0.44518 0.0
O50 O 0.75029 0.20642 0.50013 0.0
O51 O 0.79265 0.16983 0.47007 0.0
C52 C 0.79334 0.2129 0.48568 0.0
O53 O 0.68482 1.08753 0.42549 0.0
O54 O 0.65075 0.18844 0.53047 0.0
O55 O 0.58736 0.14482 0.48997 0.0
O56 O 0.67814 0.16084 0.44737 0.0
C57 C 0.6788 0.13043 0.42273 0.0
O58 O 0.63918 1.00393 0.46634 0.0
O59 O 0.58892 1.04749 0.47327 0.0
O60 O 0.66403 1.08478 0.53007 0.0
O61 O 0.77971 1.06797 0.43529 0.0
O62 O 0.75376 1.01709 0.47232 0.0
O63 O 0.74978 0.10083 0.52174 0.0
C64 C 0.61177 0.23567 0.50738 0.0
C65 C 0.66155 0.27825 0.49875 0.0
C66 C 0.56567 0.28604 0.49581 0.0
C67 C 0.66354 0.32509 0.48915 0.0
C68 C 0.56389 0.23966 0.50572 0.0
C69 C 0.61547 0.32912 0.48746 0.0
C70 C 0.60741 0.18394 0.51416 0.0
C71 C 0.59107 1.00196 0.46692 0.0
H72 H 0.71115 1.00334 0.38875 0.0
H73 H 0.69631 0.83451 0.42373 0.0
H74 H 0.63998 0.91224 0.36136 0.0
H75 H 0.76852 0.92563 0.45025 0.0
H76 H 0.6986 0.27501 0.49913 0.0
H77 H 0.52835 0.28884 0.4954 0.0
H78 H 0.7024 0.35803 0.48303 0.0
H79 H 0.52498 0.20661 0.51174 0.0
Eu80 Eu 0.61329 0.51755 0.8128 0.0
Eu81 Eu 0.74052 0.59388 0.79652 0.0
C82 C 0.71517 0.58177 0.86828 0.0
C83 C 0.49242 0.50175 0.84614 0.0
C84 C 0.52841 0.54271 0.87126 0.0
C85 C 0.44302 0.55162 0.84113 0.0
C86 C 0.52477 0.58987 0.87937 0.0
C87 C 0.44733 0.50468 0.83262 0.0
C88 C 0.48424 0.59663 0.86297 0.0
C89 C 0.51294 0.46989 0.828 0.0
O90 O 0.7209 0.50398 0.78531 0.0
O91 O 0.64361 0.45508 0.81021 0.0
C92 C 0.68472 0.45748 0.79538 0.0
O93 O 0.60954 0.50243 0.76062 0.0
O94 O 0.82428 0.66647 0.80514 0.0
O95 O 0.80028 0.60595 0.76323 0.0
O96 O 0.68098 0.58902 0.75716 0.0
C97 C 0.63381 0.54431 0.74505 0.0
O98 O 0.62404 0.60451 0.8119 0.0
O99 O 0.71616 0.65956 0.8045 0.0
O100 O 0.75066 0.58654 0.84826 0.0
O101 O 0.52427 0.48424 0.80035 0.0
O102 O 0.55263 0.46568 0.84261 0.0
O103 O 0.66394 0.56759 0.8585 0.0
C104 C 0.89583 0.65937 0.7834 0.0
C105 C 0.93736 0.69874 0.76792 0.0
C106 C 0.96467 0.64508 0.81051 0.0
C107 C 0.99268 0.71242 0.77431 0.0
C108 C 0.90932 0.6315 0.80412 0.0
C109 C 1.00711 0.68681 0.79631 0.0
C110 C 0.84014 0.65206 0.77984 0.0
C111 C 0.66734 0.65363 0.80882 0.0
H112 H 0.56359 0.54181 0.88232 0.0
H113 H 0.40982 0.55436 0.82888 0.0
H114 H 0.55737 0.62314 0.89633 0.0
H115 H 0.41897 0.47364 0.81322 0.0
H116 H 0.92734 0.72051 0.75181 0.0
H117 H 0.97462 0.62515 0.82787 0.0
H118 H 1.02445 0.74432 0.76285 0.0
H119 H 0.87754 0.6011 0.81631 0.0
H120 H 0.6776 0.34029 0.2836 0.0
C121 C 0.65521 0.30576 0.26468 0.0
C122 C 0.63945 0.2513 0.2699 0.0
C123 C 0.64477 0.31608 0.23455 0.0
H124 H 0.59809 0.16521 0.24861 0.0
C125 C 0.61263 0.20764 0.2447 0.0
C126 C 0.60243 0.21744 0.21462 0.0
C127 C 0.61765 0.27143 0.20979 0.0
C128 C 0.66749 0.3737 0.22765 0.0
H129 H 0.6095 0.27892 0.1865 0.0
C130 C 0.69733 0.38915 0.2019 0.0
C131 C 0.7232 0.44398 0.19549 0.0
C132 C 0.66233 0.41387 0.24683 0.0
H133 H 0.63939 0.40299 0.26686 0.0
C134 C 0.68712 0.46863 0.24017 0.0
H135 H 0.70377 0.35905 0.18787 0.0
C136 C 0.71826 0.48399 0.21485 0.0
H137 H 0.73935 0.52696 0.2108 0.0
H138 H 0.68333 0.49954 0.25512 0.0
H139 H 0.48174 0.61528 0.57608 0.0
C140 C 0.50924 0.6046 0.56458 0.0
C141 C 0.54553 0.59379 0.58238 0.0
C142 C 0.50856 0.60069 0.53175 0.0
H143 H 0.60698 0.56938 0.58145 0.0
C144 C 0.58082 0.57961 0.56752 0.0
C145 C 0.57988 0.5746 0.53503 0.0
C146 C 0.54412 0.58562 0.51748 0.0
C147 C 0.46983 0.60894 0.51098 0.0
H148 H 0.54255 0.58021 0.49222 0.0
C149 C 0.48846 0.63247 0.48386 0.0
C150 C 0.45117 0.62758 0.45903 0.0
C151 C 0.41328 0.58678 0.51497 0.0
H152 H 0.39728 0.56797 0.53555 0.0
C153 C 0.37632 0.58639 0.49141 0.0
H154 H 0.53262 0.65273 0.48138 0.0
C155 C 0.39489 0.60591 0.46325 0.0
H156 H 0.36543 0.60321 0.44478 0.0
H157 H 0.33272 0.56901 0.49451 0.0
H158 H 0.41418 0.87189 0.96497 0.0
C159 C 0.38175 0.86372 0.94666 0.0
C160 C 0.32629 0.82211 0.94802 0.0
C161 C 0.3969 0.89116 0.92022 0.0
H162 H 0.2427 0.77812 0.92349 0.0
C163 C 0.28549 0.81127 0.92353 0.0
C164 C 0.29944 0.84042 0.89788 0.0
C165 C 0.3551 0.88098 0.89643 0.0
C166 C 0.45526 0.91598 0.9133 0.0
H167 H 0.36635 0.90025 0.87543 0.0
C168 C 0.47976 0.88335 0.91489 0.0
C169 C 0.52899 0.89723 0.90201 0.0
C170 C 0.48281 0.96549 0.90026 0.0
H171 H 0.46424 0.99102 0.89833 0.0
C172 C 0.53383 0.98112 0.88863 0.0
H173 H 0.45743 0.84353 0.92336 0.0
C174 C 0.55633 0.94638 0.88879 0.0
H175 H 0.59377 0.9569 0.87796 0.0
H176 H 0.55467 1.01893 0.87825 0.0
H177 H 1.1453 0.57637 0.40285 0.0
C178 C 0.18625 0.61131 0.4121 0.0
C179 C 0.21888 0.647 0.39149 0.0
C180 C 0.2047 0.62294 0.44452 0.0
H181 H 0.29235 0.72353 0.38694 0.0
C182 C 0.27028 0.69538 0.40318 0.0
C183 C 0.29223 0.70836 0.435 0.0
C184 C 0.25932 0.6704 0.45518 0.0
C185 C 0.16563 0.5894 0.46756 0.0
H186 H 0.27644 0.678 0.47936 0.0
C187 C 1.11828 0.53358 0.45937 0.0
C188 C 1.0813 0.50623 0.4818 0.0
C189 C 0.174 0.6158 0.49854 0.0
H190 H 0.20663 0.6586 0.50609 0.0
C191 C 1.13955 0.58855 0.52061 0.0
H192 H 1.10962 0.51172 0.43583 0.0
C193 C 1.09425 0.5347 0.51252 0.0
H194 H 1.06909 0.51525 0.53071 0.0
H195 H 1.14766 0.60981 0.5443 0.0
H196 H 0.69557 1.0343 0.73543 0.0
C197 C 0.69215 1.06947 0.7448 0.0
C198 C 0.69335 0.10561 0.72416 0.0
C199 C 0.68695 1.07861 0.77682 0.0
H200 H 0.69044 0.17928 0.71885 0.0
C201 C 0.69063 0.1528 0.73537 0.0
C202 C 0.68486 0.16435 0.76693 0.0
C203 C 0.68181 0.12608 0.78724 0.0
C204 C 0.68878 1.04011 0.79925 0.0
H205 H 0.67549 0.13396 0.81116 0.0
C206 C 0.67945 0.98499 0.78941 0.0
C207 C 0.68308 0.95169 0.81156 0.0
C208 C 0.70265 1.06003 0.83164 0.0
H209 H 0.71305 0.10166 0.84093 0.0
C210 C 0.70553 1.02764 0.85316 0.0
H211 H 0.66866 0.96736 0.76491 0.0
C212 C 0.69597 0.97458 0.84341 0.0
H213 H 0.70054 0.95206 0.86113 0.0
H214 H 0.71639 1.04441 0.87785 0.0
H215 H 0.6766 0.625 0.0658 0.0
C216 C 0.70929 0.61958 0.0763 0.0
C217 C 0.742 0.60772 0.05669 0.0
C218 C 0.72021 0.62775 0.10919 0.0
H219 H 0.81243 0.59619 0.0554 0.0
C220 C 0.78699 0.60437 0.07048 0.0
C221 C 0.80014 0.61218 0.10327 0.0
C222 C 0.76574 0.62313 0.12231 0.0
C223 C 0.68806 0.64668 0.12956 0.0
H224 H 0.77454 0.62795 0.14747 0.0
C225 C 0.63098 0.63195 0.12125 0.0
C226 C 0.60482 0.65469 0.1405 0.0
C227 C 0.71692 0.68376 0.15743 0.0
H228 H 0.76037 0.69809 0.16447 0.0
C229 C 0.69131 0.70488 0.17646 0.0
H230 H 0.6073 0.60364 0.09998 0.0
C231 C 0.63637 0.69068 0.16821 0.0
H232 H 0.61827 0.70783 0.18402 0.0
H233 H 0.71462 0.73315 0.19782 0.0
H234 H 0.34124 0.56208 0.12707 0.0
H235 H 0.40196 0.73735 0.15263 0.0
H236 H 0.49786 0.75815 0.15187 0.0
H237 H 0.56588 0.72742 0.14608 0.0
H238 H 0.50752 0.55297 0.12045 0.0
H239 H 0.41043 0.53162 0.11829 0.0
C240 C 0.37534 0.60492 0.13246 0.0
C241 C 0.36329 0.64797 0.14022 0.0
C242 C 0.43139 0.61697 0.13172 0.0
C243 C 0.40888 0.70309 0.14672 0.0
C244 C 0.46418 0.71514 0.14626 0.0
C245 C 0.53208 0.68456 0.1398 0.0
C246 C 0.54501 0.6419 0.13362 0.0
C247 C 0.47612 0.67252 0.13905 0.0
C248 C 0.49978 0.58694 0.12508 0.0
C249 C 0.44392 0.57465 0.12419 0.0
H250 H 0.89048 0.24711 0.45706 0.0
H251 H 0.80922 0.31125 0.51556 0.0
H252 H 0.88722 0.40567 0.51679 0.0
H253 H 0.97926 0.471 0.50263 0.0
H254 H 1.06455 0.40984 0.44592 0.0
H255 H 0.98404 0.31454 0.44181 0.0
C256 C 0.88979 0.28164 0.47019 0.0
C257 C 0.84327 0.27096 0.48646 0.0
C258 C 0.93558 0.33697 0.47086 0.0
C259 C 0.84379 0.31709 0.50298 0.0
C260 C 0.88863 0.37158 0.50363 0.0
C261 C 0.98075 0.43702 0.48937 0.0
C262 C 1.02912 0.44847 0.47492 0.0
C263 C 0.93485 0.3821 0.48783 0.0
C264 C 1.02849 0.40322 0.45721 0.0
C265 C 0.98241 0.34834 0.45516 0.0
H266 H 0.70701 0.73842 0.77201 0.0
H267 H 0.61564 0.68487 0.85094 0.0
H268 H 0.61199 0.77027 0.85809 0.0
H269 H 0.63154 0.85921 0.84179 0.0
H270 H 0.72178 0.91425 0.76257 0.0
H271 H 0.72463 0.82796 0.75431 0.0
C272 C 0.68537 0.745 0.79048 0.0
C273 C 0.66152 0.70452 0.81094 0.0
C274 C 0.68103 0.79375 0.79372 0.0
C275 C 0.63368 0.71425 0.8346 0.0
C276 C 0.63107 0.76312 0.83855 0.0
C277 C 0.65184 0.85266 0.82255 0.0
C278 C 0.67678 0.89452 0.80298 0.0
C279 C 0.65409 0.80304 0.81821 0.0
C280 C 0.70167 0.88348 0.77793 0.0
C281 C 0.70385 0.83404 0.7734 0.0
H282 H 1.03531 0.65674 0.16787 0.0
H283 H 1.00458 0.53182 0.09022 0.0
H284 H 0.91379 0.52 0.07487 0.0
H285 H 0.84376 0.54742 0.08118 0.0
H286 H 0.87461 0.67618 0.15646 0.0
H287 H 0.96238 0.6827 0.17505 0.0
C288 C 1.0087 0.62669 0.14769 0.0
C289 C 1.02767 0.59481 0.13057 0.0
C290 C 0.95575 0.62059 0.13834 0.0
C291 C 0.9918 0.55645 0.10438 0.0
C292 C 0.93953 0.54986 0.09532 0.0
C293 C 0.86955 0.57742 0.10156 0.0
C294 C 0.85163 0.61175 0.11689 0.0
C295 C 0.92117 0.58209 0.1118 0.0
C296 C 0.88598 0.64871 0.14395 0.0
C297 C 0.93694 0.65292 0.15453 0.0
H298 H 0.50775 0.93937 0.50249 0.0
H299 H 0.55328 0.94214 0.4089 0.0
H300 H 0.46589 0.8545 0.39079 0.0
H301 H 0.38133 0.77236 0.40209 0.0
H302 H 0.33107 0.7705 0.49496 0.0
H303 H 0.41743 0.85845 0.51304 0.0
C304 C 0.49877 0.92021 0.47822 0.0
C305 C 0.5377 0.94722 0.45712 0.0
C306 C 0.4487 0.86806 0.46805 0.0
C307 C 0.52484 0.92208 0.42573 0.0
C308 C 0.47484 0.87156 0.41542 0.0
C309 C 0.38769 0.79093 0.42622 0.0
C310 C 0.34763 0.7627 0.44675 0.0
C311 C 0.437 0.8433 0.43644 0.0
C312 C 0.36015 0.78884 0.47822 0.0
C313 C 0.40983 0.84018 0.48869 0.0
H314 H 0.62917 0.35353 0.81698 0.0
H315 H 0.75478 0.44526 0.7581 0.0
H316 H 0.7666 0.3659 0.74528 0.0
H317 H 0.74176 0.26959 0.7496 0.0
H318 H 0.61748 0.17594 0.80843 0.0
H319 H 0.60598 0.25604 0.82253 0.0
C320 C 0.65918 0.35632 0.80134 0.0
C321 C 0.69077 0.40651 0.78858 0.0
C322 C 0.6665 0.30966 0.794 0.0
C323 C 0.72958 0.40821 0.76851 0.0
C324 C 0.73652 0.36239 0.76103 0.0
C325 C 0.71183 0.26618 0.76545 0.0
C326 C 0.68042 0.2155 0.77762 0.0
C327 C 0.7052 0.31274 0.77346 0.0
C328 C 0.64288 0.2137 0.79868 0.0
C329 C 0.63591 0.25977 0.80663 0.0
H330 H 0.63895 0.75811 0.38321 0.0
H331 H 0.55763 0.85405 0.38278 0.0
H332 H 0.47243 0.77518 0.39522 0.0
H333 H 0.43668 0.69724 0.42536 0.0
H334 H 0.51754 0.60114 0.42683 0.0
H335 H 0.58719 0.66252 0.39577 0.0
C336 C 0.60216 0.76145 0.38506 0.0
C337 C 0.60596 0.81307 0.38386 0.0
C338 C 0.55403 0.71728 0.39402 0.0
C339 C 0.55694 0.81562 0.38458 0.0
C340 C 0.5083 0.77101 0.39229 0.0
C341 C 0.46781 0.68808 0.41753 0.0
C342 C 0.47391 0.64677 0.42962 0.0
C343 C 0.50843 0.72409 0.40007 0.0
C344 C 0.51354 0.63435 0.41868 0.0
C345 C 0.5536 0.66958 0.40106 0.0
H346 H 1.09051 0.79463 0.81082 0.0
H347 H 1.0562 0.6261 0.80712 0.0
H348 H 0.14909 0.6607 0.83458 0.0
H349 H 0.23389 0.73749 0.86577 0.0
H350 H 0.26678 0.90551 0.87176 0.0
H351 H 0.18115 0.87281 0.83619 0.0
C352 C 1.10396 0.76557 0.8152 0.0
C353 C 1.06642 0.70785 0.8073 0.0
C354 C 0.1569 0.78571 0.8315 0.0
C355 C 1.08414 0.67065 0.81344 0.0
C356 C 1.13717 0.69039 0.82908 0.0
C357 C 0.22262 0.76693 0.85876 0.0
C358 C 0.25557 0.82351 0.87155 0.0
C359 C 0.17292 0.7476 0.83921 0.0
C360 C 0.24161 0.86172 0.86214 0.0
C361 C 0.19258 0.84295 0.84207 0.0
H362 H 0.46909 0.97806 0.14325 0.0
H363 H 0.35423 1.03256 0.11951 0.0
H364 H 0.42719 0.1293 0.13776 0.0
H365 H 0.51409 0.19274 0.17285 0.0
H366 H 0.62602 0.13595 0.19895 0.0
H367 H 0.56401 1.04569 0.1669 0.0
C368 C 0.46059 1.01118 0.14066 0.0
C369 C 0.40595 0.99816 0.13099 0.0
C370 C 0.50186 1.06615 0.15246 0.0
C371 C 0.39577 1.04165 0.12765 0.0
C372 C 0.43732 0.09688 0.13831 0.0
C373 C 0.52576 0.16124 0.17059 0.0
C374 C 0.57343 0.17003 0.18889 0.0
C375 C 0.48915 0.10896 0.15281 0.0
C376 C 0.58853 0.12923 0.18568 0.0
C377 C 0.55319 1.07774 0.16735 0.0
H378 H 0.69083 0.43426 0.51412 0.0
H379 H 0.54402 0.33813 0.44644 0.0
H380 H 0.52747 0.41578 0.44994 0.0
H381 H 0.5402 0.49749 0.48281 0.0
H382 H 0.68461 0.59287 0.55244 0.0
H383 H 0.71717 0.52889 0.53736 0.0
C384 C 0.65666 0.43133 0.49917 0.0
C385 C 0.61769 0.38044 0.48075 0.0
C386 C 0.64619 0.4752 0.50232 0.0
C387 C 0.57371 0.37683 0.46129 0.0
C388 C 0.56412 0.42101 0.46343 0.0
C389 C 0.58013 0.50609 0.49382 0.0
C390 C 0.60897 0.54878 0.51946 0.0
C391 C 0.59782 0.46863 0.48553 0.0
C392 C 0.66065 0.55902 0.53335 0.0
C393 C 0.67932 0.52254 0.52471 0.0
H394 H 0.52317 0.67721 0.91461 0.0
H395 H 0.4612 0.64387 0.8163 0.0
H396 H 0.47797 0.73787 0.81874 0.0
H397 H 0.50832 0.82919 0.84895 0.0
H398 H 0.57313 0.86387 0.94637 0.0
H399 H 0.56133 0.77096 0.9435 0.0
C400 C 0.51378 0.69041 0.89357 0.0
C401 C 0.49014 0.65268 0.86544 0.0
C402 C 0.5257 0.74543 0.89472 0.0
C403 C 0.47761 0.67091 0.83862 0.0
C404 C 0.48812 0.72516 0.83978 0.0
C405 C 0.52187 0.81696 0.86914 0.0
C406 C 0.54285 0.85331 0.8976 0.0
C407 C 0.51232 0.76279 0.86765 0.0
C408 C 0.55854 0.83682 0.92402 0.0
C409 C 0.55049 0.78337 0.92254 0.0
H410 H 0.85538 0.39455 0.10326 0.0
H411 H 0.98523 0.493 0.18039 0.0
H412 H 0.9273 0.52506 0.20374 0.0
H413 H 0.83398 0.51021 0.20742 0.0
H414 H 0.70148 0.4066 0.13277 0.0
H415 H 0.76669 0.39414 0.10236 0.0
C416 C 0.87103 0.42343 0.12499 0.0
C417 C 0.92333 0.43929 0.14083 0.0
C418 C 0.83721 0.44143 0.13851 0.0
C419 C 0.94385 0.47793 0.16857 0.0
C420 C 0.91114 0.49697 0.18172 0.0
C421 C 0.82016 0.48724 0.18384 0.0
C422 C 0.76332 0.45896 0.17235 0.0
C423 C 0.85688 0.47704 0.16764 0.0
C424 C 0.74536 0.4288 0.14192 0.0
C425 C 0.78238 0.42076 0.12486 0.0
H426 H 0.29413 0.66888 0.05258 0.0
H427 H 1.13499 0.65946 0.04746 0.0
H428 H 0.1598 0.71645 0.00552 0.0
H429 H 0.22998 0.77699 0.97485 0.0
H430 H 0.38827 0.78413 0.97709 0.0
H431 H 0.36164 0.72231 0.01674 0.0
C432 C 0.26436 0.67777 0.04139 0.0
C433 C 0.21271 0.65979 0.05267 0.0
C434 C 0.27958 0.712 0.0178 0.0
C435 C 0.1748 0.67261 0.03876 0.0
C436 C 0.18921 0.70573 0.01512 0.0
C437 C 0.25845 0.76434 -0.01658 0.0
C438 C 0.31127 0.78587 0.97301 0.0
C439 C 0.24212 0.72707 0.0052 0.0
C440 C 0.34788 0.76969 -0.01482 0.0
C441 C 0.33236 0.73349 0.00753 0.0
H442 H 0.65653 0.21026 0.40983 0.0
H443 H 0.6911 1.08767 0.36583 0.0
H444 H 0.68595 0.11739 0.31509 0.0
H445 H 0.67129 0.17772 0.28348 0.0
H446 H 0.6315 0.29647 0.32724 0.0
H447 H 0.64132 0.26998 0.37825 0.0
C448 C 0.66295 0.18985 0.38919 0.0
C449 C 0.67406 0.1466 0.39166 0.0
C450 C 0.65976 0.20698 0.36018 0.0
C451 C 0.68218 0.12079 0.3646 0.0
C452 C 0.67948 0.13794 0.33561 0.0
C453 C 0.66419 0.19755 0.30409 0.0
C454 C 0.65013 0.23879 0.30136 0.0
C455 C 0.66816 0.18089 0.33316 0.0
C456 C 0.64284 0.26506 0.32857 0.0
C457 C 0.64787 0.2495 0.35772 0.0
H458 H 0.6435 0.63343 0.72066 0.0
H459 H 0.55779 0.45386 0.70342 0.0
H460 H 0.51236 0.45321 0.65322 0.0
H461 H 0.50612 0.50433 0.61182 0.0
H462 H 0.59367 0.68357 0.62818 0.0
H463 H 0.62764 0.68398 0.6818 0.0
C464 C 0.61484 0.59417 0.70588 0.0
C465 C 0.60499 0.54377 0.71526 0.0
C466 C 0.58849 0.59415 0.67727 0.0
C467 C 0.56656 0.49315 0.69642 0.0
C468 C 0.54044 0.49277 0.66783 0.0
C469 C 0.53071 0.54326 0.62769 0.0
C470 C 0.54699 0.59384 0.61647 0.0
C471 C 0.55197 0.54304 0.65777 0.0
C472 C 0.57984 0.64425 0.6367 0.0
C473 C 0.60008 0.64442 0.66707 0.0
H474 H 0.63411 1.03356 0.57814 0.0
H475 H 0.81041 0.14852 0.58001 0.0
H476 H 0.82163 0.1621 0.63757 0.0
H477 H 0.77866 0.14773 0.68757 0.0
H478 H 0.60244 1.03121 0.68428 0.0
H479 H 0.59356 1.01192 0.62716 0.0
C480 C 0.67524 1.06094 0.59111 0.0
C481 C 0.72133 1.09023 0.57478 0.0
C482 C 0.6811 1.06876 0.62402 0.0
C483 C 0.77434 0.12518 0.59196 0.0
C484 C 0.7806 0.13336 0.6249 0.0
C485 C 0.73864 0.11763 0.67422 0.0
C486 C 0.69109 1.09091 0.68993 0.0
C487 C 0.73398 0.10645 0.64121 0.0
C488 C 0.63941 1.05202 0.67258 0.0
C489 C 0.63437 1.04111 0.63996 0.0
H490 H 0.64565 0.5515 0.91314 0.0
H491 H 0.82059 0.63265 0.90157 0.0
H492 H 0.84456 0.64847 0.95865 0.0
H493 H 0.8153 0.64039 0.01198 0.0
H494 H 0.63922 0.5547 0.02183 0.0
H495 H 0.6166 0.54088 0.96531 0.0
C496 C 0.68919 0.57298 0.92293 0.0
C497 C 0.73125 0.59128 0.90286 0.0
C498 C 0.70251 0.5815 0.95561 0.0
C499 C 0.78729 0.61814 0.91629 0.0
C500 C 0.80098 0.62727 0.94899 0.0
C501 C 0.7719 0.61808 0.00185 0.0
C502 C 0.72912 0.59906 0.02163 0.0
C503 C 0.75888 0.60916 0.96893 0.0
C504 C 0.67324 0.57098 0.00765 0.0
C505 C 0.66014 0.56257 0.97516 0.0
H506 H 0.17567 0.66841 0.25114 0.0
H507 H 0.17568 0.51457 0.23496 0.0
H508 H 0.18087 0.51175 0.29168 0.0
H509 H 0.19618 0.55963 0.34646 0.0
H510 H 0.19769 0.71446 0.36066 0.0
H511 H 0.18069 0.71015 0.30422 0.0
C512 C 0.17626 0.63385 0.25993 0.0
C513 C 0.17617 0.59219 0.23887 0.0
C514 C 0.17978 0.63294 0.29233 0.0
C515 C 0.17583 0.54722 0.25065 0.0
C516 C 0.17914 0.54584 0.28311 0.0
C517 C 0.19149 0.5916 0.33707 0.0
C518 C 0.19842 0.63751 0.35764 0.0
C519 C 0.18263 0.58932 0.30428 0.0
C520 C 0.19271 0.67895 0.34527 0.0
C521 C 0.1832 0.67659 0.31301 0.0
loop_
_geom_bond_atom_site_label_1
_geom_bond_atom_site_label_2
_geom_bond_distance
_geom_bond_site_symmetry_2
_ccdc_geom_bond_type
Eu0 C9 2.828 . S
Eu0 O11 2.392 1_655 S
Eu0 O13 2.418 . S
Eu0 O18 2.373 . S
Eu0 O21 2.488 . S
Eu0 O22 2.471 . S
Eu0 O23 2.349 1_655 S
Eu1 O10 2.373 . S
Eu1 O14 2.488 . S
Eu1 O15 2.471 . S
Eu1 O16 2.349 . S
Eu1 O19 2.392 1_455 S
Eu1 O20 2.418 . S
Eu1 C30 2.828 . S
C2 O20 1.244 . S
C2 O23 1.265 . S
C3 C4 1.379 . S
C3 C7 1.373 . S
C3 C9 1.505 . S
C4 C3 1.379 . S
C4 C6 1.369 . S
C4 H32 0.930 . S
C5 C7 1.383 . S
C5 C8 1.382 . S
C5 H33 0.930 . S
C6 C4 1.369 . S
C6 C8 1.392 . S
C6 H34 0.930 . S
C7 C3 1.373 . S
C7 C5 1.383 . S
C7 H35 0.931 . S
C8 C5 1.382 . S
C8 C6 1.392 . S
C9 Eu0 2.828 . S
C9 C3 1.505 . S
C9 O21 1.249 . S
C9 O22 1.244 . S
O10 Eu1 2.373 . S
O10 C12 1.258 . S
O11 Eu0 2.392 1_455 S
O11 C12 1.242 . S
C12 O10 1.258 . S
C12 O11 1.242 . S
O13 Eu0 2.418 . S
O13 C17 1.244 1_655 S
O14 Eu1 2.488 . S
O14 C30 1.249 . S
O15 Eu1 2.471 . S
O15 C30 1.244 . S
O16 Eu1 2.349 . S
O16 C17 1.265 . S
C17 O13 1.244 1_455 S
C17 O16 1.265 . S
O18 Eu0 2.373 . S
O18 C31 1.258 . S
O19 Eu1 2.392 1_655 S
O19 C31 1.242 . S
O20 Eu1 2.418 . S
O20 C2 1.244 . S
O21 Eu0 2.488 . S
O21 C9 1.249 . S
O22 Eu0 2.471 . S
O22 C9 1.244 . S
O23 Eu0 2.349 1_455 S
O23 C2 1.265 . S
C24 C25 1.379 . S
C24 C28 1.373 . S
C24 C30 1.505 . S
C25 C24 1.379 . S
C25 C27 1.369 . S
C25 H36 0.930 . S
C26 C28 1.383 . S
C26 C29 1.382 . S
C26 H37 0.930 . S
C27 C25 1.369 . S
C27 C29 1.392 . S
C27 H38 0.930 . S
C28 C24 1.373 . S
C28 C26 1.383 . S
C28 H39 0.931 . S
C29 C26 1.382 . S
C29 C27 1.392 . S
C30 Eu1 2.828 . S
C30 O14 1.249 . S
C30 O15 1.244 . S
C30 C24 1.505 . S
C31 O18 1.258 . S
C31 O19 1.242 . S
H32 C4 0.930 . S
H33 C5 0.930 . S
H34 C6 0.930 . S
H35 C7 0.931 . S
H36 C25 0.930 . S
H37 C26 0.930 . S
H38 C27 0.930 . S
H39 C28 0.931 . S
Eu40 C49 2.828 1_545 S
Eu40 O51 2.392 . S
Eu40 O53 2.426 1_545 S
Eu40 O58 2.373 1_545 S
Eu40 O61 2.488 1_545 S
Eu40 O62 2.471 1_545 S
Eu40 O63 2.349 . S
Eu41 O50 2.373 . S
Eu41 O54 2.488 . S
Eu41 O55 2.471 . S
Eu41 O56 2.349 . S
Eu41 O59 2.392 1_545 S
Eu41 O60 2.418 . S
Eu41 C70 2.828 . S
C42 O60 1.244 . S
C42 O63 1.265 . S
C43 C44 1.379 . S
C43 C47 1.373 . S
C43 C49 1.505 . S
C44 C43 1.379 . S
C44 C46 1.369 . S
C44 H72 0.930 . S
C45 C47 1.383 . S
C45 C48 1.382 . S
C45 H73 0.930 . S
C46 C44 1.369 . S
C46 C48 1.392 . S
C46 H74 0.930 . S
C47 C43 1.373 . S
C47 C45 1.383 . S
C47 H75 0.931 . S
C48 C45 1.382 . S
C48 C46 1.392 . S
C49 Eu40 2.828 1_565 S
C49 C43 1.505 . S
C49 O61 1.249 . S
C49 O62 1.244 . S
O50 Eu41 2.373 . S
O50 C52 1.258 . S
O51 Eu40 2.392 . S
O51 C52 1.242 . S
C52 O50 1.258 . S
C52 O51 1.242 . S
O53 Eu40 2.426 1_565 S
O53 C57 1.218 1_565 S
O54 Eu41 2.488 . S
O54 C70 1.249 . S
O55 Eu41 2.471 . S
O55 C70 1.244 . S
O56 Eu41 2.349 . S
O56 C57 1.265 . S
C57 O53 1.218 1_545 S
C57 O56 1.265 . S
O58 Eu40 2.373 1_565 S
O58 C71 1.258 . S
O59 Eu41 2.392 1_565 S
O59 C71 1.242 . S
O60 Eu41 2.418 . S
O60 C42 1.244 . S
O61 Eu40 2.488 1_565 S
O61 C49 1.249 . S
O62 Eu40 2.471 1_565 S
O62 C49 1.244 . S
O63 Eu40 2.349 . S
O63 C42 1.265 . S
C64 C65 1.379 . S
C64 C68 1.373 . S
C64 C70 1.505 . S
C65 C64 1.379 . S
C65 C67 1.369 . S
C65 H76 0.930 . S
C66 C68 1.383 . S
C66 C69 1.382 . S
C66 H77 0.930 . S
C67 C65 1.369 . S
C67 C69 1.392 . S
C67 H78 0.930 . S
C68 C64 1.373 . S
C68 C66 1.383 . S
C68 H79 0.931 . S
C69 C66 1.382 . S
C69 C67 1.392 . S
C70 Eu41 2.828 . S
C70 O54 1.249 . S
C70 O55 1.244 . S
C70 C64 1.505 . S
C71 O58 1.258 . S
C71 O59 1.242 . S
H72 C44 0.930 . S
H73 C45 0.930 . S
H74 C46 0.930 . S
H75 C47 0.931 . S
H76 C65 0.930 . S
H77 C66 0.930 . S
H78 C67 0.930 . S
H79 C68 0.931 . S
Eu80 C89 2.828 . S
Eu80 O91 2.392 . S
Eu80 O93 2.418 . S
Eu80 O98 2.373 . S
Eu80 O101 2.488 . S
Eu80 O102 2.471 . S
Eu80 O103 2.349 . S
Eu81 O90 2.373 . S
Eu81 O94 2.488 . S
Eu81 O95 2.471 . S
Eu81 O96 2.349 . S
Eu81 O99 2.392 . S
Eu81 O100 2.418 . S
Eu81 C110 2.828 . S
C82 O100 1.244 . S
C82 O103 1.265 . S
C83 C84 1.379 . S
C83 C87 1.373 . S
C83 C89 1.505 . S
C84 C83 1.379 . S
C84 C86 1.369 . S
C84 H112 0.930 . S
C85 C87 1.383 . S
C85 C88 1.382 . S
C85 H113 0.930 . S
C86 C84 1.369 . S
C86 C88 1.392 . S
C86 H114 0.930 . S
C87 C83 1.373 . S
C87 C85 1.383 . S
C87 H115 0.931 . S
C88 C85 1.382 . S
C88 C86 1.392 . S
C89 Eu80 2.828 . S
C89 C83 1.505 . S
C89 O101 1.249 . S
C89 O102 1.244 . S
O90 Eu81 2.373 . S
O90 C92 1.258 . S
O91 Eu80 2.392 . S
O91 C92 1.242 . S
C92 O90 1.258 . S
C92 O91 1.242 . S
O93 Eu80 2.418 . S
O93 C97 1.244 . S
O94 Eu81 2.488 . S
O94 C110 1.249 . S
O95 Eu81 2.471 . S
O95 C110 1.244 . S
O96 Eu81 2.349 . S
O96 C97 1.265 . S
C97 O93 1.244 . S
C97 O96 1.265 . S
O98 Eu80 2.373 . S
O98 C111 1.258 . S
O99 Eu81 2.392 . S
O99 C111 1.242 . S
O100 Eu81 2.418 . S
O100 C82 1.244 . S
O101 Eu80 2.488 . S
O101 C89 1.249 . S
O102 Eu80 2.471 . S
O102 C89 1.244 . S
O103 Eu80 2.349 . S
O103 C82 1.265 . S
C104 C105 1.379 . S
C104 C108 1.373 . S
C104 C110 1.505 . S
C105 C104 1.379 . S
C105 C107 1.369 . S
C105 H116 0.930 . S
C106 C108 1.383 . S
C106 C109 1.382 . S
C106 H117 0.930 . S
C107 C105 1.369 . S
C107 C109 1.392 . S
C107 H118 0.930 . S
C108 C104 1.373 . S
C108 C106 1.383 . S
C108 H119 0.931 . S
C109 C106 1.382 . S
C109 C107 1.392 . S
C110 Eu81 2.828 . S
C110 O94 1.249 . S
C110 O95 1.244 . S
C110 C104 1.505 . S
C111 O98 1.258 . S
C111 O99 1.242 . S
H112 C84 0.930 . S
H113 C85 0.930 . S
H114 C86 0.930 . S
H115 C87 0.931 . S
H116 C105 0.930 . S
H117 C106 0.930 . S
H118 C107 0.930 . S
H119 C108 0.931 . S
H120 C121 0.949 . S
C121 H120 0.949 . S
C121 C122 1.395 . S
C121 C123 1.391 . S
C122 C121 1.395 . S
C122 C125 1.390 1_545 S
C123 C121 1.391 . S
C123 C127 1.387 . S
C123 C128 1.491 . S
H124 C125 0.950 . S
C125 C122 1.390 1_565 S
C125 H124 0.950 . S
C125 C126 1.378 . S
C126 C125 1.378 . S
C126 C127 1.409 1_565 S
C127 C123 1.387 . S
C127 C126 1.409 1_545 S
C127 H129 0.951 . S
C128 C123 1.491 . S
C128 C130 1.382 . S
C128 C132 1.404 . S
H129 C127 0.951 . S
C130 C128 1.382 . S
C130 C131 1.390 . S
C130 H135 0.949 . S
C131 C130 1.390 . S
C131 C136 1.399 . S
C132 C128 1.404 . S
C132 H133 0.950 . S
C132 C134 1.375 . S
H133 C132 0.950 . S
C134 C132 1.375 . S
C134 C136 1.382 . S
C134 H138 0.950 . S
H135 C130 0.949 . S
C136 C131 1.399 . S
C136 C134 1.382 . S
C136 H137 0.952 . S
H137 C136 0.952 . S
H138 C134 0.950 . S
H139 C140 0.949 . S
C140 H139 0.949 . S
C140 C141 1.395 . S
C140 C142 1.391 . S
C141 C140 1.395 . S
C141 C144 1.390 . S
C142 C140 1.391 . S
C142 C146 1.387 . S
C142 C147 1.491 . S
H143 C144 0.950 . S
C144 C141 1.390 . S
C144 H143 0.950 . S
C144 C145 1.378 . S
C145 C144 1.378 . S
C145 C146 1.409 . S
C146 C142 1.387 . S
C146 C145 1.409 . S
C146 H148 0.951 . S
C147 C142 1.491 . S
C147 C149 1.382 . S
C147 C151 1.404 . S
H148 C146 0.951 . S
C149 C147 1.382 . S
C149 C150 1.390 . S
C149 H154 0.949 . S
C150 C149 1.390 . S
C150 C155 1.399 . S
C151 C147 1.404 . S
C151 H152 0.950 . S
C151 C153 1.375 . S
H152 C151 0.950 . S
C153 C151 1.375 . S
C153 C155 1.382 . S
C153 H157 0.950 . S
H154 C149 0.949 . S
C155 C150 1.399 . S
C155 C153 1.382 . S
C155 H156 0.952 . S
H156 C155 0.952 . S
H157 C153 0.950 . S
H158 C159 0.949 . S
C159 H158 0.949 . S
C159 C160 1.395 . S
C159 C161 1.391 . S
C160 C159 1.395 . S
C160 C163 1.390 1_455 S
C161 C159 1.391 . S
C161 C165 1.387 . S
C161 C166 1.491 . S
H162 C163 0.950 . S
C163 C160 1.390 1_655 S
C163 H162 0.950 . S
C163 C164 1.378 . S
C164 C163 1.378 . S
C164 C165 1.409 1_655 S
C165 C161 1.387 . S
C165 C164 1.409 1_455 S
C165 H167 0.951 . S
C166 C161 1.491 . S
C166 C168 1.382 . S
C166 C170 1.404 . S
H167 C165 0.951 . S
C168 C166 1.382 . S
C168 C169 1.390 . S
C168 H173 0.949 . S
C169 C168 1.390 . S
C169 C174 1.399 . S
C170 C166 1.404 . S
C170 H171 0.950 . S
C170 C172 1.375 . S
H171 C170 0.950 . S
C172 C170 1.375 . S
C172 C174 1.382 . S
C172 H176 0.950 . S
H173 C168 0.949 . S
C174 C169 1.399 . S
C174 C172 1.382 . S
C174 H175 0.952 . S
H175 C174 0.952 . S
H176 C172 0.950 . S
H177 C178 0.949 1_655 S
C178 H177 0.949 1_455 S
C178 C179 1.395 . S
C178 C180 1.391 . S
C179 C178 1.395 . S
C179 C182 1.390 . S
C180 C178 1.391 . S
C180 C184 1.387 . S
C180 C185 1.491 1_455 S
H181 C182 0.950 . S
C182 C179 1.390 . S
C182 H181 0.950 . S
C182 C183 1.378 . S
C183 C182 1.378 . S
C183 C184 1.409 . S
C184 C180 1.387 . S
C184 C183 1.409 . S
C184 H186 0.951 . S
C185 C180 1.491 1_655 S
C185 C187 1.382 . S
C185 C189 1.404 . S
H186 C184 0.951 . S
C187 C185 1.382 . S
C187 C188 1.390 . S
C187 H192 0.949 . S
C188 C187 1.390 . S
C188 C193 1.399 . S
C189 C185 1.404 . S
C189 H190 0.950 . S
C189 C191 1.375 . S
H190 C189 0.950 . S
C191 C189 1.375 . S
C191 C193 1.382 . S
C191 H195 0.950 . S
H192 C187 0.949 . S
C193 C188 1.399 . S
C193 C191 1.382 . S
C193 H194 0.952 . S
H194 C193 0.952 . S
H195 C191 0.950 . S
H196 C197 0.949 1_565 S
C197 H196 0.949 1_545 S
C197 C198 1.395 . S
C197 C199 1.391 . S
C198 C197 1.395 . S
C198 C201 1.390 . S
C199 C197 1.391 . S
C199 C203 1.387 . S
C199 C204 1.511 . S
H200 C201 0.950 . S
C201 C198 1.390 . S
C201 H200 0.950 . S
C201 C202 1.378 . S
C202 C201 1.378 . S
C202 C203 1.409 . S
C203 C199 1.387 . S
C203 C202 1.409 . S
C203 H205 0.951 . S
C204 C199 1.511 . S
C204 C206 1.360 1_545 S
C204 C208 1.405 1_545 S
H205 C203 0.951 . S
C206 C204 1.360 1_565 S
C206 C207 1.390 . S
C206 H211 0.949 . S
C207 C206 1.390 . S
C207 C212 1.399 . S
C208 C204 1.405 1_565 S
C208 H209 0.950 1_565 S
C208 C210 1.375 . S
H209 C208 0.950 1_545 S
C210 C208 1.375 . S
C210 C212 1.382 . S
C210 H214 0.950 . S
H211 C206 0.949 . S
C212 C207 1.399 . S
C212 C210 1.382 . S
C212 H213 0.952 . S
H213 C212 0.952 . S
H214 C210 0.950 . S
H215 C216 0.949 . S
C216 H215 0.949 . S
C216 C217 1.395 . S
C216 C218 1.391 . S
C217 C216 1.395 . S
C217 C220 1.390 . S
C218 C216 1.391 . S
C218 C222 1.387 . S
C218 C223 1.491 . S
H219 C220 0.950 . S
C220 C217 1.390 . S
C220 H219 0.950 . S
C220 C221 1.378 . S
C221 C220 1.378 . S
C221 C222 1.409 . S
C222 C218 1.387 . S
C222 C221 1.409 . S
C222 H224 0.951 . S
C223 C218 1.491 . S
C223 C225 1.382 . S
C223 C227 1.404 . S
H224 C222 0.951 . S
C225 C223 1.382 . S
C225 C226 1.390 . S
C225 H230 0.949 . S
C226 C225 1.390 . S
C226 C231 1.399 . S
C227 C223 1.404 . S
C227 H228 0.950 . S
C227 C229 1.375 . S
H228 C227 0.950 . S
C229 C227 1.375 . S
C229 C231 1.382 . S
C229 H233 0.950 . S
H230 C225 0.949 . S
C231 C226 1.399 . S
C231 C229 1.382 . S
C231 H232 0.952 . S
H232 C231 0.952 . S
H233 C229 0.950 . S
H234 C240 0.930 . S
H235 C243 0.930 . S
H236 C244 0.930 . S
H237 C245 0.930 . S
H238 C248 0.930 . S
H239 C249 0.930 . S
C240 H234 0.930 . S
C240 C241 1.355 . S
C240 C242 1.415 . S
C241 C240 1.355 . S
C241 C243 1.419 . S
C242 C240 1.415 . S
C242 C247 1.425 . S
C242 C249 1.409 . S
C243 H235 0.930 . S
C243 C241 1.419 . S
C243 C244 1.362 . S
C244 H236 0.930 . S
C244 C243 1.362 . S
C244 C247 1.409 . S
C245 H237 0.930 . S
C245 C246 1.355 . S
C245 C247 1.415 . S
C246 C245 1.355 . S
C246 C248 1.419 . S
C247 C242 1.425 . S
C247 C244 1.409 . S
C247 C245 1.415 . S
C248 H238 0.930 . S
C248 C246 1.419 . S
C248 C249 1.362 . S
C249 H239 0.930 . S
C249 C242 1.409 . S
C249 C248 1.362 . S
H250 C256 0.930 . S
H251 C259 0.930 . S
H252 C260 0.930 . S
H253 C261 0.930 . S
H254 C264 0.930 . S
H255 C265 0.930 . S
C256 H250 0.930 . S
C256 C257 1.355 . S
C256 C258 1.415 . S
C257 C256 1.355 . S
C257 C259 1.419 . S
C258 C256 1.415 . S
C258 C263 1.425 . S
C258 C265 1.409 . S
C259 H251 0.930 . S
C259 C257 1.419 . S
C259 C260 1.362 . S
C260 H252 0.930 . S
C260 C259 1.362 . S
C260 C263 1.409 . S
C261 H253 0.930 . S
C261 C262 1.355 . S
C261 C263 1.415 . S
C262 C261 1.355 . S
C262 C264 1.419 . S
C263 C258 1.425 . S
C263 C260 1.409 . S
C263 C261 1.415 . S
C264 H254 0.930 . S
C264 C262 1.419 . S
C264 C265 1.362 . S
C265 H255 0.930 . S
C265 C258 1.409 . S
C265 C264 1.362 . S
H266 C272 0.930 . S
H267 C275 0.930 . S
H268 C276 0.930 . S
H269 C277 0.930 . S
H270 C280 0.930 . S
H271 C281 0.930 . S
C272 H266 0.930 . S
C272 C273 1.355 . S
C272 C274 1.415 . S
C273 C272 1.355 . S
C273 C275 1.419 . S
C274 C272 1.415 . S
C274 C279 1.425 . S
C274 C281 1.409 . S
C275 H267 0.930 . S
C275 C273 1.419 . S
C275 C276 1.362 . S
C276 H268 0.930 . S
C276 C275 1.362 . S
C276 C279 1.409 . S
C277 H269 0.930 . S
C277 C278 1.355 . S
C277 C279 1.415 . S
C278 C277 1.355 . S
C278 C280 1.419 . S
C279 C274 1.425 . S
C279 C276 1.409 . S
C279 C277 1.415 . S
C280 H270 0.930 . S
C280 C278 1.419 . S
C280 C281 1.362 . S
C281 H271 0.930 . S
C281 C274 1.409 . S
C281 C280 1.362 . S
H282 C288 0.930 . S
H283 C291 0.930 . S
H284 C292 0.930 . S
H285 C293 0.930 . S
H286 C296 0.930 . S
H287 C297 0.930 . S
C288 H282 0.930 . S
C288 C289 1.355 . S
C288 C290 1.415 . S
C289 C288 1.355 . S
C289 C291 1.419 . S
C290 C288 1.415 . S
C290 C295 1.425 . S
C290 C297 1.409 . S
C291 H283 0.930 . S
C291 C289 1.419 . S
C291 C292 1.362 . S
C292 H284 0.930 . S
C292 C291 1.362 . S
C292 C295 1.409 . S
C293 H285 0.930 . S
C293 C294 1.355 . S
C293 C295 1.415 . S
C294 C293 1.355 . S
C294 C296 1.419 . S
C295 C290 1.425 . S
C295 C292 1.409 . S
C295 C293 1.415 . S
C296 H286 0.930 . S
C296 C294 1.419 . S
C296 C297 1.362 . S
C297 H287 0.930 . S
C297 C290 1.409 . S
C297 C296 1.362 . S
H298 C304 0.930 . S
H299 C307 0.930 . S
H300 C308 0.930 . S
H301 C309 0.930 . S
H302 C312 0.930 . S
H303 C313 0.930 . S
C304 H298 0.930 . S
C304 C305 1.355 . S
C304 C306 1.415 . S
C305 C304 1.355 . S
C305 C307 1.419 . S
C306 C304 1.415 . S
C306 C311 1.425 . S
C306 C313 1.409 . S
C307 H299 0.930 . S
C307 C305 1.419 . S
C307 C308 1.362 . S
C308 H300 0.930 . S
C308 C307 1.362 . S
C308 C311 1.409 . S
C309 H301 0.930 . S
C309 C310 1.355 . S
C309 C311 1.415 . S
C310 C309 1.355 . S
C310 C312 1.419 . S
C311 C306 1.425 . S
C311 C308 1.409 . S
C311 C309 1.415 . S
C312 H302 0.930 . S
C312 C310 1.419 . S
C312 C313 1.362 . S
C313 H303 0.930 . S
C313 C306 1.409 . S
C313 C312 1.362 . S
H314 C320 0.930 . S
H315 C323 0.930 . S
H316 C324 0.930 . S
H317 C325 0.930 . S
H318 C328 0.930 . S
H319 C329 0.930 . S
C320 H314 0.930 . S
C320 C321 1.355 . S
C320 C322 1.415 . S
C321 C320 1.355 . S
C321 C323 1.419 . S
C322 C320 1.415 . S
C322 C327 1.425 . S
C322 C329 1.409 . S
C323 H315 0.930 . S
C323 C321 1.419 . S
C323 C324 1.362 . S
C324 H316 0.930 . S
C324 C323 1.362 . S
C324 C327 1.409 . S
C325 H317 0.930 . S
C325 C326 1.355 . S
C325 C327 1.415 . S
C326 C325 1.355 . S
C326 C328 1.419 . S
C327 C322 1.425 . S
C327 C324 1.409 . S
C327 C325 1.415 . S
C328 H318 0.930 . S
C328 C326 1.419 . S
C328 C329 1.362 . S
C329 H319 0.930 . S
C329 C322 1.409 . S
C329 C328 1.362 . S
H330 C336 0.930 . S
H331 C339 0.930 . S
H332 C340 0.930 . S
H333 C341 0.930 . S
H334 C344 0.930 . S
H335 C345 0.930 . S
C336 H330 0.930 . S
C336 C337 1.355 . S
C336 C338 1.415 . S
C337 C336 1.355 . S
C337 C339 1.419 . S
C338 C336 1.415 . S
C338 C343 1.425 . S
C338 C345 1.409 . S
C339 H331 0.930 . S
C339 C337 1.419 . S
C339 C340 1.362 . S
C340 H332 0.930 . S
C340 C339 1.362 . S
C340 C343 1.409 . S
C341 H333 0.930 . S
C341 C342 1.355 . S
C341 C343 1.415 . S
C342 C341 1.355 . S
C342 C344 1.419 . S
C343 C338 1.425 . S
C343 C340 1.409 . S
C343 C341 1.415 . S
C344 H334 0.930 . S
C344 C342 1.419 . S
C344 C345 1.362 . S
C345 H335 0.930 . S
C345 C338 1.409 . S
C345 C344 1.362 . S
H346 C352 0.930 . S
H347 C355 0.930 . S
H348 C356 0.930 . S
H349 C357 0.930 . S
H350 C360 0.930 1_455 S
H351 C361 0.930 . S
C352 H346 0.930 . S
C352 C353 1.355 . S
C352 C354 1.415 . S
C353 C352 1.355 . S
C353 C355 1.419 . S
C354 C352 1.415 . S
C354 C359 1.425 . S
C354 C361 1.409 . S
C355 H347 0.930 . S
C355 C353 1.419 . S
C355 C356 1.362 . S
C356 H348 0.930 . S
C356 C355 1.362 . S
C356 C359 1.409 . S
C357 H349 0.930 . S
C357 C358 1.355 . S
C357 C359 1.415 . S
C358 C357 1.355 . S
C358 C360 1.419 . S
C359 C354 1.425 . S
C359 C356 1.409 . S
C359 C357 1.415 . S
C360 H350 0.930 1_655 S
C360 C358 1.419 . S
C360 C361 1.362 . S
C361 H351 0.930 . S
C361 C354 1.409 . S
C361 C360 1.362 . S
H362 C368 0.930 . S
H363 C371 0.930 . S
H364 C372 0.930 . S
H365 C373 0.930 . S
H366 C376 0.930 . S
H367 C377 0.930 . S
C368 H362 0.930 . S
C368 C369 1.355 . S
C368 C370 1.415 . S
C369 C368 1.355 . S
C369 C371 1.419 . S
C370 C368 1.415 . S
C370 C375 1.425 . S
C370 C377 1.409 . S
C371 H363 0.930 . S
C371 C369 1.419 . S
C371 C372 1.362 . S
C372 H364 0.930 . S
C372 C371 1.362 . S
C372 C375 1.409 . S
C373 H365 0.930 . S
C373 C374 1.355 . S
C373 C375 1.415 . S
C374 C373 1.355 . S
C374 C376 1.419 . S
C375 C370 1.425 . S
C375 C372 1.409 . S
C375 C373 1.415 . S
C376 H366 0.930 . S
C376 C374 1.419 . S
C376 C377 1.362 . S
C377 H367 0.930 . S
C377 C370 1.409 . S
C377 C376 1.362 . S
H378 C384 0.930 . S
H379 C387 0.930 . S
H380 C388 0.930 . S
H381 C389 0.930 . S
H382 C392 0.930 . S
H383 C393 0.930 . S
C384 H378 0.930 . S
C384 C385 1.355 . S
C384 C386 1.415 . S
C385 C384 1.355 . S
C385 C387 1.419 . S
C386 C384 1.415 . S
C386 C391 1.425 . S
C386 C393 1.409 . S
C387 H379 0.930 . S
C387 C385 1.419 . S
C387 C388 1.362 . S
C388 H380 0.930 . S
C388 C387 1.362 . S
C388 C391 1.409 . S
C389 H381 0.930 . S
C389 C390 1.355 . S
C389 C391 1.415 . S
C390 C389 1.355 . S
C390 C392 1.419 . S
C391 C386 1.425 . S
C391 C388 1.409 . S
C391 C389 1.415 . S
C392 H382 0.930 . S
C392 C390 1.419 . S
C392 C393 1.362 . S
C393 H383 0.930 . S
C393 C386 1.409 . S
C393 C392 1.362 . S
H394 C400 0.930 . S
H395 C403 0.930 . S
H396 C404 0.930 . S
H397 C405 0.930 . S
H398 C408 0.930 . S
H399 C409 0.930 . S
C400 H394 0.930 . S
C400 C401 1.355 . S
C400 C402 1.415 . S
C401 C400 1.355 . S
C401 C403 1.419 . S
C402 C400 1.415 . S
C402 C407 1.425 . S
C402 C409 1.409 . S
C403 H395 0.930 . S
C403 C401 1.419 . S
C403 C404 1.362 . S
C404 H396 0.930 . S
C404 C403 1.362 . S
C404 C407 1.409 . S
C405 H397 0.930 . S
C405 C406 1.355 . S
C405 C407 1.415 . S
C406 C405 1.355 . S
C406 C408 1.419 . S
C407 C402 1.425 . S
C407 C404 1.409 . S
C407 C405 1.415 . S
C408 H398 0.930 . S
C408 C406 1.419 . S
C408 C409 1.362 . S
C409 H399 0.930 . S
C409 C402 1.409 . S
C409 C408 1.362 . S
H410 C416 0.930 . S
H411 C419 0.930 . S
H412 C420 0.930 . S
H413 C421 0.930 . S
H414 C424 0.930 . S
H415 C425 0.930 . S
C416 H410 0.930 . S
C416 C417 1.355 . S
C416 C418 1.415 . S
C417 C416 1.355 . S
C417 C419 1.419 . S
C418 C416 1.415 . S
C418 C423 1.425 . S
C418 C425 1.409 . S
C419 H411 0.930 . S
C419 C417 1.419 . S
C419 C420 1.362 . S
C420 H412 0.930 . S
C420 C419 1.362 . S
C420 C423 1.409 . S
C421 H413 0.930 . S
C421 C422 1.355 . S
C421 C423 1.415 . S
C422 C421 1.355 . S
C422 C424 1.419 . S
C423 C418 1.425 . S
C423 C420 1.409 . S
C423 C421 1.415 . S
C424 H414 0.930 . S
C424 C422 1.419 . S
C424 C425 1.362 . S
C425 H415 0.930 . S
C425 C418 1.409 . S
C425 C424 1.362 . S
H426 C432 0.930 . S
H427 C435 0.930 . S
H428 C436 0.930 . S
H429 C437 0.930 1_655 S
H430 C440 0.930 . S
H431 C441 0.930 . S
C432 H426 0.930 . S
C432 C433 1.355 . S
C432 C434 1.415 . S
C433 C432 1.355 . S
C433 C435 1.419 1_455 S
C434 C432 1.415 . S
C434 C439 1.425 . S
C434 C441 1.409 . S
C435 H427 0.930 . S
C435 C433 1.419 1_655 S
C435 C436 1.362 . S
C436 H428 0.930 . S
C436 C435 1.362 . S
C436 C439 1.409 1_655 S
C437 H429 0.930 1_455 S
C437 C438 1.355 . S
C437 C439 1.415 1_556 S
C438 C437 1.355 . S
C438 C440 1.419 . S
C439 C434 1.425 . S
C439 C436 1.409 1_455 S
C439 C437 1.415 1_554 S
C440 H430 0.930 . S
C440 C438 1.419 . S
C440 C441 1.362 1_556 S
C441 H431 0.930 . S
C441 C434 1.409 . S
C441 C440 1.362 1_554 S
H442 C448 0.930 . S
H443 C451 0.930 . S
H444 C452 0.930 . S
H445 C453 0.930 1_565 S
H446 C456 0.930 . S
H447 C457 0.930 . S
C448 H442 0.930 . S
C448 C449 1.355 . S
C448 C450 1.415 . S
C449 C448 1.355 . S
C449 C451 1.419 1_545 S
C450 C448 1.415 . S
C450 C455 1.425 . S
C450 C457 1.409 . S
C451 H443 0.930 . S
C451 C449 1.419 1_565 S
C451 C452 1.362 . S
C452 H444 0.930 . S
C452 C451 1.362 . S
C452 C455 1.409 1_565 S
C453 H445 0.930 1_545 S
C453 C454 1.355 . S
C453 C455 1.415 . S
C454 C453 1.355 . S
C454 C456 1.419 . S
C455 C450 1.425 . S
C455 C452 1.409 1_545 S
C455 C453 1.415 . S
C456 H446 0.930 . S
C456 C454 1.419 . S
C456 C457 1.362 . S
C457 H447 0.930 . S
C457 C450 1.409 . S
C457 C456 1.362 . S
H458 C464 0.930 . S
H459 C467 0.930 . S
H460 C468 0.930 . S
H461 C469 0.930 . S
H462 C472 0.930 . S
H463 C473 0.930 . S
C464 H458 0.930 . S
C464 C465 1.355 . S
C464 C466 1.415 . S
C465 C464 1.355 . S
C465 C467 1.419 . S
C466 C464 1.415 . S
C466 C471 1.425 . S
C466 C473 1.409 . S
C467 H459 0.930 . S
C467 C465 1.419 . S
C467 C468 1.362 . S
C468 H460 0.930 . S
C468 C467 1.362 . S
C468 C471 1.409 . S
C469 H461 0.930 . S
C469 C470 1.355 . S
C469 C471 1.415 . S
C470 C469 1.355 . S
C470 C472 1.419 . S
C471 C466 1.425 . S
C471 C468 1.409 . S
C471 C469 1.415 . S
C472 H462 0.930 . S
C472 C470 1.419 . S
C472 C473 1.362 . S
C473 H463 0.930 . S
C473 C466 1.409 . S
C473 C472 1.362 . S
H474 C480 0.930 . S
H475 C483 0.930 . S
H476 C484 0.930 . S
H477 C485 0.930 . S
H478 C488 0.930 . S
H479 C489 0.930 . S
C480 H474 0.930 . S
C480 C481 1.355 . S
C480 C482 1.415 . S
C481 C480 1.355 . S
C481 C483 1.419 . S
C482 C480 1.415 . S
C482 C487 1.425 . S
C482 C489 1.409 . S
C483 H475 0.930 . S
C483 C481 1.419 . S
C483 C484 1.362 . S
C484 H476 0.930 . S
C484 C483 1.362 . S
C484 C487 1.409 . S
C485 H477 0.930 . S
C485 C486 1.355 . S
C485 C487 1.415 . S
C486 C485 1.355 . S
C486 C488 1.419 . S
C487 C482 1.425 . S
C487 C484 1.409 . S
C487 C485 1.415 . S
C488 H478 0.930 . S
C488 C486 1.419 . S
C488 C489 1.362 . S
C489 H479 0.930 . S
C489 C482 1.409 . S
C489 C488 1.362 . S
H490 C496 0.930 . S
H491 C499 0.930 . S
H492 C500 0.930 . S
H493 C501 0.930 . S
H494 C504 0.930 . S
H495 C505 0.930 . S
C496 H490 0.930 . S
C496 C497 1.355 . S
C496 C498 1.415 . S
C497 C496 1.355 . S
C497 C499 1.419 . S
C498 C496 1.415 . S
C498 C503 1.425 . S
C498 C505 1.409 . S
C499 H491 0.930 . S
C499 C497 1.419 . S
C499 C500 1.362 . S
C500 H492 0.930 . S
C500 C499 1.362 . S
C500 C503 1.409 . S
C501 H493 0.930 . S
C501 C502 1.355 . S
C501 C503 1.415 1_554 S
C502 C501 1.355 . S
C502 C504 1.419 . S
C503 C498 1.425 . S
C503 C500 1.409 . S
C503 C501 1.415 1_556 S
C504 H494 0.930 . S
C504 C502 1.419 . S
C504 C505 1.362 1_554 S
C505 H495 0.930 . S
C505 C498 1.409 . S
C505 C504 1.362 1_556 S
H506 C512 0.930 . S
H507 C515 0.930 . S
H508 C516 0.930 . S
H509 C517 0.930 . S
H510 C520 0.930 . S
H511 C521 0.930 . S
C512 H506 0.930 . S
C512 C513 1.355 1_655 S
C512 C514 1.415 1_655 S
C513 C512 1.355 1_455 S
C513 C515 1.419 . S
C514 C512 1.415 1_455 S
C514 C519 1.425 . S
C514 C521 1.409 1_455 S
C515 H507 0.930 . S
C515 C513 1.419 . S
C515 C516 1.362 . S
C516 H508 0.930 . S
C516 C515 1.362 . S
C516 C519 1.409 . S
C517 H509 0.930 . S
C517 C518 1.355 . S
C517 C519 1.415 . S
C518 C517 1.355 . S
C518 C520 1.419 1_455 S
C519 C514 1.425 . S
C519 C516 1.409 . S
C519 C517 1.415 . S
C520 H510 0.930 . S
C520 C518 1.419 1_655 S
C520 C521 1.362 . S
C521 H511 0.930 . S
C521 C514 1.409 1_655 S
C521 C520 1.362 . S
C241 C12 3.094 . S
C246 C226 3.000 . S
C257 C52 3.094 . S
C262 C188 3.012 . S
C273 C111 3.115 . S
C278 C207 3.030 . S
C289 C31 3.052 . S
C294 C221 2.990 . S
C310 C183 2.993 . S
C305 C71 3.059 . S
C326 C202 2.971 . S
C321 C92 3.024 . S
C337 C48 0.810 . S
C342 C150 0.827 . S
C353 C109 0.515 . S
C358 C164 0.215 . S
C369 C29 0.254 . S
C374 C126 0.225 . S
C390 C145 0.452 . S
C385 C69 0.458 . S
C406 C169 0.600 . S
C401 C88 0.435 . S
C417 C8 0.533 . S
C422 C131 0.631 . S
C438 C160 1.329 . S
C433 C17 1.307 . S
C449 C57 1.239 . S
C454 C122 1.299 . S
C465 C97 1.292 . S
C470 C141 1.336 . S
C486 C198 1.716 . S
C481 C42 1.725 . S
C502 C217 1.758 . S
C497 C82 1.705 . S
C513 C2 1.728 . S
C518 C179 1.764 . S
