# Generated by pormake.
# Topology pyr, (3,6)-cn, num edge types: 1
# Building blocks:
#     Node 0, Type 0, BuildingBlock: MIDCAF_clean_linker_0, # of connection points: 3
#     Node 1, Type 0, BuildingBlock: MIDCAF_clean_linker_0, # of connection points: 3
#     Node 2, Type 0, BuildingBlock: MIDCAF_clean_linker_0, # of connection points: 3
#     Node 3, Type 0, BuildingBlock: MIDCAF_clean_linker_0, # of connection points: 3
#     Node 4, Type 0, BuildingBlock: MIDCAF_clean_linker_0, # of connection points: 3
#     Node 5, Type 0, BuildingBlock: MIDCAF_clean_linker_0, # of connection points: 3
#     Node 6, Type 0, BuildingBlock: MIDCAF_clean_linker_0, # of connection points: 3
#     Node 7, Type 0, BuildingBlock: MIDCAF_clean_linker_0, # of connection points: 3
#     Node 8, Type 1, BuildingBlock: GEDQOX_clean_sbu_0, # of connection points: 6
#     Node 9, Type 1, BuildingBlock: GEDQOX_clean_sbu_0, # of connection points: 6
#     Node 10, Type 1, BuildingBlock: GEDQOX_clean_sbu_0, # of connection points: 6
#     Node 11, Type 1, BuildingBlock: GEDQOX_clean_sbu_0, # of connection points: 6
#     Edge 12, Type (0, 1), BuildingBlock: OJICUG_clean_linker_0, # of connection points: 2
#     Edge 13, Type (0, 1), BuildingBlock: OJICUG_clean_linker_0, # of connection points: 2
#     Edge 14, Type (0, 1), BuildingBlock: OJICUG_clean_linker_0, # of connection points: 2
#     Edge 15, Type (0, 1), BuildingBlock: OJICUG_clean_linker_0, # of connection points: 2
#     Edge 16, Type (0, 1), BuildingBlock: OJICUG_clean_linker_0, # of connection points: 2
#     Edge 17, Type (0, 1), BuildingBlock: OJICUG_clean_linker_0, # of connection points: 2
#     Edge 18, Type (0, 1), BuildingBlock: OJICUG_clean_linker_0, # of connection points: 2
#     Edge 19, Type (0, 1), BuildingBlock: OJICUG_clean_linker_0, # of connection points: 2
#     Edge 20, Type (0, 1), BuildingBlock: OJICUG_clean_linker_0, # of connection points: 2
#     Edge 21, Type (0, 1), BuildingBlock: OJICUG_clean_linker_0, # of connection points: 2
#     Edge 22, Type (0, 1), BuildingBlock: OJICUG_clean_linker_0, # of connection points: 2
#     Edge 23, Type (0, 1), BuildingBlock: OJICUG_clean_linker_0, # of connection points: 2
#     Edge 24, Type (0, 1), BuildingBlock: OJICUG_clean_linker_0, # of connection points: 2
#     Edge 25, Type (0, 1), BuildingBlock: OJICUG_clean_linker_0, # of connection points: 2
#     Edge 26, Type (0, 1), BuildingBlock: OJICUG_clean_linker_0, # of connection points: 2
#     Edge 27, Type (0, 1), BuildingBlock: OJICUG_clean_linker_0, # of connection points: 2
#     Edge 28, Type (0, 1), BuildingBlock: OJICUG_clean_linker_0, # of connection points: 2
#     Edge 29, Type (0, 1), BuildingBlock: OJICUG_clean_linker_0, # of connection points: 2
#     Edge 30, Type (0, 1), BuildingBlock: OJICUG_clean_linker_0, # of connection points: 2
#     Edge 31, Type (0, 1), BuildingBlock: OJICUG_clean_linker_0, # of connection points: 2
#     Edge 32, Type (0, 1), BuildingBlock: OJICUG_clean_linker_0, # of connection points: 2
#     Edge 33, Type (0, 1), BuildingBlock: OJICUG_clean_linker_0, # of connection points: 2
#     Edge 34, Type (0, 1), BuildingBlock: OJICUG_clean_linker_0, # of connection points: 2
#     Edge 35, Type (0, 1), BuildingBlock: OJICUG_clean_linker_0, # of connection points: 2
# Relax obj value: 0.137
# Max RMSD: 0.167
# Mean RMSD: 0.067
data_MOF--net-pyr--node1-GEDQOX_clean_sbu_0--node2-MIDCAF_clean_linker_0--edge1-OJICUG_clean_linker_0
_symmetry_space_group_name_H-M    P1
_symmetry_Int_Tables_number       1
_symmetry_cell_setting            triclinic
loop_
_symmetry_equiv_pos_as_xyz
'x, y, z'
_cell_length_a     37.82558
_cell_length_b     38.013057
_cell_length_c     33.00927
_cell_angle_alpha  87.117909
_cell_angle_beta   90.23522
_cell_angle_gamma 83.350958
loop_
_atom_site_label
_atom_site_type_symbol
_atom_site_fract_x
_atom_site_fract_y
_atom_site_fract_z
_atom_type_partial_charge
C0 C 0.13179 0.15717 0.29954 0.0
C1 C 0.14554 0.12373 0.31691 0.0
C2 C 0.17635 0.10635 0.29943 0.0
C3 C 0.19293 0.12203 0.26602 0.0
H4 H 0.28667 0.11578 0.19746 0.0
H5 H 0.34295 0.08794 0.17242 0.0
H6 H 0.33495 0.16195 0.0685 0.0
H7 H 0.27813 0.19011 0.09366 0.0
H8 H 0.20964 0.25837 0.09223 0.0
H9 H 0.17885 0.31481 0.06496 0.0
H10 H 0.11115 0.31978 0.17008 0.0
H11 H 0.14081 0.2633 0.19626 0.0
H12 H 0.13646 0.19845 0.254 0.0
H13 H 0.10788 0.17132 0.31142 0.0
H14 H 0.1881 0.08078 0.31198 0.0
H15 H 0.21662 0.10781 0.25375 0.0
N16 N 0.22727 0.15732 0.19698 0.0
N17 N 0.22671 0.20462 0.14782 0.0
N18 N 0.1812 0.20426 0.19611 0.0
C19 C 0.24278 0.17294 0.1644 0.0
C20 C 0.19584 0.22059 0.16365 0.0
C21 C 0.19639 0.17269 0.21302 0.0
C22 C 0.27739 0.15555 0.1479 0.0
C23 C 0.29662 0.1263 0.16919 0.0
C24 C 0.32928 0.1103 0.15484 0.0
C25 C 0.34404 0.12262 0.11838 0.0
C26 C 0.32456 0.15144 0.09653 0.0
C27 C 0.29193 0.16779 0.11118 0.0
C28 C 0.17787 0.25574 0.14653 0.0
C29 C 0.18814 0.27147 0.10949 0.0
C30 C 0.17045 0.30416 0.09391 0.0
C31 C 0.14201 0.3224 0.11494 0.0
C32 C 0.13214 0.30666 0.15215 0.0
C33 C 0.14956 0.27403 0.16749 0.0
C34 C 0.17913 0.15554 0.2488 0.0
C35 C 0.14821 0.17273 0.26616 0.0
C36 C 0.24525 0.83499 0.7593 0.0
C37 C 0.2311 0.80862 0.73796 0.0
C38 C 0.24951 0.77439 0.7388 0.0
C39 C 0.28306 0.76755 0.75702 0.0
H40 H 0.36882 0.72642 0.7045 0.0
H41 H 0.40005 0.68174 0.66452 0.0
H42 H 0.4979 0.69198 0.72843 0.0
H43 H 0.4663 0.73807 0.76889 0.0
H44 H 0.45453 0.83391 0.79985 0.0
H45 H 0.48007 0.87766 0.83982 0.0
H46 H 0.38805 0.88424 0.91701 0.0
H47 H 0.36207 0.8413 0.87671 0.0
H48 H 0.29045 0.8497 0.79101 0.0
H49 H 0.2316 0.86168 0.75903 0.0
H50 H 0.23892 0.75346 0.72314 0.0
H51 H 0.29748 0.74137 0.75493 0.0
N52 N 0.3583 0.76535 0.76288 0.0
N53 N 0.41007 0.78448 0.78889 0.0
N54 N 0.35349 0.81207 0.80653 0.0
C55 C 0.39425 0.76228 0.76528 0.0
C56 C 0.38966 0.80928 0.80992 0.0
C57 C 0.33769 0.78993 0.78311 0.0
C58 C 0.41491 0.7357 0.74048 0.0
C59 C 0.39698 0.7193 0.7105 0.0
C60 C 0.41489 0.69338 0.6875 0.0
C61 C 0.45132 0.68275 0.69375 0.0
C62 C 0.46975 0.69961 0.72296 0.0
C63 C 0.45167 0.72591 0.74616 0.0
C64 C 0.40629 0.83418 0.83512 0.0
C65 C 0.43985 0.84458 0.82546 0.0
C66 C 0.45435 0.86975 0.84809 0.0
C67 C 0.43593 0.88431 0.88135 0.0
C68 C 0.40278 0.87335 0.89154 0.0
C69 C 0.38793 0.84886 0.8684 0.0
C70 C 0.29896 0.79486 0.77463 0.0
C71 C 0.27898 0.82815 0.77757 0.0
C72 C 0.69945 0.31706 0.94538 0.0
C73 C 0.6622 0.32544 0.943 0.0
C74 C 0.64811 0.36009 0.93028 0.0
C75 C 0.67046 0.38442 0.91573 0.0
H76 H 0.69109 0.384 0.78389 0.0
H77 H 0.66139 0.39822 0.71938 0.0
H78 H 0.72071 0.48807 0.6997 0.0
H79 H 0.75033 0.47405 0.76588 0.0
H80 H 0.83248 0.44888 0.82732 0.0
H81 H 0.88783 0.46851 0.85041 0.0
H82 H 0.8571 0.44986 0.97495 0.0
H83 H 0.80253 0.42898 0.95187 0.0
H84 H 0.75033 0.33379 0.93025 0.0
H85 H 0.71117 0.29058 0.95491 0.0
H86 H 0.61962 0.36771 0.92911 0.0
H87 H 0.65873 0.40996 0.90294 0.0
N88 N 0.71728 0.40358 0.84926 0.0
N89 N 0.76744 0.43255 0.83486 0.0
N90 N 0.75996 0.40637 0.90013 0.0
C91 C 0.73641 0.42149 0.82243 0.0
C92 C 0.77934 0.42508 0.87382 0.0
C93 C 0.72869 0.39598 0.88786 0.0
C94 C 0.7227 0.42824 0.78035 0.0
C95 C 0.69819 0.40666 0.7658 0.0
C96 C 0.6814 0.41457 0.72837 0.0
C97 C 0.68861 0.4443 0.70421 0.0
C98 C 0.71437 0.46511 0.71779 0.0
C99 C 0.73147 0.45701 0.75551 0.0
C100 C 0.81303 0.43726 0.88769 0.0
C101 C 0.83755 0.44892 0.85963 0.0
C102 C 0.86926 0.46038 0.87292 0.0
C103 C 0.87706 0.46084 0.91462 0.0
C104 C 0.85241 0.44927 0.94262 0.0
C105 C 0.82092 0.43747 0.92934 0.0
C106 C 0.70735 0.3749 0.91455 0.0
C107 C 0.72192 0.34176 0.93136 0.0
C108 C 0.71531 0.83637 0.42405 0.0
C109 C 0.69461 0.81293 0.4059 0.0
C110 C 0.69526 0.8109 0.3635 0.0
C111 C 0.71872 0.82904 0.34031 0.0
H112 H 0.88277 0.82904 0.25894 0.0
H113 H 0.90152 0.77978 0.21597 0.0
H114 H 0.79154 0.76823 0.19069 0.0
H115 H 0.77273 0.81721 0.23326 0.0
H116 H 0.8874 0.9124 0.30609 0.0
H117 H 0.92607 0.94883 0.34093 0.0
H118 H 0.85923 0.946 0.44663 0.0
H119 H 0.82044 0.911 0.41192 0.0
H120 H 0.75614 0.87053 0.41614 0.0
H121 H 0.71489 0.83897 0.45658 0.0
H122 H 0.67982 0.79303 0.34846 0.0
H123 H 0.72016 0.82497 0.30808 0.0
N124 N 0.78307 0.84453 0.30187 0.0
N125 N 0.83642 0.87044 0.30107 0.0
N126 N 0.79506 0.88158 0.35319 0.0
C127 C 0.81446 0.84925 0.2839 0.0
C128 C 0.82651 0.88713 0.33555 0.0
C129 C 0.77311 0.86047 0.33643 0.0
C130 C 0.82627 0.82657 0.25018 0.0
C131 C 0.86263 0.81675 0.24319 0.0
C132 C 0.87337 0.7885 0.21863 0.0
C133 C 0.84791 0.76975 0.20078 0.0
C134 C 0.81168 0.78175 0.20481 0.0
C135 C 0.80098 0.8099 0.22912 0.0
C136 C 0.85057 0.90901 0.35597 0.0
C137 C 0.88097 0.91971 0.33671 0.0
C138 C 0.90322 0.94042 0.35674 0.0
C139 C 0.89556 0.95069 0.39644 0.0
C140 C 0.86549 0.93943 0.41572 0.0
C141 C 0.84325 0.91909 0.39575 0.0
C142 C 0.74211 0.84955 0.359 0.0
C143 C 0.7388 0.85461 0.40079 0.0
C144 C 0.74901 0.95245 0.89727 0.0
C145 C 0.734 0.93989 0.93347 0.0
C146 C 0.75379 0.9116 0.95585 0.0
C147 C 0.78703 0.89602 0.94202 0.0
H148 H 0.8657 0.80384 0.95828 0.0
H149 H 0.89595 0.74744 0.98621 0.0
H150 H 0.97644 0.75102 0.89421 0.0
H151 H 0.94694 0.80744 0.86716 0.0
H152 H 0.94702 0.87005 0.80494 0.0
H153 H 0.97609 0.89822 0.74858 0.0
H154 H 0.89267 0.98601 0.74489 0.0
H155 H 0.86365 0.95798 0.80204 0.0
H156 H 0.79246 0.9479 0.85567 0.0
H157 H 0.73508 0.97442 0.8793 0.0
H158 H 0.74324 0.90093 0.9837 0.0
H159 H 0.8011 0.87412 0.95996 0.0
N160 N 0.85364 0.86065 0.90711 0.0
N161 N 0.90056 0.8624 0.86081 0.0
N162 N 0.85326 0.90821 0.85835 0.0
C163 C 0.88538 0.84553 0.89251 0.0
C164 C 0.88499 0.89369 0.84347 0.0
C165 C 0.83725 0.89204 0.89017 0.0
C166 C 0.90361 0.8107 0.91029 0.0
C167 C 0.88989 0.7927 0.94402 0.0
C168 C 0.90728 0.76003 0.95997 0.0
C169 C 0.93899 0.74414 0.94275 0.0
C170 C 0.95261 0.76228 0.90906 0.0
C171 C 0.93533 0.79484 0.89322 0.0
C172 C 0.90269 0.91149 0.80847 0.0
C173 C 0.93468 0.89538 0.79231 0.0
C174 C 0.9514 0.91155 0.75955 0.0
C175 C 0.93688 0.94453 0.7416 0.0
C176 C 0.90503 0.96085 0.75792 0.0
C177 C 0.88817 0.94457 0.7907 0.0
C178 C 0.80187 0.90854 0.90561 0.0
C179 C 0.78228 0.93723 0.88373 0.0
C180 C 0.67334 0.18401 0.15984 0.0
C181 C 0.63932 0.17442 0.1683 0.0
C182 C 0.61974 0.19026 0.20002 0.0
C183 C 0.63395 0.21546 0.22282 0.0
H184 H 0.61494 0.29589 0.31785 0.0
H185 H 0.58629 0.33792 0.36469 0.0
H186 H 0.66651 0.40798 0.33836 0.0
H187 H 0.69585 0.36516 0.29357 0.0
H188 H 0.77819 0.31385 0.30083 0.0
H189 H 0.83398 0.29769 0.33828 0.0
H190 H 0.8336 0.18891 0.30695 0.0
H191 H 0.77799 0.20486 0.26921 0.0
H192 H 0.71437 0.21507 0.1763 0.0
H193 H 0.6889 0.17209 0.13554 0.0
H194 H 0.59336 0.18334 0.20689 0.0
H195 H 0.61837 0.22724 0.24718 0.0
N196 N 0.66373 0.2762 0.25804 0.0
N197 N 0.71489 0.29505 0.28638 0.0
N198 N 0.72022 0.24562 0.24651 0.0
C199 C 0.67911 0.29932 0.28072 0.0
C200 C 0.73562 0.26818 0.26976 0.0
C201 C 0.6844 0.24971 0.24008 0.0
C202 C 0.6577 0.32722 0.30242 0.0
C203 C 0.62594 0.32061 0.32164 0.0
C204 C 0.60959 0.34474 0.3485 0.0
C205 C 0.62445 0.37615 0.35608 0.0
C206 C 0.65491 0.38362 0.33447 0.0
C207 C 0.67154 0.35928 0.30837 0.0
C208 C 0.77333 0.2605 0.28269 0.0
C209 C 0.79053 0.28667 0.30089 0.0
C210 C 0.82256 0.27752 0.32215 0.0
C211 C 0.83766 0.24203 0.32587 0.0
C212 C 0.8222 0.21644 0.30471 0.0
C213 C 0.79044 0.22564 0.28299 0.0
C214 C 0.66832 0.22452 0.2149 0.0
C215 C 0.68787 0.2085 0.18322 0.0
C216 C 0.2106 0.59745 0.19294 0.0
C217 C 0.20304 0.59874 0.15103 0.0
C218 C 0.22831 0.61046 0.12395 0.0
C219 C 0.26012 0.62079 0.13833 0.0
H220 H 0.32947 0.72015 0.13786 0.0
H221 H 0.36691 0.76443 0.11188 0.0
H222 H 0.46091 0.69238 0.14416 0.0
H223 H 0.42345 0.64925 0.1718 0.0
H224 H 0.38862 0.6685 0.28806 0.0
H225 H 0.41887 0.65213 0.35181 0.0
H226 H 0.36264 0.55959 0.3657 0.0
H227 H 0.33248 0.57587 0.30018 0.0
H228 H 0.24752 0.60621 0.23974 0.0
H229 H 0.19158 0.58913 0.21479 0.0
H230 H 0.22385 0.61116 0.09149 0.0
H231 H 0.27895 0.62951 0.11645 0.0
N232 N 0.32113 0.64993 0.16985 0.0
N233 N 0.36396 0.65031 0.22102 0.0
N234 N 0.31355 0.6212 0.23371 0.0
C235 C 0.3525 0.65957 0.18275 0.0
C236 C 0.34475 0.63148 0.24685 0.0
C237 C 0.30164 0.63035 0.19504 0.0
C238 C 0.37374 0.68166 0.15712 0.0
C239 C 0.35812 0.71357 0.13818 0.0
C240 C 0.37961 0.73886 0.12335 0.0
C241 C 0.41695 0.73227 0.12687 0.0
C242 C 0.43228 0.69875 0.14213 0.0
C243 C 0.41089 0.6739 0.15758 0.0
C244 C 0.35851 0.62318 0.28871 0.0
C245 C 0.3823 0.64479 0.30473 0.0
C246 C 0.39941 0.6356 0.34175 0.0
C247 C 0.39326 0.60451 0.36406 0.0
C248 C 0.36818 0.58358 0.34906 0.0
C249 C 0.35074 0.59298 0.31174 0.0
C250 C 0.26774 0.61932 0.18016 0.0
C251 C 0.24265 0.60742 0.20731 0.0
C252 C 0.2256 0.09565 0.67883 0.0
C253 C 0.18882 0.10685 0.67687 0.0
C254 C 0.1752 0.13563 0.69965 0.0
C255 C 0.19805 0.15372 0.72224 0.0
H256 H 0.31204 0.2508 0.82684 0.0
H257 H 0.29131 0.30124 0.86632 0.0
H258 H 0.18321 0.27683 0.85466 0.0
H259 H 0.20381 0.22606 0.81487 0.0
H260 H 0.36966 0.22339 0.76383 0.0
H261 H 0.4102 0.25327 0.72142 0.0
H262 H 0.37177 0.20585 0.61597 0.0
H263 H 0.33035 0.17637 0.65853 0.0
H264 H 0.27673 0.10545 0.70048 0.0
H265 H 0.23698 0.07295 0.66277 0.0
H266 H 0.1471 0.1452 0.69871 0.0
H267 H 0.18696 0.17662 0.73817 0.0
N268 N 0.2493 0.18665 0.77162 0.0
N269 N 0.30384 0.21021 0.76917 0.0
N270 N 0.29211 0.16807 0.72331 0.0
C271 C 0.2716 0.20863 0.78651 0.0
C272 C 0.31435 0.19021 0.7376 0.0
C273 C 0.25978 0.16577 0.74048 0.0
C274 C 0.2595 0.23467 0.81697 0.0
C275 C 0.28386 0.25573 0.83308 0.0
C276 C 0.27204 0.28475 0.85566 0.0
C277 C 0.23564 0.29329 0.86294 0.0
C278 C 0.21147 0.2708 0.84951 0.0
C279 C 0.22329 0.24174 0.82668 0.0
C280 C 0.34606 0.19832 0.71441 0.0
C281 C 0.37053 0.21844 0.73179 0.0
C282 C 0.39408 0.2354 0.7074 0.0
C283 C 0.39368 0.23258 0.6651 0.0
C284 C 0.37215 0.2091 0.64838 0.0
C285 C 0.34859 0.19201 0.67286 0.0
C286 C 0.23499 0.14372 0.72199 0.0
C287 C 0.24842 0.11408 0.70075 0.0
Nd288 Nd 0.05945 1.00068 0.52223 0.0
Nd289 Nd 1.02307 0.07013 0.53797 0.0
C290 C 0.07965 0.93222 0.51908 0.0
C291 C 0.09312 0.90843 0.55341 0.0
C292 C 0.10326 0.87226 0.54899 0.0
C293 C 0.11958 0.85122 0.58147 0.0
C294 C 0.12634 0.86627 0.61856 0.0
C295 C 0.11448 0.9023 0.62306 0.0
C296 C 0.09793 0.92305 0.59091 0.0
C297 C 0.09927 0.03973 0.56893 0.0
C298 C 1.0073 1.00865 0.60242 0.0
C299 C 1.00226 0.1383 0.54458 0.0
C300 C 0.98464 0.1649 0.5148 0.0
C301 C 0.99717 0.16769 0.4748 0.0
C302 C 0.97563 0.18593 0.44425 0.0
C303 C 0.94115 0.2011 0.4532 0.0
C304 C 0.92975 0.20064 0.49364 0.0
C305 C 0.95145 0.18287 0.52426 0.0
C306 C 0.98307 0.03135 0.49122 0.0
C307 C 0.07516 0.06162 0.45738 0.0
O308 O 0.04626 0.94531 0.52144 0.0
O309 O 0.10028 0.95637 0.50867 0.0
O310 O 0.11208 1.02058 0.53999 0.0
O311 O 0.06666 0.03727 0.57358 0.0
O312 O 1.01982 0.98813 0.57336 0.0
O313 O 1.01085 0.04282 0.59949 0.0
O314 O 0.03529 0.12594 0.53761 0.0
O315 O 0.98292 0.11337 0.55612 0.0
O316 O 0.97011 0.05159 0.51912 0.0
O317 O 1.01578 0.03335 0.48683 0.0
O318 O 0.06249 0.08244 0.48624 0.0
O319 O 0.07175 0.0274 0.46059 0.0
H320 H 0.09947 0.86057 0.52026 0.0
H321 H 0.12778 0.82344 0.57712 0.0
H322 H 0.11967 0.91516 0.65064 0.0
H323 H 0.09021 0.95104 0.5948 0.0
H324 H 1.02253 0.15383 0.46652 0.0
H325 H 0.98482 0.18579 0.41321 0.0
H326 H 0.90324 0.21232 0.50115 0.0
H327 H 0.94121 0.18094 0.5548 0.0
Nd328 Nd 0.54252 1.00417 0.05708 0.0
Nd329 Nd 0.53344 0.05523 0.99199 0.0
C330 C 0.55316 0.94453 0.10249 0.0
C331 C 0.53642 0.91143 0.10431 0.0
C332 C 0.52821 0.89502 0.06878 0.0
C333 C 0.50999 0.86505 0.07092 0.0
C334 C 0.4997 0.85093 0.10864 0.0
C335 C 0.50828 0.86729 0.14414 0.0
C336 C 0.52649 0.89722 0.14196 0.0
C337 C 0.48338 0.05293 0.069 0.0
C338 C 0.49818 0.98595 0.97584 0.0
C339 C 0.52331 0.11533 0.94733 0.0
C340 C 0.53921 0.14886 0.94837 0.0
C341 C 0.54576 0.16381 0.98539 0.0
C342 C 0.56405 0.19366 0.98623 0.0
C343 C 0.57591 0.20924 0.95006 0.0
C344 C 0.56866 0.19461 0.913 0.0
C345 C 0.55052 0.16467 0.91221 0.0
C346 C 0.59283 1.00668 0.98067 0.0
C347 C 0.57784 0.07317 0.07313 0.0
O348 O 0.57175 0.95086 0.07021 0.0
O349 O 0.53318 0.97263 0.11363 0.0
O350 O 0.50729 0.04174 0.09635 0.0
O351 O 0.49125 0.03877 0.03558 0.0
O352 O 0.51624 0.97362 1.00871 0.0
O353 O 0.49685 1.01951 0.96375 0.0
O354 O 0.50299 0.10781 0.97772 0.0
O355 O 0.54474 0.08793 0.93696 0.0
O356 O 0.56897 1.01746 0.9531 0.0
O357 O 0.58468 1.02104 1.01387 0.0
O358 O 0.55903 0.08573 0.04089 0.0
O359 O 0.57989 0.03944 0.08452 0.0
H360 H 0.5355 0.9055 0.03927 0.0
H361 H 0.50409 0.85288 0.04308 0.0
H362 H 0.50023 0.85743 0.17363 0.0
H363 H 0.53226 0.90969 0.16966 0.0
H364 H 0.53729 0.15216 1.0138 0.0
H365 H 0.56891 0.20453 1.01519 0.0
H366 H 0.57787 0.20573 0.88465 0.0
H367 H 0.54602 0.15337 0.8834 0.0
Nd368 Nd 0.51481 0.49905 0.54665 0.0
Nd369 Nd 0.56806 0.54777 0.52029 0.0
C370 C 0.46008 0.46509 0.56795 0.0
C371 C 0.45312 0.42801 0.5729 0.0
C372 C 0.41821 0.42022 0.57868 0.0
C373 C 0.41142 0.38521 0.58641 0.0
C374 C 0.4395 0.3574 0.58854 0.0
C375 C 0.47444 0.36529 0.5815 0.0
C376 C 0.48118 0.40037 0.5736 0.0
C377 C 0.5811 0.48188 0.58148 0.0
C378 C 0.51489 0.57595 0.5886 0.0
C379 C 0.62317 0.58108 0.49899 0.0
C380 C 0.63075 0.61795 0.49416 0.0
C381 C 0.66594 0.62514 0.48934 0.0
C382 C 0.67343 0.65995 0.48194 0.0
C383 C 0.64576 0.68815 0.47918 0.0
C384 C 0.61051 0.68086 0.48522 0.0
C385 C 0.60306 0.64597 0.49281 0.0
C386 C 0.50166 0.56492 0.48548 0.0
C387 C 0.56765 0.47162 0.47773 0.0
O388 O 0.48257 0.47513 0.59395 0.0
O389 O 0.46492 0.47716 0.53086 0.0
O390 O 0.56152 0.45846 0.56947 0.0
O391 O 0.56504 0.51264 0.57629 0.0
O392 O 0.49546 0.5514 0.57691 0.0
O393 O 0.54714 0.57785 0.57457 0.0
O394 O 0.60044 0.57145 0.47298 0.0
O395 O 0.61823 0.56906 0.53609 0.0
O396 O 0.52134 0.58833 0.49731 0.0
O397 O 0.51782 0.53419 0.49057 0.0
O398 O 0.58758 0.49525 0.49059 0.0
O399 O 0.5351 0.47031 0.49109 0.0
H400 H 0.3963 0.4413 0.57827 0.0
H401 H 0.38428 0.38014 0.59238 0.0
H402 H 0.49655 0.34443 0.5827 0.0
H403 H 0.50834 0.40604 0.56895 0.0
H404 H 0.68756 0.60375 0.49029 0.0
H405 H 0.7008 0.66459 0.47675 0.0
H406 H 0.58871 0.70205 0.48352 0.0
H407 H 0.57569 0.64076 0.49675 0.0
Nd408 Nd 1.01181 0.53022 0.06142 0.0
Nd409 Nd 0.06668 0.53637 0.99922 0.0
C410 C 0.95222 0.53572 0.10319 0.0
C411 C 0.92867 0.56735 0.11438 0.0
C412 C 0.91909 0.59536 0.08559 0.0
C413 C 0.90298 0.62804 0.09764 0.0
C414 C 0.89558 0.6331 0.13869 0.0
C415 C 0.90317 0.60441 0.1672 0.0
C416 C 0.91979 0.57186 0.15515 0.0
C417 C 0.0727 0.55324 0.09027 0.0
C418 C 1.01028 0.60509 1.00299 0.0
C419 C 0.1262 0.52835 0.95806 0.0
C420 C 0.14403 0.49479 0.94409 0.0
C421 C 0.18088 0.48988 0.93825 0.0
C422 C 0.19754 0.45679 0.92764 0.0
C423 C 0.17753 0.42817 0.92282 0.0
C424 C 0.14058 0.43344 0.92887 0.0
C425 C 0.12409 0.46628 0.93963 0.0
C426 C 1.00616 0.51179 0.97107 0.0
C427 C 0.06898 0.46144 0.05727 0.0
O428 O 0.95339 0.52896 0.06468 0.0
O429 O 0.98374 0.53205 0.12025 0.0
O430 O 0.05537 0.53041 0.1098 0.0
O431 O 0.05745 0.56407 0.05716 0.0
O432 O 0.99189 0.58302 1.02424 0.0
O433 O 0.04391 0.59525 0.99421 0.0
O434 O 0.12571 0.53065 0.99745 0.0
O435 O 0.09532 0.53914 0.94096 0.0
O436 O 1.02313 0.53446 0.9508 0.0
O437 O 1.02175 0.50187 1.00415 0.0
O438 O 0.08682 0.48327 0.03508 0.0
O439 O 0.03573 0.47154 0.06753 0.0
H440 H 0.92521 0.5924 0.05394 0.0
H441 H 0.89693 0.64955 0.07498 0.0
H442 H 0.89784 0.60767 0.19909 0.0
H443 H 0.92711 0.5507 0.17791 0.0
H444 H 0.19676 0.51141 0.94236 0.0
H445 H 0.22612 0.45352 0.92372 0.0
H446 H 0.12419 0.41232 0.9248 0.0
H447 H 0.09563 0.46935 0.94471 0.0
C448 C 0.12536 0.07067 0.35719 0.0
C449 C 0.12782 0.10744 0.35308 0.0
H450 H 0.10683 0.02749 0.39253 0.0
C451 C 0.11281 0.1287 0.38386 0.0
H452 H 0.13616 0.05332 0.33413 0.0
C453 C 0.09588 0.11386 0.41735 0.0
C454 C 0.0932 0.07719 0.42132 0.0
H455 H 0.1145 0.15697 0.38245 0.0
H456 H 0.08494 0.1313 0.44027 0.0
C457 C 0.10825 0.05581 0.39069 0.0
C458 C 0.46177 0.94182 0.88663 0.0
C459 C 0.45119 0.91082 0.90553 0.0
H460 H 0.48419 0.99045 0.89428 0.0
C461 C 0.45504 0.90535 0.94778 0.0
H462 H 0.45882 0.94672 0.85411 0.0
C463 C 0.46994 0.93001 0.97062 0.0
C464 C 0.48059 0.96102 0.95178 0.0
H465 H 0.4471 0.88164 0.96305 0.0
H466 H 0.47303 0.92484 1.00308 0.0
C467 C 0.47597 0.96691 0.90962 0.0
C468 C 0.65517 0.429 0.6428 0.0
C469 C 0.66643 0.45494 0.66732 0.0
H470 H 0.61914 0.41724 0.59643 0.0
C471 C 0.65245 0.49055 0.65952 0.0
H472 H 0.66597 0.40142 0.64739 0.0
C473 C 0.62596 0.49961 0.62992 0.0
C474 C 0.61277 0.47319 0.60786 0.0
H475 H 0.6603 0.51118 0.67793 0.0
H476 H 0.6145 0.52704 0.62587 0.0
C477 C 0.62844 0.43801 0.61354 0.0
C478 C 0.88689 0.73179 0.15463 0.0
C479 C 0.85873 0.7355 0.18223 0.0
H480 H 0.92033 0.69633 0.11874 0.0
C481 C 0.84182 0.70559 0.19403 0.0
H482 H 0.90033 0.75441 0.14505 0.0
C483 C 0.85337 0.67247 0.17933 0.0
C484 C 0.88179 0.66862 0.15216 0.0
H485 H 0.82033 0.70758 0.21568 0.0
H486 H 0.84025 0.64978 0.18948 0.0
C487 C 0.89813 0.69867 0.13945 0.0
C488 C 0.40772 0.09603 0.1327 0.0
C489 C 0.37995 0.10591 0.10438 0.0
H490 H 0.46129 0.07245 0.14382 0.0
C491 C 0.38696 0.0991 0.06327 0.0
H492 H 0.40392 0.10125 0.16443 0.0
C493 C 0.42034 0.08213 0.05127 0.0
C494 C 0.4478 0.07193 0.07996 0.0
H495 H 0.36637 0.10615 0.04046 0.0
H496 H 0.42457 0.07683 1.01962 0.0
C497 C 0.44094 0.07956 0.12072 0.0
C498 C 0.1702 0.8398 0.721 0.0
C499 C 0.20076 0.81825 0.70951 0.0
H500 H 0.12151 0.8704 0.70163 0.0
C501 C 0.20423 0.80894 0.66894 0.0
H502 H 0.16676 0.84706 0.75217 0.0
C503 C 0.1789 0.82283 0.63985 0.0
C504 C 0.14923 0.84612 0.6507 0.0
H505 H 0.22778 0.79274 0.65908 0.0
H506 H 0.18394 0.81707 0.60848 0.0
C507 C 0.14446 0.85327 0.69195 0.0
C508 C 0.9244 0.50219 0.90823 0.0
C509 C 0.91056 0.47359 0.9289 0.0
H510 H 0.96551 0.53652 0.90536 0.0
C511 C 0.92882 0.45755 0.96358 0.0
H512 H 0.91081 0.51564 0.8819 0.0
C513 C 0.95986 0.46999 0.97737 0.0
C514 C 0.97355 0.49843 0.95654 0.0
H515 H 0.91935 0.43512 0.97992 0.0
H516 H 0.97326 0.45718 1.0042 0.0
C517 C 0.95563 0.51434 0.92181 0.0
C518 C 0.64508 0.7751 0.41828 0.0
C519 C 0.6773 0.78636 0.43091 0.0
H520 H 0.60981 0.73504 0.42368 0.0
C521 C 0.69595 0.76799 0.46395 0.0
H522 H 0.62989 0.78896 0.39323 0.0
C523 C 0.6843 0.73732 0.48161 0.0
C524 C 0.6538 0.72434 0.46659 0.0
H525 H 0.721 0.77572 0.47432 0.0
H526 H 0.70018 0.72276 0.50568 0.0
C527 C 0.63344 0.74436 0.43595 0.0
C528 C 0.08643 0.36737 0.10661 0.0
C529 C 0.12288 0.35763 0.09875 0.0
H530 H 0.04107 0.40698 0.10012 0.0
C531 C 0.14089 0.38234 0.076 0.0
H532 H 0.07108 0.34916 0.12313 0.0
C533 C 0.12333 0.41553 0.06225 0.0
C534 C 0.08714 0.42542 0.07087 0.0
H535 H 0.1689 0.3765 0.06947 0.0
H536 H 0.13843 0.43369 0.04522 0.0
C537 C 0.06895 0.40066 0.09307 0.0
C538 C 0.64459 0.26961 0.97798 0.0
C539 C 0.63826 0.29719 0.94792 0.0
H540 H 0.6298 0.22008 1.00229 0.0
C541 C 0.61018 0.29633 0.92002 0.0
H542 H 0.66593 0.26956 0.99997 0.0
C543 C 0.58947 0.26829 0.92149 0.0
C544 C 0.59634 0.24025 0.95076 0.0
H545 H 0.6049 0.31673 0.89597 0.0
H546 H 0.5683 0.26835 0.89927 0.0
C547 C 0.62373 0.24145 0.97948 0.0
C548 C 0.9029 0.99921 0.44336 0.0
C549 C 0.91847 0.97301 0.4182 0.0
H550 H 0.91115 0.03785 0.48622 0.0
C551 C 0.95582 0.96746 0.41564 0.0
H552 H 0.87425 1.00482 0.44536 0.0
C553 C 0.97704 0.98696 0.43873 0.0
C554 C 0.96124 1.01213 0.46487 0.0
H555 H 0.96868 0.94733 0.39682 0.0
H556 H 1.00574 0.9817 0.43691 0.0
C557 C 0.92403 1.01832 0.46663 0.0
C558 C 0.50284 0.65698 0.65225 0.0
C559 C 0.46931 0.65412 0.66944 0.0
H560 H 0.54349 0.63469 0.61297 0.0
C561 C 0.45182 0.62449 0.66129 0.0
H562 H 0.51688 0.67958 0.65771 0.0
C563 C 0.46677 0.59904 0.63539 0.0
C564 C 0.49977 0.6024 0.61719 0.0
H565 H 0.42626 0.62109 0.67469 0.0
H566 H 0.45227 0.57686 0.62945 0.0
C567 C 0.51792 0.63136 0.62638 0.0
C568 C 0.95576 0.99838 0.70155 0.0
C569 C 0.9548 0.96137 0.70591 0.0
H570 H 0.97308 0.04226 0.66624 0.0
C571 C 0.97141 0.94039 0.67579 0.0
H572 H 0.94371 1.01554 0.72413 0.0
C573 C 0.98835 0.95574 0.64263 0.0
C574 C 0.98942 0.99267 0.63832 0.0
H575 H 0.97095 0.91193 0.67742 0.0
H576 H 1.00062 0.93846 0.62026 0.0
C577 C 0.97289 1.01376 0.66837 0.0
C578 C 0.621 0.15349 0.10165 0.0
C579 C 0.62436 0.14799 0.14392 0.0
H580 H 0.6035 0.134 0.04611 0.0
C581 C 0.61354 0.11707 0.16269 0.0
H582 H 0.62919 0.17715 0.08654 0.0
C583 C 0.59953 0.09203 0.13951 0.0
C584 C 0.59535 0.09796 0.09732 0.0
H585 H 0.61612 0.11224 0.19525 0.0
H586 H 0.59107 0.06854 0.1547 0.0
C587 C 0.60626 0.12888 0.07861 0.0
C588 C 0.42632 0.61812 0.42651 0.0
C589 C 0.41576 0.59291 0.40051 0.0
H590 H 0.46201 0.62899 0.47367 0.0
C591 C 0.4307 0.55737 0.40647 0.0
H592 H 0.41476 0.64556 0.42342 0.0
C593 C 0.45741 0.54784 0.43575 0.0
C594 C 0.46987 0.57371 0.45929 0.0
H595 H 0.42341 0.5373 0.3869 0.0
H596 H 0.46959 0.52058 0.43842 0.0
C597 C 0.4533 0.60867 0.45537 0.0
C598 C 0.19643 0.32884 0.91097 0.0
C599 C 0.22273 0.32726 0.88105 0.0
H600 H 0.16247 0.36176 0.9488 0.0
C601 C 0.23555 0.35881 0.86673 0.0
H602 H 0.18637 0.30488 0.92284 0.0
C603 C 0.22158 0.39141 0.88107 0.0
C604 C 0.1946 0.39322 0.91027 0.0
H605 H 0.25548 0.35846 0.84323 0.0
H606 H 0.23103 0.41529 0.86809 0.0
C607 C 0.18269 0.36144 0.92565 0.0
C608 C 0.67002 0.96502 0.91804 0.0
C609 C 0.69759 0.95585 0.94679 0.0
H610 H 0.61615 0.98737 0.90611 0.0
C611 C 0.68992 0.96263 0.98775 0.0
H612 H 0.67436 0.95981 0.88638 0.0
C613 C 0.65608 0.97885 0.99922 0.0
C614 C 0.62882 0.98834 0.97012 0.0
H615 H 0.71033 0.95613 1.01088 0.0
H616 H 0.65137 0.98417 0.03078 0.0
C617 C 0.63634 0.98076 0.92949 0.0
C618 C 0.85961 0.20482 0.38674 0.0
C619 C 0.86563 0.23089 0.35676 0.0
H620 H 0.8787 0.17558 0.441 0.0
C621 C 0.89687 0.24753 0.35855 0.0
H622 H 0.83547 0.19201 0.38639 0.0
C623 C 0.92187 0.23786 0.38979 0.0
C624 C 0.9153 0.21224 0.42012 0.0
H625 H 0.90191 0.26787 0.33583 0.0
H626 H 0.94597 0.25069 0.39064 0.0
C627 C 0.88406 0.19576 0.41822 0.0
C628 C 0.15445 0.55876 0.15469 0.0
C629 C 0.16923 0.58748 0.13553 0.0
H630 H 0.11238 0.52563 0.1554 0.0
C631 C 0.15166 0.60498 0.10116 0.0
H632 H 0.16748 0.54417 0.18069 0.0
C633 C 0.12033 0.59385 0.08623 0.0
C634 C 0.10569 0.5653 0.10564 0.0
H635 H 0.16188 0.62753 0.08594 0.0
H636 H 0.10744 0.60776 0.05971 0.0
C637 C 0.12297 0.54794 0.14003 0.0
C638 C 0.39076 0.27679 0.60618 0.0
C639 C 0.41035 0.25881 0.63882 0.0
H640 H 0.38501 0.32182 0.56413 0.0
C641 C 0.44277 0.27047 0.65009 0.0
H642 H 0.36554 0.26878 0.59682 0.0
C643 C 0.45363 0.3013 0.63168 0.0
C644 C 0.43229 0.32102 0.60161 0.0
H645 H 0.45869 0.25693 0.67477 0.0
H646 H 0.47742 0.31097 0.64302 0.0
C647 C 0.40164 0.30754 0.58777 0.0
C648 C 0.99496 0.70102 0.9584 0.0
C649 C 0.95751 0.70877 0.95919 0.0
H650 H 0.0408 0.66299 0.97138 0.0
C651 C 0.93792 0.68193 0.97505 0.0
H652 H 1.01131 0.72085 0.9471 0.0
C653 C 0.95501 0.6487 0.98924 0.0
C654 C 0.99235 0.64096 0.98833 0.0
H655 H 0.90914 0.68617 0.97564 0.0
H656 H 0.9387 0.62877 1.00009 0.0
C657 C 1.01204 0.66771 0.9726 0.0
C658 C 0.43225 0.78715 0.08776 0.0
C659 C 0.43965 0.76134 0.11961 0.0
H660 H 0.44529 0.83588 0.05938 0.0
C661 C 0.46782 0.76461 0.14661 0.0
H662 H 0.41086 0.78533 0.06634 0.0
C663 C 0.48773 0.79316 0.14235 0.0
C664 C 0.47984 0.81944 0.11121 0.0
H665 H 0.47392 0.74567 0.17199 0.0
H666 H 0.50915 0.7948 0.1638 0.0
C667 C 0.45219 0.81591 0.08357 0.0
C668 C 0.13004 0.08517 0.66008 0.0
C669 C 0.16532 0.0897 0.64946 0.0
H670 H 0.08126 0.06597 0.64271 0.0
C671 C 0.17804 0.07821 0.61176 0.0
H672 H 0.11939 0.09339 0.68895 0.0
C673 C 0.15645 0.06203 0.5858 0.0
C674 C 0.12142 0.05741 0.59653 0.0
H675 H 0.20465 0.08208 0.60192 0.0
H676 H 0.16714 0.05339 0.55708 0.0
C677 C 0.10822 0.06934 0.63373 0.0
C678 C 0.57271 0.40599 0.39455 0.0
C679 C 0.60956 0.40026 0.38767 0.0
H680 H 0.53059 0.43282 0.42855 0.0
C681 C 0.63242 0.41759 0.41163 0.0
H682 H 0.55423 0.39346 0.37652 0.0
C683 C 0.61881 0.44062 0.44089 0.0
C684 C 0.58204 0.44645 0.44751 0.0
H685 H 0.66101 0.41316 0.40814 0.0
H686 H 0.63719 0.45363 0.45856 0.0
C687 C 0.55913 0.42867 0.42432 0.0
loop_
_geom_bond_atom_site_label_1
_geom_bond_atom_site_label_2
_geom_bond_distance
_geom_bond_site_symmetry_2
_ccdc_geom_bond_type
C0 C1 1.384 . S
C0 H13 0.947 . S
C0 C35 1.382 . S
C1 C0 1.384 . S
C1 C2 1.378 . S
C2 C1 1.378 . S
C2 C3 1.378 . S
C2 H14 0.952 . S
C3 C2 1.378 . S
C3 H15 0.950 . S
C3 C34 1.383 . S
H4 C23 0.947 . S
H5 C24 0.946 . S
H6 C26 0.953 . S
H7 C27 0.945 . S
H8 C29 0.952 . S
H9 C30 0.949 . S
H10 C32 0.950 . S
H11 C33 0.948 . S
H12 C35 0.951 . S
H13 C0 0.947 . S
H14 C2 0.952 . S
H15 C3 0.950 . S
N16 C19 1.382 . S
N16 C21 1.363 . S
N17 C19 1.371 . S
N17 C20 1.372 . S
N18 C20 1.361 . S
N18 C21 1.377 . S
C19 N16 1.382 . S
C19 N17 1.371 . S
C19 C22 1.480 . S
C20 N17 1.372 . S
C20 N18 1.361 . S
C20 C28 1.457 . S
C21 N16 1.363 . S
C21 N18 1.377 . S
C21 C34 1.479 . S
C22 C19 1.480 . S
C22 C23 1.383 . S
C22 C27 1.385 . S
C23 H4 0.947 . S
C23 C22 1.383 . S
C23 C24 1.388 . S
C24 H5 0.946 . S
C24 C23 1.388 . S
C24 C25 1.384 . S
C25 C24 1.384 . S
C25 C26 1.377 . S
C26 H6 0.953 . S
C26 C25 1.377 . S
C26 C27 1.369 . S
C27 H7 0.945 . S
C27 C22 1.385 . S
C27 C26 1.369 . S
C28 C20 1.457 . S
C28 C29 1.372 . S
C28 C33 1.364 . S
C29 H8 0.952 . S
C29 C28 1.372 . S
C29 C30 1.389 . S
C30 H9 0.949 . S
C30 C29 1.389 . S
C30 C31 1.387 . S
C31 C30 1.387 . S
C31 C32 1.372 . S
C32 H10 0.950 . S
C32 C31 1.372 . S
C32 C33 1.379 . S
C33 H11 0.948 . S
C33 C28 1.364 . S
C33 C32 1.379 . S
C34 C3 1.383 . S
C34 C21 1.479 . S
C34 C35 1.398 . S
C35 C0 1.382 . S
C35 H12 0.951 . S
C35 C34 1.398 . S
C36 C37 1.384 . S
C36 H49 0.947 . S
C36 C71 1.382 . S
C37 C36 1.384 . S
C37 C38 1.378 . S
C38 C37 1.378 . S
C38 C39 1.378 . S
C38 H50 0.952 . S
C39 C38 1.378 . S
C39 H51 0.950 . S
C39 C70 1.383 . S
H40 C59 0.947 . S
H41 C60 0.946 . S
H42 C62 0.953 . S
H43 C63 0.945 . S
H44 C65 0.952 . S
H45 C66 0.949 . S
H46 C68 0.950 . S
H47 C69 0.948 . S
H48 C71 0.951 . S
H49 C36 0.947 . S
H50 C38 0.952 . S
H51 C39 0.950 . S
N52 C55 1.382 . S
N52 C57 1.363 . S
N53 C55 1.371 . S
N53 C56 1.372 . S
N54 C56 1.361 . S
N54 C57 1.377 . S
C55 N52 1.382 . S
C55 N53 1.371 . S
C55 C58 1.480 . S
C56 N53 1.372 . S
C56 N54 1.361 . S
C56 C64 1.457 . S
C57 N52 1.363 . S
C57 N54 1.377 . S
C57 C70 1.479 . S
C58 C55 1.480 . S
C58 C59 1.383 . S
C58 C63 1.385 . S
C59 H40 0.947 . S
C59 C58 1.383 . S
C59 C60 1.388 . S
C60 H41 0.946 . S
C60 C59 1.388 . S
C60 C61 1.384 . S
C61 C60 1.384 . S
C61 C62 1.377 . S
C62 H42 0.953 . S
C62 C61 1.377 . S
C62 C63 1.369 . S
C63 H43 0.945 . S
C63 C58 1.385 . S
C63 C62 1.369 . S
C64 C56 1.457 . S
C64 C65 1.372 . S
C64 C69 1.364 . S
C65 H44 0.952 . S
C65 C64 1.372 . S
C65 C66 1.389 . S
C66 H45 0.949 . S
C66 C65 1.389 . S
C66 C67 1.387 . S
C67 C66 1.387 . S
C67 C68 1.372 . S
C68 H46 0.950 . S
C68 C67 1.372 . S
C68 C69 1.379 . S
C69 H47 0.948 . S
C69 C64 1.364 . S
C69 C68 1.379 . S
C70 C39 1.383 . S
C70 C57 1.479 . S
C70 C71 1.398 . S
C71 C36 1.382 . S
C71 H48 0.951 . S
C71 C70 1.398 . S
C72 C73 1.384 . S
C72 H85 0.947 . S
C72 C107 1.382 . S
C73 C72 1.384 . S
C73 C74 1.378 . S
C74 C73 1.378 . S
C74 C75 1.378 . S
C74 H86 0.952 . S
C75 C74 1.378 . S
C75 H87 0.950 . S
C75 C106 1.383 . S
H76 C95 0.947 . S
H77 C96 0.946 . S
H78 C98 0.953 . S
H79 C99 0.945 . S
H80 C101 0.952 . S
H81 C102 0.949 . S
H82 C104 0.950 . S
H83 C105 0.948 . S
H84 C107 0.951 . S
H85 C72 0.947 . S
H86 C74 0.952 . S
H87 C75 0.950 . S
N88 C91 1.382 . S
N88 C93 1.363 . S
N89 C91 1.371 . S
N89 C92 1.372 . S
N90 C92 1.361 . S
N90 C93 1.377 . S
C91 N88 1.382 . S
C91 N89 1.371 . S
C91 C94 1.480 . S
C92 N89 1.372 . S
C92 N90 1.361 . S
C92 C100 1.457 . S
C93 N88 1.363 . S
C93 N90 1.377 . S
C93 C106 1.479 . S
C94 C91 1.480 . S
C94 C95 1.383 . S
C94 C99 1.385 . S
C95 H76 0.947 . S
C95 C94 1.383 . S
C95 C96 1.388 . S
C96 H77 0.946 . S
C96 C95 1.388 . S
C96 C97 1.384 . S
C97 C96 1.384 . S
C97 C98 1.377 . S
C98 H78 0.953 . S
C98 C97 1.377 . S
C98 C99 1.369 . S
C99 H79 0.945 . S
C99 C94 1.385 . S
C99 C98 1.369 . S
C100 C92 1.457 . S
C100 C101 1.372 . S
C100 C105 1.364 . S
C101 H80 0.952 . S
C101 C100 1.372 . S
C101 C102 1.389 . S
C102 H81 0.949 . S
C102 C101 1.389 . S
C102 C103 1.387 . S
C103 C102 1.387 . S
C103 C104 1.372 . S
C104 H82 0.950 . S
C104 C103 1.372 . S
C104 C105 1.379 . S
C105 H83 0.948 . S
C105 C100 1.364 . S
C105 C104 1.379 . S
C106 C75 1.383 . S
C106 C93 1.479 . S
C106 C107 1.398 . S
C107 C72 1.382 . S
C107 H84 0.951 . S
C107 C106 1.398 . S
C108 C109 1.384 . S
C108 H121 0.947 . S
C108 C143 1.382 . S
C109 C108 1.384 . S
C109 C110 1.378 . S
C110 C109 1.378 . S
C110 C111 1.378 . S
C110 H122 0.952 . S
C111 C110 1.378 . S
C111 H123 0.950 . S
C111 C142 1.383 . S
H112 C131 0.947 . S
H113 C132 0.946 . S
H114 C134 0.953 . S
H115 C135 0.945 . S
H116 C137 0.952 . S
H117 C138 0.949 . S
H118 C140 0.950 . S
H119 C141 0.948 . S
H120 C143 0.951 . S
H121 C108 0.947 . S
H122 C110 0.952 . S
H123 C111 0.950 . S
N124 C127 1.382 . S
N124 C129 1.363 . S
N125 C127 1.371 . S
N125 C128 1.372 . S
N126 C128 1.361 . S
N126 C129 1.377 . S
C127 N124 1.382 . S
C127 N125 1.371 . S
C127 C130 1.480 . S
C128 N125 1.372 . S
C128 N126 1.361 . S
C128 C136 1.457 . S
C129 N124 1.363 . S
C129 N126 1.377 . S
C129 C142 1.479 . S
C130 C127 1.480 . S
C130 C131 1.383 . S
C130 C135 1.385 . S
C131 H112 0.947 . S
C131 C130 1.383 . S
C131 C132 1.388 . S
C132 H113 0.946 . S
C132 C131 1.388 . S
C132 C133 1.384 . S
C133 C132 1.384 . S
C133 C134 1.377 . S
C134 H114 0.953 . S
C134 C133 1.377 . S
C134 C135 1.369 . S
C135 H115 0.945 . S
C135 C130 1.385 . S
C135 C134 1.369 . S
C136 C128 1.457 . S
C136 C137 1.372 . S
C136 C141 1.364 . S
C137 H116 0.952 . S
C137 C136 1.372 . S
C137 C138 1.389 . S
C138 H117 0.949 . S
C138 C137 1.389 . S
C138 C139 1.387 . S
C139 C138 1.387 . S
C139 C140 1.372 . S
C140 H118 0.950 . S
C140 C139 1.372 . S
C140 C141 1.379 . S
C141 H119 0.948 . S
C141 C136 1.364 . S
C141 C140 1.379 . S
C142 C111 1.383 . S
C142 C129 1.479 . S
C142 C143 1.398 . S
C143 C108 1.382 . S
C143 H120 0.951 . S
C143 C142 1.398 . S
C144 C145 1.384 . S
C144 H157 0.947 . S
C144 C179 1.382 . S
C145 C144 1.384 . S
C145 C146 1.378 . S
C146 C145 1.378 . S
C146 C147 1.378 . S
C146 H158 0.952 . S
C147 C146 1.378 . S
C147 H159 0.950 . S
C147 C178 1.383 . S
H148 C167 0.947 . S
H149 C168 0.946 . S
H150 C170 0.953 . S
H151 C171 0.945 . S
H152 C173 0.952 . S
H153 C174 0.949 . S
H154 C176 0.950 . S
H155 C177 0.948 . S
H156 C179 0.951 . S
H157 C144 0.947 . S
H158 C146 0.952 . S
H159 C147 0.950 . S
N160 C163 1.382 . S
N160 C165 1.363 . S
N161 C163 1.371 . S
N161 C164 1.372 . S
N162 C164 1.361 . S
N162 C165 1.377 . S
C163 N160 1.382 . S
C163 N161 1.371 . S
C163 C166 1.480 . S
C164 N161 1.372 . S
C164 N162 1.361 . S
C164 C172 1.457 . S
C165 N160 1.363 . S
C165 N162 1.377 . S
C165 C178 1.479 . S
C166 C163 1.480 . S
C166 C167 1.383 . S
C166 C171 1.385 . S
C167 H148 0.947 . S
C167 C166 1.383 . S
C167 C168 1.388 . S
C168 H149 0.946 . S
C168 C167 1.388 . S
C168 C169 1.384 . S
C169 C168 1.384 . S
C169 C170 1.377 . S
C170 H150 0.953 . S
C170 C169 1.377 . S
C170 C171 1.369 . S
C171 H151 0.945 . S
C171 C166 1.385 . S
C171 C170 1.369 . S
C172 C164 1.457 . S
C172 C173 1.372 . S
C172 C177 1.364 . S
C173 H152 0.952 . S
C173 C172 1.372 . S
C173 C174 1.389 . S
C174 H153 0.949 . S
C174 C173 1.389 . S
C174 C175 1.387 . S
C175 C174 1.387 . S
C175 C176 1.372 . S
C176 H154 0.950 . S
C176 C175 1.372 . S
C176 C177 1.379 . S
C177 H155 0.948 . S
C177 C172 1.364 . S
C177 C176 1.379 . S
C178 C147 1.383 . S
C178 C165 1.479 . S
C178 C179 1.398 . S
C179 C144 1.382 . S
C179 H156 0.951 . S
C179 C178 1.398 . S
C180 C181 1.384 . S
C180 H193 0.947 . S
C180 C215 1.382 . S
C181 C180 1.384 . S
C181 C182 1.378 . S
C182 C181 1.378 . S
C182 C183 1.378 . S
C182 H194 0.952 . S
C183 C182 1.378 . S
C183 H195 0.950 . S
C183 C214 1.383 . S
H184 C203 0.947 . S
H185 C204 0.946 . S
H186 C206 0.953 . S
H187 C207 0.945 . S
H188 C209 0.952 . S
H189 C210 0.949 . S
H190 C212 0.950 . S
H191 C213 0.948 . S
H192 C215 0.951 . S
H193 C180 0.947 . S
H194 C182 0.952 . S
H195 C183 0.950 . S
N196 C199 1.382 . S
N196 C201 1.363 . S
N197 C199 1.371 . S
N197 C200 1.372 . S
N198 C200 1.361 . S
N198 C201 1.377 . S
C199 N196 1.382 . S
C199 N197 1.371 . S
C199 C202 1.480 . S
C200 N197 1.372 . S
C200 N198 1.361 . S
C200 C208 1.457 . S
C201 N196 1.363 . S
C201 N198 1.377 . S
C201 C214 1.479 . S
C202 C199 1.480 . S
C202 C203 1.383 . S
C202 C207 1.385 . S
C203 H184 0.947 . S
C203 C202 1.383 . S
C203 C204 1.388 . S
C204 H185 0.946 . S
C204 C203 1.388 . S
C204 C205 1.384 . S
C205 C204 1.384 . S
C205 C206 1.377 . S
C206 H186 0.953 . S
C206 C205 1.377 . S
C206 C207 1.369 . S
C207 H187 0.945 . S
C207 C202 1.385 . S
C207 C206 1.369 . S
C208 C200 1.457 . S
C208 C209 1.372 . S
C208 C213 1.364 . S
C209 H188 0.952 . S
C209 C208 1.372 . S
C209 C210 1.389 . S
C210 H189 0.949 . S
C210 C209 1.389 . S
C210 C211 1.387 . S
C211 C210 1.387 . S
C211 C212 1.372 . S
C212 H190 0.950 . S
C212 C211 1.372 . S
C212 C213 1.379 . S
C213 H191 0.948 . S
C213 C208 1.364 . S
C213 C212 1.379 . S
C214 C183 1.383 . S
C214 C201 1.479 . S
C214 C215 1.398 . S
C215 C180 1.382 . S
C215 H192 0.951 . S
C215 C214 1.398 . S
C216 C217 1.384 . S
C216 H229 0.947 . S
C216 C251 1.382 . S
C217 C216 1.384 . S
C217 C218 1.378 . S
C218 C217 1.378 . S
C218 C219 1.378 . S
C218 H230 0.952 . S
C219 C218 1.378 . S
C219 H231 0.950 . S
C219 C250 1.383 . S
H220 C239 0.947 . S
H221 C240 0.946 . S
H222 C242 0.953 . S
H223 C243 0.945 . S
H224 C245 0.952 . S
H225 C246 0.949 . S
H226 C248 0.950 . S
H227 C249 0.948 . S
H228 C251 0.951 . S
H229 C216 0.947 . S
H230 C218 0.952 . S
H231 C219 0.950 . S
N232 C235 1.382 . S
N232 C237 1.363 . S
N233 C235 1.371 . S
N233 C236 1.372 . S
N234 C236 1.361 . S
N234 C237 1.377 . S
C235 N232 1.382 . S
C235 N233 1.371 . S
C235 C238 1.480 . S
C236 N233 1.372 . S
C236 N234 1.361 . S
C236 C244 1.457 . S
C237 N232 1.363 . S
C237 N234 1.377 . S
C237 C250 1.479 . S
C238 C235 1.480 . S
C238 C239 1.383 . S
C238 C243 1.385 . S
C239 H220 0.947 . S
C239 C238 1.383 . S
C239 C240 1.388 . S
C240 H221 0.946 . S
C240 C239 1.388 . S
C240 C241 1.384 . S
C241 C240 1.384 . S
C241 C242 1.377 . S
C242 H222 0.953 . S
C242 C241 1.377 . S
C242 C243 1.369 . S
C243 H223 0.945 . S
C243 C238 1.385 . S
C243 C242 1.369 . S
C244 C236 1.457 . S
C244 C245 1.372 . S
C244 C249 1.364 . S
C245 H224 0.952 . S
C245 C244 1.372 . S
C245 C246 1.389 . S
C246 H225 0.949 . S
C246 C245 1.389 . S
C246 C247 1.387 . S
C247 C246 1.387 . S
C247 C248 1.372 . S
C248 H226 0.950 . S
C248 C247 1.372 . S
C248 C249 1.379 . S
C249 H227 0.948 . S
C249 C244 1.364 . S
C249 C248 1.379 . S
C250 C219 1.383 . S
C250 C237 1.479 . S
C250 C251 1.398 . S
C251 C216 1.382 . S
C251 H228 0.951 . S
C251 C250 1.398 . S
C252 C253 1.384 . S
C252 H265 0.947 . S
C252 C287 1.382 . S
C253 C252 1.384 . S
C253 C254 1.378 . S
C254 C253 1.378 . S
C254 C255 1.378 . S
C254 H266 0.952 . S
C255 C254 1.378 . S
C255 H267 0.950 . S
C255 C286 1.383 . S
H256 C275 0.947 . S
H257 C276 0.946 . S
H258 C278 0.953 . S
H259 C279 0.945 . S
H260 C281 0.952 . S
H261 C282 0.949 . S
H262 C284 0.950 . S
H263 C285 0.948 . S
H264 C287 0.951 . S
H265 C252 0.947 . S
H266 C254 0.952 . S
H267 C255 0.950 . S
N268 C271 1.382 . S
N268 C273 1.363 . S
N269 C271 1.371 . S
N269 C272 1.372 . S
N270 C272 1.361 . S
N270 C273 1.377 . S
C271 N268 1.382 . S
C271 N269 1.371 . S
C271 C274 1.480 . S
C272 N269 1.372 . S
C272 N270 1.361 . S
C272 C280 1.457 . S
C273 N268 1.363 . S
C273 N270 1.377 . S
C273 C286 1.479 . S
C274 C271 1.480 . S
C274 C275 1.383 . S
C274 C279 1.385 . S
C275 H256 0.947 . S
C275 C274 1.383 . S
C275 C276 1.388 . S
C276 H257 0.946 . S
C276 C275 1.388 . S
C276 C277 1.384 . S
C277 C276 1.384 . S
C277 C278 1.377 . S
C278 H258 0.953 . S
C278 C277 1.377 . S
C278 C279 1.369 . S
C279 H259 0.945 . S
C279 C274 1.385 . S
C279 C278 1.369 . S
C280 C272 1.457 . S
C280 C281 1.372 . S
C280 C285 1.364 . S
C281 H260 0.952 . S
C281 C280 1.372 . S
C281 C282 1.389 . S
C282 H261 0.949 . S
C282 C281 1.389 . S
C282 C283 1.387 . S
C283 C282 1.387 . S
C283 C284 1.372 . S
C284 H262 0.950 . S
C284 C283 1.372 . S
C284 C285 1.379 . S
C285 H263 0.948 . S
C285 C280 1.364 . S
C285 C284 1.379 . S
C286 C255 1.383 . S
C286 C273 1.479 . S
C286 C287 1.398 . S
C287 C252 1.382 . S
C287 H264 0.951 . S
C287 C286 1.398 . S
Nd288 C290 2.836 . S
Nd288 O308 2.500 . S
Nd288 O309 2.492 . S
Nd288 O310 2.487 1_565 S
Nd288 O311 2.682 1_565 S
Nd288 O312 2.410 . S
Nd288 O317 2.414 1_455 S
Nd288 O319 2.424 1_565 S
Nd289 C299 2.836 . S
Nd289 O311 2.414 1_655 S
Nd289 O313 2.424 1_545 S
Nd289 O314 2.500 . S
Nd289 O315 2.492 . S
Nd289 O316 2.487 1_545 S
Nd289 O317 2.682 1_545 S
Nd289 O318 2.410 . S
C290 Nd288 2.836 . S
C290 C291 1.498 . S
C290 O308 1.258 . S
C290 O309 1.239 . S
C291 C290 1.498 . S
C291 C292 1.366 . S
C291 C296 1.407 . S
C292 C291 1.366 . S
C292 C293 1.392 . S
C292 H320 0.930 . S
C293 C292 1.392 . S
C293 C294 1.398 . S
C293 H321 0.929 . S
C294 C293 1.398 . S
C294 C295 1.352 . S
C295 C294 1.352 . S
C295 C296 1.384 . S
C295 H322 0.930 . S
C296 C291 1.407 . S
C296 C295 1.384 . S
C296 H323 0.929 . S
C297 O310 1.241 . S
C297 O311 1.273 . S
C298 O312 1.251 1_655 S
C298 O313 1.268 . S
C299 Nd289 2.836 . S
C299 C300 1.498 . S
C299 O314 1.258 . S
C299 O315 1.239 . S
C300 C299 1.498 . S
C300 C301 1.366 . S
C300 C305 1.407 . S
C301 C300 1.366 . S
C301 C302 1.392 . S
C301 H324 0.930 . S
C302 C301 1.392 . S
C302 C303 1.398 . S
C302 H325 0.929 . S
C303 C302 1.398 . S
C303 C304 1.352 . S
C304 C303 1.352 . S
C304 C305 1.384 . S
C304 H326 0.930 . S
C305 C300 1.407 . S
C305 C304 1.384 . S
C305 H327 0.929 . S
C306 O316 1.241 . S
C306 O317 1.273 . S
C307 O318 1.251 1_455 S
C307 O319 1.268 . S
O308 Nd288 2.500 . S
O308 C290 1.258 . S
O309 Nd288 2.492 . S
O309 C290 1.239 . S
O310 Nd288 2.487 1_545 S
O310 C297 1.241 . S
O311 Nd288 2.682 1_545 S
O311 Nd289 2.414 1_455 S
O311 C297 1.273 . S
O312 Nd288 2.410 . S
O312 C298 1.251 1_455 S
O313 Nd289 2.424 1_565 S
O313 C298 1.268 . S
O314 Nd289 2.500 . S
O314 C299 1.258 . S
O315 Nd289 2.492 . S
O315 C299 1.239 . S
O316 Nd289 2.487 1_565 S
O316 C306 1.241 . S
O317 Nd288 2.414 1_655 S
O317 Nd289 2.682 1_565 S
O317 C306 1.273 . S
O318 Nd289 2.410 . S
O318 C307 1.251 1_655 S
O319 Nd288 2.424 1_545 S
O319 C307 1.268 . S
H320 C292 0.930 . S
H321 C293 0.929 . S
H322 C295 0.930 . S
H323 C296 0.929 . S
H324 C301 0.930 . S
H325 C302 0.929 . S
H326 C304 0.930 . S
H327 C305 0.929 . S
Nd328 C330 2.836 . S
Nd328 O348 2.500 . S
Nd328 O349 2.492 . S
Nd328 O350 2.487 1_565 S
Nd328 O351 2.682 1_565 S
Nd328 O352 2.410 1_554 S
Nd328 O357 2.414 1_554 S
Nd328 O359 2.424 1_565 S
Nd329 C339 2.836 . S
Nd329 O351 2.414 1_556 S
Nd329 O353 2.424 1_545 S
Nd329 O354 2.500 . S
Nd329 O355 2.492 . S
Nd329 O356 2.487 1_545 S
Nd329 O357 2.682 1_545 S
Nd329 O358 2.410 1_556 S
C330 Nd328 2.836 . S
C330 C331 1.498 . S
C330 O348 1.258 . S
C330 O349 1.239 . S
C331 C330 1.498 . S
C331 C332 1.366 . S
C331 C336 1.407 . S
C332 C331 1.366 . S
C332 C333 1.392 . S
C332 H360 0.930 . S
C333 C332 1.392 . S
C333 C334 1.398 . S
C333 H361 0.929 . S
C334 C333 1.398 . S
C334 C335 1.352 . S
C335 C334 1.352 . S
C335 C336 1.384 . S
C335 H362 0.930 . S
C336 C331 1.407 . S
C336 C335 1.384 . S
C336 H363 0.929 . S
C337 O350 1.241 . S
C337 O351 1.273 . S
C338 O352 1.251 . S
C338 O353 1.268 . S
C339 Nd329 2.836 . S
C339 C340 1.498 . S
C339 O354 1.258 . S
C339 O355 1.239 . S
C340 C339 1.498 . S
C340 C341 1.366 . S
C340 C345 1.407 . S
C341 C340 1.366 . S
C341 C342 1.392 . S
C341 H364 0.930 . S
C342 C341 1.392 . S
C342 C343 1.398 . S
C342 H365 0.929 . S
C343 C342 1.398 . S
C343 C344 1.352 . S
C344 C343 1.352 . S
C344 C345 1.384 . S
C344 H366 0.930 . S
C345 C340 1.407 . S
C345 C344 1.384 . S
C345 H367 0.929 . S
C346 O356 1.241 . S
C346 O357 1.273 . S
C347 O358 1.251 . S
C347 O359 1.268 . S
O348 Nd328 2.500 . S
O348 C330 1.258 . S
O349 Nd328 2.492 . S
O349 C330 1.239 . S
O350 Nd328 2.487 1_545 S
O350 C337 1.241 . S
O351 Nd328 2.682 1_545 S
O351 Nd329 2.414 1_554 S
O351 C337 1.273 . S
O352 Nd328 2.410 1_556 S
O352 C338 1.251 . S
O353 Nd329 2.424 1_565 S
O353 C338 1.268 . S
O354 Nd329 2.500 . S
O354 C339 1.258 . S
O355 Nd329 2.492 . S
O355 C339 1.239 . S
O356 Nd329 2.487 1_565 S
O356 C346 1.241 . S
O357 Nd328 2.414 1_556 S
O357 Nd329 2.682 1_565 S
O357 C346 1.273 . S
O358 Nd329 2.410 1_554 S
O358 C347 1.251 . S
O359 Nd328 2.424 1_545 S
O359 C347 1.268 . S
H360 C332 0.930 . S
H361 C333 0.929 . S
H362 C335 0.930 . S
H363 C336 0.929 . S
H364 C341 0.930 . S
H365 C342 0.929 . S
H366 C344 0.930 . S
H367 C345 0.929 . S
Nd368 C370 2.836 . S
Nd368 O388 2.500 . S
Nd368 O389 2.492 . S
Nd368 O390 2.487 . S
Nd368 O391 2.682 . S
Nd368 O392 2.410 . S
Nd368 O397 2.414 . S
Nd368 O399 2.424 . S
Nd369 C379 2.836 . S
Nd369 O391 2.414 . S
Nd369 O393 2.424 . S
Nd369 O394 2.500 . S
Nd369 O395 2.492 . S
Nd369 O396 2.487 . S
Nd369 O397 2.682 . S
Nd369 O398 2.410 . S
C370 Nd368 2.836 . S
C370 C371 1.498 . S
C370 O388 1.258 . S
C370 O389 1.239 . S
C371 C370 1.498 . S
C371 C372 1.366 . S
C371 C376 1.407 . S
C372 C371 1.366 . S
C372 C373 1.392 . S
C372 H400 0.930 . S
C373 C372 1.392 . S
C373 C374 1.398 . S
C373 H401 0.929 . S
C374 C373 1.398 . S
C374 C375 1.352 . S
C375 C374 1.352 . S
C375 C376 1.384 . S
C375 H402 0.930 . S
C376 C371 1.407 . S
C376 C375 1.384 . S
C376 H403 0.929 . S
C377 O390 1.241 . S
C377 O391 1.273 . S
C378 O392 1.251 . S
C378 O393 1.268 . S
C379 Nd369 2.836 . S
C379 C380 1.498 . S
C379 O394 1.258 . S
C379 O395 1.239 . S
C380 C379 1.498 . S
C380 C381 1.366 . S
C380 C385 1.407 . S
C381 C380 1.366 . S
C381 C382 1.392 . S
C381 H404 0.930 . S
C382 C381 1.392 . S
C382 C383 1.398 . S
C382 H405 0.929 . S
C383 C382 1.398 . S
C383 C384 1.352 . S
C384 C383 1.352 . S
C384 C385 1.384 . S
C384 H406 0.930 . S
C385 C380 1.407 . S
C385 C384 1.384 . S
C385 H407 0.929 . S
C386 O396 1.241 . S
C386 O397 1.273 . S
C387 O398 1.251 . S
C387 O399 1.268 . S
O388 Nd368 2.500 . S
O388 C370 1.258 . S
O389 Nd368 2.492 . S
O389 C370 1.239 . S
O390 Nd368 2.487 . S
O390 C377 1.241 . S
O391 Nd368 2.682 . S
O391 Nd369 2.414 . S
O391 C377 1.273 . S
O392 Nd368 2.410 . S
O392 C378 1.251 . S
O393 Nd369 2.424 . S
O393 C378 1.268 . S
O394 Nd369 2.500 . S
O394 C379 1.258 . S
O395 Nd369 2.492 . S
O395 C379 1.239 . S
O396 Nd369 2.487 . S
O396 C386 1.241 . S
O397 Nd368 2.414 . S
O397 Nd369 2.682 . S
O397 C386 1.273 . S
O398 Nd369 2.410 . S
O398 C387 1.251 . S
O399 Nd368 2.424 . S
O399 C387 1.268 . S
H400 C372 0.930 . S
H401 C373 0.929 . S
H402 C375 0.930 . S
H403 C376 0.929 . S
H404 C381 0.930 . S
H405 C382 0.929 . S
H406 C384 0.930 . S
H407 C385 0.929 . S
Nd408 C410 2.836 . S
Nd408 O428 2.500 . S
Nd408 O429 2.492 . S
Nd408 O430 2.487 1_655 S
Nd408 O431 2.682 1_655 S
Nd408 O432 2.410 . S
Nd408 O437 2.414 1_554 S
Nd408 O439 2.424 1_655 S
Nd409 C419 2.836 . S
Nd409 O431 2.414 1_556 S
Nd409 O433 2.424 1_455 S
Nd409 O434 2.500 . S
Nd409 O435 2.492 . S
Nd409 O436 2.487 1_455 S
Nd409 O437 2.682 1_455 S
Nd409 O438 2.410 . S
C410 Nd408 2.836 . S
C410 C411 1.498 . S
C410 O428 1.258 . S
C410 O429 1.239 . S
C411 C410 1.498 . S
C411 C412 1.366 . S
C411 C416 1.407 . S
C412 C411 1.366 . S
C412 C413 1.392 . S
C412 H440 0.930 . S
C413 C412 1.392 . S
C413 C414 1.398 . S
C413 H441 0.929 . S
C414 C413 1.398 . S
C414 C415 1.352 . S
C415 C414 1.352 . S
C415 C416 1.384 . S
C415 H442 0.930 . S
C416 C411 1.407 . S
C416 C415 1.384 . S
C416 H443 0.929 . S
C417 O430 1.241 . S
C417 O431 1.273 . S
C418 O432 1.251 1_556 S
C418 O433 1.268 . S
C419 Nd409 2.836 . S
C419 C420 1.498 . S
C419 O434 1.258 . S
C419 O435 1.239 . S
C420 C419 1.498 . S
C420 C421 1.366 . S
C420 C425 1.407 . S
C421 C420 1.366 . S
C421 C422 1.392 . S
C421 H444 0.930 . S
C422 C421 1.392 . S
C422 C423 1.398 . S
C422 H445 0.929 . S
C423 C422 1.398 . S
C423 C424 1.352 . S
C424 C423 1.352 . S
C424 C425 1.384 . S
C424 H446 0.930 . S
C425 C420 1.407 . S
C425 C424 1.384 . S
C425 H447 0.929 . S
C426 O436 1.241 . S
C426 O437 1.273 . S
C427 O438 1.251 1_554 S
C427 O439 1.268 . S
O428 Nd408 2.500 . S
O428 C410 1.258 . S
O429 Nd408 2.492 . S
O429 C410 1.239 . S
O430 Nd408 2.487 1_455 S
O430 C417 1.241 . S
O431 Nd408 2.682 1_455 S
O431 Nd409 2.414 1_554 S
O431 C417 1.273 . S
O432 Nd408 2.410 . S
O432 C418 1.251 1_554 S
O433 Nd409 2.424 1_655 S
O433 C418 1.268 . S
O434 Nd409 2.500 . S
O434 C419 1.258 . S
O435 Nd409 2.492 . S
O435 C419 1.239 . S
O436 Nd409 2.487 1_655 S
O436 C426 1.241 . S
O437 Nd408 2.414 1_556 S
O437 Nd409 2.682 1_655 S
O437 C426 1.273 . S
O438 Nd409 2.410 . S
O438 C427 1.251 1_556 S
O439 Nd408 2.424 1_455 S
O439 C427 1.268 . S
H440 C412 0.930 . S
H441 C413 0.929 . S
H442 C415 0.930 . S
H443 C416 0.929 . S
H444 C421 0.930 . S
H445 C422 0.929 . S
H446 C424 0.930 . S
H447 C425 0.929 . S
C448 C449 1.387 . S
C448 H452 0.950 . S
C448 C457 1.390 . S
C449 C448 1.387 . S
C449 C451 1.387 . S
H450 C457 0.950 . S
C451 C449 1.387 . S
C451 C453 1.390 . S
C451 H455 0.950 . S
H452 C448 0.950 . S
C453 C451 1.390 . S
C453 C454 1.387 . S
C453 H456 0.950 . S
C454 C453 1.387 . S
C454 C457 1.387 . S
H455 C451 0.950 . S
H456 C453 0.950 . S
C457 C448 1.390 . S
C457 H450 0.950 . S
C457 C454 1.387 . S
C458 C459 1.387 . S
C458 H462 0.950 . S
C458 C467 1.390 . S
C459 C458 1.387 . S
C459 C461 1.387 . S
H460 C467 0.950 . S
C461 C459 1.387 . S
C461 C463 1.390 . S
C461 H465 0.950 . S
H462 C458 0.950 . S
C463 C461 1.390 . S
C463 C464 1.387 . S
C463 H466 0.950 . S
C464 C463 1.387 . S
C464 C467 1.387 . S
H465 C461 0.950 . S
H466 C463 0.950 . S
C467 C458 1.390 . S
C467 H460 0.950 . S
C467 C464 1.387 . S
C468 C469 1.387 . S
C468 H472 0.950 . S
C468 C477 1.390 . S
C469 C468 1.387 . S
C469 C471 1.387 . S
H470 C477 0.950 . S
C471 C469 1.387 . S
C471 C473 1.390 . S
C471 H475 0.950 . S
H472 C468 0.950 . S
C473 C471 1.390 . S
C473 C474 1.387 . S
C473 H476 0.950 . S
C474 C473 1.387 . S
C474 C477 1.387 . S
H475 C471 0.950 . S
H476 C473 0.950 . S
C477 C468 1.390 . S
C477 H470 0.950 . S
C477 C474 1.387 . S
C478 C479 1.387 . S
C478 H482 0.950 . S
C478 C487 1.390 . S
C479 C478 1.387 . S
C479 C481 1.387 . S
H480 C487 0.950 . S
C481 C479 1.387 . S
C481 C483 1.390 . S
C481 H485 0.950 . S
H482 C478 0.950 . S
C483 C481 1.390 . S
C483 C484 1.387 . S
C483 H486 0.950 . S
C484 C483 1.387 . S
C484 C487 1.387 . S
H485 C481 0.950 . S
H486 C483 0.950 . S
C487 C478 1.390 . S
C487 H480 0.950 . S
C487 C484 1.387 . S
C488 C489 1.387 . S
C488 H492 0.950 . S
C488 C497 1.390 . S
C489 C488 1.387 . S
C489 C491 1.387 . S
H490 C497 0.950 . S
C491 C489 1.387 . S
C491 C493 1.390 . S
C491 H495 0.950 1_554 S
H492 C488 0.950 . S
C493 C491 1.390 . S
C493 C494 1.387 . S
C493 H496 0.950 1_554 S
C494 C493 1.387 . S
C494 C497 1.387 . S
H495 C491 0.950 1_556 S
H496 C493 0.950 1_556 S
C497 C488 1.390 . S
C497 H490 0.950 . S
C497 C494 1.387 . S
C498 C499 1.387 . S
C498 H502 0.950 . S
C498 C507 1.390 . S
C499 C498 1.387 . S
C499 C501 1.387 . S
H500 C507 0.950 . S
C501 C499 1.387 . S
C501 C503 1.390 . S
C501 H505 0.950 . S
H502 C498 0.950 . S
C503 C501 1.390 . S
C503 C504 1.387 . S
C503 H506 0.950 . S
C504 C503 1.387 . S
C504 C507 1.387 . S
H505 C501 0.950 . S
H506 C503 0.950 . S
C507 C498 1.390 . S
C507 H500 0.950 . S
C507 C504 1.387 . S
C508 C509 1.387 . S
C508 H512 0.950 . S
C508 C517 1.390 . S
C509 C508 1.387 . S
C509 C511 1.387 . S
H510 C517 0.950 . S
C511 C509 1.387 . S
C511 C513 1.390 . S
C511 H515 0.950 . S
H512 C508 0.950 . S
C513 C511 1.390 . S
C513 C514 1.387 . S
C513 H516 0.950 . S
C514 C513 1.387 . S
C514 C517 1.387 . S
H515 C511 0.950 . S
H516 C513 0.950 . S
C517 C508 1.390 . S
C517 H510 0.950 . S
C517 C514 1.387 . S
C518 C519 1.387 . S
C518 H522 0.950 . S
C518 C527 1.390 . S
C519 C518 1.387 . S
C519 C521 1.387 . S
H520 C527 0.950 . S
C521 C519 1.387 . S
C521 C523 1.390 . S
C521 H525 0.950 . S
H522 C518 0.950 . S
C523 C521 1.390 . S
C523 C524 1.387 . S
C523 H526 0.950 . S
C524 C523 1.387 . S
C524 C527 1.387 . S
H525 C521 0.950 . S
H526 C523 0.950 . S
C527 C518 1.390 . S
C527 H520 0.950 . S
C527 C524 1.387 . S
C528 C529 1.387 . S
C528 H532 0.950 . S
C528 C537 1.390 . S
C529 C528 1.387 . S
C529 C531 1.387 . S
H530 C537 0.950 . S
C531 C529 1.387 . S
C531 C533 1.390 . S
C531 H535 0.950 1_554 S
H532 C528 0.950 . S
C533 C531 1.390 . S
C533 C534 1.387 . S
C533 H536 0.950 1_554 S
C534 C533 1.387 . S
C534 C537 1.387 . S
H535 C531 0.950 1_556 S
H536 C533 0.950 1_556 S
C537 C528 1.390 . S
C537 H530 0.950 . S
C537 C534 1.387 . S
C538 C539 1.387 . S
C538 H542 0.950 . S
C538 C547 1.390 . S
C539 C538 1.387 . S
C539 C541 1.387 . S
H540 C547 0.950 . S
C541 C539 1.387 . S
C541 C543 1.390 . S
C541 H545 0.950 . S
H542 C538 0.950 . S
C543 C541 1.390 . S
C543 C544 1.387 . S
C543 H546 0.950 . S
C544 C543 1.387 . S
C544 C547 1.387 . S
H545 C541 0.950 . S
H546 C543 0.950 . S
C547 C538 1.390 . S
C547 H540 0.950 . S
C547 C544 1.387 . S
C548 C549 1.387 . S
C548 H552 0.950 . S
C548 C557 1.390 . S
C549 C548 1.387 . S
C549 C551 1.387 . S
H550 C557 0.950 . S
C551 C549 1.387 . S
C551 C553 1.390 . S
C551 H555 0.950 . S
H552 C548 0.950 . S
C553 C551 1.390 . S
C553 C554 1.387 . S
C553 H556 0.950 . S
C554 C553 1.387 . S
C554 C557 1.387 . S
H555 C551 0.950 . S
H556 C553 0.950 . S
C557 C548 1.390 . S
C557 H550 0.950 . S
C557 C554 1.387 . S
C558 C559 1.387 . S
C558 H562 0.950 . S
C558 C567 1.390 . S
C559 C558 1.387 . S
C559 C561 1.387 . S
H560 C567 0.950 . S
C561 C559 1.387 . S
C561 C563 1.390 . S
C561 H565 0.950 . S
H562 C558 0.950 . S
C563 C561 1.390 . S
C563 C564 1.387 . S
C563 H566 0.950 . S
C564 C563 1.387 . S
C564 C567 1.387 . S
H565 C561 0.950 . S
H566 C563 0.950 . S
C567 C558 1.390 . S
C567 H560 0.950 . S
C567 C564 1.387 . S
C568 C569 1.387 . S
C568 H572 0.950 . S
C568 C577 1.390 . S
C569 C568 1.387 . S
C569 C571 1.387 . S
H570 C577 0.950 . S
C571 C569 1.387 . S
C571 C573 1.390 . S
C571 H575 0.950 . S
H572 C568 0.950 . S
C573 C571 1.390 . S
C573 C574 1.387 . S
C573 H576 0.950 . S
C574 C573 1.387 . S
C574 C577 1.387 . S
H575 C571 0.950 . S
H576 C573 0.950 . S
C577 C568 1.390 . S
C577 H570 0.950 . S
C577 C574 1.387 . S
C578 C579 1.387 . S
C578 H582 0.950 . S
C578 C587 1.390 . S
C579 C578 1.387 . S
C579 C581 1.387 . S
H580 C587 0.950 . S
C581 C579 1.387 . S
C581 C583 1.390 . S
C581 H585 0.950 . S
H582 C578 0.950 . S
C583 C581 1.390 . S
C583 C584 1.387 . S
C583 H586 0.950 . S
C584 C583 1.387 . S
C584 C587 1.387 . S
H585 C581 0.950 . S
H586 C583 0.950 . S
C587 C578 1.390 . S
C587 H580 0.950 . S
C587 C584 1.387 . S
C588 C589 1.387 . S
C588 H592 0.950 . S
C588 C597 1.390 . S
C589 C588 1.387 . S
C589 C591 1.387 . S
H590 C597 0.950 . S
C591 C589 1.387 . S
C591 C593 1.390 . S
C591 H595 0.950 . S
H592 C588 0.950 . S
C593 C591 1.390 . S
C593 C594 1.387 . S
C593 H596 0.950 . S
C594 C593 1.387 . S
C594 C597 1.387 . S
H595 C591 0.950 . S
H596 C593 0.950 . S
C597 C588 1.390 . S
C597 H590 0.950 . S
C597 C594 1.387 . S
C598 C599 1.387 . S
C598 H602 0.950 . S
C598 C607 1.390 . S
C599 C598 1.387 . S
C599 C601 1.387 . S
H600 C607 0.950 . S
C601 C599 1.387 . S
C601 C603 1.390 . S
C601 H605 0.950 . S
H602 C598 0.950 . S
C603 C601 1.390 . S
C603 C604 1.387 . S
C603 H606 0.950 . S
C604 C603 1.387 . S
C604 C607 1.387 . S
H605 C601 0.950 . S
H606 C603 0.950 . S
C607 C598 1.390 . S
C607 H600 0.950 . S
C607 C604 1.387 . S
C608 C609 1.387 . S
C608 H612 0.950 . S
C608 C617 1.390 . S
C609 C608 1.387 . S
C609 C611 1.387 . S
H610 C617 0.950 . S
C611 C609 1.387 . S
C611 C613 1.390 . S
C611 H615 0.950 1_556 S
H612 C608 0.950 . S
C613 C611 1.390 . S
C613 C614 1.387 . S
C613 H616 0.950 1_556 S
C614 C613 1.387 . S
C614 C617 1.387 . S
H615 C611 0.950 1_554 S
H616 C613 0.950 1_554 S
C617 C608 1.390 . S
C617 H610 0.950 . S
C617 C614 1.387 . S
C618 C619 1.387 . S
C618 H622 0.950 . S
C618 C627 1.390 . S
C619 C618 1.387 . S
C619 C621 1.387 . S
H620 C627 0.950 . S
C621 C619 1.387 . S
C621 C623 1.390 . S
C621 H625 0.950 . S
H622 C618 0.950 . S
C623 C621 1.390 . S
C623 C624 1.387 . S
C623 H626 0.950 . S
C624 C623 1.387 . S
C624 C627 1.387 . S
H625 C621 0.950 . S
H626 C623 0.950 . S
C627 C618 1.390 . S
C627 H620 0.950 . S
C627 C624 1.387 . S
C628 C629 1.387 . S
C628 H632 0.950 . S
C628 C637 1.390 . S
C629 C628 1.387 . S
C629 C631 1.387 . S
H630 C637 0.950 . S
C631 C629 1.387 . S
C631 C633 1.390 . S
C631 H635 0.950 . S
H632 C628 0.950 . S
C633 C631 1.390 . S
C633 C634 1.387 . S
C633 H636 0.950 . S
C634 C633 1.387 . S
C634 C637 1.387 . S
H635 C631 0.950 . S
H636 C633 0.950 . S
C637 C628 1.390 . S
C637 H630 0.950 . S
C637 C634 1.387 . S
C638 C639 1.387 . S
C638 H642 0.950 . S
C638 C647 1.390 . S
C639 C638 1.387 . S
C639 C641 1.387 . S
H640 C647 0.950 . S
C641 C639 1.387 . S
C641 C643 1.390 . S
C641 H645 0.950 . S
H642 C638 0.950 . S
C643 C641 1.390 . S
C643 C644 1.387 . S
C643 H646 0.950 . S
C644 C643 1.387 . S
C644 C647 1.387 . S
H645 C641 0.950 . S
H646 C643 0.950 . S
C647 C638 1.390 . S
C647 H640 0.950 . S
C647 C644 1.387 . S
C648 C649 1.387 . S
C648 H652 0.950 . S
C648 C657 1.390 . S
C649 C648 1.387 . S
C649 C651 1.387 . S
H650 C657 0.950 . S
C651 C649 1.387 . S
C651 C653 1.390 . S
C651 H655 0.950 1_556 S
H652 C648 0.950 . S
C653 C651 1.390 . S
C653 C654 1.387 . S
C653 H656 0.950 1_556 S
C654 C653 1.387 . S
C654 C657 1.387 . S
H655 C651 0.950 1_554 S
H656 C653 0.950 1_554 S
C657 C648 1.390 . S
C657 H650 0.950 . S
C657 C654 1.387 . S
C658 C659 1.387 . S
C658 H662 0.950 . S
C658 C667 1.390 . S
C659 C658 1.387 . S
C659 C661 1.387 . S
H660 C667 0.950 . S
C661 C659 1.387 . S
C661 C663 1.390 . S
C661 H665 0.950 . S
H662 C658 0.950 . S
C663 C661 1.390 . S
C663 C664 1.387 . S
C663 H666 0.950 . S
C664 C663 1.387 . S
C664 C667 1.387 . S
H665 C661 0.950 . S
H666 C663 0.950 . S
C667 C658 1.390 . S
C667 H660 0.950 . S
C667 C664 1.387 . S
C668 C669 1.387 . S
C668 H672 0.950 . S
C668 C677 1.390 . S
C669 C668 1.387 . S
C669 C671 1.387 . S
H670 C677 0.950 . S
C671 C669 1.387 . S
C671 C673 1.390 . S
C671 H675 0.950 . S
H672 C668 0.950 . S
C673 C671 1.390 . S
C673 C674 1.387 . S
C673 H676 0.950 . S
C674 C673 1.387 . S
C674 C677 1.387 . S
H675 C671 0.950 . S
H676 C673 0.950 . S
C677 C668 1.390 . S
C677 H670 0.950 . S
C677 C674 1.387 . S
C678 C679 1.387 . S
C678 H682 0.950 . S
C678 C687 1.390 . S
C679 C678 1.387 . S
C679 C681 1.387 . S
H680 C687 0.950 . S
C681 C679 1.387 . S
C681 C683 1.390 . S
C681 H685 0.950 . S
H682 C678 0.950 . S
C683 C681 1.390 . S
C683 C684 1.387 . S
C683 H686 0.950 . S
C684 C683 1.387 . S
C684 C687 1.387 . S
H685 C681 0.950 . S
H686 C683 0.950 . S
C687 C678 1.390 . S
C687 H680 0.950 . S
C687 C684 1.387 . S
C449 C1 2.861 . S
C454 C307 2.839 . S
C459 C67 2.518 . S
C464 C338 2.637 . S
C474 C377 1.501 . S
C469 C97 1.478 . S
C479 C133 0.721 . S
C484 C414 0.720 . S
C494 C337 2.786 . S
C489 C25 2.854 . S
C504 C294 1.451 . S
C499 C37 1.437 . S
C514 C426 1.551 . S
C509 C103 1.569 . S
C524 C383 1.325 . S
C519 C109 1.309 . S
C529 C31 2.300 . S
C534 C427 2.324 . S
C544 C343 1.330 . S
C539 C73 1.321 . S
C549 C139 0.644 . S
C554 C306 0.680 . S
C559 C61 2.530 . S
C564 C378 2.540 . S
C574 C298 2.848 . S
C569 C175 2.881 . S
C579 C181 2.519 . S
C584 C347 2.627 . S
C589 C247 1.530 . S
C594 C386 1.515 . S
C599 C277 0.707 . S
C604 C423 0.708 . S
C609 C145 2.873 . S
C614 C346 2.778 . S
C624 C303 1.461 . S
C619 C211 1.436 . S
C634 C417 1.537 . S
C629 C217 1.578 . S
C644 C374 1.339 . S
C639 C283 1.352 . S
C649 C169 2.304 . S
C654 C418 2.318 . S
C664 C334 1.321 . S
C659 C241 1.317 . S
C674 C297 0.689 . S
C669 C253 0.654 . S
C679 C205 2.522 . S
C684 C387 2.546 . S
