# Generated by pormake.
# Topology anh, (6,3)-cn, num edge types: 1
# Building blocks:
#     Node 0, Type 0, BuildingBlock: MIFKUJ_clean_sbu_0, # of connection points: 6
#     Node 1, Type 0, BuildingBlock: MIFKUJ_clean_sbu_0, # of connection points: 6
#     Node 2, Type 0, BuildingBlock: MIFKUJ_clean_sbu_0, # of connection points: 6
#     Node 3, Type 1, BuildingBlock: BETDAH_clean_linker_0, # of connection points: 3
#     Node 4, Type 1, BuildingBlock: BETDAH_clean_linker_0, # of connection points: 3
#     Node 5, Type 1, BuildingBlock: BETDAH_clean_linker_0, # of connection points: 3
#     Node 6, Type 1, BuildingBlock: BETDAH_clean_linker_0, # of connection points: 3
#     Node 7, Type 1, BuildingBlock: BETDAH_clean_linker_0, # of connection points: 3
#     Node 8, Type 1, BuildingBlock: BETDAH_clean_linker_0, # of connection points: 3
#     Edge 9, Type (0, 1), BuildingBlock: CIFDUS_clean_linker_0, # of connection points: 2
#     Edge 10, Type (0, 1), BuildingBlock: CIFDUS_clean_linker_0, # of connection points: 2
#     Edge 11, Type (0, 1), BuildingBlock: CIFDUS_clean_linker_0, # of connection points: 2
#     Edge 12, Type (0, 1), BuildingBlock: CIFDUS_clean_linker_0, # of connection points: 2
#     Edge 13, Type (0, 1), BuildingBlock: CIFDUS_clean_linker_0, # of connection points: 2
#     Edge 14, Type (0, 1), BuildingBlock: CIFDUS_clean_linker_0, # of connection points: 2
#     Edge 15, Type (0, 1), BuildingBlock: CIFDUS_clean_linker_0, # of connection points: 2
#     Edge 16, Type (0, 1), BuildingBlock: CIFDUS_clean_linker_0, # of connection points: 2
#     Edge 17, Type (0, 1), BuildingBlock: CIFDUS_clean_linker_0, # of connection points: 2
#     Edge 18, Type (0, 1), BuildingBlock: CIFDUS_clean_linker_0, # of connection points: 2
#     Edge 19, Type (0, 1), BuildingBlock: CIFDUS_clean_linker_0, # of connection points: 2
#     Edge 20, Type (0, 1), BuildingBlock: CIFDUS_clean_linker_0, # of connection points: 2
#     Edge 21, Type (0, 1), BuildingBlock: CIFDUS_clean_linker_0, # of connection points: 2
#     Edge 22, Type (0, 1), BuildingBlock: CIFDUS_clean_linker_0, # of connection points: 2
#     Edge 23, Type (0, 1), BuildingBlock: CIFDUS_clean_linker_0, # of connection points: 2
#     Edge 24, Type (0, 1), BuildingBlock: CIFDUS_clean_linker_0, # of connection points: 2
#     Edge 25, Type (0, 1), BuildingBlock: CIFDUS_clean_linker_0, # of connection points: 2
#     Edge 26, Type (0, 1), BuildingBlock: CIFDUS_clean_linker_0, # of connection points: 2
# Relax obj value: 0.068
# Max RMSD: 0.136
# Mean RMSD: 0.097
data_MOF--net-anh--node1-MIFKUJ_clean_sbu_0--node2-BETDAH_clean_linker_0--edge1-CIFDUS_clean_linker_0
_symmetry_space_group_name_H-M    P1
_symmetry_Int_Tables_number       1
_symmetry_cell_setting            triclinic
loop_
_symmetry_equiv_pos_as_xyz
'x, y, z'
_cell_length_a     28.065921
_cell_length_b     28.122036
_cell_length_c     40.548945
_cell_angle_alpha  96.18967
_cell_angle_beta   93.301579
_cell_angle_gamma 119.94897
loop_
_atom_site_label
_atom_site_type_symbol
_atom_site_fract_x
_atom_site_fract_y
_atom_site_fract_z
_atom_type_partial_charge
Zn0 Zn 0.07315 0.57502 0.15179 0.0
Zn1 Zn 0.93204 0.45721 0.1523 0.0
C2 C 0.15893 0.55354 0.15654 0.0
O3 O 0.17091 0.59232 0.1821 0.0
C4 C 0.83742 0.45551 0.12199 0.0
O5 O 0.84494 0.42455 0.09864 0.0
O6 O 0.13231 0.654 0.15281 0.0
O7 O 0.01031 0.56146 0.11873 0.0
O8 O 0.96841 0.4705 0.10938 0.0
C9 C 0.14146 0.69584 0.17338 0.0
O10 O 0.10655 0.68996 0.19503 0.0
O11 O 0.11311 0.5337 0.13767 0.0
C12 C 0.86693 0.35285 0.17448 0.0
O13 O 0.86873 0.38518 0.20106 0.0
O14 O 0.89196 0.37472 0.1503 0.0
O15 O 0.97646 0.48937 0.19874 0.0
O16 O 0.05855 0.56459 0.19856 0.0
O17 O 0.87136 0.47683 0.14881 0.0
C18 C 0.98764 0.5164 0.09841 0.0
C19 C 0.02207 0.52971 0.21405 0.0
Zn20 Zn 0.57723 0.10834 0.50217 0.0
Zn21 Zn 0.5351 0.95567 0.50349 0.0
C22 C 0.69514 0.17364 0.52044 0.0
O23 O 0.67909 0.17425 0.5502 0.0
C24 C 0.41338 0.89847 0.4867 0.0
O25 O 0.4223 0.94756 0.48186 0.0
O26 O 0.56442 0.17232 0.50242 0.0
O27 O 0.52646 0.0497 0.46381 0.0
O28 O 0.556 0.98986 0.46095 0.0
C29 C 0.58773 0.20671 0.4825 0.0
O30 O 0.61394 0.19579 0.45979 0.0
O31 O 0.65883 0.14348 0.49542 0.0
C32 C 0.56829 0.89193 0.53633 0.0
O33 O 0.53404 0.89472 0.55615 0.0
O34 O 0.57752 0.91706 0.51111 0.0
O35 O 0.54494 0.00142 0.54778 0.0
O36 O 0.56415 0.08816 0.54772 0.0
O37 O 0.45448 0.89305 0.49532 0.0
C38 C 0.54215 0.02043 0.44706 0.0
C39 C 0.55386 0.04756 0.56286 0.0
Zn40 Zn 0.61934 0.61044 0.8322 0.0
Zn41 Zn 0.5009 0.64189 0.83742 0.0
C42 C 0.54352 0.48917 0.81693 0.0
O43 O 0.5078 0.49815 0.83186 0.0
C44 C 0.51839 0.74516 0.82102 0.0
O45 O 0.47885 0.71006 0.79704 0.0
O46 O 0.70096 0.63855 0.84039 0.0
O47 O 0.60273 0.65454 0.80303 0.0
O48 O 0.51211 0.60911 0.79325 0.0
C49 C 0.71961 0.62187 0.81677 0.0
O50 O 0.68847 0.59883 0.78767 0.0
O51 O 0.58895 0.53021 0.81176 0.0
C52 C 0.38275 0.57343 0.84463 0.0
O53 O 0.39779 0.54463 0.86144 0.0
O54 O 0.41924 0.61488 0.83295 0.0
O55 O 0.51915 0.61937 0.88062 0.0
O56 O 0.59026 0.60581 0.87586 0.0
O57 O 0.53792 0.72608 0.84163 0.0
C58 C 0.55875 0.6251 0.78277 0.0
C59 C 0.55424 0.60758 0.89268 0.0
H60 H 0.4469 0.91246 0.2525 0.0
H61 H 0.61864 0.00817 0.23942 0.0
H62 H 0.49558 0.91733 0.15351 0.0
C63 C 0.4786 0.92807 0.23597 0.0
C64 C 0.46393 0.9111 0.20126 0.0
C65 C 0.53416 0.96293 0.24987 0.0
C66 C 0.57562 0.98143 0.22876 0.0
C67 C 0.56149 0.96508 0.19391 0.0
C68 C 0.50595 0.92943 0.18041 0.0
N69 N 0.60234 0.9845 0.17192 0.0
C70 C 0.64841 0.03766 0.17857 0.0
H71 H 0.59545 0.48273 0.60454 0.0
H72 H 0.66212 0.65073 0.58633 0.0
H73 H 0.64153 0.52511 0.50751 0.0
C74 C 0.61059 0.51266 0.58742 0.0
C75 C 0.61614 0.49631 0.55447 0.0
C76 C 0.62699 0.56824 0.59905 0.0
C77 C 0.64893 0.60775 0.57739 0.0
C78 C 0.65435 0.5919 0.54441 0.0
C79 C 0.638 0.53659 0.53324 0.0
N80 N 0.67665 0.63061 0.52189 0.0
C81 C 0.67406 0.67881 0.52439 0.0
H82 H 0.90332 0.51288 0.90295 0.0
H83 H 0.01305 0.44986 0.8866 0.0
H84 H 0.93904 0.48355 0.80343 0.0
C85 C 0.92516 0.50045 0.88612 0.0
C86 C 0.91752 0.50156 0.85172 0.0
C87 C 0.9592 0.48154 0.89891 0.0
C88 C 0.98636 0.46409 0.87694 0.0
C89 C 0.97883 0.46476 0.84245 0.0
C90 C 0.94394 0.48267 0.83002 0.0
N91 N 0.00594 0.44778 0.81968 0.0
C92 C 0.05869 0.45662 0.82809 0.0
H93 H 0.12755 0.6253 0.41003 0.0
H94 H 0.99476 0.46485 0.42387 0.0
H95 H 0.11892 0.57395 0.50642 0.0
C96 C 0.10659 0.59457 0.42607 0.0
C97 C 0.12924 0.60585 0.45963 0.0
C98 C 0.05892 0.54346 0.41255 0.0
C99 C 0.03135 0.50443 0.43391 0.0
C100 C 0.05274 0.51575 0.46798 0.0
C101 C 0.10202 0.56595 0.48039 0.0
N102 N 0.0273 0.47728 0.49043 0.0
C103 C 0.97572 0.42851 0.48369 0.0
H104 H 0.54142 0.21275 0.74563 0.0
H105 H 0.5388 0.06586 0.76906 0.0
H106 H 0.57176 0.19824 0.84782 0.0
C107 C 0.54398 0.18818 0.76375 0.0
C108 C 0.55545 0.21044 0.79769 0.0
C109 C 0.53816 0.13616 0.75299 0.0
C110 C 0.54382 0.10622 0.77708 0.0
C111 C 0.55609 0.1284 0.81141 0.0
C112 C 0.56216 0.1808 0.82149 0.0
N113 N 0.56296 0.09932 0.83622 0.0
C114 C 0.55513 0.04604 0.82934 0.0
H115 H 0.61561 0.54883 0.07397 0.0
H116 H 0.45854 0.53022 0.09297 0.0
H117 H 0.54513 0.48341 0.16143 0.0
C118 C 0.5823 0.5363 0.0894 0.0
C119 C 0.58584 0.5148 0.11848 0.0
C120 C 0.53619 0.54101 0.07956 0.0
C121 C 0.49454 0.52735 0.10054 0.0
C122 C 0.49803 0.50715 0.13038 0.0
C123 C 0.54348 0.50058 0.139 0.0
N124 N 0.45552 0.4908 0.15149 0.0
C125 C 0.41449 0.50492 0.14981 0.0
H126 H 0.26552 0.60519 0.1848 0.0
H127 H 0.14565 0.46437 0.1127 0.0
H128 H 0.21507 0.43725 0.10322 0.0
H129 H 0.31008 0.45279 0.1169 0.0
H130 H 0.42825 0.59471 0.18869 0.0
H131 H 0.35934 0.62248 0.19678 0.0
C132 C 0.25428 0.56841 0.16701 0.0
C133 C 0.20018 0.53653 0.14972 0.0
C134 C 0.2943 0.55346 0.16161 0.0
C135 C 0.18688 0.48951 0.12644 0.0
C136 C 0.22658 0.47403 0.12103 0.0
C137 C 0.3205 0.48995 0.13407 0.0
C138 C 0.37384 0.52194 0.15223 0.0
C139 C 0.28041 0.50554 0.13863 0.0
C140 C 0.38733 0.5698 0.17448 0.0
C141 C 0.34796 0.58553 0.17915 0.0
H142 H 0.7329 0.22249 0.46529 0.0
H143 H 0.78664 0.21836 0.56626 0.0
H144 H 0.87944 0.29517 0.56284 0.0
H145 H 0.94363 0.36818 0.53286 0.0
H146 H 0.89022 0.37651 0.43309 0.0
H147 H 0.79908 0.29368 0.43415 0.0
C148 C 0.76527 0.23773 0.48627 0.0
C149 C 0.75292 0.21452 0.51598 0.0
C150 C 0.81839 0.28317 0.48444 0.0
C151 C 0.79506 0.23542 0.54314 0.0
C152 C 0.84811 0.2795 0.54125 0.0
C153 C 0.91205 0.35137 0.51128 0.0
C154 C 0.92309 0.37787 0.48294 0.0
C155 C 0.85992 0.30443 0.51234 0.0
C156 C 0.88225 0.35637 0.45511 0.0
C157 C 0.83029 0.30915 0.45577 0.0
H158 H 0.47859 0.79548 0.78363 0.0
H159 H 0.59647 0.82963 0.86897 0.0
H160 H 0.61958 0.92662 0.87857 0.0
H161 H 0.60347 0.00128 0.86395 0.0
H162 H 0.48434 0.96583 0.77935 0.0
H163 H 0.46448 0.86988 0.76815 0.0
C164 C 0.50965 0.82411 0.80423 0.0
C165 C 0.53564 0.80505 0.82558 0.0
C166 C 0.5223 0.87964 0.8098 0.0
C167 C 0.57576 0.843 0.85213 0.0
C168 C 0.58892 0.89851 0.85769 0.0
C169 C 0.57342 0.97239 0.843 0.0
C170 C 0.54532 0.99009 0.8224 0.0
C171 C 0.56203 0.91718 0.83691 0.0
C172 C 0.50643 0.95279 0.7954 0.0
C173 C 0.49507 0.89802 0.78905 0.0
H174 H 0.79561 0.49885 0.16825 0.0
H175 H 0.77064 0.4302 0.06394 0.0
H176 H 0.6904 0.44086 0.05428 0.0
H177 H 0.62706 0.46925 0.07488 0.0
H178 H 0.64983 0.53823 0.17871 0.0
H179 H 0.73023 0.52674 0.18926 0.0
C180 C 0.7727 0.48646 0.14341 0.0
C181 C 0.78942 0.46388 0.11686 0.0
C182 C 0.72585 0.49228 0.13796 0.0
C183 C 0.75889 0.44761 0.08488 0.0
C184 C 0.71284 0.45365 0.07928 0.0
C185 C 0.6498 0.48219 0.09982 0.0
C186 C 0.63275 0.50513 0.12588 0.0
C187 C 0.69597 0.47588 0.10557 0.0
C188 C 0.66191 0.52029 0.15821 0.0
C189 C 0.70812 0.51406 0.16419 0.0
H190 H 0.37818 0.79674 0.50534 0.0
H191 H 0.31943 0.89062 0.45693 0.0
H192 H 0.22572 0.80976 0.44652 0.0
H193 H 0.16113 0.71114 0.44884 0.0
H194 H 0.21945 0.61691 0.49705 0.0
H195 H 0.31214 0.69938 0.51056 0.0
C196 C 0.34487 0.79957 0.49257 0.0
C197 C 0.35609 0.84967 0.48165 0.0
C198 C 0.29082 0.75289 0.48682 0.0
C199 C 0.31217 0.85267 0.46552 0.0
C200 C 0.25848 0.80638 0.45954 0.0
C201 C 0.19408 0.70873 0.46245 0.0
C202 C 0.18336 0.65776 0.47174 0.0
C203 C 0.24744 0.75613 0.46975 0.0
C204 C 0.22634 0.65563 0.48985 0.0
C205 C 0.27953 0.70269 0.4973 0.0
H206 H 0.62385 0.46249 0.82058 0.0
H207 H 0.44631 0.38961 0.80381 0.0
H208 H 0.43405 0.29637 0.79834 0.0
H209 H 0.47431 0.23559 0.79708 0.0
H210 H 0.65129 0.3087 0.81716 0.0
H211 H 0.6636 0.40209 0.82311 0.0
C212 C 0.58248 0.42616 0.81544 0.0
C213 C 0.53599 0.4328 0.81196 0.0
C214 C 0.57578 0.3729 0.81345 0.0
C215 C 0.48266 0.38545 0.8062 0.0
C216 C 0.47567 0.33222 0.80323 0.0
C217 C 0.51536 0.27215 0.80345 0.0
C218 C 0.56186 0.26576 0.80717 0.0
C219 C 0.52191 0.32546 0.80683 0.0
C220 C 0.61502 0.31301 0.81486 0.0
C221 C 0.622 0.36622 0.81789 0.0
H222 H 0.63486 0.87197 0.49806 0.0
H223 H 0.55235 0.82963 0.58615 0.0
H224 H 0.58158 0.76217 0.59163 0.0
H225 H 0.62439 0.70993 0.56888 0.0
H226 H 0.70533 0.75067 0.48049 0.0
H227 H 0.68318 0.82431 0.4776 0.0
C228 C 0.62374 0.84842 0.51866 0.0
C229 C 0.59102 0.85548 0.54145 0.0
C230 C 0.64022 0.80927 0.52149 0.0
C231 C 0.57722 0.82479 0.5681 0.0
C232 C 0.59383 0.7861 0.57126 0.0
C233 C 0.63782 0.73568 0.54937 0.0
C234 C 0.66641 0.72569 0.52498 0.0
C235 C 0.6244 0.77726 0.54775 0.0
C236 C 0.6834 0.75838 0.49954 0.0
C237 C 0.6706 0.80017 0.49786 0.0
H238 H 0.74158 0.54865 0.78242 0.0
H239 H 0.80278 0.67591 0.86932 0.0
H240 H 0.87217 0.65201 0.8867 0.0
H241 H 0.91053 0.59037 0.87924 0.0
H242 H 0.84344 0.45835 0.79456 0.0
H243 H 0.78158 0.48916 0.77408 0.0
C244 C 0.77078 0.57198 0.80482 0.0
C245 C 0.76719 0.61416 0.82451 0.0
C246 C 0.8091 0.55672 0.81523 0.0
C247 C 0.80482 0.64335 0.85373 0.0
C248 C 0.84426 0.62949 0.86375 0.0
C249 C 0.88221 0.56816 0.85638 0.0
C250 C 0.88155 0.52192 0.83857 0.0
C251 C 0.84583 0.58534 0.84511 0.0
C252 C 0.84533 0.49438 0.80861 0.0
C253 C 0.80969 0.51179 0.79696 0.0
H254 H 0.22837 0.71126 0.1408 0.0
H255 H 0.17869 0.79475 0.21464 0.0
H256 H 0.27428 0.87264 0.22692 0.0
H257 H 0.37293 0.91182 0.22077 0.0
H258 H 0.42232 0.82295 0.15053 0.0
H259 H 0.32541 0.75285 0.1322 0.0
C260 C 0.23807 0.74681 0.15925 0.0
C261 C 0.1965 0.74693 0.17704 0.0
C262 C 0.29313 0.79034 0.16693 0.0
C263 C 0.20997 0.79347 0.20075 0.0
C264 C 0.26462 0.83789 0.20786 0.0
C265 C 0.3625 0.87711 0.20144 0.0
C266 C 0.40496 0.87237 0.18735 0.0
C267 C 0.30676 0.83587 0.19184 0.0
C268 C 0.39063 0.82794 0.16168 0.0
C269 C 0.33519 0.78754 0.15136 0.0
H270 H 0.5293 0.23892 0.52087 0.0
H271 H 0.66186 0.29994 0.45926 0.0
H272 H 0.68197 0.39463 0.47605 0.0
H273 H 0.66686 0.46039 0.51136 0.0
H274 H 0.53044 0.39995 0.57024 0.0
H275 H 0.50817 0.30475 0.55213 0.0
C276 C 0.56215 0.2729 0.51082 0.0
C277 C 0.59421 0.26243 0.48901 0.0
C278 C 0.57356 0.32738 0.52057 0.0
C279 C 0.63639 0.30678 0.476 0.0
C280 C 0.64822 0.36104 0.48577 0.0
C281 C 0.63136 0.42658 0.51973 0.0
C282 C 0.6007 0.43784 0.54237 0.0
C283 C 0.61771 0.37187 0.50848 0.0
C284 C 0.55572 0.39299 0.55343 0.0
C285 C 0.54253 0.33836 0.54281 0.0
H286 H 0.29434 0.49139 0.86855 0.0
H287 H 0.33865 0.62067 0.80753 0.0
H288 H 0.24199 0.59554 0.79721 0.0
H289 H 0.14454 0.53681 0.80517 0.0
H290 H 0.09894 0.40801 0.8661 0.0
H291 H 0.19636 0.43284 0.87694 0.0
C292 C 0.28285 0.51405 0.853 0.0
C293 C 0.3238 0.55782 0.83883 0.0
C294 C 0.22697 0.49945 0.84717 0.0
C295 C 0.30812 0.58683 0.8188 0.0
C296 C 0.25279 0.57251 0.81283 0.0
C297 C 0.15625 0.51434 0.82081 0.0
C298 C 0.11551 0.47079 0.83483 0.0
C299 C 0.21193 0.52894 0.82684 0.0
C300 C 0.13026 0.44169 0.85509 0.0
C301 C 0.18575 0.45589 0.86124 0.0
H302 H 0.80719 0.29326 0.22081 0.0
H303 H 0.85054 0.27514 0.12164 0.0
H304 H 0.78923 0.17466 0.11512 0.0
H305 H 0.71843 0.09231 0.13615 0.0
H306 H 0.67352 0.11049 0.23452 0.0
H307 H 0.74056 0.21055 0.24303 0.0
C308 C 0.80357 0.26733 0.19787 0.0
C309 C 0.83307 0.29175 0.17168 0.0
C310 C 0.76791 0.2096 0.19417 0.0
C311 C 0.8281 0.25747 0.14216 0.0
C312 C 0.79301 0.19998 0.13837 0.0
C313 C 0.72418 0.11835 0.15956 0.0
C314 C 0.69194 0.09491 0.18481 0.0
C315 C 0.76209 0.1757 0.16398 0.0
C316 C 0.69865 0.12826 0.21497 0.0
C317 C 0.73666 0.1853 0.21973 0.0
H318 H 0.96806 0.43447 0.04748 0.0
H319 H 1.00034 0.60258 0.06771 0.0
H320 H 0.99537 0.6068 0.008 0.0
H321 H 0.98131 0.56291 0.94999 0.0
H322 H 0.95122 0.39592 0.92908 0.0
H323 H 0.95671 0.39135 0.98906 0.0
C324 C 0.97386 0.47193 0.03878 0.0
C325 C 0.9843 0.51802 0.06204 0.0
C326 C 0.97171 0.47443 0.00431 0.0
C327 C 0.99232 0.5665 0.05038 0.0
C328 C 0.98947 0.569 0.01622 0.0
C329 C 0.97585 0.5255 0.95861 0.0
C330 C 0.96561 0.47975 0.93523 0.0
C331 C 0.97912 0.52325 0.99299 0.0
C332 C 0.9595 0.43182 0.94668 0.0
C333 C 0.96229 0.42907 0.98092 0.0
H334 H 0.5963 0.9881 0.40499 0.0
H335 H 0.47995 0.04605 0.40677 0.0
H336 H 0.46992 0.03656 0.34588 0.0
H337 H 0.4904 0.00719 0.29199 0.0
H338 H 0.60828 0.95157 0.28973 0.0
H339 H 0.62234 0.96559 0.35102 0.0
C340 C 0.56882 0.99869 0.39201 0.0
C341 C 0.53836 0.01702 0.41032 0.0
C342 C 0.56374 0.99379 0.35699 0.0
C343 C 0.50369 0.03161 0.39325 0.0
C344 C 0.49787 0.02616 0.35844 0.0
C345 C 0.51948 0.99862 0.30503 0.0
C346 C 0.54801 0.97806 0.28662 0.0
C347 C 0.52716 0.00668 0.34007 0.0
C348 C 0.58612 0.96768 0.30355 0.0
C349 C 0.5938 0.9753 0.3385 0.0
H350 H 0.64831 0.66984 0.7494 0.0
H351 H 0.47672 0.53905 0.73767 0.0
H352 H 0.48298 0.50908 0.67995 0.0
H353 H 0.5373 0.52076 0.63256 0.0
H354 H 0.70757 0.65414 0.64404 0.0
H355 H 0.70176 0.68257 0.7021 0.0
C356 C 0.61228 0.63466 0.73426 0.0
C357 C 0.56217 0.60664 0.74784 0.0
C358 C 0.61595 0.61827 0.70102 0.0
C359 C 0.51575 0.56145 0.72779 0.0
C360 C 0.51933 0.54424 0.6948 0.0
C361 C 0.57309 0.5559 0.6479 0.0
C362 C 0.6228 0.58535 0.63414 0.0
C363 C 0.56919 0.57242 0.68113 0.0
C364 C 0.66876 0.63118 0.65406 0.0
C365 C 0.66551 0.64728 0.68725 0.0
H366 H 0.50213 0.09325 0.5954 0.0
H367 H 0.59903 0.01568 0.61072 0.0
H368 H 0.60063 0.03365 0.67146 0.0
H369 H 0.58012 0.07791 0.71989 0.0
H370 H 0.47462 0.14657 0.70366 0.0
H371 H 0.4709 0.12569 0.64347 0.0
C372 C 0.5233 0.08009 0.61214 0.0
C373 C 0.5512 0.05414 0.599 0.0
C374 C 0.52278 0.08924 0.64673 0.0
C375 C 0.57757 0.03606 0.62057 0.0
C376 C 0.57853 0.0464 0.65519 0.0
C377 C 0.55517 0.08715 0.70331 0.0
C378 C 0.52892 0.11518 0.71652 0.0
C379 C 0.55192 0.07372 0.66856 0.0
C380 C 0.49693 0.12681 0.69436 0.0
C381 C 0.49441 0.11456 0.65986 0.0
H382 H 0.51555 0.6364 0.94776 0.0
H383 H 0.58279 0.53507 0.91111 0.0
H384 H 0.5793 0.50331 0.96465 0.0
H385 H 0.55994 0.50541 0.02189 0.0
H386 H 0.49899 0.61032 0.06197 0.0
H387 H 0.49572 0.63831 0.00696 0.0
C388 C 0.52923 0.60731 0.95162 0.0
C389 C 0.55 0.58869 0.92558 0.0
C390 C 0.52807 0.58964 0.98299 0.0
C391 C 0.56752 0.55086 0.93085 0.0
C392 C 0.56531 0.53236 0.96143 0.0
C393 C 0.54659 0.53503 0.01885 0.0
C394 C 0.53075 0.55651 0.04618 0.0
C395 C 0.54636 0.55194 0.98771 0.0
C396 C 0.51153 0.59318 0.04134 0.0
C397 C 0.50998 0.60944 0.00994 0.0
H398 H 0.95104 0.48926 0.26116 0.0
H399 H 0.1247 0.57984 0.24866 0.0
H400 H 0.15036 0.58752 0.30803 0.0
H401 H 0.12465 0.56987 0.36323 0.0
H402 H 0.9524 0.48786 0.37881 0.0
H403 H 0.92503 0.47358 0.31838 0.0
C404 C 0.99441 0.51065 0.27153 0.0
C405 C 0.03585 0.5342 0.25047 0.0
C406 C 0.00919 0.51602 0.30615 0.0
C407 C 0.09192 0.56189 0.26426 0.0
C408 C 0.10673 0.56609 0.29823 0.0
C409 C 0.08101 0.54971 0.35369 0.0
C410 C 0.04078 0.53099 0.37578 0.0
C411 C 0.06582 0.54371 0.31937 0.0
C412 C 0.98439 0.50273 0.36248 0.0
C413 C 0.96872 0.49496 0.32793 0.0
loop_
_geom_bond_atom_site_label_1
_geom_bond_atom_site_label_2
_geom_bond_distance
_geom_bond_site_symmetry_2
_ccdc_geom_bond_type
Zn0 O6 1.969 . S
Zn0 O7 1.965 . S
Zn0 O11 2.024 . S
Zn0 O16 1.969 . S
Zn1 O8 1.969 . S
Zn1 O14 1.969 . S
Zn1 O15 1.965 . S
Zn1 O17 2.024 . S
C2 O3 1.229 . S
C2 O11 1.058 . S
O3 C2 1.229 . S
C4 O5 1.229 . S
C4 O17 1.058 . S
O5 C4 1.229 . S
O6 Zn0 1.969 . S
O6 C9 1.267 . S
O7 Zn0 1.965 . S
O7 C18 1.260 . S
O8 Zn1 1.969 . S
O8 C18 1.258 1_655 S
C9 O6 1.267 . S
C9 O10 1.228 . S
O10 C9 1.228 . S
O11 Zn0 2.024 . S
O11 C2 1.058 . S
C12 O13 1.228 . S
C12 O14 1.267 . S
O13 C12 1.228 . S
O14 Zn1 1.969 . S
O14 C12 1.267 . S
O15 Zn1 1.965 . S
O15 C19 1.260 1_655 S
O16 Zn0 1.969 . S
O16 C19 1.258 . S
O17 Zn1 2.024 . S
O17 C4 1.058 . S
C18 O7 1.260 . S
C18 O8 1.258 1_455 S
C19 O15 1.260 1_455 S
C19 O16 1.258 . S
Zn20 O26 1.969 . S
Zn20 O27 1.965 . S
Zn20 O31 2.024 . S
Zn20 O36 1.969 . S
Zn21 O28 1.969 . S
Zn21 O34 1.969 . S
Zn21 O35 1.965 1_565 S
Zn21 O37 2.024 . S
C22 O23 1.229 . S
C22 O31 1.058 . S
O23 C22 1.229 . S
C24 O25 1.229 . S
C24 O37 1.058 . S
O25 C24 1.229 . S
O26 Zn20 1.969 . S
O26 C29 1.267 . S
O27 Zn20 1.965 . S
O27 C38 1.260 . S
O28 Zn21 1.969 . S
O28 C38 1.258 1_565 S
C29 O26 1.267 . S
C29 O30 1.228 . S
O30 C29 1.228 . S
O31 Zn20 2.024 . S
O31 C22 1.058 . S
C32 O33 1.228 . S
C32 O34 1.267 . S
O33 C32 1.228 . S
O34 Zn21 1.969 . S
O34 C32 1.267 . S
O35 Zn21 1.965 1_545 S
O35 C39 1.260 . S
O36 Zn20 1.969 . S
O36 C39 1.258 . S
O37 Zn21 2.024 . S
O37 C24 1.058 . S
C38 O27 1.260 . S
C38 O28 1.258 1_545 S
C39 O35 1.260 . S
C39 O36 1.258 . S
Zn40 O46 1.969 . S
Zn40 O47 1.965 . S
Zn40 O51 2.024 . S
Zn40 O56 1.969 . S
Zn41 O48 1.969 . S
Zn41 O54 1.969 . S
Zn41 O55 1.965 . S
Zn41 O57 2.024 . S
C42 O43 1.229 . S
C42 O51 1.058 . S
O43 C42 1.229 . S
C44 O45 1.229 . S
C44 O57 1.058 . S
O45 C44 1.229 . S
O46 Zn40 1.969 . S
O46 C49 1.267 . S
O47 Zn40 1.965 . S
O47 C58 1.260 . S
O48 Zn41 1.969 . S
O48 C58 1.258 . S
C49 O46 1.267 . S
C49 O50 1.228 . S
O50 C49 1.228 . S
O51 Zn40 2.024 . S
O51 C42 1.058 . S
C52 O53 1.228 . S
C52 O54 1.267 . S
O53 C52 1.228 . S
O54 Zn41 1.969 . S
O54 C52 1.267 . S
O55 Zn41 1.965 . S
O55 C59 1.260 . S
O56 Zn40 1.969 . S
O56 C59 1.258 . S
O57 Zn41 2.024 . S
O57 C44 1.058 . S
C58 O47 1.260 . S
C58 O48 1.258 . S
C59 O55 1.260 . S
C59 O56 1.258 . S
H60 C63 0.929 . S
H61 C66 0.929 . S
H62 C68 0.930 . S
C63 H60 0.929 . S
C63 C64 1.398 . S
C63 C65 1.396 1_565 S
C64 C63 1.398 . S
C64 C68 1.407 1_565 S
C65 C63 1.396 1_545 S
C65 C66 1.394 . S
C66 H61 0.929 . S
C66 C65 1.394 . S
C66 C67 1.382 . S
C67 C66 1.382 . S
C67 C68 1.392 . S
C67 N69 1.420 . S
C68 H62 0.930 . S
C68 C64 1.407 1_545 S
C68 C67 1.392 . S
N69 C67 1.420 . S
N69 C70 1.244 . S
C70 N69 1.244 . S
H71 C74 0.929 . S
H72 C77 0.929 . S
H73 C79 0.930 . S
C74 H71 0.929 . S
C74 C75 1.398 . S
C74 C76 1.396 . S
C75 C74 1.398 . S
C75 C79 1.407 . S
C76 C74 1.396 . S
C76 C77 1.394 . S
C77 H72 0.929 . S
C77 C76 1.394 . S
C77 C78 1.382 . S
C78 C77 1.382 . S
C78 C79 1.392 . S
C78 N80 1.420 . S
C79 H73 0.930 . S
C79 C75 1.407 . S
C79 C78 1.392 . S
N80 C78 1.420 . S
N80 C81 1.244 . S
C81 N80 1.244 . S
H82 C85 0.929 . S
H83 C88 0.929 . S
H84 C90 0.930 . S
C85 H82 0.929 . S
C85 C86 1.398 . S
C85 C87 1.396 1_655 S
C86 C85 1.398 . S
C86 C90 1.407 1_655 S
C87 C85 1.396 1_455 S
C87 C88 1.394 . S
C88 H83 0.929 . S
C88 C87 1.394 . S
C88 C89 1.382 . S
C89 C88 1.382 . S
C89 C90 1.392 . S
C89 N91 1.420 . S
C90 H84 0.930 . S
C90 C86 1.407 1_455 S
C90 C89 1.392 . S
N91 C89 1.420 . S
N91 C92 1.244 . S
C92 N91 1.244 . S
H93 C96 0.929 . S
H94 C99 0.929 1_655 S
H95 C101 0.930 . S
C96 H93 0.929 . S
C96 C97 1.398 . S
C96 C98 1.396 . S
C97 C96 1.398 . S
C97 C101 1.407 . S
C98 C96 1.396 . S
C98 C99 1.394 . S
C99 H94 0.929 1_455 S
C99 C98 1.394 . S
C99 C100 1.382 . S
C100 C99 1.382 . S
C100 C101 1.392 . S
C100 N102 1.420 1_455 S
C101 H95 0.930 . S
C101 C97 1.407 . S
C101 C100 1.392 . S
N102 C100 1.420 1_655 S
N102 C103 1.244 . S
C103 N102 1.244 . S
H104 C107 0.929 . S
H105 C110 0.929 1_565 S
H106 C112 0.930 . S
C107 H104 0.929 . S
C107 C108 1.398 . S
C107 C109 1.396 . S
C108 C107 1.398 . S
C108 C112 1.407 . S
C109 C107 1.396 . S
C109 C110 1.394 . S
C110 H105 0.929 1_545 S
C110 C109 1.394 . S
C110 C111 1.382 . S
C111 C110 1.382 . S
C111 C112 1.392 . S
C111 N113 1.420 1_545 S
C112 H106 0.930 . S
C112 C108 1.407 . S
C112 C111 1.392 . S
N113 C111 1.420 1_565 S
N113 C114 1.244 . S
C114 N113 1.244 . S
H115 C118 0.929 . S
H116 C121 0.929 . S
H117 C123 0.930 . S
C118 H115 0.929 . S
C118 C119 1.398 . S
C118 C120 1.396 . S
C119 C118 1.398 . S
C119 C123 1.407 . S
C120 C118 1.396 . S
C120 C121 1.394 . S
C121 H116 0.929 . S
C121 C120 1.394 . S
C121 C122 1.382 . S
C122 C121 1.382 . S
C122 C123 1.392 . S
C122 N124 1.420 . S
C123 H117 0.930 . S
C123 C119 1.407 . S
C123 C122 1.392 . S
N124 C122 1.420 . S
N124 C125 1.244 . S
C125 N124 1.244 . S
H126 C132 0.930 . S
H127 C135 0.930 . S
H128 C136 0.930 . S
H129 C137 0.930 . S
H130 C140 0.930 . S
H131 C141 0.930 . S
C132 H126 0.930 . S
C132 C133 1.355 . S
C132 C134 1.415 . S
C133 C132 1.355 . S
C133 C135 1.419 . S
C134 C132 1.415 . S
C134 C139 1.425 . S
C134 C141 1.409 . S
C135 H127 0.930 . S
C135 C133 1.419 . S
C135 C136 1.362 . S
C136 H128 0.930 . S
C136 C135 1.362 . S
C136 C139 1.409 . S
C137 H129 0.930 . S
C137 C138 1.355 . S
C137 C139 1.415 . S
C138 C137 1.355 . S
C138 C140 1.419 . S
C139 C134 1.425 . S
C139 C136 1.409 . S
C139 C137 1.415 . S
C140 H130 0.930 . S
C140 C138 1.419 . S
C140 C141 1.362 . S
C141 H131 0.930 . S
C141 C134 1.409 . S
C141 C140 1.362 . S
H142 C148 0.930 . S
H143 C151 0.930 . S
H144 C152 0.930 . S
H145 C153 0.930 . S
H146 C156 0.930 . S
H147 C157 0.930 . S
C148 H142 0.930 . S
C148 C149 1.355 . S
C148 C150 1.415 . S
C149 C148 1.355 . S
C149 C151 1.419 . S
C150 C148 1.415 . S
C150 C155 1.425 . S
C150 C157 1.409 . S
C151 H143 0.930 . S
C151 C149 1.419 . S
C151 C152 1.362 . S
C152 H144 0.930 . S
C152 C151 1.362 . S
C152 C155 1.409 . S
C153 H145 0.930 . S
C153 C154 1.355 . S
C153 C155 1.415 . S
C154 C153 1.355 . S
C154 C156 1.419 . S
C155 C150 1.425 . S
C155 C152 1.409 . S
C155 C153 1.415 . S
C156 H146 0.930 . S
C156 C154 1.419 . S
C156 C157 1.362 . S
C157 H147 0.930 . S
C157 C150 1.409 . S
C157 C156 1.362 . S
H158 C164 0.930 . S
H159 C167 0.930 . S
H160 C168 0.930 . S
H161 C169 0.930 . S
H162 C172 0.930 . S
H163 C173 0.930 . S
C164 H158 0.930 . S
C164 C165 1.355 . S
C164 C166 1.415 . S
C165 C164 1.355 . S
C165 C167 1.419 . S
C166 C164 1.415 . S
C166 C171 1.425 . S
C166 C173 1.409 . S
C167 H159 0.930 . S
C167 C165 1.419 . S
C167 C168 1.362 . S
C168 H160 0.930 . S
C168 C167 1.362 . S
C168 C171 1.409 . S
C169 H161 0.930 . S
C169 C170 1.355 . S
C169 C171 1.415 . S
C170 C169 1.355 . S
C170 C172 1.419 . S
C171 C166 1.425 . S
C171 C168 1.409 . S
C171 C169 1.415 . S
C172 H162 0.930 . S
C172 C170 1.419 . S
C172 C173 1.362 . S
C173 H163 0.930 . S
C173 C166 1.409 . S
C173 C172 1.362 . S
H174 C180 0.930 . S
H175 C183 0.930 . S
H176 C184 0.930 . S
H177 C185 0.930 . S
H178 C188 0.930 . S
H179 C189 0.930 . S
C180 H174 0.930 . S
C180 C181 1.355 . S
C180 C182 1.415 . S
C181 C180 1.355 . S
C181 C183 1.419 . S
C182 C180 1.415 . S
C182 C187 1.425 . S
C182 C189 1.409 . S
C183 H175 0.930 . S
C183 C181 1.419 . S
C183 C184 1.362 . S
C184 H176 0.930 . S
C184 C183 1.362 . S
C184 C187 1.409 . S
C185 H177 0.930 . S
C185 C186 1.355 . S
C185 C187 1.415 . S
C186 C185 1.355 . S
C186 C188 1.419 . S
C187 C182 1.425 . S
C187 C184 1.409 . S
C187 C185 1.415 . S
C188 H178 0.930 . S
C188 C186 1.419 . S
C188 C189 1.362 . S
C189 H179 0.930 . S
C189 C182 1.409 . S
C189 C188 1.362 . S
H190 C196 0.930 . S
H191 C199 0.930 . S
H192 C200 0.930 . S
H193 C201 0.930 . S
H194 C204 0.930 . S
H195 C205 0.930 . S
C196 H190 0.930 . S
C196 C197 1.355 . S
C196 C198 1.415 . S
C197 C196 1.355 . S
C197 C199 1.419 . S
C198 C196 1.415 . S
C198 C203 1.425 . S
C198 C205 1.409 . S
C199 H191 0.930 . S
C199 C197 1.419 . S
C199 C200 1.362 . S
C200 H192 0.930 . S
C200 C199 1.362 . S
C200 C203 1.409 . S
C201 H193 0.930 . S
C201 C202 1.355 . S
C201 C203 1.415 . S
C202 C201 1.355 . S
C202 C204 1.419 . S
C203 C198 1.425 . S
C203 C200 1.409 . S
C203 C201 1.415 . S
C204 H194 0.930 . S
C204 C202 1.419 . S
C204 C205 1.362 . S
C205 H195 0.930 . S
C205 C198 1.409 . S
C205 C204 1.362 . S
H206 C212 0.930 . S
H207 C215 0.930 . S
H208 C216 0.930 . S
H209 C217 0.930 . S
H210 C220 0.930 . S
H211 C221 0.930 . S
C212 H206 0.930 . S
C212 C213 1.355 . S
C212 C214 1.415 . S
C213 C212 1.355 . S
C213 C215 1.419 . S
C214 C212 1.415 . S
C214 C219 1.425 . S
C214 C221 1.409 . S
C215 H207 0.930 . S
C215 C213 1.419 . S
C215 C216 1.362 . S
C216 H208 0.930 . S
C216 C215 1.362 . S
C216 C219 1.409 . S
C217 H209 0.930 . S
C217 C218 1.355 . S
C217 C219 1.415 . S
C218 C217 1.355 . S
C218 C220 1.419 . S
C219 C214 1.425 . S
C219 C216 1.409 . S
C219 C217 1.415 . S
C220 H210 0.930 . S
C220 C218 1.419 . S
C220 C221 1.362 . S
C221 H211 0.930 . S
C221 C214 1.409 . S
C221 C220 1.362 . S
H222 C228 0.930 . S
H223 C231 0.930 . S
H224 C232 0.930 . S
H225 C233 0.930 . S
H226 C236 0.930 . S
H227 C237 0.930 . S
C228 H222 0.930 . S
C228 C229 1.355 . S
C228 C230 1.415 . S
C229 C228 1.355 . S
C229 C231 1.419 . S
C230 C228 1.415 . S
C230 C235 1.425 . S
C230 C237 1.409 . S
C231 H223 0.930 . S
C231 C229 1.419 . S
C231 C232 1.362 . S
C232 H224 0.930 . S
C232 C231 1.362 . S
C232 C235 1.409 . S
C233 H225 0.930 . S
C233 C234 1.355 . S
C233 C235 1.415 . S
C234 C233 1.355 . S
C234 C236 1.419 . S
C235 C230 1.425 . S
C235 C232 1.409 . S
C235 C233 1.415 . S
C236 H226 0.930 . S
C236 C234 1.419 . S
C236 C237 1.362 . S
C237 H227 0.930 . S
C237 C230 1.409 . S
C237 C236 1.362 . S
H238 C244 0.930 . S
H239 C247 0.930 . S
H240 C248 0.930 . S
H241 C249 0.930 . S
H242 C252 0.930 . S
H243 C253 0.930 . S
C244 H238 0.930 . S
C244 C245 1.355 . S
C244 C246 1.415 . S
C245 C244 1.355 . S
C245 C247 1.419 . S
C246 C244 1.415 . S
C246 C251 1.425 . S
C246 C253 1.409 . S
C247 H239 0.930 . S
C247 C245 1.419 . S
C247 C248 1.362 . S
C248 H240 0.930 . S
C248 C247 1.362 . S
C248 C251 1.409 . S
C249 H241 0.930 . S
C249 C250 1.355 . S
C249 C251 1.415 . S
C250 C249 1.355 . S
C250 C252 1.419 . S
C251 C246 1.425 . S
C251 C248 1.409 . S
C251 C249 1.415 . S
C252 H242 0.930 . S
C252 C250 1.419 . S
C252 C253 1.362 . S
C253 H243 0.930 . S
C253 C246 1.409 . S
C253 C252 1.362 . S
H254 C260 0.930 . S
H255 C263 0.930 . S
H256 C264 0.930 . S
H257 C265 0.930 . S
H258 C268 0.930 . S
H259 C269 0.930 . S
C260 H254 0.930 . S
C260 C261 1.355 . S
C260 C262 1.415 . S
C261 C260 1.355 . S
C261 C263 1.419 . S
C262 C260 1.415 . S
C262 C267 1.425 . S
C262 C269 1.409 . S
C263 H255 0.930 . S
C263 C261 1.419 . S
C263 C264 1.362 . S
C264 H256 0.930 . S
C264 C263 1.362 . S
C264 C267 1.409 . S
C265 H257 0.930 . S
C265 C266 1.355 . S
C265 C267 1.415 . S
C266 C265 1.355 . S
C266 C268 1.419 . S
C267 C262 1.425 . S
C267 C264 1.409 . S
C267 C265 1.415 . S
C268 H258 0.930 . S
C268 C266 1.419 . S
C268 C269 1.362 . S
C269 H259 0.930 . S
C269 C262 1.409 . S
C269 C268 1.362 . S
H270 C276 0.930 . S
H271 C279 0.930 . S
H272 C280 0.930 . S
H273 C281 0.930 . S
H274 C284 0.930 . S
H275 C285 0.930 . S
C276 H270 0.930 . S
C276 C277 1.355 . S
C276 C278 1.415 . S
C277 C276 1.355 . S
C277 C279 1.419 . S
C278 C276 1.415 . S
C278 C283 1.425 . S
C278 C285 1.409 . S
C279 H271 0.930 . S
C279 C277 1.419 . S
C279 C280 1.362 . S
C280 H272 0.930 . S
C280 C279 1.362 . S
C280 C283 1.409 . S
C281 H273 0.930 . S
C281 C282 1.355 . S
C281 C283 1.415 . S
C282 C281 1.355 . S
C282 C284 1.419 . S
C283 C278 1.425 . S
C283 C280 1.409 . S
C283 C281 1.415 . S
C284 H274 0.930 . S
C284 C282 1.419 . S
C284 C285 1.362 . S
C285 H275 0.930 . S
C285 C278 1.409 . S
C285 C284 1.362 . S
H286 C292 0.930 . S
H287 C295 0.930 . S
H288 C296 0.930 . S
H289 C297 0.930 . S
H290 C300 0.930 . S
H291 C301 0.930 . S
C292 H286 0.930 . S
C292 C293 1.355 . S
C292 C294 1.415 . S
C293 C292 1.355 . S
C293 C295 1.419 . S
C294 C292 1.415 . S
C294 C299 1.425 . S
C294 C301 1.409 . S
C295 H287 0.930 . S
C295 C293 1.419 . S
C295 C296 1.362 . S
C296 H288 0.930 . S
C296 C295 1.362 . S
C296 C299 1.409 . S
C297 H289 0.930 . S
C297 C298 1.355 . S
C297 C299 1.415 . S
C298 C297 1.355 . S
C298 C300 1.419 . S
C299 C294 1.425 . S
C299 C296 1.409 . S
C299 C297 1.415 . S
C300 H290 0.930 . S
C300 C298 1.419 . S
C300 C301 1.362 . S
C301 H291 0.930 . S
C301 C294 1.409 . S
C301 C300 1.362 . S
H302 C308 0.930 . S
H303 C311 0.930 . S
H304 C312 0.930 . S
H305 C313 0.930 . S
H306 C316 0.930 . S
H307 C317 0.930 . S
C308 H302 0.930 . S
C308 C309 1.355 . S
C308 C310 1.415 . S
C309 C308 1.355 . S
C309 C311 1.419 . S
C310 C308 1.415 . S
C310 C315 1.425 . S
C310 C317 1.409 . S
C311 H303 0.930 . S
C311 C309 1.419 . S
C311 C312 1.362 . S
C312 H304 0.930 . S
C312 C311 1.362 . S
C312 C315 1.409 . S
C313 H305 0.930 . S
C313 C314 1.355 . S
C313 C315 1.415 . S
C314 C313 1.355 . S
C314 C316 1.419 . S
C315 C310 1.425 . S
C315 C312 1.409 . S
C315 C313 1.415 . S
C316 H306 0.930 . S
C316 C314 1.419 . S
C316 C317 1.362 . S
C317 H307 0.930 . S
C317 C310 1.409 . S
C317 C316 1.362 . S
H318 C324 0.930 . S
H319 C327 0.930 . S
H320 C328 0.930 . S
H321 C329 0.930 . S
H322 C332 0.930 . S
H323 C333 0.930 . S
C324 H318 0.930 . S
C324 C325 1.355 1_655 S
C324 C326 1.413 1_655 S
C325 C324 1.355 1_455 S
C325 C327 1.419 . S
C326 C324 1.413 1_455 S
C326 C331 1.431 . S
C326 C333 1.406 1_454 S
C327 H319 0.930 . S
C327 C325 1.419 . S
C327 C328 1.362 . S
C328 H320 0.930 . S
C328 C327 1.362 . S
C328 C331 1.409 . S
C329 H321 0.930 . S
C329 C330 1.355 . S
C329 C331 1.415 1_556 S
C330 C329 1.355 . S
C330 C332 1.419 1_455 S
C331 C326 1.431 . S
C331 C328 1.409 . S
C331 C329 1.415 1_554 S
C332 H322 0.930 . S
C332 C330 1.419 1_655 S
C332 C333 1.362 . S
C333 H323 0.930 . S
C333 C326 1.406 1_656 S
C333 C332 1.362 . S
H334 C340 0.930 1_565 S
H335 C343 0.930 . S
H336 C344 0.930 . S
H337 C345 0.930 . S
H338 C348 0.930 1_565 S
H339 C349 0.930 . S
C340 H334 0.930 1_545 S
C340 C341 1.355 . S
C340 C342 1.415 . S
C341 C340 1.355 . S
C341 C343 1.419 . S
C342 C340 1.415 . S
C342 C347 1.425 . S
C342 C349 1.409 1_545 S
C343 H335 0.930 . S
C343 C341 1.419 . S
C343 C344 1.362 . S
C344 H336 0.930 . S
C344 C343 1.362 . S
C344 C347 1.409 . S
C345 H337 0.930 . S
C345 C346 1.355 . S
C345 C347 1.415 . S
C346 C345 1.355 . S
C346 C348 1.419 . S
C347 C342 1.425 . S
C347 C344 1.409 . S
C347 C345 1.415 . S
C348 H338 0.930 1_545 S
C348 C346 1.419 . S
C348 C349 1.362 1_545 S
C349 H339 0.930 . S
C349 C342 1.409 1_565 S
C349 C348 1.362 1_565 S
H350 C356 0.930 . S
H351 C359 0.930 . S
H352 C360 0.930 . S
H353 C361 0.930 . S
H354 C364 0.930 . S
H355 C365 0.930 . S
C356 H350 0.930 . S
C356 C357 1.355 . S
C356 C358 1.415 . S
C357 C356 1.355 . S
C357 C359 1.419 . S
C358 C356 1.415 . S
C358 C363 1.425 . S
C358 C365 1.409 . S
C359 H351 0.930 . S
C359 C357 1.419 . S
C359 C360 1.362 . S
C360 H352 0.930 . S
C360 C359 1.362 . S
C360 C363 1.409 . S
C361 H353 0.930 . S
C361 C362 1.355 . S
C361 C363 1.415 . S
C362 C361 1.355 . S
C362 C364 1.419 . S
C363 C358 1.425 . S
C363 C360 1.409 . S
C363 C361 1.415 . S
C364 H354 0.930 . S
C364 C362 1.419 . S
C364 C365 1.362 . S
C365 H355 0.930 . S
C365 C358 1.409 . S
C365 C364 1.362 . S
H366 C372 0.930 . S
H367 C375 0.930 . S
H368 C376 0.930 . S
H369 C377 0.930 . S
H370 C380 0.930 . S
H371 C381 0.930 . S
C372 H366 0.930 . S
C372 C373 1.355 . S
C372 C374 1.415 . S
C373 C372 1.355 . S
C373 C375 1.419 . S
C374 C372 1.415 . S
C374 C379 1.425 . S
C374 C381 1.409 . S
C375 H367 0.930 . S
C375 C373 1.419 . S
C375 C376 1.362 . S
C376 H368 0.930 . S
C376 C375 1.362 . S
C376 C379 1.409 . S
C377 H369 0.930 . S
C377 C378 1.355 . S
C377 C379 1.415 . S
C378 C377 1.355 . S
C378 C380 1.419 . S
C379 C374 1.425 . S
C379 C376 1.409 . S
C379 C377 1.415 . S
C380 H370 0.930 . S
C380 C378 1.419 . S
C380 C381 1.362 . S
C381 H371 0.930 . S
C381 C374 1.409 . S
C381 C380 1.362 . S
H382 C388 0.930 . S
H383 C391 0.930 . S
H384 C392 0.930 . S
H385 C393 0.930 . S
H386 C396 0.930 . S
H387 C397 0.930 . S
C388 H382 0.930 . S
C388 C389 1.355 . S
C388 C390 1.415 . S
C389 C388 1.355 . S
C389 C391 1.419 . S
C390 C388 1.415 . S
C390 C395 1.425 . S
C390 C397 1.409 . S
C391 H383 0.930 . S
C391 C389 1.419 . S
C391 C392 1.362 . S
C392 H384 0.930 . S
C392 C391 1.362 . S
C392 C395 1.409 . S
C393 H385 0.930 . S
C393 C394 1.355 . S
C393 C395 1.415 1_554 S
C394 C393 1.355 . S
C394 C396 1.419 . S
C395 C390 1.425 . S
C395 C392 1.409 . S
C395 C393 1.415 1_556 S
C396 H386 0.930 . S
C396 C394 1.419 . S
C396 C397 1.362 1_554 S
C397 H387 0.930 . S
C397 C390 1.409 . S
C397 C396 1.362 1_556 S
H398 C404 0.930 . S
H399 C407 0.930 . S
H400 C408 0.930 . S
H401 C409 0.930 . S
H402 C412 0.930 . S
H403 C413 0.930 . S
C404 H398 0.930 . S
C404 C405 1.355 . S
C404 C406 1.415 . S
C405 C404 1.355 . S
C405 C407 1.419 . S
C406 C404 1.415 . S
C406 C411 1.425 . S
C406 C413 1.409 . S
C407 H399 0.930 . S
C407 C405 1.419 . S
C407 C408 1.362 . S
C408 H400 0.930 . S
C408 C407 1.362 . S
C408 C411 1.409 . S
C409 H401 0.930 . S
C409 C410 1.355 . S
C409 C411 1.415 . S
C410 C409 1.355 . S
C410 C412 1.419 . S
C411 C406 1.425 . S
C411 C408 1.409 . S
C411 C409 1.415 . S
C412 H402 0.930 . S
C412 C410 1.419 . S
C412 C413 1.362 . S
C413 H403 0.930 . S
C413 C406 1.409 . S
C413 C412 1.362 . S
C133 C2 1.426 . S
C138 C125 1.525 . S
C149 C22 1.454 . S
C154 C103 1.505 . S
C165 C44 1.463 . S
C170 C114 1.506 . S
C181 C4 1.389 . S
C186 C119 1.544 . S
C202 C97 1.547 . S
C197 C24 1.422 . S
C218 C108 1.485 . S
C213 C42 1.450 . S
C229 C32 1.391 . S
C234 C81 1.394 . S
C245 C49 1.217 . S
C250 C86 1.225 . S
C261 C9 1.218 . S
C266 C64 1.196 . S
C282 C75 1.199 . S
C277 C29 1.134 . S
C298 C92 1.317 . S
C293 C52 1.353 . S
C309 C12 1.362 . S
C314 C70 1.320 . S
C330 C87 1.469 . S
C325 C18 1.503 . S
C341 C38 1.476 . S
C346 C65 1.454 . S
C357 C58 1.441 . S
C362 C76 1.486 . S
C378 C109 1.511 . S
C373 C39 1.483 . S
C394 C120 1.534 . S
C389 C59 1.506 . S
C405 C19 1.479 . S
C410 C98 1.524 . S
