# Generated by pormake.
# Topology pyr, (3,6)-cn, num edge types: 1
# Building blocks:
#     Node 0, Type 0, BuildingBlock: BELTOD_clean_linker_0, # of connection points: 3
#     Node 1, Type 0, BuildingBlock: BELTOD_clean_linker_0, # of connection points: 3
#     Node 2, Type 0, BuildingBlock: BELTOD_clean_linker_0, # of connection points: 3
#     Node 3, Type 0, BuildingBlock: BELTOD_clean_linker_0, # of connection points: 3
#     Node 4, Type 0, BuildingBlock: BELTOD_clean_linker_0, # of connection points: 3
#     Node 5, Type 0, BuildingBlock: BELTOD_clean_linker_0, # of connection points: 3
#     Node 6, Type 0, BuildingBlock: BELTOD_clean_linker_0, # of connection points: 3
#     Node 7, Type 0, BuildingBlock: BELTOD_clean_linker_0, # of connection points: 3
#     Node 8, Type 1, BuildingBlock: BETGAK_clean_sbu_0, # of connection points: 6
#     Node 9, Type 1, BuildingBlock: BETGAK_clean_sbu_0, # of connection points: 6
#     Node 10, Type 1, BuildingBlock: BETGAK_clean_sbu_0, # of connection points: 6
#     Node 11, Type 1, BuildingBlock: BETGAK_clean_sbu_0, # of connection points: 6
#     Edge 12, Type (0, 1), BuildingBlock: XIVTED_clean_linker_0, # of connection points: 2
#     Edge 13, Type (0, 1), BuildingBlock: XIVTED_clean_linker_0, # of connection points: 2
#     Edge 14, Type (0, 1), BuildingBlock: XIVTED_clean_linker_0, # of connection points: 2
#     Edge 15, Type (0, 1), BuildingBlock: XIVTED_clean_linker_0, # of connection points: 2
#     Edge 16, Type (0, 1), BuildingBlock: XIVTED_clean_linker_0, # of connection points: 2
#     Edge 17, Type (0, 1), BuildingBlock: XIVTED_clean_linker_0, # of connection points: 2
#     Edge 18, Type (0, 1), BuildingBlock: XIVTED_clean_linker_0, # of connection points: 2
#     Edge 19, Type (0, 1), BuildingBlock: XIVTED_clean_linker_0, # of connection points: 2
#     Edge 20, Type (0, 1), BuildingBlock: XIVTED_clean_linker_0, # of connection points: 2
#     Edge 21, Type (0, 1), BuildingBlock: XIVTED_clean_linker_0, # of connection points: 2
#     Edge 22, Type (0, 1), BuildingBlock: XIVTED_clean_linker_0, # of connection points: 2
#     Edge 23, Type (0, 1), BuildingBlock: XIVTED_clean_linker_0, # of connection points: 2
#     Edge 24, Type (0, 1), BuildingBlock: XIVTED_clean_linker_0, # of connection points: 2
#     Edge 25, Type (0, 1), BuildingBlock: XIVTED_clean_linker_0, # of connection points: 2
#     Edge 26, Type (0, 1), BuildingBlock: XIVTED_clean_linker_0, # of connection points: 2
#     Edge 27, Type (0, 1), BuildingBlock: XIVTED_clean_linker_0, # of connection points: 2
#     Edge 28, Type (0, 1), BuildingBlock: XIVTED_clean_linker_0, # of connection points: 2
#     Edge 29, Type (0, 1), BuildingBlock: XIVTED_clean_linker_0, # of connection points: 2
#     Edge 30, Type (0, 1), BuildingBlock: XIVTED_clean_linker_0, # of connection points: 2
#     Edge 31, Type (0, 1), BuildingBlock: XIVTED_clean_linker_0, # of connection points: 2
#     Edge 32, Type (0, 1), BuildingBlock: XIVTED_clean_linker_0, # of connection points: 2
#     Edge 33, Type (0, 1), BuildingBlock: XIVTED_clean_linker_0, # of connection points: 2
#     Edge 34, Type (0, 1), BuildingBlock: XIVTED_clean_linker_0, # of connection points: 2
#     Edge 35, Type (0, 1), BuildingBlock: XIVTED_clean_linker_0, # of connection points: 2
# Relax obj value: 0.105
# Max RMSD: 0.124
# Mean RMSD: 0.059
data_MOF--net-pyr--node1-BETGAK_clean_sbu_0--node2-BELTOD_clean_linker_0--edge1-XIVTED_clean_linker_0
_symmetry_space_group_name_H-M    P1
_symmetry_Int_Tables_number       1
_symmetry_cell_setting            triclinic
loop_
_symmetry_equiv_pos_as_xyz
'x, y, z'
_cell_length_a     43.957277
_cell_length_b     45.887293
_cell_length_c     40.465741
_cell_angle_alpha  90.29894
_cell_angle_beta   88.682944
_cell_angle_gamma 101.89343
loop_
_atom_site_label
_atom_site_type_symbol
_atom_site_fract_x
_atom_site_fract_y
_atom_site_fract_z
_atom_type_partial_charge
P0 P 0.3569 0.32834 0.26708 0.0
H1 H 0.37874 0.31503 0.20041 0.0
H2 H 0.39422 0.27082 0.17684 0.0
H3 H 0.38015 0.2281 0.27237 0.0
H4 H 0.364 0.27193 0.29563 0.0
H5 H 0.35354 0.39091 0.26377 0.0
H6 H 0.32072 0.41715 0.23228 0.0
H7 H 0.28646 0.33679 0.1769 0.0
H8 H 0.31951 0.3109 0.20813 0.0
H9 H 0.35819 0.32786 0.33982 0.0
H10 H 0.2914 0.29968 0.26362 0.0
O11 O 0.38768 0.3506 0.28356 0.0
H12 H 0.31834 0.30819 0.38207 0.0
H13 H 0.25179 0.28063 0.3053 0.0
C14 C 0.36906 0.29633 0.24947 0.0
C15 C 0.37849 0.29599 0.21616 0.0
C16 C 0.38742 0.27079 0.20275 0.0
C17 C 0.38803 0.24596 0.22274 0.0
C18 C 0.3798 0.24689 0.25641 0.0
C19 C 0.37038 0.27187 0.26964 0.0
C20 C 0.33948 0.34912 0.23789 0.0
C21 C 0.33978 0.37924 0.24406 0.0
C22 C 0.32077 0.39414 0.22626 0.0
C23 C 0.30085 0.37902 0.2022 0.0
C24 C 0.30187 0.34924 0.19487 0.0
C25 C 0.32087 0.33439 0.21271 0.0
C26 C 0.3276 0.31585 0.29859 0.0
C27 C 0.3349 0.31794 0.33219 0.0
C28 C 0.31218 0.30667 0.35627 0.0
C29 C 0.28183 0.29334 0.34698 0.0
C30 C 0.27471 0.29149 0.31329 0.0
C31 C 0.29744 0.30236 0.28936 0.0
P32 P 0.37393 0.96263 0.59435 0.0
H33 H 0.42983 0.97395 0.63438 0.0
H34 H 0.43878 0.9619 0.69164 0.0
H35 H 0.34008 0.92705 0.70583 0.0
H36 H 0.33201 0.93705 0.64832 0.0
H37 H 0.42421 0.93788 0.56443 0.0
H38 H 0.42906 0.88625 0.5556 0.0
H39 H 0.33155 0.85648 0.58066 0.0
H40 H 0.32709 0.90785 0.59025 0.0
H41 H 0.33525 0.99504 0.6344 0.0
H42 H 0.33113 0.95181 0.53928 0.0
O43 O 0.40205 0.98892 0.57789 0.0
H44 H 0.28101 0.99884 0.63037 0.0
H45 H 0.27728 0.95694 0.53411 0.0
C46 C 0.38007 0.95768 0.63755 0.0
C47 C 0.41015 0.96408 0.65007 0.0
C48 C 0.41519 0.95711 0.68286 0.0
C49 C 0.39016 0.9436 0.70369 0.0
C50 C 0.36009 0.937 0.69068 0.0
C51 C 0.35526 0.94342 0.65784 0.0
C52 C 0.37518 0.92674 0.5773 0.0
C53 C 0.40365 0.92031 0.56676 0.0
C54 C 0.40638 0.89079 0.56174 0.0
C55 C 0.38071 0.86735 0.56767 0.0
C56 C 0.35177 0.87408 0.57617 0.0
C57 C 0.34912 0.90351 0.58125 0.0
C58 C 0.33664 0.9718 0.58787 0.0
C59 C 0.32273 0.98666 0.61244 0.0
C60 C 0.29172 0.98906 0.60994 0.0
C61 C 0.27442 0.97741 0.58231 0.0
C62 C 0.28952 0.96511 0.55631 0.0
C63 C 0.32041 0.96242 0.55906 0.0
P64 P 0.66443 0.34622 0.85329 0.0
H65 H 0.7259 0.33534 0.86583 0.0
H66 H 0.76928 0.36067 0.89845 0.0
H67 H 0.71502 0.42424 0.93157 0.0
H68 H 0.67144 0.39866 0.89814 0.0
H69 H 0.65474 0.28141 0.84584 0.0
H70 H 0.62581 0.23973 0.87795 0.0
H71 H 0.59433 0.30114 0.94543 0.0
H72 H 0.62329 0.34314 0.9125 0.0
H73 H 0.67832 0.40928 0.83302 0.0
H74 H 0.60196 0.33389 0.82612 0.0
O75 O 0.68149 0.33157 0.82186 0.0
H76 H 0.65217 0.43748 0.79573 0.0
H77 H 0.57588 0.36182 0.78839 0.0
C78 C 0.69565 0.36552 0.87879 0.0
C79 C 0.72327 0.35481 0.87996 0.0
C80 C 0.74807 0.36922 0.89898 0.0
C81 C 0.74586 0.39465 0.9177 0.0
C82 C 0.71779 0.40501 0.91709 0.0
C83 C 0.6928 0.39039 0.89804 0.0
C84 C 0.64115 0.31555 0.87661 0.0
C85 C 0.64155 0.28609 0.86741 0.0
C86 C 0.62512 0.26211 0.88608 0.0
C87 C 0.60784 0.26689 0.91457 0.0
C88 C 0.60716 0.29652 0.92354 0.0
C89 C 0.62375 0.3206 0.90478 0.0
C90 C 0.64169 0.36971 0.83347 0.0
C91 C 0.65541 0.39911 0.82452 0.0
C92 C 0.6405 0.4152 0.80289 0.0
C93 C 0.61191 0.40194 0.7889 0.0
C94 C 0.59793 0.3727 0.7985 0.0
C95 C 0.61266 0.3568 0.82048 0.0
P96 P 0.81893 0.69826 0.35328 0.0
H97 H 0.86287 0.75044 0.32859 0.0
H98 H 0.89404 0.79386 0.35549 0.0
H99 H 0.86461 0.75484 0.45098 0.0
H100 H 0.83489 0.71083 0.42368 0.0
H101 H 0.79595 0.6542 0.30296 0.0
H102 H 0.82123 0.62513 0.26443 0.0
H103 H 0.9096 0.6602 0.30906 0.0
H104 H 0.88397 0.68935 0.34769 0.0
H105 H 0.7797 0.7202 0.40221 0.0
H106 H 0.7887 0.63447 0.36405 0.0
O107 O 0.80096 0.71578 0.32619 0.0
H108 H 0.73416 0.69686 0.43475 0.0
H109 H 0.74163 0.61097 0.39478 0.0
C110 C 0.84599 0.72756 0.37402 0.0
C111 C 0.86352 0.75104 0.35533 0.0
C112 C 0.88109 0.77612 0.37086 0.0
C113 C 0.88145 0.77848 0.40561 0.0
C114 C 0.8651 0.75406 0.42424 0.0
C115 C 0.84778 0.72881 0.4086 0.0
C116 C 0.8379 0.67377 0.32852 0.0
C117 C 0.82069 0.65524 0.30491 0.0
C118 C 0.83523 0.63857 0.28281 0.0
C119 C 0.86755 0.64024 0.28348 0.0
C120 C 0.88474 0.65856 0.30755 0.0
C121 C 0.87005 0.67509 0.3299 0.0
C122 C 0.7881 0.67921 0.38091 0.0
C123 C 0.77207 0.69623 0.40107 0.0
C124 C 0.7455 0.68278 0.4193 0.0
C125 C 0.73349 0.65189 0.41715 0.0
C126 C 0.75007 0.63472 0.39743 0.0
C127 C 0.77708 0.64824 0.37957 0.0
P128 P 0.69313 0.8223 0.88559 0.0
H129 H 0.66356 0.8055 0.94983 0.0
H130 H 0.61985 0.82197 0.97693 0.0
H131 H 0.59563 0.85513 0.8834 0.0
H132 H 0.63831 0.83756 0.8565 0.0
H133 H 0.75818 0.82382 0.89371 0.0
H134 H 0.78763 0.78632 0.90723 0.0
H135 H 0.70206 0.72092 0.91954 0.0
H136 H 0.67236 0.75922 0.90613 0.0
H137 H 0.69876 0.8708 0.83867 0.0
H138 H 0.69329 0.77594 0.83495 0.0
O139 O 0.71321 0.8549 0.89913 0.0
H140 H 0.71554 0.87506 0.78109 0.0
H141 H 0.70968 0.77985 0.77666 0.0
C142 C 0.65419 0.82022 0.90115 0.0
C143 C 0.64779 0.81481 0.93487 0.0
C144 C 0.62301 0.82465 0.95041 0.0
C145 C 0.60475 0.84065 0.93252 0.0
C146 C 0.60909 0.84289 0.89802 0.0
C147 C 0.63369 0.8328 0.88251 0.0
C148 C 0.71312 0.79444 0.89973 0.0
C149 C 0.74563 0.80156 0.89985 0.0
C150 C 0.76249 0.77996 0.90713 0.0
C151 C 0.74719 0.75058 0.91413 0.0
C152 C 0.71445 0.74345 0.91441 0.0
C153 C 0.69748 0.76525 0.90691 0.0
C154 C 0.69588 0.82326 0.84126 0.0
C155 C 0.70033 0.85073 0.82511 0.0
C156 C 0.70962 0.85304 0.79192 0.0
C157 C 0.71455 0.82782 0.77429 0.0
C158 C 0.70672 0.79977 0.78973 0.0
C159 C 0.69736 0.79751 0.82304 0.0
P160 P 0.8369 0.27768 0.42165 0.0
H161 H 0.83086 0.33473 0.45154 0.0
H162 H 0.78666 0.35109 0.47789 0.0
H163 H 0.73282 0.26102 0.47314 0.0
H164 H 0.77654 0.24521 0.44563 0.0
H165 H 0.89213 0.25501 0.40527 0.0
H166 H 0.91192 0.21282 0.42602 0.0
H167 H 0.83956 0.19859 0.50201 0.0
H168 H 0.82126 0.24163 0.4824 0.0
H169 H 0.81815 0.30117 0.36011 0.0
H170 H 0.81186 0.21519 0.40542 0.0
O171 O 0.86381 0.30734 0.4102 0.0
H172 H 0.7867 0.27747 0.31431 0.0
H173 H 0.78018 0.1916 0.36049 0.0
C174 C 0.80686 0.28883 0.44646 0.0
C175 C 0.80968 0.31846 0.45661 0.0
C176 C 0.78445 0.32773 0.47192 0.0
C177 C 0.7561 0.30739 0.47734 0.0
C178 C 0.75411 0.27735 0.46878 0.0
C179 C 0.77917 0.26824 0.45321 0.0
C180 C 0.85525 0.2515 0.4422 0.0
C181 C 0.88114 0.24329 0.42699 0.0
C182 C 0.89209 0.21886 0.43858 0.0
C183 C 0.87696 0.20191 0.46532 0.0
C184 C 0.85191 0.21116 0.48149 0.0
C185 C 0.84123 0.2358 0.47008 0.0
C186 C 0.81802 0.25992 0.38571 0.0
C187 C 0.81052 0.27717 0.35987 0.0
C188 C 0.79228 0.26363 0.33394 0.0
C189 C 0.78101 0.23261 0.33368 0.0
C190 C 0.78899 0.21543 0.3595 0.0
C191 C 0.80719 0.22897 0.38531 0.0
P192 P 0.35745 0.69599 0.2165 0.0
H193 H 0.30826 0.72102 0.18524 0.0
H194 H 0.25723 0.69796 0.16497 0.0
H195 H 0.26569 0.61428 0.2086 0.0
H196 H 0.31748 0.63733 0.22742 0.0
H197 H 0.37075 0.7282 0.15443 0.0
H198 H 0.38843 0.78054 0.1402 0.0
H199 H 0.38659 0.80379 0.24376 0.0
H200 H 0.36939 0.75081 0.25782 0.0
H201 H 0.41839 0.69376 0.24144 0.0
H202 H 0.32431 0.67636 0.28024 0.0
O203 O 0.3768 0.6789 0.18916 0.0
H204 H 0.43587 0.67397 0.29187 0.0
H205 H 0.34158 0.65598 0.33087 0.0
C206 C 0.31672 0.68112 0.20847 0.0
C207 C 0.29901 0.69786 0.19103 0.0
C208 C 0.26956 0.68453 0.17942 0.0
C209 C 0.25704 0.65404 0.18486 0.0
C210 C 0.27454 0.63763 0.20331 0.0
C211 C 0.30408 0.65094 0.21466 0.0
C212 C 0.36906 0.73546 0.20721 0.0
C213 C 0.37413 0.74453 0.17414 0.0
C214 C 0.38403 0.77465 0.16599 0.0
C215 C 0.38902 0.79669 0.19074 0.0
C216 C 0.38343 0.78753 0.22399 0.0
C217 C 0.37342 0.75721 0.23212 0.0
C218 C 0.36996 0.68612 0.25669 0.0
C219 C 0.40148 0.68591 0.26098 0.0
C220 C 0.41143 0.67431 0.28982 0.0
C221 C 0.3901 0.66274 0.31533 0.0
C222 C 0.3587 0.6646 0.31179 0.0
C223 C 0.34873 0.67618 0.28273 0.0
P224 P 0.16429 0.35301 0.75844 0.0
H225 H 0.18702 0.32288 0.70243 0.0
H226 H 0.16476 0.27904 0.67031 0.0
H227 H 0.07716 0.27289 0.72314 0.0
H228 H 0.0998 0.31708 0.75543 0.0
H229 H 0.22955 0.3783 0.77243 0.0
H230 H 0.27214 0.40725 0.73951 0.0
H231 H 0.20847 0.4134 0.66122 0.0
H232 H 0.16595 0.38347 0.69426 0.0
H233 H 0.12012 0.33437 0.81314 0.0
H234 H 0.1549 0.41525 0.75867 0.0
O235 O 0.18195 0.33546 0.78582 0.0
H236 H 0.09261 0.36152 0.85174 0.0
H237 H 0.12823 0.4428 0.79766 0.0
C238 C 0.14496 0.32396 0.73091 0.0
C239 C 0.16274 0.31271 0.70657 0.0
C240 C 0.14994 0.28743 0.68814 0.0
C241 C 0.11905 0.27227 0.69392 0.0
C242 C 0.10109 0.28379 0.7181 0.0
C243 C 0.11395 0.30932 0.73645 0.0
C244 C 0.1946 0.37828 0.73563 0.0
C245 C 0.22463 0.38602 0.74829 0.0
C246 C 0.24905 0.40285 0.72941 0.0
C247 C 0.244 0.41261 0.69743 0.0
C248 C 0.21347 0.40585 0.68542 0.0
C249 C 0.18903 0.38893 0.70439 0.0
C250 C 0.13948 0.37259 0.78274 0.0
C251 C 0.12146 0.35792 0.80914 0.0
C252 C 0.10605 0.37364 0.83156 0.0
C253 C 0.10836 0.40459 0.82829 0.0
C254 C 0.12557 0.41902 0.80101 0.0
C255 C 0.14096 0.40321 0.77855 0.0
La256 La 0.02951 1.03289 0.51639 0.0
La257 La 0.99964 1.0097 0.58031 0.0
C258 C 0.05346 0.06157 0.46603 0.0
C259 C 0.07286 0.09101 0.45879 0.0
C260 C 0.09828 0.0924 0.43693 0.0
C261 C 0.1199 0.11895 0.43254 0.0
C262 C 0.11633 0.14473 0.44969 0.0
C263 C 0.09022 0.14378 0.47066 0.0
C264 C 0.06869 0.11691 0.47547 0.0
C265 C 0.05734 0.99571 0.54798 0.0
C266 C 0.0417 0.07447 0.58049 0.0
C267 C 0.98326 0.98641 0.63534 0.0
C268 C 0.95538 0.96397 0.64489 0.0
C269 C 0.93401 0.97158 0.66794 0.0
C270 C 0.90529 0.9525 0.67361 0.0
C271 C 0.89756 0.9253 0.65659 0.0
C272 C 0.91942 0.91705 0.63456 0.0
C273 C 0.94802 0.93632 0.62854 0.0
C274 C 0.96284 1.03098 0.54021 0.0
C275 C 0.98524 0.97073 0.51615 0.0
O276 O 0.0672 0.04434 0.48331 0.0
O277 O 0.02454 0.06 0.47579 0.0
O278 O 0.05261 0.99516 0.51656 0.0
O279 O 0.04588 1.01623 0.56061 0.0
O280 O 0.04649 0.07169 0.54822 0.0
O281 O 0.02515 0.05245 0.5983 0.0
O282 O 0.97774 1.01224 0.62647 0.0
O283 O 1.00361 0.97744 0.61555 0.0
O284 O 0.9533 1.00968 0.56114 0.0
O285 O 0.99116 0.04099 0.5448 0.0
O286 O 0.99013 0.97031 0.54831 0.0
O287 O 0.99442 0.99548 0.49874 0.0
H288 H 0.10196 0.07262 0.42401 0.0
H289 H 0.13967 0.1193 0.41594 0.0
H290 H 0.08709 0.16348 0.48407 0.0
H291 H 0.04938 0.1162 0.49277 0.0
H292 H 0.93912 0.99277 0.68073 0.0
H293 H 0.88899 0.95911 0.69116 0.0
H294 H 0.91396 0.89619 0.62117 0.0
H295 H 0.96387 0.92991 0.61034 0.0
La296 La 0.51713 0.05258 0.0824 0.0
La297 La 0.45169 1.03218 0.05048 0.0
C298 C 0.56969 0.08434 0.09325 0.0
C299 C 0.58805 0.0999 0.12041 0.0
C300 C 0.59246 0.08525 0.14977 0.0
C301 C 0.61192 0.10021 0.17401 0.0
C302 C 0.62709 0.13008 0.16939 0.0
C303 C 0.62196 0.14484 0.14034 0.0
C304 C 0.6027 0.12984 0.11606 0.0
C305 C 0.48288 1.00577 0.11417 0.0
C306 C 0.45785 0.07587 0.11062 0.0
C307 C 0.40179 1.00489 1.02566 0.0
C308 C 0.39366 0.97965 1.00288 0.0
C309 C 0.36952 0.97949 0.98085 0.0
C310 C 0.36714 0.96161 0.95264 0.0
C311 C 0.38918 0.94398 0.94591 0.0
C312 C 0.41142 0.94195 0.9697 0.0
C313 C 0.41347 0.95952 0.99821 0.0
C314 C 0.48684 0.083 1.02968 0.0
C315 C 0.50895 1.00288 1.02797 0.0
O316 O 0.56388 0.05509 0.09348 0.0
O317 O 0.54574 0.09518 0.08429 0.0
O318 O 0.51069 1.01891 0.12276 0.0
O319 O 0.47618 1.02059 0.09044 0.0
O320 O 0.48861 0.07977 0.10808 0.0
O321 O 0.43859 0.05554 0.09354 0.0
O322 O 0.41991 1.02828 1.01231 0.0
O323 O 0.41053 0.99942 0.05537 0.0
O324 O 0.4568 0.07799 1.03258 0.0
O325 O 0.49594 0.05953 1.03691 0.0
O326 O 0.47848 1.00129 1.02858 0.0
O327 O 0.52863 1.02392 1.04348 0.0
H328 H 0.58127 0.06217 0.15381 0.0
H329 H 0.61517 0.0884 0.19633 0.0
H330 H 0.63359 0.16773 0.13591 0.0
H331 H 0.59971 0.14149 0.09352 0.0
H332 H 0.3541 0.99497 0.98402 0.0
H333 H 0.34989 0.96377 0.93462 0.0
H334 H 0.42845 0.92827 0.96518 0.0
H335 H 0.4319 0.95894 1.01529 0.0
La336 La 0.49253 0.50318 0.53388 0.0
La337 La 0.48342 0.55351 0.58261 0.0
C338 C 0.51211 0.46441 0.50038 0.0
C339 C 0.53552 0.4461 0.50459 0.0
C340 C 0.52696 0.4153 0.49965 0.0
C341 C 0.54866 0.39731 0.50328 0.0
C342 C 0.5795 0.40988 0.51156 0.0
C343 C 0.58781 0.44074 0.51725 0.0
C344 C 0.56597 0.45868 0.51397 0.0
C345 C 0.43737 0.49764 0.5634 0.0
C346 C 0.51821 0.50445 0.60785 0.0
C347 C 0.45602 0.58336 0.62057 0.0
C348 C 0.44902 0.61308 0.61761 0.0
C349 C 0.46812 0.63492 0.59803 0.0
C350 C 0.45966 0.66213 0.59252 0.0
C351 C 0.43173 0.66782 0.60612 0.0
C352 C 0.41282 0.64589 0.62599 0.0
C353 C 0.42145 0.61875 0.63169 0.0
C354 C 0.53601 0.56995 0.54716 0.0
C355 C 0.46585 0.55628 0.50603 0.0
O356 O 0.48801 0.45832 0.52065 0.0
O357 O 0.52227 0.49315 0.49622 0.0
O358 O 0.44168 0.48928 0.53328 0.0
O359 O 0.46344 0.50753 0.57591 0.0
O360 O 0.51904 0.49451 0.57698 0.0
O361 O 0.50334 0.52586 0.61634 0.0
O362 O 0.48551 0.58225 0.62327 0.0
O363 O 0.44154 0.56383 0.59942 0.0
O364 O 0.52578 0.58685 0.56874 0.0
O365 O 0.51643 0.54581 0.54698 0.0
O366 O 0.46168 0.56483 0.53701 0.0
O367 O 0.48031 0.53432 0.49874 0.0
H368 H 0.50345 0.40513 0.49285 0.0
H369 H 0.54128 0.37356 0.49938 0.0
H370 H 0.61141 0.45123 0.5233 0.0
H371 H 0.57305 0.48237 0.5184 0.0
H372 H 0.48931 0.63076 0.58651 0.0
H373 H 0.47499 0.67867 0.57754 0.0
H374 H 0.39093 0.64934 0.63642 0.0
H375 H 0.40619 0.60189 0.64637 0.0
La376 La 0.99969 0.49512 0.07617 0.0
La377 La 0.99178 0.55576 1.04629 0.0
C378 C 0.0191 0.45019 0.09483 0.0
C379 C 0.04981 0.44375 0.10126 0.0
C380 C 0.05269 0.4245 0.1272 0.0
C381 C 0.08191 0.41989 0.13573 0.0
C382 C 0.10878 0.43438 0.11833 0.0
C383 C 0.10581 0.45318 0.09181 0.0
C384 C 0.07652 0.45802 0.08348 0.0
C385 C 0.96587 0.52618 0.11105 0.0
C386 C 0.05413 0.55371 0.08218 0.0
C387 C 0.97143 0.60273 1.04097 0.0
C388 C 0.94813 0.61301 1.02092 0.0
C389 C 0.95452 0.64211 1.00843 0.0
C390 C 0.93166 0.65307 0.99186 0.0
C391 C 0.90192 0.63512 0.98769 0.0
C392 C 0.89588 0.60569 0.99942 0.0
C393 C 0.91879 0.5947 1.01578 0.0
C394 C 0.01682 0.52375 1.00172 0.0
C395 C 0.94117 0.49571 1.03322 0.0
O396 O 0.01027 0.46929 0.11516 0.0
O397 O 0.01292 0.45492 0.064 0.0
O398 O 0.96021 0.49733 0.10954 0.0
O399 O 0.99031 0.53633 0.09437 0.0
O400 O 0.0458 0.52415 0.08269 0.0
O401 O 0.03555 0.57086 0.07142 0.0
O402 O 0.99684 0.59858 1.02558 0.0
O403 O 0.96038 0.58153 0.06229 0.0
O404 O 0.01041 0.5496 0.99574 0.0
O405 O 0.00877 0.51801 1.03134 0.0
O406 O 0.94783 0.52531 1.0344 0.0
O407 O 0.95982 0.47914 1.04517 0.0
H408 H 0.03234 0.41344 0.14128 0.0
H409 H 0.08352 0.40505 0.15605 0.0
H410 H 0.12618 0.4648 0.0782 0.0
H411 H 0.07485 0.47333 0.06364 0.0
H412 H 0.97695 0.65662 1.01223 0.0
H413 H 0.93692 0.67594 0.98337 0.0
H414 H 0.87332 0.59124 0.99623 0.0
H415 H 0.91326 0.57211 1.02509 0.0
H416 H 0.22056 0.29722 0.35178 0.0
H417 H 0.17803 0.15147 0.46058 0.0
H418 H 0.28895 0.25654 0.39786 0.0
H419 H 0.10946 0.19959 0.42879 0.0
H420 H 0.21915 0.19368 0.44441 0.0
H421 H 0.17989 0.26616 0.38581 0.0
C422 C 0.22703 0.28205 0.36947 0.0
C423 C 0.25808 0.2791 0.37169 0.0
C424 C 0.19515 0.19534 0.44145 0.0
C425 C 0.21171 0.24335 0.41048 0.0
C426 C 0.17173 0.17125 0.45065 0.0
C427 C 0.1405 0.17209 0.4456 0.0
C428 C 0.18729 0.22024 0.42645 0.0
C429 C 0.13336 0.19817 0.43294 0.0
C430 C 0.20384 0.2644 0.38895 0.0
C431 C 0.2653 0.25949 0.39533 0.0
N432 N 0.15666 0.22109 0.42319 0.0
N433 N 0.24222 0.24199 0.4134 0.0
H434 H 0.43257 0.97538 0.74633 0.0
H435 H 0.34399 0.91196 0.90673 0.0
H436 H 0.35876 0.89702 0.7422 0.0
H437 H 0.4416 0.95271 0.90732 0.0
H438 H 0.34808 0.90526 0.84671 0.0
H439 H 0.43635 0.96729 0.80536 0.0
C440 C 0.41748 0.95618 0.75754 0.0
C441 C 0.39496 0.93716 0.73904 0.0
C442 C 0.36875 0.91497 0.86015 0.0
C443 C 0.39869 0.92835 0.80707 0.0
C444 C 0.36641 0.91876 0.89431 0.0
C445 C 0.39246 0.93296 0.91188 0.0
C446 C 0.39711 0.92621 0.84352 0.0
C447 C 0.42099 0.9415 0.89469 0.0
C448 C 0.41962 0.95166 0.79138 0.0
C449 C 0.3758 0.91292 0.75546 0.0
N450 N 0.42242 0.9386 0.86132 0.0
N451 N 0.3777 0.90953 0.78863 0.0
H452 H 0.60525 0.46042 0.7879 0.0
H453 H 0.54025 0.4526 0.60386 0.0
H454 H 0.58683 0.37972 0.73014 0.0
H455 H 0.5305 0.52292 0.67204 0.0
H456 H 0.56289 0.42805 0.64781 0.0
H457 H 0.58321 0.48593 0.74396 0.0
C458 C 0.59659 0.44806 0.76601 0.0
C459 C 0.59778 0.41777 0.7629 0.0
C460 C 0.55581 0.44886 0.65316 0.0
C461 C 0.57277 0.44699 0.71225 0.0
C462 C 0.54298 0.46302 0.62799 0.0
C463 C 0.53328 0.48994 0.63412 0.0
C464 C 0.55947 0.46178 0.68478 0.0
C465 C 0.53746 0.50218 0.66607 0.0
C466 C 0.58391 0.46262 0.74098 0.0
C467 C 0.58605 0.40292 0.73392 0.0
N468 N 0.5503 0.48811 0.69009 0.0
N469 N 0.57427 0.41767 0.70975 0.0
H470 H 0.9235 0.65896 0.24993 0.0
H471 H 0.91274 0.5067 0.14766 0.0
H472 H 0.84704 0.58344 0.25958 0.0
H473 H 0.98435 0.58487 0.12961 0.0
H474 H 0.88911 0.53427 0.18956 0.0
H475 H 0.94727 0.6319 0.20751 0.0
C476 C 0.91179 0.63661 0.24339 0.0
C477 C 0.88311 0.62357 0.2585 0.0
C478 C 0.90992 0.54551 0.1764 0.0
C479 C 0.91018 0.59245 0.20948 0.0
C480 C 0.92341 0.52975 0.15241 0.0
C481 C 0.95052 0.5435 0.13504 0.0
C482 C 0.92371 0.5753 0.1834 0.0
C483 C 0.96336 0.57343 0.1423 0.0
C484 C 0.92529 0.62125 0.21892 0.0
C485 C 0.86893 0.59464 0.24847 0.0
N486 N 0.94993 0.58827 0.16598 0.0
N487 N 0.88258 0.58013 0.22474 0.0
H488 H 0.43006 0.21537 0.24656 0.0
H489 H 0.40022 0.08941 0.10711 0.0
H490 H 0.36658 0.21556 0.16692 0.0
H491 H 0.48581 0.1113 0.16059 0.0
H492 H 0.38159 0.12929 0.13654 0.0
H493 H 0.44516 0.17118 0.22229 0.0
C494 C 0.41921 0.20597 0.22406 0.0
C495 C 0.39719 0.21914 0.20856 0.0
C496 C 0.40433 0.12515 0.14198 0.0
C497 C 0.41404 0.16863 0.18097 0.0
C498 C 0.4149 0.10226 0.12542 0.0
C499 C 0.44469 0.09711 0.1313 0.0
C500 C 0.42352 0.14275 0.16489 0.0
C501 C 0.46278 0.11463 0.15513 0.0
C502 C 0.42788 0.18089 0.21021 0.0
C503 C 0.3839 0.20623 0.17939 0.0
N504 N 0.45192 0.13671 0.17104 0.0
N505 N 0.39246 0.18161 0.16657 0.0
H506 H 0.22854 0.93358 0.55747 0.0
H507 H 0.09131 1.01835 0.60136 0.0
H508 H 0.24269 1.01957 0.60534 0.0
H509 H 0.08613 0.95282 0.52375 0.0
H510 H 0.1432 1.01064 0.61449 0.0
H511 H 0.17307 0.93332 0.55499 0.0
C512 C 0.2201 0.95251 0.56729 0.0
C513 C 0.24053 0.97687 0.58119 0.0
C514 C 0.13046 0.99763 0.59494 0.0
C515 C 0.17683 0.97613 0.57934 0.0
C516 C 0.1008 1.00181 0.58764 0.0
C517 C 0.08474 0.98643 0.56115 0.0
C518 C 0.14384 0.97773 0.57583 0.0
C519 C 0.098 0.96529 0.54414 0.0
C520 C 0.18837 0.95215 0.56616 0.0
C521 C 0.22792 1.00025 0.59454 0.0
N522 N 0.12697 0.96173 0.55157 0.0
N523 N 0.19689 0.99934 0.59318 0.0
H524 H 0.76761 0.45504 0.92611 0.0
H525 H 0.91672 0.43562 1.02841 0.0
H526 H 0.78644 0.36992 0.95386 0.0
H527 H 0.89789 0.52114 1.00223 0.0
H528 H 0.86849 0.41138 1.00225 0.0
H529 H 0.81405 0.47978 0.95542 0.0
C530 C 0.78127 0.44151 0.9386 0.0
C531 C 0.77302 0.41025 0.93722 0.0
C532 C 0.87484 0.43546 1.00228 0.0
C533 C 0.82667 0.43856 0.97062 0.0
C534 C 0.90249 0.44938 1.01724 0.0
C535 C 0.91159 0.48059 1.01766 0.0
C536 C 0.85596 0.45277 0.98746 0.0
C537 C 0.89195 0.49708 1.0027 0.0
C538 C 0.80796 0.45568 0.95517 0.0
C539 C 0.79203 0.39402 0.95364 0.0
N540 N 0.8652 0.483 0.98822 0.0
N541 N 0.81787 0.40831 0.96949 0.0
H542 H 0.68229 0.67676 0.42844 0.0
H543 H 0.57167 0.53567 0.51365 0.0
H544 H 0.71467 0.59537 0.44468 0.0
H545 H 0.56405 0.62647 0.53188 0.0
H546 H 0.61954 0.55406 0.48029 0.0
H547 H 0.63427 0.65562 0.45826 0.0
C548 C 0.67962 0.65454 0.43849 0.0
C549 C 0.70327 0.63822 0.43439 0.0
C550 C 0.60722 0.56986 0.49152 0.0
C551 C 0.64712 0.61333 0.46799 0.0
C552 C 0.57985 0.55937 0.51029 0.0
C553 C 0.56385 0.57957 0.5254 0.0
C554 C 0.61817 0.60072 0.4874 0.0
C555 C 0.57567 0.61011 0.52071 0.0
C556 C 0.6519 0.64237 0.45535 0.0
C557 C 0.69732 0.60893 0.447 0.0
N558 N 0.60189 0.6197 0.50206 0.0
N559 N 0.6699 0.59745 0.46323 0.0
H560 H 0.26458 0.41253 0.23393 0.0
H561 H 0.15665 0.42227 0.07942 0.0
H562 H 0.28091 0.37638 0.13798 0.0
H563 H 0.13131 0.43753 0.18068 0.0
H564 H 0.20665 0.41309 0.09803 0.0
H565 H 0.22053 0.43022 0.21201 0.0
C566 C 0.25929 0.40879 0.20805 0.0
C567 C 0.27648 0.39288 0.18777 0.0
C568 C 0.19017 0.41859 0.1161 0.0
C569 C 0.22549 0.4126 0.16267 0.0
C570 C 0.16176 0.42393 0.1055 0.0
C571 C 0.13976 0.43035 0.12862 0.0
C572 C 0.19667 0.42005 0.14997 0.0
C573 C 0.14743 0.43216 0.16212 0.0
C574 C 0.23389 0.41865 0.19564 0.0
C575 C 0.26807 0.38825 0.15457 0.0
N576 N 0.1752 0.427 0.17178 0.0
N577 N 0.24304 0.39794 0.14306 0.0
H578 H 0.5498 0.25925 0.94475 0.0
H579 H 0.54885 0.09401 1.01116 0.0
H580 H 0.62673 0.21506 0.93014 0.0
H581 H 0.46914 0.13518 1.01641 0.0
H582 H 0.57927 0.13953 0.98544 0.0
H583 H 0.52155 0.21563 0.97516 0.0
C584 C 0.56091 0.24053 0.94812 0.0
C585 C 0.59072 0.24094 0.93454 0.0
C586 C 0.55516 0.13866 0.99233 0.0
C587 C 0.55822 0.19053 0.96931 0.0
C588 C 0.53782 0.1127 1.0071 0.0
C589 C 0.50639 0.11077 1.01586 0.0
C590 C 0.54099 0.16294 0.98632 0.0
C591 C 0.49327 0.13565 1.00994 0.0
C592 C 0.54464 0.21548 0.96535 0.0
C593 C 0.60364 0.21569 0.93957 0.0
N594 N 0.51055 0.16059 0.99554 0.0
N595 N 0.58736 0.19162 0.95643 0.0
H596 H 0.9122 0.78529 0.46509 0.0
H597 H 0.96502 0.96311 0.45217 0.0
H598 H 0.88783 0.83654 0.38427 0.0
H599 H 0.97054 0.9141 0.54181 0.0
H600 H 0.94033 0.91655 0.42527 0.0
H601 H 0.93699 0.83171 0.49197 0.0
C602 C 0.91189 0.80618 0.45293 0.0
C603 C 0.89774 0.80665 0.42213 0.0
C604 C 0.94692 0.91599 0.45084 0.0
C605 C 0.92676 0.86022 0.45284 0.0
C606 C 0.9611 0.9426 0.46623 0.0
C607 C 0.96995 0.94267 0.49938 0.0
C608 C 0.94173 0.88904 0.46853 0.0
C609 C 0.96413 0.91527 0.51626 0.0
C610 C 0.92624 0.83276 0.46831 0.0
C611 C 0.89881 0.8347 0.40759 0.0
N612 N 0.95054 0.88965 0.50066 0.0
N613 N 0.91303 0.86019 0.42299 0.0
H614 H 0.4137 0.83776 0.52522 0.0
H615 H 0.40333 0.70114 0.64859 0.0
H616 H 0.35837 0.82667 0.61553 0.0
H617 H 0.43837 0.69963 0.54812 0.0
H618 H 0.38808 0.74809 0.63705 0.0
H619 H 0.42451 0.7879 0.53308 0.0
C620 C 0.40362 0.82472 0.54648 0.0
C621 C 0.38503 0.83627 0.56967 0.0
C622 C 0.39899 0.73743 0.61747 0.0
C623 C 0.39748 0.77966 0.57899 0.0
C624 C 0.40761 0.71053 0.62401 0.0
C625 C 0.42222 0.69637 0.59933 0.0
C626 C 0.40524 0.7505 0.58609 0.0
C627 C 0.42768 0.70998 0.5681 0.0
C628 C 0.40972 0.79631 0.55092 0.0
C629 C 0.37244 0.81848 0.59676 0.0
N630 N 0.41931 0.73637 0.56241 0.0
N631 N 0.3791 0.79119 0.6008 0.0
H632 H 0.76091 0.79941 0.75465 0.0
H633 H 0.84106 0.9409 0.65533 0.0
H634 H 0.71193 0.86649 0.72303 0.0
H635 H 0.88385 0.86551 0.66961 0.0
H636 H 0.79072 0.9101 0.67119 0.0
H637 H 0.80173 0.81747 0.71388 0.0
C638 C 0.75811 0.8173 0.7384 0.0
C639 C 0.7333 0.83203 0.74303 0.0
C640 C 0.81096 0.90007 0.67033 0.0
C641 C 0.78077 0.85355 0.69701 0.0
C642 C 0.83971 0.91772 0.66155 0.0
C643 C 0.86662 0.90582 0.66191 0.0
C644 C 0.80922 0.87044 0.68017 0.0
C645 C 0.86362 0.87555 0.66936 0.0
C646 C 0.78172 0.82783 0.71525 0.0
C647 C 0.73119 0.85513 0.72114 0.0
N648 N 0.8355 0.85901 0.67885 0.0
N649 N 0.75505 0.86571 0.69966 0.0
H650 H 0.78015 0.17916 0.30268 0.0
H651 H 0.6328 0.18697 0.19306 0.0
H652 H 0.73311 0.253 0.30564 0.0
H653 H 0.67186 0.10849 0.20153 0.0
H654 H 0.67109 0.21272 0.23192 0.0
H655 H 0.74252 0.15416 0.26296 0.0
C656 C 0.76191 0.19013 0.29498 0.0
C657 C 0.75974 0.21819 0.30765 0.0
C658 C 0.67123 0.18984 0.22535 0.0
C659 C 0.71667 0.18975 0.26195 0.0
C660 C 0.64946 0.17518 0.20311 0.0
C661 C 0.64915 0.14554 0.19409 0.0
C662 C 0.69301 0.17483 0.2385 0.0
C663 C 0.67103 0.13121 0.20811 0.0
C664 C 0.74046 0.17586 0.27224 0.0
C665 C 0.73593 0.23156 0.29628 0.0
N666 N 0.69214 0.14603 0.22951 0.0
N667 N 0.71527 0.21717 0.27415 0.0
H668 H 0.37294 0.66548 0.38145 0.0
H669 H 0.47517 0.54936 0.43942 0.0
H670 H 0.43093 0.62486 0.31587 0.0
H671 H 0.43 0.59933 0.50878 0.0
H672 H 0.45653 0.57518 0.39403 0.0
H673 H 0.39074 0.6399 0.42825 0.0
C674 C 0.38933 0.65117 0.37682 0.0
C675 C 0.40054 0.64757 0.34451 0.0
C676 C 0.45064 0.58056 0.41915 0.0
C677 C 0.42102 0.61811 0.39813 0.0
C678 C 0.46126 0.56571 0.44522 0.0
C679 C 0.4542 0.57203 0.47822 0.0
C680 C 0.43254 0.60194 0.42576 0.0
C681 C 0.4361 0.59365 0.48384 0.0
C682 C 0.39961 0.63668 0.40361 0.0
C683 C 0.42195 0.62883 0.34025 0.0
N684 N 0.42585 0.60773 0.45795 0.0
N685 N 0.43135 0.61485 0.36658 0.0
H686 H 0.08028 0.45252 0.81918 0.0
H687 H 0.04196 0.47419 1.01211 0.0
H688 H 0.10328 0.39632 0.89596 0.0
H689 H 0.02199 0.53132 0.93506 0.0
H690 H 0.06328 0.44448 0.97026 0.0
H691 H 0.05806 0.48091 0.86127 0.0
C692 C 0.08081 0.44613 0.84484 0.0
C693 C 0.09381 0.42181 0.85375 0.0
C694 C 0.05408 0.46342 0.96246 0.0
C695 C 0.06791 0.45435 0.90247 0.0
C696 C 0.04165 0.48022 0.98641 0.0
C697 C 0.02971 0.50499 0.97713 0.0
C698 C 0.05463 0.47146 0.92886 0.0
C699 C 0.03082 0.51233 0.94339 0.0
C700 C 0.06791 0.46233 0.86894 0.0
C701 C 0.09319 0.41452 0.8876 0.0
N702 N 0.04295 0.49569 0.92058 0.0
N703 N 0.08057 0.43067 0.91059 0.0
H704 H 0.61962 0.87286 0.98877 0.0
H705 H 0.48108 0.96123 0.98273 0.0
H706 H 0.54836 0.85366 0.91542 0.0
H707 H 0.56557 0.98926 1.03691 0.0
H708 H 0.50123 0.91853 0.96132 0.0
H709 H 0.59458 0.91088 1.01204 0.0
C710 C 0.59824 0.87607 0.97796 0.0
C711 C 0.58612 0.85987 0.95001 0.0
C712 C 0.51529 0.93413 0.97784 0.0
C713 C 0.5578 0.90453 0.97607 0.0
C714 C 0.5038 0.95845 0.99008 0.0
C715 C 0.52155 0.97878 1.01178 0.0
C716 C 0.54455 0.93006 0.98772 0.0
C717 C 0.55105 0.97432 1.02014 0.0
C718 C 0.5842 0.89823 0.99101 0.0
C719 C 0.55871 0.8658 0.93676 0.0
N720 N 0.56148 0.95041 1.00827 0.0
N721 N 0.54553 0.88781 0.94978 0.0
H722 H 0.89573 0.16041 0.42508 0.0
H723 H 0.91619 0.05117 0.57218 0.0
H724 H 0.87854 0.17897 0.52785 0.0
H725 H 0.96508 0.05371 0.47843 0.0
H726 H 0.89084 0.09071 0.55281 0.0
H727 H 0.91138 0.1147 0.44156 0.0
C728 C 0.89544 0.15505 0.45113 0.0
C729 C 0.88622 0.17389 0.47514 0.0
C730 C 0.90682 0.08231 0.53636 0.0
C731 C 0.90316 0.12105 0.49396 0.0
C732 C 0.92096 0.05963 0.54723 0.0
C733 C 0.94283 0.04962 0.5268 0.0
C734 C 0.91448 0.0946 0.5048 0.0
C735 C 0.94869 0.06134 0.49494 0.0
C736 C 0.90407 0.12878 0.46044 0.0
C737 C 0.88531 0.16513 0.50843 0.0
N738 N 0.93467 0.08338 0.48487 0.0
N739 N 0.89376 0.13935 0.51687 0.0
H740 H 0.20454 0.67725 0.17553 0.0
H741 H 0.10227 0.52751 0.10039 0.0
H742 H 0.23963 0.59685 0.16023 0.0
H743 H 0.07599 0.61298 0.09601 0.0
H744 H 0.15134 0.55158 0.12535 0.0
H745 H 0.15609 0.65322 0.14967 0.0
C746 C 0.20226 0.65461 0.16669 0.0
C747 C 0.22659 0.63924 0.17022 0.0
C748 C 0.13488 0.56508 0.11881 0.0
C749 C 0.17048 0.61127 0.14081 0.0
C750 C 0.10678 0.55134 0.10453 0.0
C751 C 0.0848 0.56817 0.09593 0.0
C752 C 0.14107 0.59592 0.12496 0.0
C753 C 0.09215 0.59902 0.10202 0.0
C754 C 0.1744 0.64084 0.15199 0.0
C755 C 0.2216 0.60962 0.15872 0.0
N756 N 0.11948 0.6118 0.11625 0.0
N757 N 0.19423 0.59669 0.14463 0.0
H758 H 0.25375 0.40747 0.6303 0.0
H759 H 0.42671 0.50647 0.6293 0.0
H760 H 0.29576 0.45384 0.71627 0.0
H761 H 0.3807 0.46877 0.5413 0.0
H762 H 0.37853 0.48864 0.66129 0.0
H763 H 0.29918 0.43098 0.59707 0.0
C764 C 0.27228 0.42287 0.64221 0.0
C765 C 0.27074 0.42847 0.67636 0.0
C766 C 0.37885 0.48444 0.63495 0.0
C767 C 0.32344 0.45519 0.63826 0.0
C768 C 0.40636 0.4947 0.61665 0.0
C769 C 0.40772 0.4891 0.58257 0.0
C770 C 0.35249 0.46821 0.61914 0.0
C771 C 0.38069 0.47356 0.56752 0.0
C772 C 0.2984 0.43616 0.62318 0.0
C773 C 0.29596 0.44832 0.69025 0.0
N774 N 0.35429 0.4635 0.58591 0.0
N775 N 0.32123 0.46077 0.67125 0.0
H776 H 0.73788 0.70807 0.96299 0.0
H777 H 0.90557 0.66999 0.93243 0.0
H778 H 0.79922 0.74161 0.88087 0.0
H779 H 0.8414 0.62891 1.00915 0.0
H780 H 0.86518 0.6937 0.91098 0.0
H781 H 0.77323 0.67552 0.97776 0.0
C782 C 0.75852 0.70825 0.9478 0.0
C783 C 0.7659 0.72791 0.92101 0.0
C784 C 0.85979 0.67929 0.93234 0.0
C785 C 0.80657 0.69112 0.93791 0.0
C786 C 0.88291 0.66588 0.94467 0.0
C787 C 0.8769 0.64763 0.97273 0.0
C788 C 0.83048 0.67471 0.94838 0.0
C789 C 0.84697 0.6427 0.98734 0.0
C790 C 0.77878 0.6898 0.95632 0.0
C791 C 0.79301 0.72731 0.9022 0.0
N792 N 0.82497 0.6564 0.9752 0.0
N793 N 0.81248 0.70948 0.9112 0.0
H794 H 0.43102 0.83975 0.22334 0.0
H795 H 0.43791 0.96463 0.08345 0.0
H796 H 0.37377 0.82734 0.13711 0.0
H797 H 0.49071 0.97904 0.17244 0.0
H798 H 0.41279 0.915 0.10345 0.0
H799 H 0.45166 0.89123 0.20623 0.0
C800 C 0.42249 0.84783 0.201 0.0
C801 C 0.40063 0.82883 0.18165 0.0
C802 C 0.42956 0.92912 0.11887 0.0
C803 C 0.42468 0.88806 0.16154 0.0
C804 C 0.44357 0.95769 0.10758 0.0
C805 C 0.46579 0.97637 0.12664 0.0
C806 C 0.43803 0.91894 0.1494 0.0
C807 C 0.47345 0.96548 0.15707 0.0
C808 C 0.43449 0.87728 0.1911 0.0
C809 C 0.39096 0.84077 0.15262 0.0
N810 N 0.45967 0.93757 0.16747 0.0
N811 N 0.40308 0.86943 0.14346 0.0
H812 H 0.12833 0.25819 0.62854 0.0
H813 H 0.03463 0.089 0.64568 0.0
H814 H 0.08131 0.22099 0.7182 0.0
H815 H 0.07653 0.12648 0.55375 0.0
H816 H 0.05253 0.13698 0.67251 0.0
H817 H 0.11029 0.21041 0.60077 0.0
C818 C 0.11422 0.24003 0.64245 0.0
C819 C 0.10645 0.24382 0.67592 0.0
C820 C 0.05789 0.13478 0.64648 0.0
C821 C 0.08556 0.18876 0.64403 0.0
C822 C 0.04773 0.10724 0.63106 0.0
C823 C 0.05403 0.10346 0.59725 0.0
C824 C 0.07463 0.15901 0.62815 0.0
C825 C 0.07109 0.12819 0.57982 0.0
C826 C 0.10382 0.21272 0.62649 0.0
C827 C 0.08766 0.21942 0.69235 0.0
N828 N 0.08075 0.15483 0.59543 0.0
N829 N 0.07804 0.19304 0.67634 0.0
H830 H 0.69721 0.28973 0.45458 0.0
H831 H 0.62844 0.41343 0.55383 0.0
H832 H 0.75059 0.34958 0.52465 0.0
H833 H 0.5851 0.3638 0.47031 0.0
H834 H 0.66988 0.38503 0.55047 0.0
H835 H 0.65207 0.31063 0.46824 0.0
C836 C 0.69934 0.30692 0.47332 0.0
C837 C 0.72785 0.31798 0.4884 0.0
C838 C 0.65109 0.38024 0.53314 0.0
C839 C 0.6762 0.34265 0.50352 0.0
C840 C 0.62753 0.39652 0.5349 0.0
C841 C 0.6033 0.39118 0.51216 0.0
C842 C 0.65031 0.35842 0.50856 0.0
C843 C 0.60301 0.36855 0.48863 0.0
C844 C 0.67356 0.31907 0.48087 0.0
C845 C 0.72921 0.34071 0.51205 0.0
N846 N 0.62622 0.35317 0.48735 0.0
N847 N 0.70376 0.35249 0.51872 0.0
loop_
_geom_bond_atom_site_label_1
_geom_bond_atom_site_label_2
_geom_bond_distance
_geom_bond_site_symmetry_2
_ccdc_geom_bond_type
P0 O11 1.490 . S
P0 C14 1.812 . S
P0 C20 1.803 . S
P0 C26 1.819 . S
H1 C15 0.941 . S
H2 C16 0.939 . S
H3 C18 0.940 . S
H4 C19 0.940 . S
H5 C21 0.939 . S
H6 C22 0.942 . S
H7 C24 0.940 . S
H8 C25 0.939 . S
H9 C27 0.941 . S
H10 C31 0.939 . S
O11 P0 1.490 . S
H12 C28 0.939 . S
H13 C30 0.940 . S
C14 P0 1.812 . S
C14 C15 1.389 . S
C14 C19 1.391 . S
C15 H1 0.941 . S
C15 C14 1.389 . S
C15 C16 1.397 . S
C16 H2 0.939 . S
C16 C15 1.397 . S
C16 C17 1.378 . S
C17 C16 1.378 . S
C17 C18 1.378 . S
C18 H3 0.940 . S
C18 C17 1.378 . S
C18 C19 1.396 . S
C19 H4 0.940 . S
C19 C14 1.391 . S
C19 C18 1.396 . S
C20 P0 1.803 . S
C20 C21 1.378 . S
C20 C25 1.400 . S
C21 H5 0.939 . S
C21 C20 1.378 . S
C21 C22 1.361 . S
C22 H6 0.942 . S
C22 C21 1.361 . S
C22 C23 1.369 . S
C23 C22 1.369 . S
C23 C24 1.404 . S
C24 H7 0.940 . S
C24 C23 1.404 . S
C24 C25 1.389 . S
C25 H8 0.939 . S
C25 C20 1.400 . S
C25 C24 1.389 . S
C26 P0 1.819 . S
C26 C27 1.391 . S
C26 C31 1.391 . S
C27 H9 0.941 . S
C27 C26 1.391 . S
C27 C28 1.396 . S
C28 H12 0.939 . S
C28 C27 1.396 . S
C28 C29 1.397 . S
C29 C28 1.397 . S
C29 C30 1.385 . S
C30 H13 0.940 . S
C30 C29 1.385 . S
C30 C31 1.388 . S
C31 H10 0.939 . S
C31 C26 1.391 . S
C31 C30 1.388 . S
P32 O43 1.490 . S
P32 C46 1.812 . S
P32 C52 1.803 . S
P32 C58 1.819 . S
H33 C47 0.941 . S
H34 C48 0.939 . S
H35 C50 0.940 . S
H36 C51 0.940 . S
H37 C53 0.939 . S
H38 C54 0.942 . S
H39 C56 0.940 . S
H40 C57 0.939 . S
H41 C59 0.941 . S
H42 C63 0.939 . S
O43 P32 1.490 . S
H44 C60 0.939 . S
H45 C62 0.940 . S
C46 P32 1.812 . S
C46 C47 1.389 . S
C46 C51 1.391 . S
C47 H33 0.941 . S
C47 C46 1.389 . S
C47 C48 1.397 . S
C48 H34 0.939 . S
C48 C47 1.397 . S
C48 C49 1.378 . S
C49 C48 1.378 . S
C49 C50 1.378 . S
C50 H35 0.940 . S
C50 C49 1.378 . S
C50 C51 1.396 . S
C51 H36 0.940 . S
C51 C46 1.391 . S
C51 C50 1.396 . S
C52 P32 1.803 . S
C52 C53 1.378 . S
C52 C57 1.400 . S
C53 H37 0.939 . S
C53 C52 1.378 . S
C53 C54 1.361 . S
C54 H38 0.942 . S
C54 C53 1.361 . S
C54 C55 1.369 . S
C55 C54 1.369 . S
C55 C56 1.404 . S
C56 H39 0.940 . S
C56 C55 1.404 . S
C56 C57 1.389 . S
C57 H40 0.939 . S
C57 C52 1.400 . S
C57 C56 1.389 . S
C58 P32 1.819 . S
C58 C59 1.391 . S
C58 C63 1.391 . S
C59 H41 0.941 . S
C59 C58 1.391 . S
C59 C60 1.396 . S
C60 H44 0.939 . S
C60 C59 1.396 . S
C60 C61 1.397 . S
C61 C60 1.397 . S
C61 C62 1.385 . S
C62 H45 0.940 . S
C62 C61 1.385 . S
C62 C63 1.388 . S
C63 H42 0.939 . S
C63 C58 1.391 . S
C63 C62 1.388 . S
P64 O75 1.490 . S
P64 C78 1.812 . S
P64 C84 1.803 . S
P64 C90 1.819 . S
H65 C79 0.941 . S
H66 C80 0.939 . S
H67 C82 0.940 . S
H68 C83 0.940 . S
H69 C85 0.939 . S
H70 C86 0.942 . S
H71 C88 0.940 . S
H72 C89 0.939 . S
H73 C91 0.941 . S
H74 C95 0.939 . S
O75 P64 1.490 . S
H76 C92 0.939 . S
H77 C94 0.940 . S
C78 P64 1.812 . S
C78 C79 1.389 . S
C78 C83 1.391 . S
C79 H65 0.941 . S
C79 C78 1.389 . S
C79 C80 1.397 . S
C80 H66 0.939 . S
C80 C79 1.397 . S
C80 C81 1.378 . S
C81 C80 1.378 . S
C81 C82 1.378 . S
C82 H67 0.940 . S
C82 C81 1.378 . S
C82 C83 1.396 . S
C83 H68 0.940 . S
C83 C78 1.391 . S
C83 C82 1.396 . S
C84 P64 1.803 . S
C84 C85 1.378 . S
C84 C89 1.400 . S
C85 H69 0.939 . S
C85 C84 1.378 . S
C85 C86 1.361 . S
C86 H70 0.942 . S
C86 C85 1.361 . S
C86 C87 1.369 . S
C87 C86 1.369 . S
C87 C88 1.404 . S
C88 H71 0.940 . S
C88 C87 1.404 . S
C88 C89 1.389 . S
C89 H72 0.939 . S
C89 C84 1.400 . S
C89 C88 1.389 . S
C90 P64 1.819 . S
C90 C91 1.391 . S
C90 C95 1.391 . S
C91 H73 0.941 . S
C91 C90 1.391 . S
C91 C92 1.396 . S
C92 H76 0.939 . S
C92 C91 1.396 . S
C92 C93 1.397 . S
C93 C92 1.397 . S
C93 C94 1.385 . S
C94 H77 0.940 . S
C94 C93 1.385 . S
C94 C95 1.388 . S
C95 H74 0.939 . S
C95 C90 1.391 . S
C95 C94 1.388 . S
P96 O107 1.490 . S
P96 C110 1.812 . S
P96 C116 1.803 . S
P96 C122 1.819 . S
H97 C111 0.941 . S
H98 C112 0.939 . S
H99 C114 0.940 . S
H100 C115 0.940 . S
H101 C117 0.939 . S
H102 C118 0.942 . S
H103 C120 0.940 . S
H104 C121 0.939 . S
H105 C123 0.941 . S
H106 C127 0.939 . S
O107 P96 1.490 . S
H108 C124 0.939 . S
H109 C126 0.940 . S
C110 P96 1.812 . S
C110 C111 1.389 . S
C110 C115 1.391 . S
C111 H97 0.941 . S
C111 C110 1.389 . S
C111 C112 1.397 . S
C112 H98 0.939 . S
C112 C111 1.397 . S
C112 C113 1.378 . S
C113 C112 1.378 . S
C113 C114 1.378 . S
C114 H99 0.940 . S
C114 C113 1.378 . S
C114 C115 1.396 . S
C115 H100 0.940 . S
C115 C110 1.391 . S
C115 C114 1.396 . S
C116 P96 1.803 . S
C116 C117 1.378 . S
C116 C121 1.400 . S
C117 H101 0.939 . S
C117 C116 1.378 . S
C117 C118 1.361 . S
C118 H102 0.942 . S
C118 C117 1.361 . S
C118 C119 1.369 . S
C119 C118 1.369 . S
C119 C120 1.404 . S
C120 H103 0.940 . S
C120 C119 1.404 . S
C120 C121 1.389 . S
C121 H104 0.939 . S
C121 C116 1.400 . S
C121 C120 1.389 . S
C122 P96 1.819 . S
C122 C123 1.391 . S
C122 C127 1.391 . S
C123 H105 0.941 . S
C123 C122 1.391 . S
C123 C124 1.396 . S
C124 H108 0.939 . S
C124 C123 1.396 . S
C124 C125 1.397 . S
C125 C124 1.397 . S
C125 C126 1.385 . S
C126 H109 0.940 . S
C126 C125 1.385 . S
C126 C127 1.388 . S
C127 H106 0.939 . S
C127 C122 1.391 . S
C127 C126 1.388 . S
P128 O139 1.490 . S
P128 C142 1.812 . S
P128 C148 1.803 . S
P128 C154 1.819 . S
H129 C143 0.941 . S
H130 C144 0.939 . S
H131 C146 0.940 . S
H132 C147 0.940 . S
H133 C149 0.939 . S
H134 C150 0.942 . S
H135 C152 0.940 . S
H136 C153 0.939 . S
H137 C155 0.941 . S
H138 C159 0.939 . S
O139 P128 1.490 . S
H140 C156 0.939 . S
H141 C158 0.940 . S
C142 P128 1.812 . S
C142 C143 1.389 . S
C142 C147 1.391 . S
C143 H129 0.941 . S
C143 C142 1.389 . S
C143 C144 1.397 . S
C144 H130 0.939 . S
C144 C143 1.397 . S
C144 C145 1.378 . S
C145 C144 1.378 . S
C145 C146 1.378 . S
C146 H131 0.940 . S
C146 C145 1.378 . S
C146 C147 1.396 . S
C147 H132 0.940 . S
C147 C142 1.391 . S
C147 C146 1.396 . S
C148 P128 1.803 . S
C148 C149 1.378 . S
C148 C153 1.400 . S
C149 H133 0.939 . S
C149 C148 1.378 . S
C149 C150 1.361 . S
C150 H134 0.942 . S
C150 C149 1.361 . S
C150 C151 1.369 . S
C151 C150 1.369 . S
C151 C152 1.404 . S
C152 H135 0.940 . S
C152 C151 1.404 . S
C152 C153 1.389 . S
C153 H136 0.939 . S
C153 C148 1.400 . S
C153 C152 1.389 . S
C154 P128 1.819 . S
C154 C155 1.391 . S
C154 C159 1.391 . S
C155 H137 0.941 . S
C155 C154 1.391 . S
C155 C156 1.396 . S
C156 H140 0.939 . S
C156 C155 1.396 . S
C156 C157 1.397 . S
C157 C156 1.397 . S
C157 C158 1.385 . S
C158 H141 0.940 . S
C158 C157 1.385 . S
C158 C159 1.388 . S
C159 H138 0.939 . S
C159 C154 1.391 . S
C159 C158 1.388 . S
P160 O171 1.490 . S
P160 C174 1.812 . S
P160 C180 1.803 . S
P160 C186 1.819 . S
H161 C175 0.941 . S
H162 C176 0.939 . S
H163 C178 0.940 . S
H164 C179 0.940 . S
H165 C181 0.939 . S
H166 C182 0.942 . S
H167 C184 0.940 . S
H168 C185 0.939 . S
H169 C187 0.941 . S
H170 C191 0.939 . S
O171 P160 1.490 . S
H172 C188 0.939 . S
H173 C190 0.940 . S
C174 P160 1.812 . S
C174 C175 1.389 . S
C174 C179 1.391 . S
C175 H161 0.941 . S
C175 C174 1.389 . S
C175 C176 1.397 . S
C176 H162 0.939 . S
C176 C175 1.397 . S
C176 C177 1.378 . S
C177 C176 1.378 . S
C177 C178 1.378 . S
C178 H163 0.940 . S
C178 C177 1.378 . S
C178 C179 1.396 . S
C179 H164 0.940 . S
C179 C174 1.391 . S
C179 C178 1.396 . S
C180 P160 1.803 . S
C180 C181 1.378 . S
C180 C185 1.400 . S
C181 H165 0.939 . S
C181 C180 1.378 . S
C181 C182 1.361 . S
C182 H166 0.942 . S
C182 C181 1.361 . S
C182 C183 1.369 . S
C183 C182 1.369 . S
C183 C184 1.404 . S
C184 H167 0.940 . S
C184 C183 1.404 . S
C184 C185 1.389 . S
C185 H168 0.939 . S
C185 C180 1.400 . S
C185 C184 1.389 . S
C186 P160 1.819 . S
C186 C187 1.391 . S
C186 C191 1.391 . S
C187 H169 0.941 . S
C187 C186 1.391 . S
C187 C188 1.396 . S
C188 H172 0.939 . S
C188 C187 1.396 . S
C188 C189 1.397 . S
C189 C188 1.397 . S
C189 C190 1.385 . S
C190 H173 0.940 . S
C190 C189 1.385 . S
C190 C191 1.388 . S
C191 H170 0.939 . S
C191 C186 1.391 . S
C191 C190 1.388 . S
P192 O203 1.490 . S
P192 C206 1.812 . S
P192 C212 1.803 . S
P192 C218 1.819 . S
H193 C207 0.941 . S
H194 C208 0.939 . S
H195 C210 0.940 . S
H196 C211 0.940 . S
H197 C213 0.939 . S
H198 C214 0.942 . S
H199 C216 0.940 . S
H200 C217 0.939 . S
H201 C219 0.941 . S
H202 C223 0.939 . S
O203 P192 1.490 . S
H204 C220 0.939 . S
H205 C222 0.940 . S
C206 P192 1.812 . S
C206 C207 1.389 . S
C206 C211 1.391 . S
C207 H193 0.941 . S
C207 C206 1.389 . S
C207 C208 1.397 . S
C208 H194 0.939 . S
C208 C207 1.397 . S
C208 C209 1.378 . S
C209 C208 1.378 . S
C209 C210 1.378 . S
C210 H195 0.940 . S
C210 C209 1.378 . S
C210 C211 1.396 . S
C211 H196 0.940 . S
C211 C206 1.391 . S
C211 C210 1.396 . S
C212 P192 1.803 . S
C212 C213 1.378 . S
C212 C217 1.400 . S
C213 H197 0.939 . S
C213 C212 1.378 . S
C213 C214 1.361 . S
C214 H198 0.942 . S
C214 C213 1.361 . S
C214 C215 1.369 . S
C215 C214 1.369 . S
C215 C216 1.404 . S
C216 H199 0.940 . S
C216 C215 1.404 . S
C216 C217 1.389 . S
C217 H200 0.939 . S
C217 C212 1.400 . S
C217 C216 1.389 . S
C218 P192 1.819 . S
C218 C219 1.391 . S
C218 C223 1.391 . S
C219 H201 0.941 . S
C219 C218 1.391 . S
C219 C220 1.396 . S
C220 H204 0.939 . S
C220 C219 1.396 . S
C220 C221 1.397 . S
C221 C220 1.397 . S
C221 C222 1.385 . S
C222 H205 0.940 . S
C222 C221 1.385 . S
C222 C223 1.388 . S
C223 H202 0.939 . S
C223 C218 1.391 . S
C223 C222 1.388 . S
P224 O235 1.490 . S
P224 C238 1.812 . S
P224 C244 1.803 . S
P224 C250 1.819 . S
H225 C239 0.941 . S
H226 C240 0.939 . S
H227 C242 0.940 . S
H228 C243 0.940 . S
H229 C245 0.939 . S
H230 C246 0.942 . S
H231 C248 0.940 . S
H232 C249 0.939 . S
H233 C251 0.941 . S
H234 C255 0.939 . S
O235 P224 1.490 . S
H236 C252 0.939 . S
H237 C254 0.940 . S
C238 P224 1.812 . S
C238 C239 1.389 . S
C238 C243 1.391 . S
C239 H225 0.941 . S
C239 C238 1.389 . S
C239 C240 1.397 . S
C240 H226 0.939 . S
C240 C239 1.397 . S
C240 C241 1.378 . S
C241 C240 1.378 . S
C241 C242 1.378 . S
C242 H227 0.940 . S
C242 C241 1.378 . S
C242 C243 1.396 . S
C243 H228 0.940 . S
C243 C238 1.391 . S
C243 C242 1.396 . S
C244 P224 1.803 . S
C244 C245 1.378 . S
C244 C249 1.400 . S
C245 H229 0.939 . S
C245 C244 1.378 . S
C245 C246 1.361 . S
C246 H230 0.942 . S
C246 C245 1.361 . S
C246 C247 1.369 . S
C247 C246 1.369 . S
C247 C248 1.404 . S
C248 H231 0.940 . S
C248 C247 1.404 . S
C248 C249 1.389 . S
C249 H232 0.939 . S
C249 C244 1.400 . S
C249 C248 1.389 . S
C250 P224 1.819 . S
C250 C251 1.391 . S
C250 C255 1.391 . S
C251 H233 0.941 . S
C251 C250 1.391 . S
C251 C252 1.396 . S
C252 H236 0.939 . S
C252 C251 1.396 . S
C252 C253 1.397 . S
C253 C252 1.397 . S
C253 C254 1.385 . S
C254 H237 0.940 . S
C254 C253 1.385 . S
C254 C255 1.388 . S
C255 H234 0.939 . S
C255 C250 1.391 . S
C255 C254 1.388 . S
La256 C258 2.928 . S
La256 O276 2.521 . S
La256 O277 2.628 . S
La256 O278 2.554 1_545 S
La256 O279 2.757 1_545 S
La256 O280 2.470 . S
La256 O285 2.482 1_455 S
La256 O287 2.503 1_445 S
La257 C267 2.928 . S
La257 O279 2.482 1_655 S
La257 O281 2.503 1_665 S
La257 O282 2.521 . S
La257 O283 2.628 . S
La257 O284 2.554 1_565 S
La257 O285 2.757 1_565 S
La257 O286 2.470 . S
C258 La256 2.928 . S
C258 C259 1.503 . S
C258 O276 1.261 . S
C258 O277 1.243 . S
C259 C258 1.503 . S
C259 C260 1.394 . S
C259 C264 1.373 . S
C260 C259 1.394 . S
C260 C261 1.380 . S
C260 H288 0.930 . S
C261 C260 1.380 . S
C261 C262 1.376 . S
C261 H289 0.930 . S
C262 C261 1.376 . S
C262 C263 1.370 . S
C263 C262 1.370 . S
C263 C264 1.396 . S
C263 H290 0.929 . S
C264 C259 1.373 . S
C264 C263 1.396 . S
C264 H291 0.929 . S
C265 O278 1.240 . S
C265 O279 1.289 . S
C266 O280 1.258 . S
C266 O281 1.256 . S
C267 La257 2.928 . S
C267 C268 1.503 . S
C267 O282 1.261 . S
C267 O283 1.243 . S
C268 C267 1.503 . S
C268 C269 1.394 . S
C268 C273 1.373 . S
C269 C268 1.394 . S
C269 C270 1.380 . S
C269 H292 0.930 . S
C270 C269 1.380 . S
C270 C271 1.376 . S
C270 H293 0.930 . S
C271 C270 1.376 . S
C271 C272 1.370 . S
C272 C271 1.370 . S
C272 C273 1.396 . S
C272 H294 0.929 . S
C273 C268 1.373 . S
C273 C272 1.396 . S
C273 H295 0.929 . S
C274 O284 1.240 . S
C274 O285 1.289 . S
C275 O286 1.258 . S
C275 O287 1.256 . S
O276 La256 2.521 . S
O276 C258 1.261 . S
O277 La256 2.628 . S
O277 C258 1.243 . S
O278 La256 2.554 1_565 S
O278 C265 1.240 . S
O279 La256 2.757 1_565 S
O279 La257 2.482 1_455 S
O279 C265 1.289 . S
O280 La256 2.470 . S
O280 C266 1.258 . S
O281 La257 2.503 1_445 S
O281 C266 1.256 . S
O282 La257 2.521 . S
O282 C267 1.261 . S
O283 La257 2.628 . S
O283 C267 1.243 . S
O284 La257 2.554 1_545 S
O284 C274 1.240 . S
O285 La256 2.482 1_655 S
O285 La257 2.757 1_545 S
O285 C274 1.289 . S
O286 La257 2.470 . S
O286 C275 1.258 . S
O287 La256 2.503 1_665 S
O287 C275 1.256 . S
H288 C260 0.930 . S
H289 C261 0.930 . S
H290 C263 0.929 . S
H291 C264 0.929 . S
H292 C269 0.930 . S
H293 C270 0.930 . S
H294 C272 0.929 . S
H295 C273 0.929 . S
La296 C298 2.928 . S
La296 O316 2.521 . S
La296 O317 2.628 . S
La296 O318 2.554 1_545 S
La296 O319 2.757 1_545 S
La296 O320 2.470 . S
La296 O325 2.463 1_554 S
La296 O327 2.503 1_544 S
La297 C307 2.928 1_545 S
La297 O319 2.482 1_546 S
La297 O321 2.503 1_556 S
La297 O322 2.519 1_545 S
La297 O323 2.628 1_545 S
La297 O324 2.554 . S
La297 O325 2.766 . S
La297 O326 2.470 1_545 S
C298 La296 2.928 . S
C298 C299 1.503 . S
C298 O316 1.261 . S
C298 O317 1.243 . S
C299 C298 1.503 . S
C299 C300 1.394 . S
C299 C304 1.373 . S
C300 C299 1.394 . S
C300 C301 1.380 . S
C300 H328 0.930 . S
C301 C300 1.380 . S
C301 C302 1.376 . S
C301 H329 0.930 . S
C302 C301 1.376 . S
C302 C303 1.370 . S
C303 C302 1.370 . S
C303 C304 1.396 . S
C303 H330 0.929 . S
C304 C299 1.373 . S
C304 C303 1.396 . S
C304 H331 0.929 . S
C305 O318 1.240 . S
C305 O319 1.289 . S
C306 O320 1.258 . S
C306 O321 1.256 . S
C307 La297 2.928 1_565 S
C307 C308 1.503 . S
C307 O322 1.286 . S
C307 O323 1.243 . S
C308 C307 1.503 . S
C308 C309 1.394 . S
C308 C313 1.373 . S
C309 C308 1.394 . S
C309 C310 1.380 . S
C309 H332 0.930 . S
C310 C309 1.380 . S
C310 C311 1.376 . S
C310 H333 0.930 . S
C311 C310 1.376 . S
C311 C312 1.370 . S
C312 C311 1.370 . S
C312 C313 1.396 . S
C312 H334 0.929 . S
C313 C308 1.373 . S
C313 C312 1.396 . S
C313 H335 0.929 . S
C314 O324 1.240 . S
C314 O325 1.311 . S
C315 O326 1.258 . S
C315 O327 1.256 . S
O316 La296 2.521 . S
O316 C298 1.261 . S
O317 La296 2.628 . S
O317 C298 1.243 . S
O318 La296 2.554 1_565 S
O318 C305 1.240 . S
O319 La296 2.757 1_565 S
O319 La297 2.482 1_564 S
O319 C305 1.289 . S
O320 La296 2.470 . S
O320 C306 1.258 . S
O321 La297 2.503 1_554 S
O321 C306 1.256 . S
O322 La297 2.519 1_565 S
O322 C307 1.286 . S
O323 La297 2.628 1_565 S
O323 C307 1.243 . S
O324 La297 2.554 . S
O324 C314 1.240 . S
O325 La296 2.463 1_556 S
O325 La297 2.766 . S
O325 C314 1.311 . S
O326 La297 2.470 1_565 S
O326 C315 1.258 . S
O327 La296 2.503 1_566 S
O327 C315 1.256 . S
H328 C300 0.930 . S
H329 C301 0.930 . S
H330 C303 0.929 . S
H331 C304 0.929 . S
H332 C309 0.930 . S
H333 C310 0.930 . S
H334 C312 0.929 . S
H335 C313 0.929 . S
La336 C338 2.928 . S
La336 O356 2.521 . S
La336 O357 2.628 . S
La336 O358 2.554 . S
La336 O359 2.757 . S
La336 O360 2.470 . S
La336 O365 2.482 . S
La336 O367 2.503 . S
La337 C347 2.928 . S
La337 O359 2.482 . S
La337 O361 2.503 . S
La337 O362 2.521 . S
La337 O363 2.628 . S
La337 O364 2.554 . S
La337 O365 2.757 . S
La337 O366 2.470 . S
C338 La336 2.928 . S
C338 C339 1.503 . S
C338 O356 1.261 . S
C338 O357 1.243 . S
C339 C338 1.503 . S
C339 C340 1.394 . S
C339 C344 1.373 . S
C340 C339 1.394 . S
C340 C341 1.380 . S
C340 H368 0.930 . S
C341 C340 1.380 . S
C341 C342 1.376 . S
C341 H369 0.930 . S
C342 C341 1.376 . S
C342 C343 1.370 . S
C343 C342 1.370 . S
C343 C344 1.396 . S
C343 H370 0.929 . S
C344 C339 1.373 . S
C344 C343 1.396 . S
C344 H371 0.929 . S
C345 O358 1.240 . S
C345 O359 1.289 . S
C346 O360 1.258 . S
C346 O361 1.256 . S
C347 La337 2.928 . S
C347 C348 1.503 . S
C347 O362 1.261 . S
C347 O363 1.243 . S
C348 C347 1.503 . S
C348 C349 1.394 . S
C348 C353 1.373 . S
C349 C348 1.394 . S
C349 C350 1.380 . S
C349 H372 0.930 . S
C350 C349 1.380 . S
C350 C351 1.376 . S
C350 H373 0.930 . S
C351 C350 1.376 . S
C351 C352 1.370 . S
C352 C351 1.370 . S
C352 C353 1.396 . S
C352 H374 0.929 . S
C353 C348 1.373 . S
C353 C352 1.396 . S
C353 H375 0.929 . S
C354 O364 1.240 . S
C354 O365 1.289 . S
C355 O366 1.258 . S
C355 O367 1.256 . S
O356 La336 2.521 . S
O356 C338 1.261 . S
O357 La336 2.628 . S
O357 C338 1.243 . S
O358 La336 2.554 . S
O358 C345 1.240 . S
O359 La336 2.757 . S
O359 La337 2.482 . S
O359 C345 1.289 . S
O360 La336 2.470 . S
O360 C346 1.258 . S
O361 La337 2.503 . S
O361 C346 1.256 . S
O362 La337 2.521 . S
O362 C347 1.261 . S
O363 La337 2.628 . S
O363 C347 1.243 . S
O364 La337 2.554 . S
O364 C354 1.240 . S
O365 La336 2.482 . S
O365 La337 2.757 . S
O365 C354 1.289 . S
O366 La337 2.470 . S
O366 C355 1.258 . S
O367 La336 2.503 . S
O367 C355 1.256 . S
H368 C340 0.930 . S
H369 C341 0.930 . S
H370 C343 0.929 . S
H371 C344 0.929 . S
H372 C349 0.930 . S
H373 C350 0.930 . S
H374 C352 0.929 . S
H375 C353 0.929 . S
La376 C378 2.928 . S
La376 O396 2.521 . S
La376 O397 2.628 . S
La376 O398 2.554 1_455 S
La376 O399 2.757 1_455 S
La376 O400 2.470 . S
La376 O405 2.482 1_554 S
La376 O407 2.503 1_454 S
La377 C387 2.928 . S
La377 O399 2.482 1_556 S
La377 O401 2.503 1_656 S
La377 O402 2.521 . S
La377 O403 2.628 . S
La377 O404 2.554 1_655 S
La377 O405 2.757 1_655 S
La377 O406 2.470 . S
C378 La376 2.928 . S
C378 C379 1.503 . S
C378 O396 1.261 . S
C378 O397 1.243 . S
C379 C378 1.503 . S
C379 C380 1.394 . S
C379 C384 1.373 . S
C380 C379 1.394 . S
C380 C381 1.380 . S
C380 H408 0.930 . S
C381 C380 1.380 . S
C381 C382 1.376 . S
C381 H409 0.930 . S
C382 C381 1.376 . S
C382 C383 1.370 . S
C383 C382 1.370 . S
C383 C384 1.396 . S
C383 H410 0.929 . S
C384 C379 1.373 . S
C384 C383 1.396 . S
C384 H411 0.929 . S
C385 O398 1.240 . S
C385 O399 1.289 . S
C386 O400 1.258 . S
C386 O401 1.256 . S
C387 La377 2.928 . S
C387 C388 1.503 . S
C387 O402 1.261 . S
C387 O403 1.243 . S
C388 C387 1.503 . S
C388 C389 1.394 . S
C388 C393 1.373 . S
C389 C388 1.394 . S
C389 C390 1.380 . S
C389 H412 0.930 . S
C390 C389 1.380 . S
C390 C391 1.376 . S
C390 H413 0.930 . S
C391 C390 1.376 . S
C391 C392 1.370 . S
C392 C391 1.370 . S
C392 C393 1.396 . S
C392 H414 0.929 . S
C393 C388 1.373 . S
C393 C392 1.396 . S
C393 H415 0.929 . S
C394 O404 1.240 . S
C394 O405 1.289 . S
C395 O406 1.258 . S
C395 O407 1.256 . S
O396 La376 2.521 . S
O396 C378 1.261 . S
O397 La376 2.628 . S
O397 C378 1.243 . S
O398 La376 2.554 1_655 S
O398 C385 1.240 . S
O399 La376 2.757 1_655 S
O399 La377 2.482 1_554 S
O399 C385 1.289 . S
O400 La376 2.470 . S
O400 C386 1.258 . S
O401 La377 2.503 1_454 S
O401 C386 1.256 . S
O402 La377 2.521 . S
O402 C387 1.261 . S
O403 La377 2.628 . S
O403 C387 1.243 . S
O404 La377 2.554 1_455 S
O404 C394 1.240 . S
O405 La376 2.482 1_556 S
O405 La377 2.757 1_455 S
O405 C394 1.289 . S
O406 La377 2.470 . S
O406 C395 1.258 . S
O407 La376 2.503 1_656 S
O407 C395 1.256 . S
H408 C380 0.930 . S
H409 C381 0.930 . S
H410 C383 0.929 . S
H411 C384 0.929 . S
H412 C389 0.930 . S
H413 C390 0.930 . S
H414 C392 0.929 . S
H415 C393 0.929 . S
H416 C422 0.930 . S
H417 C426 0.930 . S
H418 C431 0.929 . S
H419 C429 0.929 . S
H420 C424 0.929 . S
H421 C430 0.929 . S
C422 H416 0.930 . S
C422 C423 1.367 . S
C422 C430 1.378 . S
C423 C422 1.367 . S
C423 C431 1.433 . S
C424 H420 0.929 . S
C424 C426 1.378 . S
C424 C428 1.350 . S
C425 C428 1.463 . S
C425 C430 1.350 . S
C425 N433 1.427 . S
C426 H417 0.930 . S
C426 C424 1.378 . S
C426 C427 1.367 . S
C427 C426 1.367 . S
C427 C429 1.433 . S
C428 C424 1.350 . S
C428 C425 1.463 . S
C428 N432 1.427 . S
C429 H419 0.929 . S
C429 C427 1.433 . S
C429 N432 1.384 . S
C430 H421 0.929 . S
C430 C422 1.378 . S
C430 C425 1.350 . S
C431 H418 0.929 . S
C431 C423 1.433 . S
C431 N433 1.384 . S
N432 C428 1.427 . S
N432 C429 1.384 . S
N433 C425 1.427 . S
N433 C431 1.384 . S
H434 C440 0.930 . S
H435 C444 0.930 . S
H436 C449 0.929 . S
H437 C447 0.929 . S
H438 C442 0.929 . S
H439 C448 0.929 . S
C440 H434 0.930 . S
C440 C441 1.367 . S
C440 C448 1.378 . S
C441 C440 1.367 . S
C441 C449 1.433 . S
C442 H438 0.929 . S
C442 C444 1.378 . S
C442 C446 1.350 . S
C443 C446 1.463 . S
C443 C448 1.350 . S
C443 N451 1.427 . S
C444 H435 0.930 . S
C444 C442 1.378 . S
C444 C445 1.367 . S
C445 C444 1.367 . S
C445 C447 1.433 . S
C446 C442 1.350 . S
C446 C443 1.463 . S
C446 N450 1.427 . S
C447 H437 0.929 . S
C447 C445 1.433 . S
C447 N450 1.384 . S
C448 H439 0.929 . S
C448 C440 1.378 . S
C448 C443 1.350 . S
C449 H436 0.929 . S
C449 C441 1.433 . S
C449 N451 1.384 . S
N450 C446 1.427 . S
N450 C447 1.384 . S
N451 C443 1.427 . S
N451 C449 1.384 . S
H452 C458 0.930 . S
H453 C462 0.930 . S
H454 C467 0.929 . S
H455 C465 0.929 . S
H456 C460 0.929 . S
H457 C466 0.929 . S
C458 H452 0.930 . S
C458 C459 1.367 . S
C458 C466 1.378 . S
C459 C458 1.367 . S
C459 C467 1.433 . S
C460 H456 0.929 . S
C460 C462 1.378 . S
C460 C464 1.350 . S
C461 C464 1.463 . S
C461 C466 1.350 . S
C461 N469 1.427 . S
C462 H453 0.930 . S
C462 C460 1.378 . S
C462 C463 1.367 . S
C463 C462 1.367 . S
C463 C465 1.433 . S
C464 C460 1.350 . S
C464 C461 1.463 . S
C464 N468 1.427 . S
C465 H455 0.929 . S
C465 C463 1.433 . S
C465 N468 1.384 . S
C466 H457 0.929 . S
C466 C458 1.378 . S
C466 C461 1.350 . S
C467 H454 0.929 . S
C467 C459 1.433 . S
C467 N469 1.384 . S
N468 C464 1.427 . S
N468 C465 1.384 . S
N469 C461 1.427 . S
N469 C467 1.384 . S
H470 C476 0.930 . S
H471 C480 0.930 . S
H472 C485 0.929 . S
H473 C483 0.929 . S
H474 C478 0.929 . S
H475 C484 0.929 . S
C476 H470 0.930 . S
C476 C477 1.367 . S
C476 C484 1.378 . S
C477 C476 1.367 . S
C477 C485 1.433 . S
C478 H474 0.929 . S
C478 C480 1.378 . S
C478 C482 1.350 . S
C479 C482 1.463 . S
C479 C484 1.350 . S
C479 N487 1.427 . S
C480 H471 0.930 . S
C480 C478 1.378 . S
C480 C481 1.367 . S
C481 C480 1.367 . S
C481 C483 1.433 . S
C482 C478 1.350 . S
C482 C479 1.463 . S
C482 N486 1.427 . S
C483 H473 0.929 . S
C483 C481 1.433 . S
C483 N486 1.384 . S
C484 H475 0.929 . S
C484 C476 1.378 . S
C484 C479 1.350 . S
C485 H472 0.929 . S
C485 C477 1.433 . S
C485 N487 1.384 . S
N486 C482 1.427 . S
N486 C483 1.384 . S
N487 C479 1.427 . S
N487 C485 1.384 . S
H488 C494 0.930 . S
H489 C498 0.930 . S
H490 C503 0.929 . S
H491 C501 0.929 . S
H492 C496 0.929 . S
H493 C502 0.929 . S
C494 H488 0.930 . S
C494 C495 1.367 . S
C494 C502 1.378 . S
C495 C494 1.367 . S
C495 C503 1.433 . S
C496 H492 0.929 . S
C496 C498 1.378 . S
C496 C500 1.350 . S
C497 C500 1.463 . S
C497 C502 1.350 . S
C497 N505 1.427 . S
C498 H489 0.930 . S
C498 C496 1.378 . S
C498 C499 1.367 . S
C499 C498 1.367 . S
C499 C501 1.433 . S
C500 C496 1.350 . S
C500 C497 1.463 . S
C500 N504 1.427 . S
C501 H491 0.929 . S
C501 C499 1.433 . S
C501 N504 1.384 . S
C502 H493 0.929 . S
C502 C494 1.378 . S
C502 C497 1.350 . S
C503 H490 0.929 . S
C503 C495 1.433 . S
C503 N505 1.384 . S
N504 C500 1.427 . S
N504 C501 1.384 . S
N505 C497 1.427 . S
N505 C503 1.384 . S
H506 C512 0.930 . S
H507 C516 0.918 1_545 S
H508 C521 0.929 . S
H509 C519 0.929 . S
H510 C514 0.929 . S
H511 C520 0.929 . S
C512 H506 0.930 . S
C512 C513 1.367 . S
C512 C520 1.378 . S
C513 C512 1.367 . S
C513 C521 1.433 . S
C514 H510 0.929 . S
C514 C516 1.378 . S
C514 C518 1.350 . S
C515 C518 1.463 . S
C515 C520 1.350 . S
C515 N523 1.427 . S
C516 H507 0.918 1_565 S
C516 C514 1.378 . S
C516 C517 1.367 . S
C517 C516 1.367 . S
C517 C519 1.433 . S
C518 C514 1.350 . S
C518 C515 1.463 . S
C518 N522 1.427 . S
C519 H509 0.929 . S
C519 C517 1.433 . S
C519 N522 1.384 . S
C520 H511 0.929 . S
C520 C512 1.378 . S
C520 C515 1.350 . S
C521 H508 0.929 . S
C521 C513 1.433 . S
C521 N523 1.384 . S
N522 C518 1.427 . S
N522 C519 1.384 . S
N523 C515 1.427 . S
N523 C521 1.384 . S
H524 C530 0.930 . S
H525 C534 0.930 . S
H526 C539 0.929 . S
H527 C537 0.929 . S
H528 C532 0.929 . S
H529 C538 0.929 . S
C530 H524 0.930 . S
C530 C531 1.367 . S
C530 C538 1.378 . S
C531 C530 1.367 . S
C531 C539 1.433 . S
C532 H528 0.929 . S
C532 C534 1.378 . S
C532 C536 1.350 . S
C533 C536 1.463 . S
C533 C538 1.350 . S
C533 N541 1.427 . S
C534 H525 0.930 . S
C534 C532 1.378 . S
C534 C535 1.367 . S
C535 C534 1.367 . S
C535 C537 1.433 . S
C536 C532 1.350 . S
C536 C533 1.463 . S
C536 N540 1.427 . S
C537 H527 0.929 . S
C537 C535 1.433 . S
C537 N540 1.384 . S
C538 H529 0.929 . S
C538 C530 1.378 . S
C538 C533 1.350 . S
C539 H526 0.929 . S
C539 C531 1.433 . S
C539 N541 1.384 . S
N540 C536 1.427 . S
N540 C537 1.384 . S
N541 C533 1.427 . S
N541 C539 1.384 . S
H542 C548 0.930 . S
H543 C552 0.930 . S
H544 C557 0.929 . S
H545 C555 0.929 . S
H546 C550 0.929 . S
H547 C556 0.929 . S
C548 H542 0.930 . S
C548 C549 1.367 . S
C548 C556 1.378 . S
C549 C548 1.367 . S
C549 C557 1.433 . S
C550 H546 0.929 . S
C550 C552 1.378 . S
C550 C554 1.350 . S
C551 C554 1.463 . S
C551 C556 1.350 . S
C551 N559 1.427 . S
C552 H543 0.930 . S
C552 C550 1.378 . S
C552 C553 1.367 . S
C553 C552 1.367 . S
C553 C555 1.433 . S
C554 C550 1.350 . S
C554 C551 1.463 . S
C554 N558 1.427 . S
C555 H545 0.929 . S
C555 C553 1.433 . S
C555 N558 1.384 . S
C556 H547 0.929 . S
C556 C548 1.378 . S
C556 C551 1.350 . S
C557 H544 0.929 . S
C557 C549 1.433 . S
C557 N559 1.384 . S
N558 C554 1.427 . S
N558 C555 1.384 . S
N559 C551 1.427 . S
N559 C557 1.384 . S
H560 C566 0.930 . S
H561 C570 0.930 . S
H562 C575 0.929 . S
H563 C573 0.929 . S
H564 C568 0.929 . S
H565 C574 0.929 . S
C566 H560 0.930 . S
C566 C567 1.367 . S
C566 C574 1.378 . S
C567 C566 1.367 . S
C567 C575 1.433 . S
C568 H564 0.929 . S
C568 C570 1.378 . S
C568 C572 1.350 . S
C569 C572 1.463 . S
C569 C574 1.350 . S
C569 N577 1.427 . S
C570 H561 0.930 . S
C570 C568 1.378 . S
C570 C571 1.367 . S
C571 C570 1.367 . S
C571 C573 1.433 . S
C572 C568 1.350 . S
C572 C569 1.463 . S
C572 N576 1.427 . S
C573 H563 0.929 . S
C573 C571 1.433 . S
C573 N576 1.384 . S
C574 H565 0.929 . S
C574 C566 1.378 . S
C574 C569 1.350 . S
C575 H562 0.929 . S
C575 C567 1.433 . S
C575 N577 1.384 . S
N576 C572 1.427 . S
N576 C573 1.384 . S
N577 C569 1.427 . S
N577 C575 1.384 . S
H578 C584 0.930 . S
H579 C588 0.930 . S
H580 C593 0.929 . S
H581 C591 0.929 . S
H582 C586 0.929 . S
H583 C592 0.929 . S
C584 H578 0.930 . S
C584 C585 1.367 . S
C584 C592 1.378 . S
C585 C584 1.367 . S
C585 C593 1.433 . S
C586 H582 0.929 . S
C586 C588 1.378 . S
C586 C590 1.350 . S
C587 C590 1.463 . S
C587 C592 1.350 . S
C587 N595 1.427 . S
C588 H579 0.930 . S
C588 C586 1.378 . S
C588 C589 1.367 . S
C589 C588 1.367 . S
C589 C591 1.433 . S
C590 C586 1.350 . S
C590 C587 1.463 . S
C590 N594 1.427 . S
C591 H581 0.929 . S
C591 C589 1.433 . S
C591 N594 1.384 . S
C592 H583 0.929 . S
C592 C584 1.378 . S
C592 C587 1.350 . S
C593 H580 0.929 . S
C593 C585 1.433 . S
C593 N595 1.384 . S
N594 C590 1.427 . S
N594 C591 1.384 . S
N595 C587 1.427 . S
N595 C593 1.384 . S
H596 C602 0.930 . S
H597 C606 0.930 . S
H598 C611 0.929 . S
H599 C609 0.929 . S
H600 C604 0.929 . S
H601 C610 0.929 . S
C602 H596 0.930 . S
C602 C603 1.367 . S
C602 C610 1.378 . S
C603 C602 1.367 . S
C603 C611 1.433 . S
C604 H600 0.929 . S
C604 C606 1.378 . S
C604 C608 1.350 . S
C605 C608 1.463 . S
C605 C610 1.350 . S
C605 N613 1.427 . S
C606 H597 0.930 . S
C606 C604 1.378 . S
C606 C607 1.367 . S
C607 C606 1.367 . S
C607 C609 1.433 . S
C608 C604 1.350 . S
C608 C605 1.463 . S
C608 N612 1.427 . S
C609 H599 0.929 . S
C609 C607 1.433 . S
C609 N612 1.384 . S
C610 H601 0.929 . S
C610 C602 1.378 . S
C610 C605 1.350 . S
C611 H598 0.929 . S
C611 C603 1.433 . S
C611 N613 1.384 . S
N612 C608 1.427 . S
N612 C609 1.384 . S
N613 C605 1.427 . S
N613 C611 1.384 . S
H614 C620 0.930 . S
H615 C624 0.930 . S
H616 C629 0.929 . S
H617 C627 0.929 . S
H618 C622 0.929 . S
H619 C628 0.929 . S
C620 H614 0.930 . S
C620 C621 1.367 . S
C620 C628 1.378 . S
C621 C620 1.367 . S
C621 C629 1.433 . S
C622 H618 0.929 . S
C622 C624 1.378 . S
C622 C626 1.350 . S
C623 C626 1.463 . S
C623 C628 1.350 . S
C623 N631 1.427 . S
C624 H615 0.930 . S
C624 C622 1.378 . S
C624 C625 1.367 . S
C625 C624 1.367 . S
C625 C627 1.433 . S
C626 C622 1.350 . S
C626 C623 1.463 . S
C626 N630 1.427 . S
C627 H617 0.929 . S
C627 C625 1.433 . S
C627 N630 1.384 . S
C628 H619 0.929 . S
C628 C620 1.378 . S
C628 C623 1.350 . S
C629 H616 0.929 . S
C629 C621 1.433 . S
C629 N631 1.384 . S
N630 C626 1.427 . S
N630 C627 1.384 . S
N631 C623 1.427 . S
N631 C629 1.384 . S
H632 C638 0.930 . S
H633 C642 0.930 . S
H634 C647 0.929 . S
H635 C645 0.929 . S
H636 C640 0.929 . S
H637 C646 0.929 . S
C638 H632 0.930 . S
C638 C639 1.367 . S
C638 C646 1.378 . S
C639 C638 1.367 . S
C639 C647 1.433 . S
C640 H636 0.929 . S
C640 C642 1.378 . S
C640 C644 1.350 . S
C641 C644 1.463 . S
C641 C646 1.350 . S
C641 N649 1.427 . S
C642 H633 0.930 . S
C642 C640 1.378 . S
C642 C643 1.367 . S
C643 C642 1.367 . S
C643 C645 1.433 . S
C644 C640 1.350 . S
C644 C641 1.463 . S
C644 N648 1.427 . S
C645 H635 0.929 . S
C645 C643 1.433 . S
C645 N648 1.384 . S
C646 H637 0.929 . S
C646 C638 1.378 . S
C646 C641 1.350 . S
C647 H634 0.929 . S
C647 C639 1.433 . S
C647 N649 1.384 . S
N648 C644 1.427 . S
N648 C645 1.384 . S
N649 C641 1.427 . S
N649 C647 1.384 . S
H650 C656 0.930 . S
H651 C660 0.930 . S
H652 C665 0.929 . S
H653 C663 0.929 . S
H654 C658 0.929 . S
H655 C664 0.929 . S
C656 H650 0.930 . S
C656 C657 1.367 . S
C656 C664 1.378 . S
C657 C656 1.367 . S
C657 C665 1.433 . S
C658 H654 0.929 . S
C658 C660 1.378 . S
C658 C662 1.350 . S
C659 C662 1.463 . S
C659 C664 1.350 . S
C659 N667 1.427 . S
C660 H651 0.930 . S
C660 C658 1.378 . S
C660 C661 1.367 . S
C661 C660 1.367 . S
C661 C663 1.433 . S
C662 C658 1.350 . S
C662 C659 1.463 . S
C662 N666 1.427 . S
C663 H653 0.929 . S
C663 C661 1.433 . S
C663 N666 1.384 . S
C664 H655 0.929 . S
C664 C656 1.378 . S
C664 C659 1.350 . S
C665 H652 0.929 . S
C665 C657 1.433 . S
C665 N667 1.384 . S
N666 C662 1.427 . S
N666 C663 1.384 . S
N667 C659 1.427 . S
N667 C665 1.384 . S
H668 C674 0.930 . S
H669 C678 0.930 . S
H670 C683 0.929 . S
H671 C681 0.929 . S
H672 C676 0.929 . S
H673 C682 0.929 . S
C674 H668 0.930 . S
C674 C675 1.367 . S
C674 C682 1.378 . S
C675 C674 1.367 . S
C675 C683 1.433 . S
C676 H672 0.929 . S
C676 C678 1.378 . S
C676 C680 1.350 . S
C677 C680 1.463 . S
C677 C682 1.350 . S
C677 N685 1.427 . S
C678 H669 0.930 . S
C678 C676 1.378 . S
C678 C679 1.367 . S
C679 C678 1.367 . S
C679 C681 1.433 . S
C680 C676 1.350 . S
C680 C677 1.463 . S
C680 N684 1.427 . S
C681 H671 0.929 . S
C681 C679 1.433 . S
C681 N684 1.384 . S
C682 H673 0.929 . S
C682 C674 1.378 . S
C682 C677 1.350 . S
C683 H670 0.929 . S
C683 C675 1.433 . S
C683 N685 1.384 . S
N684 C680 1.427 . S
N684 C681 1.384 . S
N685 C677 1.427 . S
N685 C683 1.384 . S
H686 C692 0.930 . S
H687 C696 0.930 . S
H688 C701 0.929 . S
H689 C699 0.929 . S
H690 C694 0.929 . S
H691 C700 0.929 . S
C692 H686 0.930 . S
C692 C693 1.367 . S
C692 C700 1.378 . S
C693 C692 1.367 . S
C693 C701 1.433 . S
C694 H690 0.929 . S
C694 C696 1.378 . S
C694 C698 1.350 . S
C695 C698 1.463 . S
C695 C700 1.350 . S
C695 N703 1.427 . S
C696 H687 0.930 . S
C696 C694 1.378 . S
C696 C697 1.367 . S
C697 C696 1.367 . S
C697 C699 1.433 . S
C698 C694 1.350 . S
C698 C695 1.463 . S
C698 N702 1.427 . S
C699 H689 0.929 . S
C699 C697 1.433 . S
C699 N702 1.384 . S
C700 H691 0.929 . S
C700 C692 1.378 . S
C700 C695 1.350 . S
C701 H688 0.929 . S
C701 C693 1.433 . S
C701 N703 1.384 . S
N702 C698 1.427 . S
N702 C699 1.384 . S
N703 C695 1.427 . S
N703 C701 1.384 . S
H704 C710 0.930 . S
H705 C714 0.930 . S
H706 C719 0.929 . S
H707 C717 0.929 . S
H708 C712 0.929 . S
H709 C718 0.929 . S
C710 H704 0.930 . S
C710 C711 1.367 . S
C710 C718 1.378 . S
C711 C710 1.367 . S
C711 C719 1.433 . S
C712 H708 0.929 . S
C712 C714 1.378 . S
C712 C716 1.350 . S
C713 C716 1.463 . S
C713 C718 1.350 . S
C713 N721 1.427 . S
C714 H705 0.930 . S
C714 C712 1.378 . S
C714 C715 1.367 . S
C715 C714 1.367 . S
C715 C717 1.433 . S
C716 C712 1.350 . S
C716 C713 1.463 . S
C716 N720 1.427 . S
C717 H707 0.929 . S
C717 C715 1.433 . S
C717 N720 1.384 . S
C718 H709 0.929 . S
C718 C710 1.378 . S
C718 C713 1.350 . S
C719 H706 0.929 . S
C719 C711 1.433 . S
C719 N721 1.384 . S
N720 C716 1.427 . S
N720 C717 1.384 . S
N721 C713 1.427 . S
N721 C719 1.384 . S
H722 C728 0.930 . S
H723 C732 0.930 . S
H724 C737 0.929 . S
H725 C735 0.929 . S
H726 C730 0.929 . S
H727 C736 0.929 . S
C728 H722 0.930 . S
C728 C729 1.367 . S
C728 C736 1.378 . S
C729 C728 1.367 . S
C729 C737 1.433 . S
C730 H726 0.929 . S
C730 C732 1.378 . S
C730 C734 1.350 . S
C731 C734 1.463 . S
C731 C736 1.350 . S
C731 N739 1.427 . S
C732 H723 0.930 . S
C732 C730 1.378 . S
C732 C733 1.367 . S
C733 C732 1.367 . S
C733 C735 1.433 . S
C734 C730 1.350 . S
C734 C731 1.463 . S
C734 N738 1.427 . S
C735 H725 0.929 . S
C735 C733 1.433 . S
C735 N738 1.384 . S
C736 H727 0.929 . S
C736 C728 1.378 . S
C736 C731 1.350 . S
C737 H724 0.929 . S
C737 C729 1.433 . S
C737 N739 1.384 . S
N738 C734 1.427 . S
N738 C735 1.384 . S
N739 C731 1.427 . S
N739 C737 1.384 . S
H740 C746 0.930 . S
H741 C750 0.930 . S
H742 C755 0.929 . S
H743 C753 0.929 . S
H744 C748 0.929 . S
H745 C754 0.929 . S
C746 H740 0.930 . S
C746 C747 1.367 . S
C746 C754 1.378 . S
C747 C746 1.367 . S
C747 C755 1.433 . S
C748 H744 0.929 . S
C748 C750 1.378 . S
C748 C752 1.350 . S
C749 C752 1.463 . S
C749 C754 1.350 . S
C749 N757 1.427 . S
C750 H741 0.930 . S
C750 C748 1.378 . S
C750 C751 1.367 . S
C751 C750 1.367 . S
C751 C753 1.433 . S
C752 C748 1.350 . S
C752 C749 1.463 . S
C752 N756 1.427 . S
C753 H743 0.929 . S
C753 C751 1.433 . S
C753 N756 1.384 . S
C754 H745 0.929 . S
C754 C746 1.378 . S
C754 C749 1.350 . S
C755 H742 0.929 . S
C755 C747 1.433 . S
C755 N757 1.384 . S
N756 C752 1.427 . S
N756 C753 1.384 . S
N757 C749 1.427 . S
N757 C755 1.384 . S
H758 C764 0.930 . S
H759 C768 0.930 . S
H760 C773 0.929 . S
H761 C771 0.929 . S
H762 C766 0.929 . S
H763 C772 0.929 . S
C764 H758 0.930 . S
C764 C765 1.367 . S
C764 C772 1.378 . S
C765 C764 1.367 . S
C765 C773 1.433 . S
C766 H762 0.929 . S
C766 C768 1.378 . S
C766 C770 1.350 . S
C767 C770 1.463 . S
C767 C772 1.350 . S
C767 N775 1.427 . S
C768 H759 0.930 . S
C768 C766 1.378 . S
C768 C769 1.367 . S
C769 C768 1.367 . S
C769 C771 1.433 . S
C770 C766 1.350 . S
C770 C767 1.463 . S
C770 N774 1.427 . S
C771 H761 0.929 . S
C771 C769 1.433 . S
C771 N774 1.384 . S
C772 H763 0.929 . S
C772 C764 1.378 . S
C772 C767 1.350 . S
C773 H760 0.929 . S
C773 C765 1.433 . S
C773 N775 1.384 . S
N774 C770 1.427 . S
N774 C771 1.384 . S
N775 C767 1.427 . S
N775 C773 1.384 . S
H776 C782 0.930 . S
H777 C786 0.930 . S
H778 C791 0.929 . S
H779 C789 0.929 . S
H780 C784 0.929 . S
H781 C790 0.929 . S
C782 H776 0.930 . S
C782 C783 1.367 . S
C782 C790 1.378 . S
C783 C782 1.367 . S
C783 C791 1.433 . S
C784 H780 0.929 . S
C784 C786 1.378 . S
C784 C788 1.350 . S
C785 C788 1.463 . S
C785 C790 1.350 . S
C785 N793 1.427 . S
C786 H777 0.930 . S
C786 C784 1.378 . S
C786 C787 1.367 . S
C787 C786 1.367 . S
C787 C789 1.433 . S
C788 C784 1.350 . S
C788 C785 1.463 . S
C788 N792 1.427 . S
C789 H779 0.929 . S
C789 C787 1.433 . S
C789 N792 1.384 . S
C790 H781 0.929 . S
C790 C782 1.378 . S
C790 C785 1.350 . S
C791 H778 0.929 . S
C791 C783 1.433 . S
C791 N793 1.384 . S
N792 C788 1.427 . S
N792 C789 1.384 . S
N793 C785 1.427 . S
N793 C791 1.384 . S
H794 C800 0.930 . S
H795 C804 0.930 . S
H796 C809 0.929 . S
H797 C807 0.929 . S
H798 C802 0.929 . S
H799 C808 0.929 . S
C800 H794 0.930 . S
C800 C801 1.367 . S
C800 C808 1.378 . S
C801 C800 1.367 . S
C801 C809 1.433 . S
C802 H798 0.929 . S
C802 C804 1.378 . S
C802 C806 1.350 . S
C803 C806 1.463 . S
C803 C808 1.350 . S
C803 N811 1.427 . S
C804 H795 0.930 . S
C804 C802 1.378 . S
C804 C805 1.367 . S
C805 C804 1.367 . S
C805 C807 1.433 . S
C806 C802 1.350 . S
C806 C803 1.463 . S
C806 N810 1.427 . S
C807 H797 0.929 . S
C807 C805 1.433 . S
C807 N810 1.384 . S
C808 H799 0.929 . S
C808 C800 1.378 . S
C808 C803 1.350 . S
C809 H796 0.929 . S
C809 C801 1.433 . S
C809 N811 1.384 . S
N810 C806 1.427 . S
N810 C807 1.384 . S
N811 C803 1.427 . S
N811 C809 1.384 . S
H812 C818 0.930 . S
H813 C822 0.930 . S
H814 C827 0.929 . S
H815 C825 0.929 . S
H816 C820 0.929 . S
H817 C826 0.929 . S
C818 H812 0.930 . S
C818 C819 1.367 . S
C818 C826 1.378 . S
C819 C818 1.367 . S
C819 C827 1.433 . S
C820 H816 0.929 . S
C820 C822 1.378 . S
C820 C824 1.350 . S
C821 C824 1.463 . S
C821 C826 1.350 . S
C821 N829 1.427 . S
C822 H813 0.930 . S
C822 C820 1.378 . S
C822 C823 1.367 . S
C823 C822 1.367 . S
C823 C825 1.433 . S
C824 C820 1.350 . S
C824 C821 1.463 . S
C824 N828 1.427 . S
C825 H815 0.929 . S
C825 C823 1.433 . S
C825 N828 1.384 . S
C826 H817 0.929 . S
C826 C818 1.378 . S
C826 C821 1.350 . S
C827 H814 0.929 . S
C827 C819 1.433 . S
C827 N829 1.384 . S
N828 C824 1.427 . S
N828 C825 1.384 . S
N829 C821 1.427 . S
N829 C827 1.384 . S
H830 C836 0.930 . S
H831 C840 0.930 . S
H832 C845 0.929 . S
H833 C843 0.929 . S
H834 C838 0.929 . S
H835 C844 0.929 . S
C836 H830 0.930 . S
C836 C837 1.367 . S
C836 C844 1.378 . S
C837 C836 1.367 . S
C837 C845 1.433 . S
C838 H834 0.929 . S
C838 C840 1.378 . S
C838 C842 1.350 . S
C839 C842 1.463 . S
C839 C844 1.350 . S
C839 N847 1.427 . S
C840 H831 0.930 . S
C840 C838 1.378 . S
C840 C841 1.367 . S
C841 C840 1.367 . S
C841 C843 1.433 . S
C842 C838 1.350 . S
C842 C839 1.463 . S
C842 N846 1.427 . S
C843 H833 0.929 . S
C843 C841 1.433 . S
C843 N846 1.384 . S
C844 H835 0.929 . S
C844 C836 1.378 . S
C844 C839 1.350 . S
C845 H832 0.929 . S
C845 C837 1.433 . S
C845 N847 1.384 . S
N846 C842 1.427 . S
N846 C843 1.384 . S
N847 C839 1.427 . S
N847 C845 1.384 . S
C423 C29 1.183 . S
C427 C262 1.186 . S
C441 C49 0.884 . S
C445 C311 0.902 . S
C463 C346 2.522 . S
C459 C93 2.541 . S
C477 C119 2.325 . S
C481 C385 2.313 . S
C499 C306 2.279 . S
C495 C17 2.254 . S
C517 C265 0.826 . S
C513 C61 0.853 . S
C535 C395 1.880 . S
C531 C81 1.924 . S
C553 C354 1.681 . S
C549 C125 1.664 . S
C567 C23 1.580 . S
C571 C382 1.586 . S
C589 C314 2.305 . S
C585 C87 2.359 . S
C603 C113 2.345 . S
C607 C275 2.367 . S
C621 C55 0.850 . S
C625 C351 0.858 . S
C643 C271 1.168 . S
C639 C157 1.032 . S
C657 C189 0.942 . S
C661 C302 0.955 . S
C675 C221 2.497 . S
C679 C355 2.481 . S
C693 C253 2.401 . S
C697 C394 2.405 . S
C711 C145 2.112 . S
C715 C315 2.363 . S
C733 C274 0.767 . S
C729 C183 0.777 . S
C751 C386 1.923 . S
C747 C209 1.932 . S
C769 C345 1.639 . S
C765 C247 1.620 . S
C783 C151 1.454 . S
C787 C391 1.604 . S
C805 C305 2.305 . S
C801 C215 2.355 . S
C823 C266 2.333 . S
C819 C241 2.289 . S
C837 C177 0.826 . S
C841 C342 0.840 . S
