# Generated by pormake.
# Topology ctn, (3,4)-cn, num edge types: 1
# Building blocks:
#     Node 0, Type 0, BuildingBlock: VETTIZ_charged_linker_0, # of connection points: 3
#     Node 1, Type 0, BuildingBlock: VETTIZ_charged_linker_0, # of connection points: 3
#     Node 2, Type 0, BuildingBlock: VETTIZ_charged_linker_0, # of connection points: 3
#     Node 3, Type 0, BuildingBlock: VETTIZ_charged_linker_0, # of connection points: 3
#     Node 4, Type 0, BuildingBlock: VETTIZ_charged_linker_0, # of connection points: 3
#     Node 5, Type 0, BuildingBlock: VETTIZ_charged_linker_0, # of connection points: 3
#     Node 6, Type 0, BuildingBlock: VETTIZ_charged_linker_0, # of connection points: 3
#     Node 7, Type 0, BuildingBlock: VETTIZ_charged_linker_0, # of connection points: 3
#     Node 8, Type 0, BuildingBlock: VETTIZ_charged_linker_0, # of connection points: 3
#     Node 9, Type 0, BuildingBlock: VETTIZ_charged_linker_0, # of connection points: 3
#     Node 10, Type 0, BuildingBlock: VETTIZ_charged_linker_0, # of connection points: 3
#     Node 11, Type 0, BuildingBlock: VETTIZ_charged_linker_0, # of connection points: 3
#     Node 12, Type 0, BuildingBlock: VETTIZ_charged_linker_0, # of connection points: 3
#     Node 13, Type 0, BuildingBlock: VETTIZ_charged_linker_0, # of connection points: 3
#     Node 14, Type 0, BuildingBlock: VETTIZ_charged_linker_0, # of connection points: 3
#     Node 15, Type 0, BuildingBlock: VETTIZ_charged_linker_0, # of connection points: 3
#     Node 16, Type 1, BuildingBlock: AZAVOO_clean_sbu_0, # of connection points: 4
#     Node 17, Type 1, BuildingBlock: AZAVOO_clean_sbu_0, # of connection points: 4
#     Node 18, Type 1, BuildingBlock: AZAVOO_clean_sbu_0, # of connection points: 4
#     Node 19, Type 1, BuildingBlock: AZAVOO_clean_sbu_0, # of connection points: 4
#     Node 20, Type 1, BuildingBlock: AZAVOO_clean_sbu_0, # of connection points: 4
#     Node 21, Type 1, BuildingBlock: AZAVOO_clean_sbu_0, # of connection points: 4
#     Node 22, Type 1, BuildingBlock: AZAVOO_clean_sbu_0, # of connection points: 4
#     Node 23, Type 1, BuildingBlock: AZAVOO_clean_sbu_0, # of connection points: 4
#     Node 24, Type 1, BuildingBlock: AZAVOO_clean_sbu_0, # of connection points: 4
#     Node 25, Type 1, BuildingBlock: AZAVOO_clean_sbu_0, # of connection points: 4
#     Node 26, Type 1, BuildingBlock: AZAVOO_clean_sbu_0, # of connection points: 4
#     Node 27, Type 1, BuildingBlock: AZAVOO_clean_sbu_0, # of connection points: 4
#     Edge 28, Type (0, 1), BuildingBlock: CIFDUS_clean_linker_0, # of connection points: 2
#     Edge 29, Type (0, 1), BuildingBlock: CIFDUS_clean_linker_0, # of connection points: 2
#     Edge 30, Type (0, 1), BuildingBlock: CIFDUS_clean_linker_0, # of connection points: 2
#     Edge 31, Type (0, 1), BuildingBlock: CIFDUS_clean_linker_0, # of connection points: 2
#     Edge 32, Type (0, 1), BuildingBlock: CIFDUS_clean_linker_0, # of connection points: 2
#     Edge 33, Type (0, 1), BuildingBlock: CIFDUS_clean_linker_0, # of connection points: 2
#     Edge 34, Type (0, 1), BuildingBlock: CIFDUS_clean_linker_0, # of connection points: 2
#     Edge 35, Type (0, 1), BuildingBlock: CIFDUS_clean_linker_0, # of connection points: 2
#     Edge 36, Type (0, 1), BuildingBlock: CIFDUS_clean_linker_0, # of connection points: 2
#     Edge 37, Type (0, 1), BuildingBlock: CIFDUS_clean_linker_0, # of connection points: 2
#     Edge 38, Type (0, 1), BuildingBlock: CIFDUS_clean_linker_0, # of connection points: 2
#     Edge 39, Type (0, 1), BuildingBlock: CIFDUS_clean_linker_0, # of connection points: 2
#     Edge 40, Type (0, 1), BuildingBlock: CIFDUS_clean_linker_0, # of connection points: 2
#     Edge 41, Type (0, 1), BuildingBlock: CIFDUS_clean_linker_0, # of connection points: 2
#     Edge 42, Type (0, 1), BuildingBlock: CIFDUS_clean_linker_0, # of connection points: 2
#     Edge 43, Type (0, 1), BuildingBlock: CIFDUS_clean_linker_0, # of connection points: 2
#     Edge 44, Type (0, 1), BuildingBlock: CIFDUS_clean_linker_0, # of connection points: 2
#     Edge 45, Type (0, 1), BuildingBlock: CIFDUS_clean_linker_0, # of connection points: 2
#     Edge 46, Type (0, 1), BuildingBlock: CIFDUS_clean_linker_0, # of connection points: 2
#     Edge 47, Type (0, 1), BuildingBlock: CIFDUS_clean_linker_0, # of connection points: 2
#     Edge 48, Type (0, 1), BuildingBlock: CIFDUS_clean_linker_0, # of connection points: 2
#     Edge 49, Type (0, 1), BuildingBlock: CIFDUS_clean_linker_0, # of connection points: 2
#     Edge 50, Type (0, 1), BuildingBlock: CIFDUS_clean_linker_0, # of connection points: 2
#     Edge 51, Type (0, 1), BuildingBlock: CIFDUS_clean_linker_0, # of connection points: 2
#     Edge 52, Type (0, 1), BuildingBlock: CIFDUS_clean_linker_0, # of connection points: 2
#     Edge 53, Type (0, 1), BuildingBlock: CIFDUS_clean_linker_0, # of connection points: 2
#     Edge 54, Type (0, 1), BuildingBlock: CIFDUS_clean_linker_0, # of connection points: 2
#     Edge 55, Type (0, 1), BuildingBlock: CIFDUS_clean_linker_0, # of connection points: 2
#     Edge 56, Type (0, 1), BuildingBlock: CIFDUS_clean_linker_0, # of connection points: 2
#     Edge 57, Type (0, 1), BuildingBlock: CIFDUS_clean_linker_0, # of connection points: 2
#     Edge 58, Type (0, 1), BuildingBlock: CIFDUS_clean_linker_0, # of connection points: 2
#     Edge 59, Type (0, 1), BuildingBlock: CIFDUS_clean_linker_0, # of connection points: 2
#     Edge 60, Type (0, 1), BuildingBlock: CIFDUS_clean_linker_0, # of connection points: 2
#     Edge 61, Type (0, 1), BuildingBlock: CIFDUS_clean_linker_0, # of connection points: 2
#     Edge 62, Type (0, 1), BuildingBlock: CIFDUS_clean_linker_0, # of connection points: 2
#     Edge 63, Type (0, 1), BuildingBlock: CIFDUS_clean_linker_0, # of connection points: 2
#     Edge 64, Type (0, 1), BuildingBlock: CIFDUS_clean_linker_0, # of connection points: 2
#     Edge 65, Type (0, 1), BuildingBlock: CIFDUS_clean_linker_0, # of connection points: 2
#     Edge 66, Type (0, 1), BuildingBlock: CIFDUS_clean_linker_0, # of connection points: 2
#     Edge 67, Type (0, 1), BuildingBlock: CIFDUS_clean_linker_0, # of connection points: 2
#     Edge 68, Type (0, 1), BuildingBlock: CIFDUS_clean_linker_0, # of connection points: 2
#     Edge 69, Type (0, 1), BuildingBlock: CIFDUS_clean_linker_0, # of connection points: 2
#     Edge 70, Type (0, 1), BuildingBlock: CIFDUS_clean_linker_0, # of connection points: 2
#     Edge 71, Type (0, 1), BuildingBlock: CIFDUS_clean_linker_0, # of connection points: 2
#     Edge 72, Type (0, 1), BuildingBlock: CIFDUS_clean_linker_0, # of connection points: 2
#     Edge 73, Type (0, 1), BuildingBlock: CIFDUS_clean_linker_0, # of connection points: 2
#     Edge 74, Type (0, 1), BuildingBlock: CIFDUS_clean_linker_0, # of connection points: 2
#     Edge 75, Type (0, 1), BuildingBlock: CIFDUS_clean_linker_0, # of connection points: 2
# Relax obj value: 0.002
# Max RMSD: 0.043
# Mean RMSD: 0.024
data_MOF--net-ctn--node1-AZAVOO_clean_sbu_0--node2-VETTIZ_charged_linker_0--edge1-CIFDUS_clean_linker_0
_symmetry_space_group_name_H-M    P1
_symmetry_Int_Tables_number       1
_symmetry_cell_setting            triclinic
loop_
_symmetry_equiv_pos_as_xyz
'x, y, z'
_cell_length_a     59.672734
_cell_length_b     60.6083
_cell_length_c     60.556338
_cell_angle_alpha  90.017746
_cell_angle_beta   92.832894
_cell_angle_gamma 93.1754
loop_
_atom_site_label
_atom_site_type_symbol
_atom_site_fract_x
_atom_site_fract_y
_atom_site_fract_z
_atom_type_partial_charge
C0 C 0.03192 0.09176 0.97564 0.0
C1 C 0.01585 0.10738 0.97931 0.0
C2 C 0.0001 0.10292 0.9956 0.0
C3 C 0.01736 0.06875 0.00514 0.0
C4 C 0.0323 0.07258 0.98865 0.0
C5 C 0.04835 0.05435 0.98722 0.0
H6 H 0.0838 0.95633 0.02571 0.0
C7 C 0.02257 0.04779 0.01617 0.0
C8 C 0.04057 0.03906 0.00557 0.0
H9 H 0.11108 0.99588 0.97302 0.0
H10 H 0.08362 0.02319 0.97837 0.0
H11 H 0.0794 0.99696 0.05819 0.0
H12 H 0.03187 0.96217 0.01313 0.0
H13 H 0.01762 0.96762 0.03707 0.0
H14 H 0.04146 0.95051 0.03891 0.0
H15 H 0.06781 0.96969 0.06373 0.0
H16 H 0.05398 0.99402 0.0715 0.0
C17 C 0.07253 0.06435 0.99219 0.0
C18 C 0.04457 0.04336 0.96416 0.0
C19 C 0.98187 0.0239 0.08485 0.0
C20 C 0.98349 0.00553 0.099 0.0
C21 C 0.99747 0.98858 0.09331 0.0
C22 C 0.01032 0.99033 0.07457 0.0
C23 C 0.00924 0.00921 0.06119 0.0
C24 C 0.99478 0.02534 0.06611 0.0
C25 C 0.99538 0.04392 0.04961 0.0
C26 C 0.01327 0.03668 0.03454 0.0
C27 C 0.02142 0.01643 0.04152 0.0
C28 C 0.0029 0.06557 0.06216 0.0
C29 C 0.97194 0.04428 0.03737 0.0
C30 C 0.0837 0.97076 0.01515 0.0
C31 C 0.09943 0.97387 -0.00123 0.0
C32 C 0.09912 0.99315 0.98577 0.0
C33 C 0.08311 0.00891 0.98885 0.0
C34 C 0.0674 0.00547 0.00528 0.0
C35 C 0.06804 0.98669 0.01819 0.0
C36 C 0.05081 0.98607 0.03548 0.0
C37 C 0.03935 0.00736 0.03061 0.0
C38 C 0.04902 0.01867 0.01285 0.0
C39 C 0.06346 0.98655 0.0585 0.0
C40 C 0.0346 0.96548 0.03117 0.0
H41 H 0.98852 0.08159 0.02075 0.0
H42 H 0.04432 0.09463 0.96334 0.0
H43 H 0.02634 0.04176 0.95923 0.0
H44 H 0.05031 0.02639 0.96371 0.0
H45 H 0.0531 0.05339 0.95136 0.0
H46 H 0.07271 0.07752 0.00502 0.0
H47 H 0.07962 0.07185 0.97713 0.0
H48 H 0.08406 0.05218 -0.00096 0.0
H49 H 0.97137 0.03727 0.08863 0.0
H50 H 0.99866 0.97397 0.10349 0.0
H51 H 0.02083 0.977 0.0714 0.0
H52 H 0.01709 0.06272 0.07425 0.0
H53 H 0.98892 0.07176 0.07145 0.0
H54 H 0.00914 0.07885 0.05125 0.0
H55 H 0.96287 0.02773 0.03744 0.0
H56 H 0.97305 0.04839 0.01963 0.0
H57 H 0.96117 0.0561 0.04523 0.0
H58 H 0.9872 0.11432 0.99847 0.0
C59 C 0.00079 0.08379 0.00849 0.0
C60 C 0.26765 0.65268 0.23537 0.0
C61 C 0.24766 0.64731 0.22282 0.0
C62 C 0.24079 0.66163 0.20579 0.0
C63 C 0.27415 0.68577 0.21346 0.0
C64 C 0.28044 0.67198 0.23057 0.0
C65 C 0.30174 0.68035 0.24281 0.0
H66 H 0.38739 0.75783 0.25658 0.0
C67 C 0.29138 0.70428 0.21275 0.0
C68 C 0.30741 0.70133 0.23008 0.0
H69 H 0.37367 0.69902 0.29522 0.0
H70 H 0.34104 0.68943 0.27175 0.0
H71 H 0.3367 0.77198 0.25069 0.0
H72 H 0.37492 0.73315 0.20793 0.0
H73 H 0.36035 0.75232 0.19175 0.0
H74 H 0.38114 0.76216 0.21254 0.0
H75 H 0.35885 0.78419 0.23492 0.0
H76 H 0.33054 0.77993 0.22324 0.0
C77 C 0.29618 0.68527 0.26702 0.0
C78 C 0.31958 0.66297 0.24033 0.0
C79 C 0.28734 0.76017 0.15049 0.0
C80 C 0.30072 0.77906 0.14524 0.0
C81 C 0.31898 0.78593 0.15972 0.0
C82 C 0.32428 0.77368 0.1788 0.0
C83 C 0.31106 0.75446 0.18353 0.0
C84 C 0.29268 0.74827 0.16965 0.0
C85 C 0.27992 0.72797 0.17764 0.0
C86 C 0.29411 0.72248 0.19817 0.0
C87 C 0.31244 0.73795 0.20152 0.0
C88 C 0.25607 0.73441 0.18331 0.0
C89 C 0.28019 0.70982 0.15967 0.0
C90 C 0.37741 0.74281 0.25982 0.0
C91 C 0.383 0.72934 0.27802 0.0
C92 C 0.36951 0.70996 0.28166 0.0
C93 C 0.35056 0.70433 0.26791 0.0
C94 C 0.34488 0.71812 0.25014 0.0
C95 C 0.35827 0.73691 0.24616 0.0
C96 C 0.34946 0.7494 0.22631 0.0
C97 C 0.32848 0.73516 0.21935 0.0
C98 C 0.32598 0.71687 0.23342 0.0
C99 C 0.34368 0.77269 0.23399 0.0
C100 C 0.36735 0.74949 0.20864 0.0
H101 H 0.24804 0.69089 0.18761 0.0
H102 H 0.27313 0.64214 0.24881 0.0
H103 H 0.31786 0.65517 0.22365 0.0
H104 H 0.337 0.67018 0.24167 0.0
H105 H 0.31767 0.64959 0.25274 0.0
H106 H 0.2787 0.69063 0.26794 0.0
H107 H 0.29768 0.67039 0.27757 0.0
H108 H 0.30681 0.69908 0.27451 0.0
H109 H 0.27292 0.75479 0.13987 0.0
H110 H 0.32946 0.80049 0.156 0.0
H111 H 0.33855 0.77956 0.18905 0.0
H112 H 0.25602 0.7521 0.18823 0.0
H113 H 0.24393 0.73182 0.16892 0.0
H114 H 0.24964 0.72522 0.19768 0.0
H115 H 0.29722 0.70929 0.15306 0.0
H116 H 0.27619 0.69306 0.16594 0.0
H117 H 0.26818 0.7131 0.1456 0.0
H118 H 0.22543 0.65776 0.19592 0.0
C119 C 0.25398 0.68078 0.20097 0.0
C120 C 0.00026 0.40526 0.00366 0.0
C121 C 0.98828 0.39999 0.98364 0.0
C122 C 0.97274 0.41475 0.97491 0.0
C123 C 0.97962 0.43837 0.00728 0.0
C124 C 0.99578 0.42444 0.01508 0.0
C125 C 0.00663 0.4319 0.03692 0.0
H126 H 0.0151 0.50488 0.12194 0.0
C127 C 0.97789 0.4559 0.02411 0.0
C128 C 0.99389 0.45226 0.04137 0.0
H129 H 0.05402 0.44797 0.11264 0.0
H130 H 0.03288 0.43918 0.07837 0.0
H131 H 0.96912 0.48082 0.10975 0.0
H132 H 0.01241 0.52143 0.07004 0.0
H133 H 0.98464 0.52961 0.06549 0.0
H134 H 0.99773 0.53138 0.09291 0.0
H135 H 0.9681 0.51031 0.1097 0.0
H136 H 0.95114 0.49315 0.09021 0.0
C137 C 0.00208 0.41347 0.05417 0.0
C138 C 0.03185 0.43773 0.03352 0.0
C139 C 0.91578 0.51028 0.01638 0.0
C140 C 0.90875 0.5265 0.03074 0.0
C141 C 0.92141 0.5312 0.0506 0.0
C142 C 0.94055 0.51972 0.05633 0.0
C143 C 0.94703 0.50309 0.04221 0.0
C144 C 0.9348 0.49862 0.02256 0.0
C145 C 0.94375 0.47967 0.01019 0.0
C146 C 0.9631 0.47338 0.02581 0.0
C147 C 0.96499 0.4873 0.04446 0.0
C148 C 0.92495 0.46103 0.00793 0.0
C149 C 0.9521 0.48847 0.98788 0.0
C150 C 0.01895 0.49057 0.11239 0.0
C151 C 0.03617 0.47707 0.11971 0.0
C152 C 0.04074 0.45848 0.10716 0.0
C153 C 0.02852 0.45351 0.08726 0.0
C154 C 0.01141 0.46722 0.07992 0.0
C155 C 0.00668 0.48524 0.09256 0.0
C156 C 0.98725 0.4973 0.08262 0.0
C157 C 0.98167 0.48404 0.06155 0.0
C158 C 0.99593 0.46652 0.06005 0.0
C159 C 0.96788 0.49552 0.09885 0.0
C160 C 0.99576 0.52127 0.07755 0.0
H161 H 0.9559 0.4443 0.97949 0.0
H162 H 0.01248 0.39429 0.01061 0.0
H163 H 0.03427 0.44502 0.01689 0.0
H164 H 0.03926 0.4504 0.04523 0.0
H165 H 0.04179 0.42279 0.03484 0.0
H166 H 0.9852 0.40504 0.05089 0.0
H167 H 0.01471 0.40072 0.05366 0.0
H168 H 0.00177 0.41985 0.07123 0.0
H169 H 0.90624 0.50625 0.0011 0.0
H170 H 0.91639 0.54379 0.06177 0.0
H171 H 0.94939 0.52407 0.07169 0.0
H172 H 0.91602 0.45916 0.02358 0.0
H173 H 0.91234 0.46477 0.99454 0.0
H174 H 0.93131 0.44467 0.00474 0.0
H175 H 0.95958 0.50564 0.98969 0.0
H176 H 0.96563 0.47884 0.98159 0.0
H177 H 0.93806 0.48869 0.97514 0.0
H178 H 0.96332 0.41095 0.9595 0.0
C179 C 0.96832 0.43394 0.98665 0.0
C180 C 0.65428 0.81218 0.25846 0.0
C181 C 0.63704 0.79532 0.25835 0.0
C182 C 0.63706 0.77832 0.24238 0.0
C183 C 0.67107 0.79487 0.22754 0.0
C184 C 0.67107 0.81155 0.24311 0.0
C185 C 0.69102 0.82771 0.24168 0.0
H186 H 0.78794 0.85837 0.19347 0.0
C187 C 0.69105 0.7989 0.21424 0.0
C188 C 0.70281 0.81817 0.2225 0.0
H189 H 0.75927 0.88945 0.24895 0.0
H190 H 0.72716 0.86319 0.24607 0.0
H191 H 0.74363 0.85219 0.16437 0.0
H192 H 0.77743 0.80864 0.20904 0.0
H193 H 0.76862 0.7931 0.18538 0.0
H194 H 0.78775 0.81689 0.18277 0.0
H195 H 0.76672 0.83694 0.15608 0.0
H196 H 0.73804 0.82569 0.15309 0.0
C197 C 0.68231 0.85076 0.23616 0.0
C198 C 0.70533 0.82677 0.26369 0.0
C199 C 0.7065 0.74665 0.15115 0.0
C200 C 0.72312 0.74746 0.13545 0.0
C201 C 0.73975 0.76484 0.13624 0.0
C202 C 0.74 0.78125 0.15246 0.0
C203 C 0.72334 0.78042 0.16807 0.0
C204 C 0.70681 0.76348 0.16719 0.0
C205 C 0.68994 0.76614 0.18464 0.0
C206 C 0.69926 0.78731 0.19612 0.0
C207 C 0.71894 0.79536 0.18642 0.0
C208 C 0.66668 0.76903 0.17282 0.0
C209 C 0.69077 0.74594 0.20024 0.0
C210 C 0.77484 0.85946 0.20513 0.0
C211 C 0.77629 0.87587 0.22161 0.0
C212 C 0.75854 0.87701 0.23605 0.0
C213 C 0.74 0.86163 0.23445 0.0
C214 C 0.73917 0.84492 0.21824 0.0
C215 C 0.75634 0.84424 0.20381 0.0
C216 C 0.75283 0.82551 0.18758 0.0
C217 C 0.73093 0.81466 0.19489 0.0
C218 C 0.72294 0.82605 0.21283 0.0
C219 C 0.75031 0.83542 0.164 0.0
C220 C 0.77268 0.8102 0.19113 0.0
H221 H 0.653 0.76456 0.21546 0.0
H222 H 0.6548 0.82562 0.27029 0.0
H223 H 0.70494 0.80967 0.27042 0.0
H224 H 0.72332 0.8312 0.26174 0.0
H225 H 0.69891 0.83768 0.2764 0.0
H226 H 0.66769 0.84932 0.22401 0.0
H227 H 0.67679 0.85896 0.25121 0.0
H228 H 0.69489 0.86182 0.22831 0.0
H229 H 0.6934 0.73353 0.15066 0.0
H230 H 0.75264 0.76567 0.12422 0.0
H231 H 0.75319 0.79397 0.15215 0.0
H232 H 0.66841 0.77885 0.15742 0.0
H233 H 0.65824 0.75278 0.16817 0.0
H234 H 0.65539 0.77831 0.18282 0.0
H235 H 0.70837 0.74111 0.20331 0.0
H236 H 0.68473 0.74931 0.21677 0.0
H237 H 0.68087 0.73145 0.19291 0.0
H238 H 0.62432 0.76486 0.24207 0.0
C239 C 0.65388 0.77804 0.22701 0.0
C240 C 0.0466 0.90472 0.51849 0.0
C241 C 0.02994 0.88769 0.51454 0.0
C242 C 0.01292 0.89038 0.498 0.0
C243 C 0.02934 0.92665 0.4893 0.0
C244 C 0.04605 0.92397 0.5056 0.0
C245 C 0.06312 0.94326 0.50668 0.0
H246 H 0.09761 0.04426 0.46887 0.0
C247 C 0.03383 0.94827 0.47855 0.0
C248 C 0.05365 0.9581 0.48869 0.0
H249 H 0.13089 0.00541 0.51908 0.0
H250 H 0.10156 0.97621 0.51416 0.0
H251 H 0.04865 0.0354 0.48419 0.0
H252 H 0.0858 0.00383 0.43529 0.0
H253 H 0.05852 0.00636 0.42371 0.0
H254 H 0.07544 0.03089 0.43168 0.0
H255 H 0.05309 0.04755 0.45764 0.0
H256 H 0.02929 0.02864 0.46215 0.0
C257 C 0.06286 0.95398 0.52984 0.0
C258 C 0.08619 0.93483 0.50096 0.0
C259 C 0.98204 0.97328 0.41485 0.0
C260 C 0.98196 0.99273 0.40209 0.0
C261 C 0.99821 0.00996 0.40726 0.0
C262 C 0.01457 0.00772 0.42437 0.0
C263 C 0.01482 0.98803 0.43658 0.0
C264 C 0.9985 0.97136 0.43206 0.0
C265 C 0.00118 0.95188 0.44726 0.0
C266 C 0.02212 0.95944 0.46123 0.0
C267 C 0.03009 0.98053 0.4547 0.0
C268 C 0.98013 0.94939 0.46122 0.0
C269 C 0.00518 0.9314 0.43298 0.0
C270 C 0.09854 0.0295 0.47889 0.0
C271 C 0.11646 0.02718 0.49451 0.0
C272 C 0.11728 0.00752 0.50689 0.0
C273 C 0.10018 0.99067 0.50407 0.0
C274 C 0.08218 0.99343 0.48856 0.0
C275 C 0.08178 0.01255 0.47616 0.0
C276 C 0.06183 0.01262 0.46006 0.0
C277 C 0.05014 0.99042 0.46484 0.0
C278 C 0.062 0.97924 0.48162 0.0
C279 C 0.04744 0.0321 0.46608 0.0
C280 C 0.07066 0.01363 0.43639 0.0
H281 H -0.00089 0.91079 0.473 0.0
H282 H 0.06009 0.90279 0.53086 0.0
H283 H 0.0841 0.92101 0.48879 0.0
H284 H 0.09698 0.94753 0.49292 0.0
H285 H 0.09536 0.92866 0.51592 0.0
H286 H 0.0453 0.9551 0.53495 0.0
H287 H 0.07193 0.94404 0.54245 0.0
H288 H 0.07023 0.97108 0.5304 0.0
H289 H 0.96965 0.95981 0.41144 0.0
H290 H 0.99874 0.02499 0.39758 0.0
H291 H 0.02662 0.02135 0.42716 0.0
H292 H 0.97395 0.96584 0.46524 0.0
H293 H 0.9662 0.93979 0.45213 0.0
H294 H 0.98352 0.94159 0.47742 0.0
H295 H 0.01594 0.93606 0.41904 0.0
H296 H 0.01426 0.91865 0.44218 0.0
H297 H 0.98906 0.92384 0.4258 0.0
H298 H 0.0001 0.87728 0.49464 0.0
C299 C 0.01244 0.9098 0.48545 0.0
C300 C 0.2747 0.66523 0.77905 0.0
C301 C 0.27223 0.64879 0.76267 0.0
C302 C 0.25209 0.64675 0.74948 0.0
C303 C 0.23802 0.67835 0.76818 0.0
C304 C 0.25748 0.67961 0.7816 0.0
C305 C 0.25769 0.69783 0.7984 0.0
H306 H 0.21069 0.78655 0.84021 0.0
C307 C 0.224 0.69655 0.77469 0.0
C308 C 0.23544 0.70782 0.79251 0.0
H309 H 0.27138 0.75572 0.86289 0.0
H310 H 0.26542 0.72827 0.8346 0.0
H311 H 0.18103 0.74032 0.83356 0.0
H312 H 0.21751 0.78098 0.7876 0.0
H313 H 0.19153 0.77224 0.77461 0.0
H314 H 0.19208 0.78918 0.79912 0.0
H315 H 0.17128 0.76625 0.82387 0.0
H316 H 0.16458 0.7409 0.80872 0.0
C317 C 0.25814 0.68724 0.82176 0.0
C318 C 0.27795 0.71418 0.79421 0.0
C319 C 0.15123 0.71108 0.73086 0.0
C320 C 0.13537 0.72733 0.73241 0.0
C321 C 0.13859 0.74326 0.74943 0.0
C322 C 0.15725 0.74317 0.76445 0.0
C323 C 0.17303 0.72699 0.76252 0.0
C324 C 0.16983 0.71123 0.74599 0.0
C325 C 0.18837 0.6953 0.74648 0.0
C326 C 0.20326 0.70417 0.76592 0.0
C327 C 0.1942 0.72281 0.77524 0.0
C328 C 0.17803 0.67185 0.75102 0.0
C329 C 0.20031 0.69745 0.7244 0.0
C330 C 0.22263 0.77383 0.8391 0.0
C331 C 0.24185 0.77375 0.85364 0.0
C332 C 0.25683 0.75674 0.85158 0.0
C333 C 0.25322 0.74054 0.83521 0.0
C334 C 0.23428 0.74103 0.8206 0.0
C335 C 0.21919 0.75729 0.82277 0.0
C336 C 0.19971 0.75456 0.80595 0.0
C337 C 0.20575 0.73405 0.79345 0.0
C338 C 0.22613 0.72642 0.80207 0.0
C339 C 0.17789 0.75044 0.81851 0.0
C340 C 0.19997 0.77531 0.79103 0.0
H341 H 0.22018 0.65941 0.74133 0.0
H342 H 0.28986 0.66692 0.78967 0.0
H343 H 0.2799 0.71654 0.77617 0.0
H344 H 0.27602 0.73092 0.80078 0.0
H345 H 0.29385 0.7079 0.80139 0.0
H346 H 0.25077 0.66996 0.82129 0.0
H347 H 0.27558 0.68677 0.82897 0.0
H348 H 0.24781 0.69588 0.83336 0.0
H349 H 0.14918 0.6984 0.71821 0.0
H350 H 0.12686 0.75614 0.7509 0.0
H351 H 0.15875 0.75583 0.77689 0.0
H352 H 0.16408 0.67253 0.7625 0.0
H353 H 0.1711 0.66377 0.73549 0.0
H354 H 0.19015 0.66105 0.75931 0.0
H355 H 0.20262 0.71511 0.71957 0.0
H356 H 0.21733 0.6912 0.72534 0.0
H357 H 0.19026 0.68863 0.71085 0.0
H358 H 0.24986 0.63414 0.73676 0.0
C359 C 0.23498 0.66151 0.75208 0.0
C360 C 0.89771 0.48438 0.47947 0.0
C361 C 0.89058 0.46671 0.4653 0.0
C362 C 0.90372 0.46205 0.44729 0.0
C363 C 0.9306 0.49214 0.458 0.0
C364 C 0.91763 0.49679 0.47554 0.0
C365 C 0.92768 0.51581 0.48935 0.0
H366 H 0.00472 0.60121 0.50186 0.0
C367 C 0.9503 0.50817 0.45862 0.0
C368 C 0.94854 0.52217 0.47691 0.0
H369 H 0.95341 0.57984 0.54676 0.0
H370 H 0.94218 0.54935 0.52285 0.0
H371 H 0.97851 0.58869 0.45473 0.0
H372 H 0.02268 0.55524 0.49972 0.0
H373 H 0.02672 0.54346 0.47387 0.0
H374 H 0.03346 0.5726 0.47834 0.0
H375 H 0.00775 0.59641 0.46023 0.0
H376 H 0.99881 0.57623 0.43935 0.0
C377 C 0.91079 0.53431 0.48862 0.0
C378 C 0.93363 0.50719 0.51293 0.0
C379 C 0.01162 0.50307 0.40316 0.0
C380 C 0.03209 0.51538 0.40089 0.0
C381 C 0.03694 0.53435 0.41409 0.0
C382 C 0.02214 0.54062 0.42982 0.0
C383 C 0.00227 0.52768 0.43269 0.0
C384 C 0.99705 0.50942 0.41931 0.0
C385 C 0.9752 0.49763 0.42515 0.0
C386 C 0.96881 0.5113 0.44476 0.0
C387 C 0.98473 0.52893 0.44893 0.0
C388 C 0.9582 0.49932 0.40514 0.0
C389 C 0.98003 0.47367 0.43192 0.0
C390 C 0.99119 0.59002 0.5069 0.0
C391 C 0.97965 0.59382 0.52623 0.0
C392 C 0.96216 0.57832 0.53167 0.0
C393 C 0.95574 0.56027 0.51784 0.0
C394 C 0.96718 0.55712 0.4985 0.0
C395 C 0.98503 0.57146 0.49369 0.0
C396 C 0.99694 0.56404 0.47389 0.0
C397 C 0.98259 0.54344 0.46704 0.0
C398 C 0.96491 0.53975 0.48124 0.0
C399 C 0.99564 0.58227 0.45605 0.0
C400 C 0.02124 0.55865 0.48166 0.0
H401 H 0.93288 0.47024 0.42962 0.0
H402 H 0.88826 0.48818 0.49368 0.0
H403 H 0.93636 0.48917 0.51284 0.0
H404 H 0.9496 0.51492 0.52009 0.0
H405 H 0.91998 0.50988 0.52429 0.0
H406 H 0.90418 0.53694 0.47137 0.0
H407 H 0.89626 0.52987 0.49884 0.0
H408 H 0.91832 0.55046 0.49431 0.0
H409 H 0.0075 0.48841 0.39322 0.0
H410 H 0.05245 0.54424 0.41237 0.0
H411 H 0.02693 0.55516 0.43938 0.0
H412 H 0.9608 0.51536 0.39645 0.0
H413 H 0.96007 0.48592 0.39296 0.0
H414 H 0.94059 0.49895 0.41001 0.0
H415 H 0.99586 0.4734 0.4424 0.0
H416 H 0.96692 0.46578 0.44197 0.0
H417 H 0.98195 0.4632 0.41714 0.0
H418 H 0.89854 0.44867 0.43598 0.0
C419 C 0.92362 0.47467 0.44355 0.0
C420 C 0.78704 0.72548 0.84464 0.0
C421 C 0.76974 0.72697 0.85954 0.0
C422 C 0.7557 0.74493 0.85768 0.0
C423 C 0.77447 0.75815 0.82541 0.0
C424 C 0.78905 0.74124 0.82766 0.0
C425 C 0.80598 0.74217 0.80989 0.0
H426 H 0.83889 0.78689 0.71283 0.0
C427 C 0.77956 0.77064 0.80523 0.0
C428 C 0.79797 0.76134 0.79586 0.0
H429 H 0.87248 0.73801 0.75211 0.0
H430 H 0.84439 0.73979 0.77973 0.0
H431 H 0.82851 0.819 0.75537 0.0
H432 H 0.79138 0.76852 0.71675 0.0
H433 H 0.77114 0.78599 0.72576 0.0
H434 H 0.79258 0.79678 0.70797 0.0
H435 H 0.82098 0.82107 0.72638 0.0
H436 H 0.80207 0.82858 0.74686 0.0
C437 C 0.82958 0.74747 0.82103 0.0
C438 C 0.80384 0.7201 0.79695 0.0
C439 C 0.73202 0.83465 0.78128 0.0
C440 C 0.73069 0.84719 0.76167 0.0
C441 C 0.74346 0.84102 0.74383 0.0
C442 C 0.75856 0.82424 0.74605 0.0
C443 C 0.76072 0.81293 0.76615 0.0
C444 C 0.74683 0.81742 0.78296 0.0
C445 C 0.7496 0.80165 0.80201 0.0
C446 C 0.76845 0.788 0.7943 0.0
C447 C 0.77521 0.79512 0.77354 0.0
C448 C 0.75708 0.81522 0.82302 0.0
C449 C 0.72717 0.78764 0.80384 0.0
C450 C 0.84024 0.7766 0.72742 0.0
C451 C 0.85779 0.76223 0.73029 0.0
C452 C 0.85913 0.7493 0.74962 0.0
C453 C 0.84278 0.7503 0.76555 0.0
C454 C 0.82507 0.76454 0.76219 0.0
C455 C 0.82429 0.77761 0.74348 0.0
C456 C 0.80483 0.79228 0.7427 0.0
C457 C 0.7941 0.78617 0.7642 0.0
C458 C 0.80576 0.76968 0.77547 0.0
C459 C 0.81441 0.81657 0.74272 0.0
C460 C 0.78917 0.78577 0.72222 0.0
H461 H 0.74661 0.77352 0.84025 0.0
H462 H 0.79829 0.71207 0.84578 0.0
H463 H 0.78587 0.71538 0.79263 0.0
H464 H 0.81231 0.72097 0.78118 0.0
H465 H 0.8109 0.70656 0.807 0.0
H466 H 0.82859 0.75806 0.83593 0.0
H467 H 0.83763 0.73213 0.82637 0.0
H468 H 0.84085 0.75706 0.8102 0.0
H469 H 0.72225 0.83839 0.79524 0.0
H470 H 0.74205 0.84931 0.72803 0.0
H471 H 0.76813 0.82086 0.73204 0.0
H472 H 0.77027 0.82817 0.81922 0.0
H473 H 0.74272 0.82359 0.82962 0.0
H474 H 0.76461 0.80508 0.83627 0.0
H475 H 0.71653 0.78781 0.78823 0.0
H476 H 0.72986 0.76993 0.80679 0.0
H477 H 0.71707 0.79392 0.81718 0.0
H478 H 0.74279 0.747 0.86935 0.0
C479 C 0.75795 0.76042 0.84077 0.0
C480 C 0.29569 0.22897 0.33626 0.0
C481 C 0.27912 0.22782 0.35206 0.0
C482 C 0.26266 0.2437 0.35137 0.0
C483 C 0.2792 0.26124 0.31967 0.0
C484 C 0.29536 0.24572 0.32022 0.0
C485 C 0.31153 0.24929 0.30205 0.0
H486 H 0.34189 0.30635 0.21082 0.0
C487 C 0.28349 0.27643 0.30107 0.0
C488 C 0.30241 0.2695 0.2906 0.0
H489 H 0.37363 0.2505 0.24059 0.0
H490 H 0.34745 0.24984 0.2699 0.0
H491 H 0.33712 0.33199 0.25569 0.0
H492 H 0.29112 0.28868 0.21704 0.0
H493 H 0.27602 0.31101 0.22554 0.0
H494 H 0.29965 0.31609 0.20846 0.0
H495 H 0.32232 0.34126 0.23123 0.0
H496 H 0.3105 0.3424 0.25808 0.0
C497 C 0.33536 0.25425 0.31281 0.0
C498 C 0.30939 0.22867 0.28684 0.0
C499 C 0.23314 0.34067 0.28628 0.0
C500 C 0.2332 0.35755 0.27028 0.0
C501 C 0.24959 0.35785 0.25423 0.0
C502 C 0.26553 0.34178 0.25405 0.0
C503 C 0.26532 0.32511 0.27013 0.0
C504 C 0.24931 0.3247 0.28588 0.0
C505 C 0.25191 0.30578 0.30177 0.0
C506 C 0.27224 0.29514 0.29306 0.0
C507 C 0.27994 0.30653 0.27451 0.0
C508 C 0.25687 0.31555 0.32526 0.0
C509 C 0.23038 0.29027 0.29933 0.0
C510 C 0.34315 0.29394 0.22363 0.0
C511 C 0.35971 0.27835 0.2233 0.0
C512 C 0.36108 0.26275 0.24053 0.0
C513 C 0.34575 0.26229 0.25743 0.0
C514 C 0.3289 0.27765 0.25718 0.0
C515 C 0.32808 0.29333 0.24063 0.0
C516 C 0.30948 0.30872 0.2432 0.0
C517 C 0.29889 0.29941 0.26373 0.0
C518 C 0.31021 0.28113 0.27182 0.0
C519 C 0.32022 0.33239 0.24711 0.0
C520 C 0.29319 0.30624 0.22249 0.0
H521 H 0.24967 0.27187 0.33583 0.0
H522 H 0.30852 0.21701 0.33625 0.0
H523 H 0.29151 0.22255 0.28442 0.0
H524 H 0.31505 0.23204 0.27005 0.0
H525 H 0.31894 0.21501 0.29415 0.0
H526 H 0.33461 0.2641 0.32824 0.0
H527 H 0.34358 0.23874 0.31719 0.0
H528 H 0.34637 0.26439 0.3022 0.0
H529 H 0.22078 0.33984 0.29879 0.0
H530 H 0.25045 0.37087 0.24201 0.0
H531 H 0.27752 0.34309 0.24143 0.0
H532 H 0.26787 0.33096 0.32465 0.0
H533 H 0.24112 0.31974 0.33294 0.0
H534 H 0.26613 0.30447 0.33642 0.0
H535 H 0.2234 0.2899 0.28195 0.0
H536 H 0.23351 0.27287 0.3032 0.0
H537 H 0.21711 0.29588 0.30992 0.0
H538 H 0.24998 0.24354 0.36357 0.0
C539 C 0.26261 0.26031 0.33532 0.0
C540 C 0.50026 0.91015 0.49744 0.0
C541 C 0.48903 0.90724 0.47659 0.0
C542 C 0.47399 0.92307 0.46912 0.0
C543 C 0.48093 0.94371 0.50343 0.0
C544 C 0.49609 0.92844 0.51044 0.0
C545 C 0.5069 0.93396 0.53286 0.0
H546 H 0.52348 0.0056 0.61868 0.0
C547 C 0.48036 0.96062 0.52105 0.0
C548 C 0.49572 0.95506 0.53824 0.0
H549 H 0.55355 0.94317 0.61022 0.0
H550 H 0.53136 0.93663 0.5761 0.0
H551 H 0.474 0.98636 0.60602 0.0
H552 H 0.52295 0.02165 0.5677 0.0
H553 H 0.49678 0.03294 0.56181 0.0
H554 H 0.50883 0.03402 0.58968 0.0
H555 H 0.47848 0.01582 0.60778 0.0
H556 H 0.45875 0.00281 0.58755 0.0
C557 C 0.50055 0.91499 0.54895 0.0
C558 C 0.53249 0.93807 0.53024 0.0
C559 C 0.42664 0.02307 0.51299 0.0
C560 C 0.42311 0.04142 0.52639 0.0
C561 C 0.43606 0.04447 0.54638 0.0
C562 C 0.45226 0.02964 0.55294 0.0
C563 C 0.45573 0.01148 0.53937 0.0
C564 C 0.44309 0.00842 0.51974 0.0
C565 C 0.44964 0.98843 0.50725 0.0
C566 C 0.46776 0.97972 0.52297 0.0
C567 C 0.47124 0.99334 0.54174 0.0
C568 C 0.42884 0.97206 0.50467 0.0
C569 C 0.45919 0.99631 0.48507 0.0
C570 C 0.52524 0.99058 0.60937 0.0
C571 C 0.54038 0.97495 0.61689 0.0
C572 C 0.54197 0.95539 0.60466 0.0
C573 C 0.52916 0.95171 0.58482 0.0
C574 C 0.51442 0.96768 0.57719 0.0
C575 C 0.51225 0.98647 0.5897 0.0
C576 C 0.49467 0.00089 0.57975 0.0
C577 C 0.48729 0.98809 0.5588 0.0
C578 C 0.49913 0.96882 0.55725 0.0
C579 C 0.47548 0.00175 0.59605 0.0
C580 C 0.50621 0.02368 0.57452 0.0
H581 H 0.45793 0.95255 0.47601 0.0
H582 H 0.51213 0.89841 0.50353 0.0
H583 H 0.53574 0.94756 0.51489 0.0
H584 H 0.54095 0.94808 0.54373 0.0
H585 H 0.54084 0.9222 0.52913 0.0
H586 H 0.48366 0.90715 0.54431 0.0
H587 H 0.51282 0.90186 0.54882 0.0
H588 H 0.4992 0.92081 0.56611 0.0
H589 H 0.41714 0.02043 0.49742 0.0
H590 H 0.43352 0.05833 0.55711 0.0
H591 H 0.46152 0.03297 0.56831 0.0
H592 H 0.42003 0.97074 0.52043 0.0
H593 H 0.41669 0.97769 0.49166 0.0
H594 H 0.43315 0.9551 0.5007 0.0
H595 H 0.46751 0.01316 0.48668 0.0
H596 H 0.47245 0.98587 0.47951 0.0
H597 H 0.44567 0.99691 0.47184 0.0
H598 H 0.46504 0.9211 0.45317 0.0
C599 C 0.4698 0.94123 0.48246 0.0
C600 C 0.16235 0.29317 0.75716 0.0
C601 C 0.14742 0.27436 0.75648 0.0
C602 C 0.14887 0.25857 0.73963 0.0
C603 C 0.18127 0.279 0.72588 0.0
C604 C 0.17925 0.29508 0.74177 0.0
C605 C 0.19794 0.31286 0.7412 0.0
H606 H 0.29808 0.34787 0.70107 0.0
C607 C 0.20194 0.28442 0.71409 0.0
C608 C 0.21186 0.3043 0.72296 0.0
H609 H 0.26074 0.38086 0.7494 0.0
H610 H 0.23063 0.3523 0.74532 0.0
H611 H 0.25525 0.33537 0.66739 0.0
H612 H 0.29072 0.30116 0.71912 0.0
H613 H 0.28234 0.28091 0.69929 0.0
H614 H 0.30112 0.30383 0.69193 0.0
H615 H 0.28303 0.32599 0.66497 0.0
H616 H 0.25838 0.30843 0.65773 0.0
C617 C 0.18748 0.33488 0.73473 0.0
C618 C 0.21104 0.31344 0.76392 0.0
C619 C 0.22735 0.23082 0.65663 0.0
C620 C 0.24718 0.23022 0.64508 0.0
C621 C 0.26389 0.2474 0.64815 0.0
C622 C 0.26095 0.26502 0.66244 0.0
C623 C 0.24117 0.26541 0.67406 0.0
C624 C 0.22483 0.24843 0.67122 0.0
C625 C 0.20557 0.25108 0.686 0.0
C626 C 0.21286 0.2727 0.69775 0.0
C627 C 0.23362 0.281 0.69053 0.0
C628 C 0.18394 0.2533 0.67117 0.0
C629 C 0.20464 0.23119 0.70214 0.0
C630 C 0.28347 0.34894 0.71087 0.0
C631 C 0.28191 0.36647 0.72577 0.0
C632 C 0.26234 0.3675 0.7378 0.0
C633 C 0.24495 0.35085 0.73549 0.0
C634 C 0.24716 0.33303 0.72097 0.0
C635 C 0.26609 0.33257 0.70875 0.0
C636 C 0.2658 0.3127 0.69397 0.0
C637 C 0.24356 0.30115 0.69925 0.0
C638 C 0.23269 0.31294 0.71519 0.0
C639 C 0.26577 0.32086 0.6697 0.0
C640 C 0.28606 0.29891 0.70121 0.0
H641 H 0.16604 0.24803 0.71212 0.0
H642 H 0.16169 0.3054 0.77012 0.0
H643 H 0.21351 0.29637 0.76998 0.0
H644 H 0.22806 0.3214 0.76334 0.0
H645 H 0.20174 0.32211 0.77646 0.0
H646 H 0.17318 0.33202 0.72237 0.0
H647 H 0.18098 0.34301 0.74937 0.0
H648 H 0.19938 0.34654 0.7267 0.0
H649 H 0.21436 0.21766 0.6547 0.0
H650 H 0.27919 0.2473 0.63924 0.0
H651 H 0.27429 0.2776 0.66393 0.0
H652 H 0.18744 0.26393 0.65662 0.0
H653 H 0.1772 0.23691 0.66488 0.0
H654 H 0.17062 0.26135 0.67969 0.0
H655 H 0.2215 0.22445 0.70514 0.0
H656 H 0.19958 0.23575 0.71878 0.0
H657 H 0.1931 0.21751 0.69547 0.0
H658 H 0.13746 0.24402 0.73884 0.0
C659 C 0.16557 0.26087 0.72425 0.0
C660 C 0.7471 0.16757 0.74396 0.0
C661 C 0.72671 0.16351 0.73163 0.0
C662 C 0.72113 0.17771 0.71406 0.0
C663 C 0.75688 0.19853 0.72023 0.0
C664 C 0.76177 0.18517 0.7381 0.0
C665 C 0.78416 0.1916 0.74945 0.0
H666 H 0.87947 0.25774 0.75568 0.0
C667 C 0.77627 0.21456 0.71794 0.0
C668 C 0.79214 0.2108 0.7352 0.0
H669 H 0.85916 0.20433 0.79906 0.0
H670 H 0.82489 0.19766 0.77714 0.0
H671 H 0.83158 0.27865 0.74954 0.0
H672 H 0.86192 0.23078 0.70934 0.0
H673 H 0.85001 0.25074 0.69199 0.0
H674 H 0.87251 0.25905 0.71165 0.0
H675 H 0.85453 0.2862 0.73247 0.0
H676 H 0.82579 0.28506 0.72159 0.0
C677 C 0.77999 0.19906 0.77334 0.0
C678 C 0.79935 0.17175 0.74798 0.0
C679 C 0.77839 0.26477 0.65105 0.0
C680 C 0.79395 0.28119 0.64403 0.0
C681 C 0.81319 0.28691 0.65769 0.0
C682 C 0.81724 0.2758 0.67776 0.0
C683 C 0.80176 0.25896 0.68429 0.0
C684 C 0.78251 0.25405 0.67117 0.0
C685 C 0.76739 0.23642 0.681 0.0
C686 C 0.78108 0.23093 0.70184 0.0
C687 C 0.80131 0.24403 0.70366 0.0
C688 C 0.74498 0.24665 0.68624 0.0
C689 C 0.76475 0.21667 0.66467 0.0
C690 C 0.86769 0.24451 0.76032 0.0
C691 C 0.87198 0.23178 0.77939 0.0
C692 C 0.85612 0.21476 0.78481 0.0
C693 C 0.8362 0.2108 0.77196 0.0
C694 C 0.83193 0.22386 0.75326 0.0
C695 C 0.84758 0.24027 0.74754 0.0
C696 C 0.84005 0.25225 0.72687 0.0
C697 C 0.8172 0.24053 0.72146 0.0
C698 C 0.81263 0.22391 0.73702 0.0
C699 C 0.83798 0.2769 0.73271 0.0
C700 C 0.85698 0.24822 0.70894 0.0
H701 H 0.73122 0.20511 0.69437 0.0
H702 H 0.75167 0.15703 0.75772 0.0
H703 H 0.79614 0.16291 0.73192 0.0
H704 H 0.81744 0.17673 0.74851 0.0
H705 H 0.7961 0.15965 0.76137 0.0
H706 H 0.76365 0.20696 0.77405 0.0
H707 H 0.77956 0.18479 0.78485 0.0
H708 H 0.7926 0.2118 0.77978 0.0
H709 H 0.76321 0.26041 0.64107 0.0
H710 H 0.82532 0.29963 0.65259 0.0
H711 H 0.8323 0.28066 0.68736 0.0
H712 H 0.74742 0.26474 0.68937 0.0
H713 H 0.73228 0.24421 0.6723 0.0
H714 H 0.73789 0.2399 0.70154 0.0
H715 H 0.78124 0.21317 0.65801 0.0
H716 H 0.75869 0.20113 0.67239 0.0
H717 H 0.75306 0.22027 0.65044 0.0
H718 H 0.70553 0.1748 0.70432 0.0
C719 C 0.73614 0.19518 0.70825 0.0
C720 C 0.52999 0.58896 0.46529 0.0
C721 C 0.51382 0.60498 0.46685 0.0
C722 C 0.4989 0.60315 0.48426 0.0
C723 C 0.51595 0.57008 0.49764 0.0
C724 C 0.53089 0.5719 0.48095 0.0
C725 C 0.548 0.55451 0.48274 0.0
H726 H 0.58972 0.46759 0.5385 0.0
C727 C 0.52143 0.55076 0.51132 0.0
C728 C 0.54028 0.54157 0.50277 0.0
H729 H 0.61788 0.50254 0.48314 0.0
H730 H 0.58594 0.52542 0.48066 0.0
H731 H 0.57567 0.51106 0.56391 0.0
H732 H 0.53856 0.46516 0.5196 0.0
H733 H 0.52003 0.47282 0.53954 0.0
H734 H 0.54475 0.45847 0.54803 0.0
H735 H 0.56918 0.48267 0.5708 0.0
H736 H 0.54969 0.50363 0.5752 0.0
C737 C 0.57155 0.56629 0.48708 0.0
C738 C 0.54568 0.54025 0.46147 0.0
C739 C 0.47417 0.53038 0.57664 0.0
C740 C 0.47444 0.513 0.59207 0.0
C741 C 0.49017 0.49664 0.58988 0.0
C742 C 0.50569 0.49795 0.57319 0.0
C743 C 0.50555 0.51576 0.55834 0.0
C744 C 0.48963 0.5313 0.55993 0.0
C745 C 0.49136 0.5486 0.54222 0.0
C746 C 0.51116 0.54107 0.52991 0.0
C747 C 0.51962 0.52201 0.53959 0.0
C748 C 0.49666 0.57138 0.55357 0.0
C749 C 0.46923 0.54694 0.52764 0.0
C750 C 0.58916 0.48028 0.52592 0.0
C751 C 0.60661 0.48337 0.51118 0.0
C752 C 0.60473 0.49969 0.49468 0.0
C753 C 0.58626 0.51313 0.4934 0.0
C754 C 0.5695 0.51039 0.50888 0.0
C755 C 0.57102 0.49398 0.52462 0.0
C756 C 0.55194 0.49362 0.53999 0.0
C757 C 0.53902 0.51294 0.5313 0.0
C758 C 0.54931 0.52266 0.513 0.0
C759 C 0.56197 0.49783 0.5638 0.0
C760 C 0.53809 0.47135 0.53687 0.0
H761 H 0.48795 0.58556 0.51222 0.0
H762 H 0.54181 0.58965 0.45229 0.0
H763 H 0.52765 0.5363 0.45672 0.0
H764 H 0.55331 0.52416 0.46351 0.0
H765 H 0.55336 0.54915 0.44744 0.0
H766 H 0.57044 0.58209 0.49622 0.0
H767 H 0.57968 0.57023 0.47134 0.0
H768 H 0.58289 0.55658 0.49771 0.0
H769 H 0.46256 0.54339 0.57776 0.0
H770 H 0.49053 0.48274 0.6011 0.0
H771 H 0.51733 0.48511 0.57259 0.0
H772 H 0.50704 0.56967 0.56919 0.0
H773 H 0.48101 0.57919 0.55777 0.0
H774 H 0.50677 0.58295 0.54346 0.0
H775 H 0.46282 0.52942 0.52564 0.0
H776 H 0.47133 0.55292 0.51062 0.0
H777 H 0.45592 0.55612 0.5352 0.0
H778 H 0.48677 0.61547 0.48662 0.0
C779 C 0.49975 0.5858 0.49943 0.0
C780 C 0.53761 0.41758 0.02452 0.0
C781 C 0.51836 0.40301 0.0234 0.0
C782 C 0.50073 0.40707 0.00783 0.0
C783 C 0.52152 0.43959 0.99477 0.0
C784 C 0.53873 0.43583 0.01022 0.0
C785 C 0.5575 0.4535 0.0097 0.0
H786 H 0.59866 0.54977 0.96611 0.0
C787 C 0.52778 0.45989 0.98246 0.0
C788 C 0.5488 0.46827 0.99125 0.0
H789 H 0.62864 0.51226 0.01943 0.0
H790 H 0.59813 0.48423 0.01525 0.0
H791 H 0.54929 0.54496 0.9813 0.0
H792 H 0.58434 0.50776 0.93481 0.0
H793 H 0.55711 0.51042 0.92318 0.0
H794 H 0.57511 0.53489 0.92883 0.0
H795 H 0.55597 0.5555 0.95459 0.0
H796 H 0.53034 0.53914 0.95868 0.0
C797 C 0.55931 0.46549 0.03235 0.0
C798 C 0.57916 0.4425 0.0036 0.0
C799 C 0.47681 0.48489 0.9183 0.0
C800 C 0.47847 0.50281 0.90354 0.0
C801 C 0.49674 0.51849 0.9065 0.0
C802 C 0.51329 0.51614 0.92343 0.0
C803 C 0.5117 0.49789 0.93769 0.0
C804 C 0.49355 0.48278 0.93518 0.0
C805 C 0.49464 0.46452 0.95201 0.0
C806 C 0.51671 0.47091 0.96465 0.0
C807 C 0.52661 0.49043 0.95614 0.0
C808 C 0.47422 0.46576 0.96675 0.0
C809 C 0.49567 0.44235 0.93947 0.0
C810 C 0.59866 0.53556 0.97697 0.0
C811 C 0.61597 0.53337 0.99329 0.0
C812 C 0.61554 0.51433 0.00669 0.0
C813 C 0.5977 0.49818 0.00436 0.0
C814 C 0.58011 0.50106 0.98843 0.0
C815 C 0.58102 0.5194 0.97489 0.0
C816 C 0.56109 0.51988 0.95878 0.0
C817 C 0.54771 0.49908 0.96516 0.0
C818 C 0.55886 0.48804 0.98253 0.0
C819 C 0.54848 0.54099 0.96332 0.0
C820 C 0.56968 0.51832 0.9351 0.0
H821 H 0.48829 0.42723 0.98198 0.0
H822 H 0.55132 0.41502 0.03647 0.0
H823 H 0.57533 0.42959 0.99069 0.0
H824 H 0.59162 0.45422 0.99645 0.0
H825 H 0.58712 0.43444 0.01824 0.0
H826 H 0.54237 0.46716 0.03887 0.0
H827 H 0.56935 0.45617 0.04474 0.0
H828 H 0.56664 0.48256 0.03143 0.0
H829 H 0.46289 0.47266 0.91666 0.0
H830 H 0.49867 0.53227 0.89524 0.0
H831 H 0.52687 0.5285 0.92454 0.0
H832 H 0.46888 0.483 0.96804 0.0
H833 H 0.45956 0.45542 0.95992 0.0
H834 H 0.4781 0.46082 0.98404 0.0
H835 H 0.50701 0.44428 0.92547 0.0
H836 H 0.50259 0.42913 0.94982 0.0
H837 H 0.47878 0.43656 0.93255 0.0
H838 H 0.48586 0.39598 0.00648 0.0
C839 C 0.50223 0.42519 0.99352 0.0
C840 C 0.76667 0.14938 0.28455 0.0
C841 C 0.76611 0.13379 0.2673 0.0
C842 C 0.74919 0.13472 0.25023 0.0
C843 C 0.73417 0.16645 0.26765 0.0
C844 C 0.75071 0.16547 0.28435 0.0
C845 C 0.74947 0.1835 0.3012 0.0
H846 H 0.70266 0.27571 0.33574 0.0
C847 C 0.72032 0.18527 0.27245 0.0
C848 C 0.72921 0.19528 0.29209 0.0
H849 H 0.75982 0.24306 0.36441 0.0
H850 H 0.75478 0.21455 0.33703 0.0
H851 H 0.6718 0.2308 0.32814 0.0
H852 H 0.71313 0.2676 0.28292 0.0
H853 H 0.68592 0.26167 0.2707 0.0
H854 H 0.68919 0.27838 0.29523 0.0
H855 H 0.66237 0.25521 0.31466 0.0
H856 H 0.6584 0.2283 0.30172 0.0
C857 C 0.74507 0.17254 0.32384 0.0
C858 C 0.77149 0.19836 0.30077 0.0
C859 C 0.65454 0.20268 0.22013 0.0
C860 C 0.6371 0.2174 0.22105 0.0
C861 C 0.63726 0.23181 0.23947 0.0
C862 C 0.65441 0.23171 0.25624 0.0
C863 C 0.67151 0.21682 0.25496 0.0
C864 C 0.6711 0.20234 0.23732 0.0
C865 C 0.68945 0.18633 0.23954 0.0
C866 C 0.70121 0.19383 0.26124 0.0
C867 C 0.69093 0.21201 0.27004 0.0
C868 C 0.67836 0.16266 0.24107 0.0
C869 C 0.70485 0.18991 0.21987 0.0
C870 C 0.714 0.26235 0.33605 0.0
C871 C 0.73205 0.26202 0.35197 0.0
C872 C 0.74624 0.24416 0.35198 0.0
C873 C 0.74321 0.22747 0.33608 0.0
C874 C 0.72575 0.22839 0.31981 0.0
C875 C 0.71123 0.24539 0.32008 0.0
C876 C 0.69333 0.24303 0.30157 0.0
C877 C 0.70022 0.22241 0.28978 0.0
C878 C 0.71921 0.21399 0.30067 0.0
C879 C 0.67019 0.23929 0.3119 0.0
C880 C 0.6953 0.26376 0.28677 0.0
H881 H 0.72098 0.15087 0.23676 0.0
H882 H 0.77925 0.14908 0.29805 0.0
H883 H 0.77835 0.19869 0.284 0.0
H884 H 0.76902 0.21588 0.30449 0.0
H885 H 0.78468 0.19226 0.31245 0.0
H886 H 0.73394 0.15726 0.32168 0.0
H887 H 0.76099 0.16784 0.33239 0.0
H888 H 0.73612 0.18312 0.33494 0.0
H889 H 0.6555 0.19148 0.20635 0.0
H890 H 0.62395 0.24298 0.24126 0.0
H891 H 0.65356 0.24309 0.26971 0.0
H892 H 0.66209 0.16277 0.24929 0.0
H893 H 0.67491 0.15524 0.22439 0.0
H894 H 0.68855 0.1515 0.2513 0.0
H895 H 0.70759 0.20784 0.21627 0.0
H896 H 0.72181 0.1839 0.22318 0.0
H897 H 0.69723 0.18175 0.20465 0.0
H898 H 0.74851 0.12316 0.23654 0.0
C899 C 0.73327 0.15094 0.25031 0.0
C900 C 0.40956 0.98089 0.97899 0.0
C901 C 0.40491 0.96134 0.96666 0.0
C902 C 0.41785 0.95737 0.94834 0.0
C903 C 0.43991 0.99171 0.95515 0.0
C904 C 0.42716 0.9957 0.97306 0.0
C905 C 0.43493 0.01685 0.98485 0.0
H906 H 0.50799 0.10655 0.99323 0.0
C907 C 0.4572 0.01003 0.95368 0.0
C908 C 0.45446 0.02478 0.97116 0.0
H909 H 0.45168 0.09035 0.03375 0.0
H910 H 0.4433 0.05669 0.01297 0.0
H911 H 0.48187 0.09633 0.94906 0.0
H912 H 0.52539 0.05678 0.98912 0.0
H913 H 0.53222 0.05329 0.96146 0.0
H914 H 0.53521 0.08044 0.9738 0.0
H915 H 0.51187 0.09989 0.94855 0.0
H916 H 0.49587 0.08055 0.93043 0.0
C917 C 0.41548 0.03276 0.98321 0.0
C918 C 0.44279 0.01107 0.00881 0.0
C919 C 0.51109 0.01219 0.89066 0.0
C920 C 0.52808 0.02781 0.88471 0.0
C921 C 0.53353 0.04616 0.89865 0.0
C922 C 0.522 0.04927 0.91786 0.0
C923 C 0.50462 0.03397 0.92329 0.0
C924 C 0.49949 0.01571 0.90992 0.0
C925 C 0.48023 0.00145 0.91831 0.0
C926 C 0.47448 0.01442 0.93863 0.0
C927 C 0.48892 0.03338 0.94145 0.0
C928 C 0.46082 0.00066 0.90032 0.0
C929 C 0.48906 0.9786 0.92452 0.0
C930 C 0.49377 0.09588 0.99766 0.0
C931 C 0.48054 0.10131 0.01529 0.0
C932 C 0.46243 0.08656 0.02053 0.0
C933 C 0.45742 0.06706 0.00827 0.0
C934 C 0.47054 0.0622 0.99041 0.0
C935 C 0.48838 0.07654 0.98543 0.0
C936 C 0.49996 0.06934 0.96538 0.0
C937 C 0.48631 0.04818 0.95922 0.0
C938 C 0.46915 0.04397 0.97397 0.0
C939 C 0.4975 0.08741 0.94738 0.0
C940 C 0.52456 0.06483 0.9726 0.0
H941 H 0.44446 0.96836 0.92845 0.0
H942 H 0.40009 0.9843 0.9933 0.0
H943 H 0.45186 0.99551 0.00914 0.0
H944 H 0.45484 0.02366 0.01641 0.0
H945 H 0.42826 0.00866 0.0195 0.0
H946 H 0.40595 0.03092 0.96698 0.0
H947 H 0.40345 0.02932 0.99637 0.0
H948 H 0.4214 0.05033 0.98403 0.0
H949 H 0.50649 0.99797 0.88024 0.0
H950 H 0.54676 0.05823 0.8946 0.0
H951 H 0.52695 0.06365 0.92762 0.0
H952 H 0.45944 0.01707 0.89229 0.0
H953 H 0.4637 0.98845 0.88721 0.0
H954 H 0.44419 0.99677 0.90698 0.0
H955 H 0.50681 0.98027 0.93114 0.0
H956 H 0.4798 0.97036 0.93785 0.0
H957 H 0.48847 0.96749 0.90989 0.0
H958 H 0.41448 0.94257 0.93843 0.0
C959 C 0.43525 0.97241 0.94252 0.0
Mg960 Mg 0.24429 0.87083 0.00974 0.0
O961 O 0.27784 0.8899 0.00233 0.0
O962 O 0.30404 0.86493 0.0025 0.0
Mg963 Mg 0.28803 0.83076 0.00961 0.0
C964 C 0.29817 0.88479 0.00032 0.0
C965 C 0.20267 0.89572 0.99748 0.0
O966 O 0.19537 0.87497 -0.00076 0.0
O967 O 0.2411 0.85668 0.97453 0.0
O968 O 0.26791 0.8322 0.97626 0.0
O969 O 0.2518 0.87462 0.04629 0.0
O970 O 0.2614 0.84638 0.02658 0.0
C971 C 0.25209 0.84176 0.96572 0.0
C972 C 0.26161 0.85613 0.04546 0.0
O973 O 0.22369 0.90039 7e-05 0.0
Mg974 Mg 0.14512 0.51007 0.26651 0.0
O975 O 0.12591 0.50813 0.23232 0.0
O976 O 0.15153 0.51352 0.20678 0.0
Mg977 Mg 0.18653 0.51556 0.22374 0.0
C978 C 0.1312 0.51034 0.21219 0.0
C979 C 0.11632 0.49838 0.30527 0.0
O980 O 0.13698 0.50094 0.31383 0.0
O981 O 0.1558 0.4745 0.26239 0.0
O982 O 0.18061 0.47992 0.23604 0.0
O983 O 0.14502 0.54717 0.26614 0.0
O984 O 0.17204 0.52819 0.2533 0.0
C985 C 0.1699 0.46727 0.24927 0.0
C986 C 0.16384 0.54704 0.2564 0.0
O987 O 0.11326 0.49965 0.28438 0.0
Mg988 Mg 0.77581 0.63845 0.0195 0.0
O989 O 0.74317 0.61617 0.01359 0.0
O990 O 0.7152 0.63906 0.00933 0.0
Mg991 Mg 0.72893 0.67486 0.01194 0.0
C992 C 0.7223 0.61958 0.01027 0.0
C993 C 0.79806 0.59445 0.0301 0.0
O994 O 0.78391 0.5956 0.04595 0.0
O995 O 0.77626 0.64779 0.98271 0.0
O996 O 0.74795 0.67054 0.98029 0.0
O997 O 0.77052 0.63969 0.05603 0.0
O998 O 0.75762 0.66376 0.03207 0.0
C999 C 0.7639 0.66086 0.97166 0.0
C1000 C 0.75909 0.65691 0.05215 0.0
O1001 O 0.79801 0.60918 0.01515 0.0
Mg1002 Mg 0.89714 0.02237 0.24397 0.0
O1003 O 0.87275 0.99196 0.23819 0.0
O1004 O 0.89296 0.96368 0.22913 0.0
Mg1005 Mg 0.92992 0.9758 0.22888 0.0
C1006 C 0.87417 0.97169 0.23293 0.0
C1007 C 0.87387 0.06126 0.26394 0.0
O1008 O 0.89483 0.06903 0.26329 0.0
O1009 O 0.90926 0.00854 0.27762 0.0
O1010 O 0.92985 0.98123 0.26649 0.0
O1011 O 0.89437 0.03081 0.20802 0.0
O1012 O 0.92 0.0097 0.22285 0.0
C1013 C 0.92213 0.9927 0.28183 0.0
C1014 C 0.91114 0.01856 0.20543 0.0
O1015 O 0.8691 0.04128 0.25829 0.0
Mg1016 Mg 0.27388 0.13742 0.50547 0.0
O1017 O 0.24188 0.11365 0.50375 0.0
O1018 O 0.21277 0.13541 0.5031 0.0
Mg1019 Mg 0.22492 0.17166 0.50411 0.0
C1020 C 0.22069 0.11626 0.50311 0.0
C1021 C 0.31764 0.11486 0.50237 0.0
O1022 O 0.32332 0.13547 0.50784 0.0
O1023 O 0.26887 0.14639 0.4687 0.0
O1024 O 0.23963 0.16786 0.47013 0.0
O1025 O 0.27406 0.13861 0.54251 0.0
O1026 O 0.25609 0.1615 0.52062 0.0
C1027 C 0.25457 0.15881 0.45938 0.0
C1028 C 0.26093 0.15484 0.54035 0.0
O1029 O 0.29689 0.10938 0.4987 0.0
Mg1030 Mg 0.39386 0.52 0.7425 0.0
O1031 O 0.37126 0.48819 0.73733 0.0
O1032 O 0.39356 0.46024 0.73319 0.0
Mg1033 Mg 0.43009 0.47381 0.7351 0.0
C1034 C 0.37404 0.46767 0.73439 0.0
C1035 C 0.36428 0.55924 0.74914 0.0
O1036 O 0.38278 0.56864 0.74168 0.0
O1037 O 0.40346 0.50956 0.77826 0.0
O1038 O 0.42607 0.48228 0.77153 0.0
O1039 O 0.39511 0.52531 0.70572 0.0
O1040 O 0.41958 0.50669 0.72548 0.0
C1041 C 0.41652 0.49459 0.78494 0.0
C1042 C 0.41278 0.51382 0.70646 0.0
O1043 O 0.36334 0.53847 0.75234 0.0
Mg1044 Mg 0.73994 0.3666 0.50351 0.0
O1045 O 0.77462 0.38213 0.49358 0.0
O1046 O 0.79772 0.35424 0.49493 0.0
Mg1047 Mg 0.77928 0.32216 0.50483 0.0
C1048 C 0.79402 0.37452 0.4914 0.0
C1049 C 0.70899 0.40387 0.50846 0.0
O1050 O 0.71052 0.39411 0.5278 0.0
O1051 O 0.73402 0.3504 0.46922 0.0
O1052 O 0.75846 0.32366 0.47199 0.0
O1053 O 0.74968 0.37243 0.53947 0.0
O1054 O 0.75565 0.3419 0.5215 0.0
C1055 C 0.74339 0.33394 0.46114 0.0
C1056 C 0.75778 0.35308 0.5396 0.0
O1057 O 0.72064 0.39701 0.49305 0.0
Mg1058 Mg 0.65246 0.00542 0.76258 0.0
O1059 O 0.632 0.0046 0.72908 0.0
O1060 O 0.65632 0.01269 0.70289 0.0
Mg1061 Mg 0.69193 0.01661 0.7186 0.0
C1062 C 0.63641 0.00805 0.70888 0.0
C1063 C 0.60865 0.00781 0.78681 0.0
O1064 O 0.62068 0.99124 0.78183 0.0
O1065 O 0.66508 0.97069 0.75569 0.0
O1066 O 0.68963 0.98087 0.73039 0.0
O1067 O 0.65157 0.04291 0.76492 0.0
O1068 O 0.6781 0.02532 0.74969 0.0
C1069 C 0.68047 0.96614 0.74264 0.0
C1070 C 0.6702 0.04374 0.75483 0.0
O1071 O 0.62095 0.99228 0.78154 0.0
Mg1072 Mg 0.02488 0.25224 0.88463 0.0
O1073 O 0.98916 0.24708 0.8679 0.0
O1074 O 0.9669 0.23794 0.89549 0.0
Mg1075 Mg 0.98702 0.23598 0.92843 0.0
C1076 C 0.96972 0.24201 0.87508 0.0
C1077 C 0.05881 0.25982 0.85088 0.0
O1078 O 0.06618 0.24545 0.86536 0.0
O1079 O 0.01551 0.28566 0.89894 0.0
O1080 O 0.99496 0.27329 0.92676 0.0
O1081 O 0.03097 0.21591 0.88112 0.0
O1082 O 0.01665 0.23054 0.9101 0.0
C1083 C 0.0044 0.28911 0.91606 0.0
C1084 C 0.02273 0.2132 0.90034 0.0
O1085 O 0.03981 0.26772 0.85362 0.0
Mg1086 Mg 0.53002 0.75766 0.39 0.0
O1087 O 0.49533 0.75064 0.37155 0.0
O1088 O 0.47308 0.73646 0.39728 0.0
Mg1089 Mg 0.49248 0.73225 0.43031 0.0
C1090 C 0.47613 0.74301 0.37754 0.0
C1091 C 0.56401 0.78575 0.36527 0.0
O1092 O 0.57279 0.78445 0.38553 0.0
O1093 O 0.51658 0.78776 0.40774 0.0
O1094 O 0.49718 0.76984 0.43358 0.0
O1095 O 0.54109 0.72347 0.38282 0.0
O1096 O 0.52283 0.73221 0.41203 0.0
C1097 C 0.50515 0.78774 0.42511 0.0
C1098 C 0.53157 0.71732 0.40068 0.0
O1099 O 0.54407 0.77771 0.3613 0.0
Mg1100 Mg 0.99164 0.74156 0.61736 0.0
O1101 O 0.02554 0.73522 0.63594 0.0
O1102 O 0.04849 0.72602 0.60976 0.0
Mg1103 Mg 0.0297 0.72429 0.57583 0.0
C1104 C 0.04481 0.72989 0.62998 0.0
C1105 C 0.95572 0.75485 0.64544 0.0
O1106 O 0.94673 0.74717 0.62652 0.0
O1107 O 0.00624 0.77448 0.60369 0.0
O1108 O 0.0261 0.76198 0.57638 0.0
O1109 O 0.97903 0.70641 0.62041 0.0
O1110 O 0.99819 0.71915 0.5925 0.0
C1111 C 0.01811 0.77788 0.58684 0.0
C1112 C 0.98808 0.70266 0.60192 0.0
O1113 O 0.97706 0.75682 0.64775 0.0
Mg1114 Mg 0.48991 0.24783 0.10744 0.0
O1115 O 0.52236 0.24375 0.12888 0.0
O1116 O 0.54851 0.232 0.10711 0.0
Mg1117 Mg 0.53356 0.2313 0.07149 0.0
C1118 C 0.54208 0.23745 0.12604 0.0
C1119 C 0.45259 0.26524 0.13426 0.0
O1120 O 0.44255 0.26035 0.11494 0.0
O1121 O 0.50437 0.28087 0.09443 0.0
O1122 O 0.53022 0.26916 0.07226 0.0
O1123 O 0.47981 0.2119 0.1106 0.0
O1124 O 0.49956 0.22575 0.08352 0.0
C1125 C 0.51972 0.28471 0.08069 0.0
C1126 C 0.49026 0.20869 0.09276 0.0
O1127 O 0.47368 0.26329 0.1367 0.0
H1128 H 0.21194 0.79275 0.87998 0.0
H1129 H 0.28248 0.7935 0.86689 0.0
H1130 H 0.29166 0.81603 0.89965 0.0
H1131 H 0.28022 0.83206 0.93417 0.0
H1132 H 0.20992 0.83371 0.94675 0.0
H1133 H 0.20001 0.81421 0.91179 0.0
C1134 C 0.22926 0.79826 0.88399 0.0
C1135 C 0.24653 0.79078 0.8713 0.0
C1136 C 0.23449 0.81157 0.90283 0.0
C1137 C 0.26888 0.79827 0.87675 0.0
C1138 C 0.27418 0.8113 0.89544 0.0
C1139 C 0.26272 0.82848 0.92902 0.0
C1140 C 0.24583 0.83402 0.94302 0.0
C1141 C 0.25722 0.81743 0.90897 0.0
C1142 C 0.2232 0.82959 0.93615 0.0
C1143 C 0.21756 0.81832 0.91626 0.0
H1144 H 0.02716 0.507 0.35642 0.0
H1145 H 0.07547 0.50812 0.41182 0.0
H1146 H 0.10538 0.50071 0.38725 0.0
H1147 H 0.11841 0.49717 0.35 0.0
H1148 H 0.07106 0.49764 0.29383 0.0
H1149 H 0.04018 0.50083 0.31864 0.0
C1150 C 0.04419 0.50526 0.36304 0.0
C1151 C 0.04919 0.50826 0.38584 0.0
C1152 C 0.06149 0.50143 0.34868 0.0
C1153 C 0.07131 0.50609 0.39429 0.0
C1154 C 0.0884 0.50185 0.38026 0.0
C1155 C 0.10133 0.49772 0.34311 0.0
C1156 C 0.09714 0.49735 0.32004 0.0
C1157 C 0.08379 0.50001 0.3574 0.0
C1158 C 0.07482 0.49796 0.31151 0.0
C1159 C 0.05714 0.49987 0.3257 0.0
H1160 H 0.80069 0.70688 0.88683 0.0
H1161 H 0.72944 0.70872 0.8712 0.0
H1162 H 0.72146 0.6861 0.90334 0.0
H1163 H 0.73436 0.66978 0.93825 0.0
H1164 H 0.80527 0.66662 0.95417 0.0
H1165 H 0.81378 0.68517 0.91932 0.0
C1166 C 0.78346 0.70193 0.89021 0.0
C1167 C 0.76568 0.71008 0.87697 0.0
C1168 C 0.77891 0.68873 0.90882 0.0
C1169 C 0.74344 0.70332 0.88151 0.0
C1170 C 0.73883 0.69027 0.89983 0.0
C1171 C 0.75168 0.67275 0.93386 0.0
C1172 C 0.76915 0.66709 0.9488 0.0
C1173 C 0.75638 0.68353 0.914 0.0
C1174 C 0.79152 0.67078 0.94286 0.0
C1175 C 0.79638 0.68158 0.92304 0.0
H1176 H 0.97076 0.96198 0.37021 0.0
H1177 H 0.95796 0.02833 0.38982 0.0
H1178 H 0.93619 0.03356 0.35511 0.0
H1179 H 0.92386 0.02041 0.31764 0.0
H1180 H 0.93809 0.9544 0.2979 0.0
H1181 H 0.95577 0.94781 0.33423 0.0
C1182 C 0.96279 0.97741 0.36711 0.0
C1183 C 0.96612 0.99477 0.38253 0.0
C1184 C 0.95063 0.98043 0.34696 0.0
C1185 C 0.9559 0.01478 0.37809 0.0
C1186 C 0.94342 0.01778 0.35825 0.0
C1187 C 0.93047 0.00447 0.32144 0.0
C1188 C 0.92979 0.98802 0.30496 0.0
C1189 C 0.94114 0.0009 0.34231 0.0
C1190 C 0.93857 0.96746 0.31016 0.0
C1191 C 0.94872 0.96365 0.33096 0.0
H1192 H 0.22037 0.21707 0.60958 0.0
H1193 H 0.28214 0.20337 0.64553 0.0
H1194 H 0.29053 0.1765 0.61733 0.0
H1195 H 0.28207 0.15972 0.5807 0.0
H1196 H 0.2217 0.17563 0.54344 0.0
H1197 H 0.21085 0.1986 0.57381 0.0
C1198 C 0.23543 0.20786 0.61136 0.0
C1199 C 0.25064 0.21208 0.6295 0.0
C1200 C 0.24048 0.193 0.59472 0.0
C1201 C 0.27027 0.20035 0.63159 0.0
C1202 C 0.27507 0.18505 0.61548 0.0
C1203 C 0.26635 0.16791 0.57942 0.0
C1204 C 0.25281 0.16615 0.55978 0.0
C1205 C 0.26056 0.18163 0.59672 0.0
C1206 C 0.2326 0.17701 0.55822 0.0
C1207 C 0.22635 0.19011 0.57563 0.0
H1208 H 0.48319 0.49944 0.63447 0.0
H1209 H 0.43072 0.52539 0.59198 0.0
H1210 H 0.40673 0.52736 0.62332 0.0
H1211 H 0.40119 0.52316 0.6633 0.0
H1212 H 0.45337 0.49571 0.705 0.0
H1213 H 0.4765 0.49227 0.67333 0.0
C1214 C 0.46635 0.50509 0.63184 0.0
C1215 C 0.45899 0.51243 0.61078 0.0
C1216 C 0.45246 0.50587 0.64986 0.0
C1217 C 0.43715 0.52007 0.60802 0.0
C1218 C 0.42329 0.52106 0.62594 0.0
C1219 C 0.41752 0.51621 0.6654 0.0
C1220 C 0.4255 0.50977 0.68656 0.0
C1221 C 0.43088 0.51428 0.64702 0.0
C1222 C 0.4467 0.50074 0.68895 0.0
C1223 C 0.46005 0.49886 0.67083 0.0
H1224 H 0.79284 0.32519 0.63521 0.0
H1225 H 0.78588 0.26093 0.60433 0.0
H1226 H 0.77612 0.27777 0.56873 0.0
H1227 H 0.76696 0.31038 0.54703 0.0
H1228 H 0.77141 0.37465 0.57808 0.0
H1229 H 0.78495 0.35831 0.61286 0.0
C1230 C 0.78948 0.31499 0.62057 0.0
C1231 C 0.79002 0.29189 0.62231 0.0
C1232 C 0.78333 0.32478 0.60024 0.0
C1233 C 0.78541 0.27875 0.60334 0.0
C1234 C 0.77985 0.28836 0.58302 0.0
C1235 C 0.77119 0.32089 0.56131 0.0
C1236 C 0.76819 0.3437 0.55996 0.0
C1237 C 0.77837 0.31131 0.58135 0.0
C1238 C 0.77354 0.35702 0.57869 0.0
C1239 C 0.78124 0.34769 0.5986 0.0
H1240 H 0.5707 0.00924 0.62409 0.0
H1241 H 0.54335 0.94997 0.65422 0.0
H1242 H 0.56933 0.95608 0.6866 0.0
H1243 H 0.60136 0.97735 0.70539 0.0
H1244 H 0.63095 0.0345 0.67319 0.0
H1245 H 0.60258 0.03038 0.64272 0.0
C1246 C 0.57033 0.99785 0.6379 0.0
C1247 C 0.55514 0.97929 0.63696 0.0
C1248 C 0.58578 0.00109 0.65605 0.0
C1249 C 0.55496 0.96438 0.6547 0.0
C1250 C 0.56979 0.96787 0.67316 0.0
C1251 C 0.60134 0.98902 0.69181 0.0
C1252 C 0.61808 0.00628 0.69154 0.0
C1253 C 0.58547 0.98604 0.67391 0.0
C1254 C 0.61821 0.02109 0.6737 0.0
C1255 C 0.60202 0.01873 0.65628 0.0
H1256 H 0.87488 0.23219 0.82417 0.0
H1257 H 0.91541 0.24128 0.76751 0.0
H1258 H 0.94932 0.24603 0.79198 0.0
H1259 H 0.96758 0.24587 0.82969 0.0
H1260 H 0.92607 0.23553 0.8857 0.0
H1261 H 0.89262 0.23264 0.86121 0.0
C1262 C 0.89114 0.23504 0.8171 0.0
C1263 C 0.89258 0.23612 0.79401 0.0
C1264 C 0.91049 0.23738 0.83118 0.0
C1265 C 0.91376 0.24046 0.78523 0.0
C1266 C 0.93318 0.24302 0.79922 0.0
C1267 C 0.95122 0.24304 0.83654 0.0
C1268 C 0.94953 0.2408 0.8596 0.0
C1269 C 0.93179 0.24126 0.82226 0.0
C1270 C 0.92808 0.23719 0.86809 0.0
C1271 C 0.90883 0.23556 0.85408 0.0
H1272 H 0.48789 0.86506 0.49072 0.0
H1273 H 0.49745 0.90459 0.43249 0.0
H1274 H 0.50378 0.87127 0.4111 0.0
H1275 H 0.50686 0.83049 0.40926 0.0
H1276 H 0.49581 0.79188 0.4681 0.0
H1277 H 0.49003 0.82513 0.48883 0.0
C1278 C 0.4915 0.8664 0.47337 0.0
C1279 C 0.4924 0.88723 0.46325 0.0
C1280 C 0.49489 0.84727 0.46124 0.0
C1281 C 0.49662 0.88868 0.44063 0.0
C1282 C 0.50033 0.86965 0.42844 0.0
C1283 C 0.50323 0.82942 0.42661 0.0
C1284 C 0.50176 0.80863 0.43701 0.0
C1285 C 0.49956 0.84879 0.43859 0.0
C1286 C 0.49688 0.80756 0.45952 0.0
C1287 C 0.49362 0.82661 0.4715 0.0
H1288 H 0.11302 0.29832 0.77041 0.0
H1289 H 0.14833 0.23915 0.78337 0.0
H1290 H 0.12403 0.22958 0.81354 0.0
H1291 H 0.09299 0.23775 0.83611 0.0
H1292 H 0.05577 0.29573 0.82309 0.0
H1293 H 0.08036 0.306 0.79293 0.0
C1294 C 0.1153 0.28341 0.77994 0.0
C1295 C 0.13238 0.26942 0.77477 0.0
C1296 C 0.10091 0.27776 0.79712 0.0
C1297 C 0.1352 0.25005 0.78705 0.0
C1298 C 0.12134 0.24459 0.80429 0.0
C1299 C 0.0902 0.25268 0.82673 0.0
C1300 C 0.07267 0.26603 0.83194 0.0
C1301 C 0.10416 0.25827 0.80943 0.0
C1302 C 0.06915 0.28515 0.81939 0.0
C1303 C 0.08325 0.29105 0.8022 0.0
H1304 H 0.54867 0.62654 0.44604 0.0
H1305 H 0.47674 0.62663 0.45188 0.0
H1306 H 0.47578 0.66098 0.4313 0.0
H1307 H 0.49571 0.69263 0.41408 0.0
H1308 H 0.56665 0.6908 0.40468 0.0
H1309 H 0.56749 0.65501 0.4235 0.0
C1310 C 0.53264 0.63363 0.44242 0.0
C1311 C 0.51293 0.62412 0.45129 0.0
C1312 C 0.532 0.65313 0.42986 0.0
C1313 C 0.4924 0.63389 0.44622 0.0
C1314 C 0.49174 0.6535 0.4342 0.0
C1315 C 0.51125 0.68419 0.41593 0.0
C1316 C 0.53114 0.69428 0.40834 0.0
C1317 C 0.51151 0.66355 0.42644 0.0
C1318 C 0.55114 0.68318 0.41041 0.0
C1319 C 0.55164 0.66284 0.42129 0.0
H1320 H 0.90388 0.76459 0.73368 0.0
H1321 H 0.84729 0.75551 0.68679 0.0
H1322 H 0.87259 0.7536 0.65655 0.0
H1323 H 0.91042 0.75419 0.64334 0.0
H1324 H 0.96776 0.76335 0.68931 0.0
H1325 H 0.94259 0.76588 0.71995 0.0
C1326 C 0.8972 0.76205 0.71684 0.0
C1327 C 0.87375 0.76019 0.71245 0.0
C1328 C 0.91193 0.76119 0.69937 0.0
C1329 C 0.86525 0.75713 0.69055 0.0
C1330 C 0.8797 0.75603 0.67325 0.0
C1331 C 0.91752 0.75685 0.66003 0.0
C1332 C 0.94098 0.75853 0.66399 0.0
C1333 C 0.90302 0.75809 0.67746 0.0
C1334 C 0.94977 0.76208 0.68576 0.0
C1335 C 0.93537 0.76339 0.7033 0.0
H1336 H 0.01921 0.87836 0.55689 0.0
H1337 H 0.04287 0.84943 0.49799 0.0
H1338 H 0.04293 0.81321 0.51583 0.0
H1339 H 0.03445 0.78957 0.54722 0.0
H1340 H 0.00863 0.81743 0.6058 0.0
H1341 H 0.01133 0.85427 0.58918 0.0
C1342 C 0.02455 0.86408 0.54817 0.0
C1343 C 0.03111 0.86638 0.52626 0.0
C1344 C 0.02408 0.84318 0.55842 0.0
C1345 C 0.03781 0.84789 0.51489 0.0
C1346 C 0.03782 0.82724 0.52507 0.0
C1347 C 0.02961 0.80367 0.55655 0.0
C1348 C 0.02136 0.80063 0.5778 0.0
C1349 C 0.03074 0.82465 0.54672 0.0
C1350 C 0.01502 0.81921 0.58943 0.0
C1351 C 0.01653 0.8403 0.5799 0.0
H1352 H 0.13491 0.72042 0.68792 0.0
H1353 H 0.09181 0.73596 0.74024 0.0
H1354 H 0.06007 0.73824 0.7134 0.0
H1355 H 0.04452 0.736 0.6749 0.0
H1356 H 0.08796 0.71993 0.62289 0.0
H1357 H 0.11932 0.71742 0.6498 0.0
C1358 C 0.11852 0.72403 0.69353 0.0
C1359 C 0.11583 0.72802 0.71612 0.0
C1360 C 0.1003 0.72524 0.67802 0.0
C1361 C 0.09449 0.73308 0.72295 0.0
C1362 C 0.07628 0.73429 0.70761 0.0
C1363 C 0.06082 0.73192 0.66943 0.0
C1364 C 0.06372 0.7282 0.64679 0.0
C1365 C 0.07899 0.73048 0.68506 0.0
C1366 C 0.08507 0.72291 0.64013 0.0
C1367 C 0.10312 0.72146 0.65553 0.0
H1368 H 0.95236 0.61555 0.55326 0.0
H1369 H 0.0206 0.6177 0.53189 0.0
H1370 H 0.02909 0.65163 0.55272 0.0
H1371 H 0.01701 0.68138 0.57677 0.0
H1372 H 0.9507 0.67563 0.60216 0.0
H1373 H 0.94204 0.64183 0.58078 0.0
C1374 C 0.96935 0.62284 0.55346 0.0
C1375 C 0.98557 0.61382 0.54045 0.0
C1376 C 0.9746 0.64179 0.56645 0.0
C1377 C 0.00729 0.62435 0.54091 0.0
C1378 C 0.01236 0.64374 0.55313 0.0
C1379 C 0.00077 0.67256 0.57772 0.0
C1380 C 0.98445 0.68099 0.59086 0.0
C1381 C 0.99608 0.65274 0.56581 0.0
C1382 C 0.96356 0.66935 0.59222 0.0
C1383 C 0.95855 0.6501 0.5799 0.0
H1384 H 0.77852 0.92047 0.22923 0.0
H1385 H 0.81991 0.86545 0.2194 0.0
H1386 H 0.85354 0.89019 0.22169 0.0
H1387 H 0.87129 0.92725 0.22622 0.0
H1388 H 0.83045 0.98259 0.2367 0.0
H1389 H 0.79662 0.95789 0.23459 0.0
C1390 C 0.79493 0.9139 0.2278 0.0
C1391 C 0.79664 0.89116 0.22397 0.0
C1392 C 0.81432 0.92825 0.2292 0.0
C1393 C 0.81804 0.88293 0.22197 0.0
C1394 C 0.83732 0.89705 0.22338 0.0
C1395 C 0.85502 0.934 0.22801 0.0
C1396 C 0.8535 0.95681 0.23154 0.0
C1397 C 0.83565 0.91973 0.22687 0.0
C1398 C 0.83219 0.96512 0.23394 0.0
C1399 C 0.8128 0.951 0.23275 0.0
H1400 H 0.8109 0.13966 0.27806 0.0
H1401 H 0.76023 0.09009 0.25546 0.0
H1402 H 0.78884 0.06289 0.25366 0.0
H1403 H 0.8285 0.05351 0.25734 0.0
H1404 H 0.87895 0.10336 0.2799 0.0
H1405 H 0.85006 0.12989 0.28344 0.0
C1406 C 0.80601 0.12283 0.27306 0.0
C1407 C 0.78341 0.117 0.26685 0.0
C1408 C 0.82252 0.10725 0.27214 0.0
C1409 C 0.77753 0.09516 0.26002 0.0
C1410 C 0.79387 0.07954 0.25913 0.0
C1411 C 0.83315 0.0701 0.26329 0.0
C1412 C 0.8559 0.07642 0.26829 0.0
C1413 C 0.81645 0.08544 0.26498 0.0
C1414 C 0.8616 0.09803 0.27586 0.0
C1415 C 0.84509 0.11327 0.27785 0.0
H1416 H 0.36208 0.96826 0.97824 0.0
H1417 H 0.4082 0.91688 0.96978 0.0
H1418 H 0.37942 0.88895 0.9796 0.0
H1419 H 0.3413 0.87897 0.99016 0.0
H1420 H 0.29444 0.92981 0.99827 0.0
H1421 H 0.3234 0.95806 0.98912 0.0
C1422 C 0.36583 0.95095 0.97871 0.0
C1423 C 0.38724 0.94466 0.97317 0.0
C1424 C 0.34909 0.93488 0.98427 0.0
C1425 C 0.39178 0.92215 0.97366 0.0
C1426 C 0.37537 0.90617 0.97938 0.0
C1427 C 0.33733 0.89622 0.99002 0.0
C1428 C 0.31564 0.90218 0.99496 0.0
C1429 C 0.35396 0.91232 0.98461 0.0
C1430 C 0.31093 0.92468 0.99453 0.0
C1431 C 0.32751 0.94087 0.98931 0.0
H1432 H 0.21157 0.37623 0.23502 0.0
H1433 H 0.21842 0.37914 0.30624 0.0
H1434 H 0.19588 0.41162 0.30624 0.0
H1435 H 0.17849 0.44212 0.28563 0.0
H1436 H 0.17518 0.44065 0.21437 0.0
H1437 H 0.19197 0.4048 0.21471 0.0
C1438 C 0.20812 0.38393 0.25057 0.0
C1439 C 0.21701 0.37541 0.27056 0.0
C1440 C 0.19581 0.40299 0.25041 0.0
C1441 C 0.21179 0.38526 0.29058 0.0
C1442 C 0.19902 0.40397 0.29059 0.0
C1443 C 0.18093 0.4336 0.27025 0.0
C1444 C 0.1756 0.4439 0.25 0.0
C1445 C 0.19149 0.41337 0.27057 0.0
C1446 C 0.17918 0.43297 0.23013 0.0
C1447 C 0.18887 0.41255 0.23032 0.0
H1448 H 0.16231 0.02539 0.49698 0.0
H1449 H 0.10908 0.07052 0.49993 0.0
H1450 H 0.1366 0.10172 0.50317 0.0
H1451 H 0.17534 0.11635 0.504 0.0
H1452 H 0.22935 0.07209 0.50078 0.0
H1453 H 0.20197 0.04039 0.49893 0.0
C1454 C 0.15682 0.04205 0.49858 0.0
C1455 C 0.13368 0.04566 0.49806 0.0
C1456 C 0.17283 0.06006 0.50027 0.0
C1457 C 0.12677 0.06734 0.49999 0.0
C1458 C 0.1425 0.08519 0.5019 0.0
C1459 C 0.18127 0.09981 0.50291 0.0
C1460 C 0.20445 0.09671 0.50242 0.0
C1461 C 0.16551 0.08176 0.50179 0.0
C1462 C 0.21164 0.07504 0.50113 0.0
C1463 C 0.19597 0.05689 0.50008 0.0
H1464 H 0.73959 0.12186 0.73353 0.0
H1465 H 0.68164 0.16038 0.73915 0.0
H1466 H 0.65853 0.12672 0.74707 0.0
H1467 H 0.65525 0.08597 0.75287 0.0
H1468 H 0.71381 0.04837 0.7452 0.0
H1469 H 0.73614 0.08191 0.73764 0.0
C1470 C 0.72191 0.12286 0.7366 0.0
C1471 C 0.71233 0.14346 0.73606 0.0
C1472 C 0.70882 0.10356 0.74073 0.0
C1473 C 0.68933 0.1446 0.73957 0.0
C1474 C 0.67617 0.1254 0.74412 0.0
C1475 C 0.67287 0.0852 0.74949 0.0
C1476 C 0.68279 0.06465 0.74959 0.0
C1477 C 0.68576 0.10472 0.74482 0.0
C1478 C 0.70563 0.06389 0.74507 0.0
C1479 C 0.71852 0.08309 0.74082 0.0
H1480 H 0.37949 0.03333 0.51112 0.0
H1481 H 0.42917 0.08616 0.52683 0.0
H1482 H 0.40124 0.11342 0.51931 0.0
H1483 H 0.36244 0.12227 0.51058 0.0
H1484 H 0.31195 0.06994 0.49569 0.0
H1485 H 0.34048 0.04253 0.50025 0.0
C1486 C 0.38421 0.05083 0.51258 0.0
C1487 C 0.40633 0.05771 0.51973 0.0
C1488 C 0.36792 0.0665 0.50847 0.0
C1489 C 0.41219 0.08043 0.52168 0.0
C1490 C 0.39625 0.09604 0.51733 0.0
C1491 C 0.35762 0.10489 0.50813 0.0
C1492 C 0.33502 0.09821 0.50292 0.0
C1493 C 0.374 0.08926 0.5111 0.0
C1494 C 0.32921 0.07558 0.49974 0.0
C1495 C 0.34551 0.05988 0.50242 0.0
H1496 H 0.63116 0.46588 0.47878 0.0
H1497 H 0.62838 0.47171 0.54968 0.0
H1498 H 0.66033 0.44872 0.5548 0.0
H1499 H 0.688 0.42572 0.53953 0.0
H1500 H 0.69208 0.41993 0.46887 0.0
H1501 H 0.66112 0.44466 0.46331 0.0
C1502 C 0.6377 0.46234 0.49534 0.0
C1503 C 0.62699 0.47024 0.5138 0.0
C1504 C 0.65639 0.44919 0.49824 0.0
C1505 C 0.63577 0.46539 0.53514 0.0
C1506 C 0.65422 0.45238 0.53812 0.0
C1507 C 0.68227 0.42996 0.52287 0.0
C1508 C 0.69224 0.42084 0.50465 0.0
C1509 C 0.66444 0.44396 0.51983 0.0
C1510 C 0.68473 0.42674 0.4832 0.0
C1511 C 0.66693 0.44077 0.48002 0.0
H1512 H 0.70219 0.2827 0.37704 0.0
H1513 H 0.77267 0.28179 0.36425 0.0
H1514 H 0.78214 0.30581 0.39591 0.0
H1515 H 0.771 0.32325 0.42974 0.0
H1516 H 0.70089 0.32595 0.44264 0.0
H1517 H 0.69058 0.30548 0.40825 0.0
C1518 C 0.71954 0.28818 0.38091 0.0
C1519 C 0.73674 0.27992 0.36866 0.0
C1520 C 0.72495 0.30218 0.39925 0.0
C1521 C 0.75916 0.28734 0.37381 0.0
C1522 C 0.76461 0.30115 0.39187 0.0
C1523 C 0.75344 0.3197 0.42477 0.0
C1524 C 0.73672 0.32581 0.43868 0.0
C1525 C 0.74775 0.30802 0.40513 0.0
C1526 C 0.71403 0.3214 0.43207 0.0
C1527 C 0.70817 0.30956 0.41252 0.0
H1528 H 0.54785 0.99176 0.86865 0.0
H1529 H 0.53459 0.05956 0.85383 0.0
H1530 H 0.55688 0.05835 0.82122 0.0
H1531 H 0.58248 0.03913 0.79851 0.0
H1532 H 0.59717 0.97176 0.81338 0.0
H1533 H 0.57188 0.97153 0.84409 0.0
C1534 C 0.54962 0.00611 0.85806 0.0
C1535 C 0.53979 0.0258 0.86377 0.0
C1536 C 0.5628 0.0054 0.8394 0.0
C1537 C 0.54228 0.04433 0.84997 0.0
C1538 C 0.55497 0.04364 0.83129 0.0
C1539 C 0.57986 0.0243 0.80831 0.0
C1540 C 0.59162 0.00559 0.80372 0.0
C1541 C 0.56567 0.02445 0.82611 0.0
C1542 C 0.58825 0.98643 0.81655 0.0
C1543 C 0.57385 0.98632 0.83418 0.0
H1544 H 0.24312 0.20406 0.36717 0.0
H1545 H 0.31513 0.21325 0.37676 0.0
H1546 H 0.31433 0.1891 0.40911 0.0
H1547 H 0.29248 0.16959 0.43762 0.0
H1548 H 0.22024 0.16333 0.42918 0.0
H1549 H 0.22178 0.18188 0.39346 0.0
C1550 C 0.25867 0.20071 0.37628 0.0
C1551 C 0.2791 0.21075 0.36974 0.0
C1552 C 0.25801 0.18732 0.39517 0.0
C1553 C 0.29916 0.20574 0.38139 0.0
C1554 C 0.29869 0.19204 0.4 0.0
C1555 C 0.27718 0.17174 0.42761 0.0
C1556 C 0.25627 0.16512 0.43595 0.0
C1557 C 0.27814 0.18326 0.40744 0.0
C1558 C 0.23651 0.16832 0.42305 0.0
C1559 C 0.23737 0.17904 0.4027 0.0
H1560 H 0.46142 0.4696 0.87647 0.0
H1561 H 0.45945 0.53987 0.88677 0.0
H1562 H 0.43722 0.54325 0.85203 0.0
H1563 H 0.42192 0.52672 0.8167 0.0
H1564 H 0.42556 0.45663 0.80628 0.0
H1565 H 0.44289 0.45262 0.84327 0.0
C1566 C 0.45568 0.48559 0.87142 0.0
C1567 C 0.46229 0.50446 0.88414 0.0
C1568 C 0.44318 0.48746 0.8513 0.0
C1569 C 0.45492 0.5251 0.87712 0.0
C1570 C 0.44214 0.52705 0.85728 0.0
C1571 C 0.42599 0.51052 0.82279 0.0
C1572 C 0.42256 0.49202 0.80876 0.0
C1573 C 0.43667 0.50842 0.84391 0.0
C1574 C 0.42817 0.47115 0.81674 0.0
C1575 C 0.43817 0.46884 0.83786 0.0
H1576 H 0.73354 0.70457 0.13944 0.0
H1577 H 0.71452 0.75377 0.09183 0.0
H1578 H 0.72172 0.72888 0.06149 0.0
H1579 H 0.7375 0.69509 0.04878 0.0
H1580 H 0.75855 0.64624 0.0961 0.0
H1581 H 0.7464 0.66887 0.12628 0.0
C1582 C 0.73047 0.70949 0.12238 0.0
C1583 C 0.72339 0.73079 0.11771 0.0
C1584 C 0.73531 0.6953 0.10504 0.0
C1585 C 0.71982 0.73733 0.09566 0.0
C1586 C 0.72406 0.72318 0.07837 0.0
C1587 C 0.73907 0.68914 0.06563 0.0
C1588 C 0.74903 0.66902 0.07014 0.0
C1589 C 0.73243 0.70239 0.08288 0.0
C1590 C 0.75102 0.6617 0.09214 0.0
C1591 C 0.74411 0.67466 0.10943 0.0
H1592 H 0.94141 0.01881 0.10691 0.0
H1593 H -0.00077 0.99033 0.139 0.0
H1594 H 0.9811 0.99008 0.17412 0.0
H1595 H 0.94999 -1e-05 0.19633 0.0
H1596 H 0.89301 0.03045 0.16508 0.0
H1597 H 0.90975 0.02807 0.12916 0.0
C1598 C 0.95011 0.01263 0.12159 0.0
C1599 C 0.97169 0.00455 0.12016 0.0
C1600 C 0.93978 0.01297 0.14197 0.0
C1601 C 0.98248 0.99629 0.13938 0.0
C1602 C 0.9722 0.99631 0.15959 0.0
C1603 C 0.94108 0.00587 0.18164 0.0
C1604 C 0.92027 0.01537 0.18341 0.0
C1605 C 0.95098 0.00482 0.16113 0.0
C1606 C 0.90907 0.02308 0.1642 0.0
C1607 C 0.91866 0.02177 0.14365 0.0
H1608 H 0.29527 0.82317 0.13989 0.0
H1609 H 0.29491 0.76171 0.10396 0.0
H1610 H 0.28461 0.78057 0.06959 0.0
H1611 H 0.27369 0.81395 0.05014 0.0
H1612 H 0.27164 0.87523 0.08604 0.0
H1613 H 0.2851 0.85715 0.11995 0.0
C1614 C 0.29316 0.81403 0.12445 0.0
C1615 C 0.29577 0.7911 0.12441 0.0
C1616 C 0.28677 0.82493 0.10479 0.0
C1617 C 0.29278 0.77934 0.10439 0.0
C1618 C 0.28695 0.79012 0.08474 0.0
C1619 C 0.27646 0.82345 0.06531 0.0
C1620 C 0.27173 0.84592 0.06554 0.0
C1621 C 0.28361 0.81283 0.0848 0.0
C1622 C 0.27516 0.85791 0.08541 0.0
C1623 C 0.28281 0.84756 0.10482 0.0
H1624 H 0.07005 0.50812 0.12418 0.0
H1625 H 0.03351 0.45779 0.16007 0.0
H1626 H 0.05857 0.46503 0.19297 0.0
H1627 H 0.09248 0.48423 0.21062 0.0
H1628 H 0.13059 0.53245 0.17327 0.0
H1629 H 0.10335 0.52775 0.14196 0.0
C1630 C 0.06751 0.499 0.13935 0.0
C1631 C 0.05003 0.48262 0.13998 0.0
C1632 C 0.08233 0.50285 0.15786 0.0
C1633 C 0.04689 0.47057 0.15945 0.0
C1634 C 0.06122 0.47468 0.17817 0.0
C1635 C 0.09459 0.49389 0.19572 0.0
C1636 C 0.11347 0.50868 0.19424 0.0
C1637 C 0.07921 0.49059 0.17748 0.0
C1638 C 0.11623 0.52089 0.17474 0.0
C1639 C 0.10068 0.51822 0.15683 0.0
H1640 H 0.38405 0.7273 0.32266 0.0
H1641 H 0.42564 0.74483 0.26843 0.0
H1642 H 0.45816 0.75163 0.29441 0.0
H1643 H 0.47514 0.75049 0.33263 0.0
H1644 H 0.43265 0.73183 0.3861 0.0
H1645 H 0.40034 0.72733 0.36028 0.0
C1646 C 0.40026 0.73252 0.31647 0.0
C1647 C 0.40247 0.73527 0.29362 0.0
C1648 C 0.41882 0.73605 0.33139 0.0
C1649 C 0.42346 0.74262 0.28596 0.0
C1650 C 0.44208 0.74637 0.3008 0.0
C1651 C 0.4588 0.74554 0.33863 0.0
C1652 C 0.45652 0.74135 0.36135 0.0
C1653 C 0.44004 0.74282 0.32357 0.0
C1654 C 0.43512 0.73501 0.36877 0.0
C1655 C 0.41651 0.73245 0.354 0.0
H1656 H 0.99824 0.3904 0.94103 0.0
H1657 H 0.983 0.36049 0.00355 0.0
H1658 H 0.98654 0.32384 0.98801 0.0
H1659 H 0.99408 0.30036 0.95719 0.0
H1660 H 0.01094 0.32898 0.89452 0.0
H1661 H 0.00684 0.36612 0.90958 0.0
C1662 C 0.99566 0.37579 0.95111 0.0
C1663 C 0.99041 0.37807 0.9734 0.0
C1664 C 0.99809 0.35463 0.94211 0.0
C1665 C 0.98723 0.3591 0.98642 0.0
C1666 C 0.98921 0.33816 0.97755 0.0
C1667 C 0.99679 0.31466 0.94669 0.0
C1668 C 0.00263 0.31185 0.92468 0.0
C1669 C 0.99466 0.33575 0.95548 0.0
C1670 C 0.00643 0.33067 0.91152 0.0
C1671 C 0.00402 0.35188 0.92012 0.0
H1672 H 0.64268 0.80696 0.30191 0.0
H1673 H 0.59214 0.78265 0.25305 0.0
H1674 H 0.5645 0.77919 0.28144 0.0
H1675 H 0.55528 0.78088 0.32066 0.0
H1676 H 0.606 0.80571 0.36908 0.0
H1677 H 0.63263 0.81183 0.34018 0.0
C1678 C 0.62552 0.80134 0.29728 0.0
C1679 C 0.61967 0.7949 0.2753 0.0
C1680 C 0.60963 0.79953 0.31365 0.0
C1681 C 0.59734 0.7873 0.26988 0.0
C1682 C 0.58143 0.78546 0.28609 0.0
C1683 C 0.57203 0.78799 0.32484 0.0
C1684 C 0.57863 0.79266 0.34708 0.0
C1685 C 0.58747 0.79119 0.30812 0.0
C1686 C 0.60045 0.80182 0.35215 0.0
C1687 C 0.61577 0.80526 0.33563 0.0
H1688 H 0.02295 0.11476 0.93539 0.0
H1689 H 0.00912 0.14818 0.99583 0.0
H1690 H 0.00864 0.18326 0.9764 0.0
H1691 H 0.01318 0.20477 0.94279 0.0
H1692 H 0.02862 0.17246 0.88235 0.0
H1693 H 0.02761 0.1367 0.90128 0.0
C1694 C 0.01997 0.12974 0.94432 0.0
C1695 C 0.01587 0.12869 0.96704 0.0
C1696 C 0.02 0.15008 0.93307 0.0
C1697 C 0.01186 0.14831 0.97828 0.0
C1698 C 0.01173 0.16846 0.96721 0.0
C1699 C 0.01608 0.1899 0.93363 0.0
C1700 C 0.02081 0.19129 0.91114 0.0
C1701 C 0.01579 0.16955 0.94465 0.0
C1702 C 0.02486 0.17185 0.89966 0.0
C1703 C 0.02434 0.15141 0.91049 0.0
H1704 H 0.40523 0.27481 0.2247 0.0
H1705 H 0.34764 0.28047 0.17953 0.0
H1706 H 0.37151 0.27837 0.14812 0.0
H1707 H 0.40832 0.27329 0.1334 0.0
H1708 H 0.46627 0.26774 0.17816 0.0
H1709 H 0.44276 0.27164 0.20976 0.0
C1710 C 0.39796 0.27556 0.20797 0.0
C1711 C 0.37469 0.27773 0.20445 0.0
C1712 C 0.41184 0.27442 0.18991 0.0
C1713 C 0.36552 0.27898 0.18268 0.0
C1714 C 0.37914 0.2777 0.1647 0.0
C1715 C 0.41588 0.2731 0.15005 0.0
C1716 C 0.43901 0.27009 0.15337 0.0
C1717 C 0.40227 0.27523 0.16811 0.0
C1718 C 0.44852 0.27005 0.1751 0.0
C1719 C 0.43506 0.27216 0.19319 0.0
H1720 H 0.54953 0.37256 0.03161 0.0
H1721 H 0.48293 0.38921 0.04765 0.0
H1722 H 0.47828 0.35504 0.0688 0.0
H1723 H 0.492 0.31904 0.08028 0.0
H1724 H 0.55787 0.30154 0.06244 0.0
H1725 H 0.56407 0.33744 0.04482 0.0
C1726 C 0.53416 0.36885 0.04005 0.0
C1727 C 0.51657 0.38333 0.03799 0.0
C1728 C 0.53143 0.34893 0.05181 0.0
C1729 C 0.49663 0.37819 0.0488 0.0
C1730 C 0.49398 0.35868 0.06093 0.0
C1731 C 0.50786 0.32323 0.07287 0.0
C1732 C 0.52441 0.30757 0.07266 0.0
C1733 C 0.51109 0.34371 0.0622 0.0
C1734 C 0.54478 0.31321 0.06275 0.0
C1735 C 0.54834 0.33374 0.05262 0.0
H1736 H 0.61201 0.25204 0.20673 0.0
H1737 H 0.62017 0.18263 0.19462 0.0
H1738 H 0.59271 0.18315 0.16381 0.0
H1739 H 0.56625 0.20317 0.13979 0.0
H1740 H 0.55394 0.2707 0.15505 0.0
H1741 H 0.58258 0.27081 0.18554 0.0
C1742 C 0.6076 0.23682 0.19778 0.0
C1743 C 0.61888 0.21747 0.20303 0.0
C1744 C 0.59084 0.23684 0.18057 0.0
C1745 C 0.61272 0.19812 0.19072 0.0
C1746 C 0.59669 0.19825 0.17313 0.0
C1747 C 0.56984 0.21784 0.14991 0.0
C1748 C 0.55827 0.23695 0.14519 0.0
C1749 C 0.58577 0.21753 0.16779 0.0
C1750 C 0.56272 0.25581 0.15849 0.0
C1751 C 0.57911 0.25588 0.17584 0.0
H1752 H 0.47666 0.10983 0.05945 0.0
H1753 H 0.49426 0.14136 0.99822 0.0
H1754 H 0.50111 0.17655 0.01731 0.0
H1755 H 0.50008 0.19903 0.05077 0.0
H1756 H 0.47962 0.16861 0.11148 0.0
H1757 H 0.4758 0.13247 0.0932 0.0
C1758 C 0.48185 0.1244 0.05022 0.0
C1759 C 0.48503 0.12272 0.02737 0.0
C1760 C 0.48524 0.14488 0.06121 0.0
C1761 C 0.49209 0.14186 0.01585 0.0
C1762 C 0.49586 0.16213 0.02673 0.0
C1763 C 0.49507 0.18446 0.0601 0.0
C1764 C 0.49022 0.18651 0.08247 0.0
C1765 C 0.49231 0.16388 0.04935 0.0
C1766 C 0.48348 0.16748 0.09423 0.0
C1767 C 0.48122 0.14682 0.08377 0.0
H1768 H 0.28098 0.41156 0.72782 0.0
H1769 H 0.32613 0.35832 0.73099 0.0
H1770 H 0.35836 0.38482 0.73364 0.0
H1771 H 0.37387 0.42286 0.7343 0.0
H1772 H 0.32934 0.47667 0.73163 0.0
H1773 H 0.2968 0.45023 0.72963 0.0
C1774 C 0.29787 0.40582 0.72934 0.0
C1775 C 0.30114 0.383 0.729 0.0
C1776 C 0.31647 0.42123 0.73081 0.0
C1777 C 0.32315 0.37579 0.73084 0.0
C1778 C 0.34161 0.39093 0.73242 0.0
C1779 C 0.35708 0.4289 0.73322 0.0
C1780 C 0.35414 0.45178 0.73298 0.0
C1781 C 0.33848 0.41366 0.73219 0.0
C1782 C 0.33217 0.45917 0.73179 0.0
C1783 C 0.31352 0.44405 0.73066 0.0
H1784 H 0.27199 0.60368 0.76212 0.0
H1785 H 0.31508 0.6625 0.75519 0.0
H1786 H 0.34727 0.64005 0.75052 0.0
H1787 H 0.3633 0.60389 0.74878 0.0
H1788 H 0.32101 0.54468 0.75699 0.0
H1789 H 0.28848 0.56701 0.76096 0.0
C1790 C 0.28843 0.61148 0.75942 0.0
C1791 C 0.29121 0.63467 0.75893 0.0
C1792 C 0.30702 0.59842 0.75716 0.0
C1793 C 0.3126 0.64466 0.7557 0.0
C1794 C 0.331 0.63185 0.75303 0.0
C1795 C 0.34699 0.59582 0.75146 0.0
C1796 C 0.34464 0.57263 0.75255 0.0
C1797 C 0.32843 0.60874 0.75385 0.0
C1798 C 0.32335 0.56251 0.75616 0.0
C1799 C 0.3047 0.57527 0.75835 0.0
H1800 H 0.88503 0.42198 0.46324 0.0
H1801 H 0.84983 0.48014 0.47762 0.0
H1802 H 0.81652 0.45701 0.48636 0.0
H1803 H 0.79763 0.41996 0.49076 0.0
H1804 H 0.83375 0.36218 0.47658 0.0
H1805 H 0.86615 0.38545 0.46669 0.0
C1806 C 0.86997 0.42964 0.46798 0.0
C1807 C 0.86995 0.45276 0.46972 0.0
C1808 C 0.85096 0.41627 0.47309 0.0
C1809 C 0.85039 0.46235 0.47633 0.0
C1810 C 0.8313 0.44914 0.48126 0.0
C1811 C 0.81253 0.41248 0.48537 0.0
C1812 C 0.81316 0.38929 0.48455 0.0
C1813 C 0.83141 0.42603 0.47984 0.0
C1814 C 0.83272 0.37994 0.47758 0.0
C1815 C 0.85134 0.39324 0.47186 0.0
H1816 H 0.74017 0.88456 0.7384 0.0
H1817 H 0.69094 0.85576 0.78142 0.0
H1818 H 0.67066 0.88976 0.77939 0.0
H1819 H 0.66741 0.92835 0.7656 0.0
H1820 H 0.71573 0.95402 0.71979 0.0
H1821 H 0.73504 0.92014 0.72205 0.0
C1822 C 0.72465 0.88518 0.74688 0.0
C1823 C 0.71721 0.8673 0.75992 0.0
C1824 C 0.71269 0.90435 0.74506 0.0
C1825 C 0.69743 0.86924 0.77144 0.0
C1826 C 0.68566 0.88867 0.77015 0.0
C1827 C 0.682 0.9264 0.75594 0.0
C1828 C 0.69007 0.944 0.74272 0.0
C1829 C 0.6932 0.90645 0.75705 0.0
C1830 C 0.709 0.94102 0.73024 0.0
C1831 C 0.72024 0.92158 0.73153 0.0
H1832 H 0.66154 0.53034 0.00035 0.0
H1833 H 0.60985 0.57739 0.9945 0.0
H1834 H 0.63807 0.60781 -0.001 0.0
H1835 H 0.67708 0.62124 0.00427 0.0
H1836 H 0.72953 0.57502 0.01055 0.0
H1837 H 0.70135 0.54416 0.00633 0.0
C1838 C 0.65649 0.54726 0.00023 0.0
C1839 C 0.6336 0.55155 0.99687 0.0
C1840 C 0.67291 0.56484 0.00286 0.0
C1841 C 0.62735 0.57359 0.99664 0.0
C1842 C 0.64347 0.59103 -0.00067 0.0
C1843 C 0.68249 0.60445 0.00472 0.0
C1844 C 0.70549 0.60056 0.00768 0.0
C1845 C 0.66627 0.58686 0.00232 0.0
C1846 C 0.71198 0.57859 0.00826 0.0
C1847 C 0.69585 0.5609 0.00586 0.0
H1848 H 0.20301 0.64219 0.23031 0.0
H1849 H 0.26281 0.60602 0.22563 0.0
H1850 H 0.24181 0.57167 0.23448 0.0
H1851 H 0.20695 0.55218 0.24479 0.0
H1852 H 0.14731 0.58818 0.25161 0.0
H1853 H 0.16765 0.62234 0.24062 0.0
C1854 C 0.21131 0.62672 0.23106 0.0
C1855 C 0.23438 0.62656 0.22734 0.0
C1856 C 0.19919 0.60707 0.2366 0.0
C1857 C 0.24509 0.6065 0.22859 0.0
C1858 C 0.23309 0.58689 0.2336 0.0
C1859 C 0.19831 0.56745 0.24369 0.0
C1860 C 0.17562 0.56762 0.24891 0.0
C1861 C 0.21021 0.58701 0.23782 0.0
C1862 C 0.16478 0.58762 0.24768 0.0
C1863 C 0.1764 0.60714 0.2414 0.0
H1864 H 0.87368 0.52951 0.05681 0.0
H1865 H 0.89727 0.54941 0.99335 0.0
H1866 H 0.86423 0.57135 0.9867 0.0
H1867 H 0.8299 0.58679 0.00029 0.0
H1868 H 0.80634 0.56567 0.06362 0.0
H1869 H 0.83794 0.5422 0.06885 0.0
C1870 C 0.87148 0.53859 0.04148 0.0
C1871 C 0.88792 0.53813 0.0257 0.0
C1872 C 0.85248 0.55097 0.03778 0.0
C1873 C 0.88478 0.5496 0.00573 0.0
C1874 C 0.86597 0.56218 0.00199 0.0
C1875 C 0.83155 0.57687 0.01512 0.0
C1876 C 0.81583 0.57823 0.03162 0.0
C1877 C 0.84987 0.56328 0.01807 0.0
C1878 C 0.81817 0.56509 0.05066 0.0
C1879 C 0.83631 0.55167 0.05373 0.0
H1880 H 0.14479 0.98022 0.99517 0.0
H1881 H 0.0912 0.92945 0.99535 0.0
H1882 H 0.11837 0.90093 0.99347 0.0
H1883 H 0.15725 0.89033 0.99407 0.0
H1884 H 0.21139 0.94064 0.99504 0.0
H1885 H 0.18413 0.9694 0.99388 0.0
C1886 C 0.1391 0.96291 0.99447 0.0
C1887 C 0.11604 0.95693 0.99554 0.0
C1888 C 0.1549 0.94653 0.9937 0.0
C1889 C 0.10888 0.93444 0.99482 0.0
C1890 C 0.1244 0.91814 0.9937 0.0
C1891 C 0.16316 0.90758 0.99385 0.0
C1892 C 0.18637 0.91328 0.99478 0.0
C1893 C 0.14745 0.92397 0.99352 0.0
C1894 C 0.19364 0.93575 0.99441 0.0
C1895 C 0.17804 0.95222 0.99379 0.0
loop_
_geom_bond_atom_site_label_1
_geom_bond_atom_site_label_2
_geom_bond_distance
_geom_bond_site_symmetry_2
_ccdc_geom_bond_type
C0 C1 1.391 . S
C0 C4 1.391 . S
C0 H42 0.948 . S
C1 C0 1.391 . S
C1 C2 1.391 . S
C2 C1 1.391 . S
C2 H58 0.947 1_455 S
C2 C59 1.392 1_556 S
C3 C4 1.391 1_554 S
C3 C7 1.397 . S
C3 C59 1.419 . S
C4 C0 1.391 . S
C4 C3 1.391 1_556 S
C4 C5 1.399 . S
C5 C4 1.399 . S
C5 C8 1.396 1_556 S
C5 C17 1.453 . S
C5 C18 1.684 . S
H6 C30 0.948 . S
C7 C3 1.397 . S
C7 C8 1.394 . S
C7 C26 1.723 . S
C8 C5 1.396 1_554 S
C8 C7 1.394 . S
C8 C38 1.723 . S
H9 C32 0.947 . S
H10 C33 0.948 . S
H11 C39 0.982 1_545 S
H12 C40 0.979 . S
H13 C40 0.980 . S
H14 C40 0.983 . S
H15 C39 0.979 . S
H16 C39 0.977 . S
C17 C5 1.453 . S
C17 H46 0.982 1_556 S
C17 H47 0.979 . S
C17 H48 0.977 . S
C18 C5 1.684 . S
C18 H43 0.979 . S
C18 H44 0.980 . S
C18 H45 0.983 . S
C19 C20 1.391 . S
C19 C24 1.391 . S
C19 H49 0.948 . S
C20 C19 1.391 . S
C20 C21 1.391 . S
C21 C20 1.391 . S
C21 C22 1.392 1_655 S
C21 H50 0.947 1_545 S
C22 C21 1.392 1_455 S
C22 C23 1.419 . S
C22 H51 0.948 1_545 S
C23 C22 1.419 . S
C23 C24 1.391 1_455 S
C23 C27 1.397 . S
C24 C19 1.391 . S
C24 C23 1.391 1_655 S
C24 C25 1.399 . S
C25 C24 1.399 . S
C25 C26 1.396 1_655 S
C25 C28 1.453 . S
C25 C29 1.684 . S
C26 C7 1.723 . S
C26 C25 1.396 1_455 S
C26 C27 1.394 . S
C27 C23 1.397 . S
C27 C26 1.394 . S
C27 C37 1.723 . S
C28 C25 1.453 . S
C28 H52 0.982 1_655 S
C28 H53 0.979 . S
C28 H54 0.981 . S
C29 C25 1.684 . S
C29 H55 0.979 . S
C29 H56 0.980 . S
C29 H57 0.983 . S
C30 H6 0.948 . S
C30 C31 1.391 . S
C30 C35 1.391 . S
C31 C30 1.391 . S
C31 C32 1.391 1_554 S
C32 H9 0.947 . S
C32 C31 1.391 1_556 S
C32 C33 1.392 1_565 S
C33 H10 0.948 . S
C33 C32 1.392 1_545 S
C33 C34 1.419 1_556 S
C34 C33 1.419 1_554 S
C34 C35 1.391 1_545 S
C34 C38 1.397 . S
C35 C30 1.391 . S
C35 C34 1.391 1_565 S
C35 C36 1.399 . S
C36 C35 1.399 . S
C36 C37 1.396 1_565 S
C36 C39 1.453 . S
C36 C40 1.684 . S
C37 C27 1.723 . S
C37 C36 1.396 1_545 S
C37 C38 1.394 . S
C38 C8 1.723 . S
C38 C34 1.397 . S
C38 C37 1.394 . S
C39 H11 0.982 1_565 S
C39 H15 0.979 . S
C39 H16 0.977 . S
C39 C36 1.453 . S
C40 H12 0.979 . S
C40 H13 0.980 . S
C40 H14 0.983 . S
C40 C36 1.684 . S
H41 C59 0.948 1_655 S
H42 C0 0.948 . S
H43 C18 0.979 . S
H44 C18 0.980 . S
H45 C18 0.983 . S
H46 C17 0.982 1_554 S
H47 C17 0.979 . S
H48 C17 0.977 . S
H49 C19 0.948 . S
H50 C21 0.947 1_565 S
H51 C22 0.948 1_565 S
H52 C28 0.982 1_455 S
H53 C28 0.979 . S
H54 C28 0.981 . S
H55 C29 0.979 . S
H56 C29 0.980 . S
H57 C29 0.983 . S
H58 C2 0.947 1_655 S
C59 C2 1.392 1_554 S
C59 C3 1.419 . S
C59 H41 0.948 1_455 S
C60 C61 1.391 . S
C60 C64 1.391 . S
C60 H102 0.948 . S
C61 C60 1.391 . S
C61 C62 1.391 . S
C62 C61 1.391 . S
C62 H118 0.947 . S
C62 C119 1.392 . S
C63 C64 1.391 . S
C63 C67 1.397 . S
C63 C119 1.419 . S
C64 C60 1.391 . S
C64 C63 1.391 . S
C64 C65 1.399 . S
C65 C64 1.399 . S
C65 C68 1.396 . S
C65 C77 1.453 . S
C65 C78 1.684 . S
H66 C90 0.948 . S
C67 C63 1.397 . S
C67 C68 1.394 . S
C67 C86 1.723 . S
C68 C65 1.396 . S
C68 C67 1.394 . S
C68 C98 1.723 . S
H69 C92 0.947 . S
H70 C93 0.948 . S
H71 C99 0.982 . S
H72 C100 0.979 . S
H73 C100 0.980 . S
H74 C100 0.983 . S
H75 C99 0.979 . S
H76 C99 0.977 . S
C77 C65 1.453 . S
C77 H106 0.982 . S
C77 H107 0.979 . S
C77 H108 0.977 . S
C78 C65 1.684 . S
C78 H103 0.979 . S
C78 H104 0.980 . S
C78 H105 0.983 . S
C79 C80 1.391 . S
C79 C84 1.391 . S
C79 H109 0.948 . S
C80 C79 1.391 . S
C80 C81 1.391 . S
C81 C80 1.391 . S
C81 C82 1.392 . S
C81 H110 0.947 . S
C82 C81 1.392 . S
C82 C83 1.419 . S
C82 H111 0.948 . S
C83 C82 1.419 . S
C83 C84 1.391 . S
C83 C87 1.397 . S
C84 C79 1.391 . S
C84 C83 1.391 . S
C84 C85 1.399 . S
C85 C84 1.399 . S
C85 C86 1.396 . S
C85 C88 1.453 . S
C85 C89 1.684 . S
C86 C67 1.723 . S
C86 C85 1.396 . S
C86 C87 1.394 . S
C87 C83 1.397 . S
C87 C86 1.394 . S
C87 C97 1.723 . S
C88 C85 1.453 . S
C88 H112 0.982 . S
C88 H113 0.979 . S
C88 H114 0.977 . S
C89 C85 1.684 . S
C89 H115 0.979 . S
C89 H116 0.980 . S
C89 H117 0.983 . S
C90 H66 0.948 . S
C90 C91 1.391 . S
C90 C95 1.391 . S
C91 C90 1.391 . S
C91 C92 1.391 . S
C92 H69 0.947 . S
C92 C91 1.391 . S
C92 C93 1.392 . S
C93 H70 0.948 . S
C93 C92 1.392 . S
C93 C94 1.419 . S
C94 C93 1.419 . S
C94 C95 1.391 . S
C94 C98 1.397 . S
C95 C90 1.391 . S
C95 C94 1.391 . S
C95 C96 1.399 . S
C96 C95 1.399 . S
C96 C97 1.396 . S
C96 C99 1.453 . S
C96 C100 1.684 . S
C97 C87 1.723 . S
C97 C96 1.396 . S
C97 C98 1.394 . S
C98 C68 1.723 . S
C98 C94 1.397 . S
C98 C97 1.394 . S
C99 H71 0.982 . S
C99 H75 0.979 . S
C99 H76 0.977 . S
C99 C96 1.453 . S
C100 H72 0.979 . S
C100 H73 0.980 . S
C100 H74 0.983 . S
C100 C96 1.684 . S
H101 C119 0.948 . S
H102 C60 0.948 . S
H103 C78 0.979 . S
H104 C78 0.980 . S
H105 C78 0.983 . S
H106 C77 0.982 . S
H107 C77 0.979 . S
H108 C77 0.977 . S
H109 C79 0.948 . S
H110 C81 0.947 . S
H111 C82 0.948 . S
H112 C88 0.982 . S
H113 C88 0.979 . S
H114 C88 0.977 . S
H115 C89 0.979 . S
H116 C89 0.980 . S
H117 C89 0.983 . S
H118 C62 0.947 . S
C119 C62 1.392 . S
C119 C63 1.419 . S
C119 H101 0.948 . S
C120 C121 1.391 1_454 S
C120 C124 1.398 . S
C120 H162 0.948 . S
C121 C120 1.391 1_656 S
C121 C122 1.391 . S
C122 C121 1.391 . S
C122 H178 0.947 . S
C122 C179 1.392 . S
C123 C124 1.369 1_655 S
C123 C127 1.397 . S
C123 C179 1.419 1_554 S
C124 C120 1.398 . S
C124 C123 1.369 1_455 S
C124 C125 1.409 . S
C125 C124 1.409 . S
C125 C128 1.396 1_455 S
C125 C137 1.453 . S
C125 C138 1.684 . S
H126 C150 0.948 . S
C127 C123 1.397 . S
C127 C128 1.394 . S
C127 C146 1.723 . S
C128 C125 1.396 1_655 S
C128 C127 1.394 . S
C128 C158 1.723 . S
H129 C152 0.947 . S
H130 C153 0.948 . S
H131 C159 0.982 . S
H132 C160 0.979 1_455 S
H133 C160 0.980 . S
H134 C160 0.983 . S
H135 C159 0.979 . S
H136 C159 0.977 . S
C137 C125 1.453 . S
C137 H166 0.982 1_455 S
C137 H167 0.979 . S
C137 H168 0.977 . S
C138 C125 1.684 . S
C138 H163 0.979 . S
C138 H164 0.980 . S
C138 H165 0.983 . S
C139 C140 1.391 . S
C139 C144 1.391 . S
C139 H169 0.948 . S
C140 C139 1.391 . S
C140 C141 1.391 . S
C141 C140 1.391 . S
C141 C142 1.392 . S
C141 H170 0.947 . S
C142 C141 1.392 . S
C142 C143 1.419 . S
C142 H171 0.948 . S
C143 C142 1.419 . S
C143 C144 1.391 . S
C143 C147 1.397 . S
C144 C139 1.391 . S
C144 C143 1.391 . S
C144 C145 1.399 . S
C145 C144 1.399 . S
C145 C146 1.396 . S
C145 C148 1.453 . S
C145 C149 1.684 1_554 S
C146 C127 1.723 . S
C146 C145 1.396 . S
C146 C147 1.394 . S
C147 C143 1.397 . S
C147 C146 1.394 . S
C147 C157 1.723 . S
C148 C145 1.453 . S
C148 H172 0.982 . S
C148 H173 0.951 1_554 S
C148 H174 0.977 . S
C149 C145 1.684 1_556 S
C149 H175 0.979 . S
C149 H176 0.980 . S
C149 H177 0.983 . S
C150 H126 0.948 . S
C150 C151 1.391 . S
C150 C155 1.391 . S
C151 C150 1.391 . S
C151 C152 1.391 . S
C152 H129 0.947 . S
C152 C151 1.391 . S
C152 C153 1.392 . S
C153 H130 0.948 . S
C153 C152 1.392 . S
C153 C154 1.419 . S
C154 C153 1.419 . S
C154 C155 1.391 . S
C154 C158 1.397 1_455 S
C155 C150 1.391 . S
C155 C154 1.391 . S
C155 C156 1.399 1_455 S
C156 C155 1.399 1_655 S
C156 C157 1.396 . S
C156 C159 1.453 . S
C156 C160 1.684 . S
C157 C147 1.723 . S
C157 C156 1.396 . S
C157 C158 1.394 . S
C158 C128 1.723 . S
C158 C154 1.397 1_655 S
C158 C157 1.394 . S
C159 H131 0.982 . S
C159 H135 0.979 . S
C159 H136 0.977 . S
C159 C156 1.453 . S
C160 H132 0.979 1_655 S
C160 H133 0.980 . S
C160 H134 0.983 . S
C160 C156 1.684 . S
H161 C179 0.948 . S
H162 C120 0.948 . S
H163 C138 0.979 . S
H164 C138 0.980 . S
H165 C138 0.983 . S
H166 C137 0.982 1_655 S
H167 C137 0.979 . S
H168 C137 0.977 . S
H169 C139 0.948 . S
H170 C141 0.947 . S
H171 C142 0.948 . S
H172 C148 0.982 . S
H173 C148 0.951 1_556 S
H174 C148 0.977 . S
H175 C149 0.979 . S
H176 C149 0.980 . S
H177 C149 0.983 . S
H178 C122 0.947 . S
C179 C122 1.392 . S
C179 C123 1.419 1_556 S
C179 H161 0.948 . S
C180 C181 1.391 . S
C180 C184 1.391 . S
C180 H222 0.948 . S
C181 C180 1.391 . S
C181 C182 1.391 . S
C182 C181 1.391 . S
C182 H238 0.947 . S
C182 C239 1.392 . S
C183 C184 1.391 . S
C183 C187 1.397 . S
C183 C239 1.419 . S
C184 C180 1.391 . S
C184 C183 1.391 . S
C184 C185 1.399 . S
C185 C184 1.399 . S
C185 C188 1.396 . S
C185 C197 1.453 . S
C185 C198 1.684 . S
H186 C210 0.948 . S
C187 C183 1.397 . S
C187 C188 1.394 . S
C187 C206 1.723 . S
C188 C185 1.396 . S
C188 C187 1.394 . S
C188 C218 1.723 . S
H189 C212 0.947 . S
H190 C213 0.948 . S
H191 C219 0.982 . S
H192 C220 0.979 . S
H193 C220 0.980 . S
H194 C220 0.983 . S
H195 C219 0.979 . S
H196 C219 0.977 . S
C197 C185 1.453 . S
C197 H226 0.982 . S
C197 H227 0.979 . S
C197 H228 0.977 . S
C198 C185 1.684 . S
C198 H223 0.979 . S
C198 H224 0.980 . S
C198 H225 0.983 . S
C199 C200 1.391 . S
C199 C204 1.391 . S
C199 H229 0.948 . S
C200 C199 1.391 . S
C200 C201 1.391 . S
C201 C200 1.391 . S
C201 C202 1.392 . S
C201 H230 0.947 . S
C202 C201 1.392 . S
C202 C203 1.419 . S
C202 H231 0.948 . S
C203 C202 1.419 . S
C203 C204 1.391 . S
C203 C207 1.397 . S
C204 C199 1.391 . S
C204 C203 1.391 . S
C204 C205 1.399 . S
C205 C204 1.399 . S
C205 C206 1.396 . S
C205 C208 1.453 . S
C205 C209 1.684 . S
C206 C187 1.723 . S
C206 C205 1.396 . S
C206 C207 1.394 . S
C207 C203 1.397 . S
C207 C206 1.394 . S
C207 C217 1.723 . S
C208 C205 1.453 . S
C208 H232 0.982 . S
C208 H233 0.979 . S
C208 H234 0.977 . S
C209 C205 1.684 . S
C209 H235 0.979 . S
C209 H236 0.980 . S
C209 H237 0.983 . S
C210 H186 0.948 . S
C210 C211 1.391 . S
C210 C215 1.391 . S
C211 C210 1.391 . S
C211 C212 1.391 . S
C212 H189 0.947 . S
C212 C211 1.391 . S
C212 C213 1.392 . S
C213 H190 0.948 . S
C213 C212 1.392 . S
C213 C214 1.419 . S
C214 C213 1.419 . S
C214 C215 1.391 . S
C214 C218 1.397 . S
C215 C210 1.391 . S
C215 C214 1.391 . S
C215 C216 1.399 . S
C216 C215 1.399 . S
C216 C217 1.396 . S
C216 C219 1.453 . S
C216 C220 1.684 . S
C217 C207 1.723 . S
C217 C216 1.396 . S
C217 C218 1.394 . S
C218 C188 1.723 . S
C218 C214 1.397 . S
C218 C217 1.394 . S
C219 H191 0.982 . S
C219 H195 0.979 . S
C219 H196 0.977 . S
C219 C216 1.453 . S
C220 H192 0.979 . S
C220 H193 0.980 . S
C220 H194 0.983 . S
C220 C216 1.684 . S
H221 C239 0.948 . S
H222 C180 0.948 . S
H223 C198 0.979 . S
H224 C198 0.980 . S
H225 C198 0.983 . S
H226 C197 0.982 . S
H227 C197 0.979 . S
H228 C197 0.977 . S
H229 C199 0.948 . S
H230 C201 0.947 . S
H231 C202 0.948 . S
H232 C208 0.982 . S
H233 C208 0.979 . S
H234 C208 0.977 . S
H235 C209 0.979 . S
H236 C209 0.980 . S
H237 C209 0.983 . S
H238 C182 0.947 . S
C239 C182 1.392 . S
C239 C183 1.419 . S
C239 H221 0.948 . S
C240 C241 1.391 . S
C240 C244 1.391 . S
C240 H282 0.948 . S
C241 C240 1.391 . S
C241 C242 1.391 . S
C242 C241 1.391 . S
C242 H298 0.947 . S
C242 C299 1.392 . S
C243 C244 1.391 . S
C243 C247 1.397 . S
C243 C299 1.419 . S
C244 C240 1.391 . S
C244 C243 1.391 . S
C244 C245 1.399 . S
C245 C244 1.399 . S
C245 C248 1.396 . S
C245 C257 1.453 . S
C245 C258 1.684 . S
H246 C270 0.948 . S
C247 C243 1.397 . S
C247 C248 1.394 . S
C247 C266 1.723 . S
C248 C245 1.396 . S
C248 C247 1.394 . S
C248 C278 1.723 . S
H249 C272 0.947 . S
H250 C273 0.948 . S
H251 C279 0.982 . S
H252 C280 0.979 . S
H253 C280 0.980 . S
H254 C280 0.983 . S
H255 C279 0.979 . S
H256 C279 0.977 . S
C257 C245 1.453 . S
C257 H286 0.982 . S
C257 H287 0.979 . S
C257 H288 0.977 . S
C258 C245 1.684 . S
C258 H283 0.979 . S
C258 H284 0.980 . S
C258 H285 0.983 . S
C259 C260 1.391 . S
C259 C264 1.391 1_655 S
C259 H289 0.948 . S
C260 C259 1.391 . S
C260 C261 1.391 1_665 S
C261 C260 1.391 1_445 S
C261 C262 1.392 . S
C261 H290 0.947 . S
C262 C261 1.392 . S
C262 C263 1.419 1_545 S
C262 H291 0.948 . S
C263 C262 1.419 1_565 S
C263 C264 1.391 . S
C263 C267 1.397 . S
C264 C259 1.391 1_455 S
C264 C263 1.391 . S
C264 C265 1.399 . S
C265 C264 1.399 . S
C265 C266 1.396 . S
C265 C268 1.453 1_455 S
C265 C269 1.684 . S
C266 C247 1.723 . S
C266 C265 1.396 . S
C266 C267 1.394 . S
C267 C263 1.397 . S
C267 C266 1.394 . S
C267 C277 1.723 . S
C268 C265 1.453 1_655 S
C268 H292 0.982 . S
C268 H293 0.979 . S
C268 H294 0.977 . S
C269 C265 1.684 . S
C269 H295 0.979 . S
C269 H296 0.980 . S
C269 H297 0.983 1_455 S
C270 H246 0.948 . S
C270 C271 1.391 . S
C270 C275 1.391 . S
C271 C270 1.391 . S
C271 C272 1.391 . S
C272 H249 0.947 . S
C272 C271 1.391 . S
C272 C273 1.392 1_545 S
C273 H250 0.948 . S
C273 C272 1.392 1_565 S
C273 C274 1.419 . S
C274 C273 1.419 . S
C274 C275 1.391 1_565 S
C274 C278 1.397 . S
C275 C270 1.391 . S
C275 C274 1.391 1_545 S
C275 C276 1.399 . S
C276 C275 1.399 . S
C276 C277 1.396 1_545 S
C276 C279 1.453 . S
C276 C280 1.684 . S
C277 C267 1.723 . S
C277 C276 1.396 1_565 S
C277 C278 1.394 . S
C278 C248 1.723 . S
C278 C274 1.397 . S
C278 C277 1.394 . S
C279 H251 0.982 . S
C279 H255 0.979 . S
C279 H256 0.977 . S
C279 C276 1.453 . S
C280 H252 0.979 . S
C280 H253 0.980 . S
C280 H254 0.983 . S
C280 C276 1.684 . S
H281 C299 0.948 . S
H282 C240 0.948 . S
H283 C258 0.979 . S
H284 C258 0.980 . S
H285 C258 0.983 . S
H286 C257 0.982 . S
H287 C257 0.979 . S
H288 C257 0.977 . S
H289 C259 0.948 . S
H290 C261 0.947 . S
H291 C262 0.948 . S
H292 C268 0.982 . S
H293 C268 0.979 . S
H294 C268 0.977 . S
H295 C269 0.979 . S
H296 C269 0.980 . S
H297 C269 0.983 1_655 S
H298 C242 0.947 . S
C299 C242 1.392 . S
C299 C243 1.419 . S
C299 H281 0.948 . S
C300 C301 1.391 . S
C300 C304 1.391 . S
C300 H342 0.948 . S
C301 C300 1.391 . S
C301 C302 1.391 . S
C302 C301 1.391 . S
C302 H358 0.947 . S
C302 C359 1.392 . S
C303 C304 1.391 . S
C303 C307 1.397 . S
C303 C359 1.419 . S
C304 C300 1.391 . S
C304 C303 1.391 . S
C304 C305 1.399 . S
C305 C304 1.399 . S
C305 C308 1.396 . S
C305 C317 1.453 . S
C305 C318 1.684 . S
H306 C330 0.948 . S
C307 C303 1.397 . S
C307 C308 1.394 . S
C307 C326 1.723 . S
C308 C305 1.396 . S
C308 C307 1.394 . S
C308 C338 1.723 . S
H309 C332 0.947 . S
H310 C333 0.948 . S
H311 C339 0.982 . S
H312 C340 0.979 . S
H313 C340 0.980 . S
H314 C340 0.983 . S
H315 C339 0.979 . S
H316 C339 0.977 . S
C317 C305 1.453 . S
C317 H346 0.982 . S
C317 H347 0.979 . S
C317 H348 0.977 . S
C318 C305 1.684 . S
C318 H343 0.979 . S
C318 H344 0.980 . S
C318 H345 0.983 . S
C319 C320 1.391 . S
C319 C324 1.391 . S
C319 H349 0.948 . S
C320 C319 1.391 . S
C320 C321 1.391 . S
C321 C320 1.391 . S
C321 C322 1.392 . S
C321 H350 0.947 . S
C322 C321 1.392 . S
C322 C323 1.419 . S
C322 H351 0.948 . S
C323 C322 1.419 . S
C323 C324 1.391 . S
C323 C327 1.397 . S
C324 C319 1.391 . S
C324 C323 1.391 . S
C324 C325 1.399 . S
C325 C324 1.399 . S
C325 C326 1.396 . S
C325 C328 1.453 . S
C325 C329 1.684 . S
C326 C307 1.723 . S
C326 C325 1.396 . S
C326 C327 1.394 . S
C327 C323 1.397 . S
C327 C326 1.394 . S
C327 C337 1.723 . S
C328 C325 1.453 . S
C328 H352 0.982 . S
C328 H353 0.979 . S
C328 H354 0.977 . S
C329 C325 1.684 . S
C329 H355 0.979 . S
C329 H356 0.980 . S
C329 H357 0.983 . S
C330 H306 0.948 . S
C330 C331 1.391 . S
C330 C335 1.391 . S
C331 C330 1.391 . S
C331 C332 1.391 . S
C332 H309 0.947 . S
C332 C331 1.391 . S
C332 C333 1.392 . S
C333 H310 0.948 . S
C333 C332 1.392 . S
C333 C334 1.419 . S
C334 C333 1.419 . S
C334 C335 1.391 . S
C334 C338 1.397 . S
C335 C330 1.391 . S
C335 C334 1.391 . S
C335 C336 1.399 . S
C336 C335 1.399 . S
C336 C337 1.396 . S
C336 C339 1.453 . S
C336 C340 1.684 . S
C337 C327 1.723 . S
C337 C336 1.396 . S
C337 C338 1.394 . S
C338 C308 1.723 . S
C338 C334 1.397 . S
C338 C337 1.394 . S
C339 H311 0.982 . S
C339 H315 0.979 . S
C339 H316 0.977 . S
C339 C336 1.453 . S
C340 H312 0.979 . S
C340 H313 0.980 . S
C340 H314 0.983 . S
C340 C336 1.684 . S
H341 C359 0.948 . S
H342 C300 0.948 . S
H343 C318 0.979 . S
H344 C318 0.980 . S
H345 C318 0.983 . S
H346 C317 0.982 . S
H347 C317 0.979 . S
H348 C317 0.977 . S
H349 C319 0.948 . S
H350 C321 0.947 . S
H351 C322 0.948 . S
H352 C328 0.982 . S
H353 C328 0.979 . S
H354 C328 0.977 . S
H355 C329 0.979 . S
H356 C329 0.980 . S
H357 C329 0.983 . S
H358 C302 0.947 . S
C359 C302 1.392 . S
C359 C303 1.419 . S
C359 H341 0.948 . S
C360 C361 1.391 . S
C360 C364 1.391 . S
C360 H402 0.948 . S
C361 C360 1.391 . S
C361 C362 1.391 . S
C362 C361 1.391 . S
C362 H418 0.947 . S
C362 C419 1.392 . S
C363 C364 1.391 . S
C363 C367 1.397 . S
C363 C419 1.419 . S
C364 C360 1.391 . S
C364 C363 1.391 . S
C364 C365 1.399 . S
C365 C364 1.399 . S
C365 C368 1.396 . S
C365 C377 1.453 . S
C365 C378 1.684 . S
H366 C390 0.948 1_455 S
C367 C363 1.397 . S
C367 C368 1.394 . S
C367 C386 1.723 . S
C368 C365 1.396 . S
C368 C367 1.394 . S
C368 C398 1.723 . S
H369 C392 0.947 . S
H370 C393 0.948 . S
H371 C399 0.982 1_655 S
H372 C400 0.979 . S
H373 C400 0.980 . S
H374 C400 0.983 . S
H375 C399 0.979 . S
H376 C399 0.977 . S
C377 C365 1.453 . S
C377 H406 0.982 . S
C377 H407 0.979 . S
C377 H408 0.977 . S
C378 C365 1.684 . S
C378 H403 0.979 . S
C378 H404 0.980 . S
C378 H405 0.983 . S
C379 C380 1.391 . S
C379 C384 1.391 1_455 S
C379 H409 0.948 . S
C380 C379 1.391 . S
C380 C381 1.391 . S
C381 C380 1.391 . S
C381 C382 1.392 . S
C381 H410 0.947 . S
C382 C381 1.392 . S
C382 C383 1.431 . S
C382 H411 0.948 . S
C383 C382 1.431 . S
C383 C384 1.390 1_455 S
C383 C387 1.385 1_455 S
C384 C379 1.391 1_655 S
C384 C383 1.390 1_655 S
C384 C385 1.399 . S
C385 C384 1.399 . S
C385 C386 1.396 . S
C385 C388 1.453 . S
C385 C389 1.684 . S
C386 C367 1.723 . S
C386 C385 1.396 . S
C386 C387 1.394 . S
C387 C383 1.385 1_655 S
C387 C386 1.394 . S
C387 C397 1.723 . S
C388 C385 1.453 . S
C388 H412 0.982 . S
C388 H413 0.979 . S
C388 H414 0.977 . S
C389 C385 1.684 . S
C389 H415 0.979 . S
C389 H416 0.980 . S
C389 H417 0.983 . S
C390 H366 0.948 1_655 S
C390 C391 1.391 . S
C390 C395 1.391 . S
C391 C390 1.391 . S
C391 C392 1.391 . S
C392 H369 0.947 . S
C392 C391 1.391 . S
C392 C393 1.392 . S
C393 H370 0.948 . S
C393 C392 1.392 . S
C393 C394 1.419 . S
C394 C393 1.419 . S
C394 C395 1.391 . S
C394 C398 1.397 . S
C395 C390 1.391 . S
C395 C394 1.391 . S
C395 C396 1.399 . S
C396 C395 1.399 . S
C396 C397 1.396 . S
C396 C399 1.453 1_655 S
C396 C400 1.684 1_655 S
C397 C387 1.723 . S
C397 C396 1.396 . S
C397 C398 1.394 . S
C398 C368 1.723 . S
C398 C394 1.397 . S
C398 C397 1.394 . S
C399 H371 0.982 1_455 S
C399 H375 0.979 . S
C399 H376 0.977 . S
C399 C396 1.453 1_455 S
C400 H372 0.979 . S
C400 H373 0.980 . S
C400 H374 0.983 . S
C400 C396 1.684 1_455 S
H401 C419 0.948 . S
H402 C360 0.948 . S
H403 C378 0.979 . S
H404 C378 0.980 . S
H405 C378 0.983 . S
H406 C377 0.982 . S
H407 C377 0.979 . S
H408 C377 0.977 . S
H409 C379 0.948 . S
H410 C381 0.947 . S
H411 C382 0.948 . S
H412 C388 0.982 . S
H413 C388 0.979 . S
H414 C388 0.977 . S
H415 C389 0.979 . S
H416 C389 0.980 . S
H417 C389 0.983 . S
H418 C362 0.947 . S
C419 C362 1.392 . S
C419 C363 1.419 . S
C419 H401 0.948 . S
C420 C421 1.391 . S
C420 C424 1.391 . S
C420 H462 0.948 . S
C421 C420 1.391 . S
C421 C422 1.391 . S
C422 C421 1.391 . S
C422 H478 0.947 . S
C422 C479 1.392 . S
C423 C424 1.391 . S
C423 C427 1.397 . S
C423 C479 1.419 . S
C424 C420 1.391 . S
C424 C423 1.391 . S
C424 C425 1.399 . S
C425 C424 1.399 . S
C425 C428 1.396 . S
C425 C437 1.453 . S
C425 C438 1.684 . S
H426 C450 0.948 . S
C427 C423 1.397 . S
C427 C428 1.394 . S
C427 C446 1.723 . S
C428 C425 1.396 . S
C428 C427 1.394 . S
C428 C458 1.723 . S
H429 C452 0.947 . S
H430 C453 0.948 . S
H431 C459 0.982 . S
H432 C460 0.979 . S
H433 C460 0.980 . S
H434 C460 0.983 . S
H435 C459 0.979 . S
H436 C459 0.977 . S
C437 C425 1.453 . S
C437 H466 0.982 . S
C437 H467 0.979 . S
C437 H468 0.977 . S
C438 C425 1.684 . S
C438 H463 0.979 . S
C438 H464 0.980 . S
C438 H465 0.983 . S
C439 C440 1.391 . S
C439 C444 1.391 . S
C439 H469 0.948 . S
C440 C439 1.391 . S
C440 C441 1.391 . S
C441 C440 1.391 . S
C441 C442 1.392 . S
C441 H470 0.947 . S
C442 C441 1.392 . S
C442 C443 1.419 . S
C442 H471 0.948 . S
C443 C442 1.419 . S
C443 C444 1.391 . S
C443 C447 1.397 . S
C444 C439 1.391 . S
C444 C443 1.391 . S
C444 C445 1.399 . S
C445 C444 1.399 . S
C445 C446 1.396 . S
C445 C448 1.453 . S
C445 C449 1.684 . S
C446 C427 1.723 . S
C446 C445 1.396 . S
C446 C447 1.394 . S
C447 C443 1.397 . S
C447 C446 1.394 . S
C447 C457 1.723 . S
C448 C445 1.453 . S
C448 H472 0.982 . S
C448 H473 0.979 . S
C448 H474 0.977 . S
C449 C445 1.684 . S
C449 H475 0.979 . S
C449 H476 0.980 . S
C449 H477 0.983 . S
C450 H426 0.948 . S
C450 C451 1.391 . S
C450 C455 1.391 . S
C451 C450 1.391 . S
C451 C452 1.391 . S
C452 H429 0.947 . S
C452 C451 1.391 . S
C452 C453 1.392 . S
C453 H430 0.948 . S
C453 C452 1.392 . S
C453 C454 1.419 . S
C454 C453 1.419 . S
C454 C455 1.391 . S
C454 C458 1.397 . S
C455 C450 1.391 . S
C455 C454 1.391 . S
C455 C456 1.399 . S
C456 C455 1.399 . S
C456 C457 1.396 . S
C456 C459 1.453 . S
C456 C460 1.684 . S
C457 C447 1.723 . S
C457 C456 1.396 . S
C457 C458 1.394 . S
C458 C428 1.723 . S
C458 C454 1.397 . S
C458 C457 1.394 . S
C459 H431 0.982 . S
C459 H435 0.979 . S
C459 H436 0.977 . S
C459 C456 1.453 . S
C460 H432 0.979 . S
C460 H433 0.980 . S
C460 H434 0.983 . S
C460 C456 1.684 . S
H461 C479 0.948 . S
H462 C420 0.948 . S
H463 C438 0.979 . S
H464 C438 0.980 . S
H465 C438 0.983 . S
H466 C437 0.982 . S
H467 C437 0.979 . S
H468 C437 0.977 . S
H469 C439 0.948 . S
H470 C441 0.947 . S
H471 C442 0.948 . S
H472 C448 0.982 . S
H473 C448 0.979 . S
H474 C448 0.977 . S
H475 C449 0.979 . S
H476 C449 0.980 . S
H477 C449 0.983 . S
H478 C422 0.947 . S
C479 C422 1.392 . S
C479 C423 1.419 . S
C479 H461 0.948 . S
C480 C481 1.391 . S
C480 C484 1.391 . S
C480 H522 0.948 . S
C481 C480 1.391 . S
C481 C482 1.391 . S
C482 C481 1.391 . S
C482 H538 0.947 . S
C482 C539 1.392 . S
C483 C484 1.391 . S
C483 C487 1.397 . S
C483 C539 1.419 . S
C484 C480 1.391 . S
C484 C483 1.391 . S
C484 C485 1.399 . S
C485 C484 1.399 . S
C485 C488 1.396 . S
C485 C497 1.453 . S
C485 C498 1.684 . S
H486 C510 0.948 . S
C487 C483 1.397 . S
C487 C488 1.394 . S
C487 C506 1.723 . S
C488 C485 1.396 . S
C488 C487 1.394 . S
C488 C518 1.723 . S
H489 C512 0.947 . S
H490 C513 0.948 . S
H491 C519 0.982 . S
H492 C520 0.979 . S
H493 C520 0.980 . S
H494 C520 0.983 . S
H495 C519 0.979 . S
H496 C519 0.977 . S
C497 C485 1.453 . S
C497 H526 0.982 . S
C497 H527 0.979 . S
C497 H528 0.977 . S
C498 C485 1.684 . S
C498 H523 0.979 . S
C498 H524 0.980 . S
C498 H525 0.983 . S
C499 C500 1.391 . S
C499 C504 1.391 . S
C499 H529 0.948 . S
C500 C499 1.391 . S
C500 C501 1.391 . S
C501 C500 1.391 . S
C501 C502 1.392 . S
C501 H530 0.947 . S
C502 C501 1.392 . S
C502 C503 1.419 . S
C502 H531 0.948 . S
C503 C502 1.419 . S
C503 C504 1.391 . S
C503 C507 1.397 . S
C504 C499 1.391 . S
C504 C503 1.391 . S
C504 C505 1.399 . S
C505 C504 1.399 . S
C505 C506 1.396 . S
C505 C508 1.453 . S
C505 C509 1.684 . S
C506 C487 1.723 . S
C506 C505 1.396 . S
C506 C507 1.394 . S
C507 C503 1.397 . S
C507 C506 1.394 . S
C507 C517 1.723 . S
C508 C505 1.453 . S
C508 H532 0.982 . S
C508 H533 0.979 . S
C508 H534 0.977 . S
C509 C505 1.684 . S
C509 H535 0.979 . S
C509 H536 0.980 . S
C509 H537 0.983 . S
C510 H486 0.948 . S
C510 C511 1.391 . S
C510 C515 1.391 . S
C511 C510 1.391 . S
C511 C512 1.391 . S
C512 H489 0.947 . S
C512 C511 1.391 . S
C512 C513 1.392 . S
C513 H490 0.948 . S
C513 C512 1.392 . S
C513 C514 1.419 . S
C514 C513 1.419 . S
C514 C515 1.391 . S
C514 C518 1.397 . S
C515 C510 1.391 . S
C515 C514 1.391 . S
C515 C516 1.399 . S
C516 C515 1.399 . S
C516 C517 1.396 . S
C516 C519 1.453 . S
C516 C520 1.684 . S
C517 C507 1.723 . S
C517 C516 1.396 . S
C517 C518 1.394 . S
C518 C488 1.723 . S
C518 C514 1.397 . S
C518 C517 1.394 . S
C519 H491 0.982 . S
C519 H495 0.979 . S
C519 H496 0.977 . S
C519 C516 1.453 . S
C520 H492 0.979 . S
C520 H493 0.980 . S
C520 H494 0.983 . S
C520 C516 1.684 . S
H521 C539 0.948 . S
H522 C480 0.948 . S
H523 C498 0.979 . S
H524 C498 0.980 . S
H525 C498 0.983 . S
H526 C497 0.982 . S
H527 C497 0.979 . S
H528 C497 0.977 . S
H529 C499 0.948 . S
H530 C501 0.947 . S
H531 C502 0.948 . S
H532 C508 0.982 . S
H533 C508 0.979 . S
H534 C508 0.977 . S
H535 C509 0.979 . S
H536 C509 0.980 . S
H537 C509 0.983 . S
H538 C482 0.947 . S
C539 C482 1.392 . S
C539 C483 1.419 . S
C539 H521 0.948 . S
C540 C541 1.391 . S
C540 C544 1.391 . S
C540 H582 0.948 . S
C541 C540 1.391 . S
C541 C542 1.391 . S
C542 C541 1.391 . S
C542 H598 0.947 . S
C542 C599 1.392 . S
C543 C544 1.391 . S
C543 C547 1.397 . S
C543 C599 1.419 . S
C544 C540 1.391 . S
C544 C543 1.391 . S
C544 C545 1.399 . S
C545 C544 1.399 . S
C545 C548 1.396 . S
C545 C557 1.453 . S
C545 C558 1.684 . S
H546 C570 0.948 1_545 S
C547 C543 1.397 . S
C547 C548 1.394 . S
C547 C566 1.723 . S
C548 C545 1.396 . S
C548 C547 1.394 . S
C548 C578 1.723 . S
H549 C572 0.947 . S
H550 C573 0.948 . S
H551 C579 0.982 . S
H552 C580 0.979 . S
H553 C580 0.980 . S
H554 C580 0.983 . S
H555 C579 0.979 1_545 S
H556 C579 0.977 1_545 S
C557 C545 1.453 . S
C557 H586 0.982 . S
C557 H587 0.979 . S
C557 H588 0.977 . S
C558 C545 1.684 . S
C558 H583 0.979 . S
C558 H584 0.980 . S
C558 H585 0.983 . S
C559 C560 1.391 . S
C559 C564 1.391 1_545 S
C559 H589 0.948 . S
C560 C559 1.391 . S
C560 C561 1.391 . S
C561 C560 1.391 . S
C561 C562 1.392 . S
C561 H590 0.947 . S
C562 C561 1.392 . S
C562 C563 1.377 1_545 S
C562 H591 0.948 . S
C563 C562 1.377 1_565 S
C563 C564 1.398 . S
C563 C567 1.435 . S
C564 C559 1.391 1_565 S
C564 C563 1.398 . S
C564 C565 1.399 . S
C565 C564 1.399 . S
C565 C566 1.396 . S
C565 C568 1.453 . S
C565 C569 1.684 . S
C566 C547 1.723 . S
C566 C565 1.396 . S
C566 C567 1.394 . S
C567 C563 1.435 . S
C567 C566 1.394 . S
C567 C577 1.723 . S
C568 C565 1.453 . S
C568 H592 0.982 . S
C568 H593 0.979 . S
C568 H594 0.977 . S
C569 C565 1.684 . S
C569 H595 0.979 . S
C569 H596 0.980 . S
C569 H597 0.983 . S
C570 H546 0.948 1_565 S
C570 C571 1.391 . S
C570 C575 1.391 . S
C571 C570 1.391 . S
C571 C572 1.391 . S
C572 H549 0.947 . S
C572 C571 1.391 . S
C572 C573 1.392 . S
C573 H550 0.948 . S
C573 C572 1.392 . S
C573 C574 1.419 . S
C574 C573 1.419 . S
C574 C575 1.391 . S
C574 C578 1.397 . S
C575 C570 1.391 . S
C575 C574 1.391 . S
C575 C576 1.399 . S
C576 C575 1.399 . S
C576 C577 1.396 . S
C576 C579 1.453 . S
C576 C580 1.684 1_565 S
C577 C567 1.723 . S
C577 C576 1.396 . S
C577 C578 1.394 . S
C578 C548 1.723 . S
C578 C574 1.397 . S
C578 C577 1.394 . S
C579 H551 0.982 . S
C579 H555 0.979 1_565 S
C579 H556 0.977 1_565 S
C579 C576 1.453 . S
C580 H552 0.979 . S
C580 H553 0.980 . S
C580 H554 0.983 . S
C580 C576 1.684 1_545 S
H581 C599 0.948 . S
H582 C540 0.948 . S
H583 C558 0.979 . S
H584 C558 0.980 . S
H585 C558 0.983 . S
H586 C557 0.982 . S
H587 C557 0.979 . S
H588 C557 0.977 . S
H589 C559 0.948 . S
H590 C561 0.947 . S
H591 C562 0.948 . S
H592 C568 0.982 . S
H593 C568 0.979 . S
H594 C568 0.977 . S
H595 C569 0.979 . S
H596 C569 0.980 . S
H597 C569 0.983 . S
H598 C542 0.947 . S
C599 C542 1.392 . S
C599 C543 1.419 . S
C599 H581 0.948 . S
C600 C601 1.391 . S
C600 C604 1.391 . S
C600 H642 0.948 . S
C601 C600 1.391 . S
C601 C602 1.391 . S
C602 C601 1.391 . S
C602 H658 0.947 . S
C602 C659 1.392 . S
C603 C604 1.391 . S
C603 C607 1.397 . S
C603 C659 1.419 . S
C604 C600 1.391 . S
C604 C603 1.391 . S
C604 C605 1.399 . S
C605 C604 1.399 . S
C605 C608 1.396 . S
C605 C617 1.453 . S
C605 C618 1.684 . S
H606 C630 0.948 . S
C607 C603 1.397 . S
C607 C608 1.394 . S
C607 C626 1.723 . S
C608 C605 1.396 . S
C608 C607 1.394 . S
C608 C638 1.723 . S
H609 C632 0.947 . S
H610 C633 0.948 . S
H611 C639 0.982 . S
H612 C640 0.979 . S
H613 C640 0.980 . S
H614 C640 0.983 . S
H615 C639 0.979 . S
H616 C639 0.977 . S
C617 C605 1.453 . S
C617 H646 0.982 . S
C617 H647 0.979 . S
C617 H648 0.977 . S
C618 C605 1.684 . S
C618 H643 0.979 . S
C618 H644 0.980 . S
C618 H645 0.983 . S
C619 C620 1.391 . S
C619 C624 1.391 . S
C619 H649 0.948 . S
C620 C619 1.391 . S
C620 C621 1.391 . S
C621 C620 1.391 . S
C621 C622 1.392 . S
C621 H650 0.947 . S
C622 C621 1.392 . S
C622 C623 1.419 . S
C622 H651 0.948 . S
C623 C622 1.419 . S
C623 C624 1.391 . S
C623 C627 1.397 . S
C624 C619 1.391 . S
C624 C623 1.391 . S
C624 C625 1.399 . S
C625 C624 1.399 . S
C625 C626 1.396 . S
C625 C628 1.453 . S
C625 C629 1.684 . S
C626 C607 1.723 . S
C626 C625 1.396 . S
C626 C627 1.394 . S
C627 C623 1.397 . S
C627 C626 1.394 . S
C627 C637 1.723 . S
C628 C625 1.453 . S
C628 H652 0.982 . S
C628 H653 0.979 . S
C628 H654 0.977 . S
C629 C625 1.684 . S
C629 H655 0.979 . S
C629 H656 0.980 . S
C629 H657 0.983 . S
C630 H606 0.948 . S
C630 C631 1.391 . S
C630 C635 1.391 . S
C631 C630 1.391 . S
C631 C632 1.391 . S
C632 H609 0.947 . S
C632 C631 1.391 . S
C632 C633 1.392 . S
C633 H610 0.948 . S
C633 C632 1.392 . S
C633 C634 1.419 . S
C634 C633 1.419 . S
C634 C635 1.391 . S
C634 C638 1.397 . S
C635 C630 1.391 . S
C635 C634 1.391 . S
C635 C636 1.399 . S
C636 C635 1.399 . S
C636 C637 1.396 . S
C636 C639 1.453 . S
C636 C640 1.684 . S
C637 C627 1.723 . S
C637 C636 1.396 . S
C637 C638 1.394 . S
C638 C608 1.723 . S
C638 C634 1.397 . S
C638 C637 1.394 . S
C639 H611 0.982 . S
C639 H615 0.979 . S
C639 H616 0.977 . S
C639 C636 1.453 . S
C640 H612 0.979 . S
C640 H613 0.980 . S
C640 H614 0.983 . S
C640 C636 1.684 . S
H641 C659 0.948 . S
H642 C600 0.948 . S
H643 C618 0.979 . S
H644 C618 0.980 . S
H645 C618 0.983 . S
H646 C617 0.982 . S
H647 C617 0.979 . S
H648 C617 0.977 . S
H649 C619 0.948 . S
H650 C621 0.947 . S
H651 C622 0.948 . S
H652 C628 0.982 . S
H653 C628 0.979 . S
H654 C628 0.977 . S
H655 C629 0.979 . S
H656 C629 0.980 . S
H657 C629 0.983 . S
H658 C602 0.947 . S
C659 C602 1.392 . S
C659 C603 1.419 . S
C659 H641 0.948 . S
C660 C661 1.391 . S
C660 C664 1.391 . S
C660 H702 0.948 . S
C661 C660 1.391 . S
C661 C662 1.391 . S
C662 C661 1.391 . S
C662 H718 0.947 . S
C662 C719 1.392 . S
C663 C664 1.391 . S
C663 C667 1.397 . S
C663 C719 1.419 . S
C664 C660 1.391 . S
C664 C663 1.391 . S
C664 C665 1.399 . S
C665 C664 1.399 . S
C665 C668 1.396 . S
C665 C677 1.453 . S
C665 C678 1.684 . S
H666 C690 0.948 . S
C667 C663 1.397 . S
C667 C668 1.394 . S
C667 C686 1.723 . S
C668 C665 1.396 . S
C668 C667 1.394 . S
C668 C698 1.723 . S
H669 C692 0.947 . S
H670 C693 0.948 . S
H671 C699 0.982 . S
H672 C700 0.979 . S
H673 C700 0.980 . S
H674 C700 0.983 . S
H675 C699 0.979 . S
H676 C699 0.977 . S
C677 C665 1.453 . S
C677 H706 0.982 . S
C677 H707 0.979 . S
C677 H708 0.977 . S
C678 C665 1.684 . S
C678 H703 0.979 . S
C678 H704 0.980 . S
C678 H705 0.983 . S
C679 C680 1.391 . S
C679 C684 1.391 . S
C679 H709 0.948 . S
C680 C679 1.391 . S
C680 C681 1.391 . S
C681 C680 1.391 . S
C681 C682 1.392 . S
C681 H710 0.947 . S
C682 C681 1.392 . S
C682 C683 1.419 . S
C682 H711 0.948 . S
C683 C682 1.419 . S
C683 C684 1.391 . S
C683 C687 1.397 . S
C684 C679 1.391 . S
C684 C683 1.391 . S
C684 C685 1.399 . S
C685 C684 1.399 . S
C685 C686 1.396 . S
C685 C688 1.453 . S
C685 C689 1.684 . S
C686 C667 1.723 . S
C686 C685 1.396 . S
C686 C687 1.394 . S
C687 C683 1.397 . S
C687 C686 1.394 . S
C687 C697 1.723 . S
C688 C685 1.453 . S
C688 H712 0.982 . S
C688 H713 0.979 . S
C688 H714 0.977 . S
C689 C685 1.684 . S
C689 H715 0.979 . S
C689 H716 0.980 . S
C689 H717 0.983 . S
C690 H666 0.948 . S
C690 C691 1.391 . S
C690 C695 1.391 . S
C691 C690 1.391 . S
C691 C692 1.391 . S
C692 H669 0.947 . S
C692 C691 1.391 . S
C692 C693 1.392 . S
C693 H670 0.948 . S
C693 C692 1.392 . S
C693 C694 1.419 . S
C694 C693 1.419 . S
C694 C695 1.391 . S
C694 C698 1.397 . S
C695 C690 1.391 . S
C695 C694 1.391 . S
C695 C696 1.399 . S
C696 C695 1.399 . S
C696 C697 1.396 . S
C696 C699 1.453 . S
C696 C700 1.684 . S
C697 C687 1.723 . S
C697 C696 1.396 . S
C697 C698 1.394 . S
C698 C668 1.723 . S
C698 C694 1.397 . S
C698 C697 1.394 . S
C699 H671 0.982 . S
C699 H675 0.979 . S
C699 H676 0.977 . S
C699 C696 1.453 . S
C700 H672 0.979 . S
C700 H673 0.980 . S
C700 H674 0.983 . S
C700 C696 1.684 . S
H701 C719 0.948 . S
H702 C660 0.948 . S
H703 C678 0.979 . S
H704 C678 0.980 . S
H705 C678 0.983 . S
H706 C677 0.982 . S
H707 C677 0.979 . S
H708 C677 0.977 . S
H709 C679 0.948 . S
H710 C681 0.947 . S
H711 C682 0.948 . S
H712 C688 0.982 . S
H713 C688 0.979 . S
H714 C688 0.977 . S
H715 C689 0.979 . S
H716 C689 0.980 . S
H717 C689 0.983 . S
H718 C662 0.947 . S
C719 C662 1.392 . S
C719 C663 1.419 . S
C719 H701 0.948 . S
C720 C721 1.391 . S
C720 C724 1.391 . S
C720 H762 0.948 . S
C721 C720 1.391 . S
C721 C722 1.391 . S
C722 C721 1.391 . S
C722 H778 0.947 . S
C722 C779 1.392 . S
C723 C724 1.391 . S
C723 C727 1.397 . S
C723 C779 1.419 . S
C724 C720 1.391 . S
C724 C723 1.391 . S
C724 C725 1.399 . S
C725 C724 1.399 . S
C725 C728 1.396 . S
C725 C737 1.453 . S
C725 C738 1.684 . S
H726 C750 0.948 . S
C727 C723 1.397 . S
C727 C728 1.394 . S
C727 C746 1.723 . S
C728 C725 1.396 . S
C728 C727 1.394 . S
C728 C758 1.723 . S
H729 C752 0.947 . S
H730 C753 0.948 . S
H731 C759 0.982 . S
H732 C760 0.979 . S
H733 C760 0.980 . S
H734 C760 0.983 . S
H735 C759 0.979 . S
H736 C759 0.977 . S
C737 C725 1.453 . S
C737 H766 0.982 . S
C737 H767 0.979 . S
C737 H768 0.977 . S
C738 C725 1.684 . S
C738 H763 0.979 . S
C738 H764 0.980 . S
C738 H765 0.983 . S
C739 C740 1.391 . S
C739 C744 1.391 . S
C739 H769 0.948 . S
C740 C739 1.391 . S
C740 C741 1.391 . S
C741 C740 1.391 . S
C741 C742 1.392 . S
C741 H770 0.947 . S
C742 C741 1.392 . S
C742 C743 1.419 . S
C742 H771 0.948 . S
C743 C742 1.419 . S
C743 C744 1.391 . S
C743 C747 1.397 . S
C744 C739 1.391 . S
C744 C743 1.391 . S
C744 C745 1.399 . S
C745 C744 1.399 . S
C745 C746 1.396 . S
C745 C748 1.453 . S
C745 C749 1.684 . S
C746 C727 1.723 . S
C746 C745 1.396 . S
C746 C747 1.394 . S
C747 C743 1.397 . S
C747 C746 1.394 . S
C747 C757 1.723 . S
C748 C745 1.453 . S
C748 H772 0.982 . S
C748 H773 0.979 . S
C748 H774 0.977 . S
C749 C745 1.684 . S
C749 H775 0.979 . S
C749 H776 0.980 . S
C749 H777 0.983 . S
C750 H726 0.948 . S
C750 C751 1.391 . S
C750 C755 1.391 . S
C751 C750 1.391 . S
C751 C752 1.391 . S
C752 H729 0.947 . S
C752 C751 1.391 . S
C752 C753 1.392 . S
C753 H730 0.948 . S
C753 C752 1.392 . S
C753 C754 1.419 . S
C754 C753 1.419 . S
C754 C755 1.391 . S
C754 C758 1.397 . S
C755 C750 1.391 . S
C755 C754 1.391 . S
C755 C756 1.399 . S
C756 C755 1.399 . S
C756 C757 1.396 . S
C756 C759 1.453 . S
C756 C760 1.684 . S
C757 C747 1.723 . S
C757 C756 1.396 . S
C757 C758 1.394 . S
C758 C728 1.723 . S
C758 C754 1.397 . S
C758 C757 1.394 . S
C759 H731 0.982 . S
C759 H735 0.979 . S
C759 H736 0.977 . S
C759 C756 1.453 . S
C760 H732 0.979 . S
C760 H733 0.980 . S
C760 H734 0.983 . S
C760 C756 1.684 . S
H761 C779 0.948 . S
H762 C720 0.948 . S
H763 C738 0.979 . S
H764 C738 0.980 . S
H765 C738 0.983 . S
H766 C737 0.982 . S
H767 C737 0.979 . S
H768 C737 0.977 . S
H769 C739 0.948 . S
H770 C741 0.947 . S
H771 C742 0.948 . S
H772 C748 0.982 . S
H773 C748 0.979 . S
H774 C748 0.977 . S
H775 C749 0.979 . S
H776 C749 0.980 . S
H777 C749 0.983 . S
H778 C722 0.947 . S
C779 C722 1.392 . S
C779 C723 1.419 . S
C779 H761 0.948 . S
C780 C781 1.391 . S
C780 C784 1.391 . S
C780 H822 0.948 . S
C781 C780 1.391 . S
C781 C782 1.391 1_554 S
C782 C781 1.391 1_556 S
C782 H838 0.947 . S
C782 C839 1.392 . S
C783 C784 1.391 1_556 S
C783 C787 1.397 . S
C783 C839 1.419 . S
C784 C780 1.391 . S
C784 C783 1.391 1_554 S
C784 C785 1.399 . S
C785 C784 1.399 . S
C785 C788 1.396 1_554 S
C785 C797 1.453 . S
C785 C798 1.684 . S
H786 C810 0.948 . S
C787 C783 1.397 . S
C787 C788 1.394 . S
C787 C806 1.723 . S
C788 C785 1.396 1_556 S
C788 C787 1.394 . S
C788 C818 1.723 . S
H789 C812 0.947 1_554 S
H790 C813 0.948 1_554 S
H791 C819 0.982 . S
H792 C820 0.979 . S
H793 C820 0.980 . S
H794 C820 0.983 . S
H795 C819 0.979 . S
H796 C819 0.977 . S
C797 C785 1.453 . S
C797 H826 0.982 . S
C797 H827 0.979 . S
C797 H828 0.977 . S
C798 C785 1.684 . S
C798 H823 0.979 1_554 S
C798 H824 0.980 . S
C798 H825 0.983 . S
C799 C800 1.391 . S
C799 C804 1.391 . S
C799 H829 0.948 . S
C800 C799 1.391 . S
C800 C801 1.391 . S
C801 C800 1.391 . S
C801 C802 1.392 . S
C801 H830 0.947 . S
C802 C801 1.392 . S
C802 C803 1.419 . S
C802 H831 0.948 . S
C803 C802 1.419 . S
C803 C804 1.391 . S
C803 C807 1.397 . S
C804 C799 1.391 . S
C804 C803 1.391 . S
C804 C805 1.399 . S
C805 C804 1.399 . S
C805 C806 1.396 . S
C805 C808 1.453 . S
C805 C809 1.684 . S
C806 C787 1.723 . S
C806 C805 1.396 . S
C806 C807 1.394 . S
C807 C803 1.397 . S
C807 C806 1.394 . S
C807 C817 1.723 . S
C808 C805 1.453 . S
C808 H832 0.982 . S
C808 H833 0.979 . S
C808 H834 0.977 . S
C809 C805 1.684 . S
C809 H835 0.979 . S
C809 H836 0.980 . S
C809 H837 0.983 . S
C810 H786 0.948 . S
C810 C811 1.391 . S
C810 C815 1.391 . S
C811 C810 1.391 . S
C811 C812 1.391 . S
C812 H789 0.947 1_556 S
C812 C811 1.391 . S
C812 C813 1.392 . S
C813 H790 0.948 1_556 S
C813 C812 1.392 . S
C813 C814 1.419 . S
C814 C813 1.419 . S
C814 C815 1.391 . S
C814 C818 1.397 . S
C815 C810 1.391 . S
C815 C814 1.391 . S
C815 C816 1.399 . S
C816 C815 1.399 . S
C816 C817 1.396 . S
C816 C819 1.453 . S
C816 C820 1.684 . S
C817 C807 1.723 . S
C817 C816 1.396 . S
C817 C818 1.394 . S
C818 C788 1.723 . S
C818 C814 1.397 . S
C818 C817 1.394 . S
C819 H791 0.982 . S
C819 H795 0.979 . S
C819 H796 0.977 . S
C819 C816 1.453 . S
C820 H792 0.979 . S
C820 H793 0.980 . S
C820 H794 0.983 . S
C820 C816 1.684 . S
H821 C839 0.948 . S
H822 C780 0.948 . S
H823 C798 0.979 1_556 S
H824 C798 0.980 . S
H825 C798 0.983 . S
H826 C797 0.982 . S
H827 C797 0.979 . S
H828 C797 0.977 . S
H829 C799 0.948 . S
H830 C801 0.947 . S
H831 C802 0.948 . S
H832 C808 0.982 . S
H833 C808 0.979 . S
H834 C808 0.977 . S
H835 C809 0.979 . S
H836 C809 0.980 . S
H837 C809 0.983 . S
H838 C782 0.947 . S
C839 C782 1.392 . S
C839 C783 1.419 . S
C839 H821 0.948 . S
C840 C841 1.391 . S
C840 C844 1.391 . S
C840 H882 0.948 . S
C841 C840 1.391 . S
C841 C842 1.391 . S
C842 C841 1.391 . S
C842 H898 0.947 . S
C842 C899 1.392 . S
C843 C844 1.391 . S
C843 C847 1.397 . S
C843 C899 1.419 . S
C844 C840 1.391 . S
C844 C843 1.391 . S
C844 C845 1.399 . S
C845 C844 1.399 . S
C845 C848 1.396 . S
C845 C857 1.453 . S
C845 C858 1.684 . S
H846 C870 0.948 . S
C847 C843 1.397 . S
C847 C848 1.394 . S
C847 C866 1.723 . S
C848 C845 1.396 . S
C848 C847 1.394 . S
C848 C878 1.723 . S
H849 C872 0.947 . S
H850 C873 0.948 . S
H851 C879 0.982 . S
H852 C880 0.979 . S
H853 C880 0.980 . S
H854 C880 0.983 . S
H855 C879 0.979 . S
H856 C879 0.977 . S
C857 C845 1.453 . S
C857 H886 0.982 . S
C857 H887 0.979 . S
C857 H888 0.977 . S
C858 C845 1.684 . S
C858 H883 0.979 . S
C858 H884 0.980 . S
C858 H885 0.983 . S
C859 C860 1.391 . S
C859 C864 1.391 . S
C859 H889 0.948 . S
C860 C859 1.391 . S
C860 C861 1.391 . S
C861 C860 1.391 . S
C861 C862 1.392 . S
C861 H890 0.947 . S
C862 C861 1.392 . S
C862 C863 1.419 . S
C862 H891 0.948 . S
C863 C862 1.419 . S
C863 C864 1.391 . S
C863 C867 1.397 . S
C864 C859 1.391 . S
C864 C863 1.391 . S
C864 C865 1.399 . S
C865 C864 1.399 . S
C865 C866 1.396 . S
C865 C868 1.453 . S
C865 C869 1.684 . S
C866 C847 1.723 . S
C866 C865 1.396 . S
C866 C867 1.394 . S
C867 C863 1.397 . S
C867 C866 1.394 . S
C867 C877 1.723 . S
C868 C865 1.453 . S
C868 H892 0.982 . S
C868 H893 0.979 . S
C868 H894 0.977 . S
C869 C865 1.684 . S
C869 H895 0.979 . S
C869 H896 0.980 . S
C869 H897 0.983 . S
C870 H846 0.948 . S
C870 C871 1.391 . S
C870 C875 1.391 . S
C871 C870 1.391 . S
C871 C872 1.391 . S
C872 H849 0.947 . S
C872 C871 1.391 . S
C872 C873 1.392 . S
C873 H850 0.948 . S
C873 C872 1.392 . S
C873 C874 1.419 . S
C874 C873 1.419 . S
C874 C875 1.391 . S
C874 C878 1.397 . S
C875 C870 1.391 . S
C875 C874 1.391 . S
C875 C876 1.399 . S
C876 C875 1.399 . S
C876 C877 1.396 . S
C876 C879 1.453 . S
C876 C880 1.684 . S
C877 C867 1.723 . S
C877 C876 1.396 . S
C877 C878 1.394 . S
C878 C848 1.723 . S
C878 C874 1.397 . S
C878 C877 1.394 . S
C879 H851 0.982 . S
C879 H855 0.979 . S
C879 H856 0.977 . S
C879 C876 1.453 . S
C880 H852 0.979 . S
C880 H853 0.980 . S
C880 H854 0.983 . S
C880 C876 1.684 . S
H881 C899 0.948 . S
H882 C840 0.948 . S
H883 C858 0.979 . S
H884 C858 0.980 . S
H885 C858 0.983 . S
H886 C857 0.982 . S
H887 C857 0.979 . S
H888 C857 0.977 . S
H889 C859 0.948 . S
H890 C861 0.947 . S
H891 C862 0.948 . S
H892 C868 0.982 . S
H893 C868 0.979 . S
H894 C868 0.977 . S
H895 C869 0.979 . S
H896 C869 0.980 . S
H897 C869 0.983 . S
H898 C842 0.947 . S
C899 C842 1.392 . S
C899 C843 1.419 . S
C899 H881 0.948 . S
C900 C901 1.391 . S
C900 C904 1.391 1_565 S
C900 H942 0.948 1_556 S
C901 C900 1.391 . S
C901 C902 1.391 . S
C902 C901 1.391 . S
C902 H958 0.947 . S
C902 C959 1.392 . S
C903 C904 1.391 1_565 S
C903 C907 1.397 1_565 S
C903 C959 1.419 . S
C904 C900 1.391 1_545 S
C904 C903 1.391 1_545 S
C904 C905 1.384 1_556 S
C905 C904 1.384 1_554 S
C905 C908 1.373 1_554 S
C905 C917 1.456 . S
C905 C918 1.723 . S
H906 C930 0.948 . S
C907 C903 1.397 1_545 S
C907 C908 1.394 . S
C907 C926 1.723 . S
C908 C905 1.373 1_556 S
C908 C907 1.394 . S
C908 C938 1.723 . S
H909 C932 0.947 . S
H910 C933 0.948 . S
H911 C939 0.982 . S
H912 C940 0.979 . S
H913 C940 0.980 . S
H914 C940 0.983 . S
H915 C939 0.979 . S
H916 C939 0.977 . S
C917 C905 1.456 . S
C917 H946 0.982 1_554 S
C917 H947 0.979 . S
C917 H948 0.977 . S
C918 C905 1.723 . S
C918 H943 0.979 . S
C918 H944 0.980 . S
C918 H945 0.983 . S
C919 C920 1.391 . S
C919 C924 1.391 . S
C919 H949 0.948 1_545 S
C920 C919 1.391 . S
C920 C921 1.391 . S
C921 C920 1.391 . S
C921 C922 1.392 . S
C921 H950 0.947 . S
C922 C921 1.392 . S
C922 C923 1.419 . S
C922 H951 0.948 . S
C923 C922 1.419 . S
C923 C924 1.391 . S
C923 C927 1.397 . S
C924 C919 1.391 . S
C924 C923 1.391 . S
C924 C925 1.397 1_545 S
C925 C924 1.397 1_565 S
C925 C926 1.392 1_565 S
C925 C928 1.454 . S
C925 C929 1.691 . S
C926 C907 1.723 . S
C926 C925 1.392 1_545 S
C926 C927 1.394 . S
C927 C923 1.397 . S
C927 C926 1.394 . S
C927 C937 1.723 . S
C928 C925 1.454 . S
C928 H952 0.982 1_565 S
C928 H953 0.979 . S
C928 H954 0.977 . S
C929 C925 1.691 . S
C929 H955 0.979 . S
C929 H956 0.980 . S
C929 H957 0.983 . S
C930 H906 0.948 . S
C930 C931 1.391 . S
C930 C935 1.404 . S
C931 C930 1.391 . S
C931 C932 1.391 . S
C932 H909 0.947 . S
C932 C931 1.391 . S
C932 C933 1.392 . S
C933 H910 0.948 . S
C933 C932 1.392 . S
C933 C934 1.419 . S
C934 C933 1.419 . S
C934 C935 1.396 . S
C934 C938 1.397 1_554 S
C935 C930 1.404 . S
C935 C934 1.396 . S
C935 C936 1.380 1_554 S
C936 C935 1.380 1_556 S
C936 C937 1.396 . S
C936 C939 1.453 . S
C936 C940 1.684 . S
C937 C927 1.723 . S
C937 C936 1.396 . S
C937 C938 1.394 . S
C938 C908 1.723 . S
C938 C934 1.397 1_556 S
C938 C937 1.394 . S
C939 H911 0.982 . S
C939 H915 0.979 . S
C939 H916 0.977 . S
C939 C936 1.453 . S
C940 H912 0.979 . S
C940 H913 0.980 . S
C940 H914 0.983 . S
C940 C936 1.684 . S
H941 C959 0.948 . S
H942 C900 0.948 1_554 S
H943 C918 0.979 . S
H944 C918 0.980 . S
H945 C918 0.983 . S
H946 C917 0.982 1_556 S
H947 C917 0.979 . S
H948 C917 0.977 . S
H949 C919 0.948 1_565 S
H950 C921 0.947 . S
H951 C922 0.948 . S
H952 C928 0.982 1_545 S
H953 C928 0.979 . S
H954 C928 0.977 . S
H955 C929 0.979 . S
H956 C929 0.980 . S
H957 C929 0.983 . S
H958 C902 0.947 . S
C959 C902 1.392 . S
C959 C903 1.419 . S
C959 H941 0.948 . S
Mg960 O961 2.030 . S
Mg960 O967 1.986 1_554 S
Mg960 O969 2.114 . S
Mg960 O970 2.251 . S
Mg960 O973 2.010 . S
O961 Mg960 2.030 . S
O961 C964 1.249 1_554 S
O962 Mg963 2.028 . S
O962 C964 1.248 . S
Mg963 O962 2.028 . S
Mg963 O968 2.032 . S
Mg963 O970 2.079 1_556 S
C964 O961 1.249 1_556 S
C964 O962 1.248 . S
C965 O966 1.264 . S
C965 O973 1.249 . S
O966 C965 1.264 . S
O967 Mg960 1.986 1_556 S
O967 C971 1.246 . S
O968 Mg963 2.032 . S
O968 C971 1.259 . S
O969 Mg960 2.114 . S
O969 C972 1.252 . S
O970 Mg960 2.251 . S
O970 Mg963 2.079 1_554 S
O970 C972 1.273 . S
C971 O967 1.246 . S
C971 O968 1.259 . S
C972 O969 1.252 . S
C972 O970 1.273 . S
O973 Mg960 2.010 . S
O973 C965 1.249 . S
Mg974 O975 2.028 . S
Mg974 O981 1.986 . S
Mg974 O983 2.114 . S
Mg974 O984 2.251 . S
Mg974 O987 2.010 . S
O975 Mg974 2.028 . S
O975 C978 1.250 . S
O976 Mg977 2.028 . S
O976 C978 1.248 . S
Mg977 O976 2.028 . S
Mg977 O982 2.032 . S
Mg977 O984 2.079 . S
C978 O975 1.250 . S
C978 O976 1.248 . S
C979 O980 1.264 . S
C979 O987 1.249 . S
O980 C979 1.264 . S
O981 Mg974 1.986 . S
O981 C985 1.246 . S
O982 Mg977 2.032 . S
O982 C985 1.259 . S
O983 Mg974 2.114 . S
O983 C986 1.252 . S
O984 Mg974 2.251 . S
O984 Mg977 2.079 . S
O984 C986 1.273 . S
C985 O981 1.246 . S
C985 O982 1.259 . S
C986 O983 1.252 . S
C986 O984 1.273 . S
O987 Mg974 2.010 . S
O987 C979 1.249 . S
Mg988 O989 2.028 . S
Mg988 O995 1.986 1_554 S
Mg988 O997 2.114 . S
Mg988 O998 2.251 . S
Mg988 O1001 2.010 . S
O989 Mg988 2.028 . S
O989 C992 1.251 1_554 S
O990 Mg991 2.028 . S
O990 C992 1.247 . S
Mg991 O990 2.028 . S
Mg991 O996 2.032 . S
Mg991 O998 2.079 1_556 S
C992 O989 1.251 1_556 S
C992 O990 1.247 . S
C993 O994 1.264 . S
C993 O1001 1.249 . S
O994 C993 1.264 . S
O995 Mg988 1.986 1_556 S
O995 C999 1.246 . S
O996 Mg991 2.032 . S
O996 C999 1.259 . S
O997 Mg988 2.114 . S
O997 C1000 1.252 . S
O998 Mg988 2.251 . S
O998 Mg991 2.079 1_554 S
O998 C1000 1.273 . S
C999 O995 1.246 . S
C999 O996 1.259 . S
C1000 O997 1.252 . S
C1000 O998 1.273 . S
O1001 Mg988 2.010 . S
O1001 C993 1.249 . S
Mg1002 O1003 2.028 . S
Mg1002 O1009 1.986 . S
Mg1002 O1011 2.114 . S
Mg1002 O1012 2.251 . S
Mg1002 O1015 2.010 . S
O1003 Mg1002 2.028 . S
O1003 C1006 1.250 1_545 S
O1004 Mg1005 2.028 . S
O1004 C1006 1.248 . S
Mg1005 O1004 2.028 . S
Mg1005 O1010 2.032 . S
Mg1005 O1012 2.079 1_565 S
C1006 O1003 1.250 1_565 S
C1006 O1004 1.248 . S
C1007 O1008 1.264 . S
C1007 O1015 1.249 . S
O1008 C1007 1.264 . S
O1009 Mg1002 1.986 . S
O1009 C1013 1.246 . S
O1010 Mg1005 2.032 . S
O1010 C1013 1.259 1_565 S
O1011 Mg1002 2.114 . S
O1011 C1014 1.252 . S
O1012 Mg1002 2.251 . S
O1012 Mg1005 2.079 1_545 S
O1012 C1014 1.273 . S
C1013 O1009 1.246 . S
C1013 O1010 1.259 1_545 S
C1014 O1011 1.252 . S
C1014 O1012 1.273 . S
O1015 Mg1002 2.010 . S
O1015 C1007 1.249 . S
Mg1016 O1017 2.028 . S
Mg1016 O1023 1.986 . S
Mg1016 O1025 2.114 . S
Mg1016 O1026 2.251 . S
Mg1016 O1029 2.010 . S
O1017 Mg1016 2.028 . S
O1017 C1020 1.250 . S
O1018 Mg1019 2.028 . S
O1018 C1020 1.248 . S
Mg1019 O1018 2.028 . S
Mg1019 O1024 2.032 . S
Mg1019 O1026 2.079 . S
C1020 O1017 1.250 . S
C1020 O1018 1.248 . S
C1021 O1022 1.264 . S
C1021 O1029 1.249 . S
O1022 C1021 1.264 . S
O1023 Mg1016 1.986 . S
O1023 C1027 1.246 . S
O1024 Mg1019 2.032 . S
O1024 C1027 1.259 . S
O1025 Mg1016 2.114 . S
O1025 C1028 1.252 . S
O1026 Mg1016 2.251 . S
O1026 Mg1019 2.079 . S
O1026 C1028 1.273 . S
C1027 O1023 1.246 . S
C1027 O1024 1.259 . S
C1028 O1025 1.252 . S
C1028 O1026 1.273 . S
O1029 Mg1016 2.010 . S
O1029 C1021 1.249 . S
Mg1030 O1031 2.028 . S
Mg1030 O1037 1.986 . S
Mg1030 O1039 2.114 . S
Mg1030 O1040 2.251 . S
Mg1030 O1043 2.010 . S
O1031 Mg1030 2.028 . S
O1031 C1034 1.250 . S
O1032 Mg1033 2.028 . S
O1032 C1034 1.248 . S
Mg1033 O1032 2.028 . S
Mg1033 O1038 2.032 . S
Mg1033 O1040 2.079 . S
C1034 O1031 1.250 . S
C1034 O1032 1.248 . S
C1035 O1036 1.264 . S
C1035 O1043 1.249 . S
O1036 C1035 1.264 . S
O1037 Mg1030 1.986 . S
O1037 C1041 1.246 . S
O1038 Mg1033 2.032 . S
O1038 C1041 1.259 . S
O1039 Mg1030 2.114 . S
O1039 C1042 1.252 . S
O1040 Mg1030 2.251 . S
O1040 Mg1033 2.079 . S
O1040 C1042 1.273 . S
C1041 O1037 1.246 . S
C1041 O1038 1.259 . S
C1042 O1039 1.252 . S
C1042 O1040 1.273 . S
O1043 Mg1030 2.010 . S
O1043 C1035 1.249 . S
Mg1044 O1045 2.028 . S
Mg1044 O1051 1.986 . S
Mg1044 O1053 2.114 . S
Mg1044 O1054 2.251 . S
Mg1044 O1057 2.010 . S
O1045 Mg1044 2.028 . S
O1045 C1048 1.250 . S
O1046 Mg1047 2.028 . S
O1046 C1048 1.248 . S
Mg1047 O1046 2.028 . S
Mg1047 O1052 2.032 . S
Mg1047 O1054 2.079 . S
C1048 O1045 1.250 . S
C1048 O1046 1.248 . S
C1049 O1050 1.264 . S
C1049 O1057 1.249 . S
O1050 C1049 1.264 . S
O1051 Mg1044 1.986 . S
O1051 C1055 1.246 . S
O1052 Mg1047 2.032 . S
O1052 C1055 1.259 . S
O1053 Mg1044 2.114 . S
O1053 C1056 1.252 . S
O1054 Mg1044 2.251 . S
O1054 Mg1047 2.079 . S
O1054 C1056 1.273 . S
C1055 O1051 1.246 . S
C1055 O1052 1.259 . S
C1056 O1053 1.252 . S
C1056 O1054 1.273 . S
O1057 Mg1044 2.010 . S
O1057 C1049 1.249 . S
Mg1058 O1059 2.028 1_545 S
Mg1058 O1065 1.986 1_545 S
Mg1058 O1067 2.114 . S
Mg1058 O1068 2.251 . S
Mg1058 O1071 2.010 . S
O1059 Mg1058 2.028 1_565 S
O1059 C1062 1.250 . S
O1060 Mg1061 2.028 . S
O1060 C1062 1.248 . S
Mg1061 O1060 2.028 . S
Mg1061 O1066 2.032 . S
Mg1061 O1068 2.079 1_565 S
C1062 O1059 1.250 . S
C1062 O1060 1.248 . S
C1063 O1064 1.264 . S
C1063 O1071 1.249 . S
O1064 C1063 1.264 . S
O1065 Mg1058 1.986 1_565 S
O1065 C1069 1.246 . S
O1066 Mg1061 2.032 . S
O1066 C1069 1.259 . S
O1067 Mg1058 2.114 . S
O1067 C1070 1.252 . S
O1068 Mg1058 2.251 . S
O1068 Mg1061 2.079 1_545 S
O1068 C1070 1.273 . S
C1069 O1065 1.246 . S
C1069 O1066 1.259 . S
C1070 O1067 1.252 . S
C1070 O1068 1.273 . S
O1071 Mg1058 2.010 . S
O1071 C1063 1.249 . S
Mg1072 O1073 2.028 . S
Mg1072 O1079 1.986 . S
Mg1072 O1081 2.114 . S
Mg1072 O1082 2.251 . S
Mg1072 O1085 2.010 . S
O1073 Mg1072 2.028 . S
O1073 C1076 1.250 1_455 S
O1074 Mg1075 2.028 . S
O1074 C1076 1.248 . S
Mg1075 O1074 2.028 . S
Mg1075 O1080 2.032 . S
Mg1075 O1082 2.079 1_655 S
C1076 O1073 1.250 1_655 S
C1076 O1074 1.248 . S
C1077 O1078 1.264 . S
C1077 O1085 1.249 . S
O1078 C1077 1.264 . S
O1079 Mg1072 1.986 . S
O1079 C1083 1.246 . S
O1080 Mg1075 2.032 . S
O1080 C1083 1.259 1_655 S
O1081 Mg1072 2.114 . S
O1081 C1084 1.252 . S
O1082 Mg1072 2.251 . S
O1082 Mg1075 2.079 1_455 S
O1082 C1084 1.273 . S
C1083 O1079 1.246 . S
C1083 O1080 1.259 1_455 S
C1084 O1081 1.252 . S
C1084 O1082 1.273 . S
O1085 Mg1072 2.010 . S
O1085 C1077 1.249 . S
Mg1086 O1087 2.028 . S
Mg1086 O1093 1.986 . S
Mg1086 O1095 2.114 . S
Mg1086 O1096 2.251 . S
Mg1086 O1099 2.010 . S
O1087 Mg1086 2.028 . S
O1087 C1090 1.250 . S
O1088 Mg1089 2.028 . S
O1088 C1090 1.248 . S
Mg1089 O1088 2.028 . S
Mg1089 O1094 2.032 . S
Mg1089 O1096 2.079 . S
C1090 O1087 1.250 . S
C1090 O1088 1.248 . S
C1091 O1092 1.264 . S
C1091 O1099 1.249 . S
O1092 C1091 1.264 . S
O1093 Mg1086 1.986 . S
O1093 C1097 1.246 . S
O1094 Mg1089 2.032 . S
O1094 C1097 1.259 . S
O1095 Mg1086 2.114 . S
O1095 C1098 1.252 . S
O1096 Mg1086 2.251 . S
O1096 Mg1089 2.079 . S
O1096 C1098 1.273 . S
C1097 O1093 1.246 . S
C1097 O1094 1.259 . S
C1098 O1095 1.252 . S
C1098 O1096 1.273 . S
O1099 Mg1086 2.010 . S
O1099 C1091 1.249 . S
Mg1100 O1101 2.028 1_655 S
Mg1100 O1107 2.000 . S
Mg1100 O1109 2.114 . S
Mg1100 O1110 2.251 1_655 S
Mg1100 O1113 2.010 . S
O1101 Mg1100 2.028 1_455 S
O1101 C1104 1.250 . S
O1102 Mg1103 2.028 . S
O1102 C1104 1.248 . S
Mg1103 O1102 2.028 . S
Mg1103 O1108 2.032 . S
Mg1103 O1110 2.079 . S
C1104 O1101 1.250 . S
C1104 O1102 1.248 . S
C1105 O1106 1.264 . S
C1105 O1113 1.249 . S
O1106 C1105 1.264 . S
O1107 Mg1100 2.000 . S
O1107 C1111 1.209 1_655 S
O1108 Mg1103 2.032 . S
O1108 C1111 1.259 . S
O1109 Mg1100 2.114 . S
O1109 C1112 1.252 . S
O1110 Mg1100 2.251 1_455 S
O1110 Mg1103 2.079 . S
O1110 C1112 1.273 1_455 S
C1111 O1107 1.209 1_455 S
C1111 O1108 1.259 . S
C1112 O1109 1.252 . S
C1112 O1110 1.273 1_655 S
O1113 Mg1100 2.010 . S
O1113 C1105 1.249 . S
Mg1114 O1115 2.028 . S
Mg1114 O1121 1.986 . S
Mg1114 O1123 2.114 . S
Mg1114 O1124 2.251 . S
Mg1114 O1127 2.010 . S
O1115 Mg1114 2.028 . S
O1115 C1118 1.250 . S
O1116 Mg1117 2.028 . S
O1116 C1118 1.248 . S
Mg1117 O1116 2.028 . S
Mg1117 O1122 2.032 . S
Mg1117 O1124 2.079 . S
C1118 O1115 1.250 . S
C1118 O1116 1.248 . S
C1119 O1120 1.264 . S
C1119 O1127 1.249 . S
O1120 C1119 1.264 . S
O1121 Mg1114 1.986 . S
O1121 C1125 1.246 . S
O1122 Mg1117 2.032 . S
O1122 C1125 1.259 . S
O1123 Mg1114 2.114 . S
O1123 C1126 1.252 . S
O1124 Mg1114 2.251 . S
O1124 Mg1117 2.079 . S
O1124 C1126 1.273 . S
C1125 O1121 1.246 . S
C1125 O1122 1.259 . S
C1126 O1123 1.252 . S
C1126 O1124 1.273 . S
O1127 Mg1114 2.010 . S
O1127 C1119 1.249 . S
H1128 C1134 0.930 . S
H1129 C1137 0.930 . S
H1130 C1138 0.930 . S
H1131 C1139 0.930 . S
H1132 C1142 0.930 . S
H1133 C1143 0.930 . S
C1134 H1128 0.930 . S
C1134 C1135 1.355 . S
C1134 C1136 1.415 . S
C1135 C1134 1.355 . S
C1135 C1137 1.419 . S
C1136 C1134 1.415 . S
C1136 C1141 1.425 . S
C1136 C1143 1.409 . S
C1137 H1129 0.930 . S
C1137 C1135 1.419 . S
C1137 C1138 1.362 . S
C1138 H1130 0.930 . S
C1138 C1137 1.362 . S
C1138 C1141 1.409 . S
C1139 H1131 0.930 . S
C1139 C1140 1.355 . S
C1139 C1141 1.415 . S
C1140 C1139 1.355 . S
C1140 C1142 1.419 . S
C1141 C1136 1.425 . S
C1141 C1138 1.409 . S
C1141 C1139 1.415 . S
C1142 H1132 0.930 . S
C1142 C1140 1.419 . S
C1142 C1143 1.362 . S
C1143 H1133 0.930 . S
C1143 C1136 1.409 . S
C1143 C1142 1.362 . S
H1144 C1150 0.930 . S
H1145 C1153 0.930 . S
H1146 C1154 0.930 . S
H1147 C1155 0.930 . S
H1148 C1158 0.930 . S
H1149 C1159 0.930 . S
C1150 H1144 0.930 . S
C1150 C1151 1.355 . S
C1150 C1152 1.415 . S
C1151 C1150 1.355 . S
C1151 C1153 1.419 . S
C1152 C1150 1.415 . S
C1152 C1157 1.425 . S
C1152 C1159 1.409 . S
C1153 H1145 0.930 . S
C1153 C1151 1.419 . S
C1153 C1154 1.362 . S
C1154 H1146 0.930 . S
C1154 C1153 1.362 . S
C1154 C1157 1.409 . S
C1155 H1147 0.930 . S
C1155 C1156 1.355 . S
C1155 C1157 1.415 . S
C1156 C1155 1.355 . S
C1156 C1158 1.419 . S
C1157 C1152 1.425 . S
C1157 C1154 1.409 . S
C1157 C1155 1.415 . S
C1158 H1148 0.930 . S
C1158 C1156 1.419 . S
C1158 C1159 1.362 . S
C1159 H1149 0.930 . S
C1159 C1152 1.409 . S
C1159 C1158 1.362 . S
H1160 C1166 0.930 . S
H1161 C1169 0.930 . S
H1162 C1170 0.930 . S
H1163 C1171 0.930 . S
H1164 C1174 0.930 . S
H1165 C1175 0.930 . S
C1166 H1160 0.930 . S
C1166 C1167 1.355 . S
C1166 C1168 1.415 . S
C1167 C1166 1.355 . S
C1167 C1169 1.419 . S
C1168 C1166 1.415 . S
C1168 C1173 1.425 . S
C1168 C1175 1.409 . S
C1169 H1161 0.930 . S
C1169 C1167 1.419 . S
C1169 C1170 1.362 . S
C1170 H1162 0.930 . S
C1170 C1169 1.362 . S
C1170 C1173 1.409 . S
C1171 H1163 0.930 . S
C1171 C1172 1.355 . S
C1171 C1173 1.415 . S
C1172 C1171 1.355 . S
C1172 C1174 1.419 . S
C1173 C1168 1.425 . S
C1173 C1170 1.409 . S
C1173 C1171 1.415 . S
C1174 H1164 0.930 . S
C1174 C1172 1.419 . S
C1174 C1175 1.362 . S
C1175 H1165 0.930 . S
C1175 C1168 1.409 . S
C1175 C1174 1.362 . S
H1176 C1182 0.930 . S
H1177 C1185 0.930 . S
H1178 C1186 0.930 . S
H1179 C1187 0.930 . S
H1180 C1190 0.930 . S
H1181 C1191 0.930 . S
C1182 H1176 0.930 . S
C1182 C1183 1.355 . S
C1182 C1184 1.415 . S
C1183 C1182 1.355 . S
C1183 C1185 1.419 1_565 S
C1184 C1182 1.415 . S
C1184 C1189 1.425 1_565 S
C1184 C1191 1.409 . S
C1185 H1177 0.930 . S
C1185 C1183 1.419 1_545 S
C1185 C1186 1.362 . S
C1186 H1178 0.930 . S
C1186 C1185 1.362 . S
C1186 C1189 1.409 . S
C1187 H1179 0.930 . S
C1187 C1188 1.355 . S
C1187 C1189 1.415 . S
C1188 C1187 1.355 . S
C1188 C1190 1.419 1_545 S
C1189 C1184 1.425 1_545 S
C1189 C1186 1.409 . S
C1189 C1187 1.415 . S
C1190 H1180 0.930 . S
C1190 C1188 1.419 1_565 S
C1190 C1191 1.362 . S
C1191 H1181 0.930 . S
C1191 C1184 1.409 . S
C1191 C1190 1.362 . S
H1192 C1198 0.930 . S
H1193 C1201 0.930 . S
H1194 C1202 0.930 . S
H1195 C1203 0.930 . S
H1196 C1206 0.930 . S
H1197 C1207 0.930 . S
C1198 H1192 0.930 . S
C1198 C1199 1.355 . S
C1198 C1200 1.415 . S
C1199 C1198 1.355 . S
C1199 C1201 1.419 . S
C1200 C1198 1.415 . S
C1200 C1205 1.425 . S
C1200 C1207 1.409 . S
C1201 H1193 0.930 . S
C1201 C1199 1.419 . S
C1201 C1202 1.362 . S
C1202 H1194 0.930 . S
C1202 C1201 1.362 . S
C1202 C1205 1.409 . S
C1203 H1195 0.930 . S
C1203 C1204 1.355 . S
C1203 C1205 1.415 . S
C1204 C1203 1.355 . S
C1204 C1206 1.419 . S
C1205 C1200 1.425 . S
C1205 C1202 1.409 . S
C1205 C1203 1.415 . S
C1206 H1196 0.930 . S
C1206 C1204 1.419 . S
C1206 C1207 1.362 . S
C1207 H1197 0.930 . S
C1207 C1200 1.409 . S
C1207 C1206 1.362 . S
H1208 C1214 0.930 . S
H1209 C1217 0.930 . S
H1210 C1218 0.930 . S
H1211 C1219 0.930 . S
H1212 C1222 0.930 . S
H1213 C1223 0.930 . S
C1214 H1208 0.930 . S
C1214 C1215 1.355 . S
C1214 C1216 1.415 . S
C1215 C1214 1.355 . S
C1215 C1217 1.419 . S
C1216 C1214 1.415 . S
C1216 C1221 1.425 . S
C1216 C1223 1.409 . S
C1217 H1209 0.930 . S
C1217 C1215 1.419 . S
C1217 C1218 1.362 . S
C1218 H1210 0.930 . S
C1218 C1217 1.362 . S
C1218 C1221 1.409 . S
C1219 H1211 0.930 . S
C1219 C1220 1.355 . S
C1219 C1221 1.415 . S
C1220 C1219 1.355 . S
C1220 C1222 1.419 . S
C1221 C1216 1.425 . S
C1221 C1218 1.409 . S
C1221 C1219 1.415 . S
C1222 H1212 0.930 . S
C1222 C1220 1.419 . S
C1222 C1223 1.362 . S
C1223 H1213 0.930 . S
C1223 C1216 1.409 . S
C1223 C1222 1.362 . S
H1224 C1230 0.930 . S
H1225 C1233 0.930 . S
H1226 C1234 0.930 . S
H1227 C1235 0.930 . S
H1228 C1238 0.930 . S
H1229 C1239 0.930 . S
C1230 H1224 0.930 . S
C1230 C1231 1.355 . S
C1230 C1232 1.415 . S
C1231 C1230 1.355 . S
C1231 C1233 1.419 . S
C1232 C1230 1.415 . S
C1232 C1237 1.425 . S
C1232 C1239 1.409 . S
C1233 H1225 0.930 . S
C1233 C1231 1.419 . S
C1233 C1234 1.362 . S
C1234 H1226 0.930 . S
C1234 C1233 1.362 . S
C1234 C1237 1.409 . S
C1235 H1227 0.930 . S
C1235 C1236 1.355 . S
C1235 C1237 1.415 . S
C1236 C1235 1.355 . S
C1236 C1238 1.419 . S
C1237 C1232 1.425 . S
C1237 C1234 1.409 . S
C1237 C1235 1.415 . S
C1238 H1228 0.930 . S
C1238 C1236 1.419 . S
C1238 C1239 1.362 . S
C1239 H1229 0.930 . S
C1239 C1232 1.409 . S
C1239 C1238 1.362 . S
H1240 C1246 0.929 . S
H1241 C1249 0.930 . S
H1242 C1250 0.930 . S
H1243 C1251 0.930 . S
H1244 C1254 0.930 . S
H1245 C1255 0.930 . S
C1246 H1240 0.929 . S
C1246 C1247 1.355 . S
C1246 C1248 1.415 . S
C1247 C1246 1.355 . S
C1247 C1249 1.419 . S
C1248 C1246 1.415 . S
C1248 C1253 1.425 . S
C1248 C1255 1.409 1_565 S
C1249 H1241 0.930 . S
C1249 C1247 1.419 . S
C1249 C1250 1.362 . S
C1250 H1242 0.930 . S
C1250 C1249 1.362 . S
C1250 C1253 1.409 . S
C1251 H1243 0.930 . S
C1251 C1252 1.355 . S
C1251 C1253 1.415 . S
C1252 C1251 1.355 . S
C1252 C1254 1.419 1_565 S
C1253 C1248 1.425 . S
C1253 C1250 1.409 . S
C1253 C1251 1.415 . S
C1254 H1244 0.930 . S
C1254 C1252 1.419 1_545 S
C1254 C1255 1.362 . S
C1255 H1245 0.930 . S
C1255 C1248 1.409 1_545 S
C1255 C1254 1.362 . S
H1256 C1262 0.930 . S
H1257 C1265 0.930 . S
H1258 C1266 0.930 . S
H1259 C1267 0.930 . S
H1260 C1270 0.930 . S
H1261 C1271 0.930 . S
C1262 H1256 0.930 . S
C1262 C1263 1.355 . S
C1262 C1264 1.415 . S
C1263 C1262 1.355 . S
C1263 C1265 1.419 . S
C1264 C1262 1.415 . S
C1264 C1269 1.425 . S
C1264 C1271 1.409 . S
C1265 H1257 0.930 . S
C1265 C1263 1.419 . S
C1265 C1266 1.362 . S
C1266 H1258 0.930 . S
C1266 C1265 1.362 . S
C1266 C1269 1.409 . S
C1267 H1259 0.930 . S
C1267 C1268 1.355 . S
C1267 C1269 1.415 . S
C1268 C1267 1.355 . S
C1268 C1270 1.419 . S
C1269 C1264 1.425 . S
C1269 C1266 1.409 . S
C1269 C1267 1.415 . S
C1270 H1260 0.930 . S
C1270 C1268 1.419 . S
C1270 C1271 1.362 . S
C1271 H1261 0.930 . S
C1271 C1264 1.409 . S
C1271 C1270 1.362 . S
H1272 C1278 0.930 . S
H1273 C1281 0.930 . S
H1274 C1282 0.930 . S
H1275 C1283 0.930 . S
H1276 C1286 0.930 . S
H1277 C1287 0.930 . S
C1278 H1272 0.930 . S
C1278 C1279 1.355 . S
C1278 C1280 1.415 . S
C1279 C1278 1.355 . S
C1279 C1281 1.419 . S
C1280 C1278 1.415 . S
C1280 C1285 1.425 . S
C1280 C1287 1.409 . S
C1281 H1273 0.930 . S
C1281 C1279 1.419 . S
C1281 C1282 1.362 . S
C1282 H1274 0.930 . S
C1282 C1281 1.362 . S
C1282 C1285 1.409 . S
C1283 H1275 0.930 . S
C1283 C1284 1.355 . S
C1283 C1285 1.415 . S
C1284 C1283 1.355 . S
C1284 C1286 1.419 . S
C1285 C1280 1.425 . S
C1285 C1282 1.409 . S
C1285 C1283 1.415 . S
C1286 H1276 0.930 . S
C1286 C1284 1.419 . S
C1286 C1287 1.362 . S
C1287 H1277 0.930 . S
C1287 C1280 1.409 . S
C1287 C1286 1.362 . S
H1288 C1294 0.930 . S
H1289 C1297 0.930 . S
H1290 C1298 0.930 . S
H1291 C1299 0.930 . S
H1292 C1302 0.930 . S
H1293 C1303 0.930 . S
C1294 H1288 0.930 . S
C1294 C1295 1.355 . S
C1294 C1296 1.415 . S
C1295 C1294 1.355 . S
C1295 C1297 1.419 . S
C1296 C1294 1.415 . S
C1296 C1301 1.425 . S
C1296 C1303 1.409 . S
C1297 H1289 0.930 . S
C1297 C1295 1.419 . S
C1297 C1298 1.362 . S
C1298 H1290 0.930 . S
C1298 C1297 1.362 . S
C1298 C1301 1.409 . S
C1299 H1291 0.930 . S
C1299 C1300 1.355 . S
C1299 C1301 1.415 . S
C1300 C1299 1.355 . S
C1300 C1302 1.419 . S
C1301 C1296 1.425 . S
C1301 C1298 1.409 . S
C1301 C1299 1.415 . S
C1302 H1292 0.930 . S
C1302 C1300 1.419 . S
C1302 C1303 1.362 . S
C1303 H1293 0.930 . S
C1303 C1296 1.409 . S
C1303 C1302 1.362 . S
H1304 C1310 0.930 . S
H1305 C1313 0.930 . S
H1306 C1314 0.930 . S
H1307 C1315 0.930 . S
H1308 C1318 0.930 . S
H1309 C1319 0.930 . S
C1310 H1304 0.930 . S
C1310 C1311 1.355 . S
C1310 C1312 1.415 . S
C1311 C1310 1.355 . S
C1311 C1313 1.419 . S
C1312 C1310 1.415 . S
C1312 C1317 1.425 . S
C1312 C1319 1.409 . S
C1313 H1305 0.930 . S
C1313 C1311 1.419 . S
C1313 C1314 1.362 . S
C1314 H1306 0.930 . S
C1314 C1313 1.362 . S
C1314 C1317 1.409 . S
C1315 H1307 0.930 . S
C1315 C1316 1.355 . S
C1315 C1317 1.415 . S
C1316 C1315 1.355 . S
C1316 C1318 1.419 . S
C1317 C1312 1.425 . S
C1317 C1314 1.409 . S
C1317 C1315 1.415 . S
C1318 H1308 0.930 . S
C1318 C1316 1.419 . S
C1318 C1319 1.362 . S
C1319 H1309 0.930 . S
C1319 C1312 1.409 . S
C1319 C1318 1.362 . S
H1320 C1326 0.930 . S
H1321 C1329 0.930 . S
H1322 C1330 0.930 . S
H1323 C1331 0.930 . S
H1324 C1334 0.930 . S
H1325 C1335 0.930 . S
C1326 H1320 0.930 . S
C1326 C1327 1.355 . S
C1326 C1328 1.415 . S
C1327 C1326 1.355 . S
C1327 C1329 1.419 . S
C1328 C1326 1.415 . S
C1328 C1333 1.425 . S
C1328 C1335 1.409 . S
C1329 H1321 0.930 . S
C1329 C1327 1.419 . S
C1329 C1330 1.362 . S
C1330 H1322 0.930 . S
C1330 C1329 1.362 . S
C1330 C1333 1.409 . S
C1331 H1323 0.930 . S
C1331 C1332 1.355 . S
C1331 C1333 1.415 . S
C1332 C1331 1.355 . S
C1332 C1334 1.419 . S
C1333 C1328 1.425 . S
C1333 C1330 1.409 . S
C1333 C1331 1.415 . S
C1334 H1324 0.930 . S
C1334 C1332 1.419 . S
C1334 C1335 1.362 . S
C1335 H1325 0.930 . S
C1335 C1328 1.409 . S
C1335 C1334 1.362 . S
H1336 C1342 0.930 . S
H1337 C1345 0.930 . S
H1338 C1346 0.925 1_655 S
H1339 C1347 0.930 1_655 S
H1340 C1350 0.930 . S
H1341 C1351 0.930 . S
C1342 H1336 0.930 . S
C1342 C1343 1.355 . S
C1342 C1344 1.415 . S
C1343 C1342 1.355 . S
C1343 C1345 1.419 . S
C1344 C1342 1.415 . S
C1344 C1349 1.425 . S
C1344 C1351 1.409 . S
C1345 H1337 0.930 . S
C1345 C1343 1.419 . S
C1345 C1346 1.362 . S
C1346 H1338 0.925 1_455 S
C1346 C1345 1.362 . S
C1346 C1349 1.409 . S
C1347 H1339 0.930 1_455 S
C1347 C1348 1.355 . S
C1347 C1349 1.415 . S
C1348 C1347 1.355 . S
C1348 C1350 1.419 . S
C1349 C1344 1.425 . S
C1349 C1346 1.409 . S
C1349 C1347 1.415 . S
C1350 H1340 0.930 . S
C1350 C1348 1.419 . S
C1350 C1351 1.362 . S
C1351 H1341 0.930 . S
C1351 C1344 1.409 . S
C1351 C1350 1.362 . S
H1352 C1358 0.930 . S
H1353 C1361 0.930 . S
H1354 C1362 0.930 . S
H1355 C1363 0.930 . S
H1356 C1366 0.930 . S
H1357 C1367 0.930 . S
C1358 H1352 0.930 . S
C1358 C1359 1.355 . S
C1358 C1360 1.415 . S
C1359 C1358 1.355 . S
C1359 C1361 1.419 . S
C1360 C1358 1.415 . S
C1360 C1365 1.425 . S
C1360 C1367 1.409 . S
C1361 H1353 0.930 . S
C1361 C1359 1.419 . S
C1361 C1362 1.362 . S
C1362 H1354 0.930 . S
C1362 C1361 1.362 . S
C1362 C1365 1.409 . S
C1363 H1355 0.930 . S
C1363 C1364 1.355 . S
C1363 C1365 1.415 . S
C1364 C1363 1.355 . S
C1364 C1366 1.419 . S
C1365 C1360 1.425 . S
C1365 C1362 1.409 . S
C1365 C1363 1.415 . S
C1366 H1356 0.930 . S
C1366 C1364 1.419 . S
C1366 C1367 1.362 . S
C1367 H1357 0.930 . S
C1367 C1360 1.409 . S
C1367 C1366 1.362 . S
H1368 C1374 0.930 . S
H1369 C1377 0.930 . S
H1370 C1378 0.930 . S
H1371 C1379 0.930 . S
H1372 C1382 0.930 . S
H1373 C1383 0.930 . S
C1374 H1368 0.930 . S
C1374 C1375 1.355 . S
C1374 C1376 1.415 . S
C1375 C1374 1.355 . S
C1375 C1377 1.419 1_655 S
C1376 C1374 1.415 . S
C1376 C1381 1.421 1_655 S
C1376 C1383 1.409 . S
C1377 H1369 0.930 . S
C1377 C1375 1.419 1_455 S
C1377 C1378 1.362 . S
C1378 H1370 0.930 . S
C1378 C1377 1.362 . S
C1378 C1381 1.412 . S
C1379 H1371 0.930 . S
C1379 C1380 1.355 1_455 S
C1379 C1381 1.416 . S
C1380 C1379 1.355 1_655 S
C1380 C1382 1.419 . S
C1381 C1376 1.421 1_455 S
C1381 C1378 1.412 . S
C1381 C1379 1.416 . S
C1382 H1372 0.930 . S
C1382 C1380 1.419 . S
C1382 C1383 1.362 . S
C1383 H1373 0.930 . S
C1383 C1376 1.409 . S
C1383 C1382 1.362 . S
H1384 C1390 0.930 . S
H1385 C1393 0.930 . S
H1386 C1394 0.930 . S
H1387 C1395 0.930 . S
H1388 C1398 0.930 . S
H1389 C1399 0.930 . S
C1390 H1384 0.930 . S
C1390 C1391 1.355 . S
C1390 C1392 1.415 . S
C1391 C1390 1.355 . S
C1391 C1393 1.419 . S
C1392 C1390 1.415 . S
C1392 C1397 1.425 . S
C1392 C1399 1.409 . S
C1393 H1385 0.930 . S
C1393 C1391 1.419 . S
C1393 C1394 1.362 . S
C1394 H1386 0.930 . S
C1394 C1393 1.362 . S
C1394 C1397 1.409 . S
C1395 H1387 0.930 . S
C1395 C1396 1.355 . S
C1395 C1397 1.415 . S
C1396 C1395 1.355 . S
C1396 C1398 1.419 . S
C1397 C1392 1.425 . S
C1397 C1394 1.409 . S
C1397 C1395 1.415 . S
C1398 H1388 0.930 . S
C1398 C1396 1.419 . S
C1398 C1399 1.362 . S
C1399 H1389 0.930 . S
C1399 C1392 1.409 . S
C1399 C1398 1.362 . S
H1400 C1406 0.930 . S
H1401 C1409 0.930 . S
H1402 C1410 0.930 . S
H1403 C1411 0.930 . S
H1404 C1414 0.930 . S
H1405 C1415 0.930 . S
C1406 H1400 0.930 . S
C1406 C1407 1.355 . S
C1406 C1408 1.415 . S
C1407 C1406 1.355 . S
C1407 C1409 1.419 . S
C1408 C1406 1.415 . S
C1408 C1413 1.425 . S
C1408 C1415 1.409 . S
C1409 H1401 0.930 . S
C1409 C1407 1.419 . S
C1409 C1410 1.362 . S
C1410 H1402 0.930 . S
C1410 C1409 1.362 . S
C1410 C1413 1.409 . S
C1411 H1403 0.930 . S
C1411 C1412 1.355 . S
C1411 C1413 1.415 . S
C1412 C1411 1.355 . S
C1412 C1414 1.419 . S
C1413 C1408 1.425 . S
C1413 C1410 1.409 . S
C1413 C1411 1.415 . S
C1414 H1404 0.930 . S
C1414 C1412 1.419 . S
C1414 C1415 1.362 . S
C1415 H1405 0.930 . S
C1415 C1408 1.409 . S
C1415 C1414 1.362 . S
H1416 C1422 0.930 . S
H1417 C1425 0.930 . S
H1418 C1426 0.930 . S
H1419 C1427 0.930 . S
H1420 C1430 0.930 . S
H1421 C1431 0.930 . S
C1422 H1416 0.930 . S
C1422 C1423 1.355 . S
C1422 C1424 1.415 . S
C1423 C1422 1.355 . S
C1423 C1425 1.419 . S
C1424 C1422 1.415 . S
C1424 C1429 1.425 . S
C1424 C1431 1.409 . S
C1425 H1417 0.930 . S
C1425 C1423 1.419 . S
C1425 C1426 1.362 . S
C1426 H1418 0.930 . S
C1426 C1425 1.362 . S
C1426 C1429 1.409 . S
C1427 H1419 0.930 . S
C1427 C1428 1.355 . S
C1427 C1429 1.415 . S
C1428 C1427 1.355 . S
C1428 C1430 1.419 . S
C1429 C1424 1.425 . S
C1429 C1426 1.409 . S
C1429 C1427 1.415 . S
C1430 H1420 0.930 . S
C1430 C1428 1.419 . S
C1430 C1431 1.362 . S
C1431 H1421 0.930 . S
C1431 C1424 1.409 . S
C1431 C1430 1.362 . S
H1432 C1438 0.930 . S
H1433 C1441 0.930 . S
H1434 C1442 0.930 . S
H1435 C1443 0.930 . S
H1436 C1446 0.930 . S
H1437 C1447 0.930 . S
C1438 H1432 0.930 . S
C1438 C1439 1.355 . S
C1438 C1440 1.415 . S
C1439 C1438 1.355 . S
C1439 C1441 1.419 . S
C1440 C1438 1.415 . S
C1440 C1445 1.425 . S
C1440 C1447 1.409 . S
C1441 H1433 0.930 . S
C1441 C1439 1.419 . S
C1441 C1442 1.362 . S
C1442 H1434 0.930 . S
C1442 C1441 1.362 . S
C1442 C1445 1.409 . S
C1443 H1435 0.930 . S
C1443 C1444 1.355 . S
C1443 C1445 1.415 . S
C1444 C1443 1.355 . S
C1444 C1446 1.419 . S
C1445 C1440 1.425 . S
C1445 C1442 1.409 . S
C1445 C1443 1.415 . S
C1446 H1436 0.930 . S
C1446 C1444 1.419 . S
C1446 C1447 1.362 . S
C1447 H1437 0.930 . S
C1447 C1440 1.409 . S
C1447 C1446 1.362 . S
H1448 C1454 0.930 . S
H1449 C1457 0.930 . S
H1450 C1458 0.930 . S
H1451 C1459 0.930 . S
H1452 C1462 0.930 . S
H1453 C1463 0.930 . S
C1454 H1448 0.930 . S
C1454 C1455 1.355 . S
C1454 C1456 1.415 . S
C1455 C1454 1.355 . S
C1455 C1457 1.419 . S
C1456 C1454 1.415 . S
C1456 C1461 1.425 . S
C1456 C1463 1.409 . S
C1457 H1449 0.930 . S
C1457 C1455 1.419 . S
C1457 C1458 1.362 . S
C1458 H1450 0.930 . S
C1458 C1457 1.362 . S
C1458 C1461 1.409 . S
C1459 H1451 0.930 . S
C1459 C1460 1.355 . S
C1459 C1461 1.415 . S
C1460 C1459 1.355 . S
C1460 C1462 1.419 . S
C1461 C1456 1.425 . S
C1461 C1458 1.409 . S
C1461 C1459 1.415 . S
C1462 H1452 0.930 . S
C1462 C1460 1.419 . S
C1462 C1463 1.362 . S
C1463 H1453 0.930 . S
C1463 C1456 1.409 . S
C1463 C1462 1.362 . S
H1464 C1470 0.930 . S
H1465 C1473 0.930 . S
H1466 C1474 0.930 . S
H1467 C1475 0.930 . S
H1468 C1478 0.930 . S
H1469 C1479 0.930 . S
C1470 H1464 0.930 . S
C1470 C1471 1.355 . S
C1470 C1472 1.415 . S
C1471 C1470 1.355 . S
C1471 C1473 1.419 . S
C1472 C1470 1.415 . S
C1472 C1477 1.425 . S
C1472 C1479 1.409 . S
C1473 H1465 0.930 . S
C1473 C1471 1.419 . S
C1473 C1474 1.362 . S
C1474 H1466 0.930 . S
C1474 C1473 1.362 . S
C1474 C1477 1.409 . S
C1475 H1467 0.930 . S
C1475 C1476 1.355 . S
C1475 C1477 1.415 . S
C1476 C1475 1.355 . S
C1476 C1478 1.419 . S
C1477 C1472 1.425 . S
C1477 C1474 1.409 . S
C1477 C1475 1.415 . S
C1478 H1468 0.930 . S
C1478 C1476 1.419 . S
C1478 C1479 1.362 . S
C1479 H1469 0.930 . S
C1479 C1472 1.409 . S
C1479 C1478 1.362 . S
H1480 C1486 0.930 . S
H1481 C1489 0.930 . S
H1482 C1490 0.930 . S
H1483 C1491 0.930 . S
H1484 C1494 0.930 . S
H1485 C1495 0.930 . S
C1486 H1480 0.930 . S
C1486 C1487 1.355 . S
C1486 C1488 1.415 . S
C1487 C1486 1.355 . S
C1487 C1489 1.419 . S
C1488 C1486 1.415 . S
C1488 C1493 1.425 . S
C1488 C1495 1.409 . S
C1489 H1481 0.930 . S
C1489 C1487 1.419 . S
C1489 C1490 1.362 . S
C1490 H1482 0.930 . S
C1490 C1489 1.362 . S
C1490 C1493 1.409 . S
C1491 H1483 0.930 . S
C1491 C1492 1.355 . S
C1491 C1493 1.415 . S
C1492 C1491 1.355 . S
C1492 C1494 1.419 . S
C1493 C1488 1.425 . S
C1493 C1490 1.409 . S
C1493 C1491 1.415 . S
C1494 H1484 0.930 . S
C1494 C1492 1.419 . S
C1494 C1495 1.362 . S
C1495 H1485 0.930 . S
C1495 C1488 1.409 . S
C1495 C1494 1.362 . S
H1496 C1502 0.930 . S
H1497 C1505 0.930 . S
H1498 C1506 0.930 . S
H1499 C1507 0.930 . S
H1500 C1510 0.930 . S
H1501 C1511 0.930 . S
C1502 H1496 0.930 . S
C1502 C1503 1.355 . S
C1502 C1504 1.415 . S
C1503 C1502 1.355 . S
C1503 C1505 1.419 . S
C1504 C1502 1.415 . S
C1504 C1509 1.425 . S
C1504 C1511 1.409 . S
C1505 H1497 0.930 . S
C1505 C1503 1.419 . S
C1505 C1506 1.362 . S
C1506 H1498 0.930 . S
C1506 C1505 1.362 . S
C1506 C1509 1.409 . S
C1507 H1499 0.930 . S
C1507 C1508 1.355 . S
C1507 C1509 1.415 . S
C1508 C1507 1.355 . S
C1508 C1510 1.419 . S
C1509 C1504 1.425 . S
C1509 C1506 1.409 . S
C1509 C1507 1.415 . S
C1510 H1500 0.930 . S
C1510 C1508 1.419 . S
C1510 C1511 1.362 . S
C1511 H1501 0.930 . S
C1511 C1504 1.409 . S
C1511 C1510 1.362 . S
H1512 C1518 0.930 . S
H1513 C1521 0.930 . S
H1514 C1522 0.930 . S
H1515 C1523 0.930 . S
H1516 C1526 0.930 . S
H1517 C1527 0.930 . S
C1518 H1512 0.930 . S
C1518 C1519 1.355 . S
C1518 C1520 1.415 . S
C1519 C1518 1.355 . S
C1519 C1521 1.419 . S
C1520 C1518 1.415 . S
C1520 C1525 1.425 . S
C1520 C1527 1.409 . S
C1521 H1513 0.930 . S
C1521 C1519 1.419 . S
C1521 C1522 1.362 . S
C1522 H1514 0.930 . S
C1522 C1521 1.362 . S
C1522 C1525 1.409 . S
C1523 H1515 0.930 . S
C1523 C1524 1.355 . S
C1523 C1525 1.415 . S
C1524 C1523 1.355 . S
C1524 C1526 1.419 . S
C1525 C1520 1.425 . S
C1525 C1522 1.409 . S
C1525 C1523 1.415 . S
C1526 H1516 0.930 . S
C1526 C1524 1.419 . S
C1526 C1527 1.362 . S
C1527 H1517 0.930 . S
C1527 C1520 1.409 . S
C1527 C1526 1.362 . S
H1528 C1534 0.930 . S
H1529 C1537 0.930 . S
H1530 C1538 0.930 1_565 S
H1531 C1539 0.930 1_565 S
H1532 C1542 0.930 . S
H1533 C1543 0.930 . S
C1534 H1528 0.930 . S
C1534 C1535 1.355 . S
C1534 C1536 1.415 . S
C1535 C1534 1.355 . S
C1535 C1537 1.419 . S
C1536 C1534 1.415 . S
C1536 C1541 1.425 . S
C1536 C1543 1.409 . S
C1537 H1529 0.930 . S
C1537 C1535 1.419 . S
C1537 C1538 1.362 . S
C1538 H1530 0.930 1_545 S
C1538 C1537 1.362 . S
C1538 C1541 1.409 . S
C1539 H1531 0.930 1_545 S
C1539 C1540 1.355 . S
C1539 C1541 1.415 . S
C1540 C1539 1.355 . S
C1540 C1542 1.419 . S
C1541 C1536 1.425 . S
C1541 C1538 1.409 . S
C1541 C1539 1.415 . S
C1542 H1532 0.930 . S
C1542 C1540 1.419 . S
C1542 C1543 1.362 . S
C1543 H1533 0.930 . S
C1543 C1536 1.409 . S
C1543 C1542 1.362 . S
H1544 C1550 0.930 . S
H1545 C1553 0.930 . S
H1546 C1554 0.930 . S
H1547 C1555 0.930 . S
H1548 C1558 0.930 . S
H1549 C1559 0.930 . S
C1550 H1544 0.930 . S
C1550 C1551 1.355 . S
C1550 C1552 1.415 . S
C1551 C1550 1.355 . S
C1551 C1553 1.419 . S
C1552 C1550 1.415 . S
C1552 C1557 1.425 . S
C1552 C1559 1.409 . S
C1553 H1545 0.930 . S
C1553 C1551 1.419 . S
C1553 C1554 1.362 . S
C1554 H1546 0.930 . S
C1554 C1553 1.362 . S
C1554 C1557 1.409 . S
C1555 H1547 0.930 . S
C1555 C1556 1.355 . S
C1555 C1557 1.415 . S
C1556 C1555 1.355 . S
C1556 C1558 1.419 . S
C1557 C1552 1.425 . S
C1557 C1554 1.409 . S
C1557 C1555 1.415 . S
C1558 H1548 0.930 . S
C1558 C1556 1.419 . S
C1558 C1559 1.362 . S
C1559 H1549 0.930 . S
C1559 C1552 1.409 . S
C1559 C1558 1.362 . S
H1560 C1566 0.930 . S
H1561 C1569 0.930 . S
H1562 C1570 0.930 . S
H1563 C1571 0.930 . S
H1564 C1574 0.930 . S
H1565 C1575 0.930 . S
C1566 H1560 0.930 . S
C1566 C1567 1.355 . S
C1566 C1568 1.415 . S
C1567 C1566 1.355 . S
C1567 C1569 1.419 . S
C1568 C1566 1.415 . S
C1568 C1573 1.425 . S
C1568 C1575 1.409 . S
C1569 H1561 0.930 . S
C1569 C1567 1.419 . S
C1569 C1570 1.362 . S
C1570 H1562 0.930 . S
C1570 C1569 1.362 . S
C1570 C1573 1.409 . S
C1571 H1563 0.930 . S
C1571 C1572 1.355 . S
C1571 C1573 1.415 . S
C1572 C1571 1.355 . S
C1572 C1574 1.419 . S
C1573 C1568 1.425 . S
C1573 C1570 1.409 . S
C1573 C1571 1.415 . S
C1574 H1564 0.930 . S
C1574 C1572 1.419 . S
C1574 C1575 1.362 . S
C1575 H1565 0.930 . S
C1575 C1568 1.409 . S
C1575 C1574 1.362 . S
H1576 C1582 0.930 . S
H1577 C1585 0.930 . S
H1578 C1586 0.930 . S
H1579 C1587 0.930 . S
H1580 C1590 0.930 . S
H1581 C1591 0.930 . S
C1582 H1576 0.930 . S
C1582 C1583 1.355 . S
C1582 C1584 1.415 . S
C1583 C1582 1.355 . S
C1583 C1585 1.419 . S
C1584 C1582 1.415 . S
C1584 C1589 1.425 . S
C1584 C1591 1.409 . S
C1585 H1577 0.930 . S
C1585 C1583 1.419 . S
C1585 C1586 1.362 . S
C1586 H1578 0.930 . S
C1586 C1585 1.362 . S
C1586 C1589 1.409 . S
C1587 H1579 0.930 . S
C1587 C1588 1.355 . S
C1587 C1589 1.415 . S
C1588 C1587 1.355 . S
C1588 C1590 1.419 . S
C1589 C1584 1.425 . S
C1589 C1586 1.409 . S
C1589 C1587 1.415 . S
C1590 H1580 0.930 . S
C1590 C1588 1.419 . S
C1590 C1591 1.362 . S
C1591 H1581 0.930 . S
C1591 C1584 1.409 . S
C1591 C1590 1.362 . S
H1592 C1598 0.930 . S
H1593 C1601 0.930 . S
H1594 C1602 0.930 1_565 S
H1595 C1603 0.930 . S
H1596 C1606 0.930 . S
H1597 C1607 0.930 . S
C1598 H1592 0.930 . S
C1598 C1599 1.355 . S
C1598 C1600 1.415 . S
C1599 C1598 1.355 . S
C1599 C1601 1.419 . S
C1600 C1598 1.415 . S
C1600 C1605 1.425 . S
C1600 C1607 1.409 . S
C1601 H1593 0.930 . S
C1601 C1599 1.419 . S
C1601 C1602 1.362 . S
C1602 H1594 0.930 1_545 S
C1602 C1601 1.362 . S
C1602 C1605 1.409 . S
C1603 H1595 0.930 . S
C1603 C1604 1.355 . S
C1603 C1605 1.415 . S
C1604 C1603 1.355 . S
C1604 C1606 1.419 . S
C1605 C1600 1.425 . S
C1605 C1602 1.409 . S
C1605 C1603 1.415 . S
C1606 H1596 0.930 . S
C1606 C1604 1.419 . S
C1606 C1607 1.362 . S
C1607 H1597 0.930 . S
C1607 C1600 1.409 . S
C1607 C1606 1.362 . S
H1608 C1614 0.930 . S
H1609 C1617 0.930 . S
H1610 C1618 0.930 . S
H1611 C1619 0.930 . S
H1612 C1622 0.930 . S
H1613 C1623 0.930 . S
C1614 H1608 0.930 . S
C1614 C1615 1.355 . S
C1614 C1616 1.415 . S
C1615 C1614 1.355 . S
C1615 C1617 1.419 . S
C1616 C1614 1.415 . S
C1616 C1621 1.425 . S
C1616 C1623 1.409 . S
C1617 H1609 0.930 . S
C1617 C1615 1.419 . S
C1617 C1618 1.362 . S
C1618 H1610 0.930 . S
C1618 C1617 1.362 . S
C1618 C1621 1.409 . S
C1619 H1611 0.930 . S
C1619 C1620 1.355 . S
C1619 C1621 1.415 . S
C1620 C1619 1.355 . S
C1620 C1622 1.419 . S
C1621 C1616 1.425 . S
C1621 C1618 1.409 . S
C1621 C1619 1.415 . S
C1622 H1612 0.930 . S
C1622 C1620 1.419 . S
C1622 C1623 1.362 . S
C1623 H1613 0.930 . S
C1623 C1616 1.409 . S
C1623 C1622 1.362 . S
H1624 C1630 0.930 . S
H1625 C1633 0.930 . S
H1626 C1634 0.930 . S
H1627 C1635 0.930 . S
H1628 C1638 0.930 . S
H1629 C1639 0.930 . S
C1630 H1624 0.930 . S
C1630 C1631 1.355 . S
C1630 C1632 1.415 . S
C1631 C1630 1.355 . S
C1631 C1633 1.419 . S
C1632 C1630 1.415 . S
C1632 C1637 1.425 . S
C1632 C1639 1.409 . S
C1633 H1625 0.930 . S
C1633 C1631 1.419 . S
C1633 C1634 1.362 . S
C1634 H1626 0.930 . S
C1634 C1633 1.362 . S
C1634 C1637 1.409 . S
C1635 H1627 0.930 . S
C1635 C1636 1.355 . S
C1635 C1637 1.415 . S
C1636 C1635 1.355 . S
C1636 C1638 1.419 . S
C1637 C1632 1.425 . S
C1637 C1634 1.409 . S
C1637 C1635 1.415 . S
C1638 H1628 0.930 . S
C1638 C1636 1.419 . S
C1638 C1639 1.362 . S
C1639 H1629 0.930 . S
C1639 C1632 1.409 . S
C1639 C1638 1.362 . S
H1640 C1646 0.930 . S
H1641 C1649 0.930 . S
H1642 C1650 0.930 . S
H1643 C1651 0.930 . S
H1644 C1654 0.930 . S
H1645 C1655 0.930 . S
C1646 H1640 0.930 . S
C1646 C1647 1.355 . S
C1646 C1648 1.415 . S
C1647 C1646 1.355 . S
C1647 C1649 1.419 . S
C1648 C1646 1.415 . S
C1648 C1653 1.425 . S
C1648 C1655 1.409 . S
C1649 H1641 0.930 . S
C1649 C1647 1.419 . S
C1649 C1650 1.362 . S
C1650 H1642 0.930 . S
C1650 C1649 1.362 . S
C1650 C1653 1.409 . S
C1651 H1643 0.930 . S
C1651 C1652 1.355 . S
C1651 C1653 1.415 . S
C1652 C1651 1.355 . S
C1652 C1654 1.419 . S
C1653 C1648 1.425 . S
C1653 C1650 1.409 . S
C1653 C1651 1.415 . S
C1654 H1644 0.930 . S
C1654 C1652 1.419 . S
C1654 C1655 1.362 . S
C1655 H1645 0.930 . S
C1655 C1648 1.409 . S
C1655 C1654 1.362 . S
H1656 C1662 0.930 . S
H1657 C1665 0.930 . S
H1658 C1666 0.930 . S
H1659 C1667 0.930 . S
H1660 C1670 0.930 . S
H1661 C1671 0.930 . S
C1662 H1656 0.930 . S
C1662 C1663 1.355 . S
C1662 C1664 1.415 . S
C1663 C1662 1.355 . S
C1663 C1665 1.419 1_655 S
C1664 C1662 1.415 . S
C1664 C1669 1.425 1_655 S
C1664 C1671 1.409 . S
C1665 H1657 0.930 . S
C1665 C1663 1.419 1_455 S
C1665 C1666 1.362 . S
C1666 H1658 0.930 . S
C1666 C1665 1.362 . S
C1666 C1669 1.409 . S
C1667 H1659 0.930 . S
C1667 C1668 1.355 . S
C1667 C1669 1.415 . S
C1668 C1667 1.355 . S
C1668 C1670 1.419 1_455 S
C1669 C1664 1.425 1_455 S
C1669 C1666 1.409 . S
C1669 C1667 1.415 . S
C1670 H1660 0.930 . S
C1670 C1668 1.419 1_655 S
C1670 C1671 1.362 . S
C1671 H1661 0.930 . S
C1671 C1664 1.409 . S
C1671 C1670 1.362 . S
H1672 C1678 0.930 . S
H1673 C1681 0.930 . S
H1674 C1682 0.930 . S
H1675 C1683 0.930 . S
H1676 C1686 0.930 . S
H1677 C1687 0.930 . S
C1678 H1672 0.930 . S
C1678 C1679 1.355 . S
C1678 C1680 1.415 . S
C1679 C1678 1.355 . S
C1679 C1681 1.419 . S
C1680 C1678 1.415 . S
C1680 C1685 1.425 . S
C1680 C1687 1.409 . S
C1681 H1673 0.930 . S
C1681 C1679 1.419 . S
C1681 C1682 1.362 . S
C1682 H1674 0.930 . S
C1682 C1681 1.362 . S
C1682 C1685 1.409 . S
C1683 H1675 0.930 . S
C1683 C1684 1.355 . S
C1683 C1685 1.415 . S
C1684 C1683 1.355 . S
C1684 C1686 1.419 . S
C1685 C1680 1.425 . S
C1685 C1682 1.409 . S
C1685 C1683 1.415 . S
C1686 H1676 0.930 . S
C1686 C1684 1.419 . S
C1686 C1687 1.362 . S
C1687 H1677 0.930 . S
C1687 C1680 1.409 . S
C1687 C1686 1.362 . S
H1688 C1694 0.930 . S
H1689 C1697 0.930 . S
H1690 C1698 0.930 . S
H1691 C1699 0.930 . S
H1692 C1702 0.930 1_655 S
H1693 C1703 0.930 1_655 S
C1694 H1688 0.930 . S
C1694 C1695 1.355 . S
C1694 C1696 1.415 . S
C1695 C1694 1.355 . S
C1695 C1697 1.419 . S
C1696 C1694 1.415 . S
C1696 C1701 1.425 . S
C1696 C1703 1.409 . S
C1697 H1689 0.930 . S
C1697 C1695 1.419 . S
C1697 C1698 1.362 . S
C1698 H1690 0.930 . S
C1698 C1697 1.362 . S
C1698 C1701 1.409 . S
C1699 H1691 0.930 . S
C1699 C1700 1.355 . S
C1699 C1701 1.415 . S
C1700 C1699 1.355 . S
C1700 C1702 1.419 . S
C1701 C1696 1.425 . S
C1701 C1698 1.409 . S
C1701 C1699 1.415 . S
C1702 H1692 0.930 1_455 S
C1702 C1700 1.419 . S
C1702 C1703 1.362 . S
C1703 H1693 0.930 1_455 S
C1703 C1696 1.409 . S
C1703 C1702 1.362 . S
H1704 C1710 0.930 . S
H1705 C1713 0.930 . S
H1706 C1714 0.930 . S
H1707 C1715 0.930 . S
H1708 C1718 0.930 . S
H1709 C1719 0.930 . S
C1710 H1704 0.930 . S
C1710 C1711 1.355 . S
C1710 C1712 1.415 . S
C1711 C1710 1.355 . S
C1711 C1713 1.419 . S
C1712 C1710 1.415 . S
C1712 C1717 1.425 . S
C1712 C1719 1.409 . S
C1713 H1705 0.930 . S
C1713 C1711 1.419 . S
C1713 C1714 1.362 . S
C1714 H1706 0.930 . S
C1714 C1713 1.362 . S
C1714 C1717 1.409 . S
C1715 H1707 0.930 . S
C1715 C1716 1.355 . S
C1715 C1717 1.415 . S
C1716 C1715 1.355 . S
C1716 C1718 1.419 . S
C1717 C1712 1.425 . S
C1717 C1714 1.409 . S
C1717 C1715 1.415 . S
C1718 H1708 0.930 . S
C1718 C1716 1.419 . S
C1718 C1719 1.362 . S
C1719 H1709 0.930 . S
C1719 C1712 1.409 . S
C1719 C1718 1.362 . S
H1720 C1726 0.930 . S
H1721 C1729 0.930 . S
H1722 C1730 0.930 . S
H1723 C1731 0.930 . S
H1724 C1734 0.930 . S
H1725 C1735 0.930 . S
C1726 H1720 0.930 . S
C1726 C1727 1.355 . S
C1726 C1728 1.415 . S
C1727 C1726 1.355 . S
C1727 C1729 1.419 . S
C1728 C1726 1.415 . S
C1728 C1733 1.425 . S
C1728 C1735 1.409 . S
C1729 H1721 0.930 . S
C1729 C1727 1.419 . S
C1729 C1730 1.362 . S
C1730 H1722 0.930 . S
C1730 C1729 1.362 . S
C1730 C1733 1.409 . S
C1731 H1723 0.930 . S
C1731 C1732 1.355 . S
C1731 C1733 1.415 . S
C1732 C1731 1.355 . S
C1732 C1734 1.419 . S
C1733 C1728 1.425 . S
C1733 C1730 1.409 . S
C1733 C1731 1.415 . S
C1734 H1724 0.930 . S
C1734 C1732 1.419 . S
C1734 C1735 1.362 . S
C1735 H1725 0.930 . S
C1735 C1728 1.409 . S
C1735 C1734 1.362 . S
H1736 C1742 0.930 . S
H1737 C1745 0.930 . S
H1738 C1746 0.930 . S
H1739 C1747 0.930 . S
H1740 C1750 0.930 . S
H1741 C1751 0.930 . S
C1742 H1736 0.930 . S
C1742 C1743 1.355 . S
C1742 C1744 1.415 . S
C1743 C1742 1.355 . S
C1743 C1745 1.419 . S
C1744 C1742 1.415 . S
C1744 C1749 1.425 . S
C1744 C1751 1.409 . S
C1745 H1737 0.930 . S
C1745 C1743 1.419 . S
C1745 C1746 1.362 . S
C1746 H1738 0.930 . S
C1746 C1745 1.362 . S
C1746 C1749 1.409 . S
C1747 H1739 0.930 . S
C1747 C1748 1.355 . S
C1747 C1749 1.415 . S
C1748 C1747 1.355 . S
C1748 C1750 1.419 . S
C1749 C1744 1.425 . S
C1749 C1746 1.409 . S
C1749 C1747 1.415 . S
C1750 H1740 0.930 . S
C1750 C1748 1.419 . S
C1750 C1751 1.362 . S
C1751 H1741 0.930 . S
C1751 C1744 1.409 . S
C1751 C1750 1.362 . S
H1752 C1758 0.930 . S
H1753 C1761 0.930 . S
H1754 C1762 0.930 . S
H1755 C1763 0.930 . S
H1756 C1766 0.930 . S
H1757 C1767 0.930 . S
C1758 H1752 0.930 . S
C1758 C1759 1.355 . S
C1758 C1760 1.415 . S
C1759 C1758 1.355 . S
C1759 C1761 1.419 . S
C1760 C1758 1.415 . S
C1760 C1765 1.425 . S
C1760 C1767 1.409 . S
C1761 H1753 0.930 . S
C1761 C1759 1.419 . S
C1761 C1762 1.362 . S
C1762 H1754 0.930 . S
C1762 C1761 1.362 . S
C1762 C1765 1.409 . S
C1763 H1755 0.930 . S
C1763 C1764 1.355 . S
C1763 C1765 1.415 . S
C1764 C1763 1.355 . S
C1764 C1766 1.419 . S
C1765 C1760 1.425 . S
C1765 C1762 1.409 . S
C1765 C1763 1.415 . S
C1766 H1756 0.930 . S
C1766 C1764 1.419 . S
C1766 C1767 1.362 . S
C1767 H1757 0.930 . S
C1767 C1760 1.409 . S
C1767 C1766 1.362 . S
H1768 C1774 0.930 . S
H1769 C1777 0.930 . S
H1770 C1778 0.930 . S
H1771 C1779 0.930 . S
H1772 C1782 0.930 . S
H1773 C1783 0.930 . S
C1774 H1768 0.930 . S
C1774 C1775 1.355 . S
C1774 C1776 1.415 . S
C1775 C1774 1.355 . S
C1775 C1777 1.419 . S
C1776 C1774 1.415 . S
C1776 C1781 1.425 . S
C1776 C1783 1.409 . S
C1777 H1769 0.930 . S
C1777 C1775 1.419 . S
C1777 C1778 1.362 . S
C1778 H1770 0.930 . S
C1778 C1777 1.362 . S
C1778 C1781 1.409 . S
C1779 H1771 0.930 . S
C1779 C1780 1.355 . S
C1779 C1781 1.415 . S
C1780 C1779 1.355 . S
C1780 C1782 1.419 . S
C1781 C1776 1.425 . S
C1781 C1778 1.409 . S
C1781 C1779 1.415 . S
C1782 H1772 0.930 . S
C1782 C1780 1.419 . S
C1782 C1783 1.362 . S
C1783 H1773 0.930 . S
C1783 C1776 1.409 . S
C1783 C1782 1.362 . S
H1784 C1790 0.930 . S
H1785 C1793 0.930 . S
H1786 C1794 0.930 . S
H1787 C1795 0.930 . S
H1788 C1798 0.930 . S
H1789 C1799 0.930 . S
C1790 H1784 0.930 . S
C1790 C1791 1.355 . S
C1790 C1792 1.415 . S
C1791 C1790 1.355 . S
C1791 C1793 1.419 . S
C1792 C1790 1.415 . S
C1792 C1797 1.425 . S
C1792 C1799 1.409 . S
C1793 H1785 0.930 . S
C1793 C1791 1.419 . S
C1793 C1794 1.362 . S
C1794 H1786 0.930 . S
C1794 C1793 1.362 . S
C1794 C1797 1.409 . S
C1795 H1787 0.930 . S
C1795 C1796 1.355 . S
C1795 C1797 1.415 . S
C1796 C1795 1.355 . S
C1796 C1798 1.419 . S
C1797 C1792 1.425 . S
C1797 C1794 1.409 . S
C1797 C1795 1.415 . S
C1798 H1788 0.930 . S
C1798 C1796 1.419 . S
C1798 C1799 1.362 . S
C1799 H1789 0.930 . S
C1799 C1792 1.409 . S
C1799 C1798 1.362 . S
H1800 C1806 0.930 . S
H1801 C1809 0.930 . S
H1802 C1810 0.930 . S
H1803 C1811 0.930 . S
H1804 C1814 0.930 . S
H1805 C1815 0.930 . S
C1806 H1800 0.930 . S
C1806 C1807 1.355 . S
C1806 C1808 1.415 . S
C1807 C1806 1.355 . S
C1807 C1809 1.419 . S
C1808 C1806 1.415 . S
C1808 C1813 1.425 . S
C1808 C1815 1.409 . S
C1809 H1801 0.930 . S
C1809 C1807 1.419 . S
C1809 C1810 1.362 . S
C1810 H1802 0.930 . S
C1810 C1809 1.362 . S
C1810 C1813 1.409 . S
C1811 H1803 0.930 . S
C1811 C1812 1.355 . S
C1811 C1813 1.415 . S
C1812 C1811 1.355 . S
C1812 C1814 1.419 . S
C1813 C1808 1.425 . S
C1813 C1810 1.409 . S
C1813 C1811 1.415 . S
C1814 H1804 0.930 . S
C1814 C1812 1.419 . S
C1814 C1815 1.362 . S
C1815 H1805 0.930 . S
C1815 C1808 1.409 . S
C1815 C1814 1.362 . S
H1816 C1822 0.930 . S
H1817 C1825 0.930 . S
H1818 C1826 0.930 . S
H1819 C1827 0.930 . S
H1820 C1830 0.930 . S
H1821 C1831 0.930 . S
C1822 H1816 0.930 . S
C1822 C1823 1.355 . S
C1822 C1824 1.415 . S
C1823 C1822 1.355 . S
C1823 C1825 1.419 . S
C1824 C1822 1.415 . S
C1824 C1829 1.425 . S
C1824 C1831 1.409 . S
C1825 H1817 0.930 . S
C1825 C1823 1.419 . S
C1825 C1826 1.362 . S
C1826 H1818 0.930 . S
C1826 C1825 1.362 . S
C1826 C1829 1.409 . S
C1827 H1819 0.930 . S
C1827 C1828 1.355 . S
C1827 C1829 1.415 . S
C1828 C1827 1.355 . S
C1828 C1830 1.419 . S
C1829 C1824 1.425 . S
C1829 C1826 1.409 . S
C1829 C1827 1.415 . S
C1830 H1820 0.930 . S
C1830 C1828 1.419 . S
C1830 C1831 1.362 . S
C1831 H1821 0.930 . S
C1831 C1824 1.409 . S
C1831 C1830 1.362 . S
H1832 C1838 0.930 . S
H1833 C1841 0.930 . S
H1834 C1842 0.930 . S
H1835 C1843 0.930 . S
H1836 C1846 0.930 . S
H1837 C1847 0.926 1_554 S
C1838 H1832 0.930 . S
C1838 C1839 1.355 . S
C1838 C1840 1.415 . S
C1839 C1838 1.355 . S
C1839 C1841 1.419 . S
C1840 C1838 1.415 . S
C1840 C1845 1.425 . S
C1840 C1847 1.416 . S
C1841 H1833 0.930 . S
C1841 C1839 1.419 . S
C1841 C1842 1.362 . S
C1842 H1834 0.930 . S
C1842 C1841 1.362 . S
C1842 C1845 1.409 . S
C1843 H1835 0.930 . S
C1843 C1844 1.355 . S
C1843 C1845 1.415 . S
C1844 C1843 1.355 . S
C1844 C1846 1.419 1_556 S
C1845 C1840 1.425 . S
C1845 C1842 1.409 . S
C1845 C1843 1.415 . S
C1846 H1836 0.930 . S
C1846 C1844 1.419 1_554 S
C1846 C1847 1.361 1_554 S
C1847 H1837 0.926 1_556 S
C1847 C1840 1.416 . S
C1847 C1846 1.361 1_556 S
H1848 C1854 0.930 . S
H1849 C1857 0.930 . S
H1850 C1858 0.930 . S
H1851 C1859 0.930 . S
H1852 C1862 0.930 . S
H1853 C1863 0.930 . S
C1854 H1848 0.930 . S
C1854 C1855 1.355 . S
C1854 C1856 1.415 . S
C1855 C1854 1.355 . S
C1855 C1857 1.419 . S
C1856 C1854 1.415 . S
C1856 C1861 1.425 . S
C1856 C1863 1.409 . S
C1857 H1849 0.930 . S
C1857 C1855 1.419 . S
C1857 C1858 1.362 . S
C1858 H1850 0.930 . S
C1858 C1857 1.362 . S
C1858 C1861 1.409 . S
C1859 H1851 0.930 . S
C1859 C1860 1.355 . S
C1859 C1861 1.415 . S
C1860 C1859 1.355 . S
C1860 C1862 1.419 . S
C1861 C1856 1.425 . S
C1861 C1858 1.409 . S
C1861 C1859 1.415 . S
C1862 H1852 0.930 . S
C1862 C1860 1.419 . S
C1862 C1863 1.362 . S
C1863 H1853 0.930 . S
C1863 C1856 1.409 . S
C1863 C1862 1.362 . S
H1864 C1870 0.930 . S
H1865 C1873 0.930 1_556 S
H1866 C1874 0.930 . S
H1867 C1875 0.930 1_556 S
H1868 C1878 0.930 . S
H1869 C1879 0.930 . S
C1870 H1864 0.930 . S
C1870 C1871 1.355 . S
C1870 C1872 1.415 . S
C1871 C1870 1.355 . S
C1871 C1873 1.419 . S
C1872 C1870 1.415 . S
C1872 C1877 1.425 . S
C1872 C1879 1.409 . S
C1873 H1865 0.930 1_554 S
C1873 C1871 1.419 . S
C1873 C1874 1.362 1_554 S
C1874 H1866 0.930 . S
C1874 C1873 1.362 1_556 S
C1874 C1877 1.409 1_556 S
C1875 H1867 0.930 1_554 S
C1875 C1876 1.355 . S
C1875 C1877 1.415 . S
C1876 C1875 1.355 . S
C1876 C1878 1.419 . S
C1877 C1872 1.425 . S
C1877 C1874 1.409 1_554 S
C1877 C1875 1.415 . S
C1878 H1868 0.930 . S
C1878 C1876 1.419 . S
C1878 C1879 1.362 . S
C1879 H1869 0.930 . S
C1879 C1872 1.409 . S
C1879 C1878 1.362 . S
H1880 C1886 0.933 1_556 S
H1881 C1889 0.930 . S
H1882 C1890 0.930 . S
H1883 C1891 0.930 . S
H1884 C1894 0.930 . S
H1885 C1895 0.930 . S
C1886 H1880 0.933 1_554 S
C1886 C1887 1.351 . S
C1886 C1888 1.414 . S
C1887 C1886 1.351 . S
C1887 C1889 1.419 . S
C1888 C1886 1.414 . S
C1888 C1893 1.425 . S
C1888 C1895 1.409 1_554 S
C1889 H1881 0.930 . S
C1889 C1887 1.419 . S
C1889 C1890 1.362 . S
C1890 H1882 0.930 . S
C1890 C1889 1.362 . S
C1890 C1893 1.409 . S
C1891 H1883 0.930 . S
C1891 C1892 1.355 . S
C1891 C1893 1.415 . S
C1892 C1891 1.355 . S
C1892 C1894 1.419 1_554 S
C1893 C1888 1.425 . S
C1893 C1890 1.409 . S
C1893 C1891 1.415 . S
C1894 H1884 0.930 . S
C1894 C1892 1.419 1_556 S
C1894 C1895 1.362 . S
C1895 H1885 0.930 . S
C1895 C1888 1.409 1_556 S
C1895 C1894 1.362 . S
C1140 C971 1.460 . S
C1135 C331 1.429 . S
C1156 C979 1.325 . S
C1151 C380 1.515 . S
C1167 C421 1.429 . S
C1172 C999 1.410 . S
C1188 C1013 1.488 . S
C1183 C260 1.466 . S
C1204 C1028 1.522 . S
C1199 C620 1.478 . S
C1220 C1042 1.516 . S
C1215 C740 1.501 . S
C1231 C680 1.522 . S
C1236 C1056 1.554 . S
C1252 C1062 1.416 . S
C1247 C571 1.463 . S
C1263 C691 1.501 . S
C1268 C1076 1.455 . S
C1284 C1097 1.505 . S
C1279 C541 1.501 . S
C1295 C601 1.434 . S
C1300 C1077 1.273 . S
C1316 C1098 1.533 . S
C1311 C721 1.496 . S
C1327 C451 1.461 . S
C1332 C1105 1.284 . S
C1343 C241 1.448 . S
C1348 C1111 1.495 . S
C1359 C320 1.463 . S
C1364 C1104 1.426 . S
C1375 C391 1.481 . S
C1380 C1112 1.476 . S
C1391 C211 1.492 . S
C1396 C1006 1.473 . S
C1407 C841 1.472 . S
C1412 C1007 1.171 . S
C1428 C964 1.532 . S
C1423 C901 1.528 . S
C1444 C985 1.437 . S
C1439 C500 1.451 . S
C1455 C271 1.462 . S
C1460 C1020 1.452 . S
C1476 C1070 1.522 . S
C1471 C661 1.489 . S
C1492 C1021 1.267 . S
C1487 C560 1.421 . S
C1508 C1049 1.331 . S
C1503 C751 1.556 . S
C1524 C1055 1.462 . S
C1519 C871 1.428 . S
C1535 C920 1.533 . S
C1540 C1063 1.200 . S
C1551 C481 1.432 . S
C1556 C1027 1.400 . S
C1572 C1041 1.473 . S
C1567 C800 1.492 . S
C1583 C200 1.520 . S
C1588 C1000 1.515 . S
C1604 C1014 1.510 . S
C1599 C20 1.482 . S
C1620 C972 1.553 . S
C1615 C80 1.512 . S
C1636 C978 1.441 . S
C1631 C151 1.448 . S
C1647 C91 1.497 . S
C1652 C1090 1.453 . S
C1663 C121 1.543 . S
C1668 C1083 1.523 . S
C1679 C181 1.444 . S
C1684 C1091 1.162 . S
C1695 C1 1.523 . S
C1700 C1084 1.532 . S
C1716 C1119 1.295 . S
C1711 C511 1.476 . S
C1732 C1125 1.485 . S
C1727 C781 1.449 . S
C1748 C1118 1.449 . S
C1743 C860 1.494 . S
C1759 C931 1.463 . S
C1764 C1126 1.478 . S
C1775 C631 1.484 . S
C1780 C1034 1.483 . S
C1796 C1035 1.287 . S
C1791 C301 1.495 . S
C1812 C1048 1.481 . S
C1807 C361 1.543 . S
C1828 C1069 1.419 . S
C1823 C440 1.464 . S
C1839 C811 1.485 . S
C1844 C992 1.477 . S
C1860 C986 1.521 . S
C1855 C61 1.497 . S
C1871 C140 1.442 . S
C1876 C993 1.207 . S
C1892 C965 1.337 . S
C1887 C31 1.554 . S
