# Generated by pormake.
# Topology ssa, (4,4)-cn, num edge types: 1
# Building blocks:
#     Node 0, Type 0, BuildingBlock: ESEHIV_clean_sbu_0, # of connection points: 4
#     Node 1, Type 0, BuildingBlock: ESEHIV_clean_sbu_0, # of connection points: 4
#     Node 2, Type 0, BuildingBlock: ESEHIV_clean_sbu_0, # of connection points: 4
#     Node 3, Type 0, BuildingBlock: ESEHIV_clean_sbu_0, # of connection points: 4
#     Node 4, Type 0, BuildingBlock: ESEHIV_clean_sbu_0, # of connection points: 4
#     Node 5, Type 0, BuildingBlock: ESEHIV_clean_sbu_0, # of connection points: 4
#     Node 6, Type 1, BuildingBlock: NAWXER_clean_linker_0, # of connection points: 4
#     Node 7, Type 1, BuildingBlock: NAWXER_clean_linker_0, # of connection points: 4
#     Node 8, Type 1, BuildingBlock: NAWXER_clean_linker_0, # of connection points: 4
#     Node 9, Type 1, BuildingBlock: NAWXER_clean_linker_0, # of connection points: 4
#     Node 10, Type 1, BuildingBlock: NAWXER_clean_linker_0, # of connection points: 4
#     Node 11, Type 1, BuildingBlock: NAWXER_clean_linker_0, # of connection points: 4
#     Edge 12, Type (0, 1), BuildingBlock: OJICUG_clean_linker_0, # of connection points: 2
#     Edge 13, Type (0, 1), BuildingBlock: OJICUG_clean_linker_0, # of connection points: 2
#     Edge 14, Type (0, 1), BuildingBlock: OJICUG_clean_linker_0, # of connection points: 2
#     Edge 15, Type (0, 1), BuildingBlock: OJICUG_clean_linker_0, # of connection points: 2
#     Edge 16, Type (0, 1), BuildingBlock: OJICUG_clean_linker_0, # of connection points: 2
#     Edge 17, Type (0, 1), BuildingBlock: OJICUG_clean_linker_0, # of connection points: 2
#     Edge 18, Type (0, 1), BuildingBlock: OJICUG_clean_linker_0, # of connection points: 2
#     Edge 19, Type (0, 1), BuildingBlock: OJICUG_clean_linker_0, # of connection points: 2
#     Edge 20, Type (0, 1), BuildingBlock: OJICUG_clean_linker_0, # of connection points: 2
#     Edge 21, Type (0, 1), BuildingBlock: OJICUG_clean_linker_0, # of connection points: 2
#     Edge 22, Type (0, 1), BuildingBlock: OJICUG_clean_linker_0, # of connection points: 2
#     Edge 23, Type (0, 1), BuildingBlock: OJICUG_clean_linker_0, # of connection points: 2
#     Edge 24, Type (0, 1), BuildingBlock: OJICUG_clean_linker_0, # of connection points: 2
#     Edge 25, Type (0, 1), BuildingBlock: OJICUG_clean_linker_0, # of connection points: 2
#     Edge 26, Type (0, 1), BuildingBlock: OJICUG_clean_linker_0, # of connection points: 2
#     Edge 27, Type (0, 1), BuildingBlock: OJICUG_clean_linker_0, # of connection points: 2
#     Edge 28, Type (0, 1), BuildingBlock: OJICUG_clean_linker_0, # of connection points: 2
#     Edge 29, Type (0, 1), BuildingBlock: OJICUG_clean_linker_0, # of connection points: 2
#     Edge 30, Type (0, 1), BuildingBlock: OJICUG_clean_linker_0, # of connection points: 2
#     Edge 31, Type (0, 1), BuildingBlock: OJICUG_clean_linker_0, # of connection points: 2
#     Edge 32, Type (0, 1), BuildingBlock: OJICUG_clean_linker_0, # of connection points: 2
#     Edge 33, Type (0, 1), BuildingBlock: OJICUG_clean_linker_0, # of connection points: 2
#     Edge 34, Type (0, 1), BuildingBlock: OJICUG_clean_linker_0, # of connection points: 2
#     Edge 35, Type (0, 1), BuildingBlock: OJICUG_clean_linker_0, # of connection points: 2
# Relax obj value: 0.011
# Max RMSD: 0.108
# Mean RMSD: 0.056
data_MOF--net-ssa--node1-ESEHIV_clean_sbu_0--node2-NAWXER_clean_linker_0--edge1-OJICUG_clean_linker_0
_symmetry_space_group_name_H-M    P1
_symmetry_Int_Tables_number       1
_symmetry_cell_setting            triclinic
loop_
_symmetry_equiv_pos_as_xyz
'x, y, z'
_cell_length_a     45.142563
_cell_length_b     48.900184
_cell_length_c     32.728318
_cell_angle_alpha  87.960832
_cell_angle_beta   90.713013
_cell_angle_gamma 122.91401
loop_
_atom_site_label
_atom_site_type_symbol
_atom_site_fract_x
_atom_site_fract_y
_atom_site_fract_z
_atom_type_partial_charge
Cu0 Cu 1.00343 0.51531 0.99361 0.0
N1 N 1.00832 0.49699 0.94723 0.0
N2 N 0.99388 0.45606 0.90631 0.0
C3 C 0.98591 0.46521 0.94062 0.0
C4 C 0.02251 0.48346 0.89029 0.0
C5 C 0.03155 0.50879 0.91587 0.0
O6 O 0.95894 0.51316 0.98533 0.0
C7 C 0.0358 0.49053 0.03658 0.0
O8 O 0.05646 0.5053 1.00461 0.0
H9 H 0.96372 0.44924 0.96061 0.0
H10 H 0.0535 0.53379 0.91198 0.0
N11 N 0.04047 0.55808 1.00185 0.0
N12 N 0.08142 0.59919 0.03881 0.0
C13 C 0.05237 0.56872 0.03954 0.0
C14 C 0.06249 0.58279 0.97596 0.0
C15 C 0.08779 0.60831 0.99875 0.0
C16 C 0.95787 0.5258 0.9509 0.0
O17 O 0.9865 0.54084 0.92799 0.0
H18 H 0.03998 0.55395 0.06701 0.0
H19 H 0.06087 0.58208 0.94299 0.0
O20 O 1.00771 0.49079 0.03964 0.0
H21 H 0.03611 0.48504 0.86245 0.0
H22 H 0.10976 0.6313 0.98665 0.0
Cu23 Cu 0.52254 0.0166 0.51167 0.0
N24 N 0.5454 0.01518 0.46504 0.0
N25 N 0.56381 0.99243 0.42239 0.0
C26 C 0.54806 0.98957 0.45847 0.0
C27 C 0.57134 0.02117 0.40545 0.0
C28 C 0.56 0.03519 0.43188 0.0
O29 O 0.47532 0.97794 0.50655 0.0
C30 C 0.58255 0.03895 0.55413 0.0
O31 O 0.59376 0.0556 0.51922 0.0
H32 H 0.53755 0.9687 0.47948 0.0
H33 H 0.56209 0.05814 0.42702 0.0
N34 N 0.52101 0.05405 0.51653 0.0
N35 N 0.51821 0.09254 0.54843 0.0
C36 C 0.51779 0.06471 0.55267 0.0
C37 C 0.52367 0.07594 0.48824 0.0
C38 C 0.52186 0.0996 0.50777 0.0
C39 C 0.46009 0.97958 0.47437 0.0
O40 O 0.47467 0.00776 0.45426 0.0
H41 H 0.51493 0.05198 0.58154 0.0
H42 H 0.52672 0.0749 0.45576 0.0
O43 O 0.54972 0.01745 0.5586 0.0
H44 H 0.58416 0.03139 0.37612 0.0
H45 H 0.52366 0.12062 0.49304 0.0
Cu46 Cu 0.50582 0.50817 0.04071 0.0
N47 N 0.50934 0.47171 0.03814 0.0
N48 N 0.51166 0.43223 0.0081 0.0
C49 C 0.50296 0.45467 1.00402 0.0
C50 C 0.52347 0.43508 0.04693 0.0
C51 C 0.52199 0.45935 0.06529 0.0
O52 O 0.515 0.52511 0.98466 0.0
C53 C 0.45349 0.48839 0.09856 0.0
O54 O 0.47747 0.4877 0.12093 0.0
H55 H 0.49251 0.45912 0.97656 0.0
H56 H 0.5306 0.46801 0.0958 0.0
N57 N 0.53891 0.54011 0.07562 0.0
N58 N 0.56494 0.58498 0.11259 0.0
C59 C 0.53799 0.56574 0.08758 0.0
C60 C 0.56745 0.54318 0.09378 0.0
C61 C 0.58346 0.57078 0.11683 0.0
C62 C 0.54348 0.55139 0.97352 0.0
O63 O 0.56105 0.57411 1.00025 0.0
H64 H 0.51784 0.57013 0.07805 0.0
H65 H 0.57627 0.5268 0.09021 0.0
O66 O 0.4595 0.49545 0.06048 0.0
H67 H 0.53373 0.42152 0.06088 0.0
H68 H 0.60729 0.58008 0.13455 0.0
Cu69 Cu 0.98626 0.49862 0.51304 0.0
N70 N 0.97431 0.4743 0.46617 0.0
N71 N 0.98583 0.45643 0.4105 0.0
C72 C 0.9962 0.48203 0.43427 0.0
C73 C 0.95528 0.43178 0.42736 0.0
C74 C 0.94812 0.44297 0.46164 0.0
O75 O 0.03299 0.53855 0.50402 0.0
C76 C 0.98059 0.44503 0.5605 0.0
O77 O 0.99534 0.44069 0.52918 0.0
H78 H 0.02128 0.50494 0.43098 0.0
H79 H 0.92732 0.42844 0.48386 0.0
N80 N 0.95505 0.51165 0.52024 0.0
N81 N 0.91724 0.51971 0.55226 0.0
C82 C 0.933 0.5029 0.5523 0.0
C83 C 0.95316 0.53469 0.49894 0.0
C84 C 0.92979 0.53976 0.51871 0.0
C85 C 0.06095 0.53997 0.49373 0.0
O86 O 0.06125 0.51323 0.49595 0.0
H87 H 0.93008 0.48585 0.5764 0.0
H88 H 0.96874 0.54774 0.47194 0.0
O89 O 0.97891 0.47023 0.56072 0.0
H90 H 0.94073 0.40684 0.41767 0.0
H91 H 0.92311 0.55725 0.50957 0.0
Cu92 Cu 0.53547 0.01727 0.05296 0.0
N93 N 0.5206 0.04608 0.04681 0.0
N94 N 0.50965 0.08104 0.01573 0.0
C95 C 0.52282 0.06231 0.01177 0.0
C96 C 0.49893 0.07673 0.05507 0.0
C97 C 0.5056 0.05495 0.07419 0.0
O98 O 0.5673 0.02565 1.00756 0.0
C99 C 0.46376 0.96292 0.06607 0.0
O100 O 0.45389 0.98127 0.04854 0.0
H101 H 0.53447 0.06092 0.98396 0.0
H102 H 0.49965 0.04601 0.10563 0.0
N103 N 0.56443 0.02656 0.09783 0.0
N104 N 0.59661 0.01638 0.14036 0.0
C105 C 0.58213 0.01188 0.10301 0.0
C106 C 0.56781 0.04134 0.13305 0.0
C107 C 0.58774 0.03502 0.15952 0.0
C108 C 0.56252 0.02409 0.96908 0.0
O109 O 0.53034 0.00985 0.95464 0.0
H110 H 0.58149 0.99565 0.08087 0.0
H111 H 0.55495 0.05393 0.13995 0.0
O112 O 0.49629 0.97259 0.06565 0.0
H113 H 0.48669 0.08806 0.06883 0.0
H114 H 0.59358 0.04214 0.191 0.0
Cu115 Cu 0.49357 0.49606 0.49534 0.0
N116 N 0.52144 0.52156 0.45078 0.0
N117 N 0.5487 0.56484 0.40763 0.0
C118 C 0.53462 0.55355 0.44526 0.0
C119 C 0.54436 0.53882 0.38867 0.0
C120 C 0.52752 0.5121 0.41547 0.0
O121 O 0.44628 0.48676 0.48444 0.0
C122 C 0.54929 0.53381 0.54926 0.0
O123 O 0.568 0.54169 0.5155 0.0
H124 H 0.53209 0.56784 0.46777 0.0
H125 H 0.51875 0.48726 0.409 0.0
N126 N 0.49023 0.45643 0.49924 0.0
N127 N 0.48917 0.41534 0.53302 0.0
C128 C 0.50259 0.44763 0.5312 0.0
C129 C 0.46864 0.4289 0.47934 0.0
C130 C 0.46809 0.40347 0.50001 0.0
C131 C 0.44048 0.50913 0.47641 0.0
O132 O 0.46556 0.5395 0.48296 0.0
H133 H 0.51949 0.46439 0.55405 0.0
H134 H 0.45236 0.42702 0.45369 0.0
O135 O 0.51564 0.51672 0.54701 0.0
H136 H 0.55166 0.53879 0.3573 0.0
H137 H 0.4513 0.37797 0.49302 0.0
C138 C 0.33972 0.49944 0.20933 0.0
C139 C 0.3337 0.47749 0.17879 0.0
C140 C 0.31141 0.4972 0.22977 0.0
C141 C 0.27652 0.47236 0.22089 0.0
C142 C 0.2988 0.45343 0.16887 0.0
C143 C 0.27051 0.45089 0.18974 0.0
C144 C 0.24601 0.46944 0.2421 0.0
C145 C 0.31199 0.46048 0.34122 0.0
C146 C 0.32337 0.48367 0.37183 0.0
C147 C 0.28606 0.45596 0.31313 0.0
C148 C 0.2713 0.4749 0.31453 0.0
C149 C 0.30763 0.50177 0.37386 0.0
C150 C 0.28196 0.4974 0.34568 0.0
C151 C 0.24374 0.47085 0.2852 0.0
C152 C 0.09273 0.43187 0.30389 0.0
C153 C 0.09622 0.45663 0.32799 0.0
C154 C 0.12264 0.43402 0.28847 0.0
C155 C 0.1565 0.46093 0.29694 0.0
C156 C 0.13021 0.48302 0.33749 0.0
C157 C 0.16012 0.48502 0.32231 0.0
C158 C 0.18789 0.46491 0.27722 0.0
C159 C 0.13072 0.48821 0.18485 0.0
C160 C 0.11278 0.46414 0.15566 0.0
C161 C 0.15631 0.48861 0.20982 0.0
C162 C 0.16447 0.46481 0.20655 0.0
C163 C 0.12117 0.44039 0.15234 0.0
C164 C 0.1469 0.44087 0.17734 0.0
C165 C 0.19064 0.46464 0.23444 0.0
H166 H 0.36636 0.51863 0.21705 0.0
H167 H 0.31685 0.51497 0.25237 0.0
H168 H 0.29339 0.43616 0.14552 0.0
H169 H 0.24384 0.43185 0.18184 0.0
H170 H 0.32352 0.44616 0.33845 0.0
H171 H 0.27762 0.43767 0.29031 0.0
H172 H 0.31499 0.51931 0.39743 0.0
H173 H 0.27063 0.51195 0.348 0.0
H174 H 0.06689 0.41126 0.2962 0.0
H175 H 0.11936 0.41498 0.26925 0.0
H176 H 0.13364 0.50212 0.35669 0.0
H177 H 0.18604 0.50589 0.32925 0.0
H178 H 0.12574 0.50738 0.18768 0.0
H179 H 0.16995 0.50773 0.23163 0.0
H180 H 0.1078 0.42134 0.13042 0.0
H181 H 0.15266 0.42222 0.17433 0.0
N182 N 0.21933 0.46642 0.21848 0.0
N183 N 0.21463 0.46849 0.30092 0.0
C184 C 0.90873 0.3156 0.81164 0.0
C185 C 0.90071 0.32969 0.84268 0.0
C186 C 0.88197 0.28698 0.79409 0.0
C187 C 0.84662 0.27265 0.80637 0.0
C188 C 0.86571 0.31406 0.85688 0.0
C189 C 0.83888 0.28575 0.83887 0.0
C190 C 0.81752 0.24526 0.784 0.0
C191 C 0.87114 0.33378 0.70111 0.0
C192 C 0.88763 0.33166 0.66617 0.0
C193 C 0.84705 0.30586 0.72432 0.0
C194 C 0.83969 0.275 0.71444 0.0
C195 C 0.87896 0.30046 0.65529 0.0
C196 C 0.85534 0.27254 0.67914 0.0
C197 C 0.81563 0.24548 0.74077 0.0
C198 C 0.67525 0.12947 0.70094 0.0
C199 C 0.68387 0.11128 0.67708 0.0
C200 C 0.70121 0.15541 0.72343 0.0
C201 C 0.73621 0.16373 0.72222 0.0
C202 C 0.71887 0.11915 0.6773 0.0
C203 C 0.74486 0.14542 0.69918 0.0
C204 C 0.76401 0.19156 0.74479 0.0
C205 C 0.69446 0.10778 0.83242 0.0
C206 C 0.68065 0.11589 0.86463 0.0
C207 C 0.72238 0.13229 0.80823 0.0
C208 C 0.73616 0.16547 0.81469 0.0
C209 C 0.69539 0.14897 0.87222 0.0
C210 C 0.7227 0.17343 0.84748 0.0
C211 C 0.76445 0.19218 0.78798 0.0
H212 H 0.9356 0.32691 0.80067 0.0
H213 H 0.88871 0.2767 0.7699 0.0
H214 H 0.85884 0.32449 0.88075 0.0
H215 H 0.81189 0.27495 0.84909 0.0
H216 H 0.87704 0.35709 0.71108 0.0
H217 H 0.83448 0.30854 0.75047 0.0
H218 H 0.89013 0.29742 0.62809 0.0
H219 H 0.84968 0.24903 0.67026 0.0
H220 H 0.64881 0.12458 0.70098 0.0
H221 H 0.69416 0.16943 0.74107 0.0
H222 H 0.72639 0.10537 0.65995 0.0
H223 H 0.77174 0.15138 0.6983 0.0
H224 H 0.68406 0.08248 0.82643 0.0
H225 H 0.73322 0.12516 0.78466 0.0
H226 H 0.68529 0.15592 0.89692 0.0
H227 H 0.73291 0.19868 0.85358 0.0
N228 N 0.79146 0.21906 0.80588 0.0
N229 N 0.78934 0.21821 0.72283 0.0
C230 C 0.62071 0.72089 0.21092 0.0
C231 C 0.59276 0.70327 0.18346 0.0
C232 C 0.62482 0.74766 0.23071 0.0
C233 C 0.6013 0.7576 0.22327 0.0
C234 C 0.57002 0.71416 0.17513 0.0
C235 C 0.57444 0.74117 0.19459 0.0
C236 C 0.60182 0.7823 0.24881 0.0
C237 C 0.55343 0.68706 0.31592 0.0
C238 C 0.57821 0.68789 0.3432 0.0
C239 C 0.5576 0.71594 0.30051 0.0
C240 C 0.58669 0.74617 0.31193 0.0
C241 C 0.60666 0.7183 0.35568 0.0
C242 C 0.6108 0.74721 0.34021 0.0
C243 C 0.59394 0.77645 0.29106 0.0
C244 C 0.56105 0.8779 0.31981 0.0
C245 C 0.58066 0.89418 0.35447 0.0
C246 C 0.56521 0.85473 0.30175 0.0
C247 C 0.58936 0.84748 0.31757 0.0
C248 C 0.60347 0.88561 0.37158 0.0
C249 C 0.60769 0.86237 0.35334 0.0
C250 C 0.59733 0.82656 0.29448 0.0
C251 C 0.64297 0.92309 0.23584 0.0
C252 C 0.62512 0.92254 0.20023 0.0
C253 C 0.63959 0.89454 0.25126 0.0
C254 C 0.61715 0.86475 0.23223 0.0
C255 C 0.6052 0.89335 0.17922 0.0
C256 C 0.60118 0.86462 0.19517 0.0
C257 C 0.60785 0.83357 0.25284 0.0
H258 H 0.63927 0.71385 0.21755 0.0
H259 H 0.64579 0.76007 0.25274 0.0
H260 H 0.54788 0.70112 0.15476 0.0
H261 H 0.55573 0.7482 0.1888 0.0
H262 H 0.5308 0.66408 0.30642 0.0
H263 H 0.53861 0.71472 0.27884 0.0
H264 H 0.62628 0.71977 0.37649 0.0
H265 H 0.63356 0.77038 0.34905 0.0
H266 H 0.5426 0.88322 0.30639 0.0
H267 H 0.5503 0.84313 0.27453 0.0
H268 H 0.61903 0.89769 0.39821 0.0
H269 H 0.62642 0.85713 0.36608 0.0
H270 H 0.6588 0.9454 0.25222 0.0
H271 H 0.65317 0.89543 0.27918 0.0
H272 H 0.59113 0.89238 0.15168 0.0
H273 H 0.58404 0.84202 0.1798 0.0
N274 N 0.60873 0.81079 0.23111 0.0
N275 N 0.59156 0.79855 0.31248 0.0
C276 C 0.83928 0.53836 0.70803 0.0
C277 C 0.82688 0.51421 0.6787 0.0
C278 C 0.81591 0.53802 0.73604 0.0
C279 C 0.7798 0.51358 0.735 0.0
C280 C 0.79091 0.48925 0.67864 0.0
C281 C 0.76756 0.48914 0.70628 0.0
C282 C 0.75404 0.51566 0.75976 0.0
C283 C 0.81643 0.49239 0.84445 0.0
C284 C 0.83445 0.51454 0.87565 0.0
C285 C 0.79037 0.49306 0.82167 0.0
C286 C 0.78228 0.51655 0.82862 0.0
C287 C 0.82491 0.53672 0.88439 0.0
C288 C 0.79912 0.53772 0.8611 0.0
C289 C 0.75602 0.5188 0.8028 0.0
C290 C 0.62153 0.51543 0.83392 0.0
C291 C 0.63339 0.53941 0.86344 0.0
C292 C 0.645 0.5097 0.81488 0.0
C293 C 0.68129 0.52888 0.82318 0.0
C294 C 0.6696 0.55753 0.87314 0.0
C295 C 0.69327 0.55242 0.85305 0.0
C296 C 0.70672 0.52477 0.80039 0.0
C297 C 0.65688 0.55705 0.70526 0.0
C298 C 0.63225 0.53109 0.68132 0.0
C299 C 0.68035 0.55395 0.73034 0.0
C300 C 0.67996 0.525 0.73144 0.0
C301 C 0.63169 0.50203 0.68284 0.0
C302 C 0.65565 0.49919 0.70724 0.0
C303 C 0.705 0.52163 0.75755 0.0
H304 H 0.86693 0.55778 0.70885 0.0
H305 H 0.8258 0.55748 0.75744 0.0
H306 H 0.78058 0.47053 0.65613 0.0
H307 H 0.73971 0.47033 0.70464 0.0
H308 H 0.82273 0.47461 0.83745 0.0
H309 H 0.77672 0.47523 0.7984 0.0
H310 H 0.83835 0.55415 0.90817 0.0
H311 H 0.79308 0.55573 0.86776 0.0
H312 H 0.59408 0.50101 0.82519 0.0
H313 H 0.63467 0.49032 0.79334 0.0
H314 H 0.67977 0.57543 0.89663 0.0
H315 H 0.72104 0.56715 0.86055 0.0
H316 H 0.658 0.57976 0.70448 0.0
H317 H 0.69908 0.57426 0.74855 0.0
H318 H 0.61338 0.48183 0.66421 0.0
H319 H 0.65499 0.4767 0.70755 0.0
N320 N 0.72856 0.51701 0.73904 0.0
N321 N 0.73228 0.52347 0.82137 0.0
C322 C 0.17762 0.66044 0.205 0.0
C323 C 0.16041 0.67115 0.17913 0.0
C324 C 0.19967 0.68005 0.23629 0.0
C325 C 0.20481 0.71062 0.24214 0.0
C326 C 0.16408 0.70092 0.18692 0.0
C327 C 0.18626 0.72052 0.21781 0.0
C328 C 0.23392 0.73499 0.26748 0.0
C329 C 0.15164 0.66241 0.35961 0.0
C330 C 0.16388 0.64909 0.38897 0.0
C331 C 0.17524 0.68828 0.33306 0.0
C332 C 0.21171 0.70142 0.33506 0.0
C333 C 0.20036 0.66213 0.39066 0.0
C334 C 0.22394 0.6881 0.36429 0.0
C335 C 0.23762 0.73085 0.3099 0.0
C336 C 0.33618 0.867 0.35659 0.0
C337 C 0.35907 0.86546 0.38485 0.0
C338 C 0.31482 0.84106 0.33142 0.0
C339 C 0.31519 0.81258 0.33426 0.0
C340 C 0.35911 0.83664 0.38792 0.0
C341 C 0.33701 0.81029 0.36318 0.0
C342 C 0.29019 0.78449 0.30958 0.0
C343 C 0.37375 0.84613 0.21109 0.0
C344 C 0.36435 0.86315 0.18369 0.0
C345 C 0.34939 0.82301 0.2398 0.0
C346 C 0.31476 0.81572 0.24138 0.0
C347 C 0.32982 0.85646 0.18671 0.0
C348 C 0.30525 0.83268 0.21462 0.0
C349 C 0.28743 0.78765 0.26693 0.0
H350 H 0.17556 0.63773 0.19975 0.0
H351 H 0.21429 0.67224 0.25421 0.0
H352 H 0.15056 0.70958 0.16839 0.0
H353 H 0.19002 0.74413 0.22172 0.0
H354 H 0.12374 0.65289 0.35716 0.0
H355 H 0.16496 0.69857 0.31185 0.0
H356 H 0.21085 0.65283 0.41311 0.0
H357 H 0.25193 0.698 0.36697 0.0
H358 H 0.33436 0.88817 0.35406 0.0
H359 H 0.29725 0.84295 0.31035 0.0
H360 H 0.37653 0.83455 0.40895 0.0
H361 H 0.33723 0.78827 0.36631 0.0
H362 H 0.39957 0.84973 0.20972 0.0
H363 H 0.35716 0.80973 0.25953 0.0
H364 H 0.32143 0.86942 0.16742 0.0
H365 H 0.27861 0.82736 0.21514 0.0
N366 N 0.25917 0.76298 0.24779 0.0
N367 N 0.26556 0.75609 0.32933 0.0
C368 C 0.48709 0.15411 0.85592 0.0
C369 C 0.51125 0.16578 0.88832 0.0
C370 C 0.48753 0.17577 0.82642 0.0
C371 C 0.51256 0.20944 0.82845 0.0
C372 C 0.53678 0.19933 0.88966 0.0
C373 C 0.53739 0.22089 0.86009 0.0
C374 C 0.50997 0.2333 0.80207 0.0
C375 C 0.53093 0.17923 0.70737 0.0
C376 C 0.50574 0.16512 0.67605 0.0
C377 C 0.52914 0.19903 0.73601 0.0
C378 C 0.50197 0.205 0.7342 0.0
C379 C 0.47798 0.17034 0.67526 0.0
C380 C 0.47628 0.19013 0.70373 0.0
C381 C 0.50247 0.22987 0.75982 0.0
C382 C 0.52032 0.35337 0.69887 0.0
C383 C 0.49316 0.33992 0.66973 0.0
C384 C 0.52142 0.33359 0.7301 0.0
C385 C 0.4952 0.30015 0.73286 0.0
C386 C 0.46617 0.30678 0.67384 0.0
C387 C 0.46728 0.28713 0.70493 0.0
C388 C 0.49954 0.27744 0.75925 0.0
C389 C 0.48665 0.33825 0.85187 0.0
C390 C 0.51144 0.35047 0.88374 0.0
C391 C 0.48598 0.31675 0.82388 0.0
C392 C 0.51056 0.3075 0.82665 0.0
C393 C 0.53636 0.3417 0.88587 0.0
C394 C 0.53592 0.32057 0.85779 0.0
C395 C 0.50789 0.2814 0.80132 0.0
H396 H 0.46689 0.12838 0.85435 0.0
H397 H 0.46727 0.16629 0.80329 0.0
H398 H 0.55608 0.20898 0.91391 0.0
H399 H 0.5568 0.24675 0.86257 0.0
H400 H 0.55292 0.17613 0.70875 0.0
H401 H 0.54992 0.21083 0.75836 0.0
H402 H 0.45769 0.15943 0.65223 0.0
H403 H 0.45511 0.19437 0.70141 0.0
H404 H 0.54161 0.3788 0.69637 0.0
H405 H 0.54372 0.34405 0.7506 0.0
H406 H 0.44452 0.29583 0.65245 0.0
H407 H 0.44686 0.26135 0.7063 0.0
H408 H 0.46684 0.34423 0.84959 0.0
H409 H 0.46527 0.30636 0.80131 0.0
H410 H 0.55613 0.35097 0.90961 0.0
H411 H 0.55514 0.3139 0.86098 0.0
N412 N 0.51258 0.25897 0.82074 0.0
N413 N 0.49732 0.25199 0.7405 0.0
C414 C 0.0456 0.48118 0.11039 0.0
C415 C 0.04821 0.47704 0.06866 0.0
H416 H 0.06383 0.4801 0.171 0.0
C417 C 0.06881 0.4651 0.05666 0.0
H418 H 0.03026 0.49074 0.12042 0.0
C419 C 0.0882 0.45936 0.08521 0.0
C420 C 0.0877 0.46552 0.1267 0.0
H421 H 0.07141 0.46177 0.02464 0.0
H422 H 0.10527 0.45197 0.07419 0.0
C423 C 0.06528 0.47555 0.13918 0.0
C424 C 0.5964 0.04917 0.62862 0.0
C425 C 0.60745 0.05001 0.58844 0.0
H426 H 0.61213 0.06766 0.68884 0.0
C427 C 0.64368 0.06709 0.57951 0.0
H428 H 0.56857 0.03629 0.63622 0.0
C429 C 0.66843 0.08538 0.60908 0.0
C430 C 0.6576 0.0869 0.64854 0.0
H431 H 0.65292 0.06804 0.54877 0.0
H432 H 0.69593 0.1001 0.59993 0.0
C433 C 0.62134 0.06753 0.6585 0.0
C434 C 0.587 0.6233 0.16935 0.0
C435 C 0.57267 0.61486 0.13003 0.0
H436 H 0.60345 0.65694 0.21755 0.0
C437 C 0.56571 0.63593 0.10802 0.0
H438 H 0.59227 0.60733 0.18717 0.0
C439 C 0.57284 0.66479 0.12493 0.0
C440 C 0.58661 0.67313 0.16465 0.0
H441 H 0.55518 0.6303 0.07739 0.0
H442 H 0.56775 0.68066 0.10662 0.0
C443 C 0.5936 0.65191 0.18661 0.0
C444 C 0.89501 0.54639 0.59345 0.0
C445 C 0.89439 0.51834 0.58368 0.0
H446 H 0.8744 0.56712 0.63156 0.0
C447 C 0.87183 0.48904 0.60587 0.0
H448 H 0.91243 0.56937 0.57722 0.0
C449 C 0.85014 0.48775 0.63697 0.0
C450 C 0.85087 0.51582 0.64683 0.0
H451 H 0.87067 0.46702 0.59885 0.0
H452 H 0.8329 0.46481 0.65345 0.0
C453 C 0.87361 0.54519 0.62489 0.0
C454 C 0.45073 0.92786 0.12964 0.0
C455 C 0.43867 0.93502 0.09355 0.0
H456 H 0.43745 0.90139 0.18684 0.0
C457 C 0.40221 0.91761 0.08644 0.0
H458 H 0.47866 0.94127 0.13646 0.0
C459 C 0.37833 0.89379 0.11489 0.0
C460 C 0.39013 0.8874 0.15204 0.0
H461 H 0.39209 0.92254 0.05889 0.0
H462 H 0.35057 0.88054 0.10754 0.0
C463 C 0.42686 0.90475 0.15866 0.0
C464 C 0.48406 0.36535 0.56166 0.0
C465 C 0.49186 0.397 0.56686 0.0
H466 H 0.47881 0.32274 0.58984 0.0
C467 C 0.50105 0.41 0.60617 0.0
H468 H 0.47739 0.35473 0.53187 0.0
C469 C 0.50193 0.39172 0.63938 0.0
C470 C 0.49343 0.35988 0.63426 0.0
H471 H 0.50662 0.43398 0.61185 0.0
H472 H 0.50836 0.40222 0.66929 0.0
C473 C 0.48482 0.34701 0.59495 0.0
C474 C 0.57268 0.94676 0.43101 0.0
C475 C 0.56961 0.96881 0.40532 0.0
H476 H 0.57831 0.90598 0.43537 0.0
C477 C 0.57122 0.96665 0.36278 0.0
H478 H 0.57205 0.94795 0.46391 0.0
C479 C 0.57505 0.94265 0.3464 0.0
C480 C 0.57754 0.92027 0.3721 0.0
H481 H 0.56874 0.98302 0.34206 0.0
H482 H 0.57611 0.94169 0.3135 0.0
C483 C 0.57665 0.92286 0.41464 0.0
C484 C 0.59632 0.57792 0.92709 0.0
C485 C 0.56275 0.55077 0.93764 0.0
H486 H 0.6445 0.59608 0.89424 0.0
C487 C 0.55076 0.52117 0.91875 0.0
H488 H 0.60619 0.60123 0.94062 0.0
C489 C 0.57323 0.51774 0.89374 0.0
C490 C 0.60794 0.54422 0.88563 0.0
H491 H 0.52486 0.49986 0.92556 0.0
H492 H 0.56379 0.49371 0.88288 0.0
C493 C 0.61854 0.57476 0.90103 0.0
C494 C 0.11822 0.56989 0.45386 0.0
C495 C 0.08943 0.56945 0.47074 0.0
H496 H 0.16387 0.59489 0.41468 0.0
C497 C 0.08626 0.59614 0.46183 0.0
H498 H 0.12145 0.54972 0.45971 0.0
C499 C 0.11052 0.62199 0.43578 0.0
C500 C 0.13878 0.62203 0.418 0.0
H501 H 0.06445 0.59672 0.47413 0.0
H502 H 0.10705 0.64197 0.42948 0.0
C503 C 0.1426 0.59585 0.42794 0.0
C504 C 0.51138 0.13077 0.99367 0.0
C505 C 0.50813 0.1015 0.98412 0.0
H506 H 0.51498 0.17408 0.97079 0.0
C507 C 0.50468 0.09299 0.94292 0.0
H508 H 0.51424 0.13802 0.02507 0.0
C509 C 0.50516 0.11358 0.91187 0.0
C510 C 0.50939 0.14327 0.92132 0.0
H511 H 0.50163 0.07036 0.93465 0.0
H512 H 0.50299 0.10659 0.8804 0.0
C513 C 0.51218 0.15153 0.96256 0.0
C514 C 0.40493 0.5274 0.43903 0.0
C515 C 0.40847 0.50184 0.45329 0.0
H516 H 0.37628 0.54196 0.40178 0.0
C517 C 0.38288 0.46992 0.44191 0.0
H518 H 0.42422 0.55234 0.44681 0.0
C519 C 0.35501 0.46387 0.4161 0.0
C520 C 0.35203 0.4896 0.40092 0.0
H521 H 0.38476 0.44962 0.45222 0.0
H522 H 0.33586 0.439 0.40795 0.0
C523 C 0.37723 0.52139 0.41317 0.0
C524 C 0.97277 0.41921 0.84798 0.0
C525 C 0.97423 0.42383 0.89026 0.0
H526 H 0.94809 0.3855 0.79967 0.0
C527 C 0.954 0.39654 0.91677 0.0
H528 H 0.98792 0.43971 0.82679 0.0
C529 C 0.93109 0.36575 0.90133 0.0
C530 C 0.92823 0.36143 0.85905 0.0
H531 H 0.95526 0.39905 0.94957 0.0
H532 H 0.91505 0.34538 0.92245 0.0
C533 C 0.94997 0.38822 0.83249 0.0
C534 C 0.92098 0.52026 0.89073 0.0
C535 C 0.92488 0.52113 0.93347 0.0
H536 H 0.88963 0.51726 0.83946 0.0
C537 C 0.89809 0.5189 0.95772 0.0
H538 H 0.94098 0.52174 0.87107 0.0
C539 C 0.86857 0.51684 0.93925 0.0
C540 C 0.86496 0.51607 0.89636 0.0
H541 H 0.90042 0.51963 0.99069 0.0
H542 H 0.84852 0.5157 0.95843 0.0
C543 C 0.8914 0.5175 0.87251 0.0
C544 C 0.41712 0.91853 0.47185 0.0
C545 C 0.43159 0.95 0.45436 0.0
H546 H 0.38229 0.86706 0.46416 0.0
C547 C 0.4211 0.95324 0.41482 0.0
H548 H 0.42477 0.9152 0.50219 0.0
C549 C 0.3978 0.92593 0.39271 0.0
C550 C 0.38346 0.89433 0.40966 0.0
H551 H 0.43186 0.97701 0.40004 0.0
H552 H 0.39191 0.92981 0.36169 0.0
C553 C 0.39313 0.89095 0.44979 0.0
C554 C 0.50679 0.41695 0.93513 0.0
C555 C 0.51073 0.41131 0.97688 0.0
H556 H 0.50396 0.40244 0.87327 0.0
C557 C 0.51434 0.38507 0.98736 0.0
H558 H 0.50442 0.437 0.92531 0.0
C559 C 0.51448 0.36548 0.95722 0.0
C560 C 0.51072 0.37127 0.91564 0.0
H561 H 0.51688 0.37938 0.01891 0.0
H562 H 0.51715 0.34547 0.96661 0.0
C563 C 0.50659 0.3971 0.90502 0.0
C564 C 0.03529 0.48239 0.36125 0.0
C565 C 1.00891 0.45426 0.38272 0.0
H566 H 0.08363 0.50518 0.32711 0.0
C567 C 1.00926 0.4257 0.38179 0.0
H568 H 0.0354 0.50459 0.36091 0.0
C569 C 0.03687 0.42604 0.36239 0.0
C570 C 0.06464 0.45493 0.34374 0.0
H571 H 0.98959 0.40373 0.39834 0.0
H572 H 0.03752 0.4042 0.36404 0.0
C573 C 0.06297 0.48279 0.34215 0.0
C574 C 0.59062 0.0434 0.89886 0.0
C575 C 0.59366 0.04464 0.94171 0.0
H576 H 0.61603 0.06474 0.84077 0.0
C577 C 0.62634 0.0682 0.95858 0.0
H578 H 0.56588 0.02567 0.88483 0.0
C579 C 0.6546 0.09082 0.93348 0.0
C580 C 0.65128 0.09015 0.8908 0.0
H581 H 0.6298 0.07009 0.99139 0.0
H582 H 0.67903 0.10919 0.9475 0.0
C583 C 0.61929 0.06574 0.87364 0.0
C584 C 0.57338 0.6234 0.41568 0.0
C585 C 0.56026 0.59664 0.39026 0.0
H586 H 0.58884 0.67291 0.42102 0.0
C587 C 0.55575 0.60091 0.34847 0.0
H588 H 0.57771 0.62106 0.44786 0.0
C589 C 0.56253 0.63081 0.33294 0.0
C590 C 0.57397 0.65707 0.35886 0.0
H591 H 0.54558 0.58082 0.32807 0.0
H592 H 0.55826 0.63321 0.30072 0.0
C593 C 0.58009 0.65323 0.40021 0.0
C594 C 0.52362 0.10762 0.62132 0.0
C595 C 0.51527 0.11073 0.58048 0.0
H596 H 0.52695 0.12186 0.68331 0.0
C597 C 0.50389 0.13195 0.57156 0.0
H598 H 0.53288 0.09189 0.62948 0.0
C599 C 0.50085 0.14942 0.60244 0.0
C600 C 0.50903 0.14623 0.6433 0.0
H601 H 0.49693 0.1349 0.54072 0.0
H602 H 0.49243 0.16579 0.59407 0.0
C603 C 0.52059 0.12515 0.65226 0.0
C604 C 0.3938 0.48101 0.09552 0.0
C605 C 0.42194 0.4842 0.11856 0.0
H606 H 0.34362 0.47622 0.09657 0.0
C607 C 0.42045 0.48462 0.16143 0.0
H608 H 0.39419 0.48065 0.06246 0.0
C609 C 0.39185 0.48248 0.1808 0.0
C610 C 0.36381 0.47946 0.15784 0.0
H611 H 0.4417 0.48714 0.18016 0.0
H612 H 0.39156 0.48299 0.21386 0.0
C613 C 0.36486 0.4784 0.11502 0.0
C614 C 0.96406 0.39148 0.59462 0.0
C615 C 0.95958 0.41774 0.59082 0.0
H616 H 0.94603 0.3445 0.622 0.0
C617 C 0.93221 0.41606 0.61319 0.0
H618 H 0.98488 0.39195 0.57784 0.0
C619 C 0.90915 0.3884 0.63753 0.0
C620 C 0.9131 0.36171 0.64096 0.0
H621 H 0.92756 0.43557 0.6106 0.0
H622 H 0.88752 0.38768 0.65256 0.0
C623 C 0.94137 0.36399 0.61962 0.0
C624 C 0.62535 0.98613 0.13153 0.0
C625 C 0.61085 0.99834 0.15753 0.0
H626 H 0.64098 0.95225 0.12468 0.0
C627 C 0.60616 0.98882 0.19921 0.0
H628 H 0.6302 0.99361 0.09952 0.0
C629 C 0.6131 0.9656 0.21371 0.0
C630 C 0.62452 0.95137 0.18674 0.0
H631 H 0.59497 0.99761 0.22006 0.0
H632 H 0.60735 0.95722 0.24542 0.0
C633 C 0.63168 0.96258 0.14586 0.0
C634 C 0.60346 0.56217 0.59185 0.0
C635 C 0.56759 0.53733 0.58852 0.0
H636 H 0.65183 0.57984 0.62421 0.0
C637 C 0.55199 0.51263 0.61931 0.0
H638 H 0.61623 0.58148 0.56854 0.0
C639 C 0.57268 0.51116 0.65058 0.0
C640 C 0.60905 0.53497 0.65235 0.0
H641 H 0.52444 0.49312 0.61758 0.0
H642 H 0.56053 0.49081 0.67255 0.0
C643 C 0.62388 0.5612 0.62366 0.0
C644 C 0.12326 0.65139 0.07155 0.0
C645 C 0.10175 0.61721 0.07369 0.0
H646 H 0.15888 0.69508 0.10267 0.0
C647 C 0.10013 0.60083 0.11076 0.0
H648 H 0.12511 0.66482 0.04367 0.0
C649 C 0.11905 0.6182 0.1449 0.0
C650 C 0.1402 0.65241 0.14289 0.0
H651 H 0.08444 0.5745 0.11349 0.0
H652 H 0.11674 0.6048 0.17302 0.0
C653 C 0.14228 0.66876 0.10566 0.0
loop_
_geom_bond_atom_site_label_1
_geom_bond_atom_site_label_2
_geom_bond_distance
_geom_bond_site_symmetry_2
_ccdc_geom_bond_type
Cu0 N1 1.999 1_554 S
Cu0 O6 1.984 1_554 S
Cu0 N11 1.984 1_655 S
Cu0 O20 1.949 1_655 S
N1 Cu0 1.999 1_556 S
N1 C3 1.263 . S
N1 C5 1.389 1_556 S
N2 C3 1.358 . S
N2 C4 1.400 . S
C3 N1 1.263 . S
C3 N2 1.358 . S
C3 H9 0.930 . S
C4 N2 1.400 . S
C4 C5 1.351 1_556 S
C4 H21 0.930 . S
C5 N1 1.389 1_554 S
C5 C4 1.351 1_554 S
C5 H10 0.930 . S
O6 Cu0 1.984 1_556 S
O6 C16 1.282 . S
C7 O8 1.261 1_554 S
C7 O20 1.251 . S
O8 C7 1.261 1_556 S
H9 C3 0.930 . S
H10 C5 0.930 . S
N11 Cu0 1.984 1_455 S
N11 C13 1.335 . S
N11 C14 1.390 . S
N12 C13 1.345 . S
N12 C15 1.336 . S
C13 N11 1.335 . S
C13 N12 1.345 . S
C13 H18 0.930 . S
C14 N11 1.390 . S
C14 C15 1.346 . S
C14 H19 0.930 1_554 S
C15 N12 1.336 . S
C15 C14 1.346 . S
C15 H22 0.929 . S
C16 O6 1.282 . S
C16 O17 1.216 1_655 S
O17 C16 1.216 1_455 S
H18 C13 0.930 . S
H19 C14 0.930 1_556 S
O20 Cu0 1.949 1_455 S
O20 C7 1.251 . S
H21 C4 0.930 . S
H22 C15 0.929 . S
Cu23 N24 1.999 . S
Cu23 O29 1.974 . S
Cu23 N34 1.985 1_565 S
Cu23 O43 1.959 1_565 S
N24 Cu23 1.999 . S
N24 C26 1.263 . S
N24 C28 1.389 . S
N25 C26 1.358 . S
N25 C27 1.400 . S
C26 N24 1.263 . S
C26 N25 1.358 . S
C26 H32 0.930 . S
C27 N25 1.400 . S
C27 C28 1.351 . S
C27 H44 0.930 . S
C28 N24 1.389 . S
C28 C27 1.351 . S
C28 H33 0.930 . S
O29 Cu23 1.974 . S
O29 C39 1.282 . S
C30 O31 1.261 . S
C30 O43 1.251 . S
O31 C30 1.261 . S
H32 C26 0.930 . S
H33 C28 0.930 . S
N34 Cu23 1.985 1_545 S
N34 C36 1.335 . S
N34 C37 1.390 . S
N35 C36 1.345 . S
N35 C38 1.336 . S
C36 N34 1.335 . S
C36 N35 1.345 . S
C36 H41 0.930 . S
C37 N34 1.390 . S
C37 C38 1.346 . S
C37 H42 0.930 . S
C38 N35 1.336 . S
C38 C37 1.346 . S
C38 H45 0.929 . S
C39 O29 1.282 . S
C39 O40 1.216 . S
O40 C39 1.216 . S
H41 C36 0.930 . S
H42 C37 0.930 . S
O43 Cu23 1.959 1_545 S
O43 C30 1.251 . S
H44 C27 0.930 . S
H45 C38 0.929 . S
Cu46 N47 1.999 1_554 S
Cu46 O52 1.974 1_554 S
Cu46 N57 1.985 . S
Cu46 O66 1.959 . S
N47 Cu46 1.999 1_556 S
N47 C49 1.263 . S
N47 C51 1.389 . S
N48 C49 1.358 . S
N48 C50 1.400 . S
C49 N47 1.263 . S
C49 N48 1.358 . S
C49 H55 0.930 . S
C50 N48 1.400 . S
C50 C51 1.351 . S
C50 H67 0.930 . S
C51 N47 1.389 . S
C51 C50 1.351 . S
C51 H56 0.930 . S
O52 Cu46 1.974 1_556 S
O52 C62 1.282 . S
C53 O54 1.261 . S
C53 O66 1.251 . S
O54 C53 1.261 . S
H55 C49 0.930 . S
H56 C51 0.930 . S
N57 Cu46 1.985 . S
N57 C59 1.335 . S
N57 C60 1.390 . S
N58 C59 1.345 . S
N58 C61 1.336 . S
C59 N57 1.335 . S
C59 N58 1.345 . S
C59 H64 0.930 . S
C60 N57 1.390 . S
C60 C61 1.346 . S
C60 H65 0.930 . S
C61 N58 1.336 . S
C61 C60 1.346 . S
C61 H68 0.929 . S
C62 O52 1.282 . S
C62 O63 1.216 1_556 S
O63 C62 1.216 1_554 S
H64 C59 0.930 . S
H65 C60 0.930 . S
O66 Cu46 1.959 . S
O66 C53 1.251 . S
H67 C50 0.930 . S
H68 C61 0.929 . S
Cu69 N70 1.999 1_655 S
Cu69 O75 1.974 1_655 S
Cu69 N80 1.985 . S
Cu69 O89 1.959 . S
N70 Cu69 1.999 1_455 S
N70 C72 1.263 . S
N70 C74 1.389 1_455 S
N71 C72 1.358 . S
N71 C73 1.400 . S
C72 N70 1.263 . S
C72 N71 1.358 . S
C72 H78 0.930 . S
C73 N71 1.400 . S
C73 C74 1.351 1_455 S
C73 H90 0.930 . S
C74 N70 1.389 1_655 S
C74 C73 1.351 1_655 S
C74 H79 0.930 . S
O75 Cu69 1.974 1_455 S
O75 C85 1.282 . S
C76 O77 1.258 1_655 S
C76 O89 1.251 . S
O77 C76 1.258 1_455 S
H78 C72 0.930 . S
H79 C74 0.930 . S
N80 Cu69 1.985 . S
N80 C82 1.335 . S
N80 C83 1.390 . S
N81 C82 1.345 . S
N81 C84 1.336 . S
C82 N80 1.335 . S
C82 N81 1.345 . S
C82 H87 0.930 . S
C83 N80 1.390 . S
C83 C84 1.346 . S
C83 H88 0.930 1_655 S
C84 N81 1.336 . S
C84 C83 1.346 . S
C84 H91 0.929 . S
C85 O75 1.282 . S
C85 O86 1.216 . S
O86 C85 1.216 . S
H87 C82 0.930 . S
H88 C83 0.930 1_455 S
O89 Cu69 1.959 . S
O89 C76 1.251 . S
H90 C73 0.930 . S
H91 C84 0.929 . S
Cu92 N93 1.999 . S
Cu92 O98 1.974 1_554 S
Cu92 N103 1.985 1_545 S
Cu92 O112 1.959 1_545 S
N93 Cu92 1.999 . S
N93 C95 1.263 1_554 S
N93 C97 1.389 . S
N94 C95 1.358 . S
N94 C96 1.400 1_556 S
C95 N93 1.263 1_556 S
C95 N94 1.358 . S
C95 H101 0.930 . S
C96 N94 1.400 1_554 S
C96 C97 1.351 . S
C96 H113 0.930 . S
C97 N93 1.389 . S
C97 C96 1.351 . S
C97 H102 0.930 . S
O98 Cu92 1.974 1_556 S
O98 C108 1.282 . S
C99 O100 1.261 . S
C99 O112 1.251 . S
O100 C99 1.261 . S
H101 C95 0.930 . S
H102 C97 0.930 . S
N103 Cu92 1.985 1_565 S
N103 C105 1.335 . S
N103 C106 1.390 . S
N104 C105 1.345 . S
N104 C107 1.336 . S
C105 N103 1.335 . S
C105 N104 1.345 . S
C105 H110 0.930 . S
C106 N103 1.390 . S
C106 C107 1.346 . S
C106 H111 0.931 . S
C107 N104 1.336 . S
C107 C106 1.346 . S
C107 H114 0.929 . S
C108 O98 1.282 . S
C108 O109 1.216 . S
O109 C108 1.216 . S
H110 C105 0.930 . S
H111 C106 0.931 . S
O112 Cu92 1.959 1_565 S
O112 C99 1.251 . S
H113 C96 0.930 . S
H114 C107 0.929 . S
Cu115 N116 1.999 . S
Cu115 O121 1.974 . S
Cu115 N126 1.985 . S
Cu115 O135 1.959 . S
N116 Cu115 1.999 . S
N116 C118 1.263 . S
N116 C120 1.389 . S
N117 C118 1.358 . S
N117 C119 1.400 . S
C118 N116 1.263 . S
C118 N117 1.358 . S
C118 H124 0.930 . S
C119 N117 1.400 . S
C119 C120 1.351 . S
C119 H136 0.930 . S
C120 N116 1.389 . S
C120 C119 1.351 . S
C120 H125 0.930 . S
O121 Cu115 1.974 . S
O121 C131 1.282 . S
C122 O123 1.261 . S
C122 O135 1.251 . S
O123 C122 1.261 . S
H124 C118 0.930 . S
H125 C120 0.930 . S
N126 Cu115 1.985 . S
N126 C128 1.335 . S
N126 C129 1.390 . S
N127 C128 1.345 . S
N127 C130 1.336 . S
C128 N126 1.335 . S
C128 N127 1.345 . S
C128 H133 0.930 . S
C129 N126 1.390 . S
C129 C130 1.346 . S
C129 H134 0.930 . S
C130 N127 1.336 . S
C130 C129 1.346 . S
C130 H137 0.929 . S
C131 O121 1.282 . S
C131 O132 1.216 . S
O132 C131 1.216 . S
H133 C128 0.930 . S
H134 C129 0.930 . S
O135 Cu115 1.959 . S
O135 C122 1.251 . S
H136 C119 0.930 . S
H137 C130 0.929 . S
C138 C139 1.384 . S
C138 C140 1.384 . S
C138 H166 0.931 . S
C139 C138 1.384 . S
C139 C142 1.382 . S
C140 C138 1.384 . S
C140 C141 1.381 . S
C140 H167 0.930 . S
C141 C140 1.381 . S
C141 C143 1.381 . S
C141 C144 1.487 . S
C142 C139 1.382 . S
C142 C143 1.387 . S
C142 H168 0.930 . S
C143 C141 1.381 . S
C143 C142 1.387 . S
C143 H169 0.931 . S
C144 C141 1.487 . S
C144 C151 1.399 . S
C144 N182 1.343 . S
C145 C146 1.384 . S
C145 C147 1.384 . S
C145 H170 0.931 . S
C146 C145 1.384 . S
C146 C149 1.382 . S
C147 C145 1.384 . S
C147 C148 1.381 . S
C147 H171 0.930 . S
C148 C147 1.381 . S
C148 C150 1.381 . S
C148 C151 1.487 . S
C149 C146 1.382 . S
C149 C150 1.387 . S
C149 H172 0.930 . S
C150 C148 1.381 . S
C150 C149 1.387 . S
C150 H173 0.931 . S
C151 C144 1.399 . S
C151 C148 1.487 . S
C151 N183 1.343 . S
C152 C153 1.384 . S
C152 C154 1.384 . S
C152 H174 0.931 . S
C153 C152 1.384 . S
C153 C156 1.382 . S
C154 C152 1.384 . S
C154 C155 1.381 . S
C154 H175 0.930 . S
C155 C154 1.381 . S
C155 C157 1.381 . S
C155 C158 1.487 . S
C156 C153 1.382 . S
C156 C157 1.387 . S
C156 H176 0.930 . S
C157 C155 1.381 . S
C157 C156 1.387 . S
C157 H177 0.931 . S
C158 C155 1.487 . S
C158 C165 1.399 . S
C158 N183 1.343 . S
C159 C160 1.384 . S
C159 C161 1.384 . S
C159 H178 0.931 . S
C160 C159 1.384 . S
C160 C163 1.382 . S
C161 C159 1.384 . S
C161 C162 1.381 . S
C161 H179 0.930 . S
C162 C161 1.381 . S
C162 C164 1.381 . S
C162 C165 1.487 . S
C163 C160 1.382 . S
C163 C164 1.387 . S
C163 H180 0.930 . S
C164 C162 1.381 . S
C164 C163 1.387 . S
C164 H181 0.931 . S
C165 C158 1.399 . S
C165 C162 1.487 . S
C165 N182 1.343 . S
H166 C138 0.931 . S
H167 C140 0.930 . S
H168 C142 0.930 . S
H169 C143 0.931 . S
H170 C145 0.931 . S
H171 C147 0.930 . S
H172 C149 0.930 . S
H173 C150 0.931 . S
H174 C152 0.931 . S
H175 C154 0.930 . S
H176 C156 0.930 . S
H177 C157 0.931 . S
H178 C159 0.931 . S
H179 C161 0.930 . S
H180 C163 0.930 . S
H181 C164 0.931 . S
N182 C144 1.343 . S
N182 C165 1.343 . S
N183 C151 1.343 . S
N183 C158 1.343 . S
C184 C185 1.384 . S
C184 C186 1.384 . S
C184 H212 0.931 . S
C185 C184 1.384 . S
C185 C188 1.382 . S
C186 C184 1.384 . S
C186 C187 1.381 . S
C186 H213 0.930 . S
C187 C186 1.381 . S
C187 C189 1.381 . S
C187 C190 1.487 . S
C188 C185 1.382 . S
C188 C189 1.387 . S
C188 H214 0.930 . S
C189 C187 1.381 . S
C189 C188 1.387 . S
C189 H215 0.931 . S
C190 C187 1.487 . S
C190 C197 1.399 . S
C190 N228 1.343 . S
C191 C192 1.384 . S
C191 C193 1.384 . S
C191 H216 0.931 . S
C192 C191 1.384 . S
C192 C195 1.382 . S
C193 C191 1.384 . S
C193 C194 1.381 . S
C193 H217 0.930 . S
C194 C193 1.381 . S
C194 C196 1.381 . S
C194 C197 1.487 . S
C195 C192 1.382 . S
C195 C196 1.387 . S
C195 H218 0.930 . S
C196 C194 1.381 . S
C196 C195 1.387 . S
C196 H219 0.931 . S
C197 C190 1.399 . S
C197 C194 1.487 . S
C197 N229 1.343 . S
C198 C199 1.384 . S
C198 C200 1.384 . S
C198 H220 0.931 . S
C199 C198 1.384 . S
C199 C202 1.382 . S
C200 C198 1.384 . S
C200 C201 1.381 . S
C200 H221 0.930 . S
C201 C200 1.381 . S
C201 C203 1.381 . S
C201 C204 1.487 . S
C202 C199 1.382 . S
C202 C203 1.387 . S
C202 H222 0.930 . S
C203 C201 1.381 . S
C203 C202 1.387 . S
C203 H223 0.931 . S
C204 C201 1.487 . S
C204 C211 1.399 . S
C204 N229 1.343 . S
C205 C206 1.384 . S
C205 C207 1.384 . S
C205 H224 0.931 . S
C206 C205 1.384 . S
C206 C209 1.382 . S
C207 C205 1.384 . S
C207 C208 1.381 . S
C207 H225 0.930 . S
C208 C207 1.381 . S
C208 C210 1.381 . S
C208 C211 1.487 . S
C209 C206 1.382 . S
C209 C210 1.387 . S
C209 H226 0.930 . S
C210 C208 1.381 . S
C210 C209 1.387 . S
C210 H227 0.931 . S
C211 C204 1.399 . S
C211 C208 1.487 . S
C211 N228 1.343 . S
H212 C184 0.931 . S
H213 C186 0.930 . S
H214 C188 0.930 . S
H215 C189 0.931 . S
H216 C191 0.931 . S
H217 C193 0.930 . S
H218 C195 0.930 . S
H219 C196 0.931 . S
H220 C198 0.931 . S
H221 C200 0.930 . S
H222 C202 0.930 . S
H223 C203 0.931 . S
H224 C205 0.931 . S
H225 C207 0.930 . S
H226 C209 0.930 . S
H227 C210 0.931 . S
N228 C190 1.343 . S
N228 C211 1.343 . S
N229 C197 1.343 . S
N229 C204 1.343 . S
C230 C231 1.384 . S
C230 C232 1.384 . S
C230 H258 0.931 . S
C231 C230 1.384 . S
C231 C234 1.382 . S
C232 C230 1.384 . S
C232 C233 1.381 . S
C232 H259 0.930 . S
C233 C232 1.381 . S
C233 C235 1.381 . S
C233 C236 1.487 . S
C234 C231 1.382 . S
C234 C235 1.387 . S
C234 H260 0.930 . S
C235 C233 1.381 . S
C235 C234 1.387 . S
C235 H261 0.931 . S
C236 C233 1.487 . S
C236 C243 1.399 . S
C236 N274 1.343 . S
C237 C238 1.384 . S
C237 C239 1.384 . S
C237 H262 0.931 . S
C238 C237 1.384 . S
C238 C241 1.382 . S
C239 C237 1.384 . S
C239 C240 1.381 . S
C239 H263 0.930 . S
C240 C239 1.381 . S
C240 C242 1.381 . S
C240 C243 1.487 . S
C241 C238 1.382 . S
C241 C242 1.387 . S
C241 H264 0.930 . S
C242 C240 1.381 . S
C242 C241 1.387 . S
C242 H265 0.931 . S
C243 C236 1.399 . S
C243 C240 1.487 . S
C243 N275 1.343 . S
C244 C245 1.384 . S
C244 C246 1.384 . S
C244 H266 0.931 . S
C245 C244 1.384 . S
C245 C248 1.382 . S
C246 C244 1.384 . S
C246 C247 1.381 . S
C246 H267 0.930 . S
C247 C246 1.381 . S
C247 C249 1.381 . S
C247 C250 1.487 . S
C248 C245 1.382 . S
C248 C249 1.387 . S
C248 H268 0.930 . S
C249 C247 1.381 . S
C249 C248 1.387 . S
C249 H269 0.931 . S
C250 C247 1.487 . S
C250 C257 1.399 . S
C250 N275 1.343 . S
C251 C252 1.384 . S
C251 C253 1.384 . S
C251 H270 0.931 . S
C252 C251 1.384 . S
C252 C255 1.382 . S
C253 C251 1.384 . S
C253 C254 1.381 . S
C253 H271 0.930 . S
C254 C253 1.381 . S
C254 C256 1.381 . S
C254 C257 1.487 . S
C255 C252 1.382 . S
C255 C256 1.387 . S
C255 H272 0.930 . S
C256 C254 1.381 . S
C256 C255 1.387 . S
C256 H273 0.931 . S
C257 C250 1.399 . S
C257 C254 1.487 . S
C257 N274 1.343 . S
H258 C230 0.931 . S
H259 C232 0.930 . S
H260 C234 0.930 . S
H261 C235 0.931 . S
H262 C237 0.931 . S
H263 C239 0.930 . S
H264 C241 0.930 . S
H265 C242 0.931 . S
H266 C244 0.931 . S
H267 C246 0.930 . S
H268 C248 0.930 . S
H269 C249 0.931 . S
H270 C251 0.931 . S
H271 C253 0.930 . S
H272 C255 0.930 . S
H273 C256 0.931 . S
N274 C236 1.343 . S
N274 C257 1.343 . S
N275 C243 1.343 . S
N275 C250 1.343 . S
C276 C277 1.384 . S
C276 C278 1.384 . S
C276 H304 0.931 . S
C277 C276 1.384 . S
C277 C280 1.382 . S
C278 C276 1.384 . S
C278 C279 1.381 . S
C278 H305 0.930 . S
C279 C278 1.381 . S
C279 C281 1.381 . S
C279 C282 1.487 . S
C280 C277 1.382 . S
C280 C281 1.387 . S
C280 H306 0.930 . S
C281 C279 1.381 . S
C281 C280 1.387 . S
C281 H307 0.931 . S
C282 C279 1.487 . S
C282 C289 1.399 . S
C282 N320 1.343 . S
C283 C284 1.384 . S
C283 C285 1.384 . S
C283 H308 0.931 . S
C284 C283 1.384 . S
C284 C287 1.382 . S
C285 C283 1.384 . S
C285 C286 1.381 . S
C285 H309 0.930 . S
C286 C285 1.381 . S
C286 C288 1.381 . S
C286 C289 1.487 . S
C287 C284 1.382 . S
C287 C288 1.387 . S
C287 H310 0.930 . S
C288 C286 1.381 . S
C288 C287 1.387 . S
C288 H311 0.931 . S
C289 C282 1.399 . S
C289 C286 1.487 . S
C289 N321 1.343 . S
C290 C291 1.384 . S
C290 C292 1.384 . S
C290 H312 0.931 . S
C291 C290 1.384 . S
C291 C294 1.382 . S
C292 C290 1.384 . S
C292 C293 1.381 . S
C292 H313 0.930 . S
C293 C292 1.381 . S
C293 C295 1.381 . S
C293 C296 1.487 . S
C294 C291 1.382 . S
C294 C295 1.387 . S
C294 H314 0.930 . S
C295 C293 1.381 . S
C295 C294 1.387 . S
C295 H315 0.931 . S
C296 C293 1.487 . S
C296 C303 1.399 . S
C296 N321 1.343 . S
C297 C298 1.384 . S
C297 C299 1.384 . S
C297 H316 0.931 . S
C298 C297 1.384 . S
C298 C301 1.382 . S
C299 C297 1.384 . S
C299 C300 1.381 . S
C299 H317 0.930 . S
C300 C299 1.381 . S
C300 C302 1.381 . S
C300 C303 1.487 . S
C301 C298 1.382 . S
C301 C302 1.387 . S
C301 H318 0.930 . S
C302 C300 1.381 . S
C302 C301 1.387 . S
C302 H319 0.931 . S
C303 C296 1.399 . S
C303 C300 1.487 . S
C303 N320 1.343 . S
H304 C276 0.931 . S
H305 C278 0.930 . S
H306 C280 0.930 . S
H307 C281 0.931 . S
H308 C283 0.931 . S
H309 C285 0.930 . S
H310 C287 0.930 . S
H311 C288 0.931 . S
H312 C290 0.931 . S
H313 C292 0.930 . S
H314 C294 0.930 . S
H315 C295 0.931 . S
H316 C297 0.931 . S
H317 C299 0.930 . S
H318 C301 0.930 . S
H319 C302 0.931 . S
N320 C282 1.343 . S
N320 C303 1.343 . S
N321 C289 1.343 . S
N321 C296 1.343 . S
C322 C323 1.384 . S
C322 C324 1.384 . S
C322 H350 0.931 . S
C323 C322 1.384 . S
C323 C326 1.382 . S
C324 C322 1.384 . S
C324 C325 1.381 . S
C324 H351 0.930 . S
C325 C324 1.381 . S
C325 C327 1.381 . S
C325 C328 1.487 . S
C326 C323 1.382 . S
C326 C327 1.387 . S
C326 H352 0.930 . S
C327 C325 1.381 . S
C327 C326 1.387 . S
C327 H353 0.931 . S
C328 C325 1.487 . S
C328 C335 1.399 . S
C328 N366 1.343 . S
C329 C330 1.384 . S
C329 C331 1.384 . S
C329 H354 0.931 . S
C330 C329 1.384 . S
C330 C333 1.382 . S
C331 C329 1.384 . S
C331 C332 1.381 . S
C331 H355 0.930 . S
C332 C331 1.381 . S
C332 C334 1.381 . S
C332 C335 1.487 . S
C333 C330 1.382 . S
C333 C334 1.387 . S
C333 H356 0.930 . S
C334 C332 1.381 . S
C334 C333 1.387 . S
C334 H357 0.931 . S
C335 C328 1.399 . S
C335 C332 1.487 . S
C335 N367 1.343 . S
C336 C337 1.384 . S
C336 C338 1.384 . S
C336 H358 0.931 . S
C337 C336 1.384 . S
C337 C340 1.382 . S
C338 C336 1.384 . S
C338 C339 1.381 . S
C338 H359 0.930 . S
C339 C338 1.381 . S
C339 C341 1.381 . S
C339 C342 1.487 . S
C340 C337 1.382 . S
C340 C341 1.387 . S
C340 H360 0.930 . S
C341 C339 1.381 . S
C341 C340 1.387 . S
C341 H361 0.931 . S
C342 C339 1.487 . S
C342 C349 1.399 . S
C342 N367 1.343 . S
C343 C344 1.384 . S
C343 C345 1.384 . S
C343 H362 0.931 . S
C344 C343 1.384 . S
C344 C347 1.382 . S
C345 C343 1.384 . S
C345 C346 1.381 . S
C345 H363 0.930 . S
C346 C345 1.381 . S
C346 C348 1.381 . S
C346 C349 1.487 . S
C347 C344 1.382 . S
C347 C348 1.387 . S
C347 H364 0.930 . S
C348 C346 1.381 . S
C348 C347 1.387 . S
C348 H365 0.931 . S
C349 C342 1.399 . S
C349 C346 1.487 . S
C349 N366 1.343 . S
H350 C322 0.931 . S
H351 C324 0.930 . S
H352 C326 0.930 . S
H353 C327 0.931 . S
H354 C329 0.931 . S
H355 C331 0.930 . S
H356 C333 0.930 . S
H357 C334 0.931 . S
H358 C336 0.931 . S
H359 C338 0.930 . S
H360 C340 0.930 . S
H361 C341 0.931 . S
H362 C343 0.931 . S
H363 C345 0.930 . S
H364 C347 0.930 . S
H365 C348 0.931 . S
N366 C328 1.343 . S
N366 C349 1.343 . S
N367 C335 1.343 . S
N367 C342 1.343 . S
C368 C369 1.384 . S
C368 C370 1.384 . S
C368 H396 0.931 . S
C369 C368 1.384 . S
C369 C372 1.382 . S
C370 C368 1.384 . S
C370 C371 1.381 . S
C370 H397 0.930 . S
C371 C370 1.381 . S
C371 C373 1.381 . S
C371 C374 1.487 . S
C372 C369 1.382 . S
C372 C373 1.387 . S
C372 H398 0.930 . S
C373 C371 1.381 . S
C373 C372 1.387 . S
C373 H399 0.931 . S
C374 C371 1.487 . S
C374 C381 1.399 . S
C374 N412 1.343 . S
C375 C376 1.384 . S
C375 C377 1.384 . S
C375 H400 0.931 . S
C376 C375 1.384 . S
C376 C379 1.382 . S
C377 C375 1.384 . S
C377 C378 1.381 . S
C377 H401 0.930 . S
C378 C377 1.381 . S
C378 C380 1.381 . S
C378 C381 1.487 . S
C379 C376 1.382 . S
C379 C380 1.387 . S
C379 H402 0.930 . S
C380 C378 1.381 . S
C380 C379 1.387 . S
C380 H403 0.931 . S
C381 C374 1.399 . S
C381 C378 1.487 . S
C381 N413 1.343 . S
C382 C383 1.384 . S
C382 C384 1.384 . S
C382 H404 0.931 . S
C383 C382 1.384 . S
C383 C386 1.382 . S
C384 C382 1.384 . S
C384 C385 1.381 . S
C384 H405 0.930 . S
C385 C384 1.381 . S
C385 C387 1.381 . S
C385 C388 1.487 . S
C386 C383 1.382 . S
C386 C387 1.387 . S
C386 H406 0.930 . S
C387 C385 1.381 . S
C387 C386 1.387 . S
C387 H407 0.931 . S
C388 C385 1.487 . S
C388 C395 1.399 . S
C388 N413 1.343 . S
C389 C390 1.384 . S
C389 C391 1.384 . S
C389 H408 0.931 . S
C390 C389 1.384 . S
C390 C393 1.382 . S
C391 C389 1.384 . S
C391 C392 1.381 . S
C391 H409 0.930 . S
C392 C391 1.381 . S
C392 C394 1.381 . S
C392 C395 1.487 . S
C393 C390 1.382 . S
C393 C394 1.387 . S
C393 H410 0.930 . S
C394 C392 1.381 . S
C394 C393 1.387 . S
C394 H411 0.931 . S
C395 C388 1.399 . S
C395 C392 1.487 . S
C395 N412 1.343 . S
H396 C368 0.931 . S
H397 C370 0.930 . S
H398 C372 0.930 . S
H399 C373 0.931 . S
H400 C375 0.931 . S
H401 C377 0.930 . S
H402 C379 0.930 . S
H403 C380 0.931 . S
H404 C382 0.931 . S
H405 C384 0.930 . S
H406 C386 0.930 . S
H407 C387 0.931 . S
H408 C389 0.931 . S
H409 C391 0.930 . S
H410 C393 0.930 . S
H411 C394 0.931 . S
N412 C374 1.343 . S
N412 C395 1.343 . S
N413 C381 1.343 . S
N413 C388 1.343 . S
C414 C415 1.387 . S
C414 H418 0.950 . S
C414 C423 1.390 . S
C415 C414 1.387 . S
C415 C417 1.387 . S
H416 C423 0.950 . S
C417 C415 1.387 . S
C417 C419 1.390 . S
C417 H421 0.950 . S
H418 C414 0.950 . S
C419 C417 1.390 . S
C419 C420 1.387 . S
C419 H422 0.950 . S
C420 C419 1.387 . S
C420 C423 1.387 . S
H421 C417 0.950 . S
H422 C419 0.950 . S
C423 C414 1.390 . S
C423 H416 0.950 . S
C423 C420 1.387 . S
C424 C425 1.387 . S
C424 H428 0.950 . S
C424 C433 1.390 . S
C425 C424 1.387 . S
C425 C427 1.387 . S
H426 C433 0.950 . S
C427 C425 1.387 . S
C427 C429 1.390 . S
C427 H431 0.950 . S
H428 C424 0.950 . S
C429 C427 1.390 . S
C429 C430 1.387 . S
C429 H432 0.950 . S
C430 C429 1.387 . S
C430 C433 1.387 . S
H431 C427 0.950 . S
H432 C429 0.950 . S
C433 C424 1.390 . S
C433 H426 0.950 . S
C433 C430 1.387 . S
C434 C435 1.387 . S
C434 H438 0.950 . S
C434 C443 1.390 . S
C435 C434 1.387 . S
C435 C437 1.387 . S
H436 C443 0.950 . S
C437 C435 1.387 . S
C437 C439 1.390 . S
C437 H441 0.950 . S
H438 C434 0.950 . S
C439 C437 1.390 . S
C439 C440 1.387 . S
C439 H442 0.950 . S
C440 C439 1.387 . S
C440 C443 1.387 . S
H441 C437 0.950 . S
H442 C439 0.950 . S
C443 C434 1.390 . S
C443 H436 0.950 . S
C443 C440 1.387 . S
C444 C445 1.387 . S
C444 H448 0.950 . S
C444 C453 1.390 . S
C445 C444 1.387 . S
C445 C447 1.387 . S
H446 C453 0.950 . S
C447 C445 1.387 . S
C447 C449 1.390 . S
C447 H451 0.950 . S
H448 C444 0.950 . S
C449 C447 1.390 . S
C449 C450 1.387 . S
C449 H452 0.950 . S
C450 C449 1.387 . S
C450 C453 1.387 . S
H451 C447 0.950 . S
H452 C449 0.950 . S
C453 C444 1.390 . S
C453 H446 0.950 . S
C453 C450 1.387 . S
C454 C455 1.387 . S
C454 H458 0.950 . S
C454 C463 1.390 . S
C455 C454 1.387 . S
C455 C457 1.387 . S
H456 C463 0.950 . S
C457 C455 1.387 . S
C457 C459 1.390 . S
C457 H461 0.950 . S
H458 C454 0.950 . S
C459 C457 1.390 . S
C459 C460 1.387 . S
C459 H462 0.950 . S
C460 C459 1.387 . S
C460 C463 1.387 . S
H461 C457 0.950 . S
H462 C459 0.950 . S
C463 C454 1.390 . S
C463 H456 0.950 . S
C463 C460 1.387 . S
C464 C465 1.387 . S
C464 H468 0.950 . S
C464 C473 1.390 . S
C465 C464 1.387 . S
C465 C467 1.387 . S
H466 C473 0.950 . S
C467 C465 1.387 . S
C467 C469 1.390 . S
C467 H471 0.950 . S
H468 C464 0.950 . S
C469 C467 1.390 . S
C469 C470 1.387 . S
C469 H472 0.950 . S
C470 C469 1.387 . S
C470 C473 1.387 . S
H471 C467 0.950 . S
H472 C469 0.950 . S
C473 C464 1.390 . S
C473 H466 0.950 . S
C473 C470 1.387 . S
C474 C475 1.387 . S
C474 H478 0.950 . S
C474 C483 1.390 . S
C475 C474 1.387 . S
C475 C477 1.387 . S
H476 C483 0.950 . S
C477 C475 1.387 . S
C477 C479 1.390 . S
C477 H481 0.950 . S
H478 C474 0.950 . S
C479 C477 1.390 . S
C479 C480 1.387 . S
C479 H482 0.950 . S
C480 C479 1.387 . S
C480 C483 1.387 . S
H481 C477 0.950 . S
H482 C479 0.950 . S
C483 C474 1.390 . S
C483 H476 0.950 . S
C483 C480 1.387 . S
C484 C485 1.387 . S
C484 H488 0.950 . S
C484 C493 1.390 . S
C485 C484 1.387 . S
C485 C487 1.387 . S
H486 C493 0.950 . S
C487 C485 1.387 . S
C487 C489 1.390 . S
C487 H491 0.950 . S
H488 C484 0.950 . S
C489 C487 1.390 . S
C489 C490 1.387 . S
C489 H492 0.950 . S
C490 C489 1.387 . S
C490 C493 1.387 . S
H491 C487 0.950 . S
H492 C489 0.950 . S
C493 C484 1.390 . S
C493 H486 0.950 . S
C493 C490 1.387 . S
C494 C495 1.387 . S
C494 H498 0.950 . S
C494 C503 1.390 . S
C495 C494 1.387 . S
C495 C497 1.387 . S
H496 C503 0.950 . S
C497 C495 1.387 . S
C497 C499 1.390 . S
C497 H501 0.950 . S
H498 C494 0.950 . S
C499 C497 1.390 . S
C499 C500 1.387 . S
C499 H502 0.950 . S
C500 C499 1.387 . S
C500 C503 1.387 . S
H501 C497 0.950 . S
H502 C499 0.950 . S
C503 C494 1.390 . S
C503 H496 0.950 . S
C503 C500 1.387 . S
C504 C505 1.387 . S
C504 H508 0.950 . S
C504 C513 1.390 . S
C505 C504 1.387 . S
C505 C507 1.387 . S
H506 C513 0.950 . S
C507 C505 1.387 . S
C507 C509 1.390 . S
C507 H511 0.950 . S
H508 C504 0.950 . S
C509 C507 1.390 . S
C509 C510 1.387 . S
C509 H512 0.950 . S
C510 C509 1.387 . S
C510 C513 1.387 . S
H511 C507 0.950 . S
H512 C509 0.950 . S
C513 C504 1.390 . S
C513 H506 0.950 . S
C513 C510 1.387 . S
C514 C515 1.387 . S
C514 H518 0.950 . S
C514 C523 1.390 . S
C515 C514 1.387 . S
C515 C517 1.387 . S
H516 C523 0.950 . S
C517 C515 1.387 . S
C517 C519 1.390 . S
C517 H521 0.950 . S
H518 C514 0.950 . S
C519 C517 1.390 . S
C519 C520 1.387 . S
C519 H522 0.950 . S
C520 C519 1.387 . S
C520 C523 1.387 . S
H521 C517 0.950 . S
H522 C519 0.950 . S
C523 C514 1.390 . S
C523 H516 0.950 . S
C523 C520 1.387 . S
C524 C525 1.387 . S
C524 H528 0.950 . S
C524 C533 1.390 . S
C525 C524 1.387 . S
C525 C527 1.387 . S
H526 C533 0.950 . S
C527 C525 1.387 . S
C527 C529 1.390 . S
C527 H531 0.950 . S
H528 C524 0.950 . S
C529 C527 1.390 . S
C529 C530 1.387 . S
C529 H532 0.950 . S
C530 C529 1.387 . S
C530 C533 1.387 . S
H531 C527 0.950 . S
H532 C529 0.950 . S
C533 C524 1.390 . S
C533 H526 0.950 . S
C533 C530 1.387 . S
C534 C535 1.387 . S
C534 H538 0.950 . S
C534 C543 1.390 . S
C535 C534 1.387 . S
C535 C537 1.387 . S
H536 C543 0.950 . S
C537 C535 1.387 . S
C537 C539 1.390 . S
C537 H541 0.950 . S
H538 C534 0.950 . S
C539 C537 1.390 . S
C539 C540 1.387 . S
C539 H542 0.950 . S
C540 C539 1.387 . S
C540 C543 1.387 . S
H541 C537 0.950 . S
H542 C539 0.950 . S
C543 C534 1.390 . S
C543 H536 0.950 . S
C543 C540 1.387 . S
C544 C545 1.387 . S
C544 H548 0.950 . S
C544 C553 1.390 . S
C545 C544 1.387 . S
C545 C547 1.387 . S
H546 C553 0.950 . S
C547 C545 1.387 . S
C547 C549 1.390 . S
C547 H551 0.950 . S
H548 C544 0.950 . S
C549 C547 1.390 . S
C549 C550 1.387 . S
C549 H552 0.950 . S
C550 C549 1.387 . S
C550 C553 1.387 . S
H551 C547 0.950 . S
H552 C549 0.950 . S
C553 C544 1.390 . S
C553 H546 0.950 . S
C553 C550 1.387 . S
C554 C555 1.387 . S
C554 H558 0.950 . S
C554 C563 1.390 . S
C555 C554 1.387 . S
C555 C557 1.387 . S
H556 C563 0.950 . S
C557 C555 1.387 . S
C557 C559 1.390 . S
C557 H561 0.950 . S
H558 C554 0.950 . S
C559 C557 1.390 . S
C559 C560 1.387 . S
C559 H562 0.950 . S
C560 C559 1.387 . S
C560 C563 1.387 . S
H561 C557 0.950 . S
H562 C559 0.950 . S
C563 C554 1.390 . S
C563 H556 0.950 . S
C563 C560 1.387 . S
C564 C565 1.387 . S
C564 H568 0.950 . S
C564 C573 1.390 . S
C565 C564 1.387 . S
C565 C567 1.387 . S
H566 C573 0.950 . S
C567 C565 1.387 . S
C567 C569 1.390 . S
C567 H571 0.950 . S
H568 C564 0.950 . S
C569 C567 1.390 . S
C569 C570 1.387 . S
C569 H572 0.950 . S
C570 C569 1.387 . S
C570 C573 1.387 . S
H571 C567 0.950 . S
H572 C569 0.950 . S
C573 C564 1.390 . S
C573 H566 0.950 . S
C573 C570 1.387 . S
C574 C575 1.387 . S
C574 H578 0.950 . S
C574 C583 1.390 . S
C575 C574 1.387 . S
C575 C577 1.387 . S
H576 C583 0.950 . S
C577 C575 1.387 . S
C577 C579 1.390 . S
C577 H581 0.950 . S
H578 C574 0.950 . S
C579 C577 1.390 . S
C579 C580 1.387 . S
C579 H582 0.950 . S
C580 C579 1.387 . S
C580 C583 1.387 . S
H581 C577 0.950 . S
H582 C579 0.950 . S
C583 C574 1.390 . S
C583 H576 0.950 . S
C583 C580 1.387 . S
C584 C585 1.387 . S
C584 H588 0.950 . S
C584 C593 1.390 . S
C585 C584 1.387 . S
C585 C587 1.387 . S
H586 C593 0.950 . S
C587 C585 1.387 . S
C587 C589 1.390 . S
C587 H591 0.950 . S
H588 C584 0.950 . S
C589 C587 1.390 . S
C589 C590 1.387 . S
C589 H592 0.950 . S
C590 C589 1.387 . S
C590 C593 1.387 . S
H591 C587 0.950 . S
H592 C589 0.950 . S
C593 C584 1.390 . S
C593 H586 0.950 . S
C593 C590 1.387 . S
C594 C595 1.387 . S
C594 H598 0.950 . S
C594 C603 1.390 . S
C595 C594 1.387 . S
C595 C597 1.387 . S
H596 C603 0.950 . S
C597 C595 1.387 . S
C597 C599 1.390 . S
C597 H601 0.950 . S
H598 C594 0.950 . S
C599 C597 1.390 . S
C599 C600 1.387 . S
C599 H602 0.950 . S
C600 C599 1.387 . S
C600 C603 1.387 . S
H601 C597 0.950 . S
H602 C599 0.950 . S
C603 C594 1.390 . S
C603 H596 0.950 . S
C603 C600 1.387 . S
C604 C605 1.387 . S
C604 H608 0.950 . S
C604 C613 1.390 . S
C605 C604 1.387 . S
C605 C607 1.387 . S
H606 C613 0.950 . S
C607 C605 1.387 . S
C607 C609 1.390 . S
C607 H611 0.950 . S
H608 C604 0.950 . S
C609 C607 1.390 . S
C609 C610 1.387 . S
C609 H612 0.950 . S
C610 C609 1.387 . S
C610 C613 1.387 . S
H611 C607 0.950 . S
H612 C609 0.950 . S
C613 C604 1.390 . S
C613 H606 0.950 . S
C613 C610 1.387 . S
C614 C615 1.387 . S
C614 H618 0.950 . S
C614 C623 1.390 . S
C615 C614 1.387 . S
C615 C617 1.387 . S
H616 C623 0.950 . S
C617 C615 1.387 . S
C617 C619 1.390 . S
C617 H621 0.950 . S
H618 C614 0.950 . S
C619 C617 1.390 . S
C619 C620 1.387 . S
C619 H622 0.950 . S
C620 C619 1.387 . S
C620 C623 1.387 . S
H621 C617 0.950 . S
H622 C619 0.950 . S
C623 C614 1.390 . S
C623 H616 0.950 . S
C623 C620 1.387 . S
C624 C625 1.387 . S
C624 H628 0.950 . S
C624 C633 1.390 . S
C625 C624 1.387 . S
C625 C627 1.387 . S
H626 C633 0.950 . S
C627 C625 1.387 . S
C627 C629 1.390 . S
C627 H631 0.950 . S
H628 C624 0.950 . S
C629 C627 1.390 . S
C629 C630 1.387 . S
C629 H632 0.950 . S
C630 C629 1.387 . S
C630 C633 1.387 . S
H631 C627 0.950 . S
H632 C629 0.950 . S
C633 C624 1.390 . S
C633 H626 0.950 . S
C633 C630 1.387 . S
C634 C635 1.387 . S
C634 H638 0.950 . S
C634 C643 1.390 . S
C635 C634 1.387 . S
C635 C637 1.387 . S
H636 C643 0.950 . S
C637 C635 1.387 . S
C637 C639 1.390 . S
C637 H641 0.950 . S
H638 C634 0.950 . S
C639 C637 1.390 . S
C639 C640 1.387 . S
C639 H642 0.950 . S
C640 C639 1.387 . S
C640 C643 1.387 . S
H641 C637 0.950 . S
H642 C639 0.950 . S
C643 C634 1.390 . S
C643 H636 0.950 . S
C643 C640 1.387 . S
C644 C645 1.387 . S
C644 H648 0.950 . S
C644 C653 1.390 . S
C645 C644 1.387 . S
C645 C647 1.387 . S
H646 C653 0.950 . S
C647 C645 1.387 . S
C647 C649 1.390 . S
C647 H651 0.950 . S
H648 C644 0.950 . S
C649 C647 1.390 . S
C649 C650 1.387 . S
C649 H652 0.950 . S
C650 C649 1.387 . S
C650 C653 1.387 . S
H651 C647 0.950 . S
H652 C649 0.950 . S
C653 C644 1.390 . S
C653 H646 0.950 . S
C653 C650 1.387 . S
C415 C7 1.904 . S
C420 C160 1.883 . S
C425 C30 1.675 . S
C430 C199 1.653 . S
C440 C231 1.755 . S
C435 N58 1.727 . S
C450 C277 1.517 . S
C445 N81 1.471 . S
C460 C344 1.798 . S
C455 C99 1.817 . S
C470 C383 1.578 . S
C465 N127 1.530 . S
C475 N25 1.756 . S
C480 C245 1.773 . S
C485 C62 1.677 . S
C490 C291 1.651 . S
C500 C330 1.805 . S
C495 C85 1.844 . S
C510 C369 1.565 . S
C505 N94 1.579 . S
C515 C131 1.867 . S
C520 C146 1.816 . S
C530 C185 1.512 . S
C525 N2 1.508 . S
C540 C284 1.821 . S
C535 C16 1.838 . S
C545 C39 1.623 . S
C550 C337 1.594 . S
C560 C390 1.729 . S
C555 N48 1.718 . S
C565 N71 1.458 . S
C570 C153 1.485 . S
C575 C108 1.791 . S
C580 C206 1.768 . S
C585 N117 1.525 . S
C590 C238 1.562 . S
C595 N35 1.711 . S
C600 C376 1.754 . S
C610 C139 1.639 . S
C605 C53 1.661 . S
C615 C76 1.871 . S
C620 C192 1.847 . S
C625 N104 1.517 . S
C630 C252 1.532 . S
C635 C122 1.787 . S
C640 C298 1.752 . S
C645 N12 1.444 . S
C650 C323 1.493 . S
