# Generated by pormake.
# Topology ptr, (4,4)-cn, num edge types: 1
# Building blocks:
#     Node 0, Type 0, BuildingBlock: NAHDIM_clean_sbu_0, # of connection points: 4
#     Node 1, Type 0, BuildingBlock: NAHDIM_clean_sbu_0, # of connection points: 4
#     Node 2, Type 0, BuildingBlock: NAHDIM_clean_sbu_0, # of connection points: 4
#     Node 3, Type 0, BuildingBlock: NAHDIM_clean_sbu_0, # of connection points: 4
#     Node 4, Type 0, BuildingBlock: NAHDIM_clean_sbu_0, # of connection points: 4
#     Node 5, Type 0, BuildingBlock: NAHDIM_clean_sbu_0, # of connection points: 4
#     Node 6, Type 0, BuildingBlock: NAHDIM_clean_sbu_0, # of connection points: 4
#     Node 7, Type 0, BuildingBlock: NAHDIM_clean_sbu_0, # of connection points: 4
#     Node 8, Type 0, BuildingBlock: NAHDIM_clean_sbu_0, # of connection points: 4
#     Node 9, Type 0, BuildingBlock: NAHDIM_clean_sbu_0, # of connection points: 4
#     Node 10, Type 0, BuildingBlock: NAHDIM_clean_sbu_0, # of connection points: 4
#     Node 11, Type 0, BuildingBlock: NAHDIM_clean_sbu_0, # of connection points: 4
#     Node 12, Type 0, BuildingBlock: NAHDIM_clean_sbu_0, # of connection points: 4
#     Node 13, Type 0, BuildingBlock: NAHDIM_clean_sbu_0, # of connection points: 4
#     Node 14, Type 0, BuildingBlock: NAHDIM_clean_sbu_0, # of connection points: 4
#     Node 15, Type 0, BuildingBlock: NAHDIM_clean_sbu_0, # of connection points: 4
#     Node 16, Type 0, BuildingBlock: NAHDIM_clean_sbu_0, # of connection points: 4
#     Node 17, Type 0, BuildingBlock: NAHDIM_clean_sbu_0, # of connection points: 4
#     Node 18, Type 1, BuildingBlock: NAWXER_clean_linker_0, # of connection points: 4
#     Node 19, Type 1, BuildingBlock: NAWXER_clean_linker_0, # of connection points: 4
#     Node 20, Type 1, BuildingBlock: NAWXER_clean_linker_0, # of connection points: 4
#     Node 21, Type 1, BuildingBlock: NAWXER_clean_linker_0, # of connection points: 4
#     Node 22, Type 1, BuildingBlock: NAWXER_clean_linker_0, # of connection points: 4
#     Node 23, Type 1, BuildingBlock: NAWXER_clean_linker_0, # of connection points: 4
#     Node 24, Type 1, BuildingBlock: NAWXER_clean_linker_0, # of connection points: 4
#     Node 25, Type 1, BuildingBlock: NAWXER_clean_linker_0, # of connection points: 4
#     Node 26, Type 1, BuildingBlock: NAWXER_clean_linker_0, # of connection points: 4
#     Node 27, Type 1, BuildingBlock: NAWXER_clean_linker_0, # of connection points: 4
#     Node 28, Type 1, BuildingBlock: NAWXER_clean_linker_0, # of connection points: 4
#     Node 29, Type 1, BuildingBlock: NAWXER_clean_linker_0, # of connection points: 4
#     Node 30, Type 1, BuildingBlock: NAWXER_clean_linker_0, # of connection points: 4
#     Node 31, Type 1, BuildingBlock: NAWXER_clean_linker_0, # of connection points: 4
#     Node 32, Type 1, BuildingBlock: NAWXER_clean_linker_0, # of connection points: 4
#     Node 33, Type 1, BuildingBlock: NAWXER_clean_linker_0, # of connection points: 4
#     Node 34, Type 1, BuildingBlock: NAWXER_clean_linker_0, # of connection points: 4
#     Node 35, Type 1, BuildingBlock: NAWXER_clean_linker_0, # of connection points: 4
#     Edge 36, Type (0, 1), BuildingBlock: XUDNAN_clean_linker_2, # of connection points: 2
#     Edge 37, Type (0, 1), BuildingBlock: XUDNAN_clean_linker_2, # of connection points: 2
#     Edge 38, Type (0, 1), BuildingBlock: XUDNAN_clean_linker_2, # of connection points: 2
#     Edge 39, Type (0, 1), BuildingBlock: XUDNAN_clean_linker_2, # of connection points: 2
#     Edge 40, Type (0, 1), BuildingBlock: XUDNAN_clean_linker_2, # of connection points: 2
#     Edge 41, Type (0, 1), BuildingBlock: XUDNAN_clean_linker_2, # of connection points: 2
#     Edge 42, Type (0, 1), BuildingBlock: XUDNAN_clean_linker_2, # of connection points: 2
#     Edge 43, Type (0, 1), BuildingBlock: XUDNAN_clean_linker_2, # of connection points: 2
#     Edge 44, Type (0, 1), BuildingBlock: XUDNAN_clean_linker_2, # of connection points: 2
#     Edge 45, Type (0, 1), BuildingBlock: XUDNAN_clean_linker_2, # of connection points: 2
#     Edge 46, Type (0, 1), BuildingBlock: XUDNAN_clean_linker_2, # of connection points: 2
#     Edge 47, Type (0, 1), BuildingBlock: XUDNAN_clean_linker_2, # of connection points: 2
#     Edge 48, Type (0, 1), BuildingBlock: XUDNAN_clean_linker_2, # of connection points: 2
#     Edge 49, Type (0, 1), BuildingBlock: XUDNAN_clean_linker_2, # of connection points: 2
#     Edge 50, Type (0, 1), BuildingBlock: XUDNAN_clean_linker_2, # of connection points: 2
#     Edge 51, Type (0, 1), BuildingBlock: XUDNAN_clean_linker_2, # of connection points: 2
#     Edge 52, Type (0, 1), BuildingBlock: XUDNAN_clean_linker_2, # of connection points: 2
#     Edge 53, Type (0, 1), BuildingBlock: XUDNAN_clean_linker_2, # of connection points: 2
#     Edge 54, Type (0, 1), BuildingBlock: XUDNAN_clean_linker_2, # of connection points: 2
#     Edge 55, Type (0, 1), BuildingBlock: XUDNAN_clean_linker_2, # of connection points: 2
#     Edge 56, Type (0, 1), BuildingBlock: XUDNAN_clean_linker_2, # of connection points: 2
#     Edge 57, Type (0, 1), BuildingBlock: XUDNAN_clean_linker_2, # of connection points: 2
#     Edge 58, Type (0, 1), BuildingBlock: XUDNAN_clean_linker_2, # of connection points: 2
#     Edge 59, Type (0, 1), BuildingBlock: XUDNAN_clean_linker_2, # of connection points: 2
#     Edge 60, Type (0, 1), BuildingBlock: XUDNAN_clean_linker_2, # of connection points: 2
#     Edge 61, Type (0, 1), BuildingBlock: XUDNAN_clean_linker_2, # of connection points: 2
#     Edge 62, Type (0, 1), BuildingBlock: XUDNAN_clean_linker_2, # of connection points: 2
#     Edge 63, Type (0, 1), BuildingBlock: XUDNAN_clean_linker_2, # of connection points: 2
#     Edge 64, Type (0, 1), BuildingBlock: XUDNAN_clean_linker_2, # of connection points: 2
#     Edge 65, Type (0, 1), BuildingBlock: XUDNAN_clean_linker_2, # of connection points: 2
#     Edge 66, Type (0, 1), BuildingBlock: XUDNAN_clean_linker_2, # of connection points: 2
#     Edge 67, Type (0, 1), BuildingBlock: XUDNAN_clean_linker_2, # of connection points: 2
#     Edge 68, Type (0, 1), BuildingBlock: XUDNAN_clean_linker_2, # of connection points: 2
#     Edge 69, Type (0, 1), BuildingBlock: XUDNAN_clean_linker_2, # of connection points: 2
#     Edge 70, Type (0, 1), BuildingBlock: XUDNAN_clean_linker_2, # of connection points: 2
#     Edge 71, Type (0, 1), BuildingBlock: XUDNAN_clean_linker_2, # of connection points: 2
#     Edge 72, Type (0, 1), BuildingBlock: XUDNAN_clean_linker_2, # of connection points: 2
#     Edge 73, Type (0, 1), BuildingBlock: XUDNAN_clean_linker_2, # of connection points: 2
#     Edge 74, Type (0, 1), BuildingBlock: XUDNAN_clean_linker_2, # of connection points: 2
#     Edge 75, Type (0, 1), BuildingBlock: XUDNAN_clean_linker_2, # of connection points: 2
#     Edge 76, Type (0, 1), BuildingBlock: XUDNAN_clean_linker_2, # of connection points: 2
#     Edge 77, Type (0, 1), BuildingBlock: XUDNAN_clean_linker_2, # of connection points: 2
#     Edge 78, Type (0, 1), BuildingBlock: XUDNAN_clean_linker_2, # of connection points: 2
#     Edge 79, Type (0, 1), BuildingBlock: XUDNAN_clean_linker_2, # of connection points: 2
#     Edge 80, Type (0, 1), BuildingBlock: XUDNAN_clean_linker_2, # of connection points: 2
#     Edge 81, Type (0, 1), BuildingBlock: XUDNAN_clean_linker_2, # of connection points: 2
#     Edge 82, Type (0, 1), BuildingBlock: XUDNAN_clean_linker_2, # of connection points: 2
#     Edge 83, Type (0, 1), BuildingBlock: XUDNAN_clean_linker_2, # of connection points: 2
#     Edge 84, Type (0, 1), BuildingBlock: XUDNAN_clean_linker_2, # of connection points: 2
#     Edge 85, Type (0, 1), BuildingBlock: XUDNAN_clean_linker_2, # of connection points: 2
#     Edge 86, Type (0, 1), BuildingBlock: XUDNAN_clean_linker_2, # of connection points: 2
#     Edge 87, Type (0, 1), BuildingBlock: XUDNAN_clean_linker_2, # of connection points: 2
#     Edge 88, Type (0, 1), BuildingBlock: XUDNAN_clean_linker_2, # of connection points: 2
#     Edge 89, Type (0, 1), BuildingBlock: XUDNAN_clean_linker_2, # of connection points: 2
#     Edge 90, Type (0, 1), BuildingBlock: XUDNAN_clean_linker_2, # of connection points: 2
#     Edge 91, Type (0, 1), BuildingBlock: XUDNAN_clean_linker_2, # of connection points: 2
#     Edge 92, Type (0, 1), BuildingBlock: XUDNAN_clean_linker_2, # of connection points: 2
#     Edge 93, Type (0, 1), BuildingBlock: XUDNAN_clean_linker_2, # of connection points: 2
#     Edge 94, Type (0, 1), BuildingBlock: XUDNAN_clean_linker_2, # of connection points: 2
#     Edge 95, Type (0, 1), BuildingBlock: XUDNAN_clean_linker_2, # of connection points: 2
#     Edge 96, Type (0, 1), BuildingBlock: XUDNAN_clean_linker_2, # of connection points: 2
#     Edge 97, Type (0, 1), BuildingBlock: XUDNAN_clean_linker_2, # of connection points: 2
#     Edge 98, Type (0, 1), BuildingBlock: XUDNAN_clean_linker_2, # of connection points: 2
#     Edge 99, Type (0, 1), BuildingBlock: XUDNAN_clean_linker_2, # of connection points: 2
#     Edge 100, Type (0, 1), BuildingBlock: XUDNAN_clean_linker_2, # of connection points: 2
#     Edge 101, Type (0, 1), BuildingBlock: XUDNAN_clean_linker_2, # of connection points: 2
#     Edge 102, Type (0, 1), BuildingBlock: XUDNAN_clean_linker_2, # of connection points: 2
#     Edge 103, Type (0, 1), BuildingBlock: XUDNAN_clean_linker_2, # of connection points: 2
#     Edge 104, Type (0, 1), BuildingBlock: XUDNAN_clean_linker_2, # of connection points: 2
#     Edge 105, Type (0, 1), BuildingBlock: XUDNAN_clean_linker_2, # of connection points: 2
#     Edge 106, Type (0, 1), BuildingBlock: XUDNAN_clean_linker_2, # of connection points: 2
#     Edge 107, Type (0, 1), BuildingBlock: XUDNAN_clean_linker_2, # of connection points: 2
# Relax obj value: 0.073
# Max RMSD: 0.265
# Mean RMSD: 0.108
data_MOF--net-ptr--node1-NAHDIM_clean_sbu_0--node2-NAWXER_clean_linker_0--edge1-XUDNAN_clean_linker_2
_symmetry_space_group_name_H-M    P1
_symmetry_Int_Tables_number       1
_symmetry_cell_setting            triclinic
loop_
_symmetry_equiv_pos_as_xyz
'x, y, z'
_cell_length_a     88.77631
_cell_length_b     87.017899
_cell_length_c     63.092531
_cell_angle_alpha  91.786203
_cell_angle_beta   89.076775
_cell_angle_gamma 121.95577
loop_
_atom_site_label
_atom_site_type_symbol
_atom_site_fract_x
_atom_site_fract_y
_atom_site_fract_z
_atom_type_partial_charge
C0 C 0.03992 0.34178 0.01949 0.0
O1 O 0.02871 0.32688 0.00885 0.0
O2 O -0.00033 0.33018 0.99423 0.0
Zn3 Zn 0.01805 0.3553 0.00479 0.0
O4 O 0.0074 0.36389 0.02701 0.0
C5 C 0.01563 0.37414 0.97029 0.0
O6 O 0.99871 0.36366 0.97492 0.0
O7 O 0.03824 0.3554 0.01906 0.0
C8 C 0.99103 0.35834 0.02906 0.0
O9 O 0.97945 0.34606 0.01564 0.0
C10 C 0.99045 0.31779 0.00734 0.0
O11 O 0.99319 0.32157 0.02776 0.0
O12 O 0.02694 0.3728 0.98084 0.0
C13 C 0.68838 0.66424 0.98431 0.0
O14 O 0.68081 0.67109 0.97359 0.0
O15 O 0.66632 0.68208 0.01086 0.0
Zn16 Zn 0.6587 0.65574 0.00757 0.0
O17 O 0.64249 0.64205 0.98296 0.0
C18 C 0.63086 0.6377 0.03709 0.0
O19 O 0.62258 0.64047 0.02205 0.0
O20 O 0.68107 0.65606 0.00132 0.0
C21 C 0.63266 0.64511 0.97171 0.0
O22 O 0.63192 0.6596 0.97567 0.0
C23 C 0.65726 0.68844 0.01824 0.0
O24 O 0.64046 0.67734 0.02291 0.0
O25 O 0.64704 0.6427 0.03454 0.0
C26 C 0.34013 0.02114 0.98954 0.0
O27 O 0.33634 0.00813 0.9755 0.0
O28 O 0.31655 0.97862 0.02344 0.0
Zn29 Zn 0.34203 0.99615 0.01548 0.0
O30 O 0.3501 0.98717 0.99063 0.0
C31 C 0.35277 0.98345 0.04844 0.0
O32 O 0.33897 0.9686 0.04051 0.0
O33 O 0.34401 0.01962 0.00837 0.0
C34 C 0.34325 0.97066 0.98488 0.0
O35 O 0.32927 0.95804 0.99494 0.0
C36 C 0.30321 0.97125 0.01111 0.0
O37 O 0.30553 0.9745 0.99075 0.0
O38 O 0.35725 0.99854 0.04043 0.0
C39 C 0.97436 0.66725 0.98413 0.0
O40 O 0.98775 0.68314 0.99042 0.0
O41 O 0.00763 0.67482 0.0233 0.0
Zn42 Zn 0.99342 0.65274 0.0044 0.0
O43 O 0.00728 0.64844 0.98212 0.0
C44 C 0.99362 0.62949 0.03399 0.0
O45 O 0.01072 0.64108 0.03151 0.0
O46 O 0.97394 0.65299 0.98907 0.0
C47 C 0.0237 0.65438 0.97977 0.0
O48 O 0.03526 0.66619 0.99357 0.0
C49 C 0.0202 0.6908 0.01927 0.0
O50 O 0.02586 0.695 0.99969 0.0
O51 O 0.98271 0.63149 0.0235 0.0
C52 C 0.30982 0.34735 0.02208 0.0
O53 O 0.31091 0.33288 0.02071 0.0
O54 O 0.33364 0.33857 0.98315 0.0
Zn55 Zn 0.34231 0.36218 0.99901 0.0
O56 O 0.35995 0.36622 0.02156 0.0
C57 C 0.34551 0.37907 0.95989 0.0
O58 O 0.32999 0.36407 0.95697 0.0
O59 O 0.32177 0.36181 0.01348 0.0
C60 C 0.37627 0.3786 0.02054 0.0
O61 O 0.38217 0.3888 0.0038 0.0
C62 C 0.33464 0.32545 0.98958 0.0
O63 O 0.34175 0.32678 0.00817 0.0
O64 O 0.35344 0.38184 0.97749 0.0
C65 C 0.67131 0.97781 0.02001 0.0
O66 O 0.68206 0.9946 0.02679 0.0
O67 O 0.67471 0.01634 0.99401 0.0
Zn68 Zn 0.65277 0.9934 0.00369 0.0
O69 O 0.64228 0.99602 0.03108 0.0
C70 C 0.63709 0.98294 0.96196 0.0
O71 O 0.65278 0.986 0.95651 0.0
O72 O 0.65809 0.97412 0.00859 0.0
C73 C 0.63782 0.00734 0.03599 0.0
O74 O 0.64128 0.02024 0.02287 0.0
C75 C 0.67293 0.02766 0.98382 0.0
O76 O 0.65695 0.02472 0.98122 0.0
O77 O 0.63405 0.98486 0.98129 0.0
C78 C 0.69256 0.68146 0.37658 0.0
O79 O 0.67756 0.67481 0.38707 0.0
O80 O 0.65902 0.66667 0.33237 0.0
Zn81 Zn 0.67544 0.69137 0.34558 0.0
O82 O 0.66313 0.6993 0.36647 0.0
C83 C 0.67924 0.70772 0.30485 0.0
O84 O 0.66349 0.69319 0.30125 0.0
O85 O 0.69462 0.68969 0.35947 0.0
C86 C 0.65323 0.70441 0.35924 0.0
O87 O 0.65088 0.70374 0.33866 0.0
C88 C 0.64216 0.65744 0.33179 0.0
O89 O 0.63319 0.66402 0.34068 0.0
O90 O 0.68684 0.70975 0.32252 0.0
C91 C 0.35307 0.0068 0.32127 0.0
O92 O 0.34868 0.01904 0.32255 0.0
O93 O 0.3202 0.00768 0.35007 0.0
Zn94 Zn 0.31757 0.98536 0.33555 0.0
O95 O 0.30279 0.97956 0.30919 0.0
C96 C 0.3095 0.95943 0.37035 0.0
O97 O 0.32538 0.97079 0.37817 0.0
O98 O 0.34172 0.99066 0.32654 0.0
C99 C 0.29873 0.99016 0.30125 0.0
O100 O 0.30469 0.00621 0.31017 0.0
C101 C 0.32045 0.01106 0.36984 0.0
O102 O 0.31815 0.99887 0.38341 0.0
O103 O 0.30451 0.96327 0.3536 0.0
C104 C 0.01216 0.36119 0.31995 0.0
O105 O 0.01033 0.34837 0.3067 0.0
O106 O 0.99126 0.32065 0.36067 0.0
Zn107 Zn 0.01548 0.33906 0.35004 0.0
O108 O 0.02237 0.32816 0.32605 0.0
C109 C 0.04919 0.35448 0.37244 0.0
O110 O 0.05618 0.35752 0.35336 0.0
O111 O 0.01475 0.36025 0.3395 0.0
C112 C 0.0293 0.31874 0.32828 0.0
O113 O 0.03235 0.31549 0.34742 0.0
C114 C 0.97828 0.31113 0.34818 0.0
O115 O 0.98079 0.31313 0.32763 0.0
O116 O 0.03251 0.34705 0.37448 0.0
C117 C 0.64137 0.00164 0.33304 0.0
O118 O 0.65423 0.01383 0.3453 0.0
O119 O 0.66959 0.99868 0.36887 0.0
Zn120 Zn 0.65238 0.97829 0.34942 0.0
O121 O 0.66587 0.97074 0.33035 0.0
C122 C 0.63121 0.96065 0.38568 0.0
O123 O 0.63425 0.97699 0.3895 0.0
O124 O 0.63793 0.98547 0.33246 0.0
C125 C 0.66539 0.97016 0.31021 0.0
O126 O 0.65572 0.97509 0.30042 0.0
C127 C 0.68438 0.01242 0.3636 0.0
O128 O 0.68949 0.01419 0.34369 0.0
O129 O 0.63683 0.9575 0.36844 0.0
C130 C 0.97426 0.65589 0.36068 0.0
O131 O 0.97916 0.64476 0.35399 0.0
O132 O 0.00924 0.6647 0.32515 0.0
Zn133 Zn 0.00939 0.68284 0.34608 0.0
O134 O 0.02689 0.68967 0.37001 0.0
C135 C 0.03047 0.71061 0.31789 0.0
O136 O 0.03862 0.70166 0.31803 0.0
O137 O 0.98487 0.67286 0.35864 0.0
C138 C 0.04065 0.68863 0.36925 0.0
O139 O 0.04426 0.68253 0.35185 0.0
C140 C 0.01057 0.65118 0.32876 0.0
O141 O 0.01224 0.6476 0.34836 0.0
O142 O 0.01681 0.70525 0.32948 0.0
C143 C 0.32887 0.31193 0.36697 0.0
O144 O 0.34371 0.32783 0.36869 0.0
O145 O 0.34382 0.34689 0.33153 0.0
Zn146 Zn 0.31946 0.33302 0.3442 0.0
O147 O 0.31679 0.34726 0.36808 0.0
C148 C 0.30369 0.32195 0.30291 0.0
O149 O 0.3182 0.32181 0.29892 0.0
O150 O 0.31603 0.3105 0.35659 0.0
C151 C 0.30733 0.35416 0.36665 0.0
O152 O 0.29968 0.35293 0.34849 0.0
C153 C 0.34988 0.362 0.32279 0.0
O154 O 0.34008 0.36919 0.32242 0.0
O155 O 0.3012 0.32627 0.32148 0.0
C156 C 0.35885 0.0047 0.70511 0.0
O157 O 0.34357 0.9893 0.70293 0.0
O158 O 0.32705 0.99692 0.66385 0.0
Zn159 Zn 0.34151 0.01934 0.68199 0.0
O160 O 0.3271 0.02337 0.704 0.0
C161 C 0.34917 0.05199 0.6605 0.0
O162 O 0.33826 0.05246 0.67443 0.0
O163 O 0.36093 0.01885 0.69697 0.0
C164 C 0.33622 0.03607 0.71749 0.0
O165 O 0.35362 0.04517 0.71597 0.0
C166 C 0.31277 0.98212 0.66788 0.0
O167 O 0.30556 0.97976 0.68679 0.0
O168 O 0.35264 0.03962 0.66137 0.0
C169 C 0.01877 0.32611 0.65642 0.0
O170 O 0.01846 0.34104 0.65667 0.0
O171 O 0.9944 0.33794 0.68915 0.0
Zn172 Zn 0.98556 0.31272 0.67775 0.0
O173 O 0.96724 0.30531 0.6548 0.0
C174 C 0.98379 0.29993 0.71934 0.0
O175 O -0.00098 0.31547 0.72084 0.0
O176 O 0.00605 0.31204 0.66487 0.0
C177 C 0.96286 0.31566 0.64686 0.0
O178 O 0.9701 0.3324 0.6542 0.0
C179 C 0.98515 0.34174 0.7012 0.0
O180 O 0.9689 0.32889 0.70608 0.0
O181 O 0.97532 0.29543 0.7019 0.0
C182 C 0.67379 0.69928 0.64884 0.0
O183 O 0.6702 0.68514 0.63682 0.0
O184 O 0.66466 0.66221 0.68952 0.0
Zn185 Zn 0.68653 0.68315 0.67648 0.0
O186 O 0.69411 0.6746 0.65084 0.0
C187 C 0.70655 0.6904 0.71586 0.0
O188 O 0.69155 0.67706 0.72342 0.0
O189 O 0.68083 0.70135 0.66693 0.0
C190 C 0.70336 0.66746 0.65205 0.0
O191 O 0.708 0.66515 0.67079 0.0
C192 C 0.65343 0.64932 0.6775 0.0
O193 O 0.65664 0.64982 0.65706 0.0
O194 O 0.7071 0.69518 0.6969 0.0
C195 C 0.29224 0.30769 0.66063 0.0
O196 O 0.30031 0.30232 0.64758 0.0
O197 O 0.33691 0.34001 0.69943 0.0
Zn198 Zn 0.31986 0.314 0.69062 0.0
O199 O 0.33148 0.30589 0.6691 0.0
C200 C 0.33009 0.30102 0.72289 0.0
O201 O 0.34499 0.31339 0.71402 0.0
O202 O 0.2976 0.31207 0.6797 0.0
C203 C 0.33838 0.31171 0.65103 0.0
O204 O 0.33819 0.32532 0.6429 0.0
C205 C 0.33989 0.35302 0.68784 0.0
O206 O 0.33178 0.34947 0.66948 0.0
O207 O 0.31555 0.29847 0.7159 0.0
C208 C 0.6437 0.0122 0.69528 0.0
O209 O 0.63821 0.00855 0.67551 0.0
O210 O 0.66756 0.99239 0.66578 0.0
Zn211 Zn 0.67699 0.01708 0.67895 0.0
O212 O 0.69912 0.02509 0.69573 0.0
C213 C 0.69554 0.03829 0.64413 0.0
O214 O 0.70361 0.02945 0.64677 0.0
O215 O 0.65931 0.01624 0.69966 0.0
C216 C 0.7067 0.04109 0.70362 0.0
O217 O 0.70006 0.05108 0.69963 0.0
C218 C 0.66331 0.97911 0.67754 0.0
O219 O 0.66535 0.98189 0.69817 0.0
O220 O 0.68272 0.03508 0.65631 0.0
C221 C 0.98575 0.6448 0.70307 0.0
O222 O 0.99002 0.65851 0.71622 0.0
O223 O 0.00999 0.68528 0.66424 0.0
Zn224 Zn 0.98477 0.66878 0.67383 0.0
O225 O 0.97853 0.68076 0.69729 0.0
C226 C 0.97346 0.67647 0.63586 0.0
O227 O 0.98938 0.69107 0.63794 0.0
O228 O 0.9823 0.64579 0.68386 0.0
C229 C 0.98241 0.697 0.69571 0.0
O230 O 0.99144 0.70624 0.67915 0.0
C231 C 0.02318 0.69464 0.67649 0.0
O232 O 0.02072 0.69375 0.69711 0.0
O233 O 0.9683 0.66397 0.6492 0.0
C234 C 0.21214 0.33042 0.136 0.0
C235 C 0.21064 0.32169 0.11634 0.0
C236 C 0.19741 0.3242 0.14925 0.0
C237 C 0.18091 0.3091 0.1431 0.0
C238 C 0.1942 0.30637 0.11038 0.0
C239 C 0.1794 0.30025 0.12357 0.0
C240 C 0.16492 0.30386 0.15592 0.0
C241 C 0.19851 0.28999 0.1924 0.0
C242 C 0.20639 0.30137 0.21039 0.0
C243 C 0.18448 0.28948 0.182 0.0
C244 C 0.17803 0.30032 0.18939 0.0
C245 C 0.19953 0.31182 0.21806 0.0
C246 C 0.1854 0.31118 0.20775 0.0
C247 C 0.16393 0.30076 0.17784 0.0
C248 C 0.0905 0.28569 0.19996 0.0
C249 C 0.09471 0.29553 0.21934 0.0
C250 C 0.10391 0.28653 0.18714 0.0
C251 C 0.12179 0.29747 0.19333 0.0
C252 C 0.11256 0.30592 0.22581 0.0
C253 C 0.12593 0.30681 0.21297 0.0
C254 C 0.13635 0.29936 0.17963 0.0
C255 C 0.11267 0.32479 0.14157 0.0
C256 C 0.1071 0.31749 0.12094 0.0
C257 C 0.12183 0.31934 0.15399 0.0
C258 C 0.12528 0.30621 0.1462 0.0
C259 C 0.11018 0.30401 0.1134 0.0
C260 C 0.11924 0.29849 0.12588 0.0
C261 C 0.13739 0.30249 0.15762 0.0
H262 H 0.22469 0.3422 0.14102 0.0
H263 H 0.19878 0.33153 0.16401 0.0
H264 H 0.19266 0.2995 0.09521 0.0
H265 H 0.16671 0.28875 0.11842 0.0
H266 H 0.20318 0.28146 0.18633 0.0
H267 H 0.17872 0.2807 0.1681 0.0
H268 H 0.20539 0.32092 0.23168 0.0
H269 H 0.18061 0.31964 0.21372 0.0
H270 H 0.07684 0.27734 0.19472 0.0
H271 H 0.1003 0.27874 0.17236 0.0
H272 H 0.11628 0.31383 0.24051 0.0
H273 H 0.1396 0.31526 0.21815 0.0
H274 H 0.11035 0.33506 0.14795 0.0
H275 H 0.12683 0.32598 0.16931 0.0
H276 H 0.10631 0.29829 0.09749 0.0
H277 H 0.12203 0.28858 0.11939 0.0
N278 N 0.15159 0.30449 0.14666 0.0
N279 N 0.14973 0.2987 0.18888 0.0
C280 C 0.68015 0.88916 0.12296 0.0
C281 C 0.69198 0.89967 0.1069 0.0
C282 C 0.68454 0.87983 0.13669 0.0
C283 C 0.70074 0.88075 0.1344 0.0
C284 C 0.70846 0.90111 0.10513 0.0
C285 C 0.71271 0.89151 0.11862 0.0
C286 C 0.70414 0.86867 0.14649 0.0
C287 C 0.70919 0.91116 0.19404 0.0
C288 C 0.69931 0.9044 0.21271 0.0
C289 C 0.71047 0.89945 0.17943 0.0
C290 C 0.70143 0.88072 0.18303 0.0
C291 C 0.69027 0.88577 0.2163 0.0
C292 C 0.69124 0.87405 0.20157 0.0
C293 C 0.70346 0.86798 0.16884 0.0
C294 C 0.71973 0.81066 0.18753 0.0
C295 C 0.70673 0.80141 0.20312 0.0
C296 C 0.71943 0.8237 0.1754 0.0
C297 C 0.70622 0.82776 0.17885 0.0
C298 C 0.69354 0.80551 0.20646 0.0
C299 C 0.69338 0.81865 0.19456 0.0
C300 C 0.70587 0.84188 0.16685 0.0
C301 C 0.69046 0.79628 0.11942 0.0
C302 C 0.70058 0.80086 0.10069 0.0
C303 C 0.69266 0.80971 0.13398 0.0
C304 C 0.70537 0.82803 0.13046 0.0
C305 C 0.71338 0.8192 0.09724 0.0
C306 C 0.7157 0.83263 0.11195 0.0
C307 C 0.70638 0.8425 0.1445 0.0
H308 H 0.66738 0.88791 0.12463 0.0
H309 H 0.67498 0.87131 0.1485 0.0
H310 H 0.71772 0.90904 0.09275 0.0
H311 H 0.72516 0.89216 0.11645 0.0
H312 H 0.71643 0.92556 0.19116 0.0
H313 H 0.719 0.90516 0.16577 0.0
H314 H 0.68255 0.88031 0.23062 0.0
H315 H 0.68417 0.85973 0.20487 0.0
H316 H 0.73005 0.80775 0.18469 0.0
H317 H 0.72963 0.83078 0.16356 0.0
H318 H 0.68353 0.7988 0.21859 0.0
H319 H 0.68314 0.82165 0.19758 0.0
H320 H 0.68064 0.78229 0.12276 0.0
H321 H 0.68396 0.80575 0.14762 0.0
H322 H 0.72122 0.82325 0.08285 0.0
H323 H 0.72534 0.84669 0.10866 0.0
N324 N 0.70564 0.85597 0.13525 0.0
N325 N 0.70439 0.85459 0.17805 0.0
C326 C 0.09746 0.7936 0.13594 0.0
C327 C 0.08873 0.79425 0.11792 0.0
C328 C 0.1101 0.80954 0.14651 0.0
C329 C 0.11397 0.82645 0.13958 0.0
C330 C 0.09278 0.81117 0.1108 0.0
C331 C 0.10531 0.82713 0.12153 0.0
C332 C 0.12828 0.84345 0.14971 0.0
C333 C 0.08712 0.81403 0.20013 0.0
C334 C 0.09341 0.80894 0.2172 0.0
C335 C 0.09901 0.82641 0.18543 0.0
C336 C 0.11735 0.8338 0.18751 0.0
C337 C 0.11181 0.81685 0.21958 0.0
C338 C 0.12363 0.82918 0.20495 0.0
C339 C 0.13028 0.84649 0.17191 0.0
C340 C 0.19712 0.92124 0.18065 0.0
C341 C 0.20422 0.91793 0.19848 0.0
C342 C 0.18223 0.90702 0.17018 0.0
C343 C 0.17434 0.88917 0.17714 0.0
C344 C 0.19607 0.90008 0.20556 0.0
C345 C 0.18135 0.88591 0.19501 0.0
C346 C 0.15834 0.87379 0.16678 0.0
C347 C 0.20018 0.8941 0.11567 0.0
C348 C 0.1963 0.90084 0.09795 0.0
C349 C 0.1873 0.88471 0.13112 0.0
C350 C 0.17031 0.88198 0.12923 0.0
C351 C 0.17925 0.89807 0.09615 0.0
C352 C 0.16635 0.88861 0.11157 0.0
C353 C 0.15622 0.87085 0.14459 0.0
H354 H 0.0949 0.78078 0.1415 0.0
H355 H 0.11715 0.80863 0.15977 0.0
H356 H 0.08623 0.81205 0.09697 0.0
H357 H 0.10832 0.84003 0.11567 0.0
H358 H 0.07302 0.80816 0.19788 0.0
H359 H 0.09386 0.83012 0.17241 0.0
H360 H 0.1171 0.81351 0.2328 0.0
H361 H 0.13773 0.83485 0.20705 0.0
H362 H 0.20307 0.93481 0.17475 0.0
H363 H 0.17679 0.91004 0.15684 0.0
H364 H 0.20082 0.89703 0.21955 0.0
H365 H 0.17541 0.87232 0.20088 0.0
H366 H 0.21303 0.89562 0.11735 0.0
H367 H 0.19048 0.87921 0.14427 0.0
H368 H 0.17587 0.90325 0.08283 0.0
H369 H 0.15324 0.88644 0.10971 0.0
N370 N 0.14125 0.85586 0.13696 0.0
N371 N 0.14526 0.86148 0.1795 0.0
C372 C 0.31645 0.10645 0.8413 0.0
C373 C 0.30332 0.0966 0.82575 0.0
C374 C 0.31592 0.11947 0.85429 0.0
C375 C 0.30208 0.12266 0.85225 0.0
C376 C 0.28947 0.09982 0.82382 0.0
C377 C 0.28891 0.11276 0.83688 0.0
C378 C 0.30194 0.13727 0.86467 0.0
C379 C 0.29975 0.09807 0.91198 0.0
C380 C 0.31398 0.10639 0.92646 0.0
C381 C 0.29608 0.10858 0.8992 0.0
C382 C 0.30676 0.12758 0.90048 0.0
C383 C 0.32438 0.1254 0.92794 0.0
C384 C 0.32075 0.13584 0.91516 0.0
C385 C 0.30361 0.13924 0.88702 0.0
C386 C 0.28941 0.19947 0.9025 0.0
C387 C 0.30303 0.21075 0.91694 0.0
C388 C 0.2887 0.18442 0.89293 0.0
C389 C 0.30154 0.18031 0.8977 0.0
C390 C 0.31532 0.206 0.92249 0.0
C391 C 0.31447 0.19081 0.91309 0.0
C392 C 0.30213 0.16576 0.88577 0.0
C393 C 0.32308 0.21193 0.84226 0.0
C394 C 0.31351 0.20892 0.82346 0.0
C395 C 0.31915 0.1976 0.85521 0.0
C396 C 0.30514 0.17992 0.85015 0.0
C397 C 0.29941 0.19123 0.81835 0.0
C398 C 0.29534 0.17682 0.83154 0.0
C399 C 0.30194 0.16465 0.86339 0.0
H400 H 0.32725 0.10424 0.8433 0.0
H401 H 0.32653 0.1273 0.8656 0.0
H402 H 0.27934 0.09276 0.81176 0.0
H403 H 0.27827 0.11522 0.8348 0.0
H404 H 0.29134 0.08345 0.91071 0.0
H405 H 0.28492 0.10188 0.88838 0.0
H406 H 0.33557 0.13224 0.9387 0.0
H407 H 0.32915 0.15048 0.91648 0.0
H408 H 0.27945 0.20243 0.89827 0.0
H409 H 0.27837 0.17624 0.88142 0.0
H410 H 0.32608 0.21443 0.9334 0.0
H411 H 0.32447 0.18781 0.91702 0.0
H412 H 0.33387 0.22538 0.84685 0.0
H413 H 0.32745 0.20036 0.86894 0.0
H414 H 0.29192 0.18841 0.80385 0.0
H415 H 0.28468 0.16326 0.8271 0.0
N416 N 0.30137 0.15019 0.85372 0.0
N417 N 0.30341 0.15331 0.8967 0.0
C418 C 0.9065 0.20203 0.91268 0.0
C419 C 0.90084 0.20942 0.9287 0.0
C420 C 0.89434 0.18932 0.89796 0.0
C421 C 0.87644 0.18425 0.89862 0.0
C422 C 0.8829 0.20401 0.92968 0.0
C423 C 0.87084 0.1916 0.91477 0.0
C424 C 0.86316 0.17069 0.88339 0.0
C425 C 0.90258 0.21626 0.84303 0.0
C426 C 0.91045 0.21165 0.82661 0.0
C427 C 0.88839 0.20276 0.85451 0.0
C428 C 0.88217 0.18437 0.8503 0.0
C429 C 0.90406 0.19329 0.82209 0.0
C430 C 0.89007 0.17978 0.83387 0.0
C431 C 0.86634 0.16991 0.86144 0.0
C432 C 0.79509 0.11597 0.82507 0.0
C433 C 0.79938 0.1056 0.81169 0.0
C434 C 0.80724 0.12815 0.84013 0.0
C435 C 0.82383 0.12998 0.84234 0.0
C436 C 0.81603 0.10751 0.81391 0.0
C437 C 0.82817 0.11967 0.82902 0.0
C438 C 0.83724 0.14355 0.85733 0.0
C439 C 0.79039 0.10401 0.89732 0.0
C440 C 0.78278 0.11244 0.90864 0.0
C441 C 0.80698 0.11444 0.88756 0.0
C442 C 0.81619 0.13345 0.88901 0.0
C443 C 0.79222 0.13144 0.91034 0.0
C444 C 0.80877 0.14181 0.90073 0.0
C445 C 0.83372 0.145 0.87896 0.0
H446 H 0.92026 0.20586 0.9118 0.0
H447 H 0.89893 0.18338 0.8862 0.0
H448 H 0.87825 0.20962 0.94181 0.0
H449 H 0.85711 0.18783 0.91577 0.0
H450 H 0.90701 0.2303 0.8465 0.0
H451 H 0.88204 0.20675 0.86633 0.0
H452 H 0.90989 0.18941 0.80944 0.0
H453 H 0.88531 0.1657 0.83003 0.0
H454 H 0.78233 0.11473 0.82387 0.0
H455 H 0.80378 0.13633 0.84979 0.0
H456 H 0.81986 0.09994 0.80364 0.0
H457 H 0.84102 0.12111 0.83024 0.0
H458 H 0.7834 0.08938 0.89575 0.0
H459 H 0.81262 0.10769 0.87896 0.0
H460 H 0.78686 0.13832 0.91927 0.0
H461 H 0.81571 0.15644 0.90224 0.0
N462 N 0.84688 0.15839 0.8911 0.0
N463 N 0.85337 0.15611 0.84942 0.0
C464 C 0.80311 0.70336 0.89594 0.0
C465 C 0.79407 0.68646 0.90573 0.0
C466 C 0.81717 0.70777 0.88202 0.0
C467 C 0.8223 0.69528 0.87749 0.0
C468 C 0.79918 0.67397 0.90103 0.0
C469 C 0.81319 0.67837 0.88714 0.0
C470 C 0.83797 0.70008 0.86416 0.0
C471 C 0.79912 0.69824 0.81774 0.0
C472 C 0.80416 0.71506 0.8092 0.0
C473 C 0.81101 0.69634 0.82987 0.0
C474 C 0.82824 0.7112 0.8337 0.0
C475 C 0.82132 0.73004 0.81357 0.0
C476 C 0.83331 0.72805 0.8255 0.0
C477 C 0.84137 0.70865 0.84449 0.0
C478 C 0.89587 0.69783 0.80489 0.0
C479 C 0.90952 0.71524 0.79887 0.0
C480 C 0.88256 0.69566 0.81883 0.0
C481 C 0.88245 0.71079 0.82687 0.0
C482 C 0.90938 0.7304 0.80716 0.0
C483 C 0.89583 0.72816 0.82081 0.0
C484 C 0.86799 0.70831 0.84099 0.0
C485 C 0.90456 0.69986 0.8811 0.0
C486 C 0.89643 0.68273 0.89028 0.0
C487 C 0.89432 0.70536 0.87104 0.0
C488 C 0.87579 0.69372 0.86974 0.0
C489 C 0.87789 0.67114 0.88889 0.0
C490 C 0.86771 0.67659 0.87876 0.0
C491 C 0.86445 0.69955 0.86051 0.0
H492 H 0.79964 0.71337 0.89948 0.0
H493 H 0.82431 0.72111 0.87529 0.0
H494 H 0.79231 0.66074 0.90806 0.0
H495 H 0.81695 0.66853 0.88395 0.0
H496 H 0.78622 0.68628 0.81434 0.0
H497 H 0.80696 0.68308 0.83558 0.0
H498 H 0.82561 0.74326 0.80754 0.0
H499 H 0.84659 0.73965 0.82818 0.0
H500 H 0.89516 0.68579 0.79847 0.0
H501 H 0.87214 0.68211 0.82306 0.0
H502 H 0.91976 0.74402 0.8032 0.0
H503 H 0.8959 0.73999 0.82687 0.0
H504 H 0.91882 0.70908 0.88182 0.0
H505 H 0.90086 0.71886 0.86479 0.0
H506 H 0.87114 0.65801 0.89614 0.0
H507 H 0.85343 0.66744 0.87816 0.0
N508 N 0.84961 0.69583 0.8713 0.0
N509 N 0.85634 0.71255 0.83369 0.0
C510 C 0.76335 0.63444 0.45626 0.0
C511 C 0.77112 0.64833 0.44139 0.0
C512 C 0.774 0.63085 0.46875 0.0
C513 C 0.79256 0.64119 0.46662 0.0
C514 C 0.7897 0.65859 0.43945 0.0
C515 C 0.80026 0.65497 0.45178 0.0
C516 C 0.80443 0.63804 0.47939 0.0
C517 C 0.77742 0.65714 0.52419 0.0
C518 C 0.76774 0.64481 0.54022 0.0
C519 C 0.78948 0.65521 0.51174 0.0
C520 C 0.79184 0.64069 0.5148 0.0
C521 C 0.77045 0.63055 0.5436 0.0
C522 C 0.78244 0.62855 0.53102 0.0
C523 C 0.8046 0.63851 0.50178 0.0
C524 C 0.87898 0.65936 0.51804 0.0
C525 C 0.87738 0.65217 0.53818 0.0
C526 C 0.86399 0.65446 0.50605 0.0
C527 C 0.84695 0.64158 0.51338 0.0
C528 C 0.86031 0.6393 0.54561 0.0
C529 C 0.84524 0.63409 0.53333 0.0
C530 C 0.83099 0.63754 0.50127 0.0
C531 C 0.86116 0.62111 0.45864 0.0
C532 C 0.86846 0.63187 0.4407 0.0
C533 C 0.84841 0.62203 0.47096 0.0
C534 C 0.84286 0.63383 0.46563 0.0
C535 C 0.86244 0.64321 0.43504 0.0
C536 C 0.84971 0.64411 0.44733 0.0
C537 C 0.82996 0.63564 0.4789 0.0
H538 H 0.74906 0.62619 0.45801 0.0
H539 H 0.76778 0.61998 0.47993 0.0
H540 H 0.79618 0.66965 0.42854 0.0
H541 H 0.81455 0.66318 0.44995 0.0
H542 H 0.77591 0.6685 0.52155 0.0
H543 H 0.79708 0.66515 0.49985 0.0
H544 H 0.76316 0.62083 0.55582 0.0
H545 H 0.78424 0.6174 0.53381 0.0
H546 H 0.89186 0.66908 0.51156 0.0
H547 H 0.8658 0.66119 0.49124 0.0
H548 H 0.85851 0.63367 0.56118 0.0
H549 H 0.83223 0.62443 0.53956 0.0
H550 H 0.86558 0.61228 0.46342 0.0
H551 H 0.84303 0.61366 0.48474 0.0
H552 H 0.86757 0.65141 0.42109 0.0
H553 H 0.84551 0.65319 0.44277 0.0
N554 N 0.81697 0.63639 0.46889 0.0
N555 N 0.81797 0.63839 0.51187 0.0
C556 C 0.32949 0.21607 0.46844 0.0
C557 C 0.33971 0.22523 0.45067 0.0
C558 C 0.33413 0.20615 0.48074 0.0
C559 C 0.34908 0.20525 0.47549 0.0
C560 C 0.35474 0.22442 0.44553 0.0
C561 C 0.35928 0.21435 0.45774 0.0
C562 C 0.35318 0.19359 0.48738 0.0
C563 C 0.36473 0.23942 0.53389 0.0
C564 C 0.3558 0.23385 0.55337 0.0
C565 C 0.36394 0.22661 0.51919 0.0
C566 C 0.35387 0.20802 0.52362 0.0
C567 C 0.34543 0.21529 0.5575 0.0
C568 C 0.34447 0.20254 0.54279 0.0
C569 C 0.35432 0.19423 0.50972 0.0
C570 C 0.37385 0.14043 0.53054 0.0
C571 C 0.36181 0.1317 0.54723 0.0
C572 C 0.3719 0.15186 0.51729 0.0
C573 C 0.35795 0.15481 0.52064 0.0
C574 C 0.34754 0.1343 0.54996 0.0
C575 C 0.34578 0.14591 0.53698 0.0
C576 C 0.35653 0.16808 0.50832 0.0
C577 C 0.33892 0.12027 0.46387 0.0
C578 C 0.34915 0.12393 0.44533 0.0
C579 C 0.3413 0.13439 0.47739 0.0
C580 C 0.35408 0.15245 0.4728 0.0
C581 C 0.36204 0.14203 0.44085 0.0
C582 C 0.36439 0.15616 0.4544 0.0
C583 C 0.35553 0.1675 0.48602 0.0
H584 H 0.31789 0.21656 0.47278 0.0
H585 H 0.32582 0.19886 0.49408 0.0
H586 H 0.36272 0.23121 0.43177 0.0
H587 H 0.37071 0.21359 0.45328 0.0
H588 H 0.3729 0.25369 0.53046 0.0
H589 H 0.37174 0.2313 0.50482 0.0
H590 H 0.33826 0.21065 0.57232 0.0
H591 H 0.33662 0.18832 0.54662 0.0
H592 H 0.38507 0.13886 0.52809 0.0
H593 H 0.38157 0.15884 0.50489 0.0
H594 H 0.3377 0.12743 0.56222 0.0
H595 H 0.33488 0.14797 0.53973 0.0
H596 H 0.32862 0.10653 0.46756 0.0
H597 H 0.3327 0.13118 0.49106 0.0
H598 H 0.37024 0.1453 0.4268 0.0
H599 H 0.37419 0.17001 0.45043 0.0
N600 N 0.35396 0.18034 0.47638 0.0
N601 N 0.35589 0.18138 0.51925 0.0
C602 C 0.77535 0.12113 0.46737 0.0
C603 C 0.76566 0.12072 0.44976 0.0
C604 C 0.78796 0.13759 0.47695 0.0
C605 C 0.79089 0.15397 0.46942 0.0
C606 C 0.76916 0.13715 0.44159 0.0
C607 C 0.78172 0.15368 0.45135 0.0
C608 C 0.80392 0.17135 0.48009 0.0
C609 C 0.75926 0.1405 0.52558 0.0
C610 C 0.76415 0.13487 0.54346 0.0
C611 C 0.77225 0.15344 0.5123 0.0
C612 C 0.79034 0.16087 0.51659 0.0
C613 C 0.78227 0.14275 0.54805 0.0
C614 C 0.79522 0.15568 0.5348 0.0
C615 C 0.80431 0.17403 0.50229 0.0
C616 C 0.86835 0.24942 0.51796 0.0
C617 C 0.87459 0.24549 0.53612 0.0
C618 C 0.85464 0.23544 0.50568 0.0
C619 C 0.84712 0.21728 0.51123 0.0
C620 C 0.86687 0.22729 0.54162 0.0
C621 C 0.85336 0.2134 0.52933 0.0
C622 C 0.832 0.20207 0.49945 0.0
C623 C 0.87607 0.22726 0.45072 0.0
C624 C 0.87182 0.23346 0.43279 0.0
C625 C 0.863 0.2167 0.46551 0.0
C626 C 0.84548 0.21231 0.46277 0.0
C627 C 0.85428 0.22915 0.43022 0.0
C628 C 0.84123 0.21857 0.445 0.0
C629 C 0.83119 0.19979 0.47712 0.0
H630 H 0.77325 0.1087 0.47368 0.0
H631 H 0.7954 0.13749 0.49034 0.0
H632 H 0.76188 0.1372 0.428 0.0
H633 H 0.78402 0.16619 0.44506 0.0
H634 H 0.7454 0.13465 0.52164 0.0
H635 H 0.76816 0.15755 0.4986 0.0
H636 H 0.78645 0.13895 0.56193 0.0
H637 H 0.8091 0.16137 0.53855 0.0
H638 H 0.87401 0.26329 0.51325 0.0
H639 H 0.84975 0.23886 0.49214 0.0
H640 H 0.87095 0.2237 0.55577 0.0
H641 H 0.84766 0.19954 0.53411 0.0
H642 H 0.88937 0.23006 0.45297 0.0
H643 H 0.86648 0.21154 0.47876 0.0
H644 H 0.85061 0.23389 0.41674 0.0
H645 H 0.82774 0.21517 0.44249 0.0
N646 N 0.81719 0.18448 0.46831 0.0
N647 N 0.81844 0.18912 0.51108 0.0
C648 C 0.96698 0.53184 0.15287 0.0
C649 C 0.97726 0.53794 0.13432 0.0
C650 C 0.96859 0.52036 0.16637 0.0
C651 C 0.98059 0.51486 0.1616 0.0
C652 C 0.98902 0.53214 0.12943 0.0
C653 C 0.99058 0.52064 0.14288 0.0
C654 C 0.98241 0.50261 0.17556 0.0
C655 C 0.00344 0.55481 0.21211 0.0
C656 C 0.99391 0.55357 0.23063 0.0
C657 C 0.00051 0.53918 0.20142 0.0
C658 C 0.98776 0.52199 0.20885 0.0
C659 C 0.98146 0.53635 0.23835 0.0
C660 C 0.97847 0.5207 0.22758 0.0
C661 C 0.98473 0.50538 0.19772 0.0
C662 C 0.00241 0.45097 0.22327 0.0
C663 C 0.99315 0.44568 0.24259 0.0
C664 C -0.0005 0.46125 0.20923 0.0
C665 C 0.98704 0.46611 0.21406 0.0
C666 C 0.98076 0.45064 0.24745 0.0
C667 C 0.97778 0.4608 0.23334 0.0
C668 C 0.98467 0.47803 0.20013 0.0
C669 C 0.9678 0.4277 0.15897 0.0
C670 C 0.97851 0.43116 0.14089 0.0
C671 C 0.9694 0.44205 0.1715 0.0
C672 C 0.9817 0.46005 0.16608 0.0
C673 C 0.9909 0.4492 0.13571 0.0
C674 C 0.9924 0.46348 0.1481 0.0
C675 C 0.98272 0.47549 0.17789 0.0
H676 H 0.95784 0.53612 0.15707 0.0
H677 H 0.96041 0.51571 0.18048 0.0
H678 H 0.99689 0.53636 0.11507 0.0
H679 H -0.00024 0.51639 0.13877 0.0
H680 H 0.01339 0.56788 0.20604 0.0
H681 H 0.00834 0.54054 0.18746 0.0
H682 H 0.97386 0.53498 0.25253 0.0
H683 H 0.96875 0.50757 0.23373 0.0
H684 H 0.01227 0.44762 0.21929 0.0
H685 H 0.00735 0.46577 0.19487 0.0
H686 H 0.97333 0.44662 0.26214 0.0
H687 H 0.96825 0.46458 0.23752 0.0
H688 H 0.95815 0.41392 0.16333 0.0
H689 H 0.96076 0.43911 0.18508 0.0
H690 H -0.00089 0.45232 0.12167 0.0
H691 H 0.00185 0.47726 0.14352 0.0
N692 N 0.98168 0.48788 0.16651 0.0
N693 N 0.98556 0.49289 0.20918 0.0
C694 C 0.46874 0.43247 0.15181 0.0
C695 C 0.46143 0.43782 0.13618 0.0
C696 C 0.48134 0.44528 0.16613 0.0
C697 C 0.48665 0.4636 0.16522 0.0
C698 C 0.46683 0.45616 0.13534 0.0
C699 C 0.47934 0.4689 0.14962 0.0
C700 C 0.50036 0.47759 0.17966 0.0
C701 C 0.45439 0.44274 0.22206 0.0
C702 C 0.45786 0.43458 0.2386 0.0
C703 C 0.46822 0.45577 0.20978 0.0
C704 C 0.4858 0.46064 0.21342 0.0
C705 C 0.47547 0.43943 0.24219 0.0
C706 C 0.48931 0.45241 0.22977 0.0
C707 C 0.50063 0.47565 0.20178 0.0
C708 C 0.5546 0.55051 0.23306 0.0
C709 C 0.56506 0.54728 0.2465 0.0
C710 C 0.54216 0.53677 0.21951 0.0
C711 C 0.5401 0.51961 0.21897 0.0
C712 C 0.56262 0.52993 0.2463 0.0
C713 C 0.55016 0.51619 0.23274 0.0
C714 C 0.52701 0.50502 0.20465 0.0
C715 C 0.56853 0.54862 0.16267 0.0
C716 C 0.56142 0.55603 0.14957 0.0
C717 C 0.55727 0.53274 0.17362 0.0
C718 C 0.53875 0.52409 0.17164 0.0
C719 C 0.54289 0.54717 0.14749 0.0
C720 C 0.53171 0.53136 0.15834 0.0
C721 C 0.52638 0.50718 0.18267 0.0
H722 H 0.46498 0.41846 0.15269 0.0
H723 H 0.48711 0.44091 0.17767 0.0
H724 H 0.46123 0.46068 0.12374 0.0
H725 H 0.48323 0.48294 0.14858 0.0
H726 H 0.44098 0.43921 0.21872 0.0
H727 H 0.46517 0.46237 0.1978 0.0
H728 H 0.47863 0.4336 0.25501 0.0
H729 H 0.5028 0.45621 0.23313 0.0
H730 H 0.55623 0.56374 0.23274 0.0
H731 H 0.53418 0.53957 0.20943 0.0
H732 H 0.57028 0.52695 0.25672 0.0
H733 H 0.54853 0.50294 0.2328 0.0
H734 H 0.58276 0.55514 0.16451 0.0
H735 H 0.56301 0.52715 0.18346 0.0
H736 H 0.53699 0.55227 0.13714 0.0
H737 H 0.51748 0.52483 0.15641 0.0
N738 N 0.51313 0.49336 0.17107 0.0
N739 N 0.51412 0.48934 0.21336 0.0
C740 C 0.46055 0.02415 0.22559 0.0
C741 C 0.45342 0.01435 0.24423 0.0
C742 C 0.47216 0.02162 0.21295 0.0
C743 C 0.47675 0.00914 0.21861 0.0
C744 C 0.45821 0.00202 0.24999 0.0
C745 C 0.46988 -0.00045 0.23737 0.0
C746 C 0.48925 0.00657 0.20553 0.0
C747 C 0.43988 0.98468 0.16693 0.0
C748 C 0.44201 0.99294 0.14737 0.0
C749 C 0.45462 0.98809 0.17857 0.0
C750 C 0.47189 0.00025 0.17126 0.0
C751 C 0.45932 0.00496 0.13994 0.0
C752 C 0.4741 0.00853 0.15175 0.0
C753 C 0.48762 0.00362 0.1833 0.0
C754 C 0.54726 0.99106 0.1626 0.0
C755 C 0.55278 -0.00011 0.14311 0.0
C756 C 0.53475 0.99216 0.17517 0.0
C757 C 0.52801 0.00277 0.16908 0.0
C758 C 0.54544 0.00992 0.13666 0.0
C759 C 0.53328 0.01139 0.14954 0.0
C760 C 0.51493 0.00439 0.18237 0.0
C761 C 0.56284 0.02439 0.22452 0.0
C762 C 0.55939 0.01299 0.24163 0.0
C763 C 0.54888 0.02248 0.21237 0.0
C764 C 0.53126 0.00911 0.21713 0.0
C765 C 0.54171 -0.00026 0.24644 0.0
C766 C 0.52778 0.99792 0.2344 0.0
C767 C 0.5163 0.00695 0.20467 0.0
H768 H 0.45701 0.03365 0.22065 0.0
H769 H 0.47761 0.02949 0.1988 0.0
H770 H 0.45311 0.99446 0.2644 0.0
H771 H 0.47342 0.99001 0.24216 0.0
H772 H 0.42678 0.97548 0.17327 0.0
H773 H 0.45247 0.98101 0.19319 0.0
H774 H 0.46148 0.01131 0.12478 0.0
H775 H 0.48728 0.01775 0.14561 0.0
H776 H 0.55262 0.98332 0.16832 0.0
H777 H 0.53035 0.9846 0.18963 0.0
H778 H 0.54886 0.01648 0.12153 0.0
H779 H 0.528 0.01935 0.14421 0.0
H780 H 0.57634 0.03469 0.22044 0.0
H781 H 0.55183 0.03146 0.19932 0.0
H782 H 0.53864 0.99096 0.25973 0.0
H783 H 0.51426 0.98765 0.23844 0.0
N784 N 0.5034 0.0079 0.21534 0.0
N785 N 0.50062 0.00285 0.17258 0.0
C786 C 0.54753 0.00083 0.81032 0.0
C787 C 0.54684 0.99143 0.79145 0.0
C788 C 0.53202 0.99617 0.82138 0.0
C789 C 0.51551 0.98203 0.81382 0.0
C790 C 0.53018 0.97762 0.78358 0.0
C791 C 0.51463 0.97305 0.79463 0.0
C792 C 0.49923 0.97669 0.82604 0.0
C793 C 0.53017 0.95793 0.85863 0.0
C794 C 0.53866 0.96843 0.87698 0.0
C795 C 0.51627 0.95849 0.84945 0.0
C796 C 0.51067 0.96963 0.85837 0.0
C797 C 0.53249 0.97898 0.88637 0.0
C798 C 0.51854 0.97948 0.8772 0.0
C799 C 0.49733 0.97178 0.84746 0.0
C800 C 0.42263 0.95289 0.86708 0.0
C801 C 0.42538 0.96177 0.88693 0.0
C802 C 0.43705 0.95553 0.85487 0.0
C803 C 0.45449 0.96719 0.86224 0.0
C804 C 0.44284 0.97308 0.89448 0.0
C805 C 0.45725 0.97567 0.8823 0.0
C806 C 0.46991 0.97057 0.84923 0.0
C807 C 0.44615 0.99719 0.81425 0.0
C808 C 0.43905 0.98908 0.79434 0.0
C809 C 0.45638 0.99234 0.82546 0.0
C810 C 0.45965 0.97929 0.81693 0.0
C811 C 0.44212 0.97581 0.78599 0.0
C812 C 0.45249 0.97109 0.79712 0.0
C813 C 0.4718 0.97536 0.82771 0.0
H814 H 0.56006 0.01184 0.81655 0.0
H815 H 0.53292 0.00357 0.83593 0.0
H816 H 0.52918 0.97002 0.76919 0.0
H817 H 0.50196 0.96218 0.7885 0.0
H818 H 0.53433 0.94936 0.85126 0.0
H819 H 0.51011 0.95048 0.83514 0.0
H820 H 0.53883 0.98734 0.9004 0.0
H821 H 0.51439 0.98815 0.88432 0.0
H822 H 0.40934 0.94413 0.86081 0.0
H823 H 0.43457 0.94851 0.83964 0.0
H824 H 0.44537 0.97986 0.90987 0.0
H825 H 0.47058 0.98458 0.88838 0.0
H826 H 0.44392 0.0074 0.82106 0.0
H827 H 0.46212 0.99914 0.84051 0.0
H828 H 0.43697 0.96951 0.77055 0.0
H829 H 0.45508 0.96116 0.79018 0.0
N830 N 0.48636 0.97818 0.81689 0.0
N831 N 0.48282 0.96905 0.85837 0.0
C832 C 0.00081 0.55492 0.79401 0.0
C833 C 0.00803 0.55973 0.77355 0.0
C834 C 0.00503 0.54487 0.80676 0.0
C835 C 0.01687 0.53977 0.79948 0.0
C836 C 0.01982 0.55459 0.76627 0.0
C837 C 0.02416 0.54468 0.7791 0.0
C838 C 0.02042 0.52791 0.81206 0.0
C839 C 0.04143 0.57865 0.85313 0.0
C840 C 0.03188 0.57587 0.87209 0.0
C841 C 0.03859 0.56385 0.84047 0.0
C842 C 0.02623 0.54607 0.84664 0.0
C843 C 0.01955 0.55806 0.87818 0.0
C844 C 0.01687 0.54332 0.86567 0.0
C845 C 0.02372 0.53025 0.83411 0.0
C846 C 0.04015 0.47317 0.85339 0.0
C847 C 0.02989 0.46603 0.87181 0.0
C848 C 0.03844 0.48531 0.84118 0.0
C849 C 0.0263 0.49038 0.84706 0.0
C850 C 0.01808 0.47151 0.8779 0.0
C851 C 0.01638 0.48362 0.8657 0.0
C852 C 0.02408 0.50302 0.83427 0.0
C853 C 0.00629 0.45286 0.79398 0.0
C854 C 0.01586 0.45595 0.77495 0.0
C855 C 0.00776 0.46735 0.80601 0.0
C856 C 0.01912 0.48524 0.79951 0.0
C857 C 0.02673 0.47385 0.76814 0.0
C858 C 0.02832 0.48832 0.78029 0.0
C859 C 0.02109 0.50082 0.81215 0.0
H860 H 0.99145 0.55844 0.79989 0.0
H861 H 0.9986 0.54065 0.82204 0.0
H862 H 0.0257 0.55823 0.75064 0.0
H863 H 0.03316 0.54075 0.77302 0.0
H864 H 0.051 0.59223 0.84808 0.0
H865 H 0.04624 0.56628 0.82605 0.0
H866 H 0.0122 0.55552 0.89287 0.0
H867 H 0.00743 0.52972 0.87084 0.0
H868 H 0.04934 0.46919 0.84825 0.0
H869 H 0.04657 0.4907 0.82714 0.0
H870 H 0.01025 0.46657 0.89223 0.0
H871 H 0.00711 0.48754 0.87069 0.0
H872 H 0.99784 0.43928 0.79976 0.0
H873 H 2e-05 0.46454 0.82041 0.0
H874 H 0.03396 0.4767 0.75334 0.0
H875 H 0.03691 0.50198 0.77475 0.0
N876 N 0.01943 0.51337 0.80194 0.0
N877 N 0.02522 0.51762 0.84437 0.0
C878 C 0.54296 0.57081 0.77434 0.0
C879 C 0.54793 0.56265 0.7584 0.0
C880 C 0.52873 0.56013 0.78789 0.0
C881 C 0.51938 0.54115 0.78581 0.0
C882 C 0.53873 0.54365 0.75673 0.0
C883 C 0.52456 0.53305 0.77018 0.0
C884 C 0.50346 0.52944 0.79868 0.0
C885 C 0.54907 0.55568 0.84472 0.0
C886 C 0.54714 0.56515 0.86196 0.0
C887 C 0.53482 0.54468 0.83119 0.0
C888 C 0.51842 0.54323 0.83427 0.0
C889 C 0.53071 0.56373 0.86498 0.0
C890 C 0.51649 0.55282 0.85131 0.0
C891 C 0.50284 0.5306 0.82101 0.0
C892 C 0.43537 0.46041 0.84065 0.0
C893 C 0.42885 0.46606 0.85762 0.0
C894 C 0.44985 0.47312 0.82882 0.0
C895 C 0.4577 0.49176 0.83326 0.0
C896 C 0.4372 0.48463 0.86272 0.0
C897 C 0.45149 0.49738 0.8506 0.0
C898 C 0.47284 0.50538 0.82051 0.0
C899 C 0.42681 0.4737 0.77558 0.0
C900 C 0.43035 0.46575 0.75808 0.0
C901 C 0.44073 0.48664 0.78847 0.0
C902 C 0.45827 0.49122 0.78452 0.0
C903 C 0.44788 0.47084 0.75359 0.0
C904 C 0.46169 0.4834 0.76674 0.0
C905 C 0.47334 0.50458 0.79808 0.0
H906 H 0.54968 0.58542 0.77588 0.0
H907 H 0.52475 0.56669 0.79957 0.0
H908 H 0.54241 0.53694 0.74489 0.0
H909 H 0.51755 0.51843 0.7683 0.0
H910 H 0.56157 0.55657 0.84181 0.0
H911 H 0.53654 0.53696 0.81866 0.0
H912 H 0.52865 0.57057 0.87829 0.0
H913 H 0.50388 0.55168 0.8542 0.0
H914 H 0.42939 0.44614 0.83671 0.0
H915 H 0.45487 0.46835 0.81617 0.0
H916 H 0.43244 0.48929 0.87581 0.0
H917 H 0.45754 0.51166 0.85459 0.0
H918 H 0.41334 0.47001 0.77912 0.0
H919 H 0.43774 0.49299 0.80151 0.0
H920 H 0.45082 0.46481 0.74014 0.0
H921 H 0.47508 0.48682 0.76314 0.0
N922 N 0.48869 0.51654 0.78819 0.0
N923 N 0.48753 0.51854 0.83103 0.0
C924 C 0.6416 0.78092 0.47942 0.0
C925 C 0.62604 0.7695 0.46765 0.0
C926 C 0.64201 0.79293 0.49497 0.0
C927 C 0.62687 0.79377 0.49907 0.0
C928 C 0.61077 0.77008 0.47225 0.0
C929 C 0.61126 0.78223 0.48764 0.0
C930 C 0.62765 0.80764 0.51392 0.0
C931 C 0.63302 0.77003 0.5579 0.0
C932 C 0.64857 0.77888 0.57028 0.0
C933 C 0.62853 0.78003 0.54535 0.0
C934 C 0.63963 0.79898 0.54489 0.0
C935 C 0.65999 0.79773 0.56895 0.0
C936 C 0.65552 0.80766 0.55649 0.0
C937 C 0.63397 0.81024 0.53486 0.0
C938 C 0.61954 0.86582 0.57262 0.0
C939 C 0.63374 0.87372 0.58705 0.0
C940 C 0.61833 0.85345 0.55695 0.0
C941 C 0.63165 0.84933 0.5551 0.0
C942 C 0.64692 0.86952 0.5853 0.0
C943 C 0.64594 0.85753 0.56944 0.0
C944 C 0.63034 0.83543 0.53972 0.0
C945 C 0.63069 0.8774 0.50002 0.0
C946 C 0.6166 0.87106 0.48564 0.0
C947 C 0.63338 0.86521 0.51065 0.0
C948 C 0.6216 0.84641 0.50775 0.0
C949 C 0.60512 0.85233 0.48218 0.0
C950 C 0.60756 0.84011 0.49322 0.0
C951 C 0.62465 0.83332 0.51841 0.0
H952 H 0.65371 0.78112 0.47607 0.0
H953 H 0.65435 0.80202 0.50325 0.0
H954 H 0.59847 0.7613 0.46378 0.0
H955 H 0.59945 0.78271 0.49053 0.0
H956 H 0.62392 0.75552 0.55871 0.0
H957 H 0.61602 0.77306 0.53689 0.0
H958 H 0.67223 0.80489 0.57797 0.0
H959 H 0.66428 0.82227 0.55637 0.0
H960 H 0.60917 0.86882 0.57387 0.0
H961 H 0.60685 0.84687 0.54663 0.0
H962 H 0.65803 0.87557 0.59621 0.0
H963 H 0.65633 0.85453 0.5685 0.0
H964 H 0.63995 0.8918 0.50254 0.0
H965 H 0.64487 0.87055 0.52085 0.0
H966 H 0.59425 0.84718 0.471 0.0
H967 H 0.59849 0.82571 0.49036 0.0
N968 N 0.62327 0.8193 0.50649 0.0
N969 N 0.63491 0.8239 0.54687 0.0
C970 C 0.13091 0.75549 0.50127 0.0
C971 C 0.12216 0.75848 0.48502 0.0
C972 C 0.14395 0.77004 0.51354 0.0
C973 C 0.14846 0.7878 0.50967 0.0
C974 C 0.12635 0.77622 0.48169 0.0
C975 C 0.13946 0.79073 0.49379 0.0
C976 C 0.16375 0.80358 0.52038 0.0
C977 C 0.12261 0.77721 0.57144 0.0
C978 C 0.12778 0.7712 0.58872 0.0
C979 C 0.13498 0.78801 0.55615 0.0
C980 C 0.15275 0.79292 0.55771 0.0
C981 C 0.14559 0.77609 0.5902 0.0
C982 C 0.15796 0.78694 0.57491 0.0
C983 C 0.16622 0.80552 0.54255 0.0
C984 C 0.22711 0.88274 0.55322 0.0
C985 C 0.23553 0.88083 0.57069 0.0
C986 C 0.21353 0.86748 0.54254 0.0
C987 C 0.20849 0.85 0.5487 0.0
C988 C 0.23019 0.86339 0.57725 0.0
C989 C 0.2168 0.84811 0.56632 0.0
C990 C 0.19367 0.83365 0.53804 0.0
C991 C 0.23366 0.8621 0.48519 0.0
C992 C 0.22698 0.8666 0.46797 0.0
C993 C 0.22221 0.85102 0.50113 0.0
C994 C 0.20397 0.84456 0.50027 0.0
C995 C 0.2088 0.86033 0.46739 0.0
C996 C 0.19743 0.8494 0.4833 0.0
C997 C 0.19122 0.8316 0.5158 0.0
H998 H 0.12791 0.74195 0.50419 0.0
H999 H 0.15096 0.7675 0.52546 0.0
H1000 H 0.12005 0.779 0.46908 0.0
H1001 H 0.14285 0.80434 0.49042 0.0
H1002 H 0.10911 0.77404 0.57005 0.0
H1003 H 0.13073 0.79297 0.54346 0.0
H1004 H 0.14997 0.77156 0.6032 0.0
H1005 H 0.17165 0.79071 0.57654 0.0
H1006 H 0.23077 0.89607 0.54815 0.0
H1007 H 0.20678 0.8694 0.5297 0.0
H1008 H 0.23649 0.86159 0.5907 0.0
H1009 H 0.21295 0.83479 0.57162 0.0
H1010 H 0.24759 0.86661 0.48594 0.0
H1011 H 0.22752 0.84712 0.51378 0.0
H1012 H 0.20331 0.86381 0.4545 0.0
H1013 H 0.18343 0.84457 0.48224 0.0
N1014 N 0.17631 0.8167 0.50795 0.0
N1015 N 0.18112 0.82044 0.55049 0.0
C1016 C 0.24607 0.38049 0.50042 0.0
C1017 C 0.24244 0.37117 0.48072 0.0
C1018 C 0.23221 0.37874 0.51315 0.0
C1019 C 0.21449 0.36752 0.50646 0.0
C1020 C 0.22468 0.3599 0.47419 0.0
C1021 C 0.2109 0.35819 0.48686 0.0
C1022 C 0.19956 0.36605 0.51894 0.0
C1023 C 0.2202 0.33996 0.56126 0.0
C1024 C 0.22597 0.34838 0.58141 0.0
C1025 C 0.21167 0.3453 0.54756 0.0
C1026 C 0.20886 0.35924 0.55369 0.0
C1027 C 0.22363 0.36274 0.58716 0.0
C1028 C 0.21502 0.36799 0.57351 0.0
C1029 C 0.1974 0.363 0.54094 0.0
C1030 C 0.12187 0.33721 0.55575 0.0
C1031 C 0.12248 0.34609 0.57498 0.0
C1032 C 0.13734 0.34285 0.54407 0.0
C1033 C 0.15369 0.35748 0.5514 0.0
C1034 C 0.13882 0.36088 0.58219 0.0
C1035 C 0.15435 0.3664 0.57058 0.0
C1036 C 0.17023 0.36237 0.54001 0.0
C1037 C 0.13997 0.37817 0.49948 0.0
C1038 C 0.13435 0.36855 0.47997 0.0
C1039 C 0.15253 0.37749 0.51181 0.0
C1040 C 0.15956 0.36702 0.50499 0.0
C1041 C 0.1418 0.35851 0.47291 0.0
C1042 C 0.15433 0.35782 0.48526 0.0
C1043 C 0.17249 0.36568 0.51808 0.0
H1044 H 0.25962 0.38941 0.50578 0.0
H1045 H 0.23535 0.38644 0.52797 0.0
H1046 H 0.22138 0.35223 0.45933 0.0
H1047 H 0.19735 0.34945 0.48135 0.0
H1048 H 0.22154 0.32869 0.55643 0.0
H1049 H 0.20656 0.33797 0.53261 0.0
H1050 H 0.2282 0.36976 0.60238 0.0
H1051 H 0.21284 0.37867 0.57862 0.0
H1052 H 0.10943 0.32583 0.5498 0.0
H1053 H 0.13659 0.33549 0.52954 0.0
H1054 H 0.13966 0.36785 0.59707 0.0
H1055 H 0.16689 0.37755 0.57664 0.0
H1056 H 0.13472 0.38629 0.50516 0.0
H1057 H 0.15677 0.38519 0.52666 0.0
H1058 H 0.13763 0.3508 0.45807 0.0
H1059 H 0.15963 0.34973 0.4796 0.0
N1060 N 0.18701 0.36727 0.5084 0.0
N1061 N 0.18283 0.36133 0.55061 0.0
H1062 H 0.01205 0.38598 0.05702 0.0
H1063 H 0.9569 0.34748 0.0406 0.0
H1064 H 0.94746 0.3603 0.06965 0.0
H1065 H 0.00597 0.38626 0.11425 0.0
H1066 H 0.02211 0.41019 0.11719 0.0
H1067 H 0.02439 0.39712 0.0961 0.0
H1068 H 0.02523 0.41903 0.0685 0.0
H1069 H 0.02301 0.43218 0.08948 0.0
H1070 H 0.00737 0.42315 0.06784 0.0
H1071 H 0.94421 0.37841 0.09957 0.0
H1072 H 0.9475 0.40132 0.12646 0.0
H1073 H 0.00477 0.42761 0.12294 0.0
C1074 C 0.99796 0.38009 0.05962 0.0
C1075 C 0.9852 0.36569 0.04658 0.0
C1076 C 0.96692 0.35852 0.05041 0.0
C1077 C 0.96143 0.36565 0.06692 0.0
C1078 C 0.97439 0.37991 0.07943 0.0
C1079 C 0.99228 0.38706 0.07592 0.0
C1080 C 0.00361 0.40297 0.0908 0.0
C1081 C 0.01467 0.39888 0.10545 0.0
C1082 C 0.01549 0.42035 0.07841 0.0
C1083 C 0.98932 0.4039 0.10301 0.0
C1084 C 0.97254 0.39037 0.09644 0.0
C1085 C 0.95728 0.38896 0.10497 0.0
C1086 C 0.95927 0.40195 0.12031 0.0
C1087 C 0.97638 0.41621 0.12677 0.0
C1088 C 0.99153 0.41691 0.11824 0.0
H1089 H 0.63282 0.61307 0.06104 0.0
H1090 H 0.6074 0.64387 0.05732 0.0
H1091 H 0.58991 0.62916 0.08937 0.0
H1092 H 0.5942 0.57252 0.07355 0.0
H1093 H 0.6045 0.56481 0.09116 0.0
H1094 H 0.61728 0.57994 0.07029 0.0
H1095 H 0.64025 0.60255 0.09789 0.0
H1096 H 0.62747 0.58746 0.1189 0.0
H1097 H 0.63291 0.61058 0.12 0.0
H1098 H 0.57354 0.60966 0.11951 0.0
H1099 H 0.55718 0.58454 0.14408 0.0
H1100 H 0.59156 0.56464 0.12708 0.0
C1101 C 0.62389 0.61699 0.06738 0.0
C1102 C 0.62154 0.62971 0.05701 0.0
C1103 C 0.60937 0.63418 0.06519 0.0
C1104 C 0.5995 0.62601 0.08344 0.0
C1105 C 0.60185 0.61327 0.09316 0.0
C1106 C 0.61362 0.60864 0.08536 0.0
C1107 C 0.61194 0.59292 0.09724 0.0
C1108 C 0.60666 0.57659 0.08216 0.0
C1109 C 0.62917 0.59873 0.10922 0.0
C1110 C 0.59705 0.58914 0.11247 0.0
C1111 C 0.59175 0.60133 0.11014 0.0
C1112 C 0.57763 0.60009 0.1216 0.0
C1113 C 0.56835 0.58571 0.1354 0.0
C1114 C 0.57303 0.57258 0.1374 0.0
C1115 C 0.58786 0.57462 0.12615 0.0
H1116 H 0.38499 0.01042 0.0652 0.0
H1117 H 0.34432 0.95334 0.07011 0.0
H1118 H 0.36226 0.95002 0.09674 0.0
H1119 H 0.42189 0.00535 0.06902 0.0
H1120 H 0.43534 0.02575 0.08477 0.0
H1121 H 0.41889 0.02419 0.06699 0.0
H1122 H 0.40432 0.03182 0.09812 0.0
H1123 H 0.42082 0.03353 0.11598 0.0
H1124 H 0.39756 0.01834 0.12153 0.0
H1125 H 0.38508 0.95213 0.12087 0.0
H1126 H 0.41125 0.95984 0.14217 0.0
H1127 H 0.4371 0.01577 0.12293 0.0
C1128 C 0.37977 0.99729 0.07209 0.0
C1129 C 0.36323 0.98214 0.06554 0.0
C1130 C 0.35694 0.96515 0.07481 0.0
C1131 C 0.36702 0.96311 0.09 0.0
C1132 C 0.38336 0.97819 0.09585 0.0
C1133 C 0.38969 0.99499 0.08734 0.0
C1134 C 0.40797 0.00881 0.09602 0.0
C1135 C 0.42183 0.01647 0.07813 0.0
C1136 C 0.40764 0.02402 0.10866 0.0
C1137 C 0.41097 0.99705 0.11044 0.0
C1138 C 0.39656 0.97946 0.11011 0.0
C1139 C 0.39636 0.96593 0.12153 0.0
C1140 C 0.41128 0.97049 0.1337 0.0
C1141 C 0.42622 0.98847 0.13449 0.0
C1142 C 0.42596 0.00189 0.12264 0.0
H1143 H 0.37477 0.99321 0.96497 0.0
H1144 H 0.33166 0.93691 0.96739 0.0
H1145 H 0.34737 0.92857 0.94125 0.0
H1146 H 0.38477 0.99322 0.90865 0.0
H1147 H 0.40835 0.00796 0.91275 0.0
H1148 H 0.39306 0.00955 0.93042 0.0
H1149 H 0.40784 0.00466 0.96247 0.0
H1150 H 0.42309 0.00294 0.94491 0.0
H1151 H 0.40946 0.98487 0.96271 0.0
H1152 H 0.36858 0.92628 0.91608 0.0
H1153 H 0.39367 0.9302 0.89414 0.0
H1154 H 0.42272 0.98798 0.90864 0.0
C1155 C 0.36848 0.97915 0.95982 0.0
C1156 C 0.35194 0.96572 0.96817 0.0
C1157 C 0.3443 0.94745 0.96116 0.0
C1158 C 0.35311 0.94258 0.94632 0.0
C1159 C 0.36953 0.95615 0.93865 0.0
C1160 C 0.3771 0.97406 0.94514 0.0
C1161 C 0.39521 0.98595 0.93526 0.0
C1162 C 0.39534 -0.0 0.92091 0.0
C1163 C 0.40975 0.99514 0.95236 0.0
C1164 C 0.39676 0.9719 0.92241 0.0
C1165 C 0.38178 0.9548 0.92442 0.0
C1166 C 0.38033 0.93962 0.91428 0.0
C1167 C 0.3946 0.94198 0.9018 0.0
C1168 C 0.41014 0.95938 0.89971 0.0
C1169 C 0.4111 0.97448 0.91011 0.0
H1170 H 0.99477 0.38211 0.9475 0.0
H1171 H 0.04958 0.39791 0.95651 0.0
H1172 H 0.05918 0.4223 0.93081 0.0
H1173 H 0.99803 0.3912 0.89096 0.0
H1174 H 0.98338 0.39964 0.89284 0.0
H1175 H 0.98082 0.38273 0.91082 0.0
H1176 H 0.98367 0.40358 0.94277 0.0
H1177 H 0.98632 0.42057 0.92492 0.0
H1178 H 0.00292 0.42624 0.94485 0.0
H1179 H 0.06286 0.446 0.90546 0.0
H1180 H 0.06029 0.46715 0.88273 0.0
H1181 H 0.00304 0.43547 0.89037 0.0
C1182 C 0.00878 0.39054 0.94391 0.0
C1183 C 0.02142 0.38807 0.95399 0.0
C1184 C 0.03965 0.39952 0.94895 0.0
C1185 C 0.04523 0.41339 0.93436 0.0
C1186 C 0.03242 0.41559 0.92492 0.0
C1187 C 0.01457 0.40443 0.92946 0.0
C1188 C 0.00352 0.41005 0.91785 0.0
C1189 C 0.99068 0.39501 0.90219 0.0
C1190 C 0.99353 0.41543 0.93354 0.0
C1191 C 0.01796 0.4263 0.90634 0.0
C1192 C 0.03453 0.42922 0.91047 0.0
C1193 C 0.04993 0.44374 0.90197 0.0
C1194 C 0.04834 0.45564 0.88901 0.0
C1195 C 0.03147 0.45298 0.88477 0.0
C1196 C 0.01613 0.43799 0.89346 0.0
H1197 H 0.60723 0.64458 0.94646 0.0
H1198 H 0.63378 0.61566 0.95825 0.0
H1199 H 0.61553 0.59291 0.93074 0.0
H1200 H 0.56403 0.60541 0.93829 0.0
H1201 H 0.55804 0.61486 0.91741 0.0
H1202 H 0.57374 0.62956 0.93744 0.0
H1203 H 0.59682 0.6478 0.9083 0.0
H1204 H 0.58116 0.63318 0.88817 0.0
H1205 H 0.60282 0.63611 0.88917 0.0
H1206 H 0.59385 0.57259 0.90332 0.0
H1207 H 0.56987 0.55585 0.87718 0.0
H1208 H 0.55752 0.59794 0.88209 0.0
C1209 C 0.6093 0.63355 0.94313 0.0
C1210 C 0.62195 0.63194 0.95455 0.0
C1211 C 0.62416 0.61721 0.94978 0.0
C1212 C 0.61388 0.6042 0.93413 0.0
C1213 C 0.60145 0.60607 0.92332 0.0
C1214 C 0.5991 0.62036 0.92751 0.0
C1215 C 0.58445 0.61882 0.91383 0.0
C1216 C 0.56916 0.61705 0.92757 0.0
C1217 C 0.59175 0.63494 0.89899 0.0
C1218 C 0.57885 0.60135 0.90152 0.0
C1219 C 0.5889 0.5943 0.90723 0.0
C1220 C 0.586 0.57806 0.89851 0.0
C1221 C 0.57241 0.56871 0.88355 0.0
C1222 C 0.56188 0.57563 0.87736 0.0
C1223 C 0.56525 0.59223 0.88651 0.0
H1224 H 0.0021 0.62656 0.95254 0.0
H1225 H 0.05766 0.66441 0.96766 0.0
H1226 H 0.06617 0.64993 0.93949 0.0
H1227 H 0.00527 0.58845 0.94498 0.0
H1228 H 0.9893 0.57868 0.9237 0.0
H1229 H 0.98787 0.59321 0.94346 0.0
H1230 H 0.98907 0.61399 0.91404 0.0
H1231 H 0.99047 0.59949 0.89415 0.0
H1232 H 0.0072 0.62333 0.89539 0.0
H1233 H 0.06825 0.6299 0.91062 0.0
H1234 H 0.06366 0.60551 0.88514 0.0
H1235 H 0.00669 0.58093 0.89019 0.0
C1236 C 0.01611 0.63205 0.9498 0.0
C1237 C 0.02924 0.64671 0.96225 0.0
C1238 C 0.04737 0.65324 0.95827 0.0
C1239 C 0.05232 0.64513 0.94227 0.0
C1240 C 0.03896 0.63053 0.93047 0.0
C1241 C 0.02122 0.62408 0.93411 0.0
C1242 C 0.0093 0.60755 0.92035 0.0
C1243 C 0.99724 0.591 0.93393 0.0
C1244 C 0.99837 0.61132 0.90507 0.0
C1245 C 0.02306 0.60543 0.90859 0.0
C1246 C 0.04012 0.61891 0.91436 0.0
C1247 C 0.05495 0.61937 0.90589 0.0
C1248 C 0.05224 0.60553 0.8914 0.0
C1249 C 0.03483 0.59137 0.88578 0.0
C1250 C 0.02014 0.59154 0.89431 0.0
H1251 H 0.37756 0.41151 0.96055 0.0
H1252 H 0.3337 0.37471 0.9191 0.0
H1253 H 0.3496 0.394 0.88876 0.0
H1254 H 0.38841 0.45346 0.93435 0.0
H1255 H 0.41195 0.46373 0.93813 0.0
H1256 H 0.39653 0.44776 0.95692 0.0
H1257 H 0.41053 0.4283 0.95131 0.0
H1258 H 0.42591 0.44413 0.93245 0.0
H1259 H 0.41181 0.42053 0.9249 0.0
H1260 H 0.37134 0.41552 0.86241 0.0
H1261 H 0.39689 0.43901 0.84214 0.0
H1262 H 0.42621 0.4624 0.9007 0.0
C1263 C 0.37117 0.40765 0.94516 0.0
C1264 C 0.35437 0.39159 0.94221 0.0
C1265 C 0.34653 0.38697 0.92178 0.0
C1266 C 0.35546 0.39784 0.90443 0.0
C1267 C 0.37214 0.41338 0.9078 0.0
C1268 C 0.37984 0.41841 0.92768 0.0
C1269 C 0.39817 0.43545 0.92685 0.0
C1270 C 0.39879 0.45102 0.93984 0.0
C1271 C 0.41244 0.43188 0.93432 0.0
C1272 C 0.39971 0.43896 0.90332 0.0
C1273 C 0.38453 0.42607 0.89263 0.0
C1274 C 0.38319 0.42584 0.87063 0.0
C1275 C 0.39776 0.43914 0.85926 0.0
C1276 C 0.41338 0.45252 0.86992 0.0
C1277 C 0.41428 0.45249 0.89224 0.0
H1278 H 0.604 0.97736 0.96822 0.0
H1279 H 0.63967 0.97941 0.9189 0.0
H1280 H 0.61768 0.97442 0.8917 0.0
H1281 H 0.56272 0.94259 0.94274 0.0
H1282 H 0.55081 0.95309 0.9518 0.0
H1283 H 0.5689 0.95564 0.96731 0.0
H1284 H 0.5843 0.99057 0.96644 0.0
H1285 H 0.56634 0.98815 0.95084 0.0
H1286 H 0.58883 0.00142 0.94125 0.0
H1287 H 0.59254 0.97111 0.8699 0.0
H1288 H 0.56608 0.96935 0.85514 0.0
H1289 H 0.54676 0.96886 0.91893 0.0
C1290 C 0.60714 0.97654 0.95172 0.0
C1291 C 0.62355 0.97873 0.94568 0.0
C1292 C 0.62716 0.97771 0.9239 0.0
C1293 C 0.61476 0.97488 0.90835 0.0
C1294 C 0.59881 0.97303 0.91487 0.0
C1295 C 0.59495 0.97373 0.93604 0.0
C1296 C 0.57717 0.97202 0.93887 0.0
C1297 C 0.56413 0.95481 0.95089 0.0
C1298 C 0.5793 0.98905 0.95 0.0
C1299 C 0.57172 0.97051 0.91595 0.0
C1300 C 0.58433 0.97103 0.90234 0.0
C1301 C 0.58247 0.97045 0.88041 0.0
C1302 C 0.56734 0.96935 0.87218 0.0
C1303 C 0.55426 0.96884 0.88587 0.0
C1304 C 0.55653 0.96933 0.90804 0.0
H1305 H 0.62714 0.02955 0.05321 0.0
H1306 H 0.62292 0.97804 0.06151 0.0
H1307 H 0.60173 0.97117 0.0907 0.0
H1308 H 0.62398 0.0387 0.1102 0.0
H1309 H 0.61125 0.04889 0.10524 0.0
H1310 H 0.62704 0.05033 0.08584 0.0
H1311 H 0.60222 0.03597 0.05737 0.0
H1312 H 0.58633 0.0343 0.07671 0.0
H1313 H 0.58232 0.01434 0.06211 0.0
H1314 H 0.5786 0.9683 0.11608 0.0
H1315 H 0.55706 0.97081 0.13843 0.0
H1316 H 0.57798 0.02529 0.11611 0.0
C1317 C 0.62197 0.01696 0.06138 0.0
C1318 C 0.62668 0.00433 0.055 0.0
C1319 C 0.61958 0.98797 0.0661 0.0
C1320 C 0.60748 0.98391 0.0827 0.0
C1321 C 0.6028 0.99644 0.08826 0.0
C1322 C 0.61002 0.01276 0.07821 0.0
C1323 C 0.60245 0.02368 0.08709 0.0
C1324 C 0.61705 0.04145 0.09773 0.0
C1325 C 0.59276 0.02727 0.06979 0.0
C1326 C 0.58955 0.01072 0.1033 0.0
C1327 C 0.58994 0.99508 0.10366 0.0
C1328 C 0.57846 0.98066 0.11634 0.0
C1329 C 0.56632 0.9823 0.12914 0.0
C1330 C 0.56584 0.99836 0.12944 0.0
C1331 C 0.57777 0.01275 0.11631 0.0
H1332 H 0.01383 0.62078 0.05685 0.0
H1333 H 0.95919 0.60433 0.0448 0.0
H1334 H 0.94892 0.5794 0.06988 0.0
H1335 H 0.00602 0.57626 0.06004 0.0
H1336 H 0.02206 0.58235 0.08085 0.0
H1337 H 0.02501 0.59908 0.06235 0.0
H1338 H 0.02666 0.62002 0.09355 0.0
H1339 H 0.0237 0.60336 0.11215 0.0
H1340 H 0.00881 0.61153 0.11256 0.0
H1341 H 0.94473 0.55612 0.09626 0.0
H1342 H 0.94696 0.53587 0.12096 0.0
H1343 H 0.00436 0.56791 0.11542 0.0
C1344 C -0.00031 0.61199 0.05949 0.0
C1345 C 0.98731 0.61451 0.04889 0.0
C1346 C 0.96893 0.60264 0.05275 0.0
C1347 C 0.96297 0.58847 0.06698 0.0
C1348 C 0.97556 0.58638 0.07717 0.0
C1349 C 0.99354 0.5978 0.07355 0.0
C1350 C 0.00437 0.59253 0.0862 0.0
C1351 C 0.01498 0.58724 0.07147 0.0
C1352 C 0.0166 0.60777 0.10206 0.0
C1353 C 0.98968 0.57628 0.09744 0.0
C1354 C 0.97316 0.57298 0.09214 0.0
C1355 C 0.9576 0.55861 0.10056 0.0
C1356 C 0.959 0.54724 0.11464 0.0
C1357 C 0.97582 0.55031 0.12005 0.0
C1358 C 0.99131 0.5651 0.11138 0.0
H1359 H 0.41019 0.40753 0.02622 0.0
H1360 H 0.36882 0.35906 0.05665 0.0
H1361 H 0.3875 0.36747 0.08869 0.0
H1362 H 0.44846 0.4084 0.05007 0.0
H1363 H 0.46103 0.43277 0.05278 0.0
H1364 H 0.44532 0.42174 0.0314 0.0
H1365 H 0.42945 0.43839 0.0435 0.0
H1366 H 0.44501 0.44936 0.06494 0.0
H1367 H 0.42154 0.43622 0.0704 0.0
H1368 H 0.40954 0.3827 0.1186 0.0
H1369 H 0.43297 0.40372 0.14391 0.0
H1370 H 0.45978 0.44196 0.09363 0.0
C1371 C 0.40519 0.39846 0.03942 0.0
C1372 C 0.38808 0.3826 0.03889 0.0
C1373 C 0.38192 0.37126 0.05667 0.0
C1374 C 0.39245 0.37589 0.07493 0.0
C1375 C 0.40911 0.39185 0.07509 0.0
C1376 C 0.41548 0.40291 0.05776 0.0
C1377 C 0.43323 0.41997 0.06248 0.0
C1378 C 0.44788 0.42076 0.04834 0.0
C1379 C 0.43223 0.43698 0.0602 0.0
C1380 C 0.43562 0.41705 0.08537 0.0
C1381 C 0.42171 0.40066 0.09232 0.0
C1382 C 0.42063 0.39546 0.11325 0.0
C1383 C 0.43402 0.40744 0.12749 0.0
C1384 C 0.44818 0.42447 0.12075 0.0
C1385 C 0.44906 0.42909 0.09931 0.0
H1386 H 0.6593 0.71289 0.40193 0.0
H1387 H 0.62921 0.71337 0.34863 0.0
H1388 H 0.61735 0.72807 0.37138 0.0
H1389 H 0.62607 0.70483 0.44315 0.0
H1390 H 0.64272 0.71953 0.46235 0.0
H1391 H 0.64765 0.70753 0.4424 0.0
H1392 H 0.67493 0.73793 0.43045 0.0
H1393 H 0.67004 0.75001 0.45025 0.0
H1394 H 0.67196 0.75595 0.4228 0.0
H1395 H 0.61069 0.74488 0.39875 0.0
H1396 H 0.60944 0.76256 0.42915 0.0
H1397 H 0.64314 0.75064 0.4653 0.0
C1398 C 0.64998 0.7158 0.39514 0.0
C1399 C 0.64516 0.71194 0.37349 0.0
C1400 C 0.63311 0.71619 0.36516 0.0
C1401 C 0.62625 0.7245 0.37797 0.0
C1402 C 0.6315 0.72842 0.39911 0.0
C1403 C 0.64302 0.72415 0.40771 0.0
C1404 C 0.64723 0.73072 0.43064 0.0
C1405 C 0.64051 0.71469 0.44551 0.0
C1406 C 0.66723 0.74447 0.4337 0.0
C1407 C 0.63661 0.73971 0.43339 0.0
C1408 C 0.62753 0.73808 0.41505 0.0
C1409 C 0.61749 0.74599 0.41333 0.0
C1410 C 0.61678 0.75593 0.43079 0.0
C1411 C 0.62604 0.7579 0.44979 0.0
C1412 C 0.63594 0.74948 0.45105 0.0
H1413 H 0.30898 0.95202 0.41255 0.0
H1414 H 0.28121 0.929 0.35293 0.0
H1415 H 0.25857 0.90165 0.37124 0.0
H1416 H 0.29892 0.90899 0.43579 0.0
H1417 H 0.29574 0.91561 0.46203 0.0
H1418 H 0.31098 0.93258 0.44397 0.0
H1419 H 0.29422 0.94941 0.44859 0.0
H1420 H 0.27892 0.93249 0.46659 0.0
H1421 H 0.27069 0.93734 0.44342 0.0
H1422 H 0.23792 0.87798 0.39586 0.0
H1423 H 0.21991 0.85944 0.42573 0.0
H1424 H 0.26024 0.89779 0.46997 0.0
C1425 C 0.29834 0.94104 0.40331 0.0
C1426 C 0.29691 0.94255 0.38129 0.0
C1427 C 0.28257 0.9281 0.3698 0.0
C1428 C 0.26969 0.91248 0.38004 0.0
C1429 C 0.27127 0.91153 0.4018 0.0
C1430 C 0.2852 0.92538 0.41336 0.0
C1431 C 0.28294 0.92143 0.43685 0.0
C1432 C 0.29805 0.91954 0.44515 0.0
C1433 C 0.28161 0.93604 0.44961 0.0
C1434 C 0.2654 0.90339 0.43667 0.0
C1435 C 0.25905 0.89788 0.41623 0.0
C1436 C 0.24278 0.88208 0.41194 0.0
C1437 C 0.2326 0.87171 0.42901 0.0
C1438 C 0.23863 0.87722 0.45016 0.0
C1439 C 0.25539 0.89315 0.45396 0.0
H1440 H 0.0836 0.36276 0.37398 0.0
H1441 H 0.03989 0.35499 0.41385 0.0
H1442 H 0.05779 0.35989 0.44573 0.0
H1443 H 0.09628 0.33896 0.4057 0.0
H1444 H 0.11978 0.35375 0.40128 0.0
H1445 H 0.10423 0.35137 0.38153 0.0
H1446 H 0.11803 0.38612 0.38275 0.0
H1447 H 0.13369 0.38862 0.40248 0.0
H1448 H 0.11966 0.39749 0.40777 0.0
H1449 H 0.07965 0.36377 0.47324 0.0
H1450 H 0.10375 0.36571 0.49445 0.0
H1451 H 0.13322 0.3709 0.43674 0.0
C1452 C 0.0779 0.36239 0.38941 0.0
C1453 C 0.06038 0.35858 0.39143 0.0
C1454 C 0.0533 0.35791 0.41191 0.0
C1455 C 0.06337 0.36073 0.43012 0.0
C1456 C 0.08051 0.3642 0.42758 0.0
C1457 C 0.08773 0.36505 0.40776 0.0
C1458 C 0.10606 0.36793 0.40944 0.0
C1459 C 0.1066 0.35205 0.39886 0.0
C1460 C 0.12019 0.38613 0.40006 0.0
C1461 C 0.10786 0.36823 0.4333 0.0
C1462 C 0.09305 0.36624 0.44347 0.0
C1463 C 0.0914 0.36553 0.46547 0.0
C1464 C 0.1052 0.36673 0.47739 0.0
C1465 C 0.12039 0.36851 0.46727 0.0
C1466 C 0.12173 0.36944 0.44493 0.0
H1467 H 0.05287 0.30746 0.32637 0.0
H1468 H 0.01867 0.31662 0.28734 0.0
H1469 H 0.02958 0.30853 0.25529 0.0
H1470 H 0.08941 0.3275 0.2925 0.0
H1471 H 0.09639 0.31187 0.29728 0.0
H1472 H 0.08429 0.31607 0.31736 0.0
H1473 H 0.06062 0.2817 0.31828 0.0
H1474 H 0.0727 0.27737 0.29822 0.0
H1475 H 0.04967 0.2696 0.29408 0.0
H1476 H 0.04586 0.30188 0.22736 0.0
H1477 H 0.06722 0.29836 0.20552 0.0
H1478 H 0.09102 0.29379 0.26266 0.0
C1479 C 0.04739 0.30738 0.31113 0.0
C1480 C 0.03483 0.31254 0.30934 0.0
C1481 C 0.02828 0.31267 0.28906 0.0
C1482 C 0.03433 0.30802 0.27078 0.0
C1483 C 0.04694 0.30329 0.27304 0.0
C1484 C 0.05341 0.30294 0.29269 0.0
C1485 C 0.06797 0.29885 0.29062 0.0
C1486 C 0.08555 0.31451 0.29999 0.0
C1487 C 0.0624 0.28081 0.30091 0.0
C1488 C 0.06898 0.29742 0.26672 0.0
C1489 C 0.05656 0.29974 0.25688 0.0
C1490 C 0.05549 0.2998 0.23488 0.0
C1491 C 0.06763 0.29771 0.2226 0.0
C1492 C 0.08075 0.29574 0.23237 0.0
C1493 C 0.08118 0.29532 0.25473 0.0
H1494 H 0.66289 0.71304 0.27207 0.0
H1495 H 0.71412 0.73524 0.30241 0.0
H1496 H 0.72751 0.76026 0.27712 0.0
H1497 H 0.67908 0.72556 0.21753 0.0
H1498 H 0.66281 0.73122 0.21161 0.0
H1499 H 0.65776 0.71402 0.23051 0.0
H1500 H 0.6504 0.73134 0.25881 0.0
H1501 H 0.65541 0.74856 0.24003 0.0
H1502 H 0.66673 0.75472 0.26521 0.0
H1503 H 0.73489 0.78378 0.24972 0.0
H1504 H 0.73518 0.80494 0.22414 0.0
H1505 H 0.67891 0.76771 0.21273 0.0
C1506 C 0.677 0.72296 0.27314 0.0
C1507 C 0.68751 0.72213 0.28906 0.0
C1508 C 0.70584 0.73561 0.29027 0.0
C1509 C 0.71357 0.74981 0.27592 0.0
C1510 C 0.70277 0.75036 0.26055 0.0
C1511 C 0.68486 0.73732 0.25915 0.0
C1512 C 0.67585 0.74179 0.2424 0.0
C1513 C 0.66844 0.72728 0.22445 0.0
C1514 C 0.66124 0.74425 0.2522 0.0
C1515 C 0.69141 0.75954 0.23486 0.0
C1516 C 0.70689 0.76413 0.24524 0.0
C1517 C 0.72287 0.78025 0.24136 0.0
C1518 C 0.72294 0.79214 0.22677 0.0
C1519 C 0.70708 0.78792 0.21651 0.0
C1520 C 0.69122 0.77128 0.22041 0.0
H1521 H 0.286 0.95882 0.27754 0.0
H1522 H 0.28316 0.00703 0.28411 0.0
H1523 H 0.26044 0.99505 0.25585 0.0
H1524 H 0.27917 0.95266 0.21951 0.0
H1525 H 0.26608 0.92833 0.22109 0.0
H1526 H 0.28338 0.94161 0.24023 0.0
H1527 H 0.2606 0.92678 0.27071 0.0
H1528 H 0.24324 0.91355 0.2517 0.0
H1529 H 0.24088 0.9279 0.27093 0.0
H1530 H 0.23573 0.97622 0.2296 0.0
H1531 H 0.21154 0.95242 0.20726 0.0
H1532 H 0.2317 0.91729 0.21686 0.0
C1533 C 0.28084 0.96703 0.27283 0.0
C1534 C 0.28636 0.98387 0.28305 0.0
C1535 C 0.27918 0.99412 0.27646 0.0
C1536 C 0.26628 0.98744 0.2604 0.0
C1537 C 0.26089 0.9706 0.25094 0.0
C1538 C 0.26808 0.96063 0.25678 0.0
C1539 C 0.25937 0.94252 0.24502 0.0
C1540 C 0.2728 0.94121 0.2306 0.0
C1541 C 0.2505 0.92677 0.26052 0.0
C1542 C 0.24575 0.94359 0.23216 0.0
C1543 C 0.2469 0.95993 0.23561 0.0
C1544 C 0.23491 0.9635 0.22647 0.0
C1545 C 0.22125 0.94991 0.2137 0.0
C1546 C 0.21968 0.93294 0.21023 0.0
C1547 C 0.23238 0.93001 0.2193 0.0
H1548 H 0.6646 0.9636 0.26716 0.0
H1549 H 0.68699 0.95967 0.32595 0.0
H1550 H 0.70055 0.94502 0.30646 0.0
H1551 H 0.65283 0.92118 0.246 0.0
H1552 H 0.65834 0.92815 0.21892 0.0
H1553 H 0.65198 0.94016 0.23696 0.0
H1554 H 0.68133 0.97027 0.22907 0.0
H1555 H 0.68778 0.95833 0.21093 0.0
H1556 H 0.70223 0.97184 0.23255 0.0
H1557 H 0.7088 0.92788 0.28175 0.0
H1558 H 0.7119 0.90991 0.2528 0.0
H1559 H 0.68512 0.92553 0.20965 0.0
C1560 C 0.67263 0.95997 0.27587 0.0
C1561 C 0.67473 0.96281 0.2981 0.0
C1562 C 0.68518 0.95766 0.30894 0.0
C1563 C 0.69299 0.94937 0.298 0.0
C1564 C 0.69038 0.94646 0.27619 0.0
C1565 C 0.68057 0.95171 0.26517 0.0
C1566 C 0.67893 0.94599 0.24196 0.0
C1567 C 0.65936 0.9331 0.2356 0.0
C1568 C 0.68812 0.9626 0.22779 0.0
C1569 C 0.68889 0.93623 0.24181 0.0
C1570 C 0.69549 0.93679 0.26172 0.0
C1571 C 0.70401 0.92763 0.266 0.0
C1572 C 0.70568 0.91745 0.24954 0.0
C1573 C 0.69895 0.91664 0.22911 0.0
C1574 C 0.6907 0.92634 0.22509 0.0
H1575 H 0.05933 0.72478 0.29183 0.0
H1576 H 0.01637 0.73181 0.31229 0.0
H1577 H 0.02738 0.75762 0.28826 0.0
H1578 H 0.0927 0.77178 0.28816 0.0
H1579 H 0.10298 0.76847 0.26507 0.0
H1580 H 0.09154 0.75061 0.28375 0.0
H1581 H 0.07167 0.72864 0.25347 0.0
H1582 H 0.08303 0.74644 0.2347 0.0
H1583 H 0.05923 0.73479 0.23724 0.0
H1584 H 0.04343 0.78282 0.26155 0.0
H1585 H 0.06344 0.80549 0.23554 0.0
H1586 H 0.09527 0.78112 0.23296 0.0
C1587 C 0.05219 0.73171 0.29133 0.0
C1588 C 0.03698 0.72627 0.30395 0.0
C1589 C 0.02807 0.73576 0.30277 0.0
C1590 C 0.03421 0.75041 0.28916 0.0
C1591 C 0.04925 0.75535 0.27687 0.0
C1592 C 0.05811 0.74628 0.27791 0.0
C1593 C 0.07397 0.7542 0.26325 0.0
C1594 C 0.09132 0.76171 0.27581 0.0
C1595 C 0.07184 0.74018 0.24615 0.0
C1596 C 0.07275 0.76924 0.25381 0.0
C1597 C 0.0584 0.76971 0.26174 0.0
C1598 C 0.05469 0.78255 0.25524 0.0
C1599 C 0.06606 0.7953 0.24039 0.0
C1600 C 0.08097 0.79513 0.23231 0.0
C1601 C 0.08416 0.78179 0.23907 0.0
H1602 H 0.271 0.31797 0.30668 0.0
H1603 H 0.30689 0.31599 0.26067 0.0
H1604 H 0.28544 0.30945 0.23211 0.0
H1605 H 0.23021 0.28155 0.28254 0.0
H1606 H 0.21803 0.29237 0.2887 0.0
H1607 H 0.23601 0.29639 0.30559 0.0
H1608 H 0.25121 0.33098 0.30072 0.0
H1609 H 0.23331 0.32707 0.2838 0.0
H1610 H 0.25587 0.33978 0.27434 0.0
H1611 H 0.26072 0.30456 0.20839 0.0
H1612 H 0.23432 0.30121 0.19127 0.0
H1613 H 0.21405 0.30505 0.25305 0.0
C1614 C 0.27433 0.31608 0.29062 0.0
C1615 C 0.29063 0.31751 0.2859 0.0
C1616 C 0.29447 0.31493 0.26468 0.0
C1617 C 0.28237 0.3112 0.24834 0.0
C1618 C 0.26647 0.30998 0.25353 0.0
C1619 C 0.26238 0.31224 0.27416 0.0
C1620 C 0.24448 0.31046 0.27547 0.0
C1621 C 0.23141 0.29422 0.28887 0.0
C1622 C 0.24634 0.32813 0.28409 0.0
C1623 C 0.23926 0.30711 0.2523 0.0
C1624 C 0.25209 0.30684 0.23991 0.0
C1625 C 0.25047 0.30453 0.21795 0.0
C1626 C 0.23535 0.30251 0.20839 0.0
C1627 C 0.222 0.30275 0.22078 0.0
C1628 C 0.22403 0.30495 0.24306 0.0
H1629 H 0.28291 0.36417 0.37076 0.0
H1630 H 0.32166 0.35946 0.40635 0.0
H1631 H 0.31163 0.36721 0.43942 0.0
H1632 H 0.28489 0.4015 0.40417 0.0
H1633 H 0.26134 0.39186 0.40153 0.0
H1634 H 0.27353 0.3889 0.38036 0.0
H1635 H 0.25199 0.35409 0.38167 0.0
H1636 H 0.23985 0.35691 0.4029 0.0
H1637 H 0.24887 0.34284 0.40634 0.0
H1638 H 0.29472 0.37138 0.46903 0.0
H1639 H 0.27236 0.37171 0.49257 0.0
H1640 H 0.24504 0.37413 0.43755 0.0
C1641 C 0.28964 0.36527 0.38541 0.0
C1642 C 0.30311 0.36127 0.38594 0.0
C1643 C 0.31134 0.36252 0.40553 0.0
C1644 C 0.30577 0.36697 0.42441 0.0
C1645 C 0.29206 0.37026 0.42341 0.0
C1646 C 0.28421 0.36963 0.40438 0.0
C1647 C 0.26867 0.37205 0.40779 0.0
C1648 C 0.27233 0.38963 0.39788 0.0
C1649 C 0.25133 0.35548 0.39917 0.0
C1650 C 0.26855 0.37339 0.43174 0.0
C1651 C 0.2823 0.37263 0.44048 0.0
C1652 C 0.2841 0.37234 0.46236 0.0
C1653 C 0.27137 0.37258 0.47562 0.0
C1654 C 0.25695 0.37294 0.46691 0.0
C1655 C 0.25584 0.37375 0.4447 0.0
H1656 H 0.62498 0.92617 0.38384 0.0
H1657 H 0.62194 0.96481 0.42605 0.0
H1658 H 0.61454 0.94426 0.45579 0.0
H1659 H 0.58884 0.88441 0.40978 0.0
H1660 H 0.60051 0.87279 0.40552 0.0
H1661 H 0.60303 0.88934 0.38697 0.0
H1662 H 0.63715 0.90685 0.39205 0.0
H1663 H 0.63474 0.89049 0.4107 0.0
H1664 H 0.64631 0.91417 0.41835 0.0
H1665 H 0.61221 0.92199 0.48181 0.0
H1666 H 0.61301 0.89837 0.50177 0.0
H1667 H 0.61634 0.87359 0.44269 0.0
C1668 C 0.62228 0.93011 0.39921 0.0
C1669 C 0.62403 0.94712 0.40259 0.0
C1670 C 0.62061 0.95184 0.42302 0.0
C1671 C 0.61639 0.94024 0.44003 0.0
C1672 C 0.61537 0.92385 0.43631 0.0
C1673 C 0.61794 0.91864 0.41634 0.0
C1674 C 0.61733 0.90092 0.41688 0.0
C1675 C 0.60148 0.88598 0.40403 0.0
C1676 C 0.63493 0.90326 0.40904 0.0
C1677 C 0.61472 0.89735 0.44039 0.0
C1678 C 0.61351 0.91069 0.45132 0.0
C1679 C 0.6127 0.91123 0.4734 0.0
C1680 C 0.61325 0.89786 0.4846 0.0
C1681 C 0.61445 0.88411 0.47368 0.0
C1682 C 0.61494 0.88372 0.45131 0.0
H1683 H 0.04269 0.71066 0.40243 0.0
H1684 H 0.06659 0.68152 0.37702 0.0
H1685 H 0.0881 0.69361 0.40664 0.0
H1686 H 0.08255 0.75026 0.41635 0.0
H1687 H 0.07416 0.75518 0.44012 0.0
H1688 H 0.05931 0.74244 0.41856 0.0
H1689 H 0.03938 0.7164 0.44395 0.0
H1690 H 0.05422 0.72909 0.46563 0.0
H1691 H 0.04899 0.70646 0.45912 0.0
H1692 H 0.10824 0.71054 0.43757 0.0
H1693 H 0.12674 0.73263 0.46581 0.0
H1694 H 0.09002 0.75117 0.47046 0.0
C1695 C 0.05222 0.70653 0.40332 0.0
C1696 C 0.05289 0.69503 0.38754 0.0
C1697 C 0.06582 0.69028 0.38899 0.0
C1698 C 0.07802 0.697 0.40581 0.0
C1699 C 0.07713 0.70848 0.42098 0.0
C1700 C 0.0646 0.71326 0.41984 0.0
C1701 C 0.06743 0.72707 0.43704 0.0
C1702 C 0.07108 0.74478 0.42744 0.0
C1703 C 0.05156 0.71928 0.45234 0.0
C1704 C 0.08378 0.72964 0.44773 0.0
C1705 C 0.08898 0.71856 0.4385 0.0
C1706 C 0.10418 0.71913 0.44509 0.0
C1707 C 0.11455 0.73164 0.46121 0.0
C1708 C 0.10977 0.74355 0.47036 0.0
C1709 C 0.09398 0.74222 0.46376 0.0
H1710 H 0.35227 0.06564 0.74433 0.0
H1711 H 0.30076 0.01854 0.72779 0.0
H1712 H 0.28669 0.02805 0.75501 0.0
H1713 H 0.34479 0.06638 0.80078 0.0
H1714 H 0.35677 0.09077 0.80274 0.0
H1715 H 0.36274 0.07971 0.78272 0.0
H1716 H 0.35852 0.09746 0.75354 0.0
H1717 H 0.3526 0.1086 0.77346 0.0
H1718 H 0.33769 0.09628 0.75171 0.0
H1719 H 0.27833 0.04336 0.78366 0.0
H1720 H 0.27623 0.06351 0.81042 0.0
H1721 H 0.33328 0.10084 0.80685 0.0
C1722 C 0.33804 0.05719 0.74651 0.0
C1723 C 0.32761 0.04129 0.734 0.0
C1724 C 0.30901 0.03076 0.73723 0.0
C1725 C 0.30092 0.03604 0.75267 0.0
C1726 C 0.31163 0.05186 0.76468 0.0
C1727 C 0.32978 0.06229 0.7617 0.0
C1728 C 0.33828 0.07907 0.77598 0.0
C1729 C 0.35142 0.07897 0.79147 0.0
C1730 C 0.3473 0.09637 0.76289 0.0
C1731 C 0.32206 0.07655 0.78743 0.0
C1732 C 0.30682 0.06074 0.78082 0.0
C1733 C 0.29019 0.05576 0.78894 0.0
C1734 C 0.28913 0.06735 0.80405 0.0
C1735 C 0.30459 0.08377 0.8108 0.0
C1736 C 0.32124 0.08826 0.80239 0.0
H1737 H 0.95438 0.26542 0.7208 0.0
H1738 H 0.99603 0.30824 0.76016 0.0
H1739 H 0.98269 0.28958 0.79169 0.0
H1740 H 0.91922 0.25228 0.75714 0.0
H1741 H 0.90828 0.22839 0.75075 0.0
H1742 H 0.92163 0.2447 0.73109 0.0
H1743 H 0.94049 0.2301 0.72642 0.0
H1744 H 0.92718 0.21373 0.74608 0.0
H1745 H 0.95094 0.22765 0.74924 0.0
H1746 H 0.96361 0.26728 0.81929 0.0
H1747 H 0.94065 0.24228 0.84078 0.0
H1748 H 0.9121 0.2136 0.7834 0.0
C1749 C 0.96079 0.27082 0.73601 0.0
C1750 C 0.97625 0.28831 0.738 0.0
C1751 C 0.98421 0.29487 0.75821 0.0
C1752 C 0.97674 0.28437 0.77623 0.0
C1753 C 0.96141 0.26727 0.77375 0.0
C1754 C 0.9536 0.26046 0.75413 0.0
C1755 C 0.93695 0.24183 0.75588 0.0
C1756 C 0.92056 0.24181 0.74827 0.0
C1757 C 0.93902 0.22748 0.74368 0.0
C1758 C 0.93643 0.23939 0.77958 0.0
C1759 C 0.95066 0.25421 0.78961 0.0
C1760 C 0.95253 0.2555 0.8116 0.0
C1761 C 0.93943 0.24131 0.82367 0.0
C1762 C 0.92477 0.22601 0.81369 0.0
C1763 C 0.92338 0.225 0.79136 0.0
H1764 H 0.71068 0.68233 0.75631 0.0
H1765 H 0.73982 0.71737 0.70406 0.0
H1766 H 0.76775 0.72971 0.72395 0.0
H1767 H 0.73857 0.71459 0.79936 0.0
H1768 H 0.73692 0.69683 0.81511 0.0
H1769 H 0.71896 0.69214 0.79775 0.0
H1770 H 0.72072 0.66608 0.77937 0.0
H1771 H 0.7387 0.67073 0.79657 0.0
H1772 H 0.74152 0.67078 0.76821 0.0
H1773 H 0.79272 0.73577 0.74759 0.0
H1774 H 0.81295 0.73544 0.77351 0.0
H1775 H 0.76764 0.69757 0.81133 0.0
C1776 C 0.72288 0.69284 0.7492 0.0
C1777 C 0.72303 0.69889 0.72863 0.0
C1778 C 0.73934 0.71253 0.71982 0.0
C1779 C 0.75529 0.71967 0.73101 0.0
C1780 C 0.75471 0.71316 0.75108 0.0
C1781 C 0.73893 0.70016 0.76019 0.0
C1782 C 0.74212 0.69472 0.78144 0.0
C1783 C 0.73364 0.69988 0.79948 0.0
C1784 C 0.73537 0.67437 0.78138 0.0
C1785 C 0.76219 0.70625 0.78249 0.0
C1786 C 0.76918 0.71691 0.76492 0.0
C1787 C 0.78741 0.72778 0.76165 0.0
C1788 C 0.79882 0.72757 0.77658 0.0
C1789 C 0.79198 0.71658 0.79465 0.0
C1790 C 0.77338 0.70606 0.79771 0.0
H1791 H 0.72625 0.65531 0.64865 0.0
H1792 H 0.69487 0.66936 0.61112 0.0
H1793 H 0.7067 0.66343 0.57835 0.0
H1794 H 0.76444 0.67622 0.61647 0.0
H1795 H 0.76976 0.6591 0.61963 0.0
H1796 H 0.75781 0.66308 0.64015 0.0
H1797 H 0.73255 0.62923 0.63802 0.0
H1798 H 0.74445 0.62512 0.61749 0.0
H1799 H 0.72198 0.6192 0.61289 0.0
H1800 H 0.72332 0.65789 0.54975 0.0
H1801 H 0.74333 0.65266 0.52728 0.0
H1802 H 0.76394 0.64237 0.58342 0.0
C1803 C 0.72168 0.65691 0.63355 0.0
C1804 C 0.70961 0.66278 0.63246 0.0
C1805 C 0.7041 0.66487 0.61236 0.0
C1806 C 0.71072 0.6615 0.59365 0.0
C1807 C 0.72278 0.65599 0.59529 0.0
C1808 C 0.72816 0.65362 0.61471 0.0
C1809 C 0.74183 0.64833 0.61208 0.0
C1810 C 0.7595 0.66253 0.62271 0.0
C1811 C 0.73478 0.62934 0.62063 0.0
C1812 C 0.74351 0.6484 0.58817 0.0
C1813 C 0.73235 0.65276 0.57877 0.0
C1814 C 0.73203 0.65434 0.5569 0.0
C1815 C 0.74351 0.65146 0.5443 0.0
C1816 C 0.75514 0.64708 0.55361 0.0
C1817 C 0.75499 0.6454 0.57583 0.0
H1818 H 0.34733 0.08209 0.65584 0.0
H1819 H 0.36541 0.04964 0.62434 0.0
H1820 H 0.37315 0.06829 0.59262 0.0
H1821 H 0.32681 0.08662 0.6125 0.0
H1822 H 0.33325 0.10971 0.61844 0.0
H1823 H 0.33106 0.09522 0.63952 0.0
H1824 H 0.36342 0.11836 0.65143 0.0
H1825 H 0.36567 0.13304 0.63047 0.0
H1826 H 0.38123 0.12582 0.63249 0.0
H1827 H 0.37532 0.08801 0.56285 0.0
H1828 H 0.3732 0.10827 0.53817 0.0
H1829 H 0.35545 0.1289 0.59002 0.0
C1830 C 0.35323 0.07912 0.64243 0.0
C1831 C 0.35574 0.06441 0.64255 0.0
C1832 C 0.36343 0.0609 0.62464 0.0
C1833 C 0.36787 0.07142 0.60654 0.0
C1834 C 0.3648 0.08554 0.60675 0.0
C1835 C 0.3579 0.08957 0.62435 0.0
C1836 C 0.35505 0.10487 0.62018 0.0
C1837 C 0.33538 0.09873 0.62281 0.0
C1838 C 0.36706 0.12151 0.63449 0.0
C1839 C 0.3608 0.10836 0.59726 0.0
C1840 C 0.36648 0.09717 0.58979 0.0
C1841 C 0.37125 0.09711 0.56863 0.0
C1842 C 0.37005 0.10871 0.55474 0.0
C1843 C 0.36414 0.1202 0.56209 0.0
C1844 C 0.35981 0.12016 0.58375 0.0
H1845 H 0.95123 0.2849 0.62249 0.0
H1846 H 0.94547 0.33121 0.63117 0.0
H1847 H 0.92357 0.31944 0.60191 0.0
H1848 H 0.94765 0.28201 0.56486 0.0
H1849 H 0.93558 0.2576 0.56409 0.0
H1850 H 0.95126 0.27012 0.5851 0.0
H1851 H 0.92671 0.25238 0.61304 0.0
H1852 H 0.91098 0.2398 0.59214 0.0
H1853 H 0.90631 0.25215 0.61187 0.0
H1854 H 0.90076 0.30132 0.57311 0.0
H1855 H 0.8792 0.27856 0.54738 0.0
H1856 H 0.90156 0.24533 0.55652 0.0
C1857 C 0.94543 0.29262 0.61822 0.0
C1858 C 0.95 0.30893 0.62916 0.0
C1859 C 0.94217 0.31868 0.62298 0.0
C1860 C 0.92975 0.31212 0.60637 0.0
C1861 C 0.9255 0.29594 0.59597 0.0
C1862 C 0.93321 0.28641 0.60159 0.0
C1863 C 0.92619 0.26922 0.58825 0.0
C1864 C 0.94106 0.26978 0.57478 0.0
C1865 C 0.917 0.2524 0.60216 0.0
C1866 C 0.91297 0.2703 0.57458 0.0
C1867 C 0.91279 0.28583 0.57915 0.0
C1868 C 0.90097 0.28924 0.5692 0.0
C1869 C 0.88884 0.27628 0.5545 0.0
C1870 C 0.88863 0.26011 0.54988 0.0
C1871 C 0.90119 0.25741 0.5598 0.0
H1872 H 0.34045 0.30831 0.60777 0.0
H1873 H 0.35211 0.29328 0.66746 0.0
H1874 H 0.36143 0.27464 0.64814 0.0
H1875 H 0.32086 0.26562 0.58386 0.0
H1876 H 0.32931 0.27305 0.55754 0.0
H1877 H 0.32632 0.28764 0.57558 0.0
H1878 H 0.35933 0.31301 0.57096 0.0
H1879 H 0.36241 0.29849 0.55279 0.0
H1880 H 0.37644 0.30831 0.57583 0.0
H1881 H 0.36604 0.25508 0.6234 0.0
H1882 H 0.36539 0.23517 0.59427 0.0
H1883 H 0.35045 0.26205 0.55009 0.0
C1884 C 0.34546 0.3015 0.61667 0.0
C1885 C 0.34572 0.30232 0.63907 0.0
C1886 C 0.35185 0.29283 0.65028 0.0
C1887 C 0.35726 0.28229 0.63945 0.0
C1888 C 0.35644 0.28136 0.61741 0.0
C1889 C 0.35074 0.2907 0.60607 0.0
C1890 C 0.34944 0.28583 0.58258 0.0
C1891 C 0.33035 0.27754 0.57442 0.0
C1892 C 0.3627 0.3024 0.56979 0.0
C1893 C 0.35471 0.27186 0.58266 0.0
C1894 C 0.35894 0.26974 0.60292 0.0
C1895 C 0.36302 0.25678 0.60741 0.0
C1896 C 0.36252 0.24549 0.59083 0.0
C1897 C 0.35791 0.24716 0.57003 0.0
C1898 C 0.3543 0.26075 0.56582 0.0
H1899 H 0.7245 0.05023 0.61844 0.0
H1900 H 0.68147 0.0586 0.63382 0.0
H1901 H 0.69345 0.08337 0.60824 0.0
H1902 H 0.75799 0.09629 0.61477 0.0
H1903 H 0.76945 0.09288 0.59305 0.0
H1904 H 0.75674 0.07499 0.61134 0.0
H1905 H 0.7384 0.05321 0.58014 0.0
H1906 H 0.75112 0.07102 0.56172 0.0
H1907 H 0.72726 0.05967 0.56214 0.0
H1908 H 0.7111 0.10823 0.5821 0.0
H1909 H 0.73318 0.13137 0.55799 0.0
H1910 H 0.76437 0.10636 0.56008 0.0
C1911 C 0.71745 0.0571 0.61628 0.0
C1912 C 0.70202 0.05245 0.62808 0.0
C1913 C 0.6933 0.06191 0.62491 0.0
C1914 C 0.69999 0.07598 0.6104 0.0
C1915 C 0.71536 0.08035 0.59921 0.0
C1916 C 0.72395 0.07115 0.60197 0.0
C1917 C 0.74064 0.07893 0.58872 0.0
C1918 C 0.75718 0.0862 0.60282 0.0
C1919 C 0.73926 0.06487 0.5722 0.0
C1920 C 0.74028 0.09414 0.57832 0.0
C1921 C 0.72554 0.09468 0.58439 0.0
C1922 C 0.72262 0.10786 0.57712 0.0
C1923 C 0.73518 0.12088 0.56339 0.0
C1924 C 0.75049 0.12067 0.55723 0.0
C1925 C 0.7529 0.10699 0.5647 0.0
H1926 H 0.94078 0.6472 0.62348 0.0
H1927 H 0.97872 0.70393 0.6111 0.0
H1928 H 0.95826 0.70361 0.58504 0.0
H1929 H 0.92581 0.63403 0.56865 0.0
H1930 H 0.90306 0.6182 0.57589 0.0
H1931 H 0.92077 0.62267 0.59354 0.0
H1932 H 0.90625 0.63136 0.62368 0.0
H1933 H 0.88857 0.62704 0.60608 0.0
H1934 H 0.90154 0.6488 0.61947 0.0
H1935 H 0.93343 0.69802 0.56219 0.0
H1936 H 0.90632 0.68679 0.54128 0.0
H1937 H 0.88476 0.63298 0.56607 0.0
C1938 C 0.9448 0.65951 0.61518 0.0
C1939 C 0.96135 0.6756 0.61938 0.0
C1940 C 0.96615 0.69142 0.60815 0.0
C1941 C 0.9546 0.69141 0.59334 0.0
C1942 C 0.93835 0.67544 0.58974 0.0
C1943 C 0.93348 0.6597 0.60009 0.0
C1944 C 0.91523 0.64437 0.59298 0.0
C1945 C 0.91629 0.6289 0.58212 0.0
C1946 C 0.90212 0.63749 0.61167 0.0
C1947 C 0.9106 0.65407 0.57722 0.0
C1948 C 0.92413 0.672 0.57576 0.0
C1949 C 0.92285 0.68393 0.56288 0.0
C1950 C 0.9074 0.67733 0.55091 0.0
C1951 C 0.89345 0.65887 0.55159 0.0
C1952 C 0.89511 0.64715 0.56512 0.0
H1953 H 0.96602 0.68305 0.73368 0.0
H1954 H 0.98211 0.72807 0.69215 0.0
H1955 H 0.96722 0.73915 0.71573 0.0
H1956 H 0.92372 0.67402 0.74495 0.0
H1957 H 0.92355 0.66871 0.77238 0.0
H1958 H 0.93701 0.66532 0.75353 0.0
H1959 H 0.96497 0.68586 0.77652 0.0
H1960 H 0.95155 0.68921 0.79558 0.0
H1961 H 0.97063 0.70849 0.78396 0.0
H1962 H 0.94752 0.74313 0.74127 0.0
H1963 H 0.9259 0.74071 0.76797 0.0
H1964 H 0.92442 0.69439 0.79439 0.0
C1965 C 0.96669 0.69542 0.72974 0.0
C1966 C 0.97522 0.70468 0.71106 0.0
C1967 C 0.97573 0.72078 0.70642 0.0
C1968 C 0.9673 0.72719 0.71971 0.0
C1969 C 0.95867 0.7175 0.73774 0.0
C1970 C 0.95852 0.70211 0.74294 0.0
C1971 C 0.94765 0.69378 0.76273 0.0
C1972 C 0.93206 0.67431 0.75811 0.0
C1973 C 0.9594 0.69438 0.78077 0.0
C1974 C 0.9412 0.70653 0.7674 0.0
C1975 C 0.94776 0.72016 0.75287 0.0
C1976 C 0.94262 0.73276 0.75305 0.0
C1977 C 0.93037 0.73133 0.76841 0.0
C1978 C 0.92343 0.71743 0.78352 0.0
C1979 C 0.92925 0.7051 0.78307 0.0
H1980 H 0.3019 0.27113 0.74193 0.0
H1981 H 0.3595 0.30495 0.7411 0.0
H1982 H 0.36117 0.28516 0.76662 0.0
H1983 H 0.29789 0.26105 0.79842 0.0
H1984 H 0.27963 0.23801 0.79452 0.0
H1985 H 0.28274 0.2552 0.77663 0.0
H1986 H 0.28334 0.23593 0.74488 0.0
H1987 H 0.28038 0.21875 0.76268 0.0
H1988 H 0.29906 0.22879 0.74483 0.0
H1989 H 0.35709 0.26133 0.79043 0.0
H1990 H 0.34735 0.23533 0.81325 0.0
H1991 H 0.29228 0.21681 0.80027 0.0
C1992 C 0.31484 0.27446 0.74731 0.0
C1993 C 0.33057 0.28961 0.73946 0.0
C1994 C 0.34725 0.29344 0.74681 0.0
C1995 C 0.34836 0.28227 0.76132 0.0
C1996 C 0.33268 0.26732 0.76847 0.0
C1997 C 0.31621 0.26341 0.76192 0.0
C1998 C 0.3015 0.24628 0.77204 0.0
C1999 C 0.28975 0.25039 0.78625 0.0
C2000 C 0.29042 0.23157 0.75509 0.0
C2001 C 0.31234 0.24117 0.78509 0.0
C2002 C 0.33029 0.25353 0.7827 0.0
C2003 C 0.34306 0.25167 0.79269 0.0
C2004 C 0.33737 0.23688 0.80574 0.0
C2005 C 0.31904 0.22414 0.80889 0.0
C2006 C 0.30637 0.22628 0.79821 0.0
H2007 H 0.72538 0.07463 0.72283 0.0
H2008 H 0.72229 0.02316 0.71775 0.0
H2009 H 0.74649 0.03437 0.74406 0.0
H2010 H 0.7734 0.10309 0.72914 0.0
H2011 H 0.77197 0.11843 0.74772 0.0
H2012 H 0.75518 0.10662 0.72762 0.0
H2013 H 0.73088 0.09378 0.75671 0.0
H2014 H 0.74758 0.10543 0.77691 0.0
H2015 H 0.73236 0.08127 0.77797 0.0
H2016 H 0.77005 0.05084 0.77244 0.0
H2017 H 0.79128 0.07134 0.80002 0.0
H2018 H 0.77888 0.11193 0.78577 0.0
C2019 C 0.72988 0.06574 0.72705 0.0
C2020 C 0.72194 0.04802 0.71823 0.0
C2021 C 0.72821 0.03682 0.72427 0.0
C2022 C 0.74194 0.04306 0.7392 0.0
C2023 C 0.74928 0.06054 0.74783 0.0
C2024 C 0.74353 0.07174 0.74186 0.0
C2025 C 0.75321 0.08974 0.75386 0.0
C2026 C 0.76409 0.10539 0.73868 0.0
C2027 C 0.74023 0.09272 0.76715 0.0
C2028 C 0.76512 0.08683 0.76781 0.0
C2029 C 0.76276 0.06996 0.76405 0.0
C2030 C 0.77211 0.06414 0.77538 0.0
C2031 C 0.78418 0.0759 0.79096 0.0
C2032 C 0.78673 0.09323 0.79509 0.0
C2033 C 0.77708 0.09869 0.78321 0.0
H2034 H 0.04177 0.31292 0.03191 0.0
H2035 H 0.06743 0.37126 0.04005 0.0
H2036 H 0.08771 0.37141 0.06649 0.0
H2037 H 0.04262 0.30399 0.08602 0.0
H2038 H 0.04684 0.28607 0.08113 0.0
H2039 H 0.03514 0.29062 0.06171 0.0
H2040 H 0.05821 0.29481 0.0331 0.0
H2041 H 0.06991 0.29013 0.05239 0.0
H2042 H 0.08147 0.31087 0.03796 0.0
H2043 H 0.10439 0.3651 0.09294 0.0
H2044 H 0.11688 0.35289 0.11705 0.0
H2045 H 0.07956 0.2985 0.09261 0.0
C2046 C 0.05184 0.32577 0.03898 0.0
C2047 C 0.05308 0.3421 0.03384 0.0
C2048 C 0.06626 0.35859 0.04371 0.0
C2049 C 0.07783 0.35882 0.05875 0.0
C2050 C 0.07601 0.34244 0.06376 0.0
C2051 C 0.0634 0.32623 0.05413 0.0
C2052 C 0.06379 0.31046 0.06294 0.0
C2053 C 0.04604 0.297 0.07358 0.0
C2054 C 0.06864 0.30102 0.04556 0.0
C2055 C 0.07854 0.32033 0.07911 0.0
C2056 C 0.08544 0.33877 0.07929 0.0
C2057 C 0.09908 0.35068 0.09298 0.0
C2058 C 0.10597 0.34358 0.10676 0.0
C2059 C 0.09914 0.3247 0.10685 0.0
C2060 C 0.08519 0.31299 0.09282 0.0
H2061 H 0.64314 0.70565 0.04005 0.0
H2062 H 0.69217 0.71482 0.0121 0.0
H2063 H 0.70834 0.74574 0.02788 0.0
H2064 H 0.6533 0.75275 0.03498 0.0
H2065 H 0.64294 0.75202 0.06005 0.0
H2066 H 0.6349 0.73157 0.04416 0.0
H2067 H 0.63929 0.71624 0.07603 0.0
H2068 H 0.64757 0.73667 0.09191 0.0
H2069 H 0.66085 0.72673 0.08831 0.0
H2070 H 0.71976 0.77412 0.05037 0.0
H2071 H 0.72524 0.79834 0.07638 0.0
H2072 H 0.66861 0.77092 0.08867 0.0
C2073 C 0.65718 0.7143 0.03675 0.0
C2074 C 0.66637 0.7078 0.02481 0.0
C2075 C 0.68482 0.7195 0.02115 0.0
C2076 C 0.69414 0.7371 0.03005 0.0
C2077 C 0.68479 0.74286 0.04238 0.0
C2078 C 0.66668 0.73189 0.0455 0.0
C2079 C 0.65996 0.74083 0.06055 0.0
C2080 C 0.64701 0.74451 0.04925 0.0
C2081 C 0.65143 0.72944 0.08036 0.0
C2082 C 0.67721 0.75828 0.06594 0.0
C2083 C 0.69136 0.75928 0.05519 0.0
C2084 C 0.70874 0.77366 0.05858 0.0
C2085 C 0.71171 0.78738 0.07335 0.0
C2086 C 0.69738 0.78659 0.0846 0.0
C2087 C 0.67991 0.77189 0.08056 0.0
H2088 H 0.29404 0.96496 0.05291 0.0
H2089 H 0.27172 0.951 0.98941 0.0
H2090 H 0.24172 0.93162 0.00465 0.0
H2091 H 0.2656 0.92147 0.07527 0.0
H2092 H 0.26397 0.93063 0.10061 0.0
H2093 H 0.28355 0.9433 0.08461 0.0
H2094 H 0.27944 0.97067 0.08589 0.0
H2095 H 0.25983 0.95809 0.10188 0.0
H2096 H 0.25869 0.96756 0.0774 0.0
H2097 H 0.21419 0.91346 0.02708 0.0
H2098 H 0.1914 0.89807 0.05476 0.0
H2099 H 0.23204 0.92506 0.10332 0.0
C2100 C 0.28288 0.95781 0.04214 0.0
C2101 C 0.28522 0.95946 0.01995 0.0
C2102 C 0.27023 0.94994 0.00647 0.0
C2103 C 0.25316 0.93891 0.01497 0.0
C2104 C 0.25134 0.93765 0.03695 0.0
C2105 C 0.26581 0.94688 0.05033 0.0
C2106 C 0.26036 0.94337 0.07336 0.0
C2107 C 0.26887 0.93414 0.08409 0.0
C2108 C 0.26484 0.96097 0.08533 0.0
C2109 C 0.24054 0.93061 0.07089 0.0
C2110 C 0.23556 0.92746 0.0498 0.0
C2111 C 0.21793 0.91593 0.04366 0.0
C2112 C 0.20506 0.90734 0.05951 0.0
C2113 C 0.2099 0.91037 0.08125 0.0
C2114 C 0.2279 0.92227 0.08688 0.0
H2115 H 0.33058 0.02711 0.95107 0.0
H2116 H 0.34504 0.04953 0.01522 0.0
H2117 H 0.33982 0.07377 0.00611 0.0
H2118 H 0.35051 0.06995 0.92459 0.0
H2119 H 0.33302 0.06144 0.90516 0.0
H2120 H 0.3385 0.04631 0.91665 0.0
H2121 H 0.30576 0.0255 0.92841 0.0
H2122 H 0.30022 0.04065 0.91713 0.0
H2123 H 0.29548 0.03487 0.94464 0.0
H2124 H 0.33206 0.09494 0.99023 0.0
H2125 H 0.32343 0.11217 0.96846 0.0
H2126 H 0.31431 0.07591 0.91468 0.0
C2127 C 0.33281 0.03719 0.9632 0.0
C2128 C 0.33825 0.03643 0.98387 0.0
C2129 C 0.34093 0.04986 0.99926 0.0
C2130 C 0.33796 0.06365 0.99425 0.0
C2131 C 0.33234 0.06382 0.97379 0.0
C2132 C 0.3299 0.051 0.95848 0.0
C2133 C 0.32362 0.05406 0.93776 0.0
C2134 C 0.33723 0.05819 0.91999 0.0
C2135 C 0.30518 0.0378 0.93164 0.0
C2136 C 0.32282 0.07057 0.94382 0.0
C2137 C 0.3279 0.07599 0.96466 0.0
C2138 C 0.32816 0.09089 0.97385 0.0
C2139 C 0.3233 0.10062 0.96134 0.0
C2140 C 0.31825 0.09543 0.93984 0.0
C2141 C 0.31791 0.08011 0.9311 0.0
H2142 H 0.98413 0.30436 0.96641 0.0
H2143 H 0.9652 0.28996 0.03097 0.0
H2144 H 0.94111 0.25985 0.01803 0.0
H2145 H 0.94213 0.28313 0.94181 0.0
H2146 H 0.94859 0.27546 0.91853 0.0
H2147 H 0.9649 0.29548 0.93301 0.0
H2148 H 0.98417 0.28151 0.9373 0.0
H2149 H 0.9679 0.26141 0.92283 0.0
H2150 H 0.97459 0.25961 0.94899 0.0
H2151 H 0.91788 0.23229 0.99784 0.0
H2152 H 0.89765 0.20872 0.97177 0.0
H2153 H 0.93229 0.24069 0.92061 0.0
C2154 C 0.97501 0.29484 0.97786 0.0
C2155 C 0.97652 0.29951 0.9997 0.0
C2156 C 0.96432 0.28665 0.01417 0.0
C2157 C 0.95061 0.26952 0.00697 0.0
C2158 C 0.94941 0.26541 0.98532 0.0
C2159 C 0.96135 0.27764 0.97098 0.0
C2160 C 0.95686 0.27003 0.94849 0.0
C2161 C 0.95288 0.28172 0.93465 0.0
C2162 C 0.97177 0.26802 0.93884 0.0
C2163 C 0.94032 0.25174 0.95237 0.0
C2164 C 0.93625 0.24933 0.97372 0.0
C2165 C 0.92104 0.23392 0.9811 0.0
C2166 C 0.90962 0.22066 0.96623 0.0
C2167 C 0.91355 0.2229 0.9443 0.0
C2168 C 0.92919 0.23854 0.93735 0.0
H2169 H 0.70616 0.68034 0.94803 0.0
H2170 H 0.70808 0.6522 0.00259 0.0
H2171 H 0.73574 0.65524 0.98872 0.0
H2172 H 0.72134 0.66043 0.90989 0.0
H2173 H 0.73404 0.68084 0.89508 0.0
H2174 H 0.71467 0.67672 0.90959 0.0
H2175 H 0.73357 0.70752 0.92983 0.0
H2176 H 0.75301 0.71172 0.9154 0.0
H2177 H 0.75313 0.71226 0.94398 0.0
H2178 H 0.76305 0.66117 0.96851 0.0
H2179 H 0.78778 0.66939 0.94358 0.0
H2180 H 0.76735 0.69317 0.90224 0.0
C2181 C 0.71238 0.67483 0.95715 0.0
C2182 C 0.70498 0.66604 0.97641 0.0
C2183 C 0.71354 0.659 0.98779 0.0
C2184 C 0.72924 0.66067 0.98005 0.0
C2185 C 0.73615 0.66941 0.96096 0.0
C2186 C 0.72798 0.67636 0.94968 0.0
C2187 C 0.73791 0.68495 0.92947 0.0
C2188 C 0.7263 0.67515 0.90985 0.0
C2189 C 0.74482 0.70532 0.9297 0.0
C2190 C 0.75297 0.68171 0.93107 0.0
C2191 C 0.75175 0.67275 0.94934 0.0
C2192 C 0.76411 0.66815 0.95414 0.0
C2193 C 0.77804 0.67278 0.93982 0.0
C2194 C 0.77946 0.68188 0.92094 0.0
C2195 C 0.76675 0.68642 0.91664 0.0
H2196 H 0.96959 0.69452 0.97243 0.0
H2197 H 0.94843 0.63694 0.96309 0.0
H2198 H 0.92681 0.6349 0.93736 0.0
H2199 H 0.92737 0.69135 0.96947 0.0
H2200 H 0.93639 0.71233 0.95578 0.0
H2201 H 0.95021 0.70923 0.97351 0.0
H2202 H 0.97297 0.71673 0.94322 0.0
H2203 H 0.95912 0.71966 0.92534 0.0
H2204 H 0.96575 0.70379 0.9186 0.0
H2205 H 0.90817 0.63919 0.91188 0.0
H2206 H 0.89215 0.64912 0.89019 0.0
H2207 H 0.92458 0.70362 0.91714 0.0
C2208 C 0.96036 0.68147 0.96504 0.0
C2209 C 0.96073 0.6659 0.96974 0.0
C2210 C 0.94838 0.64905 0.95979 0.0
C2211 C 0.93609 0.64775 0.94508 0.0
C2212 C 0.93624 0.66339 0.9406 0.0
C2213 C 0.94791 0.67989 0.95042 0.0
C2214 C 0.94506 0.69455 0.94301 0.0
C2215 C 0.93941 0.70232 0.96155 0.0
C2216 C 0.96172 0.70957 0.93188 0.0
C2217 C 0.93 0.6837 0.92744 0.0
C2218 C 0.9252 0.66579 0.9262 0.0
C2219 C 0.9117 0.65315 0.91283 0.0
C2220 C 0.90263 0.65891 0.90065 0.0
C2221 C 0.90702 0.67712 0.90203 0.0
C2222 C 0.92103 0.68966 0.91549 0.0
H2223 H 0.333 0.29391 0.99882 0.0
H2224 H 0.32103 0.31968 0.94957 0.0
H2225 H 0.31034 0.29255 0.92642 0.0
H2226 H 0.349 0.27242 0.96472 0.0
H2227 H 0.33942 0.252 0.97965 0.0
H2228 H 0.34543 0.27313 0.99286 0.0
H2229 H 0.31332 0.25879 0.00716 0.0
H2230 H 0.30722 0.23759 0.99401 0.0
H2231 H 0.29495 0.24823 0.98883 0.0
H2232 H 0.30249 0.26355 0.90792 0.0
H2233 H 0.29771 0.23426 0.89524 0.0
H2234 H 0.31358 0.2266 0.95688 0.0
C2235 C 0.32804 0.29382 0.98322 0.0
C2236 C 0.32786 0.30893 0.97602 0.0
C2237 C 0.32128 0.30826 0.95547 0.0
C2238 C 0.31516 0.29291 0.94219 0.0
C2239 C 0.3156 0.27829 0.94972 0.0
C2240 C 0.32179 0.27855 0.96976 0.0
C2241 C 0.32117 0.26114 0.97375 0.0
C2242 C 0.33987 0.2649 0.97799 0.0
C2243 C 0.3084 0.25083 0.99202 0.0
C2244 C 0.31394 0.25122 0.95268 0.0
C2245 C 0.31076 0.26134 0.9391 0.0
C2246 C 0.30468 0.25536 0.91849 0.0
C2247 C 0.30188 0.23861 0.9115 0.0
C2248 C 0.30507 0.22796 0.9251 0.0
C2249 C 0.31106 0.23439 0.94603 0.0
H2250 H 0.70621 0.0333 0.9777 0.0
H2251 H 0.6742 0.05628 0.96534 0.0
H2252 H 0.69894 0.08053 0.94507 0.0
H2253 H 0.74865 0.07612 0.98323 0.0
H2254 H 0.76091 0.06742 0.97009 0.0
H2255 H 0.74101 0.05241 0.98462 0.0
H2256 H 0.72786 0.03167 0.95106 0.0
H2257 H 0.74764 0.0467 0.93637 0.0
H2258 H 0.72625 0.04114 0.9268 0.0
H2259 H 0.72657 0.10162 0.92521 0.0
H2260 H 0.75572 0.11865 0.90752 0.0
H2261 H 0.76979 0.08191 0.93233 0.0
C2262 C 0.70449 0.04358 0.97099 0.0
C2263 C 0.68829 0.04295 0.97318 0.0
C2264 C 0.68649 0.0565 0.9639 0.0
C2265 C 0.70046 0.07033 0.95234 0.0
C2266 C 0.71612 0.07039 0.95017 0.0
C2267 C 0.71826 0.05742 0.95927 0.0
C2268 C 0.73628 0.06031 0.95397 0.0
C2269 C 0.74737 0.06431 0.97418 0.0
C2270 C 0.73438 0.04398 0.9413 0.0
C2271 C 0.74389 0.07687 0.94039 0.0
C2272 C 0.73204 0.08248 0.93847 0.0
C2273 C 0.73601 0.09743 0.92669 0.0
C2274 C 0.7526 0.10704 0.91676 0.0
C2275 C 0.76503 0.10164 0.91862 0.0
C2276 C 0.76051 0.08626 0.93048 0.0
H2277 H 0.69825 0.9809 0.04416 0.0
H2278 H 0.6478 0.94131 0.01495 0.0
H2279 H 0.64849 0.91682 0.03262 0.0
H2280 H 0.71749 0.95201 0.04156 0.0
H2281 H 0.7285 0.96065 0.06677 0.0
H2282 H 0.72488 0.97489 0.05017 0.0
H2283 H 0.70863 0.98038 0.08118 0.0
H2284 H 0.71201 0.96601 0.09778 0.0
H2285 H 0.68989 0.96124 0.09349 0.0
H2286 H 0.65277 0.89717 0.05666 0.0
H2287 H 0.6619 0.8832 0.08305 0.0
H2288 H 0.71005 0.93522 0.09564 0.0
C2289 C 0.68752 0.96705 0.04113 0.0
C2290 C 0.67296 0.96303 0.0282 0.0
C2291 C 0.65913 0.94473 0.02473 0.0
C2292 C 0.65938 0.93071 0.03473 0.0
C2293 C 0.67366 0.9352 0.04789 0.0
C2294 C 0.68763 0.95287 0.05084 0.0
C2295 C 0.70105 0.95408 0.06643 0.0
C2296 C 0.71904 0.9608 0.05558 0.0
C2297 C 0.703 0.96614 0.08587 0.0
C2298 C 0.69216 0.9344 0.07224 0.0
C2299 C 0.67637 0.92374 0.06136 0.0
C2300 C 0.66524 0.90531 0.06503 0.0
C2301 C 0.67044 0.89754 0.08012 0.0
C2302 C 0.68666 0.90817 0.09122 0.0
C2303 C 0.69769 0.9268 0.08712 0.0
H2304 H 0.04686 0.72686 0.01724 0.0
H2305 H 0.01148 0.68551 0.06121 0.0
H2306 H 0.02446 0.70776 0.09081 0.0
H2307 H 0.08479 0.74873 0.05144 0.0
H2308 H 0.09212 0.77128 0.04315 0.0
H2309 H 0.07974 0.75224 0.02512 0.0
H2310 H 0.05658 0.76137 0.02028 0.0
H2311 H 0.06888 0.78043 0.03835 0.0
H2312 H 0.04576 0.76405 0.04326 0.0
H2313 H 0.04161 0.73395 0.11585 0.0
H2314 H 0.06216 0.76281 0.13482 0.0
H2315 H 0.08641 0.78735 0.07496 0.0
C2316 C 0.04181 0.7225 0.03307 0.0
C2317 C 0.02813 0.70442 0.03685 0.0
C2318 C 0.02192 0.69928 0.05785 0.0
C2319 C 0.02919 0.71182 0.07482 0.0
C2320 C 0.04263 0.72949 0.07058 0.0
C2321 C 0.0489 0.73488 0.05026 0.0
C2322 C 0.06369 0.75468 0.05021 0.0
C2323 C 0.08112 0.75685 0.042 0.0
C2324 C 0.05841 0.76579 0.03726 0.0
C2325 C 0.06481 0.75946 0.07367 0.0
C2326 C 0.05251 0.74473 0.0851 0.0
C2327 C 0.05127 0.74562 0.10709 0.0
C2328 C 0.06302 0.76202 0.11772 0.0
C2329 C 0.07582 0.77729 0.10635 0.0
C2330 C 0.07658 0.77598 0.08402 0.0
H2331 H 0.28091 0.31794 0.03963 0.0
H2332 H 0.30635 0.37606 0.03307 0.0
H2333 H 0.28327 0.37568 0.05585 0.0
H2334 H 0.23542 0.30749 0.03902 0.0
H2335 H 0.22793 0.29 0.05825 0.0
H2336 H 0.24608 0.29479 0.04077 0.0
H2337 H 0.26591 0.30001 0.07326 0.0
H2338 H 0.24787 0.29532 0.09083 0.0
H2339 H 0.26892 0.3164 0.09363 0.0
H2340 H 0.25847 0.36924 0.08096 0.0
H2341 H 0.23271 0.35689 0.1052 0.0
H2342 H 0.22322 0.30294 0.09474 0.0
C2343 C 0.28157 0.33058 0.04283 0.0
C2344 C 0.29545 0.34704 0.0346 0.0
C2345 C 0.29582 0.36328 0.03916 0.0
C2346 C 0.28279 0.36321 0.05211 0.0
C2347 C 0.26943 0.34678 0.06018 0.0
C2348 C 0.26864 0.33074 0.05558 0.0
C2349 C 0.25304 0.31496 0.06648 0.0
C2350 C 0.23984 0.30099 0.05015 0.0
C2351 C 0.25932 0.30616 0.08197 0.0
C2352 C 0.2453 0.32466 0.07817 0.0
C2353 C 0.25497 0.34302 0.07436 0.0
C2354 C 0.25072 0.35488 0.08396 0.0
C2355 C 0.23617 0.34777 0.09778 0.0
C2356 C 0.22602 0.32899 0.10178 0.0
C2357 C 0.23064 0.31732 0.09176 0.0
H2358 H 0.69564 0.66896 0.41486 0.0
H2359 H 0.72014 0.68517 0.35279 0.0
H2360 H 0.74182 0.67708 0.36229 0.0
H2361 H 0.73677 0.68644 0.44364 0.0
H2362 H 0.72743 0.66822 0.46209 0.0
H2363 H 0.71352 0.67497 0.45033 0.0
H2364 H 0.69224 0.64198 0.43661 0.0
H2365 H 0.70619 0.63518 0.44815 0.0
H2366 H 0.70088 0.631 0.42029 0.0
H2367 H 0.7601 0.66643 0.37764 0.0
H2368 H 0.77619 0.65675 0.39947 0.0
H2369 H 0.74124 0.64896 0.45253 0.0
C2370 C 0.7056 0.67084 0.40331 0.0
C2371 C 0.70616 0.67765 0.38306 0.0
C2372 C 0.71947 0.68003 0.36843 0.0
C2373 C 0.73179 0.67538 0.37361 0.0
C2374 C 0.73075 0.66851 0.39356 0.0
C2375 C 0.71819 0.66646 0.40832 0.0
C2376 C 0.72047 0.65935 0.4289 0.0
C2377 C 0.72481 0.67307 0.44733 0.0
C2378 C 0.70396 0.64077 0.43376 0.0
C2379 C 0.73626 0.65773 0.42332 0.0
C2380 C 0.74181 0.66291 0.40277 0.0
C2381 C 0.75603 0.66252 0.39385 0.0
C2382 C 0.76513 0.65709 0.40643 0.0
C2383 C 0.76016 0.65234 0.42783 0.0
C2384 C 0.74531 0.6524 0.43622 0.0
H2385 H 0.32437 0.02403 0.41096 0.0
H2386 H 0.32565 0.039 0.34561 0.0
H2387 H 0.33345 0.06954 0.35781 0.0
H2388 H 0.30527 0.04872 0.43321 0.0
H2389 H 0.31834 0.05539 0.45713 0.0
H2390 H 0.31261 0.03458 0.44327 0.0
H2391 H 0.34593 0.04528 0.44091 0.0
H2392 H 0.35176 0.06616 0.45468 0.0
H2393 H 0.36135 0.06668 0.42911 0.0
H2394 H 0.34139 0.0985 0.37696 0.0
H2395 H 0.3481 0.12373 0.40194 0.0
H2396 H 0.34225 0.09014 0.45475 0.0
C2397 C 0.32619 0.03369 0.39921 0.0
C2398 C 0.32438 0.0291 0.37733 0.0
C2399 C 0.32695 0.04218 0.36247 0.0
C2400 C 0.3314 0.05958 0.36923 0.0
C2401 C 0.33324 0.0637 0.39089 0.0
C2402 C 0.33067 0.05114 0.40567 0.0
C2403 C 0.33354 0.05909 0.42801 0.0
C2404 C 0.31642 0.04883 0.44117 0.0
C2405 C 0.34907 0.05932 0.4388 0.0
C2406 C 0.33813 0.07807 0.42344 0.0
C2407 C 0.33791 0.08046 0.40194 0.0
C2408 C 0.34166 0.09683 0.39385 0.0
C2409 C 0.3456 0.11113 0.40816 0.0
C2410 C 0.34578 0.10896 0.43031 0.0
C2411 C 0.34207 0.09219 0.43794 0.0
H2412 H 0.96865 0.30493 0.38996 0.0
H2413 H 0.94771 0.28811 0.32603 0.0
H2414 H 0.91802 0.26666 0.3407 0.0
H2415 H 0.94332 0.2612 0.41285 0.0
H2416 H 0.94001 0.26973 0.43775 0.0
H2417 H 0.95953 0.28383 0.42218 0.0
H2418 H 0.95182 0.30871 0.42212 0.0
H2419 H 0.93228 0.29468 0.4377 0.0
H2420 H 0.93036 0.30308 0.41276 0.0
H2421 H 0.89073 0.24684 0.36243 0.0
H2422 H 0.86788 0.22995 0.38956 0.0
H2423 H 0.90673 0.26035 0.43915 0.0
C2424 C 0.95785 0.29674 0.379 0.0
C2425 C 0.9605 0.29818 0.35683 0.0
C2426 C 0.94599 0.28724 0.34307 0.0
C2427 C 0.92908 0.27503 0.35125 0.0
C2428 C 0.92694 0.27398 0.37319 0.0
C2429 C 0.94092 0.28455 0.38687 0.0
C2430 C 0.93515 0.28082 0.4098 0.0
C2431 C 0.94509 0.27346 0.42131 0.0
C2432 C 0.93754 0.29783 0.42126 0.0
C2433 C 0.91572 0.26641 0.4069 0.0
C2434 C 0.91123 0.26267 0.38568 0.0
C2435 C 0.89406 0.24972 0.3791 0.0
C2436 C 0.88115 0.24029 0.39463 0.0
C2437 C 0.88548 0.24387 0.41649 0.0
C2438 C 0.90302 0.25717 0.42259 0.0
H2439 H 0.00786 0.36764 0.27897 0.0
H2440 H 0.01267 0.38846 0.34358 0.0
H2441 H 0.00882 0.4127 0.33075 0.0
H2442 H 0.03151 0.41121 0.25393 0.0
H2443 H 0.01723 0.40322 0.23098 0.0
H2444 H 0.02082 0.38781 0.24523 0.0
H2445 H 0.98685 0.36647 0.2502 0.0
H2446 H 0.98316 0.38182 0.23601 0.0
H2447 H 0.97433 0.37528 0.26237 0.0
H2448 H 0.00339 0.434 0.31099 0.0
H2449 H 0.99768 0.45137 0.28555 0.0
H2450 H 0.99653 0.41658 0.23399 0.0
C2451 C 0.0082 0.37733 0.29044 0.0
C2452 C 0.01055 0.37614 0.31229 0.0
C2453 C 0.01091 0.38911 0.32676 0.0
C2454 C 0.00872 0.40292 0.31963 0.0
C2455 C 0.00628 0.4036 0.298 0.0
C2456 C 0.0061 0.39121 0.28361 0.0
C2457 C 0.00307 0.3948 0.26124 0.0
C2458 C 0.01912 0.39954 0.24701 0.0
C2459 C 0.98582 0.37863 0.25192 0.0
C2460 C 0.00142 0.41107 0.26532 0.0
C2461 C 0.0033 0.41594 0.28662 0.0
C2462 C 0.00194 0.43034 0.29427 0.0
C2463 C 0.99858 0.44005 0.27973 0.0
C2464 C 0.99666 0.43531 0.25782 0.0
C2465 C 0.99815 0.42064 0.25061 0.0
H2466 H 0.60703 0.63686 0.32008 0.0
H2467 H 0.65654 0.63801 0.3175 0.0
H2468 H 0.64173 0.60911 0.29704 0.0
H2469 H 0.57755 0.58775 0.32456 0.0
H2470 H 0.56072 0.58668 0.30787 0.0
H2471 H 0.57489 0.60687 0.32361 0.0
H2472 H 0.58424 0.626 0.28978 0.0
H2473 H 0.57016 0.60588 0.27393 0.0
H2474 H 0.59342 0.62002 0.26765 0.0
H2475 H 0.62209 0.58094 0.27552 0.0
H2476 H 0.5989 0.55556 0.25375 0.0
H2477 H 0.56214 0.57261 0.27022 0.0
C2478 C 0.6147 0.63091 0.31545 0.0
C2479 C 0.63293 0.63967 0.32045 0.0
C2480 C 0.64255 0.63156 0.31385 0.0
C2481 C 0.63426 0.61512 0.30227 0.0
C2482 C 0.61634 0.60694 0.2974 0.0
C2483 C 0.60665 0.61453 0.30376 0.0
C2484 C 0.58776 0.60337 0.29557 0.0
C2485 C 0.57445 0.59571 0.314 0.0
C2486 C 0.58366 0.61448 0.28086 0.0
C2487 C 0.58846 0.5885 0.28337 0.0
C2488 C 0.60501 0.59073 0.28479 0.0
C2489 C 0.60901 0.57894 0.27444 0.0
C2490 C 0.59574 0.56452 0.2622 0.0
C2491 C 0.57871 0.56207 0.26033 0.0
C2492 C 0.57506 0.5742 0.27122 0.0
H2493 H 0.36409 0.98381 0.30844 0.0
H2494 H 0.38133 0.0407 0.31368 0.0
H2495 H 0.40965 0.0489 0.29644 0.0
H2496 H 0.40784 0.9899 0.31711 0.0
H2497 H 0.40388 0.97234 0.29796 0.0
H2498 H 0.38556 0.971 0.3124 0.0
H2499 H 0.36992 0.96838 0.27694 0.0
H2500 H 0.3882 0.96978 0.26241 0.0
H2501 H 0.38148 0.98559 0.25747 0.0
H2502 H 0.43515 0.05087 0.27659 0.0
H2503 H 0.45637 0.04644 0.25566 0.0
H2504 H 0.42244 0.98829 0.26275 0.0
C2505 C 0.37394 0.998 0.30629 0.0
C2506 C 0.37052 0.01162 0.31247 0.0
C2507 C 0.38366 0.03003 0.30909 0.0
C2508 C 0.39981 0.03484 0.29935 0.0
C2509 C 0.40264 0.02108 0.29311 0.0
C2510 C 0.39012 0.00304 0.29649 0.0
C2511 C 0.39611 0.99087 0.28722 0.0
C2512 C 0.39849 0.98041 0.30472 0.0
C2513 C 0.38316 0.9779 0.26999 0.0
C2514 C 0.4138 0.00487 0.2778 0.0
C2515 C 0.41736 0.02221 0.2815 0.0
C2516 C 0.43258 0.03736 0.2737 0.0
C2517 C 0.44448 0.0347 0.26171 0.0
C2518 C 0.44105 0.01703 0.25758 0.0
C2519 C 0.42555 0.00197 0.26591 0.0
H2520 H 0.61152 0.97944 0.30908 0.0
H2521 H 0.64856 0.03584 0.32697 0.0
H2522 H 0.63214 0.04492 0.3047 0.0
H2523 H 0.60523 0.9869 0.25478 0.0
H2524 H 0.58191 0.96965 0.25447 0.0
H2525 H 0.59683 0.96755 0.27143 0.0
H2526 H 0.57744 0.96466 0.30404 0.0
H2527 H 0.56246 0.96673 0.28718 0.0
H2528 H 0.57258 0.98203 0.30966 0.0
H2529 H 0.61176 0.04795 0.28057 0.0
H2530 H 0.58789 0.0445 0.25744 0.0
H2531 H 0.56393 0.98619 0.25564 0.0
C2532 C 0.61621 0.9937 0.30827 0.0
C2533 C 0.63135 0.00693 0.31974 0.0
C2534 C 0.63699 0.02545 0.31835 0.0
C2535 C 0.62778 0.03076 0.30569 0.0
C2536 C 0.61293 0.0174 0.29459 0.0
C2537 C 0.60712 0.99924 0.29581 0.0
C2538 C 0.59051 0.98758 0.28269 0.0
C2539 C 0.59383 0.97732 0.26478 0.0
C2540 C 0.57482 0.97448 0.29674 0.0
C2541 C 0.58786 0.00201 0.274 0.0
C2542 C 0.60102 0.01912 0.28092 0.0
C2543 C 0.60139 0.03462 0.27501 0.0
C2544 C 0.58785 0.03254 0.26179 0.0
C2545 C 0.57409 0.0151 0.25478 0.0
C2546 C 0.5742 -0.00032 0.26092 0.0
H2547 H 0.00748 0.61813 0.33073 0.0
H2548 H 0.01058 0.65693 0.28644 0.0
H2549 H 0.00719 0.63641 0.25656 0.0
H2550 H 0.03157 0.60284 0.29843 0.0
H2551 H 0.01772 0.57961 0.30619 0.0
H2552 H 0.02108 0.59769 0.32412 0.0
H2553 H 0.98703 0.5832 0.32677 0.0
H2554 H 0.98356 0.56513 0.30877 0.0
H2555 H 0.97427 0.57859 0.30289 0.0
H2556 H 0.00272 0.61149 0.23156 0.0
H2557 H 0.99745 0.58364 0.21303 0.0
H2558 H 0.99724 0.56104 0.27349 0.0
C2559 C 0.0076 0.62238 0.31475 0.0
C2560 C 0.00931 0.63914 0.31093 0.0
C2561 C 0.00926 0.64414 0.28977 0.0
C2562 C 0.00737 0.63259 0.27268 0.0
C2563 C 0.00553 0.6161 0.277 0.0
C2564 C 0.00565 0.61098 0.29749 0.0
C2565 C 0.00301 0.59231 0.29777 0.0
C2566 C 0.01932 0.59317 0.30718 0.0
C2567 C 0.98595 0.57903 0.30976 0.0
C2568 C 0.00125 0.5877 0.27425 0.0
C2569 C 0.00283 0.60164 0.26256 0.0
C2570 C 0.00156 0.6005 0.24053 0.0
C2571 C 0.99864 0.58468 0.23015 0.0
C2572 C 0.99697 0.57021 0.24182 0.0
C2573 C 0.99829 0.5718 0.26417 0.0
H2574 H 0.36708 0.39453 0.30275 0.0
H2575 H 0.37215 0.34926 0.31866 0.0
H2576 H 0.40071 0.36321 0.29959 0.0
H2577 H 0.38451 0.40015 0.25065 0.0
H2578 H 0.39613 0.42454 0.25181 0.0
H2579 H 0.37642 0.41139 0.26746 0.0
H2580 H 0.39386 0.42864 0.30156 0.0
H2581 H 0.4136 0.44192 0.28598 0.0
H2582 H 0.41393 0.42933 0.30794 0.0
H2583 H 0.42812 0.38147 0.27749 0.0
H2584 H 0.45265 0.40307 0.25453 0.0
H2585 H 0.42993 0.43666 0.25405 0.0
C2586 C 0.37424 0.3876 0.30237 0.0
C2587 C 0.36737 0.3708 0.31219 0.0
C2588 C 0.37716 0.36216 0.31127 0.0
C2589 C 0.39339 0.36996 0.30047 0.0
C2590 C 0.3997 0.38644 0.29078 0.0
C2591 C 0.39049 0.39521 0.29173 0.0
C2592 C 0.40004 0.41266 0.2797 0.0
C2593 C 0.38859 0.41214 0.26132 0.0
C2594 C 0.4057 0.42911 0.29469 0.0
C2595 C 0.41594 0.4122 0.27162 0.0
C2596 C 0.41554 0.39701 0.27821 0.0
C2597 C 0.42866 0.3935 0.27236 0.0
C2598 C 0.44257 0.40588 0.2594 0.0
C2599 C 0.44322 0.42155 0.25245 0.0
C2600 C 0.42972 0.4247 0.25881 0.0
H2601 H 0.35479 0.30984 0.38698 0.0
H2602 H 0.29864 0.27847 0.37136 0.0
H2603 H 0.29534 0.25261 0.39072 0.0
H2604 H 0.36205 0.27267 0.38176 0.0
H2605 H 0.3775 0.28074 0.40357 0.0
H2606 H 0.37545 0.29659 0.38809 0.0
H2607 H 0.36882 0.3093 0.42228 0.0
H2608 H 0.37079 0.29346 0.43785 0.0
H2609 H 0.35081 0.29406 0.43926 0.0
H2610 H 0.29796 0.23071 0.41308 0.0
H2611 H 0.30663 0.21381 0.43548 0.0
H2612 H 0.3611 0.25943 0.43583 0.0
C2613 C 0.34181 0.29751 0.38753 0.0
C2614 C 0.32696 0.29617 0.37771 0.0
C2615 C 0.31021 0.27978 0.37875 0.0
C2616 C 0.30819 0.26504 0.38973 0.0
C2617 C 0.32308 0.26689 0.3994 0.0
C2618 C 0.33958 0.28266 0.39828 0.0
C2619 C 0.35345 0.28122 0.41013 0.0
C2620 C 0.36797 0.2829 0.39498 0.0
C2621 C 0.36143 0.29535 0.42847 0.0
C2622 C 0.34213 0.26222 0.41827 0.0
C2623 C 0.32464 0.25419 0.41197 0.0
C2624 C 0.31162 0.23682 0.41803 0.0
C2625 C 0.31664 0.22738 0.43082 0.0
C2626 C 0.33452 0.23534 0.4373 0.0
C2627 C 0.34738 0.25296 0.43088 0.0
H2628 H 0.71306 0.04681 0.35726 0.0
H2629 H 0.67982 0.0102 0.40648 0.0
H2630 H 0.69695 0.034 0.43365 0.0
H2631 H 0.75426 0.06878 0.38661 0.0
H2632 H 0.76199 0.09086 0.37635 0.0
H2633 H 0.74734 0.07082 0.36068 0.0
H2634 H 0.72533 0.08163 0.35741 0.0
H2635 H 0.73987 0.10166 0.37317 0.0
H2636 H 0.7171 0.08685 0.38111 0.0
H2637 H 0.71742 0.06146 0.45547 0.0
H2638 H 0.74013 0.09127 0.47074 0.0
H2639 H 0.75991 0.11043 0.40757 0.0
C2640 C 0.70946 0.04377 0.37376 0.0
C2641 C 0.69513 0.02663 0.37975 0.0
C2642 C 0.69074 0.02324 0.4015 0.0
C2643 C 0.70039 0.03666 0.41707 0.0
C2644 C 0.71433 0.05343 0.41063 0.0
C2645 C 0.71888 0.05708 0.38953 0.0
C2646 C 0.73431 0.07638 0.38695 0.0
C2647 C 0.75043 0.07672 0.37707 0.0
C2648 C 0.72882 0.08727 0.37389 0.0
C2649 C 0.73772 0.08295 0.4099 0.0
C2650 C 0.72605 0.06945 0.42328 0.0
C2651 C 0.72666 0.07214 0.44519 0.0
C2652 C 0.73962 0.08907 0.4537 0.0
C2653 C 0.75177 0.1031 0.44033 0.0
C2654 C 0.75069 0.09999 0.41813 0.0
H2655 H 0.96013 0.67502 0.37778 0.0
H2656 H 0.94915 0.6204 0.36772 0.0
H2657 H 0.92067 0.60823 0.38657 0.0
H2658 H 0.94235 0.6688 0.43002 0.0
H2659 H 0.93309 0.68266 0.42656 0.0
H2660 H 0.95238 0.68708 0.41163 0.0
H2661 H 0.93605 0.68404 0.37658 0.0
H2662 H 0.91671 0.67963 0.39142 0.0
H2663 H 0.91485 0.66373 0.37106 0.0
H2664 H 0.89379 0.60202 0.40746 0.0
H2665 H 0.87007 0.60228 0.42825 0.0
H2666 H 0.89877 0.66089 0.42484 0.0
C2667 C 0.9517 0.66049 0.37941 0.0
C2668 C 0.95688 0.64867 0.37125 0.0
C2669 C 0.94547 0.62974 0.3738 0.0
C2670 C 0.92926 0.62268 0.3845 0.0
C2671 C 0.92462 0.63471 0.39249 0.0
C2672 C 0.93546 0.6532 0.39002 0.0
C2673 C 0.92747 0.66319 0.4004 0.0
C2674 C 0.93954 0.67619 0.41821 0.0
C2675 C 0.92353 0.67324 0.38388 0.0
C2676 C 0.91052 0.64743 0.40921 0.0
C2677 C 0.90911 0.63112 0.40447 0.0
C2678 C 0.89472 0.61471 0.41123 0.0
C2679 C 0.88138 0.615 0.42313 0.0
C2680 C 0.88255 0.63158 0.4281 0.0
C2681 C 0.89735 0.64797 0.42101 0.0
H2682 H 0.36076 0.97679 0.72109 0.0
H2683 H 0.38929 0.03548 0.71853 0.0
H2684 H 0.41272 0.0378 0.74136 0.0
H2685 H 0.37056 0.97439 0.77525 0.0
H2686 H 0.37324 0.95543 0.77063 0.0
H2687 H 0.35867 0.95828 0.75393 0.0
H2688 H 0.37591 0.9577 0.72066 0.0
H2689 H 0.39049 0.95477 0.73726 0.0
H2690 H 0.39958 0.97334 0.71931 0.0
H2691 H 0.43255 0.03387 0.76522 0.0
H2692 H 0.44849 0.0238 0.78697 0.0
H2693 H 0.40745 0.96773 0.77347 0.0
C2694 C 0.37195 0.99012 0.72528 0.0
C2695 C 0.37318 0.00594 0.71805 0.0
C2696 C 0.38808 0.02315 0.72382 0.0
C2697 C 0.40144 0.02463 0.73684 0.0
C2698 C 0.39975 0.00877 0.74382 0.0
C2699 C 0.38548 0.99185 0.73813 0.0
C2700 C 0.387 0.97696 0.74763 0.0
C2701 C 0.37144 0.9656 0.76276 0.0
C2702 C 0.38833 0.96499 0.73017 0.0
C2703 C 0.40431 0.98818 0.7596 0.0
C2704 C 0.41139 0.0065 0.75729 0.0
C2705 C 0.42718 0.01956 0.76712 0.0
C2706 C 0.43607 0.01373 0.77953 0.0
C2707 C 0.42917 0.99501 0.78186 0.0
C2708 C 0.41307 0.98212 0.77178 0.0
H2709 H 0.96849 0.35532 0.72522 0.0
H2710 H 0.01939 0.37021 0.69739 0.0
H2711 H 0.03266 0.40103 0.71301 0.0
H2712 H 0.97231 0.39826 0.71722 0.0
H2713 H 0.96158 0.39775 0.74192 0.0
H2714 H 0.95602 0.37687 0.72838 0.0
H2715 H 0.96377 0.36628 0.7622 0.0
H2716 H 0.96943 0.38716 0.77582 0.0
H2717 H 0.9854 0.38037 0.77409 0.0
H2718 H 0.04067 0.42986 0.73252 0.0
H2719 H 0.04266 0.45514 0.75374 0.0
H2720 H 0.9863 0.4219 0.7677 0.0
C2721 C 0.98241 0.36507 0.72236 0.0
C2722 C 0.9929 0.36034 0.7101 0.0
C2723 C 0.01107 0.37352 0.7067 0.0
C2724 C 0.01875 0.39106 0.71552 0.0
C2725 C 0.00807 0.39524 0.72761 0.0
C2726 C 0.99028 0.38268 0.73095 0.0
C2727 C 0.98177 0.39069 0.74455 0.0
C2728 C 0.96705 0.39091 0.73228 0.0
C2729 C 0.97468 0.38052 0.7654 0.0
C2730 C 0.99759 0.40968 0.74845 0.0
C2731 C 0.01263 0.412 0.73857 0.0
C2732 C 0.02894 0.42827 0.74017 0.0
C2733 C 0.02991 0.4426 0.75216 0.0
C2734 C 0.01462 0.44061 0.7623 0.0
C2735 C 0.99828 0.42387 0.76034 0.0
H2736 H 0.64202 0.64438 0.71897 0.0
H2737 H 0.62673 0.62034 0.65555 0.0
H2738 H 0.59823 0.59573 0.66948 0.0
H2739 H 0.62223 0.60214 0.74667 0.0
H2740 H 0.6151 0.61023 0.76892 0.0
H2741 H 0.63449 0.6259 0.75406 0.0
H2742 H 0.62069 0.64515 0.7474 0.0
H2743 H 0.60122 0.62949 0.76216 0.0
H2744 H 0.59905 0.63457 0.73531 0.0
H2745 H 0.57128 0.57418 0.68984 0.0
H2746 H 0.5476 0.55646 0.71566 0.0
H2747 H 0.58031 0.59401 0.76615 0.0
C2748 C 0.63271 0.6339 0.70803 0.0
C2749 C 0.63662 0.6343 0.68615 0.0
C2750 C 0.62406 0.62034 0.67236 0.0
C2751 C 0.60782 0.6063 0.68011 0.0
C2752 C 0.60433 0.60638 0.70169 0.0
C2753 C 0.61641 0.61975 0.71549 0.0
C2754 C 0.60928 0.61663 0.73797 0.0
C2755 C 0.62097 0.61354 0.75277 0.0
C2756 C 0.60745 0.6324 0.74619 0.0
C2757 C 0.59128 0.59947 0.73458 0.0
C2758 C 0.58873 0.59381 0.71353 0.0
C2759 C 0.57315 0.57838 0.7064 0.0
C2760 C 0.55982 0.56836 0.72122 0.0
C2761 C 0.56215 0.57374 0.74296 0.0
C2762 C 0.57809 0.5896 0.74964 0.0
H2763 H 0.6605 0.69966 0.61006 0.0
H2764 H 0.67898 0.72968 0.67001 0.0
H2765 H 0.67368 0.75278 0.65665 0.0
H2766 H 0.68015 0.73799 0.57703 0.0
H2767 H 0.66198 0.72834 0.55844 0.0
H2768 H 0.66653 0.71376 0.57297 0.0
H2769 H 0.63424 0.69642 0.58712 0.0
H2770 H 0.62958 0.71095 0.57261 0.0
H2771 H 0.62576 0.7088 0.6008 0.0
H2772 H 0.66722 0.77293 0.6366 0.0
H2773 H 0.65992 0.78897 0.61114 0.0
H2774 H 0.6459 0.74605 0.56401 0.0
C2775 C 0.66333 0.71102 0.62045 0.0
C2776 C 0.67014 0.71285 0.6411 0.0
C2777 C 0.67375 0.72798 0.65414 0.0
C2778 C 0.67077 0.74116 0.64671 0.0
C2779 C 0.66416 0.73899 0.62623 0.0
C2780 C 0.66045 0.7243 0.61329 0.0
C2781 C 0.65381 0.72542 0.59176 0.0
C2782 C 0.66637 0.72644 0.57401 0.0
C2783 C 0.63471 0.70945 0.58785 0.0
C2784 C 0.65451 0.74312 0.59457 0.0
C2785 C 0.66047 0.75068 0.6146 0.0
C2786 C 0.66254 0.76716 0.62087 0.0
C2787 C 0.65848 0.77622 0.60625 0.0
C2788 C 0.65247 0.76882 0.58555 0.0
C2789 C 0.65034 0.75196 0.57976 0.0
H2790 H 0.28295 0.94773 0.6704 0.0
H2791 H 0.32285 0.98511 0.6264 0.0
H2792 H 0.30798 0.96282 0.5972 0.0
H2793 H 0.27799 0.90662 0.64605 0.0
H2794 H 0.25439 0.89324 0.65062 0.0
H2795 H 0.26848 0.91189 0.66844 0.0
H2796 H 0.24949 0.92591 0.66219 0.0
H2797 H 0.23536 0.90733 0.64434 0.0
H2798 H 0.24607 0.93029 0.6355 0.0
H2799 H 0.28805 0.93756 0.57234 0.0
H2800 H 0.26468 0.90991 0.55357 0.0
H2801 H 0.23814 0.88834 0.61343 0.0
C2802 C 0.28862 0.95117 0.65466 0.0
C2803 C 0.30406 0.9682 0.65073 0.0
C2804 C 0.31105 0.97216 0.62987 0.0
C2805 C 0.30271 0.95959 0.61313 0.0
C2806 C 0.28746 0.94303 0.61748 0.0
C2807 C 0.28052 0.93869 0.63772 0.0
C2808 C 0.26379 0.91998 0.63792 0.0
C2809 C 0.26632 0.90718 0.65157 0.0
C2810 C 0.24773 0.92095 0.64543 0.0
C2811 C 0.26233 0.91466 0.6146 0.0
C2812 C 0.27611 0.92818 0.60311 0.0
C2813 C 0.27727 0.92678 0.58116 0.0
C2814 C 0.26393 0.91111 0.57064 0.0
C2815 C 0.24975 0.89705 0.5821 0.0
C2816 C 0.24902 0.89881 0.60437 0.0
H2817 H 0.04954 0.35457 0.64053 0.0
H2818 H 0.02091 0.29627 0.64776 0.0
H2819 H 0.04467 0.29515 0.62828 0.0
H2820 H 0.06523 0.35524 0.58822 0.0
H2821 H 0.08657 0.37567 0.59262 0.0
H2822 H 0.06759 0.37199 0.60769 0.0
H2823 H 0.08446 0.37626 0.64267 0.0
H2824 H 0.10352 0.38001 0.6277 0.0
H2825 H 0.0937 0.36251 0.64707 0.0
H2826 H 0.07076 0.30017 0.60655 0.0
H2827 H 0.09817 0.31123 0.58548 0.0
H2828 H 0.11004 0.36627 0.59316 0.0
C2829 C 0.04829 0.34157 0.63813 0.0
C2830 C 0.03335 0.3255 0.64563 0.0
C2831 C 0.03225 0.30877 0.64219 0.0
C2832 C 0.04566 0.30798 0.63113 0.0
C2833 C 0.06013 0.32406 0.62378 0.0
C2834 C 0.0616 0.34055 0.62727 0.0
C2835 C 0.07844 0.35582 0.61759 0.0
C2836 C 0.0742 0.36523 0.60051 0.0
C2837 C 0.09076 0.36945 0.63479 0.0
C2838 C 0.08612 0.3453 0.6079 0.0
C2839 C 0.07533 0.327 0.6116 0.0
C2840 C 0.07937 0.31448 0.60366 0.0
C2841 C 0.09488 0.32086 0.59163 0.0
C2842 C 0.10618 0.33958 0.58776 0.0
C2843 C 0.10174 0.35192 0.5961 0.0
H2844 H 0.28591 0.31101 0.61925 0.0
H2845 H 0.26914 0.31341 0.68363 0.0
H2846 H 0.24932 0.32283 0.67014 0.0
H2847 H 0.28829 0.35032 0.60251 0.0
H2848 H 0.28042 0.34187 0.57597 0.0
H2849 H 0.29184 0.33347 0.59034 0.0
H2850 H 0.26512 0.30057 0.58491 0.0
H2851 H 0.25366 0.30886 0.57035 0.0
H2852 H 0.24326 0.29499 0.59306 0.0
H2853 H 0.23265 0.33356 0.64985 0.0
H2854 H 0.22008 0.34464 0.62427 0.0
H2855 H 0.24895 0.33667 0.57332 0.0
C2856 C 0.27777 0.31311 0.63048 0.0
C2857 C 0.27893 0.31131 0.65249 0.0
C2858 C 0.26838 0.31462 0.6667 0.0
C2859 C 0.25709 0.31996 0.65919 0.0
C2860 C 0.25658 0.32201 0.63744 0.0
C2861 C 0.26661 0.31865 0.62328 0.0
C2862 C 0.26448 0.32295 0.60085 0.0
C2863 C 0.28232 0.33805 0.5919 0.0
C2864 C 0.25613 0.30582 0.58645 0.0
C2865 C 0.25181 0.32941 0.60463 0.0
C2866 C 0.24733 0.32865 0.62581 0.0
C2867 C 0.23605 0.33421 0.63321 0.0
C2868 C 0.22912 0.34066 0.61857 0.0
C2869 C 0.2336 0.34167 0.59676 0.0
C2870 C 0.2451 0.33591 0.5898 0.0
H2871 H 0.65443 0.96815 0.63599 0.0
H2872 H 0.65722 0.94888 0.6976 0.0
H2873 H 0.64746 0.91884 0.68143 0.0
H2874 H 0.61519 0.92556 0.61683 0.0
H2875 H 0.62349 0.92835 0.59006 0.0
H2876 H 0.62948 0.94797 0.60673 0.0
H2877 H 0.66281 0.96003 0.6004 0.0
H2878 H 0.65693 0.94049 0.58373 0.0
H2879 H 0.67131 0.94584 0.60622 0.0
H2880 H 0.6402 0.89198 0.65817 0.0
H2881 H 0.63513 0.86978 0.62937 0.0
H2882 H 0.63585 0.90597 0.58316 0.0
C2883 C 0.65281 0.95756 0.64614 0.0
C2884 C 0.65661 0.96086 0.66807 0.0
C2885 C 0.65435 0.94666 0.68078 0.0
C2886 C 0.64878 0.92954 0.67175 0.0
C2887 C 0.64533 0.9268 0.65005 0.0
C2888 C 0.64712 0.94036 0.63742 0.0
C2889 C 0.64324 0.93411 0.61439 0.0
C2890 C 0.62687 0.93399 0.60655 0.0
C2891 C 0.65955 0.94581 0.60037 0.0
C2892 C 0.63944 0.91505 0.61595 0.0
C2893 C 0.64065 0.91109 0.63668 0.0
C2894 C 0.63892 0.8948 0.64194 0.0
C2895 C 0.63608 0.88232 0.62554 0.0
C2896 C 0.6349 0.88618 0.60423 0.0
C2897 C 0.63632 0.90261 0.59942 0.0
H2898 H 0.03217 0.69986 0.6345 0.0
H2899 H 0.0545 0.71686 0.69781 0.0
H2900 H 0.08406 0.73755 0.68227 0.0
H2901 H 0.06986 0.70085 0.61005 0.0
H2902 H 0.0674 0.70925 0.58541 0.0
H2903 H 0.04822 0.69537 0.60159 0.0
H2904 H 0.04074 0.72042 0.60237 0.0
H2905 H 0.0599 0.73438 0.58623 0.0
H2906 H 0.05726 0.74302 0.61144 0.0
H2907 H 0.11098 0.75717 0.65964 0.0
H2908 H 0.13303 0.77431 0.63181 0.0
H2909 H 0.09291 0.74382 0.58351 0.0
C2910 C 0.04327 0.70783 0.64515 0.0
C2911 C 0.04102 0.70672 0.66739 0.0
C2912 C 0.0559 0.71747 0.68073 0.0
C2913 C 0.07275 0.72924 0.67205 0.0
C2914 C 0.07445 0.73005 0.65004 0.0
C2915 C 0.06011 0.7196 0.63679 0.0
C2916 C 0.06534 0.72326 0.6137 0.0
C2917 C 0.06254 0.70616 0.60201 0.0
C2918 C 0.05521 0.73072 0.6028 0.0
C2919 C 0.08485 0.73756 0.616 0.0
C2920 C 0.08989 0.74125 0.63706 0.0
C2921 C 0.10721 0.75428 0.64309 0.0
C2922 C 0.11967 0.76387 0.62715 0.0
C2923 C 0.11474 0.76039 0.60545 0.0
C2924 C 0.09709 0.74693 0.59993 0.0
H2925 H 0.99253 0.63862 0.74311 0.0
H2926 H 0.98078 0.61565 0.67902 0.0
H2927 H 0.98412 0.59072 0.69041 0.0
H2928 H 0.02582 0.62951 0.75398 0.0
H2929 H 0.01962 0.624 0.78131 0.0
H2930 H 0.01517 0.63938 0.7685 0.0
H2931 H 0.98184 0.6192 0.77813 0.0
H2932 H 0.9862 0.60378 0.79109 0.0
H2933 H 0.96974 0.59551 0.77038 0.0
H2934 H 0.99069 0.56945 0.70824 0.0
H2935 H 0.99874 0.55262 0.73163 0.0
H2936 H 0.00597 0.58939 0.78406 0.0
C2937 C 0.99044 0.62825 0.7315 0.0
C2938 C 0.98638 0.6291 0.71016 0.0
C2939 C 0.98385 0.61527 0.69547 0.0
C2940 C 0.98573 0.60106 0.70178 0.0
C2941 C 0.99003 0.60081 0.72286 0.0
C2942 C 0.99221 0.61395 0.73754 0.0
C2943 C 0.99727 0.61083 0.75908 0.0
C2944 C 0.01555 0.62688 0.76612 0.0
C2945 C 0.9829 0.60711 0.77564 0.0
C2946 C 0.99788 0.59404 0.75414 0.0
C2947 C 0.99364 0.58845 0.73318 0.0
C2948 C 0.99391 0.57362 0.72473 0.0
C2949 C 0.99862 0.56423 0.73808 0.0
C2950 C 0.00296 0.5697 0.75964 0.0
C2951 C 0.00248 0.58476 0.76772 0.0
H2952 H 0.35312 0.36539 0.72783 0.0
H2953 H 0.35535 0.38332 0.66378 0.0
H2954 H 0.3775 0.41476 0.67535 0.0
H2955 H 0.35753 0.40539 0.75484 0.0
H2956 H 0.37089 0.40519 0.7759 0.0
H2957 H 0.35465 0.38427 0.76275 0.0
H2958 H 0.37906 0.3773 0.75375 0.0
H2959 H 0.39535 0.39815 0.76689 0.0
H2960 H 0.39865 0.39369 0.73967 0.0
H2961 H 0.4013 0.44365 0.69322 0.0
H2962 H 0.42401 0.46817 0.71667 0.0
H2963 H 0.40492 0.4317 0.76931 0.0
C2964 C 0.35817 0.37594 0.71626 0.0
C2965 C 0.35257 0.37193 0.69489 0.0
C2966 C 0.35943 0.38612 0.68025 0.0
C2967 C 0.37201 0.404 0.68667 0.0
C2968 C 0.37735 0.40747 0.70783 0.0
C2969 C 0.37052 0.39387 0.72245 0.0
C2970 C 0.37869 0.4011 0.74414 0.0
C2971 C 0.3646 0.39885 0.76036 0.0
C2972 C 0.38852 0.39202 0.75153 0.0
C2973 C 0.3915 0.42084 0.73935 0.0
C2974 C 0.39053 0.42425 0.71831 0.0
C2975 C 0.40195 0.44123 0.70981 0.0
C2976 C 0.41476 0.45503 0.72315 0.0
C2977 C 0.41585 0.45175 0.74471 0.0
C2978 C 0.40397 0.43455 0.75295 0.0
H2979 H 0.60948 0.00459 0.69223 0.0
H2980 H 0.6508 0.01659 0.73772 0.0
H2981 H 0.63068 0.01313 0.76701 0.0
H2982 H 0.59161 0.02822 0.72146 0.0
H2983 H 0.56895 0.01166 0.71428 0.0
H2984 H 0.58676 0.01556 0.6967 0.0
H2985 H 0.57575 0.98141 0.69701 0.0
H2986 H 0.55796 0.97741 0.71467 0.0
H2987 H 0.5732 0.97075 0.72198 0.0
H2988 H 0.60594 0.00703 0.79139 0.0
H2989 H 0.57819 -0.00034 0.80948 0.0
H2990 H 0.55311 0.99274 0.7484 0.0
C2991 C 0.61433 0.00659 0.70834 0.0
C2992 C 0.63171 0.01083 0.71266 0.0
C2993 C 0.63754 0.01334 0.73398 0.0
C2994 C 0.62622 0.01141 0.75076 0.0
C2995 C 0.60914 0.00706 0.74598 0.0
C2996 C 0.60321 0.0048 0.72533 0.0
C2997 C 0.58414 0.0 0.72465 0.0
C2998 C 0.58279 0.01474 0.71362 0.0
C2999 C 0.57205 0.98128 0.71395 0.0
C3000 C 0.58026 -0.00028 0.74815 0.0
C3001 C 0.59487 0.00384 0.76014 0.0
C3002 C 0.59445 0.004 0.7822 0.0
C3003 C 0.57864 -0.0001 0.79232 0.0
C3004 C 0.56349 0.99579 0.7804 0.0
C3005 C 0.56439 0.99572 0.75799 0.0
loop_
_geom_bond_atom_site_label_1
_geom_bond_atom_site_label_2
_geom_bond_distance
_geom_bond_site_symmetry_2
_ccdc_geom_bond_type
C0 O1 1.160 . S
C0 O7 1.185 . S
O1 C0 1.160 . S
O2 Zn3 1.899 1_656 S
O2 C10 1.284 . S
Zn3 O2 1.899 1_454 S
Zn3 O4 2.032 . S
Zn3 O7 2.086 . S
Zn3 O12 1.977 1_554 S
O4 Zn3 2.032 . S
O4 C8 1.278 1_455 S
C5 O6 1.203 1_455 S
C5 O12 1.267 . S
O6 C5 1.203 1_655 S
O7 C0 1.185 . S
O7 Zn3 2.086 . S
C8 O4 1.278 1_655 S
C8 O9 1.211 . S
O9 C8 1.211 . S
C10 O2 1.284 . S
C10 O11 1.273 1_556 S
O11 C10 1.273 1_554 S
O12 Zn3 1.977 1_556 S
O12 C5 1.267 . S
C13 O14 1.160 . S
C13 O20 1.185 1_556 S
O14 C13 1.160 . S
O15 Zn16 1.899 . S
O15 C23 1.284 . S
Zn16 O15 1.899 . S
Zn16 O17 2.032 1_554 S
Zn16 O20 2.086 . S
Zn16 O25 1.977 . S
O17 Zn16 2.032 1_556 S
O17 C21 1.278 . S
C18 O19 1.203 . S
C18 O25 1.267 . S
O19 C18 1.203 . S
O20 C13 1.185 1_554 S
O20 Zn16 2.086 . S
C21 O17 1.278 . S
C21 O22 1.211 . S
O22 C21 1.211 . S
C23 O15 1.284 . S
C23 O24 1.273 . S
O24 C23 1.273 . S
O25 Zn16 1.977 . S
O25 C18 1.267 . S
C26 O27 1.160 . S
C26 O33 1.185 1_556 S
O27 C26 1.160 . S
O28 Zn29 1.899 1_565 S
O28 C36 1.284 . S
Zn29 O28 1.899 1_545 S
Zn29 O30 2.032 1_554 S
Zn29 O33 2.086 . S
Zn29 O38 1.977 . S
O30 Zn29 2.032 1_556 S
O30 C34 1.277 . S
C31 O32 1.203 1_545 S
C31 O38 1.267 . S
O32 C31 1.203 1_565 S
O33 C26 1.185 1_554 S
O33 Zn29 2.086 . S
C34 O30 1.277 . S
C34 O35 1.211 1_545 S
O35 C34 1.211 1_565 S
C36 O28 1.284 . S
C36 O37 1.273 . S
O37 C36 1.273 . S
O38 Zn29 1.977 . S
O38 C31 1.267 . S
C39 O40 1.160 . S
C39 O46 1.185 1_556 S
O40 C39 1.160 . S
O41 Zn42 1.899 1_455 S
O41 C49 1.284 . S
Zn42 O41 1.899 1_655 S
Zn42 O43 2.009 1_654 S
Zn42 O46 2.086 . S
Zn42 O51 1.977 . S
O43 Zn42 2.009 1_456 S
O43 C47 1.336 . S
C44 O45 1.203 1_655 S
C44 O51 1.267 . S
O45 C44 1.203 1_455 S
O46 C39 1.185 1_554 S
O46 Zn42 2.086 . S
C47 O43 1.336 . S
C47 O48 1.211 . S
O48 C47 1.211 . S
C49 O41 1.284 . S
C49 O50 1.273 . S
O50 C49 1.273 . S
O51 Zn42 1.977 . S
O51 C44 1.267 . S
C52 O53 1.160 . S
C52 O59 1.185 . S
O53 C52 1.160 . S
O54 Zn55 1.899 1_556 S
O54 C62 1.284 . S
Zn55 O54 1.899 1_554 S
Zn55 O56 2.032 . S
Zn55 O59 2.086 . S
Zn55 O64 1.977 1_554 S
O56 Zn55 2.032 . S
O56 C60 1.278 . S
C57 O58 1.203 . S
C57 O64 1.267 . S
O58 C57 1.203 . S
O59 C52 1.185 . S
O59 Zn55 2.086 . S
C60 O56 1.278 . S
C60 O61 1.211 . S
O61 C60 1.211 . S
C62 O54 1.284 . S
C62 O63 1.273 1_556 S
O63 C62 1.273 1_554 S
O64 Zn55 1.977 1_556 S
O64 C57 1.267 . S
C65 O66 1.160 . S
C65 O72 1.185 . S
O66 C65 1.160 . S
O67 Zn68 1.899 1_546 S
O67 C75 1.284 . S
Zn68 O67 1.899 1_564 S
Zn68 O69 2.032 1_565 S
Zn68 O72 2.086 . S
Zn68 O77 1.977 1_554 S
O69 Zn68 2.032 1_545 S
O69 C73 1.278 . S
C70 O71 1.203 1_565 S
C70 O77 1.267 . S
O71 C70 1.203 1_545 S
O72 C65 1.185 . S
O72 Zn68 2.086 . S
C73 O69 1.278 . S
C73 O74 1.211 . S
O74 C73 1.211 . S
C75 O67 1.284 . S
C75 O76 1.273 1_556 S
O76 C75 1.273 1_554 S
O77 Zn68 1.977 1_556 S
O77 C70 1.267 . S
C78 O79 1.160 . S
C78 O85 1.185 . S
O79 C78 1.160 . S
O80 Zn81 1.899 . S
O80 C88 1.284 . S
Zn81 O80 1.899 . S
Zn81 O82 2.032 . S
Zn81 O85 2.086 . S
Zn81 O90 1.977 . S
O82 Zn81 2.032 . S
O82 C86 1.278 . S
C83 O84 1.203 . S
C83 O90 1.267 . S
O84 C83 1.203 . S
O85 C78 1.185 . S
O85 Zn81 2.086 . S
C86 O82 1.278 . S
C86 O87 1.211 . S
O87 C86 1.211 . S
C88 O80 1.284 . S
C88 O89 1.273 . S
O89 C88 1.273 . S
O90 Zn81 1.977 . S
O90 C83 1.267 . S
C91 O92 1.160 1_565 S
C91 O98 1.185 . S
O92 C91 1.160 1_545 S
O93 Zn94 1.899 1_545 S
O93 C101 1.284 . S
Zn94 O93 1.899 1_565 S
Zn94 O95 2.032 . S
Zn94 O98 2.086 . S
Zn94 O103 1.977 . S
O95 Zn94 2.032 . S
O95 C99 1.278 . S
C96 O97 1.203 . S
C96 O103 1.267 . S
O97 C96 1.203 . S
O98 C91 1.185 . S
O98 Zn94 2.086 . S
C99 O95 1.278 . S
C99 O100 1.211 . S
O100 C99 1.211 . S
C101 O93 1.284 . S
C101 O102 1.273 . S
O102 C101 1.273 . S
O103 Zn94 1.977 . S
O103 C96 1.267 . S
C104 O105 1.160 . S
C104 O111 1.185 . S
O105 C104 1.160 . S
O106 Zn107 1.899 . S
O106 C114 1.284 1_455 S
Zn107 O106 1.899 . S
Zn107 O108 2.032 . S
Zn107 O111 2.086 . S
Zn107 O116 1.977 . S
O108 Zn107 2.032 . S
O108 C112 1.278 . S
C109 O110 1.203 . S
C109 O116 1.267 . S
O110 C109 1.203 . S
O111 C104 1.185 . S
O111 Zn107 2.086 . S
C112 O108 1.278 . S
C112 O113 1.211 . S
O113 C112 1.211 . S
C114 O106 1.284 1_655 S
C114 O115 1.234 1_655 S
O115 C114 1.234 1_455 S
O116 Zn107 1.977 . S
O116 C109 1.267 . S
C117 O118 1.160 1_565 S
C117 O124 1.185 . S
O118 C117 1.160 1_545 S
O119 Zn120 1.899 1_545 S
O119 C127 1.284 . S
Zn120 O119 1.899 1_565 S
Zn120 O121 2.032 . S
Zn120 O124 2.086 . S
Zn120 O129 1.977 . S
O121 Zn120 2.032 . S
O121 C125 1.278 . S
C122 O123 1.203 . S
C122 O129 1.267 . S
O123 C122 1.203 . S
O124 C117 1.185 . S
O124 Zn120 2.086 . S
C125 O121 1.278 . S
C125 O126 1.211 . S
O126 C125 1.211 . S
C127 O119 1.284 . S
C127 O128 1.273 . S
O128 C127 1.273 . S
O129 Zn120 1.977 . S
O129 C122 1.267 . S
C130 O131 1.160 . S
C130 O137 1.185 . S
O131 C130 1.160 . S
O132 Zn133 1.899 . S
O132 C140 1.284 . S
Zn133 O132 1.899 . S
Zn133 O134 2.032 . S
Zn133 O137 2.086 1_455 S
Zn133 O142 1.977 . S
O134 Zn133 2.032 . S
O134 C138 1.278 . S
C135 O136 1.203 . S
C135 O142 1.267 . S
O136 C135 1.203 . S
O137 C130 1.185 . S
O137 Zn133 2.086 1_655 S
C138 O134 1.278 . S
C138 O139 1.211 . S
O139 C138 1.211 . S
C140 O132 1.284 . S
C140 O141 1.273 . S
O141 C140 1.273 . S
O142 Zn133 1.977 . S
O142 C135 1.267 . S
C143 O144 1.160 . S
C143 O150 1.185 . S
O144 C143 1.160 . S
O145 Zn146 1.899 . S
O145 C153 1.284 . S
Zn146 O145 1.899 . S
Zn146 O147 2.032 . S
Zn146 O150 2.086 . S
Zn146 O155 1.977 . S
O147 Zn146 2.032 . S
O147 C151 1.278 . S
C148 O149 1.203 . S
C148 O155 1.267 . S
O149 C148 1.203 . S
O150 C143 1.185 . S
O150 Zn146 2.086 . S
C151 O147 1.278 . S
C151 O152 1.211 . S
O152 C151 1.211 . S
C153 O145 1.284 . S
C153 O154 1.273 . S
O154 C153 1.273 . S
O155 Zn146 1.977 . S
O155 C148 1.267 . S
C156 O157 1.197 . S
C156 O163 1.185 . S
O157 C156 1.197 . S
O158 Zn159 1.887 1_565 S
O158 C166 1.283 . S
Zn159 O158 1.887 1_545 S
Zn159 O160 2.032 . S
Zn159 O163 2.086 . S
Zn159 O168 1.977 . S
O160 Zn159 2.032 . S
O160 C164 1.278 . S
C161 O162 1.203 . S
C161 O168 1.267 . S
O162 C161 1.203 . S
O163 C156 1.185 . S
O163 Zn159 2.086 . S
C164 O160 1.278 . S
C164 O165 1.211 . S
O165 C164 1.211 . S
C166 O158 1.283 . S
C166 O167 1.298 . S
O167 C166 1.298 . S
O168 Zn159 1.977 . S
O168 C161 1.267 . S
C169 O170 1.160 . S
C169 O176 1.185 . S
O170 C169 1.160 . S
O171 Zn172 1.899 . S
O171 C179 1.284 . S
Zn172 O171 1.899 . S
Zn172 O173 2.032 . S
Zn172 O176 2.086 1_655 S
Zn172 O181 1.977 . S
O173 Zn172 2.032 . S
O173 C177 1.278 . S
C174 O175 1.203 . S
C174 O181 1.267 . S
O175 C174 1.203 . S
O176 C169 1.185 . S
O176 Zn172 2.086 1_455 S
C177 O173 1.278 . S
C177 O178 1.211 . S
O178 C177 1.211 . S
C179 O171 1.284 . S
C179 O180 1.273 . S
O180 C179 1.273 . S
O181 Zn172 1.977 . S
O181 C174 1.267 . S
C182 O183 1.160 . S
C182 O189 1.185 . S
O183 C182 1.160 . S
O184 Zn185 1.899 . S
O184 C192 1.284 . S
Zn185 O184 1.899 . S
Zn185 O186 2.032 . S
Zn185 O189 2.086 . S
Zn185 O194 1.977 . S
O186 Zn185 2.032 . S
O186 C190 1.278 . S
C187 O188 1.203 . S
C187 O194 1.267 . S
O188 C187 1.203 . S
O189 C182 1.185 . S
O189 Zn185 2.086 . S
C190 O186 1.278 . S
C190 O191 1.211 . S
O191 C190 1.211 . S
C192 O184 1.284 . S
C192 O193 1.273 . S
O193 C192 1.273 . S
O194 Zn185 1.977 . S
O194 C187 1.267 . S
C195 O196 1.160 . S
C195 O202 1.185 . S
O196 C195 1.160 . S
O197 Zn198 1.899 . S
O197 C205 1.284 . S
Zn198 O197 1.899 . S
Zn198 O199 2.032 . S
Zn198 O202 2.086 . S
Zn198 O207 1.977 . S
O199 Zn198 2.032 . S
O199 C203 1.278 . S
C200 O201 1.203 . S
C200 O207 1.267 . S
O201 C200 1.203 . S
O202 C195 1.185 . S
O202 Zn198 2.086 . S
C203 O199 1.278 . S
C203 O204 1.211 . S
O204 C203 1.211 . S
C205 O197 1.284 . S
C205 O206 1.273 . S
O206 C205 1.273 . S
O207 Zn198 1.977 . S
O207 C200 1.267 . S
C208 O209 1.164 1_545 S
C208 O215 1.185 . S
O209 C208 1.164 1_565 S
O210 Zn211 1.838 1_565 S
O210 C218 1.351 . S
Zn211 O210 1.838 1_545 S
Zn211 O212 2.032 . S
Zn211 O215 2.086 . S
Zn211 O220 1.977 . S
O212 Zn211 2.032 . S
O212 C216 1.278 . S
C213 O214 1.203 . S
C213 O220 1.267 . S
O214 C213 1.203 . S
O215 C208 1.185 . S
O215 Zn211 2.086 . S
C216 O212 1.278 . S
C216 O217 1.211 . S
O217 C216 1.211 . S
C218 O210 1.351 . S
C218 O219 1.273 . S
O219 C218 1.273 . S
O220 Zn211 1.977 . S
O220 C213 1.267 . S
C221 O222 1.160 . S
C221 O228 1.185 . S
O222 C221 1.160 . S
O223 Zn224 1.942 . S
O223 C231 1.290 1_655 S
Zn224 O223 1.942 . S
Zn224 O225 2.032 . S
Zn224 O228 2.086 . S
Zn224 O233 1.977 . S
O225 Zn224 2.032 . S
O225 C229 1.278 . S
C226 O227 1.203 . S
C226 O233 1.267 . S
O227 C226 1.203 . S
O228 C221 1.185 . S
O228 Zn224 2.086 . S
C229 O225 1.278 . S
C229 O230 1.211 . S
O230 C229 1.211 . S
C231 O223 1.290 1_455 S
C231 O232 1.293 . S
O232 C231 1.293 . S
O233 Zn224 1.977 . S
O233 C226 1.267 . S
C234 C235 1.384 . S
C234 C236 1.384 . S
C234 H262 0.931 . S
C235 C234 1.384 . S
C235 C238 1.382 . S
C236 C234 1.384 . S
C236 C237 1.381 . S
C236 H263 0.930 . S
C237 C236 1.381 . S
C237 C239 1.381 . S
C237 C240 1.487 . S
C238 C235 1.382 . S
C238 C239 1.387 . S
C238 H264 0.930 . S
C239 C237 1.381 . S
C239 C238 1.387 . S
C239 H265 0.931 . S
C240 C237 1.487 . S
C240 C247 1.399 . S
C240 N278 1.343 . S
C241 C242 1.384 . S
C241 C243 1.384 . S
C241 H266 0.931 . S
C242 C241 1.384 . S
C242 C245 1.382 . S
C243 C241 1.384 . S
C243 C244 1.381 . S
C243 H267 0.930 . S
C244 C243 1.381 . S
C244 C246 1.381 . S
C244 C247 1.487 . S
C245 C242 1.382 . S
C245 C246 1.387 . S
C245 H268 0.930 . S
C246 C244 1.381 . S
C246 C245 1.387 . S
C246 H269 0.931 . S
C247 C240 1.399 . S
C247 C244 1.487 . S
C247 N279 1.343 . S
C248 C249 1.384 . S
C248 C250 1.384 . S
C248 H270 0.931 . S
C249 C248 1.384 . S
C249 C252 1.382 . S
C250 C248 1.384 . S
C250 C251 1.381 . S
C250 H271 0.930 . S
C251 C250 1.381 . S
C251 C253 1.381 . S
C251 C254 1.487 . S
C252 C249 1.382 . S
C252 C253 1.387 . S
C252 H272 0.930 . S
C253 C251 1.381 . S
C253 C252 1.387 . S
C253 H273 0.931 . S
C254 C251 1.487 . S
C254 C261 1.399 . S
C254 N279 1.343 . S
C255 C256 1.384 . S
C255 C257 1.384 . S
C255 H274 0.931 . S
C256 C255 1.384 . S
C256 C259 1.382 . S
C257 C255 1.384 . S
C257 C258 1.381 . S
C257 H275 0.930 . S
C258 C257 1.381 . S
C258 C260 1.381 . S
C258 C261 1.487 . S
C259 C256 1.382 . S
C259 C260 1.387 . S
C259 H276 0.930 . S
C260 C258 1.381 . S
C260 C259 1.387 . S
C260 H277 0.931 . S
C261 C254 1.399 . S
C261 C258 1.487 . S
C261 N278 1.343 . S
H262 C234 0.931 . S
H263 C236 0.930 . S
H264 C238 0.930 . S
H265 C239 0.931 . S
H266 C241 0.931 . S
H267 C243 0.930 . S
H268 C245 0.930 . S
H269 C246 0.931 . S
H270 C248 0.931 . S
H271 C250 0.930 . S
H272 C252 0.930 . S
H273 C253 0.931 . S
H274 C255 0.931 . S
H275 C257 0.930 . S
H276 C259 0.930 . S
H277 C260 0.931 . S
N278 C240 1.343 . S
N278 C261 1.343 . S
N279 C247 1.343 . S
N279 C254 1.343 . S
C280 C281 1.384 . S
C280 C282 1.384 . S
C280 H308 0.931 . S
C281 C280 1.384 . S
C281 C284 1.382 . S
C282 C280 1.384 . S
C282 C283 1.381 . S
C282 H309 0.930 . S
C283 C282 1.381 . S
C283 C285 1.381 . S
C283 C286 1.487 . S
C284 C281 1.382 . S
C284 C285 1.387 . S
C284 H310 0.930 . S
C285 C283 1.381 . S
C285 C284 1.387 . S
C285 H311 0.931 . S
C286 C283 1.487 . S
C286 C293 1.399 . S
C286 N324 1.343 . S
C287 C288 1.384 . S
C287 C289 1.384 . S
C287 H312 0.931 . S
C288 C287 1.384 . S
C288 C291 1.382 . S
C289 C287 1.384 . S
C289 C290 1.381 . S
C289 H313 0.930 . S
C290 C289 1.381 . S
C290 C292 1.381 . S
C290 C293 1.487 . S
C291 C288 1.382 . S
C291 C292 1.387 . S
C291 H314 0.930 . S
C292 C290 1.381 . S
C292 C291 1.387 . S
C292 H315 0.931 . S
C293 C286 1.399 . S
C293 C290 1.487 . S
C293 N325 1.343 . S
C294 C295 1.384 . S
C294 C296 1.384 . S
C294 H316 0.931 . S
C295 C294 1.384 . S
C295 C298 1.382 . S
C296 C294 1.384 . S
C296 C297 1.381 . S
C296 H317 0.930 . S
C297 C296 1.381 . S
C297 C299 1.381 . S
C297 C300 1.487 . S
C298 C295 1.382 . S
C298 C299 1.387 . S
C298 H318 0.930 . S
C299 C297 1.381 . S
C299 C298 1.387 . S
C299 H319 0.931 . S
C300 C297 1.487 . S
C300 C307 1.399 . S
C300 N325 1.343 . S
C301 C302 1.384 . S
C301 C303 1.384 . S
C301 H320 0.931 . S
C302 C301 1.384 . S
C302 C305 1.382 . S
C303 C301 1.384 . S
C303 C304 1.381 . S
C303 H321 0.930 . S
C304 C303 1.381 . S
C304 C306 1.381 . S
C304 C307 1.487 . S
C305 C302 1.382 . S
C305 C306 1.387 . S
C305 H322 0.930 . S
C306 C304 1.381 . S
C306 C305 1.387 . S
C306 H323 0.931 . S
C307 C300 1.399 . S
C307 C304 1.487 . S
C307 N324 1.343 . S
H308 C280 0.931 . S
H309 C282 0.930 . S
H310 C284 0.930 . S
H311 C285 0.931 . S
H312 C287 0.931 . S
H313 C289 0.930 . S
H314 C291 0.930 . S
H315 C292 0.931 . S
H316 C294 0.931 . S
H317 C296 0.930 . S
H318 C298 0.930 . S
H319 C299 0.931 . S
H320 C301 0.931 . S
H321 C303 0.930 . S
H322 C305 0.930 . S
H323 C306 0.931 . S
N324 C286 1.343 . S
N324 C307 1.343 . S
N325 C293 1.343 . S
N325 C300 1.343 . S
C326 C327 1.384 . S
C326 C328 1.384 . S
C326 H354 0.931 . S
C327 C326 1.384 . S
C327 C330 1.382 . S
C328 C326 1.384 . S
C328 C329 1.381 . S
C328 H355 0.930 . S
C329 C328 1.381 . S
C329 C331 1.381 . S
C329 C332 1.487 . S
C330 C327 1.382 . S
C330 C331 1.387 . S
C330 H356 0.930 . S
C331 C329 1.381 . S
C331 C330 1.387 . S
C331 H357 0.931 . S
C332 C329 1.487 . S
C332 C339 1.399 . S
C332 N370 1.343 . S
C333 C334 1.384 . S
C333 C335 1.384 . S
C333 H358 0.931 . S
C334 C333 1.384 . S
C334 C337 1.382 . S
C335 C333 1.384 . S
C335 C336 1.381 . S
C335 H359 0.930 . S
C336 C335 1.381 . S
C336 C338 1.381 . S
C336 C339 1.487 . S
C337 C334 1.382 . S
C337 C338 1.387 . S
C337 H360 0.930 . S
C338 C336 1.381 . S
C338 C337 1.387 . S
C338 H361 0.931 . S
C339 C332 1.399 . S
C339 C336 1.487 . S
C339 N371 1.343 . S
C340 C341 1.384 . S
C340 C342 1.384 . S
C340 H362 0.931 . S
C341 C340 1.384 . S
C341 C344 1.382 . S
C342 C340 1.384 . S
C342 C343 1.381 . S
C342 H363 0.930 . S
C343 C342 1.381 . S
C343 C345 1.381 . S
C343 C346 1.487 . S
C344 C341 1.382 . S
C344 C345 1.387 . S
C344 H364 0.930 . S
C345 C343 1.381 . S
C345 C344 1.387 . S
C345 H365 0.931 . S
C346 C343 1.487 . S
C346 C353 1.399 . S
C346 N371 1.343 . S
C347 C348 1.384 . S
C347 C349 1.384 . S
C347 H366 0.931 . S
C348 C347 1.384 . S
C348 C351 1.382 . S
C349 C347 1.384 . S
C349 C350 1.381 . S
C349 H367 0.930 . S
C350 C349 1.381 . S
C350 C352 1.381 . S
C350 C353 1.487 . S
C351 C348 1.382 . S
C351 C352 1.387 . S
C351 H368 0.930 . S
C352 C350 1.381 . S
C352 C351 1.387 . S
C352 H369 0.931 . S
C353 C346 1.399 . S
C353 C350 1.487 . S
C353 N370 1.343 . S
H354 C326 0.931 . S
H355 C328 0.930 . S
H356 C330 0.930 . S
H357 C331 0.931 . S
H358 C333 0.931 . S
H359 C335 0.930 . S
H360 C337 0.930 . S
H361 C338 0.931 . S
H362 C340 0.931 . S
H363 C342 0.930 . S
H364 C344 0.930 . S
H365 C345 0.931 . S
H366 C347 0.931 . S
H367 C349 0.930 . S
H368 C351 0.930 . S
H369 C352 0.931 . S
N370 C332 1.343 . S
N370 C353 1.343 . S
N371 C339 1.343 . S
N371 C346 1.343 . S
C372 C373 1.384 . S
C372 C374 1.384 . S
C372 H400 0.931 . S
C373 C372 1.384 . S
C373 C376 1.382 . S
C374 C372 1.384 . S
C374 C375 1.381 . S
C374 H401 0.930 . S
C375 C374 1.381 . S
C375 C377 1.381 . S
C375 C378 1.487 . S
C376 C373 1.382 . S
C376 C377 1.387 . S
C376 H402 0.930 . S
C377 C375 1.381 . S
C377 C376 1.387 . S
C377 H403 0.931 . S
C378 C375 1.487 . S
C378 C385 1.399 . S
C378 N416 1.343 . S
C379 C380 1.384 . S
C379 C381 1.384 . S
C379 H404 0.931 . S
C380 C379 1.384 . S
C380 C383 1.382 . S
C381 C379 1.384 . S
C381 C382 1.381 . S
C381 H405 0.930 . S
C382 C381 1.381 . S
C382 C384 1.381 . S
C382 C385 1.487 . S
C383 C380 1.382 . S
C383 C384 1.387 . S
C383 H406 0.930 . S
C384 C382 1.381 . S
C384 C383 1.387 . S
C384 H407 0.931 . S
C385 C378 1.399 . S
C385 C382 1.487 . S
C385 N417 1.343 . S
C386 C387 1.384 . S
C386 C388 1.384 . S
C386 H408 0.931 . S
C387 C386 1.384 . S
C387 C390 1.382 . S
C388 C386 1.384 . S
C388 C389 1.381 . S
C388 H409 0.930 . S
C389 C388 1.381 . S
C389 C391 1.381 . S
C389 C392 1.487 . S
C390 C387 1.382 . S
C390 C391 1.387 . S
C390 H410 0.930 . S
C391 C389 1.381 . S
C391 C390 1.387 . S
C391 H411 0.931 . S
C392 C389 1.487 . S
C392 C399 1.399 . S
C392 N417 1.343 . S
C393 C394 1.384 . S
C393 C395 1.384 . S
C393 H412 0.931 . S
C394 C393 1.384 . S
C394 C397 1.382 . S
C395 C393 1.384 . S
C395 C396 1.381 . S
C395 H413 0.930 . S
C396 C395 1.381 . S
C396 C398 1.381 . S
C396 C399 1.487 . S
C397 C394 1.382 . S
C397 C398 1.387 . S
C397 H414 0.930 . S
C398 C396 1.381 . S
C398 C397 1.387 . S
C398 H415 0.931 . S
C399 C392 1.399 . S
C399 C396 1.487 . S
C399 N416 1.343 . S
H400 C372 0.931 . S
H401 C374 0.930 . S
H402 C376 0.930 . S
H403 C377 0.931 . S
H404 C379 0.931 . S
H405 C381 0.930 . S
H406 C383 0.930 . S
H407 C384 0.931 . S
H408 C386 0.931 . S
H409 C388 0.930 . S
H410 C390 0.930 . S
H411 C391 0.931 . S
H412 C393 0.931 . S
H413 C395 0.930 . S
H414 C397 0.930 . S
H415 C398 0.931 . S
N416 C378 1.343 . S
N416 C399 1.343 . S
N417 C385 1.343 . S
N417 C392 1.343 . S
C418 C419 1.384 . S
C418 C420 1.384 . S
C418 H446 0.931 . S
C419 C418 1.384 . S
C419 C422 1.382 . S
C420 C418 1.384 . S
C420 C421 1.381 . S
C420 H447 0.930 . S
C421 C420 1.381 . S
C421 C423 1.381 . S
C421 C424 1.487 . S
C422 C419 1.382 . S
C422 C423 1.387 . S
C422 H448 0.930 . S
C423 C421 1.381 . S
C423 C422 1.387 . S
C423 H449 0.931 . S
C424 C421 1.487 . S
C424 C431 1.399 . S
C424 N462 1.343 . S
C425 C426 1.384 . S
C425 C427 1.384 . S
C425 H450 0.931 . S
C426 C425 1.384 . S
C426 C429 1.382 . S
C427 C425 1.384 . S
C427 C428 1.381 . S
C427 H451 0.930 . S
C428 C427 1.381 . S
C428 C430 1.381 . S
C428 C431 1.487 . S
C429 C426 1.382 . S
C429 C430 1.387 . S
C429 H452 0.930 . S
C430 C428 1.381 . S
C430 C429 1.387 . S
C430 H453 0.931 . S
C431 C424 1.399 . S
C431 C428 1.487 . S
C431 N463 1.343 . S
C432 C433 1.384 . S
C432 C434 1.384 . S
C432 H454 0.931 . S
C433 C432 1.384 . S
C433 C436 1.382 . S
C434 C432 1.384 . S
C434 C435 1.381 . S
C434 H455 0.930 . S
C435 C434 1.381 . S
C435 C437 1.381 . S
C435 C438 1.487 . S
C436 C433 1.382 . S
C436 C437 1.387 . S
C436 H456 0.930 . S
C437 C435 1.381 . S
C437 C436 1.387 . S
C437 H457 0.931 . S
C438 C435 1.487 . S
C438 C445 1.399 . S
C438 N463 1.343 . S
C439 C440 1.384 . S
C439 C441 1.384 . S
C439 H458 0.931 . S
C440 C439 1.384 . S
C440 C443 1.382 . S
C441 C439 1.384 . S
C441 C442 1.381 . S
C441 H459 0.930 . S
C442 C441 1.381 . S
C442 C444 1.381 . S
C442 C445 1.487 . S
C443 C440 1.382 . S
C443 C444 1.387 . S
C443 H460 0.930 . S
C444 C442 1.381 . S
C444 C443 1.387 . S
C444 H461 0.931 . S
C445 C438 1.399 . S
C445 C442 1.487 . S
C445 N462 1.343 . S
H446 C418 0.931 . S
H447 C420 0.930 . S
H448 C422 0.930 . S
H449 C423 0.931 . S
H450 C425 0.931 . S
H451 C427 0.930 . S
H452 C429 0.930 . S
H453 C430 0.931 . S
H454 C432 0.931 . S
H455 C434 0.930 . S
H456 C436 0.930 . S
H457 C437 0.931 . S
H458 C439 0.931 . S
H459 C441 0.930 . S
H460 C443 0.930 . S
H461 C444 0.931 . S
N462 C424 1.343 . S
N462 C445 1.343 . S
N463 C431 1.343 . S
N463 C438 1.343 . S
C464 C465 1.384 . S
C464 C466 1.384 . S
C464 H492 0.931 . S
C465 C464 1.384 . S
C465 C468 1.382 . S
C466 C464 1.384 . S
C466 C467 1.381 . S
C466 H493 0.930 . S
C467 C466 1.381 . S
C467 C469 1.381 . S
C467 C470 1.487 . S
C468 C465 1.382 . S
C468 C469 1.387 . S
C468 H494 0.930 . S
C469 C467 1.381 . S
C469 C468 1.387 . S
C469 H495 0.931 . S
C470 C467 1.487 . S
C470 C477 1.399 . S
C470 N508 1.343 . S
C471 C472 1.384 . S
C471 C473 1.384 . S
C471 H496 0.931 . S
C472 C471 1.384 . S
C472 C475 1.382 . S
C473 C471 1.384 . S
C473 C474 1.381 . S
C473 H497 0.930 . S
C474 C473 1.381 . S
C474 C476 1.381 . S
C474 C477 1.487 . S
C475 C472 1.382 . S
C475 C476 1.387 . S
C475 H498 0.930 . S
C476 C474 1.381 . S
C476 C475 1.387 . S
C476 H499 0.931 . S
C477 C470 1.399 . S
C477 C474 1.487 . S
C477 N509 1.343 . S
C478 C479 1.384 . S
C478 C480 1.384 . S
C478 H500 0.931 . S
C479 C478 1.384 . S
C479 C482 1.382 . S
C480 C478 1.384 . S
C480 C481 1.381 . S
C480 H501 0.930 . S
C481 C480 1.381 . S
C481 C483 1.381 . S
C481 C484 1.487 . S
C482 C479 1.382 . S
C482 C483 1.387 . S
C482 H502 0.930 . S
C483 C481 1.381 . S
C483 C482 1.387 . S
C483 H503 0.931 . S
C484 C481 1.487 . S
C484 C491 1.399 . S
C484 N509 1.343 . S
C485 C486 1.384 . S
C485 C487 1.384 . S
C485 H504 0.931 . S
C486 C485 1.384 . S
C486 C489 1.382 . S
C487 C485 1.384 . S
C487 C488 1.381 . S
C487 H505 0.930 . S
C488 C487 1.381 . S
C488 C490 1.381 . S
C488 C491 1.487 . S
C489 C486 1.382 . S
C489 C490 1.387 . S
C489 H506 0.930 . S
C490 C488 1.381 . S
C490 C489 1.387 . S
C490 H507 0.931 . S
C491 C484 1.399 . S
C491 C488 1.487 . S
C491 N508 1.343 . S
H492 C464 0.931 . S
H493 C466 0.930 . S
H494 C468 0.930 . S
H495 C469 0.931 . S
H496 C471 0.931 . S
H497 C473 0.930 . S
H498 C475 0.930 . S
H499 C476 0.931 . S
H500 C478 0.931 . S
H501 C480 0.930 . S
H502 C482 0.930 . S
H503 C483 0.931 . S
H504 C485 0.931 . S
H505 C487 0.930 . S
H506 C489 0.930 . S
H507 C490 0.931 . S
N508 C470 1.343 . S
N508 C491 1.343 . S
N509 C477 1.343 . S
N509 C484 1.343 . S
C510 C511 1.384 . S
C510 C512 1.384 . S
C510 H538 0.931 . S
C511 C510 1.384 . S
C511 C514 1.382 . S
C512 C510 1.384 . S
C512 C513 1.381 . S
C512 H539 0.930 . S
C513 C512 1.381 . S
C513 C515 1.381 . S
C513 C516 1.487 . S
C514 C511 1.382 . S
C514 C515 1.387 . S
C514 H540 0.930 . S
C515 C513 1.381 . S
C515 C514 1.387 . S
C515 H541 0.931 . S
C516 C513 1.487 . S
C516 C523 1.399 . S
C516 N554 1.343 . S
C517 C518 1.384 . S
C517 C519 1.384 . S
C517 H542 0.931 . S
C518 C517 1.384 . S
C518 C521 1.382 . S
C519 C517 1.384 . S
C519 C520 1.381 . S
C519 H543 0.930 . S
C520 C519 1.381 . S
C520 C522 1.381 . S
C520 C523 1.487 . S
C521 C518 1.382 . S
C521 C522 1.387 . S
C521 H544 0.930 . S
C522 C520 1.381 . S
C522 C521 1.387 . S
C522 H545 0.931 . S
C523 C516 1.399 . S
C523 C520 1.487 . S
C523 N555 1.343 . S
C524 C525 1.384 . S
C524 C526 1.384 . S
C524 H546 0.931 . S
C525 C524 1.384 . S
C525 C528 1.382 . S
C526 C524 1.384 . S
C526 C527 1.381 . S
C526 H547 0.930 . S
C527 C526 1.381 . S
C527 C529 1.381 . S
C527 C530 1.487 . S
C528 C525 1.382 . S
C528 C529 1.387 . S
C528 H548 0.930 . S
C529 C527 1.381 . S
C529 C528 1.387 . S
C529 H549 0.931 . S
C530 C527 1.487 . S
C530 C537 1.399 . S
C530 N555 1.343 . S
C531 C532 1.384 . S
C531 C533 1.384 . S
C531 H550 0.931 . S
C532 C531 1.384 . S
C532 C535 1.382 . S
C533 C531 1.384 . S
C533 C534 1.381 . S
C533 H551 0.930 . S
C534 C533 1.381 . S
C534 C536 1.381 . S
C534 C537 1.487 . S
C535 C532 1.382 . S
C535 C536 1.387 . S
C535 H552 0.930 . S
C536 C534 1.381 . S
C536 C535 1.387 . S
C536 H553 0.931 . S
C537 C530 1.399 . S
C537 C534 1.487 . S
C537 N554 1.343 . S
H538 C510 0.931 . S
H539 C512 0.930 . S
H540 C514 0.930 . S
H541 C515 0.931 . S
H542 C517 0.931 . S
H543 C519 0.930 . S
H544 C521 0.930 . S
H545 C522 0.931 . S
H546 C524 0.931 . S
H547 C526 0.930 . S
H548 C528 0.930 . S
H549 C529 0.931 . S
H550 C531 0.931 . S
H551 C533 0.930 . S
H552 C535 0.930 . S
H553 C536 0.931 . S
N554 C516 1.343 . S
N554 C537 1.343 . S
N555 C523 1.343 . S
N555 C530 1.343 . S
C556 C557 1.384 . S
C556 C558 1.384 . S
C556 H584 0.931 . S
C557 C556 1.384 . S
C557 C560 1.382 . S
C558 C556 1.384 . S
C558 C559 1.381 . S
C558 H585 0.930 . S
C559 C558 1.381 . S
C559 C561 1.381 . S
C559 C562 1.487 . S
C560 C557 1.382 . S
C560 C561 1.387 . S
C560 H586 0.930 . S
C561 C559 1.381 . S
C561 C560 1.387 . S
C561 H587 0.931 . S
C562 C559 1.487 . S
C562 C569 1.399 . S
C562 N600 1.343 . S
C563 C564 1.384 . S
C563 C565 1.384 . S
C563 H588 0.931 . S
C564 C563 1.384 . S
C564 C567 1.382 . S
C565 C563 1.384 . S
C565 C566 1.381 . S
C565 H589 0.930 . S
C566 C565 1.381 . S
C566 C568 1.381 . S
C566 C569 1.487 . S
C567 C564 1.382 . S
C567 C568 1.387 . S
C567 H590 0.930 . S
C568 C566 1.381 . S
C568 C567 1.387 . S
C568 H591 0.931 . S
C569 C562 1.399 . S
C569 C566 1.487 . S
C569 N601 1.343 . S
C570 C571 1.384 . S
C570 C572 1.384 . S
C570 H592 0.931 . S
C571 C570 1.384 . S
C571 C574 1.382 . S
C572 C570 1.384 . S
C572 C573 1.381 . S
C572 H593 0.930 . S
C573 C572 1.381 . S
C573 C575 1.381 . S
C573 C576 1.487 . S
C574 C571 1.382 . S
C574 C575 1.387 . S
C574 H594 0.930 . S
C575 C573 1.381 . S
C575 C574 1.387 . S
C575 H595 0.931 . S
C576 C573 1.487 . S
C576 C583 1.399 . S
C576 N601 1.343 . S
C577 C578 1.384 . S
C577 C579 1.384 . S
C577 H596 0.931 . S
C578 C577 1.384 . S
C578 C581 1.382 . S
C579 C577 1.384 . S
C579 C580 1.381 . S
C579 H597 0.930 . S
C580 C579 1.381 . S
C580 C582 1.381 . S
C580 C583 1.487 . S
C581 C578 1.382 . S
C581 C582 1.387 . S
C581 H598 0.930 . S
C582 C580 1.381 . S
C582 C581 1.387 . S
C582 H599 0.931 . S
C583 C576 1.399 . S
C583 C580 1.487 . S
C583 N600 1.343 . S
H584 C556 0.931 . S
H585 C558 0.930 . S
H586 C560 0.930 . S
H587 C561 0.931 . S
H588 C563 0.931 . S
H589 C565 0.930 . S
H590 C567 0.930 . S
H591 C568 0.931 . S
H592 C570 0.931 . S
H593 C572 0.930 . S
H594 C574 0.930 . S
H595 C575 0.931 . S
H596 C577 0.931 . S
H597 C579 0.930 . S
H598 C581 0.930 . S
H599 C582 0.931 . S
N600 C562 1.343 . S
N600 C583 1.343 . S
N601 C569 1.343 . S
N601 C576 1.343 . S
C602 C603 1.384 . S
C602 C604 1.384 . S
C602 H630 0.931 . S
C603 C602 1.384 . S
C603 C606 1.382 . S
C604 C602 1.384 . S
C604 C605 1.381 . S
C604 H631 0.930 . S
C605 C604 1.381 . S
C605 C607 1.381 . S
C605 C608 1.487 . S
C606 C603 1.382 . S
C606 C607 1.387 . S
C606 H632 0.930 . S
C607 C605 1.381 . S
C607 C606 1.387 . S
C607 H633 0.931 . S
C608 C605 1.487 . S
C608 C615 1.399 . S
C608 N646 1.343 . S
C609 C610 1.384 . S
C609 C611 1.384 . S
C609 H634 0.931 . S
C610 C609 1.384 . S
C610 C613 1.382 . S
C611 C609 1.384 . S
C611 C612 1.381 . S
C611 H635 0.930 . S
C612 C611 1.381 . S
C612 C614 1.381 . S
C612 C615 1.487 . S
C613 C610 1.382 . S
C613 C614 1.387 . S
C613 H636 0.930 . S
C614 C612 1.381 . S
C614 C613 1.387 . S
C614 H637 0.931 . S
C615 C608 1.399 . S
C615 C612 1.487 . S
C615 N647 1.343 . S
C616 C617 1.384 . S
C616 C618 1.384 . S
C616 H638 0.931 . S
C617 C616 1.384 . S
C617 C620 1.382 . S
C618 C616 1.384 . S
C618 C619 1.381 . S
C618 H639 0.930 . S
C619 C618 1.381 . S
C619 C621 1.381 . S
C619 C622 1.487 . S
C620 C617 1.382 . S
C620 C621 1.387 . S
C620 H640 0.930 . S
C621 C619 1.381 . S
C621 C620 1.387 . S
C621 H641 0.931 . S
C622 C619 1.487 . S
C622 C629 1.399 . S
C622 N647 1.343 . S
C623 C624 1.384 . S
C623 C625 1.384 . S
C623 H642 0.931 . S
C624 C623 1.384 . S
C624 C627 1.382 . S
C625 C623 1.384 . S
C625 C626 1.381 . S
C625 H643 0.930 . S
C626 C625 1.381 . S
C626 C628 1.381 . S
C626 C629 1.487 . S
C627 C624 1.382 . S
C627 C628 1.387 . S
C627 H644 0.930 . S
C628 C626 1.381 . S
C628 C627 1.387 . S
C628 H645 0.931 . S
C629 C622 1.399 . S
C629 C626 1.487 . S
C629 N646 1.343 . S
H630 C602 0.931 . S
H631 C604 0.930 . S
H632 C606 0.930 . S
H633 C607 0.931 . S
H634 C609 0.931 . S
H635 C611 0.930 . S
H636 C613 0.930 . S
H637 C614 0.931 . S
H638 C616 0.931 . S
H639 C618 0.930 . S
H640 C620 0.930 . S
H641 C621 0.931 . S
H642 C623 0.931 . S
H643 C625 0.930 . S
H644 C627 0.930 . S
H645 C628 0.931 . S
N646 C608 1.343 . S
N646 C629 1.343 . S
N647 C615 1.343 . S
N647 C622 1.343 . S
C648 C649 1.384 . S
C648 C650 1.384 . S
C648 H676 0.931 . S
C649 C648 1.384 . S
C649 C652 1.382 1_655 S
C650 C648 1.384 . S
C650 C651 1.428 . S
C650 H677 0.930 . S
C651 C650 1.428 . S
C651 C653 1.359 1_655 S
C651 C654 1.467 1_655 S
C652 C649 1.382 1_455 S
C652 C653 1.387 . S
C652 H678 0.930 . S
C653 C651 1.359 1_455 S
C653 C652 1.387 . S
C653 H679 0.931 . S
C654 C651 1.467 1_455 S
C654 C661 1.399 1_455 S
C654 N692 1.305 . S
C655 C656 1.384 . S
C655 C657 1.384 . S
C655 H680 0.931 . S
C656 C655 1.384 . S
C656 C659 1.382 1_455 S
C657 C655 1.384 . S
C657 C658 1.379 1_455 S
C657 H681 0.930 . S
C658 C657 1.379 1_655 S
C658 C660 1.389 . S
C658 C661 1.492 . S
C659 C656 1.382 1_655 S
C659 C660 1.387 . S
C659 H682 0.930 . S
C660 C658 1.389 . S
C660 C659 1.387 . S
C660 H683 0.931 . S
C661 C654 1.399 1_655 S
C661 C658 1.492 . S
C661 N693 1.357 . S
C662 C663 1.384 . S
C662 C664 1.384 . S
C662 H684 0.931 . S
C663 C662 1.384 . S
C663 C666 1.382 1_455 S
C664 C662 1.384 . S
C664 C665 1.445 . S
C664 H685 0.930 . S
C665 C664 1.445 . S
C665 C667 1.351 1_455 S
C665 C668 1.459 . S
C666 C663 1.382 1_655 S
C666 C667 1.387 . S
C666 H686 0.930 . S
C667 C665 1.351 1_655 S
C667 C666 1.387 . S
C667 H687 0.931 . S
C668 C665 1.459 . S
C668 C675 1.399 . S
C668 N693 1.313 1_455 S
C669 C670 1.426 . S
C669 C671 1.384 . S
C669 H688 0.931 . S
C670 C669 1.426 . S
C670 C673 1.371 1_655 S
C671 C669 1.384 . S
C671 C672 1.377 1_655 S
C671 H689 0.930 . S
C672 C671 1.377 1_455 S
C672 C674 1.399 . S
C672 C675 1.492 . S
C673 C670 1.371 1_455 S
C673 C674 1.387 . S
C673 H690 0.930 . S
C674 C672 1.399 . S
C674 C673 1.387 . S
C674 H691 0.931 . S
C675 C668 1.399 . S
C675 C672 1.492 . S
C675 N692 1.357 . S
H676 C648 0.931 . S
H677 C650 0.930 . S
H678 C652 0.930 . S
H679 C653 0.931 . S
H680 C655 0.931 . S
H681 C657 0.930 . S
H682 C659 0.930 . S
H683 C660 0.931 . S
H684 C662 0.931 . S
H685 C664 0.930 . S
H686 C666 0.930 . S
H687 C667 0.931 . S
H688 C669 0.931 . S
H689 C671 0.930 . S
H690 C673 0.930 . S
H691 C674 0.931 . S
N692 C654 1.305 . S
N692 C675 1.357 . S
N693 C661 1.357 . S
N693 C668 1.313 1_655 S
C694 C695 1.384 . S
C694 C696 1.384 . S
C694 H722 0.931 . S
C695 C694 1.384 . S
C695 C698 1.382 . S
C696 C694 1.384 . S
C696 C697 1.381 . S
C696 H723 0.930 . S
C697 C696 1.381 . S
C697 C699 1.381 . S
C697 C700 1.487 . S
C698 C695 1.382 . S
C698 C699 1.387 . S
C698 H724 0.930 . S
C699 C697 1.381 . S
C699 C698 1.387 . S
C699 H725 0.931 . S
C700 C697 1.487 . S
C700 C707 1.399 . S
C700 N738 1.343 . S
C701 C702 1.384 . S
C701 C703 1.384 . S
C701 H726 0.931 . S
C702 C701 1.384 . S
C702 C705 1.382 . S
C703 C701 1.384 . S
C703 C704 1.381 . S
C703 H727 0.930 . S
C704 C703 1.381 . S
C704 C706 1.381 . S
C704 C707 1.487 . S
C705 C702 1.382 . S
C705 C706 1.387 . S
C705 H728 0.930 . S
C706 C704 1.381 . S
C706 C705 1.387 . S
C706 H729 0.931 . S
C707 C700 1.399 . S
C707 C704 1.487 . S
C707 N739 1.343 . S
C708 C709 1.384 . S
C708 C710 1.384 . S
C708 H730 0.931 . S
C709 C708 1.384 . S
C709 C712 1.382 . S
C710 C708 1.384 . S
C710 C711 1.381 . S
C710 H731 0.930 . S
C711 C710 1.381 . S
C711 C713 1.381 . S
C711 C714 1.487 . S
C712 C709 1.382 . S
C712 C713 1.387 . S
C712 H732 0.930 . S
C713 C711 1.381 . S
C713 C712 1.387 . S
C713 H733 0.931 . S
C714 C711 1.487 . S
C714 C721 1.399 . S
C714 N739 1.343 . S
C715 C716 1.384 . S
C715 C717 1.384 . S
C715 H734 0.931 . S
C716 C715 1.384 . S
C716 C719 1.382 . S
C717 C715 1.384 . S
C717 C718 1.381 . S
C717 H735 0.930 . S
C718 C717 1.381 . S
C718 C720 1.381 . S
C718 C721 1.487 . S
C719 C716 1.382 . S
C719 C720 1.387 . S
C719 H736 0.930 . S
C720 C718 1.381 . S
C720 C719 1.387 . S
C720 H737 0.931 . S
C721 C714 1.399 . S
C721 C718 1.487 . S
C721 N738 1.343 . S
H722 C694 0.931 . S
H723 C696 0.930 . S
H724 C698 0.930 . S
H725 C699 0.931 . S
H726 C701 0.931 . S
H727 C703 0.930 . S
H728 C705 0.930 . S
H729 C706 0.931 . S
H730 C708 0.931 . S
H731 C710 0.930 . S
H732 C712 0.930 . S
H733 C713 0.931 . S
H734 C715 0.931 . S
H735 C717 0.930 . S
H736 C719 0.930 . S
H737 C720 0.931 . S
N738 C700 1.343 . S
N738 C721 1.343 . S
N739 C707 1.343 . S
N739 C714 1.343 . S
C740 C741 1.384 1_545 S
C740 C742 1.384 . S
C740 H768 0.931 . S
C741 C740 1.384 1_565 S
C741 C744 1.382 . S
C742 C740 1.384 . S
C742 C743 1.381 1_545 S
C742 H769 0.930 . S
C743 C742 1.381 1_565 S
C743 C745 1.381 . S
C743 C746 1.487 . S
C744 C741 1.382 . S
C744 C745 1.387 . S
C744 H770 0.930 . S
C745 C743 1.381 . S
C745 C744 1.387 . S
C745 H771 0.931 . S
C746 C743 1.487 . S
C746 C753 1.399 1_565 S
C746 N784 1.343 . S
C747 C748 1.384 1_565 S
C747 C749 1.384 . S
C747 H772 0.931 . S
C748 C747 1.384 1_545 S
C748 C751 1.382 . S
C749 C747 1.384 . S
C749 C750 1.381 1_565 S
C749 H773 0.930 . S
C750 C749 1.381 1_545 S
C750 C752 1.381 . S
C750 C753 1.487 . S
C751 C748 1.382 . S
C751 C752 1.387 . S
C751 H774 0.930 . S
C752 C750 1.381 . S
C752 C751 1.387 . S
C752 H775 0.931 . S
C753 C746 1.399 1_545 S
C753 C750 1.487 . S
C753 N785 1.343 . S
C754 C755 1.384 1_565 S
C754 C756 1.384 . S
C754 H776 0.931 . S
C755 C754 1.384 1_545 S
C755 C758 1.382 . S
C756 C754 1.384 . S
C756 C757 1.381 1_565 S
C756 H777 0.930 . S
C757 C756 1.381 1_545 S
C757 C759 1.381 . S
C757 C760 1.487 . S
C758 C755 1.382 . S
C758 C759 1.387 . S
C758 H778 0.930 . S
C759 C757 1.381 . S
C759 C758 1.387 . S
C759 H779 0.931 . S
C760 C757 1.487 . S
C760 C767 1.399 1_545 S
C760 N785 1.343 . S
C761 C762 1.384 1_545 S
C761 C763 1.384 . S
C761 H780 0.931 . S
C762 C761 1.384 1_565 S
C762 C765 1.382 . S
C763 C761 1.384 . S
C763 C764 1.381 1_545 S
C763 H781 0.930 . S
C764 C763 1.381 1_565 S
C764 C766 1.381 . S
C764 C767 1.487 . S
C765 C762 1.382 . S
C765 C766 1.387 . S
C765 H782 0.930 . S
C766 C764 1.381 . S
C766 C765 1.387 . S
C766 H783 0.931 . S
C767 C760 1.399 1_565 S
C767 C764 1.487 . S
C767 N784 1.343 . S
H768 C740 0.931 . S
H769 C742 0.930 . S
H770 C744 0.930 . S
H771 C745 0.931 . S
H772 C747 0.931 . S
H773 C749 0.930 . S
H774 C751 0.930 . S
H775 C752 0.931 . S
H776 C754 0.931 . S
H777 C756 0.930 . S
H778 C758 0.930 . S
H779 C759 0.931 . S
H780 C761 0.931 . S
H781 C763 0.930 . S
H782 C765 0.930 . S
H783 C766 0.931 . S
N784 C746 1.343 . S
N784 C767 1.343 . S
N785 C753 1.343 . S
N785 C760 1.343 . S
C786 C787 1.384 . S
C786 C788 1.384 . S
C786 H814 0.931 . S
C787 C786 1.384 . S
C787 C790 1.382 1_545 S
C788 C786 1.384 . S
C788 C789 1.381 1_545 S
C788 H815 0.930 . S
C789 C788 1.381 1_565 S
C789 C791 1.382 . S
C789 C792 1.495 . S
C790 C787 1.382 1_565 S
C790 C791 1.387 . S
C790 H816 0.930 . S
C791 C789 1.382 . S
C791 C790 1.387 . S
C791 H817 0.931 . S
C792 C789 1.495 . S
C792 C799 1.399 1_565 S
C792 N830 1.360 . S
C793 C794 1.384 . S
C793 C795 1.384 . S
C793 H818 0.931 . S
C794 C793 1.384 . S
C794 C797 1.382 1_565 S
C795 C793 1.384 . S
C795 C796 1.418 . S
C795 H819 0.930 . S
C796 C795 1.418 . S
C796 C798 1.364 1_565 S
C796 C799 1.468 1_565 S
C797 C794 1.382 1_545 S
C797 C798 1.387 . S
C797 H820 0.930 . S
C798 C796 1.364 1_545 S
C798 C797 1.387 . S
C798 H821 0.931 . S
C799 C792 1.399 1_545 S
C799 C796 1.468 1_545 S
C799 N831 1.310 . S
C800 C801 1.384 . S
C800 C802 1.384 . S
C800 H822 0.931 . S
C801 C800 1.384 . S
C801 C804 1.382 1_565 S
C802 C800 1.384 . S
C802 C803 1.378 1_565 S
C802 H823 0.930 . S
C803 C802 1.378 1_545 S
C803 C805 1.392 . S
C803 C806 1.495 . S
C804 C801 1.382 1_545 S
C804 C805 1.387 . S
C804 H824 0.930 . S
C805 C803 1.392 . S
C805 C804 1.387 . S
C805 H825 0.931 . S
C806 C803 1.495 . S
C806 C813 1.400 . S
C806 N831 1.360 . S
C807 C808 1.384 . S
C807 C809 1.384 . S
C807 H826 0.931 . S
C808 C807 1.384 . S
C808 C811 1.382 1_545 S
C809 C807 1.384 . S
C809 C810 1.435 . S
C809 H827 0.930 . S
C810 C809 1.435 . S
C810 C812 1.357 1_545 S
C810 C813 1.460 . S
C811 C808 1.382 1_565 S
C811 C812 1.387 . S
C811 H828 0.930 . S
C812 C810 1.357 1_565 S
C812 C811 1.387 . S
C812 H829 0.931 . S
C813 C806 1.400 . S
C813 C810 1.460 . S
C813 N830 1.317 1_545 S
H814 C786 0.931 . S
H815 C788 0.930 . S
H816 C790 0.930 . S
H817 C791 0.931 . S
H818 C793 0.931 . S
H819 C795 0.930 . S
H820 C797 0.930 . S
H821 C798 0.931 . S
H822 C800 0.931 . S
H823 C802 0.930 . S
H824 C804 0.930 . S
H825 C805 0.931 . S
H826 C807 0.931 . S
H827 C809 0.930 . S
H828 C811 0.930 . S
H829 C812 0.931 . S
N830 C792 1.360 . S
N830 C813 1.317 1_565 S
N831 C799 1.310 . S
N831 C806 1.360 . S
C832 C833 1.384 . S
C832 C834 1.384 . S
C832 H860 0.931 . S
C833 C832 1.384 . S
C833 C836 1.382 1_655 S
C834 C832 1.384 . S
C834 C835 1.381 . S
C834 H861 0.930 . S
C835 C834 1.381 . S
C835 C837 1.381 1_655 S
C835 C838 1.492 . S
C836 C833 1.382 1_455 S
C836 C837 1.387 . S
C836 H862 0.930 . S
C837 C835 1.381 1_455 S
C837 C836 1.387 . S
C837 H863 0.931 . S
C838 C835 1.492 . S
C838 C845 1.399 . S
C838 N876 1.317 1_655 S
C839 C840 1.384 . S
C839 C841 1.384 . S
C839 H864 0.931 . S
C840 C839 1.384 . S
C840 C843 1.382 1_455 S
C841 C839 1.384 . S
C841 C842 1.379 1_455 S
C841 H865 0.930 . S
C842 C841 1.379 1_655 S
C842 C844 1.390 . S
C842 C845 1.496 . S
C843 C840 1.382 1_655 S
C843 C844 1.387 . S
C843 H866 0.930 . S
C844 C842 1.390 . S
C844 C843 1.387 . S
C844 H867 0.931 . S
C845 C838 1.399 . S
C845 C842 1.496 . S
C845 N877 1.354 . S
C846 C847 1.384 . S
C846 C848 1.384 . S
C846 H868 0.931 . S
C847 C846 1.384 . S
C847 C850 1.382 1_455 S
C848 C846 1.384 . S
C848 C849 1.443 . S
C848 H869 0.930 . S
C849 C848 1.443 . S
C849 C851 1.352 1_455 S
C849 C852 1.455 . S
C850 C847 1.382 1_655 S
C850 C851 1.387 . S
C850 H870 0.930 . S
C851 C849 1.352 1_655 S
C851 C850 1.387 . S
C851 H871 0.931 . S
C852 C849 1.455 . S
C852 C859 1.399 . S
C852 N877 1.317 1_455 S
C853 C854 1.384 . S
C853 C855 1.384 . S
C853 H872 0.931 . S
C854 C853 1.384 . S
C854 C857 1.382 1_655 S
C855 C853 1.384 . S
C855 C856 1.381 1_655 S
C855 H873 0.930 . S
C856 C855 1.381 1_455 S
C856 C858 1.381 . S
C856 C859 1.496 . S
C857 C854 1.382 1_455 S
C857 C858 1.387 . S
C857 H874 0.930 . S
C858 C856 1.381 . S
C858 C857 1.387 . S
C858 H875 0.931 . S
C859 C852 1.399 . S
C859 C856 1.496 . S
C859 N876 1.354 . S
H860 C832 0.931 . S
H861 C834 0.930 . S
H862 C836 0.930 . S
H863 C837 0.931 . S
H864 C839 0.931 . S
H865 C841 0.930 . S
H866 C843 0.930 . S
H867 C844 0.931 . S
H868 C846 0.931 . S
H869 C848 0.930 . S
H870 C850 0.930 . S
H871 C851 0.931 . S
H872 C853 0.931 . S
H873 C855 0.930 . S
H874 C857 0.930 . S
H875 C858 0.931 . S
N876 C838 1.317 1_455 S
N876 C859 1.354 . S
N877 C845 1.354 . S
N877 C852 1.317 1_655 S
C878 C879 1.384 . S
C878 C880 1.384 . S
C878 H906 0.931 . S
C879 C878 1.384 . S
C879 C882 1.382 . S
C880 C878 1.384 . S
C880 C881 1.381 . S
C880 H907 0.930 . S
C881 C880 1.381 . S
C881 C883 1.381 . S
C881 C884 1.487 . S
C882 C879 1.382 . S
C882 C883 1.387 . S
C882 H908 0.930 . S
C883 C881 1.381 . S
C883 C882 1.387 . S
C883 H909 0.931 . S
C884 C881 1.487 . S
C884 C891 1.399 . S
C884 N922 1.343 . S
C885 C886 1.384 . S
C885 C887 1.384 . S
C885 H910 0.931 . S
C886 C885 1.384 . S
C886 C889 1.382 . S
C887 C885 1.384 . S
C887 C888 1.381 . S
C887 H911 0.930 . S
C888 C887 1.381 . S
C888 C890 1.381 . S
C888 C891 1.487 . S
C889 C886 1.382 . S
C889 C890 1.387 . S
C889 H912 0.930 . S
C890 C888 1.381 . S
C890 C889 1.387 . S
C890 H913 0.931 . S
C891 C884 1.399 . S
C891 C888 1.487 . S
C891 N923 1.343 . S
C892 C893 1.384 . S
C892 C894 1.384 . S
C892 H914 0.931 . S
C893 C892 1.384 . S
C893 C896 1.382 . S
C894 C892 1.384 . S
C894 C895 1.381 . S
C894 H915 0.930 . S
C895 C894 1.381 . S
C895 C897 1.381 . S
C895 C898 1.487 . S
C896 C893 1.382 . S
C896 C897 1.387 . S
C896 H916 0.930 . S
C897 C895 1.381 . S
C897 C896 1.387 . S
C897 H917 0.931 . S
C898 C895 1.487 . S
C898 C905 1.399 . S
C898 N923 1.343 . S
C899 C900 1.384 . S
C899 C901 1.384 . S
C899 H918 0.931 . S
C900 C899 1.384 . S
C900 C903 1.382 . S
C901 C899 1.384 . S
C901 C902 1.381 . S
C901 H919 0.930 . S
C902 C901 1.381 . S
C902 C904 1.381 . S
C902 C905 1.487 . S
C903 C900 1.382 . S
C903 C904 1.387 . S
C903 H920 0.930 . S
C904 C902 1.381 . S
C904 C903 1.387 . S
C904 H921 0.931 . S
C905 C898 1.399 . S
C905 C902 1.487 . S
C905 N922 1.343 . S
H906 C878 0.931 . S
H907 C880 0.930 . S
H908 C882 0.930 . S
H909 C883 0.931 . S
H910 C885 0.931 . S
H911 C887 0.930 . S
H912 C889 0.930 . S
H913 C890 0.931 . S
H914 C892 0.931 . S
H915 C894 0.930 . S
H916 C896 0.930 . S
H917 C897 0.931 . S
H918 C899 0.931 . S
H919 C901 0.930 . S
H920 C903 0.930 . S
H921 C904 0.931 . S
N922 C884 1.343 . S
N922 C905 1.343 . S
N923 C891 1.343 . S
N923 C898 1.343 . S
C924 C925 1.384 . S
C924 C926 1.384 . S
C924 H952 0.931 . S
C925 C924 1.384 . S
C925 C928 1.382 . S
C926 C924 1.384 . S
C926 C927 1.381 . S
C926 H953 0.930 . S
C927 C926 1.381 . S
C927 C929 1.381 . S
C927 C930 1.487 . S
C928 C925 1.382 . S
C928 C929 1.387 . S
C928 H954 0.930 . S
C929 C927 1.381 . S
C929 C928 1.387 . S
C929 H955 0.931 . S
C930 C927 1.487 . S
C930 C937 1.399 . S
C930 N968 1.343 . S
C931 C932 1.384 . S
C931 C933 1.384 . S
C931 H956 0.931 . S
C932 C931 1.384 . S
C932 C935 1.382 . S
C933 C931 1.384 . S
C933 C934 1.381 . S
C933 H957 0.930 . S
C934 C933 1.381 . S
C934 C936 1.381 . S
C934 C937 1.487 . S
C935 C932 1.382 . S
C935 C936 1.387 . S
C935 H958 0.930 . S
C936 C934 1.381 . S
C936 C935 1.387 . S
C936 H959 0.931 . S
C937 C930 1.399 . S
C937 C934 1.487 . S
C937 N969 1.343 . S
C938 C939 1.384 . S
C938 C940 1.384 . S
C938 H960 0.931 . S
C939 C938 1.384 . S
C939 C942 1.382 . S
C940 C938 1.384 . S
C940 C941 1.381 . S
C940 H961 0.930 . S
C941 C940 1.381 . S
C941 C943 1.381 . S
C941 C944 1.487 . S
C942 C939 1.382 . S
C942 C943 1.387 . S
C942 H962 0.930 . S
C943 C941 1.381 . S
C943 C942 1.387 . S
C943 H963 0.931 . S
C944 C941 1.487 . S
C944 C951 1.399 . S
C944 N969 1.343 . S
C945 C946 1.384 . S
C945 C947 1.384 . S
C945 H964 0.931 . S
C946 C945 1.384 . S
C946 C949 1.382 . S
C947 C945 1.384 . S
C947 C948 1.381 . S
C947 H965 0.930 . S
C948 C947 1.381 . S
C948 C950 1.381 . S
C948 C951 1.487 . S
C949 C946 1.382 . S
C949 C950 1.387 . S
C949 H966 0.930 . S
C950 C948 1.381 . S
C950 C949 1.387 . S
C950 H967 0.931 . S
C951 C944 1.399 . S
C951 C948 1.487 . S
C951 N968 1.343 . S
H952 C924 0.931 . S
H953 C926 0.930 . S
H954 C928 0.930 . S
H955 C929 0.931 . S
H956 C931 0.931 . S
H957 C933 0.930 . S
H958 C935 0.930 . S
H959 C936 0.931 . S
H960 C938 0.931 . S
H961 C940 0.930 . S
H962 C942 0.930 . S
H963 C943 0.931 . S
H964 C945 0.931 . S
H965 C947 0.930 . S
H966 C949 0.930 . S
H967 C950 0.931 . S
N968 C930 1.343 . S
N968 C951 1.343 . S
N969 C937 1.343 . S
N969 C944 1.343 . S
C970 C971 1.384 . S
C970 C972 1.384 . S
C970 H998 0.931 . S
C971 C970 1.384 . S
C971 C974 1.382 . S
C972 C970 1.384 . S
C972 C973 1.381 . S
C972 H999 0.930 . S
C973 C972 1.381 . S
C973 C975 1.381 . S
C973 C976 1.487 . S
C974 C971 1.382 . S
C974 C975 1.387 . S
C974 H1000 0.930 . S
C975 C973 1.381 . S
C975 C974 1.387 . S
C975 H1001 0.931 . S
C976 C973 1.487 . S
C976 C983 1.399 . S
C976 N1014 1.343 . S
C977 C978 1.384 . S
C977 C979 1.384 . S
C977 H1002 0.931 . S
C978 C977 1.384 . S
C978 C981 1.382 . S
C979 C977 1.384 . S
C979 C980 1.381 . S
C979 H1003 0.930 . S
C980 C979 1.381 . S
C980 C982 1.381 . S
C980 C983 1.487 . S
C981 C978 1.382 . S
C981 C982 1.387 . S
C981 H1004 0.930 . S
C982 C980 1.381 . S
C982 C981 1.387 . S
C982 H1005 0.931 . S
C983 C976 1.399 . S
C983 C980 1.487 . S
C983 N1015 1.343 . S
C984 C985 1.384 . S
C984 C986 1.384 . S
C984 H1006 0.931 . S
C985 C984 1.384 . S
C985 C988 1.382 . S
C986 C984 1.384 . S
C986 C987 1.381 . S
C986 H1007 0.930 . S
C987 C986 1.381 . S
C987 C989 1.381 . S
C987 C990 1.487 . S
C988 C985 1.382 . S
C988 C989 1.387 . S
C988 H1008 0.930 . S
C989 C987 1.381 . S
C989 C988 1.387 . S
C989 H1009 0.931 . S
C990 C987 1.487 . S
C990 C997 1.399 . S
C990 N1015 1.343 . S
C991 C992 1.384 . S
C991 C993 1.384 . S
C991 H1010 0.931 . S
C992 C991 1.384 . S
C992 C995 1.382 . S
C993 C991 1.384 . S
C993 C994 1.381 . S
C993 H1011 0.930 . S
C994 C993 1.381 . S
C994 C996 1.381 . S
C994 C997 1.487 . S
C995 C992 1.382 . S
C995 C996 1.387 . S
C995 H1012 0.930 . S
C996 C994 1.381 . S
C996 C995 1.387 . S
C996 H1013 0.931 . S
C997 C990 1.399 . S
C997 C994 1.487 . S
C997 N1014 1.343 . S
H998 C970 0.931 . S
H999 C972 0.930 . S
H1000 C974 0.930 . S
H1001 C975 0.931 . S
H1002 C977 0.931 . S
H1003 C979 0.930 . S
H1004 C981 0.930 . S
H1005 C982 0.931 . S
H1006 C984 0.931 . S
H1007 C986 0.930 . S
H1008 C988 0.930 . S
H1009 C989 0.931 . S
H1010 C991 0.931 . S
H1011 C993 0.930 . S
H1012 C995 0.930 . S
H1013 C996 0.931 . S
N1014 C976 1.343 . S
N1014 C997 1.343 . S
N1015 C983 1.343 . S
N1015 C990 1.343 . S
C1016 C1017 1.384 . S
C1016 C1018 1.384 . S
C1016 H1044 0.931 . S
C1017 C1016 1.384 . S
C1017 C1020 1.382 . S
C1018 C1016 1.384 . S
C1018 C1019 1.381 . S
C1018 H1045 0.930 . S
C1019 C1018 1.381 . S
C1019 C1021 1.381 . S
C1019 C1022 1.487 . S
C1020 C1017 1.382 . S
C1020 C1021 1.387 . S
C1020 H1046 0.930 . S
C1021 C1019 1.381 . S
C1021 C1020 1.387 . S
C1021 H1047 0.931 . S
C1022 C1019 1.487 . S
C1022 C1029 1.399 . S
C1022 N1060 1.343 . S
C1023 C1024 1.384 . S
C1023 C1025 1.384 . S
C1023 H1048 0.931 . S
C1024 C1023 1.384 . S
C1024 C1027 1.382 . S
C1025 C1023 1.384 . S
C1025 C1026 1.381 . S
C1025 H1049 0.930 . S
C1026 C1025 1.381 . S
C1026 C1028 1.381 . S
C1026 C1029 1.487 . S
C1027 C1024 1.382 . S
C1027 C1028 1.387 . S
C1027 H1050 0.930 . S
C1028 C1026 1.381 . S
C1028 C1027 1.387 . S
C1028 H1051 0.931 . S
C1029 C1022 1.399 . S
C1029 C1026 1.487 . S
C1029 N1061 1.343 . S
C1030 C1031 1.384 . S
C1030 C1032 1.384 . S
C1030 H1052 0.931 . S
C1031 C1030 1.384 . S
C1031 C1034 1.382 . S
C1032 C1030 1.384 . S
C1032 C1033 1.381 . S
C1032 H1053 0.930 . S
C1033 C1032 1.381 . S
C1033 C1035 1.381 . S
C1033 C1036 1.487 . S
C1034 C1031 1.382 . S
C1034 C1035 1.387 . S
C1034 H1054 0.930 . S
C1035 C1033 1.381 . S
C1035 C1034 1.387 . S
C1035 H1055 0.931 . S
C1036 C1033 1.487 . S
C1036 C1043 1.399 . S
C1036 N1061 1.343 . S
C1037 C1038 1.384 . S
C1037 C1039 1.384 . S
C1037 H1056 0.931 . S
C1038 C1037 1.384 . S
C1038 C1041 1.382 . S
C1039 C1037 1.384 . S
C1039 C1040 1.381 . S
C1039 H1057 0.930 . S
C1040 C1039 1.381 . S
C1040 C1042 1.381 . S
C1040 C1043 1.487 . S
C1041 C1038 1.382 . S
C1041 C1042 1.387 . S
C1041 H1058 0.930 . S
C1042 C1040 1.381 . S
C1042 C1041 1.387 . S
C1042 H1059 0.931 . S
C1043 C1036 1.399 . S
C1043 C1040 1.487 . S
C1043 N1060 1.343 . S
H1044 C1016 0.931 . S
H1045 C1018 0.930 . S
H1046 C1020 0.930 . S
H1047 C1021 0.931 . S
H1048 C1023 0.931 . S
H1049 C1025 0.930 . S
H1050 C1027 0.930 . S
H1051 C1028 0.931 . S
H1052 C1030 0.931 . S
H1053 C1032 0.930 . S
H1054 C1034 0.930 . S
H1055 C1035 0.931 . S
H1056 C1037 0.931 . S
H1057 C1039 0.930 . S
H1058 C1041 0.930 . S
H1059 C1042 0.931 . S
N1060 C1022 1.343 . S
N1060 C1043 1.343 . S
N1061 C1029 1.343 . S
N1061 C1036 1.343 . S
H1062 C1074 0.930 . S
H1063 C1076 0.930 . S
H1064 C1077 0.942 1_455 S
H1065 C1081 0.959 . S
H1066 C1081 0.959 . S
H1067 C1081 0.961 . S
H1068 C1082 0.960 . S
H1069 C1082 0.961 . S
H1070 C1082 0.959 . S
H1071 C1085 0.929 . S
H1072 C1086 0.914 . S
H1073 C1088 0.930 . S
C1074 H1062 0.930 . S
C1074 C1075 1.399 . S
C1074 C1079 1.399 . S
C1075 C1074 1.399 . S
C1075 C1076 1.376 . S
C1076 H1063 0.930 . S
C1076 C1075 1.376 . S
C1076 C1077 1.375 . S
C1077 H1064 0.942 1_655 S
C1077 C1076 1.375 . S
C1077 C1078 1.392 . S
C1078 C1077 1.392 . S
C1078 C1079 1.394 . S
C1078 C1084 1.465 . S
C1079 C1074 1.399 . S
C1079 C1078 1.394 . S
C1079 C1080 1.516 . S
C1080 C1079 1.516 . S
C1080 C1081 1.502 . S
C1080 C1082 1.561 1_655 S
C1080 C1083 1.526 . S
C1081 H1065 0.959 . S
C1081 H1066 0.959 . S
C1081 H1067 0.961 . S
C1081 C1080 1.502 . S
C1082 H1068 0.960 . S
C1082 H1069 0.961 . S
C1082 H1070 0.959 . S
C1082 C1080 1.561 1_455 S
C1083 C1080 1.526 . S
C1083 C1084 1.396 . S
C1083 C1088 1.390 . S
C1084 C1078 1.465 . S
C1084 C1083 1.396 . S
C1084 C1085 1.399 1_655 S
C1085 H1071 0.929 . S
C1085 C1084 1.399 1_455 S
C1085 C1086 1.399 . S
C1086 H1072 0.914 . S
C1086 C1085 1.399 . S
C1086 C1087 1.394 1_455 S
C1087 C1086 1.394 1_655 S
C1087 C1088 1.387 . S
C1088 H1073 0.930 . S
C1088 C1083 1.390 . S
C1088 C1087 1.387 . S
H1089 C1101 0.930 . S
H1090 C1103 0.930 . S
H1091 C1104 0.930 . S
H1092 C1108 0.959 . S
H1093 C1108 0.959 . S
H1094 C1108 0.961 . S
H1095 C1109 0.960 . S
H1096 C1109 0.961 . S
H1097 C1109 0.959 . S
H1098 C1112 0.929 . S
H1099 C1113 0.931 . S
H1100 C1115 0.930 . S
C1101 H1089 0.930 . S
C1101 C1102 1.399 . S
C1101 C1106 1.399 . S
C1102 C1101 1.399 . S
C1102 C1103 1.376 . S
C1103 H1090 0.930 . S
C1103 C1102 1.376 . S
C1103 C1104 1.388 . S
C1104 H1091 0.930 . S
C1104 C1103 1.388 . S
C1104 C1105 1.390 . S
C1105 C1104 1.390 . S
C1105 C1106 1.394 . S
C1105 C1111 1.465 . S
C1106 C1101 1.399 . S
C1106 C1105 1.394 . S
C1106 C1107 1.516 . S
C1107 C1106 1.516 . S
C1107 C1108 1.502 . S
C1107 C1109 1.561 . S
C1107 C1110 1.526 . S
C1108 H1092 0.959 . S
C1108 H1093 0.959 . S
C1108 H1094 0.961 . S
C1108 C1107 1.502 . S
C1109 H1095 0.960 . S
C1109 H1096 0.961 . S
C1109 H1097 0.959 . S
C1109 C1107 1.561 . S
C1110 C1107 1.526 . S
C1110 C1111 1.396 . S
C1110 C1115 1.390 . S
C1111 C1105 1.465 . S
C1111 C1110 1.396 . S
C1111 C1112 1.399 . S
C1112 H1098 0.929 . S
C1112 C1111 1.399 . S
C1112 C1113 1.385 . S
C1113 H1099 0.931 . S
C1113 C1112 1.385 . S
C1113 C1114 1.389 . S
C1114 C1113 1.389 . S
C1114 C1115 1.387 . S
C1115 H1100 0.930 . S
C1115 C1110 1.390 . S
C1115 C1114 1.387 . S
H1116 C1128 0.930 . S
H1117 C1130 0.930 . S
H1118 C1131 0.930 . S
H1119 C1135 0.959 . S
H1120 C1135 0.959 . S
H1121 C1135 0.961 . S
H1122 C1136 0.960 . S
H1123 C1136 0.961 . S
H1124 C1136 0.959 . S
H1125 C1139 0.929 . S
H1126 C1140 0.931 . S
H1127 C1142 0.930 . S
C1128 H1116 0.930 . S
C1128 C1129 1.399 . S
C1128 C1133 1.399 . S
C1129 C1128 1.399 . S
C1129 C1130 1.376 1_545 S
C1130 H1117 0.930 . S
C1130 C1129 1.376 1_565 S
C1130 C1131 1.388 . S
C1131 H1118 0.930 . S
C1131 C1130 1.388 . S
C1131 C1132 1.390 1_565 S
C1132 C1131 1.390 1_545 S
C1132 C1133 1.394 . S
C1132 C1138 1.465 . S
C1133 C1128 1.399 . S
C1133 C1132 1.394 . S
C1133 C1134 1.516 . S
C1134 C1133 1.516 . S
C1134 C1135 1.502 . S
C1134 C1136 1.561 . S
C1134 C1137 1.526 . S
C1135 H1119 0.959 . S
C1135 H1120 0.959 . S
C1135 H1121 0.961 . S
C1135 C1134 1.502 . S
C1136 H1122 0.960 . S
C1136 H1123 0.961 . S
C1136 H1124 0.959 . S
C1136 C1134 1.561 . S
C1137 C1134 1.526 . S
C1137 C1138 1.396 . S
C1137 C1142 1.390 . S
C1138 C1132 1.465 . S
C1138 C1137 1.396 . S
C1138 C1139 1.399 1_545 S
C1139 H1125 0.929 . S
C1139 C1138 1.399 1_565 S
C1139 C1140 1.385 . S
C1140 H1126 0.931 . S
C1140 C1139 1.385 . S
C1140 C1141 1.389 1_565 S
C1141 C1140 1.389 1_545 S
C1141 C1142 1.387 . S
C1142 H1127 0.930 . S
C1142 C1137 1.390 . S
C1142 C1141 1.387 . S
H1143 C1155 0.930 . S
H1144 C1157 0.930 . S
H1145 C1158 0.930 . S
H1146 C1162 0.959 . S
H1147 C1162 0.959 . S
H1148 C1162 0.961 . S
H1149 C1163 0.960 . S
H1150 C1163 0.961 . S
H1151 C1163 0.959 . S
H1152 C1166 0.929 . S
H1153 C1167 0.931 . S
H1154 C1169 0.930 . S
C1155 H1143 0.930 . S
C1155 C1156 1.399 1_545 S
C1155 C1160 1.399 . S
C1156 C1155 1.399 1_565 S
C1156 C1157 1.376 . S
C1157 H1144 0.930 . S
C1157 C1156 1.376 . S
C1157 C1158 1.388 . S
C1158 H1145 0.930 . S
C1158 C1157 1.388 . S
C1158 C1159 1.390 . S
C1159 C1158 1.390 . S
C1159 C1160 1.394 1_565 S
C1159 C1165 1.465 . S
C1160 C1155 1.399 . S
C1160 C1159 1.394 1_545 S
C1160 C1161 1.516 . S
C1161 C1160 1.516 . S
C1161 C1162 1.502 . S
C1161 C1163 1.561 . S
C1161 C1164 1.526 . S
C1162 H1146 0.959 . S
C1162 H1147 0.959 . S
C1162 H1148 0.961 . S
C1162 C1161 1.502 . S
C1163 H1149 0.960 . S
C1163 H1150 0.961 . S
C1163 H1151 0.959 . S
C1163 C1161 1.561 . S
C1164 C1161 1.526 . S
C1164 C1165 1.396 1_545 S
C1164 C1169 1.390 . S
C1165 C1159 1.465 . S
C1165 C1164 1.396 1_565 S
C1165 C1166 1.399 . S
C1166 H1152 0.929 . S
C1166 C1165 1.399 . S
C1166 C1167 1.385 . S
C1167 H1153 0.931 . S
C1167 C1166 1.385 . S
C1167 C1168 1.389 . S
C1168 C1167 1.389 . S
C1168 C1169 1.387 1_565 S
C1169 H1154 0.930 . S
C1169 C1164 1.390 . S
C1169 C1168 1.387 1_545 S
H1170 C1182 0.930 . S
H1171 C1184 0.930 . S
H1172 C1185 0.930 . S
H1173 C1189 0.959 . S
H1174 C1189 0.959 . S
H1175 C1189 0.961 . S
H1176 C1190 0.960 . S
H1177 C1190 0.961 . S
H1178 C1190 0.959 . S
H1179 C1193 0.929 . S
H1180 C1194 0.931 . S
H1181 C1196 0.930 . S
C1182 H1170 0.930 . S
C1182 C1183 1.399 . S
C1182 C1187 1.399 . S
C1183 C1182 1.399 . S
C1183 C1184 1.376 . S
C1184 H1171 0.930 . S
C1184 C1183 1.376 . S
C1184 C1185 1.388 . S
C1185 H1172 0.930 . S
C1185 C1184 1.388 . S
C1185 C1186 1.390 . S
C1186 C1185 1.390 . S
C1186 C1187 1.394 . S
C1186 C1192 1.465 . S
C1187 C1182 1.399 . S
C1187 C1186 1.394 . S
C1187 C1188 1.516 . S
C1188 C1187 1.516 . S
C1188 C1189 1.502 . S
C1188 C1190 1.561 1_455 S
C1188 C1191 1.526 . S
C1189 H1173 0.959 . S
C1189 H1174 0.959 . S
C1189 H1175 0.961 . S
C1189 C1188 1.502 . S
C1190 H1176 0.960 . S
C1190 H1177 0.961 . S
C1190 H1178 0.959 . S
C1190 C1188 1.561 1_655 S
C1191 C1188 1.526 . S
C1191 C1192 1.396 . S
C1191 C1196 1.390 . S
C1192 C1186 1.465 . S
C1192 C1191 1.396 . S
C1192 C1193 1.399 . S
C1193 H1179 0.929 . S
C1193 C1192 1.399 . S
C1193 C1194 1.385 . S
C1194 H1180 0.931 . S
C1194 C1193 1.385 . S
C1194 C1195 1.389 . S
C1195 C1194 1.389 . S
C1195 C1196 1.387 . S
C1196 H1181 0.930 . S
C1196 C1191 1.390 . S
C1196 C1195 1.387 . S
H1197 C1209 0.930 . S
H1198 C1211 0.930 . S
H1199 C1212 0.930 . S
H1200 C1216 0.959 . S
H1201 C1216 0.959 . S
H1202 C1216 0.961 . S
H1203 C1217 0.960 . S
H1204 C1217 0.961 . S
H1205 C1217 0.959 . S
H1206 C1220 0.929 . S
H1207 C1221 0.931 . S
H1208 C1223 0.930 . S
C1209 H1197 0.930 . S
C1209 C1210 1.399 . S
C1209 C1214 1.399 . S
C1210 C1209 1.399 . S
C1210 C1211 1.376 . S
C1211 H1198 0.930 . S
C1211 C1210 1.376 . S
C1211 C1212 1.388 . S
C1212 H1199 0.930 . S
C1212 C1211 1.388 . S
C1212 C1213 1.390 . S
C1213 C1212 1.390 . S
C1213 C1214 1.394 . S
C1213 C1219 1.465 . S
C1214 C1209 1.399 . S
C1214 C1213 1.394 . S
C1214 C1215 1.516 . S
C1215 C1214 1.516 . S
C1215 C1216 1.502 . S
C1215 C1217 1.561 . S
C1215 C1218 1.526 . S
C1216 H1200 0.959 . S
C1216 H1201 0.959 . S
C1216 H1202 0.961 . S
C1216 C1215 1.502 . S
C1217 H1203 0.960 . S
C1217 H1204 0.961 . S
C1217 H1205 0.959 . S
C1217 C1215 1.561 . S
C1218 C1215 1.526 . S
C1218 C1219 1.396 . S
C1218 C1223 1.390 . S
C1219 C1213 1.465 . S
C1219 C1218 1.396 . S
C1219 C1220 1.399 . S
C1220 H1206 0.929 . S
C1220 C1219 1.399 . S
C1220 C1221 1.385 . S
C1221 H1207 0.931 . S
C1221 C1220 1.385 . S
C1221 C1222 1.389 . S
C1222 C1221 1.389 . S
C1222 C1223 1.387 . S
C1223 H1208 0.930 . S
C1223 C1218 1.390 . S
C1223 C1222 1.387 . S
H1224 C1236 0.930 1_655 S
H1225 C1238 0.930 . S
H1226 C1239 0.930 . S
H1227 C1243 0.959 . S
H1228 C1243 0.959 . S
H1229 C1243 0.961 . S
H1230 C1244 1.013 . S
H1231 C1244 0.961 1_655 S
H1232 C1244 0.959 . S
H1233 C1247 0.929 . S
H1234 C1248 0.931 . S
H1235 C1250 0.930 . S
C1236 H1224 0.930 1_455 S
C1236 C1237 1.399 . S
C1236 C1241 1.399 . S
C1237 C1236 1.399 . S
C1237 C1238 1.376 . S
C1238 H1225 0.930 . S
C1238 C1237 1.376 . S
C1238 C1239 1.388 . S
C1239 H1226 0.930 . S
C1239 C1238 1.388 . S
C1239 C1240 1.390 . S
C1240 C1239 1.390 . S
C1240 C1241 1.394 . S
C1240 C1246 1.465 . S
C1241 C1236 1.399 . S
C1241 C1240 1.394 . S
C1241 C1242 1.516 1_455 S
C1242 C1241 1.516 1_655 S
C1242 C1243 1.502 . S
C1242 C1244 1.561 1_655 S
C1242 C1245 1.526 1_655 S
C1243 H1227 0.959 . S
C1243 H1228 0.959 . S
C1243 H1229 0.961 . S
C1243 C1242 1.502 . S
C1244 H1230 1.013 . S
C1244 H1231 0.961 1_455 S
C1244 H1232 0.959 . S
C1244 C1242 1.561 1_455 S
C1245 C1242 1.526 1_455 S
C1245 C1246 1.396 . S
C1245 C1250 1.390 1_455 S
C1246 C1240 1.465 . S
C1246 C1245 1.396 . S
C1246 C1247 1.399 . S
C1247 H1233 0.929 . S
C1247 C1246 1.399 . S
C1247 C1248 1.385 . S
C1248 H1234 0.931 . S
C1248 C1247 1.385 . S
C1248 C1249 1.389 . S
C1249 C1248 1.389 . S
C1249 C1250 1.387 1_455 S
C1250 H1235 0.930 . S
C1250 C1245 1.390 1_655 S
C1250 C1249 1.387 1_655 S
H1251 C1263 0.930 . S
H1252 C1265 0.930 . S
H1253 C1266 0.930 . S
H1254 C1270 0.959 . S
H1255 C1270 0.959 . S
H1256 C1270 0.961 . S
H1257 C1271 0.960 . S
H1258 C1271 0.961 . S
H1259 C1271 0.959 . S
H1260 C1274 0.929 . S
H1261 C1275 0.931 . S
H1262 C1277 0.930 . S
C1263 H1251 0.930 . S
C1263 C1264 1.399 . S
C1263 C1268 1.399 . S
C1264 C1263 1.399 . S
C1264 C1265 1.376 . S
C1265 H1252 0.930 . S
C1265 C1264 1.376 . S
C1265 C1266 1.388 . S
C1266 H1253 0.930 . S
C1266 C1265 1.388 . S
C1266 C1267 1.390 . S
C1267 C1266 1.390 . S
C1267 C1268 1.394 . S
C1267 C1273 1.465 . S
C1268 C1263 1.399 . S
C1268 C1267 1.394 . S
C1268 C1269 1.516 . S
C1269 C1268 1.516 . S
C1269 C1270 1.502 . S
C1269 C1271 1.561 . S
C1269 C1272 1.526 . S
C1270 H1254 0.959 . S
C1270 H1255 0.959 . S
C1270 H1256 0.961 . S
C1270 C1269 1.502 . S
C1271 H1257 0.960 . S
C1271 H1258 0.961 . S
C1271 H1259 0.959 . S
C1271 C1269 1.561 . S
C1272 C1269 1.526 . S
C1272 C1273 1.396 . S
C1272 C1277 1.390 . S
C1273 C1267 1.465 . S
C1273 C1272 1.396 . S
C1273 C1274 1.399 . S
C1274 H1260 0.929 . S
C1274 C1273 1.399 . S
C1274 C1275 1.385 . S
C1275 H1261 0.931 . S
C1275 C1274 1.385 . S
C1275 C1276 1.389 . S
C1276 C1275 1.389 . S
C1276 C1277 1.387 . S
C1277 H1262 0.930 . S
C1277 C1272 1.390 . S
C1277 C1276 1.387 . S
H1278 C1290 0.930 . S
H1279 C1292 0.930 . S
H1280 C1293 0.930 . S
H1281 C1297 0.959 . S
H1282 C1297 0.959 . S
H1283 C1297 0.961 . S
H1284 C1298 0.960 . S
H1285 C1298 0.961 . S
H1286 C1298 0.959 . S
H1287 C1301 0.929 . S
H1288 C1302 0.931 . S
H1289 C1304 0.930 . S
C1290 H1278 0.930 . S
C1290 C1291 1.399 . S
C1290 C1295 1.399 . S
C1291 C1290 1.399 . S
C1291 C1292 1.376 1_565 S
C1292 H1279 0.930 . S
C1292 C1291 1.376 1_545 S
C1292 C1293 1.388 . S
C1293 H1280 0.930 . S
C1293 C1292 1.388 . S
C1293 C1294 1.416 . S
C1294 C1293 1.416 . S
C1294 C1295 1.326 1_545 S
C1294 C1300 1.499 . S
C1295 C1290 1.399 . S
C1295 C1294 1.326 1_565 S
C1295 C1296 1.516 . S
C1296 C1295 1.516 . S
C1296 C1297 1.502 . S
C1296 C1298 1.561 . S
C1296 C1299 1.526 . S
C1297 H1281 0.959 . S
C1297 H1282 0.959 . S
C1297 H1283 0.961 . S
C1297 C1296 1.502 . S
C1298 H1284 0.960 . S
C1298 H1285 0.961 . S
C1298 H1286 0.959 . S
C1298 C1296 1.561 . S
C1299 C1296 1.526 . S
C1299 C1300 1.396 1_565 S
C1299 C1304 1.390 . S
C1300 C1294 1.499 . S
C1300 C1299 1.396 1_545 S
C1300 C1301 1.399 . S
C1301 H1287 0.929 . S
C1301 C1300 1.399 . S
C1301 C1302 1.385 . S
C1302 H1288 0.931 . S
C1302 C1301 1.385 . S
C1302 C1303 1.389 1_545 S
C1303 C1302 1.389 1_565 S
C1303 C1304 1.387 . S
C1304 H1289 0.930 . S
C1304 C1299 1.390 . S
C1304 C1303 1.387 . S
H1305 C1317 0.930 . S
H1306 C1319 0.930 . S
H1307 C1320 0.930 . S
H1308 C1324 0.959 . S
H1309 C1324 0.959 . S
H1310 C1324 0.961 . S
H1311 C1325 0.960 . S
H1312 C1325 0.961 . S
H1313 C1325 0.959 . S
H1314 C1328 0.929 . S
H1315 C1329 0.931 . S
H1316 C1331 0.930 . S
C1317 H1305 0.930 . S
C1317 C1318 1.399 . S
C1317 C1322 1.399 . S
C1318 C1317 1.399 . S
C1318 C1319 1.376 1_545 S
C1319 H1306 0.930 . S
C1319 C1318 1.376 1_565 S
C1319 C1320 1.388 . S
C1320 H1307 0.930 . S
C1320 C1319 1.388 . S
C1320 C1321 1.390 1_565 S
C1321 C1320 1.390 1_545 S
C1321 C1322 1.394 . S
C1321 C1327 1.459 . S
C1322 C1317 1.399 . S
C1322 C1321 1.394 . S
C1322 C1323 1.516 . S
C1323 C1322 1.516 . S
C1323 C1324 1.502 . S
C1323 C1325 1.561 . S
C1323 C1326 1.526 . S
C1324 H1308 0.959 . S
C1324 H1309 0.959 . S
C1324 H1310 0.961 . S
C1324 C1323 1.502 . S
C1325 H1311 0.960 . S
C1325 H1312 0.961 . S
C1325 H1313 0.959 . S
C1325 C1323 1.561 . S
C1326 C1323 1.526 . S
C1326 C1327 1.407 . S
C1326 C1331 1.390 . S
C1327 C1321 1.459 . S
C1327 C1326 1.407 . S
C1327 C1328 1.396 1_545 S
C1328 H1314 0.929 . S
C1328 C1327 1.396 1_565 S
C1328 C1329 1.385 . S
C1329 H1315 0.931 . S
C1329 C1328 1.385 . S
C1329 C1330 1.389 1_565 S
C1330 C1329 1.389 1_545 S
C1330 C1331 1.387 . S
C1331 H1316 0.930 . S
C1331 C1326 1.390 . S
C1331 C1330 1.387 . S
H1332 C1344 0.928 1_455 S
H1333 C1346 0.930 . S
H1334 C1347 0.930 . S
H1335 C1351 0.959 . S
H1336 C1351 0.959 . S
H1337 C1351 0.961 . S
H1338 C1352 0.960 . S
H1339 C1352 0.961 . S
H1340 C1352 0.959 1_655 S
H1341 C1355 0.929 . S
H1342 C1356 0.931 . S
H1343 C1358 0.930 . S
C1344 H1332 0.928 1_655 S
C1344 C1345 1.402 . S
C1344 C1349 1.397 . S
C1345 C1344 1.402 . S
C1345 C1346 1.376 . S
C1346 H1333 0.930 . S
C1346 C1345 1.376 . S
C1346 C1347 1.388 . S
C1347 H1334 0.930 . S
C1347 C1346 1.388 . S
C1347 C1348 1.390 . S
C1348 C1347 1.390 . S
C1348 C1349 1.394 . S
C1348 C1354 1.465 . S
C1349 C1344 1.397 . S
C1349 C1348 1.394 . S
C1349 C1350 1.516 1_655 S
C1350 C1349 1.516 1_455 S
C1350 C1351 1.502 . S
C1350 C1352 1.561 . S
C1350 C1353 1.539 1_455 S
C1351 H1335 0.959 . S
C1351 H1336 0.959 . S
C1351 H1337 0.961 . S
C1351 C1350 1.502 . S
C1352 H1338 0.960 . S
C1352 H1339 0.961 . S
C1352 H1340 0.959 1_455 S
C1352 C1350 1.561 . S
C1353 C1350 1.539 1_655 S
C1353 C1354 1.437 . S
C1353 C1358 1.350 1_655 S
C1354 C1348 1.465 . S
C1354 C1353 1.437 . S
C1354 C1355 1.399 . S
C1355 H1341 0.929 . S
C1355 C1354 1.399 . S
C1355 C1356 1.385 . S
C1356 H1342 0.931 . S
C1356 C1355 1.385 . S
C1356 C1357 1.389 . S
C1357 C1356 1.389 . S
C1357 C1358 1.387 1_655 S
C1358 H1343 0.930 . S
C1358 C1353 1.350 1_455 S
C1358 C1357 1.387 1_455 S
H1359 C1371 0.930 . S
H1360 C1373 0.930 . S
H1361 C1374 0.930 . S
H1362 C1378 0.959 . S
H1363 C1378 0.959 . S
H1364 C1378 0.961 . S
H1365 C1379 0.960 . S
H1366 C1379 0.961 . S
H1367 C1379 0.959 . S
H1368 C1382 0.929 . S
H1369 C1383 0.931 . S
H1370 C1385 0.930 . S
C1371 H1359 0.930 . S
C1371 C1372 1.399 . S
C1371 C1376 1.399 . S
C1372 C1371 1.399 . S
C1372 C1373 1.376 . S
C1373 H1360 0.930 . S
C1373 C1372 1.376 . S
C1373 C1374 1.388 . S
C1374 H1361 0.930 . S
C1374 C1373 1.388 . S
C1374 C1375 1.390 . S
C1375 C1374 1.390 . S
C1375 C1376 1.394 . S
C1375 C1381 1.465 . S
C1376 C1371 1.399 . S
C1376 C1375 1.394 . S
C1376 C1377 1.516 . S
C1377 C1376 1.516 . S
C1377 C1378 1.502 . S
C1377 C1379 1.561 . S
C1377 C1380 1.526 . S
C1378 H1362 0.959 . S
C1378 H1363 0.959 . S
C1378 H1364 0.961 . S
C1378 C1377 1.502 . S
C1379 H1365 0.960 . S
C1379 H1366 0.961 . S
C1379 H1367 0.959 . S
C1379 C1377 1.561 . S
C1380 C1377 1.526 . S
C1380 C1381 1.396 . S
C1380 C1385 1.390 . S
C1381 C1375 1.465 . S
C1381 C1380 1.396 . S
C1381 C1382 1.399 . S
C1382 H1368 0.929 . S
C1382 C1381 1.399 . S
C1382 C1383 1.385 . S
C1383 H1369 0.931 . S
C1383 C1382 1.385 . S
C1383 C1384 1.389 . S
C1384 C1383 1.389 . S
C1384 C1385 1.387 . S
C1385 H1370 0.930 . S
C1385 C1380 1.390 . S
C1385 C1384 1.387 . S
H1386 C1398 0.930 . S
H1387 C1400 0.930 . S
H1388 C1401 0.930 . S
H1389 C1405 0.959 . S
H1390 C1405 0.959 . S
H1391 C1405 0.961 . S
H1392 C1406 0.960 . S
H1393 C1406 0.961 . S
H1394 C1406 0.959 . S
H1395 C1409 0.929 . S
H1396 C1410 0.931 . S
H1397 C1412 0.930 . S
C1398 H1386 0.930 . S
C1398 C1399 1.399 . S
C1398 C1403 1.399 . S
C1399 C1398 1.399 . S
C1399 C1400 1.376 . S
C1400 H1387 0.930 . S
C1400 C1399 1.376 . S
C1400 C1401 1.388 . S
C1401 H1388 0.930 . S
C1401 C1400 1.388 . S
C1401 C1402 1.390 . S
C1402 C1401 1.390 . S
C1402 C1403 1.394 . S
C1402 C1408 1.465 . S
C1403 C1398 1.399 . S
C1403 C1402 1.394 . S
C1403 C1404 1.516 . S
C1404 C1403 1.516 . S
C1404 C1405 1.502 . S
C1404 C1406 1.561 . S
C1404 C1407 1.526 . S
C1405 H1389 0.959 . S
C1405 H1390 0.959 . S
C1405 H1391 0.961 . S
C1405 C1404 1.502 . S
C1406 H1392 0.960 . S
C1406 H1393 0.961 . S
C1406 H1394 0.959 . S
C1406 C1404 1.561 . S
C1407 C1404 1.526 . S
C1407 C1408 1.396 . S
C1407 C1412 1.390 . S
C1408 C1402 1.465 . S
C1408 C1407 1.396 . S
C1408 C1409 1.399 . S
C1409 H1395 0.929 . S
C1409 C1408 1.399 . S
C1409 C1410 1.385 . S
C1410 H1396 0.931 . S
C1410 C1409 1.385 . S
C1410 C1411 1.389 . S
C1411 C1410 1.389 . S
C1411 C1412 1.387 . S
C1412 H1397 0.930 . S
C1412 C1407 1.390 . S
C1412 C1411 1.387 . S
H1413 C1425 0.930 . S
H1414 C1427 0.930 . S
H1415 C1428 0.930 . S
H1416 C1432 0.959 . S
H1417 C1432 0.959 . S
H1418 C1432 0.961 . S
H1419 C1433 0.960 . S
H1420 C1433 0.961 . S
H1421 C1433 0.959 . S
H1422 C1436 0.929 . S
H1423 C1437 0.931 . S
H1424 C1439 0.930 . S
C1425 H1413 0.930 . S
C1425 C1426 1.399 . S
C1425 C1430 1.399 . S
C1426 C1425 1.399 . S
C1426 C1427 1.376 . S
C1427 H1414 0.930 . S
C1427 C1426 1.376 . S
C1427 C1428 1.388 . S
C1428 H1415 0.930 . S
C1428 C1427 1.388 . S
C1428 C1429 1.390 . S
C1429 C1428 1.390 . S
C1429 C1430 1.394 . S
C1429 C1435 1.465 . S
C1430 C1425 1.399 . S
C1430 C1429 1.394 . S
C1430 C1431 1.516 . S
C1431 C1430 1.516 . S
C1431 C1432 1.502 . S
C1431 C1433 1.561 . S
C1431 C1434 1.526 . S
C1432 H1416 0.959 . S
C1432 H1417 0.959 . S
C1432 H1418 0.961 . S
C1432 C1431 1.502 . S
C1433 H1419 0.960 . S
C1433 H1420 0.961 . S
C1433 H1421 0.959 . S
C1433 C1431 1.561 . S
C1434 C1431 1.526 . S
C1434 C1435 1.396 . S
C1434 C1439 1.390 . S
C1435 C1429 1.465 . S
C1435 C1434 1.396 . S
C1435 C1436 1.399 . S
C1436 H1422 0.929 . S
C1436 C1435 1.399 . S
C1436 C1437 1.385 . S
C1437 H1423 0.931 . S
C1437 C1436 1.385 . S
C1437 C1438 1.389 . S
C1438 C1437 1.389 . S
C1438 C1439 1.387 . S
C1439 H1424 0.930 . S
C1439 C1434 1.390 . S
C1439 C1438 1.387 . S
H1440 C1452 0.930 . S
H1441 C1454 0.930 . S
H1442 C1455 0.930 . S
H1443 C1459 0.959 . S
H1444 C1459 0.959 . S
H1445 C1459 0.961 . S
H1446 C1460 0.960 . S
H1447 C1460 0.961 . S
H1448 C1460 0.959 . S
H1449 C1463 0.929 . S
H1450 C1464 0.931 . S
H1451 C1466 0.930 . S
C1452 H1440 0.930 . S
C1452 C1453 1.399 . S
C1452 C1457 1.399 . S
C1453 C1452 1.399 . S
C1453 C1454 1.376 . S
C1454 H1441 0.930 . S
C1454 C1453 1.376 . S
C1454 C1455 1.388 . S
C1455 H1442 0.930 . S
C1455 C1454 1.388 . S
C1455 C1456 1.390 . S
C1456 C1455 1.390 . S
C1456 C1457 1.394 . S
C1456 C1462 1.465 . S
C1457 C1452 1.399 . S
C1457 C1456 1.394 . S
C1457 C1458 1.516 . S
C1458 C1457 1.516 . S
C1458 C1459 1.502 . S
C1458 C1460 1.561 . S
C1458 C1461 1.526 . S
C1459 H1443 0.959 . S
C1459 H1444 0.959 . S
C1459 H1445 0.961 . S
C1459 C1458 1.502 . S
C1460 H1446 0.960 . S
C1460 H1447 0.961 . S
C1460 H1448 0.959 . S
C1460 C1458 1.561 . S
C1461 C1458 1.526 . S
C1461 C1462 1.396 . S
C1461 C1466 1.390 . S
C1462 C1456 1.465 . S
C1462 C1461 1.396 . S
C1462 C1463 1.399 . S
C1463 H1449 0.929 . S
C1463 C1462 1.399 . S
C1463 C1464 1.385 . S
C1464 H1450 0.931 . S
C1464 C1463 1.385 . S
C1464 C1465 1.389 . S
C1465 C1464 1.389 . S
C1465 C1466 1.387 . S
C1466 H1451 0.930 . S
C1466 C1461 1.390 . S
C1466 C1465 1.387 . S
H1467 C1479 0.930 . S
H1468 C1481 0.930 . S
H1469 C1482 0.930 . S
H1470 C1486 0.959 . S
H1471 C1486 0.959 . S
H1472 C1486 0.961 . S
H1473 C1487 0.960 . S
H1474 C1487 0.961 . S
H1475 C1487 0.959 . S
H1476 C1490 0.929 . S
H1477 C1491 0.931 . S
H1478 C1493 0.930 . S
C1479 H1467 0.930 . S
C1479 C1480 1.399 . S
C1479 C1484 1.399 . S
C1480 C1479 1.399 . S
C1480 C1481 1.376 . S
C1481 H1468 0.930 . S
C1481 C1480 1.376 . S
C1481 C1482 1.388 . S
C1482 H1469 0.930 . S
C1482 C1481 1.388 . S
C1482 C1483 1.390 . S
C1483 C1482 1.390 . S
C1483 C1484 1.394 . S
C1483 C1489 1.465 . S
C1484 C1479 1.399 . S
C1484 C1483 1.394 . S
C1484 C1485 1.516 . S
C1485 C1484 1.516 . S
C1485 C1486 1.502 . S
C1485 C1487 1.561 . S
C1485 C1488 1.526 . S
C1486 H1470 0.959 . S
C1486 H1471 0.959 . S
C1486 H1472 0.961 . S
C1486 C1485 1.502 . S
C1487 H1473 0.960 . S
C1487 H1474 0.961 . S
C1487 H1475 0.959 . S
C1487 C1485 1.561 . S
C1488 C1485 1.526 . S
C1488 C1489 1.396 . S
C1488 C1493 1.390 . S
C1489 C1483 1.465 . S
C1489 C1488 1.396 . S
C1489 C1490 1.399 . S
C1490 H1476 0.929 . S
C1490 C1489 1.399 . S
C1490 C1491 1.385 . S
C1491 H1477 0.931 . S
C1491 C1490 1.385 . S
C1491 C1492 1.389 . S
C1492 C1491 1.389 . S
C1492 C1493 1.387 . S
C1493 H1478 0.930 . S
C1493 C1488 1.390 . S
C1493 C1492 1.387 . S
H1494 C1506 0.930 . S
H1495 C1508 0.930 . S
H1496 C1509 0.930 . S
H1497 C1513 0.959 . S
H1498 C1513 0.959 . S
H1499 C1513 0.961 . S
H1500 C1514 0.960 . S
H1501 C1514 0.961 . S
H1502 C1514 0.959 . S
H1503 C1517 0.929 . S
H1504 C1518 0.931 . S
H1505 C1520 0.930 . S
C1506 H1494 0.930 . S
C1506 C1507 1.399 . S
C1506 C1511 1.399 . S
C1507 C1506 1.399 . S
C1507 C1508 1.376 . S
C1508 H1495 0.930 . S
C1508 C1507 1.376 . S
C1508 C1509 1.388 . S
C1509 H1496 0.930 . S
C1509 C1508 1.388 . S
C1509 C1510 1.390 . S
C1510 C1509 1.390 . S
C1510 C1511 1.394 . S
C1510 C1516 1.465 . S
C1511 C1506 1.399 . S
C1511 C1510 1.394 . S
C1511 C1512 1.516 . S
C1512 C1511 1.516 . S
C1512 C1513 1.502 . S
C1512 C1514 1.561 . S
C1512 C1515 1.526 . S
C1513 H1497 0.959 . S
C1513 H1498 0.959 . S
C1513 H1499 0.961 . S
C1513 C1512 1.502 . S
C1514 H1500 0.960 . S
C1514 H1501 0.961 . S
C1514 H1502 0.959 . S
C1514 C1512 1.561 . S
C1515 C1512 1.526 . S
C1515 C1516 1.396 . S
C1515 C1520 1.390 . S
C1516 C1510 1.465 . S
C1516 C1515 1.396 . S
C1516 C1517 1.399 . S
C1517 H1503 0.929 . S
C1517 C1516 1.399 . S
C1517 C1518 1.385 . S
C1518 H1504 0.931 . S
C1518 C1517 1.385 . S
C1518 C1519 1.389 . S
C1519 C1518 1.389 . S
C1519 C1520 1.387 . S
C1520 H1505 0.930 . S
C1520 C1515 1.390 . S
C1520 C1519 1.387 . S
H1521 C1533 0.930 . S
H1522 C1535 0.930 . S
H1523 C1536 0.930 . S
H1524 C1540 0.959 . S
H1525 C1540 0.959 . S
H1526 C1540 0.961 . S
H1527 C1541 0.960 . S
H1528 C1541 0.961 . S
H1529 C1541 0.959 . S
H1530 C1544 0.929 . S
H1531 C1545 0.931 . S
H1532 C1547 0.930 . S
C1533 H1521 0.930 . S
C1533 C1534 1.399 . S
C1533 C1538 1.399 . S
C1534 C1533 1.399 . S
C1534 C1535 1.376 . S
C1535 H1522 0.930 . S
C1535 C1534 1.376 . S
C1535 C1536 1.388 . S
C1536 H1523 0.930 . S
C1536 C1535 1.388 . S
C1536 C1537 1.390 . S
C1537 C1536 1.390 . S
C1537 C1538 1.394 . S
C1537 C1543 1.465 . S
C1538 C1533 1.399 . S
C1538 C1537 1.394 . S
C1538 C1539 1.516 . S
C1539 C1538 1.516 . S
C1539 C1540 1.502 . S
C1539 C1541 1.561 . S
C1539 C1542 1.526 . S
C1540 H1524 0.959 . S
C1540 H1525 0.959 . S
C1540 H1526 0.961 . S
C1540 C1539 1.502 . S
C1541 H1527 0.960 . S
C1541 H1528 0.961 . S
C1541 H1529 0.959 . S
C1541 C1539 1.561 . S
C1542 C1539 1.526 . S
C1542 C1543 1.396 . S
C1542 C1547 1.390 . S
C1543 C1537 1.465 . S
C1543 C1542 1.396 . S
C1543 C1544 1.399 . S
C1544 H1530 0.929 . S
C1544 C1543 1.399 . S
C1544 C1545 1.385 . S
C1545 H1531 0.931 . S
C1545 C1544 1.385 . S
C1545 C1546 1.389 . S
C1546 C1545 1.389 . S
C1546 C1547 1.387 . S
C1547 H1532 0.930 . S
C1547 C1542 1.390 . S
C1547 C1546 1.387 . S
H1548 C1560 0.930 . S
H1549 C1562 0.930 . S
H1550 C1563 0.930 . S
H1551 C1567 0.959 . S
H1552 C1567 0.959 . S
H1553 C1567 0.961 . S
H1554 C1568 0.960 . S
H1555 C1568 0.961 . S
H1556 C1568 0.959 . S
H1557 C1571 0.929 . S
H1558 C1572 0.931 . S
H1559 C1574 0.930 . S
C1560 H1548 0.930 . S
C1560 C1561 1.399 . S
C1560 C1565 1.399 . S
C1561 C1560 1.399 . S
C1561 C1562 1.376 . S
C1562 H1549 0.930 . S
C1562 C1561 1.376 . S
C1562 C1563 1.388 . S
C1563 H1550 0.930 . S
C1563 C1562 1.388 . S
C1563 C1564 1.390 . S
C1564 C1563 1.390 . S
C1564 C1565 1.394 . S
C1564 C1570 1.465 . S
C1565 C1560 1.399 . S
C1565 C1564 1.394 . S
C1565 C1566 1.516 . S
C1566 C1565 1.516 . S
C1566 C1567 1.502 . S
C1566 C1568 1.561 . S
C1566 C1569 1.526 . S
C1567 H1551 0.959 . S
C1567 H1552 0.959 . S
C1567 H1553 0.961 . S
C1567 C1566 1.502 . S
C1568 H1554 0.960 . S
C1568 H1555 0.961 . S
C1568 H1556 0.959 . S
C1568 C1566 1.561 . S
C1569 C1566 1.526 . S
C1569 C1570 1.396 . S
C1569 C1574 1.390 . S
C1570 C1564 1.465 . S
C1570 C1569 1.396 . S
C1570 C1571 1.399 . S
C1571 H1557 0.929 . S
C1571 C1570 1.399 . S
C1571 C1572 1.385 . S
C1572 H1558 0.931 . S
C1572 C1571 1.385 . S
C1572 C1573 1.389 . S
C1573 C1572 1.389 . S
C1573 C1574 1.387 . S
C1574 H1559 0.930 . S
C1574 C1569 1.390 . S
C1574 C1573 1.387 . S
H1575 C1587 0.930 . S
H1576 C1589 0.930 . S
H1577 C1590 0.930 . S
H1578 C1594 0.959 . S
H1579 C1594 0.959 . S
H1580 C1594 0.961 . S
H1581 C1595 0.960 . S
H1582 C1595 0.961 . S
H1583 C1595 0.959 . S
H1584 C1598 0.929 . S
H1585 C1599 0.931 . S
H1586 C1601 0.930 . S
C1587 H1575 0.930 . S
C1587 C1588 1.399 . S
C1587 C1592 1.399 . S
C1588 C1587 1.399 . S
C1588 C1589 1.376 . S
C1589 H1576 0.930 . S
C1589 C1588 1.376 . S
C1589 C1590 1.388 . S
C1590 H1577 0.930 . S
C1590 C1589 1.388 . S
C1590 C1591 1.390 . S
C1591 C1590 1.390 . S
C1591 C1592 1.394 . S
C1591 C1597 1.465 . S
C1592 C1587 1.399 . S
C1592 C1591 1.394 . S
C1592 C1593 1.516 . S
C1593 C1592 1.516 . S
C1593 C1594 1.502 . S
C1593 C1595 1.561 . S
C1593 C1596 1.526 . S
C1594 H1578 0.959 . S
C1594 H1579 0.959 . S
C1594 H1580 0.961 . S
C1594 C1593 1.502 . S
C1595 H1581 0.960 . S
C1595 H1582 0.961 . S
C1595 H1583 0.959 . S
C1595 C1593 1.561 . S
C1596 C1593 1.526 . S
C1596 C1597 1.396 . S
C1596 C1601 1.390 . S
C1597 C1591 1.465 . S
C1597 C1596 1.396 . S
C1597 C1598 1.399 . S
C1598 H1584 0.929 . S
C1598 C1597 1.399 . S
C1598 C1599 1.385 . S
C1599 H1585 0.931 . S
C1599 C1598 1.385 . S
C1599 C1600 1.389 . S
C1600 C1599 1.389 . S
C1600 C1601 1.387 . S
C1601 H1586 0.930 . S
C1601 C1596 1.390 . S
C1601 C1600 1.387 . S
H1602 C1614 0.930 . S
H1603 C1616 0.930 . S
H1604 C1617 0.930 . S
H1605 C1621 0.959 . S
H1606 C1621 0.959 . S
H1607 C1621 0.961 . S
H1608 C1622 0.960 . S
H1609 C1622 0.961 . S
H1610 C1622 0.959 . S
H1611 C1625 0.929 . S
H1612 C1626 0.931 . S
H1613 C1628 0.930 . S
C1614 H1602 0.930 . S
C1614 C1615 1.399 . S
C1614 C1619 1.399 . S
C1615 C1614 1.399 . S
C1615 C1616 1.376 . S
C1616 H1603 0.930 . S
C1616 C1615 1.376 . S
C1616 C1617 1.388 . S
C1617 H1604 0.930 . S
C1617 C1616 1.388 . S
C1617 C1618 1.390 . S
C1618 C1617 1.390 . S
C1618 C1619 1.394 . S
C1618 C1624 1.465 . S
C1619 C1614 1.399 . S
C1619 C1618 1.394 . S
C1619 C1620 1.516 . S
C1620 C1619 1.516 . S
C1620 C1621 1.502 . S
C1620 C1622 1.561 . S
C1620 C1623 1.526 . S
C1621 H1605 0.959 . S
C1621 H1606 0.959 . S
C1621 H1607 0.961 . S
C1621 C1620 1.502 . S
C1622 H1608 0.960 . S
C1622 H1609 0.961 . S
C1622 H1610 0.959 . S
C1622 C1620 1.561 . S
C1623 C1620 1.526 . S
C1623 C1624 1.396 . S
C1623 C1628 1.390 . S
C1624 C1618 1.465 . S
C1624 C1623 1.396 . S
C1624 C1625 1.399 . S
C1625 H1611 0.929 . S
C1625 C1624 1.399 . S
C1625 C1626 1.385 . S
C1626 H1612 0.931 . S
C1626 C1625 1.385 . S
C1626 C1627 1.389 . S
C1627 C1626 1.389 . S
C1627 C1628 1.387 . S
C1628 H1613 0.930 . S
C1628 C1623 1.390 . S
C1628 C1627 1.387 . S
H1629 C1641 0.930 . S
H1630 C1643 0.930 . S
H1631 C1644 0.930 . S
H1632 C1648 0.959 . S
H1633 C1648 0.959 . S
H1634 C1648 0.961 . S
H1635 C1649 0.960 . S
H1636 C1649 0.961 . S
H1637 C1649 0.959 . S
H1638 C1652 0.929 . S
H1639 C1653 0.931 . S
H1640 C1655 0.930 . S
C1641 H1629 0.930 . S
C1641 C1642 1.399 . S
C1641 C1646 1.399 . S
C1642 C1641 1.399 . S
C1642 C1643 1.376 . S
C1643 H1630 0.930 . S
C1643 C1642 1.376 . S
C1643 C1644 1.388 . S
C1644 H1631 0.930 . S
C1644 C1643 1.388 . S
C1644 C1645 1.390 . S
C1645 C1644 1.390 . S
C1645 C1646 1.394 . S
C1645 C1651 1.465 . S
C1646 C1641 1.399 . S
C1646 C1645 1.394 . S
C1646 C1647 1.516 . S
C1647 C1646 1.516 . S
C1647 C1648 1.502 . S
C1647 C1649 1.561 . S
C1647 C1650 1.526 . S
C1648 H1632 0.959 . S
C1648 H1633 0.959 . S
C1648 H1634 0.961 . S
C1648 C1647 1.502 . S
C1649 H1635 0.960 . S
C1649 H1636 0.961 . S
C1649 H1637 0.959 . S
C1649 C1647 1.561 . S
C1650 C1647 1.526 . S
C1650 C1651 1.396 . S
C1650 C1655 1.390 . S
C1651 C1645 1.465 . S
C1651 C1650 1.396 . S
C1651 C1652 1.399 . S
C1652 H1638 0.929 . S
C1652 C1651 1.399 . S
C1652 C1653 1.385 . S
C1653 H1639 0.931 . S
C1653 C1652 1.385 . S
C1653 C1654 1.389 . S
C1654 C1653 1.389 . S
C1654 C1655 1.387 . S
C1655 H1640 0.930 . S
C1655 C1650 1.390 . S
C1655 C1654 1.387 . S
H1656 C1668 0.930 . S
H1657 C1670 0.930 . S
H1658 C1671 0.930 . S
H1659 C1675 0.959 . S
H1660 C1675 0.959 . S
H1661 C1675 0.961 . S
H1662 C1676 0.960 . S
H1663 C1676 0.961 . S
H1664 C1676 0.959 . S
H1665 C1679 0.929 . S
H1666 C1680 0.931 . S
H1667 C1682 0.930 . S
C1668 H1656 0.930 . S
C1668 C1669 1.399 . S
C1668 C1673 1.399 . S
C1669 C1668 1.399 . S
C1669 C1670 1.376 . S
C1670 H1657 0.930 . S
C1670 C1669 1.376 . S
C1670 C1671 1.388 . S
C1671 H1658 0.930 . S
C1671 C1670 1.388 . S
C1671 C1672 1.390 . S
C1672 C1671 1.390 . S
C1672 C1673 1.394 . S
C1672 C1678 1.465 . S
C1673 C1668 1.399 . S
C1673 C1672 1.394 . S
C1673 C1674 1.516 . S
C1674 C1673 1.516 . S
C1674 C1675 1.502 . S
C1674 C1676 1.561 . S
C1674 C1677 1.526 . S
C1675 H1659 0.959 . S
C1675 H1660 0.959 . S
C1675 H1661 0.961 . S
C1675 C1674 1.502 . S
C1676 H1662 0.960 . S
C1676 H1663 0.961 . S
C1676 H1664 0.959 . S
C1676 C1674 1.561 . S
C1677 C1674 1.526 . S
C1677 C1678 1.396 . S
C1677 C1682 1.390 . S
C1678 C1672 1.465 . S
C1678 C1677 1.396 . S
C1678 C1679 1.399 . S
C1679 H1665 0.929 . S
C1679 C1678 1.399 . S
C1679 C1680 1.385 . S
C1680 H1666 0.931 . S
C1680 C1679 1.385 . S
C1680 C1681 1.389 . S
C1681 C1680 1.389 . S
C1681 C1682 1.387 . S
C1682 H1667 0.930 . S
C1682 C1677 1.390 . S
C1682 C1681 1.387 . S
H1683 C1695 0.930 . S
H1684 C1697 0.930 . S
H1685 C1698 0.930 . S
H1686 C1702 0.959 . S
H1687 C1702 0.959 . S
H1688 C1702 0.961 . S
H1689 C1703 0.960 . S
H1690 C1703 0.961 . S
H1691 C1703 0.959 . S
H1692 C1706 0.929 . S
H1693 C1707 0.931 . S
H1694 C1709 0.930 . S
C1695 H1683 0.930 . S
C1695 C1696 1.399 . S
C1695 C1700 1.399 . S
C1696 C1695 1.399 . S
C1696 C1697 1.376 . S
C1697 H1684 0.930 . S
C1697 C1696 1.376 . S
C1697 C1698 1.388 . S
C1698 H1685 0.930 . S
C1698 C1697 1.388 . S
C1698 C1699 1.390 . S
C1699 C1698 1.390 . S
C1699 C1700 1.394 . S
C1699 C1705 1.465 . S
C1700 C1695 1.399 . S
C1700 C1699 1.394 . S
C1700 C1701 1.516 . S
C1701 C1700 1.516 . S
C1701 C1702 1.502 . S
C1701 C1703 1.561 . S
C1701 C1704 1.526 . S
C1702 H1686 0.959 . S
C1702 H1687 0.959 . S
C1702 H1688 0.961 . S
C1702 C1701 1.502 . S
C1703 H1689 0.960 . S
C1703 H1690 0.961 . S
C1703 H1691 0.959 . S
C1703 C1701 1.561 . S
C1704 C1701 1.526 . S
C1704 C1705 1.396 . S
C1704 C1709 1.390 . S
C1705 C1699 1.465 . S
C1705 C1704 1.396 . S
C1705 C1706 1.399 . S
C1706 H1692 0.929 . S
C1706 C1705 1.399 . S
C1706 C1707 1.385 . S
C1707 H1693 0.931 . S
C1707 C1706 1.385 . S
C1707 C1708 1.389 . S
C1708 C1707 1.389 . S
C1708 C1709 1.387 . S
C1709 H1694 0.930 . S
C1709 C1704 1.390 . S
C1709 C1708 1.387 . S
H1710 C1722 0.930 . S
H1711 C1724 0.930 . S
H1712 C1725 0.930 . S
H1713 C1729 0.959 . S
H1714 C1729 0.959 . S
H1715 C1729 0.961 . S
H1716 C1730 0.960 . S
H1717 C1730 0.961 . S
H1718 C1730 0.959 . S
H1719 C1733 0.929 . S
H1720 C1734 0.931 . S
H1721 C1736 0.930 . S
C1722 H1710 0.930 . S
C1722 C1723 1.399 . S
C1722 C1727 1.399 . S
C1723 C1722 1.399 . S
C1723 C1724 1.376 . S
C1724 H1711 0.930 . S
C1724 C1723 1.376 . S
C1724 C1725 1.388 . S
C1725 H1712 0.930 . S
C1725 C1724 1.388 . S
C1725 C1726 1.390 . S
C1726 C1725 1.390 . S
C1726 C1727 1.394 . S
C1726 C1732 1.465 . S
C1727 C1722 1.399 . S
C1727 C1726 1.394 . S
C1727 C1728 1.516 . S
C1728 C1727 1.516 . S
C1728 C1729 1.502 . S
C1728 C1730 1.561 . S
C1728 C1731 1.526 . S
C1729 H1713 0.959 . S
C1729 H1714 0.959 . S
C1729 H1715 0.961 . S
C1729 C1728 1.502 . S
C1730 H1716 0.960 . S
C1730 H1717 0.961 . S
C1730 H1718 0.959 . S
C1730 C1728 1.561 . S
C1731 C1728 1.526 . S
C1731 C1732 1.396 . S
C1731 C1736 1.390 . S
C1732 C1726 1.465 . S
C1732 C1731 1.396 . S
C1732 C1733 1.399 . S
C1733 H1719 0.929 . S
C1733 C1732 1.399 . S
C1733 C1734 1.385 . S
C1734 H1720 0.931 . S
C1734 C1733 1.385 . S
C1734 C1735 1.389 . S
C1735 C1734 1.389 . S
C1735 C1736 1.387 . S
C1736 H1721 0.930 . S
C1736 C1731 1.390 . S
C1736 C1735 1.387 . S
H1737 C1749 0.930 . S
H1738 C1751 0.930 . S
H1739 C1752 0.930 . S
H1740 C1756 0.959 . S
H1741 C1756 0.959 . S
H1742 C1756 0.961 . S
H1743 C1757 0.960 . S
H1744 C1757 0.961 . S
H1745 C1757 0.959 . S
H1746 C1760 0.929 . S
H1747 C1761 0.931 . S
H1748 C1763 0.930 . S
C1749 H1737 0.930 . S
C1749 C1750 1.399 . S
C1749 C1754 1.399 . S
C1750 C1749 1.399 . S
C1750 C1751 1.376 . S
C1751 H1738 0.930 . S
C1751 C1750 1.376 . S
C1751 C1752 1.388 . S
C1752 H1739 0.930 . S
C1752 C1751 1.388 . S
C1752 C1753 1.390 . S
C1753 C1752 1.390 . S
C1753 C1754 1.394 . S
C1753 C1759 1.465 . S
C1754 C1749 1.399 . S
C1754 C1753 1.394 . S
C1754 C1755 1.516 . S
C1755 C1754 1.516 . S
C1755 C1756 1.502 . S
C1755 C1757 1.561 . S
C1755 C1758 1.526 . S
C1756 H1740 0.959 . S
C1756 H1741 0.959 . S
C1756 H1742 0.961 . S
C1756 C1755 1.502 . S
C1757 H1743 0.960 . S
C1757 H1744 0.961 . S
C1757 H1745 0.959 . S
C1757 C1755 1.561 . S
C1758 C1755 1.526 . S
C1758 C1759 1.396 . S
C1758 C1763 1.390 . S
C1759 C1753 1.465 . S
C1759 C1758 1.396 . S
C1759 C1760 1.399 . S
C1760 H1746 0.929 . S
C1760 C1759 1.399 . S
C1760 C1761 1.385 . S
C1761 H1747 0.931 . S
C1761 C1760 1.385 . S
C1761 C1762 1.389 . S
C1762 C1761 1.389 . S
C1762 C1763 1.387 . S
C1763 H1748 0.930 . S
C1763 C1758 1.390 . S
C1763 C1762 1.387 . S
H1764 C1776 0.930 . S
H1765 C1778 0.930 . S
H1766 C1779 0.930 . S
H1767 C1783 0.959 . S
H1768 C1783 0.959 . S
H1769 C1783 0.961 . S
H1770 C1784 0.960 . S
H1771 C1784 0.961 . S
H1772 C1784 0.959 . S
H1773 C1787 0.929 . S
H1774 C1788 0.931 . S
H1775 C1790 0.930 . S
C1776 H1764 0.930 . S
C1776 C1777 1.399 . S
C1776 C1781 1.399 . S
C1777 C1776 1.399 . S
C1777 C1778 1.376 . S
C1778 H1765 0.930 . S
C1778 C1777 1.376 . S
C1778 C1779 1.388 . S
C1779 H1766 0.930 . S
C1779 C1778 1.388 . S
C1779 C1780 1.390 . S
C1780 C1779 1.390 . S
C1780 C1781 1.394 . S
C1780 C1786 1.465 . S
C1781 C1776 1.399 . S
C1781 C1780 1.394 . S
C1781 C1782 1.516 . S
C1782 C1781 1.516 . S
C1782 C1783 1.502 . S
C1782 C1784 1.561 . S
C1782 C1785 1.526 . S
C1783 H1767 0.959 . S
C1783 H1768 0.959 . S
C1783 H1769 0.961 . S
C1783 C1782 1.502 . S
C1784 H1770 0.960 . S
C1784 H1771 0.961 . S
C1784 H1772 0.959 . S
C1784 C1782 1.561 . S
C1785 C1782 1.526 . S
C1785 C1786 1.396 . S
C1785 C1790 1.390 . S
C1786 C1780 1.465 . S
C1786 C1785 1.396 . S
C1786 C1787 1.399 . S
C1787 H1773 0.929 . S
C1787 C1786 1.399 . S
C1787 C1788 1.385 . S
C1788 H1774 0.931 . S
C1788 C1787 1.385 . S
C1788 C1789 1.389 . S
C1789 C1788 1.389 . S
C1789 C1790 1.387 . S
C1790 H1775 0.930 . S
C1790 C1785 1.390 . S
C1790 C1789 1.387 . S
H1791 C1803 0.930 . S
H1792 C1805 0.930 . S
H1793 C1806 0.930 . S
H1794 C1810 0.959 . S
H1795 C1810 0.959 . S
H1796 C1810 0.961 . S
H1797 C1811 0.960 . S
H1798 C1811 0.961 . S
H1799 C1811 0.959 . S
H1800 C1814 0.929 . S
H1801 C1815 0.931 . S
H1802 C1817 0.930 . S
C1803 H1791 0.930 . S
C1803 C1804 1.399 . S
C1803 C1808 1.399 . S
C1804 C1803 1.399 . S
C1804 C1805 1.376 . S
C1805 H1792 0.930 . S
C1805 C1804 1.376 . S
C1805 C1806 1.388 . S
C1806 H1793 0.930 . S
C1806 C1805 1.388 . S
C1806 C1807 1.390 . S
C1807 C1806 1.390 . S
C1807 C1808 1.394 . S
C1807 C1813 1.465 . S
C1808 C1803 1.399 . S
C1808 C1807 1.394 . S
C1808 C1809 1.516 . S
C1809 C1808 1.516 . S
C1809 C1810 1.502 . S
C1809 C1811 1.561 . S
C1809 C1812 1.526 . S
C1810 H1794 0.959 . S
C1810 H1795 0.959 . S
C1810 H1796 0.961 . S
C1810 C1809 1.502 . S
C1811 H1797 0.960 . S
C1811 H1798 0.961 . S
C1811 H1799 0.959 . S
C1811 C1809 1.561 . S
C1812 C1809 1.526 . S
C1812 C1813 1.396 . S
C1812 C1817 1.390 . S
C1813 C1807 1.465 . S
C1813 C1812 1.396 . S
C1813 C1814 1.399 . S
C1814 H1800 0.929 . S
C1814 C1813 1.399 . S
C1814 C1815 1.385 . S
C1815 H1801 0.931 . S
C1815 C1814 1.385 . S
C1815 C1816 1.389 . S
C1816 C1815 1.389 . S
C1816 C1817 1.387 . S
C1817 H1802 0.930 . S
C1817 C1812 1.390 . S
C1817 C1816 1.387 . S
H1818 C1830 0.930 . S
H1819 C1832 0.930 . S
H1820 C1833 0.930 . S
H1821 C1837 0.959 . S
H1822 C1837 0.959 . S
H1823 C1837 0.961 . S
H1824 C1838 0.960 . S
H1825 C1838 0.961 . S
H1826 C1838 0.959 . S
H1827 C1841 0.929 . S
H1828 C1842 0.931 . S
H1829 C1844 0.930 . S
C1830 H1818 0.930 . S
C1830 C1831 1.399 . S
C1830 C1835 1.399 . S
C1831 C1830 1.399 . S
C1831 C1832 1.376 . S
C1832 H1819 0.930 . S
C1832 C1831 1.376 . S
C1832 C1833 1.388 . S
C1833 H1820 0.930 . S
C1833 C1832 1.388 . S
C1833 C1834 1.390 . S
C1834 C1833 1.390 . S
C1834 C1835 1.394 . S
C1834 C1840 1.465 . S
C1835 C1830 1.399 . S
C1835 C1834 1.394 . S
C1835 C1836 1.516 . S
C1836 C1835 1.516 . S
C1836 C1837 1.502 . S
C1836 C1838 1.561 . S
C1836 C1839 1.526 . S
C1837 H1821 0.959 . S
C1837 H1822 0.959 . S
C1837 H1823 0.961 . S
C1837 C1836 1.502 . S
C1838 H1824 0.960 . S
C1838 H1825 0.961 . S
C1838 H1826 0.959 . S
C1838 C1836 1.561 . S
C1839 C1836 1.526 . S
C1839 C1840 1.396 . S
C1839 C1844 1.390 . S
C1840 C1834 1.465 . S
C1840 C1839 1.396 . S
C1840 C1841 1.399 . S
C1841 H1827 0.929 . S
C1841 C1840 1.399 . S
C1841 C1842 1.385 . S
C1842 H1828 0.931 . S
C1842 C1841 1.385 . S
C1842 C1843 1.389 . S
C1843 C1842 1.389 . S
C1843 C1844 1.387 . S
C1844 H1829 0.930 . S
C1844 C1839 1.390 . S
C1844 C1843 1.387 . S
H1845 C1857 0.930 . S
H1846 C1859 0.930 . S
H1847 C1860 0.930 . S
H1848 C1864 0.959 . S
H1849 C1864 0.959 . S
H1850 C1864 0.961 . S
H1851 C1865 0.960 . S
H1852 C1865 0.961 . S
H1853 C1865 0.959 . S
H1854 C1868 0.929 . S
H1855 C1869 0.931 . S
H1856 C1871 0.930 . S
C1857 H1845 0.930 . S
C1857 C1858 1.399 . S
C1857 C1862 1.399 . S
C1858 C1857 1.399 . S
C1858 C1859 1.376 . S
C1859 H1846 0.930 . S
C1859 C1858 1.376 . S
C1859 C1860 1.388 . S
C1860 H1847 0.930 . S
C1860 C1859 1.388 . S
C1860 C1861 1.390 . S
C1861 C1860 1.390 . S
C1861 C1862 1.394 . S
C1861 C1867 1.465 . S
C1862 C1857 1.399 . S
C1862 C1861 1.394 . S
C1862 C1863 1.516 . S
C1863 C1862 1.516 . S
C1863 C1864 1.502 . S
C1863 C1865 1.561 . S
C1863 C1866 1.526 . S
C1864 H1848 0.959 . S
C1864 H1849 0.959 . S
C1864 H1850 0.961 . S
C1864 C1863 1.502 . S
C1865 H1851 0.960 . S
C1865 H1852 0.961 . S
C1865 H1853 0.959 . S
C1865 C1863 1.561 . S
C1866 C1863 1.526 . S
C1866 C1867 1.396 . S
C1866 C1871 1.390 . S
C1867 C1861 1.465 . S
C1867 C1866 1.396 . S
C1867 C1868 1.399 . S
C1868 H1854 0.929 . S
C1868 C1867 1.399 . S
C1868 C1869 1.385 . S
C1869 H1855 0.931 . S
C1869 C1868 1.385 . S
C1869 C1870 1.389 . S
C1870 C1869 1.389 . S
C1870 C1871 1.387 . S
C1871 H1856 0.930 . S
C1871 C1866 1.390 . S
C1871 C1870 1.387 . S
H1872 C1884 0.930 . S
H1873 C1886 0.930 . S
H1874 C1887 0.930 . S
H1875 C1891 0.959 . S
H1876 C1891 0.959 . S
H1877 C1891 0.961 . S
H1878 C1892 0.960 . S
H1879 C1892 0.961 . S
H1880 C1892 0.959 . S
H1881 C1895 0.929 . S
H1882 C1896 0.931 . S
H1883 C1898 0.930 . S
C1884 H1872 0.930 . S
C1884 C1885 1.399 . S
C1884 C1889 1.399 . S
C1885 C1884 1.399 . S
C1885 C1886 1.376 . S
C1886 H1873 0.930 . S
C1886 C1885 1.376 . S
C1886 C1887 1.388 . S
C1887 H1874 0.930 . S
C1887 C1886 1.388 . S
C1887 C1888 1.390 . S
C1888 C1887 1.390 . S
C1888 C1889 1.394 . S
C1888 C1894 1.465 . S
C1889 C1884 1.399 . S
C1889 C1888 1.394 . S
C1889 C1890 1.516 . S
C1890 C1889 1.516 . S
C1890 C1891 1.502 . S
C1890 C1892 1.561 . S
C1890 C1893 1.526 . S
C1891 H1875 0.959 . S
C1891 H1876 0.959 . S
C1891 H1877 0.961 . S
C1891 C1890 1.502 . S
C1892 H1878 0.960 . S
C1892 H1879 0.961 . S
C1892 H1880 0.959 . S
C1892 C1890 1.561 . S
C1893 C1890 1.526 . S
C1893 C1894 1.396 . S
C1893 C1898 1.390 . S
C1894 C1888 1.465 . S
C1894 C1893 1.396 . S
C1894 C1895 1.399 . S
C1895 H1881 0.929 . S
C1895 C1894 1.399 . S
C1895 C1896 1.385 . S
C1896 H1882 0.931 . S
C1896 C1895 1.385 . S
C1896 C1897 1.389 . S
C1897 C1896 1.389 . S
C1897 C1898 1.387 . S
C1898 H1883 0.930 . S
C1898 C1893 1.390 . S
C1898 C1897 1.387 . S
H1899 C1911 0.930 . S
H1900 C1913 0.930 . S
H1901 C1914 0.930 . S
H1902 C1918 0.959 . S
H1903 C1918 0.959 . S
H1904 C1918 0.961 . S
H1905 C1919 0.960 . S
H1906 C1919 0.961 . S
H1907 C1919 0.959 . S
H1908 C1922 0.929 . S
H1909 C1923 0.931 . S
H1910 C1925 0.930 . S
C1911 H1899 0.930 . S
C1911 C1912 1.399 . S
C1911 C1916 1.399 . S
C1912 C1911 1.399 . S
C1912 C1913 1.376 . S
C1913 H1900 0.930 . S
C1913 C1912 1.376 . S
C1913 C1914 1.388 . S
C1914 H1901 0.930 . S
C1914 C1913 1.388 . S
C1914 C1915 1.390 . S
C1915 C1914 1.390 . S
C1915 C1916 1.394 . S
C1915 C1921 1.465 . S
C1916 C1911 1.399 . S
C1916 C1915 1.394 . S
C1916 C1917 1.516 . S
C1917 C1916 1.516 . S
C1917 C1918 1.502 . S
C1917 C1919 1.561 . S
C1917 C1920 1.526 . S
C1918 H1902 0.959 . S
C1918 H1903 0.959 . S
C1918 H1904 0.961 . S
C1918 C1917 1.502 . S
C1919 H1905 0.960 . S
C1919 H1906 0.961 . S
C1919 H1907 0.959 . S
C1919 C1917 1.561 . S
C1920 C1917 1.526 . S
C1920 C1921 1.396 . S
C1920 C1925 1.390 . S
C1921 C1915 1.465 . S
C1921 C1920 1.396 . S
C1921 C1922 1.399 . S
C1922 H1908 0.929 . S
C1922 C1921 1.399 . S
C1922 C1923 1.385 . S
C1923 H1909 0.931 . S
C1923 C1922 1.385 . S
C1923 C1924 1.389 . S
C1924 C1923 1.389 . S
C1924 C1925 1.387 . S
C1925 H1910 0.930 . S
C1925 C1920 1.390 . S
C1925 C1924 1.387 . S
H1926 C1938 0.930 . S
H1927 C1940 0.930 . S
H1928 C1941 0.930 . S
H1929 C1945 0.959 . S
H1930 C1945 0.959 . S
H1931 C1945 0.961 . S
H1932 C1946 0.960 . S
H1933 C1946 0.961 . S
H1934 C1946 0.959 . S
H1935 C1949 0.929 . S
H1936 C1950 0.931 . S
H1937 C1952 0.930 . S
C1938 H1926 0.930 . S
C1938 C1939 1.399 . S
C1938 C1943 1.399 . S
C1939 C1938 1.399 . S
C1939 C1940 1.376 . S
C1940 H1927 0.930 . S
C1940 C1939 1.376 . S
C1940 C1941 1.388 . S
C1941 H1928 0.930 . S
C1941 C1940 1.388 . S
C1941 C1942 1.390 . S
C1942 C1941 1.390 . S
C1942 C1943 1.394 . S
C1942 C1948 1.465 . S
C1943 C1938 1.399 . S
C1943 C1942 1.394 . S
C1943 C1944 1.516 . S
C1944 C1943 1.516 . S
C1944 C1945 1.502 . S
C1944 C1946 1.561 . S
C1944 C1947 1.526 . S
C1945 H1929 0.959 . S
C1945 H1930 0.959 . S
C1945 H1931 0.961 . S
C1945 C1944 1.502 . S
C1946 H1932 0.960 . S
C1946 H1933 0.961 . S
C1946 H1934 0.959 . S
C1946 C1944 1.561 . S
C1947 C1944 1.526 . S
C1947 C1948 1.396 . S
C1947 C1952 1.390 . S
C1948 C1942 1.465 . S
C1948 C1947 1.396 . S
C1948 C1949 1.399 . S
C1949 H1935 0.929 . S
C1949 C1948 1.399 . S
C1949 C1950 1.385 . S
C1950 H1936 0.931 . S
C1950 C1949 1.385 . S
C1950 C1951 1.389 . S
C1951 C1950 1.389 . S
C1951 C1952 1.387 . S
C1952 H1937 0.930 . S
C1952 C1947 1.390 . S
C1952 C1951 1.387 . S
H1953 C1965 0.930 . S
H1954 C1967 0.930 . S
H1955 C1968 0.930 . S
H1956 C1972 0.959 . S
H1957 C1972 0.959 . S
H1958 C1972 0.961 . S
H1959 C1973 0.960 . S
H1960 C1973 0.961 . S
H1961 C1973 0.959 . S
H1962 C1976 0.929 . S
H1963 C1977 0.931 . S
H1964 C1979 0.930 . S
C1965 H1953 0.930 . S
C1965 C1966 1.399 . S
C1965 C1970 1.399 . S
C1966 C1965 1.399 . S
C1966 C1967 1.376 . S
C1967 H1954 0.930 . S
C1967 C1966 1.376 . S
C1967 C1968 1.388 . S
C1968 H1955 0.930 . S
C1968 C1967 1.388 . S
C1968 C1969 1.390 . S
C1969 C1968 1.390 . S
C1969 C1970 1.394 . S
C1969 C1975 1.465 . S
C1970 C1965 1.399 . S
C1970 C1969 1.394 . S
C1970 C1971 1.516 . S
C1971 C1970 1.516 . S
C1971 C1972 1.502 . S
C1971 C1973 1.561 . S
C1971 C1974 1.526 . S
C1972 H1956 0.959 . S
C1972 H1957 0.959 . S
C1972 H1958 0.961 . S
C1972 C1971 1.502 . S
C1973 H1959 0.960 . S
C1973 H1960 0.961 . S
C1973 H1961 0.959 . S
C1973 C1971 1.561 . S
C1974 C1971 1.526 . S
C1974 C1975 1.396 . S
C1974 C1979 1.390 . S
C1975 C1969 1.465 . S
C1975 C1974 1.396 . S
C1975 C1976 1.399 . S
C1976 H1962 0.929 . S
C1976 C1975 1.399 . S
C1976 C1977 1.385 . S
C1977 H1963 0.931 . S
C1977 C1976 1.385 . S
C1977 C1978 1.389 . S
C1978 C1977 1.389 . S
C1978 C1979 1.387 . S
C1979 H1964 0.930 . S
C1979 C1974 1.390 . S
C1979 C1978 1.387 . S
H1980 C1992 0.930 . S
H1981 C1994 0.930 . S
H1982 C1995 0.930 . S
H1983 C1999 0.959 . S
H1984 C1999 0.959 . S
H1985 C1999 0.961 . S
H1986 C2000 0.960 . S
H1987 C2000 0.961 . S
H1988 C2000 0.959 . S
H1989 C2003 0.929 . S
H1990 C2004 0.931 . S
H1991 C2006 0.930 . S
C1992 H1980 0.930 . S
C1992 C1993 1.399 . S
C1992 C1997 1.399 . S
C1993 C1992 1.399 . S
C1993 C1994 1.376 . S
C1994 H1981 0.930 . S
C1994 C1993 1.376 . S
C1994 C1995 1.388 . S
C1995 H1982 0.930 . S
C1995 C1994 1.388 . S
C1995 C1996 1.390 . S
C1996 C1995 1.390 . S
C1996 C1997 1.394 . S
C1996 C2002 1.465 . S
C1997 C1992 1.399 . S
C1997 C1996 1.394 . S
C1997 C1998 1.516 . S
C1998 C1997 1.516 . S
C1998 C1999 1.502 . S
C1998 C2000 1.561 . S
C1998 C2001 1.526 . S
C1999 H1983 0.959 . S
C1999 H1984 0.959 . S
C1999 H1985 0.961 . S
C1999 C1998 1.502 . S
C2000 H1986 0.960 . S
C2000 H1987 0.961 . S
C2000 H1988 0.959 . S
C2000 C1998 1.561 . S
C2001 C1998 1.526 . S
C2001 C2002 1.396 . S
C2001 C2006 1.390 . S
C2002 C1996 1.465 . S
C2002 C2001 1.396 . S
C2002 C2003 1.399 . S
C2003 H1989 0.929 . S
C2003 C2002 1.399 . S
C2003 C2004 1.385 . S
C2004 H1990 0.931 . S
C2004 C2003 1.385 . S
C2004 C2005 1.389 . S
C2005 C2004 1.389 . S
C2005 C2006 1.387 . S
C2006 H1991 0.930 . S
C2006 C2001 1.390 . S
C2006 C2005 1.387 . S
H2007 C2019 0.930 . S
H2008 C2021 0.930 . S
H2009 C2022 0.930 . S
H2010 C2026 0.959 . S
H2011 C2026 0.959 . S
H2012 C2026 0.961 . S
H2013 C2027 0.960 . S
H2014 C2027 0.961 . S
H2015 C2027 0.959 . S
H2016 C2030 0.929 . S
H2017 C2031 0.931 . S
H2018 C2033 0.930 . S
C2019 H2007 0.930 . S
C2019 C2020 1.399 . S
C2019 C2024 1.399 . S
C2020 C2019 1.399 . S
C2020 C2021 1.376 . S
C2021 H2008 0.930 . S
C2021 C2020 1.376 . S
C2021 C2022 1.388 . S
C2022 H2009 0.930 . S
C2022 C2021 1.388 . S
C2022 C2023 1.390 . S
C2023 C2022 1.390 . S
C2023 C2024 1.394 . S
C2023 C2029 1.465 . S
C2024 C2019 1.399 . S
C2024 C2023 1.394 . S
C2024 C2025 1.516 . S
C2025 C2024 1.516 . S
C2025 C2026 1.502 . S
C2025 C2027 1.561 . S
C2025 C2028 1.526 . S
C2026 H2010 0.959 . S
C2026 H2011 0.959 . S
C2026 H2012 0.961 . S
C2026 C2025 1.502 . S
C2027 H2013 0.960 . S
C2027 H2014 0.961 . S
C2027 H2015 0.959 . S
C2027 C2025 1.561 . S
C2028 C2025 1.526 . S
C2028 C2029 1.396 . S
C2028 C2033 1.390 . S
C2029 C2023 1.465 . S
C2029 C2028 1.396 . S
C2029 C2030 1.399 . S
C2030 H2016 0.929 . S
C2030 C2029 1.399 . S
C2030 C2031 1.385 . S
C2031 H2017 0.931 . S
C2031 C2030 1.385 . S
C2031 C2032 1.389 . S
C2032 C2031 1.389 . S
C2032 C2033 1.387 . S
C2033 H2018 0.930 . S
C2033 C2028 1.390 . S
C2033 C2032 1.387 . S
H2034 C2046 0.930 . S
H2035 C2048 0.930 . S
H2036 C2049 0.930 . S
H2037 C2053 0.959 . S
H2038 C2053 0.959 . S
H2039 C2053 0.961 . S
H2040 C2054 0.960 . S
H2041 C2054 0.961 . S
H2042 C2054 0.959 . S
H2043 C2057 0.929 . S
H2044 C2058 0.931 . S
H2045 C2060 0.930 . S
C2046 H2034 0.930 . S
C2046 C2047 1.399 . S
C2046 C2051 1.399 . S
C2047 C2046 1.399 . S
C2047 C2048 1.376 . S
C2048 H2035 0.930 . S
C2048 C2047 1.376 . S
C2048 C2049 1.388 . S
C2049 H2036 0.930 . S
C2049 C2048 1.388 . S
C2049 C2050 1.390 . S
C2050 C2049 1.390 . S
C2050 C2051 1.394 . S
C2050 C2056 1.465 . S
C2051 C2046 1.399 . S
C2051 C2050 1.394 . S
C2051 C2052 1.516 . S
C2052 C2051 1.516 . S
C2052 C2053 1.502 . S
C2052 C2054 1.561 . S
C2052 C2055 1.526 . S
C2053 H2037 0.959 . S
C2053 H2038 0.959 . S
C2053 H2039 0.961 . S
C2053 C2052 1.502 . S
C2054 H2040 0.960 . S
C2054 H2041 0.961 . S
C2054 H2042 0.959 . S
C2054 C2052 1.561 . S
C2055 C2052 1.526 . S
C2055 C2056 1.396 . S
C2055 C2060 1.390 . S
C2056 C2050 1.465 . S
C2056 C2055 1.396 . S
C2056 C2057 1.399 . S
C2057 H2043 0.929 . S
C2057 C2056 1.399 . S
C2057 C2058 1.385 . S
C2058 H2044 0.931 . S
C2058 C2057 1.385 . S
C2058 C2059 1.389 . S
C2059 C2058 1.389 . S
C2059 C2060 1.387 . S
C2060 H2045 0.930 . S
C2060 C2055 1.390 . S
C2060 C2059 1.387 . S
H2061 C2073 0.930 . S
H2062 C2075 0.930 . S
H2063 C2076 0.930 . S
H2064 C2080 0.959 . S
H2065 C2080 0.959 . S
H2066 C2080 0.961 . S
H2067 C2081 0.960 . S
H2068 C2081 0.961 . S
H2069 C2081 0.959 . S
H2070 C2084 0.929 . S
H2071 C2085 0.931 . S
H2072 C2087 0.930 . S
C2073 H2061 0.930 . S
C2073 C2074 1.399 . S
C2073 C2078 1.399 . S
C2074 C2073 1.399 . S
C2074 C2075 1.376 . S
C2075 H2062 0.930 . S
C2075 C2074 1.376 . S
C2075 C2076 1.388 . S
C2076 H2063 0.930 . S
C2076 C2075 1.388 . S
C2076 C2077 1.390 . S
C2077 C2076 1.390 . S
C2077 C2078 1.394 . S
C2077 C2083 1.465 . S
C2078 C2073 1.399 . S
C2078 C2077 1.394 . S
C2078 C2079 1.516 . S
C2079 C2078 1.516 . S
C2079 C2080 1.502 . S
C2079 C2081 1.561 . S
C2079 C2082 1.526 . S
C2080 H2064 0.959 . S
C2080 H2065 0.959 . S
C2080 H2066 0.961 . S
C2080 C2079 1.502 . S
C2081 H2067 0.960 . S
C2081 H2068 0.961 . S
C2081 H2069 0.959 . S
C2081 C2079 1.561 . S
C2082 C2079 1.526 . S
C2082 C2083 1.396 . S
C2082 C2087 1.390 . S
C2083 C2077 1.465 . S
C2083 C2082 1.396 . S
C2083 C2084 1.399 . S
C2084 H2070 0.929 . S
C2084 C2083 1.399 . S
C2084 C2085 1.385 . S
C2085 H2071 0.931 . S
C2085 C2084 1.385 . S
C2085 C2086 1.389 . S
C2086 C2085 1.389 . S
C2086 C2087 1.387 . S
C2087 H2072 0.930 . S
C2087 C2082 1.390 . S
C2087 C2086 1.387 . S
H2088 C2100 0.930 . S
H2089 C2102 0.930 . S
H2090 C2103 0.930 . S
H2091 C2107 0.959 . S
H2092 C2107 0.959 . S
H2093 C2107 0.961 . S
H2094 C2108 0.960 . S
H2095 C2108 0.961 . S
H2096 C2108 0.959 . S
H2097 C2111 0.929 . S
H2098 C2112 0.931 . S
H2099 C2114 0.930 . S
C2100 H2088 0.930 . S
C2100 C2101 1.399 . S
C2100 C2105 1.399 . S
C2101 C2100 1.399 . S
C2101 C2102 1.376 . S
C2102 H2089 0.930 . S
C2102 C2101 1.376 . S
C2102 C2103 1.388 . S
C2103 H2090 0.930 . S
C2103 C2102 1.388 . S
C2103 C2104 1.390 . S
C2104 C2103 1.390 . S
C2104 C2105 1.394 . S
C2104 C2110 1.465 . S
C2105 C2100 1.399 . S
C2105 C2104 1.394 . S
C2105 C2106 1.516 . S
C2106 C2105 1.516 . S
C2106 C2107 1.502 . S
C2106 C2108 1.561 . S
C2106 C2109 1.526 . S
C2107 H2091 0.959 . S
C2107 H2092 0.959 . S
C2107 H2093 0.961 . S
C2107 C2106 1.502 . S
C2108 H2094 0.960 . S
C2108 H2095 0.961 . S
C2108 H2096 0.959 . S
C2108 C2106 1.561 . S
C2109 C2106 1.526 . S
C2109 C2110 1.396 . S
C2109 C2114 1.390 . S
C2110 C2104 1.465 . S
C2110 C2109 1.396 . S
C2110 C2111 1.399 . S
C2111 H2097 0.929 . S
C2111 C2110 1.399 . S
C2111 C2112 1.385 . S
C2112 H2098 0.931 . S
C2112 C2111 1.385 . S
C2112 C2113 1.389 . S
C2113 C2112 1.389 . S
C2113 C2114 1.387 . S
C2114 H2099 0.930 . S
C2114 C2109 1.390 . S
C2114 C2113 1.387 . S
H2115 C2127 0.930 . S
H2116 C2129 0.930 1_554 S
H2117 C2130 0.930 . S
H2118 C2134 0.959 . S
H2119 C2134 0.959 . S
H2120 C2134 0.961 . S
H2121 C2135 0.960 . S
H2122 C2135 0.961 . S
H2123 C2135 0.959 . S
H2124 C2138 0.929 . S
H2125 C2139 0.931 . S
H2126 C2141 0.930 . S
C2127 H2115 0.930 . S
C2127 C2128 1.399 . S
C2127 C2132 1.399 . S
C2128 C2127 1.399 . S
C2128 C2129 1.376 . S
C2129 H2116 0.930 1_556 S
C2129 C2128 1.376 . S
C2129 C2130 1.388 . S
C2130 H2117 0.930 . S
C2130 C2129 1.388 . S
C2130 C2131 1.390 . S
C2131 C2130 1.390 . S
C2131 C2132 1.394 . S
C2131 C2137 1.465 . S
C2132 C2127 1.399 . S
C2132 C2131 1.394 . S
C2132 C2133 1.516 . S
C2133 C2132 1.516 . S
C2133 C2134 1.502 . S
C2133 C2135 1.561 . S
C2133 C2136 1.526 . S
C2134 H2118 0.959 . S
C2134 H2119 0.959 . S
C2134 H2120 0.961 . S
C2134 C2133 1.502 . S
C2135 H2121 0.960 . S
C2135 H2122 0.961 . S
C2135 H2123 0.959 . S
C2135 C2133 1.561 . S
C2136 C2133 1.526 . S
C2136 C2137 1.396 . S
C2136 C2141 1.390 . S
C2137 C2131 1.465 . S
C2137 C2136 1.396 . S
C2137 C2138 1.399 . S
C2138 H2124 0.929 . S
C2138 C2137 1.399 . S
C2138 C2139 1.385 . S
C2139 H2125 0.931 . S
C2139 C2138 1.385 . S
C2139 C2140 1.389 . S
C2140 C2139 1.389 . S
C2140 C2141 1.387 . S
C2141 H2126 0.930 . S
C2141 C2136 1.390 . S
C2141 C2140 1.387 . S
H2142 C2154 0.930 . S
H2143 C2156 0.930 . S
H2144 C2157 0.930 1_554 S
H2145 C2161 0.959 . S
H2146 C2161 0.959 . S
H2147 C2161 0.961 . S
H2148 C2162 0.960 . S
H2149 C2162 0.961 . S
H2150 C2162 0.959 . S
H2151 C2165 0.929 . S
H2152 C2166 0.931 . S
H2153 C2168 0.930 . S
C2154 H2142 0.930 . S
C2154 C2155 1.399 . S
C2154 C2159 1.399 . S
C2155 C2154 1.399 . S
C2155 C2156 1.376 1_556 S
C2156 H2143 0.930 . S
C2156 C2155 1.376 1_554 S
C2156 C2157 1.388 1_554 S
C2157 H2144 0.930 1_556 S
C2157 C2156 1.388 1_556 S
C2157 C2158 1.390 . S
C2158 C2157 1.390 . S
C2158 C2159 1.394 . S
C2158 C2164 1.465 . S
C2159 C2154 1.399 . S
C2159 C2158 1.394 . S
C2159 C2160 1.516 . S
C2160 C2159 1.516 . S
C2160 C2161 1.502 . S
C2160 C2162 1.561 . S
C2160 C2163 1.526 . S
C2161 H2145 0.959 . S
C2161 H2146 0.959 . S
C2161 H2147 0.961 . S
C2161 C2160 1.502 . S
C2162 H2148 0.960 . S
C2162 H2149 0.961 . S
C2162 H2150 0.959 . S
C2162 C2160 1.561 . S
C2163 C2160 1.526 . S
C2163 C2164 1.396 . S
C2163 C2168 1.390 . S
C2164 C2158 1.465 . S
C2164 C2163 1.396 . S
C2164 C2165 1.399 . S
C2165 H2151 0.929 . S
C2165 C2164 1.399 . S
C2165 C2166 1.385 . S
C2166 H2152 0.931 . S
C2166 C2165 1.385 . S
C2166 C2167 1.389 . S
C2167 C2166 1.389 . S
C2167 C2168 1.387 . S
C2168 H2153 0.930 . S
C2168 C2163 1.390 . S
C2168 C2167 1.387 . S
H2169 C2181 0.930 . S
H2170 C2183 0.922 1_554 S
H2171 C2184 0.930 1_554 S
H2172 C2188 0.959 . S
H2173 C2188 0.959 . S
H2174 C2188 0.961 . S
H2175 C2189 0.960 . S
H2176 C2189 0.961 . S
H2177 C2189 0.959 . S
H2178 C2192 0.929 . S
H2179 C2193 0.931 . S
H2180 C2195 0.930 . S
C2181 H2169 0.930 . S
C2181 C2182 1.399 . S
C2181 C2186 1.399 . S
C2182 C2181 1.399 . S
C2182 C2183 1.383 . S
C2183 H2170 0.922 1_556 S
C2183 C2182 1.383 . S
C2183 C2184 1.391 . S
C2184 H2171 0.930 1_556 S
C2184 C2183 1.391 . S
C2184 C2185 1.390 . S
C2185 C2184 1.390 . S
C2185 C2186 1.394 . S
C2185 C2191 1.465 . S
C2186 C2181 1.399 . S
C2186 C2185 1.394 . S
C2186 C2187 1.516 . S
C2187 C2186 1.516 . S
C2187 C2188 1.502 . S
C2187 C2189 1.561 . S
C2187 C2190 1.526 . S
C2188 H2172 0.959 . S
C2188 H2173 0.959 . S
C2188 H2174 0.961 . S
C2188 C2187 1.502 . S
C2189 H2175 0.960 . S
C2189 H2176 0.961 . S
C2189 H2177 0.959 . S
C2189 C2187 1.561 . S
C2190 C2187 1.526 . S
C2190 C2191 1.396 . S
C2190 C2195 1.390 . S
C2191 C2185 1.465 . S
C2191 C2190 1.396 . S
C2191 C2192 1.399 . S
C2192 H2178 0.929 . S
C2192 C2191 1.399 . S
C2192 C2193 1.385 . S
C2193 H2179 0.931 . S
C2193 C2192 1.385 . S
C2193 C2194 1.389 . S
C2194 C2193 1.389 . S
C2194 C2195 1.387 . S
C2195 H2180 0.930 . S
C2195 C2190 1.390 . S
C2195 C2194 1.387 . S
H2196 C2208 0.930 . S
H2197 C2210 0.930 . S
H2198 C2211 0.930 . S
H2199 C2215 0.959 . S
H2200 C2215 0.959 . S
H2201 C2215 0.961 . S
H2202 C2216 0.960 . S
H2203 C2216 0.961 . S
H2204 C2216 0.959 . S
H2205 C2219 0.929 . S
H2206 C2220 0.931 . S
H2207 C2222 0.930 . S
C2208 H2196 0.930 . S
C2208 C2209 1.399 . S
C2208 C2213 1.399 . S
C2209 C2208 1.399 . S
C2209 C2210 1.376 . S
C2210 H2197 0.930 . S
C2210 C2209 1.376 . S
C2210 C2211 1.388 . S
C2211 H2198 0.930 . S
C2211 C2210 1.388 . S
C2211 C2212 1.390 . S
C2212 C2211 1.390 . S
C2212 C2213 1.394 . S
C2212 C2218 1.465 . S
C2213 C2208 1.399 . S
C2213 C2212 1.394 . S
C2213 C2214 1.516 . S
C2214 C2213 1.516 . S
C2214 C2215 1.502 . S
C2214 C2216 1.561 . S
C2214 C2217 1.526 . S
C2215 H2199 0.959 . S
C2215 H2200 0.959 . S
C2215 H2201 0.961 . S
C2215 C2214 1.502 . S
C2216 H2202 0.960 . S
C2216 H2203 0.961 . S
C2216 H2204 0.959 . S
C2216 C2214 1.561 . S
C2217 C2214 1.526 . S
C2217 C2218 1.396 . S
C2217 C2222 1.390 . S
C2218 C2212 1.465 . S
C2218 C2217 1.396 . S
C2218 C2219 1.399 . S
C2219 H2205 0.929 . S
C2219 C2218 1.399 . S
C2219 C2220 1.385 . S
C2220 H2206 0.931 . S
C2220 C2219 1.385 . S
C2220 C2221 1.389 . S
C2221 C2220 1.389 . S
C2221 C2222 1.387 . S
C2222 H2207 0.930 . S
C2222 C2217 1.390 . S
C2222 C2221 1.387 . S
H2223 C2235 0.930 1_554 S
H2224 C2237 0.930 . S
H2225 C2238 0.930 . S
H2226 C2242 0.959 . S
H2227 C2242 0.959 . S
H2228 C2242 0.961 1_554 S
H2229 C2243 0.960 1_554 S
H2230 C2243 0.961 . S
H2231 C2243 0.959 . S
H2232 C2246 0.929 . S
H2233 C2247 0.931 . S
H2234 C2249 0.930 . S
C2235 H2223 0.930 1_556 S
C2235 C2236 1.399 . S
C2235 C2240 1.399 . S
C2236 C2235 1.399 . S
C2236 C2237 1.376 . S
C2237 H2224 0.930 . S
C2237 C2236 1.376 . S
C2237 C2238 1.388 . S
C2238 H2225 0.930 . S
C2238 C2237 1.388 . S
C2238 C2239 1.390 . S
C2239 C2238 1.390 . S
C2239 C2240 1.394 . S
C2239 C2245 1.465 . S
C2240 C2235 1.399 . S
C2240 C2239 1.394 . S
C2240 C2241 1.516 . S
C2241 C2240 1.516 . S
C2241 C2242 1.502 . S
C2241 C2243 1.561 . S
C2241 C2244 1.526 . S
C2242 H2226 0.959 . S
C2242 H2227 0.959 . S
C2242 H2228 0.961 1_556 S
C2242 C2241 1.502 . S
C2243 H2229 0.960 1_556 S
C2243 H2230 0.961 . S
C2243 H2231 0.959 . S
C2243 C2241 1.561 . S
C2244 C2241 1.526 . S
C2244 C2245 1.396 . S
C2244 C2249 1.390 . S
C2245 C2239 1.465 . S
C2245 C2244 1.396 . S
C2245 C2246 1.399 . S
C2246 H2232 0.929 . S
C2246 C2245 1.399 . S
C2246 C2247 1.385 . S
C2247 H2233 0.931 . S
C2247 C2246 1.385 . S
C2247 C2248 1.389 . S
C2248 C2247 1.389 . S
C2248 C2249 1.387 . S
C2249 H2234 0.930 . S
C2249 C2244 1.390 . S
C2249 C2248 1.387 . S
H2250 C2262 0.930 . S
H2251 C2264 0.930 . S
H2252 C2265 0.930 . S
H2253 C2269 0.959 . S
H2254 C2269 0.959 . S
H2255 C2269 0.961 . S
H2256 C2270 0.960 . S
H2257 C2270 0.961 . S
H2258 C2270 0.959 . S
H2259 C2273 0.929 . S
H2260 C2274 0.931 . S
H2261 C2276 0.930 . S
C2262 H2250 0.930 . S
C2262 C2263 1.399 . S
C2262 C2267 1.399 . S
C2263 C2262 1.399 . S
C2263 C2264 1.376 . S
C2264 H2251 0.930 . S
C2264 C2263 1.376 . S
C2264 C2265 1.388 . S
C2265 H2252 0.930 . S
C2265 C2264 1.388 . S
C2265 C2266 1.390 . S
C2266 C2265 1.390 . S
C2266 C2267 1.394 . S
C2266 C2272 1.465 . S
C2267 C2262 1.399 . S
C2267 C2266 1.394 . S
C2267 C2268 1.516 . S
C2268 C2267 1.516 . S
C2268 C2269 1.502 . S
C2268 C2270 1.561 . S
C2268 C2271 1.526 . S
C2269 H2253 0.959 . S
C2269 H2254 0.959 . S
C2269 H2255 0.961 . S
C2269 C2268 1.502 . S
C2270 H2256 0.960 . S
C2270 H2257 0.961 . S
C2270 H2258 0.959 . S
C2270 C2268 1.561 . S
C2271 C2268 1.526 . S
C2271 C2272 1.396 . S
C2271 C2276 1.390 . S
C2272 C2266 1.465 . S
C2272 C2271 1.396 . S
C2272 C2273 1.399 . S
C2273 H2259 0.929 . S
C2273 C2272 1.399 . S
C2273 C2274 1.385 . S
C2274 H2260 0.931 . S
C2274 C2273 1.385 . S
C2274 C2275 1.389 . S
C2275 C2274 1.389 . S
C2275 C2276 1.387 . S
C2276 H2261 0.930 . S
C2276 C2271 1.390 . S
C2276 C2275 1.387 . S
H2277 C2289 0.930 . S
H2278 C2291 0.930 . S
H2279 C2292 0.930 . S
H2280 C2296 0.959 . S
H2281 C2296 0.959 . S
H2282 C2296 0.961 . S
H2283 C2297 0.960 . S
H2284 C2297 0.961 . S
H2285 C2297 0.959 . S
H2286 C2300 0.929 . S
H2287 C2301 0.931 . S
H2288 C2303 0.930 . S
C2289 H2277 0.930 . S
C2289 C2290 1.399 . S
C2289 C2294 1.399 . S
C2290 C2289 1.399 . S
C2290 C2291 1.376 . S
C2291 H2278 0.930 . S
C2291 C2290 1.376 . S
C2291 C2292 1.388 . S
C2292 H2279 0.930 . S
C2292 C2291 1.388 . S
C2292 C2293 1.390 . S
C2293 C2292 1.390 . S
C2293 C2294 1.394 . S
C2293 C2299 1.465 . S
C2294 C2289 1.399 . S
C2294 C2293 1.394 . S
C2294 C2295 1.516 . S
C2295 C2294 1.516 . S
C2295 C2296 1.502 . S
C2295 C2297 1.561 . S
C2295 C2298 1.526 . S
C2296 H2280 0.959 . S
C2296 H2281 0.959 . S
C2296 H2282 0.961 . S
C2296 C2295 1.502 . S
C2297 H2283 0.960 . S
C2297 H2284 0.961 . S
C2297 H2285 0.959 . S
C2297 C2295 1.561 . S
C2298 C2295 1.526 . S
C2298 C2299 1.396 . S
C2298 C2303 1.390 . S
C2299 C2293 1.465 . S
C2299 C2298 1.396 . S
C2299 C2300 1.399 . S
C2300 H2286 0.929 . S
C2300 C2299 1.399 . S
C2300 C2301 1.385 . S
C2301 H2287 0.931 . S
C2301 C2300 1.385 . S
C2301 C2302 1.389 . S
C2302 C2301 1.389 . S
C2302 C2303 1.387 . S
C2303 H2288 0.930 . S
C2303 C2298 1.390 . S
C2303 C2302 1.387 . S
H2304 C2316 0.930 . S
H2305 C2318 0.930 . S
H2306 C2319 0.930 . S
H2307 C2323 0.959 . S
H2308 C2323 0.959 . S
H2309 C2323 0.961 . S
H2310 C2324 0.960 . S
H2311 C2324 0.961 . S
H2312 C2324 0.959 . S
H2313 C2327 0.929 . S
H2314 C2328 0.931 . S
H2315 C2330 0.930 . S
C2316 H2304 0.930 . S
C2316 C2317 1.399 . S
C2316 C2321 1.399 . S
C2317 C2316 1.399 . S
C2317 C2318 1.376 . S
C2318 H2305 0.930 . S
C2318 C2317 1.376 . S
C2318 C2319 1.388 . S
C2319 H2306 0.930 . S
C2319 C2318 1.388 . S
C2319 C2320 1.390 . S
C2320 C2319 1.390 . S
C2320 C2321 1.394 . S
C2320 C2326 1.465 . S
C2321 C2316 1.399 . S
C2321 C2320 1.394 . S
C2321 C2322 1.516 . S
C2322 C2321 1.516 . S
C2322 C2323 1.502 . S
C2322 C2324 1.561 . S
C2322 C2325 1.526 . S
C2323 H2307 0.959 . S
C2323 H2308 0.959 . S
C2323 H2309 0.961 . S
C2323 C2322 1.502 . S
C2324 H2310 0.960 . S
C2324 H2311 0.961 . S
C2324 H2312 0.959 . S
C2324 C2322 1.561 . S
C2325 C2322 1.526 . S
C2325 C2326 1.396 . S
C2325 C2330 1.390 . S
C2326 C2320 1.465 . S
C2326 C2325 1.396 . S
C2326 C2327 1.399 . S
C2327 H2313 0.929 . S
C2327 C2326 1.399 . S
C2327 C2328 1.385 . S
C2328 H2314 0.931 . S
C2328 C2327 1.385 . S
C2328 C2329 1.389 . S
C2329 C2328 1.389 . S
C2329 C2330 1.387 . S
C2330 H2315 0.930 . S
C2330 C2325 1.390 . S
C2330 C2329 1.387 . S
H2331 C2343 0.930 . S
H2332 C2345 0.930 . S
H2333 C2346 0.930 . S
H2334 C2350 0.959 . S
H2335 C2350 0.959 . S
H2336 C2350 0.961 . S
H2337 C2351 0.960 . S
H2338 C2351 0.961 . S
H2339 C2351 0.959 . S
H2340 C2354 0.929 . S
H2341 C2355 0.931 . S
H2342 C2357 0.930 . S
C2343 H2331 0.930 . S
C2343 C2344 1.399 . S
C2343 C2348 1.399 . S
C2344 C2343 1.399 . S
C2344 C2345 1.376 . S
C2345 H2332 0.930 . S
C2345 C2344 1.376 . S
C2345 C2346 1.388 . S
C2346 H2333 0.930 . S
C2346 C2345 1.388 . S
C2346 C2347 1.390 . S
C2347 C2346 1.390 . S
C2347 C2348 1.394 . S
C2347 C2353 1.465 . S
C2348 C2343 1.399 . S
C2348 C2347 1.394 . S
C2348 C2349 1.516 . S
C2349 C2348 1.516 . S
C2349 C2350 1.502 . S
C2349 C2351 1.561 . S
C2349 C2352 1.526 . S
C2350 H2334 0.959 . S
C2350 H2335 0.959 . S
C2350 H2336 0.961 . S
C2350 C2349 1.502 . S
C2351 H2337 0.960 . S
C2351 H2338 0.961 . S
C2351 H2339 0.959 . S
C2351 C2349 1.561 . S
C2352 C2349 1.526 . S
C2352 C2353 1.396 . S
C2352 C2357 1.390 . S
C2353 C2347 1.465 . S
C2353 C2352 1.396 . S
C2353 C2354 1.399 . S
C2354 H2340 0.929 . S
C2354 C2353 1.399 . S
C2354 C2355 1.385 . S
C2355 H2341 0.931 . S
C2355 C2354 1.385 . S
C2355 C2356 1.389 . S
C2356 C2355 1.389 . S
C2356 C2357 1.387 . S
C2357 H2342 0.930 . S
C2357 C2352 1.390 . S
C2357 C2356 1.387 . S
H2358 C2370 0.930 . S
H2359 C2372 0.930 . S
H2360 C2373 0.930 . S
H2361 C2377 0.959 . S
H2362 C2377 0.959 . S
H2363 C2377 0.961 . S
H2364 C2378 0.960 . S
H2365 C2378 0.961 . S
H2366 C2378 0.959 . S
H2367 C2381 0.929 . S
H2368 C2382 0.931 . S
H2369 C2384 0.930 . S
C2370 H2358 0.930 . S
C2370 C2371 1.399 . S
C2370 C2375 1.399 . S
C2371 C2370 1.399 . S
C2371 C2372 1.376 . S
C2372 H2359 0.930 . S
C2372 C2371 1.376 . S
C2372 C2373 1.388 . S
C2373 H2360 0.930 . S
C2373 C2372 1.388 . S
C2373 C2374 1.390 . S
C2374 C2373 1.390 . S
C2374 C2375 1.394 . S
C2374 C2380 1.465 . S
C2375 C2370 1.399 . S
C2375 C2374 1.394 . S
C2375 C2376 1.516 . S
C2376 C2375 1.516 . S
C2376 C2377 1.502 . S
C2376 C2378 1.561 . S
C2376 C2379 1.526 . S
C2377 H2361 0.959 . S
C2377 H2362 0.959 . S
C2377 H2363 0.961 . S
C2377 C2376 1.502 . S
C2378 H2364 0.960 . S
C2378 H2365 0.961 . S
C2378 H2366 0.959 . S
C2378 C2376 1.561 . S
C2379 C2376 1.526 . S
C2379 C2380 1.396 . S
C2379 C2384 1.390 . S
C2380 C2374 1.465 . S
C2380 C2379 1.396 . S
C2380 C2381 1.399 . S
C2381 H2367 0.929 . S
C2381 C2380 1.399 . S
C2381 C2382 1.385 . S
C2382 H2368 0.931 . S
C2382 C2381 1.385 . S
C2382 C2383 1.389 . S
C2383 C2382 1.389 . S
C2383 C2384 1.387 . S
C2384 H2369 0.930 . S
C2384 C2379 1.390 . S
C2384 C2383 1.387 . S
H2385 C2397 0.930 . S
H2386 C2399 0.930 . S
H2387 C2400 0.930 . S
H2388 C2404 0.959 . S
H2389 C2404 0.959 . S
H2390 C2404 0.961 . S
H2391 C2405 0.960 . S
H2392 C2405 0.961 . S
H2393 C2405 0.959 . S
H2394 C2408 0.929 . S
H2395 C2409 0.931 . S
H2396 C2411 0.930 . S
C2397 H2385 0.930 . S
C2397 C2398 1.399 . S
C2397 C2402 1.399 . S
C2398 C2397 1.399 . S
C2398 C2399 1.376 . S
C2399 H2386 0.930 . S
C2399 C2398 1.376 . S
C2399 C2400 1.388 . S
C2400 H2387 0.930 . S
C2400 C2399 1.388 . S
C2400 C2401 1.390 . S
C2401 C2400 1.390 . S
C2401 C2402 1.394 . S
C2401 C2407 1.465 . S
C2402 C2397 1.399 . S
C2402 C2401 1.394 . S
C2402 C2403 1.516 . S
C2403 C2402 1.516 . S
C2403 C2404 1.502 . S
C2403 C2405 1.561 . S
C2403 C2406 1.526 . S
C2404 H2388 0.959 . S
C2404 H2389 0.959 . S
C2404 H2390 0.961 . S
C2404 C2403 1.502 . S
C2405 H2391 0.960 . S
C2405 H2392 0.961 . S
C2405 H2393 0.959 . S
C2405 C2403 1.561 . S
C2406 C2403 1.526 . S
C2406 C2407 1.396 . S
C2406 C2411 1.390 . S
C2407 C2401 1.465 . S
C2407 C2406 1.396 . S
C2407 C2408 1.399 . S
C2408 H2394 0.929 . S
C2408 C2407 1.399 . S
C2408 C2409 1.385 . S
C2409 H2395 0.931 . S
C2409 C2408 1.385 . S
C2409 C2410 1.389 . S
C2410 C2409 1.389 . S
C2410 C2411 1.387 . S
C2411 H2396 0.930 . S
C2411 C2406 1.390 . S
C2411 C2410 1.387 . S
H2412 C2424 0.930 . S
H2413 C2426 0.930 . S
H2414 C2427 0.930 . S
H2415 C2431 0.959 . S
H2416 C2431 0.959 . S
H2417 C2431 0.961 . S
H2418 C2432 0.960 . S
H2419 C2432 0.961 . S
H2420 C2432 0.959 . S
H2421 C2435 0.929 . S
H2422 C2436 0.931 . S
H2423 C2438 0.930 . S
C2424 H2412 0.930 . S
C2424 C2425 1.399 . S
C2424 C2429 1.399 . S
C2425 C2424 1.399 . S
C2425 C2426 1.376 . S
C2426 H2413 0.930 . S
C2426 C2425 1.376 . S
C2426 C2427 1.388 . S
C2427 H2414 0.930 . S
C2427 C2426 1.388 . S
C2427 C2428 1.390 . S
C2428 C2427 1.390 . S
C2428 C2429 1.394 . S
C2428 C2434 1.465 . S
C2429 C2424 1.399 . S
C2429 C2428 1.394 . S
C2429 C2430 1.516 . S
C2430 C2429 1.516 . S
C2430 C2431 1.502 . S
C2430 C2432 1.561 . S
C2430 C2433 1.526 . S
C2431 H2415 0.959 . S
C2431 H2416 0.959 . S
C2431 H2417 0.961 . S
C2431 C2430 1.502 . S
C2432 H2418 0.960 . S
C2432 H2419 0.961 . S
C2432 H2420 0.959 . S
C2432 C2430 1.561 . S
C2433 C2430 1.526 . S
C2433 C2434 1.396 . S
C2433 C2438 1.390 . S
C2434 C2428 1.465 . S
C2434 C2433 1.396 . S
C2434 C2435 1.399 . S
C2435 H2421 0.929 . S
C2435 C2434 1.399 . S
C2435 C2436 1.385 . S
C2436 H2422 0.931 . S
C2436 C2435 1.385 . S
C2436 C2437 1.389 . S
C2437 C2436 1.389 . S
C2437 C2438 1.387 . S
C2438 H2423 0.930 . S
C2438 C2433 1.390 . S
C2438 C2437 1.387 . S
H2439 C2451 0.930 . S
H2440 C2453 0.930 . S
H2441 C2454 0.930 . S
H2442 C2458 0.959 . S
H2443 C2458 0.959 . S
H2444 C2458 0.961 . S
H2445 C2459 0.960 . S
H2446 C2459 0.961 . S
H2447 C2459 0.959 . S
H2448 C2462 0.929 . S
H2449 C2463 0.931 . S
H2450 C2465 0.930 1_655 S
C2451 H2439 0.930 . S
C2451 C2452 1.399 . S
C2451 C2456 1.399 . S
C2452 C2451 1.399 . S
C2452 C2453 1.376 . S
C2453 H2440 0.930 . S
C2453 C2452 1.376 . S
C2453 C2454 1.388 . S
C2454 H2441 0.930 . S
C2454 C2453 1.388 . S
C2454 C2455 1.390 . S
C2455 C2454 1.390 . S
C2455 C2456 1.394 . S
C2455 C2461 1.465 . S
C2456 C2451 1.399 . S
C2456 C2455 1.394 . S
C2456 C2457 1.516 . S
C2457 C2456 1.516 . S
C2457 C2458 1.502 . S
C2457 C2459 1.561 1_455 S
C2457 C2460 1.526 . S
C2458 H2442 0.959 . S
C2458 H2443 0.959 . S
C2458 H2444 0.961 . S
C2458 C2457 1.502 . S
C2459 H2445 0.960 . S
C2459 H2446 0.961 . S
C2459 H2447 0.959 . S
C2459 C2457 1.561 1_655 S
C2460 C2457 1.526 . S
C2460 C2461 1.396 . S
C2460 C2465 1.390 . S
C2461 C2455 1.465 . S
C2461 C2460 1.396 . S
C2461 C2462 1.399 . S
C2462 H2448 0.929 . S
C2462 C2461 1.399 . S
C2462 C2463 1.385 . S
C2463 H2449 0.931 . S
C2463 C2462 1.385 . S
C2463 C2464 1.389 . S
C2464 C2463 1.389 . S
C2464 C2465 1.387 . S
C2465 H2450 0.930 1_455 S
C2465 C2460 1.390 . S
C2465 C2464 1.387 . S
H2466 C2478 0.930 . S
H2467 C2480 0.930 . S
H2468 C2481 0.930 . S
H2469 C2485 0.959 . S
H2470 C2485 0.959 . S
H2471 C2485 0.961 . S
H2472 C2486 0.960 . S
H2473 C2486 0.961 . S
H2474 C2486 0.959 . S
H2475 C2489 0.929 . S
H2476 C2490 0.931 . S
H2477 C2492 0.930 . S
C2478 H2466 0.930 . S
C2478 C2479 1.399 . S
C2478 C2483 1.399 . S
C2479 C2478 1.399 . S
C2479 C2480 1.376 . S
C2480 H2467 0.930 . S
C2480 C2479 1.376 . S
C2480 C2481 1.388 . S
C2481 H2468 0.930 . S
C2481 C2480 1.388 . S
C2481 C2482 1.390 . S
C2482 C2481 1.390 . S
C2482 C2483 1.394 . S
C2482 C2488 1.465 . S
C2483 C2478 1.399 . S
C2483 C2482 1.394 . S
C2483 C2484 1.516 . S
C2484 C2483 1.516 . S
C2484 C2485 1.502 . S
C2484 C2486 1.561 . S
C2484 C2487 1.526 . S
C2485 H2469 0.959 . S
C2485 H2470 0.959 . S
C2485 H2471 0.961 . S
C2485 C2484 1.502 . S
C2486 H2472 0.960 . S
C2486 H2473 0.961 . S
C2486 H2474 0.959 . S
C2486 C2484 1.561 . S
C2487 C2484 1.526 . S
C2487 C2488 1.396 . S
C2487 C2492 1.390 . S
C2488 C2482 1.465 . S
C2488 C2487 1.396 . S
C2488 C2489 1.399 . S
C2489 H2475 0.929 . S
C2489 C2488 1.399 . S
C2489 C2490 1.385 . S
C2490 H2476 0.931 . S
C2490 C2489 1.385 . S
C2490 C2491 1.389 . S
C2491 C2490 1.389 . S
C2491 C2492 1.387 . S
C2492 H2477 0.930 . S
C2492 C2487 1.390 . S
C2492 C2491 1.387 . S
H2493 C2505 0.930 . S
H2494 C2507 0.930 . S
H2495 C2508 0.930 . S
H2496 C2512 0.959 . S
H2497 C2512 0.959 . S
H2498 C2512 0.961 . S
H2499 C2513 0.960 . S
H2500 C2513 0.961 . S
H2501 C2513 0.959 . S
H2502 C2516 0.929 . S
H2503 C2517 0.931 . S
H2504 C2519 0.930 . S
C2505 H2493 0.930 . S
C2505 C2506 1.399 . S
C2505 C2510 1.399 . S
C2506 C2505 1.399 . S
C2506 C2507 1.376 1_565 S
C2507 H2494 0.930 . S
C2507 C2506 1.376 1_545 S
C2507 C2508 1.388 . S
C2508 H2495 0.930 . S
C2508 C2507 1.388 . S
C2508 C2509 1.390 . S
C2509 C2508 1.390 . S
C2509 C2510 1.394 1_545 S
C2509 C2515 1.465 . S
C2510 C2505 1.399 . S
C2510 C2509 1.394 1_565 S
C2510 C2511 1.516 . S
C2511 C2510 1.516 . S
C2511 C2512 1.502 . S
C2511 C2513 1.561 . S
C2511 C2514 1.526 . S
C2512 H2496 0.959 . S
C2512 H2497 0.959 . S
C2512 H2498 0.961 . S
C2512 C2511 1.502 . S
C2513 H2499 0.960 . S
C2513 H2500 0.961 . S
C2513 H2501 0.959 . S
C2513 C2511 1.561 . S
C2514 C2511 1.526 . S
C2514 C2515 1.396 1_565 S
C2514 C2519 1.390 . S
C2515 C2509 1.465 . S
C2515 C2514 1.396 1_545 S
C2515 C2516 1.399 . S
C2516 H2502 0.929 . S
C2516 C2515 1.399 . S
C2516 C2517 1.385 . S
C2517 H2503 0.931 . S
C2517 C2516 1.385 . S
C2517 C2518 1.389 1_545 S
C2518 C2517 1.389 1_565 S
C2518 C2519 1.387 . S
C2519 H2504 0.930 . S
C2519 C2514 1.390 . S
C2519 C2518 1.387 . S
H2520 C2532 0.930 . S
H2521 C2534 0.930 . S
H2522 C2535 0.930 . S
H2523 C2539 0.959 . S
H2524 C2539 0.959 . S
H2525 C2539 0.961 . S
H2526 C2540 0.960 . S
H2527 C2540 0.961 . S
H2528 C2540 0.959 . S
H2529 C2543 0.929 . S
H2530 C2544 0.931 . S
H2531 C2546 0.930 . S
C2532 H2520 0.930 . S
C2532 C2533 1.399 . S
C2532 C2537 1.399 . S
C2533 C2532 1.399 . S
C2533 C2534 1.376 1_565 S
C2534 H2521 0.930 . S
C2534 C2533 1.376 1_545 S
C2534 C2535 1.388 . S
C2535 H2522 0.930 . S
C2535 C2534 1.388 . S
C2535 C2536 1.390 1_545 S
C2536 C2535 1.390 1_565 S
C2536 C2537 1.394 . S
C2536 C2542 1.482 . S
C2537 C2532 1.399 . S
C2537 C2536 1.394 . S
C2537 C2538 1.516 . S
C2538 C2537 1.516 . S
C2538 C2539 1.502 . S
C2538 C2540 1.561 . S
C2538 C2541 1.526 . S
C2539 H2523 0.959 . S
C2539 H2524 0.959 . S
C2539 H2525 0.961 . S
C2539 C2538 1.502 . S
C2540 H2526 0.960 . S
C2540 H2527 0.961 . S
C2540 H2528 0.959 . S
C2540 C2538 1.561 . S
C2541 C2538 1.526 . S
C2541 C2542 1.415 . S
C2541 C2546 1.390 . S
C2542 C2536 1.482 . S
C2542 C2541 1.415 . S
C2542 C2543 1.369 1_565 S
C2543 H2529 0.929 . S
C2543 C2542 1.369 1_545 S
C2543 C2544 1.385 . S
C2544 H2530 0.931 . S
C2544 C2543 1.385 . S
C2544 C2545 1.389 1_545 S
C2545 C2544 1.389 1_565 S
C2545 C2546 1.387 . S
C2546 H2531 0.930 . S
C2546 C2541 1.390 . S
C2546 C2545 1.387 . S
H2547 C2559 0.930 . S
H2548 C2561 0.930 . S
H2549 C2562 0.930 . S
H2550 C2566 0.959 . S
H2551 C2566 0.959 . S
H2552 C2566 0.961 . S
H2553 C2567 0.960 . S
H2554 C2567 0.961 . S
H2555 C2567 0.959 . S
H2556 C2570 0.922 1_655 S
H2557 C2571 0.931 1_655 S
H2558 C2573 0.930 . S
C2559 H2547 0.930 . S
C2559 C2560 1.399 . S
C2559 C2564 1.399 . S
C2560 C2559 1.399 . S
C2560 C2561 1.376 . S
C2561 H2548 0.930 . S
C2561 C2560 1.376 . S
C2561 C2562 1.388 . S
C2562 H2549 0.930 . S
C2562 C2561 1.388 . S
C2562 C2563 1.390 . S
C2563 C2562 1.390 . S
C2563 C2564 1.394 . S
C2563 C2569 1.465 . S
C2564 C2559 1.399 . S
C2564 C2563 1.394 . S
C2564 C2565 1.516 . S
C2565 C2564 1.516 . S
C2565 C2566 1.502 . S
C2565 C2567 1.561 1_455 S
C2565 C2568 1.526 . S
C2566 H2550 0.959 . S
C2566 H2551 0.959 . S
C2566 H2552 0.961 . S
C2566 C2565 1.502 . S
C2567 H2553 0.960 . S
C2567 H2554 0.961 . S
C2567 H2555 0.959 . S
C2567 C2565 1.561 1_655 S
C2568 C2565 1.526 . S
C2568 C2569 1.396 . S
C2568 C2573 1.390 . S
C2569 C2563 1.465 . S
C2569 C2568 1.396 . S
C2569 C2570 1.399 . S
C2570 H2556 0.922 1_455 S
C2570 C2569 1.399 . S
C2570 C2571 1.394 . S
C2571 H2557 0.931 1_455 S
C2571 C2570 1.394 . S
C2571 C2572 1.389 . S
C2572 C2571 1.389 . S
C2572 C2573 1.387 . S
C2573 H2558 0.930 . S
C2573 C2568 1.390 . S
C2573 C2572 1.387 . S
H2574 C2586 0.930 . S
H2575 C2588 0.930 . S
H2576 C2589 0.930 . S
H2577 C2593 0.959 . S
H2578 C2593 0.959 . S
H2579 C2593 0.961 . S
H2580 C2594 0.960 . S
H2581 C2594 0.961 . S
H2582 C2594 0.959 . S
H2583 C2597 0.929 . S
H2584 C2598 0.931 . S
H2585 C2600 0.930 . S
C2586 H2574 0.930 . S
C2586 C2587 1.399 . S
C2586 C2591 1.399 . S
C2587 C2586 1.399 . S
C2587 C2588 1.376 . S
C2588 H2575 0.930 . S
C2588 C2587 1.376 . S
C2588 C2589 1.388 . S
C2589 H2576 0.930 . S
C2589 C2588 1.388 . S
C2589 C2590 1.390 . S
C2590 C2589 1.390 . S
C2590 C2591 1.394 . S
C2590 C2596 1.465 . S
C2591 C2586 1.399 . S
C2591 C2590 1.394 . S
C2591 C2592 1.516 . S
C2592 C2591 1.516 . S
C2592 C2593 1.502 . S
C2592 C2594 1.561 . S
C2592 C2595 1.526 . S
C2593 H2577 0.959 . S
C2593 H2578 0.959 . S
C2593 H2579 0.961 . S
C2593 C2592 1.502 . S
C2594 H2580 0.960 . S
C2594 H2581 0.961 . S
C2594 H2582 0.959 . S
C2594 C2592 1.561 . S
C2595 C2592 1.526 . S
C2595 C2596 1.396 . S
C2595 C2600 1.390 . S
C2596 C2590 1.465 . S
C2596 C2595 1.396 . S
C2596 C2597 1.399 . S
C2597 H2583 0.929 . S
C2597 C2596 1.399 . S
C2597 C2598 1.385 . S
C2598 H2584 0.931 . S
C2598 C2597 1.385 . S
C2598 C2599 1.389 . S
C2599 C2598 1.389 . S
C2599 C2600 1.387 . S
C2600 H2585 0.930 . S
C2600 C2595 1.390 . S
C2600 C2599 1.387 . S
H2601 C2613 0.930 . S
H2602 C2615 0.930 . S
H2603 C2616 0.930 . S
H2604 C2620 0.959 . S
H2605 C2620 0.959 . S
H2606 C2620 0.961 . S
H2607 C2621 0.960 . S
H2608 C2621 0.961 . S
H2609 C2621 0.959 . S
H2610 C2624 0.929 . S
H2611 C2625 0.931 . S
H2612 C2627 0.930 . S
C2613 H2601 0.930 . S
C2613 C2614 1.399 . S
C2613 C2618 1.399 . S
C2614 C2613 1.399 . S
C2614 C2615 1.376 . S
C2615 H2602 0.930 . S
C2615 C2614 1.376 . S
C2615 C2616 1.388 . S
C2616 H2603 0.930 . S
C2616 C2615 1.388 . S
C2616 C2617 1.390 . S
C2617 C2616 1.390 . S
C2617 C2618 1.394 . S
C2617 C2623 1.465 . S
C2618 C2613 1.399 . S
C2618 C2617 1.394 . S
C2618 C2619 1.516 . S
C2619 C2618 1.516 . S
C2619 C2620 1.502 . S
C2619 C2621 1.561 . S
C2619 C2622 1.526 . S
C2620 H2604 0.959 . S
C2620 H2605 0.959 . S
C2620 H2606 0.961 . S
C2620 C2619 1.502 . S
C2621 H2607 0.960 . S
C2621 H2608 0.961 . S
C2621 H2609 0.959 . S
C2621 C2619 1.561 . S
C2622 C2619 1.526 . S
C2622 C2623 1.396 . S
C2622 C2627 1.390 . S
C2623 C2617 1.465 . S
C2623 C2622 1.396 . S
C2623 C2624 1.399 . S
C2624 H2610 0.929 . S
C2624 C2623 1.399 . S
C2624 C2625 1.385 . S
C2625 H2611 0.931 . S
C2625 C2624 1.385 . S
C2625 C2626 1.389 . S
C2626 C2625 1.389 . S
C2626 C2627 1.387 . S
C2627 H2612 0.930 . S
C2627 C2622 1.390 . S
C2627 C2626 1.387 . S
H2628 C2640 0.930 . S
H2629 C2642 0.930 . S
H2630 C2643 0.930 . S
H2631 C2647 0.959 . S
H2632 C2647 0.959 . S
H2633 C2647 0.961 . S
H2634 C2648 0.960 . S
H2635 C2648 0.961 . S
H2636 C2648 0.959 . S
H2637 C2651 0.929 . S
H2638 C2652 0.931 . S
H2639 C2654 0.930 . S
C2640 H2628 0.930 . S
C2640 C2641 1.399 . S
C2640 C2645 1.399 . S
C2641 C2640 1.399 . S
C2641 C2642 1.376 . S
C2642 H2629 0.930 . S
C2642 C2641 1.376 . S
C2642 C2643 1.388 . S
C2643 H2630 0.930 . S
C2643 C2642 1.388 . S
C2643 C2644 1.390 . S
C2644 C2643 1.390 . S
C2644 C2645 1.394 . S
C2644 C2650 1.465 . S
C2645 C2640 1.399 . S
C2645 C2644 1.394 . S
C2645 C2646 1.516 . S
C2646 C2645 1.516 . S
C2646 C2647 1.502 . S
C2646 C2648 1.561 . S
C2646 C2649 1.526 . S
C2647 H2631 0.959 . S
C2647 H2632 0.959 . S
C2647 H2633 0.961 . S
C2647 C2646 1.502 . S
C2648 H2634 0.960 . S
C2648 H2635 0.961 . S
C2648 H2636 0.959 . S
C2648 C2646 1.561 . S
C2649 C2646 1.526 . S
C2649 C2650 1.396 . S
C2649 C2654 1.390 . S
C2650 C2644 1.465 . S
C2650 C2649 1.396 . S
C2650 C2651 1.399 . S
C2651 H2637 0.929 . S
C2651 C2650 1.399 . S
C2651 C2652 1.385 . S
C2652 H2638 0.931 . S
C2652 C2651 1.385 . S
C2652 C2653 1.389 . S
C2653 C2652 1.389 . S
C2653 C2654 1.387 . S
C2654 H2639 0.930 . S
C2654 C2649 1.390 . S
C2654 C2653 1.387 . S
H2655 C2667 0.930 . S
H2656 C2669 0.930 . S
H2657 C2670 0.930 . S
H2658 C2674 0.959 . S
H2659 C2674 0.959 . S
H2660 C2674 0.961 . S
H2661 C2675 0.960 . S
H2662 C2675 0.961 . S
H2663 C2675 0.959 . S
H2664 C2678 0.929 . S
H2665 C2679 0.931 . S
H2666 C2681 0.930 . S
C2667 H2655 0.930 . S
C2667 C2668 1.399 . S
C2667 C2672 1.399 . S
C2668 C2667 1.399 . S
C2668 C2669 1.376 . S
C2669 H2656 0.930 . S
C2669 C2668 1.376 . S
C2669 C2670 1.388 . S
C2670 H2657 0.930 . S
C2670 C2669 1.388 . S
C2670 C2671 1.390 . S
C2671 C2670 1.390 . S
C2671 C2672 1.394 . S
C2671 C2677 1.465 . S
C2672 C2667 1.399 . S
C2672 C2671 1.394 . S
C2672 C2673 1.516 . S
C2673 C2672 1.516 . S
C2673 C2674 1.502 . S
C2673 C2675 1.561 . S
C2673 C2676 1.526 . S
C2674 H2658 0.959 . S
C2674 H2659 0.959 . S
C2674 H2660 0.961 . S
C2674 C2673 1.502 . S
C2675 H2661 0.960 . S
C2675 H2662 0.961 . S
C2675 H2663 0.959 . S
C2675 C2673 1.561 . S
C2676 C2673 1.526 . S
C2676 C2677 1.396 . S
C2676 C2681 1.390 . S
C2677 C2671 1.465 . S
C2677 C2676 1.396 . S
C2677 C2678 1.399 . S
C2678 H2664 0.929 . S
C2678 C2677 1.399 . S
C2678 C2679 1.385 . S
C2679 H2665 0.931 . S
C2679 C2678 1.385 . S
C2679 C2680 1.389 . S
C2680 C2679 1.389 . S
C2680 C2681 1.387 . S
C2681 H2666 0.930 . S
C2681 C2676 1.390 . S
C2681 C2680 1.387 . S
H2682 C2694 0.930 1_565 S
H2683 C2696 0.930 . S
H2684 C2697 0.930 . S
H2685 C2701 0.959 . S
H2686 C2701 0.959 . S
H2687 C2701 0.961 . S
H2688 C2702 0.960 . S
H2689 C2702 0.961 . S
H2690 C2702 0.959 . S
H2691 C2705 0.929 . S
H2692 C2706 0.931 . S
H2693 C2708 0.930 . S
C2694 H2682 0.930 1_545 S
C2694 C2695 1.399 . S
C2694 C2699 1.399 . S
C2695 C2694 1.399 . S
C2695 C2696 1.376 . S
C2696 H2683 0.930 . S
C2696 C2695 1.376 . S
C2696 C2697 1.388 . S
C2697 H2684 0.930 . S
C2697 C2696 1.388 . S
C2697 C2698 1.390 . S
C2698 C2697 1.390 . S
C2698 C2699 1.394 . S
C2698 C2704 1.465 . S
C2699 C2694 1.399 . S
C2699 C2698 1.394 . S
C2699 C2700 1.516 1_545 S
C2700 C2699 1.516 1_565 S
C2700 C2701 1.502 . S
C2700 C2702 1.561 . S
C2700 C2703 1.525 1_565 S
C2701 H2685 0.959 . S
C2701 H2686 0.959 . S
C2701 H2687 0.961 . S
C2701 C2700 1.502 . S
C2702 H2688 0.960 . S
C2702 H2689 0.961 . S
C2702 H2690 0.959 . S
C2702 C2700 1.561 . S
C2703 C2700 1.525 1_545 S
C2703 C2704 1.404 . S
C2703 C2708 1.383 1_545 S
C2704 C2698 1.465 . S
C2704 C2703 1.404 . S
C2704 C2705 1.399 . S
C2705 H2691 0.929 . S
C2705 C2704 1.399 . S
C2705 C2706 1.385 . S
C2706 H2692 0.931 . S
C2706 C2705 1.385 . S
C2706 C2707 1.389 . S
C2707 C2706 1.389 . S
C2707 C2708 1.387 1_545 S
C2708 H2693 0.930 . S
C2708 C2703 1.383 1_565 S
C2708 C2707 1.387 1_565 S
H2709 C2721 0.930 . S
H2710 C2723 0.930 . S
H2711 C2724 0.930 . S
H2712 C2728 0.959 . S
H2713 C2728 0.959 . S
H2714 C2728 0.961 . S
H2715 C2729 0.960 . S
H2716 C2729 0.961 . S
H2717 C2729 0.959 . S
H2718 C2732 0.929 . S
H2719 C2733 0.931 . S
H2720 C2735 0.930 . S
C2721 H2709 0.930 . S
C2721 C2722 1.399 . S
C2721 C2726 1.399 . S
C2722 C2721 1.399 . S
C2722 C2723 1.376 1_655 S
C2723 H2710 0.930 . S
C2723 C2722 1.376 1_455 S
C2723 C2724 1.388 . S
C2724 H2711 0.930 . S
C2724 C2723 1.388 . S
C2724 C2725 1.390 1_455 S
C2725 C2724 1.390 1_655 S
C2725 C2726 1.394 . S
C2725 C2731 1.436 . S
C2726 C2721 1.399 . S
C2726 C2725 1.394 . S
C2726 C2727 1.516 . S
C2727 C2726 1.516 . S
C2727 C2728 1.502 . S
C2727 C2729 1.561 . S
C2727 C2730 1.526 . S
C2728 H2712 0.959 . S
C2728 H2713 0.959 . S
C2728 H2714 0.961 . S
C2728 C2727 1.502 . S
C2729 H2715 0.960 . S
C2729 H2716 0.961 . S
C2729 H2717 0.959 . S
C2729 C2727 1.561 . S
C2730 C2727 1.526 . S
C2730 C2731 1.461 . S
C2730 C2735 1.390 . S
C2731 C2725 1.436 . S
C2731 C2730 1.461 . S
C2731 C2732 1.377 1_655 S
C2732 H2718 0.929 . S
C2732 C2731 1.377 1_455 S
C2732 C2733 1.385 . S
C2733 H2719 0.931 . S
C2733 C2732 1.385 . S
C2733 C2734 1.389 1_455 S
C2734 C2733 1.389 1_655 S
C2734 C2735 1.387 . S
C2735 H2720 0.930 . S
C2735 C2730 1.390 . S
C2735 C2734 1.387 . S
H2736 C2748 0.930 . S
H2737 C2750 0.930 . S
H2738 C2751 0.930 . S
H2739 C2755 0.959 . S
H2740 C2755 0.959 . S
H2741 C2755 0.961 . S
H2742 C2756 0.960 . S
H2743 C2756 0.961 . S
H2744 C2756 0.959 . S
H2745 C2759 0.929 . S
H2746 C2760 0.931 . S
H2747 C2762 0.930 . S
C2748 H2736 0.930 . S
C2748 C2749 1.399 . S
C2748 C2753 1.399 . S
C2749 C2748 1.399 . S
C2749 C2750 1.376 . S
C2750 H2737 0.930 . S
C2750 C2749 1.376 . S
C2750 C2751 1.388 . S
C2751 H2738 0.930 . S
C2751 C2750 1.388 . S
C2751 C2752 1.390 . S
C2752 C2751 1.390 . S
C2752 C2753 1.394 . S
C2752 C2758 1.465 . S
C2753 C2748 1.399 . S
C2753 C2752 1.394 . S
C2753 C2754 1.516 . S
C2754 C2753 1.516 . S
C2754 C2755 1.502 . S
C2754 C2756 1.561 . S
C2754 C2757 1.526 . S
C2755 H2739 0.959 . S
C2755 H2740 0.959 . S
C2755 H2741 0.961 . S
C2755 C2754 1.502 . S
C2756 H2742 0.960 . S
C2756 H2743 0.961 . S
C2756 H2744 0.959 . S
C2756 C2754 1.561 . S
C2757 C2754 1.526 . S
C2757 C2758 1.396 . S
C2757 C2762 1.390 . S
C2758 C2752 1.465 . S
C2758 C2757 1.396 . S
C2758 C2759 1.399 . S
C2759 H2745 0.929 . S
C2759 C2758 1.399 . S
C2759 C2760 1.385 . S
C2760 H2746 0.931 . S
C2760 C2759 1.385 . S
C2760 C2761 1.389 . S
C2761 C2760 1.389 . S
C2761 C2762 1.387 . S
C2762 H2747 0.930 . S
C2762 C2757 1.390 . S
C2762 C2761 1.387 . S
H2763 C2775 0.930 . S
H2764 C2777 0.930 . S
H2765 C2778 0.930 . S
H2766 C2782 0.959 . S
H2767 C2782 0.959 . S
H2768 C2782 0.961 . S
H2769 C2783 0.960 . S
H2770 C2783 0.961 . S
H2771 C2783 0.959 . S
H2772 C2786 0.929 . S
H2773 C2787 0.931 . S
H2774 C2789 0.930 . S
C2775 H2763 0.930 . S
C2775 C2776 1.399 . S
C2775 C2780 1.399 . S
C2776 C2775 1.399 . S
C2776 C2777 1.376 . S
C2777 H2764 0.930 . S
C2777 C2776 1.376 . S
C2777 C2778 1.388 . S
C2778 H2765 0.930 . S
C2778 C2777 1.388 . S
C2778 C2779 1.390 . S
C2779 C2778 1.390 . S
C2779 C2780 1.394 . S
C2779 C2785 1.465 . S
C2780 C2775 1.399 . S
C2780 C2779 1.394 . S
C2780 C2781 1.516 . S
C2781 C2780 1.516 . S
C2781 C2782 1.502 . S
C2781 C2783 1.561 . S
C2781 C2784 1.526 . S
C2782 H2766 0.959 . S
C2782 H2767 0.959 . S
C2782 H2768 0.961 . S
C2782 C2781 1.502 . S
C2783 H2769 0.960 . S
C2783 H2770 0.961 . S
C2783 H2771 0.959 . S
C2783 C2781 1.561 . S
C2784 C2781 1.526 . S
C2784 C2785 1.396 . S
C2784 C2789 1.390 . S
C2785 C2779 1.465 . S
C2785 C2784 1.396 . S
C2785 C2786 1.399 . S
C2786 H2772 0.929 . S
C2786 C2785 1.399 . S
C2786 C2787 1.385 . S
C2787 H2773 0.931 . S
C2787 C2786 1.385 . S
C2787 C2788 1.389 . S
C2788 C2787 1.389 . S
C2788 C2789 1.387 . S
C2789 H2774 0.930 . S
C2789 C2784 1.390 . S
C2789 C2788 1.387 . S
H2790 C2802 0.930 . S
H2791 C2804 0.930 . S
H2792 C2805 0.930 . S
H2793 C2809 0.959 . S
H2794 C2809 0.959 . S
H2795 C2809 0.961 . S
H2796 C2810 0.960 . S
H2797 C2810 0.961 . S
H2798 C2810 0.959 . S
H2799 C2813 0.929 . S
H2800 C2814 0.931 . S
H2801 C2816 0.930 . S
C2802 H2790 0.930 . S
C2802 C2803 1.399 . S
C2802 C2807 1.399 . S
C2803 C2802 1.399 . S
C2803 C2804 1.376 . S
C2804 H2791 0.930 . S
C2804 C2803 1.376 . S
C2804 C2805 1.388 . S
C2805 H2792 0.930 . S
C2805 C2804 1.388 . S
C2805 C2806 1.390 . S
C2806 C2805 1.390 . S
C2806 C2807 1.394 . S
C2806 C2812 1.465 . S
C2807 C2802 1.399 . S
C2807 C2806 1.394 . S
C2807 C2808 1.516 . S
C2808 C2807 1.516 . S
C2808 C2809 1.502 . S
C2808 C2810 1.561 . S
C2808 C2811 1.526 . S
C2809 H2793 0.959 . S
C2809 H2794 0.959 . S
C2809 H2795 0.961 . S
C2809 C2808 1.502 . S
C2810 H2796 0.960 . S
C2810 H2797 0.961 . S
C2810 H2798 0.959 . S
C2810 C2808 1.561 . S
C2811 C2808 1.526 . S
C2811 C2812 1.396 . S
C2811 C2816 1.390 . S
C2812 C2806 1.465 . S
C2812 C2811 1.396 . S
C2812 C2813 1.399 . S
C2813 H2799 0.929 . S
C2813 C2812 1.399 . S
C2813 C2814 1.385 . S
C2814 H2800 0.931 . S
C2814 C2813 1.385 . S
C2814 C2815 1.389 . S
C2815 C2814 1.389 . S
C2815 C2816 1.387 . S
C2816 H2801 0.930 . S
C2816 C2811 1.390 . S
C2816 C2815 1.387 . S
H2817 C2829 0.930 . S
H2818 C2831 0.930 . S
H2819 C2832 0.930 . S
H2820 C2836 0.959 . S
H2821 C2836 0.959 . S
H2822 C2836 0.961 . S
H2823 C2837 0.960 . S
H2824 C2837 0.961 . S
H2825 C2837 0.959 . S
H2826 C2840 0.929 . S
H2827 C2841 0.931 . S
H2828 C2843 0.930 . S
C2829 H2817 0.930 . S
C2829 C2830 1.399 . S
C2829 C2834 1.399 . S
C2830 C2829 1.399 . S
C2830 C2831 1.376 . S
C2831 H2818 0.930 . S
C2831 C2830 1.376 . S
C2831 C2832 1.388 . S
C2832 H2819 0.930 . S
C2832 C2831 1.388 . S
C2832 C2833 1.390 . S
C2833 C2832 1.390 . S
C2833 C2834 1.394 . S
C2833 C2839 1.465 . S
C2834 C2829 1.399 . S
C2834 C2833 1.394 . S
C2834 C2835 1.516 . S
C2835 C2834 1.516 . S
C2835 C2836 1.502 . S
C2835 C2837 1.561 . S
C2835 C2838 1.526 . S
C2836 H2820 0.959 . S
C2836 H2821 0.959 . S
C2836 H2822 0.961 . S
C2836 C2835 1.502 . S
C2837 H2823 0.960 . S
C2837 H2824 0.961 . S
C2837 H2825 0.959 . S
C2837 C2835 1.561 . S
C2838 C2835 1.526 . S
C2838 C2839 1.396 . S
C2838 C2843 1.390 . S
C2839 C2833 1.465 . S
C2839 C2838 1.396 . S
C2839 C2840 1.399 . S
C2840 H2826 0.929 . S
C2840 C2839 1.399 . S
C2840 C2841 1.385 . S
C2841 H2827 0.931 . S
C2841 C2840 1.385 . S
C2841 C2842 1.389 . S
C2842 C2841 1.389 . S
C2842 C2843 1.387 . S
C2843 H2828 0.930 . S
C2843 C2838 1.390 . S
C2843 C2842 1.387 . S
H2844 C2856 0.930 . S
H2845 C2858 0.930 . S
H2846 C2859 0.930 . S
H2847 C2863 0.959 . S
H2848 C2863 0.959 . S
H2849 C2863 0.961 . S
H2850 C2864 0.960 . S
H2851 C2864 0.961 . S
H2852 C2864 0.959 . S
H2853 C2867 0.929 . S
H2854 C2868 0.931 . S
H2855 C2870 0.930 . S
C2856 H2844 0.930 . S
C2856 C2857 1.399 . S
C2856 C2861 1.399 . S
C2857 C2856 1.399 . S
C2857 C2858 1.376 . S
C2858 H2845 0.930 . S
C2858 C2857 1.376 . S
C2858 C2859 1.388 . S
C2859 H2846 0.930 . S
C2859 C2858 1.388 . S
C2859 C2860 1.390 . S
C2860 C2859 1.390 . S
C2860 C2861 1.394 . S
C2860 C2866 1.465 . S
C2861 C2856 1.399 . S
C2861 C2860 1.394 . S
C2861 C2862 1.516 . S
C2862 C2861 1.516 . S
C2862 C2863 1.502 . S
C2862 C2864 1.561 . S
C2862 C2865 1.526 . S
C2863 H2847 0.959 . S
C2863 H2848 0.959 . S
C2863 H2849 0.961 . S
C2863 C2862 1.502 . S
C2864 H2850 0.960 . S
C2864 H2851 0.961 . S
C2864 H2852 0.959 . S
C2864 C2862 1.561 . S
C2865 C2862 1.526 . S
C2865 C2866 1.396 . S
C2865 C2870 1.390 . S
C2866 C2860 1.465 . S
C2866 C2865 1.396 . S
C2866 C2867 1.399 . S
C2867 H2853 0.929 . S
C2867 C2866 1.399 . S
C2867 C2868 1.385 . S
C2868 H2854 0.931 . S
C2868 C2867 1.385 . S
C2868 C2869 1.389 . S
C2869 C2868 1.389 . S
C2869 C2870 1.387 . S
C2870 H2855 0.930 . S
C2870 C2865 1.390 . S
C2870 C2869 1.387 . S
H2871 C2883 0.930 . S
H2872 C2885 0.930 . S
H2873 C2886 0.930 . S
H2874 C2890 0.959 . S
H2875 C2890 0.959 . S
H2876 C2890 0.961 . S
H2877 C2891 0.960 . S
H2878 C2891 0.961 . S
H2879 C2891 0.959 . S
H2880 C2894 0.929 . S
H2881 C2895 0.931 . S
H2882 C2897 0.930 . S
C2883 H2871 0.930 . S
C2883 C2884 1.399 . S
C2883 C2888 1.399 . S
C2884 C2883 1.399 . S
C2884 C2885 1.376 . S
C2885 H2872 0.930 . S
C2885 C2884 1.376 . S
C2885 C2886 1.388 . S
C2886 H2873 0.930 . S
C2886 C2885 1.388 . S
C2886 C2887 1.390 . S
C2887 C2886 1.390 . S
C2887 C2888 1.394 . S
C2887 C2893 1.465 . S
C2888 C2883 1.399 . S
C2888 C2887 1.394 . S
C2888 C2889 1.516 . S
C2889 C2888 1.516 . S
C2889 C2890 1.502 . S
C2889 C2891 1.561 . S
C2889 C2892 1.526 . S
C2890 H2874 0.959 . S
C2890 H2875 0.959 . S
C2890 H2876 0.961 . S
C2890 C2889 1.502 . S
C2891 H2877 0.960 . S
C2891 H2878 0.961 . S
C2891 H2879 0.959 . S
C2891 C2889 1.561 . S
C2892 C2889 1.526 . S
C2892 C2893 1.396 . S
C2892 C2897 1.390 . S
C2893 C2887 1.465 . S
C2893 C2892 1.396 . S
C2893 C2894 1.399 . S
C2894 H2880 0.929 . S
C2894 C2893 1.399 . S
C2894 C2895 1.385 . S
C2895 H2881 0.931 . S
C2895 C2894 1.385 . S
C2895 C2896 1.389 . S
C2896 C2895 1.389 . S
C2896 C2897 1.387 . S
C2897 H2882 0.930 . S
C2897 C2892 1.390 . S
C2897 C2896 1.387 . S
H2898 C2910 0.930 . S
H2899 C2912 0.930 . S
H2900 C2913 0.930 . S
H2901 C2917 0.959 . S
H2902 C2917 0.959 . S
H2903 C2917 0.961 . S
H2904 C2918 0.960 . S
H2905 C2918 0.961 . S
H2906 C2918 0.959 . S
H2907 C2921 0.929 . S
H2908 C2922 0.931 . S
H2909 C2924 0.930 . S
C2910 H2898 0.930 . S
C2910 C2911 1.399 . S
C2910 C2915 1.399 . S
C2911 C2910 1.399 . S
C2911 C2912 1.376 . S
C2912 H2899 0.930 . S
C2912 C2911 1.376 . S
C2912 C2913 1.388 . S
C2913 H2900 0.930 . S
C2913 C2912 1.388 . S
C2913 C2914 1.390 . S
C2914 C2913 1.390 . S
C2914 C2915 1.394 . S
C2914 C2920 1.465 . S
C2915 C2910 1.399 . S
C2915 C2914 1.394 . S
C2915 C2916 1.516 . S
C2916 C2915 1.516 . S
C2916 C2917 1.502 . S
C2916 C2918 1.561 . S
C2916 C2919 1.526 . S
C2917 H2901 0.959 . S
C2917 H2902 0.959 . S
C2917 H2903 0.961 . S
C2917 C2916 1.502 . S
C2918 H2904 0.960 . S
C2918 H2905 0.961 . S
C2918 H2906 0.959 . S
C2918 C2916 1.561 . S
C2919 C2916 1.526 . S
C2919 C2920 1.396 . S
C2919 C2924 1.390 . S
C2920 C2914 1.465 . S
C2920 C2919 1.396 . S
C2920 C2921 1.399 . S
C2921 H2907 0.929 . S
C2921 C2920 1.399 . S
C2921 C2922 1.385 . S
C2922 H2908 0.931 . S
C2922 C2921 1.385 . S
C2922 C2923 1.389 . S
C2923 C2922 1.389 . S
C2923 C2924 1.387 . S
C2924 H2909 0.930 . S
C2924 C2919 1.390 . S
C2924 C2923 1.387 . S
H2925 C2937 0.944 . S
H2926 C2939 0.930 . S
H2927 C2940 0.930 . S
H2928 C2944 0.959 . S
H2929 C2944 0.959 . S
H2930 C2944 0.961 . S
H2931 C2945 0.960 . S
H2932 C2945 0.961 . S
H2933 C2945 0.959 . S
H2934 C2948 0.929 . S
H2935 C2949 0.931 . S
H2936 C2951 0.926 . S
C2937 H2925 0.944 . S
C2937 C2938 1.399 . S
C2937 C2942 1.399 . S
C2938 C2937 1.399 . S
C2938 C2939 1.376 . S
C2939 H2926 0.930 . S
C2939 C2938 1.376 . S
C2939 C2940 1.388 . S
C2940 H2927 0.930 . S
C2940 C2939 1.388 . S
C2940 C2941 1.390 . S
C2941 C2940 1.390 . S
C2941 C2942 1.394 . S
C2941 C2947 1.465 . S
C2942 C2937 1.399 . S
C2942 C2941 1.394 . S
C2942 C2943 1.500 1_655 S
C2943 C2942 1.500 1_455 S
C2943 C2944 1.523 . S
C2943 C2945 1.547 1_455 S
C2943 C2946 1.534 1_455 S
C2944 H2928 0.959 . S
C2944 H2929 0.959 . S
C2944 H2930 0.961 . S
C2944 C2943 1.523 . S
C2945 H2931 0.960 . S
C2945 H2932 0.961 . S
C2945 H2933 0.959 . S
C2945 C2943 1.547 1_655 S
C2946 C2943 1.534 1_655 S
C2946 C2947 1.396 . S
C2946 C2951 1.395 1_655 S
C2947 C2941 1.465 . S
C2947 C2946 1.396 . S
C2947 C2948 1.399 . S
C2948 H2934 0.929 . S
C2948 C2947 1.399 . S
C2948 C2949 1.385 . S
C2949 H2935 0.931 . S
C2949 C2948 1.385 . S
C2949 C2950 1.389 . S
C2950 C2949 1.389 . S
C2950 C2951 1.385 1_655 S
C2951 H2936 0.926 . S
C2951 C2946 1.395 1_455 S
C2951 C2950 1.385 1_455 S
H2952 C2964 0.930 . S
H2953 C2966 0.930 . S
H2954 C2967 0.930 . S
H2955 C2971 0.959 . S
H2956 C2971 0.959 . S
H2957 C2971 0.961 . S
H2958 C2972 0.960 . S
H2959 C2972 0.961 . S
H2960 C2972 0.959 . S
H2961 C2975 0.929 . S
H2962 C2976 0.931 . S
H2963 C2978 0.930 . S
C2964 H2952 0.930 . S
C2964 C2965 1.399 . S
C2964 C2969 1.399 . S
C2965 C2964 1.399 . S
C2965 C2966 1.376 . S
C2966 H2953 0.930 . S
C2966 C2965 1.376 . S
C2966 C2967 1.388 . S
C2967 H2954 0.930 . S
C2967 C2966 1.388 . S
C2967 C2968 1.390 . S
C2968 C2967 1.390 . S
C2968 C2969 1.394 . S
C2968 C2974 1.465 . S
C2969 C2964 1.399 . S
C2969 C2968 1.394 . S
C2969 C2970 1.516 . S
C2970 C2969 1.516 . S
C2970 C2971 1.502 . S
C2970 C2972 1.561 . S
C2970 C2973 1.526 . S
C2971 H2955 0.959 . S
C2971 H2956 0.959 . S
C2971 H2957 0.961 . S
C2971 C2970 1.502 . S
C2972 H2958 0.960 . S
C2972 H2959 0.961 . S
C2972 H2960 0.959 . S
C2972 C2970 1.561 . S
C2973 C2970 1.526 . S
C2973 C2974 1.396 . S
C2973 C2978 1.390 . S
C2974 C2968 1.465 . S
C2974 C2973 1.396 . S
C2974 C2975 1.399 . S
C2975 H2961 0.929 . S
C2975 C2974 1.399 . S
C2975 C2976 1.385 . S
C2976 H2962 0.931 . S
C2976 C2975 1.385 . S
C2976 C2977 1.389 . S
C2977 C2976 1.389 . S
C2977 C2978 1.387 . S
C2978 H2963 0.930 . S
C2978 C2973 1.390 . S
C2978 C2977 1.387 . S
H2979 C2991 0.905 1_565 S
H2980 C2993 0.930 . S
H2981 C2994 0.930 . S
H2982 C2998 0.959 1_545 S
H2983 C2998 0.959 . S
H2984 C2998 0.961 . S
H2985 C2999 0.960 . S
H2986 C2999 0.961 . S
H2987 C2999 0.959 . S
H2988 C3002 0.929 . S
H2989 C3003 0.931 . S
H2990 C3005 0.930 . S
C2991 H2979 0.905 1_545 S
C2991 C2992 1.399 . S
C2991 C2996 1.399 . S
C2992 C2991 1.399 . S
C2992 C2993 1.376 . S
C2993 H2980 0.930 . S
C2993 C2992 1.376 . S
C2993 C2994 1.388 . S
C2994 H2981 0.930 . S
C2994 C2993 1.388 . S
C2994 C2995 1.390 . S
C2995 C2994 1.390 . S
C2995 C2996 1.394 . S
C2995 C3001 1.465 . S
C2996 C2991 1.399 . S
C2996 C2995 1.394 . S
C2996 C2997 1.516 1_545 S
C2997 C2996 1.516 1_565 S
C2997 C2998 1.502 . S
C2997 C2999 1.561 . S
C2997 C3000 1.505 1_565 S
C2998 H2982 0.959 1_565 S
C2998 H2983 0.959 . S
C2998 H2984 0.961 . S
C2998 C2997 1.502 . S
C2999 H2985 0.960 . S
C2999 H2986 0.961 . S
C2999 H2987 0.959 . S
C2999 C2997 1.561 . S
C3000 C2997 1.505 1_545 S
C3000 C3001 1.405 . S
C3000 C3005 1.402 1_545 S
C3001 C2995 1.465 . S
C3001 C3000 1.405 . S
C3001 C3002 1.399 . S
C3002 H2988 0.929 . S
C3002 C3001 1.399 . S
C3002 C3003 1.385 . S
C3003 H2989 0.931 . S
C3003 C3002 1.385 . S
C3003 C3004 1.389 . S
C3004 C3003 1.389 . S
C3004 C3005 1.387 1_545 S
C3005 H2990 0.930 . S
C3005 C3000 1.402 1_565 S
C3005 C3004 1.387 1_565 S
C1075 C8 1.329 . S
C1087 C670 1.422 . S
C1102 C18 1.454 . S
C1114 C716 1.498 . S
C1141 C748 1.490 . S
C1129 C31 1.359 . S
C1156 C34 1.376 1_565 S
C1168 C801 1.464 . S
C1183 C5 1.372 . S
C1195 C847 1.477 . S
C1210 C21 1.472 . S
C1222 C886 1.520 . S
C1237 C47 1.372 . S
C1249 C840 1.441 . S
C1276 C893 1.512 . S
C1264 C57 1.453 . S
C1303 C794 1.493 . S
C1291 C70 1.376 . S
C1318 C73 1.313 . S
C1330 C755 1.441 . S
C1357 C649 1.488 . S
C1345 C44 1.451 . S
C1372 C60 1.520 . S
C1384 C695 1.536 . S
C1399 C86 1.536 . S
C1411 C925 1.610 . S
C1426 C96 1.517 . S
C1438 C992 1.535 . S
C1465 C1038 1.617 . S
C1453 C109 1.615 . S
C1480 C112 1.595 . S
C1492 C249 1.579 . S
C1507 C83 1.569 . S
C1519 C295 1.596 . S
C1534 C99 1.520 . S
C1546 C341 1.575 . S
C1561 C125 1.446 . S
C1573 C288 1.492 . S
C1588 C135 1.559 . S
C1600 C334 1.566 . S
C1627 C242 1.588 . S
C1615 C148 1.565 . S
C1654 C1017 1.648 . S
C1642 C151 1.624 . S
C1681 C946 1.577 . S
C1669 C122 1.547 . S
C1708 C971 1.589 . S
C1696 C138 1.549 . S
C1723 C164 1.482 . S
C1735 C373 1.541 . S
C1750 C174 1.543 . S
C1762 C426 1.565 . S
C1777 C187 1.565 . S
C1789 C472 1.605 . S
C1804 C190 1.668 . S
C1816 C518 1.695 . S
C1843 C571 1.615 . S
C1831 C161 1.613 . S
C1870 C617 1.588 . S
C1858 C177 1.554 . S
C1897 C564 1.597 . S
C1885 C203 1.545 . S
C1924 C610 1.581 . S
C1912 C213 1.579 . S
C1939 C226 1.561 . S
C1951 C525 1.583 . S
C1978 C479 1.606 . S
C1966 C229 1.555 . S
C1993 C200 1.555 . S
C2005 C394 1.602 . S
C2032 C433 1.593 . S
C2020 C216 1.580 . S
C2059 C256 1.492 . S
C2047 C0 1.499 . S
C2074 C23 1.441 . S
C2086 C302 1.454 . S
C2113 C348 1.504 . S
C2101 C36 1.549 . S
C2140 C380 1.525 . S
C2128 C26 1.499 . S
C2167 C419 1.496 . S
C2155 C10 1.517 . S
C2194 C465 1.458 . S
C2182 C13 1.388 . S
C2209 C39 1.506 . S
C2221 C486 1.492 . S
C2236 C62 1.442 . S
C2248 C387 1.387 . S
C2263 C75 1.523 . S
C2275 C440 1.455 . S
C2290 C65 1.546 . S
C2302 C281 1.554 . S
C2329 C327 1.493 . S
C2317 C49 1.512 . S
C2344 C52 1.426 . S
C2356 C235 1.426 . S
C2383 C511 1.482 . S
C2371 C78 1.377 . S
C2398 C101 1.550 . S
C2410 C578 1.556 . S
C2425 C114 1.553 . S
C2437 C624 1.561 . S
C2464 C663 1.305 . S
C2452 C104 1.263 . S
C2479 C88 1.444 . S
C2491 C709 1.449 . S
C2506 C91 1.161 . S
C2518 C741 1.220 . S
C2533 C117 1.209 . S
C2545 C762 1.251 . S
C2560 C140 1.257 . S
C2572 C656 1.232 . S
C2599 C702 1.455 . S
C2587 C153 1.462 . S
C2614 C143 1.492 . S
C2626 C557 1.483 . S
C2641 C127 1.565 . S
C2653 C603 1.516 . S
C2680 C532 1.562 . S
C2668 C130 1.479 . S
C2707 C808 1.263 . S
C2695 C156 1.270 . S
C2722 C179 1.247 . S
C2734 C854 1.228 . S
C2749 C192 1.446 . S
C2761 C879 1.451 . S
C2788 C932 1.475 . S
C2776 C182 1.409 . S
C2815 C985 1.517 . S
C2803 C166 1.568 . S
C2830 C169 1.548 . S
C2842 C1031 1.527 . S
C2857 C195 1.422 . S
C2869 C1024 1.498 . S
C2884 C218 1.540 . S
C2896 C939 1.526 . S
C2923 C978 1.508 . S
C2911 C231 1.539 . S
C2950 C833 1.282 . S
C2938 C221 1.281 . S
C2977 C900 1.436 . S
C2965 C205 1.448 . S
C2992 C208 1.216 . S
C3004 C787 1.217 . S
