# Generated by pormake.
# Topology pyr, (3,6)-cn, num edge types: 1
# Building blocks:
#     Node 0, Type 0, BuildingBlock: BELTOD_clean_linker_0, # of connection points: 3
#     Node 1, Type 0, BuildingBlock: BELTOD_clean_linker_0, # of connection points: 3
#     Node 2, Type 0, BuildingBlock: BELTOD_clean_linker_0, # of connection points: 3
#     Node 3, Type 0, BuildingBlock: BELTOD_clean_linker_0, # of connection points: 3
#     Node 4, Type 0, BuildingBlock: BELTOD_clean_linker_0, # of connection points: 3
#     Node 5, Type 0, BuildingBlock: BELTOD_clean_linker_0, # of connection points: 3
#     Node 6, Type 0, BuildingBlock: BELTOD_clean_linker_0, # of connection points: 3
#     Node 7, Type 0, BuildingBlock: BELTOD_clean_linker_0, # of connection points: 3
#     Node 8, Type 1, BuildingBlock: BETGAK_clean_sbu_0, # of connection points: 6
#     Node 9, Type 1, BuildingBlock: BETGAK_clean_sbu_0, # of connection points: 6
#     Node 10, Type 1, BuildingBlock: BETGAK_clean_sbu_0, # of connection points: 6
#     Node 11, Type 1, BuildingBlock: BETGAK_clean_sbu_0, # of connection points: 6
#     Edge 12, Type (0, 1), BuildingBlock: AJUNOK_clean_linker_0, # of connection points: 2
#     Edge 13, Type (0, 1), BuildingBlock: AJUNOK_clean_linker_0, # of connection points: 2
#     Edge 14, Type (0, 1), BuildingBlock: AJUNOK_clean_linker_0, # of connection points: 2
#     Edge 15, Type (0, 1), BuildingBlock: AJUNOK_clean_linker_0, # of connection points: 2
#     Edge 16, Type (0, 1), BuildingBlock: AJUNOK_clean_linker_0, # of connection points: 2
#     Edge 17, Type (0, 1), BuildingBlock: AJUNOK_clean_linker_0, # of connection points: 2
#     Edge 18, Type (0, 1), BuildingBlock: AJUNOK_clean_linker_0, # of connection points: 2
#     Edge 19, Type (0, 1), BuildingBlock: AJUNOK_clean_linker_0, # of connection points: 2
#     Edge 20, Type (0, 1), BuildingBlock: AJUNOK_clean_linker_0, # of connection points: 2
#     Edge 21, Type (0, 1), BuildingBlock: AJUNOK_clean_linker_0, # of connection points: 2
#     Edge 22, Type (0, 1), BuildingBlock: AJUNOK_clean_linker_0, # of connection points: 2
#     Edge 23, Type (0, 1), BuildingBlock: AJUNOK_clean_linker_0, # of connection points: 2
#     Edge 24, Type (0, 1), BuildingBlock: AJUNOK_clean_linker_0, # of connection points: 2
#     Edge 25, Type (0, 1), BuildingBlock: AJUNOK_clean_linker_0, # of connection points: 2
#     Edge 26, Type (0, 1), BuildingBlock: AJUNOK_clean_linker_0, # of connection points: 2
#     Edge 27, Type (0, 1), BuildingBlock: AJUNOK_clean_linker_0, # of connection points: 2
#     Edge 28, Type (0, 1), BuildingBlock: AJUNOK_clean_linker_0, # of connection points: 2
#     Edge 29, Type (0, 1), BuildingBlock: AJUNOK_clean_linker_0, # of connection points: 2
#     Edge 30, Type (0, 1), BuildingBlock: AJUNOK_clean_linker_0, # of connection points: 2
#     Edge 31, Type (0, 1), BuildingBlock: AJUNOK_clean_linker_0, # of connection points: 2
#     Edge 32, Type (0, 1), BuildingBlock: AJUNOK_clean_linker_0, # of connection points: 2
#     Edge 33, Type (0, 1), BuildingBlock: AJUNOK_clean_linker_0, # of connection points: 2
#     Edge 34, Type (0, 1), BuildingBlock: AJUNOK_clean_linker_0, # of connection points: 2
#     Edge 35, Type (0, 1), BuildingBlock: AJUNOK_clean_linker_0, # of connection points: 2
# Relax obj value: 0.155
# Max RMSD: 0.135
# Mean RMSD: 0.066
data_MOF--net-pyr--node1-BETGAK_clean_sbu_0--node2-BELTOD_clean_linker_0--edge1-AJUNOK_clean_linker_0
_symmetry_space_group_name_H-M    P1
_symmetry_Int_Tables_number       1
_symmetry_cell_setting            triclinic
loop_
_symmetry_equiv_pos_as_xyz
'x, y, z'
_cell_length_a     33.148429
_cell_length_b     35.233949
_cell_length_c     31.168065
_cell_angle_alpha  90.600535
_cell_angle_beta   88.266897
_cell_angle_gamma 104.24589
loop_
_atom_site_label
_atom_site_type_symbol
_atom_site_fract_x
_atom_site_fract_y
_atom_site_fract_z
_atom_type_partial_charge
P0 P 0.4149 0.36796 0.27351 0.0
H1 H 0.48492 0.35115 0.22393 0.0
H2 H 0.50054 0.28977 0.19942 0.0
H3 H 0.3881 0.22432 0.26391 0.0
H4 H 0.37172 0.28528 0.28637 0.0
H5 H 0.40474 0.4457 0.25423 0.0
H6 H 0.35095 0.46545 0.21413 0.0
H7 H 0.31132 0.34833 0.16279 0.0
H8 H 0.36517 0.32894 0.20228 0.0
H9 H 0.42325 0.34179 0.36079 0.0
H10 H 0.32699 0.37083 0.2867 0.0
O11 O 0.45798 0.40124 0.28663 0.0
H12 H 0.37063 0.31219 0.41577 0.0
H13 H 0.27526 0.3408 0.34004 0.0
C14 C 0.42764 0.32286 0.25762 0.0
C15 C 0.46379 0.32355 0.23289 0.0
C16 C 0.47271 0.2885 0.21905 0.0
C17 C 0.4454 0.25223 0.22956 0.0
C18 C 0.40937 0.25176 0.25465 0.0
C19 C 0.40031 0.28673 0.26805 0.0
C20 C 0.38933 0.386 0.2309 0.0
C21 C 0.38591 0.42485 0.23259 0.0
C22 C 0.35491 0.436 0.21002 0.0
C23 C 0.32691 0.40838 0.18548 0.0
C24 C 0.33286 0.37042 0.18082 0.0
C25 C 0.36379 0.3593 0.20346 0.0
C26 C 0.37927 0.35812 0.31925 0.0
C27 C 0.3912 0.34288 0.35688 0.0
C28 C 0.36111 0.32571 0.38804 0.0
C29 C 0.31874 0.32345 0.38167 0.0
C30 C 0.30762 0.3421 0.34594 0.0
C31 C 0.33752 0.35918 0.31501 0.0
P32 P 0.3794 0.98615 0.60297 0.0
H33 H 0.43231 1.0348 0.66702 0.0
H34 H 0.43236 1.03021 0.74557 0.0
H35 H 0.34061 0.91972 0.74066 0.0
H36 H 0.34067 0.92413 0.66273 0.0
H37 H 0.45133 0.96122 0.56888 0.0
H38 H 0.46184 0.89536 0.55861 0.0
H39 H 0.32968 0.84653 0.57553 0.0
H40 H 0.31904 0.91236 0.58468 0.0
H41 H 0.31923 1.00618 0.66526 0.0
H42 H 0.32714 0.98502 0.52889 0.0
O43 O 0.4152 1.02426 0.5831 0.0
H44 H 0.24838 1.01189 0.65897 0.0
H45 H 0.25644 0.99362 0.52196 0.0
C46 C 0.38695 0.97958 0.65899 0.0
C47 C 0.41318 1.00907 0.68274 0.0
C48 C 0.41319 1.00643 0.72747 0.0
C49 C 0.38653 0.97454 0.74874 0.0
C50 C 0.36149 0.94444 0.72478 0.0
C51 C 0.36185 0.94685 0.68022 0.0
C52 C 0.38443 0.94167 0.57731 0.0
C53 C 0.42437 0.93656 0.568 0.0
C54 C 0.43037 0.89896 0.56217 0.0
C55 C 0.39651 0.86618 0.56638 0.0
C56 C 0.35612 0.87154 0.57182 0.0
C57 C 0.35009 0.90916 0.57692 0.0
C58 C 0.32829 0.99423 0.59755 0.0
C59 C 0.30594 1.00289 0.63379 0.0
C60 C 0.2654 1.0068 0.63015 0.0
C61 C 0.24689 1.00347 0.58997 0.0
C62 C 0.26977 0.99589 0.55347 0.0
C63 C 0.31021 0.99128 0.55727 0.0
P64 P 0.6849 0.36478 0.87771 0.0
H65 H 0.71887 0.34595 0.95845 0.0
H66 H 0.7759 0.38137 1.00224 0.0
H67 H 0.79075 0.48269 0.92107 0.0
H68 H 0.73247 0.44769 0.87856 0.0
H69 H 0.66466 0.28084 0.85769 0.0
H70 H 0.62878 0.22277 0.8974 0.0
H71 H 0.59138 0.29574 0.99541 0.0
H72 H 0.62955 0.35438 0.956 0.0
H73 H 0.71675 0.41357 0.8035 0.0
H74 H 0.59945 0.37908 0.87338 0.0
O75 O 0.7165 0.3466 0.8452 0.0
H76 H 0.68568 0.44834 0.75158 0.0
H77 H 0.56771 0.41398 0.82062 0.0
C78 C 0.72008 0.39434 0.91576 0.0
C79 C 0.73319 0.37629 0.95094 0.0
C80 C 0.76641 0.39646 0.9757 0.0
C81 C 0.788 0.43511 0.96556 0.0
C82 C 0.77434 0.45339 0.93071 0.0
C83 C 0.74085 0.43324 0.90615 0.0
C84 C 0.65035 0.32233 0.90385 0.0
C85 C 0.64864 0.28465 0.88758 0.0
C86 C 0.62785 0.25115 0.91047 0.0
C87 C 0.60764 0.25411 0.95031 0.0
C88 C 0.60762 0.29201 0.96562 0.0
C89 C 0.62886 0.32572 0.94271 0.0
C90 C 0.6605 0.39317 0.84233 0.0
C91 C 0.68419 0.41347 0.8078 0.0
C92 C 0.66626 0.43325 0.77778 0.0
C93 C 0.62389 0.43337 0.78118 0.0
C94 C 0.60038 0.41433 0.81681 0.0
C95 C 0.61848 0.3943 0.84702 0.0
P96 P 0.83989 0.71722 0.37028 0.0
H97 H 0.8948 0.78952 0.33584 0.0
H98 H 0.93212 0.85094 0.36927 0.0
H99 H 0.89528 0.80057 0.49444 0.0
H100 H 0.86055 0.73885 0.46092 0.0
H101 H 0.8097 0.65864 0.30446 0.0
H102 H 0.84333 0.621 0.25488 0.0
H103 H 0.96121 0.66988 0.3136 0.0
H104 H 0.92723 0.70834 0.36269 0.0
H105 H 0.78473 0.7424 0.43309 0.0
H106 H 0.80546 0.63217 0.38901 0.0
O107 O 0.81325 0.73656 0.33557 0.0
H108 H 0.72704 0.70763 0.4797 0.0
H109 H 0.7466 0.5972 0.4348 0.0
C110 C 0.87451 0.75935 0.39566 0.0
C111 C 0.89567 0.79138 0.37052 0.0
C112 C 0.91663 0.82677 0.38975 0.0
C113 C 0.91696 0.83116 0.43475 0.0
C114 C 0.89676 0.79844 0.45979 0.0
C115 C 0.87634 0.76293 0.44052 0.0
C116 C 0.86577 0.68645 0.33749 0.0
C117 C 0.84278 0.66115 0.30694 0.0
C118 C 0.86213 0.63951 0.27849 0.0
C119 C 0.90525 0.64257 0.27954 0.0
C120 C 0.92817 0.66735 0.31094 0.0
C121 C 0.90866 0.6891 0.33951 0.0
C122 C 0.80032 0.69014 0.40802 0.0
C123 C 0.77737 0.71071 0.43387 0.0
C124 C 0.74417 0.69079 0.46041 0.0
C125 C 0.73214 0.64966 0.46092 0.0
C126 C 0.75497 0.62892 0.43494 0.0
C127 C 0.78883 0.64896 0.40888 0.0
P128 P 0.69142 0.83983 0.88785 0.0
H129 H 0.66681 0.83639 0.97821 0.0
H130 H 0.6197 0.86954 1.01587 0.0
H131 H 0.56838 0.89003 0.89514 0.0
H132 H 0.61462 0.85572 0.85769 0.0
H133 H 0.77931 0.84504 0.88553 0.0
H134 H 0.82183 0.80394 0.91293 0.0
H135 H 0.7118 0.72558 0.96815 0.0
H136 H 0.66887 0.76747 0.94047 0.0
H137 H 0.68233 0.88449 0.81279 0.0
H138 H 0.69142 0.76717 0.83967 0.0
O139 O 0.72135 0.88546 0.88947 0.0
H140 H 0.712 0.88043 0.74181 0.0
H141 H 0.72101 0.76256 0.76775 0.0
C142 C 0.64405 0.8432 0.91515 0.0
C143 C 0.64368 0.84574 0.96002 0.0
C144 C 0.61709 0.86519 0.9815 0.0
C145 C 0.59091 0.88282 0.9583 0.0
C146 C 0.58799 0.87645 0.91385 0.0
C147 C 0.61447 0.85673 0.89241 0.0
C148 C 0.72118 0.80999 0.91229 0.0
C149 C 0.76426 0.81939 0.90414 0.0
C150 C 0.78851 0.79562 0.91931 0.0
C151 C 0.77012 0.76171 0.94277 0.0
C152 C 0.72675 0.75191 0.95063 0.0
C153 C 0.7023 0.77581 0.93507 0.0
C154 C 0.6866 0.82692 0.83203 0.0
C155 C 0.68834 0.85689 0.80248 0.0
C156 C 0.70518 0.8543 0.76139 0.0
C157 C 0.72038 0.82158 0.74959 0.0
C158 C 0.71052 0.7885 0.77637 0.0
C159 C 0.69372 0.79121 0.81764 0.0
P160 P 0.89387 0.3029 0.4312 0.0
H161 H 0.89308 0.3689 0.48976 0.0
H162 H 0.83622 0.3974 0.51608 0.0
H163 H 0.74757 0.30622 0.4511 0.0
H164 H 0.80394 0.27838 0.42448 0.0
H165 H 0.96272 0.2667 0.44258 0.0
H166 H 0.96613 0.20267 0.46954 0.0
H167 H 0.83438 0.17534 0.50071 0.0
H168 H 0.83111 0.23936 0.47435 0.0
H169 H 0.86542 0.34871 0.36652 0.0
H170 H 0.89378 0.23575 0.37373 0.0
O171 O 0.93921 0.33624 0.43409 0.0
H172 H 0.82934 0.32888 0.29936 0.0
H173 H 0.85844 0.21636 0.3067 0.0
C174 C 0.85265 0.3216 0.45518 0.0
C175 C 0.86135 0.35487 0.48162 0.0
C176 C 0.82902 0.37112 0.49655 0.0
C177 C 0.78774 0.35388 0.4855 0.0
C178 C 0.77912 0.31976 0.46037 0.0
C179 C 0.81132 0.30392 0.44514 0.0
C180 C 0.89693 0.2583 0.45714 0.0
C181 C 0.93473 0.24729 0.45597 0.0
C182 C 0.93652 0.21056 0.47088 0.0
C183 C 0.90043 0.18413 0.48705 0.0
C184 C 0.86267 0.19534 0.48876 0.0
C185 C 0.8609 0.23209 0.47368 0.0
C186 C 0.88114 0.2933 0.37579 0.0
C187 C 0.86512 0.3202 0.353 0.0
C188 C 0.84458 0.30895 0.31473 0.0
C189 C 0.84076 0.27099 0.29848 0.0
C190 C 0.86104 0.2458 0.31874 0.0
C191 C 0.88104 0.25685 0.35728 0.0
P192 P 0.38696 0.71337 0.24801 0.0
H193 H 0.33617 0.73948 0.18522 0.0
H194 H 0.26857 0.70909 0.15549 0.0
H195 H 0.24989 0.61754 0.25039 0.0
H196 H 0.3186 0.6472 0.27868 0.0
H197 H 0.45987 0.76213 0.2028 0.0
H198 H 0.48052 0.83141 0.18404 0.0
H199 H 0.37609 0.8516 0.25873 0.0
H200 H 0.35486 0.78139 0.27709 0.0
H201 H 0.45741 0.68164 0.26899 0.0
H202 H 0.35137 0.70492 0.33797 0.0
O203 O 0.41066 0.69339 0.209 0.0
H204 H 0.47598 0.65041 0.33227 0.0
H205 H 0.37042 0.67355 0.40239 0.0
C206 C 0.33232 0.69641 0.23512 0.0
C207 C 0.31714 0.71343 0.20048 0.0
C208 C 0.27838 0.69581 0.18323 0.0
C209 C 0.25375 0.66038 0.19992 0.0
C210 C 0.2683 0.64421 0.23584 0.0
C211 C 0.30738 0.66168 0.25278 0.0
C212 C 0.40548 0.7662 0.24114 0.0
C213 C 0.4414 0.78128 0.2156 0.0
C214 C 0.4532 0.82103 0.20466 0.0
C215 C 0.42984 0.84707 0.21955 0.0
C216 C 0.39487 0.83237 0.24685 0.0
C217 C 0.38274 0.79225 0.25743 0.0
C218 C 0.40229 0.69495 0.29805 0.0
C219 C 0.438 0.68018 0.29778 0.0
C220 C 0.44867 0.66213 0.33413 0.0
C221 C 0.42423 0.65862 0.37221 0.0
C222 C 0.38971 0.67543 0.37344 0.0
C223 C 0.37877 0.69336 0.33663 0.0
P224 P 0.1764 0.37537 0.78956 0.0
H225 H 0.20798 0.33921 0.71504 0.0
H226 H 0.1798 0.28173 0.67173 0.0
H227 H 0.06164 0.26528 0.73991 0.0
H228 H 0.09023 0.32358 0.78376 0.0
H229 H 0.26663 0.38929 0.80115 0.0
H230 H 0.32712 0.42234 0.75796 0.0
H231 H 0.24706 0.46222 0.6714 0.0
H232 H 0.18593 0.42741 0.7143 0.0
H233 H 0.10648 0.35416 0.85265 0.0
H234 H 0.18117 0.46056 0.79651 0.0
O235 O 0.19458 0.35141 0.82745 0.0
H236 H 0.07347 0.39263 0.90219 0.0
H237 H 0.14971 0.49898 0.84683 0.0
C238 C 0.15106 0.33712 0.75216 0.0
C239 C 0.17553 0.32433 0.72007 0.0
C240 C 0.15935 0.29105 0.6951 0.0
C241 C 0.11816 0.26894 0.70164 0.0
C242 C 0.09346 0.28165 0.73376 0.0
C243 C 0.10973 0.31531 0.75873 0.0
C244 C 0.22148 0.40613 0.76141 0.0
C245 C 0.26185 0.40567 0.77339 0.0
C246 C 0.29672 0.42495 0.74865 0.0
C247 C 0.29229 0.44563 0.71139 0.0
C248 C 0.25175 0.44666 0.69986 0.0
C249 C 0.21675 0.42706 0.72457 0.0
C250 C 0.14549 0.40405 0.81933 0.0
C251 C 0.11496 0.38575 0.84989 0.0
C252 C 0.09655 0.40792 0.87894 0.0
C253 C 0.10833 0.4492 0.87859 0.0
C254 C 0.13865 0.46741 0.84758 0.0
C255 C 0.15687 0.44522 0.81847 0.0
La256 La 0.04026 0.06926 0.52021 0.0
La257 La 1.00421 1.03287 0.60342 0.0
C258 C 0.06674 0.11553 0.45896 0.0
C259 C 0.10191 0.15024 0.45687 0.0
C260 C 0.13546 0.15338 0.48432 0.0
C261 C 0.17072 0.18437 0.47998 0.0
C262 C 0.17299 0.21271 0.44816 0.0
C263 C 0.13853 0.21068 0.42221 0.0
C264 C 0.10319 0.17951 0.42648 0.0
C265 C 0.0844 1.02632 0.55686 0.0
C266 C 0.05793 0.12045 0.60711 0.0
C267 C 0.98471 0.99595 0.6718 0.0
C268 C 0.94777 0.96325 0.68033 0.0
C269 C 0.90893 0.97112 0.68995 0.0
C270 C 0.87284 0.94092 0.6911 0.0
C271 C 0.87467 0.90211 0.68305 0.0
C272 C 0.9135 0.89375 0.67534 0.0
C273 C 0.94979 0.92413 0.67374 0.0
C274 C 0.95137 1.05595 0.55374 0.0
C275 C 0.98814 0.9832 0.51813 0.0
O276 O 0.07714 0.08253 0.46413 0.0
O277 O 0.03525 0.11811 0.48407 0.0
O278 O 0.07899 1.02775 0.51612 0.0
O279 O 0.06591 1.04927 0.57567 0.0
O280 O 0.0662 0.11743 0.56533 0.0
O281 O 0.03493 0.09039 0.62906 0.0
O282 O 0.9771 1.03025 0.66518 0.0
O283 O 1.01245 0.98849 0.6441 0.0
O284 O 0.94001 1.02781 0.58118 0.0
O285 O 0.98872 0.07167 0.55946 0.0
O286 O 0.99643 0.98299 0.55937 0.0
O287 O 0.99541 1.01676 0.4968 0.0
H288 H 0.13488 0.13125 0.50838 0.0
H289 H 0.1967 0.18563 0.50068 0.0
H290 H 0.13974 0.23218 0.39729 0.0
H291 H 0.07749 0.17762 0.40525 0.0
H292 H 0.90614 1.00077 0.69556 0.0
H293 H 0.84336 0.94789 0.69877 0.0
H294 H 0.91564 0.86387 0.67004 0.0
H295 H 0.97925 0.91709 0.66631 0.0
La296 La 0.54747 0.06715 0.12222 0.0
La297 La 0.46912 1.05239 0.08049 0.0
C298 C 0.62358 0.08323 0.13999 0.0
C299 C 0.65593 0.11639 0.15502 0.0
C300 C 0.69458 0.11021 0.1653 0.0
C301 C 0.72512 0.14059 0.18241 0.0
C302 C 0.71757 0.17778 0.18924 0.0
C303 C 0.67923 0.18426 0.17719 0.0
C304 C 0.64839 0.15357 0.16069 0.0
C305 C 0.48945 1.00854 0.15786 0.0
C306 C 0.48658 0.11322 0.1569 0.0
C307 C 0.39483 1.03438 1.05719 0.0
C308 C 0.37743 1.01446 1.01768 0.0
C309 C 0.35958 1.03498 0.98827 0.0
C310 C 0.35434 1.02206 0.94585 0.0
C311 C 0.36674 0.98839 0.93249 0.0
C312 C 0.38015 0.96556 0.96294 0.0
C313 C 0.38568 0.97855 1.00526 0.0
C314 C 0.5278 0.10764 1.04152 0.0
C315 C 0.53089 1.00698 1.04322 0.0
O316 O 0.59335 0.06894 0.16757 0.0
O317 O 0.60997 0.08629 0.10157 0.0
O318 O 0.51642 1.03428 0.17883 0.0
O319 O 0.49649 1.01608 0.11861 0.0
O320 O 0.52647 0.11573 0.14967 0.0
O321 O 0.45851 0.08488 0.1387 0.0
O322 O 0.42004 0.06883 1.05093 0.0
O323 O 0.40973 1.01362 0.08437 0.0
O324 O 0.50061 0.08057 1.02232 0.0
O325 O 0.52134 0.10326 0.0816 0.0
O326 O 0.49144 1.00806 1.04469 0.0
O327 O 0.55802 1.03009 0.06821 0.0
H328 H 0.70074 0.08156 0.16116 0.0
H329 H 0.75408 0.13449 0.19182 0.0
H330 H 0.67276 0.21276 0.18135 0.0
H331 H 0.61845 0.15855 0.15324 0.0
H332 H 0.35292 0.06267 0.99718 0.0
H333 H 0.34369 1.03999 0.92282 0.0
H334 H 0.38875 0.93895 0.9533 0.0
H335 H 0.39916 0.96185 1.02727 0.0
La336 La 0.51077 0.50917 0.55547 0.0
La337 La 0.51247 0.57608 0.61141 0.0
C338 C 0.53045 0.45496 0.513 0.0
C339 C 0.56889 0.44154 0.51169 0.0
C340 C 0.56859 0.40384 0.49701 0.0
C341 C 0.60529 0.39107 0.49609 0.0
C342 C 0.64271 0.41589 0.50992 0.0
C343 C 0.64269 0.45354 0.52509 0.0
C344 C 0.60609 0.46632 0.52581 0.0
C345 C 0.44031 0.50424 0.60031 0.0
C346 C 0.55108 0.51216 0.64765 0.0
C347 C 0.48954 0.6287 0.6537 0.0
C348 C 0.47239 0.66146 0.64089 0.0
C349 C 0.48562 0.69797 0.66101 0.0
C350 C 0.47106 0.72976 0.64756 0.0
C351 C 0.44359 0.7255 0.6134 0.0
C352 C 0.43001 0.68893 0.59356 0.0
C353 C 0.44401 0.65704 0.60745 0.0
C354 C 0.58385 0.58154 0.56806 0.0
C355 C 0.47688 0.57538 0.51544 0.0
O356 O 0.50909 0.44929 0.54927 0.0
O357 O 0.53415 0.49019 0.49819 0.0
O358 O 0.44251 0.49169 0.56132 0.0
O359 O 0.47686 0.51695 0.6131 0.0
O360 O 0.55326 0.50219 0.60665 0.0
O361 O 0.53097 0.53894 0.65899 0.0
O362 O 0.52827 0.63118 0.64179 0.0
O363 O 0.46577 0.59367 0.64725 0.0
O364 O 0.58048 0.59392 0.60707 0.0
O365 O 0.54757 0.56837 0.55415 0.0
O366 O 0.48217 0.59211 0.55391 0.0
O367 O 0.48801 0.54248 0.5076 0.0
H368 H 0.54007 0.38438 0.48612 0.0
H369 H 0.60456 0.36198 0.48397 0.0
H370 H 0.67085 0.47295 0.53679 0.0
H371 H 0.60678 0.4955 0.53761 0.0
H372 H 0.50744 0.70194 0.68684 0.0
H373 H 0.48175 0.75785 0.66331 0.0
H374 H 0.40838 0.68501 0.56755 0.0
H375 H 0.43275 0.62904 0.5918 0.0
La376 La 1.02007 0.508 0.10703 0.0
La377 La 1.01562 0.58801 0.06883 0.0
C378 C 0.04284 0.4479 0.12804 0.0
C379 C 0.08377 0.43896 0.13099 0.0
C380 C 0.09106 0.41632 0.16523 0.0
C381 C 0.13079 0.41062 0.17094 0.0
C382 C 0.16382 0.42721 0.14225 0.0
C383 C 0.15617 0.44884 0.10717 0.0
C384 C 0.11657 0.45502 0.10183 0.0
C385 C 0.97983 0.55082 0.15431 0.0
C386 C 0.09733 0.58384 0.1159 0.0
C387 C 0.99282 0.65079 1.06505 0.0
C388 C 0.96238 0.66605 1.04199 0.0
C389 C 0.93936 0.64451 1.00886 0.0
C390 C 0.90608 0.65679 0.99182 0.0
C391 C 0.89515 0.69033 1.00826 0.0
C392 C 0.91917 0.71233 1.04051 0.0
C393 C 0.95243 0.70019 1.05731 0.0
C394 C 0.0447 0.54487 1.00927 0.0
C395 C 0.94222 0.51099 1.05292 0.0
O396 O 0.03547 0.47374 0.15574 0.0
O397 O 0.03092 0.45368 0.08946 0.0
O398 O 0.96945 0.5128 0.15265 0.0
O399 O 1.01237 0.56278 0.13128 0.0
O400 O 0.08356 0.54502 0.11607 0.0
O401 O 0.0747 0.60688 0.10119 0.0
O402 O 0.02511 0.64464 1.04307 0.0
O403 O 0.97611 0.62202 0.09123 0.0
O404 O 0.03918 0.57963 1.00277 0.0
O405 O 0.03396 0.53721 1.04802 0.0
O406 O 0.95449 0.54982 1.05408 0.0
O407 O 0.96495 0.48833 0.06835 0.0
H408 H 0.06626 0.40389 0.1882 0.0
H409 H 0.13591 0.39373 0.1982 0.0
H410 H 0.18126 0.4626 0.08511 0.0
H411 H 0.11206 0.47345 0.07579 0.0
H412 H 0.94632 0.6177 0.99715 0.0
H413 H 0.88814 0.63953 0.96677 0.0
H414 H 0.91198 0.73879 1.05299 0.0
H415 H 0.96966 0.71688 0.08319 0.0
C416 C 0.24933 0.30889 0.42036 0.0
C417 C 0.28539 0.29688 0.4075 0.0
C418 C 0.21348 0.2818 0.43556 0.0
C419 C 0.21263 0.24187 0.43879 0.0
H420 H 0.2482 0.33915 0.41667 0.0
H421 H 0.18578 0.29188 0.44341 0.0
S422 S 0.29892 0.19546 0.41061 0.0
N423 N 0.31812 0.24236 0.40014 0.0
N424 N 0.25103 0.19172 0.42943 0.0
C425 C 0.24906 0.22979 0.42826 0.0
C426 C 0.28543 0.25725 0.41252 0.0
C427 C 0.34242 0.97422 0.81477 0.0
C428 C 0.38158 0.97455 0.79587 0.0
C429 C 0.33737 0.97749 0.8593 0.0
C430 C 0.37118 0.98045 0.88626 0.0
H431 H 0.31584 0.97273 0.79485 0.0
H432 H 0.30707 0.97837 0.8727 0.0
S433 S 0.47962 0.98092 0.8525 0.0
N434 N 0.45428 0.97688 0.80718 0.0
N435 N 0.44488 0.9827 0.89111 0.0
C436 C 0.41021 0.97961 0.86779 0.0
C437 C 0.41542 0.9768 0.82246 0.0
C438 C 0.58095 0.47976 0.75751 0.0
C439 C 0.60465 0.45262 0.74694 0.0
C440 C 0.56433 0.49916 0.72545 0.0
C441 C 0.57025 0.49206 0.68124 0.0
H442 H 0.57573 0.48657 0.79087 0.0
H443 H 0.54648 0.51978 0.73555 0.0
S444 S 0.62772 0.4215 0.63653 0.0
N445 N 0.63153 0.41839 0.68898 0.0
N446 N 0.60067 0.45434 0.62923 0.0
C447 C 0.59339 0.46442 0.67041 0.0
C448 C 0.61043 0.44491 0.703 0.0
C449 C 0.90646 0.58031 0.23846 0.0
C450 C 0.9256 0.61982 0.24784 0.0
C451 C 0.9241 0.55851 0.20825 0.0
C452 C 0.96164 0.57515 0.18566 0.0
H453 H 0.87762 0.56585 0.25493 0.0
H454 H 0.90803 0.52827 0.20253 0.0
S455 S 0.02437 0.67756 0.19729 0.0
N456 N 0.98425 0.67478 0.23087 0.0
N457 N 1.01766 0.63374 0.17518 0.0
C458 C 0.98125 0.61457 0.19468 0.0
C459 C 0.96327 0.63682 0.22545 0.0
C460 C 0.49421 0.20876 0.21712 0.0
C461 C 0.45417 0.21507 0.21364 0.0
C462 C 0.50381 0.17486 0.20038 0.0
C463 C 0.47376 0.14585 0.1795 0.0
H464 H 0.51846 0.23039 0.23258 0.0
H465 H 0.5354 0.17187 0.20306 0.0
S466 S 0.36412 0.14852 0.16188 0.0
N467 N 0.38423 0.18968 0.18762 0.0
N468 N 0.4019 0.12565 0.15688 0.0
C469 C 0.43323 0.15136 0.17678 0.0
C470 C 0.42355 0.18603 0.19363 0.0
C471 C 0.17565 0.98109 0.56047 0.0
C472 C 0.20375 1.00768 0.58602 0.0
C473 C 0.13578 0.98604 0.55347 0.0
C474 C 0.12241 1.01737 0.57225 0.0
H475 H 0.18484 0.95671 0.54501 0.0
H476 H 0.11572 0.96593 0.53205 0.0
S477 S 0.18343 0.09481 0.64238 0.0
N478 N 0.21514 0.06647 0.63041 0.0
N479 N 0.13955 0.07483 0.61834 0.0
C480 C 0.14934 1.0432 0.59941 0.0
C481 C 0.19023 1.03858 0.60601 0.0
C482 C 0.85636 0.43442 0.9988 0.0
C483 C 0.82624 0.45504 0.9894 0.0
C484 C 0.89319 0.4525 1.01978 0.0
C485 C 0.90186 0.49218 1.03229 0.0
H486 H 0.85191 0.40411 0.98903 0.0
H487 H 0.91541 0.43526 1.02547 0.0
S488 S 0.83179 0.55868 1.01841 0.0
N489 N 0.80663 0.51693 0.99673 0.0
N490 N 0.87577 0.55103 1.03548 0.0
C491 C 0.87166 0.51303 1.02378 0.0
C492 C 0.83402 0.49451 1.00253 0.0
C493 C 0.69333 0.63763 0.53219 0.0
C494 C 0.69535 0.62904 0.48808 0.0
C495 C 0.65781 0.62102 0.55786 0.0
C496 C 0.62229 0.59567 0.54044 0.0
H497 H 0.71937 0.6577 0.54696 0.0
H498 H 0.65788 0.629 0.59152 0.0
S499 S 0.61162 0.56365 0.4266 0.0
N500 N 0.65897 0.59277 0.42822 0.0
N501 N 0.59191 0.5626 0.47599 0.0
C502 C 0.62413 0.58645 0.49645 0.0
C503 C 0.66066 0.60283 0.47044 0.0
C504 C 0.2626 0.43098 0.20186 0.0
C505 C 0.28763 0.41679 0.1715 0.0
C506 C 0.22286 0.43455 0.19185 0.0
C507 C 0.20665 0.42429 0.15101 0.0
H508 H 0.27318 0.43805 0.2342 0.0
H509 H 0.20451 0.44516 0.21642 0.0
S510 S 0.26038 0.3876 1.05937 0.0
N511 N 0.29409 0.39394 0.09837 0.0
N512 N 0.21908 0.40064 0.07948 0.0
C513 C 0.23174 0.4112 0.11988 0.0
C514 C 0.27224 0.40733 0.13019 0.0
C515 C 0.56447 0.18402 0.95334 0.0
C516 C 0.58704 0.21751 0.97512 0.0
C517 C 0.54625 0.14885 0.97503 0.0
C518 C 0.54939 0.14524 1.01972 0.0
H519 H 0.56045 0.18498 0.91905 0.0
H520 H 0.52918 0.12428 0.95643 0.0
S521 S 0.60563 0.22341 0.09233 0.0
N522 N 0.61233 0.244 1.04443 0.0
N523 N 0.57711 0.17839 0.08509 0.0
C524 C 0.57177 0.17834 1.04207 0.0
C525 C 0.59064 0.21425 1.01991 0.0
C526 C 0.93198 0.90551 0.43834 0.0
C527 C 0.93699 0.86995 0.45536 0.0
C528 C 0.94905 0.94199 0.45811 0.0
C529 C 0.97165 0.94463 0.49604 0.0
H530 H 0.91388 0.90516 0.40993 0.0
H531 H 0.94367 0.96823 0.44403 0.0
S532 S 0.99774 0.86108 0.55143 0.0
N533 N 0.9696 0.84064 0.51069 0.0
N534 N 1.00043 0.90835 0.54821 0.0
C535 C 0.97773 0.90942 0.51282 0.0
C536 C 0.96075 0.87243 0.4925 0.0
C537 C 0.39493 0.81172 0.61633 0.0
C538 C 0.40435 0.82765 0.575 0.0
C539 C 0.40722 0.77821 0.62826 0.0
C540 C 0.42875 0.75925 0.59903 0.0
H541 H 0.37942 0.82621 0.64016 0.0
H542 H 0.40036 0.76734 0.66074 0.0
S543 S 0.45887 0.7881 0.48631 0.0
N544 N 0.43533 0.82158 0.50447 0.0
N545 N 0.45757 0.75761 0.52657 0.0
C546 C 0.43704 0.774 0.55711 0.0
C547 C 0.42513 0.80857 0.54518 0.0
C548 C 0.79428 0.82121 0.73531 0.0
C549 C 0.75712 0.82792 0.71966 0.0
C550 C 0.83318 0.84231 0.71948 0.0
C551 C 0.83609 0.87063 0.68751 0.0
H552 H 0.79369 0.80335 0.76351 0.0
H553 H 0.86079 0.83954 0.73566 0.0
S554 S 0.74901 0.88971 0.62642 0.0
N555 N 0.72615 0.85741 0.66316 0.0
N556 N 0.79957 0.89765 0.63377 0.0
C557 C 0.79961 0.87315 0.66713 0.0
C558 C 0.75999 0.85144 0.68302 0.0
C559 C 0.82151 0.23645 0.2289 0.0
C560 C 0.80985 0.2548 0.26578 0.0
C561 C 0.79134 0.21378 0.20239 0.0
C562 C 0.74852 0.20814 0.21235 0.0
H563 H 0.85409 0.23829 0.22156 0.0
H564 H 0.80161 0.1991 0.17497 0.0
S565 S 0.70233 0.25078 0.30541 0.0
N566 N 0.75308 0.26733 0.31026 0.0
N567 N 0.69629 0.22384 0.26133 0.0
C568 C 0.73661 0.22789 0.2482 0.0
C569 C 0.76734 0.25137 0.27477 0.0
C570 C 0.4414 0.65331 0.45055 0.0
C571 C 0.4345 0.63623 0.40949 0.0
C572 C 0.45442 0.63339 0.48466 0.0
C573 C 0.46064 0.59528 0.47946 0.0
H574 H 0.43797 0.68278 0.45602 0.0
H575 H 0.46055 0.64847 0.51506 0.0
S576 S 0.44285 0.53626 0.37898 0.0
N577 N 0.43235 0.5781 0.36631 0.0
N578 N 0.45611 0.54068 0.42974 0.0
C579 C 0.45241 0.57752 0.43875 0.0
C580 C 0.43954 0.59791 0.40409 0.0
C581 C 0.08552 0.46217 0.95514 0.0
C582 C 0.09039 0.47307 0.91138 0.0
C583 C 0.07034 0.48494 0.98649 0.0
C584 C 0.05941 0.51976 0.9758 0.0
H585 H 0.09433 0.43617 0.96553 0.0
H586 H 0.06777 0.47546 1.0194 0.0
S587 S 0.06244 0.55984 0.86555 0.0
N588 N 0.07985 0.52006 0.85899 0.0
N589 N 0.05251 0.56283 0.91752 0.0
C590 C 0.06329 0.53056 0.9321 0.0
C591 C 0.07846 0.50735 0.90015 0.0
C592 C 0.6009 0.94415 1.00089 0.0
C593 C 0.57376 0.91377 0.97892 0.0
C594 C 0.58684 0.9747 1.01998 0.0
C595 C 0.54486 0.97622 1.01819 0.0
H596 H 0.63356 0.94453 1.00311 0.0
H597 H 0.60923 0.997 1.03686 0.0
S598 S 0.46145 0.9041 0.96293 0.0
N599 N 0.5034 0.8873 0.95499 0.0
N600 N 0.47639 0.94478 0.99125 0.0
C601 C 0.51743 0.94636 0.9954 0.0
C602 C 0.53201 0.91518 0.97566 0.0
C603 C 0.92301 0.12239 0.47522 0.0
C604 C 0.90288 0.14498 0.50173 0.0
C605 C 0.93383 0.08944 0.4912 0.0
C606 C 0.92468 0.07789 0.53405 0.0
H607 H 0.93278 0.13168 0.4427 0.0
H608 H 0.95251 0.07483 0.47091 0.0
S609 S 0.86818 0.12422 0.61514 0.0
N610 N 0.8706 0.15129 0.57171 0.0
N611 N 0.89109 0.08897 0.60163 0.0
C612 C 0.90124 0.09793 0.55976 0.0
C613 C 0.89028 0.13168 0.54358 0.0
C614 C 0.18619 0.66148 0.16475 0.0
C615 C 0.21399 0.63999 0.17872 0.0
C616 C 0.14925 0.64324 0.14396 0.0
C617 C 0.13816 0.60251 0.13602 0.0
H618 H 0.19273 0.69276 0.17038 0.0
H619 H 0.12895 0.66136 0.1346 0.0
S620 S 0.20137 0.53301 0.16398 0.0
N621 N 0.22871 0.57581 0.1811 0.0
N622 N 0.15924 0.54146 0.14313 0.0
C623 C 0.16592 0.58069 0.14949 0.0
C624 C 0.20367 0.59936 0.17053 0.0
C625 C 0.32854 0.45835 0.63857 0.0
C626 C 0.32962 0.46388 0.68344 0.0
C627 C 0.36413 0.47231 0.61198 0.0
C628 C 0.40243 0.49239 0.62901 0.0
H629 H 0.30029 0.44201 0.6239 0.0
H630 H 0.36174 0.46656 0.57782 0.0
S631 S 0.42134 0.51754 0.74387 0.0
N632 N 0.37183 0.4936 0.74319 0.0
N633 N 0.43866 0.51862 0.69358 0.0
C634 C 0.40369 0.49912 0.67362 0.0
C635 C 0.3674 0.48515 0.70068 0.0
C636 C 0.82672 0.72675 0.93155 0.0
C637 C 0.79715 0.73767 0.9593 0.0
C638 C 0.85714 0.70958 0.94737 0.0
C639 C 0.85929 0.7031 0.99153 0.0
H640 H 0.82714 0.73273 0.89748 0.0
H641 H 0.88031 0.70305 0.92514 0.0
S642 S 0.78681 0.72283 0.07706 0.0
N643 N 0.77017 0.73824 1.0326 0.0
N644 N 0.82719 0.7056 1.06234 0.0
C645 C 0.82861 0.71194 1.01932 0.0
C646 C 0.7975 0.72924 1.00319 0.0
C647 C 0.44741 0.89747 0.16072 0.0
C648 C 0.44156 0.88888 0.20489 0.0
C649 C 0.46111 0.93623 0.14584 0.0
C650 C 0.47038 0.96823 0.17449 0.0
H651 H 0.44168 0.87389 0.13738 0.0
H652 H 0.46571 0.94099 0.11156 0.0
S653 S 0.45898 0.962 0.29321 0.0
N654 N 0.4447 0.91594 0.27704 0.0
N655 N 0.4712 0.98863 0.24922 0.0
C656 C 0.4638 0.96017 0.21868 0.0
C657 C 0.4492 0.92064 0.23382 0.0
C658 C 0.08156 0.19689 0.69767 0.0
C659 C 0.10212 0.23176 0.67653 0.0
C660 C 0.06809 0.16128 0.67516 0.0
C661 C 0.0743 0.15868 0.63027 0.0
H662 H 0.07643 0.19691 0.73216 0.0
H663 H 0.05263 0.13551 0.69335 0.0
S664 S 0.12416 0.2422 0.55907 0.0
N665 N 0.12643 0.26172 0.6076 0.0
N666 N 0.10124 0.19533 0.56545 0.0
C667 C 0.0944 0.19356 0.60866 0.0
C668 C 0.10822 0.2298 0.63165 0.0
C669 C 0.71709 0.35019 0.51747 0.0
C670 C 0.75356 0.37241 0.49714 0.0
C671 C 0.6818 0.36504 0.52284 0.0
C672 C 0.68169 0.40249 0.50773 0.0
H673 H 0.71553 0.32072 0.52827 0.0
H674 H 0.65411 0.34677 0.53815 0.0
S675 S 0.76956 0.47211 0.45211 0.0
N676 N 0.78789 0.43371 0.46238 0.0
N677 N 0.72131 0.46156 0.47184 0.0
C678 C 0.71842 0.42543 0.48841 0.0
C679 C 0.75444 0.41038 0.48325 0.0
loop_
_geom_bond_atom_site_label_1
_geom_bond_atom_site_label_2
_geom_bond_distance
_geom_bond_site_symmetry_2
_ccdc_geom_bond_type
P0 O11 1.490 . S
P0 C14 1.812 . S
P0 C20 1.803 . S
P0 C26 1.819 . S
H1 C15 0.941 . S
H2 C16 0.939 . S
H3 C18 0.940 . S
H4 C19 0.940 . S
H5 C21 0.939 . S
H6 C22 0.942 . S
H7 C24 0.940 . S
H8 C25 0.939 . S
H9 C27 0.941 . S
H10 C31 0.939 . S
O11 P0 1.490 . S
H12 C28 0.939 . S
H13 C30 0.940 . S
C14 P0 1.812 . S
C14 C15 1.389 . S
C14 C19 1.391 . S
C15 H1 0.941 . S
C15 C14 1.389 . S
C15 C16 1.397 . S
C16 H2 0.939 . S
C16 C15 1.397 . S
C16 C17 1.378 . S
C17 C16 1.378 . S
C17 C18 1.378 . S
C18 H3 0.940 . S
C18 C17 1.378 . S
C18 C19 1.396 . S
C19 H4 0.940 . S
C19 C14 1.391 . S
C19 C18 1.396 . S
C20 P0 1.803 . S
C20 C21 1.378 . S
C20 C25 1.400 . S
C21 H5 0.939 . S
C21 C20 1.378 . S
C21 C22 1.361 . S
C22 H6 0.942 . S
C22 C21 1.361 . S
C22 C23 1.369 . S
C23 C22 1.369 . S
C23 C24 1.404 . S
C24 H7 0.940 . S
C24 C23 1.404 . S
C24 C25 1.389 . S
C25 H8 0.939 . S
C25 C20 1.400 . S
C25 C24 1.389 . S
C26 P0 1.819 . S
C26 C27 1.391 . S
C26 C31 1.391 . S
C27 H9 0.941 . S
C27 C26 1.391 . S
C27 C28 1.396 . S
C28 H12 0.939 . S
C28 C27 1.396 . S
C28 C29 1.397 . S
C29 C28 1.397 . S
C29 C30 1.385 . S
C30 H13 0.940 . S
C30 C29 1.385 . S
C30 C31 1.388 . S
C31 H10 0.939 . S
C31 C26 1.391 . S
C31 C30 1.388 . S
P32 O43 1.490 . S
P32 C46 1.812 . S
P32 C52 1.803 . S
P32 C58 1.819 . S
H33 C47 0.941 . S
H34 C48 0.939 . S
H35 C50 0.940 . S
H36 C51 0.940 . S
H37 C53 0.939 . S
H38 C54 0.942 . S
H39 C56 0.940 . S
H40 C57 0.939 . S
H41 C59 0.941 . S
H42 C63 0.939 . S
O43 P32 1.490 . S
H44 C60 0.939 . S
H45 C62 0.940 . S
C46 P32 1.812 . S
C46 C47 1.389 . S
C46 C51 1.391 . S
C47 H33 0.941 . S
C47 C46 1.389 . S
C47 C48 1.397 . S
C48 H34 0.939 . S
C48 C47 1.397 . S
C48 C49 1.378 . S
C49 C48 1.378 . S
C49 C50 1.378 . S
C50 H35 0.940 . S
C50 C49 1.378 . S
C50 C51 1.396 . S
C51 H36 0.940 . S
C51 C46 1.391 . S
C51 C50 1.396 . S
C52 P32 1.803 . S
C52 C53 1.378 . S
C52 C57 1.400 . S
C53 H37 0.939 . S
C53 C52 1.378 . S
C53 C54 1.361 . S
C54 H38 0.942 . S
C54 C53 1.361 . S
C54 C55 1.369 . S
C55 C54 1.369 . S
C55 C56 1.404 . S
C56 H39 0.940 . S
C56 C55 1.404 . S
C56 C57 1.389 . S
C57 H40 0.939 . S
C57 C52 1.400 . S
C57 C56 1.389 . S
C58 P32 1.819 . S
C58 C59 1.391 . S
C58 C63 1.391 . S
C59 H41 0.941 . S
C59 C58 1.391 . S
C59 C60 1.396 . S
C60 H44 0.939 . S
C60 C59 1.396 . S
C60 C61 1.397 . S
C61 C60 1.397 . S
C61 C62 1.385 . S
C62 H45 0.940 . S
C62 C61 1.385 . S
C62 C63 1.388 . S
C63 H42 0.939 . S
C63 C58 1.391 . S
C63 C62 1.388 . S
P64 O75 1.490 . S
P64 C78 1.812 . S
P64 C84 1.803 . S
P64 C90 1.819 . S
H65 C79 0.941 . S
H66 C80 0.939 . S
H67 C82 0.940 . S
H68 C83 0.940 . S
H69 C85 0.939 . S
H70 C86 0.942 . S
H71 C88 0.940 . S
H72 C89 0.939 . S
H73 C91 0.941 . S
H74 C95 0.939 . S
O75 P64 1.490 . S
H76 C92 0.939 . S
H77 C94 0.940 . S
C78 P64 1.812 . S
C78 C79 1.389 . S
C78 C83 1.391 . S
C79 H65 0.941 . S
C79 C78 1.389 . S
C79 C80 1.397 . S
C80 H66 0.939 . S
C80 C79 1.397 . S
C80 C81 1.378 . S
C81 C80 1.378 . S
C81 C82 1.378 . S
C82 H67 0.940 . S
C82 C81 1.378 . S
C82 C83 1.396 . S
C83 H68 0.940 . S
C83 C78 1.391 . S
C83 C82 1.396 . S
C84 P64 1.803 . S
C84 C85 1.378 . S
C84 C89 1.400 . S
C85 H69 0.939 . S
C85 C84 1.378 . S
C85 C86 1.361 . S
C86 H70 0.942 . S
C86 C85 1.361 . S
C86 C87 1.369 . S
C87 C86 1.369 . S
C87 C88 1.404 . S
C88 H71 0.940 . S
C88 C87 1.404 . S
C88 C89 1.389 . S
C89 H72 0.939 . S
C89 C84 1.400 . S
C89 C88 1.389 . S
C90 P64 1.819 . S
C90 C91 1.391 . S
C90 C95 1.391 . S
C91 H73 0.941 . S
C91 C90 1.391 . S
C91 C92 1.396 . S
C92 H76 0.939 . S
C92 C91 1.396 . S
C92 C93 1.397 . S
C93 C92 1.397 . S
C93 C94 1.385 . S
C94 H77 0.940 . S
C94 C93 1.385 . S
C94 C95 1.388 . S
C95 H74 0.939 . S
C95 C90 1.391 . S
C95 C94 1.388 . S
P96 O107 1.490 . S
P96 C110 1.812 . S
P96 C116 1.803 . S
P96 C122 1.819 . S
H97 C111 0.941 . S
H98 C112 0.939 . S
H99 C114 0.940 . S
H100 C115 0.940 . S
H101 C117 0.939 . S
H102 C118 0.942 . S
H103 C120 0.940 . S
H104 C121 0.939 . S
H105 C123 0.941 . S
H106 C127 0.939 . S
O107 P96 1.490 . S
H108 C124 0.939 . S
H109 C126 0.940 . S
C110 P96 1.812 . S
C110 C111 1.389 . S
C110 C115 1.391 . S
C111 H97 0.941 . S
C111 C110 1.389 . S
C111 C112 1.397 . S
C112 H98 0.939 . S
C112 C111 1.397 . S
C112 C113 1.378 . S
C113 C112 1.378 . S
C113 C114 1.378 . S
C114 H99 0.940 . S
C114 C113 1.378 . S
C114 C115 1.396 . S
C115 H100 0.940 . S
C115 C110 1.391 . S
C115 C114 1.396 . S
C116 P96 1.803 . S
C116 C117 1.378 . S
C116 C121 1.400 . S
C117 H101 0.939 . S
C117 C116 1.378 . S
C117 C118 1.361 . S
C118 H102 0.942 . S
C118 C117 1.361 . S
C118 C119 1.369 . S
C119 C118 1.369 . S
C119 C120 1.404 . S
C120 H103 0.940 . S
C120 C119 1.404 . S
C120 C121 1.389 . S
C121 H104 0.939 . S
C121 C116 1.400 . S
C121 C120 1.389 . S
C122 P96 1.819 . S
C122 C123 1.391 . S
C122 C127 1.391 . S
C123 H105 0.941 . S
C123 C122 1.391 . S
C123 C124 1.396 . S
C124 H108 0.939 . S
C124 C123 1.396 . S
C124 C125 1.397 . S
C125 C124 1.397 . S
C125 C126 1.385 . S
C126 H109 0.940 . S
C126 C125 1.385 . S
C126 C127 1.388 . S
C127 H106 0.939 . S
C127 C122 1.391 . S
C127 C126 1.388 . S
P128 O139 1.490 . S
P128 C142 1.812 . S
P128 C148 1.803 . S
P128 C154 1.819 . S
H129 C143 0.941 . S
H130 C144 0.939 . S
H131 C146 0.940 . S
H132 C147 0.940 . S
H133 C149 0.939 . S
H134 C150 0.942 . S
H135 C152 0.940 . S
H136 C153 0.939 . S
H137 C155 0.941 . S
H138 C159 0.939 . S
O139 P128 1.490 . S
H140 C156 0.939 . S
H141 C158 0.940 . S
C142 P128 1.812 . S
C142 C143 1.389 . S
C142 C147 1.391 . S
C143 H129 0.941 . S
C143 C142 1.389 . S
C143 C144 1.397 . S
C144 H130 0.939 . S
C144 C143 1.397 . S
C144 C145 1.378 . S
C145 C144 1.378 . S
C145 C146 1.378 . S
C146 H131 0.940 . S
C146 C145 1.378 . S
C146 C147 1.396 . S
C147 H132 0.940 . S
C147 C142 1.391 . S
C147 C146 1.396 . S
C148 P128 1.803 . S
C148 C149 1.378 . S
C148 C153 1.400 . S
C149 H133 0.939 . S
C149 C148 1.378 . S
C149 C150 1.361 . S
C150 H134 0.942 . S
C150 C149 1.361 . S
C150 C151 1.369 . S
C151 C150 1.369 . S
C151 C152 1.404 . S
C152 H135 0.940 . S
C152 C151 1.404 . S
C152 C153 1.389 . S
C153 H136 0.939 . S
C153 C148 1.400 . S
C153 C152 1.389 . S
C154 P128 1.819 . S
C154 C155 1.391 . S
C154 C159 1.391 . S
C155 H137 0.941 . S
C155 C154 1.391 . S
C155 C156 1.396 . S
C156 H140 0.939 . S
C156 C155 1.396 . S
C156 C157 1.397 . S
C157 C156 1.397 . S
C157 C158 1.385 . S
C158 H141 0.940 . S
C158 C157 1.385 . S
C158 C159 1.388 . S
C159 H138 0.939 . S
C159 C154 1.391 . S
C159 C158 1.388 . S
P160 O171 1.490 . S
P160 C174 1.812 . S
P160 C180 1.803 . S
P160 C186 1.819 . S
H161 C175 0.941 . S
H162 C176 0.939 . S
H163 C178 0.940 . S
H164 C179 0.940 . S
H165 C181 0.939 . S
H166 C182 0.942 . S
H167 C184 0.940 . S
H168 C185 0.939 . S
H169 C187 0.941 . S
H170 C191 0.939 . S
O171 P160 1.490 . S
H172 C188 0.939 . S
H173 C190 0.940 . S
C174 P160 1.812 . S
C174 C175 1.389 . S
C174 C179 1.391 . S
C175 H161 0.941 . S
C175 C174 1.389 . S
C175 C176 1.397 . S
C176 H162 0.939 . S
C176 C175 1.397 . S
C176 C177 1.378 . S
C177 C176 1.378 . S
C177 C178 1.378 . S
C178 H163 0.940 . S
C178 C177 1.378 . S
C178 C179 1.396 . S
C179 H164 0.940 . S
C179 C174 1.391 . S
C179 C178 1.396 . S
C180 P160 1.803 . S
C180 C181 1.378 . S
C180 C185 1.400 . S
C181 H165 0.939 . S
C181 C180 1.378 . S
C181 C182 1.361 . S
C182 H166 0.942 . S
C182 C181 1.361 . S
C182 C183 1.369 . S
C183 C182 1.369 . S
C183 C184 1.404 . S
C184 H167 0.940 . S
C184 C183 1.404 . S
C184 C185 1.389 . S
C185 H168 0.939 . S
C185 C180 1.400 . S
C185 C184 1.389 . S
C186 P160 1.819 . S
C186 C187 1.391 . S
C186 C191 1.391 . S
C187 H169 0.941 . S
C187 C186 1.391 . S
C187 C188 1.396 . S
C188 H172 0.939 . S
C188 C187 1.396 . S
C188 C189 1.397 . S
C189 C188 1.397 . S
C189 C190 1.385 . S
C190 H173 0.940 . S
C190 C189 1.385 . S
C190 C191 1.388 . S
C191 H170 0.939 . S
C191 C186 1.391 . S
C191 C190 1.388 . S
P192 O203 1.490 . S
P192 C206 1.812 . S
P192 C212 1.803 . S
P192 C218 1.819 . S
H193 C207 0.941 . S
H194 C208 0.939 . S
H195 C210 0.940 . S
H196 C211 0.940 . S
H197 C213 0.939 . S
H198 C214 0.942 . S
H199 C216 0.940 . S
H200 C217 0.939 . S
H201 C219 0.941 . S
H202 C223 0.939 . S
O203 P192 1.490 . S
H204 C220 0.939 . S
H205 C222 0.940 . S
C206 P192 1.812 . S
C206 C207 1.389 . S
C206 C211 1.391 . S
C207 H193 0.941 . S
C207 C206 1.389 . S
C207 C208 1.397 . S
C208 H194 0.939 . S
C208 C207 1.397 . S
C208 C209 1.378 . S
C209 C208 1.378 . S
C209 C210 1.378 . S
C210 H195 0.940 . S
C210 C209 1.378 . S
C210 C211 1.396 . S
C211 H196 0.940 . S
C211 C206 1.391 . S
C211 C210 1.396 . S
C212 P192 1.803 . S
C212 C213 1.378 . S
C212 C217 1.400 . S
C213 H197 0.939 . S
C213 C212 1.378 . S
C213 C214 1.361 . S
C214 H198 0.942 . S
C214 C213 1.361 . S
C214 C215 1.369 . S
C215 C214 1.369 . S
C215 C216 1.404 . S
C216 H199 0.940 . S
C216 C215 1.404 . S
C216 C217 1.389 . S
C217 H200 0.939 . S
C217 C212 1.400 . S
C217 C216 1.389 . S
C218 P192 1.819 . S
C218 C219 1.391 . S
C218 C223 1.391 . S
C219 H201 0.941 . S
C219 C218 1.391 . S
C219 C220 1.396 . S
C220 H204 0.939 . S
C220 C219 1.396 . S
C220 C221 1.397 . S
C221 C220 1.397 . S
C221 C222 1.385 . S
C222 H205 0.940 . S
C222 C221 1.385 . S
C222 C223 1.388 . S
C223 H202 0.939 . S
C223 C218 1.391 . S
C223 C222 1.388 . S
P224 O235 1.490 . S
P224 C238 1.812 . S
P224 C244 1.803 . S
P224 C250 1.819 . S
H225 C239 0.941 . S
H226 C240 0.939 . S
H227 C242 0.940 . S
H228 C243 0.940 . S
H229 C245 0.939 . S
H230 C246 0.942 . S
H231 C248 0.940 . S
H232 C249 0.939 . S
H233 C251 0.941 . S
H234 C255 0.939 . S
O235 P224 1.490 . S
H236 C252 0.939 . S
H237 C254 0.940 . S
C238 P224 1.812 . S
C238 C239 1.389 . S
C238 C243 1.391 . S
C239 H225 0.941 . S
C239 C238 1.389 . S
C239 C240 1.397 . S
C240 H226 0.939 . S
C240 C239 1.397 . S
C240 C241 1.378 . S
C241 C240 1.378 . S
C241 C242 1.378 . S
C242 H227 0.940 . S
C242 C241 1.378 . S
C242 C243 1.396 . S
C243 H228 0.940 . S
C243 C238 1.391 . S
C243 C242 1.396 . S
C244 P224 1.803 . S
C244 C245 1.378 . S
C244 C249 1.400 . S
C245 H229 0.939 . S
C245 C244 1.378 . S
C245 C246 1.361 . S
C246 H230 0.942 . S
C246 C245 1.361 . S
C246 C247 1.369 . S
C247 C246 1.369 . S
C247 C248 1.404 . S
C248 H231 0.940 . S
C248 C247 1.404 . S
C248 C249 1.389 . S
C249 H232 0.939 . S
C249 C244 1.400 . S
C249 C248 1.389 . S
C250 P224 1.819 . S
C250 C251 1.391 . S
C250 C255 1.391 . S
C251 H233 0.941 . S
C251 C250 1.391 . S
C251 C252 1.396 . S
C252 H236 0.939 . S
C252 C251 1.396 . S
C252 C253 1.397 . S
C253 C252 1.397 . S
C253 C254 1.385 . S
C254 H237 0.940 . S
C254 C253 1.385 . S
C254 C255 1.388 . S
C255 H234 0.939 . S
C255 C250 1.391 . S
C255 C254 1.388 . S
La256 C258 2.928 . S
La256 O276 2.521 . S
La256 O277 2.628 . S
La256 O278 2.554 1_545 S
La256 O279 2.757 1_545 S
La256 O280 2.470 . S
La256 O285 2.482 1_455 S
La256 O287 2.503 1_445 S
La257 C267 2.928 . S
La257 O279 2.482 1_655 S
La257 O281 2.503 1_665 S
La257 O282 2.521 . S
La257 O283 2.628 . S
La257 O284 2.554 1_565 S
La257 O285 2.757 1_565 S
La257 O286 2.470 . S
C258 La256 2.928 . S
C258 C259 1.503 . S
C258 O276 1.261 . S
C258 O277 1.243 . S
C259 C258 1.503 . S
C259 C260 1.394 . S
C259 C264 1.373 . S
C260 C259 1.394 . S
C260 C261 1.380 . S
C260 H288 0.930 . S
C261 C260 1.380 . S
C261 C262 1.376 . S
C261 H289 0.930 . S
C262 C261 1.376 . S
C262 C263 1.370 . S
C263 C262 1.370 . S
C263 C264 1.396 . S
C263 H290 0.929 . S
C264 C259 1.373 . S
C264 C263 1.396 . S
C264 H291 0.929 . S
C265 O278 1.240 . S
C265 O279 1.289 . S
C266 O280 1.258 . S
C266 O281 1.256 . S
C267 La257 2.928 . S
C267 C268 1.503 . S
C267 O282 1.261 . S
C267 O283 1.243 . S
C268 C267 1.503 . S
C268 C269 1.394 . S
C268 C273 1.373 . S
C269 C268 1.394 . S
C269 C270 1.380 . S
C269 H292 0.930 . S
C270 C269 1.380 . S
C270 C271 1.376 . S
C270 H293 0.930 . S
C271 C270 1.376 . S
C271 C272 1.370 . S
C272 C271 1.370 . S
C272 C273 1.396 . S
C272 H294 0.929 . S
C273 C268 1.373 . S
C273 C272 1.396 . S
C273 H295 0.929 . S
C274 O284 1.240 . S
C274 O285 1.289 . S
C275 O286 1.258 . S
C275 O287 1.256 . S
O276 La256 2.521 . S
O276 C258 1.261 . S
O277 La256 2.628 . S
O277 C258 1.243 . S
O278 La256 2.554 1_565 S
O278 C265 1.240 . S
O279 La256 2.757 1_565 S
O279 La257 2.482 1_455 S
O279 C265 1.289 . S
O280 La256 2.470 . S
O280 C266 1.258 . S
O281 La257 2.503 1_445 S
O281 C266 1.256 . S
O282 La257 2.521 . S
O282 C267 1.261 . S
O283 La257 2.628 . S
O283 C267 1.243 . S
O284 La257 2.554 1_545 S
O284 C274 1.240 . S
O285 La256 2.482 1_655 S
O285 La257 2.757 1_545 S
O285 C274 1.289 . S
O286 La257 2.470 . S
O286 C275 1.258 . S
O287 La256 2.503 1_665 S
O287 C275 1.256 . S
H288 C260 0.930 . S
H289 C261 0.930 . S
H290 C263 0.929 . S
H291 C264 0.929 . S
H292 C269 0.930 . S
H293 C270 0.930 . S
H294 C272 0.929 . S
H295 C273 0.929 . S
La296 C298 2.928 . S
La296 O316 2.521 . S
La296 O317 2.628 . S
La296 O318 2.554 1_545 S
La296 O319 2.757 1_545 S
La296 O320 2.470 . S
La296 O325 2.482 1_554 S
La296 O327 2.503 1_544 S
La297 C307 2.928 1_545 S
La297 O319 2.482 1_546 S
La297 O321 2.503 1_556 S
La297 O322 2.523 . S
La297 O323 2.628 1_545 S
La297 O324 2.554 . S
La297 O325 2.757 . S
La297 O326 2.470 1_545 S
C298 La296 2.928 . S
C298 C299 1.503 . S
C298 O316 1.261 . S
C298 O317 1.243 . S
C299 C298 1.503 . S
C299 C300 1.394 . S
C299 C304 1.373 . S
C300 C299 1.394 . S
C300 C301 1.380 . S
C300 H328 0.930 . S
C301 C300 1.380 . S
C301 C302 1.376 . S
C301 H329 0.930 . S
C302 C301 1.376 . S
C302 C303 1.370 . S
C303 C302 1.370 . S
C303 C304 1.396 . S
C303 H330 0.929 . S
C304 C299 1.373 . S
C304 C303 1.396 . S
C304 H331 0.929 . S
C305 O318 1.240 . S
C305 O319 1.289 . S
C306 O320 1.258 . S
C306 O321 1.256 . S
C307 La297 2.928 1_565 S
C307 C308 1.503 . S
C307 O322 1.230 1_565 S
C307 O323 1.243 . S
C308 C307 1.503 . S
C308 C309 1.394 . S
C308 C313 1.373 . S
C309 C308 1.394 . S
C309 C310 1.380 . S
C309 H332 0.930 . S
C310 C309 1.380 . S
C310 C311 1.376 . S
C310 H333 0.930 . S
C311 C310 1.376 . S
C311 C312 1.370 . S
C312 C311 1.370 . S
C312 C313 1.396 . S
C312 H334 0.929 . S
C313 C308 1.373 . S
C313 C312 1.396 . S
C313 H335 0.929 . S
C314 O324 1.240 . S
C314 O325 1.289 . S
C315 O326 1.258 . S
C315 O327 1.256 . S
O316 La296 2.521 . S
O316 C298 1.261 . S
O317 La296 2.628 . S
O317 C298 1.243 . S
O318 La296 2.554 1_565 S
O318 C305 1.240 . S
O319 La296 2.757 1_565 S
O319 La297 2.482 1_564 S
O319 C305 1.289 . S
O320 La296 2.470 . S
O320 C306 1.258 . S
O321 La297 2.503 1_554 S
O321 C306 1.256 . S
O322 La297 2.523 . S
O322 C307 1.230 1_545 S
O323 La297 2.628 1_565 S
O323 C307 1.243 . S
O324 La297 2.554 . S
O324 C314 1.240 . S
O325 La296 2.482 1_556 S
O325 La297 2.757 . S
O325 C314 1.289 . S
O326 La297 2.470 1_565 S
O326 C315 1.258 . S
O327 La296 2.503 1_566 S
O327 C315 1.256 . S
H328 C300 0.930 . S
H329 C301 0.930 . S
H330 C303 0.929 . S
H331 C304 0.929 . S
H332 C309 0.930 . S
H333 C310 0.930 . S
H334 C312 0.929 . S
H335 C313 0.929 . S
La336 C338 2.928 . S
La336 O356 2.521 . S
La336 O357 2.628 . S
La336 O358 2.554 . S
La336 O359 2.757 . S
La336 O360 2.470 . S
La336 O365 2.482 . S
La336 O367 2.503 . S
La337 C347 2.928 . S
La337 O359 2.482 . S
La337 O361 2.503 . S
La337 O362 2.521 . S
La337 O363 2.628 . S
La337 O364 2.554 . S
La337 O365 2.757 . S
La337 O366 2.470 . S
C338 La336 2.928 . S
C338 C339 1.503 . S
C338 O356 1.261 . S
C338 O357 1.243 . S
C339 C338 1.503 . S
C339 C340 1.394 . S
C339 C344 1.373 . S
C340 C339 1.394 . S
C340 C341 1.380 . S
C340 H368 0.930 . S
C341 C340 1.380 . S
C341 C342 1.376 . S
C341 H369 0.930 . S
C342 C341 1.376 . S
C342 C343 1.370 . S
C343 C342 1.370 . S
C343 C344 1.396 . S
C343 H370 0.929 . S
C344 C339 1.373 . S
C344 C343 1.396 . S
C344 H371 0.929 . S
C345 O358 1.240 . S
C345 O359 1.289 . S
C346 O360 1.258 . S
C346 O361 1.256 . S
C347 La337 2.928 . S
C347 C348 1.503 . S
C347 O362 1.261 . S
C347 O363 1.243 . S
C348 C347 1.503 . S
C348 C349 1.394 . S
C348 C353 1.373 . S
C349 C348 1.394 . S
C349 C350 1.380 . S
C349 H372 0.930 . S
C350 C349 1.380 . S
C350 C351 1.376 . S
C350 H373 0.930 . S
C351 C350 1.376 . S
C351 C352 1.370 . S
C352 C351 1.370 . S
C352 C353 1.396 . S
C352 H374 0.929 . S
C353 C348 1.373 . S
C353 C352 1.396 . S
C353 H375 0.929 . S
C354 O364 1.240 . S
C354 O365 1.289 . S
C355 O366 1.258 . S
C355 O367 1.256 . S
O356 La336 2.521 . S
O356 C338 1.261 . S
O357 La336 2.628 . S
O357 C338 1.243 . S
O358 La336 2.554 . S
O358 C345 1.240 . S
O359 La336 2.757 . S
O359 La337 2.482 . S
O359 C345 1.289 . S
O360 La336 2.470 . S
O360 C346 1.258 . S
O361 La337 2.503 . S
O361 C346 1.256 . S
O362 La337 2.521 . S
O362 C347 1.261 . S
O363 La337 2.628 . S
O363 C347 1.243 . S
O364 La337 2.554 . S
O364 C354 1.240 . S
O365 La336 2.482 . S
O365 La337 2.757 . S
O365 C354 1.289 . S
O366 La337 2.470 . S
O366 C355 1.258 . S
O367 La336 2.503 . S
O367 C355 1.256 . S
H368 C340 0.930 . S
H369 C341 0.930 . S
H370 C343 0.929 . S
H371 C344 0.929 . S
H372 C349 0.930 . S
H373 C350 0.930 . S
H374 C352 0.929 . S
H375 C353 0.929 . S
La376 C378 2.928 . S
La376 O396 2.521 . S
La376 O397 2.628 . S
La376 O398 2.554 1_455 S
La376 O399 2.757 1_455 S
La376 O400 2.470 . S
La376 O405 2.482 1_554 S
La376 O407 2.503 1_454 S
La377 C387 2.928 . S
La377 O399 2.482 1_556 S
La377 O401 2.503 1_656 S
La377 O402 2.521 . S
La377 O403 2.628 . S
La377 O404 2.554 1_655 S
La377 O405 2.757 1_655 S
La377 O406 2.470 . S
C378 La376 2.928 . S
C378 C379 1.503 . S
C378 O396 1.261 . S
C378 O397 1.243 . S
C379 C378 1.503 . S
C379 C380 1.394 . S
C379 C384 1.373 . S
C380 C379 1.394 . S
C380 C381 1.380 . S
C380 H408 0.930 . S
C381 C380 1.380 . S
C381 C382 1.376 . S
C381 H409 0.930 . S
C382 C381 1.376 . S
C382 C383 1.370 . S
C383 C382 1.370 . S
C383 C384 1.396 . S
C383 H410 0.929 . S
C384 C379 1.373 . S
C384 C383 1.396 . S
C384 H411 0.929 . S
C385 O398 1.240 . S
C385 O399 1.289 . S
C386 O400 1.258 . S
C386 O401 1.256 . S
C387 La377 2.928 . S
C387 C388 1.503 . S
C387 O402 1.261 . S
C387 O403 1.243 . S
C388 C387 1.503 . S
C388 C389 1.394 . S
C388 C393 1.373 . S
C389 C388 1.394 . S
C389 C390 1.380 . S
C389 H412 0.930 . S
C390 C389 1.380 . S
C390 C391 1.376 . S
C390 H413 0.930 . S
C391 C390 1.376 . S
C391 C392 1.370 . S
C392 C391 1.370 . S
C392 C393 1.396 . S
C392 H414 0.929 . S
C393 C388 1.373 . S
C393 C392 1.396 . S
C393 H415 0.929 . S
C394 O404 1.240 . S
C394 O405 1.289 . S
C395 O406 1.258 . S
C395 O407 1.256 . S
O396 La376 2.521 . S
O396 C378 1.261 . S
O397 La376 2.628 . S
O397 C378 1.243 . S
O398 La376 2.554 1_655 S
O398 C385 1.240 . S
O399 La376 2.757 1_655 S
O399 La377 2.482 1_554 S
O399 C385 1.289 . S
O400 La376 2.470 . S
O400 C386 1.258 . S
O401 La377 2.503 1_454 S
O401 C386 1.256 . S
O402 La377 2.521 . S
O402 C387 1.261 . S
O403 La377 2.628 . S
O403 C387 1.243 . S
O404 La377 2.554 1_455 S
O404 C394 1.240 . S
O405 La376 2.482 1_556 S
O405 La377 2.757 1_455 S
O405 C394 1.289 . S
O406 La377 2.470 . S
O406 C395 1.258 . S
O407 La376 2.503 1_656 S
O407 C395 1.256 . S
H408 C380 0.930 . S
H409 C381 0.930 . S
H410 C383 0.929 . S
H411 C384 0.929 . S
H412 C389 0.930 . S
H413 C390 0.930 . S
H414 C392 0.929 . S
H415 C393 0.929 . S
C416 C417 1.369 . S
C416 C418 1.419 . S
C416 H420 0.930 . S
C417 C416 1.369 . S
C417 C426 1.429 . S
C418 C416 1.419 . S
C418 C419 1.363 . S
C418 H421 0.929 . S
C419 C418 1.363 . S
C419 C425 1.428 . S
H420 C416 0.930 . S
H421 C418 0.929 . S
S422 N423 1.613 . S
S422 N424 1.610 . S
N423 S422 1.613 . S
N423 C426 1.350 . S
N424 S422 1.610 . S
N424 C425 1.351 . S
C425 C419 1.428 . S
C425 N424 1.351 . S
C425 C426 1.434 . S
C426 C417 1.429 . S
C426 N423 1.350 . S
C426 C425 1.434 . S
C427 C428 1.369 . S
C427 C429 1.419 . S
C427 H431 0.930 . S
C428 C427 1.369 . S
C428 C437 1.429 . S
C429 C427 1.419 . S
C429 C430 1.363 . S
C429 H432 0.929 . S
C430 C429 1.363 . S
C430 C436 1.428 . S
H431 C427 0.930 . S
H432 C429 0.929 . S
S433 N434 1.613 . S
S433 N435 1.610 . S
N434 S433 1.613 . S
N434 C437 1.350 . S
N435 S433 1.610 . S
N435 C436 1.351 . S
C436 C430 1.428 . S
C436 N435 1.351 . S
C436 C437 1.434 . S
C437 C428 1.429 . S
C437 N434 1.350 . S
C437 C436 1.434 . S
C438 C439 1.369 . S
C438 C440 1.419 . S
C438 H442 0.930 . S
C439 C438 1.369 . S
C439 C448 1.429 . S
C440 C438 1.419 . S
C440 C441 1.363 . S
C440 H443 0.929 . S
C441 C440 1.363 . S
C441 C447 1.428 . S
H442 C438 0.930 . S
H443 C440 0.929 . S
S444 N445 1.613 . S
S444 N446 1.610 . S
N445 S444 1.613 . S
N445 C448 1.350 . S
N446 S444 1.610 . S
N446 C447 1.351 . S
C447 C441 1.428 . S
C447 N446 1.351 . S
C447 C448 1.434 . S
C448 C439 1.429 . S
C448 N445 1.350 . S
C448 C447 1.434 . S
C449 C450 1.369 . S
C449 C451 1.419 . S
C449 H453 0.930 . S
C450 C449 1.369 . S
C450 C459 1.429 . S
C451 C449 1.419 . S
C451 C452 1.363 . S
C451 H454 0.929 . S
C452 C451 1.363 . S
C452 C458 1.428 . S
H453 C449 0.930 . S
H454 C451 0.929 . S
S455 N456 1.613 1_455 S
S455 N457 1.610 1_455 S
N456 S455 1.613 1_655 S
N456 C459 1.350 . S
N457 S455 1.610 1_655 S
N457 C458 1.351 . S
C458 C452 1.428 . S
C458 N457 1.351 . S
C458 C459 1.434 . S
C459 C450 1.429 . S
C459 N456 1.350 . S
C459 C458 1.434 . S
C460 C461 1.369 . S
C460 C462 1.419 . S
C460 H464 0.930 . S
C461 C460 1.369 . S
C461 C470 1.429 . S
C462 C460 1.419 . S
C462 C463 1.363 . S
C462 H465 0.929 . S
C463 C462 1.363 . S
C463 C469 1.428 . S
H464 C460 0.930 . S
H465 C462 0.929 . S
S466 N467 1.613 . S
S466 N468 1.610 . S
N467 S466 1.613 . S
N467 C470 1.350 . S
N468 S466 1.610 . S
N468 C469 1.351 . S
C469 C463 1.428 . S
C469 N468 1.351 . S
C469 C470 1.434 . S
C470 C461 1.429 . S
C470 N467 1.350 . S
C470 C469 1.434 . S
C471 C472 1.369 . S
C471 C473 1.419 . S
C471 H475 0.930 . S
C472 C471 1.369 . S
C472 C481 1.429 . S
C473 C471 1.419 . S
C473 C474 1.363 . S
C473 H476 0.929 . S
C474 C473 1.363 . S
C474 C480 1.428 . S
H475 C471 0.930 . S
H476 C473 0.929 . S
S477 N478 1.613 . S
S477 N479 1.610 . S
N478 S477 1.613 . S
N478 C481 1.350 . S
N479 S477 1.610 . S
N479 C480 1.351 . S
C480 C474 1.428 . S
C480 N479 1.351 . S
C480 C481 1.434 . S
C481 C472 1.429 . S
C481 N478 1.350 . S
C481 C480 1.434 . S
C482 C483 1.369 . S
C482 C484 1.419 . S
C482 H486 0.930 . S
C483 C482 1.369 . S
C483 C492 1.429 . S
C484 C482 1.419 . S
C484 C485 1.363 . S
C484 H487 0.929 . S
C485 C484 1.363 . S
C485 C491 1.428 . S
H486 C482 0.930 . S
H487 C484 0.929 . S
S488 N489 1.608 1_554 S
S488 N490 1.610 1_554 S
N489 S488 1.608 1_556 S
N489 C492 1.350 . S
N490 S488 1.610 1_556 S
N490 C491 1.366 . S
C491 C485 1.428 . S
C491 N490 1.366 . S
C491 C492 1.434 . S
C492 C483 1.429 . S
C492 N489 1.350 . S
C492 C491 1.434 . S
C493 C494 1.369 . S
C493 C495 1.419 . S
C493 H497 0.930 . S
C494 C493 1.369 . S
C494 C503 1.429 . S
C495 C493 1.419 . S
C495 C496 1.363 . S
C495 H498 0.929 . S
C496 C495 1.363 . S
C496 C502 1.428 . S
H497 C493 0.930 . S
H498 C495 0.929 . S
S499 N500 1.613 . S
S499 N501 1.610 . S
N500 S499 1.613 . S
N500 C503 1.350 . S
N501 S499 1.610 . S
N501 C502 1.351 . S
C502 C496 1.428 . S
C502 N501 1.351 . S
C502 C503 1.434 . S
C503 C494 1.429 . S
C503 N500 1.350 . S
C503 C502 1.434 . S
C504 C505 1.369 . S
C504 C506 1.419 . S
C504 H508 0.930 . S
C505 C504 1.369 . S
C505 C514 1.429 . S
C506 C504 1.419 . S
C506 C507 1.363 . S
C506 H509 0.929 . S
C507 C506 1.363 . S
C507 C513 1.428 . S
H508 C504 0.930 . S
H509 C506 0.929 . S
S510 N511 1.613 . S
S510 N512 1.610 . S
N511 S510 1.613 . S
N511 C514 1.350 . S
N512 S510 1.610 . S
N512 C513 1.351 . S
C513 C507 1.428 . S
C513 N512 1.351 . S
C513 C514 1.434 . S
C514 C505 1.429 . S
C514 N511 1.350 . S
C514 C513 1.434 . S
C515 C516 1.369 . S
C515 C517 1.419 . S
C515 H519 0.930 . S
C516 C515 1.369 . S
C516 C525 1.429 . S
C517 C515 1.419 . S
C517 C518 1.363 . S
C517 H520 0.929 . S
C518 C517 1.363 . S
C518 C524 1.428 . S
H519 C515 0.930 . S
H520 C517 0.929 . S
S521 N522 1.613 . S
S521 N523 1.610 . S
N522 S521 1.613 . S
N522 C525 1.350 . S
N523 S521 1.610 . S
N523 C524 1.351 . S
C524 C518 1.428 . S
C524 N523 1.351 . S
C524 C525 1.434 . S
C525 C516 1.429 . S
C525 N522 1.350 . S
C525 C524 1.434 . S
C526 C527 1.369 . S
C526 C528 1.419 . S
C526 H530 0.930 . S
C527 C526 1.369 . S
C527 C536 1.429 . S
C528 C526 1.419 . S
C528 C529 1.363 . S
C528 H531 0.929 . S
C529 C528 1.363 . S
C529 C535 1.428 . S
H530 C526 0.930 . S
H531 C528 0.929 . S
S532 N533 1.602 1_455 S
S532 N534 1.604 1_455 S
N533 S532 1.602 1_655 S
N533 C536 1.350 . S
N534 S532 1.604 1_655 S
N534 C535 1.351 . S
C535 C529 1.428 . S
C535 N534 1.351 . S
C535 C536 1.434 . S
C536 C527 1.429 . S
C536 N533 1.350 . S
C536 C535 1.434 . S
C537 C538 1.369 . S
C537 C539 1.419 . S
C537 H541 0.930 . S
C538 C537 1.369 . S
C538 C547 1.429 . S
C539 C537 1.419 . S
C539 C540 1.363 . S
C539 H542 0.929 . S
C540 C539 1.363 . S
C540 C546 1.428 . S
H541 C537 0.930 . S
H542 C539 0.929 . S
S543 N544 1.613 . S
S543 N545 1.610 . S
N544 S543 1.613 . S
N544 C547 1.350 . S
N545 S543 1.610 . S
N545 C546 1.351 . S
C546 C540 1.428 . S
C546 N545 1.351 . S
C546 C547 1.434 . S
C547 C538 1.429 . S
C547 N544 1.350 . S
C547 C546 1.434 . S
C548 C549 1.369 . S
C548 C550 1.419 . S
C548 H552 0.930 . S
C549 C548 1.369 . S
C549 C558 1.429 . S
C550 C548 1.419 . S
C550 C551 1.363 . S
C550 H553 0.929 . S
C551 C550 1.363 . S
C551 C557 1.428 . S
H552 C548 0.930 . S
H553 C550 0.929 . S
S554 N555 1.613 . S
S554 N556 1.610 . S
N555 S554 1.613 . S
N555 C558 1.350 . S
N556 S554 1.610 . S
N556 C557 1.351 . S
C557 C551 1.428 . S
C557 N556 1.351 . S
C557 C558 1.434 . S
C558 C549 1.429 . S
C558 N555 1.350 . S
C558 C557 1.434 . S
C559 C560 1.369 . S
C559 C561 1.419 . S
C559 H563 0.930 . S
C560 C559 1.369 . S
C560 C569 1.429 . S
C561 C559 1.419 . S
C561 C562 1.363 . S
C561 H564 0.929 . S
C562 C561 1.363 . S
C562 C568 1.428 . S
H563 C559 0.930 . S
H564 C561 0.929 . S
S565 N566 1.613 . S
S565 N567 1.610 . S
N566 S565 1.613 . S
N566 C569 1.350 . S
N567 S565 1.610 . S
N567 C568 1.351 . S
C568 C562 1.428 . S
C568 N567 1.351 . S
C568 C569 1.434 . S
C569 C560 1.429 . S
C569 N566 1.350 . S
C569 C568 1.434 . S
C570 C571 1.369 . S
C570 C572 1.419 . S
C570 H574 0.930 . S
C571 C570 1.369 . S
C571 C580 1.429 . S
C572 C570 1.419 . S
C572 C573 1.363 . S
C572 H575 0.929 . S
C573 C572 1.363 . S
C573 C579 1.428 . S
H574 C570 0.930 . S
H575 C572 0.929 . S
S576 N577 1.613 . S
S576 N578 1.610 . S
N577 S576 1.613 . S
N577 C580 1.350 . S
N578 S576 1.610 . S
N578 C579 1.351 . S
C579 C573 1.428 . S
C579 N578 1.351 . S
C579 C580 1.434 . S
C580 C571 1.429 . S
C580 N577 1.350 . S
C580 C579 1.434 . S
C581 C582 1.369 . S
C581 C583 1.419 . S
C581 H585 0.930 . S
C582 C581 1.369 . S
C582 C591 1.429 . S
C583 C581 1.419 . S
C583 C584 1.363 . S
C583 H586 0.929 . S
C584 C583 1.363 . S
C584 C590 1.428 . S
H585 C581 0.930 . S
H586 C583 0.929 . S
S587 N588 1.613 . S
S587 N589 1.610 . S
N588 S587 1.613 . S
N588 C591 1.350 . S
N589 S587 1.610 . S
N589 C590 1.351 . S
C590 C584 1.428 . S
C590 N589 1.351 . S
C590 C591 1.434 . S
C591 C582 1.429 . S
C591 N588 1.350 . S
C591 C590 1.434 . S
C592 C593 1.369 . S
C592 C594 1.419 . S
C592 H596 0.930 . S
C593 C592 1.369 . S
C593 C602 1.429 . S
C594 C592 1.419 . S
C594 C595 1.363 . S
C594 H597 0.929 . S
C595 C594 1.363 . S
C595 C601 1.428 . S
H596 C592 0.930 . S
H597 C594 0.929 . S
S598 N599 1.613 . S
S598 N600 1.610 . S
N599 S598 1.613 . S
N599 C602 1.350 . S
N600 S598 1.610 . S
N600 C601 1.351 . S
C601 C595 1.428 . S
C601 N600 1.351 . S
C601 C602 1.434 . S
C602 C593 1.429 . S
C602 N599 1.350 . S
C602 C601 1.434 . S
C603 C604 1.369 . S
C603 C605 1.419 . S
C603 H607 0.930 . S
C604 C603 1.369 . S
C604 C613 1.429 . S
C605 C603 1.419 . S
C605 C606 1.363 . S
C605 H608 0.929 . S
C606 C605 1.363 . S
C606 C612 1.428 . S
H607 C603 0.930 . S
H608 C605 0.929 . S
S609 N610 1.613 . S
S609 N611 1.610 . S
N610 S609 1.613 . S
N610 C613 1.350 . S
N611 S609 1.610 . S
N611 C612 1.351 . S
C612 C606 1.428 . S
C612 N611 1.351 . S
C612 C613 1.434 . S
C613 C604 1.429 . S
C613 N610 1.350 . S
C613 C612 1.434 . S
C614 C615 1.369 . S
C614 C616 1.419 . S
C614 H618 0.930 . S
C615 C614 1.369 . S
C615 C624 1.429 . S
C616 C614 1.419 . S
C616 C617 1.363 . S
C616 H619 0.929 . S
C617 C616 1.363 . S
C617 C623 1.428 . S
H618 C614 0.930 . S
H619 C616 0.929 . S
S620 N621 1.613 . S
S620 N622 1.610 . S
N621 S620 1.613 . S
N621 C624 1.350 . S
N622 S620 1.610 . S
N622 C623 1.351 . S
C623 C617 1.428 . S
C623 N622 1.351 . S
C623 C624 1.434 . S
C624 C615 1.429 . S
C624 N621 1.350 . S
C624 C623 1.434 . S
C625 C626 1.369 . S
C625 C627 1.419 . S
C625 H629 0.930 . S
C626 C625 1.369 . S
C626 C635 1.429 . S
C627 C625 1.419 . S
C627 C628 1.363 . S
C627 H630 0.929 . S
C628 C627 1.363 . S
C628 C634 1.428 . S
H629 C625 0.930 . S
H630 C627 0.929 . S
S631 N632 1.613 . S
S631 N633 1.610 . S
N632 S631 1.613 . S
N632 C635 1.350 . S
N633 S631 1.610 . S
N633 C634 1.351 . S
C634 C628 1.428 . S
C634 N633 1.351 . S
C634 C635 1.434 . S
C635 C626 1.429 . S
C635 N632 1.350 . S
C635 C634 1.434 . S
C636 C637 1.369 . S
C636 C638 1.419 . S
C636 H640 0.930 . S
C637 C636 1.369 . S
C637 C646 1.429 . S
C638 C636 1.419 . S
C638 C639 1.363 . S
C638 H641 0.929 . S
C639 C638 1.363 . S
C639 C645 1.428 . S
H640 C636 0.930 . S
H641 C638 0.929 . S
S642 N643 1.613 . S
S642 N644 1.610 . S
N643 S642 1.613 . S
N643 C646 1.350 . S
N644 S642 1.610 . S
N644 C645 1.351 . S
C645 C639 1.428 . S
C645 N644 1.351 . S
C645 C646 1.434 . S
C646 C637 1.429 . S
C646 N643 1.350 . S
C646 C645 1.434 . S
C647 C648 1.369 . S
C647 C649 1.419 . S
C647 H651 0.930 . S
C648 C647 1.369 . S
C648 C657 1.429 . S
C649 C647 1.419 . S
C649 C650 1.363 . S
C649 H652 0.929 . S
C650 C649 1.363 . S
C650 C656 1.428 . S
H651 C647 0.930 . S
H652 C649 0.929 . S
S653 N654 1.613 . S
S653 N655 1.610 . S
N654 S653 1.613 . S
N654 C657 1.350 . S
N655 S653 1.610 . S
N655 C656 1.351 . S
C656 C650 1.428 . S
C656 N655 1.351 . S
C656 C657 1.434 . S
C657 C648 1.429 . S
C657 N654 1.350 . S
C657 C656 1.434 . S
C658 C659 1.369 . S
C658 C660 1.419 . S
C658 H662 0.930 . S
C659 C658 1.369 . S
C659 C668 1.429 . S
C660 C658 1.419 . S
C660 C661 1.363 . S
C660 H663 0.929 . S
C661 C660 1.363 . S
C661 C667 1.428 . S
H662 C658 0.930 . S
H663 C660 0.929 . S
S664 N665 1.613 . S
S664 N666 1.610 . S
N665 S664 1.613 . S
N665 C668 1.350 . S
N666 S664 1.610 . S
N666 C667 1.351 . S
C667 C661 1.428 . S
C667 N666 1.351 . S
C667 C668 1.434 . S
C668 C659 1.429 . S
C668 N665 1.350 . S
C668 C667 1.434 . S
C669 C670 1.369 . S
C669 C671 1.419 . S
C669 H673 0.930 . S
C670 C669 1.369 . S
C670 C679 1.429 . S
C671 C669 1.419 . S
C671 C672 1.363 . S
C671 H674 0.929 . S
C672 C671 1.363 . S
C672 C678 1.428 . S
H673 C669 0.930 . S
H674 C671 0.929 . S
S675 N676 1.613 . S
S675 N677 1.610 . S
N676 S675 1.613 . S
N676 C679 1.350 . S
N677 S675 1.610 . S
N677 C678 1.351 . S
C678 C672 1.428 . S
C678 N677 1.351 . S
C678 C679 1.434 . S
C679 C670 1.429 . S
C679 N676 1.350 . S
C679 C678 1.434 . S
C417 C29 1.258 . S
C419 C262 1.271 . S
C428 C49 0.991 . S
C430 C311 1.031 . S
C441 C346 2.542 . S
C439 C93 2.568 . S
C450 C119 2.397 . S
C452 C385 2.390 . S
C463 C306 2.374 . S
C461 C17 2.295 . S
C474 C265 0.812 . S
C472 C61 0.814 . S
C485 C395 1.922 . S
C483 C81 1.975 . S
C496 C354 1.769 . S
C494 C125 1.753 . S
C505 C23 1.634 . S
C507 C382 1.645 . S
C518 C314 2.321 . S
C516 C87 2.380 . S
C527 C113 2.352 . S
C529 C275 2.381 . S
C538 C55 1.028 . S
C540 C351 1.113 . S
C551 C271 1.276 . S
C549 C157 1.087 . S
C560 C189 1.040 . S
C562 C302 1.058 . S
C571 C221 2.540 . S
C573 C355 2.506 . S
C582 C253 2.465 . S
C584 C394 2.473 . S
C593 C145 2.082 . S
C595 C315 2.444 . S
C606 C274 0.771 . S
C604 C183 0.795 . S
C617 C386 1.951 . S
C615 C209 1.961 . S
C628 C345 1.739 . S
C626 C247 1.712 . S
C637 C151 1.469 . S
C639 C391 1.667 . S
C650 C305 2.317 . S
C648 C215 2.390 . S
C661 C266 2.359 . S
C659 C241 2.307 . S
C670 C177 1.093 . S
C672 C342 1.086 . S
