# Generated by pormake.
# Topology zzz, (3,6)-cn, num edge types: 1
# Building blocks:
#     Node 0, Type 0, BuildingBlock: BETDAH_clean_linker_0, # of connection points: 3
#     Node 1, Type 0, BuildingBlock: BETDAH_clean_linker_0, # of connection points: 3
#     Node 2, Type 0, BuildingBlock: BETDAH_clean_linker_0, # of connection points: 3
#     Node 3, Type 0, BuildingBlock: BETDAH_clean_linker_0, # of connection points: 3
#     Node 4, Type 0, BuildingBlock: BETDAH_clean_linker_0, # of connection points: 3
#     Node 5, Type 0, BuildingBlock: BETDAH_clean_linker_0, # of connection points: 3
#     Node 6, Type 0, BuildingBlock: BETDAH_clean_linker_0, # of connection points: 3
#     Node 7, Type 0, BuildingBlock: BETDAH_clean_linker_0, # of connection points: 3
#     Node 8, Type 1, BuildingBlock: FUNLAD_clean_sbu_0, # of connection points: 6
#     Node 9, Type 1, BuildingBlock: FUNLAD_clean_sbu_0, # of connection points: 6
#     Node 10, Type 1, BuildingBlock: FUNLAD_clean_sbu_0, # of connection points: 6
#     Node 11, Type 1, BuildingBlock: FUNLAD_clean_sbu_0, # of connection points: 6
#     Edge 12, Type (0, 1), BuildingBlock: UVAHIK_clean_linker_0, # of connection points: 2
#     Edge 13, Type (0, 1), BuildingBlock: UVAHIK_clean_linker_0, # of connection points: 2
#     Edge 14, Type (0, 1), BuildingBlock: UVAHIK_clean_linker_0, # of connection points: 2
#     Edge 15, Type (0, 1), BuildingBlock: UVAHIK_clean_linker_0, # of connection points: 2
#     Edge 16, Type (0, 1), BuildingBlock: UVAHIK_clean_linker_0, # of connection points: 2
#     Edge 17, Type (0, 1), BuildingBlock: UVAHIK_clean_linker_0, # of connection points: 2
#     Edge 18, Type (0, 1), BuildingBlock: UVAHIK_clean_linker_0, # of connection points: 2
#     Edge 19, Type (0, 1), BuildingBlock: UVAHIK_clean_linker_0, # of connection points: 2
#     Edge 20, Type (0, 1), BuildingBlock: UVAHIK_clean_linker_0, # of connection points: 2
#     Edge 21, Type (0, 1), BuildingBlock: UVAHIK_clean_linker_0, # of connection points: 2
#     Edge 22, Type (0, 1), BuildingBlock: UVAHIK_clean_linker_0, # of connection points: 2
#     Edge 23, Type (0, 1), BuildingBlock: UVAHIK_clean_linker_0, # of connection points: 2
#     Edge 24, Type (0, 1), BuildingBlock: UVAHIK_clean_linker_0, # of connection points: 2
#     Edge 25, Type (0, 1), BuildingBlock: UVAHIK_clean_linker_0, # of connection points: 2
#     Edge 26, Type (0, 1), BuildingBlock: UVAHIK_clean_linker_0, # of connection points: 2
#     Edge 27, Type (0, 1), BuildingBlock: UVAHIK_clean_linker_0, # of connection points: 2
#     Edge 28, Type (0, 1), BuildingBlock: UVAHIK_clean_linker_0, # of connection points: 2
#     Edge 29, Type (0, 1), BuildingBlock: UVAHIK_clean_linker_0, # of connection points: 2
#     Edge 30, Type (0, 1), BuildingBlock: UVAHIK_clean_linker_0, # of connection points: 2
#     Edge 31, Type (0, 1), BuildingBlock: UVAHIK_clean_linker_0, # of connection points: 2
#     Edge 32, Type (0, 1), BuildingBlock: UVAHIK_clean_linker_0, # of connection points: 2
#     Edge 33, Type (0, 1), BuildingBlock: UVAHIK_clean_linker_0, # of connection points: 2
#     Edge 34, Type (0, 1), BuildingBlock: UVAHIK_clean_linker_0, # of connection points: 2
#     Edge 35, Type (0, 1), BuildingBlock: UVAHIK_clean_linker_0, # of connection points: 2
# Relax obj value: 0.126
# Max RMSD: 0.176
# Mean RMSD: 0.090
data_MOF--net-zzz--node1-FUNLAD_clean_sbu_0--node2-BETDAH_clean_linker_0--edge1-UVAHIK_clean_linker_0
_symmetry_space_group_name_H-M    P1
_symmetry_Int_Tables_number       1
_symmetry_cell_setting            triclinic
loop_
_symmetry_equiv_pos_as_xyz
'x, y, z'
_cell_length_a     66.150099
_cell_length_b     71.432919
_cell_length_c     22.270447
_cell_angle_alpha  86.44142
_cell_angle_beta   86.263217
_cell_angle_gamma 90.081286
loop_
_atom_site_label
_atom_site_type_symbol
_atom_site_fract_x
_atom_site_fract_y
_atom_site_fract_z
_atom_type_partial_charge
H0 H 0.82697 0.46938 0.22882 0.0
H1 H 0.77 0.47605 0.14932 0.0
H2 H 0.77502 0.48741 0.33583 0.0
C3 C 0.81085 0.47214 0.23379 0.0
C4 C 0.80235 0.47804 0.28868 0.0
C5 C 0.79931 0.47148 0.18349 0.0
C6 C 0.77876 0.4763 0.18867 0.0
C7 C 0.76982 0.48174 0.24417 0.0
C8 C 0.78174 0.48271 0.29373 0.0
N9 N 0.74912 0.48691 0.25104 0.0
C10 C 0.73646 0.48786 0.20365 0.0
H11 H 0.95084 0.82818 0.09416 0.0
H12 H 0.96694 0.77301 0.04261 0.0
H13 H 0.94065 0.78093 0.22166 0.0
C14 C 0.95102 0.81316 0.10479 0.0
C15 C 0.94438 0.80602 0.16269 0.0
C16 C 0.95927 0.80139 0.06166 0.0
C17 C 0.96039 0.78204 0.07595 0.0
C18 C 0.95327 0.77455 0.13358 0.0
C19 C 0.94567 0.78665 0.17694 0.0
N20 N 0.95385 0.75503 0.14989 0.0
C21 C 0.95786 0.74131 0.10918 0.0
H22 H 0.68295 0.00882 0.13252 0.0
H23 H 0.74084 0.99835 0.04207 0.0
H24 H 0.73018 0.98356 0.23238 0.0
C25 C 0.69854 0.00422 0.13423 0.0
C26 C 0.70516 0.99662 0.18886 0.0
C27 C 0.71117 0.00487 0.0811 0.0
C28 C 0.73107 0.99805 0.08308 0.0
C29 C 0.73806 0.99055 0.13809 0.0
C30 C 0.7249 0.98957 0.19038 0.0
N31 N 0.758 0.98351 0.14255 0.0
C32 C 0.77394 0.98696 0.09938 0.0
H33 H 0.51776 0.66087 0.10387 0.0
H34 H 0.53236 0.7168 0.03384 0.0
H35 H 0.54639 0.69889 0.21496 0.0
C36 C 0.52362 0.67471 0.11086 0.0
C37 C 0.53178 0.67818 0.16559 0.0
C38 C 0.52381 0.68854 0.06359 0.0
C39 C 0.532 0.70627 0.07102 0.0
C40 C 0.53996 0.71013 0.12624 0.0
C41 C 0.54009 0.69594 0.17281 0.0
N42 N 0.54809 0.72798 0.13628 0.0
C43 C 0.54545 0.74397 0.09883 0.0
H44 H 0.18168 0.50332 0.17605 0.0
H45 H 0.23402 0.52979 0.23862 0.0
H46 H 0.23148 0.5198 0.05029 0.0
C47 C 0.19686 0.50906 0.16726 0.0
C48 C 0.20555 0.51034 0.10814 0.0
C49 C 0.20688 0.51631 0.21429 0.0
C50 C 0.22625 0.52421 0.20223 0.0
C51 C 0.23537 0.52513 0.14309 0.0
C52 C 0.2247 0.51868 0.09601 0.0
N53 N 0.25523 0.53243 0.13001 0.0
C54 C 0.2694 0.53209 0.17335 0.0
H55 H 0.06369 0.17244 0.30007 0.0
H56 H 0.04889 0.22764 0.35379 0.0
H57 H 0.07679 0.22014 0.17628 0.0
C58 C 0.06412 0.18752 0.29034 0.0
C59 C 0.07156 0.19482 0.23337 0.0
C60 C 0.05585 0.19923 0.33356 0.0
C61 C 0.05544 0.21867 0.32029 0.0
C62 C 0.06341 0.22632 0.26371 0.0
C63 C 0.07114 0.21429 0.22027 0.0
N64 N 0.06361 0.24594 0.24861 0.0
C65 C 0.05716 0.25932 0.28831 0.0
H66 H 0.32539 0.01292 0.26896 0.0
H67 H 0.26676 0.99665 0.35027 0.0
H68 H 0.27586 0.00577 0.15705 0.0
C69 C 0.30945 0.01007 0.26461 0.0
C70 C 0.30207 0.01026 0.20718 0.0
C71 C 0.29691 0.00495 0.31618 0.0
C72 C 0.27641 0.00069 0.31039 0.0
C73 C 0.26865 0.00142 0.25276 0.0
C74 C 0.28168 0.00575 0.20144 0.0
N75 N 0.24801 0.99749 0.24431 0.0
C76 C 0.23255 0.99659 0.28984 0.0
H77 H 0.49302 0.34114 0.27351 0.0
H78 H 0.48011 0.28517 0.34706 0.0
H79 H 0.46381 0.30214 0.1674 0.0
C80 C 0.48753 0.32709 0.26774 0.0
C81 C 0.47878 0.32326 0.21418 0.0
C82 C 0.48804 0.31348 0.31568 0.0
C83 C 0.47997 0.29558 0.3096 0.0
C84 C 0.47143 0.29138 0.25555 0.0
C85 C 0.47061 0.30535 0.20857 0.0
N86 N 0.46329 0.2734 0.24728 0.0
C87 C 0.46677 0.25759 0.28465 0.0
C88 C 0.01238 0.96547 0.74366 0.0
N89 N 0.98574 0.98381 0.58643 0.0
C90 C 0.99749 0.97082 0.55887 0.0
C91 C 0.98947 0.95942 0.51776 0.0
C92 C 0.969 0.96108 0.50555 0.0
C93 C 0.95728 0.97493 0.53306 0.0
C94 C 0.96606 0.98635 0.57326 0.0
Zn95 Zn 0.99755 0.99634 0.65698 0.0
C96 C 0.96648 0.99954 0.75972 0.0
N97 N 0.02298 0.01857 0.80935 0.0
C98 C 0.0426 0.01577 0.82259 0.0
C99 C 0.01145 0.03178 0.8366 0.0
C100 C 0.01973 0.04321 0.87726 0.0
C101 C 0.04018 0.04129 0.88941 0.0
C102 C 0.05161 0.02715 0.8624 0.0
Zn103 Zn 0.01108 0.00607 0.73891 0.0
O104 O 0.00421 0.96931 0.69435 0.0
C105 C 0.04214 0.00267 0.6362 0.0
O106 O 0.01733 0.97872 0.77549 0.0
H107 H 0.99607 0.03418 0.82454 0.0
H108 H 0.0129 0.96858 0.57094 0.0
H109 H 0.05156 0.00526 0.80034 0.0
O110 O 0.02658 0.99775 0.61041 0.0
O111 O 0.04012 0.00715 0.69062 0.0
H112 H 0.95691 0.99666 0.59582 0.0
O113 O 0.00449 0.03311 0.7014 0.0
O114 O 0.99126 0.02369 0.62044 0.0
O115 O 0.98195 0.00467 0.78562 0.0
O116 O 0.9686 0.99512 0.70526 0.0
C117 C 0.9963 0.03695 0.65212 0.0
H118 H 0.99891 0.9487 0.49822 0.0
H119 H 0.94143 0.97663 0.52456 0.0
H120 H 0.01048 0.05413 0.89647 0.0
H121 H 0.06743 0.02522 0.87093 0.0
C122 C 0.47059 0.99408 0.63591 0.0
N123 N 0.50204 0.04406 0.65245 0.0
C124 C 0.50016 0.04712 0.59217 0.0
C125 C 0.4989 0.06531 0.56636 0.0
C126 C 0.49947 0.08061 0.6028 0.0
C127 C 0.50132 0.07711 0.66501 0.0
C128 C 0.50266 0.05861 0.68901 0.0
Zn129 Zn 0.50342 0.0168 0.68587 0.0
C130 C 0.47633 0.00866 0.79471 0.0
N131 N 0.50531 0.95906 0.74706 0.0
C132 C 0.50469 0.94465 0.71001 0.0
C133 C 0.50728 0.95583 0.80722 0.0
C134 C 0.50884 0.93756 0.83233 0.0
C135 C 0.50839 0.92238 0.7953 0.0
C136 C 0.50625 0.92609 0.7333 0.0
Zn137 Zn 0.50401 0.98636 0.71394 0.0
O138 O 0.47819 0.01036 0.63774 0.0
C139 C 0.53091 0.99441 0.60471 0.0
O140 O 0.47891 0.98021 0.66295 0.0
H141 H 0.50787 0.96747 0.83585 0.0
H142 H 0.4995 0.03538 0.56393 0.0
H143 H 0.50311 0.94755 0.6623 0.0
O144 O 0.52373 0.01065 0.61229 0.0
O145 O 0.52498 0.98077 0.64098 0.0
H146 H 0.50415 0.05585 0.73682 0.0
O147 O 0.52903 0.99306 0.76456 0.0
O148 O 0.52874 0.02289 0.73414 0.0
O149 O 0.483 0.99231 0.7859 0.0
O150 O 0.48304 0.02248 0.76033 0.0
C151 C 0.5368 0.00939 0.76364 0.0
H152 H 0.49713 0.06734 0.51839 0.0
H153 H 0.50192 0.08854 0.69462 0.0
H154 H 0.51082 0.93541 0.88015 0.0
H155 H 0.50567 0.91479 0.7032 0.0
C156 C 0.50719 0.46657 0.64925 0.0
N157 N 0.45777 0.50307 0.64986 0.0
C158 C 0.45625 0.49677 0.59393 0.0
C159 C 0.43787 0.49752 0.56698 0.0
C160 C 0.42084 0.50508 0.59736 0.0
C161 C 0.42271 0.51153 0.65504 0.0
C162 C 0.44144 0.51026 0.68086 0.0
Zn163 Zn 0.48588 0.50226 0.68263 0.0
C164 C 0.48755 0.48296 0.80058 0.0
N165 N 0.54623 0.49994 0.73776 0.0
C166 C 0.56271 0.49413 0.7042 0.0
C167 C 0.54785 0.50545 0.79462 0.0
C168 C 0.56656 0.50537 0.8198 0.0
C169 C 0.58384 0.49945 0.78642 0.0
C170 C 0.58179 0.49368 0.72795 0.0
Zn171 Zn 0.51806 0.50066 0.70558 0.0
O172 O 0.4906 0.47548 0.64916 0.0
C173 C 0.51641 0.51991 0.58752 0.0
O174 O 0.52266 0.47409 0.6689 0.0
H175 H 0.53455 0.50985 0.82078 0.0
H176 H 0.46945 0.49143 0.56951 0.0
H177 H 0.56105 0.48981 0.65906 0.0
O178 O 0.49781 0.51598 0.60036 0.0
O179 O 0.52943 0.51465 0.62439 0.0
H180 H 0.44302 0.51524 0.7252 0.0
O181 O 0.51316 0.52728 0.74105 0.0
O182 O 0.48147 0.52888 0.7179 0.0
O183 O 0.50618 0.4866 0.7871 0.0
O184 O 0.47443 0.48859 0.76445 0.0
C185 C 0.49662 0.53627 0.73969 0.0
H186 H 0.43714 0.49274 0.52195 0.0
H187 H 0.40987 0.51747 0.67975 0.0
H188 H 0.56741 0.50959 0.86546 0.0
H189 H 0.5948 0.48906 0.70078 0.0
C190 C 0.03552 0.50985 0.6188 0.0
N191 N 0.00789 0.45748 0.66113 0.0
C192 C 0.00908 0.45588 0.60044 0.0
C193 C 0.01102 0.43835 0.57663 0.0
C194 C 0.01193 0.42218 0.61545 0.0
C195 C 0.01092 0.42417 0.67798 0.0
C196 C 0.00878 0.44206 0.70002 0.0
Zn197 Zn 0.00492 0.48407 0.6904 0.0
C198 C 0.03186 0.49245 0.78309 0.0
N199 N 0.9991 0.541 0.73744 0.0
C200 C 0.99894 0.55656 0.69889 0.0
C201 C 0.99648 0.54234 0.79812 0.0
C202 C 0.99309 0.55967 0.82221 0.0
C203 C 0.99242 0.57594 0.78372 0.0
C204 C 0.99571 0.57431 0.72126 0.0
Zn205 Zn 0.00223 0.51443 0.70805 0.0
O206 O 0.02907 0.49309 0.62862 0.0
C207 C 0.97564 0.50606 0.61441 0.0
O208 O 0.02656 0.52295 0.64591 0.0
H209 H 0.99677 0.52986 0.82811 0.0
H210 H 0.00858 0.46828 0.57015 0.0
H211 H 0.00104 0.55518 0.6508 0.0
O212 O 0.98363 0.49017 0.6256 0.0
O213 O 0.9809 0.52003 0.64254 0.0
H214 H 0.00784 0.44364 0.74812 0.0
O215 O 0.97785 0.50538 0.76917 0.0
O216 O 0.9807 0.47547 0.75292 0.0
O217 O 0.02378 0.50838 0.77284 0.0
O218 O 0.02621 0.47852 0.75546 0.0
C219 C 0.97151 0.48861 0.77916 0.0
H220 H 0.01212 0.43751 0.52814 0.0
H221 H 0.01152 0.41202 0.70942 0.0
H222 H 0.991 0.56032 0.87069 0.0
H223 H 0.99526 0.58653 0.69005 0.0
C224 C 0.19677 0.98833 0.31235 0.0
C225 C 0.21471 0.99588 0.33078 0.0
C226 C 0.17897 0.9885 0.34968 0.0
C227 C 0.15443 0.01286 0.47662 0.0
H228 H 0.1166 0.97118 0.48183 0.0
C229 C 0.07973 0.00869 0.6304 0.0
C230 C 0.06243 0.00247 0.6037 0.0
C231 C 0.09892 0.00781 0.6002 0.0
C232 C 0.12693 0.983 0.48052 0.0
H233 H 0.22858 0.00943 0.40202 0.0
H234 H 0.19742 0.00954 0.46839 0.0
H235 H 0.14921 0.96925 0.4252 0.0
H236 H 0.05178 0.99063 0.52399 0.0
H237 H 0.08514 0.98915 0.47154 0.0
H238 H 0.13201 0.02659 0.53205 0.0
C239 C 0.19697 0.00365 0.42486 0.0
C240 C 0.14564 0.9819 0.44801 0.0
C241 C 0.21481 0.00348 0.38726 0.0
C242 C 0.06476 0.99552 0.54597 0.0
C243 C 0.08392 0.99454 0.51603 0.0
C244 C 0.13571 0.01393 0.50943 0.0
C245 C 0.17878 0.99624 0.40635 0.0
C246 C 0.15952 0.99692 0.44482 0.0
C247 C 0.10125 0.00055 0.54288 0.0
C248 C 0.12162 0.99911 0.51099 0.0
H249 H 0.19641 0.98257 0.26853 0.0
H250 H 0.16524 0.98298 0.33339 0.0
H251 H 0.16463 0.02479 0.47464 0.0
H252 H 0.07847 0.0141 0.67485 0.0
H253 H 0.11199 0.01245 0.62223 0.0
C254 C 0.461 0.23706 0.37743 0.0
C255 C 0.47091 0.24072 0.3204 0.0
C256 C 0.46465 0.22031 0.41095 0.0
C257 C 0.48294 0.17216 0.39147 0.0
H258 H 0.48878 0.17064 0.56385 0.0
C259 C 0.50833 0.10517 0.52003 0.0
C260 C 0.49786 0.10002 0.57553 0.0
C261 C 0.50567 0.12288 0.49165 0.0
C262 C 0.48699 0.17082 0.51583 0.0
H263 H 0.49252 0.23043 0.25341 0.0
H264 H 0.49914 0.20121 0.31189 0.0
H265 H 0.48276 0.20061 0.50891 0.0
H266 H 0.47678 0.10961 0.64558 0.0
H267 H 0.47206 0.14062 0.59579 0.0
H268 H 0.48704 0.14246 0.39811 0.0
C269 C 0.48835 0.211 0.3307 0.0
C270 C 0.48354 0.18798 0.48437 0.0
C271 C 0.48468 0.22772 0.29737 0.0
C272 C 0.48518 0.11322 0.60305 0.0
C273 C 0.48247 0.13098 0.57451 0.0
C274 C 0.48637 0.15506 0.42282 0.0
C275 C 0.47824 0.20701 0.38766 0.0
C276 C 0.4816 0.18884 0.42174 0.0
C277 C 0.49243 0.13588 0.51797 0.0
C278 C 0.48857 0.15418 0.48528 0.0
H279 H 0.45029 0.24702 0.39572 0.0
H280 H 0.45651 0.21759 0.4544 0.0
H281 H 0.48108 0.17227 0.34348 0.0
H282 H 0.51853 0.09544 0.49826 0.0
H283 H 0.51394 0.12636 0.44881 0.0
C284 C 0.29201 0.51198 0.23109 0.0
C285 C 0.28351 0.52965 0.21957 0.0
C286 C 0.30549 0.50923 0.27641 0.0
C287 C 0.32238 0.52889 0.41429 0.0
H288 H 0.3704 0.49946 0.37891 0.0
C289 C 0.39145 0.52409 0.56298 0.0
C290 C 0.40165 0.50687 0.56687 0.0
C291 C 0.37526 0.52656 0.52588 0.0
C292 C 0.35692 0.50746 0.38995 0.0
H293 H 0.28177 0.55828 0.24569 0.0
H294 H 0.30571 0.55362 0.32505 0.0
H295 H 0.34605 0.50474 0.30268 0.0
H296 H 0.40201 0.47832 0.53918 0.0
H297 H 0.37358 0.48248 0.47538 0.0
H298 H 0.33348 0.5317 0.50167 0.0
C299 C 0.30188 0.54184 0.29954 0.0
C300 C 0.34298 0.51053 0.34614 0.0
C301 C 0.28837 0.54456 0.25402 0.0
C302 C 0.3946 0.49183 0.53615 0.0
C303 C 0.3784 0.49425 0.49945 0.0
C304 C 0.33638 0.52581 0.45831 0.0
C305 C 0.31067 0.52414 0.31097 0.0
C306 C 0.32551 0.5212 0.35781 0.0
C307 C 0.36898 0.51181 0.4923 0.0
C308 C 0.35376 0.51497 0.44664 0.0
H309 H 0.28818 0.50028 0.20515 0.0
H310 H 0.31173 0.49537 0.28473 0.0
H311 H 0.30896 0.53704 0.42479 0.0
H312 H 0.39669 0.53593 0.58594 0.0
H313 H 0.36838 0.54027 0.52114 0.0
C314 C 0.03472 0.28563 0.31186 0.0
C315 C 0.05077 0.27391 0.3271 0.0
C316 C 0.02926 0.30055 0.34717 0.0
C317 C 0.03438 0.31951 0.49675 0.0
H318 H 0.02352 0.36691 0.41075 0.0
C319 C 0.02836 0.3905 0.61114 0.0
C320 C 0.01415 0.40351 0.58995 0.0
C321 C 0.03175 0.37372 0.58274 0.0
C322 C 0.02621 0.35373 0.43562 0.0
H323 H 0.07357 0.268 0.39083 0.0
H324 H 0.06418 0.29425 0.45278 0.0
H325 H 0.03135 0.33946 0.35451 0.0
H326 H 0.99146 0.40861 0.52498 0.0
H327 H 0.99715 0.37935 0.47608 0.0
H328 H 0.02934 0.33393 0.57798 0.0
C329 C 0.05562 0.29188 0.41409 0.0
C330 C 0.03071 0.33797 0.40329 0.0
C331 C 0.06108 0.27694 0.37863 0.0
C332 C 0.0028 0.39903 0.54157 0.0
C333 C 0.00611 0.38228 0.51345 0.0
C334 C 0.02983 0.33532 0.52921 0.0
C335 C 0.03981 0.30402 0.39829 0.0
C336 C 0.03482 0.32065 0.43338 0.0
C337 C 0.02094 0.3696 0.53276 0.0
C338 C 0.02563 0.35262 0.49898 0.0
H339 H 0.02658 0.28341 0.27219 0.0
H340 H 0.01681 0.30944 0.33426 0.0
H341 H 0.0373 0.30633 0.52131 0.0
H342 H 0.03742 0.39362 0.64809 0.0
H343 H 0.04338 0.36433 0.59853 0.0
C344 C 0.79375 0.98383 0.00239 0.0
C345 C 0.79222 0.99 0.06099 0.0
C346 C 0.81216 0.98552 0.96753 0.0
C347 C 0.86713 0.98959 0.98449 0.0
H348 H 0.87022 0.00487 0.81403 0.0
C349 C 0.94369 0.00479 0.85156 0.0
C350 C 0.94624 0.99877 0.79266 0.0
C351 C 0.92465 0.00401 0.88285 0.0
C352 C 0.8696 1.00036 0.86145 0.0
H353 H 0.80813 0.00303 0.12936 0.0
H354 H 0.84024 0.0062 0.06863 0.0
H355 H 0.83729 0.00319 0.87066 0.0
H356 H 0.93067 0.98724 0.72038 0.0
H357 H 0.89752 0.9856 0.77535 0.0
H358 H 0.89932 0.98659 0.97551 0.0
C359 C 0.82745 0.99986 0.04948 0.0
C360 C 0.85072 0.99943 0.89391 0.0
C361 C 0.80907 0.9982 0.08409 0.0
C362 C 0.92925 0.99202 0.76567 0.0
C363 C 0.9102 0.99119 0.79707 0.0
C364 C 0.88595 0.99046 0.95209 0.0
C365 C 0.82932 0.99332 0.99107 0.0
C366 C 0.84928 0.99414 0.95592 0.0
C367 C 0.90766 0.99711 0.85616 0.0
C368 C 0.88748 0.99596 0.89022 0.0
H369 H 0.78086 0.97736 0.98406 0.0
H370 H 0.81313 0.98022 0.92293 0.0
H371 H 0.86654 0.98509 0.03192 0.0
H372 H 0.9564 0.0102 0.87358 0.0
H373 H 0.92323 0.00899 0.92786 0.0
C374 C 0.52749 0.76208 0.02111 0.0
C375 C 0.54242 0.76108 0.06296 0.0
C376 C 0.52389 0.77903 0.9887 0.0
C377 C 0.52987 0.82997 0.99773 0.0
H378 H 0.51954 0.83236 0.82797 0.0
C379 C 0.50107 0.89738 0.87811 0.0
C380 C 0.51061 0.90289 0.8215 0.0
C381 C 0.50433 0.87957 0.90509 0.0
C382 C 0.52249 0.83192 0.87531 0.0
H383 H 0.56552 0.77644 0.10395 0.0
H384 H 0.55938 0.80613 0.04717 0.0
H385 H 0.52739 0.80222 0.87922 0.0
H386 H 0.5307 0.89379 0.74823 0.0
H387 H 0.53635 0.8626 0.79535 0.0
H388 H 0.52524 0.85963 0.99389 0.0
C389 C 0.5503 0.79398 0.03952 0.0
C390 C 0.52681 0.81465 0.90477 0.0
C391 C 0.55391 0.77703 0.07171 0.0
C392 C 0.52297 0.88992 0.7916 0.0
C393 C 0.52622 0.87206 0.81861 0.0
C394 C 0.52547 0.84718 0.96842 0.0
C395 C 0.53511 0.79523 0.99807 0.0
C396 C 0.53059 0.8135 0.9663 0.0
C397 C 0.51719 0.8668 0.87611 0.0
C398 C 0.52171 0.84837 0.90691 0.0
H399 H 0.51839 0.74987 0.01418 0.0
H400 H 0.51195 0.77958 0.95759 0.0
H401 H 0.53247 0.82955 0.04531 0.0
H402 H 0.49113 0.90688 0.90181 0.0
H403 H 0.49683 0.87581 0.94887 0.0
C404 C 0.71256 0.50506 0.14114 0.0
C405 C 0.72385 0.4889 0.1534 0.0
C406 C 0.70024 0.50608 0.09245 0.0
C407 C 0.67299 0.4762 0.99604 0.0
H408 H 0.6675 0.52271 0.89914 0.0
C409 C 0.61614 0.48311 0.81065 0.0
C410 C 0.60367 0.49897 0.81379 0.0
C411 C 0.63362 0.48184 0.84277 0.0
C412 C 0.66886 0.50963 0.92585 0.0
H413 H 0.73178 0.46127 0.12528 0.0
H414 H 0.71021 0.46297 0.03963 0.0
H415 H 0.69273 0.52042 0.97445 0.0
H416 H 0.60033 0.52639 0.84972 0.0
H417 H 0.6306 0.52411 0.90618 0.0
H418 H 0.64877 0.46556 0.94867 0.0
C419 C 0.71064 0.47479 0.06771 0.0
C420 C 0.68327 0.50833 0.96903 0.0
C421 C 0.72298 0.47381 0.11643 0.0
C422 C 0.60954 0.5139 0.8471 0.0
C423 C 0.62701 0.51267 0.87891 0.0
C424 C 0.65858 0.4775 0.95287 0.0
C425 C 0.69907 0.49092 0.05533 0.0
C426 C 0.6852 0.49173 0.00548 0.0
C427 C 0.639 0.49646 0.87823 0.0
C428 C 0.65606 0.49436 0.91819 0.0
H429 H 0.71314 0.51684 0.16943 0.0
H430 H 0.69129 0.51858 0.08469 0.0
H431 H 0.67395 0.46327 0.0238 0.0
H432 H 0.61194 0.47137 0.78547 0.0
H433 H 0.64269 0.46925 0.84088 0.0
C434 C 0.97616 0.72676 0.02371 0.0
C435 C 0.96101 0.72591 0.07084 0.0
C436 C 0.97957 0.71132 0.98854 0.0
C437 C 0.97183 0.66007 0.99553 0.0
H438 H 0.98177 0.66503 0.8217 0.0
C439 C 0.97259 0.59554 0.85562 0.0
C440 C 0.98796 0.5943 0.80945 0.0
C441 C 0.96925 0.61228 0.88371 0.0
C442 C 0.97923 0.66344 0.87029 0.0
H443 H 0.93729 0.70889 0.11815 0.0
H444 H 0.94305 0.68196 0.05675 0.0
H445 H 0.97619 0.69312 0.87818 0.0
H446 H 0.01143 0.60985 0.75506 0.0
H447 H 0.00568 0.63923 0.80468 0.0
H448 H 0.97492 0.63053 0.98816 0.0
C449 C 0.95251 0.69431 0.0471 0.0
C450 C 0.97603 0.67952 0.90262 0.0
C451 C 0.94911 0.70971 0.082 0.0
C452 C 0.99943 0.61042 0.79039 0.0
C453 C 0.99613 0.62723 0.81879 0.0
C454 C 0.97504 0.64407 0.96338 0.0
C455 C 0.96793 0.69483 0.00037 0.0
C456 C 0.97206 0.67797 0.96558 0.0
C457 C 0.98124 0.62823 0.86661 0.0
C458 C 0.97854 0.64551 0.9003 0.0
H459 H 0.98549 0.73922 0.01463 0.0
H460 H 0.99164 0.71212 0.95318 0.0
H461 H 0.9693 0.6584 0.04411 0.0
H462 H 0.9632 0.58348 0.8704 0.0
H463 H 0.9573 0.61268 0.91925 0.0
C464 C 0.05754 0.17775 0.4251 0.0
C465 C 0.04632 0.1904 0.3901 0.0
C466 C 0.04775 0.16536 0.46836 0.0
C467 C 0.02412 0.14178 0.56584 0.0
H468 H 0.98086 0.11562 0.49574 0.0
C469 C 0.99556 0.07093 0.67185 0.0
C470 C 0.99419 0.05683 0.63096 0.0
C471 C 0.99674 0.08978 0.6514 0.0
C472 C 0.99287 0.1228 0.51608 0.0
H473 H 0.01634 0.2011 0.37536 0.0
H474 H 0.99906 0.17941 0.45174 0.0
H475 H 0.99356 0.14537 0.4482 0.0
H476 H 0.99177 0.05145 0.53703 0.0
H477 H 0.9944 0.08437 0.5009 0.0
H478 H 0.02449 0.11866 0.63116 0.0
C479 C 0.01542 0.179 0.44545 0.0
C480 C 0.99995 0.14 0.48934 0.0
C481 C 0.02529 0.19154 0.40232 0.0
C482 C 0.9928 0.06202 0.56956 0.0
C483 C 0.99421 0.08092 0.54896 0.0
C484 C 0.01709 0.12458 0.59244 0.0
C485 C 0.0265 0.16528 0.47716 0.0
C486 C 0.01615 0.14935 0.51275 0.0
C487 C 0.99683 0.09498 0.5895 0.0
C488 C 0.00182 0.11458 0.56677 0.0
H489 H 0.07377 0.17658 0.41603 0.0
H490 H 0.05676 0.15488 0.49147 0.0
H491 H 0.03647 0.14874 0.58531 0.0
H492 H 0.99636 0.06737 0.71964 0.0
H493 H 0.99827 0.10025 0.68399 0.0
C494 C 0.31738 0.0176 0.3942 0.0
C495 C 0.30636 0.00264 0.37441 0.0
C496 C 0.33122 0.01442 0.4383 0.0
C497 C 0.36524 0.97734 0.48724 0.0
H498 H 0.38093 0.01443 0.59553 0.0
C499 C 0.44043 0.97485 0.61248 0.0
C500 C 0.45101 0.99204 0.6082 0.0
C501 C 0.42078 0.97385 0.59265 0.0
C502 C 0.3767 0.00391 0.56558 0.0
H503 H 0.29998 0.9729 0.38764 0.0
H504 H 0.32417 0.96727 0.46563 0.0
H505 H 0.34808 0.01686 0.55196 0.0
H506 H 0.44951 0.02145 0.57751 0.0
H507 H 0.41556 0.01963 0.54319 0.0
H508 H 0.39424 0.96477 0.49957 0.0
C509 C 0.32219 0.98144 0.44677 0.0
C510 C 0.35789 0.00528 0.54074 0.0
C511 C 0.30818 0.98468 0.4028 0.0
C512 C 0.44181 0.00799 0.58191 0.0
C513 C 0.42224 0.00701 0.5627 0.0
C514 C 0.38407 0.97592 0.5124 0.0
C515 C 0.33444 0.99617 0.4632 0.0
C516 C 0.35224 0.99242 0.49952 0.0
C517 C 0.41135 0.99005 0.56887 0.0
C518 C 0.39027 0.9896 0.55001 0.0
H519 H 0.31632 0.03153 0.37242 0.0
H520 H 0.3405 0.02607 0.44933 0.0
H521 H 0.36147 0.9673 0.45519 0.0
H522 H 0.44708 0.96232 0.63265 0.0
H523 H 0.41274 0.96057 0.5976 0.0
C524 C 0.48136 0.31884 0.42455 0.0
C525 C 0.495 0.31926 0.37353 0.0
C526 C 0.48496 0.32993 0.47234 0.0
C527 C 0.52113 0.36259 0.53381 0.0
H528 H 0.47424 0.39497 0.54391 0.0
C529 C 0.52515 0.43934 0.60384 0.0
C530 C 0.50763 0.44709 0.63105 0.0
C531 C 0.52472 0.42107 0.58427 0.0
C532 C 0.48736 0.38594 0.5433 0.0
H533 H 0.52413 0.32956 0.33523 0.0
H534 H 0.5305 0.34882 0.41877 0.0
H535 H 0.47215 0.36582 0.49528 0.0
H536 H 0.47648 0.44151 0.6635 0.0
H537 H 0.47598 0.40958 0.63257 0.0
H538 H 0.53643 0.38299 0.58132 0.0
C539 C 0.51705 0.34007 0.42209 0.0
C540 C 0.48613 0.36913 0.51525 0.0
C541 C 0.51339 0.32909 0.37418 0.0
C542 C 0.49007 0.43602 0.64123 0.0
C543 C 0.48978 0.41771 0.62322 0.0
C544 C 0.5223 0.37938 0.56286 0.0
C545 C 0.50228 0.34148 0.46981 0.0
C546 C 0.50307 0.35743 0.50913 0.0
C547 C 0.50689 0.41012 0.59288 0.0
C548 C 0.50551 0.39145 0.56695 0.0
H549 H 0.46705 0.31143 0.42495 0.0
H550 H 0.47345 0.33061 0.50904 0.0
H551 H 0.53444 0.35384 0.52955 0.0
H552 H 0.53891 0.44761 0.59583 0.0
H553 H 0.53815 0.41582 0.56062 0.0
C554 C 0.19315 0.53399 0.30126 0.0
C555 C 0.19603 0.51685 0.27431 0.0
C556 C 0.17917 0.53527 0.35074 0.0
C557 C 0.14662 0.50698 0.46503 0.0
H558 H 0.10706 0.54612 0.43747 0.0
C559 C 0.06389 0.53115 0.57577 0.0
C560 C 0.05448 0.5134 0.58084 0.0
C561 C 0.08302 0.53364 0.54535 0.0
C562 C 0.11814 0.53533 0.44647 0.0
H563 H 0.18797 0.48738 0.28035 0.0
H564 H 0.16369 0.48953 0.36655 0.0
H565 H 0.13902 0.54661 0.37598 0.0
H566 H 0.05743 0.48455 0.55596 0.0
H567 H 0.09047 0.48895 0.50304 0.0
H568 H 0.12536 0.49525 0.53368 0.0
C569 C 0.17212 0.502 0.34991 0.0
C570 C 0.13648 0.53563 0.41145 0.0
C571 C 0.18594 0.50076 0.30034 0.0
C572 C 0.06427 0.49839 0.55332 0.0
C573 C 0.08332 0.50085 0.52344 0.0
C574 C 0.1283 0.50666 0.49984 0.0
C575 C 0.16804 0.51939 0.37429 0.0
C576 C 0.15062 0.5211 0.41904 0.0
C577 C 0.09307 0.51838 0.52003 0.0
C578 C 0.1136 0.52046 0.48949 0.0
H579 H 0.20069 0.54661 0.2817 0.0
H580 H 0.17648 0.54881 0.36902 0.0
H581 H 0.15737 0.49579 0.47264 0.0
H582 H 0.05676 0.54297 0.59662 0.0
H583 H 0.09019 0.54733 0.54312 0.0
C584 C 0.95622 0.82235 0.96956 0.0
C585 C 0.96811 0.81017 0.00416 0.0
C586 C 0.96533 0.83503 0.92587 0.0
C587 C 0.01208 0.86201 0.90368 0.0
H588 H 0.98605 0.88293 0.76394 0.0
C589 C 0.01347 0.93154 0.72326 0.0
C590 C 0.01473 0.94559 0.7644 0.0
C591 C 0.01279 0.91264 0.74327 0.0
C592 C 0.99386 0.87715 0.80207 0.0
H593 H 0.99858 0.80054 0.0175 0.0
H594 H 0.01466 0.82269 0.94027 0.0
H595 H 0.97543 0.85237 0.80916 0.0
H596 H 0.01741 0.95082 0.85832 0.0
H597 H 0.01567 0.91781 0.89373 0.0
H598 H 0.03025 0.88699 0.89728 0.0
C599 C 0.99831 0.82253 0.94728 0.0
C600 C 0.9876 0.85967 0.82832 0.0
C601 C 0.98912 0.80972 0.99087 0.0
C602 C 0.01645 0.94031 0.8256 0.0
C603 C 0.01555 0.92135 0.84577 0.0
C604 C 0.0184 0.8795 0.87727 0.0
C605 C 0.98655 0.83586 0.9162 0.0
C606 C 0.99613 0.8522 0.88069 0.0
C607 C 0.01312 0.90733 0.805 0.0
C608 C 0.00889 0.88756 0.82737 0.0
H609 H 0.93999 0.823 0.97947 0.0
H610 H 0.95581 0.84517 0.90326 0.0
H611 H 0.01889 0.85675 0.94429 0.0
H612 H 0.01242 0.93517 0.6756 0.0
H613 H 0.01138 0.90221 0.71048 0.0
C614 C 0.68963 0.0269 0.02236 0.0
C615 C 0.70219 0.01106 0.02393 0.0
C616 C 0.67557 0.02938 0.97859 0.0
C617 C 0.64647 0.99889 0.88808 0.0
H618 H 0.61884 0.04551 0.85017 0.0
C619 C 0.56306 0.99863 0.83362 0.0
C620 C 0.5563 0.01205 0.79089 0.0
C621 C 0.58248 0.99991 0.85419 0.0
C622 C 0.62645 0.03235 0.85944 0.0
H623 H 0.71191 0.98682 0.97618 0.0
H624 H 0.68809 0.99166 0.89742 0.0
H625 H 0.65229 0.04629 0.88904 0.0
H626 H 0.5645 0.03753 0.73668 0.0
H627 H 0.5986 0.0395 0.77111 0.0
H628 H 0.62097 0.98494 0.85693 0.0
C629 C 0.6884 0.00172 0.93175 0.0
C630 C 0.64562 0.03279 0.88246 0.0
C631 C 0.70233 0.99911 0.97623 0.0
C632 C 0.56921 0.02706 0.77017 0.0
C633 C 0.58879 0.02819 0.78998 0.0
C634 C 0.6275 0.99846 0.86416 0.0
C635 C 0.67397 0.01621 0.93468 0.0
C636 C 0.65562 0.01604 0.89902 0.0
C637 C 0.59581 0.01446 0.83163 0.0
C638 C 0.6169 0.01514 0.85142 0.0
H639 H 0.68942 0.03647 0.0583 0.0
H640 H 0.66485 0.04073 0.98279 0.0
H641 H 0.65344 0.98564 0.90068 0.0
H642 H 0.55341 0.98696 0.85067 0.0
H643 H 0.58704 0.98939 0.88764 0.0
C644 C 0.53106 0.67725 0.96171 0.0
C645 C 0.51682 0.68327 0.00558 0.0
C646 C 0.52496 0.66619 0.91654 0.0
C647 C 0.48477 0.63164 0.90157 0.0
H648 H 0.51612 0.62362 0.7523 0.0
C649 C 0.51362 0.56536 0.76764 0.0
C650 C 0.49562 0.55556 0.76007 0.0
C651 C 0.513 0.58374 0.78534 0.0
C652 C 0.50712 0.6258 0.79365 0.0
H653 H 0.48501 0.68409 0.03438 0.0
H654 H 0.47406 0.66556 0.95358 0.0
H655 H 0.51999 0.65298 0.80114 0.0
H656 H 0.46283 0.55737 0.76488 0.0
H657 H 0.46178 0.58951 0.79791 0.0
H658 H 0.47228 0.60425 0.89458 0.0
C659 C 0.49001 0.66885 0.95474 0.0
C660 C 0.50936 0.64257 0.82176 0.0
C661 C 0.49619 0.67968 0.00045 0.0
C662 C 0.47694 0.56457 0.77054 0.0
C663 C 0.47633 0.58292 0.78928 0.0
C664 C 0.48234 0.615 0.87302 0.0
C665 C 0.50445 0.66104 0.9144 0.0
C666 C 0.49883 0.64539 0.87739 0.0
C667 C 0.49438 0.59268 0.79665 0.0
C668 C 0.49407 0.61163 0.82009 0.0
H669 H 0.54709 0.67962 0.96569 0.0
H670 H 0.53659 0.66035 0.88685 0.0
H671 H 0.47659 0.63307 0.94472 0.0
H672 H 0.52826 0.55888 0.75956 0.0
H673 H 0.52713 0.59082 0.79164 0.0
C674 C 0.82338 0.45327 0.11894 0.0
C675 C 0.80992 0.46836 0.1245 0.0
C676 C 0.83788 0.45326 0.07045 0.0
C677 C 0.86885 0.48788 0.98719 0.0
H678 H 0.88916 0.44802 0.88965 0.0
C679 C 0.93884 0.49987 0.82483 0.0
C680 C 0.9524 0.48503 0.81616 0.0
C681 C 0.9202 0.49677 0.85663 0.0
C682 C 0.88383 0.45921 0.91718 0.0
H683 H 0.7998 0.49439 0.08149 0.0
H684 H 0.82529 0.49445 0.99684 0.0
H685 H 0.85719 0.44367 0.95104 0.0
H686 H 0.95709 0.45525 0.83408 0.0
H687 H 0.92479 0.44993 0.89286 0.0
H688 H 0.89571 0.50307 0.95722 0.0
C689 C 0.82458 0.48264 0.02989 0.0
C690 C 0.86544 0.45676 0.95171 0.0
C691 C 0.80992 0.48253 0.07797 0.0
C692 C 0.94694 0.46696 0.84032 0.0
C693 C 0.92834 0.46391 0.87342 0.0
C694 C 0.88732 0.49019 0.9538 0.0
C695 C 0.83927 0.46847 0.02733 0.0
C696 C 0.85777 0.47115 0.98672 0.0
C697 C 0.91473 0.47881 0.882 0.0
C698 C 0.89506 0.47596 0.91802 0.0
H699 H 0.82364 0.4422 0.15441 0.0
H700 H 0.84908 0.4422 0.06958 0.0
H701 H 0.86356 0.499 0.01514 0.0
H702 H 0.9424 0.5139 0.80576 0.0
H703 H 0.90997 0.50851 0.86061 0.0
C704 C 0.06896 0.18246 0.13138 0.0
C705 C 0.07784 0.18158 0.18705 0.0
C706 C 0.07082 0.1674 0.09408 0.0
C707 C 0.07603 0.11657 0.11233 0.0
H708 H 0.07629 0.11907 0.93789 0.0
C709 C 0.03978 0.0601 0.98064 0.0
C710 C 0.04966 0.05501 0.92639 0.0
C711 C 0.04737 0.07464 0.01187 0.0
C712 C 0.07648 0.11811 0.98658 0.0
H713 H 0.09731 0.16526 0.24458 0.0
H714 H 0.10078 0.1391 0.17923 0.0
H715 H 0.08356 0.14734 0.98954 0.0
H716 H 0.07546 0.06086 0.86287 0.0
H717 H 0.08874 0.08642 0.9176 0.0
H718 H 0.06841 0.08752 0.10961 0.0
C719 C 0.09199 0.15117 0.16496 0.0
C720 C 0.08048 0.13432 0.01613 0.0
C721 C 0.0901 0.16617 0.2022 0.0
C722 C 0.06765 0.06438 0.90492 0.0
C723 C 0.07513 0.07911 0.93585 0.0
C724 C 0.0719 0.10045 0.08288 0.0
C725 C 0.08162 0.15124 0.11184 0.0
C726 C 0.07996 0.13379 0.07942 0.0
C727 C 0.0649 0.08455 0.98923 0.0
C728 C 0.07168 0.10111 0.0198 0.0
H729 H 0.05931 0.1941 0.11883 0.0
H730 H 0.06257 0.16787 0.05357 0.0
H731 H 0.07523 0.1157 0.16115 0.0
H732 H 0.02591 0.05308 -0.00177 0.0
H733 H 0.03904 0.07862 0.05259 0.0
C734 C 0.32837 0.03011 0.148 0.0
C735 C 0.3164 0.01379 0.15391 0.0
C736 C 0.34434 0.03207 0.10373 0.0
C737 C 0.36818 0.00985 0.9683 0.0
H738 H 0.41705 0.03279 0.01836 0.0
C739 C 0.44768 0.99525 0.8624 0.0
C740 C 0.45913 0.01102 0.83951 0.0
C741 C 0.42991 0.99736 0.89855 0.0
C742 C 0.40344 0.02652 0.00364 0.0
H743 H 0.31126 0.98692 0.11774 0.0
H744 H 0.33949 0.98988 0.04184 0.0
H745 H 0.38589 0.03341 0.08301 0.0
H746 H 0.4613 0.04133 0.83864 0.0
H747 H 0.4304 0.04492 0.90417 0.0
H748 H 0.38627 0.00208 0.89047 0.0
C749 C 0.33633 0.00153 0.06981 0.0
C750 C 0.38549 0.02696 0.04039 0.0
C751 C 0.32012 0.99975 0.11339 0.0
C752 C 0.45282 0.02892 0.85567 0.0
C753 C 0.43517 0.03099 0.89299 0.0
C754 C 0.38621 0.00912 0.93221 0.0
C755 C 0.34898 0.01753 0.06526 0.0
C756 C 0.36764 0.01844 0.02361 0.0
C757 C 0.42336 0.01524 0.91358 0.0
C758 C 0.40403 0.01725 0.9499 0.0
H759 H 0.32572 0.04113 0.17885 0.0
H760 H 0.35333 0.0448 0.10076 0.0
H761 H 0.35471 0.00352 0.95299 0.0
H762 H 0.45203 0.98126 0.85066 0.0
H763 H 0.42116 0.98499 0.9145 0.0
C764 C 0.49421 0.35057 0.15205 0.0
C765 C 0.47755 0.33852 0.16624 0.0
C766 C 0.49235 0.36672 0.11448 0.0
C767 C 0.46301 0.38999 -0.00157 0.0
H768 H 0.48527 0.43509 0.05775 0.0
C769 C 0.46291 0.46097 0.85927 0.0
C770 C 0.48185 0.47011 0.85358 0.0
C771 C 0.45911 0.44621 0.90292 0.0
C772 C 0.47902 0.42263 0.04046 0.0
H773 H 0.44617 0.33339 0.14937 0.0
H774 H 0.44303 0.36164 0.08223 0.0
H775 H 0.48556 0.4057 0.11933 0.0
H776 H 0.51112 0.47176 0.89165 0.0
H777 H 0.50455 0.44616 0.96716 0.0
H778 H 0.45714 0.4068 0.91853 0.0
C779 C 0.45747 0.35856 0.10087 0.0
C780 C 0.47921 0.40581 0.07568 0.0
C781 C 0.45929 0.34237 0.13897 0.0
C782 C 0.49638 0.46499 0.89476 0.0
C783 C 0.49256 0.45034 0.93835 0.0
C784 C 0.46294 0.40685 0.96288 0.0
C785 C 0.47383 0.37116 0.08981 0.0
C786 C 0.47168 0.38922 0.05442 0.0
C787 C 0.47411 0.44042 0.9419 0.0
C788 C 0.47141 0.42326 0.98293 0.0
H789 H 0.50858 0.34777 0.17146 0.0
H790 H 0.50536 0.37593 0.10547 0.0
H791 H 0.45713 0.3774 0.98099 0.0
H792 H 0.45141 0.46457 0.82815 0.0
H793 H 0.44464 0.439 0.90508 0.0
C794 C 0.18738 0.51735 0.01512 0.0
C795 C 0.1935 0.5042 0.05948 0.0
C796 C 0.17219 0.51279 0.97774 0.0
C797 C 0.12845 0.48041 0.98054 0.0
H798 H 0.12165 0.50569 0.82411 0.0
C799 C 0.05827 0.4735 0.83525 0.0
C800 C 0.04967 0.491 0.81979 0.0
C801 C 0.07677 0.47254 0.86249 0.0
C802 C 0.12345 0.49846 0.86766 0.0
H803 H 0.18999 0.47561 0.09689 0.0
H804 H 0.16417 0.46723 0.02962 0.0
H805 H 0.15414 0.50767 0.86933 0.0
H806 H 0.05343 0.52116 0.82239 0.0
H807 H 0.08573 0.51938 0.86878 0.0
H808 H 0.09763 0.4712 0.97815 0.0
C809 C 0.17046 0.48129 0.02489 0.0
C810 C 0.14199 0.49966 0.89375 0.0
C811 C 0.18539 0.48597 0.06293 0.0
C812 C 0.05958 0.50744 0.83382 0.0
C813 C 0.07816 0.50647 0.85987 0.0
C814 C 0.11002 0.47894 0.95385 0.0
C815 C 0.16304 0.49488 0.98355 0.0
C816 C 0.14455 0.49114 0.9514 0.0
C817 C 0.08706 0.48906 0.87344 0.0
C818 C 0.10722 0.48842 0.89808 0.0
H819 H 0.19327 0.53156 0.0123 0.0
H820 H 0.16677 0.52373 0.94709 0.0
H821 H 0.12965 0.47388 0.02533 0.0
H822 H 0.051 0.4606 0.82491 0.0
H823 H 0.08337 0.45895 0.87299 0.0
C824 C 0.9469 0.81908 0.26377 0.0
C825 C 0.93783 0.81936 0.20846 0.0
C826 C 0.94439 0.83418 0.30069 0.0
C827 C 0.93633 0.88468 0.28215 0.0
H828 H 0.93629 0.88244 0.45653 0.0
C829 C 0.94229 0.93731 0.48968 0.0
C830 C 0.95986 0.94732 0.46807 0.0
C831 C 0.93539 0.92236 0.45858 0.0
C832 C 0.93601 0.88332 0.40786 0.0
H833 H 0.91744 0.83463 0.15115 0.0
H834 H 0.91285 0.86086 0.21581 0.0
H835 H 0.93061 0.85377 0.40513 0.0
H836 H 0.98339 0.95023 0.39576 0.0
H837 H 0.97124 0.92433 0.34106 0.0
H838 H 0.94228 0.91407 0.28464 0.0
C839 C 0.92228 0.84924 0.23007 0.0
C840 C 0.93293 0.86689 0.37845 0.0
C841 C 0.92483 0.8342 0.19322 0.0
C842 C 0.96983 0.94271 0.41341 0.0
C843 C 0.96281 0.92795 0.38201 0.0
C844 C 0.93953 0.90103 0.31146 0.0
C845 C 0.93272 0.84978 0.28292 0.0
C846 C 0.93342 0.86734 0.31518 0.0
C847 C 0.94578 0.91736 0.40491 0.0
C848 C 0.93982 0.90048 0.37452 0.0
H849 H 0.95712 0.80788 0.27639 0.0
H850 H 0.95272 0.8342 0.34097 0.0
H851 H 0.93705 0.88551 0.23333 0.0
H852 H 0.93444 0.94046 0.53204 0.0
H853 H 0.92215 0.91451 0.47702 0.0
C854 C 0.68635 0.9784 0.27527 0.0
C855 C 0.69067 0.99557 0.24265 0.0
C856 C 0.66967 0.97678 0.31755 0.0
C857 C 0.62006 0.99844 0.34384 0.0
H858 H 0.61841 0.97291 0.50283 0.0
C859 C 0.5538 0.00734 0.51837 0.0
C860 C 0.54748 0.99203 0.55782 0.0
C861 C 0.57089 0.00601 0.47878 0.0
C862 C 0.61855 0.97982 0.45812 0.0
H863 H 0.68217 0.02481 0.23215 0.0
H864 H 0.65331 0.02205 0.30597 0.0
H865 H 0.65018 0.97423 0.43965 0.0
H866 H 0.55384 0.96307 0.58523 0.0
H867 H 0.58364 0.96067 0.51511 0.0
H868 H 0.5886 0.00402 0.36159 0.0
C869 C 0.66241 0.00974 0.29806 0.0
C870 C 0.63676 0.98063 0.42214 0.0
C871 C 0.67899 0.01135 0.25613 0.0
C872 C 0.55829 0.97512 0.55533 0.0
C873 C 0.57547 0.9738 0.51559 0.0
C874 C 0.60191 0.99753 0.37945 0.0
C875 C 0.65712 0.99231 0.32758 0.0
C876 C 0.63777 0.99031 0.36514 0.0
C877 C 0.58211 0.98932 0.47739 0.0
C878 C 0.601 0.98855 0.43751 0.0
H879 H 0.69506 0.966 0.26541 0.0
H880 H 0.66596 0.96318 0.33979 0.0
H881 H 0.62024 0.00558 0.29944 0.0
H882 H 0.54588 0.02059 0.51918 0.0
H883 H 0.57569 0.01833 0.45066 0.0
C884 C 0.51496 0.65113 0.22572 0.0
C885 C 0.53204 0.6628 0.21349 0.0
C886 C 0.51585 0.63506 0.26419 0.0
C887 C 0.54332 0.61172 0.38513 0.0
H888 H 0.51955 0.56688 0.32862 0.0
C889 C 0.54136 0.54138 0.52793 0.0
C890 C 0.5222 0.53265 0.53425 0.0
C891 C 0.54545 0.55591 0.48371 0.0
C892 C 0.5262 0.57928 0.34513 0.0
H893 H 0.56317 0.66725 0.23435 0.0
H894 H 0.56464 0.6391 0.30276 0.0
H895 H 0.52062 0.59586 0.26469 0.0
H896 H 0.49279 0.53151 0.49679 0.0
H897 H 0.49988 0.55674 0.42016 0.0
H898 H 0.54836 0.59525 0.46638 0.0
C899 C 0.5506 0.64244 0.28209 0.0
C900 C 0.52679 0.59588 0.30858 0.0
C901 C 0.54974 0.65857 0.24322 0.0
C902 C 0.50769 0.53796 0.49321 0.0
C903 C 0.5118 0.5524 0.44901 0.0
C904 C 0.54265 0.59509 0.42192 0.0
C905 C 0.53381 0.63028 0.29164 0.0
C906 C 0.53492 0.61238 0.32873 0.0
C907 C 0.53052 0.56189 0.44476 0.0
C908 C 0.53368 0.57879 0.40281 0.0
H909 H 0.50099 0.65423 0.20439 0.0
H910 H 0.5025 0.62621 0.27193 0.0
H911 H 0.54963 0.62424 0.40186 0.0
H912 H 0.55287 0.53761 0.55886 0.0
H913 H 0.56012 0.56278 0.48099 0.0
C914 C 0.81658 0.49876 0.3624 0.0
C915 C 0.81595 0.4812 0.3373 0.0
C916 C 0.83278 0.5034 0.3962 0.0
C917 C 0.88612 0.49288 0.39847 0.0
H918 H 0.88538 0.51491 0.55334 0.0
C919 C 0.95538 0.49245 0.53748 0.0
C920 C 0.95896 0.50741 0.57348 0.0
C921 C 0.93801 0.49202 0.50556 0.0
C922 C 0.88581 0.50913 0.50946 0.0
H923 H 0.83047 0.45411 0.33276 0.0
H924 H 0.8587 0.46221 0.39161 0.0
H925 H 0.85334 0.50791 0.50963 0.0
H926 H 0.94757 0.5341 0.60219 0.0
H927 H 0.9171 0.53344 0.54539 0.0
H928 H 0.91839 0.49405 0.39758 0.0
C929 C 0.84692 0.47248 0.38432 0.0
C930 C 0.8675 0.50501 0.4848 0.0
C931 C 0.83076 0.46782 0.35098 0.0
C932 C 0.94523 0.52241 0.57464 0.0
C933 C 0.92771 0.52194 0.54266 0.0
C934 C 0.90433 0.49714 0.42266 0.0
C935 C 0.84853 0.49056 0.40496 0.0
C936 C 0.86756 0.49636 0.42992 0.0
C937 C 0.92376 0.50655 0.50867 0.0
C938 C 0.90442 0.50481 0.47921 0.0
H939 H 0.80542 0.50936 0.35215 0.0
H940 H 0.8337 0.51741 0.41187 0.0
H941 H 0.88655 0.48665 0.35526 0.0
H942 H 0.96567 0.48068 0.53557 0.0
H943 H 0.93535 0.47982 0.48052 0.0
loop_
_geom_bond_atom_site_label_1
_geom_bond_atom_site_label_2
_geom_bond_distance
_geom_bond_site_symmetry_2
_ccdc_geom_bond_type
H0 C3 0.929 . S
H1 C6 0.929 . S
H2 C8 0.930 . S
C3 H0 0.929 . S
C3 C4 1.398 . S
C3 C5 1.396 . S
C4 C3 1.398 . S
C4 C8 1.407 . S
C5 C3 1.396 . S
C5 C6 1.394 . S
C6 H1 0.929 . S
C6 C5 1.394 . S
C6 C7 1.382 . S
C7 C6 1.382 . S
C7 C8 1.392 . S
C7 N9 1.420 . S
C8 H2 0.930 . S
C8 C4 1.407 . S
C8 C7 1.392 . S
N9 C7 1.420 . S
N9 C10 1.244 . S
C10 N9 1.244 . S
H11 C14 0.929 . S
H12 C17 0.929 . S
H13 C19 0.930 . S
C14 H11 0.929 . S
C14 C15 1.398 . S
C14 C16 1.396 1_554 S
C15 C14 1.398 . S
C15 C19 1.407 . S
C16 C14 1.396 1_556 S
C16 C17 1.394 . S
C17 H12 0.929 . S
C17 C16 1.394 . S
C17 C18 1.382 1_556 S
C18 C17 1.382 1_554 S
C18 C19 1.392 . S
C18 N20 1.420 . S
C19 H13 0.930 . S
C19 C15 1.407 . S
C19 C18 1.392 . S
N20 C18 1.420 . S
N20 C21 1.244 1_554 S
C21 N20 1.244 1_556 S
H22 C25 0.929 . S
H23 C28 0.929 1_556 S
H24 C30 0.930 . S
C25 H22 0.929 . S
C25 C26 1.394 1_565 S
C25 C27 1.395 1_565 S
C26 C25 1.394 1_545 S
C26 C30 1.412 . S
C27 C25 1.395 1_545 S
C27 C28 1.396 . S
C28 H23 0.929 1_554 S
C28 C27 1.396 . S
C28 C29 1.382 . S
C29 C28 1.382 . S
C29 C30 1.392 . S
C29 N31 1.420 . S
C30 H24 0.930 . S
C30 C26 1.412 . S
C30 C29 1.392 . S
N31 C29 1.420 . S
N31 C32 1.230 1_545 S
C32 N31 1.230 1_565 S
H33 C36 0.929 . S
H34 C39 0.929 1_556 S
H35 C41 0.930 . S
C36 H33 0.929 . S
C36 C37 1.398 . S
C36 C38 1.396 . S
C37 C36 1.398 . S
C37 C41 1.407 . S
C38 C36 1.396 . S
C38 C39 1.394 . S
C39 H34 0.929 1_554 S
C39 C38 1.394 . S
C39 C40 1.382 . S
C40 C39 1.382 . S
C40 C41 1.392 . S
C40 N42 1.420 . S
C41 H35 0.930 . S
C41 C37 1.407 . S
C41 C40 1.392 . S
N42 C40 1.420 . S
N42 C43 1.244 . S
C43 N42 1.244 . S
H44 C47 0.929 . S
H45 C50 0.929 . S
H46 C52 0.930 . S
C47 H44 0.929 . S
C47 C48 1.398 . S
C47 C49 1.396 . S
C48 C47 1.398 . S
C48 C52 1.407 . S
C49 C47 1.396 . S
C49 C50 1.394 . S
C50 H45 0.929 . S
C50 C49 1.394 . S
C50 C51 1.382 . S
C51 C50 1.382 . S
C51 C52 1.392 . S
C51 N53 1.420 . S
C52 H46 0.930 . S
C52 C48 1.407 . S
C52 C51 1.392 . S
N53 C51 1.420 . S
N53 C54 1.244 . S
C54 N53 1.244 . S
H55 C58 0.929 . S
H56 C61 0.929 . S
H57 C63 0.930 . S
C58 H55 0.929 . S
C58 C59 1.398 . S
C58 C60 1.396 . S
C59 C58 1.398 . S
C59 C63 1.407 . S
C60 C58 1.396 . S
C60 C61 1.394 . S
C61 H56 0.929 . S
C61 C60 1.394 . S
C61 C62 1.382 . S
C62 C61 1.382 . S
C62 C63 1.392 . S
C62 N64 1.420 . S
C63 H57 0.930 . S
C63 C59 1.407 . S
C63 C62 1.392 . S
N64 C62 1.420 . S
N64 C65 1.244 . S
C65 N64 1.244 . S
H66 C69 0.929 . S
H67 C72 0.929 . S
H68 C74 0.930 . S
C69 H66 0.929 . S
C69 C70 1.397 1_565 S
C69 C71 1.392 1_565 S
C70 C69 1.397 1_545 S
C70 C74 1.416 . S
C71 C69 1.392 1_545 S
C71 C72 1.399 . S
C72 H67 0.929 . S
C72 C71 1.399 . S
C72 C73 1.382 . S
C73 C72 1.382 . S
C73 C74 1.392 . S
C73 N75 1.420 . S
C74 H68 0.930 . S
C74 C70 1.416 . S
C74 C73 1.392 . S
N75 C73 1.420 . S
N75 C76 1.239 1_545 S
C76 N75 1.239 1_565 S
H77 C80 0.929 . S
H78 C83 0.929 . S
H79 C85 0.930 . S
C80 H77 0.929 . S
C80 C81 1.398 . S
C80 C82 1.396 . S
C81 C80 1.398 . S
C81 C85 1.407 . S
C82 C80 1.396 . S
C82 C83 1.394 . S
C83 H78 0.929 . S
C83 C82 1.394 . S
C83 C84 1.382 . S
C84 C83 1.382 . S
C84 C85 1.392 . S
C84 N86 1.420 . S
C85 H79 0.930 . S
C85 C81 1.407 . S
C85 C84 1.392 . S
N86 C84 1.420 . S
N86 C87 1.244 . S
C87 N86 1.244 . S
C88 O104 1.251 1_455 S
C88 O106 1.254 . S
N89 C90 1.333 . S
N89 C94 1.307 . S
N89 Zn95 2.020 . S
C90 N89 1.333 . S
C90 C91 1.379 . S
C90 H108 0.952 1_655 S
C91 C90 1.379 . S
C91 C92 1.390 . S
C91 H118 0.949 . S
C92 C91 1.390 . S
C92 C93 1.357 . S
C93 C92 1.357 . S
C93 C94 1.370 . S
C93 H119 0.950 . S
C94 N89 1.307 . S
C94 C93 1.370 . S
C94 H112 0.948 . S
Zn95 N89 2.020 . S
Zn95 O104 2.039 . S
Zn95 O110 2.034 1_655 S
Zn95 O114 2.026 1_565 S
Zn95 O116 2.024 . S
C96 O115 1.246 . S
C96 O116 1.249 1_545 S
N97 C98 1.307 . S
N97 C99 1.333 . S
N97 Zn103 2.020 . S
C98 N97 1.307 . S
C98 C102 1.370 . S
C98 H109 0.948 . S
C99 N97 1.333 . S
C99 C100 1.379 . S
C99 H107 0.952 . S
C100 C99 1.379 . S
C100 C101 1.390 . S
C100 H120 0.949 . S
C101 C100 1.390 . S
C101 C102 1.357 . S
C102 C98 1.370 . S
C102 C101 1.357 . S
C102 H121 0.950 . S
Zn103 N97 2.020 . S
Zn103 O106 2.025 1_545 S
Zn103 O111 2.024 . S
Zn103 O113 2.039 . S
Zn103 O115 2.034 1_455 S
O104 C88 1.251 1_655 S
O104 Zn95 2.039 . S
C105 O110 1.246 . S
C105 O111 1.249 1_565 S
O106 C88 1.254 . S
O106 Zn103 2.025 1_565 S
H107 C99 0.952 . S
H108 C90 0.952 1_455 S
H109 C98 0.948 . S
O110 Zn95 2.034 1_455 S
O110 C105 1.246 . S
O111 Zn103 2.024 . S
O111 C105 1.249 1_545 S
H112 C94 0.948 . S
O113 Zn103 2.039 . S
O113 C117 1.251 . S
O114 Zn95 2.026 1_545 S
O114 C117 1.249 1_655 S
O115 C96 1.246 . S
O115 Zn103 2.034 1_655 S
O116 Zn95 2.024 . S
O116 C96 1.249 1_565 S
C117 O113 1.251 . S
C117 O114 1.249 1_455 S
H118 C91 0.949 . S
H119 C93 0.950 . S
H120 C100 0.949 . S
H121 C102 0.950 . S
C122 O138 1.251 1_565 S
C122 O140 1.254 . S
N123 C124 1.333 . S
N123 C128 1.307 . S
N123 Zn129 2.020 . S
C124 N123 1.333 . S
C124 C125 1.379 . S
C124 H142 0.952 . S
C125 C124 1.379 . S
C125 C126 1.390 . S
C125 H152 0.949 . S
C126 C125 1.390 . S
C126 C127 1.357 . S
C127 C126 1.357 . S
C127 C128 1.370 . S
C127 H153 0.950 . S
C128 N123 1.307 . S
C128 C127 1.370 . S
C128 H146 0.948 . S
Zn129 N123 2.020 . S
Zn129 O138 2.039 . S
Zn129 O144 2.034 . S
Zn129 O148 2.025 . S
Zn129 O150 2.024 . S
C130 O149 1.246 1_545 S
C130 O150 1.249 . S
N131 C132 1.307 . S
N131 C133 1.333 . S
N131 Zn137 2.020 . S
C132 N131 1.307 . S
C132 C136 1.370 . S
C132 H143 0.948 . S
C133 N131 1.333 . S
C133 C134 1.379 . S
C133 H141 0.952 . S
C134 C133 1.379 . S
C134 C135 1.390 . S
C134 H154 0.949 . S
C135 C134 1.390 . S
C135 C136 1.357 . S
C136 C132 1.370 . S
C136 C135 1.357 . S
C136 H155 0.950 . S
Zn137 N131 2.020 . S
Zn137 O140 2.025 . S
Zn137 O145 2.024 . S
Zn137 O147 2.039 . S
Zn137 O149 2.034 . S
O138 C122 1.251 1_545 S
O138 Zn129 2.039 . S
C139 O144 1.246 1_565 S
C139 O145 1.249 . S
O140 C122 1.254 . S
O140 Zn137 2.025 . S
H141 C133 0.952 . S
H142 C124 0.952 . S
H143 C132 0.948 . S
O144 Zn129 2.034 . S
O144 C139 1.246 1_545 S
O145 Zn137 2.024 . S
O145 C139 1.249 . S
H146 C128 0.948 . S
O147 Zn137 2.039 . S
O147 C151 1.251 1_565 S
O148 Zn129 2.025 . S
O148 C151 1.254 . S
O149 C130 1.246 1_565 S
O149 Zn137 2.034 . S
O150 Zn129 2.024 . S
O150 C130 1.249 . S
C151 O147 1.251 1_545 S
C151 O148 1.254 . S
H152 C125 0.949 . S
H153 C127 0.950 . S
H154 C134 0.949 . S
H155 C136 0.950 . S
C156 O172 1.251 . S
C156 O174 1.254 . S
N157 C158 1.333 . S
N157 C162 1.307 . S
N157 Zn163 2.020 . S
C158 N157 1.333 . S
C158 C159 1.379 . S
C158 H176 0.952 . S
C159 C158 1.379 . S
C159 C160 1.390 . S
C159 H186 0.949 . S
C160 C159 1.390 . S
C160 C161 1.357 . S
C161 C160 1.357 . S
C161 C162 1.370 . S
C161 H187 0.950 . S
C162 N157 1.307 . S
C162 C161 1.370 . S
C162 H180 0.948 . S
Zn163 N157 2.020 . S
Zn163 O172 2.039 . S
Zn163 O178 2.034 . S
Zn163 O182 2.025 . S
Zn163 O184 2.024 . S
C164 O183 1.246 . S
C164 O184 1.249 . S
N165 C166 1.307 . S
N165 C167 1.333 . S
N165 Zn171 2.020 . S
C166 N165 1.307 . S
C166 C170 1.370 . S
C166 H177 0.948 . S
C167 N165 1.333 . S
C167 C168 1.379 . S
C167 H175 0.952 . S
C168 C167 1.379 . S
C168 C169 1.390 . S
C168 H188 0.949 . S
C169 C168 1.390 . S
C169 C170 1.357 . S
C170 C166 1.370 . S
C170 C169 1.357 . S
C170 H189 0.950 . S
Zn171 N165 2.020 . S
Zn171 O174 2.025 . S
Zn171 O179 2.024 . S
Zn171 O181 2.039 . S
Zn171 O183 2.034 . S
O172 C156 1.251 . S
O172 Zn163 2.039 . S
C173 O178 1.246 . S
C173 O179 1.249 . S
O174 C156 1.254 . S
O174 Zn171 2.025 . S
H175 C167 0.952 . S
H176 C158 0.952 . S
H177 C166 0.948 . S
O178 Zn163 2.034 . S
O178 C173 1.246 . S
O179 Zn171 2.024 . S
O179 C173 1.249 . S
H180 C162 0.948 . S
O181 Zn171 2.039 . S
O181 C185 1.251 . S
O182 Zn163 2.025 . S
O182 C185 1.254 . S
O183 C164 1.246 . S
O183 Zn171 2.034 . S
O184 Zn163 2.024 . S
O184 C164 1.249 . S
C185 O181 1.251 . S
C185 O182 1.254 . S
H186 C159 0.949 . S
H187 C161 0.950 . S
H188 C168 0.949 . S
H189 C170 0.950 . S
C190 O206 1.251 . S
C190 O208 1.254 . S
N191 C192 1.333 . S
N191 C196 1.307 . S
N191 Zn197 2.020 . S
C192 N191 1.333 . S
C192 C193 1.379 . S
C192 H210 0.952 . S
C193 C192 1.379 . S
C193 C194 1.390 . S
C193 H220 0.949 . S
C194 C193 1.390 . S
C194 C195 1.357 . S
C195 C194 1.357 . S
C195 C196 1.370 . S
C195 H221 0.960 . S
C196 N191 1.307 . S
C196 C195 1.370 . S
C196 H214 0.948 1_455 S
Zn197 N191 2.020 . S
Zn197 O206 2.039 . S
Zn197 O212 2.034 1_455 S
Zn197 O216 2.025 1_455 S
Zn197 O218 2.024 . S
C198 O217 1.246 . S
C198 O218 1.249 . S
N199 C200 1.308 . S
N199 C201 1.330 1_455 S
N199 Zn205 2.020 . S
C200 N199 1.308 . S
C200 C204 1.370 . S
C200 H211 0.948 . S
C201 N199 1.330 1_655 S
C201 C202 1.379 . S
C201 H209 0.952 . S
C202 C201 1.379 . S
C202 C203 1.390 . S
C202 H222 0.949 . S
C203 C202 1.390 . S
C203 C204 1.357 1_655 S
C204 C200 1.370 . S
C204 C203 1.357 1_455 S
C204 H223 0.950 . S
Zn205 N199 2.020 . S
Zn205 O208 2.025 . S
Zn205 O213 2.024 1_455 S
Zn205 O215 2.039 1_455 S
Zn205 O217 2.034 . S
O206 C190 1.251 . S
O206 Zn197 2.039 . S
C207 O212 1.246 . S
C207 O213 1.249 . S
O208 C190 1.254 . S
O208 Zn205 2.025 . S
H209 C201 0.952 . S
H210 C192 0.952 . S
H211 C200 0.948 . S
O212 Zn197 2.034 1_655 S
O212 C207 1.246 . S
O213 Zn205 2.024 1_655 S
O213 C207 1.249 . S
H214 C196 0.948 1_655 S
O215 Zn205 2.039 1_655 S
O215 C219 1.251 . S
O216 Zn197 2.025 1_655 S
O216 C219 1.254 . S
O217 C198 1.246 . S
O217 Zn205 2.034 . S
O218 Zn197 2.024 . S
O218 C198 1.249 . S
C219 O215 1.251 . S
C219 O216 1.254 . S
H220 C193 0.949 . S
H221 C195 0.960 . S
H222 C202 0.949 . S
H223 C204 0.950 . S
C224 C225 1.351 . S
C224 C226 1.327 . S
C224 H249 0.950 . S
C225 C224 1.351 . S
C225 C241 1.347 1_565 S
C226 C224 1.327 . S
C226 C245 1.460 . S
C226 H250 0.950 . S
C227 C244 1.574 . S
C227 C246 1.368 1_545 S
C227 H251 0.949 . S
H228 C232 0.949 . S
C229 C230 1.349 1_545 S
C229 C231 1.327 . S
C229 H252 0.950 . S
C230 C229 1.349 1_565 S
C230 C242 1.349 . S
C231 C229 1.327 . S
C231 C247 1.429 1_545 S
C231 H253 0.950 . S
C232 H228 0.949 . S
C232 C240 1.574 . S
C232 C248 1.368 . S
H233 C241 0.950 . S
H234 C239 0.950 . S
H235 C240 0.949 . S
H236 C242 0.950 . S
H237 C243 0.950 . S
H238 C244 0.949 . S
C239 H234 0.950 . S
C239 C241 1.327 . S
C239 C245 1.399 1_545 S
C240 C232 1.574 . S
C240 H235 0.949 . S
C240 C246 1.368 . S
C241 C225 1.347 1_545 S
C241 H233 0.950 . S
C241 C239 1.327 . S
C242 C230 1.349 . S
C242 H236 0.950 . S
C242 C243 1.327 . S
C243 H237 0.950 . S
C243 C242 1.327 . S
C243 C247 1.429 . S
C244 C227 1.574 . S
C244 H238 0.949 . S
C244 C248 1.368 1_545 S
C245 C226 1.460 . S
C245 C239 1.399 1_565 S
C245 C246 1.523 . S
C246 C227 1.368 1_565 S
C246 C240 1.368 . S
C246 C245 1.523 . S
C247 C231 1.429 1_565 S
C247 C243 1.429 . S
C247 C248 1.523 . S
C248 C232 1.368 . S
C248 C244 1.368 1_565 S
C248 C247 1.523 . S
H249 C224 0.950 . S
H250 C226 0.950 . S
H251 C227 0.949 . S
H252 C229 0.950 . S
H253 C231 0.950 . S
C254 C255 1.349 . S
C254 C256 1.327 . S
C254 H279 0.950 . S
C255 C254 1.349 . S
C255 C271 1.349 . S
C256 C254 1.327 . S
C256 C275 1.429 . S
C256 H280 0.950 . S
C257 C274 1.574 . S
C257 C276 1.368 . S
C257 H281 0.949 . S
H258 C262 0.949 . S
C259 C260 1.349 . S
C259 C261 1.327 . S
C259 H282 0.950 . S
C260 C259 1.349 . S
C260 C272 1.349 . S
C261 C259 1.327 . S
C261 C277 1.429 . S
C261 H283 0.950 . S
C262 H258 0.949 . S
C262 C270 1.574 . S
C262 C278 1.368 . S
H263 C271 0.950 . S
H264 C269 0.950 . S
H265 C270 0.949 . S
H266 C272 0.950 . S
H267 C273 0.950 . S
H268 C274 0.949 . S
C269 H264 0.950 . S
C269 C271 1.327 . S
C269 C275 1.429 . S
C270 C262 1.574 . S
C270 H265 0.949 . S
C270 C276 1.368 . S
C271 C255 1.349 . S
C271 H263 0.950 . S
C271 C269 1.327 . S
C272 C260 1.349 . S
C272 H266 0.950 . S
C272 C273 1.327 . S
C273 H267 0.950 . S
C273 C272 1.327 . S
C273 C277 1.429 . S
C274 C257 1.574 . S
C274 H268 0.949 . S
C274 C278 1.368 . S
C275 C256 1.429 . S
C275 C269 1.429 . S
C275 C276 1.523 . S
C276 C257 1.368 . S
C276 C270 1.368 . S
C276 C275 1.523 . S
C277 C261 1.429 . S
C277 C273 1.429 . S
C277 C278 1.523 . S
C278 C262 1.368 . S
C278 C274 1.368 . S
C278 C277 1.523 . S
H279 C254 0.950 . S
H280 C256 0.950 . S
H281 C257 0.949 . S
H282 C259 0.950 . S
H283 C261 0.950 . S
C284 C285 1.349 . S
C284 C286 1.327 . S
C284 H309 0.950 . S
C285 C284 1.349 . S
C285 C301 1.349 . S
C286 C284 1.327 . S
C286 C305 1.429 . S
C286 H310 0.950 . S
C287 C304 1.574 . S
C287 C306 1.368 . S
C287 H311 0.949 . S
H288 C292 0.949 . S
C289 C290 1.349 . S
C289 C291 1.327 . S
C289 H312 0.950 . S
C290 C289 1.349 . S
C290 C302 1.349 . S
C291 C289 1.327 . S
C291 C307 1.429 . S
C291 H313 0.950 . S
C292 H288 0.949 . S
C292 C300 1.574 . S
C292 C308 1.368 . S
H293 C301 0.950 . S
H294 C299 0.950 . S
H295 C300 0.949 . S
H296 C302 0.950 . S
H297 C303 0.950 . S
H298 C304 0.949 . S
C299 H294 0.950 . S
C299 C301 1.327 . S
C299 C305 1.429 . S
C300 C292 1.574 . S
C300 H295 0.949 . S
C300 C306 1.368 . S
C301 C285 1.349 . S
C301 H293 0.950 . S
C301 C299 1.327 . S
C302 C290 1.349 . S
C302 H296 0.950 . S
C302 C303 1.327 . S
C303 H297 0.950 . S
C303 C302 1.327 . S
C303 C307 1.429 . S
C304 C287 1.574 . S
C304 H298 0.949 . S
C304 C308 1.368 . S
C305 C286 1.429 . S
C305 C299 1.429 . S
C305 C306 1.523 . S
C306 C287 1.368 . S
C306 C300 1.368 . S
C306 C305 1.523 . S
C307 C291 1.429 . S
C307 C303 1.429 . S
C307 C308 1.523 . S
C308 C292 1.368 . S
C308 C304 1.368 . S
C308 C307 1.523 . S
H309 C284 0.950 . S
H310 C286 0.950 . S
H311 C287 0.949 . S
H312 C289 0.950 . S
H313 C291 0.950 . S
C314 C315 1.349 . S
C314 C316 1.327 . S
C314 H339 0.950 . S
C315 C314 1.349 . S
C315 C331 1.349 . S
C316 C314 1.327 . S
C316 C335 1.429 . S
C316 H340 0.950 . S
C317 C334 1.574 . S
C317 C336 1.368 . S
C317 H341 0.949 . S
H318 C322 0.949 . S
C319 C320 1.349 . S
C319 C321 1.327 . S
C319 H342 0.950 . S
C320 C319 1.349 . S
C320 C332 1.349 . S
C321 C319 1.327 . S
C321 C337 1.429 . S
C321 H343 0.950 . S
C322 H318 0.949 . S
C322 C330 1.574 . S
C322 C338 1.368 . S
H323 C331 0.950 . S
H324 C329 0.950 . S
H325 C330 0.949 . S
H326 C332 0.950 . S
H327 C333 0.950 . S
H328 C334 0.949 . S
C329 H324 0.950 . S
C329 C331 1.327 . S
C329 C335 1.429 . S
C330 C322 1.574 . S
C330 H325 0.949 . S
C330 C336 1.368 . S
C331 C315 1.349 . S
C331 H323 0.950 . S
C331 C329 1.327 . S
C332 C320 1.349 . S
C332 H326 0.950 . S
C332 C333 1.327 . S
C333 H327 0.950 . S
C333 C332 1.327 . S
C333 C337 1.429 . S
C334 C317 1.574 . S
C334 H328 0.949 . S
C334 C338 1.368 . S
C335 C316 1.429 . S
C335 C329 1.429 . S
C335 C336 1.523 . S
C336 C317 1.368 . S
C336 C330 1.368 . S
C336 C335 1.523 . S
C337 C321 1.429 . S
C337 C333 1.429 . S
C337 C338 1.523 . S
C338 C322 1.368 . S
C338 C334 1.368 . S
C338 C337 1.523 . S
H339 C314 0.950 . S
H340 C316 0.950 . S
H341 C317 0.949 . S
H342 C319 0.950 . S
H343 C321 0.950 . S
C344 C345 1.349 1_565 S
C344 C346 1.327 . S
C344 H369 0.950 . S
C345 C344 1.349 1_545 S
C345 C361 1.357 1_556 S
C346 C344 1.327 . S
C346 C365 1.387 1_565 S
C346 H370 0.950 . S
C347 C364 1.574 . S
C347 C366 1.368 . S
C347 H371 0.949 . S
H348 C352 0.949 . S
C349 C350 1.349 . S
C349 C351 1.327 . S
C349 H372 0.950 . S
C350 C349 1.349 . S
C350 C362 1.349 1_545 S
C351 C349 1.327 . S
C351 C367 1.429 . S
C351 H373 0.950 . S
C352 H348 0.949 . S
C352 C360 1.574 . S
C352 C368 1.368 1_565 S
H353 C361 0.950 . S
H354 C359 0.950 . S
H355 C360 0.949 . S
H356 C362 0.950 . S
H357 C363 0.950 . S
H358 C364 0.949 . S
C359 H354 0.950 . S
C359 C361 1.327 1_556 S
C359 C365 1.472 . S
C360 C352 1.574 . S
C360 H355 0.949 . S
C360 C366 1.368 1_565 S
C361 C345 1.357 1_554 S
C361 H353 0.950 . S
C361 C359 1.327 1_554 S
C362 C350 1.349 1_565 S
C362 H356 0.950 . S
C362 C363 1.327 . S
C363 H357 0.950 . S
C363 C362 1.327 . S
C363 C367 1.429 1_565 S
C364 C347 1.574 . S
C364 H358 0.949 . S
C364 C368 1.368 . S
C365 C346 1.387 1_545 S
C365 C359 1.472 . S
C365 C366 1.523 . S
C366 C347 1.368 . S
C366 C360 1.368 1_545 S
C366 C365 1.523 . S
C367 C351 1.429 . S
C367 C363 1.429 1_545 S
C367 C368 1.523 . S
C368 C352 1.368 1_545 S
C368 C364 1.368 . S
C368 C367 1.523 . S
H369 C344 0.950 . S
H370 C346 0.950 . S
H371 C347 0.949 . S
H372 C349 0.950 . S
H373 C351 0.950 . S
C374 C375 1.349 1_556 S
C374 C376 1.327 . S
C374 H399 0.950 . S
C375 C374 1.349 1_554 S
C375 C391 1.349 . S
C376 C374 1.327 . S
C376 C395 1.429 . S
C376 H400 0.950 . S
C377 C394 1.574 . S
C377 C396 1.368 . S
C377 H401 0.949 1_556 S
H378 C382 0.949 . S
C379 C380 1.349 . S
C379 C381 1.327 . S
C379 H402 0.950 . S
C380 C379 1.349 . S
C380 C392 1.349 . S
C381 C379 1.327 . S
C381 C397 1.429 . S
C381 H403 0.950 . S
C382 H378 0.949 . S
C382 C390 1.574 . S
C382 C398 1.368 . S
H383 C391 0.950 . S
H384 C389 0.950 . S
H385 C390 0.949 . S
H386 C392 0.950 . S
H387 C393 0.950 . S
H388 C394 0.949 . S
C389 H384 0.950 . S
C389 C391 1.327 . S
C389 C395 1.429 1_554 S
C390 C382 1.574 . S
C390 H385 0.949 . S
C390 C396 1.368 . S
C391 C375 1.349 . S
C391 H383 0.950 . S
C391 C389 1.327 . S
C392 C380 1.349 . S
C392 H386 0.950 . S
C392 C393 1.327 . S
C393 H387 0.950 . S
C393 C392 1.327 . S
C393 C397 1.429 . S
C394 C377 1.574 . S
C394 H388 0.949 . S
C394 C398 1.368 . S
C395 C376 1.429 . S
C395 C389 1.429 1_556 S
C395 C396 1.523 . S
C396 C377 1.368 . S
C396 C390 1.368 . S
C396 C395 1.523 . S
C397 C381 1.429 . S
C397 C393 1.429 . S
C397 C398 1.523 . S
C398 C382 1.368 . S
C398 C394 1.368 . S
C398 C397 1.523 . S
H399 C374 0.950 . S
H400 C376 0.950 . S
H401 C377 0.949 1_554 S
H402 C379 0.950 . S
H403 C381 0.950 . S
C404 C405 1.349 . S
C404 C406 1.327 1_554 S
C404 H429 0.950 . S
C405 C404 1.349 . S
C405 C421 1.349 . S
C406 C404 1.327 1_556 S
C406 C425 1.429 . S
C406 H430 0.950 . S
C407 C424 1.574 . S
C407 C426 1.368 . S
C407 H431 0.949 1_556 S
H408 C412 0.949 . S
C409 C410 1.349 . S
C409 C411 1.327 . S
C409 H432 0.950 . S
C410 C409 1.349 . S
C410 C422 1.349 . S
C411 C409 1.327 . S
C411 C427 1.429 . S
C411 H433 0.950 . S
C412 H408 0.949 . S
C412 C420 1.574 . S
C412 C428 1.368 . S
H413 C421 0.950 . S
H414 C419 0.950 . S
H415 C420 0.949 . S
H416 C422 0.950 . S
H417 C423 0.950 . S
H418 C424 0.949 . S
C419 H414 0.950 . S
C419 C421 1.327 . S
C419 C425 1.429 1_554 S
C420 C412 1.574 . S
C420 H415 0.949 . S
C420 C426 1.368 . S
C421 C405 1.349 . S
C421 H413 0.950 . S
C421 C419 1.327 . S
C422 C410 1.349 . S
C422 H416 0.950 . S
C422 C423 1.327 . S
C423 H417 0.950 . S
C423 C422 1.327 . S
C423 C427 1.429 . S
C424 C407 1.574 . S
C424 H418 0.949 . S
C424 C428 1.368 . S
C425 C406 1.429 . S
C425 C419 1.429 1_556 S
C425 C426 1.523 . S
C426 C407 1.368 . S
C426 C420 1.368 . S
C426 C425 1.523 . S
C427 C411 1.429 . S
C427 C423 1.429 . S
C427 C428 1.523 . S
C428 C412 1.368 . S
C428 C424 1.368 . S
C428 C427 1.523 . S
H429 C404 0.950 . S
H430 C406 0.950 . S
H431 C407 0.949 1_554 S
H432 C409 0.950 . S
H433 C411 0.950 . S
C434 C435 1.349 . S
C434 C436 1.327 . S
C434 H459 0.950 . S
C435 C434 1.349 . S
C435 C451 1.349 . S
C436 C434 1.327 . S
C436 C455 1.429 . S
C436 H460 0.950 . S
C437 C454 1.574 . S
C437 C456 1.368 . S
C437 H461 0.949 . S
H438 C442 0.949 . S
C439 C440 1.349 . S
C439 C441 1.327 . S
C439 H462 0.950 . S
C440 C439 1.349 . S
C440 C452 1.348 . S
C441 C439 1.327 . S
C441 C457 1.429 . S
C441 H463 0.950 . S
C442 H438 0.949 . S
C442 C450 1.574 . S
C442 C458 1.368 . S
H443 C451 0.950 1_554 S
H444 C449 0.950 . S
H445 C450 0.949 . S
H446 C452 0.951 1_455 S
H447 C453 0.950 1_455 S
H448 C454 0.949 . S
C449 H444 0.950 . S
C449 C451 1.327 . S
C449 C455 1.429 . S
C450 C442 1.574 . S
C450 H445 0.949 . S
C450 C456 1.368 . S
C451 C435 1.349 . S
C451 H443 0.950 1_556 S
C451 C449 1.327 . S
C452 C440 1.348 . S
C452 H446 0.951 1_655 S
C452 C453 1.327 . S
C453 H447 0.950 1_655 S
C453 C452 1.327 . S
C453 C457 1.429 . S
C454 C437 1.574 . S
C454 H448 0.949 . S
C454 C458 1.368 . S
C455 C436 1.429 . S
C455 C449 1.429 . S
C455 C456 1.523 . S
C456 C437 1.368 . S
C456 C450 1.368 . S
C456 C455 1.523 . S
C457 C441 1.429 . S
C457 C453 1.429 . S
C457 C458 1.523 . S
C458 C442 1.368 . S
C458 C454 1.368 . S
C458 C457 1.523 . S
H459 C434 0.950 . S
H460 C436 0.950 . S
H461 C437 0.949 . S
H462 C439 0.950 . S
H463 C441 0.950 . S
C464 C465 1.349 . S
C464 C466 1.327 . S
C464 H489 0.950 . S
C465 C464 1.349 . S
C465 C481 1.349 . S
C466 C464 1.327 . S
C466 C485 1.429 . S
C466 H490 0.950 . S
C467 C484 1.574 . S
C467 C486 1.368 . S
C467 H491 0.949 . S
H468 C472 0.949 . S
C469 C470 1.349 1_655 S
C469 C471 1.332 . S
C469 H492 0.950 . S
C470 C469 1.349 1_455 S
C470 C482 1.349 . S
C471 C469 1.332 . S
C471 C487 1.415 1_655 S
C471 H493 0.959 . S
C472 H468 0.949 . S
C472 C480 1.574 . S
C472 C488 1.368 . S
H473 C481 0.950 . S
H474 C479 0.950 . S
H475 C480 0.949 . S
H476 C482 0.950 . S
H477 C483 0.950 . S
H478 C484 0.979 . S
C479 H474 0.950 . S
C479 C481 1.327 . S
C479 C485 1.429 . S
C480 C472 1.574 . S
C480 H475 0.949 . S
C480 C486 1.368 . S
C481 C465 1.349 . S
C481 H473 0.950 . S
C481 C479 1.327 . S
C482 C470 1.349 . S
C482 H476 0.950 . S
C482 C483 1.327 . S
C483 H477 0.950 . S
C483 C482 1.327 . S
C483 C487 1.429 . S
C484 C467 1.574 . S
C484 H478 0.979 . S
C484 C488 1.368 . S
C485 C466 1.429 . S
C485 C479 1.429 . S
C485 C486 1.523 . S
C486 C467 1.368 . S
C486 C480 1.368 . S
C486 C485 1.523 . S
C487 C471 1.415 1_455 S
C487 C483 1.429 . S
C487 C488 1.523 . S
C488 C472 1.368 . S
C488 C484 1.368 . S
C488 C487 1.523 . S
H489 C464 0.950 . S
H490 C466 0.950 . S
H491 C467 0.949 . S
H492 C469 0.950 . S
H493 C471 0.959 . S
C494 C495 1.350 . S
C494 C496 1.327 . S
C494 H519 0.950 . S
C495 C494 1.350 . S
C495 C511 1.348 1_545 S
C496 C494 1.327 . S
C496 C515 1.429 1_545 S
C496 H520 0.950 . S
C497 C514 1.574 . S
C497 C516 1.368 . S
C497 H521 0.949 . S
H498 C502 0.949 . S
C499 C500 1.349 . S
C499 C501 1.327 . S
C499 H522 0.950 . S
C500 C499 1.349 . S
C500 C512 1.349 1_565 S
C501 C499 1.327 . S
C501 C517 1.429 . S
C501 H523 0.950 . S
C502 H498 0.949 . S
C502 C510 1.574 . S
C502 C518 1.368 1_545 S
H503 C511 0.950 . S
H504 C509 0.950 . S
H505 C510 0.949 . S
H506 C512 0.950 . S
H507 C513 0.950 . S
H508 C514 0.949 . S
C509 H504 0.950 . S
C509 C511 1.327 . S
C509 C515 1.429 . S
C510 C502 1.574 . S
C510 H505 0.949 . S
C510 C516 1.368 1_545 S
C511 C495 1.348 1_565 S
C511 H503 0.950 . S
C511 C509 1.327 . S
C512 C500 1.349 1_545 S
C512 H506 0.950 . S
C512 C513 1.327 . S
C513 H507 0.950 . S
C513 C512 1.327 . S
C513 C517 1.429 1_545 S
C514 C497 1.574 . S
C514 H508 0.949 . S
C514 C518 1.368 . S
C515 C496 1.429 1_565 S
C515 C509 1.429 . S
C515 C516 1.523 . S
C516 C497 1.368 . S
C516 C510 1.368 1_565 S
C516 C515 1.523 . S
C517 C501 1.429 . S
C517 C513 1.429 1_565 S
C517 C518 1.523 . S
C518 C502 1.368 1_565 S
C518 C514 1.368 . S
C518 C517 1.523 . S
H519 C494 0.950 . S
H520 C496 0.950 . S
H521 C497 0.949 . S
H522 C499 0.950 . S
H523 C501 0.950 . S
C524 C525 1.349 . S
C524 C526 1.327 . S
C524 H549 0.950 . S
C525 C524 1.349 . S
C525 C541 1.349 . S
C526 C524 1.327 . S
C526 C545 1.429 . S
C526 H550 0.950 . S
C527 C544 1.574 . S
C527 C546 1.368 . S
C527 H551 0.949 . S
H528 C532 0.949 . S
C529 C530 1.349 . S
C529 C531 1.327 . S
C529 H552 0.950 . S
C530 C529 1.349 . S
C530 C542 1.349 . S
C531 C529 1.327 . S
C531 C547 1.429 . S
C531 H553 0.950 . S
C532 H528 0.949 . S
C532 C540 1.574 . S
C532 C548 1.368 . S
H533 C541 0.950 . S
H534 C539 0.950 . S
H535 C540 0.949 . S
H536 C542 0.950 . S
H537 C543 0.950 . S
H538 C544 0.949 . S
C539 H534 0.950 . S
C539 C541 1.327 . S
C539 C545 1.429 . S
C540 C532 1.574 . S
C540 H535 0.949 . S
C540 C546 1.368 . S
C541 C525 1.349 . S
C541 H533 0.950 . S
C541 C539 1.327 . S
C542 C530 1.349 . S
C542 H536 0.950 . S
C542 C543 1.327 . S
C543 H537 0.950 . S
C543 C542 1.327 . S
C543 C547 1.429 . S
C544 C527 1.574 . S
C544 H538 0.949 . S
C544 C548 1.368 . S
C545 C526 1.429 . S
C545 C539 1.429 . S
C545 C546 1.523 . S
C546 C527 1.368 . S
C546 C540 1.368 . S
C546 C545 1.523 . S
C547 C531 1.429 . S
C547 C543 1.429 . S
C547 C548 1.523 . S
C548 C532 1.368 . S
C548 C544 1.368 . S
C548 C547 1.523 . S
H549 C524 0.950 . S
H550 C526 0.950 . S
H551 C527 0.949 . S
H552 C529 0.950 . S
H553 C531 0.950 . S
C554 C555 1.349 . S
C554 C556 1.327 . S
C554 H579 0.950 . S
C555 C554 1.349 . S
C555 C571 1.349 . S
C556 C554 1.327 . S
C556 C575 1.429 . S
C556 H580 0.950 . S
C557 C574 1.574 . S
C557 C576 1.368 . S
C557 H581 0.949 . S
H558 C562 0.949 . S
C559 C560 1.349 . S
C559 C561 1.327 . S
C559 H582 0.950 . S
C560 C559 1.349 . S
C560 C572 1.349 . S
C561 C559 1.327 . S
C561 C577 1.429 . S
C561 H583 0.950 . S
C562 H558 0.949 . S
C562 C570 1.574 . S
C562 C578 1.368 . S
H563 C571 0.950 . S
H564 C569 0.950 . S
H565 C570 0.949 . S
H566 C572 0.950 . S
H567 C573 0.950 . S
H568 C574 0.949 . S
C569 H564 0.950 . S
C569 C571 1.327 . S
C569 C575 1.429 . S
C570 C562 1.574 . S
C570 H565 0.949 . S
C570 C576 1.368 . S
C571 C555 1.349 . S
C571 H563 0.950 . S
C571 C569 1.327 . S
C572 C560 1.349 . S
C572 H566 0.950 . S
C572 C573 1.327 . S
C573 H567 0.950 . S
C573 C572 1.327 . S
C573 C577 1.429 . S
C574 C557 1.574 . S
C574 H568 0.949 . S
C574 C578 1.368 . S
C575 C556 1.429 . S
C575 C569 1.429 . S
C575 C576 1.523 . S
C576 C557 1.368 . S
C576 C570 1.368 . S
C576 C575 1.523 . S
C577 C561 1.429 . S
C577 C573 1.429 . S
C577 C578 1.523 . S
C578 C562 1.368 . S
C578 C574 1.368 . S
C578 C577 1.523 . S
H579 C554 0.950 . S
H580 C556 0.950 . S
H581 C557 0.949 . S
H582 C559 0.950 . S
H583 C561 0.950 . S
C584 C585 1.349 . S
C584 C586 1.327 . S
C584 H609 0.950 . S
C585 C584 1.349 . S
C585 C601 1.349 . S
C586 C584 1.327 . S
C586 C605 1.429 . S
C586 H610 0.950 . S
C587 C604 1.574 . S
C587 C606 1.368 . S
C587 H611 0.949 . S
H588 C592 0.949 . S
C589 C590 1.349 . S
C589 C591 1.327 . S
C589 H612 0.950 . S
C590 C589 1.349 . S
C590 C602 1.349 1_455 S
C591 C589 1.327 . S
C591 C607 1.429 1_455 S
C591 H613 0.950 . S
C592 H588 0.949 . S
C592 C600 1.574 . S
C592 C608 1.368 . S
H593 C601 0.950 1_554 S
H594 C599 0.950 . S
H595 C600 0.949 . S
H596 C602 0.950 . S
H597 C603 0.950 . S
H598 C604 0.949 1_455 S
C599 H594 0.950 . S
C599 C601 1.327 . S
C599 C605 1.429 . S
C600 C592 1.574 . S
C600 H595 0.949 . S
C600 C606 1.368 . S
C601 C585 1.349 . S
C601 H593 0.950 1_556 S
C601 C599 1.327 . S
C602 C590 1.349 1_655 S
C602 H596 0.950 . S
C602 C603 1.327 . S
C603 H597 0.950 . S
C603 C602 1.327 . S
C603 C607 1.429 . S
C604 C587 1.574 . S
C604 H598 0.949 1_655 S
C604 C608 1.368 . S
C605 C586 1.429 . S
C605 C599 1.429 . S
C605 C606 1.523 . S
C606 C587 1.368 . S
C606 C600 1.368 . S
C606 C605 1.523 . S
C607 C591 1.429 1_655 S
C607 C603 1.429 . S
C607 C608 1.523 . S
C608 C592 1.368 . S
C608 C604 1.368 . S
C608 C607 1.523 . S
H609 C584 0.950 . S
H610 C586 0.950 . S
H611 C587 0.949 . S
H612 C589 0.950 . S
H613 C591 0.950 . S
C614 C615 1.348 1_556 S
C614 C616 1.327 . S
C614 H639 0.950 . S
C615 C614 1.348 1_554 S
C615 C631 1.350 1_545 S
C616 C614 1.327 . S
C616 C635 1.429 . S
C616 H640 0.950 . S
C617 C634 1.574 . S
C617 C636 1.368 1_565 S
C617 H641 0.949 . S
H618 C622 0.949 . S
C619 C620 1.349 1_565 S
C619 C621 1.327 . S
C619 H642 0.950 . S
C620 C619 1.349 1_545 S
C620 C632 1.349 . S
C621 C619 1.327 . S
C621 C637 1.429 1_565 S
C621 H643 0.950 . S
C622 H618 0.949 . S
C622 C630 1.574 . S
C622 C638 1.368 . S
H623 C631 0.950 . S
H624 C629 0.950 1_554 S
H625 C630 0.949 . S
H626 C632 0.950 . S
H627 C633 0.950 . S
H628 C634 0.949 . S
C629 H624 0.950 1_556 S
C629 C631 1.327 1_556 S
C629 C635 1.429 1_565 S
C630 C622 1.574 . S
C630 H625 0.949 . S
C630 C636 1.368 . S
C631 C615 1.350 1_565 S
C631 H623 0.950 . S
C631 C629 1.327 1_554 S
C632 C620 1.349 . S
C632 H626 0.950 . S
C632 C633 1.327 . S
C633 H627 0.950 . S
C633 C632 1.327 . S
C633 C637 1.429 . S
C634 C617 1.574 . S
C634 H628 0.949 . S
C634 C638 1.368 1_565 S
C635 C616 1.429 . S
C635 C629 1.429 1_545 S
C635 C636 1.523 . S
C636 C617 1.368 1_545 S
C636 C630 1.368 . S
C636 C635 1.523 . S
C637 C621 1.429 1_545 S
C637 C633 1.429 . S
C637 C638 1.523 . S
C638 C622 1.368 . S
C638 C634 1.368 1_545 S
C638 C637 1.523 . S
H639 C614 0.950 . S
H640 C616 0.950 . S
H641 C617 0.949 . S
H642 C619 0.950 . S
H643 C621 0.950 . S
C644 C645 1.349 1_556 S
C644 C646 1.327 . S
C644 H669 0.950 . S
C645 C644 1.349 1_554 S
C645 C661 1.349 . S
C646 C644 1.327 . S
C646 C665 1.429 . S
C646 H670 0.950 . S
C647 C664 1.574 . S
C647 C666 1.368 . S
C647 H671 0.949 1_556 S
H648 C652 0.949 . S
C649 C650 1.349 . S
C649 C651 1.327 . S
C649 H672 0.950 . S
C650 C649 1.349 . S
C650 C662 1.349 . S
C651 C649 1.327 . S
C651 C667 1.429 . S
C651 H673 0.950 . S
C652 H648 0.949 . S
C652 C660 1.574 . S
C652 C668 1.368 . S
H653 C661 0.950 . S
H654 C659 0.950 . S
H655 C660 0.949 . S
H656 C662 0.950 . S
H657 C663 0.950 . S
H658 C664 0.949 . S
C659 H654 0.950 . S
C659 C661 1.327 . S
C659 C665 1.429 1_554 S
C660 C652 1.574 . S
C660 H655 0.949 . S
C660 C666 1.368 . S
C661 C645 1.349 . S
C661 H653 0.950 . S
C661 C659 1.327 . S
C662 C650 1.349 . S
C662 H656 0.950 . S
C662 C663 1.327 . S
C663 H657 0.950 . S
C663 C662 1.327 . S
C663 C667 1.429 . S
C664 C647 1.574 . S
C664 H658 0.949 . S
C664 C668 1.368 . S
C665 C646 1.429 . S
C665 C659 1.429 1_556 S
C665 C666 1.523 . S
C666 C647 1.368 . S
C666 C660 1.368 . S
C666 C665 1.523 . S
C667 C651 1.429 . S
C667 C663 1.429 . S
C667 C668 1.523 . S
C668 C652 1.368 . S
C668 C664 1.368 . S
C668 C667 1.523 . S
H669 C644 0.950 . S
H670 C646 0.950 . S
H671 C647 0.949 1_554 S
H672 C649 0.950 . S
H673 C651 0.950 . S
C674 C675 1.349 . S
C674 C676 1.327 1_554 S
C674 H699 0.950 . S
C675 C674 1.349 . S
C675 C691 1.349 . S
C676 C674 1.327 1_556 S
C676 C695 1.429 1_556 S
C676 H700 0.950 . S
C677 C694 1.574 . S
C677 C696 1.368 . S
C677 H701 0.949 1_556 S
H678 C682 0.949 . S
C679 C680 1.349 . S
C679 C681 1.327 . S
C679 H702 0.950 . S
C680 C679 1.349 . S
C680 C692 1.349 . S
C681 C679 1.327 . S
C681 C697 1.429 . S
C681 H703 0.950 . S
C682 H678 0.949 . S
C682 C690 1.574 . S
C682 C698 1.368 . S
H683 C691 0.950 . S
H684 C689 0.950 . S
H685 C690 0.949 . S
H686 C692 0.950 . S
H687 C693 0.950 . S
H688 C694 0.949 . S
C689 H684 0.950 . S
C689 C691 1.327 . S
C689 C695 1.429 . S
C690 C682 1.574 . S
C690 H685 0.949 . S
C690 C696 1.368 . S
C691 C675 1.349 . S
C691 H683 0.950 . S
C691 C689 1.327 . S
C692 C680 1.349 . S
C692 H686 0.950 . S
C692 C693 1.327 . S
C693 H687 0.950 . S
C693 C692 1.327 . S
C693 C697 1.429 . S
C694 C677 1.574 . S
C694 H688 0.949 . S
C694 C698 1.368 . S
C695 C676 1.429 1_554 S
C695 C689 1.429 . S
C695 C696 1.523 1_554 S
C696 C677 1.368 . S
C696 C690 1.368 . S
C696 C695 1.523 1_556 S
C697 C681 1.429 . S
C697 C693 1.429 . S
C697 C698 1.523 . S
C698 C682 1.368 . S
C698 C694 1.368 . S
C698 C697 1.523 . S
H699 C674 0.950 . S
H700 C676 0.950 . S
H701 C677 0.949 1_554 S
H702 C679 0.950 . S
H703 C681 0.950 . S
C704 C705 1.349 . S
C704 C706 1.327 . S
C704 H729 0.950 . S
C705 C704 1.349 . S
C705 C721 1.349 . S
C706 C704 1.327 . S
C706 C725 1.429 . S
C706 H730 0.950 . S
C707 C724 1.574 . S
C707 C726 1.368 . S
C707 H731 0.949 . S
H708 C712 0.949 . S
C709 C710 1.349 1_554 S
C709 C711 1.327 . S
C709 H732 0.950 . S
C710 C709 1.349 1_556 S
C710 C722 1.349 . S
C711 C709 1.327 . S
C711 C727 1.429 . S
C711 H733 0.950 . S
C712 H708 0.949 . S
C712 C720 1.574 . S
C712 C728 1.368 . S
H713 C721 0.950 . S
H714 C719 0.950 . S
H715 C720 0.949 . S
H716 C722 0.950 . S
H717 C723 0.950 . S
H718 C724 0.949 . S
C719 H714 0.950 . S
C719 C721 1.327 . S
C719 C725 1.429 . S
C720 C712 1.574 . S
C720 H715 0.949 . S
C720 C726 1.368 . S
C721 C705 1.349 . S
C721 H713 0.950 . S
C721 C719 1.327 . S
C722 C710 1.349 . S
C722 H716 0.950 . S
C722 C723 1.327 . S
C723 H717 0.950 . S
C723 C722 1.327 . S
C723 C727 1.429 1_556 S
C724 C707 1.574 . S
C724 H718 0.949 . S
C724 C728 1.368 . S
C725 C706 1.429 . S
C725 C719 1.429 . S
C725 C726 1.523 . S
C726 C707 1.368 . S
C726 C720 1.368 . S
C726 C725 1.523 . S
C727 C711 1.429 . S
C727 C723 1.429 1_554 S
C727 C728 1.523 . S
C728 C712 1.368 . S
C728 C724 1.368 . S
C728 C727 1.523 . S
H729 C704 0.950 . S
H730 C706 0.950 . S
H731 C707 0.949 . S
H732 C709 0.950 . S
H733 C711 0.950 . S
C734 C735 1.364 . S
C734 C736 1.327 . S
C734 H759 0.950 . S
C735 C734 1.364 . S
C735 C751 1.334 1_545 S
C736 C734 1.327 . S
C736 C755 1.429 . S
C736 H760 0.950 . S
C737 C754 1.574 1_554 S
C737 C756 1.368 1_565 S
C737 H761 0.949 . S
H738 C742 0.949 . S
C739 C740 1.349 1_565 S
C739 C741 1.327 . S
C739 H762 0.950 . S
C740 C739 1.349 1_545 S
C740 C752 1.349 . S
C741 C739 1.327 . S
C741 C757 1.429 1_565 S
C741 H763 0.950 . S
C742 H738 0.949 . S
C742 C750 1.574 . S
C742 C758 1.368 1_554 S
H743 C751 0.950 . S
H744 C749 0.950 . S
H745 C750 0.949 . S
H746 C752 0.950 . S
H747 C753 0.950 . S
H748 C754 0.949 . S
C749 H744 0.950 . S
C749 C751 1.327 . S
C749 C755 1.429 1_565 S
C750 C742 1.574 . S
C750 H745 0.949 . S
C750 C756 1.368 . S
C751 C735 1.334 1_565 S
C751 H743 0.950 . S
C751 C749 1.327 . S
C752 C740 1.349 . S
C752 H746 0.950 . S
C752 C753 1.327 . S
C753 H747 0.950 . S
C753 C752 1.327 . S
C753 C757 1.429 . S
C754 C737 1.574 1_556 S
C754 H748 0.949 . S
C754 C758 1.368 1_565 S
C755 C736 1.429 . S
C755 C749 1.429 1_545 S
C755 C756 1.523 . S
C756 C737 1.368 1_545 S
C756 C750 1.368 . S
C756 C755 1.523 . S
C757 C741 1.429 1_545 S
C757 C753 1.429 . S
C757 C758 1.523 . S
C758 C742 1.368 1_556 S
C758 C754 1.368 1_545 S
C758 C757 1.523 . S
H759 C734 0.950 . S
H760 C736 0.950 . S
H761 C737 0.949 . S
H762 C739 0.950 . S
H763 C741 0.950 . S
C764 C765 1.349 . S
C764 C766 1.327 . S
C764 H789 0.950 . S
C765 C764 1.349 . S
C765 C781 1.349 . S
C766 C764 1.327 . S
C766 C785 1.429 . S
C766 H790 0.950 . S
C767 C784 1.574 1_554 S
C767 C786 1.368 . S
C767 H791 0.949 1_554 S
H768 C772 0.949 . S
C769 C770 1.349 . S
C769 C771 1.327 . S
C769 H792 0.950 . S
C770 C769 1.349 . S
C770 C782 1.349 . S
C771 C769 1.327 . S
C771 C787 1.429 . S
C771 H793 0.950 . S
C772 H768 0.949 . S
C772 C780 1.574 . S
C772 C788 1.368 1_554 S
H773 C781 0.950 . S
H774 C779 0.950 . S
H775 C780 0.949 . S
H776 C782 0.950 . S
H777 C783 0.950 . S
H778 C784 0.949 . S
C779 H774 0.950 . S
C779 C781 1.327 . S
C779 C785 1.429 . S
C780 C772 1.574 . S
C780 H775 0.949 . S
C780 C786 1.368 . S
C781 C765 1.349 . S
C781 H773 0.950 . S
C781 C779 1.327 . S
C782 C770 1.349 . S
C782 H776 0.950 . S
C782 C783 1.327 . S
C783 H777 0.950 . S
C783 C782 1.327 . S
C783 C787 1.429 . S
C784 C767 1.574 1_556 S
C784 H778 0.949 . S
C784 C788 1.368 . S
C785 C766 1.429 . S
C785 C779 1.429 . S
C785 C786 1.523 . S
C786 C767 1.368 . S
C786 C780 1.368 . S
C786 C785 1.523 . S
C787 C771 1.429 . S
C787 C783 1.429 . S
C787 C788 1.523 . S
C788 C772 1.368 1_556 S
C788 C784 1.368 . S
C788 C787 1.523 . S
H789 C764 0.950 . S
H790 C766 0.950 . S
H791 C767 0.949 1_556 S
H792 C769 0.950 . S
H793 C771 0.950 . S
C794 C795 1.349 . S
C794 C796 1.327 . S
C794 H819 0.950 . S
C795 C794 1.349 . S
C795 C811 1.349 . S
C796 C794 1.327 . S
C796 C815 1.429 . S
C796 H820 0.950 . S
C797 C814 1.574 1_554 S
C797 C816 1.368 . S
C797 H821 0.949 . S
H798 C802 0.949 . S
C799 C800 1.349 . S
C799 C801 1.327 . S
C799 H822 0.950 . S
C800 C799 1.349 . S
C800 C812 1.349 . S
C801 C799 1.327 . S
C801 C817 1.429 . S
C801 H823 0.950 . S
C802 H798 0.949 . S
C802 C810 1.574 . S
C802 C818 1.368 . S
H803 C811 0.950 . S
H804 C809 0.950 . S
H805 C810 0.949 . S
H806 C812 0.950 . S
H807 C813 0.950 . S
H808 C814 0.949 1_554 S
C809 H804 0.950 . S
C809 C811 1.327 . S
C809 C815 1.429 . S
C810 C802 1.574 . S
C810 H805 0.949 . S
C810 C816 1.368 1_556 S
C811 C795 1.349 . S
C811 H803 0.950 . S
C811 C809 1.327 . S
C812 C800 1.349 . S
C812 H806 0.950 . S
C812 C813 1.327 . S
C813 H807 0.950 . S
C813 C812 1.327 . S
C813 C817 1.429 . S
C814 C797 1.574 1_556 S
C814 H808 0.949 1_556 S
C814 C818 1.368 . S
C815 C796 1.429 . S
C815 C809 1.429 . S
C815 C816 1.523 . S
C816 C797 1.368 . S
C816 C810 1.368 1_554 S
C816 C815 1.523 . S
C817 C801 1.429 . S
C817 C813 1.429 . S
C817 C818 1.523 . S
C818 C802 1.368 . S
C818 C814 1.368 . S
C818 C817 1.523 . S
H819 C794 0.950 . S
H820 C796 0.950 . S
H821 C797 0.949 . S
H822 C799 0.950 . S
H823 C801 0.950 . S
C824 C825 1.349 . S
C824 C826 1.327 . S
C824 H849 0.950 . S
C825 C824 1.349 . S
C825 C841 1.349 . S
C826 C824 1.327 . S
C826 C845 1.429 . S
C826 H850 0.950 . S
C827 C844 1.574 . S
C827 C846 1.368 . S
C827 H851 0.949 . S
H828 C832 0.949 . S
C829 C830 1.349 . S
C829 C831 1.327 . S
C829 H852 0.950 . S
C830 C829 1.349 . S
C830 C842 1.349 . S
C831 C829 1.327 . S
C831 C847 1.429 . S
C831 H853 0.950 . S
C832 H828 0.949 . S
C832 C840 1.574 . S
C832 C848 1.368 . S
H833 C841 0.950 . S
H834 C839 0.950 . S
H835 C840 0.949 . S
H836 C842 0.950 1_455 S
H837 C843 0.950 . S
H838 C844 0.949 . S
C839 H834 0.950 . S
C839 C841 1.327 . S
C839 C845 1.429 . S
C840 C832 1.574 . S
C840 H835 0.949 . S
C840 C846 1.368 . S
C841 C825 1.349 . S
C841 H833 0.950 . S
C841 C839 1.327 . S
C842 C830 1.349 . S
C842 H836 0.950 1_655 S
C842 C843 1.327 . S
C843 H837 0.950 . S
C843 C842 1.327 . S
C843 C847 1.429 . S
C844 C827 1.574 . S
C844 H838 0.949 . S
C844 C848 1.368 . S
C845 C826 1.429 . S
C845 C839 1.429 . S
C845 C846 1.523 . S
C846 C827 1.368 . S
C846 C840 1.368 . S
C846 C845 1.523 . S
C847 C831 1.429 . S
C847 C843 1.429 . S
C847 C848 1.523 . S
C848 C832 1.368 . S
C848 C844 1.368 . S
C848 C847 1.523 . S
H849 C824 0.950 . S
H850 C826 0.950 . S
H851 C827 0.949 . S
H852 C829 0.950 . S
H853 C831 0.950 . S
C854 C855 1.353 . S
C854 C856 1.327 . S
C854 H879 0.950 . S
C855 C854 1.353 . S
C855 C871 1.344 1_565 S
C856 C854 1.327 . S
C856 C875 1.473 . S
C856 H880 0.950 . S
C857 C874 1.574 . S
C857 C876 1.368 1_545 S
C857 H881 0.949 . S
H858 C862 0.949 . S
C859 C860 1.349 1_545 S
C859 C861 1.327 . S
C859 H882 0.950 . S
C860 C859 1.349 1_565 S
C860 C872 1.349 . S
C861 C859 1.327 . S
C861 C877 1.429 1_545 S
C861 H883 0.950 . S
C862 H858 0.949 . S
C862 C870 1.574 . S
C862 C878 1.368 . S
H863 C871 0.950 . S
H864 C869 0.950 . S
H865 C870 0.949 . S
H866 C872 0.950 . S
H867 C873 0.950 . S
H868 C874 0.949 . S
C869 H864 0.950 . S
C869 C871 1.327 . S
C869 C875 1.388 1_545 S
C870 C862 1.574 . S
C870 H865 0.949 . S
C870 C876 1.368 . S
C871 C855 1.344 1_545 S
C871 H863 0.950 . S
C871 C869 1.327 . S
C872 C860 1.349 . S
C872 H866 0.950 . S
C872 C873 1.327 . S
C873 H867 0.950 . S
C873 C872 1.327 . S
C873 C877 1.429 . S
C874 C857 1.574 . S
C874 H868 0.949 . S
C874 C878 1.368 1_545 S
C875 C856 1.473 . S
C875 C869 1.388 1_565 S
C875 C876 1.523 . S
C876 C857 1.368 1_565 S
C876 C870 1.368 . S
C876 C875 1.523 . S
C877 C861 1.429 1_565 S
C877 C873 1.429 . S
C877 C878 1.523 . S
C878 C862 1.368 . S
C878 C874 1.368 1_565 S
C878 C877 1.523 . S
H879 C854 0.950 . S
H880 C856 0.950 . S
H881 C857 0.949 . S
H882 C859 0.950 . S
H883 C861 0.950 . S
C884 C885 1.349 . S
C884 C886 1.327 . S
C884 H909 0.950 . S
C885 C884 1.349 . S
C885 C901 1.349 . S
C886 C884 1.327 . S
C886 C905 1.429 . S
C886 H910 0.950 . S
C887 C904 1.574 . S
C887 C906 1.368 . S
C887 H911 0.949 . S
H888 C892 0.949 . S
C889 C890 1.349 . S
C889 C891 1.327 . S
C889 H912 0.950 . S
C890 C889 1.349 . S
C890 C902 1.349 . S
C891 C889 1.327 . S
C891 C907 1.429 . S
C891 H913 0.950 . S
C892 H888 0.949 . S
C892 C900 1.574 . S
C892 C908 1.368 . S
H893 C901 0.950 . S
H894 C899 0.950 . S
H895 C900 0.949 . S
H896 C902 0.950 . S
H897 C903 0.950 . S
H898 C904 0.949 . S
C899 H894 0.950 . S
C899 C901 1.327 . S
C899 C905 1.429 . S
C900 C892 1.574 . S
C900 H895 0.949 . S
C900 C906 1.368 . S
C901 C885 1.349 . S
C901 H893 0.950 . S
C901 C899 1.327 . S
C902 C890 1.349 . S
C902 H896 0.950 . S
C902 C903 1.327 . S
C903 H897 0.950 . S
C903 C902 1.327 . S
C903 C907 1.429 . S
C904 C887 1.574 . S
C904 H898 0.949 . S
C904 C908 1.368 . S
C905 C886 1.429 . S
C905 C899 1.429 . S
C905 C906 1.523 . S
C906 C887 1.368 . S
C906 C900 1.368 . S
C906 C905 1.523 . S
C907 C891 1.429 . S
C907 C903 1.429 . S
C907 C908 1.523 . S
C908 C892 1.368 . S
C908 C904 1.368 . S
C908 C907 1.523 . S
H909 C884 0.950 . S
H910 C886 0.950 . S
H911 C887 0.949 . S
H912 C889 0.950 . S
H913 C891 0.950 . S
C914 C915 1.349 . S
C914 C916 1.327 . S
C914 H939 0.950 . S
C915 C914 1.349 . S
C915 C931 1.349 . S
C916 C914 1.327 . S
C916 C935 1.429 . S
C916 H940 0.950 . S
C917 C934 1.574 . S
C917 C936 1.368 . S
C917 H941 0.949 . S
H918 C922 0.949 . S
C919 C920 1.349 . S
C919 C921 1.327 . S
C919 H942 0.950 . S
C920 C919 1.349 . S
C920 C932 1.349 . S
C921 C919 1.327 . S
C921 C937 1.429 . S
C921 H943 0.950 . S
C922 H918 0.949 . S
C922 C930 1.574 . S
C922 C938 1.368 . S
H923 C931 0.950 . S
H924 C929 0.950 . S
H925 C930 0.949 . S
H926 C932 0.950 . S
H927 C933 0.950 . S
H928 C934 0.949 . S
C929 H924 0.950 . S
C929 C931 1.327 . S
C929 C935 1.429 . S
C930 C922 1.574 . S
C930 H925 0.949 . S
C930 C936 1.368 . S
C931 C915 1.349 . S
C931 H923 0.950 . S
C931 C929 1.327 . S
C932 C920 1.349 . S
C932 H926 0.950 . S
C932 C933 1.327 . S
C933 H927 0.950 . S
C933 C932 1.327 . S
C933 C937 1.429 . S
C934 C917 1.574 . S
C934 H928 0.949 . S
C934 C938 1.368 . S
C935 C916 1.429 . S
C935 C929 1.429 . S
C935 C936 1.523 . S
C936 C917 1.368 . S
C936 C930 1.368 . S
C936 C935 1.523 . S
C937 C921 1.429 . S
C937 C933 1.429 . S
C937 C938 1.523 . S
C938 C922 1.368 . S
C938 C934 1.368 . S
C938 C937 1.523 . S
H939 C914 0.950 . S
H940 C916 0.950 . S
H941 C917 0.949 . S
H942 C919 0.950 . S
H943 C921 0.950 . S
C225 C76 1.846 . S
C230 C105 1.872 . S
C260 C126 1.547 . S
C255 C87 1.518 . S
C290 C160 1.324 . S
C285 C54 1.299 . S
C320 C194 1.538 . S
C315 C65 1.518 . S
C350 C96 1.873 . S
C345 C32 1.843 1_546 S
C375 C43 1.529 . S
C380 C135 1.554 . S
C405 C10 1.298 . S
C410 C169 1.324 . S
C435 C21 1.523 . S
C440 C203 1.538 . S
C470 C117 0.243 . S
C465 C60 0.450 . S
C500 C122 0.692 . S
C495 C71 0.698 . S
C530 C156 0.624 . S
C525 C82 0.634 . S
C555 C49 0.257 . S
C560 C190 0.156 . S
C585 C16 0.466 . S
C590 C88 0.246 . S
C620 C151 0.693 . S
C615 C27 0.696 . S
C650 C185 0.623 . S
C645 C38 0.636 . S
C675 C5 0.257 . S
C680 C219 0.156 . S
C705 C59 1.264 . S
C710 C101 1.291 . S
C735 C70 1.708 . S
C740 C130 1.756 . S
C770 C164 1.554 . S
C765 C81 1.519 . S
C800 C198 1.614 . S
C795 C48 1.565 . S
C825 C15 1.260 . S
C830 C92 1.302 . S
C860 C139 1.756 . S
C855 C26 1.712 1_565 S
C890 C173 1.554 . S
C885 C37 1.515 . S
C915 C4 1.568 . S
C920 C207 1.614 . S
