# Generated by pormake.
# Topology llk, (3,12)-cn, num edge types: 1
# Building blocks:
#     Node 0, Type 0, BuildingBlock: BETDAH_clean_linker_0, # of connection points: 3
#     Node 1, Type 0, BuildingBlock: BETDAH_clean_linker_0, # of connection points: 3
#     Node 2, Type 0, BuildingBlock: BETDAH_clean_linker_0, # of connection points: 3
#     Node 3, Type 0, BuildingBlock: BETDAH_clean_linker_0, # of connection points: 3
#     Node 4, Type 0, BuildingBlock: BETDAH_clean_linker_0, # of connection points: 3
#     Node 5, Type 0, BuildingBlock: BETDAH_clean_linker_0, # of connection points: 3
#     Node 6, Type 0, BuildingBlock: BETDAH_clean_linker_0, # of connection points: 3
#     Node 7, Type 0, BuildingBlock: BETDAH_clean_linker_0, # of connection points: 3
#     Node 8, Type 0, BuildingBlock: BETDAH_clean_linker_0, # of connection points: 3
#     Node 9, Type 0, BuildingBlock: BETDAH_clean_linker_0, # of connection points: 3
#     Node 10, Type 0, BuildingBlock: BETDAH_clean_linker_0, # of connection points: 3
#     Node 11, Type 0, BuildingBlock: BETDAH_clean_linker_0, # of connection points: 3
#     Node 12, Type 0, BuildingBlock: BETDAH_clean_linker_0, # of connection points: 3
#     Node 13, Type 0, BuildingBlock: BETDAH_clean_linker_0, # of connection points: 3
#     Node 14, Type 0, BuildingBlock: BETDAH_clean_linker_0, # of connection points: 3
#     Node 15, Type 0, BuildingBlock: BETDAH_clean_linker_0, # of connection points: 3
#     Node 16, Type 0, BuildingBlock: BETDAH_clean_linker_0, # of connection points: 3
#     Node 17, Type 0, BuildingBlock: BETDAH_clean_linker_0, # of connection points: 3
#     Node 18, Type 0, BuildingBlock: BETDAH_clean_linker_0, # of connection points: 3
#     Node 19, Type 0, BuildingBlock: BETDAH_clean_linker_0, # of connection points: 3
#     Node 20, Type 0, BuildingBlock: BETDAH_clean_linker_0, # of connection points: 3
#     Node 21, Type 0, BuildingBlock: BETDAH_clean_linker_0, # of connection points: 3
#     Node 22, Type 0, BuildingBlock: BETDAH_clean_linker_0, # of connection points: 3
#     Node 23, Type 0, BuildingBlock: BETDAH_clean_linker_0, # of connection points: 3
#     Node 24, Type 1, BuildingBlock: EZIPEK_clean_sbu_0, # of connection points: 12
#     Node 25, Type 1, BuildingBlock: EZIPEK_clean_sbu_0, # of connection points: 12
#     Node 26, Type 1, BuildingBlock: EZIPEK_clean_sbu_0, # of connection points: 12
#     Node 27, Type 1, BuildingBlock: EZIPEK_clean_sbu_0, # of connection points: 12
#     Node 28, Type 1, BuildingBlock: EZIPEK_clean_sbu_0, # of connection points: 12
#     Node 29, Type 1, BuildingBlock: EZIPEK_clean_sbu_0, # of connection points: 12
#     Edge 30, Type (0, 1), BuildingBlock: TEMPAE_clean_linker_10, # of connection points: 2
#     Edge 31, Type (0, 1), BuildingBlock: TEMPAE_clean_linker_10, # of connection points: 2
#     Edge 32, Type (0, 1), BuildingBlock: TEMPAE_clean_linker_10, # of connection points: 2
#     Edge 33, Type (0, 1), BuildingBlock: TEMPAE_clean_linker_10, # of connection points: 2
#     Edge 34, Type (0, 1), BuildingBlock: TEMPAE_clean_linker_10, # of connection points: 2
#     Edge 35, Type (0, 1), BuildingBlock: TEMPAE_clean_linker_10, # of connection points: 2
#     Edge 36, Type (0, 1), BuildingBlock: TEMPAE_clean_linker_10, # of connection points: 2
#     Edge 37, Type (0, 1), BuildingBlock: TEMPAE_clean_linker_10, # of connection points: 2
#     Edge 38, Type (0, 1), BuildingBlock: TEMPAE_clean_linker_10, # of connection points: 2
#     Edge 39, Type (0, 1), BuildingBlock: TEMPAE_clean_linker_10, # of connection points: 2
#     Edge 40, Type (0, 1), BuildingBlock: TEMPAE_clean_linker_10, # of connection points: 2
#     Edge 41, Type (0, 1), BuildingBlock: TEMPAE_clean_linker_10, # of connection points: 2
#     Edge 42, Type (0, 1), BuildingBlock: TEMPAE_clean_linker_10, # of connection points: 2
#     Edge 43, Type (0, 1), BuildingBlock: TEMPAE_clean_linker_10, # of connection points: 2
#     Edge 44, Type (0, 1), BuildingBlock: TEMPAE_clean_linker_10, # of connection points: 2
#     Edge 45, Type (0, 1), BuildingBlock: TEMPAE_clean_linker_10, # of connection points: 2
#     Edge 46, Type (0, 1), BuildingBlock: TEMPAE_clean_linker_10, # of connection points: 2
#     Edge 47, Type (0, 1), BuildingBlock: TEMPAE_clean_linker_10, # of connection points: 2
#     Edge 48, Type (0, 1), BuildingBlock: TEMPAE_clean_linker_10, # of connection points: 2
#     Edge 49, Type (0, 1), BuildingBlock: TEMPAE_clean_linker_10, # of connection points: 2
#     Edge 50, Type (0, 1), BuildingBlock: TEMPAE_clean_linker_10, # of connection points: 2
#     Edge 51, Type (0, 1), BuildingBlock: TEMPAE_clean_linker_10, # of connection points: 2
#     Edge 52, Type (0, 1), BuildingBlock: TEMPAE_clean_linker_10, # of connection points: 2
#     Edge 53, Type (0, 1), BuildingBlock: TEMPAE_clean_linker_10, # of connection points: 2
#     Edge 54, Type (0, 1), BuildingBlock: TEMPAE_clean_linker_10, # of connection points: 2
#     Edge 55, Type (0, 1), BuildingBlock: TEMPAE_clean_linker_10, # of connection points: 2
#     Edge 56, Type (0, 1), BuildingBlock: TEMPAE_clean_linker_10, # of connection points: 2
#     Edge 57, Type (0, 1), BuildingBlock: TEMPAE_clean_linker_10, # of connection points: 2
#     Edge 58, Type (0, 1), BuildingBlock: TEMPAE_clean_linker_10, # of connection points: 2
#     Edge 59, Type (0, 1), BuildingBlock: TEMPAE_clean_linker_10, # of connection points: 2
#     Edge 60, Type (0, 1), BuildingBlock: TEMPAE_clean_linker_10, # of connection points: 2
#     Edge 61, Type (0, 1), BuildingBlock: TEMPAE_clean_linker_10, # of connection points: 2
#     Edge 62, Type (0, 1), BuildingBlock: TEMPAE_clean_linker_10, # of connection points: 2
#     Edge 63, Type (0, 1), BuildingBlock: TEMPAE_clean_linker_10, # of connection points: 2
#     Edge 64, Type (0, 1), BuildingBlock: TEMPAE_clean_linker_10, # of connection points: 2
#     Edge 65, Type (0, 1), BuildingBlock: TEMPAE_clean_linker_10, # of connection points: 2
#     Edge 66, Type (0, 1), BuildingBlock: TEMPAE_clean_linker_10, # of connection points: 2
#     Edge 67, Type (0, 1), BuildingBlock: TEMPAE_clean_linker_10, # of connection points: 2
#     Edge 68, Type (0, 1), BuildingBlock: TEMPAE_clean_linker_10, # of connection points: 2
#     Edge 69, Type (0, 1), BuildingBlock: TEMPAE_clean_linker_10, # of connection points: 2
#     Edge 70, Type (0, 1), BuildingBlock: TEMPAE_clean_linker_10, # of connection points: 2
#     Edge 71, Type (0, 1), BuildingBlock: TEMPAE_clean_linker_10, # of connection points: 2
#     Edge 72, Type (0, 1), BuildingBlock: TEMPAE_clean_linker_10, # of connection points: 2
#     Edge 73, Type (0, 1), BuildingBlock: TEMPAE_clean_linker_10, # of connection points: 2
#     Edge 74, Type (0, 1), BuildingBlock: TEMPAE_clean_linker_10, # of connection points: 2
#     Edge 75, Type (0, 1), BuildingBlock: TEMPAE_clean_linker_10, # of connection points: 2
#     Edge 76, Type (0, 1), BuildingBlock: TEMPAE_clean_linker_10, # of connection points: 2
#     Edge 77, Type (0, 1), BuildingBlock: TEMPAE_clean_linker_10, # of connection points: 2
#     Edge 78, Type (0, 1), BuildingBlock: TEMPAE_clean_linker_10, # of connection points: 2
#     Edge 79, Type (0, 1), BuildingBlock: TEMPAE_clean_linker_10, # of connection points: 2
#     Edge 80, Type (0, 1), BuildingBlock: TEMPAE_clean_linker_10, # of connection points: 2
#     Edge 81, Type (0, 1), BuildingBlock: TEMPAE_clean_linker_10, # of connection points: 2
#     Edge 82, Type (0, 1), BuildingBlock: TEMPAE_clean_linker_10, # of connection points: 2
#     Edge 83, Type (0, 1), BuildingBlock: TEMPAE_clean_linker_10, # of connection points: 2
#     Edge 84, Type (0, 1), BuildingBlock: TEMPAE_clean_linker_10, # of connection points: 2
#     Edge 85, Type (0, 1), BuildingBlock: TEMPAE_clean_linker_10, # of connection points: 2
#     Edge 86, Type (0, 1), BuildingBlock: TEMPAE_clean_linker_10, # of connection points: 2
#     Edge 87, Type (0, 1), BuildingBlock: TEMPAE_clean_linker_10, # of connection points: 2
#     Edge 88, Type (0, 1), BuildingBlock: TEMPAE_clean_linker_10, # of connection points: 2
#     Edge 89, Type (0, 1), BuildingBlock: TEMPAE_clean_linker_10, # of connection points: 2
#     Edge 90, Type (0, 1), BuildingBlock: TEMPAE_clean_linker_10, # of connection points: 2
#     Edge 91, Type (0, 1), BuildingBlock: TEMPAE_clean_linker_10, # of connection points: 2
#     Edge 92, Type (0, 1), BuildingBlock: TEMPAE_clean_linker_10, # of connection points: 2
#     Edge 93, Type (0, 1), BuildingBlock: TEMPAE_clean_linker_10, # of connection points: 2
#     Edge 94, Type (0, 1), BuildingBlock: TEMPAE_clean_linker_10, # of connection points: 2
#     Edge 95, Type (0, 1), BuildingBlock: TEMPAE_clean_linker_10, # of connection points: 2
#     Edge 96, Type (0, 1), BuildingBlock: TEMPAE_clean_linker_10, # of connection points: 2
#     Edge 97, Type (0, 1), BuildingBlock: TEMPAE_clean_linker_10, # of connection points: 2
#     Edge 98, Type (0, 1), BuildingBlock: TEMPAE_clean_linker_10, # of connection points: 2
#     Edge 99, Type (0, 1), BuildingBlock: TEMPAE_clean_linker_10, # of connection points: 2
#     Edge 100, Type (0, 1), BuildingBlock: TEMPAE_clean_linker_10, # of connection points: 2
#     Edge 101, Type (0, 1), BuildingBlock: TEMPAE_clean_linker_10, # of connection points: 2
# Relax obj value: 0.069
# Max RMSD: 0.164
# Mean RMSD: 0.122
data_MOF--net-llk--node1-EZIPEK_clean_sbu_0--node2-BETDAH_clean_linker_0--edge1-TEMPAE_clean_linker_10
_symmetry_space_group_name_H-M    P1
_symmetry_Int_Tables_number       1
_symmetry_cell_setting            triclinic
loop_
_symmetry_equiv_pos_as_xyz
'x, y, z'
_cell_length_a     47.592176
_cell_length_b     47.934187
_cell_length_c     48.255521
_cell_angle_alpha  90.012043
_cell_angle_beta   90.002725
_cell_angle_gamma 89.998489
loop_
_atom_site_label
_atom_site_type_symbol
_atom_site_fract_x
_atom_site_fract_y
_atom_site_fract_z
_atom_type_partial_charge
H0 H 0.01225 0.25139 0.33913 0.0
H1 H 0.01126 0.29665 0.2624 0.0
H2 H 0.01423 0.20666 0.2619 0.0
C3 C 0.01231 0.25142 0.31664 0.0
C4 C 0.01356 0.22606 0.30231 0.0
C5 C 0.01127 0.27682 0.30234 0.0
C6 C 0.01189 0.2769 0.27329 0.0
C7 C 0.0128 0.25157 0.2585 0.0
C8 C 0.01337 0.2262 0.27318 0.0
N9 N 0.01326 0.25093 0.22902 0.0
C10 C 0.01343 0.27471 0.2124 0.0
H11 H 0.68354 0.98666 0.2582 0.0
H12 H 0.76085 0.0009 0.30174 0.0
H13 H 0.75955 0.00213 0.21247 0.0
C14 C 0.70605 0.99025 0.25785 0.0
C15 C 0.71979 0.99359 0.23236 0.0
C16 C 0.7207 0.99314 0.28289 0.0
C17 C 0.74961 0.99877 0.28234 0.0
C18 C 0.76381 0.00176 0.25689 0.0
C19 C 0.7487 0.99949 0.23205 0.0
N20 N 0.79311 0.00731 0.25566 0.0
C21 C 0.8103 0.0076 0.27894 0.0
H22 H 0.01483 0.66825 0.25811 0.0
H23 H 0.01372 0.74556 0.30297 0.0
H24 H 0.01732 0.74596 0.21362 0.0
C25 C 0.015 0.69088 0.2581 0.0
C26 C 0.01645 0.70527 0.23288 0.0
C27 C 0.01384 0.70532 0.28331 0.0
C28 C 0.01449 0.73456 0.28336 0.0
C29 C 0.0156 0.74942 0.2582 0.0
C30 C 0.01633 0.73461 0.23302 0.0
N31 N 0.01605 0.7791 0.25755 0.0
C32 C 0.01575 0.79584 0.28116 0.0
H33 H 0.26515 1.00037 0.33971 0.0
H34 H 0.31018 0.99997 0.26262 0.0
H35 H 0.21957 0.00351 0.26284 0.0
C36 C 0.26502 0.0007 0.31722 0.0
C37 C 0.23939 0.00227 0.30308 0.0
C38 C 0.2905 0.99966 0.30273 0.0
C39 C 0.29038 0.00059 0.27368 0.0
C40 C 0.26474 0.00182 0.2591 0.0
C41 C 0.23933 0.00241 0.27397 0.0
N42 N 0.26378 0.00259 0.22964 0.0
C43 C 0.28749 0.00258 0.21273 0.0
H44 H 0.01238 0.74939 0.67512 0.0
H45 H 0.01306 0.70406 0.75182 0.0
H46 H 0.01647 0.79404 0.75231 0.0
C47 C 0.01297 0.74934 0.6976 0.0
C48 C 0.01468 0.77468 0.71191 0.0
C49 C 0.01217 0.72393 0.7119 0.0
C50 C 0.0135 0.72381 0.74093 0.0
C51 C 0.01491 0.74912 0.75572 0.0
C52 C 0.01524 0.77451 0.74104 0.0
N53 N 0.01614 0.74972 0.78519 0.0
C54 C 0.01656 0.72596 0.80184 0.0
H55 H 0.26211 1.00036 0.67475 0.0
H56 H 0.30957 0.00199 0.75038 0.0
H57 H 0.21902 0.9973 0.75297 0.0
C58 C 0.26271 1.00021 0.69723 0.0
C59 C 0.23759 0.99841 0.71217 0.0
C60 C 0.28859 0.00171 0.7109 0.0
C61 C 0.28943 0.00101 0.73996 0.0
C62 C 0.26427 0.99958 0.75533 0.0
C63 C 0.23841 0.99853 0.74126 0.0
N64 N 0.26423 0.99911 0.78479 0.0
C65 C 0.28843 0.99956 0.801 0.0
H66 H 0.00436 0.33272 0.75601 0.0
H67 H 0.01469 0.25633 0.71072 0.0
H68 H 0.01834 0.25587 0.79998 0.0
C69 C 0.00726 0.31027 0.75591 0.0
C70 C 0.01075 0.29609 0.78111 0.0
C71 C 0.00897 0.2961 0.73054 0.0
C72 C 0.01355 0.26719 0.73037 0.0
C73 C 0.01665 0.25246 0.75542 0.0
C74 C 0.01565 0.26712 0.78068 0.0
N75 N 0.02094 0.22306 0.75583 0.0
C76 C 0.02034 0.20622 0.73226 0.0
H77 H 0.76167 0.98331 0.67958 0.0
H78 H 0.71793 0.9997 0.75561 0.0
H79 H 0.80842 0.00291 0.75327 0.0
C80 C 0.76217 0.98769 0.70163 0.0
C81 C 0.78802 0.99225 0.71472 0.0
C82 C 0.73688 0.99058 0.7162 0.0
C83 C 0.73754 0.99741 0.74446 0.0
C84 C 0.76344 0.00152 0.75805 0.0
C85 C 0.78852 0.99928 0.74295 0.0
N86 N 0.76496 0.00831 0.78667 0.0
C87 C 0.7417 0.00862 0.80407 0.0
H88 H 0.34205 0.25135 0.02127 0.0
H89 H 0.26532 0.29469 0.00326 0.0
H90 H 0.26757 0.20485 1.00097 0.0
C91 C 0.31977 0.25085 0.01651 0.0
C92 C 0.30651 0.22515 0.01202 0.0
C93 C 0.30509 0.27595 0.01316 0.0
C94 C 0.27657 0.27523 0.00588 0.0
C95 C 0.26284 0.24949 1.00176 0.0
C96 C 0.27803 0.22462 0.00451 0.0
N97 N 0.23396 0.24797 0.99454 0.0
C98 C 0.21638 0.27106 0.99481 0.0
H99 H 0.34395 0.75222 0.00668 0.0
H100 H 0.26613 0.70758 0.01324 0.0
H101 H 0.26601 0.79751 0.00928 0.0
C102 C 0.32118 0.75235 0.00791 0.0
C103 C 0.3067 0.77774 0.00733 0.0
C104 C 0.30663 0.72711 0.01023 0.0
C105 C 0.27722 0.72724 0.01155 0.0
C106 C 0.26242 0.75276 0.0114 0.0
C107 C 0.27734 0.77789 0.00951 0.0
N108 N 0.23268 0.75387 0.0132 0.0
C109 C 0.21593 0.73019 0.01356 0.0
H110 H 0.76282 0.33215 0.98867 0.0
H111 H 0.71823 0.25562 0.00281 0.0
H112 H 0.80875 0.25648 0.00409 0.0
C113 C 0.76305 0.30979 0.99217 0.0
C114 C 0.78879 0.29603 0.99559 0.0
C115 C 0.73759 0.29539 0.99498 0.0
C116 C 0.73795 0.26667 1.00063 0.0
C117 C 0.76371 0.25246 0.00361 0.0
C118 C 0.78896 0.26734 1.00139 0.0
N119 N 0.76496 0.2234 0.0092 0.0
C120 C 0.74145 0.20624 0.0099 0.0
H121 H 0.76412 0.66851 0.00494 0.0
H122 H 0.71851 0.74578 0.00485 0.0
H123 H 0.80905 0.74614 1.00014 0.0
C124 C 0.76404 0.69114 0.00426 0.0
C125 C 0.7895 0.70558 0.00218 0.0
C126 C 0.73848 0.70554 0.00544 0.0
C127 C 0.73838 0.73478 0.00411 0.0
C128 C 0.76394 0.74959 0.00235 0.0
C129 C 0.78939 0.73483 1.00162 0.0
N130 N 0.76481 0.77918 1.00123 0.0
C131 C 0.741 0.79595 1.00166 0.0
H132 H 0.52532 0.75199 0.83848 0.0
H133 H 0.51449 0.79738 0.76257 0.0
H134 H 0.5114 0.70747 0.7623 0.0
C135 C 0.52236 0.75203 0.81618 0.0
C136 C 0.51896 0.72665 0.80215 0.0
C137 C 0.5205 0.77752 0.80208 0.0
C138 C 0.51582 0.77762 0.77337 0.0
C139 C 0.51288 0.75233 0.7588 0.0
C140 C 0.51402 0.72696 0.77341 0.0
N141 N 0.50865 0.75174 0.72961 0.0
C142 C 0.50935 0.77534 0.71274 0.0
H143 H 0.1822 0.4992 0.75803 0.0
H144 H 0.26095 0.49907 0.80133 0.0
H145 H 0.2595 0.5027 0.71202 0.0
C146 C 0.20499 0.49961 0.75761 0.0
C147 C 0.21901 0.50121 0.73215 0.0
C148 C 0.22004 0.49864 0.78253 0.0
C149 C 0.24947 0.49967 0.78195 0.0
C150 C 0.26388 0.501 0.75645 0.0
C151 C 0.24849 0.50152 0.73165 0.0
N152 N 0.29368 0.50195 0.7551 0.0
C153 C 0.31076 0.50192 0.77846 0.0
H154 H 0.51432 0.16821 0.75792 0.0
H155 H 0.51263 0.24529 0.80316 0.0
H156 H 0.51537 0.24614 0.71378 0.0
C157 C 0.51418 0.19084 0.75803 0.0
C158 C 0.51519 0.20537 0.73288 0.0
C159 C 0.51307 0.20515 0.78332 0.0
C160 C 0.51336 0.2344 0.7835 0.0
C161 C 0.51404 0.24938 0.7584 0.0
C162 C 0.5147 0.2347 0.73314 0.0
N163 N 0.51415 0.27907 0.75788 0.0
C164 C 0.51402 0.2957 0.78158 0.0
H165 H 0.7649 0.49905 0.83977 0.0
H166 H 0.81036 0.4978 0.76292 0.0
H167 H 0.71976 0.50127 0.76263 0.0
C168 C 0.76491 0.49912 0.81728 0.0
C169 C 0.73936 0.5005 0.80298 0.0
C170 C 0.79048 0.49792 0.80294 0.0
C171 C 0.79051 0.49855 0.77387 0.0
C172 C 0.76494 0.4996 0.75915 0.0
C173 C 0.73946 0.50032 0.77387 0.0
N174 N 0.76411 0.50005 0.72969 0.0
C175 C 0.78789 0.50011 0.71287 0.0
H176 H 0.51283 0.25035 0.17553 0.0
H177 H 0.51338 0.20482 0.25211 0.0
H178 H 0.51682 0.2948 0.25284 0.0
C179 C 0.51339 0.25025 0.19801 0.0
C180 C 0.5151 0.27556 0.21238 0.0
C181 C 0.51256 0.2248 0.21224 0.0
C182 C 0.51385 0.2246 0.24127 0.0
C183 C 0.51524 0.24987 0.25614 0.0
C184 C 0.5156 0.2753 0.24152 0.0
N185 N 0.51641 0.25039 0.28561 0.0
C186 C 0.51682 0.22659 0.30223 0.0
H187 H 0.76245 0.4997 0.17463 0.0
H188 H 0.80956 0.50032 0.2505 0.0
H189 H 0.71898 0.49585 0.2526 0.0
C190 C 0.76296 0.4993 0.19711 0.0
C191 C 0.73777 0.49741 0.21192 0.0
C192 C 0.78878 0.50057 0.21092 0.0
C193 C 0.78947 0.49953 0.23997 0.0
C194 C 0.76422 0.49798 0.2552 0.0
C195 C 0.73844 0.49716 0.241 0.0
N196 N 0.76401 0.49714 0.28465 0.0
C197 C 0.78813 0.49755 0.30098 0.0
H198 H 0.51596 0.83347 0.25669 0.0
H199 H 0.51393 0.75667 0.21099 0.0
H200 H 0.51801 0.75526 0.30032 0.0
C201 C 0.51593 0.81084 0.25644 0.0
C202 C 0.51737 0.79616 0.28149 0.0
C203 C 0.51449 0.79668 0.23108 0.0
C204 C 0.51492 0.76744 0.2307 0.0
C205 C 0.51605 0.75229 0.25569 0.0
C206 C 0.51702 0.76682 0.28104 0.0
N207 N 0.5163 0.72259 0.25598 0.0
C208 C 0.51591 0.70607 0.23219 0.0
H209 H 0.26238 0.51911 0.17919 0.0
H210 H 0.21851 0.50453 0.2555 0.0
H211 H 0.30905 0.50223 0.25359 0.0
C212 C 0.26285 0.51537 0.20135 0.0
C213 C 0.2887 0.51148 0.21466 0.0
C214 C 0.23754 0.51267 0.21591 0.0
C215 C 0.23815 0.50668 0.24436 0.0
C216 C 0.26404 0.50326 0.25816 0.0
C217 C 0.28915 0.50531 0.24309 0.0
N218 N 0.26553 0.49739 0.28697 0.0
C219 C 0.24222 0.49726 0.30431 0.0
H220 H 0.84367 0.75022 0.51305 0.0
H221 H 0.76532 0.79403 0.51921 0.0
H222 H 0.76627 0.70407 0.51622 0.0
C223 C 0.82091 0.74985 0.5144 0.0
C224 C 0.80673 0.72429 0.51407 0.0
C225 C 0.80607 0.77495 0.51645 0.0
C226 C 0.77665 0.77448 0.51778 0.0
C227 C 0.76216 0.74879 0.51791 0.0
C228 C 0.77738 0.72382 0.5163 0.0
N229 N 0.73242 0.74734 0.51959 0.0
C230 C 0.71534 0.77078 0.51909 0.0
H231 H 0.84342 0.25074 0.48456 0.0
H232 H 0.7659 0.20706 0.49791 0.0
H233 H 0.76714 0.29695 0.49768 0.0
C234 C 0.82084 0.25113 0.48756 0.0
C235 C 0.80702 0.27678 0.49031 0.0
C236 C 0.80616 0.22597 0.4905 0.0
C237 C 0.77714 0.22657 0.49561 0.0
C238 C 0.7629 0.25226 0.49788 0.0
C239 C 0.77802 0.2772 0.49549 0.0
N240 N 0.73355 0.25372 0.50294 0.0
C241 C 0.71648 0.2303 0.50449 0.0
H242 H 0.26304 0.83272 0.50074 0.0
H243 H 0.21823 0.75508 0.49732 0.0
H244 H 0.30885 0.75543 0.50021 0.0
C245 C 0.26321 0.81009 0.50011 0.0
C246 C 0.28886 0.79584 0.50092 0.0
C247 C 0.23779 0.7955 0.49859 0.0
C248 C 0.238 0.76624 0.4983 0.0
C249 C 0.26373 0.75163 0.49868 0.0
C250 C 0.28905 0.7666 0.49972 0.0
N251 N 0.26492 0.72203 0.4981 0.0
C252 C 0.24127 0.70504 0.49876 0.0
H253 H 0.26344 0.16837 0.50415 0.0
H254 H 0.21822 0.24585 0.50207 0.0
H255 H 0.30873 0.24559 0.49695 0.0
C256 C 0.26345 0.19097 0.50287 0.0
C257 C 0.28897 0.20522 0.50028 0.0
C258 C 0.23797 0.20553 0.50374 0.0
C259 C 0.23802 0.23473 0.50158 0.0
C260 C 0.26366 0.24934 0.49927 0.0
C261 C 0.28901 0.23443 0.49885 0.0
N262 N 0.26471 0.27887 0.49725 0.0
C263 C 0.24105 0.29584 0.49771 0.0
C264 C 0.01157 0.93234 0.57385 0.0
C265 C 0.01154 0.9333 0.439 0.0
C266 C 0.01192 0.06762 0.57518 0.0
C267 C 0.0119 0.06847 0.44024 0.0
C268 C 0.94324 0.06801 0.50557 0.0
C269 C 0.94271 0.93351 0.50701 0.0
C270 C 0.07935 0.06805 0.50723 0.0
C271 C 0.07882 0.9323 0.50651 0.0
C272 C 0.07987 0.00043 0.44001 0.0
C273 C 0.94392 0.00076 0.43949 0.0
C274 C 0.07927 0.99995 0.57462 0.0
C275 C 0.94356 0.99935 0.57418 0.0
Eu276 Eu 0.01102 0.94752 0.50646 0.0
O277 O 0.98633 0.9759 0.482 0.0
O278 O 0.03619 0.97526 0.53137 0.0
Eu279 Eu 0.95829 0.00071 0.50687 0.0
Eu280 Eu 0.06471 1.00021 0.50724 0.0
O281 O 0.98638 0.97561 0.53127 0.0
O282 O 0.03648 0.97565 0.48234 0.0
Eu283 Eu 0.01141 1.00001 0.55935 0.0
Eu284 Eu 0.01182 0.00082 0.45474 0.0
O285 O 0.98625 0.02538 0.53207 0.0
O286 O 0.98681 0.0255 0.48264 0.0
O287 O 0.0365 0.02543 0.48297 0.0
O288 O 0.03642 0.02502 0.53187 0.0
Eu289 Eu 0.0114 0.05344 0.50765 0.0
O290 O 0.01062 0.92391 0.54743 0.0
O291 O 0.01133 0.92442 0.46526 0.0
O292 O 0.01191 0.07649 0.5489 0.0
O293 O 0.01124 0.07694 0.46665 0.0
O294 O 0.93474 0.04152 0.5052 0.0
O295 O 0.93437 0.96005 0.50779 0.0
O296 O 0.08802 0.04154 0.50638 0.0
O297 O 0.08771 0.95872 0.50778 0.0
O298 O 0.0532 0.00142 0.43155 0.0
O299 O 0.97072 0.00085 0.43139 0.0
O300 O 0.05252 0.9993 0.58284 0.0
O301 O 0.97026 0.99851 0.58249 0.0
O302 O 0.0527 0.07662 0.5081 0.0
O303 O 0.96987 0.07667 0.50713 0.0
O304 O 0.0521 0.92398 0.5056 0.0
O305 O 0.9693 0.92466 0.5059 0.0
O306 O 0.01175 0.95999 0.43104 0.0
O307 O 0.0124 0.04198 0.43173 0.0
O308 O 0.01228 0.95883 0.58235 0.0
O309 O 0.01153 0.04091 0.5831 0.0
O310 O 0.93485 0.00095 0.54789 0.0
O311 O 0.93495 0.00073 0.46573 0.0
O312 O 0.08808 0.0008 0.54833 0.0
O313 O 0.08842 0.9994 0.46637 0.0
C314 C 0.51398 0.93198 0.07276 0.0
C315 C 0.51411 0.06698 0.07611 0.0
C316 C 0.51474 0.93518 0.93854 0.0
C317 C 0.51527 0.07031 0.94193 0.0
C318 C 0.58292 0.00235 0.94085 0.0
C319 C 0.5817 0.99892 0.07486 0.0
C320 C 0.44644 0.0031 0.93959 0.0
C321 C 0.44535 0.99979 0.07396 0.0
C322 C 0.44659 0.06889 0.00927 0.0
C323 C 0.58294 0.06804 0.00908 0.0
C324 C 0.44549 0.9344 0.00547 0.0
C325 C 0.58178 0.93303 0.0067 0.0
Eu326 Eu 0.51364 0.99995 0.05978 0.0
O327 O 0.53911 0.02523 0.03283 0.0
O328 O 0.4888 0.97584 0.03124 0.0
Eu329 Eu 0.56707 0.00063 0.00779 0.0
Eu330 Eu 0.4612 0.0015 0.0069 0.0
O331 O 0.53851 0.97554 0.03156 0.0
O332 O 0.48925 0.0256 0.03228 0.0
Eu333 Eu 0.51372 0.94822 0.0061 0.0
Eu334 Eu 0.51464 0.05396 0.00856 0.0
O335 O 0.53905 0.97661 0.98225 0.0
O336 O 0.53943 0.02625 0.98344 0.0
O337 O 0.48969 0.02671 0.98299 0.0
O338 O 0.48928 0.97701 0.98181 0.0
Eu339 Eu 0.51462 0.00232 0.95475 0.0
O340 O 0.51444 0.95829 0.08182 0.0
O341 O 0.513 0.04033 0.08399 0.0
O342 O 0.51577 0.96184 0.93065 0.0
O343 O 0.51567 0.04402 0.93282 0.0
O344 O 0.59102 0.00108 0.9673 0.0
O345 O 0.59041 0.99878 0.04858 0.0
O346 O 0.43793 0.00314 0.96596 0.0
O347 O 0.43717 0.99996 0.04748 0.0
O348 O 0.4733 0.07741 0.00903 0.0
O349 O 0.55633 0.07694 0.00898 0.0
O350 O 0.47204 0.92547 0.00617 0.0
O351 O 0.55506 0.92451 0.00575 0.0
O352 O 0.47321 0.00262 0.9312 0.0
O353 O 0.55633 0.00321 0.932 0.0
O354 O 0.47197 0.99987 0.08274 0.0
O355 O 0.55495 0.99984 0.0832 0.0
O356 O 0.5152 0.07615 0.05 0.0
O357 O 0.51445 0.07834 0.9684 0.0
O358 O 0.51324 0.9239 0.04631 0.0
O359 O 0.51337 0.92604 0.96465 0.0
O360 O 0.5903 0.95952 0.00757 0.0
O361 O 0.59101 0.04137 0.00882 0.0
O362 O 0.4372 0.96095 0.00509 0.0
O363 O 0.43791 0.04245 0.00879 0.0
C364 C 0.01418 0.43258 0.07451 0.0
C365 C 0.01717 0.43279 0.94014 0.0
C366 C 0.01501 0.56835 0.07446 0.0
C367 C 0.01688 0.56845 0.94015 0.0
C368 C 0.94862 0.56867 0.00651 0.0
C369 C 0.94772 0.4334 0.00466 0.0
C370 C 0.08437 0.56768 0.00791 0.0
C371 C 0.08343 0.43233 0.00828 0.0
C372 C 0.08594 0.5008 0.94222 0.0
C373 C 0.94976 0.50091 0.9388 0.0
C374 C 0.0822 0.502 0.07649 0.0
C375 C 0.94674 0.50074 0.07335 0.0
Eu376 Eu 0.01564 0.44796 0.00733 0.0
O377 O 0.99159 0.47624 0.98226 0.0
O378 O 0.0404 0.47546 0.03282 0.0
Eu379 Eu 0.96286 0.50092 0.00641 0.0
Eu380 Eu 0.06936 0.50009 0.00882 0.0
O381 O 0.99022 0.47586 0.03165 0.0
O382 O 0.04152 0.47567 0.98332 0.0
Eu383 Eu 0.01481 0.50049 0.05993 0.0
Eu384 Eu 0.01744 0.50063 0.95488 0.0
O385 O 0.99068 0.52553 0.03159 0.0
O386 O 0.99182 0.52539 0.98222 0.0
O387 O 0.04189 0.5251 0.98343 0.0
O388 O 0.04051 0.52504 0.03257 0.0
Eu389 Eu 0.01636 0.55319 0.00735 0.0
O390 O 0.01416 0.42441 0.04804 0.0
O391 O 0.01577 0.42439 0.9665 0.0
O392 O 0.01666 0.57676 0.04813 0.0
O393 O 0.01634 0.57669 0.96658 0.0
O394 O 0.93972 0.54225 0.00703 0.0
O395 O 0.93916 0.45992 0.00523 0.0
O396 O 0.09309 0.54121 0.00922 0.0
O397 O 0.0925 0.4587 0.00858 0.0
O398 O 0.05949 0.50165 0.93308 0.0
O399 O 0.9766 0.49977 0.93086 0.0
O400 O 0.05529 0.50231 0.08416 0.0
O401 O 0.97323 0.50113 0.08229 0.0
O402 O 0.0577 0.57609 0.00685 0.0
O403 O 0.97536 0.57696 0.00627 0.0
O404 O 0.05661 0.42428 0.00802 0.0
O405 O 0.97435 0.42477 0.00522 0.0
O406 O 0.0185 0.45933 0.93171 0.0
O407 O 0.01753 0.54193 0.93156 0.0
O408 O 0.01466 0.4591 0.08313 0.0
O409 O 0.0136 0.54184 0.08295 0.0
O410 O 0.93854 0.50017 0.04688 0.0
O411 O 0.94054 0.50201 0.96493 0.0
O412 O 0.09163 0.50054 0.05044 0.0
O413 O 0.09397 0.49969 0.96869 0.0
C414 C 0.51171 0.43313 0.07421 0.0
C415 C 0.51182 0.56835 0.07441 0.0
C416 C 0.51106 0.43321 0.93932 0.0
C417 C 0.51217 0.56843 0.93955 0.0
C418 C 0.57963 0.50025 0.93951 0.0
C419 C 0.57973 0.50026 0.0741 0.0
C420 C 0.44369 0.50009 0.93964 0.0
C421 C 0.44415 0.50221 0.07436 0.0
C422 C 0.44341 0.5683 0.00682 0.0
C423 C 0.57955 0.56833 0.0067 0.0
C424 C 0.44285 0.43373 0.00825 0.0
C425 C 0.579 0.43264 0.00542 0.0
Eu426 Eu 0.51185 0.50069 0.05909 0.0
O427 O 0.53676 0.52558 0.03139 0.0
O428 O 0.48652 0.47595 0.0315 0.0
Eu429 Eu 0.56484 0.50054 0.00682 0.0
Eu430 Eu 0.45839 0.50096 0.00698 0.0
O431 O 0.53654 0.47562 0.03127 0.0
O432 O 0.48677 0.52565 0.03151 0.0
Eu433 Eu 0.51114 0.44777 0.00674 0.0
Eu434 Eu 0.5116 0.55375 0.00697 0.0
O435 O 0.53631 0.4759 0.98234 0.0
O436 O 0.53659 0.52558 0.9824 0.0
O437 O 0.48661 0.52577 0.98227 0.0
O438 O 0.48642 0.47606 0.9822 0.0
Eu439 Eu 0.51164 0.50086 0.95456 0.0
O440 O 0.51206 0.4597 0.08252 0.0
O441 O 0.51208 0.54171 0.08251 0.0
O442 O 0.51143 0.45984 0.93119 0.0
O443 O 0.51225 0.54187 0.9312 0.0
O444 O 0.5883 0.49961 0.96585 0.0
O445 O 0.58844 0.50092 0.04778 0.0
O446 O 0.43482 0.5006 0.96593 0.0
O447 O 0.43524 0.50163 0.04811 0.0
O448 O 0.47009 0.57693 0.00631 0.0
O449 O 0.55291 0.57692 0.00754 0.0
O450 O 0.46945 0.42491 0.00708 0.0
O451 O 0.55226 0.42429 0.00522 0.0
O452 O 0.47045 0.50025 0.93145 0.0
O453 O 0.55291 0.50105 0.93116 0.0
O454 O 0.47089 0.50189 0.08257 0.0
O455 O 0.55302 0.4999 0.08242 0.0
O456 O 0.51161 0.57709 0.04809 0.0
O457 O 0.51176 0.57704 0.9659 0.0
O458 O 0.51117 0.42448 0.04786 0.0
O459 O 0.51089 0.42446 0.96564 0.0
O460 O 0.58786 0.45908 0.00659 0.0
O461 O 0.5882 0.54181 0.00586 0.0
O462 O 0.43452 0.46029 0.00855 0.0
O463 O 0.43482 0.54183 0.00742 0.0
C464 C 0.01325 0.43119 0.57197 0.0
C465 C 0.01479 0.43508 0.43777 0.0
C466 C 0.01387 0.56614 0.57582 0.0
C467 C 0.01446 0.57014 0.44161 0.0
C468 C 0.94562 0.56757 0.50879 0.0
C469 C 0.94626 0.43315 0.5026 0.0
C470 C 0.08191 0.56844 0.50817 0.0
C471 C 0.08243 0.43344 0.50575 0.0
C472 C 0.0828 0.50207 0.44037 0.0
C473 C 0.94637 0.5025 0.43895 0.0
C474 C 0.08148 0.49953 0.57434 0.0
C475 C 0.94509 0.4987 0.57328 0.0
Eu476 Eu 0.01427 0.44784 0.50535 0.0
O477 O 0.98953 0.47645 0.4812 0.0
O478 O 0.03883 0.47522 0.53107 0.0
Eu479 Eu 0.96105 0.50043 0.50619 0.0
Eu480 Eu 0.06694 0.50091 0.50731 0.0
O481 O 0.98884 0.47496 0.53057 0.0
O482 O 0.03922 0.47669 0.48167 0.0
Eu483 Eu 0.01342 0.49914 0.55923 0.0
Eu484 Eu 0.01447 0.50207 0.45419 0.0
O485 O 0.98883 0.52466 0.53175 0.0
O486 O 0.98923 0.52613 0.48245 0.0
O487 O 0.03899 0.52622 0.48298 0.0
O488 O 0.03851 0.52492 0.53238 0.0
Eu489 Eu 0.01384 0.55352 0.50818 0.0
O490 O 0.01308 0.42325 0.54545 0.0
O491 O 0.01548 0.42583 0.46386 0.0
O492 O 0.01489 0.57544 0.54975 0.0
O493 O 0.01293 0.57803 0.46809 0.0
O494 O 0.93725 0.5411 0.50702 0.0
O495 O 0.93764 0.4596 0.5032 0.0
O496 O 0.09038 0.54191 0.50855 0.0
O497 O 0.0907 0.46002 0.50689 0.0
O498 O 0.05623 0.50165 0.43146 0.0
O499 O 0.97314 0.50248 0.43057 0.0
O500 O 0.05474 0.49837 0.58267 0.0
O501 O 0.97172 0.49887 0.58207 0.0
O502 O 0.05523 0.57706 0.5076 0.0
O503 O 0.97222 0.57637 0.5099 0.0
O504 O 0.05581 0.42466 0.50496 0.0
O505 O 0.97291 0.42452 0.50357 0.0
O506 O 0.01389 0.46174 0.42991 0.0
O507 O 0.01567 0.54388 0.43244 0.0
O508 O 0.01363 0.45746 0.58112 0.0
O509 O 0.01278 0.53945 0.5836 0.0
O510 O 0.93696 0.49884 0.54678 0.0
O511 O 0.93779 0.50209 0.46528 0.0
O512 O 0.09023 0.50088 0.54813 0.0
O513 O 0.09091 0.50218 0.46685 0.0
C514 C 0.51359 0.93245 0.57411 0.0
C515 C 0.5171 0.93328 0.43983 0.0
C516 C 0.5146 0.06817 0.57476 0.0
C517 C 0.5171 0.06895 0.44048 0.0
C518 C 0.44813 0.06843 0.50629 0.0
C519 C 0.44795 0.93308 0.5047 0.0
C520 C 0.58385 0.06833 0.5099 0.0
C521 C 0.58362 0.93299 0.50857 0.0
C522 C 0.58578 1.0003 0.44215 0.0
C523 C 0.4497 0.00168 0.43853 0.0
C524 C 0.5818 0.99871 0.57656 0.0
C525 C 0.44634 0.00078 0.57304 0.0
Eu526 Eu 0.51576 0.9481 0.50703 0.0
O527 O 0.49149 0.97622 0.48193 0.0
O528 O 0.54016 0.9758 0.53249 0.0
Eu529 Eu 0.46264 0.00074 0.50613 0.0
Eu530 Eu 0.56919 0.00064 0.50885 0.0
O531 O 0.4901 0.97576 0.53137 0.0
O532 O 0.54148 0.97618 0.48325 0.0
Eu533 Eu 0.51448 1.00035 0.55985 0.0
Eu534 Eu 0.51727 0.00104 0.45485 0.0
O535 O 0.49032 0.02534 0.53152 0.0
O536 O 0.4916 0.02554 0.4823 0.0
O537 O 0.54168 0.02562 0.48345 0.0
O538 O 0.54028 0.0253 0.53288 0.0
Eu539 Eu 0.51596 0.05333 0.50762 0.0
O540 O 0.51453 0.92433 0.54764 0.0
O541 O 0.51695 0.92471 0.46616 0.0
O542 O 0.51535 0.07672 0.54845 0.0
O543 O 0.51647 0.07707 0.46696 0.0
O544 O 0.43934 0.04197 0.50677 0.0
O545 O 0.43925 0.95957 0.50405 0.0
O546 O 0.59274 0.04189 0.5096 0.0
O547 O 0.59255 0.95938 0.50975 0.0
O548 O 0.55931 0.0011 0.43302 0.0
O549 O 0.47656 0.00081 0.43066 0.0
O550 O 0.55489 0.99865 0.58418 0.0
O551 O 0.47281 0.00141 0.58204 0.0
O552 O 0.5571 0.07656 0.50919 0.0
O553 O 0.47483 0.07685 0.50622 0.0
O554 O 0.5569 0.92476 0.50732 0.0
O555 O 0.4746 0.92463 0.50613 0.0
O556 O 0.51707 0.95986 0.43145 0.0
O557 O 0.51771 0.04247 0.43177 0.0
O558 O 0.51336 0.95893 0.58284 0.0
O559 O 0.51411 0.04159 0.58317 0.0
O560 O 0.43821 0.99982 0.54655 0.0
O561 O 0.4404 0.00227 0.46464 0.0
O562 O 0.59131 0.99993 0.55053 0.0
O563 O 0.59379 0.99973 0.46866 0.0
C564 C 0.2085 0.17062 0.52839 0.0
C565 C 0.21155 0.18966 0.50659 0.0
C566 C 0.18539 0.15258 0.52953 0.0
C567 C 0.16514 0.15334 0.50806 0.0
C568 C 0.16754 0.17333 0.48657 0.0
C569 C 0.19071 0.19147 0.4862 0.0
C570 C 0.18329 0.13192 0.55307 0.0
C571 C 0.14648 0.17456 0.4632 0.0
C572 C 0.12722 0.08509 0.49465 0.0
C573 C 0.10113 0.08997 0.50717 0.0
C574 C 0.14798 0.10584 0.49423 0.0
C575 C 0.14268 0.13186 0.50715 0.0
C576 C 0.1164 0.13687 0.51991 0.0
C577 C 0.09581 0.11593 0.51955 0.0
C578 C 0.17564 0.09986 0.48008 0.0
C579 C 0.1102 0.16414 0.53435 0.0
H580 H 0.22464 0.16943 0.54421 0.0
H581 H 0.19328 0.2061 0.46925 0.0
H582 H 0.1621 0.1328 0.56262 0.0
H583 H 0.18631 0.11045 0.54502 0.0
H584 H 0.19926 0.13583 0.56941 0.0
H585 H 0.15015 0.19265 0.44928 0.0
H586 H 0.14781 0.15514 0.45075 0.0
H587 H 0.1248 0.17587 0.47154 0.0
H588 H 0.13129 0.06516 0.48482 0.0
H589 H 0.07572 0.1197 0.52946 0.0
H590 H 0.19296 0.10061 0.49545 0.0
H591 H 0.18003 0.11606 0.46424 0.0
H592 H 0.1759 0.07909 0.46985 0.0
H593 H 0.12544 0.16745 0.55144 0.0
H594 H 0.0886 0.16481 0.54307 0.0
H595 H 0.11272 0.18176 0.51966 0.0
C596 C 0.81951 0.18073 0.51241 0.0
C597 C 0.82192 0.19939 0.49019 0.0
C598 C 0.83752 0.15766 0.5146 0.0
C599 C 0.85813 0.15313 0.49393 0.0
C600 C 0.85956 0.17105 0.47066 0.0
C601 C 0.84151 0.1941 0.46917 0.0
C602 C 0.83551 0.13908 0.53978 0.0
C603 C 0.88096 0.16661 0.44797 0.0
C604 C 0.92595 0.11657 0.51338 0.0
C605 C 0.92119 0.08956 0.50334 0.0
C606 C 0.90534 0.1373 0.51088 0.0
C607 C 0.87957 0.13095 0.4976 0.0
C608 C 0.87465 0.10373 0.48739 0.0
C609 C 0.89545 0.08327 0.49058 0.0
C610 C 0.9112 0.16606 0.52231 0.0
C611 C 0.84764 0.09635 0.47268 0.0
H612 H 0.80453 0.18499 0.5288 0.0
H613 H 0.84319 0.20846 0.45189 0.0
H614 H 0.83431 0.11686 0.53348 0.0
H615 H 0.85472 0.14154 0.5526 0.0
H616 H 0.81692 0.14408 0.5528 0.0
H617 H 0.87754 0.18081 0.4301 0.0
H618 H 0.90239 0.17031 0.45626 0.0
H619 H 0.88021 0.14474 0.44047 0.0
H620 H 0.94574 0.12147 0.5234 0.0
H621 H 0.89178 0.06249 0.48248 0.0
H622 H 0.89452 0.17209 0.53722 0.0
H623 H 0.91093 0.18159 0.50527 0.0
H624 H 0.93186 0.16728 0.53296 0.0
H625 H 0.82939 0.10065 0.48633 0.0
H626 H 0.84696 0.07408 0.46629 0.0
H627 H 0.84519 0.10954 0.45395 0.0
C628 C 0.81805 0.82136 0.49628 0.0
C629 C 0.82185 0.80141 0.51711 0.0
C630 C 0.83592 0.8446 0.49448 0.0
C631 C 0.85764 0.84799 0.51428 0.0
C632 C 0.86048 0.82861 0.53622 0.0
C633 C 0.84267 0.80538 0.53721 0.0
C634 C 0.83249 0.86468 0.47062 0.0
C635 C 0.88303 0.83178 0.55803 0.0
C636 C 0.92481 0.886 0.4955 0.0
C637 C 0.9205 0.91206 0.5079 0.0
C638 C 0.90406 0.86528 0.49665 0.0
C639 C 0.8787 0.8706 0.51109 0.0
C640 C 0.87419 0.89694 0.52354 0.0
C641 C 0.89507 0.91749 0.52155 0.0
C642 C 0.90945 0.83755 0.48274 0.0
C643 C 0.84768 0.90314 0.53961 0.0
H644 H 0.80201 0.81804 0.48065 0.0
H645 H 0.84541 0.78989 0.55337 0.0
H646 H 0.83147 0.88646 0.47834 0.0
H647 H 0.85104 0.86321 0.45676 0.0
H648 H 0.8133 0.86031 0.45826 0.0
H649 H 0.88072 0.81637 0.57507 0.0
H650 H 0.90402 0.82894 0.54844 0.0
H651 H 0.88245 0.85308 0.56702 0.0
H652 H 0.94435 0.88186 0.4847 0.0
H653 H 0.89178 0.93757 0.53138 0.0
H654 H 0.89196 0.83245 0.4684 0.0
H655 H 0.91034 0.82078 0.49856 0.0
H656 H 0.92945 0.83741 0.47088 0.0
H657 H 0.82895 0.89941 0.52644 0.0
H658 H 0.84703 0.92499 0.54729 0.0
H659 H 0.84612 0.88885 0.55763 0.0
C660 C 0.20758 0.83194 0.47727 0.0
C661 C 0.21125 0.81139 0.49757 0.0
C662 C 0.18435 0.84985 0.47796 0.0
C663 C 0.16463 0.8474 0.49977 0.0
C664 C 0.16768 0.82595 0.51975 0.0
C665 C 0.19095 0.80799 0.51828 0.0
C666 C 0.18154 0.87212 0.45597 0.0
C667 C 0.14721 0.8229 0.54345 0.0
C668 C 0.12664 0.91443 0.51807 0.0
C669 C 0.10042 0.91025 0.50558 0.0
C670 C 0.14743 0.89373 0.51703 0.0
C671 C 0.14201 0.86853 0.50264 0.0
C672 C 0.11553 0.86417 0.49003 0.0
C673 C 0.09492 0.88501 0.49189 0.0
C674 C 0.1753 0.89896 0.53108 0.0
C675 C 0.1092 0.83784 0.47402 0.0
H676 H 0.22332 0.83438 0.4612 0.0
H677 H 0.19401 0.79218 0.53406 0.0
H678 H 0.16016 0.87168 0.44682 0.0
H679 H 0.18452 0.893 0.46545 0.0
H680 H 0.19719 0.86956 0.43908 0.0
H681 H 0.15136 0.80391 0.55601 0.0
H682 H 0.14871 0.84142 0.55718 0.0
H683 H 0.12535 0.82199 0.53556 0.0
H684 H 0.13084 0.93382 0.52888 0.0
H685 H 0.07472 0.88181 0.48199 0.0
H686 H 0.1923 0.89957 0.51537 0.0
H687 H 0.18019 0.88167 0.54558 0.0
H688 H 0.17553 0.91891 0.54279 0.0
H689 H 0.12392 0.83592 0.45629 0.0
H690 H 0.08735 0.83746 0.46593 0.0
H691 H 0.11241 0.8193 0.48741 0.0
C692 C 0.53136 0.178 0.19914 0.0
C693 C 0.5107 0.19858 0.19629 0.0
C694 C 0.5318 0.15475 0.18144 0.0
C695 C 0.5108 0.152 0.16081 0.0
C696 C 0.48903 0.17203 0.15891 0.0
C697 C 0.48939 0.19524 0.17655 0.0
C698 C 0.5555 0.13397 0.18385 0.0
C699 C 0.466 0.16957 0.13751 0.0
C700 C 0.52701 0.11409 0.09381 0.0
C701 C 0.51403 0.08825 0.0982 0.0
C702 C 0.52678 0.13471 0.11439 0.0
C703 C 0.51273 0.12951 0.13974 0.0
C704 C 0.49969 0.10339 0.14436 0.0
C705 C 0.50073 0.08292 0.12359 0.0
C706 C 0.5413 0.16217 0.10885 0.0
C707 C 0.48408 0.09731 0.17092 0.0
H708 H 0.54791 0.18077 0.21434 0.0
H709 H 0.47331 0.21114 0.17457 0.0
H710 H 0.5471 0.11242 0.18502 0.0
H711 H 0.56892 0.13515 0.16508 0.0
H712 H 0.56884 0.13787 0.20235 0.0
H713 H 0.44922 0.18539 0.14055 0.0
H714 H 0.47499 0.17233 0.11648 0.0
H715 H 0.45638 0.1485 0.13828 0.0
H716 H 0.53759 0.11814 0.07431 0.0
H717 H 0.49049 0.063 0.12696 0.0
H718 H 0.55658 0.16676 0.12562 0.0
H719 H 0.52563 0.17931 0.10872 0.0
H720 H 0.55261 0.16227 0.08871 0.0
H721 H 0.49818 0.10031 0.18898 0.0
H722 H 0.47559 0.07573 0.1715 0.0
H723 H 0.46636 0.11217 0.17329 0.0
C724 C 0.83536 0.48193 0.19613 0.0
C725 C 0.81477 0.5027 0.19442 0.0
C726 C 0.85812 0.48168 0.17763 0.0
C727 C 0.86039 0.50297 0.15737 0.0
C728 C 0.84032 0.52474 0.15655 0.0
C729 C 0.81759 0.52419 0.17496 0.0
C730 C 0.87899 0.458 0.17891 0.0
C731 C 0.84232 0.54808 0.13562 0.0
C732 C 0.92986 0.51388 0.12047 0.0
C733 C 0.92468 0.50113 0.09481 0.0
C734 C 0.90915 0.51459 0.14111 0.0
C735 C 0.88286 0.50179 0.13609 0.0
C736 C 0.87765 0.48856 0.11034 0.0
C737 C 0.89856 0.48864 0.08986 0.0
C738 C 0.91524 0.52941 0.16807 0.0
C739 C 0.84997 0.47435 0.10439 0.0
H740 H 0.83292 0.46522 0.21107 0.0
H741 H 0.80161 0.54029 0.17382 0.0
H742 H 0.8777 0.44551 0.15958 0.0
H743 H 0.90071 0.46625 0.18035 0.0
H744 H 0.87514 0.44397 0.19683 0.0
H745 H 0.8263 0.56455 0.13922 0.0
H746 H 0.86348 0.55777 0.13635 0.0
H747 H 0.83936 0.5396 0.11443 0.0
H748 H 0.94998 0.52379 0.12426 0.0
H749 H 0.89461 0.47855 0.07013 0.0
H750 H 0.91229 0.51494 0.18576 0.0
H751 H 0.90023 0.5469 0.17091 0.0
H752 H 0.93696 0.53788 0.16886 0.0
H753 H 0.84545 0.45857 0.12061 0.0
H754 H 0.84979 0.46387 0.08385 0.0
H755 H 0.8327 0.48988 0.10492 0.0
C756 C 0.49177 0.83321 0.2021 0.0
C757 C 0.51265 0.81286 0.2051 0.0
C758 C 0.49118 0.85065 0.17882 0.0
C759 C 0.51231 0.84792 0.15835 0.0
C760 C 0.53293 0.82676 0.16085 0.0
C761 C 0.53271 0.80927 0.18418 0.0
C762 C 0.46856 0.87264 0.17665 0.0
C763 C 0.55599 0.8235 0.13962 0.0
C764 C 0.50071 0.88445 0.08945 0.0
C765 C 0.51444 0.90991 0.09402 0.0
C766 C 0.50006 0.86383 0.11009 0.0
C767 C 0.51399 0.86867 0.13557 0.0
C768 C 0.5286 0.89403 0.13991 0.0
C769 C 0.52837 0.91448 0.11918 0.0
C770 C 0.48384 0.83726 0.10496 0.0
C771 C 0.54414 0.89977 0.16661 0.0
H772 H 0.47613 0.83574 0.21825 0.0
H773 H 0.54893 0.79358 0.18668 0.0
H774 H 0.47809 0.89366 0.17866 0.0
H775 H 0.45825 0.87163 0.15605 0.0
H776 H 0.45224 0.87029 0.19295 0.0
H777 H 0.56913 0.80474 0.14351 0.0
H778 H 0.54696 0.822 0.11849 0.0
H779 H 0.56975 0.84219 0.14002 0.0
H780 H 0.48978 0.88097 0.07004 0.0
H781 H 0.5393 0.93403 0.1226 0.0
H782 H 0.46631 0.83563 0.12003 0.0
H783 H 0.4976 0.81887 0.10818 0.0
H784 H 0.475 0.83632 0.08366 0.0
H785 H 0.52904 0.90065 0.18409 0.0
H786 H 0.55596 0.91975 0.16595 0.0
H787 H 0.55913 0.8826 0.17104 0.0
C788 C 0.20584 0.53603 0.18195 0.0
C789 C 0.21078 0.51401 0.20041 0.0
C790 C 0.18306 0.53528 0.16357 0.0
C791 C 0.16508 0.51176 0.1635 0.0
C792 C 0.16912 0.49015 0.1831 0.0
C793 C 0.19192 0.49162 0.20149 0.0
C794 C 0.17913 0.55896 0.1433 0.0
C795 C 0.15044 0.4647 0.18354 0.0
C796 C 0.09602 0.51599 0.12445 0.0
C797 C 0.10327 0.50401 0.09888 0.0
C798 C 0.11589 0.51868 0.14573 0.0
C799 C 0.14354 0.50877 0.14145 0.0
C800 C 0.15091 0.49637 0.11581 0.0
C801 C 0.13073 0.49434 0.09474 0.0
C802 C 0.10743 0.53247 0.17262 0.0
C803 C 0.18016 0.48531 0.1106 0.0
H804 H 0.2204 0.55342 0.18129 0.0
H805 H 0.19593 0.47447 0.2156 0.0
H806 H 0.18382 0.55157 0.122 0.0
H807 H 0.157 0.56623 0.14347 0.0
H808 H 0.19306 0.57695 0.14799 0.0
H809 H 0.15483 0.45101 0.2016 0.0
H810 H 0.12801 0.47093 0.18409 0.0
H811 H 0.15372 0.45245 0.16429 0.0
H812 H 0.07489 0.52381 0.12769 0.0
H813 H 0.1364 0.48492 0.07509 0.0
H814 H 0.12067 0.55116 0.1763 0.0
H815 H 0.111 0.518 0.1902 0.0
H816 H 0.08502 0.53896 0.17267 0.0
H817 H 0.19564 0.50254 0.11215 0.0
H818 H 0.18222 0.47547 0.08985 0.0
H819 H 0.18573 0.46965 0.12662 0.0
C820 C 0.50026 0.8235 0.81591 0.0
C821 C 0.52196 0.80386 0.81797 0.0
C822 C 0.4993 0.84661 0.83374 0.0
C823 C 0.52074 0.85022 0.85377 0.0
C824 C 0.54348 0.83122 0.85488 0.0
C825 C 0.54371 0.80812 0.83707 0.0
C826 C 0.47458 0.86629 0.83213 0.0
C827 C 0.56697 0.83462 0.87566 0.0
C828 C 0.52809 0.91973 0.89083 0.0
C829 C 0.5155 0.91385 0.91646 0.0
C830 C 0.52986 0.89928 0.87009 0.0
C831 C 0.51833 0.87252 0.875 0.0
C832 C 0.50507 0.86667 0.90061 0.0
C833 C 0.50403 0.88734 0.92113 0.0
C834 C 0.54454 0.9061 0.8432 0.0
C835 C 0.49216 0.83848 0.90646 0.0
H836 H 0.48332 0.82003 0.80129 0.0
H837 H 0.56059 0.79299 0.83847 0.0
H838 H 0.46176 0.86437 0.85125 0.0
H839 H 0.48192 0.88822 0.83088 0.0
H840 H 0.46092 0.8619 0.81398 0.0
H841 H 0.58437 0.8196 0.87206 0.0
H842 H 0.57557 0.85612 0.87478 0.0
H843 H 0.55871 0.83134 0.89691 0.0
H844 H 0.53719 0.94014 0.8872 0.0
H845 H 0.49403 0.88277 0.9408 0.0
H846 H 0.5302 0.90239 0.82545 0.0
H847 H 0.56292 0.89214 0.84043 0.0
H848 H 0.5519 0.92808 0.84244 0.0
H849 H 0.47661 0.8332 0.89015 0.0
H850 H 0.48152 0.83774 0.92694 0.0
H851 H 0.50868 0.82216 0.90601 0.0
C852 C 0.20887 0.51696 0.82971 0.0
C853 C 0.20459 0.49693 0.80901 0.0
C854 C 0.19177 0.51753 0.8534 0.0
C855 C 0.17026 0.49733 0.85646 0.0
C856 C 0.16694 0.47616 0.83627 0.0
C857 C 0.18404 0.47635 0.81266 0.0
C858 C 0.1957 0.54058 0.87436 0.0
C859 C 0.14455 0.45399 0.83902 0.0
C860 C 0.1337 0.48712 0.92565 0.0
C861 C 0.10822 0.50104 0.92103 0.0
C862 C 0.15439 0.48602 0.90496 0.0
C863 C 0.1496 0.49965 0.87936 0.0
C864 C 0.12425 0.51448 0.87499 0.0
C865 C 0.10374 0.51475 0.89579 0.0
C866 C 0.18095 0.4696 0.91014 0.0
C867 C 0.11854 0.52967 0.84814 0.0
H868 H 0.22471 0.53294 0.82674 0.0
H869 H 0.18099 0.46072 0.79669 0.0
H870 H 0.17723 0.5547 0.87385 0.0
H871 H 0.19706 0.53184 0.8956 0.0
H872 H 0.21489 0.5531 0.87024 0.0
H873 H 0.14657 0.4375 0.82296 0.0
H874 H 0.14563 0.44409 0.85977 0.0
H875 H 0.12347 0.46368 0.83704 0.0
H876 H 0.13711 0.47635 0.94513 0.0
H877 H 0.08417 0.52581 0.89232 0.0
H878 H 0.19965 0.48296 0.90664 0.0
H879 H 0.18225 0.45198 0.89528 0.0
H880 H 0.18189 0.46109 0.93154 0.0
H881 H 0.13603 0.54421 0.8434 0.0
H882 H 0.09861 0.54173 0.84879 0.0
H883 H 0.11727 0.51446 0.83085 0.0
C884 C 0.53216 0.19292 0.82997 0.0
C885 C 0.51176 0.18911 0.80941 0.0
C886 C 0.53293 0.1755 0.85334 0.0
C887 C 0.51252 0.15418 0.85625 0.0
C888 C 0.49106 0.15123 0.83615 0.0
C889 C 0.4911 0.16861 0.81282 0.0
C890 C 0.55632 0.17901 0.87419 0.0
C891 C 0.46866 0.12907 0.83875 0.0
C892 C 0.5294 0.08785 0.89545 0.0
C893 C 0.51568 0.09242 0.92072 0.0
C894 C 0.52935 0.10825 0.87468 0.0
C895 C 0.51469 0.13357 0.8791 0.0
C896 C 0.50104 0.13844 0.90472 0.0
C897 C 0.50195 0.11786 0.92539 0.0
C898 C 0.54459 0.10248 0.84781 0.0
C899 C 0.48479 0.16497 0.90997 0.0
H900 H 0.54821 0.20872 0.82715 0.0
H901 H 0.4752 0.1659 0.79694 0.0
H902 H 0.54762 0.18051 0.89546 0.0
H903 H 0.57021 0.16042 0.87363 0.0
H904 H 0.56924 0.19785 0.87002 0.0
H905 H 0.45209 0.13119 0.82267 0.0
H906 H 0.47834 0.10811 0.83673 0.0
H907 H 0.45864 0.13011 0.85949 0.0
H908 H 0.54033 0.06831 0.89194 0.0
H909 H 0.49118 0.12134 0.94489 0.0
H910 H 0.55935 0.11974 0.84307 0.0
H911 H 0.52925 0.10133 0.83054 0.0
H912 H 0.5566 0.0826 0.84845 0.0
H913 H 0.49845 0.18339 0.90656 0.0
H914 H 0.47617 0.16593 0.93135 0.0
H915 H 0.46709 0.16651 0.89507 0.0
C916 C 0.82031 0.47551 0.83895 0.0
C917 C 0.81694 0.4963 0.81884 0.0
C918 C 0.84368 0.47544 0.85659 0.0
C919 C 0.86388 0.497 0.85431 0.0
C920 C 0.8611 0.51749 0.83332 0.0
C921 C 0.83768 0.51676 0.81563 0.0
C922 C 0.84616 0.45294 0.87837 0.0
C923 C 0.88206 0.54095 0.83049 0.0
C924 C 0.90235 0.51386 0.921 0.0
C925 C 0.92831 0.50078 0.91672 0.0
C926 C 0.88154 0.5135 0.90046 0.0
C927 C 0.88663 0.49919 0.87527 0.0
C928 C 0.91287 0.48606 0.87075 0.0
C929 C 0.93354 0.48725 0.89146 0.0
C930 C 0.85397 0.52814 0.90587 0.0
C931 C 0.91883 0.47016 0.84439 0.0
H932 H 0.80427 0.45959 0.84122 0.0
H933 H 0.83489 0.53292 0.80016 0.0
H934 H 0.86734 0.44331 0.87769 0.0
H935 H 0.84348 0.46225 0.89925 0.0
H936 H 0.83015 0.43629 0.87567 0.0
H937 H 0.87809 0.55391 0.81181 0.0
H938 H 0.88096 0.55456 0.84906 0.0
H939 H 0.90375 0.53255 0.82937 0.0
H940 H 0.89837 0.5246 0.94039 0.0
H941 H 0.95354 0.47693 0.88818 0.0
H942 H 0.83666 0.51265 0.90638 0.0
H943 H 0.84932 0.54301 0.88886 0.0
H944 H 0.85402 0.53974 0.92581 0.0
H945 H 0.90392 0.45246 0.84244 0.0
H946 H 0.9406 0.46181 0.84376 0.0
H947 H 0.91559 0.48383 0.82613 0.0
C948 C 0.70904 0.67002 0.02922 0.0
C949 C 0.71212 0.6895 0.00781 0.0
C950 C 0.68589 0.652 0.02998 0.0
C951 C 0.66566 0.65324 0.00852 0.0
C952 C 0.66814 0.67361 0.9874 0.0
C953 C 0.69133 0.69172 0.98742 0.0
C954 C 0.6837 0.63092 0.05314 0.0
C955 C 0.64712 0.67533 0.96403 0.0
C956 C 0.6274 0.5854 0.99411 0.0
C957 C 0.60136 0.59021 0.00676 0.0
C958 C 0.64824 0.60607 0.99394 0.0
C959 C 0.64307 0.63191 0.00725 0.0
C960 C 0.61683 0.63686 0.02011 0.0
C961 C 0.59615 0.61602 0.01948 0.0
C962 C 0.67585 0.60017 0.97965 0.0
C963 C 0.61079 0.66394 0.03497 0.0
H964 H 0.72514 0.6685 0.04505 0.0
H965 H 0.69394 0.7067 0.97078 0.0
H966 H 0.66253 0.63176 0.06274 0.0
H967 H 0.68656 0.60958 0.04469 0.0
H968 H 0.69972 0.63441 0.06952 0.0
H969 H 0.65092 0.69361 0.95038 0.0
H970 H 0.64832 0.65609 0.9513 0.0
H971 H 0.62544 0.67667 0.97237 0.0
H972 H 0.63137 0.56557 0.98403 0.0
H973 H 0.5761 0.61972 0.02949 0.0
H974 H 0.69318 0.60052 0.99502 0.0
H975 H 0.68034 0.61664 0.96412 0.0
H976 H 0.67595 0.57959 0.96905 0.0
H977 H 0.62602 0.66686 0.05213 0.0
H978 H 0.58918 0.6646 0.04367 0.0
H979 H 0.61344 0.68178 0.02057 0.0
C980 C 0.31935 0.68046 0.99102 0.0
C981 C 0.32271 0.70085 0.0115 0.0
C982 C 0.33733 0.65725 0.99 0.0
C983 C 0.35872 0.65437 0.01023 0.0
C984 C 0.36116 0.67428 0.03177 0.0
C985 C 0.34326 0.69745 0.03198 0.0
C986 C 0.33434 0.6366 0.96657 0.0
C987 C 0.38333 0.67165 0.05402 0.0
C988 C 0.39565 0.58496 0.02015 0.0
C989 C 0.42139 0.58991 0.0069 0.0
C990 C 0.37483 0.60564 0.02114 0.0
C991 C 0.37972 0.6316 0.00805 0.0
C992 C 0.4054 0.63641 0.99399 0.0
C993 C 0.42607 0.61559 0.99385 0.0
C994 C 0.34795 0.6 0.03681 0.0
C995 C 0.41119 0.66368 0.97939 0.0
H996 H 0.30351 0.68334 0.97512 0.0
H997 H 0.34565 0.71329 0.04786 0.0
H998 H 0.35321 0.63761 0.9531 0.0
H999 H 0.333 0.61504 0.97479 0.0
H1000 H 0.31546 0.64076 0.95367 0.0
H1001 H 0.38082 0.68757 0.07057 0.0
H1002 H 0.38247 0.65063 0.06361 0.0
H1003 H 0.40449 0.67409 0.04469 0.0
H1004 H 0.39206 0.56516 0.03042 0.0
H1005 H 0.44584 0.61932 0.98331 0.0
H1006 H 0.32953 0.60339 0.02314 0.0
H1007 H 0.34605 0.61482 0.05437 0.0
H1008 H 0.34706 0.57839 0.0451 0.0
H1009 H 0.39399 0.66847 0.96462 0.0
H1010 H 0.4314 0.66336 0.96786 0.0
H1011 H 0.41192 0.6809 0.99474 0.0
C1012 C 0.31942 0.3219 0.99344 0.0
C1013 C 0.3205 0.30266 0.01526 0.0
C1014 C 0.33741 0.34507 0.99297 0.0
C1015 C 0.35666 0.34911 0.01498 0.0
C1016 C 0.35661 0.33064 0.03787 0.0
C1017 C 0.3386 0.30752 0.03765 0.0
C1018 C 0.33699 0.36424 0.96815 0.0
C1019 C 0.37653 0.33452 0.06193 0.0
C1020 C 0.42571 0.38529 0.99961 0.0
C1021 C 0.42065 0.41225 0.00966 0.0
C1022 C 0.40488 0.36468 1.00092 0.0
C1023 C 0.37851 0.3711 0.01296 0.0
C1024 C 0.3733 0.39823 0.02327 0.0
C1025 C 0.39439 0.41858 0.02131 0.0
C1026 C 0.4111 0.33602 0.98944 0.0
C1027 C 0.34561 0.40567 0.03664 0.0
H1028 H 0.3056 0.318 0.976 0.0
H1029 H 0.33922 0.29272 0.05463 0.0
H1030 H 0.33568 0.38633 0.97487 0.0
H1031 H 0.35684 0.36183 0.95632 0.0
H1032 H 0.3191 0.35974 0.95405 0.0
H1033 H 0.37178 0.32012 0.07934 0.0
H1034 H 0.3984 0.33064 0.05495 0.0
H1035 H 0.37557 0.35629 0.06968 0.0
H1036 H 0.4459 0.38035 0.99042 0.0
H1037 H 0.39046 0.43933 0.02938 0.0
H1038 H 0.39534 0.33045 0.97342 0.0
H1039 H 0.40954 0.32023 0.00618 0.0
H1040 H 0.43238 0.33468 0.98007 0.0
H1041 H 0.32818 0.40231 0.02175 0.0
H1042 H 0.345 0.42769 0.04382 0.0
H1043 H 0.34169 0.39183 0.05466 0.0
C1044 C 0.69171 0.30935 0.01586 0.0
C1045 C 0.71089 0.31118 0.99392 0.0
C1046 C 0.66854 0.3274 0.01733 0.0
C1047 C 0.66443 0.34747 0.99618 0.0
C1048 C 0.68289 0.3483 0.97319 0.0
C1049 C 0.70602 0.33023 0.97243 0.0
C1050 C 0.64941 0.32603 0.04225 0.0
C1051 C 0.67892 0.36911 0.95002 0.0
C1052 C 0.59434 0.38492 0.9912 0.0
C1053 C 0.60064 0.41064 0.00363 0.0
C1054 C 0.61488 0.36409 0.98859 0.0
C1055 C 0.64219 0.36899 0.9991 0.0
C1056 C 0.64855 0.39476 0.01202 0.0
C1057 C 0.62775 0.41538 0.01391 0.0
C1058 C 0.60748 0.33706 0.97426 0.0
C1059 C 0.67738 0.40062 0.02375 0.0
H1060 H 0.69564 0.29479 0.03262 0.0
H1061 H 0.72079 0.33146 0.95536 0.0
H1062 H 0.6518 0.34534 0.05472 0.0
H1063 H 0.62713 0.32485 0.03562 0.0
H1064 H 0.65411 0.30781 0.0557 0.0
H1065 H 0.69347 0.36525 0.93243 0.0
H1066 H 0.65701 0.36838 0.94221 0.0
H1067 H 0.68269 0.39052 0.95794 0.0
H1068 H 0.57348 0.38125 0.98293 0.0
H1069 H 0.63265 0.43515 0.0237 0.0
H1070 H 0.61106 0.31923 0.98847 0.0
H1071 H 0.62133 0.33396 0.95602 0.0
H1072 H 0.58526 0.33658 0.9672 0.0
H1073 H 0.6831 0.38432 0.03908 0.0
H1074 H 0.6786 0.42133 0.03402 0.0
H1075 H 0.69327 0.3999 0.00695 0.0
C1076 C 0.98902 0.69427 0.67627 0.0
C1077 C 0.01031 0.69766 0.69602 0.0
C1078 C 0.98868 0.67102 0.6587 0.0
C1079 C 0.01044 0.65099 0.66067 0.0
C1080 C 0.03142 0.65379 0.68132 0.0
C1081 C 0.03097 0.67708 0.69896 0.0
C1082 C 0.96568 0.66851 0.63727 0.0
C1083 C 0.05513 0.63302 0.6838 0.0
C1084 C 0.00052 0.58194 0.62336 0.0
C1085 C 0.01383 0.58732 0.59799 0.0
C1086 C -0.00056 0.60237 0.64417 0.0
C1087 C 0.01246 0.62852 0.6396 0.0
C1088 C 0.02653 0.63376 0.61428 0.0
C1089 C 0.0268 0.61319 0.59366 0.0
C1090 C 0.9838 0.59625 0.6707 0.0
C1091 C 0.04102 0.66126 0.6088 0.0
H1092 H 0.97294 0.71017 0.67424 0.0
H1093 H 0.04751 0.6799 0.71416 0.0
H1094 H 0.9747 0.67129 0.61624 0.0
H1095 H 0.9561 0.64742 0.63802 0.0
H1096 H 0.94887 0.68431 0.64028 0.0
H1097 H 0.0684 0.63693 0.70234 0.0
H1098 H 0.04675 0.61147 0.68493 0.0
H1099 H 0.06862 0.63423 0.66507 0.0
H1100 H 0.99029 0.562 0.62668 0.0
H1101 H 0.03737 0.61729 0.57418 0.0
H1102 H 0.96605 0.61107 0.67304 0.0
H1103 H 0.99786 0.59927 0.68878 0.0
H1104 H 0.97536 0.57464 0.67125 0.0
H1105 H 0.02532 0.67837 0.60864 0.0
H1106 H 0.05237 0.66139 0.58868 0.0
H1107 H 0.05625 0.66586 0.6256 0.0
C1108 C 0.3172 0.02508 0.67462 0.0
C1109 C 0.31451 0.00375 0.69426 0.0
C1110 C 0.33988 0.02553 0.65614 0.0
C1111 C 0.36002 0.00383 0.65709 0.0
C1112 C 0.35786 0.9827 0.67752 0.0
C1113 C 0.33515 0.98305 0.69609 0.0
C1114 C 0.34177 0.04871 0.63501 0.0
C1115 C 0.3788 0.95909 0.67895 0.0
C1116 C 0.39812 0.98891 0.58966 0.0
C1117 C 0.42426 0.00142 0.59447 0.0
C1118 C 0.37722 0.98904 0.61014 0.0
C1119 C 0.38244 0.00253 0.63576 0.0
C1120 C 0.40873 0.0154 0.64063 0.0
C1121 C 0.42943 0.01446 0.62 0.0
C1122 C 0.34954 0.97476 0.60437 0.0
C1123 C 0.41483 0.0305 0.66744 0.0
H1124 H 0.30117 0.04112 0.67338 0.0
H1125 H 0.33281 0.96646 0.71119 0.0
H1126 H 0.3629 0.05845 0.6356 0.0
H1127 H 0.33877 0.04005 0.6139 0.0
H1128 H 0.32572 0.06516 0.63852 0.0
H1129 H 0.37501 0.94518 0.69698 0.0
H1130 H 0.37752 0.94646 0.65971 0.0
H1131 H 0.4005 0.96741 0.6803 0.0
H1132 H 0.39417 0.97862 0.57003 0.0
H1133 H 0.44955 0.02442 0.62369 0.0
H1134 H 0.33224 0.99026 0.60491 0.0
H1135 H 0.34513 0.95905 0.62068 0.0
H1136 H 0.34929 0.96419 0.58388 0.0
H1137 H 0.39971 0.0479 0.6702 0.0
H1138 H 0.43649 0.03911 0.66807 0.0
H1139 H 0.41205 0.01615 0.68526 0.0
C1140 C 0.98588 0.33154 0.70021 0.0
C1141 C 0.00739 0.31202 0.70432 0.0
C1142 C 0.98583 0.34898 0.6769 0.0
C1143 C 0.00804 0.34706 0.65748 0.0
C1144 C 0.02925 0.32665 0.66099 0.0
C1145 C 0.02858 0.30922 0.68434 0.0
C1146 C 0.96262 0.37022 0.67365 0.0
C1147 C 0.05344 0.32419 0.64089 0.0
C1148 C -0.00024 0.38342 0.58797 0.0
C1149 C 0.01285 0.40908 0.59323 0.0
C1150 C 0.99811 0.36286 0.60864 0.0
C1151 C 0.01033 0.368 0.63491 0.0
C1152 C 0.02421 0.39361 0.64003 0.0
C1153 C 0.02507 0.41394 0.61921 0.0
C1154 C 0.98279 0.33597 0.6026 0.0
C1155 C 0.03792 0.3997 0.66762 0.0
H1156 H 0.96936 0.3335 0.71557 0.0
H1157 H 0.04534 0.29428 0.68765 0.0
H1158 H 0.97132 0.39153 0.67629 0.0
H1159 H 0.95349 0.36903 0.65253 0.0
H1160 H 0.94553 0.3672 0.68905 0.0
H1161 H 0.06689 0.30578 0.64529 0.0
H1162 H 0.04553 0.32262 0.61932 0.0
H1163 H 0.06663 0.34324 0.6421 0.0
H1164 H 0.99011 0.3797 0.56795 0.0
H1165 H 0.0355 0.43364 0.62323 0.0
H1166 H 0.96474 0.33368 0.61698 0.0
H1167 H 0.99691 0.31791 0.60614 0.0
H1168 H 0.97482 0.33505 0.58097 0.0
H1169 H 0.02179 0.39989 0.68422 0.0
H1170 H 0.04902 0.4201 0.66776 0.0
H1171 H 0.05325 0.38306 0.6728 0.0
C1172 C 0.69099 0.0109 0.70162 0.0
C1173 C 0.71008 0.98868 0.70084 0.0
C1174 C 0.66815 0.01186 0.68326 0.0
C1175 C 0.66431 0.98993 0.66396 0.0
C1176 C 0.6825 0.96658 0.66437 0.0
C1177 C 0.7053 0.96632 0.68274 0.0
C1178 C 0.64924 0.03716 0.68334 0.0
C1179 C 0.6788 0.94258 0.64442 0.0
C1180 C 0.59548 0.98495 0.62461 0.0
C1181 C 0.60281 0.99679 0.599 0.0
C1182 C 0.61527 0.98251 0.646 0.0
C1183 C 0.64289 0.99251 0.64177 0.0
C1184 C 0.65034 0.00471 0.61606 0.0
C1185 C 0.63025 0.0065 0.59489 0.0
C1186 C 0.60672 0.96896 0.67296 0.0
C1187 C 0.67956 0.01585 0.61089 0.0
H1188 H 0.69486 0.02832 0.71545 0.0
H1189 H 0.72002 0.94905 0.68232 0.0
H1190 H 0.65254 0.04924 0.66399 0.0
H1191 H 0.62685 0.03075 0.68381 0.0
H1192 H 0.6534 0.05107 0.70129 0.0
H1193 H 0.69279 0.92474 0.64945 0.0
H1194 H 0.65671 0.9352 0.64456 0.0
H1195 H 0.68359 0.94968 0.62305 0.0
H1196 H 0.57436 0.97711 0.62781 0.0
H1197 H 0.63596 0.01581 0.57521 0.0
H1198 H 0.60976 0.98378 0.69036 0.0
H1199 H 0.62028 0.95059 0.67712 0.0
H1200 H 0.58444 0.96204 0.67282 0.0
H1201 H 0.68494 0.03176 0.62673 0.0
H1202 H 0.68172 0.02542 0.59003 0.0
H1203 H 0.69514 0.99873 0.61276 0.0
C1204 C 0.98904 0.30654 0.33845 0.0
C1205 C 0.00986 0.30309 0.31824 0.0
C1206 C 0.98912 0.32981 0.35599 0.0
C1207 C 0.01085 0.34982 0.35348 0.0
C1208 C 0.03136 0.34695 0.3324 0.0
C1209 C 0.03049 0.32362 0.31482 0.0
C1210 C 0.96661 0.3324 0.37791 0.0
C1211 C 0.05501 0.36771 0.32933 0.0
C1212 C 0.00113 0.41904 0.39045 0.0
C1213 C 0.0148 0.41387 0.41567 0.0
C1214 C -7e-05 0.3985 0.36977 0.0
C1215 C 0.01321 0.37247 0.37431 0.0
C1216 C 0.02774 0.36749 0.39944 0.0
C1217 C 0.02811 0.38817 0.41995 0.0
C1218 C 0.98382 0.40435 0.34345 0.0
C1219 C 0.04255 0.34015 0.40486 0.0
H1220 H 0.97298 0.29067 0.34087 0.0
H1221 H 0.04666 0.32076 0.29925 0.0
H1222 H 0.97611 0.32987 0.39875 0.0
H1223 H 0.9569 0.35344 0.37717 0.0
H1224 H 0.94981 0.3165 0.37541 0.0
H1225 H 0.06793 0.36367 0.31059 0.0
H1226 H 0.04658 0.38925 0.32819 0.0
H1227 H 0.06884 0.36666 0.34782 0.0
H1228 H 0.99066 0.43886 0.38719 0.0
H1229 H 0.03897 0.38427 0.43932 0.0
H1230 H 0.96601 0.38952 0.34159 0.0
H1231 H 0.99754 0.40112 0.32515 0.0
H1232 H 0.97538 0.42595 0.34282 0.0
H1233 H 0.02696 0.32296 0.40562 0.0
H1234 H 0.05442 0.34033 0.42469 0.0
H1235 H 0.05737 0.33543 0.38774 0.0
C1236 C 0.68585 0.97053 0.31439 0.0
C1237 C 0.70516 0.99202 0.30943 0.0
C1238 C 0.66849 0.971 0.33785 0.0
C1239 C 0.67032 0.99368 0.35656 0.0
C1240 C 0.69063 0.01482 0.35227 0.0
C1241 C 0.70793 0.01366 0.32876 0.0
C1242 C 0.64736 0.94785 0.34194 0.0
C1243 C 0.69302 0.03944 0.37165 0.0
C1244 C 0.60298 0.01113 0.3946 0.0
C1245 C 0.60804 0.9997 0.42086 0.0
C1246 C 0.6234 0.00988 0.37374 0.0
C1247 C 0.64933 0.99647 0.37915 0.0
C1248 C 0.65472 0.98515 0.40571 0.0
C1249 C 0.63404 0.98711 0.42638 0.0
C1250 C 0.61704 0.0226 0.34579 0.0
C1251 C 0.682 0.97041 0.41208 0.0
H1252 H 0.68392 0.95365 0.29955 0.0
H1253 H 0.7227 0.03042 0.32481 0.0
H1254 H 0.64876 0.93948 0.36333 0.0
H1255 H 0.62579 0.95619 0.33916 0.0
H1256 H 0.65049 0.93044 0.32706 0.0
H1257 H 0.71152 0.05272 0.36683 0.0
H1258 H 0.67379 0.05244 0.37005 0.0
H1259 H 0.69464 0.03227 0.39344 0.0
H1260 H 0.58303 0.02117 0.39034 0.0
H1261 H 0.63796 0.97809 0.44661 0.0
H1262 H 0.61685 0.00608 0.32969 0.0
H1263 H 0.63368 0.03774 0.34006 0.0
H1264 H 0.59643 0.03349 0.34543 0.0
H1265 H 0.68421 0.95185 0.39851 0.0
H1266 H 0.68326 0.96353 0.43402 0.0
H1267 H 0.70005 0.98435 0.40765 0.0
C1268 C 0.03245 0.693 0.33012 0.0
C1269 C 0.01211 0.68943 0.30946 0.0
C1270 C 0.03287 0.6756 0.35352 0.0
C1271 C 0.01218 0.65455 0.35634 0.0
C1272 C 0.99074 0.6519 0.33617 0.0
C1273 C 0.99113 0.66924 0.31282 0.0
C1274 C 0.05624 0.67879 0.37443 0.0
C1275 C 0.96804 0.63003 0.33869 0.0
C1276 C 0.0285 0.58783 0.39513 0.0
C1277 C 0.01487 0.59235 0.42046 0.0
C1278 C 0.02856 0.60835 0.37446 0.0
C1279 C 0.01413 0.63376 0.37906 0.0
C1280 C 0.00057 0.63859 0.40473 0.0
C1281 C 0.00134 0.61788 0.42528 0.0
C1282 C 0.04368 0.60261 0.34753 0.0
C1283 C 0.98458 0.66524 0.41015 0.0
H1284 H 0.04875 0.70856 0.32734 0.0
H1285 H 0.97527 0.66673 0.29687 0.0
H1286 H 0.04753 0.68017 0.3957 0.0
H1287 H 0.07001 0.66012 0.37374 0.0
H1288 H 0.0693 0.69757 0.37043 0.0
H1289 H 0.95147 0.63248 0.32265 0.0
H1290 H 0.97743 0.60895 0.33651 0.0
H1291 H 0.95807 0.63107 0.35945 0.0
H1292 H 0.03929 0.56825 0.39148 0.0
H1293 H 0.99066 0.62136 0.44482 0.0
H1294 H 0.0587 0.61971 0.34294 0.0
H1295 H 0.02832 0.60187 0.33025 0.0
H1296 H 0.05539 0.58257 0.34796 0.0
H1297 H 0.99838 0.68356 0.40671 0.0
H1298 H 0.97611 0.66621 0.43158 0.0
H1299 H 0.96681 0.66697 0.39537 0.0
C1300 C 0.33766 0.01854 0.31548 0.0
C1301 C 0.31705 0.99792 0.31847 0.0
C1302 C 0.36112 0.01916 0.33312 0.0
C1303 C 0.36406 0.99841 0.35382 0.0
C1304 C 0.34402 0.97669 0.35584 0.0
C1305 C 0.3206 0.97686 0.33826 0.0
C1306 C 0.38191 0.04281 0.33058 0.0
C1307 C 0.34668 0.95391 0.3773 0.0
C1308 C 0.43372 0.98866 0.39095 0.0
C1309 C 0.42832 0.00177 0.41639 0.0
C1310 C 0.41312 0.98764 0.37017 0.0
C1311 C 0.38677 0.00051 0.37482 0.0
C1312 C 0.38152 0.01442 0.4002 0.0
C1313 C 0.40228 0.01462 0.4208 0.0
C1314 C 0.41926 0.97215 0.3436 0.0
C1315 C 0.35383 0.02878 0.40576 0.0
H1316 H 0.33471 0.03491 0.30025 0.0
H1317 H 0.30466 0.96082 0.34036 0.0
H1318 H 0.38068 0.0562 0.3493 0.0
H1319 H 0.40366 0.03458 0.32939 0.0
H1320 H 0.37786 0.05595 0.31204 0.0
H1321 H 0.33083 0.93716 0.37437 0.0
H1322 H 0.36796 0.94447 0.37651 0.0
H1323 H 0.34391 0.96289 0.39832 0.0
H1324 H 0.45379 0.9785 0.38757 0.0
H1325 H 0.39817 0.02504 0.44033 0.0
H1326 H 0.4155 0.98589 0.32548 0.0
H1327 H 0.40481 0.9541 0.34164 0.0
H1328 H 0.44123 0.96438 0.34273 0.0
H1329 H 0.34907 0.04381 0.38892 0.0
H1330 H 0.35378 0.04015 0.42583 0.0
H1331 H 0.33664 0.01315 0.40608 0.0
C1332 C 0.0369 0.19629 0.3378 0.0
C1333 C 0.01524 0.19981 0.31844 0.0
C1334 C 0.037 0.17355 0.35611 0.0
C1335 C 0.0146 0.15413 0.35538 0.0
C1336 C 0.99311 0.15711 0.33522 0.0
C1337 C 0.99381 0.17987 0.3168 0.0
C1338 C 0.06058 0.1709 0.37688 0.0
C1339 C 0.96872 0.13703 0.33398 0.0
C1340 C 0.02449 0.08477 0.39254 0.0
C1341 C 0.01218 0.09022 0.41841 0.0
C1342 C 0.02527 0.10526 0.37174 0.0
C1343 C 0.01298 0.13169 0.37673 0.0
C1344 C 5e-05 0.13712 0.40264 0.0
C1345 C 7e-05 0.11643 0.42326 0.0
C1346 C 0.03976 0.09882 0.34464 0.0
C1347 C 0.98633 0.16487 0.40866 0.0
H1348 H 0.05348 0.21177 0.33901 0.0
H1349 H 0.97692 0.18282 0.30201 0.0
H1350 H 0.05226 0.17403 0.39813 0.0
H1351 H 0.06977 0.14965 0.37605 0.0
H1352 H 0.07756 0.18637 0.37322 0.0
H1353 H 0.95467 0.14122 0.31607 0.0
H1354 H 0.97645 0.11525 0.33254 0.0
H1355 H 0.95621 0.13866 0.35332 0.0
H1356 H 0.03408 0.06461 0.38871 0.0
H1357 H 0.99027 0.12067 0.4431 0.0
H1358 H 0.05775 0.11323 0.34166 0.0
H1359 H 0.02509 0.10217 0.32709 0.0
H1360 H 0.04767 0.07703 0.34376 0.0
H1361 H 0.00232 0.18169 0.40811 0.0
H1362 H 0.97585 0.16524 0.42923 0.0
H1363 H 0.97048 0.16971 0.39249 0.0
C1364 C 0.82711 0.98381 0.32082 0.0
C1365 C 0.82767 0.00706 0.30337 0.0
C1366 C 0.84455 0.98251 0.34425 0.0
C1367 C 0.86283 0.00507 0.35018 0.0
C1368 C 0.86289 0.02889 0.33277 0.0
C1369 C 0.84525 0.02957 0.30945 0.0
C1370 C 0.84392 0.95677 0.36226 0.0
C1371 C 0.88203 0.05336 0.33843 0.0
C1372 C 0.89547 0.01134 0.42192 0.0
C1373 C 0.92256 0.00086 0.41719 0.0
C1374 C 0.87567 0.01273 0.40035 0.0
C1375 C 0.88309 0.00309 0.37357 0.0
C1376 C 0.91021 0.99192 0.36888 0.0
C1377 C 0.92962 0.99107 0.39069 0.0
C1378 C 0.84702 0.02496 0.40607 0.0
C1379 C 0.91886 0.98111 0.34073 0.0
H1380 H 0.81327 0.96651 0.31594 0.0
H1381 H 0.84542 0.04755 0.29581 0.0
H1382 H 0.86466 0.94622 0.36156 0.0
H1383 H 0.83993 0.96262 0.38415 0.0
H1384 H 0.82754 0.94168 0.35557 0.0
H1385 H 0.87842 0.07089 0.32379 0.0
H1386 H 0.87885 0.06106 0.35988 0.0
H1387 H 0.90428 0.04667 0.33669 0.0
H1388 H 0.88994 0.0191 0.44231 0.0
H1389 H 0.95042 0.98264 0.38694 0.0
H1390 H 0.8304 0.00982 0.40027 0.0
H1391 H 0.84385 0.04387 0.39318 0.0
H1392 H 0.84426 0.03075 0.42819 0.0
H1393 H 0.90396 0.96478 0.33368 0.0
H1394 H 0.9404 0.97217 0.3408 0.0
H1395 H 0.9181 0.99829 0.32534 0.0
C1396 C 0.03926 0.82945 0.31204 0.0
C1397 C 0.01543 0.81385 0.3052 0.0
C1398 C 0.03894 0.84794 0.33466 0.0
C1399 C 0.01413 0.85084 0.35068 0.0
C1400 C 0.99015 0.83463 0.34399 0.0
C1401 C 0.99111 0.81628 0.32125 0.0
C1402 C 0.06496 0.86476 0.34109 0.0
C1403 C 0.96331 0.83709 0.36049 0.0
C1404 C 0.0196 0.88425 0.42223 0.0
C1405 C 0.01166 0.9119 0.41668 0.0
C1406 C 0.02045 0.86412 0.40101 0.0
C1407 C 0.01292 0.87172 0.37362 0.0
C1408 C 0.00452 0.89949 0.36799 0.0
C1409 C 0.00411 0.91922 0.3895 0.0
C1410 C 0.0297 0.83479 0.40785 0.0
C1411 C 0.9961 0.90845 0.33915 0.0
H1412 H 0.05805 0.82743 0.29948 0.0
H1413 H 0.97272 0.80408 0.31582 0.0
H1414 H 0.06042 0.88732 0.33854 0.0
H1415 H 0.07132 0.86149 0.36297 0.0
H1416 H 0.08289 0.85917 0.32744 0.0
H1417 H 0.94692 0.82226 0.3533 0.0
H1418 H 0.96755 0.83314 0.38276 0.0
H1419 H 0.95492 0.85862 0.35878 0.0
H1420 H 0.02562 0.87839 0.44309 0.0
H1421 H 0.99768 0.94043 0.38498 0.0
H1422 H 0.04853 0.82926 0.39545 0.0
H1423 H 0.01289 0.81977 0.40226 0.0
H1424 H 0.0348 0.8322 0.43017 0.0
H1425 H 0.01401 0.90557 0.32472 0.0
H1426 H 0.98937 0.93064 0.33835 0.0
H1427 H 0.97859 0.89524 0.33152 0.0
C1428 C 0.19257 0.98303 0.31702 0.0
C1429 C 0.21303 0.00389 0.31931 0.0
C1430 C 0.16948 0.98234 0.33522 0.0
C1431 C 0.16668 0.00329 0.35579 0.0
C1432 C 0.18665 0.02514 0.35721 0.0
C1433 C 0.20973 0.025 0.33913 0.0
C1434 C 0.14883 0.95852 0.33328 0.0
C1435 C 0.18419 0.04815 0.37846 0.0
C1436 C 0.09668 0.01344 0.39258 0.0
C1437 C 0.10181 0.00062 0.41824 0.0
C1438 C 0.1175 0.01433 0.37196 0.0
C1439 C 0.14388 0.0016 0.3769 0.0
C1440 C 0.14894 0.98813 0.40256 0.0
C1441 C 0.12796 0.98808 0.42303 0.0
C1442 C 0.11147 0.0294 0.34514 0.0
C1443 C 0.17663 0.97393 0.4085 0.0
H1444 H 0.19533 0.96656 0.30185 0.0
H1445 H 0.22558 0.04117 0.3408 0.0
H1446 H 0.15003 0.94569 0.35239 0.0
H1447 H 0.12706 0.96662 0.33177 0.0
H1448 H 0.153 0.94486 0.31514 0.0
H1449 H 0.20011 0.0648 0.3753 0.0
H1450 H 0.16296 0.05768 0.37762 0.0
H1451 H 0.18697 0.03939 0.39956 0.0
H1452 H 0.07657 0.02337 0.38884 0.0
H1453 H 0.13194 0.9779 0.4427 0.0
H1454 H 0.11473 0.01517 0.3273 0.0
H1455 H 0.12633 0.04706 0.34264 0.0
H1456 H 0.08968 0.03767 0.34428 0.0
H1457 H 0.18142 0.95852 0.39201 0.0
H1458 H 0.17664 0.96303 0.42882 0.0
H1459 H 0.19381 0.98956 0.4085 0.0
C1460 C 0.03777 0.80464 0.6764 0.0
C1461 C 0.01614 0.80094 0.69575 0.0
C1462 C 0.03767 0.82738 0.65808 0.0
C1463 C 0.01507 0.84659 0.65874 0.0
C1464 C 0.99358 0.84339 0.67886 0.0
C1465 C 0.9945 0.82066 0.69732 0.0
C1466 C 0.06128 0.83026 0.63736 0.0
C1467 C 0.96897 0.86322 0.68003 0.0
C1468 C 0.02421 0.91612 0.62161 0.0
C1469 C 0.01201 0.91056 0.59569 0.0
C1470 C 0.02521 0.89561 0.64239 0.0
C1471 C 0.01326 0.86903 0.63737 0.0
C1472 C 0.00045 0.86348 0.61142 0.0
C1473 C 0.00024 0.8842 0.59081 0.0
C1474 C 0.03957 0.9022 0.66952 0.0
C1475 C 0.98709 0.83557 0.60534 0.0
H1476 H 0.05448 0.78931 0.67523 0.0
H1477 H 0.97762 0.81756 0.71209 0.0
H1478 H 0.05305 0.82702 0.61609 0.0
H1479 H 0.07023 0.85162 0.63819 0.0
H1480 H 0.07842 0.81498 0.64109 0.0
H1481 H 0.95491 0.85887 0.6979 0.0
H1482 H 0.97647 0.88508 0.6815 0.0
H1483 H 0.95655 0.86147 0.66065 0.0
H1484 H 0.03355 0.93638 0.62548 0.0
H1485 H 0.99054 0.87985 0.57094 0.0
H1486 H 0.05775 0.88802 0.67251 0.0
H1487 H 0.02493 0.89864 0.68705 0.0
H1488 H 0.0472 0.92409 0.67043 0.0
H1489 H 0.00329 0.81894 0.60594 0.0
H1490 H 0.97668 0.83508 0.58474 0.0
H1491 H 0.97125 0.83054 0.62146 0.0
C1492 C 0.20701 0.97455 0.67777 0.0
C1493 C 0.21087 0.99638 0.69669 0.0
C1494 C 0.18398 0.97432 0.65965 0.0
C1495 C 0.16465 0.99676 0.66015 0.0
C1496 C 0.16788 0.01836 0.67998 0.0
C1497 C 0.19094 0.0178 0.69821 0.0
C1498 C 0.18104 0.95065 0.63919 0.0
C1499 C 0.14787 0.04277 0.68096 0.0
C1500 C 0.12753 0.01119 0.59192 0.0
C1501 C 0.10093 0.99959 0.59664 0.0
C1502 C 0.14818 0.01103 0.61269 0.0
C1503 C 0.14227 0.99848 0.63864 0.0
C1504 C 0.11545 0.9867 0.64352 0.0
C1505 C 0.09502 0.98761 0.62255 0.0
C1506 C 0.1764 0.02416 0.6068 0.0
C1507 C 0.10853 0.97264 0.67067 0.0
H1508 H 0.22253 0.95802 0.67666 0.0
H1509 H 0.19419 0.03481 0.71267 0.0
H1510 H 0.15945 0.94193 0.63993 0.0
H1511 H 0.18455 0.95855 0.61786 0.0
H1512 H 0.19627 0.93357 0.64324 0.0
H1513 H 0.15206 0.05673 0.69887 0.0
H1514 H 0.14984 0.05511 0.6616 0.0
H1515 H 0.12584 0.03532 0.68219 0.0
H1516 H 0.13212 0.0207 0.57205 0.0
H1517 H 0.07457 0.97839 0.62626 0.0
H1518 H 0.19309 0.00802 0.60769 0.0
H1519 H 0.18136 0.04 0.62284 0.0
H1520 H 0.17715 0.03431 0.58612 0.0
H1521 H 0.12261 0.95445 0.67379 0.0
H1522 H 0.08641 0.9653 0.6715 0.0
H1523 H 0.1122 0.9872 0.68816 0.0
C1524 C 0.9943 0.18437 0.69377 0.0
C1525 C 0.01943 0.18803 0.70833 0.0
C1526 C 0.99277 0.16579 0.67124 0.0
C1527 C 0.017 0.15059 0.66319 0.0
C1528 C 0.0426 0.15474 0.67768 0.0
C1529 C 0.04347 0.17343 0.70015 0.0
C1530 C 0.96511 0.162 0.65641 0.0
C1531 C 0.06891 0.13904 0.66978 0.0
C1532 C 0.00734 0.08162 0.62516 0.0
C1533 C 0.0127 0.0891 0.59751 0.0
C1534 C 0.00847 0.10144 0.64659 0.0
C1535 C 0.01531 0.12951 0.64041 0.0
C1536 C 0.02071 0.13727 0.61258 0.0
C1537 C 0.01924 0.11703 0.59148 0.0
C1538 C 0.00242 0.09227 0.67594 0.0
C1539 C 0.02825 0.16692 0.60511 0.0
H1540 H 0.97574 0.19578 0.70024 0.0
H1541 H 0.06289 0.17638 0.71154 0.0
H1542 H 0.96776 0.16599 0.63392 0.0
H1543 H 0.95784 0.14013 0.65871 0.0
H1544 H 0.94853 0.17613 0.66452 0.0
H1545 H 0.08737 0.14552 0.68231 0.0
H1546 H 0.06556 0.11632 0.67269 0.0
H1547 H 0.07376 0.14244 0.64755 0.0
H1548 H 0.00211 0.0602 0.63015 0.0
H1549 H 0.02361 0.12309 0.57028 0.0
H1550 H 0.9847 0.10456 0.68455 0.0
H1551 H 0.021 0.09629 0.68924 0.0
H1552 H 0.99705 0.06976 0.67727 0.0
H1553 H 0.01116 0.18124 0.6116 0.0
H1554 H 0.03192 0.16959 0.58253 0.0
H1555 H 0.04752 0.17333 0.61639 0.0
C1556 C 0.83233 0.01421 0.69765 0.0
C1557 C 0.81405 0.99132 0.69798 0.0
C1558 C 0.85469 0.01543 0.67871 0.0
C1559 C 0.85891 0.99307 0.65997 0.0
C1560 C 0.84132 0.9693 0.66121 0.0
C1561 C 0.81898 0.96879 0.68012 0.0
C1562 C 0.87293 0.04118 0.67787 0.0
C1563 C 0.84544 0.94486 0.64187 0.0
C1564 C 0.89446 0.00731 0.59101 0.0
C1565 C 0.9219 0.99803 0.59613 0.0
C1566 C 0.87385 0.00616 0.61177 0.0
C1567 C 0.88078 0.99509 0.63812 0.0
C1568 C 0.90839 0.98556 0.64337 0.0
C1569 C 0.92866 0.9873 0.62237 0.0
C1570 C 0.84465 0.01676 0.60551 0.0
C1571 C 0.91642 0.97322 0.67106 0.0
H1572 H 0.82831 0.03176 0.71126 0.0
H1573 H 0.80488 0.95102 0.68053 0.0
H1574 H 0.89544 0.03534 0.67927 0.0
H1575 H 0.86992 0.0521 0.65782 0.0
H1576 H 0.86798 0.05595 0.69494 0.0
H1577 H 0.83131 0.92713 0.64694 0.0
H1578 H 0.84126 0.95146 0.62022 0.0
H1579 H 0.86752 0.93747 0.64276 0.0
H1580 H 0.88912 0.01577 0.57085 0.0
H1581 H 0.94976 0.97981 0.62643 0.0
H1582 H 0.83872 0.0332 0.62061 0.0
H1583 H 0.82922 0.99956 0.60768 0.0
H1584 H 0.84291 0.0255 0.58425 0.0
H1585 H 0.91253 0.98859 0.68782 0.0
H1586 H 0.93885 0.96682 0.67182 0.0
H1587 H 0.90317 0.95471 0.67548 0.0
C1588 C 0.32921 0.97943 0.1931 0.0
C1589 C 0.31142 0.0026 0.19431 0.0
C1590 C 0.35185 0.9787 0.17438 0.0
C1591 C 0.35665 0.00174 0.15657 0.0
C1592 C 0.33883 0.0254 0.15818 0.0
C1593 C 0.31635 0.0255 0.17706 0.0
C1594 C 0.37029 0.9531 0.17329 0.0
C1595 C 0.34327 0.05039 0.13965 0.0
C1596 C 0.4283 0.00962 0.12221 0.0
C1597 C 0.42291 0.99975 0.09534 0.0
C1598 C 0.40696 0.01043 0.14235 0.0
C1599 C 0.37968 0.00075 0.13561 0.0
C1600 C 0.37423 0.99041 0.10864 0.0
C1601 C 0.39583 0.99023 0.0888 0.0
C1602 C 0.41354 0.02196 0.17074 0.0
C1603 C 0.34554 0.97961 0.10068 0.0
H1604 H 0.32522 0.96176 0.20657 0.0
H1605 H 0.30242 0.04338 0.17814 0.0
H1606 H 0.36891 0.94339 0.15246 0.0
H1607 H 0.39257 0.959 0.17666 0.0
H1608 H 0.36425 0.93732 0.18906 0.0
H1609 H 0.32826 0.06754 0.14423 0.0
H1610 H 0.36498 0.05844 0.14209 0.0
H1611 H 0.34072 0.04419 0.11764 0.0
H1612 H 0.44909 0.01726 0.12738 0.0
H1613 H 0.39151 0.98237 0.06817 0.0
H1614 H 0.4092 0.00595 0.18678 0.0
H1615 H 0.39975 0.04008 0.1752 0.0
H1616 H 0.43578 0.02872 0.17267 0.0
H1617 H 0.33917 0.96257 0.11492 0.0
H1618 H 0.34493 0.97158 0.07908 0.0
H1619 H 0.32974 0.9965 0.10273 0.0
C1620 C 0.03877 0.30744 0.18201 0.0
C1621 C 0.01369 0.29884 0.19444 0.0
C1622 C 0.03916 0.33009 0.1635 0.0
C1623 C 0.0138 0.34434 0.15733 0.0
C1624 C 0.98849 0.3359 0.17036 0.0
C1625 C 0.98875 0.31318 0.18881 0.0
C1626 C 0.06658 0.33842 0.15012 0.0
C1627 C 0.96103 0.35047 0.16436 0.0
C1628 C 0.01786 0.41644 0.12409 0.0
C1629 C 0.01374 0.41019 0.09594 0.0
C1630 C 0.0179 0.39528 0.14432 0.0
C1631 C 0.01356 0.36718 0.13628 0.0
C1632 C 0.00917 0.36076 0.10797 0.0
C1633 C 0.00938 0.38226 0.0882 0.0
C1634 C 0.02279 0.40296 0.17427 0.0
C1635 C 0.00432 0.33111 0.09851 0.0
H1636 H 0.05802 0.29621 0.1865 0.0
H1637 H 0.96939 0.30638 0.19855 0.0
H1638 H 0.0652 0.33541 0.12736 0.0
H1639 H 0.0708 0.36087 0.15384 0.0
H1640 H 0.08461 0.32608 0.15808 0.0
H1641 H 0.94347 0.34215 0.17707 0.0
H1642 H 0.96307 0.37316 0.16841 0.0
H1643 H 0.95559 0.34797 0.14214 0.0
H1644 H 0.02135 0.43786 0.13039 0.0
H1645 H 0.00602 0.37705 0.0666 0.0
H1646 H 0.04174 0.39208 0.18217 0.0
H1647 H 0.00475 0.39601 0.18709 0.0
H1648 H 0.02566 0.42578 0.17719 0.0
H1649 H 0.02268 0.31799 0.10406 0.0
H1650 H 0.00087 0.32963 0.07578 0.0
H1651 H 0.98575 0.32223 0.10924 0.0
C1652 C 0.70448 0.01423 0.18724 0.0
C1653 C 0.70327 0.99229 0.20638 0.0
C1654 C 0.68621 0.01501 0.1644 0.0
C1655 C 0.66656 0.99315 0.16053 0.0
C1656 C 0.66623 0.97029 0.17909 0.0
C1657 C 0.68447 0.97023 0.20191 0.0
C1658 C 0.687 0.03987 0.1452 0.0
C1659 C 0.64589 0.94637 0.17542 0.0
C1660 C 0.59814 0.0084 0.12311 0.0
C1661 C 0.60357 0.99779 0.09658 0.0
C1662 C 0.61866 0.00741 0.14394 0.0
C1663 C 0.64508 0.99507 0.13825 0.0
C1664 C 0.65066 0.9842 0.11153 0.0
C1665 C 0.62991 0.98591 0.09093 0.0
C1666 C 0.61203 0.01955 0.17209 0.0
C1667 C 0.67839 0.97045 0.10483 0.0
H1668 H 0.71883 0.03142 0.19084 0.0
H1669 H 0.68371 0.95314 0.21662 0.0
H1670 H 0.68887 0.03291 0.12336 0.0
H1671 H 0.66705 0.05172 0.147 0.0
H1672 H 0.70474 0.05415 0.14996 0.0
H1673 H 0.64996 0.92911 0.19024 0.0
H1674 H 0.62408 0.9539 0.17858 0.0
H1675 H 0.6472 0.93802 0.15401 0.0
H1676 H 0.57791 0.0178 0.12753 0.0
H1677 H 0.63414 0.97743 0.07052 0.0
H1678 H 0.6279 0.03555 0.17766 0.0
H1679 H 0.61306 0.00295 0.18807 0.0
H1680 H 0.59086 0.02928 0.17284 0.0
H1681 H 0.69587 0.98535 0.10831 0.0
H1682 H 0.67936 0.96295 0.08306 0.0
H1683 H 0.68188 0.95245 0.11887 0.0
C1684 C 0.99735 0.69179 0.18636 0.0
C1685 C 0.01811 0.68906 0.20675 0.0
C1686 C 0.99664 0.67365 0.16342 0.0
C1687 C 0.01747 0.65266 0.16069 0.0
C1688 C 0.03923 0.65079 0.18062 0.0
C1689 C 0.03912 0.66883 0.20352 0.0
C1690 C 0.97291 0.67609 0.14282 0.0
C1691 C 0.06214 0.6291 0.17827 0.0
C1692 C 0.00183 0.58545 0.12172 0.0
C1693 C 0.01491 0.59028 0.09613 0.0
C1694 C 0.00182 0.6059 0.14256 0.0
C1695 C 0.01575 0.63162 0.13797 0.0
C1696 C 0.02896 0.63664 0.11214 0.0
C1697 C 0.02812 0.61602 0.09143 0.0
C1698 C 0.98709 0.59986 0.16962 0.0
C1699 C 0.04454 0.6635 0.10662 0.0
H1700 H 0.98095 0.70726 0.18902 0.0
H1701 H 0.05523 0.66682 0.21929 0.0
H1702 H 0.98132 0.67769 0.12145 0.0
H1703 H 0.95971 0.65702 0.1437 0.0
H1704 H 0.95935 0.6945 0.14695 0.0
H1705 H 0.07874 0.63188 0.19421 0.0
H1706 H 0.05298 0.60795 0.18066 0.0
H1707 H 0.07202 0.63003 0.15746 0.0
H1708 H 0.99133 0.56571 0.12538 0.0
H1709 H 0.03846 0.61981 0.07177 0.0
H1710 H 0.97171 0.61662 0.1743 0.0
H1711 H 0.00261 0.59954 0.18677 0.0
H1712 H 0.97586 0.57954 0.16932 0.0
H1713 H 0.03035 0.68159 0.10972 0.0
H1714 H 0.05322 0.66441 0.08526 0.0
H1715 H 0.06212 0.66573 0.12157 0.0
C1716 C 0.32767 0.02472 0.82299 0.0
C1717 C 0.31278 0.99994 0.81886 0.0
C1718 C 0.35046 0.02572 0.84152 0.0
C1719 C 0.35836 0.0013 0.85616 0.0
C1720 C 0.34356 0.97606 0.8515 0.0
C1721 C 0.32086 0.97572 0.83287 0.0
C1722 C 0.36564 0.05301 0.84592 0.0
C1723 C 0.35132 0.94959 0.86663 0.0
C1724 C 0.43057 0.99759 0.89012 0.0
C1725 C 0.42415 0.00333 0.91796 0.0
C1726 C 0.40944 0.99698 0.86975 0.0
C1727 C 0.38121 0.00242 0.8773 0.0
C1728 C 0.37464 0.00857 0.90526 0.0
C1729 C 0.39611 0.00886 0.9252 0.0
C1730 C 0.41726 0.99019 0.84019 0.0
C1731 C 0.34484 0.01467 0.91417 0.0
H1732 H 0.32123 0.04342 0.81205 0.0
H1733 H 0.30916 0.95659 0.82955 0.0
H1734 H 0.36305 0.05989 0.86772 0.0
H1735 H 0.38848 0.05029 0.84222 0.0
H1736 H 0.35772 0.06976 0.83205 0.0
H1737 H 0.3386 0.93145 0.8597 0.0
H1738 H 0.37387 0.94475 0.86338 0.0
H1739 H 0.34814 0.95246 0.88923 0.0
H1740 H 0.45209 0.99316 0.88424 0.0
H1741 H 0.39082 0.0135 0.94656 0.0
H1742 H 0.41057 0.00735 0.82625 0.0
H1743 H 0.40609 0.97106 0.8334 0.0
H1744 H 0.44021 0.98686 0.83759 0.0
H1745 H 0.33634 0.0325 0.90214 0.0
H1746 H 0.34331 0.0197 0.9366 0.0
H1747 H 0.33126 0.99637 0.9098 0.0
C1748 C 0.03248 0.31053 0.82633 0.0
C1749 C 0.01015 0.31222 0.80745 0.0
C1750 C 0.03393 0.32856 0.84933 0.0
C1751 C 0.01233 0.34846 0.85372 0.0
C1752 C 0.98909 0.34929 0.83541 0.0
C1753 C 0.98839 0.33131 0.81243 0.0
C1754 C 0.05917 0.32715 0.86822 0.0
C1755 C 0.96539 0.36983 0.83953 0.0
C1756 C 0.00505 0.38453 0.92381 0.0
C1757 C 0.01684 0.41083 0.9184 0.0
C1758 C 0.00367 0.36391 0.9031 0.0
C1759 C 0.01472 0.36954 0.87642 0.0
C1760 C 0.0272 0.39583 0.87104 0.0
C1761 C 0.02788 0.41621 0.89198 0.0
C1762 C 0.98975 0.33637 0.90958 0.0
C1763 C 0.03959 0.40259 0.84302 0.0
H1764 H 0.04947 0.29599 0.8224 0.0
H1765 H 0.97099 0.33252 0.79797 0.0
H1766 H 0.07137 0.34681 0.86655 0.0
H1767 H 0.05238 0.32511 0.89012 0.0
H1768 H 0.07323 0.30939 0.86306 0.0
H1769 H 0.94785 0.36635 0.82474 0.0
H1770 H 0.95708 0.36831 0.86096 0.0
H1771 H 0.97333 0.3914 0.8367 0.0
H1772 H 0.99624 0.38024 0.94408 0.0
H1773 H 0.03725 0.43636 0.88767 0.0
H1774 H 0.00411 0.31886 0.90456 0.0
H1775 H 0.97072 0.33385 0.89653 0.0
H1776 H 0.98349 0.33472 0.93169 0.0
H1777 H 0.05533 0.38656 0.83717 0.0
H1778 H 0.04986 0.4234 0.84262 0.0
H1779 H 0.02283 0.40224 0.82704 0.0
C1780 C 0.70115 0.98421 0.82407 0.0
C1781 C 0.71765 0.00824 0.82216 0.0
C1782 C 0.67824 0.98311 0.84236 0.0
C1783 C 0.67187 0.00666 0.85897 0.0
C1784 C 0.68833 0.03119 0.8566 0.0
C1785 C 0.71115 0.03165 0.83816 0.0
C1786 C 0.66123 0.9566 0.84434 0.0
C1787 C 0.68216 0.05672 0.8739 0.0
C1788 C 0.5997 0.01172 0.89244 0.0
C1789 C 0.60544 0.00303 0.91963 0.0
C1790 C 0.62111 0.01303 0.87244 0.0
C1791 C 0.64883 0.00522 0.87974 0.0
C1792 C 0.65468 0.99616 0.90705 0.0
C1793 C 0.63297 0.99528 0.92667 0.0
C1794 C 0.61411 0.02298 0.84356 0.0
C1795 C 0.68394 0.98747 0.9156 0.0
H1796 H 0.70638 0.96619 0.81149 0.0
H1797 H 0.72409 0.0502 0.83645 0.0
H1798 H 0.66301 0.94779 0.86553 0.0
H1799 H 0.63868 0.96111 0.84064 0.0
H1800 H 0.66825 0.94056 0.82922 0.0
H1801 H 0.69616 0.0745 0.86865 0.0
H1802 H 0.66003 0.06332 0.87091 0.0
H1803 H 0.68484 0.0517 0.89619 0.0
H1804 H 0.57855 0.01793 0.88683 0.0
H1805 H 0.63762 0.98832 0.94754 0.0
H1806 H 0.61942 0.00656 0.82823 0.0
H1807 H 0.62692 0.04161 0.8384 0.0
H1808 H 0.59154 0.02844 0.84125 0.0
H1809 H 0.69138 0.97016 0.9022 0.0
H1810 H 0.6849 0.98054 0.93755 0.0
H1811 H 0.69872 0.00514 0.91279 0.0
C1812 C 0.04103 0.69608 0.83565 0.0
C1813 C 0.01704 0.70193 0.81997 0.0
C1814 C 0.04143 0.67356 0.85433 0.0
C1815 C 0.01719 0.65662 0.85734 0.0
C1816 C 0.99305 0.66231 0.84106 0.0
C1817 C 0.99328 0.68497 0.82253 0.0
C1818 C 0.06759 0.66821 0.87121 0.0
C1819 C 0.9668 0.64483 0.84364 0.0
C1820 C 0.02493 0.58516 0.89133 0.0
C1821 C 0.01663 0.59075 0.9187 0.0
C1822 C 0.02521 0.60633 0.87113 0.0
C1823 C 0.01672 0.63373 0.87835 0.0
C1824 C 0.00803 0.63941 0.90585 0.0
C1825 C 0.00821 0.61795 0.92566 0.0
C1826 C 0.0348 0.59944 0.84211 0.0
C1827 C 0.99859 0.66824 0.91441 0.0
H1828 H 0.05937 0.70934 0.83356 0.0
H1829 H 0.97476 0.68965 0.81029 0.0
H1830 H 0.06286 0.6709 0.89357 0.0
H1831 H 0.07474 0.64639 0.86825 0.0
H1832 H 0.08504 0.68251 0.86556 0.0
H1833 H 0.95021 0.65133 0.82879 0.0
H1834 H 0.97181 0.62253 0.83999 0.0
H1835 H 0.9583 0.64653 0.86499 0.0
H1836 H 0.03162 0.56429 0.88574 0.0
H1837 H 0.00151 0.62252 0.94664 0.0
H1838 H 0.05314 0.61257 0.8365 0.0
H1839 H 0.01783 0.60422 0.82708 0.0
H1840 H 0.0408 0.57716 0.83982 0.0
H1841 H 0.01595 0.68337 0.91131 0.0
H1842 H 0.99189 0.66909 0.93645 0.0
H1843 H 0.98079 0.67511 0.90124 0.0
C1844 C 0.19969 0.31205 0.02024 0.0
C1845 C 0.19898 0.29551 0.99642 0.0
C1846 C 0.18233 0.33558 0.02258 0.0
C1847 C 0.16401 0.3425 1.0005 0.0
C1848 C 0.16377 0.326 0.97612 0.0
C1849 C 0.18134 0.30255 0.9744 0.0
C1850 C 0.18311 0.35262 0.04889 0.0
C1851 C 0.14456 0.33277 0.95214 0.0
C1852 C 0.09753 0.3829 0.0163 0.0
C1853 C 0.10471 0.40989 0.00761 0.0
C1854 C 0.11683 0.36092 0.01451 0.0
C1855 C 0.14391 0.36599 0.00352 0.0
C1856 C 0.15147 0.39326 0.99503 0.0
C1857 C 0.1318 0.41497 0.99734 0.0
C1858 C 0.10808 0.33219 0.02405 0.0
C1859 C 0.18012 0.39936 0.98303 0.0
H1860 H 0.2136 0.3064 0.03714 0.0
H1861 H 0.18109 0.28958 0.95598 0.0
H1862 H 0.18719 0.37486 0.04399 0.0
H1863 H 0.16239 0.35157 0.05939 0.0
H1864 H 0.1995 0.3452 0.06354 0.0
H1865 H 0.14802 0.31874 0.93414 0.0
H1866 H 0.12233 0.33087 0.95881 0.0
H1867 H 0.14783 0.35465 0.94537 0.0
H1868 H 0.07672 0.37888 0.02453 0.0
H1869 H 0.1374 0.43574 0.9904 0.0
H1870 H 0.12294 0.32438 0.03997 0.0
H1871 H 0.10879 0.31741 0.00637 0.0
H1872 H 0.08653 0.33196 0.03291 0.0
H1873 H 0.19673 0.39311 0.9979 0.0
H1874 H 0.18288 0.4218 0.97791 0.0
H1875 H 0.18329 0.38692 0.96389 0.0
C1876 C 0.18066 0.6998 0.03505 0.0
C1877 C 0.1992 0.70526 0.0133 0.0
C1878 C 0.16354 0.67599 0.03457 0.0
C1879 C 0.16515 0.65748 0.01171 0.0
C1880 C 0.18446 0.66274 0.99 0.0
C1881 C 0.20136 0.6867 0.99109 0.0
C1882 C 0.14324 0.67102 0.05811 0.0
C1883 C 0.18668 0.64355 0.96528 0.0
C1884 C 0.13244 0.58558 0.01943 0.0
C1885 C 0.10584 0.58992 0.0077 0.0
C1886 C 0.15218 0.60732 0.02068 0.0
C1887 C 0.14519 0.63379 0.00962 0.0
C1888 C 0.11866 0.63801 0.99708 0.0
C1889 C 0.09928 0.61607 0.9964 0.0
C1890 C 0.18023 0.60219 0.03438 0.0
C1891 C 0.11055 0.66584 0.98473 0.0
H1892 H 0.1793 0.71433 0.05223 0.0
H1893 H 0.21596 0.69114 0.97441 0.0
H1894 H 0.12134 0.67236 0.05033 0.0
H1895 H 0.14617 0.64974 0.06668 0.0
H1896 H 0.14587 0.68642 0.07512 0.0
H1897 H 0.20394 0.6497 0.95104 0.0
H1898 H 0.19031 0.62178 0.97221 0.0
H1899 H 0.16662 0.64378 0.95357 0.0
H1900 H 0.13755 0.56543 0.02831 0.0
H1901 H 0.07889 0.61947 0.98697 0.0
H1902 H 0.18245 0.61593 0.05275 0.0
H1903 H 0.19754 0.60748 0.01992 0.0
H1904 H 0.18276 0.58017 0.04113 0.0
H1905 H 0.11035 0.68204 1.00114 0.0
H1906 H 0.08952 0.66531 0.97475 0.0
H1907 H 0.12628 0.6723 0.96902 0.0
C1908 C 0.34112 0.19467 0.03625 0.0
C1909 C 0.32322 0.19922 0.01364 0.0
C1910 C 0.35982 0.1721 0.03649 0.0
C1911 C 0.36074 0.15387 0.01344 0.0
C1912 C 0.34191 0.15773 0.99104 0.0
C1913 C 0.32324 0.18035 0.99147 0.0
C1914 C 0.37931 0.16841 0.06092 0.0
C1915 C 0.34244 0.13876 0.96606 0.0
C1916 C 0.4301 0.11744 1.00018 0.0
C1917 C 0.42461 0.09056 0.01021 0.0
C1918 C 0.40931 0.13813 1.00076 0.0
C1919 C 0.38258 0.13186 0.01205 0.0
C1920 C 0.37694 0.1048 0.02232 0.0
C1921 C 0.39799 0.08439 0.02109 0.0
C1922 C 0.41597 0.1667 0.9893 0.0
C1923 C 0.3488 0.09752 0.03485 0.0
H1924 H 0.3409 0.20917 0.0535 0.0
H1925 H 0.30957 0.18405 0.97388 0.0
H1926 H 0.37806 0.14673 0.06887 0.0
H1927 H 0.40133 0.17204 0.05428 0.0
H1928 H 0.37436 0.18302 0.07812 0.0
H1929 H 0.32517 0.14344 0.95128 0.0
H1930 H 0.36278 0.14111 0.95507 0.0
H1931 H 0.34072 0.11664 0.97257 0.0
H1932 H 0.45056 0.12222 0.99151 0.0
H1933 H 0.39371 0.06368 0.02909 0.0
H1934 H 0.41408 0.18257 0.00594 0.0
H1935 H 0.40063 0.17229 0.9729 0.0
H1936 H 0.43748 0.16788 0.98043 0.0
H1937 H 0.34447 0.11131 0.05282 0.0
H1938 H 0.34782 0.07547 0.04191 0.0
H1939 H 0.33184 0.10106 0.01948 0.0
C1940 C 0.83429 0.31091 0.01674 0.0
C1941 C 0.81517 0.31235 0.99472 0.0
C1942 C 0.85735 0.3291 0.01807 0.0
C1943 C 0.86144 0.34893 0.99669 0.0
C1944 C 0.84296 0.3495 0.97372 0.0
C1945 C 0.81992 0.33129 0.97309 0.0
C1946 C 0.87652 0.32803 0.04298 0.0
C1947 C 0.84687 0.37007 0.95032 0.0
C1948 C 0.89882 0.41676 0.01336 0.0
C1949 C 0.92583 0.41163 0.00301 0.0
C1950 C 0.87782 0.39631 0.01183 0.0
C1951 C 0.88387 0.37032 0.99921 0.0
C1952 C 0.9111 0.36504 0.98865 0.0
C1953 C 0.93184 0.38571 0.99089 0.0
C1954 C 0.84912 0.40257 0.02367 0.0
C1955 C 0.91819 0.33776 0.97464 0.0
H1956 H 0.83046 0.29645 0.0336 0.0
H1957 H 0.80522 0.33223 0.95595 0.0
H1958 H 0.89877 0.32643 0.03631 0.0
H1959 H 0.87442 0.34763 0.05505 0.0
H1960 H 0.87163 0.31016 0.05682 0.0
H1961 H 0.83212 0.36618 0.93289 0.0
H1962 H 0.8434 0.39158 0.95807 0.0
H1963 H 0.8687 0.36905 0.94232 0.0
H1964 H 0.89416 0.43668 0.02297 0.0
H1965 H 0.95265 0.38175 0.98262 0.0
H1966 H 0.84331 0.38649 0.03918 0.0
H1967 H 0.83312 0.40185 0.00696 0.0
H1968 H 0.84817 0.4234 0.03375 0.0
H1969 H 0.914 0.32009 0.98889 0.0
H1970 H 0.9405 0.3368 0.96794 0.0
H1971 H 0.90459 0.33483 0.95619 0.0
C1972 C 0.69953 0.81466 0.02564 0.0
C1973 C 0.71665 0.81376 0.00214 0.0
C1974 C 0.67641 0.83283 0.02683 0.0
C1975 C 0.67049 0.85035 0.00391 0.0
C1976 C 0.68758 0.84898 0.97989 0.0
C1977 C 0.71056 0.83064 0.97933 0.0
C1978 C 0.65873 0.83373 0.05279 0.0
C1979 C 0.68193 0.8673 0.95505 0.0
C1980 C 0.59852 0.88425 0.99745 0.0
C1981 C 0.60406 0.91143 0.00677 0.0
C1982 C 0.61988 0.86403 0.99658 0.0
C1983 C 0.64732 0.87111 0.00551 0.0
C1984 C 0.65288 0.89834 0.01546 0.0
C1985 C 0.63124 0.91817 0.01585 0.0
C1986 C 0.61322 0.83525 0.98571 0.0
C1987 C 0.68178 0.90664 0.02544 0.0
H1988 H 0.70445 0.80141 0.04321 0.0
H1989 H 0.72399 0.82974 0.96119 0.0
H1990 H 0.66022 0.85469 0.06242 0.0
H1991 H 0.63631 0.83015 0.04759 0.0
H1992 H 0.66539 0.81789 0.06826 0.0
H1993 H 0.69639 0.86274 0.93755 0.0
H1994 H 0.65998 0.86442 0.94785 0.0
H1995 H 0.68435 0.88955 0.96092 0.0
H1996 H 0.57761 0.8789 0.99029 0.0
H1997 H 0.63568 0.93901 0.02341 0.0
H1998 H 0.6187 0.81929 1.00145 0.0
H1999 H 0.6261 0.83088 0.96704 0.0
H2000 H 0.59069 0.83287 0.98018 0.0
H2001 H 0.68881 0.89235 0.04214 0.0
H2002 H 0.68237 0.92837 0.03345 0.0
H2003 H 0.6971 0.90481 0.00821 0.0
C2004 C 0.83647 0.6926 0.02122 0.0
C2005 C 0.81595 0.68959 1.00067 0.0
C2006 C 0.85976 0.67462 0.02212 0.0
C2007 C 0.86262 0.65356 1.00169 0.0
C2008 C 0.84263 0.65149 0.98006 0.0
C2009 C 0.81937 0.66938 0.97998 0.0
C2010 C 0.88046 0.6772 0.04568 0.0
C2011 C 0.84522 0.62966 0.95762 0.0
C2012 C 0.93237 0.61618 0.99267 0.0
C2013 C 0.92699 0.5907 0.00595 0.0
C2014 C 0.91169 0.63699 0.99126 0.0
C2015 C 0.88528 0.63238 0.00394 0.0
C2016 C 0.88 0.60693 0.01792 0.0
C2017 C 0.90083 0.58626 0.01848 0.0
C2018 C 0.91787 0.6636 0.97566 0.0
C2019 C 0.85225 0.60142 0.03209 0.0
H2020 H 0.83358 0.70813 0.03732 0.0
H2021 H 0.80344 0.66723 0.96405 0.0
H2022 H 0.87918 0.65837 0.059 0.0
H2023 H 0.90223 0.67838 0.03758 0.0
H2024 H 0.87638 0.69589 0.0587 0.0
H2025 H 0.8294 0.63255 0.94094 0.0
H2026 H 0.86651 0.63028 0.94828 0.0
H2027 H 0.84234 0.6086 0.96672 0.0
H2028 H 0.95253 0.61957 0.98276 0.0
H2029 H 0.89674 0.56669 0.029 0.0
H2030 H 0.91482 0.68189 0.98942 0.0
H2031 H 0.90295 0.66585 0.95813 0.0
H2032 H 0.93963 0.66411 0.96734 0.0
H2033 H 0.84747 0.61842 0.04696 0.0
H2034 H 0.85212 0.58125 0.04343 0.0
H2035 H 0.83511 0.60109 0.01651 0.0
C2036 C 0.34201 0.80703 0.98306 0.0
C2037 C 0.32277 0.80389 0.00478 0.0
C2038 C 0.36016 0.82997 0.98213 0.0
C2039 C 0.35925 0.84994 0.00372 0.0
C2040 C 0.33904 0.84745 0.02513 0.0
C2041 C 0.32082 0.82444 0.02529 0.0
C2042 C 0.3811 0.83219 0.95871 0.0
C2043 C 0.3377 0.86822 0.04861 0.0
C2044 C 0.42797 0.88707 0.01776 0.0
C2045 C 0.42326 0.91303 0.00531 0.0
C2046 C 0.40698 0.8666 0.01798 0.0
C2047 C 0.38091 0.87211 0.00494 0.0
C2048 C 0.37603 0.89829 0.99231 0.0
C2049 C 0.39723 0.91859 0.99288 0.0
C2050 C 0.41278 0.83903 0.03202 0.0
C2051 C 0.34867 0.90466 0.97778 0.0
H2052 H 0.34327 0.7911 0.96713 0.0
H2053 H 0.30601 0.82178 0.04216 0.0
H2054 H 0.38031 0.8533 0.94931 0.0
H2055 H 0.40267 0.8291 0.96687 0.0
H2056 H 0.37723 0.81646 0.94224 0.0
H2057 H 0.31935 0.86456 0.06237 0.0
H2058 H 0.35715 0.86675 0.0612 0.0
H2059 H 0.33652 0.8898 0.0404 0.0
H2060 H 0.44797 0.88286 0.02769 0.0
H2061 H 0.39362 0.93862 0.98307 0.0
H2062 H 0.41209 0.82192 0.01655 0.0
H2063 H 0.39633 0.83464 0.04771 0.0
H2064 H 0.43362 0.83864 0.0424 0.0
H2065 H 0.34551 0.88982 0.96041 0.0
H2066 H 0.34805 0.92625 0.96942 0.0
H2067 H 0.3308 0.90189 0.99228 0.0
C2068 C 0.70367 0.18168 0.98534 0.0
C2069 C 0.71732 0.18815 0.01015 0.0
C2070 C 0.68082 0.16316 0.98505 0.0
C2071 C 0.67162 0.15098 0.01023 0.0
C2072 C 0.68516 0.15802 0.03543 0.0
C2073 C 0.70797 0.17659 0.03507 0.0
C2074 C 0.66694 0.15617 0.95779 0.0
C2075 C 0.67595 0.14549 0.06266 0.0
C2076 C 0.59907 0.11783 0.0128 0.0
C2077 C 0.6055 0.08943 0.00943 0.0
C2078 C 0.62036 0.13813 0.01316 0.0
C2079 C 0.64873 0.12986 0.01001 0.0
C2080 C 0.65538 0.1013 0.00658 0.0
C2081 C 0.63373 0.08146 0.00635 0.0
C2082 C 0.6125 0.16841 0.01691 0.0
C2083 C 0.6854 0.09165 0.0031 0.0
H2084 H 0.7111 0.19083 0.96614 0.0
H2085 H 0.71872 0.18181 0.0542 0.0
H2086 H 0.66961 0.13363 0.95325 0.0
H2087 H 0.64403 0.1603 0.95901 0.0
H2088 H 0.67583 0.16836 0.94028 0.0
H2089 H 0.68783 0.15413 0.08053 0.0
H2090 H 0.65322 0.14935 0.06603 0.0
H2091 H 0.67901 0.12255 0.06217 0.0
H2092 H 0.57739 0.12427 0.01529 0.0
H2093 H 0.63905 0.05965 0.00362 0.0
H2094 H 0.61977 0.18073 0.99882 0.0
H2095 H 0.62314 0.17701 0.0355 0.0
H2096 H 0.58947 0.17139 0.01927 0.0
H2097 H 0.69487 0.10171 0.98462 0.0
H2098 H 0.68703 0.06866 1.00068 0.0
H2099 H 0.69805 0.09803 0.02134 0.0
C2100 C 0.54159 0.69529 0.83699 0.0
C2101 C 0.51962 0.70025 0.81826 0.0
C2102 C 0.54086 0.67245 0.85518 0.0
C2103 C 0.51739 0.65429 0.8549 0.0
C2104 C 0.49561 0.65862 0.83532 0.0
C2105 C 0.49708 0.68148 0.81708 0.0
C2106 C 0.56475 0.66836 0.87537 0.0
C2107 C 0.47014 0.63986 0.83451 0.0
C2108 C 0.52432 0.58423 0.8915 0.0
C2109 C 0.51283 0.59015 0.91765 0.0
C2110 C 0.52576 0.60479 0.87079 0.0
C2111 C 0.51502 0.63181 0.87616 0.0
C2112 C 0.50289 0.63773 0.90234 0.0
C2113 C 0.50217 0.61692 0.92283 0.0
C2114 C 0.53928 0.59775 0.84336 0.0
C2115 C 0.49086 0.66614 0.90882 0.0
H2116 H 0.55913 0.70971 0.83781 0.0
H2117 H 0.47994 0.68545 0.80281 0.0
H2118 H 0.5571 0.6717 0.89684 0.0
H2119 H 0.57278 0.64667 0.87414 0.0
H2120 H 0.58244 0.68296 0.87145 0.0
H2121 H 0.45595 0.6449 0.81693 0.0
H2122 H 0.47666 0.61771 0.8328 0.0
H2123 H 0.45817 0.64204 0.85412 0.0
H2124 H 0.5328 0.56365 0.8874 0.0
H2125 H 0.49301 0.62157 0.94288 0.0
H2126 H 0.55793 0.61124 0.84003 0.0
H2127 H 0.52442 0.60195 0.82615 0.0
H2128 H 0.54603 0.57559 0.84222 0.0
H2129 H 0.50776 0.68206 0.90806 0.0
H2130 H 0.48083 0.66693 0.92959 0.0
H2131 H 0.47499 0.67197 0.893 0.0
C2132 C 0.32764 0.47874 0.82068 0.0
C2133 C 0.32803 0.50177 0.80295 0.0
C2134 C 0.34492 0.47798 0.84427 0.0
C2135 C 0.36283 0.50087 0.85004 0.0
C2136 C 0.36273 0.52445 0.83232 0.0
C2137 C 0.34526 0.52458 0.80887 0.0
C2138 C 0.34449 0.45247 0.86261 0.0
C2139 C 0.38148 0.54925 0.8378 0.0
C2140 C 0.39497 0.50911 0.92181 0.0
C2141 C 0.42233 0.4992 0.91736 0.0
C2142 C 0.3752 0.50955 0.90016 0.0
C2143 C 0.38293 0.49952 0.87361 0.0
C2144 C 0.41027 0.4888 0.86925 0.0
C2145 C 0.42964 0.4889 0.8911 0.0
C2146 C 0.34626 0.52126 0.90552 0.0
C2147 C 0.41925 0.47756 0.84136 0.0
H2148 H 0.31406 0.4612 0.81593 0.0
H2149 H 0.34528 0.5424 0.79502 0.0
H2150 H 0.36538 0.44219 0.86219 0.0
H2151 H 0.34027 0.45856 0.88439 0.0
H2152 H 0.32836 0.43709 0.85601 0.0
H2153 H 0.37779 0.56651 0.82287 0.0
H2154 H 0.37797 0.55722 0.8591 0.0
H2155 H 0.40383 0.54283 0.83637 0.0
H2156 H 0.38921 0.51718 0.94202 0.0
H2157 H 0.45062 0.48082 0.88757 0.0
H2158 H 0.33 0.50567 0.89991 0.0
H2159 H 0.34276 0.53986 0.89228 0.0
H2160 H 0.34325 0.52737 0.92753 0.0
H2161 H 0.44089 0.46886 0.84175 0.0
H2162 H 0.41842 0.49444 0.82566 0.0
H2163 H 0.4046 0.46094 0.8345 0.0
C2164 C 0.48986 0.31566 0.82219 0.0
C2165 C 0.51391 0.31362 0.80568 0.0
C2166 C 0.48906 0.33396 0.84497 0.0
C2167 C 0.51292 0.35051 0.85125 0.0
C2168 C 0.53747 0.34798 0.83478 0.0
C2169 C 0.53764 0.32954 0.81212 0.0
C2170 C 0.46251 0.33602 0.86196 0.0
C2171 C 0.56335 0.36518 0.84076 0.0
C2172 C 0.50272 0.41884 0.89008 0.0
C2173 C 0.51091 0.41171 0.91712 0.0
C2174 C 0.50293 0.39905 0.86862 0.0
C2175 C 0.51181 0.37141 0.87417 0.0
C2176 C 0.51997 0.36399 0.90144 0.0
C2177 C 0.51928 0.38417 0.92261 0.0
C2178 C 0.49381 0.40782 0.83994 0.0
C2179 C 0.52975 0.3348 0.90818 0.0
H2180 H 0.47155 0.30321 0.81706 0.0
H2181 H 0.55621 0.32781 0.79921 0.0
H2182 H 0.46722 0.33219 0.88415 0.0
H2183 H 0.45373 0.3574 0.86036 0.0
H2184 H 0.44623 0.32091 0.85509 0.0
H2185 H 0.58113 0.35981 0.82682 0.0
H2186 H 0.55845 0.38766 0.83824 0.0
H2187 H 0.57013 0.36203 0.86253 0.0
H2188 H 0.49594 0.43996 0.88562 0.0
H2189 H 0.5258 0.37847 0.94338 0.0
H2190 H 0.47631 0.39437 0.8327 0.0
H2191 H 0.51145 0.40509 0.82515 0.0
H2192 H 0.48681 0.42992 0.8392 0.0
H2193 H 0.5131 0.31952 0.90282 0.0
H2194 H 0.5352 0.33231 0.93043 0.0
H2195 H 0.54849 0.32955 0.89554 0.0
C2196 C 0.70934 0.52379 0.83836 0.0
C2197 C 0.71291 0.50228 0.81901 0.0
C2198 C 0.68616 0.52414 0.8563 0.0
C2199 C 0.66636 0.50211 0.85523 0.0
C2200 C 0.66942 0.48076 0.83511 0.0
C2201 C 0.69261 0.48123 0.81704 0.0
C2202 C 0.68341 0.54757 0.87706 0.0
C2203 C 0.64898 0.45674 0.83357 0.0
C2204 C 0.62775 0.48786 0.92269 0.0
C2205 C 0.6015 0.50013 0.91768 0.0
C2206 C 0.64872 0.48769 0.90224 0.0
C2207 C 0.64355 0.50063 0.87633 0.0
C2208 C 0.61706 0.51304 0.87114 0.0
C2209 C 0.59625 0.5124 0.89179 0.0
C2210 C 0.67652 0.47384 0.90846 0.0
C2211 C 0.61091 0.52752 0.84403 0.0
H2212 H 0.72508 0.54009 0.83978 0.0
H2213 H 0.69559 0.46447 0.80223 0.0
H2214 H 0.66209 0.55686 0.87598 0.0
H2215 H 0.68624 0.53927 0.89834 0.0
H2216 H 0.69917 0.5643 0.87358 0.0
H2217 H 0.65328 0.44279 0.81567 0.0
H2218 H 0.65027 0.44426 0.8529 0.0
H2219 H 0.62713 0.46463 0.83191 0.0
H2220 H 0.63182 0.4781 0.94256 0.0
H2221 H 0.57607 0.52211 0.88787 0.0
H2222 H 0.69357 0.48962 0.90817 0.0
H2223 H 0.68147 0.45817 0.89225 0.0
H2224 H 0.67662 0.46332 0.92897 0.0
H2225 H 0.62568 0.54519 0.84113 0.0
H2226 H 0.58908 0.53566 0.84304 0.0
H2227 H 0.6142 0.51293 0.82649 0.0
C2228 C 0.53801 0.30547 0.17669 0.0
C2229 C 0.51658 0.30186 0.19628 0.0
C2230 C 0.53788 0.32824 0.15841 0.0
C2231 C 0.51543 0.34762 0.15936 0.0
C2232 C 0.49416 0.34454 0.17973 0.0
C2233 C 0.49512 0.32176 0.19813 0.0
C2234 C 0.56125 0.33098 0.13742 0.0
C2235 C 0.46972 0.36454 0.18122 0.0
C2236 C 0.52459 0.41705 0.12197 0.0
C2237 C 0.51212 0.41148 0.09619 0.0
C2238 C 0.52568 0.39658 0.14281 0.0
C2239 C 0.51349 0.37006 0.13798 0.0
C2240 C 0.50037 0.36454 0.11218 0.0
C2241 C 0.50011 0.38519 0.09151 0.0
C2242 C 0.54041 0.40313 0.16975 0.0
C2243 C 0.48672 0.33671 0.10632 0.0
H2244 H 0.5546 0.29002 0.17529 0.0
H2245 H 0.47839 0.31876 0.21309 0.0
H2246 H 0.55275 0.32776 0.11626 0.0
H2247 H 0.57033 0.35229 0.13813 0.0
H2248 H 0.57835 0.31561 0.14097 0.0
H2249 H 0.45588 0.3603 0.19928 0.0
H2250 H 0.47739 0.38634 0.18258 0.0
H2251 H 0.45702 0.36286 0.16201 0.0
H2252 H 0.53412 0.43725 0.12567 0.0
H2253 H 0.4902 0.38085 0.07175 0.0
H2254 H 0.55864 0.38896 0.17244 0.0
H2255 H 0.52604 0.3995 0.18748 0.0
H2256 H 0.54802 0.42502 0.1706 0.0
H2257 H 0.50281 0.31997 0.10672 0.0
H2258 H 0.47603 0.33627 0.08586 0.0
H2259 H 0.47108 0.33181 0.12266 0.0
C2260 C 0.7071 0.47379 0.17746 0.0
C2261 C 0.71113 0.49565 0.1963 0.0
C2262 C 0.68416 0.47377 0.15924 0.0
C2263 C 0.66512 0.49646 0.15955 0.0
C2264 C 0.66855 0.51812 0.17928 0.0
C2265 C 0.69149 0.51735 0.19763 0.0
C2266 C 0.68099 0.45003 0.13889 0.0
C2267 C 0.64885 0.54279 0.18005 0.0
C2268 C 0.62817 0.51095 0.09125 0.0
C2269 C 0.60143 0.49971 0.09607 0.0
C2270 C 0.64884 0.51063 0.11201 0.0
C2271 C 0.64279 0.4983 0.13802 0.0
C2272 C 0.61584 0.48689 0.14299 0.0
C2273 C 0.59541 0.48794 0.12203 0.0
C2274 C 0.67723 0.52337 0.10603 0.0
C2275 C 0.60876 0.47305 0.17022 0.0
H2276 H 0.72242 0.45707 0.1765 0.0
H2277 H 0.6949 0.53438 0.21203 0.0
H2278 H 0.65931 0.44155 0.13965 0.0
H2279 H 0.68461 0.45778 0.11753 0.0
H2280 H 0.69602 0.43281 0.14305 0.0
H2281 H 0.65322 0.55685 0.19784 0.0
H2282 H 0.65096 0.55493 0.16058 0.0
H2283 H 0.62673 0.53562 0.18136 0.0
H2284 H 0.63287 0.5203 0.07133 0.0
H2285 H 0.57484 0.47899 0.12582 0.0
H2286 H 0.69372 0.50705 0.10705 0.0
H2287 H 0.68237 0.53927 0.12196 0.0
H2288 H 0.6781 0.53337 0.08528 0.0
H2289 H 0.62252 0.45464 0.17336 0.0
H2290 H 0.58651 0.46611 0.17116 0.0
H2291 H 0.61273 0.48762 0.18765 0.0
C2292 C 0.49128 0.68579 0.19196 0.0
C2293 C 0.51558 0.68812 0.20808 0.0
C2294 C 0.49028 0.66742 0.16922 0.0
C2295 C 0.5142 0.65109 0.16259 0.0
C2296 C 0.53898 0.65389 0.17867 0.0
C2297 C 0.53934 0.6724 0.20129 0.0
C2298 C 0.46347 0.66508 0.15267 0.0
C2299 C 0.56493 0.63693 0.17232 0.0
C2300 C 0.50409 0.58264 0.12382 0.0
C2301 C 0.51183 0.58985 0.09666 0.0
C2302 C 0.50443 0.60243 0.14529 0.0
C2303 C 0.51294 0.63017 0.13965 0.0
C2304 C 0.52063 0.63767 0.11227 0.0
C2305 C 0.51985 0.61748 0.09109 0.0
C2306 C 0.49582 0.59356 0.1741 0.0
C2307 C 0.52998 0.66696 0.10541 0.0
H2308 H 0.47293 0.69806 0.19736 0.0
H2309 H 0.55811 0.67432 0.21389 0.0
H2310 H 0.46778 0.66896 0.1304 0.0
H2311 H 0.45496 0.6436 0.1544 0.0
H2312 H 0.44715 0.68002 0.15979 0.0
H2313 H 0.58286 0.64245 0.186 0.0
H2314 H 0.56027 0.6144 0.17489 0.0
H2315 H 0.57135 0.64014 0.15045 0.0
H2316 H 0.49758 0.56146 0.12836 0.0
H2317 H 0.526 0.62326 0.07024 0.0
H2318 H 0.47826 0.60679 0.18156 0.0
H2319 H 0.51363 0.59651 0.18865 0.0
H2320 H 0.48911 0.57138 0.17493 0.0
H2321 H 0.51321 0.68204 0.11094 0.0
H2322 H 0.53514 0.6695 0.08309 0.0
H2323 H 0.5488 0.67244 0.11783 0.0
C2324 C 0.31945 0.53418 0.1794 0.0
C2325 C 0.3148 0.51223 0.19802 0.0
C2326 C 0.34186 0.53335 0.16059 0.0
C2327 C 0.35985 0.50984 0.16026 0.0
C2328 C 0.35594 0.48813 0.17978 0.0
C2329 C 0.33348 0.48965 0.19857 0.0
C2330 C 0.34562 0.55711 0.14037 0.0
C2331 C 0.37463 0.46267 0.17993 0.0
C2332 C 0.39541 0.49376 0.09172 0.0
C2333 C 0.42266 0.50376 0.09639 0.0
C2334 C 0.3749 0.49518 0.11254 0.0
C2335 C 0.38173 0.50732 0.13846 0.0
C2336 C 0.40917 0.51756 0.14325 0.0
C2337 C 0.42938 0.51547 0.12221 0.0
C2338 C 0.34591 0.48376 0.10677 0.0
C2339 C 0.41709 0.53106 0.17044 0.0
H2340 H 0.30507 0.55173 0.17913 0.0
H2341 H 0.3297 0.47254 0.21278 0.0
H2342 H 0.36758 0.56484 0.14096 0.0
H2343 H 0.34152 0.54964 0.11898 0.0
H2344 H 0.33123 0.57481 0.1448 0.0
H2345 H 0.36995 0.44853 0.19757 0.0
H2346 H 0.37177 0.4509 0.16032 0.0
H2347 H 0.39704 0.46895 0.18104 0.0
H2348 H 0.39019 0.4845 0.07187 0.0
H2349 H 0.45036 0.52351 0.12585 0.0
H2350 H 0.33018 0.50078 0.10813 0.0
H2351 H 0.34025 0.46796 0.12262 0.0
H2352 H 0.34435 0.47398 0.08595 0.0
H2353 H 0.40347 0.54944 0.17429 0.0
H2354 H 0.43938 0.53795 0.17083 0.0
H2355 H 0.41362 0.51622 0.18774 0.0
C2356 C 0.81811 0.52419 0.67912 0.0
C2357 C 0.8118 0.50025 0.69444 0.0
C2358 C 0.8405 0.5243 0.66012 0.0
C2359 C 0.85679 0.49982 0.65642 0.0
C2360 C 0.85062 0.4757 0.67231 0.0
C2361 C 0.82811 0.47623 0.69119 0.0
C2362 C 0.84641 0.55044 0.64368 0.0
C2363 C 0.86745 0.44921 0.66899 0.0
C2364 C 0.895 0.49121 0.58769 0.0
C2365 C 0.92265 0.49857 0.59471 0.0
C2366 C 0.87349 0.49128 0.60762 0.0
C2367 C 0.87963 0.49917 0.63525 0.0
C2368 C 0.90746 0.50665 0.64251 0.0
C2369 C 0.92865 0.50613 0.62221 0.0
C2370 C 0.84413 0.48298 0.59906 0.0
C2371 C 0.91482 0.51543 0.67167 0.0
H2372 H 0.80532 0.54273 0.68177 0.0
H2373 H 0.82304 0.45775 0.70315 0.0
H2374 H 0.8686 0.55692 0.64658 0.0
H2375 H 0.84339 0.54626 0.62126 0.0
H2376 H 0.83252 0.56803 0.64978 0.0
H2377 H 0.86053 0.43259 0.68351 0.0
H2378 H 0.86535 0.44133 0.64747 0.0
H2379 H 0.89007 0.45347 0.6726 0.0
H2380 H 0.89013 0.48516 0.56659 0.0
H2381 H 0.94987 0.51208 0.62785 0.0
H2382 H 0.82942 0.50054 0.60276 0.0
H2383 H 0.83682 0.46515 0.61183 0.0
H2384 H 0.84291 0.47696 0.57686 0.0
H2385 H 0.90209 0.53384 0.67773 0.0
H2386 H 0.93742 0.52079 0.67393 0.0
H2387 H 0.90969 0.49841 0.68639 0.0
C2388 C 0.53488 0.8053 0.6798 0.0
C2389 C 0.51029 0.79921 0.69444 0.0
C2390 C 0.53581 0.82771 0.66102 0.0
C2391 C 0.5115 0.84429 0.65685 0.0
C2392 C 0.48672 0.83834 0.67206 0.0
C2393 C 0.48643 0.8158 0.69072 0.0
C2394 C 0.56264 0.83334 0.64529 0.0
C2395 C 0.46038 0.85546 0.66823 0.0
C2396 C 0.51977 0.91581 0.62317 0.0
C2397 C 0.51274 0.9101 0.59548 0.0
C2398 C 0.51948 0.89464 0.64337 0.0
C2399 C 0.5117 0.86714 0.6358 0.0
C2400 C 0.50431 0.86133 0.60796 0.0
C2401 C 0.50504 0.8828 0.58816 0.0
C2402 C 0.52769 0.90167 0.67277 0.0
C2403 C 0.49569 0.83237 0.59901 0.0
H2404 H 0.5533 0.79233 0.68281 0.0
H2405 H 0.46743 0.81093 0.70216 0.0
H2406 H 0.55897 0.83056 0.62275 0.0
H2407 H 0.56939 0.85526 0.64852 0.0
H2408 H 0.58 0.81927 0.65174 0.0
H2409 H 0.44319 0.84874 0.68229 0.0
H2410 H 0.46491 0.87783 0.6721 0.0
H2411 H 0.45294 0.85365 0.64651 0.0
H2412 H 0.52591 0.93677 0.62904 0.0
H2413 H 0.49933 0.87816 0.56691 0.0
H2414 H 0.54591 0.88876 0.67919 0.0
H2415 H 0.51012 0.89671 0.68705 0.0
H2416 H 0.53331 0.92402 0.67529 0.0
H2417 H 0.51313 0.8175 0.60285 0.0
H2418 H 0.48997 0.83142 0.57671 0.0
H2419 H 0.47744 0.82523 0.61143 0.0
C2420 C 0.20536 0.48224 0.68584 0.0
C2421 C 0.20237 0.50268 0.70635 0.0
C2422 C 0.18713 0.48155 0.66295 0.0
C2423 C 0.16584 0.50207 0.66045 0.0
C2424 C 0.16368 0.5235 0.68053 0.0
C2425 C 0.18183 0.52338 0.70339 0.0
C2426 C 0.18983 0.4582 0.64213 0.0
C2427 C 0.14162 0.54606 0.67834 0.0
C2428 C 0.12912 0.51295 0.59143 0.0
C2429 C 0.10336 0.49951 0.59603 0.0
C2430 C 0.14981 0.51378 0.61213 0.0
C2431 C 0.14478 0.50037 0.63778 0.0
C2432 C 0.11905 0.48621 0.64227 0.0
C2433 C 0.09851 0.48622 0.62143 0.0
C2434 C 0.17674 0.52955 0.60678 0.0
C2435 C 0.11309 0.47128 0.66919 0.0
H2436 H 0.22115 0.46613 0.68835 0.0
H2437 H 0.1797 0.53926 0.71927 0.0
H2438 H 0.17072 0.44495 0.64282 0.0
H2439 H 0.19144 0.46677 0.62084 0.0
H2440 H 0.20846 0.44484 0.64617 0.0
H2441 H 0.14422 0.56241 0.69445 0.0
H2442 H 0.14252 0.55607 0.65763 0.0
H2443 H 0.12041 0.53673 0.6806 0.0
H2444 H 0.13285 0.52343 0.57186 0.0
H2445 H 0.07874 0.47555 0.62493 0.0
H2446 H 0.19509 0.51561 0.60978 0.0
H2447 H 0.17879 0.54689 0.62189 0.0
H2448 H 0.17761 0.53837 0.5855 0.0
H2449 H 0.13013 0.45616 0.67376 0.0
H2450 H 0.09275 0.4599 0.66875 0.0
H2451 H 0.11255 0.48653 0.68648 0.0
C2452 C 0.53846 0.16975 0.70305 0.0
C2453 C 0.51687 0.1893 0.70668 0.0
C2454 C 0.53866 0.15167 0.68018 0.0
C2455 C 0.51641 0.1528 0.66072 0.0
C2456 C 0.49498 0.17312 0.66384 0.0
C2457 C 0.4956 0.19132 0.68673 0.0
C2458 C 0.56219 0.13072 0.67739 0.0
C2459 C 0.47075 0.17476 0.64374 0.0
C2460 C 0.52676 0.11619 0.5914 0.0
C2461 C 0.51442 0.09008 0.59645 0.0
C2462 C 0.52738 0.13691 0.612 0.0
C2463 C 0.51486 0.13161 0.63811 0.0
C2464 C 0.50183 0.1055 0.64308 0.0
C2465 C 0.50203 0.08496 0.62231 0.0
C2466 C 0.54196 0.16423 0.60604 0.0
C2467 C 0.48786 0.09914 0.67046 0.0
H2468 H 0.55494 0.16827 0.7185 0.0
H2469 H 0.47876 0.20626 0.68973 0.0
H2470 H 0.55377 0.10931 0.68009 0.0
H2471 H 0.57154 0.13185 0.65636 0.0
H2472 H 0.57906 0.13411 0.69294 0.0
H2473 H 0.45674 0.19279 0.64808 0.0
H2474 H 0.47864 0.17649 0.62219 0.0
H2475 H 0.45815 0.15532 0.64498 0.0
H2476 H 0.53655 0.12021 0.57151 0.0
H2477 H 0.49219 0.06494 0.62624 0.0
H2478 H 0.55973 0.16713 0.62065 0.0
H2479 H 0.52725 0.18187 0.60928 0.0
H2480 H 0.55022 0.16528 0.58452 0.0
H2481 H 0.50371 0.09953 0.68732 0.0
H2482 H 0.4774 0.07841 0.67051 0.0
H2483 H 0.47196 0.11535 0.67529 0.0
C2484 C 0.82917 0.52186 0.32054 0.0
C2485 C 0.81244 0.49796 0.31887 0.0
C2486 C 0.85203 0.52303 0.33896 0.0
C2487 C 0.85812 0.49971 0.35599 0.0
C2488 C 0.84143 0.4753 0.35385 0.0
C2489 C 0.8187 0.47476 0.33527 0.0
C2490 C 0.86927 0.54942 0.34065 0.0
C2491 C 0.84724 0.44999 0.37158 0.0
C2492 C 0.93003 0.49387 0.3902 0.0
C2493 C 0.92417 0.50266 0.41734 0.0
C2494 C 0.9088 0.4929 0.36996 0.0
C2495 C 0.88112 0.50122 0.37692 0.0
C2496 C 0.87521 0.51056 0.40415 0.0
C2497 C 0.89673 0.51103 0.42402 0.0
C2498 C 0.91589 0.48258 0.34124 0.0
C2499 C 0.84605 0.51985 0.41239 0.0
H2500 H 0.82413 0.53977 0.30773 0.0
H2501 H 0.80558 0.45631 0.33384 0.0
H2502 H 0.86741 0.55858 0.36169 0.0
H2503 H 0.8918 0.54464 0.33719 0.0
H2504 H 0.8625 0.56526 0.32524 0.0
H2505 H 0.83312 0.43225 0.3665 0.0
H2506 H 0.86933 0.44314 0.36886 0.0
H2507 H 0.84444 0.45538 0.39378 0.0
H2508 H 0.95111 0.48716 0.38489 0.0
H2509 H 0.89202 0.51808 0.44486 0.0
H2510 H 0.91061 0.49878 0.32567 0.0
H2511 H 0.90311 0.46387 0.3363 0.0
H2512 H 0.93847 0.4771 0.33907 0.0
H2513 H 0.83877 0.53678 0.39847 0.0
H2514 H 0.84516 0.52748 0.43412 0.0
H2515 H 0.83111 0.50223 0.41013 0.0
C2516 C 0.49799 0.81033 0.32769 0.0
C2517 C 0.51931 0.81211 0.30776 0.0
C2518 C 0.49755 0.82855 0.35059 0.0
C2519 C 0.51922 0.84862 0.35377 0.0
C2520 C 0.54151 0.84946 0.33435 0.0
C2521 C 0.54112 0.8314 0.31145 0.0
C2522 C 0.47323 0.82721 0.37061 0.0
C2523 C 0.5653 0.87012 0.3372 0.0
C2524 C 0.50519 0.91665 0.39206 0.0
C2525 C 0.51721 0.91141 0.41807 0.0
C2526 C 0.50506 0.89613 0.37126 0.0
C2527 C 0.5178 0.86989 0.37635 0.0
C2528 C 0.53001 0.86449 0.40258 0.0
C2529 C 0.5293 0.88521 0.42322 0.0
C2530 C 0.49138 0.90261 0.34377 0.0
C2531 C 0.54432 0.83707 0.40867 0.0
H2532 H 0.48097 0.79561 0.32464 0.0
H2533 H 0.55761 0.83273 0.296 0.0
H2534 H 0.48103 0.82542 0.39219 0.0
H2535 H 0.46087 0.8468 0.3693 0.0
H2536 H 0.45903 0.80934 0.36625 0.0
H2537 H 0.58223 0.86644 0.32177 0.0
H2538 H 0.55718 0.89162 0.33433 0.0
H2539 H 0.5745 0.86897 0.35829 0.0
H2540 H 0.49554 0.93673 0.38805 0.0
H2541 H 0.5388 0.88109 0.44323 0.0
H2542 H 0.47535 0.88655 0.33882 0.0
H2543 H 0.50735 0.90205 0.32704 0.0
H2544 H 0.48112 0.92343 0.34362 0.0
H2545 H 0.52954 0.81953 0.40517 0.0
H2546 H 0.55226 0.83591 0.43029 0.0
H2547 H 0.56227 0.8341 0.39429 0.0
C2548 C 0.21242 0.47483 0.33939 0.0
C2549 C 0.21819 0.49772 0.32242 0.0
C2550 C 0.18958 0.47536 0.35779 0.0
C2551 C 0.17233 0.49943 0.35913 0.0
C2552 C 0.178 0.52246 0.34159 0.0
C2553 C 0.20096 0.52129 0.32336 0.0
C2554 C 0.18417 0.45038 0.37609 0.0
C2555 C 0.16014 0.54848 0.34247 0.0
C2556 C 0.10011 0.49272 0.39218 0.0
C2557 C 0.10535 0.50218 0.41921 0.0
C2558 C 0.12168 0.49179 0.37234 0.0
C2559 C 0.14902 0.50087 0.37961 0.0
C2560 C 0.15429 0.51095 0.40669 0.0
C2561 C 0.13245 0.51133 0.42619 0.0
C2562 C 0.11534 0.4807 0.34372 0.0
C2563 C 0.18307 0.52115 0.41515 0.0
H2564 H 0.22594 0.45663 0.33846 0.0
H2565 H 0.20563 0.53892 0.31004 0.0
H2566 H 0.1864 0.45642 0.39818 0.0
H2567 H 0.16232 0.44286 0.37317 0.0
H2568 H 0.19885 0.43291 0.37173 0.0
H2569 H 0.16682 0.56417 0.32685 0.0
H2570 H 0.13779 0.54313 0.33872 0.0
H2571 H 0.16141 0.5581 0.36335 0.0
H2572 H 0.07928 0.48547 0.38667 0.0
H2573 H 0.13663 0.51896 0.44694 0.0
H2574 H 0.1285 0.46208 0.33949 0.0
H2575 H 0.12069 0.4966 0.32788 0.0
H2576 H 0.0929 0.47483 0.34124 0.0
H2577 H 0.19853 0.50392 0.41337 0.0
H2578 H 0.18347 0.52916 0.43676 0.0
H2579 H 0.19006 0.53806 0.40104 0.0
C2580 C 0.54092 0.19744 0.33693 0.0
C2581 C 0.51734 0.2026 0.32043 0.0
C2582 C 0.54131 0.17496 0.35566 0.0
C2583 C 0.51748 0.15735 0.35789 0.0
C2584 C 0.49375 0.16236 0.34081 0.0
C2585 C 0.49399 0.185 0.32224 0.0
C2586 C 0.56703 0.17035 0.3734 0.0
C2587 C 0.46793 0.14416 0.34254 0.0
C2588 C 0.52616 0.08603 0.39199 0.0
C2589 C 0.51692 0.09133 0.41912 0.0
C2590 C 0.52647 0.10726 0.37184 0.0
C2591 C 0.51699 0.13439 0.37885 0.0
C2592 C 0.5073 0.13975 0.40609 0.0
C2593 C 0.50753 0.11826 0.42588 0.0
C2594 C 0.53717 0.10073 0.34312 0.0
C2595 C 0.49672 0.16826 0.4144 0.0
H2596 H 0.55894 0.2112 0.33543 0.0
H2597 H 0.47578 0.18914 0.30937 0.0
H2598 H 0.56147 0.17287 0.39559 0.0
H2599 H 0.57492 0.14875 0.37066 0.0
H2600 H 0.58423 0.18516 0.36834 0.0
H2601 H 0.45165 0.15024 0.32719 0.0
H2602 H 0.47369 0.12201 0.339 0.0
H2603 H 0.45872 0.14555 0.36362 0.0
H2604 H 0.5336 0.06536 0.38657 0.0
H2605 H 0.50006 0.12255 0.44667 0.0
H2606 H 0.55529 0.11439 0.3381 0.0
H2607 H 0.52055 0.10506 0.32758 0.0
H2608 H 0.54388 0.07863 0.34097 0.0
H2609 H 0.51364 0.18394 0.41174 0.0
H2610 H 0.48942 0.16889 0.43626 0.0
H2611 H 0.47905 0.17455 0.40077 0.0
C2612 C 0.67826 0.80045 0.53849 0.0
C2613 C 0.69824 0.79544 0.51792 0.0
C2614 C 0.66091 0.82407 0.53716 0.0
C2615 C 0.66375 0.84282 0.51463 0.0
C2616 C 0.68442 0.83794 0.49407 0.0
C2617 C 0.70151 0.81418 0.496 0.0
C2618 C 0.63917 0.82864 0.5595 0.0
C2619 C 0.68799 0.85743 0.46974 0.0
C2620 C 0.59888 0.88479 0.49672 0.0
C2621 C 0.60497 0.91067 0.50885 0.0
C2622 C 0.61817 0.86278 0.49787 0.0
C2623 C 0.64403 0.86663 0.51183 0.0
C2624 C 0.65053 0.89285 0.52374 0.0
C2625 C 0.63096 0.9147 0.52192 0.0
C2626 C 0.61066 0.83525 0.48452 0.0
C2627 C 0.67781 0.8976 0.539 0.0
H2628 H 0.67602 0.78577 0.55545 0.0
H2629 H 0.71722 0.81008 0.48023 0.0
H2630 H 0.64161 0.84973 0.56865 0.0
H2631 H 0.6178 0.82755 0.55037 0.0
H2632 H 0.64068 0.81291 0.57634 0.0
H2633 H 0.70593 0.85136 0.4563 0.0
H2634 H 0.66856 0.85749 0.45704 0.0
H2635 H 0.69138 0.87908 0.47713 0.0
H2636 H 0.57895 0.88171 0.48626 0.0
H2637 H 0.63566 0.93464 0.53144 0.0
H2638 H 0.60943 0.81873 0.50057 0.0
H2639 H 0.62723 0.82901 0.4696 0.0
H2640 H 0.59023 0.83612 0.4734 0.0
H2641 H 0.67897 0.88351 0.5572 0.0
H2642 H 0.68006 0.91947 0.54629 0.0
H2643 H 0.69587 0.89249 0.52538 0.0
C2644 C 0.68282 0.19836 0.48282 0.0
C2645 C 0.6992 0.20575 0.50567 0.0
C2646 C 0.66541 0.17477 0.48379 0.0
C2647 C 0.66452 0.15842 0.50824 0.0
C2648 C 0.68156 0.16569 0.53121 0.0
C2649 C 0.6988 0.1894 0.52961 0.0
C2650 C 0.64755 0.16768 0.45889 0.0
C2651 C 0.68112 0.1488 0.55761 0.0
C2652 C 0.59746 0.11757 0.51972 0.0
C2653 C 0.60519 0.09074 0.51093 0.0
C2654 C 0.61679 0.13958 0.51958 0.0
C2655 C 0.64454 0.13472 0.51025 0.0
C2656 C 0.65273 0.10758 0.50193 0.0
C2657 C 0.63295 0.08582 0.50249 0.0
C2658 C 0.60732 0.16817 0.52891 0.0
C2659 C 0.68215 0.10169 0.49181 0.0
H2660 H 0.68344 0.21117 0.4643 0.0
H2661 H 0.71174 0.19531 0.54716 0.0
H2662 H 0.65149 0.14584 0.45233 0.0
H2663 H 0.62498 0.16927 0.46442 0.0
H2664 H 0.65173 0.18173 0.44105 0.0
H2665 H 0.69664 0.15645 0.57303 0.0
H2666 H 0.65987 0.14971 0.56703 0.0
H2667 H 0.68565 0.12657 0.55303 0.0
H2668 H 0.57616 0.12149 0.52668 0.0
H2669 H 0.63905 0.06516 0.49563 0.0
H2670 H 0.60868 0.18304 0.51135 0.0
H2671 H 0.62135 0.17606 0.54552 0.0
H2672 H 0.58539 0.16813 0.5368 0.0
H2673 H 0.68628 0.11377 0.47263 0.0
H2674 H 0.68555 0.0792 0.48734 0.0
H2675 H 0.69775 0.10851 0.50749 0.0
C2676 C 0.8214 0.67767 0.53185 0.0
C2677 C 0.82306 0.69831 0.51141 0.0
C2678 C 0.83967 0.6547 0.53137 0.0
C2679 C 0.85961 0.65233 0.5097 0.0
C2680 C 0.86028 0.67243 0.48825 0.0
C2681 C 0.84209 0.69533 0.48949 0.0
C2682 C 0.83859 0.63377 0.55472 0.0
C2683 C 0.88094 0.67035 0.46457 0.0
C2684 C 0.92838 0.61474 0.52232 0.0
C2685 C 0.92341 0.58898 0.50952 0.0
C2686 C 0.90745 0.63527 0.52314 0.0
C2687 C 0.88116 0.63003 0.51042 0.0
C2688 C 0.876 0.60404 0.4975 0.0
C2689 C 0.89715 0.5837 0.49741 0.0
C2690 C 0.91358 0.66266 0.53741 0.0
C2691 C 0.84838 0.59795 0.48332 0.0
H2692 H 0.80674 0.6802 0.54887 0.0
H2693 H 0.84312 0.71131 0.47361 0.0
H2694 H 0.83712 0.61226 0.54636 0.0
H2695 H 0.85827 0.635 0.56699 0.0
H2696 H 0.82051 0.63745 0.56882 0.0
H2697 H 0.87701 0.68631 0.44833 0.0
H2698 H 0.90263 0.67317 0.47251 0.0
H2699 H 0.87987 0.64937 0.45491 0.0
H2700 H 0.94855 0.61876 0.53196 0.0
H2701 H 0.89331 0.56385 0.4873 0.0
H2702 H 0.89734 0.66698 0.55333 0.0
H2703 H 0.9128 0.67992 0.52212 0.0
H2704 H 0.93455 0.66283 0.54755 0.0
H2705 H 0.83077 0.60056 0.49815 0.0
H2706 H 0.84756 0.57648 0.47466 0.0
H2707 H 0.84497 0.61304 0.46621 0.0
C2708 C 0.33586 0.81003 0.48267 0.0
C2709 C 0.31516 0.81202 0.50319 0.0
C2710 C 0.35907 0.82813 0.48277 0.0
C2711 C 0.36167 0.84827 0.50413 0.0
C2712 C 0.34147 0.84932 0.52563 0.0
C2713 C 0.31831 0.83132 0.52475 0.0
C2714 C 0.38005 0.82662 0.45935 0.0
C2715 C 0.34375 0.87015 0.54901 0.0
C2716 C 0.43127 0.88504 0.51612 0.0
C2717 C 0.42621 0.91113 0.50392 0.0
C2718 C 0.41056 0.86421 0.51613 0.0
C2719 C 0.38442 0.86946 0.50317 0.0
C2720 C 0.37944 0.89555 0.49029 0.0
C2721 C 0.40031 0.91618 0.49106 0.0
C2722 C 0.41643 0.83686 0.53053 0.0
C2723 C 0.35195 0.90179 0.47591 0.0
H2724 H 0.3332 0.7952 0.46591 0.0
H2725 H 0.30228 0.83266 0.54067 0.0
H2726 H 0.37898 0.84607 0.44693 0.0
H2727 H 0.40172 0.825 0.46765 0.0
H2728 H 0.37609 0.80859 0.44542 0.0
H2729 H 0.32763 0.86665 0.56529 0.0
H2730 H 0.36487 0.869 0.5587 0.0
H2731 H 0.34115 0.89161 0.54077 0.0
H2732 H 0.45121 0.88112 0.52627 0.0
H2733 H 0.39644 0.93621 0.48135 0.0
H2734 H 0.41358 0.81926 0.51587 0.0
H2735 H 0.40122 0.8338 0.5477 0.0
H2736 H 0.43805 0.83589 0.53917 0.0
H2737 H 0.3474 0.8855 0.4602 0.0
H2738 H 0.35206 0.92246 0.46551 0.0
H2739 H 0.33455 0.90144 0.4912 0.0
C2740 C 0.21123 0.33141 0.47594 0.0
C2741 C 0.21689 0.31388 0.49837 0.0
C2742 C 0.18843 0.34996 0.47674 0.0
C2743 C 0.1711 0.35088 0.50061 0.0
C2744 C 0.17661 0.33271 0.52314 0.0
C2745 C 0.19954 0.31434 0.52172 0.0
C2746 C 0.1832 0.36895 0.45231 0.0
C2747 C 0.15866 0.33312 0.54894 0.0
C2748 C 0.132 0.41847 0.51426 0.0
C2749 C 0.10481 0.41197 0.50508 0.0
C2750 C 0.15364 0.39865 0.51323 0.0
C2751 C 0.14805 0.37173 0.5025 0.0
C2752 C 0.12064 0.36497 0.49328 0.0
C2753 C 0.09928 0.38513 0.49482 0.0
C2754 C 0.18254 0.40659 0.5235 0.0
C2755 C 0.11396 0.33656 0.48146 0.0
H2756 H 0.22484 0.33084 0.45792 0.0
H2757 H 0.20414 0.3006 0.53899 0.0
H2758 H 0.1613 0.36646 0.44482 0.0
H2759 H 0.18576 0.39102 0.45875 0.0
H2760 H 0.1978 0.36471 0.43484 0.0
H2761 H 0.1651 0.31692 0.56413 0.0
H2762 H 0.16015 0.35387 0.55904 0.0
H2763 H 0.13629 0.32976 0.54344 0.0
H2764 H 0.13641 0.43908 0.52243 0.0
H2765 H 0.07838 0.38 0.48748 0.0
H2766 H 0.19797 0.40489 0.50635 0.0
H2767 H 0.18933 0.39198 0.54003 0.0
H2768 H 0.18324 0.42818 0.53184 0.0
H2769 H 0.12732 0.3325 0.46305 0.0
H2770 H 0.09157 0.33459 0.47526 0.0
H2771 H 0.11881 0.32015 0.49695 0.0
C2772 C 0.33569 0.19217 0.51977 0.0
C2773 C 0.31532 0.18908 0.49908 0.0
C2774 C 0.35891 0.17413 0.52094 0.0
C2775 C 0.36187 0.15296 0.50064 0.0
C2776 C 0.34201 0.15078 0.47891 0.0
C2777 C 0.31878 0.16872 0.47857 0.0
C2778 C 0.37945 0.17681 0.54462 0.0
C2779 C 0.34471 0.12883 0.4566 0.0
C2780 C 0.43178 0.11579 0.49217 0.0
C2781 C 0.42642 0.09036 0.50553 0.0
C2782 C 0.41103 0.13651 0.49053 0.0
C2783 C 0.38456 0.13185 0.50308 0.0
C2784 C 0.37929 0.10644 0.51714 0.0
C2785 C 0.4002 0.08586 0.51792 0.0
C2786 C 0.41719 0.16307 0.47485 0.0
C2787 C 0.35148 0.10089 0.53118 0.0
H2788 H 0.33274 0.20782 0.53573 0.0
H2789 H 0.30294 0.1665 0.46256 0.0
H2790 H 0.37818 0.15798 0.55794 0.0
H2791 H 0.40127 0.17807 0.53664 0.0
H2792 H 0.37523 0.19548 0.55761 0.0
H2793 H 0.32896 0.13159 0.43984 0.0
H2794 H 0.36604 0.12944 0.44733 0.0
H2795 H 0.34184 0.10781 0.4658 0.0
H2796 H 0.45198 0.11922 0.48235 0.0
H2797 H 0.39612 0.06632 0.52849 0.0
H2798 H 0.41401 0.18141 0.48851 0.0
H2799 H 0.40235 0.16519 0.45723 0.0
H2800 H 0.43899 0.16362 0.46664 0.0
H2801 H 0.34656 0.11794 0.54596 0.0
H2802 H 0.35136 0.08076 0.54259 0.0
H2803 H 0.33443 0.10045 0.51551 0.0
C2804 C 0.84324 0.30725 0.46845 0.0
C2805 C 0.82361 0.30282 0.48964 0.0
C2806 C 0.86181 0.3299 0.46946 0.0
C2807 C 0.86086 0.3483 0.49239 0.0
C2808 C 0.84032 0.34456 0.51329 0.0
C2809 C 0.8218 0.32187 0.51158 0.0
C2810 C 0.88315 0.3335 0.44658 0.0
C2811 C 0.83885 0.36366 0.53814 0.0
C2812 C 0.929 0.38473 0.51078 0.0
C2813 C 0.9243 0.41158 0.50033 0.0
C2814 C 0.9083 0.36406 0.5087 0.0
C2815 C 0.88253 0.37031 0.49538 0.0
C2816 C 0.87772 0.39735 0.48466 0.0
C2817 C 0.8986 0.41777 0.48749 0.0
C2818 C 0.91402 0.33552 0.52071 0.0
C2819 C 0.85068 0.40461 0.46994 0.0
H2820 H 0.84446 0.29257 0.45139 0.0
H2821 H 0.8068 0.31825 0.52811 0.0
H2822 H 0.88259 0.35516 0.43851 0.0
H2823 H 0.90457 0.32981 0.45487 0.0
H2824 H 0.87951 0.31886 0.42909 0.0
H2825 H 0.82046 0.35905 0.55155 0.0
H2826 H 0.85826 0.36137 0.55068 0.0
H2827 H 0.83767 0.38575 0.53139 0.0
H2828 H 0.94876 0.37997 0.52093 0.0
H2829 H 0.89501 0.43847 0.47913 0.0
H2830 H 0.91352 0.31962 0.50401 0.0
H2831 H 0.89739 0.32995 0.53585 0.0
H2832 H 0.93474 0.33438 0.53127 0.0
H2833 H 0.8478 0.39074 0.45175 0.0
H2834 H 0.85029 0.42662 0.46273 0.0
H2835 H 0.83254 0.40115 0.48394 0.0
C2836 C 0.19898 0.68817 0.52264 0.0
C2837 C 0.21705 0.68708 0.49985 0.0
C2838 C 0.17592 0.66999 0.52454 0.0
C2839 C 0.17102 0.65042 0.50306 0.0
C2840 C 0.1891 0.64973 0.47972 0.0
C2841 C 0.21202 0.66812 0.47844 0.0
C2842 C 0.15718 0.67131 0.54975 0.0
C2843 C 0.1845 0.62925 0.45637 0.0
C2844 C 0.13089 0.58385 0.51864 0.0
C2845 C 0.10417 0.58998 0.50798 0.0
C2846 C 0.15262 0.60357 0.5177 0.0
C2847 C 0.14766 0.62994 0.50543 0.0
C2848 C 0.12066 0.63638 0.49487 0.0
C2849 C 0.09915 0.61638 0.49647 0.0
C2850 C 0.181 0.59604 0.52957 0.0
C2851 C 0.11468 0.66416 0.48137 0.0
H2852 H 0.20309 0.70302 0.53912 0.0
H2853 H 0.22618 0.66748 0.46084 0.0
H2854 H 0.13502 0.67453 0.54337 0.0
H2855 H 0.15812 0.6512 0.5611 0.0
H2856 H 0.1633 0.68835 0.56413 0.0
H2857 H 0.19974 0.63222 0.43918 0.0
H2858 H 0.18657 0.60761 0.46426 0.0
H2859 H 0.16291 0.63147 0.44799 0.0
H2860 H 0.13483 0.56359 0.52784 0.0
H2861 H 0.0786 0.62117 0.48803 0.0
H2862 H 0.18745 0.61174 0.54521 0.0
H2863 H 0.19704 0.59622 0.51289 0.0
H2864 H 0.18103 0.57511 0.53948 0.0
H2865 H 0.11964 0.6814 0.49591 0.0
H2866 H 0.09241 0.66616 0.47475 0.0
H2867 H 0.12834 0.66684 0.46293 0.0
loop_
_geom_bond_atom_site_label_1
_geom_bond_atom_site_label_2
_geom_bond_distance
_geom_bond_site_symmetry_2
_ccdc_geom_bond_type
H0 C3 0.929 . S
H1 C6 0.929 . S
H2 C8 0.930 . S
C3 H0 0.929 . S
C3 C4 1.398 . S
C3 C5 1.396 . S
C4 C3 1.398 . S
C4 C8 1.407 . S
C5 C3 1.396 . S
C5 C6 1.394 . S
C6 H1 0.929 . S
C6 C5 1.394 . S
C6 C7 1.382 . S
C7 C6 1.382 . S
C7 C8 1.392 . S
C7 N9 1.420 . S
C8 H2 0.930 . S
C8 C4 1.407 . S
C8 C7 1.392 . S
N9 C7 1.420 . S
N9 C10 1.244 . S
C10 N9 1.244 . S
H11 C14 0.929 . S
H12 C17 0.929 . S
H13 C19 0.930 . S
C14 H11 0.929 . S
C14 C15 1.395 1_545 S
C14 C16 1.394 1_545 S
C15 C14 1.395 1_565 S
C15 C19 1.414 . S
C16 C14 1.394 1_565 S
C16 C17 1.397 . S
C17 H12 0.929 . S
C17 C16 1.397 . S
C17 C18 1.382 . S
C18 C17 1.382 . S
C18 C19 1.392 . S
C18 N20 1.420 . S
C19 H13 0.930 . S
C19 C15 1.414 . S
C19 C18 1.392 . S
N20 C18 1.420 . S
N20 C21 1.232 1_565 S
C21 N20 1.232 1_545 S
H22 C25 0.929 . S
H23 C28 0.929 . S
H24 C30 0.930 . S
C25 H22 0.929 . S
C25 C26 1.398 . S
C25 C27 1.396 . S
C26 C25 1.398 . S
C26 C30 1.407 . S
C27 C25 1.396 . S
C27 C28 1.394 . S
C28 H23 0.929 . S
C28 C27 1.394 . S
C28 C29 1.382 . S
C29 C28 1.382 . S
C29 C30 1.392 . S
C29 N31 1.420 . S
C30 H24 0.930 . S
C30 C26 1.407 . S
C30 C29 1.392 . S
N31 C29 1.420 . S
N31 C32 1.244 . S
C32 N31 1.244 . S
H33 C36 0.929 . S
H34 C39 0.929 . S
H35 C41 0.930 . S
C36 H33 0.929 . S
C36 C37 1.395 1_545 S
C36 C38 1.394 1_545 S
C37 C36 1.395 1_565 S
C37 C41 1.414 . S
C38 C36 1.394 1_565 S
C38 C39 1.397 . S
C39 H34 0.929 . S
C39 C38 1.397 . S
C39 C40 1.382 . S
C40 C39 1.382 . S
C40 C41 1.392 . S
C40 N42 1.420 . S
C41 H35 0.930 . S
C41 C37 1.414 . S
C41 C40 1.392 . S
N42 C40 1.420 . S
N42 C43 1.232 1_565 S
C43 N42 1.232 1_545 S
H44 C47 0.929 . S
H45 C50 0.929 . S
H46 C52 0.930 . S
C47 H44 0.929 . S
C47 C48 1.398 . S
C47 C49 1.396 . S
C48 C47 1.398 . S
C48 C52 1.407 . S
C49 C47 1.396 . S
C49 C50 1.394 . S
C50 H45 0.929 . S
C50 C49 1.394 . S
C50 C51 1.382 . S
C51 C50 1.382 . S
C51 C52 1.392 . S
C51 N53 1.420 . S
C52 H46 0.930 . S
C52 C48 1.407 . S
C52 C51 1.392 . S
N53 C51 1.420 . S
N53 C54 1.244 . S
C54 N53 1.244 . S
H55 C58 0.929 . S
H56 C61 0.929 . S
H57 C63 0.930 . S
C58 H55 0.929 . S
C58 C59 1.398 1_565 S
C58 C60 1.396 1_565 S
C59 C58 1.398 1_545 S
C59 C63 1.407 . S
C60 C58 1.396 1_545 S
C60 C61 1.394 . S
C61 H56 0.929 . S
C61 C60 1.394 . S
C61 C62 1.382 . S
C62 C61 1.382 . S
C62 C63 1.392 . S
C62 N64 1.420 . S
C63 H57 0.930 . S
C63 C59 1.407 . S
C63 C62 1.392 . S
N64 C62 1.420 . S
N64 C65 1.244 1_545 S
C65 N64 1.244 1_565 S
H66 C69 0.929 . S
H67 C72 0.929 . S
H68 C74 0.930 . S
C69 H66 0.929 . S
C69 C70 1.398 . S
C69 C71 1.396 . S
C70 C69 1.398 . S
C70 C74 1.407 . S
C71 C69 1.396 . S
C71 C72 1.394 . S
C72 H67 0.929 . S
C72 C71 1.394 . S
C72 C73 1.382 . S
C73 C72 1.382 . S
C73 C74 1.392 . S
C73 N75 1.420 . S
C74 H68 0.930 . S
C74 C70 1.407 . S
C74 C73 1.392 . S
N75 C73 1.420 . S
N75 C76 1.244 . S
C76 N75 1.244 . S
H77 C80 0.929 . S
H78 C83 0.929 . S
H79 C85 0.930 . S
C80 H77 0.929 . S
C80 C81 1.397 1_545 S
C80 C82 1.396 1_545 S
C81 C80 1.397 1_565 S
C81 C85 1.410 . S
C82 C80 1.396 1_565 S
C82 C83 1.394 . S
C83 H78 0.929 . S
C83 C82 1.394 . S
C83 C84 1.382 . S
C84 C83 1.382 . S
C84 C85 1.392 . S
C84 N86 1.420 . S
C85 H79 0.930 . S
C85 C81 1.410 . S
C85 C84 1.392 . S
N86 C84 1.420 . S
N86 C87 1.244 1_565 S
C87 N86 1.244 1_545 S
H88 C91 0.929 . S
H89 C94 0.931 . S
H90 C96 0.930 . S
C91 H88 0.929 . S
C91 C92 1.398 . S
C91 C93 1.396 . S
C92 C91 1.398 . S
C92 C96 1.407 1_554 S
C93 C91 1.396 . S
C93 C94 1.391 1_554 S
C94 H89 0.931 . S
C94 C93 1.391 1_556 S
C94 C95 1.383 . S
C95 C94 1.383 . S
C95 C96 1.392 . S
C95 N97 1.420 . S
C96 H90 0.930 . S
C96 C92 1.407 1_556 S
C96 C95 1.392 . S
N97 C95 1.420 . S
N97 C98 1.244 1_556 S
C98 N97 1.244 1_554 S
H99 C102 0.923 1_556 S
H100 C105 0.929 . S
H101 C107 0.930 . S
C102 H99 0.923 1_554 S
C102 C103 1.398 . S
C102 C104 1.396 . S
C103 C102 1.398 . S
C103 C107 1.407 . S
C104 C102 1.396 . S
C104 C105 1.394 . S
C105 H100 0.929 . S
C105 C104 1.394 . S
C105 C106 1.382 . S
C106 C105 1.382 . S
C106 C107 1.392 . S
C106 N108 1.420 . S
C107 H101 0.930 . S
C107 C103 1.407 . S
C107 C106 1.392 . S
N108 C106 1.420 . S
N108 C109 1.244 . S
C109 N108 1.244 . S
H110 C113 0.929 . S
H111 C116 0.930 . S
H112 C118 0.930 . S
C113 H110 0.929 . S
C113 C114 1.398 . S
C113 C115 1.396 . S
C114 C113 1.398 . S
C114 C118 1.407 1_554 S
C115 C113 1.396 . S
C115 C116 1.392 1_554 S
C116 H111 0.930 . S
C116 C115 1.392 1_556 S
C116 C117 1.383 . S
C117 C116 1.383 . S
C117 C118 1.392 . S
C117 N119 1.420 . S
C118 H112 0.930 . S
C118 C114 1.407 1_556 S
C118 C117 1.392 . S
N119 C117 1.420 . S
N119 C120 1.244 1_556 S
C120 N119 1.244 1_554 S
H121 C124 0.929 1_556 S
H122 C127 0.929 . S
H123 C129 0.930 . S
C124 H121 0.929 1_554 S
C124 C125 1.398 . S
C124 C126 1.396 . S
C125 C124 1.398 . S
C125 C129 1.407 . S
C126 C124 1.396 . S
C126 C127 1.394 . S
C127 H122 0.929 . S
C127 C126 1.394 . S
C127 C128 1.382 . S
C128 C127 1.382 . S
C128 C129 1.392 . S
C128 N130 1.420 . S
C129 H123 0.930 . S
C129 C125 1.407 . S
C129 C128 1.392 . S
N130 C128 1.420 . S
N130 C131 1.244 . S
C131 N130 1.244 . S
H132 C135 0.929 . S
H133 C138 0.929 . S
H134 C140 0.930 . S
C135 H132 0.929 . S
C135 C136 1.398 . S
C135 C137 1.396 . S
C136 C135 1.398 . S
C136 C140 1.407 . S
C137 C135 1.396 . S
C137 C138 1.394 . S
C138 H133 0.929 . S
C138 C137 1.394 . S
C138 C139 1.382 . S
C139 C138 1.382 . S
C139 C140 1.392 . S
C139 N141 1.420 . S
C140 H134 0.930 . S
C140 C136 1.407 . S
C140 C139 1.392 . S
N141 C139 1.420 . S
N141 C142 1.244 . S
C142 N141 1.244 . S
H143 C146 0.929 . S
H144 C149 0.929 . S
H145 C151 0.930 . S
C146 H143 0.929 . S
C146 C147 1.398 . S
C146 C148 1.396 . S
C147 C146 1.398 . S
C147 C151 1.407 . S
C148 C146 1.396 . S
C148 C149 1.394 . S
C149 H144 0.929 . S
C149 C148 1.394 . S
C149 C150 1.382 . S
C150 C149 1.382 . S
C150 C151 1.392 . S
C150 N152 1.420 . S
C151 H145 0.930 . S
C151 C147 1.407 . S
C151 C150 1.392 . S
N152 C150 1.420 . S
N152 C153 1.244 . S
C153 N152 1.244 . S
H154 C157 0.929 . S
H155 C160 0.929 . S
H156 C162 0.930 . S
C157 H154 0.929 . S
C157 C158 1.398 . S
C157 C159 1.396 . S
C158 C157 1.398 . S
C158 C162 1.407 . S
C159 C157 1.396 . S
C159 C160 1.394 . S
C160 H155 0.929 . S
C160 C159 1.394 . S
C160 C161 1.382 . S
C161 C160 1.382 . S
C161 C162 1.392 . S
C161 N163 1.420 . S
C162 H156 0.930 . S
C162 C158 1.407 . S
C162 C161 1.392 . S
N163 C161 1.420 . S
N163 C164 1.244 . S
C164 N163 1.244 . S
H165 C168 0.929 . S
H166 C171 0.929 . S
H167 C173 0.930 . S
C168 H165 0.929 . S
C168 C169 1.398 . S
C168 C170 1.396 . S
C169 C168 1.398 . S
C169 C173 1.407 . S
C170 C168 1.396 . S
C170 C171 1.394 . S
C171 H166 0.929 . S
C171 C170 1.394 . S
C171 C172 1.382 . S
C172 C171 1.382 . S
C172 C173 1.392 . S
C172 N174 1.420 . S
C173 H167 0.930 . S
C173 C169 1.407 . S
C173 C172 1.392 . S
N174 C172 1.420 . S
N174 C175 1.244 . S
C175 N174 1.244 . S
H176 C179 0.929 . S
H177 C182 0.929 . S
H178 C184 0.930 . S
C179 H176 0.929 . S
C179 C180 1.398 . S
C179 C181 1.396 . S
C180 C179 1.398 . S
C180 C184 1.407 . S
C181 C179 1.396 . S
C181 C182 1.394 . S
C182 H177 0.929 . S
C182 C181 1.394 . S
C182 C183 1.382 . S
C183 C182 1.382 . S
C183 C184 1.392 . S
C183 N185 1.420 . S
C184 H178 0.930 . S
C184 C180 1.407 . S
C184 C183 1.392 . S
N185 C183 1.420 . S
N185 C186 1.244 . S
C186 N185 1.244 . S
H187 C190 0.929 . S
H188 C193 0.929 . S
H189 C195 0.930 . S
C190 H187 0.929 . S
C190 C191 1.398 . S
C190 C192 1.396 . S
C191 C190 1.398 . S
C191 C195 1.407 . S
C192 C190 1.396 . S
C192 C193 1.394 . S
C193 H188 0.929 . S
C193 C192 1.394 . S
C193 C194 1.382 . S
C194 C193 1.382 . S
C194 C195 1.392 . S
C194 N196 1.420 . S
C195 H189 0.930 . S
C195 C191 1.407 . S
C195 C194 1.392 . S
N196 C194 1.420 . S
N196 C197 1.244 . S
C197 N196 1.244 . S
H198 C201 0.929 . S
H199 C204 0.929 . S
H200 C206 0.930 . S
C201 H198 0.929 . S
C201 C202 1.398 . S
C201 C203 1.396 . S
C202 C201 1.398 . S
C202 C206 1.407 . S
C203 C201 1.396 . S
C203 C204 1.394 . S
C204 H199 0.929 . S
C204 C203 1.394 . S
C204 C205 1.382 . S
C205 C204 1.382 . S
C205 C206 1.392 . S
C205 N207 1.420 . S
C206 H200 0.930 . S
C206 C202 1.407 . S
C206 C205 1.392 . S
N207 C205 1.420 . S
N207 C208 1.244 . S
C208 N207 1.244 . S
H209 C212 0.929 . S
H210 C215 0.929 . S
H211 C217 0.930 . S
C212 H209 0.929 . S
C212 C213 1.398 . S
C212 C214 1.396 . S
C213 C212 1.398 . S
C213 C217 1.407 . S
C214 C212 1.396 . S
C214 C215 1.394 . S
C215 H210 0.929 . S
C215 C214 1.394 . S
C215 C216 1.382 . S
C216 C215 1.382 . S
C216 C217 1.392 . S
C216 N218 1.420 . S
C217 H211 0.930 . S
C217 C213 1.407 . S
C217 C216 1.392 . S
N218 C216 1.420 . S
N218 C219 1.244 . S
C219 N218 1.244 . S
H220 C223 0.929 . S
H221 C226 0.929 . S
H222 C228 0.930 . S
C223 H220 0.929 . S
C223 C224 1.398 . S
C223 C225 1.396 . S
C224 C223 1.398 . S
C224 C228 1.407 . S
C225 C223 1.396 . S
C225 C226 1.394 . S
C226 H221 0.929 . S
C226 C225 1.394 . S
C226 C227 1.382 . S
C227 C226 1.382 . S
C227 C228 1.392 . S
C227 N229 1.420 . S
C228 H222 0.930 . S
C228 C224 1.407 . S
C228 C227 1.392 . S
N229 C227 1.420 . S
N229 C230 1.244 . S
C230 N229 1.244 . S
H231 C234 0.929 . S
H232 C237 0.929 . S
H233 C239 0.930 . S
C234 H231 0.929 . S
C234 C235 1.398 . S
C234 C236 1.396 . S
C235 C234 1.398 . S
C235 C239 1.407 . S
C236 C234 1.396 . S
C236 C237 1.394 . S
C237 H232 0.929 . S
C237 C236 1.394 . S
C237 C238 1.382 . S
C238 C237 1.382 . S
C238 C239 1.392 . S
C238 N240 1.420 . S
C239 H233 0.930 . S
C239 C235 1.407 . S
C239 C238 1.392 . S
N240 C238 1.420 . S
N240 C241 1.244 . S
C241 N240 1.244 . S
H242 C245 0.929 . S
H243 C248 0.929 . S
H244 C250 0.930 . S
C245 H242 0.929 . S
C245 C246 1.398 . S
C245 C247 1.396 . S
C246 C245 1.398 . S
C246 C250 1.407 . S
C247 C245 1.396 . S
C247 C248 1.394 . S
C248 H243 0.929 . S
C248 C247 1.394 . S
C248 C249 1.382 . S
C249 C248 1.382 . S
C249 C250 1.392 . S
C249 N251 1.420 . S
C250 H244 0.930 . S
C250 C246 1.407 . S
C250 C249 1.392 . S
N251 C249 1.420 . S
N251 C252 1.244 . S
C252 N251 1.244 . S
H253 C256 0.929 . S
H254 C259 0.929 . S
H255 C261 0.930 . S
C256 H253 0.929 . S
C256 C257 1.398 . S
C256 C258 1.396 . S
C257 C256 1.398 . S
C257 C261 1.407 . S
C258 C256 1.396 . S
C258 C259 1.394 . S
C259 H254 0.929 . S
C259 C258 1.394 . S
C259 C260 1.382 . S
C260 C259 1.382 . S
C260 C261 1.392 . S
C260 N262 1.420 . S
C261 H255 0.930 . S
C261 C257 1.407 . S
C261 C260 1.392 . S
N262 C260 1.420 . S
N262 C263 1.244 . S
C263 N262 1.244 . S
C264 O290 1.283 . S
C264 O308 1.283 . S
C265 O291 1.283 . S
C265 O306 1.283 . S
C266 O292 1.283 . S
C266 O309 1.283 . S
C267 O293 1.283 . S
C267 O307 1.283 . S
C268 O294 1.283 . S
C268 O303 1.283 . S
C269 O295 1.283 . S
C269 O305 1.283 . S
C270 O296 1.283 . S
C270 O302 1.283 . S
C271 O297 1.283 . S
C271 O304 1.283 . S
C272 O298 1.283 . S
C272 O313 1.283 . S
C273 O299 1.283 . S
C273 O311 1.283 . S
C274 O300 1.283 . S
C274 O312 1.283 . S
C275 O301 1.283 . S
C275 O310 1.283 . S
Eu276 O277 2.352 1_455 S
Eu276 O278 2.370 . S
Eu276 O281 2.352 1_455 S
Eu276 O282 2.370 . S
Eu276 O290 2.363 . S
Eu276 O291 2.363 . S
Eu276 O304 2.363 . S
Eu276 O305 2.363 1_455 S
O277 Eu276 2.352 1_655 S
O277 Eu279 2.389 1_565 S
O277 Eu284 2.350 1_665 S
O278 Eu276 2.370 . S
O278 Eu280 2.367 1_565 S
O278 Eu283 2.366 1_565 S
Eu279 O277 2.389 1_545 S
Eu279 O281 2.389 1_545 S
Eu279 O285 2.395 . S
Eu279 O286 2.395 . S
Eu279 O294 2.368 . S
Eu279 O295 2.357 1_545 S
Eu279 O310 2.363 . S
Eu279 O311 2.363 . S
Eu280 O278 2.367 1_545 S
Eu280 O282 2.367 1_545 S
Eu280 O287 2.373 . S
Eu280 O288 2.373 . S
Eu280 O296 2.368 . S
Eu280 O297 2.358 1_545 S
Eu280 O312 2.363 . S
Eu280 O313 2.363 . S
O281 Eu276 2.352 1_655 S
O281 Eu279 2.389 1_565 S
O281 Eu283 2.348 1_665 S
O282 Eu276 2.370 . S
O282 Eu280 2.367 1_565 S
O282 Eu284 2.368 1_565 S
Eu283 O278 2.366 1_545 S
Eu283 O281 2.348 1_445 S
Eu283 O285 2.356 1_455 S
Eu283 O288 2.374 . S
Eu283 O300 2.363 . S
Eu283 O301 2.363 1_455 S
Eu283 O308 2.356 1_545 S
Eu283 O309 2.370 . S
Eu284 O277 2.350 1_445 S
Eu284 O282 2.368 1_545 S
Eu284 O286 2.354 1_455 S
Eu284 O287 2.372 . S
Eu284 O298 2.363 . S
Eu284 O299 2.363 1_455 S
Eu284 O306 2.359 1_545 S
Eu284 O307 2.367 . S
O285 Eu279 2.395 . S
O285 Eu283 2.356 1_655 S
O285 Eu289 2.352 1_655 S
O286 Eu279 2.395 . S
O286 Eu284 2.354 1_655 S
O286 Eu289 2.352 1_655 S
O287 Eu280 2.373 . S
O287 Eu284 2.372 . S
O287 Eu289 2.370 . S
O288 Eu280 2.373 . S
O288 Eu283 2.374 . S
O288 Eu289 2.370 . S
Eu289 O285 2.352 1_455 S
Eu289 O286 2.352 1_455 S
Eu289 O287 2.370 . S
Eu289 O288 2.370 . S
Eu289 O292 2.363 . S
Eu289 O293 2.363 . S
Eu289 O302 2.363 . S
Eu289 O303 2.363 1_455 S
O290 C264 1.283 . S
O290 Eu276 2.363 . S
O291 C265 1.283 . S
O291 Eu276 2.363 . S
O292 C266 1.283 . S
O292 Eu289 2.363 . S
O293 C267 1.283 . S
O293 Eu289 2.363 . S
O294 C268 1.283 . S
O294 Eu279 2.368 . S
O295 C269 1.283 . S
O295 Eu279 2.357 1_565 S
O296 C270 1.283 . S
O296 Eu280 2.368 . S
O297 C271 1.283 . S
O297 Eu280 2.358 1_565 S
O298 C272 1.283 . S
O298 Eu284 2.363 . S
O299 C273 1.283 . S
O299 Eu284 2.363 1_655 S
O300 C274 1.283 . S
O300 Eu283 2.363 . S
O301 C275 1.283 . S
O301 Eu283 2.363 1_655 S
O302 C270 1.283 . S
O302 Eu289 2.363 . S
O303 C268 1.283 . S
O303 Eu289 2.363 1_655 S
O304 C271 1.283 . S
O304 Eu276 2.363 . S
O305 C269 1.283 . S
O305 Eu276 2.363 1_655 S
O306 C265 1.283 . S
O306 Eu284 2.359 1_565 S
O307 C267 1.283 . S
O307 Eu284 2.367 . S
O308 C264 1.283 . S
O308 Eu283 2.356 1_565 S
O309 C266 1.283 . S
O309 Eu283 2.370 . S
O310 C275 1.283 . S
O310 Eu279 2.363 . S
O311 C273 1.283 . S
O311 Eu279 2.363 . S
O312 C274 1.283 . S
O312 Eu280 2.363 . S
O313 C272 1.283 . S
O313 Eu280 2.363 . S
C314 O340 1.283 . S
C314 O358 1.283 . S
C315 O341 1.283 . S
C315 O356 1.283 . S
C316 O342 1.283 . S
C316 O359 1.283 . S
C317 O343 1.283 . S
C317 O357 1.283 . S
C318 O344 1.283 . S
C318 O353 1.283 . S
C319 O345 1.283 . S
C319 O355 1.283 . S
C320 O346 1.283 . S
C320 O352 1.283 . S
C321 O347 1.283 . S
C321 O354 1.283 . S
C322 O348 1.283 . S
C322 O363 1.283 . S
C323 O349 1.283 . S
C323 O361 1.283 . S
C324 O350 1.283 . S
C324 O362 1.283 . S
C325 O351 1.283 . S
C325 O360 1.283 . S
Eu326 O327 2.372 . S
Eu326 O328 2.369 1_545 S
Eu326 O331 2.369 1_545 S
Eu326 O332 2.372 . S
Eu326 O340 2.360 1_545 S
Eu326 O341 2.366 . S
Eu326 O354 2.363 . S
Eu326 O355 2.363 . S
O327 Eu326 2.372 . S
O327 Eu329 2.373 . S
O327 Eu334 2.370 . S
O328 Eu326 2.369 1_565 S
O328 Eu330 2.367 1_565 S
O328 Eu333 2.370 . S
Eu329 O327 2.373 . S
Eu329 O331 2.367 1_545 S
Eu329 O335 2.367 1_544 S
Eu329 O336 2.373 1_554 S
Eu329 O344 2.363 1_554 S
Eu329 O345 2.363 . S
Eu329 O360 2.358 1_545 S
Eu329 O361 2.368 . S
Eu330 O328 2.367 1_545 S
Eu330 O332 2.373 . S
Eu330 O337 2.373 1_554 S
Eu330 O338 2.367 1_544 S
Eu330 O346 2.363 1_554 S
Eu330 O347 2.363 . S
Eu330 O362 2.358 1_545 S
Eu330 O363 2.368 . S
O331 Eu326 2.369 1_565 S
O331 Eu329 2.367 1_565 S
O331 Eu333 2.370 . S
O332 Eu326 2.372 . S
O332 Eu330 2.373 . S
O332 Eu334 2.370 . S
Eu333 O328 2.370 . S
Eu333 O331 2.370 . S
Eu333 O335 2.370 1_554 S
Eu333 O338 2.370 1_554 S
Eu333 O350 2.363 . S
Eu333 O351 2.363 . S
Eu333 O358 2.363 . S
Eu333 O359 2.363 1_554 S
Eu334 O327 2.370 . S
Eu334 O332 2.370 . S
Eu334 O336 2.370 1_554 S
Eu334 O337 2.370 1_554 S
Eu334 O348 2.363 . S
Eu334 O349 2.363 . S
Eu334 O356 2.363 . S
Eu334 O357 2.363 1_554 S
O335 Eu329 2.367 1_566 S
O335 Eu333 2.370 1_556 S
O335 Eu339 2.366 1_565 S
O336 Eu329 2.373 1_556 S
O336 Eu334 2.370 1_556 S
O336 Eu339 2.375 . S
O337 Eu330 2.373 1_556 S
O337 Eu334 2.370 1_556 S
O337 Eu339 2.375 . S
O338 Eu330 2.367 1_566 S
O338 Eu333 2.370 1_556 S
O338 Eu339 2.366 1_565 S
Eu339 O335 2.366 1_545 S
Eu339 O336 2.375 . S
Eu339 O337 2.375 . S
Eu339 O338 2.366 1_545 S
Eu339 O342 2.355 1_545 S
Eu339 O343 2.370 . S
Eu339 O352 2.363 . S
Eu339 O353 2.363 . S
O340 C314 1.283 . S
O340 Eu326 2.360 1_565 S
O341 C315 1.283 . S
O341 Eu326 2.366 . S
O342 C316 1.283 . S
O342 Eu339 2.355 1_565 S
O343 C317 1.283 . S
O343 Eu339 2.370 . S
O344 C318 1.283 . S
O344 Eu329 2.363 1_556 S
O345 C319 1.283 . S
O345 Eu329 2.363 . S
O346 C320 1.283 . S
O346 Eu330 2.363 1_556 S
O347 C321 1.283 . S
O347 Eu330 2.363 . S
O348 C322 1.283 . S
O348 Eu334 2.363 . S
O349 C323 1.283 . S
O349 Eu334 2.363 . S
O350 C324 1.283 . S
O350 Eu333 2.363 . S
O351 C325 1.283 . S
O351 Eu333 2.363 . S
O352 C320 1.283 . S
O352 Eu339 2.363 . S
O353 C318 1.283 . S
O353 Eu339 2.363 . S
O354 C321 1.283 . S
O354 Eu326 2.363 . S
O355 C319 1.283 . S
O355 Eu326 2.363 . S
O356 C315 1.283 . S
O356 Eu334 2.363 . S
O357 C317 1.283 . S
O357 Eu334 2.363 1_556 S
O358 C314 1.283 . S
O358 Eu333 2.363 . S
O359 C316 1.283 . S
O359 Eu333 2.363 1_556 S
O360 C325 1.283 . S
O360 Eu329 2.358 1_565 S
O361 C323 1.283 . S
O361 Eu329 2.368 . S
O362 C324 1.283 . S
O362 Eu330 2.358 1_565 S
O363 C322 1.283 . S
O363 Eu330 2.368 . S
C364 O390 1.283 . S
C364 O408 1.283 . S
C365 O391 1.283 . S
C365 O406 1.283 . S
C366 O392 1.283 . S
C366 O409 1.283 . S
C367 O393 1.283 . S
C367 O407 1.283 . S
C368 O394 1.283 . S
C368 O403 1.283 . S
C369 O395 1.283 . S
C369 O405 1.283 . S
C370 O396 1.283 . S
C370 O402 1.283 . S
C371 O397 1.283 . S
C371 O404 1.283 . S
C372 O398 1.283 . S
C372 O413 1.283 . S
C373 O399 1.283 . S
C373 O411 1.283 . S
C374 O400 1.283 . S
C374 O412 1.283 . S
C375 O401 1.283 . S
C375 O410 1.283 . S
Eu376 O377 2.348 1_454 S
Eu376 O378 2.393 . S
Eu376 O381 2.393 1_455 S
Eu376 O382 2.348 1_554 S
Eu376 O390 2.401 . S
Eu376 O391 2.325 1_554 S
Eu376 O404 2.363 . S
Eu376 O405 2.363 1_455 S
O377 Eu376 2.348 1_656 S
O377 Eu379 2.350 1_556 S
O377 Eu384 2.370 1_655 S
O378 Eu376 2.393 . S
O378 Eu380 2.393 . S
O378 Eu383 2.370 . S
Eu379 O377 2.350 1_554 S
Eu379 O381 2.391 . S
Eu379 O385 2.391 . S
Eu379 O386 2.350 1_554 S
Eu379 O394 2.363 . S
Eu379 O395 2.363 . S
Eu379 O410 2.398 . S
Eu379 O411 2.328 1_554 S
Eu380 O378 2.393 . S
Eu380 O382 2.348 1_554 S
Eu380 O387 2.348 1_554 S
Eu380 O388 2.393 . S
Eu380 O396 2.363 . S
Eu380 O397 2.363 . S
Eu380 O412 2.401 . S
Eu380 O413 2.325 1_554 S
O381 Eu376 2.393 1_655 S
O381 Eu379 2.391 . S
O381 Eu383 2.370 1_655 S
O382 Eu376 2.348 1_556 S
O382 Eu380 2.348 1_556 S
O382 Eu384 2.370 . S
Eu383 O378 2.370 . S
Eu383 O381 2.370 1_455 S
Eu383 O385 2.370 1_455 S
Eu383 O388 2.370 . S
Eu383 O400 2.363 . S
Eu383 O401 2.363 1_455 S
Eu383 O408 2.363 . S
Eu383 O409 2.363 . S
Eu384 O377 2.370 1_455 S
Eu384 O382 2.370 . S
Eu384 O386 2.370 1_455 S
Eu384 O387 2.370 . S
Eu384 O398 2.363 . S
Eu384 O399 2.363 1_455 S
Eu384 O406 2.363 . S
Eu384 O407 2.363 . S
O385 Eu379 2.391 . S
O385 Eu383 2.370 1_655 S
O385 Eu389 2.391 1_655 S
O386 Eu379 2.350 1_556 S
O386 Eu384 2.370 1_655 S
O386 Eu389 2.350 1_656 S
O387 Eu380 2.348 1_556 S
O387 Eu384 2.370 . S
O387 Eu389 2.350 1_556 S
O388 Eu380 2.393 . S
O388 Eu383 2.370 . S
O388 Eu389 2.391 . S
Eu389 O385 2.391 1_455 S
Eu389 O386 2.350 1_454 S
Eu389 O387 2.350 1_554 S
Eu389 O388 2.391 . S
Eu389 O392 2.398 . S
Eu389 O393 2.328 1_554 S
Eu389 O402 2.363 . S
Eu389 O403 2.363 1_455 S
O390 C364 1.283 . S
O390 Eu376 2.401 . S
O391 C365 1.283 . S
O391 Eu376 2.325 1_556 S
O392 C366 1.283 . S
O392 Eu389 2.398 . S
O393 C367 1.283 . S
O393 Eu389 2.328 1_556 S
O394 C368 1.283 . S
O394 Eu379 2.363 . S
O395 C369 1.283 . S
O395 Eu379 2.363 . S
O396 C370 1.283 . S
O396 Eu380 2.363 . S
O397 C371 1.283 . S
O397 Eu380 2.363 . S
O398 C372 1.283 . S
O398 Eu384 2.363 . S
O399 C373 1.283 . S
O399 Eu384 2.363 1_655 S
O400 C374 1.283 . S
O400 Eu383 2.363 . S
O401 C375 1.283 . S
O401 Eu383 2.363 1_655 S
O402 C370 1.283 . S
O402 Eu389 2.363 . S
O403 C368 1.283 . S
O403 Eu389 2.363 1_655 S
O404 C371 1.283 . S
O404 Eu376 2.363 . S
O405 C369 1.283 . S
O405 Eu376 2.363 1_655 S
O406 C365 1.283 . S
O406 Eu384 2.363 . S
O407 C367 1.283 . S
O407 Eu384 2.363 . S
O408 C364 1.283 . S
O408 Eu383 2.363 . S
O409 C366 1.283 . S
O409 Eu383 2.363 . S
O410 C375 1.283 . S
O410 Eu379 2.398 . S
O411 C373 1.283 . S
O411 Eu379 2.328 1_556 S
O412 C374 1.283 . S
O412 Eu380 2.401 . S
O413 C372 1.283 . S
O413 Eu380 2.325 1_556 S
C414 O440 1.283 . S
C414 O458 1.283 . S
C415 O441 1.283 . S
C415 O456 1.283 . S
C416 O442 1.283 . S
C416 O459 1.283 . S
C417 O443 1.283 . S
C417 O457 1.283 . S
C418 O444 1.283 . S
C418 O453 1.283 . S
C419 O445 1.283 . S
C419 O455 1.283 . S
C420 O446 1.283 . S
C420 O452 1.283 . S
C421 O447 1.283 . S
C421 O454 1.283 . S
C422 O448 1.283 . S
C422 O463 1.283 . S
C423 O449 1.283 . S
C423 O461 1.283 . S
C424 O450 1.283 . S
C424 O462 1.283 . S
C425 O451 1.283 . S
C425 O460 1.283 . S
Eu426 O427 2.370 . S
Eu426 O428 2.370 . S
Eu426 O431 2.370 . S
Eu426 O432 2.370 . S
Eu426 O440 2.363 . S
Eu426 O441 2.363 . S
Eu426 O454 2.363 . S
Eu426 O455 2.363 . S
O427 Eu426 2.370 . S
O427 Eu429 2.370 . S
O427 Eu434 2.370 . S
O428 Eu426 2.370 . S
O428 Eu430 2.370 . S
O428 Eu433 2.370 . S
Eu429 O427 2.370 . S
Eu429 O431 2.370 . S
Eu429 O435 2.370 1_554 S
Eu429 O436 2.370 1_554 S
Eu429 O444 2.363 1_554 S
Eu429 O445 2.363 . S
Eu429 O460 2.363 . S
Eu429 O461 2.363 . S
Eu430 O428 2.370 . S
Eu430 O432 2.370 . S
Eu430 O437 2.370 1_554 S
Eu430 O438 2.370 1_554 S
Eu430 O446 2.363 1_554 S
Eu430 O447 2.363 . S
Eu430 O462 2.363 . S
Eu430 O463 2.363 . S
O431 Eu426 2.370 . S
O431 Eu429 2.370 . S
O431 Eu433 2.370 . S
O432 Eu426 2.370 . S
O432 Eu430 2.370 . S
O432 Eu434 2.370 . S
Eu433 O428 2.370 . S
Eu433 O431 2.370 . S
Eu433 O435 2.370 1_554 S
Eu433 O438 2.370 1_554 S
Eu433 O450 2.363 . S
Eu433 O451 2.363 . S
Eu433 O458 2.363 . S
Eu433 O459 2.363 1_554 S
Eu434 O427 2.370 . S
Eu434 O432 2.370 . S
Eu434 O436 2.370 1_554 S
Eu434 O437 2.370 1_554 S
Eu434 O448 2.363 . S
Eu434 O449 2.363 . S
Eu434 O456 2.363 . S
Eu434 O457 2.363 1_554 S
O435 Eu429 2.370 1_556 S
O435 Eu433 2.370 1_556 S
O435 Eu439 2.370 . S
O436 Eu429 2.370 1_556 S
O436 Eu434 2.370 1_556 S
O436 Eu439 2.370 . S
O437 Eu430 2.370 1_556 S
O437 Eu434 2.370 1_556 S
O437 Eu439 2.370 . S
O438 Eu430 2.370 1_556 S
O438 Eu433 2.370 1_556 S
O438 Eu439 2.370 . S
Eu439 O435 2.370 . S
Eu439 O436 2.370 . S
Eu439 O437 2.370 . S
Eu439 O438 2.370 . S
Eu439 O442 2.363 . S
Eu439 O443 2.363 . S
Eu439 O452 2.363 . S
Eu439 O453 2.363 . S
O440 C414 1.283 . S
O440 Eu426 2.363 . S
O441 C415 1.283 . S
O441 Eu426 2.363 . S
O442 C416 1.283 . S
O442 Eu439 2.363 . S
O443 C417 1.283 . S
O443 Eu439 2.363 . S
O444 C418 1.283 . S
O444 Eu429 2.363 1_556 S
O445 C419 1.283 . S
O445 Eu429 2.363 . S
O446 C420 1.283 . S
O446 Eu430 2.363 1_556 S
O447 C421 1.283 . S
O447 Eu430 2.363 . S
O448 C422 1.283 . S
O448 Eu434 2.363 . S
O449 C423 1.283 . S
O449 Eu434 2.363 . S
O450 C424 1.283 . S
O450 Eu433 2.363 . S
O451 C425 1.283 . S
O451 Eu433 2.363 . S
O452 C420 1.283 . S
O452 Eu439 2.363 . S
O453 C418 1.283 . S
O453 Eu439 2.363 . S
O454 C421 1.283 . S
O454 Eu426 2.363 . S
O455 C419 1.283 . S
O455 Eu426 2.363 . S
O456 C415 1.283 . S
O456 Eu434 2.363 . S
O457 C417 1.283 . S
O457 Eu434 2.363 1_556 S
O458 C414 1.283 . S
O458 Eu433 2.363 . S
O459 C416 1.283 . S
O459 Eu433 2.363 1_556 S
O460 C425 1.283 . S
O460 Eu429 2.363 . S
O461 C423 1.283 . S
O461 Eu429 2.363 . S
O462 C424 1.283 . S
O462 Eu430 2.363 . S
O463 C422 1.283 . S
O463 Eu430 2.363 . S
C464 O490 1.283 . S
C464 O508 1.283 . S
C465 O491 1.283 . S
C465 O506 1.283 . S
C466 O492 1.283 . S
C466 O509 1.283 . S
C467 O493 1.283 . S
C467 O507 1.283 . S
C468 O494 1.283 . S
C468 O503 1.283 . S
C469 O495 1.283 . S
C469 O505 1.283 . S
C470 O496 1.283 . S
C470 O502 1.283 . S
C471 O497 1.283 . S
C471 O504 1.283 . S
C472 O498 1.283 . S
C472 O513 1.283 . S
C473 O499 1.283 . S
C473 O511 1.283 . S
C474 O500 1.283 . S
C474 O512 1.283 . S
C475 O501 1.283 . S
C475 O510 1.283 . S
Eu476 O477 2.370 1_455 S
Eu476 O478 2.370 . S
Eu476 O481 2.370 1_455 S
Eu476 O482 2.370 . S
Eu476 O490 2.363 . S
Eu476 O491 2.363 . S
Eu476 O504 2.363 . S
Eu476 O505 2.363 1_455 S
O477 Eu476 2.370 1_655 S
O477 Eu479 2.370 . S
O477 Eu484 2.370 1_655 S
O478 Eu476 2.370 . S
O478 Eu480 2.370 . S
O478 Eu483 2.370 . S
Eu479 O477 2.370 . S
Eu479 O481 2.370 . S
Eu479 O485 2.370 . S
Eu479 O486 2.370 . S
Eu479 O494 2.363 . S
Eu479 O495 2.363 . S
Eu479 O510 2.363 . S
Eu479 O511 2.363 . S
Eu480 O478 2.370 . S
Eu480 O482 2.370 . S
Eu480 O487 2.370 . S
Eu480 O488 2.370 . S
Eu480 O496 2.363 . S
Eu480 O497 2.363 . S
Eu480 O512 2.363 . S
Eu480 O513 2.363 . S
O481 Eu476 2.370 1_655 S
O481 Eu479 2.370 . S
O481 Eu483 2.370 1_655 S
O482 Eu476 2.370 . S
O482 Eu480 2.370 . S
O482 Eu484 2.370 . S
Eu483 O478 2.370 . S
Eu483 O481 2.370 1_455 S
Eu483 O485 2.370 1_455 S
Eu483 O488 2.370 . S
Eu483 O500 2.363 . S
Eu483 O501 2.363 1_455 S
Eu483 O508 2.363 . S
Eu483 O509 2.363 . S
Eu484 O477 2.370 1_455 S
Eu484 O482 2.370 . S
Eu484 O486 2.370 1_455 S
Eu484 O487 2.370 . S
Eu484 O498 2.363 . S
Eu484 O499 2.363 1_455 S
Eu484 O506 2.363 . S
Eu484 O507 2.363 . S
O485 Eu479 2.370 . S
O485 Eu483 2.370 1_655 S
O485 Eu489 2.370 1_655 S
O486 Eu479 2.370 . S
O486 Eu484 2.370 1_655 S
O486 Eu489 2.370 1_655 S
O487 Eu480 2.370 . S
O487 Eu484 2.370 . S
O487 Eu489 2.370 . S
O488 Eu480 2.370 . S
O488 Eu483 2.370 . S
O488 Eu489 2.370 . S
Eu489 O485 2.370 1_455 S
Eu489 O486 2.370 1_455 S
Eu489 O487 2.370 . S
Eu489 O488 2.370 . S
Eu489 O492 2.363 . S
Eu489 O493 2.363 . S
Eu489 O502 2.363 . S
Eu489 O503 2.363 1_455 S
O490 C464 1.283 . S
O490 Eu476 2.363 . S
O491 C465 1.283 . S
O491 Eu476 2.363 . S
O492 C466 1.283 . S
O492 Eu489 2.363 . S
O493 C467 1.283 . S
O493 Eu489 2.363 . S
O494 C468 1.283 . S
O494 Eu479 2.363 . S
O495 C469 1.283 . S
O495 Eu479 2.363 . S
O496 C470 1.283 . S
O496 Eu480 2.363 . S
O497 C471 1.283 . S
O497 Eu480 2.363 . S
O498 C472 1.283 . S
O498 Eu484 2.363 . S
O499 C473 1.283 . S
O499 Eu484 2.363 1_655 S
O500 C474 1.283 . S
O500 Eu483 2.363 . S
O501 C475 1.283 . S
O501 Eu483 2.363 1_655 S
O502 C470 1.283 . S
O502 Eu489 2.363 . S
O503 C468 1.283 . S
O503 Eu489 2.363 1_655 S
O504 C471 1.283 . S
O504 Eu476 2.363 . S
O505 C469 1.283 . S
O505 Eu476 2.363 1_655 S
O506 C465 1.283 . S
O506 Eu484 2.363 . S
O507 C467 1.283 . S
O507 Eu484 2.363 . S
O508 C464 1.283 . S
O508 Eu483 2.363 . S
O509 C466 1.283 . S
O509 Eu483 2.363 . S
O510 C475 1.283 . S
O510 Eu479 2.363 . S
O511 C473 1.283 . S
O511 Eu479 2.363 . S
O512 C474 1.283 . S
O512 Eu480 2.363 . S
O513 C472 1.283 . S
O513 Eu480 2.363 . S
C514 O540 1.283 . S
C514 O558 1.283 . S
C515 O541 1.283 . S
C515 O556 1.283 . S
C516 O542 1.283 . S
C516 O559 1.283 . S
C517 O543 1.283 . S
C517 O557 1.283 . S
C518 O544 1.283 . S
C518 O553 1.283 . S
C519 O545 1.283 . S
C519 O555 1.283 . S
C520 O546 1.283 . S
C520 O552 1.283 . S
C521 O547 1.283 . S
C521 O554 1.283 . S
C522 O548 1.283 . S
C522 O563 1.283 . S
C523 O549 1.283 . S
C523 O561 1.283 . S
C524 O550 1.283 . S
C524 O562 1.283 . S
C525 O551 1.283 . S
C525 O560 1.283 . S
Eu526 O527 2.370 . S
Eu526 O528 2.370 . S
Eu526 O531 2.370 . S
Eu526 O532 2.370 . S
Eu526 O540 2.363 . S
Eu526 O541 2.363 . S
Eu526 O554 2.363 . S
Eu526 O555 2.363 . S
O527 Eu526 2.370 . S
O527 Eu529 2.367 1_565 S
O527 Eu534 2.367 1_565 S
O528 Eu526 2.370 . S
O528 Eu530 2.367 1_565 S
O528 Eu533 2.366 1_565 S
Eu529 O527 2.367 1_545 S
Eu529 O531 2.367 1_545 S
Eu529 O535 2.374 . S
Eu529 O536 2.374 . S
Eu529 O544 2.369 . S
Eu529 O545 2.357 1_545 S
Eu529 O560 2.363 . S
Eu529 O561 2.363 . S
Eu530 O528 2.367 1_545 S
Eu530 O532 2.367 1_545 S
Eu530 O537 2.374 . S
Eu530 O538 2.374 . S
Eu530 O546 2.369 . S
Eu530 O547 2.357 1_545 S
Eu530 O562 2.363 . S
Eu530 O563 2.363 . S
O531 Eu526 2.370 . S
O531 Eu529 2.367 1_565 S
O531 Eu533 2.366 1_565 S
O532 Eu526 2.370 . S
O532 Eu530 2.367 1_565 S
O532 Eu534 2.367 1_565 S
Eu533 O528 2.366 1_545 S
Eu533 O531 2.366 1_545 S
Eu533 O535 2.374 . S
Eu533 O538 2.374 . S
Eu533 O550 2.363 . S
Eu533 O551 2.363 . S
Eu533 O558 2.356 1_545 S
Eu533 O559 2.370 . S
Eu534 O527 2.367 1_545 S
Eu534 O532 2.367 1_545 S
Eu534 O536 2.373 . S
Eu534 O537 2.373 . S
Eu534 O548 2.363 . S
Eu534 O549 2.363 . S
Eu534 O556 2.359 1_545 S
Eu534 O557 2.367 . S
O535 Eu529 2.374 . S
O535 Eu533 2.374 . S
O535 Eu539 2.370 . S
O536 Eu529 2.374 . S
O536 Eu534 2.373 . S
O536 Eu539 2.370 . S
O537 Eu530 2.374 . S
O537 Eu534 2.373 . S
O537 Eu539 2.370 . S
O538 Eu530 2.374 . S
O538 Eu533 2.374 . S
O538 Eu539 2.370 . S
Eu539 O535 2.370 . S
Eu539 O536 2.370 . S
Eu539 O537 2.370 . S
Eu539 O538 2.370 . S
Eu539 O542 2.363 . S
Eu539 O543 2.363 . S
Eu539 O552 2.363 . S
Eu539 O553 2.363 . S
O540 C514 1.283 . S
O540 Eu526 2.363 . S
O541 C515 1.283 . S
O541 Eu526 2.363 . S
O542 C516 1.283 . S
O542 Eu539 2.363 . S
O543 C517 1.283 . S
O543 Eu539 2.363 . S
O544 C518 1.283 . S
O544 Eu529 2.369 . S
O545 C519 1.283 . S
O545 Eu529 2.357 1_565 S
O546 C520 1.283 . S
O546 Eu530 2.369 . S
O547 C521 1.283 . S
O547 Eu530 2.357 1_565 S
O548 C522 1.283 . S
O548 Eu534 2.363 . S
O549 C523 1.283 . S
O549 Eu534 2.363 . S
O550 C524 1.283 . S
O550 Eu533 2.363 . S
O551 C525 1.283 . S
O551 Eu533 2.363 . S
O552 C520 1.283 . S
O552 Eu539 2.363 . S
O553 C518 1.283 . S
O553 Eu539 2.363 . S
O554 C521 1.283 . S
O554 Eu526 2.363 . S
O555 C519 1.283 . S
O555 Eu526 2.363 . S
O556 C515 1.283 . S
O556 Eu534 2.359 1_565 S
O557 C517 1.283 . S
O557 Eu534 2.367 . S
O558 C514 1.283 . S
O558 Eu533 2.356 1_565 S
O559 C516 1.283 . S
O559 Eu533 2.370 . S
O560 C525 1.283 . S
O560 Eu529 2.363 . S
O561 C523 1.283 . S
O561 Eu529 2.363 . S
O562 C524 1.283 . S
O562 Eu530 2.363 . S
O563 C522 1.283 . S
O563 Eu530 2.363 . S
C564 C565 1.391 . S
C564 C566 1.394 . S
C564 H580 0.931 . S
C565 C564 1.391 . S
C565 C569 1.376 . S
C566 C564 1.394 . S
C566 C567 1.369 . S
C566 C570 1.531 . S
C567 C566 1.369 . S
C567 C568 1.410 . S
C567 C575 1.503 . S
C568 C567 1.410 . S
C568 C569 1.392 . S
C568 C571 1.511 . S
C569 C565 1.376 . S
C569 C568 1.392 . S
C569 H581 0.929 . S
C570 C566 1.531 . S
C570 H582 0.960 . S
C570 H583 0.962 . S
C570 H584 0.960 . S
C571 C568 1.511 . S
C571 H585 0.961 . S
C571 H586 0.961 . S
C571 H587 0.961 . S
C572 C573 1.370 . S
C572 C574 1.363 . S
C572 H588 0.931 . S
C573 C572 1.370 . S
C573 C577 1.408 . S
C574 C572 1.363 . S
C574 C575 1.370 . S
C574 C578 1.524 . S
C575 C567 1.503 . S
C575 C574 1.370 . S
C575 C576 1.403 . S
C576 C575 1.403 . S
C576 C577 1.404 . S
C576 C579 1.539 . S
C577 C573 1.408 . S
C577 C576 1.404 . S
C577 H589 0.930 . S
C578 C574 1.524 . S
C578 H590 0.956 . S
C578 H591 0.961 . S
C578 H592 0.961 . S
C579 C576 1.539 . S
C579 H593 0.958 . S
C579 H594 0.961 . S
C579 H595 0.960 . S
H580 C564 0.931 . S
H581 C569 0.929 . S
H582 C570 0.960 . S
H583 C570 0.962 . S
H584 C570 0.960 . S
H585 C571 0.961 . S
H586 C571 0.961 . S
H587 C571 0.961 . S
H588 C572 0.931 . S
H589 C577 0.930 . S
H590 C578 0.956 . S
H591 C578 0.961 . S
H592 C578 0.961 . S
H593 C579 0.958 . S
H594 C579 0.961 . S
H595 C579 0.960 . S
C596 C597 1.391 . S
C596 C598 1.394 . S
C596 H612 0.931 . S
C597 C596 1.391 . S
C597 C601 1.376 . S
C598 C596 1.394 . S
C598 C599 1.369 . S
C598 C602 1.531 . S
C599 C598 1.369 . S
C599 C600 1.410 . S
C599 C607 1.503 . S
C600 C599 1.410 . S
C600 C601 1.392 . S
C600 C603 1.511 . S
C601 C597 1.376 . S
C601 C600 1.392 . S
C601 H613 0.929 . S
C602 C598 1.531 . S
C602 H614 0.960 . S
C602 H615 0.962 . S
C602 H616 0.960 . S
C603 C600 1.511 . S
C603 H617 0.961 . S
C603 H618 0.961 . S
C603 H619 0.961 . S
C604 C605 1.370 . S
C604 C606 1.363 . S
C604 H620 0.931 . S
C605 C604 1.370 . S
C605 C609 1.408 . S
C606 C604 1.363 . S
C606 C607 1.370 . S
C606 C610 1.524 . S
C607 C599 1.503 . S
C607 C606 1.370 . S
C607 C608 1.403 . S
C608 C607 1.403 . S
C608 C609 1.404 . S
C608 C611 1.539 . S
C609 C605 1.408 . S
C609 C608 1.404 . S
C609 H621 0.930 . S
C610 C606 1.524 . S
C610 H622 0.956 . S
C610 H623 0.961 . S
C610 H624 0.961 . S
C611 C608 1.539 . S
C611 H625 0.958 . S
C611 H626 0.961 . S
C611 H627 0.960 . S
H612 C596 0.931 . S
H613 C601 0.929 . S
H614 C602 0.960 . S
H615 C602 0.962 . S
H616 C602 0.960 . S
H617 C603 0.961 . S
H618 C603 0.961 . S
H619 C603 0.961 . S
H620 C604 0.931 . S
H621 C609 0.930 . S
H622 C610 0.956 . S
H623 C610 0.961 . S
H624 C610 0.961 . S
H625 C611 0.958 . S
H626 C611 0.961 . S
H627 C611 0.960 . S
C628 C629 1.391 . S
C628 C630 1.394 . S
C628 H644 0.931 . S
C629 C628 1.391 . S
C629 C633 1.376 . S
C630 C628 1.394 . S
C630 C631 1.369 . S
C630 C634 1.531 . S
C631 C630 1.369 . S
C631 C632 1.410 . S
C631 C639 1.503 . S
C632 C631 1.410 . S
C632 C633 1.392 . S
C632 C635 1.511 . S
C633 C629 1.376 . S
C633 C632 1.392 . S
C633 H645 0.929 . S
C634 C630 1.531 . S
C634 H646 0.960 . S
C634 H647 0.962 . S
C634 H648 0.960 . S
C635 C632 1.511 . S
C635 H649 0.961 . S
C635 H650 0.961 . S
C635 H651 0.961 . S
C636 C637 1.370 . S
C636 C638 1.363 . S
C636 H652 0.931 . S
C637 C636 1.370 . S
C637 C641 1.408 . S
C638 C636 1.363 . S
C638 C639 1.370 . S
C638 C642 1.524 . S
C639 C631 1.503 . S
C639 C638 1.370 . S
C639 C640 1.403 . S
C640 C639 1.403 . S
C640 C641 1.404 . S
C640 C643 1.539 . S
C641 C637 1.408 . S
C641 C640 1.404 . S
C641 H653 0.930 . S
C642 C638 1.524 . S
C642 H654 0.956 . S
C642 H655 0.961 . S
C642 H656 0.961 . S
C643 C640 1.539 . S
C643 H657 0.958 . S
C643 H658 0.961 . S
C643 H659 0.960 . S
H644 C628 0.931 . S
H645 C633 0.929 . S
H646 C634 0.960 . S
H647 C634 0.962 . S
H648 C634 0.960 . S
H649 C635 0.961 . S
H650 C635 0.961 . S
H651 C635 0.961 . S
H652 C636 0.931 . S
H653 C641 0.930 . S
H654 C642 0.956 . S
H655 C642 0.961 . S
H656 C642 0.961 . S
H657 C643 0.958 . S
H658 C643 0.961 . S
H659 C643 0.960 . S
C660 C661 1.391 . S
C660 C662 1.394 . S
C660 H676 0.931 . S
C661 C660 1.391 . S
C661 C665 1.376 . S
C662 C660 1.394 . S
C662 C663 1.369 . S
C662 C666 1.531 . S
C663 C662 1.369 . S
C663 C664 1.410 . S
C663 C671 1.503 . S
C664 C663 1.410 . S
C664 C665 1.392 . S
C664 C667 1.511 . S
C665 C661 1.376 . S
C665 C664 1.392 . S
C665 H677 0.929 . S
C666 C662 1.531 . S
C666 H678 0.960 . S
C666 H679 0.962 . S
C666 H680 0.960 . S
C667 C664 1.511 . S
C667 H681 0.961 . S
C667 H682 0.961 . S
C667 H683 0.961 . S
C668 C669 1.370 . S
C668 C670 1.363 . S
C668 H684 0.931 . S
C669 C668 1.370 . S
C669 C673 1.408 . S
C670 C668 1.363 . S
C670 C671 1.370 . S
C670 C674 1.524 . S
C671 C663 1.503 . S
C671 C670 1.370 . S
C671 C672 1.403 . S
C672 C671 1.403 . S
C672 C673 1.404 . S
C672 C675 1.539 . S
C673 C669 1.408 . S
C673 C672 1.404 . S
C673 H685 0.930 . S
C674 C670 1.524 . S
C674 H686 0.956 . S
C674 H687 0.961 . S
C674 H688 0.961 . S
C675 C672 1.539 . S
C675 H689 0.958 . S
C675 H690 0.961 . S
C675 H691 0.960 . S
H676 C660 0.931 . S
H677 C665 0.929 . S
H678 C666 0.960 . S
H679 C666 0.962 . S
H680 C666 0.960 . S
H681 C667 0.961 . S
H682 C667 0.961 . S
H683 C667 0.961 . S
H684 C668 0.931 . S
H685 C673 0.930 . S
H686 C674 0.956 . S
H687 C674 0.961 . S
H688 C674 0.961 . S
H689 C675 0.958 . S
H690 C675 0.961 . S
H691 C675 0.960 . S
C692 C693 1.391 . S
C692 C694 1.394 . S
C692 H708 0.931 . S
C693 C692 1.391 . S
C693 C697 1.376 . S
C694 C692 1.394 . S
C694 C695 1.369 . S
C694 C698 1.531 . S
C695 C694 1.369 . S
C695 C696 1.410 . S
C695 C703 1.503 . S
C696 C695 1.410 . S
C696 C697 1.392 . S
C696 C699 1.511 . S
C697 C693 1.376 . S
C697 C696 1.392 . S
C697 H709 0.929 . S
C698 C694 1.531 . S
C698 H710 0.960 . S
C698 H711 0.962 . S
C698 H712 0.960 . S
C699 C696 1.511 . S
C699 H713 0.961 . S
C699 H714 0.961 . S
C699 H715 0.961 . S
C700 C701 1.370 . S
C700 C702 1.363 . S
C700 H716 0.931 . S
C701 C700 1.370 . S
C701 C705 1.408 . S
C702 C700 1.363 . S
C702 C703 1.370 . S
C702 C706 1.524 . S
C703 C695 1.503 . S
C703 C702 1.370 . S
C703 C704 1.403 . S
C704 C703 1.403 . S
C704 C705 1.404 . S
C704 C707 1.539 . S
C705 C701 1.408 . S
C705 C704 1.404 . S
C705 H717 0.930 . S
C706 C702 1.524 . S
C706 H718 0.956 . S
C706 H719 0.961 . S
C706 H720 0.961 . S
C707 C704 1.539 . S
C707 H721 0.958 . S
C707 H722 0.961 . S
C707 H723 0.960 . S
H708 C692 0.931 . S
H709 C697 0.929 . S
H710 C698 0.960 . S
H711 C698 0.962 . S
H712 C698 0.960 . S
H713 C699 0.961 . S
H714 C699 0.961 . S
H715 C699 0.961 . S
H716 C700 0.931 . S
H717 C705 0.930 . S
H718 C706 0.956 . S
H719 C706 0.961 . S
H720 C706 0.961 . S
H721 C707 0.958 . S
H722 C707 0.961 . S
H723 C707 0.960 . S
C724 C725 1.391 . S
C724 C726 1.394 . S
C724 H740 0.931 . S
C725 C724 1.391 . S
C725 C729 1.376 . S
C726 C724 1.394 . S
C726 C727 1.369 . S
C726 C730 1.531 . S
C727 C726 1.369 . S
C727 C728 1.410 . S
C727 C735 1.503 . S
C728 C727 1.410 . S
C728 C729 1.392 . S
C728 C731 1.511 . S
C729 C725 1.376 . S
C729 C728 1.392 . S
C729 H741 0.929 . S
C730 C726 1.531 . S
C730 H742 0.960 . S
C730 H743 0.962 . S
C730 H744 0.960 . S
C731 C728 1.511 . S
C731 H745 0.961 . S
C731 H746 0.961 . S
C731 H747 0.961 . S
C732 C733 1.370 . S
C732 C734 1.363 . S
C732 H748 0.931 . S
C733 C732 1.370 . S
C733 C737 1.408 . S
C734 C732 1.363 . S
C734 C735 1.370 . S
C734 C738 1.524 . S
C735 C727 1.503 . S
C735 C734 1.370 . S
C735 C736 1.403 . S
C736 C735 1.403 . S
C736 C737 1.404 . S
C736 C739 1.539 . S
C737 C733 1.408 . S
C737 C736 1.404 . S
C737 H749 0.930 . S
C738 C734 1.524 . S
C738 H750 0.956 . S
C738 H751 0.961 . S
C738 H752 0.961 . S
C739 C736 1.539 . S
C739 H753 0.958 . S
C739 H754 0.961 . S
C739 H755 0.960 . S
H740 C724 0.931 . S
H741 C729 0.929 . S
H742 C730 0.960 . S
H743 C730 0.962 . S
H744 C730 0.960 . S
H745 C731 0.961 . S
H746 C731 0.961 . S
H747 C731 0.961 . S
H748 C732 0.931 . S
H749 C737 0.930 . S
H750 C738 0.956 . S
H751 C738 0.961 . S
H752 C738 0.961 . S
H753 C739 0.958 . S
H754 C739 0.961 . S
H755 C739 0.960 . S
C756 C757 1.391 . S
C756 C758 1.394 . S
C756 H772 0.931 . S
C757 C756 1.391 . S
C757 C761 1.376 . S
C758 C756 1.394 . S
C758 C759 1.369 . S
C758 C762 1.531 . S
C759 C758 1.369 . S
C759 C760 1.410 . S
C759 C767 1.503 . S
C760 C759 1.410 . S
C760 C761 1.392 . S
C760 C763 1.511 . S
C761 C757 1.376 . S
C761 C760 1.392 . S
C761 H773 0.929 . S
C762 C758 1.531 . S
C762 H774 0.960 . S
C762 H775 0.962 . S
C762 H776 0.960 . S
C763 C760 1.511 . S
C763 H777 0.961 . S
C763 H778 0.961 . S
C763 H779 0.961 . S
C764 C765 1.370 . S
C764 C766 1.363 . S
C764 H780 0.931 . S
C765 C764 1.370 . S
C765 C769 1.408 . S
C766 C764 1.363 . S
C766 C767 1.370 . S
C766 C770 1.524 . S
C767 C759 1.503 . S
C767 C766 1.370 . S
C767 C768 1.403 . S
C768 C767 1.403 . S
C768 C769 1.404 . S
C768 C771 1.539 . S
C769 C765 1.408 . S
C769 C768 1.404 . S
C769 H781 0.930 . S
C770 C766 1.524 . S
C770 H782 0.956 . S
C770 H783 0.961 . S
C770 H784 0.961 . S
C771 C768 1.539 . S
C771 H785 0.958 . S
C771 H786 0.961 . S
C771 H787 0.960 . S
H772 C756 0.931 . S
H773 C761 0.929 . S
H774 C762 0.960 . S
H775 C762 0.962 . S
H776 C762 0.960 . S
H777 C763 0.961 . S
H778 C763 0.961 . S
H779 C763 0.961 . S
H780 C764 0.931 . S
H781 C769 0.930 . S
H782 C770 0.956 . S
H783 C770 0.961 . S
H784 C770 0.961 . S
H785 C771 0.958 . S
H786 C771 0.961 . S
H787 C771 0.960 . S
C788 C789 1.391 . S
C788 C790 1.394 . S
C788 H804 0.931 . S
C789 C788 1.391 . S
C789 C793 1.376 . S
C790 C788 1.394 . S
C790 C791 1.369 . S
C790 C794 1.531 . S
C791 C790 1.369 . S
C791 C792 1.410 . S
C791 C799 1.503 . S
C792 C791 1.410 . S
C792 C793 1.392 . S
C792 C795 1.511 . S
C793 C789 1.376 . S
C793 C792 1.392 . S
C793 H805 0.929 . S
C794 C790 1.531 . S
C794 H806 0.960 . S
C794 H807 0.962 . S
C794 H808 0.960 . S
C795 C792 1.511 . S
C795 H809 0.961 . S
C795 H810 0.961 . S
C795 H811 0.961 . S
C796 C797 1.370 . S
C796 C798 1.363 . S
C796 H812 0.931 . S
C797 C796 1.370 . S
C797 C801 1.408 . S
C798 C796 1.363 . S
C798 C799 1.370 . S
C798 C802 1.524 . S
C799 C791 1.503 . S
C799 C798 1.370 . S
C799 C800 1.403 . S
C800 C799 1.403 . S
C800 C801 1.404 . S
C800 C803 1.539 . S
C801 C797 1.408 . S
C801 C800 1.404 . S
C801 H813 0.930 . S
C802 C798 1.524 . S
C802 H814 0.956 . S
C802 H815 0.961 . S
C802 H816 0.961 . S
C803 C800 1.539 . S
C803 H817 0.958 . S
C803 H818 0.961 . S
C803 H819 0.960 . S
H804 C788 0.931 . S
H805 C793 0.929 . S
H806 C794 0.960 . S
H807 C794 0.962 . S
H808 C794 0.960 . S
H809 C795 0.961 . S
H810 C795 0.961 . S
H811 C795 0.961 . S
H812 C796 0.931 . S
H813 C801 0.930 . S
H814 C802 0.956 . S
H815 C802 0.961 . S
H816 C802 0.961 . S
H817 C803 0.958 . S
H818 C803 0.961 . S
H819 C803 0.960 . S
C820 C821 1.391 . S
C820 C822 1.394 . S
C820 H836 0.931 . S
C821 C820 1.391 . S
C821 C825 1.376 . S
C822 C820 1.394 . S
C822 C823 1.369 . S
C822 C826 1.531 . S
C823 C822 1.369 . S
C823 C824 1.410 . S
C823 C831 1.503 . S
C824 C823 1.410 . S
C824 C825 1.392 . S
C824 C827 1.511 . S
C825 C821 1.376 . S
C825 C824 1.392 . S
C825 H837 0.929 . S
C826 C822 1.531 . S
C826 H838 0.960 . S
C826 H839 0.962 . S
C826 H840 0.960 . S
C827 C824 1.511 . S
C827 H841 0.961 . S
C827 H842 0.961 . S
C827 H843 0.961 . S
C828 C829 1.370 . S
C828 C830 1.363 . S
C828 H844 0.931 . S
C829 C828 1.370 . S
C829 C833 1.408 . S
C830 C828 1.363 . S
C830 C831 1.370 . S
C830 C834 1.524 . S
C831 C823 1.503 . S
C831 C830 1.370 . S
C831 C832 1.403 . S
C832 C831 1.403 . S
C832 C833 1.404 . S
C832 C835 1.539 . S
C833 C829 1.408 . S
C833 C832 1.404 . S
C833 H845 0.930 . S
C834 C830 1.524 . S
C834 H846 0.956 . S
C834 H847 0.961 . S
C834 H848 0.961 . S
C835 C832 1.539 . S
C835 H849 0.958 . S
C835 H850 0.961 . S
C835 H851 0.960 . S
H836 C820 0.931 . S
H837 C825 0.929 . S
H838 C826 0.960 . S
H839 C826 0.962 . S
H840 C826 0.960 . S
H841 C827 0.961 . S
H842 C827 0.961 . S
H843 C827 0.961 . S
H844 C828 0.931 . S
H845 C833 0.930 . S
H846 C834 0.956 . S
H847 C834 0.961 . S
H848 C834 0.961 . S
H849 C835 0.958 . S
H850 C835 0.961 . S
H851 C835 0.960 . S
C852 C853 1.391 . S
C852 C854 1.394 . S
C852 H868 0.931 . S
C853 C852 1.391 . S
C853 C857 1.376 . S
C854 C852 1.394 . S
C854 C855 1.369 . S
C854 C858 1.531 . S
C855 C854 1.369 . S
C855 C856 1.410 . S
C855 C863 1.503 . S
C856 C855 1.410 . S
C856 C857 1.392 . S
C856 C859 1.511 . S
C857 C853 1.376 . S
C857 C856 1.392 . S
C857 H869 0.929 . S
C858 C854 1.531 . S
C858 H870 0.960 . S
C858 H871 0.962 . S
C858 H872 0.960 . S
C859 C856 1.511 . S
C859 H873 0.961 . S
C859 H874 0.961 . S
C859 H875 0.961 . S
C860 C861 1.370 . S
C860 C862 1.363 . S
C860 H876 0.931 . S
C861 C860 1.370 . S
C861 C865 1.408 . S
C862 C860 1.363 . S
C862 C863 1.370 . S
C862 C866 1.524 . S
C863 C855 1.503 . S
C863 C862 1.370 . S
C863 C864 1.403 . S
C864 C863 1.403 . S
C864 C865 1.404 . S
C864 C867 1.539 . S
C865 C861 1.408 . S
C865 C864 1.404 . S
C865 H877 0.930 . S
C866 C862 1.524 . S
C866 H878 0.956 . S
C866 H879 0.961 . S
C866 H880 0.961 . S
C867 C864 1.539 . S
C867 H881 0.958 . S
C867 H882 0.961 . S
C867 H883 0.960 . S
H868 C852 0.931 . S
H869 C857 0.929 . S
H870 C858 0.960 . S
H871 C858 0.962 . S
H872 C858 0.960 . S
H873 C859 0.961 . S
H874 C859 0.961 . S
H875 C859 0.961 . S
H876 C860 0.931 . S
H877 C865 0.930 . S
H878 C866 0.956 . S
H879 C866 0.961 . S
H880 C866 0.961 . S
H881 C867 0.958 . S
H882 C867 0.961 . S
H883 C867 0.960 . S
C884 C885 1.391 . S
C884 C886 1.394 . S
C884 H900 0.931 . S
C885 C884 1.391 . S
C885 C889 1.376 . S
C886 C884 1.394 . S
C886 C887 1.369 . S
C886 C890 1.531 . S
C887 C886 1.369 . S
C887 C888 1.410 . S
C887 C895 1.503 . S
C888 C887 1.410 . S
C888 C889 1.392 . S
C888 C891 1.511 . S
C889 C885 1.376 . S
C889 C888 1.392 . S
C889 H901 0.929 . S
C890 C886 1.531 . S
C890 H902 0.960 . S
C890 H903 0.962 . S
C890 H904 0.960 . S
C891 C888 1.511 . S
C891 H905 0.961 . S
C891 H906 0.961 . S
C891 H907 0.961 . S
C892 C893 1.370 . S
C892 C894 1.363 . S
C892 H908 0.931 . S
C893 C892 1.370 . S
C893 C897 1.408 . S
C894 C892 1.363 . S
C894 C895 1.370 . S
C894 C898 1.524 . S
C895 C887 1.503 . S
C895 C894 1.370 . S
C895 C896 1.403 . S
C896 C895 1.403 . S
C896 C897 1.404 . S
C896 C899 1.539 . S
C897 C893 1.408 . S
C897 C896 1.404 . S
C897 H909 0.930 . S
C898 C894 1.524 . S
C898 H910 0.956 . S
C898 H911 0.961 . S
C898 H912 0.961 . S
C899 C896 1.539 . S
C899 H913 0.958 . S
C899 H914 0.961 . S
C899 H915 0.960 . S
H900 C884 0.931 . S
H901 C889 0.929 . S
H902 C890 0.960 . S
H903 C890 0.962 . S
H904 C890 0.960 . S
H905 C891 0.961 . S
H906 C891 0.961 . S
H907 C891 0.961 . S
H908 C892 0.931 . S
H909 C897 0.930 . S
H910 C898 0.956 . S
H911 C898 0.961 . S
H912 C898 0.961 . S
H913 C899 0.958 . S
H914 C899 0.961 . S
H915 C899 0.960 . S
C916 C917 1.391 . S
C916 C918 1.394 . S
C916 H932 0.931 . S
C917 C916 1.391 . S
C917 C921 1.376 . S
C918 C916 1.394 . S
C918 C919 1.369 . S
C918 C922 1.531 . S
C919 C918 1.369 . S
C919 C920 1.410 . S
C919 C927 1.503 . S
C920 C919 1.410 . S
C920 C921 1.392 . S
C920 C923 1.511 . S
C921 C917 1.376 . S
C921 C920 1.392 . S
C921 H933 0.929 . S
C922 C918 1.531 . S
C922 H934 0.960 . S
C922 H935 0.962 . S
C922 H936 0.960 . S
C923 C920 1.511 . S
C923 H937 0.961 . S
C923 H938 0.961 . S
C923 H939 0.961 . S
C924 C925 1.370 . S
C924 C926 1.363 . S
C924 H940 0.931 . S
C925 C924 1.370 . S
C925 C929 1.408 . S
C926 C924 1.363 . S
C926 C927 1.370 . S
C926 C930 1.524 . S
C927 C919 1.503 . S
C927 C926 1.370 . S
C927 C928 1.403 . S
C928 C927 1.403 . S
C928 C929 1.404 . S
C928 C931 1.539 . S
C929 C925 1.408 . S
C929 C928 1.404 . S
C929 H941 0.930 . S
C930 C926 1.524 . S
C930 H942 0.956 . S
C930 H943 0.961 . S
C930 H944 0.961 . S
C931 C928 1.539 . S
C931 H945 0.958 . S
C931 H946 0.961 . S
C931 H947 0.960 . S
H932 C916 0.931 . S
H933 C921 0.929 . S
H934 C922 0.960 . S
H935 C922 0.962 . S
H936 C922 0.960 . S
H937 C923 0.961 . S
H938 C923 0.961 . S
H939 C923 0.961 . S
H940 C924 0.931 . S
H941 C929 0.930 . S
H942 C930 0.956 . S
H943 C930 0.961 . S
H944 C930 0.961 . S
H945 C931 0.958 . S
H946 C931 0.961 . S
H947 C931 0.960 . S
C948 C949 1.391 . S
C948 C950 1.394 . S
C948 H964 0.931 . S
C949 C948 1.391 . S
C949 C953 1.376 1_554 S
C950 C948 1.394 . S
C950 C951 1.369 . S
C950 C954 1.531 . S
C951 C950 1.369 . S
C951 C952 1.410 1_554 S
C951 C959 1.503 . S
C952 C951 1.410 1_556 S
C952 C953 1.392 . S
C952 C955 1.511 . S
C953 C949 1.376 1_556 S
C953 C952 1.392 . S
C953 H965 0.929 . S
C954 C950 1.531 . S
C954 H966 0.960 . S
C954 H967 0.962 . S
C954 H968 0.960 . S
C955 C952 1.511 . S
C955 H969 0.961 . S
C955 H970 0.961 . S
C955 H971 0.961 1_556 S
C956 C957 1.370 1_556 S
C956 C958 1.363 . S
C956 H972 0.931 . S
C957 C956 1.370 1_554 S
C957 C961 1.408 . S
C958 C956 1.363 . S
C958 C959 1.370 1_556 S
C958 C962 1.524 . S
C959 C951 1.503 . S
C959 C958 1.370 1_554 S
C959 C960 1.403 . S
C960 C959 1.403 . S
C960 C961 1.404 . S
C960 C963 1.539 . S
C961 C957 1.408 . S
C961 C960 1.404 . S
C961 H973 0.930 . S
C962 C958 1.524 . S
C962 H974 0.956 . S
C962 H975 0.961 . S
C962 H976 0.961 . S
C963 C960 1.539 . S
C963 H977 0.958 . S
C963 H978 0.961 . S
C963 H979 0.960 . S
H964 C948 0.931 . S
H965 C953 0.929 . S
H966 C954 0.960 . S
H967 C954 0.962 . S
H968 C954 0.960 . S
H969 C955 0.961 . S
H970 C955 0.961 . S
H971 C955 0.961 1_554 S
H972 C956 0.931 . S
H973 C961 0.930 . S
H974 C962 0.956 . S
H975 C962 0.961 . S
H976 C962 0.961 . S
H977 C963 0.958 . S
H978 C963 0.961 . S
H979 C963 0.960 . S
C980 C981 1.391 1_556 S
C980 C982 1.394 . S
C980 H996 0.931 . S
C981 C980 1.391 1_554 S
C981 C985 1.376 . S
C982 C980 1.394 . S
C982 C983 1.369 . S
C982 C986 1.531 . S
C983 C982 1.369 . S
C983 C984 1.410 1_556 S
C983 C991 1.503 . S
C984 C983 1.410 1_554 S
C984 C985 1.392 . S
C984 C987 1.511 . S
C985 C981 1.376 . S
C985 C984 1.392 . S
C985 H997 0.929 . S
C986 C982 1.531 . S
C986 H998 0.960 . S
C986 H999 0.962 . S
C986 H1000 0.960 . S
C987 C984 1.511 . S
C987 H1001 0.961 . S
C987 H1002 0.961 . S
C987 H1003 0.957 1_554 S
C988 C989 1.370 . S
C988 C990 1.363 . S
C988 H1004 0.931 . S
C989 C988 1.370 . S
C989 C993 1.408 1_554 S
C990 C988 1.363 . S
C990 C991 1.369 1_554 S
C990 C994 1.524 . S
C991 C983 1.503 . S
C991 C990 1.369 1_556 S
C991 C992 1.404 . S
C992 C991 1.404 . S
C992 C993 1.404 . S
C992 C995 1.539 . S
C993 C989 1.408 1_556 S
C993 C992 1.404 . S
C993 H1005 0.930 . S
C994 C990 1.524 . S
C994 H1006 0.956 . S
C994 H1007 0.961 . S
C994 H1008 0.961 . S
C995 C992 1.539 . S
C995 H1009 0.958 . S
C995 H1010 0.961 . S
C995 H1011 0.960 . S
H996 C980 0.931 . S
H997 C985 0.929 . S
H998 C986 0.960 . S
H999 C986 0.962 . S
H1000 C986 0.960 . S
H1001 C987 0.961 . S
H1002 C987 0.961 . S
H1003 C987 0.957 1_556 S
H1004 C988 0.931 . S
H1005 C993 0.930 . S
H1006 C994 0.956 . S
H1007 C994 0.961 . S
H1008 C994 0.961 . S
H1009 C995 0.958 . S
H1010 C995 0.961 . S
H1011 C995 0.960 . S
C1012 C1013 1.397 . S
C1012 C1014 1.395 . S
C1012 H1028 0.924 1_554 S
C1013 C1012 1.397 . S
C1013 C1017 1.376 . S
C1014 C1012 1.395 . S
C1014 C1015 1.369 . S
C1014 C1018 1.531 1_554 S
C1015 C1014 1.369 . S
C1015 C1016 1.410 . S
C1015 C1023 1.503 . S
C1016 C1015 1.410 . S
C1016 C1017 1.392 . S
C1016 C1019 1.511 . S
C1017 C1013 1.376 . S
C1017 C1016 1.392 . S
C1017 H1029 0.929 . S
C1018 C1014 1.531 1_556 S
C1018 H1030 0.960 1_556 S
C1018 H1031 0.962 . S
C1018 H1032 0.960 . S
C1019 C1016 1.511 . S
C1019 H1033 0.961 . S
C1019 H1034 0.961 . S
C1019 H1035 0.961 . S
C1020 C1021 1.370 1_556 S
C1020 C1022 1.363 . S
C1020 H1036 0.931 . S
C1021 C1020 1.370 1_554 S
C1021 C1025 1.408 . S
C1022 C1020 1.363 . S
C1022 C1023 1.370 1_556 S
C1022 C1026 1.524 . S
C1023 C1015 1.503 . S
C1023 C1022 1.370 1_554 S
C1023 C1024 1.403 . S
C1024 C1023 1.403 . S
C1024 C1025 1.404 . S
C1024 C1027 1.539 . S
C1025 C1021 1.408 . S
C1025 C1024 1.404 . S
C1025 H1037 0.930 . S
C1026 C1022 1.524 . S
C1026 H1038 0.956 . S
C1026 H1039 0.961 . S
C1026 H1040 0.961 . S
C1027 C1024 1.539 . S
C1027 H1041 0.958 . S
C1027 H1042 0.961 . S
C1027 H1043 0.960 . S
H1028 C1012 0.924 1_556 S
H1029 C1017 0.929 . S
H1030 C1018 0.960 1_554 S
H1031 C1018 0.962 . S
H1032 C1018 0.960 . S
H1033 C1019 0.961 . S
H1034 C1019 0.961 . S
H1035 C1019 0.961 . S
H1036 C1020 0.931 . S
H1037 C1025 0.930 . S
H1038 C1026 0.956 . S
H1039 C1026 0.961 . S
H1040 C1026 0.961 . S
H1041 C1027 0.958 . S
H1042 C1027 0.961 . S
H1043 C1027 0.960 . S
C1044 C1045 1.391 . S
C1044 C1046 1.394 . S
C1044 H1060 0.931 . S
C1045 C1044 1.391 . S
C1045 C1049 1.376 . S
C1046 C1044 1.394 . S
C1046 C1047 1.369 . S
C1046 C1050 1.531 . S
C1047 C1046 1.369 . S
C1047 C1048 1.410 . S
C1047 C1055 1.503 . S
C1048 C1047 1.410 . S
C1048 C1049 1.392 . S
C1048 C1051 1.511 . S
C1049 C1045 1.376 . S
C1049 C1048 1.392 . S
C1049 H1061 0.929 . S
C1050 C1046 1.531 . S
C1050 H1062 0.960 . S
C1050 H1063 0.962 1_554 S
C1050 H1064 0.960 . S
C1051 C1048 1.511 . S
C1051 H1065 0.961 . S
C1051 H1066 0.961 . S
C1051 H1067 0.961 . S
C1052 C1053 1.370 1_556 S
C1052 C1054 1.363 . S
C1052 H1068 0.931 . S
C1053 C1052 1.370 1_554 S
C1053 C1057 1.408 . S
C1054 C1052 1.363 . S
C1054 C1055 1.370 1_556 S
C1054 C1058 1.524 . S
C1055 C1047 1.503 . S
C1055 C1054 1.370 1_554 S
C1055 C1056 1.403 . S
C1056 C1055 1.403 . S
C1056 C1057 1.404 . S
C1056 C1059 1.539 . S
C1057 C1053 1.408 . S
C1057 C1056 1.404 . S
C1057 H1069 0.930 . S
C1058 C1054 1.524 . S
C1058 H1070 0.956 . S
C1058 H1071 0.961 . S
C1058 H1072 0.961 . S
C1059 C1056 1.539 . S
C1059 H1073 0.958 . S
C1059 H1074 0.961 . S
C1059 H1075 0.960 . S
H1060 C1044 0.931 . S
H1061 C1049 0.929 . S
H1062 C1050 0.960 . S
H1063 C1050 0.962 1_556 S
H1064 C1050 0.960 . S
H1065 C1051 0.961 . S
H1066 C1051 0.961 . S
H1067 C1051 0.961 . S
H1068 C1052 0.931 . S
H1069 C1057 0.930 . S
H1070 C1058 0.956 . S
H1071 C1058 0.961 . S
H1072 C1058 0.961 . S
H1073 C1059 0.958 . S
H1074 C1059 0.961 . S
H1075 C1059 0.960 . S
C1076 C1077 1.391 1_655 S
C1076 C1078 1.394 1_655 S
C1076 H1092 0.931 . S
C1077 C1076 1.391 1_455 S
C1077 C1081 1.376 . S
C1078 C1076 1.394 1_455 S
C1078 C1079 1.368 . S
C1078 C1082 1.532 1_455 S
C1079 C1078 1.368 . S
C1079 C1080 1.410 . S
C1079 C1087 1.503 . S
C1080 C1079 1.410 . S
C1080 C1081 1.392 . S
C1080 C1083 1.511 . S
C1081 C1077 1.376 . S
C1081 C1080 1.392 . S
C1081 H1093 0.929 . S
C1082 C1078 1.532 1_655 S
C1082 H1094 0.960 . S
C1082 H1095 0.962 . S
C1082 H1096 0.960 . S
C1083 C1080 1.511 . S
C1083 H1097 0.961 . S
C1083 H1098 0.961 . S
C1083 H1099 0.961 . S
C1084 C1085 1.376 . S
C1084 C1086 1.364 . S
C1084 H1100 0.924 1_455 S
C1085 C1084 1.376 . S
C1085 C1089 1.408 . S
C1086 C1084 1.364 . S
C1086 C1087 1.370 . S
C1086 C1090 1.524 1_455 S
C1087 C1079 1.503 . S
C1087 C1086 1.370 . S
C1087 C1088 1.403 . S
C1088 C1087 1.403 . S
C1088 C1089 1.404 . S
C1088 C1091 1.539 . S
C1089 C1085 1.408 . S
C1089 C1088 1.404 . S
C1089 H1101 0.930 . S
C1090 C1086 1.524 1_655 S
C1090 H1102 0.956 . S
C1090 H1103 0.961 . S
C1090 H1104 0.961 . S
C1091 C1088 1.539 . S
C1091 H1105 0.958 . S
C1091 H1106 0.961 . S
C1091 H1107 0.960 . S
H1092 C1076 0.931 . S
H1093 C1081 0.929 . S
H1094 C1082 0.960 . S
H1095 C1082 0.962 . S
H1096 C1082 0.960 . S
H1097 C1083 0.961 . S
H1098 C1083 0.961 . S
H1099 C1083 0.961 . S
H1100 C1084 0.924 1_655 S
H1101 C1089 0.930 . S
H1102 C1090 0.956 . S
H1103 C1090 0.961 . S
H1104 C1090 0.961 . S
H1105 C1091 0.958 . S
H1106 C1091 0.961 . S
H1107 C1091 0.960 . S
C1108 C1109 1.391 . S
C1108 C1110 1.394 . S
C1108 H1124 0.931 . S
C1109 C1108 1.391 . S
C1109 C1113 1.376 1_545 S
C1110 C1108 1.394 . S
C1110 C1111 1.369 . S
C1110 C1114 1.531 . S
C1111 C1110 1.369 . S
C1111 C1112 1.410 1_545 S
C1111 C1119 1.503 . S
C1112 C1111 1.410 1_565 S
C1112 C1113 1.392 . S
C1112 C1115 1.511 . S
C1113 C1109 1.376 1_565 S
C1113 C1112 1.392 . S
C1113 H1125 0.929 . S
C1114 C1110 1.531 . S
C1114 H1126 0.960 . S
C1114 H1127 0.962 . S
C1114 H1128 0.960 . S
C1115 C1112 1.511 . S
C1115 H1129 0.961 . S
C1115 H1130 0.961 . S
C1115 H1131 0.961 . S
C1116 C1117 1.370 1_565 S
C1116 C1118 1.363 . S
C1116 H1132 0.931 . S
C1117 C1116 1.370 1_545 S
C1117 C1121 1.408 . S
C1118 C1116 1.363 . S
C1118 C1119 1.370 1_565 S
C1118 C1122 1.524 . S
C1119 C1111 1.503 . S
C1119 C1118 1.370 1_545 S
C1119 C1120 1.403 . S
C1120 C1119 1.403 . S
C1120 C1121 1.404 . S
C1120 C1123 1.539 . S
C1121 C1117 1.408 . S
C1121 C1120 1.404 . S
C1121 H1133 0.930 . S
C1122 C1118 1.524 . S
C1122 H1134 0.956 . S
C1122 H1135 0.961 . S
C1122 H1136 0.961 . S
C1123 C1120 1.539 . S
C1123 H1137 0.958 . S
C1123 H1138 0.961 . S
C1123 H1139 0.960 . S
H1124 C1108 0.931 . S
H1125 C1113 0.929 . S
H1126 C1114 0.960 . S
H1127 C1114 0.962 . S
H1128 C1114 0.960 . S
H1129 C1115 0.961 . S
H1130 C1115 0.961 . S
H1131 C1115 0.961 . S
H1132 C1116 0.931 . S
H1133 C1121 0.930 . S
H1134 C1122 0.956 . S
H1135 C1122 0.961 . S
H1136 C1122 0.961 . S
H1137 C1123 0.958 . S
H1138 C1123 0.961 . S
H1139 C1123 0.960 . S
C1140 C1141 1.391 . S
C1140 C1142 1.394 . S
C1140 H1156 0.931 1_455 S
C1141 C1140 1.391 . S
C1141 C1145 1.376 . S
C1142 C1140 1.394 . S
C1142 C1143 1.369 . S
C1142 C1146 1.531 1_455 S
C1143 C1142 1.369 . S
C1143 C1144 1.410 . S
C1143 C1151 1.503 . S
C1144 C1143 1.410 . S
C1144 C1145 1.392 . S
C1144 C1147 1.511 . S
C1145 C1141 1.376 . S
C1145 C1144 1.392 . S
C1145 H1157 0.929 . S
C1146 C1142 1.531 1_655 S
C1146 H1158 0.960 . S
C1146 H1159 0.962 . S
C1146 H1160 0.960 . S
C1147 C1144 1.511 . S
C1147 H1161 0.961 . S
C1147 H1162 0.961 . S
C1147 H1163 0.961 . S
C1148 C1149 1.370 1_655 S
C1148 C1150 1.363 . S
C1148 H1164 0.931 . S
C1149 C1148 1.370 1_455 S
C1149 C1153 1.408 . S
C1150 C1148 1.363 . S
C1150 C1151 1.370 1_655 S
C1150 C1154 1.524 . S
C1151 C1143 1.503 . S
C1151 C1150 1.370 1_455 S
C1151 C1152 1.403 . S
C1152 C1151 1.403 . S
C1152 C1153 1.404 . S
C1152 C1155 1.539 . S
C1153 C1149 1.408 . S
C1153 C1152 1.404 . S
C1153 H1165 0.930 . S
C1154 C1150 1.524 . S
C1154 H1166 0.956 . S
C1154 H1167 0.961 . S
C1154 H1168 0.961 . S
C1155 C1152 1.539 . S
C1155 H1169 0.958 . S
C1155 H1170 0.961 . S
C1155 H1171 0.960 . S
H1156 C1140 0.931 1_655 S
H1157 C1145 0.929 . S
H1158 C1146 0.960 . S
H1159 C1146 0.962 . S
H1160 C1146 0.960 . S
H1161 C1147 0.961 . S
H1162 C1147 0.961 . S
H1163 C1147 0.961 . S
H1164 C1148 0.931 . S
H1165 C1153 0.930 . S
H1166 C1154 0.956 . S
H1167 C1154 0.961 . S
H1168 C1154 0.961 . S
H1169 C1155 0.958 . S
H1170 C1155 0.961 . S
H1171 C1155 0.960 . S
C1172 C1173 1.391 . S
C1172 C1174 1.394 . S
C1172 H1188 0.931 . S
C1173 C1172 1.391 . S
C1173 C1177 1.376 1_545 S
C1174 C1172 1.394 . S
C1174 C1175 1.369 . S
C1174 C1178 1.531 . S
C1175 C1174 1.369 . S
C1175 C1176 1.410 1_545 S
C1175 C1183 1.503 . S
C1176 C1175 1.410 1_565 S
C1176 C1177 1.392 . S
C1176 C1179 1.511 . S
C1177 C1173 1.376 1_565 S
C1177 C1176 1.392 . S
C1177 H1189 0.929 . S
C1178 C1174 1.531 . S
C1178 H1190 0.960 . S
C1178 H1191 0.962 . S
C1178 H1192 0.960 . S
C1179 C1176 1.511 . S
C1179 H1193 0.961 . S
C1179 H1194 0.961 . S
C1179 H1195 0.961 . S
C1180 C1181 1.346 1_565 S
C1180 C1182 1.363 . S
C1180 H1196 0.931 . S
C1181 C1180 1.346 1_545 S
C1181 C1185 1.436 . S
C1182 C1180 1.363 . S
C1182 C1183 1.370 1_565 S
C1182 C1186 1.524 . S
C1183 C1175 1.503 . S
C1183 C1182 1.370 1_545 S
C1183 C1184 1.403 . S
C1184 C1183 1.403 . S
C1184 C1185 1.404 . S
C1184 C1187 1.539 . S
C1185 C1181 1.436 . S
C1185 C1184 1.404 . S
C1185 H1197 0.930 . S
C1186 C1182 1.524 . S
C1186 H1198 0.956 . S
C1186 H1199 0.961 . S
C1186 H1200 0.961 . S
C1187 C1184 1.539 . S
C1187 H1201 0.958 . S
C1187 H1202 0.961 . S
C1187 H1203 0.960 . S
H1188 C1172 0.931 . S
H1189 C1177 0.929 . S
H1190 C1178 0.960 . S
H1191 C1178 0.962 . S
H1192 C1178 0.960 . S
H1193 C1179 0.961 . S
H1194 C1179 0.961 . S
H1195 C1179 0.961 . S
H1196 C1180 0.931 . S
H1197 C1185 0.930 . S
H1198 C1186 0.956 . S
H1199 C1186 0.961 . S
H1200 C1186 0.961 . S
H1201 C1187 0.958 . S
H1202 C1187 0.961 . S
H1203 C1187 0.960 . S
C1204 C1205 1.391 1_655 S
C1204 C1206 1.394 . S
C1204 H1220 0.931 . S
C1205 C1204 1.391 1_455 S
C1205 C1209 1.376 . S
C1206 C1204 1.394 . S
C1206 C1207 1.362 1_655 S
C1206 C1210 1.537 . S
C1207 C1206 1.362 1_455 S
C1207 C1208 1.410 . S
C1207 C1215 1.503 . S
C1208 C1207 1.410 . S
C1208 C1209 1.392 . S
C1208 C1211 1.511 . S
C1209 C1205 1.376 . S
C1209 C1208 1.392 . S
C1209 H1221 0.929 . S
C1210 C1206 1.537 . S
C1210 H1222 0.960 . S
C1210 H1223 0.962 . S
C1210 H1224 0.960 . S
C1211 C1208 1.511 . S
C1211 H1225 0.961 . S
C1211 H1226 0.961 . S
C1211 H1227 0.961 . S
C1212 C1213 1.375 . S
C1212 C1214 1.364 . S
C1212 H1228 0.925 1_455 S
C1213 C1212 1.375 . S
C1213 C1217 1.408 . S
C1214 C1212 1.364 . S
C1214 C1215 1.370 . S
C1214 C1218 1.524 1_455 S
C1215 C1207 1.503 . S
C1215 C1214 1.370 . S
C1215 C1216 1.403 . S
C1216 C1215 1.403 . S
C1216 C1217 1.404 . S
C1216 C1219 1.539 . S
C1217 C1213 1.408 . S
C1217 C1216 1.404 . S
C1217 H1229 0.930 . S
C1218 C1214 1.524 1_655 S
C1218 H1230 0.956 . S
C1218 H1231 0.961 . S
C1218 H1232 0.961 . S
C1219 C1216 1.539 . S
C1219 H1233 0.958 . S
C1219 H1234 0.961 . S
C1219 H1235 0.960 . S
H1220 C1204 0.931 . S
H1221 C1209 0.929 . S
H1222 C1210 0.960 . S
H1223 C1210 0.962 . S
H1224 C1210 0.960 . S
H1225 C1211 0.961 . S
H1226 C1211 0.961 . S
H1227 C1211 0.961 . S
H1228 C1212 0.925 1_655 S
H1229 C1217 0.930 . S
H1230 C1218 0.956 . S
H1231 C1218 0.961 . S
H1232 C1218 0.961 . S
H1233 C1219 0.958 . S
H1234 C1219 0.961 . S
H1235 C1219 0.960 . S
C1236 C1237 1.391 . S
C1236 C1238 1.394 . S
C1236 H1252 0.931 . S
C1237 C1236 1.391 . S
C1237 C1241 1.376 1_565 S
C1238 C1236 1.394 . S
C1238 C1239 1.369 . S
C1238 C1242 1.531 . S
C1239 C1238 1.369 . S
C1239 C1240 1.410 1_565 S
C1239 C1247 1.503 . S
C1240 C1239 1.410 1_545 S
C1240 C1241 1.392 . S
C1240 C1243 1.511 . S
C1241 C1237 1.376 1_545 S
C1241 C1240 1.392 . S
C1241 H1253 0.929 . S
C1242 C1238 1.531 . S
C1242 H1254 0.960 . S
C1242 H1255 0.962 . S
C1242 H1256 0.960 . S
C1243 C1240 1.511 . S
C1243 H1257 0.961 . S
C1243 H1258 0.961 . S
C1243 H1259 0.961 . S
C1244 C1245 1.356 1_545 S
C1244 C1246 1.363 . S
C1244 H1260 0.931 . S
C1245 C1244 1.356 1_565 S
C1245 C1249 1.425 . S
C1246 C1244 1.363 . S
C1246 C1247 1.370 1_545 S
C1246 C1250 1.524 . S
C1247 C1239 1.503 . S
C1247 C1246 1.370 1_565 S
C1247 C1248 1.403 . S
C1248 C1247 1.403 . S
C1248 C1249 1.404 . S
C1248 C1251 1.539 . S
C1249 C1245 1.425 . S
C1249 C1248 1.404 . S
C1249 H1261 0.930 . S
C1250 C1246 1.524 . S
C1250 H1262 0.956 . S
C1250 H1263 0.961 . S
C1250 H1264 0.961 . S
C1251 C1248 1.539 . S
C1251 H1265 0.958 . S
C1251 H1266 0.961 . S
C1251 H1267 0.960 . S
H1252 C1236 0.931 . S
H1253 C1241 0.929 . S
H1254 C1242 0.960 . S
H1255 C1242 0.962 . S
H1256 C1242 0.960 . S
H1257 C1243 0.961 . S
H1258 C1243 0.961 . S
H1259 C1243 0.961 . S
H1260 C1244 0.931 . S
H1261 C1249 0.930 . S
H1262 C1250 0.956 . S
H1263 C1250 0.961 . S
H1264 C1250 0.961 . S
H1265 C1251 0.958 . S
H1266 C1251 0.961 . S
H1267 C1251 0.960 . S
C1268 C1269 1.391 . S
C1268 C1270 1.394 . S
C1268 H1284 0.931 . S
C1269 C1268 1.391 . S
C1269 C1273 1.376 1_455 S
C1270 C1268 1.394 . S
C1270 C1271 1.369 . S
C1270 C1274 1.531 . S
C1271 C1270 1.369 . S
C1271 C1272 1.410 1_455 S
C1271 C1279 1.503 . S
C1272 C1271 1.410 1_655 S
C1272 C1273 1.392 . S
C1272 C1275 1.511 . S
C1273 C1269 1.376 1_655 S
C1273 C1272 1.392 . S
C1273 H1285 0.929 . S
C1274 C1270 1.531 . S
C1274 H1286 0.960 . S
C1274 H1287 0.962 . S
C1274 H1288 0.960 . S
C1275 C1272 1.511 . S
C1275 H1289 0.961 . S
C1275 H1290 0.961 . S
C1275 H1291 0.961 . S
C1276 C1277 1.370 . S
C1276 C1278 1.363 . S
C1276 H1292 0.931 . S
C1277 C1276 1.370 . S
C1277 C1281 1.408 1_455 S
C1278 C1276 1.363 . S
C1278 C1279 1.370 . S
C1278 C1282 1.524 . S
C1279 C1271 1.503 . S
C1279 C1278 1.370 . S
C1279 C1280 1.403 1_455 S
C1280 C1279 1.403 1_655 S
C1280 C1281 1.404 . S
C1280 C1283 1.539 . S
C1281 C1277 1.408 1_655 S
C1281 C1280 1.404 . S
C1281 H1293 0.930 . S
C1282 C1278 1.524 . S
C1282 H1294 0.956 . S
C1282 H1295 0.961 . S
C1282 H1296 0.961 . S
C1283 C1280 1.539 . S
C1283 H1297 0.958 . S
C1283 H1298 0.961 . S
C1283 H1299 0.960 . S
H1284 C1268 0.931 . S
H1285 C1273 0.929 . S
H1286 C1274 0.960 . S
H1287 C1274 0.962 . S
H1288 C1274 0.960 . S
H1289 C1275 0.961 . S
H1290 C1275 0.961 . S
H1291 C1275 0.961 . S
H1292 C1276 0.931 . S
H1293 C1281 0.930 . S
H1294 C1282 0.956 . S
H1295 C1282 0.961 . S
H1296 C1282 0.961 . S
H1297 C1283 0.958 . S
H1298 C1283 0.961 . S
H1299 C1283 0.960 . S
C1300 C1301 1.391 . S
C1300 C1302 1.394 . S
C1300 H1316 0.931 . S
C1301 C1300 1.391 . S
C1301 C1305 1.376 1_545 S
C1302 C1300 1.394 . S
C1302 C1303 1.369 . S
C1302 C1306 1.531 . S
C1303 C1302 1.369 . S
C1303 C1304 1.410 1_545 S
C1303 C1311 1.503 . S
C1304 C1303 1.410 1_565 S
C1304 C1305 1.392 . S
C1304 C1307 1.511 . S
C1305 C1301 1.376 1_565 S
C1305 C1304 1.392 . S
C1305 H1317 0.929 . S
C1306 C1302 1.531 . S
C1306 H1318 0.960 . S
C1306 H1319 0.962 . S
C1306 H1320 0.960 . S
C1307 C1304 1.511 . S
C1307 H1321 0.961 . S
C1307 H1322 0.961 . S
C1307 H1323 0.961 1_565 S
C1308 C1309 1.370 1_565 S
C1308 C1310 1.363 . S
C1308 H1324 0.931 . S
C1309 C1308 1.370 1_545 S
C1309 C1313 1.408 . S
C1310 C1308 1.363 . S
C1310 C1311 1.370 1_565 S
C1310 C1314 1.524 . S
C1311 C1303 1.503 . S
C1311 C1310 1.370 1_545 S
C1311 C1312 1.403 . S
C1312 C1311 1.403 . S
C1312 C1313 1.404 . S
C1312 C1315 1.539 . S
C1313 C1309 1.408 . S
C1313 C1312 1.404 . S
C1313 H1325 0.930 . S
C1314 C1310 1.524 . S
C1314 H1326 0.956 . S
C1314 H1327 0.961 . S
C1314 H1328 0.961 . S
C1315 C1312 1.539 . S
C1315 H1329 0.958 . S
C1315 H1330 0.961 . S
C1315 H1331 0.960 . S
H1316 C1300 0.931 . S
H1317 C1305 0.929 . S
H1318 C1306 0.960 . S
H1319 C1306 0.962 . S
H1320 C1306 0.960 . S
H1321 C1307 0.961 . S
H1322 C1307 0.961 . S
H1323 C1307 0.961 1_545 S
H1324 C1308 0.931 . S
H1325 C1313 0.930 . S
H1326 C1314 0.956 . S
H1327 C1314 0.961 . S
H1328 C1314 0.961 . S
H1329 C1315 0.958 . S
H1330 C1315 0.961 . S
H1331 C1315 0.960 . S
C1332 C1333 1.391 . S
C1332 C1334 1.394 . S
C1332 H1348 0.931 . S
C1333 C1332 1.391 . S
C1333 C1337 1.376 1_455 S
C1334 C1332 1.394 . S
C1334 C1335 1.369 . S
C1334 C1338 1.531 . S
C1335 C1334 1.369 . S
C1335 C1336 1.410 1_455 S
C1335 C1343 1.503 . S
C1336 C1335 1.410 1_655 S
C1336 C1337 1.392 . S
C1336 C1339 1.511 . S
C1337 C1333 1.376 1_655 S
C1337 C1336 1.392 . S
C1337 H1349 0.929 . S
C1338 C1334 1.531 . S
C1338 H1350 0.960 . S
C1338 H1351 0.962 . S
C1338 H1352 0.960 . S
C1339 C1336 1.511 . S
C1339 H1353 0.961 . S
C1339 H1354 0.961 . S
C1339 H1355 0.961 . S
C1340 C1341 1.370 . S
C1340 C1342 1.363 . S
C1340 H1356 0.931 . S
C1341 C1340 1.370 . S
C1341 C1345 1.408 . S
C1342 C1340 1.363 . S
C1342 C1343 1.370 . S
C1342 C1346 1.524 . S
C1343 C1335 1.503 . S
C1343 C1342 1.370 . S
C1343 C1344 1.403 . S
C1344 C1343 1.403 . S
C1344 C1345 1.404 . S
C1344 C1347 1.539 1_455 S
C1345 C1341 1.408 . S
C1345 C1344 1.404 . S
C1345 H1357 0.930 . S
C1346 C1342 1.524 . S
C1346 H1358 0.956 . S
C1346 H1359 0.961 . S
C1346 H1360 0.961 . S
C1347 C1344 1.539 1_655 S
C1347 H1361 0.958 1_655 S
C1347 H1362 0.961 . S
C1347 H1363 0.960 . S
H1348 C1332 0.931 . S
H1349 C1337 0.929 . S
H1350 C1338 0.960 . S
H1351 C1338 0.962 . S
H1352 C1338 0.960 . S
H1353 C1339 0.961 . S
H1354 C1339 0.961 . S
H1355 C1339 0.961 . S
H1356 C1340 0.931 . S
H1357 C1345 0.930 . S
H1358 C1346 0.956 . S
H1359 C1346 0.961 . S
H1360 C1346 0.961 . S
H1361 C1347 0.958 1_455 S
H1362 C1347 0.961 . S
H1363 C1347 0.960 . S
C1364 C1365 1.391 . S
C1364 C1366 1.394 . S
C1364 H1380 0.931 . S
C1365 C1364 1.391 . S
C1365 C1369 1.376 1_565 S
C1366 C1364 1.394 . S
C1366 C1367 1.369 . S
C1366 C1370 1.531 . S
C1367 C1366 1.369 . S
C1367 C1368 1.410 1_565 S
C1367 C1375 1.503 . S
C1368 C1367 1.410 1_545 S
C1368 C1369 1.392 . S
C1368 C1371 1.511 . S
C1369 C1365 1.376 1_545 S
C1369 C1368 1.392 . S
C1369 H1381 0.929 . S
C1370 C1366 1.531 . S
C1370 H1382 0.960 . S
C1370 H1383 0.962 . S
C1370 H1384 0.960 . S
C1371 C1368 1.511 . S
C1371 H1385 0.961 . S
C1371 H1386 0.961 . S
C1371 H1387 0.961 . S
C1372 C1373 1.355 1_545 S
C1372 C1374 1.363 . S
C1372 H1388 0.931 . S
C1373 C1372 1.355 1_565 S
C1373 C1377 1.426 . S
C1374 C1372 1.363 . S
C1374 C1375 1.370 1_545 S
C1374 C1378 1.524 . S
C1375 C1367 1.503 . S
C1375 C1374 1.370 1_565 S
C1375 C1376 1.403 . S
C1376 C1375 1.403 . S
C1376 C1377 1.404 . S
C1376 C1379 1.539 . S
C1377 C1373 1.426 . S
C1377 C1376 1.404 . S
C1377 H1389 0.930 . S
C1378 C1374 1.524 . S
C1378 H1390 0.956 . S
C1378 H1391 0.961 . S
C1378 H1392 0.961 . S
C1379 C1376 1.539 . S
C1379 H1393 0.958 . S
C1379 H1394 0.961 . S
C1379 H1395 0.960 . S
H1380 C1364 0.931 . S
H1381 C1369 0.929 . S
H1382 C1370 0.960 . S
H1383 C1370 0.962 . S
H1384 C1370 0.960 . S
H1385 C1371 0.961 . S
H1386 C1371 0.961 . S
H1387 C1371 0.961 . S
H1388 C1372 0.931 . S
H1389 C1377 0.930 . S
H1390 C1378 0.956 . S
H1391 C1378 0.961 . S
H1392 C1378 0.961 . S
H1393 C1379 0.958 . S
H1394 C1379 0.961 . S
H1395 C1379 0.960 . S
C1396 C1397 1.391 . S
C1396 C1398 1.394 . S
C1396 H1412 0.931 . S
C1397 C1396 1.391 . S
C1397 C1401 1.376 1_455 S
C1398 C1396 1.394 . S
C1398 C1399 1.369 . S
C1398 C1402 1.531 . S
C1399 C1398 1.369 . S
C1399 C1400 1.410 1_455 S
C1399 C1407 1.503 . S
C1400 C1399 1.410 1_655 S
C1400 C1401 1.392 . S
C1400 C1403 1.511 . S
C1401 C1397 1.376 1_655 S
C1401 C1400 1.392 . S
C1401 H1413 0.929 . S
C1402 C1398 1.531 . S
C1402 H1414 0.960 . S
C1402 H1415 0.962 . S
C1402 H1416 0.960 . S
C1403 C1400 1.511 . S
C1403 H1417 0.961 . S
C1403 H1418 0.961 . S
C1403 H1419 0.961 . S
C1404 C1405 1.370 . S
C1404 C1406 1.363 . S
C1404 H1420 0.931 . S
C1405 C1404 1.370 . S
C1405 C1409 1.408 . S
C1406 C1404 1.363 . S
C1406 C1407 1.370 . S
C1406 C1410 1.524 . S
C1407 C1399 1.503 . S
C1407 C1406 1.370 . S
C1407 C1408 1.403 . S
C1408 C1407 1.403 . S
C1408 C1409 1.404 . S
C1408 C1411 1.539 . S
C1409 C1405 1.408 . S
C1409 C1408 1.404 . S
C1409 H1421 0.930 . S
C1410 C1406 1.524 . S
C1410 H1422 0.956 . S
C1410 H1423 0.961 . S
C1410 H1424 0.961 . S
C1411 C1408 1.539 . S
C1411 H1425 0.958 . S
C1411 H1426 0.961 1_455 S
C1411 H1427 0.960 1_455 S
H1412 C1396 0.931 . S
H1413 C1401 0.929 . S
H1414 C1402 0.960 . S
H1415 C1402 0.962 . S
H1416 C1402 0.960 . S
H1417 C1403 0.961 . S
H1418 C1403 0.961 . S
H1419 C1403 0.961 . S
H1420 C1404 0.931 . S
H1421 C1409 0.930 . S
H1422 C1410 0.956 . S
H1423 C1410 0.961 . S
H1424 C1410 0.961 . S
H1425 C1411 0.958 . S
H1426 C1411 0.961 1_655 S
H1427 C1411 0.960 1_655 S
C1428 C1429 1.391 . S
C1428 C1430 1.394 . S
C1428 H1444 0.931 . S
C1429 C1428 1.391 . S
C1429 C1433 1.376 1_565 S
C1430 C1428 1.394 . S
C1430 C1431 1.369 . S
C1430 C1434 1.531 . S
C1431 C1430 1.369 . S
C1431 C1432 1.410 1_565 S
C1431 C1439 1.503 . S
C1432 C1431 1.410 1_545 S
C1432 C1433 1.392 . S
C1432 C1435 1.511 . S
C1433 C1429 1.376 1_545 S
C1433 C1432 1.392 . S
C1433 H1445 0.929 . S
C1434 C1430 1.531 . S
C1434 H1446 0.960 . S
C1434 H1447 0.962 . S
C1434 H1448 0.960 . S
C1435 C1432 1.511 . S
C1435 H1449 0.961 . S
C1435 H1450 0.961 . S
C1435 H1451 0.961 . S
C1436 C1437 1.367 1_545 S
C1436 C1438 1.363 . S
C1436 H1452 0.931 . S
C1437 C1436 1.367 1_565 S
C1437 C1441 1.413 . S
C1438 C1436 1.363 . S
C1438 C1439 1.370 1_545 S
C1438 C1442 1.524 . S
C1439 C1431 1.503 . S
C1439 C1438 1.370 1_565 S
C1439 C1440 1.403 . S
C1440 C1439 1.403 . S
C1440 C1441 1.404 . S
C1440 C1443 1.539 . S
C1441 C1437 1.413 . S
C1441 C1440 1.404 . S
C1441 H1453 0.930 . S
C1442 C1438 1.524 . S
C1442 H1454 0.956 . S
C1442 H1455 0.961 . S
C1442 H1456 0.961 . S
C1443 C1440 1.539 . S
C1443 H1457 0.958 . S
C1443 H1458 0.961 . S
C1443 H1459 0.960 . S
H1444 C1428 0.931 . S
H1445 C1433 0.929 . S
H1446 C1434 0.960 . S
H1447 C1434 0.962 . S
H1448 C1434 0.960 . S
H1449 C1435 0.961 . S
H1450 C1435 0.961 . S
H1451 C1435 0.961 . S
H1452 C1436 0.931 . S
H1453 C1441 0.930 . S
H1454 C1442 0.956 . S
H1455 C1442 0.961 . S
H1456 C1442 0.961 . S
H1457 C1443 0.958 . S
H1458 C1443 0.961 . S
H1459 C1443 0.960 . S
C1460 C1461 1.391 . S
C1460 C1462 1.394 . S
C1460 H1476 0.931 . S
C1461 C1460 1.391 . S
C1461 C1465 1.376 1_455 S
C1462 C1460 1.394 . S
C1462 C1463 1.369 . S
C1462 C1466 1.531 . S
C1463 C1462 1.369 . S
C1463 C1464 1.410 1_455 S
C1463 C1471 1.503 . S
C1464 C1463 1.410 1_655 S
C1464 C1465 1.392 . S
C1464 C1467 1.511 . S
C1465 C1461 1.376 1_655 S
C1465 C1464 1.392 . S
C1465 H1477 0.929 . S
C1466 C1462 1.531 . S
C1466 H1478 0.960 . S
C1466 H1479 0.962 . S
C1466 H1480 0.960 . S
C1467 C1464 1.511 . S
C1467 H1481 0.961 . S
C1467 H1482 0.961 . S
C1467 H1483 0.961 . S
C1468 C1469 1.370 . S
C1468 C1470 1.363 . S
C1468 H1484 0.931 . S
C1469 C1468 1.370 . S
C1469 C1473 1.408 . S
C1470 C1468 1.363 . S
C1470 C1471 1.370 . S
C1470 C1474 1.524 . S
C1471 C1463 1.503 . S
C1471 C1470 1.370 . S
C1471 C1472 1.403 . S
C1472 C1471 1.403 . S
C1472 C1473 1.404 . S
C1472 C1475 1.539 1_455 S
C1473 C1469 1.408 . S
C1473 C1472 1.404 . S
C1473 H1485 0.930 . S
C1474 C1470 1.524 . S
C1474 H1486 0.956 . S
C1474 H1487 0.961 . S
C1474 H1488 0.961 . S
C1475 C1472 1.539 1_655 S
C1475 H1489 0.958 1_655 S
C1475 H1490 0.961 . S
C1475 H1491 0.960 . S
H1476 C1460 0.931 . S
H1477 C1465 0.929 . S
H1478 C1466 0.960 . S
H1479 C1466 0.962 . S
H1480 C1466 0.960 . S
H1481 C1467 0.961 . S
H1482 C1467 0.961 . S
H1483 C1467 0.961 . S
H1484 C1468 0.931 . S
H1485 C1473 0.930 . S
H1486 C1474 0.956 . S
H1487 C1474 0.961 . S
H1488 C1474 0.961 . S
H1489 C1475 0.958 1_455 S
H1490 C1475 0.961 . S
H1491 C1475 0.960 . S
C1492 C1493 1.391 . S
C1492 C1494 1.394 . S
C1492 H1508 0.931 . S
C1493 C1492 1.391 . S
C1493 C1497 1.376 1_565 S
C1494 C1492 1.394 . S
C1494 C1495 1.369 . S
C1494 C1498 1.531 . S
C1495 C1494 1.369 . S
C1495 C1496 1.410 1_565 S
C1495 C1503 1.503 . S
C1496 C1495 1.410 1_545 S
C1496 C1497 1.392 . S
C1496 C1499 1.511 . S
C1497 C1493 1.376 1_545 S
C1497 C1496 1.392 . S
C1497 H1509 0.929 . S
C1498 C1494 1.531 . S
C1498 H1510 0.960 . S
C1498 H1511 0.962 . S
C1498 H1512 0.960 . S
C1499 C1496 1.511 . S
C1499 H1513 0.961 . S
C1499 H1514 0.961 . S
C1499 H1515 0.961 . S
C1500 C1501 1.363 1_545 S
C1500 C1502 1.363 . S
C1500 H1516 0.931 . S
C1501 C1500 1.363 1_565 S
C1501 C1505 1.417 . S
C1502 C1500 1.363 . S
C1502 C1503 1.370 1_545 S
C1502 C1506 1.524 . S
C1503 C1495 1.503 . S
C1503 C1502 1.370 1_565 S
C1503 C1504 1.403 . S
C1504 C1503 1.403 . S
C1504 C1505 1.404 . S
C1504 C1507 1.539 . S
C1505 C1501 1.417 . S
C1505 C1504 1.404 . S
C1505 H1517 0.930 . S
C1506 C1502 1.524 . S
C1506 H1518 0.956 . S
C1506 H1519 0.961 . S
C1506 H1520 0.961 . S
C1507 C1504 1.539 . S
C1507 H1521 0.958 . S
C1507 H1522 0.961 . S
C1507 H1523 0.960 . S
H1508 C1492 0.931 . S
H1509 C1497 0.929 . S
H1510 C1498 0.960 . S
H1511 C1498 0.962 . S
H1512 C1498 0.960 . S
H1513 C1499 0.961 . S
H1514 C1499 0.961 . S
H1515 C1499 0.961 . S
H1516 C1500 0.931 . S
H1517 C1505 0.930 . S
H1518 C1506 0.956 . S
H1519 C1506 0.961 . S
H1520 C1506 0.961 . S
H1521 C1507 0.958 . S
H1522 C1507 0.961 . S
H1523 C1507 0.960 . S
C1524 C1525 1.391 1_655 S
C1524 C1526 1.393 1_655 S
C1524 H1540 0.931 . S
C1525 C1524 1.391 1_455 S
C1525 C1529 1.376 . S
C1526 C1524 1.393 1_455 S
C1526 C1527 1.374 . S
C1526 C1530 1.526 1_455 S
C1527 C1526 1.374 . S
C1527 C1528 1.410 . S
C1527 C1535 1.503 . S
C1528 C1527 1.410 . S
C1528 C1529 1.392 . S
C1528 C1531 1.511 . S
C1529 C1525 1.376 . S
C1529 C1528 1.392 . S
C1529 H1541 0.929 . S
C1530 C1526 1.526 1_655 S
C1530 H1542 0.960 . S
C1530 H1543 0.962 . S
C1530 H1544 0.960 . S
C1531 C1528 1.511 . S
C1531 H1545 0.961 . S
C1531 H1546 0.961 . S
C1531 H1547 0.961 . S
C1532 C1533 1.370 . S
C1532 C1534 1.363 . S
C1532 H1548 0.931 . S
C1533 C1532 1.370 . S
C1533 C1537 1.408 . S
C1534 C1532 1.363 . S
C1534 C1535 1.370 . S
C1534 C1538 1.524 . S
C1535 C1527 1.503 . S
C1535 C1534 1.370 . S
C1535 C1536 1.403 . S
C1536 C1535 1.403 . S
C1536 C1537 1.404 . S
C1536 C1539 1.539 . S
C1537 C1533 1.408 . S
C1537 C1536 1.404 . S
C1537 H1549 0.930 . S
C1538 C1534 1.524 . S
C1538 H1550 0.956 1_455 S
C1538 H1551 0.961 . S
C1538 H1552 0.961 1_455 S
C1539 C1536 1.539 . S
C1539 H1553 0.958 . S
C1539 H1554 0.961 . S
C1539 H1555 0.960 . S
H1540 C1524 0.931 . S
H1541 C1529 0.929 . S
H1542 C1530 0.960 . S
H1543 C1530 0.962 . S
H1544 C1530 0.960 . S
H1545 C1531 0.961 . S
H1546 C1531 0.961 . S
H1547 C1531 0.961 . S
H1548 C1532 0.931 . S
H1549 C1537 0.930 . S
H1550 C1538 0.956 1_655 S
H1551 C1538 0.961 . S
H1552 C1538 0.961 1_655 S
H1553 C1539 0.958 . S
H1554 C1539 0.961 . S
H1555 C1539 0.960 . S
C1556 C1557 1.391 1_545 S
C1556 C1558 1.394 . S
C1556 H1572 0.931 . S
C1557 C1556 1.391 1_565 S
C1557 C1561 1.376 . S
C1558 C1556 1.394 . S
C1558 C1559 1.369 1_545 S
C1558 C1562 1.531 . S
C1559 C1558 1.369 1_565 S
C1559 C1560 1.410 . S
C1559 C1567 1.503 . S
C1560 C1559 1.410 . S
C1560 C1561 1.392 . S
C1560 C1563 1.511 . S
C1561 C1557 1.376 . S
C1561 C1560 1.392 . S
C1561 H1573 0.929 . S
C1562 C1558 1.531 . S
C1562 H1574 0.960 1_545 S
C1562 H1575 0.962 . S
C1562 H1576 0.960 . S
C1563 C1560 1.511 . S
C1563 H1577 0.961 . S
C1563 H1578 0.961 . S
C1563 H1579 0.961 . S
C1564 C1565 1.346 1_545 S
C1564 C1566 1.363 . S
C1564 H1580 0.931 . S
C1565 C1564 1.346 1_565 S
C1565 C1569 1.435 . S
C1566 C1564 1.363 . S
C1566 C1567 1.370 1_545 S
C1566 C1570 1.524 . S
C1567 C1559 1.503 . S
C1567 C1566 1.370 1_565 S
C1567 C1568 1.403 . S
C1568 C1567 1.403 . S
C1568 C1569 1.404 . S
C1568 C1571 1.539 . S
C1569 C1565 1.435 . S
C1569 C1568 1.404 . S
C1569 H1581 0.930 . S
C1570 C1566 1.524 . S
C1570 H1582 0.956 . S
C1570 H1583 0.961 . S
C1570 H1584 0.961 . S
C1571 C1568 1.539 . S
C1571 H1585 0.958 . S
C1571 H1586 0.961 . S
C1571 H1587 0.960 . S
H1572 C1556 0.931 . S
H1573 C1561 0.929 . S
H1574 C1562 0.960 1_565 S
H1575 C1562 0.962 . S
H1576 C1562 0.960 . S
H1577 C1563 0.961 . S
H1578 C1563 0.961 . S
H1579 C1563 0.961 . S
H1580 C1564 0.931 . S
H1581 C1569 0.930 . S
H1582 C1570 0.956 . S
H1583 C1570 0.961 . S
H1584 C1570 0.961 . S
H1585 C1571 0.958 . S
H1586 C1571 0.961 . S
H1587 C1571 0.960 . S
C1588 C1589 1.391 . S
C1588 C1590 1.394 . S
C1588 H1604 0.931 . S
C1589 C1588 1.391 . S
C1589 C1593 1.376 . S
C1590 C1588 1.394 . S
C1590 C1591 1.369 . S
C1590 C1594 1.531 . S
C1591 C1590 1.369 . S
C1591 C1592 1.410 . S
C1591 C1599 1.503 . S
C1592 C1591 1.410 . S
C1592 C1593 1.392 . S
C1592 C1595 1.511 . S
C1593 C1589 1.376 . S
C1593 C1592 1.392 . S
C1593 H1605 0.932 . S
C1594 C1590 1.531 . S
C1594 H1606 0.960 . S
C1594 H1607 0.962 1_565 S
C1594 H1608 0.960 . S
C1595 C1592 1.511 . S
C1595 H1609 0.961 1_565 S
C1595 H1610 0.961 1_565 S
C1595 H1611 0.961 . S
C1596 C1597 1.340 1_545 S
C1596 C1598 1.363 . S
C1596 H1612 0.931 . S
C1597 C1596 1.340 1_565 S
C1597 C1601 1.442 . S
C1598 C1596 1.363 . S
C1598 C1599 1.370 1_545 S
C1598 C1602 1.524 . S
C1599 C1591 1.503 . S
C1599 C1598 1.370 1_565 S
C1599 C1600 1.403 . S
C1600 C1599 1.403 . S
C1600 C1601 1.404 . S
C1600 C1603 1.539 . S
C1601 C1597 1.442 . S
C1601 C1600 1.404 . S
C1601 H1613 0.930 . S
C1602 C1598 1.524 . S
C1602 H1614 0.956 . S
C1602 H1615 0.961 . S
C1602 H1616 0.961 . S
C1603 C1600 1.539 . S
C1603 H1617 0.958 . S
C1603 H1618 0.961 . S
C1603 H1619 0.960 . S
H1604 C1588 0.931 . S
H1605 C1593 0.932 . S
H1606 C1594 0.960 . S
H1607 C1594 0.962 1_545 S
H1608 C1594 0.960 . S
H1609 C1595 0.961 1_545 S
H1610 C1595 0.961 1_545 S
H1611 C1595 0.961 . S
H1612 C1596 0.931 . S
H1613 C1601 0.930 . S
H1614 C1602 0.956 . S
H1615 C1602 0.961 . S
H1616 C1602 0.961 . S
H1617 C1603 0.958 . S
H1618 C1603 0.961 . S
H1619 C1603 0.960 . S
C1620 C1621 1.391 . S
C1620 C1622 1.394 . S
C1620 H1636 0.931 . S
C1621 C1620 1.391 . S
C1621 C1625 1.376 1_455 S
C1622 C1620 1.394 . S
C1622 C1623 1.369 . S
C1622 C1626 1.531 . S
C1623 C1622 1.369 . S
C1623 C1624 1.410 1_455 S
C1623 C1631 1.503 . S
C1624 C1623 1.410 1_655 S
C1624 C1625 1.392 . S
C1624 C1627 1.511 . S
C1625 C1621 1.376 1_655 S
C1625 C1624 1.392 . S
C1625 H1637 0.929 . S
C1626 C1622 1.531 . S
C1626 H1638 0.960 . S
C1626 H1639 0.962 . S
C1626 H1640 0.960 . S
C1627 C1624 1.511 . S
C1627 H1641 0.961 . S
C1627 H1642 0.961 . S
C1627 H1643 0.961 . S
C1628 C1629 1.370 . S
C1628 C1630 1.363 . S
C1628 H1644 0.931 . S
C1629 C1628 1.370 . S
C1629 C1633 1.408 1_455 S
C1630 C1628 1.363 . S
C1630 C1631 1.370 . S
C1630 C1634 1.524 . S
C1631 C1623 1.503 . S
C1631 C1630 1.370 . S
C1631 C1632 1.403 1_455 S
C1632 C1631 1.403 1_655 S
C1632 C1633 1.404 . S
C1632 C1635 1.539 . S
C1633 C1629 1.408 1_655 S
C1633 C1632 1.404 . S
C1633 H1645 0.930 . S
C1634 C1630 1.524 . S
C1634 H1646 0.956 . S
C1634 H1647 0.961 . S
C1634 H1648 0.961 . S
C1635 C1632 1.539 . S
C1635 H1649 0.958 . S
C1635 H1650 0.961 . S
C1635 H1651 0.960 . S
H1636 C1620 0.931 . S
H1637 C1625 0.929 . S
H1638 C1626 0.960 . S
H1639 C1626 0.962 . S
H1640 C1626 0.960 . S
H1641 C1627 0.961 . S
H1642 C1627 0.961 . S
H1643 C1627 0.961 . S
H1644 C1628 0.931 . S
H1645 C1633 0.930 . S
H1646 C1634 0.956 . S
H1647 C1634 0.961 . S
H1648 C1634 0.961 . S
H1649 C1635 0.958 . S
H1650 C1635 0.961 . S
H1651 C1635 0.960 . S
C1652 C1653 1.391 1_545 S
C1652 C1654 1.394 . S
C1652 H1668 0.931 . S
C1653 C1652 1.391 1_565 S
C1653 C1657 1.376 . S
C1654 C1652 1.394 . S
C1654 C1655 1.369 1_545 S
C1654 C1658 1.531 . S
C1655 C1654 1.369 1_565 S
C1655 C1656 1.410 . S
C1655 C1663 1.503 . S
C1656 C1655 1.410 . S
C1656 C1657 1.392 . S
C1656 C1659 1.511 . S
C1657 C1653 1.376 . S
C1657 C1656 1.392 . S
C1657 H1669 0.929 . S
C1658 C1654 1.531 . S
C1658 H1670 0.960 . S
C1658 H1671 0.962 . S
C1658 H1672 0.960 . S
C1659 C1656 1.511 . S
C1659 H1673 0.961 . S
C1659 H1674 0.961 . S
C1659 H1675 0.961 . S
C1660 C1661 1.360 1_545 S
C1660 C1662 1.363 . S
C1660 H1676 0.931 . S
C1661 C1660 1.360 1_565 S
C1661 C1665 1.419 . S
C1662 C1660 1.363 . S
C1662 C1663 1.370 1_545 S
C1662 C1666 1.524 . S
C1663 C1655 1.503 . S
C1663 C1662 1.370 1_565 S
C1663 C1664 1.403 . S
C1664 C1663 1.403 . S
C1664 C1665 1.404 . S
C1664 C1667 1.539 . S
C1665 C1661 1.419 . S
C1665 C1664 1.404 . S
C1665 H1677 0.930 . S
C1666 C1662 1.524 . S
C1666 H1678 0.956 . S
C1666 H1679 0.961 . S
C1666 H1680 0.961 . S
C1667 C1664 1.539 . S
C1667 H1681 0.958 . S
C1667 H1682 0.961 . S
C1667 H1683 0.960 . S
H1668 C1652 0.931 . S
H1669 C1657 0.929 . S
H1670 C1658 0.960 . S
H1671 C1658 0.962 . S
H1672 C1658 0.960 . S
H1673 C1659 0.961 . S
H1674 C1659 0.961 . S
H1675 C1659 0.961 . S
H1676 C1660 0.931 . S
H1677 C1665 0.930 . S
H1678 C1666 0.956 . S
H1679 C1666 0.961 . S
H1680 C1666 0.961 . S
H1681 C1667 0.958 . S
H1682 C1667 0.961 . S
H1683 C1667 0.960 . S
C1684 C1685 1.391 1_655 S
C1684 C1686 1.394 . S
C1684 H1700 0.931 . S
C1685 C1684 1.391 1_455 S
C1685 C1689 1.376 . S
C1686 C1684 1.394 . S
C1686 C1687 1.369 1_655 S
C1686 C1690 1.531 . S
C1687 C1686 1.369 1_455 S
C1687 C1688 1.410 . S
C1687 C1695 1.503 . S
C1688 C1687 1.410 . S
C1688 C1689 1.392 . S
C1688 C1691 1.511 . S
C1689 C1685 1.376 . S
C1689 C1688 1.392 . S
C1689 H1701 0.929 . S
C1690 C1686 1.531 . S
C1690 H1702 0.960 . S
C1690 H1703 0.962 . S
C1690 H1704 0.960 . S
C1691 C1688 1.511 . S
C1691 H1705 0.961 . S
C1691 H1706 0.961 . S
C1691 H1707 0.961 . S
C1692 C1693 1.370 1_655 S
C1692 C1694 1.363 . S
C1692 H1708 0.931 . S
C1693 C1692 1.370 1_455 S
C1693 C1697 1.408 . S
C1694 C1692 1.363 . S
C1694 C1695 1.370 1_655 S
C1694 C1698 1.524 . S
C1695 C1687 1.503 . S
C1695 C1694 1.370 1_455 S
C1695 C1696 1.403 . S
C1696 C1695 1.403 . S
C1696 C1697 1.404 . S
C1696 C1699 1.539 . S
C1697 C1693 1.408 . S
C1697 C1696 1.404 . S
C1697 H1709 0.930 . S
C1698 C1694 1.524 . S
C1698 H1710 0.956 . S
C1698 H1711 0.961 . S
C1698 H1712 0.961 . S
C1699 C1696 1.539 . S
C1699 H1713 0.958 . S
C1699 H1714 0.961 . S
C1699 H1715 0.960 . S
H1700 C1684 0.931 . S
H1701 C1689 0.929 . S
H1702 C1690 0.960 . S
H1703 C1690 0.962 . S
H1704 C1690 0.960 . S
H1705 C1691 0.961 . S
H1706 C1691 0.961 . S
H1707 C1691 0.961 . S
H1708 C1692 0.931 . S
H1709 C1697 0.930 . S
H1710 C1698 0.956 . S
H1711 C1698 0.961 . S
H1712 C1698 0.961 . S
H1713 C1699 0.958 . S
H1714 C1699 0.961 . S
H1715 C1699 0.960 . S
C1716 C1717 1.391 . S
C1716 C1718 1.394 . S
C1716 H1732 0.931 . S
C1717 C1716 1.391 . S
C1717 C1721 1.376 1_545 S
C1718 C1716 1.394 . S
C1718 C1719 1.369 . S
C1718 C1722 1.531 . S
C1719 C1718 1.369 . S
C1719 C1720 1.410 1_545 S
C1719 C1727 1.503 . S
C1720 C1719 1.410 1_565 S
C1720 C1721 1.392 . S
C1720 C1723 1.511 . S
C1721 C1717 1.376 1_565 S
C1721 C1720 1.392 . S
C1721 H1733 0.929 . S
C1722 C1718 1.531 . S
C1722 H1734 0.960 . S
C1722 H1735 0.962 . S
C1722 H1736 0.960 . S
C1723 C1720 1.511 . S
C1723 H1737 0.961 . S
C1723 H1738 0.961 . S
C1723 H1739 0.961 . S
C1724 C1725 1.351 1_565 S
C1724 C1726 1.363 . S
C1724 H1740 0.931 . S
C1725 C1724 1.351 1_545 S
C1725 C1729 1.431 . S
C1726 C1724 1.363 . S
C1726 C1727 1.370 1_565 S
C1726 C1730 1.524 . S
C1727 C1719 1.503 . S
C1727 C1726 1.370 1_545 S
C1727 C1728 1.403 . S
C1728 C1727 1.403 . S
C1728 C1729 1.404 . S
C1728 C1731 1.539 . S
C1729 C1725 1.431 . S
C1729 C1728 1.404 . S
C1729 H1741 0.930 . S
C1730 C1726 1.524 . S
C1730 H1742 0.956 . S
C1730 H1743 0.961 . S
C1730 H1744 0.961 . S
C1731 C1728 1.539 . S
C1731 H1745 0.958 . S
C1731 H1746 0.961 . S
C1731 H1747 0.960 . S
H1732 C1716 0.931 . S
H1733 C1721 0.929 . S
H1734 C1722 0.960 . S
H1735 C1722 0.962 . S
H1736 C1722 0.960 . S
H1737 C1723 0.961 . S
H1738 C1723 0.961 . S
H1739 C1723 0.961 . S
H1740 C1724 0.931 . S
H1741 C1729 0.930 . S
H1742 C1730 0.956 . S
H1743 C1730 0.961 . S
H1744 C1730 0.961 . S
H1745 C1731 0.958 . S
H1746 C1731 0.961 . S
H1747 C1731 0.960 . S
C1748 C1749 1.391 . S
C1748 C1750 1.394 . S
C1748 H1764 0.931 . S
C1749 C1748 1.391 . S
C1749 C1753 1.376 1_455 S
C1750 C1748 1.394 . S
C1750 C1751 1.369 . S
C1750 C1754 1.531 . S
C1751 C1750 1.369 . S
C1751 C1752 1.410 1_455 S
C1751 C1759 1.503 . S
C1752 C1751 1.410 1_655 S
C1752 C1753 1.392 . S
C1752 C1755 1.511 . S
C1753 C1749 1.376 1_655 S
C1753 C1752 1.392 . S
C1753 H1765 0.929 . S
C1754 C1750 1.531 . S
C1754 H1766 0.960 . S
C1754 H1767 0.962 . S
C1754 H1768 0.960 . S
C1755 C1752 1.511 . S
C1755 H1769 0.961 . S
C1755 H1770 0.961 . S
C1755 H1771 0.961 . S
C1756 C1757 1.370 1_655 S
C1756 C1758 1.363 . S
C1756 H1772 0.931 . S
C1757 C1756 1.370 1_455 S
C1757 C1761 1.408 . S
C1758 C1756 1.363 . S
C1758 C1759 1.370 1_655 S
C1758 C1762 1.524 . S
C1759 C1751 1.503 . S
C1759 C1758 1.370 1_455 S
C1759 C1760 1.403 . S
C1760 C1759 1.403 . S
C1760 C1761 1.404 . S
C1760 C1763 1.539 . S
C1761 C1757 1.408 . S
C1761 C1760 1.404 . S
C1761 H1773 0.930 . S
C1762 C1758 1.524 . S
C1762 H1774 0.956 . S
C1762 H1775 0.961 . S
C1762 H1776 0.961 . S
C1763 C1760 1.539 . S
C1763 H1777 0.958 . S
C1763 H1778 0.961 . S
C1763 H1779 0.960 . S
H1764 C1748 0.931 . S
H1765 C1753 0.929 . S
H1766 C1754 0.960 . S
H1767 C1754 0.962 . S
H1768 C1754 0.960 . S
H1769 C1755 0.961 . S
H1770 C1755 0.961 . S
H1771 C1755 0.961 . S
H1772 C1756 0.931 . S
H1773 C1761 0.930 . S
H1774 C1762 0.956 . S
H1775 C1762 0.961 . S
H1776 C1762 0.961 . S
H1777 C1763 0.958 . S
H1778 C1763 0.961 . S
H1779 C1763 0.960 . S
C1780 C1781 1.417 . S
C1780 C1782 1.394 . S
C1780 H1796 0.931 . S
C1781 C1780 1.417 . S
C1781 C1785 1.352 1_565 S
C1782 C1780 1.394 . S
C1782 C1783 1.369 . S
C1782 C1786 1.531 . S
C1783 C1782 1.369 . S
C1783 C1784 1.410 1_565 S
C1783 C1791 1.503 . S
C1784 C1783 1.410 1_545 S
C1784 C1785 1.392 . S
C1784 C1787 1.511 . S
C1785 C1781 1.352 1_545 S
C1785 C1784 1.392 . S
C1785 H1797 0.929 . S
C1786 C1782 1.531 . S
C1786 H1798 0.960 . S
C1786 H1799 0.962 . S
C1786 H1800 0.960 . S
C1787 C1784 1.511 . S
C1787 H1801 0.961 . S
C1787 H1802 0.961 . S
C1787 H1803 0.961 . S
C1788 C1789 1.371 1_545 S
C1788 C1790 1.363 . S
C1788 H1804 0.931 . S
C1789 C1788 1.371 1_565 S
C1789 C1793 1.408 . S
C1790 C1788 1.363 . S
C1790 C1791 1.370 1_545 S
C1790 C1794 1.524 . S
C1791 C1783 1.503 . S
C1791 C1790 1.370 1_565 S
C1791 C1792 1.403 . S
C1792 C1791 1.403 . S
C1792 C1793 1.404 . S
C1792 C1795 1.539 . S
C1793 C1789 1.408 . S
C1793 C1792 1.404 . S
C1793 H1805 0.930 . S
C1794 C1790 1.524 . S
C1794 H1806 0.956 . S
C1794 H1807 0.961 . S
C1794 H1808 0.961 . S
C1795 C1792 1.539 . S
C1795 H1809 0.958 . S
C1795 H1810 0.961 . S
C1795 H1811 0.960 . S
H1796 C1780 0.931 . S
H1797 C1785 0.929 . S
H1798 C1786 0.960 . S
H1799 C1786 0.962 . S
H1800 C1786 0.960 . S
H1801 C1787 0.961 . S
H1802 C1787 0.961 . S
H1803 C1787 0.961 . S
H1804 C1788 0.931 . S
H1805 C1793 0.930 . S
H1806 C1794 0.956 . S
H1807 C1794 0.961 . S
H1808 C1794 0.961 . S
H1809 C1795 0.958 . S
H1810 C1795 0.961 . S
H1811 C1795 0.960 . S
C1812 C1813 1.391 . S
C1812 C1814 1.394 . S
C1812 H1828 0.931 . S
C1813 C1812 1.391 . S
C1813 C1817 1.376 1_455 S
C1814 C1812 1.394 . S
C1814 C1815 1.369 . S
C1814 C1818 1.531 . S
C1815 C1814 1.369 . S
C1815 C1816 1.410 1_455 S
C1815 C1823 1.503 . S
C1816 C1815 1.410 1_655 S
C1816 C1817 1.392 . S
C1816 C1819 1.511 . S
C1817 C1813 1.376 1_655 S
C1817 C1816 1.392 . S
C1817 H1829 0.929 . S
C1818 C1814 1.531 . S
C1818 H1830 0.960 . S
C1818 H1831 0.962 . S
C1818 H1832 0.960 . S
C1819 C1816 1.511 . S
C1819 H1833 0.961 . S
C1819 H1834 0.961 . S
C1819 H1835 0.961 . S
C1820 C1821 1.370 . S
C1820 C1822 1.363 . S
C1820 H1836 0.931 . S
C1821 C1820 1.370 . S
C1821 C1825 1.408 1_455 S
C1822 C1820 1.363 . S
C1822 C1823 1.370 . S
C1822 C1826 1.524 . S
C1823 C1815 1.503 . S
C1823 C1822 1.370 . S
C1823 C1824 1.403 1_455 S
C1824 C1823 1.403 1_655 S
C1824 C1825 1.404 . S
C1824 C1827 1.539 . S
C1825 C1821 1.408 1_655 S
C1825 C1824 1.404 . S
C1825 H1837 0.930 . S
C1826 C1822 1.524 . S
C1826 H1838 0.956 . S
C1826 H1839 0.961 . S
C1826 H1840 0.961 . S
C1827 C1824 1.539 . S
C1827 H1841 0.958 . S
C1827 H1842 0.961 . S
C1827 H1843 0.960 . S
H1828 C1812 0.931 . S
H1829 C1817 0.929 . S
H1830 C1818 0.960 . S
H1831 C1818 0.962 . S
H1832 C1818 0.960 . S
H1833 C1819 0.961 . S
H1834 C1819 0.961 . S
H1835 C1819 0.961 . S
H1836 C1820 0.931 . S
H1837 C1825 0.930 . S
H1838 C1826 0.956 . S
H1839 C1826 0.961 . S
H1840 C1826 0.961 . S
H1841 C1827 0.958 . S
H1842 C1827 0.961 . S
H1843 C1827 0.960 . S
C1844 C1845 1.391 . S
C1844 C1846 1.394 . S
C1844 H1860 0.931 . S
C1845 C1844 1.391 . S
C1845 C1849 1.376 1_554 S
C1846 C1844 1.394 . S
C1846 C1847 1.350 1_554 S
C1846 C1850 1.531 . S
C1847 C1846 1.350 1_556 S
C1847 C1848 1.428 . S
C1847 C1855 1.503 . S
C1848 C1847 1.428 . S
C1848 C1849 1.392 . S
C1848 C1851 1.511 . S
C1849 C1845 1.376 1_556 S
C1849 C1848 1.392 . S
C1849 H1861 0.929 . S
C1850 C1846 1.531 . S
C1850 H1862 0.960 . S
C1850 H1863 0.962 . S
C1850 H1864 0.960 . S
C1851 C1848 1.511 . S
C1851 H1865 0.961 . S
C1851 H1866 0.961 . S
C1851 H1867 0.961 . S
C1852 C1853 1.381 . S
C1852 C1854 1.363 . S
C1852 H1868 0.931 . S
C1853 C1852 1.381 . S
C1853 C1857 1.398 1_554 S
C1854 C1852 1.363 . S
C1854 C1855 1.365 1_554 S
C1854 C1858 1.524 . S
C1855 C1847 1.503 . S
C1855 C1854 1.365 1_556 S
C1855 C1856 1.408 . S
C1856 C1855 1.408 . S
C1856 C1857 1.404 . S
C1856 C1859 1.539 . S
C1857 C1853 1.398 1_556 S
C1857 C1856 1.404 . S
C1857 H1869 0.930 . S
C1858 C1854 1.524 . S
C1858 H1870 0.956 . S
C1858 H1871 0.961 . S
C1858 H1872 0.961 . S
C1859 C1856 1.539 . S
C1859 H1873 0.958 . S
C1859 H1874 0.961 . S
C1859 H1875 0.960 . S
H1860 C1844 0.931 . S
H1861 C1849 0.929 . S
H1862 C1850 0.960 . S
H1863 C1850 0.962 . S
H1864 C1850 0.960 . S
H1865 C1851 0.961 . S
H1866 C1851 0.961 . S
H1867 C1851 0.961 . S
H1868 C1852 0.931 . S
H1869 C1857 0.930 . S
H1870 C1858 0.956 . S
H1871 C1858 0.961 . S
H1872 C1858 0.961 . S
H1873 C1859 0.958 . S
H1874 C1859 0.961 . S
H1875 C1859 0.960 . S
C1876 C1877 1.391 . S
C1876 C1878 1.394 . S
C1876 H1892 0.931 . S
C1877 C1876 1.391 . S
C1877 C1881 1.376 1_554 S
C1878 C1876 1.394 . S
C1878 C1879 1.369 1_554 S
C1878 C1882 1.531 . S
C1879 C1878 1.369 1_556 S
C1879 C1880 1.410 . S
C1879 C1887 1.503 . S
C1880 C1879 1.410 . S
C1880 C1881 1.392 . S
C1880 C1883 1.511 . S
C1881 C1877 1.376 1_556 S
C1881 C1880 1.392 . S
C1881 H1893 0.929 . S
C1882 C1878 1.531 . S
C1882 H1894 0.960 . S
C1882 H1895 0.962 . S
C1882 H1896 0.960 . S
C1883 C1880 1.511 . S
C1883 H1897 0.961 . S
C1883 H1898 0.961 . S
C1883 H1899 0.961 . S
C1884 C1885 1.372 . S
C1884 C1886 1.363 . S
C1884 H1900 0.931 . S
C1885 C1884 1.372 . S
C1885 C1889 1.406 1_554 S
C1886 C1884 1.363 . S
C1886 C1887 1.370 1_554 S
C1886 C1890 1.524 . S
C1887 C1879 1.503 . S
C1887 C1886 1.370 1_556 S
C1887 C1888 1.403 . S
C1888 C1887 1.403 . S
C1888 C1889 1.404 . S
C1888 C1891 1.539 . S
C1889 C1885 1.406 1_556 S
C1889 C1888 1.404 . S
C1889 H1901 0.930 . S
C1890 C1886 1.524 . S
C1890 H1902 0.956 . S
C1890 H1903 0.961 . S
C1890 H1904 0.961 . S
C1891 C1888 1.539 . S
C1891 H1905 0.958 . S
C1891 H1906 0.961 . S
C1891 H1907 0.960 . S
H1892 C1876 0.931 . S
H1893 C1881 0.929 . S
H1894 C1882 0.960 . S
H1895 C1882 0.962 . S
H1896 C1882 0.960 . S
H1897 C1883 0.961 . S
H1898 C1883 0.961 . S
H1899 C1883 0.961 . S
H1900 C1884 0.931 . S
H1901 C1889 0.930 . S
H1902 C1890 0.956 . S
H1903 C1890 0.961 . S
H1904 C1890 0.961 . S
H1905 C1891 0.958 . S
H1906 C1891 0.961 . S
H1907 C1891 0.960 . S
C1908 C1909 1.391 . S
C1908 C1910 1.394 . S
C1908 H1924 0.931 . S
C1909 C1908 1.391 . S
C1909 C1913 1.376 1_554 S
C1910 C1908 1.394 . S
C1910 C1911 1.369 . S
C1910 C1914 1.531 . S
C1911 C1910 1.369 . S
C1911 C1912 1.410 1_554 S
C1911 C1919 1.503 . S
C1912 C1911 1.410 1_556 S
C1912 C1913 1.392 . S
C1912 C1915 1.511 . S
C1913 C1909 1.376 1_556 S
C1913 C1912 1.392 . S
C1913 H1925 0.929 . S
C1914 C1910 1.531 . S
C1914 H1926 0.960 . S
C1914 H1927 0.962 . S
C1914 H1928 0.960 . S
C1915 C1912 1.511 . S
C1915 H1929 0.961 . S
C1915 H1930 0.961 . S
C1915 H1931 0.961 . S
C1916 C1917 1.370 1_556 S
C1916 C1918 1.363 . S
C1916 H1932 0.931 . S
C1917 C1916 1.370 1_554 S
C1917 C1921 1.408 . S
C1918 C1916 1.363 . S
C1918 C1919 1.370 1_556 S
C1918 C1922 1.524 . S
C1919 C1911 1.503 . S
C1919 C1918 1.370 1_554 S
C1919 C1920 1.403 . S
C1920 C1919 1.403 . S
C1920 C1921 1.404 . S
C1920 C1923 1.539 . S
C1921 C1917 1.408 . S
C1921 C1920 1.404 . S
C1921 H1933 0.930 . S
C1922 C1918 1.524 . S
C1922 H1934 0.956 . S
C1922 H1935 0.961 . S
C1922 H1936 0.961 . S
C1923 C1920 1.539 . S
C1923 H1937 0.958 . S
C1923 H1938 0.961 . S
C1923 H1939 0.960 . S
H1924 C1908 0.931 . S
H1925 C1913 0.929 . S
H1926 C1914 0.960 . S
H1927 C1914 0.962 . S
H1928 C1914 0.960 . S
H1929 C1915 0.961 . S
H1930 C1915 0.961 . S
H1931 C1915 0.961 . S
H1932 C1916 0.931 . S
H1933 C1921 0.930 . S
H1934 C1922 0.956 . S
H1935 C1922 0.961 . S
H1936 C1922 0.961 . S
H1937 C1923 0.958 . S
H1938 C1923 0.961 . S
H1939 C1923 0.960 . S
C1940 C1941 1.391 . S
C1940 C1942 1.394 . S
C1940 H1956 0.931 . S
C1941 C1940 1.391 . S
C1941 C1945 1.376 1_554 S
C1942 C1940 1.394 . S
C1942 C1943 1.369 1_554 S
C1942 C1946 1.531 . S
C1943 C1942 1.369 1_556 S
C1943 C1944 1.410 . S
C1943 C1951 1.503 . S
C1944 C1943 1.410 . S
C1944 C1945 1.392 . S
C1944 C1947 1.511 . S
C1945 C1941 1.376 1_556 S
C1945 C1944 1.392 . S
C1945 H1957 0.929 . S
C1946 C1942 1.531 . S
C1946 H1958 0.953 1_554 S
C1946 H1959 0.962 . S
C1946 H1960 0.960 . S
C1947 C1944 1.511 . S
C1947 H1961 0.961 . S
C1947 H1962 0.961 . S
C1947 H1963 0.961 . S
C1948 C1949 1.373 . S
C1948 C1950 1.363 . S
C1948 H1964 0.931 . S
C1949 C1948 1.373 . S
C1949 C1953 1.405 1_554 S
C1950 C1948 1.363 . S
C1950 C1951 1.370 1_554 S
C1950 C1954 1.524 . S
C1951 C1943 1.503 . S
C1951 C1950 1.370 1_556 S
C1951 C1952 1.403 . S
C1952 C1951 1.403 . S
C1952 C1953 1.404 . S
C1952 C1955 1.539 . S
C1953 C1949 1.405 1_556 S
C1953 C1952 1.404 . S
C1953 H1965 0.930 . S
C1954 C1950 1.524 . S
C1954 H1966 0.956 . S
C1954 H1967 0.961 . S
C1954 H1968 0.961 . S
C1955 C1952 1.539 . S
C1955 H1969 0.958 . S
C1955 H1970 0.961 . S
C1955 H1971 0.960 . S
H1956 C1940 0.931 . S
H1957 C1945 0.929 . S
H1958 C1946 0.953 1_556 S
H1959 C1946 0.962 . S
H1960 C1946 0.960 . S
H1961 C1947 0.961 . S
H1962 C1947 0.961 . S
H1963 C1947 0.961 . S
H1964 C1948 0.931 . S
H1965 C1953 0.930 . S
H1966 C1954 0.956 . S
H1967 C1954 0.961 . S
H1968 C1954 0.961 . S
H1969 C1955 0.958 . S
H1970 C1955 0.961 . S
H1971 C1955 0.960 . S
C1972 C1973 1.391 . S
C1972 C1974 1.394 . S
C1972 H1988 0.931 . S
C1973 C1972 1.391 . S
C1973 C1977 1.376 1_554 S
C1974 C1972 1.394 . S
C1974 C1975 1.369 . S
C1974 C1978 1.531 . S
C1975 C1974 1.369 . S
C1975 C1976 1.410 1_554 S
C1975 C1983 1.503 . S
C1976 C1975 1.410 1_556 S
C1976 C1977 1.392 . S
C1976 C1979 1.511 . S
C1977 C1973 1.376 1_556 S
C1977 C1976 1.392 . S
C1977 H1989 0.929 . S
C1978 C1974 1.531 . S
C1978 H1990 0.960 . S
C1978 H1991 0.962 . S
C1978 H1992 0.960 . S
C1979 C1976 1.511 . S
C1979 H1993 0.961 . S
C1979 H1994 0.961 . S
C1979 H1995 0.961 . S
C1980 C1981 1.370 1_556 S
C1980 C1982 1.363 . S
C1980 H1996 0.931 . S
C1981 C1980 1.370 1_554 S
C1981 C1985 1.408 . S
C1982 C1980 1.363 . S
C1982 C1983 1.370 1_556 S
C1982 C1986 1.524 . S
C1983 C1975 1.503 . S
C1983 C1982 1.370 1_554 S
C1983 C1984 1.403 . S
C1984 C1983 1.403 . S
C1984 C1985 1.404 . S
C1984 C1987 1.539 . S
C1985 C1981 1.408 . S
C1985 C1984 1.404 . S
C1985 H1997 0.930 . S
C1986 C1982 1.524 . S
C1986 H1998 0.956 . S
C1986 H1999 0.961 . S
C1986 H2000 0.961 . S
C1987 C1984 1.539 . S
C1987 H2001 0.958 . S
C1987 H2002 0.961 . S
C1987 H2003 0.960 . S
H1988 C1972 0.931 . S
H1989 C1977 0.929 . S
H1990 C1978 0.960 . S
H1991 C1978 0.962 . S
H1992 C1978 0.960 . S
H1993 C1979 0.961 . S
H1994 C1979 0.961 . S
H1995 C1979 0.961 . S
H1996 C1980 0.931 . S
H1997 C1985 0.930 . S
H1998 C1986 0.956 . S
H1999 C1986 0.961 . S
H2000 C1986 0.961 . S
H2001 C1987 0.958 . S
H2002 C1987 0.961 . S
H2003 C1987 0.960 . S
C2004 C2005 1.391 . S
C2004 C2006 1.394 . S
C2004 H2020 0.931 . S
C2005 C2004 1.391 . S
C2005 C2009 1.378 . S
C2006 C2004 1.394 . S
C2006 C2007 1.369 . S
C2006 C2010 1.531 . S
C2007 C2006 1.369 . S
C2007 C2008 1.410 . S
C2007 C2015 1.503 . S
C2008 C2007 1.410 . S
C2008 C2009 1.393 . S
C2008 C2011 1.511 1_554 S
C2009 C2005 1.378 . S
C2009 C2008 1.393 . S
C2009 H2021 0.926 1_554 S
C2010 C2006 1.531 . S
C2010 H2022 0.960 . S
C2010 H2023 0.962 . S
C2010 H2024 0.960 . S
C2011 C2008 1.511 1_556 S
C2011 H2025 0.961 . S
C2011 H2026 0.961 . S
C2011 H2027 0.961 1_556 S
C2012 C2013 1.370 1_556 S
C2012 C2014 1.363 . S
C2012 H2028 0.931 . S
C2013 C2012 1.370 1_554 S
C2013 C2017 1.408 . S
C2014 C2012 1.363 . S
C2014 C2015 1.370 1_556 S
C2014 C2018 1.524 . S
C2015 C2007 1.503 . S
C2015 C2014 1.370 1_554 S
C2015 C2016 1.403 . S
C2016 C2015 1.403 . S
C2016 C2017 1.404 . S
C2016 C2019 1.539 . S
C2017 C2013 1.408 . S
C2017 C2016 1.404 . S
C2017 H2029 0.930 . S
C2018 C2014 1.524 . S
C2018 H2030 0.956 . S
C2018 H2031 0.961 . S
C2018 H2032 0.961 . S
C2019 C2016 1.539 . S
C2019 H2033 0.958 . S
C2019 H2034 0.961 . S
C2019 H2035 0.960 . S
H2020 C2004 0.931 . S
H2021 C2009 0.926 1_556 S
H2022 C2010 0.960 . S
H2023 C2010 0.962 . S
H2024 C2010 0.960 . S
H2025 C2011 0.961 . S
H2026 C2011 0.961 . S
H2027 C2011 0.961 1_554 S
H2028 C2012 0.931 . S
H2029 C2017 0.930 . S
H2030 C2018 0.956 . S
H2031 C2018 0.961 . S
H2032 C2018 0.961 . S
H2033 C2019 0.958 . S
H2034 C2019 0.961 . S
H2035 C2019 0.960 . S
C2036 C2037 1.391 1_556 S
C2036 C2038 1.394 . S
C2036 H2052 0.931 . S
C2037 C2036 1.391 1_554 S
C2037 C2041 1.376 . S
C2038 C2036 1.394 . S
C2038 C2039 1.369 1_556 S
C2038 C2042 1.531 . S
C2039 C2038 1.369 1_554 S
C2039 C2040 1.410 . S
C2039 C2047 1.503 . S
C2040 C2039 1.410 . S
C2040 C2041 1.392 . S
C2040 C2043 1.511 . S
C2041 C2037 1.376 . S
C2041 C2040 1.392 . S
C2041 H2053 0.929 . S
C2042 C2038 1.531 . S
C2042 H2054 0.960 . S
C2042 H2055 0.962 . S
C2042 H2056 0.960 . S
C2043 C2040 1.511 . S
C2043 H2057 0.961 . S
C2043 H2058 0.961 . S
C2043 H2059 0.961 . S
C2044 C2045 1.370 . S
C2044 C2046 1.363 . S
C2044 H2060 0.931 . S
C2045 C2044 1.370 . S
C2045 C2049 1.408 1_554 S
C2046 C2044 1.363 . S
C2046 C2047 1.370 . S
C2046 C2050 1.524 . S
C2047 C2039 1.503 . S
C2047 C2046 1.370 . S
C2047 C2048 1.403 1_554 S
C2048 C2047 1.403 1_556 S
C2048 C2049 1.404 . S
C2048 C2051 1.539 . S
C2049 C2045 1.408 1_556 S
C2049 C2048 1.404 . S
C2049 H2061 0.930 . S
C2050 C2046 1.524 . S
C2050 H2062 0.956 . S
C2050 H2063 0.961 . S
C2050 H2064 0.961 . S
C2051 C2048 1.539 . S
C2051 H2065 0.958 . S
C2051 H2066 0.961 . S
C2051 H2067 0.960 . S
H2052 C2036 0.931 . S
H2053 C2041 0.929 . S
H2054 C2042 0.960 . S
H2055 C2042 0.962 . S
H2056 C2042 0.960 . S
H2057 C2043 0.961 . S
H2058 C2043 0.961 . S
H2059 C2043 0.961 . S
H2060 C2044 0.931 . S
H2061 C2049 0.930 . S
H2062 C2050 0.956 . S
H2063 C2050 0.961 . S
H2064 C2050 0.961 . S
H2065 C2051 0.958 . S
H2066 C2051 0.961 . S
H2067 C2051 0.960 . S
C2068 C2069 1.391 1_556 S
C2068 C2070 1.394 . S
C2068 H2084 0.931 . S
C2069 C2068 1.391 1_554 S
C2069 C2073 1.376 . S
C2070 C2068 1.394 . S
C2070 C2071 1.369 1_556 S
C2070 C2074 1.531 . S
C2071 C2070 1.369 1_554 S
C2071 C2072 1.410 . S
C2071 C2079 1.503 . S
C2072 C2071 1.410 . S
C2072 C2073 1.392 . S
C2072 C2075 1.511 . S
C2073 C2069 1.376 . S
C2073 C2072 1.392 . S
C2073 H2085 0.929 . S
C2074 C2070 1.531 . S
C2074 H2086 0.960 . S
C2074 H2087 0.962 . S
C2074 H2088 0.960 . S
C2075 C2072 1.511 . S
C2075 H2089 0.961 . S
C2075 H2090 0.961 . S
C2075 H2091 0.961 . S
C2076 C2077 1.370 . S
C2076 C2078 1.363 . S
C2076 H2092 0.931 . S
C2077 C2076 1.370 . S
C2077 C2081 1.408 . S
C2078 C2076 1.363 . S
C2078 C2079 1.370 . S
C2078 C2082 1.524 . S
C2079 C2071 1.503 . S
C2079 C2078 1.370 . S
C2079 C2080 1.403 . S
C2080 C2079 1.403 . S
C2080 C2081 1.404 . S
C2080 C2083 1.539 . S
C2081 C2077 1.408 . S
C2081 C2080 1.404 . S
C2081 H2093 0.930 . S
C2082 C2078 1.524 . S
C2082 H2094 0.956 1_554 S
C2082 H2095 0.961 . S
C2082 H2096 0.961 . S
C2083 C2080 1.539 . S
C2083 H2097 0.958 1_554 S
C2083 H2098 0.961 . S
C2083 H2099 0.960 . S
H2084 C2068 0.931 . S
H2085 C2073 0.929 . S
H2086 C2074 0.960 . S
H2087 C2074 0.962 . S
H2088 C2074 0.960 . S
H2089 C2075 0.961 . S
H2090 C2075 0.961 . S
H2091 C2075 0.961 . S
H2092 C2076 0.931 . S
H2093 C2081 0.930 . S
H2094 C2082 0.956 1_556 S
H2095 C2082 0.961 . S
H2096 C2082 0.961 . S
H2097 C2083 0.958 1_556 S
H2098 C2083 0.961 . S
H2099 C2083 0.960 . S
C2100 C2101 1.391 . S
C2100 C2102 1.394 . S
C2100 H2116 0.931 . S
C2101 C2100 1.391 . S
C2101 C2105 1.376 . S
C2102 C2100 1.394 . S
C2102 C2103 1.369 . S
C2102 C2106 1.531 . S
C2103 C2102 1.369 . S
C2103 C2104 1.410 . S
C2103 C2111 1.503 . S
C2104 C2103 1.410 . S
C2104 C2105 1.392 . S
C2104 C2107 1.511 . S
C2105 C2101 1.376 . S
C2105 C2104 1.392 . S
C2105 H2117 0.929 . S
C2106 C2102 1.531 . S
C2106 H2118 0.960 . S
C2106 H2119 0.962 . S
C2106 H2120 0.960 . S
C2107 C2104 1.511 . S
C2107 H2121 0.961 . S
C2107 H2122 0.961 . S
C2107 H2123 0.961 . S
C2108 C2109 1.370 . S
C2108 C2110 1.363 . S
C2108 H2124 0.931 . S
C2109 C2108 1.370 . S
C2109 C2113 1.408 . S
C2110 C2108 1.363 . S
C2110 C2111 1.370 . S
C2110 C2114 1.524 . S
C2111 C2103 1.503 . S
C2111 C2110 1.370 . S
C2111 C2112 1.403 . S
C2112 C2111 1.403 . S
C2112 C2113 1.404 . S
C2112 C2115 1.539 . S
C2113 C2109 1.408 . S
C2113 C2112 1.404 . S
C2113 H2125 0.930 . S
C2114 C2110 1.524 . S
C2114 H2126 0.956 . S
C2114 H2127 0.961 . S
C2114 H2128 0.961 . S
C2115 C2112 1.539 . S
C2115 H2129 0.958 . S
C2115 H2130 0.961 . S
C2115 H2131 0.960 . S
H2116 C2100 0.931 . S
H2117 C2105 0.929 . S
H2118 C2106 0.960 . S
H2119 C2106 0.962 . S
H2120 C2106 0.960 . S
H2121 C2107 0.961 . S
H2122 C2107 0.961 . S
H2123 C2107 0.961 . S
H2124 C2108 0.931 . S
H2125 C2113 0.930 . S
H2126 C2114 0.956 . S
H2127 C2114 0.961 . S
H2128 C2114 0.961 . S
H2129 C2115 0.958 . S
H2130 C2115 0.961 . S
H2131 C2115 0.960 . S
C2132 C2133 1.391 . S
C2132 C2134 1.394 . S
C2132 H2148 0.931 . S
C2133 C2132 1.391 . S
C2133 C2137 1.376 . S
C2134 C2132 1.394 . S
C2134 C2135 1.369 . S
C2134 C2138 1.531 . S
C2135 C2134 1.369 . S
C2135 C2136 1.410 . S
C2135 C2143 1.503 . S
C2136 C2135 1.410 . S
C2136 C2137 1.392 . S
C2136 C2139 1.511 . S
C2137 C2133 1.376 . S
C2137 C2136 1.392 . S
C2137 H2149 0.929 . S
C2138 C2134 1.531 . S
C2138 H2150 0.960 . S
C2138 H2151 0.962 . S
C2138 H2152 0.960 . S
C2139 C2136 1.511 . S
C2139 H2153 0.961 . S
C2139 H2154 0.961 . S
C2139 H2155 0.961 . S
C2140 C2141 1.370 . S
C2140 C2142 1.363 . S
C2140 H2156 0.931 . S
C2141 C2140 1.370 . S
C2141 C2145 1.408 . S
C2142 C2140 1.363 . S
C2142 C2143 1.370 . S
C2142 C2146 1.524 . S
C2143 C2135 1.503 . S
C2143 C2142 1.370 . S
C2143 C2144 1.403 . S
C2144 C2143 1.403 . S
C2144 C2145 1.404 . S
C2144 C2147 1.539 . S
C2145 C2141 1.408 . S
C2145 C2144 1.404 . S
C2145 H2157 0.930 . S
C2146 C2142 1.524 . S
C2146 H2158 0.956 . S
C2146 H2159 0.961 . S
C2146 H2160 0.961 . S
C2147 C2144 1.539 . S
C2147 H2161 0.958 . S
C2147 H2162 0.961 . S
C2147 H2163 0.960 . S
H2148 C2132 0.931 . S
H2149 C2137 0.929 . S
H2150 C2138 0.960 . S
H2151 C2138 0.962 . S
H2152 C2138 0.960 . S
H2153 C2139 0.961 . S
H2154 C2139 0.961 . S
H2155 C2139 0.961 . S
H2156 C2140 0.931 . S
H2157 C2145 0.930 . S
H2158 C2146 0.956 . S
H2159 C2146 0.961 . S
H2160 C2146 0.961 . S
H2161 C2147 0.958 . S
H2162 C2147 0.961 . S
H2163 C2147 0.960 . S
C2164 C2165 1.391 . S
C2164 C2166 1.394 . S
C2164 H2180 0.931 . S
C2165 C2164 1.391 . S
C2165 C2169 1.376 . S
C2166 C2164 1.394 . S
C2166 C2167 1.369 . S
C2166 C2170 1.531 . S
C2167 C2166 1.369 . S
C2167 C2168 1.410 . S
C2167 C2175 1.503 . S
C2168 C2167 1.410 . S
C2168 C2169 1.392 . S
C2168 C2171 1.511 . S
C2169 C2165 1.376 . S
C2169 C2168 1.392 . S
C2169 H2181 0.929 . S
C2170 C2166 1.531 . S
C2170 H2182 0.960 . S
C2170 H2183 0.962 . S
C2170 H2184 0.960 . S
C2171 C2168 1.511 . S
C2171 H2185 0.961 . S
C2171 H2186 0.961 . S
C2171 H2187 0.961 . S
C2172 C2173 1.370 . S
C2172 C2174 1.363 . S
C2172 H2188 0.931 . S
C2173 C2172 1.370 . S
C2173 C2177 1.408 . S
C2174 C2172 1.363 . S
C2174 C2175 1.370 . S
C2174 C2178 1.524 . S
C2175 C2167 1.503 . S
C2175 C2174 1.370 . S
C2175 C2176 1.403 . S
C2176 C2175 1.403 . S
C2176 C2177 1.404 . S
C2176 C2179 1.539 . S
C2177 C2173 1.408 . S
C2177 C2176 1.404 . S
C2177 H2189 0.930 . S
C2178 C2174 1.524 . S
C2178 H2190 0.956 . S
C2178 H2191 0.961 . S
C2178 H2192 0.961 . S
C2179 C2176 1.539 . S
C2179 H2193 0.958 . S
C2179 H2194 0.961 . S
C2179 H2195 0.960 . S
H2180 C2164 0.931 . S
H2181 C2169 0.929 . S
H2182 C2170 0.960 . S
H2183 C2170 0.962 . S
H2184 C2170 0.960 . S
H2185 C2171 0.961 . S
H2186 C2171 0.961 . S
H2187 C2171 0.961 . S
H2188 C2172 0.931 . S
H2189 C2177 0.930 . S
H2190 C2178 0.956 . S
H2191 C2178 0.961 . S
H2192 C2178 0.961 . S
H2193 C2179 0.958 . S
H2194 C2179 0.961 . S
H2195 C2179 0.960 . S
C2196 C2197 1.391 . S
C2196 C2198 1.394 . S
C2196 H2212 0.931 . S
C2197 C2196 1.391 . S
C2197 C2201 1.376 . S
C2198 C2196 1.394 . S
C2198 C2199 1.369 . S
C2198 C2202 1.531 . S
C2199 C2198 1.369 . S
C2199 C2200 1.410 . S
C2199 C2207 1.503 . S
C2200 C2199 1.410 . S
C2200 C2201 1.392 . S
C2200 C2203 1.511 . S
C2201 C2197 1.376 . S
C2201 C2200 1.392 . S
C2201 H2213 0.929 . S
C2202 C2198 1.531 . S
C2202 H2214 0.960 . S
C2202 H2215 0.962 . S
C2202 H2216 0.960 . S
C2203 C2200 1.511 . S
C2203 H2217 0.961 . S
C2203 H2218 0.961 . S
C2203 H2219 0.961 . S
C2204 C2205 1.370 . S
C2204 C2206 1.363 . S
C2204 H2220 0.931 . S
C2205 C2204 1.370 . S
C2205 C2209 1.408 . S
C2206 C2204 1.363 . S
C2206 C2207 1.370 . S
C2206 C2210 1.524 . S
C2207 C2199 1.503 . S
C2207 C2206 1.370 . S
C2207 C2208 1.403 . S
C2208 C2207 1.403 . S
C2208 C2209 1.404 . S
C2208 C2211 1.539 . S
C2209 C2205 1.408 . S
C2209 C2208 1.404 . S
C2209 H2221 0.930 . S
C2210 C2206 1.524 . S
C2210 H2222 0.956 . S
C2210 H2223 0.961 . S
C2210 H2224 0.961 . S
C2211 C2208 1.539 . S
C2211 H2225 0.958 . S
C2211 H2226 0.961 . S
C2211 H2227 0.960 . S
H2212 C2196 0.931 . S
H2213 C2201 0.929 . S
H2214 C2202 0.960 . S
H2215 C2202 0.962 . S
H2216 C2202 0.960 . S
H2217 C2203 0.961 . S
H2218 C2203 0.961 . S
H2219 C2203 0.961 . S
H2220 C2204 0.931 . S
H2221 C2209 0.930 . S
H2222 C2210 0.956 . S
H2223 C2210 0.961 . S
H2224 C2210 0.961 . S
H2225 C2211 0.958 . S
H2226 C2211 0.961 . S
H2227 C2211 0.960 . S
C2228 C2229 1.391 . S
C2228 C2230 1.394 . S
C2228 H2244 0.931 . S
C2229 C2228 1.391 . S
C2229 C2233 1.376 . S
C2230 C2228 1.394 . S
C2230 C2231 1.369 . S
C2230 C2234 1.531 . S
C2231 C2230 1.369 . S
C2231 C2232 1.410 . S
C2231 C2239 1.503 . S
C2232 C2231 1.410 . S
C2232 C2233 1.392 . S
C2232 C2235 1.511 . S
C2233 C2229 1.376 . S
C2233 C2232 1.392 . S
C2233 H2245 0.929 . S
C2234 C2230 1.531 . S
C2234 H2246 0.960 . S
C2234 H2247 0.962 . S
C2234 H2248 0.960 . S
C2235 C2232 1.511 . S
C2235 H2249 0.961 . S
C2235 H2250 0.961 . S
C2235 H2251 0.961 . S
C2236 C2237 1.370 . S
C2236 C2238 1.363 . S
C2236 H2252 0.931 . S
C2237 C2236 1.370 . S
C2237 C2241 1.408 . S
C2238 C2236 1.363 . S
C2238 C2239 1.370 . S
C2238 C2242 1.524 . S
C2239 C2231 1.503 . S
C2239 C2238 1.370 . S
C2239 C2240 1.403 . S
C2240 C2239 1.403 . S
C2240 C2241 1.404 . S
C2240 C2243 1.539 . S
C2241 C2237 1.408 . S
C2241 C2240 1.404 . S
C2241 H2253 0.930 . S
C2242 C2238 1.524 . S
C2242 H2254 0.956 . S
C2242 H2255 0.961 . S
C2242 H2256 0.961 . S
C2243 C2240 1.539 . S
C2243 H2257 0.958 . S
C2243 H2258 0.961 . S
C2243 H2259 0.960 . S
H2244 C2228 0.931 . S
H2245 C2233 0.929 . S
H2246 C2234 0.960 . S
H2247 C2234 0.962 . S
H2248 C2234 0.960 . S
H2249 C2235 0.961 . S
H2250 C2235 0.961 . S
H2251 C2235 0.961 . S
H2252 C2236 0.931 . S
H2253 C2241 0.930 . S
H2254 C2242 0.956 . S
H2255 C2242 0.961 . S
H2256 C2242 0.961 . S
H2257 C2243 0.958 . S
H2258 C2243 0.961 . S
H2259 C2243 0.960 . S
C2260 C2261 1.391 . S
C2260 C2262 1.394 . S
C2260 H2276 0.931 . S
C2261 C2260 1.391 . S
C2261 C2265 1.376 . S
C2262 C2260 1.394 . S
C2262 C2263 1.369 . S
C2262 C2266 1.531 . S
C2263 C2262 1.369 . S
C2263 C2264 1.410 . S
C2263 C2271 1.503 . S
C2264 C2263 1.410 . S
C2264 C2265 1.392 . S
C2264 C2267 1.511 . S
C2265 C2261 1.376 . S
C2265 C2264 1.392 . S
C2265 H2277 0.929 . S
C2266 C2262 1.531 . S
C2266 H2278 0.960 . S
C2266 H2279 0.962 . S
C2266 H2280 0.960 . S
C2267 C2264 1.511 . S
C2267 H2281 0.961 . S
C2267 H2282 0.961 . S
C2267 H2283 0.961 . S
C2268 C2269 1.370 . S
C2268 C2270 1.363 . S
C2268 H2284 0.931 . S
C2269 C2268 1.370 . S
C2269 C2273 1.408 . S
C2270 C2268 1.363 . S
C2270 C2271 1.370 . S
C2270 C2274 1.524 . S
C2271 C2263 1.503 . S
C2271 C2270 1.370 . S
C2271 C2272 1.403 . S
C2272 C2271 1.403 . S
C2272 C2273 1.404 . S
C2272 C2275 1.539 . S
C2273 C2269 1.408 . S
C2273 C2272 1.404 . S
C2273 H2285 0.930 . S
C2274 C2270 1.524 . S
C2274 H2286 0.956 . S
C2274 H2287 0.961 . S
C2274 H2288 0.961 . S
C2275 C2272 1.539 . S
C2275 H2289 0.958 . S
C2275 H2290 0.961 . S
C2275 H2291 0.960 . S
H2276 C2260 0.931 . S
H2277 C2265 0.929 . S
H2278 C2266 0.960 . S
H2279 C2266 0.962 . S
H2280 C2266 0.960 . S
H2281 C2267 0.961 . S
H2282 C2267 0.961 . S
H2283 C2267 0.961 . S
H2284 C2268 0.931 . S
H2285 C2273 0.930 . S
H2286 C2274 0.956 . S
H2287 C2274 0.961 . S
H2288 C2274 0.961 . S
H2289 C2275 0.958 . S
H2290 C2275 0.961 . S
H2291 C2275 0.960 . S
C2292 C2293 1.391 . S
C2292 C2294 1.394 . S
C2292 H2308 0.931 . S
C2293 C2292 1.391 . S
C2293 C2297 1.376 . S
C2294 C2292 1.394 . S
C2294 C2295 1.369 . S
C2294 C2298 1.531 . S
C2295 C2294 1.369 . S
C2295 C2296 1.410 . S
C2295 C2303 1.503 . S
C2296 C2295 1.410 . S
C2296 C2297 1.392 . S
C2296 C2299 1.511 . S
C2297 C2293 1.376 . S
C2297 C2296 1.392 . S
C2297 H2309 0.929 . S
C2298 C2294 1.531 . S
C2298 H2310 0.960 . S
C2298 H2311 0.962 . S
C2298 H2312 0.960 . S
C2299 C2296 1.511 . S
C2299 H2313 0.961 . S
C2299 H2314 0.961 . S
C2299 H2315 0.961 . S
C2300 C2301 1.370 . S
C2300 C2302 1.363 . S
C2300 H2316 0.931 . S
C2301 C2300 1.370 . S
C2301 C2305 1.408 . S
C2302 C2300 1.363 . S
C2302 C2303 1.370 . S
C2302 C2306 1.524 . S
C2303 C2295 1.503 . S
C2303 C2302 1.370 . S
C2303 C2304 1.403 . S
C2304 C2303 1.403 . S
C2304 C2305 1.404 . S
C2304 C2307 1.539 . S
C2305 C2301 1.408 . S
C2305 C2304 1.404 . S
C2305 H2317 0.930 . S
C2306 C2302 1.524 . S
C2306 H2318 0.956 . S
C2306 H2319 0.961 . S
C2306 H2320 0.961 . S
C2307 C2304 1.539 . S
C2307 H2321 0.958 . S
C2307 H2322 0.961 . S
C2307 H2323 0.960 . S
H2308 C2292 0.931 . S
H2309 C2297 0.929 . S
H2310 C2298 0.960 . S
H2311 C2298 0.962 . S
H2312 C2298 0.960 . S
H2313 C2299 0.961 . S
H2314 C2299 0.961 . S
H2315 C2299 0.961 . S
H2316 C2300 0.931 . S
H2317 C2305 0.930 . S
H2318 C2306 0.956 . S
H2319 C2306 0.961 . S
H2320 C2306 0.961 . S
H2321 C2307 0.958 . S
H2322 C2307 0.961 . S
H2323 C2307 0.960 . S
C2324 C2325 1.391 . S
C2324 C2326 1.394 . S
C2324 H2340 0.931 . S
C2325 C2324 1.391 . S
C2325 C2329 1.376 . S
C2326 C2324 1.394 . S
C2326 C2327 1.369 . S
C2326 C2330 1.531 . S
C2327 C2326 1.369 . S
C2327 C2328 1.410 . S
C2327 C2335 1.503 . S
C2328 C2327 1.410 . S
C2328 C2329 1.392 . S
C2328 C2331 1.511 . S
C2329 C2325 1.376 . S
C2329 C2328 1.392 . S
C2329 H2341 0.929 . S
C2330 C2326 1.531 . S
C2330 H2342 0.960 . S
C2330 H2343 0.962 . S
C2330 H2344 0.960 . S
C2331 C2328 1.511 . S
C2331 H2345 0.961 . S
C2331 H2346 0.961 . S
C2331 H2347 0.961 . S
C2332 C2333 1.370 . S
C2332 C2334 1.363 . S
C2332 H2348 0.931 . S
C2333 C2332 1.370 . S
C2333 C2337 1.408 . S
C2334 C2332 1.363 . S
C2334 C2335 1.370 . S
C2334 C2338 1.524 . S
C2335 C2327 1.503 . S
C2335 C2334 1.370 . S
C2335 C2336 1.403 . S
C2336 C2335 1.403 . S
C2336 C2337 1.404 . S
C2336 C2339 1.539 . S
C2337 C2333 1.408 . S
C2337 C2336 1.404 . S
C2337 H2349 0.930 . S
C2338 C2334 1.524 . S
C2338 H2350 0.956 . S
C2338 H2351 0.961 . S
C2338 H2352 0.961 . S
C2339 C2336 1.539 . S
C2339 H2353 0.958 . S
C2339 H2354 0.961 . S
C2339 H2355 0.960 . S
H2340 C2324 0.931 . S
H2341 C2329 0.929 . S
H2342 C2330 0.960 . S
H2343 C2330 0.962 . S
H2344 C2330 0.960 . S
H2345 C2331 0.961 . S
H2346 C2331 0.961 . S
H2347 C2331 0.961 . S
H2348 C2332 0.931 . S
H2349 C2337 0.930 . S
H2350 C2338 0.956 . S
H2351 C2338 0.961 . S
H2352 C2338 0.961 . S
H2353 C2339 0.958 . S
H2354 C2339 0.961 . S
H2355 C2339 0.960 . S
C2356 C2357 1.391 . S
C2356 C2358 1.394 . S
C2356 H2372 0.931 . S
C2357 C2356 1.391 . S
C2357 C2361 1.376 . S
C2358 C2356 1.394 . S
C2358 C2359 1.369 . S
C2358 C2362 1.531 . S
C2359 C2358 1.369 . S
C2359 C2360 1.410 . S
C2359 C2367 1.503 . S
C2360 C2359 1.410 . S
C2360 C2361 1.392 . S
C2360 C2363 1.511 . S
C2361 C2357 1.376 . S
C2361 C2360 1.392 . S
C2361 H2373 0.929 . S
C2362 C2358 1.531 . S
C2362 H2374 0.960 . S
C2362 H2375 0.962 . S
C2362 H2376 0.960 . S
C2363 C2360 1.511 . S
C2363 H2377 0.961 . S
C2363 H2378 0.961 . S
C2363 H2379 0.961 . S
C2364 C2365 1.370 . S
C2364 C2366 1.363 . S
C2364 H2380 0.931 . S
C2365 C2364 1.370 . S
C2365 C2369 1.408 . S
C2366 C2364 1.363 . S
C2366 C2367 1.370 . S
C2366 C2370 1.524 . S
C2367 C2359 1.503 . S
C2367 C2366 1.370 . S
C2367 C2368 1.403 . S
C2368 C2367 1.403 . S
C2368 C2369 1.404 . S
C2368 C2371 1.539 . S
C2369 C2365 1.408 . S
C2369 C2368 1.404 . S
C2369 H2381 0.930 . S
C2370 C2366 1.524 . S
C2370 H2382 0.956 . S
C2370 H2383 0.961 . S
C2370 H2384 0.961 . S
C2371 C2368 1.539 . S
C2371 H2385 0.958 . S
C2371 H2386 0.961 . S
C2371 H2387 0.960 . S
H2372 C2356 0.931 . S
H2373 C2361 0.929 . S
H2374 C2362 0.960 . S
H2375 C2362 0.962 . S
H2376 C2362 0.960 . S
H2377 C2363 0.961 . S
H2378 C2363 0.961 . S
H2379 C2363 0.961 . S
H2380 C2364 0.931 . S
H2381 C2369 0.930 . S
H2382 C2370 0.956 . S
H2383 C2370 0.961 . S
H2384 C2370 0.961 . S
H2385 C2371 0.958 . S
H2386 C2371 0.961 . S
H2387 C2371 0.960 . S
C2388 C2389 1.391 . S
C2388 C2390 1.394 . S
C2388 H2404 0.931 . S
C2389 C2388 1.391 . S
C2389 C2393 1.376 . S
C2390 C2388 1.394 . S
C2390 C2391 1.369 . S
C2390 C2394 1.531 . S
C2391 C2390 1.369 . S
C2391 C2392 1.410 . S
C2391 C2399 1.503 . S
C2392 C2391 1.410 . S
C2392 C2393 1.392 . S
C2392 C2395 1.511 . S
C2393 C2389 1.376 . S
C2393 C2392 1.392 . S
C2393 H2405 0.929 . S
C2394 C2390 1.531 . S
C2394 H2406 0.960 . S
C2394 H2407 0.962 . S
C2394 H2408 0.960 . S
C2395 C2392 1.511 . S
C2395 H2409 0.961 . S
C2395 H2410 0.961 . S
C2395 H2411 0.961 . S
C2396 C2397 1.370 . S
C2396 C2398 1.363 . S
C2396 H2412 0.931 . S
C2397 C2396 1.370 . S
C2397 C2401 1.408 . S
C2398 C2396 1.363 . S
C2398 C2399 1.370 . S
C2398 C2402 1.524 . S
C2399 C2391 1.503 . S
C2399 C2398 1.370 . S
C2399 C2400 1.403 . S
C2400 C2399 1.403 . S
C2400 C2401 1.404 . S
C2400 C2403 1.539 . S
C2401 C2397 1.408 . S
C2401 C2400 1.404 . S
C2401 H2413 0.930 . S
C2402 C2398 1.524 . S
C2402 H2414 0.956 . S
C2402 H2415 0.961 . S
C2402 H2416 0.961 . S
C2403 C2400 1.539 . S
C2403 H2417 0.958 . S
C2403 H2418 0.961 . S
C2403 H2419 0.960 . S
H2404 C2388 0.931 . S
H2405 C2393 0.929 . S
H2406 C2394 0.960 . S
H2407 C2394 0.962 . S
H2408 C2394 0.960 . S
H2409 C2395 0.961 . S
H2410 C2395 0.961 . S
H2411 C2395 0.961 . S
H2412 C2396 0.931 . S
H2413 C2401 0.930 . S
H2414 C2402 0.956 . S
H2415 C2402 0.961 . S
H2416 C2402 0.961 . S
H2417 C2403 0.958 . S
H2418 C2403 0.961 . S
H2419 C2403 0.960 . S
C2420 C2421 1.391 . S
C2420 C2422 1.394 . S
C2420 H2436 0.931 . S
C2421 C2420 1.391 . S
C2421 C2425 1.376 . S
C2422 C2420 1.394 . S
C2422 C2423 1.369 . S
C2422 C2426 1.531 . S
C2423 C2422 1.369 . S
C2423 C2424 1.410 . S
C2423 C2431 1.503 . S
C2424 C2423 1.410 . S
C2424 C2425 1.392 . S
C2424 C2427 1.511 . S
C2425 C2421 1.376 . S
C2425 C2424 1.392 . S
C2425 H2437 0.929 . S
C2426 C2422 1.531 . S
C2426 H2438 0.960 . S
C2426 H2439 0.962 . S
C2426 H2440 0.960 . S
C2427 C2424 1.511 . S
C2427 H2441 0.961 . S
C2427 H2442 0.961 . S
C2427 H2443 0.961 . S
C2428 C2429 1.370 . S
C2428 C2430 1.363 . S
C2428 H2444 0.931 . S
C2429 C2428 1.370 . S
C2429 C2433 1.408 . S
C2430 C2428 1.363 . S
C2430 C2431 1.370 . S
C2430 C2434 1.524 . S
C2431 C2423 1.503 . S
C2431 C2430 1.370 . S
C2431 C2432 1.403 . S
C2432 C2431 1.403 . S
C2432 C2433 1.404 . S
C2432 C2435 1.539 . S
C2433 C2429 1.408 . S
C2433 C2432 1.404 . S
C2433 H2445 0.930 . S
C2434 C2430 1.524 . S
C2434 H2446 0.956 . S
C2434 H2447 0.961 . S
C2434 H2448 0.961 . S
C2435 C2432 1.539 . S
C2435 H2449 0.958 . S
C2435 H2450 0.961 . S
C2435 H2451 0.960 . S
H2436 C2420 0.931 . S
H2437 C2425 0.929 . S
H2438 C2426 0.960 . S
H2439 C2426 0.962 . S
H2440 C2426 0.960 . S
H2441 C2427 0.961 . S
H2442 C2427 0.961 . S
H2443 C2427 0.961 . S
H2444 C2428 0.931 . S
H2445 C2433 0.930 . S
H2446 C2434 0.956 . S
H2447 C2434 0.961 . S
H2448 C2434 0.961 . S
H2449 C2435 0.958 . S
H2450 C2435 0.961 . S
H2451 C2435 0.960 . S
C2452 C2453 1.391 . S
C2452 C2454 1.394 . S
C2452 H2468 0.931 . S
C2453 C2452 1.391 . S
C2453 C2457 1.376 . S
C2454 C2452 1.394 . S
C2454 C2455 1.369 . S
C2454 C2458 1.531 . S
C2455 C2454 1.369 . S
C2455 C2456 1.410 . S
C2455 C2463 1.503 . S
C2456 C2455 1.410 . S
C2456 C2457 1.392 . S
C2456 C2459 1.511 . S
C2457 C2453 1.376 . S
C2457 C2456 1.392 . S
C2457 H2469 0.929 . S
C2458 C2454 1.531 . S
C2458 H2470 0.960 . S
C2458 H2471 0.962 . S
C2458 H2472 0.960 . S
C2459 C2456 1.511 . S
C2459 H2473 0.961 . S
C2459 H2474 0.961 . S
C2459 H2475 0.961 . S
C2460 C2461 1.370 . S
C2460 C2462 1.363 . S
C2460 H2476 0.931 . S
C2461 C2460 1.370 . S
C2461 C2465 1.408 . S
C2462 C2460 1.363 . S
C2462 C2463 1.370 . S
C2462 C2466 1.524 . S
C2463 C2455 1.503 . S
C2463 C2462 1.370 . S
C2463 C2464 1.403 . S
C2464 C2463 1.403 . S
C2464 C2465 1.404 . S
C2464 C2467 1.539 . S
C2465 C2461 1.408 . S
C2465 C2464 1.404 . S
C2465 H2477 0.930 . S
C2466 C2462 1.524 . S
C2466 H2478 0.956 . S
C2466 H2479 0.961 . S
C2466 H2480 0.961 . S
C2467 C2464 1.539 . S
C2467 H2481 0.958 . S
C2467 H2482 0.961 . S
C2467 H2483 0.960 . S
H2468 C2452 0.931 . S
H2469 C2457 0.929 . S
H2470 C2458 0.960 . S
H2471 C2458 0.962 . S
H2472 C2458 0.960 . S
H2473 C2459 0.961 . S
H2474 C2459 0.961 . S
H2475 C2459 0.961 . S
H2476 C2460 0.931 . S
H2477 C2465 0.930 . S
H2478 C2466 0.956 . S
H2479 C2466 0.961 . S
H2480 C2466 0.961 . S
H2481 C2467 0.958 . S
H2482 C2467 0.961 . S
H2483 C2467 0.960 . S
C2484 C2485 1.391 . S
C2484 C2486 1.394 . S
C2484 H2500 0.931 . S
C2485 C2484 1.391 . S
C2485 C2489 1.376 . S
C2486 C2484 1.394 . S
C2486 C2487 1.369 . S
C2486 C2490 1.531 . S
C2487 C2486 1.369 . S
C2487 C2488 1.410 . S
C2487 C2495 1.503 . S
C2488 C2487 1.410 . S
C2488 C2489 1.392 . S
C2488 C2491 1.511 . S
C2489 C2485 1.376 . S
C2489 C2488 1.392 . S
C2489 H2501 0.929 . S
C2490 C2486 1.531 . S
C2490 H2502 0.960 . S
C2490 H2503 0.962 . S
C2490 H2504 0.960 . S
C2491 C2488 1.511 . S
C2491 H2505 0.961 . S
C2491 H2506 0.961 . S
C2491 H2507 0.961 . S
C2492 C2493 1.370 . S
C2492 C2494 1.363 . S
C2492 H2508 0.931 . S
C2493 C2492 1.370 . S
C2493 C2497 1.408 . S
C2494 C2492 1.363 . S
C2494 C2495 1.370 . S
C2494 C2498 1.524 . S
C2495 C2487 1.503 . S
C2495 C2494 1.370 . S
C2495 C2496 1.403 . S
C2496 C2495 1.403 . S
C2496 C2497 1.404 . S
C2496 C2499 1.539 . S
C2497 C2493 1.408 . S
C2497 C2496 1.404 . S
C2497 H2509 0.930 . S
C2498 C2494 1.524 . S
C2498 H2510 0.956 . S
C2498 H2511 0.961 . S
C2498 H2512 0.961 . S
C2499 C2496 1.539 . S
C2499 H2513 0.958 . S
C2499 H2514 0.961 . S
C2499 H2515 0.960 . S
H2500 C2484 0.931 . S
H2501 C2489 0.929 . S
H2502 C2490 0.960 . S
H2503 C2490 0.962 . S
H2504 C2490 0.960 . S
H2505 C2491 0.961 . S
H2506 C2491 0.961 . S
H2507 C2491 0.961 . S
H2508 C2492 0.931 . S
H2509 C2497 0.930 . S
H2510 C2498 0.956 . S
H2511 C2498 0.961 . S
H2512 C2498 0.961 . S
H2513 C2499 0.958 . S
H2514 C2499 0.961 . S
H2515 C2499 0.960 . S
C2516 C2517 1.391 . S
C2516 C2518 1.394 . S
C2516 H2532 0.931 . S
C2517 C2516 1.391 . S
C2517 C2521 1.376 . S
C2518 C2516 1.394 . S
C2518 C2519 1.369 . S
C2518 C2522 1.531 . S
C2519 C2518 1.369 . S
C2519 C2520 1.410 . S
C2519 C2527 1.503 . S
C2520 C2519 1.410 . S
C2520 C2521 1.392 . S
C2520 C2523 1.511 . S
C2521 C2517 1.376 . S
C2521 C2520 1.392 . S
C2521 H2533 0.929 . S
C2522 C2518 1.531 . S
C2522 H2534 0.960 . S
C2522 H2535 0.962 . S
C2522 H2536 0.960 . S
C2523 C2520 1.511 . S
C2523 H2537 0.961 . S
C2523 H2538 0.961 . S
C2523 H2539 0.961 . S
C2524 C2525 1.370 . S
C2524 C2526 1.363 . S
C2524 H2540 0.931 . S
C2525 C2524 1.370 . S
C2525 C2529 1.408 . S
C2526 C2524 1.363 . S
C2526 C2527 1.370 . S
C2526 C2530 1.524 . S
C2527 C2519 1.503 . S
C2527 C2526 1.370 . S
C2527 C2528 1.403 . S
C2528 C2527 1.403 . S
C2528 C2529 1.404 . S
C2528 C2531 1.539 . S
C2529 C2525 1.408 . S
C2529 C2528 1.404 . S
C2529 H2541 0.930 . S
C2530 C2526 1.524 . S
C2530 H2542 0.956 . S
C2530 H2543 0.961 . S
C2530 H2544 0.961 . S
C2531 C2528 1.539 . S
C2531 H2545 0.958 . S
C2531 H2546 0.961 . S
C2531 H2547 0.960 . S
H2532 C2516 0.931 . S
H2533 C2521 0.929 . S
H2534 C2522 0.960 . S
H2535 C2522 0.962 . S
H2536 C2522 0.960 . S
H2537 C2523 0.961 . S
H2538 C2523 0.961 . S
H2539 C2523 0.961 . S
H2540 C2524 0.931 . S
H2541 C2529 0.930 . S
H2542 C2530 0.956 . S
H2543 C2530 0.961 . S
H2544 C2530 0.961 . S
H2545 C2531 0.958 . S
H2546 C2531 0.961 . S
H2547 C2531 0.960 . S
C2548 C2549 1.391 . S
C2548 C2550 1.394 . S
C2548 H2564 0.931 . S
C2549 C2548 1.391 . S
C2549 C2553 1.376 . S
C2550 C2548 1.394 . S
C2550 C2551 1.369 . S
C2550 C2554 1.531 . S
C2551 C2550 1.369 . S
C2551 C2552 1.410 . S
C2551 C2559 1.503 . S
C2552 C2551 1.410 . S
C2552 C2553 1.392 . S
C2552 C2555 1.511 . S
C2553 C2549 1.376 . S
C2553 C2552 1.392 . S
C2553 H2565 0.929 . S
C2554 C2550 1.531 . S
C2554 H2566 0.960 . S
C2554 H2567 0.962 . S
C2554 H2568 0.960 . S
C2555 C2552 1.511 . S
C2555 H2569 0.961 . S
C2555 H2570 0.961 . S
C2555 H2571 0.961 . S
C2556 C2557 1.370 . S
C2556 C2558 1.363 . S
C2556 H2572 0.931 . S
C2557 C2556 1.370 . S
C2557 C2561 1.408 . S
C2558 C2556 1.363 . S
C2558 C2559 1.370 . S
C2558 C2562 1.524 . S
C2559 C2551 1.503 . S
C2559 C2558 1.370 . S
C2559 C2560 1.403 . S
C2560 C2559 1.403 . S
C2560 C2561 1.404 . S
C2560 C2563 1.539 . S
C2561 C2557 1.408 . S
C2561 C2560 1.404 . S
C2561 H2573 0.930 . S
C2562 C2558 1.524 . S
C2562 H2574 0.956 . S
C2562 H2575 0.961 . S
C2562 H2576 0.961 . S
C2563 C2560 1.539 . S
C2563 H2577 0.958 . S
C2563 H2578 0.961 . S
C2563 H2579 0.960 . S
H2564 C2548 0.931 . S
H2565 C2553 0.929 . S
H2566 C2554 0.960 . S
H2567 C2554 0.962 . S
H2568 C2554 0.960 . S
H2569 C2555 0.961 . S
H2570 C2555 0.961 . S
H2571 C2555 0.961 . S
H2572 C2556 0.931 . S
H2573 C2561 0.930 . S
H2574 C2562 0.956 . S
H2575 C2562 0.961 . S
H2576 C2562 0.961 . S
H2577 C2563 0.958 . S
H2578 C2563 0.961 . S
H2579 C2563 0.960 . S
C2580 C2581 1.391 . S
C2580 C2582 1.394 . S
C2580 H2596 0.931 . S
C2581 C2580 1.391 . S
C2581 C2585 1.376 . S
C2582 C2580 1.394 . S
C2582 C2583 1.369 . S
C2582 C2586 1.531 . S
C2583 C2582 1.369 . S
C2583 C2584 1.410 . S
C2583 C2591 1.503 . S
C2584 C2583 1.410 . S
C2584 C2585 1.392 . S
C2584 C2587 1.511 . S
C2585 C2581 1.376 . S
C2585 C2584 1.392 . S
C2585 H2597 0.929 . S
C2586 C2582 1.531 . S
C2586 H2598 0.960 . S
C2586 H2599 0.962 . S
C2586 H2600 0.960 . S
C2587 C2584 1.511 . S
C2587 H2601 0.961 . S
C2587 H2602 0.961 . S
C2587 H2603 0.961 . S
C2588 C2589 1.370 . S
C2588 C2590 1.363 . S
C2588 H2604 0.931 . S
C2589 C2588 1.370 . S
C2589 C2593 1.408 . S
C2590 C2588 1.363 . S
C2590 C2591 1.370 . S
C2590 C2594 1.524 . S
C2591 C2583 1.503 . S
C2591 C2590 1.370 . S
C2591 C2592 1.403 . S
C2592 C2591 1.403 . S
C2592 C2593 1.404 . S
C2592 C2595 1.539 . S
C2593 C2589 1.408 . S
C2593 C2592 1.404 . S
C2593 H2605 0.930 . S
C2594 C2590 1.524 . S
C2594 H2606 0.956 . S
C2594 H2607 0.961 . S
C2594 H2608 0.961 . S
C2595 C2592 1.539 . S
C2595 H2609 0.958 . S
C2595 H2610 0.961 . S
C2595 H2611 0.960 . S
H2596 C2580 0.931 . S
H2597 C2585 0.929 . S
H2598 C2586 0.960 . S
H2599 C2586 0.962 . S
H2600 C2586 0.960 . S
H2601 C2587 0.961 . S
H2602 C2587 0.961 . S
H2603 C2587 0.961 . S
H2604 C2588 0.931 . S
H2605 C2593 0.930 . S
H2606 C2594 0.956 . S
H2607 C2594 0.961 . S
H2608 C2594 0.961 . S
H2609 C2595 0.958 . S
H2610 C2595 0.961 . S
H2611 C2595 0.960 . S
C2612 C2613 1.391 . S
C2612 C2614 1.394 . S
C2612 H2628 0.931 . S
C2613 C2612 1.391 . S
C2613 C2617 1.376 . S
C2614 C2612 1.394 . S
C2614 C2615 1.369 . S
C2614 C2618 1.531 . S
C2615 C2614 1.369 . S
C2615 C2616 1.410 . S
C2615 C2623 1.503 . S
C2616 C2615 1.410 . S
C2616 C2617 1.392 . S
C2616 C2619 1.511 . S
C2617 C2613 1.376 . S
C2617 C2616 1.392 . S
C2617 H2629 0.929 . S
C2618 C2614 1.531 . S
C2618 H2630 0.960 . S
C2618 H2631 0.962 . S
C2618 H2632 0.960 . S
C2619 C2616 1.511 . S
C2619 H2633 0.961 . S
C2619 H2634 0.961 . S
C2619 H2635 0.961 . S
C2620 C2621 1.370 . S
C2620 C2622 1.363 . S
C2620 H2636 0.931 . S
C2621 C2620 1.370 . S
C2621 C2625 1.408 . S
C2622 C2620 1.363 . S
C2622 C2623 1.370 . S
C2622 C2626 1.524 . S
C2623 C2615 1.503 . S
C2623 C2622 1.370 . S
C2623 C2624 1.403 . S
C2624 C2623 1.403 . S
C2624 C2625 1.404 . S
C2624 C2627 1.539 . S
C2625 C2621 1.408 . S
C2625 C2624 1.404 . S
C2625 H2637 0.930 . S
C2626 C2622 1.524 . S
C2626 H2638 0.956 . S
C2626 H2639 0.961 . S
C2626 H2640 0.961 . S
C2627 C2624 1.539 . S
C2627 H2641 0.958 . S
C2627 H2642 0.961 . S
C2627 H2643 0.960 . S
H2628 C2612 0.931 . S
H2629 C2617 0.929 . S
H2630 C2618 0.960 . S
H2631 C2618 0.962 . S
H2632 C2618 0.960 . S
H2633 C2619 0.961 . S
H2634 C2619 0.961 . S
H2635 C2619 0.961 . S
H2636 C2620 0.931 . S
H2637 C2625 0.930 . S
H2638 C2626 0.956 . S
H2639 C2626 0.961 . S
H2640 C2626 0.961 . S
H2641 C2627 0.958 . S
H2642 C2627 0.961 . S
H2643 C2627 0.960 . S
C2644 C2645 1.391 . S
C2644 C2646 1.394 . S
C2644 H2660 0.931 . S
C2645 C2644 1.391 . S
C2645 C2649 1.376 . S
C2646 C2644 1.394 . S
C2646 C2647 1.369 . S
C2646 C2650 1.531 . S
C2647 C2646 1.369 . S
C2647 C2648 1.410 . S
C2647 C2655 1.503 . S
C2648 C2647 1.410 . S
C2648 C2649 1.392 . S
C2648 C2651 1.511 . S
C2649 C2645 1.376 . S
C2649 C2648 1.392 . S
C2649 H2661 0.929 . S
C2650 C2646 1.531 . S
C2650 H2662 0.960 . S
C2650 H2663 0.962 . S
C2650 H2664 0.960 . S
C2651 C2648 1.511 . S
C2651 H2665 0.961 . S
C2651 H2666 0.961 . S
C2651 H2667 0.961 . S
C2652 C2653 1.370 . S
C2652 C2654 1.363 . S
C2652 H2668 0.931 . S
C2653 C2652 1.370 . S
C2653 C2657 1.408 . S
C2654 C2652 1.363 . S
C2654 C2655 1.370 . S
C2654 C2658 1.524 . S
C2655 C2647 1.503 . S
C2655 C2654 1.370 . S
C2655 C2656 1.403 . S
C2656 C2655 1.403 . S
C2656 C2657 1.404 . S
C2656 C2659 1.539 . S
C2657 C2653 1.408 . S
C2657 C2656 1.404 . S
C2657 H2669 0.930 . S
C2658 C2654 1.524 . S
C2658 H2670 0.956 . S
C2658 H2671 0.961 . S
C2658 H2672 0.961 . S
C2659 C2656 1.539 . S
C2659 H2673 0.958 . S
C2659 H2674 0.961 . S
C2659 H2675 0.960 . S
H2660 C2644 0.931 . S
H2661 C2649 0.929 . S
H2662 C2650 0.960 . S
H2663 C2650 0.962 . S
H2664 C2650 0.960 . S
H2665 C2651 0.961 . S
H2666 C2651 0.961 . S
H2667 C2651 0.961 . S
H2668 C2652 0.931 . S
H2669 C2657 0.930 . S
H2670 C2658 0.956 . S
H2671 C2658 0.961 . S
H2672 C2658 0.961 . S
H2673 C2659 0.958 . S
H2674 C2659 0.961 . S
H2675 C2659 0.960 . S
C2676 C2677 1.391 . S
C2676 C2678 1.394 . S
C2676 H2692 0.931 . S
C2677 C2676 1.391 . S
C2677 C2681 1.376 . S
C2678 C2676 1.394 . S
C2678 C2679 1.369 . S
C2678 C2682 1.531 . S
C2679 C2678 1.369 . S
C2679 C2680 1.410 . S
C2679 C2687 1.503 . S
C2680 C2679 1.410 . S
C2680 C2681 1.392 . S
C2680 C2683 1.511 . S
C2681 C2677 1.376 . S
C2681 C2680 1.392 . S
C2681 H2693 0.929 . S
C2682 C2678 1.531 . S
C2682 H2694 0.960 . S
C2682 H2695 0.962 . S
C2682 H2696 0.960 . S
C2683 C2680 1.511 . S
C2683 H2697 0.961 . S
C2683 H2698 0.961 . S
C2683 H2699 0.961 . S
C2684 C2685 1.370 . S
C2684 C2686 1.363 . S
C2684 H2700 0.931 . S
C2685 C2684 1.370 . S
C2685 C2689 1.408 . S
C2686 C2684 1.363 . S
C2686 C2687 1.370 . S
C2686 C2690 1.524 . S
C2687 C2679 1.503 . S
C2687 C2686 1.370 . S
C2687 C2688 1.403 . S
C2688 C2687 1.403 . S
C2688 C2689 1.404 . S
C2688 C2691 1.539 . S
C2689 C2685 1.408 . S
C2689 C2688 1.404 . S
C2689 H2701 0.930 . S
C2690 C2686 1.524 . S
C2690 H2702 0.956 . S
C2690 H2703 0.961 . S
C2690 H2704 0.961 . S
C2691 C2688 1.539 . S
C2691 H2705 0.958 . S
C2691 H2706 0.961 . S
C2691 H2707 0.960 . S
H2692 C2676 0.931 . S
H2693 C2681 0.929 . S
H2694 C2682 0.960 . S
H2695 C2682 0.962 . S
H2696 C2682 0.960 . S
H2697 C2683 0.961 . S
H2698 C2683 0.961 . S
H2699 C2683 0.961 . S
H2700 C2684 0.931 . S
H2701 C2689 0.930 . S
H2702 C2690 0.956 . S
H2703 C2690 0.961 . S
H2704 C2690 0.961 . S
H2705 C2691 0.958 . S
H2706 C2691 0.961 . S
H2707 C2691 0.960 . S
C2708 C2709 1.391 . S
C2708 C2710 1.394 . S
C2708 H2724 0.931 . S
C2709 C2708 1.391 . S
C2709 C2713 1.376 . S
C2710 C2708 1.394 . S
C2710 C2711 1.369 . S
C2710 C2714 1.531 . S
C2711 C2710 1.369 . S
C2711 C2712 1.410 . S
C2711 C2719 1.503 . S
C2712 C2711 1.410 . S
C2712 C2713 1.392 . S
C2712 C2715 1.511 . S
C2713 C2709 1.376 . S
C2713 C2712 1.392 . S
C2713 H2725 0.929 . S
C2714 C2710 1.531 . S
C2714 H2726 0.960 . S
C2714 H2727 0.962 . S
C2714 H2728 0.960 . S
C2715 C2712 1.511 . S
C2715 H2729 0.961 . S
C2715 H2730 0.961 . S
C2715 H2731 0.961 . S
C2716 C2717 1.370 . S
C2716 C2718 1.363 . S
C2716 H2732 0.931 . S
C2717 C2716 1.370 . S
C2717 C2721 1.408 . S
C2718 C2716 1.363 . S
C2718 C2719 1.370 . S
C2718 C2722 1.524 . S
C2719 C2711 1.503 . S
C2719 C2718 1.370 . S
C2719 C2720 1.403 . S
C2720 C2719 1.403 . S
C2720 C2721 1.404 . S
C2720 C2723 1.539 . S
C2721 C2717 1.408 . S
C2721 C2720 1.404 . S
C2721 H2733 0.930 . S
C2722 C2718 1.524 . S
C2722 H2734 0.956 . S
C2722 H2735 0.961 . S
C2722 H2736 0.961 . S
C2723 C2720 1.539 . S
C2723 H2737 0.958 . S
C2723 H2738 0.961 . S
C2723 H2739 0.960 . S
H2724 C2708 0.931 . S
H2725 C2713 0.929 . S
H2726 C2714 0.960 . S
H2727 C2714 0.962 . S
H2728 C2714 0.960 . S
H2729 C2715 0.961 . S
H2730 C2715 0.961 . S
H2731 C2715 0.961 . S
H2732 C2716 0.931 . S
H2733 C2721 0.930 . S
H2734 C2722 0.956 . S
H2735 C2722 0.961 . S
H2736 C2722 0.961 . S
H2737 C2723 0.958 . S
H2738 C2723 0.961 . S
H2739 C2723 0.960 . S
C2740 C2741 1.391 . S
C2740 C2742 1.394 . S
C2740 H2756 0.931 . S
C2741 C2740 1.391 . S
C2741 C2745 1.376 . S
C2742 C2740 1.394 . S
C2742 C2743 1.369 . S
C2742 C2746 1.531 . S
C2743 C2742 1.369 . S
C2743 C2744 1.410 . S
C2743 C2751 1.503 . S
C2744 C2743 1.410 . S
C2744 C2745 1.392 . S
C2744 C2747 1.511 . S
C2745 C2741 1.376 . S
C2745 C2744 1.392 . S
C2745 H2757 0.929 . S
C2746 C2742 1.531 . S
C2746 H2758 0.960 . S
C2746 H2759 0.962 . S
C2746 H2760 0.960 . S
C2747 C2744 1.511 . S
C2747 H2761 0.961 . S
C2747 H2762 0.961 . S
C2747 H2763 0.961 . S
C2748 C2749 1.370 . S
C2748 C2750 1.363 . S
C2748 H2764 0.931 . S
C2749 C2748 1.370 . S
C2749 C2753 1.408 . S
C2750 C2748 1.363 . S
C2750 C2751 1.370 . S
C2750 C2754 1.524 . S
C2751 C2743 1.503 . S
C2751 C2750 1.370 . S
C2751 C2752 1.403 . S
C2752 C2751 1.403 . S
C2752 C2753 1.404 . S
C2752 C2755 1.539 . S
C2753 C2749 1.408 . S
C2753 C2752 1.404 . S
C2753 H2765 0.930 . S
C2754 C2750 1.524 . S
C2754 H2766 0.956 . S
C2754 H2767 0.961 . S
C2754 H2768 0.961 . S
C2755 C2752 1.539 . S
C2755 H2769 0.958 . S
C2755 H2770 0.961 . S
C2755 H2771 0.960 . S
H2756 C2740 0.931 . S
H2757 C2745 0.929 . S
H2758 C2746 0.960 . S
H2759 C2746 0.962 . S
H2760 C2746 0.960 . S
H2761 C2747 0.961 . S
H2762 C2747 0.961 . S
H2763 C2747 0.961 . S
H2764 C2748 0.931 . S
H2765 C2753 0.930 . S
H2766 C2754 0.956 . S
H2767 C2754 0.961 . S
H2768 C2754 0.961 . S
H2769 C2755 0.958 . S
H2770 C2755 0.961 . S
H2771 C2755 0.960 . S
C2772 C2773 1.391 . S
C2772 C2774 1.394 . S
C2772 H2788 0.931 . S
C2773 C2772 1.391 . S
C2773 C2777 1.376 . S
C2774 C2772 1.394 . S
C2774 C2775 1.369 . S
C2774 C2778 1.531 . S
C2775 C2774 1.369 . S
C2775 C2776 1.410 . S
C2775 C2783 1.503 . S
C2776 C2775 1.410 . S
C2776 C2777 1.392 . S
C2776 C2779 1.511 . S
C2777 C2773 1.376 . S
C2777 C2776 1.392 . S
C2777 H2789 0.929 . S
C2778 C2774 1.531 . S
C2778 H2790 0.960 . S
C2778 H2791 0.962 . S
C2778 H2792 0.960 . S
C2779 C2776 1.511 . S
C2779 H2793 0.961 . S
C2779 H2794 0.961 . S
C2779 H2795 0.961 . S
C2780 C2781 1.370 . S
C2780 C2782 1.363 . S
C2780 H2796 0.931 . S
C2781 C2780 1.370 . S
C2781 C2785 1.408 . S
C2782 C2780 1.363 . S
C2782 C2783 1.370 . S
C2782 C2786 1.524 . S
C2783 C2775 1.503 . S
C2783 C2782 1.370 . S
C2783 C2784 1.403 . S
C2784 C2783 1.403 . S
C2784 C2785 1.404 . S
C2784 C2787 1.539 . S
C2785 C2781 1.408 . S
C2785 C2784 1.404 . S
C2785 H2797 0.930 . S
C2786 C2782 1.524 . S
C2786 H2798 0.956 . S
C2786 H2799 0.961 . S
C2786 H2800 0.961 . S
C2787 C2784 1.539 . S
C2787 H2801 0.958 . S
C2787 H2802 0.961 . S
C2787 H2803 0.960 . S
H2788 C2772 0.931 . S
H2789 C2777 0.929 . S
H2790 C2778 0.960 . S
H2791 C2778 0.962 . S
H2792 C2778 0.960 . S
H2793 C2779 0.961 . S
H2794 C2779 0.961 . S
H2795 C2779 0.961 . S
H2796 C2780 0.931 . S
H2797 C2785 0.930 . S
H2798 C2786 0.956 . S
H2799 C2786 0.961 . S
H2800 C2786 0.961 . S
H2801 C2787 0.958 . S
H2802 C2787 0.961 . S
H2803 C2787 0.960 . S
C2804 C2805 1.391 . S
C2804 C2806 1.394 . S
C2804 H2820 0.931 . S
C2805 C2804 1.391 . S
C2805 C2809 1.376 . S
C2806 C2804 1.394 . S
C2806 C2807 1.369 . S
C2806 C2810 1.531 . S
C2807 C2806 1.369 . S
C2807 C2808 1.410 . S
C2807 C2815 1.503 . S
C2808 C2807 1.410 . S
C2808 C2809 1.392 . S
C2808 C2811 1.511 . S
C2809 C2805 1.376 . S
C2809 C2808 1.392 . S
C2809 H2821 0.929 . S
C2810 C2806 1.531 . S
C2810 H2822 0.960 . S
C2810 H2823 0.962 . S
C2810 H2824 0.960 . S
C2811 C2808 1.511 . S
C2811 H2825 0.961 . S
C2811 H2826 0.961 . S
C2811 H2827 0.961 . S
C2812 C2813 1.370 . S
C2812 C2814 1.363 . S
C2812 H2828 0.931 . S
C2813 C2812 1.370 . S
C2813 C2817 1.408 . S
C2814 C2812 1.363 . S
C2814 C2815 1.370 . S
C2814 C2818 1.524 . S
C2815 C2807 1.503 . S
C2815 C2814 1.370 . S
C2815 C2816 1.403 . S
C2816 C2815 1.403 . S
C2816 C2817 1.404 . S
C2816 C2819 1.539 . S
C2817 C2813 1.408 . S
C2817 C2816 1.404 . S
C2817 H2829 0.930 . S
C2818 C2814 1.524 . S
C2818 H2830 0.956 . S
C2818 H2831 0.961 . S
C2818 H2832 0.961 . S
C2819 C2816 1.539 . S
C2819 H2833 0.958 . S
C2819 H2834 0.961 . S
C2819 H2835 0.960 . S
H2820 C2804 0.931 . S
H2821 C2809 0.929 . S
H2822 C2810 0.960 . S
H2823 C2810 0.962 . S
H2824 C2810 0.960 . S
H2825 C2811 0.961 . S
H2826 C2811 0.961 . S
H2827 C2811 0.961 . S
H2828 C2812 0.931 . S
H2829 C2817 0.930 . S
H2830 C2818 0.956 . S
H2831 C2818 0.961 . S
H2832 C2818 0.961 . S
H2833 C2819 0.958 . S
H2834 C2819 0.961 . S
H2835 C2819 0.960 . S
C2836 C2837 1.391 . S
C2836 C2838 1.394 . S
C2836 H2852 0.931 . S
C2837 C2836 1.391 . S
C2837 C2841 1.376 . S
C2838 C2836 1.394 . S
C2838 C2839 1.369 . S
C2838 C2842 1.531 . S
C2839 C2838 1.369 . S
C2839 C2840 1.410 . S
C2839 C2847 1.503 . S
C2840 C2839 1.410 . S
C2840 C2841 1.392 . S
C2840 C2843 1.511 . S
C2841 C2837 1.376 . S
C2841 C2840 1.392 . S
C2841 H2853 0.929 . S
C2842 C2838 1.531 . S
C2842 H2854 0.960 . S
C2842 H2855 0.962 . S
C2842 H2856 0.960 . S
C2843 C2840 1.511 . S
C2843 H2857 0.961 . S
C2843 H2858 0.961 . S
C2843 H2859 0.961 . S
C2844 C2845 1.370 . S
C2844 C2846 1.363 . S
C2844 H2860 0.931 . S
C2845 C2844 1.370 . S
C2845 C2849 1.408 . S
C2846 C2844 1.363 . S
C2846 C2847 1.370 . S
C2846 C2850 1.524 . S
C2847 C2839 1.503 . S
C2847 C2846 1.370 . S
C2847 C2848 1.403 . S
C2848 C2847 1.403 . S
C2848 C2849 1.404 . S
C2848 C2851 1.539 . S
C2849 C2845 1.408 . S
C2849 C2848 1.404 . S
C2849 H2861 0.930 . S
C2850 C2846 1.524 . S
C2850 H2862 0.956 . S
C2850 H2863 0.961 . S
C2850 H2864 0.961 . S
C2851 C2848 1.539 . S
C2851 H2865 0.958 . S
C2851 H2866 0.961 . S
C2851 H2867 0.960 . S
H2852 C2836 0.931 . S
H2853 C2841 0.929 . S
H2854 C2842 0.960 . S
H2855 C2842 0.962 . S
H2856 C2842 0.960 . S
H2857 C2843 0.961 . S
H2858 C2843 0.961 . S
H2859 C2843 0.961 . S
H2860 C2844 0.931 . S
H2861 C2849 0.930 . S
H2862 C2850 0.956 . S
H2863 C2850 0.961 . S
H2864 C2850 0.961 . S
H2865 C2851 0.958 . S
H2866 C2851 0.961 . S
H2867 C2851 0.960 . S
C573 C270 1.312 . S
C565 C258 1.310 . S
C597 C236 1.580 . S
C605 C268 1.584 . S
C637 C269 1.585 . S
C629 C225 1.583 . S
C661 C247 1.307 . S
C669 C271 1.313 . S
C701 C315 1.451 . S
C693 C181 1.449 . S
C733 C375 1.379 . S
C725 C192 1.366 . S
C757 C203 1.439 . S
C765 C314 1.446 . S
C797 C374 1.657 . S
C789 C214 1.651 . S
C821 C137 1.534 . S
C829 C316 1.537 . S
C861 C372 1.564 . S
C853 C148 1.558 . S
C885 C159 1.544 . S
C893 C317 1.546 . S
C917 C170 1.279 . S
C925 C373 1.285 . S
C957 C423 1.312 . S
C949 C126 1.308 . S
C981 C104 1.579 . S
C989 C422 1.584 . S
C1013 C93 1.582 . S
C1021 C424 1.585 . S
C1053 C425 1.312 . S
C1045 C115 1.310 . S
C1077 C49 1.442 . S
C1085 C466 1.448 . S
C1109 C60 1.374 . S
C1117 C525 1.378 . S
C1141 C71 1.440 . S
C1149 C464 1.447 . S
C1173 C82 1.653 1_545 S
C1181 C524 1.655 . S
C1213 C465 1.536 . S
C1205 C5 1.527 . S
C1245 C522 1.564 1_565 S
C1237 C16 1.561 . S
C1269 C27 1.544 . S
C1277 C467 1.546 . S
C1309 C523 1.285 . S
C1301 C38 1.278 1_545 S
C1341 C267 1.675 . S
C1333 C4 1.610 . S
C1365 C21 1.395 1_565 S
C1373 C273 1.464 1_565 S
C1397 C32 1.375 . S
C1405 C265 1.430 . S
C1429 C37 1.365 . S
C1437 C272 1.446 1_565 S
C1461 C48 1.597 . S
C1469 C264 1.662 . S
C1501 C274 1.490 1_565 S
C1493 C59 1.460 1_565 S
C1525 C76 1.282 . S
C1533 C266 1.425 . S
C1565 C275 1.777 1_565 S
C1557 C81 1.740 . S
C1597 C321 1.355 1_565 S
C1589 C43 1.266 1_565 S
C1621 C10 1.432 . S
C1629 C364 1.494 . S
C1661 C319 1.663 1_565 S
C1653 C15 1.636 . S
C1693 C366 1.752 . S
C1685 C26 1.725 . S
C1717 C65 1.360 1_545 S
C1725 C320 1.414 . S
C1757 C365 1.645 . S
C1749 C70 1.581 . S
C1789 C318 1.482 1_565 S
C1781 C87 1.425 1_565 S
C1821 C367 1.405 . S
C1813 C54 1.341 . S
C1853 C371 1.453 . S
C1845 C98 1.330 . S
C1877 C109 1.379 . S
C1885 C370 1.451 . S
C1917 C322 1.665 . S
C1909 C92 1.636 . S
C1949 C369 1.457 . S
C1941 C114 1.408 . S
C1973 C131 1.262 . S
C1981 C325 1.313 . S
C2005 C125 1.391 . S
C2013 C368 1.459 . S
C2045 C324 1.665 . S
C2037 C103 1.640 . S
C2077 C323 1.313 . S
C2069 C120 1.275 . S
C2109 C417 1.675 . S
C2101 C136 1.610 . S
C2141 C420 1.465 . S
C2133 C153 1.395 . S
C2165 C164 1.314 . S
C2173 C416 1.435 . S
C2205 C418 1.442 . S
C2197 C169 1.423 . S
C2237 C414 1.662 . S
C2229 C180 1.616 . S
C2261 C191 1.466 . S
C2269 C419 1.490 . S
C2293 C208 1.283 . S
C2301 C415 1.425 . S
C2333 C421 1.778 . S
C2325 C213 1.750 . S
C2365 C475 1.359 . S
C2357 C175 1.235 . S
C2389 C142 1.433 . S
C2397 C514 1.494 . S
C2429 C474 1.663 . S
C2421 C147 1.598 . S
C2461 C516 1.753 . S
C2453 C158 1.692 . S
C2493 C473 1.415 . S
C2485 C197 1.353 . S
C2517 C202 1.614 . S
C2525 C515 1.645 . S
C2557 C472 1.483 . S
C2549 C219 1.397 . S
C2589 C517 1.407 . S
C2581 C186 1.312 . S
C2621 C521 1.452 . S
C2613 C230 1.360 . S
C2645 C241 1.323 . S
C2653 C520 1.453 . S
C2685 C468 1.665 . S
C2677 C224 1.643 . S
C2709 C246 1.371 . S
C2717 C519 1.459 . S
C2749 C471 1.317 . S
C2741 C263 1.211 . S
C2781 C518 1.457 . S
C2773 C257 1.375 . S
C2813 C469 1.665 . S
C2805 C235 1.632 . S
C2837 C252 1.227 . S
C2845 C470 1.315 . S
