# Generated by pormake.
# Topology ptr, (4,4)-cn, num edge types: 1
# Building blocks:
#     Node 0, Type 0, BuildingBlock: QUQFOY_clean_sbu_1, # of connection points: 4
#     Node 1, Type 0, BuildingBlock: QUQFOY_clean_sbu_1, # of connection points: 4
#     Node 2, Type 0, BuildingBlock: QUQFOY_clean_sbu_1, # of connection points: 4
#     Node 3, Type 0, BuildingBlock: QUQFOY_clean_sbu_1, # of connection points: 4
#     Node 4, Type 0, BuildingBlock: QUQFOY_clean_sbu_1, # of connection points: 4
#     Node 5, Type 0, BuildingBlock: QUQFOY_clean_sbu_1, # of connection points: 4
#     Node 6, Type 0, BuildingBlock: QUQFOY_clean_sbu_1, # of connection points: 4
#     Node 7, Type 0, BuildingBlock: QUQFOY_clean_sbu_1, # of connection points: 4
#     Node 8, Type 0, BuildingBlock: QUQFOY_clean_sbu_1, # of connection points: 4
#     Node 9, Type 0, BuildingBlock: QUQFOY_clean_sbu_1, # of connection points: 4
#     Node 10, Type 0, BuildingBlock: QUQFOY_clean_sbu_1, # of connection points: 4
#     Node 11, Type 0, BuildingBlock: QUQFOY_clean_sbu_1, # of connection points: 4
#     Node 12, Type 0, BuildingBlock: QUQFOY_clean_sbu_1, # of connection points: 4
#     Node 13, Type 0, BuildingBlock: QUQFOY_clean_sbu_1, # of connection points: 4
#     Node 14, Type 0, BuildingBlock: QUQFOY_clean_sbu_1, # of connection points: 4
#     Node 15, Type 0, BuildingBlock: QUQFOY_clean_sbu_1, # of connection points: 4
#     Node 16, Type 0, BuildingBlock: QUQFOY_clean_sbu_1, # of connection points: 4
#     Node 17, Type 0, BuildingBlock: QUQFOY_clean_sbu_1, # of connection points: 4
#     Node 18, Type 1, BuildingBlock: KUFVIS_clean_linker_0, # of connection points: 4
#     Node 19, Type 1, BuildingBlock: KUFVIS_clean_linker_0, # of connection points: 4
#     Node 20, Type 1, BuildingBlock: KUFVIS_clean_linker_0, # of connection points: 4
#     Node 21, Type 1, BuildingBlock: KUFVIS_clean_linker_0, # of connection points: 4
#     Node 22, Type 1, BuildingBlock: KUFVIS_clean_linker_0, # of connection points: 4
#     Node 23, Type 1, BuildingBlock: KUFVIS_clean_linker_0, # of connection points: 4
#     Node 24, Type 1, BuildingBlock: KUFVIS_clean_linker_0, # of connection points: 4
#     Node 25, Type 1, BuildingBlock: KUFVIS_clean_linker_0, # of connection points: 4
#     Node 26, Type 1, BuildingBlock: KUFVIS_clean_linker_0, # of connection points: 4
#     Node 27, Type 1, BuildingBlock: KUFVIS_clean_linker_0, # of connection points: 4
#     Node 28, Type 1, BuildingBlock: KUFVIS_clean_linker_0, # of connection points: 4
#     Node 29, Type 1, BuildingBlock: KUFVIS_clean_linker_0, # of connection points: 4
#     Node 30, Type 1, BuildingBlock: KUFVIS_clean_linker_0, # of connection points: 4
#     Node 31, Type 1, BuildingBlock: KUFVIS_clean_linker_0, # of connection points: 4
#     Node 32, Type 1, BuildingBlock: KUFVIS_clean_linker_0, # of connection points: 4
#     Node 33, Type 1, BuildingBlock: KUFVIS_clean_linker_0, # of connection points: 4
#     Node 34, Type 1, BuildingBlock: KUFVIS_clean_linker_0, # of connection points: 4
#     Node 35, Type 1, BuildingBlock: KUFVIS_clean_linker_0, # of connection points: 4
#     Edge 36, Type (0, 1), BuildingBlock: OJICUG_clean_linker_0, # of connection points: 2
#     Edge 37, Type (0, 1), BuildingBlock: OJICUG_clean_linker_0, # of connection points: 2
#     Edge 38, Type (0, 1), BuildingBlock: OJICUG_clean_linker_0, # of connection points: 2
#     Edge 39, Type (0, 1), BuildingBlock: OJICUG_clean_linker_0, # of connection points: 2
#     Edge 40, Type (0, 1), BuildingBlock: OJICUG_clean_linker_0, # of connection points: 2
#     Edge 41, Type (0, 1), BuildingBlock: OJICUG_clean_linker_0, # of connection points: 2
#     Edge 42, Type (0, 1), BuildingBlock: OJICUG_clean_linker_0, # of connection points: 2
#     Edge 43, Type (0, 1), BuildingBlock: OJICUG_clean_linker_0, # of connection points: 2
#     Edge 44, Type (0, 1), BuildingBlock: OJICUG_clean_linker_0, # of connection points: 2
#     Edge 45, Type (0, 1), BuildingBlock: OJICUG_clean_linker_0, # of connection points: 2
#     Edge 46, Type (0, 1), BuildingBlock: OJICUG_clean_linker_0, # of connection points: 2
#     Edge 47, Type (0, 1), BuildingBlock: OJICUG_clean_linker_0, # of connection points: 2
#     Edge 48, Type (0, 1), BuildingBlock: OJICUG_clean_linker_0, # of connection points: 2
#     Edge 49, Type (0, 1), BuildingBlock: OJICUG_clean_linker_0, # of connection points: 2
#     Edge 50, Type (0, 1), BuildingBlock: OJICUG_clean_linker_0, # of connection points: 2
#     Edge 51, Type (0, 1), BuildingBlock: OJICUG_clean_linker_0, # of connection points: 2
#     Edge 52, Type (0, 1), BuildingBlock: OJICUG_clean_linker_0, # of connection points: 2
#     Edge 53, Type (0, 1), BuildingBlock: OJICUG_clean_linker_0, # of connection points: 2
#     Edge 54, Type (0, 1), BuildingBlock: OJICUG_clean_linker_0, # of connection points: 2
#     Edge 55, Type (0, 1), BuildingBlock: OJICUG_clean_linker_0, # of connection points: 2
#     Edge 56, Type (0, 1), BuildingBlock: OJICUG_clean_linker_0, # of connection points: 2
#     Edge 57, Type (0, 1), BuildingBlock: OJICUG_clean_linker_0, # of connection points: 2
#     Edge 58, Type (0, 1), BuildingBlock: OJICUG_clean_linker_0, # of connection points: 2
#     Edge 59, Type (0, 1), BuildingBlock: OJICUG_clean_linker_0, # of connection points: 2
#     Edge 60, Type (0, 1), BuildingBlock: OJICUG_clean_linker_0, # of connection points: 2
#     Edge 61, Type (0, 1), BuildingBlock: OJICUG_clean_linker_0, # of connection points: 2
#     Edge 62, Type (0, 1), BuildingBlock: OJICUG_clean_linker_0, # of connection points: 2
#     Edge 63, Type (0, 1), BuildingBlock: OJICUG_clean_linker_0, # of connection points: 2
#     Edge 64, Type (0, 1), BuildingBlock: OJICUG_clean_linker_0, # of connection points: 2
#     Edge 65, Type (0, 1), BuildingBlock: OJICUG_clean_linker_0, # of connection points: 2
#     Edge 66, Type (0, 1), BuildingBlock: OJICUG_clean_linker_0, # of connection points: 2
#     Edge 67, Type (0, 1), BuildingBlock: OJICUG_clean_linker_0, # of connection points: 2
#     Edge 68, Type (0, 1), BuildingBlock: OJICUG_clean_linker_0, # of connection points: 2
#     Edge 69, Type (0, 1), BuildingBlock: OJICUG_clean_linker_0, # of connection points: 2
#     Edge 70, Type (0, 1), BuildingBlock: OJICUG_clean_linker_0, # of connection points: 2
#     Edge 71, Type (0, 1), BuildingBlock: OJICUG_clean_linker_0, # of connection points: 2
#     Edge 72, Type (0, 1), BuildingBlock: OJICUG_clean_linker_0, # of connection points: 2
#     Edge 73, Type (0, 1), BuildingBlock: OJICUG_clean_linker_0, # of connection points: 2
#     Edge 74, Type (0, 1), BuildingBlock: OJICUG_clean_linker_0, # of connection points: 2
#     Edge 75, Type (0, 1), BuildingBlock: OJICUG_clean_linker_0, # of connection points: 2
#     Edge 76, Type (0, 1), BuildingBlock: OJICUG_clean_linker_0, # of connection points: 2
#     Edge 77, Type (0, 1), BuildingBlock: OJICUG_clean_linker_0, # of connection points: 2
#     Edge 78, Type (0, 1), BuildingBlock: OJICUG_clean_linker_0, # of connection points: 2
#     Edge 79, Type (0, 1), BuildingBlock: OJICUG_clean_linker_0, # of connection points: 2
#     Edge 80, Type (0, 1), BuildingBlock: OJICUG_clean_linker_0, # of connection points: 2
#     Edge 81, Type (0, 1), BuildingBlock: OJICUG_clean_linker_0, # of connection points: 2
#     Edge 82, Type (0, 1), BuildingBlock: OJICUG_clean_linker_0, # of connection points: 2
#     Edge 83, Type (0, 1), BuildingBlock: OJICUG_clean_linker_0, # of connection points: 2
#     Edge 84, Type (0, 1), BuildingBlock: OJICUG_clean_linker_0, # of connection points: 2
#     Edge 85, Type (0, 1), BuildingBlock: OJICUG_clean_linker_0, # of connection points: 2
#     Edge 86, Type (0, 1), BuildingBlock: OJICUG_clean_linker_0, # of connection points: 2
#     Edge 87, Type (0, 1), BuildingBlock: OJICUG_clean_linker_0, # of connection points: 2
#     Edge 88, Type (0, 1), BuildingBlock: OJICUG_clean_linker_0, # of connection points: 2
#     Edge 89, Type (0, 1), BuildingBlock: OJICUG_clean_linker_0, # of connection points: 2
#     Edge 90, Type (0, 1), BuildingBlock: OJICUG_clean_linker_0, # of connection points: 2
#     Edge 91, Type (0, 1), BuildingBlock: OJICUG_clean_linker_0, # of connection points: 2
#     Edge 92, Type (0, 1), BuildingBlock: OJICUG_clean_linker_0, # of connection points: 2
#     Edge 93, Type (0, 1), BuildingBlock: OJICUG_clean_linker_0, # of connection points: 2
#     Edge 94, Type (0, 1), BuildingBlock: OJICUG_clean_linker_0, # of connection points: 2
#     Edge 95, Type (0, 1), BuildingBlock: OJICUG_clean_linker_0, # of connection points: 2
#     Edge 96, Type (0, 1), BuildingBlock: OJICUG_clean_linker_0, # of connection points: 2
#     Edge 97, Type (0, 1), BuildingBlock: OJICUG_clean_linker_0, # of connection points: 2
#     Edge 98, Type (0, 1), BuildingBlock: OJICUG_clean_linker_0, # of connection points: 2
#     Edge 99, Type (0, 1), BuildingBlock: OJICUG_clean_linker_0, # of connection points: 2
#     Edge 100, Type (0, 1), BuildingBlock: OJICUG_clean_linker_0, # of connection points: 2
#     Edge 101, Type (0, 1), BuildingBlock: OJICUG_clean_linker_0, # of connection points: 2
#     Edge 102, Type (0, 1), BuildingBlock: OJICUG_clean_linker_0, # of connection points: 2
#     Edge 103, Type (0, 1), BuildingBlock: OJICUG_clean_linker_0, # of connection points: 2
#     Edge 104, Type (0, 1), BuildingBlock: OJICUG_clean_linker_0, # of connection points: 2
#     Edge 105, Type (0, 1), BuildingBlock: OJICUG_clean_linker_0, # of connection points: 2
#     Edge 106, Type (0, 1), BuildingBlock: OJICUG_clean_linker_0, # of connection points: 2
#     Edge 107, Type (0, 1), BuildingBlock: OJICUG_clean_linker_0, # of connection points: 2
# Relax obj value: 0.018
# Max RMSD: 0.077
# Mean RMSD: 0.059
data_MOF--net-ptr--node1-QUQFOY_clean_sbu_1--node2-KUFVIS_clean_linker_0--edge1-OJICUG_clean_linker_0
_symmetry_space_group_name_H-M    P1
_symmetry_Int_Tables_number       1
_symmetry_cell_setting            triclinic
loop_
_symmetry_equiv_pos_as_xyz
'x, y, z'
_cell_length_a     58.942588
_cell_length_b     58.90377
_cell_length_c     37.555097
_cell_angle_alpha  90.062597
_cell_angle_beta   90.065399
_cell_angle_gamma 119.97597
loop_
_atom_site_label
_atom_site_type_symbol
_atom_site_fract_x
_atom_site_fract_y
_atom_site_fract_z
_atom_type_partial_charge
O0 O 0.04909 0.4236 0.05331 0.0
Cd1 Cd 0.05723 0.40732 0.00958 0.0
Cd2 Cd 1.0017 0.37936 0.00923 0.0
O3 O 1.00641 0.39665 0.05841 0.0
O4 O 0.09528 0.41825 0.01437 0.0
O5 O 0.06356 0.37693 0.01573 0.0
C6 C 0.08829 0.39385 0.01791 0.0
C7 C 0.97046 0.33485 0.0011 0.0
C8 C 1.02762 0.41595 0.06981 0.0
C9 C 0.03114 0.41761 0.94897 0.0
O10 O 1.00972 0.40366 0.96549 0.0
O11 O 0.05245 0.41976 0.96035 0.0
O12 O 0.9636 0.35237 0.0046 0.0
O13 O 0.99516 0.34254 0.00316 0.0
O14 O 0.62804 0.63539 0.0531 0.0
Cd15 Cd 0.64544 0.65887 0.00886 0.0
Cd16 Cd 0.67226 0.63104 0.01186 0.0
O17 O 0.65466 0.61949 0.06085 0.0
O18 O 0.63541 0.68685 0.0107 0.0
O19 O 0.6763 0.69548 0.01506 0.0
C20 C 0.65982 0.7039 0.01521 0.0
C21 C 0.71693 0.6458 0.00423 0.0
C22 C 0.6353 0.62174 0.07094 0.0
C23 C 0.63523 0.62074 0.95008 0.0
O24 O 0.64858 0.61325 0.96809 0.0
O25 O 0.63348 0.64047 0.96 0.0
O26 O 0.70028 0.62133 0.00918 0.0
O27 O 0.70829 0.66211 0.005 0.0
O28 O 0.42675 0.03226 0.96276 0.0
Cd29 Cd 0.40881 0.03801 0.00671 0.0
Cd30 Cd 0.38311 0.98343 0.00375 0.0
O31 O 0.40092 0.98962 0.9548 0.0
O32 O 0.41873 0.07599 0.00507 0.0
O33 O 0.37792 0.04369 0.00015 0.0
C34 C 0.39434 0.0686 0.00032 0.0
C35 C 0.33843 0.95373 0.01168 0.0
C36 C 0.42006 1.01144 0.94491 0.0
C37 C 0.41954 1.01072 0.06578 0.0
O38 O 0.40677 0.98979 0.0477 0.0
O39 O 0.42071 0.03191 0.05575 0.0
O40 O 0.35497 0.94574 0.0068 0.0
O41 O 0.34718 0.9787 0.01053 0.0
O42 O 1.0039 0.61186 0.96817 0.0
Cd43 Cd 0.99962 0.63062 0.01223 0.0
Cd44 Cd 0.05296 0.65771 0.00733 0.0
O45 O 0.04588 0.63934 0.95846 0.0
O46 O 0.96252 0.62319 0.01114 0.0
O47 O 0.99673 0.66292 0.00479 0.0
C48 C 0.97157 0.64782 0.00524 0.0
C49 C 0.08139 0.70295 0.01393 0.0
C50 C 1.02432 0.61943 0.94923 0.0
C51 C 0.02865 0.62189 0.0705 0.0
O52 O 0.04899 0.63497 0.05152 0.0
O53 O 1.00687 0.61971 0.06125 0.0
O54 O 0.09017 0.68715 0.00805 0.0
O55 O 0.05627 0.69313 0.01458 0.0
O56 O 0.43338 0.4028 0.96523 0.0
Cd57 Cd 0.41685 0.37871 0.0091 0.0
Cd58 Cd 0.38748 0.40411 0.0069 0.0
O59 O 0.40527 0.41693 0.95806 0.0
O60 O 0.42796 0.35155 0.00601 0.0
O61 O 0.38665 0.34183 0.00317 0.0
C62 C 0.40363 0.33405 0.0021 0.0
C63 C 0.34235 0.3881 0.01401 0.0
C64 C 0.4253 0.41593 0.94781 0.0
C65 C 0.42519 0.41571 0.06858 0.0
O66 O 0.41081 0.4222 0.05107 0.0
O67 O 0.42831 0.39691 0.05807 0.0
O68 O 0.3586 0.4127 0.00929 0.0
O69 O 0.35164 0.37233 0.01346 0.0
O70 O 0.62409 1.00067 0.05594 0.0
Cd71 Cd 0.64098 0.99321 0.01235 0.0
Cd72 Cd 0.66991 0.04795 0.01462 0.0
O73 O 0.65186 0.04299 0.06333 0.0
O74 O 0.62946 0.95484 0.01517 0.0
O75 O 0.67087 0.98609 0.01866 0.0
C76 C 0.65369 0.96138 0.01937 0.0
C77 C 0.71512 0.07659 0.00754 0.0
C78 C 0.63186 0.02185 0.07337 0.0
C79 C 0.6327 0.02167 0.95262 0.0
O80 O 0.64678 0.0426 0.97021 0.0
O81 O 0.62978 0.99986 0.96324 0.0
O82 O 0.69912 0.08526 0.01213 0.0
O83 O 0.70555 0.05148 0.00831 0.0
O84 O 0.71707 0.75679 0.38514 0.0
Cd85 Cd 0.72165 0.73829 0.34095 0.0
Cd86 Cd 0.66733 0.71196 0.34546 0.0
O87 O 0.67474 0.73037 0.39426 0.0
O88 O 0.7592 0.74695 0.34202 0.0
O89 O 0.72595 0.70667 0.34796 0.0
C90 C 0.75099 0.72244 0.34756 0.0
C91 C 0.63705 0.6672 0.33841 0.0
C92 C 0.69658 0.74979 0.40372 0.0
C93 C 0.69311 0.74793 0.28264 0.0
O94 O 0.67261 0.73509 0.30138 0.0
O95 O 0.71465 0.74959 0.292 0.0
O96 O 0.62946 0.684 0.3438 0.0
O97 O 0.66197 0.67571 0.33861 0.0
O98 O 0.28657 0.97195 0.38175 0.0
Cd99 Cd 0.30297 0.99506 0.3372 0.0
Cd100 Cd 0.33218 0.96927 0.33987 0.0
O101 O 0.31458 0.95773 0.38916 0.0
O102 O 0.29214 0.0223 0.33993 0.0
O103 O 0.3334 0.03169 0.34278 0.0
C104 C 0.31652 0.03961 0.34401 0.0
C105 C 0.37719 0.98372 0.33307 0.0
C106 C 0.29483 0.9592 0.39964 0.0
C107 C 0.29375 0.95751 0.27861 0.0
O108 O 0.30821 0.95108 0.29611 0.0
O109 O 0.29092 0.97655 0.28869 0.0
O110 O 0.36023 0.95934 0.33796 0.0
O111 O 0.3687 1.00015 0.33296 0.0
O112 O 0.09844 0.36972 0.29803 0.0
Cd113 Cd 0.08138 0.37701 0.3415 0.0
Cd114 Cd 0.05253 0.32253 0.33911 0.0
O115 O 0.07049 0.32748 0.29042 0.0
O116 O 0.09257 0.41526 0.33857 0.0
O117 O 0.05128 0.3837 0.3348 0.0
C118 C 0.0683 0.40846 0.33404 0.0
C119 C 1.00732 0.29402 0.34586 0.0
C120 C 0.09055 0.34859 0.28047 0.0
C121 C 0.08965 0.34862 0.40119 0.0
O122 O 0.07562 0.32772 0.38351 0.0
O123 O 0.09253 0.37043 0.39067 0.0
O124 O 1.02328 0.28528 0.34136 0.0
O125 O 1.01696 0.31913 0.34529 0.0
O126 O 0.67324 0.94705 0.2975 0.0
Cd127 Cd 0.66501 0.96324 0.3413 0.0
Cd128 Cd 0.72077 0.99127 0.34161 0.0
O129 O 0.71597 0.97384 0.29246 0.0
O130 O 0.62684 0.95202 0.33671 0.0
O131 O 0.6583 0.99345 0.33549 0.0
C132 C 0.63361 0.97638 0.33345 0.0
C133 C 0.75212 0.03576 0.34997 0.0
C134 C 0.69472 0.95458 0.28106 0.0
C135 C 0.69127 0.95304 0.4019 0.0
O136 O 0.7127 0.967 0.38538 0.0
O137 O 0.66994 0.95084 0.3905 0.0
O138 O 0.75891 1.01821 0.34635 0.0
O139 O 0.72744 0.02815 0.34779 0.0
O140 O 0.09883 0.7321 0.30448 0.0
Cd141 Cd 0.08141 0.70936 0.34918 0.0
Cd142 Cd 0.0558 0.73865 0.34697 0.0
O143 O 0.07325 0.74928 0.29763 0.0
O144 O 0.08973 0.68029 0.34674 0.0
O145 O 0.04943 0.67357 0.34323 0.0
C146 C 0.06507 0.66413 0.34234 0.0
C147 C 1.01142 0.72628 0.35426 0.0
C148 C 0.09192 0.74609 0.28684 0.0
C149 C 0.09383 0.74791 0.40771 0.0
O150 O 0.08043 0.7557 0.39035 0.0
O151 O 0.0948 0.72778 0.3977 0.0
O152 O 0.02919 0.75046 0.34991 0.0
O153 O 1.01877 0.70895 0.35359 0.0
O154 O 0.29443 0.3369 0.38792 0.0
Cd155 Cd 0.31263 0.33126 0.34425 0.0
Cd156 Cd 0.33923 0.38481 0.34734 0.0
O157 O 0.32142 0.37924 0.39623 0.0
O158 O 0.30384 0.29367 0.34618 0.0
O159 O 0.3442 0.32692 0.35141 0.0
C160 C 0.32838 0.30187 0.35135 0.0
C161 C 0.38441 0.41247 0.34009 0.0
C162 C 0.30173 0.35775 0.40593 0.0
C163 C 0.30281 0.3589 0.28503 0.0
O164 O 0.31599 0.37973 0.3032 0.0
O165 O 0.30104 0.33745 0.29507 0.0
O166 O 0.36896 0.42177 0.34514 0.0
O167 O 0.37425 0.38728 0.34053 0.0
O168 O 0.39007 0.09581 0.71495 0.0
Cd169 Cd 0.3973 0.0801 0.67041 0.0
Cd170 Cd 0.34241 0.04795 0.67262 0.0
O171 O 0.34799 0.06692 0.72125 0.0
O172 O 0.43476 0.08901 0.67387 0.0
O173 O 0.40135 0.04841 0.67576 0.0
C174 C 0.42635 0.06429 0.67781 0.0
C175 C 0.31172 1.00272 0.66742 0.0
C176 C 0.3688 0.08703 0.73222 0.0
C177 C 0.36813 0.08659 0.61064 0.0
O178 O 0.34749 0.06994 0.6269 0.0
O179 O 0.39068 0.09264 0.62248 0.0
O180 O 0.30442 0.01987 0.67123 0.0
O181 O 0.3366 1.01112 0.66778 0.0
O182 O 0.95729 0.29897 0.72015 0.0
Cd183 Cd 0.97417 0.32323 0.67659 0.0
Cd184 Cd 1.0033 0.29797 0.67882 0.0
O185 O 0.98557 0.2851 0.72766 0.0
O186 O 0.9632 0.35046 0.67981 0.0
O187 O 1.00442 0.35993 0.68342 0.0
C188 C 0.98751 0.3678 0.6844 0.0
C189 C 0.04852 0.31492 0.67185 0.0
C190 C 0.96545 0.28598 0.73775 0.0
C191 C 0.96611 0.28665 0.61675 0.0
O192 O 0.98019 0.27988 0.63446 0.0
O193 O 0.9631 0.30551 0.62732 0.0
O194 O 0.03271 0.29021 0.67645 0.0
O195 O 0.03872 0.33026 0.67244 0.0
O196 O 0.76603 0.71062 0.63516 0.0
Cd197 Cd 0.748 0.71551 0.67954 0.0
Cd198 Cd 0.72166 0.66138 0.67613 0.0
O199 O 0.73972 0.66811 0.62709 0.0
O200 O 0.75621 0.75288 0.67801 0.0
O201 O 0.716 0.71922 0.67342 0.0
C202 C 0.73157 0.74432 0.67331 0.0
C203 C 0.67667 0.63101 0.68287 0.0
C204 C 0.75899 0.68985 0.61708 0.0
C205 C 0.75919 0.68841 0.73776 0.0
O206 O 0.74565 0.66746 0.7199 0.0
O207 O 0.76067 0.70978 0.72807 0.0
O208 O 0.69353 0.62345 0.67789 0.0
O209 O 0.68527 0.65596 0.68297 0.0
O210 O 0.33778 0.27946 0.63773 0.0
Cd211 Cd 0.33077 0.29616 0.68181 0.0
Cd212 Cd 0.3863 0.32379 0.68117 0.0
O213 O 0.38045 0.3061 0.63205 0.0
O214 O 0.293 0.28626 0.67754 0.0
O215 O 0.32557 0.3272 0.67538 0.0
C216 C 0.30071 0.31078 0.67332 0.0
C217 C 0.41851 0.36823 0.68814 0.0
C218 C 0.35904 0.28699 0.62077 0.0
C219 C 0.35715 0.28562 0.74176 0.0
O220 O 0.37847 0.29957 0.72499 0.0
O221 O 0.33578 0.28358 0.73082 0.0
O222 O 0.42472 0.35024 0.68464 0.0
O223 O 0.3939 0.36105 0.68691 0.0
O224 O 0.76559 0.07158 0.63246 0.0
Cd225 Cd 0.74856 0.0473 0.67593 0.0
Cd226 Cd 0.71952 0.07237 0.67351 0.0
O227 O 0.73706 0.08507 0.62457 0.0
O228 O 0.75926 0.01991 0.67271 0.0
O229 O 0.71815 1.01079 0.66882 0.0
C230 C 0.73492 1.00273 0.66787 0.0
C231 C 0.67433 0.05518 0.68071 0.0
C232 C 0.75729 0.08434 0.61464 0.0
C233 C 0.75653 0.08381 0.73568 0.0
O234 O 0.74262 0.09067 0.71775 0.0
O235 O 0.75946 0.06487 0.72529 0.0
O236 O 0.68997 0.0799 0.67584 0.0
O237 O 0.68428 0.03997 0.6802 0.0
O238 O 0.96025 0.66362 0.71644 0.0
Cd239 Cd 0.97791 0.65828 0.67199 0.0
Cd240 Cd 1.0035 0.71321 0.67462 0.0
O241 O 0.98567 0.70639 0.72369 0.0
O242 O 0.96887 0.62066 0.67402 0.0
O243 O 1.00943 0.65367 0.67801 0.0
C244 C 0.99342 0.62867 0.6785 0.0
C245 C 0.04794 0.74507 0.66757 0.0
C246 C 0.9669 0.68448 0.73412 0.0
C247 C 0.96569 0.68459 0.61364 0.0
O248 O 0.97905 0.70575 0.63112 0.0
O249 O 0.96473 0.66348 0.62351 0.0
O250 O 0.03023 0.75159 0.67182 0.0
O251 O 0.04049 0.72037 0.66828 0.0
H252 H 0.2797 0.3599 0.12598 0.0
H253 H 0.21985 0.36304 0.06493 0.0
H254 H 0.21991 0.36605 0.18064 0.0
H255 H 0.17897 0.34846 0.17789 0.0
H256 H 0.11972 0.3566 0.12505 0.0
H257 H 0.18937 0.37419 0.06753 0.0
C258 C 0.26164 0.36058 0.12494 0.0
C259 C 0.25 0.3616 0.15662 0.0
C260 C 0.25139 0.36205 0.09204 0.0
C261 C 0.22788 0.3629 0.09075 0.0
C262 C 0.21496 0.36305 0.12269 0.0
C263 C 0.22747 0.36389 0.15548 0.0
C264 C 0.18845 0.36153 0.12254 0.0
C265 C 0.17283 0.35385 0.15382 0.0
C266 C 0.1485 0.35261 0.15484 0.0
C267 C 0.13847 0.35729 0.124 0.0
C268 C 0.15289 0.3646 0.09245 0.0
C269 C 0.17813 0.36739 0.09181 0.0
H270 H 0.68779 0.92706 0.12456 0.0
H271 H 0.6731 0.85879 0.06522 0.0
H272 H 0.69695 0.86834 0.17658 0.0
H273 H 0.68227 0.82821 0.17854 0.0
H274 H 0.68887 0.76895 0.12334 0.0
H275 H 0.6823 0.82704 0.06272 0.0
C276 C 0.68756 0.90853 0.12317 0.0
C277 C 0.69213 0.89836 0.1539 0.0
C278 C 0.68116 0.89458 0.09115 0.0
C279 C 0.6791 0.86961 0.08995 0.0
C280 C 0.68474 0.85909 0.1207 0.0
C281 C 0.69159 0.87436 0.15242 0.0
C282 C 0.68391 0.8328 0.12051 0.0
C283 C 0.68416 0.82073 0.15319 0.0
C284 C 0.68716 0.79861 0.15411 0.0
C285 C 0.6877 0.78676 0.12239 0.0
C286 C 0.68497 0.79634 0.08963 0.0
C287 C 0.68348 0.81956 0.08847 0.0
H288 H 0.27244 0.92571 0.12297 0.0
H289 H 0.21916 0.85562 0.06691 0.0
H290 H 0.2061 0.8671 0.17791 0.0
H291 H 0.18139 0.82647 0.18092 0.0
H292 H 0.11496 0.76654 0.12706 0.0
H293 H 0.17804 0.82513 0.0652 0.0
C294 C 0.25438 0.90695 0.12247 0.0
C295 C 0.24026 0.89724 0.15377 0.0
C296 C 0.24658 0.89221 0.0911 0.0
C297 C 0.22408 0.86703 0.09113 0.0
C298 C 0.20845 0.85706 0.12231 0.0
C299 C 0.21711 0.87293 0.15345 0.0
C300 C 0.18324 0.83075 0.1229 0.0
C301 C 0.1716 0.81873 0.15584 0.0
C302 C 0.14666 0.7964 0.15725 0.0
C303 C 0.1338 0.78446 0.12575 0.0
C304 C 0.14548 0.79421 0.09273 0.0
C305 C 0.16996 0.81752 0.09115 0.0
H306 H 0.36745 0.10708 0.89236 0.0
H307 H 0.3715 0.16956 0.95602 0.0
H308 H 0.37441 0.17428 0.84049 0.0
H309 H 0.35609 0.1969 0.84433 0.0
H310 H 0.36625 0.26493 0.89754 0.0
H311 H 0.38299 0.21178 0.95434 0.0
C312 C 0.36829 0.12588 0.89419 0.0
C313 C 0.36941 0.13913 0.86306 0.0
C314 C 0.37005 0.13715 0.92757 0.0
C315 C 0.37113 0.16165 0.9299 0.0
C316 C 0.37126 0.17524 0.89848 0.0
C317 C 0.37202 0.16406 0.86525 0.0
C318 C 0.36989 0.20034 0.89936 0.0
C319 C 0.36201 0.20847 0.86839 0.0
C320 C 0.36131 0.23186 0.86758 0.0
C321 C 0.36657 0.24666 0.89844 0.0
C322 C 0.3739 0.2393 0.92985 0.0
C323 C 0.3762 0.21651 0.93024 0.0
H324 H 0.77818 0.10896 0.89531 0.0
H325 H 0.83774 0.17284 0.95562 0.0
H326 H 0.83774 0.17435 0.83985 0.0
H327 H 0.87841 0.19833 0.84206 0.0
H328 H 0.93788 0.266 0.89407 0.0
H329 H 0.86887 0.214 0.95271 0.0
C330 C 0.79619 0.12775 0.89617 0.0
C331 C 0.80784 0.14008 0.86436 0.0
C332 C 0.80633 0.13992 0.92891 0.0
C333 C 0.82981 0.16433 0.9299 0.0
C334 C 0.84278 0.17703 0.8978 0.0
C335 C 0.83029 0.16495 0.86518 0.0
C336 C 0.86927 0.20207 0.8976 0.0
C337 C 0.88464 0.20993 0.86608 0.0
C338 C 0.90891 0.23308 0.86467 0.0
C339 C 0.91918 0.24792 0.89538 0.0
C340 C 0.90505 0.24086 0.92719 0.0
C341 C 0.87985 0.21837 0.92821 0.0
H342 H 0.78243 0.68133 0.89319 0.0
H343 H 0.83631 0.66635 0.95056 0.0
H344 H 0.84823 0.68775 0.83832 0.0
H345 H 0.87559 0.67544 0.83654 0.0
H346 H 0.94063 0.68063 0.89236 0.0
H347 H 0.87613 0.67441 0.95242 0.0
C348 C 0.80053 0.68072 0.89383 0.0
C349 C 0.81439 0.68441 0.86246 0.0
C350 C 0.80863 0.67462 0.92556 0.0
C351 C 0.83123 0.67213 0.9259 0.0
C352 C 0.84668 0.67708 0.89464 0.0
C353 C 0.83758 0.68329 0.86302 0.0
C354 C 0.87214 0.67632 0.8946 0.0
C355 C 0.88466 0.67686 0.86199 0.0
C356 C 0.90961 0.67946 0.86135 0.0
C357 C 0.92178 0.67972 0.89317 0.0
C358 C 0.90934 0.67699 0.92578 0.0
C359 C 0.88477 0.67566 0.92667 0.0
H360 H 0.94312 0.69203 0.45924 0.0
H361 H 0.89019 0.7081 0.40101 0.0
H362 H 0.87588 0.68383 0.51209 0.0
H363 H 0.85067 0.69906 0.51432 0.0
H364 H 0.78503 0.69286 0.4588 0.0
H365 H 0.84919 0.69823 0.39848 0.0
C366 C 0.92498 0.69257 0.45813 0.0
C367 C 0.9104 0.68804 0.48898 0.0
C368 C 0.91756 0.69936 0.42639 0.0
C369 C 0.89488 0.70179 0.42554 0.0
C370 C 0.87882 0.69614 0.45636 0.0
C371 C 0.88717 0.68904 0.48788 0.0
C372 C 0.8535 0.69716 0.4563 0.0
C373 C 0.84129 0.69719 0.48896 0.0
C374 C 0.81629 0.6945 0.48977 0.0
C375 C 0.80391 0.69384 0.45796 0.0
C376 C 0.81609 0.69612 0.42524 0.0
C377 C 0.84067 0.69741 0.42422 0.0
H378 H 0.35916 0.26628 0.46142 0.0
H379 H 0.35244 0.20297 0.39731 0.0
H380 H 0.3518 0.19877 0.51292 0.0
H381 H 0.36676 0.17317 0.50834 0.0
H382 H 0.34911 0.10295 0.45388 0.0
H383 H 0.34041 0.16145 0.398 0.0
C384 C 0.35797 0.24732 0.4594 0.0
C385 C 0.35701 0.23402 0.49041 0.0
C386 C 0.35539 0.23582 0.426 0.0
C387 C 0.35361 0.21104 0.42353 0.0
C388 C 0.35361 0.19735 0.4548 0.0
C389 C 0.35394 0.20891 0.48815 0.0
C390 C 0.35314 0.17133 0.45346 0.0
C391 C 0.35989 0.16179 0.48417 0.0
C392 C 0.35737 0.13685 0.48468 0.0
C393 C 0.35058 0.12208 0.45359 0.0
C394 C 0.3455 0.13137 0.42216 0.0
C395 C 0.34587 0.1555 0.42221 0.0
H396 H 0.94393 0.26156 0.45742 0.0
H397 H 0.88465 0.19764 0.39686 0.0
H398 H 0.88459 0.19584 0.51262 0.0
H399 H 0.84393 0.17174 0.51022 0.0
H400 H 0.78472 0.10402 0.45795 0.0
H401 H 0.85368 0.15642 0.3995 0.0
C402 C 0.92597 0.24273 0.4565 0.0
C403 C 0.91437 0.23028 0.48827 0.0
C404 C 0.9159 0.2306 0.42372 0.0
C405 C 0.89252 0.20611 0.42262 0.0
C406 C 0.87959 0.1933 0.45465 0.0
C407 C 0.89202 0.20533 0.48734 0.0
C408 C 0.85317 0.16816 0.4547 0.0
C409 C 0.83777 0.16017 0.48617 0.0
C410 C 0.81358 0.13695 0.48748 0.0
C411 C 0.80338 0.12215 0.45672 0.0
C412 C 0.81752 0.12935 0.42492 0.0
C413 C 0.84268 0.15193 0.424 0.0
H414 H 0.03411 0.44233 0.22686 0.0
H415 H 0.04902 0.51041 0.28671 0.0
H416 H 1.02566 0.50163 0.1752 0.0
H417 H 0.04009 0.54176 0.17376 0.0
H418 H 0.03362 0.60069 0.23019 0.0
H419 H 0.03985 0.54195 0.28958 0.0
C420 C 0.03445 0.46091 0.22838 0.0
C421 C 0.03012 0.47133 0.19769 0.0
C422 C 0.0408 0.47471 0.26051 0.0
C423 C 0.04303 0.49973 0.26187 0.0
C424 C 0.03756 0.51046 0.2312 0.0
C425 C 0.03081 0.49539 0.19934 0.0
C426 C 0.03842 0.53673 0.23171 0.0
C427 C 0.03823 0.54908 0.19926 0.0
C428 C 0.03532 0.57127 0.19878 0.0
C429 C 0.03472 0.58283 0.23077 0.0
C430 C 0.03731 0.57289 0.26331 0.0
C431 C 0.03877 0.54967 0.26396 0.0
H432 H 0.44805 0.44228 0.22696 0.0
H433 H 0.50614 0.50719 0.28707 0.0
H434 H 0.50728 0.50767 0.17122 0.0
H435 H 0.54709 0.5346 0.17326 0.0
H436 H 0.60616 0.60119 0.22753 0.0
H437 H 0.53755 0.54736 0.2852 0.0
C438 C 0.46589 0.46122 0.22777 0.0
C439 C 0.47761 0.47342 0.19594 0.0
C440 C 0.47561 0.47377 0.2604 0.0
C441 C 0.49871 0.49845 0.26132 0.0
C442 C 0.51182 0.5111 0.22928 0.0
C443 C 0.49979 0.49852 0.19664 0.0
C444 C 0.53793 0.53665 0.22938 0.0
C445 C 0.5532 0.54553 0.19781 0.0
C446 C 0.57736 0.56883 0.1971 0.0
C447 C 0.58751 0.58302 0.22833 0.0
C448 C 0.5734 0.57508 0.26009 0.0
C449 C 0.54839 0.55236 0.26055 0.0
H450 H 0.44161 1.01007 0.22482 0.0
H451 H 0.50091 1.00697 0.28742 0.0
H452 H 0.50208 1.00424 0.17174 0.0
H453 H 0.54299 0.02226 0.17509 0.0
H454 H 0.60177 1.01365 0.22836 0.0
H455 H 0.53184 0.99607 0.28529 0.0
C456 C 0.45969 1.00943 0.22634 0.0
C457 C 0.47174 1.00858 0.195 0.0
C458 C 0.46954 1.00788 0.25951 0.0
C459 C 0.49313 1.00716 0.26142 0.0
C460 C 0.50648 1.0072 0.22975 0.0
C461 C 0.49428 1.00636 0.1967 0.0
C462 C 0.53308 1.00888 0.2303 0.0
C463 C 0.54893 1.01671 0.1992 0.0
C464 C 0.57324 1.01788 0.19835 0.0
C465 C 0.58305 1.01303 0.22926 0.0
C466 C 0.56846 1.00563 0.26068 0.0
C467 C 0.54323 1.00292 0.26113 0.0
H468 H 0.61074 0.02392 0.79381 0.0
H469 H 0.55224 0.02883 0.73198 0.0
H470 H 0.55085 0.03038 0.84771 0.0
H471 H 0.51003 1.01404 0.84406 0.0
H472 H 0.45209 0.02326 0.78923 0.0
H473 H 0.52249 0.04057 0.73402 0.0
C474 C 0.59282 0.02486 0.79251 0.0
C475 C 0.58093 0.02573 0.82402 0.0
C476 C 0.58308 0.02693 0.7595 0.0
C477 C 0.55984 0.02823 0.75793 0.0
C478 C 0.54666 0.02824 0.78966 0.0
C479 C 0.55862 0.02841 0.82263 0.0
C480 C 0.52046 0.02733 0.78894 0.0
C481 C 0.50438 0.01968 0.81977 0.0
C482 C 0.48016 1.01872 0.81999 0.0
C483 C 0.47076 0.02377 0.78881 0.0
C484 C 0.48576 0.0312 0.75772 0.0
C485 C 0.51084 0.03367 0.75794 0.0
H486 H 1.02133 0.59405 0.7898 0.0
H487 H 1.01739 0.53025 0.72972 0.0
H488 H 1.01472 0.5283 0.84545 0.0
H489 H 0.03175 0.50454 0.84349 0.0
H490 H 1.02347 0.43665 0.79202 0.0
H491 H 1.00673 0.48876 0.73274 0.0
C492 C 1.02046 0.5752 0.78905 0.0
C493 C 1.01945 0.56276 0.82092 0.0
C494 C 1.01876 0.56316 0.75633 0.0
C495 C 1.0177 0.53867 0.75541 0.0
C496 C 1.01757 0.52581 0.78756 0.0
C497 C 1.0169 0.53781 0.82014 0.0
C498 C 1.01895 0.50072 0.78789 0.0
C499 C 1.02639 0.49288 0.81953 0.0
C500 C 1.02743 0.46969 0.82114 0.0
C501 C 1.02287 0.45476 0.79052 0.0
C502 C 1.01588 0.46179 0.75857 0.0
C503 C 1.01325 0.48436 0.75734 0.0
H504 H 0.61234 0.59528 0.79155 0.0
H505 H 0.55355 0.5311 0.73078 0.0
H506 H 0.55291 0.52964 0.8466 0.0
H507 H 0.51254 0.50481 0.84447 0.0
H508 H 0.45346 0.43714 0.79219 0.0
H509 H 0.52197 0.49005 0.73331 0.0
C510 C 0.59442 0.57641 0.79056 0.0
C511 C 0.58266 0.56403 0.82226 0.0
C512 C 0.58459 0.56422 0.75776 0.0
C513 C 0.56124 0.53966 0.75656 0.0
C514 C 0.5481 0.52687 0.78858 0.0
C515 C 0.56037 0.53904 0.82129 0.0
C516 C 0.5217 0.5016 0.7887 0.0
C517 C 0.50641 0.49337 0.82033 0.0
C518 C 0.48228 0.47007 0.82168 0.0
C519 C 0.47207 0.45533 0.79091 0.0
C520 C 0.48605 0.46268 0.75901 0.0
C521 C 0.51112 0.48541 0.75794 0.0
H522 H 0.70081 0.77671 0.56251 0.0
H523 H 0.70565 0.84117 0.62184 0.0
H524 H 0.70684 0.84187 0.50603 0.0
H525 H 0.69089 0.86646 0.50768 0.0
H526 H 0.69891 0.93425 0.55909 0.0
H527 H 0.71548 0.88217 0.61862 0.0
C528 C 0.70169 0.79557 0.56306 0.0
C529 C 0.70235 0.80769 0.53106 0.0
C530 C 0.70384 0.80798 0.59561 0.0
C531 C 0.70495 0.83248 0.59623 0.0
C532 C 0.7047 0.84502 0.56395 0.0
C533 C 0.70493 0.83265 0.5315 0.0
C534 C 0.70343 0.87018 0.56341 0.0
C535 C 0.69614 0.87807 0.53168 0.0
C536 C 0.69508 0.90125 0.53001 0.0
C537 C 0.69952 0.91616 0.56063 0.0
C538 C 0.70641 0.9091 0.59264 0.0
C539 C 0.70904 0.88655 0.59394 0.0
H540 H 0.11627 0.77818 0.56272 0.0
H541 H 0.16922 0.84782 0.62014 0.0
H542 H 0.18351 0.83683 0.50944 0.0
H543 H 0.20671 0.87767 0.50641 0.0
H544 H 0.27337 0.93788 0.55944 0.0
H545 H 0.21095 0.8789 0.62206 0.0
C546 C 0.13441 0.79686 0.56365 0.0
C547 C 0.14893 0.80668 0.53271 0.0
C548 C 0.14185 0.81135 0.59524 0.0
C549 C 0.16447 0.83652 0.59581 0.0
C550 C 0.18041 0.84671 0.56489 0.0
C551 C 0.17214 0.83092 0.53362 0.0
C552 C 0.20544 0.87325 0.56439 0.0
C553 C 0.21673 0.88541 0.53136 0.0
C554 C 0.24156 0.90786 0.52962 0.0
C555 C 0.25461 0.91987 0.56097 0.0
C556 C 0.24328 0.91011 0.59415 0.0
C557 C 0.21888 0.88659 0.59606 0.0
H558 H 0.11212 0.34616 0.55987 0.0
H559 H 0.17114 0.34163 0.62094 0.0
H560 H 0.17197 0.34025 0.50514 0.0
H561 H 0.21255 0.35602 0.50788 0.0
H562 H 0.27158 0.3483 0.562 0.0
H563 H 0.20193 0.33145 0.61879 0.0
C564 C 0.13012 0.34536 0.56094 0.0
C565 C 0.14192 0.34463 0.52929 0.0
C566 C 0.14005 0.34332 0.5938 0.0
C567 C 0.16343 0.34224 0.59508 0.0
C568 C 0.17655 0.34241 0.56317 0.0
C569 C 0.16434 0.34215 0.53037 0.0
C570 C 0.20292 0.3436 0.56348 0.0
C571 C 0.21857 0.35084 0.53222 0.0
C572 C 0.24289 0.35202 0.53158 0.0
C573 C 0.25283 0.34761 0.56272 0.0
C574 C 0.23834 0.34065 0.59422 0.0
C575 C 0.21315 0.33796 0.59448 0.0
C576 C 0.04637 0.45685 0.10643 0.0
C577 C 1.02724 0.43036 0.10184 0.0
H578 H 0.06161 0.49078 0.14009 0.0
C579 C 1.00776 0.41797 0.1279 0.0
H580 H 0.06145 0.46698 0.0866 0.0
C581 C 1.00806 0.43155 0.15866 0.0
C582 C 1.02742 0.45791 0.16335 0.0
H583 H 0.99275 0.39759 0.12501 0.0
H584 H 0.99348 0.42137 0.17907 0.0
C585 C 0.04629 0.47056 0.13675 0.0
C586 C 0.59389 0.60056 0.10644 0.0
C587 C 0.62028 0.60734 0.10277 0.0
H588 H 0.55939 0.5822 0.13892 0.0
C589 C 0.63192 0.59972 0.12935 0.0
H590 H 0.58431 0.6059 0.0862 0.0
C591 C 0.61771 0.58639 0.1596 0.0
C592 C 0.59144 0.57986 0.16333 0.0
H593 H 0.65219 0.60461 0.12717 0.0
H594 H 0.62731 0.58148 0.18034 0.0
C595 C 0.57953 0.58672 0.13631 0.0
C596 C 0.44237 0.03101 0.12322 0.0
C597 C 0.43367 1.01052 0.0983 0.0
H598 H 0.46131 0.04634 0.17335 0.0
C599 C 0.43886 0.98997 0.10457 0.0
H600 H 0.43877 0.04714 0.11915 0.0
C601 C 0.45219 0.98979 0.13534 0.0
C602 C 0.46019 1.00993 0.1606 0.0
H603 H 0.43262 0.97401 0.08571 0.0
H604 H 0.45556 0.97356 0.13992 0.0
C605 C 0.4553 0.03059 0.15417 0.0
C606 C 0.42439 0.99369 0.88614 0.0
C607 C 0.43558 1.01249 0.91341 0.0
H608 H 0.42988 0.98103 0.83481 0.0
C609 C 0.46202 0.03214 0.91072 0.0
H610 H 0.40409 0.9783 0.88756 0.0
C611 C 0.47689 0.03318 0.88117 0.0
C612 C 0.46546 1.01493 0.85342 0.0
H613 H 0.47126 0.04671 0.93152 0.0
H614 H 0.49707 0.04885 0.87935 0.0
C615 C 0.43912 0.99513 0.85614 0.0
C616 C 0.05057 0.43925 0.89061 0.0
C617 C 0.03131 0.43228 0.91698 0.0
H618 H 0.06437 0.45662 0.83918 0.0
C619 C 1.01213 0.43959 0.91269 0.0
H620 H 0.06562 0.43392 0.89328 0.0
C621 C 1.01191 0.45319 0.88238 0.0
C622 C 0.03054 0.45926 0.85545 0.0
H623 H 0.99721 0.43474 0.93276 0.0
H624 H 0.99654 0.45803 0.87928 0.0
C625 C 0.04997 0.45232 0.85984 0.0
C626 C 0.61624 0.58018 0.91224 0.0
C627 C 0.62105 0.60586 0.91788 0.0
H628 H 0.59973 0.54654 0.87776 0.0
C629 C 0.6119 0.61702 0.89268 0.0
H630 H 0.62283 0.57094 0.93133 0.0
C631 C 0.59889 0.6031 0.86205 0.0
C632 C 0.59435 0.57759 0.85628 0.0
H633 H 0.61521 0.6367 0.89627 0.0
H634 H 0.59252 0.61235 0.84262 0.0
C635 C 0.60281 0.56609 0.88183 0.0
C636 C 0.04318 0.61584 0.89121 0.0
C637 C 1.02317 0.60459 0.91676 0.0
H638 H 0.05756 0.61127 0.84091 0.0
C639 C 1.00235 0.57888 0.91124 0.0
H640 H 0.05951 0.63554 0.89466 0.0
C641 C 1.0015 0.56483 0.88068 0.0
C642 C 1.02123 0.57639 0.85487 0.0
H643 H 0.98674 0.56958 0.93058 0.0
H644 H 0.98511 0.54521 0.87676 0.0
C645 C 0.0421 0.60196 0.86048 0.0
C646 C 0.4668 0.43896 0.91269 0.0
C647 C 0.44012 0.4311 0.91627 0.0
H648 H 0.50125 0.45833 0.88027 0.0
C649 C 0.42798 0.43819 0.88976 0.0
H650 H 0.47678 0.43407 0.93289 0.0
C651 C 0.44197 0.45189 0.85954 0.0
C652 C 0.46851 0.45932 0.85578 0.0
H653 H 0.40749 0.4325 0.89187 0.0
H654 H 0.43197 0.45624 0.83874 0.0
C655 C 0.48091 0.45315 0.88288 0.0
C656 C 0.60922 1.00186 0.8954 0.0
C657 C 0.6189 0.02254 0.92013 0.0
H658 H 0.58958 0.9868 0.84558 0.0
C659 C 0.6148 0.04379 0.91383 0.0
H660 H 0.61198 0.9852 0.89949 0.0
C661 C 0.60148 0.04441 0.88327 0.0
C662 C 0.59244 0.02401 0.85825 0.0
H663 H 0.62182 0.05992 0.93255 0.0
H664 H 0.59891 0.06114 0.87868 0.0
C665 C 0.59634 1.00271 0.86463 0.0
C666 C 0.62845 0.04101 0.13152 0.0
C667 C 0.61666 0.02202 0.1046 0.0
H668 H 0.6238 0.05457 0.18263 0.0
C669 C 0.58993 1.0032 0.10747 0.0
H670 H 0.64898 0.0558 0.12995 0.0
C671 C 0.57543 1.00301 0.13699 0.0
C672 C 0.58748 0.02131 0.16454 0.0
H673 H 0.58021 0.98851 0.08694 0.0
H674 H 0.55506 0.98783 0.13904 0.0
C675 C 0.61406 0.04043 0.16148 0.0
C676 C 0.05124 0.60393 0.1082 0.0
C677 C 0.03021 0.60852 0.10302 0.0
H678 H 0.06907 0.588 0.14238 0.0
C679 C 1.01047 0.59985 0.12896 0.0
H680 H 0.06667 0.61019 0.08856 0.0
C681 C 1.01201 0.58738 0.15973 0.0
C682 C 0.03307 0.58292 0.16495 0.0
H683 H 0.994 0.60303 0.12576 0.0
H684 H 0.99675 0.58126 0.17961 0.0
C685 C 0.05254 0.59104 0.13877 0.0
C686 C 0.44901 0.42019 0.12579 0.0
C687 C 0.43914 0.4308 0.10079 0.0
H688 H 0.46893 0.42552 0.17556 0.0
C689 C 0.44319 0.45619 0.10651 0.0
H690 H 0.44628 0.40073 0.12213 0.0
C691 C 0.45665 0.47057 0.13674 0.0
C692 C 0.46589 0.45962 0.16205 0.0
H693 H 0.43603 0.46501 0.08756 0.0
H694 H 0.45919 0.48991 0.14087 0.0
C695 C 0.46203 0.43436 0.15627 0.0
C696 C 0.71908 0.79051 0.44128 0.0
C697 C 0.69798 0.76491 0.436 0.0
H698 H 0.7367 0.82441 0.47532 0.0
C699 C 0.67792 0.7541 0.46151 0.0
H700 H 0.73473 0.79947 0.42194 0.0
C701 C 0.67919 0.7683 0.49198 0.0
C702 C 0.70032 0.79376 0.49733 0.0
H703 H 0.66139 0.73449 0.45821 0.0
H704 H 0.66371 0.75932 0.51157 0.0
C705 C 0.72012 0.80489 0.47156 0.0
C706 C 0.29286 0.93694 0.4573 0.0
C707 C 0.28085 0.9454 0.43245 0.0
H708 H 0.28968 0.91838 0.50755 0.0
C709 C 0.25519 0.94027 0.43904 0.0
H710 H 0.31255 0.94052 0.45299 0.0
C711 C 0.24195 0.92717 0.47001 0.0
C712 C 0.25429 0.91936 0.49517 0.0
H713 H 0.2453 0.94634 0.42026 0.0
H714 H 0.22238 0.9238 0.47478 0.0
C715 C 0.27979 0.92425 0.48847 0.0
C716 C 0.10772 0.32654 0.43972 0.0
C717 C 0.10349 0.34773 0.43362 0.0
H718 H 0.12386 0.30928 0.47458 0.0
C719 C 0.11315 0.36836 0.45842 0.0
H720 H 0.10074 0.31046 0.42092 0.0
C721 C 0.12615 0.36753 0.48906 0.0
C722 C 0.1302 0.34631 0.49523 0.0
H723 H 0.11028 0.38497 0.45447 0.0
H724 H 0.13291 0.38341 0.50817 0.0
C725 C 0.12117 0.32595 0.47014 0.0
C726 C 0.09366 0.32946 0.22219 0.0
C727 C 0.10561 0.34844 0.24909 0.0
H728 H 0.09804 0.31593 0.17092 0.0
C729 C 0.13231 0.36727 0.24601 0.0
H730 H 0.07315 0.31466 0.22392 0.0
C731 C 0.14665 0.3675 0.21629 0.0
C732 C 0.13444 0.34921 0.18877 0.0
H733 H 0.14213 0.38195 0.26653 0.0
H734 H 0.167 0.38268 0.21407 0.0
C735 C 0.10789 0.33006 0.19204 0.0
C736 C 0.71178 0.77017 0.22442 0.0
C737 C 0.69193 0.76156 0.25019 0.0
H738 H 0.72569 0.78867 0.17377 0.0
C739 C 0.67104 0.76635 0.24486 0.0
H740 H 0.72814 0.76684 0.22775 0.0
C741 C 0.66991 0.77926 0.21423 0.0
C742 C 0.68942 0.78722 0.18815 0.0
H743 H 0.65555 0.76016 0.26438 0.0
H744 H 0.65343 0.78236 0.21046 0.0
C745 C 0.71041 0.78267 0.19358 0.0
C746 C 0.27296 0.91561 0.24388 0.0
C747 C 0.27913 0.94187 0.24716 0.0
H748 H 0.25493 0.88065 0.21204 0.0
C749 C 0.27074 0.95279 0.22053 0.0
H750 H 0.27891 0.90658 0.26415 0.0
C751 C 0.25726 0.93801 0.1906 0.0
C752 C 0.25134 0.91186 0.18728 0.0
H753 H 0.27516 0.97295 0.22239 0.0
H754 H 0.25179 0.94707 0.16976 0.0
C755 C 0.25896 0.90067 0.21437 0.0
C756 C 0.71457 0.95216 0.22311 0.0
C757 C 0.69507 0.93997 0.2492 0.0
H758 H 0.72885 0.94841 0.1721 0.0
C759 C 0.67594 0.91345 0.24486 0.0
H760 H 0.72959 0.97255 0.2258 0.0
C761 C 0.67602 0.89952 0.21477 0.0
C762 C 0.6949 0.91198 0.18812 0.0
H763 H 0.66085 0.90345 0.26473 0.0
H764 H 0.66069 0.87929 0.21161 0.0
C765 C 0.71426 0.93837 0.19256 0.0
C766 C 0.095 0.7687 0.22914 0.0
C767 C 0.10625 0.75942 0.25401 0.0
H768 H 0.09913 0.78768 0.17897 0.0
C769 C 0.13152 0.76342 0.24751 0.0
H770 H 0.07562 0.76598 0.23339 0.0
C771 C 0.14516 0.77633 0.21666 0.0
C772 C 0.13358 0.78501 0.19153 0.0
H773 H 0.14081 0.75669 0.26633 0.0
H774 H 0.16444 0.7789 0.21196 0.0
C775 C 0.10844 0.78115 0.19807 0.0
C776 C 0.27973 0.33894 0.22763 0.0
C777 C 0.28878 0.35944 0.25257 0.0
H778 H 0.26031 0.32367 0.17774 0.0
C779 C 0.28386 0.38018 0.2465 0.0
H780 H 0.28312 0.32265 0.23153 0.0
C781 C 0.27034 0.38048 0.21597 0.0
C782 C 0.26191 0.36027 0.19073 0.0
H783 H 0.29038 0.39616 0.26538 0.0
H784 H 0.26711 0.39683 0.21158 0.0
C785 C 0.26663 0.33947 0.1969 0.0
C786 C 0.25994 0.33779 0.44057 0.0
C787 C 0.28646 0.35717 0.4375 0.0
H788 H 0.22516 0.32161 0.47246 0.0
C789 C 0.29802 0.37611 0.46453 0.0
H790 H 0.25041 0.32311 0.41998 0.0
C791 C 0.2836 0.37506 0.49468 0.0
C792 C 0.2572 0.35547 0.49786 0.0
H793 H 0.31839 0.39132 0.46283 0.0
H794 H 0.29315 0.38927 0.51581 0.0
C795 C 0.24539 0.33711 0.47031 0.0
C796 C 0.67187 0.93149 0.46032 0.0
C797 C 0.69114 0.93845 0.43397 0.0
H798 H 0.65809 0.91421 0.5118 0.0
C799 C 0.71038 0.93123 0.43836 0.0
H800 H 0.65678 0.93676 0.45757 0.0
C801 C 0.71064 0.91772 0.46876 0.0
C802 C 0.69199 0.91166 0.49566 0.0
H803 H 0.72532 0.93608 0.41831 0.0
H804 H 0.72605 0.91294 0.47193 0.0
C805 C 0.67251 0.91851 0.49116 0.0
C806 C 0.11722 0.78993 0.44194 0.0
C807 C 0.10932 0.76318 0.43891 0.0
H808 H 0.13682 0.82484 0.47365 0.0
C809 C 0.11663 0.75141 0.46568 0.0
H810 H 0.11217 0.79963 0.42153 0.0
C811 C 0.13054 0.76583 0.49564 0.0
C812 C 0.13799 0.79243 0.49886 0.0
H813 H 0.11091 0.73087 0.464 0.0
H814 H 0.13503 0.7561 0.51666 0.0
C815 C 0.13163 0.80446 0.47147 0.0
C816 C 0.3885 0.12654 0.77204 0.0
C817 C 0.36834 0.10074 0.76507 0.0
H818 H 0.40436 0.15911 0.80831 0.0
C819 C 0.34788 0.08828 0.78976 0.0
H820 H 0.40444 0.13677 0.75339 0.0
C821 C 0.34801 0.10104 0.82123 0.0
C822 C 0.36833 0.12666 0.82834 0.0
H823 H 0.33206 0.06846 0.78516 0.0
H824 H 0.3323 0.0908 0.84022 0.0
C825 C 0.38838 0.13945 0.80326 0.0
C826 C 0.96306 0.26442 0.79629 0.0
C827 C 0.95074 0.27103 0.76945 0.0
H828 H 0.95932 0.2471 0.8478 0.0
C829 C 0.92404 0.26306 0.77299 0.0
H830 H 0.98358 0.27023 0.79422 0.0
C831 C 0.91007 0.24925 0.80308 0.0
C832 C 0.92264 0.24358 0.8305 0.0
H833 H 0.91395 0.26761 0.75255 0.0
H834 H 0.8897 0.24398 0.80562 0.0
C835 C 0.9492 0.2511 0.82678 0.0
C836 C 0.78132 0.66864 0.77247 0.0
C837 C 0.77432 0.68814 0.76908 0.0
H838 H 0.80034 0.65279 0.80435 0.0
C839 C 0.78242 0.70762 0.79546 0.0
H840 H 0.77563 0.65353 0.75237 0.0
C841 C 0.79638 0.70704 0.82527 0.0
C842 C 0.80304 0.68734 0.82879 0.0
H843 H 0.77742 0.72295 0.79353 0.0
H844 H 0.8016 0.72169 0.84591 0.0
C845 C 0.79575 0.66839 0.8019 0.0
C846 C 0.79951 0.71195 0.57934 0.0
C847 C 0.77398 0.69085 0.58488 0.0
H848 H 0.83322 0.72932 0.54515 0.0
C849 C 0.76316 0.67043 0.55975 0.0
H850 H 0.80851 0.72786 0.59839 0.0
C851 C 0.77725 0.67142 0.52933 0.0
C852 C 0.80263 0.69258 0.52369 0.0
H853 H 0.74362 0.65388 0.56326 0.0
H854 H 0.76823 0.6557 0.50996 0.0
C855 C 0.81379 0.71269 0.54914 0.0
C856 C 0.34179 0.08875 0.55985 0.0
C857 C 0.36568 0.0997 0.5784 0.0
H858 H 0.32065 0.0921 0.51566 0.0
C859 C 0.38678 0.12365 0.56652 0.0
H860 H 0.32515 0.0704 0.56831 0.0
C861 C 0.38399 0.13633 0.53668 0.0
C862 C 0.36022 0.12503 0.51793 0.0
H863 H 0.40537 0.1327 0.58047 0.0
H864 H 0.40051 0.15462 0.52779 0.0
C865 C 0.33918 0.10117 0.52979 0.0
C866 C 0.94828 0.24652 0.5781 0.0
C867 C 0.95245 0.27192 0.58419 0.0
H868 H 0.93234 0.21311 0.54317 0.0
C869 C 0.94297 0.28291 0.5592 0.0
H870 H 0.95515 0.23742 0.59702 0.0
C871 C 0.93017 0.26909 0.52842 0.0
C872 C 0.92615 0.2438 0.52229 0.0
H873 H 0.94581 0.30239 0.56313 0.0
H874 H 0.9235 0.2782 0.50921 0.0
C875 C 0.93503 0.23249 0.54754 0.0
C876 C 0.33801 0.24762 0.58076 0.0
C877 C 0.35891 0.27297 0.588 0.0
H878 H 0.32136 0.21511 0.54435 0.0
C879 C 0.37978 0.28471 0.56376 0.0
H880 H 0.32175 0.23796 0.59908 0.0
C881 C 0.3794 0.2717 0.53248 0.0
C882 C 0.3584 0.24652 0.52512 0.0
H883 H 0.39617 0.30418 0.5686 0.0
H884 H 0.39541 0.2814 0.51377 0.0
C885 C 0.33787 0.23442 0.5497 0.0
C886 C 0.75947 0.10551 0.55588 0.0
C887 C 0.77191 0.09917 0.58284 0.0
H888 H 0.76306 0.12256 0.50421 0.0
C889 C 0.79864 0.10727 0.57933 0.0
H890 H 0.73892 0.09958 0.55793 0.0
C891 C 0.81253 0.12098 0.54915 0.0
C892 C 0.79985 0.1264 0.52162 0.0
H893 H 0.80883 0.10292 0.59986 0.0
H894 H 0.83294 0.12639 0.54664 0.0
C895 C 0.77325 0.11873 0.5253 0.0
C896 C 0.94248 0.66503 0.55602 0.0
C897 C 0.95015 0.68436 0.58254 0.0
H898 H 0.92369 0.65104 0.50532 0.0
C899 C 0.94248 0.70337 0.57944 0.0
H900 H 0.948 0.65006 0.55778 0.0
C901 C 0.92798 0.70344 0.55002 0.0
C902 C 0.92127 0.68478 0.52286 0.0
H903 H 0.94781 0.71832 0.59968 0.0
H904 H 0.923 0.71877 0.54771 0.0
C905 C 0.92845 0.66545 0.5262 0.0
C906 C 0.92654 0.66213 0.77196 0.0
C907 C 0.95196 0.68337 0.76635 0.0
H908 H 0.89289 0.64458 0.8062 0.0
C909 C 0.9627 0.70384 0.79142 0.0
H910 H 0.91763 0.64618 0.75294 0.0
C911 C 0.94861 0.70276 0.82186 0.0
C912 C 0.92332 0.68148 0.82751 0.0
H913 H 0.98217 0.72049 0.78783 0.0
H914 H 0.95753 0.7185 0.84122 0.0
C915 C 0.91225 0.66131 0.80215 0.0
C916 C 0.37612 0.26298 0.77667 0.0
C917 C 0.35713 0.27064 0.77332 0.0
H918 H 0.39162 0.24382 0.80881 0.0
C919 C 0.33811 0.26355 0.80006 0.0
H920 H 0.39084 0.2679 0.75628 0.0
C921 C 0.33878 0.25002 0.8303 0.0
C922 C 0.35801 0.24271 0.83375 0.0
H923 H 0.32321 0.26913 0.79811 0.0
H924 H 0.3246 0.24564 0.8513 0.0
C925 C 0.37638 0.24892 0.80643 0.0
C926 C 0.77434 0.12395 0.77426 0.0
C927 C 0.77005 0.0985 0.76831 0.0
H928 H 0.79027 0.15738 0.80915 0.0
C929 C 0.77925 0.08739 0.79353 0.0
H930 H 0.76768 0.13313 0.75516 0.0
C931 C 0.7919 0.10117 0.8244 0.0
C932 C 0.79607 0.12652 0.83038 0.0
H933 H 0.7763 0.06786 0.78971 0.0
H934 H 0.79838 0.09199 0.84377 0.0
C935 C 0.78745 0.13794 0.80491 0.0
C936 C 0.09973 0.35925 0.0328 0.0
C937 C 0.1077 0.38584 0.02785 0.0
H938 H 0.10875 0.33154 0.05623 0.0
C939 C 0.13363 0.40482 0.03672 0.0
H940 H 0.08004 0.34412 0.02595 0.0
C941 C 0.15019 0.39752 0.05381 0.0
C942 C 0.14113 0.37115 0.06209 0.0
H943 H 0.14049 0.42548 0.03301 0.0
H944 H 0.16903 0.41268 0.06363 0.0
C945 C 0.1163 0.352 0.04972 0.0
C946 C 0.69424 0.7493 0.03365 0.0
C947 C 0.66812 0.73159 0.02427 0.0
H948 H 0.72047 0.78501 0.06081 0.0
C949 C 0.64937 0.73959 0.02823 0.0
H950 H 0.70924 0.74395 0.03067 0.0
C951 C 0.65596 0.76338 0.04506 0.0
C952 C 0.68139 0.77957 0.05821 0.0
H953 H 0.6291 0.72657 0.02094 0.0
H954 H 0.64053 0.76766 0.05123 0.0
C955 C 0.7008 0.77306 0.05046 0.0
C956 C 0.30338 0.90894 0.03098 0.0
C957 C 0.31109 0.93514 0.02261 0.0
H958 H 0.27591 0.87414 0.05892 0.0
C959 C 0.29361 0.94426 0.02961 0.0
H960 H 0.3163 0.90122 0.02571 0.0
C961 C 0.27035 0.92857 0.0481 0.0
C962 C 0.26412 0.90349 0.05999 0.0
H963 H 0.29877 0.9642 0.0232 0.0
H964 H 0.25842 0.93696 0.05607 0.0
C965 C 0.28008 0.89325 0.04962 0.0
C966 C 0.3601 0.07962 0.98115 0.0
C967 C 0.38604 0.08802 0.99151 0.0
H968 H 0.33427 0.08944 0.95364 0.0
C969 C 0.4047 0.11489 0.9889 0.0
H970 H 0.34516 0.05915 0.98307 0.0
C971 C 0.39828 0.13233 0.97251 0.0
C972 C 0.37312 0.12323 0.95844 0.0
H973 H 0.42481 0.12211 -0.00304 0.0
H974 H 0.41371 0.15225 0.96745 0.0
C975 C 0.35372 0.09705 0.96474 0.0
C976 C 0.95873 0.28872 0.9862 0.0
C977 C 0.9509 0.30743 0.99134 0.0
H978 H 0.9494 0.25187 0.96275 0.0
C979 C 0.92494 0.30055 0.98284 0.0
H980 H 0.97845 0.29322 0.99277 0.0
C981 C 0.90819 0.27667 0.96593 0.0
C982 C 0.91708 0.25924 0.95744 0.0
H983 H 0.91818 0.31443 0.98672 0.0
H984 H 0.8893 0.27303 0.95638 0.0
C985 C 0.94197 0.26486 0.96944 0.0
C986 C 0.76184 0.68083 0.98611 0.0
C987 C 0.7443 0.65435 -0.00635 0.0
H988 H 0.79707 0.70823 0.95934 0.0
C989 C 0.75197 0.6357 0.98615 0.0
H990 H 0.7567 0.69573 0.99186 0.0
C991 C 0.77528 0.64297 0.96774 0.0
C992 C 0.79128 0.66898 0.95673 0.0
H993 H 0.739 0.61514 0.99189 0.0
H994 H 0.7794 0.62786 0.95905 0.0
C995 C 0.78512 0.68807 0.96784 0.0
C996 C 0.92666 0.64025 0.99091 0.0
C997 C 0.95374 0.65769 -0.0052 0.0
H998 H 0.89076 0.63324 0.96653 0.0
C999 C 0.964 0.68377 0.9836 0.0
H1000 H 0.91804 0.62008 -0.00043 0.0
C1001 C 0.94823 0.69132 0.96509 0.0
C1002 C 0.92191 0.67298 0.95749 0.0
H1003 H 0.98468 0.6978 0.98649 0.0
H1004 H 0.95724 0.71077 0.9536 0.0
C1005 C 0.91087 0.64785 0.97241 0.0
C1006 C 0.41475 0.29963 0.98376 0.0
C1007 C 0.39576 0.30648 0.993 0.0
H1008 H 0.42245 0.27189 0.95708 0.0
C1009 C 0.36917 0.28752 0.98922 0.0
H1010 H 0.43542 0.31371 0.98655 0.0
C1011 C 0.36183 0.26338 0.97307 0.0
C1012 C 0.38088 0.25774 0.9602 0.0
H1013 H 0.35403 0.29199 -0.00362 0.0
H1014 H 0.34129 0.25019 0.96736 0.0
C1015 C 0.40736 0.27549 0.96736 0.0
C1016 C 0.75891 0.08477 0.98611 0.0
C1017 C 0.74281 0.09471 -0.00267 0.0
H1018 H 0.79288 0.09208 0.95627 0.0
C1019 C 0.75215 0.12177 -0.00622 0.0
H1020 H 0.75247 0.06412 0.98871 0.0
C1021 C 0.77556 0.13786 0.97561 0.0
C1022 C 0.78997 0.12717 0.96066 0.0
H1023 H 0.74039 0.13014 0.00247 0.0
H1024 H 0.78085 0.15795 0.96996 0.0
C1025 C 0.78225 0.10086 0.96789 0.0
C1026 C 0.64186 0.91546 0.03646 0.0
C1027 C 0.66117 0.94139 0.02833 0.0
H1028 H 0.63332 0.87947 0.06214 0.0
C1029 C 0.68762 0.94875 0.03306 0.0
H1030 H 0.62129 0.90906 0.03291 0.0
C1031 C 0.69444 0.93155 0.04909 0.0
C1032 C 0.67499 0.90669 0.06084 0.0
H1033 H 0.70301 0.96844 0.02676 0.0
H1034 H 0.71482 0.93865 0.05559 0.0
C1035 C 0.64872 0.89828 0.05271 0.0
C1036 C 0.12663 0.74018 0.02693 0.0
C1037 C 0.09951 0.73065 0.02418 0.0
H1038 H 0.16306 0.76897 0.05026 0.0
C1039 C 0.08957 0.74653 0.03638 0.0
H1040 H 0.135 0.72858 0.01748 0.0
C1041 C 0.10577 0.76981 0.05478 0.0
C1042 C 0.13221 0.77768 0.06121 0.0
H1043 H 0.06886 0.73996 0.03439 0.0
H1044 H 0.09707 0.78029 0.06708 0.0
C1045 C 0.14285 0.76353 0.04529 0.0
C1046 C 0.29838 0.35305 0.03563 0.0
C1047 C 0.31472 0.37892 0.02405 0.0
H1048 H 0.26426 0.32696 0.06563 0.0
C1049 C 0.30565 0.3969 0.02704 0.0
H1050 H 0.3046 0.33864 0.03346 0.0
C1051 C 0.28228 0.39003 0.04504 0.0
C1052 C 0.26763 0.36511 0.06037 0.0
H1053 H 0.31761 0.41693 0.01805 0.0
H1054 H 0.27721 0.40504 0.05027 0.0
C1055 C 0.27507 0.34623 0.05368 0.0
C1056 C 0.76032 0.68742 0.36837 0.0
C1057 C 0.76964 0.71342 0.35747 0.0
H1058 H 0.76854 0.66112 0.39763 0.0
C1059 C 0.79659 0.73155 0.36103 0.0
H1060 H 0.73977 0.67288 0.36574 0.0
C1061 C 0.81315 0.72465 0.37892 0.0
C1062 C 0.80305 0.69952 0.39355 0.0
H1063 H 0.8045 0.75169 0.35259 0.0
H1064 H 0.83311 0.73974 0.38464 0.0
C1065 C 0.77688 0.68055 0.38625 0.0
C1066 C 0.30543 0.07364 0.36381 0.0
C1067 C 0.32446 0.06694 0.35419 0.0
H1068 H 0.29749 0.10043 0.39259 0.0
C1069 C 0.35102 0.08552 0.35934 0.0
H1070 H 0.28478 0.05983 0.36002 0.0
C1071 C 0.35821 0.10896 0.37734 0.0
C1072 C 0.33901 0.11422 0.39058 0.0
H1073 H 0.36617 0.08113 0.35196 0.0
H1074 H 0.37864 0.12173 0.38413 0.0
C1075 C 0.31266 0.09706 0.38205 0.0
C1076 C 0.97014 0.24883 0.35903 0.0
C1077 C 0.97957 0.27592 0.35575 0.0
H1078 H 0.9413 0.21258 0.3825 0.0
C1079 C 0.96349 0.28587 0.36694 0.0
H1080 H 0.98189 0.24045 0.35032 0.0
C1081 C 0.94007 0.26976 0.38497 0.0
C1082 C 0.93229 0.24341 0.39203 0.0
H1083 H 0.97 0.30656 0.36451 0.0
H1084 H 0.92945 0.27853 0.39663 0.0
C1085 C 0.94666 0.2327 0.37701 0.0
C1086 C 0.07983 0.45424 0.31671 0.0
C1087 C 0.06062 0.4282 0.32451 0.0
H1088 H 0.08832 0.49016 0.29084 0.0
C1089 C 0.03418 0.42049 0.31881 0.0
H1090 H 0.10039 0.46091 0.32101 0.0
C1091 C 1.02733 0.43747 0.30218 0.0
C1092 C 0.04676 0.46246 0.29085 0.0
H1093 H 1.01886 0.40071 0.32482 0.0
H1094 H 1.00702 0.43014 0.29502 0.0
C1095 C 0.07295 0.47121 0.2999 0.0
C1096 C 0.59176 0.63235 0.32029 0.0
C1097 C 0.618 0.6398 0.32792 0.0
H1098 H 0.55638 0.605 0.29317 0.0
C1099 C 0.62665 0.62198 0.32055 0.0
H1100 H 0.5844 0.64555 0.32584 0.0
C1101 C 0.61041 0.59862 0.30239 0.0
C1102 C 0.58524 0.59263 0.29119 0.0
H1103 H 0.64661 0.62693 0.32638 0.0
H1104 H 0.61842 0.58643 0.29406 0.0
C1105 C 0.57553 0.60896 0.30196 0.0
C1106 C 0.42238 1.01795 0.31384 0.0
C1107 C 0.40485 0.99199 0.32405 0.0
H1108 H 0.45792 0.04377 0.28626 0.0
C1109 C 0.413 0.97328 0.32114 0.0
H1110 H 0.4169 0.03292 0.316 0.0
C1111 C 0.43677 0.97967 0.30457 0.0
C1112 C 0.4528 1.00486 0.29064 0.0
H1113 H 0.40012 0.95316 0.32909 0.0
H1114 H 0.44118 0.96421 0.29925 0.0
C1115 C 0.44611 0.0243 0.29727 0.0
C1116 C 0.62159 1.0108 0.32007 0.0
C1117 C 0.61395 0.98422 0.32409 0.0
H1118 H 0.61213 0.03855 0.29787 0.0
C1119 C 0.58812 0.96516 0.31493 0.0
H1120 H 0.64119 0.02599 0.32718 0.0
C1121 C 0.57136 0.97244 0.2984 0.0
C1122 C 0.58009 0.99888 0.291 0.0
H1123 H 0.58151 0.94449 0.31793 0.0
H1124 H 0.55264 0.95728 0.28824 0.0
C1125 C 0.6048 1.01804 0.30375 0.0
C1126 C 0.02956 0.62011 0.32122 0.0
C1127 C 0.05563 0.63642 0.33212 0.0
H1128 H 1.00287 0.58596 0.29151 0.0
C1129 C 0.07348 0.62728 0.32817 0.0
H1130 H 1.01524 0.62639 0.32415 0.0
C1131 C 0.06623 0.60387 0.30987 0.0
C1132 C 0.04104 0.58926 0.2952 0.0
H1133 H 0.09367 0.63922 0.33661 0.0
H1134 H 0.0811 0.59876 0.30389 0.0
C1135 C 1.02235 0.59676 0.30288 0.0
C1136 C 0.4276 0.41942 0.31824 0.0
C1137 C 0.41211 0.43001 0.32961 0.0
H1138 H 0.46104 0.42569 0.28797 0.0
C1139 C 0.42203 0.45715 0.32584 0.0
H1140 H 0.42072 0.39868 0.32105 0.0
C1141 C 0.44536 0.47269 0.30725 0.0
C1142 C 0.45909 0.46132 0.29211 0.0
H1143 H 0.41073 0.46601 0.33467 0.0
H1144 H 0.45109 0.49288 0.30149 0.0
C1145 C 0.45087 0.43494 0.29961 0.0
C1146 C 0.31951 0.25619 0.36366 0.0
C1147 C 0.3375 0.28323 0.36088 0.0
H1148 H 0.31162 0.21935 0.38573 0.0
C1149 C 0.3635 0.29257 0.37183 0.0
H1150 H 0.29938 0.24827 0.35515 0.0
C1151 C 0.37052 0.27586 0.38892 0.0
C1152 C 0.35173 0.24949 0.3953 0.0
H1153 H 0.37794 0.3132 0.36979 0.0
H1154 H 0.38997 0.28414 0.4003 0.0
C1155 C 0.32659 0.23947 0.3807 0.0
C1156 C 0.79762 0.06987 0.36867 0.0
C1157 C 0.77171 0.06312 0.36006 0.0
H1158 H 0.8332 0.09718 0.39546 0.0
C1159 C 0.76393 0.08185 0.36543 0.0
H1160 H 0.80434 0.05598 0.36465 0.0
C1161 C 0.78068 0.10559 0.38248 0.0
C1162 C 0.80552 0.11109 0.39453 0.0
H1163 H 0.74424 0.07744 0.35881 0.0
H1164 H 0.77328 0.11858 0.3893 0.0
C1165 C 0.81437 0.09365 0.38587 0.0
C1166 C 0.97768 0.73848 0.37182 0.0
C1167 C 0.98405 0.71901 0.36332 0.0
H1168 H 0.95052 0.74725 0.39789 0.0
C1169 C 0.9648 0.69259 0.36775 0.0
H1170 H 0.99199 0.75904 0.3685 0.0
C1171 C 0.94086 0.68592 0.38384 0.0
C1172 C 0.93572 0.7055 0.39599 0.0
H1173 H 0.96889 0.67709 0.36114 0.0
H1174 H 0.92745 0.66553 0.39008 0.0
C1175 C 0.95375 0.73177 0.38816 0.0
C1176 C 0.47061 0.07286 0.69805 0.0
C1177 C 0.44442 0.05488 0.68891 0.0
H1178 H 0.50485 0.07913 0.7267 0.0
C1179 C 0.43472 0.02812 0.69545 0.0
H1180 H 0.47877 0.09362 0.69318 0.0
C1181 C 0.44982 0.01988 0.7142 0.0
C1182 C 0.4749 0.03822 0.72677 0.0
H1183 H 0.41476 1.01371 0.68848 0.0
H1184 H 0.44099 0.99945 0.72172 0.0
C1185 C 0.48572 0.06458 0.71691 0.0
C1186 C 0.9763 0.4022 0.70241 0.0
C1187 C 0.99537 0.39523 0.69425 0.0
H1188 H 0.96812 0.42976 0.72868 0.0
C1189 C 1.02187 0.41383 0.69989 0.0
H1190 H 0.9557 0.38841 0.69818 0.0
C1191 C 0.02892 0.43765 0.71673 0.0
C1192 C 1.00964 0.44337 0.72835 0.0
H1193 H 0.03708 0.40926 0.69361 0.0
H1194 H 0.04928 0.45054 0.72374 0.0
C1195 C 0.98339 0.42606 0.71943 0.0
C1196 C 0.63155 0.62042 0.70186 0.0
C1197 C 0.64902 0.61179 0.69213 0.0
H1198 H 0.59613 0.61123 0.72937 0.0
C1199 C 0.64086 0.58499 0.69589 0.0
H1200 H 0.63703 0.64083 0.69903 0.0
C1201 C 0.61715 0.56793 0.71284 0.0
C1202 C 0.60121 0.57736 0.72631 0.0
H1203 H 0.65369 0.57758 0.68834 0.0
H1204 H 0.61275 0.54815 0.71883 0.0
C1205 C 0.60788 0.60336 0.71878 0.0
C1206 C 0.69599 0.75291 0.65293 0.0
C1207 C 0.72208 0.76263 0.66368 0.0
H1208 H 0.66927 0.7605 0.62361 0.0
C1209 C 0.7399 0.78965 0.66012 0.0
H1210 H 0.68169 0.73229 0.6556 0.0
C1211 C 0.73262 0.80589 0.6422 0.0
C1212 C 0.70744 0.79536 0.62754 0.0
H1213 H 0.76009 0.79786 0.6685 0.0
H1214 H 0.74748 0.82591 0.63639 0.0
C1215 C 0.68875 0.76914 0.63499 0.0
C1216 C 0.30063 0.95734 0.64852 0.0
C1217 C 0.29228 0.97496 0.65875 0.0
H1218 H 0.2908 0.92171 0.62086 0.0
C1219 C 0.26544 0.96684 0.65588 0.0
H1220 H 0.32106 0.9628 0.65061 0.0
C1221 C 0.24801 0.94302 0.63931 0.0
C1222 C 0.25708 0.92691 0.62531 0.0
H1223 H 0.25826 0.97978 0.66383 0.0
H1224 H 0.22815 0.93863 0.63402 0.0
C1225 C 0.2832 0.93357 0.63191 0.0
C1226 C 0.09215 0.35072 0.65045 0.0
C1227 C 0.07627 0.32472 0.66182 0.0
H1228 H 0.12604 0.37748 0.62059 0.0
C1229 C 0.08589 0.30721 0.65859 0.0
H1230 H 0.0855 0.36479 0.65284 0.0
C1231 C 0.10937 0.31466 0.64054 0.0
C1232 C 0.12354 0.33968 0.62538 0.0
H1233 H 0.07429 0.2871 0.66744 0.0
H1234 H 0.11488 0.29998 0.63513 0.0
C1235 C 0.11556 0.35812 0.63234 0.0
C1236 C 0.25582 0.30075 0.65378 0.0
C1237 C 0.28196 0.31936 0.66226 0.0
H1238 H 0.22085 0.29322 0.62596 0.0
C1239 C 0.29084 0.34594 0.6554 0.0
H1240 H 0.24827 0.28012 0.65893 0.0
C1241 C 0.27496 0.35338 0.63702 0.0
C1242 C 0.24989 0.33442 0.62512 0.0
H1243 H 0.31073 0.36081 0.66187 0.0
H1244 H 0.28315 0.37369 0.62919 0.0
C1245 C 0.23993 0.30823 0.63528 0.0
C1246 C 0.70041 0.957 0.6515 0.0
C1247 C 0.72691 0.97533 0.65772 0.0
H1248 H 0.67299 0.92062 0.62689 0.0
C1249 C 0.74587 0.96819 0.64977 0.0
H1250 H 0.68527 0.96171 0.65761 0.0
C1251 C 0.73874 0.94444 0.6324 0.0
C1252 C 0.71254 0.92744 0.62291 0.0
H1253 H 0.76647 0.98178 0.65444 0.0
H1254 H 0.75396 0.94061 0.62338 0.0
C1255 C 0.69331 0.93329 0.6343 0.0
C1256 C 0.08179 0.79088 0.64978 0.0
C1257 C 0.07534 0.76507 0.65852 0.0
H1258 H 0.10903 0.82662 0.62344 0.0
C1259 C 0.09453 0.75779 0.65427 0.0
H1260 H 0.06754 0.79721 0.65294 0.0
C1261 C 0.11848 0.7749 0.63811 0.0
C1262 C 0.1237 0.79957 0.6257 0.0
H1263 H 0.09037 0.73821 0.66106 0.0
H1264 H 0.13184 0.76782 0.632 0.0
C1265 C 0.10575 0.80795 0.63337 0.0
C1266 C 0.98405 0.58296 0.69151 0.0
C1267 C 1.0023 0.6099 0.68829 0.0
H1268 H 0.97555 0.54631 0.71491 0.0
C1269 C 0.02822 0.61907 0.6995 0.0
H1270 H 0.96399 0.57515 0.68279 0.0
C1271 C 0.03485 0.60238 0.71747 0.0
C1272 C 1.01574 0.57623 0.72446 0.0
H1273 H 0.04283 0.63962 0.69715 0.0
H1274 H 0.05419 0.61061 0.7292 0.0
C1275 C 0.99074 0.56626 0.70943 0.0
C1276 C 0.43173 0.41509 0.70092 0.0
C1277 C 0.43873 0.39567 0.69682 0.0
H1278 H 0.44232 0.45275 0.72273 0.0
C1279 C 0.46455 0.402 0.70524 0.0
H1280 H 0.41215 0.41103 0.69437 0.0
C1281 C 0.48195 0.4261 0.7212 0.0
C1282 C 0.47388 0.44433 0.72875 0.0
H1283 H 0.47068 0.38757 0.70215 0.0
H1284 H 0.50065 0.42932 0.73091 0.0
C1285 C 0.44916 0.43919 0.71666 0.0
C1286 C 0.63105 0.01941 0.70305 0.0
C1287 C 0.64663 0.04528 0.69101 0.0
H1288 H 0.59753 0.99285 0.73367 0.0
C1289 C 0.63681 0.06264 0.69389 0.0
H1290 H 0.63787 1.00545 0.70096 0.0
C1291 C 0.61346 0.05524 0.71223 0.0
C1292 C 0.59962 0.03041 0.72803 0.0
H1293 H 0.64818 0.08264 0.68452 0.0
H1294 H 0.60778 0.06983 0.71728 0.0
C1295 C 0.60778 1.01206 0.72147 0.0
loop_
_geom_bond_atom_site_label_1
_geom_bond_atom_site_label_2
_geom_bond_distance
_geom_bond_site_symmetry_2
_ccdc_geom_bond_type
O0 Cd1 2.223 . S
O0 C8 1.315 . S
Cd1 O0 2.223 . S
Cd1 O4 2.297 . S
Cd1 O5 2.439 . S
Cd1 O11 2.240 1_554 S
Cd2 O3 2.240 . S
Cd2 O10 2.223 1_554 S
Cd2 O12 2.297 1_554 S
Cd2 O13 2.439 1_554 S
O3 Cd2 2.240 . S
O3 C8 1.279 1_655 S
O4 Cd1 2.297 . S
O4 C6 1.247 . S
O5 Cd1 2.439 . S
O5 C6 1.208 . S
C6 O4 1.247 . S
C6 O5 1.208 . S
C7 O12 1.247 . S
C7 O13 1.208 . S
C8 O0 1.315 . S
C8 O3 1.279 1_455 S
C9 O10 1.315 . S
C9 O11 1.279 1_655 S
O10 Cd2 2.223 1_556 S
O10 C9 1.315 . S
O11 Cd1 2.240 1_556 S
O11 C9 1.279 1_455 S
O12 Cd2 2.297 1_556 S
O12 C7 1.247 . S
O13 Cd2 2.439 1_556 S
O13 C7 1.208 . S
O14 Cd15 2.223 . S
O14 C22 1.315 . S
Cd15 O14 2.223 . S
Cd15 O18 2.297 . S
Cd15 O19 2.439 . S
Cd15 O25 2.240 1_554 S
Cd16 O17 2.240 . S
Cd16 O24 2.223 1_554 S
Cd16 O26 2.297 1_554 S
Cd16 O27 2.439 1_554 S
O17 Cd16 2.240 . S
O17 C22 1.279 . S
O18 Cd15 2.297 . S
O18 C20 1.247 . S
O19 Cd15 2.439 . S
O19 C20 1.208 . S
C20 O18 1.247 . S
C20 O19 1.208 . S
C21 O26 1.247 . S
C21 O27 1.208 . S
C22 O14 1.315 . S
C22 O17 1.279 . S
C23 O24 1.315 . S
C23 O25 1.279 . S
O24 Cd16 2.223 1_556 S
O24 C23 1.315 . S
O25 Cd15 2.240 1_556 S
O25 C23 1.279 . S
O26 Cd16 2.297 1_556 S
O26 C21 1.247 . S
O27 Cd16 2.439 1_556 S
O27 C21 1.208 . S
O28 Cd29 2.223 1_556 S
O28 C36 1.315 . S
Cd29 O28 2.223 1_554 S
Cd29 O32 2.297 1_554 S
Cd29 O33 2.439 1_554 S
Cd29 O39 2.240 . S
Cd30 O31 2.240 1_554 S
Cd30 O38 2.223 . S
Cd30 O40 2.297 . S
Cd30 O41 2.439 . S
O31 Cd30 2.240 1_556 S
O31 C36 1.279 1_565 S
O32 Cd29 2.297 1_556 S
O32 C34 1.247 . S
O33 Cd29 2.439 1_556 S
O33 C34 1.208 . S
C34 O32 1.247 . S
C34 O33 1.208 . S
C35 O40 1.247 . S
C35 O41 1.208 . S
C36 O28 1.315 . S
C36 O31 1.279 1_545 S
C37 O38 1.315 . S
C37 O39 1.279 1_565 S
O38 Cd30 2.223 . S
O38 C37 1.315 . S
O39 Cd29 2.240 . S
O39 C37 1.279 1_545 S
O40 Cd30 2.297 . S
O40 C35 1.247 . S
O41 Cd30 2.439 . S
O41 C35 1.208 . S
O42 Cd43 2.223 1_556 S
O42 C50 1.315 . S
Cd43 O42 2.223 1_554 S
Cd43 O46 2.297 1_554 S
Cd43 O47 2.439 1_554 S
Cd43 O53 2.240 . S
Cd44 O45 2.240 1_554 S
Cd44 O52 2.223 . S
Cd44 O54 2.297 . S
Cd44 O55 2.439 . S
O45 Cd44 2.240 1_556 S
O45 C50 1.279 1_455 S
O46 Cd43 2.297 1_556 S
O46 C48 1.247 . S
O47 Cd43 2.439 1_556 S
O47 C48 1.208 . S
C48 O46 1.247 . S
C48 O47 1.208 . S
C49 O54 1.247 . S
C49 O55 1.208 . S
C50 O42 1.315 . S
C50 O45 1.279 1_655 S
C51 O52 1.315 . S
C51 O53 1.279 1_455 S
O52 Cd44 2.223 . S
O52 C51 1.315 . S
O53 Cd43 2.240 . S
O53 C51 1.279 1_655 S
O54 Cd44 2.297 . S
O54 C49 1.247 . S
O55 Cd44 2.439 . S
O55 C49 1.208 . S
O56 Cd57 2.223 1_556 S
O56 C64 1.315 . S
Cd57 O56 2.223 1_554 S
Cd57 O60 2.297 1_554 S
Cd57 O61 2.439 1_554 S
Cd57 O67 2.240 . S
Cd58 O59 2.240 1_554 S
Cd58 O66 2.223 . S
Cd58 O68 2.297 . S
Cd58 O69 2.439 . S
O59 Cd58 2.240 1_556 S
O59 C64 1.279 . S
O60 Cd57 2.297 1_556 S
O60 C62 1.247 . S
O61 Cd57 2.439 1_556 S
O61 C62 1.208 . S
C62 O60 1.247 . S
C62 O61 1.208 . S
C63 O68 1.247 . S
C63 O69 1.208 . S
C64 O56 1.315 . S
C64 O59 1.279 . S
C65 O66 1.315 . S
C65 O67 1.279 . S
O66 Cd58 2.223 . S
O66 C65 1.315 . S
O67 Cd57 2.240 . S
O67 C65 1.279 . S
O68 Cd58 2.297 . S
O68 C63 1.247 . S
O69 Cd58 2.439 . S
O69 C63 1.208 . S
O70 Cd71 2.223 . S
O70 C78 1.315 . S
Cd71 O70 2.223 . S
Cd71 O74 2.297 . S
Cd71 O75 2.439 . S
Cd71 O81 2.240 1_554 S
Cd72 O73 2.240 . S
Cd72 O80 2.223 1_554 S
Cd72 O82 2.297 1_554 S
Cd72 O83 2.439 1_554 S
O73 Cd72 2.240 . S
O73 C78 1.279 1_545 S
O74 Cd71 2.297 . S
O74 C76 1.247 . S
O75 Cd71 2.439 . S
O75 C76 1.208 . S
C76 O74 1.247 . S
C76 O75 1.208 . S
C77 O82 1.247 . S
C77 O83 1.208 . S
C78 O70 1.315 . S
C78 O73 1.279 1_565 S
C79 O80 1.315 . S
C79 O81 1.279 1_545 S
O80 Cd72 2.223 1_556 S
O80 C79 1.315 . S
O81 Cd71 2.240 1_556 S
O81 C79 1.279 1_565 S
O82 Cd72 2.297 1_556 S
O82 C77 1.247 . S
O83 Cd72 2.439 1_556 S
O83 C77 1.208 . S
O84 Cd85 2.223 . S
O84 C92 1.315 . S
Cd85 O84 2.223 . S
Cd85 O88 2.297 . S
Cd85 O89 2.439 . S
Cd85 O95 2.240 . S
Cd86 O87 2.240 . S
Cd86 O94 2.223 . S
Cd86 O96 2.297 . S
Cd86 O97 2.439 . S
O87 Cd86 2.240 . S
O87 C92 1.279 . S
O88 Cd85 2.297 . S
O88 C90 1.247 . S
O89 Cd85 2.439 . S
O89 C90 1.208 . S
C90 O88 1.247 . S
C90 O89 1.208 . S
C91 O96 1.247 . S
C91 O97 1.208 . S
C92 O84 1.315 . S
C92 O87 1.279 . S
C93 O94 1.315 . S
C93 O95 1.279 . S
O94 Cd86 2.223 . S
O94 C93 1.315 . S
O95 Cd85 2.240 . S
O95 C93 1.279 . S
O96 Cd86 2.297 . S
O96 C91 1.247 . S
O97 Cd86 2.439 . S
O97 C91 1.208 . S
O98 Cd99 2.223 . S
O98 C106 1.315 . S
Cd99 O98 2.223 . S
Cd99 O102 2.297 1_565 S
Cd99 O103 2.439 1_565 S
Cd99 O109 2.240 . S
Cd100 O101 2.240 . S
Cd100 O108 2.223 . S
Cd100 O110 2.297 . S
Cd100 O111 2.439 . S
O101 Cd100 2.240 . S
O101 C106 1.279 . S
O102 Cd99 2.297 1_545 S
O102 C104 1.247 . S
O103 Cd99 2.439 1_545 S
O103 C104 1.208 . S
C104 O102 1.247 . S
C104 O103 1.208 . S
C105 O110 1.247 . S
C105 O111 1.208 . S
C106 O98 1.315 . S
C106 O101 1.279 . S
C107 O108 1.315 . S
C107 O109 1.279 . S
O108 Cd100 2.223 . S
O108 C107 1.315 . S
O109 Cd99 2.240 . S
O109 C107 1.279 . S
O110 Cd100 2.297 . S
O110 C105 1.247 . S
O111 Cd100 2.439 . S
O111 C105 1.208 . S
O112 Cd113 2.223 . S
O112 C120 1.315 . S
Cd113 O112 2.223 . S
Cd113 O116 2.297 . S
Cd113 O117 2.439 . S
Cd113 O123 2.240 . S
Cd114 O115 2.240 . S
Cd114 O122 2.223 . S
Cd114 O124 2.297 1_455 S
Cd114 O125 2.439 1_455 S
O115 Cd114 2.240 . S
O115 C120 1.279 . S
O116 Cd113 2.297 . S
O116 C118 1.247 . S
O117 Cd113 2.439 . S
O117 C118 1.208 . S
C118 O116 1.247 . S
C118 O117 1.208 . S
C119 O124 1.247 . S
C119 O125 1.208 . S
C120 O112 1.315 . S
C120 O115 1.279 . S
C121 O122 1.315 . S
C121 O123 1.279 . S
O122 Cd114 2.223 . S
O122 C121 1.315 . S
O123 Cd113 2.240 . S
O123 C121 1.279 . S
O124 Cd114 2.297 1_655 S
O124 C119 1.247 . S
O125 Cd114 2.439 1_655 S
O125 C119 1.208 . S
O126 Cd127 2.223 . S
O126 C134 1.315 . S
Cd127 O126 2.223 . S
Cd127 O130 2.297 . S
Cd127 O131 2.439 . S
Cd127 O137 2.240 . S
Cd128 O129 2.240 . S
Cd128 O136 2.223 . S
Cd128 O138 2.297 1_565 S
Cd128 O139 2.439 1_565 S
O129 Cd128 2.240 . S
O129 C134 1.279 . S
O130 Cd127 2.297 . S
O130 C132 1.247 . S
O131 Cd127 2.439 . S
O131 C132 1.208 . S
C132 O130 1.247 . S
C132 O131 1.208 . S
C133 O138 1.247 . S
C133 O139 1.208 . S
C134 O126 1.315 . S
C134 O129 1.279 . S
C135 O136 1.315 . S
C135 O137 1.279 . S
O136 Cd128 2.223 . S
O136 C135 1.315 . S
O137 Cd127 2.240 . S
O137 C135 1.279 . S
O138 Cd128 2.297 1_545 S
O138 C133 1.247 . S
O139 Cd128 2.439 1_545 S
O139 C133 1.208 . S
O140 Cd141 2.223 . S
O140 C148 1.315 . S
Cd141 O140 2.223 . S
Cd141 O144 2.297 . S
Cd141 O145 2.439 . S
Cd141 O151 2.240 . S
Cd142 O143 2.240 . S
Cd142 O150 2.223 . S
Cd142 O152 2.297 1_455 S
Cd142 O153 2.439 1_455 S
O143 Cd142 2.240 . S
O143 C148 1.279 . S
O144 Cd141 2.297 . S
O144 C146 1.247 . S
O145 Cd141 2.439 . S
O145 C146 1.208 . S
C146 O144 1.247 . S
C146 O145 1.208 . S
C147 O152 1.247 . S
C147 O153 1.208 . S
C148 O140 1.315 . S
C148 O143 1.279 . S
C149 O150 1.315 . S
C149 O151 1.279 . S
O150 Cd142 2.223 . S
O150 C149 1.315 . S
O151 Cd141 2.240 . S
O151 C149 1.279 . S
O152 Cd142 2.297 1_655 S
O152 C147 1.247 . S
O153 Cd142 2.439 1_655 S
O153 C147 1.208 . S
O154 Cd155 2.223 . S
O154 C162 1.315 . S
Cd155 O154 2.223 . S
Cd155 O158 2.297 . S
Cd155 O159 2.439 . S
Cd155 O165 2.240 . S
Cd156 O157 2.240 . S
Cd156 O164 2.223 . S
Cd156 O166 2.297 . S
Cd156 O167 2.439 . S
O157 Cd156 2.240 . S
O157 C162 1.279 . S
O158 Cd155 2.297 . S
O158 C160 1.247 . S
O159 Cd155 2.439 . S
O159 C160 1.208 . S
C160 O158 1.247 . S
C160 O159 1.208 . S
C161 O166 1.247 . S
C161 O167 1.208 . S
C162 O154 1.315 . S
C162 O157 1.279 . S
C163 O164 1.315 . S
C163 O165 1.279 . S
O164 Cd156 2.223 . S
O164 C163 1.315 . S
O165 Cd155 2.240 . S
O165 C163 1.279 . S
O166 Cd156 2.297 . S
O166 C161 1.247 . S
O167 Cd156 2.439 . S
O167 C161 1.208 . S
O168 Cd169 2.223 . S
O168 C176 1.315 . S
Cd169 O168 2.223 . S
Cd169 O172 2.297 . S
Cd169 O173 2.439 . S
Cd169 O179 2.240 . S
Cd170 O171 2.240 . S
Cd170 O178 2.223 . S
Cd170 O180 2.297 1_545 S
Cd170 O181 2.439 1_545 S
O171 Cd170 2.240 . S
O171 C176 1.279 . S
O172 Cd169 2.297 . S
O172 C174 1.247 . S
O173 Cd169 2.439 . S
O173 C174 1.208 . S
C174 O172 1.247 . S
C174 O173 1.208 . S
C175 O180 1.247 . S
C175 O181 1.208 . S
C176 O168 1.315 . S
C176 O171 1.279 . S
C177 O178 1.315 . S
C177 O179 1.279 . S
O178 Cd170 2.223 . S
O178 C177 1.315 . S
O179 Cd169 2.240 . S
O179 C177 1.279 . S
O180 Cd170 2.297 1_565 S
O180 C175 1.247 . S
O181 Cd170 2.439 1_565 S
O181 C175 1.208 . S
O182 Cd183 2.223 . S
O182 C190 1.315 . S
Cd183 O182 2.223 . S
Cd183 O186 2.297 . S
Cd183 O187 2.439 . S
Cd183 O193 2.240 . S
Cd184 O185 2.240 . S
Cd184 O192 2.223 . S
Cd184 O194 2.297 1_655 S
Cd184 O195 2.439 1_655 S
O185 Cd184 2.240 . S
O185 C190 1.279 . S
O186 Cd183 2.297 . S
O186 C188 1.247 . S
O187 Cd183 2.439 . S
O187 C188 1.208 . S
C188 O186 1.247 . S
C188 O187 1.208 . S
C189 O194 1.247 . S
C189 O195 1.208 . S
C190 O182 1.315 . S
C190 O185 1.279 . S
C191 O192 1.315 . S
C191 O193 1.279 . S
O192 Cd184 2.223 . S
O192 C191 1.315 . S
O193 Cd183 2.240 . S
O193 C191 1.279 . S
O194 Cd184 2.297 1_455 S
O194 C189 1.247 . S
O195 Cd184 2.439 1_455 S
O195 C189 1.208 . S
O196 Cd197 2.223 . S
O196 C204 1.315 . S
Cd197 O196 2.223 . S
Cd197 O200 2.297 . S
Cd197 O201 2.439 . S
Cd197 O207 2.240 . S
Cd198 O199 2.240 . S
Cd198 O206 2.223 . S
Cd198 O208 2.297 . S
Cd198 O209 2.439 . S
O199 Cd198 2.240 . S
O199 C204 1.279 . S
O200 Cd197 2.297 . S
O200 C202 1.247 . S
O201 Cd197 2.439 . S
O201 C202 1.208 . S
C202 O200 1.247 . S
C202 O201 1.208 . S
C203 O208 1.247 . S
C203 O209 1.208 . S
C204 O196 1.315 . S
C204 O199 1.279 . S
C205 O206 1.315 . S
C205 O207 1.279 . S
O206 Cd198 2.223 . S
O206 C205 1.315 . S
O207 Cd197 2.240 . S
O207 C205 1.279 . S
O208 Cd198 2.297 . S
O208 C203 1.247 . S
O209 Cd198 2.439 . S
O209 C203 1.208 . S
O210 Cd211 2.223 . S
O210 C218 1.315 . S
Cd211 O210 2.223 . S
Cd211 O214 2.297 . S
Cd211 O215 2.439 . S
Cd211 O221 2.240 . S
Cd212 O213 2.240 . S
Cd212 O220 2.223 . S
Cd212 O222 2.297 . S
Cd212 O223 2.439 . S
O213 Cd212 2.240 . S
O213 C218 1.279 . S
O214 Cd211 2.297 . S
O214 C216 1.247 . S
O215 Cd211 2.439 . S
O215 C216 1.208 . S
C216 O214 1.247 . S
C216 O215 1.208 . S
C217 O222 1.247 . S
C217 O223 1.208 . S
C218 O210 1.315 . S
C218 O213 1.279 . S
C219 O220 1.315 . S
C219 O221 1.279 . S
O220 Cd212 2.223 . S
O220 C219 1.315 . S
O221 Cd211 2.240 . S
O221 C219 1.279 . S
O222 Cd212 2.297 . S
O222 C217 1.247 . S
O223 Cd212 2.439 . S
O223 C217 1.208 . S
O224 Cd225 2.223 . S
O224 C232 1.315 . S
Cd225 O224 2.223 . S
Cd225 O228 2.297 1_545 S
Cd225 O229 2.439 1_545 S
Cd225 O235 2.240 . S
Cd226 O227 2.240 . S
Cd226 O234 2.223 . S
Cd226 O236 2.297 . S
Cd226 O237 2.439 . S
O227 Cd226 2.240 . S
O227 C232 1.279 . S
O228 Cd225 2.297 1_565 S
O228 C230 1.247 . S
O229 Cd225 2.439 1_565 S
O229 C230 1.208 . S
C230 O228 1.247 . S
C230 O229 1.208 . S
C231 O236 1.247 . S
C231 O237 1.208 . S
C232 O224 1.315 . S
C232 O227 1.279 . S
C233 O234 1.315 . S
C233 O235 1.279 . S
O234 Cd226 2.223 . S
O234 C233 1.315 . S
O235 Cd225 2.240 . S
O235 C233 1.279 . S
O236 Cd226 2.297 . S
O236 C231 1.247 . S
O237 Cd226 2.439 . S
O237 C231 1.208 . S
O238 Cd239 2.223 . S
O238 C246 1.315 . S
Cd239 O238 2.223 . S
Cd239 O242 2.297 . S
Cd239 O243 2.439 . S
Cd239 O249 2.240 . S
Cd240 O241 2.240 . S
Cd240 O248 2.223 . S
Cd240 O250 2.297 1_655 S
Cd240 O251 2.439 1_655 S
O241 Cd240 2.240 . S
O241 C246 1.279 . S
O242 Cd239 2.297 . S
O242 C244 1.247 . S
O243 Cd239 2.439 . S
O243 C244 1.208 . S
C244 O242 1.247 . S
C244 O243 1.208 . S
C245 O250 1.247 . S
C245 O251 1.208 . S
C246 O238 1.315 . S
C246 O241 1.279 . S
C247 O248 1.315 . S
C247 O249 1.279 . S
O248 Cd240 2.223 . S
O248 C247 1.315 . S
O249 Cd239 2.240 . S
O249 C247 1.279 . S
O250 Cd240 2.297 1_455 S
O250 C245 1.247 . S
O251 Cd240 2.439 1_455 S
O251 C245 1.208 . S
H252 C258 0.930 . S
H253 C261 0.931 . S
H254 C263 0.931 . S
H255 C265 0.930 . S
H256 C267 0.930 . S
H257 C269 0.931 . S
C258 H252 0.930 . S
C258 C259 1.380 . S
C258 C260 1.394 . S
C259 C258 1.380 . S
C259 C263 1.382 . S
C260 C258 1.394 . S
C260 C261 1.400 . S
C261 H253 0.931 . S
C261 C260 1.400 . S
C261 C262 1.375 . S
C262 C261 1.375 . S
C262 C263 1.415 . S
C262 C264 1.501 . S
C263 H254 0.931 . S
C263 C259 1.382 . S
C263 C262 1.415 . S
C264 C262 1.501 . S
C264 C265 1.384 . S
C264 C269 1.408 . S
C265 H255 0.930 . S
C265 C264 1.384 . S
C265 C266 1.389 . S
C266 C265 1.389 . S
C266 C267 1.405 . S
C267 H256 0.930 . S
C267 C266 1.405 . S
C267 C268 1.364 . S
C268 C267 1.364 . S
C268 C269 1.400 . S
C269 H257 0.931 . S
C269 C264 1.408 . S
C269 C268 1.400 . S
H270 C276 0.930 . S
H271 C279 0.931 . S
H272 C281 0.931 . S
H273 C283 0.930 . S
H274 C285 0.930 . S
H275 C287 0.931 . S
C276 H270 0.930 . S
C276 C277 1.380 . S
C276 C278 1.394 . S
C277 C276 1.380 . S
C277 C281 1.382 . S
C278 C276 1.394 . S
C278 C279 1.400 . S
C279 H271 0.931 . S
C279 C278 1.400 . S
C279 C280 1.375 . S
C280 C279 1.375 . S
C280 C281 1.415 . S
C280 C282 1.501 . S
C281 H272 0.931 . S
C281 C277 1.382 . S
C281 C280 1.415 . S
C282 C280 1.501 . S
C282 C283 1.384 . S
C282 C287 1.408 . S
C283 H273 0.930 . S
C283 C282 1.384 . S
C283 C284 1.389 . S
C284 C283 1.389 . S
C284 C285 1.405 . S
C285 H274 0.930 . S
C285 C284 1.405 . S
C285 C286 1.364 . S
C286 C285 1.364 . S
C286 C287 1.400 . S
C287 H275 0.931 . S
C287 C282 1.408 . S
C287 C286 1.400 . S
H288 C294 0.930 . S
H289 C297 0.931 . S
H290 C299 0.931 . S
H291 C301 0.930 . S
H292 C303 0.930 . S
H293 C305 0.931 . S
C294 H288 0.930 . S
C294 C295 1.380 . S
C294 C296 1.394 . S
C295 C294 1.380 . S
C295 C299 1.382 . S
C296 C294 1.394 . S
C296 C297 1.400 . S
C297 H289 0.931 . S
C297 C296 1.400 . S
C297 C298 1.375 . S
C298 C297 1.375 . S
C298 C299 1.415 . S
C298 C300 1.501 . S
C299 H290 0.931 . S
C299 C295 1.382 . S
C299 C298 1.415 . S
C300 C298 1.501 . S
C300 C301 1.384 . S
C300 C305 1.408 . S
C301 H291 0.930 . S
C301 C300 1.384 . S
C301 C302 1.389 . S
C302 C301 1.389 . S
C302 C303 1.405 . S
C303 H292 0.930 . S
C303 C302 1.405 . S
C303 C304 1.364 . S
C304 C303 1.364 . S
C304 C305 1.400 . S
C305 H293 0.931 . S
C305 C300 1.408 . S
C305 C304 1.400 . S
H306 C312 0.930 . S
H307 C315 0.931 . S
H308 C317 0.931 . S
H309 C319 0.930 . S
H310 C321 0.930 . S
H311 C323 0.931 . S
C312 H306 0.930 . S
C312 C313 1.380 . S
C312 C314 1.394 . S
C313 C312 1.380 . S
C313 C317 1.382 . S
C314 C312 1.394 . S
C314 C315 1.400 . S
C315 H307 0.931 . S
C315 C314 1.400 . S
C315 C316 1.375 . S
C316 C315 1.375 . S
C316 C317 1.415 . S
C316 C318 1.501 . S
C317 H308 0.931 . S
C317 C313 1.382 . S
C317 C316 1.415 . S
C318 C316 1.501 . S
C318 C319 1.384 . S
C318 C323 1.408 . S
C319 H309 0.930 . S
C319 C318 1.384 . S
C319 C320 1.389 . S
C320 C319 1.389 . S
C320 C321 1.405 . S
C321 H310 0.930 . S
C321 C320 1.405 . S
C321 C322 1.364 . S
C322 C321 1.364 . S
C322 C323 1.400 . S
C323 H311 0.931 . S
C323 C318 1.408 . S
C323 C322 1.400 . S
H324 C330 0.930 . S
H325 C333 0.931 . S
H326 C335 0.931 . S
H327 C337 0.930 . S
H328 C339 0.930 . S
H329 C341 0.931 . S
C330 H324 0.930 . S
C330 C331 1.380 . S
C330 C332 1.394 . S
C331 C330 1.380 . S
C331 C335 1.382 . S
C332 C330 1.394 . S
C332 C333 1.400 . S
C333 H325 0.931 . S
C333 C332 1.400 . S
C333 C334 1.375 . S
C334 C333 1.375 . S
C334 C335 1.415 . S
C334 C336 1.501 . S
C335 H326 0.931 . S
C335 C331 1.382 . S
C335 C334 1.415 . S
C336 C334 1.501 . S
C336 C337 1.384 . S
C336 C341 1.408 . S
C337 H327 0.930 . S
C337 C336 1.384 . S
C337 C338 1.389 . S
C338 C337 1.389 . S
C338 C339 1.405 . S
C339 H328 0.930 . S
C339 C338 1.405 . S
C339 C340 1.364 . S
C340 C339 1.364 . S
C340 C341 1.400 . S
C341 H329 0.931 . S
C341 C336 1.408 . S
C341 C340 1.400 . S
H342 C348 0.930 . S
H343 C351 0.931 . S
H344 C353 0.931 . S
H345 C355 0.930 . S
H346 C357 0.930 . S
H347 C359 0.931 . S
C348 H342 0.930 . S
C348 C349 1.380 . S
C348 C350 1.394 . S
C349 C348 1.380 . S
C349 C353 1.382 . S
C350 C348 1.394 . S
C350 C351 1.400 . S
C351 H343 0.931 . S
C351 C350 1.400 . S
C351 C352 1.375 . S
C352 C351 1.375 . S
C352 C353 1.415 . S
C352 C354 1.501 . S
C353 H344 0.931 . S
C353 C349 1.382 . S
C353 C352 1.415 . S
C354 C352 1.501 . S
C354 C355 1.384 . S
C354 C359 1.408 . S
C355 H345 0.930 . S
C355 C354 1.384 . S
C355 C356 1.389 . S
C356 C355 1.389 . S
C356 C357 1.405 . S
C357 H346 0.930 . S
C357 C356 1.405 . S
C357 C358 1.364 . S
C358 C357 1.364 . S
C358 C359 1.400 . S
C359 H347 0.931 . S
C359 C354 1.408 . S
C359 C358 1.400 . S
H360 C366 0.930 . S
H361 C369 0.931 . S
H362 C371 0.931 . S
H363 C373 0.930 . S
H364 C375 0.930 . S
H365 C377 0.931 . S
C366 H360 0.930 . S
C366 C367 1.380 . S
C366 C368 1.394 . S
C367 C366 1.380 . S
C367 C371 1.382 . S
C368 C366 1.394 . S
C368 C369 1.400 . S
C369 H361 0.931 . S
C369 C368 1.400 . S
C369 C370 1.375 . S
C370 C369 1.375 . S
C370 C371 1.415 . S
C370 C372 1.501 . S
C371 H362 0.931 . S
C371 C367 1.382 . S
C371 C370 1.415 . S
C372 C370 1.501 . S
C372 C373 1.384 . S
C372 C377 1.408 . S
C373 H363 0.930 . S
C373 C372 1.384 . S
C373 C374 1.389 . S
C374 C373 1.389 . S
C374 C375 1.405 . S
C375 H364 0.930 . S
C375 C374 1.405 . S
C375 C376 1.364 . S
C376 C375 1.364 . S
C376 C377 1.400 . S
C377 H365 0.931 . S
C377 C372 1.408 . S
C377 C376 1.400 . S
H378 C384 0.930 . S
H379 C387 0.931 . S
H380 C389 0.931 . S
H381 C391 0.930 . S
H382 C393 0.930 . S
H383 C395 0.931 . S
C384 H378 0.930 . S
C384 C385 1.380 . S
C384 C386 1.394 . S
C385 C384 1.380 . S
C385 C389 1.382 . S
C386 C384 1.394 . S
C386 C387 1.400 . S
C387 H379 0.931 . S
C387 C386 1.400 . S
C387 C388 1.375 . S
C388 C387 1.375 . S
C388 C389 1.415 . S
C388 C390 1.501 . S
C389 H380 0.931 . S
C389 C385 1.382 . S
C389 C388 1.415 . S
C390 C388 1.501 . S
C390 C391 1.384 . S
C390 C395 1.408 . S
C391 H381 0.930 . S
C391 C390 1.384 . S
C391 C392 1.389 . S
C392 C391 1.389 . S
C392 C393 1.405 . S
C393 H382 0.930 . S
C393 C392 1.405 . S
C393 C394 1.364 . S
C394 C393 1.364 . S
C394 C395 1.400 . S
C395 H383 0.931 . S
C395 C390 1.408 . S
C395 C394 1.400 . S
H396 C402 0.930 . S
H397 C405 0.931 . S
H398 C407 0.931 . S
H399 C409 0.930 . S
H400 C411 0.930 . S
H401 C413 0.931 . S
C402 H396 0.930 . S
C402 C403 1.380 . S
C402 C404 1.394 . S
C403 C402 1.380 . S
C403 C407 1.382 . S
C404 C402 1.394 . S
C404 C405 1.400 . S
C405 H397 0.931 . S
C405 C404 1.400 . S
C405 C406 1.375 . S
C406 C405 1.375 . S
C406 C407 1.415 . S
C406 C408 1.501 . S
C407 H398 0.931 . S
C407 C403 1.382 . S
C407 C406 1.415 . S
C408 C406 1.501 . S
C408 C409 1.384 . S
C408 C413 1.408 . S
C409 H399 0.930 . S
C409 C408 1.384 . S
C409 C410 1.389 . S
C410 C409 1.389 . S
C410 C411 1.405 . S
C411 H400 0.930 . S
C411 C410 1.405 . S
C411 C412 1.364 . S
C412 C411 1.364 . S
C412 C413 1.400 . S
C413 H401 0.931 . S
C413 C408 1.408 . S
C413 C412 1.400 . S
H414 C420 0.917 . S
H415 C423 0.931 . S
H416 C425 0.931 . S
H417 C427 0.930 . S
H418 C429 0.930 . S
H419 C431 0.942 . S
C420 H414 0.917 . S
C420 C421 1.391 . S
C420 C422 1.396 1_655 S
C421 C420 1.391 . S
C421 C425 1.382 . S
C422 C420 1.396 1_455 S
C422 C423 1.400 . S
C423 H415 0.931 . S
C423 C422 1.400 . S
C423 C424 1.375 . S
C424 C423 1.375 . S
C424 C425 1.415 1_455 S
C424 C426 1.501 . S
C425 H416 0.931 . S
C425 C421 1.382 . S
C425 C424 1.415 1_655 S
C426 C424 1.501 . S
C426 C427 1.384 . S
C426 C431 1.423 . S
C427 H417 0.930 . S
C427 C426 1.384 . S
C427 C428 1.389 . S
C428 C427 1.389 . S
C428 C429 1.405 . S
C429 H418 0.930 . S
C429 C428 1.405 . S
C429 C430 1.357 . S
C430 C429 1.357 . S
C430 C431 1.394 . S
C431 H419 0.942 . S
C431 C426 1.423 . S
C431 C430 1.394 . S
H432 C438 0.930 . S
H433 C441 0.931 . S
H434 C443 0.931 . S
H435 C445 0.930 . S
H436 C447 0.930 . S
H437 C449 0.931 . S
C438 H432 0.930 . S
C438 C439 1.380 . S
C438 C440 1.394 . S
C439 C438 1.380 . S
C439 C443 1.382 . S
C440 C438 1.394 . S
C440 C441 1.400 . S
C441 H433 0.931 . S
C441 C440 1.400 . S
C441 C442 1.375 . S
C442 C441 1.375 . S
C442 C443 1.415 . S
C442 C444 1.501 . S
C443 H434 0.931 . S
C443 C439 1.382 . S
C443 C442 1.415 . S
C444 C442 1.501 . S
C444 C445 1.384 . S
C444 C449 1.408 . S
C445 H435 0.930 . S
C445 C444 1.384 . S
C445 C446 1.389 . S
C446 C445 1.389 . S
C446 C447 1.405 . S
C447 H436 0.930 . S
C447 C446 1.405 . S
C447 C448 1.364 . S
C448 C447 1.364 . S
C448 C449 1.400 . S
C449 H437 0.931 . S
C449 C444 1.408 . S
C449 C448 1.400 . S
H450 C456 0.946 . S
H451 C459 0.931 . S
H452 C461 0.931 . S
H453 C463 0.930 . S
H454 C465 0.930 . S
H455 C467 0.918 . S
C456 H450 0.946 . S
C456 C457 1.376 . S
C456 C458 1.382 1_545 S
C457 C456 1.376 . S
C457 C461 1.382 . S
C458 C456 1.382 1_565 S
C458 C459 1.400 . S
C459 H451 0.931 . S
C459 C458 1.400 . S
C459 C460 1.375 . S
C460 C459 1.375 . S
C460 C461 1.415 1_565 S
C460 C462 1.501 . S
C461 H452 0.931 . S
C461 C457 1.382 . S
C461 C460 1.415 1_545 S
C462 C460 1.501 . S
C462 C463 1.384 . S
C462 C467 1.398 . S
C463 H453 0.930 . S
C463 C462 1.384 . S
C463 C464 1.389 . S
C464 C463 1.389 . S
C464 C465 1.405 . S
C465 H454 0.930 . S
C465 C464 1.405 . S
C465 C466 1.376 . S
C466 C465 1.376 . S
C466 C467 1.406 . S
C467 H455 0.918 . S
C467 C462 1.398 . S
C467 C466 1.406 . S
H468 C474 0.913 . S
H469 C477 0.931 . S
H470 C479 0.926 . S
H471 C481 0.930 . S
H472 C483 0.930 . S
H473 C485 0.931 . S
C474 H468 0.913 . S
C474 C475 1.385 . S
C474 C476 1.414 1_545 S
C475 C474 1.385 . S
C475 C479 1.403 1_545 S
C476 C474 1.414 1_565 S
C476 C477 1.380 . S
C477 H469 0.931 . S
C477 C476 1.380 . S
C477 C478 1.375 . S
C478 C477 1.375 . S
C478 C479 1.410 . S
C478 C480 1.501 . S
C479 H470 0.926 . S
C479 C475 1.403 1_565 S
C479 C478 1.410 . S
C480 C478 1.501 . S
C480 C481 1.384 . S
C480 C485 1.408 1_565 S
C481 H471 0.930 . S
C481 C480 1.384 . S
C481 C482 1.389 . S
C482 C481 1.389 . S
C482 C483 1.405 . S
C483 H472 0.930 . S
C483 C482 1.405 . S
C483 C484 1.364 1_565 S
C484 C483 1.364 1_545 S
C484 C485 1.400 . S
C485 H473 0.931 . S
C485 C480 1.408 1_545 S
C485 C484 1.400 . S
H486 C492 0.953 . S
H487 C495 0.931 . S
H488 C497 0.936 . S
H489 C499 0.930 . S
H490 C501 0.930 . S
H491 C503 0.931 . S
C492 H486 0.953 . S
C492 C493 1.375 . S
C492 C494 1.370 1_655 S
C493 C492 1.375 . S
C493 C497 1.359 1_655 S
C494 C492 1.370 1_455 S
C494 C495 1.429 . S
C495 H487 0.931 . S
C495 C494 1.429 . S
C495 C496 1.375 . S
C496 C495 1.375 . S
C496 C497 1.422 . S
C496 C498 1.501 . S
C497 H488 0.936 . S
C497 C493 1.359 1_455 S
C497 C496 1.422 . S
C498 C496 1.501 . S
C498 C499 1.384 . S
C498 C503 1.408 1_455 S
C499 H489 0.930 . S
C499 C498 1.384 . S
C499 C500 1.389 . S
C500 C499 1.389 . S
C500 C501 1.405 . S
C501 H490 0.930 . S
C501 C500 1.405 . S
C501 C502 1.364 1_455 S
C502 C501 1.364 1_655 S
C502 C503 1.400 . S
C503 H491 0.931 . S
C503 C498 1.408 1_655 S
C503 C502 1.400 . S
H504 C510 0.930 . S
H505 C513 0.931 . S
H506 C515 0.931 . S
H507 C517 0.930 . S
H508 C519 0.930 . S
H509 C521 0.931 . S
C510 H504 0.930 . S
C510 C511 1.380 . S
C510 C512 1.394 . S
C511 C510 1.380 . S
C511 C515 1.382 . S
C512 C510 1.394 . S
C512 C513 1.400 . S
C513 H505 0.931 . S
C513 C512 1.400 . S
C513 C514 1.375 . S
C514 C513 1.375 . S
C514 C515 1.415 . S
C514 C516 1.501 . S
C515 H506 0.931 . S
C515 C511 1.382 . S
C515 C514 1.415 . S
C516 C514 1.501 . S
C516 C517 1.384 . S
C516 C521 1.408 . S
C517 H507 0.930 . S
C517 C516 1.384 . S
C517 C518 1.389 . S
C518 C517 1.389 . S
C518 C519 1.405 . S
C519 H508 0.930 . S
C519 C518 1.405 . S
C519 C520 1.364 . S
C520 C519 1.364 . S
C520 C521 1.400 . S
C521 H509 0.931 . S
C521 C516 1.408 . S
C521 C520 1.400 . S
H522 C528 0.930 . S
H523 C531 0.931 . S
H524 C533 0.931 . S
H525 C535 0.930 . S
H526 C537 0.930 . S
H527 C539 0.931 . S
C528 H522 0.930 . S
C528 C529 1.380 . S
C528 C530 1.394 . S
C529 C528 1.380 . S
C529 C533 1.382 . S
C530 C528 1.394 . S
C530 C531 1.400 . S
C531 H523 0.931 . S
C531 C530 1.400 . S
C531 C532 1.375 . S
C532 C531 1.375 . S
C532 C533 1.415 . S
C532 C534 1.501 . S
C533 H524 0.931 . S
C533 C529 1.382 . S
C533 C532 1.415 . S
C534 C532 1.501 . S
C534 C535 1.384 . S
C534 C539 1.408 . S
C535 H525 0.930 . S
C535 C534 1.384 . S
C535 C536 1.389 . S
C536 C535 1.389 . S
C536 C537 1.405 . S
C537 H526 0.930 . S
C537 C536 1.405 . S
C537 C538 1.364 . S
C538 C537 1.364 . S
C538 C539 1.400 . S
C539 H527 0.931 . S
C539 C534 1.408 . S
C539 C538 1.400 . S
H540 C546 0.930 . S
H541 C549 0.931 . S
H542 C551 0.931 . S
H543 C553 0.930 . S
H544 C555 0.930 . S
H545 C557 0.931 . S
C546 H540 0.930 . S
C546 C547 1.380 . S
C546 C548 1.394 . S
C547 C546 1.380 . S
C547 C551 1.382 . S
C548 C546 1.394 . S
C548 C549 1.400 . S
C549 H541 0.931 . S
C549 C548 1.400 . S
C549 C550 1.375 . S
C550 C549 1.375 . S
C550 C551 1.415 . S
C550 C552 1.501 . S
C551 H542 0.931 . S
C551 C547 1.382 . S
C551 C550 1.415 . S
C552 C550 1.501 . S
C552 C553 1.384 . S
C552 C557 1.408 . S
C553 H543 0.930 . S
C553 C552 1.384 . S
C553 C554 1.389 . S
C554 C553 1.389 . S
C554 C555 1.405 . S
C555 H544 0.930 . S
C555 C554 1.405 . S
C555 C556 1.364 . S
C556 C555 1.364 . S
C556 C557 1.400 . S
C557 H545 0.931 . S
C557 C552 1.408 . S
C557 C556 1.400 . S
H558 C564 0.930 . S
H559 C567 0.931 . S
H560 C569 0.931 . S
H561 C571 0.930 . S
H562 C573 0.930 . S
H563 C575 0.931 . S
C564 H558 0.930 . S
C564 C565 1.380 . S
C564 C566 1.394 . S
C565 C564 1.380 . S
C565 C569 1.382 . S
C566 C564 1.394 . S
C566 C567 1.400 . S
C567 H559 0.931 . S
C567 C566 1.400 . S
C567 C568 1.375 . S
C568 C567 1.375 . S
C568 C569 1.415 . S
C568 C570 1.501 . S
C569 H560 0.931 . S
C569 C565 1.382 . S
C569 C568 1.415 . S
C570 C568 1.501 . S
C570 C571 1.384 . S
C570 C575 1.408 . S
C571 H561 0.930 . S
C571 C570 1.384 . S
C571 C572 1.389 . S
C572 C571 1.389 . S
C572 C573 1.405 . S
C573 H562 0.930 . S
C573 C572 1.405 . S
C573 C574 1.364 . S
C574 C573 1.364 . S
C574 C575 1.400 . S
C575 H563 0.931 . S
C575 C570 1.408 . S
C575 C574 1.400 . S
C576 C577 1.387 1_455 S
C576 H580 0.950 . S
C576 C585 1.390 . S
C577 C576 1.387 1_655 S
C577 C579 1.387 . S
H578 C585 0.950 . S
C579 C577 1.387 . S
C579 C581 1.390 . S
C579 H583 0.950 . S
H580 C576 0.950 . S
C581 C579 1.390 . S
C581 C582 1.387 . S
C581 H584 0.950 . S
C582 C581 1.387 . S
C582 C585 1.387 1_655 S
H583 C579 0.950 . S
H584 C581 0.950 . S
C585 C576 1.390 . S
C585 H578 0.950 . S
C585 C582 1.387 1_455 S
C586 C587 1.387 . S
C586 H590 0.950 . S
C586 C595 1.390 . S
C587 C586 1.387 . S
C587 C589 1.387 . S
H588 C595 0.950 . S
C589 C587 1.387 . S
C589 C591 1.390 . S
C589 H593 0.950 . S
H590 C586 0.950 . S
C591 C589 1.390 . S
C591 C592 1.387 . S
C591 H594 0.950 . S
C592 C591 1.387 . S
C592 C595 1.387 . S
H593 C589 0.950 . S
H594 C591 0.950 . S
C595 C586 1.390 . S
C595 H588 0.950 . S
C595 C592 1.387 . S
C596 C597 1.387 . S
C596 H600 0.950 . S
C596 C605 1.390 . S
C597 C596 1.387 . S
C597 C599 1.387 1_545 S
H598 C605 0.950 . S
C599 C597 1.387 1_565 S
C599 C601 1.390 . S
C599 H603 0.950 . S
H600 C596 0.950 . S
C601 C599 1.390 . S
C601 C602 1.387 1_565 S
C601 H604 0.950 . S
C602 C601 1.387 1_545 S
C602 C605 1.387 . S
H603 C599 0.950 . S
H604 C601 0.950 . S
C605 C596 1.390 . S
C605 H598 0.950 . S
C605 C602 1.387 . S
C606 C607 1.394 . S
C606 H610 0.950 . S
C606 C615 1.390 . S
C607 C606 1.394 . S
C607 C609 1.384 1_565 S
H608 C615 0.950 . S
C609 C607 1.384 1_545 S
C609 C611 1.390 . S
C609 H613 0.950 . S
H610 C606 0.950 . S
C611 C609 1.390 . S
C611 C612 1.387 1_545 S
C611 H614 0.950 . S
C612 C611 1.387 1_565 S
C612 C615 1.387 . S
H613 C609 0.950 . S
H614 C611 0.950 . S
C615 C606 1.390 . S
C615 H608 0.950 . S
C615 C612 1.387 . S
C616 C617 1.396 . S
C616 H620 0.950 . S
C616 C625 1.390 . S
C617 C616 1.396 . S
C617 C619 1.374 1_455 S
H618 C625 0.950 . S
C619 C617 1.374 1_655 S
C619 C621 1.390 . S
C619 H623 0.950 . S
H620 C616 0.950 . S
C621 C619 1.390 . S
C621 C622 1.387 1_655 S
C621 H624 0.950 . S
C622 C621 1.387 1_455 S
C622 C625 1.387 . S
H623 C619 0.950 . S
H624 C621 0.950 . S
C625 C616 1.390 . S
C625 H618 0.950 . S
C625 C622 1.387 . S
C626 C627 1.387 . S
C626 H630 0.950 . S
C626 C635 1.390 . S
C627 C626 1.387 . S
C627 C629 1.387 . S
H628 C635 0.950 . S
C629 C627 1.387 . S
C629 C631 1.390 . S
C629 H633 0.950 . S
H630 C626 0.950 . S
C631 C629 1.390 . S
C631 C632 1.387 . S
C631 H634 0.950 . S
C632 C631 1.387 . S
C632 C635 1.387 . S
H633 C629 0.950 . S
H634 C631 0.950 . S
C635 C626 1.390 . S
C635 H628 0.950 . S
C635 C632 1.387 . S
C636 C637 1.387 1_455 S
C636 H640 0.950 . S
C636 C645 1.390 . S
C637 C636 1.387 1_655 S
C637 C639 1.387 . S
H638 C645 0.950 . S
C639 C637 1.387 . S
C639 C641 1.390 . S
C639 H643 0.950 . S
H640 C636 0.950 . S
C641 C639 1.390 . S
C641 C642 1.388 . S
C641 H644 0.950 . S
C642 C641 1.388 . S
C642 C645 1.398 1_655 S
H643 C639 0.950 . S
H644 C641 0.950 . S
C645 C636 1.390 . S
C645 H638 0.950 . S
C645 C642 1.398 1_455 S
C646 C647 1.387 . S
C646 H650 0.950 . S
C646 C655 1.390 . S
C647 C646 1.387 . S
C647 C649 1.387 . S
H648 C655 0.950 . S
C649 C647 1.387 . S
C649 C651 1.390 . S
C649 H653 0.950 . S
H650 C646 0.950 . S
C651 C649 1.390 . S
C651 C652 1.387 . S
C651 H654 0.950 . S
C652 C651 1.387 . S
C652 C655 1.387 . S
H653 C649 0.950 . S
H654 C651 0.950 . S
C655 C646 1.390 . S
C655 H648 0.950 . S
C655 C652 1.387 . S
C656 C657 1.387 1_565 S
C656 H660 0.950 . S
C656 C665 1.390 . S
C657 C656 1.387 1_545 S
C657 C659 1.387 . S
H658 C665 0.950 . S
C659 C657 1.387 . S
C659 C661 1.390 . S
C659 H663 0.950 . S
H660 C656 0.950 . S
C661 C659 1.390 . S
C661 C662 1.409 . S
C661 H664 0.950 . S
C662 C661 1.409 . S
C662 C665 1.351 1_545 S
H663 C659 0.950 . S
H664 C661 0.950 . S
C665 C656 1.390 . S
C665 H658 0.950 . S
C665 C662 1.351 1_565 S
C666 C667 1.343 1_545 S
C666 H670 0.950 . S
C666 C675 1.390 . S
C667 C666 1.343 1_565 S
C667 C669 1.414 . S
H668 C675 0.950 . S
C669 C667 1.414 . S
C669 C671 1.390 . S
C669 H673 0.950 . S
H670 C666 0.950 . S
C671 C669 1.390 . S
C671 C672 1.419 . S
C671 H674 0.950 . S
C672 C671 1.419 . S
C672 C675 1.369 1_565 S
H673 C669 0.950 . S
H674 C671 0.950 . S
C675 C666 1.390 . S
C675 H668 0.950 . S
C675 C672 1.369 1_545 S
C676 C677 1.387 . S
C676 H680 0.950 . S
C676 C685 1.390 . S
C677 C676 1.387 . S
C677 C679 1.387 1_455 S
H678 C685 0.950 . S
C679 C677 1.387 1_655 S
C679 C681 1.390 . S
C679 H683 0.950 . S
H680 C676 0.950 . S
C681 C679 1.390 . S
C681 C682 1.350 1_655 S
C681 H684 0.950 . S
C682 C681 1.350 1_455 S
C682 C685 1.409 . S
H683 C679 0.950 . S
H684 C681 0.950 . S
C685 C676 1.390 . S
C685 H678 0.950 . S
C685 C682 1.409 . S
C686 C687 1.387 . S
C686 H690 0.950 . S
C686 C695 1.390 . S
C687 C686 1.387 . S
C687 C689 1.387 . S
H688 C695 0.950 . S
C689 C687 1.387 . S
C689 C691 1.390 . S
C689 H693 0.950 . S
H690 C686 0.950 . S
C691 C689 1.390 . S
C691 C692 1.387 . S
C691 H694 0.950 . S
C692 C691 1.387 . S
C692 C695 1.387 . S
H693 C689 0.950 . S
H694 C691 0.950 . S
C695 C686 1.390 . S
C695 H688 0.950 . S
C695 C692 1.387 . S
C696 C697 1.387 . S
C696 H700 0.950 . S
C696 C705 1.390 . S
C697 C696 1.387 . S
C697 C699 1.387 . S
H698 C705 0.950 . S
C699 C697 1.387 . S
C699 C701 1.390 . S
C699 H703 0.950 . S
H700 C696 0.950 . S
C701 C699 1.390 . S
C701 C702 1.387 . S
C701 H704 0.950 . S
C702 C701 1.387 . S
C702 C705 1.387 . S
H703 C699 0.950 . S
H704 C701 0.950 . S
C705 C696 1.390 . S
C705 H698 0.950 . S
C705 C702 1.387 . S
C706 C707 1.387 . S
C706 H710 0.950 . S
C706 C715 1.390 . S
C707 C706 1.387 . S
C707 C709 1.387 . S
H708 C715 0.950 . S
C709 C707 1.387 . S
C709 C711 1.390 . S
C709 H713 0.950 . S
H710 C706 0.950 . S
C711 C709 1.390 . S
C711 C712 1.387 . S
C711 H714 0.950 . S
C712 C711 1.387 . S
C712 C715 1.387 . S
H713 C709 0.950 . S
H714 C711 0.950 . S
C715 C706 1.390 . S
C715 H708 0.950 . S
C715 C712 1.387 . S
C716 C717 1.387 . S
C716 H720 0.950 . S
C716 C725 1.390 . S
C717 C716 1.387 . S
C717 C719 1.387 . S
H718 C725 0.950 . S
C719 C717 1.387 . S
C719 C721 1.390 . S
C719 H723 0.950 . S
H720 C716 0.950 . S
C721 C719 1.390 . S
C721 C722 1.387 . S
C721 H724 0.950 . S
C722 C721 1.387 . S
C722 C725 1.387 . S
H723 C719 0.950 . S
H724 C721 0.950 . S
C725 C716 1.390 . S
C725 H718 0.950 . S
C725 C722 1.387 . S
C726 C727 1.387 . S
C726 H730 0.950 . S
C726 C735 1.390 . S
C727 C726 1.387 . S
C727 C729 1.387 . S
H728 C735 0.950 . S
C729 C727 1.387 . S
C729 C731 1.390 . S
C729 H733 0.950 . S
H730 C726 0.950 . S
C731 C729 1.390 . S
C731 C732 1.387 . S
C731 H734 0.950 . S
C732 C731 1.387 . S
C732 C735 1.387 . S
H733 C729 0.950 . S
H734 C731 0.950 . S
C735 C726 1.390 . S
C735 H728 0.950 . S
C735 C732 1.387 . S
C736 C737 1.387 . S
C736 H740 0.950 . S
C736 C745 1.390 . S
C737 C736 1.387 . S
C737 C739 1.387 . S
H738 C745 0.950 . S
C739 C737 1.387 . S
C739 C741 1.390 . S
C739 H743 0.950 . S
H740 C736 0.950 . S
C741 C739 1.390 . S
C741 C742 1.387 . S
C741 H744 0.950 . S
C742 C741 1.387 . S
C742 C745 1.387 . S
H743 C739 0.950 . S
H744 C741 0.950 . S
C745 C736 1.390 . S
C745 H738 0.950 . S
C745 C742 1.387 . S
C746 C747 1.387 . S
C746 H750 0.950 . S
C746 C755 1.390 . S
C747 C746 1.387 . S
C747 C749 1.387 . S
H748 C755 0.950 . S
C749 C747 1.387 . S
C749 C751 1.390 . S
C749 H753 0.950 . S
H750 C746 0.950 . S
C751 C749 1.390 . S
C751 C752 1.387 . S
C751 H754 0.950 . S
C752 C751 1.387 . S
C752 C755 1.387 . S
H753 C749 0.950 . S
H754 C751 0.950 . S
C755 C746 1.390 . S
C755 H748 0.950 . S
C755 C752 1.387 . S
C756 C757 1.387 . S
C756 H760 0.950 . S
C756 C765 1.390 . S
C757 C756 1.387 . S
C757 C759 1.387 . S
H758 C765 0.950 . S
C759 C757 1.387 . S
C759 C761 1.390 . S
C759 H763 0.950 . S
H760 C756 0.950 . S
C761 C759 1.390 . S
C761 C762 1.387 . S
C761 H764 0.950 . S
C762 C761 1.387 . S
C762 C765 1.387 . S
H763 C759 0.950 . S
H764 C761 0.950 . S
C765 C756 1.390 . S
C765 H758 0.950 . S
C765 C762 1.387 . S
C766 C767 1.387 . S
C766 H770 0.950 . S
C766 C775 1.390 . S
C767 C766 1.387 . S
C767 C769 1.387 . S
H768 C775 0.950 . S
C769 C767 1.387 . S
C769 C771 1.390 . S
C769 H773 0.950 . S
H770 C766 0.950 . S
C771 C769 1.390 . S
C771 C772 1.387 . S
C771 H774 0.950 . S
C772 C771 1.387 . S
C772 C775 1.387 . S
H773 C769 0.950 . S
H774 C771 0.950 . S
C775 C766 1.390 . S
C775 H768 0.950 . S
C775 C772 1.387 . S
C776 C777 1.387 . S
C776 H780 0.950 . S
C776 C785 1.390 . S
C777 C776 1.387 . S
C777 C779 1.387 . S
H778 C785 0.950 . S
C779 C777 1.387 . S
C779 C781 1.390 . S
C779 H783 0.950 . S
H780 C776 0.950 . S
C781 C779 1.390 . S
C781 C782 1.387 . S
C781 H784 0.950 . S
C782 C781 1.387 . S
C782 C785 1.387 . S
H783 C779 0.950 . S
H784 C781 0.950 . S
C785 C776 1.390 . S
C785 H778 0.950 . S
C785 C782 1.387 . S
C786 C787 1.387 . S
C786 H790 0.950 . S
C786 C795 1.390 . S
C787 C786 1.387 . S
C787 C789 1.387 . S
H788 C795 0.950 . S
C789 C787 1.387 . S
C789 C791 1.390 . S
C789 H793 0.950 . S
H790 C786 0.950 . S
C791 C789 1.390 . S
C791 C792 1.387 . S
C791 H794 0.950 . S
C792 C791 1.387 . S
C792 C795 1.387 . S
H793 C789 0.950 . S
H794 C791 0.950 . S
C795 C786 1.390 . S
C795 H788 0.950 . S
C795 C792 1.387 . S
C796 C797 1.387 . S
C796 H800 0.950 . S
C796 C805 1.390 . S
C797 C796 1.387 . S
C797 C799 1.387 . S
H798 C805 0.950 . S
C799 C797 1.387 . S
C799 C801 1.390 . S
C799 H803 0.950 . S
H800 C796 0.950 . S
C801 C799 1.390 . S
C801 C802 1.387 . S
C801 H804 0.950 . S
C802 C801 1.387 . S
C802 C805 1.387 . S
H803 C799 0.950 . S
H804 C801 0.950 . S
C805 C796 1.390 . S
C805 H798 0.950 . S
C805 C802 1.387 . S
C806 C807 1.387 . S
C806 H810 0.950 . S
C806 C815 1.390 . S
C807 C806 1.387 . S
C807 C809 1.387 . S
H808 C815 0.950 . S
C809 C807 1.387 . S
C809 C811 1.390 . S
C809 H813 0.950 . S
H810 C806 0.950 . S
C811 C809 1.390 . S
C811 C812 1.387 . S
C811 H814 0.950 . S
C812 C811 1.387 . S
C812 C815 1.387 . S
H813 C809 0.950 . S
H814 C811 0.950 . S
C815 C806 1.390 . S
C815 H808 0.950 . S
C815 C812 1.387 . S
C816 C817 1.387 . S
C816 H820 0.950 . S
C816 C825 1.390 . S
C817 C816 1.387 . S
C817 C819 1.387 . S
H818 C825 0.950 . S
C819 C817 1.387 . S
C819 C821 1.390 . S
C819 H823 0.950 . S
H820 C816 0.950 . S
C821 C819 1.390 . S
C821 C822 1.387 . S
C821 H824 0.950 . S
C822 C821 1.387 . S
C822 C825 1.387 . S
H823 C819 0.950 . S
H824 C821 0.950 . S
C825 C816 1.390 . S
C825 H818 0.950 . S
C825 C822 1.387 . S
C826 C827 1.387 . S
C826 H830 0.950 . S
C826 C835 1.390 . S
C827 C826 1.387 . S
C827 C829 1.387 . S
H828 C835 0.950 . S
C829 C827 1.387 . S
C829 C831 1.390 . S
C829 H833 0.950 . S
H830 C826 0.950 . S
C831 C829 1.390 . S
C831 C832 1.387 . S
C831 H834 0.950 . S
C832 C831 1.387 . S
C832 C835 1.387 . S
H833 C829 0.950 . S
H834 C831 0.950 . S
C835 C826 1.390 . S
C835 H828 0.950 . S
C835 C832 1.387 . S
C836 C837 1.387 . S
C836 H840 0.950 . S
C836 C845 1.390 . S
C837 C836 1.387 . S
C837 C839 1.387 . S
H838 C845 0.950 . S
C839 C837 1.387 . S
C839 C841 1.390 . S
C839 H843 0.950 . S
H840 C836 0.950 . S
C841 C839 1.390 . S
C841 C842 1.387 . S
C841 H844 0.950 . S
C842 C841 1.387 . S
C842 C845 1.387 . S
H843 C839 0.950 . S
H844 C841 0.950 . S
C845 C836 1.390 . S
C845 H838 0.950 . S
C845 C842 1.387 . S
C846 C847 1.387 . S
C846 H850 0.950 . S
C846 C855 1.390 . S
C847 C846 1.387 . S
C847 C849 1.387 . S
H848 C855 0.950 . S
C849 C847 1.387 . S
C849 C851 1.390 . S
C849 H853 0.950 . S
H850 C846 0.950 . S
C851 C849 1.390 . S
C851 C852 1.387 . S
C851 H854 0.950 . S
C852 C851 1.387 . S
C852 C855 1.387 . S
H853 C849 0.950 . S
H854 C851 0.950 . S
C855 C846 1.390 . S
C855 H848 0.950 . S
C855 C852 1.387 . S
C856 C857 1.387 . S
C856 H860 0.950 . S
C856 C865 1.390 . S
C857 C856 1.387 . S
C857 C859 1.387 . S
H858 C865 0.950 . S
C859 C857 1.387 . S
C859 C861 1.390 . S
C859 H863 0.950 . S
H860 C856 0.950 . S
C861 C859 1.390 . S
C861 C862 1.387 . S
C861 H864 0.950 . S
C862 C861 1.387 . S
C862 C865 1.387 . S
H863 C859 0.950 . S
H864 C861 0.950 . S
C865 C856 1.390 . S
C865 H858 0.950 . S
C865 C862 1.387 . S
C866 C867 1.387 . S
C866 H870 0.950 . S
C866 C875 1.390 . S
C867 C866 1.387 . S
C867 C869 1.387 . S
H868 C875 0.950 . S
C869 C867 1.387 . S
C869 C871 1.390 . S
C869 H873 0.950 . S
H870 C866 0.950 . S
C871 C869 1.390 . S
C871 C872 1.387 . S
C871 H874 0.950 . S
C872 C871 1.387 . S
C872 C875 1.387 . S
H873 C869 0.950 . S
H874 C871 0.950 . S
C875 C866 1.390 . S
C875 H868 0.950 . S
C875 C872 1.387 . S
C876 C877 1.387 . S
C876 H880 0.950 . S
C876 C885 1.390 . S
C877 C876 1.387 . S
C877 C879 1.387 . S
H878 C885 0.950 . S
C879 C877 1.387 . S
C879 C881 1.390 . S
C879 H883 0.950 . S
H880 C876 0.950 . S
C881 C879 1.390 . S
C881 C882 1.387 . S
C881 H884 0.950 . S
C882 C881 1.387 . S
C882 C885 1.387 . S
H883 C879 0.950 . S
H884 C881 0.950 . S
C885 C876 1.390 . S
C885 H878 0.950 . S
C885 C882 1.387 . S
C886 C887 1.387 . S
C886 H890 0.950 . S
C886 C895 1.390 . S
C887 C886 1.387 . S
C887 C889 1.387 . S
H888 C895 0.950 . S
C889 C887 1.387 . S
C889 C891 1.390 . S
C889 H893 0.950 . S
H890 C886 0.950 . S
C891 C889 1.390 . S
C891 C892 1.387 . S
C891 H894 0.950 . S
C892 C891 1.387 . S
C892 C895 1.387 . S
H893 C889 0.950 . S
H894 C891 0.950 . S
C895 C886 1.390 . S
C895 H888 0.950 . S
C895 C892 1.387 . S
C896 C897 1.387 . S
C896 H900 0.950 . S
C896 C905 1.390 . S
C897 C896 1.387 . S
C897 C899 1.387 . S
H898 C905 0.950 . S
C899 C897 1.387 . S
C899 C901 1.390 . S
C899 H903 0.950 . S
H900 C896 0.950 . S
C901 C899 1.390 . S
C901 C902 1.387 . S
C901 H904 0.950 . S
C902 C901 1.387 . S
C902 C905 1.387 . S
H903 C899 0.950 . S
H904 C901 0.950 . S
C905 C896 1.390 . S
C905 H898 0.950 . S
C905 C902 1.387 . S
C906 C907 1.387 . S
C906 H910 0.950 . S
C906 C915 1.390 . S
C907 C906 1.387 . S
C907 C909 1.387 . S
H908 C915 0.950 . S
C909 C907 1.387 . S
C909 C911 1.390 . S
C909 H913 0.950 . S
H910 C906 0.950 . S
C911 C909 1.390 . S
C911 C912 1.387 . S
C911 H914 0.950 . S
C912 C911 1.387 . S
C912 C915 1.387 . S
H913 C909 0.950 . S
H914 C911 0.950 . S
C915 C906 1.390 . S
C915 H908 0.950 . S
C915 C912 1.387 . S
C916 C917 1.387 . S
C916 H920 0.950 . S
C916 C925 1.390 . S
C917 C916 1.387 . S
C917 C919 1.387 . S
H918 C925 0.950 . S
C919 C917 1.387 . S
C919 C921 1.390 . S
C919 H923 0.950 . S
H920 C916 0.950 . S
C921 C919 1.390 . S
C921 C922 1.387 . S
C921 H924 0.950 . S
C922 C921 1.387 . S
C922 C925 1.387 . S
H923 C919 0.950 . S
H924 C921 0.950 . S
C925 C916 1.390 . S
C925 H918 0.950 . S
C925 C922 1.387 . S
C926 C927 1.387 . S
C926 H930 0.950 . S
C926 C935 1.390 . S
C927 C926 1.387 . S
C927 C929 1.387 . S
H928 C935 0.950 . S
C929 C927 1.387 . S
C929 C931 1.390 . S
C929 H933 0.950 . S
H930 C926 0.950 . S
C931 C929 1.390 . S
C931 C932 1.387 . S
C931 H934 0.950 . S
C932 C931 1.387 . S
C932 C935 1.387 . S
H933 C929 0.950 . S
H934 C931 0.950 . S
C935 C926 1.390 . S
C935 H928 0.950 . S
C935 C932 1.387 . S
C936 C937 1.387 . S
C936 H940 0.950 . S
C936 C945 1.390 . S
C937 C936 1.387 . S
C937 C939 1.387 . S
H938 C945 0.950 . S
C939 C937 1.387 . S
C939 C941 1.390 . S
C939 H943 0.950 . S
H940 C936 0.950 . S
C941 C939 1.390 . S
C941 C942 1.387 . S
C941 H944 0.950 . S
C942 C941 1.387 . S
C942 C945 1.387 . S
H943 C939 0.950 . S
H944 C941 0.950 . S
C945 C936 1.390 . S
C945 H938 0.950 . S
C945 C942 1.387 . S
C946 C947 1.387 . S
C946 H950 0.950 . S
C946 C955 1.390 . S
C947 C946 1.387 . S
C947 C949 1.387 . S
H948 C955 0.950 . S
C949 C947 1.387 . S
C949 C951 1.390 . S
C949 H953 0.950 . S
H950 C946 0.950 . S
C951 C949 1.390 . S
C951 C952 1.387 . S
C951 H954 0.950 . S
C952 C951 1.387 . S
C952 C955 1.387 . S
H953 C949 0.950 . S
H954 C951 0.950 . S
C955 C946 1.390 . S
C955 H948 0.950 . S
C955 C952 1.387 . S
C956 C957 1.387 . S
C956 H960 0.950 . S
C956 C965 1.390 . S
C957 C956 1.387 . S
C957 C959 1.387 . S
H958 C965 0.950 . S
C959 C957 1.387 . S
C959 C961 1.390 . S
C959 H963 0.950 . S
H960 C956 0.950 . S
C961 C959 1.390 . S
C961 C962 1.387 . S
C961 H964 0.950 . S
C962 C961 1.387 . S
C962 C965 1.387 . S
H963 C959 0.950 . S
H964 C961 0.950 . S
C965 C956 1.390 . S
C965 H958 0.950 . S
C965 C962 1.387 . S
C966 C967 1.387 . S
C966 H970 0.950 . S
C966 C975 1.390 . S
C967 C966 1.387 . S
C967 C969 1.387 . S
H968 C975 0.950 . S
C969 C967 1.387 . S
C969 C971 1.390 . S
C969 H973 0.950 . S
H970 C966 0.950 . S
C971 C969 1.390 . S
C971 C972 1.387 . S
C971 H974 0.950 . S
C972 C971 1.387 . S
C972 C975 1.387 . S
H973 C969 0.950 . S
H974 C971 0.950 . S
C975 C966 1.390 . S
C975 H968 0.950 . S
C975 C972 1.387 . S
C976 C977 1.387 . S
C976 H980 0.950 1_556 S
C976 C985 1.390 . S
C977 C976 1.387 . S
C977 C979 1.387 . S
H978 C985 0.950 . S
C979 C977 1.387 . S
C979 C981 1.390 . S
C979 H983 0.950 . S
H980 C976 0.950 1_554 S
C981 C979 1.390 . S
C981 C982 1.387 . S
C981 H984 0.950 . S
C982 C981 1.387 . S
C982 C985 1.387 . S
H983 C979 0.950 . S
H984 C981 0.950 . S
C985 C976 1.390 . S
C985 H978 0.950 . S
C985 C982 1.387 . S
C986 C987 1.387 . S
C986 H990 0.950 . S
C986 C995 1.390 . S
C987 C986 1.387 . S
C987 C989 1.387 . S
H988 C995 0.950 . S
C989 C987 1.387 . S
C989 C991 1.390 . S
C989 H993 0.950 . S
H990 C986 0.950 . S
C991 C989 1.390 . S
C991 C992 1.387 . S
C991 H994 0.950 . S
C992 C991 1.387 . S
C992 C995 1.387 . S
H993 C989 0.950 . S
H994 C991 0.950 . S
C995 C986 1.390 . S
C995 H988 0.950 . S
C995 C992 1.387 . S
C996 C997 1.387 . S
C996 H1000 0.950 . S
C996 C1005 1.390 . S
C997 C996 1.387 . S
C997 C999 1.387 . S
H998 C1005 0.950 . S
C999 C997 1.387 . S
C999 C1001 1.390 . S
C999 H1003 0.950 . S
H1000 C996 0.950 . S
C1001 C999 1.390 . S
C1001 C1002 1.387 . S
C1001 H1004 0.950 . S
C1002 C1001 1.387 . S
C1002 C1005 1.387 . S
H1003 C999 0.950 . S
H1004 C1001 0.950 . S
C1005 C996 1.390 . S
C1005 H998 0.950 . S
C1005 C1002 1.387 . S
C1006 C1007 1.387 . S
C1006 H1010 0.950 . S
C1006 C1015 1.390 . S
C1007 C1006 1.387 . S
C1007 C1009 1.387 . S
H1008 C1015 0.950 . S
C1009 C1007 1.387 . S
C1009 C1011 1.390 . S
C1009 H1013 0.950 . S
H1010 C1006 0.950 . S
C1011 C1009 1.390 . S
C1011 C1012 1.387 . S
C1011 H1014 0.950 . S
C1012 C1011 1.387 . S
C1012 C1015 1.387 . S
H1013 C1009 0.950 . S
H1014 C1011 0.950 . S
C1015 C1006 1.390 . S
C1015 H1008 0.950 . S
C1015 C1012 1.387 . S
C1016 C1017 1.387 . S
C1016 H1020 0.928 1_556 S
C1016 C1025 1.390 . S
C1017 C1016 1.387 . S
C1017 C1019 1.387 . S
H1018 C1025 0.950 . S
C1019 C1017 1.387 . S
C1019 C1021 1.390 . S
C1019 H1023 0.950 . S
H1020 C1016 0.928 1_554 S
C1021 C1019 1.390 . S
C1021 C1022 1.387 . S
C1021 H1024 0.950 . S
C1022 C1021 1.387 . S
C1022 C1025 1.387 . S
H1023 C1019 0.950 . S
H1024 C1021 0.950 . S
C1025 C1016 1.390 . S
C1025 H1018 0.950 . S
C1025 C1022 1.387 . S
C1026 C1027 1.387 . S
C1026 H1030 0.950 . S
C1026 C1035 1.390 . S
C1027 C1026 1.387 . S
C1027 C1029 1.387 . S
H1028 C1035 0.950 . S
C1029 C1027 1.387 . S
C1029 C1031 1.390 . S
C1029 H1033 0.950 . S
H1030 C1026 0.950 . S
C1031 C1029 1.390 . S
C1031 C1032 1.387 . S
C1031 H1034 0.950 . S
C1032 C1031 1.387 . S
C1032 C1035 1.387 . S
H1033 C1029 0.950 . S
H1034 C1031 0.950 . S
C1035 C1026 1.390 . S
C1035 H1028 0.950 . S
C1035 C1032 1.387 . S
C1036 C1037 1.387 . S
C1036 H1040 0.950 . S
C1036 C1045 1.390 . S
C1037 C1036 1.387 . S
C1037 C1039 1.387 . S
H1038 C1045 0.950 . S
C1039 C1037 1.387 . S
C1039 C1041 1.390 . S
C1039 H1043 0.950 . S
H1040 C1036 0.950 . S
C1041 C1039 1.390 . S
C1041 C1042 1.387 . S
C1041 H1044 0.950 . S
C1042 C1041 1.387 . S
C1042 C1045 1.387 . S
H1043 C1039 0.950 . S
H1044 C1041 0.950 . S
C1045 C1036 1.390 . S
C1045 H1038 0.950 . S
C1045 C1042 1.387 . S
C1046 C1047 1.387 . S
C1046 H1050 0.950 . S
C1046 C1055 1.390 . S
C1047 C1046 1.387 . S
C1047 C1049 1.387 . S
H1048 C1055 0.950 . S
C1049 C1047 1.387 . S
C1049 C1051 1.390 . S
C1049 H1053 0.950 . S
H1050 C1046 0.950 . S
C1051 C1049 1.390 . S
C1051 C1052 1.387 . S
C1051 H1054 0.950 . S
C1052 C1051 1.387 . S
C1052 C1055 1.387 . S
H1053 C1049 0.950 . S
H1054 C1051 0.950 . S
C1055 C1046 1.390 . S
C1055 H1048 0.950 . S
C1055 C1052 1.387 . S
C1056 C1057 1.387 . S
C1056 H1060 0.950 . S
C1056 C1065 1.390 . S
C1057 C1056 1.387 . S
C1057 C1059 1.387 . S
H1058 C1065 0.950 . S
C1059 C1057 1.387 . S
C1059 C1061 1.390 . S
C1059 H1063 0.950 . S
H1060 C1056 0.950 . S
C1061 C1059 1.390 . S
C1061 C1062 1.387 . S
C1061 H1064 0.950 . S
C1062 C1061 1.387 . S
C1062 C1065 1.387 . S
H1063 C1059 0.950 . S
H1064 C1061 0.950 . S
C1065 C1056 1.390 . S
C1065 H1058 0.950 . S
C1065 C1062 1.387 . S
C1066 C1067 1.387 . S
C1066 H1070 0.950 . S
C1066 C1075 1.390 . S
C1067 C1066 1.387 . S
C1067 C1069 1.387 . S
H1068 C1075 0.950 . S
C1069 C1067 1.387 . S
C1069 C1071 1.390 . S
C1069 H1073 0.950 . S
H1070 C1066 0.950 . S
C1071 C1069 1.390 . S
C1071 C1072 1.387 . S
C1071 H1074 0.950 . S
C1072 C1071 1.387 . S
C1072 C1075 1.387 . S
H1073 C1069 0.950 . S
H1074 C1071 0.950 . S
C1075 C1066 1.390 . S
C1075 H1068 0.950 . S
C1075 C1072 1.387 . S
C1076 C1077 1.387 . S
C1076 H1080 0.950 . S
C1076 C1085 1.390 . S
C1077 C1076 1.387 . S
C1077 C1079 1.387 . S
H1078 C1085 0.950 . S
C1079 C1077 1.387 . S
C1079 C1081 1.390 . S
C1079 H1083 0.950 . S
H1080 C1076 0.950 . S
C1081 C1079 1.390 . S
C1081 C1082 1.387 . S
C1081 H1084 0.950 . S
C1082 C1081 1.387 . S
C1082 C1085 1.387 . S
H1083 C1079 0.950 . S
H1084 C1081 0.950 . S
C1085 C1076 1.390 . S
C1085 H1078 0.950 . S
C1085 C1082 1.387 . S
C1086 C1087 1.387 . S
C1086 H1090 0.950 . S
C1086 C1095 1.390 . S
C1087 C1086 1.387 . S
C1087 C1089 1.381 1_455 S
H1088 C1095 0.950 . S
C1089 C1087 1.381 1_655 S
C1089 C1091 1.395 . S
C1089 H1093 0.952 . S
H1090 C1086 0.950 . S
C1091 C1089 1.395 . S
C1091 C1092 1.387 1_655 S
C1091 H1094 0.950 . S
C1092 C1091 1.387 1_455 S
C1092 C1095 1.387 . S
H1093 C1089 0.952 . S
H1094 C1091 0.950 . S
C1095 C1086 1.390 . S
C1095 H1088 0.950 . S
C1095 C1092 1.387 . S
C1096 C1097 1.387 . S
C1096 H1100 0.950 . S
C1096 C1105 1.390 . S
C1097 C1096 1.387 . S
C1097 C1099 1.387 . S
H1098 C1105 0.950 . S
C1099 C1097 1.387 . S
C1099 C1101 1.390 . S
C1099 H1103 0.950 . S
H1100 C1096 0.950 . S
C1101 C1099 1.390 . S
C1101 C1102 1.387 . S
C1101 H1104 0.950 . S
C1102 C1101 1.387 . S
C1102 C1105 1.387 . S
H1103 C1099 0.950 . S
H1104 C1101 0.950 . S
C1105 C1096 1.390 . S
C1105 H1098 0.950 . S
C1105 C1102 1.387 . S
C1106 C1107 1.387 1_545 S
C1106 H1110 0.950 . S
C1106 C1115 1.390 . S
C1107 C1106 1.387 1_565 S
C1107 C1109 1.387 . S
H1108 C1115 0.950 . S
C1109 C1107 1.387 . S
C1109 C1111 1.390 . S
C1109 H1113 0.950 . S
H1110 C1106 0.950 . S
C1111 C1109 1.390 . S
C1111 C1112 1.387 . S
C1111 H1114 0.950 . S
C1112 C1111 1.387 . S
C1112 C1115 1.387 1_565 S
H1113 C1109 0.950 . S
H1114 C1111 0.950 . S
C1115 C1106 1.390 . S
C1115 H1108 0.950 . S
C1115 C1112 1.387 1_545 S
C1116 C1117 1.387 1_545 S
C1116 H1120 0.950 . S
C1116 C1125 1.390 . S
C1117 C1116 1.387 1_565 S
C1117 C1119 1.387 . S
H1118 C1125 0.950 . S
C1119 C1117 1.387 . S
C1119 C1121 1.390 . S
C1119 H1123 0.950 . S
H1120 C1116 0.950 . S
C1121 C1119 1.390 . S
C1121 C1122 1.387 . S
C1121 H1124 0.950 . S
C1122 C1121 1.387 . S
C1122 C1125 1.387 1_565 S
H1123 C1119 0.950 . S
H1124 C1121 0.950 . S
C1125 C1116 1.390 . S
C1125 H1118 0.950 . S
C1125 C1122 1.387 1_545 S
C1126 C1127 1.394 1_655 S
C1126 H1130 0.961 . S
C1126 C1135 1.375 . S
C1127 C1126 1.394 1_455 S
C1127 C1129 1.387 . S
H1128 C1135 0.950 . S
C1129 C1127 1.387 . S
C1129 C1131 1.390 . S
C1129 H1133 0.950 . S
H1130 C1126 0.961 . S
C1131 C1129 1.390 . S
C1131 C1132 1.387 . S
C1131 H1134 0.950 . S
C1132 C1131 1.387 . S
C1132 C1135 1.387 1_455 S
H1133 C1129 0.950 . S
H1134 C1131 0.950 . S
C1135 C1126 1.375 . S
C1135 H1128 0.950 . S
C1135 C1132 1.387 1_655 S
C1136 C1137 1.387 . S
C1136 H1140 0.950 . S
C1136 C1145 1.390 . S
C1137 C1136 1.387 . S
C1137 C1139 1.387 . S
H1138 C1145 0.950 . S
C1139 C1137 1.387 . S
C1139 C1141 1.390 . S
C1139 H1143 0.950 . S
H1140 C1136 0.950 . S
C1141 C1139 1.390 . S
C1141 C1142 1.387 . S
C1141 H1144 0.950 . S
C1142 C1141 1.387 . S
C1142 C1145 1.387 . S
H1143 C1139 0.950 . S
H1144 C1141 0.950 . S
C1145 C1136 1.390 . S
C1145 H1138 0.950 . S
C1145 C1142 1.387 . S
C1146 C1147 1.387 . S
C1146 H1150 0.950 . S
C1146 C1155 1.390 . S
C1147 C1146 1.387 . S
C1147 C1149 1.387 . S
H1148 C1155 0.950 . S
C1149 C1147 1.387 . S
C1149 C1151 1.390 . S
C1149 H1153 0.950 . S
H1150 C1146 0.950 . S
C1151 C1149 1.390 . S
C1151 C1152 1.387 . S
C1151 H1154 0.950 . S
C1152 C1151 1.387 . S
C1152 C1155 1.387 . S
H1153 C1149 0.950 . S
H1154 C1151 0.950 . S
C1155 C1146 1.390 . S
C1155 H1148 0.950 . S
C1155 C1152 1.387 . S
C1156 C1157 1.387 . S
C1156 H1160 0.950 . S
C1156 C1165 1.390 . S
C1157 C1156 1.387 . S
C1157 C1159 1.387 . S
H1158 C1165 0.950 . S
C1159 C1157 1.387 . S
C1159 C1161 1.390 . S
C1159 H1163 0.950 . S
H1160 C1156 0.950 . S
C1161 C1159 1.390 . S
C1161 C1162 1.387 . S
C1161 H1164 0.950 . S
C1162 C1161 1.387 . S
C1162 C1165 1.387 . S
H1163 C1159 0.950 . S
H1164 C1161 0.950 . S
C1165 C1156 1.390 . S
C1165 H1158 0.950 . S
C1165 C1162 1.387 . S
C1166 C1167 1.387 . S
C1166 H1170 0.950 . S
C1166 C1175 1.390 . S
C1167 C1166 1.387 . S
C1167 C1169 1.387 . S
H1168 C1175 0.950 . S
C1169 C1167 1.387 . S
C1169 C1171 1.390 . S
C1169 H1173 0.950 . S
H1170 C1166 0.950 . S
C1171 C1169 1.390 . S
C1171 C1172 1.387 . S
C1171 H1174 0.950 . S
C1172 C1171 1.387 . S
C1172 C1175 1.387 . S
H1173 C1169 0.950 . S
H1174 C1171 0.950 . S
C1175 C1166 1.390 . S
C1175 H1168 0.950 . S
C1175 C1172 1.387 . S
C1176 C1177 1.387 . S
C1176 H1180 0.950 . S
C1176 C1185 1.390 . S
C1177 C1176 1.387 . S
C1177 C1179 1.387 1_545 S
H1178 C1185 0.950 . S
C1179 C1177 1.387 1_565 S
C1179 C1181 1.390 . S
C1179 H1183 0.950 . S
H1180 C1176 0.950 . S
C1181 C1179 1.390 . S
C1181 C1182 1.387 1_565 S
C1181 H1184 0.950 . S
C1182 C1181 1.387 1_545 S
C1182 C1185 1.387 . S
H1183 C1179 0.950 . S
H1184 C1181 0.950 . S
C1185 C1176 1.390 . S
C1185 H1178 0.950 . S
C1185 C1182 1.387 . S
C1186 C1187 1.387 . S
C1186 H1190 0.950 . S
C1186 C1195 1.390 . S
C1187 C1186 1.387 . S
C1187 C1189 1.387 1_655 S
H1188 C1195 0.950 . S
C1189 C1187 1.387 1_455 S
C1189 C1191 1.390 . S
C1189 H1193 0.950 . S
H1190 C1186 0.950 . S
C1191 C1189 1.390 . S
C1191 C1192 1.387 1_455 S
C1191 H1194 0.950 . S
C1192 C1191 1.387 1_655 S
C1192 C1195 1.387 . S
H1193 C1189 0.950 . S
H1194 C1191 0.950 . S
C1195 C1186 1.390 . S
C1195 H1188 0.950 . S
C1195 C1192 1.387 . S
C1196 C1197 1.387 . S
C1196 H1200 0.950 . S
C1196 C1205 1.390 . S
C1197 C1196 1.387 . S
C1197 C1199 1.387 . S
H1198 C1205 0.950 . S
C1199 C1197 1.387 . S
C1199 C1201 1.390 . S
C1199 H1203 0.950 . S
H1200 C1196 0.950 . S
C1201 C1199 1.390 . S
C1201 C1202 1.387 . S
C1201 H1204 0.950 . S
C1202 C1201 1.387 . S
C1202 C1205 1.387 . S
H1203 C1199 0.950 . S
H1204 C1201 0.950 . S
C1205 C1196 1.390 . S
C1205 H1198 0.950 . S
C1205 C1202 1.387 . S
C1206 C1207 1.387 . S
C1206 H1210 0.950 . S
C1206 C1215 1.390 . S
C1207 C1206 1.387 . S
C1207 C1209 1.387 . S
H1208 C1215 0.950 . S
C1209 C1207 1.387 . S
C1209 C1211 1.390 . S
C1209 H1213 0.950 . S
H1210 C1206 0.950 . S
C1211 C1209 1.390 . S
C1211 C1212 1.387 . S
C1211 H1214 0.950 . S
C1212 C1211 1.387 . S
C1212 C1215 1.387 . S
H1213 C1209 0.950 . S
H1214 C1211 0.950 . S
C1215 C1206 1.390 . S
C1215 H1208 0.950 . S
C1215 C1212 1.387 . S
C1216 C1217 1.387 . S
C1216 H1220 0.950 . S
C1216 C1225 1.390 . S
C1217 C1216 1.387 . S
C1217 C1219 1.387 . S
H1218 C1225 0.950 . S
C1219 C1217 1.387 . S
C1219 C1221 1.390 . S
C1219 H1223 0.950 . S
H1220 C1216 0.950 . S
C1221 C1219 1.390 . S
C1221 C1222 1.387 . S
C1221 H1224 0.950 . S
C1222 C1221 1.387 . S
C1222 C1225 1.387 . S
H1223 C1219 0.950 . S
H1224 C1221 0.950 . S
C1225 C1216 1.390 . S
C1225 H1218 0.950 . S
C1225 C1222 1.387 . S
C1226 C1227 1.387 . S
C1226 H1230 0.950 . S
C1226 C1235 1.390 . S
C1227 C1226 1.387 . S
C1227 C1229 1.387 . S
H1228 C1235 0.950 . S
C1229 C1227 1.387 . S
C1229 C1231 1.390 . S
C1229 H1233 0.950 . S
H1230 C1226 0.950 . S
C1231 C1229 1.390 . S
C1231 C1232 1.387 . S
C1231 H1234 0.950 . S
C1232 C1231 1.387 . S
C1232 C1235 1.387 . S
H1233 C1229 0.950 . S
H1234 C1231 0.950 . S
C1235 C1226 1.390 . S
C1235 H1228 0.950 . S
C1235 C1232 1.387 . S
C1236 C1237 1.387 . S
C1236 H1240 0.950 . S
C1236 C1245 1.390 . S
C1237 C1236 1.387 . S
C1237 C1239 1.387 . S
H1238 C1245 0.950 . S
C1239 C1237 1.387 . S
C1239 C1241 1.390 . S
C1239 H1243 0.950 . S
H1240 C1236 0.950 . S
C1241 C1239 1.390 . S
C1241 C1242 1.387 . S
C1241 H1244 0.950 . S
C1242 C1241 1.387 . S
C1242 C1245 1.387 . S
H1243 C1239 0.950 . S
H1244 C1241 0.950 . S
C1245 C1236 1.390 . S
C1245 H1238 0.950 . S
C1245 C1242 1.387 . S
C1246 C1247 1.387 . S
C1246 H1250 0.950 . S
C1246 C1255 1.390 . S
C1247 C1246 1.387 . S
C1247 C1249 1.387 . S
H1248 C1255 0.950 . S
C1249 C1247 1.387 . S
C1249 C1251 1.390 . S
C1249 H1253 0.950 . S
H1250 C1246 0.950 . S
C1251 C1249 1.390 . S
C1251 C1252 1.387 . S
C1251 H1254 0.950 . S
C1252 C1251 1.387 . S
C1252 C1255 1.387 . S
H1253 C1249 0.950 . S
H1254 C1251 0.950 . S
C1255 C1246 1.390 . S
C1255 H1248 0.950 . S
C1255 C1252 1.387 . S
C1256 C1257 1.387 . S
C1256 H1260 0.950 . S
C1256 C1265 1.390 . S
C1257 C1256 1.387 . S
C1257 C1259 1.387 . S
H1258 C1265 0.950 . S
C1259 C1257 1.387 . S
C1259 C1261 1.390 . S
C1259 H1263 0.950 . S
H1260 C1256 0.950 . S
C1261 C1259 1.390 . S
C1261 C1262 1.387 . S
C1261 H1264 0.950 . S
C1262 C1261 1.387 . S
C1262 C1265 1.387 . S
H1263 C1259 0.950 . S
H1264 C1261 0.950 . S
C1265 C1256 1.390 . S
C1265 H1258 0.950 . S
C1265 C1262 1.387 . S
C1266 C1267 1.387 . S
C1266 H1270 0.950 . S
C1266 C1275 1.390 . S
C1267 C1266 1.387 . S
C1267 C1269 1.387 1_655 S
H1268 C1275 0.950 . S
C1269 C1267 1.387 1_455 S
C1269 C1271 1.390 . S
C1269 H1273 0.950 . S
H1270 C1266 0.950 . S
C1271 C1269 1.390 . S
C1271 C1272 1.387 1_455 S
C1271 H1274 0.950 . S
C1272 C1271 1.387 1_655 S
C1272 C1275 1.387 . S
H1273 C1269 0.950 . S
H1274 C1271 0.950 . S
C1275 C1266 1.390 . S
C1275 H1268 0.950 . S
C1275 C1272 1.387 . S
C1276 C1277 1.387 . S
C1276 H1280 0.950 . S
C1276 C1285 1.390 . S
C1277 C1276 1.387 . S
C1277 C1279 1.387 . S
H1278 C1285 0.950 . S
C1279 C1277 1.387 . S
C1279 C1281 1.390 . S
C1279 H1283 0.950 . S
H1280 C1276 0.950 . S
C1281 C1279 1.390 . S
C1281 C1282 1.387 . S
C1281 H1284 0.950 . S
C1282 C1281 1.387 . S
C1282 C1285 1.387 . S
H1283 C1279 0.950 . S
H1284 C1281 0.950 . S
C1285 C1276 1.390 . S
C1285 H1278 0.950 . S
C1285 C1282 1.387 . S
C1286 C1287 1.387 1_565 S
C1286 H1290 0.950 . S
C1286 C1295 1.390 . S
C1287 C1286 1.387 1_545 S
C1287 C1289 1.387 . S
H1288 C1295 0.950 . S
C1289 C1287 1.387 . S
C1289 C1291 1.390 . S
C1289 H1293 0.950 . S
H1290 C1286 0.950 . S
C1291 C1289 1.390 . S
C1291 C1292 1.387 . S
C1291 H1294 0.950 . S
C1292 C1291 1.387 . S
C1292 C1295 1.387 1_545 S
H1293 C1289 0.950 . S
H1294 C1291 0.950 . S
C1295 C1286 1.390 . S
C1295 H1288 0.950 . S
C1295 C1292 1.387 1_565 S
C577 C8 1.550 1_655 S
C582 C421 1.523 . S
C587 C22 1.552 . S
C592 C446 1.532 . S
C602 C457 1.521 . S
C597 C37 1.551 1_545 S
C607 C36 1.546 1_565 S
C612 C482 1.528 . S
C617 C9 1.554 1_455 S
C622 C500 1.534 . S
C627 C23 1.552 . S
C632 C511 1.524 . S
C637 C50 1.521 . S
C642 C493 1.508 . S
C652 C518 1.515 . S
C647 C64 1.521 . S
C662 C475 1.520 . S
C657 C79 1.522 . S
C667 C78 1.547 . S
C672 C464 1.504 . S
C682 C428 1.530 . S
C677 C51 1.522 . S
C687 C65 1.522 . S
C692 C439 1.515 . S
C697 C92 1.552 . S
C702 C529 1.522 . S
C707 C106 1.551 . S
C712 C554 1.531 . S
C722 C565 1.523 . S
C717 C121 1.552 . S
C727 C120 1.551 . S
C732 C266 1.530 . S
C737 C93 1.551 . S
C742 C284 1.531 . S
C747 C107 1.552 . S
C752 C295 1.522 . S
C757 C134 1.521 . S
C762 C277 1.514 . S
C767 C148 1.523 . S
C772 C302 1.516 . S
C782 C259 1.515 . S
C777 C163 1.522 . S
C792 C572 1.515 . S
C787 C162 1.522 . S
C802 C536 1.516 . S
C797 C135 1.522 . S
C812 C547 1.515 . S
C807 C149 1.524 . S
C817 C176 1.551 . S
C822 C313 1.523 . S
C827 C190 1.551 . S
C832 C338 1.530 . S
C837 C205 1.551 . S
C842 C349 1.523 . S
C847 C204 1.552 . S
C852 C374 1.533 . S
C862 C392 1.531 . S
C857 C177 1.553 . S
C872 C403 1.523 . S
C867 C191 1.553 . S
C882 C385 1.514 . S
C877 C218 1.522 . S
C892 C410 1.516 . S
C887 C232 1.522 . S
C897 C247 1.522 . S
C902 C367 1.515 . S
C912 C356 1.515 . S
C907 C246 1.522 . S
C917 C219 1.523 . S
C922 C320 1.515 . S
C932 C331 1.514 . S
C927 C233 1.522 . S
C942 C268 1.443 . S
C937 C6 1.464 . S
C947 C20 1.468 . S
C952 C286 1.439 . S
C962 C296 1.444 . S
C957 C35 1.465 . S
C972 C314 1.444 . S
C967 C34 1.463 . S
C982 C340 1.440 . S
C977 C7 1.469 . S
C992 C350 1.446 . S
C987 C21 1.467 . S
C997 C48 1.489 . S
C1002 C358 1.449 . S
C1007 C62 1.487 . S
C1012 C322 1.441 . S
C1017 C77 1.485 . S
C1022 C332 1.447 . S
C1027 C76 1.486 . S
C1032 C278 1.450 . S
C1042 C304 1.441 . S
C1037 C49 1.487 . S
C1047 C63 1.485 . S
C1052 C260 1.448 . S
C1062 C376 1.443 . S
C1057 C90 1.469 . S
C1067 C104 1.466 . S
C1072 C394 1.439 . S
C1077 C119 1.467 . S
C1082 C404 1.444 . S
C1092 C422 1.442 . S
C1087 C118 1.459 . S
C1097 C91 1.468 . S
C1102 C448 1.439 . S
C1107 C105 1.467 . S
C1112 C458 1.448 . S
C1117 C132 1.487 . S
C1122 C466 1.453 . S
C1127 C146 1.485 . S
C1132 C430 1.430 . S
C1142 C440 1.449 . S
C1137 C161 1.487 . S
C1147 C160 1.484 . S
C1152 C386 1.448 . S
C1157 C133 1.486 . S
C1162 C412 1.442 . S
C1172 C368 1.452 . S
C1167 C147 1.487 . S
C1182 C484 1.439 . S
C1177 C174 1.463 . S
C1187 C188 1.465 . S
C1192 C502 1.439 . S
C1197 C203 1.465 . S
C1202 C512 1.444 . S
C1212 C530 1.443 . S
C1207 C202 1.464 . S
C1222 C556 1.442 . S
C1217 C175 1.468 . S
C1227 C189 1.467 . S
C1232 C566 1.447 . S
C1237 C216 1.489 . S
C1242 C574 1.444 . S
C1247 C230 1.487 . S
C1252 C538 1.439 . S
C1262 C548 1.449 . S
C1257 C245 1.485 . S
C1272 C494 1.428 1_655 S
C1267 C244 1.479 . S
C1282 C520 1.441 . S
C1277 C217 1.486 . S
C1287 C231 1.485 . S
C1292 C476 1.465 1_545 S
