# Generated by pormake.
# Topology anh, (6,3)-cn, num edge types: 1
# Building blocks:
#     Node 0, Type 0, BuildingBlock: BETDAH_clean_sbu_0, # of connection points: 6
#     Node 1, Type 0, BuildingBlock: BETDAH_clean_sbu_0, # of connection points: 6
#     Node 2, Type 0, BuildingBlock: BETDAH_clean_sbu_0, # of connection points: 6
#     Node 3, Type 1, BuildingBlock: BETDAH_clean_linker_0, # of connection points: 3
#     Node 4, Type 1, BuildingBlock: BETDAH_clean_linker_0, # of connection points: 3
#     Node 5, Type 1, BuildingBlock: BETDAH_clean_linker_0, # of connection points: 3
#     Node 6, Type 1, BuildingBlock: BETDAH_clean_linker_0, # of connection points: 3
#     Node 7, Type 1, BuildingBlock: BETDAH_clean_linker_0, # of connection points: 3
#     Node 8, Type 1, BuildingBlock: BETDAH_clean_linker_0, # of connection points: 3
#     Edge 9, Type (0, 1), BuildingBlock: KIFKEQ_clean_linker_1, # of connection points: 2
#     Edge 10, Type (0, 1), BuildingBlock: KIFKEQ_clean_linker_1, # of connection points: 2
#     Edge 11, Type (0, 1), BuildingBlock: KIFKEQ_clean_linker_1, # of connection points: 2
#     Edge 12, Type (0, 1), BuildingBlock: KIFKEQ_clean_linker_1, # of connection points: 2
#     Edge 13, Type (0, 1), BuildingBlock: KIFKEQ_clean_linker_1, # of connection points: 2
#     Edge 14, Type (0, 1), BuildingBlock: KIFKEQ_clean_linker_1, # of connection points: 2
#     Edge 15, Type (0, 1), BuildingBlock: KIFKEQ_clean_linker_1, # of connection points: 2
#     Edge 16, Type (0, 1), BuildingBlock: KIFKEQ_clean_linker_1, # of connection points: 2
#     Edge 17, Type (0, 1), BuildingBlock: KIFKEQ_clean_linker_1, # of connection points: 2
#     Edge 18, Type (0, 1), BuildingBlock: KIFKEQ_clean_linker_1, # of connection points: 2
#     Edge 19, Type (0, 1), BuildingBlock: KIFKEQ_clean_linker_1, # of connection points: 2
#     Edge 20, Type (0, 1), BuildingBlock: KIFKEQ_clean_linker_1, # of connection points: 2
#     Edge 21, Type (0, 1), BuildingBlock: KIFKEQ_clean_linker_1, # of connection points: 2
#     Edge 22, Type (0, 1), BuildingBlock: KIFKEQ_clean_linker_1, # of connection points: 2
#     Edge 23, Type (0, 1), BuildingBlock: KIFKEQ_clean_linker_1, # of connection points: 2
#     Edge 24, Type (0, 1), BuildingBlock: KIFKEQ_clean_linker_1, # of connection points: 2
#     Edge 25, Type (0, 1), BuildingBlock: KIFKEQ_clean_linker_1, # of connection points: 2
#     Edge 26, Type (0, 1), BuildingBlock: KIFKEQ_clean_linker_1, # of connection points: 2
# Relax obj value: 0.147
# Max RMSD: 0.184
# Mean RMSD: 0.110
data_MOF--net-anh--node1-BETDAH_clean_sbu_0--node2-BETDAH_clean_linker_0--edge1-KIFKEQ_clean_linker_1
_symmetry_space_group_name_H-M    P1
_symmetry_Int_Tables_number       1
_symmetry_cell_setting            triclinic
loop_
_symmetry_equiv_pos_as_xyz
'x, y, z'
_cell_length_a     30.755545
_cell_length_b     38.71671
_cell_length_c     49.652638
_cell_angle_alpha  93.826955
_cell_angle_beta   90.06397
_cell_angle_gamma 129.70294
loop_
_atom_site_label
_atom_site_type_symbol
_atom_site_fract_x
_atom_site_fract_y
_atom_site_fract_z
_atom_type_partial_charge
Ho0 Ho 0.17329 0.55072 0.15974 0.0
Ho1 Ho 0.09279 0.56866 0.17384 0.0
C2 C 0.22341 0.65407 0.16619 0.0
C3 C 0.23718 0.53624 0.13828 0.0
C4 C 0.2715 0.54208 0.11563 0.0
C5 C 0.25065 0.53363 0.08871 0.0
C6 C 0.27123 0.52184 0.06821 0.0
C7 C 0.31244 0.51789 0.07442 0.0
C8 C 0.33836 0.53239 0.10072 0.0
C9 C 0.31797 0.54438 0.12114 0.0
C10 C 0.15143 0.54739 0.21276 0.0
C11 C 1.04398 0.46777 0.16785 0.0
C12 C 1.02833 0.58391 0.19327 0.0
C13 C 0.96631 0.55309 0.19124 0.0
C14 C 0.93567 0.5652 0.20272 0.0
C15 C 0.8763 0.53451 0.20045 0.0
C16 C 0.84718 0.49135 0.18684 0.0
C17 C 0.87857 0.47957 0.17571 0.0
C18 C 0.93735 0.51007 0.1779 0.0
C19 C 1.08878 0.54334 0.12078 0.0
O20 O 0.23196 0.62586 0.15737 0.0
O21 O 0.1742 0.63991 0.17495 0.0
O22 O 0.25692 0.5699 0.15652 0.0
O23 O 0.18263 0.51078 0.13277 0.0
O24 O 0.16182 0.52328 0.20019 0.0
O25 O 0.15806 0.57461 0.19728 0.0
O26 O 1.04212 0.49653 0.18231 0.0
O27 O 1.08714 0.48209 0.15282 0.0
O28 O 1.05267 0.59821 0.17036 0.0
O29 O 1.04948 0.57001 0.20752 0.0
O30 O 1.04493 0.53098 0.13367 0.0
O31 O 0.13231 0.56969 0.1363 0.0
H32 H 0.21483 0.53173 0.08389 0.0
H33 H 0.2513 0.5119 0.04803 0.0
H34 H 0.37011 0.52977 0.10636 0.0
H35 H 0.33457 0.55069 0.14176 0.0
H36 H 0.95751 0.59824 0.21325 0.0
H37 H 0.85323 0.54453 0.2092 0.0
H38 H 0.85781 0.44719 0.16449 0.0
H39 H 0.9603 0.50012 0.1689 0.0
Ho40 Ho 0.71224 0.07542 0.48646 0.0
Ho41 Ho 0.62695 0.08876 0.47489 0.0
C42 C 0.57803 0.98862 0.47576 0.0
C43 C 0.76551 0.05084 0.50641 0.0
C44 C 0.75149 0.00829 0.5131 0.0
C45 C 0.77171 0.00683 0.53795 0.0
C46 C 0.76059 0.96737 0.54446 0.0
C47 C 0.72926 0.92853 0.52614 0.0
C48 C 0.708 0.92988 0.50144 0.0
C49 C 0.71879 0.96928 0.49504 0.0
C50 C 0.69813 0.08294 0.43422 0.0
C51 C 0.76242 0.17617 0.48349 0.0
C52 C 0.57282 0.11446 0.45812 0.0
C53 C 0.57914 0.15555 0.46373 0.0
C54 C 0.62623 0.19748 0.45566 0.0
C55 C 0.6332 0.23639 0.46285 0.0
C56 C 0.59338 0.2343 0.47835 0.0
C57 C 0.54568 0.19209 0.48584 0.0
C58 C 0.53854 0.15321 0.47849 0.0
C59 C 0.64173 0.08184 0.5272 0.0
O60 O 0.62714 1.00564 0.48797 0.0
O61 O 0.57059 0.01452 0.46439 0.0
O62 O 0.76395 0.05608 0.48076 0.0
O63 O 0.74367 0.06489 0.52132 0.0
O64 O 0.74651 0.0993 0.44569 0.0
O65 O 0.65939 0.06134 0.45045 0.0
O66 O 0.71115 0.15925 0.47446 0.0
O67 O 0.77269 0.15055 0.49256 0.0
O68 O 0.55762 0.08962 0.47835 0.0
O69 O 0.61196 0.11823 0.44452 0.0
O70 O 0.59365 0.06608 0.51591 0.0
O71 O 0.68006 0.10317 0.51081 0.0
H72 H 0.79653 0.03641 0.55229 0.0
H73 H 0.77668 0.96737 0.56387 0.0
H74 H 0.68425 0.90087 0.48669 0.0
H75 H 0.70219 0.96935 0.4758 0.0
H76 H 0.65816 0.20047 0.4441 0.0
H77 H 0.66993 0.26812 0.4563 0.0
H78 H 0.51449 0.18913 0.49807 0.0
H79 H 0.50178 0.12134 0.48492 0.0
Ho80 Ho 0.66962 0.60578 0.84449 0.0
Ho81 Ho 0.58309 0.50348 0.8406 0.0
C82 C 0.53392 0.5547 0.84534 0.0
C83 C 0.72924 0.69019 0.83712 0.0
C84 C 0.71886 0.71977 0.82799 0.0
C85 C 0.67041 0.70247 0.81174 0.0
C86 C 0.66159 0.73136 0.80316 0.0
C87 C 0.701 0.77798 0.81077 0.0
C88 C 0.74929 0.79492 0.82718 0.0
C89 C 0.75811 0.76605 0.83566 0.0
C90 C 0.64659 0.56776 0.8915 0.0
C91 C 0.71962 0.55451 0.84373 0.0
C92 C 0.52755 0.41908 0.84634 0.0
C93 C 0.53948 0.38799 0.84045 0.0
C94 C 0.58364 0.39369 0.8546 0.0
C95 C 0.59653 0.36568 0.8476 0.0
C96 C 0.56575 0.33161 0.82627 0.0
C97 C 0.52095 0.32538 0.81251 0.0
C98 C 0.50778 0.35315 0.81963 0.0
C99 C 0.60549 0.53999 0.79278 0.0
O100 O 0.58464 0.59038 0.83837 0.0
O101 O 0.52491 0.51784 0.85132 0.0
O102 O 0.70968 0.67403 0.86043 0.0
O103 O 0.7205 0.6601 0.81883 0.0
O104 O 0.69701 0.60304 0.88609 0.0
O105 O 0.61185 0.55633 0.87239 0.0
O106 O 0.66657 0.51691 0.84502 0.0
O107 O 0.73187 0.59366 0.84113 0.0
O108 O 0.51969 0.43353 0.82534 0.0
O109 O 0.55866 0.45097 0.86588 0.0
O110 O 0.55648 0.5039 0.79874 0.0
O111 O 0.64128 0.55303 0.8119 0.0
H112 H 0.63956 0.66671 0.80563 0.0
H113 H 0.62421 0.71723 0.79037 0.0
H114 H 0.77991 0.83044 0.83389 0.0
H115 H 0.79557 0.77989 0.84833 0.0
H116 H 0.60899 0.42023 0.87077 0.0
H117 H 0.63154 0.37145 0.85842 0.0
H118 H 0.49604 0.29897 0.79623 0.0
H119 H 0.47332 0.34785 0.80854 0.0
H120 H 0.54742 0.98076 0.24131 0.0
H121 H 0.6917 0.111 0.2196 0.0
H122 H 0.57765 1.0054 0.15738 0.0
C123 C 0.57189 1.00332 0.22578 0.0
C124 C 0.556 0.98727 0.19838 0.0
C125 C 0.62063 0.04775 0.2335 0.0
C126 C 0.65398 0.07679 0.21357 0.0
C127 C 0.63814 0.06151 0.18599 0.0
C128 C 0.58953 0.01684 0.17864 0.0
N129 N 0.66985 0.08976 0.16504 0.0
C130 C 0.71661 0.13543 0.16895 0.0
H131 H 0.64678 0.49385 0.59467 0.0
H132 H 0.68022 0.61894 0.58628 0.0
H133 H 0.6613 0.53856 0.51588 0.0
C134 C 0.65414 0.5188 0.58212 0.0
C135 C 0.65355 0.51185 0.55399 0.0
C136 C 0.6643 0.55755 0.59414 0.0
C137 C 0.67227 0.58895 0.57736 0.0
C138 C 0.67097 0.5819 0.54905 0.0
C139 C 0.66227 0.54373 0.53768 0.0
N140 N 0.67825 0.6122 0.5312 0.0
C141 C 0.68462 0.65043 0.53892 0.0
H142 H 1.01506 0.5362 0.92237 0.0
H143 H 0.16456 0.55237 0.90774 0.0
H144 H 1.07868 0.55986 0.84265 0.0
C145 C 1.04515 0.54108 0.90831 0.0
C146 C 1.0403 0.54724 0.88121 0.0
C147 C 1.08968 0.54301 0.91799 0.0
C148 C 0.13029 0.55093 0.90025 0.0
C149 C 0.1263 0.55669 0.8729 0.0
C150 C 1.08162 0.55534 0.86367 0.0
N151 N 0.16621 0.56407 0.85412 0.0
C152 C 0.20973 0.56235 0.85897 0.0
H153 H 0.26066 0.66494 0.4096 0.0
H154 H 0.10712 0.53635 0.42857 0.0
H155 H 0.22009 0.63893 0.49229 0.0
C156 C 0.23228 0.64218 0.42429 0.0
C157 C 0.24623 0.65699 0.45181 0.0
C158 C 0.18162 0.59916 0.41551 0.0
C159 C 0.14628 0.56959 0.43499 0.0
C160 C 0.16056 0.58383 0.46279 0.0
C161 C 0.20979 0.62778 0.47093 0.0
N162 N 0.12602 0.55553 0.48318 0.0
C163 C 1.0822 0.50925 0.47902 0.0
H164 H 0.65941 0.14406 0.72406 0.0
H165 H 0.67411 0.04356 0.73872 0.0
H166 H 0.65366 0.10854 0.80498 0.0
C167 C 0.66202 0.12513 0.73812 0.0
C168 C 0.65575 0.13035 0.76573 0.0
C169 C 0.66905 0.09419 0.72822 0.0
C170 C 0.66902 0.06764 0.74625 0.0
C171 C 0.66343 0.073 0.77404 0.0
C172 C 0.65735 0.10447 0.78351 0.0
N173 N 0.66372 0.04766 0.79328 0.0
C174 C 0.66333 0.01194 0.78721 0.0
H175 H 0.58645 0.36695 0.05007 0.0
H176 H 0.42987 0.31098 0.00705 0.0
H177 H 0.42787 0.27257 0.08636 0.0
C178 C 0.54055 0.34376 0.04852 0.0
C179 C 0.51046 0.31867 0.07039 0.0
C180 C 0.51201 0.3417 0.02562 0.0
C181 C 0.45264 0.31241 0.02432 0.0
C182 C 0.42217 0.28755 0.04615 0.0
C183 C 0.45116 0.29029 0.06904 0.0
N184 N 0.36352 0.2649 0.04672 0.0
C185 C 0.34352 0.28652 0.03893 0.0
H186 H 0.2297 0.44015 0.04372 0.0
H187 H 0.40954 0.5305 0.0646 0.0
H188 H 0.23442 0.38304 0.02529 0.0
H189 H 0.41365 0.47238 0.04724 0.0
H190 H 0.41138 0.36239 0.01361 0.0
H191 H 0.40304 0.42083 0.01161 0.0
H192 H 0.24558 0.33805 0.05156 0.0
H193 H 0.25381 0.27947 0.05297 0.0
C194 C 0.27072 0.44857 0.04355 0.0
C195 C 0.31917 0.48976 0.05612 0.0
C196 C 0.27316 0.41543 0.03329 0.0
C197 C 0.324 0.42269 0.03545 0.0
C198 C 0.37368 0.46559 0.0453 0.0
C199 C 0.37129 0.49885 0.05547 0.0
C200 C 0.3742 0.35627 0.02119 0.0
C201 C 0.33295 0.31662 0.03332 0.0
C202 C 0.36962 0.38982 0.02021 0.0
C203 C 0.32381 0.38423 0.0315 0.0
C204 C 0.28096 0.3432 0.04228 0.0
C205 C 0.28564 0.3097 0.04324 0.0
H206 H 0.87485 0.22323 0.49698 0.0
H207 H 0.75739 0.24047 0.46853 0.0
H208 H 0.9528 0.30334 0.49461 0.0
H209 H 0.83527 0.32074 0.46669 0.0
H210 H 0.99589 0.45483 0.44111 0.0
H211 H 0.91833 0.37343 0.44167 0.0
H212 H 0.99042 0.37528 0.51712 0.0
H213 H 1.06797 0.45612 0.51602 0.0
C214 C 0.86551 0.2441 0.4904 0.0
C215 C 0.80972 0.22528 0.48298 0.0
C216 C 0.91027 0.29014 0.48912 0.0
C217 C 0.90041 0.31858 0.48043 0.0
C218 C 0.84457 0.29976 0.47308 0.0
C219 C 0.7998 0.25371 0.47434 0.0
C220 C 0.99497 0.43747 0.45762 0.0
C221 C 1.03749 0.46116 0.47847 0.0
C222 C 0.95053 0.39107 0.4581 0.0
C223 C 0.94806 0.36774 0.47947 0.0
C224 C 0.99132 0.39191 0.50017 0.0
C225 C 1.03557 0.43818 0.49965 0.0
H226 H 0.6011 0.76305 0.80768 0.0
H227 H 0.77928 0.86298 0.79463 0.0
H228 H 0.58681 0.81574 0.79688 0.0
H229 H 0.76555 0.91641 0.78525 0.0
H230 H 0.7206 0.99734 0.75376 0.0
H231 H 0.72516 0.9364 0.75488 0.0
H232 H 0.60964 0.88249 0.81948 0.0
H233 H 0.60436 0.94253 0.81763 0.0
C234 C 0.63715 0.79608 0.80224 0.0
C235 C 0.69145 0.80889 0.80228 0.0
C236 C 0.62906 0.82648 0.79634 0.0
C237 C 0.6751 0.8705 0.79044 0.0
C238 C 0.72902 0.88272 0.78948 0.0
C239 C 0.73705 0.85226 0.79527 0.0
C240 C 0.6956 0.97182 0.76778 0.0
C241 C 0.66204 0.97406 0.78556 0.0
C242 C 0.69842 0.9372 0.7686 0.0
C243 C 0.66788 0.90456 0.78733 0.0
C244 C 0.63299 0.90649 0.80451 0.0
C245 C 0.63015 0.94095 0.8036 0.0
H246 H 0.77348 0.3998 0.18897 0.0
H247 H 0.77989 0.51115 0.17252 0.0
H248 H 0.67742 0.34693 0.16826 0.0
H249 H 0.68349 0.45824 0.15261 0.0
H250 H 0.50718 0.35463 0.1183 0.0
H251 H 0.57778 0.38981 0.15638 0.0
H252 H 0.65762 0.3418 0.11706 0.0
H253 H 0.58776 0.30747 0.07899 0.0
C254 C 0.75385 0.41294 0.1816 0.0
C255 C 0.78478 0.4597 0.18172 0.0
C256 C 0.69883 0.38265 0.16991 0.0
C257 C 0.67346 0.39857 0.15856 0.0
C258 C 0.70196 0.44504 0.16138 0.0
C259 C 0.75726 0.4754 0.17281 0.0
C260 C 0.53863 0.35025 0.11841 0.0
C261 C 0.54238 0.32847 0.0959 0.0
C262 C 0.57906 0.37053 0.14005 0.0
C263 C 0.6231 0.36858 0.13959 0.0
C264 C 0.62371 0.34335 0.1181 0.0
C265 C 0.58397 0.32383 0.09629 0.0
H266 H 0.4662 0.94408 0.46373 0.0
H267 H 0.58245 0.92202 0.48537 0.0
H268 H 0.38776 0.86313 0.46162 0.0
H269 H 0.50365 0.8408 0.48304 0.0
H270 H 0.35386 0.70009 0.43653 0.0
H271 H 0.43573 0.78024 0.445 0.0
H272 H 0.3357 0.80018 0.49341 0.0
H273 H 0.2538 0.71989 0.48496 0.0
C274 C 0.47504 0.92198 0.46803 0.0
C275 C 0.53059 0.93947 0.47461 0.0
C276 C 0.43002 0.87566 0.46705 0.0
C277 C 0.4396 0.84573 0.47229 0.0
C278 C 0.49512 0.86313 0.47885 0.0
C279 C 0.54014 0.9096 0.48023 0.0
C280 C 0.34974 0.72156 0.44931 0.0
C281 C 0.29759 0.70394 0.46004 0.0
C282 C 0.39657 0.7673 0.45425 0.0
C283 C 0.39191 0.79643 0.46971 0.0
C284 C 0.34027 0.7785 0.48123 0.0
C285 C 0.29364 0.73259 0.4766 0.0
H286 H 0.58877 0.29016 0.85876 0.0
H287 H 0.57746 0.30929 0.77512 0.0
H288 H 0.61366 0.24314 0.84492 0.0
H289 H 0.60161 0.2619 0.76128 0.0
H290 H 0.70482 0.21436 0.75008 0.0
H291 H 0.68477 0.26399 0.76518 0.0
H292 H 0.56467 0.16729 0.81951 0.0
H293 H 0.58351 0.11713 0.80404 0.0
C294 C 0.59181 0.28442 0.83745 0.0
C295 C 0.581 0.30321 0.81801 0.0
C296 C 0.60565 0.25731 0.82953 0.0
C297 C 0.60957 0.2489 0.80203 0.0
C298 C 0.59937 0.26812 0.78263 0.0
C299 C 0.585 0.29484 0.79052 0.0
C300 C 0.67383 0.20351 0.76511 0.0
C301 C 0.6457 0.16167 0.77579 0.0
C302 C 0.66249 0.232 0.77379 0.0
C303 C 0.62314 0.21946 0.7935 0.0
C304 C 0.59575 0.17807 0.80454 0.0
C305 C 0.60671 0.14941 0.79571 0.0
H306 H 0.80447 0.92404 0.55161 0.0
H307 H 0.63491 0.83975 0.51444 0.0
H308 H 0.79266 0.85729 0.55964 0.0
H309 H 0.62437 0.77304 0.52107 0.0
H310 H 0.60527 0.65726 0.55252 0.0
H311 H 0.6149 0.7253 0.55339 0.0
H312 H 0.78942 0.80203 0.53292 0.0
H313 H 0.77958 0.73425 0.53283 0.0
C314 C 0.76443 0.8913 0.54535 0.0
C315 C 0.72073 0.88744 0.53226 0.0
C316 C 0.75794 0.85296 0.54965 0.0
C317 C 0.70775 0.80972 0.54082 0.0
C318 C 0.66345 0.80574 0.52838 0.0
C319 C 0.66981 0.84411 0.52421 0.0
C320 C 0.64583 0.68903 0.54877 0.0
C321 C 0.69187 0.69108 0.54281 0.0
C322 C 0.65129 0.72784 0.549 0.0
C323 C 0.70289 0.7692 0.54311 0.0
C324 C 0.74933 0.77104 0.53795 0.0
C325 C 0.74379 0.73229 0.53779 0.0
H326 H 0.71157 0.47978 0.84579 0.0
H327 H 0.83483 0.62472 0.84717 0.0
H328 H 0.78745 0.47651 0.85157 0.0
H329 H 0.91089 0.62163 0.85373 0.0
H330 H 1.04164 0.60135 0.84684 0.0
H331 H 0.9648 0.60198 0.83521 0.0
H332 H 0.8539 0.49142 0.8843 0.0
H333 H 0.92945 0.48958 0.8948 0.0
C334 C 0.75486 0.51107 0.84733 0.0
C335 C 0.76666 0.55255 0.84605 0.0
C336 C 0.79868 0.50923 0.85084 0.0
C337 C 0.85592 0.54882 0.85336 0.0
C338 C 0.8677 0.59027 0.85157 0.0
C339 C 0.82383 0.59209 0.84795 0.0
C340 C 1.00057 0.57667 0.85475 0.0
C341 C 0.9923 0.54566 0.87197 0.0
C342 C 0.95649 0.57738 0.84837 0.0
C343 C 0.90264 0.54696 0.85889 0.0
C344 C 0.89417 0.51519 0.87547 0.0
C345 C 0.93804 0.51448 0.88182 0.0
H346 H 0.21905 0.72223 0.17544 0.0
H347 H 0.33578 0.69772 0.15953 0.0
H348 H 0.29755 0.80298 0.18013 0.0
H349 H 0.41462 0.77856 0.1651 0.0
H350 H 0.5433 0.92905 0.15783 0.0
H351 H 0.46185 0.84967 0.14695 0.0
H352 H 0.37369 0.85719 0.21171 0.0
H353 H 0.45362 0.93682 0.22156 0.0
C354 C 0.26148 0.73403 0.17293 0.0
C355 C 0.27105 0.70337 0.16726 0.0
C356 C 0.30663 0.78045 0.17578 0.0
C357 C 0.36267 0.79748 0.17327 0.0
C358 C 0.37207 0.76682 0.16688 0.0
C359 C 0.3268 0.72035 0.16382 0.0
C360 C 0.50611 0.91396 0.16941 0.0
C361 C 0.50523 0.9394 0.19066 0.0
C362 C 0.45963 0.86823 0.1634 0.0
C363 C 0.41112 0.84676 0.17851 0.0
C364 C 0.4099 0.87252 0.19939 0.0
C365 C 0.45618 0.91819 0.2053 0.0
H366 H 0.51367 0.24522 0.48277 0.0
H367 H 0.6933 0.31803 0.49484 0.0
H368 H 0.52776 0.31228 0.50031 0.0
H369 H 0.70727 0.38529 0.51163 0.0
H370 H 0.71371 0.50795 0.51529 0.0
H371 H 0.69882 0.44129 0.4955 0.0
H372 H 0.55723 0.35775 0.54534 0.0
H373 H 0.57181 0.42431 0.56494 0.0
C374 C 0.55614 0.27541 0.48918 0.0
C375 C 0.60229 0.276 0.48746 0.0
C376 C 0.56416 0.31386 0.49916 0.0
C377 C 0.61858 0.35397 0.5074 0.0
C378 C 0.66491 0.35499 0.50515 0.0
C379 C 0.65685 0.31642 0.49541 0.0
C380 C 0.67917 0.47528 0.52185 0.0
C381 C 0.64395 0.4713 0.54167 0.0
C382 C 0.67093 0.43722 0.51068 0.0
C383 C 0.62687 0.39434 0.51888 0.0
C384 C 0.59123 0.39031 0.53847 0.0
C385 C 0.59986 0.42842 0.54985 0.0
H386 H 0.53336 0.62368 0.83485 0.0
H387 H 0.42664 0.48949 0.86138 0.0
H388 H 0.45571 0.62563 0.83908 0.0
H389 H 0.34988 0.4918 0.86621 0.0
H390 H 0.20343 0.49046 0.84513 0.0
H391 H 0.28163 0.48906 0.84168 0.0
H392 H 0.39967 0.63035 0.87005 0.0
H393 H 0.32094 0.63149 0.87281 0.0
C394 C 0.49347 0.5946 0.84165 0.0
C395 C 0.4866 0.55636 0.84764 0.0
C396 C 0.44885 0.59582 0.84429 0.0
C397 C 0.3959 0.55884 0.853 0.0
C398 C 0.38933 0.52073 0.85903 0.0
C399 C 0.43379 0.5195 0.85637 0.0
C400 C 0.24609 0.52103 0.85092 0.0
C401 C 0.25608 0.56093 0.85951 0.0
C402 C 0.29112 0.52032 0.849 0.0
C403 C 0.3476 0.55961 0.85557 0.0
C404 C 0.35719 0.59951 0.86445 0.0
C405 C 0.312 0.60013 0.86635 0.0
H406 H 0.94464 0.42665 0.19303 0.0
H407 H 1.03567 0.39773 0.14398 0.0
H408 H 0.86641 0.34623 0.19381 0.0
H409 H 0.95783 0.31722 0.14526 0.0
H410 H 0.78168 0.17893 0.12782 0.0
H411 H 0.86152 0.25951 0.12775 0.0
H412 H 0.84021 0.27902 0.21196 0.0
H413 H 0.75936 0.19823 0.21158 0.0
C414 C 0.94819 0.40317 0.18254 0.0
C415 C 0.99653 0.41873 0.16841 0.0
C416 C 0.90337 0.35697 0.18314 0.0
C417 C 0.90574 0.32512 0.16966 0.0
C418 C 0.9542 0.34074 0.15559 0.0
C419 C 0.999 0.38696 0.15495 0.0
C420 C 0.79444 0.20061 0.14628 0.0
C421 C 0.76494 0.18283 0.16971 0.0
C422 C 0.84028 0.24667 0.14633 0.0
C423 C 0.8575 0.27587 0.16986 0.0
C424 C 0.82775 0.25765 0.1934 0.0
C425 C 0.7818 0.21147 0.1933 0.0
H426 H 1.00035 0.50317 0.0836 0.0
H427 H 0.17915 0.57238 0.09094 0.0
H428 H 1.00301 0.50023 0.0346 0.0
H429 H 0.18167 0.56708 0.04177 0.0
H430 H 0.17847 0.60139 0.95478 0.0
H431 H 0.17926 0.59826 0.00372 0.0
H432 H 1.01042 0.46884 0.99532 0.0
H433 H 1.00912 0.47358 0.94666 0.0
C434 C 1.04006 0.51698 0.07466 0.0
C435 C 1.08953 0.53797 0.09105 0.0
C436 C 1.04163 0.515 0.04647 0.0
C437 C 0.09261 0.53337 0.03392 0.0
C438 C 0.1418 0.55323 0.05051 0.0
C439 C 0.14032 0.55582 0.07873 0.0
C440 C 0.14199 0.57206 0.96349 0.0
C441 C 0.09364 0.53787 0.94704 0.0
C442 C 0.14235 0.57009 0.99157 0.0
C443 C 0.09458 0.5335 0.00378 0.0
C444 C 1.04743 0.49817 0.98692 0.0
C445 C 1.04678 0.50057 0.95897 0.0
H446 H 0.77706 0.13601 0.39831 0.0
H447 H 0.59749 0.03148 0.4049 0.0
H448 H 0.76145 0.13523 0.34997 0.0
H449 H 0.58174 0.02861 0.35653 0.0
H450 H 0.55829 0.0479 0.27212 0.0
H451 H 0.57948 0.06317 0.32087 0.0
H452 H 0.7391 0.09233 0.3091 0.0
H453 H 0.71871 0.0795 0.26027 0.0
C454 C 0.73425 0.11276 0.38932 0.0
C455 C 0.68851 0.08368 0.40524 0.0
C456 C 0.72524 0.11205 0.36158 0.0
C457 C 0.6703 0.08172 0.34908 0.0
C458 C 0.62455 0.0531 0.36531 0.0
C459 C 0.63353 0.05438 0.39308 0.0
C460 C 0.59831 0.05842 0.28009 0.0
C461 C 0.6369 0.06254 0.2626 0.0
C462 C 0.6103 0.06671 0.30803 0.0
C463 C 0.66068 0.07832 0.31918 0.0
C464 C 0.7002 0.08403 0.30142 0.0
C465 C 0.68857 0.07655 0.27341 0.0
H466 H 0.5793 0.47819 0.75264 0.0
H467 H 0.66452 0.61969 0.76936 0.0
H468 H 0.60172 0.48962 0.70522 0.0
H469 H 0.68592 0.63107 0.72132 0.0
H470 H 0.62197 0.59133 0.62453 0.0
H471 H 0.61551 0.59392 0.67371 0.0
H472 H 0.70148 0.54008 0.6807 0.0
H473 H 0.71043 0.53929 0.63196 0.0
C474 C 0.60284 0.51176 0.74607 0.0
C475 C 0.62049 0.54815 0.76449 0.0
C476 C 0.61582 0.51831 0.71904 0.0
C477 C 0.64565 0.56121 0.70976 0.0
C478 C 0.66292 0.5977 0.7281 0.0
C479 C 0.65102 0.59129 0.75546 0.0
C480 C 0.64085 0.58117 0.63658 0.0
C481 C 0.66579 0.56429 0.62416 0.0
C482 C 0.63704 0.58263 0.6647 0.0
C483 C 0.65756 0.5668 0.68081 0.0
C484 C 0.68482 0.55202 0.66862 0.0
C485 C 0.68942 0.5512 0.64068 0.0
H486 H 0.74212 0.12729 0.55677 0.0
H487 H 0.56094 0.03062 0.56239 0.0
H488 H 0.75524 0.12636 0.60533 0.0
H489 H 0.57381 0.02994 0.61073 0.0
H490 H 0.61134 0.01631 0.69475 0.0
H491 H 0.61002 0.0094 0.64531 0.0
H492 H 0.73605 0.1542 0.64608 0.0
H493 H 0.73792 0.16091 0.69531 0.0
C494 C 0.70521 0.10554 0.56835 0.0
C495 C 0.65053 0.0793 0.55595 0.0
C496 C 0.71267 0.10508 0.59611 0.0
C497 C 0.66556 0.07809 0.61188 0.0
C498 C 0.61099 0.05065 0.59914 0.0
C499 C 0.60358 0.05136 0.5715 0.0
C500 C 0.63967 0.04649 0.68433 0.0
C501 C 0.67432 0.08916 0.6988 0.0
C502 C 0.63861 0.0426 0.65605 0.0
C503 C 0.67257 0.08129 0.64178 0.0
C504 C 0.70967 0.12373 0.65643 0.0
C505 C 0.7104 0.12761 0.68461 0.0
H506 H 0.72019 0.56971 0.92419 0.0
H507 H 0.54267 0.49955 0.90698 0.0
H508 H 0.69516 0.51459 0.95631 0.0
H509 H 0.51789 0.44455 0.93845 0.0
H510 H 0.49033 0.32688 0.97072 0.0
H511 H 0.52898 0.38386 0.93851 0.0
H512 H 0.6429 0.48819 0.00164 0.0
H513 H 0.60347 0.43158 0.03409 0.0
C514 C 0.676 0.54285 0.92751 0.0
C515 C 0.63326 0.5385 0.91302 0.0
C516 C 0.66174 0.5113 0.9457 0.0
C517 C 0.60463 0.47491 0.94935 0.0
C518 C 0.56221 0.4717 0.93551 0.0
C519 C 0.5764 0.50335 0.9177 0.0
C520 C 0.52408 0.36189 0.97767 0.0
C521 C 0.54332 0.37467 0.00503 0.0
C522 C 0.54618 0.39444 0.95926 0.0
C523 C 0.58829 0.44035 0.96777 0.0
C524 C 0.61058 0.45297 0.9946 0.0
C525 C 0.58812 0.42044 0.01312 0.0
H526 H 0.16041 0.50323 0.2498 0.0
H527 H 0.13088 0.59717 0.24213 0.0
H528 H 0.15945 0.5117 0.29875 0.0
H529 H 0.12469 0.60279 0.29079 0.0
H530 H 0.19667 0.65279 0.37719 0.0
H531 H 0.1836 0.63678 0.32877 0.0
H532 H 0.112 0.49935 0.33795 0.0
H533 H 0.13031 0.51697 0.38682 0.0
C534 C 0.15248 0.52498 0.25861 0.0
C535 C 0.14589 0.54967 0.2422 0.0
C536 C 0.15127 0.5295 0.28672 0.0
C537 C 0.14233 0.55819 0.29903 0.0
C538 C 0.13313 0.58123 0.28229 0.0
C539 C 0.13581 0.57757 0.25427 0.0
C540 C 0.17878 0.61923 0.36896 0.0
C541 C 0.166 0.58655 0.38599 0.0
C542 C 0.1701 0.60968 0.341 0.0
C543 C 0.14686 0.5667 0.32911 0.0
C544 C 0.13113 0.53315 0.34622 0.0
C545 C 0.14086 0.54303 0.37434 0.0
loop_
_geom_bond_atom_site_label_1
_geom_bond_atom_site_label_2
_geom_bond_distance
_geom_bond_site_symmetry_2
_ccdc_geom_bond_type
Ho0 C3 2.811 . S
Ho0 O20 2.322 . S
Ho0 O22 2.378 . S
Ho0 O23 2.524 . S
Ho0 O24 2.381 . S
Ho0 O25 2.669 . S
Ho0 O27 2.346 1_455 S
Ho0 O31 2.305 . S
Ho1 C12 2.811 1_455 S
Ho1 O21 2.346 . S
Ho1 O25 2.305 . S
Ho1 O26 2.322 1_455 S
Ho1 O28 2.378 1_455 S
Ho1 O29 2.524 1_455 S
Ho1 O30 2.381 . S
Ho1 O31 2.669 . S
C2 O20 1.259 . S
C2 O21 1.268 . S
C3 Ho0 2.811 . S
C3 C4 1.488 . S
C3 O22 1.215 . S
C3 O23 1.289 . S
C4 C3 1.488 . S
C4 C5 1.348 . S
C4 C9 1.413 . S
C5 C4 1.348 . S
C5 C6 1.442 . S
C5 H32 0.930 . S
C6 C5 1.442 . S
C6 C7 1.381 . S
C6 H33 0.931 . S
C7 C6 1.381 . S
C7 C8 1.321 . S
C8 C7 1.321 . S
C8 C9 1.403 . S
C8 H34 0.934 . S
C9 C4 1.413 . S
C9 C8 1.403 . S
C9 H35 0.930 . S
C10 O24 1.275 . S
C10 O25 1.256 . S
C11 O26 1.259 . S
C11 O27 1.268 . S
C12 Ho1 2.811 1_655 S
C12 C13 1.488 . S
C12 O28 1.215 . S
C12 O29 1.289 . S
C13 C12 1.488 . S
C13 C14 1.348 . S
C13 C18 1.413 . S
C14 C13 1.348 . S
C14 C15 1.442 . S
C14 H36 0.930 . S
C15 C14 1.442 . S
C15 C16 1.381 . S
C15 H37 0.931 . S
C16 C15 1.381 . S
C16 C17 1.321 . S
C17 C16 1.321 . S
C17 C18 1.403 . S
C17 H38 0.934 . S
C18 C13 1.413 . S
C18 C17 1.403 . S
C18 H39 0.930 . S
C19 O30 1.275 . S
C19 O31 1.256 . S
O20 Ho0 2.322 . S
O20 C2 1.259 . S
O21 Ho1 2.346 . S
O21 C2 1.268 . S
O22 Ho0 2.378 . S
O22 C3 1.215 . S
O23 Ho0 2.524 . S
O23 C3 1.289 . S
O24 Ho0 2.381 . S
O24 C10 1.275 . S
O25 Ho0 2.669 . S
O25 Ho1 2.305 . S
O25 C10 1.256 . S
O26 Ho1 2.322 1_655 S
O26 C11 1.259 . S
O27 Ho0 2.346 1_655 S
O27 C11 1.268 . S
O28 Ho1 2.378 1_655 S
O28 C12 1.215 . S
O29 Ho1 2.524 1_655 S
O29 C12 1.289 . S
O30 Ho1 2.381 . S
O30 C19 1.275 . S
O31 Ho0 2.305 . S
O31 Ho1 2.669 . S
O31 C19 1.256 . S
H32 C5 0.930 . S
H33 C6 0.931 . S
H34 C8 0.934 . S
H35 C9 0.930 . S
H36 C14 0.930 . S
H37 C15 0.931 . S
H38 C17 0.934 . S
H39 C18 0.930 . S
Ho40 C43 2.811 1_545 S
Ho40 O60 2.322 1_545 S
Ho40 O62 2.378 1_545 S
Ho40 O63 2.524 1_545 S
Ho40 O64 2.381 . S
Ho40 O65 2.669 . S
Ho40 O67 2.346 . S
Ho40 O71 2.305 . S
Ho41 C52 2.811 . S
Ho41 O61 2.346 1_545 S
Ho41 O65 2.305 . S
Ho41 O66 2.322 . S
Ho41 O68 2.378 . S
Ho41 O69 2.524 . S
Ho41 O70 2.381 . S
Ho41 O71 2.669 . S
C42 O60 1.259 . S
C42 O61 1.268 . S
C43 Ho40 2.811 1_565 S
C43 C44 1.488 . S
C43 O62 1.215 . S
C43 O63 1.289 . S
C44 C43 1.488 . S
C44 C45 1.348 . S
C44 C49 1.413 . S
C45 C44 1.348 . S
C45 C46 1.442 . S
C45 H72 0.930 . S
C46 C45 1.442 . S
C46 C47 1.381 . S
C46 H73 0.931 . S
C47 C46 1.381 . S
C47 C48 1.321 . S
C48 C47 1.321 . S
C48 C49 1.403 . S
C48 H74 0.934 . S
C49 C44 1.413 . S
C49 C48 1.403 . S
C49 H75 0.930 . S
C50 O64 1.275 . S
C50 O65 1.256 . S
C51 O66 1.259 . S
C51 O67 1.268 . S
C52 Ho41 2.811 . S
C52 C53 1.488 . S
C52 O68 1.215 . S
C52 O69 1.289 . S
C53 C52 1.488 . S
C53 C54 1.348 . S
C53 C58 1.413 . S
C54 C53 1.348 . S
C54 C55 1.442 . S
C54 H76 0.930 . S
C55 C54 1.442 . S
C55 C56 1.381 . S
C55 H77 0.931 . S
C56 C55 1.381 . S
C56 C57 1.321 . S
C57 C56 1.321 . S
C57 C58 1.403 . S
C57 H78 0.934 . S
C58 C53 1.413 . S
C58 C57 1.403 . S
C58 H79 0.930 . S
C59 O70 1.275 . S
C59 O71 1.256 . S
O60 Ho40 2.322 1_565 S
O60 C42 1.259 . S
O61 Ho41 2.346 1_565 S
O61 C42 1.268 . S
O62 Ho40 2.378 1_565 S
O62 C43 1.215 . S
O63 Ho40 2.524 1_565 S
O63 C43 1.289 . S
O64 Ho40 2.381 . S
O64 C50 1.275 . S
O65 Ho40 2.669 . S
O65 Ho41 2.305 . S
O65 C50 1.256 . S
O66 Ho41 2.322 . S
O66 C51 1.259 . S
O67 Ho40 2.346 . S
O67 C51 1.268 . S
O68 Ho41 2.378 . S
O68 C52 1.215 . S
O69 Ho41 2.524 . S
O69 C52 1.289 . S
O70 Ho41 2.381 . S
O70 C59 1.275 . S
O71 Ho40 2.305 . S
O71 Ho41 2.669 . S
O71 C59 1.256 . S
H72 C45 0.930 . S
H73 C46 0.931 . S
H74 C48 0.934 . S
H75 C49 0.930 . S
H76 C54 0.930 . S
H77 C55 0.931 . S
H78 C57 0.934 . S
H79 C58 0.930 . S
Ho80 C83 2.811 . S
Ho80 O100 2.322 . S
Ho80 O102 2.378 . S
Ho80 O103 2.524 . S
Ho80 O104 2.381 . S
Ho80 O105 2.669 . S
Ho80 O107 2.346 . S
Ho80 O111 2.305 . S
Ho81 C92 2.811 . S
Ho81 O101 2.346 . S
Ho81 O105 2.305 . S
Ho81 O106 2.322 . S
Ho81 O108 2.378 . S
Ho81 O109 2.524 . S
Ho81 O110 2.381 . S
Ho81 O111 2.669 . S
C82 O100 1.259 . S
C82 O101 1.268 . S
C83 Ho80 2.811 . S
C83 C84 1.488 . S
C83 O102 1.215 . S
C83 O103 1.289 . S
C84 C83 1.488 . S
C84 C85 1.348 . S
C84 C89 1.413 . S
C85 C84 1.348 . S
C85 C86 1.442 . S
C85 H112 0.930 . S
C86 C85 1.442 . S
C86 C87 1.381 . S
C86 H113 0.931 . S
C87 C86 1.381 . S
C87 C88 1.321 . S
C88 C87 1.321 . S
C88 C89 1.403 . S
C88 H114 0.934 . S
C89 C84 1.413 . S
C89 C88 1.403 . S
C89 H115 0.930 . S
C90 O104 1.275 . S
C90 O105 1.256 . S
C91 O106 1.259 . S
C91 O107 1.268 . S
C92 Ho81 2.811 . S
C92 C93 1.488 . S
C92 O108 1.215 . S
C92 O109 1.289 . S
C93 C92 1.488 . S
C93 C94 1.348 . S
C93 C98 1.413 . S
C94 C93 1.348 . S
C94 C95 1.442 . S
C94 H116 0.930 . S
C95 C94 1.442 . S
C95 C96 1.381 . S
C95 H117 0.931 . S
C96 C95 1.381 . S
C96 C97 1.321 . S
C97 C96 1.321 . S
C97 C98 1.403 . S
C97 H118 0.934 . S
C98 C93 1.413 . S
C98 C97 1.403 . S
C98 H119 0.930 . S
C99 O110 1.275 . S
C99 O111 1.256 . S
O100 Ho80 2.322 . S
O100 C82 1.259 . S
O101 Ho81 2.346 . S
O101 C82 1.268 . S
O102 Ho80 2.378 . S
O102 C83 1.215 . S
O103 Ho80 2.524 . S
O103 C83 1.289 . S
O104 Ho80 2.381 . S
O104 C90 1.275 . S
O105 Ho80 2.669 . S
O105 Ho81 2.305 . S
O105 C90 1.256 . S
O106 Ho81 2.322 . S
O106 C91 1.259 . S
O107 Ho80 2.346 . S
O107 C91 1.268 . S
O108 Ho81 2.378 . S
O108 C92 1.215 . S
O109 Ho81 2.524 . S
O109 C92 1.289 . S
O110 Ho81 2.381 . S
O110 C99 1.275 . S
O111 Ho80 2.305 . S
O111 Ho81 2.669 . S
O111 C99 1.256 . S
H112 C85 0.930 . S
H113 C86 0.931 . S
H114 C88 0.934 . S
H115 C89 0.930 . S
H116 C94 0.930 . S
H117 C95 0.931 . S
H118 C97 0.934 . S
H119 C98 0.930 . S
H120 C123 0.929 . S
H121 C126 0.929 . S
H122 C128 0.930 . S
C123 H120 0.929 . S
C123 C124 1.398 . S
C123 C125 1.396 1_565 S
C124 C123 1.398 . S
C124 C128 1.407 1_565 S
C125 C123 1.396 1_545 S
C125 C126 1.394 . S
C126 H121 0.929 . S
C126 C125 1.394 . S
C126 C127 1.382 . S
C127 C126 1.382 . S
C127 C128 1.392 . S
C127 N129 1.420 . S
C128 H122 0.930 . S
C128 C124 1.407 1_545 S
C128 C127 1.392 . S
N129 C127 1.420 . S
N129 C130 1.244 . S
C130 N129 1.244 . S
H131 C134 0.929 . S
H132 C137 0.929 . S
H133 C139 0.930 . S
C134 H131 0.929 . S
C134 C135 1.398 . S
C134 C136 1.396 . S
C135 C134 1.398 . S
C135 C139 1.407 . S
C136 C134 1.396 . S
C136 C137 1.394 . S
C137 H132 0.929 . S
C137 C136 1.394 . S
C137 C138 1.382 . S
C138 C137 1.382 . S
C138 C139 1.392 . S
C138 N140 1.420 . S
C139 H133 0.930 . S
C139 C135 1.407 . S
C139 C138 1.392 . S
N140 C138 1.420 . S
N140 C141 1.244 . S
C141 N140 1.244 . S
H142 C145 0.929 . S
H143 C148 0.929 . S
H144 C150 0.930 . S
C145 H142 0.929 . S
C145 C146 1.398 . S
C145 C147 1.396 . S
C146 C145 1.398 . S
C146 C150 1.407 . S
C147 C145 1.396 . S
C147 C148 1.394 . S
C148 H143 0.929 . S
C148 C147 1.394 . S
C148 C149 1.382 . S
C149 C148 1.382 . S
C149 C150 1.392 . S
C149 N151 1.420 . S
C150 H144 0.930 . S
C150 C146 1.407 . S
C150 C149 1.392 . S
N151 C149 1.420 . S
N151 C152 1.244 . S
C152 N151 1.244 . S
H153 C156 0.929 . S
H154 C159 0.929 . S
H155 C161 0.930 . S
C156 H153 0.929 . S
C156 C157 1.398 . S
C156 C158 1.396 . S
C157 C156 1.398 . S
C157 C161 1.407 . S
C158 C156 1.396 . S
C158 C159 1.394 1_455 S
C159 H154 0.929 . S
C159 C158 1.394 1_655 S
C159 C160 1.382 . S
C160 C159 1.382 . S
C160 C161 1.392 1_655 S
C160 N162 1.420 . S
C161 H155 0.930 . S
C161 C157 1.407 . S
C161 C160 1.392 1_455 S
N162 C160 1.420 . S
N162 C163 1.244 . S
C163 N162 1.244 . S
H164 C167 0.929 . S
H165 C170 0.929 1_565 S
H166 C172 0.930 . S
C167 H164 0.929 . S
C167 C168 1.398 . S
C167 C169 1.396 . S
C168 C167 1.398 . S
C168 C172 1.407 . S
C169 C167 1.396 . S
C169 C170 1.394 . S
C170 H165 0.929 1_545 S
C170 C169 1.394 . S
C170 C171 1.382 . S
C171 C170 1.382 . S
C171 C172 1.392 . S
C171 N173 1.420 . S
C172 H166 0.930 . S
C172 C168 1.407 . S
C172 C171 1.392 . S
N173 C171 1.420 . S
N173 C174 1.244 1_545 S
C174 N173 1.244 1_565 S
H175 C178 0.929 . S
H176 C181 0.929 . S
H177 C183 0.930 . S
C178 H175 0.929 . S
C178 C179 1.398 . S
C178 C180 1.396 . S
C179 C178 1.398 . S
C179 C183 1.407 . S
C180 C178 1.396 . S
C180 C181 1.394 . S
C181 H176 0.929 . S
C181 C180 1.394 . S
C181 C182 1.382 . S
C182 C181 1.382 . S
C182 C183 1.392 . S
C182 N184 1.420 . S
C183 H177 0.930 . S
C183 C179 1.407 . S
C183 C182 1.392 . S
N184 C182 1.420 . S
N184 C185 1.244 . S
C185 N184 1.244 . S
H186 C194 0.950 . S
H187 C199 0.950 . S
H188 C196 0.950 . S
H189 C198 0.950 . S
H190 C200 0.950 . S
H191 C202 0.950 . S
H192 C204 0.950 . S
H193 C205 0.950 . S
C194 H186 0.950 . S
C194 C195 1.386 . S
C194 C196 1.391 . S
C195 C194 1.386 . S
C195 C199 1.393 . S
C196 H188 0.950 . S
C196 C194 1.391 . S
C196 C197 1.400 . S
C197 C196 1.400 . S
C197 C198 1.398 . S
C197 C203 1.491 . S
C198 H189 0.950 . S
C198 C197 1.398 . S
C198 C199 1.391 . S
C199 H187 0.950 . S
C199 C195 1.393 . S
C199 C198 1.391 . S
C200 H190 0.950 . S
C200 C201 1.386 . S
C200 C202 1.391 . S
C201 C200 1.386 . S
C201 C205 1.393 . S
C202 H191 0.950 . S
C202 C200 1.391 . S
C202 C203 1.400 . S
C203 C197 1.491 . S
C203 C202 1.400 . S
C203 C204 1.398 . S
C204 H192 0.950 . S
C204 C203 1.398 . S
C204 C205 1.391 . S
C205 H193 0.950 . S
C205 C201 1.393 . S
C205 C204 1.391 . S
H206 C214 0.950 . S
H207 C219 0.950 . S
H208 C216 0.950 . S
H209 C218 0.950 . S
H210 C220 0.950 . S
H211 C222 0.950 . S
H212 C224 0.950 . S
H213 C225 0.950 . S
C214 H206 0.950 . S
C214 C215 1.386 . S
C214 C216 1.391 . S
C215 C214 1.386 . S
C215 C219 1.393 . S
C216 H208 0.950 . S
C216 C214 1.391 . S
C216 C217 1.400 . S
C217 C216 1.400 . S
C217 C218 1.398 . S
C217 C223 1.491 . S
C218 H209 0.950 . S
C218 C217 1.398 . S
C218 C219 1.391 . S
C219 H207 0.950 . S
C219 C215 1.393 . S
C219 C218 1.391 . S
C220 H210 0.950 . S
C220 C221 1.386 . S
C220 C222 1.391 . S
C221 C220 1.386 . S
C221 C225 1.393 . S
C222 H211 0.950 . S
C222 C220 1.391 . S
C222 C223 1.400 . S
C223 C217 1.491 . S
C223 C222 1.400 . S
C223 C224 1.398 . S
C224 H212 0.950 . S
C224 C223 1.398 . S
C224 C225 1.391 . S
C225 H213 0.950 . S
C225 C221 1.393 . S
C225 C224 1.391 . S
H226 C234 0.950 . S
H227 C239 0.950 . S
H228 C236 0.950 . S
H229 C238 0.950 . S
H230 C240 0.950 . S
H231 C242 0.950 . S
H232 C244 0.950 . S
H233 C245 0.950 . S
C234 H226 0.950 . S
C234 C235 1.386 . S
C234 C236 1.391 . S
C235 C234 1.386 . S
C235 C239 1.393 . S
C236 H228 0.950 . S
C236 C234 1.391 . S
C236 C237 1.400 . S
C237 C236 1.400 . S
C237 C238 1.398 . S
C237 C243 1.491 . S
C238 H229 0.950 . S
C238 C237 1.398 . S
C238 C239 1.391 . S
C239 H227 0.950 . S
C239 C235 1.393 . S
C239 C238 1.391 . S
C240 H230 0.950 . S
C240 C241 1.386 . S
C240 C242 1.391 . S
C241 C240 1.386 . S
C241 C245 1.393 . S
C242 H231 0.950 . S
C242 C240 1.391 . S
C242 C243 1.400 . S
C243 C237 1.491 . S
C243 C242 1.400 . S
C243 C244 1.398 . S
C244 H232 0.950 . S
C244 C243 1.398 . S
C244 C245 1.391 . S
C245 H233 0.950 . S
C245 C241 1.393 . S
C245 C244 1.391 . S
H246 C254 0.950 . S
H247 C259 0.950 . S
H248 C256 0.950 . S
H249 C258 0.950 . S
H250 C260 0.950 . S
H251 C262 0.950 . S
H252 C264 0.950 . S
H253 C265 0.950 . S
C254 H246 0.950 . S
C254 C255 1.386 . S
C254 C256 1.391 . S
C255 C254 1.386 . S
C255 C259 1.393 . S
C256 H248 0.950 . S
C256 C254 1.391 . S
C256 C257 1.400 . S
C257 C256 1.400 . S
C257 C258 1.398 . S
C257 C263 1.491 . S
C258 H249 0.950 . S
C258 C257 1.398 . S
C258 C259 1.391 . S
C259 H247 0.950 . S
C259 C255 1.393 . S
C259 C258 1.391 . S
C260 H250 0.950 . S
C260 C261 1.386 . S
C260 C262 1.391 . S
C261 C260 1.386 . S
C261 C265 1.393 . S
C262 H251 0.950 . S
C262 C260 1.391 . S
C262 C263 1.400 . S
C263 C257 1.491 . S
C263 C262 1.400 . S
C263 C264 1.398 . S
C264 H252 0.950 . S
C264 C263 1.398 . S
C264 C265 1.391 . S
C265 H253 0.950 . S
C265 C261 1.393 . S
C265 C264 1.391 . S
H266 C274 0.950 . S
H267 C279 0.950 . S
H268 C276 0.950 . S
H269 C278 0.950 . S
H270 C280 0.950 . S
H271 C282 0.950 . S
H272 C284 0.950 . S
H273 C285 0.950 . S
C274 H266 0.950 . S
C274 C275 1.386 . S
C274 C276 1.391 . S
C275 C274 1.386 . S
C275 C279 1.393 . S
C276 H268 0.950 . S
C276 C274 1.391 . S
C276 C277 1.400 . S
C277 C276 1.400 . S
C277 C278 1.398 . S
C277 C283 1.491 . S
C278 H269 0.950 . S
C278 C277 1.398 . S
C278 C279 1.391 . S
C279 H267 0.950 . S
C279 C275 1.393 . S
C279 C278 1.391 . S
C280 H270 0.950 . S
C280 C281 1.386 . S
C280 C282 1.391 . S
C281 C280 1.386 . S
C281 C285 1.393 . S
C282 H271 0.950 . S
C282 C280 1.391 . S
C282 C283 1.400 . S
C283 C277 1.491 . S
C283 C282 1.400 . S
C283 C284 1.398 . S
C284 H272 0.950 . S
C284 C283 1.398 . S
C284 C285 1.391 . S
C285 H273 0.950 . S
C285 C281 1.393 . S
C285 C284 1.391 . S
H286 C294 0.950 . S
H287 C299 0.950 . S
H288 C296 0.950 . S
H289 C298 0.950 . S
H290 C300 0.950 . S
H291 C302 0.950 . S
H292 C304 0.950 . S
H293 C305 0.950 . S
C294 H286 0.950 . S
C294 C295 1.386 . S
C294 C296 1.391 . S
C295 C294 1.386 . S
C295 C299 1.393 . S
C296 H288 0.950 . S
C296 C294 1.391 . S
C296 C297 1.400 . S
C297 C296 1.400 . S
C297 C298 1.398 . S
C297 C303 1.491 . S
C298 H289 0.950 . S
C298 C297 1.398 . S
C298 C299 1.391 . S
C299 H287 0.950 . S
C299 C295 1.393 . S
C299 C298 1.391 . S
C300 H290 0.950 . S
C300 C301 1.386 . S
C300 C302 1.391 . S
C301 C300 1.386 . S
C301 C305 1.393 . S
C302 H291 0.950 . S
C302 C300 1.391 . S
C302 C303 1.400 . S
C303 C297 1.491 . S
C303 C302 1.400 . S
C303 C304 1.398 . S
C304 H292 0.950 . S
C304 C303 1.398 . S
C304 C305 1.391 . S
C305 H293 0.950 . S
C305 C301 1.393 . S
C305 C304 1.391 . S
H306 C314 0.950 . S
H307 C319 0.950 . S
H308 C316 0.950 . S
H309 C318 0.950 . S
H310 C320 0.950 . S
H311 C322 0.950 . S
H312 C324 0.950 . S
H313 C325 0.950 . S
C314 H306 0.950 . S
C314 C315 1.386 . S
C314 C316 1.391 . S
C315 C314 1.386 . S
C315 C319 1.393 . S
C316 H308 0.950 . S
C316 C314 1.391 . S
C316 C317 1.400 . S
C317 C316 1.400 . S
C317 C318 1.398 . S
C317 C323 1.491 . S
C318 H309 0.950 . S
C318 C317 1.398 . S
C318 C319 1.391 . S
C319 H307 0.950 . S
C319 C315 1.393 . S
C319 C318 1.391 . S
C320 H310 0.950 . S
C320 C321 1.386 . S
C320 C322 1.391 . S
C321 C320 1.386 . S
C321 C325 1.393 . S
C322 H311 0.950 . S
C322 C320 1.391 . S
C322 C323 1.400 . S
C323 C317 1.491 . S
C323 C322 1.400 . S
C323 C324 1.398 . S
C324 H312 0.950 . S
C324 C323 1.398 . S
C324 C325 1.391 . S
C325 H313 0.950 . S
C325 C321 1.393 . S
C325 C324 1.391 . S
H326 C334 0.950 . S
H327 C339 0.950 . S
H328 C336 0.950 . S
H329 C338 0.950 . S
H330 C340 0.950 . S
H331 C342 0.950 . S
H332 C344 0.950 . S
H333 C345 0.950 . S
C334 H326 0.950 . S
C334 C335 1.386 . S
C334 C336 1.391 . S
C335 C334 1.386 . S
C335 C339 1.393 . S
C336 H328 0.950 . S
C336 C334 1.391 . S
C336 C337 1.400 . S
C337 C336 1.400 . S
C337 C338 1.398 . S
C337 C343 1.491 . S
C338 H329 0.950 . S
C338 C337 1.398 . S
C338 C339 1.391 . S
C339 H327 0.950 . S
C339 C335 1.393 . S
C339 C338 1.391 . S
C340 H330 0.950 . S
C340 C341 1.386 . S
C340 C342 1.391 . S
C341 C340 1.386 . S
C341 C345 1.393 . S
C342 H331 0.950 . S
C342 C340 1.391 . S
C342 C343 1.400 . S
C343 C337 1.491 . S
C343 C342 1.400 . S
C343 C344 1.398 . S
C344 H332 0.950 . S
C344 C343 1.398 . S
C344 C345 1.391 . S
C345 H333 0.950 . S
C345 C341 1.393 . S
C345 C344 1.391 . S
H346 C354 0.950 . S
H347 C359 0.950 . S
H348 C356 0.950 . S
H349 C358 0.950 . S
H350 C360 0.950 . S
H351 C362 0.950 . S
H352 C364 0.950 . S
H353 C365 0.950 . S
C354 H346 0.950 . S
C354 C355 1.386 . S
C354 C356 1.391 . S
C355 C354 1.386 . S
C355 C359 1.393 . S
C356 H348 0.950 . S
C356 C354 1.391 . S
C356 C357 1.400 . S
C357 C356 1.400 . S
C357 C358 1.398 . S
C357 C363 1.491 . S
C358 H349 0.950 . S
C358 C357 1.398 . S
C358 C359 1.391 . S
C359 H347 0.950 . S
C359 C355 1.393 . S
C359 C358 1.391 . S
C360 H350 0.950 . S
C360 C361 1.386 . S
C360 C362 1.391 . S
C361 C360 1.386 . S
C361 C365 1.393 . S
C362 H351 0.950 . S
C362 C360 1.391 . S
C362 C363 1.400 . S
C363 C357 1.491 . S
C363 C362 1.400 . S
C363 C364 1.398 . S
C364 H352 0.950 . S
C364 C363 1.398 . S
C364 C365 1.391 . S
C365 H353 0.950 . S
C365 C361 1.393 . S
C365 C364 1.391 . S
H366 C374 0.950 . S
H367 C379 0.950 . S
H368 C376 0.950 . S
H369 C378 0.950 . S
H370 C380 0.950 . S
H371 C382 0.950 . S
H372 C384 0.950 . S
H373 C385 0.950 . S
C374 H366 0.950 . S
C374 C375 1.386 . S
C374 C376 1.391 . S
C375 C374 1.386 . S
C375 C379 1.393 . S
C376 H368 0.950 . S
C376 C374 1.391 . S
C376 C377 1.400 . S
C377 C376 1.400 . S
C377 C378 1.398 . S
C377 C383 1.491 . S
C378 H369 0.950 . S
C378 C377 1.398 . S
C378 C379 1.391 . S
C379 H367 0.950 . S
C379 C375 1.393 . S
C379 C378 1.391 . S
C380 H370 0.950 . S
C380 C381 1.386 . S
C380 C382 1.391 . S
C381 C380 1.386 . S
C381 C385 1.393 . S
C382 H371 0.950 . S
C382 C380 1.391 . S
C382 C383 1.400 . S
C383 C377 1.491 . S
C383 C382 1.400 . S
C383 C384 1.398 . S
C384 H372 0.950 . S
C384 C383 1.398 . S
C384 C385 1.391 . S
C385 H373 0.950 . S
C385 C381 1.393 . S
C385 C384 1.391 . S
H386 C394 0.950 . S
H387 C399 0.950 . S
H388 C396 0.950 . S
H389 C398 0.950 . S
H390 C400 0.950 . S
H391 C402 0.950 . S
H392 C404 0.950 . S
H393 C405 0.950 . S
C394 H386 0.950 . S
C394 C395 1.386 . S
C394 C396 1.391 . S
C395 C394 1.386 . S
C395 C399 1.393 . S
C396 H388 0.950 . S
C396 C394 1.391 . S
C396 C397 1.400 . S
C397 C396 1.400 . S
C397 C398 1.398 . S
C397 C403 1.491 . S
C398 H389 0.950 . S
C398 C397 1.398 . S
C398 C399 1.391 . S
C399 H387 0.950 . S
C399 C395 1.393 . S
C399 C398 1.391 . S
C400 H390 0.950 . S
C400 C401 1.386 . S
C400 C402 1.391 . S
C401 C400 1.386 . S
C401 C405 1.393 . S
C402 H391 0.950 . S
C402 C400 1.391 . S
C402 C403 1.400 . S
C403 C397 1.491 . S
C403 C402 1.400 . S
C403 C404 1.398 . S
C404 H392 0.950 . S
C404 C403 1.398 . S
C404 C405 1.391 . S
C405 H393 0.950 . S
C405 C401 1.393 . S
C405 C404 1.391 . S
H406 C414 0.950 . S
H407 C419 0.950 . S
H408 C416 0.950 . S
H409 C418 0.950 . S
H410 C420 0.950 . S
H411 C422 0.950 . S
H412 C424 0.950 . S
H413 C425 0.950 . S
C414 H406 0.950 . S
C414 C415 1.386 . S
C414 C416 1.391 . S
C415 C414 1.386 . S
C415 C419 1.393 . S
C416 H408 0.950 . S
C416 C414 1.391 . S
C416 C417 1.400 . S
C417 C416 1.400 . S
C417 C418 1.398 . S
C417 C423 1.491 . S
C418 H409 0.950 . S
C418 C417 1.398 . S
C418 C419 1.391 . S
C419 H407 0.950 . S
C419 C415 1.393 . S
C419 C418 1.391 . S
C420 H410 0.950 . S
C420 C421 1.386 . S
C420 C422 1.391 . S
C421 C420 1.386 . S
C421 C425 1.393 . S
C422 H411 0.950 . S
C422 C420 1.391 . S
C422 C423 1.400 . S
C423 C417 1.491 . S
C423 C422 1.400 . S
C423 C424 1.398 . S
C424 H412 0.950 . S
C424 C423 1.398 . S
C424 C425 1.391 . S
C425 H413 0.950 . S
C425 C421 1.393 . S
C425 C424 1.391 . S
H426 C434 0.950 1_655 S
H427 C439 0.950 . S
H428 C436 0.950 1_655 S
H429 C438 0.950 . S
H430 C440 0.950 . S
H431 C442 0.950 . S
H432 C444 0.950 1_655 S
H433 C445 0.950 1_655 S
C434 H426 0.950 1_455 S
C434 C435 1.386 . S
C434 C436 1.391 . S
C435 C434 1.386 . S
C435 C439 1.393 . S
C436 H428 0.950 1_455 S
C436 C434 1.391 . S
C436 C437 1.400 . S
C437 C436 1.400 . S
C437 C438 1.398 . S
C437 C443 1.491 1_554 S
C438 H429 0.950 . S
C438 C437 1.398 . S
C438 C439 1.391 . S
C439 H427 0.950 . S
C439 C435 1.393 . S
C439 C438 1.391 . S
C440 H430 0.950 . S
C440 C441 1.386 . S
C440 C442 1.391 . S
C441 C440 1.386 . S
C441 C445 1.393 . S
C442 H431 0.950 . S
C442 C440 1.391 . S
C442 C443 1.400 . S
C443 C437 1.491 1_556 S
C443 C442 1.400 . S
C443 C444 1.398 . S
C444 H432 0.950 1_455 S
C444 C443 1.398 . S
C444 C445 1.391 . S
C445 H433 0.950 1_455 S
C445 C441 1.393 . S
C445 C444 1.391 . S
H446 C454 0.950 . S
H447 C459 0.950 . S
H448 C456 0.950 . S
H449 C458 0.950 . S
H450 C460 0.950 . S
H451 C462 0.950 . S
H452 C464 0.950 . S
H453 C465 0.950 . S
C454 H446 0.950 . S
C454 C455 1.386 . S
C454 C456 1.391 . S
C455 C454 1.386 . S
C455 C459 1.393 . S
C456 H448 0.950 . S
C456 C454 1.391 . S
C456 C457 1.400 . S
C457 C456 1.400 . S
C457 C458 1.398 . S
C457 C463 1.491 . S
C458 H449 0.950 . S
C458 C457 1.398 . S
C458 C459 1.391 . S
C459 H447 0.950 . S
C459 C455 1.393 . S
C459 C458 1.391 . S
C460 H450 0.950 . S
C460 C461 1.386 . S
C460 C462 1.391 . S
C461 C460 1.386 . S
C461 C465 1.393 . S
C462 H451 0.950 . S
C462 C460 1.391 . S
C462 C463 1.400 . S
C463 C457 1.491 . S
C463 C462 1.400 . S
C463 C464 1.398 . S
C464 H452 0.950 . S
C464 C463 1.398 . S
C464 C465 1.391 . S
C465 H453 0.950 . S
C465 C461 1.393 . S
C465 C464 1.391 . S
H466 C474 0.950 . S
H467 C479 0.950 . S
H468 C476 0.950 . S
H469 C478 0.950 . S
H470 C480 0.950 . S
H471 C482 0.950 . S
H472 C484 0.950 . S
H473 C485 0.950 . S
C474 H466 0.950 . S
C474 C475 1.386 . S
C474 C476 1.391 . S
C475 C474 1.386 . S
C475 C479 1.393 . S
C476 H468 0.950 . S
C476 C474 1.391 . S
C476 C477 1.400 . S
C477 C476 1.400 . S
C477 C478 1.398 . S
C477 C483 1.491 . S
C478 H469 0.950 . S
C478 C477 1.398 . S
C478 C479 1.391 . S
C479 H467 0.950 . S
C479 C475 1.393 . S
C479 C478 1.391 . S
C480 H470 0.950 . S
C480 C481 1.386 . S
C480 C482 1.391 . S
C481 C480 1.386 . S
C481 C485 1.393 . S
C482 H471 0.950 . S
C482 C480 1.391 . S
C482 C483 1.400 . S
C483 C477 1.491 . S
C483 C482 1.400 . S
C483 C484 1.398 . S
C484 H472 0.950 . S
C484 C483 1.398 . S
C484 C485 1.391 . S
C485 H473 0.950 . S
C485 C481 1.393 . S
C485 C484 1.391 . S
H486 C494 0.950 . S
H487 C499 0.950 . S
H488 C496 0.950 . S
H489 C498 0.950 . S
H490 C500 0.950 . S
H491 C502 0.950 . S
H492 C504 0.950 . S
H493 C505 0.950 . S
C494 H486 0.950 . S
C494 C495 1.386 . S
C494 C496 1.391 . S
C495 C494 1.386 . S
C495 C499 1.393 . S
C496 H488 0.950 . S
C496 C494 1.391 . S
C496 C497 1.400 . S
C497 C496 1.400 . S
C497 C498 1.398 . S
C497 C503 1.491 . S
C498 H489 0.950 . S
C498 C497 1.398 . S
C498 C499 1.391 . S
C499 H487 0.950 . S
C499 C495 1.393 . S
C499 C498 1.391 . S
C500 H490 0.950 . S
C500 C501 1.386 . S
C500 C502 1.391 . S
C501 C500 1.386 . S
C501 C505 1.393 . S
C502 H491 0.950 . S
C502 C500 1.391 . S
C502 C503 1.400 . S
C503 C497 1.491 . S
C503 C502 1.400 . S
C503 C504 1.398 . S
C504 H492 0.950 . S
C504 C503 1.398 . S
C504 C505 1.391 . S
C505 H493 0.950 . S
C505 C501 1.393 . S
C505 C504 1.391 . S
H506 C514 0.950 . S
H507 C519 0.950 . S
H508 C516 0.950 . S
H509 C518 0.950 . S
H510 C520 0.950 . S
H511 C522 0.950 . S
H512 C524 0.950 . S
H513 C525 0.950 . S
C514 H506 0.950 . S
C514 C515 1.386 . S
C514 C516 1.391 . S
C515 C514 1.386 . S
C515 C519 1.393 . S
C516 H508 0.950 . S
C516 C514 1.391 . S
C516 C517 1.400 . S
C517 C516 1.400 . S
C517 C518 1.398 . S
C517 C523 1.491 . S
C518 H509 0.950 . S
C518 C517 1.398 . S
C518 C519 1.391 . S
C519 H507 0.950 . S
C519 C515 1.393 . S
C519 C518 1.391 . S
C520 H510 0.950 . S
C520 C521 1.386 . S
C520 C522 1.391 1_554 S
C521 C520 1.386 . S
C521 C525 1.393 . S
C522 H511 0.950 . S
C522 C520 1.391 1_556 S
C522 C523 1.400 . S
C523 C517 1.491 . S
C523 C522 1.400 . S
C523 C524 1.398 1_556 S
C524 H512 0.950 . S
C524 C523 1.398 1_554 S
C524 C525 1.391 . S
C525 H513 0.950 . S
C525 C521 1.393 . S
C525 C524 1.391 . S
H526 C534 0.950 . S
H527 C539 0.950 . S
H528 C536 0.950 . S
H529 C538 0.950 . S
H530 C540 0.950 . S
H531 C542 0.950 . S
H532 C544 0.950 . S
H533 C545 0.950 . S
C534 H526 0.950 . S
C534 C535 1.386 . S
C534 C536 1.391 . S
C535 C534 1.386 . S
C535 C539 1.393 1_455 S
C536 H528 0.950 . S
C536 C534 1.391 . S
C536 C537 1.400 . S
C537 C536 1.400 . S
C537 C538 1.398 1_455 S
C537 C543 1.491 . S
C538 H529 0.950 . S
C538 C537 1.398 1_655 S
C538 C539 1.391 . S
C539 H527 0.950 . S
C539 C535 1.393 1_655 S
C539 C538 1.391 . S
C540 H530 0.950 . S
C540 C541 1.386 1_655 S
C540 C542 1.391 . S
C541 C540 1.386 1_455 S
C541 C545 1.393 . S
C542 H531 0.950 . S
C542 C540 1.391 . S
C542 C543 1.400 1_655 S
C543 C537 1.491 . S
C543 C542 1.400 1_455 S
C543 C544 1.398 . S
C544 H532 0.950 . S
C544 C543 1.398 . S
C544 C545 1.391 . S
C545 H533 0.950 . S
C545 C541 1.393 . S
C545 C544 1.391 . S
C195 C7 0.754 . S
C201 C185 0.766 . S
C215 C51 1.944 . S
C221 C163 1.900 . S
C235 C87 1.289 . S
C241 C174 1.274 . S
C255 C16 0.402 . S
C261 C179 0.227 . S
C281 C157 1.855 . S
C275 C42 1.877 . S
C301 C168 1.171 . S
C295 C96 1.164 . S
C315 C47 1.310 . S
C321 C141 1.308 . S
C335 C91 3.038 . S
C341 C146 2.993 1_655 S
C355 C2 1.895 . S
C361 C124 1.887 . S
C381 C135 1.166 . S
C375 C56 1.146 . S
C401 C152 3.004 . S
C395 C82 3.043 . S
C415 C11 1.955 . S
C421 C130 1.910 . S
C441 C147 1.727 . S
C435 C19 1.693 . S
C455 C50 1.419 . S
C461 C125 1.474 . S
C475 C99 1.508 . S
C481 C136 1.540 . S
C501 C169 1.524 . S
C495 C59 1.505 . S
C521 C180 1.262 . S
C515 C90 1.237 . S
C535 C10 1.405 . S
C541 C158 1.439 . S
