# Generated by pormake.
# Topology cml, (3,6)-cn, num edge types: 1
# Building blocks:
#     Node 0, Type 0, BuildingBlock: KAKCAD_clean_linker_0, # of connection points: 3
#     Node 1, Type 0, BuildingBlock: KAKCAD_clean_linker_0, # of connection points: 3
#     Node 2, Type 0, BuildingBlock: KAKCAD_clean_linker_0, # of connection points: 3
#     Node 3, Type 0, BuildingBlock: KAKCAD_clean_linker_0, # of connection points: 3
#     Node 4, Type 0, BuildingBlock: KAKCAD_clean_linker_0, # of connection points: 3
#     Node 5, Type 0, BuildingBlock: KAKCAD_clean_linker_0, # of connection points: 3
#     Node 6, Type 0, BuildingBlock: KAKCAD_clean_linker_0, # of connection points: 3
#     Node 7, Type 0, BuildingBlock: KAKCAD_clean_linker_0, # of connection points: 3
#     Node 8, Type 1, BuildingBlock: OJICUG_clean_sbu_0, # of connection points: 6
#     Node 9, Type 1, BuildingBlock: OJICUG_clean_sbu_0, # of connection points: 6
#     Node 10, Type 1, BuildingBlock: OJICUG_clean_sbu_0, # of connection points: 6
#     Node 11, Type 1, BuildingBlock: OJICUG_clean_sbu_0, # of connection points: 6
#     Edge 12, Type (0, 1), BuildingBlock: XUDNAN_clean_linker_2, # of connection points: 2
#     Edge 13, Type (0, 1), BuildingBlock: XUDNAN_clean_linker_2, # of connection points: 2
#     Edge 14, Type (0, 1), BuildingBlock: XUDNAN_clean_linker_2, # of connection points: 2
#     Edge 15, Type (0, 1), BuildingBlock: XUDNAN_clean_linker_2, # of connection points: 2
#     Edge 16, Type (0, 1), BuildingBlock: XUDNAN_clean_linker_2, # of connection points: 2
#     Edge 17, Type (0, 1), BuildingBlock: XUDNAN_clean_linker_2, # of connection points: 2
#     Edge 18, Type (0, 1), BuildingBlock: XUDNAN_clean_linker_2, # of connection points: 2
#     Edge 19, Type (0, 1), BuildingBlock: XUDNAN_clean_linker_2, # of connection points: 2
#     Edge 20, Type (0, 1), BuildingBlock: XUDNAN_clean_linker_2, # of connection points: 2
#     Edge 21, Type (0, 1), BuildingBlock: XUDNAN_clean_linker_2, # of connection points: 2
#     Edge 22, Type (0, 1), BuildingBlock: XUDNAN_clean_linker_2, # of connection points: 2
#     Edge 23, Type (0, 1), BuildingBlock: XUDNAN_clean_linker_2, # of connection points: 2
#     Edge 24, Type (0, 1), BuildingBlock: XUDNAN_clean_linker_2, # of connection points: 2
#     Edge 25, Type (0, 1), BuildingBlock: XUDNAN_clean_linker_2, # of connection points: 2
#     Edge 26, Type (0, 1), BuildingBlock: XUDNAN_clean_linker_2, # of connection points: 2
#     Edge 27, Type (0, 1), BuildingBlock: XUDNAN_clean_linker_2, # of connection points: 2
#     Edge 28, Type (0, 1), BuildingBlock: XUDNAN_clean_linker_2, # of connection points: 2
#     Edge 29, Type (0, 1), BuildingBlock: XUDNAN_clean_linker_2, # of connection points: 2
#     Edge 30, Type (0, 1), BuildingBlock: XUDNAN_clean_linker_2, # of connection points: 2
#     Edge 31, Type (0, 1), BuildingBlock: XUDNAN_clean_linker_2, # of connection points: 2
#     Edge 32, Type (0, 1), BuildingBlock: XUDNAN_clean_linker_2, # of connection points: 2
#     Edge 33, Type (0, 1), BuildingBlock: XUDNAN_clean_linker_2, # of connection points: 2
#     Edge 34, Type (0, 1), BuildingBlock: XUDNAN_clean_linker_2, # of connection points: 2
#     Edge 35, Type (0, 1), BuildingBlock: XUDNAN_clean_linker_2, # of connection points: 2
# Relax obj value: 0.072
# Max RMSD: 0.084
# Mean RMSD: 0.080
data_MOF--net-cml--node1-OJICUG_clean_sbu_0--node2-KAKCAD_clean_linker_0--edge1-XUDNAN_clean_linker_2
_symmetry_space_group_name_H-M    P1
_symmetry_Int_Tables_number       1
_symmetry_cell_setting            triclinic
loop_
_symmetry_equiv_pos_as_xyz
'x, y, z'
_cell_length_a     47.60722
_cell_length_b     47.980127
_cell_length_c     45.243518
_cell_angle_alpha  89.968505
_cell_angle_beta   90.010545
_cell_angle_gamma 90.031034
loop_
_atom_site_label
_atom_site_type_symbol
_atom_site_fract_x
_atom_site_fract_y
_atom_site_fract_z
_atom_type_partial_charge
C0 C 0.2905 0.49839 0.97085 0.0
C1 C 0.31969 0.49933 0.96647 0.0
C2 C 0.27807 0.4751 0.98405 0.0
C3 C 0.29468 0.45254 0.99339 0.0
C4 C 0.32388 0.45363 0.98921 0.0
C5 C 0.33624 0.47675 0.9758 0.0
C6 C 0.28165 0.42774 0.00722 0.0
C7 C 0.25814 0.41516 0.99429 0.0
C8 C 0.24572 0.3913 0.00689 0.0
C9 C 0.25783 0.37984 0.03264 0.0
C10 C 0.28207 0.39169 0.04526 0.0
C11 C 0.29338 0.416 0.03271 0.0
C12 C 0.29648 0.3783 0.07074 0.0
C13 C 0.28124 0.36638 0.09422 0.0
C14 C 0.32601 0.37759 0.07171 0.0
C15 C 0.33995 0.3662 0.09592 0.0
C16 C 0.32477 0.35485 0.1196 0.0
C17 C 0.22097 0.37798 0.99228 0.0
C18 C 0.20187 0.39413 0.97584 0.0
C19 C 0.21673 0.34897 0.99355 0.0
C20 C 0.19431 0.33654 0.97857 0.0
C21 C 0.17601 0.35258 0.96098 0.0
C22 C 0.18018 0.38161 0.95995 0.0
C23 C 0.29529 0.35461 0.1184 0.0
H24 H 0.27727 0.51549 0.96374 0.0
H25 H 0.25551 0.47481 0.98718 0.0
H26 H 0.33714 0.43642 0.99597 0.0
H27 H 0.35884 0.47708 0.973 0.0
H28 H 0.25026 0.42358 0.97369 0.0
H29 H 0.31142 0.42595 0.04284 0.0
H30 H 0.24881 0.36141 0.04262 0.0
H31 H 0.2585 0.36671 0.09427 0.0
H32 H 0.33845 0.38583 0.05366 0.0
H33 H 0.36271 0.36618 0.09609 0.0
H34 H 0.2037 0.41659 0.97486 0.0
H35 H 0.231 0.33557 0.00555 0.0
H36 H 0.28315 0.34603 0.1365 0.0
H37 H 0.16711 0.39492 0.94642 0.0
H38 H 0.19159 0.31426 0.98082 0.0
C39 C 0.69774 0.50363 0.45137 0.0
C40 C 0.66851 0.50294 0.44711 0.0
C41 C 0.71061 0.52739 0.46309 0.0
C42 C 0.69435 0.55058 0.47116 0.0
C43 C 0.66527 0.55016 0.46609 0.0
C44 C 0.65249 0.52663 0.45401 0.0
C45 C 0.7072 0.57428 0.48701 0.0
C46 C 0.7309 0.58799 0.47569 0.0
C47 C 0.74307 0.61037 0.49118 0.0
C48 C 0.73165 0.61832 0.51863 0.0
C49 C 0.70803 0.60464 0.53012 0.0
C50 C 0.69578 0.58285 0.51407 0.0
C51 C 0.69617 0.61262 0.55911 0.0
C52 C 0.71337 0.61365 0.58431 0.0
C53 C 0.66724 0.61755 0.56204 0.0
C54 C 0.65557 0.62275 0.58979 0.0
C55 C 0.67255 0.6227 0.61517 0.0
C56 C 0.76692 0.62625 0.47835 0.0
C57 C 0.76708 0.63352 0.44821 0.0
C58 C 0.78888 0.6357 0.49653 0.0
C59 C 0.80974 0.65311 0.48519 0.0
C60 C 0.8092 0.66137 0.4554 0.0
C61 C 0.78808 0.65086 0.43683 0.0
C62 C 0.70161 0.6184 0.61218 0.0
H63 H 0.71054 0.48565 0.44607 0.0
H64 H 0.73306 0.52723 0.46698 0.0
H65 H 0.65236 0.56787 0.47207 0.0
H66 H 0.62989 0.52656 0.4512 0.0
H67 H 0.7397 0.58134 0.45475 0.0
H68 H 0.67777 0.57193 0.52312 0.0
H69 H 0.74054 0.63571 0.53071 0.0
H70 H 0.73572 0.60976 0.58258 0.0
H71 H 0.6536 0.61697 0.54287 0.0
H72 H 0.63308 0.62577 0.59152 0.0
H73 H 0.75032 0.6268 0.43367 0.0
H74 H 0.78971 0.62999 0.51968 0.0
H75 H 0.71513 0.61838 0.63144 0.0
H76 H 0.78706 0.65705 0.41382 0.0
H77 H 0.8261 0.66052 0.49988 0.0
C78 C 0.67495 0.47177 0.96133 0.0
C79 C 0.67375 0.49759 0.97606 0.0
C80 C 0.6917 0.4502 0.97232 0.0
C81 C 0.70718 0.454 0.99836 0.0
C82 C 0.70715 0.48005 0.01229 0.0
C83 C 0.69089 0.50177 0.00103 0.0
C84 C 0.72073 0.43005 0.01285 0.0
C85 C 0.74267 0.41559 0.999 0.0
C86 C 0.75495 0.39248 0.01297 0.0
C87 C 0.74432 0.38332 0.04027 0.0
C88 C 0.72194 0.39723 0.0539 0.0
C89 C 0.71063 0.42098 0.04034 0.0
C90 C 0.70918 0.38593 0.08124 0.0
C91 C 0.70247 0.35749 0.08313 0.0
C92 C 0.70253 0.40353 0.10501 0.0
C93 C 0.68907 0.39292 0.13006 0.0
C94 C 0.6817 0.36455 0.13169 0.0
C95 C 0.77852 0.37725 0.9992 0.0
C96 C 0.77683 0.36794 0.96983 0.0
C97 C 0.80206 0.37017 0.01627 0.0
C98 C 0.82285 0.3529 0.00476 0.0
C99 C 0.82043 0.34215 0.97599 0.0
C100 C 0.79763 0.35045 0.9583 0.0
C101 C 0.68878 0.34694 0.108 0.0
H102 H 0.66188 0.46766 0.94224 0.0
H103 H 0.69134 0.43009 0.96144 0.0
H104 H 0.71914 0.48335 0.03235 0.0
H105 H 0.69111 0.52158 0.01247 0.0
H106 H 0.75046 0.42263 0.97775 0.0
H107 H 0.69305 0.4317 0.05048 0.0
H108 H 0.75324 0.36501 0.05073 0.0
H109 H 0.70698 0.34353 0.06493 0.0
H110 H 0.70773 0.4255 0.10419 0.0
H111 H 0.68436 0.40699 0.14809 0.0
H112 H 0.75879 0.37307 0.95628 0.0
H113 H 0.80407 0.37751 0.03882 0.0
H114 H 0.68296 0.32512 0.10817 0.0
H115 H 0.79517 0.34241 0.93609 0.0
H116 H 0.84054 0.34744 0.01866 0.0
C117 C 0.30901 0.64894 0.59932 0.0
C118 C 0.33826 0.64955 0.6036 0.0
C119 C 0.29777 0.64384 0.57126 0.0
C120 C 0.3156 0.63896 0.54709 0.0
C121 C 0.3448 0.64085 0.55112 0.0
C122 C 0.35602 0.64621 0.57906 0.0
C123 C 0.30398 0.62927 0.51849 0.0
C124 C 0.28104 0.64281 0.50519 0.0
C125 C 0.26962 0.63269 0.47858 0.0
C126 C 0.2809 0.6084 0.4659 0.0
C127 C 0.30368 0.59466 0.47901 0.0
C128 C 0.3153 0.60538 0.50509 0.0
C129 C 0.3148 0.56859 0.46602 0.0
C130 C 0.29648 0.54686 0.45816 0.0
C131 C 0.34384 0.56499 0.46214 0.0
C132 C 0.35439 0.54002 0.45082 0.0
C133 C 0.33611 0.51806 0.44354 0.0
C134 C 0.24582 0.64708 0.46382 0.0
C135 C 0.22265 0.65676 0.48013 0.0
C136 C 0.24564 0.65005 0.43292 0.0
C137 C 0.22239 0.66134 0.41851 0.0
C138 C 0.19878 0.67004 0.43465 0.0
C139 C 0.19934 0.66818 0.46566 0.0
C140 C 0.30705 0.52175 0.4472 0.0
H141 H 0.29483 0.65167 0.61782 0.0
H142 H 0.27518 0.64237 0.56878 0.0
H143 H 0.359 0.63736 0.53278 0.0
H144 H 0.37863 0.64635 0.5817 0.0
H145 H 0.27249 0.66146 0.51525 0.0
H146 H 0.33248 0.5944 0.51566 0.0
H147 H 0.27185 0.60001 0.4458 0.0
H148 H 0.27401 0.54905 0.46114 0.0
H149 H 0.35838 0.58149 0.46789 0.0
H150 H 0.3769 0.53762 0.44846 0.0
H151 H 0.22211 0.6546 0.50395 0.0
H152 H 0.26343 0.6434 0.41978 0.0
H153 H 0.29252 0.50519 0.44162 0.0
H154 H 0.18137 0.67463 0.47864 0.0
H155 H 0.22281 0.66308 0.39464 0.0
C156 C 0.79994 0.00839 0.98465 0.0
C157 C 0.81736 0.00699 0.95955 0.0
C158 C 0.7841 0.9853 0.99336 0.0
C159 C 0.78493 0.9606 0.97682 0.0
C160 C 0.80047 0.95987 0.9505 0.0
C161 C 0.81667 0.98277 0.94202 0.0
C162 C 0.7735 0.93444 0.98913 0.0
C163 C 0.75678 0.91672 0.97185 0.0
C164 C 0.74984 0.89003 0.98217 0.0
C165 C 0.75968 0.8811 0.00986 0.0
C166 C 0.77634 0.89866 0.02739 0.0
C167 C 0.78267 0.92553 0.01705 0.0
C168 C 0.78926 0.88815 0.05511 0.0
C169 C 0.77387 0.87164 0.07507 0.0
C170 C 0.81763 0.89383 0.0612 0.0
C171 C 0.83035 0.8833 0.08659 0.0
C172 C 0.81507 0.86676 0.10655 0.0
C173 C 0.73379 0.87062 0.9634 0.0
C174 C 0.70655 0.87726 0.95397 0.0
C175 C 0.7453 0.84464 0.9561 0.0
C176 C 0.7294 0.82509 0.94064 0.0
C177 C 0.70144 0.8309 0.93271 0.0
C178 C 0.69039 0.85748 0.9389 0.0
C179 C 0.78667 0.86101 0.10055 0.0
H180 H 0.79938 0.02694 0.99825 0.0
H181 H 0.7721 0.98633 0.01367 0.0
H182 H 0.8017 0.9409 0.93758 0.0
H183 H 0.83 0.9807 0.92277 0.0
H184 H 0.75007 0.92327 0.95003 0.0
H185 H 0.79595 0.93911 0.03015 0.0
H186 H 0.75506 0.86009 0.01727 0.0
H187 H 0.75193 0.86704 0.07105 0.0
H188 H 0.83029 0.90587 0.04594 0.0
H189 H 0.85243 0.88758 0.0902 0.0
H190 H 0.69735 0.89726 0.95943 0.0
H191 H 0.76649 0.83933 0.96279 0.0
H192 H 0.77432 0.84848 0.11565 0.0
H193 H 0.66887 0.8626 0.93338 0.0
H194 H 0.73884 0.80513 0.93556 0.0
C195 C 0.19545 0.00718 0.44013 0.0
C196 C 0.16631 0.00372 0.43788 0.0
C197 C 0.2066 0.0281 0.45808 0.0
C198 C 0.18879 0.04641 0.47361 0.0
C199 C 0.15955 0.04268 0.47141 0.0
C200 C 0.14845 0.02139 0.45391 0.0
C201 C 0.20071 0.06983 0.49116 0.0
C202 C 0.22461 0.08395 0.481 0.0
C203 C 0.23679 0.10568 0.49739 0.0
C204 C 0.22352 0.11447 0.52354 0.0
C205 C 0.19874 0.10148 0.53347 0.0
C206 C 0.18804 0.07862 0.51758 0.0
C207 C 0.18333 0.11242 0.55964 0.0
C208 C 0.19778 0.12306 0.58434 0.0
C209 C 0.15377 0.11307 0.55965 0.0
C210 C 0.13907 0.12393 0.58369 0.0
C211 C 0.15354 0.13478 0.60813 0.0
C212 C 0.26309 0.11917 0.4866 0.0
C213 C 0.28312 0.10343 0.47101 0.0
C214 C 0.26819 0.14776 0.49092 0.0
C215 C 0.29242 0.16028 0.47954 0.0
C216 C 0.31183 0.14471 0.46283 0.0
C217 C 0.30677 0.11607 0.45884 0.0
C218 C 0.18302 0.1343 0.60825 0.0
H219 H 0.20959 0.99354 0.42819 0.0
H220 H 0.22922 0.0299 0.45974 0.0
H221 H 0.14516 0.05659 0.48259 0.0
H222 H 0.12585 0.01918 0.45227 0.0
H223 H 0.23342 0.07834 0.45977 0.0
H224 H 0.16983 0.06758 0.5259 0.0
H225 H 0.23224 0.13166 0.536 0.0
H226 H 0.2205 0.12253 0.58534 0.0
H227 H 0.14189 0.10569 0.54079 0.0
H228 H 0.11633 0.12438 0.58289 0.0
H229 H 0.28051 0.08122 0.46785 0.0
H230 H 0.25325 0.16073 0.50255 0.0
H231 H 0.19464 0.1423 0.62701 0.0
H232 H 0.32069 0.10325 0.44573 0.0
H233 H 0.29572 0.18222 0.48379 0.0
C234 C 0.19889 0.97436 0.92706 0.0
C235 C 0.17847 0.9915 0.94009 0.0
C236 C 0.21123 0.95278 0.94296 0.0
C237 C 0.20448 0.94824 0.9729 0.0
C238 C 0.18528 0.96648 0.98653 0.0
C239 C 0.17222 0.98767 0.97025 0.0
C240 C 0.21611 0.9234 0.98869 0.0
C241 C 0.24203 0.91222 0.98001 0.0
C242 C 0.2502 0.8853 0.98851 0.0
C243 C 0.2344 0.8714 0.01029 0.0
C244 C 0.20975 0.88346 0.02184 0.0
C245 C 0.20025 0.90894 0.00997 0.0
C246 C 0.19324 0.86926 0.04552 0.0
C247 C 0.19068 0.84004 0.04651 0.0
C248 C 0.1797 0.8851 0.06742 0.0
C249 C 0.16374 0.87222 0.08939 0.0
C250 C 0.16123 0.84301 0.09053 0.0
C251 C 0.27316 0.871 0.97194 0.0
C252 C 0.27686 0.87664 0.94163 0.0
C253 C 0.29049 0.85084 0.98526 0.0
C254 C 0.31057 0.83645 0.96852 0.0
C255 C 0.31406 0.84219 0.93818 0.0
C256 C 0.29725 0.86287 0.92521 0.0
C257 C 0.17501 0.82708 0.06883 0.0
H258 H 0.20496 0.97706 0.90418 0.0
H259 H 0.22532 0.93908 0.93112 0.0
H260 H 0.17985 0.96413 0.00962 0.0
H261 H 0.15651 0.00035 0.98111 0.0
H262 H 0.25539 0.92399 0.9652 0.0
H263 H 0.1799 0.91685 0.01651 0.0
H264 H 0.24096 0.85102 0.01781 0.0
H265 H 0.20041 0.82708 0.02983 0.0
H266 H 0.18147 0.9076 0.06773 0.0
H267 H 0.15303 0.88535 0.10523 0.0
H268 H 0.26356 0.89136 0.93009 0.0
H269 H 0.28851 0.846 0.00853 0.0
H270 H 0.17384 0.80455 0.06908 0.0
H271 H 0.29963 0.86846 0.90216 0.0
H272 H 0.32291 0.82047 0.97931 0.0
C273 C 0.79781 0.13085 0.61402 0.0
C274 C 0.8266 0.13472 0.61942 0.0
C275 C 0.78839 0.12313 0.58598 0.0
C276 C 0.80757 0.11897 0.56277 0.0
C277 C 0.83635 0.12299 0.56811 0.0
C278 C 0.84577 0.13088 0.59614 0.0
C279 C 0.79748 0.11028 0.53318 0.0
C280 C 0.77377 0.12304 0.52074 0.0
C281 C 0.7631 0.11427 0.49334 0.0
C282 C 0.77698 0.09286 0.47803 0.0
C283 C 0.80096 0.07995 0.48998 0.0
C284 C 0.81101 0.08881 0.51766 0.0
C285 C 0.81528 0.05708 0.47367 0.0
C286 C 0.79958 0.03737 0.45761 0.0
C287 C 0.84477 0.05502 0.47357 0.0
C288 C 0.8582 0.03408 0.45743 0.0
C289 C 0.84244 0.01497 0.44078 0.0
C290 C 0.73698 0.12693 0.48128 0.0
C291 C 0.71477 0.1339 0.50035 0.0
C292 C 0.73381 0.13187 0.45081 0.0
C293 C 0.70893 0.14329 0.4397 0.0
C294 C 0.68675 0.15026 0.45884 0.0
C295 C 0.69013 0.14562 0.48933 0.0
C296 C 0.81302 0.01668 0.44119 0.0
H297 H 0.78256 0.1338 0.63151 0.0
H298 H 0.76609 0.11994 0.58257 0.0
H299 H 0.85158 0.12014 0.55058 0.0
H300 H 0.86812 0.13339 0.59974 0.0
H301 H 0.76378 0.14009 0.53238 0.0
H302 H 0.82888 0.07842 0.5276 0.0
H303 H 0.76895 0.08606 0.45683 0.0
H304 H 0.77684 0.03785 0.45773 0.0
H305 H 0.85756 0.07002 0.48536 0.0
H306 H 0.88094 0.03334 0.45724 0.0
H307 H 0.71622 0.13003 0.52388 0.0
H308 H 0.75061 0.12708 0.4355 0.0
H309 H 0.80039 0.00194 0.42883 0.0
H310 H 0.67378 0.15122 0.50486 0.0
H311 H 0.707 0.14636 0.41607 0.0
Sc312 Sc 0.98974 0.7805 0.30026 0.0
Sc313 Sc -8e-05 0.85292 0.29213 0.0
Sc314 Sc 0.00133 0.82309 0.36293 0.0
O315 O 0.99703 0.81879 0.31845 0.0
C316 C 0.9527 0.77748 0.35912 0.0
C317 C 0.94997 0.81866 0.26124 0.0
C318 C 0.96312 0.87544 0.34579 0.0
C319 C 0.03329 0.80807 0.25451 0.0
C320 C 0.03594 0.76735 0.34964 0.0
C321 C 0.04647 0.86708 0.34063 0.0
O322 O 0.95869 0.76895 0.33325 0.0
O323 O 0.96471 0.8404 0.2654 0.0
O324 O 0.97273 0.85813 0.3646 0.0
O325 O 0.01983 0.7872 0.26472 0.0
O326 O 0.03036 0.78855 0.36552 0.0
O327 O 0.0355 0.87028 0.31528 0.0
O328 O 0.02305 0.76191 0.32567 0.0
O329 O 0.02911 0.83288 0.2632 0.0
O330 O 0.03669 0.8504 0.35978 0.0
O331 O 0.9557 0.79535 0.27314 0.0
O332 O 0.96633 0.7967 0.37193 0.0
O333 O 0.97075 0.87583 0.31887 0.0
Sc334 Sc 0.99003 0.21305 0.81789 0.0
Sc335 Sc 0.9938 0.13999 0.81887 0.0
Sc336 Sc 0.01026 0.17788 0.88264 0.0
O337 O -0.00191 0.17692 0.83979 0.0
C338 C 0.04075 0.23154 0.86016 0.0
C339 C 0.0263 0.17887 0.77209 0.0
C340 C 0.04812 0.12831 0.85809 0.0
C341 C 0.94416 0.17278 0.78899 0.0
C342 C 0.96052 0.22316 0.87895 0.0
C343 C 0.96695 0.12732 0.88206 0.0
O344 O 0.02203 0.23639 0.84085 0.0
O345 O 0.01655 0.15549 0.78087 0.0
O346 O 0.04242 0.14664 0.87744 0.0
O347 O 0.95618 0.1963 0.79127 0.0
O348 O 0.97896 0.20888 0.89264 0.0
O349 O 0.97046 0.12168 0.85483 0.0
O350 O 0.9598 0.22543 0.85088 0.0
O351 O 0.95407 0.15073 0.80021 0.0
O352 O 0.9798 0.14702 0.89506 0.0
O353 O 0.02025 0.20203 0.78435 0.0
O354 O 0.04178 0.20902 0.87481 0.0
O355 O 0.03288 0.12422 0.83548 0.0
Sc356 Sc 0.5001 0.27886 0.31842 0.0
Sc357 Sc 0.49665 0.35223 0.32134 0.0
Sc358 Sc 0.49132 0.31252 0.38638 0.0
O359 O 0.496 0.31461 0.34198 0.0
C360 C 0.45425 0.26199 0.36726 0.0
C361 C 0.45796 0.31475 0.27918 0.0
C362 C 0.45145 0.36417 0.37119 0.0
C363 C 0.54199 0.31926 0.28358 0.0
C364 C 0.53551 0.26341 0.37418 0.0
C365 C 0.53521 0.3619 0.37835 0.0
O366 O 0.46966 0.25674 0.34499 0.0
O367 O 0.46766 0.33809 0.28796 0.0
O368 O 0.4609 0.34555 0.38842 0.0
O369 O 0.53189 0.29541 0.28945 0.0
O370 O 0.5203 0.27832 0.39095 0.0
O371 O 0.52574 0.36917 0.35316 0.0
O372 O 0.53348 0.26361 0.34618 0.0
O373 O 0.53207 0.34162 0.29427 0.0
O374 O 0.52576 0.34111 0.39281 0.0
O375 O 0.46674 0.29136 0.28885 0.0
O376 O 0.45693 0.28377 0.38296 0.0
O377 O 0.46141 0.36846 0.34558 0.0
Sc378 Sc 0.50569 0.6986 0.80824 0.0
Sc379 Sc 0.49848 0.62698 0.82528 0.0
Sc380 Sc 0.49685 0.67638 0.88193 0.0
O381 O 0.50032 0.66736 0.83834 0.0
C382 C 0.5473 0.71484 0.8611 0.0
C383 C 0.5454 0.65143 0.78179 0.0
C384 C 0.53348 0.6205 0.88396 0.0
C385 C 0.46147 0.65825 0.77658 0.0
C386 C 0.46387 0.72756 0.85337 0.0
C387 C 0.45077 0.62984 0.87543 0.0
O388 O 0.53843 0.71816 0.83472 0.0
O389 O 0.53272 0.63146 0.79454 0.0
O390 O 0.52166 0.64143 0.89573 0.0
O391 O 0.47396 0.68163 0.77908 0.0
O392 O 0.47169 0.71275 0.87504 0.0
O393 O 0.46411 0.61749 0.85485 0.0
O394 O 0.47317 0.72415 0.82733 0.0
O395 O 0.46767 0.63697 0.79208 0.0
O396 O 0.45872 0.65289 0.88643 0.0
O397 O 0.53833 0.67679 0.78488 0.0
O398 O 0.53483 0.69989 0.88021 0.0
O399 O 0.52907 0.61334 0.85734 0.0
H400 H 0.17406 0.29895 0.93802 0.0
H401 H 0.12486 0.3752 0.94444 0.0
H402 H 0.08823 0.35394 0.9138 0.0
H403 H 0.15353 0.27737 0.86503 0.0
H404 H 0.15058 0.24108 0.87488 0.0
H405 H 0.17504 0.26322 0.89419 0.0
H406 H 0.15211 0.24995 0.94423 0.0
H407 H 0.12786 0.22751 0.92512 0.0
H408 H 0.11481 0.25459 0.94906 0.0
H409 H 0.05661 0.32465 0.88265 0.0
H410 H 0.0285 0.28679 0.86058 0.0
H411 H 0.09491 0.22779 0.88055 0.0
C412 C 0.1556 0.31133 0.93341 0.0
C413 C 0.15305 0.33921 0.94342 0.0
C414 C 0.12826 0.35429 0.9363 0.0
C415 C 0.10707 0.34232 0.91898 0.0
C416 C 0.11051 0.31499 0.90944 0.0
C417 C 0.13382 0.29945 0.91698 0.0
C418 C 0.13101 0.26959 0.90651 0.0
C419 C 0.1539 0.26241 0.8838 0.0
C420 C 0.13146 0.24921 0.9328 0.0
C421 C 0.1023 0.27075 0.89219 0.0
C422 C 0.09122 0.29735 0.89342 0.0
C423 C 0.06501 0.30372 0.88159 0.0
C424 C 0.0493 0.28213 0.86894 0.0
C425 C 0.0596 0.25445 0.8689 0.0
C426 C 0.08661 0.2488 0.8803 0.0
H427 H 0.83974 0.66064 0.4036 0.0
H428 H 0.82397 0.7098 0.4824 0.0
H429 H 0.85735 0.74541 0.46489 0.0
H430 H 0.91346 0.67477 0.39942 0.0
H431 H 0.91446 0.67671 0.35965 0.0
H432 H 0.88847 0.65536 0.37766 0.0
H433 H 0.84898 0.68175 0.3499 0.0
H434 H 0.87488 0.70324 0.33184 0.0
H435 H 0.84693 0.71917 0.35273 0.0
H436 H 0.89232 0.77503 0.44001 0.0
H437 H 0.929 0.79691 0.40987 0.0
H438 H 0.92329 0.72902 0.34651 0.0
C439 C 0.84322 0.67902 0.417 0.0
C440 C 0.82941 0.68244 0.44444 0.0
C441 C 0.83464 0.7066 0.46154 0.0
C442 C 0.85337 0.72703 0.45167 0.0
C443 C 0.86672 0.72301 0.42466 0.0
C444 C 0.86205 0.69964 0.40754 0.0
C445 C 0.88001 0.70021 0.37982 0.0
C446 C 0.9003 0.67529 0.37911 0.0
C447 C 0.86159 0.70115 0.35192 0.0
C448 C 0.89563 0.72746 0.38427 0.0
C449 C 0.88738 0.74025 0.4102 0.0
C450 C 0.89898 0.76528 0.41962 0.0
C451 C 0.9199 0.7775 0.40229 0.0
C452 C 0.92921 0.76467 0.37578 0.0
C453 C 0.91659 0.73943 0.36653 0.0
H454 H 0.84524 0.33789 0.92103 0.0
H455 H 0.84097 0.2981 0.00717 0.0
H456 H 0.87525 0.26298 0.99089 0.0
H457 H 0.85132 0.27357 0.87843 0.0
H458 H 0.87547 0.2883 0.85201 0.0
H459 H 0.85003 0.31029 0.87005 0.0
H460 H 0.89003 0.34258 0.88841 0.0
H461 H 0.91557 0.3207 0.87046 0.0
H462 H 0.91863 0.32794 0.90942 0.0
H463 H 0.91061 0.2334 0.96666 0.0
H464 H 0.94544 0.21003 0.93522 0.0
H465 H 0.92661 0.2676 0.86371 0.0
C466 C 0.85135 0.32163 0.93632 0.0
C467 C 0.84067 0.32091 0.96548 0.0
C468 C 0.84931 0.29941 0.98495 0.0
C469 C 0.86858 0.27922 0.97585 0.0
C470 C 0.8789 0.28067 0.94714 0.0
C471 C 0.8706 0.30118 0.92757 0.0
C472 C 0.88545 0.29805 0.8981 0.0
C473 C 0.8643 0.2922 0.87317 0.0
C474 C 0.90349 0.32385 0.89121 0.0
C475 C 0.90356 0.27275 0.90439 0.0
C476 C 0.89932 0.26313 0.93283 0.0
C477 C 0.91408 0.24061 0.94429 0.0
C478 C 0.93391 0.22756 0.92625 0.0
C479 C 0.93879 0.23702 0.897 0.0
C480 C 0.92318 0.25978 0.88588 0.0
H481 H 0.16597 0.71569 0.44754 0.0
H482 H 0.17423 0.64668 0.38616 0.0
H483 H 0.13281 0.66346 0.35868 0.0
H484 H 0.08946 0.71682 0.44906 0.0
H485 H 0.0875 0.75431 0.45076 0.0
H486 H 0.11733 0.73642 0.46627 0.0
H487 H 0.15073 0.76606 0.43369 0.0
H488 H 0.121 0.78398 0.41806 0.0
H489 H 0.14574 0.76662 0.39419 0.0
H490 H 0.09154 0.68801 0.3372 0.0
H491 H 0.05285 0.71911 0.3226 0.0
H492 H 0.07097 0.77242 0.39791 0.0
C493 C 0.15884 0.70398 0.42851 0.0
C494 C 0.17337 0.67996 0.41889 0.0
C495 C 0.16363 0.66535 0.39367 0.0
C496 C 0.14004 0.67461 0.37803 0.0
C497 C 0.12637 0.69848 0.3879 0.0
C498 C 0.13534 0.713 0.41253 0.0
C499 C 0.11723 0.73847 0.4179 0.0
C500 C 0.10197 0.73636 0.44777 0.0
C501 C 0.13472 0.76537 0.41582 0.0
C502 C 0.09683 0.73604 0.39231 0.0
C503 C 0.10245 0.71276 0.37539 0.0
C504 C 0.08683 0.70627 0.35032 0.0
C505 C 0.06489 0.72413 0.34221 0.0
C506 C 0.05875 0.74828 0.35908 0.0
C507 C 0.07497 0.75412 0.38456 0.0
H508 H 0.65973 0.83507 0.89024 0.0
H509 H 0.70103 0.77609 0.94883 0.0
H510 H 0.66912 0.73923 0.93206 0.0
H511 H 0.59135 0.81176 0.90438 0.0
H512 H 0.57845 0.81634 0.86723 0.0
H513 H 0.60691 0.83762 0.88052 0.0
H514 H 0.63782 0.82169 0.83654 0.0
H515 H 0.60938 0.80036 0.82306 0.0
H516 H 0.64326 0.785 0.8302 0.0
H517 H 0.63036 0.71031 0.91423 0.0
H518 H 0.58641 0.69015 0.89523 0.0
H519 H 0.56887 0.76678 0.84767 0.0
C520 C 0.66227 0.81432 0.89927 0.0
C521 C 0.68326 0.80848 0.92057 0.0
C522 C 0.68574 0.78104 0.93191 0.0
C523 C 0.66757 0.75991 0.92265 0.0
C524 C 0.64698 0.76645 0.902 0.0
C525 C 0.64419 0.79289 0.89029 0.0
C526 C 0.61884 0.79461 0.87 0.0
C527 C 0.59764 0.81637 0.88122 0.0
C528 C 0.62787 0.80078 0.83805 0.0
C529 C 0.6074 0.76523 0.87297 0.0
C530 C 0.62421 0.74939 0.89138 0.0
C531 C 0.61722 0.7223 0.89943 0.0
C532 C 0.59216 0.71112 0.88867 0.0
C533 C 0.57442 0.72694 0.86997 0.0
C534 C 0.58236 0.75417 0.86155 0.0
H535 H 0.31723 0.19907 0.44283 0.0
H536 H 0.36374 0.12139 0.45145 0.0
H537 H 0.40316 0.14221 0.4244 0.0
H538 H 0.34183 0.22011 0.3723 0.0
H539 H 0.34541 0.2564 0.38191 0.0
H540 H 0.31963 0.23511 0.40038 0.0
H541 H 0.34101 0.2481 0.45124 0.0
H542 H 0.36657 0.26976 0.43296 0.0
H543 H 0.37796 0.24255 0.45769 0.0
H544 H 0.43665 0.17041 0.39435 0.0
H545 H 0.46571 0.20694 0.37097 0.0
H546 H 0.40056 0.26799 0.38812 0.0
C547 C 0.33575 0.18638 0.43959 0.0
C548 C 0.33676 0.15818 0.44884 0.0
C549 C 0.36167 0.14262 0.44369 0.0
C550 C 0.38439 0.15432 0.4285 0.0
C551 C 0.38233 0.18188 0.41925 0.0
C552 C 0.359 0.19796 0.42527 0.0
C553 C 0.36298 0.22765 0.41464 0.0
C554 C 0.34116 0.23525 0.3909 0.0
C555 C 0.36209 0.24823 0.44069 0.0
C556 C 0.39218 0.22563 0.40159 0.0
C557 C 0.40266 0.19886 0.40392 0.0
C558 C 0.42882 0.19151 0.39262 0.0
C559 C 0.44503 0.21229 0.37919 0.0
C560 C 0.43523 0.24009 0.37783 0.0
C561 C 0.40843 0.24683 0.38901 0.0
H562 H 0.36587 0.82134 0.95468 0.0
H563 H 0.30873 0.82664 0.8799 0.0
H564 H 0.3432 0.80232 0.84885 0.0
H565 H 0.43111 0.82805 0.91456 0.0
H566 H 0.4491 0.80235 0.9366 0.0
H567 H 0.42112 0.82264 0.95256 0.0
H568 H 0.39488 0.77733 0.96727 0.0
H569 H 0.42291 0.75695 0.95166 0.0
H570 H 0.3873 0.75161 0.93934 0.0
H571 H 0.38354 0.77673 0.8258 0.0
H572 H 0.42435 0.7467 0.81436 0.0
H573 H 0.45302 0.75473 0.90503 0.0
C574 C 0.36042 0.81734 0.93185 0.0
C575 C 0.33466 0.82656 0.91976 0.0
C576 C 0.32864 0.82076 0.88963 0.0
C577 C 0.34803 0.80677 0.87174 0.0
C578 C 0.37326 0.79827 0.88432 0.0
C579 C 0.37931 0.80294 0.91378 0.0
C580 C 0.40699 0.78978 0.92241 0.0
C581 C 0.42834 0.81204 0.9321 0.0
C582 C 0.40275 0.7676 0.94659 0.0
C583 C 0.41533 0.77672 0.89327 0.0
C584 C 0.39588 0.7823 0.87142 0.0
C585 C 0.39896 0.7722 0.84271 0.0
C586 C 0.42224 0.75531 0.83637 0.0
C587 C 0.44172 0.74839 0.85883 0.0
C588 C 0.43838 0.75964 0.88745 0.0
H589 H 0.67994 0.18786 0.41316 0.0
H590 H 0.63319 0.14011 0.47837 0.0
H591 H 0.58955 0.16305 0.46249 0.0
H592 H 0.6427 0.25053 0.41959 0.0
H593 H 0.6428 0.2587 0.38071 0.0
H594 H 0.67055 0.23783 0.3962 0.0
H595 H 0.66003 0.1986 0.35846 0.0
H596 H 0.63235 0.21945 0.34266 0.0
H597 H 0.62492 0.18473 0.35573 0.0
H598 H 0.55208 0.19396 0.44333 0.0
H599 H 0.52162 0.22827 0.41828 0.0
H600 H 0.5911 0.25305 0.36212 0.0
C601 C 0.66048 0.18175 0.42372 0.0
C602 C 0.66017 0.16241 0.44736 0.0
C603 C 0.63419 0.15536 0.46076 0.0
C604 C 0.6092 0.16809 0.45173 0.0
C605 C 0.61038 0.18743 0.42886 0.0
C606 C 0.6352 0.19393 0.41465 0.0
C607 C 0.63055 0.21573 0.39085 0.0
C608 C 0.64767 0.24226 0.39724 0.0
C609 C 0.63736 0.20391 0.3601 0.0
C610 C 0.59934 0.22086 0.39442 0.0
C611 C 0.58823 0.20438 0.41662 0.0
C612 C 0.56036 0.20664 0.42557 0.0
C613 C 0.54332 0.22624 0.41138 0.0
C614 C 0.55411 0.24297 0.38828 0.0
C615 C 0.58237 0.2401 0.37945 0.0
H616 H 0.35938 0.49912 0.92299 0.0
H617 H 0.31059 0.55452 0.9786 0.0
H618 H 0.3361 0.59503 0.95788 0.0
H619 H 0.42352 0.53309 0.93122 0.0
H620 H 0.43511 0.52752 0.89376 0.0
H621 H 0.41092 0.50348 0.91058 0.0
H622 H 0.37576 0.51125 0.86757 0.0
H623 H 0.39992 0.53533 0.85056 0.0
H624 H 0.3645 0.54613 0.85869 0.0
H625 H 0.3706 0.62865 0.9351 0.0
H626 H 0.41011 0.65296 0.91078 0.0
H627 H 0.43542 0.57521 0.86956 0.0
C628 C 0.35388 0.51982 0.93057 0.0
C629 C 0.33309 0.52378 0.95238 0.0
C630 C 0.32629 0.55113 0.96167 0.0
C631 C 0.34069 0.57421 0.95008 0.0
C632 C 0.36151 0.5695 0.929 0.0
C633 C 0.36786 0.54299 0.91912 0.0
C634 C 0.39204 0.54332 0.89746 0.0
C635 C 0.41685 0.52583 0.90896 0.0
C636 C 0.38247 0.53342 0.86675 0.0
C637 C 0.39891 0.57407 0.89737 0.0
C638 C 0.38099 0.58889 0.91553 0.0
C639 C 0.38449 0.61734 0.92046 0.0
C640 C 0.40704 0.63093 0.90664 0.0
C641 C 0.42576 0.61602 0.88812 0.0
C642 C 0.42125 0.58731 0.88318 0.0
H643 H 0.62821 0.4976 0.40439 0.0
H644 H 0.67612 0.45034 0.4687 0.0
H645 H 0.64846 0.40819 0.45669 0.0
H646 H 0.5627 0.46777 0.41943 0.0
H647 H 0.55085 0.46722 0.38159 0.0
H648 H 0.57597 0.49296 0.39335 0.0
H649 H 0.6105 0.47696 0.35244 0.0
H650 H 0.58535 0.45131 0.34035 0.0
H651 H 0.62046 0.44077 0.35024 0.0
H652 H 0.61231 0.37271 0.44132 0.0
H653 H 0.57305 0.34527 0.42049 0.0
H654 H 0.54987 0.41561 0.36524 0.0
C655 C 0.63309 0.47826 0.41562 0.0
C656 C 0.65428 0.4771 0.4374 0.0
C657 C 0.66018 0.45149 0.45166 0.0
C658 C 0.6445 0.42753 0.44511 0.0
C659 C 0.62328 0.42954 0.424 0.0
C660 C 0.61786 0.45414 0.40914 0.0
C661 C 0.59344 0.45098 0.388 0.0
C662 C 0.56932 0.47091 0.39609 0.0
C663 C 0.60302 0.45525 0.35585 0.0
C664 C 0.58554 0.42095 0.3938 0.0
C665 C 0.60294 0.40893 0.41465 0.0
C666 C 0.59877 0.38177 0.42467 0.0
C667 C 0.57633 0.36642 0.41286 0.0
C668 C 0.55851 0.37826 0.39114 0.0
C669 C 0.56333 0.40586 0.38153 0.0
H670 H 0.65643 0.51181 0.9196 0.0
H671 H 0.64309 0.53157 0.01231 0.0
H672 H 0.60717 0.5658 0.99833 0.0
H673 H 0.6452 0.58145 0.89049 0.0
H674 H 0.62662 0.5694 0.85821 0.0
H675 H 0.65291 0.54763 0.87515 0.0
H676 H 0.61644 0.50782 0.88039 0.0
H677 H 0.59002 0.52951 0.86358 0.0
H678 H 0.58387 0.51438 0.89948 0.0
H679 H 0.57201 0.59667 0.97519 0.0
H680 H 0.53894 0.62264 0.94389 0.0
H681 H 0.57272 0.58168 0.86594 0.0
C682 C 0.64601 0.52333 0.93698 0.0
C683 C 0.65301 0.51917 0.96708 0.0
C684 C 0.63881 0.53483 0.98907 0.0
C685 C 0.61813 0.55419 0.98139 0.0
C686 C 0.61163 0.55756 0.95165 0.0
C687 C 0.62504 0.54261 0.92974 0.0
C688 C 0.6132 0.54966 0.89952 0.0
C689 C 0.63584 0.56282 0.87968 0.0
C690 C 0.6001 0.5238 0.88489 0.0
C691 C 0.59094 0.57075 0.908 0.0
C692 C 0.59059 0.57505 0.93819 0.0
C693 C 0.57205 0.59355 0.9515 0.0
C694 C 0.55335 0.60821 0.93347 0.0
C695 C 0.55317 0.6042 0.90241 0.0
C696 C 0.57221 0.58509 0.88959 0.0
H697 H 0.3759 0.50922 0.40084 0.0
H698 H 0.32232 0.46614 0.46353 0.0
H699 H 0.34363 0.42121 0.44902 0.0
H700 H 0.37486 0.45445 0.34381 0.0
H701 H 0.41104 0.46023 0.33378 0.0
H702 H 0.3901 0.48867 0.34758 0.0
H703 H 0.42692 0.49771 0.3887 0.0
H704 H 0.44792 0.46933 0.37507 0.0
H705 H 0.43674 0.46965 0.41313 0.0
H706 H 0.37419 0.38199 0.43165 0.0
H707 H 0.41012 0.35064 0.41046 0.0
H708 H 0.44226 0.41888 0.35733 0.0
C709 C 0.3685 0.49026 0.41127 0.0
C710 C 0.34748 0.49105 0.43326 0.0
C711 C 0.33821 0.46589 0.4464 0.0
C712 C 0.35023 0.44032 0.43837 0.0
C713 C 0.37118 0.4403 0.41688 0.0
C714 C 0.38003 0.46456 0.40325 0.0
C715 C 0.4035 0.45892 0.38149 0.0
C716 C 0.39431 0.46598 0.34979 0.0
C717 C 0.43035 0.47484 0.39013 0.0
C718 C 0.40701 0.42781 0.38561 0.0
C719 C 0.38816 0.41747 0.4061 0.0
C720 C 0.38873 0.38972 0.41518 0.0
C721 C 0.40924 0.37213 0.40314 0.0
C722 C 0.42869 0.38231 0.38205 0.0
C723 C 0.42724 0.41041 0.37293 0.0
H724 H 0.83569 0.02633 0.90538 0.0
H725 H 0.84759 0.03727 -8e-05 0.0
H726 H 0.88578 0.07053 0.9902 0.0
H727 H 0.9078 0.02505 0.88775 0.0
H728 H 0.90416 0.04338 0.85318 0.0
H729 H 0.87544 0.02284 0.86718 0.0
H730 H 0.84263 0.06587 0.86465 0.0
H731 H 0.8712 0.0865 0.85035 0.0
H732 H 0.85277 0.09763 0.88307 0.0
H733 H 0.92455 0.1003 0.97061 0.0
H734 H 0.96075 0.12547 0.94218 0.0
H735 H 0.92548 0.09309 0.86053 0.0
C736 C 0.84615 0.03582 0.92409 0.0
C737 C 0.83831 0.02926 0.95344 0.0
C738 C 0.85258 0.04237 0.97721 0.0
C739 C 0.87455 0.06114 0.97195 0.0
C740 C 0.88214 0.06653 0.94281 0.0
C741 C 0.86834 0.05437 0.91926 0.0
C742 C 0.88163 0.06261 0.89013 0.0
C743 C 0.89292 0.03694 0.8736 0.0
C744 C 0.86081 0.07914 0.87092 0.0
C745 C 0.9053 0.08097 0.90107 0.0
C746 C 0.90507 0.08313 0.93151 0.0
C747 C 0.92491 0.09887 0.94675 0.0
C748 C 0.94542 0.11303 0.93039 0.0
C749 C 0.94606 0.11116 0.89913 0.0
C750 C 0.92575 0.09476 0.8844 0.0
H751 H 0.12867 0.96355 0.45311 0.0
H752 H 0.17695 0.9954 0.37926 0.0
H753 H 0.15407 0.96112 0.34606 0.0
H754 H 0.13026 0.88991 0.42998 0.0
H755 H 0.09508 0.88359 0.44309 0.0
H756 H 0.1168 0.90929 0.46102 0.0
H757 H 0.0783 0.94668 0.45247 0.0
H758 H 0.05653 0.92115 0.43453 0.0
H759 H 0.06559 0.95293 0.41552 0.0
H760 H 0.12169 0.92691 0.3203 0.0
H761 H 0.08485 0.89346 0.30477 0.0
H762 H 0.0604 0.88262 0.39646 0.0
C763 C 0.1346 0.96302 0.43 0.0
C764 C 0.1544 0.98198 0.41856 0.0
C765 C 0.16186 0.9808 0.38831 0.0
C766 C 0.14899 0.96149 0.36937 0.0
C767 C 0.12916 0.94326 0.38127 0.0
C768 C 0.12234 0.94363 0.41099 0.0
C769 C 0.09988 0.92245 0.41821 0.0
C770 C 0.11119 0.89998 0.43932 0.0
C771 C 0.07353 0.93666 0.43092 0.0
C772 C 0.09447 0.91069 0.38777 0.0
C773 C 0.11151 0.92288 0.36669 0.0
C774 C 0.10862 0.91681 0.33668 0.0
C775 C 0.08762 0.89791 0.32806 0.0
C776 C 0.07007 0.8852 0.34944 0.0
C777 C 0.07393 0.89148 0.37964 0.0
H778 H 0.157 0.04302 0.95622 0.0
H779 H 0.16263 0.98555 0.88215 0.0
H780 H 0.13555 0.01795 0.85156 0.0
H781 H 0.08607 0.05961 0.94424 0.0
H782 H 0.08914 0.0956 0.95518 0.0
H783 H 0.11277 0.07004 0.97026 0.0
H784 H 0.15526 0.09907 0.9519 0.0
H785 H 0.13169 0.12469 0.93658 0.0
H786 H 0.15768 0.10838 0.91337 0.0
H787 H 0.10494 0.05396 0.82985 0.0
H788 H 0.06949 0.08992 0.81954 0.0
H789 H 0.08069 0.12316 0.90813 0.0
C790 C 0.15275 0.03727 0.93353 0.0
C791 C 0.16266 0.01185 0.92159 0.0
C792 C 0.15633 0.00524 0.89173 0.0
C793 C 0.14075 0.02348 0.87409 0.0
C794 C 0.1313 0.0482 0.88657 0.0
C795 C 0.13681 0.05509 0.91564 0.0
C796 C 0.12175 0.08168 0.92433 0.0
C797 C 0.10121 0.0764 0.95001 0.0
C798 C 0.14286 0.10483 0.93199 0.0
C799 C 0.10631 0.0881 0.89583 0.0
C800 C 0.1126 0.06879 0.87421 0.0
C801 C 0.09997 0.06939 0.84649 0.0
C802 C 0.07979 0.08989 0.84089 0.0
C803 C 0.0722 0.10938 0.86303 0.0
C804 C 0.08618 0.10878 0.89062 0.0
H805 H 0.88511 0.9795 0.45655 0.0
H806 H 0.83189 0.00333 0.38291 0.0
H807 H 0.85635 0.96939 0.35095 0.0
H808 H 0.94841 0.97029 0.4154 0.0
H809 H 0.96001 0.94036 0.43617 0.0
H810 H 0.93798 0.96613 0.45346 0.0
H811 H 0.90196 0.92776 0.46729 0.0
H812 H 0.9239 0.90186 0.45006 0.0
H813 H 0.88781 0.90566 0.43871 0.0
H814 H 0.88805 0.93507 0.32646 0.0
H815 H 0.92337 0.90028 0.31139 0.0
H816 H 0.95489 0.89702 0.40139 0.0
C817 C 0.87865 0.9775 0.43369 0.0
C818 C 0.85665 0.99396 0.42211 0.0
C819 C 0.84854 0.99069 0.39221 0.0
C820 C 0.86236 0.97158 0.37389 0.0
C821 C 0.88403 0.95573 0.38594 0.0
C822 C 0.89199 0.95826 0.41519 0.0
C823 C 0.91588 0.93859 0.42258 0.0
C824 C 0.94212 0.95482 0.43248 0.0
C825 C 0.90684 0.9172 0.44605 0.0
C826 C 0.92033 0.92489 0.3928 0.0
C827 C 0.90181 0.93521 0.37197 0.0
C828 C 0.90251 0.92663 0.3426 0.0
C829 C 0.92272 0.90696 0.33425 0.0
C830 C 0.94177 0.89588 0.35526 0.0
C831 C 0.94037 0.90488 0.38495 0.0
H832 H 0.36581 0.3812 0.15063 0.0
H833 H 0.31822 0.30423 0.147 0.0
H834 H 0.34663 0.2853 0.18839 0.0
H835 H 0.43218 0.35145 0.16498 0.0
H836 H 0.44336 0.37864 0.18983 0.0
H837 H 0.41844 0.38626 0.16102 0.0
H838 H 0.38328 0.40514 0.19991 0.0
H839 H 0.40817 0.39774 0.22885 0.0
H840 H 0.37323 0.38336 0.23063 0.0
H841 H 0.38289 0.27402 0.22801 0.0
H842 H 0.42122 0.27256 0.26494 0.0
H843 H 0.4435 0.35778 0.24267 0.0
C844 C 0.3613 0.3604 0.15866 0.0
C845 C 0.34002 0.34404 0.14566 0.0
C846 C 0.33442 0.31706 0.15687 0.0
C847 C 0.3505 0.30616 0.18022 0.0
C848 C 0.37175 0.3227 0.19221 0.0
C849 C 0.37688 0.34939 0.18201 0.0
C850 C 0.40089 0.36298 0.19843 0.0
C851 C 0.42515 0.37025 0.1773 0.0
C852 C 0.39078 0.38883 0.21547 0.0
C853 C 0.40886 0.33963 0.2192 0.0
C854 C 0.39193 0.31652 0.2153 0.0
C855 C 0.39609 0.2921 0.23143 0.0
C856 C 0.41799 0.29142 0.25224 0.0
C857 C 0.43528 0.3151 0.25681 0.0
C858 C 0.43051 0.33942 0.23997 0.0
H859 H 0.63454 0.66182 0.63357 0.0
H860 H 0.68066 0.58898 0.66296 0.0
H861 H 0.65522 0.59016 0.71059 0.0
H862 H 0.63187 0.69665 0.7064 0.0
H863 H 0.59699 0.70997 0.70002 0.0
H864 H 0.62052 0.70464 0.66934 0.0
H865 H 0.58335 0.6732 0.64399 0.0
H866 H 0.55981 0.67829 0.67462 0.0
H867 H 0.56954 0.6435 0.66364 0.0
H868 H 0.62077 0.59591 0.75219 0.0
H869 H 0.58255 0.60834 0.7868 0.0
H870 H 0.56072 0.67893 0.73144 0.0
C871 C 0.63953 0.6464 0.65025 0.0
C872 C 0.65956 0.62534 0.64474 0.0
C873 C 0.66561 0.60547 0.66698 0.0
C874 C 0.6512 0.60591 0.694 0.0
C875 C 0.63116 0.62663 0.69854 0.0
C876 C 0.62564 0.64678 0.67747 0.0
C877 C 0.60252 0.66626 0.68747 0.0
C878 C 0.61365 0.69615 0.69102 0.0
C879 C 0.57732 0.66523 0.66616 0.0
C880 C 0.59534 0.65345 0.71709 0.0
C881 C 0.61206 0.63057 0.72305 0.0
C882 C 0.60791 0.61409 0.74806 0.0
C883 C 0.58611 0.6212 0.76747 0.0
C884 C 0.56898 0.64474 0.7619 0.0
C885 C 0.57391 0.66117 0.73654 0.0
H886 H 0.63927 0.39049 0.16223 0.0
H887 H 0.6871 0.31349 0.15884 0.0
H888 H 0.65731 0.29385 0.19832 0.0
H889 H 0.62968 0.39074 0.24274 0.0
H890 H 0.59482 0.40517 0.24011 0.0
H891 H 0.62071 0.41343 0.21241 0.0
H892 H 0.58688 0.39579 0.17159 0.0
H893 H 0.561 0.38725 0.19914 0.0
H894 H 0.57306 0.36086 0.17381 0.0
H895 H 0.62005 0.28144 0.23554 0.0
H896 H 0.57994 0.2783 0.27005 0.0
H897 H 0.55849 0.36437 0.25088 0.0
C898 C 0.64399 0.36974 0.17019 0.0
C899 C 0.66551 0.35353 0.15726 0.0
C900 C 0.67046 0.3262 0.16801 0.0
C901 C 0.65378 0.3149 0.19058 0.0
C902 C 0.63246 0.33132 0.20243 0.0
C903 C 0.62777 0.35827 0.19287 0.0
C904 C 0.60316 0.37136 0.20883 0.0
C905 C 0.61267 0.39667 0.22711 0.0
C906 C 0.57964 0.37926 0.18704 0.0
C907 C 0.59445 0.34739 0.22852 0.0
C908 C 0.61156 0.32445 0.22447 0.0
C909 C 0.60672 0.29938 0.23917 0.0
C910 C 0.58382 0.29775 0.2586 0.0
C911 C 0.56622 0.32114 0.26328 0.0
C912 C 0.5718 0.34626 0.24809 0.0
H913 H 0.38296 0.68111 0.6227 0.0
H914 H 0.32149 0.62039 0.65226 0.0
H915 H 0.34472 0.61831 0.70097 0.0
H916 H 0.44143 0.6507 0.65652 0.0
H917 H 0.45809 0.68299 0.66691 0.0
H918 H 0.43513 0.68191 0.63532 0.0
H919 H 0.40474 0.72134 0.65782 0.0
H920 H 0.42775 0.72271 0.68943 0.0
H921 H 0.3906 0.71729 0.69454 0.0
H922 H 0.3776 0.61853 0.74397 0.0
H923 H 0.41588 0.62408 0.78032 0.0
H924 H 0.45518 0.68604 0.72393 0.0
C925 C 0.37417 0.66772 0.63961 0.0
C926 C 0.35034 0.65102 0.63378 0.0
C927 C 0.33945 0.6337 0.65641 0.0
C928 C 0.35259 0.63225 0.68408 0.0
C929 C 0.37639 0.64852 0.68889 0.0
C930 C 0.38687 0.66624 0.66747 0.0
C931 C 0.41333 0.68074 0.67801 0.0
C932 C 0.43847 0.67365 0.658 0.0
C933 C 0.40882 0.7124 0.68008 0.0
C934 C 0.41651 0.6678 0.70837 0.0
C935 C 0.39498 0.64925 0.71417 0.0
C936 C 0.39432 0.63334 0.73991 0.0
C937 C 0.41623 0.63651 0.76032 0.0
C938 C 0.43835 0.65562 0.755 0.0
C939 C 0.43829 0.67162 0.72878 0.0
H940 H 0.8518 0.89334 0.14347 0.0
H941 H 0.81086 0.8137 0.12893 0.0
H942 H 0.83834 0.79325 0.16997 0.0
H943 H 0.91883 0.8668 0.15573 0.0
H944 H 0.92831 0.89184 0.1837 0.0
H945 H 0.90297 0.90092 0.15582 0.0
H946 H 0.86672 0.91337 0.19649 0.0
H947 H 0.89204 0.90445 0.22455 0.0
H948 H 0.85804 0.88792 0.22436 0.0
H949 H 0.87382 0.78056 0.20949 0.0
H950 H 0.91335 0.777 0.2447 0.0
H951 H 0.93102 0.86506 0.23218 0.0
C952 C 0.84839 0.87166 0.1491 0.0
C953 C 0.82921 0.8551 0.13303 0.0
C954 C 0.8252 0.82687 0.14121 0.0
C955 C 0.84079 0.81505 0.16439 0.0
C956 C 0.86009 0.83183 0.17926 0.0
C957 C 0.86373 0.85959 0.17205 0.0
C958 C 0.88689 0.87279 0.19013 0.0
C959 C 0.91065 0.88372 0.17015 0.0
C960 C 0.87522 0.896 0.21007 0.0
C961 C 0.89629 0.84793 0.20809 0.0
C962 C 0.88045 0.82454 0.20178 0.0
C963 C 0.88615 0.79883 0.21484 0.0
C964 C 0.90871 0.79701 0.23476 0.0
C965 C 0.92537 0.82073 0.24127 0.0
C966 C 0.91873 0.84651 0.22785 0.0
H967 H 0.10944 0.11113 0.63738 0.0
H968 H 0.16201 0.18494 0.63553 0.0
H969 H 0.13421 0.20526 0.67649 0.0
H970 H 0.04413 0.14536 0.65286 0.0
H971 H 0.03167 0.1183 0.67721 0.0
H972 H 0.05553 0.10988 0.64765 0.0
H973 H 0.09006 0.08777 0.68529 0.0
H974 H 0.06623 0.09597 0.71492 0.0
H975 H 0.10204 0.10808 0.71635 0.0
H976 H 0.09963 0.21778 0.7169 0.0
H977 H 0.06364 0.21992 0.75625 0.0
H978 H 0.03495 0.13711 0.73196 0.0
C979 C 0.115 0.13162 0.64555 0.0
C980 C 0.13771 0.14659 0.6333 0.0
C981 C 0.14472 0.17314 0.6448 0.0
C982 C 0.12898 0.18487 0.66788 0.0
C983 C 0.10651 0.16964 0.6793 0.0
C984 C 0.09974 0.14346 0.6687 0.0
C985 C 0.07519 0.131 0.68529 0.0
C986 C 0.05015 0.12584 0.66451 0.0
C987 C 0.08391 0.10412 0.70142 0.0
C988 C 0.0691 0.15428 0.70685 0.0
C989 C 0.08719 0.1765 0.70293 0.0
C990 C 0.08539 0.20046 0.72023 0.0
C991 C 0.06481 0.20154 0.74242 0.0
C992 C 0.04652 0.17866 0.74725 0.0
C993 C 0.04868 0.15489 0.72897 0.0
H994 H 0.15448 0.85967 0.14829 0.0
H995 H 0.12787 0.79612 0.08593 0.0
H996 H 0.09654 0.77616 0.12387 0.0
H997 H 0.1495 0.81789 0.21611 0.0
H998 H 0.13564 0.84667 0.23714 0.0
H999 H 0.15925 0.85312 0.20676 0.0
H1000 H 0.12246 0.88589 0.18271 0.0
H1001 H 0.09885 0.87961 0.213 0.0
H1002 H 0.08752 0.873 0.17564 0.0
H1003 H 0.06482 0.76556 0.16766 0.0
H1004 H 0.03374 0.76755 0.21157 0.0
H1005 H 0.07915 0.84011 0.24299 0.0
C1006 C 0.14222 0.84149 0.14248 0.0
C1007 C 0.14385 0.82951 0.11397 0.0
C1008 C 0.12754 0.80546 0.1077 0.0
C1009 C 0.10955 0.79399 0.12911 0.0
C1010 C 0.10802 0.80679 0.15672 0.0
C1011 C 0.1239 0.83008 0.16335 0.0
C1012 C 0.11655 0.84166 0.19344 0.0
C1013 C 0.14174 0.8397 0.21461 0.0
C1014 C 0.10569 0.87181 0.19104 0.0
C1015 C 0.09344 0.82176 0.20239 0.0
C1016 C 0.08918 0.80138 0.18129 0.0
C1017 C 0.06815 0.78129 0.18443 0.0
C1018 C 0.05066 0.78252 0.20944 0.0
C1019 C 0.05402 0.80401 0.23058 0.0
C1020 C 0.07606 0.82345 0.22716 0.0
H1021 H 0.86673 0.17306 0.63496 0.0
H1022 H 0.80997 0.11128 0.67161 0.0
H1023 H 0.82967 0.11967 0.72127 0.0
H1024 H 0.92504 0.15425 0.67581 0.0
H1025 H 0.93828 0.1891 0.68107 0.0
H1026 H 0.91699 0.1812 0.64935 0.0
H1027 H 0.88239 0.22059 0.66387 0.0
H1028 H 0.9036 0.22857 0.69578 0.0
H1029 H 0.86684 0.22061 0.7002 0.0
H1030 H 0.86012 0.12917 0.76481 0.0
H1031 H 0.89852 0.14024 0.79964 0.0
H1032 H 0.93438 0.19736 0.73569 0.0
C1033 C 0.85818 0.16163 0.65354 0.0
C1034 C 0.83676 0.14161 0.6495 0.0
C1035 C 0.82608 0.12702 0.6743 0.0
C1036 C 0.83716 0.13162 0.70257 0.0
C1037 C 0.85861 0.15116 0.70572 0.0
C1038 C 0.86884 0.16614 0.68194 0.0
C1039 C 0.89341 0.18434 0.69089 0.0
C1040 C 0.91999 0.17675 0.67324 0.0
C1041 C 0.88611 0.21537 0.68748 0.0
C1042 C 0.89618 0.17633 0.72313 0.0
C1043 C 0.87572 0.15734 0.7313 0.0
C1044 C 0.87579 0.14456 0.75896 0.0
C1045 C 0.89766 0.15091 0.77855 0.0
C1046 C 0.91895 0.17003 0.77045 0.0
C1047 C 0.91778 0.1834 0.74271 0.0
loop_
_geom_bond_atom_site_label_1
_geom_bond_atom_site_label_2
_geom_bond_distance
_geom_bond_site_symmetry_2
_ccdc_geom_bond_type
C0 C1 1.386 . S
C0 C2 1.397 . S
C0 H24 0.931 . S
C1 C0 1.386 . S
C1 C5 1.397 . S
C2 C0 1.397 . S
C2 C3 1.384 . S
C2 H25 0.930 . S
C3 C2 1.384 . S
C3 C4 1.377 . S
C3 C6 1.481 . S
C4 C3 1.377 . S
C4 C5 1.389 . S
C4 H26 0.929 . S
C5 C1 1.397 . S
C5 C4 1.389 . S
C5 H27 0.931 . S
C6 C3 1.481 . S
C6 C7 1.387 . S
C6 C11 1.390 1_556 S
C7 C6 1.387 . S
C7 C8 1.402 . S
C7 H28 0.930 . S
C8 C7 1.402 . S
C8 C9 1.374 1_556 S
C8 C17 1.512 . S
C9 C8 1.374 1_554 S
C9 C10 1.392 . S
C9 H30 0.931 . S
C10 C9 1.392 . S
C10 C11 1.361 . S
C10 C12 1.500 . S
C11 C6 1.390 1_554 S
C11 C10 1.361 . S
C11 H29 0.931 . S
C12 C10 1.500 . S
C12 C13 1.371 . S
C12 C14 1.365 . S
C13 C12 1.371 . S
C13 C23 1.386 . S
C13 H31 0.931 . S
C14 C12 1.365 . S
C14 C15 1.409 . S
C14 H32 0.929 . S
C15 C14 1.409 . S
C15 C16 1.380 . S
C15 H33 0.930 . S
C16 C15 1.380 . S
C16 C23 1.357 . S
C17 C8 1.512 . S
C17 C18 1.341 . S
C17 C19 1.371 . S
C18 C17 1.341 . S
C18 C22 1.394 . S
C18 H34 0.930 . S
C19 C17 1.371 . S
C19 C20 1.392 . S
C19 H35 0.931 1_556 S
C20 C19 1.392 . S
C20 C21 1.331 . S
C20 H38 0.932 . S
C21 C20 1.331 . S
C21 C22 1.336 . S
C22 C18 1.394 . S
C22 C21 1.336 . S
C22 H37 0.929 . S
C23 C13 1.386 . S
C23 C16 1.357 . S
C23 H36 0.928 . S
H24 C0 0.931 . S
H25 C2 0.930 . S
H26 C4 0.929 . S
H27 C5 0.931 . S
H28 C7 0.930 . S
H29 C11 0.931 . S
H30 C9 0.931 . S
H31 C13 0.931 . S
H32 C14 0.929 . S
H33 C15 0.930 . S
H34 C18 0.930 . S
H35 C19 0.931 1_554 S
H36 C23 0.928 . S
H37 C22 0.929 . S
H38 C20 0.932 . S
C39 C40 1.386 . S
C39 C41 1.397 . S
C39 H63 0.931 . S
C40 C39 1.386 . S
C40 C44 1.397 . S
C41 C39 1.397 . S
C41 C42 1.384 . S
C41 H64 0.930 . S
C42 C41 1.384 . S
C42 C43 1.377 . S
C42 C45 1.481 . S
C43 C42 1.377 . S
C43 C44 1.389 . S
C43 H65 0.929 . S
C44 C40 1.397 . S
C44 C43 1.389 . S
C44 H66 0.931 . S
C45 C42 1.481 . S
C45 C46 1.387 . S
C45 C50 1.390 . S
C46 C45 1.387 . S
C46 C47 1.401 . S
C46 H67 0.930 . S
C47 C46 1.401 . S
C47 C48 1.376 . S
C47 C56 1.511 . S
C48 C47 1.376 . S
C48 C49 1.392 . S
C48 H69 0.931 . S
C49 C48 1.392 . S
C49 C50 1.361 . S
C49 C51 1.500 . S
C50 C45 1.390 . S
C50 C49 1.361 . S
C50 H68 0.931 . S
C51 C49 1.500 . S
C51 C52 1.371 . S
C51 C53 1.365 . S
C52 C51 1.371 . S
C52 C62 1.386 . S
C52 H70 0.931 . S
C53 C51 1.365 . S
C53 C54 1.409 . S
C53 H71 0.929 . S
C54 C53 1.409 . S
C54 C55 1.380 . S
C54 H72 0.930 . S
C55 C54 1.380 . S
C55 C62 1.357 . S
C56 C47 1.511 . S
C56 C57 1.341 . S
C56 C58 1.371 . S
C57 C56 1.341 . S
C57 C61 1.394 . S
C57 H73 0.930 . S
C58 C56 1.371 . S
C58 C59 1.392 . S
C58 H74 0.931 . S
C59 C58 1.392 . S
C59 C60 1.331 . S
C59 H77 0.932 . S
C60 C59 1.331 . S
C60 C61 1.336 . S
C61 C57 1.394 . S
C61 C60 1.336 . S
C61 H76 0.929 . S
C62 C52 1.386 . S
C62 C55 1.357 . S
C62 H75 0.928 . S
H63 C39 0.931 . S
H64 C41 0.930 . S
H65 C43 0.929 . S
H66 C44 0.931 . S
H67 C46 0.930 . S
H68 C50 0.931 . S
H69 C48 0.931 . S
H70 C52 0.931 . S
H71 C53 0.929 . S
H72 C54 0.930 . S
H73 C57 0.930 . S
H74 C58 0.931 . S
H75 C62 0.928 . S
H76 C61 0.929 . S
H77 C59 0.932 . S
C78 C79 1.386 . S
C78 C80 1.397 . S
C78 H102 0.931 . S
C79 C78 1.386 . S
C79 C83 1.397 . S
C80 C78 1.397 . S
C80 C81 1.384 . S
C80 H103 0.930 . S
C81 C80 1.384 . S
C81 C82 1.377 . S
C81 C84 1.481 . S
C82 C81 1.377 . S
C82 C83 1.389 . S
C82 H104 0.929 1_556 S
C83 C79 1.397 . S
C83 C82 1.389 . S
C83 H105 0.931 . S
C84 C81 1.481 . S
C84 C85 1.387 . S
C84 C89 1.390 1_556 S
C85 C84 1.387 . S
C85 C86 1.420 . S
C85 H106 0.930 . S
C86 C85 1.420 . S
C86 C87 1.345 1_556 S
C86 C95 1.525 . S
C87 C86 1.345 1_554 S
C87 C88 1.392 . S
C87 H108 0.931 . S
C88 C87 1.392 . S
C88 C89 1.361 . S
C88 C90 1.500 . S
C89 C84 1.390 1_554 S
C89 C88 1.361 . S
C89 H107 0.931 . S
C90 C88 1.500 . S
C90 C91 1.371 . S
C90 C92 1.365 . S
C91 C90 1.371 . S
C91 C101 1.386 . S
C91 H109 0.931 . S
C92 C90 1.365 . S
C92 C93 1.409 . S
C92 H110 0.929 . S
C93 C92 1.409 . S
C93 C94 1.380 . S
C93 H111 0.930 . S
C94 C93 1.380 . S
C94 C101 1.357 . S
C95 C86 1.525 . S
C95 C96 1.341 . S
C95 C97 1.371 1_556 S
C96 C95 1.341 . S
C96 C100 1.394 . S
C96 H112 0.930 . S
C97 C95 1.371 1_554 S
C97 C98 1.392 1_554 S
C97 H113 0.931 . S
C98 C97 1.392 1_556 S
C98 C99 1.331 . S
C98 H116 0.932 1_556 S
C99 C98 1.331 . S
C99 C100 1.336 . S
C100 C96 1.394 . S
C100 C99 1.336 . S
C100 H115 0.929 . S
C101 C91 1.386 . S
C101 C94 1.357 . S
C101 H114 0.928 . S
H102 C78 0.931 . S
H103 C80 0.930 . S
H104 C82 0.929 1_554 S
H105 C83 0.931 . S
H106 C85 0.930 . S
H107 C89 0.931 . S
H108 C87 0.931 . S
H109 C91 0.931 . S
H110 C92 0.929 . S
H111 C93 0.930 . S
H112 C96 0.930 . S
H113 C97 0.931 . S
H114 C101 0.928 . S
H115 C100 0.929 . S
H116 C98 0.932 1_554 S
C117 C118 1.386 . S
C117 C119 1.397 . S
C117 H141 0.931 . S
C118 C117 1.386 . S
C118 C122 1.397 . S
C119 C117 1.397 . S
C119 C120 1.384 . S
C119 H142 0.930 . S
C120 C119 1.384 . S
C120 C121 1.377 . S
C120 C123 1.481 . S
C121 C120 1.377 . S
C121 C122 1.389 . S
C121 H143 0.929 . S
C122 C118 1.397 . S
C122 C121 1.389 . S
C122 H144 0.931 . S
C123 C120 1.481 . S
C123 C124 1.387 . S
C123 C128 1.390 . S
C124 C123 1.387 . S
C124 C125 1.401 . S
C124 H145 0.930 . S
C125 C124 1.401 . S
C125 C126 1.376 . S
C125 C134 1.511 . S
C126 C125 1.376 . S
C126 C127 1.392 . S
C126 H147 0.931 . S
C127 C126 1.392 . S
C127 C128 1.361 . S
C127 C129 1.500 . S
C128 C123 1.390 . S
C128 C127 1.361 . S
C128 H146 0.931 . S
C129 C127 1.500 . S
C129 C130 1.371 . S
C129 C131 1.365 . S
C130 C129 1.371 . S
C130 C140 1.386 . S
C130 H148 0.931 . S
C131 C129 1.365 . S
C131 C132 1.409 . S
C131 H149 0.929 . S
C132 C131 1.409 . S
C132 C133 1.380 . S
C132 H150 0.930 . S
C133 C132 1.380 . S
C133 C140 1.357 . S
C134 C125 1.511 . S
C134 C135 1.341 . S
C134 C136 1.371 . S
C135 C134 1.341 . S
C135 C139 1.394 . S
C135 H151 0.930 . S
C136 C134 1.371 . S
C136 C137 1.392 . S
C136 H152 0.931 . S
C137 C136 1.392 . S
C137 C138 1.331 . S
C137 H155 0.932 . S
C138 C137 1.331 . S
C138 C139 1.336 . S
C139 C135 1.394 . S
C139 C138 1.336 . S
C139 H154 0.929 . S
C140 C130 1.386 . S
C140 C133 1.357 . S
C140 H153 0.928 . S
H141 C117 0.931 . S
H142 C119 0.930 . S
H143 C121 0.929 . S
H144 C122 0.931 . S
H145 C124 0.930 . S
H146 C128 0.931 . S
H147 C126 0.931 . S
H148 C130 0.931 . S
H149 C131 0.929 . S
H150 C132 0.930 . S
H151 C135 0.930 . S
H152 C136 0.931 . S
H153 C140 0.928 . S
H154 C139 0.929 . S
H155 C137 0.932 . S
C156 C157 1.386 . S
C156 C158 1.397 . S
C156 H180 0.931 1_565 S
C157 C156 1.386 . S
C157 C161 1.397 . S
C158 C156 1.397 . S
C158 C159 1.384 . S
C158 H181 0.930 . S
C159 C158 1.384 . S
C159 C160 1.377 . S
C159 C162 1.481 . S
C160 C159 1.377 . S
C160 C161 1.389 . S
C160 H182 0.929 . S
C161 C157 1.397 . S
C161 C160 1.389 . S
C161 H183 0.931 . S
C162 C159 1.481 . S
C162 C163 1.387 . S
C162 C167 1.390 1_556 S
C163 C162 1.387 . S
C163 C164 1.402 . S
C163 H184 0.930 . S
C164 C163 1.402 . S
C164 C165 1.374 1_556 S
C164 C173 1.512 . S
C165 C164 1.374 1_554 S
C165 C166 1.392 . S
C165 H186 0.931 . S
C166 C165 1.392 . S
C166 C167 1.361 . S
C166 C168 1.500 . S
C167 C162 1.390 1_554 S
C167 C166 1.361 . S
C167 H185 0.931 . S
C168 C166 1.500 . S
C168 C169 1.371 . S
C168 C170 1.365 . S
C169 C168 1.371 . S
C169 C179 1.386 . S
C169 H187 0.931 . S
C170 C168 1.365 . S
C170 C171 1.409 . S
C170 H188 0.929 . S
C171 C170 1.409 . S
C171 C172 1.380 . S
C171 H189 0.930 . S
C172 C171 1.380 . S
C172 C179 1.357 . S
C173 C164 1.512 . S
C173 C174 1.341 . S
C173 C175 1.371 . S
C174 C173 1.341 . S
C174 C178 1.394 . S
C174 H190 0.930 . S
C175 C173 1.371 . S
C175 C176 1.392 . S
C175 H191 0.931 1_556 S
C176 C175 1.392 . S
C176 C177 1.331 . S
C176 H194 0.932 . S
C177 C176 1.331 . S
C177 C178 1.336 . S
C178 C174 1.394 . S
C178 C177 1.336 . S
C178 H193 0.929 . S
C179 C169 1.386 . S
C179 C172 1.357 . S
C179 H192 0.928 . S
H180 C156 0.931 1_545 S
H181 C158 0.930 . S
H182 C160 0.929 . S
H183 C161 0.931 . S
H184 C163 0.930 . S
H185 C167 0.931 . S
H186 C165 0.931 . S
H187 C169 0.931 . S
H188 C170 0.929 . S
H189 C171 0.930 . S
H190 C174 0.930 . S
H191 C175 0.931 1_554 S
H192 C179 0.928 . S
H193 C178 0.929 . S
H194 C176 0.932 . S
C195 C196 1.386 . S
C195 C197 1.397 . S
C195 H219 0.931 1_545 S
C196 C195 1.386 . S
C196 C200 1.397 . S
C197 C195 1.397 . S
C197 C198 1.384 . S
C197 H220 0.930 . S
C198 C197 1.384 . S
C198 C199 1.377 . S
C198 C201 1.481 . S
C199 C198 1.377 . S
C199 C200 1.389 . S
C199 H221 0.929 . S
C200 C196 1.397 . S
C200 C199 1.389 . S
C200 H222 0.931 . S
C201 C198 1.481 . S
C201 C202 1.387 . S
C201 C206 1.390 . S
C202 C201 1.387 . S
C202 C203 1.401 . S
C202 H223 0.930 . S
C203 C202 1.401 . S
C203 C204 1.376 . S
C203 C212 1.511 . S
C204 C203 1.376 . S
C204 C205 1.392 . S
C204 H225 0.931 . S
C205 C204 1.392 . S
C205 C206 1.361 . S
C205 C207 1.500 . S
C206 C201 1.390 . S
C206 C205 1.361 . S
C206 H224 0.931 . S
C207 C205 1.500 . S
C207 C208 1.371 . S
C207 C209 1.365 . S
C208 C207 1.371 . S
C208 C218 1.386 . S
C208 H226 0.931 . S
C209 C207 1.365 . S
C209 C210 1.409 . S
C209 H227 0.929 . S
C210 C209 1.409 . S
C210 C211 1.380 . S
C210 H228 0.930 . S
C211 C210 1.380 . S
C211 C218 1.357 . S
C212 C203 1.511 . S
C212 C213 1.341 . S
C212 C214 1.371 . S
C213 C212 1.341 . S
C213 C217 1.394 . S
C213 H229 0.930 . S
C214 C212 1.371 . S
C214 C215 1.392 . S
C214 H230 0.931 . S
C215 C214 1.392 . S
C215 C216 1.331 . S
C215 H233 0.932 . S
C216 C215 1.331 . S
C216 C217 1.336 . S
C217 C213 1.394 . S
C217 C216 1.336 . S
C217 H232 0.929 . S
C218 C208 1.386 . S
C218 C211 1.357 . S
C218 H231 0.928 . S
H219 C195 0.931 1_565 S
H220 C197 0.930 . S
H221 C199 0.929 . S
H222 C200 0.931 . S
H223 C202 0.930 . S
H224 C206 0.931 . S
H225 C204 0.931 . S
H226 C208 0.931 . S
H227 C209 0.929 . S
H228 C210 0.930 . S
H229 C213 0.930 . S
H230 C214 0.931 . S
H231 C218 0.928 . S
H232 C217 0.929 . S
H233 C215 0.932 . S
C234 C235 1.386 . S
C234 C236 1.397 . S
C234 H258 0.931 . S
C235 C234 1.386 . S
C235 C239 1.401 . S
C236 C234 1.397 . S
C236 C237 1.384 . S
C236 H259 0.930 . S
C237 C236 1.384 . S
C237 C238 1.377 . S
C237 C240 1.481 . S
C238 C237 1.377 . S
C238 C239 1.418 . S
C238 H260 0.929 1_556 S
C239 C235 1.401 . S
C239 C238 1.418 . S
C239 H261 0.899 1_565 S
C240 C237 1.481 . S
C240 C241 1.387 . S
C240 C245 1.390 1_556 S
C241 C240 1.387 . S
C241 C242 1.420 . S
C241 H262 0.930 . S
C242 C241 1.420 . S
C242 C243 1.346 1_556 S
C242 C251 1.525 . S
C243 C242 1.346 1_554 S
C243 C244 1.392 . S
C243 H264 0.931 . S
C244 C243 1.392 . S
C244 C245 1.361 . S
C244 C246 1.500 . S
C245 C240 1.390 1_554 S
C245 C244 1.361 . S
C245 H263 0.931 . S
C246 C244 1.500 . S
C246 C247 1.371 . S
C246 C248 1.365 . S
C247 C246 1.371 . S
C247 C257 1.386 . S
C247 H265 0.931 . S
C248 C246 1.365 . S
C248 C249 1.409 . S
C248 H266 0.929 . S
C249 C248 1.409 . S
C249 C250 1.380 . S
C249 H267 0.930 . S
C250 C249 1.380 . S
C250 C257 1.357 . S
C251 C242 1.525 . S
C251 C252 1.341 . S
C251 C253 1.371 1_556 S
C252 C251 1.341 . S
C252 C256 1.394 . S
C252 H268 0.930 . S
C253 C251 1.371 1_554 S
C253 C254 1.392 1_554 S
C253 H269 0.931 . S
C254 C253 1.392 1_556 S
C254 C255 1.331 . S
C254 H272 0.932 1_556 S
C255 C254 1.331 . S
C255 C256 1.336 . S
C256 C252 1.394 . S
C256 C255 1.336 . S
C256 H271 0.929 . S
C257 C247 1.386 . S
C257 C250 1.357 . S
C257 H270 0.928 . S
H258 C234 0.931 . S
H259 C236 0.930 . S
H260 C238 0.929 1_554 S
H261 C239 0.899 1_545 S
H262 C241 0.930 . S
H263 C245 0.931 . S
H264 C243 0.931 . S
H265 C247 0.931 . S
H266 C248 0.929 . S
H267 C249 0.930 . S
H268 C252 0.930 . S
H269 C253 0.931 . S
H270 C257 0.928 . S
H271 C256 0.929 . S
H272 C254 0.932 1_554 S
C273 C274 1.386 . S
C273 C275 1.397 . S
C273 H297 0.931 . S
C274 C273 1.386 . S
C274 C278 1.397 . S
C275 C273 1.397 . S
C275 C276 1.384 . S
C275 H298 0.930 . S
C276 C275 1.384 . S
C276 C277 1.377 . S
C276 C279 1.481 . S
C277 C276 1.377 . S
C277 C278 1.389 . S
C277 H299 0.929 . S
C278 C274 1.397 . S
C278 C277 1.389 . S
C278 H300 0.931 . S
C279 C276 1.481 . S
C279 C280 1.387 . S
C279 C284 1.390 . S
C280 C279 1.387 . S
C280 C281 1.401 . S
C280 H301 0.930 . S
C281 C280 1.401 . S
C281 C282 1.376 . S
C281 C290 1.511 . S
C282 C281 1.376 . S
C282 C283 1.392 . S
C282 H303 0.931 . S
C283 C282 1.392 . S
C283 C284 1.361 . S
C283 C285 1.500 . S
C284 C279 1.390 . S
C284 C283 1.361 . S
C284 H302 0.931 . S
C285 C283 1.500 . S
C285 C286 1.371 . S
C285 C287 1.365 . S
C286 C285 1.371 . S
C286 C296 1.386 . S
C286 H304 0.931 . S
C287 C285 1.365 . S
C287 C288 1.409 . S
C287 H305 0.929 . S
C288 C287 1.409 . S
C288 C289 1.380 . S
C288 H306 0.930 . S
C289 C288 1.380 . S
C289 C296 1.357 . S
C290 C281 1.511 . S
C290 C291 1.341 . S
C290 C292 1.371 . S
C291 C290 1.341 . S
C291 C295 1.394 . S
C291 H307 0.930 . S
C292 C290 1.371 . S
C292 C293 1.392 . S
C292 H308 0.931 . S
C293 C292 1.392 . S
C293 C294 1.331 . S
C293 H311 0.932 . S
C294 C293 1.331 . S
C294 C295 1.336 . S
C295 C291 1.394 . S
C295 C294 1.336 . S
C295 H310 0.929 . S
C296 C286 1.386 . S
C296 C289 1.357 . S
C296 H309 0.928 1_545 S
H297 C273 0.931 . S
H298 C275 0.930 . S
H299 C277 0.929 . S
H300 C278 0.931 . S
H301 C280 0.930 . S
H302 C284 0.931 . S
H303 C282 0.931 . S
H304 C286 0.931 . S
H305 C287 0.929 . S
H306 C288 0.930 . S
H307 C291 0.930 . S
H308 C292 0.931 . S
H309 C296 0.928 1_565 S
H310 C295 0.929 . S
H311 C293 0.932 . S
Sc312 O315 2.025 . S
Sc312 O322 2.105 1_455 S
Sc312 O325 2.105 . S
Sc312 O328 2.105 . S
Sc312 O331 2.105 1_455 S
Sc313 O315 2.025 . S
Sc313 O323 2.105 1_455 S
Sc313 O327 2.105 . S
Sc313 O329 2.105 . S
Sc313 O333 2.105 1_455 S
Sc314 O315 2.025 . S
Sc314 O324 2.105 1_455 S
Sc314 O326 2.105 . S
Sc314 O330 2.105 . S
Sc314 O332 2.105 1_455 S
O315 Sc312 2.025 . S
O315 Sc313 2.025 . S
O315 Sc314 2.025 . S
C316 O322 1.268 . S
C316 O332 1.268 . S
C317 O323 1.268 . S
C317 O331 1.268 . S
C318 O324 1.268 . S
C318 O333 1.268 . S
C319 O325 1.268 . S
C319 O329 1.268 . S
C320 O326 1.268 . S
C320 O328 1.268 . S
C321 O327 1.268 . S
C321 O330 1.268 . S
O322 Sc312 2.105 1_655 S
O322 C316 1.268 . S
O323 Sc313 2.105 1_655 S
O323 C317 1.268 . S
O324 Sc314 2.105 1_655 S
O324 C318 1.268 . S
O325 Sc312 2.105 . S
O325 C319 1.268 . S
O326 Sc314 2.105 . S
O326 C320 1.268 . S
O327 Sc313 2.105 . S
O327 C321 1.268 . S
O328 Sc312 2.105 . S
O328 C320 1.268 . S
O329 Sc313 2.105 . S
O329 C319 1.268 . S
O330 Sc314 2.105 . S
O330 C321 1.268 . S
O331 Sc312 2.105 1_655 S
O331 C317 1.268 . S
O332 Sc314 2.105 1_655 S
O332 C316 1.268 . S
O333 Sc313 2.105 1_655 S
O333 C318 1.268 . S
Sc334 O337 2.025 . S
Sc334 O344 2.105 . S
Sc334 O347 2.105 1_455 S
Sc334 O350 2.105 1_455 S
Sc334 O353 2.105 . S
Sc335 O337 2.025 . S
Sc335 O345 2.105 . S
Sc335 O349 2.105 1_455 S
Sc335 O351 2.105 1_455 S
Sc335 O355 2.105 . S
Sc336 O337 2.025 . S
Sc336 O346 2.105 . S
Sc336 O348 2.105 1_455 S
Sc336 O352 2.105 1_455 S
Sc336 O354 2.105 . S
O337 Sc334 2.025 . S
O337 Sc335 2.025 . S
O337 Sc336 2.025 . S
C338 O344 1.268 . S
C338 O354 1.268 . S
C339 O345 1.268 . S
C339 O353 1.268 . S
C340 O346 1.268 . S
C340 O355 1.268 . S
C341 O347 1.268 . S
C341 O351 1.268 . S
C342 O348 1.268 . S
C342 O350 1.268 . S
C343 O349 1.268 . S
C343 O352 1.268 . S
O344 Sc334 2.105 . S
O344 C338 1.268 . S
O345 Sc335 2.105 . S
O345 C339 1.268 . S
O346 Sc336 2.105 . S
O346 C340 1.268 . S
O347 Sc334 2.105 1_655 S
O347 C341 1.268 . S
O348 Sc336 2.105 1_655 S
O348 C342 1.268 . S
O349 Sc335 2.105 1_655 S
O349 C343 1.268 . S
O350 Sc334 2.105 1_655 S
O350 C342 1.268 . S
O351 Sc335 2.105 1_655 S
O351 C341 1.268 . S
O352 Sc336 2.105 1_655 S
O352 C343 1.268 . S
O353 Sc334 2.105 . S
O353 C339 1.268 . S
O354 Sc336 2.105 . S
O354 C338 1.268 . S
O355 Sc335 2.105 . S
O355 C340 1.268 . S
Sc356 O359 2.025 . S
Sc356 O366 2.105 . S
Sc356 O369 2.105 . S
Sc356 O372 2.105 . S
Sc356 O375 2.105 . S
Sc357 O359 2.025 . S
Sc357 O367 2.105 . S
Sc357 O371 2.105 . S
Sc357 O373 2.105 . S
Sc357 O377 2.105 . S
Sc358 O359 2.025 . S
Sc358 O368 2.105 . S
Sc358 O370 2.105 . S
Sc358 O374 2.105 . S
Sc358 O376 2.105 . S
O359 Sc356 2.025 . S
O359 Sc357 2.025 . S
O359 Sc358 2.025 . S
C360 O366 1.268 . S
C360 O376 1.268 . S
C361 O367 1.268 . S
C361 O375 1.268 . S
C362 O368 1.268 . S
C362 O377 1.268 . S
C363 O369 1.268 . S
C363 O373 1.268 . S
C364 O370 1.268 . S
C364 O372 1.268 . S
C365 O371 1.268 . S
C365 O374 1.268 . S
O366 Sc356 2.105 . S
O366 C360 1.268 . S
O367 Sc357 2.105 . S
O367 C361 1.268 . S
O368 Sc358 2.105 . S
O368 C362 1.268 . S
O369 Sc356 2.105 . S
O369 C363 1.268 . S
O370 Sc358 2.105 . S
O370 C364 1.268 . S
O371 Sc357 2.105 . S
O371 C365 1.268 . S
O372 Sc356 2.105 . S
O372 C364 1.268 . S
O373 Sc357 2.105 . S
O373 C363 1.268 . S
O374 Sc358 2.105 . S
O374 C365 1.268 . S
O375 Sc356 2.105 . S
O375 C361 1.268 . S
O376 Sc358 2.105 . S
O376 C360 1.268 . S
O377 Sc357 2.105 . S
O377 C362 1.268 . S
Sc378 O381 2.025 . S
Sc378 O388 2.105 . S
Sc378 O391 2.105 . S
Sc378 O394 2.105 . S
Sc378 O397 2.105 . S
Sc379 O381 2.025 . S
Sc379 O389 2.105 . S
Sc379 O393 2.105 . S
Sc379 O395 2.105 . S
Sc379 O399 2.105 . S
Sc380 O381 2.025 . S
Sc380 O390 2.105 . S
Sc380 O392 2.105 . S
Sc380 O396 2.105 . S
Sc380 O398 2.105 . S
O381 Sc378 2.025 . S
O381 Sc379 2.025 . S
O381 Sc380 2.025 . S
C382 O388 1.268 . S
C382 O398 1.268 . S
C383 O389 1.268 . S
C383 O397 1.268 . S
C384 O390 1.268 . S
C384 O399 1.268 . S
C385 O391 1.268 . S
C385 O395 1.268 . S
C386 O392 1.268 . S
C386 O394 1.268 . S
C387 O393 1.268 . S
C387 O396 1.268 . S
O388 Sc378 2.105 . S
O388 C382 1.268 . S
O389 Sc379 2.105 . S
O389 C383 1.268 . S
O390 Sc380 2.105 . S
O390 C384 1.268 . S
O391 Sc378 2.105 . S
O391 C385 1.268 . S
O392 Sc380 2.105 . S
O392 C386 1.268 . S
O393 Sc379 2.105 . S
O393 C387 1.268 . S
O394 Sc378 2.105 . S
O394 C386 1.268 . S
O395 Sc379 2.105 . S
O395 C385 1.268 . S
O396 Sc380 2.105 . S
O396 C387 1.268 . S
O397 Sc378 2.105 . S
O397 C383 1.268 . S
O398 Sc380 2.105 . S
O398 C382 1.268 . S
O399 Sc379 2.105 . S
O399 C384 1.268 . S
H400 C412 0.930 . S
H401 C414 0.930 . S
H402 C415 0.930 . S
H403 C419 0.959 . S
H404 C419 0.959 . S
H405 C419 0.961 . S
H406 C420 0.960 . S
H407 C420 0.961 . S
H408 C420 0.959 . S
H409 C423 0.929 . S
H410 C424 0.931 . S
H411 C426 0.930 . S
C412 H400 0.930 . S
C412 C413 1.399 . S
C412 C417 1.399 . S
C413 C412 1.399 . S
C413 C414 1.376 . S
C414 H401 0.930 . S
C414 C413 1.376 . S
C414 C415 1.388 . S
C415 H402 0.930 . S
C415 C414 1.388 . S
C415 C416 1.390 . S
C416 C415 1.390 . S
C416 C417 1.394 . S
C416 C422 1.465 . S
C417 C412 1.399 . S
C417 C416 1.394 . S
C417 C418 1.516 . S
C418 C417 1.516 . S
C418 C419 1.502 . S
C418 C420 1.561 . S
C418 C421 1.526 . S
C419 H403 0.959 . S
C419 H404 0.959 . S
C419 H405 0.961 . S
C419 C418 1.502 . S
C420 H406 0.960 . S
C420 H407 0.961 . S
C420 H408 0.959 . S
C420 C418 1.561 . S
C421 C418 1.526 . S
C421 C422 1.396 . S
C421 C426 1.390 . S
C422 C416 1.465 . S
C422 C421 1.396 . S
C422 C423 1.399 . S
C423 H409 0.929 . S
C423 C422 1.399 . S
C423 C424 1.385 . S
C424 H410 0.931 . S
C424 C423 1.385 . S
C424 C425 1.389 . S
C425 C424 1.389 . S
C425 C426 1.387 . S
C426 H411 0.930 . S
C426 C421 1.390 . S
C426 C425 1.387 . S
H427 C439 0.930 . S
H428 C441 0.930 . S
H429 C442 0.930 . S
H430 C446 0.959 . S
H431 C446 0.959 . S
H432 C446 0.961 . S
H433 C447 0.960 . S
H434 C447 0.961 . S
H435 C447 0.959 . S
H436 C450 0.929 . S
H437 C451 0.931 . S
H438 C453 0.930 . S
C439 H427 0.930 . S
C439 C440 1.399 . S
C439 C444 1.399 . S
C440 C439 1.399 . S
C440 C441 1.376 . S
C441 H428 0.930 . S
C441 C440 1.376 . S
C441 C442 1.388 . S
C442 H429 0.930 . S
C442 C441 1.388 . S
C442 C443 1.390 . S
C443 C442 1.390 . S
C443 C444 1.394 . S
C443 C449 1.465 . S
C444 C439 1.399 . S
C444 C443 1.394 . S
C444 C445 1.516 . S
C445 C444 1.516 . S
C445 C446 1.502 . S
C445 C447 1.561 . S
C445 C448 1.526 . S
C446 H430 0.959 . S
C446 H431 0.959 . S
C446 H432 0.961 . S
C446 C445 1.502 . S
C447 H433 0.960 . S
C447 H434 0.961 . S
C447 H435 0.959 . S
C447 C445 1.561 . S
C448 C445 1.526 . S
C448 C449 1.396 . S
C448 C453 1.390 . S
C449 C443 1.465 . S
C449 C448 1.396 . S
C449 C450 1.399 . S
C450 H436 0.929 . S
C450 C449 1.399 . S
C450 C451 1.385 . S
C451 H437 0.931 . S
C451 C450 1.385 . S
C451 C452 1.389 . S
C452 C451 1.389 . S
C452 C453 1.387 . S
C453 H438 0.930 . S
C453 C448 1.390 . S
C453 C452 1.387 . S
H454 C466 0.930 . S
H455 C468 0.930 . S
H456 C469 0.930 . S
H457 C473 0.959 . S
H458 C473 0.959 . S
H459 C473 0.961 . S
H460 C474 0.960 . S
H461 C474 0.961 . S
H462 C474 0.959 . S
H463 C477 0.929 . S
H464 C478 0.931 . S
H465 C480 0.930 . S
C466 H454 0.930 . S
C466 C467 1.399 . S
C466 C471 1.399 . S
C467 C466 1.399 . S
C467 C468 1.376 . S
C468 H455 0.930 . S
C468 C467 1.376 . S
C468 C469 1.388 . S
C469 H456 0.930 . S
C469 C468 1.388 . S
C469 C470 1.390 . S
C470 C469 1.390 . S
C470 C471 1.394 . S
C470 C476 1.465 . S
C471 C466 1.399 . S
C471 C470 1.394 . S
C471 C472 1.516 . S
C472 C471 1.516 . S
C472 C473 1.502 . S
C472 C474 1.561 . S
C472 C475 1.526 . S
C473 H457 0.959 . S
C473 H458 0.959 . S
C473 H459 0.961 . S
C473 C472 1.502 . S
C474 H460 0.960 . S
C474 H461 0.961 . S
C474 H462 0.959 . S
C474 C472 1.561 . S
C475 C472 1.526 . S
C475 C476 1.396 . S
C475 C480 1.390 . S
C476 C470 1.465 . S
C476 C475 1.396 . S
C476 C477 1.399 . S
C477 H463 0.929 . S
C477 C476 1.399 . S
C477 C478 1.385 . S
C478 H464 0.931 . S
C478 C477 1.385 . S
C478 C479 1.389 . S
C479 C478 1.389 . S
C479 C480 1.387 . S
C480 H465 0.930 . S
C480 C475 1.390 . S
C480 C479 1.387 . S
H481 C493 0.930 . S
H482 C495 0.930 . S
H483 C496 0.930 . S
H484 C500 0.959 . S
H485 C500 0.959 . S
H486 C500 0.961 . S
H487 C501 0.960 . S
H488 C501 0.961 . S
H489 C501 0.959 . S
H490 C504 0.929 . S
H491 C505 0.931 . S
H492 C507 0.930 . S
C493 H481 0.930 . S
C493 C494 1.399 . S
C493 C498 1.399 . S
C494 C493 1.399 . S
C494 C495 1.376 . S
C495 H482 0.930 . S
C495 C494 1.376 . S
C495 C496 1.388 . S
C496 H483 0.930 . S
C496 C495 1.388 . S
C496 C497 1.390 . S
C497 C496 1.390 . S
C497 C498 1.394 . S
C497 C503 1.465 . S
C498 C493 1.399 . S
C498 C497 1.394 . S
C498 C499 1.516 . S
C499 C498 1.516 . S
C499 C500 1.502 . S
C499 C501 1.561 . S
C499 C502 1.526 . S
C500 H484 0.959 . S
C500 H485 0.959 . S
C500 H486 0.961 . S
C500 C499 1.502 . S
C501 H487 0.960 . S
C501 H488 0.961 . S
C501 H489 0.959 . S
C501 C499 1.561 . S
C502 C499 1.526 . S
C502 C503 1.396 . S
C502 C507 1.390 . S
C503 C497 1.465 . S
C503 C502 1.396 . S
C503 C504 1.399 . S
C504 H490 0.929 . S
C504 C503 1.399 . S
C504 C505 1.385 . S
C505 H491 0.931 . S
C505 C504 1.385 . S
C505 C506 1.389 . S
C506 C505 1.389 . S
C506 C507 1.387 . S
C507 H492 0.930 . S
C507 C502 1.390 . S
C507 C506 1.387 . S
H508 C520 0.930 . S
H509 C522 0.930 . S
H510 C523 0.930 . S
H511 C527 0.959 . S
H512 C527 0.959 . S
H513 C527 0.961 . S
H514 C528 0.960 . S
H515 C528 0.961 . S
H516 C528 0.959 . S
H517 C531 0.929 . S
H518 C532 0.931 . S
H519 C534 0.930 . S
C520 H508 0.930 . S
C520 C521 1.399 . S
C520 C525 1.399 . S
C521 C520 1.399 . S
C521 C522 1.376 . S
C522 H509 0.930 . S
C522 C521 1.376 . S
C522 C523 1.388 . S
C523 H510 0.930 . S
C523 C522 1.388 . S
C523 C524 1.390 . S
C524 C523 1.390 . S
C524 C525 1.394 . S
C524 C530 1.465 . S
C525 C520 1.399 . S
C525 C524 1.394 . S
C525 C526 1.516 . S
C526 C525 1.516 . S
C526 C527 1.502 . S
C526 C528 1.561 . S
C526 C529 1.526 . S
C527 H511 0.959 . S
C527 H512 0.959 . S
C527 H513 0.961 . S
C527 C526 1.502 . S
C528 H514 0.960 . S
C528 H515 0.961 . S
C528 H516 0.959 . S
C528 C526 1.561 . S
C529 C526 1.526 . S
C529 C530 1.396 . S
C529 C534 1.390 . S
C530 C524 1.465 . S
C530 C529 1.396 . S
C530 C531 1.399 . S
C531 H517 0.929 . S
C531 C530 1.399 . S
C531 C532 1.385 . S
C532 H518 0.931 . S
C532 C531 1.385 . S
C532 C533 1.389 . S
C533 C532 1.389 . S
C533 C534 1.387 . S
C534 H519 0.930 . S
C534 C529 1.390 . S
C534 C533 1.387 . S
H535 C547 0.930 . S
H536 C549 0.930 . S
H537 C550 0.930 . S
H538 C554 0.959 . S
H539 C554 0.959 . S
H540 C554 0.961 . S
H541 C555 0.960 . S
H542 C555 0.961 . S
H543 C555 0.959 . S
H544 C558 0.929 . S
H545 C559 0.931 . S
H546 C561 0.930 . S
C547 H535 0.930 . S
C547 C548 1.399 . S
C547 C552 1.399 . S
C548 C547 1.399 . S
C548 C549 1.376 . S
C549 H536 0.930 . S
C549 C548 1.376 . S
C549 C550 1.388 . S
C550 H537 0.930 . S
C550 C549 1.388 . S
C550 C551 1.390 . S
C551 C550 1.390 . S
C551 C552 1.394 . S
C551 C557 1.465 . S
C552 C547 1.399 . S
C552 C551 1.394 . S
C552 C553 1.516 . S
C553 C552 1.516 . S
C553 C554 1.502 . S
C553 C555 1.561 . S
C553 C556 1.526 . S
C554 H538 0.959 . S
C554 H539 0.959 . S
C554 H540 0.961 . S
C554 C553 1.502 . S
C555 H541 0.960 . S
C555 H542 0.961 . S
C555 H543 0.959 . S
C555 C553 1.561 . S
C556 C553 1.526 . S
C556 C557 1.396 . S
C556 C561 1.390 . S
C557 C551 1.465 . S
C557 C556 1.396 . S
C557 C558 1.399 . S
C558 H544 0.929 . S
C558 C557 1.399 . S
C558 C559 1.385 . S
C559 H545 0.931 . S
C559 C558 1.385 . S
C559 C560 1.389 . S
C560 C559 1.389 . S
C560 C561 1.387 . S
C561 H546 0.930 . S
C561 C556 1.390 . S
C561 C560 1.387 . S
H562 C574 0.930 . S
H563 C576 0.930 . S
H564 C577 0.930 . S
H565 C581 0.959 . S
H566 C581 0.959 . S
H567 C581 0.961 . S
H568 C582 0.960 . S
H569 C582 0.961 . S
H570 C582 0.959 . S
H571 C585 0.929 . S
H572 C586 0.931 . S
H573 C588 0.930 . S
C574 H562 0.930 . S
C574 C575 1.399 . S
C574 C579 1.399 . S
C575 C574 1.399 . S
C575 C576 1.376 . S
C576 H563 0.930 . S
C576 C575 1.376 . S
C576 C577 1.388 . S
C577 H564 0.930 . S
C577 C576 1.388 . S
C577 C578 1.390 . S
C578 C577 1.390 . S
C578 C579 1.394 . S
C578 C584 1.465 . S
C579 C574 1.399 . S
C579 C578 1.394 . S
C579 C580 1.516 . S
C580 C579 1.516 . S
C580 C581 1.502 . S
C580 C582 1.561 . S
C580 C583 1.526 . S
C581 H565 0.959 . S
C581 H566 0.959 . S
C581 H567 0.961 . S
C581 C580 1.502 . S
C582 H568 0.960 . S
C582 H569 0.961 . S
C582 H570 0.959 . S
C582 C580 1.561 . S
C583 C580 1.526 . S
C583 C584 1.396 . S
C583 C588 1.390 . S
C584 C578 1.465 . S
C584 C583 1.396 . S
C584 C585 1.399 . S
C585 H571 0.929 . S
C585 C584 1.399 . S
C585 C586 1.385 . S
C586 H572 0.931 . S
C586 C585 1.385 . S
C586 C587 1.389 . S
C587 C586 1.389 . S
C587 C588 1.387 . S
C588 H573 0.930 . S
C588 C583 1.390 . S
C588 C587 1.387 . S
H589 C601 0.930 . S
H590 C603 0.930 . S
H591 C604 0.930 . S
H592 C608 0.959 . S
H593 C608 0.959 . S
H594 C608 0.961 . S
H595 C609 0.960 . S
H596 C609 0.961 . S
H597 C609 0.959 . S
H598 C612 0.929 . S
H599 C613 0.931 . S
H600 C615 0.930 . S
C601 H589 0.930 . S
C601 C602 1.399 . S
C601 C606 1.399 . S
C602 C601 1.399 . S
C602 C603 1.376 . S
C603 H590 0.930 . S
C603 C602 1.376 . S
C603 C604 1.388 . S
C604 H591 0.930 . S
C604 C603 1.388 . S
C604 C605 1.390 . S
C605 C604 1.390 . S
C605 C606 1.394 . S
C605 C611 1.465 . S
C606 C601 1.399 . S
C606 C605 1.394 . S
C606 C607 1.516 . S
C607 C606 1.516 . S
C607 C608 1.502 . S
C607 C609 1.561 . S
C607 C610 1.526 . S
C608 H592 0.959 . S
C608 H593 0.959 . S
C608 H594 0.961 . S
C608 C607 1.502 . S
C609 H595 0.960 . S
C609 H596 0.961 . S
C609 H597 0.959 . S
C609 C607 1.561 . S
C610 C607 1.526 . S
C610 C611 1.396 . S
C610 C615 1.390 . S
C611 C605 1.465 . S
C611 C610 1.396 . S
C611 C612 1.399 . S
C612 H598 0.929 . S
C612 C611 1.399 . S
C612 C613 1.385 . S
C613 H599 0.931 . S
C613 C612 1.385 . S
C613 C614 1.389 . S
C614 C613 1.389 . S
C614 C615 1.387 . S
C615 H600 0.930 . S
C615 C610 1.390 . S
C615 C614 1.387 . S
H616 C628 0.930 . S
H617 C630 0.930 . S
H618 C631 0.930 . S
H619 C635 0.959 . S
H620 C635 0.959 . S
H621 C635 0.961 . S
H622 C636 0.960 . S
H623 C636 0.961 . S
H624 C636 0.959 . S
H625 C639 0.929 . S
H626 C640 0.931 . S
H627 C642 0.930 . S
C628 H616 0.930 . S
C628 C629 1.399 . S
C628 C633 1.399 . S
C629 C628 1.399 . S
C629 C630 1.376 . S
C630 H617 0.930 . S
C630 C629 1.376 . S
C630 C631 1.388 . S
C631 H618 0.930 . S
C631 C630 1.388 . S
C631 C632 1.390 . S
C632 C631 1.390 . S
C632 C633 1.394 . S
C632 C638 1.465 . S
C633 C628 1.399 . S
C633 C632 1.394 . S
C633 C634 1.516 . S
C634 C633 1.516 . S
C634 C635 1.502 . S
C634 C636 1.561 . S
C634 C637 1.526 . S
C635 H619 0.959 . S
C635 H620 0.959 . S
C635 H621 0.961 . S
C635 C634 1.502 . S
C636 H622 0.960 . S
C636 H623 0.961 . S
C636 H624 0.959 . S
C636 C634 1.561 . S
C637 C634 1.526 . S
C637 C638 1.396 . S
C637 C642 1.390 . S
C638 C632 1.465 . S
C638 C637 1.396 . S
C638 C639 1.399 . S
C639 H625 0.929 . S
C639 C638 1.399 . S
C639 C640 1.385 . S
C640 H626 0.931 . S
C640 C639 1.385 . S
C640 C641 1.389 . S
C641 C640 1.389 . S
C641 C642 1.387 . S
C642 H627 0.930 . S
C642 C637 1.390 . S
C642 C641 1.387 . S
H643 C655 0.930 . S
H644 C657 0.930 . S
H645 C658 0.930 . S
H646 C662 0.959 . S
H647 C662 0.959 . S
H648 C662 0.961 . S
H649 C663 0.960 . S
H650 C663 0.961 . S
H651 C663 0.959 . S
H652 C666 0.929 . S
H653 C667 0.931 . S
H654 C669 0.930 . S
C655 H643 0.930 . S
C655 C656 1.399 . S
C655 C660 1.399 . S
C656 C655 1.399 . S
C656 C657 1.376 . S
C657 H644 0.930 . S
C657 C656 1.376 . S
C657 C658 1.388 . S
C658 H645 0.930 . S
C658 C657 1.388 . S
C658 C659 1.390 . S
C659 C658 1.390 . S
C659 C660 1.394 . S
C659 C665 1.465 . S
C660 C655 1.399 . S
C660 C659 1.394 . S
C660 C661 1.516 . S
C661 C660 1.516 . S
C661 C662 1.502 . S
C661 C663 1.561 . S
C661 C664 1.526 . S
C662 H646 0.959 . S
C662 H647 0.959 . S
C662 H648 0.961 . S
C662 C661 1.502 . S
C663 H649 0.960 . S
C663 H650 0.961 . S
C663 H651 0.959 . S
C663 C661 1.561 . S
C664 C661 1.526 . S
C664 C665 1.396 . S
C664 C669 1.390 . S
C665 C659 1.465 . S
C665 C664 1.396 . S
C665 C666 1.399 . S
C666 H652 0.929 . S
C666 C665 1.399 . S
C666 C667 1.385 . S
C667 H653 0.931 . S
C667 C666 1.385 . S
C667 C668 1.389 . S
C668 C667 1.389 . S
C668 C669 1.387 . S
C669 H654 0.930 . S
C669 C664 1.390 . S
C669 C668 1.387 . S
H670 C682 0.930 . S
H671 C684 0.930 . S
H672 C685 0.930 . S
H673 C689 0.959 . S
H674 C689 0.959 . S
H675 C689 0.961 . S
H676 C690 0.960 . S
H677 C690 0.961 . S
H678 C690 0.959 . S
H679 C693 0.929 . S
H680 C694 0.931 . S
H681 C696 0.930 . S
C682 H670 0.930 . S
C682 C683 1.399 . S
C682 C687 1.399 . S
C683 C682 1.399 . S
C683 C684 1.376 . S
C684 H671 0.930 . S
C684 C683 1.376 . S
C684 C685 1.388 . S
C685 H672 0.930 . S
C685 C684 1.388 . S
C685 C686 1.390 . S
C686 C685 1.390 . S
C686 C687 1.394 . S
C686 C692 1.465 . S
C687 C682 1.399 . S
C687 C686 1.394 . S
C687 C688 1.516 . S
C688 C687 1.516 . S
C688 C689 1.502 . S
C688 C690 1.561 . S
C688 C691 1.526 . S
C689 H673 0.959 . S
C689 H674 0.959 . S
C689 H675 0.961 . S
C689 C688 1.502 . S
C690 H676 0.960 . S
C690 H677 0.961 . S
C690 H678 0.959 . S
C690 C688 1.561 . S
C691 C688 1.526 . S
C691 C692 1.396 . S
C691 C696 1.390 . S
C692 C686 1.465 . S
C692 C691 1.396 . S
C692 C693 1.399 . S
C693 H679 0.929 . S
C693 C692 1.399 . S
C693 C694 1.385 . S
C694 H680 0.931 . S
C694 C693 1.385 . S
C694 C695 1.389 . S
C695 C694 1.389 . S
C695 C696 1.387 . S
C696 H681 0.930 . S
C696 C691 1.390 . S
C696 C695 1.387 . S
H697 C709 0.930 . S
H698 C711 0.930 . S
H699 C712 0.930 . S
H700 C716 0.959 . S
H701 C716 0.959 . S
H702 C716 0.961 . S
H703 C717 0.960 . S
H704 C717 0.961 . S
H705 C717 0.959 . S
H706 C720 0.929 . S
H707 C721 0.931 . S
H708 C723 0.930 . S
C709 H697 0.930 . S
C709 C710 1.399 . S
C709 C714 1.399 . S
C710 C709 1.399 . S
C710 C711 1.376 . S
C711 H698 0.930 . S
C711 C710 1.376 . S
C711 C712 1.388 . S
C712 H699 0.930 . S
C712 C711 1.388 . S
C712 C713 1.390 . S
C713 C712 1.390 . S
C713 C714 1.394 . S
C713 C719 1.465 . S
C714 C709 1.399 . S
C714 C713 1.394 . S
C714 C715 1.516 . S
C715 C714 1.516 . S
C715 C716 1.502 . S
C715 C717 1.561 . S
C715 C718 1.526 . S
C716 H700 0.959 . S
C716 H701 0.959 . S
C716 H702 0.961 . S
C716 C715 1.502 . S
C717 H703 0.960 . S
C717 H704 0.961 . S
C717 H705 0.959 . S
C717 C715 1.561 . S
C718 C715 1.526 . S
C718 C719 1.396 . S
C718 C723 1.390 . S
C719 C713 1.465 . S
C719 C718 1.396 . S
C719 C720 1.399 . S
C720 H706 0.929 . S
C720 C719 1.399 . S
C720 C721 1.385 . S
C721 H707 0.931 . S
C721 C720 1.385 . S
C721 C722 1.389 . S
C722 C721 1.389 . S
C722 C723 1.387 . S
C723 H708 0.930 . S
C723 C718 1.390 . S
C723 C722 1.387 . S
H724 C736 0.930 . S
H725 C738 0.930 . S
H726 C739 0.930 . S
H727 C743 0.959 . S
H728 C743 0.959 . S
H729 C743 0.949 1_565 S
H730 C744 0.960 . S
H731 C744 0.961 . S
H732 C744 0.959 . S
H733 C747 0.929 . S
H734 C748 0.931 . S
H735 C750 0.930 . S
C736 H724 0.930 . S
C736 C737 1.399 . S
C736 C741 1.399 . S
C737 C736 1.399 . S
C737 C738 1.376 . S
C738 H725 0.930 . S
C738 C737 1.376 . S
C738 C739 1.388 . S
C739 H726 0.930 . S
C739 C738 1.388 . S
C739 C740 1.390 . S
C740 C739 1.390 . S
C740 C741 1.394 . S
C740 C746 1.465 . S
C741 C736 1.399 . S
C741 C740 1.394 . S
C741 C742 1.516 . S
C742 C741 1.516 . S
C742 C743 1.502 . S
C742 C744 1.561 . S
C742 C745 1.526 . S
C743 H727 0.959 . S
C743 H728 0.959 . S
C743 H729 0.949 1_545 S
C743 C742 1.502 . S
C744 H730 0.960 . S
C744 H731 0.961 . S
C744 H732 0.959 . S
C744 C742 1.561 . S
C745 C742 1.526 . S
C745 C746 1.396 . S
C745 C750 1.390 . S
C746 C740 1.465 . S
C746 C745 1.396 . S
C746 C747 1.399 . S
C747 H733 0.929 . S
C747 C746 1.399 . S
C747 C748 1.385 . S
C748 H734 0.931 . S
C748 C747 1.385 . S
C748 C749 1.389 . S
C749 C748 1.389 . S
C749 C750 1.387 . S
C750 H735 0.930 . S
C750 C745 1.390 . S
C750 C749 1.387 . S
H751 C763 0.930 . S
H752 C765 0.930 . S
H753 C766 0.930 . S
H754 C770 0.959 . S
H755 C770 0.959 . S
H756 C770 0.961 . S
H757 C771 0.960 . S
H758 C771 0.961 . S
H759 C771 0.959 . S
H760 C774 0.929 . S
H761 C775 0.931 . S
H762 C777 0.930 . S
C763 H751 0.930 . S
C763 C764 1.399 . S
C763 C768 1.399 . S
C764 C763 1.399 . S
C764 C765 1.376 . S
C765 H752 0.930 . S
C765 C764 1.376 . S
C765 C766 1.388 . S
C766 H753 0.930 . S
C766 C765 1.388 . S
C766 C767 1.390 . S
C767 C766 1.390 . S
C767 C768 1.394 . S
C767 C773 1.465 . S
C768 C763 1.399 . S
C768 C767 1.394 . S
C768 C769 1.516 . S
C769 C768 1.516 . S
C769 C770 1.502 . S
C769 C771 1.561 . S
C769 C772 1.526 . S
C770 H754 0.959 . S
C770 H755 0.959 . S
C770 H756 0.961 . S
C770 C769 1.502 . S
C771 H757 0.960 . S
C771 H758 0.961 . S
C771 H759 0.959 . S
C771 C769 1.561 . S
C772 C769 1.526 . S
C772 C773 1.396 . S
C772 C777 1.390 . S
C773 C767 1.465 . S
C773 C772 1.396 . S
C773 C774 1.399 . S
C774 H760 0.929 . S
C774 C773 1.399 . S
C774 C775 1.385 . S
C775 H761 0.931 . S
C775 C774 1.385 . S
C775 C776 1.389 . S
C776 C775 1.389 . S
C776 C777 1.387 . S
C777 H762 0.930 . S
C777 C772 1.390 . S
C777 C776 1.387 . S
H778 C790 0.930 . S
H779 C792 0.930 1_565 S
H780 C793 0.930 . S
H781 C797 0.959 . S
H782 C797 0.959 . S
H783 C797 0.961 . S
H784 C798 0.960 . S
H785 C798 0.961 . S
H786 C798 0.959 . S
H787 C801 0.929 . S
H788 C802 0.931 . S
H789 C804 0.930 . S
C790 H778 0.930 . S
C790 C791 1.399 . S
C790 C795 1.399 . S
C791 C790 1.399 . S
C791 C792 1.376 . S
C792 H779 0.930 1_545 S
C792 C791 1.376 . S
C792 C793 1.388 . S
C793 H780 0.930 . S
C793 C792 1.388 . S
C793 C794 1.390 . S
C794 C793 1.390 . S
C794 C795 1.394 . S
C794 C800 1.465 . S
C795 C790 1.399 . S
C795 C794 1.394 . S
C795 C796 1.516 . S
C796 C795 1.516 . S
C796 C797 1.502 . S
C796 C798 1.561 . S
C796 C799 1.526 . S
C797 H781 0.959 . S
C797 H782 0.959 . S
C797 H783 0.961 . S
C797 C796 1.502 . S
C798 H784 0.960 . S
C798 H785 0.961 . S
C798 H786 0.959 . S
C798 C796 1.561 . S
C799 C796 1.526 . S
C799 C800 1.396 . S
C799 C804 1.390 . S
C800 C794 1.465 . S
C800 C799 1.396 . S
C800 C801 1.399 . S
C801 H787 0.929 . S
C801 C800 1.399 . S
C801 C802 1.385 . S
C802 H788 0.931 . S
C802 C801 1.385 . S
C802 C803 1.389 . S
C803 C802 1.389 . S
C803 C804 1.387 . S
C804 H789 0.930 . S
C804 C799 1.390 . S
C804 C803 1.387 . S
H805 C817 0.930 . S
H806 C819 0.930 . S
H807 C820 0.930 . S
H808 C824 0.959 . S
H809 C824 0.959 . S
H810 C824 0.961 . S
H811 C825 0.960 . S
H812 C825 0.961 . S
H813 C825 0.959 . S
H814 C828 0.929 . S
H815 C829 0.931 . S
H816 C831 0.930 . S
C817 H805 0.930 . S
C817 C818 1.399 . S
C817 C822 1.399 . S
C818 C817 1.399 . S
C818 C819 1.376 . S
C819 H806 0.930 . S
C819 C818 1.376 . S
C819 C820 1.388 . S
C820 H807 0.930 . S
C820 C819 1.388 . S
C820 C821 1.390 . S
C821 C820 1.390 . S
C821 C822 1.394 . S
C821 C827 1.465 . S
C822 C817 1.399 . S
C822 C821 1.394 . S
C822 C823 1.516 . S
C823 C822 1.516 . S
C823 C824 1.502 . S
C823 C825 1.561 . S
C823 C826 1.526 . S
C824 H808 0.959 . S
C824 H809 0.959 . S
C824 H810 0.961 . S
C824 C823 1.502 . S
C825 H811 0.960 . S
C825 H812 0.961 . S
C825 H813 0.959 . S
C825 C823 1.561 . S
C826 C823 1.526 . S
C826 C827 1.396 . S
C826 C831 1.390 . S
C827 C821 1.465 . S
C827 C826 1.396 . S
C827 C828 1.399 . S
C828 H814 0.929 . S
C828 C827 1.399 . S
C828 C829 1.385 . S
C829 H815 0.931 . S
C829 C828 1.385 . S
C829 C830 1.389 . S
C830 C829 1.389 . S
C830 C831 1.387 . S
C831 H816 0.930 . S
C831 C826 1.390 . S
C831 C830 1.387 . S
H832 C844 0.930 . S
H833 C846 0.930 . S
H834 C847 0.930 . S
H835 C851 0.959 . S
H836 C851 0.959 . S
H837 C851 0.961 . S
H838 C852 0.960 . S
H839 C852 0.961 . S
H840 C852 0.959 . S
H841 C855 0.929 . S
H842 C856 0.931 . S
H843 C858 0.930 . S
C844 H832 0.930 . S
C844 C845 1.399 . S
C844 C849 1.399 . S
C845 C844 1.399 . S
C845 C846 1.376 . S
C846 H833 0.930 . S
C846 C845 1.376 . S
C846 C847 1.388 . S
C847 H834 0.930 . S
C847 C846 1.388 . S
C847 C848 1.390 . S
C848 C847 1.390 . S
C848 C849 1.394 . S
C848 C854 1.465 . S
C849 C844 1.399 . S
C849 C848 1.394 . S
C849 C850 1.516 . S
C850 C849 1.516 . S
C850 C851 1.502 . S
C850 C852 1.561 . S
C850 C853 1.526 . S
C851 H835 0.959 . S
C851 H836 0.959 . S
C851 H837 0.961 . S
C851 C850 1.502 . S
C852 H838 0.960 . S
C852 H839 0.961 . S
C852 H840 0.959 . S
C852 C850 1.561 . S
C853 C850 1.526 . S
C853 C854 1.396 . S
C853 C858 1.390 . S
C854 C848 1.465 . S
C854 C853 1.396 . S
C854 C855 1.399 . S
C855 H841 0.929 . S
C855 C854 1.399 . S
C855 C856 1.385 . S
C856 H842 0.931 . S
C856 C855 1.385 . S
C856 C857 1.389 . S
C857 C856 1.389 . S
C857 C858 1.387 . S
C858 H843 0.930 . S
C858 C853 1.390 . S
C858 C857 1.387 . S
H859 C871 0.930 . S
H860 C873 0.930 . S
H861 C874 0.930 . S
H862 C878 0.959 . S
H863 C878 0.959 . S
H864 C878 0.961 . S
H865 C879 0.960 . S
H866 C879 0.961 . S
H867 C879 0.959 . S
H868 C882 0.929 . S
H869 C883 0.931 . S
H870 C885 0.930 . S
C871 H859 0.930 . S
C871 C872 1.399 . S
C871 C876 1.399 . S
C872 C871 1.399 . S
C872 C873 1.376 . S
C873 H860 0.930 . S
C873 C872 1.376 . S
C873 C874 1.388 . S
C874 H861 0.930 . S
C874 C873 1.388 . S
C874 C875 1.390 . S
C875 C874 1.390 . S
C875 C876 1.394 . S
C875 C881 1.465 . S
C876 C871 1.399 . S
C876 C875 1.394 . S
C876 C877 1.516 . S
C877 C876 1.516 . S
C877 C878 1.502 . S
C877 C879 1.561 . S
C877 C880 1.526 . S
C878 H862 0.959 . S
C878 H863 0.959 . S
C878 H864 0.961 . S
C878 C877 1.502 . S
C879 H865 0.960 . S
C879 H866 0.961 . S
C879 H867 0.959 . S
C879 C877 1.561 . S
C880 C877 1.526 . S
C880 C881 1.396 . S
C880 C885 1.390 . S
C881 C875 1.465 . S
C881 C880 1.396 . S
C881 C882 1.399 . S
C882 H868 0.929 . S
C882 C881 1.399 . S
C882 C883 1.385 . S
C883 H869 0.931 . S
C883 C882 1.385 . S
C883 C884 1.389 . S
C884 C883 1.389 . S
C884 C885 1.387 . S
C885 H870 0.930 . S
C885 C880 1.390 . S
C885 C884 1.387 . S
H886 C898 0.930 . S
H887 C900 0.930 . S
H888 C901 0.930 . S
H889 C905 0.959 . S
H890 C905 0.959 . S
H891 C905 0.961 . S
H892 C906 0.960 . S
H893 C906 0.961 . S
H894 C906 0.959 . S
H895 C909 0.929 . S
H896 C910 0.931 . S
H897 C912 0.930 . S
C898 H886 0.930 . S
C898 C899 1.399 . S
C898 C903 1.399 . S
C899 C898 1.399 . S
C899 C900 1.376 . S
C900 H887 0.930 . S
C900 C899 1.376 . S
C900 C901 1.388 . S
C901 H888 0.930 . S
C901 C900 1.388 . S
C901 C902 1.390 . S
C902 C901 1.390 . S
C902 C903 1.394 . S
C902 C908 1.465 . S
C903 C898 1.399 . S
C903 C902 1.394 . S
C903 C904 1.516 . S
C904 C903 1.516 . S
C904 C905 1.502 . S
C904 C906 1.561 . S
C904 C907 1.526 . S
C905 H889 0.959 . S
C905 H890 0.959 . S
C905 H891 0.961 . S
C905 C904 1.502 . S
C906 H892 0.960 . S
C906 H893 0.961 . S
C906 H894 0.959 . S
C906 C904 1.561 . S
C907 C904 1.526 . S
C907 C908 1.396 . S
C907 C912 1.390 . S
C908 C902 1.465 . S
C908 C907 1.396 . S
C908 C909 1.399 . S
C909 H895 0.929 . S
C909 C908 1.399 . S
C909 C910 1.385 . S
C910 H896 0.931 . S
C910 C909 1.385 . S
C910 C911 1.389 . S
C911 C910 1.389 . S
C911 C912 1.387 . S
C912 H897 0.930 . S
C912 C907 1.390 . S
C912 C911 1.387 . S
H913 C925 0.930 . S
H914 C927 0.930 . S
H915 C928 0.930 . S
H916 C932 0.959 . S
H917 C932 0.959 . S
H918 C932 0.961 . S
H919 C933 0.960 . S
H920 C933 0.961 . S
H921 C933 0.959 . S
H922 C936 0.929 . S
H923 C937 0.931 . S
H924 C939 0.930 . S
C925 H913 0.930 . S
C925 C926 1.399 . S
C925 C930 1.399 . S
C926 C925 1.399 . S
C926 C927 1.376 . S
C927 H914 0.930 . S
C927 C926 1.376 . S
C927 C928 1.388 . S
C928 H915 0.930 . S
C928 C927 1.388 . S
C928 C929 1.390 . S
C929 C928 1.390 . S
C929 C930 1.394 . S
C929 C935 1.465 . S
C930 C925 1.399 . S
C930 C929 1.394 . S
C930 C931 1.516 . S
C931 C930 1.516 . S
C931 C932 1.502 . S
C931 C933 1.561 . S
C931 C934 1.526 . S
C932 H916 0.959 . S
C932 H917 0.959 . S
C932 H918 0.961 . S
C932 C931 1.502 . S
C933 H919 0.960 . S
C933 H920 0.961 . S
C933 H921 0.959 . S
C933 C931 1.561 . S
C934 C931 1.526 . S
C934 C935 1.396 . S
C934 C939 1.390 . S
C935 C929 1.465 . S
C935 C934 1.396 . S
C935 C936 1.399 . S
C936 H922 0.929 . S
C936 C935 1.399 . S
C936 C937 1.385 . S
C937 H923 0.931 . S
C937 C936 1.385 . S
C937 C938 1.389 . S
C938 C937 1.389 . S
C938 C939 1.387 . S
C939 H924 0.930 . S
C939 C934 1.390 . S
C939 C938 1.387 . S
H940 C952 0.930 . S
H941 C954 0.930 . S
H942 C955 0.930 . S
H943 C959 0.959 . S
H944 C959 0.959 . S
H945 C959 0.961 . S
H946 C960 0.960 . S
H947 C960 0.961 . S
H948 C960 0.959 . S
H949 C963 0.929 . S
H950 C964 0.931 . S
H951 C966 0.930 . S
C952 H940 0.930 . S
C952 C953 1.399 . S
C952 C957 1.399 . S
C953 C952 1.399 . S
C953 C954 1.376 . S
C954 H941 0.930 . S
C954 C953 1.376 . S
C954 C955 1.388 . S
C955 H942 0.930 . S
C955 C954 1.388 . S
C955 C956 1.390 . S
C956 C955 1.390 . S
C956 C957 1.394 . S
C956 C962 1.465 . S
C957 C952 1.399 . S
C957 C956 1.394 . S
C957 C958 1.516 . S
C958 C957 1.516 . S
C958 C959 1.502 . S
C958 C960 1.561 . S
C958 C961 1.526 . S
C959 H943 0.959 . S
C959 H944 0.959 . S
C959 H945 0.961 . S
C959 C958 1.502 . S
C960 H946 0.960 . S
C960 H947 0.961 . S
C960 H948 0.959 . S
C960 C958 1.561 . S
C961 C958 1.526 . S
C961 C962 1.396 . S
C961 C966 1.390 . S
C962 C956 1.465 . S
C962 C961 1.396 . S
C962 C963 1.399 . S
C963 H949 0.929 . S
C963 C962 1.399 . S
C963 C964 1.385 . S
C964 H950 0.931 . S
C964 C963 1.385 . S
C964 C965 1.389 . S
C965 C964 1.389 . S
C965 C966 1.387 . S
C966 H951 0.930 . S
C966 C961 1.390 . S
C966 C965 1.387 . S
H967 C979 0.930 . S
H968 C981 0.930 . S
H969 C982 0.930 . S
H970 C986 0.959 . S
H971 C986 0.959 . S
H972 C986 0.961 . S
H973 C987 0.960 . S
H974 C987 0.961 . S
H975 C987 0.959 . S
H976 C990 0.929 . S
H977 C991 0.931 . S
H978 C993 0.930 . S
C979 H967 0.930 . S
C979 C980 1.399 . S
C979 C984 1.399 . S
C980 C979 1.399 . S
C980 C981 1.376 . S
C981 H968 0.930 . S
C981 C980 1.376 . S
C981 C982 1.388 . S
C982 H969 0.930 . S
C982 C981 1.388 . S
C982 C983 1.390 . S
C983 C982 1.390 . S
C983 C984 1.394 . S
C983 C989 1.465 . S
C984 C979 1.399 . S
C984 C983 1.394 . S
C984 C985 1.516 . S
C985 C984 1.516 . S
C985 C986 1.502 . S
C985 C987 1.561 . S
C985 C988 1.526 . S
C986 H970 0.959 . S
C986 H971 0.959 . S
C986 H972 0.961 . S
C986 C985 1.502 . S
C987 H973 0.960 . S
C987 H974 0.961 . S
C987 H975 0.959 . S
C987 C985 1.561 . S
C988 C985 1.526 . S
C988 C989 1.396 . S
C988 C993 1.390 . S
C989 C983 1.465 . S
C989 C988 1.396 . S
C989 C990 1.399 . S
C990 H976 0.929 . S
C990 C989 1.399 . S
C990 C991 1.385 . S
C991 H977 0.931 . S
C991 C990 1.385 . S
C991 C992 1.389 . S
C992 C991 1.389 . S
C992 C993 1.387 . S
C993 H978 0.930 . S
C993 C988 1.390 . S
C993 C992 1.387 . S
H994 C1006 0.930 . S
H995 C1008 0.930 . S
H996 C1009 0.930 . S
H997 C1013 0.959 . S
H998 C1013 0.959 . S
H999 C1013 0.961 . S
H1000 C1014 0.960 . S
H1001 C1014 0.961 . S
H1002 C1014 0.959 . S
H1003 C1017 0.929 . S
H1004 C1018 0.931 . S
H1005 C1020 0.930 . S
C1006 H994 0.930 . S
C1006 C1007 1.399 . S
C1006 C1011 1.399 . S
C1007 C1006 1.399 . S
C1007 C1008 1.376 . S
C1008 H995 0.930 . S
C1008 C1007 1.376 . S
C1008 C1009 1.388 . S
C1009 H996 0.930 . S
C1009 C1008 1.388 . S
C1009 C1010 1.390 . S
C1010 C1009 1.390 . S
C1010 C1011 1.394 . S
C1010 C1016 1.465 . S
C1011 C1006 1.399 . S
C1011 C1010 1.394 . S
C1011 C1012 1.516 . S
C1012 C1011 1.516 . S
C1012 C1013 1.502 . S
C1012 C1014 1.561 . S
C1012 C1015 1.526 . S
C1013 H997 0.959 . S
C1013 H998 0.959 . S
C1013 H999 0.961 . S
C1013 C1012 1.502 . S
C1014 H1000 0.960 . S
C1014 H1001 0.961 . S
C1014 H1002 0.959 . S
C1014 C1012 1.561 . S
C1015 C1012 1.526 . S
C1015 C1016 1.396 . S
C1015 C1020 1.390 . S
C1016 C1010 1.465 . S
C1016 C1015 1.396 . S
C1016 C1017 1.399 . S
C1017 H1003 0.929 . S
C1017 C1016 1.399 . S
C1017 C1018 1.385 . S
C1018 H1004 0.931 . S
C1018 C1017 1.385 . S
C1018 C1019 1.389 . S
C1019 C1018 1.389 . S
C1019 C1020 1.387 . S
C1020 H1005 0.930 . S
C1020 C1015 1.390 . S
C1020 C1019 1.387 . S
H1021 C1033 0.930 . S
H1022 C1035 0.930 . S
H1023 C1036 0.930 . S
H1024 C1040 0.959 . S
H1025 C1040 0.959 . S
H1026 C1040 0.961 . S
H1027 C1041 0.960 . S
H1028 C1041 0.961 . S
H1029 C1041 0.959 . S
H1030 C1044 0.929 . S
H1031 C1045 0.931 . S
H1032 C1047 0.930 . S
C1033 H1021 0.930 . S
C1033 C1034 1.399 . S
C1033 C1038 1.399 . S
C1034 C1033 1.399 . S
C1034 C1035 1.376 . S
C1035 H1022 0.930 . S
C1035 C1034 1.376 . S
C1035 C1036 1.388 . S
C1036 H1023 0.930 . S
C1036 C1035 1.388 . S
C1036 C1037 1.390 . S
C1037 C1036 1.390 . S
C1037 C1038 1.394 . S
C1037 C1043 1.465 . S
C1038 C1033 1.399 . S
C1038 C1037 1.394 . S
C1038 C1039 1.516 . S
C1039 C1038 1.516 . S
C1039 C1040 1.502 . S
C1039 C1041 1.561 . S
C1039 C1042 1.526 . S
C1040 H1024 0.959 . S
C1040 H1025 0.959 . S
C1040 H1026 0.961 . S
C1040 C1039 1.502 . S
C1041 H1027 0.960 . S
C1041 H1028 0.961 . S
C1041 H1029 0.959 . S
C1041 C1039 1.561 . S
C1042 C1039 1.526 . S
C1042 C1043 1.396 . S
C1042 C1047 1.390 . S
C1043 C1037 1.465 . S
C1043 C1042 1.396 . S
C1043 C1044 1.399 . S
C1044 H1030 0.929 . S
C1044 C1043 1.399 . S
C1044 C1045 1.385 . S
C1045 H1031 0.931 . S
C1045 C1044 1.385 . S
C1045 C1046 1.389 . S
C1046 C1045 1.389 . S
C1046 C1047 1.387 . S
C1047 H1032 0.930 . S
C1047 C1042 1.390 . S
C1047 C1046 1.387 . S
C413 C21 1.563 . S
C425 C338 1.485 . S
C452 C316 1.522 . S
C440 C60 1.534 . S
C479 C342 1.511 . S
C467 C99 1.549 . S
C506 C320 1.496 . S
C494 C138 1.544 . S
C533 C382 1.520 . S
C521 C177 1.536 . S
C560 C360 1.485 . S
C548 C216 1.563 . S
C575 C255 1.520 . S
C587 C386 1.550 . S
C614 C364 1.478 . S
C602 C294 1.558 . S
C629 C1 1.574 . S
C641 C387 1.579 . S
C668 C365 1.563 . S
C656 C40 1.558 . S
C683 C79 1.537 . S
C695 C384 1.562 . S
C710 C133 1.513 . S
C722 C362 1.540 . S
C749 C343 1.569 . S
C737 C157 1.565 1_545 S
C764 C196 1.569 1_565 S
C776 C321 1.576 . S
C803 C340 1.554 . S
C791 C235 1.544 1_545 S
C830 C318 1.559 . S
C818 C289 1.556 1_565 S
C857 C361 1.541 . S
C845 C16 1.525 . S
C884 C383 1.513 . S
C872 C55 1.501 . S
C899 C94 1.512 . S
C911 C363 1.541 . S
C938 C385 1.525 . S
C926 C118 1.538 . S
C965 C317 1.550 . S
C953 C172 1.541 . S
C980 C211 1.528 . S
C992 C339 1.543 . S
C1007 C250 1.510 . S
C1019 C319 1.539 . S
C1034 C274 1.543 . S
C1046 C341 1.531 . S
