# Generated by pormake.
# Topology zzz, (3,6)-cn, num edge types: 1
# Building blocks:
#     Node 0, Type 0, BuildingBlock: BELTOD_clean_linker_0, # of connection points: 3
#     Node 1, Type 0, BuildingBlock: BELTOD_clean_linker_0, # of connection points: 3
#     Node 2, Type 0, BuildingBlock: BELTOD_clean_linker_0, # of connection points: 3
#     Node 3, Type 0, BuildingBlock: BELTOD_clean_linker_0, # of connection points: 3
#     Node 4, Type 0, BuildingBlock: BELTOD_clean_linker_0, # of connection points: 3
#     Node 5, Type 0, BuildingBlock: BELTOD_clean_linker_0, # of connection points: 3
#     Node 6, Type 0, BuildingBlock: BELTOD_clean_linker_0, # of connection points: 3
#     Node 7, Type 0, BuildingBlock: BELTOD_clean_linker_0, # of connection points: 3
#     Node 8, Type 1, BuildingBlock: BETDIP_clean_sbu_0, # of connection points: 6
#     Node 9, Type 1, BuildingBlock: BETDIP_clean_sbu_0, # of connection points: 6
#     Node 10, Type 1, BuildingBlock: BETDIP_clean_sbu_0, # of connection points: 6
#     Node 11, Type 1, BuildingBlock: BETDIP_clean_sbu_0, # of connection points: 6
#     Edge 12, Type (0, 1), BuildingBlock: CIFDUS_clean_linker_0, # of connection points: 2
#     Edge 13, Type (0, 1), BuildingBlock: CIFDUS_clean_linker_0, # of connection points: 2
#     Edge 14, Type (0, 1), BuildingBlock: CIFDUS_clean_linker_0, # of connection points: 2
#     Edge 15, Type (0, 1), BuildingBlock: CIFDUS_clean_linker_0, # of connection points: 2
#     Edge 16, Type (0, 1), BuildingBlock: CIFDUS_clean_linker_0, # of connection points: 2
#     Edge 17, Type (0, 1), BuildingBlock: CIFDUS_clean_linker_0, # of connection points: 2
#     Edge 18, Type (0, 1), BuildingBlock: CIFDUS_clean_linker_0, # of connection points: 2
#     Edge 19, Type (0, 1), BuildingBlock: CIFDUS_clean_linker_0, # of connection points: 2
#     Edge 20, Type (0, 1), BuildingBlock: CIFDUS_clean_linker_0, # of connection points: 2
#     Edge 21, Type (0, 1), BuildingBlock: CIFDUS_clean_linker_0, # of connection points: 2
#     Edge 22, Type (0, 1), BuildingBlock: CIFDUS_clean_linker_0, # of connection points: 2
#     Edge 23, Type (0, 1), BuildingBlock: CIFDUS_clean_linker_0, # of connection points: 2
#     Edge 24, Type (0, 1), BuildingBlock: CIFDUS_clean_linker_0, # of connection points: 2
#     Edge 25, Type (0, 1), BuildingBlock: CIFDUS_clean_linker_0, # of connection points: 2
#     Edge 26, Type (0, 1), BuildingBlock: CIFDUS_clean_linker_0, # of connection points: 2
#     Edge 27, Type (0, 1), BuildingBlock: CIFDUS_clean_linker_0, # of connection points: 2
#     Edge 28, Type (0, 1), BuildingBlock: CIFDUS_clean_linker_0, # of connection points: 2
#     Edge 29, Type (0, 1), BuildingBlock: CIFDUS_clean_linker_0, # of connection points: 2
#     Edge 30, Type (0, 1), BuildingBlock: CIFDUS_clean_linker_0, # of connection points: 2
#     Edge 31, Type (0, 1), BuildingBlock: CIFDUS_clean_linker_0, # of connection points: 2
#     Edge 32, Type (0, 1), BuildingBlock: CIFDUS_clean_linker_0, # of connection points: 2
#     Edge 33, Type (0, 1), BuildingBlock: CIFDUS_clean_linker_0, # of connection points: 2
#     Edge 34, Type (0, 1), BuildingBlock: CIFDUS_clean_linker_0, # of connection points: 2
#     Edge 35, Type (0, 1), BuildingBlock: CIFDUS_clean_linker_0, # of connection points: 2
# Relax obj value: 0.454
# Max RMSD: 0.248
# Mean RMSD: 0.233
data_MOF--net-zzz--node1-BETDIP_clean_sbu_0--node2-BELTOD_clean_linker_0--edge1-CIFDUS_clean_linker_0
_symmetry_space_group_name_H-M    P1
_symmetry_Int_Tables_number       1
_symmetry_cell_setting            triclinic
loop_
_symmetry_equiv_pos_as_xyz
'x, y, z'
_cell_length_a     49.46479
_cell_length_b     49.43495
_cell_length_c     15.506391
_cell_angle_alpha  89.576698
_cell_angle_beta   89.69128
_cell_angle_gamma 90.161643
loop_
_atom_site_label
_atom_site_type_symbol
_atom_site_fract_x
_atom_site_fract_y
_atom_site_fract_z
_atom_type_partial_charge
P0 P 0.72467 0.4807 0.40428 0.0
H1 H 0.74447 0.50593 0.56362 0.0
H2 H 0.79012 0.5173 0.61046 0.0
H3 H 0.81964 0.50435 0.3514 0.0
H4 H 0.77392 0.49381 0.30483 0.0
H5 H 0.66571 0.48038 0.39231 0.0
H6 H 0.63463 0.4883 0.273 0.0
H7 H 0.70132 0.51537 0.11378 0.0
H8 H 0.73239 0.5081 0.2346 0.0
H9 H 0.75477 0.43957 0.49632 0.0
H10 H 0.72677 0.45234 0.23622 0.0
O11 O 0.70726 0.47531 0.49535 0.0
H12 H 0.79203 0.41234 0.44154 0.0
H13 H 0.76399 0.42562 0.18161 0.0
C14 C 0.75532 0.49948 0.42996 0.0
C15 C 0.76052 0.50657 0.51595 0.0
C16 C 0.78691 0.51255 0.54324 0.0
C17 C 0.80893 0.51144 0.48535 0.0
C18 C 0.80337 0.50583 0.3981 0.0
C19 C 0.77696 0.50004 0.37085 0.0
C20 C 0.70153 0.49383 0.32324 0.0
C21 C 0.67365 0.48894 0.3329 0.0
C22 C 0.65578 0.49343 0.26437 0.0
C23 C 0.66546 0.50233 0.18365 0.0
C24 C 0.69322 0.50841 0.17511 0.0
C25 C 0.71103 0.50445 0.24445 0.0
C26 C 0.73853 0.44885 0.37034 0.0
C27 C 0.75562 0.43525 0.42796 0.0
C28 C 0.77706 0.41981 0.39658 0.0
C29 C 0.78135 0.41766 0.30727 0.0
C30 C 0.76134 0.42715 0.2508 0.0
C31 C 0.74003 0.44275 0.28225 0.0
P32 P 0.04016 0.71912 0.42428 0.0
H33 H 0.02971 0.73534 0.60236 0.0
H34 H 0.018 0.77854 0.66339 0.0
H35 H 0.99555 0.80795 0.41039 0.0
H36 H 0.00911 0.76454 0.34887 0.0
H37 H 0.02957 0.66105 0.44293 0.0
H38 H 0.01907 0.62604 0.33918 0.0
H39 H 1.0059 0.68727 0.14375 0.0
H40 H 0.01547 0.72249 0.24995 0.0
H41 H 0.07296 0.76554 0.47082 0.0
H42 H 0.06932 0.70992 0.25798 0.0
O43 O 0.0544 0.70195 0.50517 0.0
H44 H 0.10093 0.79595 0.38555 0.0
H45 H 0.09769 0.74037 0.17188 0.0
C46 C 0.02008 0.74627 0.47072 0.0
C47 C 0.02142 0.75065 0.55992 0.0
C48 C 0.01466 0.77577 0.59514 0.0
C49 C 1.00598 0.79741 0.54242 0.0
C50 C 1.00271 0.79226 0.4535 0.0
C51 C 0.00984 0.76707 0.41811 0.0
C52 C 0.02379 0.69458 0.35437 0.0
C53 C 0.02375 0.66715 0.37849 0.0
C54 C 0.01805 0.64696 0.31832 0.0
C55 C 0.01244 0.65356 0.23173 0.0
C56 C 0.01019 0.68122 0.20949 0.0
C57 C 0.0156 0.70151 0.27043 0.0
C58 C 0.0674 0.73638 0.36881 0.0
C59 C 0.07853 0.7596 0.40606 0.0
C60 C 0.09497 0.77687 0.35741 0.0
C61 C 0.10093 0.77097 0.27084 0.0
C62 C 0.09273 0.74585 0.23758 0.0
C63 C 0.07619 0.72856 0.28655 0.0
P64 P 0.79459 0.03705 0.38685 0.0
H65 H 0.77615 0.03805 0.56663 0.0
H66 H 0.73296 0.02688 0.63196 0.0
H67 H 0.70956 0.98508 0.39998 0.0
H68 H 0.75272 0.99778 0.33319 0.0
H69 H 0.85359 0.03749 0.40192 0.0
H70 H 0.88939 0.02348 0.30408 0.0
H71 H 0.83042 0.98351 0.14458 0.0
H72 H 0.79449 0.99729 0.24438 0.0
H73 H 0.74391 0.06659 0.39827 0.0
H74 H 0.80671 0.0555 0.20755 0.0
O75 O 0.80938 0.05806 0.45607 0.0
H76 H 0.71471 0.08571 0.2894 0.0
H77 H 0.77765 0.07548 0.09771 0.0
C78 C 0.76814 0.01855 0.44485 0.0
C79 C 0.76221 0.02569 0.53039 0.0
C80 C 0.73714 0.01927 0.56804 0.0
C81 C 0.71714 1.00529 0.52151 0.0
C82 C 0.72396 0.9964 0.43775 0.0
C83 C 0.74906 1.00309 0.39983 0.0
C84 C 0.82112 0.01848 0.33112 0.0
C85 C 0.84827 0.025 0.34753 0.0
C86 C 0.86885 0.01723 0.29055 0.0
C87 C 0.86288 1.00283 0.215 0.0
C88 C 0.8359 0.9945 0.20206 0.0
C89 C 0.81525 1.00223 0.25959 0.0
C90 C 0.77683 0.05796 0.31016 0.0
C91 C 0.75163 0.06865 0.33309 0.0
C92 C 0.73502 0.08007 0.27055 0.0
C93 C 0.74355 0.08159 0.18391 0.0
C94 C 0.77016 0.07385 0.16329 0.0
C95 C 0.78674 0.06222 0.22616 0.0
P96 P 0.46816 0.79043 0.37729 0.0
H97 H 0.48473 0.77548 0.55293 0.0
H98 H 0.50043 0.73268 0.6126 0.0
H99 H 0.51292 0.70274 0.35427 0.0
H100 H 0.49856 0.74612 0.29556 0.0
H101 H 0.44546 0.84194 0.33078 0.0
H102 H 0.4564 0.87635 0.22404 0.0
H103 H 0.52677 0.83078 0.14647 0.0
H104 H 0.51507 0.79562 0.25425 0.0
H105 H 0.41868 0.76484 0.44198 0.0
H106 H 0.46209 0.77141 0.20101 0.0
O107 O 0.45417 0.80637 0.46086 0.0
H108 H 0.39212 0.72745 0.38473 0.0
H109 H 0.43715 0.73331 0.14516 0.0
C110 C 0.49043 0.76432 0.41931 0.0
C111 C 0.49186 0.76014 0.50891 0.0
C112 C 0.50036 0.73525 0.54321 0.0
C113 C 0.50736 0.71365 0.48878 0.0
C114 C 0.50787 0.71867 0.39899 0.0
C115 C 0.49969 0.74373 0.36487 0.0
C116 C 0.47978 0.81646 0.30244 0.0
C117 C 0.46357 0.83945 0.2921 0.0
C118 C 0.46993 0.85929 0.23068 0.0
C119 C 0.49277 0.85679 0.17687 0.0
C120 C 0.50902 0.83349 0.18661 0.0
C121 C 0.50253 0.81345 0.24879 0.0
C122 C 0.44224 0.771 0.32555 0.0
C123 C 0.42183 0.75888 0.37563 0.0
C124 C 0.40692 0.7372 0.34313 0.0
C125 C 0.41276 0.72682 0.26081 0.0
C126 C 0.43165 0.74072 0.20834 0.0
C127 C 0.44614 0.76265 0.24039 0.0
P128 P 0.2961 0.46231 0.08414 0.0
H129 H 0.27399 0.46261 0.90818 0.0
H130 H 0.22972 0.47679 0.85678 0.0
H131 H 0.21775 0.52236 0.09006 0.0
H132 H 0.26196 0.50768 0.14189 0.0
H133 H 0.34666 0.43582 0.12196 0.0
H134 H 0.38404 0.44642 0.21594 0.0
H135 H 0.35131 0.52639 0.25546 0.0
H136 H 0.31297 0.51498 0.1621 0.0
H137 H 0.24826 0.42849 0.07947 0.0
H138 H 0.297 0.46649 0.27477 0.0
O139 O 0.30452 0.43733 0.01738 0.0
H140 H 0.20935 0.42962 0.17666 0.0
H141 H 0.25835 0.46703 0.37167 0.0
C142 C 0.27179 0.48411 0.02915 0.0
C143 C 0.26251 0.47667 0.94693 0.0
C144 C 0.23687 0.48468 0.91752 0.0
C145 C 0.21967 0.50025 0.96985 0.0
C146 C 0.23011 0.5099 0.04848 0.0
C147 C 0.25581 0.50198 0.07761 0.0
C148 C 0.32713 0.47474 0.13286 0.0
C149 C 0.34784 0.456 0.14836 0.0
C150 C 0.36942 0.46215 0.20284 0.0
C151 C 0.37106 0.48734 0.24427 0.0
C152 C 0.35075 0.50663 0.22594 0.0
C153 C 0.32895 0.50033 0.1712 0.0
C154 C 0.27536 0.44808 0.16865 0.0
C155 C 0.25115 0.43541 0.14491 0.0
C156 C 0.22889 0.43604 0.20041 0.0
C157 C 0.23099 0.44873 0.2807 0.0
C158 C 0.25639 0.45709 0.30996 0.0
C159 C 0.27852 0.45693 0.25387 0.0
P160 P 0.03403 0.27966 0.19012 0.0
H161 H 0.07387 0.24566 0.10161 0.0
H162 H 0.06906 0.20756 0.00562 0.0
H163 H 0.98504 0.22745 0.968 0.0
H164 H 0.99029 0.26668 0.06194 0.0
H165 H 0.07469 0.32265 0.20728 0.0
H166 H 0.07146 0.36684 0.27406 0.0
H167 H 0.98444 0.36273 0.25836 0.0
H168 H 0.98786 0.31921 0.18749 0.0
H169 H 0.04007 0.25184 0.35644 0.0
H170 H 0.97417 0.27663 0.19255 0.0
O171 O 0.0644 0.27292 0.23175 0.0
H172 H 0.00835 0.2289 0.45118 0.0
H173 H 0.94218 0.25526 0.29024 0.0
C174 C 0.03225 0.25907 0.09235 0.0
C175 C 0.05443 0.2425 0.07165 0.0
C176 C 0.05158 0.2202 0.01707 0.0
C177 C 0.02639 0.21352 0.9811 0.0
C178 C 1.00473 0.23155 0.99519 0.0
C179 C 1.00768 0.25411 0.0498 0.0
C180 C 0.03148 0.31653 0.19517 0.0
C181 C 0.05483 0.33145 0.21541 0.0
C182 C 0.05296 0.35678 0.2552 0.0
C183 C 0.02763 0.36804 0.27581 0.0
C184 C 1.00437 0.35468 0.24539 0.0
C185 C 1.00631 0.32937 0.20489 0.0
C186 C 0.00978 0.26581 0.26604 0.0
C187 C 0.01877 0.25296 0.34141 0.0
C188 C 1.00042 0.24014 0.39678 0.0
C189 C 0.97257 0.24014 0.37846 0.0
C190 C 0.96349 0.2545 0.30576 0.0
C191 C 0.98193 0.2669 0.24965 0.0
P192 P 0.22098 0.05157 0.05814 0.0
H193 H 0.24259 0.04288 0.88383 0.0
H194 H 0.28758 0.0303 0.83663 0.0
H195 H 0.305 1.00041 0.09297 0.0
H196 H 0.26036 0.01482 0.14085 0.0
H197 H 0.16521 0.06877 0.07575 0.0
H198 H 0.12957 0.05858 0.17887 0.0
H199 H 0.17906 0.99585 0.29164 0.0
H200 H 0.21526 1.0069 0.18846 0.0
H201 H 0.26899 0.08336 0.02096 0.0
H202 H 0.21513 0.07209 0.23773 0.0
O203 O 0.20799 0.06899 0.97565 0.0
H204 H 0.30499 0.09517 0.11618 0.0
H205 H 0.25021 0.0874 0.33436 0.0
C206 C 0.24749 0.02955 0.01608 0.0
C207 C 0.25558 0.03264 0.92945 0.0
C208 C 0.28173 0.02548 0.9023 0.0
C209 C 0.30066 0.01476 0.9609 0.0
C210 C 0.29155 0.0093 0.04587 0.0
C211 C 0.26546 0.0168 0.07315 0.0
C212 C 0.19289 0.03822 0.12225 0.0
C213 C 0.16826 0.05227 0.12091 0.0
C214 C 0.1477 0.0464 0.18063 0.0
C215 C 0.15109 0.02628 0.24439 0.0
C216 C 0.17564 0.0117 0.24444 0.0
C217 C 0.19634 0.01771 0.18437 0.0
C218 C 0.24004 0.0749 0.12256 0.0
C219 C 0.26455 0.08469 0.08928 0.0
C220 C 0.28534 0.09176 0.14499 0.0
C221 C 0.28149 0.09021 0.2352 0.0
C222 C 0.25483 0.08656 0.26619 0.0
C223 C 0.23441 0.07814 0.21048 0.0
P224 P 0.4642 0.23095 0.11254 0.0
H225 H 0.44665 0.25345 0.94541 0.0
H226 H 0.46055 0.29577 0.87582 0.0
H227 H 0.5328 0.29678 0.02977 0.0
H228 H 0.5192 0.25403 0.09797 0.0
H229 H 0.43088 0.18547 0.16738 0.0
H230 H 0.44063 0.14449 0.24801 0.0
H231 H 0.52619 0.15975 0.21812 0.0
H232 H 0.51609 0.20072 0.13342 0.0
H233 H 0.44716 0.28561 0.14695 0.0
H234 H 0.49461 0.2247 0.27723 0.0
O235 O 0.4312 0.23164 0.09054 0.0
H236 H 0.47209 0.32078 0.22243 0.0
H237 H 0.51934 0.25988 0.35234 0.0
C238 C 0.48167 0.25028 0.02804 0.0
C239 C 0.46625 0.26181 0.96117 0.0
C240 C 0.4741 0.28633 0.92161 0.0
C241 C 0.49747 0.30006 0.94861 0.0
C242 C 0.51447 0.28694 0.00825 0.0
C243 C 0.50689 0.26211 0.04637 0.0
C244 C 0.4727 0.19636 0.14342 0.0
C245 C 0.45181 0.17967 0.17506 0.0
C246 C 0.45744 0.15629 0.22293 0.0
C247 C 0.48422 0.14903 0.24223 0.0
C248 C 0.50529 0.16461 0.20486 0.0
C249 C 0.49956 0.18803 0.15568 0.0
C250 C 0.46956 0.25252 0.20382 0.0
C251 C 0.46181 0.27965 0.19514 0.0
C252 C 0.47624 0.29976 0.23746 0.0
C253 C 0.49793 0.29277 0.2909 0.0
C254 C 0.50282 0.26555 0.31037 0.0
C255 C 0.48864 0.24543 0.26689 0.0
Tb256 Tb 0.02995 0.99599 0.81044 0.0
Tb257 Tb 0.99531 0.01777 0.67924 0.0
C258 C 0.05469 0.98077 0.94329 0.0
C259 C 0.06876 0.95546 0.96298 0.0
C260 C 0.07521 0.94884 0.04827 0.0
C261 C 0.08568 0.92333 0.06813 0.0
C262 C 0.08978 0.9041 1.00279 0.0
C263 C 0.0845 0.91141 0.91679 0.0
C264 C 0.07397 0.93685 0.89712 0.0
C265 C 0.05458 0.99999 0.65784 0.0
C266 C 1.00673 0.95429 0.68516 0.0
C267 C 0.96774 0.02973 0.54895 0.0
C268 C 0.94879 0.05157 0.52912 0.0
C269 C 0.94623 0.0605 0.44386 0.0
C270 C 0.93264 0.08454 0.4258 0.0
C271 C 0.92148 0.10003 0.49306 0.0
C272 C 0.92177 0.08948 0.57748 0.0
C273 C 0.93552 0.06551 0.5955 0.0
C274 C 0.97176 0.01463 0.83238 0.0
C275 C 0.02045 0.06019 0.80107 0.0
O276 O 0.02853 0.97846 0.93398 0.0
O277 O 0.06567 0.99566 0.88259 0.0
O278 O 0.03843 0.01711 0.68983 0.0
O279 O 0.05815 0.9809 0.71394 0.0
O280 O 0.01476 0.95721 0.76539 0.0
O281 O 1.00203 0.97583 0.6365 0.0
O282 O 0.99291 0.03731 0.55906 0.0
O283 O 0.95985 0.01247 0.60821 0.0
O284 O 0.9869 0.99686 0.79949 0.0
O285 O 0.9687 0.03422 0.77805 0.0
O286 O 0.0097 0.05719 0.72375 0.0
O287 O 0.02689 0.03873 0.84834 0.0
H288 H 0.07119 0.96298 0.09981 0.0
H289 H 0.08914 0.91818 0.13517 0.0
H290 H 0.08765 0.89714 0.86505 0.0
H291 H 0.06904 0.94162 0.83081 0.0
H292 H 0.95626 0.04988 0.39192 0.0
H293 H 0.93311 0.0921 0.36009 0.0
H294 H 0.91306 0.10073 0.63042 0.0
H295 H 0.93707 0.05875 0.66183 0.0
Tb296 Tb 0.51124 0.0149 0.77622 0.0
Tb297 Tb 0.49685 0.98364 0.62647 0.0
C298 C 0.53078 0.03363 0.91277 0.0
C299 C 0.55458 0.04994 0.93336 0.0
C300 C 0.57337 0.0571 0.86899 0.0
C301 C 0.59676 0.0714 0.89031 0.0
C302 C 0.60157 0.07885 0.97621 0.0
C303 C 0.58206 0.07255 0.0397 0.0
C304 C 0.55876 0.05816 0.01836 0.0
C305 C 0.49546 0.04524 0.64358 0.0
C306 C 0.55799 0.99796 0.64257 0.0
C307 C 0.47486 0.97017 0.48822 0.0
C308 C 0.45633 0.98684 0.43621 0.0
C309 C 0.46389 0.01317 0.41037 0.0
C310 C 0.44462 0.03137 0.38004 0.0
C311 C 0.41744 0.02351 0.3742 0.0
C312 C 0.41029 0.99653 0.39364 0.0
C313 C 0.42956 0.97839 0.42477 0.0
C314 C 0.51145 0.95293 0.75998 0.0
C315 C 0.4509 1.00309 0.7539 0.0
O316 O 0.53562 0.00917 0.88499 0.0
O317 O 0.51239 0.04596 0.86716 0.0
O318 O 0.51015 0.02451 0.6401 0.0
O319 O 0.4904 0.05038 0.72354 0.0
O320 O 0.55192 1.00711 0.72049 0.0
O321 O 0.53887 0.98947 0.59041 0.0
O322 O 0.49974 0.97888 0.49257 0.0
O323 O 0.46556 0.96277 0.56385 0.0
O324 O 0.49753 0.9742 0.76228 0.0
O325 O 0.51566 0.94709 0.67977 0.0
O326 O 0.45798 1.00059 0.67183 0.0
O327 O 0.46995 1.00413 0.81303 0.0
H328 H 0.5702 0.05121 0.80269 0.0
H329 H 0.61137 0.07611 0.84005 0.0
H330 H 0.58538 0.07762 0.10667 0.0
H331 H 0.54432 0.05289 0.06859 0.0
H332 H 0.48446 0.02023 0.41768 0.0
H333 H 0.45081 0.05193 0.36531 0.0
H334 H 0.3896 0.98962 0.38727 0.0
H335 H 0.42326 0.95821 0.44401 0.0
Tb336 Tb 0.48973 0.51402 0.81031 0.0
Tb337 Tb 0.52576 0.50456 0.66719 0.0
C338 C 0.46438 0.51805 0.95049 0.0
C339 C 0.44639 0.5389 0.98606 0.0
C340 C 0.45153 0.54901 0.06845 0.0
C341 C 0.43772 0.5717 0.09827 0.0
C342 C 0.41824 0.58462 0.04644 0.0
C343 C 0.41188 0.57328 0.96607 0.0
C344 C 0.42597 0.55076 0.93583 0.0
C345 C 0.46459 0.51567 0.6598 0.0
C346 C 0.50783 0.56509 0.70681 0.0
C347 C 0.55204 0.49956 0.52962 0.0
C348 C 0.56573 0.47544 0.49682 0.0
C349 C 0.55954 0.46654 0.41385 0.0
C350 C 0.56319 0.43946 0.39262 0.0
C351 C 0.57321 0.42098 0.45423 0.0
C352 C 0.58307 0.43091 0.53263 0.0
C353 C 0.57918 0.45795 0.55412 0.0
C354 C 0.55037 0.50373 0.81882 0.0
C355 C 0.50672 0.45338 0.76596 0.0
O356 O 0.48959 0.52549 0.94021 0.0
O357 O 0.45538 0.50446 0.88449 0.0
O358 O 0.48293 0.49903 0.68098 0.0
O359 O 0.45932 0.53085 0.7252 0.0
O360 O 0.49811 0.55658 0.78188 0.0
O361 O 0.51723 0.54775 0.64971 0.0
O362 O 0.52573 0.49715 0.53439 0.0
O363 O 0.56216 0.51028 0.59913 0.0
O364 O 0.53219 0.52011 0.79538 0.0
O365 O 0.55563 0.48769 0.75554 0.0
O366 O 0.51473 0.46231 0.68951 0.0
O367 O 0.49965 0.4707 0.8267 0.0
H368 H 0.46726 0.5402 0.10805 0.0
H369 H 0.44359 0.57999 0.15983 0.0
H370 H 0.39672 0.58239 0.92506 0.0
H371 H 0.42158 0.54334 0.87185 0.0
H372 H 0.54915 0.47973 0.36888 0.0
H373 H 0.55529 0.43263 0.33154 0.0
H374 H 0.59148 0.41731 0.5805 0.0
H375 H 0.58437 0.46439 0.61856 0.0
Tb376 Tb 0.0079 0.49471 0.816 0.0
Tb377 Tb 0.01653 0.53286 0.67646 0.0
C378 C 0.99348 0.46891 0.94929 0.0
C379 C 0.96894 0.46199 0.99912 0.0
C380 C 0.95215 0.48214 0.03338 0.0
C381 C 0.93019 0.47507 0.08584 0.0
C382 C 0.92451 0.44777 0.10449 0.0
C383 C 0.94095 0.42761 0.06873 0.0
C384 C 0.9631 0.4347 0.01692 0.0
C385 C 0.02644 0.47187 0.67312 0.0
C386 C 0.95752 0.5131 0.69972 0.0
C387 C 0.03347 0.5584 0.54635 0.0
C388 C 0.05949 0.5573 0.50064 0.0
C389 C 0.05978 0.5516 0.41221 0.0
C390 C 0.08366 0.54329 0.37224 0.0
C391 C 0.10747 0.54059 0.42047 0.0
C392 C 0.10768 0.54875 0.5069 0.0
C393 C 0.08385 0.55705 0.54681 0.0
C394 C 0.99889 0.55561 0.82092 0.0
C395 C 0.06712 0.51289 0.78745 0.0
O396 O 1.00131 0.49421 0.94937 0.0
O397 O 0.99593 0.4579 0.87335 0.0
O398 O 0.00879 0.49025 0.67738 0.0
O399 O 0.03367 0.46545 0.75064 0.0
O400 O 0.9658 0.50324 0.77502 0.0
O401 O 0.97492 0.52389 0.64475 0.0
O402 O 0.01929 0.53611 0.54202 0.0
O403 O 0.03376 0.56826 0.62437 0.0
O404 O 0.01628 0.5371 0.81451 0.0
O405 O 0.99128 0.56229 0.74398 0.0
O406 O 0.05843 0.52126 0.71102 0.0
O407 O 0.04969 0.50437 0.84629 0.0
H408 H 0.9561 0.50337 0.02062 0.0
H409 H 0.91755 0.49098 0.11164 0.0
H410 H 0.93702 0.40643 0.08243 0.0
H411 H 0.97592 0.41885 0.99167 0.0
H412 H 0.04118 0.55169 0.37558 0.0
H413 H 0.08301 0.53714 0.30537 0.0
H414 H 0.12599 0.54739 0.54473 0.0
H415 H 0.08426 0.56158 0.61501 0.0
H416 H 0.15729 0.01319 0.41599 0.0
H417 H 0.09571 0.02891 0.22605 0.0
H418 H 0.06075 0.02459 0.33683 0.0
H419 H 0.04712 0.01569 0.48924 0.0
H420 H 0.10873 0.99651 0.67507 0.0
H421 H 0.14382 1.00269 0.56522 0.0
C422 C 0.13625 0.0153 0.39812 0.0
C423 C 0.1295 0.02162 0.31197 0.0
C424 C 0.11601 0.01234 0.4622 0.0
C425 C 0.10188 0.02461 0.29159 0.0
C426 C 0.08171 0.022 0.35511 0.0
C427 C 0.06826 0.0132 0.50554 0.0
C428 C 0.07532 1.00599 0.59051 0.0
C429 C 0.08847 0.01601 0.44092 0.0
C430 C 0.10277 1.00222 0.61032 0.0
C431 C 0.12288 1.00566 0.54738 0.0
H432 H 0.45633 0.13751 0.39036 0.0
H433 H 0.52474 0.11051 0.24069 0.0
H434 H 0.53389 0.07534 0.34896 0.0
H435 H 0.52291 0.05273 0.48956 0.0
H436 H 0.45454 0.08097 0.63682 0.0
H437 H 0.44464 0.1146 0.52553 0.0
C438 C 0.47302 0.12371 0.38021 0.0
C439 C 0.48968 0.12677 0.30652 0.0
C440 C 0.4782 0.10361 0.44278 0.0
C441 C 0.51163 0.10894 0.29667 0.0
C442 C 0.51682 0.08869 0.35857 0.0
C443 C 0.50576 0.06616 0.49671 0.0
C444 C 0.48943 0.06431 0.57151 0.0
C445 C 0.50034 0.0859 0.43239 0.0
C446 C 0.46743 0.08199 0.58016 0.0
C447 C 0.46176 0.10126 0.51646 0.0
H448 H 0.36771 0.51643 0.39446 0.0
H449 H 0.42395 0.46936 0.24421 0.0
H450 H 0.45742 0.47283 0.35861 0.0
H451 H 0.47065 0.48823 0.50531 0.0
H452 H 0.41497 0.53804 0.6483 0.0
H453 H 0.38197 0.53467 0.53335 0.0
C454 C 0.38742 0.50733 0.38543 0.0
C455 C 0.39281 0.49233 0.31026 0.0
C456 C 0.40691 0.50972 0.45122 0.0
C457 C 0.41864 0.4805 0.30166 0.0
C458 C 0.43801 0.48258 0.3672 0.0
C459 C 0.45134 0.49837 0.51104 0.0
C460 C 0.44538 0.51317 0.58617 0.0
C461 C 0.43229 0.49683 0.44309 0.0
C462 C 0.42025 0.52639 0.59178 0.0
C463 C 0.40122 0.52451 0.52579 0.0
H464 H 0.05908 0.37927 0.41546 0.0
H465 H 0.99089 0.41031 0.27377 0.0
H466 H 0.98521 0.44619 0.38035 0.0
H467 H 0.99828 0.46753 0.51978 0.0
H468 H 0.06652 0.43539 0.65854 0.0
H469 H 0.07383 0.40189 0.54643 0.0
C470 C 0.0433 0.39417 0.40624 0.0
C471 C 0.0255 0.39181 0.3358 0.0
C472 C 0.04009 0.41473 0.46795 0.0
C473 C 1.00479 0.41119 0.32738 0.0
C474 C 1.00157 0.43187 0.38839 0.0
C475 C 0.01493 0.4534 0.5247 0.0
C476 C 0.03175 0.45393 0.59803 0.0
C477 C 0.01887 0.43366 0.45986 0.0
C478 C 0.05317 0.43538 0.60337 0.0
C479 C 0.05736 0.41613 0.53919 0.0
H480 H 0.90159 0.03865 0.16165 0.0
H481 H 0.87201 0.95808 0.11319 0.0
H482 H 0.90515 0.95306 0.99631 0.0
H483 H 0.94105 0.97295 0.90091 0.0
H484 H 0.96793 0.05451 0.94747 0.0
H485 H 0.93814 0.05742 0.07304 0.0
C486 C 0.90266 0.01972 0.1269 0.0
C487 C 0.88423 0.99875 0.14703 0.0
C488 C 0.92155 0.01711 0.05917 0.0
C489 C 0.88569 0.97469 0.09912 0.0
C490 C 0.90477 0.97175 0.03232 0.0
C491 C 0.94077 0.99104 0.94001 0.0
C492 C 0.95695 0.01339 0.91576 0.0
C493 C 0.92265 0.99297 0.01087 0.0
C494 C 0.95586 0.037 0.96542 0.0
C495 C 0.93868 0.03873 0.03694 0.0
H496 H 0.51185 0.85096 0.01052 0.0
H497 H 0.48719 0.91169 0.19322 0.0
H498 H 0.49127 0.9466 0.08226 0.0
H499 H 0.49939 0.95996 0.93057 0.0
H500 H 0.52586 0.89982 0.74903 0.0
H501 H 0.52394 0.86504 0.86185 0.0
C502 C 0.50781 0.87186 0.02665 0.0
C503 C 0.49871 0.87836 0.11041 0.0
C504 C 0.5104 0.89213 0.96222 0.0
C505 C 0.49353 0.90574 0.12916 0.0
C506 C 0.49599 0.92588 0.06566 0.0
C507 C 0.50495 0.93928 0.91594 0.0
C508 C 0.51251 0.93252 0.83111 0.0
C509 C 0.50392 0.91929 0.98148 0.0
C510 C 0.51985 0.90563 0.81354 0.0
C511 C 0.51871 0.88566 0.87814 0.0
H512 H 0.61483 0.52478 0.16631 0.0
H513 H 0.67505 0.47901 0.02851 0.0
H514 H 0.64479 0.47509 0.90533 0.0
H515 H 0.60084 0.48345 0.83758 0.0
H516 H 0.54145 0.53203 0.96843 0.0
H517 H 0.57147 0.53593 0.09322 0.0
C518 C 0.62133 0.51411 0.10903 0.0
C519 C 0.64728 0.50225 0.10678 0.0
C520 C 0.60385 0.51224 0.03736 0.0
C521 C 0.65541 0.4886 0.03179 0.0
C522 C 0.63801 0.48619 0.96142 0.0
C523 C 0.59442 0.49492 0.89337 0.0
C524 C 0.56868 0.50708 0.89407 0.0
C525 C 0.61213 0.49773 0.96365 0.0
C526 C 0.56095 0.52221 0.96645 0.0
C527 C 0.5782 0.52449 0.03779 0.0
H528 H 0.97976 0.65024 0.08816 0.0
H529 H 0.04308 0.60751 0.22235 0.0
H530 H 0.04308 0.57266 0.11243 0.0
H531 H 0.02695 0.55505 0.97308 0.0
H532 H 0.96481 0.59837 0.83617 0.0
H533 H 0.96265 0.6319 0.95107 0.0
C534 C 0.99362 0.63337 0.09345 0.0
C535 C 0.01127 0.63173 0.16458 0.0
C536 C 0.99384 0.61332 0.02881 0.0
C537 C 0.02883 0.60934 0.1699 0.0
C538 C 0.02905 0.58936 0.10636 0.0
C539 C 0.01275 0.57168 0.96887 0.0
C540 C 0.99614 0.57419 0.89575 0.0
C541 C 0.01183 0.5912 0.03503 0.0
C542 C 0.9779 0.59594 0.89145 0.0
C543 C 0.9767 0.61522 0.95718 0.0
H544 H 0.93167 0.2098 0.31335 0.0
H545 H 0.97212 0.22834 0.55202 0.0
H546 H 0.95311 0.18758 0.61824 0.0
H547 H 0.93527 0.14219 0.59457 0.0
H548 H 0.89557 0.12333 0.35505 0.0
H549 H 0.90316 0.16957 0.30398 0.0
C550 C 0.93546 0.20571 0.38098 0.0
C551 C 0.95416 0.22159 0.42663 0.0
C552 C 0.92486 0.18203 0.4181 0.0
C553 C 0.9586 0.21588 0.51441 0.0
C554 C 0.94769 0.19261 0.55241 0.0
C555 C 0.92709 0.1484 0.5328 0.0
C556 C 0.91572 0.12907 0.47734 0.0
C557 C 0.93231 0.17469 0.50289 0.0
C558 C 0.90514 0.13766 0.3978 0.0
C559 C 0.90959 0.16405 0.36845 0.0
H560 H 0.33508 0.10562 0.2119 0.0
H561 H 0.28249 0.06317 0.39222 0.0
H562 H 0.32105 0.04246 0.45858 0.0
H563 H 0.36807 0.02856 0.44774 0.0
H564 H 0.41976 0.06412 0.2523 0.0
H565 H 0.38317 0.0942 0.20799 0.0
C566 C 0.33175 0.09168 0.26509 0.0
C567 C 0.30523 0.08535 0.29303 0.0
C568 C 0.35398 0.07769 0.29905 0.0
C569 C 0.30215 0.06873 0.367 0.0
C570 C 0.32436 0.05625 0.40484 0.0
C571 C 0.37133 0.04279 0.39508 0.0
C572 C 0.39632 0.04352 0.35174 0.0
C573 C 0.35003 0.05926 0.36792 0.0
C574 C 0.4006 0.06292 0.28624 0.0
C575 C 0.37966 0.08011 0.26076 0.0
H576 H 0.51183 0.3109 0.44949 0.0
H577 H 0.52955 0.31978 0.17855 0.0
H578 H 0.56035 0.35726 0.20792 0.0
H579 H 0.57711 0.39109 0.3082 0.0
H580 H 0.55514 0.38538 0.57765 0.0
H581 H 0.53271 0.34239 0.55266 0.0
C582 C 0.52278 0.32095 0.39754 0.0
C583 C 0.51816 0.31337 0.31208 0.0
C584 C 0.53997 0.34284 0.41486 0.0
C585 C 0.53249 0.32603 0.24463 0.0
C586 C 0.55018 0.34724 0.26144 0.0
C587 C 0.56778 0.38022 0.36166 0.0
C588 C 0.56745 0.39174 0.44406 0.0
C589 C 0.55333 0.35641 0.34598 0.0
C590 C 0.55592 0.37703 0.51333 0.0
C591 C 0.5426 0.35258 0.49895 0.0
H592 H 0.20178 0.4874 0.20856 0.0
H593 H 0.20816 0.43922 0.43979 0.0
H594 H 0.17035 0.46427 0.50482 0.0
H595 H 0.13597 0.5001 0.49443 0.0
H596 H 0.13119 0.54918 0.26366 0.0
H597 H 0.16843 0.52386 0.19957 0.0
C598 C 0.1944 0.48211 0.27247 0.0
C599 C 0.20687 0.46116 0.31881 0.0
C600 C 0.1734 0.49694 0.30935 0.0
C601 C 0.19824 0.45496 0.40284 0.0
C602 C 0.17687 0.46936 0.43984 0.0
C603 C 0.1433 0.50536 0.43037 0.0
C604 C 0.13104 0.5265 0.38365 0.0
C605 C 0.16444 0.49049 0.39371 0.0
C606 C 0.14031 0.53289 0.30034 0.0
C607 C 0.16146 0.51834 0.26364 0.0
H608 H 0.08243 0.78282 0.11144 0.0
H609 H 0.14 0.80942 0.30118 0.0
H610 H 0.14466 0.85281 0.22578 0.0
H611 H 0.12612 0.88554 0.1211 0.0
H612 H 0.06684 0.85867 0.93694 0.0
H613 H 0.06987 0.81277 0.99326 0.0
C614 C 0.09684 0.79761 0.13468 0.0
C615 C 0.11047 0.79305 0.21275 0.0
C616 C 0.09884 0.82268 0.09247 0.0
C617 C 0.12887 0.81265 0.24206 0.0
C618 C 0.13146 0.83749 0.19916 0.0
C619 C 0.11421 0.86951 0.09256 0.0
C620 C 0.09601 0.87563 0.02583 0.0
C621 C 0.11547 0.84319 0.12689 0.0
C622 C 0.08109 0.85458 0.98814 0.0
C623 C 0.08263 0.8283 0.02081 0.0
H624 H 0.70171 0.11763 0.18496 0.0
H625 H 0.73926 0.05609 0.02885 0.0
H626 H 0.69944 0.05412 0.93815 0.0
H627 H 0.65096 0.0621 0.92403 0.0
H628 H 0.61162 0.12023 0.08816 0.0
H629 H 0.65487 0.13091 0.15573 0.0
C630 C 0.70134 0.10409 0.13026 0.0
C631 C 0.72325 0.0866 0.11533 0.0
C632 C 0.67774 0.10191 0.08106 0.0
C633 C 0.72279 0.06984 0.04234 0.0
C634 C 0.69981 0.06838 0.9909 0.0
C635 C 0.65197 0.07777 0.97254 0.0
C636 C 0.6281 0.09004 1.00214 0.0
C637 C 0.67668 0.08318 0.01271 0.0
C638 C 0.6297 0.11015 0.06554 0.0
C639 C 0.6544 0.11626 0.1041 0.0
H640 H 0.40032 0.70863 0.09926 0.0
H641 H 0.40444 0.68257 0.36551 0.0
H642 H 0.40045 0.63575 0.32169 0.0
H643 H 0.40464 0.602 0.20784 0.0
H644 H 0.40797 0.62825 0.94165 0.0
H645 H 0.39992 0.67466 0.98527 0.0
C646 C 0.40014 0.69276 0.1479 0.0
C647 C 0.40326 0.69936 0.23546 0.0
C648 C 0.39954 0.66562 0.1221 0.0
C649 C 0.40195 0.67843 0.29757 0.0
C650 C 0.40005 0.65144 0.27253 0.0
C651 C 0.40342 0.61782 0.15922 0.0
C652 C 0.40747 0.61153 0.07173 0.0
C653 C 0.40026 0.64479 0.1849 0.0
C654 C 0.40487 0.63226 0.00952 0.0
C655 C 0.40056 0.65898 0.03445 0.0
H656 H 0.82666 0.4417 0.36208 0.0
H657 H 0.79736 0.38563 0.17223 0.0
H658 H 0.84098 0.38791 0.09644 0.0
H659 H 0.88507 0.41063 0.07478 0.0
H660 H 0.91227 0.46903 0.2608 0.0
H661 H 0.87174 0.46107 0.34802 0.0
C662 C 0.83012 0.42919 0.30588 0.0
C663 C 0.80898 0.41326 0.27321 0.0
C664 C 0.85465 0.43152 0.26114 0.0
C665 C 0.81346 0.39786 0.19875 0.0
C666 C 0.83828 0.39935 0.15519 0.0
C667 C 0.88229 0.42117 0.13526 0.0
C668 C 0.90139 0.44058 0.1611 0.0
C669 C 0.85867 0.41685 0.18421 0.0
C670 C 0.89757 0.45432 0.23915 0.0
C671 C 0.8745 0.44968 0.28913 0.0
H672 H 0.04829 0.16427 0.02056 0.0
H673 H 0.99559 0.20272 0.83634 0.0
H674 H 0.98942 0.1594 0.76279 0.0
H675 H 0.99889 0.10983 0.75129 0.0
H676 H 0.05159 0.0727 0.93883 0.0
H677 H 0.05808 0.11605 0.0086 0.0
C678 C 0.03574 0.16344 0.96354 0.0
C679 C 0.02267 0.18712 0.93413 0.0
C680 C 0.03225 0.13843 0.92157 0.0
C681 C 1.00588 0.18503 0.86127 0.0
C682 C 1.00242 0.16017 0.81875 0.0
C683 C 0.01194 0.11128 0.807 0.0
C684 C 0.02472 0.0877 0.83922 0.0
C685 C 0.01549 0.13662 0.8483 0.0
C686 C 0.04135 0.09019 0.91222 0.0
C687 C 0.04513 0.11511 0.95251 0.0
H688 H 0.32304 1.00228 0.80149 0.0
H689 H 0.34561 0.02125 0.0631 0.0
H690 H 0.39312 0.01852 0.02354 0.0
H691 H 0.42893 0.01223 0.91414 0.0
H692 H 0.4066 0.99613 0.65081 0.0
H693 H 0.35881 0.997 0.69136 0.0
C694 C 0.3382 1.00604 0.85012 0.0
C695 C 0.33012 0.0117 0.93589 0.0
C696 C 0.36588 1.00523 0.8264 0.0
C697 C 0.35063 0.01609 0.99723 0.0
C698 C 0.37806 0.01488 0.9744 0.0
C699 C 0.41365 0.0089 0.86546 0.0
C700 C 0.42163 1.00411 0.77931 0.0
C701 C 0.38599 0.00962 0.88913 0.0
C702 C 0.40131 0.99993 0.71751 0.0
C703 C 0.37384 1.00037 0.74075 0.0
H704 H 0.49851 0.3246 0.78755 0.0
H705 H 0.50508 0.34171 0.05881 0.0
H706 H 0.50846 0.39005 0.02729 0.0
H707 H 0.50804 0.42801 0.92335 0.0
H708 H 0.50436 0.41143 0.65106 0.0
H709 H 0.50144 0.36283 0.6819 0.0
C710 C 0.50091 0.33894 0.83955 0.0
C711 C 0.50174 0.32935 0.92561 0.0
C712 C 0.50318 0.36699 0.82074 0.0
C713 C 0.50487 0.34832 0.99208 0.0
C714 C 0.50657 0.37608 0.97409 0.0
C715 C 0.5066 0.4138 0.87062 0.0
C716 C 0.50606 0.42359 0.78491 0.0
C717 C 0.50552 0.38573 0.8888 0.0
C718 C 0.50467 0.40466 0.71765 0.0
C719 C 0.50298 0.37676 0.7353 0.0
H720 H 0.19593 0.51084 0.81121 0.0
H721 H 0.17645 0.49565 0.07855 0.0
H722 H 0.12845 0.4992 0.04733 0.0
H723 H 0.09143 0.50513 0.94383 0.0
H724 H 0.10998 0.51867 0.67502 0.0
H725 H 0.15838 0.51698 0.70654 0.0
C726 C 0.1812 0.50837 0.86269 0.0
C727 C 0.19018 0.50362 0.948 0.0
C728 C 0.15321 0.50994 0.84373 0.0
C729 C 0.1705 0.50036 0.01324 0.0
C730 C 0.14286 0.502 0.99509 0.0
C731 C 0.106 0.50776 0.89193 0.0
C732 C 0.0968 0.51221 0.80696 0.0
C733 C 0.13392 0.50665 0.9106 0.0
C734 C 0.11625 0.51558 0.74106 0.0
C735 C 0.14405 0.51447 0.75911 0.0
H736 H 0.01412 0.84723 0.46384 0.0
H737 H 0.98921 0.81136 0.70666 0.0
H738 H 0.98835 0.85585 0.77243 0.0
H739 H 0.99571 0.90541 0.76326 0.0
H740 H 0.01602 0.94146 0.51724 0.0
H741 H 0.01703 0.89678 0.45104 0.0
C742 C 0.00791 0.84895 0.53066 0.0
C743 C 1.00225 0.82534 0.57978 0.0
C744 C 1.00666 0.87491 0.56819 0.0
C745 C 0.99457 0.82866 0.66691 0.0
C746 C 0.99384 0.8543 0.70489 0.0
C747 C 1.00025 0.90346 0.6951 0.0
C748 C 1.00591 0.92686 0.64556 0.0
C749 C 1.00018 0.87759 0.65659 0.0
C750 C 0.01147 0.92391 0.55704 0.0
C751 C 0.01213 0.89828 0.51903 0.0
H752 H 0.6686 1.005 0.43524 0.0
H753 H 0.70148 0.99796 0.69185 0.0
H754 H 0.6559 0.99651 0.75227 0.0
H755 H 0.606 0.99749 0.73309 0.0
H756 H 0.57395 1.00099 0.475 0.0
H757 H 0.61955 1.00309 0.41541 0.0
C758 C 0.66603 1.00258 0.50431 0.0
C759 C 0.68897 1.00182 0.55821 0.0
C760 C 0.6396 1.00116 0.53902 0.0
C761 C 0.68459 0.99921 0.64797 0.0
C762 C 0.65836 0.9982 0.68295 0.0
C763 C 0.60903 0.9987 0.66386 0.0
C764 C 0.58637 0.99908 0.60889 0.0
C765 C 0.63562 0.99936 0.62925 0.0
C766 C 0.59083 1.00047 0.51919 0.0
C767 C 0.61701 1.00173 0.48479 0.0
H768 H 0.48352 0.68882 0.62988 0.0
H769 H 0.54257 0.67486 0.42888 0.0
H770 H 0.54796 0.62836 0.4788 0.0
H771 H 0.53505 0.59095 0.57643 0.0
H772 H 0.4778 0.60527 0.78186 0.0
H773 H 0.47321 0.65237 0.73454 0.0
C774 C 0.49802 0.67591 0.59771 0.0
C775 C 0.51241 0.68571 0.52467 0.0
C776 C 0.5014 0.64907 0.62769 0.0
C777 C 0.5307 0.66809 0.48379 0.0
C778 C 0.53397 0.64139 0.51275 0.0
C779 C 0.52166 0.60438 0.61132 0.0
C780 C 0.5067 0.59438 0.68257 0.0
C781 C 0.51921 0.63154 0.58397 0.0
C782 C 0.48965 0.61228 0.72711 0.0
C783 C 0.48692 0.63926 0.69976 0.0
H784 H 0.83172 0.49428 0.63829 0.0
H785 H 0.85123 0.53655 0.40124 0.0
H786 H 0.89817 0.54065 0.44637 0.0
H787 H 0.93405 0.53208 0.5519 0.0
H788 H 0.91495 0.49053 0.7904 0.0
H789 H 0.86762 0.48683 0.74647 0.0
C790 C 0.84607 0.50476 0.59684 0.0
C791 C 0.83758 0.51502 0.51593 0.0
C792 C 0.87328 0.50724 0.62354 0.0
C793 C 0.85693 0.52806 0.46305 0.0
C794 C 0.88389 0.53057 0.4891 0.0
C795 C 0.9196 0.52226 0.59473 0.0
C796 C 0.92833 0.51159 0.67467 0.0
C797 C 0.89235 0.52015 0.56897 0.0
C798 C 0.90904 0.49898 0.72869 0.0
C799 C 0.88188 0.49682 0.70346 0.0
loop_
_geom_bond_atom_site_label_1
_geom_bond_atom_site_label_2
_geom_bond_distance
_geom_bond_site_symmetry_2
_ccdc_geom_bond_type
P0 O11 1.490 . S
P0 C14 1.812 . S
P0 C20 1.803 . S
P0 C26 1.819 . S
H1 C15 0.941 . S
H2 C16 0.939 . S
H3 C18 0.940 . S
H4 C19 0.940 . S
H5 C21 0.939 . S
H6 C22 0.942 . S
H7 C24 0.940 . S
H8 C25 0.939 . S
H9 C27 0.941 . S
H10 C31 0.939 . S
O11 P0 1.490 . S
H12 C28 0.939 . S
H13 C30 0.940 . S
C14 P0 1.812 . S
C14 C15 1.389 . S
C14 C19 1.391 . S
C15 H1 0.941 . S
C15 C14 1.389 . S
C15 C16 1.397 . S
C16 H2 0.939 . S
C16 C15 1.397 . S
C16 C17 1.378 . S
C17 C16 1.378 . S
C17 C18 1.378 . S
C18 H3 0.940 . S
C18 C17 1.378 . S
C18 C19 1.396 . S
C19 H4 0.940 . S
C19 C14 1.391 . S
C19 C18 1.396 . S
C20 P0 1.803 . S
C20 C21 1.378 . S
C20 C25 1.400 . S
C21 H5 0.939 . S
C21 C20 1.378 . S
C21 C22 1.361 . S
C22 H6 0.942 . S
C22 C21 1.361 . S
C22 C23 1.369 . S
C23 C22 1.369 . S
C23 C24 1.404 . S
C24 H7 0.940 . S
C24 C23 1.404 . S
C24 C25 1.389 . S
C25 H8 0.939 . S
C25 C20 1.400 . S
C25 C24 1.389 . S
C26 P0 1.819 . S
C26 C27 1.391 . S
C26 C31 1.391 . S
C27 H9 0.941 . S
C27 C26 1.391 . S
C27 C28 1.396 . S
C28 H12 0.939 . S
C28 C27 1.396 . S
C28 C29 1.397 . S
C29 C28 1.397 . S
C29 C30 1.385 . S
C30 H13 0.940 . S
C30 C29 1.385 . S
C30 C31 1.388 . S
C31 H10 0.939 . S
C31 C26 1.391 . S
C31 C30 1.388 . S
P32 O43 1.490 . S
P32 C46 1.812 . S
P32 C52 1.803 . S
P32 C58 1.819 . S
H33 C47 0.941 . S
H34 C48 0.939 . S
H35 C50 0.940 . S
H36 C51 0.950 . S
H37 C53 0.939 . S
H38 C54 0.942 . S
H39 C56 0.940 . S
H40 C57 0.959 . S
H41 C59 0.941 . S
H42 C63 0.929 1_655 S
O43 P32 1.490 . S
H44 C60 0.939 . S
H45 C62 0.940 . S
C46 P32 1.812 . S
C46 C47 1.389 . S
C46 C51 1.375 1_455 S
C47 H33 0.941 . S
C47 C46 1.389 . S
C47 C48 1.397 . S
C48 H34 0.939 . S
C48 C47 1.397 . S
C48 C49 1.378 . S
C49 C48 1.378 . S
C49 C50 1.378 1_455 S
C50 H35 0.940 . S
C50 C49 1.378 1_655 S
C50 C51 1.403 . S
C51 H36 0.950 . S
C51 C46 1.375 1_655 S
C51 C50 1.403 . S
C52 P32 1.803 . S
C52 C53 1.378 . S
C52 C57 1.368 1_455 S
C53 H37 0.939 . S
C53 C52 1.378 . S
C53 C54 1.361 . S
C54 H38 0.942 . S
C54 C53 1.361 . S
C54 C55 1.369 . S
C55 C54 1.369 . S
C55 C56 1.404 1_455 S
C56 H39 0.940 . S
C56 C55 1.404 1_655 S
C56 C57 1.402 . S
C57 H40 0.959 . S
C57 C52 1.368 1_655 S
C57 C56 1.402 . S
C58 P32 1.819 . S
C58 C59 1.391 . S
C58 C63 1.391 . S
C59 H41 0.941 . S
C59 C58 1.391 . S
C59 C60 1.396 . S
C60 H44 0.939 . S
C60 C59 1.396 . S
C60 C61 1.397 . S
C61 C60 1.397 . S
C61 C62 1.385 1_455 S
C62 H45 0.940 . S
C62 C61 1.385 1_655 S
C62 C63 1.388 1_655 S
C63 H42 0.929 1_455 S
C63 C58 1.391 . S
C63 C62 1.388 1_455 S
P64 O75 1.490 . S
P64 C78 1.812 . S
P64 C84 1.803 . S
P64 C90 1.819 . S
H65 C79 0.941 . S
H66 C80 0.939 . S
H67 C82 0.940 . S
H68 C83 0.950 . S
H69 C85 0.939 . S
H70 C86 0.942 . S
H71 C88 0.940 . S
H72 C89 0.959 . S
H73 C91 0.941 . S
H74 C95 0.929 1_565 S
O75 P64 1.490 . S
H76 C92 0.939 . S
H77 C94 0.940 . S
C78 P64 1.812 . S
C78 C79 1.389 . S
C78 C83 1.375 1_545 S
C79 H65 0.941 . S
C79 C78 1.389 . S
C79 C80 1.397 . S
C80 H66 0.939 . S
C80 C79 1.397 . S
C80 C81 1.378 . S
C81 C80 1.378 . S
C81 C82 1.378 1_545 S
C82 H67 0.940 . S
C82 C81 1.378 1_565 S
C82 C83 1.402 . S
C83 H68 0.950 . S
C83 C78 1.375 1_565 S
C83 C82 1.402 . S
C84 P64 1.803 . S
C84 C85 1.378 . S
C84 C89 1.368 1_545 S
C85 H69 0.939 . S
C85 C84 1.378 . S
C85 C86 1.361 . S
C86 H70 0.942 . S
C86 C85 1.361 . S
C86 C87 1.369 . S
C87 C86 1.369 . S
C87 C88 1.404 1_545 S
C88 H71 0.940 . S
C88 C87 1.404 1_565 S
C88 C89 1.402 . S
C89 H72 0.959 . S
C89 C84 1.368 1_565 S
C89 C88 1.402 . S
C90 P64 1.819 . S
C90 C91 1.391 . S
C90 C95 1.391 . S
C91 H73 0.941 . S
C91 C90 1.391 . S
C91 C92 1.396 . S
C92 H76 0.939 . S
C92 C91 1.396 . S
C92 C93 1.397 . S
C93 C92 1.397 . S
C93 C94 1.385 1_545 S
C94 H77 0.940 . S
C94 C93 1.385 1_565 S
C94 C95 1.388 1_565 S
C95 H74 0.929 1_545 S
C95 C90 1.391 . S
C95 C94 1.388 1_545 S
P96 O107 1.490 . S
P96 C110 1.812 . S
P96 C116 1.803 . S
P96 C122 1.819 . S
H97 C111 0.941 . S
H98 C112 0.939 . S
H99 C114 0.940 . S
H100 C115 0.940 . S
H101 C117 0.939 . S
H102 C118 0.942 . S
H103 C120 0.940 . S
H104 C121 0.939 . S
H105 C123 0.941 . S
H106 C127 0.939 . S
O107 P96 1.490 . S
H108 C124 0.939 . S
H109 C126 0.940 . S
C110 P96 1.812 . S
C110 C111 1.389 . S
C110 C115 1.391 . S
C111 H97 0.941 . S
C111 C110 1.389 . S
C111 C112 1.397 . S
C112 H98 0.939 . S
C112 C111 1.397 . S
C112 C113 1.378 . S
C113 C112 1.378 . S
C113 C114 1.378 . S
C114 H99 0.940 . S
C114 C113 1.378 . S
C114 C115 1.396 . S
C115 H100 0.940 . S
C115 C110 1.391 . S
C115 C114 1.396 . S
C116 P96 1.803 . S
C116 C117 1.378 . S
C116 C121 1.400 . S
C117 H101 0.939 . S
C117 C116 1.378 . S
C117 C118 1.361 . S
C118 H102 0.942 . S
C118 C117 1.361 . S
C118 C119 1.369 . S
C119 C118 1.369 . S
C119 C120 1.404 . S
C120 H103 0.940 . S
C120 C119 1.404 . S
C120 C121 1.389 . S
C121 H104 0.939 . S
C121 C116 1.400 . S
C121 C120 1.389 . S
C122 P96 1.819 . S
C122 C123 1.391 . S
C122 C127 1.391 . S
C123 H105 0.941 . S
C123 C122 1.391 . S
C123 C124 1.396 . S
C124 H108 0.939 . S
C124 C123 1.396 . S
C124 C125 1.397 . S
C125 C124 1.397 . S
C125 C126 1.385 . S
C126 H109 0.940 . S
C126 C125 1.385 . S
C126 C127 1.388 . S
C127 H106 0.939 . S
C127 C122 1.391 . S
C127 C126 1.388 . S
P128 O139 1.490 . S
P128 C142 1.812 1_554 S
P128 C148 1.803 . S
P128 C154 1.819 . S
H129 C143 0.941 . S
H130 C144 0.939 . S
H131 C146 0.940 . S
H132 C147 0.940 . S
H133 C149 0.939 . S
H134 C150 0.942 . S
H135 C152 0.940 . S
H136 C153 0.939 . S
H137 C155 0.941 . S
H138 C159 0.939 . S
O139 P128 1.490 . S
H140 C156 0.939 . S
H141 C158 0.940 . S
C142 P128 1.812 1_556 S
C142 C143 1.389 . S
C142 C147 1.391 . S
C143 H129 0.941 . S
C143 C142 1.389 . S
C143 C144 1.397 . S
C144 H130 0.939 . S
C144 C143 1.397 . S
C144 C145 1.378 . S
C145 C144 1.378 . S
C145 C146 1.378 . S
C146 H131 0.940 . S
C146 C145 1.378 . S
C146 C147 1.396 . S
C147 H132 0.940 . S
C147 C142 1.391 . S
C147 C146 1.396 . S
C148 P128 1.803 . S
C148 C149 1.378 . S
C148 C153 1.400 . S
C149 H133 0.939 . S
C149 C148 1.378 . S
C149 C150 1.361 . S
C150 H134 0.942 . S
C150 C149 1.361 . S
C150 C151 1.369 . S
C151 C150 1.369 . S
C151 C152 1.404 . S
C152 H135 0.940 . S
C152 C151 1.404 . S
C152 C153 1.389 . S
C153 H136 0.939 . S
C153 C148 1.400 . S
C153 C152 1.389 . S
C154 P128 1.819 . S
C154 C155 1.391 . S
C154 C159 1.391 . S
C155 H137 0.941 . S
C155 C154 1.391 . S
C155 C156 1.396 . S
C156 H140 0.939 . S
C156 C155 1.396 . S
C156 C157 1.397 . S
C157 C156 1.397 . S
C157 C158 1.385 . S
C158 H141 0.940 . S
C158 C157 1.385 . S
C158 C159 1.388 . S
C159 H138 0.939 . S
C159 C154 1.391 . S
C159 C158 1.388 . S
P160 O171 1.490 . S
P160 C174 1.812 1_554 S
P160 C180 1.803 . S
P160 C186 1.819 . S
H161 C175 0.941 . S
H162 C176 0.939 . S
H163 C178 0.940 . S
H164 C179 0.944 1_554 S
H165 C181 0.939 . S
H166 C182 0.942 . S
H167 C184 0.940 . S
H168 C185 0.953 . S
H169 C187 0.941 . S
H170 C191 0.932 1_655 S
O171 P160 1.490 . S
H172 C188 0.939 . S
H173 C190 0.940 . S
C174 P160 1.812 1_556 S
C174 C175 1.389 . S
C174 C179 1.384 1_455 S
C175 H161 0.941 . S
C175 C174 1.389 . S
C175 C176 1.397 . S
C176 H162 0.939 . S
C176 C175 1.397 . S
C176 C177 1.378 . S
C177 C176 1.378 . S
C177 C178 1.378 1_455 S
C178 H163 0.940 . S
C178 C177 1.378 1_655 S
C178 C179 1.399 . S
C179 H164 0.944 1_556 S
C179 C174 1.384 1_655 S
C179 C178 1.399 . S
C180 P160 1.803 . S
C180 C181 1.378 . S
C180 C185 1.378 1_455 S
C181 H165 0.939 . S
C181 C180 1.378 . S
C181 C182 1.361 . S
C182 H166 0.942 . S
C182 C181 1.361 . S
C182 C183 1.369 . S
C183 C182 1.369 . S
C183 C184 1.404 1_455 S
C184 H167 0.940 . S
C184 C183 1.404 1_655 S
C184 C185 1.398 . S
C185 H168 0.953 . S
C185 C180 1.378 1_655 S
C185 C184 1.398 . S
C186 P160 1.819 . S
C186 C187 1.391 . S
C186 C191 1.391 . S
C187 H169 0.941 . S
C187 C186 1.391 . S
C187 C188 1.396 . S
C188 H172 0.939 . S
C188 C187 1.396 . S
C188 C189 1.397 . S
C189 C188 1.397 . S
C189 C190 1.385 1_455 S
C190 H173 0.940 . S
C190 C189 1.385 1_655 S
C190 C191 1.388 1_655 S
C191 H170 0.932 1_455 S
C191 C186 1.391 . S
C191 C190 1.388 1_455 S
P192 O203 1.490 . S
P192 C206 1.812 1_554 S
P192 C212 1.803 . S
P192 C218 1.819 . S
H193 C207 0.941 . S
H194 C208 0.939 . S
H195 C210 0.940 . S
H196 C211 0.939 1_554 S
H197 C213 0.939 . S
H198 C214 0.942 . S
H199 C216 0.940 . S
H200 C217 0.953 . S
H201 C219 0.941 . S
H202 C223 0.932 1_565 S
O203 P192 1.490 . S
H204 C220 0.939 . S
H205 C222 0.940 . S
C206 P192 1.812 1_556 S
C206 C207 1.389 . S
C206 C211 1.384 1_545 S
C207 H193 0.941 . S
C207 C206 1.389 . S
C207 C208 1.397 . S
C208 H194 0.939 . S
C208 C207 1.397 . S
C208 C209 1.378 . S
C209 C208 1.378 . S
C209 C210 1.378 1_545 S
C210 H195 0.940 . S
C210 C209 1.378 1_565 S
C210 C211 1.399 . S
C211 H196 0.939 1_556 S
C211 C206 1.384 1_565 S
C211 C210 1.399 . S
C212 P192 1.803 . S
C212 C213 1.378 . S
C212 C217 1.377 1_545 S
C213 H197 0.939 . S
C213 C212 1.378 . S
C213 C214 1.361 . S
C214 H198 0.942 . S
C214 C213 1.361 . S
C214 C215 1.369 . S
C215 C214 1.369 . S
C215 C216 1.404 1_545 S
C216 H199 0.940 . S
C216 C215 1.404 1_565 S
C216 C217 1.398 . S
C217 H200 0.953 . S
C217 C212 1.377 1_565 S
C217 C216 1.398 . S
C218 P192 1.819 . S
C218 C219 1.391 . S
C218 C223 1.391 . S
C219 H201 0.941 . S
C219 C218 1.391 . S
C219 C220 1.396 . S
C220 H204 0.939 . S
C220 C219 1.396 . S
C220 C221 1.397 . S
C221 C220 1.397 . S
C221 C222 1.385 1_545 S
C222 H205 0.940 . S
C222 C221 1.385 1_565 S
C222 C223 1.388 1_565 S
C223 H202 0.932 1_545 S
C223 C218 1.391 . S
C223 C222 1.388 1_545 S
P224 O235 1.490 . S
P224 C238 1.812 1_554 S
P224 C244 1.803 . S
P224 C250 1.819 . S
H225 C239 0.941 . S
H226 C240 0.939 . S
H227 C242 0.940 . S
H228 C243 0.940 . S
H229 C245 0.939 . S
H230 C246 0.942 . S
H231 C248 0.940 . S
H232 C249 0.939 . S
H233 C251 0.941 . S
H234 C255 0.939 . S
O235 P224 1.490 . S
H236 C252 0.939 . S
H237 C254 0.940 . S
C238 P224 1.812 1_556 S
C238 C239 1.389 . S
C238 C243 1.391 . S
C239 H225 0.941 . S
C239 C238 1.389 . S
C239 C240 1.397 . S
C240 H226 0.939 . S
C240 C239 1.397 . S
C240 C241 1.378 . S
C241 C240 1.378 . S
C241 C242 1.378 . S
C242 H227 0.940 . S
C242 C241 1.378 . S
C242 C243 1.396 . S
C243 H228 0.940 . S
C243 C238 1.391 . S
C243 C242 1.396 . S
C244 P224 1.803 . S
C244 C245 1.378 . S
C244 C249 1.400 . S
C245 H229 0.939 . S
C245 C244 1.378 . S
C245 C246 1.361 . S
C246 H230 0.942 . S
C246 C245 1.361 . S
C246 C247 1.369 . S
C247 C246 1.369 . S
C247 C248 1.404 . S
C248 H231 0.940 . S
C248 C247 1.404 . S
C248 C249 1.389 . S
C249 H232 0.939 . S
C249 C244 1.400 . S
C249 C248 1.389 . S
C250 P224 1.819 . S
C250 C251 1.391 . S
C250 C255 1.391 . S
C251 H233 0.941 . S
C251 C250 1.391 . S
C251 C252 1.396 . S
C252 H236 0.939 . S
C252 C251 1.396 . S
C252 C253 1.397 . S
C253 C252 1.397 . S
C253 C254 1.385 . S
C254 H237 0.940 . S
C254 C253 1.385 . S
C254 C255 1.388 . S
C255 H234 0.939 . S
C255 C250 1.391 . S
C255 C254 1.388 . S
Tb256 C258 2.809 . S
Tb256 O276 2.484 . S
Tb256 O277 2.440 . S
Tb256 O278 2.658 1_565 S
Tb256 O279 2.409 . S
Tb256 O280 2.378 . S
Tb256 O284 2.325 1_455 S
Tb256 O287 2.341 1_565 S
Tb257 C267 2.809 . S
Tb257 O278 2.325 1_655 S
Tb257 O281 2.341 1_545 S
Tb257 O282 2.484 . S
Tb257 O283 2.440 . S
Tb257 O284 2.658 1_545 S
Tb257 O285 2.409 . S
Tb257 O286 2.378 . S
C258 Tb256 2.809 . S
C258 C259 1.514 . S
C258 O276 1.248 . S
C258 O277 1.266 . S
C259 C258 1.514 . S
C259 C260 1.359 . S
C259 C264 1.348 . S
C260 C259 1.359 . S
C260 C261 1.380 1_556 S
C260 H288 0.929 1_455 S
C261 C260 1.380 1_554 S
C261 C262 1.347 . S
C261 H289 0.899 1_455 S
C262 C261 1.347 . S
C262 C263 1.369 1_554 S
C263 C262 1.369 1_556 S
C263 C264 1.408 . S
C263 H290 0.930 . S
C264 C259 1.348 . S
C264 C263 1.408 . S
C264 H291 0.930 . S
C265 O278 1.281 1_565 S
C265 O279 1.254 . S
C266 O280 1.236 1_655 S
C266 O281 1.266 . S
C267 Tb257 2.809 . S
C267 C268 1.514 . S
C267 O282 1.248 . S
C267 O283 1.266 . S
C268 C267 1.514 . S
C268 C269 1.359 . S
C268 C273 1.348 . S
C269 C268 1.359 . S
C269 C270 1.380 . S
C269 H292 0.929 1_655 S
C270 C269 1.380 . S
C270 C271 1.347 . S
C270 H293 0.931 1_655 S
C271 C270 1.347 . S
C271 C272 1.369 . S
C272 C271 1.369 . S
C272 C273 1.408 . S
C272 H294 0.930 . S
C273 C268 1.348 . S
C273 C272 1.408 . S
C273 H295 0.930 . S
C274 O284 1.281 1_545 S
C274 O285 1.254 . S
C275 O286 1.236 1_455 S
C275 O287 1.266 . S
O276 Tb256 2.484 . S
O276 C258 1.248 . S
O277 Tb256 2.440 . S
O277 C258 1.266 . S
O278 Tb256 2.658 1_545 S
O278 Tb257 2.325 1_455 S
O278 C265 1.281 1_545 S
O279 Tb256 2.409 . S
O279 C265 1.254 . S
O280 Tb256 2.378 . S
O280 C266 1.236 1_455 S
O281 Tb257 2.341 1_565 S
O281 C266 1.266 . S
O282 Tb257 2.484 . S
O282 C267 1.248 . S
O283 Tb257 2.440 . S
O283 C267 1.266 . S
O284 Tb256 2.325 1_655 S
O284 Tb257 2.658 1_565 S
O284 C274 1.281 1_565 S
O285 Tb257 2.409 . S
O285 C274 1.254 . S
O286 Tb257 2.378 . S
O286 C275 1.236 1_655 S
O287 Tb256 2.341 1_545 S
O287 C275 1.266 . S
H288 C260 0.929 1_655 S
H289 C261 0.899 1_655 S
H290 C263 0.930 . S
H291 C264 0.930 . S
H292 C269 0.929 1_455 S
H293 C270 0.931 1_455 S
H294 C272 0.930 . S
H295 C273 0.930 . S
Tb296 C298 2.809 . S
Tb296 O316 2.484 . S
Tb296 O317 2.440 . S
Tb296 O318 2.658 . S
Tb296 O319 2.409 . S
Tb296 O320 2.378 . S
Tb296 O324 2.325 1_545 S
Tb296 O327 2.341 . S
Tb297 C307 2.809 . S
Tb297 O318 2.325 1_565 S
Tb297 O321 2.341 . S
Tb297 O322 2.484 . S
Tb297 O323 2.440 . S
Tb297 O324 2.658 . S
Tb297 O325 2.409 . S
Tb297 O326 2.378 . S
C298 Tb296 2.809 . S
C298 C299 1.514 . S
C298 O316 1.248 . S
C298 O317 1.266 . S
C299 C298 1.514 . S
C299 C300 1.359 . S
C299 C304 1.348 . S
C300 C299 1.359 . S
C300 C301 1.380 1_556 S
C300 H328 0.929 1_545 S
C301 C300 1.380 1_554 S
C301 C302 1.347 . S
C301 H329 0.931 1_545 S
C302 C301 1.347 . S
C302 C303 1.369 1_554 S
C303 C302 1.369 1_556 S
C303 C304 1.408 . S
C303 H330 0.930 . S
C304 C299 1.348 . S
C304 C303 1.408 . S
C304 H331 0.930 . S
C305 O318 1.281 . S
C305 O319 1.254 . S
C306 O320 1.236 1_565 S
C306 O321 1.266 . S
C307 Tb297 2.809 . S
C307 C308 1.514 . S
C307 O322 1.248 . S
C307 O323 1.266 . S
C308 C307 1.514 . S
C308 C309 1.359 . S
C308 C313 1.348 . S
C309 C308 1.359 . S
C309 C310 1.380 . S
C309 H332 0.929 1_565 S
C310 C309 1.380 . S
C310 C311 1.347 . S
C310 H333 0.931 1_565 S
C311 C310 1.347 . S
C311 C312 1.369 . S
C312 C311 1.369 . S
C312 C313 1.408 . S
C312 H334 0.930 . S
C313 C308 1.348 . S
C313 C312 1.408 . S
C313 H335 0.930 . S
C314 O324 1.281 . S
C314 O325 1.254 . S
C315 O326 1.236 1_545 S
C315 O327 1.266 . S
O316 Tb296 2.484 . S
O316 C298 1.248 . S
O317 Tb296 2.440 . S
O317 C298 1.266 . S
O318 Tb296 2.658 . S
O318 Tb297 2.325 1_545 S
O318 C305 1.281 . S
O319 Tb296 2.409 . S
O319 C305 1.254 . S
O320 Tb296 2.378 . S
O320 C306 1.236 1_545 S
O321 Tb297 2.341 . S
O321 C306 1.266 . S
O322 Tb297 2.484 . S
O322 C307 1.248 . S
O323 Tb297 2.440 . S
O323 C307 1.266 . S
O324 Tb296 2.325 1_565 S
O324 Tb297 2.658 . S
O324 C314 1.281 . S
O325 Tb297 2.409 . S
O325 C314 1.254 . S
O326 Tb297 2.378 . S
O326 C315 1.236 1_565 S
O327 Tb296 2.341 . S
O327 C315 1.266 . S
H328 C300 0.929 1_565 S
H329 C301 0.931 1_565 S
H330 C303 0.930 . S
H331 C304 0.930 . S
H332 C309 0.929 1_545 S
H333 C310 0.931 1_545 S
H334 C312 0.930 . S
H335 C313 0.930 . S
Tb336 C338 2.809 . S
Tb336 O356 2.484 . S
Tb336 O357 2.440 . S
Tb336 O358 2.658 . S
Tb336 O359 2.409 . S
Tb336 O360 2.378 . S
Tb336 O364 2.325 . S
Tb336 O367 2.341 . S
Tb337 C347 2.809 . S
Tb337 O358 2.325 . S
Tb337 O361 2.341 . S
Tb337 O362 2.484 . S
Tb337 O363 2.440 . S
Tb337 O364 2.658 . S
Tb337 O365 2.409 . S
Tb337 O366 2.378 . S
C338 Tb336 2.809 . S
C338 C339 1.514 . S
C338 O356 1.248 . S
C338 O357 1.266 . S
C339 C338 1.514 . S
C339 C340 1.359 . S
C339 C344 1.348 . S
C340 C339 1.359 . S
C340 C341 1.380 1_556 S
C340 H368 0.929 . S
C341 C340 1.380 1_554 S
C341 C342 1.347 . S
C341 H369 0.931 . S
C342 C341 1.347 . S
C342 C343 1.369 1_554 S
C343 C342 1.369 1_556 S
C343 C344 1.408 . S
C343 H370 0.930 . S
C344 C339 1.348 . S
C344 C343 1.408 . S
C344 H371 0.930 . S
C345 O358 1.281 . S
C345 O359 1.254 . S
C346 O360 1.236 . S
C346 O361 1.266 . S
C347 Tb337 2.809 . S
C347 C348 1.514 . S
C347 O362 1.248 . S
C347 O363 1.266 . S
C348 C347 1.514 . S
C348 C349 1.359 . S
C348 C353 1.348 . S
C349 C348 1.359 . S
C349 C350 1.380 . S
C349 H372 0.929 . S
C350 C349 1.380 . S
C350 C351 1.347 . S
C350 H373 0.931 . S
C351 C350 1.347 . S
C351 C352 1.369 . S
C352 C351 1.369 . S
C352 C353 1.408 . S
C352 H374 0.930 . S
C353 C348 1.348 . S
C353 C352 1.408 . S
C353 H375 0.930 . S
C354 O364 1.281 . S
C354 O365 1.254 . S
C355 O366 1.236 . S
C355 O367 1.266 . S
O356 Tb336 2.484 . S
O356 C338 1.248 . S
O357 Tb336 2.440 . S
O357 C338 1.266 . S
O358 Tb336 2.658 . S
O358 Tb337 2.325 . S
O358 C345 1.281 . S
O359 Tb336 2.409 . S
O359 C345 1.254 . S
O360 Tb336 2.378 . S
O360 C346 1.236 . S
O361 Tb337 2.341 . S
O361 C346 1.266 . S
O362 Tb337 2.484 . S
O362 C347 1.248 . S
O363 Tb337 2.440 . S
O363 C347 1.266 . S
O364 Tb336 2.325 . S
O364 Tb337 2.658 . S
O364 C354 1.281 . S
O365 Tb337 2.409 . S
O365 C354 1.254 . S
O366 Tb337 2.378 . S
O366 C355 1.236 . S
O367 Tb336 2.341 . S
O367 C355 1.266 . S
H368 C340 0.929 . S
H369 C341 0.931 . S
H370 C343 0.930 . S
H371 C344 0.930 . S
H372 C349 0.929 . S
H373 C350 0.931 . S
H374 C352 0.930 . S
H375 C353 0.930 . S
Tb376 C378 2.809 . S
Tb376 O396 2.484 . S
Tb376 O397 2.440 . S
Tb376 O398 2.658 1_655 S
Tb376 O399 2.409 . S
Tb376 O400 2.378 . S
Tb376 O404 2.325 . S
Tb376 O407 2.341 1_655 S
Tb377 C387 2.809 . S
Tb377 O398 2.325 . S
Tb377 O401 2.341 1_455 S
Tb377 O402 2.484 . S
Tb377 O403 2.440 . S
Tb377 O404 2.658 1_455 S
Tb377 O405 2.409 . S
Tb377 O406 2.378 . S
C378 Tb376 2.809 . S
C378 C379 1.514 . S
C378 O396 1.248 . S
C378 O397 1.266 . S
C379 C378 1.514 . S
C379 C380 1.359 . S
C379 C384 1.348 . S
C380 C379 1.359 . S
C380 C381 1.380 1_556 S
C380 H408 0.929 . S
C381 C380 1.380 1_554 S
C381 C382 1.347 . S
C381 H409 0.931 . S
C382 C381 1.347 . S
C382 C383 1.369 1_554 S
C383 C382 1.369 1_556 S
C383 C384 1.408 . S
C383 H410 0.930 . S
C384 C379 1.348 . S
C384 C383 1.408 . S
C384 H411 0.930 . S
C385 O398 1.279 1_655 S
C385 O399 1.257 . S
C386 O400 1.236 . S
C386 O401 1.266 . S
C387 Tb377 2.809 . S
C387 C388 1.514 . S
C387 O402 1.248 . S
C387 O403 1.266 . S
C388 C387 1.514 . S
C388 C389 1.359 . S
C388 C393 1.348 . S
C389 C388 1.359 . S
C389 C390 1.380 . S
C389 H412 0.929 . S
C390 C389 1.380 . S
C390 C391 1.347 . S
C390 H413 0.931 . S
C391 C390 1.347 . S
C391 C392 1.369 . S
C392 C391 1.369 . S
C392 C393 1.408 . S
C392 H414 0.930 . S
C393 C388 1.348 . S
C393 C392 1.408 . S
C393 H415 0.930 . S
C394 O404 1.275 1_455 S
C394 O405 1.261 . S
C395 O406 1.236 . S
C395 O407 1.266 . S
O396 Tb376 2.484 . S
O396 C378 1.248 . S
O397 Tb376 2.440 . S
O397 C378 1.266 . S
O398 Tb376 2.658 1_455 S
O398 Tb377 2.325 . S
O398 C385 1.279 1_455 S
O399 Tb376 2.409 . S
O399 C385 1.257 . S
O400 Tb376 2.378 . S
O400 C386 1.236 . S
O401 Tb377 2.341 1_655 S
O401 C386 1.266 . S
O402 Tb377 2.484 . S
O402 C387 1.248 . S
O403 Tb377 2.440 . S
O403 C387 1.266 . S
O404 Tb376 2.325 . S
O404 Tb377 2.658 1_655 S
O404 C394 1.275 1_655 S
O405 Tb377 2.409 . S
O405 C394 1.261 . S
O406 Tb377 2.378 . S
O406 C395 1.236 . S
O407 Tb376 2.341 1_455 S
O407 C395 1.266 . S
H408 C380 0.929 . S
H409 C381 0.931 . S
H410 C383 0.930 . S
H411 C384 0.930 . S
H412 C389 0.929 . S
H413 C390 0.931 . S
H414 C392 0.930 . S
H415 C393 0.930 . S
H416 C422 0.930 . S
H417 C425 0.930 . S
H418 C426 0.930 . S
H419 C427 0.930 . S
H420 C430 0.930 . S
H421 C431 0.930 . S
C422 H416 0.930 . S
C422 C423 1.355 1_565 S
C422 C424 1.415 . S
C423 C422 1.355 1_545 S
C423 C425 1.419 . S
C424 C422 1.415 . S
C424 C429 1.425 1_565 S
C424 C431 1.409 . S
C425 H417 0.930 . S
C425 C423 1.419 . S
C425 C426 1.362 . S
C426 H418 0.930 . S
C426 C425 1.362 . S
C426 C429 1.409 . S
C427 H419 0.930 . S
C427 C428 1.355 1_545 S
C427 C429 1.415 . S
C428 C427 1.355 1_565 S
C428 C430 1.419 . S
C429 C424 1.425 1_545 S
C429 C426 1.409 . S
C429 C427 1.415 . S
C430 H420 0.930 . S
C430 C428 1.419 . S
C430 C431 1.362 . S
C431 H421 0.930 . S
C431 C424 1.409 . S
C431 C430 1.362 . S
H432 C438 0.930 . S
H433 C441 0.930 . S
H434 C442 0.930 . S
H435 C443 0.930 . S
H436 C446 0.930 . S
H437 C447 0.930 . S
C438 H432 0.930 . S
C438 C439 1.355 . S
C438 C440 1.415 . S
C439 C438 1.355 . S
C439 C441 1.419 . S
C440 C438 1.415 . S
C440 C445 1.425 . S
C440 C447 1.409 . S
C441 H433 0.930 . S
C441 C439 1.419 . S
C441 C442 1.362 . S
C442 H434 0.930 . S
C442 C441 1.362 . S
C442 C445 1.409 . S
C443 H435 0.930 . S
C443 C444 1.355 . S
C443 C445 1.415 . S
C444 C443 1.355 . S
C444 C446 1.419 . S
C445 C440 1.425 . S
C445 C442 1.409 . S
C445 C443 1.415 . S
C446 H436 0.930 . S
C446 C444 1.419 . S
C446 C447 1.362 . S
C447 H437 0.930 . S
C447 C440 1.409 . S
C447 C446 1.362 . S
H448 C454 0.930 . S
H449 C457 0.930 . S
H450 C458 0.930 . S
H451 C459 0.930 . S
H452 C462 0.930 . S
H453 C463 0.930 . S
C454 H448 0.930 . S
C454 C455 1.355 . S
C454 C456 1.415 . S
C455 C454 1.355 . S
C455 C457 1.419 . S
C456 C454 1.415 . S
C456 C461 1.425 . S
C456 C463 1.409 . S
C457 H449 0.930 . S
C457 C455 1.419 . S
C457 C458 1.362 . S
C458 H450 0.930 . S
C458 C457 1.362 . S
C458 C461 1.409 . S
C459 H451 0.930 . S
C459 C460 1.355 . S
C459 C461 1.415 . S
C460 C459 1.355 . S
C460 C462 1.419 . S
C461 C456 1.425 . S
C461 C458 1.409 . S
C461 C459 1.415 . S
C462 H452 0.930 . S
C462 C460 1.419 . S
C462 C463 1.362 . S
C463 H453 0.930 . S
C463 C456 1.409 . S
C463 C462 1.362 . S
H464 C470 0.930 . S
H465 C473 0.930 . S
H466 C474 0.930 . S
H467 C475 0.930 . S
H468 C478 0.930 . S
H469 C479 0.930 . S
C470 H464 0.930 . S
C470 C471 1.355 1_455 S
C470 C472 1.415 . S
C471 C470 1.355 1_655 S
C471 C473 1.419 . S
C472 C470 1.415 . S
C472 C477 1.425 1_455 S
C472 C479 1.409 . S
C473 H465 0.930 . S
C473 C471 1.419 . S
C473 C474 1.362 . S
C474 H466 0.930 . S
C474 C473 1.362 . S
C474 C477 1.409 . S
C475 H467 0.930 . S
C475 C476 1.355 1_655 S
C475 C477 1.415 . S
C476 C475 1.355 1_455 S
C476 C478 1.419 . S
C477 C472 1.425 1_655 S
C477 C474 1.409 . S
C477 C475 1.415 . S
C478 H468 0.930 . S
C478 C476 1.419 . S
C478 C479 1.362 . S
C479 H469 0.930 . S
C479 C472 1.409 . S
C479 C478 1.362 . S
H480 C486 0.930 . S
H481 C489 0.930 . S
H482 C490 0.930 . S
H483 C491 0.930 . S
H484 C494 0.930 . S
H485 C495 0.930 . S
C486 H480 0.930 . S
C486 C487 1.355 1_545 S
C486 C488 1.415 . S
C487 C486 1.355 1_565 S
C487 C489 1.419 . S
C488 C486 1.415 . S
C488 C493 1.425 1_545 S
C488 C495 1.409 . S
C489 H481 0.930 . S
C489 C487 1.419 . S
C489 C490 1.362 . S
C490 H482 0.930 . S
C490 C489 1.362 . S
C490 C493 1.409 . S
C491 H483 0.930 . S
C491 C492 1.355 1_564 S
C491 C493 1.415 . S
C492 C491 1.355 1_546 S
C492 C494 1.419 . S
C493 C488 1.425 1_565 S
C493 C490 1.409 . S
C493 C491 1.415 . S
C494 H484 0.930 . S
C494 C492 1.419 . S
C494 C495 1.362 1_556 S
C495 H485 0.930 . S
C495 C488 1.409 . S
C495 C494 1.362 1_554 S
H496 C502 0.930 . S
H497 C505 0.930 . S
H498 C506 0.930 . S
H499 C507 0.930 . S
H500 C510 0.930 . S
H501 C511 0.930 . S
C502 H496 0.930 . S
C502 C503 1.355 . S
C502 C504 1.415 . S
C503 C502 1.355 . S
C503 C505 1.419 . S
C504 C502 1.415 . S
C504 C509 1.425 . S
C504 C511 1.409 . S
C505 H497 0.930 . S
C505 C503 1.419 . S
C505 C506 1.362 . S
C506 H498 0.930 . S
C506 C505 1.362 . S
C506 C509 1.409 . S
C507 H499 0.930 . S
C507 C508 1.355 1_554 S
C507 C509 1.415 . S
C508 C507 1.355 1_556 S
C508 C510 1.419 . S
C509 C504 1.425 . S
C509 C506 1.409 . S
C509 C507 1.415 . S
C510 H500 0.930 . S
C510 C508 1.419 . S
C510 C511 1.362 1_556 S
C511 H501 0.930 . S
C511 C504 1.409 . S
C511 C510 1.362 1_554 S
H512 C518 0.930 . S
H513 C521 0.930 . S
H514 C522 0.930 . S
H515 C523 0.930 . S
H516 C526 0.930 . S
H517 C527 0.930 . S
C518 H512 0.930 . S
C518 C519 1.355 . S
C518 C520 1.415 . S
C519 C518 1.355 . S
C519 C521 1.419 . S
C520 C518 1.415 . S
C520 C525 1.425 . S
C520 C527 1.409 . S
C521 H513 0.930 . S
C521 C519 1.419 . S
C521 C522 1.362 . S
C522 H514 0.930 . S
C522 C521 1.362 . S
C522 C525 1.409 . S
C523 H515 0.930 . S
C523 C524 1.355 . S
C523 C525 1.415 1_556 S
C524 C523 1.355 . S
C524 C526 1.419 . S
C525 C520 1.425 . S
C525 C522 1.409 . S
C525 C523 1.415 1_554 S
C526 H516 0.930 . S
C526 C524 1.419 . S
C526 C527 1.362 1_556 S
C527 H517 0.930 . S
C527 C520 1.409 . S
C527 C526 1.362 1_554 S
H528 C534 0.930 . S
H529 C537 0.930 . S
H530 C538 0.930 . S
H531 C539 0.930 . S
H532 C542 0.930 . S
H533 C543 0.930 . S
C534 H528 0.930 . S
C534 C535 1.355 1_655 S
C534 C536 1.415 . S
C535 C534 1.355 1_455 S
C535 C537 1.419 . S
C536 C534 1.415 . S
C536 C541 1.425 1_655 S
C536 C543 1.409 . S
C537 H529 0.930 . S
C537 C535 1.419 . S
C537 C538 1.362 . S
C538 H530 0.930 . S
C538 C537 1.362 . S
C538 C541 1.409 . S
C539 H531 0.930 . S
C539 C540 1.355 1_455 S
C539 C541 1.415 1_556 S
C540 C539 1.355 1_655 S
C540 C542 1.419 . S
C541 C536 1.425 1_455 S
C541 C538 1.409 . S
C541 C539 1.415 1_554 S
C542 H532 0.930 . S
C542 C540 1.419 . S
C542 C543 1.362 1_556 S
C543 H533 0.930 . S
C543 C536 1.409 . S
C543 C542 1.362 1_554 S
H544 C550 0.930 . S
H545 C553 0.930 . S
H546 C554 0.930 . S
H547 C555 0.930 . S
H548 C558 0.930 . S
H549 C559 0.930 . S
C550 H544 0.930 . S
C550 C551 1.355 1_655 S
C550 C552 1.415 . S
C551 C550 1.355 1_455 S
C551 C553 1.419 . S
C552 C550 1.415 . S
C552 C557 1.425 . S
C552 C559 1.409 . S
C553 H545 0.930 . S
C553 C551 1.419 . S
C553 C554 1.362 . S
C554 H546 0.930 . S
C554 C553 1.362 . S
C554 C557 1.409 1_455 S
C555 H547 0.930 . S
C555 C556 1.355 . S
C555 C557 1.415 . S
C556 C555 1.355 . S
C556 C558 1.419 . S
C557 C552 1.425 . S
C557 C554 1.409 1_655 S
C557 C555 1.415 . S
C558 H548 0.930 . S
C558 C556 1.419 . S
C558 C559 1.362 . S
C559 H549 0.930 . S
C559 C552 1.409 . S
C559 C558 1.362 . S
H560 C566 0.930 . S
H561 C569 0.930 . S
H562 C570 0.930 . S
H563 C571 0.930 . S
H564 C574 0.930 . S
H565 C575 0.930 . S
C566 H560 0.930 . S
C566 C567 1.353 1_545 S
C566 C568 1.415 1_545 S
C567 C566 1.353 1_565 S
C567 C569 1.424 . S
C568 C566 1.415 1_565 S
C568 C573 1.425 . S
C568 C575 1.409 1_565 S
C569 H561 0.930 . S
C569 C567 1.424 . S
C569 C570 1.362 . S
C570 H562 0.930 . S
C570 C569 1.362 . S
C570 C573 1.409 . S
C571 H563 0.930 . S
C571 C572 1.355 . S
C571 C573 1.415 . S
C572 C571 1.355 . S
C572 C574 1.419 . S
C573 C568 1.425 . S
C573 C570 1.409 . S
C573 C571 1.415 . S
C574 H564 0.930 . S
C574 C572 1.419 . S
C574 C575 1.362 1_565 S
C575 H565 0.930 . S
C575 C568 1.409 1_545 S
C575 C574 1.362 1_545 S
H576 C582 0.930 . S
H577 C585 0.930 . S
H578 C586 0.930 . S
H579 C587 0.930 . S
H580 C590 0.930 . S
H581 C591 0.930 . S
C582 H576 0.930 . S
C582 C583 1.355 . S
C582 C584 1.415 . S
C583 C582 1.355 . S
C583 C585 1.419 . S
C584 C582 1.415 . S
C584 C589 1.425 . S
C584 C591 1.409 . S
C585 H577 0.930 . S
C585 C583 1.419 . S
C585 C586 1.362 . S
C586 H578 0.930 . S
C586 C585 1.362 . S
C586 C589 1.409 . S
C587 H579 0.930 . S
C587 C588 1.355 . S
C587 C589 1.415 . S
C588 C587 1.355 . S
C588 C590 1.419 . S
C589 C584 1.425 . S
C589 C586 1.409 . S
C589 C587 1.415 . S
C590 H580 0.930 . S
C590 C588 1.419 . S
C590 C591 1.362 . S
C591 H581 0.930 . S
C591 C584 1.409 . S
C591 C590 1.362 . S
H592 C598 0.930 . S
H593 C601 0.930 . S
H594 C602 0.930 . S
H595 C603 0.930 . S
H596 C606 0.930 . S
H597 C607 0.930 . S
C598 H592 0.930 . S
C598 C599 1.355 . S
C598 C600 1.415 . S
C599 C598 1.355 . S
C599 C601 1.419 . S
C600 C598 1.415 . S
C600 C605 1.425 . S
C600 C607 1.409 . S
C601 H593 0.930 . S
C601 C599 1.419 . S
C601 C602 1.362 . S
C602 H594 0.930 . S
C602 C601 1.362 . S
C602 C605 1.409 . S
C603 H595 0.930 . S
C603 C604 1.355 . S
C603 C605 1.415 . S
C604 C603 1.355 . S
C604 C606 1.419 . S
C605 C600 1.425 . S
C605 C602 1.409 . S
C605 C603 1.415 . S
C606 H596 0.930 . S
C606 C604 1.419 . S
C606 C607 1.362 . S
C607 H597 0.930 . S
C607 C600 1.409 . S
C607 C606 1.362 . S
H608 C614 0.930 . S
H609 C617 0.930 . S
H610 C618 0.930 . S
H611 C619 0.930 . S
H612 C622 0.930 . S
H613 C623 0.930 . S
C614 H608 0.930 . S
C614 C615 1.357 . S
C614 C616 1.415 1_655 S
C615 C614 1.357 . S
C615 C617 1.413 1_655 S
C616 C614 1.415 1_455 S
C616 C621 1.425 . S
C616 C623 1.409 1_455 S
C617 H609 0.930 . S
C617 C615 1.413 1_455 S
C617 C618 1.362 . S
C618 H610 0.930 . S
C618 C617 1.362 . S
C618 C621 1.409 . S
C619 H611 0.930 . S
C619 C620 1.355 . S
C619 C621 1.415 . S
C620 C619 1.355 . S
C620 C622 1.419 . S
C621 C616 1.425 . S
C621 C618 1.409 . S
C621 C619 1.415 . S
C622 H612 0.930 . S
C622 C620 1.419 . S
C622 C623 1.362 1_455 S
C623 H613 0.930 . S
C623 C616 1.409 1_655 S
C623 C622 1.362 1_655 S
H624 C630 0.930 . S
H625 C633 0.923 1_565 S
H626 C634 0.930 . S
H627 C635 0.930 . S
H628 C638 0.930 . S
H629 C639 0.930 1_556 S
C630 H624 0.930 . S
C630 C631 1.355 1_545 S
C630 C632 1.415 . S
C631 C630 1.355 1_565 S
C631 C633 1.419 1_565 S
C632 C630 1.415 . S
C632 C637 1.425 . S
C632 C639 1.409 . S
C633 H625 0.923 1_545 S
C633 C631 1.419 1_545 S
C633 C634 1.362 . S
C634 H626 0.930 . S
C634 C633 1.362 . S
C634 C637 1.409 . S
C635 H627 0.930 . S
C635 C636 1.355 . S
C635 C637 1.415 . S
C636 C635 1.355 . S
C636 C638 1.419 1_554 S
C637 C632 1.425 . S
C637 C634 1.409 . S
C637 C635 1.415 . S
C638 H628 0.930 . S
C638 C636 1.419 1_556 S
C638 C639 1.362 1_556 S
C639 H629 0.930 1_554 S
C639 C632 1.409 . S
C639 C638 1.362 1_554 S
H640 C646 0.930 . S
H641 C649 0.930 . S
H642 C650 0.930 . S
H643 C651 0.930 . S
H644 C654 0.930 . S
H645 C655 0.930 1_556 S
C646 H640 0.930 . S
C646 C647 1.355 . S
C646 C648 1.415 . S
C647 C646 1.355 . S
C647 C649 1.419 . S
C648 C646 1.415 . S
C648 C653 1.425 . S
C648 C655 1.409 . S
C649 H641 0.930 . S
C649 C647 1.419 . S
C649 C650 1.362 . S
C650 H642 0.930 . S
C650 C649 1.362 . S
C650 C653 1.409 . S
C651 H643 0.930 . S
C651 C652 1.355 . S
C651 C653 1.415 . S
C652 C651 1.355 . S
C652 C654 1.419 1_554 S
C653 C648 1.425 . S
C653 C650 1.409 . S
C653 C651 1.415 . S
C654 H644 0.930 . S
C654 C652 1.419 1_556 S
C654 C655 1.362 1_556 S
C655 H645 0.930 1_554 S
C655 C648 1.409 . S
C655 C654 1.362 1_554 S
H656 C662 0.930 . S
H657 C665 0.930 . S
H658 C666 0.930 . S
H659 C667 0.930 . S
H660 C670 0.930 . S
H661 C671 0.930 . S
C662 H656 0.930 . S
C662 C663 1.355 . S
C662 C664 1.415 . S
C663 C662 1.355 . S
C663 C665 1.419 . S
C664 C662 1.415 . S
C664 C669 1.425 . S
C664 C671 1.409 . S
C665 H657 0.930 . S
C665 C663 1.419 . S
C665 C666 1.362 . S
C666 H658 0.930 . S
C666 C665 1.362 . S
C666 C669 1.409 . S
C667 H659 0.930 . S
C667 C668 1.355 . S
C667 C669 1.415 . S
C668 C667 1.355 . S
C668 C670 1.419 . S
C669 C664 1.425 . S
C669 C666 1.409 . S
C669 C667 1.415 . S
C670 H660 0.930 . S
C670 C668 1.419 . S
C670 C671 1.362 . S
C671 H661 0.930 . S
C671 C664 1.409 . S
C671 C670 1.362 . S
H672 C678 0.930 . S
H673 C681 0.930 . S
H674 C682 0.930 . S
H675 C683 0.930 . S
H676 C686 0.930 . S
H677 C687 0.930 . S
C678 H672 0.930 . S
C678 C679 1.355 . S
C678 C680 1.415 . S
C679 C678 1.355 . S
C679 C681 1.419 1_455 S
C680 C678 1.415 . S
C680 C685 1.425 1_455 S
C680 C687 1.409 . S
C681 H673 0.930 . S
C681 C679 1.419 1_655 S
C681 C682 1.362 . S
C682 H674 0.930 . S
C682 C681 1.362 . S
C682 C685 1.409 . S
C683 H675 0.930 . S
C683 C684 1.355 1_655 S
C683 C685 1.415 . S
C684 C683 1.355 1_455 S
C684 C686 1.419 . S
C685 C680 1.425 1_655 S
C685 C682 1.409 . S
C685 C683 1.415 . S
C686 H676 0.930 . S
C686 C684 1.419 . S
C686 C687 1.362 . S
C687 H677 0.930 . S
C687 C680 1.409 . S
C687 C686 1.362 . S
H688 C694 0.930 . S
H689 C697 0.930 . S
H690 C698 0.930 . S
H691 C699 0.930 . S
H692 C702 0.930 . S
H693 C703 0.930 . S
C694 H688 0.930 . S
C694 C695 1.355 1_565 S
C694 C696 1.415 . S
C695 C694 1.355 1_545 S
C695 C697 1.419 . S
C696 C694 1.415 . S
C696 C701 1.425 1_565 S
C696 C703 1.409 . S
C697 H689 0.930 . S
C697 C695 1.419 . S
C697 C698 1.362 . S
C698 H690 0.930 . S
C698 C697 1.362 . S
C698 C701 1.409 . S
C699 H691 0.930 . S
C699 C700 1.355 . S
C699 C701 1.415 . S
C700 C699 1.355 . S
C700 C702 1.419 1_545 S
C701 C696 1.425 1_545 S
C701 C698 1.409 . S
C701 C699 1.415 . S
C702 H692 0.930 . S
C702 C700 1.419 1_565 S
C702 C703 1.362 . S
C703 H693 0.930 . S
C703 C696 1.409 . S
C703 C702 1.362 . S
H704 C710 0.930 . S
H705 C713 0.930 . S
H706 C714 0.930 . S
H707 C715 0.930 . S
H708 C718 0.930 . S
H709 C719 0.930 . S
C710 H704 0.930 . S
C710 C711 1.355 . S
C710 C712 1.415 . S
C711 C710 1.355 . S
C711 C713 1.419 . S
C712 C710 1.415 . S
C712 C717 1.425 . S
C712 C719 1.409 . S
C713 H705 0.930 . S
C713 C711 1.419 . S
C713 C714 1.362 . S
C714 H706 0.930 . S
C714 C713 1.362 . S
C714 C717 1.409 . S
C715 H707 0.930 . S
C715 C716 1.355 . S
C715 C717 1.415 . S
C716 C715 1.355 . S
C716 C718 1.419 . S
C717 C712 1.425 . S
C717 C714 1.409 . S
C717 C715 1.415 . S
C718 H708 0.930 . S
C718 C716 1.419 . S
C718 C719 1.362 . S
C719 H709 0.930 . S
C719 C712 1.409 . S
C719 C718 1.362 . S
H720 C726 0.930 . S
H721 C729 0.930 . S
H722 C730 0.930 . S
H723 C731 0.930 . S
H724 C734 0.930 . S
H725 C735 0.930 . S
C726 H720 0.930 . S
C726 C727 1.355 . S
C726 C728 1.415 . S
C727 C726 1.355 . S
C727 C729 1.419 . S
C728 C726 1.415 . S
C728 C733 1.425 . S
C728 C735 1.409 . S
C729 H721 0.930 . S
C729 C727 1.419 . S
C729 C730 1.362 . S
C730 H722 0.930 . S
C730 C729 1.362 . S
C730 C733 1.409 . S
C731 H723 0.930 . S
C731 C732 1.355 . S
C731 C733 1.415 . S
C732 C731 1.355 . S
C732 C734 1.419 . S
C733 C728 1.425 . S
C733 C730 1.409 . S
C733 C731 1.415 . S
C734 H724 0.930 . S
C734 C732 1.419 . S
C734 C735 1.362 . S
C735 H725 0.930 . S
C735 C728 1.409 . S
C735 C734 1.362 . S
H736 C742 0.930 . S
H737 C745 0.930 . S
H738 C746 0.930 . S
H739 C747 0.930 1_455 S
H740 C750 0.930 . S
H741 C751 0.930 . S
C742 H736 0.930 . S
C742 C743 1.355 . S
C742 C744 1.415 . S
C743 C742 1.355 . S
C743 C745 1.419 1_655 S
C744 C742 1.415 . S
C744 C749 1.425 . S
C744 C751 1.409 . S
C745 H737 0.930 . S
C745 C743 1.419 1_455 S
C745 C746 1.362 . S
C746 H738 0.930 . S
C746 C745 1.362 . S
C746 C749 1.409 1_455 S
C747 H739 0.930 1_655 S
C747 C748 1.355 . S
C747 C749 1.415 . S
C748 C747 1.355 . S
C748 C750 1.419 . S
C749 C744 1.425 . S
C749 C746 1.409 1_655 S
C749 C747 1.415 . S
C750 H740 0.930 . S
C750 C748 1.419 . S
C750 C751 1.362 . S
C751 H741 0.930 . S
C751 C744 1.409 . S
C751 C750 1.362 . S
H752 C758 0.930 . S
H753 C761 0.930 . S
H754 C762 0.930 . S
H755 C763 0.916 1_545 S
H756 C766 0.930 . S
H757 C767 0.930 . S
C758 H752 0.930 . S
C758 C759 1.355 . S
C758 C760 1.415 . S
C759 C758 1.355 . S
C759 C761 1.419 1_565 S
C760 C758 1.415 . S
C760 C765 1.430 . S
C760 C767 1.409 . S
C761 H753 0.930 . S
C761 C759 1.419 1_545 S
C761 C762 1.362 . S
C762 H754 0.930 . S
C762 C761 1.362 . S
C762 C765 1.405 1_545 S
C763 H755 0.916 1_565 S
C763 C764 1.369 . S
C763 C765 1.415 . S
C764 C763 1.369 . S
C764 C766 1.419 . S
C765 C760 1.430 . S
C765 C762 1.405 1_565 S
C765 C763 1.415 . S
C766 H756 0.930 . S
C766 C764 1.419 . S
C766 C767 1.362 . S
C767 H757 0.930 . S
C767 C760 1.409 . S
C767 C766 1.362 . S
H768 C774 0.930 . S
H769 C777 0.930 . S
H770 C778 0.930 . S
H771 C779 0.930 . S
H772 C782 0.930 . S
H773 C783 0.930 . S
C774 H768 0.930 . S
C774 C775 1.355 . S
C774 C776 1.415 . S
C775 C774 1.355 . S
C775 C777 1.419 . S
C776 C774 1.415 . S
C776 C781 1.425 . S
C776 C783 1.409 . S
C777 H769 0.930 . S
C777 C775 1.419 . S
C777 C778 1.362 . S
C778 H770 0.930 . S
C778 C777 1.362 . S
C778 C781 1.409 . S
C779 H771 0.930 . S
C779 C780 1.355 . S
C779 C781 1.415 . S
C780 C779 1.355 . S
C780 C782 1.419 . S
C781 C776 1.425 . S
C781 C778 1.409 . S
C781 C779 1.415 . S
C782 H772 0.930 . S
C782 C780 1.419 . S
C782 C783 1.362 . S
C783 H773 0.930 . S
C783 C776 1.409 . S
C783 C782 1.362 . S
H784 C790 0.930 . S
H785 C793 0.930 . S
H786 C794 0.930 . S
H787 C795 0.930 . S
H788 C798 0.930 . S
H789 C799 0.930 . S
C790 H784 0.930 . S
C790 C791 1.355 . S
C790 C792 1.415 . S
C791 C790 1.355 . S
C791 C793 1.419 . S
C792 C790 1.415 . S
C792 C797 1.425 . S
C792 C799 1.409 . S
C793 H785 0.930 . S
C793 C791 1.419 . S
C793 C794 1.362 . S
C794 H786 0.930 . S
C794 C793 1.362 . S
C794 C797 1.409 . S
C795 H787 0.930 . S
C795 C796 1.355 . S
C795 C797 1.415 . S
C796 C795 1.355 . S
C796 C798 1.419 . S
C797 C792 1.425 . S
C797 C794 1.409 . S
C797 C795 1.415 . S
C798 H788 0.930 . S
C798 C796 1.419 . S
C798 C799 1.362 . S
C799 H789 0.930 . S
C799 C792 1.409 . S
C799 C798 1.362 . S
C423 C215 2.139 . S
C428 C265 2.336 . S
C444 C305 2.368 . S
C439 C247 2.144 . S
C460 C345 2.364 . S
C455 C151 2.136 . S
C476 C385 2.351 1_455 S
C471 C183 2.161 1_655 S
C492 C274 2.332 . S
C487 C87 2.140 1_565 S
C503 C119 2.181 . S
C508 C314 2.370 . S
C519 C23 2.146 . S
C524 C354 2.375 . S
C535 C55 2.116 . S
C540 C394 2.350 1_655 S
C556 C271 0.672 . S
C551 C189 0.532 . S
C572 C311 0.473 . S
C567 C221 0.527 1_565 S
C588 C351 0.548 . S
C583 C253 0.480 . S
C599 C157 0.524 . S
C604 C391 0.457 . S
C615 C61 0.525 1_655 S
C620 C262 0.475 . S
C636 C302 0.545 . S
C631 C93 0.552 1_565 S
C652 C342 0.490 . S
C647 C125 0.497 . S
C663 C29 0.581 . S
C668 C382 0.513 . S
C679 C177 2.698 . S
C684 C275 3.022 . S
C695 C209 2.603 . S
C700 C315 2.956 . S
C716 C355 2.935 . S
C711 C241 2.562 . S
C732 C395 2.992 . S
C727 C145 2.590 . S
C743 C49 2.708 1_655 S
C748 C266 3.035 . S
C764 C306 2.983 . S
C759 C81 2.656 1_565 S
C780 C346 2.942 . S
C775 C113 2.671 . S
C791 C17 2.698 . S
C796 C386 2.990 . S
