# Generated by pormake.
# Topology pth, (4,4)-cn, num edge types: 1
# Building blocks:
#     Node 0, Type 0, BuildingBlock: GALJAG_clean_sbu_0, # of connection points: 4
#     Node 1, Type 0, BuildingBlock: GALJAG_clean_sbu_0, # of connection points: 4
#     Node 2, Type 0, BuildingBlock: GALJAG_clean_sbu_0, # of connection points: 4
#     Node 3, Type 1, BuildingBlock: MUDLON_clean_linker_0, # of connection points: 4
#     Node 4, Type 1, BuildingBlock: MUDLON_clean_linker_0, # of connection points: 4
#     Node 5, Type 1, BuildingBlock: MUDLON_clean_linker_0, # of connection points: 4
#     Edge 6, Type (0, 1), BuildingBlock: UVAHIK_clean_linker_0, # of connection points: 2
#     Edge 7, Type (0, 1), BuildingBlock: UVAHIK_clean_linker_0, # of connection points: 2
#     Edge 8, Type (0, 1), BuildingBlock: UVAHIK_clean_linker_0, # of connection points: 2
#     Edge 9, Type (0, 1), BuildingBlock: UVAHIK_clean_linker_0, # of connection points: 2
#     Edge 10, Type (0, 1), BuildingBlock: UVAHIK_clean_linker_0, # of connection points: 2
#     Edge 11, Type (0, 1), BuildingBlock: UVAHIK_clean_linker_0, # of connection points: 2
#     Edge 12, Type (0, 1), BuildingBlock: UVAHIK_clean_linker_0, # of connection points: 2
#     Edge 13, Type (0, 1), BuildingBlock: UVAHIK_clean_linker_0, # of connection points: 2
#     Edge 14, Type (0, 1), BuildingBlock: UVAHIK_clean_linker_0, # of connection points: 2
#     Edge 15, Type (0, 1), BuildingBlock: UVAHIK_clean_linker_0, # of connection points: 2
#     Edge 16, Type (0, 1), BuildingBlock: UVAHIK_clean_linker_0, # of connection points: 2
#     Edge 17, Type (0, 1), BuildingBlock: UVAHIK_clean_linker_0, # of connection points: 2
# Relax obj value: 0.013
# Max RMSD: 0.066
# Mean RMSD: 0.062
data_MOF--net-pth--node1-GALJAG_clean_sbu_0--node2-MUDLON_clean_linker_0--edge1-UVAHIK_clean_linker_0
_symmetry_space_group_name_H-M    P1
_symmetry_Int_Tables_number       1
_symmetry_cell_setting            triclinic
loop_
_symmetry_equiv_pos_as_xyz
'x, y, z'
_cell_length_a     41.739937
_cell_length_b     41.750691
_cell_length_c     80.934116
_cell_angle_alpha  90.128138
_cell_angle_beta   90.225065
_cell_angle_gamma 119.98847
loop_
_atom_site_label
_atom_site_type_symbol
_atom_site_fract_x
_atom_site_fract_y
_atom_site_fract_z
_atom_type_partial_charge
In0 In 0.00184 0.99642 0.03184 0.0
O1 O 0.96873 0.01925 0.04467 0.0
O2 O 0.02719 0.04777 0.04805 0.0
C3 C 0.94139 0.95102 0.01365 0.0
C4 C 0.05557 0.0446 0.01171 0.0
C5 C 0.01453 0.94971 0.05031 0.0
O6 O 0.93911 0.96227 0.02783 0.0
O7 O 0.97395 0.96298 0.00864 0.0
O8 O 0.01642 0.9507 0.03479 0.0
O9 O 0.00656 0.97246 0.05657 0.0
C10 C 0.9969 0.04644 0.05106 0.0
O11 O 0.06021 0.02342 0.02129 0.0
O12 O 0.02367 0.0409 0.01206 0.0
In13 In 0.98322 0.98194 0.36257 0.0
O14 O 0.01792 0.03399 0.3473 0.0
O15 O 0.95954 0.00946 0.34612 0.0
C16 C 0.03875 0.98795 0.38199 0.0
C17 C 0.93467 0.98156 0.38461 0.0
C18 C 0.96971 0.92468 0.34259 0.0
O19 O 0.03943 0.01538 0.37515 0.0
O20 O 0.00983 0.95742 0.37922 0.0
O21 O 0.94821 0.92182 0.35413 0.0
O22 O 0.99759 0.95648 0.341 0.0
C23 C 0.99053 0.03544 0.34158 0.0
O24 O 0.92524 0.95703 0.37356 0.0
O25 O 0.96859 0.00552 0.38475 0.0
In26 In 0.99452 0.98865 0.69892 0.0
O27 O 0.96527 0.93039 0.71007 0.0
O28 O 0.95447 0.97092 0.7203 0.0
C29 C 0.04086 0.98451 0.6771 0.0
C30 C 0.94682 0.99707 0.67931 0.0
C31 C 0.04657 0.0393 0.71922 0.0
O32 O 0.01824 0.95686 0.68544 0.0
O33 O 0.03907 0.01346 0.67943 0.0
O34 O 0.02312 0.04492 0.71185 0.0
O35 O 0.04319 0.00794 0.71663 0.0
C36 C 0.94788 0.93801 0.72065 0.0
O37 O 0.96917 0.02213 0.68898 0.0
O38 O 0.94897 0.968 0.67931 0.0
H39 H 0.89362 0.59104 0.20216 0.0
N40 N 0.95035 0.58279 0.19346 0.0
H41 H 0.88982 0.625 0.22609 0.0
H42 H -0.00155 0.60786 0.22012 0.0
H43 H 0.99442 0.64082 0.24397 0.0
H44 H 0.01346 0.65096 0.19468 0.0
H45 H 0.03437 0.69882 0.17369 0.0
H46 H 0.92184 0.5773 0.16346 0.0
H47 H 0.94266 0.6255 0.14229 0.0
H48 H 0.90976 0.5096 0.19309 0.0
H49 H 0.02277 0.59887 0.19487 0.0
H50 H 0.93118 0.46479 0.19391 0.0
H51 H 0.04433 0.55476 0.19674 0.0
H52 H 0.97961 0.33649 0.2062 0.0
H53 H 0.97336 0.29639 0.22913 0.0
H54 H 0.08248 0.37722 0.2466 0.0
H55 H 0.08897 0.4169 0.22307 0.0
H56 H 0.08899 0.38618 0.18351 0.0
H57 H 0.0773 0.34482 0.16006 0.0
H58 H 0.96696 0.32876 0.15523 0.0
H59 H 0.97846 0.36883 0.17913 0.0
H60 H 0.97785 0.39417 0.21214 0.0
H61 H 0.95699 0.43884 0.21121 0.0
H62 H 0.05225 0.51148 0.18183 0.0
N63 N 0.04162 0.40171 0.19815 0.0
H64 H 0.07425 0.46735 0.18377 0.0
C65 C 0.94619 0.59682 0.20917 0.0
C66 C 0.91526 0.60112 0.21147 0.0
C67 C 0.91312 0.62044 0.22515 0.0
C68 C 0.94206 0.63594 0.2368 0.0
C69 C 0.97197 0.6297 0.23504 0.0
C70 C 0.97412 0.61046 0.22137 0.0
C71 C 0.9657 0.61044 0.18069 0.0
C72 C 0.99799 0.64484 0.18325 0.0
C73 C 0.00989 0.67234 0.17125 0.0
C74 C 0.98998 0.66601 0.15641 0.0
C75 C 0.95872 0.63108 0.15355 0.0
C76 C 0.9467 0.60361 0.16562 0.0
C77 C 0.9644 0.55749 0.19401 0.0
C78 C 0.93916 0.51947 0.19381 0.0
C79 C 0.95151 0.49396 0.19443 0.0
C80 C 0.98957 0.50603 0.19549 0.0
C81 C 0.01487 0.5443 0.19566 0.0
C82 C 0.00249 0.56973 0.19475 0.0
C83 C 0.03505 0.37972 0.21283 0.0
C84 C 0.00209 0.34586 0.21501 0.0
C85 C -0.00158 0.323 0.22827 0.0
C86 C 0.0275 0.33346 0.23969 0.0
C87 C 0.05977 0.36807 0.23789 0.0
C88 C 0.06345 0.39091 0.22456 0.0
C89 C 0.03489 0.38081 0.18304 0.0
C90 C 0.06252 0.37411 0.17721 0.0
C91 C 0.05577 0.35059 0.16375 0.0
C92 C 0.02113 0.33339 0.15572 0.0
C93 C 0.99377 0.34112 0.16124 0.0
C94 C 0.00046 0.3644 0.17482 0.0
C95 C 0.02825 0.42764 0.19823 0.0
C96 C 0.99471 0.41983 0.2057 0.0
C97 C 0.98242 0.44538 0.20496 0.0
C98 C 0.00285 0.47894 0.19644 0.0
C99 C 0.03611 0.48638 0.18881 0.0
C100 C 0.04868 0.46111 0.18981 0.0
H101 H 0.71056 0.11126 0.54721 0.0
N102 N 0.64783 0.06449 0.53218 0.0
H103 H 0.73955 0.09902 0.57079 0.0
H104 H 0.6169 0.00109 0.55043 0.0
H105 H 0.64565 0.98839 0.57417 0.0
H106 H 0.63513 0.99632 0.52239 0.0
H107 H 0.66437 0.98355 0.49922 0.0
H108 H 0.68814 0.11111 0.50855 0.0
H109 H 0.71679 0.09844 0.48495 0.0
H110 H 0.62593 0.10188 0.551 0.0
H111 H 0.58534 0.01354 0.515 0.0
H112 H 0.56533 0.09692 0.55181 0.0
H113 H 0.52568 0.01034 0.51479 0.0
H114 H 0.38063 0.09928 0.54288 0.0
H115 H 0.33779 0.08435 0.56584 0.0
H116 H 0.33703 0.98132 0.57291 0.0
H117 H 0.3786 0.99591 0.54952 0.0
H118 H 0.34607 0.98989 0.52113 0.0
H119 H 0.30494 0.97777 0.49759 0.0
H120 H 0.37824 0.08822 0.47952 0.0
H121 H 0.41771 0.10075 0.50383 0.0
H122 H 0.47199 0.11375 0.53465 0.0
H123 H 0.5301 0.11328 0.53564 0.0
H124 H 0.47009 0.99467 0.5281 0.0
N125 N 0.4048 0.05723 0.52973 0.0
H126 H 0.41238 0.99624 0.52595 0.0
C127 C 0.66187 0.05715 0.5471 0.0
C128 C 0.69608 0.08461 0.55323 0.0
C129 C 0.71244 0.07757 0.56673 0.0
C130 C 0.69487 0.04272 0.57435 0.0
C131 C 0.65998 0.01539 0.56845 0.0
C132 C 0.6435 0.0226 0.55495 0.0
C133 C 0.65985 0.05488 0.51726 0.0
C134 C 0.65258 0.01867 0.51419 0.0
C135 C 0.66911 0.01134 0.50084 0.0
C136 C 0.69321 0.04007 0.49034 0.0
C137 C 0.69884 0.07585 0.49298 0.0
C138 C 0.68233 0.08311 0.50634 0.0
C139 C 0.61067 0.05856 0.53289 0.0
C140 C 0.60395 0.08146 0.54325 0.0
C141 C 0.56933 0.07884 0.54353 0.0
C142 C 0.54061 0.05374 0.5331 0.0
C143 C 0.54694 0.02986 0.52308 0.0
C144 C 0.58147 0.03195 0.52308 0.0
C145 C 0.38309 0.04904 0.54454 0.0
C146 C 0.37157 0.07376 0.54957 0.0
C147 C 0.34722 0.06518 0.56275 0.0
C148 C 0.33394 0.0316 0.57128 0.0
C149 C 0.34633 0.00721 0.5665 0.0
C150 C 0.37053 0.01574 0.5532 0.0
C151 C 0.3844 0.04667 0.51442 0.0
C152 C 0.35342 0.01135 0.51203 0.0
C153 C 0.33006 0.00437 0.49842 0.0
C154 C 0.33772 0.03231 0.48678 0.0
C155 C 0.37073 0.06644 0.48849 0.0
C156 C 0.39359 0.07358 0.50225 0.0
C157 C 0.43808 0.05513 0.53048 0.0
C158 C 0.47157 0.08774 0.53322 0.0
C159 C 0.50467 0.08724 0.53395 0.0
C160 C 0.50495 0.05381 0.53223 0.0
C161 C 0.47111 0.02097 0.52939 0.0
C162 C 0.43797 0.02169 0.52835 0.0
H163 H 0.58555 0.69443 0.88138 0.0
N164 N 0.58278 0.63523 0.86778 0.0
H165 H 0.62244 0.72958 0.90539 0.0
H166 H 0.61707 0.61197 0.89012 0.0
H167 H 0.65351 0.64665 0.91391 0.0
H168 H 0.64932 0.63777 0.86361 0.0
H169 H 0.69383 0.66969 0.84178 0.0
H170 H 0.57473 0.66921 0.84175 0.0
H171 H 0.61968 0.70171 0.81974 0.0
H172 H 0.50962 0.60235 0.86691 0.0
H173 H 0.59927 0.57914 0.86594 0.0
H174 H 0.46515 0.53624 0.86465 0.0
H175 H 0.55563 0.51356 0.86514 0.0
H176 H 0.33769 0.35074 0.87052 0.0
H177 H 0.2988 0.31815 0.89386 0.0
H178 H 0.38776 0.30654 0.91504 0.0
H179 H 0.42602 0.33772 0.89094 0.0
H180 H 0.39561 0.2986 0.85115 0.0
H181 H 0.35522 0.26457 0.828 0.0
H182 H 0.33337 0.35426 0.8198 0.0
H183 H 0.3724 0.38715 0.84354 0.0
H184 H 0.39458 0.41511 0.8781 0.0
H185 H 0.43745 0.48104 0.87876 0.0
H186 H 0.5143 0.46496 0.84904 0.0
N187 N 0.40693 0.36165 0.86425 0.0
H188 H 0.47223 0.39832 0.84967 0.0
C189 C 0.59853 0.6507 0.88375 0.0
C190 C 0.59951 0.68338 0.88872 0.0
C191 C 0.62052 0.70335 0.90244 0.0
C192 C 0.64116 0.69101 0.91139 0.0
C193 C 0.63824 0.65704 0.90709 0.0
C194 C 0.61714 0.63703 0.89343 0.0
C195 C 0.60839 0.65092 0.85428 0.0
C196 C 0.64206 0.65083 0.85395 0.0
C197 C 0.66762 0.66914 0.84141 0.0
C198 C 0.66024 0.6882 0.82907 0.0
C199 C 0.62619 0.68744 0.82917 0.0
C200 C 0.60048 0.66884 0.84165 0.0
C201 C 0.55772 0.59589 0.86689 0.0
C202 C 0.51965 0.58294 0.86648 0.0
C203 C 0.49431 0.54507 0.86531 0.0
C204 C 0.50658 0.5192 0.8648 0.0
C205 C 0.54491 0.53241 0.86521 0.0
C206 C 0.57016 0.57026 0.86598 0.0
C207 C 0.38469 0.34607 0.87884 0.0
C208 C 0.34891 0.34121 0.88014 0.0
C209 C 0.32678 0.32291 0.89368 0.0
C210 C 0.33999 0.30946 0.90636 0.0
C211 C 0.37641 0.31587 0.90537 0.0
C212 C 0.39843 0.3339 0.8917 0.0
C213 C 0.38721 0.34534 0.84905 0.0
C214 C 0.38255 0.31109 0.84415 0.0
C215 C 0.35956 0.29181 0.83084 0.0
C216 C 0.34088 0.30659 0.82198 0.0
C217 C 0.34683 0.34176 0.82648 0.0
C218 C 0.36955 0.36086 0.83995 0.0
C219 C 0.43057 0.40138 0.86414 0.0
C220 C 0.42075 0.42548 0.87188 0.0
C221 C 0.44529 0.46359 0.87205 0.0
C222 C 0.47974 0.47867 0.86409 0.0
C223 C 0.48864 0.45452 0.85575 0.0
C224 C 0.46449 0.41638 0.85594 0.0
C225 C 0.02748 0.10903 0.06406 0.0
C226 C 0.99502 0.07541 0.06075 0.0
C227 C 0.02596 0.1371 0.07277 0.0
C228 C 0.97307 0.1538 0.10347 0.0
H229 H 0.02617 0.25468 0.08746 0.0
C230 C 0.97847 0.27327 0.14138 0.0
C231 C 0.01308 0.30587 0.14233 0.0
C232 C 0.97207 0.24578 0.12981 0.0
C233 C 0.01145 0.22673 0.09219 0.0
H234 H 0.93557 0.04456 0.06404 0.0
H235 H 0.93307 0.09358 0.07973 0.0
H236 H 0.02333 0.2048 0.0706 0.0
H237 H 0.06745 0.33585 0.13121 0.0
H238 H 0.05693 0.28742 0.1116 0.0
H239 H 0.9626 0.1756 0.12538 0.0
C240 C 0.95956 0.09816 0.07541 0.0
C241 C 0.00972 0.1982 0.08249 0.0
C242 C 0.961 0.07022 0.06644 0.0
C243 C 0.04067 0.31084 0.13103 0.0
C244 C 0.03441 0.28321 0.11959 0.0
C245 C 0.9752 0.18238 0.11328 0.0
C246 C 0.99203 0.13193 0.07855 0.0
C247 C 0.99099 0.16157 0.08815 0.0
C248 C 0.00024 0.25004 0.11901 0.0
C249 C 0.99494 0.21931 0.10788 0.0
H250 H 0.05407 0.11384 0.05976 0.0
H251 H 0.05144 0.16271 0.0752 0.0
H252 H 0.95871 0.1258 0.10817 0.0
H253 H 0.95664 0.26829 0.14996 0.0
H254 H 0.94521 0.22089 0.12954 0.0
C255 C 0.91974 0.01423 0.40643 0.0
C256 C 0.90786 0.98394 0.39564 0.0
C257 C 0.89423 0.01852 0.41586 0.0
C258 C 0.80058 0.96942 0.43304 0.0
H259 H 0.81223 0.06757 0.43448 0.0
C260 C 0.69838 0.00089 0.46797 0.0
C261 C 0.7147 0.0334 0.47758 0.0
C262 C 0.7196 0.99387 0.45675 0.0
C263 C 0.80874 0.04006 0.43431 0.0
H264 H 0.86011 0.93376 0.38663 0.0
H265 H 0.81536 0.94118 0.40328 0.0
H266 H 0.85412 0.05639 0.41779 0.0
H267 H 0.76615 0.08381 0.48303 0.0
H268 H 0.80296 0.07165 0.46358 0.0
H269 H 0.75562 0.95328 0.44985 0.0
C270 C 0.84446 0.96157 0.40439 0.0
C271 C 0.83274 0.03367 0.42475 0.0
C272 C 0.87004 0.95738 0.39485 0.0
C273 C 0.75252 0.05889 0.47557 0.0
C274 C 0.77366 0.05189 0.46441 0.0
C275 C 0.77661 0.97586 0.44269 0.0
C276 C 0.85628 0.99254 0.41477 0.0
C277 C 0.82929 0.99845 0.42422 0.0
C278 C 0.75755 0.01922 0.45494 0.0
C279 C 0.78081 0.01142 0.44363 0.0
H280 H 0.94872 0.0351 0.40734 0.0
H281 H 0.90421 0.04233 0.42397 0.0
H282 H 0.7974 0.94203 0.43291 0.0
H283 H 0.66923 0.98086 0.46913 0.0
H284 H 0.70628 0.96865 0.44949 0.0
C285 C 0.91411 0.8741 0.7326 0.0
C286 C 0.92093 0.91063 0.73223 0.0
C287 C 0.8876 0.84826 0.74334 0.0
C288 C 0.83405 0.84202 0.78093 0.0
H289 H 0.76594 0.7428 0.76517 0.0
C290 C 0.6975 0.74744 0.8138 0.0
C291 C 0.68913 0.71098 0.81689 0.0
C292 C 0.72665 0.77014 0.80341 0.0
C293 C 0.78502 0.77031 0.76977 0.0
H294 H 0.90547 0.94877 0.74277 0.0
H295 H 0.85906 0.90385 0.76115 0.0
H296 H 0.81646 0.78579 0.74742 0.0
H297 H 0.70389 0.66929 0.81113 0.0
H298 H 0.75491 0.7091 0.79276 0.0
H299 H 0.80207 0.82688 0.80308 0.0
C300 C 0.87453 0.89514 0.75347 0.0
C301 C 0.81402 0.79489 0.75965 0.0
C302 C 0.90101 0.92088 0.74283 0.0
C303 C 0.70991 0.69736 0.80902 0.0
C304 C 0.7389 0.72002 0.79846 0.0
C305 C 0.80497 0.81762 0.79095 0.0
C306 C 0.86745 0.8585 0.75387 0.0
C307 C 0.83851 0.83124 0.76503 0.0
C308 C 0.7479 0.75681 0.79578 0.0
C309 C 0.77985 0.78173 0.78539 0.0
H310 H 0.92913 0.86547 0.72457 0.0
H311 H 0.88305 0.82035 0.74345 0.0
H312 H 0.85291 0.8695 0.78562 0.0
H313 H 0.68222 0.75881 0.81982 0.0
H314 H 0.73273 0.79827 0.8014 0.0
C315 C 0.02054 0.92524 0.07759 0.0
C316 C 0.01968 0.92304 0.06027 0.0
C317 C 0.02341 0.89881 0.08704 0.0
C318 C 0.00105 0.80258 0.08551 0.0
H319 H 0.06343 0.82862 0.12455 0.0
C320 C 0.00023 0.69053 0.12742 0.0
C321 C 0.00028 0.69654 0.1445 0.0
C322 C 0.00781 0.71898 0.11627 0.0
C323 C 0.04564 0.82086 0.11375 0.0
H324 H 0.0219 0.89201 0.03921 0.0
H325 H 0.02652 0.84556 0.05577 0.0
H326 H 0.06706 0.87737 0.10671 0.0
H327 H 0.00826 0.73698 0.16331 0.0
H328 H 0.0208 0.78625 0.14396 0.0
H329 H 0.97852 0.74623 0.09281 0.0
C330 C 0.02494 0.8677 0.06201 0.0
C331 C 0.04783 0.84879 0.10353 0.0
C332 C 0.02244 0.89434 0.05256 0.0
C333 C 0.00863 0.73168 0.15022 0.0
C334 C 0.01592 0.75998 0.1391 0.0
C335 C -0.00139 0.77465 0.09581 0.0
C336 C 0.02512 0.8695 0.07935 0.0
C337 C 0.02517 0.83994 0.08944 0.0
C338 C 0.01528 0.75393 0.12197 0.0
C339 C 0.02045 0.78346 0.11021 0.0
H340 H 0.0185 0.94709 0.08386 0.0
H341 H 0.02311 0.90068 0.10039 0.0
H342 H 0.98295 0.79496 0.07482 0.0
H343 H 0.99426 0.66381 0.12268 0.0
H344 H 0.00765 0.71352 0.10317 0.0
C345 C 0.07082 0.95976 0.39724 0.0
C346 C 0.06959 0.99137 0.39228 0.0
C347 C 0.10037 0.9632 0.40681 0.0
C348 C 0.17094 0.0254 0.43617 0.0
H349 H 0.22301 0.97338 0.42457 0.0
C350 C 0.30431 0.05699 0.46993 0.0
C351 C 0.30978 0.02731 0.47398 0.0
C352 C 0.27601 0.05197 0.45916 0.0
C353 C 0.20847 0.98772 0.42811 0.0
H354 H 0.09814 0.05126 0.39342 0.0
H355 H 0.14941 0.05721 0.41034 0.0
H356 H 0.17071 0.9651 0.40765 0.0
H357 H 0.29029 0.96922 0.46924 0.0
H358 H 0.23983 0.96012 0.45094 0.0
H359 H 0.20776 0.04743 0.45678 0.0
C360 C 0.12759 0.02982 0.40681 0.0
C361 C 0.1786 0.98303 0.41839 0.0
C362 C 0.09833 0.02642 0.39709 0.0
C363 C 0.28663 0.99261 0.4666 0.0
C364 C 0.25794 0.98748 0.45594 0.0
C365 C 0.20045 0.02978 0.44597 0.0
C366 C 0.12891 0.99827 0.41176 0.0
C367 C 0.15981 0.00212 0.42226 0.0
C368 C 0.25189 0.017 0.45232 0.0
C369 C 0.2199 0.01136 0.44197 0.0
H370 H 0.04907 0.9324 0.39366 0.0
H371 H 0.10061 0.93843 0.41056 0.0
H372 H 0.15653 0.03995 0.43959 0.0
H373 H 0.32105 0.08401 0.4755 0.0
H374 H 0.27274 0.07555 0.45639 0.0
C375 C 0.07569 0.09915 0.73487 0.0
C376 C 0.07675 0.06774 0.72945 0.0
C377 C 0.10485 0.1264 0.74425 0.0
C378 C 0.18665 0.14236 0.76935 0.0
H379 H 0.21534 0.24559 0.76405 0.0
C380 C 0.3191 0.26 0.79879 0.0
C381 C 0.31342 0.28411 0.80895 0.0
C382 C 0.29135 0.23559 0.78801 0.0
C383 C 0.20751 0.21683 0.76564 0.0
H384 H 0.10926 0.04039 0.72928 0.0
H385 H 0.16064 0.08833 0.74503 0.0
H386 H 0.16437 0.19844 0.74753 0.0
H387 H 0.27434 0.30224 0.81514 0.0
H388 H 0.22655 0.26046 0.79586 0.0
H389 H 0.23048 0.16105 0.78717 0.0
C390 C 0.13691 0.09159 0.74259 0.0
C391 C 0.17817 0.18975 0.75628 0.0
C392 C 0.10752 0.06413 0.73347 0.0
C393 C 0.28001 0.28451 0.80738 0.0
C394 C 0.25248 0.26045 0.79639 0.0
C395 C 0.21631 0.16946 0.77847 0.0
C396 C 0.13596 0.12306 0.74817 0.0
C397 C 0.16726 0.1521 0.75806 0.0
C398 C 0.25758 0.23518 0.78693 0.0
C399 C 0.22694 0.2069 0.77674 0.0
H400 H 0.0522 0.10254 0.73197 0.0
H401 H 0.10277 0.14986 0.74855 0.0
H402 H 0.17863 0.11369 0.77137 0.0
H403 H 0.34476 0.25949 0.79937 0.0
H404 H 0.2961 0.21667 0.78064 0.0
C405 C 0.89537 0.97249 0.65851 0.0
C406 C 0.91947 0.00103 0.66921 0.0
C407 C 0.86892 0.97593 0.64924 0.0
C408 C 0.84757 0.04588 0.63315 0.0
H409 H 0.74887 0.96186 0.62711 0.0
C410 C 0.73443 0.06126 0.59989 0.0
C411 C 0.71426 0.03461 0.58769 0.0
C412 C 0.75661 0.05573 0.61115 0.0
C413 C 0.77638 0.98549 0.62862 0.0
H414 H 0.93472 0.05545 0.6787 0.0
H415 H 0.88838 0.06134 0.66268 0.0
H416 H 0.79399 0.95534 0.64394 0.0
H417 H 0.7004 0.98059 0.57814 0.0
H418 H 0.7391 0.97088 0.59784 0.0
H419 H 0.83016 0.07598 0.61778 0.0
C420 C 0.89019 0.0365 0.66124 0.0
C421 C 0.80226 0.98176 0.63822 0.0
C422 C 0.91666 0.03308 0.67047 0.0
C423 C 0.71533 0.00149 0.5875 0.0
C424 C 0.73755 0.99595 0.59878 0.0
C425 C 0.82173 0.04963 0.62361 0.0
C426 C 0.86601 0.00798 0.65051 0.0
C427 C 0.8382 0.0119 0.64054 0.0
C428 C 0.75913 0.02342 0.61046 0.0
C429 C 0.78587 0.01948 0.62119 0.0
H430 H 0.89692 0.94746 0.65728 0.0
H431 H 0.85108 0.95367 0.64092 0.0
H432 H 0.87519 0.06947 0.63444 0.0
H433 H 0.73364 0.08678 0.60053 0.0
H434 H 0.7723 0.07707 0.62024 0.0
C435 C 0.87292 0.91625 0.00858 0.0
C436 C 0.90873 0.92521 0.00377 0.0
C437 C 0.84216 0.89155 -0.00085 0.0
C438 C 0.81691 0.84842 0.95737 0.0
H439 H 0.72595 0.77667 0.97862 0.0
C440 C 0.70514 0.72147 0.92305 0.0
C441 C 0.66892 0.71545 0.9238 0.0
C442 C 0.73263 0.74708 0.93353 0.0
C443 C 0.75111 0.7968 0.97255 0.0
H444 H 0.9405 0.91496 0.98554 0.0
H445 H 0.88713 0.87124 0.96942 0.0
H446 H 0.77777 0.82196 -0.00454 0.0
H447 H 0.63276 0.73062 0.93647 0.0
H448 H 0.68112 0.77535 0.95512 0.0
H449 H 0.79065 0.82248 0.93455 0.0
C450 C 0.88259 0.88395 0.98016 0.0
C451 C 0.78075 0.82283 0.98216 0.0
C452 C 0.91324 0.90886 0.98947 0.0
C453 C 0.66049 0.73482 0.93562 0.0
C454 C 0.68803 0.76021 0.9463 0.0
C455 C 0.78756 0.8222 0.94784 0.0
C456 C 0.84664 0.8751 0.98481 0.0
C457 C 0.8142 0.84868 0.97468 0.0
C458 C 0.72449 0.76704 0.9451 0.0
C459 C 0.75457 0.79588 0.95534 0.0
H460 H 0.86867 0.92853 0.01956 0.0
H461 H 0.81496 0.88571 0.003 0.0
H462 H 0.84182 0.86848 0.95113 0.0
H463 H 0.71259 0.70733 0.91393 0.0
H464 H 0.76047 0.75161 0.93246 0.0
C465 C 0.99184 0.89636 0.32165 0.0
C466 C 0.96385 0.89296 0.3323 0.0
C467 C 0.98738 0.86595 0.31255 0.0
C468 C 0.91845 0.777 0.29509 0.0
H469 H 2e-05 0.75744 0.29448 0.0
C470 C 0.91096 0.65372 0.25867 0.0
C471 C 0.94291 0.66148 0.24979 0.0
C472 C 0.91181 0.67919 0.27019 0.0
C473 C 0.97709 0.76266 0.2944 0.0
H474 H 0.90891 0.85536 0.34154 0.0
H475 H 0.9009 0.80215 0.32537 0.0
H476 H 0.00453 0.80792 0.31136 0.0
H477 H 0.00056 0.70225 0.24585 0.0
H478 H 0.002 0.74656 0.2657 0.0
H479 H 0.89145 0.7325 0.27772 0.0
C480 C 0.92632 0.82836 0.32416 0.0
C481 C 0.97967 0.79154 0.3041 0.0
C482 C 0.93095 0.85874 0.33342 0.0
C483 C 0.9757 0.69505 0.25276 0.0
C484 C 0.97651 0.72049 0.26417 0.0
C485 C 0.91597 0.74825 0.28525 0.0
C486 C 0.9547 0.83161 0.31379 0.0
C487 C 0.95065 0.79936 0.30434 0.0
C488 C 0.94458 0.713 0.27299 0.0
C489 C 0.94555 0.74116 0.28458 0.0
H490 H 0.0175 0.92238 0.32053 0.0
H491 H 0.0095 0.86934 0.30448 0.0
H492 H 0.89575 0.78258 0.29501 0.0
H493 H 0.88535 0.62796 0.2567 0.0
H494 H 0.88683 0.6724 0.27692 0.0
C495 C 0.06798 0.95103 0.66205 0.0
C496 C 0.06941 0.98429 0.66649 0.0
C497 C 0.09643 0.95158 0.65271 0.0
C498 C 0.1945 0.00957 0.64394 0.0
H499 H 0.1747 0.95765 0.60207 0.0
C500 C 0.30751 0.04869 0.59532 0.0
C501 C 0.30592 0.02151 0.58453 0.0
C502 C 0.27933 0.04009 0.60669 0.0
C503 C 0.18079 0.9717 0.6139 0.0
H504 H 0.10151 0.04408 0.66464 0.0
H505 H 0.15129 0.04495 0.64866 0.0
H506 H 0.1232 0.94937 0.61927 0.0
H507 H 0.27386 0.96348 0.5777 0.0
H508 H 0.22551 0.94814 0.59802 0.0
H509 H 0.2519 0.03182 0.63879 0.0
C510 C 0.1282 0.01854 0.65233 0.0
C511 C 0.15124 0.96703 0.62369 0.0
C512 C 0.09957 0.01799 0.66136 0.0
C513 C 0.27618 0.98509 0.58589 0.0
C514 C 0.24813 0.97639 0.5974 0.0
C515 C 0.22402 0.01383 0.6343 0.0
C516 C 0.12702 0.98541 0.648 0.0
C517 C 0.1579 0.98668 0.63858 0.0
C518 C 0.24899 0.00394 0.60774 0.0
C519 C 0.2176 0.99576 0.61893 0.0
H520 H 0.04503 0.92469 0.66586 0.0
H521 H 0.09497 0.92568 0.64949 0.0
H522 H 0.20028 0.0246 0.65552 0.0
H523 H 0.33028 0.07688 0.59481 0.0
H524 H 0.28084 0.0622 0.61427 0.0
C525 C 0.08178 0.10126 0.99428 0.0
C526 C 0.08555 0.07278 0.00149 0.0
C527 C 0.11063 0.12886 0.98514 0.0
C528 C 0.21153 0.17067 0.9772 0.0
H529 H 0.18803 0.20973 0.93848 0.0
C530 C 0.31582 0.25563 0.92585 0.0
C531 C 0.31496 0.28686 0.91992 0.0
C532 C 0.28976 0.23212 0.93731 0.0
C533 C 0.19497 0.19937 0.94938 0.0
H534 H 0.12213 0.05041 0.00465 0.0
H535 H 0.17202 0.0977 0.98813 0.0
H536 H 0.13817 0.16238 0.95488 0.0
H537 H 0.28722 0.31892 0.92223 0.0
H538 H 0.24106 0.27712 0.94185 0.0
H539 H 0.26852 0.20692 0.97116 0.0
C540 C 0.14725 0.09947 0.98991 0.0
C541 C 0.16642 0.17228 0.95882 0.0
C542 C 0.11856 0.07214 -0.00074 0.0
C543 C 0.28822 0.2947 0.92622 0.0
C544 C 0.26188 0.2709 0.9375 0.0
C545 C 0.2401 0.19743 0.96759 0.0
C546 C 0.14374 0.1283 0.98279 0.0
C547 C 0.17428 0.1575 0.97285 0.0
C548 C 0.26204 0.23908 0.94293 0.0
C549 C 0.23205 0.21198 0.9536 0.0
H550 H 0.05676 0.10264 -0.00405 0.0
H551 H 0.1071 0.15092 0.98012 0.0
H552 H 0.21869 0.16051 0.98808 0.0
H553 H 0.3356 0.24836 0.92113 0.0
H554 H 0.29029 0.20758 0.94121 0.0
C555 C 0.96327 0.06922 0.32721 0.0
C556 C 0.9944 0.06613 0.33115 0.0
C557 C 0.96703 0.09924 0.31808 0.0
C558 C 0.03653 0.19447 0.30556 0.0
H559 H 0.9621 0.17963 0.27288 0.0
C560 C 0.05561 0.30283 0.25627 0.0
C561 C 0.02496 0.30709 0.25265 0.0
C562 C 0.05221 0.27526 0.26708 0.0
C563 C 0.98287 0.18429 0.28211 0.0
H564 H 0.05381 0.09165 0.32842 0.0
H565 H 0.06033 0.14361 0.31208 0.0
H566 H 0.95565 0.12711 0.28862 0.0
H567 H 0.96725 0.28702 0.25833 0.0
H568 H 0.96126 0.23858 0.27703 0.0
H569 H 0.06411 0.25164 0.2987 0.0
C570 C 0.03308 0.1233 0.31635 0.0
C571 C 0.97919 0.15419 0.29115 0.0
C572 C 0.02933 0.09337 0.32559 0.0
C573 C 0.99121 0.28404 0.26059 0.0
C574 C 0.98776 0.25632 0.27131 0.0
C575 C 0.04035 0.22455 0.29642 0.0
C576 C 0.002 0.12674 0.31257 0.0
C577 C 0.00598 0.15887 0.30298 0.0
C578 C 0.01805 0.25123 0.27443 0.0
C579 C 0.01355 0.21975 0.2846 0.0
H580 H 0.93601 0.04877 0.33143 0.0
H581 H 0.94257 0.10124 0.31562 0.0
H582 H 0.05736 0.19922 0.31477 0.0
H583 H 0.08187 0.31971 0.25021 0.0
H584 H 0.07595 0.27178 0.26914 0.0
loop_
_geom_bond_atom_site_label_1
_geom_bond_atom_site_label_2
_geom_bond_distance
_geom_bond_site_symmetry_2
_ccdc_geom_bond_type
In0 O1 2.294 1_455 S
In0 O2 2.326 . S
In0 O6 2.266 1_445 S
In0 O7 2.326 1_445 S
In0 O8 2.266 1_545 S
In0 O9 2.326 1_445 S
In0 O11 2.294 . S
In0 O12 2.326 . S
O1 In0 2.294 1_655 S
O1 C10 1.240 1_655 S
O2 In0 2.326 . S
O2 C10 1.252 . S
C3 O6 1.252 . S
C3 O7 1.260 . S
C4 O11 1.240 . S
C4 O12 1.252 . S
C5 O8 1.249 1_655 S
C5 O9 1.266 . S
O6 In0 2.266 1_665 S
O6 C3 1.252 . S
O7 In0 2.326 1_665 S
O7 C3 1.260 . S
O8 In0 2.266 1_565 S
O8 C5 1.249 1_455 S
O9 In0 2.326 1_665 S
O9 C5 1.266 . S
C10 O1 1.240 1_455 S
C10 O2 1.252 . S
O11 In0 2.294 . S
O11 C4 1.240 . S
O12 In0 2.326 . S
O12 C4 1.252 . S
In13 O14 2.292 . S
In13 O15 2.306 1_455 S
In13 O19 2.291 . S
In13 O20 2.342 1_545 S
In13 O21 2.269 1_445 S
In13 O22 2.346 1_545 S
In13 O24 2.270 1_445 S
In13 O25 2.309 1_455 S
O14 In13 2.292 . S
O14 C23 1.240 1_455 S
O15 In13 2.306 1_655 S
O15 C23 1.252 . S
C16 O19 1.249 1_565 S
C16 O20 1.262 . S
C17 O24 1.240 1_545 S
C17 O25 1.252 . S
C18 O21 1.252 1_455 S
C18 O22 1.260 . S
O19 In13 2.291 . S
O19 C16 1.249 1_545 S
O20 In13 2.342 1_565 S
O20 C16 1.262 . S
O21 In13 2.269 1_665 S
O21 C18 1.252 1_655 S
O22 In13 2.346 1_565 S
O22 C18 1.260 . S
C23 O14 1.240 1_655 S
C23 O15 1.252 . S
O24 In13 2.270 1_665 S
O24 C17 1.240 1_565 S
O25 In13 2.309 1_655 S
O25 C17 1.252 . S
In26 O27 2.271 1_445 S
In26 O28 2.306 1_445 S
In26 O32 2.274 1_545 S
In26 O33 2.348 . S
In26 O34 2.289 . S
In26 O35 2.346 . S
In26 O37 2.286 1_455 S
In26 O38 2.304 1_445 S
O27 In26 2.271 1_665 S
O27 C36 1.240 . S
O28 In26 2.306 1_665 S
O28 C36 1.252 . S
C29 O32 1.252 1_545 S
C29 O33 1.260 . S
C30 O37 1.240 1_565 S
C30 O38 1.252 . S
C31 O34 1.252 . S
C31 O35 1.260 . S
O32 In26 2.274 1_565 S
O32 C29 1.252 1_565 S
O33 In26 2.348 . S
O33 C29 1.260 . S
O34 In26 2.289 . S
O34 C31 1.252 . S
O35 In26 2.346 . S
O35 C31 1.260 . S
C36 O27 1.240 . S
C36 O28 1.252 . S
O37 In26 2.286 1_655 S
O37 C30 1.240 1_545 S
O38 In26 2.304 1_665 S
O38 C30 1.252 . S
H39 C66 0.929 . S
N40 C65 1.433 . S
N40 C71 1.435 . S
N40 C77 1.423 . S
H41 C67 0.930 . S
H42 C70 0.931 . S
H43 C69 0.929 . S
H44 C72 0.930 . S
H45 C73 0.932 . S
H46 C76 0.929 . S
H47 C75 0.931 . S
H48 C78 0.929 . S
H49 C82 0.932 1_455 S
H50 C79 0.931 . S
H51 C81 0.929 1_455 S
H52 C84 0.929 . S
H53 C85 0.930 . S
H54 C87 0.929 . S
H55 C88 0.931 . S
H56 C90 0.930 . S
H57 C91 0.932 . S
H58 C93 0.931 . S
H59 C94 0.929 . S
H60 C96 0.929 . S
H61 C97 0.931 . S
H62 C99 0.929 1_455 S
N63 C83 1.433 . S
N63 C89 1.435 . S
N63 C95 1.423 . S
H64 C100 0.931 1_455 S
C65 N40 1.433 . S
C65 C66 1.363 . S
C65 C70 1.370 1_655 S
C66 H39 0.929 . S
C66 C65 1.363 . S
C66 C67 1.385 . S
C67 H41 0.930 . S
C67 C66 1.385 . S
C67 C68 1.357 . S
C68 C67 1.357 . S
C68 C69 1.406 1_655 S
C69 H43 0.929 . S
C69 C68 1.406 1_455 S
C69 C70 1.391 . S
C70 H42 0.931 . S
C70 C65 1.370 1_455 S
C70 C69 1.391 . S
C71 N40 1.435 . S
C71 C72 1.358 1_655 S
C71 C76 1.371 . S
C72 H44 0.930 . S
C72 C71 1.358 1_455 S
C72 C73 1.405 . S
C73 H45 0.932 . S
C73 C72 1.405 . S
C73 C74 1.394 . S
C74 C73 1.394 . S
C74 C75 1.387 1_455 S
C75 H47 0.931 . S
C75 C74 1.387 1_655 S
C75 C76 1.382 . S
C76 H46 0.929 . S
C76 C71 1.371 . S
C76 C75 1.382 . S
C77 N40 1.423 . S
C77 C78 1.362 . S
C77 C82 1.389 . S
C78 H48 0.929 . S
C78 C77 1.362 . S
C78 C79 1.376 . S
C79 H50 0.931 . S
C79 C78 1.376 . S
C79 C80 1.396 . S
C80 C79 1.396 . S
C80 C81 1.348 . S
C80 C98 1.472 . S
C81 H51 0.929 1_655 S
C81 C80 1.348 . S
C81 C82 1.442 . S
C82 H49 0.932 1_655 S
C82 C77 1.389 . S
C82 C81 1.442 . S
C83 N63 1.433 . S
C83 C84 1.363 . S
C83 C88 1.370 1_655 S
C84 H52 0.929 . S
C84 C83 1.363 . S
C84 C85 1.385 . S
C85 H53 0.930 . S
C85 C84 1.385 . S
C85 C86 1.357 . S
C86 C85 1.357 . S
C86 C87 1.406 1_655 S
C87 H54 0.929 . S
C87 C86 1.406 1_455 S
C87 C88 1.391 . S
C88 H55 0.931 . S
C88 C83 1.370 1_455 S
C88 C87 1.391 . S
C89 N63 1.435 . S
C89 C90 1.358 1_655 S
C89 C94 1.371 . S
C90 H56 0.930 . S
C90 C89 1.358 1_455 S
C90 C91 1.405 . S
C91 H57 0.932 . S
C91 C90 1.405 . S
C91 C92 1.396 . S
C92 C91 1.396 . S
C92 C93 1.369 1_455 S
C93 H58 0.931 . S
C93 C92 1.369 1_655 S
C93 C94 1.382 . S
C94 H59 0.929 . S
C94 C89 1.371 . S
C94 C93 1.382 . S
C95 N63 1.423 . S
C95 C96 1.362 . S
C95 C100 1.389 . S
C96 H60 0.929 . S
C96 C95 1.362 . S
C96 C97 1.376 . S
C97 H61 0.931 . S
C97 C96 1.376 . S
C97 C98 1.396 . S
C98 C80 1.472 . S
C98 C97 1.396 . S
C98 C99 1.348 . S
C99 H62 0.929 1_655 S
C99 C98 1.348 . S
C99 C100 1.444 . S
C100 H64 0.931 1_655 S
C100 C95 1.389 . S
C100 C99 1.444 . S
H101 C128 0.929 . S
N102 C127 1.433 . S
N102 C133 1.435 . S
N102 C139 1.423 . S
H103 C129 0.930 . S
H104 C132 0.931 . S
H105 C131 0.929 . S
H106 C134 0.930 . S
H107 C135 0.932 . S
H108 C138 0.929 . S
H109 C137 0.931 . S
H110 C140 0.929 . S
H111 C144 0.932 1_565 S
H112 C141 0.931 . S
H113 C143 0.929 1_565 S
H114 C146 0.929 . S
H115 C147 0.930 . S
H116 C149 0.929 . S
H117 C150 0.931 . S
H118 C152 0.930 . S
H119 C153 0.932 . S
H120 C155 0.931 . S
H121 C156 0.929 . S
H122 C158 0.929 . S
H123 C159 0.931 . S
H124 C161 0.929 1_565 S
N125 C145 1.433 . S
N125 C151 1.435 . S
N125 C157 1.423 . S
H126 C162 0.932 1_565 S
C127 N102 1.433 . S
C127 C128 1.363 . S
C127 C132 1.370 1_545 S
C128 H101 0.929 . S
C128 C127 1.363 . S
C128 C129 1.385 . S
C129 H103 0.930 . S
C129 C128 1.385 . S
C129 C130 1.357 . S
C130 C129 1.357 . S
C130 C131 1.406 1_545 S
C131 H105 0.929 . S
C131 C130 1.406 1_565 S
C131 C132 1.391 . S
C132 H104 0.931 . S
C132 C127 1.370 1_565 S
C132 C131 1.391 . S
C133 N102 1.435 . S
C133 C134 1.358 1_545 S
C133 C138 1.371 . S
C134 H106 0.930 . S
C134 C133 1.358 1_565 S
C134 C135 1.405 . S
C135 H107 0.932 . S
C135 C134 1.405 . S
C135 C136 1.383 1_565 S
C136 C135 1.383 1_545 S
C136 C137 1.393 . S
C137 H109 0.931 . S
C137 C136 1.393 . S
C137 C138 1.382 . S
C138 H108 0.929 . S
C138 C133 1.371 . S
C138 C137 1.382 . S
C139 N102 1.423 . S
C139 C140 1.362 . S
C139 C144 1.388 . S
C140 H110 0.929 . S
C140 C139 1.362 . S
C140 C141 1.376 . S
C141 H112 0.931 . S
C141 C140 1.376 . S
C141 C142 1.396 . S
C142 C141 1.396 . S
C142 C143 1.348 . S
C142 C160 1.472 . S
C143 H113 0.929 1_545 S
C143 C142 1.348 . S
C143 C144 1.443 . S
C144 H111 0.932 1_545 S
C144 C139 1.388 . S
C144 C143 1.443 . S
C145 N125 1.433 . S
C145 C146 1.363 . S
C145 C150 1.370 1_545 S
C146 H114 0.929 . S
C146 C145 1.363 . S
C146 C147 1.385 . S
C147 H115 0.930 . S
C147 C146 1.385 . S
C147 C148 1.357 . S
C148 C147 1.357 . S
C148 C149 1.406 1_545 S
C149 H116 0.929 . S
C149 C148 1.406 1_565 S
C149 C150 1.391 . S
C150 H117 0.931 . S
C150 C145 1.370 1_565 S
C150 C149 1.391 . S
C151 N125 1.435 . S
C151 C152 1.358 1_545 S
C151 C156 1.371 . S
C152 H118 0.930 . S
C152 C151 1.358 1_565 S
C152 C153 1.405 . S
C153 H119 0.932 . S
C153 C152 1.405 . S
C153 C154 1.383 1_565 S
C154 C153 1.383 1_545 S
C154 C155 1.393 . S
C155 H120 0.931 . S
C155 C154 1.393 . S
C155 C156 1.382 . S
C156 H121 0.929 . S
C156 C151 1.371 . S
C156 C155 1.382 . S
C157 N125 1.423 . S
C157 C158 1.362 . S
C157 C162 1.388 . S
C158 H122 0.929 . S
C158 C157 1.362 . S
C158 C159 1.376 . S
C159 H123 0.931 . S
C159 C158 1.376 . S
C159 C160 1.396 . S
C160 C142 1.472 . S
C160 C159 1.396 . S
C160 C161 1.348 . S
C161 H124 0.929 1_545 S
C161 C160 1.348 . S
C161 C162 1.443 . S
C162 H126 0.932 1_545 S
C162 C157 1.388 . S
C162 C161 1.443 . S
H163 C190 0.929 . S
N164 C189 1.433 . S
N164 C195 1.435 . S
N164 C201 1.423 . S
H165 C191 0.930 . S
H166 C194 0.931 . S
H167 C193 0.929 . S
H168 C196 0.930 . S
H169 C197 0.932 . S
H170 C200 0.929 . S
H171 C199 0.931 . S
H172 C202 0.929 . S
H173 C206 0.932 . S
H174 C203 0.931 . S
H175 C205 0.929 . S
H176 C208 0.929 . S
H177 C209 0.930 . S
H178 C211 0.929 . S
H179 C212 0.931 . S
H180 C214 0.930 . S
H181 C215 0.932 . S
H182 C217 0.931 . S
H183 C218 0.929 . S
H184 C220 0.929 . S
H185 C221 0.931 . S
H186 C223 0.929 . S
N187 C207 1.433 . S
N187 C213 1.435 . S
N187 C219 1.423 . S
H188 C224 0.932 . S
C189 N164 1.433 . S
C189 C190 1.363 . S
C189 C194 1.370 . S
C190 H163 0.929 . S
C190 C189 1.363 . S
C190 C191 1.385 . S
C191 H165 0.930 . S
C191 C190 1.385 . S
C191 C192 1.357 . S
C192 C191 1.357 . S
C192 C193 1.406 . S
C193 H167 0.929 . S
C193 C192 1.406 . S
C193 C194 1.391 . S
C194 H166 0.931 . S
C194 C189 1.370 . S
C194 C193 1.391 . S
C195 N164 1.435 . S
C195 C196 1.358 . S
C195 C200 1.371 . S
C196 H168 0.930 . S
C196 C195 1.358 . S
C196 C197 1.405 . S
C197 H169 0.932 . S
C197 C196 1.405 . S
C197 C198 1.383 . S
C198 C197 1.383 . S
C198 C199 1.393 . S
C199 H171 0.931 . S
C199 C198 1.393 . S
C199 C200 1.382 . S
C200 H170 0.929 . S
C200 C195 1.371 . S
C200 C199 1.382 . S
C201 N164 1.423 . S
C201 C202 1.362 . S
C201 C206 1.388 . S
C202 H172 0.929 . S
C202 C201 1.362 . S
C202 C203 1.376 . S
C203 H174 0.931 . S
C203 C202 1.376 . S
C203 C204 1.396 . S
C204 C203 1.396 . S
C204 C205 1.348 . S
C204 C222 1.472 . S
C205 H175 0.929 . S
C205 C204 1.348 . S
C205 C206 1.443 . S
C206 H173 0.932 . S
C206 C201 1.388 . S
C206 C205 1.443 . S
C207 N187 1.433 . S
C207 C208 1.363 . S
C207 C212 1.370 . S
C208 H176 0.929 . S
C208 C207 1.363 . S
C208 C209 1.385 . S
C209 H177 0.930 . S
C209 C208 1.385 . S
C209 C210 1.357 . S
C210 C209 1.357 . S
C210 C211 1.406 . S
C211 H178 0.929 . S
C211 C210 1.406 . S
C211 C212 1.391 . S
C212 H179 0.931 . S
C212 C207 1.370 . S
C212 C211 1.391 . S
C213 N187 1.435 . S
C213 C214 1.358 . S
C213 C218 1.371 . S
C214 H180 0.930 . S
C214 C213 1.358 . S
C214 C215 1.405 . S
C215 H181 0.932 . S
C215 C214 1.405 . S
C215 C216 1.383 . S
C216 C215 1.383 . S
C216 C217 1.393 . S
C217 H182 0.931 . S
C217 C216 1.393 . S
C217 C218 1.382 . S
C218 H183 0.929 . S
C218 C213 1.371 . S
C218 C217 1.382 . S
C219 N187 1.423 . S
C219 C220 1.362 . S
C219 C224 1.388 . S
C220 H184 0.929 . S
C220 C219 1.362 . S
C220 C221 1.376 . S
C221 H185 0.931 . S
C221 C220 1.376 . S
C221 C222 1.396 . S
C222 C204 1.472 . S
C222 C221 1.396 . S
C222 C223 1.348 . S
C223 H186 0.929 . S
C223 C222 1.348 . S
C223 C224 1.443 . S
C224 H188 0.932 . S
C224 C219 1.388 . S
C224 C223 1.443 . S
C225 C226 1.349 . S
C225 C227 1.327 . S
C225 H250 0.950 . S
C226 C225 1.349 . S
C226 C242 1.349 1_455 S
C227 C225 1.327 . S
C227 C246 1.429 . S
C227 H251 0.950 . S
C228 C245 1.574 . S
C228 C247 1.368 1_655 S
C228 H252 0.949 . S
H229 C233 0.949 . S
C230 C231 1.349 1_655 S
C230 C232 1.327 . S
C230 H253 0.950 . S
C231 C230 1.349 1_455 S
C231 C243 1.349 . S
C232 C230 1.327 . S
C232 C248 1.429 1_655 S
C232 H254 0.950 . S
C233 H229 0.949 . S
C233 C241 1.574 . S
C233 C249 1.368 . S
H234 C242 0.950 . S
H235 C240 0.950 . S
H236 C241 0.949 . S
H237 C243 0.950 . S
H238 C244 0.950 . S
H239 C245 0.949 . S
C240 H235 0.950 . S
C240 C242 1.327 . S
C240 C246 1.429 1_655 S
C241 C233 1.574 . S
C241 H236 0.949 . S
C241 C247 1.368 . S
C242 C226 1.349 1_655 S
C242 H234 0.950 . S
C242 C240 1.327 . S
C243 C231 1.349 . S
C243 H237 0.950 . S
C243 C244 1.327 . S
C244 H238 0.950 . S
C244 C243 1.327 . S
C244 C248 1.429 . S
C245 C228 1.574 . S
C245 H239 0.949 . S
C245 C249 1.368 1_655 S
C246 C227 1.429 . S
C246 C240 1.429 1_455 S
C246 C247 1.523 . S
C247 C228 1.368 1_455 S
C247 C241 1.368 . S
C247 C246 1.523 . S
C248 C232 1.429 1_455 S
C248 C244 1.429 . S
C248 C249 1.523 . S
C249 C233 1.368 . S
C249 C245 1.368 1_455 S
C249 C248 1.523 . S
H250 C225 0.950 . S
H251 C227 0.950 . S
H252 C228 0.949 . S
H253 C230 0.950 . S
H254 C232 0.950 . S
C255 C256 1.349 . S
C255 C257 1.327 . S
C255 H280 0.950 . S
C256 C255 1.349 . S
C256 C272 1.349 1_545 S
C257 C255 1.327 . S
C257 C276 1.429 . S
C257 H281 0.950 . S
C258 C275 1.574 . S
C258 C277 1.368 1_565 S
C258 H282 0.949 . S
H259 C263 0.949 . S
C260 C261 1.349 1_565 S
C260 C262 1.327 . S
C260 H283 0.950 . S
C261 C260 1.349 1_545 S
C261 C273 1.349 . S
C262 C260 1.327 . S
C262 C278 1.429 1_565 S
C262 H284 0.950 . S
C263 H259 0.949 . S
C263 C271 1.574 . S
C263 C279 1.368 . S
H264 C272 0.950 . S
H265 C270 0.950 . S
H266 C271 0.949 . S
H267 C273 0.950 . S
H268 C274 0.950 . S
H269 C275 0.949 . S
C270 H265 0.950 . S
C270 C272 1.327 . S
C270 C276 1.429 1_565 S
C271 C263 1.574 . S
C271 H266 0.949 . S
C271 C277 1.368 . S
C272 C256 1.349 1_565 S
C272 H264 0.950 . S
C272 C270 1.327 . S
C273 C261 1.349 . S
C273 H267 0.950 . S
C273 C274 1.327 . S
C274 H268 0.950 . S
C274 C273 1.327 . S
C274 C278 1.429 . S
C275 C258 1.574 . S
C275 H269 0.949 . S
C275 C279 1.368 1_565 S
C276 C257 1.429 . S
C276 C270 1.429 1_545 S
C276 C277 1.523 . S
C277 C258 1.368 1_545 S
C277 C271 1.368 . S
C277 C276 1.523 . S
C278 C262 1.429 1_545 S
C278 C274 1.429 . S
C278 C279 1.523 . S
C279 C263 1.368 . S
C279 C275 1.368 1_545 S
C279 C278 1.523 . S
H280 C255 0.950 . S
H281 C257 0.950 . S
H282 C258 0.949 . S
H283 C260 0.950 . S
H284 C262 0.950 . S
C285 C286 1.349 . S
C285 C287 1.327 . S
C285 H310 0.950 . S
C286 C285 1.349 . S
C286 C302 1.349 . S
C287 C285 1.327 . S
C287 C306 1.429 . S
C287 H311 0.950 . S
C288 C305 1.574 . S
C288 C307 1.368 . S
C288 H312 0.949 . S
H289 C293 0.949 . S
C290 C291 1.349 . S
C290 C292 1.327 . S
C290 H313 0.950 . S
C291 C290 1.349 . S
C291 C303 1.349 . S
C292 C290 1.327 . S
C292 C308 1.429 . S
C292 H314 0.950 . S
C293 H289 0.949 . S
C293 C301 1.574 . S
C293 C309 1.368 . S
H294 C302 0.950 . S
H295 C300 0.950 . S
H296 C301 0.949 . S
H297 C303 0.950 . S
H298 C304 0.950 . S
H299 C305 0.949 . S
C300 H295 0.950 . S
C300 C302 1.327 . S
C300 C306 1.429 . S
C301 C293 1.574 . S
C301 H296 0.949 . S
C301 C307 1.368 . S
C302 C286 1.349 . S
C302 H294 0.950 . S
C302 C300 1.327 . S
C303 C291 1.349 . S
C303 H297 0.950 . S
C303 C304 1.327 . S
C304 H298 0.950 . S
C304 C303 1.327 . S
C304 C308 1.429 . S
C305 C288 1.574 . S
C305 H299 0.949 . S
C305 C309 1.368 . S
C306 C287 1.429 . S
C306 C300 1.429 . S
C306 C307 1.523 . S
C307 C288 1.368 . S
C307 C301 1.368 . S
C307 C306 1.523 . S
C308 C292 1.429 . S
C308 C304 1.429 . S
C308 C309 1.523 . S
C309 C293 1.368 . S
C309 C305 1.368 . S
C309 C308 1.523 . S
H310 C285 0.950 . S
H311 C287 0.950 . S
H312 C288 0.949 . S
H313 C290 0.950 . S
H314 C292 0.950 . S
C315 C316 1.348 . S
C315 C317 1.327 . S
C315 H340 0.950 . S
C316 C315 1.348 . S
C316 C332 1.348 1_455 S
C317 C315 1.327 . S
C317 C336 1.425 . S
C317 H341 0.950 . S
C318 C335 1.574 . S
C318 C337 1.372 1_655 S
C318 H342 0.949 . S
H319 C323 0.949 . S
C320 C321 1.349 1_655 S
C320 C322 1.327 . S
C320 H343 0.950 . S
C321 C320 1.349 1_455 S
C321 C333 1.349 . S
C322 C320 1.327 . S
C322 C338 1.429 1_655 S
C322 H344 0.950 . S
C323 H319 0.949 . S
C323 C331 1.574 . S
C323 C339 1.368 . S
H324 C332 0.950 . S
H325 C330 0.950 . S
H326 C331 0.949 . S
H327 C333 0.950 . S
H328 C334 0.950 . S
H329 C335 0.949 . S
C330 H325 0.950 . S
C330 C332 1.327 . S
C330 C336 1.423 1_655 S
C331 C323 1.574 . S
C331 H326 0.949 . S
C331 C337 1.376 . S
C332 C316 1.348 1_655 S
C332 H324 0.950 . S
C332 C330 1.327 . S
C333 C321 1.349 . S
C333 H327 0.950 . S
C333 C334 1.327 . S
C334 H328 0.950 . S
C334 C333 1.327 . S
C334 C338 1.429 . S
C335 C318 1.574 . S
C335 H329 0.949 . S
C335 C339 1.368 1_655 S
C336 C317 1.425 . S
C336 C330 1.423 1_455 S
C336 C337 1.517 . S
C337 C318 1.372 1_455 S
C337 C331 1.376 . S
C337 C336 1.517 . S
C338 C322 1.429 1_455 S
C338 C334 1.429 . S
C338 C339 1.523 . S
C339 C323 1.368 . S
C339 C335 1.368 1_455 S
C339 C338 1.523 . S
H340 C315 0.950 . S
H341 C317 0.950 . S
H342 C318 0.949 . S
H343 C320 0.950 . S
H344 C322 0.950 . S
C345 C346 1.351 1_565 S
C345 C347 1.327 . S
C345 H370 0.950 . S
C346 C345 1.351 1_545 S
C346 C362 1.348 . S
C347 C345 1.327 . S
C347 C366 1.417 1_565 S
C347 H371 0.950 . S
C348 C365 1.574 . S
C348 C367 1.393 . S
C348 H372 0.949 . S
H349 C353 0.949 . S
C350 C351 1.349 . S
C350 C352 1.327 . S
C350 H373 0.950 . S
C351 C350 1.349 . S
C351 C363 1.349 1_545 S
C352 C350 1.327 . S
C352 C368 1.429 . S
C352 H374 0.950 . S
C353 H349 0.949 . S
C353 C361 1.574 . S
C353 C369 1.368 1_565 S
H354 C362 0.950 . S
H355 C360 0.950 . S
H356 C361 0.949 . S
H357 C363 0.950 . S
H358 C364 0.950 . S
H359 C365 0.949 . S
C360 H355 0.950 . S
C360 C362 1.327 . S
C360 C366 1.451 . S
C361 C353 1.574 . S
C361 H356 0.949 . S
C361 C367 1.333 1_565 S
C362 C346 1.348 . S
C362 H354 0.950 . S
C362 C360 1.327 . S
C363 C351 1.349 1_565 S
C363 H357 0.950 . S
C363 C364 1.327 . S
C364 H358 0.950 . S
C364 C363 1.327 . S
C364 C368 1.429 1_565 S
C365 C348 1.574 . S
C365 H359 0.949 . S
C365 C369 1.368 . S
C366 C347 1.417 1_545 S
C366 C360 1.451 . S
C366 C367 1.528 . S
C367 C348 1.393 . S
C367 C361 1.333 1_545 S
C367 C366 1.528 . S
C368 C352 1.429 . S
C368 C364 1.429 1_545 S
C368 C369 1.523 . S
C369 C353 1.368 1_545 S
C369 C365 1.368 . S
C369 C368 1.523 . S
H370 C345 0.950 . S
H371 C347 0.950 . S
H372 C348 0.949 . S
H373 C350 0.950 . S
H374 C352 0.950 . S
C375 C376 1.349 . S
C375 C377 1.327 . S
C375 H400 0.950 . S
C376 C375 1.349 . S
C376 C392 1.349 . S
C377 C375 1.327 . S
C377 C396 1.429 . S
C377 H401 0.950 . S
C378 C395 1.574 . S
C378 C397 1.368 . S
C378 H402 0.949 . S
H379 C383 0.949 . S
C380 C381 1.349 . S
C380 C382 1.327 . S
C380 H403 0.950 . S
C381 C380 1.349 . S
C381 C393 1.349 . S
C382 C380 1.327 . S
C382 C398 1.429 . S
C382 H404 0.950 . S
C383 H379 0.949 . S
C383 C391 1.574 . S
C383 C399 1.368 . S
H384 C392 0.950 . S
H385 C390 0.950 . S
H386 C391 0.949 . S
H387 C393 0.950 . S
H388 C394 0.950 . S
H389 C395 0.949 . S
C390 H385 0.950 . S
C390 C392 1.327 . S
C390 C396 1.429 . S
C391 C383 1.574 . S
C391 H386 0.949 . S
C391 C397 1.368 . S
C392 C376 1.349 . S
C392 H384 0.950 . S
C392 C390 1.327 . S
C393 C381 1.349 . S
C393 H387 0.950 . S
C393 C394 1.327 . S
C394 H388 0.950 . S
C394 C393 1.327 . S
C394 C398 1.429 . S
C395 C378 1.574 . S
C395 H389 0.949 . S
C395 C399 1.368 . S
C396 C377 1.429 . S
C396 C390 1.429 . S
C396 C397 1.523 . S
C397 C378 1.368 . S
C397 C391 1.368 . S
C397 C396 1.523 . S
C398 C382 1.429 . S
C398 C394 1.429 . S
C398 C399 1.523 . S
C399 C383 1.368 . S
C399 C395 1.368 . S
C399 C398 1.523 . S
H400 C375 0.950 . S
H401 C377 0.950 . S
H402 C378 0.949 . S
H403 C380 0.950 . S
H404 C382 0.950 . S
C405 C406 1.349 . S
C405 C407 1.327 . S
C405 H430 0.950 . S
C406 C405 1.349 . S
C406 C422 1.349 1_565 S
C407 C405 1.327 . S
C407 C426 1.429 . S
C407 H431 0.950 . S
C408 C425 1.574 . S
C408 C427 1.350 1_545 S
C408 H432 0.949 . S
H409 C413 0.949 . S
C410 C411 1.349 . S
C410 C412 1.327 . S
C410 H433 0.950 . S
C411 C410 1.349 . S
C411 C423 1.349 1_545 S
C412 C410 1.327 . S
C412 C428 1.442 . S
C412 H434 0.950 . S
C413 H409 0.949 . S
C413 C421 1.574 . S
C413 C429 1.369 1_565 S
H414 C422 0.950 . S
H415 C420 0.950 . S
H416 C421 0.949 . S
H417 C423 0.950 . S
H418 C424 0.950 . S
H419 C425 0.949 . S
C420 H415 0.950 . S
C420 C422 1.327 . S
C420 C426 1.429 1_545 S
C421 C413 1.574 . S
C421 H416 0.949 . S
C421 C427 1.378 . S
C422 C406 1.349 1_545 S
C422 H414 0.950 . S
C422 C420 1.327 . S
C423 C411 1.349 1_565 S
C423 H417 0.950 . S
C423 C424 1.327 . S
C424 H418 0.950 . S
C424 C423 1.327 . S
C424 C428 1.424 1_565 S
C425 C408 1.574 . S
C425 H419 0.949 . S
C425 C429 1.368 . S
C426 C407 1.429 . S
C426 C420 1.429 1_565 S
C426 C427 1.535 . S
C427 C408 1.350 1_565 S
C427 C421 1.378 . S
C427 C426 1.535 . S
C428 C412 1.442 . S
C428 C424 1.424 1_545 S
C428 C429 1.514 . S
C429 C413 1.369 1_545 S
C429 C425 1.368 . S
C429 C428 1.514 . S
H430 C405 0.950 . S
H431 C407 0.950 . S
H432 C408 0.949 . S
H433 C410 0.950 . S
H434 C412 0.950 . S
C435 C436 1.349 . S
C435 C437 1.327 . S
C435 H460 0.950 . S
C436 C435 1.349 . S
C436 C452 1.349 1_554 S
C437 C435 1.327 . S
C437 C456 1.429 1_554 S
C437 H461 0.950 . S
C438 C455 1.574 . S
C438 C457 1.368 . S
C438 H462 0.949 . S
H439 C443 0.949 . S
C440 C441 1.349 . S
C440 C442 1.327 . S
C440 H463 0.950 . S
C441 C440 1.349 . S
C441 C453 1.349 . S
C442 C440 1.327 . S
C442 C458 1.429 . S
C442 H464 0.950 . S
C443 H439 0.949 . S
C443 C451 1.574 . S
C443 C459 1.368 . S
H444 C452 0.950 . S
H445 C450 0.950 . S
H446 C451 0.949 . S
H447 C453 0.950 . S
H448 C454 0.950 . S
H449 C455 0.949 . S
C450 H445 0.950 . S
C450 C452 1.327 . S
C450 C456 1.429 . S
C451 C443 1.574 . S
C451 H446 0.949 . S
C451 C457 1.368 . S
C452 C436 1.349 1_556 S
C452 H444 0.950 . S
C452 C450 1.327 . S
C453 C441 1.349 . S
C453 H447 0.950 . S
C453 C454 1.327 . S
C454 H448 0.950 . S
C454 C453 1.327 . S
C454 C458 1.429 . S
C455 C438 1.574 . S
C455 H449 0.949 . S
C455 C459 1.368 . S
C456 C437 1.429 1_556 S
C456 C450 1.429 . S
C456 C457 1.523 . S
C457 C438 1.368 . S
C457 C451 1.368 . S
C457 C456 1.523 . S
C458 C442 1.429 . S
C458 C454 1.429 . S
C458 C459 1.523 . S
C459 C443 1.368 . S
C459 C455 1.368 . S
C459 C458 1.523 . S
H460 C435 0.950 . S
H461 C437 0.950 . S
H462 C438 0.949 . S
H463 C440 0.950 . S
H464 C442 0.950 . S
C465 C466 1.349 . S
C465 C467 1.327 . S
C465 H490 0.950 . S
C466 C465 1.349 . S
C466 C482 1.349 1_455 S
C467 C465 1.327 . S
C467 C486 1.429 . S
C467 H491 0.950 . S
C468 C485 1.574 . S
C468 C487 1.368 1_655 S
C468 H492 0.949 . S
H469 C473 0.949 . S
C470 C471 1.349 1_655 S
C470 C472 1.327 . S
C470 H493 0.950 . S
C471 C470 1.349 1_455 S
C471 C483 1.349 . S
C472 C470 1.327 . S
C472 C488 1.429 1_655 S
C472 H494 0.950 . S
C473 H469 0.949 . S
C473 C481 1.574 . S
C473 C489 1.368 . S
H474 C482 0.950 . S
H475 C480 0.950 . S
H476 C481 0.949 . S
H477 C483 0.950 . S
H478 C484 0.950 . S
H479 C485 0.949 . S
C480 H475 0.950 . S
C480 C482 1.327 . S
C480 C486 1.429 1_655 S
C481 C473 1.574 . S
C481 H476 0.949 . S
C481 C487 1.368 . S
C482 C466 1.349 1_655 S
C482 H474 0.950 . S
C482 C480 1.327 . S
C483 C471 1.349 . S
C483 H477 0.950 . S
C483 C484 1.327 . S
C484 H478 0.950 . S
C484 C483 1.327 . S
C484 C488 1.429 . S
C485 C468 1.574 . S
C485 H479 0.949 . S
C485 C489 1.368 1_655 S
C486 C467 1.429 . S
C486 C480 1.429 1_455 S
C486 C487 1.523 . S
C487 C468 1.368 1_455 S
C487 C481 1.368 . S
C487 C486 1.523 . S
C488 C472 1.429 1_455 S
C488 C484 1.429 . S
C488 C489 1.523 . S
C489 C473 1.368 . S
C489 C485 1.368 1_455 S
C489 C488 1.523 . S
H490 C465 0.950 . S
H491 C467 0.950 . S
H492 C468 0.949 . S
H493 C470 0.950 . S
H494 C472 0.950 . S
C495 C496 1.349 1_565 S
C495 C497 1.327 . S
C495 H520 0.950 . S
C496 C495 1.349 1_545 S
C496 C512 1.349 . S
C497 C495 1.327 . S
C497 C516 1.429 1_565 S
C497 H521 0.950 . S
C498 C515 1.574 . S
C498 C517 1.368 . S
C498 H522 0.949 . S
H499 C503 0.949 . S
C500 C501 1.349 . S
C500 C502 1.327 . S
C500 H523 0.950 . S
C501 C500 1.349 . S
C501 C513 1.349 1_545 S
C502 C500 1.327 . S
C502 C518 1.429 . S
C502 H524 0.950 . S
C503 H499 0.949 . S
C503 C511 1.574 . S
C503 C519 1.368 1_565 S
H504 C512 0.950 . S
H505 C510 0.950 . S
H506 C511 0.949 . S
H507 C513 0.950 . S
H508 C514 0.950 . S
H509 C515 0.949 . S
C510 H505 0.950 . S
C510 C512 1.327 . S
C510 C516 1.429 . S
C511 C503 1.574 . S
C511 H506 0.949 . S
C511 C517 1.368 1_565 S
C512 C496 1.349 . S
C512 H504 0.950 . S
C512 C510 1.327 . S
C513 C501 1.349 1_565 S
C513 H507 0.950 . S
C513 C514 1.327 . S
C514 H508 0.950 . S
C514 C513 1.327 . S
C514 C518 1.429 1_565 S
C515 C498 1.574 . S
C515 H509 0.949 . S
C515 C519 1.368 . S
C516 C497 1.429 1_545 S
C516 C510 1.429 . S
C516 C517 1.523 . S
C517 C498 1.368 . S
C517 C511 1.368 1_545 S
C517 C516 1.523 . S
C518 C502 1.429 . S
C518 C514 1.429 1_545 S
C518 C519 1.523 . S
C519 C503 1.368 1_545 S
C519 C515 1.368 . S
C519 C518 1.523 . S
H520 C495 0.950 . S
H521 C497 0.950 . S
H522 C498 0.949 . S
H523 C500 0.950 . S
H524 C502 0.950 . S
C525 C526 1.349 1_556 S
C525 C527 1.327 . S
C525 H550 0.950 . S
C526 C525 1.349 1_554 S
C526 C542 1.349 . S
C527 C525 1.327 . S
C527 C546 1.429 . S
C527 H551 0.950 . S
C528 C545 1.574 . S
C528 C547 1.368 . S
C528 H552 0.949 . S
H529 C533 0.949 . S
C530 C531 1.349 . S
C530 C532 1.327 . S
C530 H553 0.950 . S
C531 C530 1.349 . S
C531 C543 1.349 . S
C532 C530 1.327 . S
C532 C548 1.429 . S
C532 H554 0.950 . S
C533 H529 0.949 . S
C533 C541 1.574 . S
C533 C549 1.368 . S
H534 C542 0.950 . S
H535 C540 0.950 . S
H536 C541 0.949 . S
H537 C543 0.950 . S
H538 C544 0.950 . S
H539 C545 0.949 . S
C540 H535 0.950 . S
C540 C542 1.327 . S
C540 C546 1.429 1_554 S
C541 C533 1.574 . S
C541 H536 0.949 . S
C541 C547 1.368 . S
C542 C526 1.349 . S
C542 H534 0.950 . S
C542 C540 1.327 . S
C543 C531 1.349 . S
C543 H537 0.950 . S
C543 C544 1.327 . S
C544 H538 0.950 . S
C544 C543 1.327 . S
C544 C548 1.429 . S
C545 C528 1.574 . S
C545 H539 0.949 . S
C545 C549 1.368 . S
C546 C527 1.429 . S
C546 C540 1.429 1_556 S
C546 C547 1.523 . S
C547 C528 1.368 . S
C547 C541 1.368 . S
C547 C546 1.523 . S
C548 C532 1.429 . S
C548 C544 1.429 . S
C548 C549 1.523 . S
C549 C533 1.368 . S
C549 C545 1.368 . S
C549 C548 1.523 . S
H550 C525 0.950 . S
H551 C527 0.950 . S
H552 C528 0.949 . S
H553 C530 0.950 . S
H554 C532 0.950 . S
C555 C556 1.349 . S
C555 C557 1.327 . S
C555 H580 0.950 . S
C556 C555 1.349 . S
C556 C572 1.349 1_655 S
C557 C555 1.327 . S
C557 C576 1.429 . S
C557 H581 0.950 . S
C558 C575 1.574 . S
C558 C577 1.362 1_455 S
C558 H582 0.949 . S
H559 C563 0.949 . S
C560 C561 1.349 . S
C560 C562 1.327 . S
C560 H583 0.950 . S
C561 C560 1.349 . S
C561 C573 1.349 1_455 S
C562 C560 1.327 . S
C562 C578 1.432 . S
C562 H584 0.950 . S
C563 H559 0.949 . S
C563 C571 1.574 . S
C563 C579 1.368 1_655 S
H564 C572 0.950 . S
H565 C570 0.950 . S
H566 C571 0.949 . S
H567 C573 0.950 . S
H568 C574 0.950 . S
H569 C575 0.949 . S
C570 H565 0.950 . S
C570 C572 1.327 . S
C570 C576 1.429 1_455 S
C571 C563 1.574 . S
C571 H566 0.949 . S
C571 C577 1.384 . S
C572 C556 1.349 1_455 S
C572 H564 0.950 . S
C572 C570 1.327 . S
C573 C561 1.349 1_655 S
C573 H567 0.950 . S
C573 C574 1.327 . S
C574 H568 0.950 . S
C574 C573 1.327 . S
C574 C578 1.417 1_655 S
C575 C558 1.574 . S
C575 H569 0.949 . S
C575 C579 1.368 . S
C576 C557 1.429 . S
C576 C570 1.429 1_655 S
C576 C577 1.512 . S
C577 C558 1.362 1_655 S
C577 C571 1.384 . S
C577 C576 1.512 . S
C578 C562 1.432 . S
C578 C574 1.417 1_455 S
C578 C579 1.531 . S
C579 C563 1.368 1_455 S
C579 C575 1.368 . S
C579 C578 1.531 . S
H580 C555 0.950 . S
H581 C557 0.950 . S
H582 C558 0.949 . S
H583 C560 0.950 . S
H584 C562 0.950 . S
C231 C92 1.389 . S
C226 C10 1.396 . S
C256 C17 1.396 . S
C261 C136 1.378 . S
C286 C36 1.398 . S
C291 C198 1.379 . S
C316 C5 1.397 1_455 S
C321 C74 1.372 . S
C351 C154 1.379 . S
C346 C16 1.398 1_545 S
C376 C31 1.396 . S
C381 C216 1.378 . S
C411 C130 1.660 . S
C406 C30 1.774 . S
C436 C3 1.775 . S
C441 C192 1.658 . S
C471 C68 1.660 1_455 S
C466 C18 1.776 . S
C501 C148 1.659 . S
C496 C29 1.776 . S
C531 C210 1.659 . S
C526 C4 1.775 . S
C556 C23 1.774 . S
C561 C86 1.658 1_455 S
