# Generated by pormake.
# Topology anh, (6,3)-cn, num edge types: 1
# Building blocks:
#     Node 0, Type 0, BuildingBlock: BETGAK_clean_sbu_0, # of connection points: 6
#     Node 1, Type 0, BuildingBlock: BETGAK_clean_sbu_0, # of connection points: 6
#     Node 2, Type 0, BuildingBlock: BETGAK_clean_sbu_0, # of connection points: 6
#     Node 3, Type 1, BuildingBlock: CUQRIR_clean_linker_1, # of connection points: 3
#     Node 4, Type 1, BuildingBlock: CUQRIR_clean_linker_1, # of connection points: 3
#     Node 5, Type 1, BuildingBlock: CUQRIR_clean_linker_1, # of connection points: 3
#     Node 6, Type 1, BuildingBlock: CUQRIR_clean_linker_1, # of connection points: 3
#     Node 7, Type 1, BuildingBlock: CUQRIR_clean_linker_1, # of connection points: 3
#     Node 8, Type 1, BuildingBlock: CUQRIR_clean_linker_1, # of connection points: 3
#     Edge 9, Type (0, 1), BuildingBlock: AJUNOK_clean_linker_0, # of connection points: 2
#     Edge 10, Type (0, 1), BuildingBlock: AJUNOK_clean_linker_0, # of connection points: 2
#     Edge 11, Type (0, 1), BuildingBlock: AJUNOK_clean_linker_0, # of connection points: 2
#     Edge 12, Type (0, 1), BuildingBlock: AJUNOK_clean_linker_0, # of connection points: 2
#     Edge 13, Type (0, 1), BuildingBlock: AJUNOK_clean_linker_0, # of connection points: 2
#     Edge 14, Type (0, 1), BuildingBlock: AJUNOK_clean_linker_0, # of connection points: 2
#     Edge 15, Type (0, 1), BuildingBlock: AJUNOK_clean_linker_0, # of connection points: 2
#     Edge 16, Type (0, 1), BuildingBlock: AJUNOK_clean_linker_0, # of connection points: 2
#     Edge 17, Type (0, 1), BuildingBlock: AJUNOK_clean_linker_0, # of connection points: 2
#     Edge 18, Type (0, 1), BuildingBlock: AJUNOK_clean_linker_0, # of connection points: 2
#     Edge 19, Type (0, 1), BuildingBlock: AJUNOK_clean_linker_0, # of connection points: 2
#     Edge 20, Type (0, 1), BuildingBlock: AJUNOK_clean_linker_0, # of connection points: 2
#     Edge 21, Type (0, 1), BuildingBlock: AJUNOK_clean_linker_0, # of connection points: 2
#     Edge 22, Type (0, 1), BuildingBlock: AJUNOK_clean_linker_0, # of connection points: 2
#     Edge 23, Type (0, 1), BuildingBlock: AJUNOK_clean_linker_0, # of connection points: 2
#     Edge 24, Type (0, 1), BuildingBlock: AJUNOK_clean_linker_0, # of connection points: 2
#     Edge 25, Type (0, 1), BuildingBlock: AJUNOK_clean_linker_0, # of connection points: 2
#     Edge 26, Type (0, 1), BuildingBlock: AJUNOK_clean_linker_0, # of connection points: 2
# Relax obj value: 0.281
# Max RMSD: 0.227
# Mean RMSD: 0.173
data_MOF--net-anh--node1-BETGAK_clean_sbu_0--node2-CUQRIR_clean_linker_1--edge1-AJUNOK_clean_linker_0
_symmetry_space_group_name_H-M    P1
_symmetry_Int_Tables_number       1
_symmetry_cell_setting            triclinic
loop_
_symmetry_equiv_pos_as_xyz
'x, y, z'
_cell_length_a     21.846369
_cell_length_b     26.600041
_cell_length_c     33.84431
_cell_angle_alpha  87.577752
_cell_angle_beta   90.80861
_cell_angle_gamma 133.41416
loop_
_atom_site_label
_atom_site_type_symbol
_atom_site_fract_x
_atom_site_fract_y
_atom_site_fract_z
_atom_type_partial_charge
La0 La 0.21614 0.50685 0.16268 0.0
La1 La 0.12857 0.53942 0.15512 0.0
C2 C 0.33104 0.50736 0.16329 0.0
C3 C 0.40028 0.53782 0.19105 0.0
C4 C 0.38438 0.51446 0.23102 0.0
C5 C 0.44811 0.5279 0.25347 0.0
C6 C 0.52575 0.56048 0.23504 0.0
C7 C 0.54679 0.59944 0.1993 0.0
C8 C 0.48351 0.58639 0.17687 0.0
C9 C 0.16114 0.50166 0.23396 0.0
C10 C 0.31369 0.66774 0.16754 0.0
C11 C 1.01324 0.53756 0.1485 0.0
C12 C 0.94506 0.49735 0.11984 0.0
C13 C 0.96247 0.50992 0.07881 0.0
C14 C 0.89682 0.47246 0.05205 0.0
C15 C 0.81298 0.422 0.06589 0.0
C16 C 0.79699 0.40391 0.1067 0.0
C17 C 0.86231 0.44193 0.13342 0.0
C18 C 0.18672 0.54459 0.08414 0.0
C19 C 1.02753 0.37798 0.16063 0.0
O20 O 0.2553 0.45559 0.17732 0.0
O21 O 0.33463 0.5505 0.14092 0.0
O22 O 0.16408 0.4585 0.22146 0.0
O23 O 0.19092 0.54803 0.20713 0.0
O24 O 0.31839 0.62321 0.15647 0.0
O25 O 0.23788 0.64197 0.17632 0.0
O26 O 1.08882 0.58816 0.13383 0.0
O27 O 1.01207 0.5008 0.17577 0.0
O28 O 0.19311 0.59195 0.09832 0.0
O29 O 0.15153 0.49638 0.11051 0.0
O30 O 1.02716 0.42572 0.16932 0.0
O31 O 1.10025 0.40048 0.14857 0.0
H32 H 0.32135 0.48043 0.2438 0.0
H33 H 0.43145 0.50153 0.28223 0.0
H34 H 0.60764 0.62992 0.18482 0.0
H35 H 0.49825 0.60847 0.14692 0.0
H36 H 1.02631 0.55046 0.06727 0.0
H37 H 0.9108 0.48745 0.02087 0.0
H38 H 0.73321 0.36523 0.11857 0.0
H39 H 0.84772 0.42951 0.16482 0.0
La40 La 0.79643 0.09528 0.46934 0.0
La41 La 0.68924 0.12083 0.45569 0.0
C42 C 0.86221 0.05273 0.49781 0.0
C43 C 0.83565 0.9879 0.51469 0.0
C44 C 0.86363 0.96036 0.49623 0.0
C45 C 0.84431 0.90173 0.51266 0.0
C46 C 0.79751 0.86979 0.5483 0.0
C47 C 0.76734 0.89608 0.5663 0.0
C48 C 0.78642 0.95479 0.54972 0.0
C49 C 0.78688 0.11932 0.39374 0.0
C50 C 0.59692 0.96543 0.45744 0.0
C51 C 0.62324 0.1667 0.43546 0.0
C52 C 0.6383 0.22536 0.45035 0.0
C53 C 0.58778 0.23774 0.43859 0.0
C54 C 0.59755 0.28973 0.45593 0.0
C55 C 0.65783 0.32968 0.4853 0.0
C56 C 0.70987 0.31829 0.4961 0.0
C57 C 0.69988 0.26634 0.47893 0.0
C58 C 0.69715 0.09508 0.53132 0.0
C59 C 0.89197 0.25275 0.4591 0.0
O60 O 0.84988 0.05447 0.46007 0.0
O61 O 0.8449 0.08231 0.51843 0.0
O62 O 0.85415 0.13939 0.41025 0.0
O63 O 0.72704 0.08359 0.41886 0.0
O64 O 0.66679 0.98812 0.47478 0.0
O65 O 0.59733 1.01152 0.44046 0.0
O66 O 0.58963 0.11575 0.46149 0.0
O67 O 0.68632 0.1824 0.4162 0.0
O68 O 0.63101 0.07491 0.51399 0.0
O69 O 0.75826 0.13276 0.50683 0.0
O70 O 0.8164 0.22837 0.45026 0.0
O71 O 0.89938 0.20904 0.4711 0.0
H72 H 0.90135 0.9847 0.46917 0.0
H73 H 0.86622 0.88139 0.49744 0.0
H74 H 0.73056 0.87212 0.59361 0.0
H75 H 0.76362 0.97466 0.56462 0.0
H76 H 0.53973 0.20634 0.4167 0.0
H77 H 0.55745 0.2982 0.44672 0.0
H78 H 0.75635 0.34798 0.51883 0.0
H79 H 0.73865 0.25683 0.48883 0.0
La80 La 0.68972 0.64733 0.8559 0.0
La81 La 0.56527 0.49889 0.85979 0.0
C82 C 0.77508 0.76988 0.82786 0.0
C83 C 0.76432 0.81694 0.81403 0.0
C84 C 0.82105 0.8696 0.78538 0.0
C85 C 0.81074 0.91304 0.76992 0.0
C86 C 0.74299 0.90457 0.78258 0.0
C87 C 0.68677 0.85228 0.81178 0.0
C88 C 0.69708 0.80867 0.82724 0.0
C89 C 0.64736 0.59364 0.92797 0.0
C90 C 0.48052 0.56752 0.86417 0.0
C91 C 0.48986 0.37368 0.87174 0.0
C92 C 0.50955 0.33479 0.8554 0.0
C93 C 0.50265 0.32304 0.81469 0.0
C94 C 0.52818 0.29197 0.79886 0.0
C95 C 0.56172 0.27198 0.82314 0.0
C96 C 0.56729 0.28251 0.86396 0.0
C97 C 0.54149 0.31352 0.87988 0.0
C98 C 0.60772 0.55421 0.78715 0.0
C99 C 0.77414 0.57763 0.86198 0.0
O100 O 0.76625 0.75353 0.86576 0.0
O101 O 0.73927 0.71634 0.80643 0.0
O102 O 0.72361 0.65022 0.91737 0.0
O103 O 0.59833 0.57215 0.89953 0.0
O104 O 0.56322 0.62555 0.85452 0.0
O105 O 0.4683 0.51003 0.87144 0.0
O106 O 0.46463 0.39473 0.84656 0.0
O107 O 0.54471 0.42193 0.89619 0.0
O108 O 0.53207 0.49986 0.79886 0.0
O109 O 0.65647 0.57346 0.81555 0.0
O110 O 0.68988 0.51929 0.86519 0.0
O111 O 0.78917 0.63666 0.8567 0.0
H112 H 0.87314 0.8767 0.77459 0.0
H113 H 0.85517 0.9527 0.74756 0.0
H114 H 0.63528 0.84557 0.823 0.0
H115 H 0.65252 0.7685 0.84935 0.0
H116 H 0.47903 0.33906 0.79471 0.0
H117 H 0.52338 0.28498 0.76729 0.0
H118 H 0.59134 0.26656 0.88365 0.0
H119 H 0.54776 0.32188 0.91132 0.0
C120 C 0.67615 1.02399 0.17126 0.0
N121 N 0.72834 0.07869 0.19564 0.0
N122 N 0.61228 0.96324 0.19214 0.0
C123 C 0.68546 1.03038 0.1271 0.0
C124 C 0.62832 0.98317 0.22996 0.0
N125 N 0.69696 0.05219 0.2322 0.0
C126 C 0.5793 0.93363 0.26529 0.0
H127 H 0.70492 0.07946 0.11578 0.0
H128 H 0.62582 0.98567 0.11326 0.0
H129 H 0.7356 1.03181 0.11878 0.0
H130 H 0.54793 0.88017 0.25837 0.0
H131 H 0.53009 0.93308 0.27404 0.0
H132 H 0.62108 0.94993 0.29078 0.0
C133 C 0.72105 0.5902 0.56206 0.0
N134 N 0.71901 0.62055 0.59246 0.0
N135 N 0.69257 0.52794 0.57414 0.0
C136 C 0.74663 0.61953 0.52015 0.0
C137 C 0.67337 0.5216 0.61299 0.0
N138 N 0.6889 0.57769 0.62402 0.0
C139 C 0.64242 0.46202 0.64059 0.0
H140 H 0.71308 0.57754 0.49888 0.0
H141 H 0.81533 0.65193 0.51623 0.0
H142 H 0.73364 0.65263 0.51347 0.0
H143 H 0.65611 0.43245 0.62848 0.0
H144 H 0.57331 0.42682 0.64513 0.0
H145 H 0.67211 0.48114 0.66987 0.0
C146 C 0.13148 0.5757 0.85974 0.0
N147 N 0.17697 0.56385 0.88317 0.0
N148 N 1.0648 0.56544 0.87955 0.0
C149 C 0.15041 0.59557 0.81666 0.0
C150 C 1.07488 0.54807 0.91613 0.0
N151 N 0.13736 0.54673 0.91831 0.0
C152 C 1.02484 0.53574 0.95196 0.0
H153 H 0.20158 0.65279 0.81302 0.0
H154 H 1.09395 0.57869 0.80134 0.0
H155 H 0.17215 0.57262 0.80326 0.0
H156 H 0.96871 0.47937 0.95604 0.0
H157 H 1.00318 0.56303 0.94841 0.0
H158 H 1.06217 0.5535 0.97927 0.0
C159 C 0.24486 0.60674 0.45555 0.0
N160 N 0.19035 0.55344 0.43059 0.0
N161 N 0.30507 0.66882 0.43498 0.0
C162 C 0.23724 0.5993 0.49978 0.0
C163 C 0.28519 0.65113 0.39686 0.0
N164 N 0.21594 0.58251 0.39409 0.0
C165 C 0.33725 0.70085 0.36196 0.0
H166 H 0.17159 0.55343 0.50965 0.0
H167 H 0.25776 0.64675 0.51218 0.0
H168 H 0.27929 0.59272 0.51128 0.0
H169 H 0.40309 0.74558 0.37039 0.0
H170 H 0.30909 0.72078 0.35061 0.0
H171 H 0.3382 0.67452 0.33775 0.0
C172 C 0.68508 0.11317 0.76241 0.0
N173 N 0.70127 0.0901 0.73315 0.0
N174 N 0.67209 0.15316 0.74727 0.0
C175 C 0.67734 0.09327 0.80557 0.0
C176 C 0.68084 0.15335 0.70768 0.0
N177 N 0.69907 0.1155 0.69899 0.0
C178 C 0.6686 0.18858 0.67731 0.0
H179 H 0.64324 0.10263 0.82265 0.0
H180 H 0.74148 0.12454 0.81759 0.0
H181 H 0.64412 0.03788 0.80946 0.0
H182 H 0.68088 0.23256 0.68995 0.0
H183 H 0.6025 0.15054 0.66728 0.0
H184 H 0.71072 0.20759 0.65117 0.0
C185 C 0.57954 0.40978 0.12592 0.0
N186 N 0.57798 0.41661 0.08602 0.0
N187 N 0.55289 0.43617 0.14405 0.0
C188 C 0.6225 0.39046 0.147 0.0
C189 C 0.5361 0.46006 0.11397 0.0
N190 N 0.55314 0.4497 0.07872 0.0
C191 C 0.51175 0.50021 0.11928 0.0
H192 H 0.59223 0.33752 0.13965 0.0
H193 H 0.61973 0.39208 0.17956 0.0
H194 H 0.68944 0.42697 0.13699 0.0
H195 H 0.56886 0.55439 0.12576 0.0
H196 H 0.46685 0.47732 0.14468 0.0
H197 H 0.48277 0.50052 0.09219 0.0
C198 C 0.49819 0.45407 0.24046 0.0
C199 C 0.55979 0.5274 0.24028 0.0
C200 C 0.50017 0.42013 0.21078 0.0
C201 C 0.56796 0.458 0.18381 0.0
H202 H 0.43942 0.42428 0.25694 0.0
H203 H 0.4442 0.36666 0.20565 0.0
S204 S 0.76887 0.64036 0.19063 0.0
N205 N 0.7075 0.62884 0.22551 0.0
N206 N 0.7128 0.56491 0.16997 0.0
C207 C 0.64075 0.52614 0.19218 0.0
C208 C 0.63773 0.56051 0.22206 0.0
C209 C 0.9644 0.37503 0.43299 0.0
C210 C 0.96952 0.33072 0.45391 0.0
C211 C 1.03573 0.44706 0.42605 0.0
C212 C 1.11627 0.47961 0.44028 0.0
H213 H 0.90471 0.3537 0.42107 0.0
H214 H 1.02781 0.47773 0.40922 0.0
S215 S 0.16683 0.38959 0.4966 0.0
N216 N 1.06483 0.32715 0.48862 0.0
N217 N 0.19673 0.4612 0.47606 0.0
C218 C 0.12252 0.43659 0.46161 0.0
C219 C 1.05016 0.36295 0.46823 0.0
C220 C 0.80162 1.02369 0.76351 0.0
C221 C 0.73243 0.95123 0.7659 0.0
C222 C 0.79205 0.06886 0.75039 0.0
C223 C 0.71339 0.04337 0.73867 0.0
H224 H 0.863 0.04582 0.77328 0.0
H225 H 0.84569 0.12425 0.75082 0.0
S226 S 0.51359 0.85904 0.73706 0.0
N227 N 0.58337 0.85661 0.75301 0.0
N228 N 0.56573 0.94191 0.72975 0.0
C229 C 0.64445 0.97145 0.73987 0.0
C230 C 0.6539 0.92533 0.75311 0.0
C231 C 0.76004 0.46781 0.03272 0.0
C232 C 0.74569 0.40848 0.04247 0.0
C233 C 0.69949 0.46911 0.0426 0.0
C234 C 0.62063 0.40936 0.05837 0.0
H235 H 0.82331 0.51727 0.02618 0.0
H236 H 0.72012 0.51917 0.04359 0.0
S237 S 0.53891 0.23318 0.06683 0.0
N238 N 0.63917 0.28355 0.05371 0.0
N239 N 0.5214 0.28446 0.06825 0.0
C240 C 0.59861 0.34605 0.05692 0.0
C241 C 0.66187 0.34549 0.04882 0.0
C242 C 0.52006 0.83676 0.46667 0.0
C243 C 0.5185 0.88796 0.45568 0.0
C244 C 0.44859 0.76465 0.46263 0.0
C245 C 0.37151 0.73993 0.44799 0.0
H246 H 0.57789 0.85254 0.47729 0.0
H247 H 0.45481 0.7282 0.46939 0.0
S248 S 0.32977 0.84947 0.4176 0.0
N249 N 0.42906 0.90584 0.43127 0.0
N250 N 0.29734 0.77238 0.42423 0.0
C251 C 0.36813 0.79001 0.43845 0.0
C252 C 0.44047 0.86305 0.44217 0.0
C253 C 0.53908 0.18743 0.77832 0.0
C254 C 0.59034 0.2402 0.80549 0.0
C255 C 0.56573 0.1587 0.75986 0.0
C256 C 0.64464 0.18154 0.76777 0.0
H257 H 0.4777 0.16809 0.77124 0.0
H258 H 0.52452 0.11838 0.73911 0.0
S259 S 0.80443 0.31965 0.83497 0.0
N260 N 0.72533 0.3151 0.83841 0.0
N261 N 0.77446 0.26038 0.80378 0.0
C262 C 0.6964 0.23374 0.79488 0.0
C263 C 0.66948 0.26318 0.81373 0.0
C264 C 0.69694 0.74744 0.57699 0.0
C265 C 0.77993 0.80877 0.56609 0.0
C266 C 0.67782 0.68653 0.58871 0.0
C267 C 0.74113 0.68543 0.59006 0.0
H268 H 0.64587 0.7455 0.5744 0.0
H269 H 0.61276 0.63908 0.59446 0.0
S270 S 0.96886 0.83326 0.56987 0.0
N271 N 0.92682 0.86576 0.56179 0.0
N272 N 0.88978 0.75081 0.58319 0.0
C273 C 0.82452 0.74699 0.58172 0.0
C274 C 0.84423 0.80883 0.56986 0.0
C275 C 0.839 0.51587 0.87672 0.0
C276 C 0.85128 0.57559 0.86431 0.0
C277 C 0.90505 0.51286 0.87987 0.0
C278 C 0.99493 0.56843 0.86998 0.0
H279 H 0.77535 0.46882 0.88521 0.0
H280 H 0.88385 0.46418 0.89094 0.0
S281 S 1.07291 0.74078 0.8353 0.0
N282 N 0.97126 0.69469 0.842 0.0
N283 N 1.08789 0.68896 0.84697 0.0
C284 C 1.00885 0.62871 0.85721 0.0
C285 C 0.94131 0.63201 0.85458 0.0
C286 C 0.38502 0.79116 0.18291 0.0
C287 C 0.39205 0.74509 0.17055 0.0
C288 C 0.45657 0.86271 0.18747 0.0
C289 C 0.53958 0.89298 0.1795 0.0
H290 H 0.3235 0.7716 0.19003 0.0
H291 H 0.44712 0.89457 0.1986 0.0
S292 S 0.59558 0.79748 0.14638 0.0
N293 N 0.4916 0.73727 0.15012 0.0
N294 N 0.62421 0.87051 0.1588 0.0
C295 C 0.54787 0.84826 0.16646 0.0
C296 C 0.47501 0.7751 0.16196 0.0
C297 C 0.74402 0.44869 0.51039 0.0
C298 C 0.66468 0.38124 0.50615 0.0
C299 C 0.75263 0.49688 0.53218 0.0
C300 C 0.6824 0.47891 0.55071 0.0
H301 H 0.79982 0.46413 0.49693 0.0
H302 H 0.81459 0.54811 0.53522 0.0
S303 S 0.46145 0.31012 0.54862 0.0
N304 N 0.51475 0.2994 0.52243 0.0
N305 N 0.53142 0.39076 0.56282 0.0
C306 C 0.60287 0.41233 0.54632 0.0
C307 C 0.59386 0.36328 0.52412 0.0
C308 C 0.32122 0.51525 0.88898 0.0
C309 C 0.40173 0.5673 0.86774 0.0
C310 C 0.25236 0.51464 0.89314 0.0
C311 C 0.25051 0.56486 0.87579 0.0
H312 H 0.3105 0.47288 0.90383 0.0
H313 H 0.19765 0.47176 0.91067 0.0
S314 S 0.44126 0.71591 0.81581 0.0
N315 N 0.46915 0.6735 0.82877 0.0
N316 N 0.3464 0.67147 0.83524 0.0
C317 C 0.33012 0.61724 0.85402 0.0
C318 C 0.40131 0.61851 0.8505 0.0
C319 C 0.94543 0.24795 0.15692 0.0
C320 C 0.94843 0.30056 0.16772 0.0
C321 C 0.87336 0.17606 0.16503 0.0
C322 C 0.80059 0.15266 0.18492 0.0
H323 H 0.99964 0.26235 0.14227 0.0
H324 H 0.87543 0.13848 0.15652 0.0
S325 S 0.77204 0.26654 0.2186 0.0
N326 N 0.86793 0.32131 0.19869 0.0
N327 N 0.73565 0.18845 0.21389 0.0
C328 C 0.8022 0.20426 0.19544 0.0
C329 C 0.87479 0.27715 0.18688 0.0
C330 C 0.24284 0.59979 0.01611 0.0
C331 C 0.18576 0.53868 0.04024 0.0
C332 C 0.2328 0.60044 0.97489 0.0
C333 C 0.16463 0.5402 0.95596 0.0
H334 H 0.29293 0.64858 0.02959 0.0
H335 H 0.27419 0.64958 0.95819 0.0
S336 S 1.00087 0.36564 0.00451 0.0
N337 N 1.06205 0.41507 0.0412 0.0
N338 N 1.04254 0.4168 0.96403 0.0
C339 C 1.11057 0.47786 0.97922 0.0
C340 C 0.12119 0.47697 0.02122 0.0
C341 C 0.69966 0.09667 0.33585 0.0
C342 C 0.77433 0.11707 0.35031 0.0
C343 C 0.67907 0.08285 0.29582 0.0
C344 C 0.73149 0.08762 0.26884 0.0
H345 H 0.65485 0.08821 0.35593 0.0
H346 H 0.61872 0.06336 0.28635 0.0
S347 S 0.93855 0.14674 0.29039 0.0
N348 N 0.90561 0.14915 0.33329 0.0
N349 N 0.86437 0.11992 0.25846 0.0
C350 C 0.80902 0.11281 0.28218 0.0
C351 C 0.83095 0.12815 0.32287 0.0
C352 C 0.57048 0.54102 0.71603 0.0
C353 C 0.63337 0.57277 0.74477 0.0
C354 C 0.59024 0.54787 0.67577 0.0
C355 C 0.67352 0.58733 0.66281 0.0
H356 H 0.50482 0.50771 0.72482 0.0
H357 H 0.53968 0.51888 0.65478 0.0
S358 S 0.86244 0.68602 0.72491 0.0
N359 N 0.78365 0.64947 0.75673 0.0
N360 N 0.81993 0.66211 0.68073 0.0
C361 C 0.73764 0.62297 0.69064 0.0
C362 C 0.71778 0.61583 0.73177 0.0
C363 C 0.77745 0.1403 0.59531 0.0
C364 C 0.70143 0.09133 0.57523 0.0
C365 C 0.77774 0.14408 0.63686 0.0
C366 C 0.70238 0.09857 0.65958 0.0
H367 H 0.83612 0.17855 0.57871 0.0
H368 H 0.83626 0.18562 0.65106 0.0
S369 S 0.48849 0.95714 0.62203 0.0
N370 N 0.55009 0.99234 0.5821 0.0
N371 N 0.55145 1.00142 0.65936 0.0
C372 C 0.62733 0.04708 0.64012 0.0
C373 C 0.62672 0.04289 0.59817 0.0
C374 C 0.54486 0.48929 0.97259 0.0
C375 C 0.61976 0.55981 0.9678 0.0
C376 C 0.52194 0.4534 0.00924 0.0
C377 C 0.57059 0.48803 0.04251 0.0
H378 H 0.50498 0.46104 0.94766 0.0
H379 H 0.46676 0.39829 0.0116 0.0
S380 S 0.7645 0.6743 0.04727 0.0
N381 N 0.73856 0.66396 0.00022 0.0
N382 N 0.69138 0.59747 0.06985 0.0
C383 C 0.64125 0.5597 0.03896 0.0
C384 C 0.66704 0.59544 0.00133 0.0
C385 C 0.15046 0.55593 0.28858 0.0
C386 C 0.15957 0.51139 0.27667 0.0
C387 C 0.16016 0.57327 0.32826 0.0
C388 C 0.18137 0.54809 0.35724 0.0
H389 H 0.13881 0.57953 0.26687 0.0
H390 H 0.15676 0.61039 0.33599 0.0
S391 S 0.20527 0.42532 0.34225 0.0
N392 N 0.18267 0.43693 0.29803 0.0
N393 N 0.20579 0.47327 0.37195 0.0
C394 C 0.18563 0.50039 0.34625 0.0
C395 C 0.1738 0.48129 0.30606 0.0
loop_
_geom_bond_atom_site_label_1
_geom_bond_atom_site_label_2
_geom_bond_distance
_geom_bond_site_symmetry_2
_ccdc_geom_bond_type
La0 C2 2.928 . S
La0 O20 2.521 . S
La0 O21 2.628 . S
La0 O22 2.554 . S
La0 O23 2.757 1_455 S
La0 O24 2.470 . S
La0 O29 2.482 . S
La0 O31 2.503 1_455 S
La1 C11 2.928 . S
La1 O23 2.482 . S
La1 O25 2.503 1_655 S
La1 O26 2.521 . S
La1 O27 2.628 . S
La1 O28 2.554 . S
La1 O29 2.757 1_655 S
La1 O30 2.470 . S
C2 La0 2.928 . S
C2 C3 1.503 . S
C2 O20 1.261 . S
C2 O21 1.243 . S
C3 C2 1.503 . S
C3 C4 1.394 . S
C3 C8 1.373 . S
C4 C3 1.394 . S
C4 C5 1.380 . S
C4 H32 0.930 . S
C5 C4 1.380 . S
C5 C6 1.376 . S
C5 H33 0.930 . S
C6 C5 1.376 . S
C6 C7 1.370 . S
C7 C6 1.370 . S
C7 C8 1.396 . S
C7 H34 0.929 . S
C8 C3 1.373 . S
C8 C7 1.396 . S
C8 H35 0.929 . S
C9 O22 1.240 . S
C9 O23 1.289 1_455 S
C10 O24 1.258 . S
C10 O25 1.256 . S
C11 La1 2.928 . S
C11 C12 1.503 . S
C11 O26 1.261 . S
C11 O27 1.243 . S
C12 C11 1.503 . S
C12 C13 1.394 . S
C12 C17 1.373 . S
C13 C12 1.394 . S
C13 C14 1.380 . S
C13 H36 0.930 . S
C14 C13 1.380 . S
C14 C15 1.376 . S
C14 H37 0.930 . S
C15 C14 1.376 . S
C15 C16 1.370 . S
C16 C15 1.370 . S
C16 C17 1.396 . S
C16 H38 0.929 . S
C17 C12 1.373 . S
C17 C16 1.396 . S
C17 H39 0.929 . S
C18 O28 1.240 1_455 S
C18 O29 1.289 . S
C19 O30 1.258 . S
C19 O31 1.256 . S
O20 La0 2.521 . S
O20 C2 1.261 . S
O21 La0 2.628 . S
O21 C2 1.243 . S
O22 La0 2.554 . S
O22 C9 1.240 . S
O23 La0 2.757 1_655 S
O23 La1 2.482 . S
O23 C9 1.289 1_655 S
O24 La0 2.470 . S
O24 C10 1.258 . S
O25 La1 2.503 1_455 S
O25 C10 1.256 . S
O26 La1 2.521 . S
O26 C11 1.261 . S
O27 La1 2.628 . S
O27 C11 1.243 . S
O28 La1 2.554 . S
O28 C18 1.240 1_655 S
O29 La0 2.482 . S
O29 La1 2.757 1_455 S
O29 C18 1.289 . S
O30 La1 2.470 . S
O30 C19 1.258 . S
O31 La0 2.503 1_655 S
O31 C19 1.256 . S
H32 C4 0.930 . S
H33 C5 0.930 . S
H34 C7 0.929 . S
H35 C8 0.929 . S
H36 C13 0.930 . S
H37 C14 0.930 . S
H38 C16 0.929 . S
H39 C17 0.929 . S
La40 C42 2.928 1_545 S
La40 O60 2.521 1_545 S
La40 O61 2.628 1_545 S
La40 O62 2.554 . S
La40 O63 2.757 . S
La40 O64 2.470 1_545 S
La40 O69 2.482 . S
La40 O71 2.503 . S
La41 C51 2.928 . S
La41 O63 2.482 . S
La41 O65 2.503 1_545 S
La41 O66 2.521 . S
La41 O67 2.628 . S
La41 O68 2.554 . S
La41 O69 2.757 . S
La41 O70 2.470 . S
C42 La40 2.928 1_565 S
C42 C43 1.503 . S
C42 O60 1.261 . S
C42 O61 1.243 . S
C43 C42 1.503 . S
C43 C44 1.394 . S
C43 C48 1.373 . S
C44 C43 1.394 . S
C44 C45 1.380 . S
C44 H72 0.930 . S
C45 C44 1.380 . S
C45 C46 1.376 . S
C45 H73 0.930 . S
C46 C45 1.376 . S
C46 C47 1.370 . S
C47 C46 1.370 . S
C47 C48 1.396 . S
C47 H74 0.929 . S
C48 C43 1.373 . S
C48 C47 1.396 . S
C48 H75 0.929 . S
C49 O62 1.240 . S
C49 O63 1.289 . S
C50 O64 1.258 . S
C50 O65 1.256 . S
C51 La41 2.928 . S
C51 C52 1.503 . S
C51 O66 1.261 . S
C51 O67 1.243 . S
C52 C51 1.503 . S
C52 C53 1.394 . S
C52 C57 1.373 . S
C53 C52 1.394 . S
C53 C54 1.380 . S
C53 H76 0.930 . S
C54 C53 1.380 . S
C54 C55 1.376 . S
C54 H77 0.930 . S
C55 C54 1.376 . S
C55 C56 1.370 . S
C56 C55 1.370 . S
C56 C57 1.396 . S
C56 H78 0.929 . S
C57 C52 1.373 . S
C57 C56 1.396 . S
C57 H79 0.929 . S
C58 O68 1.240 . S
C58 O69 1.289 . S
C59 O70 1.258 . S
C59 O71 1.256 . S
O60 La40 2.521 1_565 S
O60 C42 1.261 . S
O61 La40 2.628 1_565 S
O61 C42 1.243 . S
O62 La40 2.554 . S
O62 C49 1.240 . S
O63 La40 2.757 . S
O63 La41 2.482 . S
O63 C49 1.289 . S
O64 La40 2.470 1_565 S
O64 C50 1.258 . S
O65 La41 2.503 1_565 S
O65 C50 1.256 . S
O66 La41 2.521 . S
O66 C51 1.261 . S
O67 La41 2.628 . S
O67 C51 1.243 . S
O68 La41 2.554 . S
O68 C58 1.240 . S
O69 La40 2.482 . S
O69 La41 2.757 . S
O69 C58 1.289 . S
O70 La41 2.470 . S
O70 C59 1.258 . S
O71 La40 2.503 . S
O71 C59 1.256 . S
H72 C44 0.930 . S
H73 C45 0.930 . S
H74 C47 0.929 . S
H75 C48 0.929 . S
H76 C53 0.930 . S
H77 C54 0.930 . S
H78 C56 0.929 . S
H79 C57 0.929 . S
La80 C82 2.928 . S
La80 O100 2.521 . S
La80 O101 2.628 . S
La80 O102 2.554 . S
La80 O103 2.757 . S
La80 O104 2.470 . S
La80 O109 2.482 . S
La80 O111 2.503 . S
La81 C91 2.928 . S
La81 O103 2.482 . S
La81 O105 2.503 . S
La81 O106 2.521 . S
La81 O107 2.628 . S
La81 O108 2.554 . S
La81 O109 2.757 . S
La81 O110 2.470 . S
C82 La80 2.928 . S
C82 C83 1.503 . S
C82 O100 1.261 . S
C82 O101 1.243 . S
C83 C82 1.503 . S
C83 C84 1.394 . S
C83 C88 1.373 . S
C84 C83 1.394 . S
C84 C85 1.380 . S
C84 H112 0.930 . S
C85 C84 1.380 . S
C85 C86 1.376 . S
C85 H113 0.930 . S
C86 C85 1.376 . S
C86 C87 1.370 . S
C87 C86 1.370 . S
C87 C88 1.396 . S
C87 H114 0.929 . S
C88 C83 1.373 . S
C88 C87 1.396 . S
C88 H115 0.929 . S
C89 O102 1.240 . S
C89 O103 1.289 . S
C90 O104 1.258 . S
C90 O105 1.256 . S
C91 La81 2.928 . S
C91 C92 1.503 . S
C91 O106 1.261 . S
C91 O107 1.243 . S
C92 C91 1.503 . S
C92 C93 1.394 . S
C92 C97 1.373 . S
C93 C92 1.394 . S
C93 C94 1.380 . S
C93 H116 0.930 . S
C94 C93 1.380 . S
C94 C95 1.376 . S
C94 H117 0.930 . S
C95 C94 1.376 . S
C95 C96 1.370 . S
C96 C95 1.370 . S
C96 C97 1.396 . S
C96 H118 0.929 . S
C97 C92 1.373 . S
C97 C96 1.396 . S
C97 H119 0.929 . S
C98 O108 1.240 . S
C98 O109 1.289 . S
C99 O110 1.258 . S
C99 O111 1.256 . S
O100 La80 2.521 . S
O100 C82 1.261 . S
O101 La80 2.628 . S
O101 C82 1.243 . S
O102 La80 2.554 . S
O102 C89 1.240 . S
O103 La80 2.757 . S
O103 La81 2.482 . S
O103 C89 1.289 . S
O104 La80 2.470 . S
O104 C90 1.258 . S
O105 La81 2.503 . S
O105 C90 1.256 . S
O106 La81 2.521 . S
O106 C91 1.261 . S
O107 La81 2.628 . S
O107 C91 1.243 . S
O108 La81 2.554 . S
O108 C98 1.240 . S
O109 La80 2.482 . S
O109 La81 2.757 . S
O109 C98 1.289 . S
O110 La81 2.470 . S
O110 C99 1.258 . S
O111 La80 2.503 . S
O111 C99 1.256 . S
H112 C84 0.930 . S
H113 C85 0.930 . S
H114 C87 0.929 . S
H115 C88 0.929 . S
H116 C93 0.930 . S
H117 C94 0.930 . S
H118 C96 0.929 . S
H119 C97 0.929 . S
C120 N121 1.317 1_565 S
C120 N122 1.348 . S
C120 C123 1.485 1_565 S
N121 C120 1.317 1_545 S
N121 N125 1.370 . S
N122 C120 1.348 . S
N122 C124 1.346 . S
C123 C120 1.485 1_545 S
C123 H127 0.960 . S
C123 H128 0.961 1_545 S
C123 H129 0.960 . S
C124 N122 1.346 . S
C124 N125 1.307 1_565 S
C124 C126 1.486 . S
N125 N121 1.370 . S
N125 C124 1.307 1_545 S
C126 C124 1.486 . S
C126 H130 0.960 . S
C126 H131 0.960 . S
C126 H132 0.959 . S
H127 C123 0.960 . S
H128 C123 0.961 1_565 S
H129 C123 0.960 . S
H130 C126 0.960 . S
H131 C126 0.960 . S
H132 C126 0.959 . S
C133 N134 1.317 . S
C133 N135 1.348 . S
C133 C136 1.485 . S
N134 C133 1.317 . S
N134 N138 1.370 . S
N135 C133 1.348 . S
N135 C137 1.346 . S
C136 C133 1.485 . S
C136 H140 0.960 . S
C136 H141 0.961 . S
C136 H142 0.960 . S
C137 N135 1.346 . S
C137 N138 1.307 . S
C137 C139 1.486 . S
N138 N134 1.370 . S
N138 C137 1.307 . S
C139 C137 1.486 . S
C139 H143 0.960 . S
C139 H144 0.960 . S
C139 H145 0.959 . S
H140 C136 0.960 . S
H141 C136 0.961 . S
H142 C136 0.960 . S
H143 C139 0.960 . S
H144 C139 0.960 . S
H145 C139 0.959 . S
C146 N147 1.317 . S
C146 N148 1.348 . S
C146 C149 1.485 . S
N147 C146 1.317 . S
N147 N151 1.370 . S
N148 C146 1.348 . S
N148 C150 1.346 . S
C149 C146 1.485 . S
C149 H153 0.960 . S
C149 H154 0.961 . S
C149 H155 0.960 . S
C150 N148 1.346 . S
C150 N151 1.307 . S
C150 C152 1.486 1_455 S
N151 N147 1.370 . S
N151 C150 1.307 . S
C152 C150 1.486 1_655 S
C152 H156 0.960 . S
C152 H157 0.960 . S
C152 H158 0.959 . S
H153 C149 0.960 . S
H154 C149 0.961 . S
H155 C149 0.960 . S
H156 C152 0.960 . S
H157 C152 0.960 . S
H158 C152 0.959 . S
C159 N160 1.317 . S
C159 N161 1.348 . S
C159 C162 1.485 . S
N160 C159 1.317 . S
N160 N164 1.370 . S
N161 C159 1.348 . S
N161 C163 1.346 . S
C162 C159 1.485 . S
C162 H166 0.960 . S
C162 H167 0.961 . S
C162 H168 0.960 . S
C163 N161 1.346 . S
C163 N164 1.307 . S
C163 C165 1.486 . S
N164 N160 1.370 . S
N164 C163 1.307 . S
C165 C163 1.486 . S
C165 H169 0.960 . S
C165 H170 0.960 . S
C165 H171 0.959 . S
H166 C162 0.960 . S
H167 C162 0.961 . S
H168 C162 0.960 . S
H169 C165 0.960 . S
H170 C165 0.960 . S
H171 C165 0.959 . S
C172 N173 1.317 . S
C172 N174 1.348 . S
C172 C175 1.485 . S
N173 C172 1.317 . S
N173 N177 1.370 . S
N174 C172 1.348 . S
N174 C176 1.346 . S
C175 C172 1.485 . S
C175 H179 0.960 . S
C175 H180 0.961 . S
C175 H181 0.960 . S
C176 N174 1.346 . S
C176 N177 1.307 . S
C176 C178 1.486 . S
N177 N173 1.370 . S
N177 C176 1.307 . S
C178 C176 1.486 . S
C178 H182 0.960 . S
C178 H183 0.960 . S
C178 H184 0.959 . S
H179 C175 0.960 . S
H180 C175 0.961 . S
H181 C175 0.960 . S
H182 C178 0.960 . S
H183 C178 0.960 . S
H184 C178 0.959 . S
C185 N186 1.317 . S
C185 N187 1.348 . S
C185 C188 1.485 . S
N186 C185 1.317 . S
N186 N190 1.370 . S
N187 C185 1.348 . S
N187 C189 1.346 . S
C188 C185 1.485 . S
C188 H192 0.960 . S
C188 H193 0.961 . S
C188 H194 0.960 . S
C189 N187 1.346 . S
C189 N190 1.307 . S
C189 C191 1.486 . S
N190 N186 1.370 . S
N190 C189 1.307 . S
C191 C189 1.486 . S
C191 H195 0.960 . S
C191 H196 0.960 . S
C191 H197 0.959 . S
H192 C188 0.960 . S
H193 C188 0.961 . S
H194 C188 0.960 . S
H195 C191 0.960 . S
H196 C191 0.960 . S
H197 C191 0.959 . S
C198 C199 1.369 . S
C198 C200 1.419 . S
C198 H202 0.930 . S
C199 C198 1.369 . S
C199 C208 1.429 . S
C200 C198 1.419 . S
C200 C201 1.363 . S
C200 H203 0.929 . S
C201 C200 1.363 . S
C201 C207 1.428 . S
H202 C198 0.930 . S
H203 C200 0.929 . S
S204 N205 1.613 . S
S204 N206 1.610 . S
N205 S204 1.613 . S
N205 C208 1.350 . S
N206 S204 1.610 . S
N206 C207 1.351 . S
C207 C201 1.428 . S
C207 N206 1.351 . S
C207 C208 1.434 . S
C208 C199 1.429 . S
C208 N205 1.350 . S
C208 C207 1.434 . S
C209 C210 1.369 . S
C209 C211 1.419 . S
C209 H213 0.930 . S
C210 C209 1.369 . S
C210 C219 1.429 . S
C211 C209 1.419 . S
C211 C212 1.363 . S
C211 H214 0.929 . S
C212 C211 1.363 . S
C212 C218 1.428 . S
H213 C209 0.930 . S
H214 C211 0.929 . S
S215 N216 1.613 . S
S215 N217 1.610 . S
N216 S215 1.613 . S
N216 C219 1.350 . S
N217 S215 1.610 . S
N217 C218 1.351 . S
C218 C212 1.428 . S
C218 N217 1.351 . S
C218 C219 1.434 . S
C219 C210 1.429 . S
C219 N216 1.350 . S
C219 C218 1.434 . S
C220 C221 1.369 . S
C220 C222 1.419 . S
C220 H224 0.930 . S
C221 C220 1.369 . S
C221 C230 1.429 . S
C222 C220 1.419 . S
C222 C223 1.363 . S
C222 H225 0.929 1_565 S
C223 C222 1.363 . S
C223 C229 1.428 . S
H224 C220 0.930 . S
H225 C222 0.929 1_545 S
S226 N227 1.613 . S
S226 N228 1.610 . S
N227 S226 1.613 . S
N227 C230 1.350 . S
N228 S226 1.610 . S
N228 C229 1.351 . S
C229 C223 1.428 . S
C229 N228 1.351 . S
C229 C230 1.434 . S
C230 C221 1.429 . S
C230 N227 1.350 . S
C230 C229 1.434 . S
C231 C232 1.369 . S
C231 C233 1.419 . S
C231 H235 0.930 . S
C232 C231 1.369 . S
C232 C241 1.429 . S
C233 C231 1.419 . S
C233 C234 1.363 . S
C233 H236 0.929 . S
C234 C233 1.363 . S
C234 C240 1.428 . S
H235 C231 0.930 . S
H236 C233 0.929 . S
S237 N238 1.613 . S
S237 N239 1.610 . S
N238 S237 1.613 . S
N238 C241 1.350 . S
N239 S237 1.610 . S
N239 C240 1.351 . S
C240 C234 1.428 . S
C240 N239 1.351 . S
C240 C241 1.434 . S
C241 C232 1.429 . S
C241 N238 1.350 . S
C241 C240 1.434 . S
C242 C243 1.369 . S
C242 C244 1.419 . S
C242 H246 0.930 . S
C243 C242 1.369 . S
C243 C252 1.429 . S
C244 C242 1.419 . S
C244 C245 1.363 . S
C244 H247 0.929 . S
C245 C244 1.363 . S
C245 C251 1.428 . S
H246 C242 0.930 . S
H247 C244 0.929 . S
S248 N249 1.613 . S
S248 N250 1.610 . S
N249 S248 1.613 . S
N249 C252 1.350 . S
N250 S248 1.610 . S
N250 C251 1.351 . S
C251 C245 1.428 . S
C251 N250 1.351 . S
C251 C252 1.434 . S
C252 C243 1.429 . S
C252 N249 1.350 . S
C252 C251 1.434 . S
C253 C254 1.369 . S
C253 C255 1.419 . S
C253 H257 0.930 . S
C254 C253 1.369 . S
C254 C263 1.429 . S
C255 C253 1.419 . S
C255 C256 1.363 . S
C255 H258 0.929 . S
C256 C255 1.363 . S
C256 C262 1.428 . S
H257 C253 0.930 . S
H258 C255 0.929 . S
S259 N260 1.613 . S
S259 N261 1.610 . S
N260 S259 1.613 . S
N260 C263 1.350 . S
N261 S259 1.610 . S
N261 C262 1.351 . S
C262 C256 1.428 . S
C262 N261 1.351 . S
C262 C263 1.434 . S
C263 C254 1.429 . S
C263 N260 1.350 . S
C263 C262 1.434 . S
C264 C265 1.369 . S
C264 C266 1.419 . S
C264 H268 0.930 . S
C265 C264 1.369 . S
C265 C274 1.429 . S
C266 C264 1.419 . S
C266 C267 1.363 . S
C266 H269 0.929 . S
C267 C266 1.363 . S
C267 C273 1.428 . S
H268 C264 0.930 . S
H269 C266 0.929 . S
S270 N271 1.613 . S
S270 N272 1.610 . S
N271 S270 1.613 . S
N271 C274 1.350 . S
N272 S270 1.610 . S
N272 C273 1.351 . S
C273 C267 1.428 . S
C273 N272 1.351 . S
C273 C274 1.434 . S
C274 C265 1.429 . S
C274 N271 1.350 . S
C274 C273 1.434 . S
C275 C276 1.369 . S
C275 C277 1.419 . S
C275 H279 0.930 . S
C276 C275 1.369 . S
C276 C285 1.429 . S
C277 C275 1.419 . S
C277 C278 1.363 . S
C277 H280 0.929 . S
C278 C277 1.363 . S
C278 C284 1.428 . S
H279 C275 0.930 . S
H280 C277 0.929 . S
S281 N282 1.613 . S
S281 N283 1.610 . S
N282 S281 1.613 . S
N282 C285 1.350 . S
N283 S281 1.610 . S
N283 C284 1.351 . S
C284 C278 1.428 . S
C284 N283 1.351 . S
C284 C285 1.434 . S
C285 C276 1.429 . S
C285 N282 1.350 . S
C285 C284 1.434 . S
C286 C287 1.369 . S
C286 C288 1.419 . S
C286 H290 0.930 . S
C287 C286 1.369 . S
C287 C296 1.429 . S
C288 C286 1.419 . S
C288 C289 1.363 . S
C288 H291 0.929 . S
C289 C288 1.363 . S
C289 C295 1.428 . S
H290 C286 0.930 . S
H291 C288 0.929 . S
S292 N293 1.613 . S
S292 N294 1.610 . S
N293 S292 1.613 . S
N293 C296 1.350 . S
N294 S292 1.610 . S
N294 C295 1.351 . S
C295 C289 1.428 . S
C295 N294 1.351 . S
C295 C296 1.434 . S
C296 C287 1.429 . S
C296 N293 1.350 . S
C296 C295 1.434 . S
C297 C298 1.369 . S
C297 C299 1.419 . S
C297 H301 0.930 . S
C298 C297 1.369 . S
C298 C307 1.429 . S
C299 C297 1.419 . S
C299 C300 1.363 . S
C299 H302 0.929 . S
C300 C299 1.363 . S
C300 C306 1.428 . S
H301 C297 0.930 . S
H302 C299 0.929 . S
S303 N304 1.613 . S
S303 N305 1.610 . S
N304 S303 1.613 . S
N304 C307 1.350 . S
N305 S303 1.610 . S
N305 C306 1.351 . S
C306 C300 1.428 . S
C306 N305 1.351 . S
C306 C307 1.434 . S
C307 C298 1.429 . S
C307 N304 1.350 . S
C307 C306 1.434 . S
C308 C309 1.369 . S
C308 C310 1.419 . S
C308 H312 0.930 . S
C309 C308 1.369 . S
C309 C318 1.429 . S
C310 C308 1.419 . S
C310 C311 1.363 . S
C310 H313 0.929 . S
C311 C310 1.363 . S
C311 C317 1.428 . S
H312 C308 0.930 . S
H313 C310 0.929 . S
S314 N315 1.613 . S
S314 N316 1.610 . S
N315 S314 1.613 . S
N315 C318 1.350 . S
N316 S314 1.610 . S
N316 C317 1.351 . S
C317 C311 1.428 . S
C317 N316 1.351 . S
C317 C318 1.434 . S
C318 C309 1.429 . S
C318 N315 1.350 . S
C318 C317 1.434 . S
C319 C320 1.369 . S
C319 C321 1.419 . S
C319 H323 0.930 . S
C320 C319 1.369 . S
C320 C329 1.429 . S
C321 C319 1.419 . S
C321 C322 1.363 . S
C321 H324 0.929 . S
C322 C321 1.363 . S
C322 C328 1.428 . S
H323 C319 0.930 . S
H324 C321 0.929 . S
S325 N326 1.613 . S
S325 N327 1.610 . S
N326 S325 1.613 . S
N326 C329 1.350 . S
N327 S325 1.610 . S
N327 C328 1.351 . S
C328 C322 1.428 . S
C328 N327 1.351 . S
C328 C329 1.434 . S
C329 C320 1.429 . S
C329 N326 1.350 . S
C329 C328 1.434 . S
C330 C331 1.369 . S
C330 C332 1.419 1_554 S
C330 H334 0.930 . S
C331 C330 1.369 . S
C331 C340 1.429 1_455 S
C332 C330 1.419 1_556 S
C332 C333 1.363 . S
C332 H335 0.929 . S
C333 C332 1.363 . S
C333 C339 1.428 . S
H334 C330 0.930 . S
H335 C332 0.929 . S
S336 N337 1.613 1_556 S
S336 N338 1.610 . S
N337 S336 1.613 1_554 S
N337 C340 1.350 . S
N338 S336 1.610 . S
N338 C339 1.351 1_655 S
C339 C333 1.428 . S
C339 N338 1.351 1_455 S
C339 C340 1.434 1_456 S
C340 C331 1.429 1_655 S
C340 N337 1.350 . S
C340 C339 1.434 1_654 S
C341 C342 1.369 . S
C341 C343 1.419 . S
C341 H345 0.930 . S
C342 C341 1.369 . S
C342 C351 1.429 . S
C343 C341 1.419 . S
C343 C344 1.363 . S
C343 H346 0.929 . S
C344 C343 1.363 . S
C344 C350 1.428 . S
H345 C341 0.930 . S
H346 C343 0.929 . S
S347 N348 1.613 . S
S347 N349 1.610 . S
N348 S347 1.613 . S
N348 C351 1.350 . S
N349 S347 1.610 . S
N349 C350 1.351 . S
C350 C344 1.428 . S
C350 N349 1.351 . S
C350 C351 1.434 . S
C351 C342 1.429 . S
C351 N348 1.350 . S
C351 C350 1.434 . S
C352 C353 1.369 . S
C352 C354 1.419 . S
C352 H356 0.930 . S
C353 C352 1.369 . S
C353 C362 1.429 . S
C354 C352 1.419 . S
C354 C355 1.363 . S
C354 H357 0.929 . S
C355 C354 1.363 . S
C355 C361 1.428 . S
H356 C352 0.930 . S
H357 C354 0.929 . S
S358 N359 1.613 . S
S358 N360 1.610 . S
N359 S358 1.613 . S
N359 C362 1.350 . S
N360 S358 1.610 . S
N360 C361 1.351 . S
C361 C355 1.428 . S
C361 N360 1.351 . S
C361 C362 1.434 . S
C362 C353 1.429 . S
C362 N359 1.350 . S
C362 C361 1.434 . S
C363 C364 1.369 . S
C363 C365 1.419 . S
C363 H367 0.930 . S
C364 C363 1.369 . S
C364 C373 1.429 1_545 S
C365 C363 1.419 . S
C365 C366 1.363 . S
C365 H368 0.929 . S
C366 C365 1.363 . S
C366 C372 1.428 1_545 S
H367 C363 0.930 . S
H368 C365 0.929 . S
S369 N370 1.613 . S
S369 N371 1.610 . S
N370 S369 1.613 . S
N370 C373 1.350 . S
N371 S369 1.610 . S
N371 C372 1.351 . S
C372 C366 1.428 1_565 S
C372 N371 1.351 . S
C372 C373 1.434 . S
C373 C364 1.429 1_565 S
C373 N370 1.350 . S
C373 C372 1.434 . S
C374 C375 1.369 . S
C374 C376 1.419 1_556 S
C374 H378 0.930 . S
C375 C374 1.369 . S
C375 C384 1.429 . S
C376 C374 1.419 1_554 S
C376 C377 1.363 . S
C376 H379 0.929 . S
C377 C376 1.363 . S
C377 C383 1.428 . S
H378 C374 0.930 . S
H379 C376 0.929 . S
S380 N381 1.613 1_554 S
S380 N382 1.610 . S
N381 S380 1.613 1_556 S
N381 C384 1.350 . S
N382 S380 1.610 . S
N382 C383 1.351 . S
C383 C377 1.428 . S
C383 N382 1.351 . S
C383 C384 1.434 1_554 S
C384 C375 1.429 . S
C384 N381 1.350 . S
C384 C383 1.434 1_556 S
C385 C386 1.384 . S
C385 C387 1.419 . S
C385 H389 0.930 . S
C386 C385 1.384 . S
C386 C395 1.413 1_655 S
C387 C385 1.419 . S
C387 C388 1.363 1_655 S
C387 H390 0.929 . S
C388 C387 1.363 1_455 S
C388 C394 1.428 . S
H389 C385 0.930 . S
H390 C387 0.929 . S
S391 N392 1.613 . S
S391 N393 1.610 . S
N392 S391 1.613 . S
N392 C395 1.350 . S
N393 S391 1.610 . S
N393 C394 1.351 . S
C394 C388 1.428 . S
C394 N393 1.351 . S
C394 C395 1.434 . S
C395 C386 1.413 1_455 S
C395 N392 1.350 . S
C395 C394 1.434 . S
C199 C6 0.786 . S
C201 N187 0.779 . S
C210 C59 1.855 . S
C212 N160 1.862 1_655 S
C221 C86 1.371 . S
C223 N173 1.382 1_565 S
C232 C15 1.014 . S
C234 N186 1.140 . S
C245 N161 1.988 . S
C243 C50 1.981 . S
C256 N174 1.504 . S
C254 C95 1.434 . S
C265 C46 1.179 . S
C267 N134 1.179 . S
C276 C99 2.958 . S
C278 N148 2.921 1_655 S
C287 C10 2.014 . S
C289 N122 2.039 . S
C300 N135 1.558 . S
C298 C55 1.467 . S
C311 N147 3.311 . S
C309 C90 3.255 . S
C320 C19 1.861 . S
C322 N121 1.900 . S
C333 N151 1.770 . S
C331 C18 1.775 . S
C342 C49 1.439 . S
C344 N125 1.454 . S
C353 C98 1.470 . S
C355 N138 1.584 . S
C366 N177 1.528 . S
C364 C58 1.432 . S
C377 N190 1.154 . S
C375 C89 1.174 . S
C386 C9 1.378 1_655 S
C388 N164 1.426 . S
