# Generated by pormake.
# Topology pyr, (3,6)-cn, num edge types: 1
# Building blocks:
#     Node 0, Type 0, BuildingBlock: KAKCAD_clean_linker_0, # of connection points: 3
#     Node 1, Type 0, BuildingBlock: KAKCAD_clean_linker_0, # of connection points: 3
#     Node 2, Type 0, BuildingBlock: KAKCAD_clean_linker_0, # of connection points: 3
#     Node 3, Type 0, BuildingBlock: KAKCAD_clean_linker_0, # of connection points: 3
#     Node 4, Type 0, BuildingBlock: KAKCAD_clean_linker_0, # of connection points: 3
#     Node 5, Type 0, BuildingBlock: KAKCAD_clean_linker_0, # of connection points: 3
#     Node 6, Type 0, BuildingBlock: KAKCAD_clean_linker_0, # of connection points: 3
#     Node 7, Type 0, BuildingBlock: KAKCAD_clean_linker_0, # of connection points: 3
#     Node 8, Type 1, BuildingBlock: PAMTOO_clean_sbu_0, # of connection points: 6
#     Node 9, Type 1, BuildingBlock: PAMTOO_clean_sbu_0, # of connection points: 6
#     Node 10, Type 1, BuildingBlock: PAMTOO_clean_sbu_0, # of connection points: 6
#     Node 11, Type 1, BuildingBlock: PAMTOO_clean_sbu_0, # of connection points: 6
#     Edge 12, Type (0, 1), None
#     Edge 13, Type (0, 1), None
#     Edge 14, Type (0, 1), None
#     Edge 15, Type (0, 1), None
#     Edge 16, Type (0, 1), None
#     Edge 17, Type (0, 1), None
#     Edge 18, Type (0, 1), None
#     Edge 19, Type (0, 1), None
#     Edge 20, Type (0, 1), None
#     Edge 21, Type (0, 1), None
#     Edge 22, Type (0, 1), None
#     Edge 23, Type (0, 1), None
#     Edge 24, Type (0, 1), None
#     Edge 25, Type (0, 1), None
#     Edge 26, Type (0, 1), None
#     Edge 27, Type (0, 1), None
#     Edge 28, Type (0, 1), None
#     Edge 29, Type (0, 1), None
#     Edge 30, Type (0, 1), None
#     Edge 31, Type (0, 1), None
#     Edge 32, Type (0, 1), None
#     Edge 33, Type (0, 1), None
#     Edge 34, Type (0, 1), None
#     Edge 35, Type (0, 1), None
# Relax obj value: 0.214
# Max RMSD: 0.198
# Mean RMSD: 0.085
data_MOF--net-pyr--node1-PAMTOO_clean_sbu_0--node2-KAKCAD_clean_linker_0--edge1-none
_symmetry_space_group_name_H-M    P1
_symmetry_Int_Tables_number       1
_symmetry_cell_setting            triclinic
loop_
_symmetry_equiv_pos_as_xyz
'x, y, z'
_cell_length_a     25.875322
_cell_length_b     26.406553
_cell_length_c     24.035963
_cell_angle_alpha  90.066926
_cell_angle_beta   90.105316
_cell_angle_gamma 105.31067
loop_
_atom_site_label
_atom_site_type_symbol
_atom_site_fract_x
_atom_site_fract_y
_atom_site_fract_z
_atom_type_partial_charge
C0 C 0.31142 0.30731 0.50841 0.0
C1 C 0.3356 0.27156 0.53363 0.0
C2 C 0.3365 0.33824 0.4644 0.0
C3 C 0.38686 0.33462 0.44476 0.0
C4 C 0.41538 0.3072 0.47809 0.0
C5 C 0.38958 0.27512 0.52158 0.0
C6 C 0.40139 0.34644 0.3847 0.0
C7 C 0.37504 0.37747 0.35373 0.0
C8 C 0.36454 0.36798 0.29677 0.0
C9 C 0.39046 0.33522 0.26838 0.0
C10 C 0.42279 0.30886 0.29723 0.0
C11 C 0.42813 0.31466 0.35515 0.0
C12 C 0.44031 0.26603 0.26961 0.0
C13 C 0.40211 0.22573 0.24273 0.0
C14 C 0.49349 0.26258 0.27361 0.0
C15 C 0.50824 0.21965 0.25038 0.0
C16 C 0.46962 0.17894 0.22426 0.0
C17 C 0.31624 0.38025 0.27239 0.0
C18 C 0.30305 0.42718 0.2858 0.0
C19 C 0.27787 0.34047 0.24446 0.0
C20 C 0.2266 0.34603 0.23362 0.0
C21 C 0.2123 0.39135 0.25066 0.0
C22 C 0.25158 0.43258 0.27524 0.0
C23 C 0.41649 0.18259 0.22068 0.0
H24 H 0.27012 0.30641 0.51711 0.0
H25 H 0.31237 0.35923 0.44217 0.0
H26 H 0.45565 0.30608 0.46737 0.0
H27 H 0.41005 0.24939 0.542 0.0
H28 H 0.35583 0.40354 0.37517 0.0
H29 H 0.4477 0.28908 0.37703 0.0
H30 H 0.38243 0.32723 0.22449 0.0
H31 H 0.36064 0.22694 0.23999 0.0
H32 H 0.52348 0.29302 0.2947 0.0
H33 H 0.5495 0.21795 0.25355 0.0
H34 H 0.33175 0.45878 0.30682 0.0
H35 H 0.28599 0.30333 0.23444 0.0
H36 H 0.38582 0.15221 0.20032 0.0
H37 H 0.24209 0.46856 0.28759 0.0
H38 H 0.19725 0.31353 0.21473 0.0
C39 C 0.11752 0.84178 1.02796 0.0
C40 C 0.17194 0.84606 1.03842 0.0
C41 C 0.09023 0.80756 0.98664 0.0
C42 C 0.11782 0.77904 0.9536 0.0
C43 C 0.16878 0.77618 0.97229 0.0
C44 C 0.19535 0.80918 1.01433 0.0
C45 C 0.10194 0.766 0.89401 0.0
C46 C 0.07536 0.79803 0.86441 0.0
C47 C 0.07971 0.80297 0.80634 0.0
C48 C 0.11027 0.7747 0.77751 0.0
C49 C 0.13676 0.74277 0.80611 0.0
C50 C 0.12752 0.73417 0.86312 0.0
C51 C 0.18631 0.73367 0.78221 0.0
C52 C 0.1965 0.68404 0.78374 0.0
C53 C 0.22752 0.77746 0.76578 0.0
C54 C 0.27838 0.77215 0.75291 0.0
C55 C 0.28879 0.72281 0.75518 0.0
C56 C 0.06357 0.84651 0.77799 0.0
C57 C 0.01431 0.85785 0.78908 0.0
C58 C 0.0999 0.87951 0.74188 0.0
C59 C 0.08703 0.92166 0.7162 0.0
C60 C 0.03757 0.93268 0.72609 0.0
C61 C 0.00138 0.90072 0.76329 0.0
C62 C 0.24724 0.67852 0.76945 0.0
H63 H 0.09769 0.86838 1.04775 0.0
H64 H 0.04955 0.80808 0.97679 0.0
H65 H 0.19212 0.75418 0.9504 0.0
H66 H 0.23695 0.81056 1.0221 0.0
H67 H 0.05715 0.82464 0.88634 0.0
H68 H 0.14768 0.7086 0.88418 0.0
H69 H 0.11778 0.7813 0.7334 0.0
H70 H 0.16569 0.64994 0.79721 0.0
H71 H 0.22116 0.81641 0.76557 0.0
H72 H 0.30982 0.80669 0.74181 0.0
H73 H 0.98577 0.83341 0.81729 0.0
H74 H 0.13906 0.87349 0.73407 0.0
H75 H 0.25464 0.64005 0.77145 0.0
H76 H 0.96298 0.90826 0.77167 0.0
H77 H 0.11643 0.94596 0.68865 0.0
C78 C 0.81541 0.52038 1.03758 0.0
C79 C 0.85027 0.49029 1.0542 0.0
C80 C 0.76801 0.49704 1.00841 0.0
C81 C 0.75473 0.44322 0.99501 0.0
C82 C 0.79039 0.41371 1.0107 0.0
C83 C 0.83716 0.43676 1.04016 0.0
C84 C 0.70354 0.41685 0.96611 0.0
C85 C 0.68301 0.44121 0.92237 0.0
C86 C 0.63619 0.41437 0.8936 0.0
C87 C 0.60967 0.3625 0.9094 0.0
C88 C 0.62946 0.33786 0.95349 0.0
C89 C 0.67572 0.36574 0.98176 0.0
C90 C 0.60271 0.28324 0.97164 0.0
C91 C 0.54741 0.26736 0.98237 0.0
C92 C 0.63383 0.24831 0.98406 0.0
C93 C 0.61103 0.20014 1.0097 0.0
C94 C 0.55634 0.18541 1.02355 0.0
C95 C 0.61579 0.44046 0.84651 0.0
C96 C 0.60946 0.49147 0.85258 0.0
C97 C 0.60319 0.41492 0.79495 0.0
C98 C 0.58476 0.43984 0.75048 0.0
C99 C 0.57748 0.49051 0.75685 0.0
C100 C 0.59002 0.51598 0.8085 0.0
C101 C 0.52446 0.21896 1.00816 0.0
H102 H 0.82448 0.56184 1.04744 0.0
H103 H 0.74139 0.52091 0.99728 0.0
H104 H 0.78238 0.37252 0.99992 0.0
H105 H 0.86338 0.41247 1.05136 0.0
H106 H 0.7044 0.48041 0.90935 0.0
H107 H 0.68986 0.34751 1.01698 0.0
H108 H 0.57382 0.34141 0.88742 0.0
H109 H 0.52244 0.29346 0.97351 0.0
H110 H 0.67645 0.25905 0.97556 0.0
H111 H 0.63684 0.17529 1.02036 0.0
H112 H 0.61873 0.5121 0.89184 0.0
H113 H 0.60811 0.37581 0.78884 0.0
H114 H 0.48215 0.20887 1.01802 0.0
H115 H 0.58487 0.55496 0.8149 0.0
H116 H 0.57515 0.41891 0.71145 0.0
C117 C 0.9062 0.59121 0.30931 0.0
C118 C 0.92767 0.62058 0.26204 0.0
C119 C 0.88863 0.61542 0.35506 0.0
C120 C 0.89169 0.6696 0.35463 0.0
C121 C 0.9124 0.69856 0.30682 0.0
C122 C 0.93025 0.67453 0.26144 0.0
C123 C 0.87248 0.69578 0.40304 0.0
C124 C 0.82628 0.66931 0.43286 0.0
C125 C 0.80608 0.69409 0.47666 0.0
C126 C 0.8331 0.74601 0.49052 0.0
C127 C 0.87916 0.77362 0.46166 0.0
C128 C 0.89897 0.74798 0.4184 0.0
C129 C 0.90523 0.82943 0.47735 0.0
C130 C 0.87317 0.86306 0.49144 0.0
C131 C 0.96126 0.84837 0.48322 0.0
C132 C 0.98407 0.89824 0.50655 0.0
C133 C 0.95114 0.92963 0.52471 0.0
C134 C 0.75523 0.66734 0.50623 0.0
C135 C 0.71216 0.63446 0.47694 0.0
C136 C 0.74809 0.67659 0.56324 0.0
C137 C 0.69892 0.65476 0.58963 0.0
C138 C 0.65591 0.62239 0.55994 0.0
C139 C 0.66345 0.61208 0.50345 0.0
C140 C 0.89572 0.9121 0.51537 0.0
H141 H 0.90397 0.54972 0.31151 0.0
H142 H 0.87351 0.59171 0.39118 0.0
H143 H 0.91434 0.73994 0.304 0.0
H144 H 0.94614 0.6985 0.22568 0.0
H145 H 0.80545 0.62951 0.42135 0.0
H146 H 0.93461 0.76898 0.3963 0.0
H147 H 0.81764 0.76559 0.52368 0.0
H148 H 0.8301 0.85062 0.486 0.0
H149 H 0.98716 0.82357 0.47283 0.0
H150 H 0.0269 0.91065 0.5138 0.0
H151 H 0.71536 0.62703 0.43294 0.0
H152 H 0.7805 0.70081 0.58768 0.0
H153 H 0.86939 0.93563 0.52856 0.0
H154 H 0.6312 0.58749 0.47905 0.0
H155 H 0.69472 0.66306 0.63328 0.0
C156 C 0.66892 0.81388 0.72242 0.0
C157 C 0.66002 0.86368 0.71486 0.0
C158 C 0.638 0.77899 0.7608 0.0
C159 C 0.60132 0.79565 0.795 0.0
C160 C 0.58298 0.83831 0.77553 0.0
C161 C 0.61201 0.87183 0.73517 0.0
C162 C 0.59808 0.78285 0.85621 0.0
C163 C 0.63999 0.76631 0.88176 0.0
C164 C 0.65092 0.77346 0.93888 0.0
C165 C 0.61951 0.79838 0.97107 0.0
C166 C 0.57615 0.81374 0.94711 0.0
C167 C 0.56322 0.8013 0.89098 0.0
C168 C 0.55058 0.85039 0.97739 0.0
C169 C 0.546 0.84882 1.03566 0.0
C170 C 0.5361 0.89131 0.94859 0.0
C171 C 0.52007 0.93068 0.97741 0.0
C172 C 0.51955 0.93081 1.03561 0.0
C173 C 0.70017 0.76152 0.96173 0.0
C174 C 0.71499 0.71669 0.94338 0.0
C175 C 0.7355 0.79715 0.99712 0.0
C176 C 0.78523 0.78913 1.01181 0.0
C177 C 0.80091 0.74581 0.99074 0.0
C178 C 0.76487 0.7092 0.95729 0.0
C179 C 0.5314 0.88892 1.06441 0.0
H180 H 0.70363 0.80432 0.70475 0.0
H181 H 0.64883 0.74287 0.76916 0.0
H182 H 0.55159 0.85105 0.79618 0.0
H183 H 0.6013 0.90799 0.72633 0.0
H184 H 0.66834 0.75278 0.85683 0.0
H185 H 0.52846 0.81078 0.87348 0.0
H186 H 0.63058 0.80794 1.014 0.0
H187 H 0.55543 0.81759 1.05939 0.0
H188 H 0.53999 0.89496 0.90386 0.0
H189 H 0.51148 0.96273 0.95432 0.0
H190 H 0.68846 0.68794 0.91694 0.0
H191 H 0.72591 0.83246 1.01148 0.0
H192 H 0.53067 0.88783 1.10947 0.0
H193 H 0.77551 0.67486 0.94147 0.0
H194 H 0.8123 0.81788 1.03779 0.0
C195 C 0.89489 0.23702 0.2478 0.0
C196 C 0.84867 0.24652 0.22418 0.0
C197 C 0.92298 0.27042 0.28901 0.0
C198 C 0.90579 0.31453 0.30607 0.0
C199 C 0.87125 0.33176 0.2694 0.0
C200 C 0.84112 0.29703 0.23016 0.0
C201 C 0.90887 0.33024 0.36668 0.0
C202 C 0.94135 0.31114 0.40419 0.0
C203 C 0.92804 0.30453 0.46083 0.0
C204 C 0.88689 0.32462 0.48196 0.0
C205 C 0.85654 0.34765 0.44648 0.0
C206 C 0.86831 0.35088 0.38941 0.0
C207 C 0.80623 0.3592 0.46614 0.0
C208 C 0.77054 0.32353 0.50088 0.0
C209 C 0.79059 0.40263 0.44518 0.0
C210 C 0.73979 0.40908 0.45678 0.0
C211 C 0.70359 0.37251 0.49002 0.0
C212 C 0.94701 0.26523 0.4936 0.0
C213 C 1.00116 0.26441 0.49422 0.0
C214 C 0.90884 0.22385 0.5189 0.0
C215 C 0.924 0.18214 0.5432 0.0
C216 C 0.97787 0.1807 0.54333 0.0
C217 C 0.01658 0.22271 0.51947 0.0
C218 C 0.7199 0.33027 0.51288 0.0
H219 H 0.9049 0.20027 0.2403 0.0
H220 H 0.95293 0.25692 0.31143 0.0
H221 H 0.86169 0.36882 0.27571 0.0
H222 H 0.80801 0.30764 0.21008 0.0
H223 H 0.97316 0.29537 0.38902 0.0
H224 H 0.841 0.36401 0.36257 0.0
H225 H 0.87629 0.31915 0.52557 0.0
H226 H 0.78069 0.28904 0.51684 0.0
H227 H 0.81728 0.43108 0.41874 0.0
H228 H 0.72874 0.44265 0.43955 0.0
H229 H 0.03133 0.29559 0.47456 0.0
H230 H 0.86664 0.22256 0.51803 0.0
H231 H 0.69277 0.30137 0.53848 0.0
H232 H 0.05847 0.22283 0.51929 0.0
H233 H 0.89316 0.1508 0.56173 0.0
C234 C 0.15729 0.6151 0.25867 0.0
C235 C 0.15113 0.62449 0.20162 0.0
C236 C 0.20637 0.63523 0.28559 0.0
C237 C 0.25087 0.66492 0.25613 0.0
C238 C 0.24504 0.67303 0.19862 0.0
C239 C 0.19565 0.65349 0.17182 0.0
C240 C 0.30219 0.69012 0.28556 0.0
C241 C 0.32182 0.66525 0.3297 0.0
C242 C 0.37005 0.69041 0.35741 0.0
C243 C 0.39904 0.74097 0.33937 0.0
C244 C 0.38006 0.76591 0.29511 0.0
C245 C 0.3312 0.74062 0.2698 0.0
C246 C 0.41045 0.81779 0.27273 0.0
C247 C 0.43053 0.86176 0.3073 0.0
C248 C 0.41404 0.82456 0.21479 0.0
C249 C 0.4327 0.87429 0.19181 0.0
C250 C 0.44966 0.91877 0.22593 0.0
C251 C 0.38997 0.66423 0.40523 0.0
C252 C 0.38448 0.60959 0.40569 0.0
C253 C 0.41471 0.69395 0.45122 0.0
C254 C 0.43426 0.6702 0.49567 0.0
C255 C 0.42949 0.61583 0.49586 0.0
C256 C 0.40385 0.58568 0.45053 0.0
C257 C 0.45043 0.91208 0.28394 0.0
H258 H 0.12381 0.59283 0.28305 0.0
H259 H 0.20888 0.6287 0.32986 0.0
H260 H 0.2787 0.69471 0.17412 0.0
H261 H 0.19251 0.66073 1.12776 0.0
H262 H 0.29932 0.62649 0.34276 0.0
H263 H 0.31527 0.76108 0.23771 0.0
H264 H 0.43703 0.76034 0.35858 0.0
H265 H 0.42832 0.85767 0.35212 0.0
H266 H 0.4002 0.7914 0.18697 0.0
H267 H 0.43274 0.878 0.1469 0.0
H268 H 0.36617 0.58532 0.37088 0.0
H269 H 0.41871 0.73578 0.45324 0.0
H270 H 0.46369 0.9458 0.31108 0.0
H271 H 0.39969 0.5438 0.4491 0.0
H272 H 0.45322 0.69475 0.53006 0.0
C273 C 0.12022 0.20078 0.75947 0.0
C274 C 0.06565 0.18542 0.74503 0.0
C275 C 0.14238 0.24932 0.78492 0.0
C276 C 0.11074 0.28401 0.79641 0.0
C277 C 0.05551 0.26741 0.78526 0.0
C278 C 0.0332 0.21863 0.75978 0.0
C279 C 0.13691 0.33924 0.8133 0.0
C280 C 0.18291 0.36668 0.78468 0.0
C281 C 0.21019 0.41843 0.7987 0.0
C282 C 0.18914 0.44407 0.84111 0.0
C283 C 0.14249 0.4176 0.87036 0.0
C284 C 0.11669 0.36501 0.85612 0.0
C285 C 0.12123 0.44452 0.91638 0.0
C286 C 0.1132 0.49471 0.90864 0.0
C287 C 0.10851 0.42005 0.96839 0.0
C288 C 0.08815 0.44503 1.01151 0.0
C289 C 0.07889 0.4947 1.00341 0.0
C290 C 0.26115 0.44391 0.76902 0.0
C291 C 0.29703 0.414 0.75511 0.0
C292 C 0.27344 0.49671 0.75198 0.0
C293 C 0.31981 0.51846 0.7207 0.0
C294 C 0.35465 0.48778 0.70557 0.0
C295 C 0.34274 0.43543 0.72352 0.0
C296 C 0.09173 0.51924 0.95139 0.0
H297 H 0.14642 0.17621 0.74929 0.0
H298 H 0.18497 0.26062 0.79376 0.0
H299 H 0.03013 0.29328 0.79335 0.0
H300 H 0.99094 0.20805 0.74946 0.0
H301 H 0.19724 0.34755 0.75028 0.0
H302 H 0.08096 0.34421 0.87829 0.0
H303 H 0.20995 0.48392 0.85268 0.0
H304 H 0.12247 0.51456 0.86905 0.0
H305 H 0.11465 0.38161 0.97585 0.0
H306 H 0.07854 0.42481 1.05086 0.0
H307 H 0.28979 0.37363 0.76865 0.0
H308 H 0.24669 0.52085 0.76168 0.0
H309 H 0.0852 0.55748 0.94366 0.0
H310 H 0.36907 0.41088 0.7137 0.0
H311 H 0.32804 0.55914 0.70795 0.0
Dy312 Dy 0.07028 0.06932 0.60919 0.0
Dy313 Dy 0.94781 1.04812 0.65975 0.0
C314 C 0.04401 0.13755 0.71062 0.0
O315 O 0.05293 0.99194 0.6501 0.0
O316 O 0.98748 0.99823 0.71203 0.0
O317 O 0.15228 0.06974 0.62551 0.0
O318 O 0.12889 0.09067 0.54364 0.0
O319 O 0.94289 0.97957 0.60484 0.0
O320 O 0.0182 1.0102 0.5504 0.0
O321 O 0.95432 0.09344 0.58084 0.0
O322 O 0.042 0.13899 0.58419 0.0
O323 O 0.86693 1.05026 0.64231 0.0
O324 O 0.88839 1.03089 0.72528 0.0
C325 C 0.02502 0.97642 0.69517 0.0
O326 O 0.07706 0.11163 0.69107 0.0
O327 O 0.99325 0.12462 0.69648 0.0
C328 C 0.21541 0.13338 0.57552 0.0
C329 C 0.30043 0.22353 0.55902 0.0
C330 C 0.25564 0.22627 0.59092 0.0
C331 C 0.21326 0.18147 0.59891 0.0
C332 C 0.2618 0.12948 0.54808 0.0
C333 C 0.3041 0.17415 0.53999 0.0
C334 C 0.16849 0.08795 0.57636 0.0
C335 C 0.97185 0.97599 0.56095 0.0
C336 C 0.99246 0.13574 0.56971 0.0
C337 C 0.80047 0.99159 0.69354 0.0
C338 C 0.70553 0.90967 0.70109 0.0
C339 C 0.74689 0.90526 0.66494 0.0
C340 C 0.79412 0.94595 0.66128 0.0
C341 C 0.75887 0.99698 0.72789 0.0
C342 C 0.71202 0.95655 0.7318 0.0
C343 C 0.84975 1.03437 0.69176 0.0
H344 H 0.2518 0.26364 0.60641 0.0
H345 H 0.17778 0.18486 0.62089 0.0
H346 H 0.26414 0.09244 0.53024 0.0
H347 H 0.33752 0.17059 0.51461 0.0
H348 H 0.74339 0.86998 0.64061 0.0
H349 H 0.82595 0.94146 0.63405 0.0
H350 H 0.76312 1.03207 0.75285 0.0
H351 H 0.68216 0.96128 0.7614 0.0
Dy352 Dy 0.43734 1.04824 1.1071 0.0
Dy353 Dy 0.55945 0.06598 0.15696 0.0
C354 C 0.4633 0.97094 0.19901 0.0
O355 O 0.44537 0.09133 0.18762 0.0
O356 O 0.53303 0.13636 0.18348 0.0
O357 O 0.35617 1.04593 0.12897 0.0
O358 O 0.37613 1.035 1.04314 0.0
O359 O 0.56691 0.11127 1.07706 0.0
O360 O 0.48314 0.12494 1.07126 0.0
O361 O 0.54098 0.98964 1.11222 0.0
O362 O 0.47712 1.00159 1.0508 0.0
O363 O 0.64056 0.06343 0.14144 0.0
O364 O 0.61788 0.08531 0.22331 0.0
C365 C 0.4838 0.13342 0.19872 0.0
O366 O 0.43638 0.97564 0.15388 0.0
O367 O 0.50568 1.00801 0.21491 0.0
C368 C 0.29199 0.98635 1.07615 0.0
C369 C 0.20772 0.89509 1.06127 0.0
C370 C 0.2529 0.89353 1.09317 0.0
C371 C 0.29484 0.9388 1.10034 0.0
C372 C 0.24551 0.989 1.04788 0.0
C373 C 0.2036 0.94374 1.04053 0.0
C374 C 0.33782 1.0328 1.07909 0.0
C375 C 0.53408 0.13763 1.05768 0.0
C376 C 0.51228 0.97648 1.06699 0.0
C377 C 0.70717 0.12143 0.1944 0.0
C378 C 0.8031 0.20145 0.20749 0.0
C379 C 0.76391 0.20726 0.169 0.0
C380 C 0.71614 0.16752 0.16261 0.0
C381 C 0.74677 0.11454 0.23082 0.0
C382 C 0.79406 0.154 0.23747 0.0
C383 C 0.65684 0.08004 0.1912 0.0
H384 H 0.25716 0.85673 1.1098 0.0
H385 H 0.33031 0.93626 1.12296 0.0
H386 H 0.24256 1.02557 1.02944 0.0
H387 H 0.16985 0.94624 1.01496 0.0
H388 H 0.7694 0.24295 0.14501 0.0
H389 H 0.68585 0.17317 0.13385 0.0
H390 H 0.74044 0.07912 0.25553 0.0
H391 H 0.82206 0.14809 0.26871 0.0
Dy392 Dy 0.49778 0.50048 0.59142 0.0
Dy393 Dy 0.50657 0.6078 0.66392 0.0
C394 C 0.55444 0.51545 0.71087 0.0
O395 O 0.43259 0.47928 0.65479 0.0
O396 O 0.42078 0.56115 0.66606 0.0
O397 O 0.48627 0.41647 0.58643 0.0
O398 O 0.50251 0.46359 0.51186 0.0
O399 O 0.48635 0.6238 0.57645 0.0
O400 O 0.44242 0.54084 0.54846 0.0
O401 O 0.59081 0.61751 0.63438 0.0
O402 O 0.56903 0.56118 0.55996 0.0
O403 O 0.51615 0.69171 0.66831 0.0
O404 O 0.4958 0.64415 0.74213 0.0
C405 C 0.40446 0.51033 0.67351 0.0
O406 O 0.55621 0.49851 0.65966 0.0
O407 O 0.53087 0.55251 0.7228 0.0
C408 C 0.54895 0.39856 0.52238 0.0
C409 C 0.64901 0.37856 0.50066 0.0
C410 C 0.62785 0.37322 0.55474 0.0
C411 C 0.57845 0.38331 0.56557 0.0
C412 C 0.56869 0.40094 0.4678 0.0
C413 C 0.61838 0.39134 0.45708 0.0
C414 C 0.50196 0.4187 0.53473 0.0
C415 C 0.45313 0.5921 0.5425 0.0
C416 C 0.60319 0.59909 0.58668 0.0
C417 C 0.4458 0.70379 0.72409 0.0
C418 C 0.34324 0.71776 0.74355 0.0
C419 C 0.35148 0.68616 0.69942 0.0
C420 C 0.40244 0.67976 0.68938 0.0
C421 C 0.438 0.73635 0.76758 0.0
C422 C 0.38703 0.74384 0.77684 0.0
C423 C 0.49628 0.6886 0.71842 0.0
H424 H 0.65053 0.36345 0.58914 0.0
H425 H 0.56457 0.38119 0.60819 0.0
H426 H 0.54669 0.41236 0.43375 0.0
H427 H 0.63327 0.39475 0.41478 0.0
H428 H 0.31841 0.66617 0.67296 0.0
H429 H 0.40762 0.65467 0.65536 0.0
H430 H 0.47077 0.75467 0.79514 0.0
H431 H 0.38136 0.76847 0.81113 0.0
Dy432 Dy 0.00428 0.61137 1.09268 0.0
Dy433 Dy 0.995 0.50453 0.16631 0.0
C434 C 0.94987 0.59659 0.21451 0.0
O435 O 0.08773 0.6198 1.12513 0.0
O436 O 0.0632 0.56623 0.20086 0.0
O437 O 0.01736 0.69568 1.08673 0.0
O438 O 0.99541 0.647 1.0136 0.0
O439 O 0.05558 0.50397 1.09986 0.0
O440 O 0.02909 0.5553 1.0349 0.0
O441 O 0.9289 0.48334 1.1041 0.0
O442 O 0.91819 0.56541 1.08884 0.0
O443 O 0.98533 0.4207 0.16996 0.0
O444 O 0.99951 0.46684 0.24537 0.0
C445 C 0.09854 0.60266 0.17413 0.0
O446 O 0.98093 0.62829 0.17891 0.0
O447 O 0.94046 0.5452 0.21001 0.0
C448 C 0.95314 0.71487 1.02474 0.0
C449 C 0.85493 0.73879 1.00248 0.0
C450 C 0.8738 0.73932 1.05735 0.0
C451 C 0.92225 0.72702 1.06847 0.0
C452 C 0.93569 0.71738 0.96973 0.0
C453 C 0.88689 0.72881 0.95872 0.0
C454 C 0.99918 0.69286 1.03582 0.0
C455 C 0.05389 0.51952 1.04814 0.0
C456 C 0.90107 0.51419 1.08423 0.0
C457 C 0.05107 0.40614 0.23232 0.0
C458 C 0.15608 0.39467 0.24493 0.0
C459 C 0.1269 0.37801 0.19588 0.0
C460 C 0.075 0.38368 0.18961 0.0
C461 C 0.07908 0.41979 0.28264 0.0
C462 C 0.13111 0.41439 0.28876 0.0
C463 C 0.00168 0.42306 0.22151 0.0
H464 H 0.8499 0.74683 1.0918 0.0
H465 H 0.93432 0.72503 1.11141 0.0
H466 H 0.95873 0.70824 0.93533 0.0
H467 H 0.87356 0.72884 0.91597 0.0
H468 H 0.14492 0.36244 0.16145 0.0
H469 H 0.05467 0.37259 0.15027 0.0
H470 H 0.06169 0.43684 0.31647 0.0
H471 H 0.15206 0.42626 0.32764 0.0
loop_
_geom_bond_atom_site_label_1
_geom_bond_atom_site_label_2
_geom_bond_distance
_geom_bond_site_symmetry_2
_ccdc_geom_bond_type
C0 C1 1.386 . S
C0 C2 1.397 . S
C0 H24 0.931 . S
C1 C0 1.386 . S
C1 C5 1.397 . S
C2 C0 1.397 . S
C2 C3 1.384 . S
C2 H25 0.930 . S
C3 C2 1.384 . S
C3 C4 1.377 . S
C3 C6 1.481 . S
C4 C3 1.377 . S
C4 C5 1.389 . S
C4 H26 0.929 . S
C5 C1 1.397 . S
C5 C4 1.389 . S
C5 H27 0.931 . S
C6 C3 1.481 . S
C6 C7 1.387 . S
C6 C11 1.390 . S
C7 C6 1.387 . S
C7 C8 1.401 . S
C7 H28 0.930 . S
C8 C7 1.401 . S
C8 C9 1.376 . S
C8 C17 1.511 . S
C9 C8 1.376 . S
C9 C10 1.392 . S
C9 H30 0.931 . S
C10 C9 1.392 . S
C10 C11 1.361 . S
C10 C12 1.500 . S
C11 C6 1.390 . S
C11 C10 1.361 . S
C11 H29 0.931 . S
C12 C10 1.500 . S
C12 C13 1.371 . S
C12 C14 1.365 . S
C13 C12 1.371 . S
C13 C23 1.386 . S
C13 H31 0.931 . S
C14 C12 1.365 . S
C14 C15 1.409 . S
C14 H32 0.929 . S
C15 C14 1.409 . S
C15 C16 1.380 . S
C15 H33 0.930 . S
C16 C15 1.380 . S
C16 C23 1.357 . S
C17 C8 1.511 . S
C17 C18 1.341 . S
C17 C19 1.371 . S
C18 C17 1.341 . S
C18 C22 1.394 . S
C18 H34 0.930 . S
C19 C17 1.371 . S
C19 C20 1.392 . S
C19 H35 0.931 . S
C20 C19 1.392 . S
C20 C21 1.331 . S
C20 H38 0.932 . S
C21 C20 1.331 . S
C21 C22 1.336 . S
C22 C18 1.394 . S
C22 C21 1.336 . S
C22 H37 0.929 . S
C23 C13 1.386 . S
C23 C16 1.357 . S
C23 H36 0.928 . S
H24 C0 0.931 . S
H25 C2 0.930 . S
H26 C4 0.929 . S
H27 C5 0.931 . S
H28 C7 0.930 . S
H29 C11 0.931 . S
H30 C9 0.931 . S
H31 C13 0.931 . S
H32 C14 0.929 . S
H33 C15 0.930 . S
H34 C18 0.930 . S
H35 C19 0.931 . S
H36 C23 0.928 . S
H37 C22 0.929 . S
H38 C20 0.932 . S
C39 C40 1.386 . S
C39 C41 1.397 . S
C39 H63 0.931 . S
C40 C39 1.386 . S
C40 C44 1.397 . S
C41 C39 1.397 . S
C41 C42 1.384 . S
C41 H64 0.930 . S
C42 C41 1.384 . S
C42 C43 1.377 . S
C42 C45 1.481 . S
C43 C42 1.377 . S
C43 C44 1.389 . S
C43 H65 0.929 . S
C44 C40 1.397 . S
C44 C43 1.389 . S
C44 H66 0.931 . S
C45 C42 1.481 . S
C45 C46 1.387 . S
C45 C50 1.390 . S
C46 C45 1.387 . S
C46 C47 1.401 . S
C46 H67 0.930 . S
C47 C46 1.401 . S
C47 C48 1.376 . S
C47 C56 1.511 . S
C48 C47 1.376 . S
C48 C49 1.392 . S
C48 H69 0.931 . S
C49 C48 1.392 . S
C49 C50 1.361 . S
C49 C51 1.500 . S
C50 C45 1.390 . S
C50 C49 1.361 . S
C50 H68 0.931 . S
C51 C49 1.500 . S
C51 C52 1.371 . S
C51 C53 1.365 . S
C52 C51 1.371 . S
C52 C62 1.386 . S
C52 H70 0.931 . S
C53 C51 1.365 . S
C53 C54 1.409 . S
C53 H71 0.929 . S
C54 C53 1.409 . S
C54 C55 1.380 . S
C54 H72 0.930 . S
C55 C54 1.380 . S
C55 C62 1.357 . S
C56 C47 1.511 . S
C56 C57 1.341 1_455 S
C56 C58 1.374 . S
C57 C56 1.341 1_655 S
C57 C61 1.394 . S
C57 H73 0.930 . S
C58 C56 1.374 . S
C58 C59 1.381 1_455 S
C58 H74 0.941 . S
C59 C58 1.381 1_655 S
C59 C60 1.331 . S
C59 H77 0.932 . S
C60 C59 1.331 . S
C60 C61 1.336 . S
C61 C57 1.394 . S
C61 C60 1.336 . S
C61 H76 0.929 . S
C62 C52 1.386 . S
C62 C55 1.357 . S
C62 H75 0.928 . S
H63 C39 0.931 . S
H64 C41 0.930 . S
H65 C43 0.929 . S
H66 C44 0.931 . S
H67 C46 0.930 . S
H68 C50 0.931 . S
H69 C48 0.931 . S
H70 C52 0.931 . S
H71 C53 0.929 . S
H72 C54 0.930 . S
H73 C57 0.930 . S
H74 C58 0.941 . S
H75 C62 0.928 . S
H76 C61 0.929 . S
H77 C59 0.932 . S
C78 C79 1.386 . S
C78 C80 1.397 . S
C78 H102 0.931 . S
C79 C78 1.386 . S
C79 C83 1.397 . S
C80 C78 1.397 . S
C80 C81 1.384 . S
C80 H103 0.930 . S
C81 C80 1.384 . S
C81 C82 1.377 . S
C81 C84 1.481 . S
C82 C81 1.377 . S
C82 C83 1.389 . S
C82 H104 0.929 . S
C83 C79 1.397 . S
C83 C82 1.389 . S
C83 H105 0.931 . S
C84 C81 1.481 . S
C84 C85 1.387 . S
C84 C89 1.390 . S
C85 C84 1.387 . S
C85 C86 1.401 . S
C85 H106 0.930 . S
C86 C85 1.401 . S
C86 C87 1.376 . S
C86 C95 1.511 . S
C87 C86 1.376 . S
C87 C88 1.392 . S
C87 H108 0.931 . S
C88 C87 1.392 . S
C88 C89 1.361 . S
C88 C90 1.500 . S
C89 C84 1.390 . S
C89 C88 1.361 . S
C89 H107 0.931 . S
C90 C88 1.500 . S
C90 C91 1.371 . S
C90 C92 1.365 . S
C91 C90 1.371 . S
C91 C101 1.386 . S
C91 H109 0.931 . S
C92 C90 1.365 . S
C92 C93 1.409 . S
C92 H110 0.929 . S
C93 C92 1.409 . S
C93 C94 1.380 . S
C93 H111 0.930 . S
C94 C93 1.380 . S
C94 C101 1.357 . S
C95 C86 1.511 . S
C95 C96 1.341 . S
C95 C97 1.371 . S
C96 C95 1.341 . S
C96 C100 1.394 . S
C96 H112 0.930 . S
C97 C95 1.371 . S
C97 C98 1.392 . S
C97 H113 0.931 . S
C98 C97 1.392 . S
C98 C99 1.331 . S
C98 H116 0.932 . S
C99 C98 1.331 . S
C99 C100 1.336 . S
C100 C96 1.394 . S
C100 C99 1.336 . S
C100 H115 0.929 . S
C101 C91 1.386 . S
C101 C94 1.357 . S
C101 H114 0.928 . S
H102 C78 0.931 . S
H103 C80 0.930 . S
H104 C82 0.929 . S
H105 C83 0.931 . S
H106 C85 0.930 . S
H107 C89 0.931 . S
H108 C87 0.931 . S
H109 C91 0.931 . S
H110 C92 0.929 . S
H111 C93 0.930 . S
H112 C96 0.930 . S
H113 C97 0.931 . S
H114 C101 0.928 . S
H115 C100 0.929 . S
H116 C98 0.932 . S
C117 C118 1.386 . S
C117 C119 1.397 . S
C117 H141 0.931 . S
C118 C117 1.386 . S
C118 C122 1.397 . S
C119 C117 1.397 . S
C119 C120 1.384 . S
C119 H142 0.930 . S
C120 C119 1.384 . S
C120 C121 1.377 . S
C120 C123 1.481 . S
C121 C120 1.377 . S
C121 C122 1.389 . S
C121 H143 0.929 . S
C122 C118 1.397 . S
C122 C121 1.389 . S
C122 H144 0.931 1_655 S
C123 C120 1.481 . S
C123 C124 1.387 . S
C123 C128 1.390 . S
C124 C123 1.387 . S
C124 C125 1.401 . S
C124 H145 0.930 . S
C125 C124 1.401 . S
C125 C126 1.376 . S
C125 C134 1.511 . S
C126 C125 1.376 . S
C126 C127 1.392 . S
C126 H147 0.931 . S
C127 C126 1.392 . S
C127 C128 1.361 . S
C127 C129 1.500 . S
C128 C123 1.390 . S
C128 C127 1.361 . S
C128 H146 0.931 . S
C129 C127 1.500 . S
C129 C130 1.371 . S
C129 C131 1.365 . S
C130 C129 1.371 . S
C130 C140 1.386 . S
C130 H148 0.931 . S
C131 C129 1.365 . S
C131 C132 1.409 . S
C131 H149 0.929 . S
C132 C131 1.409 . S
C132 C133 1.380 . S
C132 H150 0.930 1_655 S
C133 C132 1.380 . S
C133 C140 1.357 . S
C134 C125 1.511 . S
C134 C135 1.341 . S
C134 C136 1.371 . S
C135 C134 1.341 . S
C135 C139 1.394 . S
C135 H151 0.930 . S
C136 C134 1.371 . S
C136 C137 1.392 . S
C136 H152 0.931 . S
C137 C136 1.392 . S
C137 C138 1.331 . S
C137 H155 0.932 . S
C138 C137 1.331 . S
C138 C139 1.336 . S
C139 C135 1.394 . S
C139 C138 1.336 . S
C139 H154 0.929 . S
C140 C130 1.386 . S
C140 C133 1.357 . S
C140 H153 0.928 . S
H141 C117 0.931 . S
H142 C119 0.930 . S
H143 C121 0.929 . S
H144 C122 0.931 1_455 S
H145 C124 0.930 . S
H146 C128 0.931 . S
H147 C126 0.931 . S
H148 C130 0.931 . S
H149 C131 0.929 . S
H150 C132 0.930 1_455 S
H151 C135 0.930 . S
H152 C136 0.931 . S
H153 C140 0.928 . S
H154 C139 0.929 . S
H155 C137 0.932 . S
C156 C157 1.386 . S
C156 C158 1.397 . S
C156 H180 0.931 . S
C157 C156 1.386 . S
C157 C161 1.397 . S
C158 C156 1.397 . S
C158 C159 1.384 . S
C158 H181 0.930 . S
C159 C158 1.384 . S
C159 C160 1.377 . S
C159 C162 1.481 . S
C160 C159 1.377 . S
C160 C161 1.389 . S
C160 H182 0.929 . S
C161 C157 1.397 . S
C161 C160 1.389 . S
C161 H183 0.931 . S
C162 C159 1.481 . S
C162 C163 1.387 . S
C162 C167 1.390 . S
C163 C162 1.387 . S
C163 C164 1.401 . S
C163 H184 0.930 . S
C164 C163 1.401 . S
C164 C165 1.376 . S
C164 C173 1.511 . S
C165 C164 1.376 . S
C165 C166 1.392 . S
C165 H186 0.931 . S
C166 C165 1.392 . S
C166 C167 1.361 . S
C166 C168 1.500 . S
C167 C162 1.390 . S
C167 C166 1.361 . S
C167 H185 0.931 . S
C168 C166 1.500 . S
C168 C169 1.371 . S
C168 C170 1.365 . S
C169 C168 1.371 . S
C169 C179 1.386 . S
C169 H187 0.931 . S
C170 C168 1.365 . S
C170 C171 1.409 . S
C170 H188 0.929 . S
C171 C170 1.409 . S
C171 C172 1.380 . S
C171 H189 0.930 . S
C172 C171 1.380 . S
C172 C179 1.357 . S
C173 C164 1.511 . S
C173 C174 1.341 . S
C173 C175 1.371 . S
C174 C173 1.341 . S
C174 C178 1.394 . S
C174 H190 0.930 . S
C175 C173 1.371 . S
C175 C176 1.392 . S
C175 H191 0.931 . S
C176 C175 1.392 . S
C176 C177 1.331 . S
C176 H194 0.932 . S
C177 C176 1.331 . S
C177 C178 1.336 . S
C178 C174 1.394 . S
C178 C177 1.336 . S
C178 H193 0.929 . S
C179 C169 1.386 . S
C179 C172 1.357 . S
C179 H192 0.928 . S
H180 C156 0.931 . S
H181 C158 0.930 . S
H182 C160 0.929 . S
H183 C161 0.931 . S
H184 C163 0.930 . S
H185 C167 0.931 . S
H186 C165 0.931 . S
H187 C169 0.931 . S
H188 C170 0.929 . S
H189 C171 0.930 . S
H190 C174 0.930 . S
H191 C175 0.931 . S
H192 C179 0.928 . S
H193 C178 0.929 . S
H194 C176 0.932 . S
C195 C196 1.386 . S
C195 C197 1.397 . S
C195 H219 0.931 . S
C196 C195 1.386 . S
C196 C200 1.397 . S
C197 C195 1.397 . S
C197 C198 1.384 . S
C197 H220 0.930 . S
C198 C197 1.384 . S
C198 C199 1.377 . S
C198 C201 1.481 . S
C199 C198 1.377 . S
C199 C200 1.389 . S
C199 H221 0.929 . S
C200 C196 1.397 . S
C200 C199 1.389 . S
C200 H222 0.931 . S
C201 C198 1.481 . S
C201 C202 1.387 . S
C201 C206 1.390 . S
C202 C201 1.387 . S
C202 C203 1.401 . S
C202 H223 0.930 . S
C203 C202 1.401 . S
C203 C204 1.376 . S
C203 C212 1.511 . S
C204 C203 1.376 . S
C204 C205 1.392 . S
C204 H225 0.931 . S
C205 C204 1.392 . S
C205 C206 1.361 . S
C205 C207 1.500 . S
C206 C201 1.390 . S
C206 C205 1.361 . S
C206 H224 0.931 . S
C207 C205 1.500 . S
C207 C208 1.371 . S
C207 C209 1.365 . S
C208 C207 1.371 . S
C208 C218 1.386 . S
C208 H226 0.931 . S
C209 C207 1.365 . S
C209 C210 1.409 . S
C209 H227 0.929 . S
C210 C209 1.409 . S
C210 C211 1.380 . S
C210 H228 0.930 . S
C211 C210 1.380 . S
C211 C218 1.357 . S
C212 C203 1.511 . S
C212 C213 1.341 . S
C212 C214 1.371 1_655 S
C213 C212 1.341 . S
C213 C217 1.394 1_655 S
C213 H229 0.930 . S
C214 C212 1.371 1_455 S
C214 C215 1.392 . S
C214 H230 0.931 . S
C215 C214 1.392 . S
C215 C216 1.331 . S
C215 H233 0.932 . S
C216 C215 1.331 . S
C216 C217 1.336 . S
C217 C213 1.394 1_455 S
C217 C216 1.336 . S
C217 H232 0.929 . S
C218 C208 1.386 . S
C218 C211 1.357 . S
C218 H231 0.928 . S
H219 C195 0.931 . S
H220 C197 0.930 . S
H221 C199 0.929 . S
H222 C200 0.931 . S
H223 C202 0.930 . S
H224 C206 0.931 . S
H225 C204 0.931 . S
H226 C208 0.931 . S
H227 C209 0.929 . S
H228 C210 0.930 . S
H229 C213 0.930 . S
H230 C214 0.931 . S
H231 C218 0.928 . S
H232 C217 0.929 . S
H233 C215 0.932 . S
C234 C235 1.386 . S
C234 C236 1.397 . S
C234 H258 0.931 . S
C235 C234 1.386 . S
C235 C239 1.397 . S
C236 C234 1.397 . S
C236 C237 1.384 . S
C236 H259 0.930 . S
C237 C236 1.384 . S
C237 C238 1.377 . S
C237 C240 1.481 . S
C238 C237 1.377 . S
C238 C239 1.389 . S
C238 H260 0.929 . S
C239 C235 1.397 . S
C239 C238 1.389 . S
C239 H261 0.931 . S
C240 C237 1.481 . S
C240 C241 1.387 . S
C240 C245 1.390 . S
C241 C240 1.387 . S
C241 C242 1.401 . S
C241 H262 0.930 . S
C242 C241 1.401 . S
C242 C243 1.376 . S
C242 C251 1.511 . S
C243 C242 1.376 . S
C243 C244 1.392 . S
C243 H264 0.931 . S
C244 C243 1.392 . S
C244 C245 1.361 . S
C244 C246 1.500 . S
C245 C240 1.390 . S
C245 C244 1.361 . S
C245 H263 0.931 . S
C246 C244 1.500 . S
C246 C247 1.371 . S
C246 C248 1.365 . S
C247 C246 1.371 . S
C247 C257 1.386 . S
C247 H265 0.931 . S
C248 C246 1.365 . S
C248 C249 1.409 . S
C248 H266 0.929 . S
C249 C248 1.409 . S
C249 C250 1.380 . S
C249 H267 0.930 . S
C250 C249 1.380 . S
C250 C257 1.357 . S
C251 C242 1.511 . S
C251 C252 1.341 . S
C251 C253 1.371 . S
C252 C251 1.341 . S
C252 C256 1.394 . S
C252 H268 0.930 . S
C253 C251 1.371 . S
C253 C254 1.392 . S
C253 H269 0.931 . S
C254 C253 1.392 . S
C254 C255 1.331 . S
C254 H272 0.932 . S
C255 C254 1.331 . S
C255 C256 1.336 . S
C256 C252 1.394 . S
C256 C255 1.336 . S
C256 H271 0.929 . S
C257 C247 1.386 . S
C257 C250 1.357 . S
C257 H270 0.928 . S
H258 C234 0.931 . S
H259 C236 0.930 . S
H260 C238 0.929 . S
H261 C239 0.931 . S
H262 C241 0.930 . S
H263 C245 0.931 . S
H264 C243 0.931 . S
H265 C247 0.931 . S
H266 C248 0.929 . S
H267 C249 0.930 . S
H268 C252 0.930 . S
H269 C253 0.931 . S
H270 C257 0.928 . S
H271 C256 0.929 . S
H272 C254 0.932 . S
C273 C274 1.386 . S
C273 C275 1.397 . S
C273 H297 0.931 . S
C274 C273 1.386 . S
C274 C278 1.397 . S
C275 C273 1.397 . S
C275 C276 1.384 . S
C275 H298 0.930 . S
C276 C275 1.384 . S
C276 C277 1.377 . S
C276 C279 1.481 . S
C277 C276 1.377 . S
C277 C278 1.389 . S
C277 H299 0.929 . S
C278 C274 1.397 . S
C278 C277 1.389 . S
C278 H300 0.931 1_455 S
C279 C276 1.481 . S
C279 C280 1.387 . S
C279 C284 1.390 . S
C280 C279 1.387 . S
C280 C281 1.401 . S
C280 H301 0.930 . S
C281 C280 1.401 . S
C281 C282 1.376 . S
C281 C290 1.511 . S
C282 C281 1.376 . S
C282 C283 1.392 . S
C282 H303 0.931 . S
C283 C282 1.392 . S
C283 C284 1.361 . S
C283 C285 1.500 . S
C284 C279 1.390 . S
C284 C283 1.361 . S
C284 H302 0.931 . S
C285 C283 1.500 . S
C285 C286 1.371 . S
C285 C287 1.365 . S
C286 C285 1.371 . S
C286 C296 1.386 . S
C286 H304 0.931 . S
C287 C285 1.365 . S
C287 C288 1.409 . S
C287 H305 0.929 . S
C288 C287 1.409 . S
C288 C289 1.380 . S
C288 H306 0.930 1_455 S
C289 C288 1.380 . S
C289 C296 1.357 . S
C290 C281 1.511 . S
C290 C291 1.341 . S
C290 C292 1.371 . S
C291 C290 1.341 . S
C291 C295 1.394 . S
C291 H307 0.930 . S
C292 C290 1.371 . S
C292 C293 1.392 . S
C292 H308 0.931 . S
C293 C292 1.392 . S
C293 C294 1.331 . S
C293 H311 0.932 . S
C294 C293 1.331 . S
C294 C295 1.336 . S
C295 C291 1.394 . S
C295 C294 1.336 . S
C295 H310 0.929 . S
C296 C286 1.386 . S
C296 C289 1.357 . S
C296 H309 0.928 . S
H297 C273 0.931 . S
H298 C275 0.930 . S
H299 C277 0.929 . S
H300 C278 0.931 1_655 S
H301 C280 0.930 . S
H302 C284 0.931 . S
H303 C282 0.931 . S
H304 C286 0.931 . S
H305 C287 0.929 . S
H306 C288 0.930 1_655 S
H307 C291 0.930 . S
H308 C292 0.931 . S
H309 C296 0.928 . S
H310 C295 0.929 . S
H311 C293 0.932 . S
Dy312 O315 2.307 1_545 S
Dy312 O317 2.395 . S
Dy312 O318 2.379 . S
Dy312 O320 2.339 1_545 S
Dy312 O322 2.298 . S
Dy312 O326 2.275 . S
Dy312 C334 2.738 . S
Dy313 O316 2.298 . S
Dy313 O319 2.275 . S
Dy313 O321 2.307 1_565 S
Dy313 O323 2.395 . S
Dy313 O324 2.379 . S
Dy313 O327 2.339 1_565 S
Dy313 C343 2.738 . S
C314 O326 1.254 . S
C314 O327 1.257 1_455 S
O315 Dy312 2.307 1_565 S
O315 C325 1.266 . S
O316 Dy313 2.298 . S
O316 C325 1.236 1_655 S
O317 Dy312 2.395 . S
O317 C334 1.255 . S
O318 Dy312 2.379 . S
O318 C334 1.249 . S
O319 Dy313 2.275 . S
O319 C335 1.254 . S
O320 Dy312 2.339 1_565 S
O320 C335 1.257 1_455 S
O321 Dy313 2.307 1_545 S
O321 C336 1.266 . S
O322 Dy312 2.298 . S
O322 C336 1.236 1_455 S
O323 Dy313 2.395 . S
O323 C343 1.255 . S
O324 Dy313 2.379 . S
O324 C343 1.249 . S
C325 O315 1.266 . S
C325 O316 1.236 1_455 S
O326 Dy312 2.275 . S
O326 C314 1.254 . S
O327 Dy313 2.339 1_545 S
O327 C314 1.257 1_655 S
C328 C331 1.344 . S
C328 C332 1.328 . S
C328 C334 1.516 . S
C329 C330 1.304 . S
C329 C333 1.323 . S
C330 C329 1.304 . S
C330 C331 1.371 . S
C330 H344 0.930 . S
C331 C328 1.344 . S
C331 C330 1.371 . S
C331 H345 0.931 . S
C332 C328 1.328 . S
C332 C333 1.433 . S
C332 H346 0.931 . S
C333 C329 1.323 . S
C333 C332 1.433 . S
C333 H347 0.933 . S
C334 Dy312 2.738 . S
C334 O317 1.255 . S
C334 O318 1.249 . S
C334 C328 1.516 . S
C335 O319 1.254 . S
C335 O320 1.257 1_655 S
C336 O321 1.266 . S
C336 O322 1.236 1_655 S
C337 C340 1.344 . S
C337 C341 1.328 . S
C337 C343 1.516 . S
C338 C339 1.304 . S
C338 C342 1.323 . S
C339 C338 1.304 . S
C339 C340 1.371 . S
C339 H348 0.930 . S
C340 C337 1.344 . S
C340 C339 1.371 . S
C340 H349 0.931 . S
C341 C337 1.328 . S
C341 C342 1.433 . S
C341 H350 0.931 . S
C342 C338 1.323 . S
C342 C341 1.433 . S
C342 H351 0.933 . S
C343 Dy313 2.738 . S
C343 O323 1.255 . S
C343 O324 1.249 . S
C343 C337 1.516 . S
H344 C330 0.930 . S
H345 C331 0.931 . S
H346 C332 0.931 . S
H347 C333 0.933 . S
H348 C339 0.930 . S
H349 C340 0.931 . S
H350 C341 0.931 . S
H351 C342 0.933 . S
Dy352 O355 2.307 1_566 S
Dy352 O357 2.395 . S
Dy352 O358 2.379 . S
Dy352 O360 2.339 1_565 S
Dy352 O362 2.298 . S
Dy352 O366 2.275 1_556 S
Dy352 C374 2.738 . S
Dy353 O356 2.298 . S
Dy353 O359 2.275 1_554 S
Dy353 O361 2.307 1_544 S
Dy353 O363 2.395 . S
Dy353 O364 2.379 . S
Dy353 O367 2.339 1_545 S
Dy353 C383 2.738 . S
C354 O366 1.254 . S
C354 O367 1.257 . S
O355 Dy352 2.307 1_544 S
O355 C365 1.266 . S
O356 Dy353 2.298 . S
O356 C365 1.236 . S
O357 Dy352 2.395 . S
O357 C374 1.255 . S
O358 Dy352 2.379 . S
O358 C374 1.249 . S
O359 Dy353 2.275 1_556 S
O359 C375 1.254 . S
O360 Dy352 2.339 1_545 S
O360 C375 1.257 . S
O361 Dy353 2.307 1_566 S
O361 C376 1.266 . S
O362 Dy352 2.298 . S
O362 C376 1.236 . S
O363 Dy353 2.395 . S
O363 C383 1.255 . S
O364 Dy353 2.379 . S
O364 C383 1.249 . S
C365 O355 1.266 . S
C365 O356 1.236 . S
O366 Dy352 2.275 1_554 S
O366 C354 1.254 . S
O367 Dy353 2.339 1_565 S
O367 C354 1.257 . S
C368 C371 1.344 . S
C368 C372 1.328 . S
C368 C374 1.516 . S
C369 C370 1.304 . S
C369 C373 1.323 . S
C370 C369 1.304 . S
C370 C371 1.371 . S
C370 H384 0.930 . S
C371 C368 1.344 . S
C371 C370 1.371 . S
C371 H385 0.931 . S
C372 C368 1.328 . S
C372 C373 1.433 . S
C372 H386 0.931 . S
C373 C369 1.323 . S
C373 C372 1.433 . S
C373 H387 0.933 . S
C374 Dy352 2.738 . S
C374 O357 1.255 . S
C374 O358 1.249 . S
C374 C368 1.516 . S
C375 O359 1.254 . S
C375 O360 1.257 . S
C376 O361 1.266 . S
C376 O362 1.236 . S
C377 C380 1.344 . S
C377 C381 1.328 . S
C377 C383 1.516 . S
C378 C379 1.304 . S
C378 C382 1.323 . S
C379 C378 1.304 . S
C379 C380 1.371 . S
C379 H388 0.930 . S
C380 C377 1.344 . S
C380 C379 1.371 . S
C380 H389 0.931 . S
C381 C377 1.328 . S
C381 C382 1.433 . S
C381 H390 0.931 . S
C382 C378 1.323 . S
C382 C381 1.433 . S
C382 H391 0.933 . S
C383 Dy353 2.738 . S
C383 O363 1.255 . S
C383 O364 1.249 . S
C383 C377 1.516 . S
H384 C370 0.930 . S
H385 C371 0.931 . S
H386 C372 0.931 . S
H387 C373 0.933 . S
H388 C379 0.930 . S
H389 C380 0.931 . S
H390 C381 0.931 . S
H391 C382 0.933 . S
Dy392 O395 2.307 . S
Dy392 O397 2.395 . S
Dy392 O398 2.379 . S
Dy392 O400 2.339 . S
Dy392 O402 2.298 . S
Dy392 O406 2.275 . S
Dy392 C414 2.738 . S
Dy393 O396 2.298 . S
Dy393 O399 2.275 . S
Dy393 O401 2.307 . S
Dy393 O403 2.395 . S
Dy393 O404 2.379 . S
Dy393 O407 2.339 . S
Dy393 C423 2.738 . S
C394 O406 1.254 . S
C394 O407 1.257 . S
O395 Dy392 2.307 . S
O395 C405 1.266 . S
O396 Dy393 2.298 . S
O396 C405 1.236 . S
O397 Dy392 2.395 . S
O397 C414 1.255 . S
O398 Dy392 2.379 . S
O398 C414 1.249 . S
O399 Dy393 2.275 . S
O399 C415 1.254 . S
O400 Dy392 2.339 . S
O400 C415 1.257 . S
O401 Dy393 2.307 . S
O401 C416 1.266 . S
O402 Dy392 2.298 . S
O402 C416 1.236 . S
O403 Dy393 2.395 . S
O403 C423 1.255 . S
O404 Dy393 2.379 . S
O404 C423 1.249 . S
C405 O395 1.266 . S
C405 O396 1.236 . S
O406 Dy392 2.275 . S
O406 C394 1.254 . S
O407 Dy393 2.339 . S
O407 C394 1.257 . S
C408 C411 1.344 . S
C408 C412 1.328 . S
C408 C414 1.516 . S
C409 C410 1.304 . S
C409 C413 1.323 . S
C410 C409 1.304 . S
C410 C411 1.371 . S
C410 H424 0.930 . S
C411 C408 1.344 . S
C411 C410 1.371 . S
C411 H425 0.931 . S
C412 C408 1.328 . S
C412 C413 1.433 . S
C412 H426 0.931 . S
C413 C409 1.323 . S
C413 C412 1.433 . S
C413 H427 0.933 . S
C414 Dy392 2.738 . S
C414 O397 1.255 . S
C414 O398 1.249 . S
C414 C408 1.516 . S
C415 O399 1.254 . S
C415 O400 1.257 . S
C416 O401 1.266 . S
C416 O402 1.236 . S
C417 C420 1.344 . S
C417 C421 1.328 . S
C417 C423 1.516 . S
C418 C419 1.304 . S
C418 C422 1.323 . S
C419 C418 1.304 . S
C419 C420 1.371 . S
C419 H428 0.930 . S
C420 C417 1.344 . S
C420 C419 1.371 . S
C420 H429 0.931 . S
C421 C417 1.328 . S
C421 C422 1.433 . S
C421 H430 0.931 . S
C422 C418 1.323 . S
C422 C421 1.433 . S
C422 H431 0.933 . S
C423 Dy393 2.738 . S
C423 O403 1.255 . S
C423 O404 1.249 . S
C423 C417 1.516 . S
H424 C410 0.930 . S
H425 C411 0.931 . S
H426 C412 0.931 . S
H427 C413 0.933 . S
H428 C419 0.930 . S
H429 C420 0.931 . S
H430 C421 0.931 . S
H431 C422 0.933 . S
Dy432 O435 2.302 1_656 S
Dy432 O437 2.395 . S
Dy432 O438 2.379 . S
Dy432 O440 2.339 1_655 S
Dy432 O442 2.298 . S
Dy432 O446 2.275 1_556 S
Dy432 C454 2.738 . S
Dy433 O436 2.298 . S
Dy433 O439 2.275 1_554 S
Dy433 O441 2.317 1_455 S
Dy433 O443 2.395 . S
Dy433 O444 2.379 . S
Dy433 O447 2.339 1_455 S
Dy433 C463 2.738 . S
C434 O446 1.254 . S
C434 O447 1.257 . S
O435 Dy432 2.302 1_454 S
O435 C445 1.274 . S
O436 Dy433 2.298 . S
O436 C445 1.236 . S
O437 Dy432 2.395 . S
O437 C454 1.255 . S
O438 Dy432 2.379 . S
O438 C454 1.249 . S
O439 Dy433 2.275 1_556 S
O439 C455 1.254 . S
O440 Dy432 2.339 1_455 S
O440 C455 1.257 . S
O441 Dy433 2.317 1_655 S
O441 C456 1.251 1_554 S
O442 Dy432 2.298 . S
O442 C456 1.236 . S
O443 Dy433 2.395 . S
O443 C463 1.255 . S
O444 Dy433 2.379 . S
O444 C463 1.249 . S
C445 O435 1.274 . S
C445 O436 1.236 . S
O446 Dy432 2.275 1_554 S
O446 C434 1.254 . S
O447 Dy433 2.339 1_655 S
O447 C434 1.257 . S
C448 C451 1.344 . S
C448 C452 1.328 . S
C448 C454 1.516 . S
C449 C450 1.304 . S
C449 C453 1.323 . S
C450 C449 1.304 . S
C450 C451 1.371 . S
C450 H464 0.930 . S
C451 C448 1.344 . S
C451 C450 1.371 . S
C451 H465 0.931 . S
C452 C448 1.328 . S
C452 C453 1.433 . S
C452 H466 0.931 . S
C453 C449 1.323 . S
C453 C452 1.433 . S
C453 H467 0.933 . S
C454 Dy432 2.738 . S
C454 O437 1.255 . S
C454 O438 1.249 . S
C454 C448 1.516 . S
C455 O439 1.254 . S
C455 O440 1.257 . S
C456 O441 1.251 1_556 S
C456 O442 1.236 . S
C457 C460 1.344 . S
C457 C461 1.328 . S
C457 C463 1.516 . S
C458 C459 1.304 . S
C458 C462 1.323 . S
C459 C458 1.304 . S
C459 C460 1.371 . S
C459 H468 0.930 . S
C460 C457 1.344 . S
C460 C459 1.371 . S
C460 H469 0.931 . S
C461 C457 1.328 . S
C461 C462 1.433 . S
C461 H470 0.931 . S
C462 C458 1.323 . S
C462 C461 1.433 . S
C462 H471 0.933 . S
C463 Dy433 2.738 . S
C463 O443 1.255 . S
C463 O444 1.249 . S
C463 C457 1.516 . S
H464 C450 0.930 . S
H465 C451 0.931 . S
H466 C452 0.931 . S
H467 C453 0.933 . S
H468 C459 0.930 . S
H469 C460 0.931 . S
H470 C461 0.931 . S
H471 C462 0.933 . S
C1 C329 2.165 . S
C40 C369 2.208 . S
C394 C99 3.635 . S
C118 C434 3.629 . S
C365 C16 3.567 . S
C325 C60 3.645 1_455 S
C456 C79 2.480 . S
C416 C138 2.436 . S
C21 C458 3.309 . S
C375 C94 3.171 . S
C133 C335 3.157 . S
C55 C418 3.304 . S
C338 C157 2.195 . S
C196 C378 2.189 . S
C255 C415 3.632 . S
C289 C455 3.625 . S
C172 C376 3.547 . S
C336 C216 3.585 1_655 S
C445 C235 2.479 . S
C405 C294 2.446 . S
C177 C449 3.340 . S
C354 C250 3.176 . S
C314 C274 3.153 . S
C211 C409 3.325 . S
