# Generated by pormake.
# Topology dag, (6,3)-cn, num edge types: 1
# Building blocks:
#     Node 0, Type 0, BuildingBlock: IZENUY_clean_sbu_0, # of connection points: 6
#     Node 1, Type 0, BuildingBlock: IZENUY_clean_sbu_0, # of connection points: 6
#     Node 2, Type 0, BuildingBlock: IZENUY_clean_sbu_0, # of connection points: 6
#     Node 3, Type 0, BuildingBlock: IZENUY_clean_sbu_0, # of connection points: 6
#     Node 4, Type 1, BuildingBlock: QEWDON_clean_linker_0, # of connection points: 3
#     Node 5, Type 1, BuildingBlock: QEWDON_clean_linker_0, # of connection points: 3
#     Node 6, Type 1, BuildingBlock: QEWDON_clean_linker_0, # of connection points: 3
#     Node 7, Type 1, BuildingBlock: QEWDON_clean_linker_0, # of connection points: 3
#     Node 8, Type 1, BuildingBlock: QEWDON_clean_linker_0, # of connection points: 3
#     Node 9, Type 1, BuildingBlock: QEWDON_clean_linker_0, # of connection points: 3
#     Node 10, Type 1, BuildingBlock: QEWDON_clean_linker_0, # of connection points: 3
#     Node 11, Type 1, BuildingBlock: QEWDON_clean_linker_0, # of connection points: 3
#     Edge 12, Type (0, 1), BuildingBlock: OJICUG_clean_linker_0, # of connection points: 2
#     Edge 13, Type (0, 1), BuildingBlock: OJICUG_clean_linker_0, # of connection points: 2
#     Edge 14, Type (0, 1), BuildingBlock: OJICUG_clean_linker_0, # of connection points: 2
#     Edge 15, Type (0, 1), BuildingBlock: OJICUG_clean_linker_0, # of connection points: 2
#     Edge 16, Type (0, 1), BuildingBlock: OJICUG_clean_linker_0, # of connection points: 2
#     Edge 17, Type (0, 1), BuildingBlock: OJICUG_clean_linker_0, # of connection points: 2
#     Edge 18, Type (0, 1), BuildingBlock: OJICUG_clean_linker_0, # of connection points: 2
#     Edge 19, Type (0, 1), BuildingBlock: OJICUG_clean_linker_0, # of connection points: 2
#     Edge 20, Type (0, 1), BuildingBlock: OJICUG_clean_linker_0, # of connection points: 2
#     Edge 21, Type (0, 1), BuildingBlock: OJICUG_clean_linker_0, # of connection points: 2
#     Edge 22, Type (0, 1), BuildingBlock: OJICUG_clean_linker_0, # of connection points: 2
#     Edge 23, Type (0, 1), BuildingBlock: OJICUG_clean_linker_0, # of connection points: 2
#     Edge 24, Type (0, 1), BuildingBlock: OJICUG_clean_linker_0, # of connection points: 2
#     Edge 25, Type (0, 1), BuildingBlock: OJICUG_clean_linker_0, # of connection points: 2
#     Edge 26, Type (0, 1), BuildingBlock: OJICUG_clean_linker_0, # of connection points: 2
#     Edge 27, Type (0, 1), BuildingBlock: OJICUG_clean_linker_0, # of connection points: 2
#     Edge 28, Type (0, 1), BuildingBlock: OJICUG_clean_linker_0, # of connection points: 2
#     Edge 29, Type (0, 1), BuildingBlock: OJICUG_clean_linker_0, # of connection points: 2
#     Edge 30, Type (0, 1), BuildingBlock: OJICUG_clean_linker_0, # of connection points: 2
#     Edge 31, Type (0, 1), BuildingBlock: OJICUG_clean_linker_0, # of connection points: 2
#     Edge 32, Type (0, 1), BuildingBlock: OJICUG_clean_linker_0, # of connection points: 2
#     Edge 33, Type (0, 1), BuildingBlock: OJICUG_clean_linker_0, # of connection points: 2
#     Edge 34, Type (0, 1), BuildingBlock: OJICUG_clean_linker_0, # of connection points: 2
#     Edge 35, Type (0, 1), BuildingBlock: OJICUG_clean_linker_0, # of connection points: 2
# Relax obj value: 0.043
# Max RMSD: 0.072
# Mean RMSD: 0.067
data_MOF--net-dag--node1-IZENUY_clean_sbu_0--node2-QEWDON_clean_linker_0--edge1-OJICUG_clean_linker_0
_symmetry_space_group_name_H-M    P1
_symmetry_Int_Tables_number       1
_symmetry_cell_setting            triclinic
loop_
_symmetry_equiv_pos_as_xyz
'x, y, z'
_cell_length_a     30.401358
_cell_length_b     30.659292
_cell_length_c     28.008916
_cell_angle_alpha  91.128884
_cell_angle_beta   89.886381
_cell_angle_gamma 90.200407
loop_
_atom_site_label
_atom_site_type_symbol
_atom_site_fract_x
_atom_site_fract_y
_atom_site_fract_z
_atom_type_partial_charge
Fe0 Fe 0.21002 0.87647 0.04114 0.0
Fe1 Fe 0.1132 0.89513 0.02151 0.0
O2 O 0.15552 0.85735 0.0316 0.0
Fe3 Fe 0.14324 0.80066 0.0326 0.0
O4 O 0.18543 0.7883 0.07779 0.0
O5 O 0.21088 0.85293 0.09978 0.0
O6 O 0.19386 0.92847 0.07065 0.0
C7 C 0.15833 0.93879 0.0917 0.0
C8 C 0.22155 0.79936 0.98426 0.0
O9 O 0.12239 0.92168 0.07892 0.0
C10 C 0.08925 0.83187 0.9574 0.0
O11 O 0.21255 0.90164 0.98291 0.0
O12 O 0.14835 0.9339 0.99045 0.0
O13 O 0.18115 0.78946 0.98346 0.0
O14 O 0.23597 0.82806 0.01357 0.0
C15 C 0.07266 0.83394 0.08154 0.0
O16 O 0.10153 0.8708 0.96362 0.0
O17 O 0.09822 0.80327 0.9881 0.0
C18 C 0.18458 0.92877 0.96888 0.0
O19 O 0.0701 0.86335 0.05071 0.0
O20 O 0.10465 0.8079 0.08199 0.0
C21 C 0.20395 0.81328 0.10846 0.0
Fe22 Fe 0.70856 0.61484 0.50152 0.0
Fe23 Fe 0.64494 0.69312 0.51028 0.0
O24 O 0.65478 0.63596 0.51053 0.0
Fe25 Fe 0.6104 0.59985 0.51945 0.0
O26 O 0.64268 0.55873 0.54953 0.0
O27 O 0.70853 0.58733 0.55884 0.0
O28 O 0.7361 0.66144 0.53166 0.0
C29 C 0.72217 0.69095 0.56034 0.0
C30 C 0.65433 0.55574 0.4485 0.0
O31 O 0.68226 0.70235 0.56011 0.0
C32 C 0.57369 0.66312 0.46006 0.0
O33 O 0.71238 0.64016 0.44363 0.0
O34 O 0.68844 0.70494 0.4664 0.0
O35 O 0.61902 0.57389 0.46164 0.0
O36 O 0.6903 0.56464 0.46955 0.0
C37 C 0.58961 0.66321 0.58482 0.0
O38 O 0.60694 0.68784 0.46008 0.0
O39 O 0.56929 0.63397 0.4909 0.0
C40 C 0.70722 0.68022 0.43585 0.0
O41 O 0.59932 0.69158 0.55411 0.0
O42 O 0.5995 0.62374 0.5778 0.0
C43 C 0.67885 0.56099 0.57142 0.0
Fe44 Fe 0.88118 0.19345 0.99964 0.0
Fe45 Fe 0.90486 0.09817 0.01443 0.0
O46 O 0.86466 0.13826 1.00474 0.0
Fe47 Fe 0.80851 0.1228 0.99982 0.0
O48 O 0.79486 0.1646 0.95543 0.0
O49 O 0.85865 0.19571 0.94024 0.0
O50 O 0.93455 0.18067 0.97103 0.0
C51 C 0.94691 0.14673 0.94805 0.0
C52 C 0.80104 0.19902 0.05232 0.0
O53 O 0.93129 0.10978 0.95799 0.0
C54 C 0.84159 0.07015 0.075 0.0
O55 O 0.90552 0.19487 0.05918 0.0
O56 O 0.94254 0.13439 0.04715 0.0
O57 O 0.79306 0.15858 0.04964 0.0
O58 O 0.83069 0.2159 0.02659 0.0
C59 C 0.84626 0.05427 0.95174 0.0
O60 O 0.88025 0.08481 0.07109 0.0
O61 O 0.81286 0.07805 0.04331 0.0
C62 C 0.93571 0.16913 0.07088 0.0
O63 O 0.87529 0.05375 0.98382 0.0
O64 O 0.8197 0.08566 0.94932 0.0
C65 C 0.81974 0.18645 0.92825 0.0
Fe66 Fe 0.40626 0.39353 0.51599 0.0
Fe67 Fe 0.30829 0.37944 0.53541 0.0
O68 O 0.36168 0.35781 0.52543 0.0
Fe69 Fe 0.37086 0.30055 0.52534 0.0
O70 O 0.40944 0.30534 0.575 0.0
O71 O 0.44731 0.35903 0.54405 0.0
O72 O 0.3985 0.41956 0.57394 0.0
C73 C 0.36346 0.43791 0.58758 0.0
C74 C 0.42598 0.33009 0.4503 0.0
O75 O 0.32732 0.42951 0.56679 0.0
C76 C 0.29291 0.30373 0.4769 0.0
O77 O 0.3739 0.4348 0.48627 0.0
O78 O 0.30771 0.40667 0.47802 0.0
O79 O 0.41603 0.30168 0.4809 0.0
O80 O 0.41641 0.36961 0.4575 0.0
C81 C 0.31012 0.31418 0.60097 0.0
O82 O 0.27991 0.33316 0.5061 0.0
O83 O 0.3327 0.29185 0.47609 0.0
C84 C 0.33752 0.43255 0.46476 0.0
O85 O 0.30527 0.3543 0.59339 0.0
O86 O 0.32784 0.28924 0.56987 0.0
C87 C 0.44281 0.32988 0.57487 0.0
H88 H 0.1617 0.0893 0.26933 0.0
C89 C 0.14018 0.10892 0.24771 0.0
C90 C 0.13095 0.09585 0.20051 0.0
C91 C 0.11929 0.14577 0.26791 0.0
H92 H 0.09295 0.10855 0.13782 0.0
C93 C 0.10142 0.12007 0.17354 0.0
C94 C 0.07925 0.15605 0.19367 0.0
C95 C 0.08833 0.16883 0.24104 0.0
C96 C 0.12437 0.15612 0.31921 0.0
H97 H 0.0703 0.19565 0.25747 0.0
C98 C 0.15818 0.18387 0.33602 0.0
C99 C 0.16077 0.1951 0.38499 0.0
C100 C 0.09387 0.13896 0.35147 0.0
H101 H 0.06768 0.11759 0.33896 0.0
C102 C 0.09675 0.14945 0.4 0.0
H103 H 0.18151 0.1975 0.31103 0.0
C104 C 0.1298 0.17745 0.4167 0.0
H105 H 0.13133 0.18516 0.45458 0.0
H106 H 0.07313 0.13605 0.42474 0.0
H107 H 0.44557 0.68991 0.76983 0.0
C108 C 0.42829 0.6642 0.75037 0.0
C109 C 0.44203 0.65226 0.70409 0.0
C110 C 0.39429 0.64083 0.77278 0.0
H111 H 0.43404 0.6063 0.64576 0.0
C112 C 0.42177 0.61698 0.68049 0.0
C113 C 0.3895 0.59217 0.70315 0.0
C114 C 0.37514 0.60454 0.74909 0.0
C115 C 0.38567 0.64845 0.82413 0.0
H116 H 0.35155 0.58432 0.7676 0.0
C117 C 0.35351 0.67823 0.84048 0.0
C118 C 0.34789 0.68616 0.88991 0.0
C119 C 0.41133 0.62616 0.85723 0.0
H120 H 0.43618 0.60318 0.84516 0.0
C121 C 0.40548 0.63359 0.90606 0.0
H122 H 0.33381 0.69575 0.81501 0.0
C123 C 0.37417 0.6635 0.92235 0.0
H124 H 0.37029 0.66883 0.96049 0.0
H125 H 0.42547 0.61631 0.93137 0.0
H126 H 0.88505 0.78855 0.19244 0.0
C127 C 0.87618 0.82246 0.18806 0.0
C128 C 0.90838 0.85283 0.17455 0.0
C129 C 0.83205 0.83536 0.19356 0.0
H130 H 0.92035 0.91936 0.15499 0.0
C131 C 0.89602 0.89632 0.16761 0.0
C132 C 0.85201 0.90958 0.17196 0.0
C133 C 0.82002 0.87876 0.18478 0.0
C134 C 0.7977 0.80223 0.20205 0.0
H135 H 0.78573 0.88821 0.18694 0.0
C136 C 0.79102 0.78472 0.24763 0.0
C137 C 0.75878 0.75221 0.25446 0.0
C138 C 0.77186 0.78744 0.16358 0.0
H139 H 0.7766 0.80061 0.12831 0.0
C140 C 0.7401 0.75517 0.17015 0.0
H141 H 0.81093 0.79616 0.27744 0.0
C142 C 0.73365 0.73754 0.21518 0.0
H143 H 0.70841 0.71288 0.2195 0.0
H144 H 0.72037 0.74382 0.14025 0.0
H145 H 0.73043 0.37878 0.6817 0.0
C146 C 0.69592 0.37009 0.67898 0.0
C147 C 0.66491 0.40186 0.66683 0.0
C148 C 0.68267 0.32666 0.68601 0.0
H149 H 0.59689 0.4132 0.64975 0.0
C150 C 0.62056 0.38947 0.66182 0.0
C151 C 0.60703 0.346 0.66743 0.0
C152 C 0.63836 0.31471 0.67992 0.0
C153 C 0.71604 0.29265 0.69303 0.0
H154 H 0.62865 0.28083 0.68319 0.0
C155 C 0.72682 0.27829 0.73896 0.0
C156 C 0.75988 0.24673 0.74473 0.0
C157 C 0.7376 0.27474 0.65298 0.0
H158 H 0.7295 0.28543 0.61742 0.0
C159 C 0.76977 0.24297 0.6585 0.0
H160 H 0.71046 0.29247 0.76996 0.0
C161 C 0.78102 0.22914 0.70401 0.0
H162 H 0.8063 0.20457 0.70743 0.0
H163 H 0.78626 0.22921 0.62743 0.0
H164 H 0.66699 0.40768 0.27055 0.0
C165 C 0.64286 0.38777 0.28865 0.0
C166 C 0.62812 0.40034 0.33438 0.0
C167 C 0.6234 0.35187 0.26449 0.0
H168 H 0.58256 0.38681 0.39101 0.0
C169 C 0.59512 0.37599 0.35646 0.0
C170 C 0.57466 0.341 0.33247 0.0
C171 C 0.58874 0.32898 0.28631 0.0
C172 C 0.63257 0.34466 0.21314 0.0
H173 H 0.57131 0.3036 0.26651 0.0
C174 C 0.66605 0.31629 0.19686 0.0
C175 C 0.67514 0.31214 0.14753 0.0
C176 C 0.60784 0.36792 0.18002 0.0
H177 H 0.58199 0.38981 0.19201 0.0
C178 C 0.61647 0.36349 0.1313 0.0
H179 H 0.6854 0.29841 0.22233 0.0
C180 C 0.64999 0.33601 0.11511 0.0
H181 H 0.65612 0.33313 0.07706 0.0
H182 H 0.59726 0.38161 0.10599 0.0
H183 H 0.24053 0.10615 0.84946 0.0
C184 C 0.20556 0.11293 0.85033 0.0
C185 C 0.17569 0.07981 0.86203 0.0
C186 C 0.19042 0.15526 0.8413 0.0
H187 H 0.10817 0.0649 0.87765 0.0
C188 C 0.13075 0.08969 0.86522 0.0
C189 C 0.11515 0.13204 0.85787 0.0
C190 C 0.14529 0.16472 0.84512 0.0
C191 C 0.22232 0.19089 0.83422 0.0
H192 H 0.13404 0.19785 0.84024 0.0
C193 C 0.22944 0.20837 0.7888 0.0
C194 C 0.25955 0.24294 0.78295 0.0
C195 C 0.24546 0.20787 0.8737 0.0
H196 H 0.2403 0.19469 0.90889 0.0
C197 C 0.27507 0.24224 0.86813 0.0
H198 H 0.21153 0.19523 0.75831 0.0
C199 C 0.28207 0.25977 0.82313 0.0
H200 H 0.30572 0.28603 0.8196 0.0
H201 H 0.29276 0.25526 0.89876 0.0
H202 H 0.38635 0.7126 0.3542 0.0
C203 C 0.37683 0.67865 0.35724 0.0
C204 C 0.40842 0.64741 0.36924 0.0
C205 C 0.33255 0.66645 0.35107 0.0
H206 H 0.41887 0.58011 0.38628 0.0
C207 C 0.39508 0.60384 0.3745 0.0
C208 C 0.35077 0.5913 0.36942 0.0
C209 C 0.31959 0.62294 0.35757 0.0
C210 C 0.29893 0.70016 0.34388 0.0
H211 H 0.28513 0.61405 0.35467 0.0
C212 C 0.28846 0.71445 0.29789 0.0
C213 C 0.25693 0.74748 0.29195 0.0
C214 C 0.27747 0.71847 0.38379 0.0
H215 H 0.28519 0.70767 0.4194 0.0
C216 C 0.2461 0.75101 0.37804 0.0
H217 H 0.30523 0.70042 0.26707 0.0
C218 C 0.23595 0.76557 0.33249 0.0
H219 H 0.21132 0.79075 0.3289 0.0
H220 H 0.22966 0.76505 0.40898 0.0
H221 H 0.94725 0.81131 0.77519 0.0
C222 C 0.92676 0.8344 0.79473 0.0
C223 C 0.93738 0.846 0.84198 0.0
C224 C 0.89086 0.85397 0.77195 0.0
H225 H 0.92208 0.88791 0.90183 0.0
C226 C 0.9121 0.87749 0.86622 0.0
C227 C 0.87719 0.89877 0.84353 0.0
C228 C 0.86646 0.88649 0.79625 0.0
C229 C 0.88371 0.84526 0.7205 0.0
H230 H 0.84034 0.90321 0.77782 0.0
C231 C 0.85167 0.81521 0.70402 0.0
C232 C 0.84809 0.80523 0.65474 0.0
C233 C 0.91119 0.86595 0.68759 0.0
H234 H 0.93603 0.88903 0.69974 0.0
C235 C 0.90717 0.85677 0.63887 0.0
H236 H 0.8307 0.7988 0.72939 0.0
C237 C 0.87607 0.8265 0.62251 0.0
H238 H 0.87368 0.81983 0.58447 0.0
H239 H 0.92849 0.8729 0.6137 0.0
C240 C 0.1869 0.01108 0.12233 0.0
C241 C 0.15705 0.9761 0.12599 0.0
H242 H 0.20187 0.07731 0.14359 0.0
C243 C 0.12281 0.97906 0.15966 0.0
H244 H 0.2134 0.0098 0.09643 0.0
C245 C 0.11694 0.01708 0.18712 0.0
C246 C 0.14491 0.05301 0.18113 0.0
H247 H 0.09944 0.95261 0.16339 0.0
H248 H 0.08885 0.01944 0.2109 0.0
C249 C 0.1805 0.04955 0.14933 0.0
C250 C 0.51843 0.69596 0.61135 0.0
C251 C 0.55684 0.67289 0.62242 0.0
H252 H 0.45075 0.70754 0.62961 0.0
C253 C 0.55943 0.65156 0.66622 0.0
H254 H 0.51542 0.71208 0.57744 0.0
C255 C 0.52295 0.6501 0.69656 0.0
C256 C 0.48307 0.66913 0.68304 0.0
H257 H 0.58861 0.63331 0.67532 0.0
H258 H 0.52454 0.6303 0.72814 0.0
C259 C 0.48151 0.69353 0.64119 0.0
C260 C 0.8638 0.02946 0.14735 0.0
C261 C 0.83471 0.03416 0.10884 0.0
H262 H 0.89123 0.98636 0.19851 0.0
C263 C 0.80502 1.00007 0.09807 0.0
H264 H 0.88677 0.05528 0.15689 0.0
C265 C 0.80776 0.96038 0.1219 0.0
C266 C 0.84011 0.95426 0.15694 0.0
H267 H 0.78231 1.0026 0.06852 0.0
H268 H 0.78716 0.93339 0.11003 0.0
C269 C 0.86641 0.98997 0.17117 0.0
C270 C 0.4851 0.35527 0.64517 0.0
C271 C 0.47913 0.32404 0.60852 0.0
H272 H 0.53036 0.38592 0.69386 0.0
C273 C 0.51338 0.2951 0.59715 0.0
H274 H 0.45922 0.37832 0.65388 0.0
C275 C 0.55427 0.29954 0.61978 0.0
C276 C 0.56147 0.33335 0.65363 0.0
H277 H 0.50968 0.27151 0.5681 0.0
H278 H 0.5812 0.27903 0.60777 0.0
C279 C 0.52584 0.35977 0.66773 0.0
C280 C 0.68515 0.48738 0.40969 0.0
C281 C 0.65175 0.51908 0.41322 0.0
H282 H 0.70394 0.42429 0.38131 0.0
C283 C 0.61361 0.51348 0.38546 0.0
H284 H 0.71491 0.49071 0.43066 0.0
C285 C 0.60771 0.47596 0.35725 0.0
C286 C 0.63975 0.44316 0.35603 0.0
H287 H 0.58742 0.53733 0.38693 0.0
H288 H 0.57704 0.47153 0.33806 0.0
C289 C 0.67906 0.4495 0.38141 0.0
C290 C 0.01801 0.1815 0.92349 0.0
C291 C 0.98616 0.14857 0.91682 0.0
H292 H 0.08417 0.2021 0.90995 0.0
C293 C 0.99449 0.11465 0.88366 0.0
H294 H 0.01249 0.20813 0.94876 0.0
C295 C 0.03518 0.11173 0.86062 0.0
C296 C 0.06875 0.14219 0.87094 0.0
H297 H 0.97027 0.08922 0.87716 0.0
H298 H 0.04133 0.08404 0.83695 0.0
C299 C 0.05904 0.17822 0.90094 0.0
C300 C 0.36008 0.47115 0.39239 0.0
C301 C 0.32924 0.46613 0.42921 0.0
H302 H 0.39001 0.51465 0.34307 0.0
C303 C 0.29934 0.49986 0.43919 0.0
H304 H 0.38374 0.44563 0.38447 0.0
C305 C 0.30344 0.53986 0.41608 0.0
C306 C 0.33749 0.54641 0.38278 0.0
H307 H 0.2759 0.49694 0.46816 0.0
H308 H 0.28272 0.56675 0.4276 0.0
C309 C 0.36393 0.51078 0.36908 0.0
C310 C 0.01496 0.80341 0.93497 0.0
C311 C 0.05438 0.82396 0.92158 0.0
H312 H 0.94616 0.79472 0.91986 0.0
C313 C 0.0564 0.84507 0.87753 0.0
H314 H 0.01228 0.78768 0.96916 0.0
C315 C 0.0189 0.8482 0.84895 0.0
C316 C 0.97856 0.83115 0.86447 0.0
H317 H 0.08627 0.86158 0.86671 0.0
H318 H 0.02056 0.86714 0.81673 0.0
C319 C 0.97713 0.80754 0.90692 0.0
C320 C 0.84557 0.01605 0.87181 0.0
C321 C 0.84112 0.0146 0.92163 0.0
H322 H 0.86055 0.97984 0.80742 0.0
C323 C 0.8404 0.97395 0.94382 0.0
H324 H 0.84674 0.04712 0.85408 0.0
C325 C 0.84765 0.93563 0.91733 0.0
C326 C 0.85669 0.93716 0.86815 0.0
H327 H 0.83693 0.97208 0.98225 0.0
H328 H 0.84927 0.90504 0.93595 0.0
C329 C 0.85343 0.97752 0.84518 0.0
C330 C 0.49708 0.29698 0.424 0.0
C331 C 0.4589 0.32039 0.41283 0.0
H332 H 0.56485 0.28517 0.40631 0.0
C333 C 0.45687 0.34223 0.36929 0.0
H334 H 0.49969 0.2805 0.45774 0.0
C335 C 0.49367 0.34383 0.33938 0.0
C336 C 0.53329 0.32439 0.35306 0.0
H337 H 0.42792 0.36078 0.36012 0.0
H338 H 0.4925 0.36397 0.30805 0.0
C339 C 0.5343 0.29952 0.3946 0.0
C340 C 0.22329 0.99554 0.94259 0.0
C341 C 0.19545 0.96013 0.93182 0.0
H342 H 0.2392 0.06213 0.92781 0.0
C343 C 0.16881 0.96125 0.89111 0.0
H344 H 0.24343 0.9955 0.97446 0.0
C345 C 0.1667 0.99896 0.86417 0.0
C346 C 0.19042 0.03648 0.87829 0.0
H347 H 0.14675 0.93437 0.8826 0.0
H348 H 0.14328 1.00021 0.83512 0.0
C349 C 0.22082 0.03363 0.91589 0.0
C350 C 0.50293 0.69808 0.4386 0.0
C351 C 0.53706 0.66914 0.42675 0.0
H352 H 0.43499 0.71425 0.42885 0.0
C353 C 0.53065 0.63799 0.3901 0.0
H354 H 0.50694 0.7216 0.46766 0.0
C355 C 0.48966 0.63361 0.36801 0.0
C356 C 0.45416 0.66002 0.3826 0.0
H357 H 0.55639 0.6149 0.38103 0.0
H358 H 0.48486 0.60754 0.34184 0.0
C359 C 0.46177 0.69374 0.41645 0.0
C360 C 0.33237 0.50506 0.62843 0.0
C361 C 0.36637 0.47416 0.62328 0.0
H362 H 0.31295 0.56728 0.65853 0.0
C363 C 0.40507 0.48006 0.65002 0.0
H364 H 0.30213 0.50143 0.60834 0.0
C365 C 0.41085 0.51723 0.67879 0.0
C366 C 0.37813 0.54933 0.68154 0.0
H367 H 0.43172 0.45679 0.64731 0.0
H368 H 0.44191 0.52203 0.69712 0.0
C369 C 0.33833 0.54258 0.65725 0.0
C370 C 0.0303 0.86069 0.15143 0.0
C371 C 0.03561 0.82936 0.1148 0.0
H372 H 0.98578 0.89171 0.2006 0.0
C373 C 1.00089 0.80061 0.10391 0.0
H374 H 0.05659 0.88346 0.1599 0.0
C375 C 0.96017 0.8054 0.127 0.0
C376 C 0.95367 0.83929 0.16089 0.0
H377 H 1.00415 0.77682 0.07502 0.0
H378 H 0.93285 0.78511 0.11534 0.0
C379 C 0.98978 0.86546 0.17451 0.0
C380 C 0.71657 0.49321 0.59675 0.0
C381 C 0.68693 0.52717 0.60687 0.0
H382 H 0.7329 0.42619 0.60827 0.0
C383 C 0.65606 0.52216 0.64367 0.0
H384 H 0.73999 0.49605 0.56775 0.0
C385 C 0.65204 0.48249 0.66693 0.0
C386 C 0.67833 0.44673 0.65324 0.0
H387 H 0.63253 0.54778 0.65168 0.0
H388 H 0.62596 0.47872 0.69297 0.0
C389 C 0.71232 0.45318 0.61983 0.0
C390 C 0.0125 0.18945 0.08822 0.0
C391 C 0.9697 0.18248 0.10534 0.0
H392 H 0.08138 0.18766 0.10374 0.0
C393 C 0.96303 0.17618 0.15428 0.0
H394 H 0.01832 0.19366 0.05039 0.0
C395 C 0.99922 0.17263 0.18491 0.0
C396 C 0.0423 0.17492 0.16664 0.0
H397 H 0.93031 0.16976 0.16791 0.0
H398 H 0.99357 0.16369 0.22165 0.0
C399 C 0.04853 0.18582 0.11865 0.0
C400 C 0.22174 0.7506 0.16193 0.0
C401 C 0.2194 0.79578 0.15447 0.0
H402 H 0.23609 0.6998 0.21127 0.0
C403 C 0.23121 0.82463 0.19198 0.0
H404 H 0.213 0.72751 0.13373 0.0
C405 C 0.24406 0.8088 0.23618 0.0
C406 C 0.24587 0.76373 0.24389 0.0
H407 H 0.22976 0.85962 0.18757 0.0
H408 H 0.25245 0.83189 0.26452 0.0
C409 C 0.2352 0.73472 0.20615 0.0
C410 C 0.79976 0.7122 0.58072 0.0
C411 C 0.75439 0.71687 0.58921 0.0
H412 H 0.86471 0.73631 0.59501 0.0
C413 C 0.74039 0.74841 0.62319 0.0
H414 H 0.81189 0.68823 0.55505 0.0
C415 C 0.77096 0.77577 0.64655 0.0
C416 C 0.81602 0.77249 0.63592 0.0
H417 H 0.70572 0.75273 0.63084 0.0
H418 H 0.75921 0.80077 0.67125 0.0
C419 C 0.83011 0.73982 0.60355 0.0
C420 C 0.77255 0.27342 0.07417 0.0
C421 C 0.7717 0.2281 0.0811 0.0
H422 H 0.74279 0.33528 0.08996 0.0
C423 C 0.74118 0.21112 0.11387 0.0
H424 H 0.79559 0.28778 0.04942 0.0
C425 C 0.71121 0.23871 0.13772 0.0
C426 C 0.71083 0.28362 0.12871 0.0
H427 H 0.73981 0.17643 0.12031 0.0
H428 H 0.68709 0.2247 0.16151 0.0
C429 C 0.7423 0.30073 0.09739 0.0
C430 C 0.28301 0.32358 0.68512 0.0
C431 C 0.29392 0.29581 0.64636 0.0
H432 H 0.26338 0.32858 0.75851 0.0
C433 C 0.29083 0.2504 0.65214 0.0
H434 H 0.28502 0.35868 0.68194 0.0
C435 C 0.27806 0.2332 0.696 0.0
C436 C 0.26869 0.26101 0.73513 0.0
H437 H 0.29884 0.22809 0.62297 0.0
H438 H 0.27702 0.19811 0.69977 0.0
C439 C 0.27077 0.30637 0.72905 0.0
C440 C 0.73408 0.67114 0.35153 0.0
C441 C 0.72408 0.69874 0.39073 0.0
H442 H 0.753 0.6665 0.27785 0.0
C443 C 0.72865 0.74412 0.38559 0.0
H444 H 0.73091 0.63607 0.35418 0.0
C445 C 0.74189 0.7615 0.34192 0.0
C446 C 0.75012 0.7339 0.3023 0.0
H447 H 0.72141 0.76629 0.41514 0.0
H448 H 0.74403 0.79659 0.3386 0.0
C449 C 0.74663 0.68854 0.30776 0.0
C450 C 0.75809 0.20368 0.87131 0.0
C451 C 0.80327 0.20288 0.88214 0.0
H452 H 0.70871 0.21893 0.81934 0.0
C453 C 0.83346 0.21788 0.848 0.0
H454 H 0.734 0.19251 0.89689 0.0
C455 C 0.81908 0.23254 0.80392 0.0
C456 C 0.7741 0.23306 0.79283 0.0
H457 H 0.8685 0.2177 0.85498 0.0
H458 H 0.84329 0.24352 0.77833 0.0
C459 C 0.7436 0.21902 0.82714 0.0
C460 C 0.27182 0.24518 0.41639 0.0
C461 C 0.25955 0.27864 0.44888 0.0
H462 H 0.25001 0.19264 0.37015 0.0
C463 C 0.2145 0.28641 0.45673 0.0
H464 H 0.30619 0.23844 0.4093 0.0
C465 C 0.18265 0.26013 0.43465 0.0
C466 C 0.19488 0.22565 0.40374 0.0
H467 H 0.20367 0.312 0.48118 0.0
H468 H 0.14828 0.26628 0.44248 0.0
C469 C 0.23972 0.21907 0.3938 0.0
C470 C 0.29901 0.77794 0.96453 0.0
C471 C 0.25367 0.77308 0.9558 0.0
H472 H 0.36404 0.75441 0.95029 0.0
C473 C 0.23984 0.7417 0.92155 0.0
H474 H 0.31106 0.80184 0.99037 0.0
C475 C 0.27061 0.71476 0.89801 0.0
C476 C 0.31561 0.7184 0.90877 0.0
H477 H 0.20522 0.73727 0.91372 0.0
H478 H 0.2591 0.68987 0.873 0.0
C479 C 0.32949 0.75077 0.94156 0.0
loop_
_geom_bond_atom_site_label_1
_geom_bond_atom_site_label_2
_geom_bond_distance
_geom_bond_site_symmetry_2
_ccdc_geom_bond_type
Fe0 O2 1.918 . S
Fe0 O5 1.997 . S
Fe0 O6 2.002 . S
Fe0 O11 1.976 1_554 S
Fe0 O14 1.996 1_554 S
Fe1 O2 1.918 . S
Fe1 O9 1.997 . S
Fe1 O12 1.996 1_554 S
Fe1 O16 1.976 1_554 S
Fe1 O19 2.002 . S
O2 Fe0 1.918 . S
O2 Fe1 1.918 . S
O2 Fe3 1.918 . S
Fe3 O2 1.918 . S
Fe3 O4 2.002 . S
Fe3 O13 1.976 1_554 S
Fe3 O17 1.996 1_554 S
Fe3 O20 1.997 . S
O4 Fe3 2.002 . S
O4 C21 1.295 . S
O5 Fe0 1.997 . S
O5 C21 1.235 . S
O6 Fe0 2.002 . S
O6 C7 1.295 . S
C7 O6 1.295 . S
C7 O9 1.235 . S
C8 O13 1.287 . S
C8 O14 1.255 . S
O9 Fe1 1.997 . S
O9 C7 1.235 . S
C10 O16 1.287 . S
C10 O17 1.255 . S
O11 Fe0 1.976 1_556 S
O11 C18 1.287 . S
O12 Fe1 1.996 1_556 S
O12 C18 1.255 . S
O13 Fe3 1.976 1_556 S
O13 C8 1.287 . S
O14 Fe0 1.996 1_556 S
O14 C8 1.255 . S
C15 O19 1.295 . S
C15 O20 1.235 . S
O16 Fe1 1.976 1_556 S
O16 C10 1.287 . S
O17 Fe3 1.996 1_556 S
O17 C10 1.255 . S
C18 O11 1.287 . S
C18 O12 1.255 . S
O19 Fe1 2.002 . S
O19 C15 1.295 . S
O20 Fe3 1.997 . S
O20 C15 1.235 . S
C21 O4 1.295 . S
C21 O5 1.235 . S
Fe22 O24 1.918 . S
Fe22 O27 1.997 . S
Fe22 O28 2.002 . S
Fe22 O33 1.976 . S
Fe22 O36 1.996 . S
Fe23 O24 1.918 . S
Fe23 O31 1.997 . S
Fe23 O34 1.996 . S
Fe23 O38 1.976 . S
Fe23 O41 2.002 . S
O24 Fe22 1.918 . S
O24 Fe23 1.918 . S
O24 Fe25 1.918 . S
Fe25 O24 1.918 . S
Fe25 O26 2.002 . S
Fe25 O35 1.976 . S
Fe25 O39 1.996 . S
Fe25 O42 1.997 . S
O26 Fe25 2.002 . S
O26 C43 1.295 . S
O27 Fe22 1.997 . S
O27 C43 1.235 . S
O28 Fe22 2.002 . S
O28 C29 1.295 . S
C29 O28 1.295 . S
C29 O31 1.235 . S
C30 O35 1.287 . S
C30 O36 1.255 . S
O31 Fe23 1.997 . S
O31 C29 1.235 . S
C32 O38 1.287 . S
C32 O39 1.255 . S
O33 Fe22 1.976 . S
O33 C40 1.287 . S
O34 Fe23 1.996 . S
O34 C40 1.255 . S
O35 Fe25 1.976 . S
O35 C30 1.287 . S
O36 Fe22 1.996 . S
O36 C30 1.255 . S
C37 O41 1.295 . S
C37 O42 1.235 . S
O38 Fe23 1.976 . S
O38 C32 1.287 . S
O39 Fe25 1.996 . S
O39 C32 1.255 . S
C40 O33 1.287 . S
C40 O34 1.255 . S
O41 Fe23 2.002 . S
O41 C37 1.295 . S
O42 Fe25 1.997 . S
O42 C37 1.235 . S
C43 O26 1.295 . S
C43 O27 1.235 . S
Fe44 O46 1.918 . S
Fe44 O49 1.997 1_554 S
Fe44 O50 2.002 1_554 S
Fe44 O55 1.976 . S
Fe44 O58 1.996 . S
Fe45 O46 1.918 . S
Fe45 O53 1.997 1_554 S
Fe45 O56 1.996 . S
Fe45 O60 1.976 . S
Fe45 O63 2.002 1_554 S
O46 Fe44 1.918 . S
O46 Fe45 1.918 . S
O46 Fe47 1.918 1_554 S
Fe47 O46 1.918 1_556 S
Fe47 O48 2.002 . S
Fe47 O57 1.976 1_556 S
Fe47 O61 1.996 1_556 S
Fe47 O64 1.997 . S
O48 Fe47 2.002 . S
O48 C65 1.295 . S
O49 Fe44 1.997 1_556 S
O49 C65 1.235 . S
O50 Fe44 2.002 1_556 S
O50 C51 1.295 . S
C51 O50 1.295 . S
C51 O53 1.235 . S
C52 O57 1.287 . S
C52 O58 1.255 . S
O53 Fe45 1.997 1_556 S
O53 C51 1.235 . S
C54 O60 1.287 . S
C54 O61 1.255 . S
O55 Fe44 1.976 . S
O55 C62 1.287 . S
O56 Fe45 1.996 . S
O56 C62 1.255 . S
O57 Fe47 1.976 1_554 S
O57 C52 1.287 . S
O58 Fe44 1.996 . S
O58 C52 1.255 . S
C59 O63 1.295 . S
C59 O64 1.235 . S
O60 Fe45 1.976 . S
O60 C54 1.287 . S
O61 Fe47 1.996 1_554 S
O61 C54 1.255 . S
C62 O55 1.287 . S
C62 O56 1.255 . S
O63 Fe45 2.002 1_556 S
O63 C59 1.295 . S
O64 Fe47 1.997 . S
O64 C59 1.235 . S
C65 O48 1.295 . S
C65 O49 1.235 . S
Fe66 O68 1.918 . S
Fe66 O71 1.997 . S
Fe66 O72 2.002 . S
Fe66 O77 1.976 . S
Fe66 O80 1.996 . S
Fe67 O68 1.918 . S
Fe67 O75 1.997 . S
Fe67 O78 1.996 . S
Fe67 O82 1.976 . S
Fe67 O85 2.002 . S
O68 Fe66 1.918 . S
O68 Fe67 1.918 . S
O68 Fe69 1.918 . S
Fe69 O68 1.918 . S
Fe69 O70 2.002 . S
Fe69 O79 1.976 . S
Fe69 O83 1.996 . S
Fe69 O86 1.997 . S
O70 Fe69 2.002 . S
O70 C87 1.295 . S
O71 Fe66 1.997 . S
O71 C87 1.235 . S
O72 Fe66 2.002 . S
O72 C73 1.295 . S
C73 O72 1.295 . S
C73 O75 1.235 . S
C74 O79 1.287 . S
C74 O80 1.255 . S
O75 Fe67 1.997 . S
O75 C73 1.235 . S
C76 O82 1.287 . S
C76 O83 1.255 . S
O77 Fe66 1.976 . S
O77 C84 1.287 . S
O78 Fe67 1.996 . S
O78 C84 1.255 . S
O79 Fe69 1.976 . S
O79 C74 1.287 . S
O80 Fe66 1.996 . S
O80 C74 1.255 . S
C81 O85 1.295 . S
C81 O86 1.235 . S
O82 Fe67 1.976 . S
O82 C76 1.287 . S
O83 Fe69 1.996 . S
O83 C76 1.255 . S
C84 O77 1.287 . S
C84 O78 1.255 . S
O85 Fe67 2.002 . S
O85 C81 1.295 . S
O86 Fe69 1.997 . S
O86 C81 1.235 . S
C87 O70 1.295 . S
C87 O71 1.235 . S
H88 C89 0.949 . S
C89 H88 0.949 . S
C89 C90 1.395 . S
C89 C91 1.391 . S
C90 C89 1.395 . S
C90 C93 1.390 . S
C91 C89 1.391 . S
C91 C95 1.387 . S
C91 C96 1.491 . S
H92 C93 0.950 . S
C93 C90 1.390 . S
C93 H92 0.950 . S
C93 C94 1.378 . S
C94 C93 1.378 . S
C94 C95 1.409 . S
C95 C91 1.387 . S
C95 C94 1.409 . S
C95 H97 0.951 . S
C96 C91 1.491 . S
C96 C98 1.382 . S
C96 C100 1.404 . S
H97 C95 0.951 . S
C98 C96 1.382 . S
C98 C99 1.390 . S
C98 H103 0.949 . S
C99 C98 1.390 . S
C99 C104 1.399 . S
C100 C96 1.404 . S
C100 H101 0.950 . S
C100 C102 1.375 . S
H101 C100 0.950 . S
C102 C100 1.375 . S
C102 C104 1.382 . S
C102 H106 0.950 . S
H103 C98 0.949 . S
C104 C99 1.399 . S
C104 C102 1.382 . S
C104 H105 0.952 . S
H105 C104 0.952 . S
H106 C102 0.950 . S
H107 C108 0.949 . S
C108 H107 0.949 . S
C108 C109 1.395 . S
C108 C110 1.391 . S
C109 C108 1.395 . S
C109 C112 1.390 . S
C110 C108 1.391 . S
C110 C114 1.387 . S
C110 C115 1.491 . S
H111 C112 0.950 . S
C112 C109 1.390 . S
C112 H111 0.950 . S
C112 C113 1.378 . S
C113 C112 1.378 . S
C113 C114 1.409 . S
C114 C110 1.387 . S
C114 C113 1.409 . S
C114 H116 0.951 . S
C115 C110 1.491 . S
C115 C117 1.382 . S
C115 C119 1.404 . S
H116 C114 0.951 . S
C117 C115 1.382 . S
C117 C118 1.390 . S
C117 H122 0.949 . S
C118 C117 1.390 . S
C118 C123 1.399 . S
C119 C115 1.404 . S
C119 H120 0.950 . S
C119 C121 1.375 . S
H120 C119 0.950 . S
C121 C119 1.375 . S
C121 C123 1.382 . S
C121 H125 0.950 . S
H122 C117 0.949 . S
C123 C118 1.399 . S
C123 C121 1.382 . S
C123 H124 0.952 . S
H124 C123 0.952 . S
H125 C121 0.950 . S
H126 C127 0.949 . S
C127 H126 0.949 . S
C127 C128 1.395 . S
C127 C129 1.391 . S
C128 C127 1.395 . S
C128 C131 1.390 . S
C129 C127 1.391 . S
C129 C133 1.387 . S
C129 C134 1.491 . S
H130 C131 0.950 . S
C131 C128 1.390 . S
C131 H130 0.950 . S
C131 C132 1.378 . S
C132 C131 1.378 . S
C132 C133 1.409 . S
C133 C129 1.387 . S
C133 C132 1.409 . S
C133 H135 0.951 . S
C134 C129 1.491 . S
C134 C136 1.382 . S
C134 C138 1.404 . S
H135 C133 0.951 . S
C136 C134 1.382 . S
C136 C137 1.390 . S
C136 H141 0.949 . S
C137 C136 1.390 . S
C137 C142 1.399 . S
C138 C134 1.404 . S
C138 H139 0.950 . S
C138 C140 1.375 . S
H139 C138 0.950 . S
C140 C138 1.375 . S
C140 C142 1.382 . S
C140 H144 0.950 . S
H141 C136 0.949 . S
C142 C137 1.399 . S
C142 C140 1.382 . S
C142 H143 0.952 . S
H143 C142 0.952 . S
H144 C140 0.950 . S
H145 C146 0.949 . S
C146 H145 0.949 . S
C146 C147 1.395 . S
C146 C148 1.391 . S
C147 C146 1.395 . S
C147 C150 1.390 . S
C148 C146 1.391 . S
C148 C152 1.387 . S
C148 C153 1.491 . S
H149 C150 0.950 . S
C150 C147 1.390 . S
C150 H149 0.950 . S
C150 C151 1.378 . S
C151 C150 1.378 . S
C151 C152 1.409 . S
C152 C148 1.387 . S
C152 C151 1.409 . S
C152 H154 0.951 . S
C153 C148 1.491 . S
C153 C155 1.382 . S
C153 C157 1.404 . S
H154 C152 0.951 . S
C155 C153 1.382 . S
C155 C156 1.390 . S
C155 H160 0.949 . S
C156 C155 1.390 . S
C156 C161 1.399 . S
C157 C153 1.404 . S
C157 H158 0.950 . S
C157 C159 1.375 . S
H158 C157 0.950 . S
C159 C157 1.375 . S
C159 C161 1.382 . S
C159 H163 0.950 . S
H160 C155 0.949 . S
C161 C156 1.399 . S
C161 C159 1.382 . S
C161 H162 0.952 . S
H162 C161 0.952 . S
H163 C159 0.950 . S
H164 C165 0.949 . S
C165 H164 0.949 . S
C165 C166 1.395 . S
C165 C167 1.391 . S
C166 C165 1.395 . S
C166 C169 1.390 . S
C167 C165 1.391 . S
C167 C171 1.387 . S
C167 C172 1.491 . S
H168 C169 0.950 . S
C169 C166 1.390 . S
C169 H168 0.950 . S
C169 C170 1.378 . S
C170 C169 1.378 . S
C170 C171 1.409 . S
C171 C167 1.387 . S
C171 C170 1.409 . S
C171 H173 0.951 . S
C172 C167 1.491 . S
C172 C174 1.382 . S
C172 C176 1.404 . S
H173 C171 0.951 . S
C174 C172 1.382 . S
C174 C175 1.390 . S
C174 H179 0.949 . S
C175 C174 1.390 . S
C175 C180 1.399 . S
C176 C172 1.404 . S
C176 H177 0.950 . S
C176 C178 1.375 . S
H177 C176 0.950 . S
C178 C176 1.375 . S
C178 C180 1.382 . S
C178 H182 0.950 . S
H179 C174 0.949 . S
C180 C175 1.399 . S
C180 C178 1.382 . S
C180 H181 0.952 . S
H181 C180 0.952 . S
H182 C178 0.950 . S
H183 C184 0.949 . S
C184 H183 0.949 . S
C184 C185 1.395 . S
C184 C186 1.391 . S
C185 C184 1.395 . S
C185 C188 1.390 . S
C186 C184 1.391 . S
C186 C190 1.387 . S
C186 C191 1.491 . S
H187 C188 0.950 . S
C188 C185 1.390 . S
C188 H187 0.950 . S
C188 C189 1.378 . S
C189 C188 1.378 . S
C189 C190 1.409 . S
C190 C186 1.387 . S
C190 C189 1.409 . S
C190 H192 0.951 . S
C191 C186 1.491 . S
C191 C193 1.382 . S
C191 C195 1.404 . S
H192 C190 0.951 . S
C193 C191 1.382 . S
C193 C194 1.390 . S
C193 H198 0.949 . S
C194 C193 1.390 . S
C194 C199 1.399 . S
C195 C191 1.404 . S
C195 H196 0.950 . S
C195 C197 1.375 . S
H196 C195 0.950 . S
C197 C195 1.375 . S
C197 C199 1.382 . S
C197 H201 0.950 . S
H198 C193 0.949 . S
C199 C194 1.399 . S
C199 C197 1.382 . S
C199 H200 0.952 . S
H200 C199 0.952 . S
H201 C197 0.950 . S
H202 C203 0.949 . S
C203 H202 0.949 . S
C203 C204 1.395 . S
C203 C205 1.391 . S
C204 C203 1.395 . S
C204 C207 1.390 . S
C205 C203 1.391 . S
C205 C209 1.387 . S
C205 C210 1.491 . S
H206 C207 0.950 . S
C207 C204 1.390 . S
C207 H206 0.950 . S
C207 C208 1.378 . S
C208 C207 1.378 . S
C208 C209 1.409 . S
C209 C205 1.387 . S
C209 C208 1.409 . S
C209 H211 0.951 . S
C210 C205 1.491 . S
C210 C212 1.382 . S
C210 C214 1.404 . S
H211 C209 0.951 . S
C212 C210 1.382 . S
C212 C213 1.390 . S
C212 H217 0.949 . S
C213 C212 1.390 . S
C213 C218 1.399 . S
C214 C210 1.404 . S
C214 H215 0.950 . S
C214 C216 1.375 . S
H215 C214 0.950 . S
C216 C214 1.375 . S
C216 C218 1.382 . S
C216 H220 0.950 . S
H217 C212 0.949 . S
C218 C213 1.399 . S
C218 C216 1.382 . S
C218 H219 0.952 . S
H219 C218 0.952 . S
H220 C216 0.950 . S
H221 C222 0.949 . S
C222 H221 0.949 . S
C222 C223 1.395 . S
C222 C224 1.391 . S
C223 C222 1.395 . S
C223 C226 1.390 . S
C224 C222 1.391 . S
C224 C228 1.387 . S
C224 C229 1.491 . S
H225 C226 0.950 . S
C226 C223 1.390 . S
C226 H225 0.950 . S
C226 C227 1.378 . S
C227 C226 1.378 . S
C227 C228 1.409 . S
C228 C224 1.387 . S
C228 C227 1.409 . S
C228 H230 0.951 . S
C229 C224 1.491 . S
C229 C231 1.382 . S
C229 C233 1.404 . S
H230 C228 0.951 . S
C231 C229 1.382 . S
C231 C232 1.390 . S
C231 H236 0.949 . S
C232 C231 1.390 . S
C232 C237 1.399 . S
C233 C229 1.404 . S
C233 H234 0.950 . S
C233 C235 1.375 . S
H234 C233 0.950 . S
C235 C233 1.375 . S
C235 C237 1.382 . S
C235 H239 0.950 . S
H236 C231 0.949 . S
C237 C232 1.399 . S
C237 C235 1.382 . S
C237 H238 0.952 . S
H238 C237 0.952 . S
H239 C235 0.950 . S
C240 C241 1.388 . S
C240 H244 0.950 . S
C240 C249 1.390 1_565 S
C241 C240 1.388 . S
C241 C243 1.387 1_565 S
H242 C249 0.950 . S
C243 C241 1.387 1_545 S
C243 C245 1.390 . S
C243 H247 0.950 1_545 S
H244 C240 0.950 . S
C245 C243 1.390 . S
C245 C246 1.387 . S
C245 H248 0.950 . S
C246 C245 1.387 . S
C246 C249 1.387 . S
H247 C243 0.950 1_565 S
H248 C245 0.950 . S
C249 C240 1.390 1_545 S
C249 H242 0.950 . S
C249 C246 1.387 . S
C250 C251 1.387 . S
C250 H254 0.950 . S
C250 C259 1.390 . S
C251 C250 1.387 . S
C251 C253 1.387 . S
H252 C259 0.950 . S
C253 C251 1.387 . S
C253 C255 1.390 . S
C253 H257 0.950 . S
H254 C250 0.950 . S
C255 C253 1.390 . S
C255 C256 1.387 . S
C255 H258 0.950 . S
C256 C255 1.387 . S
C256 C259 1.387 . S
H257 C253 0.950 . S
H258 C255 0.950 . S
C259 C250 1.390 . S
C259 H252 0.950 . S
C259 C256 1.387 . S
C260 C261 1.391 . S
C260 H264 0.950 1_565 S
C260 C269 1.390 . S
C261 C260 1.391 . S
C261 C263 1.398 . S
H262 C269 0.950 . S
C263 C261 1.398 . S
C263 C265 1.390 . S
C263 H267 0.950 . S
H264 C260 0.950 1_545 S
C265 C263 1.390 . S
C265 C266 1.387 . S
C265 H268 0.950 . S
C266 C265 1.387 . S
C266 C269 1.387 . S
H267 C263 0.950 . S
H268 C265 0.950 . S
C269 C260 1.390 . S
C269 H262 0.950 . S
C269 C266 1.387 . S
C270 C271 1.387 . S
C270 H274 0.950 . S
C270 C279 1.390 . S
C271 C270 1.387 . S
C271 C273 1.387 . S
H272 C279 0.950 . S
C273 C271 1.387 . S
C273 C275 1.390 . S
C273 H277 0.950 . S
H274 C270 0.950 . S
C275 C273 1.390 . S
C275 C276 1.387 . S
C275 H278 0.950 . S
C276 C275 1.387 . S
C276 C279 1.387 . S
H277 C273 0.950 . S
H278 C275 0.950 . S
C279 C270 1.390 . S
C279 H272 0.950 . S
C279 C276 1.387 . S
C280 C281 1.387 . S
C280 H284 0.950 . S
C280 C289 1.390 . S
C281 C280 1.387 . S
C281 C283 1.387 . S
H282 C289 0.950 . S
C283 C281 1.387 . S
C283 C285 1.390 . S
C283 H287 0.950 . S
H284 C280 0.950 . S
C285 C283 1.390 . S
C285 C286 1.387 . S
C285 H288 0.950 . S
C286 C285 1.387 . S
C286 C289 1.387 . S
H287 C283 0.950 . S
H288 C285 0.950 . S
C289 C280 1.390 . S
C289 H282 0.950 . S
C289 C286 1.387 . S
C290 C291 1.387 . S
C290 H294 0.950 . S
C290 C299 1.390 . S
C291 C290 1.387 . S
C291 C293 1.387 . S
H292 C299 0.950 . S
C293 C291 1.387 . S
C293 C295 1.390 . S
C293 H297 0.950 . S
H294 C290 0.950 . S
C295 C293 1.390 . S
C295 C296 1.387 . S
C295 H298 0.950 . S
C296 C295 1.387 . S
C296 C299 1.387 . S
H297 C293 0.950 . S
H298 C295 0.950 . S
C299 C290 1.390 . S
C299 H292 0.950 . S
C299 C296 1.387 . S
C300 C301 1.387 . S
C300 H304 0.950 . S
C300 C309 1.390 . S
C301 C300 1.387 . S
C301 C303 1.387 . S
H302 C309 0.950 . S
C303 C301 1.387 . S
C303 C305 1.390 . S
C303 H307 0.950 . S
H304 C300 0.950 . S
C305 C303 1.390 . S
C305 C306 1.387 . S
C305 H308 0.950 . S
C306 C305 1.387 . S
C306 C309 1.387 . S
H307 C303 0.950 . S
H308 C305 0.950 . S
C309 C300 1.390 . S
C309 H302 0.950 . S
C309 C306 1.387 . S
C310 C311 1.387 1_655 S
C310 H314 0.950 1_655 S
C310 C319 1.390 . S
C311 C310 1.387 1_455 S
C311 C313 1.382 1_455 S
H312 C319 0.950 . S
C313 C311 1.382 1_655 S
C313 C315 1.402 . S
C313 H317 0.944 1_655 S
H314 C310 0.950 1_455 S
C315 C313 1.402 . S
C315 C316 1.387 . S
C315 H318 0.950 . S
C316 C315 1.387 . S
C316 C319 1.387 . S
H317 C313 0.944 1_455 S
H318 C315 0.950 . S
C319 C310 1.390 . S
C319 H312 0.950 . S
C319 C316 1.387 . S
C320 C321 1.387 1_565 S
C320 H324 0.950 . S
C320 C329 1.390 . S
C321 C320 1.387 1_545 S
C321 C323 1.387 1_545 S
H322 C329 0.950 . S
C323 C321 1.387 1_565 S
C323 C325 1.390 . S
C323 H327 0.950 . S
H324 C320 0.950 . S
C325 C323 1.390 . S
C325 C326 1.387 . S
C325 H328 0.950 . S
C326 C325 1.387 . S
C326 C329 1.387 . S
H327 C323 0.950 . S
H328 C325 0.950 . S
C329 C320 1.390 . S
C329 H322 0.950 . S
C329 C326 1.387 . S
C330 C331 1.387 . S
C330 H334 0.950 . S
C330 C339 1.390 . S
C331 C330 1.387 . S
C331 C333 1.387 . S
H332 C339 0.950 . S
C333 C331 1.387 . S
C333 C335 1.390 . S
C333 H337 0.950 . S
H334 C330 0.950 . S
C335 C333 1.390 . S
C335 C336 1.387 . S
C335 H338 0.950 . S
C336 C335 1.387 . S
C336 C339 1.387 . S
H337 C333 0.950 . S
H338 C335 0.950 . S
C339 C330 1.390 . S
C339 H332 0.950 . S
C339 C336 1.387 . S
C340 C341 1.387 1_545 S
C340 H344 0.950 . S
C340 C349 1.390 . S
C341 C340 1.387 1_565 S
C341 C343 1.387 . S
H342 C349 0.950 . S
C343 C341 1.387 . S
C343 C345 1.390 1_565 S
C343 H347 0.950 . S
H344 C340 0.950 . S
C345 C343 1.390 1_545 S
C345 C346 1.387 . S
C345 H348 0.950 . S
C346 C345 1.387 . S
C346 C349 1.387 . S
H347 C343 0.950 . S
H348 C345 0.950 . S
C349 C340 1.390 . S
C349 H342 0.950 . S
C349 C346 1.387 . S
C350 C351 1.387 . S
C350 H354 0.950 . S
C350 C359 1.390 . S
C351 C350 1.387 . S
C351 C353 1.387 . S
H352 C359 0.950 . S
C353 C351 1.387 . S
C353 C355 1.390 . S
C353 H357 0.950 . S
H354 C350 0.950 . S
C355 C353 1.390 . S
C355 C356 1.387 . S
C355 H358 0.950 . S
C356 C355 1.387 . S
C356 C359 1.387 . S
H357 C353 0.950 . S
H358 C355 0.950 . S
C359 C350 1.390 . S
C359 H352 0.950 . S
C359 C356 1.387 . S
C360 C361 1.387 . S
C360 H364 0.950 . S
C360 C369 1.390 . S
C361 C360 1.387 . S
C361 C363 1.387 . S
H362 C369 0.950 . S
C363 C361 1.387 . S
C363 C365 1.390 . S
C363 H367 0.950 . S
H364 C360 0.950 . S
C365 C363 1.390 . S
C365 C366 1.387 . S
C365 H368 0.950 . S
C366 C365 1.387 . S
C366 C369 1.387 . S
H367 C363 0.950 . S
H368 C365 0.950 . S
C369 C360 1.390 . S
C369 H362 0.950 . S
C369 C366 1.387 . S
C370 C371 1.387 . S
C370 H374 0.950 . S
C370 C379 1.390 . S
C371 C370 1.387 . S
C371 C373 1.387 . S
H372 C379 0.950 . S
C373 C371 1.387 . S
C373 C375 1.390 . S
C373 H377 0.950 . S
H374 C370 0.950 . S
C375 C373 1.390 . S
C375 C376 1.387 . S
C375 H378 0.950 . S
C376 C375 1.387 . S
C376 C379 1.387 . S
H377 C373 0.950 . S
H378 C375 0.950 . S
C379 C370 1.390 . S
C379 H372 0.950 . S
C379 C376 1.387 . S
C380 C381 1.387 . S
C380 H384 0.950 . S
C380 C389 1.390 . S
C381 C380 1.387 . S
C381 C383 1.387 . S
H382 C389 0.950 . S
C383 C381 1.387 . S
C383 C385 1.390 . S
C383 H387 0.950 . S
H384 C380 0.950 . S
C385 C383 1.390 . S
C385 C386 1.387 . S
C385 H388 0.950 . S
C386 C385 1.387 . S
C386 C389 1.387 . S
H387 C383 0.950 . S
H388 C385 0.950 . S
C389 C380 1.390 . S
C389 H382 0.950 . S
C389 C386 1.387 . S
C390 C391 1.387 1_455 S
C390 H394 0.950 1_455 S
C390 C399 1.390 . S
C391 C390 1.387 1_655 S
C391 C393 1.387 . S
H392 C399 0.950 . S
C393 C391 1.387 . S
C393 C395 1.390 1_655 S
C393 H397 0.950 . S
H394 C390 0.950 1_655 S
C395 C393 1.390 1_455 S
C395 C396 1.387 . S
C395 H398 0.950 . S
C396 C395 1.387 . S
C396 C399 1.387 . S
H397 C393 0.950 . S
H398 C395 0.950 . S
C399 C390 1.390 . S
C399 H392 0.950 . S
C399 C396 1.387 . S
C400 C401 1.387 . S
C400 H404 0.950 . S
C400 C409 1.390 . S
C401 C400 1.387 . S
C401 C403 1.387 . S
H402 C409 0.950 . S
C403 C401 1.387 . S
C403 C405 1.390 . S
C403 H407 0.950 . S
H404 C400 0.950 . S
C405 C403 1.390 . S
C405 C406 1.387 . S
C405 H408 0.950 . S
C406 C405 1.387 . S
C406 C409 1.387 . S
H407 C403 0.950 . S
H408 C405 0.950 . S
C409 C400 1.390 . S
C409 H402 0.950 . S
C409 C406 1.387 . S
C410 C411 1.387 . S
C410 H414 0.950 . S
C410 C419 1.390 . S
C411 C410 1.387 . S
C411 C413 1.387 . S
H412 C419 0.950 . S
C413 C411 1.387 . S
C413 C415 1.390 . S
C413 H417 0.950 . S
H414 C410 0.950 . S
C415 C413 1.390 . S
C415 C416 1.387 . S
C415 H418 0.950 . S
C416 C415 1.387 . S
C416 C419 1.387 . S
H417 C413 0.950 . S
H418 C415 0.950 . S
C419 C410 1.390 . S
C419 H412 0.950 . S
C419 C416 1.387 . S
C420 C421 1.387 . S
C420 H424 0.950 . S
C420 C429 1.390 . S
C421 C420 1.387 . S
C421 C423 1.387 . S
H422 C429 0.950 . S
C423 C421 1.387 . S
C423 C425 1.390 . S
C423 H427 0.950 . S
H424 C420 0.950 . S
C425 C423 1.390 . S
C425 C426 1.387 . S
C425 H428 0.950 . S
C426 C425 1.387 . S
C426 C429 1.387 . S
H427 C423 0.950 . S
H428 C425 0.950 . S
C429 C420 1.390 . S
C429 H422 0.950 . S
C429 C426 1.387 . S
C430 C431 1.387 . S
C430 H434 0.950 . S
C430 C439 1.390 . S
C431 C430 1.387 . S
C431 C433 1.387 . S
H432 C439 0.950 . S
C433 C431 1.387 . S
C433 C435 1.390 . S
C433 H437 0.950 . S
H434 C430 0.950 . S
C435 C433 1.390 . S
C435 C436 1.387 . S
C435 H438 0.950 . S
C436 C435 1.387 . S
C436 C439 1.387 . S
H437 C433 0.950 . S
H438 C435 0.950 . S
C439 C430 1.390 . S
C439 H432 0.950 . S
C439 C436 1.387 . S
C440 C441 1.387 . S
C440 H444 0.950 . S
C440 C449 1.390 . S
C441 C440 1.387 . S
C441 C443 1.387 . S
H442 C449 0.950 . S
C443 C441 1.387 . S
C443 C445 1.390 . S
C443 H447 0.950 . S
H444 C440 0.950 . S
C445 C443 1.390 . S
C445 C446 1.387 . S
C445 H448 0.950 . S
C446 C445 1.387 . S
C446 C449 1.387 . S
H447 C443 0.950 . S
H448 C445 0.950 . S
C449 C440 1.390 . S
C449 H442 0.950 . S
C449 C446 1.387 . S
C450 C451 1.387 . S
C450 H454 0.950 . S
C450 C459 1.390 . S
C451 C450 1.387 . S
C451 C453 1.387 . S
H452 C459 0.950 . S
C453 C451 1.387 . S
C453 C455 1.390 . S
C453 H457 0.950 . S
H454 C450 0.950 . S
C455 C453 1.390 . S
C455 C456 1.387 . S
C455 H458 0.950 . S
C456 C455 1.387 . S
C456 C459 1.387 . S
H457 C453 0.950 . S
H458 C455 0.950 . S
C459 C450 1.390 . S
C459 H452 0.950 . S
C459 C456 1.387 . S
C460 C461 1.387 . S
C460 H464 0.950 . S
C460 C469 1.390 . S
C461 C460 1.387 . S
C461 C463 1.387 . S
H462 C469 0.950 . S
C463 C461 1.387 . S
C463 C465 1.390 . S
C463 H467 0.950 . S
H464 C460 0.950 . S
C465 C463 1.390 . S
C465 C466 1.387 . S
C465 H468 0.950 . S
C466 C465 1.387 . S
C466 C469 1.387 . S
H467 C463 0.950 . S
H468 C465 0.950 . S
C469 C460 1.390 . S
C469 H462 0.950 . S
C469 C466 1.387 . S
C470 C471 1.387 . S
C470 H474 0.950 . S
C470 C479 1.390 . S
C471 C470 1.387 . S
C471 C473 1.387 . S
H472 C479 0.950 . S
C473 C471 1.387 . S
C473 C475 1.390 . S
C473 H477 0.950 . S
H474 C470 0.950 . S
C475 C473 1.390 . S
C475 C476 1.387 . S
C475 H478 0.950 . S
C476 C475 1.387 . S
C476 C479 1.387 . S
H477 C473 0.950 . S
H478 C475 0.950 . S
C479 C470 1.390 . S
C479 H472 0.950 . S
C479 C476 1.387 . S
C241 C7 1.515 . S
C246 C90 1.421 . S
C251 C37 1.548 . S
C256 C109 1.427 . S
C261 C54 1.254 1_565 S
C266 C132 1.240 . S
C276 C151 1.278 . S
C271 C87 1.273 . S
C286 C166 1.391 . S
C281 C30 1.492 . S
C291 C51 1.280 1_455 S
C296 C189 1.282 . S
C301 C84 1.299 . S
C306 C208 1.271 . S
C311 C10 1.523 . S
C316 C223 1.396 . S
C321 C59 1.337 . S
C326 C227 1.327 . S
C336 C170 1.208 . S
C331 C74 1.234 . S
C346 C185 1.369 . S
C341 C18 1.487 . S
C351 C32 1.560 . S
C356 C204 1.466 . S
C366 C113 1.323 . S
C361 C73 1.335 . S
C371 C15 1.561 1_655 S
C376 C128 1.477 . S
C386 C147 1.407 . S
C381 C43 1.512 . S
C396 C94 1.201 . S
C391 C62 1.225 . S
C406 C213 1.390 . S
C401 C21 1.479 . S
C416 C232 1.372 . S
C411 C29 1.483 . S
C421 C52 1.381 . S
C426 C175 1.291 . S
C436 C194 1.301 . S
C431 C81 1.427 . S
C446 C137 1.357 . S
C441 C40 1.458 . S
C451 C65 1.437 . S
C456 C156 1.314 . S
C466 C99 1.287 . S
C461 C76 1.379 . S
C476 C118 1.386 . S
C471 C8 1.501 . S
