# Generated by pormake.
# Topology pyr, (3,6)-cn, num edge types: 1
# Building blocks:
#     Node 0, Type 0, BuildingBlock: KAKCAD_clean_linker_0, # of connection points: 3
#     Node 1, Type 0, BuildingBlock: KAKCAD_clean_linker_0, # of connection points: 3
#     Node 2, Type 0, BuildingBlock: KAKCAD_clean_linker_0, # of connection points: 3
#     Node 3, Type 0, BuildingBlock: KAKCAD_clean_linker_0, # of connection points: 3
#     Node 4, Type 0, BuildingBlock: KAKCAD_clean_linker_0, # of connection points: 3
#     Node 5, Type 0, BuildingBlock: KAKCAD_clean_linker_0, # of connection points: 3
#     Node 6, Type 0, BuildingBlock: KAKCAD_clean_linker_0, # of connection points: 3
#     Node 7, Type 0, BuildingBlock: KAKCAD_clean_linker_0, # of connection points: 3
#     Node 8, Type 1, BuildingBlock: INOVEN_clean_sbu_0, # of connection points: 6
#     Node 9, Type 1, BuildingBlock: INOVEN_clean_sbu_0, # of connection points: 6
#     Node 10, Type 1, BuildingBlock: INOVEN_clean_sbu_0, # of connection points: 6
#     Node 11, Type 1, BuildingBlock: INOVEN_clean_sbu_0, # of connection points: 6
#     Edge 12, Type (0, 1), BuildingBlock: XUDNAN_clean_linker_2, # of connection points: 2
#     Edge 13, Type (0, 1), BuildingBlock: XUDNAN_clean_linker_2, # of connection points: 2
#     Edge 14, Type (0, 1), BuildingBlock: XUDNAN_clean_linker_2, # of connection points: 2
#     Edge 15, Type (0, 1), BuildingBlock: XUDNAN_clean_linker_2, # of connection points: 2
#     Edge 16, Type (0, 1), BuildingBlock: XUDNAN_clean_linker_2, # of connection points: 2
#     Edge 17, Type (0, 1), BuildingBlock: XUDNAN_clean_linker_2, # of connection points: 2
#     Edge 18, Type (0, 1), BuildingBlock: XUDNAN_clean_linker_2, # of connection points: 2
#     Edge 19, Type (0, 1), BuildingBlock: XUDNAN_clean_linker_2, # of connection points: 2
#     Edge 20, Type (0, 1), BuildingBlock: XUDNAN_clean_linker_2, # of connection points: 2
#     Edge 21, Type (0, 1), BuildingBlock: XUDNAN_clean_linker_2, # of connection points: 2
#     Edge 22, Type (0, 1), BuildingBlock: XUDNAN_clean_linker_2, # of connection points: 2
#     Edge 23, Type (0, 1), BuildingBlock: XUDNAN_clean_linker_2, # of connection points: 2
#     Edge 24, Type (0, 1), BuildingBlock: XUDNAN_clean_linker_2, # of connection points: 2
#     Edge 25, Type (0, 1), BuildingBlock: XUDNAN_clean_linker_2, # of connection points: 2
#     Edge 26, Type (0, 1), BuildingBlock: XUDNAN_clean_linker_2, # of connection points: 2
#     Edge 27, Type (0, 1), BuildingBlock: XUDNAN_clean_linker_2, # of connection points: 2
#     Edge 28, Type (0, 1), BuildingBlock: XUDNAN_clean_linker_2, # of connection points: 2
#     Edge 29, Type (0, 1), BuildingBlock: XUDNAN_clean_linker_2, # of connection points: 2
#     Edge 30, Type (0, 1), BuildingBlock: XUDNAN_clean_linker_2, # of connection points: 2
#     Edge 31, Type (0, 1), BuildingBlock: XUDNAN_clean_linker_2, # of connection points: 2
#     Edge 32, Type (0, 1), BuildingBlock: XUDNAN_clean_linker_2, # of connection points: 2
#     Edge 33, Type (0, 1), BuildingBlock: XUDNAN_clean_linker_2, # of connection points: 2
#     Edge 34, Type (0, 1), BuildingBlock: XUDNAN_clean_linker_2, # of connection points: 2
#     Edge 35, Type (0, 1), BuildingBlock: XUDNAN_clean_linker_2, # of connection points: 2
# Relax obj value: 0.091
# Max RMSD: 0.125
# Mean RMSD: 0.058
data_MOF--net-pyr--node1-INOVEN_clean_sbu_0--node2-KAKCAD_clean_linker_0--edge1-XUDNAN_clean_linker_2
_symmetry_space_group_name_H-M    P1
_symmetry_Int_Tables_number       1
_symmetry_cell_setting            triclinic
loop_
_symmetry_equiv_pos_as_xyz
'x, y, z'
_cell_length_a     46.612485
_cell_length_b     48.970167
_cell_length_c     43.718977
_cell_angle_alpha  90.764521
_cell_angle_beta   88.552574
_cell_angle_gamma 101.29414
loop_
_atom_site_label
_atom_site_type_symbol
_atom_site_fract_x
_atom_site_fract_y
_atom_site_fract_z
_atom_type_partial_charge
C0 C 0.25812 0.2813 0.30377 0.0
C1 C 0.26922 0.26914 0.32864 0.0
C2 C 0.27559 0.28949 0.27795 0.0
C3 C 0.30507 0.28663 0.2765 0.0
C4 C 0.31676 0.27614 0.30223 0.0
C5 C 0.29898 0.26731 0.32794 0.0
C6 C 0.32241 0.29258 0.24734 0.0
C7 C 0.31653 0.31291 0.22742 0.0
C8 C 0.32784 0.31495 0.19737 0.0
C9 C 0.34767 0.29824 0.18781 0.0
C10 C 0.35488 0.27844 0.20782 0.0
C11 C 0.34208 0.27571 0.23744 0.0
C12 C 0.37356 0.25877 0.19705 0.0
C13 C 0.36477 0.23012 0.20265 0.0
C14 C 0.40018 0.26835 0.18124 0.0
C15 C 0.41786 0.24965 0.17168 0.0
C16 C 0.40906 0.221 0.17742 0.0
C17 C 0.31445 0.33102 0.17531 0.0
C18 C 0.28404 0.32425 0.17192 0.0
C19 C 0.33073 0.35411 0.15982 0.0
C20 C 0.31634 0.37117 0.14261 0.0
C21 C 0.28563 0.36521 0.14087 0.0
C22 C 0.26981 0.34108 0.15488 0.0
C23 C 0.38228 0.21145 0.1929 0.0
H24 H 0.23549 0.28365 0.30374 0.0
H25 H 0.26533 0.29691 0.25862 0.0
H26 H 0.33946 0.27405 0.30227 0.0
H27 H 0.30829 0.25796 0.34665 0.0
H28 H 0.30166 0.32636 0.23457 0.0
H29 H 0.34658 0.25957 0.25224 0.0
H30 H 0.35584 0.2993 0.16433 0.0
H31 H 0.34416 0.22206 0.21439 0.0
H32 H 0.40748 0.29033 0.17665 0.0
H33 H 0.43826 0.25757 0.15952 0.0
H34 H 0.27111 0.30628 0.18333 0.0
H35 H 0.35424 0.35962 0.16216 0.0
H36 H 0.37499 0.18953 0.19783 0.0
H37 H 0.24621 0.33557 0.15329 0.0
H38 H 0.32902 0.3896 0.13187 0.0
C39 C 0.28866 0.88059 0.74427 0.0
C40 C 0.31719 0.89285 0.73457 0.0
C41 C 0.26977 0.86388 0.72433 0.0
C42 C 0.2791 0.85892 0.69435 0.0
C43 C 0.30763 0.87117 0.68459 0.0
C44 C 0.32647 0.88815 0.70449 0.0
C45 C 0.25905 0.84097 0.67337 0.0
C46 C 0.23018 0.84467 0.67064 0.0
C47 C 0.21099 0.8278 0.65072 0.0
C48 C 0.22109 0.80707 0.6334 0.0
C49 C 0.24996 0.80303 0.63589 0.0
C50 C 0.26873 0.82008 0.65612 0.0
C51 C 0.26044 0.78067 0.61809 0.0
C52 C 0.24187 0.75478 0.61298 0.0
C53 C 0.28964 0.78455 0.60745 0.0
C54 C 0.3006 0.76253 0.59423 0.0
C55 C 0.28245 0.73617 0.59059 0.0
C56 C 0.18102 0.83302 0.64678 0.0
C57 C 0.16465 0.84053 0.67191 0.0
C58 C 0.16938 0.83235 0.61741 0.0
C59 C 0.1427 0.84029 0.61304 0.0
C60 C 0.12711 0.84927 0.63789 0.0
C61 C 0.13799 0.84874 0.66748 0.0
C62 C 0.25268 0.7329 0.59907 0.0
H63 H 0.28087 0.88413 0.76726 0.0
H64 H 0.24794 0.85455 0.73246 0.0
H65 H 0.31525 0.86783 0.66149 0.0
H66 H 0.3484 0.8973 0.69652 0.0
H67 H 0.22299 0.86137 0.68332 0.0
H68 H 0.29075 0.81668 0.65918 0.0
H69 H 0.20645 0.79418 0.61779 0.0
H70 H 0.21925 0.75092 0.62088 0.0
H71 H 0.3044 0.80442 0.61015 0.0
H72 H 0.32372 0.76599 0.58838 0.0
H73 H 0.1728 0.84076 0.69491 0.0
H74 H 0.18157 0.82713 0.59749 0.0
H75 H 0.23787 0.71312 0.59603 0.0
H76 H 0.12635 0.85551 0.68701 0.0
H77 H 0.13523 0.84107 0.58986 0.0
C78 C 0.75746 0.43674 0.90332 0.0
C79 C 0.78134 0.42387 0.90903 0.0
C80 C 0.73138 0.4216 0.89143 0.0
C81 C 0.72801 0.39294 0.88509 0.0
C82 C 0.75146 0.37976 0.89169 0.0
C83 C 0.77776 0.39501 0.90344 0.0
C84 C 0.70015 0.37709 0.87162 0.0
C85 C 0.68611 0.3889 0.84831 0.0
C86 C 0.65981 0.37451 0.83547 0.0
C87 C 0.64724 0.3478 0.84706 0.0
C88 C 0.66097 0.33548 0.87024 0.0
C89 C 0.68746 0.35022 0.88204 0.0
C90 C 0.64828 0.30697 0.88214 0.0
C91 C 0.62145 0.30148 0.89853 0.0
C92 C 0.66407 0.28542 0.87886 0.0
C93 C 0.65355 0.25916 0.89181 0.0
C94 C 0.6272 0.25366 0.9094 0.0
C95 C 0.64652 0.38702 0.80911 0.0
C96 C 0.64685 0.4159 0.80773 0.0
C97 C 0.63475 0.37042 0.78415 0.0
C98 C 0.62475 0.38232 0.75835 0.0
C99 C 0.62597 0.41129 0.75651 0.0
C100 C 0.63663 0.42781 0.78195 0.0
C101 C 0.61117 0.27533 0.91217 0.0
H102 H 0.75884 0.45871 0.90804 0.0
H103 H 0.71367 0.43241 0.8874 0.0
H104 H 0.74982 0.35775 0.887 0.0
H105 H 0.79556 0.3843 0.90726 0.0
H106 H 0.69636 0.40908 0.83936 0.0
H107 H 0.69784 0.34091 0.90002 0.0
H108 H 0.62695 0.33641 0.83788 0.0
H109 H 0.60889 0.31776 0.9017 0.0
H110 H 0.68474 0.28893 0.86621 0.0
H111 H 0.66635 0.2432 0.88791 0.0
H112 H 0.65532 0.42947 0.82654 0.0
H113 H 0.63417 0.3482 0.78401 0.0
H114 H 0.59104 0.27252 0.92563 0.0
H115 H 0.63806 0.45014 0.78153 0.0
H116 H 0.61634 0.36873 0.73954 0.0
C117 C 0.87618 0.64709 0.24928 0.0
C118 C 0.90599 0.64587 0.24495 0.0
C119 C 0.86648 0.66154 0.27415 0.0
C120 C 0.88615 0.67561 0.2957 0.0
C121 C 0.91622 0.67578 0.2906 0.0
C122 C 0.92601 0.66108 0.2656 0.0
C123 C 0.8747 0.68858 0.32386 0.0
C124 C 0.8494 0.67404 0.33948 0.0
C125 C 0.83746 0.68546 0.36548 0.0
C126 C 0.851 0.71222 0.37551 0.0
C127 C 0.87614 0.72754 0.36056 0.0
C128 C 0.88822 0.71525 0.33502 0.0
C129 C 0.88867 0.75655 0.37193 0.0
C130 C 0.86971 0.77471 0.38007 0.0
C131 C 0.91879 0.7657 0.37717 0.0
C132 C 0.92923 0.79152 0.39191 0.0
C133 C 0.90978 0.80878 0.40174 0.0
C134 C 0.81118 0.66944 0.38268 0.0
C135 C 0.78711 0.65357 0.36738 0.0
C136 C 0.80993 0.67005 0.41489 0.0
C137 C 0.78571 0.65523 0.43126 0.0
C138 C 0.76173 0.63916 0.41609 0.0
C139 C 0.76266 0.63878 0.38385 0.0
C140 C 0.88004 0.80027 0.39466 0.0
H141 H 0.86005 0.63645 0.23356 0.0
H142 H 0.84328 0.66144 0.27666 0.0
H143 H 0.9321 0.68634 0.30663 0.0
H144 H 0.9491 0.66071 0.2632 0.0
H145 H 0.83937 0.65332 0.33182 0.0
H146 H 0.90736 0.72684 0.32315 0.0
H147 H 0.84177 0.72134 0.39524 0.0
H148 H 0.84651 0.76883 0.37582 0.0
H149 H 0.93408 0.75234 0.37123 0.0
H150 H 0.95227 0.79731 0.39694 0.0
H151 H 0.78703 0.65275 0.34262 0.0
H152 H 0.828 0.68172 0.42764 0.0
H153 H 0.86443 0.81317 0.40114 0.0
H154 H 0.74475 0.62659 0.37131 0.0
H155 H 0.78579 0.65644 0.45601 0.0
C156 C 0.73824 0.77896 0.74668 0.0
C157 C 0.75073 0.80731 0.74291 0.0
C158 C 0.71967 0.77024 0.77179 0.0
C159 C 0.71324 0.7897 0.79357 0.0
C160 C 0.72452 0.81813 0.78885 0.0
C161 C 0.74303 0.82682 0.76386 0.0
C162 C 0.69768 0.78053 0.82281 0.0
C163 C 0.70536 0.75874 0.83923 0.0
C164 C 0.69475 0.75287 0.86928 0.0
C165 C 0.6757 0.76884 0.88279 0.0
C166 C 0.6676 0.79057 0.86643 0.0
C167 C 0.67828 0.7959 0.83636 0.0
C168 C 0.65016 0.80955 0.88122 0.0
C169 C 0.62351 0.79921 0.89659 0.0
C170 C 0.65994 0.83849 0.87902 0.0
C171 C 0.64318 0.85677 0.89134 0.0
C172 C 0.61616 0.84656 0.90605 0.0
C173 C 0.70702 0.73253 0.88723 0.0
C174 C 0.71026 0.70699 0.87394 0.0
C175 C 0.71944 0.7402 0.91579 0.0
C176 C 0.73653 0.7236 0.92969 0.0
C177 C 0.7414 0.69895 0.91537 0.0
C178 C 0.72723 0.69035 0.88788 0.0
C179 C 0.60652 0.81759 0.90872 0.0
H180 H 0.7435 0.76347 0.73072 0.0
H181 H 0.71103 0.7482 0.77467 0.0
H182 H 0.72049 0.83365 0.80545 0.0
H183 H 0.75268 0.84875 0.76209 0.0
H184 H 0.72148 0.7477 0.82948 0.0
H185 H 0.67215 0.81273 0.82376 0.0
H186 H 0.66816 0.76509 0.90629 0.0
H187 H 0.61552 0.77698 0.89854 0.0
H188 H 0.68058 0.84702 0.86758 0.0
H189 H 0.6511 0.87895 0.8887 0.0
H190 H 0.70081 0.70054 0.85199 0.0
H191 H 0.7175 0.75986 0.92646 0.0
H192 H 0.58588 0.80917 0.9202 0.0
H193 H 0.73064 0.67159 0.87615 0.0
H194 H 0.74683 0.73057 0.9511 0.0
C195 C 0.69557 0.18012 0.37169 0.0
C196 C 0.68973 0.19964 0.35069 0.0
C197 C 0.71391 0.18863 0.39611 0.0
C198 C 0.72704 0.21681 0.39986 0.0
C199 C 0.71996 0.23654 0.37973 0.0
C200 C 0.70135 0.22801 0.35536 0.0
C201 C 0.74932 0.22519 0.42358 0.0
C202 C 0.77027 0.20879 0.42859 0.0
C203 C 0.79152 0.21634 0.45088 0.0
C204 C 0.79181 0.24051 0.46853 0.0
C205 C 0.77162 0.25751 0.46305 0.0
C206 C 0.75037 0.24976 0.4407 0.0
C207 C 0.77289 0.28391 0.47986 0.0
C208 C 0.76778 0.28412 0.51162 0.0
C209 C 0.77651 0.30882 0.46356 0.0
C210 C 0.77323 0.33337 0.47841 0.0
C211 C 0.76583 0.33333 0.50978 0.0
C212 C 0.81391 0.19929 0.45484 0.0
C213 C 0.81902 0.18964 0.48388 0.0
C214 C 0.82991 0.19214 0.42933 0.0
C215 C 0.85074 0.17558 0.43279 0.0
C216 C 0.85558 0.16559 0.46174 0.0
C217 C 0.83957 0.17271 0.48727 0.0
C218 C 0.76403 0.30869 0.52648 0.0
H219 H 0.6865 0.15814 0.36874 0.0
H220 H 0.71835 0.17302 0.41169 0.0
H221 H 0.72985 0.25839 0.38192 0.0
H222 H 0.69727 0.24339 0.33931 0.0
H223 H 0.77029 0.19016 0.4149 0.0
H224 H 0.73444 0.26274 0.43701 0.0
H225 H 0.8084 0.24667 0.48557 0.0
H226 H 0.76494 0.265 0.52451 0.0
H227 H 0.78059 0.309 0.43904 0.0
H228 H 0.77427 0.35189 0.46482 0.0
H229 H 0.80681 0.19484 0.50381 0.0
H230 H 0.8264 0.19953 0.40674 0.0
H231 H 0.75823 0.30814 0.55065 0.0
H232 H 0.84319 0.16543 0.50988 0.0
H233 H 0.86281 0.17028 0.4128 0.0
C234 C 0.26412 0.64677 0.18688 0.0
C235 C 0.26409 0.64977 0.15487 0.0
C236 C 0.28897 0.65855 0.20382 0.0
C237 C 0.31445 0.67356 0.18918 0.0
C238 C 0.3148 0.67512 0.15703 0.0
C239 C 0.2901 0.66348 0.14023 0.0
C240 C 0.33997 0.68898 0.20705 0.0
C241 C 0.34999 0.67739 0.23319 0.0
C242 C 0.37374 0.69213 0.25029 0.0
C243 C 0.38733 0.71921 0.24039 0.0
C244 C 0.37801 0.73104 0.21393 0.0
C245 C 0.35435 0.71571 0.19775 0.0
C246 C 0.39235 0.75952 0.20277 0.0
C247 C 0.39667 0.78284 0.22251 0.0
C248 C 0.3999 0.76392 0.17153 0.0
C249 C 0.4108 0.7908 0.16024 0.0
C250 C 0.41407 0.81428 0.17972 0.0
C251 C 0.38438 0.67882 0.27794 0.0
C252 C 0.36483 0.6596 0.29609 0.0
C253 C 0.4142 0.68421 0.28596 0.0
C254 C 0.4241 0.67018 0.31042 0.0
C255 C 0.40461 0.65004 0.32738 0.0
C256 C 0.37479 0.64533 0.32008 0.0
C257 C 0.40712 0.80984 0.2111 0.0
H258 H 0.2445 0.63646 0.19898 0.0
H259 H 0.28774 0.6569 0.22851 0.0
H260 H 0.33413 0.68577 0.14473 0.0
H261 H 0.29122 0.66572 0.11558 0.0
H262 H 0.33969 0.65642 0.23959 0.0
H263 H 0.34654 0.72513 0.17812 0.0
H264 H 0.40525 0.73114 0.25311 0.0
H265 H 0.39096 0.78032 0.24661 0.0
H266 H 0.39699 0.74648 0.15565 0.0
H267 H 0.41572 0.79329 0.13598 0.0
H268 H 0.34163 0.65526 0.29172 0.0
H269 H 0.43022 0.69854 0.27269 0.0
H270 H 0.40957 0.82732 0.22689 0.0
H271 H 0.35906 0.63021 0.33282 0.0
H272 H 0.44725 0.67418 0.31517 0.0
C273 C 0.15317 0.27735 0.66932 0.0
C274 C 0.12279 0.26758 0.672 0.0
C275 C 0.16612 0.30393 0.68038 0.0
C276 C 0.14912 0.32199 0.69406 0.0
C277 C 0.11861 0.31224 0.69629 0.0
C278 C 0.10573 0.2855 0.6856 0.0
C279 C 0.16323 0.35078 0.70545 0.0
C280 C 0.18864 0.36559 0.69043 0.0
C281 C 0.2033 0.39188 0.70088 0.0
C282 C 0.19131 0.40391 0.72655 0.0
C283 C 0.16552 0.39024 0.74202 0.0
C284 C 0.15179 0.36354 0.73119 0.0
C285 C 0.15339 0.40422 0.76937 0.0
C286 C 0.17236 0.4217 0.78926 0.0
C287 C 0.12297 0.40158 0.77516 0.0
C288 C 0.1121 0.41691 0.79896 0.0
C289 C 0.13129 0.43552 0.81751 0.0
C290 C 0.23131 0.40656 0.68517 0.0
C291 C 0.25132 0.3914 0.67172 0.0
C292 C 0.23868 0.43589 0.68385 0.0
C293 C 0.26528 0.44947 0.67043 0.0
C294 C 0.28526 0.43426 0.65734 0.0
C295 C 0.27771 0.40503 0.65781 0.0
C296 C 0.16154 0.4372 0.81259 0.0
H297 H 0.16712 0.26408 0.65952 0.0
H298 H 0.18971 0.31001 0.67869 0.0
H299 H 0.10448 0.32535 0.70602 0.0
H300 H 0.08221 0.27887 0.68789 0.0
H301 H 0.19678 0.35683 0.6699 0.0
H302 H 0.13266 0.35237 0.74338 0.0
H303 H 0.2022 0.42418 0.73458 0.0
H304 H 0.19584 0.42384 0.78663 0.0
H305 H 0.10745 0.38853 0.76054 0.0
H306 H 0.08867 0.4152 0.80189 0.0
H307 H 0.24705 0.36889 0.67257 0.0
H308 H 0.22387 0.44855 0.69307 0.0
H309 H 0.17702 0.45103 0.82659 0.0
H310 H 0.29269 0.39264 0.64829 0.0
H311 H 0.2702 0.47202 0.67019 0.0
Gd312 Gd 0.04317 0.03913 0.52081 0.0
Gd313 Gd 1.00616 1.01828 0.57803 0.0
C314 C 0.04927 0.07872 0.58289 0.0
C315 C 0.07285 0.06415 0.47533 0.0
C316 C 0.08747 0.092 0.46557 0.0
C317 C 0.09818 0.09544 0.43544 0.0
C318 C 0.09351 0.11431 0.48642 0.0
C319 C 0.12284 0.14278 0.44736 0.0
C320 C 0.11114 0.13957 0.47738 0.0
C321 C 0.11572 0.12055 0.42639 0.0
C322 C 0.05879 0.99672 0.55066 0.0
C323 C 0.99439 0.9824 0.51562 0.0
C324 C 0.9858 0.99581 0.62892 0.0
C325 C 0.96147 0.97283 0.63644 0.0
C326 C 0.96459 0.95437 0.65975 0.0
C327 C 0.93612 0.96777 0.61889 0.0
C328 C 0.91712 0.92603 0.64815 0.0
C329 C 0.914 0.94466 0.62487 0.0
C330 C 0.9426 0.93111 0.66556 0.0
C331 C 0.97917 0.04405 0.53661 0.0
O332 O 0.05686 0.07628 0.55357 0.0
O333 O 0.03121 0.05843 0.59724 0.0
O334 O 0.08474 0.05395 0.49833 0.0
O335 O 0.04412 0.05883 0.47652 0.0
O336 O 0.05947 0.99888 0.52122 0.0
O337 O 0.05096 1.01759 0.56275 0.0
O338 O 0.99413 0.98181 0.54589 0.0
O339 O 1.00861 1.00445 0.50023 0.0
O340 O 0.97881 1.01867 0.61869 0.0
O341 O 1.00756 0.98837 0.61357 0.0
O342 O 0.96558 1.02364 0.5534 0.0
O343 O 1.00542 0.05089 0.54418 0.0
H344 H 0.09393 0.07831 0.41918 0.0
H345 H 0.0854 0.11192 0.50984 0.0
H346 H 0.11602 0.15637 0.49397 0.0
H347 H 0.12478 0.12205 0.40328 0.0
H348 H 0.98421 0.95776 0.67321 0.0
H349 H 0.93357 0.98146 0.60031 0.0
H350 H 0.89468 0.94108 0.61098 0.0
H351 H 0.9454 0.91723 0.68386 0.0
Gd352 Gd 0.54269 0.03648 0.0571 0.0
Gd353 Gd 0.48682 1.03307 1.02982 0.0
C354 C 0.49684 0.07149 0.08685 0.0
C355 C 0.59181 0.05185 0.08439 0.0
C356 C 0.6014 0.07148 0.10957 0.0
C357 C 0.61223 0.06159 0.13596 0.0
C358 C 0.59793 0.09934 0.10865 0.0
C359 C 0.61549 0.10691 0.16061 0.0
C360 C 0.60506 0.11692 0.1339 0.0
C361 C 0.61901 0.07903 0.16129 0.0
C362 C 0.50295 0.99097 0.07568 0.0
C363 C 0.53309 0.99786 0.99955 0.0
C364 C 0.43712 1.01789 1.00351 0.0
C365 C 0.42827 1.00713 0.97279 0.0
C366 C 0.41523 1.0234 0.95321 0.0
C367 C 0.43351 0.98124 0.96231 0.0
C368 C 0.41307 0.98827 0.91311 0.0
C369 C 0.42591 0.97189 0.93276 0.0
C370 C 0.40783 1.01412 0.92358 0.0
C371 C 0.52664 0.07815 1.01008 0.0
O372 O 0.52461 0.071 0.08095 0.0
O373 O 0.47623 0.05374 0.07316 0.0
O374 O 0.57253 1.0298 0.09211 0.0
O375 O 0.58603 0.06241 0.05848 0.0
O376 O 0.52983 0.99076 0.06765 0.0
O377 O 0.49793 1.01543 0.07336 0.0
O378 O 0.50554 1.00055 1.00277 0.0
O379 O 0.55365 1.01318 1.01585 0.0
O380 O 0.45111 0.0437 1.00471 0.0
O381 O 0.44823 1.00155 1.02126 0.0
O382 O 0.49939 0.0782 1.01628 0.0
O383 O 0.53165 0.05386 1.01356 0.0
H384 H 0.61476 0.04011 0.13727 0.0
H385 H 0.58934 0.10747 0.08864 0.0
H386 H 0.60242 0.13835 0.13244 0.0
H387 H 0.62639 0.07038 0.18165 0.0
H388 H 0.41091 0.04339 0.96079 0.0
H389 H 0.44362 0.96823 0.9768 0.0
H390 H 0.43033 0.95193 0.92517 0.0
H391 H 0.39756 1.02697 0.90902 0.0
Gd392 Gd 0.52549 0.50915 0.51626 0.0
Gd393 Gd 0.52558 0.55706 0.55653 0.0
C394 C 0.55422 0.50943 0.58377 0.0
C395 C 0.54392 0.47021 0.48642 0.0
C396 C 0.57209 0.46178 0.49049 0.0
C397 C 0.57466 0.43394 0.48683 0.0
C398 C 0.5958 0.48131 0.50163 0.0
C399 C 0.62415 0.44512 0.50643 0.0
C400 C 0.62156 0.47309 0.50953 0.0
C401 C 0.60057 0.42566 0.4946 0.0
C402 C 0.47382 0.50585 0.54789 0.0
C403 C 0.49465 0.55464 0.48891 0.0
C404 C 0.51127 0.59786 0.58721 0.0
C405 C 0.48602 0.61149 0.5845 0.0
C406 C 0.46797 0.61317 0.61028 0.0
C407 C 0.47757 0.61948 0.55582 0.0
C408 C 0.43229 0.62861 0.57849 0.0
C409 C 0.45094 0.62807 0.55287 0.0
C410 C 0.44131 0.62164 0.60731 0.0
C411 C 0.57787 0.55865 0.52756 0.0
O412 O 0.55485 0.50173 0.55471 0.0
O413 O 0.54082 0.52988 0.59199 0.0
O414 O 0.52574 0.46519 0.50985 0.0
O415 O 0.5456 0.49517 0.47533 0.0
O416 O 0.47597 0.49646 0.52018 0.0
O417 O 0.49912 0.5147 0.55801 0.0
O418 O 0.49666 0.56543 0.51699 0.0
O419 O 0.50654 0.5331 0.48175 0.0
O420 O 0.53065 0.60149 0.56473 0.0
O421 O 0.50468 0.57207 0.59633 0.0
O422 O 0.57472 0.56572 0.55592 0.0
O423 O 0.55311 0.5516 0.51532 0.0
H424 H 0.55647 0.41856 0.47858 0.0
H425 H 0.59409 0.50286 0.50513 0.0
H426 H 0.6391 0.48852 0.51889 0.0
H427 H 0.60211 0.40403 0.4914 0.0
H428 H 0.47401 0.60697 0.63255 0.0
H429 H 0.49098 0.6182 0.53547 0.0
H430 H 0.44449 0.63333 0.53039 0.0
H431 H 0.42758 0.62243 0.62755 0.0
Gd432 Gd 0.02461 0.51481 0.04276 0.0
Gd433 Gd 0.01692 0.57313 1.0199 0.0
C434 C 0.0766 0.57073 0.05374 0.0
C435 C 0.04417 0.47033 0.05432 0.0
C436 C 0.07315 0.46369 0.0587 0.0
C437 C 0.07539 0.43968 0.0747 0.0
C438 C 0.09866 0.4814 0.04775 0.0
C439 C 0.1285 0.45114 0.06923 0.0
C440 C 0.12615 0.47512 0.0529 0.0
C441 C 0.1028 0.43343 0.07991 0.0
C442 C 0.9906 0.54149 0.07904 0.0
C443 C 0.96831 0.51756 1.00221 0.0
C444 C 0.99555 0.6179 1.01848 0.0
C445 C 0.9708 0.62588 1.00318 0.0
C446 C 0.95791 0.61044 0.97811 0.0
C447 C 0.95761 0.64678 1.01617 0.0
C448 C 0.91778 0.63571 0.98028 0.0
C449 C 0.93138 0.65174 1.00477 0.0
C450 C 0.93161 0.61532 0.96673 0.0
C451 C 0.04314 0.54632 0.97455 0.0
O452 O 0.06851 0.5431 0.05445 0.0
O453 O 0.05952 0.58684 0.04305 0.0
O454 O 0.03515 0.48585 0.0757 0.0
O455 O 0.03875 0.47756 1.02662 0.0
O456 O 0.9855 0.51475 0.07407 0.0
O457 O 1.01409 0.55273 0.06517 0.0
O458 O 0.97516 0.54499 1.00536 0.0
O459 O 0.98503 0.50095 1.01291 0.0
O460 O 0.01789 0.61416 1.00119 0.0
O461 O 0.9879 0.59851 1.03906 0.0
O462 O 0.03802 0.57139 0.97221 0.0
O463 O 0.03433 0.53786 1.00087 0.0
H464 H 0.05592 0.4258 0.08327 0.0
H465 H 0.09733 0.50014 1.03543 0.0
H466 H 0.14556 0.48926 0.04462 0.0
H467 H 0.10386 0.41457 0.09215 0.0
H468 H 0.96774 0.59408 0.96795 0.0
H469 H 0.96704 0.65856 1.03587 0.0
H470 H 0.92115 0.66735 1.01598 0.0
H471 H 0.92191 0.60286 0.94761 0.0
H472 H 0.21323 0.24028 0.32298 0.0
H473 H 0.27973 0.26747 0.39055 0.0
H474 H 0.2467 0.24222 0.43052 0.0
H475 H 0.14932 0.24465 0.37363 0.0
H476 H 0.12758 0.21426 0.35605 0.0
H477 H 0.15539 0.23684 0.33385 0.0
H478 H 0.17928 0.19474 0.31925 0.0
H479 H 0.1517 0.17211 0.34142 0.0
H480 H 0.18984 0.17395 0.34914 0.0
H481 H 0.20795 0.20972 0.4617 0.0
H482 H 0.16805 0.17241 0.48058 0.0
H483 H 0.12637 0.16982 0.39269 0.0
C484 C 0.22064 0.24185 0.34632 0.0
C485 C 0.24904 0.25617 0.3536 0.0
C486 C 0.25813 0.25656 0.38433 0.0
C487 C 0.23942 0.2425 0.40724 0.0
C488 C 0.21162 0.22846 0.39908 0.0
C489 C 0.20226 0.22826 0.36933 0.0
C490 C 0.17235 0.21009 0.36574 0.0
C491 C 0.14983 0.22751 0.3568 0.0
C492 C 0.17338 0.18632 0.34253 0.0
C493 C 0.16664 0.19923 0.39792 0.0
C494 C 0.18931 0.21023 0.41698 0.0
C495 C 0.18982 0.2014 0.44712 0.0
C496 C 0.16697 0.1803 0.45771 0.0
C497 C 0.14406 0.16821 0.43811 0.0
C498 C 0.1436 0.17855 0.4082 0.0
H499 H 0.32746 0.88103 0.79354 0.0
H500 H 0.35128 0.94426 0.72396 0.0
H501 H 0.38155 0.97489 0.76136 0.0
H502 H 0.31923 0.926 0.85446 0.0
H503 H 0.33422 0.90663 0.88272 0.0
H504 H 0.31676 0.88898 0.84976 0.0
H505 H 0.36367 0.86992 0.83609 0.0
H506 H 0.38128 0.88748 0.86911 0.0
H507 H 0.39817 0.89386 0.83168 0.0
H508 H 0.40527 1.00005 0.80787 0.0
H509 H 0.42242 1.01691 0.85916 0.0
H510 H 0.38313 0.93666 0.8975 0.0
C511 C 0.33924 0.90125 0.78613 0.0
C512 C 0.33705 0.9104 0.75599 0.0
C513 C 0.35293 0.93685 0.74696 0.0
C514 C 0.37007 0.95436 0.76803 0.0
C515 C 0.3713 0.94488 0.7978 0.0
C516 C 0.35654 0.91881 0.80672 0.0
C517 C 0.3605 0.91387 0.84026 0.0
C518 C 0.33092 0.90857 0.85782 0.0
C519 C 0.37689 0.88986 0.84452 0.0
C520 C 0.37915 0.94152 0.84909 0.0
C521 C 0.3853 0.95912 0.82431 0.0
C522 C 0.40091 0.98633 0.82735 0.0
C523 C 0.41038 0.99577 0.85653 0.0
C524 C 0.40423 0.97799 0.88214 0.0
C525 C 0.38863 0.95049 0.8782 0.0
H526 H 0.59523 0.45459 0.74892 0.0
H527 H 0.63894 0.39741 0.69765 0.0
H528 H 0.62646 0.41717 0.64945 0.0
H529 H 0.53567 0.45204 0.69668 0.0
H530 H 0.5341 0.48839 0.70078 0.0
H531 H 0.54686 0.47037 0.73177 0.0
H532 H 0.59506 0.50703 0.73231 0.0
H533 H 0.58246 0.52515 0.70127 0.0
H534 H 0.61691 0.51379 0.69761 0.0
H535 H 0.60952 0.44253 0.60645 0.0
H536 H 0.58764 0.47065 0.57113 0.0
H537 H 0.55364 0.51248 0.6482 0.0
C538 C 0.60232 0.44633 0.72755 0.0
C539 C 0.61799 0.42408 0.72742 0.0
C540 C 0.62654 0.41394 0.69873 0.0
C541 C 0.61973 0.42523 0.67107 0.0
C542 C 0.60419 0.44684 0.67201 0.0
C543 C 0.59545 0.45732 0.69943 0.0
C544 C 0.57835 0.48031 0.69356 0.0
C545 C 0.54688 0.47229 0.70647 0.0
C546 C 0.59414 0.50823 0.70699 0.0
C547 C 0.57884 0.481 0.65862 0.0
C548 C 0.59408 0.46153 0.64686 0.0
C549 C 0.59755 0.45782 0.61545 0.0
C550 C 0.58493 0.47406 0.59546 0.0
C551 C 0.56876 0.49405 0.60653 0.0
C552 C 0.56593 0.49761 0.63878 0.0
H553 H 0.95605 0.65452 0.20598 0.0
H554 H 0.87715 0.59402 0.22812 0.0
H555 H 0.88969 0.56297 0.18758 0.0
H556 H 0.95465 0.64252 0.1234 0.0
H557 H 0.99369 0.64582 0.11869 0.0
H558 H 0.97885 0.66421 0.14934 0.0
H559 H 1.00698 0.64124 0.18875 0.0
H560 H 0.02201 0.6229 0.1582 0.0
H561 H 1.00217 0.60382 0.18965 0.0
H562 H 0.91001 0.53773 0.14529 0.0
H563 H 0.93797 0.51899 0.10436 0.0
H564 H 1.00498 0.59418 0.10749 0.0
C565 C 0.94147 0.63471 0.20236 0.0
C566 C 0.91519 0.62717 0.22029 0.0
C567 C 0.89692 0.6009 0.21452 0.0
C568 C 0.90397 0.58289 0.19153 0.0
C569 C 0.92956 0.59107 0.1741 0.0
C570 C 0.94819 0.61626 0.17915 0.0
C571 C 0.9745 0.61945 0.15694 0.0
C572 C 0.97548 0.6445 0.13585 0.0
C573 C 1.00311 0.622 0.17443 0.0
C574 C 0.96774 0.59206 0.13894 0.0
C575 C 0.94157 0.57618 0.14935 0.0
C576 C 0.93051 0.54999 0.13695 0.0
C577 C 0.94663 0.5395 0.1136 0.0
C578 C 0.97372 0.55497 0.10249 0.0
C579 C 0.98427 0.58185 0.11525 0.0
H580 H 0.3915 0.17044 0.14917 0.0
H581 H 0.46844 0.22642 0.18262 0.0
H582 H 0.49909 0.19273 0.16609 0.0
H583 H 0.4124 0.10586 0.17076 0.0
H584 H 0.39759 0.08745 0.13693 0.0
H585 H 0.38168 0.11552 0.15241 0.0
H586 H 0.38955 0.1405 0.10008 0.0
H587 H 0.40529 0.11245 0.08441 0.0
H588 H 0.42564 0.14773 0.08257 0.0
H589 H 0.52136 0.15315 0.1449 0.0
H590 H 0.53392 0.1123 0.11794 0.0
H591 H 0.44212 0.08241 0.0986 0.0
C592 C 0.41475 0.17547 0.15335 0.0
C593 C 0.4276 0.20098 0.1673 0.0
C594 C 0.4582 0.20707 0.17177 0.0
C595 C 0.47572 0.18799 0.16268 0.0
C596 C 0.4623 0.16296 0.14912 0.0
C597 C 0.43253 0.15676 0.14433 0.0
C598 C 0.42364 0.12901 0.12809 0.0
C599 C 0.40258 0.10823 0.14826 0.0
C600 C 0.41025 0.13266 0.09694 0.0
C601 C 0.45309 0.12062 0.12426 0.0
C602 C 0.4751 0.14035 0.13675 0.0
C603 C 0.50428 0.13752 0.13515 0.0
C604 C 0.51118 0.1142 0.11982 0.0
C605 C 0.48901 0.09409 0.10619 0.0
C606 C 0.45957 0.09724 0.10898 0.0
H607 H 0.11821 0.89886 0.66083 0.0
H608 H 0.08159 0.83141 0.59963 0.0
H609 H 0.0505 0.86092 0.57739 0.0
H610 H 0.04779 0.93216 0.66633 0.0
H611 H 0.07081 0.96631 0.66732 0.0
H612 H 0.08233 0.93746 0.68537 0.0
H613 H 0.13069 0.94789 0.65344 0.0
H614 H 0.11915 0.97608 0.63468 0.0
H615 H 0.12928 0.94814 0.61224 0.0
H616 H 0.03728 0.90018 0.55135 0.0
H617 H 0.03672 0.94543 0.52778 0.0
H618 H 0.07848 0.98818 0.60715 0.0
C619 C 0.1023 0.88979 0.6441 0.0
C620 C 0.10223 0.86294 0.63188 0.0
C621 C 0.08195 0.85199 0.6092 0.0
C622 C 0.06411 0.86857 0.59657 0.0
C623 C 0.06639 0.8958 0.60738 0.0
C624 C 0.08428 0.90614 0.63136 0.0
C625 C 0.08624 0.93726 0.6354 0.0
C626 C 0.07087 0.94367 0.66539 0.0
C627 C 0.11823 0.95324 0.63381 0.0
C628 C 0.06933 0.9432 0.608 0.0
C629 C 0.05748 0.91888 0.59258 0.0
C630 C 0.04527 0.91925 0.56387 0.0
C631 C 0.04535 0.94503 0.55051 0.0
C632 C 0.05716 0.97005 0.56604 0.0
C633 C 0.06862 0.96917 0.59539 0.0
H634 H 0.82171 0.41021 0.94996 0.0
H635 H 0.8068 0.47653 0.89095 0.0
H636 H 0.85238 0.50608 0.90811 0.0
H637 H 0.85292 0.45408 1.01226 0.0
H638 H 0.88018 0.43395 1.02078 0.0
H639 H 0.84625 0.41724 1.00397 0.0
H640 H 0.87495 0.39876 0.95943 0.0
H641 H 0.90898 0.41539 0.97614 0.0
H642 H 0.90132 0.42293 0.93727 0.0
H643 H 0.8982 0.52943 0.93205 0.0
H644 H 0.9431 0.54518 0.96049 0.0
H645 H 0.93195 0.46436 1.00383 0.0
C646 C 0.82814 0.43085 0.94043 0.0
C647 C 0.81002 0.441 0.9193 0.0
C648 C 0.81951 0.46829 0.90767 0.0
C649 C 0.84564 0.48526 0.9171 0.0
C650 C 0.86262 0.47483 0.93811 0.0
C651 C 0.8545 0.44824 0.94958 0.0
C652 C 0.87716 0.44254 0.97207 0.0
C653 C 0.86329 0.4366 1.00418 0.0
C654 C 0.89145 0.41847 0.96053 0.0
C655 C 0.89905 0.47015 0.97149 0.0
C656 C 0.88995 0.48835 0.95168 0.0
C657 C 0.90561 0.51532 0.94751 0.0
C658 C 0.93117 0.52413 0.96401 0.0
C659 C 0.94133 0.50617 0.98462 0.0
C660 C 0.92504 0.47859 0.98814 0.0
H661 H 0.7016 0.63111 0.40608 0.0
H662 H 0.76486 0.60872 0.46748 0.0
H663 H 0.72471 0.58315 0.49972 0.0
H664 H 0.64964 0.64224 0.4635 0.0
H665 H 0.61774 0.62755 0.44196 0.0
H666 H 0.65133 0.64279 0.42226 0.0
H667 H 0.65027 0.59673 0.39216 0.0
H668 H 0.61665 0.58134 0.41184 0.0
H669 H 0.64783 0.56468 0.41276 0.0
H670 H 0.67836 0.56294 0.52774 0.0
H671 H 0.62835 0.54915 0.54962 0.0
H672 H 0.59332 0.582 0.47016 0.0
C673 C 0.707 0.62046 0.42604 0.0
C674 C 0.73667 0.62227 0.43422 0.0
C675 C 0.74254 0.60821 0.46083 0.0
C676 C 0.7198 0.59337 0.47925 0.0
C677 C 0.69097 0.59239 0.47088 0.0
C678 C 0.68438 0.60541 0.44486 0.0
C679 C 0.65129 0.60186 0.44197 0.0
C680 C 0.64196 0.6303 0.44246 0.0
C681 C 0.6409 0.58516 0.41295 0.0
C682 C 0.64044 0.5853 0.47071 0.0
C683 C 0.66386 0.58003 0.48689 0.0
C684 C 0.65986 0.56664 0.51506 0.0
C685 C 0.63136 0.55888 0.52734 0.0
C686 C 0.60694 0.56411 0.51147 0.0
C687 C 0.61152 0.5771 0.48246 0.0
H688 H 0.23849 0.38371 0.16449 0.0
H689 H 0.29565 0.38954 0.08411 0.0
H690 H 0.264 0.4169 0.05806 0.0
H691 H 0.17335 0.37135 0.1264 0.0
H692 H 0.15455 0.39115 0.15236 0.0
H693 H 0.18389 0.37586 0.16582 0.0
H694 H 0.21104 0.42427 0.18467 0.0
H695 H 0.1816 0.43972 0.17145 0.0
H696 H 0.21863 0.45293 0.15832 0.0
H697 H 0.22244 0.43898 0.0392 0.0
H698 H 0.17569 0.45388 1.02953 0.0
H699 H 0.14662 0.43292 0.12281 0.0
C700 C 0.2446 0.39108 0.14154 0.0
C701 C 0.26937 0.38445 0.12618 0.0
C702 C 0.27683 0.3946 0.09629 0.0
C703 C 0.25896 0.41008 0.08136 0.0
C704 C 0.23406 0.41544 0.09689 0.0
C705 C 0.22713 0.40643 0.12648 0.0
C706 C 0.19826 0.413 0.1376 0.0
C707 C 0.17623 0.38625 0.14602 0.0
C708 C 0.20266 0.43372 0.1646 0.0
C709 C 0.18936 0.42626 0.1093 0.0
C710 C 0.21037 0.4279 0.08614 0.0
C711 C 0.20607 0.43815 0.05734 0.0
C712 C 0.1795 0.44661 0.05207 0.0
C713 C 0.15752 0.44447 0.0754 0.0
C714 C 0.1629 0.4346 0.10445 0.0
H715 H 0.57028 0.22598 0.92555 0.0
H716 H 0.66122 0.21764 0.93062 0.0
H717 H 0.64559 0.17205 0.95476 0.0
H718 H 0.54917 0.19609 1.00032 0.0
H719 H 0.51319 0.17912 0.98865 0.0
H720 H 0.53133 0.21073 0.97023 0.0
H721 H 0.52516 0.18577 0.91753 0.0
H722 H 0.50713 0.15406 0.93581 0.0
H723 H 0.53896 0.15416 0.9115 0.0
H724 H 0.61984 0.12572 0.97773 0.0
H725 H 0.58629 0.08524 1.00081 0.0
H726 H 0.51285 0.12532 0.98562 0.0
C727 C 0.58712 0.21489 0.93188 0.0
C728 C 0.6172 0.22585 0.92518 0.0
C729 C 0.63802 0.20989 0.9341 0.0
C730 C 0.62937 0.18383 0.94828 0.0
C731 C 0.5997 0.17371 0.95418 0.0
C732 C 0.57891 0.18893 0.94662 0.0
C733 C 0.54848 0.17371 0.95648 0.0
C734 C 0.53474 0.19094 0.98034 0.0
C735 C 0.52878 0.1665 0.92867 0.0
C736 C 0.55542 0.14757 0.97061 0.0
C737 C 0.58509 0.14782 0.96878 0.0
C738 C 0.59659 0.1255 0.9795 0.0
C739 C 0.57738 0.10253 0.99259 0.0
C740 C 0.54696 0.10208 0.99535 0.0
C741 C 0.53602 0.12503 0.98413 0.0
H742 H 0.95899 0.85228 0.39596 0.0
H743 H 0.88211 0.82277 0.45339 0.0
H744 H 0.89482 0.86419 0.48634 0.0
H745 H 1.00672 0.88205 0.458 0.0
H746 H 0.02497 0.91185 0.43647 0.0
H747 H 1.01028 0.8797 0.41694 0.0
H748 H 0.97992 0.9058 0.38305 0.0
H749 H 0.99438 0.93799 0.40264 0.0
H750 H 0.95537 0.9258 0.40091 0.0
H751 H 0.91539 0.90772 0.51404 0.0
H752 H 0.9431 0.95144 0.53538 0.0
H753 H 1.00706 0.95596 0.46082 0.0
C754 C 0.94494 0.85453 0.41555 0.0
C755 C 0.91922 0.83414 0.42171 0.0
C756 C 0.90153 0.8381 0.44765 0.0
C757 C 0.90865 0.8616 0.46669 0.0
C758 C 0.93367 0.88141 0.45978 0.0
C759 C 0.95167 0.87828 0.43491 0.0
C760 C 0.97725 0.90313 0.43304 0.0
C761 C 1.00654 0.89361 0.43631 0.0
C762 C 0.97669 0.91913 0.40312 0.0
C763 C 0.97073 0.92051 0.46072 0.0
C764 C 0.94546 0.9073 0.47573 0.0
C765 C 0.93511 0.91833 0.50238 0.0
C766 C 0.95106 0.94328 0.51434 0.0
C767 C 0.97713 0.95746 0.49972 0.0
C768 C 0.98693 0.94599 0.47223 0.0
H769 H 0.3288 0.73437 0.55057 0.0
H770 H 0.26669 0.68276 0.6119 0.0
H771 H 0.2942 0.6452 0.60594 0.0
H772 H 0.35088 0.67578 0.50269 0.0
H773 H 0.38855 0.6937 0.50153 0.0
H774 H 0.35955 0.7133 0.50254 0.0
H775 H 0.38203 0.7401 0.55049 0.0
H776 H 0.41081 0.72052 0.54984 0.0
H777 H 0.38811 0.72084 0.58379 0.0
H778 H 0.33301 0.61776 0.60343 0.0
H779 H 0.38021 0.60218 0.60356 0.0
H780 H 0.41936 0.67239 0.54698 0.0
C781 C 0.32052 0.71493 0.56214 0.0
C782 C 0.29541 0.71169 0.58163 0.0
C783 C 0.28536 0.68577 0.59623 0.0
C784 C 0.30098 0.6642 0.5931 0.0
C785 C 0.3266 0.66876 0.57527 0.0
C786 C 0.33621 0.69339 0.55975 0.0
C787 C 0.36676 0.69486 0.54632 0.0
C788 C 0.3664 0.69437 0.51118 0.0
C789 C 0.38816 0.72059 0.55835 0.0
C790 C 0.37352 0.66811 0.55854 0.0
C791 C 0.34975 0.653 0.57443 0.0
C792 C 0.35158 0.62905 0.59049 0.0
C793 C 0.37852 0.62055 0.59073 0.0
C794 C 0.40333 0.63616 0.57532 0.0
C795 C 0.40056 0.65982 0.55843 0.0
H796 H 0.75962 0.85459 0.70815 0.0
H797 H 0.79597 0.78156 0.72655 0.0
H798 H 0.8403 0.80145 0.69641 0.0
H799 H 0.79532 0.87042 0.62995 0.0
H800 H 0.80142 0.90734 0.63763 0.0
H801 H 0.76988 0.8846 0.65419 0.0
H802 H 0.7855 0.90346 0.70816 0.0
H803 H 0.81715 0.92595 0.69191 0.0
H804 H 0.82146 0.90153 0.72113 0.0
H805 H 0.88399 0.83273 0.67368 0.0
H806 H 0.92278 0.87223 0.65753 0.0
H807 H 0.85864 0.92539 0.65495 0.0
C808 C 0.77655 0.84243 0.70509 0.0
C809 C 0.77424 0.81646 0.71961 0.0
C810 C 0.79693 0.80123 0.71517 0.0
C811 C 0.8223 0.81244 0.69818 0.0
C812 C 0.82451 0.83874 0.68552 0.0
C813 C 0.80205 0.8534 0.68838 0.0
C814 C 0.8112 0.88258 0.67591 0.0
C815 C 0.7934 0.88645 0.64774 0.0
C816 C 0.80869 0.90466 0.70076 0.0
C817 C 0.84278 0.88256 0.66713 0.0
C818 C 0.84992 0.85694 0.67236 0.0
C819 C 0.87852 0.85268 0.66881 0.0
C820 C 0.90043 0.87526 0.65992 0.0
C821 C 0.89358 0.90172 0.65484 0.0
C822 C 0.86431 0.90519 0.65798 0.0
H823 H 0.70151 0.15988 0.31142 0.0
H824 H 0.64331 0.21808 0.32616 0.0
H825 H 0.6178 0.20131 0.27826 0.0
H826 H 0.70889 0.16769 0.23008 0.0
H827 H 0.71017 0.13157 0.2232 0.0
H828 H 0.72314 0.14805 0.25865 0.0
H829 H 0.68759 0.10997 0.28901 0.0
H830 H 0.67454 0.09336 0.25366 0.0
H831 H 0.64906 0.10359 0.28113 0.0
H832 H 0.59794 0.17646 0.22936 0.0
H833 H 0.58647 0.14715 0.18312 0.0
H834 H 0.66046 0.10801 0.19999 0.0
C835 C 0.68321 0.16892 0.30469 0.0
C836 C 0.67402 0.18996 0.32248 0.0
C837 C 0.6505 0.20183 0.31271 0.0
C838 C 0.63594 0.19243 0.28566 0.0
C839 C 0.64555 0.17149 0.26866 0.0
C840 C 0.6688 0.16007 0.27776 0.0
C841 C 0.67537 0.13825 0.25539 0.0
C842 C 0.70622 0.14692 0.24098 0.0
C843 C 0.67139 0.1096 0.27072 0.0
C844 C 0.65201 0.13889 0.23231 0.0
C845 C 0.6349 0.15806 0.2403 0.0
C846 C 0.6114 0.1616 0.22272 0.0
C847 C 0.6052 0.14499 0.19638 0.0
C848 C 0.62258 0.12525 0.18781 0.0
C849 C 0.64644 0.12255 0.20601 0.0
H850 H 0.44056 0.66542 0.37781 0.0
H851 H 0.39274 0.59355 0.32933 0.0
H852 H 0.40927 0.56243 0.36601 0.0
H853 H 0.50257 0.63567 0.39782 0.0
H854 H 0.50626 0.65095 0.4356 0.0
H855 H 0.49083 0.66807 0.40566 0.0
H856 H 0.44444 0.66807 0.43948 0.0
H857 H 0.45974 0.65087 0.46948 0.0
H858 H 0.42439 0.63567 0.45471 0.0
H859 H 0.43262 0.53865 0.40576 0.0
H860 H 0.45959 0.52341 0.44798 0.0
H861 H 0.4906 0.60952 0.47486 0.0
C862 C 0.43363 0.64312 0.37499 0.0
C863 C 0.41522 0.63198 0.3505 0.0
C864 C 0.40654 0.60267 0.34786 0.0
C865 C 0.41591 0.58477 0.36861 0.0
C866 C 0.43378 0.59628 0.39247 0.0
C867 C 0.44239 0.62476 0.39609 0.0
C868 C 0.46138 0.63134 0.42429 0.0
C869 C 0.49208 0.64747 0.4153 0.0
C870 C 0.4466 0.64745 0.44842 0.0
C871 C 0.46249 0.60214 0.43545 0.0
C872 C 0.44643 0.58234 0.41651 0.0
C873 C 0.445 0.55397 0.42091 0.0
C874 C 0.46048 0.5455 0.44501 0.0
C875 C 0.47706 0.56512 0.46504 0.0
C876 C 0.47774 0.59394 0.46034 0.0
H877 H 0.08986 0.42478 0.86609 0.0
H878 H 0.1485 0.49168 0.81907 0.0
H879 H 0.13292 0.52587 0.8544 0.0
H880 H 0.03127 0.46244 0.88308 0.0
H881 H 0.02291 0.44813 0.92077 0.0
H882 H 0.03804 0.42837 0.8916 0.0
H883 H 0.08034 0.42392 0.92721 0.0
H884 H 0.0654 0.44378 0.95644 0.0
H885 H 0.10265 0.45493 0.94294 0.0
H886 H 0.11026 0.55339 0.89291 0.0
H887 H 0.0833 0.57284 0.93421 0.0
H888 H 0.04052 0.48945 0.96074 0.0
C889 C 0.09929 0.44665 0.86325 0.0
C890 C 0.12054 0.45546 0.83957 0.0
C891 C 0.13245 0.48429 0.83694 0.0
C892 C 0.12365 0.50394 0.85694 0.0
C893 C 0.10302 0.4947 0.88005 0.0
C894 C 0.09106 0.46676 0.88362 0.0
C895 C 0.06967 0.46282 0.91111 0.0
C896 C 0.03863 0.44966 0.90103 0.0
C897 C 0.08014 0.44531 0.93589 0.0
C898 C 0.07131 0.49288 0.92204 0.0
C899 C 0.09064 0.51078 0.90348 0.0
C900 C 0.0953 0.53954 0.90775 0.0
C901 C 0.0798 0.55043 0.93136 0.0
C902 C 0.06 0.53283 0.95109 0.0
C903 C 0.0559 0.5035 0.94647 0.0
H904 H 0.63436 0.89446 0.939 0.0
H905 H 0.55724 0.84341 0.89959 0.0
H906 H 0.52779 0.87789 0.91689 0.0
H907 H 0.59819 0.91642 1.00559 0.0
H908 H 0.62047 0.95094 1.0059 0.0
H909 H 0.63509 0.92224 0.99015 0.0
H910 H 0.64723 0.9489 0.93913 0.0
H911 H 0.63233 0.97757 0.95464 0.0
H912 H 0.61854 0.96092 0.9195 0.0
H913 H 0.50706 0.91846 0.93816 0.0
H914 H 0.49581 0.95979 0.96525 0.0
H915 H 0.58687 0.98399 0.99042 0.0
C916 C 0.6113 0.89059 0.9339 0.0
C917 C 0.59807 0.86632 0.91788 0.0
C918 C 0.56773 0.86176 0.91208 0.0
C919 C 0.55092 0.88132 0.92157 0.0
C920 C 0.56478 0.90524 0.93692 0.0
C921 C 0.59423 0.90979 0.94328 0.0
C922 C 0.60377 0.93675 0.96081 0.0
C923 C 0.61503 0.93125 0.99249 0.0
C924 C 0.62683 0.95724 0.94241 0.0
C925 C 0.57506 0.9467 0.9634 0.0
C926 C 0.55286 0.92837 0.94931 0.0
C927 C 0.52429 0.93296 0.94924 0.0
C928 C 0.51814 0.95657 0.96462 0.0
C929 C 0.54044 0.9752 0.97996 0.0
C930 C 0.56933 0.97031 0.97879 0.0
H931 H 0.84847 0.11592 0.4913 0.0
H932 H 0.91219 0.17617 0.44083 0.0
H933 H 0.95009 0.14844 0.44999 0.0
H934 H 0.89419 0.10363 0.54889 0.0
H935 H 0.8796 0.06683 0.55191 0.0
H936 H 0.85691 0.08979 0.53861 0.0
H937 H 0.84683 0.06015 0.48906 0.0
H938 H 0.86954 0.03705 0.50224 0.0
H939 H 0.87715 0.05362 0.46556 0.0
H940 H 0.98197 0.11816 0.4706 0.0
H941 H 1.00549 0.08567 0.49897 0.0
H942 H 0.92057 0.04307 0.53314 0.0
C943 C 0.87034 0.12302 0.48191 0.0
C944 C 0.87759 0.14808 0.46542 0.0
C945 C 0.90631 0.15684 0.45332 0.0
C946 C 0.92789 0.14126 0.4584 0.0
C947 C 0.92015 0.1168 0.47513 0.0
C948 C 0.892 0.10751 0.48638 0.0
C949 C 0.88977 0.08126 0.50489 0.0
C950 C 0.87952 0.08566 0.53803 0.0
C951 C 0.86963 0.05656 0.48951 0.0
C952 C 0.92133 0.07788 0.50334 0.0
C953 C 0.93845 0.09853 0.48592 0.0
C954 C 0.96873 0.10142 0.48357 0.0
C955 C 0.98188 0.08285 0.49969 0.0
C956 C 0.96473 0.06154 0.51755 0.0
C957 C 0.93407 0.05877 0.51899 0.0
H958 H 0.22184 0.60029 0.15745 0.0
H959 H 0.24385 0.67995 0.11143 0.0
H960 H 0.19988 0.6673 0.08047 0.0
H961 H 0.193 0.5598 0.0902 0.0
H962 H 0.16372 0.53757 0.11088 0.0
H963 H 0.19713 0.5523 0.12993 0.0
H964 H 0.16766 0.57392 0.17145 0.0
H965 H 0.13416 0.55914 0.15262 0.0
H966 H 0.14319 0.59607 0.16014 0.0
H967 H 0.15359 0.64752 0.0552 0.0
H968 H 0.10694 0.62136 1.03635 0.0
H969 H 0.11291 0.55285 0.09643 0.0
C970 C 0.21732 0.61504 0.14087 0.0
C971 C 0.23672 0.64112 0.13677 0.0
C972 C 0.22988 0.65972 0.11474 0.0
C973 C 0.20478 0.65276 0.09707 0.0
C974 C 0.18641 0.62697 0.10136 0.0
C975 C 0.19223 0.60826 0.1226 0.0
C976 C 0.16843 0.58189 0.12223 0.0
C977 C 0.18135 0.55638 0.11275 0.0
C978 C 0.15241 0.5775 0.15347 0.0
C979 C 0.14835 0.58897 0.09772 0.0
C980 C 0.15936 0.61516 0.08617 0.0
C981 C 0.1448 0.62695 0.06399 0.0
C982 C 0.11815 0.61185 0.05345 0.0
C983 C 0.106 0.58495 0.06477 0.0
C984 C 0.12163 0.57323 0.08705 0.0
H985 H 0.31302 0.42511 0.60216 0.0
H986 H 0.32371 0.47657 0.68417 0.0
H987 H 0.37223 0.50062 0.66484 0.0
H988 H 0.38804 0.41747 0.59286 0.0
H989 H 0.38878 0.41987 0.55173 0.0
H990 H 0.35486 0.40656 0.57192 0.0
H991 H 0.33087 0.44367 0.54648 0.0
H992 H 0.36474 0.45711 0.52622 0.0
H993 H 0.34763 0.47998 0.55001 0.0
H994 H 0.42092 0.51752 0.63795 0.0
H995 H 0.46471 0.52809 0.60399 0.0
H996 H 0.42203 0.46843 0.53728 0.0
C997 C 0.32561 0.44143 0.61603 0.0
C998 C 0.31442 0.44892 0.64479 0.0
C999 C 0.33157 0.47059 0.66203 0.0
C1000 C 0.35927 0.48431 0.65128 0.0
C1001 C 0.36963 0.47648 0.62293 0.0
C1002 C 0.35323 0.45575 0.60535 0.0
C1003 C 0.36939 0.45181 0.57538 0.0
C1004 C 0.37563 0.42217 0.57283 0.0
C1005 C 0.35212 0.45855 0.5479 0.0
C1006 C 0.39752 0.47331 0.57904 0.0
C1007 C 0.39723 0.48714 0.60678 0.0
C1008 C 0.42118 0.50705 0.61602 0.0
C1009 C 0.44602 0.513 0.59651 0.0
C1010 C 0.4468 0.49951 0.56773 0.0
C1011 C 0.42203 0.47946 0.55891 0.0
H1012 H 0.79552 0.72126 0.93724 0.0
H1013 H 0.73733 0.64231 0.91936 0.0
H1014 H 0.77602 0.61737 0.93437 0.0
H1015 H 0.85999 0.7023 0.90803 0.0
H1016 H 0.8835 0.72128 0.93647 0.0
H1017 H 0.85074 0.73285 0.92608 0.0
H1018 H 0.83295 0.73064 0.98281 0.0
H1019 H 0.86582 0.71933 0.99344 0.0
H1020 H 0.83053 0.69874 1.00369 0.0
H1021 H 0.82198 0.60126 0.94928 0.0
H1022 H 0.87085 0.5951 0.96492 0.0
H1023 H 0.89876 0.68481 0.97254 0.0
C1024 C 0.79062 0.69871 0.93717 0.0
C1025 C 0.76331 0.68372 0.92731 0.0
C1026 C 0.75812 0.65422 0.92673 0.0
C1027 C 0.77993 0.63989 0.93527 0.0
C1028 C 0.80678 0.65537 0.94435 0.0
C1029 C 0.8121 0.68412 0.94554 0.0
C1030 C 0.84306 0.69591 0.95522 0.0
C1031 C 0.86033 0.71415 0.92994 0.0
C1032 C 0.84308 0.71211 0.9856 0.0
C1033 C 0.85441 0.6693 0.95914 0.0
C1034 C 0.83318 0.64613 0.95277 0.0
C1035 C 0.83874 0.61926 0.95439 0.0
C1036 C 0.86666 0.61599 0.96303 0.0
C1037 C 0.88869 0.63947 0.96992 0.0
C1038 C 0.88234 0.66643 0.96778 0.0
H1039 H 0.45861 0.834 0.13748 0.0
H1040 H 0.39048 0.86037 0.19311 0.0
H1041 H 0.40431 0.9077 0.17158 0.0
H1042 H 0.51184 0.89786 0.14548 0.0
H1043 H 0.52627 0.89679 0.10693 0.0
H1044 H 0.51044 0.86489 0.12616 0.0
H1045 H 0.47477 0.85117 0.08158 0.0
H1046 H 0.49041 0.88312 0.0623 0.0
H1047 H 0.45161 0.87467 0.07053 0.0
H1048 H 0.42515 0.95269 0.14243 0.0
H1049 H 0.45381 0.99159 0.11202 0.0
H1050 H 0.50961 0.93657 0.07712 0.0
C1051 C 0.44651 0.84969 0.14506 0.0
C1052 C 0.42335 0.84324 0.16711 0.0
C1053 C 0.40843 0.86466 0.17657 0.0
C1054 C 0.41602 0.89165 0.16426 0.0
C1055 C 0.43885 0.89726 0.14255 0.0
C1056 C 0.45408 0.87691 0.13328 0.0
C1057 C 0.47839 0.88857 0.11043 0.0
C1058 C 0.50852 0.88693 0.12301 0.0
C1059 C 0.47349 0.87348 0.07937 0.0
C1060 C 0.4745 0.91861 0.10826 0.0
C1061 C 0.45135 0.92318 0.12668 0.0
C1062 C 0.44339 0.94929 0.12807 0.0
C1063 C 0.45973 0.97129 0.11062 0.0
C1064 C 0.48405 0.96727 0.09226 0.0
C1065 C 0.49123 0.94042 0.09103 0.0
H1066 H 0.13243 0.23786 0.61872 0.0
H1067 H 0.08223 0.23051 0.70422 0.0
H1068 H 0.05964 0.18225 0.69068 0.0
H1069 H 0.07456 0.19733 0.57283 0.0
H1070 H 0.09888 0.18083 0.54957 0.0
H1071 H 0.11185 0.21491 0.56578 0.0
H1072 H 0.15393 0.1969 0.59135 0.0
H1073 H 0.14101 0.16277 0.57523 0.0
H1074 H 0.14548 0.167 0.61596 0.0
H1075 H 0.04315 0.13474 0.66931 0.0
H1076 H 0.03079 0.09127 0.64005 0.0
H1077 H 0.08947 0.1275 0.56605 0.0
C1078 C 0.11673 0.22604 0.6346 0.0
C1079 C 0.1091 0.23828 0.66265 0.0
C1080 C 0.08825 0.222 0.68254 0.0
C1081 C 0.0754 0.19439 0.6751 0.0
C1082 C 0.08328 0.18304 0.64746 0.0
C1083 C 0.10324 0.1983 0.62728 0.0
C1084 C 0.10703 0.18088 0.59869 0.0
C1085 C 0.09751 0.19429 0.57002 0.0
C1086 C 0.13875 0.17664 0.5951 0.0
C1087 C 0.08618 0.1535 0.60613 0.0
C1088 C 0.07301 0.15538 0.63455 0.0
C1089 C 0.05325 0.13307 0.64698 0.0
C1090 C 0.04642 0.10826 0.63 0.0
C1091 C 0.059 0.1055 0.60044 0.0
C1092 C 0.07934 0.12866 0.58845 0.0
H1093 H 0.71469 0.33143 0.54095 0.0
H1094 H 0.79041 0.38878 0.50518 0.0
H1095 H 0.76382 0.42746 0.51138 0.0
H1096 H 0.66668 0.35274 0.50103 0.0
H1097 H 0.63691 0.34983 0.52868 0.0
H1098 H 0.66397 0.32873 0.5324 0.0
H1099 H 0.67558 0.3479 0.58709 0.0
H1100 H 0.64778 0.36862 0.58406 0.0
H1101 H 0.68458 0.38498 0.59365 0.0
H1102 H 0.72589 0.45587 0.50722 0.0
H1103 H 0.68071 0.47269 0.49664 0.0
H1104 H 0.62911 0.3973 0.53579 0.0
C1105 C 0.72627 0.35243 0.53632 0.0
C1106 C 0.75462 0.35727 0.52289 0.0
C1107 C 0.76874 0.38479 0.51573 0.0
C1108 C 0.7538 0.40686 0.51926 0.0
C1109 C 0.72495 0.40105 0.53032 0.0
C1110 C 0.7115 0.37457 0.53948 0.0
C1111 C 0.67901 0.37265 0.54539 0.0
C1112 C 0.66061 0.34965 0.52568 0.0
C1113 C 0.67129 0.36829 0.57959 0.0
C1114 C 0.67587 0.40134 0.53547 0.0
C1115 C 0.70268 0.41769 0.52774 0.0
C1116 C 0.70488 0.44366 0.51424 0.0
C1117 C 0.67906 0.45301 0.50822 0.0
C1118 C 0.65138 0.4363 0.51543 0.0
C1119 C 0.64995 0.41049 0.52995 0.0
loop_
_geom_bond_atom_site_label_1
_geom_bond_atom_site_label_2
_geom_bond_distance
_geom_bond_site_symmetry_2
_ccdc_geom_bond_type
C0 C1 1.386 . S
C0 C2 1.397 . S
C0 H24 0.931 . S
C1 C0 1.386 . S
C1 C5 1.397 . S
C2 C0 1.397 . S
C2 C3 1.384 . S
C2 H25 0.930 . S
C3 C2 1.384 . S
C3 C4 1.377 . S
C3 C6 1.481 . S
C4 C3 1.377 . S
C4 C5 1.389 . S
C4 H26 0.929 . S
C5 C1 1.397 . S
C5 C4 1.389 . S
C5 H27 0.931 . S
C6 C3 1.481 . S
C6 C7 1.387 . S
C6 C11 1.390 . S
C7 C6 1.387 . S
C7 C8 1.401 . S
C7 H28 0.930 . S
C8 C7 1.401 . S
C8 C9 1.376 . S
C8 C17 1.511 . S
C9 C8 1.376 . S
C9 C10 1.392 . S
C9 H30 0.931 . S
C10 C9 1.392 . S
C10 C11 1.361 . S
C10 C12 1.500 . S
C11 C6 1.390 . S
C11 C10 1.361 . S
C11 H29 0.931 . S
C12 C10 1.500 . S
C12 C13 1.371 . S
C12 C14 1.365 . S
C13 C12 1.371 . S
C13 C23 1.386 . S
C13 H31 0.931 . S
C14 C12 1.365 . S
C14 C15 1.409 . S
C14 H32 0.929 . S
C15 C14 1.409 . S
C15 C16 1.380 . S
C15 H33 0.930 . S
C16 C15 1.380 . S
C16 C23 1.357 . S
C17 C8 1.511 . S
C17 C18 1.341 . S
C17 C19 1.371 . S
C18 C17 1.341 . S
C18 C22 1.394 . S
C18 H34 0.930 . S
C19 C17 1.371 . S
C19 C20 1.392 . S
C19 H35 0.931 . S
C20 C19 1.392 . S
C20 C21 1.331 . S
C20 H38 0.932 . S
C21 C20 1.331 . S
C21 C22 1.336 . S
C22 C18 1.394 . S
C22 C21 1.336 . S
C22 H37 0.929 . S
C23 C13 1.386 . S
C23 C16 1.357 . S
C23 H36 0.928 . S
H24 C0 0.931 . S
H25 C2 0.930 . S
H26 C4 0.929 . S
H27 C5 0.931 . S
H28 C7 0.930 . S
H29 C11 0.931 . S
H30 C9 0.931 . S
H31 C13 0.931 . S
H32 C14 0.929 . S
H33 C15 0.930 . S
H34 C18 0.930 . S
H35 C19 0.931 . S
H36 C23 0.928 . S
H37 C22 0.929 . S
H38 C20 0.932 . S
C39 C40 1.386 . S
C39 C41 1.397 . S
C39 H63 0.931 . S
C40 C39 1.386 . S
C40 C44 1.397 . S
C41 C39 1.397 . S
C41 C42 1.384 . S
C41 H64 0.930 . S
C42 C41 1.384 . S
C42 C43 1.377 . S
C42 C45 1.481 . S
C43 C42 1.377 . S
C43 C44 1.389 . S
C43 H65 0.929 . S
C44 C40 1.397 . S
C44 C43 1.389 . S
C44 H66 0.931 . S
C45 C42 1.481 . S
C45 C46 1.387 . S
C45 C50 1.390 . S
C46 C45 1.387 . S
C46 C47 1.401 . S
C46 H67 0.930 . S
C47 C46 1.401 . S
C47 C48 1.376 . S
C47 C56 1.511 . S
C48 C47 1.376 . S
C48 C49 1.392 . S
C48 H69 0.931 . S
C49 C48 1.392 . S
C49 C50 1.361 . S
C49 C51 1.500 . S
C50 C45 1.390 . S
C50 C49 1.361 . S
C50 H68 0.931 . S
C51 C49 1.500 . S
C51 C52 1.371 . S
C51 C53 1.365 . S
C52 C51 1.371 . S
C52 C62 1.386 . S
C52 H70 0.931 . S
C53 C51 1.365 . S
C53 C54 1.409 . S
C53 H71 0.929 . S
C54 C53 1.409 . S
C54 C55 1.380 . S
C54 H72 0.930 . S
C55 C54 1.380 . S
C55 C62 1.357 . S
C56 C47 1.511 . S
C56 C57 1.341 . S
C56 C58 1.371 . S
C57 C56 1.341 . S
C57 C61 1.394 . S
C57 H73 0.930 . S
C58 C56 1.371 . S
C58 C59 1.392 . S
C58 H74 0.931 . S
C59 C58 1.392 . S
C59 C60 1.331 . S
C59 H77 0.932 . S
C60 C59 1.331 . S
C60 C61 1.336 . S
C61 C57 1.394 . S
C61 C60 1.336 . S
C61 H76 0.929 . S
C62 C52 1.386 . S
C62 C55 1.357 . S
C62 H75 0.928 . S
H63 C39 0.931 . S
H64 C41 0.930 . S
H65 C43 0.929 . S
H66 C44 0.931 . S
H67 C46 0.930 . S
H68 C50 0.931 . S
H69 C48 0.931 . S
H70 C52 0.931 . S
H71 C53 0.929 . S
H72 C54 0.930 . S
H73 C57 0.930 . S
H74 C58 0.931 . S
H75 C62 0.928 . S
H76 C61 0.929 . S
H77 C59 0.932 . S
C78 C79 1.386 . S
C78 C80 1.397 . S
C78 H102 0.931 . S
C79 C78 1.386 . S
C79 C83 1.397 . S
C80 C78 1.397 . S
C80 C81 1.384 . S
C80 H103 0.930 . S
C81 C80 1.384 . S
C81 C82 1.377 . S
C81 C84 1.481 . S
C82 C81 1.377 . S
C82 C83 1.389 . S
C82 H104 0.929 . S
C83 C79 1.397 . S
C83 C82 1.389 . S
C83 H105 0.931 . S
C84 C81 1.481 . S
C84 C85 1.387 . S
C84 C89 1.390 . S
C85 C84 1.387 . S
C85 C86 1.401 . S
C85 H106 0.930 . S
C86 C85 1.401 . S
C86 C87 1.376 . S
C86 C95 1.511 . S
C87 C86 1.376 . S
C87 C88 1.392 . S
C87 H108 0.931 . S
C88 C87 1.392 . S
C88 C89 1.361 . S
C88 C90 1.500 . S
C89 C84 1.390 . S
C89 C88 1.361 . S
C89 H107 0.931 . S
C90 C88 1.500 . S
C90 C91 1.371 . S
C90 C92 1.365 . S
C91 C90 1.371 . S
C91 C101 1.386 . S
C91 H109 0.931 . S
C92 C90 1.365 . S
C92 C93 1.409 . S
C92 H110 0.929 . S
C93 C92 1.409 . S
C93 C94 1.380 . S
C93 H111 0.930 . S
C94 C93 1.380 . S
C94 C101 1.357 . S
C95 C86 1.511 . S
C95 C96 1.341 . S
C95 C97 1.371 . S
C96 C95 1.341 . S
C96 C100 1.394 . S
C96 H112 0.930 . S
C97 C95 1.371 . S
C97 C98 1.392 . S
C97 H113 0.931 . S
C98 C97 1.392 . S
C98 C99 1.331 . S
C98 H116 0.932 . S
C99 C98 1.331 . S
C99 C100 1.336 . S
C100 C96 1.394 . S
C100 C99 1.336 . S
C100 H115 0.929 . S
C101 C91 1.386 . S
C101 C94 1.357 . S
C101 H114 0.928 . S
H102 C78 0.931 . S
H103 C80 0.930 . S
H104 C82 0.929 . S
H105 C83 0.931 . S
H106 C85 0.930 . S
H107 C89 0.931 . S
H108 C87 0.931 . S
H109 C91 0.931 . S
H110 C92 0.929 . S
H111 C93 0.930 . S
H112 C96 0.930 . S
H113 C97 0.931 . S
H114 C101 0.928 . S
H115 C100 0.929 . S
H116 C98 0.932 . S
C117 C118 1.386 . S
C117 C119 1.397 . S
C117 H141 0.931 . S
C118 C117 1.386 . S
C118 C122 1.397 . S
C119 C117 1.397 . S
C119 C120 1.384 . S
C119 H142 0.930 . S
C120 C119 1.384 . S
C120 C121 1.377 . S
C120 C123 1.481 . S
C121 C120 1.377 . S
C121 C122 1.389 . S
C121 H143 0.929 . S
C122 C118 1.397 . S
C122 C121 1.389 . S
C122 H144 0.931 . S
C123 C120 1.481 . S
C123 C124 1.387 . S
C123 C128 1.390 . S
C124 C123 1.387 . S
C124 C125 1.401 . S
C124 H145 0.930 . S
C125 C124 1.401 . S
C125 C126 1.376 . S
C125 C134 1.511 . S
C126 C125 1.376 . S
C126 C127 1.392 . S
C126 H147 0.931 . S
C127 C126 1.392 . S
C127 C128 1.361 . S
C127 C129 1.500 . S
C128 C123 1.390 . S
C128 C127 1.361 . S
C128 H146 0.931 . S
C129 C127 1.500 . S
C129 C130 1.371 . S
C129 C131 1.365 . S
C130 C129 1.371 . S
C130 C140 1.386 . S
C130 H148 0.931 . S
C131 C129 1.365 . S
C131 C132 1.409 . S
C131 H149 0.929 . S
C132 C131 1.409 . S
C132 C133 1.380 . S
C132 H150 0.930 . S
C133 C132 1.380 . S
C133 C140 1.357 . S
C134 C125 1.511 . S
C134 C135 1.341 . S
C134 C136 1.371 . S
C135 C134 1.341 . S
C135 C139 1.394 . S
C135 H151 0.930 . S
C136 C134 1.371 . S
C136 C137 1.392 . S
C136 H152 0.931 . S
C137 C136 1.392 . S
C137 C138 1.331 . S
C137 H155 0.932 . S
C138 C137 1.331 . S
C138 C139 1.336 . S
C139 C135 1.394 . S
C139 C138 1.336 . S
C139 H154 0.929 . S
C140 C130 1.386 . S
C140 C133 1.357 . S
C140 H153 0.928 . S
H141 C117 0.931 . S
H142 C119 0.930 . S
H143 C121 0.929 . S
H144 C122 0.931 . S
H145 C124 0.930 . S
H146 C128 0.931 . S
H147 C126 0.931 . S
H148 C130 0.931 . S
H149 C131 0.929 . S
H150 C132 0.930 . S
H151 C135 0.930 . S
H152 C136 0.931 . S
H153 C140 0.928 . S
H154 C139 0.929 . S
H155 C137 0.932 . S
C156 C157 1.386 . S
C156 C158 1.397 . S
C156 H180 0.931 . S
C157 C156 1.386 . S
C157 C161 1.397 . S
C158 C156 1.397 . S
C158 C159 1.384 . S
C158 H181 0.930 . S
C159 C158 1.384 . S
C159 C160 1.377 . S
C159 C162 1.481 . S
C160 C159 1.377 . S
C160 C161 1.389 . S
C160 H182 0.929 . S
C161 C157 1.397 . S
C161 C160 1.389 . S
C161 H183 0.931 . S
C162 C159 1.481 . S
C162 C163 1.387 . S
C162 C167 1.390 . S
C163 C162 1.387 . S
C163 C164 1.401 . S
C163 H184 0.930 . S
C164 C163 1.401 . S
C164 C165 1.376 . S
C164 C173 1.511 . S
C165 C164 1.376 . S
C165 C166 1.392 . S
C165 H186 0.931 . S
C166 C165 1.392 . S
C166 C167 1.361 . S
C166 C168 1.500 . S
C167 C162 1.390 . S
C167 C166 1.361 . S
C167 H185 0.931 . S
C168 C166 1.500 . S
C168 C169 1.371 . S
C168 C170 1.365 . S
C169 C168 1.371 . S
C169 C179 1.386 . S
C169 H187 0.931 . S
C170 C168 1.365 . S
C170 C171 1.409 . S
C170 H188 0.929 . S
C171 C170 1.409 . S
C171 C172 1.380 . S
C171 H189 0.930 . S
C172 C171 1.380 . S
C172 C179 1.357 . S
C173 C164 1.511 . S
C173 C174 1.341 . S
C173 C175 1.371 . S
C174 C173 1.341 . S
C174 C178 1.394 . S
C174 H190 0.930 . S
C175 C173 1.371 . S
C175 C176 1.392 . S
C175 H191 0.931 . S
C176 C175 1.392 . S
C176 C177 1.331 . S
C176 H194 0.932 . S
C177 C176 1.331 . S
C177 C178 1.336 . S
C178 C174 1.394 . S
C178 C177 1.336 . S
C178 H193 0.929 . S
C179 C169 1.386 . S
C179 C172 1.357 . S
C179 H192 0.928 . S
H180 C156 0.931 . S
H181 C158 0.930 . S
H182 C160 0.929 . S
H183 C161 0.931 . S
H184 C163 0.930 . S
H185 C167 0.931 . S
H186 C165 0.931 . S
H187 C169 0.931 . S
H188 C170 0.929 . S
H189 C171 0.930 . S
H190 C174 0.930 . S
H191 C175 0.931 . S
H192 C179 0.928 . S
H193 C178 0.929 . S
H194 C176 0.932 . S
C195 C196 1.386 . S
C195 C197 1.397 . S
C195 H219 0.931 . S
C196 C195 1.386 . S
C196 C200 1.397 . S
C197 C195 1.397 . S
C197 C198 1.384 . S
C197 H220 0.930 . S
C198 C197 1.384 . S
C198 C199 1.377 . S
C198 C201 1.481 . S
C199 C198 1.377 . S
C199 C200 1.389 . S
C199 H221 0.929 . S
C200 C196 1.397 . S
C200 C199 1.389 . S
C200 H222 0.931 . S
C201 C198 1.481 . S
C201 C202 1.387 . S
C201 C206 1.390 . S
C202 C201 1.387 . S
C202 C203 1.401 . S
C202 H223 0.930 . S
C203 C202 1.401 . S
C203 C204 1.376 . S
C203 C212 1.511 . S
C204 C203 1.376 . S
C204 C205 1.392 . S
C204 H225 0.931 . S
C205 C204 1.392 . S
C205 C206 1.361 . S
C205 C207 1.500 . S
C206 C201 1.390 . S
C206 C205 1.361 . S
C206 H224 0.931 . S
C207 C205 1.500 . S
C207 C208 1.371 . S
C207 C209 1.365 . S
C208 C207 1.371 . S
C208 C218 1.386 . S
C208 H226 0.931 . S
C209 C207 1.365 . S
C209 C210 1.409 . S
C209 H227 0.929 . S
C210 C209 1.409 . S
C210 C211 1.380 . S
C210 H228 0.930 . S
C211 C210 1.380 . S
C211 C218 1.357 . S
C212 C203 1.511 . S
C212 C213 1.341 . S
C212 C214 1.371 . S
C213 C212 1.341 . S
C213 C217 1.394 . S
C213 H229 0.930 . S
C214 C212 1.371 . S
C214 C215 1.392 . S
C214 H230 0.931 . S
C215 C214 1.392 . S
C215 C216 1.331 . S
C215 H233 0.932 . S
C216 C215 1.331 . S
C216 C217 1.336 . S
C217 C213 1.394 . S
C217 C216 1.336 . S
C217 H232 0.929 . S
C218 C208 1.386 . S
C218 C211 1.357 . S
C218 H231 0.928 . S
H219 C195 0.931 . S
H220 C197 0.930 . S
H221 C199 0.929 . S
H222 C200 0.931 . S
H223 C202 0.930 . S
H224 C206 0.931 . S
H225 C204 0.931 . S
H226 C208 0.931 . S
H227 C209 0.929 . S
H228 C210 0.930 . S
H229 C213 0.930 . S
H230 C214 0.931 . S
H231 C218 0.928 . S
H232 C217 0.929 . S
H233 C215 0.932 . S
C234 C235 1.386 . S
C234 C236 1.397 . S
C234 H258 0.931 . S
C235 C234 1.386 . S
C235 C239 1.397 . S
C236 C234 1.397 . S
C236 C237 1.384 . S
C236 H259 0.930 . S
C237 C236 1.384 . S
C237 C238 1.377 . S
C237 C240 1.481 . S
C238 C237 1.377 . S
C238 C239 1.389 . S
C238 H260 0.929 . S
C239 C235 1.397 . S
C239 C238 1.389 . S
C239 H261 0.931 . S
C240 C237 1.481 . S
C240 C241 1.387 . S
C240 C245 1.390 . S
C241 C240 1.387 . S
C241 C242 1.401 . S
C241 H262 0.930 . S
C242 C241 1.401 . S
C242 C243 1.376 . S
C242 C251 1.511 . S
C243 C242 1.376 . S
C243 C244 1.392 . S
C243 H264 0.931 . S
C244 C243 1.392 . S
C244 C245 1.361 . S
C244 C246 1.500 . S
C245 C240 1.390 . S
C245 C244 1.361 . S
C245 H263 0.931 . S
C246 C244 1.500 . S
C246 C247 1.371 . S
C246 C248 1.365 . S
C247 C246 1.371 . S
C247 C257 1.386 . S
C247 H265 0.931 . S
C248 C246 1.365 . S
C248 C249 1.409 . S
C248 H266 0.929 . S
C249 C248 1.409 . S
C249 C250 1.380 . S
C249 H267 0.930 . S
C250 C249 1.380 . S
C250 C257 1.357 . S
C251 C242 1.511 . S
C251 C252 1.341 . S
C251 C253 1.371 . S
C252 C251 1.341 . S
C252 C256 1.394 . S
C252 H268 0.930 . S
C253 C251 1.371 . S
C253 C254 1.392 . S
C253 H269 0.931 . S
C254 C253 1.392 . S
C254 C255 1.331 . S
C254 H272 0.932 . S
C255 C254 1.331 . S
C255 C256 1.336 . S
C256 C252 1.394 . S
C256 C255 1.336 . S
C256 H271 0.929 . S
C257 C247 1.386 . S
C257 C250 1.357 . S
C257 H270 0.928 . S
H258 C234 0.931 . S
H259 C236 0.930 . S
H260 C238 0.929 . S
H261 C239 0.931 . S
H262 C241 0.930 . S
H263 C245 0.931 . S
H264 C243 0.931 . S
H265 C247 0.931 . S
H266 C248 0.929 . S
H267 C249 0.930 . S
H268 C252 0.930 . S
H269 C253 0.931 . S
H270 C257 0.928 . S
H271 C256 0.929 . S
H272 C254 0.932 . S
C273 C274 1.386 . S
C273 C275 1.397 . S
C273 H297 0.931 . S
C274 C273 1.386 . S
C274 C278 1.397 . S
C275 C273 1.397 . S
C275 C276 1.384 . S
C275 H298 0.930 . S
C276 C275 1.384 . S
C276 C277 1.377 . S
C276 C279 1.481 . S
C277 C276 1.377 . S
C277 C278 1.389 . S
C277 H299 0.929 . S
C278 C274 1.397 . S
C278 C277 1.389 . S
C278 H300 0.931 . S
C279 C276 1.481 . S
C279 C280 1.387 . S
C279 C284 1.390 . S
C280 C279 1.387 . S
C280 C281 1.401 . S
C280 H301 0.930 . S
C281 C280 1.401 . S
C281 C282 1.376 . S
C281 C290 1.511 . S
C282 C281 1.376 . S
C282 C283 1.392 . S
C282 H303 0.931 . S
C283 C282 1.392 . S
C283 C284 1.361 . S
C283 C285 1.500 . S
C284 C279 1.390 . S
C284 C283 1.361 . S
C284 H302 0.931 . S
C285 C283 1.500 . S
C285 C286 1.371 . S
C285 C287 1.365 . S
C286 C285 1.371 . S
C286 C296 1.386 . S
C286 H304 0.931 . S
C287 C285 1.365 . S
C287 C288 1.409 . S
C287 H305 0.929 . S
C288 C287 1.409 . S
C288 C289 1.380 . S
C288 H306 0.930 . S
C289 C288 1.380 . S
C289 C296 1.357 . S
C290 C281 1.511 . S
C290 C291 1.341 . S
C290 C292 1.371 . S
C291 C290 1.341 . S
C291 C295 1.394 . S
C291 H307 0.930 . S
C292 C290 1.371 . S
C292 C293 1.392 . S
C292 H308 0.931 . S
C293 C292 1.392 . S
C293 C294 1.331 . S
C293 H311 0.932 . S
C294 C293 1.331 . S
C294 C295 1.336 . S
C295 C291 1.394 . S
C295 C294 1.336 . S
C295 H310 0.929 . S
C296 C286 1.386 . S
C296 C289 1.357 . S
C296 H309 0.928 . S
H297 C273 0.931 . S
H298 C275 0.930 . S
H299 C277 0.929 . S
H300 C278 0.931 . S
H301 C280 0.930 . S
H302 C284 0.931 . S
H303 C282 0.931 . S
H304 C286 0.931 . S
H305 C287 0.929 . S
H306 C288 0.930 . S
H307 C291 0.930 . S
H308 C292 0.931 . S
H309 C296 0.928 . S
H310 C295 0.929 . S
H311 C293 0.932 . S
Gd312 C315 2.818 . S
Gd312 O332 2.377 . S
Gd312 O334 2.448 . S
Gd312 O335 2.506 . S
Gd312 O336 2.435 1_545 S
Gd312 O337 2.717 1_545 S
Gd312 O339 2.395 1_445 S
Gd312 O343 2.327 1_455 S
Gd313 C324 2.818 . S
Gd313 O333 2.395 1_665 S
Gd313 O337 2.327 1_655 S
Gd313 O338 2.377 . S
Gd313 O340 2.448 . S
Gd313 O341 2.506 . S
Gd313 O342 2.435 1_565 S
Gd313 O343 2.717 1_565 S
C314 O332 1.240 . S
C314 O333 1.240 . S
C315 Gd312 2.818 . S
C315 C316 1.510 . S
C315 O334 1.249 . S
C315 O335 1.252 . S
C316 C315 1.510 . S
C316 C317 1.404 . S
C316 C318 1.352 . S
C317 C316 1.404 . S
C317 C321 1.389 . S
C317 H344 0.930 . S
C318 C316 1.352 . S
C318 C320 1.374 . S
C318 H345 0.931 . S
C319 C320 1.359 . S
C319 C321 1.364 . S
C320 C318 1.374 . S
C320 C319 1.359 . S
C320 H346 0.931 . S
C321 C317 1.389 . S
C321 C319 1.364 . S
C321 H347 0.931 . S
C322 O336 1.256 . S
C322 O337 1.257 . S
C323 O338 1.240 . S
C323 O339 1.240 . S
C324 Gd313 2.818 . S
C324 C325 1.510 . S
C324 O340 1.249 . S
C324 O341 1.252 . S
C325 C324 1.510 . S
C325 C326 1.404 . S
C325 C327 1.352 . S
C326 C325 1.404 . S
C326 C330 1.389 . S
C326 H348 0.930 . S
C327 C325 1.352 . S
C327 C329 1.374 . S
C327 H349 0.931 . S
C328 C329 1.359 . S
C328 C330 1.364 . S
C329 C327 1.374 . S
C329 C328 1.359 . S
C329 H350 0.931 . S
C330 C326 1.389 . S
C330 C328 1.364 . S
C330 H351 0.931 . S
C331 O342 1.256 . S
C331 O343 1.257 . S
O332 Gd312 2.377 . S
O332 C314 1.240 . S
O333 Gd313 2.395 1_445 S
O333 C314 1.240 . S
O334 Gd312 2.448 . S
O334 C315 1.249 . S
O335 Gd312 2.506 . S
O335 C315 1.252 . S
O336 Gd312 2.435 1_565 S
O336 C322 1.256 . S
O337 Gd312 2.717 1_565 S
O337 Gd313 2.327 1_455 S
O337 C322 1.257 . S
O338 Gd313 2.377 . S
O338 C323 1.240 . S
O339 Gd312 2.395 1_665 S
O339 C323 1.240 . S
O340 Gd313 2.448 . S
O340 C324 1.249 . S
O341 Gd313 2.506 . S
O341 C324 1.252 . S
O342 Gd313 2.435 1_545 S
O342 C331 1.256 . S
O343 Gd312 2.327 1_655 S
O343 Gd313 2.717 1_545 S
O343 C331 1.257 . S
H344 C317 0.930 . S
H345 C318 0.931 . S
H346 C320 0.931 . S
H347 C321 0.931 . S
H348 C326 0.930 . S
H349 C327 0.931 . S
H350 C329 0.931 . S
H351 C330 0.931 . S
Gd352 C355 2.823 . S
Gd352 O372 2.382 . S
Gd352 O374 2.449 . S
Gd352 O375 2.513 . S
Gd352 O376 2.429 1_545 S
Gd352 O377 2.714 1_545 S
Gd352 O379 2.390 1_544 S
Gd352 O383 2.333 1_554 S
Gd353 C364 2.818 1_545 S
Gd353 O373 2.395 1_556 S
Gd353 O377 2.327 1_546 S
Gd353 O378 2.377 1_545 S
Gd353 O380 2.448 1_545 S
Gd353 O381 2.506 1_545 S
Gd353 O382 2.435 . S
Gd353 O383 2.717 . S
C354 O372 1.240 . S
C354 O373 1.240 . S
C355 Gd352 2.823 . S
C355 C356 1.510 . S
C355 O374 1.249 . S
C355 O375 1.252 . S
C356 C355 1.510 . S
C356 C357 1.404 . S
C356 C358 1.352 . S
C357 C356 1.404 . S
C357 C361 1.389 . S
C357 H384 0.930 . S
C358 C356 1.352 . S
C358 C360 1.374 . S
C358 H385 0.931 . S
C359 C360 1.359 . S
C359 C361 1.364 . S
C360 C358 1.374 . S
C360 C359 1.359 . S
C360 H386 0.931 . S
C361 C357 1.389 . S
C361 C359 1.364 . S
C361 H387 0.931 . S
C362 O376 1.256 . S
C362 O377 1.257 . S
C363 O378 1.240 . S
C363 O379 1.240 . S
C364 Gd353 2.818 1_565 S
C364 C365 1.510 . S
C364 O380 1.249 . S
C364 O381 1.252 . S
C365 C364 1.510 . S
C365 C366 1.404 . S
C365 C367 1.352 . S
C366 C365 1.404 . S
C366 C370 1.389 . S
C366 H388 0.930 . S
C367 C365 1.352 . S
C367 C369 1.374 . S
C367 H389 0.931 . S
C368 C369 1.359 . S
C368 C370 1.364 . S
C369 C367 1.374 . S
C369 C368 1.359 . S
C369 H390 0.931 . S
C370 C366 1.389 . S
C370 C368 1.364 . S
C370 H391 0.931 . S
C371 O382 1.256 . S
C371 O383 1.257 . S
O372 Gd352 2.382 . S
O372 C354 1.240 . S
O373 Gd353 2.395 1_554 S
O373 C354 1.240 . S
O374 Gd352 2.449 . S
O374 C355 1.249 . S
O375 Gd352 2.513 . S
O375 C355 1.252 . S
O376 Gd352 2.429 1_565 S
O376 C362 1.256 . S
O377 Gd352 2.714 1_565 S
O377 Gd353 2.327 1_564 S
O377 C362 1.257 . S
O378 Gd353 2.377 1_565 S
O378 C363 1.240 . S
O379 Gd352 2.390 1_566 S
O379 C363 1.240 . S
O380 Gd353 2.448 1_565 S
O380 C364 1.249 . S
O381 Gd353 2.506 1_565 S
O381 C364 1.252 . S
O382 Gd353 2.435 . S
O382 C371 1.256 . S
O383 Gd352 2.333 1_556 S
O383 Gd353 2.717 . S
O383 C371 1.257 . S
H384 C357 0.930 . S
H385 C358 0.931 . S
H386 C360 0.931 . S
H387 C361 0.931 . S
H388 C366 0.930 . S
H389 C367 0.931 . S
H390 C369 0.931 . S
H391 C370 0.931 . S
Gd392 C395 2.818 . S
Gd392 O412 2.377 . S
Gd392 O414 2.448 . S
Gd392 O415 2.506 . S
Gd392 O416 2.435 . S
Gd392 O417 2.717 . S
Gd392 O419 2.395 . S
Gd392 O423 2.327 . S
Gd393 C404 2.818 . S
Gd393 O413 2.395 . S
Gd393 O417 2.327 . S
Gd393 O418 2.377 . S
Gd393 O420 2.448 . S
Gd393 O421 2.506 . S
Gd393 O422 2.435 . S
Gd393 O423 2.717 . S
C394 O412 1.240 . S
C394 O413 1.240 . S
C395 Gd392 2.818 . S
C395 C396 1.510 . S
C395 O414 1.249 . S
C395 O415 1.252 . S
C396 C395 1.510 . S
C396 C397 1.404 . S
C396 C398 1.352 . S
C397 C396 1.404 . S
C397 C401 1.389 . S
C397 H424 0.930 . S
C398 C396 1.352 . S
C398 C400 1.374 . S
C398 H425 0.931 . S
C399 C400 1.359 . S
C399 C401 1.364 . S
C400 C398 1.374 . S
C400 C399 1.359 . S
C400 H426 0.931 . S
C401 C397 1.389 . S
C401 C399 1.364 . S
C401 H427 0.931 . S
C402 O416 1.256 . S
C402 O417 1.257 . S
C403 O418 1.240 . S
C403 O419 1.240 . S
C404 Gd393 2.818 . S
C404 C405 1.510 . S
C404 O420 1.249 . S
C404 O421 1.252 . S
C405 C404 1.510 . S
C405 C406 1.404 . S
C405 C407 1.352 . S
C406 C405 1.404 . S
C406 C410 1.389 . S
C406 H428 0.930 . S
C407 C405 1.352 . S
C407 C409 1.374 . S
C407 H429 0.931 . S
C408 C409 1.359 . S
C408 C410 1.364 . S
C409 C407 1.374 . S
C409 C408 1.359 . S
C409 H430 0.931 . S
C410 C406 1.389 . S
C410 C408 1.364 . S
C410 H431 0.931 . S
C411 O422 1.256 . S
C411 O423 1.257 . S
O412 Gd392 2.377 . S
O412 C394 1.240 . S
O413 Gd393 2.395 . S
O413 C394 1.240 . S
O414 Gd392 2.448 . S
O414 C395 1.249 . S
O415 Gd392 2.506 . S
O415 C395 1.252 . S
O416 Gd392 2.435 . S
O416 C402 1.256 . S
O417 Gd392 2.717 . S
O417 Gd393 2.327 . S
O417 C402 1.257 . S
O418 Gd393 2.377 . S
O418 C403 1.240 . S
O419 Gd392 2.395 . S
O419 C403 1.240 . S
O420 Gd393 2.448 . S
O420 C404 1.249 . S
O421 Gd393 2.506 . S
O421 C404 1.252 . S
O422 Gd393 2.435 . S
O422 C411 1.256 . S
O423 Gd392 2.327 . S
O423 Gd393 2.717 . S
O423 C411 1.257 . S
H424 C397 0.930 . S
H425 C398 0.931 . S
H426 C400 0.931 . S
H427 C401 0.931 . S
H428 C406 0.930 . S
H429 C407 0.931 . S
H430 C409 0.931 . S
H431 C410 0.931 . S
Gd432 C435 2.818 . S
Gd432 O452 2.377 . S
Gd432 O454 2.448 . S
Gd432 O455 2.506 . S
Gd432 O456 2.435 1_455 S
Gd432 O457 2.717 1_455 S
Gd432 O459 2.395 1_454 S
Gd432 O463 2.327 1_554 S
Gd433 C444 2.818 . S
Gd433 O453 2.395 1_656 S
Gd433 O457 2.327 1_556 S
Gd433 O458 2.377 . S
Gd433 O460 2.448 . S
Gd433 O461 2.506 . S
Gd433 O462 2.435 1_655 S
Gd433 O463 2.717 1_655 S
C434 O452 1.240 . S
C434 O453 1.240 . S
C435 Gd432 2.818 . S
C435 C436 1.510 . S
C435 O454 1.249 . S
C435 O455 1.252 . S
C436 C435 1.510 . S
C436 C437 1.404 . S
C436 C438 1.352 . S
C437 C436 1.404 . S
C437 C441 1.389 . S
C437 H464 0.930 . S
C438 C436 1.352 . S
C438 C440 1.374 . S
C438 H465 0.931 . S
C439 C440 1.359 . S
C439 C441 1.364 . S
C440 C438 1.374 . S
C440 C439 1.359 . S
C440 H466 0.931 . S
C441 C437 1.389 . S
C441 C439 1.364 . S
C441 H467 0.931 . S
C442 O456 1.256 . S
C442 O457 1.257 . S
C443 O458 1.240 . S
C443 O459 1.240 . S
C444 Gd433 2.818 . S
C444 C445 1.510 . S
C444 O460 1.249 . S
C444 O461 1.252 . S
C445 C444 1.510 . S
C445 C446 1.404 . S
C445 C447 1.352 . S
C446 C445 1.404 . S
C446 C450 1.389 . S
C446 H468 0.930 . S
C447 C445 1.352 . S
C447 C449 1.374 . S
C447 H469 0.931 . S
C448 C449 1.359 . S
C448 C450 1.364 . S
C449 C447 1.374 . S
C449 C448 1.359 . S
C449 H470 0.931 . S
C450 C446 1.389 . S
C450 C448 1.364 . S
C450 H471 0.931 . S
C451 O462 1.256 . S
C451 O463 1.257 . S
O452 Gd432 2.377 . S
O452 C434 1.240 . S
O453 Gd433 2.395 1_454 S
O453 C434 1.240 . S
O454 Gd432 2.448 . S
O454 C435 1.249 . S
O455 Gd432 2.506 . S
O455 C435 1.252 . S
O456 Gd432 2.435 1_655 S
O456 C442 1.256 . S
O457 Gd432 2.717 1_655 S
O457 Gd433 2.327 1_554 S
O457 C442 1.257 . S
O458 Gd433 2.377 . S
O458 C443 1.240 . S
O459 Gd432 2.395 1_656 S
O459 C443 1.240 . S
O460 Gd433 2.448 . S
O460 C444 1.249 . S
O461 Gd433 2.506 . S
O461 C444 1.252 . S
O462 Gd433 2.435 1_455 S
O462 C451 1.256 . S
O463 Gd432 2.327 1_556 S
O463 Gd433 2.717 1_455 S
O463 C451 1.257 . S
H464 C437 0.930 . S
H465 C438 0.931 . S
H466 C440 0.931 . S
H467 C441 0.931 . S
H468 C446 0.930 . S
H469 C447 0.931 . S
H470 C449 0.931 . S
H471 C450 0.931 . S
H472 C484 0.930 . S
H473 C486 0.930 . S
H474 C487 0.930 . S
H475 C491 0.959 . S
H476 C491 0.959 . S
H477 C491 0.961 . S
H478 C492 0.960 . S
H479 C492 0.961 . S
H480 C492 0.959 . S
H481 C495 0.929 . S
H482 C496 0.931 . S
H483 C498 0.930 . S
C484 H472 0.930 . S
C484 C485 1.399 . S
C484 C489 1.399 . S
C485 C484 1.399 . S
C485 C486 1.376 . S
C486 H473 0.930 . S
C486 C485 1.376 . S
C486 C487 1.388 . S
C487 H474 0.930 . S
C487 C486 1.388 . S
C487 C488 1.390 . S
C488 C487 1.390 . S
C488 C489 1.394 . S
C488 C494 1.465 . S
C489 C484 1.399 . S
C489 C488 1.394 . S
C489 C490 1.516 . S
C490 C489 1.516 . S
C490 C491 1.502 . S
C490 C492 1.561 . S
C490 C493 1.526 . S
C491 H475 0.959 . S
C491 H476 0.959 . S
C491 H477 0.961 . S
C491 C490 1.502 . S
C492 H478 0.960 . S
C492 H479 0.961 . S
C492 H480 0.959 . S
C492 C490 1.561 . S
C493 C490 1.526 . S
C493 C494 1.396 . S
C493 C498 1.390 . S
C494 C488 1.465 . S
C494 C493 1.396 . S
C494 C495 1.399 . S
C495 H481 0.929 . S
C495 C494 1.399 . S
C495 C496 1.385 . S
C496 H482 0.931 . S
C496 C495 1.385 . S
C496 C497 1.389 . S
C497 C496 1.389 . S
C497 C498 1.387 . S
C498 H483 0.930 . S
C498 C493 1.390 . S
C498 C497 1.387 . S
H499 C511 0.930 . S
H500 C513 0.930 . S
H501 C514 0.930 . S
H502 C518 0.959 . S
H503 C518 0.959 . S
H504 C518 0.961 . S
H505 C519 0.960 . S
H506 C519 0.961 . S
H507 C519 0.959 . S
H508 C522 0.929 . S
H509 C523 0.931 . S
H510 C525 0.930 . S
C511 H499 0.930 . S
C511 C512 1.399 . S
C511 C516 1.399 . S
C512 C511 1.399 . S
C512 C513 1.376 . S
C513 H500 0.930 . S
C513 C512 1.376 . S
C513 C514 1.388 . S
C514 H501 0.930 . S
C514 C513 1.388 . S
C514 C515 1.390 . S
C515 C514 1.390 . S
C515 C516 1.394 . S
C515 C521 1.465 . S
C516 C511 1.399 . S
C516 C515 1.394 . S
C516 C517 1.516 . S
C517 C516 1.516 . S
C517 C518 1.502 . S
C517 C519 1.561 . S
C517 C520 1.526 . S
C518 H502 0.959 . S
C518 H503 0.959 . S
C518 H504 0.961 . S
C518 C517 1.502 . S
C519 H505 0.960 . S
C519 H506 0.961 . S
C519 H507 0.959 . S
C519 C517 1.561 . S
C520 C517 1.526 . S
C520 C521 1.396 . S
C520 C525 1.390 . S
C521 C515 1.465 . S
C521 C520 1.396 . S
C521 C522 1.399 . S
C522 H508 0.929 . S
C522 C521 1.399 . S
C522 C523 1.385 . S
C523 H509 0.931 . S
C523 C522 1.385 . S
C523 C524 1.389 . S
C524 C523 1.389 . S
C524 C525 1.387 . S
C525 H510 0.930 . S
C525 C520 1.390 . S
C525 C524 1.387 . S
H526 C538 0.930 . S
H527 C540 0.930 . S
H528 C541 0.930 . S
H529 C545 0.959 . S
H530 C545 0.959 . S
H531 C545 0.961 . S
H532 C546 0.960 . S
H533 C546 0.961 . S
H534 C546 0.959 . S
H535 C549 0.929 . S
H536 C550 0.931 . S
H537 C552 0.930 . S
C538 H526 0.930 . S
C538 C539 1.399 . S
C538 C543 1.399 . S
C539 C538 1.399 . S
C539 C540 1.376 . S
C540 H527 0.930 . S
C540 C539 1.376 . S
C540 C541 1.388 . S
C541 H528 0.930 . S
C541 C540 1.388 . S
C541 C542 1.390 . S
C542 C541 1.390 . S
C542 C543 1.394 . S
C542 C548 1.465 . S
C543 C538 1.399 . S
C543 C542 1.394 . S
C543 C544 1.516 . S
C544 C543 1.516 . S
C544 C545 1.502 . S
C544 C546 1.561 . S
C544 C547 1.526 . S
C545 H529 0.959 . S
C545 H530 0.959 . S
C545 H531 0.961 . S
C545 C544 1.502 . S
C546 H532 0.960 . S
C546 H533 0.961 . S
C546 H534 0.959 . S
C546 C544 1.561 . S
C547 C544 1.526 . S
C547 C548 1.396 . S
C547 C552 1.390 . S
C548 C542 1.465 . S
C548 C547 1.396 . S
C548 C549 1.399 . S
C549 H535 0.929 . S
C549 C548 1.399 . S
C549 C550 1.385 . S
C550 H536 0.931 . S
C550 C549 1.385 . S
C550 C551 1.389 . S
C551 C550 1.389 . S
C551 C552 1.387 . S
C552 H537 0.930 . S
C552 C547 1.390 . S
C552 C551 1.387 . S
H553 C565 0.930 . S
H554 C567 0.930 . S
H555 C568 0.930 . S
H556 C572 0.959 . S
H557 C572 0.959 . S
H558 C572 0.961 . S
H559 C573 0.960 . S
H560 C573 0.961 . S
H561 C573 0.959 . S
H562 C576 0.929 . S
H563 C577 0.931 . S
H564 C579 0.930 . S
C565 H553 0.930 . S
C565 C566 1.399 . S
C565 C570 1.399 . S
C566 C565 1.399 . S
C566 C567 1.376 . S
C567 H554 0.930 . S
C567 C566 1.376 . S
C567 C568 1.388 . S
C568 H555 0.930 . S
C568 C567 1.388 . S
C568 C569 1.390 . S
C569 C568 1.390 . S
C569 C570 1.394 . S
C569 C575 1.465 . S
C570 C565 1.399 . S
C570 C569 1.394 . S
C570 C571 1.516 . S
C571 C570 1.516 . S
C571 C572 1.502 . S
C571 C573 1.561 . S
C571 C574 1.526 . S
C572 H556 0.959 . S
C572 H557 0.959 . S
C572 H558 0.961 . S
C572 C571 1.502 . S
C573 H559 0.960 . S
C573 H560 0.961 . S
C573 H561 0.959 . S
C573 C571 1.561 . S
C574 C571 1.526 . S
C574 C575 1.396 . S
C574 C579 1.390 . S
C575 C569 1.465 . S
C575 C574 1.396 . S
C575 C576 1.399 . S
C576 H562 0.929 . S
C576 C575 1.399 . S
C576 C577 1.385 . S
C577 H563 0.931 . S
C577 C576 1.385 . S
C577 C578 1.389 . S
C578 C577 1.389 . S
C578 C579 1.387 . S
C579 H564 0.930 . S
C579 C574 1.390 . S
C579 C578 1.387 . S
H580 C592 0.930 . S
H581 C594 0.930 . S
H582 C595 0.930 . S
H583 C599 0.959 . S
H584 C599 0.959 . S
H585 C599 0.961 . S
H586 C600 0.960 . S
H587 C600 0.961 . S
H588 C600 0.959 . S
H589 C603 0.929 . S
H590 C604 0.931 . S
H591 C606 0.930 . S
C592 H580 0.930 . S
C592 C593 1.399 . S
C592 C597 1.399 . S
C593 C592 1.399 . S
C593 C594 1.376 . S
C594 H581 0.930 . S
C594 C593 1.376 . S
C594 C595 1.388 . S
C595 H582 0.930 . S
C595 C594 1.388 . S
C595 C596 1.390 . S
C596 C595 1.390 . S
C596 C597 1.394 . S
C596 C602 1.465 . S
C597 C592 1.399 . S
C597 C596 1.394 . S
C597 C598 1.516 . S
C598 C597 1.516 . S
C598 C599 1.502 . S
C598 C600 1.561 . S
C598 C601 1.526 . S
C599 H583 0.959 . S
C599 H584 0.959 . S
C599 H585 0.961 . S
C599 C598 1.502 . S
C600 H586 0.960 . S
C600 H587 0.961 . S
C600 H588 0.959 . S
C600 C598 1.561 . S
C601 C598 1.526 . S
C601 C602 1.396 . S
C601 C606 1.390 . S
C602 C596 1.465 . S
C602 C601 1.396 . S
C602 C603 1.399 . S
C603 H589 0.929 . S
C603 C602 1.399 . S
C603 C604 1.385 . S
C604 H590 0.931 . S
C604 C603 1.385 . S
C604 C605 1.389 . S
C605 C604 1.389 . S
C605 C606 1.387 . S
C606 H591 0.930 . S
C606 C601 1.390 . S
C606 C605 1.387 . S
H607 C619 0.930 . S
H608 C621 0.930 . S
H609 C622 0.930 . S
H610 C626 0.959 . S
H611 C626 0.959 . S
H612 C626 0.961 . S
H613 C627 0.960 . S
H614 C627 0.961 . S
H615 C627 0.959 . S
H616 C630 0.929 . S
H617 C631 0.931 . S
H618 C633 0.930 . S
C619 H607 0.930 . S
C619 C620 1.399 . S
C619 C624 1.399 . S
C620 C619 1.399 . S
C620 C621 1.376 . S
C621 H608 0.930 . S
C621 C620 1.376 . S
C621 C622 1.388 . S
C622 H609 0.930 . S
C622 C621 1.388 . S
C622 C623 1.390 . S
C623 C622 1.390 . S
C623 C624 1.394 . S
C623 C629 1.465 . S
C624 C619 1.399 . S
C624 C623 1.394 . S
C624 C625 1.516 . S
C625 C624 1.516 . S
C625 C626 1.502 . S
C625 C627 1.561 . S
C625 C628 1.526 . S
C626 H610 0.959 . S
C626 H611 0.959 . S
C626 H612 0.961 . S
C626 C625 1.502 . S
C627 H613 0.960 . S
C627 H614 0.961 . S
C627 H615 0.959 . S
C627 C625 1.561 . S
C628 C625 1.526 . S
C628 C629 1.396 . S
C628 C633 1.390 . S
C629 C623 1.465 . S
C629 C628 1.396 . S
C629 C630 1.399 . S
C630 H616 0.929 . S
C630 C629 1.399 . S
C630 C631 1.385 . S
C631 H617 0.931 . S
C631 C630 1.385 . S
C631 C632 1.389 . S
C632 C631 1.389 . S
C632 C633 1.387 . S
C633 H618 0.930 . S
C633 C628 1.390 . S
C633 C632 1.387 . S
H634 C646 0.930 . S
H635 C648 0.930 . S
H636 C649 0.930 . S
H637 C653 0.959 . S
H638 C653 0.959 . S
H639 C653 0.961 . S
H640 C654 0.960 . S
H641 C654 0.961 . S
H642 C654 0.959 . S
H643 C657 0.929 . S
H644 C658 0.931 . S
H645 C660 0.930 . S
C646 H634 0.930 . S
C646 C647 1.399 . S
C646 C651 1.399 . S
C647 C646 1.399 . S
C647 C648 1.376 . S
C648 H635 0.930 . S
C648 C647 1.376 . S
C648 C649 1.388 . S
C649 H636 0.930 . S
C649 C648 1.388 . S
C649 C650 1.390 . S
C650 C649 1.390 . S
C650 C651 1.394 . S
C650 C656 1.465 . S
C651 C646 1.399 . S
C651 C650 1.394 . S
C651 C652 1.516 . S
C652 C651 1.516 . S
C652 C653 1.502 . S
C652 C654 1.561 . S
C652 C655 1.526 . S
C653 H637 0.959 . S
C653 H638 0.959 . S
C653 H639 0.961 . S
C653 C652 1.502 . S
C654 H640 0.960 . S
C654 H641 0.961 . S
C654 H642 0.959 . S
C654 C652 1.561 . S
C655 C652 1.526 . S
C655 C656 1.396 . S
C655 C660 1.390 . S
C656 C650 1.465 . S
C656 C655 1.396 . S
C656 C657 1.399 . S
C657 H643 0.929 . S
C657 C656 1.399 . S
C657 C658 1.385 . S
C658 H644 0.931 . S
C658 C657 1.385 . S
C658 C659 1.389 . S
C659 C658 1.389 . S
C659 C660 1.387 . S
C660 H645 0.930 . S
C660 C655 1.390 . S
C660 C659 1.387 . S
H661 C673 0.930 . S
H662 C675 0.930 . S
H663 C676 0.930 . S
H664 C680 0.959 . S
H665 C680 0.959 . S
H666 C680 0.961 . S
H667 C681 0.960 . S
H668 C681 0.961 . S
H669 C681 0.959 . S
H670 C684 0.929 . S
H671 C685 0.931 . S
H672 C687 0.930 . S
C673 H661 0.930 . S
C673 C674 1.399 . S
C673 C678 1.399 . S
C674 C673 1.399 . S
C674 C675 1.376 . S
C675 H662 0.930 . S
C675 C674 1.376 . S
C675 C676 1.388 . S
C676 H663 0.930 . S
C676 C675 1.388 . S
C676 C677 1.390 . S
C677 C676 1.390 . S
C677 C678 1.394 . S
C677 C683 1.465 . S
C678 C673 1.399 . S
C678 C677 1.394 . S
C678 C679 1.516 . S
C679 C678 1.516 . S
C679 C680 1.502 . S
C679 C681 1.561 . S
C679 C682 1.526 . S
C680 H664 0.959 . S
C680 H665 0.959 . S
C680 H666 0.961 . S
C680 C679 1.502 . S
C681 H667 0.960 . S
C681 H668 0.961 . S
C681 H669 0.959 . S
C681 C679 1.561 . S
C682 C679 1.526 . S
C682 C683 1.396 . S
C682 C687 1.390 . S
C683 C677 1.465 . S
C683 C682 1.396 . S
C683 C684 1.399 . S
C684 H670 0.929 . S
C684 C683 1.399 . S
C684 C685 1.385 . S
C685 H671 0.931 . S
C685 C684 1.385 . S
C685 C686 1.389 . S
C686 C685 1.389 . S
C686 C687 1.387 . S
C687 H672 0.930 . S
C687 C682 1.390 . S
C687 C686 1.387 . S
H688 C700 0.930 . S
H689 C702 0.930 . S
H690 C703 0.930 . S
H691 C707 0.959 . S
H692 C707 0.959 . S
H693 C707 0.961 . S
H694 C708 0.960 . S
H695 C708 0.961 . S
H696 C708 0.959 . S
H697 C711 0.929 . S
H698 C712 0.931 . S
H699 C714 0.930 . S
C700 H688 0.930 . S
C700 C701 1.399 . S
C700 C705 1.399 . S
C701 C700 1.399 . S
C701 C702 1.376 . S
C702 H689 0.930 . S
C702 C701 1.376 . S
C702 C703 1.388 . S
C703 H690 0.930 . S
C703 C702 1.388 . S
C703 C704 1.390 . S
C704 C703 1.390 . S
C704 C705 1.394 . S
C704 C710 1.465 . S
C705 C700 1.399 . S
C705 C704 1.394 . S
C705 C706 1.516 . S
C706 C705 1.516 . S
C706 C707 1.502 . S
C706 C708 1.561 . S
C706 C709 1.526 . S
C707 H691 0.959 . S
C707 H692 0.959 . S
C707 H693 0.961 . S
C707 C706 1.502 . S
C708 H694 0.960 . S
C708 H695 0.961 . S
C708 H696 0.959 . S
C708 C706 1.561 . S
C709 C706 1.526 . S
C709 C710 1.396 . S
C709 C714 1.390 . S
C710 C704 1.465 . S
C710 C709 1.396 . S
C710 C711 1.399 . S
C711 H697 0.929 . S
C711 C710 1.399 . S
C711 C712 1.385 . S
C712 H698 0.931 . S
C712 C711 1.385 . S
C712 C713 1.389 . S
C713 C712 1.389 . S
C713 C714 1.387 . S
C714 H699 0.930 . S
C714 C709 1.390 . S
C714 C713 1.387 . S
H715 C727 0.930 . S
H716 C729 0.930 . S
H717 C730 0.930 . S
H718 C734 0.959 . S
H719 C734 0.959 . S
H720 C734 0.961 . S
H721 C735 0.960 . S
H722 C735 0.961 . S
H723 C735 0.959 . S
H724 C738 0.929 . S
H725 C739 0.931 . S
H726 C741 0.930 . S
C727 H715 0.930 . S
C727 C728 1.399 . S
C727 C732 1.399 . S
C728 C727 1.399 . S
C728 C729 1.376 . S
C729 H716 0.930 . S
C729 C728 1.376 . S
C729 C730 1.388 . S
C730 H717 0.930 . S
C730 C729 1.388 . S
C730 C731 1.390 . S
C731 C730 1.390 . S
C731 C732 1.394 . S
C731 C737 1.465 . S
C732 C727 1.399 . S
C732 C731 1.394 . S
C732 C733 1.516 . S
C733 C732 1.516 . S
C733 C734 1.502 . S
C733 C735 1.561 . S
C733 C736 1.526 . S
C734 H718 0.959 . S
C734 H719 0.959 . S
C734 H720 0.961 . S
C734 C733 1.502 . S
C735 H721 0.960 . S
C735 H722 0.961 . S
C735 H723 0.959 . S
C735 C733 1.561 . S
C736 C733 1.526 . S
C736 C737 1.396 . S
C736 C741 1.390 . S
C737 C731 1.465 . S
C737 C736 1.396 . S
C737 C738 1.399 . S
C738 H724 0.929 . S
C738 C737 1.399 . S
C738 C739 1.385 . S
C739 H725 0.931 . S
C739 C738 1.385 . S
C739 C740 1.389 . S
C740 C739 1.389 . S
C740 C741 1.387 . S
C741 H726 0.930 . S
C741 C736 1.390 . S
C741 C740 1.387 . S
H742 C754 0.930 . S
H743 C756 0.930 . S
H744 C757 0.930 . S
H745 C761 0.959 . S
H746 C761 0.959 . S
H747 C761 0.961 . S
H748 C762 0.960 . S
H749 C762 0.961 . S
H750 C762 0.959 . S
H751 C765 0.929 . S
H752 C766 0.931 . S
H753 C768 0.930 . S
C754 H742 0.930 . S
C754 C755 1.399 . S
C754 C759 1.399 . S
C755 C754 1.399 . S
C755 C756 1.376 . S
C756 H743 0.930 . S
C756 C755 1.376 . S
C756 C757 1.388 . S
C757 H744 0.930 . S
C757 C756 1.388 . S
C757 C758 1.390 . S
C758 C757 1.390 . S
C758 C759 1.394 . S
C758 C764 1.465 . S
C759 C754 1.399 . S
C759 C758 1.394 . S
C759 C760 1.516 . S
C760 C759 1.516 . S
C760 C761 1.502 . S
C760 C762 1.561 . S
C760 C763 1.526 . S
C761 H745 0.959 . S
C761 H746 0.959 . S
C761 H747 0.961 . S
C761 C760 1.502 . S
C762 H748 0.960 . S
C762 H749 0.961 . S
C762 H750 0.959 . S
C762 C760 1.561 . S
C763 C760 1.526 . S
C763 C764 1.396 . S
C763 C768 1.390 . S
C764 C758 1.465 . S
C764 C763 1.396 . S
C764 C765 1.399 . S
C765 H751 0.929 . S
C765 C764 1.399 . S
C765 C766 1.385 . S
C766 H752 0.931 . S
C766 C765 1.385 . S
C766 C767 1.389 . S
C767 C766 1.389 . S
C767 C768 1.387 . S
C768 H753 0.930 . S
C768 C763 1.390 . S
C768 C767 1.387 . S
H769 C781 0.930 . S
H770 C783 0.930 . S
H771 C784 0.930 . S
H772 C788 0.959 . S
H773 C788 0.959 . S
H774 C788 0.961 . S
H775 C789 0.960 . S
H776 C789 0.961 . S
H777 C789 0.959 . S
H778 C792 0.929 . S
H779 C793 0.931 . S
H780 C795 0.930 . S
C781 H769 0.930 . S
C781 C782 1.399 . S
C781 C786 1.399 . S
C782 C781 1.399 . S
C782 C783 1.376 . S
C783 H770 0.930 . S
C783 C782 1.376 . S
C783 C784 1.388 . S
C784 H771 0.930 . S
C784 C783 1.388 . S
C784 C785 1.390 . S
C785 C784 1.390 . S
C785 C786 1.394 . S
C785 C791 1.465 . S
C786 C781 1.399 . S
C786 C785 1.394 . S
C786 C787 1.516 . S
C787 C786 1.516 . S
C787 C788 1.502 . S
C787 C789 1.561 . S
C787 C790 1.526 . S
C788 H772 0.959 . S
C788 H773 0.959 . S
C788 H774 0.961 . S
C788 C787 1.502 . S
C789 H775 0.960 . S
C789 H776 0.961 . S
C789 H777 0.959 . S
C789 C787 1.561 . S
C790 C787 1.526 . S
C790 C791 1.396 . S
C790 C795 1.390 . S
C791 C785 1.465 . S
C791 C790 1.396 . S
C791 C792 1.399 . S
C792 H778 0.929 . S
C792 C791 1.399 . S
C792 C793 1.385 . S
C793 H779 0.931 . S
C793 C792 1.385 . S
C793 C794 1.389 . S
C794 C793 1.389 . S
C794 C795 1.387 . S
C795 H780 0.930 . S
C795 C790 1.390 . S
C795 C794 1.387 . S
H796 C808 0.930 . S
H797 C810 0.930 . S
H798 C811 0.930 . S
H799 C815 0.959 . S
H800 C815 0.959 . S
H801 C815 0.961 . S
H802 C816 0.960 . S
H803 C816 0.961 . S
H804 C816 0.959 . S
H805 C819 0.929 . S
H806 C820 0.931 . S
H807 C822 0.930 . S
C808 H796 0.930 . S
C808 C809 1.399 . S
C808 C813 1.399 . S
C809 C808 1.399 . S
C809 C810 1.376 . S
C810 H797 0.930 . S
C810 C809 1.376 . S
C810 C811 1.388 . S
C811 H798 0.930 . S
C811 C810 1.388 . S
C811 C812 1.390 . S
C812 C811 1.390 . S
C812 C813 1.394 . S
C812 C818 1.465 . S
C813 C808 1.399 . S
C813 C812 1.394 . S
C813 C814 1.516 . S
C814 C813 1.516 . S
C814 C815 1.502 . S
C814 C816 1.561 . S
C814 C817 1.526 . S
C815 H799 0.959 . S
C815 H800 0.959 . S
C815 H801 0.961 . S
C815 C814 1.502 . S
C816 H802 0.960 . S
C816 H803 0.961 . S
C816 H804 0.959 . S
C816 C814 1.561 . S
C817 C814 1.526 . S
C817 C818 1.396 . S
C817 C822 1.390 . S
C818 C812 1.465 . S
C818 C817 1.396 . S
C818 C819 1.399 . S
C819 H805 0.929 . S
C819 C818 1.399 . S
C819 C820 1.385 . S
C820 H806 0.931 . S
C820 C819 1.385 . S
C820 C821 1.389 . S
C821 C820 1.389 . S
C821 C822 1.387 . S
C822 H807 0.930 . S
C822 C817 1.390 . S
C822 C821 1.387 . S
H823 C835 0.930 . S
H824 C837 0.930 . S
H825 C838 0.930 . S
H826 C842 0.959 . S
H827 C842 0.959 . S
H828 C842 0.961 . S
H829 C843 0.960 . S
H830 C843 0.961 . S
H831 C843 0.959 . S
H832 C846 0.929 . S
H833 C847 0.931 . S
H834 C849 0.930 . S
C835 H823 0.930 . S
C835 C836 1.399 . S
C835 C840 1.399 . S
C836 C835 1.399 . S
C836 C837 1.376 . S
C837 H824 0.930 . S
C837 C836 1.376 . S
C837 C838 1.388 . S
C838 H825 0.930 . S
C838 C837 1.388 . S
C838 C839 1.390 . S
C839 C838 1.390 . S
C839 C840 1.394 . S
C839 C845 1.465 . S
C840 C835 1.399 . S
C840 C839 1.394 . S
C840 C841 1.516 . S
C841 C840 1.516 . S
C841 C842 1.502 . S
C841 C843 1.561 . S
C841 C844 1.526 . S
C842 H826 0.959 . S
C842 H827 0.959 . S
C842 H828 0.961 . S
C842 C841 1.502 . S
C843 H829 0.960 . S
C843 H830 0.961 . S
C843 H831 0.959 . S
C843 C841 1.561 . S
C844 C841 1.526 . S
C844 C845 1.396 . S
C844 C849 1.390 . S
C845 C839 1.465 . S
C845 C844 1.396 . S
C845 C846 1.399 . S
C846 H832 0.929 . S
C846 C845 1.399 . S
C846 C847 1.385 . S
C847 H833 0.931 . S
C847 C846 1.385 . S
C847 C848 1.389 . S
C848 C847 1.389 . S
C848 C849 1.387 . S
C849 H834 0.930 . S
C849 C844 1.390 . S
C849 C848 1.387 . S
H850 C862 0.930 . S
H851 C864 0.930 . S
H852 C865 0.930 . S
H853 C869 0.959 . S
H854 C869 0.959 . S
H855 C869 0.961 . S
H856 C870 0.960 . S
H857 C870 0.961 . S
H858 C870 0.959 . S
H859 C873 0.929 . S
H860 C874 0.931 . S
H861 C876 0.930 . S
C862 H850 0.930 . S
C862 C863 1.399 . S
C862 C867 1.399 . S
C863 C862 1.399 . S
C863 C864 1.376 . S
C864 H851 0.930 . S
C864 C863 1.376 . S
C864 C865 1.388 . S
C865 H852 0.930 . S
C865 C864 1.388 . S
C865 C866 1.390 . S
C866 C865 1.390 . S
C866 C867 1.394 . S
C866 C872 1.465 . S
C867 C862 1.399 . S
C867 C866 1.394 . S
C867 C868 1.516 . S
C868 C867 1.516 . S
C868 C869 1.502 . S
C868 C870 1.561 . S
C868 C871 1.526 . S
C869 H853 0.959 . S
C869 H854 0.959 . S
C869 H855 0.961 . S
C869 C868 1.502 . S
C870 H856 0.960 . S
C870 H857 0.961 . S
C870 H858 0.959 . S
C870 C868 1.561 . S
C871 C868 1.526 . S
C871 C872 1.396 . S
C871 C876 1.390 . S
C872 C866 1.465 . S
C872 C871 1.396 . S
C872 C873 1.399 . S
C873 H859 0.929 . S
C873 C872 1.399 . S
C873 C874 1.385 . S
C874 H860 0.931 . S
C874 C873 1.385 . S
C874 C875 1.389 . S
C875 C874 1.389 . S
C875 C876 1.387 . S
C876 H861 0.930 . S
C876 C871 1.390 . S
C876 C875 1.387 . S
H877 C889 0.930 . S
H878 C891 0.930 . S
H879 C892 0.930 . S
H880 C896 0.959 . S
H881 C896 0.978 . S
H882 C896 0.961 . S
H883 C897 0.960 . S
H884 C897 0.961 . S
H885 C897 0.959 . S
H886 C900 0.929 . S
H887 C901 0.931 . S
H888 C903 0.930 . S
C889 H877 0.930 . S
C889 C890 1.399 . S
C889 C894 1.399 . S
C890 C889 1.399 . S
C890 C891 1.376 . S
C891 H878 0.930 . S
C891 C890 1.376 . S
C891 C892 1.388 . S
C892 H879 0.930 . S
C892 C891 1.388 . S
C892 C893 1.390 . S
C893 C892 1.390 . S
C893 C894 1.394 . S
C893 C899 1.465 . S
C894 C889 1.399 . S
C894 C893 1.394 . S
C894 C895 1.516 . S
C895 C894 1.516 . S
C895 C896 1.502 . S
C895 C897 1.561 . S
C895 C898 1.526 . S
C896 H880 0.959 . S
C896 H881 0.978 . S
C896 H882 0.961 . S
C896 C895 1.502 . S
C897 H883 0.960 . S
C897 H884 0.961 . S
C897 H885 0.959 . S
C897 C895 1.561 . S
C898 C895 1.526 . S
C898 C899 1.396 . S
C898 C903 1.390 . S
C899 C893 1.465 . S
C899 C898 1.396 . S
C899 C900 1.399 . S
C900 H886 0.929 . S
C900 C899 1.399 . S
C900 C901 1.385 . S
C901 H887 0.931 . S
C901 C900 1.385 . S
C901 C902 1.389 . S
C902 C901 1.389 . S
C902 C903 1.387 . S
C903 H888 0.930 . S
C903 C898 1.390 . S
C903 C902 1.387 . S
H904 C916 0.930 . S
H905 C918 0.930 . S
H906 C919 0.930 . S
H907 C923 0.959 . S
H908 C923 0.959 . S
H909 C923 0.961 . S
H910 C924 0.960 . S
H911 C924 0.961 . S
H912 C924 0.959 . S
H913 C927 0.929 . S
H914 C928 0.931 . S
H915 C930 0.930 . S
C916 H904 0.930 . S
C916 C917 1.399 . S
C916 C921 1.399 . S
C917 C916 1.399 . S
C917 C918 1.376 . S
C918 H905 0.930 . S
C918 C917 1.376 . S
C918 C919 1.388 . S
C919 H906 0.930 . S
C919 C918 1.388 . S
C919 C920 1.390 . S
C920 C919 1.390 . S
C920 C921 1.394 . S
C920 C926 1.465 . S
C921 C916 1.399 . S
C921 C920 1.394 . S
C921 C922 1.516 . S
C922 C921 1.516 . S
C922 C923 1.502 . S
C922 C924 1.561 . S
C922 C925 1.526 . S
C923 H907 0.959 . S
C923 H908 0.959 . S
C923 H909 0.961 . S
C923 C922 1.502 . S
C924 H910 0.960 . S
C924 H911 0.961 . S
C924 H912 0.959 . S
C924 C922 1.561 . S
C925 C922 1.526 . S
C925 C926 1.396 . S
C925 C930 1.390 . S
C926 C920 1.465 . S
C926 C925 1.396 . S
C926 C927 1.399 . S
C927 H913 0.929 . S
C927 C926 1.399 . S
C927 C928 1.385 . S
C928 H914 0.931 . S
C928 C927 1.385 . S
C928 C929 1.389 . S
C929 C928 1.389 . S
C929 C930 1.387 . S
C930 H915 0.930 . S
C930 C925 1.390 . S
C930 C929 1.387 . S
H931 C943 0.930 . S
H932 C945 0.930 . S
H933 C946 0.930 . S
H934 C950 0.959 . S
H935 C950 0.959 . S
H936 C950 0.961 . S
H937 C951 0.960 . S
H938 C951 0.961 . S
H939 C951 0.959 . S
H940 C954 0.929 . S
H941 C955 0.931 . S
H942 C957 0.930 . S
C943 H931 0.930 . S
C943 C944 1.399 . S
C943 C948 1.399 . S
C944 C943 1.399 . S
C944 C945 1.376 . S
C945 H932 0.930 . S
C945 C944 1.376 . S
C945 C946 1.388 . S
C946 H933 0.930 . S
C946 C945 1.388 . S
C946 C947 1.390 . S
C947 C946 1.390 . S
C947 C948 1.394 . S
C947 C953 1.465 . S
C948 C943 1.399 . S
C948 C947 1.394 . S
C948 C949 1.516 . S
C949 C948 1.516 . S
C949 C950 1.502 . S
C949 C951 1.561 . S
C949 C952 1.526 . S
C950 H934 0.959 . S
C950 H935 0.959 . S
C950 H936 0.961 . S
C950 C949 1.502 . S
C951 H937 0.960 . S
C951 H938 0.961 . S
C951 H939 0.959 . S
C951 C949 1.561 . S
C952 C949 1.526 . S
C952 C953 1.396 . S
C952 C957 1.390 . S
C953 C947 1.465 . S
C953 C952 1.396 . S
C953 C954 1.399 . S
C954 H940 0.929 . S
C954 C953 1.399 . S
C954 C955 1.385 . S
C955 H941 0.931 . S
C955 C954 1.385 . S
C955 C956 1.389 . S
C956 C955 1.389 . S
C956 C957 1.387 . S
C957 H942 0.930 . S
C957 C952 1.390 . S
C957 C956 1.387 . S
H958 C970 0.930 . S
H959 C972 0.930 . S
H960 C973 0.930 . S
H961 C977 0.959 . S
H962 C977 0.959 . S
H963 C977 0.961 . S
H964 C978 0.960 . S
H965 C978 0.961 . S
H966 C978 0.959 . S
H967 C981 0.929 . S
H968 C982 0.931 . S
H969 C984 0.930 . S
C970 H958 0.930 . S
C970 C971 1.399 . S
C970 C975 1.399 . S
C971 C970 1.399 . S
C971 C972 1.376 . S
C972 H959 0.930 . S
C972 C971 1.376 . S
C972 C973 1.388 . S
C973 H960 0.930 . S
C973 C972 1.388 . S
C973 C974 1.390 . S
C974 C973 1.390 . S
C974 C975 1.394 . S
C974 C980 1.465 . S
C975 C970 1.399 . S
C975 C974 1.394 . S
C975 C976 1.516 . S
C976 C975 1.516 . S
C976 C977 1.502 . S
C976 C978 1.561 . S
C976 C979 1.526 . S
C977 H961 0.959 . S
C977 H962 0.959 . S
C977 H963 0.961 . S
C977 C976 1.502 . S
C978 H964 0.960 . S
C978 H965 0.961 . S
C978 H966 0.959 . S
C978 C976 1.561 . S
C979 C976 1.526 . S
C979 C980 1.396 . S
C979 C984 1.390 . S
C980 C974 1.465 . S
C980 C979 1.396 . S
C980 C981 1.399 . S
C981 H967 0.929 . S
C981 C980 1.399 . S
C981 C982 1.385 . S
C982 H968 0.931 . S
C982 C981 1.385 . S
C982 C983 1.389 . S
C983 C982 1.389 . S
C983 C984 1.387 . S
C984 H969 0.930 . S
C984 C979 1.390 . S
C984 C983 1.387 . S
H985 C997 0.930 . S
H986 C999 0.930 . S
H987 C1000 0.930 . S
H988 C1004 0.959 . S
H989 C1004 0.959 . S
H990 C1004 0.961 . S
H991 C1005 0.960 . S
H992 C1005 0.961 . S
H993 C1005 0.959 . S
H994 C1008 0.929 . S
H995 C1009 0.931 . S
H996 C1011 0.930 . S
C997 H985 0.930 . S
C997 C998 1.399 . S
C997 C1002 1.399 . S
C998 C997 1.399 . S
C998 C999 1.376 . S
C999 H986 0.930 . S
C999 C998 1.376 . S
C999 C1000 1.388 . S
C1000 H987 0.930 . S
C1000 C999 1.388 . S
C1000 C1001 1.390 . S
C1001 C1000 1.390 . S
C1001 C1002 1.394 . S
C1001 C1007 1.465 . S
C1002 C997 1.399 . S
C1002 C1001 1.394 . S
C1002 C1003 1.516 . S
C1003 C1002 1.516 . S
C1003 C1004 1.502 . S
C1003 C1005 1.561 . S
C1003 C1006 1.526 . S
C1004 H988 0.959 . S
C1004 H989 0.959 . S
C1004 H990 0.961 . S
C1004 C1003 1.502 . S
C1005 H991 0.960 . S
C1005 H992 0.961 . S
C1005 H993 0.959 . S
C1005 C1003 1.561 . S
C1006 C1003 1.526 . S
C1006 C1007 1.396 . S
C1006 C1011 1.390 . S
C1007 C1001 1.465 . S
C1007 C1006 1.396 . S
C1007 C1008 1.399 . S
C1008 H994 0.929 . S
C1008 C1007 1.399 . S
C1008 C1009 1.385 . S
C1009 H995 0.931 . S
C1009 C1008 1.385 . S
C1009 C1010 1.389 . S
C1010 C1009 1.389 . S
C1010 C1011 1.387 . S
C1011 H996 0.930 . S
C1011 C1006 1.390 . S
C1011 C1010 1.387 . S
H1012 C1024 0.930 . S
H1013 C1026 0.930 . S
H1014 C1027 0.930 . S
H1015 C1031 0.959 . S
H1016 C1031 0.959 . S
H1017 C1031 0.961 . S
H1018 C1032 0.960 . S
H1019 C1032 0.961 . S
H1020 C1032 0.959 . S
H1021 C1035 0.929 . S
H1022 C1036 0.931 . S
H1023 C1038 0.930 . S
C1024 H1012 0.930 . S
C1024 C1025 1.399 . S
C1024 C1029 1.399 . S
C1025 C1024 1.399 . S
C1025 C1026 1.376 . S
C1026 H1013 0.930 . S
C1026 C1025 1.376 . S
C1026 C1027 1.388 . S
C1027 H1014 0.930 . S
C1027 C1026 1.388 . S
C1027 C1028 1.390 . S
C1028 C1027 1.390 . S
C1028 C1029 1.394 . S
C1028 C1034 1.465 . S
C1029 C1024 1.399 . S
C1029 C1028 1.394 . S
C1029 C1030 1.516 . S
C1030 C1029 1.516 . S
C1030 C1031 1.502 . S
C1030 C1032 1.561 . S
C1030 C1033 1.526 . S
C1031 H1015 0.959 . S
C1031 H1016 0.959 . S
C1031 H1017 0.961 . S
C1031 C1030 1.502 . S
C1032 H1018 0.960 . S
C1032 H1019 0.961 . S
C1032 H1020 0.959 . S
C1032 C1030 1.561 . S
C1033 C1030 1.526 . S
C1033 C1034 1.396 . S
C1033 C1038 1.390 . S
C1034 C1028 1.465 . S
C1034 C1033 1.396 . S
C1034 C1035 1.399 . S
C1035 H1021 0.929 . S
C1035 C1034 1.399 . S
C1035 C1036 1.385 . S
C1036 H1022 0.931 . S
C1036 C1035 1.385 . S
C1036 C1037 1.389 . S
C1037 C1036 1.389 . S
C1037 C1038 1.387 . S
C1038 H1023 0.930 . S
C1038 C1033 1.390 . S
C1038 C1037 1.387 . S
H1039 C1051 0.930 . S
H1040 C1053 0.930 . S
H1041 C1054 0.930 . S
H1042 C1058 0.959 . S
H1043 C1058 0.959 . S
H1044 C1058 0.961 . S
H1045 C1059 0.960 . S
H1046 C1059 0.961 . S
H1047 C1059 0.959 . S
H1048 C1062 0.929 . S
H1049 C1063 0.931 . S
H1050 C1065 0.930 . S
C1051 H1039 0.930 . S
C1051 C1052 1.399 . S
C1051 C1056 1.399 . S
C1052 C1051 1.399 . S
C1052 C1053 1.376 . S
C1053 H1040 0.930 . S
C1053 C1052 1.376 . S
C1053 C1054 1.388 . S
C1054 H1041 0.930 . S
C1054 C1053 1.388 . S
C1054 C1055 1.390 . S
C1055 C1054 1.390 . S
C1055 C1056 1.394 . S
C1055 C1061 1.465 . S
C1056 C1051 1.399 . S
C1056 C1055 1.394 . S
C1056 C1057 1.516 . S
C1057 C1056 1.516 . S
C1057 C1058 1.502 . S
C1057 C1059 1.561 . S
C1057 C1060 1.526 . S
C1058 H1042 0.959 . S
C1058 H1043 0.959 . S
C1058 H1044 0.961 . S
C1058 C1057 1.502 . S
C1059 H1045 0.960 . S
C1059 H1046 0.961 . S
C1059 H1047 0.959 . S
C1059 C1057 1.561 . S
C1060 C1057 1.526 . S
C1060 C1061 1.396 . S
C1060 C1065 1.390 . S
C1061 C1055 1.465 . S
C1061 C1060 1.396 . S
C1061 C1062 1.399 . S
C1062 H1048 0.929 . S
C1062 C1061 1.399 . S
C1062 C1063 1.385 . S
C1063 H1049 0.931 . S
C1063 C1062 1.385 . S
C1063 C1064 1.389 . S
C1064 C1063 1.389 . S
C1064 C1065 1.387 . S
C1065 H1050 0.930 . S
C1065 C1060 1.390 . S
C1065 C1064 1.387 . S
H1066 C1078 0.930 . S
H1067 C1080 0.930 . S
H1068 C1081 0.930 . S
H1069 C1085 0.959 . S
H1070 C1085 0.959 . S
H1071 C1085 0.961 . S
H1072 C1086 0.960 . S
H1073 C1086 0.961 . S
H1074 C1086 0.959 . S
H1075 C1089 0.929 . S
H1076 C1090 0.931 . S
H1077 C1092 0.930 . S
C1078 H1066 0.930 . S
C1078 C1079 1.399 . S
C1078 C1083 1.399 . S
C1079 C1078 1.399 . S
C1079 C1080 1.376 . S
C1080 H1067 0.930 . S
C1080 C1079 1.376 . S
C1080 C1081 1.388 . S
C1081 H1068 0.930 . S
C1081 C1080 1.388 . S
C1081 C1082 1.390 . S
C1082 C1081 1.390 . S
C1082 C1083 1.394 . S
C1082 C1088 1.465 . S
C1083 C1078 1.399 . S
C1083 C1082 1.394 . S
C1083 C1084 1.516 . S
C1084 C1083 1.516 . S
C1084 C1085 1.502 . S
C1084 C1086 1.561 . S
C1084 C1087 1.526 . S
C1085 H1069 0.959 . S
C1085 H1070 0.959 . S
C1085 H1071 0.961 . S
C1085 C1084 1.502 . S
C1086 H1072 0.960 . S
C1086 H1073 0.961 . S
C1086 H1074 0.959 . S
C1086 C1084 1.561 . S
C1087 C1084 1.526 . S
C1087 C1088 1.396 . S
C1087 C1092 1.390 . S
C1088 C1082 1.465 . S
C1088 C1087 1.396 . S
C1088 C1089 1.399 . S
C1089 H1075 0.929 . S
C1089 C1088 1.399 . S
C1089 C1090 1.385 . S
C1090 H1076 0.931 . S
C1090 C1089 1.385 . S
C1090 C1091 1.389 . S
C1091 C1090 1.389 . S
C1091 C1092 1.387 . S
C1092 H1077 0.930 . S
C1092 C1087 1.390 . S
C1092 C1091 1.387 . S
H1093 C1105 0.930 . S
H1094 C1107 0.930 . S
H1095 C1108 0.930 . S
H1096 C1112 0.959 . S
H1097 C1112 0.959 . S
H1098 C1112 0.961 . S
H1099 C1113 0.960 . S
H1100 C1113 0.961 . S
H1101 C1113 0.959 . S
H1102 C1116 0.929 . S
H1103 C1117 0.931 . S
H1104 C1119 0.930 . S
C1105 H1093 0.930 . S
C1105 C1106 1.399 . S
C1105 C1110 1.399 . S
C1106 C1105 1.399 . S
C1106 C1107 1.376 . S
C1107 H1094 0.930 . S
C1107 C1106 1.376 . S
C1107 C1108 1.388 . S
C1108 H1095 0.930 . S
C1108 C1107 1.388 . S
C1108 C1109 1.390 . S
C1109 C1108 1.390 . S
C1109 C1110 1.394 . S
C1109 C1115 1.465 . S
C1110 C1105 1.399 . S
C1110 C1109 1.394 . S
C1110 C1111 1.516 . S
C1111 C1110 1.516 . S
C1111 C1112 1.502 . S
C1111 C1113 1.561 . S
C1111 C1114 1.526 . S
C1112 H1096 0.959 . S
C1112 H1097 0.959 . S
C1112 H1098 0.961 . S
C1112 C1111 1.502 . S
C1113 H1099 0.960 . S
C1113 H1100 0.961 . S
C1113 H1101 0.959 . S
C1113 C1111 1.561 . S
C1114 C1111 1.526 . S
C1114 C1115 1.396 . S
C1114 C1119 1.390 . S
C1115 C1109 1.465 . S
C1115 C1114 1.396 . S
C1115 C1116 1.399 . S
C1116 H1102 0.929 . S
C1116 C1115 1.399 . S
C1116 C1117 1.385 . S
C1117 H1103 0.931 . S
C1117 C1116 1.385 . S
C1117 C1118 1.389 . S
C1118 C1117 1.389 . S
C1118 C1119 1.387 . S
C1119 H1104 0.930 . S
C1119 C1114 1.390 . S
C1119 C1118 1.387 . S
C485 C1 1.302 . S
C497 C319 1.305 . S
C512 C40 1.001 . S
C524 C368 0.982 . S
C551 C394 2.449 . S
C539 C99 2.468 . S
C566 C118 2.364 . S
C578 C442 2.287 . S
C605 C354 2.511 . S
C593 C16 2.400 . S
C632 C322 0.888 . S
C620 C60 0.941 . S
C659 C443 1.886 . S
C647 C79 1.931 . S
C686 C411 1.556 . S
C674 C138 1.572 . S
C701 C21 1.691 . S
C713 C439 1.770 . S
C740 C371 2.344 . S
C728 C94 2.389 . S
C755 C133 2.302 . S
C767 C323 2.307 . S
C782 C55 0.842 . S
C794 C408 0.890 . S
C821 C328 1.318 . S
C809 C157 1.236 . S
C836 C196 0.962 . S
C848 C359 1.033 . S
C863 C255 2.462 . S
C875 C403 2.444 . S
C890 C289 2.354 . S
C902 C451 2.308 . S
C917 C172 2.371 . S
C929 C363 2.508 . S
C956 C331 0.843 . S
C944 C216 0.944 . S
C983 C434 1.883 . S
C971 C235 1.931 . S
C1010 C402 1.521 . S
C998 C294 1.557 . S
C1025 C177 1.746 . S
C1037 C448 1.767 . S
C1064 C362 2.330 . S
C1052 C250 2.394 . S
C1091 C314 2.299 . S
C1079 C274 2.311 . S
C1106 C211 0.913 . S
C1118 C399 0.859 . S
