# Generated by pormake.
# Topology pth, (4,4)-cn, num edge types: 1
# Building blocks:
#     Node 0, Type 0, BuildingBlock: NAHDIM_clean_sbu_0, # of connection points: 4
#     Node 1, Type 0, BuildingBlock: NAHDIM_clean_sbu_0, # of connection points: 4
#     Node 2, Type 0, BuildingBlock: NAHDIM_clean_sbu_0, # of connection points: 4
#     Node 3, Type 1, BuildingBlock: AZAVOO_clean_linker_0, # of connection points: 4
#     Node 4, Type 1, BuildingBlock: AZAVOO_clean_linker_0, # of connection points: 4
#     Node 5, Type 1, BuildingBlock: AZAVOO_clean_linker_0, # of connection points: 4
#     Edge 6, Type (0, 1), BuildingBlock: KIFKEQ_clean_linker_1, # of connection points: 2
#     Edge 7, Type (0, 1), BuildingBlock: KIFKEQ_clean_linker_1, # of connection points: 2
#     Edge 8, Type (0, 1), BuildingBlock: KIFKEQ_clean_linker_1, # of connection points: 2
#     Edge 9, Type (0, 1), BuildingBlock: KIFKEQ_clean_linker_1, # of connection points: 2
#     Edge 10, Type (0, 1), BuildingBlock: KIFKEQ_clean_linker_1, # of connection points: 2
#     Edge 11, Type (0, 1), BuildingBlock: KIFKEQ_clean_linker_1, # of connection points: 2
#     Edge 12, Type (0, 1), BuildingBlock: KIFKEQ_clean_linker_1, # of connection points: 2
#     Edge 13, Type (0, 1), BuildingBlock: KIFKEQ_clean_linker_1, # of connection points: 2
#     Edge 14, Type (0, 1), BuildingBlock: KIFKEQ_clean_linker_1, # of connection points: 2
#     Edge 15, Type (0, 1), BuildingBlock: KIFKEQ_clean_linker_1, # of connection points: 2
#     Edge 16, Type (0, 1), BuildingBlock: KIFKEQ_clean_linker_1, # of connection points: 2
#     Edge 17, Type (0, 1), BuildingBlock: KIFKEQ_clean_linker_1, # of connection points: 2
# Relax obj value: 0.155
# Max RMSD: 0.228
# Mean RMSD: 0.208
data_MOF--net-pth--node1-NAHDIM_clean_sbu_0--node2-AZAVOO_clean_linker_0--edge1-KIFKEQ_clean_linker_1
_symmetry_space_group_name_H-M    P1
_symmetry_Int_Tables_number       1
_symmetry_cell_setting            triclinic
loop_
_symmetry_equiv_pos_as_xyz
'x, y, z'
_cell_length_a     26.586176
_cell_length_b     26.931526
_cell_length_c     70.913717
_cell_angle_alpha  93.979019
_cell_angle_beta   88.949033
_cell_angle_gamma 120.57477
loop_
_atom_site_label
_atom_site_type_symbol
_atom_site_fract_x
_atom_site_fract_y
_atom_site_fract_z
_atom_type_partial_charge
C0 C 0.13495 0.98355 0.06718 0.0
O1 O 0.10758 0.96596 0.05068 0.0
O2 O 0.08361 0.10398 0.08878 0.0
Zn3 Zn 0.11031 0.07658 0.0659 0.0
O4 O 0.04564 0.02713 0.04708 0.0
C5 C 0.21304 0.1492 0.04427 0.0
O6 O 0.22213 0.10554 0.04389 0.0
O7 O 0.1436 0.03075 0.0754 0.0
C8 C 0.02282 0.04822 0.0371 0.0
O9 O 0.03881 0.10303 0.0401 0.0
C10 C 0.03241 0.09279 0.09297 0.0
O11 O 0.98853 0.05998 0.08118 0.0
O12 O 0.16968 0.14603 0.05311 0.0
C13 C 0.06541 0.17222 0.37079 0.0
O14 O 0.02508 0.14821 0.38353 0.0
O15 O 0.06166 0.02287 0.37353 0.0
Zn16 Zn 0.10354 0.10254 0.38683 0.0
O17 O 0.06166 0.10542 0.41034 0.0
C18 C 0.20828 0.09433 0.38914 0.0
O19 O 0.18328 0.05421 0.37526 0.0
O20 O 0.10553 0.15968 0.36936 0.0
C21 C 0.06926 0.09238 0.4265 0.0
O22 O 0.10547 0.07344 0.42861 0.0
C23 C 0.04959 0.97777 0.38179 0.0
O24 O 0.06269 0.9826 0.39983 0.0
O25 O 0.1839 0.12234 0.3952 0.0
C26 C 0.1929 0.09299 0.70805 0.0
O27 O 0.20332 0.1452 0.71321 0.0
O28 O 0.03352 0.07239 0.70873 0.0
Zn29 Zn 0.0881 0.06718 0.72668 0.0
O30 O 0.13634 0.14193 0.74231 0.0
C31 C 0.99001 0.96296 0.73909 0.0
O32 O 0.97312 0.9566 0.72135 0.0
O33 O 0.14402 0.04963 0.71201 0.0
C34 C 0.12548 0.18209 0.74655 0.0
O35 O 0.0757 0.17625 0.74108 0.0
C36 C 0.04691 0.11359 0.69825 0.0
O37 O 0.10066 0.1578 0.69874 0.0
O38 O 0.03934 0.00591 0.74443 0.0
H39 H 0.00638 0.42509 0.10162 0.0
H40 H 0.12327 0.92936 0.24114 0.0
H41 H 0.92945 0.41322 0.20112 0.0
H42 H 0.92401 0.32537 0.18699 0.0
H43 H 0.09276 0.37893 0.21196 0.0
H44 H 0.09856 0.46788 0.22553 0.0
H45 H 0.95886 0.51202 0.17358 0.0
H46 H 0.96388 0.47477 0.14155 0.0
H47 H 0.12556 0.48447 0.15683 0.0
H48 H 0.12046 0.52257 0.1887 0.0
H49 H 0.97696 0.63223 0.18961 0.0
H50 H 0.00322 0.69435 0.1632 0.0
H51 H 0.17232 0.70773 0.16105 0.0
H52 H 0.14618 0.64699 0.18783 0.0
H53 H 0.95361 0.64184 0.23395 0.0
H54 H 0.96434 0.73723 0.24048 0.0
H55 H 0.14937 0.81744 0.22989 0.0
H56 H 0.1381 0.72174 0.22363 0.0
H57 H 0.92932 0.54613 0.26023 0.0
H58 H 0.91746 0.59335 0.28945 0.0
H59 H 0.10352 0.71448 0.29178 0.0
H60 H 0.11484 0.66702 0.26271 0.0
H61 H 0.93644 0.4203 0.2466 0.0
H62 H 0.94271 0.36218 0.27044 0.0
H63 H 0.11373 0.50465 0.28784 0.0
H64 H 0.10854 0.56059 0.26318 0.0
O65 O 0.00549 0.44032 0.11432 0.0
O66 O 0.08813 0.44554 0.12296 0.0
O67 O 0.02246 0.84772 0.24398 0.0
O68 O 0.11777 0.89111 0.2386 0.0
C69 C 0.02394 0.5058 0.21822 0.0
C70 C 0.03522 0.54114 0.20301 0.0
C71 C 0.04376 0.59711 0.2064 0.0
C72 C 0.03855 0.61694 0.22486 0.0
C73 C 0.02833 0.58199 0.24012 0.0
C74 C 0.02285 0.52708 0.23691 0.0
C75 C 0.01462 0.44699 0.21415 0.0
C76 C 0.96441 0.40507 0.20399 0.0
C77 C 0.9613 0.35478 0.196 0.0
C78 C 0.00835 0.34559 0.19814 0.0
C79 C 0.05629 0.38534 0.20981 0.0
C80 C 0.05948 0.43584 0.21771 0.0
C81 C 0.03915 0.51975 0.18345 0.0
C82 C 0.99546 0.50636 0.16993 0.0
C83 C -0.00162 0.48494 0.15168 0.0
C84 C 0.04505 0.47649 0.14664 0.0
C85 C 0.08897 0.49036 0.16024 0.0
C86 C 0.08611 0.512 0.17846 0.0
C87 C 0.05973 0.63534 0.1906 0.0
C88 C 0.01973 0.6489 0.18347 0.0
C89 C 0.03463 0.68385 0.16829 0.0
C90 C 0.08977 0.70566 0.15997 0.0
C91 C 0.12976 0.69202 0.16725 0.0
C92 C 0.11484 0.65718 0.18245 0.0
C93 C 0.04506 0.67497 0.22831 0.0
C94 C 0.9964 0.6801 0.23307 0.0
C95 C 0.00266 0.73461 0.23677 0.0
C96 C 0.05775 0.785 0.2357 0.0
C97 C 0.10635 0.77957 0.23083 0.0
C98 C 0.10004 0.72501 0.22719 0.0
C99 C 0.02289 0.60335 0.25941 0.0
C100 C 0.96759 0.58192 0.26737 0.0
C101 C 0.96086 0.60912 0.28393 0.0
C102 C 0.00953 0.6577 0.29282 0.0
C103 C 0.06532 0.67676 0.28537 0.0
C104 C 0.0719 0.64988 0.26876 0.0
C105 C 0.02211 0.4946 0.25309 0.0
C106 C 0.97504 0.43894 0.25566 0.0
C107 C 0.97861 0.40597 0.26939 0.0
C108 C 0.02905 0.42845 0.28098 0.0
C109 C 0.07482 0.48537 0.27891 0.0
C110 C 0.07155 0.51785 0.26502 0.0
C111 C 0.04774 0.45323 0.12729 0.0
C112 C 0.06468 0.84302 0.23969 0.0
H113 H 0.74927 0.07406 0.43927 0.0
H114 H 0.26305 0.07789 0.57907 0.0
H115 H 0.68748 0.01195 0.54924 0.0
H116 H 0.77666 0.02309 0.53448 0.0
H117 H 0.83028 0.19886 0.52365 0.0
H118 H 0.7419 0.18789 0.53866 0.0
H119 H 0.63232 0.00601 0.51148 0.0
H120 H 0.67836 0.01796 0.48064 0.0
H121 H 0.6945 0.18578 0.47933 0.0
H122 H 0.64932 0.17368 0.51036 0.0
H123 H 0.50856 0.99513 0.50556 0.0
H124 H 0.45894 0.00031 0.47765 0.0
H125 H 0.48044 0.1626 0.50123 0.0
H126 H 0.53191 0.15802 0.52865 0.0
H127 H 0.42955 0.9764 0.54285 0.0
H128 H 0.33252 0.96344 0.54836 0.0
H129 H 0.41232 0.13377 0.5773 0.0
H130 H 0.50898 0.1465 0.57143 0.0
H131 H 0.47719 0.97742 0.58384 0.0
H132 H 0.42295 0.97689 0.61212 0.0
H133 H 0.5532 0.1556 0.62647 0.0
H134 H 0.60595 0.15624 0.5978 0.0
H135 H 0.6099 0.99708 0.5891 0.0
H136 H 0.67639 0.00308 0.61378 0.0
H137 H 0.79336 0.18322 0.60413 0.0
H138 H 0.72548 0.17722 0.58012 0.0
O139 O 0.73004 0.06974 0.45126 0.0
O140 O 0.73431 0.15428 0.45074 0.0
O141 O 0.26197 0.99513 0.56129 0.0
O142 O 0.30084 0.08205 0.57654 0.0
C143 C 0.64813 0.08742 0.54813 0.0
C144 C 0.6136 0.08327 0.53251 0.0
C145 C 0.55743 0.07526 0.53537 0.0
C146 C 0.53498 0.06946 0.5538 0.0
C147 C 0.56887 0.07168 0.5694 0.0
C148 C 0.62592 0.08163 0.56658 0.0
C149 C 0.70815 0.09891 0.54475 0.0
C150 C 0.71978 0.05358 0.54444 0.0
C151 C 0.77053 0.05996 0.53602 0.0
C152 C 0.80955 0.11157 0.5278 0.0
C153 C 0.8005 0.15863 0.52984 0.0
C154 C 0.75029 0.15247 0.53842 0.0
C155 C 0.63743 0.08892 0.51312 0.0
C156 C 0.64559 0.04519 0.50446 0.0
C157 C 0.67194 0.05216 0.48685 0.0
C158 C 0.69021 0.10288 0.47753 0.0
C159 C 0.68094 0.14619 0.48613 0.0
C160 C 0.65487 0.13929 0.50379 0.0
C161 C 0.52362 0.07611 0.51912 0.0
C162 C 0.50235 0.03167 0.50466 0.0
C163 C 0.47387 0.03463 0.48879 0.0
C164 C 0.46598 0.08203 0.48717 0.0
C165 C 0.48669 0.12602 0.50187 0.0
C166 C 0.5154 0.12315 0.51766 0.0
C167 C 0.47621 0.06225 0.55681 0.0
C168 C 0.42592 0.01094 0.55028 0.0
C169 C 0.37061 0.00362 0.5535 0.0
C170 C 0.36466 0.04754 0.56332 0.0
C171 C 0.41529 0.09906 0.56972 0.0
C172 C 0.47055 0.1064 0.56642 0.0
C173 C 0.54511 0.06703 0.58869 0.0
C174 C 0.49476 0.01594 0.59339 0.0
C175 C 0.46395 0.01569 0.60958 0.0
C176 C 0.48331 0.06651 0.62136 0.0
C177 C 0.53663 0.11611 0.61746 0.0
C178 C 0.56721 0.1164 0.60122 0.0
C179 C 0.66306 0.08661 0.58279 0.0
C180 C 0.64941 0.03801 0.5926 0.0
C181 C 0.68776 0.04143 0.60654 0.0
C182 C 0.74055 0.09352 0.61083 0.0
C183 C 0.75292 0.1426 0.60136 0.0
C184 C 0.71441 0.1392 0.58753 0.0
C185 C 0.71942 0.11068 0.45903 0.0
C186 C 0.306 0.03978 0.56694 0.0
H187 H 0.67754 0.77358 0.01351 0.0
H188 H 0.24112 0.26387 0.86999 0.0
H189 H 0.62251 0.7734 0.91074 0.0
H190 H 0.7065 0.84939 0.92934 0.0
H191 H 0.79363 0.75123 0.92151 0.0
H192 H 0.70974 0.67575 0.90272 0.0
H193 H 0.54749 0.69689 0.94148 0.0
H194 H 0.5915 0.7359 0.97303 0.0
H195 H 0.6916 0.65023 0.96564 0.0
H196 H 0.64715 0.61154 0.93413 0.0
H197 H 0.42618 0.56776 0.93279 0.0
H198 H 0.37755 0.50162 0.95788 0.0
H199 H 0.49717 0.43797 0.94994 0.0
H200 H 0.54602 0.5051 0.92534 0.0
H201 H 0.38962 0.55041 0.88789 0.0
H202 H 0.29732 0.46102 0.87978 0.0
H203 H 0.38547 0.36365 0.88189 0.0
H204 H 0.47751 0.45348 0.88982 0.0
H205 H 0.4624 0.62744 0.85936 0.0
H206 H 0.40127 0.57586 0.83111 0.0
H207 H 0.47671 0.46641 0.82657 0.0
H208 H 0.53714 0.5179 0.85477 0.0
H209 H 0.60989 0.75171 0.86983 0.0
H210 H 0.67689 0.80305 0.84454 0.0
H211 H 0.7094 0.66174 0.8343 0.0
H212 H 0.64216 0.61086 0.85939 0.0
O213 O 0.65947 0.75644 0.00123 0.0
O214 O 0.71005 0.71167 0.99669 0.0
O215 O 0.23374 0.3519 0.87227 0.0
O216 O 0.27686 0.29978 0.87334 0.0
C217 C 0.60351 0.6661 0.9009 0.0
C218 C 0.57138 0.63233 0.91589 0.0
C219 C 0.5187 0.57997 0.91208 0.0
C220 C 0.49629 0.56275 0.89344 0.0
C221 C 0.52842 0.59639 0.87843 0.0
C222 C 0.58298 0.64725 0.88208 0.0
C223 C 0.66025 0.71927 0.90543 0.0
C224 C 0.66101 0.76981 0.91221 0.0
C225 C 0.7088 0.81294 0.9229 0.0
C226 C 0.75592 0.80552 0.92704 0.0
C227 C 0.75749 0.75757 0.9186 0.0
C228 C 0.71003 0.71484 0.90772 0.0
C229 C 0.59414 0.65142 0.93562 0.0
C230 C 0.57841 0.68611 0.94682 0.0
C231 C 0.60382 0.70851 0.96479 0.0
C232 C 0.64528 0.6964 0.97183 0.0
C233 C 0.65989 0.66047 0.96064 0.0
C234 C 0.63445 0.63814 0.94269 0.0
C235 C 0.48948 0.54104 0.92739 0.0
C236 C 0.44183 0.53964 0.93662 0.0
C237 C 0.41408 0.50171 0.95084 0.0
C238 C 0.43361 0.46461 0.95594 0.0
C239 C 0.48168 0.46662 0.94661 0.0
C240 C 0.5094 0.50459 0.93248 0.0
C241 C 0.43998 0.5082 0.88947 0.0
C242 C 0.38873 0.50965 0.88667 0.0
C243 C 0.33617 0.45858 0.88202 0.0
C244 C 0.33403 0.40515 0.88017 0.0
C245 C 0.38556 0.40399 0.8832 0.0
C246 C 0.43811 0.45514 0.88779 0.0
C247 C 0.50435 0.57655 0.85895 0.0
C248 C 0.46716 0.59372 0.85182 0.0
C249 C 0.43196 0.56392 0.83584 0.0
C250 C 0.43403 0.51695 0.82673 0.0
C251 C 0.47466 0.50284 0.83315 0.0
C252 C 0.50933 0.53225 0.84921 0.0
C253 C 0.62094 0.67748 0.86628 0.0
C254 C 0.63125 0.73185 0.86199 0.0
C255 C 0.66971 0.76114 0.84764 0.0
C256 C 0.69841 0.73639 0.8374 0.0
C257 C 0.68733 0.68157 0.84169 0.0
C258 C 0.64905 0.65248 0.85603 0.0
C259 C 0.6736 0.72176 0.99065 0.0
C260 C 0.27844 0.35084 0.87503 0.0
H261 H 0.93789 0.10304 0.10317 0.0
H262 H 0.10763 0.14193 0.12309 0.0
H263 H 0.92994 0.15676 0.13118 0.0
H264 H 0.09902 0.19396 0.15116 0.0
H265 H 0.10179 0.35499 0.17892 0.0
H266 H 0.104 0.28594 0.15566 0.0
H267 H 0.9225 0.1639 0.16583 0.0
H268 H 0.9203 0.23366 0.18938 0.0
C269 C 0.97297 0.12214 0.11367 0.0
C270 C 0.02379 0.11916 0.11077 0.0
C271 C 0.96829 0.15259 0.12977 0.0
C272 C 0.01421 0.18019 0.14327 0.0
C273 C 0.06346 0.17424 0.14083 0.0
C274 C 0.06831 0.14432 0.12474 0.0
C275 C 0.06276 0.31285 0.17667 0.0
C276 C 0.01096 0.29971 0.1861 0.0
C277 C 0.06397 0.27321 0.16325 0.0
C278 C 0.0134 0.21938 0.15889 0.0
C279 C 0.96197 0.20531 0.16875 0.0
C280 C 0.96078 0.24511 0.18225 0.0
H281 H 0.03262 0.16946 0.43147 0.0
H282 H 0.03537 0.03156 0.45815 0.0
H283 H 0.9768 0.17935 0.45741 0.0
H284 H 0.97592 0.03862 0.4837 0.0
H285 H 0.89862 0.09083 0.53389 0.0
H286 H 0.96777 0.0908 0.51051 0.0
H287 H 0.88166 0.13 0.46766 0.0
H288 H 0.81588 0.13321 0.49116 0.0
C289 C 0.02078 0.14093 0.44288 0.0
C290 C 0.03766 0.09935 0.44276 0.0
C291 C 0.98843 0.14628 0.45771 0.0
C292 C 0.97074 0.10906 0.47254 0.0
C293 C 0.98912 0.0684 0.47264 0.0
C294 C 0.02282 0.064 0.45796 0.0
C295 C 0.89548 0.10015 0.51948 0.0
C296 C 0.85296 0.11303 0.5143 0.0
C297 C 0.93458 0.0997 0.50606 0.0
C298 C 0.93084 0.11097 0.48718 0.0
C299 C 0.88736 0.12297 0.48212 0.0
C300 C 0.84933 0.12452 0.49555 0.0
H301 H 0.0098 0.96656 0.777 0.0
H302 H 0.87787 0.8735 0.73302 0.0
H303 H 0.93988 0.90969 0.80056 0.0
H304 H 0.80768 0.81747 0.75664 0.0
H305 H 0.71166 0.69316 0.80278 0.0
H306 H 0.78422 0.74455 0.77907 0.0
H307 H 0.85268 0.90299 0.81468 0.0
H308 H 0.78168 0.85118 0.83868 0.0
C309 C 0.966 0.93375 0.77234 0.0
C310 C 0.94934 0.92477 0.75314 0.0
C311 C 0.9258 0.90147 0.78586 0.0
C312 C 0.86805 0.85948 0.7805 0.0
C313 C 0.85194 0.8492 0.76123 0.0
C314 C 0.89216 0.88147 0.74769 0.0
C315 C 0.74252 0.73888 0.8056 0.0
C316 C 0.74095 0.76809 0.82262 0.0
C317 C 0.78374 0.76841 0.79194 0.0
C318 C 0.82436 0.82781 0.79501 0.0
C319 C 0.82254 0.85706 0.81199 0.0
C320 C 0.78131 0.82755 0.82563 0.0
H321 H 0.10348 0.87137 0.05696 0.0
H322 H 0.18815 0.00612 0.10178 0.0
H323 H 0.10259 0.80155 0.07735 0.0
H324 H 0.18597 0.93637 0.12218 0.0
H325 H 0.19381 0.80413 0.15435 0.0
H326 H 0.21739 0.86961 0.12921 0.0
H327 H 0.04432 0.75869 0.10482 0.0
H328 H 0.02172 0.69216 0.12944 0.0
C329 C 0.1229 0.88634 0.07101 0.0
C330 C 0.14498 0.94407 0.07787 0.0
C331 C 0.12202 0.84626 0.08273 0.0
C332 C 0.14333 0.86322 0.10148 0.0
C333 C 0.16946 0.92185 0.1078 0.0
C334 C 0.17036 0.96185 0.09611 0.0
C335 C 0.16128 0.79314 0.14338 0.0
C336 C 0.10568 0.74328 0.14398 0.0
C337 C 0.17464 0.83086 0.12907 0.0
C338 C 0.13268 0.81952 0.11506 0.0
C339 C 0.07792 0.76843 0.11525 0.0
C340 C 0.0646 0.73073 0.12954 0.0
H341 H 0.25342 0.02281 0.38625 0.0
H342 H 0.27403 0.17656 0.41702 0.0
H343 H 0.32348 0.02209 0.40785 0.0
H344 H 0.34356 0.17546 0.43861 0.0
H345 H 0.49442 0.17745 0.46796 0.0
H346 H 0.44079 0.18435 0.44168 0.0
H347 H 0.31629 0.00138 0.44184 0.0
H348 H 0.36922 0.99451 0.46826 0.0
C349 C 0.2737 0.05707 0.39738 0.0
C350 C 0.25779 0.09946 0.40003 0.0
C351 C 0.31348 0.05637 0.40982 0.0
C352 C 0.33851 0.09835 0.42502 0.0
C353 C 0.32528 0.14273 0.42696 0.0
C354 C 0.28522 0.14319 0.41463 0.0
C355 C 0.45552 0.13871 0.46242 0.0
C356 C 0.43579 0.08551 0.47033 0.0
C357 C 0.42503 0.14266 0.44731 0.0
C358 C 0.37438 0.09344 0.43972 0.0
C359 C 0.3557 0.03992 0.44721 0.0
C360 C 0.38601 0.036 0.46237 0.0
H361 H 0.11983 0.27866 0.75809 0.0
H362 H 0.2331 0.20711 0.75848 0.0
H363 H 0.19541 0.36709 0.77514 0.0
H364 H 0.30742 0.29428 0.77566 0.0
H365 H 0.45091 0.4716 0.79318 0.0
H366 H 0.37597 0.39572 0.7719 0.0
H367 H 0.24162 0.39718 0.80675 0.0
H368 H 0.31654 0.4734 0.82785 0.0
C369 C 0.16069 0.28173 0.76182 0.0
C370 C 0.17034 0.23577 0.75697 0.0
C371 C 0.2039 0.3323 0.77159 0.0
C372 C 0.25759 0.33788 0.77662 0.0
C373 C 0.2671 0.29194 0.77167 0.0
C374 C 0.2241 0.24161 0.76197 0.0
C375 C 0.40536 0.45626 0.79608 0.0
C376 C 0.38954 0.47821 0.81217 0.0
C377 C 0.36245 0.41271 0.78397 0.0
C378 C 0.30284 0.38992 0.78778 0.0
C379 C 0.28711 0.41414 0.80332 0.0
C380 C 0.33005 0.45788 0.81539 0.0
H381 H 0.05592 0.19817 0.67665 0.0
H382 H 0.93563 0.02376 0.69155 0.0
H383 H 0.98092 0.19344 0.65592 0.0
H384 H 0.86094 0.01937 0.67098 0.0
H385 H 0.77065 0.01171 0.61513 0.0
H386 H 0.84415 0.01711 0.63653 0.0
H387 H 0.88367 0.18716 0.6583 0.0
H388 H 0.80927 0.18149 0.63713 0.0
C389 C 0.01355 0.15891 0.67553 0.0
C390 C 0.0018 0.11133 0.68572 0.0
C391 C 0.97053 0.15635 0.66375 0.0
C392 C 0.91511 0.106 0.66182 0.0
C393 C 0.90343 0.05851 0.67202 0.0
C394 C 0.9462 0.06119 0.68388 0.0
C395 C 0.79423 0.04988 0.62469 0.0
C396 C 0.78385 0.09609 0.62444 0.0
C397 C 0.83654 0.05304 0.6369 0.0
C398 C 0.86972 0.1026 0.64906 0.0
C399 C 0.8593 0.14874 0.6489 0.0
C400 C 0.81668 0.14545 0.63677 0.0
H401 H 0.00473 0.9453 0.02125 0.0
H402 H 0.9509 0.07087 0.0169 0.0
H403 H 0.94313 0.88873 0.99408 0.0
H404 H 0.88676 0.0127 0.99013 0.0
H405 H 0.82089 0.92376 0.93122 0.0
H406 H 0.886 0.98316 0.9578 0.0
H407 H 0.8454 0.8279 0.98469 0.0
H408 H 0.78312 0.76944 0.95782 0.0
C409 C 0.979 0.9604 0.01464 0.0
C410 C 0.98255 0.01248 0.02125 0.0
C411 C 0.9434 0.92778 -0.00093 0.0
C412 C 0.90969 0.94593 0.98987 0.0
C413 C 0.91281 -0.00216 0.99663 0.0
C414 C 0.94916 0.03095 0.01209 0.0
C415 C 0.82674 0.90273 0.94277 0.0
C416 C 0.79801 0.84223 0.94237 0.0
C417 C 0.86346 0.93657 0.95807 0.0
C418 C 0.87123 0.91042 0.97342 0.0
C419 C 0.84181 0.84971 0.97297 0.0
C420 C 0.80602 0.81609 0.95757 0.0
H421 H 0.03774 0.87785 0.39358 0.0
H422 H 0.0153 0.95223 0.34461 0.0
H423 H 0.01608 0.79074 0.37403 0.0
H424 H 0.99429 0.86558 0.32513 0.0
H425 H 0.92887 0.69166 0.29535 0.0
H426 H 0.9259 0.76074 0.31886 0.0
H427 H 0.07223 0.77304 0.34885 0.0
H428 H 0.0743 0.70299 0.32558 0.0
C429 C 0.02736 0.87532 0.37872 0.0
C430 C 0.02885 0.9222 0.3706 0.0
C431 C 0.0152 0.82552 0.36753 0.0
C432 C 0.00386 0.82148 0.34804 0.0
C433 C 0.0023 0.86713 0.34014 0.0
C434 C 0.01476 0.91699 0.35129 0.0
C435 C 0.9593 0.70789 0.30727 0.0
C436 C 0.00202 0.6922 0.30861 0.0
C437 C 0.95796 0.74785 0.32061 0.0
C438 C -0.00089 0.77264 0.3356 0.0
C439 C 0.03965 0.75437 0.33754 0.0
C440 C 0.04119 0.71468 0.32414 0.0
H441 H 0.30625 0.17517 0.70343 0.0
H442 H 0.18094 0.99508 0.68894 0.0
H443 H 0.37915 0.16706 0.68457 0.0
H444 H 0.25402 0.98732 0.66949 0.0
H445 H 0.41706 0.9863 0.64679 0.0
H446 H 0.34826 0.99031 0.66943 0.0
H447 H 0.39241 0.15732 0.65115 0.0
H448 H 0.46057 0.15339 0.62879 0.0
C449 C 0.29421 0.13375 0.69619 0.0
C450 C 0.23757 0.08592 0.69748 0.0
C451 C 0.33604 0.12918 0.68532 0.0
C452 C 0.32219 0.07678 0.67531 0.0
C453 C 0.26616 0.02822 0.67713 0.0
C454 C 0.22421 0.03272 0.68817 0.0
C455 C 0.41217 0.02394 0.64775 0.0
C456 C 0.4448 0.06985 0.63618 0.0
C457 C 0.3727 0.02614 0.66064 0.0
C458 C 0.36513 0.07428 0.66218 0.0
C459 C 0.39811 0.12019 0.65066 0.0
C460 C 0.4374 0.11802 0.63785 0.0
H461 H 0.19681 0.2394 0.03887 0.0
H462 H 0.3116 0.17314 0.0246 0.0
H463 H 0.25241 0.31913 0.01886 0.0
H464 H 0.36707 0.25308 0.00445 0.0
H465 H 0.48225 0.43479 0.98349 0.0
H466 H 0.4316 0.36126 0.00613 0.0
H467 H 0.2656 0.32646 0.98405 0.0
H468 H 0.31595 0.39907 0.96121 0.0
C469 C 0.23416 0.24203 0.03158 0.0
C470 C 0.24963 0.19973 0.03324 0.0
C471 C 0.26577 0.28757 0.02004 0.0
C472 C 0.31376 0.29205 0.01003 0.0
C473 C 0.33045 0.25085 0.01213 0.0
C474 C 0.29854 0.20497 0.02358 0.0
C475 C 0.43493 0.41126 0.98341 0.0
C476 C 0.4031 0.42265 0.97051 0.0
C477 C 0.40602 0.36928 0.99639 0.0
C478 C 0.34474 0.33818 0.99682 0.0
C479 C 0.31293 0.35035 0.9842 0.0
C480 C 0.34179 0.39204 0.97115 0.0
H481 H 0.12329 0.20939 0.33772 0.0
H482 H 0.00101 0.2247 0.37509 0.0
H483 H 0.11424 0.27102 0.31606 0.0
H484 H 0.99377 0.28814 0.35394 0.0
H485 H 0.94448 0.34843 0.303 0.0
H486 H 0.95411 0.28661 0.32428 0.0
H487 H 0.13798 0.36674 0.31195 0.0
H488 H 0.1274 0.42543 0.28967 0.0
C489 C 0.09503 0.2265 0.34141 0.0
C490 C 0.06267 0.21199 0.35805 0.0
C491 C 0.09001 0.26208 0.32904 0.0
C492 C 0.05307 0.28451 0.33318 0.0
C493 C 0.02166 0.27075 0.35006 0.0
C494 C 0.02613 0.23466 0.36228 0.0
C495 C 0.98681 0.3524 0.30464 0.0
C496 C 0.03512 0.39209 0.2946 0.0
C497 C 0.99257 0.31746 0.31708 0.0
C498 C 0.04692 0.32171 0.31993 0.0
C499 C 0.09529 0.36168 0.30997 0.0
C500 C 0.08939 0.39613 0.29739 0.0
loop_
_geom_bond_atom_site_label_1
_geom_bond_atom_site_label_2
_geom_bond_distance
_geom_bond_site_symmetry_2
_ccdc_geom_bond_type
C0 O1 1.160 . S
C0 O7 1.185 . S
O1 C0 1.160 . S
O2 Zn3 1.899 . S
O2 C10 1.284 . S
Zn3 O2 1.899 . S
Zn3 O4 2.032 . S
Zn3 O7 2.086 . S
Zn3 O12 1.977 . S
O4 Zn3 2.032 . S
O4 C8 1.278 . S
C5 O6 1.203 . S
C5 O12 1.267 . S
O6 C5 1.203 . S
O7 C0 1.185 . S
O7 Zn3 2.086 . S
C8 O4 1.278 . S
C8 O9 1.211 . S
O9 C8 1.211 . S
C10 O2 1.284 . S
C10 O11 1.273 . S
O11 C10 1.273 . S
O12 Zn3 1.977 . S
O12 C5 1.267 . S
C13 O14 1.160 . S
C13 O20 1.185 . S
O14 C13 1.160 . S
O15 Zn16 1.899 . S
O15 C23 1.284 1_545 S
Zn16 O15 1.899 . S
Zn16 O17 2.032 . S
Zn16 O20 2.086 . S
Zn16 O25 1.977 . S
O17 Zn16 2.032 . S
O17 C21 1.278 . S
C18 O19 1.203 . S
C18 O25 1.267 . S
O19 C18 1.203 . S
O20 C13 1.185 . S
O20 Zn16 2.086 . S
C21 O17 1.278 . S
C21 O22 1.211 . S
O22 C21 1.211 . S
C23 O15 1.284 1_565 S
C23 O24 1.273 . S
O24 C23 1.273 . S
O25 Zn16 1.977 . S
O25 C18 1.267 . S
C26 O27 1.160 . S
C26 O33 1.185 . S
O27 C26 1.160 . S
O28 Zn29 1.899 . S
O28 C36 1.284 . S
Zn29 O28 1.899 . S
Zn29 O30 2.032 . S
Zn29 O33 2.086 . S
Zn29 O38 1.977 . S
O30 Zn29 2.032 . S
O30 C34 1.278 . S
C31 O32 1.203 1_565 S
C31 O38 1.267 1_565 S
O32 C31 1.203 1_545 S
O33 C26 1.185 . S
O33 Zn29 2.086 . S
C34 O30 1.278 . S
C34 O35 1.211 . S
O35 C34 1.211 . S
C36 O28 1.284 . S
C36 O37 1.273 . S
O37 C36 1.273 . S
O38 Zn29 1.977 . S
O38 C31 1.267 1_545 S
H39 O65 0.856 . S
H40 O68 0.854 . S
H41 C76 0.930 . S
H42 C77 0.930 . S
H43 C79 0.930 . S
H44 C80 0.930 . S
H45 C82 0.931 1_655 S
H46 C83 0.930 1_655 S
H47 C85 0.930 . S
H48 C86 0.929 . S
H49 C88 0.930 1_655 S
H50 C89 0.931 1_655 S
H51 C91 0.930 . S
H52 C92 0.929 . S
H53 C94 0.931 1_655 S
H54 C95 0.930 1_655 S
H55 C97 0.930 . S
H56 C98 0.932 . S
H57 C100 0.928 1_655 S
H58 C101 0.929 . S
H59 C103 0.931 . S
H60 C104 0.930 . S
H61 C106 0.929 1_655 S
H62 C107 0.931 1_655 S
H63 C109 0.930 . S
H64 C110 0.929 . S
O65 H39 0.856 . S
O65 C111 1.300 . S
O66 C111 1.209 . S
O67 C112 1.199 . S
O68 H40 0.854 . S
O68 C112 1.297 . S
C69 C70 1.404 . S
C69 C74 1.397 . S
C69 C75 1.492 . S
C70 C69 1.404 . S
C70 C71 1.396 . S
C70 C81 1.492 . S
C71 C70 1.396 . S
C71 C72 1.397 . S
C71 C87 1.509 . S
C72 C71 1.397 . S
C72 C73 1.412 . S
C72 C93 1.485 . S
C73 C72 1.412 . S
C73 C74 1.388 . S
C73 C99 1.490 . S
C74 C69 1.397 . S
C74 C73 1.388 . S
C74 C105 1.519 . S
C75 C69 1.492 . S
C75 C76 1.363 1_455 S
C75 C80 1.390 . S
C76 H41 0.930 . S
C76 C75 1.363 1_655 S
C76 C77 1.372 . S
C77 H42 0.930 . S
C77 C76 1.372 . S
C77 C78 1.383 1_655 S
C78 C77 1.383 1_455 S
C78 C79 1.395 . S
C79 H43 0.930 . S
C79 C78 1.395 . S
C79 C80 1.362 . S
C80 H44 0.930 . S
C80 C75 1.390 . S
C80 C79 1.362 . S
C81 C70 1.492 . S
C81 C82 1.377 . S
C81 C86 1.397 . S
C82 H45 0.931 1_455 S
C82 C81 1.377 . S
C82 C83 1.376 . S
C83 H46 0.930 1_455 S
C83 C82 1.376 . S
C83 C84 1.376 . S
C84 C83 1.376 . S
C84 C85 1.378 . S
C84 C111 1.486 . S
C85 H47 0.930 . S
C85 C84 1.378 . S
C85 C86 1.376 . S
C86 H48 0.929 . S
C86 C81 1.397 . S
C86 C85 1.376 . S
C87 C71 1.509 . S
C87 C88 1.391 . S
C87 C92 1.386 . S
C88 H49 0.930 1_455 S
C88 C87 1.391 . S
C88 C89 1.375 . S
C89 H50 0.931 1_455 S
C89 C88 1.375 . S
C89 C90 1.375 . S
C90 C89 1.375 . S
C90 C91 1.361 . S
C91 H51 0.930 . S
C91 C90 1.361 . S
C91 C92 1.399 . S
C92 H52 0.929 . S
C92 C87 1.386 . S
C92 C91 1.399 . S
C93 C72 1.485 . S
C93 C94 1.394 . S
C93 C98 1.360 . S
C94 H53 0.931 1_455 S
C94 C93 1.394 . S
C94 C95 1.372 . S
C95 H54 0.930 1_455 S
C95 C94 1.372 . S
C95 C96 1.397 . S
C96 C95 1.397 . S
C96 C97 1.390 . S
C96 C112 1.476 . S
C97 H55 0.930 . S
C97 C96 1.390 . S
C97 C98 1.366 . S
C98 H56 0.932 . S
C98 C93 1.360 . S
C98 C97 1.366 . S
C99 C73 1.490 . S
C99 C100 1.383 . S
C99 C104 1.386 . S
C100 H57 0.928 1_455 S
C100 C99 1.383 . S
C100 C101 1.380 1_455 S
C101 H58 0.929 . S
C101 C100 1.380 1_655 S
C101 C102 1.371 1_655 S
C102 C101 1.371 1_455 S
C102 C103 1.380 . S
C103 H59 0.931 . S
C103 C102 1.380 . S
C103 C104 1.387 . S
C104 H60 0.930 . S
C104 C99 1.386 . S
C104 C103 1.387 . S
C105 C74 1.519 . S
C105 C106 1.377 . S
C105 C110 1.361 . S
C106 H61 0.929 1_455 S
C106 C105 1.377 . S
C106 C107 1.386 . S
C107 H62 0.931 1_455 S
C107 C106 1.386 . S
C107 C108 1.363 . S
C108 C107 1.363 . S
C108 C109 1.385 . S
C109 H63 0.930 . S
C109 C108 1.385 . S
C109 C110 1.396 . S
C110 H64 0.929 . S
C110 C105 1.361 . S
C110 C109 1.396 . S
C111 O65 1.300 . S
C111 O66 1.209 . S
C111 C84 1.486 . S
C112 O67 1.199 . S
C112 O68 1.297 . S
C112 C96 1.476 . S
H113 O139 0.856 . S
H114 O142 0.854 . S
H115 C150 0.928 1_565 S
H116 C151 0.930 1_565 S
H117 C153 0.930 . S
H118 C154 0.930 . S
H119 C156 0.931 . S
H120 C157 0.930 . S
H121 C159 0.930 . S
H122 C160 0.929 . S
H123 C162 0.930 . S
H124 C163 0.931 . S
H125 C165 0.930 . S
H126 C166 0.929 . S
H127 C168 0.931 . S
H128 C169 0.930 . S
H129 C171 0.930 . S
H130 C172 0.932 . S
H131 C174 0.930 . S
H132 C175 0.929 1_565 S
H133 C177 0.931 . S
H134 C178 0.930 . S
H135 C180 0.929 . S
H136 C181 0.931 . S
H137 C183 0.930 . S
H138 C184 0.929 . S
O139 H113 0.856 . S
O139 C185 1.300 . S
O140 C185 1.209 . S
O141 C186 1.199 . S
O142 H114 0.854 . S
O142 C186 1.297 . S
C143 C144 1.404 . S
C143 C148 1.397 . S
C143 C149 1.492 . S
C144 C143 1.404 . S
C144 C145 1.396 . S
C144 C155 1.492 . S
C145 C144 1.396 . S
C145 C146 1.397 . S
C145 C161 1.509 . S
C146 C145 1.397 . S
C146 C147 1.412 . S
C146 C167 1.485 . S
C147 C146 1.412 . S
C147 C148 1.388 . S
C147 C173 1.490 . S
C148 C143 1.397 . S
C148 C147 1.388 . S
C148 C179 1.519 . S
C149 C143 1.492 . S
C149 C150 1.363 . S
C149 C154 1.390 . S
C150 H115 0.928 1_545 S
C150 C149 1.363 . S
C150 C151 1.372 . S
C151 H116 0.930 1_545 S
C151 C150 1.372 . S
C151 C152 1.383 . S
C152 C151 1.383 . S
C152 C153 1.395 . S
C153 H117 0.930 . S
C153 C152 1.395 . S
C153 C154 1.362 . S
C154 H118 0.930 . S
C154 C149 1.390 . S
C154 C153 1.362 . S
C155 C144 1.492 . S
C155 C156 1.377 . S
C155 C160 1.397 . S
C156 H119 0.931 . S
C156 C155 1.377 . S
C156 C157 1.376 . S
C157 H120 0.930 . S
C157 C156 1.376 . S
C157 C158 1.376 . S
C158 C157 1.376 . S
C158 C159 1.378 . S
C158 C185 1.486 . S
C159 H121 0.930 . S
C159 C158 1.378 . S
C159 C160 1.376 . S
C160 H122 0.929 . S
C160 C155 1.397 . S
C160 C159 1.376 . S
C161 C145 1.509 . S
C161 C162 1.391 . S
C161 C166 1.386 . S
C162 H123 0.930 . S
C162 C161 1.391 . S
C162 C163 1.375 . S
C163 H124 0.931 . S
C163 C162 1.375 . S
C163 C164 1.375 . S
C164 C163 1.375 . S
C164 C165 1.361 . S
C165 H125 0.930 . S
C165 C164 1.361 . S
C165 C166 1.399 . S
C166 H126 0.929 . S
C166 C161 1.386 . S
C166 C165 1.399 . S
C167 C146 1.485 . S
C167 C168 1.394 . S
C167 C172 1.360 . S
C168 H127 0.931 . S
C168 C167 1.394 . S
C168 C169 1.372 . S
C169 H128 0.930 . S
C169 C168 1.372 . S
C169 C170 1.397 . S
C170 C169 1.397 . S
C170 C171 1.390 . S
C170 C186 1.476 . S
C171 H129 0.930 . S
C171 C170 1.390 . S
C171 C172 1.366 . S
C172 H130 0.932 . S
C172 C167 1.360 . S
C172 C171 1.366 . S
C173 C147 1.490 . S
C173 C174 1.380 . S
C173 C178 1.386 . S
C174 H131 0.930 . S
C174 C173 1.380 . S
C174 C175 1.381 . S
C175 H132 0.929 1_545 S
C175 C174 1.381 . S
C175 C176 1.371 . S
C176 C175 1.371 . S
C176 C177 1.380 . S
C177 H133 0.931 . S
C177 C176 1.380 . S
C177 C178 1.387 . S
C178 H134 0.930 . S
C178 C173 1.386 . S
C178 C177 1.387 . S
C179 C148 1.519 . S
C179 C180 1.377 . S
C179 C184 1.361 . S
C180 H135 0.929 . S
C180 C179 1.377 . S
C180 C181 1.386 . S
C181 H136 0.931 . S
C181 C180 1.386 . S
C181 C182 1.363 . S
C182 C181 1.363 . S
C182 C183 1.385 . S
C183 H137 0.930 . S
C183 C182 1.385 . S
C183 C184 1.396 . S
C184 H138 0.929 . S
C184 C179 1.361 . S
C184 C183 1.396 . S
C185 O139 1.300 . S
C185 O140 1.209 . S
C185 C158 1.486 . S
C186 O141 1.199 . S
C186 O142 1.297 . S
C186 C170 1.476 . S
H187 O213 0.856 . S
H188 O216 0.854 . S
H189 C224 0.930 . S
H190 C225 0.930 . S
H191 C227 0.930 . S
H192 C228 0.930 . S
H193 C230 0.931 . S
H194 C231 0.930 . S
H195 C233 0.930 . S
H196 C234 0.929 . S
H197 C236 0.930 . S
H198 C237 0.931 . S
H199 C239 0.930 . S
H200 C240 0.929 . S
H201 C242 0.931 . S
H202 C243 0.930 . S
H203 C245 0.930 . S
H204 C246 0.932 . S
H205 C248 0.930 . S
H206 C249 0.929 . S
H207 C251 0.931 . S
H208 C252 0.930 . S
H209 C254 0.929 . S
H210 C255 0.931 . S
H211 C257 0.930 . S
H212 C258 0.929 . S
O213 H187 0.856 . S
O213 C259 1.300 . S
O214 C259 1.209 . S
O215 C260 1.199 . S
O216 H188 0.854 . S
O216 C260 1.297 . S
C217 C218 1.404 . S
C217 C222 1.397 . S
C217 C223 1.492 . S
C218 C217 1.404 . S
C218 C219 1.396 . S
C218 C229 1.492 . S
C219 C218 1.396 . S
C219 C220 1.397 . S
C219 C235 1.509 . S
C220 C219 1.397 . S
C220 C221 1.412 . S
C220 C241 1.485 . S
C221 C220 1.412 . S
C221 C222 1.388 . S
C221 C247 1.490 . S
C222 C217 1.397 . S
C222 C221 1.388 . S
C222 C253 1.519 . S
C223 C217 1.492 . S
C223 C224 1.363 . S
C223 C228 1.390 . S
C224 H189 0.930 . S
C224 C223 1.363 . S
C224 C225 1.372 . S
C225 H190 0.930 . S
C225 C224 1.372 . S
C225 C226 1.383 . S
C226 C225 1.383 . S
C226 C227 1.395 . S
C227 H191 0.930 . S
C227 C226 1.395 . S
C227 C228 1.362 . S
C228 H192 0.930 . S
C228 C223 1.390 . S
C228 C227 1.362 . S
C229 C218 1.492 . S
C229 C230 1.377 . S
C229 C234 1.397 . S
C230 H193 0.931 . S
C230 C229 1.377 . S
C230 C231 1.376 . S
C231 H194 0.930 . S
C231 C230 1.376 . S
C231 C232 1.376 . S
C232 C231 1.376 . S
C232 C233 1.378 . S
C232 C259 1.486 1_556 S
C233 H195 0.930 . S
C233 C232 1.378 . S
C233 C234 1.376 . S
C234 H196 0.929 . S
C234 C229 1.397 . S
C234 C233 1.376 . S
C235 C219 1.509 . S
C235 C236 1.391 . S
C235 C240 1.386 . S
C236 H197 0.930 . S
C236 C235 1.391 . S
C236 C237 1.375 . S
C237 H198 0.931 . S
C237 C236 1.375 . S
C237 C238 1.375 . S
C238 C237 1.375 . S
C238 C239 1.361 . S
C239 H199 0.930 . S
C239 C238 1.361 . S
C239 C240 1.399 . S
C240 H200 0.929 . S
C240 C235 1.386 . S
C240 C239 1.399 . S
C241 C220 1.485 . S
C241 C242 1.394 . S
C241 C246 1.360 . S
C242 H201 0.931 . S
C242 C241 1.394 . S
C242 C243 1.372 . S
C243 H202 0.930 . S
C243 C242 1.372 . S
C243 C244 1.397 . S
C244 C243 1.397 . S
C244 C245 1.390 . S
C244 C260 1.476 . S
C245 H203 0.930 . S
C245 C244 1.390 . S
C245 C246 1.366 . S
C246 H204 0.932 . S
C246 C241 1.360 . S
C246 C245 1.366 . S
C247 C221 1.490 . S
C247 C248 1.380 . S
C247 C252 1.386 . S
C248 H205 0.930 . S
C248 C247 1.380 . S
C248 C249 1.381 . S
C249 H206 0.929 . S
C249 C248 1.381 . S
C249 C250 1.371 . S
C250 C249 1.371 . S
C250 C251 1.380 . S
C251 H207 0.931 . S
C251 C250 1.380 . S
C251 C252 1.387 . S
C252 H208 0.930 . S
C252 C247 1.386 . S
C252 C251 1.387 . S
C253 C222 1.519 . S
C253 C254 1.377 . S
C253 C258 1.361 . S
C254 H209 0.929 . S
C254 C253 1.377 . S
C254 C255 1.386 . S
C255 H210 0.931 . S
C255 C254 1.386 . S
C255 C256 1.363 . S
C256 C255 1.363 . S
C256 C257 1.385 . S
C257 H211 0.930 . S
C257 C256 1.385 . S
C257 C258 1.396 . S
C258 H212 0.929 . S
C258 C253 1.361 . S
C258 C257 1.396 . S
C259 O213 1.300 . S
C259 O214 1.209 . S
C259 C232 1.486 1_554 S
C260 O215 1.199 . S
C260 O216 1.297 . S
C260 C244 1.476 . S
H261 C269 0.946 1_655 S
H262 C274 0.950 . S
H263 C271 0.950 . S
H264 C273 0.950 . S
H265 C275 0.950 . S
H266 C277 0.950 . S
H267 C279 0.950 . S
H268 C280 0.950 . S
C269 H261 0.946 1_455 S
C269 C270 1.392 . S
C269 C271 1.389 1_455 S
C270 C269 1.392 . S
C270 C274 1.393 . S
C271 H263 0.950 . S
C271 C269 1.389 1_655 S
C271 C272 1.400 1_655 S
C272 C271 1.400 1_455 S
C272 C273 1.398 . S
C272 C278 1.491 . S
C273 H264 0.950 . S
C273 C272 1.398 . S
C273 C274 1.391 . S
C274 H262 0.950 . S
C274 C270 1.393 . S
C274 C273 1.391 . S
C275 H265 0.950 . S
C275 C276 1.386 . S
C275 C277 1.391 . S
C276 C275 1.386 . S
C276 C280 1.393 1_455 S
C277 H266 0.950 . S
C277 C275 1.391 . S
C277 C278 1.400 . S
C278 C272 1.491 . S
C278 C277 1.400 . S
C278 C279 1.398 1_455 S
C279 H267 0.950 . S
C279 C278 1.398 1_655 S
C279 C280 1.391 . S
C280 H268 0.950 . S
C280 C276 1.393 1_655 S
C280 C279 1.391 . S
H281 C289 0.950 1_455 S
H282 C294 0.950 1_565 S
H283 C291 0.950 . S
H284 C293 0.950 1_565 S
H285 C295 0.950 1_565 S
H286 C297 0.950 1_565 S
H287 C299 0.950 . S
H288 C300 0.950 . S
C289 H281 0.950 1_655 S
C289 C290 1.386 . S
C289 C291 1.391 . S
C290 C289 1.386 . S
C290 C294 1.393 . S
C291 H283 0.950 . S
C291 C289 1.391 . S
C291 C292 1.400 . S
C292 C291 1.400 . S
C292 C293 1.398 . S
C292 C298 1.491 . S
C293 H284 0.950 1_545 S
C293 C292 1.398 . S
C293 C294 1.391 . S
C294 H282 0.950 1_545 S
C294 C290 1.393 . S
C294 C293 1.391 . S
C295 H285 0.950 1_545 S
C295 C296 1.386 . S
C295 C297 1.391 . S
C296 C295 1.386 . S
C296 C300 1.393 . S
C297 H286 0.950 1_545 S
C297 C295 1.391 . S
C297 C298 1.400 . S
C298 C292 1.491 . S
C298 C297 1.400 . S
C298 C299 1.398 . S
C299 H287 0.950 . S
C299 C298 1.398 . S
C299 C300 1.391 . S
C300 H288 0.950 . S
C300 C296 1.393 . S
C300 C299 1.391 . S
H301 C309 0.950 1_455 S
H302 C314 0.950 . S
H303 C311 0.950 . S
H304 C313 0.950 . S
H305 C315 0.950 . S
H306 C317 0.950 . S
H307 C319 0.950 . S
H308 C320 0.950 . S
C309 H301 0.950 1_655 S
C309 C310 1.386 . S
C309 C311 1.391 . S
C310 C309 1.386 . S
C310 C314 1.393 . S
C311 H303 0.950 . S
C311 C309 1.391 . S
C311 C312 1.400 . S
C312 C311 1.400 . S
C312 C313 1.398 . S
C312 C318 1.491 . S
C313 H304 0.950 . S
C313 C312 1.398 . S
C313 C314 1.391 . S
C314 H302 0.950 . S
C314 C310 1.393 . S
C314 C313 1.391 . S
C315 H305 0.950 . S
C315 C316 1.386 . S
C315 C317 1.391 . S
C316 C315 1.386 . S
C316 C320 1.393 . S
C317 H306 0.950 . S
C317 C315 1.391 . S
C317 C318 1.400 . S
C318 C312 1.491 . S
C318 C317 1.400 . S
C318 C319 1.398 . S
C319 H307 0.950 . S
C319 C318 1.398 . S
C319 C320 1.391 . S
C320 H308 0.950 . S
C320 C316 1.393 . S
C320 C319 1.391 . S
H321 C329 0.950 . S
H322 C334 0.950 1_545 S
H323 C331 0.950 . S
H324 C333 0.950 . S
H325 C335 0.950 . S
H326 C337 0.950 . S
H327 C339 0.950 . S
H328 C340 0.942 1_655 S
C329 H321 0.950 . S
C329 C330 1.386 . S
C329 C331 1.391 . S
C330 C329 1.386 . S
C330 C334 1.393 . S
C331 H323 0.950 . S
C331 C329 1.391 . S
C331 C332 1.400 . S
C332 C331 1.400 . S
C332 C333 1.398 . S
C332 C338 1.491 . S
C333 H324 0.950 . S
C333 C332 1.398 . S
C333 C334 1.391 . S
C334 H322 0.950 1_565 S
C334 C330 1.393 . S
C334 C333 1.391 . S
C335 H325 0.950 . S
C335 C336 1.386 . S
C335 C337 1.391 . S
C336 C335 1.386 . S
C336 C340 1.393 . S
C337 H326 0.950 . S
C337 C335 1.391 . S
C337 C338 1.400 . S
C338 C332 1.491 . S
C338 C337 1.400 . S
C338 C339 1.398 . S
C339 H327 0.950 . S
C339 C338 1.398 . S
C339 C340 1.391 . S
C340 H328 0.942 1_455 S
C340 C336 1.393 . S
C340 C339 1.391 . S
H341 C349 0.950 . S
H342 C354 0.950 . S
H343 C351 0.950 . S
H344 C353 0.950 . S
H345 C355 0.950 . S
H346 C357 0.950 . S
H347 C359 0.950 . S
H348 C360 0.950 . S
C349 H341 0.950 . S
C349 C350 1.386 . S
C349 C351 1.391 . S
C350 C349 1.386 . S
C350 C354 1.393 . S
C351 H343 0.950 . S
C351 C349 1.391 . S
C351 C352 1.400 . S
C352 C351 1.400 . S
C352 C353 1.398 . S
C352 C358 1.491 . S
C353 H344 0.950 . S
C353 C352 1.398 . S
C353 C354 1.391 . S
C354 H342 0.950 . S
C354 C350 1.393 . S
C354 C353 1.391 . S
C355 H345 0.950 . S
C355 C356 1.386 . S
C355 C357 1.391 . S
C356 C355 1.386 . S
C356 C360 1.393 . S
C357 H346 0.950 . S
C357 C355 1.391 . S
C357 C358 1.400 . S
C358 C352 1.491 . S
C358 C357 1.400 . S
C358 C359 1.398 . S
C359 H347 0.950 . S
C359 C358 1.398 . S
C359 C360 1.391 . S
C360 H348 0.950 . S
C360 C356 1.393 . S
C360 C359 1.391 . S
H361 C369 0.950 . S
H362 C374 0.950 . S
H363 C371 0.950 . S
H364 C373 0.950 . S
H365 C375 0.950 . S
H366 C377 0.950 . S
H367 C379 0.950 . S
H368 C380 0.950 . S
C369 H361 0.950 . S
C369 C370 1.386 . S
C369 C371 1.391 . S
C370 C369 1.386 . S
C370 C374 1.393 . S
C371 H363 0.950 . S
C371 C369 1.391 . S
C371 C372 1.400 . S
C372 C371 1.400 . S
C372 C373 1.398 . S
C372 C378 1.491 . S
C373 H364 0.950 . S
C373 C372 1.398 . S
C373 C374 1.391 . S
C374 H362 0.950 . S
C374 C370 1.393 . S
C374 C373 1.391 . S
C375 H365 0.950 . S
C375 C376 1.386 . S
C375 C377 1.391 . S
C376 C375 1.386 . S
C376 C380 1.393 . S
C377 H366 0.950 . S
C377 C375 1.391 . S
C377 C378 1.400 . S
C378 C372 1.491 . S
C378 C377 1.400 . S
C378 C379 1.398 . S
C379 H367 0.950 . S
C379 C378 1.398 . S
C379 C380 1.391 . S
C380 H368 0.950 . S
C380 C376 1.393 . S
C380 C379 1.391 . S
H381 C389 0.950 . S
H382 C394 0.950 . S
H383 C391 0.950 . S
H384 C393 0.950 . S
H385 C395 0.950 . S
H386 C397 0.950 . S
H387 C399 0.950 . S
H388 C400 0.950 . S
C389 H381 0.950 . S
C389 C390 1.386 1_655 S
C389 C391 1.391 . S
C390 C389 1.386 1_455 S
C390 C394 1.393 . S
C391 H383 0.950 . S
C391 C389 1.391 . S
C391 C392 1.400 . S
C392 C391 1.400 . S
C392 C393 1.398 . S
C392 C398 1.491 . S
C393 H384 0.950 . S
C393 C392 1.398 . S
C393 C394 1.391 1_655 S
C394 H382 0.950 . S
C394 C390 1.393 . S
C394 C393 1.391 1_455 S
C395 H385 0.950 . S
C395 C396 1.386 . S
C395 C397 1.391 . S
C396 C395 1.386 . S
C396 C400 1.393 . S
C397 H386 0.950 . S
C397 C395 1.391 . S
C397 C398 1.400 . S
C398 C392 1.491 . S
C398 C397 1.400 . S
C398 C399 1.398 . S
C399 H387 0.950 . S
C399 C398 1.398 . S
C399 C400 1.391 . S
C400 H388 0.950 . S
C400 C396 1.393 . S
C400 C399 1.391 . S
H401 C409 0.950 . S
H402 C414 0.950 1_545 S
H403 C411 0.950 . S
H404 C413 0.950 . S
H405 C415 0.950 . S
H406 C417 0.950 . S
H407 C419 0.950 . S
H408 C420 0.950 . S
C409 H401 0.950 . S
C409 C410 1.386 . S
C409 C411 1.391 1_554 S
C410 C409 1.386 . S
C410 C414 1.393 . S
C411 H403 0.950 . S
C411 C409 1.391 1_556 S
C411 C412 1.400 . S
C412 C411 1.400 . S
C412 C413 1.398 1_556 S
C412 C418 1.491 . S
C413 H404 0.950 . S
C413 C412 1.398 1_554 S
C413 C414 1.391 . S
C414 H402 0.950 1_565 S
C414 C410 1.393 . S
C414 C413 1.391 . S
C415 H405 0.950 . S
C415 C416 1.386 . S
C415 C417 1.391 . S
C416 C415 1.386 . S
C416 C420 1.393 . S
C417 H406 0.950 . S
C417 C415 1.391 . S
C417 C418 1.400 . S
C418 C412 1.491 . S
C418 C417 1.400 . S
C418 C419 1.398 . S
C419 H407 0.950 . S
C419 C418 1.398 . S
C419 C420 1.391 . S
C420 H408 0.950 . S
C420 C416 1.393 . S
C420 C419 1.391 . S
H421 C429 0.950 . S
H422 C434 0.950 . S
H423 C431 0.950 . S
H424 C433 0.950 . S
H425 C435 0.950 . S
H426 C437 0.950 . S
H427 C439 0.950 . S
H428 C440 0.950 . S
C429 H421 0.950 . S
C429 C430 1.386 . S
C429 C431 1.391 . S
C430 C429 1.386 . S
C430 C434 1.393 . S
C431 H423 0.950 . S
C431 C429 1.391 . S
C431 C432 1.400 . S
C432 C431 1.400 . S
C432 C433 1.398 . S
C432 C438 1.491 . S
C433 H424 0.950 . S
C433 C432 1.398 . S
C433 C434 1.391 . S
C434 H422 0.950 . S
C434 C430 1.393 . S
C434 C433 1.391 . S
C435 H425 0.950 . S
C435 C436 1.386 . S
C435 C437 1.391 . S
C436 C435 1.386 . S
C436 C440 1.393 . S
C437 H426 0.950 . S
C437 C435 1.391 . S
C437 C438 1.400 . S
C438 C432 1.491 . S
C438 C437 1.400 . S
C438 C439 1.398 . S
C439 H427 0.950 . S
C439 C438 1.398 . S
C439 C440 1.391 . S
C440 H428 0.950 . S
C440 C436 1.393 . S
C440 C439 1.391 . S
H441 C449 0.950 . S
H442 C454 0.950 1_565 S
H443 C451 0.950 . S
H444 C453 0.950 1_565 S
H445 C455 0.950 1_565 S
H446 C457 0.950 1_565 S
H447 C459 0.950 . S
H448 C460 0.950 . S
C449 H441 0.950 . S
C449 C450 1.386 . S
C449 C451 1.391 . S
C450 C449 1.386 . S
C450 C454 1.393 . S
C451 H443 0.950 . S
C451 C449 1.391 . S
C451 C452 1.400 . S
C452 C451 1.400 . S
C452 C453 1.398 . S
C452 C458 1.491 . S
C453 H444 0.950 1_545 S
C453 C452 1.398 . S
C453 C454 1.391 . S
C454 H442 0.950 1_545 S
C454 C450 1.393 . S
C454 C453 1.391 . S
C455 H445 0.950 1_545 S
C455 C456 1.386 . S
C455 C457 1.391 . S
C456 C455 1.386 . S
C456 C460 1.393 . S
C457 H446 0.950 1_545 S
C457 C455 1.391 . S
C457 C458 1.400 . S
C458 C452 1.491 . S
C458 C457 1.400 . S
C458 C459 1.398 . S
C459 H447 0.950 . S
C459 C458 1.398 . S
C459 C460 1.391 . S
C460 H448 0.950 . S
C460 C456 1.393 . S
C460 C459 1.391 . S
H461 C469 0.950 . S
H462 C474 0.950 . S
H463 C471 0.950 1_556 S
H464 C473 0.950 . S
H465 C475 0.950 . S
H466 C477 0.950 1_554 S
H467 C479 0.950 . S
H468 C480 0.950 . S
C469 H461 0.950 . S
C469 C470 1.386 . S
C469 C471 1.391 . S
C470 C469 1.386 . S
C470 C474 1.393 . S
C471 H463 0.950 1_554 S
C471 C469 1.391 . S
C471 C472 1.400 . S
C472 C471 1.400 . S
C472 C473 1.398 . S
C472 C478 1.491 1_554 S
C473 H464 0.950 . S
C473 C472 1.398 . S
C473 C474 1.391 . S
C474 H462 0.950 . S
C474 C470 1.393 . S
C474 C473 1.391 . S
C475 H465 0.950 . S
C475 C476 1.386 . S
C475 C477 1.391 . S
C476 C475 1.386 . S
C476 C480 1.393 . S
C477 H466 0.950 1_556 S
C477 C475 1.391 . S
C477 C478 1.400 . S
C478 C472 1.491 1_556 S
C478 C477 1.400 . S
C478 C479 1.398 . S
C479 H467 0.950 . S
C479 C478 1.398 . S
C479 C480 1.391 . S
C480 H468 0.950 . S
C480 C476 1.393 . S
C480 C479 1.391 . S
H481 C489 0.950 . S
H482 C494 0.950 . S
H483 C491 0.950 . S
H484 C493 0.950 . S
H485 C495 0.950 . S
H486 C497 0.950 . S
H487 C499 0.950 . S
H488 C500 0.950 . S
C489 H481 0.950 . S
C489 C490 1.386 . S
C489 C491 1.391 . S
C490 C489 1.386 . S
C490 C494 1.393 . S
C491 H483 0.950 . S
C491 C489 1.391 . S
C491 C492 1.400 . S
C492 C491 1.400 . S
C492 C493 1.398 . S
C492 C498 1.491 . S
C493 H484 0.950 . S
C493 C492 1.398 . S
C493 C494 1.391 . S
C494 H482 0.950 . S
C494 C490 1.393 . S
C494 C493 1.391 . S
C495 H485 0.950 . S
C495 C496 1.386 . S
C495 C497 1.391 . S
C496 C495 1.386 . S
C496 C500 1.393 . S
C497 H486 0.950 . S
C497 C495 1.391 . S
C497 C498 1.400 . S
C498 C492 1.491 . S
C498 C497 1.400 . S
C498 C499 1.398 . S
C499 H487 0.950 . S
C499 C498 1.398 . S
C499 C500 1.391 . S
C500 H488 0.950 . S
C500 C496 1.393 . S
C500 C499 1.391 . S
C276 C78 1.318 . S
C270 C10 1.409 . S
C290 C21 1.366 1_655 S
C296 C152 1.367 . S
C310 C31 1.977 1_655 S
C316 C256 2.071 . S
C330 C0 0.763 1_565 S
C336 C90 0.734 . S
C356 C164 0.726 . S
C350 C18 0.710 . S
C370 C34 1.511 . S
C376 C250 1.424 . S
C396 C182 2.071 . S
C390 C36 2.073 . S
C410 C8 1.387 1_665 S
C416 C226 1.374 . S
C436 C102 1.397 . S
C430 C23 1.509 . S
C456 C176 1.288 . S
C450 C26 1.380 . S
C476 C238 0.751 . S
C470 C5 0.738 . S
C490 C13 2.003 . S
C496 C108 2.082 . S
