# Generated by pormake.
# Topology dag, (6,3)-cn, num edge types: 1
# Building blocks:
#     Node 0, Type 0, BuildingBlock: MIDCAF_clean_sbu_0, # of connection points: 6
#     Node 1, Type 0, BuildingBlock: MIDCAF_clean_sbu_0, # of connection points: 6
#     Node 2, Type 0, BuildingBlock: MIDCAF_clean_sbu_0, # of connection points: 6
#     Node 3, Type 0, BuildingBlock: MIDCAF_clean_sbu_0, # of connection points: 6
#     Node 4, Type 1, BuildingBlock: INOVEN_clean_linker_0, # of connection points: 3
#     Node 5, Type 1, BuildingBlock: INOVEN_clean_linker_0, # of connection points: 3
#     Node 6, Type 1, BuildingBlock: INOVEN_clean_linker_0, # of connection points: 3
#     Node 7, Type 1, BuildingBlock: INOVEN_clean_linker_0, # of connection points: 3
#     Node 8, Type 1, BuildingBlock: INOVEN_clean_linker_0, # of connection points: 3
#     Node 9, Type 1, BuildingBlock: INOVEN_clean_linker_0, # of connection points: 3
#     Node 10, Type 1, BuildingBlock: INOVEN_clean_linker_0, # of connection points: 3
#     Node 11, Type 1, BuildingBlock: INOVEN_clean_linker_0, # of connection points: 3
#     Edge 12, Type (0, 1), BuildingBlock: KIFKEQ_clean_linker_1, # of connection points: 2
#     Edge 13, Type (0, 1), BuildingBlock: KIFKEQ_clean_linker_1, # of connection points: 2
#     Edge 14, Type (0, 1), BuildingBlock: KIFKEQ_clean_linker_1, # of connection points: 2
#     Edge 15, Type (0, 1), BuildingBlock: KIFKEQ_clean_linker_1, # of connection points: 2
#     Edge 16, Type (0, 1), BuildingBlock: KIFKEQ_clean_linker_1, # of connection points: 2
#     Edge 17, Type (0, 1), BuildingBlock: KIFKEQ_clean_linker_1, # of connection points: 2
#     Edge 18, Type (0, 1), BuildingBlock: KIFKEQ_clean_linker_1, # of connection points: 2
#     Edge 19, Type (0, 1), BuildingBlock: KIFKEQ_clean_linker_1, # of connection points: 2
#     Edge 20, Type (0, 1), BuildingBlock: KIFKEQ_clean_linker_1, # of connection points: 2
#     Edge 21, Type (0, 1), BuildingBlock: KIFKEQ_clean_linker_1, # of connection points: 2
#     Edge 22, Type (0, 1), BuildingBlock: KIFKEQ_clean_linker_1, # of connection points: 2
#     Edge 23, Type (0, 1), BuildingBlock: KIFKEQ_clean_linker_1, # of connection points: 2
#     Edge 24, Type (0, 1), BuildingBlock: KIFKEQ_clean_linker_1, # of connection points: 2
#     Edge 25, Type (0, 1), BuildingBlock: KIFKEQ_clean_linker_1, # of connection points: 2
#     Edge 26, Type (0, 1), BuildingBlock: KIFKEQ_clean_linker_1, # of connection points: 2
#     Edge 27, Type (0, 1), BuildingBlock: KIFKEQ_clean_linker_1, # of connection points: 2
#     Edge 28, Type (0, 1), BuildingBlock: KIFKEQ_clean_linker_1, # of connection points: 2
#     Edge 29, Type (0, 1), BuildingBlock: KIFKEQ_clean_linker_1, # of connection points: 2
#     Edge 30, Type (0, 1), BuildingBlock: KIFKEQ_clean_linker_1, # of connection points: 2
#     Edge 31, Type (0, 1), BuildingBlock: KIFKEQ_clean_linker_1, # of connection points: 2
#     Edge 32, Type (0, 1), BuildingBlock: KIFKEQ_clean_linker_1, # of connection points: 2
#     Edge 33, Type (0, 1), BuildingBlock: KIFKEQ_clean_linker_1, # of connection points: 2
#     Edge 34, Type (0, 1), BuildingBlock: KIFKEQ_clean_linker_1, # of connection points: 2
#     Edge 35, Type (0, 1), BuildingBlock: KIFKEQ_clean_linker_1, # of connection points: 2
# Relax obj value: 0.138
# Max RMSD: 0.143
# Mean RMSD: 0.113
data_MOF--net-dag--node1-MIDCAF_clean_sbu_0--node2-INOVEN_clean_linker_0--edge1-KIFKEQ_clean_linker_1
_symmetry_space_group_name_H-M    P1
_symmetry_Int_Tables_number       1
_symmetry_cell_setting            triclinic
loop_
_symmetry_equiv_pos_as_xyz
'x, y, z'
_cell_length_a     40.468113
_cell_length_b     42.61092
_cell_length_c     31.778389
_cell_angle_alpha  92.361139
_cell_angle_beta   90.008444
_cell_angle_gamma 89.919542
loop_
_atom_site_label
_atom_site_type_symbol
_atom_site_fract_x
_atom_site_fract_y
_atom_site_fract_z
_atom_type_partial_charge
Zn0 Zn 0.12633 0.82869 0.13906 0.0
Zn1 Zn 0.11112 0.85763 0.99832 0.0
Zn2 Zn 0.12656 0.84122 0.06251 0.0
C3 C 0.13047 0.90966 0.02569 0.0
C4 C 0.08958 0.79788 1.00371 0.0
O5 O 0.15321 0.79624 0.06001 0.0
O6 O 0.15392 0.79016 0.12892 0.0
C7 C 0.15813 0.88748 0.13059 0.0
O8 O 0.14551 0.88836 0.04619 0.0
O9 O 0.10313 0.90308 1.00805 0.0
O10 O 0.07767 0.82393 0.99323 0.0
O11 O 0.11661 0.79741 0.02519 0.0
O12 O 0.14817 0.86943 0.15855 0.0
O13 O 0.15371 0.88004 0.09144 0.0
O14 O 0.07514 0.84137 0.07538 0.0
O15 O 0.07649 0.82464 0.13981 0.0
C16 C 0.06008 0.83247 0.10795 0.0
O17 O 0.15596 0.81026 0.01911 0.0
O18 O 0.15559 0.84677 0.97229 0.0
C19 C 0.16179 0.78064 0.09206 0.0
C20 C 0.16855 0.8222 0.98607 0.0
Zn21 Zn 0.6843 0.65588 0.38681 0.0
Zn22 Zn 0.61656 0.6235 0.5479 0.0
Zn23 Zn 0.65172 0.64374 0.50209 0.0
C24 C 0.64736 0.57321 0.52849 0.0
C25 C 0.59541 0.68176 0.53565 0.0
O26 O 0.6718 0.69087 0.51201 0.0
O27 O 0.68178 0.67021 0.45005 0.0
C28 C 0.70223 0.61182 0.45961 0.0
O29 O 0.66668 0.59682 0.52433 0.0
O30 O 0.61648 0.5777 0.52962 0.0
O31 O 0.58258 0.65493 0.52914 0.0
O32 O 0.62703 0.68383 0.53534 0.0
O33 O 0.69506 0.63749 0.44304 0.0
O34 O 0.69206 0.60989 0.49735 0.0
O35 O 0.62084 0.64293 0.4454 0.0
O36 O 0.63483 0.64763 0.37716 0.0
C37 C 0.61325 0.64374 0.40606 0.0
O38 O 0.66238 0.67682 0.55448 0.0
O39 O 0.65061 0.63787 0.59508 0.0
C40 C 0.68327 0.69422 0.47504 0.0
C41 C 0.66574 0.66358 0.5901 0.0
Zn42 Zn 0.85991 0.13737 0.93918 0.0
Zn43 Zn 0.81286 0.15231 0.09109 0.0
Zn44 Zn 0.83615 0.14617 0.01587 0.0
C45 C 0.8806 0.1557 0.09983 0.0
C46 C 0.79015 0.09538 0.06205 0.0
O47 O 0.80997 0.17921 0.97452 0.0
O48 O 0.8297 0.16594 0.91123 0.0
C49 C 0.9118 0.15928 0.98891 0.0
O50 O 0.87791 0.15708 0.05948 0.0
O51 O 0.85545 0.15039 0.12192 0.0
O52 O 0.78312 0.11554 0.09083 0.0
O53 O 0.81119 0.10196 0.03317 0.0
O54 O 0.90463 0.15373 0.95074 0.0
O55 O 0.88995 0.15627 0.01798 0.0
O56 O 0.82814 0.09625 0.99482 0.0
O57 O 0.85357 0.09127 0.93311 0.0
C58 C 0.83768 0.07923 0.96252 0.0
O59 O 0.80127 0.1866 0.01619 0.0
O60 O 0.79293 0.19392 0.08475 0.0
C61 C 0.81077 0.18266 0.93439 0.0
C62 C 0.78909 0.20274 0.04768 0.0
Zn63 Zn 0.38066 0.35198 0.63008 0.0
Zn64 Zn 0.31153 0.34097 0.44106 0.0
Zn65 Zn 0.34785 0.35098 0.56276 0.0
C66 C 0.38338 0.33428 0.46174 0.0
C67 C 0.31507 0.39459 0.51313 0.0
O68 O 0.32314 0.31699 0.60441 0.0
O69 O 0.35477 0.32122 0.66102 0.0
C70 C 0.42281 0.33125 0.56526 0.0
O71 O 0.37756 0.34025 0.50174 0.0
O72 O 0.36072 0.33255 0.43346 0.0
O73 O 0.31577 0.36713 0.49633 0.0
O74 O 0.32664 0.39713 0.55044 0.0
O75 O 0.42256 0.33694 0.60451 0.0
O76 O 0.39688 0.33575 0.54307 0.0
O77 O 0.34513 0.40038 0.58794 0.0
O78 O 0.37548 0.39729 0.6454 0.0
C79 C 0.35842 0.4135 0.62104 0.0
O80 O 0.30816 0.31602 0.56553 0.0
O81 O 0.30903 0.33379 0.50354 0.0
C82 C 0.33026 0.309 0.64206 0.0
C83 C 0.29686 0.31437 0.52816 0.0
H84 H 0.10095 0.17841 0.28681 0.0
H85 H 0.11065 0.10261 0.19407 0.0
H86 H 0.18073 0.11212 0.29548 0.0
N87 N 0.15298 0.16489 0.33153 0.0
N88 N 0.17747 0.15711 0.35258 0.0
C89 C 0.11398 0.15784 0.27425 0.0
C90 C 0.10251 0.14198 0.23753 0.0
C91 C 0.14215 0.14742 0.29516 0.0
C92 C 0.15909 0.12056 0.27933 0.0
C93 C 0.14813 0.10466 0.24235 0.0
C94 C 0.12001 0.11566 0.22156 0.0
H95 H 0.32827 0.64939 0.73796 0.0
H96 H 0.41794 0.64844 0.66481 0.0
H97 H 0.39187 0.73006 0.7417 0.0
N98 N 0.33626 0.704 0.77491 0.0
N99 N 0.34177 0.72935 0.79462 0.0
C100 C 0.35066 0.66063 0.72758 0.0
C101 C 0.37212 0.64474 0.69924 0.0
C102 C 0.35783 0.69085 0.74372 0.0
C103 C 0.38619 0.7065 0.72975 0.0
C104 C 0.40758 0.69121 0.70072 0.0
C105 C 0.40065 0.66035 0.68608 0.0
H106 H 0.73352 0.88341 0.20543 0.0
H107 H 0.80582 0.88374 0.10604 0.0
H108 H 0.82173 0.82786 0.21349 0.0
N109 N 0.76728 0.84223 0.25296 0.0
N110 N 0.74004 0.84751 0.27023 0.0
C111 C 0.75632 0.87467 0.19145 0.0
C112 C 0.76705 0.88592 0.15269 0.0
C113 C 0.77594 0.85317 0.21288 0.0
C114 C 0.80619 0.84321 0.19563 0.0
C115 C 0.81723 0.85415 0.15707 0.0
C116 C 0.79703 0.87476 0.1354 0.0
H117 H 0.7224 0.35525 0.64916 0.0
H118 H 0.64955 0.34749 0.55124 0.0
H119 H 0.65587 0.27668 0.64335 0.0
N120 N 0.7039 0.30594 0.68963 0.0
N121 N 0.69153 0.28453 0.71012 0.0
C122 C 0.7028 0.34228 0.63305 0.0
C123 C 0.68835 0.354 0.59673 0.0
C124 C 0.69093 0.31475 0.6503 0.0
C125 C 0.66512 0.29791 0.62998 0.0
C126 C 0.65039 0.3092 0.59341 0.0
C127 C 0.6624 0.33717 0.57719 0.0
H128 H 0.60188 0.332 0.27662 0.0
H129 H 0.61141 0.40698 0.3706 0.0
H130 H 0.68092 0.39857 0.26826 0.0
N131 N 0.65216 0.34754 0.23008 0.0
N132 N 0.67308 0.35832 0.20572 0.0
C133 C 0.61457 0.35269 0.28929 0.0
C134 C 0.60345 0.36788 0.32673 0.0
C135 C 0.642 0.36392 0.26772 0.0
C136 C 0.65919 0.39035 0.28432 0.0
C137 C 0.64877 0.40567 0.32213 0.0
C138 C 0.62067 0.39439 0.34271 0.0
H139 H 0.22877 0.12639 0.91439 0.0
H140 H 0.14852 0.12881 1.00268 0.0
H141 H 0.15902 0.20261 0.91552 0.0
N142 N 0.21244 0.17732 0.87547 0.0
N143 N 0.20096 0.1992 0.855 0.0
C144 C 0.20776 0.13849 0.92871 0.0
C145 C 0.19084 0.1251 0.96204 0.0
C146 C 0.19646 0.16637 0.91181 0.0
C147 C 0.1682 0.18136 0.92901 0.0
C148 C 0.15085 0.16813 0.96228 0.0
C149 C 0.16288 0.14037 0.97907 0.0
H150 H 0.28373 0.58581 0.29868 0.0
H151 H 0.37067 0.57856 0.37517 0.0
H152 H 0.36969 0.64107 0.27241 0.0
N153 N 0.30981 0.62849 0.24622 0.0
N154 N 0.28012 0.62419 0.23717 0.0
C155 C 0.30884 0.59289 0.30606 0.0
C156 C 0.325 0.58042 0.34083 0.0
C157 C 0.32522 0.61469 0.28113 0.0
C158 C 0.35763 0.62384 0.29126 0.0
C159 C 0.37411 0.61147 0.32578 0.0
C160 C 0.35763 0.58951 0.34983 0.0
H161 H 0.79867 0.84122 0.8706 0.0
H162 H 0.89109 0.84287 0.93817 0.0
H163 H 0.8618 0.75993 0.86645 0.0
N164 N 0.80518 0.78516 0.83555 0.0
N165 N 0.80904 0.75807 0.81989 0.0
C166 C 0.82116 0.82981 0.88043 0.0
C167 C 0.84375 0.84605 0.90695 0.0
C168 C 0.82745 0.799 0.86547 0.0
C169 C 0.85636 0.7836 0.87826 0.0
C170 C 0.87911 0.79938 0.90487 0.0
C171 C 0.87277 0.83051 0.91892 0.0
H172 H 0.20396 0.90731 0.18962 0.0
H173 H 0.1297 0.94005 0.10478 0.0
H174 H 0.21286 0.96174 0.2165 0.0
H175 H 0.13941 -0.00628 0.12933 0.0
H176 H 0.16744 0.08925 0.16206 0.0
H177 H 0.18058 0.03679 0.13305 0.0
H178 H 0.17632 0.00054 0.25778 0.0
H179 H 0.16356 0.05319 0.28692 0.0
C180 C 0.19047 0.92625 0.17572 0.0
C181 C 0.16744 0.91983 0.14345 0.0
C182 C 0.19546 0.95725 0.19107 0.0
C183 C 0.17741 0.98209 0.1743 0.0
C184 C 0.15464 0.97537 0.14185 0.0
C185 C 0.14935 0.9446 0.12723 0.0
C186 C 0.17021 0.07021 0.18336 0.0
C187 C 0.16394 0.07508 0.22659 0.0
C188 C 0.17773 0.04024 0.16679 0.0
C189 C 0.17888 0.01452 0.19304 0.0
C190 C 0.17575 0.01993 0.2368 0.0
C191 C 0.16836 0.05005 0.25347 0.0
H192 H 0.60581 0.71368 0.61024 0.0
H193 H 0.5358 0.70132 0.50868 0.0
H194 H 0.56113 0.73116 0.65751 0.0
H195 H 0.49134 0.71879 0.55534 0.0
H196 H 0.41169 0.73824 0.6455 0.0
H197 H 0.46119 0.75353 0.60668 0.0
H198 H 0.52021 0.69222 0.68151 0.0
H199 H 0.47089 0.67717 0.71974 0.0
C200 C 0.58124 0.71657 0.59738 0.0
C201 C 0.57412 0.70596 0.55596 0.0
C202 C 0.55556 0.72616 0.62458 0.0
C203 C 0.52256 0.72563 0.61046 0.0
C204 C 0.51639 0.71953 0.56735 0.0
C205 C 0.54193 0.70959 0.54042 0.0
C206 C 0.43554 0.72908 0.65451 0.0
C207 C 0.43772 0.70658 0.68542 0.0
C208 C 0.4638 0.73769 0.63227 0.0
C209 C 0.49466 0.72404 0.64086 0.0
C210 C 0.49702 0.70359 0.67441 0.0
C211 C 0.46878 0.69477 0.69622 0.0
H212 H 0.72929 0.07965 0.09108 0.0
H213 H 0.82034 0.03985 0.04301 0.0
H214 H 0.70957 0.02688 0.1062 0.0
H215 H 0.79988 0.98727 0.05476 0.0
H216 H 0.74334 0.93921 0.19275 0.0
H217 H 0.73743 0.99001 0.16134 0.0
H218 H 0.75157 0.94637 0.03772 0.0
H219 H 0.75604 0.8951 0.06889 0.0
C220 C 0.74453 0.05953 0.08218 0.0
C221 C 0.77596 0.06366 0.06437 0.0
C222 C 0.73317 0.02945 0.09064 0.0
C223 C 0.75293 0.00306 0.08091 0.0
C224 C 0.78368 0.00715 0.06135 0.0
C225 C 0.79529 0.03721 0.05391 0.0
C226 C 0.74333 0.94006 0.15873 0.0
C227 C 0.75105 0.91324 0.13339 0.0
C228 C 0.74008 0.96927 0.14073 0.0
C229 C 0.74476 0.97206 0.09725 0.0
C230 C 0.74827 0.94478 0.0714 0.0
C231 C 0.7509 0.91551 0.08931 0.0
H232 H 0.47458 0.36569 0.54144 0.0
H233 H 0.44118 0.2705 0.55337 0.0
H234 H 0.53123 0.34703 0.5322 0.0
H235 H 0.49856 0.25181 0.54702 0.0
H236 H 0.599 0.28337 0.63647 0.0
H237 H 0.54255 0.27755 0.61172 0.0
H238 H 0.57273 0.30134 0.48695 0.0
H239 H 0.6301 0.30482 0.5106 0.0
C240 C 0.47926 0.34062 0.53991 0.0
C241 C 0.45363 0.31938 0.5466 0.0
C242 C 0.51161 0.32993 0.53478 0.0
C243 C 0.51903 0.29798 0.53852 0.0
C244 C 0.49322 0.27645 0.54319 0.0
C245 C 0.46056 0.2871 0.54674 0.0
C246 C 0.59425 0.28557 0.60321 0.0
C247 C 0.61911 0.29556 0.57588 0.0
C248 C 0.56174 0.28225 0.58905 0.0
C249 C 0.55346 0.28935 0.54764 0.0
C250 C 0.57866 0.29579 0.51906 0.0
C251 C 0.61137 0.29818 0.53288 0.0
H252 H 0.73048 0.55748 0.48386 0.0
H253 H 0.68405 0.59969 0.37788 0.0
H254 H 0.72606 0.50585 0.44806 0.0
H255 H 0.67872 0.54853 0.34253 0.0
H256 H 0.67609 0.45412 0.27945 0.0
H257 H 0.69962 0.50274 0.30901 0.0
H258 H 0.6824 0.47089 0.43456 0.0
H259 H 0.66123 0.42157 0.40506 0.0
C260 C 0.71988 0.55573 0.45257 0.0
C261 C 0.70729 0.58253 0.43391 0.0
C262 C 0.71711 0.52616 0.43211 0.0
C263 C 0.70147 0.52277 0.39259 0.0
C264 C 0.69122 0.55004 0.37266 0.0
C265 C 0.69427 0.57958 0.393 0.0
C266 C 0.67815 0.45713 0.31335 0.0
C267 C 0.66626 0.43403 0.33982 0.0
C268 C 0.69128 0.48525 0.33036 0.0
C269 C 0.69256 0.4911 0.37427 0.0
C270 C 0.68216 0.46731 0.40065 0.0
C271 C 0.66942 0.43911 0.38366 0.0
H272 H 0.94121 0.21175 0.9634 0.0
H273 H 0.95828 0.12904 0.03406 0.0
H274 H 0.00019 0.22399 0.96609 0.0
H275 H 0.01751 0.14087 0.03645 0.0
H276 H 0.1022 0.18904 0.9109 0.0
H277 H 0.04414 0.19518 0.92748 0.0
H278 H 0.06417 0.17714 0.05776 0.0
H279 H 0.12298 0.17165 0.04136 0.0
C280 C 0.95763 0.1967 0.98048 0.0
C281 C 0.94553 0.16963 0.99874 0.0
C282 C 0.9913 0.20361 0.98192 0.0
C283 C 0.0135 0.18326 1.00114 0.0
C284 C 0.00098 0.15718 0.02177 0.0
C285 C 0.9672 0.15029 0.02031 0.0
C286 C 0.09465 0.18766 0.94346 0.0
C287 C 0.11732 0.17949 0.97468 0.0
C288 C 0.06118 0.19108 0.95297 0.0
C289 C 0.04953 0.18626 0.99387 0.0
C290 C 0.07242 0.1805 0.02585 0.0
C291 C 0.10605 0.17737 0.01641 0.0
H292 H 0.28913 0.45097 0.54156 0.0
H293 H 0.32037 0.39943 0.4288 0.0
H294 H 0.27961 0.49753 0.50054 0.0
H295 H 0.31177 0.44557 0.38803 0.0
H296 H 0.29056 0.52763 0.31521 0.0
H297 H 0.27718 0.48305 0.35805 0.0
H298 H 0.31336 0.5346 0.46872 0.0
H299 H 0.32475 0.57938 0.42639 0.0
C300 C 0.29399 0.44969 0.50803 0.0
C301 C 0.30617 0.42193 0.48849 0.0
C302 C 0.28844 0.47625 0.48444 0.0
C303 C 0.29513 0.47552 0.44087 0.0
C304 C 0.30575 0.44707 0.42124 0.0
C305 C 0.311 0.42058 0.44473 0.0
C306 C 0.29446 0.52974 0.34893 0.0
C307 C 0.30936 0.55668 0.36733 0.0
C308 C 0.28724 0.50407 0.37346 0.0
C309 C 0.295 0.50481 0.41675 0.0
C310 C 0.30695 0.53298 0.43562 0.0
C311 C 0.31384 0.55864 0.41123 0.0
H312 H 0.08628 0.76492 0.92942 0.0
H313 H 0.0441 0.77235 0.05375 0.0
H314 H 0.0322 0.75166 0.9001 0.0
H315 H 0.98981 0.76032 0.02472 0.0
H316 H 0.89099 0.7526 0.95946 0.0
H317 H 0.94528 0.73369 0.98267 0.0
H318 H 0.99278 0.79541 0.8967 0.0
H319 H 0.93897 0.81403 0.87418 0.0
C320 C 0.06591 0.76147 0.95087 0.0
C321 C 0.06923 0.77015 0.99372 0.0
C322 C 0.03469 0.75461 0.93398 0.0
C323 C 0.00646 0.75629 0.95984 0.0
C324 C 0.01091 0.75907 1.00375 0.0
C325 C 0.04225 0.7656 0.02059 0.0
C326 C 0.91319 0.76146 0.94509 0.0
C327 C 0.91108 0.78473 0.91517 0.0
C328 C 0.94417 0.7507 0.95831 0.0
C329 C 0.97343 0.76275 0.94128 0.0
C330 C 0.97089 0.785 0.90986 0.0
C331 C 0.9401 0.79597 0.89717 0.0
H332 H 0.88383 0.03734 0.98368 0.0
H333 H 0.78403 0.04439 0.93761 0.0
H334 H 0.8812 0.98008 0.97548 0.0
H335 H 0.78125 0.98679 0.92891 0.0
H336 H 0.81723 0.89248 0.85996 0.0
H337 H 0.81104 0.94801 0.87927 0.0
H338 H 0.85218 0.93222 1.00191 0.0
H339 H 0.85765 0.87625 0.98314 0.0
C340 C 0.86116 0.02642 0.97236 0.0
C341 C 0.83407 0.04494 0.96142 0.0
C342 C 0.85955 -0.00628 0.96788 0.0
C343 C 0.83101 0.97894 0.95156 0.0
C344 C 0.8036 -0.00242 0.94138 0.0
C345 C 0.80509 0.03039 0.94642 0.0
C346 C 0.82424 0.90055 0.89145 0.0
C347 C 0.83805 0.87972 0.91991 0.0
C348 C 0.82068 0.93248 0.90248 0.0
C349 C 0.83115 0.94449 0.94207 0.0
C350 C 0.84419 0.92366 0.971 0.0
C351 C 0.84748 0.89163 0.96012 0.0
H352 H 0.41192 0.29273 0.4051 0.0
H353 H 0.43113 0.37639 0.48208 0.0
H354 H 0.46729 0.29619 0.37411 0.0
H355 H 0.48624 0.38002 0.45134 0.0
H356 H 0.5926 0.36438 0.41165 0.0
H357 H 0.54094 0.352 0.447 0.0
H358 H 0.49414 0.33423 0.32628 0.0
H359 H 0.54547 0.34713 0.29084 0.0
C360 C 0.42829 0.31149 0.41587 0.0
C361 C 0.41779 0.33383 0.44672 0.0
C362 C 0.45981 0.31358 0.39807 0.0
C363 C 0.48119 0.33822 0.41058 0.0
C364 C 0.47061 0.3604 0.44166 0.0
C365 C 0.43914 0.35831 0.45934 0.0
C366 C 0.5713 0.35782 0.39262 0.0
C367 C 0.57312 0.35709 0.34835 0.0
C368 C 0.54178 0.35063 0.4129 0.0
C369 C 0.51348 0.34232 0.38939 0.0
C370 C 0.51565 0.34022 0.34524 0.0
C371 C 0.5451 0.34761 0.32494 0.0
H372 H 0.10278 0.95952 0.98826 0.0
H373 H 0.19243 0.93014 0.04963 0.0
H374 H 0.12828 0.00968 0.97424 0.0
H375 H 0.21743 0.98142 0.0367 0.0
H376 H 0.19635 0.1024 0.04109 0.0
H377 H 0.18912 0.04744 0.05915 0.0
H378 H 0.19059 0.01938 0.92731 0.0
H379 H 0.198 0.07399 0.90904 0.0
C380 C 0.12782 0.9638 0.99909 0.0
C381 C 0.14552 0.94084 0.02022 0.0
C382 C 0.14238 -0.00753 0.99091 0.0
C383 C 0.17477 -0.00101 1.0041 0.0
C384 C 0.19243 0.97661 0.02613 0.0
C385 C 0.17805 0.94747 0.03362 0.0
C386 C 0.19654 0.0843 0.01613 0.0
C387 C 0.1975 0.09241 0.97367 0.0
C388 C 0.1925 0.05297 0.02649 0.0
C389 C 0.18918 0.02954 0.99453 0.0
C390 C 0.19329 0.03722 0.95237 0.0
C391 C 0.19769 0.06843 0.942 0.0
H392 H 0.55979 0.66593 0.44955 0.0
H393 H 0.58805 0.61587 0.33441 0.0
H394 H 0.50199 0.66264 0.42887 0.0
H395 H 0.53012 0.61064 0.3145 0.0
H396 H 0.4256 0.62379 0.27234 0.0
H397 H 0.48278 0.63516 0.29096 0.0
H398 H 0.45835 0.62845 0.42282 0.0
H399 H 0.401 0.62019 0.40441 0.0
C400 C 0.55347 0.65374 0.4201 0.0
C401 C 0.57824 0.64091 0.39376 0.0
C402 C 0.52031 0.65174 0.40817 0.0
C403 C 0.51108 0.63618 0.37 0.0
C404 C 0.53611 0.62336 0.34368 0.0
C405 C 0.56934 0.62604 0.35523 0.0
C406 C 0.43229 0.62552 0.30534 0.0
C407 C 0.40864 0.62067 0.33679 0.0
C408 C 0.46529 0.63151 0.31605 0.0
C409 C 0.47554 0.63233 0.35845 0.0
C410 C 0.45161 0.62836 0.38986 0.0
C411 C 0.41862 0.62302 0.37921 0.0
H412 H 0.34447 0.4607 0.56735 0.0
H413 H 0.36707 0.44342 0.69706 0.0
H414 H 0.34246 0.51718 0.58445 0.0
H415 H 0.36758 0.49929 0.7136 0.0
H416 H 0.34444 0.59828 0.74487 0.0
H417 H 0.33509 0.54394 0.72351 0.0
H418 H 0.37824 0.56 0.60185 0.0
H419 H 0.38487 0.6154 0.62194 0.0
C420 C 0.34828 0.46892 0.5996 0.0
C421 C 0.35514 0.44758 0.63096 0.0
C422 C 0.34784 0.50131 0.60931 0.0
C423 C 0.35469 0.51295 0.65054 0.0
C424 C 0.36138 0.49138 0.68177 0.0
C425 C 0.36143 0.45921 0.67216 0.0
C426 C 0.35116 0.59062 0.71311 0.0
C427 C 0.36553 0.61148 0.68524 0.0
C428 C 0.3463 0.55914 0.70106 0.0
C429 C 0.35637 0.5473 0.66114 0.0
C430 C 0.36996 0.56824 0.63277 0.0
C431 C 0.37431 0.59998 0.64459 0.0
H432 H 0.0213 0.80931 0.16946 0.0
H433 H 0.01633 0.85219 0.04864 0.0
H434 H 0.96135 0.81024 0.17407 0.0
H435 H 0.95598 0.85299 0.05338 0.0
H436 H 0.86078 0.89415 0.12117 0.0
H437 H 0.91796 0.88432 0.10196 0.0
H438 H 0.90917 0.78882 0.14092 0.0
H439 H 0.85118 0.79829 0.15918 0.0
C440 C 0.00741 0.81871 0.1437 0.0
C441 C 0.0236 0.8312 0.10902 0.0
C442 C 0.97303 0.81892 0.14617 0.0
C443 C 0.95405 0.83175 0.11415 0.0
C444 C 0.9701 0.8432 0.07868 0.0
C445 C 0.00459 0.84278 0.07602 0.0
C446 C 0.87055 0.87071 0.12449 0.0
C447 C 0.85125 0.84697 0.14175 0.0
C448 C 0.90344 0.86514 0.1135 0.0
C449 C 0.91799 0.83584 0.11998 0.0
C450 C 0.89856 0.81173 0.13593 0.0
C451 C 0.86546 0.8172 0.14655 0.0
H452 H 0.70529 0.55689 0.5651 0.0
H453 H 0.62008 0.51812 0.49997 0.0
H454 H 0.72554 0.50366 0.57671 0.0
H455 H 0.6405 0.46508 0.51094 0.0
H456 H 0.69306 0.37344 0.51571 0.0
H457 H 0.69024 0.42759 0.49347 0.0
H458 H 0.69867 0.46113 0.623 0.0
H459 H 0.70016 0.40726 0.64555 0.0
C460 C 0.69123 0.53696 0.55272 0.0
C461 C 0.66101 0.54142 0.53204 0.0
C462 C 0.7028 0.50663 0.55931 0.0
C463 C 0.68461 0.48038 0.54461 0.0
C464 C 0.65517 0.48495 0.52221 0.0
C465 C 0.64332 0.51522 0.5163 0.0
C466 C 0.69491 0.39238 0.5394 0.0
C467 C 0.69616 0.38598 0.58249 0.0
C468 C 0.69339 0.4233 0.5266 0.0
C469 C 0.69383 0.44839 0.5566 0.0
C470 C 0.69847 0.44215 0.59924 0.0
C471 C 0.69946 0.41122 0.61212 0.0
H472 H 0.93278 0.19341 0.08037 0.0
H473 H 0.90096 0.12486 0.1679 0.0
H474 H 0.98766 0.19475 0.11351 0.0
H475 H 0.95492 0.12699 0.20184 0.0
H476 H 0.04425 0.15685 0.27657 0.0
H477 H 0.99057 0.16521 0.24388 0.0
H478 H 0.03523 0.15488 0.12074 0.0
H479 H 0.08924 0.14703 0.15344 0.0
C480 C 0.93768 0.17844 0.10635 0.0
C481 C 0.91309 0.15832 0.12074 0.0
C482 C 0.96885 0.17946 0.12557 0.0
C483 C 0.97551 0.16095 0.16022 0.0
C484 C 0.95041 0.14174 0.17546 0.0
C485 C 0.91956 0.14045 0.15595 0.0
C486 C 0.0428 0.15711 0.24255 0.0
C487 C 0.07093 0.15111 0.21757 0.0
C488 C 0.01202 0.16163 0.22385 0.0
C489 C 0.00875 0.16046 0.17979 0.0
C490 C 0.03712 0.1561 0.15476 0.0
C491 C 0.06791 0.15133 0.17347 0.0
H492 H 0.22782 0.77828 0.09867 0.0
H493 H 0.14149 0.72019 0.08166 0.0
H494 H 0.25885 0.73372 0.12294 0.0
H495 H 0.17278 0.67467 0.10421 0.0
H496 H 0.21579 0.62925 0.22361 0.0
H497 H 0.18874 0.66172 0.17234 0.0
H498 H 0.28415 0.68447 0.12034 0.0
H499 H 0.3109 0.65318 0.17316 0.0
C500 C 0.21611 0.75539 0.09785 0.0
C501 C 0.1825 0.75245 0.08809 0.0
C502 C 0.23384 0.72972 0.11194 0.0
C503 C 0.2182 0.70053 0.11654 0.0
C504 C 0.18542 0.69692 0.10213 0.0
C505 C 0.16762 0.72279 0.08842 0.0
C506 C 0.23075 0.64089 0.2007 0.0
C507 C 0.26522 0.63929 0.20289 0.0
C508 C 0.21535 0.65929 0.17096 0.0
C509 C 0.23422 0.67616 0.14222 0.0
C510 C 0.2688 0.6725 0.1425 0.0
C511 C 0.28418 0.65448 0.17271 0.0
H512 H 0.68146 0.63878 0.66531 0.0
H513 H 0.69387 0.72209 0.59392 0.0
H514 H 0.71525 0.66216 0.72181 0.0
H515 H 0.72791 0.74543 0.65054 0.0
H516 H 0.75899 0.78809 0.78039 0.0
H517 H 0.72321 0.76544 0.72522 0.0
H518 H 0.77422 0.67672 0.73257 0.0
H519 H 0.81 0.69957 0.78806 0.0
C520 C 0.69126 0.66216 0.66175 0.0
C521 C 0.68497 0.67858 0.6251 0.0
C522 C 0.71082 0.67545 0.69402 0.0
C523 C 0.72437 0.70557 0.69058 0.0
C524 C 0.7176 0.72226 0.65426 0.0
C525 C 0.69822 0.70885 0.62177 0.0
C526 C 0.76245 0.76371 0.77038 0.0
C527 C 0.78717 0.74534 0.78859 0.0
C528 C 0.74209 0.75081 0.73858 0.0
C529 C 0.74586 0.71929 0.72454 0.0
C530 C 0.77045 0.70097 0.74303 0.0
C531 C 0.79097 0.71397 0.7746 0.0
H532 H 0.81267 0.26071 0.06389 0.0
H533 H 0.72481 0.21025 0.02573 0.0
H534 H 0.77929 0.30462 0.09011 0.0
H535 H 0.69082 0.25474 0.05081 0.0
H536 H 0.71589 0.37785 0.14912 0.0
H537 H 0.74054 0.3465 0.09073 0.0
H538 H 0.6799 0.26757 0.12314 0.0
H539 H 0.65491 0.29913 0.1799 0.0
C540 C 0.78619 0.25994 0.05874 0.0
C541 C 0.77122 0.2323 0.0428 0.0
C542 C 0.7669 0.2851 0.07399 0.0
C543 C 0.73221 0.28295 0.07369 0.0
C544 C 0.71746 0.25685 0.05249 0.0
C545 C 0.73687 0.23157 0.03739 0.0
C546 C 0.70751 0.35398 0.14289 0.0
C547 C 0.68393 0.34086 0.16919 0.0
C548 C 0.72158 0.336 0.10961 0.0
C549 C 0.71242 0.30437 0.10221 0.0
C550 C 0.68729 0.29192 0.12722 0.0
C551 C 0.67317 0.30993 0.16026 0.0
H552 H 0.35034 0.27319 0.70537 0.0
H553 H 0.26456 0.294 0.63049 0.0
H554 H 0.31668 0.24218 0.75087 0.0
H555 H 0.2304 0.26225 0.67643 0.0
H556 H 0.18264 0.24784 0.81106 0.0
H557 H 0.21179 0.26959 0.75121 0.0
H558 H 0.28387 0.19488 0.75579 0.0
H559 H 0.25517 0.17381 0.81584 0.0
C560 C 0.32427 0.27067 0.69822 0.0
C561 C 0.31 0.28632 0.66465 0.0
C562 C 0.30498 0.25263 0.72416 0.0
C563 C 0.27083 0.24981 0.7174 0.0
C564 C 0.25665 0.26425 0.6826 0.0
C565 C 0.27618 0.2822 0.65617 0.0
C566 C 0.20456 0.23608 0.7988 0.0
C567 C 0.21697 0.20968 0.81839 0.0
C568 C 0.22105 0.24824 0.76439 0.0
C569 C 0.25027 0.23406 0.74896 0.0
C570 C 0.2617 0.20661 0.76736 0.0
C571 C 0.24529 0.19455 0.80178 0.0
H572 H 0.65582 0.75316 0.48441 0.0
H573 H 0.73731 0.70128 0.4283 0.0
H574 H 0.67078 0.79895 0.44343 0.0
H575 H 0.75236 0.74624 0.38817 0.0
H576 H 0.78454 0.82974 0.32842 0.0
H577 H 0.77246 0.80032 0.39065 0.0
H578 H 0.66797 0.80754 0.36488 0.0
H579 H 0.68031 0.83798 0.30281 0.0
C580 C 0.67754 0.75201 0.46448 0.0
C581 C 0.6956 0.72396 0.45945 0.0
C582 C 0.6859 0.77798 0.4408 0.0
C583 C 0.71278 0.77623 0.4126 0.0
C584 C 0.73187 0.74866 0.41001 0.0
C585 C 0.72323 0.72281 0.4329 0.0
C586 C 0.75897 0.82557 0.33649 0.0
C587 C 0.73323 0.83532 0.31028 0.0
C588 C 0.75204 0.8088 0.37219 0.0
C589 C 0.71931 0.80107 0.38221 0.0
C590 C 0.69345 0.81321 0.35808 0.0
C591 C 0.70043 0.83039 0.32246 0.0
H592 H 0.83277 0.22269 0.87803 0.0
H593 H 0.7445 0.19558 0.94326 0.0
H594 H 0.80008 0.25345 0.83086 0.0
H595 H 0.71106 0.22681 0.89548 0.0
H596 H 0.67296 0.23601 0.75415 0.0
H597 H 0.69832 0.21798 0.81897 0.0
H598 H 0.764 0.29789 0.82105 0.0
H599 H 0.73921 0.31523 0.75605 0.0
C600 C 0.80629 0.22414 0.88293 0.0
C601 C 0.79104 0.20673 0.91397 0.0
C602 C 0.78751 0.2419 0.85602 0.0
C603 C 0.7529 0.24244 0.85917 0.0
C604 C 0.73769 0.2266 0.89209 0.0
C605 C 0.75673 0.20902 0.91963 0.0
C606 C 0.69258 0.24975 0.76895 0.0
C607 C 0.70459 0.27644 0.74975 0.0
C608 C 0.70684 0.23971 0.80622 0.0
C609 C 0.73336 0.25639 0.825 0.0
C610 C 0.74395 0.28427 0.80702 0.0
C611 C 0.72982 0.29416 0.76972 0.0
H612 H 0.25445 0.31975 0.46379 0.0
H613 H 0.28667 0.25493 0.55636 0.0
H614 H 0.22074 0.27905 0.42994 0.0
H615 H 0.25257 0.21348 0.5219 0.0
H616 H 0.23227 0.14803 0.39651 0.0
H617 H 0.25686 0.18458 0.44941 0.0
H618 H 0.17177 0.24525 0.4406 0.0
H619 H 0.14766 0.20913 0.38775 0.0
C620 C 0.25391 0.29679 0.47722 0.0
C621 C 0.27332 0.29034 0.5124 0.0
C622 C 0.23437 0.27352 0.45803 0.0
C623 C 0.23397 0.24307 0.47329 0.0
C624 C 0.25252 0.23677 0.50947 0.0
C625 C 0.27183 0.26042 0.52925 0.0
C626 C 0.21869 0.1689 0.40672 0.0
C627 C 0.18856 0.17604 0.38761 0.0
C628 C 0.23256 0.18967 0.43709 0.0
C629 C 0.21636 0.21792 0.44874 0.0
C630 C 0.185 0.22386 0.43178 0.0
C631 C 0.17123 0.20318 0.40147 0.0
H632 H 0.19541 0.76316 0.99366 0.0
H633 H 0.20558 0.84857 0.92604 0.0
H634 H 0.24067 0.73949 0.95174 0.0
H635 H 0.24999 0.82507 0.88444 0.0
H636 H 0.34614 0.78438 0.83662 0.0
H637 H 0.30718 0.80634 0.8892 0.0
H638 H 0.24828 0.72201 0.8764 0.0
H639 H 0.28725 0.70016 0.82458 0.0
C640 C 0.2074 0.7769 0.97016 0.0
C641 C 0.19675 0.80762 0.96296 0.0
C642 C 0.23318 0.76336 0.94609 0.0
C643 C 0.24894 0.78047 0.91484 0.0
C644 C 0.23874 0.81141 0.9086 0.0
C645 C 0.21299 0.82476 0.93225 0.0
C646 C 0.32494 0.77063 0.84543 0.0
C647 C 0.31953 0.74094 0.82625 0.0
C648 C 0.30266 0.78308 0.87537 0.0
C649 C 0.27458 0.76591 0.88683 0.0
C650 C 0.26981 0.73567 0.86862 0.0
C651 C 0.29199 0.72331 0.83858 0.0
loop_
_geom_bond_atom_site_label_1
_geom_bond_atom_site_label_2
_geom_bond_distance
_geom_bond_site_symmetry_2
_ccdc_geom_bond_type
Zn0 O6 1.920 . S
Zn0 O12 1.898 . S
Zn0 O15 1.905 . S
Zn1 O9 1.905 . S
Zn1 O10 1.898 . S
Zn1 O18 1.920 . S
Zn2 O5 2.080 . S
Zn2 O8 2.114 . S
Zn2 O11 2.120 1_554 S
Zn2 O13 2.120 . S
Zn2 O14 2.114 . S
Zn2 O17 2.080 . S
C3 O8 1.166 1_556 S
C3 O9 1.182 . S
C4 O10 1.167 . S
C4 O11 1.299 . S
O5 Zn2 2.080 . S
O5 C19 1.305 . S
O6 Zn0 1.920 . S
O6 C19 1.234 . S
C7 O12 1.167 . S
C7 O13 1.299 . S
O8 Zn2 2.114 . S
O8 C3 1.166 1_554 S
O9 Zn1 1.905 . S
O9 C3 1.182 . S
O10 Zn1 1.898 . S
O10 C4 1.167 . S
O11 Zn2 2.120 1_556 S
O11 C4 1.299 . S
O12 Zn0 1.898 . S
O12 C7 1.167 . S
O13 Zn2 2.120 . S
O13 C7 1.299 . S
O14 Zn2 2.114 . S
O14 C16 1.166 . S
O15 Zn0 1.905 . S
O15 C16 1.182 . S
C16 O14 1.166 . S
C16 O15 1.182 . S
O17 Zn2 2.080 . S
O17 C20 1.305 1_554 S
O18 Zn1 1.920 . S
O18 C20 1.234 . S
C19 O5 1.305 . S
C19 O6 1.234 . S
C20 O17 1.305 1_556 S
C20 O18 1.234 . S
Zn21 O27 1.920 . S
Zn21 O33 1.898 . S
Zn21 O36 1.905 . S
Zn22 O30 1.905 . S
Zn22 O31 1.898 . S
Zn22 O39 1.920 . S
Zn23 O26 2.080 . S
Zn23 O29 2.114 . S
Zn23 O32 2.120 . S
Zn23 O34 2.120 . S
Zn23 O35 2.114 . S
Zn23 O38 2.080 . S
C24 O29 1.166 . S
C24 O30 1.182 . S
C25 O31 1.167 . S
C25 O32 1.299 . S
O26 Zn23 2.080 . S
O26 C40 1.305 . S
O27 Zn21 1.920 . S
O27 C40 1.234 . S
C28 O33 1.167 . S
C28 O34 1.299 . S
O29 Zn23 2.114 . S
O29 C24 1.166 . S
O30 Zn22 1.905 . S
O30 C24 1.182 . S
O31 Zn22 1.898 . S
O31 C25 1.167 . S
O32 Zn23 2.120 . S
O32 C25 1.299 . S
O33 Zn21 1.898 . S
O33 C28 1.167 . S
O34 Zn23 2.120 . S
O34 C28 1.299 . S
O35 Zn23 2.114 . S
O35 C37 1.166 . S
O36 Zn21 1.905 . S
O36 C37 1.182 . S
C37 O35 1.166 . S
C37 O36 1.182 . S
O38 Zn23 2.080 . S
O38 C41 1.305 . S
O39 Zn22 1.920 . S
O39 C41 1.234 . S
C40 O26 1.305 . S
C40 O27 1.234 . S
C41 O38 1.305 . S
C41 O39 1.234 . S
Zn42 O48 1.920 . S
Zn42 O54 1.898 . S
Zn42 O57 1.905 . S
Zn43 O51 1.905 . S
Zn43 O52 1.898 . S
Zn43 O60 1.920 . S
Zn44 O47 2.066 1_554 S
Zn44 O50 2.128 . S
Zn44 O53 2.130 . S
Zn44 O55 2.110 1_554 S
Zn44 O56 2.103 1_554 S
Zn44 O59 2.092 . S
C45 O50 1.166 . S
C45 O51 1.182 . S
C46 O52 1.167 . S
C46 O53 1.299 . S
O47 Zn44 2.066 1_556 S
O47 C61 1.305 . S
O48 Zn42 1.920 . S
O48 C61 1.234 . S
C49 O54 1.167 . S
C49 O55 1.299 . S
O50 Zn44 2.128 . S
O50 C45 1.166 . S
O51 Zn43 1.905 . S
O51 C45 1.182 . S
O52 Zn43 1.898 . S
O52 C46 1.167 . S
O53 Zn44 2.130 . S
O53 C46 1.299 . S
O54 Zn42 1.898 . S
O54 C49 1.167 . S
O55 Zn44 2.110 1_556 S
O55 C49 1.299 . S
O56 Zn44 2.103 1_556 S
O56 C58 1.166 . S
O57 Zn42 1.905 . S
O57 C58 1.182 . S
C58 O56 1.166 . S
C58 O57 1.182 . S
O59 Zn44 2.092 . S
O59 C62 1.305 . S
O60 Zn43 1.920 . S
O60 C62 1.234 . S
C61 O47 1.305 . S
C61 O48 1.234 . S
C62 O59 1.305 . S
C62 O60 1.234 . S
Zn63 O69 1.920 . S
Zn63 O75 1.898 . S
Zn63 O78 1.905 . S
Zn64 O72 1.905 . S
Zn64 O73 1.898 . S
Zn64 O81 1.920 . S
Zn65 O68 2.080 . S
Zn65 O71 2.114 . S
Zn65 O74 2.120 . S
Zn65 O76 2.120 . S
Zn65 O77 2.114 . S
Zn65 O80 2.080 . S
C66 O71 1.166 . S
C66 O72 1.182 . S
C67 O73 1.167 . S
C67 O74 1.299 . S
O68 Zn65 2.080 . S
O68 C82 1.305 . S
O69 Zn63 1.920 . S
O69 C82 1.234 . S
C70 O75 1.167 . S
C70 O76 1.299 . S
O71 Zn65 2.114 . S
O71 C66 1.166 . S
O72 Zn64 1.905 . S
O72 C66 1.182 . S
O73 Zn64 1.898 . S
O73 C67 1.167 . S
O74 Zn65 2.120 . S
O74 C67 1.299 . S
O75 Zn63 1.898 . S
O75 C70 1.167 . S
O76 Zn65 2.120 . S
O76 C70 1.299 . S
O77 Zn65 2.114 . S
O77 C79 1.166 . S
O78 Zn63 1.905 . S
O78 C79 1.182 . S
C79 O77 1.166 . S
C79 O78 1.182 . S
O80 Zn65 2.080 . S
O80 C83 1.305 . S
O81 Zn64 1.920 . S
O81 C83 1.234 . S
C82 O68 1.305 . S
C82 O69 1.234 . S
C83 O80 1.305 . S
C83 O81 1.234 . S
H84 C89 0.929 . S
H85 C94 0.931 . S
H86 C92 0.930 . S
N87 N88 1.234 . S
N87 C91 1.453 . S
N88 N87 1.234 . S
C89 H84 0.929 . S
C89 C90 1.373 . S
C89 C91 1.368 . S
C90 C89 1.373 . S
C90 C94 1.397 . S
C91 N87 1.453 . S
C91 C89 1.368 . S
C91 C92 1.373 . S
C92 H86 0.930 . S
C92 C91 1.373 . S
C92 C93 1.371 . S
C93 C92 1.371 . S
C93 C94 1.383 . S
C94 H85 0.931 . S
C94 C90 1.397 . S
C94 C93 1.383 . S
H95 C100 0.929 . S
H96 C105 0.931 . S
H97 C103 0.930 . S
N98 N99 1.234 . S
N98 C102 1.453 . S
N99 N98 1.234 . S
C100 H95 0.929 . S
C100 C101 1.373 . S
C100 C102 1.368 . S
C101 C100 1.373 . S
C101 C105 1.397 . S
C102 N98 1.453 . S
C102 C100 1.368 . S
C102 C103 1.373 . S
C103 H97 0.930 . S
C103 C102 1.373 . S
C103 C104 1.371 . S
C104 C103 1.371 . S
C104 C105 1.383 . S
C105 H96 0.931 . S
C105 C101 1.397 . S
C105 C104 1.383 . S
H106 C111 0.929 . S
H107 C116 0.931 . S
H108 C114 0.930 . S
N109 N110 1.234 . S
N109 C113 1.453 . S
N110 N109 1.234 . S
C111 H106 0.929 . S
C111 C112 1.373 . S
C111 C113 1.368 . S
C112 C111 1.373 . S
C112 C116 1.397 . S
C113 N109 1.453 . S
C113 C111 1.368 . S
C113 C114 1.373 . S
C114 H108 0.930 . S
C114 C113 1.373 . S
C114 C115 1.371 . S
C115 C114 1.371 . S
C115 C116 1.383 . S
C116 H107 0.931 . S
C116 C112 1.397 . S
C116 C115 1.383 . S
H117 C122 0.929 . S
H118 C127 0.931 . S
H119 C125 0.930 . S
N120 N121 1.234 . S
N120 C124 1.453 . S
N121 N120 1.234 . S
C122 H117 0.929 . S
C122 C123 1.373 . S
C122 C124 1.368 . S
C123 C122 1.373 . S
C123 C127 1.397 . S
C124 N120 1.453 . S
C124 C122 1.368 . S
C124 C125 1.373 . S
C125 H119 0.930 . S
C125 C124 1.373 . S
C125 C126 1.371 . S
C126 C125 1.371 . S
C126 C127 1.383 . S
C127 H118 0.931 . S
C127 C123 1.397 . S
C127 C126 1.383 . S
H128 C133 0.929 . S
H129 C138 0.931 . S
H130 C136 0.930 . S
N131 N132 1.234 . S
N131 C135 1.453 . S
N132 N131 1.234 . S
C133 H128 0.929 . S
C133 C134 1.373 . S
C133 C135 1.368 . S
C134 C133 1.373 . S
C134 C138 1.397 . S
C135 N131 1.453 . S
C135 C133 1.368 . S
C135 C136 1.373 . S
C136 H130 0.930 . S
C136 C135 1.373 . S
C136 C137 1.371 . S
C137 C136 1.371 . S
C137 C138 1.383 . S
C138 H129 0.931 . S
C138 C134 1.397 . S
C138 C137 1.383 . S
H139 C144 0.929 . S
H140 C149 0.931 . S
H141 C147 0.930 . S
N142 N143 1.234 . S
N142 C146 1.453 . S
N143 N142 1.234 . S
C144 H139 0.929 . S
C144 C145 1.373 . S
C144 C146 1.368 . S
C145 C144 1.373 . S
C145 C149 1.397 . S
C146 N142 1.453 . S
C146 C144 1.368 . S
C146 C147 1.373 . S
C147 H141 0.930 . S
C147 C146 1.373 . S
C147 C148 1.371 . S
C148 C147 1.371 . S
C148 C149 1.383 . S
C149 H140 0.931 . S
C149 C145 1.397 . S
C149 C148 1.383 . S
H150 C155 0.929 . S
H151 C160 0.931 . S
H152 C158 0.930 . S
N153 N154 1.234 . S
N153 C157 1.453 . S
N154 N153 1.234 . S
C155 H150 0.929 . S
C155 C156 1.373 . S
C155 C157 1.368 . S
C156 C155 1.373 . S
C156 C160 1.397 . S
C157 N153 1.453 . S
C157 C155 1.368 . S
C157 C158 1.373 . S
C158 H152 0.930 . S
C158 C157 1.373 . S
C158 C159 1.371 . S
C159 C158 1.371 . S
C159 C160 1.383 . S
C160 H151 0.931 . S
C160 C156 1.397 . S
C160 C159 1.383 . S
H161 C166 0.929 . S
H162 C171 0.931 . S
H163 C169 0.930 . S
N164 N165 1.234 . S
N164 C168 1.453 . S
N165 N164 1.234 . S
C166 H161 0.929 . S
C166 C167 1.373 . S
C166 C168 1.368 . S
C167 C166 1.373 . S
C167 C171 1.397 . S
C168 N164 1.453 . S
C168 C166 1.368 . S
C168 C169 1.373 . S
C169 H163 0.930 . S
C169 C168 1.373 . S
C169 C170 1.371 . S
C170 C169 1.371 . S
C170 C171 1.383 . S
C171 H162 0.931 . S
C171 C167 1.397 . S
C171 C170 1.383 . S
H172 C180 0.950 . S
H173 C185 0.950 . S
H174 C182 0.950 . S
H175 C184 0.950 1_545 S
H176 C186 0.950 . S
H177 C188 0.950 . S
H178 C190 0.950 1_565 S
H179 C191 0.950 . S
C180 H172 0.950 . S
C180 C181 1.386 . S
C180 C182 1.391 . S
C181 C180 1.386 . S
C181 C185 1.393 . S
C182 H174 0.950 . S
C182 C180 1.391 . S
C182 C183 1.400 . S
C183 C182 1.400 . S
C183 C184 1.398 . S
C183 C189 1.491 1_565 S
C184 H175 0.950 1_565 S
C184 C183 1.398 . S
C184 C185 1.391 . S
C185 H173 0.950 . S
C185 C181 1.393 . S
C185 C184 1.391 . S
C186 H176 0.950 . S
C186 C187 1.386 . S
C186 C188 1.391 . S
C187 C186 1.386 . S
C187 C191 1.393 . S
C188 H177 0.950 . S
C188 C186 1.391 . S
C188 C189 1.400 . S
C189 C183 1.491 1_545 S
C189 C188 1.400 . S
C189 C190 1.398 . S
C190 H178 0.950 1_545 S
C190 C189 1.398 . S
C190 C191 1.391 . S
C191 H179 0.950 . S
C191 C187 1.393 . S
C191 C190 1.391 . S
H192 C200 0.950 . S
H193 C205 0.950 . S
H194 C202 0.950 . S
H195 C204 0.950 . S
H196 C206 0.950 . S
H197 C208 0.950 . S
H198 C210 0.950 . S
H199 C211 0.950 . S
C200 H192 0.950 . S
C200 C201 1.386 . S
C200 C202 1.391 . S
C201 C200 1.386 . S
C201 C205 1.393 . S
C202 H194 0.950 . S
C202 C200 1.391 . S
C202 C203 1.400 . S
C203 C202 1.400 . S
C203 C204 1.398 . S
C203 C209 1.491 . S
C204 H195 0.950 . S
C204 C203 1.398 . S
C204 C205 1.391 . S
C205 H193 0.950 . S
C205 C201 1.393 . S
C205 C204 1.391 . S
C206 H196 0.950 . S
C206 C207 1.386 . S
C206 C208 1.391 . S
C207 C206 1.386 . S
C207 C211 1.393 . S
C208 H197 0.950 . S
C208 C206 1.391 . S
C208 C209 1.400 . S
C209 C203 1.491 . S
C209 C208 1.400 . S
C209 C210 1.398 . S
C210 H198 0.950 . S
C210 C209 1.398 . S
C210 C211 1.391 . S
C211 H199 0.950 . S
C211 C207 1.393 . S
C211 C210 1.391 . S
H212 C220 0.950 . S
H213 C225 0.950 . S
H214 C222 0.950 . S
H215 C224 0.950 . S
H216 C226 0.950 . S
H217 C228 0.950 . S
H218 C230 0.950 . S
H219 C231 0.950 . S
C220 H212 0.950 . S
C220 C221 1.386 . S
C220 C222 1.391 . S
C221 C220 1.386 . S
C221 C225 1.393 . S
C222 H214 0.950 . S
C222 C220 1.391 . S
C222 C223 1.400 . S
C223 C222 1.400 . S
C223 C224 1.398 . S
C223 C229 1.491 1_545 S
C224 H215 0.950 . S
C224 C223 1.398 . S
C224 C225 1.391 . S
C225 H213 0.950 . S
C225 C221 1.393 . S
C225 C224 1.391 . S
C226 H216 0.950 . S
C226 C227 1.386 . S
C226 C228 1.391 . S
C227 C226 1.386 . S
C227 C231 1.393 . S
C228 H217 0.950 . S
C228 C226 1.391 . S
C228 C229 1.400 . S
C229 C223 1.491 1_565 S
C229 C228 1.400 . S
C229 C230 1.398 . S
C230 H218 0.950 . S
C230 C229 1.398 . S
C230 C231 1.391 . S
C231 H219 0.950 . S
C231 C227 1.393 . S
C231 C230 1.391 . S
H232 C240 0.950 . S
H233 C245 0.950 . S
H234 C242 0.950 . S
H235 C244 0.950 . S
H236 C246 0.950 . S
H237 C248 0.950 . S
H238 C250 0.950 . S
H239 C251 0.950 . S
C240 H232 0.950 . S
C240 C241 1.386 . S
C240 C242 1.391 . S
C241 C240 1.386 . S
C241 C245 1.393 . S
C242 H234 0.950 . S
C242 C240 1.391 . S
C242 C243 1.400 . S
C243 C242 1.400 . S
C243 C244 1.398 . S
C243 C249 1.491 . S
C244 H235 0.950 . S
C244 C243 1.398 . S
C244 C245 1.391 . S
C245 H233 0.950 . S
C245 C241 1.393 . S
C245 C244 1.391 . S
C246 H236 0.950 . S
C246 C247 1.386 . S
C246 C248 1.391 . S
C247 C246 1.386 . S
C247 C251 1.393 . S
C248 H237 0.950 . S
C248 C246 1.391 . S
C248 C249 1.400 . S
C249 C243 1.491 . S
C249 C248 1.400 . S
C249 C250 1.398 . S
C250 H238 0.950 . S
C250 C249 1.398 . S
C250 C251 1.391 . S
C251 H239 0.950 . S
C251 C247 1.393 . S
C251 C250 1.391 . S
H252 C260 0.950 . S
H253 C265 0.950 . S
H254 C262 0.950 . S
H255 C264 0.950 . S
H256 C266 0.950 . S
H257 C268 0.950 . S
H258 C270 0.950 . S
H259 C271 0.950 . S
C260 H252 0.950 . S
C260 C261 1.386 . S
C260 C262 1.391 . S
C261 C260 1.386 . S
C261 C265 1.393 . S
C262 H254 0.950 . S
C262 C260 1.391 . S
C262 C263 1.400 . S
C263 C262 1.400 . S
C263 C264 1.398 . S
C263 C269 1.491 . S
C264 H255 0.950 . S
C264 C263 1.398 . S
C264 C265 1.391 . S
C265 H253 0.950 . S
C265 C261 1.393 . S
C265 C264 1.391 . S
C266 H256 0.950 . S
C266 C267 1.386 . S
C266 C268 1.391 . S
C267 C266 1.386 . S
C267 C271 1.393 . S
C268 H257 0.950 . S
C268 C266 1.391 . S
C268 C269 1.400 . S
C269 C263 1.491 . S
C269 C268 1.400 . S
C269 C270 1.398 . S
C270 H258 0.950 . S
C270 C269 1.398 . S
C270 C271 1.391 . S
C271 H259 0.950 . S
C271 C267 1.393 . S
C271 C270 1.391 . S
H272 C280 0.950 . S
H273 C285 0.950 . S
H274 C282 0.950 1_455 S
H275 C284 0.946 1_455 S
H276 C286 0.950 . S
H277 C288 0.950 . S
H278 C290 0.950 . S
H279 C291 0.950 . S
C280 H272 0.950 . S
C280 C281 1.386 . S
C280 C282 1.391 . S
C281 C280 1.386 . S
C281 C285 1.393 . S
C282 H274 0.950 1_655 S
C282 C280 1.391 . S
C282 C283 1.400 1_655 S
C283 C282 1.400 1_455 S
C283 C284 1.395 1_455 S
C283 C289 1.491 . S
C284 H275 0.946 1_655 S
C284 C283 1.395 1_655 S
C284 C285 1.398 . S
C285 H273 0.950 . S
C285 C281 1.393 . S
C285 C284 1.398 . S
C286 H276 0.950 . S
C286 C287 1.386 . S
C286 C288 1.391 . S
C287 C286 1.386 . S
C287 C291 1.393 . S
C288 H277 0.950 . S
C288 C286 1.391 . S
C288 C289 1.400 . S
C289 C283 1.491 . S
C289 C288 1.400 . S
C289 C290 1.398 . S
C290 H278 0.950 . S
C290 C289 1.398 . S
C290 C291 1.391 . S
C291 H279 0.950 . S
C291 C287 1.393 . S
C291 C290 1.391 . S
H292 C300 0.950 . S
H293 C305 0.950 . S
H294 C302 0.950 . S
H295 C304 0.950 . S
H296 C306 0.950 . S
H297 C308 0.950 . S
H298 C310 0.950 . S
H299 C311 0.950 . S
C300 H292 0.950 . S
C300 C301 1.386 . S
C300 C302 1.391 . S
C301 C300 1.386 . S
C301 C305 1.393 . S
C302 H294 0.950 . S
C302 C300 1.391 . S
C302 C303 1.400 . S
C303 C302 1.400 . S
C303 C304 1.398 . S
C303 C309 1.491 . S
C304 H295 0.950 . S
C304 C303 1.398 . S
C304 C305 1.391 . S
C305 H293 0.950 . S
C305 C301 1.393 . S
C305 C304 1.391 . S
C306 H296 0.950 . S
C306 C307 1.386 . S
C306 C308 1.391 . S
C307 C306 1.386 . S
C307 C311 1.393 . S
C308 H297 0.950 . S
C308 C306 1.391 . S
C308 C309 1.400 . S
C309 C303 1.491 . S
C309 C308 1.400 . S
C309 C310 1.398 . S
C310 H298 0.950 . S
C310 C309 1.398 . S
C310 C311 1.391 . S
C311 H299 0.950 . S
C311 C307 1.393 . S
C311 C310 1.391 . S
H312 C320 0.950 . S
H313 C325 0.950 . S
H314 C322 0.950 . S
H315 C324 0.950 1_655 S
H316 C326 0.950 . S
H317 C328 0.950 . S
H318 C330 0.950 . S
H319 C331 0.950 . S
C320 H312 0.950 . S
C320 C321 1.386 . S
C320 C322 1.391 . S
C321 C320 1.386 . S
C321 C325 1.393 . S
C322 H314 0.950 . S
C322 C320 1.391 . S
C322 C323 1.400 . S
C323 C322 1.400 . S
C323 C324 1.398 . S
C323 C329 1.491 1_455 S
C324 H315 0.950 1_455 S
C324 C323 1.398 . S
C324 C325 1.391 . S
C325 H313 0.950 . S
C325 C321 1.393 . S
C325 C324 1.391 . S
C326 H316 0.950 . S
C326 C327 1.386 . S
C326 C328 1.391 . S
C327 C326 1.386 . S
C327 C331 1.393 . S
C328 H317 0.950 . S
C328 C326 1.391 . S
C328 C329 1.400 . S
C329 C323 1.491 1_655 S
C329 C328 1.400 . S
C329 C330 1.398 1_655 S
C330 H318 0.950 . S
C330 C329 1.398 1_455 S
C330 C331 1.391 1_455 S
C331 H319 0.950 . S
C331 C327 1.393 . S
C331 C330 1.391 1_655 S
H332 C340 0.950 . S
H333 C345 0.950 . S
H334 C342 0.950 . S
H335 C344 0.950 . S
H336 C346 0.950 . S
H337 C348 0.950 . S
H338 C350 0.950 . S
H339 C351 0.950 . S
C340 H332 0.950 . S
C340 C341 1.386 . S
C340 C342 1.391 1_545 S
C341 C340 1.386 . S
C341 C345 1.393 . S
C342 H334 0.950 . S
C342 C340 1.391 1_565 S
C342 C343 1.400 . S
C343 C342 1.400 . S
C343 C344 1.398 1_565 S
C343 C349 1.491 . S
C344 H335 0.950 . S
C344 C343 1.398 1_545 S
C344 C345 1.391 . S
C345 H333 0.950 . S
C345 C341 1.393 . S
C345 C344 1.391 . S
C346 H336 0.950 . S
C346 C347 1.386 . S
C346 C348 1.391 . S
C347 C346 1.386 . S
C347 C351 1.393 . S
C348 H337 0.950 . S
C348 C346 1.391 . S
C348 C349 1.400 . S
C349 C343 1.491 . S
C349 C348 1.400 . S
C349 C350 1.398 . S
C350 H338 0.950 . S
C350 C349 1.398 . S
C350 C351 1.391 . S
C351 H339 0.950 . S
C351 C347 1.393 . S
C351 C350 1.391 . S
H352 C360 0.950 . S
H353 C365 0.950 . S
H354 C362 0.950 . S
H355 C364 0.950 . S
H356 C366 0.950 . S
H357 C368 0.950 . S
H358 C370 0.950 . S
H359 C371 0.950 . S
C360 H352 0.950 . S
C360 C361 1.386 . S
C360 C362 1.391 . S
C361 C360 1.386 . S
C361 C365 1.393 . S
C362 H354 0.950 . S
C362 C360 1.391 . S
C362 C363 1.400 . S
C363 C362 1.400 . S
C363 C364 1.398 . S
C363 C369 1.491 . S
C364 H355 0.950 . S
C364 C363 1.398 . S
C364 C365 1.391 . S
C365 H353 0.950 . S
C365 C361 1.393 . S
C365 C364 1.391 . S
C366 H356 0.950 . S
C366 C367 1.386 . S
C366 C368 1.391 . S
C367 C366 1.386 . S
C367 C371 1.393 . S
C368 H357 0.950 . S
C368 C366 1.391 . S
C368 C369 1.400 . S
C369 C363 1.491 . S
C369 C368 1.400 . S
C369 C370 1.398 . S
C370 H358 0.950 . S
C370 C369 1.398 . S
C370 C371 1.391 . S
C371 H359 0.950 . S
C371 C367 1.393 . S
C371 C370 1.391 . S
H372 C380 0.944 1_554 S
H373 C385 0.950 . S
H374 C382 0.950 . S
H375 C384 0.948 1_545 S
H376 C386 0.950 . S
H377 C388 0.950 . S
H378 C390 0.950 . S
H379 C391 0.950 . S
C380 H372 0.944 1_556 S
C380 C381 1.386 . S
C380 C382 1.391 1_565 S
C381 C380 1.386 . S
C381 C385 1.393 . S
C382 H374 0.950 . S
C382 C380 1.391 1_545 S
C382 C383 1.400 . S
C383 C382 1.400 . S
C383 C384 1.392 1_545 S
C383 C389 1.491 . S
C384 H375 0.948 1_565 S
C384 C383 1.392 1_565 S
C384 C385 1.399 . S
C385 H373 0.950 . S
C385 C381 1.393 . S
C385 C384 1.399 . S
C386 H376 0.950 . S
C386 C387 1.386 . S
C386 C388 1.391 . S
C387 C386 1.386 . S
C387 C391 1.393 . S
C388 H377 0.950 . S
C388 C386 1.391 . S
C388 C389 1.400 . S
C389 C383 1.491 . S
C389 C388 1.400 . S
C389 C390 1.398 . S
C390 H378 0.950 . S
C390 C389 1.398 . S
C390 C391 1.391 . S
C391 H379 0.950 . S
C391 C387 1.393 . S
C391 C390 1.391 . S
H392 C400 0.950 . S
H393 C405 0.950 . S
H394 C402 0.950 . S
H395 C404 0.950 . S
H396 C406 0.950 . S
H397 C408 0.950 . S
H398 C410 0.950 . S
H399 C411 0.950 . S
C400 H392 0.950 . S
C400 C401 1.386 . S
C400 C402 1.391 . S
C401 C400 1.386 . S
C401 C405 1.393 . S
C402 H394 0.950 . S
C402 C400 1.391 . S
C402 C403 1.400 . S
C403 C402 1.400 . S
C403 C404 1.398 . S
C403 C409 1.491 . S
C404 H395 0.950 . S
C404 C403 1.398 . S
C404 C405 1.391 . S
C405 H393 0.950 . S
C405 C401 1.393 . S
C405 C404 1.391 . S
C406 H396 0.950 . S
C406 C407 1.386 . S
C406 C408 1.391 . S
C407 C406 1.386 . S
C407 C411 1.393 . S
C408 H397 0.950 . S
C408 C406 1.391 . S
C408 C409 1.400 . S
C409 C403 1.491 . S
C409 C408 1.400 . S
C409 C410 1.398 . S
C410 H398 0.950 . S
C410 C409 1.398 . S
C410 C411 1.391 . S
C411 H399 0.950 . S
C411 C407 1.393 . S
C411 C410 1.391 . S
H412 C420 0.950 . S
H413 C425 0.950 . S
H414 C422 0.950 . S
H415 C424 0.950 . S
H416 C426 0.950 . S
H417 C428 0.950 . S
H418 C430 0.950 . S
H419 C431 0.950 . S
C420 H412 0.950 . S
C420 C421 1.386 . S
C420 C422 1.391 . S
C421 C420 1.386 . S
C421 C425 1.393 . S
C422 H414 0.950 . S
C422 C420 1.391 . S
C422 C423 1.400 . S
C423 C422 1.400 . S
C423 C424 1.398 . S
C423 C429 1.491 . S
C424 H415 0.950 . S
C424 C423 1.398 . S
C424 C425 1.391 . S
C425 H413 0.950 . S
C425 C421 1.393 . S
C425 C424 1.391 . S
C426 H416 0.950 . S
C426 C427 1.386 . S
C426 C428 1.391 . S
C427 C426 1.386 . S
C427 C431 1.393 . S
C428 H417 0.950 . S
C428 C426 1.391 . S
C428 C429 1.400 . S
C429 C423 1.491 . S
C429 C428 1.400 . S
C429 C430 1.398 . S
C430 H418 0.950 . S
C430 C429 1.398 . S
C430 C431 1.391 . S
C431 H419 0.950 . S
C431 C427 1.393 . S
C431 C430 1.391 . S
H432 C440 0.950 . S
H433 C445 0.943 1_455 S
H434 C442 0.950 . S
H435 C444 0.950 . S
H436 C446 0.950 . S
H437 C448 0.950 . S
H438 C450 0.950 . S
H439 C451 0.950 . S
C440 H432 0.950 . S
C440 C441 1.386 . S
C440 C442 1.391 1_455 S
C441 C440 1.386 . S
C441 C445 1.393 1_455 S
C442 H434 0.950 . S
C442 C440 1.391 1_655 S
C442 C443 1.400 . S
C443 C442 1.400 . S
C443 C444 1.398 . S
C443 C449 1.491 . S
C444 H435 0.950 . S
C444 C443 1.398 . S
C444 C445 1.391 . S
C445 H433 0.943 1_655 S
C445 C441 1.393 1_655 S
C445 C444 1.391 . S
C446 H436 0.950 . S
C446 C447 1.386 . S
C446 C448 1.391 . S
C447 C446 1.386 . S
C447 C451 1.393 . S
C448 H437 0.950 . S
C448 C446 1.391 . S
C448 C449 1.400 . S
C449 C443 1.491 . S
C449 C448 1.400 . S
C449 C450 1.398 . S
C450 H438 0.950 . S
C450 C449 1.398 . S
C450 C451 1.391 . S
C451 H439 0.950 . S
C451 C447 1.393 . S
C451 C450 1.391 . S
H452 C460 0.950 . S
H453 C465 0.950 . S
H454 C462 0.950 . S
H455 C464 0.950 . S
H456 C466 0.950 . S
H457 C468 0.950 . S
H458 C470 0.950 . S
H459 C471 0.950 . S
C460 H452 0.950 . S
C460 C461 1.386 . S
C460 C462 1.391 . S
C461 C460 1.386 . S
C461 C465 1.393 . S
C462 H454 0.950 . S
C462 C460 1.391 . S
C462 C463 1.400 . S
C463 C462 1.400 . S
C463 C464 1.398 . S
C463 C469 1.491 . S
C464 H455 0.950 . S
C464 C463 1.398 . S
C464 C465 1.391 . S
C465 H453 0.950 . S
C465 C461 1.393 . S
C465 C464 1.391 . S
C466 H456 0.950 . S
C466 C467 1.386 . S
C466 C468 1.391 . S
C467 C466 1.386 . S
C467 C471 1.393 . S
C468 H457 0.950 . S
C468 C466 1.391 . S
C468 C469 1.400 . S
C469 C463 1.491 . S
C469 C468 1.400 . S
C469 C470 1.398 . S
C470 H458 0.950 . S
C470 C469 1.398 . S
C470 C471 1.391 . S
C471 H459 0.950 . S
C471 C467 1.393 . S
C471 C470 1.391 . S
H472 C480 0.950 . S
H473 C485 0.950 . S
H474 C482 0.950 . S
H475 C484 0.950 . S
H476 C486 0.950 . S
H477 C488 0.950 . S
H478 C490 0.950 . S
H479 C491 0.950 . S
C480 H472 0.950 . S
C480 C481 1.386 . S
C480 C482 1.391 1_655 S
C481 C480 1.386 . S
C481 C485 1.393 . S
C482 H474 0.950 . S
C482 C480 1.391 1_455 S
C482 C483 1.400 . S
C483 C482 1.400 . S
C483 C484 1.398 1_455 S
C483 C489 1.491 . S
C484 H475 0.950 . S
C484 C483 1.398 1_655 S
C484 C485 1.391 . S
C485 H473 0.950 . S
C485 C481 1.393 . S
C485 C484 1.391 . S
C486 H476 0.950 . S
C486 C487 1.386 . S
C486 C488 1.391 . S
C487 C486 1.386 . S
C487 C491 1.393 . S
C488 H477 0.950 . S
C488 C486 1.391 . S
C488 C489 1.400 . S
C489 C483 1.491 . S
C489 C488 1.400 . S
C489 C490 1.398 . S
C490 H478 0.950 . S
C490 C489 1.398 . S
C490 C491 1.391 . S
C491 H479 0.950 . S
C491 C487 1.393 . S
C491 C490 1.391 . S
H492 C500 0.950 . S
H493 C505 0.950 . S
H494 C502 0.950 . S
H495 C504 0.950 . S
H496 C506 0.950 . S
H497 C508 0.950 . S
H498 C510 0.950 . S
H499 C511 0.950 . S
C500 H492 0.950 . S
C500 C501 1.386 . S
C500 C502 1.391 . S
C501 C500 1.386 . S
C501 C505 1.393 . S
C502 H494 0.950 . S
C502 C500 1.391 . S
C502 C503 1.400 . S
C503 C502 1.400 . S
C503 C504 1.398 . S
C503 C509 1.491 . S
C504 H495 0.950 . S
C504 C503 1.398 . S
C504 C505 1.391 . S
C505 H493 0.950 . S
C505 C501 1.393 . S
C505 C504 1.391 . S
C506 H496 0.950 . S
C506 C507 1.386 . S
C506 C508 1.391 . S
C507 C506 1.386 . S
C507 C511 1.393 . S
C508 H497 0.950 . S
C508 C506 1.391 . S
C508 C509 1.400 . S
C509 C503 1.491 . S
C509 C508 1.400 . S
C509 C510 1.398 . S
C510 H498 0.950 . S
C510 C509 1.398 . S
C510 C511 1.391 . S
C511 H499 0.950 . S
C511 C507 1.393 . S
C511 C510 1.391 . S
H512 C520 0.950 . S
H513 C525 0.950 . S
H514 C522 0.950 . S
H515 C524 0.950 . S
H516 C526 0.950 . S
H517 C528 0.950 . S
H518 C530 0.950 . S
H519 C531 0.950 . S
C520 H512 0.950 . S
C520 C521 1.386 . S
C520 C522 1.391 . S
C521 C520 1.386 . S
C521 C525 1.393 . S
C522 H514 0.950 . S
C522 C520 1.391 . S
C522 C523 1.400 . S
C523 C522 1.400 . S
C523 C524 1.398 . S
C523 C529 1.491 . S
C524 H515 0.950 . S
C524 C523 1.398 . S
C524 C525 1.391 . S
C525 H513 0.950 . S
C525 C521 1.393 . S
C525 C524 1.391 . S
C526 H516 0.950 . S
C526 C527 1.386 . S
C526 C528 1.391 . S
C527 C526 1.386 . S
C527 C531 1.393 . S
C528 H517 0.950 . S
C528 C526 1.391 . S
C528 C529 1.400 . S
C529 C523 1.491 . S
C529 C528 1.400 . S
C529 C530 1.398 . S
C530 H518 0.950 . S
C530 C529 1.398 . S
C530 C531 1.391 . S
C531 H519 0.950 . S
C531 C527 1.393 . S
C531 C530 1.391 . S
H532 C540 0.950 . S
H533 C545 0.950 . S
H534 C542 0.950 . S
H535 C544 0.950 . S
H536 C546 0.950 . S
H537 C548 0.950 . S
H538 C550 0.950 . S
H539 C551 0.950 . S
C540 H532 0.950 . S
C540 C541 1.386 . S
C540 C542 1.391 . S
C541 C540 1.386 . S
C541 C545 1.393 . S
C542 H534 0.950 . S
C542 C540 1.391 . S
C542 C543 1.400 . S
C543 C542 1.400 . S
C543 C544 1.398 . S
C543 C549 1.491 . S
C544 H535 0.950 . S
C544 C543 1.398 . S
C544 C545 1.391 . S
C545 H533 0.950 . S
C545 C541 1.393 . S
C545 C544 1.391 . S
C546 H536 0.950 . S
C546 C547 1.386 . S
C546 C548 1.391 . S
C547 C546 1.386 . S
C547 C551 1.393 . S
C548 H537 0.950 . S
C548 C546 1.391 . S
C548 C549 1.400 . S
C549 C543 1.491 . S
C549 C548 1.400 . S
C549 C550 1.398 . S
C550 H538 0.950 . S
C550 C549 1.398 . S
C550 C551 1.391 . S
C551 H539 0.950 . S
C551 C547 1.393 . S
C551 C550 1.391 . S
H552 C560 0.950 . S
H553 C565 0.950 . S
H554 C562 0.950 . S
H555 C564 0.950 . S
H556 C566 0.950 . S
H557 C568 0.950 . S
H558 C570 0.950 . S
H559 C571 0.950 . S
C560 H552 0.950 . S
C560 C561 1.386 . S
C560 C562 1.391 . S
C561 C560 1.386 . S
C561 C565 1.393 . S
C562 H554 0.950 . S
C562 C560 1.391 . S
C562 C563 1.400 . S
C563 C562 1.400 . S
C563 C564 1.398 . S
C563 C569 1.491 . S
C564 H555 0.950 . S
C564 C563 1.398 . S
C564 C565 1.391 . S
C565 H553 0.950 . S
C565 C561 1.393 . S
C565 C564 1.391 . S
C566 H556 0.950 . S
C566 C567 1.386 . S
C566 C568 1.391 . S
C567 C566 1.386 . S
C567 C571 1.393 . S
C568 H557 0.950 . S
C568 C566 1.391 . S
C568 C569 1.400 . S
C569 C563 1.491 . S
C569 C568 1.400 . S
C569 C570 1.398 . S
C570 H558 0.950 . S
C570 C569 1.398 . S
C570 C571 1.391 . S
C571 H559 0.950 . S
C571 C567 1.393 . S
C571 C570 1.391 . S
H572 C580 0.950 . S
H573 C585 0.950 . S
H574 C582 0.950 . S
H575 C584 0.950 . S
H576 C586 0.950 . S
H577 C588 0.950 . S
H578 C590 0.950 . S
H579 C591 0.950 . S
C580 H572 0.950 . S
C580 C581 1.386 . S
C580 C582 1.391 . S
C581 C580 1.386 . S
C581 C585 1.393 . S
C582 H574 0.950 . S
C582 C580 1.391 . S
C582 C583 1.400 . S
C583 C582 1.400 . S
C583 C584 1.398 . S
C583 C589 1.491 . S
C584 H575 0.950 . S
C584 C583 1.398 . S
C584 C585 1.391 . S
C585 H573 0.950 . S
C585 C581 1.393 . S
C585 C584 1.391 . S
C586 H576 0.950 . S
C586 C587 1.386 . S
C586 C588 1.391 . S
C587 C586 1.386 . S
C587 C591 1.393 . S
C588 H577 0.950 . S
C588 C586 1.391 . S
C588 C589 1.400 . S
C589 C583 1.491 . S
C589 C588 1.400 . S
C589 C590 1.398 . S
C590 H578 0.950 . S
C590 C589 1.398 . S
C590 C591 1.391 . S
C591 H579 0.950 . S
C591 C587 1.393 . S
C591 C590 1.391 . S
H592 C600 0.950 . S
H593 C605 0.950 . S
H594 C602 0.950 . S
H595 C604 0.950 . S
H596 C606 0.950 . S
H597 C608 0.950 . S
H598 C610 0.950 . S
H599 C611 0.950 . S
C600 H592 0.950 . S
C600 C601 1.386 . S
C600 C602 1.391 . S
C601 C600 1.386 . S
C601 C605 1.393 . S
C602 H594 0.950 . S
C602 C600 1.391 . S
C602 C603 1.400 . S
C603 C602 1.400 . S
C603 C604 1.398 . S
C603 C609 1.491 . S
C604 H595 0.950 . S
C604 C603 1.398 . S
C604 C605 1.391 . S
C605 H593 0.950 . S
C605 C601 1.393 . S
C605 C604 1.391 . S
C606 H596 0.950 . S
C606 C607 1.386 . S
C606 C608 1.391 . S
C607 C606 1.386 . S
C607 C611 1.393 . S
C608 H597 0.950 . S
C608 C606 1.391 . S
C608 C609 1.400 . S
C609 C603 1.491 . S
C609 C608 1.400 . S
C609 C610 1.398 . S
C610 H598 0.950 . S
C610 C609 1.398 . S
C610 C611 1.391 . S
C611 H599 0.950 . S
C611 C607 1.393 . S
C611 C610 1.391 . S
H612 C620 0.950 . S
H613 C625 0.950 . S
H614 C622 0.950 . S
H615 C624 0.950 . S
H616 C626 0.950 . S
H617 C628 0.950 . S
H618 C630 0.950 . S
H619 C631 0.950 . S
C620 H612 0.950 . S
C620 C621 1.386 . S
C620 C622 1.391 . S
C621 C620 1.386 . S
C621 C625 1.393 . S
C622 H614 0.950 . S
C622 C620 1.391 . S
C622 C623 1.400 . S
C623 C622 1.400 . S
C623 C624 1.398 . S
C623 C629 1.491 . S
C624 H615 0.950 . S
C624 C623 1.398 . S
C624 C625 1.391 . S
C625 H613 0.950 . S
C625 C621 1.393 . S
C625 C624 1.391 . S
C626 H616 0.950 . S
C626 C627 1.386 . S
C626 C628 1.391 . S
C627 C626 1.386 . S
C627 C631 1.393 . S
C628 H617 0.950 . S
C628 C626 1.391 . S
C628 C629 1.400 . S
C629 C623 1.491 . S
C629 C628 1.400 . S
C629 C630 1.398 . S
C630 H618 0.950 . S
C630 C629 1.398 . S
C630 C631 1.391 . S
C631 H619 0.950 . S
C631 C627 1.393 . S
C631 C630 1.391 . S
H632 C640 0.950 . S
H633 C645 0.950 1_554 S
H634 C642 0.950 . S
H635 C644 0.950 . S
H636 C646 0.950 . S
H637 C648 0.950 . S
H638 C650 0.950 . S
H639 C651 0.950 . S
C640 H632 0.950 . S
C640 C641 1.386 . S
C640 C642 1.391 . S
C641 C640 1.386 . S
C641 C645 1.393 . S
C642 H634 0.950 . S
C642 C640 1.391 . S
C642 C643 1.400 . S
C643 C642 1.400 . S
C643 C644 1.398 . S
C643 C649 1.491 . S
C644 H635 0.950 . S
C644 C643 1.398 . S
C644 C645 1.391 . S
C645 H633 0.950 1_556 S
C645 C641 1.393 . S
C645 C644 1.391 . S
C646 H636 0.950 . S
C646 C647 1.386 . S
C646 C648 1.391 . S
C647 C646 1.386 . S
C647 C651 1.393 . S
C648 H637 0.950 . S
C648 C646 1.391 . S
C648 C649 1.400 . S
C649 C643 1.491 . S
C649 C648 1.400 . S
C649 C650 1.398 . S
C650 H638 0.950 . S
C650 C649 1.398 . S
C650 C651 1.391 . S
C651 H639 0.950 . S
C651 C647 1.393 . S
C651 C650 1.391 . S
C181 C7 0.835 . S
C187 C93 0.802 . S
C201 C25 0.896 . S
C207 C104 0.883 . S
C221 C46 0.897 . S
C227 C112 0.899 . S
C247 C126 0.766 . S
C241 C70 0.721 . S
C267 C137 0.844 . S
C261 C28 0.811 . S
C281 C49 0.776 . S
C287 C148 0.776 . S
C301 C67 0.875 . S
C307 C156 0.913 . S
C321 C4 0.893 . S
C327 C170 0.873 . S
C341 C58 1.572 . S
C347 C167 1.666 . S
C367 C134 1.556 . S
C361 C66 1.465 . S
C387 C145 1.662 . S
C381 C3 1.610 . S
C401 C37 1.699 . S
C407 C159 1.771 . S
C427 C101 1.659 . S
C421 C79 1.557 . S
C441 C16 1.701 . S
C447 C115 1.783 . S
C467 C123 1.671 . S
C461 C24 1.592 . S
C487 C90 1.543 . S
C481 C45 1.445 . S
C507 N154 1.467 . S
C501 C19 1.302 . S
C527 N165 1.464 . S
C521 C41 1.331 . S
C541 C62 1.242 . S
C547 N132 1.343 . S
C567 N143 1.310 . S
C561 C82 1.165 . S
C587 N110 1.455 . S
C581 C40 1.331 . S
C601 C61 1.157 . S
C607 N121 1.309 . S
C627 N88 1.344 . S
C621 C83 1.211 . S
C647 N99 1.465 . S
C641 C20 1.309 . S
