# Generated by pormake.
# Topology zzz, (3,6)-cn, num edge types: 1
# Building blocks:
#     Node 0, Type 0, BuildingBlock: BETDIP_clean_linker_0, # of connection points: 3
#     Node 1, Type 0, BuildingBlock: BETDIP_clean_linker_0, # of connection points: 3
#     Node 2, Type 0, BuildingBlock: BETDIP_clean_linker_0, # of connection points: 3
#     Node 3, Type 0, BuildingBlock: BETDIP_clean_linker_0, # of connection points: 3
#     Node 4, Type 0, BuildingBlock: BETDIP_clean_linker_0, # of connection points: 3
#     Node 5, Type 0, BuildingBlock: BETDIP_clean_linker_0, # of connection points: 3
#     Node 6, Type 0, BuildingBlock: BETDIP_clean_linker_0, # of connection points: 3
#     Node 7, Type 0, BuildingBlock: BETDIP_clean_linker_0, # of connection points: 3
#     Node 8, Type 1, BuildingBlock: BETFEN_clean_sbu_0, # of connection points: 6
#     Node 9, Type 1, BuildingBlock: BETFEN_clean_sbu_0, # of connection points: 6
#     Node 10, Type 1, BuildingBlock: BETFEN_clean_sbu_0, # of connection points: 6
#     Node 11, Type 1, BuildingBlock: BETFEN_clean_sbu_0, # of connection points: 6
#     Edge 12, Type (0, 1), BuildingBlock: MIFKUJ_clean_linker_0, # of connection points: 2
#     Edge 13, Type (0, 1), BuildingBlock: MIFKUJ_clean_linker_0, # of connection points: 2
#     Edge 14, Type (0, 1), BuildingBlock: MIFKUJ_clean_linker_0, # of connection points: 2
#     Edge 15, Type (0, 1), BuildingBlock: MIFKUJ_clean_linker_0, # of connection points: 2
#     Edge 16, Type (0, 1), BuildingBlock: MIFKUJ_clean_linker_0, # of connection points: 2
#     Edge 17, Type (0, 1), BuildingBlock: MIFKUJ_clean_linker_0, # of connection points: 2
#     Edge 18, Type (0, 1), BuildingBlock: MIFKUJ_clean_linker_0, # of connection points: 2
#     Edge 19, Type (0, 1), BuildingBlock: MIFKUJ_clean_linker_0, # of connection points: 2
#     Edge 20, Type (0, 1), BuildingBlock: MIFKUJ_clean_linker_0, # of connection points: 2
#     Edge 21, Type (0, 1), BuildingBlock: MIFKUJ_clean_linker_0, # of connection points: 2
#     Edge 22, Type (0, 1), BuildingBlock: MIFKUJ_clean_linker_0, # of connection points: 2
#     Edge 23, Type (0, 1), BuildingBlock: MIFKUJ_clean_linker_0, # of connection points: 2
#     Edge 24, Type (0, 1), BuildingBlock: MIFKUJ_clean_linker_0, # of connection points: 2
#     Edge 25, Type (0, 1), BuildingBlock: MIFKUJ_clean_linker_0, # of connection points: 2
#     Edge 26, Type (0, 1), BuildingBlock: MIFKUJ_clean_linker_0, # of connection points: 2
#     Edge 27, Type (0, 1), BuildingBlock: MIFKUJ_clean_linker_0, # of connection points: 2
#     Edge 28, Type (0, 1), BuildingBlock: MIFKUJ_clean_linker_0, # of connection points: 2
#     Edge 29, Type (0, 1), BuildingBlock: MIFKUJ_clean_linker_0, # of connection points: 2
#     Edge 30, Type (0, 1), BuildingBlock: MIFKUJ_clean_linker_0, # of connection points: 2
#     Edge 31, Type (0, 1), BuildingBlock: MIFKUJ_clean_linker_0, # of connection points: 2
#     Edge 32, Type (0, 1), BuildingBlock: MIFKUJ_clean_linker_0, # of connection points: 2
#     Edge 33, Type (0, 1), BuildingBlock: MIFKUJ_clean_linker_0, # of connection points: 2
#     Edge 34, Type (0, 1), BuildingBlock: MIFKUJ_clean_linker_0, # of connection points: 2
#     Edge 35, Type (0, 1), BuildingBlock: MIFKUJ_clean_linker_0, # of connection points: 2
# Relax obj value: 0.230
# Max RMSD: 0.175
# Mean RMSD: 0.158
data_MOF--net-zzz--node1-BETFEN_clean_sbu_0--node2-BETDIP_clean_linker_0--edge1-MIFKUJ_clean_linker_0
_symmetry_space_group_name_H-M    P1
_symmetry_Int_Tables_number       1
_symmetry_cell_setting            triclinic
loop_
_symmetry_equiv_pos_as_xyz
'x, y, z'
_cell_length_a     68.799409
_cell_length_b     68.695442
_cell_length_c     17.170843
_cell_angle_alpha  90.048011
_cell_angle_beta   89.889304
_cell_angle_gamma 90.387332
loop_
_atom_site_label
_atom_site_type_symbol
_atom_site_fract_x
_atom_site_fract_y
_atom_site_fract_z
_atom_type_partial_charge
H0 H 0.74586 0.49858 0.44412 0.0
H1 H 0.72895 0.52536 0.22753 0.0
H2 H 0.78733 0.53121 0.30814 0.0
H3 H 0.69911 0.53192 0.36028 0.0
C4 C 0.69874 0.51751 0.3341 0.0
C5 C 0.7493 0.50789 0.39511 0.0
C6 C 0.76867 0.5148 0.38424 0.0
C7 C 0.73454 0.51269 0.34013 0.0
C8 C 0.73957 0.52335 0.27335 0.0
C9 C 0.75859 0.52979 0.26185 0.0
C10 C 0.77258 0.52643 0.31903 0.0
N11 N 0.71516 0.50518 0.34588 0.0
H12 H 0.0153 0.74311 0.45011 0.0
H13 H 0.99859 0.73299 0.21114 0.0
H14 H 0.99945 0.7911 0.30318 0.0
H15 H 0.9807 0.70432 0.32369 0.0
C16 C 0.99594 0.70103 0.3137 0.0
C17 C 0.01015 0.74857 0.39481 0.0
C18 C 1.00705 0.76884 0.38476 0.0
C19 C 1.00652 0.73544 0.33218 0.0
C20 C 1.0005 0.74281 0.26004 0.0
C21 C 0.99797 0.76279 0.24933 0.0
C22 C 1.00093 0.77554 0.31203 0.0
N23 N 0.01011 0.71503 0.33857 0.0
H24 H 0.77689 0.98867 0.4612 0.0
H25 H 0.78715 0.02494 0.25932 0.0
H26 H 0.73409 0.03008 0.38731 0.0
H27 H 0.79752 0.9911 0.22588 0.0
C28 C 0.80913 0.99307 0.26817 0.0
C29 C 0.7726 1.00054 0.42365 0.0
C30 C 0.75408 1.00933 0.43347 0.0
C31 C 0.78504 1.00656 0.36144 0.0
C32 C 0.77845 0.02091 0.30955 0.0
C33 C 0.76018 0.02928 0.31879 0.0
C34 C 0.74865 0.02415 0.38261 0.0
N35 N 0.80341 0.99749 0.3465 0.0
H36 H 0.50449 0.77677 0.46359 0.0
H37 H 0.52488 0.78273 0.2264 0.0
H38 H 0.51919 0.72613 0.32867 0.0
H39 H 0.54223 0.80919 0.30508 0.0
C40 C 0.52772 0.81526 0.31059 0.0
C41 C 0.50974 0.77033 0.41001 0.0
C42 C 0.51174 0.74976 0.40406 0.0
C43 C 0.51492 0.78248 0.34574 0.0
C44 C 0.52144 0.77375 0.27648 0.0
C45 C 0.52315 0.75358 0.27024 0.0
C46 C 0.51839 0.74185 0.33408 0.0
N47 N 0.51335 0.80331 0.34831 0.0
H48 H 0.27122 0.49058 0.96568 0.0
H49 H 0.28385 0.52493 0.17029 0.0
H50 H 0.22617 0.52392 0.07633 0.0
H51 H 0.31369 0.52963 0.06367 0.0
C52 C 0.31542 0.51468 0.08313 0.0
C53 C 0.26663 0.50076 0.01012 0.0
C54 C 0.24702 0.50703 0.01279 0.0
C55 C 0.2802 0.50769 0.0662 0.0
C56 C 0.27382 0.52029 0.12524 0.0
C57 C 0.25443 0.52615 0.12917 0.0
C58 C 0.24133 0.51978 0.07214 0.0
N59 N 0.29992 0.50128 0.06728 0.0
H60 H 0.031 0.27293 0.94622 0.0
H61 H 1.00454 0.28166 0.17192 0.0
H62 H 1.00634 0.22452 0.07195 0.0
H63 H 0.99364 0.31189 0.07835 0.0
C64 C 1.00915 0.31473 0.0831 0.0
C65 C 0.02326 0.26724 0.99631 0.0
C66 C 0.01898 0.24705 0.00124 0.0
C67 C 0.01746 0.28 0.05727 0.0
C68 C 1.00806 0.27226 0.12322 0.0
C69 C 1.0046 0.25227 0.12934 0.0
C70 C 1.00945 0.24 0.0674 0.0
N71 N 0.02239 0.30025 0.05612 0.0
H72 H 0.24649 0.02707 0.9387 0.0
H73 H 0.23312 1.00448 0.16819 0.0
H74 H 0.29197 1.0073 0.0909 0.0
H75 H 0.20603 0.99183 0.07969 0.0
C76 C 0.20221 1.00708 0.07335 0.0
C77 C 0.25111 0.02076 0.99332 0.0
C78 C 0.27121 0.01736 0.00701 0.0
C79 C 0.23705 0.01593 0.0516 0.0
C80 C 0.24338 1.00789 0.12233 0.0
C81 C 0.26303 1.00496 0.1358 0.0
C82 C 0.2767 1.00962 0.07872 0.0
N83 N 0.21678 0.01985 0.04187 0.0
H84 H 0.49669 0.24601 0.94862 0.0
H85 H 0.51514 0.22966 0.18006 0.0
H86 H 0.5134 0.28977 0.11591 0.0
H87 H 0.53103 0.20298 0.05083 0.0
C88 C 0.51589 0.20048 0.06632 0.0
C89 C 0.50207 0.25003 0.00565 0.0
C90 C 0.50491 0.26998 0.02472 0.0
C91 C 0.50607 0.23529 0.06177 0.0
C92 C 0.51265 0.24068 0.1361 0.0
C93 C 0.51479 0.26026 0.15546 0.0
C94 C 0.51131 0.27462 0.0998 0.0
N95 N 0.50214 0.2152 0.04691 0.0
Pr96 Pr 0.02521 1.00419 0.78007 0.0
Pr97 Pr 0.9995 0.01248 0.62359 0.0
C98 C 0.03589 0.99426 0.92458 0.0
C99 C 0.03241 0.97617 0.96745 0.0
C100 C 0.04794 0.96699 0.00496 0.0
C101 C 0.04644 0.94736 0.02568 0.0
C102 C 0.02927 0.93692 0.00995 0.0
C103 C 0.01328 0.94658 0.97801 0.0
C104 C 0.01492 0.96597 0.95613 0.0
C105 C 0.05018 0.01109 0.65193 0.0
C106 C 0.01005 0.96631 0.66732 0.0
C107 C 0.98894 0.02514 0.48259 0.0
C108 C 0.98807 0.04553 0.45762 0.0
C109 C 0.97207 0.05219 0.41504 0.0
C110 C 0.96889 0.07218 0.40722 0.0
C111 C 0.98149 0.08562 0.44325 0.0
C112 C 0.99796 0.07893 0.48253 0.0
C113 C 1.0013 0.05905 0.48924 0.0
C114 C 0.97442 1.00787 0.75298 0.0
C115 C 0.01494 0.05032 0.73596 0.0
O116 O 0.02069 1.00515 0.91069 0.0
O117 O 0.04718 0.99213 0.86392 0.0
O118 O 0.03178 0.01107 0.65219 0.0
O119 O 0.05622 1.00789 0.72227 0.0
O120 O 1.00387 0.97861 0.61327 0.0
O121 O 0.01689 0.97236 0.73575 0.0
O122 O 1.00629 0.01834 0.49675 0.0
O123 O 0.97628 0.0205 0.53636 0.0
O124 O 0.99281 1.00679 0.75311 0.0
O125 O 0.96856 0.01089 0.68227 0.0
O126 O 0.02211 0.03813 0.78817 0.0
O127 O 1.00678 0.04423 0.67016 0.0
H128 H 0.06168 0.97454 0.0128 0.0
H129 H 0.05894 0.94011 0.05019 0.0
H130 H 1.00003 0.93873 0.96388 0.0
H131 H 1.00302 0.97241 0.92464 0.0
H132 H 0.96156 0.04198 0.39131 0.0
H133 H 0.95613 0.07713 0.37634 0.0
H134 H 1.00801 0.08908 0.50959 0.0
H135 H 0.01372 0.05428 0.52263 0.0
Pr136 Pr 0.5143 0.02376 0.76966 0.0
Pr137 Pr 0.50764 0.99519 0.6205 0.0
C138 C 0.52043 0.03761 0.91365 0.0
C139 C 0.5379 0.03936 0.96228 0.0
C140 C 0.5483 0.05701 0.96308 0.0
C141 C 0.56715 0.05771 0.99198 0.0
C142 C 0.57574 0.04087 0.02231 0.0
C143 C 0.56458 0.02374 0.02885 0.0
C144 C 0.54582 0.02295 0.99876 0.0
C145 C 0.50701 0.04635 0.63568 0.0
C146 C 0.55343 1.00884 0.66594 0.0
C147 C 0.49974 0.9819 0.47727 0.0
C148 C 0.4815 0.98156 0.43315 0.0
C149 C 0.47279 0.96351 0.41638 0.0
C150 C 0.45323 0.96253 0.39582 0.0
C151 C 0.44232 0.97962 0.39017 0.0
C152 C 0.45144 0.99777 0.3998 0.0
C153 C 0.47091 0.99876 0.42172 0.0
C154 C 0.51394 0.97253 0.7553 0.0
C155 C 0.46867 1.01045 0.72448 0.0
O156 O 0.51374 0.02 0.90053 0.0
O157 O 0.52046 0.04858 0.85144 0.0
O158 O 0.50771 0.02798 0.6399 0.0
O159 O 0.50978 0.05364 0.70444 0.0
O160 O 0.54148 1.00088 0.61408 0.0
O161 O 0.54692 0.01711 0.73118 0.0
O162 O 0.5079 0.99893 0.48948 0.0
O163 O 0.49958 0.97078 0.53905 0.0
O164 O 0.51363 0.99092 0.75071 0.0
O165 O 0.51171 0.96524 0.68618 0.0
O166 O 0.48074 0.01816 0.7761 0.0
O167 O 0.475 1.00208 0.65922 0.0
H168 H 0.54238 0.06998 0.93645 0.0
H169 H 0.57532 0.07116 0.98614 0.0
H170 H 0.57061 0.01071 0.05447 0.0
H171 H 0.53798 1.00922 1.00044 0.0
H172 H 0.48069 0.9501 0.42497 0.0
H173 H 0.4464 0.94842 0.38771 0.0
H174 H 0.44318 0.0111 0.39563 0.0
H175 H 0.47721 0.01289 0.43468 0.0
Pr176 Pr 0.49445 0.51277 0.77498 0.0
Pr177 Pr 0.51849 0.50594 0.63001 0.0
C178 C 0.4798 0.52611 0.90909 0.0
C179 C 0.48395 0.54511 0.94438 0.0
C180 C 0.46859 0.55719 0.96699 0.0
C181 C 0.47185 0.5771 0.97809 0.0
C182 C 0.49047 0.58505 0.96573 0.0
C183 C 0.50607 0.57266 0.94949 0.0
C184 C 0.50284 0.55287 0.93878 0.0
C185 C 0.47229 0.50354 0.64356 0.0
C186 C 0.50949 0.55191 0.67073 0.0
C187 C 0.52735 0.49411 0.48565 0.0
C188 C 0.53559 0.47577 0.45716 0.0
C189 C 0.55079 0.4667 0.49749 0.0
C190 C 0.555 0.44714 0.48368 0.0
C191 C 0.54392 0.43627 0.43018 0.0
C192 C 0.52958 0.44582 0.38633 0.0
C193 C 0.52555 0.46541 0.39946 0.0
C194 C 0.54545 0.50736 0.75366 0.0
C195 C 0.50589 0.4674 0.74091 0.0
O196 O 0.49434 0.51393 0.90664 0.0
O197 O 0.47031 0.52705 0.84337 0.0
O198 O 0.48656 0.5153 0.64522 0.0
O199 O 0.46933 0.49578 0.71161 0.0
O200 O 0.51603 0.53983 0.61701 0.0
O201 O 0.50231 0.54526 0.73738 0.0
O202 O 0.51001 0.49213 0.51613 0.0
O203 O 0.53878 0.5057 0.52579 0.0
O204 O 0.52722 0.50928 0.7608 0.0
O205 O 0.55012 0.5049 0.68114 0.0
O206 O 0.50024 0.47973 0.7951 0.0
O207 O 0.51158 0.47364 0.67157 0.0
H208 H 0.45388 0.55152 0.97012 0.0
H209 H 0.45962 0.58644 0.9908 0.0
H210 H 0.52061 0.57845 0.94108 0.0
H211 H 0.51494 0.54397 0.92035 0.0
H212 H 0.55866 0.47434 0.54289 0.0
H213 H 0.56642 0.44035 0.51716 0.0
H214 H 0.52058 0.43791 0.34527 0.0
H215 H 0.51359 0.47208 0.36857 0.0
Pr216 Pr 1.0044 0.49373 0.78078 0.0
Pr217 Pr 0.01283 0.51874 0.62142 0.0
C218 C 0.99267 0.48431 0.92411 0.0
C219 C 0.97436 0.49022 0.96026 0.0
C220 C 0.96242 0.47621 0.99598 0.0
C221 C 0.94272 0.48006 0.00823 0.0
C222 C 0.93483 0.49795 0.98469 0.0
C223 C 0.94719 0.5124 0.95446 0.0
C224 C 0.9667 0.50851 0.94168 0.0
C225 C 0.01145 0.46833 0.65455 0.0
C226 C 0.9668 0.50758 0.66569 0.0
C227 C 0.02458 0.529 0.47831 0.0
C228 C 0.04462 0.53147 0.44942 0.0
C229 C 0.05191 0.55026 0.43481 0.0
C230 C 0.07192 0.55349 0.42921 0.0
C231 C 0.08491 0.53792 0.43757 0.0
C232 C 0.07747 0.51892 0.44469 0.0
C233 C 0.05753 0.51571 0.45078 0.0
C234 C 1.00832 0.5444 0.74952 0.0
C235 C 0.05052 0.50441 0.73582 0.0
O236 O 1.00551 0.49817 0.9114 0.0
O237 O 0.99023 0.47272 0.86441 0.0
O238 O 0.01121 0.48671 0.65387 0.0
O239 O 1.00861 0.46243 0.72551 0.0
O240 O 0.97916 0.51309 0.61043 0.0
O241 O 0.97277 0.50194 0.73575 0.0
O242 O 0.01911 0.51125 0.4957 0.0
O243 O 0.01921 0.54174 0.53058 0.0
O244 O 1.00715 0.52598 0.75043 0.0
O245 O 0.01134 0.55001 0.67835 0.0
O246 O 0.03819 0.4979 0.7895 0.0
O247 O 0.0446 0.5116 0.66788 0.0
H248 H 0.96797 0.46186 0.00902 0.0
H249 H 0.93349 0.46865 0.03172 0.0
H250 H 0.9416 0.52648 0.93748 0.0
H251 H 0.97538 0.51937 0.91188 0.0
H252 H 0.04223 0.56263 0.43331 0.0
H253 H 0.07722 0.56829 0.42316 0.0
H254 H 0.0871 0.50655 0.44867 0.0
H255 H 0.05242 0.501 0.46134 0.0
H256 H 0.1654 0.01897 0.03552 0.0
H257 H 0.13756 0.02226 0.12473 0.0
H258 H 0.17545 0.01199 0.3201 0.0
H259 H 0.20288 1.00817 0.23115 0.0
H260 H 0.14555 0.98945 0.33285 0.0
H261 H 0.153 0.0581 0.27704 0.0
H262 H 0.15499 0.08695 0.1919 0.0
H263 H 0.09791 0.0745 0.10334 0.0
H264 H 0.09567 0.04544 0.1874 0.0
H265 H 0.08942 0.01277 0.65777 0.0
H266 H 0.11277 0.01465 0.55142 0.0
H267 H 0.0659 0.01689 0.38563 0.0
H268 H 0.04222 0.01495 0.49328 0.0
H269 H 0.09714 0.04252 0.34665 0.0
H270 H 0.0888 0.97526 0.40665 0.0
H271 H 0.08641 0.94636 0.49127 0.0
H272 H 0.145 0.95582 0.56907 0.0
H273 H 0.14765 0.98496 0.48571 0.0
C274 C 0.16782 0.01806 0.09771 0.0
C275 C 0.18644 0.01379 0.12639 0.0
C276 C 0.15187 0.01986 0.14888 0.0
C277 C 0.15423 0.01746 0.22992 0.0
C278 C 0.17305 0.01389 0.25825 0.0
C279 C 0.18886 0.01194 0.20725 0.0
C280 C 0.13717 0.01714 0.28515 0.0
C281 C 0.13517 1.00124 0.33618 0.0
C282 C 0.12294 0.03201 0.28816 0.0
C283 C 0.12426 0.04949 0.23789 0.0
C284 C 0.14093 0.06144 0.23899 0.0
C285 C 0.14209 0.07784 0.19102 0.0
C286 C 0.12661 0.08252 0.14208 0.0
C287 C 0.10991 0.07084 0.1412 0.0
C288 C 0.10867 0.05442 0.18905 0.0
C289 C 0.08394 0.01377 0.59883 0.0
C290 C 0.06379 0.01362 0.58444 0.0
C291 C 0.09741 0.01482 0.53778 0.0
C292 C 0.09124 0.01567 0.45996 0.0
C293 C 0.07111 0.01621 0.44504 0.0
C294 C 0.05752 0.01509 0.50669 0.0
C295 C 0.10604 0.01515 0.3955 0.0
C296 C 0.10754 0.03076 0.34277 0.0
C297 C 0.11983 0.99997 0.39044 0.0
C298 C 0.11837 0.98238 0.44034 0.0
C299 C 0.10113 0.97126 0.44221 0.0
C300 C 0.09974 0.95482 0.48989 0.0
C301 C 0.11553 0.94928 0.53563 0.0
C302 C 0.13277 0.96014 0.53364 0.0
C303 C 0.13424 0.97661 0.48611 0.0
H304 H 0.11442 0.93655 0.57251 0.0
H305 H 0.12754 0.09522 0.10496 0.0
H306 H 0.53534 0.16636 0.06689 0.0
H307 H 0.53074 0.13822 0.15301 0.0
H308 H 0.48221 0.16672 0.26233 0.0
H309 H 0.48637 0.19473 0.17397 0.0
H310 H 0.51504 0.15199 0.36528 0.0
H311 H 0.4708 0.13077 0.16255 0.0
H312 H 0.46213 0.12279 0.0269 0.0
H313 H 0.50671 0.07936 0.0201 0.0
H314 H 0.51583 0.08728 0.15543 0.0
H315 H 0.48841 0.0807 0.63193 0.0
H316 H 0.4872 0.10449 0.52707 0.0
H317 H 0.51871 0.06528 0.37735 0.0
H318 H 0.51903 0.0408 0.48253 0.0
H319 H 0.49514 0.08503 0.28986 0.0
H320 H 0.54142 0.1046 0.47716 0.0
H321 H 0.55507 0.11223 0.60635 0.0
H322 H 0.51373 0.15824 0.63523 0.0
H323 H 0.49964 0.15071 0.50655 0.0
C324 C 0.52341 0.16645 0.10813 0.0
C325 C 0.5111 0.18269 0.11293 0.0
C326 C 0.52081 0.15035 0.15746 0.0
C327 C 0.50611 0.15024 0.21426 0.0
C328 C 0.49361 0.16638 0.21875 0.0
C329 C 0.49591 0.18234 0.1679 0.0
C330 C 0.50473 0.13388 0.27189 0.0
C331 C 0.5103 0.13744 0.34917 0.0
C332 C 0.49966 0.11459 0.2501 0.0
C333 C 0.49411 0.10975 0.16892 0.0
C334 C 0.47887 0.11964 0.13192 0.0
C335 C 0.47385 0.1151 0.05513 0.0
C336 C 0.48389 0.10062 0.01484 0.0
C337 C 0.49895 0.0906 0.05135 0.0
C338 C 0.50403 0.09509 0.12813 0.0
C339 C 0.49478 0.07694 0.57619 0.0
C340 C 0.50384 0.05884 0.56579 0.0
C341 C 0.49427 0.09071 0.5162 0.0
C342 C 0.50345 0.08717 0.44435 0.0
C343 C 0.51166 0.06861 0.43214 0.0
C344 C 0.51179 0.05453 0.49222 0.0
C345 C 0.50498 0.1032 0.38446 0.0
C346 C 0.4997 0.09958 0.30655 0.0
C347 C 0.511 0.12239 0.40489 0.0
C348 C 0.51934 0.12695 0.48253 0.0
C349 C 0.53513 0.11624 0.51133 0.0
C350 C 0.54297 0.12056 0.58441 0.0
C351 C 0.53524 0.13567 0.62906 0.0
C352 C 0.51968 0.14652 0.60062 0.0
C353 C 0.51177 0.14224 0.52758 0.0
H354 H 0.54134 0.139 0.68562 0.0
H355 H 0.47998 0.09712 0.9554 0.0
H356 H 0.34658 0.53787 0.10705 0.0
H357 H 0.37375 0.53344 0.19637 0.0
H358 H 0.35022 0.47775 0.26576 0.0
H359 H 0.32272 0.48224 0.17574 0.0
H360 H 0.36147 0.50005 0.39236 0.0
H361 H 0.39138 0.48081 0.14957 0.0
H362 H 0.40064 0.48496 0.01166 0.0
H363 H 0.43177 0.53743 0.0687 0.0
H364 H 0.42257 0.5337 0.20665 0.0
H365 H 0.44289 0.47706 0.62558 0.0
H366 H 0.4175 0.47635 0.52617 0.0
H367 H 0.44253 0.52752 0.41916 0.0
H368 H 0.46851 0.52769 0.51683 0.0
H369 H 0.43039 0.50562 0.30952 0.0
H370 H 0.40005 0.52812 0.54241 0.0
H371 H 0.39066 0.52742 0.68107 0.0
H372 H 0.35982 0.47363 0.64496 0.0
H373 H 0.36922 0.47389 0.50617 0.0
C374 C 0.34729 0.52453 0.14053 0.0
C375 C 0.33255 0.51035 0.13362 0.0
C376 C 0.36291 0.52199 0.19164 0.0
C377 C 0.36431 0.50515 0.2376 0.0
C378 C 0.3496 0.49085 0.2308 0.0
C379 C 0.33392 0.49335 0.17895 0.0
C380 C 0.38078 0.50302 0.29432 0.0
C381 C 0.37655 0.50086 0.37398 0.0
C382 C 0.40053 0.50488 0.27134 0.0
C383 C 0.40618 0.50703 0.18837 0.0
C384 C 0.40012 0.49329 0.13259 0.0
C385 C 0.40539 0.49555 0.0544 0.0
C386 C 0.41679 0.51146 0.03136 0.0
C387 C 0.42297 0.52511 0.08651 0.0
C388 C 0.41777 0.5229 0.16473 0.0
C389 C 0.44307 0.48809 0.58051 0.0
C390 C 0.45768 0.50251 0.57954 0.0
C391 C 0.42839 0.48778 0.52383 0.0
C392 C 0.42761 0.50217 0.46558 0.0
C393 C 0.44259 0.51626 0.46327 0.0
C394 C 0.45748 0.51638 0.51933 0.0
C395 C 0.41114 0.50265 0.40789 0.0
C396 C 0.41534 0.50459 0.32806 0.0
C397 C 0.39133 0.50107 0.4309 0.0
C398 C 0.38551 0.50092 0.51411 0.0
C399 C 0.39137 0.51608 0.56416 0.0
C400 C 0.38603 0.51577 0.64274 0.0
C401 C 0.3747 0.50046 0.67185 0.0
C402 C 0.36862 0.48546 0.62235 0.0
C403 C 0.37393 0.48569 0.5437 0.0
H404 H 0.37059 0.50024 0.73273 0.0
H405 H 0.42084 0.51319 0.97081 0.0
H406 H 1.00851 0.35326 0.04607 0.0
H407 H 0.01193 0.38109 0.13534 0.0
H408 H 0.02427 0.34166 0.32383 0.0
H409 H 0.02128 0.31391 0.23397 0.0
H410 H 0.99457 0.36764 0.35858 0.0
H411 H 0.05963 0.37089 0.25366 0.0
H412 H 0.08413 0.37322 0.14903 0.0
H413 H 0.06026 0.4278 0.07575 0.0
H414 H 0.03544 0.42568 0.17941 0.0
H415 H 0.01951 0.42993 0.66324 0.0
H416 H 0.02163 0.40609 0.55857 0.0
H417 H 0.01199 0.45128 0.38926 0.0
H418 H 1.00976 0.47541 0.49516 0.0
H419 H 0.03939 0.42428 0.33681 0.0
H420 H 0.97546 0.42267 0.43864 0.0
H421 H 0.95017 0.4216 0.54034 0.0
H422 H 0.96948 0.36503 0.61119 0.0
H423 H 0.99529 0.36599 0.5113 0.0
C424 C 0.01259 0.35063 0.10603 0.0
C425 C 0.01514 0.33148 0.13268 0.0
C426 C 0.01445 0.36653 0.15718 0.0
C427 C 0.01844 0.36359 0.23664 0.0
C428 C 0.0213 0.3444 0.2629 0.0
C429 C 0.01979 0.32854 0.2114 0.0
C430 C 0.01822 0.38025 0.29331 0.0
C431 C 1.00458 0.37986 0.35432 0.0
C432 C 0.03064 0.39673 0.28613 0.0
C433 C 0.04554 0.39802 0.2238 0.0
C434 C 0.05949 0.3833 0.2148 0.0
C435 C 0.07346 0.38461 0.15577 0.0
C436 C 0.07372 0.40062 0.10563 0.0
C437 C 0.06003 0.41539 0.11457 0.0
C438 C 0.04601 0.41415 0.1735 0.0
C439 C 0.01801 0.43493 0.60375 0.0
C440 C 0.01451 0.4547 0.58782 0.0
C441 C 0.0192 0.4212 0.54371 0.0
C442 C 0.01673 0.42671 0.46561 0.0
C443 C 0.01397 0.44659 0.44889 0.0
C444 C 0.01277 0.46044 0.50949 0.0
C445 C 0.01606 0.41138 0.40317 0.0
C446 C 0.02939 0.41206 0.34096 0.0
C447 C 1.00311 0.39527 0.40823 0.0
C448 C 0.98745 0.39448 0.46785 0.0
C449 C 0.97443 0.41006 0.47628 0.0
C450 C 0.95998 0.40947 0.53356 0.0
C451 C 0.9582 0.39325 0.58213 0.0
C452 C 0.97088 0.37759 0.57352 0.0
C453 C 0.98545 0.37815 0.51662 0.0
H454 H 0.94699 0.39282 0.6264 0.0
H455 H 0.08455 0.4016 0.05997 0.0
H456 H 0.84589 0.98459 0.32806 0.0
H457 H 0.87716 0.9867 0.25728 0.0
H458 H 0.84771 0.01255 0.06168 0.0
H459 H 0.81686 1.00958 0.13015 0.0
H460 H 0.86821 0.98521 0.00971 0.0
H461 H 0.88181 0.03684 0.19709 0.0
H462 H 0.88734 0.05067 0.32789 0.0
H463 H 0.93395 1.01053 0.36561 0.0
H464 H 0.9285 0.99626 0.23548 0.0
H465 H 0.93734 0.02036 0.75375 0.0
H466 H 0.91305 0.01819 0.85601 0.0
H467 H 0.95485 0.9914 0.00818 0.0
H468 H 0.9799 0.9949 0.90564 0.0
H469 H 0.93112 0.01386 0.09308 0.0
H470 H 0.91911 0.96373 0.90536 0.0
H471 H 0.91451 0.94998 0.77385 0.0
H472 H 0.86498 0.98663 0.73893 0.0
H473 H 0.8694 1.00075 0.86984 0.0
C474 C 0.84627 0.99102 0.27052 0.0
C475 C 0.82888 0.99689 0.23461 0.0
C476 C 0.86417 0.99226 0.22989 0.0
C477 C 0.86505 0.99976 0.15326 0.0
C478 C 0.84768 1.00648 0.1199 0.0
C479 C 0.82996 1.00487 0.15943 0.0
C480 C 0.88327 0.99944 0.10397 0.0
C481 C 0.88184 0.99172 0.02822 0.0
C482 C 0.9016 1.00695 0.12821 0.0
C483 C 0.90457 0.01532 0.20692 0.0
C484 C 0.89309 0.03082 0.23361 0.0
C485 C 0.89625 0.03877 0.30757 0.0
C486 C 0.91094 0.03144 0.35513 0.0
C487 C 0.92253 0.01615 0.32881 0.0
C488 C 0.91941 1.00813 0.25498 0.0
C489 C 0.94153 0.01405 0.80899 0.0
C490 C 0.96058 1.0073 0.82052 0.0
C491 C 0.92747 0.0127 0.86771 0.0
C492 C 0.93167 1.00392 0.93958 0.0
C493 C 0.95098 0.99796 0.95306 0.0
C494 C 0.96533 0.99978 0.89423 0.0
C495 C 0.91555 1.0006 0.99799 0.0
C496 C 0.91745 1.00734 0.07515 0.0
C497 C 0.89755 0.99209 0.97559 0.0
C498 C 0.89465 0.98335 0.89731 0.0
C499 C 0.90727 0.96889 0.86953 0.0
C500 C 0.9047 0.96104 0.79508 0.0
C501 C 0.88948 0.96744 0.74804 0.0
C502 C 0.87675 0.98167 0.77543 0.0
C503 C 0.87926 0.98958 0.84981 0.0
H504 H 0.88753 0.96136 0.69038 0.0
H505 H 0.9134 0.03765 0.41226 0.0
H506 H 0.54895 0.8277 0.18895 0.0
H507 H 0.54477 0.85628 0.10758 0.0
H508 H 0.49358 0.87182 0.23839 0.0
H509 H 0.49725 0.84213 0.31827 0.0
H510 H 0.48761 0.8814 0.09387 0.0
H511 H 0.54013 0.8956 0.26295 0.0
H512 H 0.57095 0.89017 0.33241 0.0
H513 H 0.60151 0.88754 0.11442 0.0
H514 H 0.57083 0.89268 0.04355 0.0
H515 H 0.49909 0.9776 0.90443 0.0
H516 H 0.49919 0.9535 0.01149 0.0
H517 H 0.53405 0.91512 0.8712 0.0
H518 H 0.53334 0.93858 0.7642 0.0
H519 H 0.54639 0.92135 0.03901 0.0
H520 H 0.49141 0.90372 0.874 0.0
H521 H 0.45983 0.90908 0.81013 0.0
H522 H 0.43345 0.92055 0.03215 0.0
H523 H 0.46498 0.91552 0.09729 0.0
C524 C 0.53671 0.83713 0.20048 0.0
C525 C 0.52355 0.83265 0.26075 0.0
C526 C 0.53442 0.85369 0.15408 0.0
C527 C 0.51924 0.86688 0.16779 0.0
C528 C 0.5056 0.86215 0.22664 0.0
C529 C 0.50768 0.84516 0.27249 0.0
C530 C 0.51799 0.88536 0.1202 0.0
C531 C 0.50042 0.89032 0.08352 0.0
C532 C 0.53458 0.8973 0.10561 0.0
C533 C 0.55314 0.89443 0.14793 0.0
C534 C 0.55341 0.89377 0.2298 0.0
C535 C 0.57085 0.89074 0.26943 0.0
C536 C 0.58817 0.88848 0.22785 0.0
C537 C 0.58808 0.88929 0.14655 0.0
C538 C 0.57067 0.8923 0.10661 0.0
C539 C 0.50705 0.96417 0.8972 0.0
C540 C 0.51637 0.9601 0.82598 0.0
C541 C 0.50695 0.95031 0.95811 0.0
C542 C 0.51657 0.93236 0.94952 0.0
C543 C 0.52652 0.92877 0.87958 0.0
C544 C 0.52616 0.94227 0.81842 0.0
C545 C 0.51622 0.91698 0.01179 0.0
C546 C 0.53354 0.91261 0.05094 0.0
C547 C 0.49935 0.90588 0.02969 0.0
C548 C 0.4806 0.90952 0.99035 0.0
C549 C 0.47895 0.90768 0.90907 0.0
C550 C 0.46104 0.91057 0.87269 0.0
C551 C 0.44466 0.91516 0.91707 0.0
C552 C 0.44617 0.917 0.99788 0.0
C553 C 0.46405 0.91414 0.03455 0.0
H554 H 0.43078 0.91714 0.8889 0.0
H555 H 0.60166 0.88613 0.25864 0.0
H556 H 0.66263 0.5328 0.34055 0.0
H557 H 0.63569 0.52873 0.24864 0.0
H558 H 0.67007 0.48868 0.11404 0.0
H559 H 0.69699 0.4923 0.20777 0.0
H560 H 0.65277 0.52087 0.02689 0.0
H561 H 0.63355 0.47119 0.21068 0.0
H562 H 0.62462 0.45793 0.33933 0.0
H563 H 0.57715 0.498 0.35494 0.0
H564 H 0.58603 0.51178 0.22698 0.0
H565 H 0.58298 0.49542 0.74618 0.0
H566 H 0.60751 0.4952 0.84824 0.0
H567 H 0.56613 0.51939 0.01004 0.0
H568 H 0.54106 0.51861 0.90786 0.0
H569 H 0.58679 0.49545 0.08694 0.0
H570 H 0.6048 0.54714 0.91929 0.0
H571 H 0.61227 0.56381 0.7956 0.0
H572 H 0.66045 0.52554 0.7573 0.0
H573 H 0.65311 0.50846 0.88036 0.0
C574 C 0.66432 0.52278 0.29227 0.0
C575 C 0.6819 0.5127 0.28214 0.0
C576 C 0.64887 0.52049 0.23961 0.0
C577 C 0.65069 0.50834 0.17418 0.0
C578 C 0.6682 0.49807 0.16416 0.0
C579 C 0.68356 0.50003 0.21808 0.0
C580 C 0.63478 0.50741 0.11427 0.0
C581 C 0.63845 0.51497 0.03964 0.0
C582 C 0.6157 0.5007 0.13173 0.0
C583 C 0.61061 0.49267 0.20947 0.0
C584 C 0.62137 0.47736 0.24193 0.0
C585 C 0.61628 0.46971 0.31468 0.0
C586 C 0.60036 0.47715 0.35538 0.0
C587 C 0.58951 0.49228 0.32342 0.0
C588 C 0.59456 0.50001 0.25078 0.0
C589 C 0.57903 0.5007 0.80347 0.0
C590 C 0.56003 0.50723 0.81833 0.0
C591 C 0.59321 0.50071 0.86208 0.0
C592 C 0.58909 0.50779 0.93727 0.0
C593 C 0.56993 0.51396 0.95282 0.0
C594 C 0.55556 0.5136 0.89418 0.0
C595 C 0.60481 0.50868 0.99866 0.0
C596 C 0.60111 0.50128 0.07378 0.0
C597 C 0.62373 0.51614 0.98264 0.0
C598 C 0.62828 0.52639 0.90869 0.0
C599 C 0.6169 0.54219 0.88423 0.0
C600 C 0.62113 0.55172 0.81428 0.0
C601 C 0.63679 0.5457 0.76852 0.0
C602 C 0.6483 0.53017 0.79276 0.0
C603 C 0.64413 0.52056 0.86266 0.0
H604 H 0.64003 0.5531 0.71436 0.0
H605 H 0.5964 0.47117 0.41155 0.0
H606 H 0.0274 0.69293 0.21767 0.0
H607 H 0.03116 0.66444 0.13129 0.0
H608 H 0.97836 0.63958 0.22409 0.0
H609 H 0.97419 0.66817 0.3078 0.0
H610 H 0.02442 0.61576 0.18197 0.0
H611 H 0.96039 0.646 0.09694 0.0
H612 H 0.9425 0.67597 0.06465 0.0
H613 H 0.98786 0.69292 0.90588 0.0
H614 H 1.00611 0.66316 0.93838 0.0
H615 H 1.00381 0.53758 0.90938 0.0
H616 H 1.00257 0.56201 0.01428 0.0
H617 H 0.01292 0.60742 0.8454 0.0
H618 H 0.01265 0.58346 0.74175 0.0
H619 H 0.98843 0.62085 0.93297 0.0
H620 H 0.048 0.58713 0.98805 0.0
H621 H 0.0691 0.55947 0.0212 0.0
H622 H 0.03751 0.55075 0.23441 0.0
H623 H 0.01597 0.57812 0.20179 0.0
C624 C 0.01684 0.6812 0.22074 0.0
C625 C 1.00053 0.68277 0.26997 0.0
C626 C 0.01896 0.66493 0.17119 0.0
C627 C 1.00502 0.6498 0.17096 0.0
C628 C 0.98929 0.651 0.22289 0.0
C629 C 0.98695 0.66736 0.27091 0.0
C630 C 1.00577 0.63362 0.1123 0.0
C631 C 0.01647 0.61671 0.12762 0.0
C632 C 0.99571 0.63492 0.04094 0.0
C633 C 0.98464 0.65254 0.02057 0.0
C634 C 0.96657 0.65621 0.05558 0.0
C635 C 0.95637 0.67313 0.03722 0.0
C636 C 0.96406 0.68637 0.98339 0.0
C637 C 0.98194 0.68268 0.94769 0.0
C638 C 0.99222 0.66581 0.96608 0.0
C639 C 1.00542 0.55278 0.89478 0.0
C640 C 1.00789 0.55844 0.81659 0.0
C641 C 1.00507 0.56684 0.9551 0.0
C642 C 1.00778 0.58687 0.93891 0.0
C643 C 0.01057 0.59229 0.8607 0.0
C644 C 0.0105 0.57842 0.80092 0.0
C645 C 1.00725 0.60248 0.00129 0.0
C646 C 0.99648 0.61951 0.98692 0.0
C647 C 0.01752 0.60123 0.0731 0.0
C648 C 0.0302 0.58452 0.09191 0.0
C649 C 0.04541 0.57917 0.04155 0.0
C650 C 0.05746 0.56357 0.06032 0.0
C651 C 0.05459 0.55331 0.12971 0.0
C652 C 0.03966 0.55865 0.18052 0.0
C653 C 0.02752 0.5742 0.16188 0.0
H654 H 0.06398 0.54127 0.14423 0.0
H655 H 0.95615 0.69945 0.96922 0.0
H656 H 0.02181 0.22309 0.20626 0.0
H657 H 1.00856 0.20393 0.31222 0.0
H658 H 0.95954 0.24272 0.32866 0.0
H659 H 0.97252 0.26157 0.21783 0.0
H660 H 0.99741 0.20968 0.46229 0.0
H661 H 0.92896 0.22176 0.35941 0.0
H662 H 0.90748 0.23138 0.25107 0.0
H663 H 0.93684 0.19165 0.09855 0.0
H664 H 0.95882 0.18223 0.20548 0.0
H665 H 0.97831 0.11017 0.56698 0.0
H666 H 0.97302 0.14548 0.56378 0.0
H667 H 0.97102 0.14323 0.31234 0.0
H668 H 0.9755 0.10806 0.31612 0.0
H669 H 0.94526 0.16703 0.35834 0.0
H670 H 0.01241 0.15407 0.43192 0.0
H671 H 0.04074 0.14536 0.51211 0.0
H672 H 0.02248 0.18554 0.68874 0.0
H673 H 0.99352 0.1937 0.61186 0.0
C674 C 1.00826 0.22763 0.23274 0.0
C675 C 0.99786 0.2434 0.20278 0.0
C676 C 1.00078 0.21682 0.29398 0.0
C677 C 0.98283 0.22165 0.32755 0.0
C678 C 0.97314 0.23844 0.30224 0.0
C679 C 0.98062 0.24928 0.23969 0.0
C680 C 0.97391 0.20722 0.38076 0.0
C681 C 0.98547 0.20057 0.44229 0.0
C682 C 0.9583 0.19549 0.35466 0.0
C683 C 0.94559 0.20151 0.2899 0.0
C684 C 0.93092 0.21526 0.30246 0.0
C685 C 0.91871 0.22069 0.24133 0.0
C686 C 0.92091 0.21225 0.16777 0.0
C687 C 0.93532 0.19835 0.15523 0.0
C688 C 0.94768 0.193 0.21597 0.0
C689 C 0.97656 0.11735 0.51131 0.0
C690 C 0.97736 0.1066 0.44166 0.0
C691 C 0.97354 0.13744 0.50953 0.0
C692 C 0.97169 0.14706 0.43788 0.0
C693 C 0.97215 0.13614 0.36849 0.0
C694 C 0.9748 0.11608 0.37041 0.0
C695 C 0.97043 0.16855 0.43278 0.0
C696 C 0.95649 0.17642 0.3824 0.0
C697 C 0.98455 0.18109 0.46645 0.0
C698 C 1.00052 0.17414 0.51693 0.0
C699 C 0.01408 0.16056 0.48905 0.0
C700 C 0.03029 0.15574 0.53392 0.0
C701 C 0.03331 0.16476 0.60587 0.0
C702 C 0.01995 0.17829 0.63384 0.0
C703 C 1.00357 0.18291 0.5899 0.0
H704 H 0.04618 0.16153 0.63934 0.0
H705 H 0.91139 0.2164 0.1206 0.0
H706 H 0.27863 0.0263 0.25089 0.0
H707 H 0.3042 0.01449 0.33571 0.0
H708 H 0.29014 0.95531 0.27072 0.0
H709 H 0.26496 0.96738 0.18273 0.0
H710 H 0.31688 0.99186 0.44286 0.0
H711 H 0.32577 0.9347 0.20911 0.0
H712 H 0.31733 0.92775 0.07191 0.0
H713 H 0.31835 0.98893 0.02078 0.0
H714 H 0.32635 0.99619 0.15807 0.0
H715 H 0.41697 0.96046 0.48406 0.0
H716 H 0.38138 0.95949 0.47336 0.0
H717 H 0.38476 0.99554 0.26791 0.0
H718 H 0.42026 0.99678 0.27927 0.0
H719 H 0.36178 0.96281 0.24917 0.0
H720 H 0.37209 0.01554 0.41778 0.0
H721 H 0.38183 0.03557 0.53004 0.0
H722 H 0.34553 1.00098 0.68 0.0
H723 H 0.33629 0.98008 0.56923 0.0
C724 C 0.2803 0.01073 0.25833 0.0
C725 C 0.2702 0.99769 0.21028 0.0
C726 C 0.29493 1.00394 0.3067 0.0
C727 C 0.29948 0.98406 0.30727 0.0
C728 C 0.2871 0.97075 0.26947 0.0
C729 C 0.27261 0.9776 0.21999 0.0
C730 C 0.31933 0.97839 0.33011 0.0
C731 C 0.32665 0.98491 0.40182 0.0
C732 C 0.33221 0.97023 0.27471 0.0
C733 C 0.32636 0.96595 0.19362 0.0
C734 C 0.32399 0.94663 0.16861 0.0
C735 C 0.31926 0.94266 0.09098 0.0
C736 C 0.31717 0.95791 0.03782 0.0
C737 C 0.31977 0.97716 0.06219 0.0
C738 C 0.32429 0.98121 0.13992 0.0
C739 C 0.41002 0.96802 0.43641 0.0
C740 C 0.42114 0.9785 0.38175 0.0
C741 C 0.38981 0.96758 0.43078 0.0
C742 C 0.38061 0.97738 0.36982 0.0
C743 C 0.39173 0.9878 0.3151 0.0
C744 C 0.41189 0.98853 0.3215 0.0
C745 C 0.35937 0.97658 0.36135 0.0
C746 C 0.3519 0.96875 0.29235 0.0
C747 C 0.34667 0.98483 0.41696 0.0
C748 C 0.35387 0.9959 0.48537 0.0
C749 C 0.3667 0.01174 0.47508 0.0
C750 C 0.37207 0.02332 0.53843 0.0
C751 C 0.36442 0.01946 0.61214 0.0
C752 C 0.35165 1.0038 0.62307 0.0
C753 C 0.34641 0.99201 0.56006 0.0
H754 H 0.36818 0.02883 0.66025 0.0
H755 H 0.31363 0.95481 0.97766 0.0
H756 H 0.49134 0.27881 0.25557 0.0
H757 H 0.50262 0.30225 0.35131 0.0
H758 H 0.56094 0.27996 0.32963 0.0
H759 H 0.54962 0.25705 0.22957 0.0
H760 H 0.52109 0.31187 0.47329 0.0
H761 H 0.5902 0.31474 0.29463 0.0
H762 H 0.60289 0.30142 0.17093 0.0
H763 H 0.54589 0.30433 0.07023 0.0
H764 H 0.53294 0.31772 0.19323 0.0
H765 H 0.55078 0.41022 0.54812 0.0
H766 H 0.55188 0.37474 0.53913 0.0
H767 H 0.54114 0.37837 0.29187 0.0
H768 H 0.54154 0.41366 0.2994 0.0
H769 H 0.56538 0.35225 0.31138 0.0
H770 H 0.50663 0.37023 0.44046 0.0
H771 H 0.48268 0.38101 0.53794 0.0
H772 H 0.50361 0.33833 0.69903 0.0
H773 H 0.52856 0.32824 0.60508 0.0
C774 C 0.50637 0.27828 0.27425 0.0
C775 C 0.51976 0.2666 0.23458 0.0
C776 C 0.51286 0.29167 0.3292 0.0
C777 C 0.53279 0.29338 0.34527 0.0
C778 C 0.54557 0.27921 0.31622 0.0
C779 C 0.53911 0.26601 0.25971 0.0
C780 C 0.54012 0.31238 0.37424 0.0
C781 C 0.53118 0.32069 0.4395 0.0
C782 C 0.55272 0.32398 0.32809 0.0
C783 C 0.56064 0.317 0.25301 0.0
C784 C 0.58045 0.31262 0.24585 0.0
C785 C 0.58765 0.30501 0.17605 0.0
C786 C 0.57516 0.30186 0.1131 0.0
C787 C 0.5555 0.30661 0.11931 0.0
C788 C 0.54824 0.31425 0.18888 0.0
C789 C 0.54921 0.40347 0.49144 0.0
C790 C 0.54609 0.41483 0.42434 0.0
C791 C 0.54956 0.38315 0.48668 0.0
C792 C 0.54642 0.37382 0.41503 0.0
C793 C 0.5437 0.38518 0.34791 0.0
C794 C 0.5437 0.40541 0.35237 0.0
C795 C 0.54546 0.35229 0.40865 0.0
C796 C 0.55588 0.34347 0.34788 0.0
C797 C 0.53303 0.34065 0.45583 0.0
C798 C 0.51987 0.34879 0.51614 0.0
C799 C 0.50667 0.36366 0.49775 0.0
C800 C 0.49287 0.36965 0.55249 0.0
C801 C 0.49178 0.36051 0.62501 0.0
C802 C 0.50472 0.34569 0.64362 0.0
C803 C 0.51881 0.33996 0.5899 0.0
H804 H 0.48067 0.36463 0.66624 0.0
H805 H 0.58075 0.29585 0.05931 0.0
H806 H 0.26085 0.51727 0.28137 0.0
H807 H 0.23979 0.52616 0.39016 0.0
H808 H 0.2089 0.56588 0.24144 0.0
H809 H 0.23022 0.55742 0.13296 0.0
H810 H 0.20666 0.57591 0.40403 0.0
H811 H 0.1901 0.52021 0.22616 0.0
H812 H 0.19876 0.49003 0.15727 0.0
H813 H 0.22047 0.46573 0.37023 0.0
H814 H 0.2113 0.49571 0.44087 0.0
H815 H 0.10722 0.56326 0.35218 0.0
H816 H 0.1425 0.56718 0.35646 0.0
H817 H 0.14573 0.52446 0.54 0.0
H818 H 0.1104 0.52066 0.53667 0.0
H819 H 0.16712 0.51523 0.41195 0.0
H820 H 0.16204 0.56873 0.58147 0.0
H821 H 0.14852 0.59927 0.63306 0.0
H822 H 0.16572 0.62926 0.42444 0.0
H823 H 0.17917 0.59885 0.37113 0.0
C824 C 0.25028 0.52868 0.27297 0.0
C825 C 0.24682 0.53637 0.19847 0.0
C826 C 0.23824 0.53372 0.3352 0.0
C827 C 0.2226 0.54635 0.3232 0.0
C828 C 0.22089 0.55608 0.25178 0.0
C829 C 0.23295 0.5511 0.18966 0.0
C830 C 0.20543 0.54546 0.37469 0.0
C831 C 0.1981 0.56263 0.40742 0.0
C832 C 0.19444 0.52804 0.37981 0.0
C833 C 0.20023 0.51014 0.33832 0.0
C834 C 0.19678 0.50842 0.25806 0.0
C835 C 0.20177 0.49137 0.21876 0.0
C836 C 0.21041 0.47603 0.25904 0.0
C837 C 0.21386 0.47766 0.33903 0.0
C838 C 0.20867 0.49463 0.37884 0.0
C839 C 0.11538 0.55506 0.39473 0.0
C840 C 0.10609 0.54146 0.44337 0.0
C841 C 0.13552 0.55741 0.39758 0.0
C842 C 0.14666 0.54626 0.44925 0.0
C843 C 0.13735 0.53328 0.50015 0.0
C844 C 0.11723 0.53096 0.49745 0.0
C845 C 0.16796 0.54581 0.43978 0.0
C846 C 0.17603 0.52833 0.41373 0.0
C847 C 0.17937 0.563 0.44031 0.0
C848 C 0.17164 0.58148 0.47232 0.0
C849 C 0.1629 0.58182 0.54645 0.0
C850 C 0.15524 0.59911 0.57603 0.0
C851 C 0.15626 0.61619 0.53206 0.0
C852 C 0.16498 0.61602 0.4585 0.0
C853 C 0.17268 0.59876 0.42867 0.0
H854 H 0.15029 0.62956 0.55499 0.0
H855 H 0.21431 0.46284 0.22838 0.0
H856 H 0.01846 0.75458 0.11736 0.0
H857 H 0.02341 0.77737 0.0098 0.0
H858 H 0.97771 0.81362 0.1011 0.0
H859 H 0.97203 0.79042 0.20558 0.0
H860 H 0.98364 0.82169 0.95022 0.0
H861 H 0.02801 0.82105 0.19312 0.0
H862 H 0.05092 0.80378 0.27868 0.0
H863 H 0.08082 0.7812 0.07882 0.0
H864 H 0.05843 0.79895 0.992 0.0
H865 H 1.00136 0.91465 0.07864 0.0
H866 H 0.99719 0.87942 0.06614 0.0
H867 H 0.0509 0.87604 0.93663 0.0
H868 H 0.05525 0.91135 0.94991 0.0
H869 H 0.04697 0.84735 0.04466 0.0
H870 H 1.00916 0.87411 0.84306 0.0
H871 H 0.98596 0.89791 0.79101 0.0
H872 H 0.94027 0.87275 0.9291 0.0
H873 H 0.96336 0.84958 0.98613 0.0
C874 C 1.00871 0.76681 0.11172 0.0
C875 C 0.99529 0.77117 0.17094 0.0
C876 C 0.01168 0.77993 0.05062 0.0
C877 C 1.00156 0.7976 0.04966 0.0
C878 C 0.98593 0.80022 0.10123 0.0
C879 C 0.98275 0.78701 0.16138 0.0
C880 C 0.00997 0.8151 0.01204 0.0
C881 C 0.99767 0.82724 0.96897 0.0
C882 C 0.02846 0.82221 0.03529 0.0
C883 C 0.04149 0.81103 0.08645 0.0
C884 C 0.03943 0.81231 0.16764 0.0
C885 C 0.05231 0.80248 0.21628 0.0
C886 C 0.06715 0.79119 0.18433 0.0
C887 C 0.06926 0.78987 0.10351 0.0
C888 C 0.05656 0.7999 0.05454 0.0
C889 C 0.0124 0.90631 0.04861 0.0
C890 C 0.02862 0.91557 0.01538 0.0
C891 C 1.00991 0.8863 0.04065 0.0
C892 C 0.02344 0.87533 0.99827 0.0
C893 C 0.04019 0.88438 0.96851 0.0
C894 C 0.04276 0.90443 0.97694 0.0
C895 C 0.02011 0.85428 0.98753 0.0
C896 C 0.03346 0.8416 0.02119 0.0
C897 C 1.00241 0.84693 0.95704 0.0
C898 C 0.98809 0.86001 0.919 0.0
C899 C 0.9942 0.87366 0.86277 0.0
C900 C 0.98109 0.88716 0.8328 0.0
C901 C 0.96166 0.88677 0.85635 0.0
C902 C 0.95532 0.87299 0.91063 0.0
C903 C 0.96845 0.85972 0.94219 0.0
H904 H 0.95152 0.89716 0.83255 0.0
H905 H 0.07709 0.78357 0.2222 0.0
H906 H 0.7543 0.01368 0.1772 0.0
H907 H 0.72474 0.01897 0.10345 0.0
H908 H 0.71295 0.07039 0.23984 0.0
H909 H 0.74232 0.06459 0.31607 0.0
H910 H 0.68604 0.0431 0.26219 0.0
H911 H 0.7184 0.07016 0.03501 0.0
H912 H 0.7422 0.0706 0.92743 0.0
H913 H 0.71818 0.01728 0.83778 0.0
H914 H 0.69443 0.01636 0.94555 0.0
H915 H 0.59701 0.06998 0.09096 0.0
H916 H 0.63165 0.06979 0.12133 0.0
H917 H 0.63633 0.01162 0.0292 0.0
H918 H 0.60191 0.01197 0.99443 0.0
H919 H 0.66624 0.03994 0.98502 0.0
H920 H 0.63113 0.01136 0.19295 0.0
H921 H 0.60164 1.00411 0.29169 0.0
H922 H 0.63717 0.06808 0.44289 0.0
H923 H 0.66168 0.0666 0.31805 0.0
C924 C 0.74608 0.02681 0.18817 0.0
C925 C 0.75031 0.03859 0.25289 0.0
C926 C 0.72904 0.02974 0.14626 0.0
C927 C 0.71645 0.04485 0.16733 0.0
C928 C 0.72239 0.05849 0.22354 0.0
C929 C 0.73929 0.05538 0.26624 0.0
C930 C 0.69591 0.04409 0.14275 0.0
C931 C 0.68162 0.0429 0.20158 0.0
C932 C 0.69041 0.04248 0.06372 0.0
C933 C 0.70475 0.04309 0.99893 0.0
C934 C 0.7183 0.05843 0.99283 0.0
C935 C 0.73176 0.05878 0.93171 0.0
C936 C 0.73174 0.04395 0.87597 0.0
C937 C 0.71821 0.02874 0.88109 0.0
C938 C 0.70474 0.02831 0.94214 0.0
C939 C 0.6054 0.05722 0.07626 0.0
C940 C 0.59661 0.04081 0.04197 0.0
C941 C 0.62513 0.05712 0.09398 0.0
C942 C 0.63613 0.04044 0.08001 0.0
C943 C 0.62776 0.0244 0.0423 0.0
C944 C 0.60808 0.02455 0.02361 0.0
C945 C 0.6565 0.03994 0.10422 0.0
C946 C 0.67069 0.04045 0.04561 0.0
C947 C 0.66189 0.04063 0.18366 0.0
C948 C 0.64745 0.03914 0.24871 0.0
C949 C 0.63003 0.02112 0.24205 0.0
C950 C 0.61141 0.01608 0.30451 0.0
C951 C 0.60793 0.02942 0.38755 0.0
C952 C 0.63452 0.05676 0.3992 0.0
C953 C 0.65006 0.05594 0.32139 0.0
H954 H 0.5956 0.02541 0.42459 0.0
H955 H 0.74216 0.04426 0.82869 0.0
H956 H 0.54709 0.7228 0.24595 0.0
H957 H 0.54518 0.70059 0.13702 0.0
H958 H 0.50925 0.74141 0.01231 0.0
H959 H 0.50959 0.76294 0.12539 0.0
H960 H 0.49054 0.71087 0.0235 0.0
H961 H 0.55432 0.72188 0.94022 0.0
H962 H 0.58966 0.7275 0.94571 0.0
H963 H 0.59779 0.67035 0.04061 0.0
H964 H 0.56251 0.66444 0.03715 0.0
H965 H 0.50927 0.60546 0.85307 0.0
H966 H 0.51579 0.64045 0.84934 0.0
H967 H 0.48563 0.64718 0.06832 0.0
H968 H 0.47859 0.61226 0.07097 0.0
H969 H 0.53712 0.65995 0.9429 0.0
H970 H 0.46667 0.68887 0.09222 0.0
H971 H 0.43141 0.6825 0.08618 0.0
H972 H 0.43741 0.66085 0.85277 0.0
H973 H 0.47271 0.66732 0.85694 0.0
C974 C 0.53918 0.72727 0.19454 0.0
C975 C 0.52792 0.74422 0.19517 0.0
C976 C 0.53837 0.71468 0.13129 0.0
C977 C 0.52694 0.71922 0.06617 0.0
C978 C 0.518 0.73751 0.06227 0.0
C979 C 0.51834 0.7499 0.12674 0.0
C980 C 0.52089 0.70331 0.01308 0.0
C981 C 0.50082 0.69996 0.00438 0.0
C982 C 0.53421 0.68925 0.98579 0.0
C983 C 0.55562 0.69266 0.98775 0.0
C984 C 0.56359 0.7105 0.96255 0.0
C985 C 0.58365 0.71375 0.96532 0.0
C986 C 0.59596 0.69928 0.99329 0.0
C987 C 0.58824 0.68152 0.01859 0.0
C988 C 0.56819 0.67819 0.01593 0.0
C989 C 0.5038 0.6145 0.89976 0.0
C990 C 0.49348 0.60627 0.96248 0.0
C991 C 0.50744 0.63445 0.89725 0.0
C992 C 0.5009 0.64645 0.95761 0.0
C993 C 0.4903 0.63827 0.0198 0.0
C994 C 0.48643 0.61833 0.02179 0.0
C995 C 0.50704 0.66706 0.96115 0.0
C996 C 0.52702 0.67126 0.95965 0.0
C997 C 0.4937 0.68196 0.97869 0.0
C998 C 0.47236 0.67861 0.9749 0.0
C999 C 0.46046 0.68295 0.03925 0.0
C1000 C 0.44047 0.67925 0.03627 0.0
C1001 C 0.43218 0.67127 0.96914 0.0
C1002 C 0.44386 0.66701 0.90477 0.0
C1003 C 0.46386 0.67067 0.90743 0.0
H1004 H 0.4167 0.66839 0.96702 0.0
H1005 H 0.61149 0.70183 0.99547 0.0
H1006 H 0.76097 0.50489 0.14288 0.0
H1007 H 0.78796 0.50509 0.05252 0.0
H1008 H 0.79993 0.56524 0.10985 0.0
H1009 H 0.77407 0.56414 0.20798 0.0
H1010 H 0.80779 0.51693 0.94525 0.0
H1011 H 0.84444 0.57429 0.12727 0.0
H1012 H 0.84352 0.59109 0.2545 0.0
H1013 H 0.81893 0.53998 0.36036 0.0
H1014 H 0.81967 0.52292 0.23369 0.0
H1015 H 0.91225 0.51502 0.87398 0.0
H1016 H 0.878 0.52383 0.88468 0.0
H1017 H 0.87538 0.49703 0.11175 0.0
H1018 H 0.90976 0.48864 0.10235 0.0
H1019 H 0.86399 0.53454 0.1119 0.0
H1020 H 0.85559 0.47765 0.9548 0.0
H1021 H 0.86 0.45714 0.83861 0.0
H1022 H 0.8293 0.49876 0.70019 0.0
H1023 H 0.82533 0.51994 0.81485 0.0
C1024 C 0.76874 0.51846 0.13343 0.0
C1025 C 0.76584 0.53433 0.18335 0.0
C1026 C 0.78434 0.51858 0.0817 0.0
C1027 C 0.79679 0.53485 0.07761 0.0
C1028 C 0.7912 0.55214 0.11532 0.0
C1029 C 0.77614 0.55171 0.17007 0.0
C1030 C 0.81701 0.53201 0.04921 0.0
C1031 C 0.82013 0.52099 0.98112 0.0
C1032 C 0.83325 0.53716 0.09595 0.0
C1033 C 0.83171 0.54755 0.17108 0.0
C1034 C 0.83867 0.56674 0.17771 0.0
C1035 C 0.83822 0.57627 0.24966 0.0
C1036 C 0.83106 0.56663 0.31543 0.0
C1037 C 0.82439 0.54743 0.30937 0.0
C1038 C 0.82473 0.53786 0.2375 0.0
C1039 C 0.90434 0.51095 0.92607 0.0
C1040 C 0.91371 0.50143 0.98801 0.0
C1041 C 0.88476 0.51582 0.93161 0.0
C1042 C 0.87428 0.51112 0.99899 0.0
C1043 C 0.88334 0.5008 0.0593 0.0
C1044 C 0.90291 0.49595 0.05383 0.0
C1045 C 0.8545 0.5186 0.01095 0.0
C1046 C 0.85169 0.53075 0.07517 0.0
C1047 C 0.83865 0.51382 0.96203 0.0
C1048 C 0.84075 0.50079 0.89322 0.0
C1049 C 0.85016 0.48271 0.89932 0.0
C1050 C 0.85254 0.47091 0.83362 0.0
C1051 C 0.84522 0.4768 0.76167 0.0
C1052 C 0.83527 0.49438 0.75556 0.0
C1053 C 0.833 0.50631 0.82089 0.0
H1054 H 0.84707 0.46767 0.71083 0.0
H1055 H 0.83077 0.574 0.37111 0.0
H1056 H 1.00121 0.23795 0.86309 0.0
H1057 H 1.00272 0.20623 0.79732 0.0
H1058 H 0.04915 0.18903 0.95048 0.0
H1059 H 0.04811 0.22092 0.01352 0.0
H1060 H 0.05412 0.17105 0.81917 0.0
H1061 H 0.99935 0.17981 0.98865 0.0
H1062 H 0.96995 0.19646 0.03538 0.0
H1063 H 0.94167 0.18509 0.81703 0.0
H1064 H 0.97118 0.16882 0.76817 0.0
H1065 H 0.03672 0.06907 0.84736 0.0
H1066 H 0.03913 0.10397 0.87364 0.0
H1067 H 0.99872 0.11546 0.6882 0.0
H1068 H 0.99621 0.08041 0.66117 0.0
H1069 H 0.99043 0.13676 0.82294 0.0
H1070 H 0.04506 0.12369 0.66209 0.0
H1071 H 0.07499 0.10735 0.61963 0.0
H1072 H 0.10386 0.12579 0.82881 0.0
H1073 H 0.07397 0.14203 0.87329 0.0
C1074 C 0.01241 0.22777 0.87975 0.0
C1075 C 0.02477 0.23211 0.94261 0.0
C1076 C 0.01302 0.20941 0.84329 0.0
C1077 C 0.02564 0.19479 0.87035 0.0
C1078 C 0.03917 0.19982 0.92839 0.0
C1079 C 0.03872 0.2182 0.96404 0.0
C1080 C 0.0236 0.1739 0.84437 0.0
C1081 C 0.04021 0.16354 0.82092 0.0
C1082 C 1.00543 0.16394 0.84473 0.0
C1083 C 0.98751 0.17326 0.87453 0.0
C1084 C 0.98689 0.18094 0.95048 0.0
C1085 C 0.97021 0.19033 0.97732 0.0
C1086 C 0.95393 0.19184 0.9292 0.0
C1087 C 0.9543 0.18393 0.85418 0.0
C1088 C 0.97101 0.17465 0.82683 0.0
C1089 C 0.02829 0.07894 0.81196 0.0
C1090 C 0.0163 0.07176 0.75184 0.0
C1091 C 0.02976 0.09899 0.82698 0.0
C1092 C 0.01921 0.11249 0.78268 0.0
C1093 C 1.00702 0.1054 0.72323 0.0
C1094 C 1.00569 0.08531 0.70758 0.0
C1095 C 0.02097 0.13391 0.79887 0.0
C1096 C 1.00431 0.14432 0.82076 0.0
C1097 C 0.03914 0.1438 0.79796 0.0
C1098 C 0.05717 0.13399 0.77141 0.0
C1099 C 0.05771 0.12414 0.6995 0.0
C1100 C 0.0747 0.11491 0.67494 0.0
C1101 C 0.09131 0.1155 0.72156 0.0
C1102 C 0.09097 0.12534 0.79277 0.0
C1103 C 0.07401 0.13459 0.81765 0.0
H1104 H 0.10445 0.10835 0.70243 0.0
H1105 H 0.94103 0.19913 0.95003 0.0
H1106 H 0.29996 0.04408 0.02462 0.0
H1107 H 0.33201 0.04359 0.96455 0.0
H1108 H 0.31277 0.99848 0.80707 0.0
H1109 H 0.28071 0.99834 0.87102 0.0
H1110 H 0.34576 0.9882 0.8557 0.0
H1111 H 0.32606 0.04835 0.74754 0.0
H1112 H 0.31216 0.08135 0.74413 0.0
H1113 H 0.35605 0.10157 0.90279 0.0
H1114 H 0.37008 0.06864 0.90787 0.0
H1115 H 0.43725 0.99359 0.64659 0.0
H1116 H 0.40253 0.99579 0.68036 0.0
H1117 H 0.4168 0.03236 0.87637 0.0
H1118 H 0.45112 0.03032 0.84343 0.0
H1119 H 0.38588 0.04672 0.79887 0.0
H1120 H 0.40454 0.98409 0.90106 0.0
H1121 H 0.41839 0.95124 0.8902 0.0
H1122 H 0.37539 0.9359 0.71937 0.0
H1123 H 0.3614 0.96879 0.72872 0.0
C1124 C 0.30227 0.03464 0.97491 0.0
C1125 C 0.28748 0.02167 0.95127 0.0
C1126 C 0.32078 0.03427 0.9405 0.0
C1127 C 0.32513 0.02116 0.87988 0.0
C1128 C 0.31003 1.00881 0.85341 0.0
C1129 C 0.29148 1.00901 0.88885 0.0
C1130 C 0.34568 0.01955 0.84876 0.0
C1131 C 0.35429 1.00106 0.84164 0.0
C1132 C 0.35734 0.03615 0.83137 0.0
C1133 C 0.349 0.05599 0.82863 0.0
C1134 C 0.33265 0.05981 0.78215 0.0
C1135 C 0.32477 0.0785 0.77983 0.0
C1136 C 0.33319 0.09353 0.82338 0.0
C1137 C 0.34954 0.08991 0.86916 0.0
C1138 C 0.35748 0.07124 0.87169 0.0
C1139 C 0.43301 1.00209 0.69689 0.0
C1140 C 0.44724 0.01166 0.74226 0.0
C1141 C 0.41309 1.00329 0.71644 0.0
C1142 C 0.40685 0.01412 0.7817 0.0
C1143 C 0.42103 0.02389 0.82593 0.0
C1144 C 0.44082 0.02261 0.8069 0.0
C1145 C 0.38572 0.01546 0.80466 0.0
C1146 C 0.37717 0.03391 0.81201 0.0
C1147 C 0.37396 0.99883 0.81944 0.0
C1148 C 0.38205 0.97894 0.81504 0.0
C1149 C 0.3981 0.97373 0.86091 0.0
C1150 C 0.40597 0.95509 0.85506 0.0
C1151 C 0.39781 0.94148 0.80393 0.0
C1152 C 0.38171 0.94646 0.75886 0.0
C1153 C 0.37379 0.9651 0.76448 0.0
H1154 H 0.40393 0.92705 0.79927 0.0
H1155 H 0.32706 0.108 0.82152 0.0
H1156 H 0.52058 0.27832 0.87921 0.0
H1157 H 0.51976 0.30989 0.81139 0.0
H1158 H 0.48151 0.33221 0.9894 0.0
H1159 H 0.48129 0.30064 0.05288 0.0
H1160 H 0.4711 0.34827 0.87048 0.0
H1161 H 0.53755 0.34072 0.97195 0.0
H1162 H 0.57028 0.32643 0.98215 0.0
H1163 H 0.57765 0.33077 0.73467 0.0
H1164 H 0.5453 0.34574 0.72319 0.0
H1165 H 0.49196 0.44926 0.87198 0.0
H1166 H 0.4908 0.41453 0.90126 0.0
H1167 H 0.51754 0.40185 0.67988 0.0
H1168 H 0.51886 0.43682 0.65 0.0
H1169 H 0.53343 0.3801 0.79846 0.0
H1170 H 0.47012 0.39572 0.70843 0.0
H1171 H 0.43903 0.41308 0.70315 0.0
H1172 H 0.42571 0.39479 0.93631 0.0
H1173 H 0.45689 0.37745 0.94363 0.0
C1174 C 0.51146 0.28979 0.902 0.0
C1175 C 0.50093 0.28684 0.97143 0.0
C1176 C 0.51136 0.30809 0.86427 0.0
C1177 C 0.50107 0.32401 0.89608 0.0
C1178 C 0.4897 0.32053 0.96289 0.0
C1179 C 0.48952 0.30231 0.99938 0.0
C1180 C 0.50211 0.34436 0.8624 0.0
C1181 C 0.48484 0.35521 0.85606 0.0
C1182 C 0.51981 0.35361 0.83981 0.0
C1183 C 0.53887 0.34394 0.84653 0.0
C1184 C 0.54608 0.33843 0.91968 0.0
C1185 C 0.56458 0.33029 0.92574 0.0
C1186 C 0.5759 0.3274 0.85912 0.0
C1187 C 0.56882 0.33287 0.78621 0.0
C1188 C 0.55046 0.34128 0.7799 0.0
C1189 C 0.49763 0.43918 0.82924 0.0
C1190 C 0.50544 0.44601 0.75835 0.0
C1191 C 0.49689 0.41921 0.84609 0.0
C1192 C 0.50388 0.40541 0.79262 0.0
C1193 C 0.512 0.41214 0.7222 0.0
C1194 C 0.51267 0.43218 0.70505 0.0
C1195 C 0.50262 0.38405 0.8109 0.0
C1196 C 0.51975 0.37308 0.81344 0.0
C1197 C 0.48483 0.37481 0.83123 0.0
C1198 C 0.46597 0.38522 0.82665 0.0
C1199 C 0.46065 0.39538 0.7588 0.0
C1200 C 0.44298 0.40525 0.75542 0.0
C1201 C 0.4304 0.40504 0.81934 0.0
C1202 C 0.43546 0.39493 0.88679 0.0
C1203 C 0.45313 0.38504 0.89054 0.0
H1204 H 0.41672 0.4127 0.8166 0.0
H1205 H 0.5902 0.32107 0.86409 0.0
H1206 H 0.23993 0.51676 0.85954 0.0
H1207 H 0.20873 0.51319 0.79141 0.0
H1208 H 0.18595 0.48067 0.98689 0.0
H1209 H 0.21766 0.48243 0.04949 0.0
H1210 H 0.16805 0.46805 0.87768 0.0
H1211 H 0.18179 0.53605 0.94196 0.0
H1212 H 0.19983 0.56716 0.93376 0.0
H1213 H 0.19098 0.56858 0.6863 0.0
H1214 H 0.17306 0.53739 0.69294 0.0
H1215 H 0.06819 0.4917 0.86965 0.0
H1216 H 0.10277 0.4898 0.89884 0.0
H1217 H 0.11651 0.5127 0.67174 0.0
H1218 H 0.08167 0.51498 0.64203 0.0
H1219 H 0.13958 0.52907 0.77649 0.0
H1220 H 0.12199 0.46296 0.71869 0.0
H1221 H 0.10246 0.43287 0.73094 0.0
H1222 H 0.11739 0.42896 0.9731 0.0
H1223 H 0.13684 0.45915 0.96251 0.0
C1224 C 0.22849 0.50808 0.88594 0.0
C1225 C 0.23126 0.49985 0.96001 0.0
C1226 C 0.21037 0.50649 0.84801 0.0
C1227 C 0.1943 0.49742 0.88492 0.0
C1228 C 0.19769 0.48797 0.9564 0.0
C1229 C 0.21592 0.48897 0.99264 0.0
C1230 C 0.17384 0.4983 0.85251 0.0
C1231 C 0.16192 0.48154 0.85656 0.0
C1232 C 0.1655 0.51559 0.82177 0.0
C1233 C 0.17633 0.53428 0.81786 0.0
C1234 C 0.1838 0.54295 0.88578 0.0
C1235 C 0.19399 0.5606 0.88139 0.0
C1236 C 0.1966 0.56981 0.80952 0.0
C1237 C 0.18898 0.56141 0.74189 0.0
C1238 C 0.17882 0.54375 0.74592 0.0
C1239 C 0.07846 0.49632 0.82541 0.0
C1240 C 0.07191 0.5034 0.75306 0.0
C1241 C 0.09838 0.4951 0.8422 0.0
C1242 C 0.11248 0.50072 0.78702 0.0
C1243 C 0.10602 0.50812 0.71519 0.0
C1244 C 0.08603 0.50938 0.69825 0.0
C1245 C 0.13385 0.49911 0.80505 0.0
C1246 C 0.14586 0.51563 0.79765 0.0
C1247 C 0.14222 0.48171 0.8337 0.0
C1248 C 0.13078 0.46338 0.83987 0.0
C1249 C 0.12104 0.45573 0.77462 0.0
C1250 C 0.10999 0.43865 0.78127 0.0
C1251 C 0.10866 0.42903 0.85278 0.0
C1252 C 0.11843 0.43643 0.91775 0.0
C1253 C 0.1295 0.4535 0.91142 0.0
H1254 H 0.10008 0.41583 0.85784 0.0
H1255 H 0.20447 0.58347 0.80627 0.0
H1256 H 0.03842 0.79275 0.39475 0.0
H1257 H 0.0394 0.82494 0.45482 0.0
H1258 H 0.98482 0.81268 0.56969 0.0
H1259 H 0.98323 0.78104 0.50328 0.0
H1260 H 0.98145 0.84586 0.51685 0.0
H1261 H 0.0341 0.8193 0.66623 0.0
H1262 H 0.06525 0.80255 0.68765 0.0
H1263 H 0.09489 0.84563 0.54967 0.0
H1264 H 0.0639 0.86253 0.52687 0.0
H1265 H 0.02152 0.9355 0.76022 0.0
H1266 H 0.02133 0.90067 0.72878 0.0
H1267 H 0.99784 0.91339 0.50211 0.0
H1268 H 0.99767 0.94801 0.53337 0.0
H1269 H 0.03942 0.87937 0.62547 0.0
H1270 H 0.97363 0.88524 0.43461 0.0
H1271 H 0.94148 0.9011 0.43072 0.0
H1272 H 0.93685 0.89635 0.67953 0.0
H1273 H 0.96889 0.88038 0.68395 0.0
C1274 C 0.02695 0.79673 0.43472 0.0
C1275 C 0.01094 0.78415 0.44502 0.0
C1276 C 0.0275 0.81524 0.46964 0.0
C1277 C 0.01227 0.82161 0.51822 0.0
C1278 C 0.99682 0.80844 0.53259 0.0
C1279 C 0.99607 0.79007 0.49591 0.0
C1280 C 0.01161 0.84238 0.54817 0.0
C1281 C 0.99423 0.85296 0.54088 0.0
C1282 C 0.02802 0.85218 0.58051 0.0
C1283 C 0.04666 0.84208 0.59443 0.0
C1284 C 0.04725 0.82513 0.64015 0.0
C1285 C 0.06488 0.81563 0.65259 0.0
C1286 C 0.08203 0.823 0.61991 0.0
C1287 C 0.0816 0.83993 0.57492 0.0
C1288 C 0.06401 0.84949 0.56235 0.0
C1289 C 0.01614 0.93092 0.70383 0.0
C1290 C 1.00951 0.94481 0.64968 0.0
C1291 C 0.01607 0.91088 0.68577 0.0
C1292 C 1.00914 0.90405 0.61346 0.0
C1293 C 1.00264 0.91793 0.55932 0.0
C1294 C 1.00274 0.93792 0.57718 0.0
C1295 C 1.00943 0.88263 0.59318 0.0
C1296 C 0.02672 0.87205 0.60187 0.0
C1297 C 0.99292 0.87267 0.56347 0.0
C1298 C 0.97372 0.8821 0.56001 0.0
C1299 C 0.96571 0.88765 0.48832 0.0
C1300 C 0.94754 0.89664 0.48596 0.0
C1301 C 0.93718 0.89986 0.55488 0.0
C1302 C 0.94495 0.89404 0.62624 0.0
C1303 C 0.96314 0.88515 0.62877 0.0
H1304 H 0.9231 0.90678 0.55295 0.0
H1305 H 0.09566 0.81561 0.62956 0.0
H1306 H 0.74289 0.02258 0.57746 0.0
H1307 H 0.70962 0.02062 0.63003 0.0
H1308 H 0.69394 0.98051 0.44749 0.0
H1309 H 0.72726 0.98188 0.39697 0.0
H1310 H 0.67216 0.0193 0.46135 0.0
H1311 H 0.69173 0.96239 0.6056 0.0
H1312 H 0.71164 0.94438 0.70005 0.0
H1313 H 0.69434 0.98363 0.88163 0.0
H1314 H 0.67471 1.00224 0.78778 0.0
H1315 H 0.57209 0.99583 0.53362 0.0
H1316 H 0.60692 0.99486 0.50557 0.0
H1317 H 0.61908 0.0196 0.731 0.0
H1318 H 0.58414 0.02051 0.75993 0.0
H1319 H 0.64381 0.99077 0.70129 0.0
H1320 H 0.61611 0.0445 0.57226 0.0
H1321 H 0.59324 0.06791 0.49371 0.0
H1322 H 0.61489 0.05306 0.23739 0.0
H1323 H 0.65004 0.01583 0.35601 0.0
C1324 C 0.73269 0.0124 0.55159 0.0
C1325 C 0.73802 1.00186 0.4845 0.0
C1326 C 0.71351 0.01157 0.58081 0.0
C1327 C 0.69911 1.00053 0.54248 0.0
C1328 C 0.7047 0.9891 0.47839 0.0
C1329 C 0.72392 0.98959 0.45038 0.0
C1330 C 0.67797 1.00244 0.56346 0.0
C1331 C 0.66575 0.01274 0.51282 0.0
C1332 C 0.66993 0.99483 0.63307 0.0
C1333 C 0.68197 0.98388 0.68932 0.0
C1334 C 0.69241 0.96738 0.66537 0.0
C1335 C 0.70361 0.95704 0.71887 0.0
C1336 C 0.70434 0.96293 0.7967 0.0
C1337 C 0.69383 0.97916 0.82123 0.0
C1338 C 0.68268 0.98962 0.76788 0.0
C1339 C 0.58208 1.00112 0.57757 0.0
C1340 C 0.57501 1.00835 0.64923 0.0
C1341 C 0.60214 1.00062 0.56108 0.0
C1342 C 0.6159 1.00743 0.61534 0.0
C1343 C 0.60894 0.01434 0.68754 0.0
C1344 C 0.58883 0.01492 0.70402 0.0
C1345 C 0.63744 1.00706 0.59731 0.0
C1346 C 0.6499 0.99723 0.64897 0.0
C1347 C 0.64577 0.01544 0.5288 0.0
C1348 C 0.63453 0.0278 0.47421 0.0
C1349 C 0.61757 0.04361 0.50975 0.0
C1350 C 0.60298 0.05913 0.45911 0.0
C1351 C 0.60201 0.06267 0.36138 0.0
C1352 C 0.61665 0.0501 0.29897 0.0
C1353 C 0.63906 0.02621 0.37562 0.0
H1354 H 0.59187 0.07311 0.33806 0.0
H1355 H 0.71297 0.95487 0.83809 0.0
H1356 H 0.47812 0.72915 0.42304 0.0
H1357 H 0.47522 0.69694 0.48357 0.0
H1358 H 0.53323 0.70307 0.57507 0.0
H1359 H 0.53595 0.73532 0.51521 0.0
H1360 H 0.4954 0.66635 0.44366 0.0
H1361 H 0.54203 0.67531 0.71382 0.0
H1362 H 0.54866 0.70002 0.81441 0.0
H1363 H 0.48974 0.71994 0.79976 0.0
H1364 H 0.48299 0.6957 0.69677 0.0
H1365 H 0.52681 0.57164 0.54909 0.0
H1366 H 0.52527 0.60631 0.51816 0.0
H1367 H 0.48961 0.61592 0.72113 0.0
H1368 H 0.49162 0.58127 0.75374 0.0
H1369 H 0.51323 0.64512 0.70976 0.0
H1370 H 0.4714 0.61363 0.52465 0.0
H1371 H 0.46222 0.59059 0.42058 0.0
H1372 H 0.50551 0.61559 0.26975 0.0
H1373 H 0.51518 0.63858 0.37336 0.0
C1374 C 0.48981 0.7241 0.45989 0.0
C1375 C 0.50701 0.73522 0.46642 0.0
C1376 C 0.48832 0.70543 0.49331 0.0
C1377 C 0.50398 0.69726 0.53439 0.0
C1378 C 0.52071 0.70892 0.54531 0.0
C1379 C 0.52221 0.72758 0.5117 0.0
C1380 C 0.50362 0.67606 0.55823 0.0
C1381 C 0.49924 0.66177 0.50202 0.0
C1382 C 0.50837 0.66973 0.63435 0.0
C1383 C 0.51208 0.68384 0.69757 0.0
C1384 C 0.5305 0.68495 0.73228 0.0
C1385 C 0.5343 0.69895 0.78933 0.0
C1386 C 0.51964 0.7116 0.81348 0.0
C1387 C 0.50112 0.71023 0.78062 0.0
C1388 C 0.49734 0.69648 0.72246 0.0
C1389 C 0.51869 0.58109 0.58755 0.0
C1390 C 0.50931 0.57343 0.654 0.0
C1391 C 0.51768 0.60103 0.56935 0.0
C1392 C 0.50698 0.614 0.61615 0.0
C1393 C 0.49794 0.60644 0.6835 0.0
C1394 C 0.49909 0.5865 0.70217 0.0
C1395 C 0.5052 0.63529 0.59497 0.0
C1396 C 0.50925 0.64963 0.65153 0.0
C1397 C 0.49981 0.64164 0.51925 0.0
C1398 C 0.49414 0.6277 0.4571 0.0
C1399 C 0.47908 0.6141 0.46954 0.0
C1400 C 0.47378 0.60107 0.41059 0.0
C1401 C 0.48331 0.60159 0.33868 0.0
C1402 C 0.49817 0.61517 0.32554 0.0
C1403 C 0.50356 0.62821 0.38435 0.0
H1404 H 0.47916 0.59151 0.29308 0.0
H1405 H 0.52261 0.72245 0.85767 0.0
H1406 H 0.77636 0.52006 0.54248 0.0
H1407 H 0.80802 0.51657 0.60756 0.0
H1408 H 0.83262 0.49476 0.39329 0.0
H1409 H 0.80105 0.49679 0.33161 0.0
H1410 H 0.85033 0.47773 0.49046 0.0
H1411 H 0.83447 0.54591 0.48043 0.0
H1412 H 0.81566 0.57552 0.50941 0.0
H1413 H 0.82688 0.56818 0.7535 0.0
H1414 H 0.84558 0.5385 0.72553 0.0
H1415 H 0.94918 0.50959 0.52238 0.0
H1416 H 0.91448 0.50848 0.49154 0.0
H1417 H 0.90069 0.50429 0.73569 0.0
H1418 H 0.93559 0.50499 0.76727 0.0
H1419 H 0.87728 0.53283 0.64314 0.0
H1420 H 0.89615 0.46503 0.64079 0.0
H1421 H 0.91684 0.43764 0.59987 0.0
H1422 H 0.90294 0.44877 0.36038 0.0
H1423 H 0.88239 0.47638 0.3998 0.0
C1424 C 0.7884 0.51386 0.51045 0.0
C1425 C 0.78603 0.50868 0.43166 0.0
C1426 C 0.80675 0.51224 0.54719 0.0
C1427 C 0.82334 0.50589 0.5055 0.0
C1428 C 0.82048 0.49972 0.4281 0.0
C1429 C 0.80222 0.50089 0.39239 0.0
C1430 C 0.84376 0.50587 0.53965 0.0
C1431 C 0.85605 0.49001 0.52302 0.0
C1432 C 0.85174 0.52151 0.58438 0.0
C1433 C 0.84072 0.53953 0.60105 0.0
C1434 C 0.8326 0.55044 0.54023 0.0
C1435 C 0.82207 0.56731 0.55645 0.0
C1436 C 0.81988 0.57362 0.63333 0.0
C1437 C 0.82838 0.56318 0.69402 0.0
C1438 C 0.83889 0.54629 0.67799 0.0
C1439 C 0.93885 0.5085 0.56987 0.0
C1440 C 0.94539 0.50742 0.64755 0.0
C1441 C 0.91892 0.50782 0.55197 0.0
C1442 C 0.90481 0.50629 0.6111 0.0
C1443 C 0.9112 0.50554 0.68888 0.0
C1444 C 0.93122 0.50588 0.70684 0.0
C1445 C 0.88353 0.50518 0.5909 0.0
C1446 C 0.87124 0.52068 0.61062 0.0
C1447 C 0.87569 0.48961 0.54676 0.0
C1448 C 0.88782 0.47283 0.52325 0.0
C1449 C 0.89761 0.4617 0.57939 0.0
C1450 C 0.9093 0.44613 0.55645 0.0
C1451 C 0.91122 0.44148 0.47757 0.0
C1452 C 0.90144 0.45238 0.42146 0.0
C1453 C 0.88975 0.46797 0.44407 0.0
H1454 H 0.92024 0.42941 0.45986 0.0
H1455 H 0.81174 0.58669 0.64581 0.0
loop_
_geom_bond_atom_site_label_1
_geom_bond_atom_site_label_2
_geom_bond_distance
_geom_bond_site_symmetry_2
_ccdc_geom_bond_type
H0 C5 0.930 . S
H1 C8 0.930 . S
H2 C10 0.930 . S
H3 C4 1.016 . S
C4 H3 1.016 . S
C4 N11 1.286 . S
C5 H0 0.930 . S
C5 C6 1.397 . S
C5 C7 1.361 . S
C6 C5 1.397 . S
C6 C10 1.390 . S
C7 C5 1.361 . S
C7 C8 1.393 . S
C7 N11 1.413 . S
C8 H1 0.930 . S
C8 C7 1.393 . S
C8 C9 1.399 . S
C9 C8 1.399 . S
C9 C10 1.381 . S
C10 H2 0.930 . S
C10 C6 1.390 . S
C10 C9 1.381 . S
N11 C4 1.286 . S
N11 C7 1.413 . S
H12 C17 0.930 . S
H13 C20 0.930 . S
H14 C22 0.930 . S
H15 C16 1.036 . S
C16 H15 1.036 . S
C16 N23 1.261 1_655 S
C17 H12 0.930 . S
C17 C18 1.403 . S
C17 C19 1.361 . S
C18 C17 1.403 . S
C18 C22 1.387 1_455 S
C19 C17 1.361 . S
C19 C20 1.393 . S
C19 N23 1.413 . S
C20 H13 0.930 . S
C20 C19 1.393 . S
C20 C21 1.399 . S
C21 C20 1.399 . S
C21 C22 1.381 1_455 S
C22 H14 0.930 . S
C22 C18 1.387 1_655 S
C22 C21 1.381 1_655 S
N23 C16 1.261 1_455 S
N23 C19 1.413 . S
H24 C29 0.930 . S
H25 C32 0.930 . S
H26 C34 0.930 . S
H27 C28 1.016 . S
C28 H27 1.016 . S
C28 N35 1.286 1_565 S
C29 H24 0.930 . S
C29 C30 1.401 . S
C29 C31 1.361 . S
C30 C29 1.401 . S
C30 C34 1.388 1_545 S
C31 C29 1.361 . S
C31 C32 1.393 . S
C31 N35 1.413 . S
C32 H25 0.930 . S
C32 C31 1.393 . S
C32 C33 1.400 1_545 S
C33 C32 1.400 1_565 S
C33 C34 1.380 . S
C34 H26 0.930 . S
C34 C30 1.388 1_565 S
C34 C33 1.380 . S
N35 C28 1.286 1_545 S
N35 C31 1.413 . S
H36 C41 0.930 . S
H37 C44 0.930 . S
H38 C46 0.930 . S
H39 C40 1.016 . S
C40 H39 1.016 . S
C40 N47 1.286 . S
C41 H36 0.930 . S
C41 C42 1.397 . S
C41 C43 1.361 . S
C42 C41 1.397 . S
C42 C46 1.390 . S
C43 C41 1.361 . S
C43 C44 1.393 . S
C43 N47 1.413 . S
C44 H37 0.930 . S
C44 C43 1.393 . S
C44 C45 1.399 . S
C45 C44 1.399 . S
C45 C46 1.381 . S
C46 H38 0.930 . S
C46 C42 1.390 . S
C46 C45 1.381 . S
N47 C40 1.286 . S
N47 C43 1.413 . S
H48 C53 0.930 . S
H49 C56 0.930 . S
H50 C58 0.930 . S
H51 C52 1.016 . S
C52 H51 1.016 . S
C52 N59 1.286 . S
C53 H48 0.930 . S
C53 C54 1.397 . S
C53 C55 1.361 1_556 S
C54 C53 1.397 . S
C54 C58 1.390 1_556 S
C55 C53 1.361 1_554 S
C55 C56 1.393 . S
C55 N59 1.413 . S
C56 H49 0.930 . S
C56 C55 1.393 . S
C56 C57 1.399 . S
C57 C56 1.399 . S
C57 C58 1.381 . S
C58 H50 0.930 . S
C58 C54 1.390 1_554 S
C58 C57 1.381 . S
N59 C52 1.286 . S
N59 C55 1.413 . S
H60 C65 0.930 . S
H61 C68 0.930 . S
H62 C70 0.930 . S
H63 C64 1.016 . S
C64 H63 1.016 . S
C64 N71 1.287 1_655 S
C65 H60 0.930 . S
C65 C66 1.397 . S
C65 C67 1.361 1_556 S
C66 C65 1.397 . S
C66 C70 1.390 1_456 S
C67 C65 1.361 1_554 S
C67 C68 1.393 . S
C67 N71 1.413 . S
C68 H61 0.930 . S
C68 C67 1.393 . S
C68 C69 1.409 . S
C69 C68 1.409 . S
C69 C70 1.376 1_455 S
C70 H62 0.930 . S
C70 C66 1.390 1_654 S
C70 C69 1.376 1_655 S
N71 C64 1.287 1_455 S
N71 C67 1.413 . S
H72 C77 0.930 . S
H73 C80 0.930 . S
H74 C82 0.945 . S
H75 C76 1.018 1_565 S
C76 H75 1.018 1_545 S
C76 N83 1.284 . S
C77 H72 0.930 . S
C77 C78 1.397 . S
C77 C79 1.361 1_556 S
C78 C77 1.397 . S
C78 C82 1.384 1_546 S
C79 C77 1.361 1_554 S
C79 C80 1.393 . S
C79 N83 1.413 . S
C80 H73 0.930 . S
C80 C79 1.393 . S
C80 C81 1.399 . S
C81 C80 1.399 . S
C81 C82 1.376 1_545 S
C82 H74 0.945 . S
C82 C78 1.384 1_564 S
C82 C81 1.376 1_565 S
N83 C76 1.284 . S
N83 C79 1.413 . S
H84 C89 0.930 . S
H85 C92 0.930 . S
H86 C94 0.930 . S
H87 C88 1.016 . S
C88 H87 1.016 . S
C88 N95 1.286 . S
C89 H84 0.930 . S
C89 C90 1.397 . S
C89 C91 1.361 1_556 S
C90 C89 1.397 . S
C90 C94 1.390 1_556 S
C91 C89 1.361 1_554 S
C91 C92 1.393 . S
C91 N95 1.413 . S
C92 H85 0.930 . S
C92 C91 1.393 . S
C92 C93 1.399 . S
C93 C92 1.399 . S
C93 C94 1.381 . S
C94 H86 0.930 . S
C94 C90 1.390 1_554 S
C94 C93 1.381 . S
N95 C88 1.286 . S
N95 C91 1.413 . S
Pr96 C98 2.880 . S
Pr96 O116 2.565 . S
Pr96 O117 2.490 . S
Pr96 O118 2.695 1_565 S
Pr96 O119 2.512 . S
Pr96 O121 2.437 . S
Pr96 O124 2.436 1_455 S
Pr96 O126 2.438 1_565 S
Pr97 C107 2.880 . S
Pr97 O118 2.436 1_655 S
Pr97 O120 2.438 1_545 S
Pr97 O122 2.565 1_655 S
Pr97 O123 2.490 . S
Pr97 O124 2.695 1_545 S
Pr97 O125 2.512 . S
Pr97 O127 2.437 . S
C98 Pr96 2.880 . S
C98 C99 1.491 . S
C98 O116 1.260 . S
C98 O117 1.225 . S
C99 C98 1.491 . S
C99 C100 1.392 . S
C99 C104 1.356 . S
C100 C99 1.392 . S
C100 C101 1.368 . S
C100 H128 0.929 . S
C101 C100 1.368 . S
C101 C102 1.386 . S
C101 H129 0.929 . S
C102 C101 1.386 . S
C102 C103 1.373 . S
C103 C102 1.373 . S
C103 C104 1.409 . S
C103 H130 0.931 1_455 S
C104 C99 1.356 . S
C104 C103 1.409 . S
C104 H131 0.930 1_455 S
C105 O118 1.255 1_565 S
C105 O119 1.276 . S
C106 O120 1.267 . S
C106 O121 1.278 1_655 S
C107 Pr97 2.880 . S
C107 C108 1.491 . S
C107 O122 1.260 1_655 S
C107 O123 1.225 . S
C108 C107 1.491 . S
C108 C109 1.392 . S
C108 C113 1.356 . S
C109 C108 1.392 . S
C109 C110 1.368 . S
C109 H132 0.929 . S
C110 C109 1.368 . S
C110 C111 1.386 . S
C110 H133 0.929 . S
C111 C110 1.386 . S
C111 C112 1.373 . S
C112 C111 1.373 . S
C112 C113 1.409 . S
C112 H134 0.931 1_655 S
C113 C108 1.356 . S
C113 C112 1.409 . S
C113 H135 0.930 1_655 S
C114 O124 1.270 1_545 S
C114 O125 1.248 . S
C115 O126 1.267 . S
C115 O127 1.278 1_455 S
O116 Pr96 2.565 . S
O116 C98 1.260 . S
O117 Pr96 2.490 . S
O117 C98 1.225 . S
O118 Pr96 2.695 1_545 S
O118 Pr97 2.436 1_455 S
O118 C105 1.255 1_545 S
O119 Pr96 2.512 . S
O119 C105 1.276 . S
O120 Pr97 2.438 1_565 S
O120 C106 1.267 . S
O121 Pr96 2.437 . S
O121 C106 1.278 1_455 S
O122 Pr97 2.565 1_455 S
O122 C107 1.260 1_455 S
O123 Pr97 2.490 . S
O123 C107 1.225 . S
O124 Pr96 2.436 1_655 S
O124 Pr97 2.695 1_565 S
O124 C114 1.270 1_565 S
O125 Pr97 2.512 . S
O125 C114 1.248 . S
O126 Pr96 2.438 1_545 S
O126 C115 1.267 . S
O127 Pr97 2.437 . S
O127 C115 1.278 1_655 S
H128 C100 0.929 . S
H129 C101 0.929 . S
H130 C103 0.931 1_655 S
H131 C104 0.930 1_655 S
H132 C109 0.929 . S
H133 C110 0.929 . S
H134 C112 0.931 1_455 S
H135 C113 0.930 1_455 S
Pr136 C138 2.880 . S
Pr136 O156 2.564 . S
Pr136 O157 2.490 . S
Pr136 O158 2.695 . S
Pr136 O159 2.512 . S
Pr136 O161 2.437 . S
Pr136 O164 2.436 1_545 S
Pr136 O166 2.438 . S
Pr137 C147 2.880 . S
Pr137 O158 2.436 1_565 S
Pr137 O160 2.438 . S
Pr137 O162 2.564 1_565 S
Pr137 O163 2.490 . S
Pr137 O164 2.695 . S
Pr137 O165 2.512 . S
Pr137 O167 2.437 . S
C138 Pr136 2.880 . S
C138 C139 1.491 . S
C138 O156 1.259 . S
C138 O157 1.225 . S
C139 C138 1.491 . S
C139 C140 1.392 . S
C139 C144 1.356 . S
C140 C139 1.392 . S
C140 C141 1.368 . S
C140 H168 0.929 . S
C141 C140 1.368 . S
C141 C142 1.386 . S
C141 H169 0.929 . S
C142 C141 1.386 . S
C142 C143 1.373 . S
C143 C142 1.373 . S
C143 C144 1.409 . S
C143 H170 0.931 1_545 S
C144 C139 1.356 . S
C144 C143 1.409 . S
C144 H171 0.930 1_545 S
C145 O158 1.270 . S
C145 O159 1.248 . S
C146 O160 1.267 . S
C146 O161 1.278 1_565 S
C147 Pr137 2.880 . S
C147 C148 1.491 . S
C147 O162 1.259 1_565 S
C147 O163 1.225 . S
C148 C147 1.491 . S
C148 C149 1.392 . S
C148 C153 1.356 . S
C149 C148 1.392 . S
C149 C150 1.368 . S
C149 H172 0.929 . S
C150 C149 1.368 . S
C150 C151 1.386 . S
C150 H173 0.929 . S
C151 C150 1.386 . S
C151 C152 1.373 . S
C152 C151 1.373 . S
C152 C153 1.409 . S
C152 H174 0.931 1_565 S
C153 C148 1.356 . S
C153 C152 1.409 . S
C153 H175 0.930 1_565 S
C154 O164 1.270 . S
C154 O165 1.248 . S
C155 O166 1.267 . S
C155 O167 1.278 1_545 S
O156 Pr136 2.564 . S
O156 C138 1.259 . S
O157 Pr136 2.490 . S
O157 C138 1.225 . S
O158 Pr136 2.695 . S
O158 Pr137 2.436 1_545 S
O158 C145 1.270 . S
O159 Pr136 2.512 . S
O159 C145 1.248 . S
O160 Pr137 2.438 . S
O160 C146 1.267 . S
O161 Pr136 2.437 . S
O161 C146 1.278 1_545 S
O162 Pr137 2.564 1_545 S
O162 C147 1.259 1_545 S
O163 Pr137 2.490 . S
O163 C147 1.225 . S
O164 Pr136 2.436 1_565 S
O164 Pr137 2.695 . S
O164 C154 1.270 . S
O165 Pr137 2.512 . S
O165 C154 1.248 . S
O166 Pr136 2.438 . S
O166 C155 1.267 . S
O167 Pr137 2.437 . S
O167 C155 1.278 1_565 S
H168 C140 0.929 . S
H169 C141 0.929 . S
H170 C143 0.931 1_565 S
H171 C144 0.930 1_565 S
H172 C149 0.929 . S
H173 C150 0.929 . S
H174 C152 0.931 1_545 S
H175 C153 0.930 1_545 S
Pr176 C178 2.880 . S
Pr176 O196 2.562 . S
Pr176 O197 2.490 . S
Pr176 O198 2.695 . S
Pr176 O199 2.512 . S
Pr176 O201 2.437 . S
Pr176 O204 2.436 . S
Pr176 O206 2.438 . S
Pr177 C187 2.880 . S
Pr177 O198 2.436 . S
Pr177 O200 2.438 . S
Pr177 O202 2.562 . S
Pr177 O203 2.490 . S
Pr177 O204 2.695 . S
Pr177 O205 2.512 . S
Pr177 O207 2.437 . S
C178 Pr176 2.880 . S
C178 C179 1.491 . S
C178 O196 1.254 . S
C178 O197 1.225 . S
C179 C178 1.491 . S
C179 C180 1.392 . S
C179 C184 1.356 . S
C180 C179 1.392 . S
C180 C181 1.368 . S
C180 H208 0.929 . S
C181 C180 1.368 . S
C181 C182 1.386 . S
C181 H209 0.929 . S
C182 C181 1.386 . S
C182 C183 1.373 . S
C183 C182 1.373 . S
C183 C184 1.409 . S
C183 H210 0.931 . S
C184 C179 1.356 . S
C184 C183 1.409 . S
C184 H211 0.930 . S
C185 O198 1.270 . S
C185 O199 1.248 . S
C186 O200 1.267 . S
C186 O201 1.278 . S
C187 Pr177 2.880 . S
C187 C188 1.491 . S
C187 O202 1.254 . S
C187 O203 1.225 . S
C188 C187 1.491 . S
C188 C189 1.392 . S
C188 C193 1.356 . S
C189 C188 1.392 . S
C189 C190 1.368 . S
C189 H212 0.929 . S
C190 C189 1.368 . S
C190 C191 1.386 . S
C190 H213 0.929 . S
C191 C190 1.386 . S
C191 C192 1.373 . S
C192 C191 1.373 . S
C192 C193 1.409 . S
C192 H214 0.931 . S
C193 C188 1.356 . S
C193 C192 1.409 . S
C193 H215 0.930 . S
C194 O204 1.270 . S
C194 O205 1.248 . S
C195 O206 1.267 . S
C195 O207 1.278 . S
O196 Pr176 2.562 . S
O196 C178 1.254 . S
O197 Pr176 2.490 . S
O197 C178 1.225 . S
O198 Pr176 2.695 . S
O198 Pr177 2.436 . S
O198 C185 1.270 . S
O199 Pr176 2.512 . S
O199 C185 1.248 . S
O200 Pr177 2.438 . S
O200 C186 1.267 . S
O201 Pr176 2.437 . S
O201 C186 1.278 . S
O202 Pr177 2.562 . S
O202 C187 1.254 . S
O203 Pr177 2.490 . S
O203 C187 1.225 . S
O204 Pr176 2.436 . S
O204 Pr177 2.695 . S
O204 C194 1.270 . S
O205 Pr177 2.512 . S
O205 C194 1.248 . S
O206 Pr176 2.438 . S
O206 C195 1.267 . S
O207 Pr177 2.437 . S
O207 C195 1.278 . S
H208 C180 0.929 . S
H209 C181 0.929 . S
H210 C183 0.931 . S
H211 C184 0.930 . S
H212 C189 0.929 . S
H213 C190 0.929 . S
H214 C192 0.931 . S
H215 C193 0.930 . S
Pr216 C218 2.880 . S
Pr216 O236 2.562 . S
Pr216 O237 2.490 . S
Pr216 O238 2.695 1_655 S
Pr216 O239 2.512 . S
Pr216 O241 2.437 . S
Pr216 O244 2.436 . S
Pr216 O246 2.438 1_655 S
Pr217 C227 2.880 . S
Pr217 O238 2.436 . S
Pr217 O240 2.438 1_455 S
Pr217 O242 2.562 . S
Pr217 O243 2.490 . S
Pr217 O244 2.695 1_455 S
Pr217 O245 2.512 . S
Pr217 O247 2.437 . S
C218 Pr216 2.880 . S
C218 C219 1.491 . S
C218 O236 1.254 . S
C218 O237 1.225 . S
C219 C218 1.491 . S
C219 C220 1.392 . S
C219 C224 1.356 . S
C220 C219 1.392 . S
C220 C221 1.368 . S
C220 H248 0.929 . S
C221 C220 1.368 . S
C221 C222 1.386 . S
C221 H249 0.929 . S
C222 C221 1.386 . S
C222 C223 1.373 . S
C223 C222 1.373 . S
C223 C224 1.409 . S
C223 H250 0.931 . S
C224 C219 1.356 . S
C224 C223 1.409 . S
C224 H251 0.930 . S
C225 O238 1.254 1_655 S
C225 O239 1.276 . S
C226 O240 1.267 . S
C226 O241 1.278 . S
C227 Pr217 2.880 . S
C227 C228 1.491 . S
C227 O242 1.254 . S
C227 O243 1.225 . S
C228 C227 1.491 . S
C228 C229 1.392 . S
C228 C233 1.356 . S
C229 C228 1.392 . S
C229 C230 1.368 . S
C229 H252 0.929 . S
C230 C229 1.368 . S
C230 C231 1.386 . S
C230 H253 0.929 . S
C231 C230 1.386 . S
C231 C232 1.373 . S
C232 C231 1.373 . S
C232 C233 1.409 . S
C232 H254 0.931 . S
C233 C228 1.356 . S
C233 C232 1.409 . S
C233 H255 0.930 . S
C234 O244 1.270 1_455 S
C234 O245 1.248 . S
C235 O246 1.267 . S
C235 O247 1.278 . S
O236 Pr216 2.562 . S
O236 C218 1.254 . S
O237 Pr216 2.490 . S
O237 C218 1.225 . S
O238 Pr216 2.695 1_455 S
O238 Pr217 2.436 . S
O238 C225 1.254 1_455 S
O239 Pr216 2.512 . S
O239 C225 1.276 . S
O240 Pr217 2.438 1_655 S
O240 C226 1.267 . S
O241 Pr216 2.437 . S
O241 C226 1.278 . S
O242 Pr217 2.562 . S
O242 C227 1.254 . S
O243 Pr217 2.490 . S
O243 C227 1.225 . S
O244 Pr216 2.436 . S
O244 Pr217 2.695 1_655 S
O244 C234 1.270 1_655 S
O245 Pr217 2.512 . S
O245 C234 1.248 . S
O246 Pr216 2.438 1_455 S
O246 C235 1.267 . S
O247 Pr217 2.437 . S
O247 C235 1.278 . S
H248 C220 0.929 . S
H249 C221 0.929 . S
H250 C223 0.931 . S
H251 C224 0.930 . S
H252 C229 0.929 . S
H253 C230 0.929 . S
H254 C232 0.931 . S
H255 C233 0.930 . S
H256 C274 0.951 . S
H257 C276 0.951 . S
H258 C278 0.951 . S
H259 C279 0.952 . S
H260 C281 0.950 . S
H261 C284 0.950 . S
H262 C285 0.950 . S
H263 C287 0.950 . S
H264 C288 0.950 . S
H265 C289 0.952 . S
H266 C291 0.956 . S
H267 C293 0.950 . S
H268 C294 0.950 . S
H269 C296 0.950 . S
H270 C299 0.950 . S
H271 C300 0.950 . S
H272 C302 0.950 . S
H273 C303 0.950 . S
C274 H256 0.951 . S
C274 C275 1.369 . S
C274 C276 1.388 . S
C275 C274 1.369 . S
C275 C279 1.382 1_545 S
C276 H257 0.951 . S
C276 C274 1.388 . S
C276 C277 1.366 . S
C277 C276 1.366 . S
C277 C278 1.413 1_545 S
C277 C280 1.499 . S
C278 H258 0.951 . S
C278 C277 1.413 1_565 S
C278 C279 1.374 . S
C279 H259 0.952 . S
C279 C275 1.382 1_565 S
C279 C278 1.374 . S
C280 C277 1.499 . S
C280 C281 1.373 1_545 S
C280 C282 1.389 . S
C281 H260 0.950 . S
C281 C280 1.373 1_565 S
C281 C297 1.377 . S
C282 C280 1.389 . S
C282 C283 1.524 . S
C282 C296 1.377 . S
C283 C282 1.524 . S
C283 C284 1.397 . S
C283 C288 1.363 . S
C284 H261 0.950 . S
C284 C283 1.397 . S
C284 C285 1.334 . S
C285 H262 0.950 . S
C285 C284 1.334 . S
C285 C286 1.287 . S
C286 C285 1.287 . S
C286 C287 1.524 . S
C286 H305 0.913 . S
C287 H263 0.950 . S
C287 C286 1.524 . S
C287 C288 1.415 . S
C288 H264 0.950 . S
C288 C283 1.363 . S
C288 C287 1.415 . S
C289 H265 0.952 . S
C289 C290 1.365 1_565 S
C289 C291 1.387 . S
C290 C289 1.365 1_545 S
C290 C294 1.385 . S
C291 H266 0.956 . S
C291 C289 1.387 . S
C291 C292 1.364 1_565 S
C292 C291 1.364 1_545 S
C292 C293 1.414 . S
C292 C295 1.499 1_545 S
C293 H267 0.950 . S
C293 C292 1.414 . S
C293 C294 1.374 . S
C294 H268 0.950 . S
C294 C290 1.385 . S
C294 C293 1.374 . S
C295 C292 1.499 1_565 S
C295 C296 1.376 1_565 S
C295 C297 1.387 . S
C296 H269 0.950 . S
C296 C282 1.377 . S
C296 C295 1.376 1_545 S
C297 C281 1.377 . S
C297 C295 1.387 . S
C297 C298 1.524 . S
C298 C297 1.524 . S
C298 C299 1.397 . S
C298 C303 1.363 . S
C299 H270 0.950 . S
C299 C298 1.397 . S
C299 C300 1.334 . S
C300 H271 0.950 . S
C300 C299 1.334 . S
C300 C301 1.287 . S
C301 C300 1.287 . S
C301 C302 1.524 . S
C301 H304 0.999 . S
C302 H272 0.950 . S
C302 C301 1.524 . S
C302 C303 1.415 . S
C303 H273 0.950 . S
C303 C298 1.363 . S
C303 C302 1.415 . S
H304 C301 0.999 . S
H305 C286 0.913 . S
H306 C324 0.951 . S
H307 C326 0.951 . S
H308 C328 0.950 . S
H309 C329 0.950 . S
H310 C331 0.950 . S
H311 C334 0.950 . S
H312 C335 0.950 . S
H313 C337 0.950 . S
H314 C338 0.950 . S
H315 C339 0.951 . S
H316 C341 0.951 . S
H317 C343 0.950 . S
H318 C344 0.950 . S
H319 C346 0.950 . S
H320 C349 0.950 . S
H321 C350 0.950 . S
H322 C352 0.950 . S
H323 C353 0.950 . S
C324 H306 0.951 . S
C324 C325 1.366 . S
C324 C326 1.388 . S
C325 C324 1.366 . S
C325 C329 1.385 . S
C326 H307 0.951 . S
C326 C324 1.388 . S
C326 C327 1.366 . S
C327 C326 1.366 . S
C327 C328 1.414 . S
C327 C330 1.499 . S
C328 H308 0.950 . S
C328 C327 1.414 . S
C328 C329 1.374 . S
C329 H309 0.950 . S
C329 C325 1.385 . S
C329 C328 1.374 . S
C330 C327 1.499 . S
C330 C331 1.373 . S
C330 C332 1.389 . S
C331 H310 0.950 . S
C331 C330 1.373 . S
C331 C347 1.377 . S
C332 C330 1.389 . S
C332 C333 1.524 . S
C332 C346 1.377 . S
C333 C332 1.524 . S
C333 C334 1.397 . S
C333 C338 1.363 . S
C334 H311 0.950 . S
C334 C333 1.397 . S
C334 C335 1.334 . S
C335 H312 0.950 . S
C335 C334 1.334 . S
C335 C336 1.287 . S
C336 C335 1.287 . S
C336 C337 1.524 . S
C336 H355 0.913 . S
C337 H313 0.950 . S
C337 C336 1.524 . S
C337 C338 1.415 . S
C338 H314 0.950 . S
C338 C333 1.363 . S
C338 C337 1.415 . S
C339 H315 0.951 . S
C339 C340 1.366 . S
C339 C341 1.388 . S
C340 C339 1.366 . S
C340 C344 1.385 . S
C341 H316 0.951 . S
C341 C339 1.388 . S
C341 C342 1.366 . S
C342 C341 1.366 . S
C342 C343 1.414 . S
C342 C345 1.499 . S
C343 H317 0.950 . S
C343 C342 1.414 . S
C343 C344 1.374 . S
C344 H318 0.950 . S
C344 C340 1.385 . S
C344 C343 1.374 . S
C345 C342 1.499 . S
C345 C346 1.373 . S
C345 C347 1.389 . S
C346 H319 0.950 . S
C346 C332 1.377 . S
C346 C345 1.373 . S
C347 C331 1.377 . S
C347 C345 1.389 . S
C347 C348 1.524 . S
C348 C347 1.524 . S
C348 C349 1.397 . S
C348 C353 1.363 . S
C349 H320 0.950 . S
C349 C348 1.397 . S
C349 C350 1.334 . S
C350 H321 0.950 . S
C350 C349 1.334 . S
C350 C351 1.287 . S
C351 C350 1.287 . S
C351 C352 1.524 . S
C351 H354 0.999 . S
C352 H322 0.950 . S
C352 C351 1.524 . S
C352 C353 1.415 . S
C353 H323 0.950 . S
C353 C348 1.363 . S
C353 C352 1.415 . S
H354 C351 0.999 . S
H355 C336 0.913 . S
H356 C374 0.951 . S
H357 C376 0.951 . S
H358 C378 0.950 . S
H359 C379 0.950 . S
H360 C381 0.950 . S
H361 C384 0.950 . S
H362 C385 0.950 . S
H363 C387 0.950 . S
H364 C388 0.950 . S
H365 C389 0.951 . S
H366 C391 0.951 . S
H367 C393 0.950 . S
H368 C394 0.950 . S
H369 C396 0.950 . S
H370 C399 0.950 . S
H371 C400 0.950 . S
H372 C402 0.950 . S
H373 C403 0.950 . S
C374 H356 0.951 . S
C374 C375 1.366 . S
C374 C376 1.388 . S
C375 C374 1.366 . S
C375 C379 1.385 . S
C376 H357 0.951 . S
C376 C374 1.388 . S
C376 C377 1.366 . S
C377 C376 1.366 . S
C377 C378 1.414 . S
C377 C380 1.499 . S
C378 H358 0.950 . S
C378 C377 1.414 . S
C378 C379 1.374 . S
C379 H359 0.950 . S
C379 C375 1.385 . S
C379 C378 1.374 . S
C380 C377 1.499 . S
C380 C381 1.373 . S
C380 C382 1.389 . S
C381 H360 0.950 . S
C381 C380 1.373 . S
C381 C397 1.377 . S
C382 C380 1.389 . S
C382 C383 1.524 . S
C382 C396 1.377 . S
C383 C382 1.524 . S
C383 C384 1.397 . S
C383 C388 1.363 . S
C384 H361 0.950 . S
C384 C383 1.397 . S
C384 C385 1.334 . S
C385 H362 0.950 . S
C385 C384 1.334 . S
C385 C386 1.287 . S
C386 C385 1.287 . S
C386 C387 1.524 . S
C386 H405 0.913 1_554 S
C387 H363 0.950 . S
C387 C386 1.524 . S
C387 C388 1.415 . S
C388 H364 0.950 . S
C388 C383 1.363 . S
C388 C387 1.415 . S
C389 H365 0.951 . S
C389 C390 1.366 . S
C389 C391 1.388 . S
C390 C389 1.366 . S
C390 C394 1.385 . S
C391 H366 0.951 . S
C391 C389 1.388 . S
C391 C392 1.366 . S
C392 C391 1.366 . S
C392 C393 1.414 . S
C392 C395 1.499 . S
C393 H367 0.950 . S
C393 C392 1.414 . S
C393 C394 1.374 . S
C394 H368 0.950 . S
C394 C390 1.385 . S
C394 C393 1.374 . S
C395 C392 1.499 . S
C395 C396 1.373 . S
C395 C397 1.389 . S
C396 H369 0.950 . S
C396 C382 1.377 . S
C396 C395 1.373 . S
C397 C381 1.377 . S
C397 C395 1.389 . S
C397 C398 1.524 . S
C398 C397 1.524 . S
C398 C399 1.397 . S
C398 C403 1.363 . S
C399 H370 0.950 . S
C399 C398 1.397 . S
C399 C400 1.334 . S
C400 H371 0.950 . S
C400 C399 1.334 . S
C400 C401 1.287 . S
C401 C400 1.287 . S
C401 C402 1.524 . S
C401 H404 0.999 . S
C402 H372 0.950 . S
C402 C401 1.524 . S
C402 C403 1.415 . S
C403 H373 0.950 . S
C403 C398 1.363 . S
C403 C402 1.415 . S
H404 C401 0.999 . S
H405 C386 0.913 1_556 S
H406 C424 0.950 1_655 S
H407 C426 0.950 . S
H408 C428 0.950 . S
H409 C429 0.950 . S
H410 C431 0.950 . S
H411 C434 0.950 . S
H412 C435 0.950 . S
H413 C437 0.950 . S
H414 C438 0.950 . S
H415 C439 0.951 . S
H416 C441 0.951 . S
H417 C443 0.950 . S
H418 C444 0.950 1_655 S
H419 C446 0.950 . S
H420 C449 0.950 . S
H421 C450 0.950 . S
H422 C452 0.950 . S
H423 C453 0.950 . S
C424 H406 0.950 1_455 S
C424 C425 1.365 . S
C424 C426 1.387 . S
C425 C424 1.365 . S
C425 C429 1.386 . S
C426 H407 0.950 . S
C426 C424 1.387 . S
C426 C427 1.368 . S
C427 C426 1.368 . S
C427 C428 1.414 . S
C427 C430 1.499 . S
C428 H408 0.950 . S
C428 C427 1.414 . S
C428 C429 1.374 . S
C429 H409 0.950 . S
C429 C425 1.386 . S
C429 C428 1.374 . S
C430 C427 1.499 . S
C430 C431 1.373 1_455 S
C430 C432 1.389 . S
C431 H410 0.950 . S
C431 C430 1.373 1_655 S
C431 C447 1.377 . S
C432 C430 1.389 . S
C432 C433 1.524 . S
C432 C446 1.377 . S
C433 C432 1.524 . S
C433 C434 1.397 . S
C433 C438 1.363 . S
C434 H411 0.950 . S
C434 C433 1.397 . S
C434 C435 1.334 . S
C435 H412 0.950 . S
C435 C434 1.334 . S
C435 C436 1.287 . S
C436 C435 1.287 . S
C436 C437 1.524 . S
C436 H455 0.913 . S
C437 H413 0.950 . S
C437 C436 1.524 . S
C437 C438 1.415 . S
C438 H414 0.950 . S
C438 C433 1.363 . S
C438 C437 1.415 . S
C439 H415 0.951 . S
C439 C440 1.366 . S
C439 C441 1.388 . S
C440 C439 1.366 . S
C440 C444 1.385 . S
C441 H416 0.951 . S
C441 C439 1.388 . S
C441 C442 1.365 . S
C442 C441 1.365 . S
C442 C443 1.414 1_455 S
C442 C445 1.499 1_455 S
C443 H417 0.950 . S
C443 C442 1.414 1_655 S
C443 C444 1.374 1_655 S
C444 H418 0.950 1_455 S
C444 C440 1.385 . S
C444 C443 1.374 1_455 S
C445 C442 1.499 1_655 S
C445 C446 1.370 1_655 S
C445 C447 1.392 . S
C446 H419 0.950 . S
C446 C432 1.377 . S
C446 C445 1.370 1_455 S
C447 C431 1.377 . S
C447 C445 1.392 . S
C447 C448 1.524 . S
C448 C447 1.524 . S
C448 C449 1.397 . S
C448 C453 1.363 . S
C449 H420 0.950 . S
C449 C448 1.397 . S
C449 C450 1.334 . S
C450 H421 0.950 . S
C450 C449 1.334 . S
C450 C451 1.287 . S
C451 C450 1.287 . S
C451 C452 1.524 . S
C451 H454 0.999 . S
C452 H422 0.950 . S
C452 C451 1.524 . S
C452 C453 1.415 . S
C453 H423 0.950 . S
C453 C448 1.363 . S
C453 C452 1.415 . S
H454 C451 0.999 . S
H455 C436 0.913 . S
H456 C474 0.951 . S
H457 C476 0.951 . S
H458 C478 0.950 . S
H459 C479 0.950 . S
H460 C481 0.950 . S
H461 C484 0.950 . S
H462 C485 0.950 . S
H463 C487 0.966 . S
H464 C488 0.950 . S
H465 C489 0.951 . S
H466 C491 0.951 . S
H467 C493 0.950 . S
H468 C494 0.950 . S
H469 C496 0.949 . S
H470 C499 0.950 . S
H471 C500 0.950 . S
H472 C502 0.950 1_545 S
H473 C503 0.950 . S
C474 H456 0.951 . S
C474 C475 1.383 . S
C474 C476 1.388 . S
C475 C474 1.383 . S
C475 C479 1.367 1_565 S
C476 H457 0.951 . S
C476 C474 1.388 . S
C476 C477 1.363 1_565 S
C477 C476 1.363 1_545 S
C477 C478 1.416 . S
C477 C480 1.498 . S
C478 H458 0.950 . S
C478 C477 1.416 . S
C478 C479 1.374 . S
C479 H459 0.950 . S
C479 C475 1.367 1_545 S
C479 C478 1.374 . S
C480 C477 1.498 . S
C480 C481 1.370 1_545 S
C480 C482 1.391 . S
C481 H460 0.950 . S
C481 C480 1.370 1_565 S
C481 C497 1.377 1_554 S
C482 C480 1.391 . S
C482 C483 1.524 . S
C482 C496 1.377 . S
C483 C482 1.524 . S
C483 C484 1.397 . S
C483 C488 1.363 1_545 S
C484 H461 0.950 . S
C484 C483 1.397 . S
C484 C485 1.334 . S
C485 H462 0.950 . S
C485 C484 1.334 . S
C485 C486 1.287 . S
C486 C485 1.287 . S
C486 C487 1.500 1_545 S
C486 H505 0.913 . S
C487 H463 0.966 . S
C487 C486 1.500 1_565 S
C487 C488 1.422 . S
C488 H464 0.950 . S
C488 C483 1.363 1_565 S
C488 C487 1.422 . S
C489 H465 0.951 . S
C489 C490 1.366 1_545 S
C489 C491 1.388 . S
C490 C489 1.366 1_565 S
C490 C494 1.385 . S
C491 H466 0.951 . S
C491 C489 1.388 . S
C491 C492 1.366 1_545 S
C492 C491 1.366 1_565 S
C492 C493 1.414 . S
C492 C495 1.499 . S
C493 H467 0.950 . S
C493 C492 1.414 . S
C493 C494 1.374 . S
C494 H468 0.950 . S
C494 C490 1.385 . S
C494 C493 1.374 . S
C495 C492 1.499 . S
C495 C496 1.372 1_566 S
C495 C497 1.389 . S
C496 H469 0.949 . S
C496 C482 1.377 . S
C496 C495 1.372 1_544 S
C497 C481 1.377 1_556 S
C497 C495 1.389 . S
C497 C498 1.524 . S
C498 C497 1.524 . S
C498 C499 1.397 . S
C498 C503 1.363 1_565 S
C499 H470 0.950 . S
C499 C498 1.397 . S
C499 C500 1.334 . S
C500 H471 0.950 . S
C500 C499 1.334 . S
C500 C501 1.287 . S
C501 C500 1.287 . S
C501 C502 1.524 . S
C501 H504 0.999 . S
C502 H472 0.950 1_565 S
C502 C501 1.524 . S
C502 C503 1.415 1_565 S
C503 H473 0.950 . S
C503 C498 1.363 1_545 S
C503 C502 1.415 1_545 S
H504 C501 0.999 . S
H505 C486 0.913 . S
H506 C524 0.951 . S
H507 C526 0.951 . S
H508 C528 0.950 . S
H509 C529 0.950 . S
H510 C531 0.950 . S
H511 C534 0.950 . S
H512 C535 0.950 . S
H513 C537 0.950 . S
H514 C538 0.950 . S
H515 C539 0.951 . S
H516 C541 0.951 . S
H517 C543 0.950 . S
H518 C544 0.950 . S
H519 C546 0.950 . S
H520 C549 0.950 . S
H521 C550 0.950 . S
H522 C552 0.950 1_554 S
H523 C553 0.950 . S
C524 H506 0.951 . S
C524 C525 1.366 . S
C524 C526 1.388 . S
C525 C524 1.366 . S
C525 C529 1.385 . S
C526 H507 0.951 . S
C526 C524 1.388 . S
C526 C527 1.366 . S
C527 C526 1.366 . S
C527 C528 1.414 . S
C527 C530 1.499 . S
C528 H508 0.950 . S
C528 C527 1.414 . S
C528 C529 1.374 . S
C529 H509 0.950 . S
C529 C525 1.385 . S
C529 C528 1.374 . S
C530 C527 1.499 . S
C530 C531 1.373 . S
C530 C532 1.389 . S
C531 H510 0.950 . S
C531 C530 1.373 . S
C531 C547 1.377 . S
C532 C530 1.389 . S
C532 C533 1.524 . S
C532 C546 1.377 . S
C533 C532 1.524 . S
C533 C534 1.397 . S
C533 C538 1.363 . S
C534 H511 0.950 . S
C534 C533 1.397 . S
C534 C535 1.334 . S
C535 H512 0.950 . S
C535 C534 1.334 . S
C535 C536 1.287 . S
C536 C535 1.287 . S
C536 C537 1.524 . S
C536 H555 0.913 . S
C537 H513 0.950 . S
C537 C536 1.524 . S
C537 C538 1.415 . S
C538 H514 0.950 . S
C538 C533 1.363 . S
C538 C537 1.415 . S
C539 H515 0.951 . S
C539 C540 1.366 . S
C539 C541 1.388 . S
C540 C539 1.366 . S
C540 C544 1.385 . S
C541 H516 0.951 . S
C541 C539 1.388 . S
C541 C542 1.366 . S
C542 C541 1.366 . S
C542 C543 1.414 . S
C542 C545 1.499 . S
C543 H517 0.950 . S
C543 C542 1.414 . S
C543 C544 1.374 . S
C544 H518 0.950 . S
C544 C540 1.385 . S
C544 C543 1.374 . S
C545 C542 1.499 . S
C545 C546 1.373 1_556 S
C545 C547 1.389 1_556 S
C546 H519 0.950 . S
C546 C532 1.377 . S
C546 C545 1.373 1_554 S
C547 C531 1.377 . S
C547 C545 1.389 1_554 S
C547 C548 1.524 1_554 S
C548 C547 1.524 1_556 S
C548 C549 1.397 . S
C548 C553 1.363 1_556 S
C549 H520 0.950 . S
C549 C548 1.397 . S
C549 C550 1.334 . S
C550 H521 0.950 . S
C550 C549 1.334 . S
C550 C551 1.287 . S
C551 C550 1.287 . S
C551 C552 1.524 . S
C551 H554 0.999 . S
C552 H522 0.950 1_556 S
C552 C551 1.524 . S
C552 C553 1.415 1_556 S
C553 H523 0.950 . S
C553 C548 1.363 1_554 S
C553 C552 1.415 1_554 S
H554 C551 0.999 . S
H555 C536 0.913 . S
H556 C574 0.951 . S
H557 C576 0.951 . S
H558 C578 0.950 . S
H559 C579 0.950 . S
H560 C581 0.950 . S
H561 C584 0.950 . S
H562 C585 0.950 . S
H563 C587 0.950 . S
H564 C588 0.950 . S
H565 C589 0.951 . S
H566 C591 0.951 . S
H567 C593 0.950 1_554 S
H568 C594 0.950 . S
H569 C596 0.950 . S
H570 C599 0.950 . S
H571 C600 0.950 . S
H572 C602 0.950 . S
H573 C603 0.950 . S
C574 H556 0.951 . S
C574 C575 1.366 . S
C574 C576 1.388 . S
C575 C574 1.366 . S
C575 C579 1.385 . S
C576 H557 0.951 . S
C576 C574 1.388 . S
C576 C577 1.366 . S
C577 C576 1.366 . S
C577 C578 1.414 . S
C577 C580 1.499 . S
C578 H558 0.950 . S
C578 C577 1.414 . S
C578 C579 1.374 . S
C579 H559 0.950 . S
C579 C575 1.385 . S
C579 C578 1.374 . S
C580 C577 1.499 . S
C580 C581 1.373 . S
C580 C582 1.389 . S
C581 H560 0.950 . S
C581 C580 1.373 . S
C581 C597 1.377 1_554 S
C582 C580 1.389 . S
C582 C583 1.524 . S
C582 C596 1.377 . S
C583 C582 1.524 . S
C583 C584 1.397 . S
C583 C588 1.363 . S
C584 H561 0.950 . S
C584 C583 1.397 . S
C584 C585 1.334 . S
C585 H562 0.950 . S
C585 C584 1.334 . S
C585 C586 1.287 . S
C586 C585 1.287 . S
C586 C587 1.524 . S
C586 H605 0.913 . S
C587 H563 0.950 . S
C587 C586 1.524 . S
C587 C588 1.415 . S
C588 H564 0.950 . S
C588 C583 1.363 . S
C588 C587 1.415 . S
C589 H565 0.951 . S
C589 C590 1.366 . S
C589 C591 1.388 . S
C590 C589 1.366 . S
C590 C594 1.385 . S
C591 H566 0.951 . S
C591 C589 1.388 . S
C591 C592 1.366 . S
C592 C591 1.366 . S
C592 C593 1.414 . S
C592 C595 1.499 . S
C593 H567 0.950 1_556 S
C593 C592 1.414 . S
C593 C594 1.374 . S
C594 H568 0.950 . S
C594 C590 1.385 . S
C594 C593 1.374 . S
C595 C592 1.499 . S
C595 C596 1.373 1_556 S
C595 C597 1.389 . S
C596 H569 0.950 . S
C596 C582 1.377 . S
C596 C595 1.373 1_554 S
C597 C581 1.377 1_556 S
C597 C595 1.389 . S
C597 C598 1.524 . S
C598 C597 1.524 . S
C598 C599 1.397 . S
C598 C603 1.363 . S
C599 H570 0.950 . S
C599 C598 1.397 . S
C599 C600 1.334 . S
C600 H571 0.950 . S
C600 C599 1.334 . S
C600 C601 1.287 . S
C601 C600 1.287 . S
C601 C602 1.524 . S
C601 H604 0.999 . S
C602 H572 0.950 . S
C602 C601 1.524 . S
C602 C603 1.415 . S
C603 H573 0.950 . S
C603 C598 1.363 . S
C603 C602 1.415 . S
H604 C601 0.999 . S
H605 C586 0.913 . S
H606 C624 0.951 . S
H607 C626 0.951 . S
H608 C628 0.950 . S
H609 C629 0.950 . S
H610 C631 0.950 . S
H611 C634 0.950 . S
H612 C635 0.950 . S
H613 C637 0.950 . S
H614 C638 0.950 . S
H615 C639 0.951 . S
H616 C641 0.951 1_554 S
H617 C643 0.950 . S
H618 C644 0.950 . S
H619 C646 0.950 . S
H620 C649 0.950 1_556 S
H621 C650 0.950 1_556 S
H622 C652 0.950 . S
H623 C653 0.950 . S
C624 H606 0.951 . S
C624 C625 1.363 1_455 S
C624 C626 1.388 . S
C625 C624 1.363 1_655 S
C625 C629 1.388 . S
C626 H607 0.951 . S
C626 C624 1.388 . S
C626 C627 1.366 1_455 S
C627 C626 1.366 1_655 S
C627 C628 1.414 . S
C627 C630 1.499 . S
C628 H608 0.950 . S
C628 C627 1.414 . S
C628 C629 1.374 . S
C629 H609 0.950 . S
C629 C625 1.388 . S
C629 C628 1.374 . S
C630 C627 1.499 . S
C630 C631 1.373 1_655 S
C630 C632 1.389 . S
C631 H610 0.950 . S
C631 C630 1.373 1_455 S
C631 C647 1.377 . S
C632 C630 1.389 . S
C632 C633 1.524 . S
C632 C646 1.377 1_554 S
C633 C632 1.524 . S
C633 C634 1.397 . S
C633 C638 1.363 1_554 S
C634 H611 0.950 . S
C634 C633 1.397 . S
C634 C635 1.334 . S
C635 H612 0.950 . S
C635 C634 1.334 . S
C635 C636 1.287 . S
C636 C635 1.287 . S
C636 C637 1.524 1_554 S
C636 H655 0.913 1_554 S
C637 H613 0.950 . S
C637 C636 1.524 1_556 S
C637 C638 1.415 . S
C638 H614 0.950 . S
C638 C633 1.363 1_556 S
C638 C637 1.415 . S
C639 H615 0.951 . S
C639 C640 1.366 . S
C639 C641 1.388 . S
C640 C639 1.366 . S
C640 C644 1.385 1_655 S
C641 H616 0.951 1_556 S
C641 C639 1.388 . S
C641 C642 1.365 1_655 S
C642 C641 1.365 1_455 S
C642 C643 1.414 . S
C642 C645 1.499 . S
C643 H617 0.950 . S
C643 C642 1.414 . S
C643 C644 1.374 . S
C644 H618 0.950 . S
C644 C640 1.385 1_455 S
C644 C643 1.374 . S
C645 C642 1.499 . S
C645 C646 1.361 1_455 S
C645 C647 1.401 1_556 S
C646 H619 0.950 . S
C646 C632 1.377 1_556 S
C646 C645 1.361 1_655 S
C647 C631 1.377 . S
C647 C645 1.401 1_554 S
C647 C648 1.524 . S
C648 C647 1.524 . S
C648 C649 1.397 . S
C648 C653 1.363 . S
C649 H620 0.950 1_554 S
C649 C648 1.397 . S
C649 C650 1.334 . S
C650 H621 0.950 1_554 S
C650 C649 1.334 . S
C650 C651 1.287 . S
C651 C650 1.287 . S
C651 C652 1.524 . S
C651 H654 0.999 . S
C652 H622 0.950 . S
C652 C651 1.524 . S
C652 C653 1.415 . S
C653 H623 0.950 . S
C653 C648 1.363 . S
C653 C652 1.415 . S
H654 C651 0.999 . S
H655 C636 0.913 1_556 S
H656 C674 0.951 . S
H657 C676 0.948 1_455 S
H658 C678 0.950 . S
H659 C679 0.950 . S
H660 C681 0.928 1_455 S
H661 C684 0.950 . S
H662 C685 0.950 . S
H663 C687 0.950 1_556 S
H664 C688 0.950 . S
H665 C689 0.951 . S
H666 C691 0.951 . S
H667 C693 0.950 . S
H668 C694 0.950 . S
H669 C696 0.950 . S
H670 C699 0.950 . S
H671 C700 0.950 . S
H672 C702 0.950 . S
H673 C703 0.950 . S
C674 H656 0.951 . S
C674 C675 1.366 . S
C674 C676 1.380 1_455 S
C675 C674 1.366 . S
C675 C679 1.385 1_455 S
C676 H657 0.948 1_655 S
C676 C674 1.380 1_655 S
C676 C677 1.378 . S
C677 C676 1.378 . S
C677 C678 1.414 . S
C677 C680 1.499 . S
C678 H658 0.950 . S
C678 C677 1.414 . S
C678 C679 1.374 . S
C679 H659 0.950 . S
C679 C675 1.385 1_655 S
C679 C678 1.374 . S
C680 C677 1.499 . S
C680 C681 1.392 . S
C680 C682 1.389 . S
C681 H660 0.928 1_655 S
C681 C680 1.392 . S
C681 C697 1.381 . S
C682 C680 1.389 . S
C682 C683 1.524 . S
C682 C696 1.377 . S
C683 C682 1.524 . S
C683 C684 1.397 . S
C683 C688 1.363 . S
C684 H661 0.950 . S
C684 C683 1.397 . S
C684 C685 1.334 . S
C685 H662 0.950 . S
C685 C684 1.334 . S
C685 C686 1.287 . S
C686 C685 1.287 . S
C686 C687 1.524 . S
C686 H705 0.913 1_554 S
C687 H663 0.950 1_554 S
C687 C686 1.524 . S
C687 C688 1.415 . S
C688 H664 0.950 . S
C688 C683 1.363 . S
C688 C687 1.415 . S
C689 H665 0.951 . S
C689 C690 1.366 . S
C689 C691 1.388 . S
C690 C689 1.366 . S
C690 C694 1.385 . S
C691 H666 0.951 . S
C691 C689 1.388 . S
C691 C692 1.366 . S
C692 C691 1.366 . S
C692 C693 1.414 . S
C692 C695 1.499 . S
C693 H667 0.950 . S
C693 C692 1.414 . S
C693 C694 1.374 . S
C694 H668 0.950 . S
C694 C690 1.385 . S
C694 C693 1.374 . S
C695 C692 1.499 . S
C695 C696 1.373 . S
C695 C697 1.389 . S
C696 H669 0.950 . S
C696 C682 1.377 . S
C696 C695 1.373 . S
C697 C681 1.381 . S
C697 C695 1.389 . S
C697 C698 1.524 1_655 S
C698 C697 1.524 1_455 S
C698 C699 1.397 . S
C698 C703 1.363 . S
C699 H670 0.950 . S
C699 C698 1.397 . S
C699 C700 1.334 . S
C700 H671 0.950 . S
C700 C699 1.334 . S
C700 C701 1.287 . S
C701 C700 1.287 . S
C701 C702 1.524 . S
C701 H704 0.999 . S
C702 H672 0.950 . S
C702 C701 1.524 . S
C702 C703 1.415 . S
C703 H673 0.950 . S
C703 C698 1.363 . S
C703 C702 1.415 . S
H704 C701 0.999 . S
H705 C686 0.913 1_556 S
H706 C724 0.951 . S
H707 C726 0.951 . S
H708 C728 0.950 . S
H709 C729 0.950 . S
H710 C731 0.950 1_545 S
H711 C734 0.950 . S
H712 C735 0.950 . S
H713 C737 0.950 . S
H714 C738 0.950 . S
H715 C739 0.951 . S
H716 C741 0.951 . S
H717 C743 0.950 . S
H718 C744 0.950 . S
H719 C746 0.950 . S
H720 C749 0.950 . S
H721 C750 0.950 . S
H722 C752 0.950 . S
H723 C753 0.950 . S
C724 H706 0.951 . S
C724 C725 1.366 . S
C724 C726 1.388 . S
C725 C724 1.366 . S
C725 C729 1.385 1_545 S
C726 H707 0.951 . S
C726 C724 1.388 . S
C726 C727 1.366 1_545 S
C727 C726 1.366 1_565 S
C727 C728 1.414 . S
C727 C730 1.499 . S
C728 H708 0.950 . S
C728 C727 1.414 . S
C728 C729 1.374 . S
C729 H709 0.950 . S
C729 C725 1.385 1_565 S
C729 C728 1.374 . S
C730 C727 1.499 . S
C730 C731 1.373 . S
C730 C732 1.389 . S
C731 H710 0.950 1_565 S
C731 C730 1.373 . S
C731 C747 1.377 . S
C732 C730 1.389 . S
C732 C733 1.524 . S
C732 C746 1.377 . S
C733 C732 1.524 . S
C733 C734 1.397 . S
C733 C738 1.363 . S
C734 H711 0.950 . S
C734 C733 1.397 . S
C734 C735 1.334 . S
C735 H712 0.950 . S
C735 C734 1.334 . S
C735 C736 1.287 1_554 S
C736 C735 1.287 1_556 S
C736 C737 1.524 . S
C736 H755 0.913 . S
C737 H713 0.950 . S
C737 C736 1.524 . S
C737 C738 1.415 1_556 S
C738 H714 0.950 . S
C738 C733 1.363 . S
C738 C737 1.415 1_554 S
C739 H715 0.951 . S
C739 C740 1.366 . S
C739 C741 1.388 . S
C740 C739 1.366 . S
C740 C744 1.385 . S
C741 H716 0.951 . S
C741 C739 1.388 . S
C741 C742 1.366 . S
C742 C741 1.366 . S
C742 C743 1.414 . S
C742 C745 1.499 . S
C743 H717 0.950 . S
C743 C742 1.414 . S
C743 C744 1.374 . S
C744 H718 0.950 . S
C744 C740 1.385 . S
C744 C743 1.374 . S
C745 C742 1.499 . S
C745 C746 1.373 . S
C745 C747 1.389 . S
C746 H719 0.950 . S
C746 C732 1.377 . S
C746 C745 1.373 . S
C747 C731 1.377 . S
C747 C745 1.389 . S
C747 C748 1.524 1_565 S
C748 C747 1.524 1_545 S
C748 C749 1.397 . S
C748 C753 1.363 1_545 S
C749 H720 0.950 . S
C749 C748 1.397 . S
C749 C750 1.334 . S
C750 H721 0.950 . S
C750 C749 1.334 . S
C750 C751 1.287 . S
C751 C750 1.287 . S
C751 C752 1.524 . S
C751 H754 0.999 . S
C752 H722 0.950 . S
C752 C751 1.524 . S
C752 C753 1.415 1_545 S
C753 H723 0.950 . S
C753 C748 1.363 1_565 S
C753 C752 1.415 1_565 S
H754 C751 0.999 . S
H755 C736 0.913 . S
H756 C774 0.951 . S
H757 C776 0.951 . S
H758 C778 0.950 . S
H759 C779 0.950 . S
H760 C781 0.950 . S
H761 C784 0.950 . S
H762 C785 0.950 . S
H763 C787 0.950 . S
H764 C788 0.950 . S
H765 C789 0.951 . S
H766 C791 0.951 . S
H767 C793 0.950 . S
H768 C794 0.950 . S
H769 C796 0.950 . S
H770 C799 0.950 . S
H771 C800 0.950 . S
H772 C802 0.950 . S
H773 C803 0.950 . S
C774 H756 0.951 . S
C774 C775 1.366 . S
C774 C776 1.388 . S
C775 C774 1.366 . S
C775 C779 1.385 . S
C776 H757 0.951 . S
C776 C774 1.388 . S
C776 C777 1.366 . S
C777 C776 1.366 . S
C777 C778 1.414 . S
C777 C780 1.499 . S
C778 H758 0.950 . S
C778 C777 1.414 . S
C778 C779 1.374 . S
C779 H759 0.950 . S
C779 C775 1.385 . S
C779 C778 1.374 . S
C780 C777 1.499 . S
C780 C781 1.373 . S
C780 C782 1.389 . S
C781 H760 0.950 . S
C781 C780 1.373 . S
C781 C797 1.377 . S
C782 C780 1.389 . S
C782 C783 1.524 . S
C782 C796 1.377 . S
C783 C782 1.524 . S
C783 C784 1.397 . S
C783 C788 1.363 . S
C784 H761 0.950 . S
C784 C783 1.397 . S
C784 C785 1.334 1_554 S
C785 H762 0.950 . S
C785 C784 1.334 1_556 S
C785 C786 1.287 . S
C786 C785 1.287 . S
C786 C787 1.524 . S
C786 H805 0.913 . S
C787 H763 0.950 . S
C787 C786 1.524 . S
C787 C788 1.415 1_556 S
C788 H764 0.950 . S
C788 C783 1.363 . S
C788 C787 1.415 1_554 S
C789 H765 0.951 . S
C789 C790 1.366 . S
C789 C791 1.388 . S
C790 C789 1.366 . S
C790 C794 1.385 . S
C791 H766 0.951 . S
C791 C789 1.388 . S
C791 C792 1.366 . S
C792 C791 1.366 . S
C792 C793 1.414 . S
C792 C795 1.499 . S
C793 H767 0.950 . S
C793 C792 1.414 . S
C793 C794 1.374 . S
C794 H768 0.950 . S
C794 C790 1.385 . S
C794 C793 1.374 . S
C795 C792 1.499 . S
C795 C796 1.373 . S
C795 C797 1.389 . S
C796 H769 0.950 . S
C796 C782 1.377 . S
C796 C795 1.373 . S
C797 C781 1.377 . S
C797 C795 1.389 . S
C797 C798 1.524 . S
C798 C797 1.524 . S
C798 C799 1.397 . S
C798 C803 1.363 . S
C799 H770 0.950 . S
C799 C798 1.397 . S
C799 C800 1.334 . S
C800 H771 0.950 . S
C800 C799 1.334 . S
C800 C801 1.287 . S
C801 C800 1.287 . S
C801 C802 1.524 . S
C801 H804 0.999 . S
C802 H772 0.950 . S
C802 C801 1.524 . S
C802 C803 1.415 . S
C803 H773 0.950 . S
C803 C798 1.363 . S
C803 C802 1.415 . S
H804 C801 0.999 . S
H805 C786 0.913 . S
H806 C824 0.951 . S
H807 C826 0.951 . S
H808 C828 0.950 . S
H809 C829 0.950 . S
H810 C831 0.950 . S
H811 C834 0.950 . S
H812 C835 0.950 . S
H813 C837 0.950 . S
H814 C838 0.950 . S
H815 C839 0.951 . S
H816 C841 0.951 . S
H817 C843 0.950 . S
H818 C844 0.950 . S
H819 C846 0.950 . S
H820 C849 0.950 . S
H821 C850 0.950 . S
H822 C852 0.950 . S
H823 C853 0.950 . S
C824 H806 0.951 . S
C824 C825 1.366 . S
C824 C826 1.388 . S
C825 C824 1.366 . S
C825 C829 1.385 . S
C826 H807 0.951 . S
C826 C824 1.388 . S
C826 C827 1.366 . S
C827 C826 1.366 . S
C827 C828 1.414 . S
C827 C830 1.499 . S
C828 H808 0.950 . S
C828 C827 1.414 . S
C828 C829 1.374 . S
C829 H809 0.950 . S
C829 C825 1.385 . S
C829 C828 1.374 . S
C830 C827 1.499 . S
C830 C831 1.373 . S
C830 C832 1.389 . S
C831 H810 0.950 . S
C831 C830 1.373 . S
C831 C847 1.377 . S
C832 C830 1.389 . S
C832 C833 1.524 . S
C832 C846 1.377 . S
C833 C832 1.524 . S
C833 C834 1.397 . S
C833 C838 1.363 . S
C834 H811 0.950 . S
C834 C833 1.397 . S
C834 C835 1.334 . S
C835 H812 0.950 . S
C835 C834 1.334 . S
C835 C836 1.287 . S
C836 C835 1.287 . S
C836 C837 1.524 . S
C836 H855 0.913 . S
C837 H813 0.950 . S
C837 C836 1.524 . S
C837 C838 1.415 . S
C838 H814 0.950 . S
C838 C833 1.363 . S
C838 C837 1.415 . S
C839 H815 0.951 . S
C839 C840 1.366 . S
C839 C841 1.388 . S
C840 C839 1.366 . S
C840 C844 1.385 . S
C841 H816 0.951 . S
C841 C839 1.388 . S
C841 C842 1.366 . S
C842 C841 1.366 . S
C842 C843 1.414 . S
C842 C845 1.499 . S
C843 H817 0.950 . S
C843 C842 1.414 . S
C843 C844 1.374 . S
C844 H818 0.950 . S
C844 C840 1.385 . S
C844 C843 1.374 . S
C845 C842 1.499 . S
C845 C846 1.373 . S
C845 C847 1.389 . S
C846 H819 0.950 . S
C846 C832 1.377 . S
C846 C845 1.373 . S
C847 C831 1.377 . S
C847 C845 1.389 . S
C847 C848 1.524 . S
C848 C847 1.524 . S
C848 C849 1.397 . S
C848 C853 1.363 . S
C849 H820 0.950 . S
C849 C848 1.397 . S
C849 C850 1.334 . S
C850 H821 0.950 . S
C850 C849 1.334 . S
C850 C851 1.287 . S
C851 C850 1.287 . S
C851 C852 1.524 . S
C851 H854 0.999 . S
C852 H822 0.950 . S
C852 C851 1.524 . S
C852 C853 1.415 . S
C853 H823 0.950 . S
C853 C848 1.363 . S
C853 C852 1.415 . S
H854 C851 0.999 . S
H855 C836 0.913 . S
H856 C874 0.951 . S
H857 C876 0.951 . S
H858 C878 0.950 . S
H859 C879 0.950 . S
H860 C881 0.950 . S
H861 C884 0.950 . S
H862 C885 0.950 . S
H863 C887 0.950 . S
H864 C888 0.950 . S
H865 C889 0.951 1_655 S
H866 C891 0.951 1_655 S
H867 C893 0.950 . S
H868 C894 0.950 . S
H869 C896 0.950 . S
H870 C899 0.950 1_455 S
H871 C900 0.950 . S
H872 C902 0.950 . S
H873 C903 0.950 . S
C874 H856 0.951 . S
C874 C875 1.366 1_455 S
C874 C876 1.388 . S
C875 C874 1.366 1_655 S
C875 C879 1.385 . S
C876 H857 0.951 . S
C876 C874 1.388 . S
C876 C877 1.366 . S
C877 C876 1.366 . S
C877 C878 1.414 1_455 S
C877 C880 1.499 . S
C878 H858 0.950 . S
C878 C877 1.414 1_655 S
C878 C879 1.374 . S
C879 H859 0.950 . S
C879 C875 1.385 . S
C879 C878 1.374 . S
C880 C877 1.499 . S
C880 C881 1.373 1_455 S
C880 C882 1.389 . S
C881 H860 0.950 . S
C881 C880 1.373 1_655 S
C881 C897 1.378 1_655 S
C882 C880 1.389 . S
C882 C883 1.524 . S
C882 C896 1.377 . S
C883 C882 1.524 . S
C883 C884 1.397 . S
C883 C888 1.363 . S
C884 H861 0.950 . S
C884 C883 1.397 . S
C884 C885 1.334 . S
C885 H862 0.950 . S
C885 C884 1.334 . S
C885 C886 1.287 . S
C886 C885 1.287 . S
C886 C887 1.524 . S
C886 H905 0.913 . S
C887 H863 0.950 . S
C887 C886 1.524 . S
C887 C888 1.415 . S
C888 H864 0.950 . S
C888 C883 1.363 . S
C888 C887 1.415 . S
C889 H865 0.951 1_455 S
C889 C890 1.366 1_554 S
C889 C891 1.388 . S
C890 C889 1.366 1_556 S
C890 C894 1.385 . S
C891 H866 0.951 1_455 S
C891 C889 1.388 . S
C891 C892 1.366 . S
C892 C891 1.366 . S
C892 C893 1.414 . S
C892 C895 1.499 . S
C893 H867 0.950 . S
C893 C892 1.414 . S
C893 C894 1.374 1_554 S
C894 H868 0.950 . S
C894 C890 1.385 . S
C894 C893 1.374 1_556 S
C895 C892 1.499 . S
C895 C896 1.373 . S
C895 C897 1.385 . S
C896 H869 0.950 . S
C896 C882 1.377 . S
C896 C895 1.373 . S
C897 C881 1.378 1_455 S
C897 C895 1.385 . S
C897 C898 1.528 1_455 S
C898 C897 1.528 1_655 S
C898 C899 1.397 1_554 S
C898 C903 1.363 . S
C899 H870 0.950 1_655 S
C899 C898 1.397 1_556 S
C899 C900 1.334 . S
C900 H871 0.950 . S
C900 C899 1.334 . S
C900 C901 1.287 . S
C901 C900 1.287 . S
C901 C902 1.524 . S
C901 H904 0.999 . S
C902 H872 0.950 . S
C902 C901 1.524 . S
C902 C903 1.415 1_556 S
C903 H873 0.950 . S
C903 C898 1.363 . S
C903 C902 1.415 1_554 S
H904 C901 0.999 . S
H905 C886 0.913 . S
H906 C924 0.951 . S
H907 C926 0.951 . S
H908 C928 0.950 . S
H909 C929 0.950 . S
H910 C931 0.950 . S
H911 C934 0.950 . S
H912 C935 0.950 . S
H913 C937 0.950 . S
H914 C938 0.950 . S
H915 C939 0.951 . S
H916 C941 0.951 . S
H917 C943 0.950 1_565 S
H918 C944 0.950 . S
H919 C946 0.950 . S
H920 C949 0.950 1_565 S
H921 C950 0.950 1_565 S
H922 C952 0.950 . S
H923 C953 0.950 . S
C924 H906 0.951 . S
C924 C925 1.366 . S
C924 C926 1.388 . S
C925 C924 1.366 . S
C925 C929 1.385 1_565 S
C926 H907 0.951 . S
C926 C924 1.388 . S
C926 C927 1.366 1_565 S
C927 C926 1.366 1_545 S
C927 C928 1.414 . S
C927 C930 1.499 . S
C928 H908 0.950 . S
C928 C927 1.414 . S
C928 C929 1.374 . S
C929 H909 0.950 . S
C929 C925 1.385 1_545 S
C929 C928 1.374 . S
C930 C927 1.499 . S
C930 C931 1.373 . S
C930 C932 1.389 . S
C931 H910 0.950 . S
C931 C930 1.373 . S
C931 C947 1.377 . S
C932 C930 1.389 . S
C932 C933 1.524 . S
C932 C946 1.377 . S
C933 C932 1.524 . S
C933 C934 1.397 . S
C933 C938 1.363 1_544 S
C934 H911 0.950 . S
C934 C933 1.397 . S
C934 C935 1.334 . S
C935 H912 0.950 . S
C935 C934 1.334 . S
C935 C936 1.287 1_554 S
C936 C935 1.287 1_556 S
C936 C937 1.524 1_545 S
C936 H955 0.913 . S
C937 H913 0.950 . S
C937 C936 1.524 1_565 S
C937 C938 1.415 . S
C938 H914 0.950 . S
C938 C933 1.363 1_566 S
C938 C937 1.415 . S
C939 H915 0.951 . S
C939 C940 1.366 1_554 S
C939 C941 1.388 . S
C940 C939 1.366 1_556 S
C940 C944 1.385 . S
C941 H916 0.951 . S
C941 C939 1.388 . S
C941 C942 1.366 . S
C942 C941 1.366 . S
C942 C943 1.414 1_554 S
C942 C945 1.499 . S
C943 H917 0.950 1_545 S
C943 C942 1.414 1_556 S
C943 C944 1.374 . S
C944 H918 0.950 . S
C944 C940 1.385 . S
C944 C943 1.374 . S
C945 C942 1.499 . S
C945 C946 1.373 . S
C945 C947 1.389 . S
C946 H919 0.950 . S
C946 C932 1.377 . S
C946 C945 1.373 . S
C947 C931 1.377 . S
C947 C945 1.389 . S
C947 C948 1.524 . S
C948 C947 1.524 . S
C948 C949 1.397 . S
C948 C953 1.363 . S
C949 H920 0.950 1_545 S
C949 C948 1.397 . S
C949 C950 1.334 . S
C950 H921 0.950 1_545 S
C950 C949 1.334 . S
C950 C951 1.287 . S
C951 C950 1.287 . S
C951 C952 1.524 . S
C951 H954 0.999 . S
C952 H922 0.950 . S
C952 C951 1.524 . S
C952 C953 1.415 . S
C953 H923 0.950 . S
C953 C948 1.363 . S
C953 C952 1.415 . S
H954 C951 0.999 . S
H955 C936 0.913 . S
H956 C974 0.951 . S
H957 C976 0.951 . S
H958 C978 0.950 . S
H959 C979 0.950 . S
H960 C981 0.950 . S
H961 C984 0.950 . S
H962 C985 0.950 . S
H963 C987 0.950 . S
H964 C988 0.950 . S
H965 C989 0.951 . S
H966 C991 0.951 . S
H967 C993 0.950 . S
H968 C994 0.950 . S
H969 C996 0.950 . S
H970 C999 0.950 . S
H971 C1000 0.950 . S
H972 C1002 0.950 . S
H973 C1003 0.953 . S
C974 H956 0.951 . S
C974 C975 1.366 . S
C974 C976 1.388 . S
C975 C974 1.366 . S
C975 C979 1.385 . S
C976 H957 0.951 . S
C976 C974 1.388 . S
C976 C977 1.366 . S
C977 C976 1.366 . S
C977 C978 1.414 . S
C977 C980 1.499 . S
C978 H958 0.950 . S
C978 C977 1.414 . S
C978 C979 1.374 . S
C979 H959 0.950 . S
C979 C975 1.385 . S
C979 C978 1.374 . S
C980 C977 1.499 . S
C980 C981 1.373 . S
C980 C982 1.389 . S
C981 H960 0.950 . S
C981 C980 1.373 . S
C981 C997 1.377 . S
C982 C980 1.389 . S
C982 C983 1.524 . S
C982 C996 1.377 . S
C983 C982 1.524 . S
C983 C984 1.397 . S
C983 C988 1.363 . S
C984 H961 0.950 . S
C984 C983 1.397 . S
C984 C985 1.334 . S
C985 H962 0.950 . S
C985 C984 1.334 . S
C985 C986 1.287 . S
C986 C985 1.287 . S
C986 C987 1.524 . S
C986 H1005 0.913 . S
C987 H963 0.950 . S
C987 C986 1.524 . S
C987 C988 1.415 . S
C988 H964 0.950 . S
C988 C983 1.363 . S
C988 C987 1.415 . S
C989 H965 0.951 . S
C989 C990 1.366 . S
C989 C991 1.388 . S
C990 C989 1.366 . S
C990 C994 1.385 1_556 S
C991 H966 0.951 . S
C991 C989 1.388 . S
C991 C992 1.366 1_556 S
C992 C991 1.366 1_554 S
C992 C993 1.414 . S
C992 C995 1.499 . S
C993 H967 0.950 . S
C993 C992 1.414 . S
C993 C994 1.374 . S
C994 H968 0.950 . S
C994 C990 1.385 1_554 S
C994 C993 1.374 . S
C995 C992 1.499 . S
C995 C996 1.373 . S
C995 C997 1.389 . S
C996 H969 0.950 . S
C996 C982 1.377 . S
C996 C995 1.373 . S
C997 C981 1.377 . S
C997 C995 1.389 . S
C997 C998 1.524 . S
C998 C997 1.524 . S
C998 C999 1.397 . S
C998 C1003 1.363 . S
C999 H970 0.950 . S
C999 C998 1.397 . S
C999 C1000 1.334 . S
C1000 H971 0.950 . S
C1000 C999 1.334 . S
C1000 C1001 1.287 . S
C1001 C1000 1.287 . S
C1001 C1002 1.524 1_554 S
C1001 H1004 0.999 1_554 S
C1002 H972 0.950 . S
C1002 C1001 1.524 1_556 S
C1002 C1003 1.415 1_556 S
C1003 H973 0.953 . S
C1003 C998 1.363 . S
C1003 C1002 1.415 1_554 S
H1004 C1001 0.999 1_556 S
H1005 C986 0.913 . S
H1006 C1024 0.951 . S
H1007 C1026 0.951 . S
H1008 C1028 0.950 . S
H1009 C1029 0.950 . S
H1010 C1031 0.950 . S
H1011 C1034 0.950 . S
H1012 C1035 0.950 . S
H1013 C1037 0.950 . S
H1014 C1038 0.950 . S
H1015 C1039 0.951 . S
H1016 C1041 0.951 . S
H1017 C1043 0.950 . S
H1018 C1044 0.950 . S
H1019 C1046 0.950 . S
H1020 C1049 0.950 1_554 S
H1021 C1050 0.950 . S
H1022 C1052 0.950 . S
H1023 C1053 0.950 . S
C1024 H1006 0.951 . S
C1024 C1025 1.366 . S
C1024 C1026 1.388 . S
C1025 C1024 1.366 . S
C1025 C1029 1.385 . S
C1026 H1007 0.951 . S
C1026 C1024 1.388 . S
C1026 C1027 1.366 . S
C1027 C1026 1.366 . S
C1027 C1028 1.414 . S
C1027 C1030 1.499 . S
C1028 H1008 0.950 . S
C1028 C1027 1.414 . S
C1028 C1029 1.374 . S
C1029 H1009 0.950 . S
C1029 C1025 1.385 . S
C1029 C1028 1.374 . S
C1030 C1027 1.499 . S
C1030 C1031 1.373 . S
C1030 C1032 1.389 . S
C1031 H1010 0.950 . S
C1031 C1030 1.373 . S
C1031 C1047 1.377 . S
C1032 C1030 1.389 . S
C1032 C1033 1.524 . S
C1032 C1046 1.377 . S
C1033 C1032 1.524 . S
C1033 C1034 1.397 . S
C1033 C1038 1.363 . S
C1034 H1011 0.950 . S
C1034 C1033 1.397 . S
C1034 C1035 1.334 . S
C1035 H1012 0.950 . S
C1035 C1034 1.334 . S
C1035 C1036 1.287 . S
C1036 C1035 1.287 . S
C1036 C1037 1.524 . S
C1036 H1055 0.913 . S
C1037 H1013 0.950 . S
C1037 C1036 1.524 . S
C1037 C1038 1.415 . S
C1038 H1014 0.950 . S
C1038 C1033 1.363 . S
C1038 C1037 1.415 . S
C1039 H1015 0.951 . S
C1039 C1040 1.366 . S
C1039 C1041 1.388 . S
C1040 C1039 1.366 . S
C1040 C1044 1.385 1_556 S
C1041 H1016 0.951 . S
C1041 C1039 1.388 . S
C1041 C1042 1.366 1_556 S
C1042 C1041 1.366 1_554 S
C1042 C1043 1.414 . S
C1042 C1045 1.499 . S
C1043 H1017 0.950 . S
C1043 C1042 1.414 . S
C1043 C1044 1.374 . S
C1044 H1018 0.950 . S
C1044 C1040 1.385 1_554 S
C1044 C1043 1.374 . S
C1045 C1042 1.499 . S
C1045 C1046 1.373 . S
C1045 C1047 1.389 . S
C1046 H1019 0.950 . S
C1046 C1032 1.377 . S
C1046 C1045 1.373 . S
C1047 C1031 1.377 . S
C1047 C1045 1.389 . S
C1047 C1048 1.524 1_554 S
C1048 C1047 1.524 1_556 S
C1048 C1049 1.397 . S
C1048 C1053 1.363 . S
C1049 H1020 0.950 1_556 S
C1049 C1048 1.397 . S
C1049 C1050 1.334 . S
C1050 H1021 0.950 . S
C1050 C1049 1.334 . S
C1050 C1051 1.287 . S
C1051 C1050 1.287 . S
C1051 C1052 1.524 . S
C1051 H1054 0.999 . S
C1052 H1022 0.950 . S
C1052 C1051 1.524 . S
C1052 C1053 1.415 . S
C1053 H1023 0.950 . S
C1053 C1048 1.363 . S
C1053 C1052 1.415 . S
H1054 C1051 0.999 . S
H1055 C1036 0.913 . S
H1056 C1074 0.951 . S
H1057 C1076 0.951 . S
H1058 C1078 0.950 . S
H1059 C1079 0.950 . S
H1060 C1081 0.950 . S
H1061 C1084 0.950 . S
H1062 C1085 0.950 . S
H1063 C1087 0.950 . S
H1064 C1088 0.950 . S
H1065 C1089 0.951 . S
H1066 C1091 0.951 . S
H1067 C1093 0.950 . S
H1068 C1094 0.950 . S
H1069 C1096 0.950 . S
H1070 C1099 0.950 . S
H1071 C1100 0.950 . S
H1072 C1102 0.950 . S
H1073 C1103 0.950 . S
C1074 H1056 0.951 . S
C1074 C1075 1.366 1_655 S
C1074 C1076 1.388 . S
C1075 C1074 1.366 1_455 S
C1075 C1079 1.385 . S
C1076 H1057 0.951 . S
C1076 C1074 1.388 . S
C1076 C1077 1.366 1_655 S
C1077 C1076 1.366 1_455 S
C1077 C1078 1.414 . S
C1077 C1080 1.499 . S
C1078 H1058 0.950 . S
C1078 C1077 1.414 . S
C1078 C1079 1.374 . S
C1079 H1059 0.950 . S
C1079 C1075 1.385 . S
C1079 C1078 1.374 . S
C1080 C1077 1.499 . S
C1080 C1081 1.373 . S
C1080 C1082 1.389 1_455 S
C1081 H1060 0.950 . S
C1081 C1080 1.373 . S
C1081 C1097 1.377 . S
C1082 C1080 1.389 1_655 S
C1082 C1083 1.524 . S
C1082 C1096 1.377 . S
C1083 C1082 1.524 . S
C1083 C1084 1.397 . S
C1083 C1088 1.363 . S
C1084 H1061 0.950 . S
C1084 C1083 1.397 . S
C1084 C1085 1.334 1_556 S
C1085 H1062 0.950 . S
C1085 C1084 1.334 1_554 S
C1085 C1086 1.287 1_554 S
C1086 C1085 1.287 1_556 S
C1086 C1087 1.524 . S
C1086 H1105 0.913 1_556 S
C1087 H1063 0.950 . S
C1087 C1086 1.524 . S
C1087 C1088 1.415 . S
C1088 H1064 0.950 . S
C1088 C1083 1.363 . S
C1088 C1087 1.415 . S
C1089 H1065 0.951 . S
C1089 C1090 1.366 . S
C1089 C1091 1.388 . S
C1090 C1089 1.366 . S
C1090 C1094 1.385 1_455 S
C1091 H1066 0.951 . S
C1091 C1089 1.388 . S
C1091 C1092 1.366 . S
C1092 C1091 1.366 . S
C1092 C1093 1.414 1_455 S
C1092 C1095 1.499 . S
C1093 H1067 0.950 . S
C1093 C1092 1.414 1_655 S
C1093 C1094 1.374 . S
C1094 H1068 0.950 . S
C1094 C1090 1.385 1_655 S
C1094 C1093 1.374 . S
C1095 C1092 1.499 . S
C1095 C1096 1.373 1_455 S
C1095 C1097 1.389 . S
C1096 H1069 0.950 . S
C1096 C1082 1.377 . S
C1096 C1095 1.373 1_655 S
C1097 C1081 1.377 . S
C1097 C1095 1.389 . S
C1097 C1098 1.524 . S
C1098 C1097 1.524 . S
C1098 C1099 1.397 . S
C1098 C1103 1.363 . S
C1099 H1070 0.950 . S
C1099 C1098 1.397 . S
C1099 C1100 1.334 . S
C1100 H1071 0.950 . S
C1100 C1099 1.334 . S
C1100 C1101 1.287 . S
C1101 C1100 1.287 . S
C1101 C1102 1.524 . S
C1101 H1104 0.999 . S
C1102 H1072 0.950 . S
C1102 C1101 1.524 . S
C1102 C1103 1.415 . S
C1103 H1073 0.950 . S
C1103 C1098 1.363 . S
C1103 C1102 1.415 . S
H1104 C1101 0.999 . S
H1105 C1086 0.913 1_554 S
H1106 C1124 0.951 . S
H1107 C1126 0.951 . S
H1108 C1128 0.950 . S
H1109 C1129 0.950 . S
H1110 C1131 0.950 . S
H1111 C1134 0.950 . S
H1112 C1135 0.950 . S
H1113 C1137 0.950 . S
H1114 C1138 0.950 . S
H1115 C1139 0.951 . S
H1116 C1141 0.951 . S
H1117 C1143 0.950 . S
H1118 C1144 0.950 . S
H1119 C1146 0.950 . S
H1120 C1149 0.950 . S
H1121 C1150 0.950 . S
H1122 C1152 0.950 . S
H1123 C1153 0.950 . S
C1124 H1106 0.951 . S
C1124 C1125 1.366 . S
C1124 C1126 1.388 . S
C1125 C1124 1.366 . S
C1125 C1129 1.385 1_545 S
C1126 H1107 0.951 . S
C1126 C1124 1.388 . S
C1126 C1127 1.366 . S
C1127 C1126 1.366 . S
C1127 C1128 1.414 1_545 S
C1127 C1130 1.499 . S
C1128 H1108 0.950 . S
C1128 C1127 1.414 1_565 S
C1128 C1129 1.374 . S
C1129 H1109 0.950 . S
C1129 C1125 1.385 1_565 S
C1129 C1128 1.374 . S
C1130 C1127 1.499 . S
C1130 C1131 1.373 1_545 S
C1130 C1132 1.389 . S
C1131 H1110 0.950 . S
C1131 C1130 1.373 1_565 S
C1131 C1147 1.377 . S
C1132 C1130 1.389 . S
C1132 C1133 1.524 . S
C1132 C1146 1.377 . S
C1133 C1132 1.524 . S
C1133 C1134 1.397 . S
C1133 C1138 1.363 . S
C1134 H1111 0.950 . S
C1134 C1133 1.397 . S
C1134 C1135 1.334 . S
C1135 H1112 0.950 . S
C1135 C1134 1.334 . S
C1135 C1136 1.287 . S
C1136 C1135 1.287 . S
C1136 C1137 1.524 . S
C1136 H1155 0.913 . S
C1137 H1113 0.950 . S
C1137 C1136 1.524 . S
C1137 C1138 1.415 . S
C1138 H1114 0.950 . S
C1138 C1133 1.363 . S
C1138 C1137 1.415 . S
C1139 H1115 0.951 . S
C1139 C1140 1.366 1_565 S
C1139 C1141 1.388 . S
C1140 C1139 1.366 1_545 S
C1140 C1144 1.385 . S
C1141 H1116 0.951 . S
C1141 C1139 1.388 . S
C1141 C1142 1.366 1_565 S
C1142 C1141 1.366 1_545 S
C1142 C1143 1.414 . S
C1142 C1145 1.499 . S
C1143 H1117 0.950 . S
C1143 C1142 1.414 . S
C1143 C1144 1.374 . S
C1144 H1118 0.950 . S
C1144 C1140 1.385 . S
C1144 C1143 1.374 . S
C1145 C1142 1.499 . S
C1145 C1146 1.373 . S
C1145 C1147 1.389 1_545 S
C1146 H1119 0.950 . S
C1146 C1132 1.377 . S
C1146 C1145 1.373 . S
C1147 C1131 1.377 . S
C1147 C1145 1.389 1_565 S
C1147 C1148 1.524 . S
C1148 C1147 1.524 . S
C1148 C1149 1.397 . S
C1148 C1153 1.363 . S
C1149 H1120 0.950 . S
C1149 C1148 1.397 . S
C1149 C1150 1.334 . S
C1150 H1121 0.950 . S
C1150 C1149 1.334 . S
C1150 C1151 1.287 . S
C1151 C1150 1.287 . S
C1151 C1152 1.524 . S
C1151 H1154 0.999 . S
C1152 H1122 0.950 . S
C1152 C1151 1.524 . S
C1152 C1153 1.415 . S
C1153 H1123 0.950 . S
C1153 C1148 1.363 . S
C1153 C1152 1.415 . S
H1154 C1151 0.999 . S
H1155 C1136 0.913 . S
H1156 C1174 0.951 . S
H1157 C1176 0.951 . S
H1158 C1178 0.950 . S
H1159 C1179 0.950 . S
H1160 C1181 0.950 . S
H1161 C1184 0.950 . S
H1162 C1185 0.950 . S
H1163 C1187 0.950 . S
H1164 C1188 0.950 . S
H1165 C1189 0.951 . S
H1166 C1191 0.951 . S
H1167 C1193 0.950 . S
H1168 C1194 0.950 . S
H1169 C1196 0.950 . S
H1170 C1199 0.950 . S
H1171 C1200 0.950 . S
H1172 C1202 0.950 . S
H1173 C1203 0.950 . S
C1174 H1156 0.951 . S
C1174 C1175 1.366 . S
C1174 C1176 1.388 . S
C1175 C1174 1.366 . S
C1175 C1179 1.385 . S
C1176 H1157 0.951 . S
C1176 C1174 1.388 . S
C1176 C1177 1.366 . S
C1177 C1176 1.366 . S
C1177 C1178 1.414 . S
C1177 C1180 1.499 . S
C1178 H1158 0.950 . S
C1178 C1177 1.414 . S
C1178 C1179 1.374 . S
C1179 H1159 0.950 . S
C1179 C1175 1.385 . S
C1179 C1178 1.374 . S
C1180 C1177 1.499 . S
C1180 C1181 1.373 . S
C1180 C1182 1.389 . S
C1181 H1160 0.950 . S
C1181 C1180 1.373 . S
C1181 C1197 1.377 . S
C1182 C1180 1.389 . S
C1182 C1183 1.524 . S
C1182 C1196 1.377 . S
C1183 C1182 1.524 . S
C1183 C1184 1.397 . S
C1183 C1188 1.363 . S
C1184 H1161 0.950 . S
C1184 C1183 1.397 . S
C1184 C1185 1.334 . S
C1185 H1162 0.950 . S
C1185 C1184 1.334 . S
C1185 C1186 1.287 . S
C1186 C1185 1.287 . S
C1186 C1187 1.524 . S
C1186 H1205 0.913 . S
C1187 H1163 0.950 . S
C1187 C1186 1.524 . S
C1187 C1188 1.415 . S
C1188 H1164 0.950 . S
C1188 C1183 1.363 . S
C1188 C1187 1.415 . S
C1189 H1165 0.951 . S
C1189 C1190 1.366 . S
C1189 C1191 1.388 . S
C1190 C1189 1.366 . S
C1190 C1194 1.385 . S
C1191 H1166 0.951 . S
C1191 C1189 1.388 . S
C1191 C1192 1.366 . S
C1192 C1191 1.366 . S
C1192 C1193 1.414 . S
C1192 C1195 1.499 . S
C1193 H1167 0.950 . S
C1193 C1192 1.414 . S
C1193 C1194 1.374 . S
C1194 H1168 0.950 . S
C1194 C1190 1.385 . S
C1194 C1193 1.374 . S
C1195 C1192 1.499 . S
C1195 C1196 1.373 . S
C1195 C1197 1.389 . S
C1196 H1169 0.950 . S
C1196 C1182 1.377 . S
C1196 C1195 1.373 . S
C1197 C1181 1.377 . S
C1197 C1195 1.389 . S
C1197 C1198 1.524 . S
C1198 C1197 1.524 . S
C1198 C1199 1.397 . S
C1198 C1203 1.363 . S
C1199 H1170 0.950 . S
C1199 C1198 1.397 . S
C1199 C1200 1.334 . S
C1200 H1171 0.950 . S
C1200 C1199 1.334 . S
C1200 C1201 1.287 . S
C1201 C1200 1.287 . S
C1201 C1202 1.524 . S
C1201 H1204 0.999 . S
C1202 H1172 0.950 . S
C1202 C1201 1.524 . S
C1202 C1203 1.415 . S
C1203 H1173 0.950 . S
C1203 C1198 1.363 . S
C1203 C1202 1.415 . S
H1204 C1201 0.999 . S
H1205 C1186 0.913 . S
H1206 C1224 0.951 . S
H1207 C1226 0.951 . S
H1208 C1228 0.950 . S
H1209 C1229 0.950 1_554 S
H1210 C1231 0.950 . S
H1211 C1234 0.950 . S
H1212 C1235 0.950 . S
H1213 C1237 0.950 . S
H1214 C1238 0.950 . S
H1215 C1239 0.951 . S
H1216 C1241 0.951 . S
H1217 C1243 0.950 . S
H1218 C1244 0.950 . S
H1219 C1246 0.950 . S
H1220 C1249 0.950 . S
H1221 C1250 0.950 . S
H1222 C1252 0.949 1_554 S
H1223 C1253 0.950 1_554 S
C1224 H1206 0.951 . S
C1224 C1225 1.366 . S
C1224 C1226 1.388 . S
C1225 C1224 1.366 . S
C1225 C1229 1.385 . S
C1226 H1207 0.951 . S
C1226 C1224 1.388 . S
C1226 C1227 1.366 . S
C1227 C1226 1.366 . S
C1227 C1228 1.414 . S
C1227 C1230 1.499 . S
C1228 H1208 0.950 . S
C1228 C1227 1.414 . S
C1228 C1229 1.374 . S
C1229 H1209 0.950 1_556 S
C1229 C1225 1.385 . S
C1229 C1228 1.374 . S
C1230 C1227 1.499 . S
C1230 C1231 1.373 . S
C1230 C1232 1.389 . S
C1231 H1210 0.950 . S
C1231 C1230 1.373 . S
C1231 C1247 1.377 . S
C1232 C1230 1.389 . S
C1232 C1233 1.524 . S
C1232 C1246 1.377 . S
C1233 C1232 1.524 . S
C1233 C1234 1.397 . S
C1233 C1238 1.363 . S
C1234 H1211 0.950 . S
C1234 C1233 1.397 . S
C1234 C1235 1.334 . S
C1235 H1212 0.950 . S
C1235 C1234 1.334 . S
C1235 C1236 1.287 . S
C1236 C1235 1.287 . S
C1236 C1237 1.524 . S
C1236 H1255 0.913 . S
C1237 H1213 0.950 . S
C1237 C1236 1.524 . S
C1237 C1238 1.415 . S
C1238 H1214 0.950 . S
C1238 C1233 1.363 . S
C1238 C1237 1.415 . S
C1239 H1215 0.951 . S
C1239 C1240 1.366 . S
C1239 C1241 1.388 . S
C1240 C1239 1.366 . S
C1240 C1244 1.385 . S
C1241 H1216 0.951 . S
C1241 C1239 1.388 . S
C1241 C1242 1.366 . S
C1242 C1241 1.366 . S
C1242 C1243 1.414 . S
C1242 C1245 1.499 . S
C1243 H1217 0.950 . S
C1243 C1242 1.414 . S
C1243 C1244 1.374 . S
C1244 H1218 0.950 . S
C1244 C1240 1.385 . S
C1244 C1243 1.374 . S
C1245 C1242 1.499 . S
C1245 C1246 1.373 . S
C1245 C1247 1.389 . S
C1246 H1219 0.950 . S
C1246 C1232 1.377 . S
C1246 C1245 1.373 . S
C1247 C1231 1.377 . S
C1247 C1245 1.389 . S
C1247 C1248 1.524 . S
C1248 C1247 1.524 . S
C1248 C1249 1.397 . S
C1248 C1253 1.363 . S
C1249 H1220 0.950 . S
C1249 C1248 1.397 . S
C1249 C1250 1.334 . S
C1250 H1221 0.950 . S
C1250 C1249 1.334 . S
C1250 C1251 1.287 . S
C1251 C1250 1.287 . S
C1251 C1252 1.524 . S
C1251 H1254 0.999 . S
C1252 H1222 0.949 1_556 S
C1252 C1251 1.524 . S
C1252 C1253 1.415 . S
C1253 H1223 0.950 1_556 S
C1253 C1248 1.363 . S
C1253 C1252 1.415 . S
H1254 C1251 0.999 . S
H1255 C1236 0.913 . S
H1256 C1274 0.951 . S
H1257 C1276 0.951 . S
H1258 C1278 0.950 . S
H1259 C1279 0.950 . S
H1260 C1281 0.950 . S
H1261 C1284 0.950 . S
H1262 C1285 0.950 . S
H1263 C1287 0.950 . S
H1264 C1288 0.950 . S
H1265 C1289 0.951 . S
H1266 C1291 0.951 . S
H1267 C1293 0.932 1_455 S
H1268 C1294 0.950 1_455 S
H1269 C1296 0.950 . S
H1270 C1299 0.950 . S
H1271 C1300 0.950 . S
H1272 C1302 0.950 . S
H1273 C1303 0.950 . S
C1274 H1256 0.951 . S
C1274 C1275 1.366 1_455 S
C1274 C1276 1.388 . S
C1275 C1274 1.366 1_655 S
C1275 C1279 1.385 . S
C1276 H1257 0.951 . S
C1276 C1274 1.388 . S
C1276 C1277 1.366 1_455 S
C1277 C1276 1.366 1_655 S
C1277 C1278 1.414 . S
C1277 C1280 1.499 . S
C1278 H1258 0.950 . S
C1278 C1277 1.414 . S
C1278 C1279 1.374 . S
C1279 H1259 0.950 . S
C1279 C1275 1.385 . S
C1279 C1278 1.374 . S
C1280 C1277 1.499 . S
C1280 C1281 1.373 . S
C1280 C1282 1.389 1_655 S
C1281 H1260 0.950 . S
C1281 C1280 1.373 . S
C1281 C1297 1.377 . S
C1282 C1280 1.389 1_455 S
C1282 C1283 1.524 . S
C1282 C1296 1.377 . S
C1283 C1282 1.524 . S
C1283 C1284 1.397 . S
C1283 C1288 1.363 . S
C1284 H1261 0.950 . S
C1284 C1283 1.397 . S
C1284 C1285 1.334 . S
C1285 H1262 0.950 . S
C1285 C1284 1.334 . S
C1285 C1286 1.287 . S
C1286 C1285 1.287 . S
C1286 C1287 1.524 . S
C1286 H1305 0.913 . S
C1287 H1263 0.950 . S
C1287 C1286 1.524 . S
C1287 C1288 1.415 . S
C1288 H1264 0.950 . S
C1288 C1283 1.363 . S
C1288 C1287 1.415 . S
C1289 H1265 0.951 . S
C1289 C1290 1.366 . S
C1289 C1291 1.388 . S
C1290 C1289 1.366 . S
C1290 C1294 1.385 . S
C1291 H1266 0.951 . S
C1291 C1289 1.388 . S
C1291 C1292 1.366 . S
C1292 C1291 1.366 . S
C1292 C1293 1.432 . S
C1292 C1295 1.499 . S
C1293 H1267 0.932 1_655 S
C1293 C1292 1.432 . S
C1293 C1294 1.377 . S
C1294 H1268 0.950 1_655 S
C1294 C1290 1.385 . S
C1294 C1293 1.377 . S
C1295 C1292 1.499 . S
C1295 C1296 1.373 1_655 S
C1295 C1297 1.389 . S
C1296 H1269 0.950 . S
C1296 C1282 1.377 . S
C1296 C1295 1.373 1_455 S
C1297 C1281 1.377 . S
C1297 C1295 1.389 . S
C1297 C1298 1.524 . S
C1298 C1297 1.524 . S
C1298 C1299 1.397 . S
C1298 C1303 1.363 . S
C1299 H1270 0.950 . S
C1299 C1298 1.397 . S
C1299 C1300 1.334 . S
C1300 H1271 0.950 . S
C1300 C1299 1.334 . S
C1300 C1301 1.287 . S
C1301 C1300 1.287 . S
C1301 C1302 1.524 . S
C1301 H1304 0.999 . S
C1302 H1272 0.950 . S
C1302 C1301 1.524 . S
C1302 C1303 1.415 . S
C1303 H1273 0.950 . S
C1303 C1298 1.363 . S
C1303 C1302 1.415 . S
H1304 C1301 0.999 . S
H1305 C1286 0.913 . S
H1306 C1324 0.951 . S
H1307 C1326 0.951 . S
H1308 C1328 0.950 . S
H1309 C1329 0.950 . S
H1310 C1331 0.950 . S
H1311 C1334 0.950 . S
H1312 C1335 0.950 . S
H1313 C1337 0.950 . S
H1314 C1338 0.950 . S
H1315 C1339 0.951 . S
H1316 C1341 0.951 . S
H1317 C1343 0.950 . S
H1318 C1344 0.948 1_545 S
H1319 C1346 0.950 . S
H1320 C1349 0.950 . S
H1321 C1350 0.950 . S
H1322 C1352 0.950 . S
H1323 C1353 0.950 1_565 S
C1324 H1306 0.951 . S
C1324 C1325 1.366 1_545 S
C1324 C1326 1.388 . S
C1325 C1324 1.366 1_565 S
C1325 C1329 1.385 . S
C1326 H1307 0.951 . S
C1326 C1324 1.388 . S
C1326 C1327 1.366 1_545 S
C1327 C1326 1.366 1_565 S
C1327 C1328 1.414 . S
C1327 C1330 1.499 . S
C1328 H1308 0.950 . S
C1328 C1327 1.414 . S
C1328 C1329 1.374 . S
C1329 H1309 0.950 . S
C1329 C1325 1.385 . S
C1329 C1328 1.374 . S
C1330 C1327 1.499 . S
C1330 C1331 1.373 1_565 S
C1330 C1332 1.389 . S
C1331 H1310 0.950 . S
C1331 C1330 1.373 1_545 S
C1331 C1347 1.377 . S
C1332 C1330 1.389 . S
C1332 C1333 1.524 . S
C1332 C1346 1.377 . S
C1333 C1332 1.524 . S
C1333 C1334 1.397 . S
C1333 C1338 1.363 . S
C1334 H1311 0.950 . S
C1334 C1333 1.397 . S
C1334 C1335 1.334 . S
C1335 H1312 0.950 . S
C1335 C1334 1.334 . S
C1335 C1336 1.287 . S
C1336 C1335 1.287 . S
C1336 C1337 1.524 . S
C1336 H1355 0.913 . S
C1337 H1313 0.950 . S
C1337 C1336 1.524 . S
C1337 C1338 1.415 . S
C1338 H1314 0.950 . S
C1338 C1333 1.363 . S
C1338 C1337 1.415 . S
C1339 H1315 0.951 . S
C1339 C1340 1.366 . S
C1339 C1341 1.388 . S
C1340 C1339 1.366 . S
C1340 C1344 1.387 . S
C1341 H1316 0.951 . S
C1341 C1339 1.388 . S
C1341 C1342 1.366 . S
C1342 C1341 1.366 . S
C1342 C1343 1.414 1_565 S
C1342 C1345 1.499 . S
C1343 H1317 0.950 . S
C1343 C1342 1.414 1_545 S
C1343 C1344 1.373 1_545 S
C1344 H1318 0.948 1_565 S
C1344 C1340 1.387 . S
C1344 C1343 1.373 1_565 S
C1345 C1342 1.499 . S
C1345 C1346 1.373 . S
C1345 C1347 1.389 1_565 S
C1346 H1319 0.950 . S
C1346 C1332 1.377 . S
C1346 C1345 1.373 . S
C1347 C1331 1.377 . S
C1347 C1345 1.389 1_545 S
C1347 C1348 1.524 . S
C1348 C1347 1.524 . S
C1348 C1349 1.397 . S
C1348 C1353 1.363 . S
C1349 H1320 0.950 . S
C1349 C1348 1.397 . S
C1349 C1350 1.334 . S
C1350 H1321 0.950 . S
C1350 C1349 1.334 . S
C1350 C1351 1.287 . S
C1351 C1350 1.287 . S
C1351 C1352 1.524 . S
C1351 H1354 0.999 . S
C1352 H1322 0.950 . S
C1352 C1351 1.524 . S
C1352 C1353 1.415 . S
C1353 H1323 0.950 1_545 S
C1353 C1348 1.363 . S
C1353 C1352 1.415 . S
H1354 C1351 0.999 . S
H1355 C1336 0.913 . S
H1356 C1374 0.951 . S
H1357 C1376 0.951 . S
H1358 C1378 0.950 . S
H1359 C1379 0.950 . S
H1360 C1381 0.950 . S
H1361 C1384 0.950 . S
H1362 C1385 0.950 . S
H1363 C1387 0.950 . S
H1364 C1388 0.950 . S
H1365 C1389 0.951 . S
H1366 C1391 0.951 . S
H1367 C1393 0.950 . S
H1368 C1394 0.950 . S
H1369 C1396 0.950 . S
H1370 C1399 0.950 . S
H1371 C1400 0.950 . S
H1372 C1402 0.950 . S
H1373 C1403 0.950 . S
C1374 H1356 0.951 . S
C1374 C1375 1.366 . S
C1374 C1376 1.388 . S
C1375 C1374 1.366 . S
C1375 C1379 1.385 . S
C1376 H1357 0.951 . S
C1376 C1374 1.388 . S
C1376 C1377 1.366 . S
C1377 C1376 1.366 . S
C1377 C1378 1.414 . S
C1377 C1380 1.499 . S
C1378 H1358 0.950 . S
C1378 C1377 1.414 . S
C1378 C1379 1.374 . S
C1379 H1359 0.950 . S
C1379 C1375 1.385 . S
C1379 C1378 1.374 . S
C1380 C1377 1.499 . S
C1380 C1381 1.373 . S
C1380 C1382 1.389 . S
C1381 H1360 0.950 . S
C1381 C1380 1.373 . S
C1381 C1397 1.377 . S
C1382 C1380 1.389 . S
C1382 C1383 1.524 . S
C1382 C1396 1.377 . S
C1383 C1382 1.524 . S
C1383 C1384 1.397 . S
C1383 C1388 1.363 . S
C1384 H1361 0.950 . S
C1384 C1383 1.397 . S
C1384 C1385 1.334 . S
C1385 H1362 0.950 . S
C1385 C1384 1.334 . S
C1385 C1386 1.287 . S
C1386 C1385 1.287 . S
C1386 C1387 1.524 . S
C1386 H1405 0.913 . S
C1387 H1363 0.950 . S
C1387 C1386 1.524 . S
C1387 C1388 1.415 . S
C1388 H1364 0.950 . S
C1388 C1383 1.363 . S
C1388 C1387 1.415 . S
C1389 H1365 0.951 . S
C1389 C1390 1.366 . S
C1389 C1391 1.388 . S
C1390 C1389 1.366 . S
C1390 C1394 1.385 . S
C1391 H1366 0.951 . S
C1391 C1389 1.388 . S
C1391 C1392 1.366 . S
C1392 C1391 1.366 . S
C1392 C1393 1.414 . S
C1392 C1395 1.499 . S
C1393 H1367 0.950 . S
C1393 C1392 1.414 . S
C1393 C1394 1.374 . S
C1394 H1368 0.950 . S
C1394 C1390 1.385 . S
C1394 C1393 1.374 . S
C1395 C1392 1.499 . S
C1395 C1396 1.373 . S
C1395 C1397 1.389 . S
C1396 H1369 0.950 . S
C1396 C1382 1.377 . S
C1396 C1395 1.373 . S
C1397 C1381 1.377 . S
C1397 C1395 1.389 . S
C1397 C1398 1.524 . S
C1398 C1397 1.524 . S
C1398 C1399 1.397 . S
C1398 C1403 1.363 . S
C1399 H1370 0.950 . S
C1399 C1398 1.397 . S
C1399 C1400 1.334 . S
C1400 H1371 0.950 . S
C1400 C1399 1.334 . S
C1400 C1401 1.287 . S
C1401 C1400 1.287 . S
C1401 C1402 1.524 . S
C1401 H1404 0.999 . S
C1402 H1372 0.950 . S
C1402 C1401 1.524 . S
C1402 C1403 1.415 . S
C1403 H1373 0.950 . S
C1403 C1398 1.363 . S
C1403 C1402 1.415 . S
H1404 C1401 0.999 . S
H1405 C1386 0.913 . S
H1406 C1424 0.951 . S
H1407 C1426 0.951 . S
H1408 C1428 0.950 . S
H1409 C1429 0.950 . S
H1410 C1431 0.950 . S
H1411 C1434 0.950 . S
H1412 C1435 0.950 . S
H1413 C1437 0.950 . S
H1414 C1438 0.950 . S
H1415 C1439 0.951 . S
H1416 C1441 0.951 . S
H1417 C1443 0.950 . S
H1418 C1444 0.950 . S
H1419 C1446 0.950 . S
H1420 C1449 0.950 . S
H1421 C1450 0.950 . S
H1422 C1452 0.950 . S
H1423 C1453 0.950 . S
C1424 H1406 0.951 . S
C1424 C1425 1.366 . S
C1424 C1426 1.388 . S
C1425 C1424 1.366 . S
C1425 C1429 1.385 . S
C1426 H1407 0.951 . S
C1426 C1424 1.388 . S
C1426 C1427 1.366 . S
C1427 C1426 1.366 . S
C1427 C1428 1.414 . S
C1427 C1430 1.499 . S
C1428 H1408 0.950 . S
C1428 C1427 1.414 . S
C1428 C1429 1.374 . S
C1429 H1409 0.950 . S
C1429 C1425 1.385 . S
C1429 C1428 1.374 . S
C1430 C1427 1.499 . S
C1430 C1431 1.373 . S
C1430 C1432 1.389 . S
C1431 H1410 0.950 . S
C1431 C1430 1.373 . S
C1431 C1447 1.377 . S
C1432 C1430 1.389 . S
C1432 C1433 1.524 . S
C1432 C1446 1.377 . S
C1433 C1432 1.524 . S
C1433 C1434 1.397 . S
C1433 C1438 1.363 . S
C1434 H1411 0.950 . S
C1434 C1433 1.397 . S
C1434 C1435 1.334 . S
C1435 H1412 0.950 . S
C1435 C1434 1.334 . S
C1435 C1436 1.287 . S
C1436 C1435 1.287 . S
C1436 C1437 1.524 . S
C1436 H1455 0.913 . S
C1437 H1413 0.950 . S
C1437 C1436 1.524 . S
C1437 C1438 1.415 . S
C1438 H1414 0.950 . S
C1438 C1433 1.363 . S
C1438 C1437 1.415 . S
C1439 H1415 0.951 . S
C1439 C1440 1.366 . S
C1439 C1441 1.388 . S
C1440 C1439 1.366 . S
C1440 C1444 1.385 . S
C1441 H1416 0.951 . S
C1441 C1439 1.388 . S
C1441 C1442 1.366 . S
C1442 C1441 1.366 . S
C1442 C1443 1.414 . S
C1442 C1445 1.499 . S
C1443 H1417 0.950 . S
C1443 C1442 1.414 . S
C1443 C1444 1.374 . S
C1444 H1418 0.950 . S
C1444 C1440 1.385 . S
C1444 C1443 1.374 . S
C1445 C1442 1.499 . S
C1445 C1446 1.373 . S
C1445 C1447 1.389 . S
C1446 H1419 0.950 . S
C1446 C1432 1.377 . S
C1446 C1445 1.373 . S
C1447 C1431 1.377 . S
C1447 C1445 1.389 . S
C1447 C1448 1.524 . S
C1448 C1447 1.524 . S
C1448 C1449 1.397 . S
C1448 C1453 1.363 . S
C1449 H1420 0.950 . S
C1449 C1448 1.397 . S
C1449 C1450 1.334 . S
C1450 H1421 0.950 . S
C1450 C1449 1.334 . S
C1450 C1451 1.287 . S
C1451 C1450 1.287 . S
C1451 C1452 1.524 . S
C1451 H1454 0.999 . S
C1452 H1422 0.950 . S
C1452 C1451 1.524 . S
C1452 C1453 1.415 . S
C1453 H1423 0.950 . S
C1453 C1448 1.363 . S
C1453 C1452 1.415 . S
H1454 C1451 0.999 . S
H1455 C1436 0.913 . S
C275 C76 1.726 . S
C290 C105 1.820 1_545 S
C340 C145 1.824 . S
C325 C88 1.724 . S
C390 C185 1.824 . S
C375 C52 1.726 . S
C440 C225 1.820 1_455 S
C425 C64 1.726 1_455 S
C490 C114 1.823 1_565 S
C475 C28 1.727 . S
C525 C40 1.725 . S
C540 C154 1.824 . S
C575 C4 1.725 . S
C590 C194 1.823 . S
C625 C16 1.727 . S
C640 C234 1.825 1_655 S
C690 C111 0.315 . S
C675 C69 0.384 . S
C740 C151 0.314 . S
C725 C81 0.371 . S
C790 C191 0.314 . S
C775 C93 0.371 . S
C825 C57 0.370 . S
C840 C231 0.311 . S
C875 C21 0.386 1_655 S
C890 C102 0.314 . S
C940 C142 0.313 . S
C925 C33 0.380 . S
C990 C182 0.311 . S
C975 C45 0.383 . S
C1025 C9 0.385 . S
C1040 C222 0.312 . S
C1075 C66 1.877 . S
C1090 C115 2.062 . S
C1125 C78 1.877 . S
C1140 C155 2.064 . S
C1190 C195 2.064 . S
C1175 C90 1.878 . S
C1240 C235 2.063 . S
C1225 C54 1.876 . S
C1275 C18 1.880 1_655 S
C1290 C106 2.065 . S
C1340 C146 2.063 . S
C1325 C30 1.879 1_565 S
C1390 C186 2.063 . S
C1375 C42 1.880 . S
C1425 C6 1.881 . S
C1440 C226 2.064 . S
