# Generated by pormake.
# Topology zzz, (3,6)-cn, num edge types: 1
# Building blocks:
#     Node 0, Type 0, BuildingBlock: ESEHIV_clean_linker_0, # of connection points: 3
#     Node 1, Type 0, BuildingBlock: ESEHIV_clean_linker_0, # of connection points: 3
#     Node 2, Type 0, BuildingBlock: ESEHIV_clean_linker_0, # of connection points: 3
#     Node 3, Type 0, BuildingBlock: ESEHIV_clean_linker_0, # of connection points: 3
#     Node 4, Type 0, BuildingBlock: ESEHIV_clean_linker_0, # of connection points: 3
#     Node 5, Type 0, BuildingBlock: ESEHIV_clean_linker_0, # of connection points: 3
#     Node 6, Type 0, BuildingBlock: ESEHIV_clean_linker_0, # of connection points: 3
#     Node 7, Type 0, BuildingBlock: ESEHIV_clean_linker_0, # of connection points: 3
#     Node 8, Type 1, BuildingBlock: PAMTOO_clean_sbu_0, # of connection points: 6
#     Node 9, Type 1, BuildingBlock: PAMTOO_clean_sbu_0, # of connection points: 6
#     Node 10, Type 1, BuildingBlock: PAMTOO_clean_sbu_0, # of connection points: 6
#     Node 11, Type 1, BuildingBlock: PAMTOO_clean_sbu_0, # of connection points: 6
#     Edge 12, Type (0, 1), BuildingBlock: OJICUG_clean_linker_0, # of connection points: 2
#     Edge 13, Type (0, 1), BuildingBlock: OJICUG_clean_linker_0, # of connection points: 2
#     Edge 14, Type (0, 1), BuildingBlock: OJICUG_clean_linker_0, # of connection points: 2
#     Edge 15, Type (0, 1), BuildingBlock: OJICUG_clean_linker_0, # of connection points: 2
#     Edge 16, Type (0, 1), BuildingBlock: OJICUG_clean_linker_0, # of connection points: 2
#     Edge 17, Type (0, 1), BuildingBlock: OJICUG_clean_linker_0, # of connection points: 2
#     Edge 18, Type (0, 1), BuildingBlock: OJICUG_clean_linker_0, # of connection points: 2
#     Edge 19, Type (0, 1), BuildingBlock: OJICUG_clean_linker_0, # of connection points: 2
#     Edge 20, Type (0, 1), BuildingBlock: OJICUG_clean_linker_0, # of connection points: 2
#     Edge 21, Type (0, 1), BuildingBlock: OJICUG_clean_linker_0, # of connection points: 2
#     Edge 22, Type (0, 1), BuildingBlock: OJICUG_clean_linker_0, # of connection points: 2
#     Edge 23, Type (0, 1), BuildingBlock: OJICUG_clean_linker_0, # of connection points: 2
#     Edge 24, Type (0, 1), BuildingBlock: OJICUG_clean_linker_0, # of connection points: 2
#     Edge 25, Type (0, 1), BuildingBlock: OJICUG_clean_linker_0, # of connection points: 2
#     Edge 26, Type (0, 1), BuildingBlock: OJICUG_clean_linker_0, # of connection points: 2
#     Edge 27, Type (0, 1), BuildingBlock: OJICUG_clean_linker_0, # of connection points: 2
#     Edge 28, Type (0, 1), BuildingBlock: OJICUG_clean_linker_0, # of connection points: 2
#     Edge 29, Type (0, 1), BuildingBlock: OJICUG_clean_linker_0, # of connection points: 2
#     Edge 30, Type (0, 1), BuildingBlock: OJICUG_clean_linker_0, # of connection points: 2
#     Edge 31, Type (0, 1), BuildingBlock: OJICUG_clean_linker_0, # of connection points: 2
#     Edge 32, Type (0, 1), BuildingBlock: OJICUG_clean_linker_0, # of connection points: 2
#     Edge 33, Type (0, 1), BuildingBlock: OJICUG_clean_linker_0, # of connection points: 2
#     Edge 34, Type (0, 1), BuildingBlock: OJICUG_clean_linker_0, # of connection points: 2
#     Edge 35, Type (0, 1), BuildingBlock: OJICUG_clean_linker_0, # of connection points: 2
# Relax obj value: 0.480
# Max RMSD: 0.309
# Mean RMSD: 0.227
data_MOF--net-zzz--node1-PAMTOO_clean_sbu_0--node2-ESEHIV_clean_linker_0--edge1-OJICUG_clean_linker_0
_symmetry_space_group_name_H-M    P1
_symmetry_Int_Tables_number       1
_symmetry_cell_setting            triclinic
loop_
_symmetry_equiv_pos_as_xyz
'x, y, z'
_cell_length_a     37.107309
_cell_length_b     29.551346
_cell_length_c     11.626273
_cell_angle_alpha  92.681828
_cell_angle_beta   75.65386
_cell_angle_gamma 84.270721
loop_
_atom_site_label
_atom_site_type_symbol
_atom_site_fract_x
_atom_site_fract_y
_atom_site_fract_z
_atom_type_partial_charge
H0 H 0.86913 0.44275 0.65766 0.0
H1 H 0.76404 0.45026 0.56413 0.0
H2 H 0.79687 0.5688 0.72477 0.0
C3 C 0.84219 0.46096 0.65912 0.0
C4 C 0.83448 0.50618 0.7086 0.0
C5 C 0.81785 0.44105 0.60173 0.0
C6 C 0.78348 0.4658 0.60512 0.0
C7 C 0.77594 0.51219 0.64458 0.0
C8 C 0.80193 0.53287 0.69563 0.0
H9 H 0.93205 0.7877 0.74403 0.0
H10 H 0.91845 0.69302 0.47087 0.0
H11 H 1.0257 0.69663 0.544 0.0
C12 C 0.94266 0.75874 0.67986 0.0
C13 C 0.98087 0.74357 0.65654 0.0
C14 C 0.92207 0.7466 0.59865 0.0
C15 C 0.93518 0.70552 0.52712 0.0
C16 C 0.97282 0.68675 0.50666 0.0
C17 C 0.99605 0.70761 0.56799 0.0
H18 H 0.71274 0.1021 0.51456 0.0
H19 H 0.81729 0.10421 0.25538 0.0
H20 H 0.80176 0.99446 0.48885 0.0
C21 C 0.74178 0.08848 0.4774 0.0
C22 C 0.75495 0.04781 0.51827 0.0
C23 C 0.76343 0.10839 0.38061 0.0
C24 C 0.80028 0.08883 0.32976 0.0
C25 C 0.81469 0.04783 0.36723 0.0
C26 C 0.79169 0.02694 0.46196 0.0
H27 H 0.49953 0.67022 0.4183 0.0
H28 H 0.56092 0.78325 0.45607 0.0
H29 H 0.4971 0.78041 0.19192 0.0
C30 C 0.50677 0.70369 0.3933 0.0
C31 C 0.49476 0.72294 0.29984 0.0
C32 C 0.52938 0.7253 0.45324 0.0
C33 C 0.54222 0.76683 0.4138 0.0
C34 C 0.52991 0.7873 0.32006 0.0
C35 C 0.50603 0.76518 0.26484 0.0
H36 H 0.21805 0.61152 0.08734 0.0
H37 H 0.31851 0.59912 0.21069 0.0
H38 H 0.281 0.48066 0.06841 0.0
C39 C 0.2431 0.59188 0.09771 0.0
C40 C 0.2487 0.5453 0.05957 0.0
C41 C 0.26663 0.61149 0.15963 0.0
C42 C 0.29885 0.58439 0.16935 0.0
C43 C 0.30367 0.53705 0.14201 0.0
C44 C 0.27807 0.51723 0.08801 0.0
H45 H 0.9742 0.21233 0.32717 0.0
H46 H 0.9772 0.33353 0.54012 0.0
H47 H 0.06939 0.28781 0.2355 0.0
C48 C 0.98793 0.24199 0.34233 0.0
C49 C 1.02282 0.2469 0.2668 0.0
C50 C 0.97144 0.27281 0.44059 0.0
C51 C 0.9898 0.31008 0.46271 0.0
C52 C 1.02488 0.31641 0.38889 0.0
C53 C 0.042 0.28397 0.29154 0.0
H54 H 0.36567 0.90792 0.3011 0.0
H55 H 0.26178 0.89093 0.54761 0.0
H56 H 0.27212 0.01134 0.35045 0.0
C57 C 0.3362 0.91895 0.33982 0.0
C58 C 0.32103 0.9605 0.30847 0.0
C59 C 0.31564 0.89451 0.42899 0.0
C60 C 0.27802 0.91039 0.48084 0.0
C61 C 0.2619 0.95283 0.45645 0.0
C62 C 0.28364 0.97813 0.36882 0.0
H63 H 0.57433 0.35138 0.3876 0.0
H64 H 0.51476 0.23646 0.35098 0.0
H65 H 0.57728 0.24265 0.61812 0.0
C66 C 0.56754 0.31782 0.4132 0.0
C67 C 0.57933 0.29951 0.50813 0.0
C68 C 0.54527 0.2954 0.35348 0.0
C69 C 0.53303 0.25361 0.39353 0.0
C70 C 0.54513 0.23408 0.48893 0.0
C71 C 0.56854 0.25714 0.54403 0.0
Dy72 Dy 1.02029 1.00623 0.80624 0.0
Dy73 Dy 0.05304 0.97155 1.02021 0.0
C74 C 0.11042 0.98552 0.76444 0.0
O75 O 0.04244 0.93307 0.75654 0.0
O76 O 1.02696 0.91439 0.94666 0.0
O77 O 1.01467 0.05065 0.66863 0.0
O78 O 0.98096 0.99442 0.7021 0.0
O79 O 0.99412 1.00097 0.10919 0.0
O80 O 0.97009 0.99231 0.94917 0.0
O81 O 0.06684 0.04342 1.00898 0.0
O82 O 1.01983 0.06929 0.92504 0.0
O83 O 0.05955 0.9811 0.19916 0.0
O84 O 0.07819 0.9158 0.09903 0.0
C85 C 0.03383 0.90227 0.83251 0.0
O86 O 0.08217 1.00381 0.72567 0.0
O87 O 0.10536 0.96856 0.86995 0.0
C88 C 0.95297 0.06312 0.65428 0.0
C89 C 0.90579 0.14342 0.65754 0.0
C90 C 0.90927 0.12589 0.76524 0.0
C91 C 0.9332 0.08611 0.76348 0.0
C92 C 0.94454 0.07594 0.54923 0.0
C93 C 0.92061 0.1155 0.55081 0.0
C94 C 0.98644 0.03159 0.64753 0.0
C95 C 0.96518 0.99896 0.06469 0.0
C96 C 0.0448 0.07727 0.98478 0.0
C97 C 0.03758 0.91591 0.29067 0.0
C98 C 0.97195 0.87626 0.39201 0.0
C99 C 1.00496 0.84892 0.33009 0.0
C100 C 0.03742 0.86847 0.28049 0.0
C101 C 1.0056 0.94285 0.36229 0.0
C102 C 0.97308 0.92316 0.41271 0.0
C103 C 0.06641 0.9372 0.20492 0.0
H104 H 0.89746 0.14584 0.84913 0.0
H105 H 0.93905 0.07591 0.84597 0.0
H106 H 0.95934 0.05812 0.46461 0.0
H107 H 0.91837 0.12709 0.46562 0.0
H108 H 1.00551 0.81226 0.31762 0.0
H109 H 0.06158 0.8467 0.22717 0.0
H110 H 1.00475 0.97957 0.37317 0.0
H111 H 0.9484 0.94487 0.46283 0.0
Dy112 Dy 0.5348 0.97041 0.81236 0.0
Dy113 Dy 0.53642 0.05241 1.00473 0.0
C114 C 0.52309 0.0744 0.75299 0.0
O115 O 0.59528 0.97931 0.75242 0.0
O116 O 0.59685 0.03396 0.89813 0.0
O117 O 0.52759 0.94374 0.64468 0.0
O118 O 0.53379 0.89796 0.78017 0.0
O119 O 0.53528 0.98947 0.1074 0.0
O120 O 0.56063 0.93842 0.94783 0.0
O121 O 0.47609 0.04218 0.06809 0.0
O122 O 0.4749 0.98609 0.92522 0.0
O123 O 0.53883 0.08274 0.17493 0.0
O124 O 0.54328 0.1239 0.02422 0.0
C125 C 0.61368 1.00672 0.8024 0.0
O126 O 0.53908 0.03341 0.71003 0.0
O127 O 0.5101 0.08312 0.86826 0.0
C128 C 0.49012 0.88371 0.67275 0.0
C129 C 0.42513 0.84947 0.6409 0.0
C130 C 0.42408 0.89528 0.68158 0.0
C131 C 0.45629 0.91227 0.69676 0.0
C132 C 0.49071 0.83718 0.64192 0.0
C133 C 0.45856 0.82026 0.62283 0.0
C134 C 0.52448 0.90276 0.68033 0.0
C135 C 0.54997 0.94807 0.06325 0.0
C136 C 0.45808 0.01317 1.0213 0.0
C137 C 0.58352 0.13481 0.14573 0.0
C138 C 0.65213 0.15915 0.17515 0.0
C139 C 0.64823 0.11364 0.14453 0.0
C140 C 0.6143 0.1016 0.13043 0.0
C141 C 0.58766 0.18071 0.16972 0.0
C142 C 0.6216 0.19281 0.18741 0.0
C143 C 0.54795 0.12108 0.13101 0.0
H144 H 0.39886 0.91886 0.69454 0.0
H145 H 0.45496 0.94813 0.72367 0.0
H146 H 0.51624 0.81446 0.62993 0.0
H147 H 0.45994 0.78498 0.59106 0.0
H148 H 0.67102 0.08678 0.13673 0.0
H149 H 0.612 0.06608 0.10925 0.0
H150 H 0.56459 0.20688 0.17588 0.0
H151 H 0.62391 0.22805 0.2116 0.0
Dy152 Dy 0.56583 0.52989 0.9813 0.0
Dy153 Dy 0.50432 0.49318 0.83361 0.0
C154 C 0.52955 0.43626 0.04614 0.0
O155 O 0.59405 0.46575 0.87392 0.0
O156 O 0.56403 0.47837 0.7287 0.0
O157 O 0.62063 0.5444 0.99883 0.0
O158 O 0.57078 0.56738 0.13966 0.0
O159 O 0.51469 0.56075 0.76293 0.0
O160 O 0.56582 0.57718 0.83235 0.0
O161 O 0.47639 0.55773 0.93951 0.0
O162 O 0.506 0.54473 0.08514 0.0
O163 O 0.49894 0.456 0.67524 0.0
O164 O 0.44927 0.48022 0.81516 0.0
C165 C 0.58991 0.45519 0.76775 0.0
O166 O 0.55634 0.46192 0.05086 0.0
O167 O 0.50526 0.44509 0.98123 0.0
C168 C 0.62902 0.55794 0.19643 0.0
C169 C 0.6711 0.55657 0.37151 0.0
C170 C 0.63204 0.55477 0.40383 0.0
C171 C 0.61128 0.5558 0.31777 0.0
C172 C 0.66799 0.55884 0.16372 0.0
C173 C 0.68871 0.55797 0.24957 0.0
C174 C 0.60724 0.5648 0.10535 0.0
C175 C 0.54177 0.58599 0.76694 0.0
C176 C 0.48047 0.56838 0.04561 0.0
C177 C 0.44152 0.47053 0.61559 0.0
C178 C 0.40029 0.48016 0.43882 0.0
C179 C 0.43978 0.47364 0.40684 0.0
C180 C 0.46006 0.46858 0.49369 0.0
C181 C 0.40217 0.47761 0.64781 0.0
C182 C 0.3819 0.48253 0.56108 0.0
C183 C 0.4624 0.46037 0.70787 0.0
H184 H 0.61721 0.55333 0.49598 0.0
H185 H 0.58121 0.55573 0.34688 0.0
H186 H 0.68251 0.56102 0.07136 0.0
H187 H 0.71875 0.55799 0.2195 0.0
H188 H 0.45522 0.47162 0.31433 0.0
H189 H 0.49032 0.4624 0.46479 0.0
H190 H 0.3869 0.47874 0.7405 0.0
H191 H 0.35168 0.48866 0.59057 0.0
Dy192 Dy 0.05344 0.56294 0.78718 0.0
Dy193 Dy 0.03917 0.47068 0.92623 0.0
C194 C 0.06336 0.46496 0.65229 0.0
O195 O 0.99116 0.56377 0.81734 0.0
O196 O 0.98597 0.49021 0.87085 0.0
O197 O 0.07545 0.59451 0.6255 0.0
O198 O 0.04957 0.63676 0.78777 0.0
O199 O 1.0101 0.52744 0.06237 0.0
O200 O 0.04617 0.58204 0.98161 0.0
O201 O 0.0929 0.48862 0.96137 0.0
O202 O 0.11036 0.53385 0.80631 0.0
O203 O 0.03537 0.42795 0.07352 0.0
O204 O 0.02849 0.40077 0.90507 0.0
C205 C 0.97156 0.52902 0.84016 0.0
O206 O 0.0467 0.50665 0.65795 0.0
O207 O 0.07567 0.45238 0.74318 0.0
C208 C 0.10158 0.66167 0.65372 0.0
C209 C 0.16802 0.69612 0.53879 0.0
C210 C 0.16903 0.65822 0.60805 0.0
C211 C 0.13606 0.64116 0.66458 0.0
C212 C 0.10005 0.70342 0.60173 0.0
C213 C 0.13306 0.72075 0.54492 0.0
C214 C 0.06907 0.63567 0.67757 0.0
C215 C 1.02308 0.56681 0.07266 0.0
C216 C 0.11806 0.51094 0.894 0.0
C217 C 0.98768 0.38182 0.07731 0.0
C218 C 0.91769 0.36276 0.21103 0.0
C219 C 0.92165 0.40486 0.16067 0.0
C220 C 0.95636 0.41434 0.09521 0.0
C221 C 0.98358 0.33849 0.11902 0.0
C222 C 0.94863 0.329 0.18626 0.0
C223 C 1.02425 0.39478 1.01773 0.0
H224 H 0.19511 0.6381 0.60742 0.0
H225 H 0.13774 0.60942 0.70663 0.0
H226 H 0.07372 0.72096 0.59679 0.0
H227 H 0.13112 0.75094 0.49649 0.0
H228 H 0.89866 0.43202 0.17987 0.0
H229 H 0.95912 0.448 0.06353 0.0
H230 H 1.00755 0.31287 0.10305 0.0
H231 H 0.94598 0.29627 0.22338 0.0
C232 C 0.19291 0.9818 0.48695 0.0
C233 C 0.22376 0.97024 0.5341 0.0
H234 H 0.13294 0.9956 0.52202 0.0
C235 C 0.21699 0.96791 0.65847 0.0
H236 H 0.19698 0.98344 0.39179 0.0
C237 C 0.18053 0.97382 0.73255 0.0
C238 C 0.14941 0.98299 0.68536 0.0
H239 H 0.24006 0.9594 0.69824 0.0
H240 H 0.17676 0.97022 0.82695 0.0
C241 C 0.15616 0.98829 0.56182 0.0
C242 C 0.55171 0.14841 0.49183 0.0
C243 C 0.53252 0.19124 0.54002 0.0
H244 H 0.56338 0.07762 0.51992 0.0
C245 C 0.50717 0.19396 0.65278 0.0
H246 H 0.57236 0.14553 0.40709 0.0
C247 C 0.50244 0.1554 0.71852 0.0
C248 C 0.52304 0.11289 0.6735 0.0
H249 H 0.49266 0.22667 0.69332 0.0
H250 H 0.48391 0.15949 0.80731 0.0
C251 C 0.54678 0.10957 0.55734 0.0
C252 C 0.31944 0.48328 0.28724 0.0
C253 C 0.33177 0.51011 0.19176 0.0
H254 H 0.33123 0.45225 0.43884 0.0
C255 C 0.36877 0.52131 0.16832 0.0
H256 H 0.29096 0.47465 0.30883 0.0
C257 C 0.39173 0.50932 0.24415 0.0
C258 C 0.37825 0.48613 0.34654 0.0
H259 H 0.37897 0.54247 0.09631 0.0
H260 H 0.41914 0.52099 0.22635 0.0
C261 C 0.34236 0.47142 0.36355 0.0
C262 C 0.07086 0.34878 0.48598 0.0
C263 C 0.04308 0.35582 0.42372 0.0
H264 H 0.09931 0.37775 0.60632 0.0
C265 C 1.02602 0.40056 0.42338 0.0
H266 H 0.08383 0.3146 0.49018 0.0
C267 C 0.03482 0.43693 0.48993 0.0
C268 C 0.06043 0.42927 0.56027 0.0
H269 H 1.00394 0.40683 0.37811 0.0
H270 H 1.01952 0.47034 0.49291 0.0
C271 C 0.07939 0.38502 0.55362 0.0
C272 C 0.85858 0.01769 0.17207 0.0
C273 C 0.85242 0.0265 0.29599 0.0
H274 H 0.8983 1.00226 1.00294 0.0
C275 C 0.88359 0.02271 0.34471 0.0
H276 H 0.83518 0.02079 0.13159 0.0
C277 C 0.92011 0.01246 0.27027 0.0
C278 C 0.92634 1.00574 0.14547 0.0
H279 H 0.8799 0.03006 0.43934 0.0
H280 H 0.94355 0.01123 0.3102 0.0
C281 C 0.89489 1.00737 0.09806 0.0
C282 C 0.52278 0.87297 0.32194 0.0
C283 C 0.54239 0.83055 0.27198 0.0
H284 H 0.51026 0.94387 0.2964 0.0
C285 C 0.56798 0.8287 0.15997 0.0
H286 H 0.502 0.87513 0.40635 0.0
C287 C 0.57233 0.86771 0.09611 0.0
C288 C 0.55112 0.90974 0.14238 0.0
H289 H 0.58285 0.7963 0.1183 0.0
H290 H 0.59094 0.8643 1.00743 0.0
C291 C 0.52734 0.91229 0.25828 0.0
C292 C 0.70906 0.52089 0.63466 0.0
C293 C 0.74416 0.53778 0.60893 0.0
H294 H 0.65925 0.51208 0.57938 0.0
C295 C 0.75189 0.56767 0.51784 0.0
H296 H 0.70245 0.4973 0.70342 0.0
C297 C 0.72697 0.57634 0.44594 0.0
C298 C 0.69382 0.555 0.46257 0.0
H299 H 0.77878 0.58082 0.49469 0.0
H300 H 0.73479 0.59791 0.37319 0.0
C301 C 0.68434 0.52912 0.56223 0.0
C302 C 1.01997 0.66024 0.31349 0.0
C303 C 0.98868 0.65225 0.40361 0.0
H304 H 0.05503 0.6401 0.13901 0.0
C305 C 0.96999 0.61422 0.38677 0.0
H306 H 0.03465 0.68958 0.32247 0.0
C307 C 0.9817 0.58564 0.28115 0.0
C308 C 1.01204 0.59484 0.18886 0.0
H309 H 0.94571 0.60722 0.4544 0.0
H310 H 0.96624 0.55721 0.27041 0.0
C311 C 0.03137 0.63208 0.20746 0.0
C312 C 0.90916 0.24328 0.48751 0.0
C313 C 0.93805 0.26089 0.52789 0.0
H314 H 0.87166 0.19221 0.50816 0.0
C315 C 0.9407 0.25365 0.64384 0.0
H316 H 0.90565 0.24976 0.39975 0.0
C317 C 0.92151 0.22026 0.70526 0.0
C318 C 0.90042 0.1936 0.64901 0.0
H319 H 0.96197 0.26789 0.67876 0.0
H320 H 0.92923 0.20998 0.7849 0.0
C321 C 0.88957 0.21039 0.55002 0.0
C322 C 0.36978 0.83512 0.42207 0.0
C323 C 0.33614 0.86042 0.48742 0.0
H324 H 0.42602 0.81085 0.42273 0.0
C325 C 0.3284 0.86346 0.61263 0.0
H326 H 0.37594 0.83012 0.32598 0.0
C327 C 0.35671 0.85097 0.66822 0.0
C328 C 0.39301 0.83607 0.59916 0.0
H329 H 0.30264 0.88167 0.66728 0.0
H330 H 0.35176 0.85982 0.76281 0.0
C331 C 0.39839 0.82341 0.47771 0.0
C332 C 0.61921 0.36218 0.52602 0.0
C333 C 0.59683 0.32925 0.58034 0.0
H334 H 0.63409 0.43004 0.54454 0.0
C335 C 0.5831 0.33323 0.70457 0.0
H336 H 0.63136 0.35933 0.43075 0.0
C337 C 0.58614 0.37282 0.76954 0.0
C338 C 0.60274 0.40897 0.71201 0.0
H339 H 0.5657 0.30889 0.75003 0.0
H340 H 0.57071 0.37752 0.86132 0.0
C341 C 0.62123 0.40247 0.59097 0.0
C342 C 0.26228 0.65996 0.34861 0.0
C343 C 0.25255 0.65458 0.23899 0.0
H344 H 0.24317 0.68225 0.53306 0.0
C345 C 0.22179 0.6836 0.22409 0.0
H346 H 0.28664 0.64104 0.36548 0.0
C347 C 0.19568 0.70567 0.32373 0.0
C348 C 0.20108 0.70049 0.4383 0.0
H349 H 0.21501 0.6845 0.13886 0.0
H350 H 0.16919 0.72069 0.31148 0.0
C351 C 0.23697 0.68376 0.44693 0.0
C352 C 0.90899 0.78472 0.42588 0.0
C353 C 0.90135 0.78501 0.55101 0.0
H354 H 0.9418 0.81338 0.27434 0.0
C355 C 0.8961 0.82868 0.61178 0.0
H356 H 0.90773 0.75438 0.37194 0.0
C357 C 0.91697 0.86246 0.55738 0.0
C358 C 0.93746 0.8544 0.43791 0.0
H359 H 0.88443 0.83289 0.70723 0.0
H360 H 0.92066 0.89151 0.61188 0.0
C361 C 0.92905 0.81845 0.3692 0.0
C362 C 0.74982 0.13404 0.19295 0.0
C363 C 0.74413 0.14167 0.31687 0.0
H364 H 0.72419 0.13596 0.04747 0.0
C365 C 0.71279 0.17158 0.38038 0.0
H366 H 0.77379 0.11195 0.13991 0.0
C367 C 0.68381 0.1845 0.32715 0.0
C368 C 0.68656 0.16846 0.20947 0.0
H369 H 0.70833 0.17975 0.47503 0.0
H370 H 0.65755 0.20135 0.38258 0.0
C371 C 0.72121 0.1477 0.13944 0.0
C372 C 0.48924 0.69005 0.10467 0.0
C373 C 0.47601 0.69438 0.22903 0.0
H374 H 0.50014 0.64553 0.94864 0.0
C375 C 0.45297 0.66235 0.28479 0.0
H376 H 0.50698 0.71388 0.05823 0.0
C377 C 0.45015 0.62211 0.22124 0.0
C378 C 0.46831 0.61493 0.10003 0.0
H379 H 0.44114 0.6656 0.38025 0.0
H380 H 0.437 0.59506 0.26911 0.0
C381 C 0.48521 0.65061 0.04089 0.0
C382 C 0.82354 0.40037 0.40259 0.0
C383 C 0.83247 0.40084 0.51391 0.0
H384 H 0.844 0.38458 0.21488 0.0
C385 C 0.8633 0.37114 0.52466 0.0
H386 H 0.79966 0.4215 0.38892 0.0
C387 C 0.88983 0.35233 0.42251 0.0
C388 C 0.88438 0.35977 0.30962 0.0
H389 H 0.87002 0.36817 0.60967 0.0
H390 H 0.9168 0.33847 0.4317 0.0
C391 C 0.84921 0.37924 0.30121 0.0
C392 C 0.06457 0.17508 0.17929 0.0
C393 C 0.0377 0.21047 0.16814 0.0
H394 H 0.08806 0.10543 0.13033 0.0
C395 C 1.01683 0.20345 0.08407 0.0
H396 H 0.08029 0.17888 0.24553 0.0
C397 C 1.02071 0.16116 1.01929 0.0
C398 C 0.0455 0.12448 0.03708 0.0
H399 H 0.9952 0.22958 0.07554 0.0
H400 H 1.00264 0.15652 0.96048 0.0
C401 C 0.06852 0.13266 0.11432 0.0
C402 C 0.36391 0.96488 0.10652 0.0
C403 C 0.34783 0.9853 0.22227 0.0
H404 H 0.41057 0.95759 0.95264 0.0
C405 C 0.36605 0.01957 0.26463 0.0
H406 H 0.35122 0.93749 0.07232 0.0
C407 C 0.40065 0.03081 0.19645 0.0
C408 C 0.41816 1.00783 0.08416 0.0
H409 H 0.35516 0.03496 0.35459 0.0
H410 H 0.41474 0.0555 0.23527 0.0
C411 C 0.3984 0.97603 0.03843 0.0
C412 C 0.50165 0.34287 0.25765 0.0
C413 C 0.53694 0.31848 0.24987 0.0
H414 H 0.47106 0.3986 0.19534 0.0
C415 C 0.56783 0.32912 0.16211 0.0
H416 H 0.47748 0.33632 0.32626 0.0
C417 C 0.56478 0.36672 0.0955 0.0
C418 C 0.53019 0.393 0.10745 0.0
H419 H 0.59547 0.31158 0.15503 0.0
H420 H 0.5901 0.37636 0.03773 0.0
C421 C 0.49816 0.37921 0.18466 0.0
C422 C 0.19562 0.49791 0.05918 0.0
C423 C 0.2205 0.52753 1.0018 0.0
H424 H 0.14393 0.46943 0.0708 0.0
C425 C 0.21346 0.54758 0.90078 0.0
H426 H 0.19982 0.4826 0.13843 0.0
C427 C 0.18147 0.54014 0.86175 0.0
C428 C 0.15513 0.51296 0.92359 0.0
H429 H 0.23189 0.57093 0.85526 0.0
H430 H 0.17666 0.55743 0.78599 0.0
C431 C 0.16331 0.49078 1.02079 0.0
C432 C 1.02465 0.8033 0.62324 0.0
C433 C 1.00423 0.77489 0.70218 0.0
H434 H 0.04987 0.86552 0.60187 0.0
C435 C 0.9976 0.78599 0.82533 0.0
H436 H 0.02934 0.7964 0.52802 0.0
C437 C 1.0092 0.82591 0.86826 0.0
C438 C 1.02718 0.85612 0.78895 0.0
H439 H 0.98112 0.7654 0.88824 0.0
H440 H 1.00204 0.83443 0.96344 0.0
C441 C 0.03593 0.84337 0.66592 0.0
C442 C 0.70832 0.99133 0.57064 0.0
C443 C 0.72657 0.02656 0.60813 0.0
H444 H 0.65869 0.95729 0.60171 0.0
C445 C 0.7095 0.05079 0.71871 0.0
H446 H 0.72009 0.97293 0.48453 0.0
C447 C 0.674 0.04235 0.78563 0.0
C448 C 0.65427 1.00966 0.74342 0.0
H449 H 0.72233 0.07891 0.74881 0.0
H450 H 0.6611 0.06356 0.86678 0.0
C451 C 0.6727 0.98295 0.63734 0.0
C452 C 0.50516 0.69206 0.64408 0.0
C453 C 0.53667 0.70236 0.55822 0.0
H454 H 0.4818 0.64557 0.76882 0.0
C455 C 0.57174 0.67826 0.55446 0.0
H456 H 0.47767 0.70939 0.64831 0.0
C457 C 0.57443 0.6424 0.6294 0.0
C458 C 0.54185 0.62879 0.70406 0.0
H459 H 0.59642 0.68466 0.4877 0.0
H460 H 0.60141 0.62325 0.62233 0.0
C461 C 0.50747 0.65495 0.71246 0.0
C462 C 0.87329 0.49911 0.85547 0.0
C463 C 0.86327 0.5234 0.76461 0.0
H464 H 0.91485 0.48172 0.94987 0.0
C465 C 0.88713 0.55463 0.70948 0.0
H466 H 0.85583 0.47434 0.89857 0.0
C467 C 0.92135 0.55902 0.73937 0.0
C468 C 0.93264 0.53169 0.8235 0.0
H469 H 0.88074 0.57303 0.63724 0.0
H470 H 0.94007 0.58144 0.69071 0.0
C471 C 0.90745 0.50295 0.8839 0.0
loop_
_geom_bond_atom_site_label_1
_geom_bond_atom_site_label_2
_geom_bond_distance
_geom_bond_site_symmetry_2
_ccdc_geom_bond_type
H0 C3 0.931 . S
H1 C6 0.928 . S
H2 C8 0.930 . S
C3 H0 0.931 . S
C3 C4 1.413 . S
C3 C5 1.360 . S
C4 C3 1.413 . S
C4 C8 1.429 . S
C5 C3 1.360 . S
C5 C6 1.372 . S
C6 H1 0.928 . S
C6 C5 1.372 . S
C6 C7 1.404 . S
C7 C6 1.404 . S
C7 C8 1.391 . S
C8 H2 0.930 . S
C8 C4 1.429 . S
C8 C7 1.391 . S
H9 C12 0.932 . S
H10 C15 0.928 . S
H11 C17 0.928 . S
C12 H9 0.932 . S
C12 C13 1.413 . S
C12 C14 1.360 . S
C13 C12 1.413 . S
C13 C17 1.431 1_655 S
C14 C12 1.360 . S
C14 C15 1.376 . S
C15 H10 0.928 . S
C15 C14 1.376 . S
C15 C16 1.405 . S
C16 C15 1.405 . S
C16 C17 1.387 1_655 S
C17 H11 0.928 . S
C17 C13 1.431 1_455 S
C17 C16 1.387 1_455 S
H18 C21 0.930 . S
H19 C24 0.928 . S
H20 C26 0.930 . S
C21 H18 0.930 . S
C21 C22 1.413 . S
C21 C23 1.360 . S
C22 C21 1.413 . S
C22 C26 1.427 1_565 S
C23 C21 1.360 . S
C23 C24 1.369 . S
C24 H19 0.928 . S
C24 C23 1.369 . S
C24 C25 1.404 . S
C25 C24 1.404 . S
C25 C26 1.393 1_565 S
C26 H20 0.930 . S
C26 C22 1.427 1_545 S
C26 C25 1.393 1_545 S
H27 C30 0.931 . S
H28 C33 0.928 . S
H29 C35 0.930 . S
C30 H27 0.931 . S
C30 C31 1.413 . S
C30 C32 1.360 . S
C31 C30 1.413 . S
C31 C35 1.429 . S
C32 C30 1.360 . S
C32 C33 1.372 . S
C33 H28 0.928 . S
C33 C32 1.372 . S
C33 C34 1.404 . S
C34 C33 1.404 . S
C34 C35 1.391 . S
C35 H29 0.930 . S
C35 C31 1.429 . S
C35 C34 1.391 . S
H36 C39 0.931 . S
H37 C42 0.928 . S
H38 C44 0.930 . S
C39 H36 0.931 . S
C39 C40 1.413 . S
C39 C41 1.360 1_556 S
C40 C39 1.413 . S
C40 C44 1.429 . S
C41 C39 1.360 1_554 S
C41 C42 1.372 . S
C42 H37 0.928 . S
C42 C41 1.372 . S
C42 C43 1.404 . S
C43 C42 1.404 . S
C43 C44 1.391 1_554 S
C44 H38 0.930 . S
C44 C40 1.429 . S
C44 C43 1.391 1_556 S
H45 C48 0.930 . S
H46 C51 0.928 . S
H47 C53 0.930 . S
C48 H45 0.930 . S
C48 C49 1.414 . S
C48 C50 1.360 . S
C49 C48 1.414 . S
C49 C53 1.427 1_655 S
C50 C48 1.360 . S
C50 C51 1.370 . S
C51 H46 0.928 . S
C51 C50 1.370 . S
C51 C52 1.404 . S
C52 C51 1.404 . S
C52 C53 1.394 1_655 S
C53 H47 0.930 . S
C53 C49 1.427 1_455 S
C53 C52 1.394 1_455 S
H54 C57 0.931 . S
H55 C60 0.928 . S
H56 C62 0.930 . S
C57 H54 0.931 . S
C57 C58 1.413 . S
C57 C59 1.360 . S
C58 C57 1.413 . S
C58 C62 1.431 1_565 S
C59 C57 1.360 . S
C59 C60 1.374 . S
C60 H55 0.928 . S
C60 C59 1.374 . S
C60 C61 1.404 . S
C61 C60 1.404 . S
C61 C62 1.388 1_565 S
C62 H56 0.930 . S
C62 C58 1.431 1_545 S
C62 C61 1.388 1_545 S
H63 C66 0.931 . S
H64 C69 0.928 . S
H65 C71 0.930 . S
C66 H63 0.931 . S
C66 C67 1.413 . S
C66 C68 1.360 . S
C67 C66 1.413 . S
C67 C71 1.429 . S
C68 C66 1.360 . S
C68 C69 1.372 . S
C69 H64 0.928 . S
C69 C68 1.372 . S
C69 C70 1.404 . S
C70 C69 1.404 . S
C70 C71 1.391 . S
C71 H65 0.930 . S
C71 C67 1.429 . S
C71 C70 1.391 . S
Dy72 O75 2.307 1_545 S
Dy72 O77 2.395 . S
Dy72 O78 2.379 . S
Dy72 O80 2.339 . S
Dy72 O82 2.298 . S
Dy72 O86 2.275 1_655 S
Dy72 C94 2.738 . S
Dy73 O76 2.298 1_554 S
Dy73 O79 2.275 1_454 S
Dy73 O81 2.307 1_565 S
Dy73 O83 2.398 . S
Dy73 O84 2.379 . S
Dy73 O87 2.339 1_554 S
Dy73 C103 2.738 . S
C74 O86 1.254 1_565 S
C74 O87 1.257 . S
O75 Dy72 2.307 1_565 S
O75 C85 1.266 . S
O76 Dy73 2.298 1_556 S
O76 C85 1.236 1_455 S
O77 Dy72 2.395 . S
O77 C94 1.257 . S
O78 Dy72 2.379 . S
O78 C94 1.249 . S
O79 Dy73 2.275 1_656 S
O79 C95 1.254 1_565 S
O80 Dy72 2.339 . S
O80 C95 1.257 . S
O81 Dy73 2.307 1_545 S
O81 C96 1.266 1_554 S
O82 Dy72 2.298 . S
O82 C96 1.236 1_655 S
O83 Dy73 2.398 . S
O83 C103 1.264 . S
O84 Dy73 2.379 . S
O84 C103 1.249 . S
C85 O75 1.266 . S
C85 O76 1.236 1_655 S
O86 Dy72 2.275 1_455 S
O86 C74 1.254 1_545 S
O87 Dy73 2.339 1_556 S
O87 C74 1.257 . S
C88 C91 1.344 . S
C88 C92 1.328 . S
C88 C94 1.516 . S
C89 C90 1.304 . S
C89 C93 1.323 . S
C90 C89 1.304 . S
C90 C91 1.371 . S
C90 H104 0.930 1_655 S
C91 C88 1.344 . S
C91 C90 1.371 . S
C91 H105 0.931 1_655 S
C92 C88 1.328 . S
C92 C93 1.433 . S
C92 H106 0.931 . S
C93 C89 1.323 . S
C93 C92 1.433 . S
C93 H107 0.933 . S
C94 Dy72 2.738 . S
C94 O77 1.257 . S
C94 O78 1.249 . S
C94 C88 1.516 . S
C95 O79 1.254 1_545 S
C95 O80 1.257 . S
C96 O81 1.266 1_556 S
C96 O82 1.236 1_455 S
C97 C100 1.344 . S
C97 C101 1.328 . S
C97 C103 1.516 . S
C98 C99 1.304 . S
C98 C102 1.323 . S
C99 C98 1.304 . S
C99 C100 1.371 . S
C99 H108 0.930 1_455 S
C100 C97 1.344 . S
C100 C99 1.371 . S
C100 H109 0.931 1_455 S
C101 C97 1.328 . S
C101 C102 1.433 . S
C101 H110 0.931 . S
C102 C98 1.323 . S
C102 C101 1.433 . S
C102 H111 0.933 . S
C103 Dy73 2.738 . S
C103 O83 1.264 . S
C103 O84 1.249 . S
C103 C97 1.516 . S
H104 C90 0.930 1_455 S
H105 C91 0.931 1_455 S
H106 C92 0.931 . S
H107 C93 0.933 . S
H108 C99 0.930 1_655 S
H109 C100 0.931 1_655 S
H110 C101 0.931 . S
H111 C102 0.933 . S
Dy112 O115 2.307 . S
Dy112 O117 2.395 . S
Dy112 O118 2.379 . S
Dy112 O120 2.339 . S
Dy112 O122 2.298 . S
Dy112 O126 2.275 1_565 S
Dy112 C134 2.738 . S
Dy113 O116 2.298 1_554 S
Dy113 O119 2.275 1_544 S
Dy113 O121 2.307 . S
Dy113 O123 2.395 . S
Dy113 O124 2.379 . S
Dy113 O127 2.339 1_554 S
Dy113 C143 2.738 . S
C114 O126 1.254 . S
C114 O127 1.257 . S
O115 Dy112 2.307 . S
O115 C125 1.266 . S
O116 Dy113 2.298 1_556 S
O116 C125 1.236 1_545 S
O117 Dy112 2.395 . S
O117 C134 1.255 . S
O118 Dy112 2.379 . S
O118 C134 1.249 . S
O119 Dy113 2.275 1_566 S
O119 C135 1.254 . S
O120 Dy112 2.339 . S
O120 C135 1.257 . S
O121 Dy113 2.307 . S
O121 C136 1.266 1_554 S
O122 Dy112 2.298 . S
O122 C136 1.236 1_565 S
O123 Dy113 2.395 . S
O123 C143 1.255 . S
O124 Dy113 2.379 . S
O124 C143 1.249 . S
C125 O115 1.266 . S
C125 O116 1.236 1_565 S
O126 Dy112 2.275 1_545 S
O126 C114 1.254 . S
O127 Dy113 2.339 1_556 S
O127 C114 1.257 . S
C128 C131 1.344 . S
C128 C132 1.328 . S
C128 C134 1.516 . S
C129 C130 1.304 . S
C129 C133 1.323 . S
C130 C129 1.304 . S
C130 C131 1.371 . S
C130 H144 0.930 1_565 S
C131 C128 1.344 . S
C131 C130 1.371 . S
C131 H145 0.931 1_565 S
C132 C128 1.328 . S
C132 C133 1.433 . S
C132 H146 0.931 . S
C133 C129 1.323 . S
C133 C132 1.433 . S
C133 H147 0.933 . S
C134 Dy112 2.738 . S
C134 O117 1.255 . S
C134 O118 1.249 . S
C134 C128 1.516 . S
C135 O119 1.254 . S
C135 O120 1.257 . S
C136 O121 1.266 1_556 S
C136 O122 1.236 1_545 S
C137 C140 1.344 . S
C137 C141 1.328 . S
C137 C143 1.516 . S
C138 C139 1.304 . S
C138 C142 1.323 . S
C139 C138 1.304 . S
C139 C140 1.371 . S
C139 H148 0.930 1_545 S
C140 C137 1.344 . S
C140 C139 1.371 . S
C140 H149 0.931 1_545 S
C141 C137 1.328 . S
C141 C142 1.433 . S
C141 H150 0.931 . S
C142 C138 1.323 . S
C142 C141 1.433 . S
C142 H151 0.933 . S
C143 Dy113 2.738 . S
C143 O123 1.255 . S
C143 O124 1.249 . S
C143 C137 1.516 . S
H144 C130 0.930 1_545 S
H145 C131 0.931 1_545 S
H146 C132 0.931 . S
H147 C133 0.933 . S
H148 C139 0.930 1_565 S
H149 C140 0.931 1_565 S
H150 C141 0.931 . S
H151 C142 0.933 . S
Dy152 O155 2.307 . S
Dy152 O157 2.395 1_556 S
Dy152 O158 2.379 . S
Dy152 O160 2.339 . S
Dy152 O162 2.298 . S
Dy152 O166 2.275 . S
Dy152 C174 2.738 1_556 S
Dy153 O156 2.298 . S
Dy153 O159 2.275 . S
Dy153 O161 2.307 1_556 S
Dy153 O163 2.395 . S
Dy153 O164 2.379 . S
Dy153 O167 2.339 1_556 S
Dy153 C183 2.738 . S
C154 O166 1.254 1_554 S
C154 O167 1.257 . S
O155 Dy152 2.307 . S
O155 C165 1.266 . S
O156 Dy153 2.298 . S
O156 C165 1.236 . S
O157 Dy152 2.395 1_554 S
O157 C174 1.255 . S
O158 Dy152 2.379 . S
O158 C174 1.249 1_556 S
O159 Dy153 2.275 . S
O159 C175 1.254 . S
O160 Dy152 2.339 . S
O160 C175 1.257 . S
O161 Dy153 2.307 1_554 S
O161 C176 1.266 . S
O162 Dy152 2.298 . S
O162 C176 1.236 1_556 S
O163 Dy153 2.395 . S
O163 C183 1.255 . S
O164 Dy153 2.379 . S
O164 C183 1.249 . S
C165 O155 1.266 . S
C165 O156 1.236 . S
O166 Dy152 2.275 . S
O166 C154 1.254 1_556 S
O167 Dy153 2.339 1_554 S
O167 C154 1.257 . S
C168 C171 1.344 . S
C168 C172 1.328 . S
C168 C174 1.516 . S
C169 C170 1.304 . S
C169 C173 1.323 . S
C170 C169 1.304 . S
C170 C171 1.371 . S
C170 H184 0.930 . S
C171 C168 1.344 . S
C171 C170 1.371 . S
C171 H185 0.931 . S
C172 C168 1.328 . S
C172 C173 1.433 . S
C172 H186 0.931 1_554 S
C173 C169 1.323 . S
C173 C172 1.433 . S
C173 H187 0.933 . S
C174 Dy152 2.738 1_554 S
C174 O157 1.255 . S
C174 O158 1.249 1_554 S
C174 C168 1.516 . S
C175 O159 1.254 . S
C175 O160 1.257 . S
C176 O161 1.266 . S
C176 O162 1.236 1_554 S
C177 C180 1.344 . S
C177 C181 1.328 . S
C177 C183 1.516 . S
C178 C179 1.304 . S
C178 C182 1.323 . S
C179 C178 1.304 . S
C179 C180 1.371 . S
C179 H188 0.930 . S
C180 C177 1.344 . S
C180 C179 1.371 . S
C180 H189 0.931 . S
C181 C177 1.328 . S
C181 C182 1.433 . S
C181 H190 0.931 . S
C182 C178 1.323 . S
C182 C181 1.433 . S
C182 H191 0.933 . S
C183 Dy153 2.738 . S
C183 O163 1.255 . S
C183 O164 1.249 . S
C183 C177 1.516 . S
H184 C170 0.930 . S
H185 C171 0.931 . S
H186 C172 0.931 1_556 S
H187 C173 0.933 . S
H188 C179 0.930 . S
H189 C180 0.931 . S
H190 C181 0.931 . S
H191 C182 0.933 . S
Dy192 O195 2.307 1_455 S
Dy192 O197 2.395 . S
Dy192 O198 2.379 . S
Dy192 O200 2.339 . S
Dy192 O202 2.298 . S
Dy192 O206 2.275 . S
Dy192 C214 2.738 . S
Dy193 O196 2.298 1_554 S
Dy193 O199 2.275 . S
Dy193 O201 2.307 1_654 S
Dy193 O203 2.395 . S
Dy193 O204 2.379 . S
Dy193 O207 2.339 1_554 S
Dy193 C223 2.738 . S
C194 O206 1.254 1_655 S
C194 O207 1.257 . S
O195 Dy192 2.307 1_655 S
O195 C205 1.266 . S
O196 Dy193 2.298 1_556 S
O196 C205 1.236 . S
O197 Dy192 2.395 . S
O197 C214 1.255 . S
O198 Dy192 2.379 . S
O198 C214 1.249 . S
O199 Dy193 2.275 . S
O199 C215 1.254 1_655 S
O200 Dy192 2.339 . S
O200 C215 1.257 1_556 S
O201 Dy193 2.307 1_456 S
O201 C216 1.266 . S
O202 Dy192 2.298 . S
O202 C216 1.236 . S
O203 Dy193 2.395 . S
O203 C223 1.255 . S
O204 Dy193 2.379 . S
O204 C223 1.249 . S
C205 O195 1.266 . S
C205 O196 1.236 . S
O206 Dy192 2.275 . S
O206 C194 1.254 1_455 S
O207 Dy193 2.339 1_556 S
O207 C194 1.257 . S
C208 C211 1.344 . S
C208 C212 1.328 . S
C208 C214 1.516 . S
C209 C210 1.304 . S
C209 C213 1.323 . S
C210 C209 1.304 . S
C210 C211 1.371 . S
C210 H224 0.930 . S
C211 C208 1.344 . S
C211 C210 1.371 . S
C211 H225 0.931 . S
C212 C208 1.328 . S
C212 C213 1.433 . S
C212 H226 0.931 . S
C213 C209 1.323 . S
C213 C212 1.433 . S
C213 H227 0.933 . S
C214 Dy192 2.738 . S
C214 O197 1.255 . S
C214 O198 1.249 . S
C214 C208 1.516 . S
C215 O199 1.254 1_455 S
C215 O200 1.257 1_554 S
C216 O201 1.266 . S
C216 O202 1.236 . S
C217 C220 1.344 . S
C217 C221 1.328 . S
C217 C223 1.516 . S
C218 C219 1.304 . S
C218 C222 1.323 . S
C219 C218 1.304 . S
C219 C220 1.371 . S
C219 H228 0.930 . S
C220 C217 1.344 . S
C220 C219 1.371 . S
C220 H229 0.931 . S
C221 C217 1.328 . S
C221 C222 1.433 . S
C221 H230 0.931 . S
C222 C218 1.323 . S
C222 C221 1.433 . S
C222 H231 0.933 . S
C223 Dy193 2.738 . S
C223 O203 1.255 . S
C223 O204 1.249 . S
C223 C217 1.516 . S
H224 C210 0.930 . S
H225 C211 0.931 . S
H226 C212 0.931 . S
H227 C213 0.933 . S
H228 C219 0.930 . S
H229 C220 0.931 . S
H230 C221 0.931 . S
H231 C222 0.933 . S
C232 C233 1.392 . S
C232 H236 0.950 . S
C232 C241 1.390 . S
C233 C232 1.392 . S
C233 C235 1.384 1_565 S
H234 C241 0.950 . S
C235 C233 1.384 1_545 S
C235 C237 1.390 . S
C235 H239 0.950 . S
H236 C232 0.950 . S
C237 C235 1.390 . S
C237 C238 1.387 1_545 S
C237 H240 0.950 . S
C238 C237 1.387 1_565 S
C238 C241 1.387 . S
H239 C235 0.950 . S
H240 C237 0.950 . S
C241 C232 1.390 . S
C241 H234 0.950 . S
C241 C238 1.387 . S
C242 C243 1.387 . S
C242 H246 0.950 . S
C242 C251 1.390 . S
C243 C242 1.387 . S
C243 C245 1.387 . S
H244 C251 0.950 . S
C245 C243 1.387 . S
C245 C247 1.390 . S
C245 H249 0.950 . S
H246 C242 0.950 . S
C247 C245 1.390 . S
C247 C248 1.387 . S
C247 H250 0.950 . S
C248 C247 1.387 . S
C248 C251 1.387 . S
H249 C245 0.950 . S
H250 C247 0.950 . S
C251 C242 1.390 . S
C251 H244 0.950 . S
C251 C248 1.387 . S
C252 C253 1.387 . S
C252 H256 0.950 . S
C252 C261 1.390 . S
C253 C252 1.387 . S
C253 C255 1.387 . S
H254 C261 0.950 . S
C255 C253 1.387 . S
C255 C257 1.390 . S
C255 H259 0.950 . S
H256 C252 0.950 . S
C257 C255 1.390 . S
C257 C258 1.387 . S
C257 H260 0.950 . S
C258 C257 1.387 . S
C258 C261 1.387 . S
H259 C255 0.950 . S
H260 C257 0.950 . S
C261 C252 1.390 . S
C261 H254 0.950 . S
C261 C258 1.387 . S
C262 C263 1.395 . S
C262 H266 0.950 . S
C262 C271 1.390 . S
C263 C262 1.395 . S
C263 C265 1.388 1_455 S
H264 C271 0.950 . S
C265 C263 1.388 1_655 S
C265 C267 1.390 . S
C265 H269 0.950 . S
H266 C262 0.950 . S
C267 C265 1.390 . S
C267 C268 1.387 1_655 S
C267 H270 0.950 . S
C268 C267 1.387 1_455 S
C268 C271 1.387 . S
H269 C265 0.950 . S
H270 C267 0.950 . S
C271 C262 1.390 . S
C271 H264 0.950 . S
C271 C268 1.387 . S
C272 C273 1.379 1_565 S
C272 H276 0.950 . S
C272 C281 1.390 . S
C273 C272 1.379 1_545 S
C273 C275 1.398 . S
H274 C281 0.950 . S
C275 C273 1.398 . S
C275 C277 1.390 . S
C275 H279 0.950 . S
H276 C272 0.950 . S
C277 C275 1.390 . S
C277 C278 1.387 . S
C277 H280 0.950 . S
C278 C277 1.387 . S
C278 C281 1.387 1_545 S
H279 C275 0.950 . S
H280 C277 0.950 . S
C281 C272 1.390 . S
C281 H274 0.950 . S
C281 C278 1.387 1_565 S
C282 C283 1.387 . S
C282 H286 0.950 . S
C282 C291 1.390 . S
C283 C282 1.387 . S
C283 C285 1.387 . S
H284 C291 0.950 . S
C285 C283 1.387 . S
C285 C287 1.390 . S
C285 H289 0.950 . S
H286 C282 0.950 . S
C287 C285 1.390 . S
C287 C288 1.387 . S
C287 H290 0.950 . S
C288 C287 1.387 . S
C288 C291 1.387 . S
H289 C285 0.950 . S
H290 C287 0.950 . S
C291 C282 1.390 . S
C291 H284 0.950 . S
C291 C288 1.387 . S
C292 C293 1.387 . S
C292 H296 0.950 . S
C292 C301 1.390 . S
C293 C292 1.387 . S
C293 C295 1.387 . S
H294 C301 0.950 . S
C295 C293 1.387 . S
C295 C297 1.390 . S
C295 H299 0.950 . S
H296 C292 0.950 . S
C297 C295 1.390 . S
C297 C298 1.387 . S
C297 H300 0.950 . S
C298 C297 1.387 . S
C298 C301 1.387 . S
H299 C295 0.950 . S
H300 C297 0.950 . S
C301 C292 1.390 . S
C301 H294 0.950 . S
C301 C298 1.387 . S
C302 C303 1.387 1_455 S
C302 H306 0.953 . S
C302 C311 1.386 1_455 S
C303 C302 1.387 1_655 S
C303 C305 1.387 . S
H304 C311 0.949 1_455 S
C305 C303 1.387 . S
C305 C307 1.390 . S
C305 H309 0.950 . S
H306 C302 0.953 . S
C307 C305 1.390 . S
C307 C308 1.387 . S
C307 H310 0.950 . S
C308 C307 1.387 . S
C308 C311 1.390 . S
H309 C305 0.950 . S
H310 C307 0.950 . S
C311 C302 1.386 1_655 S
C311 H304 0.949 1_655 S
C311 C308 1.390 . S
C312 C313 1.387 1_655 S
C312 H316 0.950 1_655 S
C312 C321 1.390 . S
C313 C312 1.387 1_455 S
C313 C315 1.387 1_455 S
H314 C321 0.950 . S
C315 C313 1.387 1_655 S
C315 C317 1.390 . S
C315 H319 0.950 . S
H316 C312 0.950 1_455 S
C317 C315 1.390 . S
C317 C318 1.387 . S
C317 H320 0.950 . S
C318 C317 1.387 . S
C318 C321 1.387 . S
H319 C315 0.950 . S
H320 C317 0.950 . S
C321 C312 1.390 . S
C321 H314 0.950 . S
C321 C318 1.387 . S
C322 C323 1.387 . S
C322 H326 0.950 . S
C322 C331 1.390 . S
C323 C322 1.387 . S
C323 C325 1.387 . S
H324 C331 0.950 . S
C325 C323 1.387 . S
C325 C327 1.390 . S
C325 H329 0.950 1_565 S
H326 C322 0.950 . S
C327 C325 1.390 . S
C327 C328 1.387 . S
C327 H330 0.950 . S
C328 C327 1.387 . S
C328 C331 1.387 . S
H329 C325 0.950 1_545 S
H330 C327 0.950 . S
C331 C322 1.390 . S
C331 H324 0.950 . S
C331 C328 1.387 . S
C332 C333 1.387 . S
C332 H336 0.950 . S
C332 C341 1.390 . S
C333 C332 1.387 . S
C333 C335 1.387 . S
H334 C341 0.950 . S
C335 C333 1.387 . S
C335 C337 1.390 . S
C335 H339 0.950 . S
H336 C332 0.950 . S
C337 C335 1.390 . S
C337 C338 1.387 . S
C337 H340 0.950 . S
C338 C337 1.387 . S
C338 C341 1.387 . S
H339 C335 0.950 . S
H340 C337 0.950 . S
C341 C332 1.390 . S
C341 H334 0.950 . S
C341 C338 1.387 . S
C342 C343 1.387 . S
C342 H346 0.950 . S
C342 C351 1.390 . S
C343 C342 1.387 . S
C343 C345 1.387 . S
H344 C351 0.950 . S
C345 C343 1.387 . S
C345 C347 1.390 . S
C345 H349 0.950 . S
H346 C342 0.950 . S
C347 C345 1.390 . S
C347 C348 1.387 . S
C347 H350 0.950 . S
C348 C347 1.387 . S
C348 C351 1.387 . S
H349 C345 0.950 . S
H350 C347 0.950 . S
C351 C342 1.390 . S
C351 H344 0.950 . S
C351 C348 1.387 . S
C352 C353 1.387 1_455 S
C352 H356 0.950 . S
C352 C361 1.390 . S
C353 C352 1.387 1_655 S
C353 C355 1.387 1_655 S
H354 C361 0.950 . S
C355 C353 1.387 1_455 S
C355 C357 1.390 . S
C355 H359 0.950 1_455 S
H356 C352 0.950 . S
C357 C355 1.390 . S
C357 C358 1.387 . S
C357 H360 0.950 . S
C358 C357 1.387 . S
C358 C361 1.387 . S
H359 C355 0.950 1_655 S
H360 C357 0.950 . S
C361 C352 1.390 . S
C361 H354 0.950 . S
C361 C358 1.387 . S
C362 C363 1.388 . S
C362 H366 0.941 1_545 S
C362 C371 1.399 . S
C363 C362 1.388 . S
C363 C365 1.387 . S
H364 C371 0.950 . S
C365 C363 1.387 . S
C365 C367 1.390 . S
C365 H369 0.950 . S
H366 C362 0.941 1_565 S
C367 C365 1.390 . S
C367 C368 1.387 . S
C367 H370 0.950 . S
C368 C367 1.387 . S
C368 C371 1.387 . S
H369 C365 0.950 . S
H370 C367 0.950 . S
C371 C362 1.399 . S
C371 H364 0.950 . S
C371 C368 1.387 . S
C372 C373 1.387 . S
C372 H376 0.950 . S
C372 C381 1.390 . S
C373 C372 1.387 . S
C373 C375 1.387 . S
H374 C381 0.950 1_556 S
C375 C373 1.387 . S
C375 C377 1.390 . S
C375 H379 0.950 . S
H376 C372 0.950 . S
C377 C375 1.390 . S
C377 C378 1.387 . S
C377 H380 0.950 . S
C378 C377 1.387 . S
C378 C381 1.387 . S
H379 C375 0.950 . S
H380 C377 0.950 . S
C381 C372 1.390 . S
C381 H374 0.950 1_554 S
C381 C378 1.387 . S
C382 C383 1.387 . S
C382 H386 0.950 . S
C382 C391 1.390 . S
C383 C382 1.387 . S
C383 C385 1.387 . S
H384 C391 0.950 . S
C385 C383 1.387 . S
C385 C387 1.390 . S
C385 H389 0.950 . S
H386 C382 0.950 . S
C387 C385 1.390 . S
C387 C388 1.387 . S
C387 H390 0.950 . S
C388 C387 1.387 . S
C388 C391 1.387 . S
H389 C385 0.950 . S
H390 C387 0.950 . S
C391 C382 1.390 . S
C391 H384 0.950 . S
C391 C388 1.387 . S
C392 C393 1.387 1_556 S
C392 H396 0.950 . S
C392 C401 1.390 . S
C393 C392 1.387 1_554 S
C393 C395 1.387 1_455 S
H394 C401 0.950 . S
C395 C393 1.387 1_655 S
C395 C397 1.390 . S
C395 H399 0.950 . S
H396 C392 0.950 . S
C397 C395 1.390 . S
C397 C398 1.387 1_654 S
C397 H400 0.950 . S
C398 C397 1.387 1_456 S
C398 C401 1.387 . S
H399 C395 0.950 . S
H400 C397 0.950 . S
C401 C392 1.390 . S
C401 H394 0.950 . S
C401 C398 1.387 . S
C402 C403 1.387 1_566 S
C402 H406 0.950 . S
C402 C411 1.390 . S
C403 C402 1.387 1_544 S
C403 C405 1.387 . S
H404 C411 0.950 . S
C405 C403 1.387 . S
C405 C407 1.390 . S
C405 H409 0.950 . S
H406 C402 0.950 . S
C407 C405 1.390 . S
C407 C408 1.387 . S
C407 H410 0.950 . S
C408 C407 1.387 . S
C408 C411 1.387 1_544 S
H409 C405 0.950 . S
H410 C407 0.950 . S
C411 C402 1.390 . S
C411 H404 0.950 . S
C411 C408 1.387 1_566 S
C412 C413 1.387 . S
C412 H416 0.950 . S
C412 C421 1.390 . S
C413 C412 1.387 . S
C413 C415 1.387 . S
H414 C421 0.950 . S
C415 C413 1.387 . S
C415 C417 1.390 . S
C415 H419 0.950 . S
H416 C412 0.950 . S
C417 C415 1.390 . S
C417 C418 1.387 . S
C417 H420 0.950 . S
C418 C417 1.387 . S
C418 C421 1.387 . S
H419 C415 0.950 . S
H420 C417 0.950 . S
C421 C412 1.390 . S
C421 H414 0.950 . S
C421 C418 1.387 . S
C422 C423 1.387 . S
C422 H426 0.950 . S
C422 C431 1.390 . S
C423 C422 1.387 . S
C423 C425 1.387 . S
H424 C431 0.950 . S
C425 C423 1.387 . S
C425 C427 1.390 . S
C425 H429 0.950 . S
H426 C422 0.950 . S
C427 C425 1.390 . S
C427 C428 1.387 . S
C427 H430 0.950 . S
C428 C427 1.387 . S
C428 C431 1.387 . S
H429 C425 0.950 . S
H430 C427 0.950 . S
C431 C422 1.390 . S
C431 H424 0.950 . S
C431 C428 1.387 . S
C432 C433 1.387 1_455 S
C432 H436 0.950 . S
C432 C441 1.390 . S
C433 C432 1.387 1_655 S
C433 C435 1.387 . S
H434 C441 0.950 . S
C435 C433 1.387 . S
C435 C437 1.390 . S
C435 H439 0.950 . S
H436 C432 0.950 . S
C437 C435 1.390 . S
C437 C438 1.387 . S
C437 H440 0.950 . S
C438 C437 1.387 . S
C438 C441 1.387 1_655 S
H439 C435 0.950 . S
H440 C437 0.950 . S
C441 C432 1.390 . S
C441 H434 0.950 . S
C441 C438 1.387 1_455 S
C442 C443 1.387 . S
C442 H446 0.950 . S
C442 C451 1.390 . S
C443 C442 1.387 . S
C443 C445 1.387 1_565 S
H444 C451 0.950 . S
C445 C443 1.387 1_545 S
C445 C447 1.390 . S
C445 H449 0.950 . S
H446 C442 0.950 . S
C447 C445 1.390 . S
C447 C448 1.387 1_545 S
C447 H450 0.950 . S
C448 C447 1.387 1_565 S
C448 C451 1.387 . S
H449 C445 0.950 . S
H450 C447 0.950 . S
C451 C442 1.390 . S
C451 H444 0.950 . S
C451 C448 1.387 . S
C452 C453 1.387 . S
C452 H456 0.950 . S
C452 C461 1.390 . S
C453 C452 1.387 . S
C453 C455 1.387 . S
H454 C461 0.950 . S
C455 C453 1.387 . S
C455 C457 1.390 . S
C455 H459 0.950 . S
H456 C452 0.950 . S
C457 C455 1.390 . S
C457 C458 1.387 . S
C457 H460 0.950 . S
C458 C457 1.387 . S
C458 C461 1.387 . S
H459 C455 0.950 . S
H460 C457 0.950 . S
C461 C452 1.390 . S
C461 H454 0.950 . S
C461 C458 1.387 . S
C462 C463 1.387 . S
C462 H466 0.950 . S
C462 C471 1.390 . S
C463 C462 1.387 . S
C463 C465 1.387 . S
H464 C471 0.950 . S
C465 C463 1.387 . S
C465 C467 1.390 . S
C465 H469 0.950 . S
H466 C462 0.950 . S
C467 C465 1.390 . S
C467 C468 1.387 . S
C467 H470 0.950 . S
C468 C467 1.387 . S
C468 C471 1.387 . S
H469 C465 0.950 . S
H470 C467 0.950 . S
C471 C462 1.390 . S
C471 H464 0.950 . S
C471 C468 1.387 . S
C233 C61 2.075 . S
C238 C74 2.195 . S
C248 C114 2.054 . S
C243 C70 1.990 . S
C258 C178 2.135 . S
C253 C43 2.004 . S
C268 C194 1.998 1_455 S
C263 C52 1.677 1_455 S
C278 C95 2.197 1_554 S
C273 C25 2.074 1_545 S
C283 C34 1.987 . S
C288 C135 2.056 1_554 S
C293 C7 2.009 . S
C298 C169 2.135 . S
C303 C16 1.690 . S
C308 C215 1.994 1_655 S
C318 C89 0.713 . S
C313 C50 0.699 1_455 S
C328 C129 0.901 . S
C323 C59 0.926 . S
C338 C165 0.919 . S
C333 C67 0.936 . S
C343 C41 1.093 . S
C348 C209 0.990 . S
C353 C14 0.703 . S
C358 C98 0.713 . S
C368 C138 0.895 . S
C363 C23 0.924 1_545 S
C378 C176 0.921 . S
C373 C31 0.935 . S
C383 C5 1.109 . S
C388 C218 0.994 . S
C393 C49 1.931 1_455 S
C398 C96 2.245 . S
C403 C58 2.030 1_545 S
C408 C136 2.290 1_554 S
C418 C154 1.862 . S
C413 C68 1.797 . S
C428 C216 2.590 . S
C423 C40 2.243 . S
C433 C13 1.927 . S
C438 C85 2.252 . S
C448 C125 2.290 . S
C443 C22 2.030 . S
C458 C175 1.862 . S
C453 C32 1.795 . S
C463 C4 2.247 . S
C468 C205 2.594 . S
