# Generated by pormake.
# Topology ssb, (4,4)-cn, num edge types: 1
# Building blocks:
#     Node 0, Type 0, BuildingBlock: KUFVIS_clean_linker_0, # of connection points: 4
#     Node 1, Type 0, BuildingBlock: KUFVIS_clean_linker_0, # of connection points: 4
#     Node 2, Type 0, BuildingBlock: KUFVIS_clean_linker_0, # of connection points: 4
#     Node 3, Type 0, BuildingBlock: KUFVIS_clean_linker_0, # of connection points: 4
#     Node 4, Type 0, BuildingBlock: KUFVIS_clean_linker_0, # of connection points: 4
#     Node 5, Type 0, BuildingBlock: KUFVIS_clean_linker_0, # of connection points: 4
#     Node 6, Type 0, BuildingBlock: KUFVIS_clean_linker_0, # of connection points: 4
#     Node 7, Type 0, BuildingBlock: KUFVIS_clean_linker_0, # of connection points: 4
#     Node 8, Type 1, BuildingBlock: NAWXER_clean_sbu_0, # of connection points: 4
#     Node 9, Type 1, BuildingBlock: NAWXER_clean_sbu_0, # of connection points: 4
#     Node 10, Type 1, BuildingBlock: NAWXER_clean_sbu_0, # of connection points: 4
#     Node 11, Type 1, BuildingBlock: NAWXER_clean_sbu_0, # of connection points: 4
#     Node 12, Type 1, BuildingBlock: NAWXER_clean_sbu_0, # of connection points: 4
#     Node 13, Type 1, BuildingBlock: NAWXER_clean_sbu_0, # of connection points: 4
#     Node 14, Type 1, BuildingBlock: NAWXER_clean_sbu_0, # of connection points: 4
#     Node 15, Type 1, BuildingBlock: NAWXER_clean_sbu_0, # of connection points: 4
#     Edge 16, Type (0, 1), BuildingBlock: TEMPAE_clean_linker_10, # of connection points: 2
#     Edge 17, Type (0, 1), BuildingBlock: TEMPAE_clean_linker_10, # of connection points: 2
#     Edge 18, Type (0, 1), BuildingBlock: TEMPAE_clean_linker_10, # of connection points: 2
#     Edge 19, Type (0, 1), BuildingBlock: TEMPAE_clean_linker_10, # of connection points: 2
#     Edge 20, Type (0, 1), BuildingBlock: TEMPAE_clean_linker_10, # of connection points: 2
#     Edge 21, Type (0, 1), BuildingBlock: TEMPAE_clean_linker_10, # of connection points: 2
#     Edge 22, Type (0, 1), BuildingBlock: TEMPAE_clean_linker_10, # of connection points: 2
#     Edge 23, Type (0, 1), BuildingBlock: TEMPAE_clean_linker_10, # of connection points: 2
#     Edge 24, Type (0, 1), BuildingBlock: TEMPAE_clean_linker_10, # of connection points: 2
#     Edge 25, Type (0, 1), BuildingBlock: TEMPAE_clean_linker_10, # of connection points: 2
#     Edge 26, Type (0, 1), BuildingBlock: TEMPAE_clean_linker_10, # of connection points: 2
#     Edge 27, Type (0, 1), BuildingBlock: TEMPAE_clean_linker_10, # of connection points: 2
#     Edge 28, Type (0, 1), BuildingBlock: TEMPAE_clean_linker_10, # of connection points: 2
#     Edge 29, Type (0, 1), BuildingBlock: TEMPAE_clean_linker_10, # of connection points: 2
#     Edge 30, Type (0, 1), BuildingBlock: TEMPAE_clean_linker_10, # of connection points: 2
#     Edge 31, Type (0, 1), BuildingBlock: TEMPAE_clean_linker_10, # of connection points: 2
#     Edge 32, Type (0, 1), BuildingBlock: TEMPAE_clean_linker_10, # of connection points: 2
#     Edge 33, Type (0, 1), BuildingBlock: TEMPAE_clean_linker_10, # of connection points: 2
#     Edge 34, Type (0, 1), BuildingBlock: TEMPAE_clean_linker_10, # of connection points: 2
#     Edge 35, Type (0, 1), BuildingBlock: TEMPAE_clean_linker_10, # of connection points: 2
#     Edge 36, Type (0, 1), BuildingBlock: TEMPAE_clean_linker_10, # of connection points: 2
#     Edge 37, Type (0, 1), BuildingBlock: TEMPAE_clean_linker_10, # of connection points: 2
#     Edge 38, Type (0, 1), BuildingBlock: TEMPAE_clean_linker_10, # of connection points: 2
#     Edge 39, Type (0, 1), BuildingBlock: TEMPAE_clean_linker_10, # of connection points: 2
#     Edge 40, Type (0, 1), BuildingBlock: TEMPAE_clean_linker_10, # of connection points: 2
#     Edge 41, Type (0, 1), BuildingBlock: TEMPAE_clean_linker_10, # of connection points: 2
#     Edge 42, Type (0, 1), BuildingBlock: TEMPAE_clean_linker_10, # of connection points: 2
#     Edge 43, Type (0, 1), BuildingBlock: TEMPAE_clean_linker_10, # of connection points: 2
#     Edge 44, Type (0, 1), BuildingBlock: TEMPAE_clean_linker_10, # of connection points: 2
#     Edge 45, Type (0, 1), BuildingBlock: TEMPAE_clean_linker_10, # of connection points: 2
#     Edge 46, Type (0, 1), BuildingBlock: TEMPAE_clean_linker_10, # of connection points: 2
#     Edge 47, Type (0, 1), BuildingBlock: TEMPAE_clean_linker_10, # of connection points: 2
# Relax obj value: 0.000
# Max RMSD: 0.051
# Mean RMSD: 0.025
data_MOF--net-ssb--node1-NAWXER_clean_sbu_0--node2-KUFVIS_clean_linker_0--edge1-TEMPAE_clean_linker_10
_symmetry_space_group_name_H-M    P1
_symmetry_Int_Tables_number       1
_symmetry_cell_setting            triclinic
loop_
_symmetry_equiv_pos_as_xyz
'x, y, z'
_cell_length_a     46.235156
_cell_length_b     46.227821
_cell_length_c     39.661284
_cell_angle_alpha  89.997243
_cell_angle_beta   89.671336
_cell_angle_gamma 90.00578
loop_
_atom_site_label
_atom_site_type_symbol
_atom_site_fract_x
_atom_site_fract_y
_atom_site_fract_z
_atom_type_partial_charge
H0 H 0.20368 0.19178 0.34451 0.0
H1 H 0.26809 0.18937 0.26701 0.0
H2 H 0.19248 0.24488 0.25775 0.0
H3 H 0.21867 0.27135 0.22614 0.0
H4 H 0.276 0.2651 0.14182 0.0
H5 H 0.27377 0.19617 0.21371 0.0
C6 C 0.21172 0.19946 0.32034 0.0
C7 C 0.19624 0.2205 0.30297 0.0
C8 C 0.23703 0.18772 0.30693 0.0
C9 C 0.24765 0.19788 0.27582 0.0
C10 C 0.23236 0.21934 0.25734 0.0
C11 C 0.20583 0.22956 0.27109 0.0
C12 C 0.24416 0.23167 0.22465 0.0
C13 C 0.23436 0.25875 0.21228 0.0
C14 C 0.24481 0.2703 0.18176 0.0
C15 C 0.26659 0.25543 0.16424 0.0
C16 C 0.27757 0.22912 0.17622 0.0
C17 C 0.26581 0.21705 0.20584 0.0
H18 H 0.70604 0.31833 0.18704 0.0
H19 H 0.76862 0.32086 0.26559 0.0
H20 H 0.69206 0.26636 0.2743 0.0
H21 H 0.71615 0.24099 0.30842 0.0
H22 H 0.77377 0.2462 0.39177 0.0
H23 H 0.77459 0.31387 0.31833 0.0
C24 C 0.71341 0.31076 0.21145 0.0
C25 C 0.69719 0.29013 0.22879 0.0
C26 C 0.73859 0.32228 0.22514 0.0
C27 C 0.74829 0.31243 0.25663 0.0
C28 C 0.73231 0.29145 0.27524 0.0
C29 C 0.70594 0.28134 0.26105 0.0
C30 C 0.74341 0.27947 0.30841 0.0
C31 C 0.73241 0.25314 0.32168 0.0
C32 C 0.7424 0.24166 0.3523 0.0
C33 C 0.76478 0.25589 0.36925 0.0
C34 C 0.77686 0.28153 0.35661 0.0
C35 C 0.76569 0.29351 0.32672 0.0
H36 H 0.81431 0.81308 0.32924 0.0
H37 H 0.82183 0.74335 0.25911 0.0
H38 H 0.75828 0.81138 0.24379 0.0
H39 H 0.73403 0.77632 0.21806 0.0
H40 H 0.75072 0.71911 0.13544 0.0
H41 H 0.81901 0.73813 0.20426 0.0
C42 C 0.80705 0.80247 0.30636 0.0
C43 C 0.78435 0.81444 0.28813 0.0
C44 C 0.82085 0.77736 0.29549 0.0
C45 C 0.81148 0.76347 0.26607 0.0
C46 C 0.78848 0.77506 0.24676 0.0
C47 C 0.77538 0.8012 0.25802 0.0
C48 C 0.77809 0.75973 0.21549 0.0
C49 C 0.74924 0.76306 0.20417 0.0
C50 C 0.73964 0.74919 0.17472 0.0
C51 C 0.75856 0.73088 0.15723 0.0
C52 C 0.7869 0.72641 0.16818 0.0
C53 C 0.79673 0.74114 0.19693 0.0
H54 H 0.24582 0.77585 0.39661 0.0
H55 H 0.30961 0.78321 0.31851 0.0
H56 H 0.23594 0.72647 0.30601 0.0
H57 H 0.2655 0.70362 0.27069 0.0
H58 H 0.31268 0.72724 0.18176 0.0
H59 H 0.30745 0.7874 0.26349 0.0
C60 C 0.25421 0.76902 0.37231 0.0
C61 C 0.23885 0.74834 0.35363 0.0
C62 C 0.27929 0.78218 0.3594 0.0
C63 C 0.2895 0.77392 0.32738 0.0
C64 C 0.2742 0.75392 0.30724 0.0
C65 C 0.24857 0.74145 0.32081 0.0
C66 C 0.28485 0.74654 0.27217 0.0
C67 C 0.27799 0.71964 0.25707 0.0
C68 C 0.28715 0.71309 0.22406 0.0
C69 C 0.30444 0.73295 0.20655 0.0
C70 C 0.31226 0.75946 0.22086 0.0
C71 C 0.30211 0.76635 0.2534 0.0
H72 H 0.26528 0.71833 0.89696 0.0
H73 H 0.19696 0.73736 0.82819 0.0
H74 H 0.28194 0.77556 0.81436 0.0
H75 H 0.25766 0.81063 0.78868 0.0
H76 H 0.20164 0.81233 0.70323 0.0
H77 H 0.19415 0.74256 0.77332 0.0
C78 C 0.25744 0.73011 0.87519 0.0
C79 C 0.27634 0.74842 0.85769 0.0
C80 C 0.22908 0.72564 0.86425 0.0
C81 C 0.21925 0.74037 0.83551 0.0
C82 C 0.23788 0.75896 0.81695 0.0
C83 C 0.26673 0.76229 0.82825 0.0
C84 C 0.22748 0.77429 0.78568 0.0
C85 C 0.24057 0.80045 0.77444 0.0
C86 C 0.23158 0.81369 0.74434 0.0
C87 C 0.2089 0.80171 0.7261 0.0
C88 C 0.19512 0.77659 0.73695 0.0
C89 C 0.20449 0.76269 0.76636 0.0
H90 H 0.30996 0.31765 0.84458 0.0
H91 H 0.32389 0.26557 0.7574 0.0
H92 H 0.24733 0.32007 0.76607 0.0
H93 H 0.24141 0.31307 0.71331 0.0
H94 H 0.24208 0.24525 0.64006 0.0
H95 H 0.29974 0.24013 0.72339 0.0
C96 C 0.30257 0.31006 0.82019 0.0
C97 C 0.27738 0.32156 0.8065 0.0
C98 C 0.31877 0.28941 0.80288 0.0
C99 C 0.31001 0.28058 0.77064 0.0
C100 C 0.28364 0.29066 0.75645 0.0
C101 C 0.26766 0.31167 0.77503 0.0
C102 C 0.27252 0.27863 0.72331 0.0
C103 C 0.25026 0.29267 0.70497 0.0
C104 C 0.23906 0.28066 0.67512 0.0
C105 C 0.25109 0.25497 0.66255 0.0
C106 C 0.27347 0.24074 0.67952 0.0
C107 C 0.28348 0.25227 0.7101 0.0
H108 H 0.73997 0.26604 0.8904 0.0
H109 H 0.79785 0.27193 0.80653 0.0
H110 H 0.74259 0.19685 0.81888 0.0
H111 H 0.74837 0.19002 0.76557 0.0
H112 H 0.81299 0.19231 0.68829 0.0
H113 H 0.82408 0.24539 0.77507 0.0
C114 C 0.74952 0.25629 0.86811 0.0
C115 C 0.73861 0.22993 0.85619 0.0
C116 C 0.77143 0.27109 0.8507 0.0
C117 C 0.78204 0.25942 0.82032 0.0
C118 C 0.77226 0.23232 0.80797 0.0
C119 C 0.75051 0.21776 0.8267 0.0
C120 C 0.78416 0.21992 0.77537 0.0
C121 C 0.76886 0.19848 0.75685 0.0
C122 C 0.77955 0.18829 0.72577 0.0
C123 C 0.80492 0.19997 0.71246 0.0
C124 C 0.82038 0.22099 0.72987 0.0
C125 C 0.81074 0.23008 0.76171 0.0
H126 H 0.70335 0.7282 0.85029 0.0
H127 H 0.75059 0.70466 0.76138 0.0
H128 H 0.70847 0.78835 0.76854 0.0
H129 H 0.70641 0.78423 0.71355 0.0
H130 H 0.7702 0.77689 0.63545 0.0
H131 H 0.78006 0.72747 0.72601 0.0
C132 C 0.71158 0.73392 0.8255 0.0
C133 C 0.70371 0.7604 0.81118 0.0
C134 C 0.72891 0.7141 0.808 0.0
C135 C 0.73807 0.72066 0.77499 0.0
C136 C 0.73116 0.74755 0.75988 0.0
C137 C 0.71385 0.76731 0.77864 0.0
C138 C 0.74182 0.75493 0.72481 0.0
C139 C 0.72652 0.77495 0.70467 0.0
C140 C 0.73674 0.78322 0.67267 0.0
C141 C 0.76181 0.77006 0.65975 0.0
C142 C 0.77715 0.74936 0.6784 0.0
C143 C 0.76743 0.74246 0.71123 0.0
C144 C 0.9795 0.25881 0.56772 0.0
C145 C 0.03635 0.25876 0.46408 0.0
O146 O 0.98531 0.28448 0.55738 0.0
Zn147 Zn 0.00798 0.30453 0.5159 0.0
O148 O 0.98841 0.23715 0.55087 0.0
Zn149 Zn 0.00788 0.25834 0.51587 0.0
O150 O 0.04305 0.27757 0.54227 0.0
O151 O 0.03952 0.32499 0.53916 0.0
O152 O 0.02728 0.23712 0.48085 0.0
O153 O 0.03064 0.28444 0.47445 0.0
O154 O 0.9765 0.32511 0.49266 0.0
O155 O 0.97278 0.27771 0.48949 0.0
C156 C 0.05296 0.30267 0.54954 0.0
C157 C 0.96297 0.30285 0.48225 0.0
C158 C 0.7514 0.03565 0.55185 0.0
C159 C 0.75421 0.97487 0.44995 0.0
O160 O 0.774 0.02627 0.53691 0.0
Zn161 Zn 0.75459 1.00515 0.50107 0.0
O162 O 0.72643 0.02919 0.54017 0.0
Zn163 Zn 0.70777 1.00544 0.49931 0.0
O164 O 0.68678 0.97444 0.52359 0.0
O165 O 0.73415 0.97143 0.52812 0.0
O166 O 0.72861 0.98171 0.45965 0.0
O167 O 0.77588 0.98366 0.46677 0.0
O168 O 0.73626 0.03944 0.47303 0.0
O169 O 0.68867 0.03678 0.47401 0.0
C170 C 0.70898 0.96156 0.53518 0.0
C171 C 0.71168 0.04965 0.46439 0.0
C172 C 0.96344 0.71699 0.55206 0.0
C173 C 0.0525 0.71675 0.48002 0.0
O174 O 0.97384 0.74162 0.54371 0.0
Zn175 Zn 0.0081 0.76069 0.51606 0.0
O176 O 0.97621 0.69409 0.54183 0.0
Zn177 Zn 0.00796 0.71341 0.51605 0.0
O178 O 0.03156 0.73312 0.55564 0.0
O179 O 0.02936 0.7807 0.55139 0.0
O180 O 0.0396 0.69392 0.49024 0.0
O181 O 0.04224 0.74144 0.48838 0.0
O182 O 0.98696 0.78084 0.48073 0.0
O183 O 0.98448 0.73328 0.47646 0.0
C184 C 0.03831 0.75823 0.56676 0.0
C185 C 0.97788 0.75843 0.46536 0.0
C186 C 0.30435 0.04859 0.56777 0.0
C187 C 0.30707 0.96044 0.49703 0.0
O188 O 0.32737 0.03572 0.55819 0.0
Zn189 Zn 0.30829 1.00435 0.53289 0.0
O190 O 0.27978 0.03837 0.55909 0.0
Zn191 Zn 0.26147 1.00407 0.53105 0.0
O192 O 0.24012 0.98262 0.56534 0.0
O193 O 0.28739 0.98067 0.57254 0.0
O194 O 0.28191 0.97033 0.50405 0.0
O195 O 0.32928 0.97332 0.50865 0.0
O196 O 0.2897 0.02809 0.492 0.0
O197 O 0.24212 0.0252 0.49516 0.0
C198 C 0.26178 0.97385 0.58221 0.0
C199 C 0.26474 0.03457 0.48027 0.0
C200 C 0.47189 0.80153 0.06262 0.0
C201 C 0.544 0.80171 0.96952 0.0
O202 O 0.48237 0.82416 0.0488 0.0
Zn203 Zn 0.50794 0.80417 0.01607 0.0
O204 O 0.4802 0.77665 0.05223 0.0
Zn205 Zn 0.50805 0.75728 0.01607 0.0
O206 O 0.53571 0.73692 0.04443 0.0
O207 O 0.53908 0.78441 0.04845 0.0
O208 O 0.53581 0.77678 0.97991 0.0
O209 O 0.53342 0.82428 0.98334 0.0
O210 O 0.47689 0.78426 0.98371 0.0
O211 O 0.48048 0.7368 0.98772 0.0
C212 C 0.54775 0.75915 0.05712 0.0
C213 C 0.46833 0.75897 0.97503 0.0
C214 C 0.25521 0.5396 0.07631 0.0
C215 C 0.24816 0.47516 0.97836 0.0
O216 O 0.27591 0.52979 0.0584 0.0
Zn217 Zn 0.2529 0.50684 0.02761 0.0
O218 O 0.22917 0.53207 0.06951 0.0
Zn219 Zn 0.20667 0.50575 0.0335 0.0
O220 O 0.18962 0.47513 0.06179 0.0
O221 O 0.23715 0.47288 0.05871 0.0
O222 O 0.22358 0.48121 0.99176 0.0
O223 O 0.27112 0.48546 0.99123 0.0
O224 O 0.22994 0.53929 1.00081 0.0
O225 O 0.1831 0.53494 1.01011 0.0
C226 C 0.21318 0.4627 0.06986 0.0
C227 C 0.20406 0.54809 0.9958 0.0
C228 C 0.55222 0.20845 0.98115 0.0
C229 C 0.46377 0.20827 0.05085 0.0
O230 O 0.54261 0.23369 0.98847 0.0
Zn231 Zn 0.5079 0.25314 0.01599 0.0
O232 O 0.53879 0.18627 0.99205 0.0
Zn233 Zn 0.508 0.20705 0.016 0.0
O234 O 0.48445 0.22694 0.97523 0.0
O235 O 0.48762 0.27424 0.98148 0.0
O236 O 0.47731 0.18615 0.03997 0.0
O237 O 0.47328 0.23355 0.04351 0.0
O238 O 0.5281 0.27435 0.05048 0.0
O239 O 0.53148 0.22706 0.05675 0.0
C240 C 0.47833 0.25257 0.96505 0.0
C241 C 0.5375 0.25273 0.06691 0.0
C242 C 0.81211 0.54904 0.03626 0.0
C243 C 0.8032 0.46374 0.96202 0.0
O244 O 0.83311 0.53593 0.02199 0.0
Zn245 Zn 0.80962 0.50673 0.99848 0.0
O246 O 0.78624 0.54022 0.03117 0.0
Zn247 Zn 0.76337 0.50777 1.00426 0.0
O248 O 0.7451 0.48632 0.04055 0.0
O249 O 0.79265 0.48212 0.04013 0.0
O250 O 0.7792 0.47388 0.97312 0.0
O251 O 0.82673 0.47615 0.9702 0.0
O252 O 0.78714 0.53308 0.96246 0.0
O253 O 0.74039 0.53072 0.97348 0.0
C254 C 0.76805 0.47602 0.05346 0.0
C255 C 0.76111 0.54058 0.95562 0.0
C256 C 0.14297 0.23033 0.30542 0.0
C257 C 0.17049 0.2331 0.31959 0.0
C258 C 0.11808 0.23687 0.32451 0.0
C259 C 0.12106 0.24621 0.35835 0.0
C260 C 0.14896 0.25092 0.37178 0.0
C261 C 0.17331 0.24436 0.35218 0.0
C262 C 0.08868 0.23204 0.3092 0.0
C263 C 0.15319 0.261 0.40767 0.0
C264 C 0.0619 0.27826 0.41315 0.0
C265 C 0.05482 0.25463 0.43386 0.0
C266 C 0.08198 0.2754 0.38669 0.0
C267 C 0.09554 0.24838 0.38115 0.0
C268 C 0.08729 0.2241 0.40076 0.0
C269 C 0.06691 0.22749 0.42678 0.0
C270 C 0.08986 0.30166 0.36597 0.0
C271 C 0.10136 0.19491 0.39572 0.0
H272 H 0.14088 0.22151 0.28022 0.0
H273 H 0.19471 0.24666 0.36294 0.0
H274 H 0.0789 0.21218 0.32007 0.0
H275 H 0.07398 0.25033 0.31519 0.0
H276 H 0.08995 0.22944 0.28138 0.0
H277 H 0.17623 0.26561 0.41335 0.0
H278 H 0.14036 0.28084 0.41259 0.0
H279 H 0.14537 0.24408 0.42536 0.0
H280 H 0.05235 0.29925 0.41816 0.0
H281 H 0.06145 0.2091 0.44254 0.0
H282 H 0.0908 0.29614 0.33876 0.0
H283 H 0.11165 0.3094 0.37333 0.0
H284 H 0.07422 0.31964 0.36969 0.0
H285 H 0.10081 0.18864 0.36875 0.0
H286 H 0.09066 0.17769 0.41083 0.0
H287 H 0.12442 0.19612 0.40324 0.0
C288 C 0.72548 0.19008 0.34548 0.0
C289 C 0.73047 0.2141 0.36634 0.0
C290 C 0.71741 0.16316 0.35918 0.0
C291 C 0.71457 0.16007 0.3946 0.0
C292 C 0.71792 0.18464 0.41555 0.0
C293 C 0.72568 0.21131 0.40117 0.0
C294 C 0.71378 0.13762 0.3359 0.0
C295 C 0.71525 0.18237 0.45342 0.0
C296 C 0.68543 0.09121 0.43623 0.0
C297 C 0.71123 0.07689 0.44437 0.0
C298 C 0.68594 0.11797 0.41906 0.0
C299 C 0.71285 0.13069 0.41012 0.0
C300 C 0.73882 0.11592 0.41757 0.0
C301 C 0.73767 0.08932 0.43436 0.0
C302 C 0.6578 0.13292 0.41113 0.0
C303 C 0.76803 0.12861 0.4087 0.0
H304 H 0.72923 0.1919 0.31857 0.0
H305 H 0.72884 0.22988 0.41742 0.0
H306 H 0.73282 0.12315 0.3381 0.0
H307 H 0.69436 0.12485 0.34303 0.0
H308 H 0.71181 0.14441 0.30914 0.0
H309 H 0.71517 0.20393 0.4658 0.0
H310 H 0.69515 0.17074 0.46056 0.0
H311 H 0.73373 0.16972 0.46339 0.0
H312 H 0.66492 0.08178 0.44372 0.0
H313 H 0.75782 0.0785 0.44022 0.0
H314 H 0.65717 0.13904 0.38409 0.0
H315 H 0.65606 0.15318 0.42599 0.0
H316 H 0.63875 0.11913 0.41698 0.0
H317 H 0.76933 0.13315 0.38128 0.0
H318 H 0.78617 0.11401 0.4155 0.0
H319 H 0.77101 0.14947 0.4221 0.0
C320 C 0.87368 0.76965 0.30304 0.0
C321 C 0.84546 0.7668 0.31553 0.0
C322 C 0.89754 0.76712 0.32466 0.0
C323 C 0.89282 0.76154 0.3594 0.0
C324 C 0.86435 0.75689 0.37157 0.0
C325 C 0.84099 0.75972 0.34948 0.0
C326 C 0.92757 0.77213 0.31076 0.0
C327 C 0.85839 0.75047 0.40831 0.0
C328 C 0.95211 0.7353 0.41732 0.0
C329 C 0.95865 0.76045 0.43567 0.0
C330 C 0.93167 0.73561 0.39139 0.0
C331 C 0.91733 0.76171 0.38353 0.0
C332 C 0.92474 0.7875 0.40084 0.0
C333 C 0.94539 0.78657 0.42674 0.0
C334 C 0.92445 0.7077 0.37351 0.0
C335 C 0.90996 0.8158 0.393 0.0
H336 H 0.87698 0.77568 0.27687 0.0
H337 H 0.81905 0.75788 0.35906 0.0
H338 H 0.93621 0.79277 0.32083 0.0
H339 H 0.9424 0.75464 0.31892 0.0
H340 H 0.92782 0.77325 0.28278 0.0
H341 H 0.83523 0.74551 0.41319 0.0
H342 H 0.87163 0.73185 0.41679 0.0
H343 H 0.86459 0.7694 0.42388 0.0
H344 H 0.96247 0.71501 0.42375 0.0
H345 H 0.95036 0.80608 0.44071 0.0
H346 H 0.9252 0.71079 0.34578 0.0
H347 H 0.90211 0.70098 0.38021 0.0
H348 H 0.93946 0.68989 0.38032 0.0
H349 H 0.911 0.82026 0.36553 0.0
H350 H 0.9198 0.83428 0.4067 0.0
H351 H 0.88676 0.8144 0.40015 0.0
C352 C 0.30128 0.83186 0.36219 0.0
C353 C 0.2933 0.80613 0.3786 0.0
C354 C 0.30952 0.85648 0.38061 0.0
C355 C 0.30968 0.85543 0.41632 0.0
C356 C 0.30399 0.82885 0.43283 0.0
C357 C 0.29591 0.80454 0.4138 0.0
C358 C 0.31558 0.88428 0.3619 0.0
C359 C 0.30401 0.82663 0.4708 0.0
C360 C 0.33539 0.92017 0.46854 0.0
C361 C 0.30903 0.93404 0.47562 0.0
C362 C 0.33622 0.89467 0.44891 0.0
C363 C 0.31012 0.88286 0.43622 0.0
C364 C 0.28362 0.89704 0.44301 0.0
C365 C 0.28343 0.92228 0.46246 0.0
C366 C 0.36488 0.88019 0.44205 0.0
C367 C 0.25521 0.88538 0.43004 0.0
H368 H 0.29928 0.83339 0.33503 0.0
H369 H 0.2904 0.78457 0.42665 0.0
H370 H 0.29658 0.89883 0.36423 0.0
H371 H 0.33441 0.89569 0.37288 0.0
H372 H 0.31984 0.88042 0.33467 0.0
H373 H 0.30378 0.80379 0.47951 0.0
H374 H 0.32323 0.83761 0.48145 0.0
H375 H 0.28453 0.83762 0.48109 0.0
H376 H 0.35526 0.92906 0.47853 0.0
H377 H 0.26288 0.93275 0.46749 0.0
H378 H 0.36815 0.87743 0.4145 0.0
H379 H 0.36499 0.85827 0.45344 0.0
H380 H 0.38333 0.89271 0.45237 0.0
H381 H 0.25592 0.88373 0.40214 0.0
H382 H 0.23653 0.8992 0.43728 0.0
H383 H 0.25143 0.8633 0.44011 0.0
C384 C 0.14228 0.76897 0.7293 0.0
C385 C 0.17052 0.76602 0.71688 0.0
C386 C 0.11847 0.7665 0.70761 0.0
C387 C 0.12324 0.76088 0.67289 0.0
C388 C 0.15172 0.75611 0.66081 0.0
C389 C 0.17504 0.75888 0.68296 0.0
C390 C 0.08842 0.77162 0.72141 0.0
C391 C 0.15773 0.74965 0.6241 0.0
C392 C 0.06393 0.73494 0.61481 0.0
C393 C 0.05753 0.76013 0.59646 0.0
C394 C 0.08434 0.73514 0.64077 0.0
C395 C 0.09879 0.76117 0.64867 0.0
C396 C 0.09154 0.78699 0.63136 0.0
C397 C 0.07092 0.78619 0.60543 0.0
C398 C 0.09138 0.70718 0.65866 0.0
C399 C 0.10645 0.81523 0.63925 0.0
H400 H 0.13895 0.77504 0.75544 0.0
H401 H 0.197 0.75697 0.67344 0.0
H402 H 0.0799 0.79231 0.71133 0.0
H403 H 0.07354 0.7542 0.71319 0.0
H404 H 0.08811 0.77272 0.74939 0.0
H405 H 0.18088 0.74457 0.61929 0.0
H406 H 0.14442 0.7311 0.61558 0.0
H407 H 0.15168 0.76861 0.6085 0.0
H408 H 0.05347 0.71471 0.60834 0.0
H409 H 0.06606 0.80573 0.59146 0.0
H410 H 0.09058 0.71027 0.68639 0.0
H411 H 0.11371 0.70037 0.65203 0.0
H412 H 0.07631 0.68945 0.65179 0.0
H413 H 0.10536 0.81969 0.66671 0.0
H414 H 0.09675 0.83375 0.62551 0.0
H415 H 0.12966 0.81371 0.63219 0.0
C416 C 0.29013 0.21029 0.63069 0.0
C417 C 0.28537 0.21315 0.66553 0.0
C418 C 0.29789 0.18361 0.61638 0.0
C419 C 0.3013 0.15909 0.63739 0.0
C420 C 0.29849 0.16224 0.6728 0.0
C421 C 0.29041 0.18918 0.68644 0.0
C422 C 0.30052 0.18127 0.57851 0.0
C423 C 0.30219 0.13675 0.69614 0.0
C424 C 0.27831 0.08822 0.5978 0.0
C425 C 0.30476 0.07584 0.58778 0.0
C426 C 0.27713 0.11484 0.61455 0.0
C427 C 0.30307 0.12968 0.62193 0.0
C428 C 0.33 0.117 0.61299 0.0
C429 C 0.33055 0.09022 0.59586 0.0
C430 C 0.24789 0.12747 0.62343 0.0
C431 C 0.35811 0.13203 0.62085 0.0
H432 H 0.28693 0.22884 0.6144 0.0
H433 H 0.28669 0.19104 0.71335 0.0
H434 H 0.32064 0.16969 0.57137 0.0
H435 H 0.28207 0.16855 0.5686 0.0
H436 H 0.30053 0.20281 0.56606 0.0
H437 H 0.30416 0.14359 0.72289 0.0
H438 H 0.28318 0.12223 0.69399 0.0
H439 H 0.32162 0.12401 0.68903 0.0
H440 H 0.25818 0.07735 0.59199 0.0
H441 H 0.35107 0.08084 0.58835 0.0
H442 H 0.24485 0.1483 0.60999 0.0
H443 H 0.24661 0.13206 0.65085 0.0
H444 H 0.22978 0.11281 0.6167 0.0
H445 H 0.3598 0.15226 0.60592 0.0
H446 H 0.37719 0.11826 0.61502 0.0
H447 H 0.35875 0.13821 0.64787 0.0
C448 C 0.84316 0.24524 0.68086 0.0
C449 C 0.84611 0.23362 0.71326 0.0
C450 C 0.86743 0.25174 0.6611 0.0
C451 C 0.89538 0.24658 0.67417 0.0
C452 C 0.89853 0.23688 0.70786 0.0
C453 C 0.8737 0.23042 0.72712 0.0
C454 C 0.86305 0.2622 0.62539 0.0
C455 C 0.92798 0.23158 0.72279 0.0
C456 C 0.94875 0.22768 0.60498 0.0
C457 C 0.96115 0.25472 0.59804 0.0
C458 C 0.92852 0.22436 0.63116 0.0
C459 C 0.92074 0.2486 0.65111 0.0
C460 C 0.93462 0.27548 0.64569 0.0
C461 C 0.95453 0.27828 0.61905 0.0
C462 C 0.91409 0.19533 0.63605 0.0
C463 C 0.92726 0.30168 0.66677 0.0
H464 H 0.82171 0.24783 0.67034 0.0
H465 H 0.87588 0.2213 0.75216 0.0
H466 H 0.87611 0.2819 0.62055 0.0
H467 H 0.87047 0.24533 0.60741 0.0
H468 H 0.84002 0.26718 0.62004 0.0
H469 H 0.9269 0.22879 0.75059 0.0
H470 H 0.93741 0.21167 0.71163 0.0
H471 H 0.94287 0.24972 0.71681 0.0
H472 H 0.95386 0.20934 0.58898 0.0
H473 H 0.96433 0.29918 0.61414 0.0
H474 H 0.89098 0.19691 0.62885 0.0
H475 H 0.91481 0.18882 0.66294 0.0
H476 H 0.92441 0.17809 0.62061 0.0
H477 H 0.90551 0.30976 0.65975 0.0
H478 H 0.9431 0.31949 0.66305 0.0
H479 H 0.92648 0.29597 0.69393 0.0
C480 C 0.71475 0.8329 0.66993 0.0
C481 C 0.72274 0.80719 0.65349 0.0
C482 C 0.70651 0.85754 0.65154 0.0
C483 C 0.70636 0.85652 0.61584 0.0
C484 C 0.71207 0.82996 0.59929 0.0
C485 C 0.72014 0.80564 0.61829 0.0
C486 C 0.70043 0.88531 0.67029 0.0
C487 C 0.71206 0.82779 0.56131 0.0
C488 C 0.68066 0.92128 0.56366 0.0
C489 C 0.70702 0.93516 0.55661 0.0
C490 C 0.67983 0.89577 0.58327 0.0
C491 C 0.70592 0.88397 0.59597 0.0
C492 C 0.73242 0.89817 0.58922 0.0
C493 C 0.73261 0.92342 0.56979 0.0
C494 C 0.65116 0.88128 0.59011 0.0
C495 C 0.76083 0.88651 0.60221 0.0
H496 H 0.71674 0.8344 0.6971 0.0
H497 H 0.72566 0.78568 0.60542 0.0
H498 H 0.71942 0.89987 0.668 0.0
H499 H 0.6816 0.89673 0.65931 0.0
H500 H 0.69615 0.88141 0.69751 0.0
H501 H 0.71231 0.80495 0.55257 0.0
H502 H 0.69284 0.83876 0.55067 0.0
H503 H 0.73154 0.83881 0.55105 0.0
H504 H 0.66079 0.93016 0.55365 0.0
H505 H 0.75316 0.9339 0.56478 0.0
H506 H 0.6479 0.87846 0.61765 0.0
H507 H 0.65105 0.85938 0.57866 0.0
H508 H 0.63271 0.89381 0.57982 0.0
H509 H 0.7601 0.88484 0.6301 0.0
H510 H 0.77951 0.90035 0.595 0.0
H511 H 0.76462 0.86444 0.59212 0.0
C512 C 0.80429 0.72807 0.62921 0.0
C513 C 0.8039 0.73622 0.66335 0.0
C514 C 0.83012 0.72006 0.61282 0.0
C515 C 0.85643 0.71994 0.63093 0.0
C516 C 0.85587 0.72603 0.66601 0.0
C517 C 0.82966 0.73415 0.68178 0.0
C518 C 0.82949 0.71381 0.57547 0.0
C519 C 0.88329 0.72594 0.68644 0.0
C520 C 0.92422 0.69091 0.58567 0.0
C521 C 0.93645 0.71655 0.57304 0.0
C522 C 0.89851 0.69151 0.60525 0.0
C523 C 0.88463 0.71832 0.6121 0.0
C524 C 0.89708 0.74415 0.59957 0.0
C525 C 0.92264 0.74294 0.58045 0.0
C526 C 0.88606 0.66352 0.61838 0.0
C527 C 0.88312 0.77325 0.60585 0.0
H528 H 0.78442 0.72899 0.61487 0.0
H529 H 0.82969 0.7404 0.70812 0.0
H530 H 0.83976 0.73198 0.56157 0.0
H531 H 0.84202 0.69397 0.56957 0.0
H532 H 0.80709 0.71107 0.566 0.0
H533 H 0.87876 0.72623 0.71397 0.0
H534 H 0.8966 0.70664 0.68039 0.0
H535 H 0.89633 0.74535 0.68001 0.0
H536 H 0.93467 0.67043 0.58028 0.0
H537 H 0.93166 0.76301 0.57095 0.0
H538 H 0.86447 0.65976 0.60713 0.0
H539 H 0.88296 0.66481 0.6461 0.0
H540 H 0.90014 0.64469 0.61249 0.0
H541 H 0.86114 0.77362 0.59477 0.0
H542 H 0.89582 0.79138 0.59486 0.0
H543 H 0.8807 0.77705 0.63334 0.0
C544 C 0.2367 0.86729 0.7414 0.0
C545 C 0.24529 0.83989 0.73011 0.0
C546 C 0.24134 0.89198 0.72128 0.0
C547 C 0.25444 0.88893 0.68905 0.0
C548 C 0.26502 0.86153 0.67881 0.0
C549 C 0.26035 0.83738 0.69953 0.0
C550 C 0.23026 0.92087 0.73342 0.0
C551 C 0.27909 0.8572 0.64472 0.0
C552 C 0.23317 0.93792 0.61618 0.0
C553 C 0.25817 0.9547 0.61197 0.0
C554 C 0.23125 0.91716 0.64203 0.0
C555 C 0.25469 0.91345 0.66456 0.0
C556 C 0.27929 0.93147 0.66155 0.0
C557 C 0.28085 0.95167 0.63513 0.0
C558 C 0.2047 0.89821 0.64419 0.0
C559 C 0.30447 0.92863 0.68538 0.0
H560 H 0.2245 0.8691 0.76473 0.0
H561 H 0.26645 0.81604 0.6906 0.0
H562 H 0.24638 0.93815 0.7284 0.0
H563 H 0.2103 0.92653 0.7195 0.0
H564 H 0.22511 0.92059 0.76081 0.0
H565 H 0.28833 0.83515 0.64182 0.0
H566 H 0.2628 0.86056 0.62465 0.0
H567 H 0.29657 0.87326 0.64067 0.0
H568 H 0.21561 0.9401 0.59836 0.0
H569 H 0.30014 0.96479 0.63229 0.0
H570 H 0.19544 0.89885 0.67004 0.0
H571 H 0.21075 0.87543 0.63883 0.0
H572 H 0.18772 0.90487 0.62607 0.0
H573 H 0.29673 0.92837 0.71191 0.0
H574 H 0.32032 0.94651 0.68228 0.0
H575 H 0.31578 0.90784 0.68071 0.0
C576 C 0.18839 0.30055 0.6762 0.0
C577 C 0.21341 0.29338 0.65782 0.0
C578 C 0.16228 0.30707 0.65973 0.0
C579 C 0.16114 0.30645 0.62401 0.0
C580 C 0.18689 0.30142 0.60539 0.0
C581 C 0.21264 0.29496 0.62248 0.0
C582 C 0.13544 0.31241 0.68063 0.0
C583 C 0.18684 0.3007 0.56733 0.0
C584 C 0.09246 0.27925 0.58252 0.0
C585 C 0.08002 0.30469 0.56972 0.0
C586 C 0.1184 0.27977 0.60064 0.0
C587 C 0.13261 0.30643 0.60632 0.0
C588 C 0.12004 0.33235 0.59405 0.0
C589 C 0.09386 0.33119 0.57589 0.0
C590 C 0.13085 0.25156 0.61323 0.0
C591 C 0.13449 0.36119 0.59964 0.0
H592 H 0.18873 0.29927 0.70349 0.0
H593 H 0.23199 0.28988 0.60809 0.0
H594 H 0.12296 0.33091 0.67043 0.0
H595 H 0.12128 0.29305 0.67959 0.0
H596 H 0.14065 0.31684 0.70745 0.0
H597 H 0.20909 0.30045 0.55661 0.0
H598 H 0.17538 0.28099 0.55864 0.0
H599 H 0.17511 0.31967 0.5571 0.0
H600 H 0.08199 0.25861 0.57818 0.0
H601 H 0.08447 0.35097 0.56619 0.0
H602 H 0.13408 0.25259 0.6409 0.0
H603 H 0.15233 0.24775 0.60143 0.0
H604 H 0.11672 0.23277 0.60754 0.0
H605 H 0.13866 0.36449 0.6269 0.0
H606 H 0.12124 0.3795 0.59022 0.0
H607 H 0.15576 0.36157 0.58655 0.0
C608 C 0.75698 0.17078 0.67294 0.0
C609 C 0.76536 0.16508 0.70618 0.0
C610 C 0.75203 0.14821 0.65008 0.0
C611 C 0.75563 0.11919 0.66071 0.0
C612 C 0.76194 0.11329 0.69498 0.0
C613 C 0.76678 0.1364 0.71738 0.0
C614 C 0.74507 0.15554 0.61391 0.0
C615 C 0.76567 0.08268 0.70742 0.0
C616 C 0.7281 0.06192 0.60007 0.0
C617 C 0.75327 0.05493 0.58175 0.0
C618 C 0.72872 0.0819 0.62673 0.0
C619 C 0.75511 0.09544 0.63524 0.0
C620 C 0.78079 0.08778 0.61764 0.0
C621 C 0.77958 0.06754 0.59118 0.0
C622 C 0.70094 0.08926 0.64499 0.0
C623 C 0.80939 0.10178 0.62593 0.0
H624 H 0.75624 0.19302 0.66426 0.0
H625 H 0.77376 0.13202 0.74293 0.0
H626 H 0.76369 0.14968 0.5975 0.0
H627 H 0.72615 0.14287 0.60521 0.0
H628 H 0.74037 0.17892 0.61047 0.0
H629 H 0.76651 0.08157 0.73538 0.0
H630 H 0.74774 0.06876 0.69846 0.0
H631 H 0.7861 0.07363 0.69709 0.0
H632 H 0.70766 0.05213 0.59321 0.0
H633 H 0.79912 0.06228 0.57724 0.0
H634 H 0.69481 0.11196 0.63944 0.0
H635 H 0.70393 0.08755 0.67265 0.0
H636 H 0.6828 0.07492 0.63748 0.0
H637 H 0.8083 0.12529 0.62043 0.0
H638 H 0.82761 0.09231 0.61126 0.0
H639 H 0.81404 0.0994 0.65319 0.0
C640 C 0.8276 0.30124 0.3555 0.0
C641 C 0.80254 0.29424 0.37389 0.0
C642 C 0.85374 0.30768 0.37199 0.0
C643 C 0.85485 0.30713 0.40771 0.0
C644 C 0.82905 0.30229 0.42632 0.0
C645 C 0.80328 0.29591 0.40922 0.0
C646 C 0.88062 0.31283 0.3511 0.0
C647 C 0.82906 0.30167 0.46438 0.0
C648 C 0.92333 0.2796 0.44935 0.0
C649 C 0.93592 0.30499 0.46208 0.0
C650 C 0.8974 0.28025 0.43121 0.0
C651 C 0.88335 0.30698 0.42543 0.0
C652 C 0.89608 0.33285 0.43764 0.0
C653 C 0.92224 0.33157 0.45582 0.0
C654 C 0.88477 0.25209 0.41869 0.0
C655 C 0.88182 0.36177 0.43194 0.0
H656 H 0.82729 0.29989 0.32822 0.0
H657 H 0.78389 0.29095 0.4236 0.0
H658 H 0.89321 0.33127 0.36126 0.0
H659 H 0.89466 0.29338 0.3522 0.0
H660 H 0.87545 0.31723 0.32426 0.0
H661 H 0.8068 0.3016 0.47507 0.0
H662 H 0.84038 0.28191 0.47315 0.0
H663 H 0.84091 0.32058 0.47456 0.0
H664 H 0.93366 0.25891 0.45375 0.0
H665 H 0.93176 0.35131 0.46547 0.0
H666 H 0.88158 0.25308 0.39101 0.0
H667 H 0.86326 0.24844 0.43047 0.0
H668 H 0.89878 0.23322 0.42445 0.0
H669 H 0.8777 0.36504 0.40468 0.0
H670 H 0.89517 0.38001 0.44134 0.0
H671 H 0.86054 0.3623 0.445 0.0
C672 C 0.75571 0.83813 0.33305 0.0
C673 C 0.77064 0.84063 0.30237 0.0
C674 C 0.75104 0.86231 0.35371 0.0
C675 C 0.76148 0.88973 0.34333 0.0
C676 C 0.77444 0.89276 0.31102 0.0
C677 C 0.77908 0.86804 0.29096 0.0
C678 C 0.73712 0.858 0.38789 0.0
C679 C 0.78537 0.92166 0.29873 0.0
C680 C 0.73503 0.95249 0.39718 0.0
C681 C 0.75778 0.95566 0.42023 0.0
C682 C 0.73657 0.93224 0.37082 0.0
C683 C 0.76123 0.91431 0.36775 0.0
C684 C 0.78474 0.91816 0.39015 0.0
C685 C 0.78283 0.93897 0.41595 0.0
C686 C 0.71131 0.92925 0.34713 0.0
C687 C 0.81135 0.89931 0.38792 0.0
H688 H 0.74972 0.81679 0.34208 0.0
H689 H 0.79118 0.86984 0.26755 0.0
H690 H 0.75347 0.86148 0.40787 0.0
H691 H 0.71959 0.87401 0.39198 0.0
H692 H 0.72797 0.83593 0.39091 0.0
H693 H 0.79042 0.92134 0.27132 0.0
H694 H 0.7692 0.93889 0.30377 0.0
H695 H 0.80535 0.92744 0.31254 0.0
H696 H 0.7157 0.96554 0.40008 0.0
H697 H 0.80044 0.94126 0.43367 0.0
H698 H 0.7001 0.90842 0.35193 0.0
H699 H 0.71896 0.92895 0.32056 0.0
H700 H 0.6954 0.94707 0.35025 0.0
H701 H 0.8054 0.87652 0.39338 0.0
H702 H 0.82837 0.90609 0.40593 0.0
H703 H 0.82051 0.89993 0.36202 0.0
C704 C 0.18631 0.73327 0.35023 0.0
C705 C 0.21207 0.73525 0.36867 0.0
C706 C 0.16007 0.72525 0.36601 0.0
C707 C 0.15948 0.71914 0.40108 0.0
C708 C 0.18581 0.71914 0.41919 0.0
C709 C 0.21166 0.72706 0.4028 0.0
C710 C 0.13264 0.72528 0.34559 0.0
C711 C 0.18642 0.71286 0.45653 0.0
C712 C 0.09342 0.74249 0.45161 0.0
C713 C 0.07948 0.71617 0.45903 0.0
C714 C 0.11898 0.74356 0.43247 0.0
C715 C 0.13128 0.71766 0.41993 0.0
C716 C 0.11726 0.69093 0.42679 0.0
C717 C 0.09156 0.69046 0.44638 0.0
C718 C 0.1331 0.77258 0.42617 0.0
C719 C 0.12955 0.66287 0.41366 0.0
H720 H 0.18629 0.73955 0.32391 0.0
H721 H 0.23154 0.72791 0.41713 0.0
H722 H 0.11923 0.70605 0.35166 0.0
H723 H 0.1197 0.74476 0.352 0.0
H724 H 0.13717 0.72554 0.31805 0.0
H725 H 0.20881 0.70999 0.46599 0.0
H726 H 0.17626 0.73108 0.47045 0.0
H727 H 0.17378 0.69309 0.46243 0.0
H728 H 0.08452 0.7626 0.46111 0.0
H729 H 0.081 0.67004 0.45179 0.0
H730 H 0.13553 0.77637 0.39868 0.0
H731 H 0.15508 0.77284 0.43724 0.0
H732 H 0.1205 0.79078 0.43717 0.0
H733 H 0.13266 0.66416 0.38593 0.0
H734 H 0.11537 0.64412 0.41954 0.0
H735 H 0.15112 0.65899 0.4249 0.0
C736 C 0.24969 0.13579 0.31509 0.0
C737 C 0.25117 0.16443 0.32642 0.0
C738 C 0.25448 0.1126 0.33737 0.0
C739 C 0.2608 0.11836 0.37167 0.0
C740 C 0.26447 0.14733 0.38244 0.0
C741 C 0.25957 0.17 0.35968 0.0
C742 C 0.25068 0.08204 0.3248 0.0
C743 C 0.27146 0.15451 0.41864 0.0
C744 C 0.23666 0.06658 0.44098 0.0
C745 C 0.26293 0.05388 0.45039 0.0
C746 C 0.23552 0.08689 0.4146 0.0
C747 C 0.26123 0.09452 0.39703 0.0
C748 C 0.28758 0.08088 0.40551 0.0
C749 C 0.28813 0.06084 0.43211 0.0
C750 C 0.20697 0.10099 0.40634 0.0
C751 C 0.31539 0.08821 0.38729 0.0
H752 H 0.2427 0.13152 0.28952 0.0
H753 H 0.26037 0.1922 0.36847 0.0
H754 H 0.26855 0.06803 0.33371 0.0
H755 H 0.2302 0.07301 0.33505 0.0
H756 H 0.24987 0.08103 0.29683 0.0
H757 H 0.27622 0.17787 0.42219 0.0
H758 H 0.25282 0.14865 0.43503 0.0
H759 H 0.29034 0.14177 0.42728 0.0
H760 H 0.21711 0.06134 0.4549 0.0
H761 H 0.30854 0.05098 0.43894 0.0
H762 H 0.20233 0.09872 0.37906 0.0
H763 H 0.20812 0.12448 0.41196 0.0
H764 H 0.18871 0.09152 0.42095 0.0
H765 H 0.3124 0.08664 0.35962 0.0
H766 H 0.33347 0.07377 0.39472 0.0
H767 H 0.32161 0.11087 0.39298 0.0
C768 C 0.65732 0.78849 0.81582 0.0
C769 C 0.68339 0.77943 0.83031 0.0
C770 C 0.63458 0.79925 0.83605 0.0
C771 C 0.63801 0.8008 0.87153 0.0
C772 C 0.6654 0.79464 0.88565 0.0
C773 C 0.68773 0.78413 0.86488 0.0
C774 C 0.606 0.80619 0.81979 0.0
C775 C 0.67028 0.79608 0.92322 0.0
C776 C 0.57973 0.82893 0.93239 0.0
C777 C 0.56639 0.80297 0.94234 0.0
C778 C 0.60242 0.82896 0.90833 0.0
C779 C 0.61207 0.80243 0.8942 0.0
C780 C 0.59801 0.7764 0.90346 0.0
C781 C 0.57544 0.77703 0.92712 0.0
C782 C 0.61659 0.85721 0.89883 0.0
C783 C 0.60744 0.74752 0.88924 0.0
H784 H 0.65381 0.785 0.78912 0.0
H785 H 0.70804 0.7776 0.87612 0.0
H786 H 0.59096 0.78774 0.82348 0.0
H787 H 0.59597 0.82553 0.83158 0.0
H788 H 0.60846 0.81004 0.79227 0.0
H789 H 0.69363 0.79528 0.92959 0.0
H790 H 0.66083 0.81613 0.93395 0.0
H791 H 0.65935 0.77746 0.93553 0.0
H792 H 0.5729 0.84909 0.94388 0.0
H793 H 0.56523 0.75681 0.93422 0.0
H794 H 0.61955 0.8587 0.8711 0.0
H795 H 0.63836 0.85838 0.91036 0.0
H796 H 0.60379 0.87613 0.90761 0.0
H797 H 0.60666 0.74797 0.8613 0.0
H798 H 0.59369 0.72937 0.8983 0.0
H799 H 0.63014 0.74303 0.89654 0.0
C800 C 0.21003 0.70369 0.91745 0.0
C801 C 0.21119 0.70366 0.88211 0.0
C802 C 0.20131 0.679 0.9354 0.0
C803 C 0.19355 0.65364 0.91755 0.0
C804 C 0.19133 0.65471 0.88192 0.0
C805 C 0.20026 0.67976 0.86455 0.0
C806 C 0.20376 0.67907 0.97333 0.0
C807 C 0.18263 0.62841 0.86189 0.0
C808 C 0.22377 0.5855 0.9568 0.0
C809 C 0.19976 0.57383 0.97385 0.0
C810 C 0.22162 0.61085 0.93773 0.0
C811 C 0.19464 0.62515 0.93523 0.0
C812 C 0.16995 0.61303 0.95126 0.0
C813 C 0.17281 0.5875 0.97054 0.0
C814 C 0.24861 0.62282 0.92111 0.0
C815 C 0.14078 0.62746 0.9489 0.0
H816 H 0.21812 0.72231 0.93109 0.0
H817 H 0.20107 0.67965 0.83722 0.0
H818 H 0.18512 0.66778 0.98512 0.0
H819 H 0.22369 0.66733 0.98073 0.0
H820 H 0.20496 0.70139 0.98362 0.0
H821 H 0.17571 0.63431 0.836 0.0
H822 H 0.20135 0.61349 0.85983 0.0
H823 H 0.16479 0.61656 0.87464 0.0
H824 H 0.24469 0.57507 0.95878 0.0
H825 H 0.15411 0.57863 0.9835 0.0
H826 H 0.25368 0.64443 0.93172 0.0
H827 H 0.2451 0.6256 0.89366 0.0
H828 H 0.26772 0.60859 0.92469 0.0
H829 H 0.14072 0.64741 0.96443 0.0
H830 H 0.12308 0.61314 0.95799 0.0
H831 H 0.13624 0.63395 0.92252 0.0
C832 C 0.34103 0.26587 0.85261 0.0
C833 C 0.3444 0.27712 0.82001 0.0
C834 C 0.36501 0.25978 0.87277 0.0
C835 C 0.39319 0.26489 0.85996 0.0
C836 C 0.39681 0.27433 0.82616 0.0
C837 C 0.37226 0.28042 0.8065 0.0
C838 C 0.36006 0.24963 0.90856 0.0
C839 C 0.4265 0.27961 0.81145 0.0
C840 C 0.44676 0.28359 0.92875 0.0
C841 C 0.45928 0.25657 0.93541 0.0
C842 C 0.42627 0.2869 0.90303 0.0
C843 C 0.41833 0.26269 0.88319 0.0
C844 C 0.43212 0.23577 0.88852 0.0
C845 C 0.45228 0.23297 0.9147 0.0
C846 C 0.41195 0.31597 0.89833 0.0
C847 C 0.42458 0.20956 0.86763 0.0
H848 H 0.31942 0.2632 0.86294 0.0
H849 H 0.37485 0.28928 0.78136 0.0
H850 H 0.37296 0.2299 0.91369 0.0
H851 H 0.36734 0.2666 0.92641 0.0
H852 H 0.33693 0.24482 0.91384 0.0
H853 H 0.42584 0.28268 0.78369 0.0
H854 H 0.43592 0.29933 0.82296 0.0
H855 H 0.44116 0.26131 0.81727 0.0
H856 H 0.45208 0.30195 0.94454 0.0
H857 H 0.46209 0.21207 0.91939 0.0
H858 H 0.38876 0.31441 0.90552 0.0
H859 H 0.41293 0.32258 0.87147 0.0
H860 H 0.42216 0.33313 0.91385 0.0
H861 H 0.40255 0.20199 0.87445 0.0
H862 H 0.43998 0.19145 0.87165 0.0
H863 H 0.42441 0.21513 0.84042 0.0
C864 C 0.78704 0.30252 0.89889 0.0
C865 C 0.78233 0.29922 0.86416 0.0
C866 C 0.79425 0.32949 0.91277 0.0
C867 C 0.79711 0.3539 0.89142 0.0
C868 C 0.79405 0.35042 0.85611 0.0
C869 C 0.78658 0.32316 0.84291 0.0
C870 C 0.79722 0.33215 0.95054 0.0
C871 C 0.79711 0.3758 0.83244 0.0
C872 C 0.77577 0.42502 0.93219 0.0
C873 C 0.8026 0.43693 0.94122 0.0
C874 C 0.77388 0.39854 0.91516 0.0
C875 C 0.79946 0.38339 0.90656 0.0
C876 C 0.82672 0.3957 0.91438 0.0
C877 C 0.82799 0.42233 0.93173 0.0
C878 C 0.74433 0.3863 0.90744 0.0
C879 C 0.85447 0.38035 0.90529 0.0
H880 H 0.78441 0.28403 0.91544 0.0
H881 H 0.78286 0.32095 0.81608 0.0
H882 H 0.8176 0.34349 0.95698 0.0
H883 H 0.77908 0.34528 0.96075 0.0
H884 H 0.79703 0.31076 0.9633 0.0
H885 H 0.79833 0.36888 0.80564 0.0
H886 H 0.77822 0.39039 0.83551 0.0
H887 H 0.81676 0.38852 0.8385 0.0
H888 H 0.75595 0.43611 0.93909 0.0
H889 H 0.8488 0.43135 0.93848 0.0
H890 H 0.74116 0.3657 0.92133 0.0
H891 H 0.74257 0.3814 0.88015 0.0
H892 H 0.72658 0.40135 0.91455 0.0
H893 H 0.85631 0.36017 0.92027 0.0
H894 H 0.87382 0.39394 0.91015 0.0
H895 H 0.85439 0.37405 0.8783 0.0
C896 C 0.67491 0.26662 0.17905 0.0
C897 C 0.67156 0.27783 0.21167 0.0
C898 C 0.65091 0.26046 0.15893 0.0
C899 C 0.62274 0.26546 0.17181 0.0
C900 C 0.61915 0.27487 0.20562 0.0
C901 C 0.64371 0.28103 0.22524 0.0
C902 C 0.65583 0.25034 0.12313 0.0
C903 C 0.58947 0.28004 0.22041 0.0
C904 C 0.56897 0.2839 0.10314 0.0
C905 C 0.55656 0.25683 0.09652 0.0
C906 C 0.58949 0.28732 0.12882 0.0
C907 C 0.59757 0.26315 0.14865 0.0
C908 C 0.58388 0.23616 0.14337 0.0
C909 C 0.56369 0.23327 0.11723 0.0
C910 C 0.60369 0.31645 0.13347 0.0
C911 C 0.59156 0.20999 0.16425 0.0
H912 H 0.69651 0.26401 0.16867 0.0
H913 H 0.64114 0.28986 0.2504 0.0
H914 H 0.64302 0.23055 0.11804 0.0
H915 H 0.64844 0.26727 0.1053 0.0
H916 H 0.67897 0.24564 0.11778 0.0
H917 H 0.59017 0.28313 0.24817 0.0
H918 H 0.57995 0.29971 0.2089 0.0
H919 H 0.57487 0.26167 0.21464 0.0
H920 H 0.56355 0.30224 0.08736 0.0
H921 H 0.55397 0.21232 0.11257 0.0
H922 H 0.62687 0.315 0.12621 0.0
H923 H 0.60275 0.32305 0.16034 0.0
H924 H 0.59337 0.33357 0.11799 0.0
H925 H 0.61362 0.20251 0.15737 0.0
H926 H 0.57623 0.19182 0.16027 0.0
H927 H 0.59177 0.21557 0.19145 0.0
C928 C 0.81563 0.68049 0.16784 0.0
C929 C 0.80479 0.70444 0.15031 0.0
C930 C 0.82455 0.65546 0.15044 0.0
C931 C 0.82242 0.65447 0.1148 0.0
C932 C 0.81475 0.67987 0.09699 0.0
C933 C 0.80603 0.70454 0.11498 0.0
C934 C 0.83314 0.6291 0.17043 0.0
C935 C 0.81239 0.68003 0.05905 0.0
C936 C 0.8433 0.58841 0.06174 0.0
C937 C 0.81634 0.57476 0.05827 0.0
C938 C 0.8461 0.61391 0.08108 0.0
C939 C 0.82136 0.62601 0.09702 0.0
C940 C 0.79439 0.61174 0.09436 0.0
C941 C 0.79228 0.58641 0.07523 0.0
C942 C 0.87527 0.62832 0.08361 0.0
C943 C 0.76735 0.62368 0.11089 0.0
H944 H 0.81475 0.68032 0.19517 0.0
H945 H 0.798 0.72321 0.10137 0.0
H946 H 0.81439 0.6142 0.17237 0.0
H947 H 0.85099 0.61725 0.15772 0.0
H948 H 0.83999 0.63493 0.19636 0.0
H949 H 0.81125 0.70238 0.04882 0.0
H950 H 0.83105 0.66874 0.0473 0.0
H951 H 0.79247 0.66834 0.05155 0.0
H952 H 0.86203 0.57955 0.04884 0.0
H953 H 0.77137 0.57599 0.07313 0.0
H954 H 0.87977 0.63466 0.11005 0.0
H955 H 0.87536 0.64837 0.06824 0.0
H956 H 0.89298 0.61406 0.07445 0.0
H957 H 0.77077 0.62642 0.13836 0.0
H958 H 0.74825 0.60948 0.10719 0.0
H959 H 0.76233 0.64532 0.1003 0.0
C960 C 0.3282 0.78317 0.16713 0.0
C961 C 0.33253 0.77854 0.20171 0.0
C962 C 0.3505 0.79379 0.14638 0.0
C963 C 0.37784 0.80012 0.16053 0.0
C964 C 0.38124 0.79863 0.19602 0.0
C965 C 0.35854 0.78776 0.21623 0.0
C966 C 0.34566 0.79516 0.1088 0.0
C967 C 0.40976 0.80575 0.21231 0.0
C968 C 0.44061 0.7767 0.10505 0.0
C969 C 0.44949 0.80269 0.08979 0.0
C970 C 0.41802 0.77594 0.1287 0.0
C971 C 0.40379 0.80189 0.1379 0.0
C972 C 0.41329 0.82847 0.12374 0.0
C973 C 0.43599 0.82857 0.0997 0.0
C974 C 0.40876 0.74702 0.14294 0.0
C975 C 0.39894 0.85664 0.13319 0.0
H976 H 0.30794 0.77653 0.15587 0.0
H977 H 0.36203 0.78433 0.24294 0.0
H978 H 0.355 0.81525 0.09805 0.0
H979 H 0.35673 0.77659 0.09653 0.0
H980 H 0.32232 0.79419 0.10239 0.0
H981 H 0.40724 0.80961 0.23983 0.0
H982 H 0.42491 0.78739 0.20867 0.0
H983 H 0.41969 0.82515 0.20052 0.0
H984 H 0.45094 0.75653 0.09799 0.0
H985 H 0.4427 0.84876 0.08819 0.0
H986 H 0.38609 0.74238 0.13562 0.0
H987 H 0.40951 0.7475 0.17088 0.0
H988 H 0.42263 0.72896 0.13392 0.0
H989 H 0.37717 0.85765 0.12164 0.0
H990 H 0.41162 0.87564 0.12439 0.0
H991 H 0.39596 0.85814 0.16092 0.0
C992 C 0.22867 0.30149 0.13363 0.0
C993 C 0.23389 0.2984 0.16828 0.0
C994 C 0.22145 0.32842 0.11966 0.0
C995 C 0.21918 0.353 0.14082 0.0
C996 C 0.22279 0.34974 0.17608 0.0
C997 C 0.23018 0.32251 0.18939 0.0
C998 C 0.21786 0.33084 0.08194 0.0
C999 C 0.22041 0.37533 0.19956 0.0
C1000 C 0.24066 0.42365 0.09903 0.0
C1001 C 0.21382 0.43587 0.0906 0.0
C1002 C 0.24253 0.39721 0.11614 0.0
C1003 C 0.21692 0.38241 0.12544 0.0
C1004 C 0.18968 0.395 0.11818 0.0
C1005 C 0.18843 0.42158 0.10073 0.0
C1006 C 0.27206 0.38465 0.12323 0.0
C1007 C 0.1619 0.38002 0.12802 0.0
H1008 H 0.23091 0.28286 0.11722 0.0
H1009 H 0.2343 0.32042 0.21615 0.0
H1010 H 0.19754 0.34242 0.07586 0.0
H1011 H 0.23601 0.34362 0.07116 0.0
H1012 H 0.21752 0.30934 0.06942 0.0
H1013 H 0.2196 0.36861 0.22644 0.0
H1014 H 0.23939 0.3897 0.19588 0.0
H1015 H 0.20079 0.3882 0.19384 0.0
H1016 H 0.26049 0.43448 0.0916 0.0
H1017 H 0.16761 0.43084 0.09446 0.0
H1018 H 0.27472 0.36392 0.10945 0.0
H1019 H 0.27426 0.37989 0.15051 0.0
H1020 H 0.28987 0.39943 0.11555 0.0
H1021 H 0.14262 0.39375 0.12338 0.0
H1022 H 0.16233 0.37398 0.15509 0.0
H1023 H 0.15964 0.35971 0.11336 0.0
C1024 C 0.30407 0.21474 0.12347 0.0
C1025 C 0.30293 0.21584 0.1588 0.0
C1026 C 0.32992 0.20812 0.1064 0.0
C1027 C 0.35531 0.20246 0.12511 0.0
C1028 C 0.35367 0.20113 0.16077 0.0
C1029 C 0.32748 0.20784 0.17721 0.0
C1030 C 0.33056 0.20956 0.06838 0.0
C1031 C 0.38013 0.19504 0.18171 0.0
C1032 C 0.42307 0.17902 0.07663 0.0
C1033 C 0.43687 0.20571 0.07137 0.0
C1034 C 0.39675 0.17734 0.0947 0.0
C1035 C 0.38403 0.20293 0.10775 0.0
C1036 C 0.39826 0.22976 0.10313 0.0
C1037 C 0.42436 0.2308 0.08509 0.0
C1038 C 0.38227 0.14835 0.09922 0.0
C1039 C 0.3856 0.25762 0.11667 0.0
H1040 H 0.28502 0.22046 0.10911 0.0
H1041 H 0.32681 0.20873 0.20452 0.0
H1042 H 0.34209 0.22948 0.06031 0.0
H1043 H 0.34249 0.19084 0.05772 0.0
H1044 H 0.30846 0.20997 0.05752 0.0
H1045 H 0.37441 0.18978 0.20826 0.0
H1046 H 0.39276 0.17684 0.17088 0.0
H1047 H 0.39433 0.21439 0.18168 0.0
H1048 H 0.43256 0.15952 0.06617 0.0
H1049 H 0.43485 0.25155 0.08145 0.0
H1050 H 0.3614 0.14814 0.08555 0.0
H1051 H 0.37731 0.14452 0.12626 0.0
H1052 H 0.39586 0.13027 0.08968 0.0
H1053 H 0.36431 0.26175 0.10484 0.0
H1054 H 0.39982 0.27656 0.11178 0.0
H1055 H 0.38194 0.25585 0.14426 0.0
C1056 C 0.7537 0.37368 0.21758 0.0
C1057 C 0.75357 0.34517 0.20566 0.0
C1058 C 0.75941 0.3969 0.19558 0.0
C1059 C 0.76499 0.39129 0.161 0.0
C1060 C 0.76725 0.36234 0.14963 0.0
C1061 C 0.76152 0.33964 0.17213 0.0
C1062 C 0.75722 0.42743 0.20878 0.0
C1063 C 0.77334 0.3553 0.11309 0.0
C1064 C 0.74046 0.44434 0.09374 0.0
C1065 C 0.7668 0.45629 0.08297 0.0
C1066 C 0.73951 0.42386 0.11991 0.0
C1067 C 0.76549 0.41532 0.13593 0.0
C1068 C 0.79198 0.42818 0.12611 0.0
C1069 C 0.79234 0.44838 0.09966 0.0
C1070 C 0.7108 0.41056 0.12957 0.0
C1071 C 0.82007 0.4199 0.14276 0.0
H1072 H 0.74719 0.37795 0.24341 0.0
H1073 H 0.76124 0.31754 0.16294 0.0
H1074 H 0.77531 0.44086 0.19906 0.0
H1075 H 0.73678 0.43734 0.19987 0.0
H1076 H 0.75733 0.42812 0.23678 0.0
H1077 H 0.77732 0.33185 0.10907 0.0
H1078 H 0.75458 0.36186 0.09752 0.0
H1079 H 0.79243 0.36755 0.10384 0.0
H1080 H 0.72064 0.45033 0.08104 0.0
H1081 H 0.8128 0.45769 0.09174 0.0
H1082 H 0.70697 0.41288 0.15707 0.0
H1083 H 0.7111 0.38706 0.12383 0.0
H1084 H 0.69243 0.42059 0.11593 0.0
H1085 H 0.81789 0.42125 0.17059 0.0
H1086 H 0.83831 0.43393 0.13459 0.0
H1087 H 0.82549 0.39715 0.13645 0.0
C1088 C 0.68553 0.74874 0.18236 0.0
C1089 C 0.70982 0.75305 0.16162 0.0
C1090 C 0.65742 0.74915 0.16884 0.0
C1091 C 0.65362 0.75414 0.13386 0.0
C1092 C 0.67809 0.75933 0.11311 0.0
C1093 C 0.7058 0.75871 0.12723 0.0
C1094 C 0.63186 0.74357 0.19175 0.0
C1095 C 0.67508 0.76511 0.07579 0.0
C1096 C 0.58711 0.73024 0.08502 0.0
C1097 C 0.57274 0.75664 0.08036 0.0
C1098 C 0.61275 0.72877 0.10394 0.0
C1099 C 0.62421 0.75428 0.11856 0.0
C1100 C 0.60895 0.78065 0.1154 0.0
C1101 C 0.58349 0.78151 0.09637 0.0
C1102 C 0.62834 0.7002 0.10684 0.0
C1103 C 0.6203 0.80833 0.13064 0.0
H1104 H 0.68858 0.74407 0.20889 0.0
H1105 H 0.72454 0.7623 0.11119 0.0
H1106 H 0.61606 0.76155 0.18985 0.0
H1107 H 0.62061 0.72354 0.18374 0.0
H1108 H 0.63834 0.74117 0.21854 0.0
H1109 H 0.69627 0.76903 0.06326 0.0
H1110 H 0.66452 0.7464 0.06339 0.0
H1111 H 0.66108 0.78426 0.07168 0.0
H1112 H 0.57895 0.71091 0.07287 0.0
H1113 H 0.57241 0.80199 0.09328 0.0
H1114 H 0.63401 0.69582 0.1335 0.0
H1115 H 0.64886 0.70113 0.09224 0.0
H1116 H 0.61519 0.68191 0.09719 0.0
H1117 H 0.62592 0.80498 0.15751 0.0
H1118 H 0.60442 0.8263 0.12896 0.0
H1119 H 0.64038 0.81495 0.11726 0.0
C1120 C 0.26933 0.68627 0.1737 0.0
C1121 C 0.27926 0.68555 0.20705 0.0
C1122 C 0.26516 0.66077 0.15526 0.0
C1123 C 0.27094 0.63371 0.17051 0.0
C1124 C 0.2799 0.63272 0.20463 0.0
C1125 C 0.28393 0.65871 0.22256 0.0
C1126 C 0.25534 0.66288 0.11907 0.0
C1127 C 0.28611 0.60429 0.22181 0.0
C1128 C 0.23754 0.5701 0.12437 0.0
C1129 C 0.26045 0.56109 0.10346 0.0
C1130 C 0.24108 0.59267 0.14769 0.0
C1131 C 0.26816 0.60674 0.15013 0.0
C1132 C 0.29177 0.59685 0.13029 0.0
C1133 C 0.28765 0.5741 0.10725 0.0
C1134 C 0.2154 0.60239 0.16848 0.0
C1135 C 0.32101 0.61128 0.13213 0.0
H1136 H 0.26537 0.70698 0.16176 0.0
H1137 H 0.2918 0.65808 0.24824 0.0
H1138 H 0.27217 0.65376 0.10209 0.0
H1139 H 0.23536 0.64999 0.11543 0.0
H1140 H 0.25099 0.68555 0.11129 0.0
H1141 H 0.29083 0.60705 0.24905 0.0
H1142 H 0.26744 0.5894 0.21912 0.0
H1143 H 0.30499 0.59376 0.20953 0.0
H1144 H 0.21648 0.56004 0.12191 0.0
H1145 H 0.30551 0.56727 0.09131 0.0
H1146 H 0.20822 0.62402 0.15976 0.0
H1147 H 0.22144 0.60449 0.1954 0.0
H1148 H 0.19687 0.58719 0.16652 0.0
H1149 H 0.31948 0.63357 0.12192 0.0
H1150 H 0.33778 0.59934 0.11757 0.0
H1151 H 0.3281 0.61304 0.15872 0.0
C1152 C 0.31021 0.75792 0.90517 0.0
C1153 C 0.30617 0.75229 0.87077 0.0
C1154 C 0.33793 0.7586 0.91925 0.0
C1155 C 0.36239 0.75351 0.89846 0.0
C1156 C 0.35858 0.74853 0.86349 0.0
C1157 C 0.33045 0.74806 0.85 0.0
C1158 C 0.34096 0.76436 0.95657 0.0
C1159 C 0.38413 0.74306 0.84053 0.0
C1160 C 0.43246 0.78117 0.93584 0.0
C1161 C 0.44333 0.75635 0.95183 0.0
C1162 C 0.40698 0.7802 0.91684 0.0
C1163 C 0.39182 0.75377 0.91371 0.0
C1164 C 0.40341 0.72831 0.92831 0.0
C1165 C 0.42907 0.72988 0.94718 0.0
C1166 C 0.39549 0.80784 0.90164 0.0
C1167 C 0.38794 0.69968 0.92542 0.0
H1168 H 0.29148 0.76146 0.92124 0.0
H1169 H 0.32739 0.74342 0.82347 0.0
H1170 H 0.35162 0.7457 0.96894 0.0
H1171 H 0.35489 0.78357 0.96067 0.0
H1172 H 0.31977 0.76818 0.96914 0.0
H1173 H 0.37762 0.7406 0.81376 0.0
H1174 H 0.39984 0.76111 0.84239 0.0
H1175 H 0.39548 0.72309 0.84855 0.0
H1176 H 0.44345 0.8017 0.93891 0.0
H1177 H 0.43732 0.71059 0.95932 0.0
H1178 H 0.3754 0.81437 0.91505 0.0
H1179 H 0.38986 0.80447 0.87477 0.0
H1180 H 0.4113 0.82588 0.9033 0.0
H1181 H 0.36743 0.70051 0.94007 0.0
H1182 H 0.40118 0.68143 0.93504 0.0
H1183 H 0.38224 0.69528 0.89878 0.0
C1184 C 0.25445 0.33891 0.8595 0.0
C1185 C 0.2624 0.34445 0.82597 0.0
C1186 C 0.24876 0.3616 0.88202 0.0
C1187 C 0.25106 0.39056 0.87067 0.0
C1188 C 0.25664 0.39618 0.8361 0.0
C1189 C 0.26232 0.37297 0.81408 0.0
C1190 C 0.24267 0.35455 0.91856 0.0
C1191 C 0.25888 0.42672 0.82291 0.0
C1192 C 0.22382 0.44762 0.93212 0.0
C1193 C 0.24938 0.45548 0.94881 0.0
C1194 C 0.22414 0.42745 0.90563 0.0
C1195 C 0.25061 0.41457 0.89576 0.0
C1196 C 0.2766 0.42307 0.91178 0.0
C1197 C 0.27569 0.44351 0.93799 0.0
C1198 C 0.19603 0.41923 0.88897 0.0
C1199 C 0.30529 0.40974 0.90209 0.0
H1200 H 0.2547 0.31681 0.86867 0.0
H1201 H 0.26884 0.37725 0.78825 0.0
H1202 H 0.26144 0.36108 0.93412 0.0
H1203 H 0.2236 0.36682 0.92783 0.0
H1204 H 0.23866 0.3311 0.92255 0.0
H1205 H 0.25874 0.42742 0.79491 0.0
H1206 H 0.24081 0.44017 0.83267 0.0
H1207 H 0.27933 0.43659 0.83181 0.0
H1208 H 0.20337 0.45693 0.94006 0.0
H1209 H 0.29552 0.44946 0.95068 0.0
H1210 H 0.19057 0.39648 0.89527 0.0
H1211 H 0.1982 0.42059 0.86114 0.0
H1212 H 0.17782 0.43328 0.89716 0.0
H1213 H 0.30496 0.38624 0.90779 0.0
H1214 H 0.32368 0.41974 0.91572 0.0
H1215 H 0.30911 0.41209 0.87459 0.0
C1216 C 0.71197 0.21567 0.90889 0.0
C1217 C 0.71322 0.21666 0.87356 0.0
C1218 C 0.68609 0.20898 0.92587 0.0
C1219 C 0.6608 0.20313 0.90708 0.0
C1220 C 0.66254 0.20171 0.87143 0.0
C1221 C 0.68876 0.2085 0.85508 0.0
C1222 C 0.68533 0.21053 0.96389 0.0
C1223 C 0.63618 0.19543 0.85041 0.0
C1224 C 0.59309 0.17938 0.95548 0.0
C1225 C 0.57914 0.20601 0.96064 0.0
C1226 C 0.61944 0.17782 0.93745 0.0
C1227 C 0.63202 0.20346 0.92434 0.0
C1228 C 0.61763 0.23021 0.92883 0.0
C1229 C 0.5915 0.23113 0.94683 0.0
C1230 C 0.63411 0.14891 0.93305 0.0
C1231 C 0.63013 0.25812 0.91522 0.0
H1232 H 0.73095 0.2215 0.92331 0.0
H1233 H 0.68952 0.2093 0.82777 0.0
H1234 H 0.67363 0.23037 0.97183 0.0
H1235 H 0.67351 0.19174 0.97457 0.0
H1236 H 0.70739 0.21114 0.97484 0.0
H1237 H 0.64201 0.19015 0.8239 0.0
H1238 H 0.62362 0.17718 0.86125 0.0
H1239 H 0.62187 0.2147 0.85032 0.0
H1240 H 0.58371 0.15986 0.966 0.0
H1241 H 0.58088 0.25182 0.95039 0.0
H1242 H 0.65492 0.14885 0.94683 0.0
H1243 H 0.63918 0.14507 0.90605 0.0
H1244 H 0.62058 0.13077 0.94256 0.0
H1245 H 0.65137 0.26243 0.92711 0.0
H1246 H 0.61578 0.27697 0.91999 0.0
H1247 H 0.63387 0.25629 0.88765 0.0
C1248 C 0.73233 0.65973 0.80945 0.0
C1249 C 0.73686 0.68657 0.82501 0.0
C1250 C 0.73643 0.63374 0.82736 0.0
C1251 C 0.74531 0.63474 0.8615 0.0
C1252 C 0.75096 0.6618 0.87681 0.0
C1253 C 0.74673 0.6873 0.85838 0.0
C1254 C 0.73036 0.6053 0.81013 0.0
C1255 C 0.7607 0.66392 0.91302 0.0
C1256 C 0.72864 0.57501 0.92463 0.0
C1257 C 0.75587 0.56209 0.92849 0.0
C1258 C 0.72451 0.59777 0.90161 0.0
C1259 C 0.74814 0.60776 0.88187 0.0
C1260 C 0.77526 0.59378 0.88438 0.0
C1261 C 0.77881 0.5712 0.90767 0.0
C1262 C 0.69523 0.6121 0.89969 0.0
C1263 C 0.80096 0.60361 0.86369 0.0
H1264 H 0.72451 0.65908 0.78375 0.0
H1265 H 0.75059 0.70802 0.87036 0.0
H1266 H 0.74908 0.59048 0.81287 0.0
H1267 H 0.71149 0.59469 0.82233 0.0
H1268 H 0.7257 0.60807 0.78287 0.0
H1269 H 0.76495 0.6866 0.92085 0.0
H1270 H 0.74387 0.65472 0.92995 0.0
H1271 H 0.78072 0.6511 0.91671 0.0
H1272 H 0.71077 0.5681 0.94049 0.0
H1273 H 0.7999 0.56121 0.91019 0.0
H1274 H 0.6882 0.61386 0.87308 0.0
H1275 H 0.69666 0.6344 0.90992 0.0
H1276 H 0.67846 0.6001 0.91419 0.0
H1277 H 0.79497 0.60572 0.83675 0.0
H1278 H 0.81953 0.58847 0.86569 0.0
H1279 H 0.80804 0.62526 0.87245 0.0
loop_
_geom_bond_atom_site_label_1
_geom_bond_atom_site_label_2
_geom_bond_distance
_geom_bond_site_symmetry_2
_ccdc_geom_bond_type
H0 C6 0.930 . S
H1 C9 0.931 . S
H2 C11 0.931 . S
H3 C13 0.930 . S
H4 C15 0.930 . S
H5 C17 0.931 . S
C6 H0 0.930 . S
C6 C7 1.380 . S
C6 C8 1.394 . S
C7 C6 1.380 . S
C7 C11 1.382 . S
C8 C6 1.394 . S
C8 C9 1.400 . S
C9 H1 0.931 . S
C9 C8 1.400 . S
C9 C10 1.375 . S
C10 C9 1.375 . S
C10 C11 1.415 . S
C10 C12 1.501 . S
C11 H2 0.931 . S
C11 C7 1.382 . S
C11 C10 1.415 . S
C12 C10 1.501 . S
C12 C13 1.384 . S
C12 C17 1.408 . S
C13 H3 0.930 . S
C13 C12 1.384 . S
C13 C14 1.389 . S
C14 C13 1.389 . S
C14 C15 1.405 . S
C15 H4 0.930 . S
C15 C14 1.405 . S
C15 C16 1.364 . S
C16 C15 1.364 . S
C16 C17 1.400 . S
C17 H5 0.931 . S
C17 C12 1.408 . S
C17 C16 1.400 . S
H18 C24 0.930 . S
H19 C27 0.931 . S
H20 C29 0.931 . S
H21 C31 0.930 . S
H22 C33 0.930 . S
H23 C35 0.931 . S
C24 H18 0.930 . S
C24 C25 1.380 . S
C24 C26 1.394 . S
C25 C24 1.380 . S
C25 C29 1.382 . S
C26 C24 1.394 . S
C26 C27 1.400 . S
C27 H19 0.931 . S
C27 C26 1.400 . S
C27 C28 1.375 . S
C28 C27 1.375 . S
C28 C29 1.415 . S
C28 C30 1.501 . S
C29 H20 0.931 . S
C29 C25 1.382 . S
C29 C28 1.415 . S
C30 C28 1.501 . S
C30 C31 1.384 . S
C30 C35 1.408 . S
C31 H21 0.930 . S
C31 C30 1.384 . S
C31 C32 1.389 . S
C32 C31 1.389 . S
C32 C33 1.405 . S
C33 H22 0.930 . S
C33 C32 1.405 . S
C33 C34 1.364 . S
C34 C33 1.364 . S
C34 C35 1.400 . S
C35 H23 0.931 . S
C35 C30 1.408 . S
C35 C34 1.400 . S
H36 C42 0.930 . S
H37 C45 0.931 . S
H38 C47 0.931 . S
H39 C49 0.930 . S
H40 C51 0.930 . S
H41 C53 0.931 . S
C42 H36 0.930 . S
C42 C43 1.380 . S
C42 C44 1.394 . S
C43 C42 1.380 . S
C43 C47 1.382 . S
C44 C42 1.394 . S
C44 C45 1.400 . S
C45 H37 0.931 . S
C45 C44 1.400 . S
C45 C46 1.375 . S
C46 C45 1.375 . S
C46 C47 1.415 . S
C46 C48 1.501 . S
C47 H38 0.931 . S
C47 C43 1.382 . S
C47 C46 1.415 . S
C48 C46 1.501 . S
C48 C49 1.384 . S
C48 C53 1.408 . S
C49 H39 0.930 . S
C49 C48 1.384 . S
C49 C50 1.389 . S
C50 C49 1.389 . S
C50 C51 1.405 . S
C51 H40 0.930 . S
C51 C50 1.405 . S
C51 C52 1.364 . S
C52 C51 1.364 . S
C52 C53 1.400 . S
C53 H41 0.931 . S
C53 C48 1.408 . S
C53 C52 1.400 . S
H54 C60 0.930 . S
H55 C63 0.931 . S
H56 C65 0.931 . S
H57 C67 0.930 . S
H58 C69 0.930 . S
H59 C71 0.931 . S
C60 H54 0.930 . S
C60 C61 1.380 . S
C60 C62 1.394 . S
C61 C60 1.380 . S
C61 C65 1.382 . S
C62 C60 1.394 . S
C62 C63 1.400 . S
C63 H55 0.931 . S
C63 C62 1.400 . S
C63 C64 1.375 . S
C64 C63 1.375 . S
C64 C65 1.415 . S
C64 C66 1.501 . S
C65 H56 0.931 . S
C65 C61 1.382 . S
C65 C64 1.415 . S
C66 C64 1.501 . S
C66 C67 1.384 . S
C66 C71 1.408 . S
C67 H57 0.930 . S
C67 C66 1.384 . S
C67 C68 1.389 . S
C68 C67 1.389 . S
C68 C69 1.405 . S
C69 H58 0.930 . S
C69 C68 1.405 . S
C69 C70 1.364 . S
C70 C69 1.364 . S
C70 C71 1.400 . S
C71 H59 0.931 . S
C71 C66 1.408 . S
C71 C70 1.400 . S
H72 C78 0.930 . S
H73 C81 0.931 . S
H74 C83 0.931 . S
H75 C85 0.930 . S
H76 C87 0.930 . S
H77 C89 0.931 . S
C78 H72 0.930 . S
C78 C79 1.380 . S
C78 C80 1.394 . S
C79 C78 1.380 . S
C79 C83 1.382 . S
C80 C78 1.394 . S
C80 C81 1.400 . S
C81 H73 0.931 . S
C81 C80 1.400 . S
C81 C82 1.375 . S
C82 C81 1.375 . S
C82 C83 1.415 . S
C82 C84 1.501 . S
C83 H74 0.931 . S
C83 C79 1.382 . S
C83 C82 1.415 . S
C84 C82 1.501 . S
C84 C85 1.384 . S
C84 C89 1.408 . S
C85 H75 0.930 . S
C85 C84 1.384 . S
C85 C86 1.389 . S
C86 C85 1.389 . S
C86 C87 1.405 . S
C87 H76 0.930 . S
C87 C86 1.405 . S
C87 C88 1.364 . S
C88 C87 1.364 . S
C88 C89 1.400 . S
C89 H77 0.931 . S
C89 C84 1.408 . S
C89 C88 1.400 . S
H90 C96 0.930 . S
H91 C99 0.931 . S
H92 C101 0.931 . S
H93 C103 0.930 . S
H94 C105 0.930 . S
H95 C107 0.931 . S
C96 H90 0.930 . S
C96 C97 1.380 . S
C96 C98 1.394 . S
C97 C96 1.380 . S
C97 C101 1.382 . S
C98 C96 1.394 . S
C98 C99 1.400 . S
C99 H91 0.931 . S
C99 C98 1.400 . S
C99 C100 1.375 . S
C100 C99 1.375 . S
C100 C101 1.415 . S
C100 C102 1.501 . S
C101 H92 0.931 . S
C101 C97 1.382 . S
C101 C100 1.415 . S
C102 C100 1.501 . S
C102 C103 1.384 . S
C102 C107 1.408 . S
C103 H93 0.930 . S
C103 C102 1.384 . S
C103 C104 1.389 . S
C104 C103 1.389 . S
C104 C105 1.405 . S
C105 H94 0.930 . S
C105 C104 1.405 . S
C105 C106 1.364 . S
C106 C105 1.364 . S
C106 C107 1.400 . S
C107 H95 0.931 . S
C107 C102 1.408 . S
C107 C106 1.400 . S
H108 C114 0.930 . S
H109 C117 0.931 . S
H110 C119 0.931 . S
H111 C121 0.930 . S
H112 C123 0.930 . S
H113 C125 0.931 . S
C114 H108 0.930 . S
C114 C115 1.380 . S
C114 C116 1.394 . S
C115 C114 1.380 . S
C115 C119 1.382 . S
C116 C114 1.394 . S
C116 C117 1.400 . S
C117 H109 0.931 . S
C117 C116 1.400 . S
C117 C118 1.375 . S
C118 C117 1.375 . S
C118 C119 1.415 . S
C118 C120 1.501 . S
C119 H110 0.931 . S
C119 C115 1.382 . S
C119 C118 1.415 . S
C120 C118 1.501 . S
C120 C121 1.384 . S
C120 C125 1.408 . S
C121 H111 0.930 . S
C121 C120 1.384 . S
C121 C122 1.389 . S
C122 C121 1.389 . S
C122 C123 1.405 . S
C123 H112 0.930 . S
C123 C122 1.405 . S
C123 C124 1.364 . S
C124 C123 1.364 . S
C124 C125 1.400 . S
C125 H113 0.931 . S
C125 C120 1.408 . S
C125 C124 1.400 . S
H126 C132 0.930 . S
H127 C135 0.931 . S
H128 C137 0.931 . S
H129 C139 0.930 . S
H130 C141 0.930 . S
H131 C143 0.931 . S
C132 H126 0.930 . S
C132 C133 1.380 . S
C132 C134 1.394 . S
C133 C132 1.380 . S
C133 C137 1.382 . S
C134 C132 1.394 . S
C134 C135 1.400 . S
C135 H127 0.931 . S
C135 C134 1.400 . S
C135 C136 1.375 . S
C136 C135 1.375 . S
C136 C137 1.415 . S
C136 C138 1.501 . S
C137 H128 0.931 . S
C137 C133 1.382 . S
C137 C136 1.415 . S
C138 C136 1.501 . S
C138 C139 1.384 . S
C138 C143 1.408 . S
C139 H129 0.930 . S
C139 C138 1.384 . S
C139 C140 1.389 . S
C140 C139 1.389 . S
C140 C141 1.405 . S
C141 H130 0.930 . S
C141 C140 1.405 . S
C141 C142 1.364 . S
C142 C141 1.364 . S
C142 C143 1.400 . S
C143 H131 0.931 . S
C143 C138 1.408 . S
C143 C142 1.400 . S
C144 O146 1.247 . S
C144 O148 1.258 . S
C145 O152 1.247 . S
C145 O153 1.258 . S
O146 C144 1.247 . S
O146 Zn147 2.028 1_655 S
Zn147 O146 2.028 1_455 S
Zn147 O151 2.035 . S
Zn147 O153 2.035 . S
Zn147 O154 2.028 1_455 S
O148 C144 1.258 . S
O148 Zn149 2.035 1_655 S
Zn149 O148 2.035 1_455 S
Zn149 O150 2.028 . S
Zn149 O152 2.028 . S
Zn149 O155 2.035 1_455 S
O150 Zn149 2.028 . S
O150 C156 1.247 . S
O151 Zn147 2.035 . S
O151 C156 1.258 . S
O152 C145 1.247 . S
O152 Zn149 2.028 . S
O153 C145 1.258 . S
O153 Zn147 2.035 . S
O154 Zn147 2.028 1_655 S
O154 C157 1.247 . S
O155 Zn149 2.035 1_655 S
O155 C157 1.258 . S
C156 O150 1.247 . S
C156 O151 1.258 . S
C157 O154 1.247 . S
C157 O155 1.258 . S
C158 O160 1.247 . S
C158 O162 1.258 . S
C159 O166 1.247 . S
C159 O167 1.258 . S
O160 C158 1.247 . S
O160 Zn161 2.028 . S
Zn161 O160 2.028 . S
Zn161 O165 2.035 1_545 S
Zn161 O167 2.035 1_545 S
Zn161 O168 2.028 . S
O162 C158 1.258 . S
O162 Zn163 2.056 . S
Zn163 O162 2.056 . S
Zn163 O164 2.007 1_545 S
Zn163 O166 2.007 1_545 S
Zn163 O169 2.056 . S
O164 Zn163 2.007 1_565 S
O164 C170 1.247 . S
O165 Zn161 2.035 1_565 S
O165 C170 1.258 . S
O166 C159 1.247 . S
O166 Zn163 2.007 1_565 S
O167 C159 1.258 . S
O167 Zn161 2.035 1_565 S
O168 Zn161 2.028 . S
O168 C171 1.247 . S
O169 Zn163 2.056 . S
O169 C171 1.258 . S
C170 O164 1.247 . S
C170 O165 1.258 . S
C171 O168 1.247 . S
C171 O169 1.258 . S
C172 O174 1.247 . S
C172 O176 1.258 . S
C173 O180 1.247 . S
C173 O181 1.258 . S
O174 C172 1.247 . S
O174 Zn175 2.028 1_655 S
Zn175 O174 2.028 1_455 S
Zn175 O179 2.035 . S
Zn175 O181 2.035 . S
Zn175 O182 2.028 1_455 S
O176 C172 1.258 . S
O176 Zn177 2.035 1_655 S
Zn177 O176 2.035 1_455 S
Zn177 O178 2.028 . S
Zn177 O180 2.028 . S
Zn177 O183 2.035 1_455 S
O178 Zn177 2.028 . S
O178 C184 1.247 . S
O179 Zn175 2.035 . S
O179 C184 1.258 . S
O180 C173 1.247 . S
O180 Zn177 2.028 . S
O181 C173 1.258 . S
O181 Zn175 2.035 . S
O182 Zn175 2.028 1_655 S
O182 C185 1.247 . S
O183 Zn177 2.035 1_655 S
O183 C185 1.258 . S
C184 O178 1.247 . S
C184 O179 1.258 . S
C185 O182 1.247 . S
C185 O183 1.258 . S
C186 O188 1.247 . S
C186 O190 1.258 . S
C187 O194 1.247 . S
C187 O195 1.258 . S
O188 C186 1.247 . S
O188 Zn189 2.051 . S
Zn189 O188 2.051 . S
Zn189 O193 2.012 1_545 S
Zn189 O195 2.012 1_545 S
Zn189 O196 2.051 . S
O190 C186 1.258 . S
O190 Zn191 2.045 . S
Zn191 O190 2.045 . S
Zn191 O192 2.019 1_545 S
Zn191 O194 2.019 1_545 S
Zn191 O197 2.045 . S
O192 Zn191 2.019 1_565 S
O192 C198 1.247 . S
O193 Zn189 2.012 1_565 S
O193 C198 1.258 . S
O194 C187 1.247 . S
O194 Zn191 2.019 1_565 S
O195 C187 1.258 . S
O195 Zn189 2.012 1_565 S
O196 Zn189 2.051 . S
O196 C199 1.247 . S
O197 Zn191 2.045 . S
O197 C199 1.258 . S
C198 O192 1.247 . S
C198 O193 1.258 . S
C199 O196 1.247 . S
C199 O197 1.258 . S
C200 O202 1.247 . S
C200 O204 1.258 . S
C201 O208 1.247 . S
C201 O209 1.258 . S
O202 C200 1.247 . S
O202 Zn203 2.028 . S
Zn203 O202 2.028 . S
Zn203 O207 2.035 . S
Zn203 O209 2.035 1_554 S
Zn203 O210 2.028 1_554 S
O204 C200 1.258 . S
O204 Zn205 2.035 . S
Zn205 O204 2.035 . S
Zn205 O206 2.028 . S
Zn205 O208 2.028 1_554 S
Zn205 O211 2.035 1_554 S
O206 Zn205 2.028 . S
O206 C212 1.247 . S
O207 Zn203 2.035 . S
O207 C212 1.258 . S
O208 C201 1.247 . S
O208 Zn205 2.028 1_556 S
O209 C201 1.258 . S
O209 Zn203 2.035 1_556 S
O210 Zn203 2.028 1_556 S
O210 C213 1.247 . S
O211 Zn205 2.035 1_556 S
O211 C213 1.258 . S
C212 O206 1.247 . S
C212 O207 1.258 . S
C213 O210 1.247 . S
C213 O211 1.258 . S
C214 O216 1.247 . S
C214 O218 1.258 . S
C215 O222 1.247 . S
C215 O223 1.258 . S
O216 C214 1.247 . S
O216 Zn217 2.046 . S
Zn217 O216 2.046 . S
Zn217 O221 2.054 . S
Zn217 O223 2.017 1_554 S
Zn217 O224 2.010 1_554 S
O218 C214 1.258 . S
O218 Zn219 2.056 . S
Zn219 O218 2.056 . S
Zn219 O220 2.049 . S
Zn219 O222 2.007 1_554 S
Zn219 O225 2.015 1_554 S
O220 Zn219 2.049 . S
O220 C226 1.247 . S
O221 Zn217 2.054 . S
O221 C226 1.258 . S
O222 C215 1.247 . S
O222 Zn219 2.007 1_556 S
O223 C215 1.258 . S
O223 Zn217 2.017 1_556 S
O224 Zn217 2.010 1_556 S
O224 C227 1.247 . S
O225 Zn219 2.015 1_556 S
O225 C227 1.258 . S
C226 O220 1.247 . S
C226 O221 1.258 . S
C227 O224 1.247 . S
C227 O225 1.258 . S
C228 O230 1.247 . S
C228 O232 1.258 . S
C229 O236 1.247 . S
C229 O237 1.258 . S
O230 C228 1.247 . S
O230 Zn231 2.007 1_556 S
Zn231 O230 2.007 1_554 S
Zn231 O235 2.014 1_554 S
Zn231 O237 2.056 . S
Zn231 O238 2.049 . S
O232 C228 1.258 . S
O232 Zn233 2.014 1_556 S
Zn233 O232 2.014 1_554 S
Zn233 O234 2.006 1_554 S
Zn233 O236 2.050 . S
Zn233 O239 2.057 . S
O234 Zn233 2.006 1_556 S
O234 C240 1.247 . S
O235 Zn231 2.014 1_556 S
O235 C240 1.258 . S
O236 C229 1.247 . S
O236 Zn233 2.050 . S
O237 C229 1.258 . S
O237 Zn231 2.056 . S
O238 Zn231 2.049 . S
O238 C241 1.247 . S
O239 Zn233 2.057 . S
O239 C241 1.258 . S
C240 O234 1.247 . S
C240 O235 1.258 . S
C241 O238 1.247 . S
C241 O239 1.258 . S
C242 O244 1.247 . S
C242 O246 1.258 . S
C243 O250 1.247 . S
C243 O251 1.258 . S
O244 C242 1.247 . S
O244 Zn245 2.036 . S
Zn245 O244 2.036 . S
Zn245 O249 2.044 . S
Zn245 O251 2.027 1_554 S
Zn245 O252 2.019 1_554 S
O246 C242 1.258 . S
O246 Zn247 2.046 . S
Zn247 O246 2.046 . S
Zn247 O248 2.039 . S
Zn247 O250 2.017 1_554 S
Zn247 O253 2.024 1_554 S
O248 Zn247 2.039 . S
O248 C254 1.247 . S
O249 Zn245 2.044 . S
O249 C254 1.258 . S
O250 C243 1.247 . S
O250 Zn247 2.017 1_556 S
O251 C243 1.258 . S
O251 Zn245 2.027 1_556 S
O252 Zn245 2.019 1_556 S
O252 C255 1.247 . S
O253 Zn247 2.024 1_556 S
O253 C255 1.258 . S
C254 O248 1.247 . S
C254 O249 1.258 . S
C255 O252 1.247 . S
C255 O253 1.258 . S
C256 C257 1.391 . S
C256 C258 1.394 . S
C256 H272 0.931 . S
C257 C256 1.391 . S
C257 C261 1.376 . S
C258 C256 1.394 . S
C258 C259 1.369 . S
C258 C262 1.531 . S
C259 C258 1.369 . S
C259 C260 1.410 . S
C259 C267 1.503 . S
C260 C259 1.410 . S
C260 C261 1.392 . S
C260 C263 1.511 . S
C261 C257 1.376 . S
C261 C260 1.392 . S
C261 H273 0.929 . S
C262 C258 1.531 . S
C262 H274 0.960 . S
C262 H275 0.962 . S
C262 H276 0.960 . S
C263 C260 1.511 . S
C263 H277 0.961 . S
C263 H278 0.961 . S
C263 H279 0.961 . S
C264 C265 1.370 . S
C264 C266 1.363 . S
C264 H280 0.931 . S
C265 C264 1.370 . S
C265 C269 1.408 . S
C266 C264 1.363 . S
C266 C267 1.370 . S
C266 C270 1.524 . S
C267 C259 1.503 . S
C267 C266 1.370 . S
C267 C268 1.403 . S
C268 C267 1.403 . S
C268 C269 1.404 . S
C268 C271 1.539 . S
C269 C265 1.408 . S
C269 C268 1.404 . S
C269 H281 0.930 . S
C270 C266 1.524 . S
C270 H282 0.956 . S
C270 H283 0.961 . S
C270 H284 0.961 . S
C271 C268 1.539 . S
C271 H285 0.958 . S
C271 H286 0.961 . S
C271 H287 0.960 . S
H272 C256 0.931 . S
H273 C261 0.929 . S
H274 C262 0.960 . S
H275 C262 0.962 . S
H276 C262 0.960 . S
H277 C263 0.961 . S
H278 C263 0.961 . S
H279 C263 0.961 . S
H280 C264 0.931 . S
H281 C269 0.930 . S
H282 C270 0.956 . S
H283 C270 0.961 . S
H284 C270 0.961 . S
H285 C271 0.958 . S
H286 C271 0.961 . S
H287 C271 0.960 . S
C288 C289 1.391 . S
C288 C290 1.394 . S
C288 H304 0.931 . S
C289 C288 1.391 . S
C289 C293 1.376 . S
C290 C288 1.394 . S
C290 C291 1.369 . S
C290 C294 1.531 . S
C291 C290 1.369 . S
C291 C292 1.410 . S
C291 C299 1.503 . S
C292 C291 1.410 . S
C292 C293 1.392 . S
C292 C295 1.511 . S
C293 C289 1.376 . S
C293 C292 1.392 . S
C293 H305 0.929 . S
C294 C290 1.531 . S
C294 H306 0.960 . S
C294 H307 0.962 . S
C294 H308 0.960 . S
C295 C292 1.511 . S
C295 H309 0.961 . S
C295 H310 0.961 . S
C295 H311 0.961 . S
C296 C297 1.370 . S
C296 C298 1.363 . S
C296 H312 0.931 . S
C297 C296 1.370 . S
C297 C301 1.408 . S
C298 C296 1.363 . S
C298 C299 1.370 . S
C298 C302 1.524 . S
C299 C291 1.503 . S
C299 C298 1.370 . S
C299 C300 1.403 . S
C300 C299 1.403 . S
C300 C301 1.404 . S
C300 C303 1.539 . S
C301 C297 1.408 . S
C301 C300 1.404 . S
C301 H313 0.930 . S
C302 C298 1.524 . S
C302 H314 0.956 . S
C302 H315 0.961 . S
C302 H316 0.961 . S
C303 C300 1.539 . S
C303 H317 0.958 . S
C303 H318 0.961 . S
C303 H319 0.960 . S
H304 C288 0.931 . S
H305 C293 0.929 . S
H306 C294 0.960 . S
H307 C294 0.962 . S
H308 C294 0.960 . S
H309 C295 0.961 . S
H310 C295 0.961 . S
H311 C295 0.961 . S
H312 C296 0.931 . S
H313 C301 0.930 . S
H314 C302 0.956 . S
H315 C302 0.961 . S
H316 C302 0.961 . S
H317 C303 0.958 . S
H318 C303 0.961 . S
H319 C303 0.960 . S
C320 C321 1.391 . S
C320 C322 1.394 . S
C320 H336 0.931 . S
C321 C320 1.391 . S
C321 C325 1.376 . S
C322 C320 1.394 . S
C322 C323 1.369 . S
C322 C326 1.531 . S
C323 C322 1.369 . S
C323 C324 1.410 . S
C323 C331 1.503 . S
C324 C323 1.410 . S
C324 C325 1.392 . S
C324 C327 1.511 . S
C325 C321 1.376 . S
C325 C324 1.392 . S
C325 H337 0.929 . S
C326 C322 1.531 . S
C326 H338 0.960 . S
C326 H339 0.962 . S
C326 H340 0.960 . S
C327 C324 1.511 . S
C327 H341 0.961 . S
C327 H342 0.961 . S
C327 H343 0.961 . S
C328 C329 1.370 . S
C328 C330 1.363 . S
C328 H344 0.931 . S
C329 C328 1.370 . S
C329 C333 1.408 . S
C330 C328 1.363 . S
C330 C331 1.370 . S
C330 C334 1.524 . S
C331 C323 1.503 . S
C331 C330 1.370 . S
C331 C332 1.403 . S
C332 C331 1.403 . S
C332 C333 1.404 . S
C332 C335 1.539 . S
C333 C329 1.408 . S
C333 C332 1.404 . S
C333 H345 0.930 . S
C334 C330 1.524 . S
C334 H346 0.956 . S
C334 H347 0.961 . S
C334 H348 0.961 . S
C335 C332 1.539 . S
C335 H349 0.958 . S
C335 H350 0.961 . S
C335 H351 0.960 . S
H336 C320 0.931 . S
H337 C325 0.929 . S
H338 C326 0.960 . S
H339 C326 0.962 . S
H340 C326 0.960 . S
H341 C327 0.961 . S
H342 C327 0.961 . S
H343 C327 0.961 . S
H344 C328 0.931 . S
H345 C333 0.930 . S
H346 C334 0.956 . S
H347 C334 0.961 . S
H348 C334 0.961 . S
H349 C335 0.958 . S
H350 C335 0.961 . S
H351 C335 0.960 . S
C352 C353 1.391 . S
C352 C354 1.394 . S
C352 H368 0.931 . S
C353 C352 1.391 . S
C353 C357 1.376 . S
C354 C352 1.394 . S
C354 C355 1.369 . S
C354 C358 1.531 . S
C355 C354 1.369 . S
C355 C356 1.410 . S
C355 C363 1.503 . S
C356 C355 1.410 . S
C356 C357 1.392 . S
C356 C359 1.511 . S
C357 C353 1.376 . S
C357 C356 1.392 . S
C357 H369 0.929 . S
C358 C354 1.531 . S
C358 H370 0.960 . S
C358 H371 0.962 . S
C358 H372 0.960 . S
C359 C356 1.511 . S
C359 H373 0.961 . S
C359 H374 0.961 . S
C359 H375 0.961 . S
C360 C361 1.370 . S
C360 C362 1.363 . S
C360 H376 0.931 . S
C361 C360 1.370 . S
C361 C365 1.408 . S
C362 C360 1.363 . S
C362 C363 1.370 . S
C362 C366 1.524 . S
C363 C355 1.503 . S
C363 C362 1.370 . S
C363 C364 1.403 . S
C364 C363 1.403 . S
C364 C365 1.404 . S
C364 C367 1.539 . S
C365 C361 1.408 . S
C365 C364 1.404 . S
C365 H377 0.930 . S
C366 C362 1.524 . S
C366 H378 0.956 . S
C366 H379 0.961 . S
C366 H380 0.961 . S
C367 C364 1.539 . S
C367 H381 0.958 . S
C367 H382 0.961 . S
C367 H383 0.960 . S
H368 C352 0.931 . S
H369 C357 0.929 . S
H370 C358 0.960 . S
H371 C358 0.962 . S
H372 C358 0.960 . S
H373 C359 0.961 . S
H374 C359 0.961 . S
H375 C359 0.961 . S
H376 C360 0.931 . S
H377 C365 0.930 . S
H378 C366 0.956 . S
H379 C366 0.961 . S
H380 C366 0.961 . S
H381 C367 0.958 . S
H382 C367 0.961 . S
H383 C367 0.960 . S
C384 C385 1.391 . S
C384 C386 1.394 . S
C384 H400 0.931 . S
C385 C384 1.391 . S
C385 C389 1.376 . S
C386 C384 1.394 . S
C386 C387 1.369 . S
C386 C390 1.531 . S
C387 C386 1.369 . S
C387 C388 1.410 . S
C387 C395 1.503 . S
C388 C387 1.410 . S
C388 C389 1.392 . S
C388 C391 1.511 . S
C389 C385 1.376 . S
C389 C388 1.392 . S
C389 H401 0.929 . S
C390 C386 1.531 . S
C390 H402 0.960 . S
C390 H403 0.962 . S
C390 H404 0.960 . S
C391 C388 1.511 . S
C391 H405 0.961 . S
C391 H406 0.961 . S
C391 H407 0.961 . S
C392 C393 1.370 . S
C392 C394 1.363 . S
C392 H408 0.931 . S
C393 C392 1.370 . S
C393 C397 1.408 . S
C394 C392 1.363 . S
C394 C395 1.370 . S
C394 C398 1.524 . S
C395 C387 1.503 . S
C395 C394 1.370 . S
C395 C396 1.403 . S
C396 C395 1.403 . S
C396 C397 1.404 . S
C396 C399 1.539 . S
C397 C393 1.408 . S
C397 C396 1.404 . S
C397 H409 0.930 . S
C398 C394 1.524 . S
C398 H410 0.956 . S
C398 H411 0.961 . S
C398 H412 0.961 . S
C399 C396 1.539 . S
C399 H413 0.958 . S
C399 H414 0.961 . S
C399 H415 0.960 . S
H400 C384 0.931 . S
H401 C389 0.929 . S
H402 C390 0.960 . S
H403 C390 0.962 . S
H404 C390 0.960 . S
H405 C391 0.961 . S
H406 C391 0.961 . S
H407 C391 0.961 . S
H408 C392 0.931 . S
H409 C397 0.930 . S
H410 C398 0.956 . S
H411 C398 0.961 . S
H412 C398 0.961 . S
H413 C399 0.958 . S
H414 C399 0.961 . S
H415 C399 0.960 . S
C416 C417 1.391 . S
C416 C418 1.394 . S
C416 H432 0.931 . S
C417 C416 1.391 . S
C417 C421 1.376 . S
C418 C416 1.394 . S
C418 C419 1.369 . S
C418 C422 1.531 . S
C419 C418 1.369 . S
C419 C420 1.410 . S
C419 C427 1.503 . S
C420 C419 1.410 . S
C420 C421 1.392 . S
C420 C423 1.511 . S
C421 C417 1.376 . S
C421 C420 1.392 . S
C421 H433 0.929 . S
C422 C418 1.531 . S
C422 H434 0.960 . S
C422 H435 0.962 . S
C422 H436 0.960 . S
C423 C420 1.511 . S
C423 H437 0.961 . S
C423 H438 0.961 . S
C423 H439 0.961 . S
C424 C425 1.370 . S
C424 C426 1.363 . S
C424 H440 0.931 . S
C425 C424 1.370 . S
C425 C429 1.408 . S
C426 C424 1.363 . S
C426 C427 1.370 . S
C426 C430 1.524 . S
C427 C419 1.503 . S
C427 C426 1.370 . S
C427 C428 1.403 . S
C428 C427 1.403 . S
C428 C429 1.404 . S
C428 C431 1.539 . S
C429 C425 1.408 . S
C429 C428 1.404 . S
C429 H441 0.930 . S
C430 C426 1.524 . S
C430 H442 0.956 . S
C430 H443 0.961 . S
C430 H444 0.961 . S
C431 C428 1.539 . S
C431 H445 0.958 . S
C431 H446 0.961 . S
C431 H447 0.960 . S
H432 C416 0.931 . S
H433 C421 0.929 . S
H434 C422 0.960 . S
H435 C422 0.962 . S
H436 C422 0.960 . S
H437 C423 0.961 . S
H438 C423 0.961 . S
H439 C423 0.961 . S
H440 C424 0.931 . S
H441 C429 0.930 . S
H442 C430 0.956 . S
H443 C430 0.961 . S
H444 C430 0.961 . S
H445 C431 0.958 . S
H446 C431 0.961 . S
H447 C431 0.960 . S
C448 C449 1.391 . S
C448 C450 1.394 . S
C448 H464 0.931 . S
C449 C448 1.391 . S
C449 C453 1.376 . S
C450 C448 1.394 . S
C450 C451 1.369 . S
C450 C454 1.531 . S
C451 C450 1.369 . S
C451 C452 1.410 . S
C451 C459 1.503 . S
C452 C451 1.410 . S
C452 C453 1.392 . S
C452 C455 1.511 . S
C453 C449 1.376 . S
C453 C452 1.392 . S
C453 H465 0.929 . S
C454 C450 1.531 . S
C454 H466 0.960 . S
C454 H467 0.962 . S
C454 H468 0.960 . S
C455 C452 1.511 . S
C455 H469 0.961 . S
C455 H470 0.961 . S
C455 H471 0.961 . S
C456 C457 1.370 . S
C456 C458 1.363 . S
C456 H472 0.931 . S
C457 C456 1.370 . S
C457 C461 1.408 . S
C458 C456 1.363 . S
C458 C459 1.370 . S
C458 C462 1.524 . S
C459 C451 1.503 . S
C459 C458 1.370 . S
C459 C460 1.403 . S
C460 C459 1.403 . S
C460 C461 1.404 . S
C460 C463 1.539 . S
C461 C457 1.408 . S
C461 C460 1.404 . S
C461 H473 0.930 . S
C462 C458 1.524 . S
C462 H474 0.956 . S
C462 H475 0.961 . S
C462 H476 0.961 . S
C463 C460 1.539 . S
C463 H477 0.958 . S
C463 H478 0.961 . S
C463 H479 0.960 . S
H464 C448 0.931 . S
H465 C453 0.929 . S
H466 C454 0.960 . S
H467 C454 0.962 . S
H468 C454 0.960 . S
H469 C455 0.961 . S
H470 C455 0.961 . S
H471 C455 0.961 . S
H472 C456 0.931 . S
H473 C461 0.930 . S
H474 C462 0.956 . S
H475 C462 0.961 . S
H476 C462 0.961 . S
H477 C463 0.958 . S
H478 C463 0.961 . S
H479 C463 0.960 . S
C480 C481 1.391 . S
C480 C482 1.394 . S
C480 H496 0.931 . S
C481 C480 1.391 . S
C481 C485 1.376 . S
C482 C480 1.394 . S
C482 C483 1.369 . S
C482 C486 1.531 . S
C483 C482 1.369 . S
C483 C484 1.410 . S
C483 C491 1.503 . S
C484 C483 1.410 . S
C484 C485 1.392 . S
C484 C487 1.511 . S
C485 C481 1.376 . S
C485 C484 1.392 . S
C485 H497 0.929 . S
C486 C482 1.531 . S
C486 H498 0.960 . S
C486 H499 0.962 . S
C486 H500 0.960 . S
C487 C484 1.511 . S
C487 H501 0.961 . S
C487 H502 0.961 . S
C487 H503 0.961 . S
C488 C489 1.370 . S
C488 C490 1.363 . S
C488 H504 0.931 . S
C489 C488 1.370 . S
C489 C493 1.408 . S
C490 C488 1.363 . S
C490 C491 1.370 . S
C490 C494 1.524 . S
C491 C483 1.503 . S
C491 C490 1.370 . S
C491 C492 1.403 . S
C492 C491 1.403 . S
C492 C493 1.404 . S
C492 C495 1.539 . S
C493 C489 1.408 . S
C493 C492 1.404 . S
C493 H505 0.930 . S
C494 C490 1.524 . S
C494 H506 0.956 . S
C494 H507 0.961 . S
C494 H508 0.961 . S
C495 C492 1.539 . S
C495 H509 0.958 . S
C495 H510 0.961 . S
C495 H511 0.960 . S
H496 C480 0.931 . S
H497 C485 0.929 . S
H498 C486 0.960 . S
H499 C486 0.962 . S
H500 C486 0.960 . S
H501 C487 0.961 . S
H502 C487 0.961 . S
H503 C487 0.961 . S
H504 C488 0.931 . S
H505 C493 0.930 . S
H506 C494 0.956 . S
H507 C494 0.961 . S
H508 C494 0.961 . S
H509 C495 0.958 . S
H510 C495 0.961 . S
H511 C495 0.960 . S
C512 C513 1.391 . S
C512 C514 1.394 . S
C512 H528 0.931 . S
C513 C512 1.391 . S
C513 C517 1.376 . S
C514 C512 1.394 . S
C514 C515 1.369 . S
C514 C518 1.531 . S
C515 C514 1.369 . S
C515 C516 1.410 . S
C515 C523 1.503 . S
C516 C515 1.410 . S
C516 C517 1.392 . S
C516 C519 1.511 . S
C517 C513 1.376 . S
C517 C516 1.392 . S
C517 H529 0.929 . S
C518 C514 1.531 . S
C518 H530 0.960 . S
C518 H531 0.962 . S
C518 H532 0.960 . S
C519 C516 1.511 . S
C519 H533 0.961 . S
C519 H534 0.961 . S
C519 H535 0.961 . S
C520 C521 1.370 . S
C520 C522 1.363 . S
C520 H536 0.931 . S
C521 C520 1.370 . S
C521 C525 1.408 . S
C522 C520 1.363 . S
C522 C523 1.370 . S
C522 C526 1.524 . S
C523 C515 1.503 . S
C523 C522 1.370 . S
C523 C524 1.403 . S
C524 C523 1.403 . S
C524 C525 1.404 . S
C524 C527 1.539 . S
C525 C521 1.408 . S
C525 C524 1.404 . S
C525 H537 0.930 . S
C526 C522 1.524 . S
C526 H538 0.956 . S
C526 H539 0.961 . S
C526 H540 0.961 . S
C527 C524 1.539 . S
C527 H541 0.958 . S
C527 H542 0.961 . S
C527 H543 0.960 . S
H528 C512 0.931 . S
H529 C517 0.929 . S
H530 C518 0.960 . S
H531 C518 0.962 . S
H532 C518 0.960 . S
H533 C519 0.961 . S
H534 C519 0.961 . S
H535 C519 0.961 . S
H536 C520 0.931 . S
H537 C525 0.930 . S
H538 C526 0.956 . S
H539 C526 0.961 . S
H540 C526 0.961 . S
H541 C527 0.958 . S
H542 C527 0.961 . S
H543 C527 0.960 . S
C544 C545 1.391 . S
C544 C546 1.394 . S
C544 H560 0.931 . S
C545 C544 1.391 . S
C545 C549 1.376 . S
C546 C544 1.394 . S
C546 C547 1.369 . S
C546 C550 1.531 . S
C547 C546 1.369 . S
C547 C548 1.410 . S
C547 C555 1.503 . S
C548 C547 1.410 . S
C548 C549 1.392 . S
C548 C551 1.511 . S
C549 C545 1.376 . S
C549 C548 1.392 . S
C549 H561 0.929 . S
C550 C546 1.531 . S
C550 H562 0.960 . S
C550 H563 0.962 . S
C550 H564 0.960 . S
C551 C548 1.511 . S
C551 H565 0.961 . S
C551 H566 0.961 . S
C551 H567 0.961 . S
C552 C553 1.370 . S
C552 C554 1.363 . S
C552 H568 0.931 . S
C553 C552 1.370 . S
C553 C557 1.408 . S
C554 C552 1.363 . S
C554 C555 1.370 . S
C554 C558 1.524 . S
C555 C547 1.503 . S
C555 C554 1.370 . S
C555 C556 1.403 . S
C556 C555 1.403 . S
C556 C557 1.404 . S
C556 C559 1.539 . S
C557 C553 1.408 . S
C557 C556 1.404 . S
C557 H569 0.930 . S
C558 C554 1.524 . S
C558 H570 0.956 . S
C558 H571 0.961 . S
C558 H572 0.961 . S
C559 C556 1.539 . S
C559 H573 0.958 . S
C559 H574 0.961 . S
C559 H575 0.960 . S
H560 C544 0.931 . S
H561 C549 0.929 . S
H562 C550 0.960 . S
H563 C550 0.962 . S
H564 C550 0.960 . S
H565 C551 0.961 . S
H566 C551 0.961 . S
H567 C551 0.961 . S
H568 C552 0.931 . S
H569 C557 0.930 . S
H570 C558 0.956 . S
H571 C558 0.961 . S
H572 C558 0.961 . S
H573 C559 0.958 . S
H574 C559 0.961 . S
H575 C559 0.960 . S
C576 C577 1.391 . S
C576 C578 1.394 . S
C576 H592 0.931 . S
C577 C576 1.391 . S
C577 C581 1.376 . S
C578 C576 1.394 . S
C578 C579 1.369 . S
C578 C582 1.531 . S
C579 C578 1.369 . S
C579 C580 1.410 . S
C579 C587 1.503 . S
C580 C579 1.410 . S
C580 C581 1.392 . S
C580 C583 1.511 . S
C581 C577 1.376 . S
C581 C580 1.392 . S
C581 H593 0.929 . S
C582 C578 1.531 . S
C582 H594 0.960 . S
C582 H595 0.962 . S
C582 H596 0.960 . S
C583 C580 1.511 . S
C583 H597 0.961 . S
C583 H598 0.961 . S
C583 H599 0.961 . S
C584 C585 1.370 . S
C584 C586 1.363 . S
C584 H600 0.931 . S
C585 C584 1.370 . S
C585 C589 1.408 . S
C586 C584 1.363 . S
C586 C587 1.370 . S
C586 C590 1.524 . S
C587 C579 1.503 . S
C587 C586 1.370 . S
C587 C588 1.403 . S
C588 C587 1.403 . S
C588 C589 1.404 . S
C588 C591 1.539 . S
C589 C585 1.408 . S
C589 C588 1.404 . S
C589 H601 0.930 . S
C590 C586 1.524 . S
C590 H602 0.956 . S
C590 H603 0.961 . S
C590 H604 0.961 . S
C591 C588 1.539 . S
C591 H605 0.958 . S
C591 H606 0.961 . S
C591 H607 0.960 . S
H592 C576 0.931 . S
H593 C581 0.929 . S
H594 C582 0.960 . S
H595 C582 0.962 . S
H596 C582 0.960 . S
H597 C583 0.961 . S
H598 C583 0.961 . S
H599 C583 0.961 . S
H600 C584 0.931 . S
H601 C589 0.930 . S
H602 C590 0.956 . S
H603 C590 0.961 . S
H604 C590 0.961 . S
H605 C591 0.958 . S
H606 C591 0.961 . S
H607 C591 0.960 . S
C608 C609 1.391 . S
C608 C610 1.394 . S
C608 H624 0.931 . S
C609 C608 1.391 . S
C609 C613 1.376 . S
C610 C608 1.394 . S
C610 C611 1.369 . S
C610 C614 1.531 . S
C611 C610 1.369 . S
C611 C612 1.410 . S
C611 C619 1.503 . S
C612 C611 1.410 . S
C612 C613 1.392 . S
C612 C615 1.511 . S
C613 C609 1.376 . S
C613 C612 1.392 . S
C613 H625 0.929 . S
C614 C610 1.531 . S
C614 H626 0.960 . S
C614 H627 0.962 . S
C614 H628 0.960 . S
C615 C612 1.511 . S
C615 H629 0.961 . S
C615 H630 0.961 . S
C615 H631 0.961 . S
C616 C617 1.370 . S
C616 C618 1.363 . S
C616 H632 0.931 . S
C617 C616 1.370 . S
C617 C621 1.408 . S
C618 C616 1.363 . S
C618 C619 1.370 . S
C618 C622 1.524 . S
C619 C611 1.503 . S
C619 C618 1.370 . S
C619 C620 1.403 . S
C620 C619 1.403 . S
C620 C621 1.404 . S
C620 C623 1.539 . S
C621 C617 1.408 . S
C621 C620 1.404 . S
C621 H633 0.930 . S
C622 C618 1.524 . S
C622 H634 0.956 . S
C622 H635 0.961 . S
C622 H636 0.961 . S
C623 C620 1.539 . S
C623 H637 0.958 . S
C623 H638 0.961 . S
C623 H639 0.960 . S
H624 C608 0.931 . S
H625 C613 0.929 . S
H626 C614 0.960 . S
H627 C614 0.962 . S
H628 C614 0.960 . S
H629 C615 0.961 . S
H630 C615 0.961 . S
H631 C615 0.961 . S
H632 C616 0.931 . S
H633 C621 0.930 . S
H634 C622 0.956 . S
H635 C622 0.961 . S
H636 C622 0.961 . S
H637 C623 0.958 . S
H638 C623 0.961 . S
H639 C623 0.960 . S
C640 C641 1.391 . S
C640 C642 1.394 . S
C640 H656 0.931 . S
C641 C640 1.391 . S
C641 C645 1.376 . S
C642 C640 1.394 . S
C642 C643 1.369 . S
C642 C646 1.531 . S
C643 C642 1.369 . S
C643 C644 1.410 . S
C643 C651 1.503 . S
C644 C643 1.410 . S
C644 C645 1.392 . S
C644 C647 1.511 . S
C645 C641 1.376 . S
C645 C644 1.392 . S
C645 H657 0.929 . S
C646 C642 1.531 . S
C646 H658 0.960 . S
C646 H659 0.962 . S
C646 H660 0.960 . S
C647 C644 1.511 . S
C647 H661 0.961 . S
C647 H662 0.961 . S
C647 H663 0.961 . S
C648 C649 1.370 . S
C648 C650 1.363 . S
C648 H664 0.931 . S
C649 C648 1.370 . S
C649 C653 1.408 . S
C650 C648 1.363 . S
C650 C651 1.370 . S
C650 C654 1.524 . S
C651 C643 1.503 . S
C651 C650 1.370 . S
C651 C652 1.403 . S
C652 C651 1.403 . S
C652 C653 1.404 . S
C652 C655 1.539 . S
C653 C649 1.408 . S
C653 C652 1.404 . S
C653 H665 0.930 . S
C654 C650 1.524 . S
C654 H666 0.956 . S
C654 H667 0.961 . S
C654 H668 0.961 . S
C655 C652 1.539 . S
C655 H669 0.958 . S
C655 H670 0.961 . S
C655 H671 0.960 . S
H656 C640 0.931 . S
H657 C645 0.929 . S
H658 C646 0.960 . S
H659 C646 0.962 . S
H660 C646 0.960 . S
H661 C647 0.961 . S
H662 C647 0.961 . S
H663 C647 0.961 . S
H664 C648 0.931 . S
H665 C653 0.930 . S
H666 C654 0.956 . S
H667 C654 0.961 . S
H668 C654 0.961 . S
H669 C655 0.958 . S
H670 C655 0.961 . S
H671 C655 0.960 . S
C672 C673 1.391 . S
C672 C674 1.394 . S
C672 H688 0.931 . S
C673 C672 1.391 . S
C673 C677 1.376 . S
C674 C672 1.394 . S
C674 C675 1.369 . S
C674 C678 1.531 . S
C675 C674 1.369 . S
C675 C676 1.410 . S
C675 C683 1.503 . S
C676 C675 1.410 . S
C676 C677 1.392 . S
C676 C679 1.511 . S
C677 C673 1.376 . S
C677 C676 1.392 . S
C677 H689 0.929 . S
C678 C674 1.531 . S
C678 H690 0.960 . S
C678 H691 0.962 . S
C678 H692 0.960 . S
C679 C676 1.511 . S
C679 H693 0.961 . S
C679 H694 0.961 . S
C679 H695 0.961 . S
C680 C681 1.370 . S
C680 C682 1.363 . S
C680 H696 0.931 . S
C681 C680 1.370 . S
C681 C685 1.408 . S
C682 C680 1.363 . S
C682 C683 1.370 . S
C682 C686 1.524 . S
C683 C675 1.503 . S
C683 C682 1.370 . S
C683 C684 1.403 . S
C684 C683 1.403 . S
C684 C685 1.404 . S
C684 C687 1.539 . S
C685 C681 1.408 . S
C685 C684 1.404 . S
C685 H697 0.930 . S
C686 C682 1.524 . S
C686 H698 0.956 . S
C686 H699 0.961 . S
C686 H700 0.961 . S
C687 C684 1.539 . S
C687 H701 0.958 . S
C687 H702 0.961 . S
C687 H703 0.960 . S
H688 C672 0.931 . S
H689 C677 0.929 . S
H690 C678 0.960 . S
H691 C678 0.962 . S
H692 C678 0.960 . S
H693 C679 0.961 . S
H694 C679 0.961 . S
H695 C679 0.961 . S
H696 C680 0.931 . S
H697 C685 0.930 . S
H698 C686 0.956 . S
H699 C686 0.961 . S
H700 C686 0.961 . S
H701 C687 0.958 . S
H702 C687 0.961 . S
H703 C687 0.960 . S
C704 C705 1.391 . S
C704 C706 1.394 . S
C704 H720 0.931 . S
C705 C704 1.391 . S
C705 C709 1.376 . S
C706 C704 1.394 . S
C706 C707 1.369 . S
C706 C710 1.531 . S
C707 C706 1.369 . S
C707 C708 1.410 . S
C707 C715 1.503 . S
C708 C707 1.410 . S
C708 C709 1.392 . S
C708 C711 1.511 . S
C709 C705 1.376 . S
C709 C708 1.392 . S
C709 H721 0.929 . S
C710 C706 1.531 . S
C710 H722 0.960 . S
C710 H723 0.962 . S
C710 H724 0.960 . S
C711 C708 1.511 . S
C711 H725 0.961 . S
C711 H726 0.961 . S
C711 H727 0.961 . S
C712 C713 1.370 . S
C712 C714 1.363 . S
C712 H728 0.931 . S
C713 C712 1.370 . S
C713 C717 1.408 . S
C714 C712 1.363 . S
C714 C715 1.370 . S
C714 C718 1.524 . S
C715 C707 1.503 . S
C715 C714 1.370 . S
C715 C716 1.403 . S
C716 C715 1.403 . S
C716 C717 1.404 . S
C716 C719 1.539 . S
C717 C713 1.408 . S
C717 C716 1.404 . S
C717 H729 0.930 . S
C718 C714 1.524 . S
C718 H730 0.956 . S
C718 H731 0.961 . S
C718 H732 0.961 . S
C719 C716 1.539 . S
C719 H733 0.958 . S
C719 H734 0.961 . S
C719 H735 0.960 . S
H720 C704 0.931 . S
H721 C709 0.929 . S
H722 C710 0.960 . S
H723 C710 0.962 . S
H724 C710 0.960 . S
H725 C711 0.961 . S
H726 C711 0.961 . S
H727 C711 0.961 . S
H728 C712 0.931 . S
H729 C717 0.930 . S
H730 C718 0.956 . S
H731 C718 0.961 . S
H732 C718 0.961 . S
H733 C719 0.958 . S
H734 C719 0.961 . S
H735 C719 0.960 . S
C736 C737 1.391 . S
C736 C738 1.394 . S
C736 H752 0.931 . S
C737 C736 1.391 . S
C737 C741 1.376 . S
C738 C736 1.394 . S
C738 C739 1.369 . S
C738 C742 1.531 . S
C739 C738 1.369 . S
C739 C740 1.410 . S
C739 C747 1.503 . S
C740 C739 1.410 . S
C740 C741 1.392 . S
C740 C743 1.511 . S
C741 C737 1.376 . S
C741 C740 1.392 . S
C741 H753 0.929 . S
C742 C738 1.531 . S
C742 H754 0.960 . S
C742 H755 0.962 . S
C742 H756 0.960 . S
C743 C740 1.511 . S
C743 H757 0.961 . S
C743 H758 0.961 . S
C743 H759 0.961 . S
C744 C745 1.370 . S
C744 C746 1.363 . S
C744 H760 0.931 . S
C745 C744 1.370 . S
C745 C749 1.408 . S
C746 C744 1.363 . S
C746 C747 1.370 . S
C746 C750 1.524 . S
C747 C739 1.503 . S
C747 C746 1.370 . S
C747 C748 1.403 . S
C748 C747 1.403 . S
C748 C749 1.404 . S
C748 C751 1.539 . S
C749 C745 1.408 . S
C749 C748 1.404 . S
C749 H761 0.930 . S
C750 C746 1.524 . S
C750 H762 0.956 . S
C750 H763 0.961 . S
C750 H764 0.961 . S
C751 C748 1.539 . S
C751 H765 0.958 . S
C751 H766 0.961 . S
C751 H767 0.960 . S
H752 C736 0.931 . S
H753 C741 0.929 . S
H754 C742 0.960 . S
H755 C742 0.962 . S
H756 C742 0.960 . S
H757 C743 0.961 . S
H758 C743 0.961 . S
H759 C743 0.961 . S
H760 C744 0.931 . S
H761 C749 0.930 . S
H762 C750 0.956 . S
H763 C750 0.961 . S
H764 C750 0.961 . S
H765 C751 0.958 . S
H766 C751 0.961 . S
H767 C751 0.960 . S
C768 C769 1.391 . S
C768 C770 1.394 . S
C768 H784 0.931 . S
C769 C768 1.391 . S
C769 C773 1.376 . S
C770 C768 1.394 . S
C770 C771 1.369 . S
C770 C774 1.531 . S
C771 C770 1.369 . S
C771 C772 1.410 . S
C771 C779 1.503 . S
C772 C771 1.410 . S
C772 C773 1.392 . S
C772 C775 1.511 . S
C773 C769 1.376 . S
C773 C772 1.392 . S
C773 H785 0.929 . S
C774 C770 1.531 . S
C774 H786 0.960 . S
C774 H787 0.962 . S
C774 H788 0.960 . S
C775 C772 1.511 . S
C775 H789 0.961 . S
C775 H790 0.961 . S
C775 H791 0.961 . S
C776 C777 1.370 . S
C776 C778 1.363 . S
C776 H792 0.931 . S
C777 C776 1.370 . S
C777 C781 1.408 . S
C778 C776 1.363 . S
C778 C779 1.370 . S
C778 C782 1.524 . S
C779 C771 1.503 . S
C779 C778 1.370 . S
C779 C780 1.403 . S
C780 C779 1.403 . S
C780 C781 1.404 . S
C780 C783 1.539 . S
C781 C777 1.408 . S
C781 C780 1.404 . S
C781 H793 0.930 . S
C782 C778 1.524 . S
C782 H794 0.956 . S
C782 H795 0.961 . S
C782 H796 0.961 . S
C783 C780 1.539 . S
C783 H797 0.958 . S
C783 H798 0.961 . S
C783 H799 0.960 . S
H784 C768 0.931 . S
H785 C773 0.929 . S
H786 C774 0.960 . S
H787 C774 0.962 . S
H788 C774 0.960 . S
H789 C775 0.961 . S
H790 C775 0.961 . S
H791 C775 0.961 . S
H792 C776 0.931 . S
H793 C781 0.930 . S
H794 C782 0.956 . S
H795 C782 0.961 . S
H796 C782 0.961 . S
H797 C783 0.958 . S
H798 C783 0.961 . S
H799 C783 0.960 . S
C800 C801 1.391 . S
C800 C802 1.394 . S
C800 H816 0.931 . S
C801 C800 1.391 . S
C801 C805 1.376 . S
C802 C800 1.394 . S
C802 C803 1.369 . S
C802 C806 1.531 . S
C803 C802 1.369 . S
C803 C804 1.410 . S
C803 C811 1.503 . S
C804 C803 1.410 . S
C804 C805 1.392 . S
C804 C807 1.511 . S
C805 C801 1.376 . S
C805 C804 1.392 . S
C805 H817 0.929 . S
C806 C802 1.531 . S
C806 H818 0.960 . S
C806 H819 0.962 . S
C806 H820 0.960 . S
C807 C804 1.511 . S
C807 H821 0.961 . S
C807 H822 0.961 . S
C807 H823 0.961 . S
C808 C809 1.370 . S
C808 C810 1.363 . S
C808 H824 0.931 . S
C809 C808 1.370 . S
C809 C813 1.408 . S
C810 C808 1.363 . S
C810 C811 1.370 . S
C810 C814 1.524 . S
C811 C803 1.503 . S
C811 C810 1.370 . S
C811 C812 1.403 . S
C812 C811 1.403 . S
C812 C813 1.404 . S
C812 C815 1.539 . S
C813 C809 1.408 . S
C813 C812 1.404 . S
C813 H825 0.930 . S
C814 C810 1.524 . S
C814 H826 0.956 . S
C814 H827 0.961 . S
C814 H828 0.961 . S
C815 C812 1.539 . S
C815 H829 0.958 . S
C815 H830 0.961 . S
C815 H831 0.960 . S
H816 C800 0.931 . S
H817 C805 0.929 . S
H818 C806 0.960 . S
H819 C806 0.962 . S
H820 C806 0.960 . S
H821 C807 0.961 . S
H822 C807 0.961 . S
H823 C807 0.961 . S
H824 C808 0.931 . S
H825 C813 0.930 . S
H826 C814 0.956 . S
H827 C814 0.961 . S
H828 C814 0.961 . S
H829 C815 0.958 . S
H830 C815 0.961 . S
H831 C815 0.960 . S
C832 C833 1.391 . S
C832 C834 1.394 . S
C832 H848 0.931 . S
C833 C832 1.391 . S
C833 C837 1.376 . S
C834 C832 1.394 . S
C834 C835 1.369 . S
C834 C838 1.531 . S
C835 C834 1.369 . S
C835 C836 1.410 . S
C835 C843 1.503 . S
C836 C835 1.410 . S
C836 C837 1.392 . S
C836 C839 1.511 . S
C837 C833 1.376 . S
C837 C836 1.392 . S
C837 H849 0.929 . S
C838 C834 1.531 . S
C838 H850 0.960 . S
C838 H851 0.962 . S
C838 H852 0.960 . S
C839 C836 1.511 . S
C839 H853 0.961 . S
C839 H854 0.961 . S
C839 H855 0.961 . S
C840 C841 1.370 . S
C840 C842 1.363 . S
C840 H856 0.931 . S
C841 C840 1.370 . S
C841 C845 1.408 . S
C842 C840 1.363 . S
C842 C843 1.370 . S
C842 C846 1.524 . S
C843 C835 1.503 . S
C843 C842 1.370 . S
C843 C844 1.403 . S
C844 C843 1.403 . S
C844 C845 1.404 . S
C844 C847 1.539 . S
C845 C841 1.408 . S
C845 C844 1.404 . S
C845 H857 0.930 . S
C846 C842 1.524 . S
C846 H858 0.956 . S
C846 H859 0.961 . S
C846 H860 0.961 . S
C847 C844 1.539 . S
C847 H861 0.958 . S
C847 H862 0.961 . S
C847 H863 0.960 . S
H848 C832 0.931 . S
H849 C837 0.929 . S
H850 C838 0.960 . S
H851 C838 0.962 . S
H852 C838 0.960 . S
H853 C839 0.961 . S
H854 C839 0.961 . S
H855 C839 0.961 . S
H856 C840 0.931 . S
H857 C845 0.930 . S
H858 C846 0.956 . S
H859 C846 0.961 . S
H860 C846 0.961 . S
H861 C847 0.958 . S
H862 C847 0.961 . S
H863 C847 0.960 . S
C864 C865 1.391 . S
C864 C866 1.394 . S
C864 H880 0.931 . S
C865 C864 1.391 . S
C865 C869 1.376 . S
C866 C864 1.394 . S
C866 C867 1.369 . S
C866 C870 1.531 . S
C867 C866 1.369 . S
C867 C868 1.410 . S
C867 C875 1.503 . S
C868 C867 1.410 . S
C868 C869 1.392 . S
C868 C871 1.511 . S
C869 C865 1.376 . S
C869 C868 1.392 . S
C869 H881 0.929 . S
C870 C866 1.531 . S
C870 H882 0.960 . S
C870 H883 0.962 . S
C870 H884 0.960 . S
C871 C868 1.511 . S
C871 H885 0.961 . S
C871 H886 0.961 . S
C871 H887 0.961 . S
C872 C873 1.370 . S
C872 C874 1.363 . S
C872 H888 0.931 . S
C873 C872 1.370 . S
C873 C877 1.408 . S
C874 C872 1.363 . S
C874 C875 1.370 . S
C874 C878 1.524 . S
C875 C867 1.503 . S
C875 C874 1.370 . S
C875 C876 1.403 . S
C876 C875 1.403 . S
C876 C877 1.404 . S
C876 C879 1.539 . S
C877 C873 1.408 . S
C877 C876 1.404 . S
C877 H889 0.930 . S
C878 C874 1.524 . S
C878 H890 0.956 . S
C878 H891 0.961 . S
C878 H892 0.961 . S
C879 C876 1.539 . S
C879 H893 0.958 . S
C879 H894 0.961 . S
C879 H895 0.960 . S
H880 C864 0.931 . S
H881 C869 0.929 . S
H882 C870 0.960 . S
H883 C870 0.962 . S
H884 C870 0.960 . S
H885 C871 0.961 . S
H886 C871 0.961 . S
H887 C871 0.961 . S
H888 C872 0.931 . S
H889 C877 0.930 . S
H890 C878 0.956 . S
H891 C878 0.961 . S
H892 C878 0.961 . S
H893 C879 0.958 . S
H894 C879 0.961 . S
H895 C879 0.960 . S
C896 C897 1.391 . S
C896 C898 1.394 . S
C896 H912 0.931 . S
C897 C896 1.391 . S
C897 C901 1.376 . S
C898 C896 1.394 . S
C898 C899 1.369 . S
C898 C902 1.531 . S
C899 C898 1.369 . S
C899 C900 1.410 . S
C899 C907 1.503 . S
C900 C899 1.410 . S
C900 C901 1.392 . S
C900 C903 1.511 . S
C901 C897 1.376 . S
C901 C900 1.392 . S
C901 H913 0.929 . S
C902 C898 1.531 . S
C902 H914 0.960 . S
C902 H915 0.962 . S
C902 H916 0.960 . S
C903 C900 1.511 . S
C903 H917 0.961 . S
C903 H918 0.961 . S
C903 H919 0.961 . S
C904 C905 1.370 . S
C904 C906 1.363 . S
C904 H920 0.931 . S
C905 C904 1.370 . S
C905 C909 1.408 . S
C906 C904 1.363 . S
C906 C907 1.370 . S
C906 C910 1.524 . S
C907 C899 1.503 . S
C907 C906 1.370 . S
C907 C908 1.403 . S
C908 C907 1.403 . S
C908 C909 1.404 . S
C908 C911 1.539 . S
C909 C905 1.408 . S
C909 C908 1.404 . S
C909 H921 0.930 . S
C910 C906 1.524 . S
C910 H922 0.956 . S
C910 H923 0.961 . S
C910 H924 0.961 . S
C911 C908 1.539 . S
C911 H925 0.958 . S
C911 H926 0.961 . S
C911 H927 0.960 . S
H912 C896 0.931 . S
H913 C901 0.929 . S
H914 C902 0.960 . S
H915 C902 0.962 . S
H916 C902 0.960 . S
H917 C903 0.961 . S
H918 C903 0.961 . S
H919 C903 0.961 . S
H920 C904 0.931 . S
H921 C909 0.930 . S
H922 C910 0.956 . S
H923 C910 0.961 . S
H924 C910 0.961 . S
H925 C911 0.958 . S
H926 C911 0.961 . S
H927 C911 0.960 . S
C928 C929 1.391 . S
C928 C930 1.394 . S
C928 H944 0.931 . S
C929 C928 1.391 . S
C929 C933 1.376 . S
C930 C928 1.394 . S
C930 C931 1.369 . S
C930 C934 1.531 . S
C931 C930 1.369 . S
C931 C932 1.410 . S
C931 C939 1.503 . S
C932 C931 1.410 . S
C932 C933 1.392 . S
C932 C935 1.511 . S
C933 C929 1.376 . S
C933 C932 1.392 . S
C933 H945 0.929 . S
C934 C930 1.531 . S
C934 H946 0.960 . S
C934 H947 0.962 . S
C934 H948 0.960 . S
C935 C932 1.511 . S
C935 H949 0.961 . S
C935 H950 0.961 . S
C935 H951 0.961 . S
C936 C937 1.370 . S
C936 C938 1.363 . S
C936 H952 0.931 . S
C937 C936 1.370 . S
C937 C941 1.408 . S
C938 C936 1.363 . S
C938 C939 1.370 . S
C938 C942 1.524 . S
C939 C931 1.503 . S
C939 C938 1.370 . S
C939 C940 1.403 . S
C940 C939 1.403 . S
C940 C941 1.404 . S
C940 C943 1.539 . S
C941 C937 1.408 . S
C941 C940 1.404 . S
C941 H953 0.930 . S
C942 C938 1.524 . S
C942 H954 0.956 . S
C942 H955 0.961 . S
C942 H956 0.961 . S
C943 C940 1.539 . S
C943 H957 0.958 . S
C943 H958 0.961 . S
C943 H959 0.960 . S
H944 C928 0.931 . S
H945 C933 0.929 . S
H946 C934 0.960 . S
H947 C934 0.962 . S
H948 C934 0.960 . S
H949 C935 0.961 . S
H950 C935 0.961 . S
H951 C935 0.961 . S
H952 C936 0.931 . S
H953 C941 0.930 . S
H954 C942 0.956 . S
H955 C942 0.961 . S
H956 C942 0.961 . S
H957 C943 0.958 . S
H958 C943 0.961 . S
H959 C943 0.960 . S
C960 C961 1.391 . S
C960 C962 1.394 . S
C960 H976 0.931 . S
C961 C960 1.391 . S
C961 C965 1.376 . S
C962 C960 1.394 . S
C962 C963 1.369 . S
C962 C966 1.531 . S
C963 C962 1.369 . S
C963 C964 1.410 . S
C963 C971 1.503 . S
C964 C963 1.410 . S
C964 C965 1.392 . S
C964 C967 1.511 . S
C965 C961 1.376 . S
C965 C964 1.392 . S
C965 H977 0.929 . S
C966 C962 1.531 . S
C966 H978 0.960 . S
C966 H979 0.962 . S
C966 H980 0.960 . S
C967 C964 1.511 . S
C967 H981 0.961 . S
C967 H982 0.961 . S
C967 H983 0.961 . S
C968 C969 1.370 . S
C968 C970 1.363 . S
C968 H984 0.931 . S
C969 C968 1.370 . S
C969 C973 1.408 . S
C970 C968 1.363 . S
C970 C971 1.370 . S
C970 C974 1.524 . S
C971 C963 1.503 . S
C971 C970 1.370 . S
C971 C972 1.403 . S
C972 C971 1.403 . S
C972 C973 1.404 . S
C972 C975 1.539 . S
C973 C969 1.408 . S
C973 C972 1.404 . S
C973 H985 0.930 . S
C974 C970 1.524 . S
C974 H986 0.956 . S
C974 H987 0.961 . S
C974 H988 0.961 . S
C975 C972 1.539 . S
C975 H989 0.958 . S
C975 H990 0.961 . S
C975 H991 0.960 . S
H976 C960 0.931 . S
H977 C965 0.929 . S
H978 C966 0.960 . S
H979 C966 0.962 . S
H980 C966 0.960 . S
H981 C967 0.961 . S
H982 C967 0.961 . S
H983 C967 0.961 . S
H984 C968 0.931 . S
H985 C973 0.930 . S
H986 C974 0.956 . S
H987 C974 0.961 . S
H988 C974 0.961 . S
H989 C975 0.958 . S
H990 C975 0.961 . S
H991 C975 0.960 . S
C992 C993 1.391 . S
C992 C994 1.394 . S
C992 H1008 0.931 . S
C993 C992 1.391 . S
C993 C997 1.376 . S
C994 C992 1.394 . S
C994 C995 1.369 . S
C994 C998 1.531 . S
C995 C994 1.369 . S
C995 C996 1.410 . S
C995 C1003 1.503 . S
C996 C995 1.410 . S
C996 C997 1.392 . S
C996 C999 1.511 . S
C997 C993 1.376 . S
C997 C996 1.392 . S
C997 H1009 0.929 . S
C998 C994 1.531 . S
C998 H1010 0.960 . S
C998 H1011 0.962 . S
C998 H1012 0.960 . S
C999 C996 1.511 . S
C999 H1013 0.961 . S
C999 H1014 0.961 . S
C999 H1015 0.961 . S
C1000 C1001 1.370 . S
C1000 C1002 1.363 . S
C1000 H1016 0.931 . S
C1001 C1000 1.370 . S
C1001 C1005 1.408 . S
C1002 C1000 1.363 . S
C1002 C1003 1.370 . S
C1002 C1006 1.524 . S
C1003 C995 1.503 . S
C1003 C1002 1.370 . S
C1003 C1004 1.403 . S
C1004 C1003 1.403 . S
C1004 C1005 1.404 . S
C1004 C1007 1.539 . S
C1005 C1001 1.408 . S
C1005 C1004 1.404 . S
C1005 H1017 0.930 . S
C1006 C1002 1.524 . S
C1006 H1018 0.956 . S
C1006 H1019 0.961 . S
C1006 H1020 0.961 . S
C1007 C1004 1.539 . S
C1007 H1021 0.958 . S
C1007 H1022 0.961 . S
C1007 H1023 0.960 . S
H1008 C992 0.931 . S
H1009 C997 0.929 . S
H1010 C998 0.960 . S
H1011 C998 0.962 . S
H1012 C998 0.960 . S
H1013 C999 0.961 . S
H1014 C999 0.961 . S
H1015 C999 0.961 . S
H1016 C1000 0.931 . S
H1017 C1005 0.930 . S
H1018 C1006 0.956 . S
H1019 C1006 0.961 . S
H1020 C1006 0.961 . S
H1021 C1007 0.958 . S
H1022 C1007 0.961 . S
H1023 C1007 0.960 . S
C1024 C1025 1.391 . S
C1024 C1026 1.394 . S
C1024 H1040 0.931 . S
C1025 C1024 1.391 . S
C1025 C1029 1.376 . S
C1026 C1024 1.394 . S
C1026 C1027 1.369 . S
C1026 C1030 1.531 . S
C1027 C1026 1.369 . S
C1027 C1028 1.410 . S
C1027 C1035 1.503 . S
C1028 C1027 1.410 . S
C1028 C1029 1.392 . S
C1028 C1031 1.511 . S
C1029 C1025 1.376 . S
C1029 C1028 1.392 . S
C1029 H1041 0.929 . S
C1030 C1026 1.531 . S
C1030 H1042 0.960 . S
C1030 H1043 0.962 . S
C1030 H1044 0.960 . S
C1031 C1028 1.511 . S
C1031 H1045 0.961 . S
C1031 H1046 0.961 . S
C1031 H1047 0.961 . S
C1032 C1033 1.370 . S
C1032 C1034 1.363 . S
C1032 H1048 0.931 . S
C1033 C1032 1.370 . S
C1033 C1037 1.408 . S
C1034 C1032 1.363 . S
C1034 C1035 1.370 . S
C1034 C1038 1.524 . S
C1035 C1027 1.503 . S
C1035 C1034 1.370 . S
C1035 C1036 1.403 . S
C1036 C1035 1.403 . S
C1036 C1037 1.404 . S
C1036 C1039 1.539 . S
C1037 C1033 1.408 . S
C1037 C1036 1.404 . S
C1037 H1049 0.930 . S
C1038 C1034 1.524 . S
C1038 H1050 0.956 . S
C1038 H1051 0.961 . S
C1038 H1052 0.961 . S
C1039 C1036 1.539 . S
C1039 H1053 0.958 . S
C1039 H1054 0.961 . S
C1039 H1055 0.960 . S
H1040 C1024 0.931 . S
H1041 C1029 0.929 . S
H1042 C1030 0.960 . S
H1043 C1030 0.962 . S
H1044 C1030 0.960 . S
H1045 C1031 0.961 . S
H1046 C1031 0.961 . S
H1047 C1031 0.961 . S
H1048 C1032 0.931 . S
H1049 C1037 0.930 . S
H1050 C1038 0.956 . S
H1051 C1038 0.961 . S
H1052 C1038 0.961 . S
H1053 C1039 0.958 . S
H1054 C1039 0.961 . S
H1055 C1039 0.960 . S
C1056 C1057 1.391 . S
C1056 C1058 1.394 . S
C1056 H1072 0.931 . S
C1057 C1056 1.391 . S
C1057 C1061 1.376 . S
C1058 C1056 1.394 . S
C1058 C1059 1.369 . S
C1058 C1062 1.531 . S
C1059 C1058 1.369 . S
C1059 C1060 1.410 . S
C1059 C1067 1.503 . S
C1060 C1059 1.410 . S
C1060 C1061 1.392 . S
C1060 C1063 1.511 . S
C1061 C1057 1.376 . S
C1061 C1060 1.392 . S
C1061 H1073 0.929 . S
C1062 C1058 1.531 . S
C1062 H1074 0.960 . S
C1062 H1075 0.962 . S
C1062 H1076 0.960 . S
C1063 C1060 1.511 . S
C1063 H1077 0.961 . S
C1063 H1078 0.961 . S
C1063 H1079 0.961 . S
C1064 C1065 1.370 . S
C1064 C1066 1.363 . S
C1064 H1080 0.931 . S
C1065 C1064 1.370 . S
C1065 C1069 1.408 . S
C1066 C1064 1.363 . S
C1066 C1067 1.370 . S
C1066 C1070 1.524 . S
C1067 C1059 1.503 . S
C1067 C1066 1.370 . S
C1067 C1068 1.403 . S
C1068 C1067 1.403 . S
C1068 C1069 1.404 . S
C1068 C1071 1.539 . S
C1069 C1065 1.408 . S
C1069 C1068 1.404 . S
C1069 H1081 0.930 . S
C1070 C1066 1.524 . S
C1070 H1082 0.956 . S
C1070 H1083 0.961 . S
C1070 H1084 0.961 . S
C1071 C1068 1.539 . S
C1071 H1085 0.958 . S
C1071 H1086 0.961 . S
C1071 H1087 0.960 . S
H1072 C1056 0.931 . S
H1073 C1061 0.929 . S
H1074 C1062 0.960 . S
H1075 C1062 0.962 . S
H1076 C1062 0.960 . S
H1077 C1063 0.961 . S
H1078 C1063 0.961 . S
H1079 C1063 0.961 . S
H1080 C1064 0.931 . S
H1081 C1069 0.930 . S
H1082 C1070 0.956 . S
H1083 C1070 0.961 . S
H1084 C1070 0.961 . S
H1085 C1071 0.958 . S
H1086 C1071 0.961 . S
H1087 C1071 0.960 . S
C1088 C1089 1.391 . S
C1088 C1090 1.394 . S
C1088 H1104 0.931 . S
C1089 C1088 1.391 . S
C1089 C1093 1.376 . S
C1090 C1088 1.394 . S
C1090 C1091 1.369 . S
C1090 C1094 1.531 . S
C1091 C1090 1.369 . S
C1091 C1092 1.410 . S
C1091 C1099 1.503 . S
C1092 C1091 1.410 . S
C1092 C1093 1.392 . S
C1092 C1095 1.511 . S
C1093 C1089 1.376 . S
C1093 C1092 1.392 . S
C1093 H1105 0.929 . S
C1094 C1090 1.531 . S
C1094 H1106 0.960 . S
C1094 H1107 0.962 . S
C1094 H1108 0.960 . S
C1095 C1092 1.511 . S
C1095 H1109 0.961 . S
C1095 H1110 0.961 . S
C1095 H1111 0.961 . S
C1096 C1097 1.370 . S
C1096 C1098 1.363 . S
C1096 H1112 0.931 . S
C1097 C1096 1.370 . S
C1097 C1101 1.408 . S
C1098 C1096 1.363 . S
C1098 C1099 1.370 . S
C1098 C1102 1.524 . S
C1099 C1091 1.503 . S
C1099 C1098 1.370 . S
C1099 C1100 1.403 . S
C1100 C1099 1.403 . S
C1100 C1101 1.404 . S
C1100 C1103 1.539 . S
C1101 C1097 1.408 . S
C1101 C1100 1.404 . S
C1101 H1113 0.930 . S
C1102 C1098 1.524 . S
C1102 H1114 0.956 . S
C1102 H1115 0.961 . S
C1102 H1116 0.961 . S
C1103 C1100 1.539 . S
C1103 H1117 0.958 . S
C1103 H1118 0.961 . S
C1103 H1119 0.960 . S
H1104 C1088 0.931 . S
H1105 C1093 0.929 . S
H1106 C1094 0.960 . S
H1107 C1094 0.962 . S
H1108 C1094 0.960 . S
H1109 C1095 0.961 . S
H1110 C1095 0.961 . S
H1111 C1095 0.961 . S
H1112 C1096 0.931 . S
H1113 C1101 0.930 . S
H1114 C1102 0.956 . S
H1115 C1102 0.961 . S
H1116 C1102 0.961 . S
H1117 C1103 0.958 . S
H1118 C1103 0.961 . S
H1119 C1103 0.960 . S
C1120 C1121 1.391 . S
C1120 C1122 1.394 . S
C1120 H1136 0.931 . S
C1121 C1120 1.391 . S
C1121 C1125 1.376 . S
C1122 C1120 1.394 . S
C1122 C1123 1.369 . S
C1122 C1126 1.531 . S
C1123 C1122 1.369 . S
C1123 C1124 1.410 . S
C1123 C1131 1.503 . S
C1124 C1123 1.410 . S
C1124 C1125 1.392 . S
C1124 C1127 1.511 . S
C1125 C1121 1.376 . S
C1125 C1124 1.392 . S
C1125 H1137 0.929 . S
C1126 C1122 1.531 . S
C1126 H1138 0.960 . S
C1126 H1139 0.962 . S
C1126 H1140 0.960 . S
C1127 C1124 1.511 . S
C1127 H1141 0.961 . S
C1127 H1142 0.961 . S
C1127 H1143 0.961 . S
C1128 C1129 1.370 . S
C1128 C1130 1.363 . S
C1128 H1144 0.931 . S
C1129 C1128 1.370 . S
C1129 C1133 1.408 . S
C1130 C1128 1.363 . S
C1130 C1131 1.370 . S
C1130 C1134 1.524 . S
C1131 C1123 1.503 . S
C1131 C1130 1.370 . S
C1131 C1132 1.403 . S
C1132 C1131 1.403 . S
C1132 C1133 1.404 . S
C1132 C1135 1.539 . S
C1133 C1129 1.408 . S
C1133 C1132 1.404 . S
C1133 H1145 0.930 . S
C1134 C1130 1.524 . S
C1134 H1146 0.956 . S
C1134 H1147 0.961 . S
C1134 H1148 0.961 . S
C1135 C1132 1.539 . S
C1135 H1149 0.958 . S
C1135 H1150 0.961 . S
C1135 H1151 0.960 . S
H1136 C1120 0.931 . S
H1137 C1125 0.929 . S
H1138 C1126 0.960 . S
H1139 C1126 0.962 . S
H1140 C1126 0.960 . S
H1141 C1127 0.961 . S
H1142 C1127 0.961 . S
H1143 C1127 0.961 . S
H1144 C1128 0.931 . S
H1145 C1133 0.930 . S
H1146 C1134 0.956 . S
H1147 C1134 0.961 . S
H1148 C1134 0.961 . S
H1149 C1135 0.958 . S
H1150 C1135 0.961 . S
H1151 C1135 0.960 . S
C1152 C1153 1.391 . S
C1152 C1154 1.394 . S
C1152 H1168 0.931 . S
C1153 C1152 1.391 . S
C1153 C1157 1.376 . S
C1154 C1152 1.394 . S
C1154 C1155 1.369 . S
C1154 C1158 1.531 . S
C1155 C1154 1.369 . S
C1155 C1156 1.410 . S
C1155 C1163 1.503 . S
C1156 C1155 1.410 . S
C1156 C1157 1.392 . S
C1156 C1159 1.511 . S
C1157 C1153 1.376 . S
C1157 C1156 1.392 . S
C1157 H1169 0.929 . S
C1158 C1154 1.531 . S
C1158 H1170 0.960 . S
C1158 H1171 0.962 . S
C1158 H1172 0.960 . S
C1159 C1156 1.511 . S
C1159 H1173 0.961 . S
C1159 H1174 0.961 . S
C1159 H1175 0.961 . S
C1160 C1161 1.370 . S
C1160 C1162 1.363 . S
C1160 H1176 0.931 . S
C1161 C1160 1.370 . S
C1161 C1165 1.408 . S
C1162 C1160 1.363 . S
C1162 C1163 1.370 . S
C1162 C1166 1.524 . S
C1163 C1155 1.503 . S
C1163 C1162 1.370 . S
C1163 C1164 1.403 . S
C1164 C1163 1.403 . S
C1164 C1165 1.404 . S
C1164 C1167 1.539 . S
C1165 C1161 1.408 . S
C1165 C1164 1.404 . S
C1165 H1177 0.930 . S
C1166 C1162 1.524 . S
C1166 H1178 0.956 . S
C1166 H1179 0.961 . S
C1166 H1180 0.961 . S
C1167 C1164 1.539 . S
C1167 H1181 0.958 . S
C1167 H1182 0.961 . S
C1167 H1183 0.960 . S
H1168 C1152 0.931 . S
H1169 C1157 0.929 . S
H1170 C1158 0.960 . S
H1171 C1158 0.962 . S
H1172 C1158 0.960 . S
H1173 C1159 0.961 . S
H1174 C1159 0.961 . S
H1175 C1159 0.961 . S
H1176 C1160 0.931 . S
H1177 C1165 0.930 . S
H1178 C1166 0.956 . S
H1179 C1166 0.961 . S
H1180 C1166 0.961 . S
H1181 C1167 0.958 . S
H1182 C1167 0.961 . S
H1183 C1167 0.960 . S
C1184 C1185 1.391 . S
C1184 C1186 1.394 . S
C1184 H1200 0.931 . S
C1185 C1184 1.391 . S
C1185 C1189 1.376 . S
C1186 C1184 1.394 . S
C1186 C1187 1.369 . S
C1186 C1190 1.531 . S
C1187 C1186 1.369 . S
C1187 C1188 1.410 . S
C1187 C1195 1.503 . S
C1188 C1187 1.410 . S
C1188 C1189 1.392 . S
C1188 C1191 1.511 . S
C1189 C1185 1.376 . S
C1189 C1188 1.392 . S
C1189 H1201 0.929 . S
C1190 C1186 1.531 . S
C1190 H1202 0.960 . S
C1190 H1203 0.962 . S
C1190 H1204 0.960 . S
C1191 C1188 1.511 . S
C1191 H1205 0.961 . S
C1191 H1206 0.961 . S
C1191 H1207 0.961 . S
C1192 C1193 1.370 . S
C1192 C1194 1.363 . S
C1192 H1208 0.931 . S
C1193 C1192 1.370 . S
C1193 C1197 1.408 . S
C1194 C1192 1.363 . S
C1194 C1195 1.370 . S
C1194 C1198 1.524 . S
C1195 C1187 1.503 . S
C1195 C1194 1.370 . S
C1195 C1196 1.403 . S
C1196 C1195 1.403 . S
C1196 C1197 1.404 . S
C1196 C1199 1.539 . S
C1197 C1193 1.408 . S
C1197 C1196 1.404 . S
C1197 H1209 0.930 . S
C1198 C1194 1.524 . S
C1198 H1210 0.956 . S
C1198 H1211 0.961 . S
C1198 H1212 0.961 . S
C1199 C1196 1.539 . S
C1199 H1213 0.958 . S
C1199 H1214 0.961 . S
C1199 H1215 0.960 . S
H1200 C1184 0.931 . S
H1201 C1189 0.929 . S
H1202 C1190 0.960 . S
H1203 C1190 0.962 . S
H1204 C1190 0.960 . S
H1205 C1191 0.961 . S
H1206 C1191 0.961 . S
H1207 C1191 0.961 . S
H1208 C1192 0.931 . S
H1209 C1197 0.930 . S
H1210 C1198 0.956 . S
H1211 C1198 0.961 . S
H1212 C1198 0.961 . S
H1213 C1199 0.958 . S
H1214 C1199 0.961 . S
H1215 C1199 0.960 . S
C1216 C1217 1.391 . S
C1216 C1218 1.394 . S
C1216 H1232 0.931 . S
C1217 C1216 1.391 . S
C1217 C1221 1.376 . S
C1218 C1216 1.394 . S
C1218 C1219 1.369 . S
C1218 C1222 1.531 . S
C1219 C1218 1.369 . S
C1219 C1220 1.410 . S
C1219 C1227 1.503 . S
C1220 C1219 1.410 . S
C1220 C1221 1.392 . S
C1220 C1223 1.511 . S
C1221 C1217 1.376 . S
C1221 C1220 1.392 . S
C1221 H1233 0.929 . S
C1222 C1218 1.531 . S
C1222 H1234 0.960 . S
C1222 H1235 0.962 . S
C1222 H1236 0.960 . S
C1223 C1220 1.511 . S
C1223 H1237 0.961 . S
C1223 H1238 0.961 . S
C1223 H1239 0.961 . S
C1224 C1225 1.370 . S
C1224 C1226 1.363 . S
C1224 H1240 0.931 . S
C1225 C1224 1.370 . S
C1225 C1229 1.408 . S
C1226 C1224 1.363 . S
C1226 C1227 1.370 . S
C1226 C1230 1.524 . S
C1227 C1219 1.503 . S
C1227 C1226 1.370 . S
C1227 C1228 1.403 . S
C1228 C1227 1.403 . S
C1228 C1229 1.404 . S
C1228 C1231 1.539 . S
C1229 C1225 1.408 . S
C1229 C1228 1.404 . S
C1229 H1241 0.930 . S
C1230 C1226 1.524 . S
C1230 H1242 0.956 . S
C1230 H1243 0.961 . S
C1230 H1244 0.961 . S
C1231 C1228 1.539 . S
C1231 H1245 0.958 . S
C1231 H1246 0.961 . S
C1231 H1247 0.960 . S
H1232 C1216 0.931 . S
H1233 C1221 0.929 . S
H1234 C1222 0.960 . S
H1235 C1222 0.962 . S
H1236 C1222 0.960 . S
H1237 C1223 0.961 . S
H1238 C1223 0.961 . S
H1239 C1223 0.961 . S
H1240 C1224 0.931 . S
H1241 C1229 0.930 . S
H1242 C1230 0.956 . S
H1243 C1230 0.961 . S
H1244 C1230 0.961 . S
H1245 C1231 0.958 . S
H1246 C1231 0.961 . S
H1247 C1231 0.960 . S
C1248 C1249 1.391 . S
C1248 C1250 1.394 . S
C1248 H1264 0.931 . S
C1249 C1248 1.391 . S
C1249 C1253 1.376 . S
C1250 C1248 1.394 . S
C1250 C1251 1.369 . S
C1250 C1254 1.531 . S
C1251 C1250 1.369 . S
C1251 C1252 1.410 . S
C1251 C1259 1.503 . S
C1252 C1251 1.410 . S
C1252 C1253 1.392 . S
C1252 C1255 1.511 . S
C1253 C1249 1.376 . S
C1253 C1252 1.392 . S
C1253 H1265 0.929 . S
C1254 C1250 1.531 . S
C1254 H1266 0.960 . S
C1254 H1267 0.962 . S
C1254 H1268 0.960 . S
C1255 C1252 1.511 . S
C1255 H1269 0.961 . S
C1255 H1270 0.961 . S
C1255 H1271 0.961 . S
C1256 C1257 1.370 . S
C1256 C1258 1.363 . S
C1256 H1272 0.931 . S
C1257 C1256 1.370 . S
C1257 C1261 1.408 . S
C1258 C1256 1.363 . S
C1258 C1259 1.370 . S
C1258 C1262 1.524 . S
C1259 C1251 1.503 . S
C1259 C1258 1.370 . S
C1259 C1260 1.403 . S
C1260 C1259 1.403 . S
C1260 C1261 1.404 . S
C1260 C1263 1.539 . S
C1261 C1257 1.408 . S
C1261 C1260 1.404 . S
C1261 H1273 0.930 . S
C1262 C1258 1.524 . S
C1262 H1274 0.956 . S
C1262 H1275 0.961 . S
C1262 H1276 0.961 . S
C1263 C1260 1.539 . S
C1263 H1277 0.958 . S
C1263 H1278 0.961 . S
C1263 H1279 0.960 . S
H1264 C1248 0.931 . S
H1265 C1253 0.929 . S
H1266 C1254 0.960 . S
H1267 C1254 0.962 . S
H1268 C1254 0.960 . S
H1269 C1255 0.961 . S
H1270 C1255 0.961 . S
H1271 C1255 0.961 . S
H1272 C1256 0.931 . S
H1273 C1261 0.930 . S
H1274 C1262 0.956 . S
H1275 C1262 0.961 . S
H1276 C1262 0.961 . S
H1277 C1263 0.958 . S
H1278 C1263 0.961 . S
H1279 C1263 0.960 . S
C265 C145 1.507 . S
C257 C7 1.417 . S
C297 C171 1.507 . S
C289 C32 1.430 . S
C329 C185 1.502 . S
C321 C44 1.431 . S
C361 C187 1.500 . S
C353 C62 1.437 . S
C385 C88 1.408 . S
C393 C184 1.508 . S
C425 C186 1.501 . S
C417 C106 1.459 . S
C457 C144 1.504 . S
C449 C124 1.461 . S
C489 C170 1.509 . S
C481 C140 1.416 . S
C521 C172 1.505 . S
C513 C142 1.414 . S
C553 C198 1.499 . S
C545 C86 1.475 . S
C585 C156 1.507 . S
C577 C104 1.446 . S
C617 C158 1.507 . S
C609 C122 1.416 . S
C649 C157 1.504 . S
C641 C34 1.446 . S
C681 C159 1.507 . S
C673 C43 1.408 . S
C713 C173 1.501 . S
C705 C61 1.448 . S
C745 C199 1.495 . S
C737 C8 1.467 . S
C777 C201 1.505 . S
C769 C133 1.426 . S
C801 C80 1.465 . S
C809 C227 1.503 . S
C833 C98 1.475 . S
C841 C240 1.498 . S
C865 C116 1.451 . S
C873 C243 1.500 . S
C897 C25 1.474 . S
C905 C241 1.502 . S
C929 C52 1.427 . S
C937 C242 1.504 . S
C961 C70 1.453 . S
C969 C200 1.502 . S
C1001 C226 1.506 . S
C993 C14 1.450 . S
C1033 C229 1.504 . S
C1025 C16 1.435 . S
C1057 C26 1.446 . S
C1065 C254 1.498 . S
C1089 C50 1.474 . S
C1097 C212 1.502 . S
C1121 C68 1.416 . S
C1129 C214 1.507 . S
C1161 C213 1.503 . S
C1153 C79 1.423 . S
C1193 C215 1.507 . S
C1185 C97 1.408 . S
C1217 C115 1.428 . S
C1225 C228 1.502 . S
C1257 C255 1.496 . S
C1249 C134 1.466 . S
