# Generated by pormake.
# Topology ctn, (3,4)-cn, num edge types: 1
# Building blocks:
#     Node 0, Type 0, BuildingBlock: KAKCAD_clean_linker_0, # of connection points: 3
#     Node 1, Type 0, BuildingBlock: KAKCAD_clean_linker_0, # of connection points: 3
#     Node 2, Type 0, BuildingBlock: KAKCAD_clean_linker_0, # of connection points: 3
#     Node 3, Type 0, BuildingBlock: KAKCAD_clean_linker_0, # of connection points: 3
#     Node 4, Type 0, BuildingBlock: KAKCAD_clean_linker_0, # of connection points: 3
#     Node 5, Type 0, BuildingBlock: KAKCAD_clean_linker_0, # of connection points: 3
#     Node 6, Type 0, BuildingBlock: KAKCAD_clean_linker_0, # of connection points: 3
#     Node 7, Type 0, BuildingBlock: KAKCAD_clean_linker_0, # of connection points: 3
#     Node 8, Type 0, BuildingBlock: KAKCAD_clean_linker_0, # of connection points: 3
#     Node 9, Type 0, BuildingBlock: KAKCAD_clean_linker_0, # of connection points: 3
#     Node 10, Type 0, BuildingBlock: KAKCAD_clean_linker_0, # of connection points: 3
#     Node 11, Type 0, BuildingBlock: KAKCAD_clean_linker_0, # of connection points: 3
#     Node 12, Type 0, BuildingBlock: KAKCAD_clean_linker_0, # of connection points: 3
#     Node 13, Type 0, BuildingBlock: KAKCAD_clean_linker_0, # of connection points: 3
#     Node 14, Type 0, BuildingBlock: KAKCAD_clean_linker_0, # of connection points: 3
#     Node 15, Type 0, BuildingBlock: KAKCAD_clean_linker_0, # of connection points: 3
#     Node 16, Type 1, BuildingBlock: QUQFOY_clean_sbu_1, # of connection points: 4
#     Node 17, Type 1, BuildingBlock: QUQFOY_clean_sbu_1, # of connection points: 4
#     Node 18, Type 1, BuildingBlock: QUQFOY_clean_sbu_1, # of connection points: 4
#     Node 19, Type 1, BuildingBlock: QUQFOY_clean_sbu_1, # of connection points: 4
#     Node 20, Type 1, BuildingBlock: QUQFOY_clean_sbu_1, # of connection points: 4
#     Node 21, Type 1, BuildingBlock: QUQFOY_clean_sbu_1, # of connection points: 4
#     Node 22, Type 1, BuildingBlock: QUQFOY_clean_sbu_1, # of connection points: 4
#     Node 23, Type 1, BuildingBlock: QUQFOY_clean_sbu_1, # of connection points: 4
#     Node 24, Type 1, BuildingBlock: QUQFOY_clean_sbu_1, # of connection points: 4
#     Node 25, Type 1, BuildingBlock: QUQFOY_clean_sbu_1, # of connection points: 4
#     Node 26, Type 1, BuildingBlock: QUQFOY_clean_sbu_1, # of connection points: 4
#     Node 27, Type 1, BuildingBlock: QUQFOY_clean_sbu_1, # of connection points: 4
#     Edge 28, Type (0, 1), BuildingBlock: MIFKUJ_clean_linker_0, # of connection points: 2
#     Edge 29, Type (0, 1), BuildingBlock: MIFKUJ_clean_linker_0, # of connection points: 2
#     Edge 30, Type (0, 1), BuildingBlock: MIFKUJ_clean_linker_0, # of connection points: 2
#     Edge 31, Type (0, 1), BuildingBlock: MIFKUJ_clean_linker_0, # of connection points: 2
#     Edge 32, Type (0, 1), BuildingBlock: MIFKUJ_clean_linker_0, # of connection points: 2
#     Edge 33, Type (0, 1), BuildingBlock: MIFKUJ_clean_linker_0, # of connection points: 2
#     Edge 34, Type (0, 1), BuildingBlock: MIFKUJ_clean_linker_0, # of connection points: 2
#     Edge 35, Type (0, 1), BuildingBlock: MIFKUJ_clean_linker_0, # of connection points: 2
#     Edge 36, Type (0, 1), BuildingBlock: MIFKUJ_clean_linker_0, # of connection points: 2
#     Edge 37, Type (0, 1), BuildingBlock: MIFKUJ_clean_linker_0, # of connection points: 2
#     Edge 38, Type (0, 1), BuildingBlock: MIFKUJ_clean_linker_0, # of connection points: 2
#     Edge 39, Type (0, 1), BuildingBlock: MIFKUJ_clean_linker_0, # of connection points: 2
#     Edge 40, Type (0, 1), BuildingBlock: MIFKUJ_clean_linker_0, # of connection points: 2
#     Edge 41, Type (0, 1), BuildingBlock: MIFKUJ_clean_linker_0, # of connection points: 2
#     Edge 42, Type (0, 1), BuildingBlock: MIFKUJ_clean_linker_0, # of connection points: 2
#     Edge 43, Type (0, 1), BuildingBlock: MIFKUJ_clean_linker_0, # of connection points: 2
#     Edge 44, Type (0, 1), BuildingBlock: MIFKUJ_clean_linker_0, # of connection points: 2
#     Edge 45, Type (0, 1), BuildingBlock: MIFKUJ_clean_linker_0, # of connection points: 2
#     Edge 46, Type (0, 1), BuildingBlock: MIFKUJ_clean_linker_0, # of connection points: 2
#     Edge 47, Type (0, 1), BuildingBlock: MIFKUJ_clean_linker_0, # of connection points: 2
#     Edge 48, Type (0, 1), BuildingBlock: MIFKUJ_clean_linker_0, # of connection points: 2
#     Edge 49, Type (0, 1), BuildingBlock: MIFKUJ_clean_linker_0, # of connection points: 2
#     Edge 50, Type (0, 1), BuildingBlock: MIFKUJ_clean_linker_0, # of connection points: 2
#     Edge 51, Type (0, 1), BuildingBlock: MIFKUJ_clean_linker_0, # of connection points: 2
#     Edge 52, Type (0, 1), BuildingBlock: MIFKUJ_clean_linker_0, # of connection points: 2
#     Edge 53, Type (0, 1), BuildingBlock: MIFKUJ_clean_linker_0, # of connection points: 2
#     Edge 54, Type (0, 1), BuildingBlock: MIFKUJ_clean_linker_0, # of connection points: 2
#     Edge 55, Type (0, 1), BuildingBlock: MIFKUJ_clean_linker_0, # of connection points: 2
#     Edge 56, Type (0, 1), BuildingBlock: MIFKUJ_clean_linker_0, # of connection points: 2
#     Edge 57, Type (0, 1), BuildingBlock: MIFKUJ_clean_linker_0, # of connection points: 2
#     Edge 58, Type (0, 1), BuildingBlock: MIFKUJ_clean_linker_0, # of connection points: 2
#     Edge 59, Type (0, 1), BuildingBlock: MIFKUJ_clean_linker_0, # of connection points: 2
#     Edge 60, Type (0, 1), BuildingBlock: MIFKUJ_clean_linker_0, # of connection points: 2
#     Edge 61, Type (0, 1), BuildingBlock: MIFKUJ_clean_linker_0, # of connection points: 2
#     Edge 62, Type (0, 1), BuildingBlock: MIFKUJ_clean_linker_0, # of connection points: 2
#     Edge 63, Type (0, 1), BuildingBlock: MIFKUJ_clean_linker_0, # of connection points: 2
#     Edge 64, Type (0, 1), BuildingBlock: MIFKUJ_clean_linker_0, # of connection points: 2
#     Edge 65, Type (0, 1), BuildingBlock: MIFKUJ_clean_linker_0, # of connection points: 2
#     Edge 66, Type (0, 1), BuildingBlock: MIFKUJ_clean_linker_0, # of connection points: 2
#     Edge 67, Type (0, 1), BuildingBlock: MIFKUJ_clean_linker_0, # of connection points: 2
#     Edge 68, Type (0, 1), BuildingBlock: MIFKUJ_clean_linker_0, # of connection points: 2
#     Edge 69, Type (0, 1), BuildingBlock: MIFKUJ_clean_linker_0, # of connection points: 2
#     Edge 70, Type (0, 1), BuildingBlock: MIFKUJ_clean_linker_0, # of connection points: 2
#     Edge 71, Type (0, 1), BuildingBlock: MIFKUJ_clean_linker_0, # of connection points: 2
#     Edge 72, Type (0, 1), BuildingBlock: MIFKUJ_clean_linker_0, # of connection points: 2
#     Edge 73, Type (0, 1), BuildingBlock: MIFKUJ_clean_linker_0, # of connection points: 2
#     Edge 74, Type (0, 1), BuildingBlock: MIFKUJ_clean_linker_0, # of connection points: 2
#     Edge 75, Type (0, 1), BuildingBlock: MIFKUJ_clean_linker_0, # of connection points: 2
# Relax obj value: 0.035
# Max RMSD: 0.143
# Mean RMSD: 0.064
data_MOF--net-ctn--node1-QUQFOY_clean_sbu_1--node2-KAKCAD_clean_linker_0--edge1-MIFKUJ_clean_linker_0
_symmetry_space_group_name_H-M    P1
_symmetry_Int_Tables_number       1
_symmetry_cell_setting            triclinic
loop_
_symmetry_equiv_pos_as_xyz
'x, y, z'
_cell_length_a     83.922971
_cell_length_b     83.787123
_cell_length_c     83.889362
_cell_angle_alpha  92.770659
_cell_angle_beta   90.371047
_cell_angle_gamma 94.548222
loop_
_atom_site_label
_atom_site_type_symbol
_atom_site_fract_x
_atom_site_fract_y
_atom_site_fract_z
_atom_type_partial_charge
C0 C 0.07647 0.13715 0.03587 0.0
C1 C 0.07153 0.15273 0.03813 0.0
C2 C 0.07838 0.12765 0.04886 0.0
C3 C 0.07557 0.13354 0.0645 0.0
C4 C 0.07112 0.14931 0.06682 0.0
C5 C 0.06908 0.15878 0.05379 0.0
C6 C 0.07656 0.12296 0.07818 0.0
C7 C 0.08819 0.11182 0.07849 0.0
C8 C 0.08821 0.10064 0.09042 0.0
C9 C 0.07685 0.10111 0.1026 0.0
C10 C 0.06503 0.11212 0.10253 0.0
C11 C 0.06505 0.12305 0.0903 0.0
C12 C 0.05176 0.11121 0.11424 0.0
C13 C 0.04491 0.09623 0.11866 0.0
C14 C 0.04527 0.12517 0.12043 0.0
C15 C 0.032 0.12414 0.13046 0.0
C16 C 0.02495 0.10912 0.13456 0.0
C17 C 0.0989 0.08737 0.08909 0.0
C18 C 0.10013 0.07881 0.07441 0.0
C19 C 0.10722 0.0826 0.10243 0.0
C20 C 0.11662 0.06951 0.10104 0.0
C21 C 0.11775 0.06087 0.08633 0.0
C22 C 0.10936 0.06571 0.07306 0.0
C23 C 0.03176 0.09521 0.12875 0.0
H24 H 0.07868 0.13217 0.02401 0.0
H25 H 0.0816 0.1155 0.04656 0.0
H26 H 0.06902 0.15429 0.0787 0.0
H27 H 0.06512 0.17067 0.05598 0.0
H28 H 0.09714 0.1116 0.06924 0.0
H29 H 0.05552 0.131 0.08968 0.0
H30 H 0.07681 0.09242 0.11176 0.0
H31 H 0.04939 0.0852 0.11397 0.0
H32 H 0.05035 0.13691 0.11741 0.0
H33 H 0.02703 0.1351 0.13466 0.0
H34 H 0.09356 0.08196 0.06401 0.0
H35 H 0.10648 0.08901 0.11389 0.0
H36 H 0.02685 0.08345 0.13189 0.0
H37 H 0.10955 0.05913 0.06164 0.0
H38 H 0.12304 0.06622 0.11147 0.0
C39 C 0.33509 0.74997 0.26613 0.0
C40 C 0.34359 0.73624 0.26704 0.0
C41 C 0.32061 0.74928 0.25771 0.0
C42 C 0.31435 0.73485 0.24999 0.0
C43 C 0.32302 0.7212 0.2507 0.0
C44 C 0.33744 0.72188 0.25917 0.0
C45 C 0.29876 0.73388 0.24136 0.0
C46 C 0.29475 0.74626 0.23173 0.0
C47 C 0.28027 0.74499 0.22307 0.0
C48 C 0.26971 0.73122 0.2242 0.0
C49 C 0.27348 0.71881 0.23388 0.0
C50 C 0.28796 0.72031 0.24248 0.0
C51 C 0.26245 0.70414 0.2349 0.0
C52 C 0.24587 0.70518 0.23618 0.0
C53 C 0.26851 0.68898 0.23484 0.0
C54 C 0.25828 0.67518 0.23632 0.0
C55 C 0.24173 0.67623 0.23784 0.0
C56 C 0.27649 0.75773 0.21232 0.0
C57 C 0.27847 0.77397 0.21753 0.0
C58 C 0.27116 0.75369 0.19663 0.0
C59 C 0.2681 0.76565 0.18627 0.0
C60 C 0.2702 0.7819 0.19141 0.0
C61 C 0.27524 0.78595 0.20719 0.0
C62 C 0.23561 0.69135 0.23762 0.0
H63 H 0.33946 0.76117 0.27224 0.0
H64 H 0.31414 0.75996 0.25753 0.0
H65 H 0.31871 0.70998 0.24461 0.0
H66 H 0.34386 0.71117 0.25944 0.0
H67 H 0.30314 0.75663 0.23048 0.0
H68 H 0.29074 0.71096 0.25029 0.0
H69 H 0.25862 0.73012 0.2174 0.0
H70 H 0.24085 0.7167 0.23644 0.0
H71 H 0.2812 0.68774 0.23356 0.0
H72 H 0.26332 0.66367 0.23617 0.0
H73 H 0.28248 0.77739 0.2296 0.0
H74 H 0.26965 0.74128 0.19226 0.0
H75 H 0.22292 0.69254 0.23895 0.0
H76 H 0.27703 0.79839 0.21143 0.0
H77 H 0.2641 0.76219 0.1742 0.0
C78 C 0.95247 0.46536 0.12618 0.0
C79 C 0.96831 0.46179 0.12334 0.0
C80 C 0.94116 0.46388 0.11376 0.0
C81 C 0.94552 0.45893 0.09825 0.0
C82 C 0.96138 0.45526 0.09551 0.0
C83 C 0.97261 0.45659 0.10793 0.0
C84 C 0.93377 0.45794 0.08482 0.0
C85 C 0.92293 0.46976 0.08336 0.0
C86 C 0.91252 0.46945 0.0701 0.0
C87 C 0.91308 0.45704 0.05821 0.0
C88 C 0.92414 0.44543 0.05932 0.0
C89 C 0.93411 0.44573 0.07281 0.0
C90 C 0.92643 0.43382 0.04581 0.0
C91 C 0.9134 0.42482 0.03831 0.0
C92 C 0.94194 0.43183 0.04027 0.0
C93 C 0.94444 0.42099 0.0276 0.0
C94 C 0.93149 0.41182 0.02019 0.0
C95 C 0.90202 0.48278 0.0681 0.0
C96 C 0.89487 0.49015 0.08137 0.0
C97 C 0.89968 0.48874 0.05295 0.0
C98 C 0.89063 0.50182 0.05114 0.0
C99 C 0.88388 0.50951 0.06445 0.0
C100 C 0.88598 0.5034 0.07958 0.0
C101 C 0.91593 0.4138 0.02566 0.0
H102 H 0.94883 0.4693 0.13799 0.0
H103 H 0.92901 0.46659 0.11633 0.0
H104 H 0.96529 0.45177 0.08366 0.0
H105 H 0.98481 0.45405 0.10534 0.0
H106 H 0.9232 0.47966 0.09217 0.0
H107 H 0.94236 0.4365 0.0738 0.0
H108 H 0.90534 0.45671 0.0478 0.0
H109 H 0.90133 0.42614 0.04237 0.0
H110 H 0.95219 0.43876 0.04571 0.0
H111 H 0.95657 0.41958 0.02378 0.0
H112 H 0.89622 0.48576 0.09319 0.0
H113 H 0.90516 0.4836 0.04246 0.0
H114 H 0.90574 0.40689 0.02011 0.0
H115 H 0.88108 0.50904 0.09013 0.0
H116 H 0.889 0.50594 0.03924 0.0
C117 C 0.7109 0.77118 0.18275 0.0
C118 C 0.72638 0.76832 0.1776 0.0
C119 C 0.70865 0.7826 0.19506 0.0
C120 C 0.72182 0.79143 0.20251 0.0
C121 C 0.7373 0.7884 0.19752 0.0
C122 C 0.73956 0.77699 0.1852 0.0
C123 C 0.71942 0.80395 0.21525 0.0
C124 C 0.70771 0.80135 0.22696 0.0
C125 C 0.7054 0.81319 0.23896 0.0
C126 C 0.71489 0.82777 0.23918 0.0
C127 C 0.72651 0.83068 0.22747 0.0
C128 C 0.72872 0.81868 0.21559 0.0
C129 C 0.73614 0.84635 0.22748 0.0
C130 C 0.72889 0.86074 0.2305 0.0
C131 C 0.75261 0.84704 0.2244 0.0
C132 C 0.76166 0.86178 0.22445 0.0
C133 C 0.75444 0.87617 0.22757 0.0
C134 C 0.69285 0.8105 0.25111 0.0
C135 C 0.67723 0.80486 0.24644 0.0
C136 C 0.69629 0.81397 0.26738 0.0
C137 C 0.6843 0.81196 0.27876 0.0
C138 C 0.6686 0.80666 0.27405 0.0
C139 C 0.66519 0.80306 0.25779 0.0
C140 C 0.73794 0.87548 0.23055 0.0
H141 H 0.7005 0.76457 0.17727 0.0
H142 H 0.69656 0.78473 0.19851 0.0
H143 H 0.74771 0.79486 0.20314 0.0
H144 H 0.75163 0.77521 0.18143 0.0
H145 H 0.70058 0.78999 0.22694 0.0
H146 H 0.73738 0.82101 0.20629 0.0
H147 H 0.71311 0.83693 0.24843 0.0
H148 H 0.71617 0.86063 0.23264 0.0
H149 H 0.75858 0.83616 0.22221 0.0
H150 H 0.77439 0.86189 0.22236 0.0
H151 H 0.67424 0.8022 0.23396 0.0
H152 H 0.70827 0.81824 0.2713 0.0
H153 H 0.73197 0.88635 0.23276 0.0
H154 H 0.65321 0.79884 0.25386 0.0
H155 H 0.68722 0.81489 0.29121 0.0
C156 C 0.01459 0.97739 0.4093 0.0
C157 C 0.01778 0.97924 0.393 0.0
C158 C 0.02626 0.97245 0.41951 0.0
C159 C 0.04144 0.96948 0.41372 0.0
C160 C 0.04468 0.97123 0.39749 0.0
C161 C 0.03293 0.97591 0.3872 0.0
C162 C 0.05404 0.96507 0.42471 0.0
C163 C 0.05092 0.9526 0.43509 0.0
C164 C 0.06269 0.94874 0.44591 0.0
C165 C 0.07768 0.95746 0.4462 0.0
C166 C 0.08083 0.97042 0.43632 0.0
C167 C 0.06896 0.97394 0.42541 0.0
C168 C 0.09587 0.98107 0.43837 0.0
C169 C 0.10273 0.98438 0.45367 0.0
C170 C 0.10302 0.98875 0.42533 0.0
C171 C 0.11631 0.99981 0.42763 0.0
C172 C 0.12294 0.00311 0.44293 0.0
C173 C 0.05896 0.93655 0.45786 0.0
C174 C 0.04476 0.93674 0.46659 0.0
C175 C 0.06998 0.92541 0.4614 0.0
C176 C 0.06699 0.9149 0.47368 0.0
C177 C 0.05297 0.91538 0.48272 0.0
C178 C 0.04182 0.92633 0.47891 0.0
C179 C 0.1162 0.99514 0.45588 0.0
H180 H 0.00321 0.98013 0.41431 0.0
H181 H 0.02356 0.97136 0.43204 0.0
H182 H 0.05628 0.96888 0.39274 0.0
H183 H 0.03576 0.97685 0.37469 0.0
H184 H 0.03932 0.9459 0.43474 0.0
H185 H 0.07092 0.98413 0.41798 0.0
H186 H 0.0867 0.95451 0.45463 0.0
H187 H 0.09741 0.97912 0.4641 0.0
H188 H 0.09828 0.98633 0.41334 0.0
H189 H 0.12141 0.00581 0.41747 0.0
H190 H 0.03618 0.94538 0.46432 0.0
H191 H 0.08096 0.92491 0.45475 0.0
H192 H 0.121 0.9977 0.46783 0.0
H193 H 0.03104 0.92726 0.4858 0.0
H194 H 0.07571 0.90645 0.47612 0.0
C195 C 0.17612 0.74556 0.75591 0.0
C196 C 0.17126 0.76096 0.75349 0.0
C197 C 0.18751 0.74326 0.76762 0.0
C198 C 0.19434 0.75629 0.77719 0.0
C199 C 0.18975 0.77173 0.77454 0.0
C200 C 0.17833 0.77404 0.76285 0.0
C201 C 0.20588 0.75375 0.79017 0.0
C202 C 0.21762 0.74281 0.78789 0.0
C203 C 0.22836 0.74022 0.80024 0.0
C204 C 0.22729 0.74868 0.81501 0.0
C205 C 0.21551 0.75951 0.81759 0.0
C206 C 0.20492 0.762 0.80508 0.0
C207 C 0.21394 0.76789 0.83344 0.0
C208 C 0.21502 0.75957 0.84752 0.0
C209 C 0.21105 0.7842 0.8346 0.0
C210 C 0.20923 0.792 0.8495 0.0
C211 C 0.21023 0.78367 0.86358 0.0
C212 C 0.2404 0.72834 0.79789 0.0
C213 C 0.23575 0.71276 0.79176 0.0
C214 C 0.2565 0.73236 0.80212 0.0
C215 C 0.26774 0.72096 0.80031 0.0
C216 C 0.26301 0.70528 0.7945 0.0
C217 C 0.24693 0.7013 0.7902 0.0
C218 C 0.21318 0.76737 0.86242 0.0
H219 H 0.17106 0.73525 0.74878 0.0
H220 H 0.19067 0.73119 0.76943 0.0
H221 H 0.19493 0.78207 0.78156 0.0
H222 H 0.17477 0.78603 0.76141 0.0
H223 H 0.2186 0.73646 0.77642 0.0
H224 H 0.19552 0.76999 0.80715 0.0
H225 H 0.23554 0.74666 0.82457 0.0
H226 H 0.21698 0.74694 0.84701 0.0
H227 H 0.21036 0.79098 0.82399 0.0
H228 H 0.20726 0.80464 0.84999 0.0
H229 H 0.22339 0.70935 0.78851 0.0
H230 H 0.26038 0.74432 0.8068 0.0
H231 H 0.21381 0.76056 0.87302 0.0
H232 H 0.24302 0.68932 0.78559 0.0
H233 H 0.28006 0.72429 0.80378 0.0
C234 C 0.95738 0.63619 0.48284 0.0
C235 C 0.95263 0.63739 0.49881 0.0
C236 C 0.95288 0.62238 0.47335 0.0
C237 C 0.94387 0.60935 0.47978 0.0
C238 C 0.93922 0.61068 0.49587 0.0
C239 C 0.9434 0.62462 0.50521 0.0
C240 C 0.9397 0.59426 0.47 0.0
C241 C 0.95042 0.58862 0.45863 0.0
C242 C 0.94693 0.57396 0.45 0.0
C243 C 0.9326 0.5648 0.45288 0.0
C244 C 0.9218 0.57018 0.46424 0.0
C245 C 0.92529 0.58501 0.47251 0.0
C246 C 0.90737 0.55987 0.46821 0.0
C247 C 0.89754 0.55207 0.45613 0.0
C248 C 0.90367 0.55734 0.48425 0.0
C249 C 0.8906 0.54699 0.48814 0.0
C250 C 0.88088 0.53904 0.47608 0.0
C251 C 0.95856 0.568 0.43839 0.0
C252 C 0.96578 0.57827 0.42732 0.0
C253 C 0.96267 0.55207 0.43845 0.0
C254 C 0.97388 0.54655 0.4277 0.0
C255 C 0.98107 0.55682 0.41661 0.0
C256 C 0.97688 0.57272 0.41649 0.0
C257 C 0.88434 0.54181 0.46003 0.0
H258 H 0.96446 0.646 0.47769 0.0
H259 H 0.95646 0.62195 0.46097 0.0
H260 H 0.93265 0.60083 0.50142 0.0
H261 H 0.9398 0.62526 0.51759 0.0
H262 H 0.96183 0.59527 0.45691 0.0
H263 H 0.9167 0.5893 0.48095 0.0
H264 H 0.92999 0.55333 0.44648 0.0
H265 H 0.90009 0.55389 0.44367 0.0
H266 H 0.91114 0.56308 0.4938 0.0
H267 H 0.88811 0.54516 0.5006 0.0
H268 H 0.96275 0.59058 0.42697 0.0
H269 H 0.9574 0.54394 0.44696 0.0
H270 H 0.87707 0.53574 0.45051 0.0
H271 H 0.98234 0.58093 0.40816 0.0
H272 H 0.97681 0.5342 0.42797 0.0
C273 C 0.79489 0.78903 0.84825 0.0
C274 C 0.78227 0.77719 0.8498 0.0
C275 C 0.79567 0.7984 0.83493 0.0
C276 C 0.7837 0.79628 0.82307 0.0
C277 C 0.77092 0.78463 0.82473 0.0
C278 C 0.77031 0.77503 0.83793 0.0
C279 C 0.78474 0.80617 0.80895 0.0
C280 C 0.79875 0.8071 0.79993 0.0
C281 C 0.80033 0.81705 0.78694 0.0
C282 C 0.78764 0.82622 0.78312 0.0
C283 C 0.77349 0.82538 0.79204 0.0
C284 C 0.77205 0.81514 0.80482 0.0
C285 C 0.76059 0.83589 0.78865 0.0
C286 C 0.76432 0.85227 0.78647 0.0
C287 C 0.74448 0.82982 0.78828 0.0
C288 C 0.73232 0.84001 0.78603 0.0
C289 C 0.73606 0.85648 0.78431 0.0
C290 C 0.81527 0.81781 0.77747 0.0
C291 C 0.83022 0.81756 0.78506 0.0
C292 C 0.81468 0.81833 0.76075 0.0
C293 C 0.82869 0.81826 0.75183 0.0
C294 C 0.84361 0.81759 0.75942 0.0
C295 C 0.8442 0.81738 0.77616 0.0
C296 C 0.75218 0.86247 0.78438 0.0
H297 H 0.80429 0.79083 0.85722 0.0
H298 H 0.80559 0.80738 0.83392 0.0
H299 H 0.76159 0.78279 0.81569 0.0
H300 H 0.76043 0.766 0.83893 0.0
H301 H 0.80835 0.79982 0.80296 0.0
H302 H 0.76136 0.81469 0.81202 0.0
H303 H 0.78882 0.83418 0.77332 0.0
H304 H 0.77661 0.85731 0.78684 0.0
H305 H 0.74128 0.81722 0.78985 0.0
H306 H 0.71998 0.83511 0.7861 0.0
H307 H 0.83115 0.81742 0.79794 0.0
H308 H 0.80336 0.81842 0.7545 0.0
H309 H 0.7554 0.87509 0.78294 0.0
H310 H 0.85544 0.81669 0.7824 0.0
H311 H 0.82781 0.81867 0.73898 0.0
C312 C 0.29599 0.2854 0.34403 0.0
C313 C 0.28376 0.27314 0.34544 0.0
C314 C 0.29637 0.295 0.33087 0.0
C315 C 0.28436 0.2927 0.31907 0.0
C316 C 0.27198 0.28059 0.32059 0.0
C317 C 0.27178 0.27076 0.3336 0.0
C318 C 0.28489 0.30289 0.30516 0.0
C319 C 0.29877 0.30445 0.29597 0.0
C320 C 0.29974 0.31457 0.28309 0.0
C321 C 0.28667 0.32334 0.27962 0.0
C322 C 0.27273 0.32202 0.28883 0.0
C323 C 0.27182 0.31153 0.30142 0.0
C324 C 0.25962 0.33245 0.28604 0.0
C325 C 0.26315 0.34891 0.28416 0.0
C326 C 0.24355 0.32625 0.28591 0.0
C327 C 0.23124 0.33639 0.28418 0.0
C328 C 0.23482 0.35293 0.28276 0.0
C329 C 0.31447 0.31606 0.27342 0.0
C330 C 0.3296 0.31724 0.28086 0.0
C331 C 0.31353 0.31603 0.25668 0.0
C332 C 0.32743 0.31686 0.24757 0.0
C333 C 0.34256 0.31776 0.25501 0.0
C334 C 0.34348 0.31809 0.27175 0.0
C335 C 0.25088 0.35905 0.2826 0.0
H336 H 0.30539 0.2874 0.35299 0.0
H337 H 0.30598 0.30433 0.32996 0.0
H338 H 0.26263 0.27859 0.31158 0.0
H339 H 0.2622 0.2614 0.33451 0.0
H340 H 0.30875 0.29756 0.29874 0.0
H341 H 0.26127 0.31066 0.30881 0.0
H342 H 0.28744 0.33143 0.26991 0.0
H343 H 0.27541 0.35406 0.28436 0.0
H344 H 0.24051 0.31358 0.28725 0.0
H345 H 0.21895 0.33139 0.28441 0.0
H346 H 0.33072 0.31758 0.29374 0.0
H347 H 0.30204 0.31496 0.25061 0.0
H348 H 0.25396 0.37173 0.28138 0.0
H349 H 0.35496 0.31905 0.27785 0.0
H350 H 0.3263 0.31636 0.23468 0.0
C351 C 0.45056 0.96177 0.63047 0.0
C352 C 0.46615 0.95735 0.62759 0.0
C353 C 0.43914 0.9606 0.61814 0.0
C354 C 0.44308 0.95488 0.60276 0.0
C355 C 0.45861 0.95028 0.59999 0.0
C356 C 0.46998 0.95146 0.61225 0.0
C357 C 0.43132 0.95401 0.58937 0.0
C358 C 0.4219 0.96678 0.58682 0.0
C359 C 0.41203 0.96667 0.57317 0.0
C360 C 0.41192 0.95361 0.5619 0.0
C361 C 0.42142 0.9408 0.56422 0.0
C362 C 0.43056 0.9409 0.57831 0.0
C363 C 0.42288 0.92787 0.55159 0.0
C364 C 0.40978 0.9219 0.54187 0.0
C365 C 0.43776 0.92152 0.54904 0.0
C366 C 0.4394 0.90929 0.53749 0.0
C367 C 0.42634 0.90335 0.52791 0.0
C368 C 0.40263 0.98066 0.57031 0.0
C369 C 0.39557 0.98893 0.58308 0.0
C370 C 0.40104 0.98617 0.55485 0.0
C371 C 0.3927 0.99962 0.55225 0.0
C372 C 0.38593 0.00809 0.56507 0.0
C373 C 0.38742 0.00251 0.58051 0.0
C374 C 0.41154 0.90981 0.53001 0.0
H375 H 0.44731 0.96646 0.64216 0.0
H376 H 0.42724 0.96416 0.62064 0.0
H377 H 0.46212 0.94605 0.58823 0.0
H378 H 0.48182 0.9478 0.60969 0.0
H379 H 0.42289 0.97716 0.59509 0.0
H380 H 0.43746 0.93084 0.58056 0.0
H381 H 0.40473 0.9536 0.55114 0.0
H382 H 0.39813 0.92641 0.54353 0.0
H383 H 0.44829 0.92612 0.55583 0.0
H384 H 0.45098 0.9046 0.53584 0.0
H385 H 0.39636 0.98493 0.59512 0.0
H386 H 0.40649 0.98032 0.54472 0.0
H387 H 0.40134 0.90536 0.52265 0.0
H388 H 0.38253 0.00877 0.59072 0.0
H389 H 0.39157 0.00333 0.54014 0.0
C390 C 0.21118 0.27214 0.67847 0.0
C391 C 0.22668 0.26986 0.67301 0.0
C392 C 0.20878 0.28319 0.69108 0.0
C393 C 0.22183 0.29223 0.69853 0.0
C394 C 0.23734 0.28986 0.69315 0.0
C395 C 0.23974 0.27882 0.68054 0.0
C396 C 0.21928 0.30419 0.71177 0.0
C397 C 0.20794 0.30071 0.72364 0.0
C398 C 0.20556 0.31194 0.7362 0.0
C399 C 0.2146 0.3268 0.73682 0.0
C400 C 0.2258 0.33061 0.72495 0.0
C401 C 0.2281 0.3192 0.7125 0.0
C402 C 0.23492 0.34659 0.72542 0.0
C403 C 0.22735 0.36054 0.72968 0.0
C404 C 0.25125 0.34803 0.72164 0.0
C405 C 0.25983 0.36305 0.72221 0.0
C406 C 0.25228 0.37697 0.7266 0.0
C407 C 0.19337 0.30837 0.7485 0.0
C408 C 0.17776 0.30253 0.74398 0.0
C409 C 0.19708 0.31133 0.76479 0.0
C410 C 0.18534 0.30868 0.77633 0.0
C411 C 0.16963 0.30326 0.77178 0.0
C412 C 0.16598 0.3001 0.7555 0.0
C413 C 0.23593 0.37555 0.73029 0.0
H414 H 0.20087 0.26532 0.67305 0.0
H415 H 0.19667 0.28482 0.69483 0.0
H416 H 0.24766 0.2965 0.69874 0.0
H417 H 0.25182 0.27748 0.67652 0.0
H418 H 0.20118 0.28913 0.72333 0.0
H419 H 0.23643 0.32219 0.70309 0.0
H420 H 0.21277 0.33546 0.74652 0.0
H421 H 0.21472 0.3599 0.73238 0.0
H422 H 0.2575 0.33751 0.71852 0.0
H423 H 0.27246 0.36372 0.71952 0.0
H424 H 0.17456 0.30025 0.7315 0.0
H425 H 0.20905 0.31574 0.76859 0.0
H426 H 0.22973 0.38608 0.7335 0.0
H427 H 0.15398 0.2958 0.75168 0.0
H428 H 0.18845 0.31129 0.78879 0.0
C429 C 0.83504 0.25193 0.76427 0.0
C430 C 0.84468 0.23894 0.76431 0.0
C431 C 0.82081 0.2508 0.75538 0.0
C432 C 0.81591 0.23665 0.74641 0.0
C433 C 0.82558 0.2237 0.74642 0.0
C434 C 0.8398 0.22483 0.75527 0.0
C435 C 0.80076 0.23531 0.73702 0.0
C436 C 0.79656 0.24796 0.72786 0.0
C437 C 0.78262 0.24637 0.71838 0.0
C438 C 0.77278 0.23199 0.7182 0.0
C439 C 0.77666 0.21931 0.72748 0.0
C440 C 0.79064 0.22114 0.73691 0.0
C441 C 0.76621 0.20412 0.72738 0.0
C442 C 0.74948 0.20432 0.72727 0.0
C443 C 0.77293 0.18929 0.72774 0.0
C444 C 0.76318 0.17505 0.7284 0.0
C445 C 0.74645 0.17526 0.72856 0.0
C446 C 0.77865 0.25951 0.70822 0.0
C447 C 0.77931 0.27542 0.71446 0.0
C448 C 0.77444 0.25621 0.6921 0.0
C449 C 0.7712 0.26861 0.68234 0.0
C450 C 0.77195 0.28454 0.68853 0.0
C451 C 0.77588 0.28782 0.70472 0.0
C452 C 0.73971 0.19005 0.7278 0.0
H453 H 0.83857 0.26302 0.77098 0.0
H454 H 0.81356 0.26095 0.75569 0.0
H455 H 0.82222 0.2127 0.73947 0.0
H456 H 0.84689 0.21457 0.75517 0.0
H457 H 0.80445 0.25884 0.72763 0.0
H458 H 0.79356 0.21159 0.74442 0.0
H459 H 0.76212 0.23068 0.71074 0.0
H460 H 0.7439 0.21553 0.72713 0.0
H461 H 0.78577 0.18866 0.72757 0.0
H462 H 0.76881 0.16392 0.72916 0.0
H463 H 0.78244 0.27826 0.72688 0.0
H464 H 0.77396 0.24407 0.68695 0.0
H465 H 0.72687 0.19064 0.72768 0.0
H466 H 0.77662 0.30001 0.70976 0.0
H467 H 0.76807 0.26573 0.66992 0.0
C468 C 0.57311 0.6357 0.53402 0.0
C469 C 0.571 0.65212 0.53614 0.0
C470 C 0.5751 0.62644 0.54718 0.0
C471 C 0.57486 0.63339 0.56275 0.0
C472 C 0.57295 0.64986 0.56489 0.0
C473 C 0.57116 0.65918 0.55169 0.0
C474 C 0.57599 0.62327 0.57667 0.0
C475 C 0.58749 0.61199 0.57705 0.0
C476 C 0.58788 0.6015 0.58956 0.0
C477 C 0.57672 0.60249 0.60189 0.0
C478 C 0.56482 0.61339 0.60152 0.0
C479 C 0.56475 0.62395 0.58898 0.0
C480 C 0.55152 0.61257 0.61321 0.0
C481 C 0.54491 0.5976 0.61792 0.0
C482 C 0.54474 0.6265 0.61905 0.0
C483 C 0.53144 0.62543 0.62907 0.0
C484 C 0.52466 0.61041 0.63346 0.0
C485 C 0.59885 0.58845 0.58897 0.0
C486 C 0.60004 0.5789 0.57487 0.0
C487 C 0.60744 0.58485 0.60261 0.0
C488 C 0.6169 0.5718 0.60217 0.0
C489 C 0.61772 0.56201 0.58817 0.0
C490 C 0.60932 0.56579 0.57449 0.0
C491 C 0.53176 0.59655 0.62798 0.0
H492 H 0.57312 0.62999 0.52215 0.0
H493 H 0.57641 0.61374 0.54518 0.0
H494 H 0.57278 0.65551 0.57677 0.0
H495 H 0.56944 0.6718 0.55365 0.0
H496 H 0.59607 0.61128 0.56748 0.0
H497 H 0.55535 0.63204 0.58822 0.0
H498 H 0.57689 0.59423 0.61143 0.0
H499 H 0.5496 0.58658 0.61349 0.0
H500 H 0.54961 0.63823 0.61578 0.0
H501 H 0.52624 0.63635 0.63303 0.0
H502 H 0.59341 0.58128 0.56423 0.0
H503 H 0.60676 0.59205 0.61362 0.0
H504 H 0.52706 0.58479 0.63136 0.0
H505 H 0.60988 0.55855 0.56349 0.0
H506 H 0.62324 0.56912 0.61288 0.0
C507 C 0.50952 0.47119 0.90682 0.0
C508 C 0.51422 0.47685 0.89193 0.0
C509 C 0.52095 0.46726 0.91786 0.0
C510 C 0.53732 0.46886 0.91422 0.0
C511 C 0.54195 0.47407 0.89913 0.0
C512 C 0.53054 0.47804 0.88812 0.0
C513 C 0.54956 0.46596 0.9264 0.0
C514 C 0.54725 0.45309 0.93653 0.0
C515 C 0.55851 0.45087 0.94854 0.0
C516 C 0.57214 0.46166 0.95036 0.0
C517 C 0.57455 0.47464 0.94048 0.0
C518 C 0.5633 0.47663 0.92844 0.0
C519 C 0.5883 0.48668 0.94339 0.0
C520 C 0.59208 0.49269 0.95899 0.0
C521 C 0.59748 0.4925 0.93065 0.0
C522 C 0.61019 0.50413 0.93348 0.0
C523 C 0.61384 0.51026 0.94909 0.0
C524 C 0.55573 0.43793 0.95988 0.0
C525 C 0.54082 0.43537 0.96725 0.0
C526 C 0.56828 0.42884 0.96429 0.0
C527 C 0.56613 0.41779 0.97619 0.0
C528 C 0.5514 0.41567 0.98398 0.0
C529 C 0.53869 0.42439 0.97921 0.0
C530 C 0.60469 0.50437 0.96181 0.0
H531 H 0.49705 0.47029 0.91016 0.0
H532 H 0.51699 0.46349 0.92946 0.0
H533 H 0.55444 0.47517 0.89585 0.0
H534 H 0.53449 0.48209 0.87663 0.0
H535 H 0.53675 0.44474 0.93503 0.0
H536 H 0.56488 0.48696 0.92115 0.0
H537 H 0.58072 0.46019 0.95979 0.0
H538 H 0.5851 0.48856 0.96902 0.0
H539 H 0.59485 0.48801 0.91851 0.0
H540 H 0.61699 0.50854 0.92345 0.0
H541 H 0.53097 0.44229 0.96418 0.0
H542 H 0.57987 0.43048 0.95872 0.0
H543 H 0.60734 0.50876 0.97397 0.0
H544 H 0.52715 0.42285 0.98487 0.0
H545 H 0.57616 0.4113 0.97965 0.0
C546 C 0.67537 0.24461 0.25736 0.0
C547 C 0.67053 0.26004 0.25521 0.0
C548 C 0.68666 0.24212 0.26913 0.0
C549 C 0.69343 0.25503 0.27892 0.0
C550 C 0.68881 0.27052 0.2765 0.0
C551 C 0.67745 0.27298 0.26482 0.0
C552 C 0.70504 0.25238 0.29182 0.0
C553 C 0.71673 0.24141 0.28942 0.0
C554 C 0.72773 0.23897 0.30159 0.0
C555 C 0.72703 0.24766 0.31626 0.0
C556 C 0.71531 0.25854 0.31898 0.0
C557 C 0.70436 0.26076 0.3067 0.0
C558 C 0.71437 0.26747 0.33465 0.0
C559 C 0.71662 0.25986 0.34898 0.0
C560 C 0.71111 0.28369 0.33539 0.0
C561 C 0.71014 0.2921 0.35009 0.0
C562 C 0.71247 0.28453 0.36442 0.0
C563 C 0.73976 0.22708 0.29911 0.0
C564 C 0.73507 0.21152 0.29296 0.0
C565 C 0.75589 0.23106 0.30325 0.0
C566 C 0.7671 0.21965 0.30138 0.0
C567 C 0.76234 0.20399 0.29555 0.0
C568 C 0.74623 0.20005 0.2913 0.0
C569 C 0.7157 0.2683 0.36369 0.0
H570 H 0.6701 0.23439 0.25025 0.0
H571 H 0.68978 0.23002 0.2708 0.0
H572 H 0.69402 0.28078 0.2836 0.0
H573 H 0.67411 0.28504 0.26327 0.0
H574 H 0.71752 0.23497 0.27797 0.0
H575 H 0.69498 0.26875 0.30887 0.0
H576 H 0.73557 0.24585 0.32563 0.0
H577 H 0.71895 0.24733 0.34885 0.0
H578 H 0.70947 0.28997 0.32458 0.0
H579 H 0.70745 0.30454 0.35021 0.0
H580 H 0.7227 0.20811 0.28977 0.0
H581 H 0.75982 0.24302 0.30793 0.0
H582 H 0.71773 0.26214 0.37449 0.0
H583 H 0.74228 0.18809 0.28667 0.0
H584 H 0.77943 0.22296 0.30483 0.0
C585 C 0.45324 0.12812 0.98924 0.0
C586 C 0.45618 0.12567 0.00546 0.0
C587 C 0.4496 0.11509 0.97843 0.0
C588 C 0.44853 0.09941 0.98368 0.0
C589 C 0.45145 0.0969 0.9998 0.0
C590 C 0.45538 0.10986 0.01054 0.0
C591 C 0.44428 0.08562 0.97243 0.0
C592 C 0.45325 0.08324 0.9586 0.0
C593 C 0.44978 0.06963 0.94834 0.0
C594 C 0.43684 0.05869 0.95181 0.0
C595 C 0.42772 0.06101 0.96557 0.0
C596 C 0.43158 0.07448 0.97587 0.0
C597 C 0.41438 0.04922 0.96943 0.0
C598 C 0.40327 0.04318 0.9576 0.0
C599 C 0.41263 0.044 0.98503 0.0
C600 C 0.39998 0.03303 0.98877 0.0
C601 C 0.38878 0.02709 0.97699 0.0
C602 C 0.4603 0.06632 0.93463 0.0
C603 C 0.46604 0.07868 0.92491 0.0
C604 C 0.46525 0.05083 0.93162 0.0
C605 C 0.47593 0.04782 0.91937 0.0
C606 C 0.48192 0.06023 0.90985 0.0
C607 C 0.47672 0.07565 0.91261 0.0
C608 C 0.39055 0.03226 0.96136 0.0
H609 H 0.45347 0.14009 0.98489 0.0
H610 H 0.44728 0.11728 0.96603 0.0
H611 H 0.45088 0.08486 0.00405 0.0
H612 H 0.45795 0.10743 0.02282 0.0
H613 H 0.46339 0.09161 0.95626 0.0
H614 H 0.42457 0.07643 0.9865 0.0
H615 H 0.43405 0.04817 0.94394 0.0
H616 H 0.40428 0.04707 0.9455 0.0
H617 H 0.42111 0.04833 0.99435 0.0
H618 H 0.39884 0.02937 0.00094 0.0
H619 H 0.46234 0.0907 0.92688 0.0
H620 H 0.46119 0.04109 0.93901 0.0
H621 H 0.38217 0.02777 0.95202 0.0
H622 H 0.48121 0.08548 0.90554 0.0
H623 H 0.47957 0.03577 0.9174 0.0
O624 O 0.23077 0.87596 0.01838 0.0
Cd625 Cd 0.24125 0.89072 0.03656 0.0
Cd626 Cd 0.22091 0.91136 0.02531 0.0
O627 O 0.21301 0.89198 0.01045 0.0
O628 O 0.25305 0.87604 0.04926 0.0
O629 O 0.2335 0.88953 0.05922 0.0
C630 C 0.24421 0.87953 0.06123 0.0
C631 C 0.20244 0.92713 0.0377 0.0
C632 C 0.21927 0.87866 0.00923 0.0
C633 C 0.25617 0.9207 0.02318 0.0
O634 O 0.24207 0.92384 0.01962 0.0
O635 O 0.25851 0.90819 0.03053 0.0
O636 O 0.20503 0.92735 0.02259 0.0
O637 O 0.21 0.91738 0.04587 0.0
O638 O 0.14002 0.52758 0.27636 0.0
Cd639 Cd 0.12603 0.50808 0.28398 0.0
Cd640 Cd 0.1043 0.51815 0.26324 0.0
O641 O 0.12283 0.53482 0.25865 0.0
O642 O 0.14096 0.49394 0.29352 0.0
O643 O 0.12615 0.48671 0.27203 0.0
C644 C 0.13667 0.48327 0.28239 0.0
C645 C 0.08866 0.50764 0.24155 0.0
C646 C 0.13638 0.53685 0.2656 0.0
C647 C 0.09551 0.51746 0.29812 0.0
O648 O 0.0918 0.52089 0.28407 0.0
O649 O 0.10882 0.51184 0.30088 0.0
O650 O 0.08801 0.52218 0.24704 0.0
O651 O 0.09859 0.49895 0.24822 0.0
O652 O 0.76137 0.67734 0.99154 0.0
Cd653 Cd 0.75229 0.6621 0.00848 0.0
Cd654 Cd 0.77413 0.64342 0.99626 0.0
O655 O 0.78009 0.66245 0.98229 0.0
O656 O 0.73936 0.67562 0.02266 0.0
O657 O 0.76073 0.66452 0.03107 0.0
C658 C 0.7491 0.67338 0.03413 0.0
C659 C 0.79302 0.63227 0.0117 0.0
C660 C 0.77285 0.67518 0.98208 0.0
C661 C 0.74023 0.63028 0.99284 0.0
O662 O 0.75463 0.62838 0.98914 0.0
O663 O 0.7368 0.6427 0.00101 0.0
O664 O 0.79271 0.63017 0.99636 0.0
O665 O 0.78285 0.64126 0.01831 0.0
O666 O 0.90307 0.03344 0.27261 0.0
Cd667 Cd 0.88848 0.03903 0.25411 0.0
Cd668 Cd 0.86892 0.04571 0.27835 0.0
O669 O 0.88727 0.03939 0.2926 0.0
O670 O 0.90259 0.03977 0.23518 0.0
O671 O 0.89194 0.06116 0.24568 0.0
C672 C 0.90102 0.05494 0.23509 0.0
C673 C 0.85862 0.07054 0.28222 0.0
C674 C 0.90034 0.03451 0.2875 0.0
C675 C 0.85669 0.01976 0.25466 0.0
O676 O 0.85414 0.02751 0.26766 0.0
O677 O 0.86955 0.02282 0.24708 0.0
O678 O 0.85493 0.05902 0.29152 0.0
O679 O 0.86856 0.06805 0.27083 0.0
O680 O 0.263 0.17553 0.48815 0.0
Cd681 Cd 0.25329 0.16098 0.50527 0.0
Cd682 Cd 0.27629 0.14193 0.49555 0.0
O683 O 0.28166 0.15996 0.48006 0.0
O684 O 0.24022 0.17483 0.51894 0.0
O685 O 0.26141 0.1638 0.52794 0.0
C686 C 0.2498 0.1728 0.53062 0.0
C687 C 0.2963 0.13151 0.51028 0.0
C688 C 0.27453 0.1727 0.47898 0.0
C689 C 0.24235 0.12813 0.4917 0.0
O690 O 0.25703 0.12592 0.48988 0.0
O691 O 0.23817 0.14138 0.49768 0.0
O692 O 0.29505 0.12886 0.49504 0.0
O693 O 0.28648 0.14068 0.51719 0.0
O694 O 0.4006 0.52981 0.76888 0.0
Cd695 Cd 0.38679 0.53802 0.75108 0.0
Cd696 Cd 0.3691 0.54694 0.77563 0.0
O697 O 0.38815 0.54082 0.78917 0.0
O698 O 0.40057 0.53902 0.73191 0.0
O699 O 0.39186 0.56055 0.74427 0.0
C700 C 0.40022 0.55439 0.73301 0.0
C701 C 0.35914 0.57196 0.77971 0.0
C702 C 0.39948 0.53296 0.78378 0.0
C703 C 0.35434 0.52114 0.75276 0.0
O704 O 0.35333 0.52863 0.76622 0.0
O705 O 0.3665 0.52391 0.74409 0.0
O706 O 0.35599 0.56067 0.7894 0.0
O707 O 0.36834 0.56914 0.76778 0.0
O708 O 0.73164 0.3798 0.51884 0.0
Cd709 Cd 0.74125 0.39567 0.53661 0.0
Cd710 Cd 0.71963 0.41404 0.52478 0.0
O711 O 0.71218 0.39383 0.51094 0.0
O712 O 0.75422 0.38228 0.54965 0.0
O713 O 0.73356 0.39429 0.55927 0.0
C714 C 0.74502 0.38519 0.56149 0.0
C715 C 0.70178 0.42917 0.53877 0.0
C716 C 0.71957 0.38117 0.50992 0.0
C717 C 0.75402 0.42571 0.52173 0.0
O718 O 0.73969 0.42734 0.51761 0.0
O719 O 0.75724 0.41414 0.53014 0.0
O720 O 0.70256 0.42898 0.52342 0.0
O721 O 0.71063 0.41995 0.54624 0.0
O722 O 0.64293 0.02906 0.7695 0.0
Cd723 Cd 0.6274 0.01123 0.7782 0.0
Cd724 Cd 0.60759 0.02156 0.75643 0.0
O725 O 0.62743 0.03562 0.74996 0.0
O726 O 0.64114 0.99716 0.78954 0.0
O727 O 0.62684 0.98898 0.76799 0.0
C728 C 0.63686 0.98591 0.77899 0.0
C729 C 0.59128 0.0078 0.73698 0.0
C730 C 0.64068 0.03731 0.75748 0.0
C731 C 0.59804 0.02513 0.79071 0.0
O732 O 0.59549 0.02861 0.77641 0.0
O733 O 0.60998 0.01746 0.79411 0.0
O734 O 0.59179 0.02316 0.73907 0.0
O735 O 0.60066 0.00015 0.7456 0.0
O736 O 0.98638 0.27896 0.91297 0.0
Cd737 Cd 0.99464 0.25987 0.90006 0.0
Cd738 Cd 0.00749 0.28308 0.88226 0.0
O739 O 0.9994 0.29818 0.90011 0.0
O740 O 0.99293 0.242 0.9148 0.0
O741 O 0.01603 0.25241 0.90584 0.0
C742 C 0.00832 0.24238 0.9148 0.0
C743 C 0.03335 0.2876 0.87255 0.0
C744 C 0.99017 0.29376 0.91131 0.0
C745 C 0.98185 0.25982 0.86705 0.0
O746 O 0.99083 0.27266 0.86596 0.0
O747 O 0.98201 0.25203 0.87966 0.0
O748 O 0.02221 0.29665 0.86913 0.0
O749 O 0.02992 0.27612 0.88201 0.0
O750 O 0.48728 0.77868 0.41516 0.0
Cd751 Cd 0.49606 0.76075 0.40086 0.0
Cd752 Cd 0.50539 0.78533 0.38305 0.0
O753 O 0.4966 0.79916 0.40146 0.0
O754 O 0.49633 0.74194 0.41443 0.0
O755 O 0.51831 0.75474 0.40546 0.0
C756 C 0.51172 0.74354 0.41385 0.0
C757 C 0.53114 0.79073 0.37348 0.0
C758 C 0.48907 0.7937 0.41338 0.0
C759 C 0.48124 0.7606 0.36835 0.0
O760 O 0.48895 0.77414 0.3671 0.0
O761 O 0.4829 0.75271 0.38074 0.0
O762 O 0.51975 0.79952 0.37012 0.0
O763 O 0.528 0.77906 0.38279 0.0
O764 O 0.98847 0.78557 0.66177 0.0
Cd765 Cd 0.00667 0.77855 0.64703 0.0
Cd766 Cd 0.99314 0.79868 0.62726 0.0
O767 O 0.97963 0.80395 0.64678 0.0
O768 O 0.02049 0.76709 0.66117 0.0
O769 O 0.02889 0.78942 0.64975 0.0
C770 C 0.03184 0.778 0.65888 0.0
C771 C 0.00464 0.81926 0.61242 0.0
C772 C 0.97911 0.7965 0.65962 0.0
C773 C 0.99252 0.7643 0.61609 0.0
O774 O 0.98698 0.77774 0.6142 0.0
O775 O 0.00146 0.76233 0.62799 0.0
O776 O 0.98946 0.81543 0.61207 0.0
O777 O 0.01339 0.8117 0.62178 0.0
O778 O 0.48758 0.28409 0.16216 0.0
Cd779 Cd 0.50515 0.27378 0.14926 0.0
Cd780 Cd 0.49645 0.29416 0.12635 0.0
O781 O 0.48079 0.30057 0.14402 0.0
O782 O 0.51838 0.26377 0.16509 0.0
O783 O 0.52786 0.28344 0.15024 0.0
C784 C 0.53026 0.27343 0.1611 0.0
C785 C 0.50779 0.31437 0.11081 0.0
C786 C 0.47897 0.29491 0.15773 0.0
C787 C 0.49362 0.25839 0.11813 0.0
O788 O 0.49222 0.27251 0.11373 0.0
O789 O 0.4984 0.25606 0.13215 0.0
O790 O 0.49287 0.30954 0.1097 0.0
O791 O 0.51639 0.30803 0.12126 0.0
H792 H 0.18867 0.80537 0.87208 0.0
H793 H 0.18651 0.82005 0.89779 0.0
H794 H 0.22521 0.79546 0.91663 0.0
H795 H 0.22756 0.78084 0.89093 0.0
H796 H 0.20089 0.79784 0.93814 0.0
H797 H 0.23218 0.83267 0.90392 0.0
H798 H 0.2374 0.84751 0.87957 0.0
H799 H 0.19625 0.87381 0.88866 0.0
H800 H 0.19066 0.85895 0.91297 0.0
H801 H 0.23159 0.85003 0.00175 0.0
H802 H 0.22582 0.83239 0.97814 0.0
H803 H 0.18971 0.86263 0.96334 0.0
H804 H 0.19564 0.88059 0.98684 0.0
H805 H 0.20945 0.85717 0.93978 0.0
H806 H 0.17977 0.82438 0.97574 0.0
H807 H 0.1747 0.80967 0.00018 0.0
H808 H 0.21246 0.77967 0.98819 0.0
H809 H 0.21791 0.79434 0.96377 0.0
C810 C 0.19676 0.80313 0.88168 0.0
C811 C 0.20837 0.79203 0.87941 0.0
C812 C 0.19546 0.81147 0.89638 0.0
C813 C 0.2058 0.80894 0.90907 0.0
C814 C 0.21708 0.79754 0.90701 0.0
C815 C 0.21839 0.78919 0.89231 0.0
C816 C 0.20537 0.81866 0.92427 0.0
C817 C 0.20286 0.81081 0.93855 0.0
C818 C 0.20751 0.8356 0.92472 0.0
C819 C 0.2109 0.84458 0.91015 0.0
C820 C 0.22417 0.84153 0.90065 0.0
C821 C 0.22721 0.84996 0.88687 0.0
C822 C 0.21714 0.86156 0.88254 0.0
C823 C 0.20403 0.86479 0.89202 0.0
C824 C 0.20092 0.85638 0.9058 0.0
C825 C 0.22223 0.85282 0.99364 0.0
C826 C 0.21415 0.8668 0.99615 0.0
C827 C 0.21888 0.84265 0.98016 0.0
C828 C 0.20726 0.84612 0.969 0.0
C829 C 0.19873 0.85972 0.9718 0.0
C830 C 0.20211 0.86995 0.98526 0.0
C831 C 0.20512 0.83638 0.95377 0.0
C832 C 0.20721 0.84423 0.93943 0.0
C833 C 0.20258 0.81945 0.95331 0.0
C834 C 0.19932 0.81055 0.96797 0.0
C835 C 0.18707 0.81473 0.97837 0.0
C836 C 0.18412 0.80638 0.99221 0.0
C837 C 0.19328 0.79376 0.99575 0.0
C838 C 0.20538 0.78945 0.98544 0.0
C839 C 0.2084 0.79776 0.97158 0.0
H840 H 0.19097 0.78732 0.00648 0.0
H841 H 0.21951 0.86808 0.87187 0.0
H842 H 0.98271 0.56144 0.38469 0.0
H843 H 0.00259 0.55228 0.36589 0.0
H844 H 0.026 0.52982 0.40382 0.0
H845 H 0.00622 0.53914 0.42278 0.0
H846 H 0.04712 0.54782 0.3852 0.0
H847 H 0.00458 0.50673 0.37752 0.0
H848 H 0.97677 0.49569 0.37268 0.0
H849 H 0.9766 0.51718 0.32724 0.0
H850 H 0.00434 0.52856 0.33191 0.0
H851 H 0.0982 0.50996 0.32948 0.0
H852 H 0.0791 0.51434 0.35089 0.0
H853 H 0.04826 0.53541 0.31782 0.0
H854 H 0.06702 0.53084 0.29638 0.0
H855 H 0.0314 0.51518 0.33585 0.0
H856 H 0.07249 0.55851 0.34453 0.0
H857 H 0.10006 0.57036 0.34925 0.0
H858 H 0.10273 0.54535 0.39256 0.0
H859 H 0.07523 0.53318 0.38798 0.0
C860 C 0.99213 0.55459 0.38903 0.0
C861 C 0.99294 0.55099 0.40518 0.0
C862 C 0.00338 0.54927 0.37827 0.0
C863 C 0.01565 0.54026 0.38346 0.0
C864 C 0.01657 0.53671 0.39959 0.0
C865 C 0.00523 0.54194 0.41036 0.0
C866 C 0.02769 0.53488 0.37202 0.0
C867 C 0.04376 0.54043 0.37455 0.0
C868 C 0.02319 0.52548 0.35802 0.0
C869 C 0.00651 0.5186 0.35513 0.0
C870 C 0.99857 0.50921 0.36655 0.0
C871 C 0.98283 0.50287 0.36382 0.0
C872 C 0.97491 0.50576 0.34967 0.0
C873 C 0.98274 0.51496 0.3382 0.0
C874 C 0.99849 0.52134 0.34088 0.0
C875 C 0.08735 0.51552 0.32678 0.0
C876 C 0.08415 0.52008 0.31123 0.0
C877 C 0.07647 0.51805 0.33903 0.0
C878 C 0.06232 0.52531 0.33596 0.0
C879 C 0.05908 0.52975 0.32044 0.0
C880 C 0.06987 0.52717 0.30821 0.0
C881 C 0.0508 0.52842 0.34884 0.0
C882 C 0.03481 0.52241 0.34659 0.0
C883 C 0.05536 0.53747 0.36304 0.0
C884 C 0.07188 0.54479 0.36581 0.0
C885 C 0.079 0.55543 0.35499 0.0
C886 C 0.09461 0.56223 0.35765 0.0
C887 C 0.10316 0.55857 0.37117 0.0
C888 C 0.0961 0.54814 0.38208 0.0
C889 C 0.08051 0.5413 0.37946 0.0
H890 H 0.11523 0.56385 0.37321 0.0
H891 H 0.96272 0.50084 0.34758 0.0
H892 H 0.78404 0.78691 0.88123 0.0
H893 H 0.78369 0.77006 0.90427 0.0
H894 H 0.77982 0.7277 0.87259 0.0
H895 H 0.77942 0.7446 0.84959 0.0
H896 H 0.76128 0.72262 0.89581 0.0
H897 H 0.81584 0.74262 0.8926 0.0
H898 H 0.83868 0.76285 0.89093 0.0
H899 H 0.82646 0.78423 0.93631 0.0
H900 H 0.80341 0.76425 0.93816 0.0
H901 H 0.78732 0.6698 0.95355 0.0
H902 H 0.79041 0.68806 0.93166 0.0
H903 H 0.7704 0.72511 0.96078 0.0
H904 H 0.76681 0.70678 0.98265 0.0
H905 H 0.80176 0.73244 0.93931 0.0
H906 H 0.74541 0.71145 0.94006 0.0
H907 H 0.72446 0.68914 0.94087 0.0
H908 H 0.74314 0.66724 0.89835 0.0
H909 H 0.76437 0.68932 0.89746 0.0
C910 C 0.7831 0.77399 0.87925 0.0
C911 C 0.78178 0.767 0.8637 0.0
C912 C 0.78301 0.76437 0.89239 0.0
C913 C 0.78206 0.74758 0.89019 0.0
C914 C 0.78059 0.74061 0.87462 0.0
C915 C 0.78036 0.75024 0.86149 0.0
C916 C 0.78228 0.73729 0.90412 0.0
C917 C 0.77027 0.72473 0.90518 0.0
C918 C 0.79394 0.73999 0.91649 0.0
C919 C 0.8078 0.75202 0.91544 0.0
C920 C 0.81795 0.75171 0.90217 0.0
C921 C 0.83095 0.76312 0.9012 0.0
C922 C 0.83399 0.77485 0.91349 0.0
C923 C 0.82407 0.77516 0.92679 0.0
C924 C 0.81105 0.76378 0.92782 0.0
C925 C 0.78383 0.68192 0.95541 0.0
C926 C 0.77676 0.68686 0.96978 0.0
C927 C 0.78558 0.69229 0.94289 0.0
C928 C 0.78059 0.70784 0.94467 0.0
C929 C 0.77433 0.71313 0.95927 0.0
C930 C 0.77225 0.70265 0.97169 0.0
C931 C 0.78076 0.71809 0.93087 0.0
C932 C 0.79283 0.73051 0.92986 0.0
C933 C 0.76942 0.71508 0.91837 0.0
C934 C 0.75657 0.70191 0.91881 0.0
C935 C 0.74514 0.70179 0.93098 0.0
C936 C 0.7332 0.68921 0.93144 0.0
C937 C 0.7325 0.67675 0.9197 0.0
C938 C 0.74371 0.67688 0.90745 0.0
C939 C 0.7557 0.68943 0.90696 0.0
H940 H 0.72324 0.66702 0.92007 0.0
H941 H 0.84406 0.78367 0.91271 0.0
H942 H 0.02238 0.99892 0.36789 0.0
H943 H 0.00229 0.00819 0.35029 0.0
H944 H 0.96506 0.98288 0.3766 0.0
H945 H 0.98518 0.97247 0.39349 0.0
H946 H 0.95797 0.97926 0.34697 0.0
H947 H 0.97424 0.0249 0.38107 0.0
H948 H 0.993 0.04531 0.39475 0.0
H949 H 0.00883 0.06215 0.34952 0.0
H950 H 0.99032 0.04168 0.33555 0.0
H951 H 0.89546 0.02456 0.31773 0.0
H952 H 0.91534 0.01539 0.33603 0.0
H953 H 0.95223 0.02478 0.30142 0.0
H954 H 0.9324 0.03358 0.28289 0.0
H955 H 0.95863 0.03693 0.33574 0.0
H956 H 0.94162 0.98955 0.30236 0.0
H957 H 0.92136 0.96969 0.2901 0.0
H958 H 0.90498 0.9571 0.33658 0.0
H959 H 0.92501 0.97708 0.34911 0.0
C960 C 0.00996 0.99505 0.36981 0.0
C961 C 0.00547 0.98493 0.38221 0.0
C962 C 0.99843 0.00061 0.35986 0.0
C963 C 0.9821 0.99654 0.36231 0.0
C964 C 0.97757 0.9863 0.37453 0.0
C965 C 0.98911 0.9805 0.38432 0.0
C966 C 0.96978 0.00281 0.35201 0.0
C967 C 0.95803 0.99191 0.34474 0.0
C968 C 0.96986 0.0193 0.34891 0.0
C969 C 0.981 0.03165 0.35726 0.0
C970 C 0.98181 0.03288 0.37403 0.0
C971 C 0.99238 0.04447 0.38184 0.0
C972 C 0.00213 0.05499 0.37301 0.0
C973 C 0.00129 0.05397 0.35635 0.0
C974 C 0.99075 0.04239 0.34848 0.0
C975 C 0.90782 0.02475 0.31406 0.0
C976 C 0.91238 0.02973 0.29887 0.0
C977 C 0.91912 0.01948 0.32449 0.0
C978 C 0.93518 0.01941 0.32 0.0
C979 C 0.93987 0.02478 0.30505 0.0
C980 C 0.92853 0.02973 0.29448 0.0
C981 C 0.94706 0.01337 0.33078 0.0
C982 C 0.95866 0.02431 0.3381 0.0
C983 C 0.94665 0.997 0.33418 0.0
C984 C 0.93468 0.98494 0.32666 0.0
C985 C 0.93359 0.98267 0.30996 0.0
C986 C 0.92218 0.97136 0.30296 0.0
C987 C 0.91186 0.96218 0.31255 0.0
C988 C 0.91297 0.96425 0.32916 0.0
C989 C 0.92435 0.97555 0.33622 0.0
H990 H 0.90303 0.95343 0.30711 0.0
H991 H 0.01031 0.06396 0.37908 0.0
H992 H 0.25006 0.24889 0.66963 0.0
H993 H 0.25453 0.23058 0.64677 0.0
H994 H 0.21351 0.2465 0.6227 0.0
H995 H 0.20904 0.26491 0.64541 0.0
H996 H 0.2139 0.21423 0.62003 0.0
H997 H 0.25114 0.26012 0.61286 0.0
H998 H 0.27318 0.28022 0.6208 0.0
H999 H 0.30463 0.24278 0.6261 0.0
H1000 H 0.2827 0.22244 0.6184 0.0
H1001 H 0.22612 0.19173 0.53946 0.0
H1002 H 0.22281 0.20594 0.56511 0.0
H1003 H 0.26498 0.1865 0.58337 0.0
H1004 H 0.26852 0.17231 0.55752 0.0
H1005 H 0.26507 0.21832 0.59065 0.0
H1006 H 0.22824 0.17249 0.5955 0.0
H1007 H 0.20616 0.15257 0.58726 0.0
H1008 H 0.17389 0.1898 0.5862 0.0
H1009 H 0.19583 0.20999 0.59421 0.0
C1010 C 0.24205 0.24857 0.65942 0.0
C1011 C 0.22922 0.25841 0.65933 0.0
C1012 C 0.2446 0.23807 0.64639 0.0
C1013 C 0.23443 0.23727 0.63298 0.0
C1014 C 0.22147 0.24688 0.63295 0.0
C1015 C 0.21891 0.25737 0.64597 0.0
C1016 C 0.23732 0.22658 0.61885 0.0
C1017 C 0.22503 0.2152 0.61352 0.0
C1018 C 0.25203 0.22754 0.61064 0.0
C1019 C 0.26523 0.23976 0.61523 0.0
C1020 C 0.26272 0.25617 0.61585 0.0
C1021 C 0.2752 0.26761 0.62028 0.0
C1022 C 0.29028 0.26278 0.624 0.0
C1023 C 0.29293 0.2465 0.62325 0.0
C1024 C 0.28049 0.23502 0.61884 0.0
C1025 C 0.23467 0.19038 0.54893 0.0
C1026 C 0.24758 0.18086 0.54645 0.0
C1027 C 0.23271 0.19846 0.56363 0.0
C1028 C 0.24353 0.19713 0.57623 0.0
C1029 C 0.25646 0.18764 0.57382 0.0
C1030 C 0.25843 0.17952 0.55907 0.0
C1031 C 0.24154 0.20613 0.59167 0.0
C1032 C 0.254 0.2172 0.59725 0.0
C1033 C 0.22698 0.20489 0.60011 0.0
C1034 C 0.21372 0.19277 0.59534 0.0
C1035 C 0.21646 0.17645 0.59339 0.0
C1036 C 0.20396 0.16511 0.58878 0.0
C1037 C 0.18864 0.16992 0.58618 0.0
C1038 C 0.18577 0.18609 0.58821 0.0
C1039 C 0.19823 0.19749 0.59281 0.0
H1040 H 0.17898 0.16112 0.58261 0.0
H1041 H 0.29993 0.27165 0.62743 0.0
H1042 H 0.51676 0.62959 0.65934 0.0
H1043 H 0.4931 0.62612 0.67617 0.0
H1044 H 0.47622 0.5842 0.64712 0.0
H1045 H 0.49923 0.58808 0.62986 0.0
H1046 H 0.45205 0.60056 0.65486 0.0
H1047 H 0.49728 0.58238 0.68338 0.0
H1048 H 0.52401 0.58556 0.69608 0.0
H1049 H 0.50887 0.62316 0.72768 0.0
H1050 H 0.48208 0.62032 0.71502 0.0
H1051 H 0.4117 0.5454 0.70402 0.0
H1052 H 0.42997 0.56108 0.68719 0.0
H1053 H 0.42935 0.60171 0.7207 0.0
H1054 H 0.41075 0.58608 0.73758 0.0
H1055 H 0.46048 0.59261 0.71243 0.0
H1056 H 0.41293 0.60563 0.68658 0.0
H1057 H 0.38627 0.60039 0.67402 0.0
H1058 H 0.40583 0.57045 0.63733 0.0
H1059 H 0.43257 0.57531 0.64979 0.0
C1060 C 0.50787 0.6198 0.6564 0.0
C1061 C 0.51002 0.60897 0.64338 0.0
C1062 C 0.49442 0.61775 0.66611 0.0
C1063 C 0.48299 0.60474 0.66307 0.0
C1064 C 0.48487 0.59429 0.64976 0.0
C1065 C 0.49818 0.5964 0.64001 0.0
C1066 C 0.46939 0.60139 0.67399 0.0
C1067 C 0.4539 0.59882 0.66744 0.0
C1068 C 0.47169 0.59957 0.69053 0.0
C1069 C 0.48777 0.60128 0.69813 0.0
C1070 C 0.4997 0.59141 0.69295 0.0
C1071 C 0.51485 0.59313 0.70015 0.0
C1072 C 0.51816 0.6046 0.71264 0.0
C1073 C 0.5063 0.61432 0.71798 0.0
C1074 C 0.49114 0.61266 0.7108 0.0
C1075 C 0.41525 0.55775 0.7077 0.0
C1076 C 0.40983 0.56452 0.72212 0.0
C1077 C 0.42564 0.56671 0.69804 0.0
C1078 C 0.43094 0.58256 0.70268 0.0
C1079 C 0.42532 0.58951 0.71691 0.0
C1080 C 0.41467 0.5806 0.72648 0.0
C1081 C 0.44331 0.59122 0.69313 0.0
C1082 C 0.45856 0.59477 0.69993 0.0
C1083 C 0.44083 0.59371 0.67679 0.0
C1084 C 0.42476 0.59078 0.66919 0.0
C1085 C 0.41154 0.59783 0.6759 0.0
C1086 C 0.39641 0.59495 0.66878 0.0
C1087 C 0.39436 0.58508 0.6549 0.0
C1088 C 0.40744 0.5781 0.64808 0.0
C1089 C 0.42259 0.58093 0.65516 0.0
H1090 H 0.38263 0.58286 0.64941 0.0
H1091 H 0.52989 0.60591 0.7182 0.0
H1092 H 0.78446 0.28941 0.65918 0.0
H1093 H 0.7793 0.31062 0.6413 0.0
H1094 H 0.74774 0.33057 0.67598 0.0
H1095 H 0.75286 0.30923 0.69401 0.0
H1096 H 0.73491 0.32705 0.6446 0.0
H1097 H 0.78191 0.35042 0.67132 0.0
H1098 H 0.8093 0.35123 0.68231 0.0
H1099 H 0.82756 0.3424 0.63529 0.0
H1100 H 0.80025 0.3413 0.62403 0.0
H1101 H 0.72857 0.38933 0.58944 0.0
H1102 H 0.73258 0.37634 0.61461 0.0
H1103 H 0.77087 0.35149 0.59332 0.0
H1104 H 0.7672 0.36459 0.56848 0.0
H1105 H 0.77899 0.36211 0.62257 0.0
H1106 H 0.73223 0.33361 0.59688 0.0
H1107 H 0.70497 0.33139 0.58538 0.0
H1108 H 0.68652 0.34886 0.62997 0.0
H1109 H 0.71372 0.35136 0.64168 0.0
C1110 C 0.77641 0.2983 0.66299 0.0
C1111 C 0.76902 0.29767 0.67795 0.0
C1112 C 0.77356 0.31047 0.65283 0.0
C1113 C 0.76325 0.32222 0.65739 0.0
C1114 C 0.75579 0.32164 0.6723 0.0
C1115 C 0.75878 0.30952 0.68258 0.0
C1116 C 0.76 0.33473 0.64621 0.0
C1117 C 0.74446 0.33502 0.64003 0.0
C1118 C 0.77251 0.34493 0.64015 0.0
C1119 C 0.789 0.34569 0.64684 0.0
C1120 C 0.79175 0.34854 0.66333 0.0
C1121 C 0.80726 0.34907 0.66961 0.0
C1122 C 0.82016 0.34685 0.65951 0.0
C1123 C 0.81756 0.34412 0.6431 0.0
C1124 C 0.80207 0.34357 0.63676 0.0
C1125 C 0.73789 0.38116 0.5902 0.0
C1126 C 0.74752 0.37794 0.57695 0.0
C1127 C 0.74014 0.37372 0.60455 0.0
C1128 C 0.75195 0.36284 0.60581 0.0
C1129 C 0.76173 0.35988 0.59267 0.0
C1130 C 0.75956 0.36735 0.57842 0.0
C1131 C 0.75402 0.35401 0.6205 0.0
C1132 C 0.76935 0.35444 0.62737 0.0
C1133 C 0.74134 0.34437 0.6271 0.0
C1134 C 0.72501 0.34287 0.62008 0.0
C1135 C 0.72237 0.3371 0.60419 0.0
C1136 C 0.70693 0.33577 0.59764 0.0
C1137 C 0.69403 0.34004 0.60692 0.0
C1138 C 0.69653 0.3456 0.62279 0.0
C1139 C 0.71195 0.34697 0.62938 0.0
H1140 H 0.68208 0.339 0.60184 0.0
H1141 H 0.83216 0.34726 0.66439 0.0
H1142 H 0.497 0.96955 0.62486 0.0
H1143 H 0.51773 0.97282 0.64547 0.0
H1144 H 0.4844 0.95317 0.67972 0.0
H1145 H 0.46346 0.94986 0.65901 0.0
H1146 H 0.50054 0.9791 0.69211 0.0
H1147 H 0.51449 0.93124 0.66583 0.0
H1148 H 0.52 0.91269 0.64319 0.0
H1149 H 0.56009 0.94424 0.63007 0.0
H1150 H 0.55468 0.96311 0.65249 0.0
H1151 H 0.58464 0.97532 0.73165 0.0
H1152 H 0.5628 0.96182 0.71517 0.0
H1153 H 0.54938 0.0077 0.70089 0.0
H1154 H 0.57093 0.0212 0.7172 0.0
H1155 H 0.55511 0.96179 0.68297 0.0
H1156 H 0.50944 0.008 0.70214 0.0
H1157 H 0.5037 0.02487 0.726 0.0
H1158 H 0.52605 0.99271 0.75584 0.0
H1159 H 0.53165 0.97549 0.73222 0.0
C1160 C 0.49412 0.96571 0.63672 0.0
C1161 C 0.47863 0.95933 0.64028 0.0
C1162 C 0.506 0.96755 0.64849 0.0
C1163 C 0.50271 0.96294 0.66406 0.0
C1164 C 0.48722 0.9567 0.66774 0.0
C1165 C 0.47526 0.9549 0.65594 0.0
C1166 C 0.51535 0.96553 0.67656 0.0
C1167 C 0.51242 0.97517 0.69019 0.0
C1168 C 0.53073 0.95998 0.6743 0.0
C1169 C 0.53413 0.94864 0.66083 0.0
C1170 C 0.52443 0.93428 0.65806 0.0
C1171 C 0.52754 0.92369 0.64527 0.0
C1172 C 0.54038 0.92729 0.63519 0.0
C1173 C 0.55015 0.94147 0.6379 0.0
C1174 C 0.54708 0.9521 0.65067 0.0
C1175 C 0.57712 0.98249 0.72485 0.0
C1176 C 0.57943 0.99933 0.72582 0.0
C1177 C 0.56467 0.97477 0.71548 0.0
C1178 C 0.55432 0.9838 0.70709 0.0
C1179 C 0.55705 0.00054 0.70753 0.0
C1180 C 0.56944 0.00823 0.71682 0.0
C1181 C 0.54043 0.97602 0.69797 0.0
C1182 C 0.54314 0.96542 0.68501 0.0
C1183 C 0.52475 0.98037 0.70103 0.0
C1184 C 0.52106 0.9905 0.71536 0.0
C1185 C 0.51302 0.00445 0.7138 0.0
C1186 C 0.50981 0.01409 0.72729 0.0
C1187 C 0.51453 0.00988 0.74242 0.0
C1188 C 0.52242 0.99598 0.74411 0.0
C1189 C 0.52563 0.98629 0.73067 0.0
H1190 H 0.51206 0.01738 0.75284 0.0
H1191 H 0.54276 0.91908 0.62529 0.0
H1192 H 0.84985 0.25179 0.79465 0.0
H1193 H 0.87477 0.25387 0.81013 0.0
H1194 H 0.89845 0.23061 0.77098 0.0
H1195 H 0.87357 0.22854 0.75539 0.0
H1196 H 0.90656 0.21898 0.79909 0.0
H1197 H 0.90429 0.27055 0.77745 0.0
H1198 H 0.89208 0.29544 0.77151 0.0
H1199 H 0.88853 0.3074 0.82165 0.0
H1200 H 0.90052 0.28245 0.82789 0.0
H1201 H 0.98016 0.27193 0.8375 0.0
H1202 H 0.95887 0.26634 0.81759 0.0
H1203 H 0.93544 0.23144 0.8476 0.0
H1204 H 0.95687 0.23673 0.86745 0.0
H1205 H 0.92895 0.27205 0.82134 0.0
H1206 H 0.91239 0.20369 0.82496 0.0
H1207 H 0.92578 0.17903 0.82915 0.0
H1208 H 0.9697 0.20117 0.81164 0.0
H1209 H 0.95653 0.22587 0.80713 0.0
C1210 C 0.8604 0.24723 0.78929 0.0
C1211 C 0.85977 0.24008 0.77377 0.0
C1212 C 0.87461 0.24838 0.79816 0.0
C1213 C 0.88849 0.24253 0.79163 0.0
C1214 C 0.88786 0.23516 0.77624 0.0
C1215 C 0.87363 0.23398 0.76737 0.0
C1216 C 0.90372 0.24433 0.80081 0.0
C1217 C 0.9115 0.23058 0.80395 0.0
C1218 C 0.91031 0.2595 0.80685 0.0
C1219 C 0.90319 0.27457 0.80314 0.0
C1220 C 0.90081 0.27843 0.78721 0.0
C1221 C 0.89394 0.29256 0.78379 0.0
C1222 C 0.8895 0.30298 0.79619 0.0
C1223 C 0.89196 0.29931 0.81205 0.0
C1224 C 0.89881 0.28519 0.81554 0.0
C1225 C 0.97063 0.26286 0.83976 0.0
C1226 C 0.97017 0.25485 0.85411 0.0
C1227 C 0.95845 0.25971 0.82837 0.0
C1228 C 0.94556 0.24848 0.83109 0.0
C1229 C 0.94537 0.24 0.84514 0.0
C1230 C 0.95762 0.24308 0.8565 0.0
C1231 C 0.93171 0.24666 0.81991 0.0
C1232 C 0.92412 0.26044 0.81643 0.0
C1233 C 0.9255 0.23155 0.81334 0.0
C1234 C 0.93349 0.21668 0.81585 0.0
C1235 C 0.92489 0.20327 0.82194 0.0
C1236 C 0.93244 0.18929 0.82438 0.0
C1237 C 0.94859 0.18856 0.82071 0.0
C1238 C 0.95721 0.20178 0.81454 0.0
C1239 C 0.94971 0.21578 0.81206 0.0
H1240 H 0.95442 0.17773 0.82261 0.0
H1241 H 0.88419 0.31391 0.79352 0.0
H1242 H 0.42539 0.90543 0.4957 0.0
H1243 H 0.43398 0.88573 0.47566 0.0
H1244 H 0.44101 0.85289 0.51275 0.0
H1245 H 0.43316 0.87293 0.53278 0.0
H1246 H 0.46584 0.85463 0.49564 0.0
H1247 H 0.4101 0.84677 0.48327 0.0
H1248 H 0.38319 0.85439 0.47649 0.0
H1249 H 0.401 0.8737 0.43297 0.0
H1250 H 0.42808 0.86639 0.4396 0.0
H1251 H 0.47838 0.78734 0.44327 0.0
H1252 H 0.46594 0.80547 0.46229 0.0
H1253 H 0.4707 0.84301 0.42885 0.0
H1254 H 0.48335 0.82502 0.40976 0.0
H1255 H 0.43948 0.83824 0.44367 0.0
H1256 H 0.4957 0.84588 0.45752 0.0
H1257 H 0.52187 0.83662 0.46465 0.0
H1258 H 0.50154 0.81556 0.50632 0.0
H1259 H 0.47518 0.82451 0.4993 0.0
C1260 C 0.42844 0.89384 0.49944 0.0
C1261 C 0.42858 0.89056 0.51566 0.0
C1262 C 0.43331 0.88257 0.48801 0.0
C1263 C 0.43806 0.86773 0.49265 0.0
C1264 C 0.43747 0.86424 0.50886 0.0
C1265 C 0.43289 0.87561 0.52028 0.0
C1266 C 0.44495 0.85642 0.48088 0.0
C1267 C 0.45988 0.85086 0.48442 0.0
C1268 C 0.43743 0.85173 0.46603 0.0
C1269 C 0.42116 0.85617 0.46201 0.0
C1270 C 0.40831 0.85276 0.47231 0.0
C1271 C 0.39302 0.857 0.46849 0.0
C1272 C 0.3904 0.86456 0.45433 0.0
C1273 C 0.40306 0.86786 0.44395 0.0
C1274 C 0.41838 0.86366 0.44772 0.0
C1275 C 0.47681 0.79946 0.43995 0.0
C1276 C 0.4819 0.80477 0.42503 0.0
C1277 C 0.4697 0.80978 0.45083 0.0
C1278 C 0.46743 0.82553 0.44693 0.0
C1279 C 0.47234 0.83086 0.43202 0.0
C1280 C 0.47966 0.8206 0.4212 0.0
C1281 C 0.46016 0.83652 0.45859 0.0
C1282 C 0.44527 0.84202 0.45498 0.0
C1283 C 0.46756 0.84097 0.47348 0.0
C1284 C 0.48344 0.83573 0.4778 0.0
C1285 C 0.49678 0.83916 0.46813 0.0
C1286 C 0.51165 0.834 0.47217 0.0
C1287 C 0.51336 0.82547 0.48591 0.0
C1288 C 0.5002 0.82215 0.49567 0.0
C1289 C 0.48529 0.82728 0.49168 0.0
H1290 H 0.52488 0.82147 0.48901 0.0
H1291 H 0.37855 0.86783 0.45139 0.0
H1292 H 0.17057 0.28803 0.79987 0.0
H1293 H 0.14943 0.28534 0.81991 0.0
H1294 H 0.11916 0.31195 0.79112 0.0
H1295 H 0.14015 0.31461 0.77107 0.0
H1296 H 0.12086 0.32216 0.82414 0.0
H1297 H 0.11228 0.27342 0.79037 0.0
H1298 H 0.12051 0.24835 0.77745 0.0
H1299 H 0.13064 0.23067 0.82334 0.0
H1300 H 0.12267 0.25576 0.83651 0.0
H1301 H 0.0422 0.30805 0.84942 0.0
H1302 H 0.06754 0.31072 0.83556 0.0
H1303 H 0.08606 0.27535 0.86486 0.0
H1304 H 0.06032 0.27221 0.87853 0.0
H1305 H 0.09337 0.26927 0.83516 0.0
H1306 H 0.09919 0.31603 0.86948 0.0
H1307 H 0.09162 0.341 0.88311 0.0
H1308 H 0.08803 0.3626 0.83798 0.0
H1309 H 0.09536 0.33768 0.82404 0.0
C1310 C 0.1594 0.29332 0.79787 0.0
C1311 C 0.15693 0.30146 0.7839 0.0
C1312 C 0.14736 0.29174 0.80927 0.0
C1313 C 0.13276 0.29843 0.80695 0.0
C1314 C 0.13036 0.30672 0.79312 0.0
C1315 C 0.14229 0.30812 0.78163 0.0
C1316 C 0.11982 0.29673 0.81881 0.0
C1317 C 0.11476 0.31063 0.82652 0.0
C1318 C 0.11234 0.28161 0.82233 0.0
C1319 C 0.11708 0.26653 0.81441 0.0
C1320 C 0.11641 0.26425 0.79769 0.0
C1321 C 0.12099 0.25003 0.79033 0.0
C1322 C 0.12615 0.23795 0.79957 0.0
C1323 C 0.12668 0.24005 0.81619 0.0
C1324 C 0.12212 0.25426 0.82361 0.0
C1325 C 0.05169 0.30094 0.85307 0.0
C1326 C 0.04925 0.28994 0.86512 0.0
C1327 C 0.06625 0.30255 0.84517 0.0
C1328 C 0.07885 0.29345 0.84933 0.0
C1329 C 0.07654 0.28256 0.86149 0.0
C1330 C 0.06185 0.28081 0.86932 0.0
C1331 C 0.09403 0.29479 0.84028 0.0
C1332 C 0.09958 0.28082 0.83307 0.0
C1333 C 0.1021 0.30986 0.83738 0.0
C1334 C 0.09774 0.32493 0.84571 0.0
C1335 C 0.09668 0.32606 0.86245 0.0
C1336 C 0.09245 0.34022 0.87023 0.0
C1337 C 0.08932 0.35336 0.86142 0.0
C1338 C 0.09045 0.3524 0.8448 0.0
C1339 C 0.09467 0.33827 0.83695 0.0
H1340 H 0.08604 0.36431 0.86747 0.0
H1341 H 0.12969 0.22694 0.79384 0.0
H1342 H 0.54967 0.6444 0.51194 0.0
H1343 H 0.54385 0.66027 0.4893 0.0
H1344 H 0.57973 0.69718 0.50599 0.0
H1345 H 0.5852 0.68145 0.52905 0.0
H1346 H 0.55488 0.71058 0.49729 0.0
H1347 H 0.58534 0.67152 0.47217 0.0
H1348 H 0.59382 0.64461 0.46506 0.0
H1349 H 0.54815 0.63117 0.44289 0.0
H1350 H 0.5393 0.65793 0.45007 0.0
H1351 H 0.5425 0.75005 0.4246 0.0
H1352 H 0.55692 0.7347 0.44343 0.0
H1353 H 0.51704 0.69893 0.44338 0.0
H1354 H 0.50247 0.71431 0.42489 0.0
H1355 H 0.54874 0.6866 0.44211 0.0
H1356 H 0.51816 0.72549 0.47152 0.0
H1357 H 0.51091 0.75294 0.47825 0.0
H1358 H 0.55963 0.76729 0.49157 0.0
H1359 H 0.5672 0.73994 0.48468 0.0
C1360 C 0.55643 0.65582 0.51068 0.0
C1361 C 0.56795 0.66167 0.52218 0.0
C1362 C 0.55316 0.66487 0.49768 0.0
C1363 C 0.56159 0.6798 0.4957 0.0
C1364 C 0.57312 0.68567 0.5072 0.0
C1365 C 0.57623 0.6767 0.52037 0.0
C1366 C 0.55771 0.68953 0.48203 0.0
C1367 C 0.55392 0.7054 0.48518 0.0
C1368 C 0.55634 0.68284 0.46618 0.0
C1369 C 0.56162 0.66673 0.46175 0.0
C1370 C 0.57706 0.6628 0.46587 0.0
C1371 C 0.58194 0.64757 0.46182 0.0
C1372 C 0.57152 0.63618 0.45355 0.0
C1373 C 0.55621 0.64001 0.4493 0.0
C1374 C 0.55126 0.65521 0.45334 0.0
C1375 C 0.53694 0.73878 0.4284 0.0
C1376 C 0.52134 0.7334 0.42337 0.0
C1377 C 0.54517 0.73006 0.43916 0.0
C1378 C 0.53799 0.71574 0.44481 0.0
C1379 C 0.52277 0.70994 0.43912 0.0
C1380 C 0.51445 0.71877 0.42862 0.0
C1381 C 0.54565 0.70734 0.45755 0.0
C1382 C 0.55009 0.69177 0.4542 0.0
C1383 C 0.54787 0.71437 0.47315 0.0
C1384 C 0.54328 0.73074 0.4774 0.0
C1385 C 0.52735 0.73454 0.47575 0.0
C1386 C 0.52317 0.75007 0.47962 0.0
C1387 C 0.53481 0.76187 0.48528 0.0
C1388 C 0.55063 0.75815 0.48714 0.0
C1389 C 0.55487 0.74263 0.48326 0.0
H1390 H 0.53155 0.77389 0.48827 0.0
H1391 H 0.57532 0.62439 0.45043 0.0
H1392 H 0.84734 0.80082 0.73101 0.0
H1393 H 0.87184 0.79847 0.71591 0.0
H1394 H 0.89816 0.82892 0.75156 0.0
H1395 H 0.87351 0.83206 0.76632 0.0
H1396 H 0.90787 0.83653 0.72325 0.0
H1397 H 0.89972 0.78778 0.75013 0.0
H1398 H 0.88485 0.76316 0.75873 0.0
H1399 H 0.87961 0.74541 0.70995 0.0
H1400 H 0.89426 0.77003 0.70103 0.0
H1401 H 0.97552 0.78452 0.68933 0.0
H1402 H 0.95452 0.78947 0.70862 0.0
H1403 H 0.93401 0.82101 0.67637 0.0
H1404 H 0.9551 0.81647 0.65726 0.0
H1405 H 0.92374 0.78251 0.70637 0.0
H1406 H 0.91542 0.84965 0.69633 0.0
H1407 H 0.93191 0.87421 0.69009 0.0
H1408 H 0.97335 0.85511 0.70973 0.0
H1409 H 0.95708 0.83054 0.7163 0.0
C1410 C 0.85827 0.80725 0.73553 0.0
C1411 C 0.85844 0.81659 0.74994 0.0
C1412 C 0.87232 0.80571 0.72698 0.0
C1413 C 0.8869 0.81327 0.73276 0.0
C1414 C 0.88707 0.82289 0.74693 0.0
C1415 C 0.87299 0.82455 0.75543 0.0
C1416 C 0.90194 0.81109 0.724 0.0
C1417 C 0.91137 0.82472 0.71959 0.0
C1418 C 0.90674 0.79568 0.71959 0.0
C1419 C 0.89799 0.78081 0.72491 0.0
C1420 C 0.89531 0.77867 0.74123 0.0
C1421 C 0.88693 0.76471 0.74616 0.0
C1422 C 0.88126 0.75274 0.7349 0.0
C1423 C 0.88399 0.75469 0.71867 0.0
C1424 C 0.89235 0.76864 0.71366 0.0
C1425 C 0.96664 0.79265 0.68642 0.0
C1426 C 0.96701 0.80011 0.67175 0.0
C1427 C 0.95462 0.79543 0.69744 0.0
C1428 C 0.94277 0.80572 0.69401 0.0
C1429 C 0.9432 0.81327 0.67943 0.0
C1430 C 0.95525 0.8106 0.66847 0.0
C1431 C 0.92946 0.80796 0.70526 0.0
C1432 C 0.92033 0.79433 0.71013 0.0
C1433 C 0.92518 0.82337 0.71043 0.0
C1434 C 0.93504 0.83819 0.70668 0.0
C1435 C 0.92803 0.85072 0.69939 0.0
C1436 C 0.93735 0.86464 0.69578 0.0
C1437 C 0.95367 0.8662 0.69947 0.0
C1438 C 0.96071 0.85386 0.70683 0.0
C1439 C 0.95145 0.83993 0.71048 0.0
H1440 H 0.96086 0.87698 0.69665 0.0
H1441 H 0.87478 0.74194 0.73874 0.0
H1442 H 0.02474 0.90004 0.4919 0.0
H1443 H 0.0197 0.88514 0.51589 0.0
H1444 H 0.06973 0.8919 0.52856 0.0
H1445 H 0.07487 0.9073 0.5048 0.0
H1446 H 0.05523 0.86005 0.53245 0.0
H1447 H 0.04698 0.91465 0.54754 0.0
H1448 H 0.03597 0.94077 0.54451 0.0
H1449 H 0.98827 0.91847 0.54734 0.0
H1450 H 0.999 0.89216 0.55014 0.0
H1451 H 0.03632 0.82931 0.60875 0.0
H1452 H 0.04769 0.84729 0.58879 0.0
H1453 H 0.00022 0.85356 0.57132 0.0
H1454 H 0.98885 0.83609 0.59133 0.0
H1455 H 0.01746 0.88103 0.57206 0.0
H1456 H 0.02479 0.82656 0.55317 0.0
H1457 H 0.03482 0.79979 0.5548 0.0
H1458 H 0.08305 0.82109 0.55804 0.0
H1459 H 0.07328 0.84802 0.55663 0.0
C1460 C 0.03468 0.89845 0.4998 0.0
C1461 C 0.05018 0.90503 0.49649 0.0
C1462 C 0.03179 0.88986 0.51346 0.0
C1463 C 0.04432 0.88761 0.52405 0.0
C1464 C 0.05992 0.89354 0.52051 0.0
C1465 C 0.06282 0.90227 0.50688 0.0
C1466 C 0.0409 0.87948 0.53905 0.0
C1467 C 0.04722 0.86475 0.5413 0.0
C1468 C 0.0303 0.88557 0.55042 0.0
C1469 C 0.0238 0.90141 0.54894 0.0
C1470 C 0.03414 0.91529 0.5474 0.0
C1471 C 0.02795 0.93014 0.54574 0.0
C1472 C 0.01143 0.93127 0.54571 0.0
C1473 C 0.00107 0.91757 0.54737 0.0
C1474 C 0.0072 0.90269 0.54901 0.0
C1475 C 0.02833 0.83471 0.60078 0.0
C1476 C 0.01169 0.83121 0.60156 0.0
C1477 C 0.03484 0.84489 0.58933 0.0
C1478 C 0.02481 0.85159 0.57841 0.0
C1479 C 0.0082 0.84854 0.5796 0.0
C1480 C 0.00171 0.83849 0.59105 0.0
C1481 C 0.03139 0.86131 0.5653 0.0
C1482 C 0.02568 0.87641 0.56339 0.0
C1483 C 0.04242 0.85546 0.55417 0.0
C1484 C 0.0483 0.8393 0.555 0.0
C1485 C 0.03753 0.82553 0.55436 0.0
C1486 C 0.04316 0.81034 0.55522 0.0
C1487 C 0.05956 0.80874 0.55658 0.0
C1488 C 0.07035 0.82235 0.55703 0.0
C1489 C 0.06478 0.83758 0.5562 0.0
H1490 H 0.0639 0.79697 0.55724 0.0
H1491 H 0.00666 0.94277 0.54442 0.0
H1492 H 0.16979 0.78529 0.73287 0.0
H1493 H 0.14806 0.78953 0.71431 0.0
H1494 H 0.12219 0.74616 0.72879 0.0
H1495 H 0.14369 0.74194 0.74747 0.0
H1496 H 0.12148 0.74834 0.69662 0.0
H1497 H 0.11265 0.78252 0.74336 0.0
H1498 H 0.1201 0.80403 0.76378 0.0
H1499 H 0.12721 0.83796 0.72722 0.0
H1500 H 0.12001 0.81658 0.70655 0.0
H1501 H 0.04113 0.75477 0.67765 0.0
H1502 H 0.06688 0.75336 0.69079 0.0
H1503 H 0.08425 0.79789 0.67088 0.0
H1504 H 0.05824 0.79951 0.65771 0.0
H1505 H 0.09178 0.79716 0.70255 0.0
H1506 H 0.09728 0.76336 0.65598 0.0
H1507 H 0.08939 0.74178 0.63578 0.0
H1508 H 0.08845 0.70707 0.67185 0.0
H1509 H 0.0961 0.72847 0.69232 0.0
C1510 C 0.15943 0.7767 0.73215 0.0
C1511 C 0.15847 0.76328 0.74168 0.0
C1512 C 0.14706 0.77912 0.72151 0.0
C1513 C 0.13347 0.76822 0.72026 0.0
C1514 C 0.13261 0.75468 0.72952 0.0
C1515 C 0.14495 0.75226 0.74015 0.0
C1516 C 0.11991 0.77096 0.70957 0.0
C1517 C 0.11493 0.75897 0.69796 0.0
C1518 C 0.11169 0.78507 0.711 0.0
C1519 C 0.11599 0.79792 0.72341 0.0
C1520 C 0.11594 0.79454 0.73967 0.0
C1521 C 0.12009 0.80671 0.75128 0.0
C1522 C 0.12418 0.82234 0.74679 0.0
C1523 C 0.12408 0.82584 0.73067 0.0
C1524 C 0.11996 0.8137 0.71901 0.0
C1525 C 0.05041 0.76427 0.67599 0.0
C1526 C 0.04765 0.77724 0.66659 0.0
C1527 C 0.06517 0.76339 0.68345 0.0
C1528 C 0.07756 0.77539 0.68162 0.0
C1529 C 0.07486 0.78846 0.67236 0.0
C1530 C 0.06002 0.78935 0.66484 0.0
C1531 C 0.09311 0.77434 0.68985 0.0
C1532 C 0.09849 0.78664 0.701 0.0
C1533 C 0.1017 0.7605 0.688 0.0
C1534 C 0.09717 0.74756 0.67571 0.0
C1535 C 0.09528 0.75114 0.65963 0.0
C1536 C 0.09087 0.73894 0.64813 0.0
C1537 C 0.0884 0.72307 0.65254 0.0
C1538 C 0.09036 0.71937 0.66846 0.0
C1539 C 0.09476 0.73153 0.68001 0.0
H1540 H 0.08498 0.71364 0.64361 0.0
H1541 H 0.12739 0.83175 0.7558 0.0
H1542 H 0.9335 0.65724 0.51478 0.0
H1543 H 0.94185 0.67988 0.53347 0.0
H1544 H 0.99128 0.67171 0.52521 0.0
H1545 H 0.98297 0.64934 0.50611 0.0
H1546 H 0.97783 0.67315 0.55983 0.0
H1547 H 0.98397 0.70136 0.51092 0.0
H1548 H 0.9747 0.70987 0.48494 0.0
H1549 H 0.93602 0.73218 0.5079 0.0
H1550 H 0.94492 0.72357 0.534 0.0
H1551 H 0.01072 0.73966 0.608 0.0
H1552 H 0.00524 0.71865 0.587 0.0
H1553 H 0.96024 0.7378 0.57658 0.0
H1554 H 0.96616 0.75935 0.59691 0.0
H1555 H 0.97283 0.73053 0.55033 0.0
H1556 H 0.96416 0.70228 0.59823 0.0
H1557 H 0.97069 0.69292 0.62474 0.0
H1558 H 0.01041 0.66972 0.60495 0.0
H1559 H 0.00423 0.67912 0.57835 0.0
C1560 C 0.94613 0.66046 0.51683 0.0
C1561 C 0.95764 0.6517 0.50906 0.0
C1562 C 0.95087 0.67332 0.52744 0.0
C1563 C 0.96715 0.67737 0.53063 0.0
C1564 C 0.97867 0.66872 0.5228 0.0
C1565 C 0.97394 0.65606 0.51191 0.0
C1566 C 0.97201 0.69017 0.54275 0.0
C1567 C 0.97703 0.68575 0.55775 0.0
C1568 C 0.97035 0.70644 0.54006 0.0
C1569 C 0.96501 0.71167 0.52439 0.0
C1570 C 0.97339 0.70793 0.51041 0.0
C1571 C 0.96823 0.71281 0.49567 0.0
C1572 C 0.95475 0.72152 0.49476 0.0
C1573 C 0.94644 0.72541 0.50861 0.0
C1574 C 0.95155 0.72055 0.52338 0.0
C1575 C 0.99963 0.7393 0.60127 0.0
C1576 C 0.98883 0.75107 0.60409 0.0
C1577 C 0.99646 0.72726 0.58931 0.0
C1578 C 0.98219 0.72645 0.58033 0.0
C1579 C 0.97135 0.73816 0.58329 0.0
C1580 C 0.9747 0.75043 0.59495 0.0
C1581 C 0.97863 0.71362 0.56768 0.0
C1582 C 0.97378 0.71798 0.55252 0.0
C1583 C 0.98009 0.69721 0.57036 0.0
C1584 C 0.98383 0.69155 0.58634 0.0
C1585 C 0.97436 0.69529 0.59956 0.0
C1586 C 0.97798 0.68996 0.6146 0.0
C1587 C 0.99099 0.68077 0.61654 0.0
C1588 C 0.00036 0.67686 0.60343 0.0
C1589 C 0.9968 0.68217 0.58837 0.0
H1590 H 0.99377 0.67665 0.62819 0.0
H1591 H 0.95078 0.72529 0.48334 0.0
H1592 H 0.77824 0.88609 0.20723 0.0
H1593 H 0.79487 0.91147 0.20872 0.0
H1594 H 0.76917 0.927 0.25028 0.0
H1595 H 0.75256 0.90165 0.24893 0.0
H1596 H 0.77435 0.95095 0.2298 0.0
H1597 H 0.80531 0.91217 0.25401 0.0
H1598 H 0.81836 0.88686 0.25479 0.0
H1599 H 0.84728 0.90019 0.21479 0.0
H1600 H 0.83424 0.92551 0.21364 0.0
H1601 H 0.82814 0.01003 0.26799 0.0
H1602 H 0.81005 0.98682 0.25987 0.0
H1603 H 0.84053 0.97623 0.22015 0.0
H1604 H 0.85889 0.99937 0.22834 0.0
H1605 H 0.83307 0.95014 0.23645 0.0
H1606 H 0.80399 0.99033 0.21401 0.0
H1607 H 0.79108 0.01573 0.2135 0.0
H1608 H 0.75874 3e-05 0.25006 0.0
H1609 H 0.77161 0.97462 0.25097 0.0
C1610 C 0.77617 0.89488 0.21672 0.0
C1611 C 0.76413 0.89181 0.22802 0.0
C1612 C 0.78564 0.9094 0.21752 0.0
C1613 C 0.78335 0.92105 0.2297 0.0
C1614 C 0.7711 0.91818 0.24075 0.0
C1615 C 0.76161 0.9037 0.23995 0.0
C1616 C 0.79401 0.93604 0.2313 0.0
C1617 C 0.78718 0.9508 0.23137 0.0
C1618 C 0.81079 0.93582 0.2329 0.0
C1619 C 0.81868 0.92064 0.23362 0.0
C1620 C 0.81436 0.90965 0.2453 0.0
C1621 C 0.82177 0.89531 0.24583 0.0
C1622 C 0.83361 0.8919 0.23482 0.0
C1623 C 0.83809 0.90284 0.22329 0.0
C1624 C 0.8307 0.91718 0.2227 0.0
C1625 C 0.83094 0.00289 0.25741 0.0
C1626 C 0.84501 0.00655 0.24885 0.0
C1627 C 0.82052 0.98966 0.25273 0.0
C1628 C 0.82386 0.97987 0.23932 0.0
C1629 C 0.83771 0.98365 0.23053 0.0
C1630 C 0.84816 0.99691 0.23521 0.0
C1631 C 0.81342 0.96511 0.23517 0.0
C1632 C 0.82027 0.95035 0.23465 0.0
C1633 C 0.79668 0.96536 0.23317 0.0
C1634 C 0.78886 0.98061 0.23264 0.0
C1635 C 0.79421 0.99234 0.22203 0.0
C1636 C 0.78688 0.00673 0.22165 0.0
C1637 C 0.77412 0.00951 0.23176 0.0
C1638 C 0.76863 0.99787 0.24224 0.0
C1639 C 0.77593 0.98346 0.24268 0.0
H1640 H 0.76846 0.02066 0.23145 0.0
H1641 H 0.83933 0.88079 0.23525 0.0
H1642 H 0.75901 0.17373 0.3062 0.0
H1643 H 0.77824 0.15326 0.30422 0.0
H1644 H 0.81121 0.1858 0.28009 0.0
H1645 H 0.79199 0.20643 0.28211 0.0
H1646 H 0.80643 0.15407 0.26528 0.0
H1647 H 0.81975 0.17995 0.31636 0.0
H1648 H 0.81414 0.19094 0.34335 0.0
H1649 H 0.79568 0.14429 0.35679 0.0
H1650 H 0.80096 0.13306 0.32979 0.0
H1651 H 0.86651 0.09866 0.26765 0.0
H1652 H 0.85303 0.12353 0.27032 0.0
H1653 H 0.8199 0.10159 0.30348 0.0
H1654 H 0.83363 0.07704 0.30132 0.0
H1655 H 0.82769 0.13077 0.31356 0.0
H1656 H 0.81078 0.10536 0.26272 0.0
H1657 H 0.8146 0.0936 0.23562 0.0
H1658 H 0.83784 0.1382 0.22164 0.0
H1659 H 0.83432 0.15016 0.24873 0.0
C1660 C 0.77034 0.1765 0.30043 0.0
C1661 C 0.77402 0.19164 0.29429 0.0
C1662 C 0.78133 0.16485 0.29939 0.0
C1663 C 0.79616 0.16808 0.2921 0.0
C1664 C 0.79984 0.18313 0.2858 0.0
C1665 C 0.78891 0.19489 0.28702 0.0
C1666 C 0.80766 0.15558 0.29095 0.0
C1667 C 0.81136 0.14915 0.2758 0.0
C1668 C 0.81375 0.14899 0.30471 0.0
C1669 C 0.81064 0.15569 0.321 0.0
C1670 C 0.81438 0.17205 0.32502 0.0
C1671 C 0.81128 0.17832 0.34034 0.0
C1672 C 0.80453 0.16832 0.35177 0.0
C1673 C 0.8009 0.15202 0.34792 0.0
C1674 C 0.80396 0.1457 0.33262 0.0
C1675 C 0.85642 0.09921 0.27559 0.0
C1676 C 0.8511 0.08588 0.28423 0.0
C1677 C 0.84867 0.11339 0.27704 0.0
C1678 C 0.83528 0.11437 0.28692 0.0
C1679 C 0.83021 0.10116 0.2958 0.0
C1680 C 0.83805 0.0871 0.29452 0.0
C1681 C 0.82623 0.12893 0.28786 0.0
C1682 C 0.82297 0.13578 0.30299 0.0
C1683 C 0.82035 0.13576 0.27407 0.0
C1684 C 0.82246 0.12859 0.25779 0.0
C1685 C 0.81681 0.11261 0.25389 0.0
C1686 C 0.81891 0.10592 0.23854 0.0
C1687 C 0.82651 0.11513 0.22693 0.0
C1688 C 0.83199 0.13107 0.23065 0.0
C1689 C 0.82994 0.13781 0.246 0.0
H1690 H 0.82812 0.10992 0.21505 0.0
H1691 H 0.80214 0.1732 0.36362 0.0
H1692 H 0.38947 0.00094 0.99513 0.0
H1693 H 0.36687 0.98268 0.00266 0.0
H1694 H 0.33491 0.0091 0.97556 0.0
H1695 H 0.35743 0.02761 0.96824 0.0
H1696 H 0.32354 0.00286 0.00536 0.0
H1697 H 0.34517 0.97361 0.96103 0.0
H1698 H 0.36632 0.96127 0.94562 0.0
H1699 H 0.37421 0.93061 0.98399 0.0
H1700 H 0.35326 0.94293 0.99973 0.0
H1701 H 0.25561 0.94723 0.00554 0.0
H1702 H 0.27828 0.96506 0.99766 0.0
H1703 H 0.31045 0.93698 0.02259 0.0
H1704 H 0.28784 0.91885 0.0303 0.0
H1705 H 0.32183 0.94408 0.99391 0.0
H1706 H 0.30048 0.97321 0.03836 0.0
H1707 H 0.27959 0.9856 0.05409 0.0
H1708 H 0.27147 0.01656 0.01604 0.0
H1709 H 0.29217 0.0042 -2e-05 0.0
C1710 C 0.37762 0.00288 0.99082 0.0
C1711 C 0.3752 0.01569 0.98109 0.0
C1712 C 0.36475 0.99238 0.99503 0.0
C1713 C 0.34926 0.99449 0.98956 0.0
C1714 C 0.3468 0.00726 0.97986 0.0
C1715 C 0.35967 0.01774 0.97559 0.0
C1716 C 0.33557 0.98354 0.99424 0.0
C1717 C 0.32304 0.99003 0.00267 0.0
C1718 C 0.33518 0.96677 0.99108 0.0
C1719 C 0.34775 0.9593 0.98162 0.0
C1720 C 0.35151 0.96433 0.96623 0.0
C1721 C 0.36344 0.95732 0.95743 0.0
C1722 C 0.37163 0.94519 0.96384 0.0
C1723 C 0.36787 0.94002 0.97905 0.0
C1724 C 0.35596 0.947 0.98791 0.0
C1725 C 0.2675 0.94484 0.0094 0.0
C1726 C 0.26991 0.93163 0.0186 0.0
C1727 C 0.28044 0.95509 0.00492 0.0
C1728 C 0.29603 0.95246 0.00971 0.0
C1729 C 0.29851 0.93923 0.0188 0.0
C1730 C 0.28557 0.92892 0.02322 0.0
C1731 C 0.30976 0.9634 0.00504 0.0
C1732 C 0.32232 0.95691 0.99662 0.0
C1733 C 0.3102 0.98017 0.00826 0.0
C1734 C 0.29777 0.98766 0.01791 0.0
C1735 C 0.29415 0.98257 0.0333 0.0
C1736 C 0.28236 0.98961 0.04228 0.0
C1737 C 0.27418 0.00183 0.03606 0.0
C1738 C 0.2778 0.00707 0.02084 0.0
C1739 C 0.28958 7e-05 0.0118 0.0
H1740 H 0.26505 0.00726 0.04303 0.0
H1741 H 0.38087 0.93978 0.957 0.0
H1742 H 0.20781 0.34994 0.26394 0.0
H1743 H 0.187 0.36894 0.26264 0.0
H1744 H 0.21205 0.39959 0.29898 0.0
H1745 H 0.23273 0.38075 0.30033 0.0
H1746 H 0.17908 0.39502 0.30404 0.0
H1747 H 0.2161 0.40812 0.26114 0.0
H1748 H 0.23045 0.40187 0.23633 0.0
H1749 H 0.18575 0.38997 0.21172 0.0
H1750 H 0.17113 0.39596 0.23646 0.0
H1751 H 0.1599 0.47384 0.30174 0.0
H1752 H 0.17224 0.44853 0.30049 0.0
H1753 H 0.14211 0.43187 0.26025 0.0
H1754 H 0.12979 0.45752 0.26123 0.0
H1755 H 0.17238 0.4251 0.25523 0.0
H1756 H 0.13517 0.41646 0.2967 0.0
H1757 H 0.12049 0.42261 0.32131 0.0
H1758 H 0.16424 0.42524 0.34848 0.0
H1759 H 0.17923 0.41934 0.32401 0.0
C1760 C 0.20876 0.36069 0.2717 0.0
C1761 C 0.22192 0.36397 0.28215 0.0
C1762 C 0.19694 0.37153 0.27091 0.0
C1763 C 0.19806 0.38567 0.28067 0.0
C1764 C 0.21098 0.38873 0.29136 0.0
C1765 C 0.22284 0.37804 0.29203 0.0
C1766 C 0.1861 0.39766 0.27963 0.0
C1767 C 0.17759 0.40163 0.29339 0.0
C1768 C 0.18375 0.40582 0.26554 0.0
C1769 C 0.19254 0.40228 0.25068 0.0
C1770 C 0.20934 0.40403 0.25047 0.0
C1771 C 0.21752 0.40056 0.23642 0.0
C1772 C 0.20902 0.39547 0.22247 0.0
C1773 C 0.19231 0.39388 0.22254 0.0
C1774 C 0.18408 0.39731 0.23657 0.0
C1775 C 0.1558 0.4648 0.29265 0.0
C1776 C 0.14381 0.46768 0.28161 0.0
C1777 C 0.16282 0.45027 0.29201 0.0
C1778 C 0.1579 0.43817 0.28047 0.0
C1779 C 0.146 0.441 0.26933 0.0
C1780 C 0.13897 0.45564 0.26992 0.0
C1781 C 0.16576 0.42291 0.27986 0.0
C1782 C 0.17351 0.41829 0.2658 0.0
C1783 C 0.16731 0.41404 0.29366 0.0
C1784 C 0.15834 0.41752 0.30848 0.0
C1785 C 0.14169 0.41845 0.30791 0.0
C1786 C 0.1333 0.42188 0.32184 0.0
C1787 C 0.14143 0.42434 0.33645 0.0
C1788 C 0.15796 0.42333 0.33716 0.0
C1789 C 0.1664 0.41992 0.32326 0.0
H1790 H 0.13492 0.42699 0.34722 0.0
H1791 H 0.21537 0.39279 0.2116 0.0
H1792 H 0.15164 0.99974 0.45709 0.0
H1793 H 0.17267 0.0209 0.46415 0.0
H1794 H 0.14468 0.05567 0.44308 0.0
H1795 H 0.12404 0.03433 0.43533 0.0
H1796 H 0.17415 0.06305 0.43715 0.0
H1797 H 0.14575 0.05 0.48449 0.0
H1798 H 0.13405 0.03255 0.50493 0.0
H1799 H 0.18075 0.01911 0.51716 0.0
H1800 H 0.19271 0.03631 0.49661 0.0
H1801 H 0.21121 0.13102 0.48339 0.0
H1802 H 0.1913 0.10953 0.47402 0.0
H1803 H 0.22586 0.07471 0.47949 0.0
H1804 H 0.24594 0.09611 0.48849 0.0
H1805 H 0.19314 0.06798 0.49346 0.0
H1806 H 0.22069 0.08253 0.44491 0.0
H1807 H 0.23082 0.10171 0.42526 0.0
H1808 H 0.18312 0.11462 0.41672 0.0
H1809 H 0.17273 0.09568 0.43652 0.0
C1810 C 0.15015 0.01189 0.45381 0.0
C1811 C 0.13629 0.0155 0.44574 0.0
C1812 C 0.16207 0.02398 0.45793 0.0
C1813 C 0.16008 0.03997 0.45452 0.0
C1814 C 0.14647 0.04345 0.44591 0.0
C1815 C 0.1347 0.03129 0.44147 0.0
C1816 C 0.17193 0.0531 0.46035 0.0
C1817 C 0.17814 0.06419 0.44951 0.0
C1818 C 0.17724 0.05463 0.47648 0.0
C1819 C 0.1701 0.04433 0.4889 0.0
C1820 C 0.15351 0.04324 0.49146 0.0
C1821 C 0.14683 0.0334 0.50307 0.0
C1822 C 0.15664 0.02469 0.51231 0.0
C1823 C 0.17316 0.02584 0.50998 0.0
C1824 C 0.1799 0.03564 0.49836 0.0
C1825 C 0.21454 0.11878 0.48264 0.0
C1826 C 0.23012 0.11523 0.48663 0.0
C1827 C 0.2032 0.10657 0.47725 0.0
C1828 C 0.2072 0.09062 0.47604 0.0
C1829 C 0.22261 0.08698 0.48034 0.0
C1830 C 0.23405 0.09921 0.48542 0.0
C1831 C 0.19531 0.07769 0.47025 0.0
C1832 C 0.18909 0.06672 0.48112 0.0
C1833 C 0.18973 0.07651 0.45428 0.0
C1834 C 0.19596 0.08783 0.44232 0.0
C1835 C 0.21238 0.08957 0.43896 0.0
C1836 C 0.21817 0.10037 0.42777 0.0
C1837 C 0.20763 0.10941 0.41978 0.0
C1838 C 0.19127 0.10763 0.42294 0.0
C1839 C 0.18543 0.09686 0.43413 0.0
H1840 H 0.21213 0.11777 0.41112 0.0
H1841 H 0.15145 0.01709 0.5213 0.0
H1842 H 0.71908 0.17072 0.74592 0.0
H1843 H 0.70272 0.14576 0.7492 0.0
H1844 H 0.73449 0.1204 0.71875 0.0
H1845 H 0.75044 0.14552 0.71464 0.0
H1846 H 0.70498 0.10968 0.71229 0.0
H1847 H 0.7365 0.11886 0.75972 0.0
H1848 H 0.7481 0.13411 0.78347 0.0
H1849 H 0.70113 0.13817 0.80248 0.0
H1850 H 0.68923 0.12313 0.77874 0.0
H1851 H 0.67162 0.04187 0.76829 0.0
H1852 H 0.69174 0.06315 0.7616 0.0
H1853 H 0.65803 0.08195 0.72979 0.0
H1854 H 0.63805 0.0605 0.73604 0.0
H1855 H 0.69181 0.09369 0.76714 0.0
H1856 H 0.67663 0.10116 0.70015 0.0
H1857 H 0.66752 0.08423 0.67645 0.0
H1858 H 0.68647 0.04347 0.6966 0.0
H1859 H 0.69589 0.06019 0.72031 0.0
C1860 C 0.72245 0.15991 0.73967 0.0
C1861 C 0.73614 0.16015 0.73007 0.0
C1862 C 0.71319 0.14559 0.74174 0.0
C1863 C 0.71756 0.13115 0.73448 0.0
C1864 C 0.73096 0.13138 0.72456 0.0
C1865 C 0.74015 0.14574 0.72236 0.0
C1866 C 0.7082 0.11582 0.7374 0.0
C1867 C 0.70213 0.10615 0.72427 0.0
C1868 C 0.70485 0.11098 0.75304 0.0
C1869 C 0.71197 0.11997 0.76739 0.0
C1870 C 0.72864 0.1231 0.76892 0.0
C1871 C 0.73527 0.13169 0.78238 0.0
C1872 C 0.72536 0.13713 0.79446 0.0
C1873 C 0.70879 0.13396 0.79311 0.0
C1874 C 0.7021 0.12538 0.77966 0.0
C1875 C 0.66856 0.05043 0.75972 0.0
C1876 C 0.65323 0.0495 0.7527 0.0
C1877 C 0.68006 0.0626 0.75593 0.0
C1878 C 0.67645 0.07408 0.7451 0.0
C1879 C 0.66122 0.07305 0.73793 0.0
C1880 C 0.64977 0.06081 0.74159 0.0
C1881 C 0.68823 0.08772 0.74202 0.0
C1882 C 0.69475 0.09712 0.75514 0.0
C1883 C 0.69234 0.09204 0.72638 0.0
C1884 C 0.68685 0.08192 0.71207 0.0
C1885 C 0.67892 0.0886 0.69949 0.0
C1886 C 0.67369 0.07904 0.68606 0.0
C1887 C 0.67638 0.06278 0.68504 0.0
C1888 C 0.68435 0.05605 0.69743 0.0
C1889 C 0.68961 0.06557 0.71088 0.0
H1890 H 0.67231 0.05539 0.67464 0.0
H1891 H 0.73052 0.14379 0.80488 0.0
H1892 H 0.39343 0.03122 0.54366 0.0
H1893 H 0.37903 0.05447 0.5383 0.0
H1894 H 0.34561 0.04233 0.57552 0.0
H1895 H 0.35927 0.01829 0.58017 0.0
H1896 H 0.32987 0.05028 0.55151 0.0
H1897 H 0.37524 0.07499 0.57955 0.0
H1898 H 0.40376 0.08102 0.58641 0.0
H1899 H 0.41231 0.09965 0.54018 0.0
H1900 H 0.38388 0.09352 0.53294 0.0
H1901 H 0.29455 0.12396 0.54158 0.0
H1902 H 0.31108 0.10578 0.55519 0.0
H1903 H 0.34027 0.10173 0.51331 0.0
H1904 H 0.32367 0.11957 0.49956 0.0
H1905 H 0.35758 0.10391 0.54402 0.0
H1906 H 0.31209 0.07495 0.51587 0.0
H1907 H 0.28325 0.06944 0.51016 0.0
H1908 H 0.27491 0.0597 0.55933 0.0
H1909 H 0.30369 0.0654 0.56536 0.0
C1910 C 0.38291 0.03333 0.55062 0.0
C1911 C 0.37751 0.02275 0.56232 0.0
C1912 C 0.37484 0.04686 0.54773 0.0
C1913 C 0.36139 0.05039 0.55672 0.0
C1914 C 0.35602 0.03995 0.56849 0.0
C1915 C 0.36396 0.02626 0.57124 0.0
C1916 C 0.35247 0.06449 0.55316 0.0
C1917 C 0.33593 0.06207 0.55026 0.0
C1918 C 0.36031 0.07992 0.55137 0.0
C1919 C 0.37743 0.08369 0.55567 0.0
C1920 C 0.38322 0.08027 0.5708 0.0
C1921 C 0.39937 0.08372 0.57476 0.0
C1922 C 0.40985 0.09069 0.56373 0.0
C1923 C 0.40418 0.09425 0.54871 0.0
C1924 C 0.38804 0.09081 0.54468 0.0
C1925 C 0.30472 0.11948 0.53543 0.0
C1926 C 0.30779 0.12307 0.51949 0.0
C1927 C 0.3141 0.10909 0.54319 0.0
C1928 C 0.32681 0.10238 0.53519 0.0
C1929 C 0.33053 0.10683 0.51967 0.0
C1930 C 0.32101 0.11695 0.51182 0.0
C1931 C 0.33522 0.08949 0.54221 0.0
C1932 C 0.3516 0.09215 0.54567 0.0
C1933 C 0.32724 0.07435 0.54477 0.0
C1934 C 0.30998 0.07079 0.5411 0.0
C1935 C 0.30408 0.07177 0.52549 0.0
C1936 C 0.28775 0.06859 0.52219 0.0
C1937 C 0.27725 0.06427 0.53439 0.0
C1938 C 0.28305 0.06308 0.5499 0.0
C1939 C 0.29937 0.06628 0.55326 0.0
H1940 H 0.26461 0.06181 0.53181 0.0
H1941 H 0.42235 0.09335 0.56682 0.0
H1942 H 0.608 0.53189 0.57661 0.0
H1943 H 0.62378 0.50864 0.57403 0.0
H1944 H 0.66419 0.53642 0.59616 0.0
H1945 H 0.64838 0.55985 0.59871 0.0
H1946 H 0.67191 0.52102 0.56817 0.0
H1947 H 0.64624 0.5071 0.61623 0.0
H1948 H 0.6238 0.50274 0.63475 0.0
H1949 H 0.60207 0.4656 0.60277 0.0
H1950 H 0.62426 0.46989 0.58393 0.0
H1951 H 0.69969 0.43518 0.57116 0.0
H1952 H 0.68668 0.45721 0.5848 0.0
H1953 H 0.66951 0.47147 0.53949 0.0
H1954 H 0.68232 0.44966 0.52584 0.0
H1955 H 0.65453 0.46648 0.58521 0.0
H1956 H 0.67711 0.51162 0.53861 0.0
H1957 H 0.69993 0.51584 0.5205 0.0
H1958 H 0.72929 0.4911 0.55161 0.0
H1959 H 0.70672 0.48692 0.57004 0.0
C1960 C 0.62022 0.53301 0.58101 0.0
C1961 C 0.62701 0.54769 0.58776 0.0
C1962 C 0.62917 0.51969 0.57967 0.0
C1963 C 0.64511 0.52077 0.58503 0.0
C1964 C 0.65187 0.53533 0.59204 0.0
C1965 C 0.64284 0.54866 0.59353 0.0
C1966 C 0.65495 0.50703 0.58201 0.0
C1967 C 0.66823 0.50914 0.57206 0.0
C1968 C 0.65027 0.49158 0.58731 0.0
C1969 C 0.6369 0.48889 0.59862 0.0
C1970 C 0.63663 0.49808 0.61308 0.0
C1971 C 0.62396 0.49561 0.62365 0.0
C1972 C 0.61151 0.48392 0.61993 0.0
C1973 C 0.61173 0.47465 0.60564 0.0
C1974 C 0.62436 0.47708 0.59502 0.0
C1975 C 0.69291 0.44286 0.56415 0.0
C1976 C 0.69215 0.44076 0.54741 0.0
C1977 C 0.68551 0.45542 0.57195 0.0
C1978 C 0.6774 0.46609 0.5631 0.0
C1979 C 0.67594 0.46349 0.5465 0.0
C1980 C 0.68324 0.45098 0.53873 0.0
C1981 C 0.671 0.48044 0.57086 0.0
C1982 C 0.65838 0.47843 0.58162 0.0
C1983 C 0.67637 0.49604 0.56645 0.0
C1984 C 0.69017 0.49887 0.55566 0.0
C1985 C 0.68846 0.50717 0.54165 0.0
C1986 C 0.70135 0.50953 0.53132 0.0
C1987 C 0.71603 0.5037 0.53488 0.0
C1988 C 0.71789 0.49556 0.54884 0.0
C1989 C 0.70504 0.49318 0.55923 0.0
H1990 H 0.72596 0.50549 0.52682 0.0
H1991 H 0.60171 0.48202 0.62813 0.0
H1992 H 0.69916 0.27427 0.39232 0.0
H1993 H 0.69859 0.28921 0.41807 0.0
H1994 H 0.7231 0.33038 0.39746 0.0
H1995 H 0.72433 0.31534 0.37193 0.0
H1996 H 0.7359 0.32569 0.42517 0.0
H1997 H 0.68258 0.32831 0.40498 0.0
H1998 H 0.65631 0.31749 0.39418 0.0
H1999 H 0.64743 0.29167 0.43663 0.0
H2000 H 0.67376 0.30218 0.44759 0.0
H2001 H 0.698 0.38229 0.48544 0.0
H2002 H 0.69461 0.36393 0.46192 0.0
H2003 H 0.72793 0.33352 0.48191 0.0
H2004 H 0.73163 0.35194 0.50533 0.0
H2005 H 0.68569 0.33261 0.45476 0.0
H2006 H 0.7528 0.32208 0.45255 0.0
H2007 H 0.77868 0.33536 0.46198 0.0
H2008 H 0.75925 0.38123 0.46156 0.0
H2009 H 0.73334 0.36824 0.45191 0.0
C2010 C 0.70455 0.28646 0.3933 0.0
C2011 C 0.71177 0.29362 0.38004 0.0
C2012 C 0.70405 0.29504 0.40799 0.0
C2013 C 0.71065 0.31097 0.40965 0.0
C2014 C 0.71789 0.31811 0.39645 0.0
C2015 C 0.71845 0.30954 0.38181 0.0
C2016 C 0.71038 0.32016 0.4252 0.0
C2017 C 0.72491 0.32713 0.43164 0.0
C2018 C 0.69604 0.32222 0.43359 0.0
C2019 C 0.68021 0.3159 0.42703 0.0
C2020 C 0.67508 0.32022 0.41195 0.0
C2021 C 0.66017 0.31416 0.40581 0.0
C2022 C 0.65022 0.30386 0.41469 0.0
C2023 C 0.65516 0.29963 0.42975 0.0
C2024 C 0.67006 0.30564 0.43594 0.0
C2025 C 0.70439 0.37155 0.48499 0.0
C2026 C 0.71529 0.36872 0.49715 0.0
C2027 C 0.7024 0.36104 0.47154 0.0
C2028 C 0.71125 0.34753 0.47005 0.0
C2029 C 0.7212 0.34404 0.48271 0.0
C2030 C 0.72327 0.35457 0.4961 0.0
C2031 C 0.71121 0.338 0.45469 0.0
C2032 C 0.69666 0.33099 0.44831 0.0
C2033 C 0.72549 0.3362 0.44613 0.0
C2034 C 0.7411 0.34416 0.45169 0.0
C2035 C 0.75408 0.335 0.45442 0.0
C2036 C 0.76875 0.34248 0.45981 0.0
C2037 C 0.77059 0.35912 0.46242 0.0
C2038 C 0.75779 0.36834 0.45958 0.0
C2039 C 0.74311 0.36092 0.45417 0.0
H2040 H 0.78195 0.36489 0.46661 0.0
H2041 H 0.63868 0.29919 0.40992 0.0
H2042 H 0.50788 0.04281 0.91221 0.0
H2043 H 0.52767 0.03762 0.89179 0.0
H2044 H 0.50321 0.06578 0.85912 0.0
H2045 H 0.48308 0.0707 0.87942 0.0
H2046 H 0.51154 0.03763 0.84498 0.0
H2047 H 0.53712 0.08126 0.87708 0.0
H2048 H 0.54688 0.09559 0.90205 0.0
H2049 H 0.57752 0.05817 0.91069 0.0
H2050 H 0.56777 0.0435 0.88587 0.0
H2051 H 0.57282 0.04347 0.78778 0.0
H2052 H 0.5534 0.05007 0.80806 0.0
H2053 H 0.57784 0.02351 0.84217 0.0
H2054 H 0.59757 0.01707 0.822 0.0
H2055 H 0.5694 0.0514 0.85537 0.0
H2056 H 0.54346 0.00751 0.82357 0.0
H2057 H 0.53358 0.99303 0.79871 0.0
H2058 H 0.50355 0.03081 0.78955 0.0
H2059 H 0.51342 0.04562 0.81426 0.0
C2060 C 0.50662 0.04778 0.90064 0.0
C2061 C 0.49391 0.05715 0.89741 0.0
C2062 C 0.51802 0.04493 0.88903 0.0
C2063 C 0.51699 0.05146 0.87401 0.0
C2064 C 0.50424 0.06069 0.87067 0.0
C2065 C 0.49283 0.06358 0.8823 0.0
C2066 C 0.52917 0.0485 0.86177 0.0
C2067 C 0.52417 0.04085 0.84714 0.0
C2068 C 0.54567 0.05238 0.86478 0.0
C2069 C 0.5516 0.06121 0.87969 0.0
C2070 C 0.54584 0.07602 0.88437 0.0
C2071 C 0.55139 0.08422 0.89848 0.0
C2072 C 0.56278 0.07777 0.90797 0.0
C2073 C 0.56868 0.06314 0.90334 0.0
C2074 C 0.56316 0.05488 0.88924 0.0
C2075 C 0.57413 0.03905 0.79961 0.0
C2076 C 0.58671 0.02966 0.80325 0.0
C2077 C 0.56296 0.04279 0.81116 0.0
C2078 C 0.56403 0.03706 0.82653 0.0
C2079 C 0.57677 0.028 0.83035 0.0
C2080 C 0.58802 0.02431 0.8188 0.0
C2081 C 0.55178 0.04047 0.8386 0.0
C2082 C 0.55677 0.0482 0.85319 0.0
C2083 C 0.53527 0.03664 0.83556 0.0
C2084 C 0.52929 0.02774 0.8207 0.0
C2085 C 0.53485 0.01279 0.81619 0.0
C2086 C 0.52923 0.00451 0.80214 0.0
C2087 C 0.51796 0.01101 0.79255 0.0
C2088 C 0.51228 0.0258 0.79699 0.0
C2089 C 0.51787 0.03413 0.81103 0.0
H2090 H 0.51359 0.00456 0.7817 0.0
H2091 H 0.56706 0.08414 0.9189 0.0
H2092 H 0.28239 0.24056 0.34489 0.0
H2093 H 0.28276 0.22347 0.36771 0.0
H2094 H 0.28458 0.26545 0.39985 0.0
H2095 H 0.28501 0.28255 0.37696 0.0
H2096 H 0.3035 0.24624 0.4107 0.0
H2097 H 0.24935 0.23965 0.39208 0.0
H2098 H 0.22726 0.23378 0.37263 0.0
H2099 H 0.24125 0.1859 0.36437 0.0
H2100 H 0.26357 0.19156 0.38362 0.0
H2101 H 0.26948 0.20444 0.4781 0.0
H2102 H 0.27358 0.22166 0.45542 0.0
H2103 H 0.29211 0.18267 0.42781 0.0
H2104 H 0.2885 0.16549 0.45055 0.0
H2105 H 0.26357 0.19974 0.41492 0.0
H2106 H 0.31778 0.20781 0.43554 0.0
H2107 H 0.33808 0.21487 0.45662 0.0
H2108 H 0.32116 0.26176 0.46306 0.0
H2109 H 0.30058 0.25489 0.44217 0.0
C2110 C 0.28282 0.24607 0.35685 0.0
C2111 C 0.28359 0.26281 0.35924 0.0
C2112 C 0.28297 0.23633 0.36989 0.0
C2113 C 0.28341 0.24313 0.38556 0.0
C2114 C 0.28424 0.2599 0.3879 0.0
C2115 C 0.28444 0.26965 0.37486 0.0
C2116 C 0.28308 0.2328 0.39949 0.0
C2117 C 0.29464 0.23619 0.41166 0.0
C2118 C 0.27165 0.21954 0.40075 0.0
C2119 C 0.25823 0.21609 0.38917 0.0
C2120 C 0.24779 0.22791 0.38602 0.0
C2121 C 0.23521 0.22461 0.37505 0.0
C2122 C 0.23288 0.20949 0.36723 0.0
C2123 C 0.24309 0.19762 0.37041 0.0
C2124 C 0.2557 0.20086 0.38136 0.0
C2125 C 0.27468 0.19962 0.46729 0.0
C2126 C 0.27867 0.18363 0.46608 0.0
C2127 C 0.27701 0.20946 0.45439 0.0
C2128 C 0.28311 0.20337 0.44002 0.0
C2129 C 0.28742 0.18754 0.43886 0.0
C2130 C 0.28542 0.17779 0.45187 0.0
C2131 C 0.28395 0.21323 0.4259 0.0
C2132 C 0.27244 0.20977 0.4138 0.0
C2133 C 0.29515 0.22661 0.42489 0.0
C2134 C 0.30753 0.23076 0.43742 0.0
C2135 C 0.31827 0.21956 0.44157 0.0
C2136 C 0.32986 0.22355 0.45346 0.0
C2137 C 0.33088 0.23874 0.46121 0.0
C2138 C 0.32034 0.24999 0.45706 0.0
C2139 C 0.30872 0.24606 0.44519 0.0
H2140 H 0.33986 0.2418 0.47041 0.0
H2141 H 0.22313 0.20696 0.35874 0.0
H2142 H 0.48492 0.46179 0.88378 0.0
H2143 H 0.46516 0.47053 0.86516 0.0
H2144 H 0.4965 0.51242 0.85619 0.0
H2145 H 0.51629 0.50371 0.87466 0.0
H2146 H 0.44868 0.49606 0.86502 0.0
H2147 H 0.49259 0.52232 0.81791 0.0
H2148 H 0.51907 0.51752 0.8069 0.0
H2149 H 0.51301 0.46843 0.81972 0.0
H2150 H 0.48641 0.47287 0.8306 0.0
H2151 H 0.40666 0.54388 0.81447 0.0
H2152 H 0.42605 0.53392 0.83267 0.0
H2153 H 0.43759 0.49834 0.79653 0.0
H2154 H 0.41881 0.50873 0.77809 0.0
H2155 H 0.46347 0.5097 0.80987 0.0
H2156 H 0.41279 0.4896 0.8298 0.0
H2157 H 0.38535 0.49122 0.83976 0.0
H2158 H 0.40315 0.52209 0.87934 0.0
H2159 H 0.43069 0.52081 0.86951 0.0
C2160 C 0.48756 0.47288 0.87786 0.0
C2161 C 0.50221 0.482 0.88059 0.0
C2162 C 0.47628 0.47786 0.86723 0.0
C2163 C 0.47942 0.49204 0.85914 0.0
C2164 C 0.49394 0.50128 0.86204 0.0
C2165 C 0.50525 0.49626 0.87258 0.0
C2166 C 0.46753 0.49724 0.84771 0.0
C2167 C 0.4519 0.49903 0.85295 0.0
C2168 C 0.47164 0.50081 0.83187 0.0
C2169 C 0.48757 0.49799 0.82522 0.0
C2170 C 0.49688 0.51049 0.81833 0.0
C2171 C 0.51192 0.50783 0.81211 0.0
C2172 C 0.51774 0.49269 0.81266 0.0
C2173 C 0.50851 0.48016 0.81937 0.0
C2174 C 0.49347 0.48275 0.82558 0.0
C2175 C 0.41335 0.53395 0.81042 0.0
C2176 C 0.4112 0.52707 0.79486 0.0
C2177 C 0.42437 0.52819 0.82086 0.0
C2178 C 0.43312 0.51518 0.81609 0.0
C2179 C 0.43102 0.50839 0.80051 0.0
C2180 C 0.42025 0.51433 0.78998 0.0
C2181 C 0.4446 0.50871 0.8272 0.0
C2182 C 0.4602 0.50672 0.82193 0.0
C2183 C 0.44032 0.5045 0.84285 0.0
C2184 C 0.42378 0.50522 0.84884 0.0
C2185 C 0.41084 0.49681 0.84057 0.0
C2186 C 0.39527 0.49766 0.8462 0.0
C2187 C 0.3925 0.50678 0.86015 0.0
C2188 C 0.40531 0.51504 0.86853 0.0
C2189 C 0.4209 0.51425 0.86294 0.0
H2190 H 0.38044 0.50743 0.86449 0.0
H2191 H 0.52938 0.49066 0.80785 0.0
H2192 H 0.74916 0.74663 0.17471 0.0
H2193 H 0.7536 0.72823 0.1519 0.0
H2194 H 0.71346 0.74514 0.12719 0.0
H2195 H 0.70905 0.76366 0.14981 0.0
H2196 H 0.71334 0.7127 0.12441 0.0
H2197 H 0.75133 0.75837 0.11828 0.0
H2198 H 0.77354 0.77801 0.12683 0.0
H2199 H 0.80423 0.73991 0.13204 0.0
H2200 H 0.78211 0.72001 0.12373 0.0
H2201 H 0.72569 0.69235 0.04359 0.0
H2202 H 0.72249 0.70578 0.06963 0.0
H2203 H 0.76439 0.68527 0.08716 0.0
H2204 H 0.76783 0.67188 0.06089 0.0
H2205 H 0.76481 0.71681 0.09554 0.0
H2206 H 0.72743 0.67126 0.09894 0.0
H2207 H 0.70522 0.65176 0.0901 0.0
H2208 H 0.67337 0.68942 0.08995 0.0
H2209 H 0.69545 0.70919 0.09858 0.0
C2210 C 0.74133 0.74649 0.16438 0.0
C2211 C 0.72877 0.75666 0.16407 0.0
C2212 C 0.74386 0.73594 0.15138 0.0
C2213 C 0.73394 0.73542 0.1378 0.0
C2214 C 0.72122 0.74531 0.13758 0.0
C2215 C 0.71868 0.75586 0.15055 0.0
C2216 C 0.73691 0.72481 0.12365 0.0
C2217 C 0.72455 0.71366 0.11802 0.0
C2218 C 0.75171 0.72574 0.11561 0.0
C2219 C 0.76502 0.73769 0.12057 0.0
C2220 C 0.76277 0.75417 0.12138 0.0
C2221 C 0.77535 0.76535 0.12616 0.0
C2222 C 0.79027 0.76021 0.13002 0.0
C2223 C 0.79266 0.74387 0.12907 0.0
C2224 C 0.78011 0.73264 0.12432 0.0
C2225 C 0.7342 0.69059 0.05298 0.0
C2226 C 0.74701 0.68101 0.05017 0.0
C2227 C 0.7323 0.69823 0.06791 0.0
C2228 C 0.74306 0.69635 0.08042 0.0
C2229 C 0.7559 0.68681 0.07768 0.0
C2230 C 0.75783 0.67915 0.06269 0.0
C2231 C 0.74112 0.70489 0.09611 0.0
C2232 C 0.75367 0.71566 0.10203 0.0
C2233 C 0.72649 0.7036 0.10443 0.0
C2234 C 0.71314 0.69173 0.09931 0.0
C2235 C 0.71572 0.67541 0.09692 0.0
C2236 C 0.70314 0.6643 0.09196 0.0
C2237 C 0.6879 0.66935 0.08943 0.0
C2238 C 0.68519 0.68552 0.0919 0.0
C2239 C 0.69773 0.69668 0.09685 0.0
H2240 H 0.67818 0.66073 0.08559 0.0
H2241 H 0.8 0.76889 0.13372 0.0
H2242 H 0.99917 0.08718 0.13083 0.0
H2243 H 0.97592 0.08384 0.1478 0.0
H2244 H 0.99357 0.12519 0.17727 0.0
H2245 H 0.01749 0.12808 0.16074 0.0
H2246 H 0.9837 0.10231 0.19542 0.0
H2247 H 0.96027 0.12618 0.15221 0.0
H2248 H 0.95388 0.13096 0.12421 0.0
H2249 H 0.93028 0.08365 0.11831 0.0
H2250 H 0.93672 0.07848 0.14622 0.0
H2251 H 0.9105 0.08697 0.23819 0.0
H2252 H 0.92897 0.10215 0.22081 0.0
H2253 H 0.93053 0.06031 0.189 0.0
H2254 H 0.91243 0.04506 0.20639 0.0
H2255 H 0.9288 0.09036 0.1734 0.0
H2256 H 0.9581 0.06607 0.21557 0.0
H2257 H 0.96441 0.06212 0.2438 0.0
H2258 H 0.97642 0.11269 0.25166 0.0
H2259 H 0.96995 0.11694 0.2235 0.0
C2260 C 0.99822 0.09553 0.14097 0.0
C2261 C 0.01031 0.10782 0.14448 0.0
C2262 C 0.98474 0.09377 0.15054 0.0
C2263 C 0.98281 0.10444 0.16368 0.0
C2264 C 0.99473 0.11688 0.16713 0.0
C2265 C 0.00835 0.11858 0.15761 0.0
C2266 C 0.96883 0.10177 0.1743 0.0
C2267 C 0.97164 0.10014 0.19064 0.0
C2268 C 0.95305 0.09888 0.16813 0.0
C2269 C 0.94905 0.10192 0.15132 0.0
C2270 C 0.9538 0.11675 0.14493 0.0
C2271 C 0.95016 0.11954 0.12907 0.0
C2272 C 0.94169 0.10761 0.11948 0.0
C2273 C 0.93683 0.09288 0.12575 0.0
C2274 C 0.94045 0.09003 0.1416 0.0
C2275 C 0.91456 0.08114 0.22733 0.0
C2276 C 0.91014 0.06483 0.22367 0.0
C2277 C 0.92511 0.08979 0.21746 0.0
C2278 C 0.93112 0.0823 0.20368 0.0
C2279 C 0.92597 0.0663 0.19956 0.0
C2280 C 0.91571 0.05759 0.20954 0.0
C2281 C 0.94388 0.09044 0.19422 0.0
C2282 C 0.94081 0.09304 0.17815 0.0
C2283 C 0.95937 0.09444 0.20065 0.0
C2284 C 0.96334 0.09185 0.21752 0.0
C2285 C 0.96195 0.07636 0.22336 0.0
C2286 C 0.96558 0.07406 0.23933 0.0
C2287 C 0.97076 0.08716 0.24953 0.0
C2288 C 0.97236 0.10256 0.24376 0.0
C2289 C 0.96872 0.10492 0.2278 0.0
H2290 H 0.97357 0.08535 0.26189 0.0
H2291 H 0.93889 0.10979 0.10721 0.0
H2292 H 0.25326 0.80831 0.19632 0.0
H2293 H 0.24841 0.8287 0.17715 0.0
H2294 H 0.27631 0.80423 0.14208 0.0
H2295 H 0.28121 0.78394 0.16112 0.0
H2296 H 0.28359 0.83754 0.14439 0.0
H2297 H 0.23696 0.79892 0.14028 0.0
H2298 H 0.2134 0.78378 0.15112 0.0
H2299 H 0.19348 0.82786 0.16538 0.0
H2300 H 0.21705 0.84326 0.1548 0.0
H2301 H 0.2643 0.85672 0.06761 0.0
H2302 H 0.26819 0.84418 0.0927 0.0
H2303 H 0.23338 0.87293 0.1151 0.0
H2304 H 0.22913 0.88543 0.08968 0.0
H2305 H 0.22889 0.84246 0.12333 0.0
H2306 H 0.27312 0.88121 0.12366 0.0
H2307 H 0.29652 0.89679 0.11309 0.0
H2308 H 0.32107 0.8539 0.10693 0.0
H2309 H 0.29772 0.83801 0.11725 0.0
C2310 C 0.25843 0.80739 0.18455 0.0
C2311 C 0.26752 0.79452 0.18014 0.0
C2312 C 0.2556 0.81898 0.17362 0.0
C2313 C 0.26196 0.81791 0.1582 0.0
C2314 C 0.27132 0.80526 0.15393 0.0
C2315 C 0.274 0.79363 0.16476 0.0
C2316 C 0.25867 0.82966 0.14623 0.0
C2317 C 0.27165 0.83863 0.13974 0.0
C2318 C 0.24301 0.8315 0.14065 0.0
C2319 C 0.22885 0.82223 0.14694 0.0
C2320 C 0.22762 0.80538 0.14586 0.0
C2321 C 0.21426 0.79675 0.15193 0.0
C2322 C 0.20198 0.80485 0.15899 0.0
C2323 C 0.20302 0.8216 0.15994 0.0
C2324 C 0.21637 0.83028 0.15391 0.0
C2325 C 0.25748 0.86047 0.07785 0.0
C2326 C 0.24645 0.87214 0.07666 0.0
C2327 C 0.2598 0.85334 0.09225 0.0
C2328 C 0.25132 0.85784 0.10588 0.0
C2329 C 0.24014 0.86937 0.10475 0.0
C2330 C 0.23774 0.8765 0.09024 0.0
C2331 C 0.25391 0.84995 0.12104 0.0
C2332 C 0.24081 0.84171 0.12817 0.0
C2333 C 0.26947 0.8489 0.12733 0.0
C2334 C 0.28361 0.8584 0.12117 0.0
C2335 C 0.28346 0.87508 0.11996 0.0
C2336 C 0.29673 0.88397 0.11402 0.0
C2337 C 0.31027 0.87634 0.10932 0.0
C2338 C 0.31057 0.8598 0.11058 0.0
C2339 C 0.29733 0.85084 0.1165 0.0
H2340 H 0.32052 0.88324 0.10472 0.0
H2341 H 0.19164 0.79815 0.16367 0.0
H2342 H 0.99087 0.44162 0.13131 0.0
H2343 H 0.01264 0.44698 0.15097 0.0
H2344 H 0.99539 0.493 0.16362 0.0
H2345 H 0.97369 0.48777 0.14399 0.0
H2346 H 0.02812 0.49418 0.1564 0.0
H2347 H 0.98963 0.46398 0.18835 0.0
H2348 H 0.97163 0.44037 0.19433 0.0
H2349 H 0.01128 0.41095 0.19297 0.0
H2350 H 0.02949 0.43437 0.18675 0.0
H2351 H 0.06571 0.52307 0.2271 0.0
H2352 H 0.0471 0.51266 0.20613 0.0
H2353 H 0.06837 0.4674 0.20486 0.0
H2354 H 0.08701 0.47771 0.22634 0.0
H2355 H 0.03631 0.46295 0.20415 0.0
H2356 H 0.07535 0.49297 0.17485 0.0
H2357 H 0.09383 0.5161 0.16849 0.0
H2358 H 0.05422 0.54502 0.16377 0.0
H2359 H 0.0355 0.52214 0.17033 0.0
C2360 C 0.99169 0.45283 0.13838 0.0
C2361 C 0.98061 0.4643 0.13615 0.0
C2362 C 0.00406 0.45583 0.14962 0.0
C2363 C 0.00558 0.47037 0.15871 0.0
C2364 C 0.99439 0.48171 0.15669 0.0
C2365 C 0.98194 0.47866 0.14558 0.0
C2366 C 0.01922 0.47419 0.16985 0.0
C2367 C 0.02986 0.48745 0.16692 0.0
C2368 C 0.02183 0.46494 0.18315 0.0
C2369 C 0.01089 0.45088 0.18689 0.0
C2370 C 0.99448 0.45245 0.18917 0.0
C2371 C 0.98425 0.43911 0.19264 0.0
C2372 C 0.9903 0.42416 0.19398 0.0
C2373 C 0.0066 0.42253 0.19189 0.0
C2374 C 0.01689 0.43583 0.18841 0.0
C2375 C 0.06656 0.51092 0.22234 0.0
C2376 C 0.07791 0.50124 0.22834 0.0
C2377 C 0.05592 0.50501 0.21027 0.0
C2378 C 0.05652 0.48935 0.20373 0.0
C2379 C 0.06778 0.47956 0.2097 0.0
C2380 C 0.07844 0.48548 0.22191 0.0
C2381 C 0.04496 0.48329 0.19098 0.0
C2382 C 0.03474 0.46958 0.19353 0.0
C2383 C 0.04282 0.49202 0.1772 0.0
C2384 C 0.05402 0.50584 0.17318 0.0
C2385 C 0.07058 0.50429 0.17257 0.0
C2386 C 0.0811 0.51736 0.16891 0.0
C2387 C 0.0752 0.53203 0.16575 0.0
C2388 C 0.05877 0.53365 0.16622 0.0
C2389 C 0.0482 0.52063 0.16988 0.0
H2390 H 0.08336 0.54213 0.16293 0.0
H2391 H 0.98235 0.41384 0.19667 0.0
H2392 H 0.35275 0.71435 0.28766 0.0
H2393 H 0.37746 0.71547 0.30345 0.0
H2394 H 0.39312 0.76052 0.28358 0.0
H2395 H 0.36854 0.75935 0.26752 0.0
H2396 H 0.41725 0.73973 0.28478 0.0
H2397 H 0.37744 0.76045 0.31973 0.0
H2398 H 0.35161 0.75955 0.33362 0.0
H2399 H 0.36327 0.71746 0.35701 0.0
H2400 H 0.38911 0.71798 0.34307 0.0
H2401 H 0.47406 0.77497 0.34096 0.0
H2402 H 0.45212 0.76726 0.32234 0.0
H2403 H 0.4393 0.72532 0.34878 0.0
H2404 H 0.46112 0.73313 0.36775 0.0
H2405 H 0.414 0.74139 0.34386 0.0
H2406 H 0.45501 0.72206 0.31105 0.0
H2407 H 0.48091 0.72288 0.29729 0.0
H2408 H 0.46734 0.76173 0.26993 0.0
H2409 H 0.44144 0.7613 0.28369 0.0
C2410 C 0.36154 0.72441 0.28653 0.0
C2411 C 0.3587 0.73679 0.27639 0.0
C2412 C 0.37559 0.72507 0.29562 0.0
C2413 C 0.38704 0.73813 0.29475 0.0
C2414 C 0.38441 0.75035 0.28441 0.0
C2415 C 0.37032 0.74973 0.27537 0.0
C2416 C 0.40157 0.73932 0.30498 0.0
C2417 C 0.41659 0.74023 0.2977 0.0
C2418 C 0.40063 0.73945 0.32181 0.0
C2419 C 0.38512 0.73915 0.33022 0.0
C2420 C 0.37444 0.75092 0.32773 0.0
C2421 C 0.35981 0.7505 0.33563 0.0
C2422 C 0.35578 0.73843 0.34615 0.0
C2423 C 0.3664 0.72678 0.34883 0.0
C2424 C 0.38104 0.72714 0.34094 0.0
C2425 C 0.46675 0.76397 0.34272 0.0
C2426 C 0.4693 0.75472 0.35592 0.0
C2427 C 0.45424 0.75952 0.33198 0.0
C2428 C 0.44412 0.74565 0.33409 0.0
C2429 C 0.44697 0.73607 0.34692 0.0
C2430 C 0.45948 0.74053 0.35772 0.0
C2431 C 0.4298 0.742 0.3237 0.0
C2432 C 0.41475 0.74067 0.33094 0.0
C2433 C 0.43075 0.74142 0.30684 0.0
C2434 C 0.44631 0.74172 0.2985 0.0
C2435 C 0.45759 0.73086 0.30219 0.0
C2436 C 0.47227 0.73124 0.29437 0.0
C2437 C 0.47578 0.74237 0.28276 0.0
C2438 C 0.4646 0.75312 0.27893 0.0
C2439 C 0.44991 0.7528 0.28672 0.0
H2440 H 0.48714 0.74265 0.27672 0.0
H2441 H 0.34445 0.73812 0.35227 0.0
H2442 H 0.91907 0.38069 0.01648 0.0
H2443 H 0.92671 0.36029 0.99667 0.0
H2444 H 0.95863 0.39568 0.97496 0.0
H2445 H 0.95086 0.41614 0.99453 0.0
H2446 H 0.94253 0.37506 0.95261 0.0
H2447 H 0.97305 0.37207 0.00126 0.0
H2448 H 0.97644 0.3693 0.0302 0.0
H2449 H 0.95017 0.32314 0.02652 0.0
H2450 H 0.94643 0.32574 0.99758 0.0
H2451 H 0.99629 0.32643 0.91222 0.0
H2452 H 0.98433 0.34621 0.9298 0.0
H2453 H 0.95639 0.30824 0.95225 0.0
H2454 H 0.96849 0.28839 0.93499 0.0
H2455 H 0.96886 0.3295 0.974 0.0
H2456 H 0.93952 0.33155 0.92515 0.0
H2457 H 0.93591 0.3342 0.89623 0.0
H2458 H 0.95937 0.38169 0.90009 0.0
H2459 H 0.96333 0.37924 0.92901 0.0
C2460 C 0.92746 0.38417 0.00727 0.0
C2461 C 0.9345 0.39994 0.00712 0.0
C2462 C 0.93189 0.3725 0.99605 0.0
C2463 C 0.9434 0.37645 0.98451 0.0
C2464 C 0.94978 0.39238 0.9838 0.0
C2465 C 0.94541 0.40401 0.99505 0.0
C2466 C 0.94963 0.36387 0.97382 0.0
C2467 C 0.94839 0.36515 0.95725 0.0
C2468 C 0.95699 0.3508 0.97992 0.0
C2469 C 0.95931 0.34918 0.9973 0.0
C2470 C 0.96789 0.36138 0.00665 0.0
C2471 C 0.96989 0.35984 0.02304 0.0
C2472 C 0.96348 0.34607 0.0302 0.0
C2473 C 0.9551 0.3338 0.02096 0.0
C2474 C 0.95304 0.33531 0.00456 0.0
C2475 C 0.98762 0.32228 0.92091 0.0
C2476 C 0.98333 0.30582 0.92217 0.0
C2477 C 0.98072 0.33361 0.93089 0.0
C2478 C 0.96929 0.32871 0.94218 0.0
C2479 C 0.96515 0.31229 0.9436 0.0
C2480 C 0.97209 0.30097 0.93369 0.0
C2481 C 0.96183 0.34066 0.95273 0.0
C2482 C 0.96288 0.3393 0.9693 0.0
C2483 C 0.95425 0.35362 0.94661 0.0
C2484 C 0.95185 0.35515 0.92922 0.0
C2485 C 0.94402 0.34251 0.91981 0.0
C2486 C 0.94189 0.34398 0.90342 0.0
C2487 C 0.94744 0.35809 0.89632 0.0
C2488 C 0.95509 0.37076 0.9056 0.0
C2489 C 0.95727 0.36934 0.922 0.0
H2490 H 0.94578 0.3592 0.88363 0.0
H2491 H 0.96504 0.34489 0.04289 0.0
H2492 H 0.66896 0.79211 0.30253 0.0
H2493 H 0.64741 0.78978 0.32215 0.0
H2494 H 0.6178 0.8159 0.29218 0.0
H2495 H 0.63922 0.81819 0.27253 0.0
H2496 H 0.61846 0.82645 0.32508 0.0
H2497 H 0.61096 0.77738 0.29179 0.0
H2498 H 0.61962 0.75231 0.27928 0.0
H2499 H 0.62909 0.73512 0.32553 0.0
H2500 H 0.62069 0.76021 0.33831 0.0
H2501 H 0.53958 0.81135 0.35033 0.0
H2502 H 0.56492 0.81447 0.33647 0.0
H2503 H 0.58418 0.7797 0.366 0.0
H2504 H 0.55849 0.7761 0.37964 0.0
H2505 H 0.59141 0.77344 0.33642 0.0
H2506 H 0.59649 0.82067 0.37023 0.0
H2507 H 0.5885 0.84569 0.38344 0.0
H2508 H 0.58484 0.86653 0.33793 0.0
H2509 H 0.59258 0.84156 0.32441 0.0
C2510 C 0.65786 0.79739 0.30019 0.0
C2511 C 0.6557 0.80526 0.286 0.0
C2512 C 0.64558 0.79602 0.31136 0.0
C2513 C 0.63103 0.80264 0.30856 0.0
C2514 C 0.62895 0.81072 0.29453 0.0
C2515 C 0.64113 0.81191 0.28329 0.0
C2516 C 0.6178 0.80098 0.3201 0.0
C2517 C 0.61245 0.81489 0.32752 0.0
C2518 C 0.6104 0.78584 0.32367 0.0
C2519 C 0.61539 0.77075 0.31599 0.0
C2520 C 0.61503 0.76832 0.29929 0.0
C2521 C 0.61986 0.75409 0.29215 0.0
C2522 C 0.62495 0.74215 0.3016 0.0
C2523 C 0.62517 0.7444 0.31822 0.0
C2524 C 0.62037 0.75861 0.32542 0.0
C2525 C 0.54924 0.80448 0.35403 0.0
C2526 C 0.54703 0.7935 0.36612 0.0
C2527 C 0.5638 0.80635 0.34614 0.0
C2528 C 0.57659 0.79752 0.35034 0.0
C2529 C 0.5745 0.78669 0.36258 0.0
C2530 C 0.55984 0.78468 0.3704 0.0
C2531 C 0.59175 0.79899 0.34125 0.0
C2532 C 0.59751 0.78503 0.33425 0.0
C2533 C 0.59965 0.8141 0.33822 0.0
C2534 C 0.59502 0.82919 0.3463 0.0
C2535 C 0.59387 0.83055 0.36302 0.0
C2536 C 0.5894 0.84473 0.37057 0.0
C2537 C 0.58614 0.85768 0.36153 0.0
C2538 C 0.58737 0.85649 0.34492 0.0
C2539 C 0.59182 0.84233 0.33731 0.0
H2540 H 0.58268 0.86865 0.3674 0.0
H2541 H 0.62868 0.73114 0.29605 0.0
H2542 H 0.07793 0.1851 0.03487 0.0
H2543 H 0.07017 0.20088 0.01268 0.0
H2544 H 0.04987 0.1578 0.98763 0.0
H2545 H 0.05721 0.14201 0.0098 0.0
H2546 H 0.06633 0.17839 0.96743 0.0
H2547 H 0.02616 0.18014 0.00861 0.0
H2548 H 0.01676 0.18548 0.036 0.0
H2549 H 0.03418 0.23493 0.03405 0.0
H2550 H 0.0439 0.22982 0.00671 0.0
H2551 H 0.99491 0.22083 0.93502 0.0
H2552 H 0.00838 0.20593 0.95461 0.0
H2553 H 0.05413 0.22627 0.939 0.0
H2554 H 0.04068 0.24128 0.91919 0.0
H2555 H 0.02688 0.21828 0.97948 0.0
H2556 H 0.08145 0.19747 0.94548 0.0
H2557 H 0.08953 0.19072 0.91789 0.0
H2558 H 0.04059 0.17714 0.90486 0.0
H2559 H 0.03226 0.1836 0.93241 0.0
C2560 C 0.07182 0.17898 0.02464 0.0
C2561 C 0.06812 0.16228 0.02418 0.0
C2562 C 0.0675 0.188 0.01193 0.0
C2563 C 0.05939 0.1805 0.99856 0.0
C2564 C 0.05623 0.1638 0.99779 0.0
C2565 C 0.06047 0.15479 0.01049 0.0
C2566 C 0.05308 0.19007 0.98589 0.0
C2567 C 0.05781 0.18723 0.97006 0.0
C2568 C 0.04185 0.20145 0.98932 0.0
C2569 C 0.03591 0.20456 0.0057 0.0
C2570 C 0.0281 0.19212 0.01407 0.0
C2571 C 0.02269 0.19511 0.02958 0.0
C2572 C 0.02491 0.21053 0.03678 0.0
C2573 C 0.0325 0.22299 0.02847 0.0
C2574 C 0.03795 0.22006 0.01297 0.0
C2575 C 0.00785 0.22205 0.93561 0.0
C2576 C 0.01673 0.23229 0.92557 0.0
C2577 C 0.01552 0.21357 0.94687 0.0
C2578 C 0.03223 0.21503 0.9483 0.0
C2579 C 0.04121 0.22491 0.93803 0.0
C2580 C 0.03351 0.23347 0.92673 0.0
C2581 C 0.04004 0.20657 0.96096 0.0
C2582 C 0.0356 0.20965 0.97684 0.0
C2583 C 0.05137 0.19528 0.95752 0.0
C2584 C 0.05623 0.19121 0.94095 0.0
C2585 C 0.07243 0.19301 0.93673 0.0
C2586 C 0.07705 0.18924 0.9211 0.0
C2587 C 0.06557 0.18357 0.90961 0.0
C2588 C 0.04946 0.1816 0.91375 0.0
C2589 C 0.04478 0.18535 0.92936 0.0
H2590 H 0.06917 0.18066 0.89752 0.0
H2591 H 0.02072 0.21282 0.04878 0.0
H2592 H 0.34955 0.33427 0.22817 0.0
H2593 H 0.3735 0.33346 0.21173 0.0
H2594 H 0.39279 0.30073 0.24352 0.0
H2595 H 0.3689 0.30139 0.25992 0.0
H2596 H 0.41536 0.32365 0.23518 0.0
H2597 H 0.37523 0.28716 0.20853 0.0
H2598 H 0.349 0.27939 0.19581 0.0
H2599 H 0.35838 0.31464 0.16085 0.0
H2600 H 0.38459 0.32277 0.17351 0.0
H2601 H 0.47175 0.2854 0.18773 0.0
H2602 H 0.4495 0.29279 0.20435 0.0
H2603 H 0.43503 0.32407 0.1685 0.0
H2604 H 0.45718 0.31659 0.15164 0.0
H2605 H 0.4102 0.30494 0.17823 0.0
H2606 H 0.45168 0.33961 0.2035 0.0
H2607 H 0.47801 0.34694 0.21616 0.0
H2608 H 0.46636 0.315 0.25363 0.0
H2609 H 0.44003 0.3073 0.24108 0.0
C2610 C 0.35887 0.32686 0.23162 0.0
C2611 C 0.35731 0.31785 0.24532 0.0
C2612 C 0.37256 0.32645 0.22225 0.0
C2613 C 0.38485 0.31693 0.22635 0.0
C2614 C 0.38347 0.3082 0.24019 0.0
C2615 C 0.36982 0.30862 0.24957 0.0
C2616 C 0.399 0.31567 0.21603 0.0
C2617 C 0.41426 0.31946 0.22276 0.0
C2618 C 0.39752 0.3106 0.19971 0.0
C2619 C 0.38178 0.3057 0.19208 0.0
C2620 C 0.37164 0.29334 0.19821 0.0
C2621 C 0.35679 0.28886 0.191 0.0
C2622 C 0.35201 0.29655 0.17756 0.0
C2623 C 0.36209 0.30871 0.17128 0.0
C2624 C 0.37694 0.31326 0.17846 0.0
C2625 C 0.46395 0.29397 0.18342 0.0
C2626 C 0.46624 0.30037 0.16833 0.0
C2627 C 0.45127 0.29825 0.19298 0.0
C2628 C 0.44069 0.30909 0.18772 0.0
C2629 C 0.44308 0.31571 0.17279 0.0
C2630 C 0.45577 0.31144 0.1632 0.0
C2631 C 0.42661 0.31272 0.19742 0.0
C2632 C 0.41134 0.30935 0.19059 0.0
C2633 C 0.42811 0.31815 0.21364 0.0
C2634 C 0.44392 0.32278 0.22127 0.0
C2635 C 0.45477 0.33405 0.21437 0.0
C2636 C 0.46969 0.33829 0.22154 0.0
C2637 C 0.47386 0.33141 0.23567 0.0
C2638 C 0.46311 0.32031 0.24268 0.0
C2639 C 0.44818 0.31602 0.23555 0.0
H2640 H 0.48542 0.33471 0.24121 0.0
H2641 H 0.34051 0.29306 0.17199 0.0
H2642 H 0.53723 0.42162 0.01259 0.0
H2643 H 0.53392 0.40391 0.03483 0.0
H2644 H 0.55824 0.36787 0.00835 0.0
H2645 H 0.56135 0.38546 0.98587 0.0
H2646 H 0.53116 0.35531 0.02143 0.0
H2647 H 0.57705 0.3882 0.03919 0.0
H2648 H 0.59364 0.41339 0.0453 0.0
H2649 H 0.5598 0.42758 0.08036 0.0
H2650 H 0.54286 0.40257 0.0743 0.0
H2651 H 0.53948 0.32411 0.1066 0.0
H2652 H 0.55073 0.34101 0.08564 0.0
H2653 H 0.50312 0.34768 0.06891 0.0
H2654 H 0.49186 0.33088 0.08956 0.0
H2655 H 0.54712 0.37237 0.07715 0.0
H2656 H 0.50239 0.34369 0.02888 0.0
H2657 H 0.48711 0.31773 0.02267 0.0
H2658 H 0.52188 0.29353 0.04806 0.0
H2659 H 0.5375 0.3193 0.0542 0.0
C2660 C 0.54179 0.40989 0.01146 0.0
C2661 C 0.54948 0.40489 0.99746 0.0
C2662 C 0.54006 0.39986 0.02425 0.0
C2663 C 0.54601 0.38466 0.02331 0.0
C2664 C 0.55366 0.3796 0.00934 0.0
C2665 C 0.55547 0.38967 0.99655 0.0
C2666 C 0.54347 0.37381 0.03665 0.0
C2667 C 0.53476 0.35899 0.03359 0.0
C2668 C 0.54847 0.37849 0.05246 0.0
C2669 C 0.55863 0.39354 0.05621 0.0
C2670 C 0.57308 0.39674 0.04812 0.0
C2671 C 0.58256 0.41098 0.05159 0.0
C2672 C 0.57776 0.42209 0.06319 0.0
C2673 C 0.56349 0.41896 0.07137 0.0
C2674 C 0.55396 0.40474 0.06794 0.0
C2675 C 0.53143 0.32936 0.09857 0.0
C2676 C 0.51479 0.32603 0.09963 0.0
C2677 C 0.53787 0.33899 0.08662 0.0
C2678 C 0.52775 0.34532 0.07558 0.0
C2679 C 0.51114 0.34266 0.07715 0.0
C2680 C 0.50473 0.33308 0.089 0.0
C2681 C 0.53431 0.35421 0.06194 0.0
C2682 C 0.54373 0.36863 0.06495 0.0
C2683 C 0.5302 0.34907 0.04602 0.0
C2684 C 0.52106 0.33346 0.04209 0.0
C2685 C 0.50683 0.33282 0.03305 0.0
C2686 C 0.4981 0.31814 0.02956 0.0
C2687 C 0.5035 0.304 0.035 0.0
C2688 C 0.51768 0.3045 0.04389 0.0
C2689 C 0.52647 0.31914 0.04739 0.0
H2690 H 0.49671 0.29265 0.03231 0.0
H2691 H 0.58512 0.43311 0.06586 0.0
H2692 H 0.66765 0.24787 0.22436 0.0
H2693 H 0.64633 0.2515 0.2051 0.0
H2694 H 0.62346 0.28111 0.24019 0.0
H2695 H 0.64484 0.27774 0.25932 0.0
H2696 H 0.61617 0.24273 0.20539 0.0
H2697 H 0.60296 0.3085 0.22323 0.0
H2698 H 0.6178 0.33382 0.23262 0.0
H2699 H 0.66076 0.31809 0.21167 0.0
H2700 H 0.64613 0.29277 0.20194 0.0
H2701 H 0.53752 0.2562 0.18647 0.0
H2702 H 0.56346 0.25491 0.19927 0.0
H2703 H 0.58492 0.28778 0.16604 0.0
H2704 H 0.55874 0.28946 0.15333 0.0
H2705 H 0.59612 0.29544 0.19504 0.0
H2706 H 0.59053 0.24757 0.16227 0.0
H2707 H 0.57726 0.22236 0.15057 0.0
H2708 H 0.57511 0.2026 0.19686 0.0
H2709 H 0.58817 0.22778 0.20888 0.0
C2710 C 0.65809 0.2552 0.22791 0.0
C2711 C 0.65793 0.26258 0.24331 0.0
C2712 C 0.64594 0.25729 0.2169 0.0
C2713 C 0.63339 0.26675 0.2211 0.0
C2714 C 0.63321 0.27409 0.23651 0.0
C2715 C 0.64542 0.27213 0.24746 0.0
C2716 C 0.62001 0.2683 0.20975 0.0
C2717 C 0.61187 0.25426 0.20305 0.0
C2718 C 0.6146 0.28337 0.20633 0.0
C2719 C 0.62345 0.29867 0.21196 0.0
C2720 C 0.61555 0.31047 0.22055 0.0
C2721 C 0.62393 0.32482 0.22595 0.0
C2722 C 0.64022 0.32755 0.22278 0.0
C2723 C 0.64815 0.31594 0.21416 0.0
C2724 C 0.63982 0.30158 0.20872 0.0
C2725 C 0.54774 0.26316 0.18183 0.0
C2726 C 0.54609 0.27287 0.16882 0.0
C2727 C 0.5626 0.26234 0.18913 0.0
C2728 C 0.57621 0.27101 0.18344 0.0
C2729 C 0.57459 0.28092 0.17058 0.0
C2730 C 0.55964 0.28185 0.16332 0.0
C2731 C 0.592 0.26984 0.1912 0.0
C2732 C 0.60057 0.28393 0.19723 0.0
C2733 C 0.59805 0.25484 0.19366 0.0
C2734 C 0.59025 0.23962 0.18649 0.0
C2735 C 0.58714 0.23789 0.16997 0.0
C2736 C 0.57966 0.2236 0.16328 0.0
C2737 C 0.57532 0.2109 0.17297 0.0
C2738 C 0.57848 0.21245 0.18937 0.0
C2739 C 0.58594 0.22672 0.19612 0.0
H2740 H 0.56953 0.19984 0.16776 0.0
H2741 H 0.64669 0.33866 0.22698 0.0
H2742 H 0.47353 0.1542 0.0004 0.0
H2743 H 0.47951 0.1768 0.01941 0.0
H2744 H 0.45459 0.15074 0.05611 0.0
H2745 H 0.44738 0.12865 0.03686 0.0
H2746 H 0.4476 0.17964 0.05885 0.0
H2747 H 0.49702 0.15531 0.0532 0.0
H2748 H 0.51972 0.14444 0.03898 0.0
H2749 H 0.53252 0.19056 0.02047 0.0
H2750 H 0.50976 0.20166 0.03442 0.0
H2751 H 0.48523 0.22721 0.12465 0.0
H2752 H 0.47873 0.20462 0.10537 0.0
H2753 H 0.48755 0.23595 0.06656 0.0
H2754 H 0.49366 0.25865 0.08569 0.0
H2755 H 0.50303 0.20457 0.06546 0.0
H2756 H 0.4523 0.22803 0.07201 0.0
H2757 H 0.43017 0.23792 0.0879 0.0
H2758 H 0.42086 0.19149 0.10697 0.0
H2759 H 0.44311 0.1814 0.09136 0.0
C2760 C 0.46907 0.15333 0.01243 0.0
C2761 C 0.46002 0.13949 0.01705 0.0
C2762 C 0.47274 0.1662 0.02339 0.0
C2763 C 0.46781 0.16536 0.03931 0.0
C2764 C 0.45864 0.15165 0.04392 0.0
C2765 C 0.4547 0.13891 0.03291 0.0
C2766 C 0.47202 0.17883 0.05114 0.0
C2767 C 0.45977 0.1849 0.06041 0.0
C2768 C 0.48787 0.1859 0.05311 0.0
C2769 C 0.50159 0.17927 0.04473 0.0
C2770 C 0.50461 0.16311 0.046 0.0
C2771 C 0.5175 0.15691 0.038 0.0
C2772 C 0.52753 0.16679 0.02879 0.0
C2773 C 0.52473 0.18291 0.02759 0.0
C2774 C 0.51184 0.18917 0.03555 0.0
C2775 C 0.48578 0.22926 0.11201 0.0
C2776 C 0.48989 0.24468 0.10666 0.0
C2777 C 0.48206 0.21639 0.10105 0.0
C2778 C 0.48267 0.21871 0.08462 0.0
C2779 C 0.48703 0.234 0.07923 0.0
C2780 C 0.49044 0.24692 0.09016 0.0
C2781 C 0.47863 0.2052 0.073 0.0
C2782 C 0.4909 0.19918 0.06383 0.0
C2783 C 0.4629 0.19798 0.07134 0.0
C2784 C 0.44949 0.20402 0.08067 0.0
C2785 C 0.44564 0.21998 0.07971 0.0
C2786 C 0.43305 0.22561 0.08864 0.0
C2787 C 0.42415 0.21535 0.09848 0.0
C2788 C 0.42779 0.19943 0.09937 0.0
C2789 C 0.44038 0.19375 0.09048 0.0
H2790 H 0.4144 0.21973 0.10538 0.0
H2791 H 0.53751 0.16197 0.02261 0.0
H2792 H 0.27437 0.38905 0.70557 0.0
H2793 H 0.29031 0.41481 0.70782 0.0
H2794 H 0.26699 0.42657 0.75205 0.0
H2795 H 0.25098 0.40085 0.74984 0.0
H2796 H 0.27032 0.45217 0.7338 0.0
H2797 H 0.30404 0.41268 0.75192 0.0
H2798 H 0.31769 0.38767 0.7498 0.0
H2799 H 0.34302 0.40426 0.70868 0.0
H2800 H 0.32934 0.42928 0.71043 0.0
H2801 H 0.32747 0.51097 0.76892 0.0
H2802 H 0.30867 0.48791 0.76196 0.0
H2803 H 0.3342 0.47909 0.71835 0.0
H2804 H 0.35321 0.50201 0.72531 0.0
H2805 H 0.32946 0.45244 0.73444 0.0
H2806 H 0.29699 0.49306 0.71769 0.0
H2807 H 0.28347 0.5181 0.72032 0.0
H2808 H 0.25595 0.49966 0.7593 0.0
H2809 H 0.26947 0.47457 0.75705 0.0
C2810 C 0.27267 0.39711 0.71579 0.0
C2811 C 0.26149 0.39287 0.72758 0.0
C2812 C 0.28175 0.41184 0.71705 0.0
C2813 C 0.27997 0.42253 0.73021 0.0
C2814 C 0.26854 0.41851 0.74178 0.0
C2815 C 0.25939 0.40382 0.7405 0.0
C2816 C 0.29038 0.43767 0.73221 0.0
C2817 C 0.28325 0.45224 0.73408 0.0
C2818 C 0.30725 0.43778 0.73223 0.0
C2819 C 0.31554 0.42277 0.7312 0.0
C2820 C 0.31243 0.41094 0.74235 0.0
C2821 C 0.32019 0.39677 0.74123 0.0
C2822 C 0.33118 0.39436 0.72909 0.0
C2823 C 0.33448 0.40613 0.71806 0.0
C2824 C 0.32674 0.42031 0.71912 0.0
C2825 C 0.32898 0.50427 0.75774 0.0
C2826 C 0.3419 0.50831 0.74771 0.0
C2827 C 0.31816 0.49112 0.75374 0.0
C2828 C 0.31998 0.48182 0.73959 0.0
C2829 C 0.33258 0.4861 0.72933 0.0
C2830 C 0.34341 0.49924 0.73332 0.0
C2831 C 0.30942 0.46699 0.73608 0.0
C2832 C 0.31653 0.45243 0.73399 0.0
C2833 C 0.29255 0.46692 0.73592 0.0
C2834 C 0.28435 0.48198 0.73728 0.0
C2835 C 0.28815 0.49438 0.7269 0.0
C2836 C 0.28046 0.50858 0.72831 0.0
C2837 C 0.26888 0.51049 0.73999 0.0
C2838 C 0.26493 0.49817 0.75026 0.0
C2839 C 0.27259 0.48395 0.74891 0.0
H2840 H 0.26295 0.52149 0.74106 0.0
H2841 H 0.33718 0.38338 0.72824 0.0
H2842 H 0.29239 0.70754 0.78051 0.0
H2843 H 0.31148 0.68679 0.77819 0.0
H2844 H 0.27915 0.65474 0.80362 0.0
H2845 H 0.26 0.67531 0.80581 0.0
H2846 H 0.31218 0.65676 0.81432 0.0
H2847 H 0.27993 0.64919 0.76577 0.0
H2848 H 0.26853 0.65819 0.74089 0.0
H2849 H 0.31577 0.66994 0.72337 0.0
H2850 H 0.32744 0.66121 0.74827 0.0
H2851 H 0.33543 0.57906 0.80021 0.0
H2852 H 0.32208 0.60378 0.80292 0.0
H2853 H 0.35295 0.62471 0.76725 0.0
H2854 H 0.36604 0.59963 0.76404 0.0
H2855 H 0.32393 0.63122 0.76156 0.0
H2856 H 0.35679 0.63654 0.80798 0.0
H2857 H 0.3692 0.62857 0.83279 0.0
H2858 H 0.32304 0.6228 0.85449 0.0
H2859 H 0.31031 0.63052 0.82974 0.0
C2860 C 0.28943 0.69608 0.78565 0.0
C2861 C 0.27472 0.69296 0.79327 0.0
C2862 C 0.30029 0.68426 0.78429 0.0
C2863 C 0.29667 0.66926 0.79072 0.0
C2864 C 0.28214 0.66625 0.7986 0.0
C2865 C 0.27119 0.67795 0.79974 0.0
C2866 C 0.30785 0.6565 0.78901 0.0
C2867 C 0.31471 0.65108 0.80282 0.0
C2868 C 0.31157 0.64956 0.77394 0.0
C2869 C 0.30455 0.65473 0.75896 0.0
C2870 C 0.28788 0.65383 0.75668 0.0
C2871 C 0.28137 0.65886 0.74256 0.0
C2872 C 0.29142 0.66468 0.73058 0.0
C2873 C 0.308 0.66545 0.73268 0.0
C2874 C 0.31457 0.66046 0.74678 0.0
C2875 C 0.3395 0.58896 0.79302 0.0
C2876 C 0.35183 0.5874 0.78194 0.0
C2877 C 0.33191 0.60315 0.79466 0.0
C2878 C 0.33668 0.61626 0.78551 0.0
C2879 C 0.34909 0.6148 0.7745 0.0
C2880 C 0.35659 0.60048 0.7727 0.0
C2881 C 0.32809 0.63112 0.78695 0.0
C2882 C 0.32168 0.63699 0.77309 0.0
C2883 C 0.32499 0.63864 0.80199 0.0
C2884 C 0.33258 0.63401 0.81694 0.0
C2885 C 0.34926 0.63346 0.818 0.0
C2886 C 0.35636 0.629 0.83206 0.0
C2887 C 0.34691 0.62515 0.8452 0.0
C2888 C 0.33034 0.62578 0.8443 0.0
C2889 C 0.32318 0.63022 0.83027 0.0
H2890 H 0.35243 0.6217 0.85607 0.0
H2891 H 0.28636 0.66856 0.71966 0.0
H2892 H 0.88137 0.51535 0.49711 0.0
H2893 H 0.85928 0.49626 0.50418 0.0
H2894 H 0.82809 0.51752 0.47162 0.0
H2895 H 0.8502 0.53677 0.46452 0.0
H2896 H 0.81473 0.51208 0.50215 0.0
H2897 H 0.84124 0.48363 0.46028 0.0
H2898 H 0.8644 0.47292 0.44675 0.0
H2899 H 0.8728 0.44475 0.48694 0.0
H2900 H 0.84982 0.45548 0.50082 0.0
H2901 H 0.75152 0.45084 0.50253 0.0
H2902 H 0.77282 0.4702 0.49443 0.0
H2903 H 0.80701 0.44665 0.52171 0.0
H2904 H 0.78581 0.42702 0.52967 0.0
H2905 H 0.81858 0.45353 0.49316 0.0
H2906 H 0.79318 0.48186 0.5355 0.0
H2907 H 0.77072 0.49274 0.5501 0.0
H2908 H 0.76087 0.52122 0.51054 0.0
H2909 H 0.78316 0.51034 0.4956 0.0
C2910 C 0.86978 0.51601 0.49153 0.0
C2911 C 0.86746 0.52752 0.48028 0.0
C2912 C 0.85722 0.50506 0.49551 0.0
C2913 C 0.84213 0.50546 0.48834 0.0
C2914 C 0.83969 0.51705 0.47724 0.0
C2915 C 0.85231 0.52793 0.47314 0.0
C2916 C 0.82893 0.4937 0.49248 0.0
C2917 C 0.81541 0.49929 0.49997 0.0
C2918 C 0.83012 0.47702 0.49001 0.0
C2919 C 0.84389 0.47048 0.48165 0.0
C2920 C 0.8481 0.47526 0.46629 0.0
C2921 C 0.86118 0.46916 0.45855 0.0
C2922 C 0.87009 0.45819 0.46599 0.0
C2923 C 0.8659 0.45326 0.48119 0.0
C2924 C 0.85284 0.45934 0.489 0.0
C2925 C 0.76356 0.44976 0.50683 0.0
C2926 C 0.76696 0.4374 0.51679 0.0
C2927 C 0.77571 0.46089 0.50223 0.0
C2928 C 0.79145 0.45998 0.50763 0.0
C2929 C 0.79493 0.44757 0.51744 0.0
C2930 C 0.78279 0.43639 0.52199 0.0
C2931 C 0.80434 0.47188 0.50292 0.0
C2932 C 0.81782 0.46633 0.49531 0.0
C2933 C 0.80317 0.48858 0.50543 0.0
C2934 C 0.78975 0.49516 0.51437 0.0
C2935 C 0.78615 0.49034 0.52986 0.0
C2936 C 0.77346 0.49652 0.5382 0.0
C2937 C 0.76436 0.50764 0.53124 0.0
C2938 C 0.76793 0.5126 0.51591 0.0
C2939 C 0.7806 0.50644 0.5075 0.0
H2940 H 0.75459 0.51246 0.53776 0.0
H2941 H 0.88021 0.45348 0.45998 0.0
H2942 H 0.73392 0.88491 0.80087 0.0
H2943 H 0.71303 0.90346 0.79899 0.0
H2944 H 0.68825 0.8717 0.76337 0.0
H2945 H 0.70927 0.853 0.76518 0.0
H2946 H 0.69153 0.90431 0.75536 0.0
H2947 H 0.67256 0.87323 0.79844 0.0
H2948 H 0.67452 0.85978 0.8238 0.0
H2949 H 0.68701 0.90515 0.84855 0.0
H2950 H 0.68537 0.91886 0.8233 0.0
H2951 H 0.63017 0.95921 0.75902 0.0
H2952 H 0.64294 0.93387 0.75906 0.0
H2953 H 0.67217 0.95216 0.79942 0.0
H2954 H 0.65929 0.97718 0.79969 0.0
H2955 H 0.6621 0.92209 0.80329 0.0
H2956 H 0.68592 0.95225 0.76025 0.0
H2957 H 0.68545 0.96625 0.73508 0.0
H2958 H 0.66502 0.9232 0.71055 0.0
H2959 H 0.6652 0.90899 0.73565 0.0
C2960 C 0.72406 0.8819 0.79259 0.0
C2961 C 0.72323 0.86755 0.78313 0.0
C2962 C 0.71207 0.89243 0.79162 0.0
C2963 C 0.69904 0.88886 0.78114 0.0
C2964 C 0.6982 0.87461 0.77157 0.0
C2965 C 0.71014 0.86394 0.77267 0.0
C2966 C 0.68661 0.90036 0.78008 0.0
C2967 C 0.68479 0.90796 0.76572 0.0
C2968 C 0.67803 0.90524 0.79368 0.0
C2969 C 0.67893 0.89706 0.80894 0.0
C2970 C 0.67584 0.88033 0.80927 0.0
C2971 C 0.67688 0.87266 0.82363 0.0
C2972 C 0.68091 0.8816 0.83777 0.0
C2973 C 0.68389 0.89824 0.83759 0.0
C2974 C 0.68288 0.90597 0.82325 0.0
C2975 C 0.63923 0.95775 0.76797 0.0
C2976 C 0.64377 0.97023 0.7793 0.0
C2977 C 0.64656 0.9433 0.76794 0.0
C2978 C 0.65864 0.94118 0.77914 0.0
C2979 C 0.66286 0.95349 0.79069 0.0
C2980 C 0.65551 0.96783 0.79078 0.0
C2981 C 0.66742 0.92646 0.77872 0.0
C2982 C 0.66855 0.91822 0.79282 0.0
C2983 C 0.67547 0.9211 0.76492 0.0
C2984 C 0.67538 0.92963 0.74985 0.0
C2985 C 0.68121 0.94581 0.74951 0.0
C2986 C 0.68102 0.95378 0.73526 0.0
C2987 C 0.67515 0.94564 0.72124 0.0
C2988 C 0.66952 0.9295 0.72143 0.0
C2989 C 0.66966 0.92149 0.73566 0.0
H2990 H 0.67502 0.95182 0.71021 0.0
H2991 H 0.68171 0.87564 0.84888 0.0
H2992 H 0.61339 0.5374 0.9683 0.0
H2993 H 0.63534 0.55783 0.97414 0.0
H2994 H 0.66595 0.53223 0.9426 0.0
H2995 H 0.64404 0.51156 0.93688 0.0
H2996 H 0.68034 0.54152 0.97164 0.0
H2997 H 0.65182 0.56557 0.93069 0.0
H2998 H 0.62814 0.57485 0.9175 0.0
H2999 H 0.62121 0.60721 0.95767 0.0
H3000 H 0.64473 0.59795 0.97121 0.0
H3001 H 0.74287 0.60377 0.97299 0.0
H3002 H 0.7217 0.58351 0.96428 0.0
H3003 H 0.68753 0.60845 0.99213 0.0
H3004 H 0.70856 0.62899 0.00065 0.0
H3005 H 0.67548 0.5992 0.96344 0.0
H3006 H 0.70281 0.57441 0.00503 0.0
H3007 H 0.7261 0.56498 0.01879 0.0
H3008 H 0.73485 0.53391 0.97812 0.0
H3009 H 0.71172 0.54332 0.96402 0.0
C3010 C 0.62481 0.5361 0.96265 0.0
C3011 C 0.62703 0.52288 0.95216 0.0
C3012 C 0.63729 0.54783 0.96589 0.0
C3013 C 0.65221 0.54659 0.95869 0.0
C3014 C 0.65449 0.53341 0.94822 0.0
C3015 C 0.64196 0.52169 0.94489 0.0
C3016 C 0.66551 0.55888 0.96248 0.0
C3017 C 0.67941 0.5541 0.96961 0.0
C3018 C 0.66408 0.57531 0.96016 0.0
C3019 C 0.64997 0.58096 0.95202 0.0
C3020 C 0.64518 0.57457 0.93677 0.0
C3021 C 0.6318 0.57985 0.92922 0.0
C3022 C 0.62316 0.59159 0.93675 0.0
C3023 C 0.62791 0.59811 0.95185 0.0
C3024 C 0.64127 0.59286 0.95946 0.0
C3025 C 0.73085 0.60496 0.97729 0.0
C3026 C 0.72742 0.61797 0.98758 0.0
C3027 C 0.71878 0.59333 0.97233 0.0
C3028 C 0.70308 0.59437 0.97771 0.0
C3029 C 0.69957 0.60742 0.98784 0.0
C3030 C 0.71162 0.61912 0.99274 0.0
C3031 C 0.69028 0.58187 0.97275 0.0
C3032 C 0.67646 0.58661 0.9654 0.0
C3033 C 0.69175 0.5654 0.97494 0.0
C3034 C 0.70564 0.5597 0.98341 0.0
C3035 C 0.70978 0.56566 0.99897 0.0
C3036 C 0.72294 0.5603 0.00684 0.0
C3037 C 0.73198 0.54889 0.99932 0.0
C3038 C 0.72785 0.54277 0.98392 0.0
C3039 C 0.71471 0.5481 0.97599 0.0
H3040 H 0.74216 0.54475 0.00543 0.0
H3041 H 0.6128 0.59565 0.93089 0.0
H3042 H 0.21271 0.66786 0.22346 0.0
H3043 H 0.19494 0.64375 0.22716 0.0
H3044 H 0.22865 0.62749 0.26063 0.0
H3045 H 0.24647 0.65152 0.25694 0.0
H3046 H 0.21754 0.60347 0.24042 0.0
H3047 H 0.19488 0.64423 0.27338 0.0
H3048 H 0.18391 0.67029 0.27926 0.0
H3049 H 0.14621 0.65809 0.24491 0.0
H3050 H 0.1571 0.63202 0.23868 0.0
H3051 H 0.16638 0.54504 0.27795 0.0
H3052 H 0.18447 0.56822 0.2719 0.0
H3053 H 0.15025 0.58251 0.23785 0.0
H3054 H 0.13201 0.55949 0.24392 0.0
H3055 H 0.16143 0.60737 0.2575 0.0
H3056 H 0.18376 0.5661 0.22523 0.0
H3057 H 0.19476 0.54 0.21968 0.0
H3058 H 0.23308 0.55309 0.25312 0.0
H3059 H 0.22218 0.5792 0.25903 0.0
C3060 C 0.21627 0.65919 0.23167 0.0
C3061 C 0.23096 0.66159 0.23993 0.0
C3062 C 0.20613 0.64542 0.23377 0.0
C3063 C 0.21041 0.63391 0.24429 0.0
C3064 C 0.22514 0.6362 0.25242 0.0
C3065 C 0.23531 0.64992 0.25027 0.0
C3066 C 0.19953 0.61948 0.24692 0.0
C3067 C 0.20532 0.60432 0.24434 0.0
C3068 C 0.18349 0.6206 0.25168 0.0
C3069 C 0.1769 0.63624 0.25545 0.0
C3070 C 0.18433 0.64715 0.26699 0.0
C3071 C 0.17811 0.66192 0.27041 0.0
C3072 C 0.1644 0.66586 0.26243 0.0
C3073 C 0.15685 0.65503 0.25106 0.0
C3074 C 0.16303 0.64025 0.24759 0.0
C3075 C 0.16273 0.55305 0.2691 0.0
C3076 C 0.14773 0.5504 0.26143 0.0
C3077 C 0.17311 0.56626 0.26562 0.0
C3078 C 0.16874 0.57702 0.25435 0.0
C3079 C 0.15385 0.57435 0.24659 0.0
C3080 C 0.14346 0.56115 0.25005 0.0
C3081 C 0.17945 0.59136 0.25105 0.0
C3082 C 0.17363 0.60652 0.25353 0.0
C3083 C 0.19546 0.59023 0.24624 0.0
C3084 C 0.20207 0.57455 0.24268 0.0
C3085 C 0.19446 0.56336 0.2315 0.0
C3086 C 0.20069 0.54858 0.22827 0.0
C3087 C 0.21459 0.54487 0.23607 0.0
C3088 C 0.22231 0.55597 0.24709 0.0
C3089 C 0.21612 0.57077 0.25038 0.0
H3090 H 0.2194 0.53342 0.23355 0.0
H3091 H 0.1596 0.6773 0.26509 0.0
H3092 H 0.85722 0.51841 0.08055 0.0
H3093 H 0.84258 0.54203 0.07684 0.0
H3094 H 0.87514 0.55656 0.03967 0.0
H3095 H 0.89048 0.53372 0.0441 0.0
H3096 H 0.86853 0.58172 0.05625 0.0
H3097 H 0.83693 0.53593 0.03231 0.0
H3098 H 0.82199 0.50934 0.03189 0.0
H3099 H 0.79047 0.52639 0.06788 0.0
H3100 H 0.80536 0.55304 0.06865 0.0
H3101 H 0.82097 0.62067 0.00226 0.0
H3102 H 0.83714 0.60299 0.01671 0.0
H3103 H 0.80555 0.60577 0.05692 0.0
H3104 H 0.78945 0.62382 0.04261 0.0
H3105 H 0.81047 0.57379 0.04395 0.0
H3106 H 0.84056 0.62163 0.06326 0.0
H3107 H 0.85541 0.64802 0.06116 0.0
H3108 H 0.88985 0.62675 0.03093 0.0
H3109 H 0.87507 0.60025 0.03265 0.0
C3110 C 0.86145 0.52677 0.07178 0.0
C3111 C 0.87497 0.524 0.0625 0.0
C3112 C 0.85294 0.5402 0.06954 0.0
C3113 C 0.85756 0.55095 0.05777 0.0
C3114 C 0.87127 0.54842 0.04879 0.0
C3115 C 0.87991 0.53518 0.05118 0.0
C3116 C 0.84797 0.56458 0.05431 0.0
C3117 C 0.85585 0.57995 0.0535 0.0
C3118 C 0.83131 0.56241 0.05112 0.0
C3119 C 0.82238 0.5464 0.05069 0.0
C3120 C 0.82689 0.53397 0.04023 0.0
C3121 C 0.81842 0.5189 0.03991 0.0
C3122 C 0.80533 0.51616 0.04989 0.0
C3123 C 0.80064 0.52852 0.06018 0.0
C3124 C 0.80909 0.5436 0.06056 0.0
C3125 C 0.81765 0.61778 0.0143 0.0
C3126 C 0.80395 0.62358 0.02131 0.0
C3127 C 0.82692 0.60773 0.02255 0.0
C3128 C 0.82253 0.60312 0.03787 0.0
C3129 C 0.80913 0.60927 0.04512 0.0
C3130 C 0.80001 0.6196 0.03697 0.0
C3131 C 0.83115 0.59073 0.04549 0.0
C3132 C 0.82308 0.57559 0.04704 0.0
C3133 C 0.84767 0.59304 0.04904 0.0
C3134 C 0.85663 0.60896 0.04801 0.0
C3135 C 0.85122 0.62259 0.05606 0.0
C3136 C 0.85965 0.63757 0.05496 0.0
C3137 C 0.87355 0.63906 0.0459 0.0
C3138 C 0.87908 0.62557 0.03795 0.0
C3139 C 0.87069 0.61057 0.039 0.0
H3140 H 0.88006 0.65067 0.04507 0.0
H3141 H 0.79878 0.50449 0.04963 0.0
H3142 H 0.12108 0.03753 0.10789 0.0
H3143 H 0.13476 0.01286 0.10383 0.0
H3144 H 0.14884 0.02689 0.05689 0.0
H3145 H 0.13597 0.05181 0.06104 0.0
H3146 H 0.13084 0.99475 0.05981 0.0
H3147 H 0.1761 0.02962 0.08163 0.0
H3148 H 0.18966 0.04734 0.10272 0.0
H3149 H 0.18425 0.00957 0.13555 0.0
H3150 H 0.17044 0.99169 0.1147 0.0
H3151 H 0.18712 0.95 0.02336 0.0
H3152 H 0.17126 0.97009 0.03573 0.0
H3153 H 0.17752 0.95026 0.08167 0.0
H3154 H 0.19399 0.93016 0.0693 0.0
H3155 H 0.18195 0.98191 0.08433 0.0
H3156 H 0.14087 0.94556 0.06234 0.0
H3157 H 0.12662 0.92715 0.04227 0.0
H3158 H 0.12224 0.96611 0.01154 0.0
H3159 H 0.13668 0.98473 0.03132 0.0
C3160 C 0.1274 0.03556 0.09684 0.0
C3161 C 0.12723 0.0466 0.0847 0.0
C3162 C 0.13511 0.02141 0.09453 0.0
C3163 C 0.14264 0.01806 0.08001 0.0
C3164 C 0.14293 0.02924 0.06811 0.0
C3165 C 0.13547 0.04343 0.07049 0.0
C3166 C 0.14958 0.0026 0.07668 0.0
C3167 C 0.14203 0.9919 0.06512 0.0
C3168 C 0.16375 0.99865 0.08419 0.0
C3169 C 0.17204 0.0094 0.09668 0.0
C3170 C 0.17764 0.02515 0.0934 0.0
C3171 C 0.18541 0.03521 0.10529 0.0
C3172 C 0.18776 0.02961 0.12049 0.0
C3173 C 0.18238 0.01391 0.12379 0.0
C3174 C 0.17459 0.00381 0.11194 0.0
C3175 C 0.18503 0.94974 0.03608 0.0
C3176 C 0.19177 0.93842 0.04534 0.0
C3177 C 0.17586 0.96123 0.04314 0.0
C3178 C 0.17293 0.96153 0.0596 0.0
C3179 C 0.17954 0.95018 0.06893 0.0
C3180 C 0.18888 0.93868 0.06185 0.0
C3181 C 0.16357 0.97428 0.06688 0.0
C3182 C 0.17058 0.98448 0.07922 0.0
C3183 C 0.1487 0.97767 0.06027 0.0
C3184 C 0.13993 0.96654 0.04831 0.0
C3185 C 0.13696 0.95019 0.05127 0.0
C3186 C 0.12883 0.93972 0.03994 0.0
C3187 C 0.12354 0.94545 0.02563 0.0
C3188 C 0.12634 0.96169 0.02263 0.0
C3189 C 0.13447 0.97222 0.03391 0.0
H3190 H 0.11725 0.93732 0.01688 0.0
H3191 H 0.19379 0.03741 0.12968 0.0
loop_
_geom_bond_atom_site_label_1
_geom_bond_atom_site_label_2
_geom_bond_distance
_geom_bond_site_symmetry_2
_ccdc_geom_bond_type
C0 C1 1.386 . S
C0 C2 1.397 . S
C0 H24 0.931 . S
C1 C0 1.386 . S
C1 C5 1.397 . S
C2 C0 1.397 . S
C2 C3 1.384 . S
C2 H25 0.930 . S
C3 C2 1.384 . S
C3 C4 1.377 . S
C3 C6 1.481 . S
C4 C3 1.377 . S
C4 C5 1.389 . S
C4 H26 0.929 . S
C5 C1 1.397 . S
C5 C4 1.389 . S
C5 H27 0.931 . S
C6 C3 1.481 . S
C6 C7 1.387 . S
C6 C11 1.390 . S
C7 C6 1.387 . S
C7 C8 1.401 . S
C7 H28 0.930 . S
C8 C7 1.401 . S
C8 C9 1.376 . S
C8 C17 1.511 . S
C9 C8 1.376 . S
C9 C10 1.392 . S
C9 H30 0.931 . S
C10 C9 1.392 . S
C10 C11 1.361 . S
C10 C12 1.500 . S
C11 C6 1.390 . S
C11 C10 1.361 . S
C11 H29 0.931 . S
C12 C10 1.500 . S
C12 C13 1.371 . S
C12 C14 1.365 . S
C13 C12 1.371 . S
C13 C23 1.386 . S
C13 H31 0.931 . S
C14 C12 1.365 . S
C14 C15 1.409 . S
C14 H32 0.929 . S
C15 C14 1.409 . S
C15 C16 1.380 . S
C15 H33 0.930 . S
C16 C15 1.380 . S
C16 C23 1.357 . S
C17 C8 1.511 . S
C17 C18 1.341 . S
C17 C19 1.371 . S
C18 C17 1.341 . S
C18 C22 1.394 . S
C18 H34 0.930 . S
C19 C17 1.371 . S
C19 C20 1.392 . S
C19 H35 0.931 . S
C20 C19 1.392 . S
C20 C21 1.331 . S
C20 H38 0.932 . S
C21 C20 1.331 . S
C21 C22 1.336 . S
C22 C18 1.394 . S
C22 C21 1.336 . S
C22 H37 0.929 . S
C23 C13 1.386 . S
C23 C16 1.357 . S
C23 H36 0.928 . S
H24 C0 0.931 . S
H25 C2 0.930 . S
H26 C4 0.929 . S
H27 C5 0.931 . S
H28 C7 0.930 . S
H29 C11 0.931 . S
H30 C9 0.931 . S
H31 C13 0.931 . S
H32 C14 0.929 . S
H33 C15 0.930 . S
H34 C18 0.930 . S
H35 C19 0.931 . S
H36 C23 0.928 . S
H37 C22 0.929 . S
H38 C20 0.932 . S
C39 C40 1.386 . S
C39 C41 1.397 . S
C39 H63 0.931 . S
C40 C39 1.386 . S
C40 C44 1.397 . S
C41 C39 1.397 . S
C41 C42 1.384 . S
C41 H64 0.930 . S
C42 C41 1.384 . S
C42 C43 1.377 . S
C42 C45 1.481 . S
C43 C42 1.377 . S
C43 C44 1.389 . S
C43 H65 0.929 . S
C44 C40 1.397 . S
C44 C43 1.389 . S
C44 H66 0.931 . S
C45 C42 1.481 . S
C45 C46 1.387 . S
C45 C50 1.390 . S
C46 C45 1.387 . S
C46 C47 1.401 . S
C46 H67 0.930 . S
C47 C46 1.401 . S
C47 C48 1.376 . S
C47 C56 1.511 . S
C48 C47 1.376 . S
C48 C49 1.392 . S
C48 H69 0.931 . S
C49 C48 1.392 . S
C49 C50 1.361 . S
C49 C51 1.500 . S
C50 C45 1.390 . S
C50 C49 1.361 . S
C50 H68 0.931 . S
C51 C49 1.500 . S
C51 C52 1.371 . S
C51 C53 1.365 . S
C52 C51 1.371 . S
C52 C62 1.386 . S
C52 H70 0.931 . S
C53 C51 1.365 . S
C53 C54 1.409 . S
C53 H71 0.929 . S
C54 C53 1.409 . S
C54 C55 1.380 . S
C54 H72 0.930 . S
C55 C54 1.380 . S
C55 C62 1.357 . S
C56 C47 1.511 . S
C56 C57 1.341 . S
C56 C58 1.371 . S
C57 C56 1.341 . S
C57 C61 1.394 . S
C57 H73 0.930 . S
C58 C56 1.371 . S
C58 C59 1.392 . S
C58 H74 0.931 . S
C59 C58 1.392 . S
C59 C60 1.331 . S
C59 H77 0.932 . S
C60 C59 1.331 . S
C60 C61 1.336 . S
C61 C57 1.394 . S
C61 C60 1.336 . S
C61 H76 0.929 . S
C62 C52 1.386 . S
C62 C55 1.357 . S
C62 H75 0.928 . S
H63 C39 0.931 . S
H64 C41 0.930 . S
H65 C43 0.929 . S
H66 C44 0.931 . S
H67 C46 0.930 . S
H68 C50 0.931 . S
H69 C48 0.931 . S
H70 C52 0.931 . S
H71 C53 0.929 . S
H72 C54 0.930 . S
H73 C57 0.930 . S
H74 C58 0.931 . S
H75 C62 0.928 . S
H76 C61 0.929 . S
H77 C59 0.932 . S
C78 C79 1.386 . S
C78 C80 1.397 . S
C78 H102 0.931 . S
C79 C78 1.386 . S
C79 C83 1.397 . S
C80 C78 1.397 . S
C80 C81 1.384 . S
C80 H103 0.930 . S
C81 C80 1.384 . S
C81 C82 1.377 . S
C81 C84 1.481 . S
C82 C81 1.377 . S
C82 C83 1.389 . S
C82 H104 0.929 . S
C83 C79 1.397 . S
C83 C82 1.389 . S
C83 H105 0.931 . S
C84 C81 1.481 . S
C84 C85 1.387 . S
C84 C89 1.390 . S
C85 C84 1.387 . S
C85 C86 1.401 . S
C85 H106 0.930 . S
C86 C85 1.401 . S
C86 C87 1.376 . S
C86 C95 1.511 . S
C87 C86 1.376 . S
C87 C88 1.392 . S
C87 H108 0.931 . S
C88 C87 1.392 . S
C88 C89 1.361 . S
C88 C90 1.500 . S
C89 C84 1.390 . S
C89 C88 1.361 . S
C89 H107 0.931 . S
C90 C88 1.500 . S
C90 C91 1.371 . S
C90 C92 1.365 . S
C91 C90 1.371 . S
C91 C101 1.386 . S
C91 H109 0.931 . S
C92 C90 1.365 . S
C92 C93 1.409 . S
C92 H110 0.929 . S
C93 C92 1.409 . S
C93 C94 1.380 . S
C93 H111 0.930 . S
C94 C93 1.380 . S
C94 C101 1.357 . S
C95 C86 1.511 . S
C95 C96 1.341 . S
C95 C97 1.371 . S
C96 C95 1.341 . S
C96 C100 1.394 . S
C96 H112 0.930 . S
C97 C95 1.371 . S
C97 C98 1.392 . S
C97 H113 0.931 . S
C98 C97 1.392 . S
C98 C99 1.331 . S
C98 H116 0.932 . S
C99 C98 1.331 . S
C99 C100 1.336 . S
C100 C96 1.394 . S
C100 C99 1.336 . S
C100 H115 0.929 . S
C101 C91 1.386 . S
C101 C94 1.357 . S
C101 H114 0.928 . S
H102 C78 0.931 . S
H103 C80 0.930 . S
H104 C82 0.929 . S
H105 C83 0.931 . S
H106 C85 0.930 . S
H107 C89 0.931 . S
H108 C87 0.931 . S
H109 C91 0.931 . S
H110 C92 0.929 . S
H111 C93 0.930 . S
H112 C96 0.930 . S
H113 C97 0.931 . S
H114 C101 0.928 . S
H115 C100 0.929 . S
H116 C98 0.932 . S
C117 C118 1.386 . S
C117 C119 1.397 . S
C117 H141 0.931 . S
C118 C117 1.386 . S
C118 C122 1.397 . S
C119 C117 1.397 . S
C119 C120 1.384 . S
C119 H142 0.930 . S
C120 C119 1.384 . S
C120 C121 1.377 . S
C120 C123 1.481 . S
C121 C120 1.377 . S
C121 C122 1.389 . S
C121 H143 0.929 . S
C122 C118 1.397 . S
C122 C121 1.389 . S
C122 H144 0.931 . S
C123 C120 1.481 . S
C123 C124 1.387 . S
C123 C128 1.390 . S
C124 C123 1.387 . S
C124 C125 1.401 . S
C124 H145 0.930 . S
C125 C124 1.401 . S
C125 C126 1.376 . S
C125 C134 1.511 . S
C126 C125 1.376 . S
C126 C127 1.392 . S
C126 H147 0.931 . S
C127 C126 1.392 . S
C127 C128 1.361 . S
C127 C129 1.500 . S
C128 C123 1.390 . S
C128 C127 1.361 . S
C128 H146 0.931 . S
C129 C127 1.500 . S
C129 C130 1.371 . S
C129 C131 1.365 . S
C130 C129 1.371 . S
C130 C140 1.386 . S
C130 H148 0.931 . S
C131 C129 1.365 . S
C131 C132 1.409 . S
C131 H149 0.929 . S
C132 C131 1.409 . S
C132 C133 1.380 . S
C132 H150 0.930 . S
C133 C132 1.380 . S
C133 C140 1.357 . S
C134 C125 1.511 . S
C134 C135 1.341 . S
C134 C136 1.371 . S
C135 C134 1.341 . S
C135 C139 1.394 . S
C135 H151 0.930 . S
C136 C134 1.371 . S
C136 C137 1.392 . S
C136 H152 0.931 . S
C137 C136 1.392 . S
C137 C138 1.331 . S
C137 H155 0.932 . S
C138 C137 1.331 . S
C138 C139 1.336 . S
C139 C135 1.394 . S
C139 C138 1.336 . S
C139 H154 0.929 . S
C140 C130 1.386 . S
C140 C133 1.357 . S
C140 H153 0.928 . S
H141 C117 0.931 . S
H142 C119 0.930 . S
H143 C121 0.929 . S
H144 C122 0.931 . S
H145 C124 0.930 . S
H146 C128 0.931 . S
H147 C126 0.931 . S
H148 C130 0.931 . S
H149 C131 0.929 . S
H150 C132 0.930 . S
H151 C135 0.930 . S
H152 C136 0.931 . S
H153 C140 0.928 . S
H154 C139 0.929 . S
H155 C137 0.932 . S
C156 C157 1.386 . S
C156 C158 1.397 . S
C156 H180 0.931 . S
C157 C156 1.386 . S
C157 C161 1.397 . S
C158 C156 1.397 . S
C158 C159 1.384 . S
C158 H181 0.930 . S
C159 C158 1.384 . S
C159 C160 1.377 . S
C159 C162 1.481 . S
C160 C159 1.377 . S
C160 C161 1.389 . S
C160 H182 0.929 . S
C161 C157 1.397 . S
C161 C160 1.389 . S
C161 H183 0.931 . S
C162 C159 1.481 . S
C162 C163 1.387 . S
C162 C167 1.390 . S
C163 C162 1.387 . S
C163 C164 1.401 . S
C163 H184 0.930 . S
C164 C163 1.401 . S
C164 C165 1.376 . S
C164 C173 1.511 . S
C165 C164 1.376 . S
C165 C166 1.392 . S
C165 H186 0.931 . S
C166 C165 1.392 . S
C166 C167 1.361 . S
C166 C168 1.500 . S
C167 C162 1.390 . S
C167 C166 1.361 . S
C167 H185 0.931 . S
C168 C166 1.500 . S
C168 C169 1.371 . S
C168 C170 1.365 . S
C169 C168 1.371 . S
C169 C179 1.386 . S
C169 H187 0.931 . S
C170 C168 1.365 . S
C170 C171 1.409 . S
C170 H188 0.929 . S
C171 C170 1.409 . S
C171 C172 1.380 . S
C171 H189 0.930 . S
C172 C171 1.380 . S
C172 C179 1.357 . S
C173 C164 1.511 . S
C173 C174 1.341 . S
C173 C175 1.371 . S
C174 C173 1.341 . S
C174 C178 1.394 . S
C174 H190 0.930 . S
C175 C173 1.371 . S
C175 C176 1.392 . S
C175 H191 0.931 . S
C176 C175 1.392 . S
C176 C177 1.331 . S
C176 H194 0.932 . S
C177 C176 1.331 . S
C177 C178 1.336 . S
C178 C174 1.394 . S
C178 C177 1.336 . S
C178 H193 0.929 . S
C179 C169 1.386 . S
C179 C172 1.357 . S
C179 H192 0.928 . S
H180 C156 0.931 . S
H181 C158 0.930 . S
H182 C160 0.929 . S
H183 C161 0.931 . S
H184 C163 0.930 . S
H185 C167 0.931 . S
H186 C165 0.931 . S
H187 C169 0.931 . S
H188 C170 0.929 . S
H189 C171 0.930 . S
H190 C174 0.930 . S
H191 C175 0.931 . S
H192 C179 0.928 . S
H193 C178 0.929 . S
H194 C176 0.932 . S
C195 C196 1.386 . S
C195 C197 1.397 . S
C195 H219 0.931 . S
C196 C195 1.386 . S
C196 C200 1.397 . S
C197 C195 1.397 . S
C197 C198 1.384 . S
C197 H220 0.930 . S
C198 C197 1.384 . S
C198 C199 1.377 . S
C198 C201 1.481 . S
C199 C198 1.377 . S
C199 C200 1.389 . S
C199 H221 0.929 . S
C200 C196 1.397 . S
C200 C199 1.389 . S
C200 H222 0.931 . S
C201 C198 1.481 . S
C201 C202 1.387 . S
C201 C206 1.390 . S
C202 C201 1.387 . S
C202 C203 1.401 . S
C202 H223 0.930 . S
C203 C202 1.401 . S
C203 C204 1.376 . S
C203 C212 1.511 . S
C204 C203 1.376 . S
C204 C205 1.392 . S
C204 H225 0.931 . S
C205 C204 1.392 . S
C205 C206 1.361 . S
C205 C207 1.500 . S
C206 C201 1.390 . S
C206 C205 1.361 . S
C206 H224 0.931 . S
C207 C205 1.500 . S
C207 C208 1.371 . S
C207 C209 1.365 . S
C208 C207 1.371 . S
C208 C218 1.386 . S
C208 H226 0.931 . S
C209 C207 1.365 . S
C209 C210 1.409 . S
C209 H227 0.929 . S
C210 C209 1.409 . S
C210 C211 1.380 . S
C210 H228 0.930 . S
C211 C210 1.380 . S
C211 C218 1.357 . S
C212 C203 1.511 . S
C212 C213 1.341 . S
C212 C214 1.371 . S
C213 C212 1.341 . S
C213 C217 1.394 . S
C213 H229 0.930 . S
C214 C212 1.371 . S
C214 C215 1.392 . S
C214 H230 0.931 . S
C215 C214 1.392 . S
C215 C216 1.331 . S
C215 H233 0.932 . S
C216 C215 1.331 . S
C216 C217 1.336 . S
C217 C213 1.394 . S
C217 C216 1.336 . S
C217 H232 0.929 . S
C218 C208 1.386 . S
C218 C211 1.357 . S
C218 H231 0.928 . S
H219 C195 0.931 . S
H220 C197 0.930 . S
H221 C199 0.929 . S
H222 C200 0.931 . S
H223 C202 0.930 . S
H224 C206 0.931 . S
H225 C204 0.931 . S
H226 C208 0.931 . S
H227 C209 0.929 . S
H228 C210 0.930 . S
H229 C213 0.930 . S
H230 C214 0.931 . S
H231 C218 0.928 . S
H232 C217 0.929 . S
H233 C215 0.932 . S
C234 C235 1.386 . S
C234 C236 1.397 . S
C234 H258 0.931 . S
C235 C234 1.386 . S
C235 C239 1.397 . S
C236 C234 1.397 . S
C236 C237 1.384 . S
C236 H259 0.930 . S
C237 C236 1.384 . S
C237 C238 1.377 . S
C237 C240 1.481 . S
C238 C237 1.377 . S
C238 C239 1.389 . S
C238 H260 0.929 . S
C239 C235 1.397 . S
C239 C238 1.389 . S
C239 H261 0.931 . S
C240 C237 1.481 . S
C240 C241 1.387 . S
C240 C245 1.390 . S
C241 C240 1.387 . S
C241 C242 1.401 . S
C241 H262 0.930 . S
C242 C241 1.401 . S
C242 C243 1.376 . S
C242 C251 1.511 . S
C243 C242 1.376 . S
C243 C244 1.392 . S
C243 H264 0.931 . S
C244 C243 1.392 . S
C244 C245 1.361 . S
C244 C246 1.500 . S
C245 C240 1.390 . S
C245 C244 1.361 . S
C245 H263 0.931 . S
C246 C244 1.500 . S
C246 C247 1.371 . S
C246 C248 1.365 . S
C247 C246 1.371 . S
C247 C257 1.386 . S
C247 H265 0.931 . S
C248 C246 1.365 . S
C248 C249 1.409 . S
C248 H266 0.929 . S
C249 C248 1.409 . S
C249 C250 1.380 . S
C249 H267 0.930 . S
C250 C249 1.380 . S
C250 C257 1.357 . S
C251 C242 1.511 . S
C251 C252 1.341 . S
C251 C253 1.371 . S
C252 C251 1.341 . S
C252 C256 1.394 . S
C252 H268 0.930 . S
C253 C251 1.371 . S
C253 C254 1.392 . S
C253 H269 0.931 . S
C254 C253 1.392 . S
C254 C255 1.331 . S
C254 H272 0.932 . S
C255 C254 1.331 . S
C255 C256 1.336 . S
C256 C252 1.394 . S
C256 C255 1.336 . S
C256 H271 0.929 . S
C257 C247 1.386 . S
C257 C250 1.357 . S
C257 H270 0.928 . S
H258 C234 0.931 . S
H259 C236 0.930 . S
H260 C238 0.929 . S
H261 C239 0.931 . S
H262 C241 0.930 . S
H263 C245 0.931 . S
H264 C243 0.931 . S
H265 C247 0.931 . S
H266 C248 0.929 . S
H267 C249 0.930 . S
H268 C252 0.930 . S
H269 C253 0.931 . S
H270 C257 0.928 . S
H271 C256 0.929 . S
H272 C254 0.932 . S
C273 C274 1.386 . S
C273 C275 1.397 . S
C273 H297 0.931 . S
C274 C273 1.386 . S
C274 C278 1.397 . S
C275 C273 1.397 . S
C275 C276 1.384 . S
C275 H298 0.930 . S
C276 C275 1.384 . S
C276 C277 1.377 . S
C276 C279 1.481 . S
C277 C276 1.377 . S
C277 C278 1.389 . S
C277 H299 0.929 . S
C278 C274 1.397 . S
C278 C277 1.389 . S
C278 H300 0.931 . S
C279 C276 1.481 . S
C279 C280 1.387 . S
C279 C284 1.390 . S
C280 C279 1.387 . S
C280 C281 1.401 . S
C280 H301 0.930 . S
C281 C280 1.401 . S
C281 C282 1.376 . S
C281 C290 1.511 . S
C282 C281 1.376 . S
C282 C283 1.392 . S
C282 H303 0.931 . S
C283 C282 1.392 . S
C283 C284 1.361 . S
C283 C285 1.500 . S
C284 C279 1.390 . S
C284 C283 1.361 . S
C284 H302 0.931 . S
C285 C283 1.500 . S
C285 C286 1.371 . S
C285 C287 1.365 . S
C286 C285 1.371 . S
C286 C296 1.386 . S
C286 H304 0.931 . S
C287 C285 1.365 . S
C287 C288 1.409 . S
C287 H305 0.929 . S
C288 C287 1.409 . S
C288 C289 1.380 . S
C288 H306 0.930 . S
C289 C288 1.380 . S
C289 C296 1.357 . S
C290 C281 1.511 . S
C290 C291 1.341 . S
C290 C292 1.371 . S
C291 C290 1.341 . S
C291 C295 1.394 . S
C291 H307 0.930 . S
C292 C290 1.371 . S
C292 C293 1.392 . S
C292 H308 0.931 . S
C293 C292 1.392 . S
C293 C294 1.331 . S
C293 H311 0.932 . S
C294 C293 1.331 . S
C294 C295 1.336 . S
C295 C291 1.394 . S
C295 C294 1.336 . S
C295 H310 0.929 . S
C296 C286 1.386 . S
C296 C289 1.357 . S
C296 H309 0.928 . S
H297 C273 0.931 . S
H298 C275 0.930 . S
H299 C277 0.929 . S
H300 C278 0.931 . S
H301 C280 0.930 . S
H302 C284 0.931 . S
H303 C282 0.931 . S
H304 C286 0.931 . S
H305 C287 0.929 . S
H306 C288 0.930 . S
H307 C291 0.930 . S
H308 C292 0.931 . S
H309 C296 0.928 . S
H310 C295 0.929 . S
H311 C293 0.932 . S
C312 C313 1.386 . S
C312 C314 1.397 . S
C312 H336 0.931 . S
C313 C312 1.386 . S
C313 C317 1.397 . S
C314 C312 1.397 . S
C314 C315 1.384 . S
C314 H337 0.930 . S
C315 C314 1.384 . S
C315 C316 1.377 . S
C315 C318 1.481 . S
C316 C315 1.377 . S
C316 C317 1.389 . S
C316 H338 0.929 . S
C317 C313 1.397 . S
C317 C316 1.389 . S
C317 H339 0.931 . S
C318 C315 1.481 . S
C318 C319 1.387 . S
C318 C323 1.390 . S
C319 C318 1.387 . S
C319 C320 1.401 . S
C319 H340 0.930 . S
C320 C319 1.401 . S
C320 C321 1.376 . S
C320 C329 1.511 . S
C321 C320 1.376 . S
C321 C322 1.392 . S
C321 H342 0.931 . S
C322 C321 1.392 . S
C322 C323 1.361 . S
C322 C324 1.500 . S
C323 C318 1.390 . S
C323 C322 1.361 . S
C323 H341 0.931 . S
C324 C322 1.500 . S
C324 C325 1.371 . S
C324 C326 1.365 . S
C325 C324 1.371 . S
C325 C335 1.386 . S
C325 H343 0.931 . S
C326 C324 1.365 . S
C326 C327 1.409 . S
C326 H344 0.929 . S
C327 C326 1.409 . S
C327 C328 1.380 . S
C327 H345 0.930 . S
C328 C327 1.380 . S
C328 C335 1.357 . S
C329 C320 1.511 . S
C329 C330 1.341 . S
C329 C331 1.371 . S
C330 C329 1.341 . S
C330 C334 1.394 . S
C330 H346 0.930 . S
C331 C329 1.371 . S
C331 C332 1.392 . S
C331 H347 0.931 . S
C332 C331 1.392 . S
C332 C333 1.331 . S
C332 H350 0.932 . S
C333 C332 1.331 . S
C333 C334 1.336 . S
C334 C330 1.394 . S
C334 C333 1.336 . S
C334 H349 0.929 . S
C335 C325 1.386 . S
C335 C328 1.357 . S
C335 H348 0.928 . S
H336 C312 0.931 . S
H337 C314 0.930 . S
H338 C316 0.929 . S
H339 C317 0.931 . S
H340 C319 0.930 . S
H341 C323 0.931 . S
H342 C321 0.931 . S
H343 C325 0.931 . S
H344 C326 0.929 . S
H345 C327 0.930 . S
H346 C330 0.930 . S
H347 C331 0.931 . S
H348 C335 0.928 . S
H349 C334 0.929 . S
H350 C332 0.932 . S
C351 C352 1.386 . S
C351 C353 1.397 . S
C351 H375 0.931 . S
C352 C351 1.386 . S
C352 C356 1.397 . S
C353 C351 1.397 . S
C353 C354 1.384 . S
C353 H376 0.930 . S
C354 C353 1.384 . S
C354 C355 1.377 . S
C354 C357 1.481 . S
C355 C354 1.377 . S
C355 C356 1.389 . S
C355 H377 0.929 . S
C356 C352 1.397 . S
C356 C355 1.389 . S
C356 H378 0.931 . S
C357 C354 1.481 . S
C357 C358 1.387 . S
C357 C362 1.390 . S
C358 C357 1.387 . S
C358 C359 1.401 . S
C358 H379 0.930 . S
C359 C358 1.401 . S
C359 C360 1.376 . S
C359 C368 1.511 . S
C360 C359 1.376 . S
C360 C361 1.392 . S
C360 H381 0.931 . S
C361 C360 1.392 . S
C361 C362 1.361 . S
C361 C363 1.500 . S
C362 C357 1.390 . S
C362 C361 1.361 . S
C362 H380 0.931 . S
C363 C361 1.500 . S
C363 C364 1.371 . S
C363 C365 1.365 . S
C364 C363 1.371 . S
C364 C374 1.386 . S
C364 H382 0.931 . S
C365 C363 1.365 . S
C365 C366 1.409 . S
C365 H383 0.929 . S
C366 C365 1.409 . S
C366 C367 1.380 . S
C366 H384 0.930 . S
C367 C366 1.380 . S
C367 C374 1.357 . S
C368 C359 1.511 . S
C368 C369 1.341 . S
C368 C370 1.371 . S
C369 C368 1.341 . S
C369 C373 1.394 . S
C369 H385 0.930 . S
C370 C368 1.371 . S
C370 C371 1.392 . S
C370 H386 0.931 . S
C371 C370 1.392 . S
C371 C372 1.331 . S
C371 H389 0.932 . S
C372 C371 1.331 . S
C372 C373 1.336 . S
C373 C369 1.394 . S
C373 C372 1.336 . S
C373 H388 0.929 . S
C374 C364 1.386 . S
C374 C367 1.357 . S
C374 H387 0.928 . S
H375 C351 0.931 . S
H376 C353 0.930 . S
H377 C355 0.929 . S
H378 C356 0.931 . S
H379 C358 0.930 . S
H380 C362 0.931 . S
H381 C360 0.931 . S
H382 C364 0.931 . S
H383 C365 0.929 . S
H384 C366 0.930 . S
H385 C369 0.930 . S
H386 C370 0.931 . S
H387 C374 0.928 . S
H388 C373 0.929 . S
H389 C371 0.932 . S
C390 C391 1.386 . S
C390 C392 1.397 . S
C390 H414 0.931 . S
C391 C390 1.386 . S
C391 C395 1.397 . S
C392 C390 1.397 . S
C392 C393 1.384 . S
C392 H415 0.930 . S
C393 C392 1.384 . S
C393 C394 1.377 . S
C393 C396 1.481 . S
C394 C393 1.377 . S
C394 C395 1.389 . S
C394 H416 0.929 . S
C395 C391 1.397 . S
C395 C394 1.389 . S
C395 H417 0.931 . S
C396 C393 1.481 . S
C396 C397 1.387 . S
C396 C401 1.390 . S
C397 C396 1.387 . S
C397 C398 1.401 . S
C397 H418 0.930 . S
C398 C397 1.401 . S
C398 C399 1.376 . S
C398 C407 1.511 . S
C399 C398 1.376 . S
C399 C400 1.392 . S
C399 H420 0.931 . S
C400 C399 1.392 . S
C400 C401 1.361 . S
C400 C402 1.500 . S
C401 C396 1.390 . S
C401 C400 1.361 . S
C401 H419 0.931 . S
C402 C400 1.500 . S
C402 C403 1.371 . S
C402 C404 1.365 . S
C403 C402 1.371 . S
C403 C413 1.386 . S
C403 H421 0.931 . S
C404 C402 1.365 . S
C404 C405 1.409 . S
C404 H422 0.929 . S
C405 C404 1.409 . S
C405 C406 1.380 . S
C405 H423 0.930 . S
C406 C405 1.380 . S
C406 C413 1.357 . S
C407 C398 1.511 . S
C407 C408 1.341 . S
C407 C409 1.371 . S
C408 C407 1.341 . S
C408 C412 1.394 . S
C408 H424 0.930 . S
C409 C407 1.371 . S
C409 C410 1.392 . S
C409 H425 0.931 . S
C410 C409 1.392 . S
C410 C411 1.331 . S
C410 H428 0.932 . S
C411 C410 1.331 . S
C411 C412 1.336 . S
C412 C408 1.394 . S
C412 C411 1.336 . S
C412 H427 0.929 . S
C413 C403 1.386 . S
C413 C406 1.357 . S
C413 H426 0.928 . S
H414 C390 0.931 . S
H415 C392 0.930 . S
H416 C394 0.929 . S
H417 C395 0.931 . S
H418 C397 0.930 . S
H419 C401 0.931 . S
H420 C399 0.931 . S
H421 C403 0.931 . S
H422 C404 0.929 . S
H423 C405 0.930 . S
H424 C408 0.930 . S
H425 C409 0.931 . S
H426 C413 0.928 . S
H427 C412 0.929 . S
H428 C410 0.932 . S
C429 C430 1.386 . S
C429 C431 1.397 . S
C429 H453 0.931 . S
C430 C429 1.386 . S
C430 C434 1.397 . S
C431 C429 1.397 . S
C431 C432 1.384 . S
C431 H454 0.930 . S
C432 C431 1.384 . S
C432 C433 1.377 . S
C432 C435 1.481 . S
C433 C432 1.377 . S
C433 C434 1.389 . S
C433 H455 0.929 . S
C434 C430 1.397 . S
C434 C433 1.389 . S
C434 H456 0.931 . S
C435 C432 1.481 . S
C435 C436 1.387 . S
C435 C440 1.390 . S
C436 C435 1.387 . S
C436 C437 1.401 . S
C436 H457 0.930 . S
C437 C436 1.401 . S
C437 C438 1.376 . S
C437 C446 1.511 . S
C438 C437 1.376 . S
C438 C439 1.392 . S
C438 H459 0.931 . S
C439 C438 1.392 . S
C439 C440 1.361 . S
C439 C441 1.500 . S
C440 C435 1.390 . S
C440 C439 1.361 . S
C440 H458 0.931 . S
C441 C439 1.500 . S
C441 C442 1.371 . S
C441 C443 1.365 . S
C442 C441 1.371 . S
C442 C452 1.386 . S
C442 H460 0.931 . S
C443 C441 1.365 . S
C443 C444 1.409 . S
C443 H461 0.929 . S
C444 C443 1.409 . S
C444 C445 1.380 . S
C444 H462 0.930 . S
C445 C444 1.380 . S
C445 C452 1.357 . S
C446 C437 1.511 . S
C446 C447 1.341 . S
C446 C448 1.371 . S
C447 C446 1.341 . S
C447 C451 1.394 . S
C447 H463 0.930 . S
C448 C446 1.371 . S
C448 C449 1.392 . S
C448 H464 0.931 . S
C449 C448 1.392 . S
C449 C450 1.331 . S
C449 H467 0.932 . S
C450 C449 1.331 . S
C450 C451 1.336 . S
C451 C447 1.394 . S
C451 C450 1.336 . S
C451 H466 0.929 . S
C452 C442 1.386 . S
C452 C445 1.357 . S
C452 H465 0.928 . S
H453 C429 0.931 . S
H454 C431 0.930 . S
H455 C433 0.929 . S
H456 C434 0.931 . S
H457 C436 0.930 . S
H458 C440 0.931 . S
H459 C438 0.931 . S
H460 C442 0.931 . S
H461 C443 0.929 . S
H462 C444 0.930 . S
H463 C447 0.930 . S
H464 C448 0.931 . S
H465 C452 0.928 . S
H466 C451 0.929 . S
H467 C449 0.932 . S
C468 C469 1.386 . S
C468 C470 1.397 . S
C468 H492 0.931 . S
C469 C468 1.386 . S
C469 C473 1.397 . S
C470 C468 1.397 . S
C470 C471 1.384 . S
C470 H493 0.930 . S
C471 C470 1.384 . S
C471 C472 1.377 . S
C471 C474 1.481 . S
C472 C471 1.377 . S
C472 C473 1.389 . S
C472 H494 0.929 . S
C473 C469 1.397 . S
C473 C472 1.389 . S
C473 H495 0.931 . S
C474 C471 1.481 . S
C474 C475 1.387 . S
C474 C479 1.390 . S
C475 C474 1.387 . S
C475 C476 1.401 . S
C475 H496 0.930 . S
C476 C475 1.401 . S
C476 C477 1.376 . S
C476 C485 1.511 . S
C477 C476 1.376 . S
C477 C478 1.392 . S
C477 H498 0.931 . S
C478 C477 1.392 . S
C478 C479 1.361 . S
C478 C480 1.500 . S
C479 C474 1.390 . S
C479 C478 1.361 . S
C479 H497 0.931 . S
C480 C478 1.500 . S
C480 C481 1.371 . S
C480 C482 1.365 . S
C481 C480 1.371 . S
C481 C491 1.386 . S
C481 H499 0.931 . S
C482 C480 1.365 . S
C482 C483 1.409 . S
C482 H500 0.929 . S
C483 C482 1.409 . S
C483 C484 1.380 . S
C483 H501 0.930 . S
C484 C483 1.380 . S
C484 C491 1.357 . S
C485 C476 1.511 . S
C485 C486 1.341 . S
C485 C487 1.371 . S
C486 C485 1.341 . S
C486 C490 1.394 . S
C486 H502 0.930 . S
C487 C485 1.371 . S
C487 C488 1.392 . S
C487 H503 0.931 . S
C488 C487 1.392 . S
C488 C489 1.331 . S
C488 H506 0.932 . S
C489 C488 1.331 . S
C489 C490 1.336 . S
C490 C486 1.394 . S
C490 C489 1.336 . S
C490 H505 0.929 . S
C491 C481 1.386 . S
C491 C484 1.357 . S
C491 H504 0.928 . S
H492 C468 0.931 . S
H493 C470 0.930 . S
H494 C472 0.929 . S
H495 C473 0.931 . S
H496 C475 0.930 . S
H497 C479 0.931 . S
H498 C477 0.931 . S
H499 C481 0.931 . S
H500 C482 0.929 . S
H501 C483 0.930 . S
H502 C486 0.930 . S
H503 C487 0.931 . S
H504 C491 0.928 . S
H505 C490 0.929 . S
H506 C488 0.932 . S
C507 C508 1.386 . S
C507 C509 1.397 . S
C507 H531 0.931 . S
C508 C507 1.386 . S
C508 C512 1.397 . S
C509 C507 1.397 . S
C509 C510 1.384 . S
C509 H532 0.930 . S
C510 C509 1.384 . S
C510 C511 1.377 . S
C510 C513 1.481 . S
C511 C510 1.377 . S
C511 C512 1.389 . S
C511 H533 0.929 . S
C512 C508 1.397 . S
C512 C511 1.389 . S
C512 H534 0.931 . S
C513 C510 1.481 . S
C513 C514 1.387 . S
C513 C518 1.390 . S
C514 C513 1.387 . S
C514 C515 1.401 . S
C514 H535 0.930 . S
C515 C514 1.401 . S
C515 C516 1.376 . S
C515 C524 1.511 . S
C516 C515 1.376 . S
C516 C517 1.392 . S
C516 H537 0.931 . S
C517 C516 1.392 . S
C517 C518 1.361 . S
C517 C519 1.500 . S
C518 C513 1.390 . S
C518 C517 1.361 . S
C518 H536 0.931 . S
C519 C517 1.500 . S
C519 C520 1.371 . S
C519 C521 1.365 . S
C520 C519 1.371 . S
C520 C530 1.386 . S
C520 H538 0.931 . S
C521 C519 1.365 . S
C521 C522 1.409 . S
C521 H539 0.929 . S
C522 C521 1.409 . S
C522 C523 1.380 . S
C522 H540 0.930 . S
C523 C522 1.380 . S
C523 C530 1.357 . S
C524 C515 1.511 . S
C524 C525 1.341 . S
C524 C526 1.371 . S
C525 C524 1.341 . S
C525 C529 1.394 . S
C525 H541 0.930 . S
C526 C524 1.371 . S
C526 C527 1.392 . S
C526 H542 0.931 . S
C527 C526 1.392 . S
C527 C528 1.331 . S
C527 H545 0.932 . S
C528 C527 1.331 . S
C528 C529 1.336 . S
C529 C525 1.394 . S
C529 C528 1.336 . S
C529 H544 0.929 . S
C530 C520 1.386 . S
C530 C523 1.357 . S
C530 H543 0.928 . S
H531 C507 0.931 . S
H532 C509 0.930 . S
H533 C511 0.929 . S
H534 C512 0.931 . S
H535 C514 0.930 . S
H536 C518 0.931 . S
H537 C516 0.931 . S
H538 C520 0.931 . S
H539 C521 0.929 . S
H540 C522 0.930 . S
H541 C525 0.930 . S
H542 C526 0.931 . S
H543 C530 0.928 . S
H544 C529 0.929 . S
H545 C527 0.932 . S
C546 C547 1.386 . S
C546 C548 1.397 . S
C546 H570 0.931 . S
C547 C546 1.386 . S
C547 C551 1.397 . S
C548 C546 1.397 . S
C548 C549 1.384 . S
C548 H571 0.930 . S
C549 C548 1.384 . S
C549 C550 1.377 . S
C549 C552 1.481 . S
C550 C549 1.377 . S
C550 C551 1.389 . S
C550 H572 0.929 . S
C551 C547 1.397 . S
C551 C550 1.389 . S
C551 H573 0.931 . S
C552 C549 1.481 . S
C552 C553 1.387 . S
C552 C557 1.390 . S
C553 C552 1.387 . S
C553 C554 1.401 . S
C553 H574 0.930 . S
C554 C553 1.401 . S
C554 C555 1.376 . S
C554 C563 1.511 . S
C555 C554 1.376 . S
C555 C556 1.392 . S
C555 H576 0.931 . S
C556 C555 1.392 . S
C556 C557 1.361 . S
C556 C558 1.500 . S
C557 C552 1.390 . S
C557 C556 1.361 . S
C557 H575 0.931 . S
C558 C556 1.500 . S
C558 C559 1.371 . S
C558 C560 1.365 . S
C559 C558 1.371 . S
C559 C569 1.386 . S
C559 H577 0.931 . S
C560 C558 1.365 . S
C560 C561 1.409 . S
C560 H578 0.929 . S
C561 C560 1.409 . S
C561 C562 1.380 . S
C561 H579 0.930 . S
C562 C561 1.380 . S
C562 C569 1.357 . S
C563 C554 1.511 . S
C563 C564 1.341 . S
C563 C565 1.371 . S
C564 C563 1.341 . S
C564 C568 1.394 . S
C564 H580 0.930 . S
C565 C563 1.371 . S
C565 C566 1.392 . S
C565 H581 0.931 . S
C566 C565 1.392 . S
C566 C567 1.331 . S
C566 H584 0.932 . S
C567 C566 1.331 . S
C567 C568 1.336 . S
C568 C564 1.394 . S
C568 C567 1.336 . S
C568 H583 0.929 . S
C569 C559 1.386 . S
C569 C562 1.357 . S
C569 H582 0.928 . S
H570 C546 0.931 . S
H571 C548 0.930 . S
H572 C550 0.929 . S
H573 C551 0.931 . S
H574 C553 0.930 . S
H575 C557 0.931 . S
H576 C555 0.931 . S
H577 C559 0.931 . S
H578 C560 0.929 . S
H579 C561 0.930 . S
H580 C564 0.930 . S
H581 C565 0.931 . S
H582 C569 0.928 . S
H583 C568 0.929 . S
H584 C566 0.932 . S
C585 C586 1.386 . S
C585 C587 1.397 . S
C585 H609 0.931 . S
C586 C585 1.386 . S
C586 C590 1.397 . S
C587 C585 1.397 . S
C587 C588 1.384 . S
C587 H610 0.930 . S
C588 C587 1.384 . S
C588 C589 1.377 . S
C588 C591 1.481 . S
C589 C588 1.377 . S
C589 C590 1.389 . S
C589 H611 0.929 . S
C590 C586 1.397 . S
C590 C589 1.389 . S
C590 H612 0.931 . S
C591 C588 1.481 . S
C591 C592 1.387 . S
C591 C596 1.390 . S
C592 C591 1.387 . S
C592 C593 1.401 . S
C592 H613 0.930 . S
C593 C592 1.401 . S
C593 C594 1.376 . S
C593 C602 1.511 . S
C594 C593 1.376 . S
C594 C595 1.392 . S
C594 H615 0.931 . S
C595 C594 1.392 . S
C595 C596 1.361 . S
C595 C597 1.500 . S
C596 C591 1.390 . S
C596 C595 1.361 . S
C596 H614 0.931 . S
C597 C595 1.500 . S
C597 C598 1.371 . S
C597 C599 1.365 . S
C598 C597 1.371 . S
C598 C608 1.386 . S
C598 H616 0.931 . S
C599 C597 1.365 . S
C599 C600 1.409 . S
C599 H617 0.929 . S
C600 C599 1.409 . S
C600 C601 1.380 . S
C600 H618 0.930 . S
C601 C600 1.380 . S
C601 C608 1.357 . S
C602 C593 1.511 . S
C602 C603 1.341 . S
C602 C604 1.371 . S
C603 C602 1.341 . S
C603 C607 1.394 . S
C603 H619 0.930 . S
C604 C602 1.371 . S
C604 C605 1.392 . S
C604 H620 0.931 . S
C605 C604 1.392 . S
C605 C606 1.331 . S
C605 H623 0.932 . S
C606 C605 1.331 . S
C606 C607 1.336 . S
C607 C603 1.394 . S
C607 C606 1.336 . S
C607 H622 0.929 . S
C608 C598 1.386 . S
C608 C601 1.357 . S
C608 H621 0.928 . S
H609 C585 0.931 . S
H610 C587 0.930 . S
H611 C589 0.929 . S
H612 C590 0.931 . S
H613 C592 0.930 . S
H614 C596 0.931 . S
H615 C594 0.931 . S
H616 C598 0.931 . S
H617 C599 0.929 . S
H618 C600 0.930 . S
H619 C603 0.930 . S
H620 C604 0.931 . S
H621 C608 0.928 . S
H622 C607 0.929 . S
H623 C605 0.932 . S
O624 Cd625 2.223 . S
O624 C632 1.315 . S
Cd625 O624 2.223 . S
Cd625 O628 2.297 . S
Cd625 O629 2.439 . S
Cd625 O635 2.240 . S
Cd626 O627 2.240 . S
Cd626 O634 2.223 . S
Cd626 O636 2.297 . S
Cd626 O637 2.439 . S
O627 Cd626 2.240 . S
O627 C632 1.279 . S
O628 Cd625 2.297 . S
O628 C630 1.247 . S
O629 Cd625 2.439 . S
O629 C630 1.208 . S
C630 O628 1.247 . S
C630 O629 1.208 . S
C631 O636 1.247 . S
C631 O637 1.208 . S
C632 O624 1.315 . S
C632 O627 1.279 . S
C633 O634 1.315 . S
C633 O635 1.279 . S
O634 Cd626 2.223 . S
O634 C633 1.315 . S
O635 Cd625 2.240 . S
O635 C633 1.279 . S
O636 Cd626 2.297 . S
O636 C631 1.247 . S
O637 Cd626 2.439 . S
O637 C631 1.208 . S
O638 Cd639 2.223 . S
O638 C646 1.315 . S
Cd639 O638 2.223 . S
Cd639 O642 2.297 . S
Cd639 O643 2.439 . S
Cd639 O649 2.240 . S
Cd640 O641 2.240 . S
Cd640 O648 2.223 . S
Cd640 O650 2.297 . S
Cd640 O651 2.439 . S
O641 Cd640 2.240 . S
O641 C646 1.279 . S
O642 Cd639 2.297 . S
O642 C644 1.247 . S
O643 Cd639 2.439 . S
O643 C644 1.208 . S
C644 O642 1.247 . S
C644 O643 1.208 . S
C645 O650 1.247 . S
C645 O651 1.208 . S
C646 O638 1.315 . S
C646 O641 1.279 . S
C647 O648 1.315 . S
C647 O649 1.279 . S
O648 Cd640 2.223 . S
O648 C647 1.315 . S
O649 Cd639 2.240 . S
O649 C647 1.279 . S
O650 Cd640 2.297 . S
O650 C645 1.247 . S
O651 Cd640 2.439 . S
O651 C645 1.208 . S
O652 Cd653 2.223 1_556 S
O652 C660 1.315 . S
Cd653 O652 2.223 1_554 S
Cd653 O656 2.297 . S
Cd653 O657 2.439 . S
Cd653 O663 2.240 . S
Cd654 O655 2.240 . S
Cd654 O662 2.223 . S
Cd654 O664 2.297 1_556 S
Cd654 O665 2.439 1_556 S
O655 Cd654 2.240 . S
O655 C660 1.279 . S
O656 Cd653 2.297 . S
O656 C658 1.247 . S
O657 Cd653 2.439 . S
O657 C658 1.208 . S
C658 O656 1.247 . S
C658 O657 1.208 . S
C659 O664 1.247 . S
C659 O665 1.208 . S
C660 O652 1.315 . S
C660 O655 1.279 . S
C661 O662 1.315 . S
C661 O663 1.279 1_556 S
O662 Cd654 2.223 . S
O662 C661 1.315 . S
O663 Cd653 2.240 . S
O663 C661 1.279 1_554 S
O664 Cd654 2.297 1_554 S
O664 C659 1.247 . S
O665 Cd654 2.439 1_554 S
O665 C659 1.208 . S
O666 Cd667 2.223 . S
O666 C674 1.315 . S
Cd667 O666 2.223 . S
Cd667 O670 2.297 . S
Cd667 O671 2.439 . S
Cd667 O677 2.240 . S
Cd668 O669 2.240 . S
Cd668 O676 2.223 . S
Cd668 O678 2.297 . S
Cd668 O679 2.439 . S
O669 Cd668 2.240 . S
O669 C674 1.279 . S
O670 Cd667 2.297 . S
O670 C672 1.247 . S
O671 Cd667 2.439 . S
O671 C672 1.208 . S
C672 O670 1.247 . S
C672 O671 1.208 . S
C673 O678 1.247 . S
C673 O679 1.208 . S
C674 O666 1.315 . S
C674 O669 1.279 . S
C675 O676 1.315 . S
C675 O677 1.279 . S
O676 Cd668 2.223 . S
O676 C675 1.315 . S
O677 Cd667 2.240 . S
O677 C675 1.279 . S
O678 Cd668 2.297 . S
O678 C673 1.247 . S
O679 Cd668 2.439 . S
O679 C673 1.208 . S
O680 Cd681 2.223 . S
O680 C688 1.315 . S
Cd681 O680 2.223 . S
Cd681 O684 2.297 . S
Cd681 O685 2.439 . S
Cd681 O691 2.240 . S
Cd682 O683 2.240 . S
Cd682 O690 2.223 . S
Cd682 O692 2.297 . S
Cd682 O693 2.439 . S
O683 Cd682 2.240 . S
O683 C688 1.279 . S
O684 Cd681 2.297 . S
O684 C686 1.247 . S
O685 Cd681 2.439 . S
O685 C686 1.208 . S
C686 O684 1.247 . S
C686 O685 1.208 . S
C687 O692 1.247 . S
C687 O693 1.208 . S
C688 O680 1.315 . S
C688 O683 1.279 . S
C689 O690 1.315 . S
C689 O691 1.279 . S
O690 Cd682 2.223 . S
O690 C689 1.315 . S
O691 Cd681 2.240 . S
O691 C689 1.279 . S
O692 Cd682 2.297 . S
O692 C687 1.247 . S
O693 Cd682 2.439 . S
O693 C687 1.208 . S
O694 Cd695 2.223 . S
O694 C702 1.315 . S
Cd695 O694 2.223 . S
Cd695 O698 2.297 . S
Cd695 O699 2.439 . S
Cd695 O705 2.240 . S
Cd696 O697 2.240 . S
Cd696 O704 2.223 . S
Cd696 O706 2.297 . S
Cd696 O707 2.439 . S
O697 Cd696 2.240 . S
O697 C702 1.279 . S
O698 Cd695 2.297 . S
O698 C700 1.247 . S
O699 Cd695 2.439 . S
O699 C700 1.208 . S
C700 O698 1.247 . S
C700 O699 1.208 . S
C701 O706 1.247 . S
C701 O707 1.208 . S
C702 O694 1.315 . S
C702 O697 1.279 . S
C703 O704 1.315 . S
C703 O705 1.279 . S
O704 Cd696 2.223 . S
O704 C703 1.315 . S
O705 Cd695 2.240 . S
O705 C703 1.279 . S
O706 Cd696 2.297 . S
O706 C701 1.247 . S
O707 Cd696 2.439 . S
O707 C701 1.208 . S
O708 Cd709 2.223 . S
O708 C716 1.315 . S
Cd709 O708 2.223 . S
Cd709 O712 2.297 . S
Cd709 O713 2.439 . S
Cd709 O719 2.240 . S
Cd710 O711 2.240 . S
Cd710 O718 2.223 . S
Cd710 O720 2.297 . S
Cd710 O721 2.439 . S
O711 Cd710 2.240 . S
O711 C716 1.279 . S
O712 Cd709 2.297 . S
O712 C714 1.247 . S
O713 Cd709 2.439 . S
O713 C714 1.208 . S
C714 O712 1.247 . S
C714 O713 1.208 . S
C715 O720 1.247 . S
C715 O721 1.208 . S
C716 O708 1.315 . S
C716 O711 1.279 . S
C717 O718 1.315 . S
C717 O719 1.279 . S
O718 Cd710 2.223 . S
O718 C717 1.315 . S
O719 Cd709 2.240 . S
O719 C717 1.279 . S
O720 Cd710 2.297 . S
O720 C715 1.247 . S
O721 Cd710 2.439 . S
O721 C715 1.208 . S
O722 Cd723 2.223 1_545 S
O722 C730 1.315 . S
Cd723 O722 2.223 1_565 S
Cd723 O726 2.297 . S
Cd723 O727 2.439 . S
Cd723 O733 2.240 1_565 S
Cd724 O725 2.240 . S
Cd724 O732 2.223 . S
Cd724 O734 2.297 . S
Cd724 O735 2.439 1_545 S
O725 Cd724 2.240 . S
O725 C730 1.279 . S
O726 Cd723 2.297 . S
O726 C728 1.247 . S
O727 Cd723 2.439 . S
O727 C728 1.208 . S
C728 O726 1.247 . S
C728 O727 1.208 . S
C729 O734 1.247 1_565 S
C729 O735 1.208 . S
C730 O722 1.315 . S
C730 O725 1.279 . S
C731 O732 1.315 . S
C731 O733 1.279 . S
O732 Cd724 2.223 . S
O732 C731 1.315 . S
O733 Cd723 2.240 1_545 S
O733 C731 1.279 . S
O734 Cd724 2.297 . S
O734 C729 1.247 1_545 S
O735 Cd724 2.439 1_565 S
O735 C729 1.208 . S
O736 Cd737 2.223 . S
O736 C744 1.315 . S
Cd737 O736 2.223 . S
Cd737 O740 2.297 1_655 S
Cd737 O741 2.439 1_655 S
Cd737 O747 2.240 . S
Cd738 O739 2.240 . S
Cd738 O746 2.223 1_455 S
Cd738 O748 2.297 . S
Cd738 O749 2.439 . S
O739 Cd738 2.240 . S
O739 C744 1.279 1_455 S
O740 Cd737 2.297 1_455 S
O740 C742 1.247 . S
O741 Cd737 2.439 1_455 S
O741 C742 1.208 . S
C742 O740 1.247 . S
C742 O741 1.208 . S
C743 O748 1.247 . S
C743 O749 1.208 . S
C744 O736 1.315 . S
C744 O739 1.279 1_655 S
C745 O746 1.315 . S
C745 O747 1.279 . S
O746 Cd738 2.223 1_655 S
O746 C745 1.315 . S
O747 Cd737 2.240 . S
O747 C745 1.279 . S
O748 Cd738 2.297 . S
O748 C743 1.247 . S
O749 Cd738 2.439 . S
O749 C743 1.208 . S
O750 Cd751 2.223 . S
O750 C758 1.315 . S
Cd751 O750 2.223 . S
Cd751 O754 2.297 . S
Cd751 O755 2.439 . S
Cd751 O761 2.240 . S
Cd752 O753 2.240 . S
Cd752 O760 2.223 . S
Cd752 O762 2.297 . S
Cd752 O763 2.439 . S
O753 Cd752 2.240 . S
O753 C758 1.279 . S
O754 Cd751 2.297 . S
O754 C756 1.247 . S
O755 Cd751 2.439 . S
O755 C756 1.208 . S
C756 O754 1.247 . S
C756 O755 1.208 . S
C757 O762 1.247 . S
C757 O763 1.208 . S
C758 O750 1.315 . S
C758 O753 1.279 . S
C759 O760 1.315 . S
C759 O761 1.279 . S
O760 Cd752 2.223 . S
O760 C759 1.315 . S
O761 Cd751 2.240 . S
O761 C759 1.279 . S
O762 Cd752 2.297 . S
O762 C757 1.247 . S
O763 Cd752 2.439 . S
O763 C757 1.208 . S
O764 Cd765 2.223 1_655 S
O764 C772 1.315 . S
Cd765 O764 2.223 1_455 S
Cd765 O768 2.297 . S
Cd765 O769 2.439 . S
Cd765 O775 2.240 . S
Cd766 O767 2.240 . S
Cd766 O774 2.223 . S
Cd766 O776 2.297 1_655 S
Cd766 O777 2.439 1_655 S
O767 Cd766 2.240 . S
O767 C772 1.279 . S
O768 Cd765 2.297 . S
O768 C770 1.247 . S
O769 Cd765 2.439 . S
O769 C770 1.208 . S
C770 O768 1.247 . S
C770 O769 1.208 . S
C771 O776 1.247 . S
C771 O777 1.208 . S
C772 O764 1.315 . S
C772 O767 1.279 . S
C773 O774 1.315 . S
C773 O775 1.279 1_655 S
O774 Cd766 2.223 . S
O774 C773 1.315 . S
O775 Cd765 2.240 . S
O775 C773 1.279 1_455 S
O776 Cd766 2.297 1_455 S
O776 C771 1.247 . S
O777 Cd766 2.439 1_455 S
O777 C771 1.208 . S
O778 Cd779 2.223 . S
O778 C786 1.315 . S
Cd779 O778 2.223 . S
Cd779 O782 2.297 . S
Cd779 O783 2.439 . S
Cd779 O789 2.240 . S
Cd780 O781 2.240 . S
Cd780 O788 2.223 . S
Cd780 O790 2.297 . S
Cd780 O791 2.439 . S
O781 Cd780 2.240 . S
O781 C786 1.279 . S
O782 Cd779 2.297 . S
O782 C784 1.247 . S
O783 Cd779 2.439 . S
O783 C784 1.208 . S
C784 O782 1.247 . S
C784 O783 1.208 . S
C785 O790 1.247 . S
C785 O791 1.208 . S
C786 O778 1.315 . S
C786 O781 1.279 . S
C787 O788 1.315 . S
C787 O789 1.279 . S
O788 Cd780 2.223 . S
O788 C787 1.315 . S
O789 Cd779 2.240 . S
O789 C787 1.279 . S
O790 Cd780 2.297 . S
O790 C785 1.247 . S
O791 Cd780 2.439 . S
O791 C785 1.208 . S
H792 C810 0.951 . S
H793 C812 0.951 . S
H794 C814 0.950 . S
H795 C815 0.950 . S
H796 C817 0.950 . S
H797 C820 0.950 . S
H798 C821 0.950 . S
H799 C823 0.950 . S
H800 C824 0.950 . S
H801 C825 0.951 . S
H802 C827 0.951 . S
H803 C829 0.950 . S
H804 C830 0.950 . S
H805 C832 0.950 . S
H806 C835 0.950 . S
H807 C836 0.950 1_554 S
H808 C838 0.950 . S
H809 C839 0.950 . S
C810 H792 0.951 . S
C810 C811 1.366 . S
C810 C812 1.388 . S
C811 C810 1.366 . S
C811 C815 1.385 . S
C812 H793 0.951 . S
C812 C810 1.388 . S
C812 C813 1.366 . S
C813 C812 1.366 . S
C813 C814 1.414 . S
C813 C816 1.499 . S
C814 H794 0.950 . S
C814 C813 1.414 . S
C814 C815 1.374 . S
C815 H795 0.950 . S
C815 C811 1.385 . S
C815 C814 1.374 . S
C816 C813 1.499 . S
C816 C817 1.373 . S
C816 C818 1.389 . S
C817 H796 0.950 . S
C817 C816 1.373 . S
C817 C833 1.377 . S
C818 C816 1.389 . S
C818 C819 1.524 . S
C818 C832 1.377 . S
C819 C818 1.524 . S
C819 C820 1.397 . S
C819 C824 1.363 . S
C820 H797 0.950 . S
C820 C819 1.397 . S
C820 C821 1.334 . S
C821 H798 0.950 . S
C821 C820 1.334 . S
C821 C822 1.287 . S
C822 C821 1.287 . S
C822 C823 1.524 . S
C822 H841 0.913 . S
C823 H799 0.950 . S
C823 C822 1.524 . S
C823 C824 1.415 . S
C824 H800 0.950 . S
C824 C819 1.363 . S
C824 C823 1.415 . S
C825 H801 0.951 . S
C825 C826 1.366 . S
C825 C827 1.388 1_554 S
C826 C825 1.366 . S
C826 C830 1.385 1_554 S
C827 H802 0.951 . S
C827 C825 1.388 1_556 S
C827 C828 1.366 . S
C828 C827 1.366 . S
C828 C829 1.414 . S
C828 C831 1.499 . S
C829 H803 0.950 . S
C829 C828 1.414 . S
C829 C830 1.374 . S
C830 H804 0.950 . S
C830 C826 1.385 1_556 S
C830 C829 1.374 . S
C831 C828 1.499 . S
C831 C832 1.373 . S
C831 C833 1.389 . S
C832 H805 0.950 . S
C832 C818 1.377 . S
C832 C831 1.373 . S
C833 C817 1.377 . S
C833 C831 1.389 . S
C833 C834 1.524 . S
C834 C833 1.524 . S
C834 C835 1.397 . S
C834 C839 1.363 . S
C835 H806 0.950 . S
C835 C834 1.397 . S
C835 C836 1.334 . S
C836 H807 0.950 1_556 S
C836 C835 1.334 . S
C836 C837 1.287 1_556 S
C837 C836 1.287 1_554 S
C837 C838 1.524 1_554 S
C837 H840 0.999 . S
C838 H808 0.950 . S
C838 C837 1.524 1_556 S
C838 C839 1.415 . S
C839 H809 0.950 . S
C839 C834 1.363 . S
C839 C838 1.415 . S
H840 C837 0.999 . S
H841 C822 0.913 . S
H842 C860 0.951 . S
H843 C862 0.951 . S
H844 C864 0.950 . S
H845 C865 0.950 . S
H846 C867 0.950 . S
H847 C870 0.950 . S
H848 C871 0.950 . S
H849 C873 0.950 . S
H850 C874 0.950 . S
H851 C875 0.951 . S
H852 C877 0.951 . S
H853 C879 0.950 . S
H854 C880 0.950 . S
H855 C882 0.950 . S
H856 C885 0.950 . S
H857 C886 0.950 . S
H858 C888 0.950 . S
H859 C889 0.950 . S
C860 H842 0.951 . S
C860 C861 1.366 . S
C860 C862 1.388 . S
C861 C860 1.366 . S
C861 C865 1.385 . S
C862 H843 0.951 . S
C862 C860 1.388 . S
C862 C863 1.366 . S
C863 C862 1.366 . S
C863 C864 1.414 1_655 S
C863 C866 1.499 1_655 S
C864 H844 0.950 . S
C864 C863 1.414 1_455 S
C864 C865 1.374 1_455 S
C865 H845 0.950 . S
C865 C861 1.385 . S
C865 C864 1.374 1_655 S
C866 C863 1.499 1_455 S
C866 C867 1.373 . S
C866 C868 1.389 . S
C867 H846 0.950 . S
C867 C866 1.373 . S
C867 C883 1.377 . S
C868 C866 1.389 . S
C868 C869 1.524 1_455 S
C868 C882 1.377 . S
C869 C868 1.524 1_655 S
C869 C870 1.397 . S
C869 C874 1.363 . S
C870 H847 0.950 . S
C870 C869 1.397 . S
C870 C871 1.334 . S
C871 H848 0.950 . S
C871 C870 1.334 . S
C871 C872 1.287 . S
C872 C871 1.287 . S
C872 C873 1.524 . S
C872 H891 0.913 . S
C873 H849 0.950 . S
C873 C872 1.524 . S
C873 C874 1.415 . S
C874 H850 0.950 . S
C874 C869 1.363 . S
C874 C873 1.415 . S
C875 H851 0.951 . S
C875 C876 1.366 . S
C875 C877 1.388 . S
C876 C875 1.366 . S
C876 C880 1.385 . S
C877 H852 0.951 . S
C877 C875 1.388 . S
C877 C878 1.366 . S
C878 C877 1.366 . S
C878 C879 1.414 . S
C878 C881 1.499 . S
C879 H853 0.950 . S
C879 C878 1.414 . S
C879 C880 1.374 . S
C880 H854 0.950 . S
C880 C876 1.385 . S
C880 C879 1.374 . S
C881 C878 1.499 . S
C881 C882 1.373 . S
C881 C883 1.389 . S
C882 H855 0.950 . S
C882 C868 1.377 . S
C882 C881 1.373 . S
C883 C867 1.377 . S
C883 C881 1.389 . S
C883 C884 1.524 . S
C884 C883 1.524 . S
C884 C885 1.397 . S
C884 C889 1.363 . S
C885 H856 0.950 . S
C885 C884 1.397 . S
C885 C886 1.334 . S
C886 H857 0.950 . S
C886 C885 1.334 . S
C886 C887 1.287 . S
C887 C886 1.287 . S
C887 C888 1.524 . S
C887 H890 0.999 . S
C888 H858 0.950 . S
C888 C887 1.524 . S
C888 C889 1.415 . S
C889 H859 0.950 . S
C889 C884 1.363 . S
C889 C888 1.415 . S
H890 C887 0.999 . S
H891 C872 0.913 . S
H892 C910 0.951 . S
H893 C912 0.951 . S
H894 C914 0.950 . S
H895 C915 0.950 . S
H896 C917 0.950 . S
H897 C920 0.950 . S
H898 C921 0.950 . S
H899 C923 0.950 . S
H900 C924 0.950 . S
H901 C925 0.951 . S
H902 C927 0.951 . S
H903 C929 0.950 . S
H904 C930 0.950 . S
H905 C932 0.950 . S
H906 C935 0.950 . S
H907 C936 0.950 . S
H908 C938 0.950 . S
H909 C939 0.950 . S
C910 H892 0.951 . S
C910 C911 1.366 . S
C910 C912 1.388 . S
C911 C910 1.366 . S
C911 C915 1.385 . S
C912 H893 0.951 . S
C912 C910 1.388 . S
C912 C913 1.366 . S
C913 C912 1.366 . S
C913 C914 1.414 . S
C913 C916 1.499 . S
C914 H894 0.950 . S
C914 C913 1.414 . S
C914 C915 1.374 . S
C915 H895 0.950 . S
C915 C911 1.385 . S
C915 C914 1.374 . S
C916 C913 1.499 . S
C916 C917 1.373 . S
C916 C918 1.389 . S
C917 H896 0.950 . S
C917 C916 1.373 . S
C917 C933 1.377 . S
C918 C916 1.389 . S
C918 C919 1.524 . S
C918 C932 1.377 . S
C919 C918 1.524 . S
C919 C920 1.397 . S
C919 C924 1.363 . S
C920 H897 0.950 . S
C920 C919 1.397 . S
C920 C921 1.334 . S
C921 H898 0.950 . S
C921 C920 1.334 . S
C921 C922 1.287 . S
C922 C921 1.287 . S
C922 C923 1.524 . S
C922 H941 0.913 . S
C923 H899 0.950 . S
C923 C922 1.524 . S
C923 C924 1.415 . S
C924 H900 0.950 . S
C924 C919 1.363 . S
C924 C923 1.415 . S
C925 H901 0.951 . S
C925 C926 1.366 . S
C925 C927 1.388 . S
C926 C925 1.366 . S
C926 C930 1.385 . S
C927 H902 0.951 . S
C927 C925 1.388 . S
C927 C928 1.366 . S
C928 C927 1.366 . S
C928 C929 1.414 . S
C928 C931 1.499 . S
C929 H903 0.950 . S
C929 C928 1.414 . S
C929 C930 1.374 . S
C930 H904 0.950 . S
C930 C926 1.385 . S
C930 C929 1.374 . S
C931 C928 1.499 . S
C931 C932 1.373 . S
C931 C933 1.389 . S
C932 H905 0.950 . S
C932 C918 1.377 . S
C932 C931 1.373 . S
C933 C917 1.377 . S
C933 C931 1.389 . S
C933 C934 1.524 . S
C934 C933 1.524 . S
C934 C935 1.397 . S
C934 C939 1.363 . S
C935 H906 0.950 . S
C935 C934 1.397 . S
C935 C936 1.334 . S
C936 H907 0.950 . S
C936 C935 1.334 . S
C936 C937 1.287 . S
C937 C936 1.287 . S
C937 C938 1.524 . S
C937 H940 0.999 . S
C938 H908 0.950 . S
C938 C937 1.524 . S
C938 C939 1.415 . S
C939 H909 0.950 . S
C939 C934 1.363 . S
C939 C938 1.415 . S
H940 C937 0.999 . S
H941 C922 0.913 . S
H942 C960 0.951 . S
H943 C962 0.951 1_545 S
H944 C964 0.950 . S
H945 C965 0.950 . S
H946 C967 0.950 . S
H947 C970 0.950 . S
H948 C971 0.950 . S
H949 C973 0.950 . S
H950 C974 0.950 . S
H951 C975 0.951 . S
H952 C977 0.951 1_565 S
H953 C979 0.950 . S
H954 C980 0.950 . S
H955 C982 0.950 . S
H956 C985 0.950 . S
H957 C986 0.950 . S
H958 C988 0.950 . S
H959 C989 0.950 . S
C960 H942 0.951 . S
C960 C961 1.366 . S
C960 C962 1.388 . S
C961 C960 1.366 . S
C961 C965 1.385 . S
C962 H943 0.951 1_565 S
C962 C960 1.388 . S
C962 C963 1.366 1_455 S
C963 C962 1.366 1_655 S
C963 C964 1.414 . S
C963 C966 1.499 . S
C964 H944 0.950 . S
C964 C963 1.414 . S
C964 C965 1.374 1_655 S
C965 H945 0.950 . S
C965 C961 1.385 . S
C965 C964 1.374 1_455 S
C966 C963 1.499 . S
C966 C967 1.373 . S
C966 C968 1.389 1_565 S
C967 H946 0.950 . S
C967 C966 1.373 . S
C967 C983 1.377 . S
C968 C966 1.389 1_545 S
C968 C969 1.524 . S
C968 C982 1.377 . S
C969 C968 1.524 . S
C969 C970 1.397 . S
C969 C974 1.363 . S
C970 H947 0.950 . S
C970 C969 1.397 . S
C970 C971 1.334 . S
C971 H948 0.950 . S
C971 C970 1.334 . S
C971 C972 1.287 1_655 S
C972 C971 1.287 1_455 S
C972 C973 1.524 . S
C972 H991 0.913 . S
C973 H949 0.950 . S
C973 C972 1.524 . S
C973 C974 1.415 1_455 S
C974 H950 0.950 . S
C974 C969 1.363 . S
C974 C973 1.415 1_655 S
C975 H951 0.951 . S
C975 C976 1.366 . S
C975 C977 1.388 . S
C976 C975 1.366 . S
C976 C980 1.385 . S
C977 H952 0.951 1_545 S
C977 C975 1.388 . S
C977 C978 1.366 . S
C978 C977 1.366 . S
C978 C979 1.414 . S
C978 C981 1.499 . S
C979 H953 0.950 . S
C979 C978 1.414 . S
C979 C980 1.374 . S
C980 H954 0.950 . S
C980 C976 1.385 . S
C980 C979 1.374 . S
C981 C978 1.499 . S
C981 C982 1.373 . S
C981 C983 1.389 1_545 S
C982 H955 0.950 . S
C982 C968 1.377 . S
C982 C981 1.373 . S
C983 C967 1.377 . S
C983 C981 1.389 1_565 S
C983 C984 1.524 . S
C984 C983 1.524 . S
C984 C985 1.397 . S
C984 C989 1.363 . S
C985 H956 0.950 . S
C985 C984 1.397 . S
C985 C986 1.334 . S
C986 H957 0.950 . S
C986 C985 1.334 . S
C986 C987 1.287 . S
C987 C986 1.287 . S
C987 C988 1.524 . S
C987 H990 0.999 . S
C988 H958 0.950 . S
C988 C987 1.524 . S
C988 C989 1.415 . S
C989 H959 0.950 . S
C989 C984 1.363 . S
C989 C988 1.415 . S
H990 C987 0.999 . S
H991 C972 0.913 . S
H992 C1010 0.951 . S
H993 C1012 0.951 . S
H994 C1014 0.950 . S
H995 C1015 0.950 . S
H996 C1017 0.950 . S
H997 C1020 0.950 . S
H998 C1021 0.950 . S
H999 C1023 0.950 . S
H1000 C1024 0.950 . S
H1001 C1025 0.951 . S
H1002 C1027 0.951 . S
H1003 C1029 0.950 . S
H1004 C1030 0.950 . S
H1005 C1032 0.950 . S
H1006 C1035 0.950 . S
H1007 C1036 0.950 . S
H1008 C1038 0.950 . S
H1009 C1039 0.950 . S
C1010 H992 0.951 . S
C1010 C1011 1.366 . S
C1010 C1012 1.388 . S
C1011 C1010 1.366 . S
C1011 C1015 1.385 . S
C1012 H993 0.951 . S
C1012 C1010 1.388 . S
C1012 C1013 1.366 . S
C1013 C1012 1.366 . S
C1013 C1014 1.414 . S
C1013 C1016 1.499 . S
C1014 H994 0.950 . S
C1014 C1013 1.414 . S
C1014 C1015 1.374 . S
C1015 H995 0.950 . S
C1015 C1011 1.385 . S
C1015 C1014 1.374 . S
C1016 C1013 1.499 . S
C1016 C1017 1.373 . S
C1016 C1018 1.389 . S
C1017 H996 0.950 . S
C1017 C1016 1.373 . S
C1017 C1033 1.377 . S
C1018 C1016 1.389 . S
C1018 C1019 1.524 . S
C1018 C1032 1.377 . S
C1019 C1018 1.524 . S
C1019 C1020 1.397 . S
C1019 C1024 1.363 . S
C1020 H997 0.950 . S
C1020 C1019 1.397 . S
C1020 C1021 1.334 . S
C1021 H998 0.950 . S
C1021 C1020 1.334 . S
C1021 C1022 1.287 . S
C1022 C1021 1.287 . S
C1022 C1023 1.524 . S
C1022 H1041 0.913 . S
C1023 H999 0.950 . S
C1023 C1022 1.524 . S
C1023 C1024 1.415 . S
C1024 H1000 0.950 . S
C1024 C1019 1.363 . S
C1024 C1023 1.415 . S
C1025 H1001 0.951 . S
C1025 C1026 1.366 . S
C1025 C1027 1.388 . S
C1026 C1025 1.366 . S
C1026 C1030 1.385 . S
C1027 H1002 0.951 . S
C1027 C1025 1.388 . S
C1027 C1028 1.366 . S
C1028 C1027 1.366 . S
C1028 C1029 1.414 . S
C1028 C1031 1.499 . S
C1029 H1003 0.950 . S
C1029 C1028 1.414 . S
C1029 C1030 1.374 . S
C1030 H1004 0.950 . S
C1030 C1026 1.385 . S
C1030 C1029 1.374 . S
C1031 C1028 1.499 . S
C1031 C1032 1.373 . S
C1031 C1033 1.389 . S
C1032 H1005 0.950 . S
C1032 C1018 1.377 . S
C1032 C1031 1.373 . S
C1033 C1017 1.377 . S
C1033 C1031 1.389 . S
C1033 C1034 1.524 . S
C1034 C1033 1.524 . S
C1034 C1035 1.397 . S
C1034 C1039 1.363 . S
C1035 H1006 0.950 . S
C1035 C1034 1.397 . S
C1035 C1036 1.334 . S
C1036 H1007 0.950 . S
C1036 C1035 1.334 . S
C1036 C1037 1.287 . S
C1037 C1036 1.287 . S
C1037 C1038 1.524 . S
C1037 H1040 0.999 . S
C1038 H1008 0.950 . S
C1038 C1037 1.524 . S
C1038 C1039 1.415 . S
C1039 H1009 0.950 . S
C1039 C1034 1.363 . S
C1039 C1038 1.415 . S
H1040 C1037 0.999 . S
H1041 C1022 0.913 . S
H1042 C1060 0.951 . S
H1043 C1062 0.951 . S
H1044 C1064 0.950 . S
H1045 C1065 0.950 . S
H1046 C1067 0.950 . S
H1047 C1070 0.950 . S
H1048 C1071 0.950 . S
H1049 C1073 0.950 . S
H1050 C1074 0.950 . S
H1051 C1075 0.951 . S
H1052 C1077 0.951 . S
H1053 C1079 0.950 . S
H1054 C1080 0.950 . S
H1055 C1082 0.950 . S
H1056 C1085 0.950 . S
H1057 C1086 0.950 . S
H1058 C1088 0.950 . S
H1059 C1089 0.950 . S
C1060 H1042 0.951 . S
C1060 C1061 1.366 . S
C1060 C1062 1.388 . S
C1061 C1060 1.366 . S
C1061 C1065 1.385 . S
C1062 H1043 0.951 . S
C1062 C1060 1.388 . S
C1062 C1063 1.366 . S
C1063 C1062 1.366 . S
C1063 C1064 1.414 . S
C1063 C1066 1.499 . S
C1064 H1044 0.950 . S
C1064 C1063 1.414 . S
C1064 C1065 1.374 . S
C1065 H1045 0.950 . S
C1065 C1061 1.385 . S
C1065 C1064 1.374 . S
C1066 C1063 1.499 . S
C1066 C1067 1.373 . S
C1066 C1068 1.389 . S
C1067 H1046 0.950 . S
C1067 C1066 1.373 . S
C1067 C1083 1.377 . S
C1068 C1066 1.389 . S
C1068 C1069 1.524 . S
C1068 C1082 1.377 . S
C1069 C1068 1.524 . S
C1069 C1070 1.397 . S
C1069 C1074 1.363 . S
C1070 H1047 0.950 . S
C1070 C1069 1.397 . S
C1070 C1071 1.334 . S
C1071 H1048 0.950 . S
C1071 C1070 1.334 . S
C1071 C1072 1.287 . S
C1072 C1071 1.287 . S
C1072 C1073 1.524 . S
C1072 H1091 0.913 . S
C1073 H1049 0.950 . S
C1073 C1072 1.524 . S
C1073 C1074 1.415 . S
C1074 H1050 0.950 . S
C1074 C1069 1.363 . S
C1074 C1073 1.415 . S
C1075 H1051 0.951 . S
C1075 C1076 1.366 . S
C1075 C1077 1.388 . S
C1076 C1075 1.366 . S
C1076 C1080 1.385 . S
C1077 H1052 0.951 . S
C1077 C1075 1.388 . S
C1077 C1078 1.366 . S
C1078 C1077 1.366 . S
C1078 C1079 1.414 . S
C1078 C1081 1.499 . S
C1079 H1053 0.950 . S
C1079 C1078 1.414 . S
C1079 C1080 1.374 . S
C1080 H1054 0.950 . S
C1080 C1076 1.385 . S
C1080 C1079 1.374 . S
C1081 C1078 1.499 . S
C1081 C1082 1.373 . S
C1081 C1083 1.389 . S
C1082 H1055 0.950 . S
C1082 C1068 1.377 . S
C1082 C1081 1.373 . S
C1083 C1067 1.377 . S
C1083 C1081 1.389 . S
C1083 C1084 1.524 . S
C1084 C1083 1.524 . S
C1084 C1085 1.397 . S
C1084 C1089 1.363 . S
C1085 H1056 0.950 . S
C1085 C1084 1.397 . S
C1085 C1086 1.334 . S
C1086 H1057 0.950 . S
C1086 C1085 1.334 . S
C1086 C1087 1.287 . S
C1087 C1086 1.287 . S
C1087 C1088 1.524 . S
C1087 H1090 0.999 . S
C1088 H1058 0.950 . S
C1088 C1087 1.524 . S
C1088 C1089 1.415 . S
C1089 H1059 0.950 . S
C1089 C1084 1.363 . S
C1089 C1088 1.415 . S
H1090 C1087 0.999 . S
H1091 C1072 0.913 . S
H1092 C1110 0.951 . S
H1093 C1112 0.951 . S
H1094 C1114 0.950 . S
H1095 C1115 0.950 . S
H1096 C1117 0.950 . S
H1097 C1120 0.950 . S
H1098 C1121 0.950 . S
H1099 C1123 0.950 . S
H1100 C1124 0.950 . S
H1101 C1125 0.951 . S
H1102 C1127 0.951 . S
H1103 C1129 0.950 . S
H1104 C1130 0.950 . S
H1105 C1132 0.950 . S
H1106 C1135 0.950 . S
H1107 C1136 0.950 . S
H1108 C1138 0.950 . S
H1109 C1139 0.950 . S
C1110 H1092 0.951 . S
C1110 C1111 1.366 . S
C1110 C1112 1.388 . S
C1111 C1110 1.366 . S
C1111 C1115 1.385 . S
C1112 H1093 0.951 . S
C1112 C1110 1.388 . S
C1112 C1113 1.366 . S
C1113 C1112 1.366 . S
C1113 C1114 1.414 . S
C1113 C1116 1.499 . S
C1114 H1094 0.950 . S
C1114 C1113 1.414 . S
C1114 C1115 1.374 . S
C1115 H1095 0.950 . S
C1115 C1111 1.385 . S
C1115 C1114 1.374 . S
C1116 C1113 1.499 . S
C1116 C1117 1.373 . S
C1116 C1118 1.389 . S
C1117 H1096 0.950 . S
C1117 C1116 1.373 . S
C1117 C1133 1.377 . S
C1118 C1116 1.389 . S
C1118 C1119 1.524 . S
C1118 C1132 1.377 . S
C1119 C1118 1.524 . S
C1119 C1120 1.397 . S
C1119 C1124 1.363 . S
C1120 H1097 0.950 . S
C1120 C1119 1.397 . S
C1120 C1121 1.334 . S
C1121 H1098 0.950 . S
C1121 C1120 1.334 . S
C1121 C1122 1.287 . S
C1122 C1121 1.287 . S
C1122 C1123 1.524 . S
C1122 H1141 0.913 . S
C1123 H1099 0.950 . S
C1123 C1122 1.524 . S
C1123 C1124 1.415 . S
C1124 H1100 0.950 . S
C1124 C1119 1.363 . S
C1124 C1123 1.415 . S
C1125 H1101 0.951 . S
C1125 C1126 1.366 . S
C1125 C1127 1.388 . S
C1126 C1125 1.366 . S
C1126 C1130 1.385 . S
C1127 H1102 0.951 . S
C1127 C1125 1.388 . S
C1127 C1128 1.366 . S
C1128 C1127 1.366 . S
C1128 C1129 1.414 . S
C1128 C1131 1.499 . S
C1129 H1103 0.950 . S
C1129 C1128 1.414 . S
C1129 C1130 1.374 . S
C1130 H1104 0.950 . S
C1130 C1126 1.385 . S
C1130 C1129 1.374 . S
C1131 C1128 1.499 . S
C1131 C1132 1.373 . S
C1131 C1133 1.389 . S
C1132 H1105 0.950 . S
C1132 C1118 1.377 . S
C1132 C1131 1.373 . S
C1133 C1117 1.377 . S
C1133 C1131 1.389 . S
C1133 C1134 1.524 . S
C1134 C1133 1.524 . S
C1134 C1135 1.397 . S
C1134 C1139 1.363 . S
C1135 H1106 0.950 . S
C1135 C1134 1.397 . S
C1135 C1136 1.334 . S
C1136 H1107 0.950 . S
C1136 C1135 1.334 . S
C1136 C1137 1.287 . S
C1137 C1136 1.287 . S
C1137 C1138 1.524 . S
C1137 H1140 0.999 . S
C1138 H1108 0.950 . S
C1138 C1137 1.524 . S
C1138 C1139 1.415 . S
C1139 H1109 0.950 . S
C1139 C1134 1.363 . S
C1139 C1138 1.415 . S
H1140 C1137 0.999 . S
H1141 C1122 0.913 . S
H1142 C1160 0.951 . S
H1143 C1162 0.951 . S
H1144 C1164 0.950 . S
H1145 C1165 0.950 . S
H1146 C1167 0.950 . S
H1147 C1170 0.950 . S
H1148 C1171 0.950 . S
H1149 C1173 0.950 . S
H1150 C1174 0.950 . S
H1151 C1175 0.951 . S
H1152 C1177 0.951 . S
H1153 C1179 0.950 . S
H1154 C1180 0.950 . S
H1155 C1182 0.950 . S
H1156 C1185 0.950 . S
H1157 C1186 0.950 . S
H1158 C1188 0.950 . S
H1159 C1189 0.950 . S
C1160 H1142 0.951 . S
C1160 C1161 1.366 . S
C1160 C1162 1.388 . S
C1161 C1160 1.366 . S
C1161 C1165 1.385 . S
C1162 H1143 0.951 . S
C1162 C1160 1.388 . S
C1162 C1163 1.366 . S
C1163 C1162 1.366 . S
C1163 C1164 1.414 . S
C1163 C1166 1.499 . S
C1164 H1144 0.950 . S
C1164 C1163 1.414 . S
C1164 C1165 1.374 . S
C1165 H1145 0.950 . S
C1165 C1161 1.385 . S
C1165 C1164 1.374 . S
C1166 C1163 1.499 . S
C1166 C1167 1.373 . S
C1166 C1168 1.389 . S
C1167 H1146 0.950 . S
C1167 C1166 1.373 . S
C1167 C1183 1.377 . S
C1168 C1166 1.389 . S
C1168 C1169 1.524 . S
C1168 C1182 1.377 . S
C1169 C1168 1.524 . S
C1169 C1170 1.397 . S
C1169 C1174 1.363 . S
C1170 H1147 0.950 . S
C1170 C1169 1.397 . S
C1170 C1171 1.334 . S
C1171 H1148 0.950 . S
C1171 C1170 1.334 . S
C1171 C1172 1.287 . S
C1172 C1171 1.287 . S
C1172 C1173 1.524 . S
C1172 H1191 0.913 . S
C1173 H1149 0.950 . S
C1173 C1172 1.524 . S
C1173 C1174 1.415 . S
C1174 H1150 0.950 . S
C1174 C1169 1.363 . S
C1174 C1173 1.415 . S
C1175 H1151 0.951 . S
C1175 C1176 1.366 . S
C1175 C1177 1.388 . S
C1176 C1175 1.366 . S
C1176 C1180 1.385 . S
C1177 H1152 0.951 . S
C1177 C1175 1.388 . S
C1177 C1178 1.366 . S
C1178 C1177 1.366 . S
C1178 C1179 1.414 . S
C1178 C1181 1.499 . S
C1179 H1153 0.950 . S
C1179 C1178 1.414 . S
C1179 C1180 1.374 . S
C1180 H1154 0.950 . S
C1180 C1176 1.385 . S
C1180 C1179 1.374 . S
C1181 C1178 1.499 . S
C1181 C1182 1.373 . S
C1181 C1183 1.389 . S
C1182 H1155 0.950 . S
C1182 C1168 1.377 . S
C1182 C1181 1.373 . S
C1183 C1167 1.377 . S
C1183 C1181 1.389 . S
C1183 C1184 1.524 . S
C1184 C1183 1.524 . S
C1184 C1185 1.397 1_565 S
C1184 C1189 1.363 . S
C1185 H1156 0.950 . S
C1185 C1184 1.397 1_545 S
C1185 C1186 1.334 . S
C1186 H1157 0.950 . S
C1186 C1185 1.334 . S
C1186 C1187 1.287 . S
C1187 C1186 1.287 . S
C1187 C1188 1.524 . S
C1187 H1190 0.999 . S
C1188 H1158 0.950 . S
C1188 C1187 1.524 . S
C1188 C1189 1.415 1_545 S
C1189 H1159 0.950 . S
C1189 C1184 1.363 . S
C1189 C1188 1.415 1_565 S
H1190 C1187 0.999 . S
H1191 C1172 0.913 . S
H1192 C1210 0.951 . S
H1193 C1212 0.951 . S
H1194 C1214 0.950 . S
H1195 C1215 0.950 . S
H1196 C1217 0.950 . S
H1197 C1220 0.950 . S
H1198 C1221 0.950 . S
H1199 C1223 0.950 . S
H1200 C1224 0.950 . S
H1201 C1225 0.951 . S
H1202 C1227 0.951 . S
H1203 C1229 0.950 . S
H1204 C1230 0.950 . S
H1205 C1232 0.950 . S
H1206 C1235 0.950 . S
H1207 C1236 0.950 . S
H1208 C1238 0.950 . S
H1209 C1239 0.950 . S
C1210 H1192 0.951 . S
C1210 C1211 1.366 . S
C1210 C1212 1.388 . S
C1211 C1210 1.366 . S
C1211 C1215 1.385 . S
C1212 H1193 0.951 . S
C1212 C1210 1.388 . S
C1212 C1213 1.366 . S
C1213 C1212 1.366 . S
C1213 C1214 1.414 . S
C1213 C1216 1.499 . S
C1214 H1194 0.950 . S
C1214 C1213 1.414 . S
C1214 C1215 1.374 . S
C1215 H1195 0.950 . S
C1215 C1211 1.385 . S
C1215 C1214 1.374 . S
C1216 C1213 1.499 . S
C1216 C1217 1.373 . S
C1216 C1218 1.389 . S
C1217 H1196 0.950 . S
C1217 C1216 1.373 . S
C1217 C1233 1.377 . S
C1218 C1216 1.389 . S
C1218 C1219 1.524 . S
C1218 C1232 1.377 . S
C1219 C1218 1.524 . S
C1219 C1220 1.397 . S
C1219 C1224 1.363 . S
C1220 H1197 0.950 . S
C1220 C1219 1.397 . S
C1220 C1221 1.334 . S
C1221 H1198 0.950 . S
C1221 C1220 1.334 . S
C1221 C1222 1.287 . S
C1222 C1221 1.287 . S
C1222 C1223 1.524 . S
C1222 H1241 0.913 . S
C1223 H1199 0.950 . S
C1223 C1222 1.524 . S
C1223 C1224 1.415 . S
C1224 H1200 0.950 . S
C1224 C1219 1.363 . S
C1224 C1223 1.415 . S
C1225 H1201 0.951 . S
C1225 C1226 1.366 . S
C1225 C1227 1.388 . S
C1226 C1225 1.366 . S
C1226 C1230 1.385 . S
C1227 H1202 0.951 . S
C1227 C1225 1.388 . S
C1227 C1228 1.366 . S
C1228 C1227 1.366 . S
C1228 C1229 1.414 . S
C1228 C1231 1.499 . S
C1229 H1203 0.950 . S
C1229 C1228 1.414 . S
C1229 C1230 1.374 . S
C1230 H1204 0.950 . S
C1230 C1226 1.385 . S
C1230 C1229 1.374 . S
C1231 C1228 1.499 . S
C1231 C1232 1.373 . S
C1231 C1233 1.389 . S
C1232 H1205 0.950 . S
C1232 C1218 1.377 . S
C1232 C1231 1.373 . S
C1233 C1217 1.377 . S
C1233 C1231 1.389 . S
C1233 C1234 1.524 . S
C1234 C1233 1.524 . S
C1234 C1235 1.397 . S
C1234 C1239 1.363 . S
C1235 H1206 0.950 . S
C1235 C1234 1.397 . S
C1235 C1236 1.334 . S
C1236 H1207 0.950 . S
C1236 C1235 1.334 . S
C1236 C1237 1.287 . S
C1237 C1236 1.287 . S
C1237 C1238 1.524 . S
C1237 H1240 0.999 . S
C1238 H1208 0.950 . S
C1238 C1237 1.524 . S
C1238 C1239 1.415 . S
C1239 H1209 0.950 . S
C1239 C1234 1.363 . S
C1239 C1238 1.415 . S
H1240 C1237 0.999 . S
H1241 C1222 0.913 . S
H1242 C1260 0.951 . S
H1243 C1262 0.951 . S
H1244 C1264 0.950 . S
H1245 C1265 0.950 . S
H1246 C1267 0.950 . S
H1247 C1270 0.950 . S
H1248 C1271 0.950 . S
H1249 C1273 0.950 . S
H1250 C1274 0.950 . S
H1251 C1275 0.951 . S
H1252 C1277 0.951 . S
H1253 C1279 0.950 . S
H1254 C1280 0.950 . S
H1255 C1282 0.950 . S
H1256 C1285 0.950 . S
H1257 C1286 0.950 . S
H1258 C1288 0.950 . S
H1259 C1289 0.950 . S
C1260 H1242 0.951 . S
C1260 C1261 1.366 . S
C1260 C1262 1.388 . S
C1261 C1260 1.366 . S
C1261 C1265 1.385 . S
C1262 H1243 0.951 . S
C1262 C1260 1.388 . S
C1262 C1263 1.366 . S
C1263 C1262 1.366 . S
C1263 C1264 1.414 . S
C1263 C1266 1.499 . S
C1264 H1244 0.950 . S
C1264 C1263 1.414 . S
C1264 C1265 1.374 . S
C1265 H1245 0.950 . S
C1265 C1261 1.385 . S
C1265 C1264 1.374 . S
C1266 C1263 1.499 . S
C1266 C1267 1.373 . S
C1266 C1268 1.389 . S
C1267 H1246 0.950 . S
C1267 C1266 1.373 . S
C1267 C1283 1.377 . S
C1268 C1266 1.389 . S
C1268 C1269 1.524 . S
C1268 C1282 1.377 . S
C1269 C1268 1.524 . S
C1269 C1270 1.397 . S
C1269 C1274 1.363 . S
C1270 H1247 0.950 . S
C1270 C1269 1.397 . S
C1270 C1271 1.334 . S
C1271 H1248 0.950 . S
C1271 C1270 1.334 . S
C1271 C1272 1.287 . S
C1272 C1271 1.287 . S
C1272 C1273 1.524 . S
C1272 H1291 0.913 . S
C1273 H1249 0.950 . S
C1273 C1272 1.524 . S
C1273 C1274 1.415 . S
C1274 H1250 0.950 . S
C1274 C1269 1.363 . S
C1274 C1273 1.415 . S
C1275 H1251 0.951 . S
C1275 C1276 1.366 . S
C1275 C1277 1.388 . S
C1276 C1275 1.366 . S
C1276 C1280 1.385 . S
C1277 H1252 0.951 . S
C1277 C1275 1.388 . S
C1277 C1278 1.366 . S
C1278 C1277 1.366 . S
C1278 C1279 1.414 . S
C1278 C1281 1.499 . S
C1279 H1253 0.950 . S
C1279 C1278 1.414 . S
C1279 C1280 1.374 . S
C1280 H1254 0.950 . S
C1280 C1276 1.385 . S
C1280 C1279 1.374 . S
C1281 C1278 1.499 . S
C1281 C1282 1.373 . S
C1281 C1283 1.389 . S
C1282 H1255 0.950 . S
C1282 C1268 1.377 . S
C1282 C1281 1.373 . S
C1283 C1267 1.377 . S
C1283 C1281 1.389 . S
C1283 C1284 1.524 . S
C1284 C1283 1.524 . S
C1284 C1285 1.397 . S
C1284 C1289 1.363 . S
C1285 H1256 0.950 . S
C1285 C1284 1.397 . S
C1285 C1286 1.334 . S
C1286 H1257 0.950 . S
C1286 C1285 1.334 . S
C1286 C1287 1.287 . S
C1287 C1286 1.287 . S
C1287 C1288 1.524 . S
C1287 H1290 0.999 . S
C1288 H1258 0.950 . S
C1288 C1287 1.524 . S
C1288 C1289 1.415 . S
C1289 H1259 0.950 . S
C1289 C1284 1.363 . S
C1289 C1288 1.415 . S
H1290 C1287 0.999 . S
H1291 C1272 0.913 . S
H1292 C1310 0.951 . S
H1293 C1312 0.951 . S
H1294 C1314 0.950 . S
H1295 C1315 0.950 . S
H1296 C1317 0.950 . S
H1297 C1320 0.950 . S
H1298 C1321 0.950 . S
H1299 C1323 0.950 . S
H1300 C1324 0.950 . S
H1301 C1325 0.951 . S
H1302 C1327 0.951 . S
H1303 C1329 0.950 . S
H1304 C1330 0.950 . S
H1305 C1332 0.950 . S
H1306 C1335 0.950 . S
H1307 C1336 0.950 . S
H1308 C1338 0.950 . S
H1309 C1339 0.950 . S
C1310 H1292 0.951 . S
C1310 C1311 1.366 . S
C1310 C1312 1.388 . S
C1311 C1310 1.366 . S
C1311 C1315 1.385 . S
C1312 H1293 0.951 . S
C1312 C1310 1.388 . S
C1312 C1313 1.366 . S
C1313 C1312 1.366 . S
C1313 C1314 1.414 . S
C1313 C1316 1.499 . S
C1314 H1294 0.950 . S
C1314 C1313 1.414 . S
C1314 C1315 1.374 . S
C1315 H1295 0.950 . S
C1315 C1311 1.385 . S
C1315 C1314 1.374 . S
C1316 C1313 1.499 . S
C1316 C1317 1.373 . S
C1316 C1318 1.389 . S
C1317 H1296 0.950 . S
C1317 C1316 1.373 . S
C1317 C1333 1.377 . S
C1318 C1316 1.389 . S
C1318 C1319 1.524 . S
C1318 C1332 1.377 . S
C1319 C1318 1.524 . S
C1319 C1320 1.397 . S
C1319 C1324 1.363 . S
C1320 H1297 0.950 . S
C1320 C1319 1.397 . S
C1320 C1321 1.334 . S
C1321 H1298 0.950 . S
C1321 C1320 1.334 . S
C1321 C1322 1.287 . S
C1322 C1321 1.287 . S
C1322 C1323 1.524 . S
C1322 H1341 0.913 . S
C1323 H1299 0.950 . S
C1323 C1322 1.524 . S
C1323 C1324 1.415 . S
C1324 H1300 0.950 . S
C1324 C1319 1.363 . S
C1324 C1323 1.415 . S
C1325 H1301 0.951 . S
C1325 C1326 1.366 . S
C1325 C1327 1.388 . S
C1326 C1325 1.366 . S
C1326 C1330 1.385 . S
C1327 H1302 0.951 . S
C1327 C1325 1.388 . S
C1327 C1328 1.366 . S
C1328 C1327 1.366 . S
C1328 C1329 1.414 . S
C1328 C1331 1.499 . S
C1329 H1303 0.950 . S
C1329 C1328 1.414 . S
C1329 C1330 1.374 . S
C1330 H1304 0.950 . S
C1330 C1326 1.385 . S
C1330 C1329 1.374 . S
C1331 C1328 1.499 . S
C1331 C1332 1.373 . S
C1331 C1333 1.389 . S
C1332 H1305 0.950 . S
C1332 C1318 1.377 . S
C1332 C1331 1.373 . S
C1333 C1317 1.377 . S
C1333 C1331 1.389 . S
C1333 C1334 1.524 . S
C1334 C1333 1.524 . S
C1334 C1335 1.397 . S
C1334 C1339 1.363 . S
C1335 H1306 0.950 . S
C1335 C1334 1.397 . S
C1335 C1336 1.334 . S
C1336 H1307 0.950 . S
C1336 C1335 1.334 . S
C1336 C1337 1.287 . S
C1337 C1336 1.287 . S
C1337 C1338 1.524 . S
C1337 H1340 0.999 . S
C1338 H1308 0.950 . S
C1338 C1337 1.524 . S
C1338 C1339 1.415 . S
C1339 H1309 0.950 . S
C1339 C1334 1.363 . S
C1339 C1338 1.415 . S
H1340 C1337 0.999 . S
H1341 C1322 0.913 . S
H1342 C1360 0.951 . S
H1343 C1362 0.951 . S
H1344 C1364 0.950 . S
H1345 C1365 0.950 . S
H1346 C1367 0.950 . S
H1347 C1370 0.950 . S
H1348 C1371 0.950 . S
H1349 C1373 0.950 . S
H1350 C1374 0.950 . S
H1351 C1375 0.951 . S
H1352 C1377 0.951 . S
H1353 C1379 0.950 . S
H1354 C1380 0.950 . S
H1355 C1382 0.950 . S
H1356 C1385 0.950 . S
H1357 C1386 0.950 . S
H1358 C1388 0.950 . S
H1359 C1389 0.950 . S
C1360 H1342 0.951 . S
C1360 C1361 1.366 . S
C1360 C1362 1.388 . S
C1361 C1360 1.366 . S
C1361 C1365 1.385 . S
C1362 H1343 0.951 . S
C1362 C1360 1.388 . S
C1362 C1363 1.366 . S
C1363 C1362 1.366 . S
C1363 C1364 1.414 . S
C1363 C1366 1.499 . S
C1364 H1344 0.950 . S
C1364 C1363 1.414 . S
C1364 C1365 1.374 . S
C1365 H1345 0.950 . S
C1365 C1361 1.385 . S
C1365 C1364 1.374 . S
C1366 C1363 1.499 . S
C1366 C1367 1.373 . S
C1366 C1368 1.389 . S
C1367 H1346 0.950 . S
C1367 C1366 1.373 . S
C1367 C1383 1.377 . S
C1368 C1366 1.389 . S
C1368 C1369 1.524 . S
C1368 C1382 1.377 . S
C1369 C1368 1.524 . S
C1369 C1370 1.397 . S
C1369 C1374 1.363 . S
C1370 H1347 0.950 . S
C1370 C1369 1.397 . S
C1370 C1371 1.334 . S
C1371 H1348 0.950 . S
C1371 C1370 1.334 . S
C1371 C1372 1.287 . S
C1372 C1371 1.287 . S
C1372 C1373 1.524 . S
C1372 H1391 0.913 . S
C1373 H1349 0.950 . S
C1373 C1372 1.524 . S
C1373 C1374 1.415 . S
C1374 H1350 0.950 . S
C1374 C1369 1.363 . S
C1374 C1373 1.415 . S
C1375 H1351 0.951 . S
C1375 C1376 1.366 . S
C1375 C1377 1.388 . S
C1376 C1375 1.366 . S
C1376 C1380 1.385 . S
C1377 H1352 0.951 . S
C1377 C1375 1.388 . S
C1377 C1378 1.366 . S
C1378 C1377 1.366 . S
C1378 C1379 1.414 . S
C1378 C1381 1.499 . S
C1379 H1353 0.950 . S
C1379 C1378 1.414 . S
C1379 C1380 1.374 . S
C1380 H1354 0.950 . S
C1380 C1376 1.385 . S
C1380 C1379 1.374 . S
C1381 C1378 1.499 . S
C1381 C1382 1.373 . S
C1381 C1383 1.389 . S
C1382 H1355 0.950 . S
C1382 C1368 1.377 . S
C1382 C1381 1.373 . S
C1383 C1367 1.377 . S
C1383 C1381 1.389 . S
C1383 C1384 1.524 . S
C1384 C1383 1.524 . S
C1384 C1385 1.397 . S
C1384 C1389 1.363 . S
C1385 H1356 0.950 . S
C1385 C1384 1.397 . S
C1385 C1386 1.334 . S
C1386 H1357 0.950 . S
C1386 C1385 1.334 . S
C1386 C1387 1.287 . S
C1387 C1386 1.287 . S
C1387 C1388 1.524 . S
C1387 H1390 0.999 . S
C1388 H1358 0.950 . S
C1388 C1387 1.524 . S
C1388 C1389 1.415 . S
C1389 H1359 0.950 . S
C1389 C1384 1.363 . S
C1389 C1388 1.415 . S
H1390 C1387 0.999 . S
H1391 C1372 0.913 . S
H1392 C1410 0.951 . S
H1393 C1412 0.951 . S
H1394 C1414 0.950 . S
H1395 C1415 0.950 . S
H1396 C1417 0.950 . S
H1397 C1420 0.950 . S
H1398 C1421 0.950 . S
H1399 C1423 0.950 . S
H1400 C1424 0.950 . S
H1401 C1425 0.951 . S
H1402 C1427 0.951 . S
H1403 C1429 0.950 . S
H1404 C1430 0.950 . S
H1405 C1432 0.950 . S
H1406 C1435 0.950 . S
H1407 C1436 0.950 . S
H1408 C1438 0.950 . S
H1409 C1439 0.950 . S
C1410 H1392 0.951 . S
C1410 C1411 1.366 . S
C1410 C1412 1.388 . S
C1411 C1410 1.366 . S
C1411 C1415 1.385 . S
C1412 H1393 0.951 . S
C1412 C1410 1.388 . S
C1412 C1413 1.366 . S
C1413 C1412 1.366 . S
C1413 C1414 1.414 . S
C1413 C1416 1.499 . S
C1414 H1394 0.950 . S
C1414 C1413 1.414 . S
C1414 C1415 1.374 . S
C1415 H1395 0.950 . S
C1415 C1411 1.385 . S
C1415 C1414 1.374 . S
C1416 C1413 1.499 . S
C1416 C1417 1.373 . S
C1416 C1418 1.389 . S
C1417 H1396 0.950 . S
C1417 C1416 1.373 . S
C1417 C1433 1.377 . S
C1418 C1416 1.389 . S
C1418 C1419 1.524 . S
C1418 C1432 1.377 . S
C1419 C1418 1.524 . S
C1419 C1420 1.397 . S
C1419 C1424 1.363 . S
C1420 H1397 0.950 . S
C1420 C1419 1.397 . S
C1420 C1421 1.334 . S
C1421 H1398 0.950 . S
C1421 C1420 1.334 . S
C1421 C1422 1.287 . S
C1422 C1421 1.287 . S
C1422 C1423 1.524 . S
C1422 H1441 0.913 . S
C1423 H1399 0.950 . S
C1423 C1422 1.524 . S
C1423 C1424 1.415 . S
C1424 H1400 0.950 . S
C1424 C1419 1.363 . S
C1424 C1423 1.415 . S
C1425 H1401 0.951 . S
C1425 C1426 1.366 . S
C1425 C1427 1.388 . S
C1426 C1425 1.366 . S
C1426 C1430 1.385 . S
C1427 H1402 0.951 . S
C1427 C1425 1.388 . S
C1427 C1428 1.366 . S
C1428 C1427 1.366 . S
C1428 C1429 1.414 . S
C1428 C1431 1.499 . S
C1429 H1403 0.950 . S
C1429 C1428 1.414 . S
C1429 C1430 1.374 . S
C1430 H1404 0.950 . S
C1430 C1426 1.385 . S
C1430 C1429 1.374 . S
C1431 C1428 1.499 . S
C1431 C1432 1.373 . S
C1431 C1433 1.389 . S
C1432 H1405 0.950 . S
C1432 C1418 1.377 . S
C1432 C1431 1.373 . S
C1433 C1417 1.377 . S
C1433 C1431 1.389 . S
C1433 C1434 1.524 . S
C1434 C1433 1.524 . S
C1434 C1435 1.397 . S
C1434 C1439 1.363 . S
C1435 H1406 0.950 . S
C1435 C1434 1.397 . S
C1435 C1436 1.334 . S
C1436 H1407 0.950 . S
C1436 C1435 1.334 . S
C1436 C1437 1.287 . S
C1437 C1436 1.287 . S
C1437 C1438 1.524 . S
C1437 H1440 0.999 . S
C1438 H1408 0.950 . S
C1438 C1437 1.524 . S
C1438 C1439 1.415 . S
C1439 H1409 0.950 . S
C1439 C1434 1.363 . S
C1439 C1438 1.415 . S
H1440 C1437 0.999 . S
H1441 C1422 0.913 . S
H1442 C1460 0.951 . S
H1443 C1462 0.951 . S
H1444 C1464 0.950 . S
H1445 C1465 0.950 . S
H1446 C1467 0.950 . S
H1447 C1470 0.950 . S
H1448 C1471 0.950 . S
H1449 C1473 0.950 . S
H1450 C1474 0.950 . S
H1451 C1475 0.951 . S
H1452 C1477 0.951 . S
H1453 C1479 0.950 . S
H1454 C1480 0.950 . S
H1455 C1482 0.950 . S
H1456 C1485 0.950 . S
H1457 C1486 0.950 . S
H1458 C1488 0.950 . S
H1459 C1489 0.950 . S
C1460 H1442 0.951 . S
C1460 C1461 1.366 . S
C1460 C1462 1.388 . S
C1461 C1460 1.366 . S
C1461 C1465 1.385 . S
C1462 H1443 0.951 . S
C1462 C1460 1.388 . S
C1462 C1463 1.366 . S
C1463 C1462 1.366 . S
C1463 C1464 1.414 . S
C1463 C1466 1.499 . S
C1464 H1444 0.950 . S
C1464 C1463 1.414 . S
C1464 C1465 1.374 . S
C1465 H1445 0.950 . S
C1465 C1461 1.385 . S
C1465 C1464 1.374 . S
C1466 C1463 1.499 . S
C1466 C1467 1.373 . S
C1466 C1468 1.389 . S
C1467 H1446 0.950 . S
C1467 C1466 1.373 . S
C1467 C1483 1.377 . S
C1468 C1466 1.389 . S
C1468 C1469 1.524 . S
C1468 C1482 1.377 . S
C1469 C1468 1.524 . S
C1469 C1470 1.397 . S
C1469 C1474 1.363 . S
C1470 H1447 0.950 . S
C1470 C1469 1.397 . S
C1470 C1471 1.334 . S
C1471 H1448 0.950 . S
C1471 C1470 1.334 . S
C1471 C1472 1.287 1_455 S
C1472 C1471 1.287 1_655 S
C1472 C1473 1.524 . S
C1472 H1491 0.913 . S
C1473 H1449 0.950 . S
C1473 C1472 1.524 . S
C1473 C1474 1.415 1_655 S
C1474 H1450 0.950 . S
C1474 C1469 1.363 . S
C1474 C1473 1.415 1_455 S
C1475 H1451 0.951 . S
C1475 C1476 1.366 . S
C1475 C1477 1.388 . S
C1476 C1475 1.366 . S
C1476 C1480 1.385 . S
C1477 H1452 0.951 . S
C1477 C1475 1.388 . S
C1477 C1478 1.366 . S
C1478 C1477 1.366 . S
C1478 C1479 1.414 . S
C1478 C1481 1.499 . S
C1479 H1453 0.950 . S
C1479 C1478 1.414 . S
C1479 C1480 1.374 . S
C1480 H1454 0.950 . S
C1480 C1476 1.385 . S
C1480 C1479 1.374 . S
C1481 C1478 1.499 . S
C1481 C1482 1.373 . S
C1481 C1483 1.389 . S
C1482 H1455 0.950 . S
C1482 C1468 1.377 . S
C1482 C1481 1.373 . S
C1483 C1467 1.377 . S
C1483 C1481 1.389 . S
C1483 C1484 1.524 . S
C1484 C1483 1.524 . S
C1484 C1485 1.397 . S
C1484 C1489 1.363 . S
C1485 H1456 0.950 . S
C1485 C1484 1.397 . S
C1485 C1486 1.334 . S
C1486 H1457 0.950 . S
C1486 C1485 1.334 . S
C1486 C1487 1.287 . S
C1487 C1486 1.287 . S
C1487 C1488 1.524 . S
C1487 H1490 0.999 . S
C1488 H1458 0.950 . S
C1488 C1487 1.524 . S
C1488 C1489 1.415 . S
C1489 H1459 0.950 . S
C1489 C1484 1.363 . S
C1489 C1488 1.415 . S
H1490 C1487 0.999 . S
H1491 C1472 0.913 . S
H1492 C1510 0.951 . S
H1493 C1512 0.951 . S
H1494 C1514 0.950 . S
H1495 C1515 0.950 . S
H1496 C1517 0.950 . S
H1497 C1520 0.950 . S
H1498 C1521 0.950 . S
H1499 C1523 0.950 . S
H1500 C1524 0.950 . S
H1501 C1525 0.951 . S
H1502 C1527 0.951 . S
H1503 C1529 0.950 . S
H1504 C1530 0.950 . S
H1505 C1532 0.950 . S
H1506 C1535 0.950 . S
H1507 C1536 0.950 . S
H1508 C1538 0.950 . S
H1509 C1539 0.950 . S
C1510 H1492 0.951 . S
C1510 C1511 1.366 . S
C1510 C1512 1.388 . S
C1511 C1510 1.366 . S
C1511 C1515 1.385 . S
C1512 H1493 0.951 . S
C1512 C1510 1.388 . S
C1512 C1513 1.366 . S
C1513 C1512 1.366 . S
C1513 C1514 1.414 . S
C1513 C1516 1.499 . S
C1514 H1494 0.950 . S
C1514 C1513 1.414 . S
C1514 C1515 1.374 . S
C1515 H1495 0.950 . S
C1515 C1511 1.385 . S
C1515 C1514 1.374 . S
C1516 C1513 1.499 . S
C1516 C1517 1.373 . S
C1516 C1518 1.389 . S
C1517 H1496 0.950 . S
C1517 C1516 1.373 . S
C1517 C1533 1.377 . S
C1518 C1516 1.389 . S
C1518 C1519 1.524 . S
C1518 C1532 1.377 . S
C1519 C1518 1.524 . S
C1519 C1520 1.397 . S
C1519 C1524 1.363 . S
C1520 H1497 0.950 . S
C1520 C1519 1.397 . S
C1520 C1521 1.334 . S
C1521 H1498 0.950 . S
C1521 C1520 1.334 . S
C1521 C1522 1.287 . S
C1522 C1521 1.287 . S
C1522 C1523 1.524 . S
C1522 H1541 0.913 . S
C1523 H1499 0.950 . S
C1523 C1522 1.524 . S
C1523 C1524 1.415 . S
C1524 H1500 0.950 . S
C1524 C1519 1.363 . S
C1524 C1523 1.415 . S
C1525 H1501 0.951 . S
C1525 C1526 1.366 . S
C1525 C1527 1.388 . S
C1526 C1525 1.366 . S
C1526 C1530 1.385 . S
C1527 H1502 0.951 . S
C1527 C1525 1.388 . S
C1527 C1528 1.366 . S
C1528 C1527 1.366 . S
C1528 C1529 1.414 . S
C1528 C1531 1.499 . S
C1529 H1503 0.950 . S
C1529 C1528 1.414 . S
C1529 C1530 1.374 . S
C1530 H1504 0.950 . S
C1530 C1526 1.385 . S
C1530 C1529 1.374 . S
C1531 C1528 1.499 . S
C1531 C1532 1.373 . S
C1531 C1533 1.389 . S
C1532 H1505 0.950 . S
C1532 C1518 1.377 . S
C1532 C1531 1.373 . S
C1533 C1517 1.377 . S
C1533 C1531 1.389 . S
C1533 C1534 1.524 . S
C1534 C1533 1.524 . S
C1534 C1535 1.397 . S
C1534 C1539 1.363 . S
C1535 H1506 0.950 . S
C1535 C1534 1.397 . S
C1535 C1536 1.334 . S
C1536 H1507 0.950 . S
C1536 C1535 1.334 . S
C1536 C1537 1.287 . S
C1537 C1536 1.287 . S
C1537 C1538 1.524 . S
C1537 H1540 0.999 . S
C1538 H1508 0.950 . S
C1538 C1537 1.524 . S
C1538 C1539 1.415 . S
C1539 H1509 0.950 . S
C1539 C1534 1.363 . S
C1539 C1538 1.415 . S
H1540 C1537 0.999 . S
H1541 C1522 0.913 . S
H1542 C1560 0.951 . S
H1543 C1562 0.951 . S
H1544 C1564 0.950 . S
H1545 C1565 0.950 . S
H1546 C1567 0.950 . S
H1547 C1570 0.950 . S
H1548 C1571 0.950 . S
H1549 C1573 0.950 . S
H1550 C1574 0.950 . S
H1551 C1575 0.951 1_455 S
H1552 C1577 0.951 . S
H1553 C1579 0.950 . S
H1554 C1580 0.950 . S
H1555 C1582 0.950 . S
H1556 C1585 0.950 . S
H1557 C1586 0.950 . S
H1558 C1588 0.950 . S
H1559 C1589 0.964 . S
C1560 H1542 0.951 . S
C1560 C1561 1.366 . S
C1560 C1562 1.388 . S
C1561 C1560 1.366 . S
C1561 C1565 1.385 . S
C1562 H1543 0.951 . S
C1562 C1560 1.388 . S
C1562 C1563 1.366 . S
C1563 C1562 1.366 . S
C1563 C1564 1.414 . S
C1563 C1566 1.499 . S
C1564 H1544 0.950 . S
C1564 C1563 1.414 . S
C1564 C1565 1.374 . S
C1565 H1545 0.950 . S
C1565 C1561 1.385 . S
C1565 C1564 1.374 . S
C1566 C1563 1.499 . S
C1566 C1567 1.373 . S
C1566 C1568 1.389 . S
C1567 H1546 0.950 . S
C1567 C1566 1.373 . S
C1567 C1583 1.377 . S
C1568 C1566 1.389 . S
C1568 C1569 1.524 . S
C1568 C1582 1.377 . S
C1569 C1568 1.524 . S
C1569 C1570 1.397 . S
C1569 C1574 1.363 . S
C1570 H1547 0.950 . S
C1570 C1569 1.397 . S
C1570 C1571 1.334 . S
C1571 H1548 0.950 . S
C1571 C1570 1.334 . S
C1571 C1572 1.287 . S
C1572 C1571 1.287 . S
C1572 C1573 1.524 . S
C1572 H1591 0.913 . S
C1573 H1549 0.950 . S
C1573 C1572 1.524 . S
C1573 C1574 1.415 . S
C1574 H1550 0.950 . S
C1574 C1569 1.363 . S
C1574 C1573 1.415 . S
C1575 H1551 0.951 1_655 S
C1575 C1576 1.366 . S
C1575 C1577 1.388 . S
C1576 C1575 1.366 . S
C1576 C1580 1.385 . S
C1577 H1552 0.951 . S
C1577 C1575 1.388 . S
C1577 C1578 1.366 . S
C1578 C1577 1.366 . S
C1578 C1579 1.414 . S
C1578 C1581 1.499 . S
C1579 H1553 0.950 . S
C1579 C1578 1.414 . S
C1579 C1580 1.374 . S
C1580 H1554 0.950 . S
C1580 C1576 1.385 . S
C1580 C1579 1.374 . S
C1581 C1578 1.499 . S
C1581 C1582 1.373 . S
C1581 C1583 1.389 . S
C1582 H1555 0.950 . S
C1582 C1568 1.377 . S
C1582 C1581 1.373 . S
C1583 C1567 1.377 . S
C1583 C1581 1.389 . S
C1583 C1584 1.524 . S
C1584 C1583 1.524 . S
C1584 C1585 1.397 . S
C1584 C1589 1.363 . S
C1585 H1556 0.950 . S
C1585 C1584 1.397 . S
C1585 C1586 1.334 . S
C1586 H1557 0.950 . S
C1586 C1585 1.334 . S
C1586 C1587 1.287 . S
C1587 C1586 1.287 . S
C1587 C1588 1.524 1_655 S
C1587 H1590 0.999 1_655 S
C1588 H1558 0.950 . S
C1588 C1587 1.524 1_455 S
C1588 C1589 1.415 1_455 S
C1589 H1559 0.964 . S
C1589 C1584 1.363 . S
C1589 C1588 1.415 1_655 S
H1590 C1587 0.999 1_455 S
H1591 C1572 0.913 . S
H1592 C1610 0.951 . S
H1593 C1612 0.951 . S
H1594 C1614 0.950 . S
H1595 C1615 0.950 . S
H1596 C1617 0.950 . S
H1597 C1620 0.950 . S
H1598 C1621 0.950 . S
H1599 C1623 0.950 . S
H1600 C1624 0.950 . S
H1601 C1625 0.951 . S
H1602 C1627 0.951 . S
H1603 C1629 0.950 . S
H1604 C1630 0.950 . S
H1605 C1632 0.950 . S
H1606 C1635 0.950 . S
H1607 C1636 0.950 . S
H1608 C1638 0.950 . S
H1609 C1639 0.950 . S
C1610 H1592 0.951 . S
C1610 C1611 1.366 . S
C1610 C1612 1.388 . S
C1611 C1610 1.366 . S
C1611 C1615 1.385 . S
C1612 H1593 0.951 . S
C1612 C1610 1.388 . S
C1612 C1613 1.366 . S
C1613 C1612 1.366 . S
C1613 C1614 1.414 . S
C1613 C1616 1.499 . S
C1614 H1594 0.950 . S
C1614 C1613 1.414 . S
C1614 C1615 1.374 . S
C1615 H1595 0.950 . S
C1615 C1611 1.385 . S
C1615 C1614 1.374 . S
C1616 C1613 1.499 . S
C1616 C1617 1.373 . S
C1616 C1618 1.389 . S
C1617 H1596 0.950 . S
C1617 C1616 1.373 . S
C1617 C1633 1.377 . S
C1618 C1616 1.389 . S
C1618 C1619 1.524 . S
C1618 C1632 1.377 . S
C1619 C1618 1.524 . S
C1619 C1620 1.397 . S
C1619 C1624 1.363 . S
C1620 H1597 0.950 . S
C1620 C1619 1.397 . S
C1620 C1621 1.334 . S
C1621 H1598 0.950 . S
C1621 C1620 1.334 . S
C1621 C1622 1.287 . S
C1622 C1621 1.287 . S
C1622 C1623 1.524 . S
C1622 H1641 0.913 . S
C1623 H1599 0.950 . S
C1623 C1622 1.524 . S
C1623 C1624 1.415 . S
C1624 H1600 0.950 . S
C1624 C1619 1.363 . S
C1624 C1623 1.415 . S
C1625 H1601 0.951 . S
C1625 C1626 1.366 . S
C1625 C1627 1.388 1_545 S
C1626 C1625 1.366 . S
C1626 C1630 1.385 . S
C1627 H1602 0.951 . S
C1627 C1625 1.388 1_565 S
C1627 C1628 1.366 . S
C1628 C1627 1.366 . S
C1628 C1629 1.414 . S
C1628 C1631 1.499 . S
C1629 H1603 0.950 . S
C1629 C1628 1.414 . S
C1629 C1630 1.374 1_565 S
C1630 H1604 0.950 . S
C1630 C1626 1.385 . S
C1630 C1629 1.374 1_545 S
C1631 C1628 1.499 . S
C1631 C1632 1.373 . S
C1631 C1633 1.389 . S
C1632 H1605 0.950 . S
C1632 C1618 1.377 . S
C1632 C1631 1.373 . S
C1633 C1617 1.377 . S
C1633 C1631 1.389 . S
C1633 C1634 1.524 . S
C1634 C1633 1.524 . S
C1634 C1635 1.397 1_565 S
C1634 C1639 1.363 . S
C1635 H1606 0.950 . S
C1635 C1634 1.397 1_545 S
C1635 C1636 1.334 . S
C1636 H1607 0.950 . S
C1636 C1635 1.334 . S
C1636 C1637 1.287 . S
C1637 C1636 1.287 . S
C1637 C1638 1.524 . S
C1637 H1640 0.999 . S
C1638 H1608 0.950 . S
C1638 C1637 1.524 . S
C1638 C1639 1.415 1_545 S
C1639 H1609 0.950 . S
C1639 C1634 1.363 . S
C1639 C1638 1.415 1_565 S
H1640 C1637 0.999 . S
H1641 C1622 0.913 . S
H1642 C1660 0.951 . S
H1643 C1662 0.951 . S
H1644 C1664 0.950 . S
H1645 C1665 0.950 . S
H1646 C1667 0.950 . S
H1647 C1670 0.950 . S
H1648 C1671 0.950 . S
H1649 C1673 0.950 . S
H1650 C1674 0.950 . S
H1651 C1675 0.951 . S
H1652 C1677 0.951 . S
H1653 C1679 0.950 . S
H1654 C1680 0.950 . S
H1655 C1682 0.950 . S
H1656 C1685 0.950 . S
H1657 C1686 0.950 . S
H1658 C1688 0.950 . S
H1659 C1689 0.950 . S
C1660 H1642 0.951 . S
C1660 C1661 1.366 . S
C1660 C1662 1.388 . S
C1661 C1660 1.366 . S
C1661 C1665 1.385 . S
C1662 H1643 0.951 . S
C1662 C1660 1.388 . S
C1662 C1663 1.366 . S
C1663 C1662 1.366 . S
C1663 C1664 1.414 . S
C1663 C1666 1.499 . S
C1664 H1644 0.950 . S
C1664 C1663 1.414 . S
C1664 C1665 1.374 . S
C1665 H1645 0.950 . S
C1665 C1661 1.385 . S
C1665 C1664 1.374 . S
C1666 C1663 1.499 . S
C1666 C1667 1.373 . S
C1666 C1668 1.389 . S
C1667 H1646 0.950 . S
C1667 C1666 1.373 . S
C1667 C1683 1.377 . S
C1668 C1666 1.389 . S
C1668 C1669 1.524 . S
C1668 C1682 1.377 . S
C1669 C1668 1.524 . S
C1669 C1670 1.397 . S
C1669 C1674 1.363 . S
C1670 H1647 0.950 . S
C1670 C1669 1.397 . S
C1670 C1671 1.334 . S
C1671 H1648 0.950 . S
C1671 C1670 1.334 . S
C1671 C1672 1.287 . S
C1672 C1671 1.287 . S
C1672 C1673 1.524 . S
C1672 H1691 0.913 . S
C1673 H1649 0.950 . S
C1673 C1672 1.524 . S
C1673 C1674 1.415 . S
C1674 H1650 0.950 . S
C1674 C1669 1.363 . S
C1674 C1673 1.415 . S
C1675 H1651 0.951 . S
C1675 C1676 1.366 . S
C1675 C1677 1.388 . S
C1676 C1675 1.366 . S
C1676 C1680 1.385 . S
C1677 H1652 0.951 . S
C1677 C1675 1.388 . S
C1677 C1678 1.366 . S
C1678 C1677 1.366 . S
C1678 C1679 1.414 . S
C1678 C1681 1.499 . S
C1679 H1653 0.950 . S
C1679 C1678 1.414 . S
C1679 C1680 1.374 . S
C1680 H1654 0.950 . S
C1680 C1676 1.385 . S
C1680 C1679 1.374 . S
C1681 C1678 1.499 . S
C1681 C1682 1.373 . S
C1681 C1683 1.389 . S
C1682 H1655 0.950 . S
C1682 C1668 1.377 . S
C1682 C1681 1.373 . S
C1683 C1667 1.377 . S
C1683 C1681 1.389 . S
C1683 C1684 1.524 . S
C1684 C1683 1.524 . S
C1684 C1685 1.397 . S
C1684 C1689 1.363 . S
C1685 H1656 0.950 . S
C1685 C1684 1.397 . S
C1685 C1686 1.334 . S
C1686 H1657 0.950 . S
C1686 C1685 1.334 . S
C1686 C1687 1.287 . S
C1687 C1686 1.287 . S
C1687 C1688 1.524 . S
C1687 H1690 0.999 . S
C1688 H1658 0.950 . S
C1688 C1687 1.524 . S
C1688 C1689 1.415 . S
C1689 H1659 0.950 . S
C1689 C1684 1.363 . S
C1689 C1688 1.415 . S
H1690 C1687 0.999 . S
H1691 C1672 0.913 . S
H1692 C1710 0.951 . S
H1693 C1712 0.951 . S
H1694 C1714 0.950 . S
H1695 C1715 0.950 . S
H1696 C1717 0.950 . S
H1697 C1720 0.950 . S
H1698 C1721 0.950 . S
H1699 C1723 0.950 1_554 S
H1700 C1724 0.950 1_554 S
H1701 C1725 0.927 1_556 S
H1702 C1727 0.951 . S
H1703 C1729 0.950 . S
H1704 C1730 0.950 . S
H1705 C1732 0.962 . S
H1706 C1735 0.950 . S
H1707 C1736 0.950 . S
H1708 C1738 0.950 . S
H1709 C1739 0.950 . S
C1710 H1692 0.951 . S
C1710 C1711 1.366 . S
C1710 C1712 1.388 . S
C1711 C1710 1.366 . S
C1711 C1715 1.385 . S
C1712 H1693 0.951 . S
C1712 C1710 1.388 . S
C1712 C1713 1.366 . S
C1713 C1712 1.366 . S
C1713 C1714 1.414 . S
C1713 C1716 1.499 . S
C1714 H1694 0.950 . S
C1714 C1713 1.414 . S
C1714 C1715 1.374 . S
C1715 H1695 0.950 . S
C1715 C1711 1.385 . S
C1715 C1714 1.374 . S
C1716 C1713 1.499 . S
C1716 C1717 1.373 . S
C1716 C1718 1.389 1_545 S
C1717 H1696 0.950 . S
C1717 C1716 1.373 . S
C1717 C1733 1.377 1_545 S
C1718 C1716 1.389 1_565 S
C1718 C1719 1.524 . S
C1718 C1732 1.377 . S
C1719 C1718 1.524 . S
C1719 C1720 1.397 . S
C1719 C1724 1.363 . S
C1720 H1697 0.950 . S
C1720 C1719 1.397 . S
C1720 C1721 1.334 . S
C1721 H1698 0.950 . S
C1721 C1720 1.334 . S
C1721 C1722 1.287 . S
C1722 C1721 1.287 . S
C1722 C1723 1.524 . S
C1722 H1741 0.913 . S
C1723 H1699 0.950 1_556 S
C1723 C1722 1.524 . S
C1723 C1724 1.415 . S
C1724 H1700 0.950 1_556 S
C1724 C1719 1.363 . S
C1724 C1723 1.415 . S
C1725 H1701 0.927 1_554 S
C1725 C1726 1.366 . S
C1725 C1727 1.388 1_554 S
C1726 C1725 1.366 . S
C1726 C1730 1.385 . S
C1727 H1702 0.951 . S
C1727 C1725 1.388 1_556 S
C1727 C1728 1.366 1_556 S
C1728 C1727 1.366 1_554 S
C1728 C1729 1.414 . S
C1728 C1731 1.499 1_554 S
C1729 H1703 0.950 . S
C1729 C1728 1.414 . S
C1729 C1730 1.374 . S
C1730 H1704 0.950 . S
C1730 C1726 1.385 . S
C1730 C1729 1.374 . S
C1731 C1728 1.499 1_556 S
C1731 C1732 1.373 . S
C1731 C1733 1.389 . S
C1732 H1705 0.962 . S
C1732 C1718 1.377 . S
C1732 C1731 1.373 . S
C1733 C1717 1.377 1_565 S
C1733 C1731 1.389 . S
C1733 C1734 1.524 1_565 S
C1734 C1733 1.524 1_545 S
C1734 C1735 1.397 1_556 S
C1734 C1739 1.363 . S
C1735 H1706 0.950 . S
C1735 C1734 1.397 1_554 S
C1735 C1736 1.334 . S
C1736 H1707 0.950 . S
C1736 C1735 1.334 . S
C1736 C1737 1.287 . S
C1737 C1736 1.287 . S
C1737 C1738 1.524 1_554 S
C1737 H1740 0.999 . S
C1738 H1708 0.950 . S
C1738 C1737 1.524 1_556 S
C1738 C1739 1.415 . S
C1739 H1709 0.950 . S
C1739 C1734 1.363 . S
C1739 C1738 1.415 . S
H1740 C1737 0.999 . S
H1741 C1722 0.913 . S
H1742 C1760 0.951 . S
H1743 C1762 0.951 . S
H1744 C1764 0.950 . S
H1745 C1765 0.950 . S
H1746 C1767 0.950 . S
H1747 C1770 0.950 . S
H1748 C1771 0.950 . S
H1749 C1773 0.950 . S
H1750 C1774 0.950 . S
H1751 C1775 0.951 . S
H1752 C1777 0.951 . S
H1753 C1779 0.950 . S
H1754 C1780 0.950 . S
H1755 C1782 0.950 . S
H1756 C1785 0.950 . S
H1757 C1786 0.950 . S
H1758 C1788 0.950 . S
H1759 C1789 0.950 . S
C1760 H1742 0.951 . S
C1760 C1761 1.366 . S
C1760 C1762 1.388 . S
C1761 C1760 1.366 . S
C1761 C1765 1.385 . S
C1762 H1743 0.951 . S
C1762 C1760 1.388 . S
C1762 C1763 1.366 . S
C1763 C1762 1.366 . S
C1763 C1764 1.414 . S
C1763 C1766 1.499 . S
C1764 H1744 0.950 . S
C1764 C1763 1.414 . S
C1764 C1765 1.374 . S
C1765 H1745 0.950 . S
C1765 C1761 1.385 . S
C1765 C1764 1.374 . S
C1766 C1763 1.499 . S
C1766 C1767 1.373 . S
C1766 C1768 1.389 . S
C1767 H1746 0.950 . S
C1767 C1766 1.373 . S
C1767 C1783 1.377 . S
C1768 C1766 1.389 . S
C1768 C1769 1.524 . S
C1768 C1782 1.377 . S
C1769 C1768 1.524 . S
C1769 C1770 1.397 . S
C1769 C1774 1.363 . S
C1770 H1747 0.950 . S
C1770 C1769 1.397 . S
C1770 C1771 1.334 . S
C1771 H1748 0.950 . S
C1771 C1770 1.334 . S
C1771 C1772 1.287 . S
C1772 C1771 1.287 . S
C1772 C1773 1.524 . S
C1772 H1791 0.913 . S
C1773 H1749 0.950 . S
C1773 C1772 1.524 . S
C1773 C1774 1.415 . S
C1774 H1750 0.950 . S
C1774 C1769 1.363 . S
C1774 C1773 1.415 . S
C1775 H1751 0.951 . S
C1775 C1776 1.366 . S
C1775 C1777 1.388 . S
C1776 C1775 1.366 . S
C1776 C1780 1.385 . S
C1777 H1752 0.951 . S
C1777 C1775 1.388 . S
C1777 C1778 1.366 . S
C1778 C1777 1.366 . S
C1778 C1779 1.414 . S
C1778 C1781 1.499 . S
C1779 H1753 0.950 . S
C1779 C1778 1.414 . S
C1779 C1780 1.374 . S
C1780 H1754 0.950 . S
C1780 C1776 1.385 . S
C1780 C1779 1.374 . S
C1781 C1778 1.499 . S
C1781 C1782 1.373 . S
C1781 C1783 1.389 . S
C1782 H1755 0.950 . S
C1782 C1768 1.377 . S
C1782 C1781 1.373 . S
C1783 C1767 1.377 . S
C1783 C1781 1.389 . S
C1783 C1784 1.524 . S
C1784 C1783 1.524 . S
C1784 C1785 1.397 . S
C1784 C1789 1.363 . S
C1785 H1756 0.950 . S
C1785 C1784 1.397 . S
C1785 C1786 1.334 . S
C1786 H1757 0.950 . S
C1786 C1785 1.334 . S
C1786 C1787 1.287 . S
C1787 C1786 1.287 . S
C1787 C1788 1.524 . S
C1787 H1790 0.999 . S
C1788 H1758 0.950 . S
C1788 C1787 1.524 . S
C1788 C1789 1.415 . S
C1789 H1759 0.950 . S
C1789 C1784 1.363 . S
C1789 C1788 1.415 . S
H1790 C1787 0.999 . S
H1791 C1772 0.913 . S
H1792 C1810 0.951 1_565 S
H1793 C1812 0.951 . S
H1794 C1814 0.950 . S
H1795 C1815 0.950 . S
H1796 C1817 0.950 . S
H1797 C1820 0.950 . S
H1798 C1821 0.950 . S
H1799 C1823 0.950 . S
H1800 C1824 0.950 . S
H1801 C1825 0.951 . S
H1802 C1827 0.951 . S
H1803 C1829 0.950 . S
H1804 C1830 0.950 . S
H1805 C1832 0.950 . S
H1806 C1835 0.950 . S
H1807 C1836 0.950 . S
H1808 C1838 0.950 . S
H1809 C1839 0.950 . S
C1810 H1792 0.951 1_545 S
C1810 C1811 1.366 . S
C1810 C1812 1.388 . S
C1811 C1810 1.366 . S
C1811 C1815 1.385 . S
C1812 H1793 0.951 . S
C1812 C1810 1.388 . S
C1812 C1813 1.366 . S
C1813 C1812 1.366 . S
C1813 C1814 1.414 . S
C1813 C1816 1.499 . S
C1814 H1794 0.950 . S
C1814 C1813 1.414 . S
C1814 C1815 1.374 . S
C1815 H1795 0.950 . S
C1815 C1811 1.385 . S
C1815 C1814 1.374 . S
C1816 C1813 1.499 . S
C1816 C1817 1.373 . S
C1816 C1818 1.389 . S
C1817 H1796 0.950 . S
C1817 C1816 1.373 . S
C1817 C1833 1.377 . S
C1818 C1816 1.389 . S
C1818 C1819 1.524 . S
C1818 C1832 1.377 . S
C1819 C1818 1.524 . S
C1819 C1820 1.397 . S
C1819 C1824 1.363 . S
C1820 H1797 0.950 . S
C1820 C1819 1.397 . S
C1820 C1821 1.334 . S
C1821 H1798 0.950 . S
C1821 C1820 1.334 . S
C1821 C1822 1.287 . S
C1822 C1821 1.287 . S
C1822 C1823 1.524 . S
C1822 H1841 0.913 . S
C1823 H1799 0.950 . S
C1823 C1822 1.524 . S
C1823 C1824 1.415 . S
C1824 H1800 0.950 . S
C1824 C1819 1.363 . S
C1824 C1823 1.415 . S
C1825 H1801 0.951 . S
C1825 C1826 1.366 . S
C1825 C1827 1.388 . S
C1826 C1825 1.366 . S
C1826 C1830 1.385 . S
C1827 H1802 0.951 . S
C1827 C1825 1.388 . S
C1827 C1828 1.366 . S
C1828 C1827 1.366 . S
C1828 C1829 1.414 . S
C1828 C1831 1.499 . S
C1829 H1803 0.950 . S
C1829 C1828 1.414 . S
C1829 C1830 1.374 . S
C1830 H1804 0.950 . S
C1830 C1826 1.385 . S
C1830 C1829 1.374 . S
C1831 C1828 1.499 . S
C1831 C1832 1.373 . S
C1831 C1833 1.389 . S
C1832 H1805 0.950 . S
C1832 C1818 1.377 . S
C1832 C1831 1.373 . S
C1833 C1817 1.377 . S
C1833 C1831 1.389 . S
C1833 C1834 1.524 . S
C1834 C1833 1.524 . S
C1834 C1835 1.397 . S
C1834 C1839 1.363 . S
C1835 H1806 0.950 . S
C1835 C1834 1.397 . S
C1835 C1836 1.334 . S
C1836 H1807 0.950 . S
C1836 C1835 1.334 . S
C1836 C1837 1.287 . S
C1837 C1836 1.287 . S
C1837 C1838 1.524 . S
C1837 H1840 0.999 . S
C1838 H1808 0.950 . S
C1838 C1837 1.524 . S
C1838 C1839 1.415 . S
C1839 H1809 0.950 . S
C1839 C1834 1.363 . S
C1839 C1838 1.415 . S
H1840 C1837 0.999 . S
H1841 C1822 0.913 . S
H1842 C1860 0.951 . S
H1843 C1862 0.951 . S
H1844 C1864 0.950 . S
H1845 C1865 0.950 . S
H1846 C1867 0.950 . S
H1847 C1870 0.950 . S
H1848 C1871 0.950 . S
H1849 C1873 0.950 . S
H1850 C1874 0.950 . S
H1851 C1875 0.951 . S
H1852 C1877 0.951 . S
H1853 C1879 0.950 . S
H1854 C1880 0.950 . S
H1855 C1882 0.950 . S
H1856 C1885 0.950 . S
H1857 C1886 0.950 . S
H1858 C1888 0.950 . S
H1859 C1889 0.950 . S
C1860 H1842 0.951 . S
C1860 C1861 1.366 . S
C1860 C1862 1.388 . S
C1861 C1860 1.366 . S
C1861 C1865 1.385 . S
C1862 H1843 0.951 . S
C1862 C1860 1.388 . S
C1862 C1863 1.366 . S
C1863 C1862 1.366 . S
C1863 C1864 1.414 . S
C1863 C1866 1.499 . S
C1864 H1844 0.950 . S
C1864 C1863 1.414 . S
C1864 C1865 1.374 . S
C1865 H1845 0.950 . S
C1865 C1861 1.385 . S
C1865 C1864 1.374 . S
C1866 C1863 1.499 . S
C1866 C1867 1.373 . S
C1866 C1868 1.389 . S
C1867 H1846 0.950 . S
C1867 C1866 1.373 . S
C1867 C1883 1.377 . S
C1868 C1866 1.389 . S
C1868 C1869 1.524 . S
C1868 C1882 1.377 . S
C1869 C1868 1.524 . S
C1869 C1870 1.397 . S
C1869 C1874 1.363 . S
C1870 H1847 0.950 . S
C1870 C1869 1.397 . S
C1870 C1871 1.334 . S
C1871 H1848 0.950 . S
C1871 C1870 1.334 . S
C1871 C1872 1.287 . S
C1872 C1871 1.287 . S
C1872 C1873 1.524 . S
C1872 H1891 0.913 . S
C1873 H1849 0.950 . S
C1873 C1872 1.524 . S
C1873 C1874 1.415 . S
C1874 H1850 0.950 . S
C1874 C1869 1.363 . S
C1874 C1873 1.415 . S
C1875 H1851 0.951 . S
C1875 C1876 1.366 . S
C1875 C1877 1.388 . S
C1876 C1875 1.366 . S
C1876 C1880 1.385 . S
C1877 H1852 0.951 . S
C1877 C1875 1.388 . S
C1877 C1878 1.366 . S
C1878 C1877 1.366 . S
C1878 C1879 1.414 . S
C1878 C1881 1.499 . S
C1879 H1853 0.950 . S
C1879 C1878 1.414 . S
C1879 C1880 1.374 . S
C1880 H1854 0.950 . S
C1880 C1876 1.385 . S
C1880 C1879 1.374 . S
C1881 C1878 1.499 . S
C1881 C1882 1.373 . S
C1881 C1883 1.389 . S
C1882 H1855 0.950 . S
C1882 C1868 1.377 . S
C1882 C1881 1.373 . S
C1883 C1867 1.377 . S
C1883 C1881 1.389 . S
C1883 C1884 1.524 . S
C1884 C1883 1.524 . S
C1884 C1885 1.397 . S
C1884 C1889 1.363 . S
C1885 H1856 0.950 . S
C1885 C1884 1.397 . S
C1885 C1886 1.334 . S
C1886 H1857 0.950 . S
C1886 C1885 1.334 . S
C1886 C1887 1.287 . S
C1887 C1886 1.287 . S
C1887 C1888 1.524 . S
C1887 H1890 0.999 . S
C1888 H1858 0.950 . S
C1888 C1887 1.524 . S
C1888 C1889 1.415 . S
C1889 H1859 0.950 . S
C1889 C1884 1.363 . S
C1889 C1888 1.415 . S
H1890 C1887 0.999 . S
H1891 C1872 0.913 . S
H1892 C1910 0.951 . S
H1893 C1912 0.951 . S
H1894 C1914 0.950 . S
H1895 C1915 0.950 . S
H1896 C1917 0.950 . S
H1897 C1920 0.950 . S
H1898 C1921 0.950 . S
H1899 C1923 0.950 . S
H1900 C1924 0.950 . S
H1901 C1925 0.951 . S
H1902 C1927 0.951 . S
H1903 C1929 0.950 . S
H1904 C1930 0.950 . S
H1905 C1932 0.950 . S
H1906 C1935 0.950 . S
H1907 C1936 0.950 . S
H1908 C1938 0.950 . S
H1909 C1939 0.950 . S
C1910 H1892 0.951 . S
C1910 C1911 1.366 . S
C1910 C1912 1.388 1_565 S
C1911 C1910 1.366 . S
C1911 C1915 1.385 . S
C1912 H1893 0.951 . S
C1912 C1910 1.388 1_545 S
C1912 C1913 1.366 . S
C1913 C1912 1.366 . S
C1913 C1914 1.414 . S
C1913 C1916 1.499 . S
C1914 H1894 0.950 . S
C1914 C1913 1.414 . S
C1914 C1915 1.374 1_545 S
C1915 H1895 0.950 . S
C1915 C1911 1.385 . S
C1915 C1914 1.374 1_565 S
C1916 C1913 1.499 . S
C1916 C1917 1.373 . S
C1916 C1918 1.389 . S
C1917 H1896 0.950 . S
C1917 C1916 1.373 . S
C1917 C1933 1.377 . S
C1918 C1916 1.389 . S
C1918 C1919 1.524 . S
C1918 C1932 1.377 . S
C1919 C1918 1.524 . S
C1919 C1920 1.397 . S
C1919 C1924 1.363 . S
C1920 H1897 0.950 . S
C1920 C1919 1.397 . S
C1920 C1921 1.334 . S
C1921 H1898 0.950 . S
C1921 C1920 1.334 . S
C1921 C1922 1.287 . S
C1922 C1921 1.287 . S
C1922 C1923 1.524 . S
C1922 H1941 0.913 . S
C1923 H1899 0.950 . S
C1923 C1922 1.524 . S
C1923 C1924 1.415 . S
C1924 H1900 0.950 . S
C1924 C1919 1.363 . S
C1924 C1923 1.415 . S
C1925 H1901 0.951 . S
C1925 C1926 1.366 . S
C1925 C1927 1.388 . S
C1926 C1925 1.366 . S
C1926 C1930 1.385 . S
C1927 H1902 0.951 . S
C1927 C1925 1.388 . S
C1927 C1928 1.366 . S
C1928 C1927 1.366 . S
C1928 C1929 1.414 . S
C1928 C1931 1.499 . S
C1929 H1903 0.950 . S
C1929 C1928 1.414 . S
C1929 C1930 1.374 . S
C1930 H1904 0.950 . S
C1930 C1926 1.385 . S
C1930 C1929 1.374 . S
C1931 C1928 1.499 . S
C1931 C1932 1.373 . S
C1931 C1933 1.389 . S
C1932 H1905 0.950 . S
C1932 C1918 1.377 . S
C1932 C1931 1.373 . S
C1933 C1917 1.377 . S
C1933 C1931 1.389 . S
C1933 C1934 1.524 . S
C1934 C1933 1.524 . S
C1934 C1935 1.397 . S
C1934 C1939 1.363 . S
C1935 H1906 0.950 . S
C1935 C1934 1.397 . S
C1935 C1936 1.334 . S
C1936 H1907 0.950 . S
C1936 C1935 1.334 . S
C1936 C1937 1.287 . S
C1937 C1936 1.287 . S
C1937 C1938 1.524 . S
C1937 H1940 0.999 . S
C1938 H1908 0.950 . S
C1938 C1937 1.524 . S
C1938 C1939 1.415 . S
C1939 H1909 0.950 . S
C1939 C1934 1.363 . S
C1939 C1938 1.415 . S
H1940 C1937 0.999 . S
H1941 C1922 0.913 . S
H1942 C1960 0.951 . S
H1943 C1962 0.951 . S
H1944 C1964 0.950 . S
H1945 C1965 0.950 . S
H1946 C1967 0.950 . S
H1947 C1970 0.950 . S
H1948 C1971 0.950 . S
H1949 C1973 0.950 . S
H1950 C1974 0.950 . S
H1951 C1975 0.951 . S
H1952 C1977 0.951 . S
H1953 C1979 0.950 . S
H1954 C1980 0.950 . S
H1955 C1982 0.950 . S
H1956 C1985 0.950 . S
H1957 C1986 0.950 . S
H1958 C1988 0.950 . S
H1959 C1989 0.950 . S
C1960 H1942 0.951 . S
C1960 C1961 1.366 . S
C1960 C1962 1.388 . S
C1961 C1960 1.366 . S
C1961 C1965 1.385 . S
C1962 H1943 0.951 . S
C1962 C1960 1.388 . S
C1962 C1963 1.366 . S
C1963 C1962 1.366 . S
C1963 C1964 1.414 . S
C1963 C1966 1.499 . S
C1964 H1944 0.950 . S
C1964 C1963 1.414 . S
C1964 C1965 1.374 . S
C1965 H1945 0.950 . S
C1965 C1961 1.385 . S
C1965 C1964 1.374 . S
C1966 C1963 1.499 . S
C1966 C1967 1.373 . S
C1966 C1968 1.389 . S
C1967 H1946 0.950 . S
C1967 C1966 1.373 . S
C1967 C1983 1.377 . S
C1968 C1966 1.389 . S
C1968 C1969 1.524 . S
C1968 C1982 1.377 . S
C1969 C1968 1.524 . S
C1969 C1970 1.397 . S
C1969 C1974 1.363 . S
C1970 H1947 0.950 . S
C1970 C1969 1.397 . S
C1970 C1971 1.334 . S
C1971 H1948 0.950 . S
C1971 C1970 1.334 . S
C1971 C1972 1.287 . S
C1972 C1971 1.287 . S
C1972 C1973 1.524 . S
C1972 H1991 0.913 . S
C1973 H1949 0.950 . S
C1973 C1972 1.524 . S
C1973 C1974 1.415 . S
C1974 H1950 0.950 . S
C1974 C1969 1.363 . S
C1974 C1973 1.415 . S
C1975 H1951 0.951 . S
C1975 C1976 1.366 . S
C1975 C1977 1.388 . S
C1976 C1975 1.366 . S
C1976 C1980 1.385 . S
C1977 H1952 0.951 . S
C1977 C1975 1.388 . S
C1977 C1978 1.366 . S
C1978 C1977 1.366 . S
C1978 C1979 1.414 . S
C1978 C1981 1.499 . S
C1979 H1953 0.950 . S
C1979 C1978 1.414 . S
C1979 C1980 1.374 . S
C1980 H1954 0.950 . S
C1980 C1976 1.385 . S
C1980 C1979 1.374 . S
C1981 C1978 1.499 . S
C1981 C1982 1.373 . S
C1981 C1983 1.389 . S
C1982 H1955 0.950 . S
C1982 C1968 1.377 . S
C1982 C1981 1.373 . S
C1983 C1967 1.377 . S
C1983 C1981 1.389 . S
C1983 C1984 1.524 . S
C1984 C1983 1.524 . S
C1984 C1985 1.397 . S
C1984 C1989 1.363 . S
C1985 H1956 0.950 . S
C1985 C1984 1.397 . S
C1985 C1986 1.334 . S
C1986 H1957 0.950 . S
C1986 C1985 1.334 . S
C1986 C1987 1.287 . S
C1987 C1986 1.287 . S
C1987 C1988 1.524 . S
C1987 H1990 0.999 . S
C1988 H1958 0.950 . S
C1988 C1987 1.524 . S
C1988 C1989 1.415 . S
C1989 H1959 0.950 . S
C1989 C1984 1.363 . S
C1989 C1988 1.415 . S
H1990 C1987 0.999 . S
H1991 C1972 0.913 . S
H1992 C2010 0.951 . S
H1993 C2012 0.951 . S
H1994 C2014 0.950 . S
H1995 C2015 0.950 . S
H1996 C2017 0.950 . S
H1997 C2020 0.950 . S
H1998 C2021 0.950 . S
H1999 C2023 0.950 . S
H2000 C2024 0.950 . S
H2001 C2025 0.951 . S
H2002 C2027 0.951 . S
H2003 C2029 0.950 . S
H2004 C2030 0.950 . S
H2005 C2032 0.950 . S
H2006 C2035 0.950 . S
H2007 C2036 0.950 . S
H2008 C2038 0.950 . S
H2009 C2039 0.950 . S
C2010 H1992 0.951 . S
C2010 C2011 1.366 . S
C2010 C2012 1.388 . S
C2011 C2010 1.366 . S
C2011 C2015 1.385 . S
C2012 H1993 0.951 . S
C2012 C2010 1.388 . S
C2012 C2013 1.366 . S
C2013 C2012 1.366 . S
C2013 C2014 1.414 . S
C2013 C2016 1.499 . S
C2014 H1994 0.950 . S
C2014 C2013 1.414 . S
C2014 C2015 1.374 . S
C2015 H1995 0.950 . S
C2015 C2011 1.385 . S
C2015 C2014 1.374 . S
C2016 C2013 1.499 . S
C2016 C2017 1.373 . S
C2016 C2018 1.389 . S
C2017 H1996 0.950 . S
C2017 C2016 1.373 . S
C2017 C2033 1.377 . S
C2018 C2016 1.389 . S
C2018 C2019 1.524 . S
C2018 C2032 1.377 . S
C2019 C2018 1.524 . S
C2019 C2020 1.397 . S
C2019 C2024 1.363 . S
C2020 H1997 0.950 . S
C2020 C2019 1.397 . S
C2020 C2021 1.334 . S
C2021 H1998 0.950 . S
C2021 C2020 1.334 . S
C2021 C2022 1.287 . S
C2022 C2021 1.287 . S
C2022 C2023 1.524 . S
C2022 H2041 0.913 . S
C2023 H1999 0.950 . S
C2023 C2022 1.524 . S
C2023 C2024 1.415 . S
C2024 H2000 0.950 . S
C2024 C2019 1.363 . S
C2024 C2023 1.415 . S
C2025 H2001 0.951 . S
C2025 C2026 1.366 . S
C2025 C2027 1.388 . S
C2026 C2025 1.366 . S
C2026 C2030 1.385 . S
C2027 H2002 0.951 . S
C2027 C2025 1.388 . S
C2027 C2028 1.366 . S
C2028 C2027 1.366 . S
C2028 C2029 1.414 . S
C2028 C2031 1.499 . S
C2029 H2003 0.950 . S
C2029 C2028 1.414 . S
C2029 C2030 1.374 . S
C2030 H2004 0.950 . S
C2030 C2026 1.385 . S
C2030 C2029 1.374 . S
C2031 C2028 1.499 . S
C2031 C2032 1.373 . S
C2031 C2033 1.389 . S
C2032 H2005 0.950 . S
C2032 C2018 1.377 . S
C2032 C2031 1.373 . S
C2033 C2017 1.377 . S
C2033 C2031 1.389 . S
C2033 C2034 1.524 . S
C2034 C2033 1.524 . S
C2034 C2035 1.397 . S
C2034 C2039 1.363 . S
C2035 H2006 0.950 . S
C2035 C2034 1.397 . S
C2035 C2036 1.334 . S
C2036 H2007 0.950 . S
C2036 C2035 1.334 . S
C2036 C2037 1.287 . S
C2037 C2036 1.287 . S
C2037 C2038 1.524 . S
C2037 H2040 0.999 . S
C2038 H2008 0.950 . S
C2038 C2037 1.524 . S
C2038 C2039 1.415 . S
C2039 H2009 0.950 . S
C2039 C2034 1.363 . S
C2039 C2038 1.415 . S
H2040 C2037 0.999 . S
H2041 C2022 0.913 . S
H2042 C2060 0.951 . S
H2043 C2062 0.951 . S
H2044 C2064 0.950 . S
H2045 C2065 0.950 . S
H2046 C2067 0.950 . S
H2047 C2070 0.950 . S
H2048 C2071 0.950 . S
H2049 C2073 0.950 . S
H2050 C2074 0.950 . S
H2051 C2075 0.951 . S
H2052 C2077 0.951 . S
H2053 C2079 0.950 . S
H2054 C2080 0.950 . S
H2055 C2082 0.950 . S
H2056 C2085 0.950 . S
H2057 C2086 0.950 . S
H2058 C2088 0.950 . S
H2059 C2089 0.950 . S
C2060 H2042 0.951 . S
C2060 C2061 1.366 . S
C2060 C2062 1.388 . S
C2061 C2060 1.366 . S
C2061 C2065 1.385 . S
C2062 H2043 0.951 . S
C2062 C2060 1.388 . S
C2062 C2063 1.366 . S
C2063 C2062 1.366 . S
C2063 C2064 1.414 . S
C2063 C2066 1.499 . S
C2064 H2044 0.950 . S
C2064 C2063 1.414 . S
C2064 C2065 1.374 . S
C2065 H2045 0.950 . S
C2065 C2061 1.385 . S
C2065 C2064 1.374 . S
C2066 C2063 1.499 . S
C2066 C2067 1.373 . S
C2066 C2068 1.389 . S
C2067 H2046 0.950 . S
C2067 C2066 1.373 . S
C2067 C2083 1.377 . S
C2068 C2066 1.389 . S
C2068 C2069 1.524 . S
C2068 C2082 1.377 . S
C2069 C2068 1.524 . S
C2069 C2070 1.397 . S
C2069 C2074 1.363 . S
C2070 H2047 0.950 . S
C2070 C2069 1.397 . S
C2070 C2071 1.334 . S
C2071 H2048 0.950 . S
C2071 C2070 1.334 . S
C2071 C2072 1.287 . S
C2072 C2071 1.287 . S
C2072 C2073 1.524 . S
C2072 H2091 0.913 . S
C2073 H2049 0.950 . S
C2073 C2072 1.524 . S
C2073 C2074 1.415 . S
C2074 H2050 0.950 . S
C2074 C2069 1.363 . S
C2074 C2073 1.415 . S
C2075 H2051 0.951 . S
C2075 C2076 1.366 . S
C2075 C2077 1.388 . S
C2076 C2075 1.366 . S
C2076 C2080 1.385 . S
C2077 H2052 0.951 . S
C2077 C2075 1.388 . S
C2077 C2078 1.366 . S
C2078 C2077 1.366 . S
C2078 C2079 1.414 . S
C2078 C2081 1.499 . S
C2079 H2053 0.950 . S
C2079 C2078 1.414 . S
C2079 C2080 1.374 . S
C2080 H2054 0.950 . S
C2080 C2076 1.385 . S
C2080 C2079 1.374 . S
C2081 C2078 1.499 . S
C2081 C2082 1.373 . S
C2081 C2083 1.389 . S
C2082 H2055 0.950 . S
C2082 C2068 1.377 . S
C2082 C2081 1.373 . S
C2083 C2067 1.377 . S
C2083 C2081 1.389 . S
C2083 C2084 1.524 . S
C2084 C2083 1.524 . S
C2084 C2085 1.397 . S
C2084 C2089 1.363 . S
C2085 H2056 0.950 . S
C2085 C2084 1.397 . S
C2085 C2086 1.334 . S
C2086 H2057 0.950 . S
C2086 C2085 1.334 . S
C2086 C2087 1.287 . S
C2087 C2086 1.287 . S
C2087 C2088 1.524 . S
C2087 H2090 0.999 . S
C2088 H2058 0.950 . S
C2088 C2087 1.524 . S
C2088 C2089 1.415 . S
C2089 H2059 0.950 . S
C2089 C2084 1.363 . S
C2089 C2088 1.415 . S
H2090 C2087 0.999 . S
H2091 C2072 0.913 . S
H2092 C2110 0.951 . S
H2093 C2112 0.951 . S
H2094 C2114 0.950 . S
H2095 C2115 0.950 . S
H2096 C2117 0.950 . S
H2097 C2120 0.950 . S
H2098 C2121 0.950 . S
H2099 C2123 0.950 . S
H2100 C2124 0.950 . S
H2101 C2125 0.951 . S
H2102 C2127 0.951 . S
H2103 C2129 0.950 . S
H2104 C2130 0.950 . S
H2105 C2132 0.950 . S
H2106 C2135 0.950 . S
H2107 C2136 0.950 . S
H2108 C2138 0.950 . S
H2109 C2139 0.950 . S
C2110 H2092 0.951 . S
C2110 C2111 1.366 . S
C2110 C2112 1.388 . S
C2111 C2110 1.366 . S
C2111 C2115 1.385 . S
C2112 H2093 0.951 . S
C2112 C2110 1.388 . S
C2112 C2113 1.366 . S
C2113 C2112 1.366 . S
C2113 C2114 1.414 . S
C2113 C2116 1.499 . S
C2114 H2094 0.950 . S
C2114 C2113 1.414 . S
C2114 C2115 1.374 . S
C2115 H2095 0.950 . S
C2115 C2111 1.385 . S
C2115 C2114 1.374 . S
C2116 C2113 1.499 . S
C2116 C2117 1.373 . S
C2116 C2118 1.389 . S
C2117 H2096 0.950 . S
C2117 C2116 1.373 . S
C2117 C2133 1.377 . S
C2118 C2116 1.389 . S
C2118 C2119 1.524 . S
C2118 C2132 1.377 . S
C2119 C2118 1.524 . S
C2119 C2120 1.397 . S
C2119 C2124 1.363 . S
C2120 H2097 0.950 . S
C2120 C2119 1.397 . S
C2120 C2121 1.334 . S
C2121 H2098 0.950 . S
C2121 C2120 1.334 . S
C2121 C2122 1.287 . S
C2122 C2121 1.287 . S
C2122 C2123 1.524 . S
C2122 H2141 0.913 . S
C2123 H2099 0.950 . S
C2123 C2122 1.524 . S
C2123 C2124 1.415 . S
C2124 H2100 0.950 . S
C2124 C2119 1.363 . S
C2124 C2123 1.415 . S
C2125 H2101 0.951 . S
C2125 C2126 1.366 . S
C2125 C2127 1.388 . S
C2126 C2125 1.366 . S
C2126 C2130 1.385 . S
C2127 H2102 0.951 . S
C2127 C2125 1.388 . S
C2127 C2128 1.366 . S
C2128 C2127 1.366 . S
C2128 C2129 1.414 . S
C2128 C2131 1.499 . S
C2129 H2103 0.950 . S
C2129 C2128 1.414 . S
C2129 C2130 1.374 . S
C2130 H2104 0.950 . S
C2130 C2126 1.385 . S
C2130 C2129 1.374 . S
C2131 C2128 1.499 . S
C2131 C2132 1.373 . S
C2131 C2133 1.389 . S
C2132 H2105 0.950 . S
C2132 C2118 1.377 . S
C2132 C2131 1.373 . S
C2133 C2117 1.377 . S
C2133 C2131 1.389 . S
C2133 C2134 1.524 . S
C2134 C2133 1.524 . S
C2134 C2135 1.397 . S
C2134 C2139 1.363 . S
C2135 H2106 0.950 . S
C2135 C2134 1.397 . S
C2135 C2136 1.334 . S
C2136 H2107 0.950 . S
C2136 C2135 1.334 . S
C2136 C2137 1.287 . S
C2137 C2136 1.287 . S
C2137 C2138 1.524 . S
C2137 H2140 0.999 . S
C2138 H2108 0.950 . S
C2138 C2137 1.524 . S
C2138 C2139 1.415 . S
C2139 H2109 0.950 . S
C2139 C2134 1.363 . S
C2139 C2138 1.415 . S
H2140 C2137 0.999 . S
H2141 C2122 0.913 . S
H2142 C2160 0.951 . S
H2143 C2162 0.951 . S
H2144 C2164 0.950 . S
H2145 C2165 0.950 . S
H2146 C2167 0.950 . S
H2147 C2170 0.950 . S
H2148 C2171 0.950 . S
H2149 C2173 0.950 . S
H2150 C2174 0.950 . S
H2151 C2175 0.951 . S
H2152 C2177 0.951 . S
H2153 C2179 0.950 . S
H2154 C2180 0.950 . S
H2155 C2182 0.950 . S
H2156 C2185 0.950 . S
H2157 C2186 0.950 . S
H2158 C2188 0.950 . S
H2159 C2189 0.950 . S
C2160 H2142 0.951 . S
C2160 C2161 1.366 . S
C2160 C2162 1.388 . S
C2161 C2160 1.366 . S
C2161 C2165 1.385 . S
C2162 H2143 0.951 . S
C2162 C2160 1.388 . S
C2162 C2163 1.366 . S
C2163 C2162 1.366 . S
C2163 C2164 1.414 . S
C2163 C2166 1.499 . S
C2164 H2144 0.950 . S
C2164 C2163 1.414 . S
C2164 C2165 1.374 . S
C2165 H2145 0.950 . S
C2165 C2161 1.385 . S
C2165 C2164 1.374 . S
C2166 C2163 1.499 . S
C2166 C2167 1.373 . S
C2166 C2168 1.389 . S
C2167 H2146 0.950 . S
C2167 C2166 1.373 . S
C2167 C2183 1.377 . S
C2168 C2166 1.389 . S
C2168 C2169 1.524 . S
C2168 C2182 1.377 . S
C2169 C2168 1.524 . S
C2169 C2170 1.397 . S
C2169 C2174 1.363 . S
C2170 H2147 0.950 . S
C2170 C2169 1.397 . S
C2170 C2171 1.334 . S
C2171 H2148 0.950 . S
C2171 C2170 1.334 . S
C2171 C2172 1.287 . S
C2172 C2171 1.287 . S
C2172 C2173 1.524 . S
C2172 H2191 0.913 . S
C2173 H2149 0.950 . S
C2173 C2172 1.524 . S
C2173 C2174 1.415 . S
C2174 H2150 0.950 . S
C2174 C2169 1.363 . S
C2174 C2173 1.415 . S
C2175 H2151 0.951 . S
C2175 C2176 1.366 . S
C2175 C2177 1.388 . S
C2176 C2175 1.366 . S
C2176 C2180 1.385 . S
C2177 H2152 0.951 . S
C2177 C2175 1.388 . S
C2177 C2178 1.366 . S
C2178 C2177 1.366 . S
C2178 C2179 1.414 . S
C2178 C2181 1.499 . S
C2179 H2153 0.950 . S
C2179 C2178 1.414 . S
C2179 C2180 1.374 . S
C2180 H2154 0.950 . S
C2180 C2176 1.385 . S
C2180 C2179 1.374 . S
C2181 C2178 1.499 . S
C2181 C2182 1.373 . S
C2181 C2183 1.389 . S
C2182 H2155 0.950 . S
C2182 C2168 1.377 . S
C2182 C2181 1.373 . S
C2183 C2167 1.377 . S
C2183 C2181 1.389 . S
C2183 C2184 1.524 . S
C2184 C2183 1.524 . S
C2184 C2185 1.397 . S
C2184 C2189 1.363 . S
C2185 H2156 0.950 . S
C2185 C2184 1.397 . S
C2185 C2186 1.334 . S
C2186 H2157 0.950 . S
C2186 C2185 1.334 . S
C2186 C2187 1.287 . S
C2187 C2186 1.287 . S
C2187 C2188 1.524 . S
C2187 H2190 0.999 . S
C2188 H2158 0.950 . S
C2188 C2187 1.524 . S
C2188 C2189 1.415 . S
C2189 H2159 0.950 . S
C2189 C2184 1.363 . S
C2189 C2188 1.415 . S
H2190 C2187 0.999 . S
H2191 C2172 0.913 . S
H2192 C2210 0.951 . S
H2193 C2212 0.951 . S
H2194 C2214 0.950 . S
H2195 C2215 0.950 . S
H2196 C2217 0.950 . S
H2197 C2220 0.950 . S
H2198 C2221 0.950 . S
H2199 C2223 0.950 . S
H2200 C2224 0.950 . S
H2201 C2225 0.951 . S
H2202 C2227 0.951 . S
H2203 C2229 0.950 . S
H2204 C2230 0.950 . S
H2205 C2232 0.950 . S
H2206 C2235 0.950 . S
H2207 C2236 0.950 . S
H2208 C2238 0.950 . S
H2209 C2239 0.950 . S
C2210 H2192 0.951 . S
C2210 C2211 1.366 . S
C2210 C2212 1.388 . S
C2211 C2210 1.366 . S
C2211 C2215 1.385 . S
C2212 H2193 0.951 . S
C2212 C2210 1.388 . S
C2212 C2213 1.366 . S
C2213 C2212 1.366 . S
C2213 C2214 1.414 . S
C2213 C2216 1.499 . S
C2214 H2194 0.950 . S
C2214 C2213 1.414 . S
C2214 C2215 1.374 . S
C2215 H2195 0.950 . S
C2215 C2211 1.385 . S
C2215 C2214 1.374 . S
C2216 C2213 1.499 . S
C2216 C2217 1.373 . S
C2216 C2218 1.389 . S
C2217 H2196 0.950 . S
C2217 C2216 1.373 . S
C2217 C2233 1.377 . S
C2218 C2216 1.389 . S
C2218 C2219 1.524 . S
C2218 C2232 1.377 . S
C2219 C2218 1.524 . S
C2219 C2220 1.397 . S
C2219 C2224 1.363 . S
C2220 H2197 0.950 . S
C2220 C2219 1.397 . S
C2220 C2221 1.334 . S
C2221 H2198 0.950 . S
C2221 C2220 1.334 . S
C2221 C2222 1.287 . S
C2222 C2221 1.287 . S
C2222 C2223 1.524 . S
C2222 H2241 0.913 . S
C2223 H2199 0.950 . S
C2223 C2222 1.524 . S
C2223 C2224 1.415 . S
C2224 H2200 0.950 . S
C2224 C2219 1.363 . S
C2224 C2223 1.415 . S
C2225 H2201 0.951 . S
C2225 C2226 1.366 . S
C2225 C2227 1.388 . S
C2226 C2225 1.366 . S
C2226 C2230 1.385 . S
C2227 H2202 0.951 . S
C2227 C2225 1.388 . S
C2227 C2228 1.366 . S
C2228 C2227 1.366 . S
C2228 C2229 1.414 . S
C2228 C2231 1.499 . S
C2229 H2203 0.950 . S
C2229 C2228 1.414 . S
C2229 C2230 1.374 . S
C2230 H2204 0.950 . S
C2230 C2226 1.385 . S
C2230 C2229 1.374 . S
C2231 C2228 1.499 . S
C2231 C2232 1.373 . S
C2231 C2233 1.389 . S
C2232 H2205 0.950 . S
C2232 C2218 1.377 . S
C2232 C2231 1.373 . S
C2233 C2217 1.377 . S
C2233 C2231 1.389 . S
C2233 C2234 1.524 . S
C2234 C2233 1.524 . S
C2234 C2235 1.397 . S
C2234 C2239 1.363 . S
C2235 H2206 0.950 . S
C2235 C2234 1.397 . S
C2235 C2236 1.334 . S
C2236 H2207 0.950 . S
C2236 C2235 1.334 . S
C2236 C2237 1.287 . S
C2237 C2236 1.287 . S
C2237 C2238 1.524 . S
C2237 H2240 0.999 . S
C2238 H2208 0.950 . S
C2238 C2237 1.524 . S
C2238 C2239 1.415 . S
C2239 H2209 0.950 . S
C2239 C2234 1.363 . S
C2239 C2238 1.415 . S
H2240 C2237 0.999 . S
H2241 C2222 0.913 . S
H2242 C2260 0.951 . S
H2243 C2262 0.951 . S
H2244 C2264 0.950 . S
H2245 C2265 0.950 . S
H2246 C2267 0.950 . S
H2247 C2270 0.950 . S
H2248 C2271 0.950 . S
H2249 C2273 0.950 . S
H2250 C2274 0.950 . S
H2251 C2275 0.951 . S
H2252 C2277 0.951 . S
H2253 C2279 0.950 . S
H2254 C2280 0.950 . S
H2255 C2282 0.950 . S
H2256 C2285 0.950 . S
H2257 C2286 0.950 . S
H2258 C2288 0.950 . S
H2259 C2289 0.950 . S
C2260 H2242 0.951 . S
C2260 C2261 1.366 . S
C2260 C2262 1.388 . S
C2261 C2260 1.366 . S
C2261 C2265 1.385 . S
C2262 H2243 0.951 . S
C2262 C2260 1.388 . S
C2262 C2263 1.366 . S
C2263 C2262 1.366 . S
C2263 C2264 1.414 . S
C2263 C2266 1.499 . S
C2264 H2244 0.950 . S
C2264 C2263 1.414 . S
C2264 C2265 1.374 . S
C2265 H2245 0.950 . S
C2265 C2261 1.385 . S
C2265 C2264 1.374 . S
C2266 C2263 1.499 . S
C2266 C2267 1.373 . S
C2266 C2268 1.389 1_455 S
C2267 H2246 0.950 . S
C2267 C2266 1.373 . S
C2267 C2283 1.377 1_455 S
C2268 C2266 1.389 1_655 S
C2268 C2269 1.524 . S
C2268 C2282 1.377 . S
C2269 C2268 1.524 . S
C2269 C2270 1.397 . S
C2269 C2274 1.363 . S
C2270 H2247 0.950 . S
C2270 C2269 1.397 . S
C2270 C2271 1.334 . S
C2271 H2248 0.950 . S
C2271 C2270 1.334 . S
C2271 C2272 1.287 . S
C2272 C2271 1.287 . S
C2272 C2273 1.524 . S
C2272 H2291 0.913 . S
C2273 H2249 0.950 . S
C2273 C2272 1.524 . S
C2273 C2274 1.415 . S
C2274 H2250 0.950 . S
C2274 C2269 1.363 . S
C2274 C2273 1.415 . S
C2275 H2251 0.951 . S
C2275 C2276 1.366 . S
C2275 C2277 1.388 . S
C2276 C2275 1.366 . S
C2276 C2280 1.385 . S
C2277 H2252 0.951 . S
C2277 C2275 1.388 . S
C2277 C2278 1.366 . S
C2278 C2277 1.366 . S
C2278 C2279 1.414 . S
C2278 C2281 1.499 . S
C2279 H2253 0.950 . S
C2279 C2278 1.414 . S
C2279 C2280 1.374 . S
C2280 H2254 0.950 . S
C2280 C2276 1.385 . S
C2280 C2279 1.374 . S
C2281 C2278 1.499 . S
C2281 C2282 1.373 . S
C2281 C2283 1.389 . S
C2282 H2255 0.950 . S
C2282 C2268 1.377 . S
C2282 C2281 1.373 . S
C2283 C2267 1.377 1_655 S
C2283 C2281 1.389 . S
C2283 C2284 1.524 . S
C2284 C2283 1.524 . S
C2284 C2285 1.397 . S
C2284 C2289 1.363 1_655 S
C2285 H2256 0.950 . S
C2285 C2284 1.397 . S
C2285 C2286 1.334 . S
C2286 H2257 0.950 . S
C2286 C2285 1.334 . S
C2286 C2287 1.287 . S
C2287 C2286 1.287 . S
C2287 C2288 1.524 1_655 S
C2287 H2290 0.987 1_655 S
C2288 H2258 0.950 . S
C2288 C2287 1.524 1_455 S
C2288 C2289 1.415 . S
C2289 H2259 0.950 . S
C2289 C2284 1.363 1_455 S
C2289 C2288 1.415 . S
H2290 C2287 0.987 1_455 S
H2291 C2272 0.913 . S
H2292 C2310 0.951 . S
H2293 C2312 0.951 . S
H2294 C2314 0.950 . S
H2295 C2315 0.950 . S
H2296 C2317 0.950 . S
H2297 C2320 0.950 . S
H2298 C2321 0.950 . S
H2299 C2323 0.950 . S
H2300 C2324 0.950 . S
H2301 C2325 0.951 . S
H2302 C2327 0.951 . S
H2303 C2329 0.950 . S
H2304 C2330 0.950 . S
H2305 C2332 0.950 . S
H2306 C2335 0.950 . S
H2307 C2336 0.950 . S
H2308 C2338 0.950 . S
H2309 C2339 0.950 . S
C2310 H2292 0.951 . S
C2310 C2311 1.366 . S
C2310 C2312 1.388 . S
C2311 C2310 1.366 . S
C2311 C2315 1.385 . S
C2312 H2293 0.951 . S
C2312 C2310 1.388 . S
C2312 C2313 1.366 . S
C2313 C2312 1.366 . S
C2313 C2314 1.414 . S
C2313 C2316 1.499 . S
C2314 H2294 0.950 . S
C2314 C2313 1.414 . S
C2314 C2315 1.374 . S
C2315 H2295 0.950 . S
C2315 C2311 1.385 . S
C2315 C2314 1.374 . S
C2316 C2313 1.499 . S
C2316 C2317 1.373 . S
C2316 C2318 1.389 . S
C2317 H2296 0.950 . S
C2317 C2316 1.373 . S
C2317 C2333 1.377 . S
C2318 C2316 1.389 . S
C2318 C2319 1.524 . S
C2318 C2332 1.377 . S
C2319 C2318 1.524 . S
C2319 C2320 1.397 . S
C2319 C2324 1.363 . S
C2320 H2297 0.950 . S
C2320 C2319 1.397 . S
C2320 C2321 1.334 . S
C2321 H2298 0.950 . S
C2321 C2320 1.334 . S
C2321 C2322 1.287 . S
C2322 C2321 1.287 . S
C2322 C2323 1.524 . S
C2322 H2341 0.913 . S
C2323 H2299 0.950 . S
C2323 C2322 1.524 . S
C2323 C2324 1.415 . S
C2324 H2300 0.950 . S
C2324 C2319 1.363 . S
C2324 C2323 1.415 . S
C2325 H2301 0.951 . S
C2325 C2326 1.366 . S
C2325 C2327 1.388 . S
C2326 C2325 1.366 . S
C2326 C2330 1.385 . S
C2327 H2302 0.951 . S
C2327 C2325 1.388 . S
C2327 C2328 1.366 . S
C2328 C2327 1.366 . S
C2328 C2329 1.414 . S
C2328 C2331 1.499 . S
C2329 H2303 0.950 . S
C2329 C2328 1.414 . S
C2329 C2330 1.374 . S
C2330 H2304 0.950 . S
C2330 C2326 1.385 . S
C2330 C2329 1.374 . S
C2331 C2328 1.499 . S
C2331 C2332 1.373 . S
C2331 C2333 1.389 . S
C2332 H2305 0.950 . S
C2332 C2318 1.377 . S
C2332 C2331 1.373 . S
C2333 C2317 1.377 . S
C2333 C2331 1.389 . S
C2333 C2334 1.524 . S
C2334 C2333 1.524 . S
C2334 C2335 1.397 . S
C2334 C2339 1.363 . S
C2335 H2306 0.950 . S
C2335 C2334 1.397 . S
C2335 C2336 1.334 . S
C2336 H2307 0.950 . S
C2336 C2335 1.334 . S
C2336 C2337 1.287 . S
C2337 C2336 1.287 . S
C2337 C2338 1.524 . S
C2337 H2340 0.999 . S
C2338 H2308 0.950 . S
C2338 C2337 1.524 . S
C2338 C2339 1.415 . S
C2339 H2309 0.950 . S
C2339 C2334 1.363 . S
C2339 C2338 1.415 . S
H2340 C2337 0.999 . S
H2341 C2322 0.913 . S
H2342 C2360 0.951 . S
H2343 C2362 0.951 . S
H2344 C2364 0.950 . S
H2345 C2365 0.950 . S
H2346 C2367 0.950 . S
H2347 C2370 0.950 . S
H2348 C2371 0.950 . S
H2349 C2373 0.950 . S
H2350 C2374 0.950 . S
H2351 C2375 0.951 . S
H2352 C2377 0.951 . S
H2353 C2379 0.950 . S
H2354 C2380 0.950 . S
H2355 C2382 0.950 . S
H2356 C2385 0.950 . S
H2357 C2386 0.950 . S
H2358 C2388 0.950 . S
H2359 C2389 0.950 . S
C2360 H2342 0.951 . S
C2360 C2361 1.366 . S
C2360 C2362 1.388 . S
C2361 C2360 1.366 . S
C2361 C2365 1.385 . S
C2362 H2343 0.951 . S
C2362 C2360 1.388 . S
C2362 C2363 1.366 . S
C2363 C2362 1.366 . S
C2363 C2364 1.414 . S
C2363 C2366 1.499 . S
C2364 H2344 0.950 . S
C2364 C2363 1.414 . S
C2364 C2365 1.374 . S
C2365 H2345 0.950 . S
C2365 C2361 1.385 . S
C2365 C2364 1.374 . S
C2366 C2363 1.499 . S
C2366 C2367 1.373 . S
C2366 C2368 1.389 1_655 S
C2367 H2346 0.950 . S
C2367 C2366 1.373 . S
C2367 C2383 1.377 1_655 S
C2368 C2366 1.389 1_455 S
C2368 C2369 1.524 . S
C2368 C2382 1.377 . S
C2369 C2368 1.524 . S
C2369 C2370 1.397 1_455 S
C2369 C2374 1.363 . S
C2370 H2347 0.950 . S
C2370 C2369 1.397 1_655 S
C2370 C2371 1.334 . S
C2371 H2348 0.950 . S
C2371 C2370 1.334 . S
C2371 C2372 1.287 1_655 S
C2372 C2371 1.287 1_455 S
C2372 C2373 1.524 . S
C2372 H2391 0.913 . S
C2373 H2349 0.950 . S
C2373 C2372 1.524 . S
C2373 C2374 1.415 . S
C2374 H2350 0.950 . S
C2374 C2369 1.363 . S
C2374 C2373 1.415 . S
C2375 H2351 0.951 . S
C2375 C2376 1.366 . S
C2375 C2377 1.388 . S
C2376 C2375 1.366 . S
C2376 C2380 1.385 . S
C2377 H2352 0.951 . S
C2377 C2375 1.388 . S
C2377 C2378 1.366 . S
C2378 C2377 1.366 . S
C2378 C2379 1.414 . S
C2378 C2381 1.499 . S
C2379 H2353 0.950 . S
C2379 C2378 1.414 . S
C2379 C2380 1.374 . S
C2380 H2354 0.950 . S
C2380 C2376 1.385 . S
C2380 C2379 1.374 . S
C2381 C2378 1.499 . S
C2381 C2382 1.373 . S
C2381 C2383 1.389 . S
C2382 H2355 0.950 . S
C2382 C2368 1.377 . S
C2382 C2381 1.373 . S
C2383 C2367 1.377 1_455 S
C2383 C2381 1.389 . S
C2383 C2384 1.524 . S
C2384 C2383 1.524 . S
C2384 C2385 1.397 . S
C2384 C2389 1.363 1_455 S
C2385 H2356 0.950 . S
C2385 C2384 1.397 . S
C2385 C2386 1.334 . S
C2386 H2357 0.950 . S
C2386 C2385 1.334 . S
C2386 C2387 1.287 . S
C2387 C2386 1.287 . S
C2387 C2388 1.524 1_455 S
C2387 H2390 0.999 . S
C2388 H2358 0.950 . S
C2388 C2387 1.524 1_655 S
C2388 C2389 1.415 . S
C2389 H2359 0.950 . S
C2389 C2384 1.363 1_655 S
C2389 C2388 1.415 . S
H2390 C2387 0.999 . S
H2391 C2372 0.913 . S
H2392 C2410 0.951 . S
H2393 C2412 0.951 . S
H2394 C2414 0.950 . S
H2395 C2415 0.950 . S
H2396 C2417 0.950 . S
H2397 C2420 0.950 . S
H2398 C2421 0.950 . S
H2399 C2423 0.950 . S
H2400 C2424 0.950 . S
H2401 C2425 0.951 . S
H2402 C2427 0.951 . S
H2403 C2429 0.950 . S
H2404 C2430 0.950 . S
H2405 C2432 0.950 . S
H2406 C2435 0.950 . S
H2407 C2436 0.950 . S
H2408 C2438 0.950 . S
H2409 C2439 0.950 . S
C2410 H2392 0.951 . S
C2410 C2411 1.366 . S
C2410 C2412 1.388 . S
C2411 C2410 1.366 . S
C2411 C2415 1.385 . S
C2412 H2393 0.951 . S
C2412 C2410 1.388 . S
C2412 C2413 1.366 . S
C2413 C2412 1.366 . S
C2413 C2414 1.414 . S
C2413 C2416 1.499 . S
C2414 H2394 0.950 . S
C2414 C2413 1.414 . S
C2414 C2415 1.374 . S
C2415 H2395 0.950 . S
C2415 C2411 1.385 . S
C2415 C2414 1.374 . S
C2416 C2413 1.499 . S
C2416 C2417 1.373 . S
C2416 C2418 1.389 . S
C2417 H2396 0.950 . S
C2417 C2416 1.373 . S
C2417 C2433 1.377 . S
C2418 C2416 1.389 . S
C2418 C2419 1.524 . S
C2418 C2432 1.377 . S
C2419 C2418 1.524 . S
C2419 C2420 1.397 . S
C2419 C2424 1.363 . S
C2420 H2397 0.950 . S
C2420 C2419 1.397 . S
C2420 C2421 1.334 . S
C2421 H2398 0.950 . S
C2421 C2420 1.334 . S
C2421 C2422 1.287 . S
C2422 C2421 1.287 . S
C2422 C2423 1.524 . S
C2422 H2441 0.913 . S
C2423 H2399 0.950 . S
C2423 C2422 1.524 . S
C2423 C2424 1.415 . S
C2424 H2400 0.950 . S
C2424 C2419 1.363 . S
C2424 C2423 1.415 . S
C2425 H2401 0.951 . S
C2425 C2426 1.366 . S
C2425 C2427 1.388 . S
C2426 C2425 1.366 . S
C2426 C2430 1.385 . S
C2427 H2402 0.951 . S
C2427 C2425 1.388 . S
C2427 C2428 1.366 . S
C2428 C2427 1.366 . S
C2428 C2429 1.414 . S
C2428 C2431 1.499 . S
C2429 H2403 0.950 . S
C2429 C2428 1.414 . S
C2429 C2430 1.374 . S
C2430 H2404 0.950 . S
C2430 C2426 1.385 . S
C2430 C2429 1.374 . S
C2431 C2428 1.499 . S
C2431 C2432 1.373 . S
C2431 C2433 1.389 . S
C2432 H2405 0.950 . S
C2432 C2418 1.377 . S
C2432 C2431 1.373 . S
C2433 C2417 1.377 . S
C2433 C2431 1.389 . S
C2433 C2434 1.524 . S
C2434 C2433 1.524 . S
C2434 C2435 1.397 . S
C2434 C2439 1.363 . S
C2435 H2406 0.950 . S
C2435 C2434 1.397 . S
C2435 C2436 1.334 . S
C2436 H2407 0.950 . S
C2436 C2435 1.334 . S
C2436 C2437 1.287 . S
C2437 C2436 1.287 . S
C2437 C2438 1.524 . S
C2437 H2440 0.999 . S
C2438 H2408 0.950 . S
C2438 C2437 1.524 . S
C2438 C2439 1.415 . S
C2439 H2409 0.950 . S
C2439 C2434 1.363 . S
C2439 C2438 1.415 . S
H2440 C2437 0.999 . S
H2441 C2422 0.913 . S
H2442 C2460 0.951 . S
H2443 C2462 0.951 . S
H2444 C2464 0.950 . S
H2445 C2465 0.950 . S
H2446 C2467 0.950 . S
H2447 C2470 0.950 . S
H2448 C2471 0.950 . S
H2449 C2473 0.950 . S
H2450 C2474 0.950 1_556 S
H2451 C2475 0.951 . S
H2452 C2477 0.951 . S
H2453 C2479 0.950 . S
H2454 C2480 0.950 . S
H2455 C2482 0.950 . S
H2456 C2485 0.950 . S
H2457 C2486 0.950 . S
H2458 C2488 0.950 . S
H2459 C2489 0.950 . S
C2460 H2442 0.951 . S
C2460 C2461 1.366 . S
C2460 C2462 1.388 . S
C2461 C2460 1.366 . S
C2461 C2465 1.385 . S
C2462 H2443 0.951 . S
C2462 C2460 1.388 . S
C2462 C2463 1.366 . S
C2463 C2462 1.366 . S
C2463 C2464 1.414 . S
C2463 C2466 1.499 1_554 S
C2464 H2444 0.950 . S
C2464 C2463 1.414 . S
C2464 C2465 1.374 . S
C2465 H2445 0.950 . S
C2465 C2461 1.385 . S
C2465 C2464 1.374 . S
C2466 C2463 1.499 1_556 S
C2466 C2467 1.373 . S
C2466 C2468 1.389 . S
C2467 H2446 0.950 . S
C2467 C2466 1.373 . S
C2467 C2483 1.377 . S
C2468 C2466 1.389 . S
C2468 C2469 1.524 1_556 S
C2468 C2482 1.377 . S
C2469 C2468 1.524 1_554 S
C2469 C2470 1.397 . S
C2469 C2474 1.363 . S
C2470 H2447 0.950 . S
C2470 C2469 1.397 . S
C2470 C2471 1.334 . S
C2471 H2448 0.950 . S
C2471 C2470 1.334 . S
C2471 C2472 1.287 . S
C2472 C2471 1.287 . S
C2472 C2473 1.524 . S
C2472 H2491 0.913 . S
C2473 H2449 0.950 . S
C2473 C2472 1.524 . S
C2473 C2474 1.415 . S
C2474 H2450 0.950 1_554 S
C2474 C2469 1.363 . S
C2474 C2473 1.415 . S
C2475 H2451 0.951 . S
C2475 C2476 1.366 . S
C2475 C2477 1.388 . S
C2476 C2475 1.366 . S
C2476 C2480 1.385 . S
C2477 H2452 0.951 . S
C2477 C2475 1.388 . S
C2477 C2478 1.366 . S
C2478 C2477 1.366 . S
C2478 C2479 1.414 . S
C2478 C2481 1.499 . S
C2479 H2453 0.950 . S
C2479 C2478 1.414 . S
C2479 C2480 1.374 . S
C2480 H2454 0.950 . S
C2480 C2476 1.385 . S
C2480 C2479 1.374 . S
C2481 C2478 1.499 . S
C2481 C2482 1.373 . S
C2481 C2483 1.389 . S
C2482 H2455 0.950 . S
C2482 C2468 1.377 . S
C2482 C2481 1.373 . S
C2483 C2467 1.377 . S
C2483 C2481 1.389 . S
C2483 C2484 1.524 . S
C2484 C2483 1.524 . S
C2484 C2485 1.397 . S
C2484 C2489 1.363 . S
C2485 H2456 0.950 . S
C2485 C2484 1.397 . S
C2485 C2486 1.334 . S
C2486 H2457 0.950 . S
C2486 C2485 1.334 . S
C2486 C2487 1.287 . S
C2487 C2486 1.287 . S
C2487 C2488 1.524 . S
C2487 H2490 0.999 . S
C2488 H2458 0.950 . S
C2488 C2487 1.524 . S
C2488 C2489 1.415 . S
C2489 H2459 0.950 . S
C2489 C2484 1.363 . S
C2489 C2488 1.415 . S
H2490 C2487 0.999 . S
H2491 C2472 0.913 . S
H2492 C2510 0.951 . S
H2493 C2512 0.951 . S
H2494 C2514 0.950 . S
H2495 C2515 0.950 . S
H2496 C2517 0.950 . S
H2497 C2520 0.950 . S
H2498 C2521 0.950 . S
H2499 C2523 0.950 . S
H2500 C2524 0.950 . S
H2501 C2525 0.951 . S
H2502 C2527 0.951 . S
H2503 C2529 0.950 . S
H2504 C2530 0.950 . S
H2505 C2532 0.950 . S
H2506 C2535 0.950 . S
H2507 C2536 0.950 . S
H2508 C2538 0.950 . S
H2509 C2539 0.950 . S
C2510 H2492 0.951 . S
C2510 C2511 1.366 . S
C2510 C2512 1.388 . S
C2511 C2510 1.366 . S
C2511 C2515 1.385 . S
C2512 H2493 0.951 . S
C2512 C2510 1.388 . S
C2512 C2513 1.366 . S
C2513 C2512 1.366 . S
C2513 C2514 1.414 . S
C2513 C2516 1.499 . S
C2514 H2494 0.950 . S
C2514 C2513 1.414 . S
C2514 C2515 1.374 . S
C2515 H2495 0.950 . S
C2515 C2511 1.385 . S
C2515 C2514 1.374 . S
C2516 C2513 1.499 . S
C2516 C2517 1.373 . S
C2516 C2518 1.389 . S
C2517 H2496 0.950 . S
C2517 C2516 1.373 . S
C2517 C2533 1.377 . S
C2518 C2516 1.389 . S
C2518 C2519 1.524 . S
C2518 C2532 1.377 . S
C2519 C2518 1.524 . S
C2519 C2520 1.397 . S
C2519 C2524 1.363 . S
C2520 H2497 0.950 . S
C2520 C2519 1.397 . S
C2520 C2521 1.334 . S
C2521 H2498 0.950 . S
C2521 C2520 1.334 . S
C2521 C2522 1.287 . S
C2522 C2521 1.287 . S
C2522 C2523 1.524 . S
C2522 H2541 0.913 . S
C2523 H2499 0.950 . S
C2523 C2522 1.524 . S
C2523 C2524 1.415 . S
C2524 H2500 0.950 . S
C2524 C2519 1.363 . S
C2524 C2523 1.415 . S
C2525 H2501 0.951 . S
C2525 C2526 1.366 . S
C2525 C2527 1.388 . S
C2526 C2525 1.366 . S
C2526 C2530 1.385 . S
C2527 H2502 0.951 . S
C2527 C2525 1.388 . S
C2527 C2528 1.366 . S
C2528 C2527 1.366 . S
C2528 C2529 1.414 . S
C2528 C2531 1.499 . S
C2529 H2503 0.950 . S
C2529 C2528 1.414 . S
C2529 C2530 1.374 . S
C2530 H2504 0.950 . S
C2530 C2526 1.385 . S
C2530 C2529 1.374 . S
C2531 C2528 1.499 . S
C2531 C2532 1.373 . S
C2531 C2533 1.389 . S
C2532 H2505 0.950 . S
C2532 C2518 1.377 . S
C2532 C2531 1.373 . S
C2533 C2517 1.377 . S
C2533 C2531 1.389 . S
C2533 C2534 1.524 . S
C2534 C2533 1.524 . S
C2534 C2535 1.397 . S
C2534 C2539 1.363 . S
C2535 H2506 0.950 . S
C2535 C2534 1.397 . S
C2535 C2536 1.334 . S
C2536 H2507 0.950 . S
C2536 C2535 1.334 . S
C2536 C2537 1.287 . S
C2537 C2536 1.287 . S
C2537 C2538 1.524 . S
C2537 H2540 0.999 . S
C2538 H2508 0.950 . S
C2538 C2537 1.524 . S
C2538 C2539 1.415 . S
C2539 H2509 0.950 . S
C2539 C2534 1.363 . S
C2539 C2538 1.415 . S
H2540 C2537 0.999 . S
H2541 C2522 0.913 . S
H2542 C2560 0.951 . S
H2543 C2562 0.951 . S
H2544 C2564 0.950 . S
H2545 C2565 0.950 . S
H2546 C2567 0.950 . S
H2547 C2570 0.950 . S
H2548 C2571 0.950 . S
H2549 C2573 0.950 . S
H2550 C2574 0.950 . S
H2551 C2575 0.951 . S
H2552 C2577 0.951 . S
H2553 C2579 0.950 . S
H2554 C2580 0.950 . S
H2555 C2582 0.950 . S
H2556 C2585 0.950 . S
H2557 C2586 0.950 . S
H2558 C2588 0.950 . S
H2559 C2589 0.950 . S
C2560 H2542 0.951 . S
C2560 C2561 1.366 . S
C2560 C2562 1.388 . S
C2561 C2560 1.366 . S
C2561 C2565 1.385 . S
C2562 H2543 0.951 . S
C2562 C2560 1.388 . S
C2562 C2563 1.366 . S
C2563 C2562 1.366 . S
C2563 C2564 1.414 . S
C2563 C2566 1.499 . S
C2564 H2544 0.950 . S
C2564 C2563 1.414 . S
C2564 C2565 1.374 . S
C2565 H2545 0.950 . S
C2565 C2561 1.385 . S
C2565 C2564 1.374 . S
C2566 C2563 1.499 . S
C2566 C2567 1.373 1_554 S
C2566 C2568 1.389 . S
C2567 H2546 0.950 . S
C2567 C2566 1.373 1_556 S
C2567 C2583 1.377 . S
C2568 C2566 1.389 . S
C2568 C2569 1.524 . S
C2568 C2582 1.329 1_554 S
C2569 C2568 1.524 . S
C2569 C2570 1.397 . S
C2569 C2574 1.363 . S
C2570 H2547 0.950 . S
C2570 C2569 1.397 . S
C2570 C2571 1.334 . S
C2571 H2548 0.950 . S
C2571 C2570 1.334 . S
C2571 C2572 1.287 . S
C2572 C2571 1.287 . S
C2572 C2573 1.524 . S
C2572 H2591 0.913 . S
C2573 H2549 0.950 . S
C2573 C2572 1.524 . S
C2573 C2574 1.415 . S
C2574 H2550 0.950 . S
C2574 C2569 1.363 . S
C2574 C2573 1.415 . S
C2575 H2551 0.951 . S
C2575 C2576 1.366 . S
C2575 C2577 1.388 . S
C2576 C2575 1.366 . S
C2576 C2580 1.385 . S
C2577 H2552 0.951 . S
C2577 C2575 1.388 . S
C2577 C2578 1.366 . S
C2578 C2577 1.366 . S
C2578 C2579 1.414 . S
C2578 C2581 1.499 . S
C2579 H2553 0.950 . S
C2579 C2578 1.414 . S
C2579 C2580 1.374 . S
C2580 H2554 0.950 . S
C2580 C2576 1.385 . S
C2580 C2579 1.374 . S
C2581 C2578 1.499 . S
C2581 C2582 1.423 . S
C2581 C2583 1.389 . S
C2582 H2555 0.950 . S
C2582 C2568 1.329 1_556 S
C2582 C2581 1.423 . S
C2583 C2567 1.377 . S
C2583 C2581 1.389 . S
C2583 C2584 1.524 . S
C2584 C2583 1.524 . S
C2584 C2585 1.397 . S
C2584 C2589 1.363 . S
C2585 H2556 0.950 . S
C2585 C2584 1.397 . S
C2585 C2586 1.334 . S
C2586 H2557 0.950 . S
C2586 C2585 1.334 . S
C2586 C2587 1.287 . S
C2587 C2586 1.287 . S
C2587 C2588 1.524 . S
C2587 H2590 0.999 . S
C2588 H2558 0.950 . S
C2588 C2587 1.524 . S
C2588 C2589 1.415 . S
C2589 H2559 0.950 . S
C2589 C2584 1.363 . S
C2589 C2588 1.415 . S
H2590 C2587 0.999 . S
H2591 C2572 0.913 . S
H2592 C2610 0.951 . S
H2593 C2612 0.951 . S
H2594 C2614 0.950 . S
H2595 C2615 0.950 . S
H2596 C2617 0.950 . S
H2597 C2620 0.950 . S
H2598 C2621 0.950 . S
H2599 C2623 0.950 . S
H2600 C2624 0.950 . S
H2601 C2625 0.951 . S
H2602 C2627 0.951 . S
H2603 C2629 0.950 . S
H2604 C2630 0.950 . S
H2605 C2632 0.950 . S
H2606 C2635 0.950 . S
H2607 C2636 0.950 . S
H2608 C2638 0.950 . S
H2609 C2639 0.950 . S
C2610 H2592 0.951 . S
C2610 C2611 1.366 . S
C2610 C2612 1.388 . S
C2611 C2610 1.366 . S
C2611 C2615 1.385 . S
C2612 H2593 0.951 . S
C2612 C2610 1.388 . S
C2612 C2613 1.366 . S
C2613 C2612 1.366 . S
C2613 C2614 1.414 . S
C2613 C2616 1.499 . S
C2614 H2594 0.950 . S
C2614 C2613 1.414 . S
C2614 C2615 1.374 . S
C2615 H2595 0.950 . S
C2615 C2611 1.385 . S
C2615 C2614 1.374 . S
C2616 C2613 1.499 . S
C2616 C2617 1.373 . S
C2616 C2618 1.389 . S
C2617 H2596 0.950 . S
C2617 C2616 1.373 . S
C2617 C2633 1.377 . S
C2618 C2616 1.389 . S
C2618 C2619 1.524 . S
C2618 C2632 1.377 . S
C2619 C2618 1.524 . S
C2619 C2620 1.397 . S
C2619 C2624 1.363 . S
C2620 H2597 0.950 . S
C2620 C2619 1.397 . S
C2620 C2621 1.334 . S
C2621 H2598 0.950 . S
C2621 C2620 1.334 . S
C2621 C2622 1.287 . S
C2622 C2621 1.287 . S
C2622 C2623 1.524 . S
C2622 H2641 0.913 . S
C2623 H2599 0.950 . S
C2623 C2622 1.524 . S
C2623 C2624 1.415 . S
C2624 H2600 0.950 . S
C2624 C2619 1.363 . S
C2624 C2623 1.415 . S
C2625 H2601 0.951 . S
C2625 C2626 1.366 . S
C2625 C2627 1.388 . S
C2626 C2625 1.366 . S
C2626 C2630 1.385 . S
C2627 H2602 0.951 . S
C2627 C2625 1.388 . S
C2627 C2628 1.366 . S
C2628 C2627 1.366 . S
C2628 C2629 1.414 . S
C2628 C2631 1.499 . S
C2629 H2603 0.950 . S
C2629 C2628 1.414 . S
C2629 C2630 1.374 . S
C2630 H2604 0.950 . S
C2630 C2626 1.385 . S
C2630 C2629 1.374 . S
C2631 C2628 1.499 . S
C2631 C2632 1.373 . S
C2631 C2633 1.389 . S
C2632 H2605 0.950 . S
C2632 C2618 1.377 . S
C2632 C2631 1.373 . S
C2633 C2617 1.377 . S
C2633 C2631 1.389 . S
C2633 C2634 1.524 . S
C2634 C2633 1.524 . S
C2634 C2635 1.397 . S
C2634 C2639 1.363 . S
C2635 H2606 0.950 . S
C2635 C2634 1.397 . S
C2635 C2636 1.334 . S
C2636 H2607 0.950 . S
C2636 C2635 1.334 . S
C2636 C2637 1.287 . S
C2637 C2636 1.287 . S
C2637 C2638 1.524 . S
C2637 H2640 0.999 . S
C2638 H2608 0.950 . S
C2638 C2637 1.524 . S
C2638 C2639 1.415 . S
C2639 H2609 0.950 . S
C2639 C2634 1.363 . S
C2639 C2638 1.415 . S
H2640 C2637 0.999 . S
H2641 C2622 0.913 . S
H2642 C2660 0.951 . S
H2643 C2662 0.951 1_554 S
H2644 C2664 0.950 . S
H2645 C2665 0.950 . S
H2646 C2667 0.950 1_556 S
H2647 C2670 0.950 . S
H2648 C2671 0.950 . S
H2649 C2673 0.950 . S
H2650 C2674 0.950 . S
H2651 C2675 0.951 . S
H2652 C2677 0.951 . S
H2653 C2679 0.950 . S
H2654 C2680 0.950 . S
H2655 C2682 0.950 . S
H2656 C2685 0.950 . S
H2657 C2686 0.950 . S
H2658 C2688 0.931 1_556 S
H2659 C2689 0.950 . S
C2660 H2642 0.951 . S
C2660 C2661 1.366 . S
C2660 C2662 1.388 . S
C2661 C2660 1.366 . S
C2661 C2665 1.385 . S
C2662 H2643 0.951 1_556 S
C2662 C2660 1.388 . S
C2662 C2663 1.366 . S
C2663 C2662 1.366 . S
C2663 C2664 1.414 . S
C2663 C2666 1.499 1_556 S
C2664 H2644 0.950 . S
C2664 C2663 1.414 . S
C2664 C2665 1.374 . S
C2665 H2645 0.950 . S
C2665 C2661 1.385 . S
C2665 C2664 1.374 . S
C2666 C2663 1.499 1_554 S
C2666 C2667 1.373 . S
C2666 C2668 1.389 . S
C2667 H2646 0.950 1_554 S
C2667 C2666 1.373 . S
C2667 C2683 1.377 . S
C2668 C2666 1.389 . S
C2668 C2669 1.524 . S
C2668 C2682 1.377 . S
C2669 C2668 1.524 . S
C2669 C2670 1.397 . S
C2669 C2674 1.363 . S
C2670 H2647 0.950 . S
C2670 C2669 1.397 . S
C2670 C2671 1.334 . S
C2671 H2648 0.950 . S
C2671 C2670 1.334 . S
C2671 C2672 1.287 . S
C2672 C2671 1.287 . S
C2672 C2673 1.524 . S
C2672 H2691 0.913 . S
C2673 H2649 0.950 . S
C2673 C2672 1.524 . S
C2673 C2674 1.415 . S
C2674 H2650 0.950 . S
C2674 C2669 1.363 . S
C2674 C2673 1.415 . S
C2675 H2651 0.951 . S
C2675 C2676 1.366 . S
C2675 C2677 1.388 . S
C2676 C2675 1.366 . S
C2676 C2680 1.385 . S
C2677 H2652 0.951 . S
C2677 C2675 1.388 . S
C2677 C2678 1.366 . S
C2678 C2677 1.366 . S
C2678 C2679 1.414 . S
C2678 C2681 1.499 . S
C2679 H2653 0.950 . S
C2679 C2678 1.414 . S
C2679 C2680 1.374 . S
C2680 H2654 0.950 . S
C2680 C2676 1.385 . S
C2680 C2679 1.374 . S
C2681 C2678 1.499 . S
C2681 C2682 1.373 . S
C2681 C2683 1.389 . S
C2682 H2655 0.950 . S
C2682 C2668 1.377 . S
C2682 C2681 1.373 . S
C2683 C2667 1.377 . S
C2683 C2681 1.389 . S
C2683 C2684 1.524 . S
C2684 C2683 1.524 . S
C2684 C2685 1.397 . S
C2684 C2689 1.363 . S
C2685 H2656 0.950 . S
C2685 C2684 1.397 . S
C2685 C2686 1.334 . S
C2686 H2657 0.950 . S
C2686 C2685 1.334 . S
C2686 C2687 1.287 . S
C2687 C2686 1.287 . S
C2687 C2688 1.524 . S
C2687 H2690 0.999 . S
C2688 H2658 0.931 1_554 S
C2688 C2687 1.524 . S
C2688 C2689 1.415 . S
C2689 H2659 0.950 . S
C2689 C2684 1.363 . S
C2689 C2688 1.415 . S
H2690 C2687 0.999 . S
H2691 C2672 0.913 . S
H2692 C2710 0.951 . S
H2693 C2712 0.951 . S
H2694 C2714 0.950 . S
H2695 C2715 0.950 . S
H2696 C2717 0.950 . S
H2697 C2720 0.950 . S
H2698 C2721 0.950 . S
H2699 C2723 0.950 . S
H2700 C2724 0.950 . S
H2701 C2725 0.951 . S
H2702 C2727 0.951 . S
H2703 C2729 0.950 . S
H2704 C2730 0.950 . S
H2705 C2732 0.950 . S
H2706 C2735 0.950 . S
H2707 C2736 0.950 . S
H2708 C2738 0.950 . S
H2709 C2739 0.950 . S
C2710 H2692 0.951 . S
C2710 C2711 1.366 . S
C2710 C2712 1.388 . S
C2711 C2710 1.366 . S
C2711 C2715 1.385 . S
C2712 H2693 0.951 . S
C2712 C2710 1.388 . S
C2712 C2713 1.366 . S
C2713 C2712 1.366 . S
C2713 C2714 1.414 . S
C2713 C2716 1.499 . S
C2714 H2694 0.950 . S
C2714 C2713 1.414 . S
C2714 C2715 1.374 . S
C2715 H2695 0.950 . S
C2715 C2711 1.385 . S
C2715 C2714 1.374 . S
C2716 C2713 1.499 . S
C2716 C2717 1.373 . S
C2716 C2718 1.389 . S
C2717 H2696 0.950 . S
C2717 C2716 1.373 . S
C2717 C2733 1.377 . S
C2718 C2716 1.389 . S
C2718 C2719 1.524 . S
C2718 C2732 1.377 . S
C2719 C2718 1.524 . S
C2719 C2720 1.397 . S
C2719 C2724 1.363 . S
C2720 H2697 0.950 . S
C2720 C2719 1.397 . S
C2720 C2721 1.334 . S
C2721 H2698 0.950 . S
C2721 C2720 1.334 . S
C2721 C2722 1.287 . S
C2722 C2721 1.287 . S
C2722 C2723 1.524 . S
C2722 H2741 0.913 . S
C2723 H2699 0.950 . S
C2723 C2722 1.524 . S
C2723 C2724 1.415 . S
C2724 H2700 0.950 . S
C2724 C2719 1.363 . S
C2724 C2723 1.415 . S
C2725 H2701 0.951 . S
C2725 C2726 1.366 . S
C2725 C2727 1.388 . S
C2726 C2725 1.366 . S
C2726 C2730 1.385 . S
C2727 H2702 0.951 . S
C2727 C2725 1.388 . S
C2727 C2728 1.366 . S
C2728 C2727 1.366 . S
C2728 C2729 1.414 . S
C2728 C2731 1.499 . S
C2729 H2703 0.950 . S
C2729 C2728 1.414 . S
C2729 C2730 1.374 . S
C2730 H2704 0.950 . S
C2730 C2726 1.385 . S
C2730 C2729 1.374 . S
C2731 C2728 1.499 . S
C2731 C2732 1.373 . S
C2731 C2733 1.389 . S
C2732 H2705 0.950 . S
C2732 C2718 1.377 . S
C2732 C2731 1.373 . S
C2733 C2717 1.377 . S
C2733 C2731 1.389 . S
C2733 C2734 1.524 . S
C2734 C2733 1.524 . S
C2734 C2735 1.397 . S
C2734 C2739 1.363 . S
C2735 H2706 0.950 . S
C2735 C2734 1.397 . S
C2735 C2736 1.334 . S
C2736 H2707 0.950 . S
C2736 C2735 1.334 . S
C2736 C2737 1.287 . S
C2737 C2736 1.287 . S
C2737 C2738 1.524 . S
C2737 H2740 0.999 . S
C2738 H2708 0.950 . S
C2738 C2737 1.524 . S
C2738 C2739 1.415 . S
C2739 H2709 0.950 . S
C2739 C2734 1.363 . S
C2739 C2738 1.415 . S
H2740 C2737 0.999 . S
H2741 C2722 0.913 . S
H2742 C2760 0.951 . S
H2743 C2762 0.951 . S
H2744 C2764 0.950 . S
H2745 C2765 0.950 . S
H2746 C2767 0.950 . S
H2747 C2770 0.950 . S
H2748 C2771 0.950 . S
H2749 C2773 0.950 . S
H2750 C2774 0.950 . S
H2751 C2775 0.951 . S
H2752 C2777 0.951 . S
H2753 C2779 0.950 . S
H2754 C2780 0.950 . S
H2755 C2782 0.950 . S
H2756 C2785 0.950 . S
H2757 C2786 0.950 . S
H2758 C2788 0.950 . S
H2759 C2789 0.950 . S
C2760 H2742 0.951 . S
C2760 C2761 1.366 . S
C2760 C2762 1.388 . S
C2761 C2760 1.366 . S
C2761 C2765 1.385 1_556 S
C2762 H2743 0.951 . S
C2762 C2760 1.388 . S
C2762 C2763 1.366 1_556 S
C2763 C2762 1.366 1_554 S
C2763 C2764 1.414 . S
C2763 C2766 1.499 . S
C2764 H2744 0.950 . S
C2764 C2763 1.414 . S
C2764 C2765 1.374 . S
C2765 H2745 0.950 . S
C2765 C2761 1.385 1_554 S
C2765 C2764 1.374 . S
C2766 C2763 1.499 . S
C2766 C2767 1.373 . S
C2766 C2768 1.389 . S
C2767 H2746 0.950 . S
C2767 C2766 1.373 . S
C2767 C2783 1.377 . S
C2768 C2766 1.389 . S
C2768 C2769 1.524 . S
C2768 C2782 1.377 . S
C2769 C2768 1.524 . S
C2769 C2770 1.397 . S
C2769 C2774 1.363 . S
C2770 H2747 0.950 . S
C2770 C2769 1.397 . S
C2770 C2771 1.334 . S
C2771 H2748 0.950 . S
C2771 C2770 1.334 . S
C2771 C2772 1.287 . S
C2772 C2771 1.287 . S
C2772 C2773 1.524 . S
C2772 H2791 0.913 . S
C2773 H2749 0.950 . S
C2773 C2772 1.524 . S
C2773 C2774 1.415 . S
C2774 H2750 0.950 . S
C2774 C2769 1.363 . S
C2774 C2773 1.415 . S
C2775 H2751 0.951 . S
C2775 C2776 1.366 . S
C2775 C2777 1.388 . S
C2776 C2775 1.366 . S
C2776 C2780 1.385 . S
C2777 H2752 0.951 . S
C2777 C2775 1.388 . S
C2777 C2778 1.366 . S
C2778 C2777 1.366 . S
C2778 C2779 1.414 . S
C2778 C2781 1.499 . S
C2779 H2753 0.950 . S
C2779 C2778 1.414 . S
C2779 C2780 1.374 . S
C2780 H2754 0.950 . S
C2780 C2776 1.385 . S
C2780 C2779 1.374 . S
C2781 C2778 1.499 . S
C2781 C2782 1.373 . S
C2781 C2783 1.389 . S
C2782 H2755 0.950 . S
C2782 C2768 1.377 . S
C2782 C2781 1.373 . S
C2783 C2767 1.377 . S
C2783 C2781 1.389 . S
C2783 C2784 1.524 . S
C2784 C2783 1.524 . S
C2784 C2785 1.397 . S
C2784 C2789 1.363 . S
C2785 H2756 0.950 . S
C2785 C2784 1.397 . S
C2785 C2786 1.334 . S
C2786 H2757 0.950 . S
C2786 C2785 1.334 . S
C2786 C2787 1.287 . S
C2787 C2786 1.287 . S
C2787 C2788 1.524 . S
C2787 H2790 0.999 . S
C2788 H2758 0.950 . S
C2788 C2787 1.524 . S
C2788 C2789 1.415 . S
C2789 H2759 0.950 . S
C2789 C2784 1.363 . S
C2789 C2788 1.415 . S
H2790 C2787 0.999 . S
H2791 C2772 0.913 . S
H2792 C2810 0.951 . S
H2793 C2812 0.951 . S
H2794 C2814 0.950 . S
H2795 C2815 0.950 . S
H2796 C2817 0.950 . S
H2797 C2820 0.950 . S
H2798 C2821 0.950 . S
H2799 C2823 0.950 . S
H2800 C2824 0.950 . S
H2801 C2825 0.951 . S
H2802 C2827 0.951 . S
H2803 C2829 0.950 . S
H2804 C2830 0.950 . S
H2805 C2832 0.950 . S
H2806 C2835 0.950 . S
H2807 C2836 0.950 . S
H2808 C2838 0.950 . S
H2809 C2839 0.950 . S
C2810 H2792 0.951 . S
C2810 C2811 1.366 . S
C2810 C2812 1.388 . S
C2811 C2810 1.366 . S
C2811 C2815 1.385 . S
C2812 H2793 0.951 . S
C2812 C2810 1.388 . S
C2812 C2813 1.366 . S
C2813 C2812 1.366 . S
C2813 C2814 1.414 . S
C2813 C2816 1.499 . S
C2814 H2794 0.950 . S
C2814 C2813 1.414 . S
C2814 C2815 1.374 . S
C2815 H2795 0.950 . S
C2815 C2811 1.385 . S
C2815 C2814 1.374 . S
C2816 C2813 1.499 . S
C2816 C2817 1.373 . S
C2816 C2818 1.389 . S
C2817 H2796 0.950 . S
C2817 C2816 1.373 . S
C2817 C2833 1.377 . S
C2818 C2816 1.389 . S
C2818 C2819 1.524 . S
C2818 C2832 1.377 . S
C2819 C2818 1.524 . S
C2819 C2820 1.397 . S
C2819 C2824 1.363 . S
C2820 H2797 0.950 . S
C2820 C2819 1.397 . S
C2820 C2821 1.334 . S
C2821 H2798 0.950 . S
C2821 C2820 1.334 . S
C2821 C2822 1.287 . S
C2822 C2821 1.287 . S
C2822 C2823 1.524 . S
C2822 H2841 0.913 . S
C2823 H2799 0.950 . S
C2823 C2822 1.524 . S
C2823 C2824 1.415 . S
C2824 H2800 0.950 . S
C2824 C2819 1.363 . S
C2824 C2823 1.415 . S
C2825 H2801 0.951 . S
C2825 C2826 1.366 . S
C2825 C2827 1.388 . S
C2826 C2825 1.366 . S
C2826 C2830 1.385 . S
C2827 H2802 0.951 . S
C2827 C2825 1.388 . S
C2827 C2828 1.366 . S
C2828 C2827 1.366 . S
C2828 C2829 1.414 . S
C2828 C2831 1.499 . S
C2829 H2803 0.950 . S
C2829 C2828 1.414 . S
C2829 C2830 1.374 . S
C2830 H2804 0.950 . S
C2830 C2826 1.385 . S
C2830 C2829 1.374 . S
C2831 C2828 1.499 . S
C2831 C2832 1.373 . S
C2831 C2833 1.389 . S
C2832 H2805 0.950 . S
C2832 C2818 1.377 . S
C2832 C2831 1.373 . S
C2833 C2817 1.377 . S
C2833 C2831 1.389 . S
C2833 C2834 1.524 . S
C2834 C2833 1.524 . S
C2834 C2835 1.397 . S
C2834 C2839 1.363 . S
C2835 H2806 0.950 . S
C2835 C2834 1.397 . S
C2835 C2836 1.334 . S
C2836 H2807 0.950 . S
C2836 C2835 1.334 . S
C2836 C2837 1.287 . S
C2837 C2836 1.287 . S
C2837 C2838 1.524 . S
C2837 H2840 0.999 . S
C2838 H2808 0.950 . S
C2838 C2837 1.524 . S
C2838 C2839 1.415 . S
C2839 H2809 0.950 . S
C2839 C2834 1.363 . S
C2839 C2838 1.415 . S
H2840 C2837 0.999 . S
H2841 C2822 0.913 . S
H2842 C2860 0.951 . S
H2843 C2862 0.951 . S
H2844 C2864 0.950 . S
H2845 C2865 0.950 . S
H2846 C2867 0.950 . S
H2847 C2870 0.950 . S
H2848 C2871 0.950 . S
H2849 C2873 0.950 . S
H2850 C2874 0.950 . S
H2851 C2875 0.951 . S
H2852 C2877 0.951 . S
H2853 C2879 0.950 . S
H2854 C2880 0.950 . S
H2855 C2882 0.950 . S
H2856 C2885 0.950 . S
H2857 C2886 0.950 . S
H2858 C2888 0.950 . S
H2859 C2889 0.950 . S
C2860 H2842 0.951 . S
C2860 C2861 1.366 . S
C2860 C2862 1.388 . S
C2861 C2860 1.366 . S
C2861 C2865 1.385 . S
C2862 H2843 0.951 . S
C2862 C2860 1.388 . S
C2862 C2863 1.366 . S
C2863 C2862 1.366 . S
C2863 C2864 1.414 . S
C2863 C2866 1.499 . S
C2864 H2844 0.950 . S
C2864 C2863 1.414 . S
C2864 C2865 1.374 . S
C2865 H2845 0.950 . S
C2865 C2861 1.385 . S
C2865 C2864 1.374 . S
C2866 C2863 1.499 . S
C2866 C2867 1.373 . S
C2866 C2868 1.389 . S
C2867 H2846 0.950 . S
C2867 C2866 1.373 . S
C2867 C2883 1.377 . S
C2868 C2866 1.389 . S
C2868 C2869 1.524 . S
C2868 C2882 1.377 . S
C2869 C2868 1.524 . S
C2869 C2870 1.397 . S
C2869 C2874 1.363 . S
C2870 H2847 0.950 . S
C2870 C2869 1.397 . S
C2870 C2871 1.334 . S
C2871 H2848 0.950 . S
C2871 C2870 1.334 . S
C2871 C2872 1.287 . S
C2872 C2871 1.287 . S
C2872 C2873 1.524 . S
C2872 H2891 0.913 . S
C2873 H2849 0.950 . S
C2873 C2872 1.524 . S
C2873 C2874 1.415 . S
C2874 H2850 0.950 . S
C2874 C2869 1.363 . S
C2874 C2873 1.415 . S
C2875 H2851 0.951 . S
C2875 C2876 1.366 . S
C2875 C2877 1.388 . S
C2876 C2875 1.366 . S
C2876 C2880 1.385 . S
C2877 H2852 0.951 . S
C2877 C2875 1.388 . S
C2877 C2878 1.366 . S
C2878 C2877 1.366 . S
C2878 C2879 1.414 . S
C2878 C2881 1.499 . S
C2879 H2853 0.950 . S
C2879 C2878 1.414 . S
C2879 C2880 1.374 . S
C2880 H2854 0.950 . S
C2880 C2876 1.385 . S
C2880 C2879 1.374 . S
C2881 C2878 1.499 . S
C2881 C2882 1.373 . S
C2881 C2883 1.389 . S
C2882 H2855 0.950 . S
C2882 C2868 1.377 . S
C2882 C2881 1.373 . S
C2883 C2867 1.377 . S
C2883 C2881 1.389 . S
C2883 C2884 1.524 . S
C2884 C2883 1.524 . S
C2884 C2885 1.397 . S
C2884 C2889 1.363 . S
C2885 H2856 0.950 . S
C2885 C2884 1.397 . S
C2885 C2886 1.334 . S
C2886 H2857 0.950 . S
C2886 C2885 1.334 . S
C2886 C2887 1.287 . S
C2887 C2886 1.287 . S
C2887 C2888 1.524 . S
C2887 H2890 0.999 . S
C2888 H2858 0.950 . S
C2888 C2887 1.524 . S
C2888 C2889 1.415 . S
C2889 H2859 0.950 . S
C2889 C2884 1.363 . S
C2889 C2888 1.415 . S
H2890 C2887 0.999 . S
H2891 C2872 0.913 . S
H2892 C2910 0.951 . S
H2893 C2912 0.951 . S
H2894 C2914 0.950 . S
H2895 C2915 0.950 . S
H2896 C2917 0.950 . S
H2897 C2920 0.950 . S
H2898 C2921 0.950 . S
H2899 C2923 0.950 . S
H2900 C2924 0.950 . S
H2901 C2925 0.951 . S
H2902 C2927 0.951 . S
H2903 C2929 0.950 . S
H2904 C2930 0.950 . S
H2905 C2932 0.950 . S
H2906 C2935 0.950 . S
H2907 C2936 0.950 . S
H2908 C2938 0.950 . S
H2909 C2939 0.950 . S
C2910 H2892 0.951 . S
C2910 C2911 1.366 . S
C2910 C2912 1.388 . S
C2911 C2910 1.366 . S
C2911 C2915 1.385 . S
C2912 H2893 0.951 . S
C2912 C2910 1.388 . S
C2912 C2913 1.366 . S
C2913 C2912 1.366 . S
C2913 C2914 1.414 . S
C2913 C2916 1.499 . S
C2914 H2894 0.950 . S
C2914 C2913 1.414 . S
C2914 C2915 1.374 . S
C2915 H2895 0.950 . S
C2915 C2911 1.385 . S
C2915 C2914 1.374 . S
C2916 C2913 1.499 . S
C2916 C2917 1.373 . S
C2916 C2918 1.389 . S
C2917 H2896 0.950 . S
C2917 C2916 1.373 . S
C2917 C2933 1.377 . S
C2918 C2916 1.389 . S
C2918 C2919 1.524 . S
C2918 C2932 1.377 . S
C2919 C2918 1.524 . S
C2919 C2920 1.397 . S
C2919 C2924 1.363 . S
C2920 H2897 0.950 . S
C2920 C2919 1.397 . S
C2920 C2921 1.334 . S
C2921 H2898 0.950 . S
C2921 C2920 1.334 . S
C2921 C2922 1.287 . S
C2922 C2921 1.287 . S
C2922 C2923 1.524 . S
C2922 H2941 0.913 . S
C2923 H2899 0.950 . S
C2923 C2922 1.524 . S
C2923 C2924 1.415 . S
C2924 H2900 0.950 . S
C2924 C2919 1.363 . S
C2924 C2923 1.415 . S
C2925 H2901 0.951 . S
C2925 C2926 1.366 . S
C2925 C2927 1.388 . S
C2926 C2925 1.366 . S
C2926 C2930 1.385 . S
C2927 H2902 0.951 . S
C2927 C2925 1.388 . S
C2927 C2928 1.366 . S
C2928 C2927 1.366 . S
C2928 C2929 1.414 . S
C2928 C2931 1.499 . S
C2929 H2903 0.950 . S
C2929 C2928 1.414 . S
C2929 C2930 1.374 . S
C2930 H2904 0.950 . S
C2930 C2926 1.385 . S
C2930 C2929 1.374 . S
C2931 C2928 1.499 . S
C2931 C2932 1.373 . S
C2931 C2933 1.389 . S
C2932 H2905 0.950 . S
C2932 C2918 1.377 . S
C2932 C2931 1.373 . S
C2933 C2917 1.377 . S
C2933 C2931 1.389 . S
C2933 C2934 1.524 . S
C2934 C2933 1.524 . S
C2934 C2935 1.397 . S
C2934 C2939 1.363 . S
C2935 H2906 0.950 . S
C2935 C2934 1.397 . S
C2935 C2936 1.334 . S
C2936 H2907 0.950 . S
C2936 C2935 1.334 . S
C2936 C2937 1.287 . S
C2937 C2936 1.287 . S
C2937 C2938 1.524 . S
C2937 H2940 0.999 . S
C2938 H2908 0.950 . S
C2938 C2937 1.524 . S
C2938 C2939 1.415 . S
C2939 H2909 0.950 . S
C2939 C2934 1.363 . S
C2939 C2938 1.415 . S
H2940 C2937 0.999 . S
H2941 C2922 0.913 . S
H2942 C2960 0.951 . S
H2943 C2962 0.951 . S
H2944 C2964 0.950 . S
H2945 C2965 0.950 . S
H2946 C2967 0.950 . S
H2947 C2970 0.950 . S
H2948 C2971 0.950 . S
H2949 C2973 0.950 . S
H2950 C2974 0.950 . S
H2951 C2975 0.951 . S
H2952 C2977 0.951 . S
H2953 C2979 0.950 . S
H2954 C2980 0.950 . S
H2955 C2982 0.950 . S
H2956 C2985 0.950 . S
H2957 C2986 0.950 . S
H2958 C2988 0.950 . S
H2959 C2989 0.950 . S
C2960 H2942 0.951 . S
C2960 C2961 1.366 . S
C2960 C2962 1.388 . S
C2961 C2960 1.366 . S
C2961 C2965 1.385 . S
C2962 H2943 0.951 . S
C2962 C2960 1.388 . S
C2962 C2963 1.366 . S
C2963 C2962 1.366 . S
C2963 C2964 1.414 . S
C2963 C2966 1.499 . S
C2964 H2944 0.950 . S
C2964 C2963 1.414 . S
C2964 C2965 1.374 . S
C2965 H2945 0.950 . S
C2965 C2961 1.385 . S
C2965 C2964 1.374 . S
C2966 C2963 1.499 . S
C2966 C2967 1.373 . S
C2966 C2968 1.389 . S
C2967 H2946 0.950 . S
C2967 C2966 1.373 . S
C2967 C2983 1.377 . S
C2968 C2966 1.389 . S
C2968 C2969 1.524 . S
C2968 C2982 1.377 . S
C2969 C2968 1.524 . S
C2969 C2970 1.397 . S
C2969 C2974 1.363 . S
C2970 H2947 0.950 . S
C2970 C2969 1.397 . S
C2970 C2971 1.334 . S
C2971 H2948 0.950 . S
C2971 C2970 1.334 . S
C2971 C2972 1.287 . S
C2972 C2971 1.287 . S
C2972 C2973 1.524 . S
C2972 H2991 0.913 . S
C2973 H2949 0.950 . S
C2973 C2972 1.524 . S
C2973 C2974 1.415 . S
C2974 H2950 0.950 . S
C2974 C2969 1.363 . S
C2974 C2973 1.415 . S
C2975 H2951 0.951 . S
C2975 C2976 1.366 . S
C2975 C2977 1.388 . S
C2976 C2975 1.366 . S
C2976 C2980 1.385 . S
C2977 H2952 0.951 . S
C2977 C2975 1.388 . S
C2977 C2978 1.366 . S
C2978 C2977 1.366 . S
C2978 C2979 1.414 . S
C2978 C2981 1.499 . S
C2979 H2953 0.950 . S
C2979 C2978 1.414 . S
C2979 C2980 1.374 . S
C2980 H2954 0.950 . S
C2980 C2976 1.385 . S
C2980 C2979 1.374 . S
C2981 C2978 1.499 . S
C2981 C2982 1.373 . S
C2981 C2983 1.389 . S
C2982 H2955 0.950 . S
C2982 C2968 1.377 . S
C2982 C2981 1.373 . S
C2983 C2967 1.377 . S
C2983 C2981 1.389 . S
C2983 C2984 1.524 . S
C2984 C2983 1.524 . S
C2984 C2985 1.397 . S
C2984 C2989 1.363 . S
C2985 H2956 0.950 . S
C2985 C2984 1.397 . S
C2985 C2986 1.334 . S
C2986 H2957 0.950 . S
C2986 C2985 1.334 . S
C2986 C2987 1.287 . S
C2987 C2986 1.287 . S
C2987 C2988 1.524 . S
C2987 H2990 0.999 . S
C2988 H2958 0.950 . S
C2988 C2987 1.524 . S
C2988 C2989 1.415 . S
C2989 H2959 0.950 . S
C2989 C2984 1.363 . S
C2989 C2988 1.415 . S
H2990 C2987 0.999 . S
H2991 C2972 0.913 . S
H2992 C3010 0.951 . S
H2993 C3012 0.951 . S
H2994 C3014 0.950 . S
H2995 C3015 0.950 . S
H2996 C3017 0.950 . S
H2997 C3020 0.950 . S
H2998 C3021 0.950 . S
H2999 C3023 0.950 . S
H3000 C3024 0.950 . S
H3001 C3025 0.951 . S
H3002 C3027 0.951 . S
H3003 C3029 0.950 . S
H3004 C3030 0.950 . S
H3005 C3032 0.950 . S
H3006 C3035 0.950 . S
H3007 C3036 0.950 1_554 S
H3008 C3038 0.950 . S
H3009 C3039 0.950 . S
C3010 H2992 0.951 . S
C3010 C3011 1.366 . S
C3010 C3012 1.388 . S
C3011 C3010 1.366 . S
C3011 C3015 1.385 . S
C3012 H2993 0.951 . S
C3012 C3010 1.388 . S
C3012 C3013 1.366 . S
C3013 C3012 1.366 . S
C3013 C3014 1.414 . S
C3013 C3016 1.499 . S
C3014 H2994 0.950 . S
C3014 C3013 1.414 . S
C3014 C3015 1.374 . S
C3015 H2995 0.950 . S
C3015 C3011 1.385 . S
C3015 C3014 1.374 . S
C3016 C3013 1.499 . S
C3016 C3017 1.373 . S
C3016 C3018 1.389 . S
C3017 H2996 0.950 . S
C3017 C3016 1.373 . S
C3017 C3033 1.377 . S
C3018 C3016 1.389 . S
C3018 C3019 1.524 . S
C3018 C3032 1.377 . S
C3019 C3018 1.524 . S
C3019 C3020 1.397 . S
C3019 C3024 1.363 . S
C3020 H2997 0.950 . S
C3020 C3019 1.397 . S
C3020 C3021 1.334 . S
C3021 H2998 0.950 . S
C3021 C3020 1.334 . S
C3021 C3022 1.287 . S
C3022 C3021 1.287 . S
C3022 C3023 1.524 . S
C3022 H3041 0.913 . S
C3023 H2999 0.950 . S
C3023 C3022 1.524 . S
C3023 C3024 1.415 . S
C3024 H3000 0.950 . S
C3024 C3019 1.363 . S
C3024 C3023 1.415 . S
C3025 H3001 0.951 . S
C3025 C3026 1.366 . S
C3025 C3027 1.388 . S
C3026 C3025 1.366 . S
C3026 C3030 1.385 . S
C3027 H3002 0.951 . S
C3027 C3025 1.388 . S
C3027 C3028 1.366 . S
C3028 C3027 1.366 . S
C3028 C3029 1.414 . S
C3028 C3031 1.499 . S
C3029 H3003 0.950 . S
C3029 C3028 1.414 . S
C3029 C3030 1.374 . S
C3030 H3004 0.950 . S
C3030 C3026 1.385 . S
C3030 C3029 1.374 . S
C3031 C3028 1.499 . S
C3031 C3032 1.373 . S
C3031 C3033 1.389 . S
C3032 H3005 0.950 . S
C3032 C3018 1.377 . S
C3032 C3031 1.373 . S
C3033 C3017 1.377 . S
C3033 C3031 1.389 . S
C3033 C3034 1.524 . S
C3034 C3033 1.524 . S
C3034 C3035 1.397 . S
C3034 C3039 1.363 . S
C3035 H3006 0.950 . S
C3035 C3034 1.397 . S
C3035 C3036 1.334 . S
C3036 H3007 0.950 1_556 S
C3036 C3035 1.334 . S
C3036 C3037 1.287 . S
C3037 C3036 1.287 . S
C3037 C3038 1.524 . S
C3037 H3040 0.999 . S
C3038 H3008 0.950 . S
C3038 C3037 1.524 . S
C3038 C3039 1.415 . S
C3039 H3009 0.950 . S
C3039 C3034 1.363 . S
C3039 C3038 1.415 . S
H3040 C3037 0.999 . S
H3041 C3022 0.913 . S
H3042 C3060 0.951 . S
H3043 C3062 0.951 . S
H3044 C3064 0.950 . S
H3045 C3065 0.950 . S
H3046 C3067 0.950 . S
H3047 C3070 0.950 . S
H3048 C3071 0.950 . S
H3049 C3073 0.950 . S
H3050 C3074 0.950 . S
H3051 C3075 0.951 . S
H3052 C3077 0.951 . S
H3053 C3079 0.950 . S
H3054 C3080 0.950 . S
H3055 C3082 0.950 . S
H3056 C3085 0.950 . S
H3057 C3086 0.950 . S
H3058 C3088 0.950 . S
H3059 C3089 0.950 . S
C3060 H3042 0.951 . S
C3060 C3061 1.366 . S
C3060 C3062 1.388 . S
C3061 C3060 1.366 . S
C3061 C3065 1.385 . S
C3062 H3043 0.951 . S
C3062 C3060 1.388 . S
C3062 C3063 1.366 . S
C3063 C3062 1.366 . S
C3063 C3064 1.414 . S
C3063 C3066 1.499 . S
C3064 H3044 0.950 . S
C3064 C3063 1.414 . S
C3064 C3065 1.374 . S
C3065 H3045 0.950 . S
C3065 C3061 1.385 . S
C3065 C3064 1.374 . S
C3066 C3063 1.499 . S
C3066 C3067 1.373 . S
C3066 C3068 1.389 . S
C3067 H3046 0.950 . S
C3067 C3066 1.373 . S
C3067 C3083 1.377 . S
C3068 C3066 1.389 . S
C3068 C3069 1.524 . S
C3068 C3082 1.377 . S
C3069 C3068 1.524 . S
C3069 C3070 1.397 . S
C3069 C3074 1.363 . S
C3070 H3047 0.950 . S
C3070 C3069 1.397 . S
C3070 C3071 1.334 . S
C3071 H3048 0.950 . S
C3071 C3070 1.334 . S
C3071 C3072 1.287 . S
C3072 C3071 1.287 . S
C3072 C3073 1.524 . S
C3072 H3091 0.913 . S
C3073 H3049 0.950 . S
C3073 C3072 1.524 . S
C3073 C3074 1.415 . S
C3074 H3050 0.950 . S
C3074 C3069 1.363 . S
C3074 C3073 1.415 . S
C3075 H3051 0.951 . S
C3075 C3076 1.366 . S
C3075 C3077 1.388 . S
C3076 C3075 1.366 . S
C3076 C3080 1.385 . S
C3077 H3052 0.951 . S
C3077 C3075 1.388 . S
C3077 C3078 1.366 . S
C3078 C3077 1.366 . S
C3078 C3079 1.414 . S
C3078 C3081 1.499 . S
C3079 H3053 0.950 . S
C3079 C3078 1.414 . S
C3079 C3080 1.374 . S
C3080 H3054 0.950 . S
C3080 C3076 1.385 . S
C3080 C3079 1.374 . S
C3081 C3078 1.499 . S
C3081 C3082 1.373 . S
C3081 C3083 1.389 . S
C3082 H3055 0.950 . S
C3082 C3068 1.377 . S
C3082 C3081 1.373 . S
C3083 C3067 1.377 . S
C3083 C3081 1.389 . S
C3083 C3084 1.524 . S
C3084 C3083 1.524 . S
C3084 C3085 1.397 . S
C3084 C3089 1.363 . S
C3085 H3056 0.950 . S
C3085 C3084 1.397 . S
C3085 C3086 1.334 . S
C3086 H3057 0.950 . S
C3086 C3085 1.334 . S
C3086 C3087 1.287 . S
C3087 C3086 1.287 . S
C3087 C3088 1.524 . S
C3087 H3090 0.999 . S
C3088 H3058 0.950 . S
C3088 C3087 1.524 . S
C3088 C3089 1.415 . S
C3089 H3059 0.950 . S
C3089 C3084 1.363 . S
C3089 C3088 1.415 . S
H3090 C3087 0.999 . S
H3091 C3072 0.913 . S
H3092 C3110 0.951 . S
H3093 C3112 0.951 . S
H3094 C3114 0.950 . S
H3095 C3115 0.950 . S
H3096 C3117 0.950 . S
H3097 C3120 0.950 . S
H3098 C3121 0.950 . S
H3099 C3123 0.950 . S
H3100 C3124 0.950 . S
H3101 C3125 0.951 . S
H3102 C3127 0.951 . S
H3103 C3129 0.950 . S
H3104 C3130 0.950 . S
H3105 C3132 0.950 . S
H3106 C3135 0.950 . S
H3107 C3136 0.950 . S
H3108 C3138 0.950 . S
H3109 C3139 0.950 . S
C3110 H3092 0.951 . S
C3110 C3111 1.366 . S
C3110 C3112 1.388 . S
C3111 C3110 1.366 . S
C3111 C3115 1.385 . S
C3112 H3093 0.951 . S
C3112 C3110 1.388 . S
C3112 C3113 1.366 . S
C3113 C3112 1.366 . S
C3113 C3114 1.414 . S
C3113 C3116 1.499 . S
C3114 H3094 0.950 . S
C3114 C3113 1.414 . S
C3114 C3115 1.374 . S
C3115 H3095 0.950 . S
C3115 C3111 1.385 . S
C3115 C3114 1.374 . S
C3116 C3113 1.499 . S
C3116 C3117 1.373 . S
C3116 C3118 1.389 . S
C3117 H3096 0.950 . S
C3117 C3116 1.373 . S
C3117 C3133 1.377 . S
C3118 C3116 1.389 . S
C3118 C3119 1.524 . S
C3118 C3132 1.377 . S
C3119 C3118 1.524 . S
C3119 C3120 1.397 . S
C3119 C3124 1.363 . S
C3120 H3097 0.950 . S
C3120 C3119 1.397 . S
C3120 C3121 1.334 . S
C3121 H3098 0.950 . S
C3121 C3120 1.334 . S
C3121 C3122 1.287 . S
C3122 C3121 1.287 . S
C3122 C3123 1.524 . S
C3122 H3141 0.913 . S
C3123 H3099 0.950 . S
C3123 C3122 1.524 . S
C3123 C3124 1.415 . S
C3124 H3100 0.950 . S
C3124 C3119 1.363 . S
C3124 C3123 1.415 . S
C3125 H3101 0.951 . S
C3125 C3126 1.366 . S
C3125 C3127 1.388 . S
C3126 C3125 1.366 . S
C3126 C3130 1.385 . S
C3127 H3102 0.951 . S
C3127 C3125 1.388 . S
C3127 C3128 1.366 . S
C3128 C3127 1.366 . S
C3128 C3129 1.414 . S
C3128 C3131 1.499 . S
C3129 H3103 0.950 . S
C3129 C3128 1.414 . S
C3129 C3130 1.374 . S
C3130 H3104 0.950 . S
C3130 C3126 1.385 . S
C3130 C3129 1.374 . S
C3131 C3128 1.499 . S
C3131 C3132 1.373 . S
C3131 C3133 1.389 . S
C3132 H3105 0.950 . S
C3132 C3118 1.377 . S
C3132 C3131 1.373 . S
C3133 C3117 1.377 . S
C3133 C3131 1.389 . S
C3133 C3134 1.524 . S
C3134 C3133 1.524 . S
C3134 C3135 1.397 . S
C3134 C3139 1.363 . S
C3135 H3106 0.950 . S
C3135 C3134 1.397 . S
C3135 C3136 1.334 . S
C3136 H3107 0.950 . S
C3136 C3135 1.334 . S
C3136 C3137 1.287 . S
C3137 C3136 1.287 . S
C3137 C3138 1.524 . S
C3137 H3140 0.999 . S
C3138 H3108 0.950 . S
C3138 C3137 1.524 . S
C3138 C3139 1.415 . S
C3139 H3109 0.950 . S
C3139 C3134 1.363 . S
C3139 C3138 1.415 . S
H3140 C3137 0.999 . S
H3141 C3122 0.913 . S
H3142 C3160 0.951 . S
H3143 C3162 0.951 . S
H3144 C3164 0.950 . S
H3145 C3165 0.950 . S
H3146 C3167 0.950 . S
H3147 C3170 0.950 . S
H3148 C3171 0.950 . S
H3149 C3173 0.950 . S
H3150 C3174 0.950 . S
H3151 C3175 0.951 . S
H3152 C3177 0.898 1_545 S
H3153 C3179 0.950 . S
H3154 C3180 0.950 . S
H3155 C3182 0.950 . S
H3156 C3185 0.950 . S
H3157 C3186 0.950 . S
H3158 C3188 0.950 . S
H3159 C3189 0.950 . S
C3160 H3142 0.951 . S
C3160 C3161 1.366 . S
C3160 C3162 1.388 . S
C3161 C3160 1.366 . S
C3161 C3165 1.385 . S
C3162 H3143 0.951 . S
C3162 C3160 1.388 . S
C3162 C3163 1.366 . S
C3163 C3162 1.366 . S
C3163 C3164 1.414 . S
C3163 C3166 1.499 . S
C3164 H3144 0.950 . S
C3164 C3163 1.414 . S
C3164 C3165 1.374 . S
C3165 H3145 0.950 . S
C3165 C3161 1.385 . S
C3165 C3164 1.374 . S
C3166 C3163 1.499 . S
C3166 C3167 1.373 . S
C3166 C3168 1.389 . S
C3167 H3146 0.950 . S
C3167 C3166 1.373 . S
C3167 C3183 1.377 . S
C3168 C3166 1.389 . S
C3168 C3169 1.524 . S
C3168 C3182 1.377 . S
C3169 C3168 1.524 . S
C3169 C3170 1.397 . S
C3169 C3174 1.363 . S
C3170 H3147 0.950 . S
C3170 C3169 1.397 . S
C3170 C3171 1.334 . S
C3171 H3148 0.950 . S
C3171 C3170 1.334 . S
C3171 C3172 1.287 . S
C3172 C3171 1.287 . S
C3172 C3173 1.524 . S
C3172 H3191 0.913 . S
C3173 H3149 0.950 . S
C3173 C3172 1.524 . S
C3173 C3174 1.415 . S
C3174 H3150 0.950 . S
C3174 C3169 1.363 . S
C3174 C3173 1.415 . S
C3175 H3151 0.951 . S
C3175 C3176 1.366 . S
C3175 C3177 1.388 . S
C3176 C3175 1.366 . S
C3176 C3180 1.385 . S
C3177 H3152 0.898 1_565 S
C3177 C3175 1.388 . S
C3177 C3178 1.366 . S
C3178 C3177 1.366 . S
C3178 C3179 1.414 . S
C3178 C3181 1.499 1_565 S
C3179 H3153 0.950 . S
C3179 C3178 1.414 . S
C3179 C3180 1.374 . S
C3180 H3154 0.950 . S
C3180 C3176 1.385 . S
C3180 C3179 1.374 . S
C3181 C3178 1.499 1_545 S
C3181 C3182 1.373 . S
C3181 C3183 1.389 . S
C3182 H3155 0.950 . S
C3182 C3168 1.377 . S
C3182 C3181 1.373 . S
C3183 C3167 1.377 . S
C3183 C3181 1.389 . S
C3183 C3184 1.524 . S
C3184 C3183 1.524 . S
C3184 C3185 1.397 1_545 S
C3184 C3189 1.363 . S
C3185 H3156 0.950 . S
C3185 C3184 1.397 1_565 S
C3185 C3186 1.334 . S
C3186 H3157 0.950 . S
C3186 C3185 1.334 . S
C3186 C3187 1.274 1_565 S
C3187 C3186 1.274 1_545 S
C3187 C3188 1.542 . S
C3187 H3190 0.995 1_545 S
C3188 H3158 0.950 . S
C3188 C3187 1.542 . S
C3188 C3189 1.415 . S
C3189 H3159 0.950 . S
C3189 C3184 1.363 . S
C3189 C3188 1.415 . S
H3190 C3187 0.995 1_565 S
H3191 C3172 0.913 . S
C826 C632 1.644 . S
C811 C211 1.652 . S
C876 C647 1.742 . S
C861 C255 1.779 . S
C911 C274 1.758 . S
C926 C660 1.747 . S
C976 C674 1.561 . S
C961 C157 1.588 . S
C1026 C686 1.702 . S
C1011 C391 1.763 . S
C1076 C700 1.297 . S
C1061 C484 1.293 . S
C1111 C450 1.823 . S
C1126 C714 1.783 . S
C1176 C729 1.476 . S
C1161 C352 1.483 . S
C1211 C430 1.711 . S
C1226 C745 1.700 . S
C1276 C758 1.528 . S
C1261 C367 1.536 . S
C1311 C411 1.645 . S
C1326 C743 1.599 . S
C1376 C756 1.503 . S
C1361 C469 1.485 . S
C1411 C294 1.905 . S
C1426 C772 1.896 . S
C1461 C177 1.584 . S
C1476 C771 1.580 . S
C1511 C196 1.803 . S
C1526 C770 1.746 . S
C1561 C235 1.638 . S
C1576 C773 1.617 . S
C1611 C133 1.733 . S
C1626 C675 1.725 . S
C1661 C567 1.515 . S
C1676 C673 1.486 . S
C1726 C633 1.545 . S
C1711 C601 1.566 . S
C1776 C644 1.798 . S
C1761 C328 1.823 . S
C1811 C172 1.621 1_545 S
C1826 C689 1.608 . S
C1876 C730 1.963 . S
C1861 C445 1.970 . S
C1926 C687 1.528 . S
C1911 C372 1.534 . S
C1976 C715 1.488 . S
C1961 C489 1.479 . S
C2026 C716 1.644 . S
C2011 C562 1.652 . S
C2061 C606 1.780 . S
C2076 C731 1.743 . S
C2111 C313 1.758 . S
C2126 C688 1.747 . S
C2176 C702 1.560 . S
C2161 C508 1.587 . S
C2211 C118 1.763 . S
C2226 C658 1.702 . S
C2276 C672 1.297 . S
C2261 C16 1.293 . S
C2326 C630 1.784 . S
C2311 C60 1.823 . S
C2376 C645 1.476 . S
C2361 C79 1.483 . S
C2411 C40 1.711 . S
C2426 C759 1.700 . S
C2461 C94 1.537 . S
C2476 C744 1.528 . S
C2511 C138 1.645 . S
C2526 C757 1.599 . S
C2561 C1 1.485 . S
C2576 C742 1.502 . S
C2626 C786 1.897 . S
C2611 C333 1.906 . S
C2676 C785 1.581 . S
C2661 C528 1.584 . S
C2726 C784 1.746 . S
C2711 C547 1.803 . S
C2761 C586 1.639 . S
C2776 C787 1.618 . S
C2811 C406 1.733 . S
C2826 C703 1.725 . S
C2876 C701 1.486 . S
C2861 C216 1.515 . S
C2926 C717 1.545 . S
C2911 C250 1.566 . S
C2976 C728 1.797 . S
C2961 C289 1.823 . S
C3011 C523 1.621 . S
C3026 C661 1.609 . S
C3076 C646 1.963 . S
C3061 C55 1.970 . S
C3111 C99 1.534 . S
C3126 C659 1.528 . S
C3176 C631 1.488 . S
C3161 C21 1.479 . S
