# Generated by pormake.
# Topology ptr, (4,4)-cn, num edge types: 1
# Building blocks:
#     Node 0, Type 0, BuildingBlock: KUFVIS_clean_sbu_0, # of connection points: 4
#     Node 1, Type 0, BuildingBlock: KUFVIS_clean_sbu_0, # of connection points: 4
#     Node 2, Type 0, BuildingBlock: KUFVIS_clean_sbu_0, # of connection points: 4
#     Node 3, Type 0, BuildingBlock: KUFVIS_clean_sbu_0, # of connection points: 4
#     Node 4, Type 0, BuildingBlock: KUFVIS_clean_sbu_0, # of connection points: 4
#     Node 5, Type 0, BuildingBlock: KUFVIS_clean_sbu_0, # of connection points: 4
#     Node 6, Type 0, BuildingBlock: KUFVIS_clean_sbu_0, # of connection points: 4
#     Node 7, Type 0, BuildingBlock: KUFVIS_clean_sbu_0, # of connection points: 4
#     Node 8, Type 0, BuildingBlock: KUFVIS_clean_sbu_0, # of connection points: 4
#     Node 9, Type 0, BuildingBlock: KUFVIS_clean_sbu_0, # of connection points: 4
#     Node 10, Type 0, BuildingBlock: KUFVIS_clean_sbu_0, # of connection points: 4
#     Node 11, Type 0, BuildingBlock: KUFVIS_clean_sbu_0, # of connection points: 4
#     Node 12, Type 0, BuildingBlock: KUFVIS_clean_sbu_0, # of connection points: 4
#     Node 13, Type 0, BuildingBlock: KUFVIS_clean_sbu_0, # of connection points: 4
#     Node 14, Type 0, BuildingBlock: KUFVIS_clean_sbu_0, # of connection points: 4
#     Node 15, Type 0, BuildingBlock: KUFVIS_clean_sbu_0, # of connection points: 4
#     Node 16, Type 0, BuildingBlock: KUFVIS_clean_sbu_0, # of connection points: 4
#     Node 17, Type 0, BuildingBlock: KUFVIS_clean_sbu_0, # of connection points: 4
#     Node 18, Type 1, BuildingBlock: AZAVOO_clean_linker_0, # of connection points: 4
#     Node 19, Type 1, BuildingBlock: AZAVOO_clean_linker_0, # of connection points: 4
#     Node 20, Type 1, BuildingBlock: AZAVOO_clean_linker_0, # of connection points: 4
#     Node 21, Type 1, BuildingBlock: AZAVOO_clean_linker_0, # of connection points: 4
#     Node 22, Type 1, BuildingBlock: AZAVOO_clean_linker_0, # of connection points: 4
#     Node 23, Type 1, BuildingBlock: AZAVOO_clean_linker_0, # of connection points: 4
#     Node 24, Type 1, BuildingBlock: AZAVOO_clean_linker_0, # of connection points: 4
#     Node 25, Type 1, BuildingBlock: AZAVOO_clean_linker_0, # of connection points: 4
#     Node 26, Type 1, BuildingBlock: AZAVOO_clean_linker_0, # of connection points: 4
#     Node 27, Type 1, BuildingBlock: AZAVOO_clean_linker_0, # of connection points: 4
#     Node 28, Type 1, BuildingBlock: AZAVOO_clean_linker_0, # of connection points: 4
#     Node 29, Type 1, BuildingBlock: AZAVOO_clean_linker_0, # of connection points: 4
#     Node 30, Type 1, BuildingBlock: AZAVOO_clean_linker_0, # of connection points: 4
#     Node 31, Type 1, BuildingBlock: AZAVOO_clean_linker_0, # of connection points: 4
#     Node 32, Type 1, BuildingBlock: AZAVOO_clean_linker_0, # of connection points: 4
#     Node 33, Type 1, BuildingBlock: AZAVOO_clean_linker_0, # of connection points: 4
#     Node 34, Type 1, BuildingBlock: AZAVOO_clean_linker_0, # of connection points: 4
#     Node 35, Type 1, BuildingBlock: AZAVOO_clean_linker_0, # of connection points: 4
#     Edge 36, Type (0, 1), BuildingBlock: CIFDUS_clean_linker_0, # of connection points: 2
#     Edge 37, Type (0, 1), BuildingBlock: CIFDUS_clean_linker_0, # of connection points: 2
#     Edge 38, Type (0, 1), BuildingBlock: CIFDUS_clean_linker_0, # of connection points: 2
#     Edge 39, Type (0, 1), BuildingBlock: CIFDUS_clean_linker_0, # of connection points: 2
#     Edge 40, Type (0, 1), BuildingBlock: CIFDUS_clean_linker_0, # of connection points: 2
#     Edge 41, Type (0, 1), BuildingBlock: CIFDUS_clean_linker_0, # of connection points: 2
#     Edge 42, Type (0, 1), BuildingBlock: CIFDUS_clean_linker_0, # of connection points: 2
#     Edge 43, Type (0, 1), BuildingBlock: CIFDUS_clean_linker_0, # of connection points: 2
#     Edge 44, Type (0, 1), BuildingBlock: CIFDUS_clean_linker_0, # of connection points: 2
#     Edge 45, Type (0, 1), BuildingBlock: CIFDUS_clean_linker_0, # of connection points: 2
#     Edge 46, Type (0, 1), BuildingBlock: CIFDUS_clean_linker_0, # of connection points: 2
#     Edge 47, Type (0, 1), BuildingBlock: CIFDUS_clean_linker_0, # of connection points: 2
#     Edge 48, Type (0, 1), BuildingBlock: CIFDUS_clean_linker_0, # of connection points: 2
#     Edge 49, Type (0, 1), BuildingBlock: CIFDUS_clean_linker_0, # of connection points: 2
#     Edge 50, Type (0, 1), BuildingBlock: CIFDUS_clean_linker_0, # of connection points: 2
#     Edge 51, Type (0, 1), BuildingBlock: CIFDUS_clean_linker_0, # of connection points: 2
#     Edge 52, Type (0, 1), BuildingBlock: CIFDUS_clean_linker_0, # of connection points: 2
#     Edge 53, Type (0, 1), BuildingBlock: CIFDUS_clean_linker_0, # of connection points: 2
#     Edge 54, Type (0, 1), BuildingBlock: CIFDUS_clean_linker_0, # of connection points: 2
#     Edge 55, Type (0, 1), BuildingBlock: CIFDUS_clean_linker_0, # of connection points: 2
#     Edge 56, Type (0, 1), BuildingBlock: CIFDUS_clean_linker_0, # of connection points: 2
#     Edge 57, Type (0, 1), BuildingBlock: CIFDUS_clean_linker_0, # of connection points: 2
#     Edge 58, Type (0, 1), BuildingBlock: CIFDUS_clean_linker_0, # of connection points: 2
#     Edge 59, Type (0, 1), BuildingBlock: CIFDUS_clean_linker_0, # of connection points: 2
#     Edge 60, Type (0, 1), BuildingBlock: CIFDUS_clean_linker_0, # of connection points: 2
#     Edge 61, Type (0, 1), BuildingBlock: CIFDUS_clean_linker_0, # of connection points: 2
#     Edge 62, Type (0, 1), BuildingBlock: CIFDUS_clean_linker_0, # of connection points: 2
#     Edge 63, Type (0, 1), BuildingBlock: CIFDUS_clean_linker_0, # of connection points: 2
#     Edge 64, Type (0, 1), BuildingBlock: CIFDUS_clean_linker_0, # of connection points: 2
#     Edge 65, Type (0, 1), BuildingBlock: CIFDUS_clean_linker_0, # of connection points: 2
#     Edge 66, Type (0, 1), BuildingBlock: CIFDUS_clean_linker_0, # of connection points: 2
#     Edge 67, Type (0, 1), BuildingBlock: CIFDUS_clean_linker_0, # of connection points: 2
#     Edge 68, Type (0, 1), BuildingBlock: CIFDUS_clean_linker_0, # of connection points: 2
#     Edge 69, Type (0, 1), BuildingBlock: CIFDUS_clean_linker_0, # of connection points: 2
#     Edge 70, Type (0, 1), BuildingBlock: CIFDUS_clean_linker_0, # of connection points: 2
#     Edge 71, Type (0, 1), BuildingBlock: CIFDUS_clean_linker_0, # of connection points: 2
#     Edge 72, Type (0, 1), BuildingBlock: CIFDUS_clean_linker_0, # of connection points: 2
#     Edge 73, Type (0, 1), BuildingBlock: CIFDUS_clean_linker_0, # of connection points: 2
#     Edge 74, Type (0, 1), BuildingBlock: CIFDUS_clean_linker_0, # of connection points: 2
#     Edge 75, Type (0, 1), BuildingBlock: CIFDUS_clean_linker_0, # of connection points: 2
#     Edge 76, Type (0, 1), BuildingBlock: CIFDUS_clean_linker_0, # of connection points: 2
#     Edge 77, Type (0, 1), BuildingBlock: CIFDUS_clean_linker_0, # of connection points: 2
#     Edge 78, Type (0, 1), BuildingBlock: CIFDUS_clean_linker_0, # of connection points: 2
#     Edge 79, Type (0, 1), BuildingBlock: CIFDUS_clean_linker_0, # of connection points: 2
#     Edge 80, Type (0, 1), BuildingBlock: CIFDUS_clean_linker_0, # of connection points: 2
#     Edge 81, Type (0, 1), BuildingBlock: CIFDUS_clean_linker_0, # of connection points: 2
#     Edge 82, Type (0, 1), BuildingBlock: CIFDUS_clean_linker_0, # of connection points: 2
#     Edge 83, Type (0, 1), BuildingBlock: CIFDUS_clean_linker_0, # of connection points: 2
#     Edge 84, Type (0, 1), BuildingBlock: CIFDUS_clean_linker_0, # of connection points: 2
#     Edge 85, Type (0, 1), BuildingBlock: CIFDUS_clean_linker_0, # of connection points: 2
#     Edge 86, Type (0, 1), BuildingBlock: CIFDUS_clean_linker_0, # of connection points: 2
#     Edge 87, Type (0, 1), BuildingBlock: CIFDUS_clean_linker_0, # of connection points: 2
#     Edge 88, Type (0, 1), BuildingBlock: CIFDUS_clean_linker_0, # of connection points: 2
#     Edge 89, Type (0, 1), BuildingBlock: CIFDUS_clean_linker_0, # of connection points: 2
#     Edge 90, Type (0, 1), BuildingBlock: CIFDUS_clean_linker_0, # of connection points: 2
#     Edge 91, Type (0, 1), BuildingBlock: CIFDUS_clean_linker_0, # of connection points: 2
#     Edge 92, Type (0, 1), BuildingBlock: CIFDUS_clean_linker_0, # of connection points: 2
#     Edge 93, Type (0, 1), BuildingBlock: CIFDUS_clean_linker_0, # of connection points: 2
#     Edge 94, Type (0, 1), BuildingBlock: CIFDUS_clean_linker_0, # of connection points: 2
#     Edge 95, Type (0, 1), BuildingBlock: CIFDUS_clean_linker_0, # of connection points: 2
#     Edge 96, Type (0, 1), BuildingBlock: CIFDUS_clean_linker_0, # of connection points: 2
#     Edge 97, Type (0, 1), BuildingBlock: CIFDUS_clean_linker_0, # of connection points: 2
#     Edge 98, Type (0, 1), BuildingBlock: CIFDUS_clean_linker_0, # of connection points: 2
#     Edge 99, Type (0, 1), BuildingBlock: CIFDUS_clean_linker_0, # of connection points: 2
#     Edge 100, Type (0, 1), BuildingBlock: CIFDUS_clean_linker_0, # of connection points: 2
#     Edge 101, Type (0, 1), BuildingBlock: CIFDUS_clean_linker_0, # of connection points: 2
#     Edge 102, Type (0, 1), BuildingBlock: CIFDUS_clean_linker_0, # of connection points: 2
#     Edge 103, Type (0, 1), BuildingBlock: CIFDUS_clean_linker_0, # of connection points: 2
#     Edge 104, Type (0, 1), BuildingBlock: CIFDUS_clean_linker_0, # of connection points: 2
#     Edge 105, Type (0, 1), BuildingBlock: CIFDUS_clean_linker_0, # of connection points: 2
#     Edge 106, Type (0, 1), BuildingBlock: CIFDUS_clean_linker_0, # of connection points: 2
#     Edge 107, Type (0, 1), BuildingBlock: CIFDUS_clean_linker_0, # of connection points: 2
# Relax obj value: 0.059
# Max RMSD: 0.200
# Mean RMSD: 0.130
data_MOF--net-ptr--node1-KUFVIS_clean_sbu_0--node2-AZAVOO_clean_linker_0--edge1-CIFDUS_clean_linker_0
_symmetry_space_group_name_H-M    P1
_symmetry_Int_Tables_number       1
_symmetry_cell_setting            triclinic
loop_
_symmetry_equiv_pos_as_xyz
'x, y, z'
_cell_length_a     73.350467
_cell_length_b     71.773138
_cell_length_c     61.795116
_cell_angle_alpha  92.497279
_cell_angle_beta   93.074664
_cell_angle_gamma 119.51814
loop_
_atom_site_label
_atom_site_type_symbol
_atom_site_fract_x
_atom_site_fract_y
_atom_site_fract_z
_atom_type_partial_charge
Mn0 Mn 0.00536 0.36977 0.01901 0.0
Mn1 Mn 0.04864 0.419 0.02249 0.0
C2 C 0.00934 0.39313 0.99297 0.0
C3 C 0.98749 0.3334 0.00747 0.0
C4 C 0.01197 0.40802 0.04939 0.0
O5 O 0.02522 0.36645 0.04051 0.0
O6 O 0.05311 0.39989 0.04185 0.0
C7 C 0.07676 0.40611 0.00204 0.0
N8 N 0.06753 0.41857 0.00262 0.0
C9 C 0.08491 0.43655 0.97172 0.0
C10 C 0.09471 0.42401 0.97088 0.0
C11 C 0.09057 0.40869 0.98608 0.0
C12 C 0.07132 0.43327 0.98801 0.0
H13 H 0.07357 0.39428 0.01366 0.0
C14 C 0.04376 0.38071 0.04783 0.0
O15 O 0.98191 0.34087 0.0238 0.0
O16 O 0.00398 0.34697 0.99842 0.0
N17 N 0.04694 0.43943 0.00484 0.0
C18 C 0.03581 0.44984 0.00755 0.0
C19 C 0.03792 0.46549 0.99345 0.0
C20 C 0.05167 0.47049 0.97693 0.0
C21 C 0.0633 0.45989 0.97476 0.0
C22 C 0.06062 0.44452 0.98936 0.0
H23 H 0.02525 0.4461 0.02025 0.0
O24 O 0.99084 0.37752 0.99604 0.0
O25 O 0.02515 0.39458 0.00507 0.0
O26 O 0.00105 0.38833 0.04215 0.0
O27 O 0.02987 0.42094 0.04295 0.0
C28 C 0.07714 0.46368 0.95843 0.0
C29 C 0.08789 0.45197 0.95687 0.0
H30 H 0.10533 0.42591 0.95856 0.0
H31 H 0.098 0.39888 0.98547 0.0
H32 H 0.02891 0.47361 0.99525 0.0
H33 H 0.05308 0.48239 0.96594 0.0
H34 H 0.07944 0.47537 0.94682 0.0
H35 H 0.09831 0.45485 0.9441 0.0
Mn36 Mn 0.62791 0.6198 0.06898 0.0
Mn37 Mn 0.63154 0.57485 0.06643 0.0
C38 C 0.60932 0.59329 0.09171 0.0
C39 C 0.64234 0.65545 0.08266 0.0
C40 C 0.60651 0.58457 0.03226 0.0
O41 O 0.65314 0.62732 0.05171 0.0
O42 O 0.65734 0.59854 0.05555 0.0
C43 C 0.66722 0.58754 0.0994 0.0
N44 N 0.6468 0.57393 0.09201 0.0
C45 C 0.64159 0.55235 0.12227 0.0
C46 C 0.66263 0.56605 0.13014 0.0
C47 C 0.67548 0.58374 0.11867 0.0
C48 C 0.63429 0.55685 0.1029 0.0
H49 H 0.67711 0.60122 0.09067 0.0
C50 C 0.66329 0.6173 0.04911 0.0
O51 O 0.63012 0.64821 0.06469 0.0
O52 O 0.64613 0.642 0.09254 0.0
N53 N 0.60768 0.55083 0.07655 0.0
C54 C 0.58744 0.53996 0.06748 0.0
C55 C 0.57236 0.52223 0.0774 0.0
C56 C 0.57824 0.51581 0.09645 0.0
C57 C 0.5992 0.52712 0.10536 0.0
C58 C 0.61358 0.54456 0.09466 0.0
H59 H 0.58281 0.54487 0.05289 0.0
O60 O 0.60415 0.60781 0.088 0.0
O61 O 0.62556 0.59513 0.08238 0.0
O62 O 0.60827 0.60136 0.04236 0.0
O63 O 0.61526 0.57418 0.0395 0.0
C64 C 0.60629 0.52208 0.12469 0.0
C65 C 0.62747 0.53468 0.13314 0.0
H66 H 0.66901 0.56327 0.14508 0.0
H67 H 0.6917 0.59446 0.1247 0.0
H68 H 0.5562 0.51361 0.07046 0.0
H69 H 0.56651 0.50228 0.10419 0.0
H70 H 0.59551 0.50873 0.13336 0.0
H71 H 0.63266 0.53082 0.14818 0.0
Mn72 Mn 0.36746 0.98972 0.02922 0.0
Mn73 Mn 0.41292 0.0367 0.03602 0.0
C74 C 0.39356 0.9943 0.05527 0.0
C75 C 0.33285 0.96925 0.0379 0.0
C76 C 0.40093 0.00393 0.99726 0.0
O77 O 0.36078 0.01055 0.01379 0.0
O78 O 0.39011 0.04198 0.02482 0.0
C79 C 0.4038 0.05928 0.07138 0.0
N80 N 0.41598 0.05151 0.06362 0.0
C81 C 0.43897 0.06431 0.09665 0.0
C82 C 0.42684 0.07273 0.10486 0.0
C83 C 0.40914 0.07014 0.09219 0.0
C84 C 0.43301 0.05384 0.0757 0.0
H85 H 0.39003 0.05708 0.06183 0.0
C86 C 0.37128 0.0311 0.01576 0.0
O87 O 0.33897 0.96467 0.02008 0.0
O88 O 0.34662 0.98575 0.05039 0.0
N89 N 0.43588 0.03332 0.04728 0.0
C90 C 0.44477 0.02259 0.03781 0.0
C91 C 0.46195 0.02252 0.0489 0.0
C92 C 0.46987 0.03353 0.06956 0.0
C93 C 0.46052 0.04453 0.07896 0.0
C94 C 0.44353 0.04416 0.06707 0.0
H95 H 0.43873 0.01403 0.02197 0.0
O96 O 0.3789 0.97512 0.04814 0.0
O97 O 0.39228 0.00995 0.047 0.0
O98 O 0.38452 0.9888 0.00433 0.0
O99 O 0.41168 0.02264 0.0072 0.0
C100 C 0.46708 0.05538 0.09987 0.0
C101 C 0.45633 0.06528 0.1087 0.0
H102 H 0.43077 0.08091 0.12099 0.0
H103 H 0.39956 0.07638 0.09851 0.0
H104 H 0.46903 0.01392 0.04157 0.0
H105 H 0.48298 0.03325 0.07816 0.0
H106 H 0.48012 0.05586 0.10947 0.0
H107 H 0.46126 0.07323 0.12496 0.0
Mn108 Mn 0.99615 0.63853 0.03967 0.0
Mn109 Mn 0.04053 0.63521 0.04206 0.0
C110 C 0.99772 0.61232 0.01814 0.0
C111 C 0.97652 0.6531 0.0249 0.0
C112 C 0.00921 0.61935 0.07636 0.0
O113 O 0.01804 0.66732 0.05526 0.0
O114 O 0.04714 0.66448 0.05287 0.0
C115 C 0.06285 0.6652 0.00897 0.0
N116 N 0.05481 0.64533 0.01648 0.0
C117 C 0.06709 0.63285 0.98687 0.0
C118 C 0.07562 0.65322 0.97888 0.0
C119 C 0.07342 0.66943 0.98995 0.0
C120 C 0.05668 0.62957 0.00587 0.0
H121 H 0.06119 0.67769 0.01743 0.0
C122 C 0.03792 0.67504 0.05808 0.0
O123 O 0.9732 0.64533 0.0438 0.0
O124 O 0.99163 0.65302 0.01501 0.0
N125 N 0.03654 0.60777 0.03191 0.0
C126 C 0.02651 0.58872 0.04114 0.0
C127 C 0.02664 0.57065 0.03166 0.0
C128 C 0.03726 0.57239 0.01294 0.0
C129 C 0.04772 0.59223 0.00391 0.0
C130 C 0.04712 0.6097 0.01412 0.0
H131 H 0.01839 0.5873 0.05558 0.0
O132 O 0.97967 0.61025 0.02216 0.0
O133 O 0.01424 0.62982 0.02646 0.0
O134 O 0.99559 0.62317 0.06701 0.0
O135 O 0.02671 0.62397 0.06881 0.0
C136 C 0.05846 0.59527 0.985 0.0
C137 C 0.06815 0.61558 0.97649 0.0
H138 H 0.08373 0.65653 0.96418 0.0
H139 H 0.07987 0.68516 0.98382 0.0
H140 H 0.01855 0.5554 0.03874 0.0
H141 H 0.03719 0.55838 0.00558 0.0
H142 H 0.0591 0.58203 0.97668 0.0
H143 H 0.07607 0.61762 0.96174 0.0
Mn144 Mn 0.37141 0.37923 0.01855 0.0
Mn145 Mn 0.41647 0.3771 0.02249 0.0
C146 C 0.39666 0.39852 0.04677 0.0
C147 C 0.33653 0.36442 0.02704 0.0
C148 C 0.40904 0.40513 0.99197 0.0
O149 O 0.36421 0.35328 0.99805 0.0
O150 O 0.39496 0.35336 0.00187 0.0
C151 C 0.40005 0.3365 0.04402 0.0
N152 N 0.41441 0.35773 0.04373 0.0
C153 C 0.43287 0.35733 0.07693 0.0
C154 C 0.41837 0.33541 0.07751 0.0
C155 C 0.40185 0.32498 0.06102 0.0
C156 C 0.43026 0.36797 0.0596 0.0
H157 H 0.38734 0.32842 0.03137 0.0
C158 C 0.37601 0.34554 0.99359 0.0
O159 O 0.3432 0.37672 0.01109 0.0
O160 O 0.3499 0.36059 0.03755 0.0
N161 N 0.43895 0.39881 0.0418 0.0
C162 C 0.45092 0.42023 0.03951 0.0
C163 C 0.46781 0.43314 0.05498 0.0
C164 C 0.47238 0.42386 0.07251 0.0
C165 C 0.46002 0.40174 0.0744 0.0
C166 C 0.44342 0.38968 0.05844 0.0
H167 H 0.44737 0.42748 0.02621 0.0
O168 O 0.38248 0.40359 0.04125 0.0
O169 O 0.39541 0.38188 0.03596 0.0
O170 O 0.39021 0.39965 0.99633 0.0
O171 O 0.41989 0.39761 0.00094 0.0
C172 C 0.46323 0.39127 0.09172 0.0
C173 C 0.44964 0.36909 0.09302 0.0
H174 H 0.41968 0.32648 0.09061 0.0
H175 H 0.39054 0.3081 0.0614 0.0
H176 H 0.47723 0.45022 0.05346 0.0
H177 H 0.48531 0.4339 0.08452 0.0
H178 H 0.47589 0.4002 0.10435 0.0
H179 H 0.45206 0.36128 0.10661 0.0
Mn180 Mn 0.62516 0.01098 0.043 0.0
Mn181 Mn 0.57765 0.96706 0.04526 0.0
C182 C 0.596 0.0078 0.02326 0.0
C183 C 0.65628 0.02708 0.02554 0.0
C184 C 0.59839 0.00304 0.0814 0.0
O185 O 0.63236 0.98968 0.05616 0.0
O186 O 0.60002 0.96042 0.05451 0.0
C187 C 0.57987 0.93911 0.0101 0.0
N188 N 0.57006 0.94925 0.01874 0.0
C189 C 0.54347 0.9353 0.98864 0.0
C190 C 0.5532 0.92459 0.97949 0.0
C191 C 0.57149 0.92653 0.99025 0.0
C192 C 0.55244 0.94747 0.00854 0.0
H193 H 0.594 0.94068 0.01826 0.0
C194 C 0.62001 0.96994 0.0589 0.0
O195 O 0.65569 0.03405 0.04515 0.0
O196 O 0.63922 0.01066 0.01675 0.0
N197 N 0.5547 0.97146 0.03654 0.0
C198 C 0.54813 0.98402 0.04678 0.0
C199 C 0.53047 0.98459 0.03767 0.0
C200 C 0.51974 0.97221 0.01819 0.0
C201 C 0.52672 0.9593 0.00803 0.0
C202 C 0.54429 0.95922 0.01798 0.0
H203 H 0.55639 0.99364 0.0617 0.0
O204 O 0.61259 0.02652 0.02767 0.0
O205 O 0.59714 0.99168 0.03052 0.0
O206 O 0.61476 0.01569 0.07209 0.0
O207 O 0.58409 0.98467 0.07289 0.0
C208 C 0.51721 0.94687 0.98819 0.0
C209 C 0.52557 0.93486 0.97851 0.0
H210 H 0.5469 0.91504 0.96408 0.0
H211 H 0.57917 0.91843 0.98322 0.0
H212 H 0.52521 0.99463 0.04558 0.0
H213 H 0.50626 0.97288 0.01109 0.0
H214 H 0.50366 0.94669 0.98006 0.0
H215 H 0.51833 0.92565 0.96308 0.0
Mn216 Mn 0.67188 0.70163 0.34405 0.0
Mn217 Mn 0.71603 0.74988 0.34627 0.0
C218 C 0.67558 0.72494 0.31799 0.0
C219 C 0.65363 0.66518 0.33308 0.0
C220 C 0.68133 0.73898 0.3763 0.0
O221 O 0.6924 0.69846 0.36513 0.0
O222 O 0.72218 0.72946 0.3613 0.0
C223 C 0.74184 0.73889 0.31894 0.0
N224 N 0.73264 0.75101 0.32305 0.0
C225 C 0.74664 0.77117 0.29212 0.0
C226 C 0.7564 0.75901 0.28763 0.0
C227 C 0.75394 0.74277 0.30107 0.0
C228 C 0.73484 0.76663 0.31019 0.0
H229 H 0.73993 0.72635 0.3292 0.0
C230 C 0.71225 0.71092 0.36869 0.0
O231 O 0.64842 0.67297 0.34947 0.0
O232 O 0.66993 0.67845 0.32358 0.0
N233 N 0.7122 0.77105 0.33209 0.0
C234 C 0.70087 0.78056 0.33798 0.0
C235 C 0.70115 0.79676 0.32582 0.0
C236 C 0.71319 0.80315 0.30785 0.0
C237 C 0.7249 0.79331 0.30225 0.0
C238 C 0.72412 0.77734 0.31506 0.0
H239 H 0.69161 0.77576 0.35179 0.0
O240 O 0.65708 0.70942 0.32123 0.0
O241 O 0.69135 0.72607 0.32979 0.0
O242 O 0.66825 0.72058 0.367 0.0
O243 O 0.69992 0.75062 0.37068 0.0
C244 C 0.737 0.79842 0.28421 0.0
C245 C 0.74783 0.78733 0.27913 0.0
H246 H 0.76566 0.76188 0.27381 0.0
H247 H 0.76133 0.73324 0.29765 0.0
H248 H 0.69204 0.80426 0.33022 0.0
H249 H 0.71318 0.81549 0.29837 0.0
H250 H 0.7378 0.81061 0.27394 0.0
H251 H 0.75683 0.79119 0.26503 0.0
Mn252 Mn 0.29513 0.95497 0.39716 0.0
Mn253 Mn 0.29072 0.90598 0.3998 0.0
C254 C 0.27236 0.93115 0.41987 0.0
C255 C 0.31144 0.99147 0.40833 0.0
C256 C 0.26918 0.91667 0.3633 0.0
O257 O 0.32096 0.95859 0.383 0.0
O258 O 0.31641 0.92541 0.38551 0.0
C259 C 0.3277 0.91955 0.43131 0.0
N260 N 0.30675 0.9067 0.42556 0.0
C261 C 0.302 0.88862 0.45843 0.0
C262 C 0.32355 0.90157 0.46465 0.0
C263 C 0.33644 0.91715 0.45105 0.0
C264 C 0.29418 0.89182 0.43862 0.0
H265 H 0.33765 0.93155 0.42091 0.0
C266 C 0.32654 0.94455 0.37954 0.0
O267 O 0.30109 0.98397 0.38937 0.0
O268 O 0.31278 0.97787 0.42055 0.0
N269 N 0.26678 0.8851 0.41301 0.0
C270 C 0.24629 0.87406 0.40472 0.0
C271 C 0.23128 0.85798 0.41642 0.0
C272 C 0.23754 0.85316 0.4363 0.0
C273 C 0.2588 0.86435 0.44422 0.0
C274 C 0.27305 0.88016 0.43181 0.0
H275 H 0.24141 0.8776 0.38938 0.0
O276 O 0.26998 0.94688 0.41356 0.0
O277 O 0.28833 0.93001 0.4131 0.0
O278 O 0.2763 0.93627 0.37017 0.0
O279 O 0.27343 0.90383 0.37323 0.0
C280 C 0.26637 0.86061 0.46406 0.0
C281 C 0.28794 0.8728 0.47121 0.0
H282 H 0.33035 0.89977 0.47986 0.0
H283 H 0.35307 0.92726 0.45578 0.0
H284 H 0.21492 0.84933 0.41014 0.0
H285 H 0.22589 0.84086 0.44536 0.0
H286 H 0.25569 0.8486 0.47408 0.0
H287 H 0.29353 0.86998 0.48662 0.0
Mn288 Mn 0.03602 0.316 0.35504 0.0
Mn289 Mn 0.08088 0.36364 0.35963 0.0
C290 C 0.06408 0.32105 0.37839 0.0
C291 C 0.00244 0.2955 0.36675 0.0
C292 C 0.06705 0.33097 0.32052 0.0
O293 O 0.0277 0.33623 0.34104 0.0
O294 O 0.05707 0.36814 0.3502 0.0
C295 C 0.07287 0.3856 0.39649 0.0
N296 N 0.08498 0.3783 0.38757 0.0
C297 C 0.10961 0.3917 0.41937 0.0
C298 C 0.0975 0.39954 0.42881 0.0
C299 C 0.07902 0.39642 0.41734 0.0
C300 C 0.10276 0.38116 0.39849 0.0
H301 H 0.05859 0.38312 0.38778 0.0
C302 C 0.0379 0.35675 0.34224 0.0
O303 O 0.00702 0.29075 0.348 0.0
O304 O 0.0172 0.31205 0.37838 0.0
N305 N 0.10492 0.36127 0.36897 0.0
C306 C 0.11395 0.35134 0.35824 0.0
C307 C 0.13209 0.3521 0.36793 0.0
C308 C 0.14079 0.3631 0.38849 0.0
C309 C 0.13129 0.37329 0.39916 0.0
C310 C 0.11333 0.37214 0.38864 0.0
H311 H 0.10732 0.34282 0.34247 0.0
O312 O 0.04918 0.30177 0.37194 0.0
O313 O 0.0618 0.33655 0.37119 0.0
O314 O 0.05124 0.31555 0.32818 0.0
O315 O 0.07827 0.34962 0.33044 0.0
C316 C 0.13868 0.38416 0.42003 0.0
C317 C 0.12786 0.39339 0.43011 0.0
H318 H 0.10208 0.40772 0.44498 0.0
H319 H 0.0695 0.40228 0.42459 0.0
H320 H 0.13931 0.34415 0.35961 0.0
H321 H 0.15467 0.36347 0.39599 0.0
H322 H 0.15247 0.38523 0.42861 0.0
H323 H 0.13348 0.40137 0.44631 0.0
Mn324 Mn 0.66456 0.96702 0.36841 0.0
Mn325 Mn 0.71124 0.969 0.37824 0.0
C326 C 0.67402 0.94768 0.34535 0.0
C327 C 0.6448 0.98103 0.35277 0.0
C328 C 0.67354 0.94327 0.40355 0.0
O329 O 0.68083 0.99334 0.38991 0.0
O330 O 0.71215 0.99442 0.39348 0.0
C331 C 0.73779 0.00712 0.3549 0.0
N332 N 0.73016 0.98594 0.35787 0.0
C333 C 0.74982 0.98235 0.32962 0.0
C334 C 0.75801 0.00417 0.32636 0.0
C335 C 0.75194 0.01659 0.33903 0.0
C336 C 0.7359 0.97384 0.34577 0.0
H337 H 0.73308 0.01669 0.36456 0.0
C338 C 0.69998 0.00197 0.39759 0.0
O339 O 0.63852 0.96912 0.36903 0.0
O340 O 0.66274 0.98518 0.34598 0.0
N341 N 0.71247 0.94533 0.36437 0.0
C342 C 0.70226 0.92429 0.36876 0.0
C343 C 0.70606 0.90954 0.35701 0.0
C344 C 0.72041 0.91658 0.341 0.0
C345 C 0.73092 0.93836 0.33696 0.0
C346 C 0.72661 0.95235 0.3493 0.0
H347 H 0.69117 0.91879 0.38101 0.0
O348 O 0.65442 0.94242 0.34592 0.0
O349 O 0.6875 0.96424 0.35812 0.0
O350 O 0.66056 0.94706 0.39273 0.0
O351 O 0.69277 0.95099 0.39969 0.0
C352 C 0.74517 0.94665 0.32086 0.0
C353 C 0.7546 0.96863 0.31718 0.0
H354 H 0.76882 0.0115 0.31404 0.0
H355 H 0.7581 0.03341 0.33654 0.0
H356 H 0.69787 0.89276 0.3602 0.0
H357 H 0.72312 0.90511 0.3318 0.0
H358 H 0.74874 0.9362 0.31101 0.0
H359 H 0.7653 0.97475 0.30456 0.0
Mn360 Mn 0.03543 0.7221 0.35751 0.0
Mn361 Mn 0.08287 0.72528 0.35704 0.0
C362 C 0.06286 0.74552 0.38239 0.0
C363 C 0.00232 0.70577 0.37139 0.0
C364 C 0.06741 0.74641 0.32485 0.0
O365 O 0.02871 0.69498 0.33909 0.0
O366 O 0.06083 0.69801 0.3411 0.0
C367 C 0.07496 0.68931 0.38394 0.0
N368 N 0.0866 0.71045 0.38031 0.0
C369 C 0.11048 0.71722 0.41175 0.0
C370 C 0.09882 0.6955 0.41575 0.0
C371 C 0.08095 0.6815 0.40182 0.0
C372 C 0.10378 0.72407 0.39364 0.0
H373 H 0.06121 0.6785 0.37328 0.0
C374 C 0.04115 0.68793 0.3348 0.0
O375 O 0.00528 0.71564 0.35362 0.0
O376 O 0.0182 0.70488 0.38023 0.0
N377 N 0.10566 0.75068 0.37213 0.0
C378 C 0.11419 0.77145 0.36702 0.0
C379 C 0.13171 0.78764 0.37988 0.0
C380 C 0.14032 0.78232 0.39781 0.0
C381 C 0.13131 0.76084 0.40274 0.0
C382 C 0.11394 0.74537 0.38926 0.0
H383 H 0.10747 0.77567 0.35346 0.0
O384 O 0.04704 0.74849 0.37799 0.0
O385 O 0.06208 0.7289 0.37222 0.0
O386 O 0.04938 0.74045 0.33196 0.0
O387 O 0.08059 0.74134 0.33307 0.0
C388 C 0.1386 0.75423 0.42078 0.0
C389 C 0.12821 0.73244 0.42526 0.0
H390 H 0.10332 0.68944 0.42959 0.0
H391 H 0.07181 0.66474 0.40487 0.0
H392 H 0.13848 0.80421 0.37606 0.0
H393 H 0.15371 0.79489 0.40782 0.0
H394 H 0.15196 0.76584 0.43154 0.0
H395 H 0.13374 0.72762 0.43939 0.0
Mn396 Mn 0.29421 0.34448 0.3764 0.0
Mn397 Mn 0.24715 0.29939 0.36741 0.0
C398 C 0.26935 0.34241 0.35016 0.0
C399 C 0.32923 0.3635 0.36834 0.0
C400 C 0.25971 0.33099 0.40736 0.0
O401 O 0.29895 0.32192 0.39056 0.0
O402 O 0.26827 0.292 0.37928 0.0
C403 C 0.25645 0.27688 0.33212 0.0
N404 N 0.24475 0.28542 0.33948 0.0
C405 C 0.22373 0.27537 0.30525 0.0
C406 C 0.23543 0.26629 0.29738 0.0
C407 C 0.25189 0.2671 0.31085 0.0
C408 C 0.22894 0.28482 0.32662 0.0
H409 H 0.26922 0.27762 0.34235 0.0
C410 C 0.28714 0.30151 0.38833 0.0
O411 O 0.32339 0.3679 0.38646 0.0
O412 O 0.31483 0.34804 0.35525 0.0
N413 N 0.22564 0.30465 0.35541 0.0
C414 C 0.21675 0.31534 0.36498 0.0
C415 C 0.2004 0.31656 0.35343 0.0
C416 C 0.19331 0.30673 0.33221 0.0
C417 C 0.20263 0.29575 0.32272 0.0
C418 C 0.21875 0.29491 0.33509 0.0
H419 H 0.2221 0.32291 0.38129 0.0
O420 O 0.28447 0.36103 0.35816 0.0
O421 O 0.26935 0.32599 0.35797 0.0
O422 O 0.2773 0.34536 0.40145 0.0
O423 O 0.24797 0.31302 0.39629 0.0
C424 C 0.19688 0.28602 0.30131 0.0
C425 C 0.20745 0.27587 0.29257 0.0
H426 H 0.23206 0.25887 0.28094 0.0
H427 H 0.2611 0.26028 0.30484 0.0
H428 H 0.19332 0.32511 0.36084 0.0
H429 H 0.18084 0.3079 0.32326 0.0
H430 H 0.18459 0.28657 0.2913 0.0
H431 H 0.20313 0.26877 0.27597 0.0
Mn432 Mn 0.3403 0.03701 0.6847 0.0
Mn433 Mn 0.38172 0.08708 0.68399 0.0
C434 C 0.34102 0.05822 0.65752 0.0
C435 C 0.32381 0.00024 0.6758 0.0
C436 C 0.34734 0.07542 0.71455 0.0
O437 O 0.3626 0.03663 0.7053 0.0
O438 O 0.39 0.0695 0.7016 0.0
C439 C 0.40893 0.07627 0.65882 0.0
N440 N 0.39862 0.08753 0.66133 0.0
C441 C 0.41135 0.10533 0.62881 0.0
C442 C 0.42222 0.09402 0.62596 0.0
C443 C 0.42095 0.07938 0.641 0.0
C444 C 0.3996 0.10153 0.64687 0.0
H445 H 0.40796 0.06497 0.67033 0.0
C446 C 0.38185 0.05108 0.70937 0.0
O447 O 0.31887 0.00816 0.69228 0.0
O448 O 0.33888 0.01365 0.66494 0.0
N449 N 0.37617 0.10597 0.66747 0.0
C450 C 0.36441 0.11527 0.67232 0.0
C451 C 0.36387 0.13025 0.65879 0.0
C452 C 0.3756 0.13569 0.64056 0.0
C453 C 0.38787 0.12619 0.6361 0.0
C454 C 0.38791 0.1115 0.65026 0.0
H455 H 0.35544 0.11125 0.68638 0.0
O456 O 0.32329 0.04219 0.66198 0.0
O457 O 0.35779 0.06123 0.66891 0.0
O458 O 0.33617 0.05582 0.70727 0.0
O459 O 0.36492 0.08835 0.70744 0.0
C460 C 0.39983 0.13051 0.618 0.0
C461 C 0.4115 0.12002 0.61431 0.0
H462 H 0.43148 0.09635 0.61221 0.0
H463 H 0.42922 0.07052 0.63885 0.0
H464 H 0.35438 0.13753 0.66236 0.0
H465 H 0.37496 0.14707 0.63003 0.0
H466 H 0.39997 0.14167 0.60667 0.0
H467 H 0.42043 0.12328 0.60019 0.0
Mn468 Mn 0.96658 0.29008 0.73402 0.0
Mn469 Mn 0.9662 0.24311 0.73814 0.0
C470 C 0.94434 0.26565 0.7566 0.0
C471 C 0.98033 0.32644 0.74419 0.0
C472 C 0.94449 0.25175 0.7 0.0
O473 O 0.99328 0.29536 0.72055 0.0
O474 O 0.99266 0.26429 0.7261 0.0
C475 C 0.00114 0.25784 0.77255 0.0
N476 N 0.98072 0.24417 0.76517 0.0
C477 C 0.97448 0.22511 0.79749 0.0
C478 C 0.99548 0.23891 0.8054 0.0
C479 C 0.00885 0.25539 0.79289 0.0
C480 C 0.96769 0.22835 0.77713 0.0
H481 H 0.01144 0.27052 0.76297 0.0
C482 C 0.00128 0.28313 0.71923 0.0
O483 O 0.97033 0.31793 0.72526 0.0
O484 O 0.98294 0.31393 0.75703 0.0
N485 N 0.94171 0.22094 0.74945 0.0
C486 C 0.92168 0.20956 0.73986 0.0
C487 C 0.90619 0.19283 0.75052 0.0
C488 C 0.91151 0.18775 0.77075 0.0
C489 C 0.9323 0.19941 0.78009 0.0
C490 C 0.94707 0.2159 0.76869 0.0
H491 H 0.91753 0.21334 0.72428 0.0
O492 O 0.94092 0.28059 0.74981 0.0
O493 O 0.96116 0.26578 0.75051 0.0
O494 O 0.9488 0.2705 0.70723 0.0
O495 O 0.95056 0.24028 0.70998 0.0
C496 C 0.93888 0.19557 0.80043 0.0
C497 C 0.95995 0.20844 0.80915 0.0
H498 H 0.00148 0.2371 0.8211 0.0
H499 H 0.02505 0.26616 0.79892 0.0
H500 H 0.89019 0.18387 0.74319 0.0
H501 H 0.89948 0.17494 0.779 0.0
H502 H 0.92779 0.183 0.80967 0.0
H503 H 0.96474 0.20554 0.82495 0.0
Mn504 Mn 0.70385 0.65846 0.69717 0.0
Mn505 Mn 0.7533 0.69981 0.69615 0.0
C506 C 0.73104 0.66006 0.71931 0.0
C507 C 0.67129 0.64406 0.71178 0.0
C508 C 0.73297 0.66263 0.6615 0.0
O509 O 0.69908 0.6805 0.68247 0.0
O510 O 0.73263 0.70715 0.68232 0.0
C511 C 0.74975 0.73086 0.72631 0.0
N512 N 0.75951 0.71956 0.7209 0.0
C513 C 0.78414 0.73529 0.75259 0.0
C514 C 0.77445 0.7472 0.75842 0.0
C515 C 0.75715 0.74494 0.74524 0.0
C516 C 0.77614 0.7216 0.73348 0.0
H517 H 0.73641 0.72913 0.71629 0.0
C518 C 0.71276 0.69921 0.67793 0.0
O519 O 0.67311 0.63663 0.69293 0.0
O520 O 0.6882 0.65982 0.72178 0.0
N521 N 0.77484 0.69515 0.70924 0.0
C522 C 0.78149 0.68145 0.70216 0.0
C523 C 0.7982 0.6811 0.71398 0.0
C524 C 0.80796 0.69492 0.7329 0.0
C525 C 0.80096 0.70901 0.73979 0.0
C526 C 0.78433 0.70874 0.72725 0.0
H527 H 0.77392 0.67069 0.68777 0.0
O528 O 0.71398 0.64185 0.71422 0.0
O529 O 0.73169 0.67677 0.7112 0.0
O530 O 0.71504 0.65258 0.66919 0.0
O531 O 0.74841 0.68006 0.6705 0.0
C532 C 0.80952 0.72297 0.75886 0.0
C533 C 0.80114 0.73612 0.76524 0.0
H534 H 0.78003 0.75797 0.77308 0.0
H535 H 0.74952 0.75399 0.7497 0.0
H536 H 0.80346 0.67012 0.70859 0.0
H537 H 0.82071 0.69446 0.7421 0.0
H538 H 0.82234 0.72348 0.76892 0.0
H539 H 0.80763 0.74654 0.78012 0.0
Mn540 Mn 0.32329 0.29782 0.704 0.0
Mn541 Mn 0.36989 0.29884 0.70889 0.0
C542 C 0.32868 0.27464 0.6817 0.0
C543 C 0.3019 0.31058 0.68962 0.0
C544 C 0.33623 0.27794 0.74017 0.0
O545 O 0.34252 0.32618 0.72187 0.0
O546 O 0.37333 0.32647 0.72133 0.0
C547 C 0.39298 0.33236 0.67906 0.0
N548 N 0.3858 0.31203 0.68503 0.0
C549 C 0.40227 0.30395 0.65624 0.0
C550 C 0.40993 0.32485 0.64984 0.0
C551 C 0.4052 0.33908 0.66126 0.0
C552 C 0.39014 0.29816 0.67408 0.0
H553 H 0.3894 0.34335 0.68782 0.0
C554 C 0.36239 0.33524 0.7263 0.0
O555 O 0.29835 0.30127 0.70768 0.0
O556 O 0.31828 0.31306 0.68023 0.0
N557 N 0.36902 0.27319 0.69739 0.0
C558 C 0.35951 0.25328 0.70493 0.0
C559 C 0.36206 0.23691 0.6948 0.0
C560 C 0.37456 0.24124 0.67721 0.0
C561 C 0.38445 0.26194 0.66995 0.0
C562 C 0.38137 0.27762 0.68071 0.0
H563 H 0.34995 0.24987 0.71849 0.0
O564 O 0.30976 0.27066 0.68464 0.0
O565 O 0.34396 0.29236 0.69146 0.0
O566 O 0.32241 0.28107 0.73022 0.0
O567 O 0.35463 0.28456 0.73401 0.0
C568 C 0.39697 0.26754 0.65224 0.0
C569 C 0.40588 0.28854 0.64539 0.0
H570 H 0.41932 0.33008 0.63608 0.0
H571 H 0.41099 0.35521 0.65636 0.0
H572 H 0.35439 0.22098 0.70051 0.0
H573 H 0.37637 0.22853 0.66934 0.0
H574 H 0.39957 0.25574 0.64354 0.0
H575 H 0.41519 0.29255 0.63153 0.0
Mn576 Mn 0.70228 0.04711 0.68828 0.0
Mn577 Mn 0.74689 0.0452 0.68365 0.0
C578 C 0.73181 0.06838 0.71202 0.0
C579 C 0.67028 0.03359 0.70415 0.0
C580 C 0.73153 0.06726 0.65261 0.0
O581 O 0.6924 0.01932 0.6692 0.0
O582 O 0.72253 0.01789 0.67058 0.0
C583 C 0.73969 0.01094 0.71271 0.0
N584 N 0.75163 0.03153 0.70744 0.0
C585 C 0.77662 0.03966 0.73822 0.0
C586 C 0.76467 0.01848 0.74386 0.0
C587 C 0.74612 0.00407 0.73106 0.0
C588 C 0.76953 0.04552 0.71962 0.0
H589 H 0.72532 -0.00014 0.70303 0.0
C590 C 0.70282 0.00981 0.665 0.0
O591 O 0.6732 0.0436 0.6865 0.0
O592 O 0.68548 0.03085 0.71177 0.0
N593 N 0.77137 0.07077 0.69614 0.0
C594 C 0.78028 0.09098 0.68934 0.0
C595 C 0.79858 0.10753 0.70086 0.0
C596 C 0.80752 0.10313 0.71923 0.0
C597 C 0.7981 0.08219 0.72588 0.0
C598 C 0.78001 0.0663 0.71362 0.0
H599 H 0.77342 0.09448 0.67531 0.0
O600 O 0.71717 0.07342 0.70928 0.0
O601 O 0.72866 0.05133 0.70061 0.0
O602 O 0.71568 0.06486 0.66243 0.0
O603 O 0.74352 0.05993 0.65878 0.0
C604 C 0.80569 0.07657 0.74447 0.0
C605 C 0.79497 0.05532 0.75063 0.0
H606 H 0.76947 0.01318 0.75813 0.0
H607 H 0.73674 0.98775 0.7354 0.0
H608 H 0.8057 0.12367 0.69568 0.0
H609 H 0.82148 0.116 0.72823 0.0
H610 H 0.81959 0.08855 0.75432 0.0
H611 H 0.80078 0.05127 0.76513 0.0
Mn612 Mn 0.96107 0.68623 0.71 0.0
Mn613 Mn 0.91655 0.63833 0.70446 0.0
C614 C 0.93446 0.6798 0.68372 0.0
C615 C 0.99554 0.707 0.70081 0.0
C616 C 0.9277 0.67205 0.74209 0.0
O617 O 0.96879 0.66665 0.7264 0.0
O618 O 0.93991 0.63448 0.71674 0.0
C619 C 0.92715 0.61566 0.67057 0.0
N620 N 0.91435 0.62304 0.67745 0.0
C621 C 0.89196 0.60897 0.64407 0.0
C622 C 0.90481 0.60108 0.6367 0.0
C623 C 0.9225 0.60448 0.64999 0.0
C624 C 0.89732 0.61991 0.66477 0.0
H625 H 0.94084 0.61837 0.68068 0.0
C626 C 0.95873 0.64613 0.72559 0.0
O627 O 0.98942 0.71185 0.71849 0.0
O628 O 0.98173 0.69013 0.68878 0.0
N629 N 0.89296 0.64018 0.69231 0.0
C630 C 0.88294 0.64996 0.70126 0.0
C631 C 0.86523 0.64861 0.68976 0.0
C632 C 0.85797 0.63717 0.66923 0.0
C633 C 0.86848 0.62717 0.66038 0.0
C634 C 0.88594 0.6289 0.67268 0.0
H635 H 0.88843 0.65876 0.71704 0.0
O636 O 0.94865 0.69939 0.69019 0.0
O637 O 0.93647 0.66495 0.69285 0.0
O638 O 0.94395 0.68721 0.73477 0.0
O639 O 0.9172 0.65311 0.73257 0.0
C640 C 0.8626 0.61593 0.63966 0.0
C641 C 0.87434 0.60686 0.63149 0.0
H642 H 0.90136 0.59257 0.62078 0.0
H643 H 0.93257 0.59856 0.64436 0.0
H644 H 0.85725 0.65643 0.69667 0.0
H645 H 0.84445 0.63636 0.66031 0.0
H646 H 0.84926 0.61446 0.62971 0.0
H647 H 0.86986 0.59855 0.6154 0.0
H648 H 0.15892 0.35555 0.01315 0.0
H649 H 0.29228 0.32144 0.1855 0.0
H650 H 0.16068 0.36703 0.13279 0.0
H651 H 0.13277 0.37177 0.11604 0.0
H652 H 0.08786 0.30532 0.12406 0.0
H653 H 0.1166 0.3005 0.13983 0.0
H654 H 0.19123 0.36661 0.10417 0.0
H655 H 0.18228 0.36823 0.06585 0.0
H656 H 0.13325 0.30167 0.06273 0.0
H657 H 0.14255 0.30021 0.10101 0.0
H658 H 0.22821 0.37077 0.1319 0.0
H659 H 0.25418 0.3786 0.10537 0.0
H660 H 0.21755 0.31348 0.07632 0.0
H661 H 0.19157 0.30578 0.10305 0.0
H662 H 0.23066 0.36556 0.1812 0.0
H663 H 0.26398 0.36774 0.19353 0.0
H664 H 0.24226 0.3046 0.16175 0.0
H665 H 0.20893 0.30254 0.14974 0.0
H666 H 0.1933 0.36295 0.20315 0.0
H667 H 0.20645 0.36636 0.24114 0.0
H668 H 0.19814 0.3024 0.23317 0.0
H669 H 0.1854 0.29938 0.19498 0.0
H670 H 0.15394 0.35803 0.18434 0.0
H671 H 0.13249 0.35364 0.21477 0.0
H672 H 0.11668 0.28709 0.21488 0.0
H673 H 0.13873 0.29194 0.18495 0.0
O674 O 0.16227 0.35452 0.02826 0.0
O675 O 0.13722 0.3203 0.02755 0.0
O676 O 0.28964 0.35338 0.19698 0.0
O677 O 0.27926 0.32101 0.18083 0.0
C678 C 0.15869 0.33046 0.14409 0.0
C679 C 0.17293 0.33226 0.12861 0.0
C680 C 0.1922 0.33343 0.13535 0.0
C681 C 0.19702 0.33237 0.15753 0.0
C682 C 0.18255 0.33004 0.17289 0.0
C683 C 0.16317 0.32863 0.16612 0.0
C684 C 0.14067 0.33342 0.13737 0.0
C685 C 0.14476 0.35356 0.13119 0.0
C686 C 0.12867 0.35626 0.12177 0.0
C687 C 0.10792 0.33894 0.11871 0.0
C688 C 0.10368 0.31893 0.12591 0.0
C689 C 0.11998 0.31617 0.13513 0.0
C690 C 0.16768 0.33323 0.10528 0.0
C691 C 0.17871 0.35235 0.09512 0.0
C692 C 0.17349 0.35325 0.07326 0.0
C693 C 0.15707 0.33507 0.06121 0.0
C694 C 0.146 0.31596 0.07152 0.0
C695 C 0.15127 0.31507 0.09337 0.0
C696 C 0.20808 0.33768 0.11947 0.0
C697 C 0.22583 0.35819 0.11984 0.0
C698 C 0.24052 0.36268 0.10455 0.0
C699 C 0.23783 0.34669 0.08866 0.0
C700 C 0.22007 0.32609 0.08841 0.0
C701 C 0.20524 0.32166 0.10362 0.0
C702 C 0.21737 0.33384 0.1647 0.0
C703 C 0.23312 0.35219 0.177 0.0
C704 C 0.25214 0.35341 0.18398 0.0
C705 C 0.25577 0.33632 0.17865 0.0
C706 C 0.23998 0.31803 0.16616 0.0
C707 C 0.22094 0.31682 0.15925 0.0
C708 C 0.1885 0.33096 0.19637 0.0
C709 C 0.19404 0.34958 0.20974 0.0
C710 C 0.20146 0.35145 0.23145 0.0
C711 C 0.20346 0.33471 0.24014 0.0
C712 C 0.1971 0.31572 0.22685 0.0
C713 C 0.18973 0.31389 0.20511 0.0
C714 C 0.14782 0.32529 0.18239 0.0
C715 C 0.14552 0.34243 0.19072 0.0
C716 C 0.1332 0.33984 0.2081 0.0
C717 C 0.12288 0.32001 0.21744 0.0
C718 C 0.12466 0.30268 0.20841 0.0
C719 C 0.13707 0.30533 0.19115 0.0
C720 C 0.15153 0.3361 0.038 0.0
C721 C 0.27593 0.3375 0.18607 0.0
H722 H 0.6852 0.81677 0.01951 0.0
H723 H 0.71382 0.98511 0.21322 0.0
H724 H 0.65192 0.80341 0.14721 0.0
H725 H 0.64122 0.76763 0.13042 0.0
H726 H 0.70628 0.78681 0.12348 0.0
H727 H 0.71693 0.82285 0.14028 0.0
H728 H 0.66303 0.82401 0.10774 0.0
H729 H 0.66618 0.81628 0.06966 0.0
H730 H 0.73197 0.86488 0.07726 0.0
H731 H 0.72868 0.8722 0.11548 0.0
H732 H 0.66174 0.85985 0.11587 0.0
H733 H 0.65296 0.88172 0.09354 0.0
H734 H 0.71208 0.93788 0.11665 0.0
H735 H 0.72172 0.91521 0.13744 0.0
H736 H 0.66245 0.88521 0.16569 0.0
H737 H 0.6623 0.9178 0.17893 0.0
H738 H 0.72881 0.94783 0.19872 0.0
H739 H 0.72874 0.91521 0.18521 0.0
H740 H 0.65725 0.85053 0.20152 0.0
H741 H 0.65328 0.86167 0.23816 0.0
H742 H 0.72083 0.89859 0.25077 0.0
H743 H 0.72469 0.88681 0.21417 0.0
H744 H 0.65309 0.81351 0.18822 0.0
H745 H 0.64685 0.78934 0.21718 0.0
H746 H 0.71368 0.81297 0.22736 0.0
H747 H 0.71972 0.837 0.1982 0.0
O748 O 0.68433 0.82003 0.03467 0.0
O749 O 0.71805 0.84527 0.0394 0.0
O750 O 0.67937 0.95611 0.1968 0.0
O751 O 0.71347 0.97212 0.20763 0.0
C752 C 0.69092 0.83778 0.15292 0.0
C753 C 0.69406 0.85306 0.13774 0.0
C754 C 0.69541 0.87279 0.14465 0.0
C755 C 0.69548 0.87793 0.16702 0.0
C756 C 0.69335 0.86306 0.18227 0.0
C757 C 0.69065 0.84286 0.17516 0.0
C758 C 0.68519 0.81561 0.14509 0.0
C759 C 0.6639 0.79977 0.14243 0.0
C760 C 0.65781 0.77947 0.13263 0.0
C761 C 0.67293 0.77457 0.12552 0.0
C762 C 0.69435 0.79022 0.12889 0.0
C763 C 0.70044 0.81071 0.13848 0.0
C764 C 0.69572 0.84843 0.11448 0.0
C765 C 0.67817 0.83277 0.10125 0.0
C766 C 0.67999 0.82849 0.07944 0.0
C767 C 0.69935 0.8399 0.07043 0.0
C768 C 0.71684 0.85575 0.0837 0.0
C769 C 0.71501 0.85998 0.10553 0.0
C770 C 0.69237 0.88587 0.12836 0.0
C771 C 0.67324 0.87668 0.11543 0.0
C772 C 0.66805 0.88935 0.103 0.0
C773 C 0.68152 0.91169 0.10383 0.0
C774 C 0.70132 0.92073 0.11567 0.0
C775 C 0.70679 0.90784 0.12769 0.0
C776 C 0.69561 0.89794 0.17447 0.0
C777 C 0.67697 0.89891 0.17279 0.0
C778 C 0.67694 0.91751 0.1804 0.0
C779 C 0.69556 0.93542 0.18992 0.0
C780 C 0.71421 0.93434 0.19149 0.0
C781 C 0.71423 0.91576 0.1838 0.0
C782 C 0.69124 0.86776 0.20532 0.0
C783 C 0.67118 0.86052 0.21242 0.0
C784 C 0.66894 0.8669 0.2333 0.0
C785 C 0.68676 0.88096 0.24724 0.0
C786 C 0.70687 0.88776 0.24028 0.0
C787 C 0.70909 0.88104 0.21949 0.0
C788 C 0.68683 0.82685 0.19113 0.0
C789 C 0.66632 0.81322 0.19654 0.0
C790 C 0.66282 0.7996 0.21315 0.0
C791 C 0.67979 0.79937 0.22456 0.0
C792 C 0.7003 0.81268 0.21869 0.0
C793 C 0.70378 0.82639 0.20211 0.0
C794 C 0.70123 0.8353 0.04725 0.0
C795 C 0.69556 0.95513 0.19828 0.0
H796 H 0.11665 0.85119 0.0217 0.0
H797 H 0.30432 0.96562 0.18991 0.0
H798 H 0.11063 0.841 0.13479 0.0
H799 H 0.08269 0.80624 0.1175 0.0
H800 H 0.11796 0.77617 0.13999 0.0
H801 H 0.14586 0.81073 0.15639 0.0
H802 H 0.14897 0.88489 0.11179 0.0
H803 H 0.13482 0.8761 0.07366 0.0
H804 H 0.14047 0.81887 0.07258 0.0
H805 H 0.15491 0.82802 0.11056 0.0
H806 H 0.20016 0.92333 0.13684 0.0
H807 H 0.22759 0.94312 0.11324 0.0
H808 H 0.21961 0.88302 0.08467 0.0
H809 H 0.19478 0.86399 0.11082 0.0
H810 H 0.20028 0.92434 0.18698 0.0
H811 H 0.2358 0.95393 0.19797 0.0
H812 H 0.2618 0.91733 0.16868 0.0
H813 H 0.22621 0.88778 0.15802 0.0
H814 H 0.16621 0.89247 0.21407 0.0
H815 H 0.18235 0.90312 0.25165 0.0
H816 H 0.22308 0.87736 0.2376 0.0
H817 H 0.20673 0.86661 0.20031 0.0
H818 H 0.12242 0.85212 0.1942 0.0
H819 H 0.10573 0.8315 0.22515 0.0
H820 H 0.14829 0.80606 0.22545 0.0
H821 H 0.16515 0.82717 0.19531 0.0
O822 O 0.12234 0.8544 0.03675 0.0
O823 O 0.12543 0.8251 0.03709 0.0
O824 O 0.27594 0.97229 0.20064 0.0
O825 O 0.2901 0.95416 0.18579 0.0
C826 C 0.14914 0.84956 0.15347 0.0
C827 C 0.16118 0.86245 0.13722 0.0
C828 C 0.18142 0.88038 0.14301 0.0
C829 C 0.18909 0.88594 0.16522 0.0
C830 C 0.17666 0.87362 0.18144 0.0
C831 C 0.1568 0.85532 0.17559 0.0
C832 C 0.13024 0.82838 0.14693 0.0
C833 C 0.11201 0.82677 0.13638 0.0
C834 C 0.09611 0.80696 0.12655 0.0
C835 C 0.09834 0.78861 0.12716 0.0
C836 C 0.11598 0.79011 0.13898 0.0
C837 C 0.1318 0.8098 0.14865 0.0
C838 C 0.15275 0.85699 0.11401 0.0
C839 C 0.14716 0.87048 0.10327 0.0
C840 C 0.13906 0.8654 0.0815 0.0
C841 C 0.13644 0.84674 0.07009 0.0
C842 C 0.14221 0.83333 0.0809 0.0
C843 C 0.15037 0.83846 0.10263 0.0
C844 C 0.19545 0.89214 0.12583 0.0
C845 C 0.20448 0.91449 0.12555 0.0
C846 C 0.22007 0.9258 0.11164 0.0
C847 C 0.22639 0.91495 0.09684 0.0
C848 C 0.21607 0.89233 0.09617 0.0
C849 C 0.20126 0.88119 0.11083 0.0
C850 C 0.21069 0.90398 0.17163 0.0
C851 C 0.21368 0.92275 0.18299 0.0
C852 C 0.23397 0.93963 0.18922 0.0
C853 C 0.25165 0.93801 0.18417 0.0
C854 C 0.24855 0.91913 0.1728 0.0
C855 C 0.22825 0.90225 0.16664 0.0
C856 C 0.18538 0.87886 0.20453 0.0
C857 C 0.17849 0.88899 0.21924 0.0
C858 C 0.18779 0.89515 0.2406 0.0
C859 C 0.204 0.8911 0.24756 0.0
C860 C 0.21048 0.88049 0.23282 0.0
C861 C 0.20126 0.87444 0.2115 0.0
C862 C 0.14507 0.84122 0.19266 0.0
C863 C 0.12793 0.8419 0.2009 0.0
C864 C 0.11838 0.83007 0.2185 0.0
C865 C 0.12587 0.81737 0.228 0.0
C866 C 0.14244 0.81606 0.2189 0.0
C867 C 0.15201 0.82797 0.20156 0.0
C868 C 0.12775 0.84136 0.04699 0.0
C869 C 0.27325 0.95589 0.19073 0.0
H870 H 0.27323 0.15395 0.03674 0.0
H871 H 0.3222 0.03298 0.86252 0.0
H872 H 0.2806 0.1786 0.91726 0.0
H873 H 0.28855 0.2144 0.9319 0.0
H874 H 0.35494 0.23458 0.93672 0.0
H875 H 0.34678 0.19948 0.92086 0.0
H876 H 0.26925 0.13064 0.944 0.0
H877 H 0.2646 0.13618 0.98223 0.0
H878 H 0.33126 0.18107 0.99401 0.0
H879 H 0.33569 0.17519 0.95581 0.0
H880 H 0.27595 0.08877 0.92433 0.0
H881 H 0.28271 0.06437 0.94565 0.0
H882 H 0.34635 0.11588 0.96323 0.0
H883 H 0.33912 0.13992 0.94285 0.0
H884 H 0.27479 0.0917 0.87106 0.0
H885 H 0.27392 0.05859 0.85777 0.0
H886 H 0.33748 0.08353 0.88654 0.0
H887 H 0.33818 0.11661 0.8995 0.0
H888 H 0.28497 0.12858 0.84191 0.0
H889 H 0.29411 0.12133 0.80593 0.0
H890 H 0.35748 0.14276 0.83299 0.0
H891 H 0.34818 0.14964 0.86868 0.0
H892 H 0.28562 0.17588 0.87111 0.0
H893 H 0.2938 0.20388 0.84602 0.0
H894 H 0.35674 0.21332 0.8446 0.0
H895 H 0.34883 0.18672 0.87098 0.0
O896 O 0.27543 0.15197 0.0217 0.0
O897 O 0.30979 0.17495 0.02689 0.0
O898 O 0.28956 0.03391 0.85284 0.0
O899 O 0.32213 0.04591 0.86751 0.0
C900 C 0.3088 0.16509 0.90943 0.0
C901 C 0.30532 0.14919 0.92393 0.0
C902 C 0.30489 0.13009 0.9165 0.0
C903 C 0.30683 0.12642 0.89433 0.0
C904 C 0.31038 0.14232 0.87989 0.0
C905 C 0.31142 0.16171 0.88741 0.0
C906 C 0.31315 0.18659 0.91801 0.0
C907 C 0.29683 0.19095 0.9213 0.0
C908 C 0.30143 0.21135 0.92981 0.0
C909 C 0.32243 0.22756 0.93543 0.0
C910 C 0.33863 0.22286 0.93207 0.0
C911 C 0.33403 0.2027 0.92322 0.0
C912 C 0.30274 0.15272 0.94713 0.0
C913 C 0.28281 0.14168 0.95488 0.0
C914 C 0.2802 0.14488 0.97671 0.0
C915 C 0.29754 0.15915 0.99117 0.0
C916 C 0.31756 0.17005 0.98331 0.0
C917 C 0.32013 0.16681 0.96148 0.0
C918 C 0.30697 0.11617 0.93233 0.0
C919 C 0.29109 0.09482 0.93341 0.0
C920 C 0.29509 0.08087 0.94536 0.0
C921 C 0.31509 0.08808 0.95623 0.0
C922 C 0.3306 0.10976 0.95562 0.0
C923 C 0.32653 0.12363 0.94393 0.0
C924 C 0.30646 0.1064 0.88638 0.0
C925 C 0.28848 0.08994 0.87446 0.0
C926 C 0.28804 0.07107 0.86691 0.0
C927 C 0.30562 0.06839 0.87116 0.0
C928 C 0.32366 0.08504 0.88304 0.0
C929 C 0.32409 0.10391 0.89051 0.0
C930 C 0.31598 0.13973 0.85775 0.0
C931 C 0.30086 0.13195 0.8399 0.0
C932 C 0.30607 0.12778 0.81949 0.0
C933 C 0.32653 0.13164 0.81673 0.0
C934 C 0.34171 0.13998 0.83459 0.0
C935 C 0.33642 0.14383 0.85495 0.0
C936 C 0.3165 0.17899 0.87251 0.0
C937 C 0.30121 0.18421 0.86548 0.0
C938 C 0.3059 0.20009 0.85098 0.0
C939 C 0.3259 0.21083 0.843 0.0
C940 C 0.34125 0.20571 0.85051 0.0
C941 C 0.33668 0.19019 0.86533 0.0
C942 C 0.29472 0.16255 0.01433 0.0
C943 C 0.3052 0.04835 0.86325 0.0
H944 H 0.83107 0.18469 0.05267 0.0
H945 H 0.71999 0.01769 0.86032 0.0
H946 H 0.84312 0.19981 0.93608 0.0
H947 H 0.87121 0.23182 0.9569 0.0
H948 H 0.9134 0.20645 0.95049 0.0
H949 H 0.88501 0.17427 0.92959 0.0
H950 H 0.80716 0.16459 0.9592 0.0
H951 H 0.8124 0.1744 0.99837 0.0
H952 H 0.8629 0.15964 0.00344 0.0
H953 H 0.85731 0.14964 0.96429 0.0
H954 H 0.77087 0.12648 0.92436 0.0
H955 H 0.74323 0.10641 0.94819 0.0
H956 H 0.78443 0.08943 0.98384 0.0
H957 H 0.81188 0.10881 0.95926 0.0
H958 H 0.77429 0.12451 0.87802 0.0
H959 H 0.74346 0.09203 0.86108 0.0
H960 H 0.76707 0.05329 0.88969 0.0
H961 H 0.79799 0.08593 0.90629 0.0
H962 H 0.81018 0.16207 0.86249 0.0
H963 H 0.7987 0.15302 0.82382 0.0
H964 H 0.81372 0.10186 0.8243 0.0
H965 H 0.82502 0.111 0.86325 0.0
H966 H 0.84365 0.19486 0.8817 0.0
H967 H 0.86811 0.21712 0.85583 0.0
H968 H 0.89893 0.17917 0.85898 0.0
H969 H 0.87396 0.15652 0.88437 0.0
O970 O 0.82919 0.18063 0.03723 0.0
O971 O 0.85508 0.1729 0.03894 0.0
O972 O 0.72064 0.05145 0.85241 0.0
O973 O 0.73202 0.03079 0.86685 0.0
C974 C 0.84408 0.16433 0.92165 0.0
C975 C 0.82878 0.15064 0.93512 0.0
C976 C 0.81036 0.13214 0.92585 0.0
C977 C 0.80746 0.12729 0.90305 0.0
C978 C 0.8227 0.14117 0.8896 0.0
C979 C 0.84113 0.15955 0.89894 0.0
C980 C 0.86208 0.18479 0.93142 0.0
C981 C 0.85852 0.20131 0.93893 0.0
C982 C 0.87448 0.21944 0.95097 0.0
C983 C 0.89436 0.22143 0.95559 0.0
C984 C 0.89821 0.20529 0.94716 0.0
C985 C 0.88211 0.18701 0.93519 0.0
C986 C 0.83179 0.15631 0.95896 0.0
C987 C 0.81925 0.16336 0.96884 0.0
C988 C 0.82232 0.16901 0.9912 0.0
C989 C 0.83807 0.1678 0.00405 0.0
C990 C 0.85063 0.16075 0.99403 0.0
C991 C 0.84749 0.15505 0.97168 0.0
C992 C 0.79336 0.11895 0.93985 0.0
C993 C 0.77384 0.11809 0.93701 0.0
C994 C 0.75813 0.10677 0.95072 0.0
C995 C 0.76176 0.09644 0.96785 0.0
C996 C 0.78133 0.09739 0.97083 0.0
C997 C 0.79693 0.10836 0.95678 0.0
C998 C 0.78846 0.10756 0.89321 0.0
C999 C 0.77284 0.109 0.88049 0.0
C1000 C 0.75521 0.09042 0.8709 0.0
C1001 C 0.75282 0.07005 0.87398 0.0
C1002 C 0.76843 0.0687 0.88694 0.0
C1003 C 0.78608 0.08731 0.89648 0.0
C1004 C 0.81851 0.13726 0.86561 0.0
C1005 C 0.81151 0.14928 0.85411 0.0
C1006 C 0.80499 0.14409 0.83198 0.0
C1007 C 0.80525 0.12668 0.82096 0.0
C1008 C 0.81312 0.11522 0.83238 0.0
C1009 C 0.81968 0.12046 0.85456 0.0
C1010 C 0.85701 0.17405 0.88477 0.0
C1011 C 0.85572 0.19141 0.87684 0.0
C1012 C 0.86962 0.20403 0.86208 0.0
C1013 C 0.88532 0.19977 0.85542 0.0
C1014 C 0.88701 0.1828 0.86396 0.0
C1015 C 0.87281 0.1699 0.87839 0.0
C1016 C 0.84136 0.1739 0.02778 0.0
C1017 C 0.73417 0.05027 0.86374 0.0
H1018 H 0.86556 0.68199 0.05973 0.0
H1019 H 0.69371 0.64935 0.88824 0.0
H1020 H 0.87728 0.70682 0.94979 0.0
H1021 H 0.90819 0.7058 0.96544 0.0
H1022 H 0.88777 0.64564 0.92799 0.0
H1023 H 0.85643 0.64622 0.91311 0.0
H1024 H 0.83942 0.70063 0.97613 0.0
H1025 H 0.85059 0.69835 0.01348 0.0
H1026 H 0.84662 0.63772 0.99417 0.0
H1027 H 0.83516 0.64005 0.95696 0.0
H1028 H 0.7981 0.69594 0.95757 0.0
H1029 H 0.7719 0.6852 0.98433 0.0
H1030 H 0.76178 0.62046 0.97723 0.0
H1031 H 0.78847 0.63163 0.95131 0.0
H1032 H 0.79841 0.70569 0.90487 0.0
H1033 H 0.76494 0.7044 0.89545 0.0
H1034 H 0.7319 0.63607 0.9026 0.0
H1035 H 0.7655 0.63758 0.91177 0.0
H1036 H 0.83181 0.70975 0.8741 0.0
H1037 H 0.81774 0.71142 0.83766 0.0
H1038 H 0.77425 0.64318 0.83448 0.0
H1039 H 0.78818 0.64171 0.87089 0.0
H1040 H 0.87643 0.70611 0.89204 0.0
H1041 H 0.89586 0.70321 0.86206 0.0
H1042 H 0.84405 0.63953 0.84247 0.0
H1043 H 0.82553 0.64217 0.87287 0.0
O1044 O 0.86088 0.68245 0.0449 0.0
O1045 O 0.85881 0.65145 0.03409 0.0
O1046 O 0.7249 0.68546 0.88839 0.0
O1047 O 0.70716 0.65032 0.89194 0.0
C1048 C 0.84398 0.67516 0.92449 0.0
C1049 C 0.83039 0.67236 0.94106 0.0
C1050 C 0.81059 0.6706 0.93592 0.0
C1051 C 0.80473 0.67264 0.91443 0.0
C1052 C 0.818 0.6749 0.89779 0.0
C1053 C 0.83738 0.67555 0.90264 0.0
C1054 C 0.86459 0.67661 0.93029 0.0
C1055 C 0.87968 0.69362 0.94466 0.0
C1056 C 0.89723 0.69299 0.95364 0.0
C1057 C 0.90022 0.67561 0.94794 0.0
C1058 C 0.88584 0.65928 0.93249 0.0
C1059 C 0.86803 0.65967 0.92389 0.0
C1060 C 0.83658 0.67056 0.96385 0.0
C1061 C 0.84084 0.68681 0.98005 0.0
C1062 C 0.84729 0.68549 0.00135 0.0
C1063 C 0.84957 0.66789 0.0068 0.0
C1064 C 0.84507 0.65152 0.99052 0.0
C1065 C 0.83855 0.65282 0.96925 0.0
C1066 C 0.79521 0.66457 0.95261 0.0
C1067 C 0.7903 0.67951 0.962 0.0
C1068 C 0.77522 0.67327 0.97717 0.0
C1069 C 0.76466 0.65192 0.98304 0.0
C1070 C 0.76981 0.63711 0.97354 0.0
C1071 C 0.78498 0.64341 0.95858 0.0
C1072 C 0.78433 0.67176 0.90912 0.0
C1073 C 0.78391 0.69048 0.90441 0.0
C1074 C 0.76478 0.68969 0.89904 0.0
C1075 C 0.74572 0.67012 0.89831 0.0
C1076 C 0.74626 0.6514 0.90306 0.0
C1077 C 0.76541 0.65221 0.90837 0.0
C1078 C 0.81097 0.67563 0.87505 0.0
C1079 C 0.81943 0.69516 0.86537 0.0
C1080 C 0.81137 0.69609 0.84468 0.0
C1081 C 0.79496 0.67742 0.8333 0.0
C1082 C 0.78705 0.65775 0.84279 0.0
C1083 C 0.7949 0.6569 0.86357 0.0
C1084 C 0.8495 0.67439 0.88457 0.0
C1085 C 0.86942 0.69153 0.88129 0.0
C1086 C 0.8804 0.68989 0.86406 0.0
C1087 C 0.8716 0.67109 0.84985 0.0
C1088 C 0.85157 0.65409 0.85326 0.0
C1089 C 0.84078 0.65567 0.8705 0.0
C1090 C 0.85668 0.66668 0.02938 0.0
C1091 C 0.72536 0.66919 0.89258 0.0
H1092 H 0.81656 0.69941 0.35716 0.0
H1093 H 0.94641 0.64287 0.51628 0.0
H1094 H 0.815 0.69501 0.47971 0.0
H1095 H 0.7884 0.70103 0.46117 0.0
H1096 H 0.74884 0.6326 0.44612 0.0
H1097 H 0.7755 0.62668 0.46552 0.0
H1098 H 0.84735 0.69862 0.44624 0.0
H1099 H 0.83895 0.70533 0.40954 0.0
H1100 H 0.79364 0.63775 0.39648 0.0
H1101 H 0.80232 0.63128 0.43318 0.0
H1102 H 0.88783 0.69651 0.47218 0.0
H1103 H 0.91492 0.70417 0.44697 0.0
H1104 H 0.87277 0.64544 0.40804 0.0
H1105 H 0.84589 0.63719 0.43394 0.0
H1106 H 0.8876 0.69011 0.51844 0.0
H1107 H 0.92021 0.69035 0.52965 0.0
H1108 H 0.89692 0.629 0.49312 0.0
H1109 H 0.86426 0.62883 0.48228 0.0
H1110 H 0.84886 0.68916 0.53895 0.0
H1111 H 0.8629 0.69351 0.57668 0.0
H1112 H 0.85798 0.63099 0.56888 0.0
H1113 H 0.84425 0.62699 0.53089 0.0
H1114 H 0.80722 0.68297 0.51866 0.0
H1115 H 0.78664 0.67857 0.54992 0.0
H1116 H 0.77981 0.61592 0.55644 0.0
H1117 H 0.79939 0.61981 0.52439 0.0
O1118 O 0.81987 0.69636 0.37149 0.0
O1119 O 0.79694 0.66144 0.36551 0.0
O1120 O 0.94484 0.67464 0.53077 0.0
O1121 O 0.93366 0.64318 0.51211 0.0
C1122 C 0.81537 0.65785 0.48051 0.0
C1123 C 0.82984 0.66068 0.46493 0.0
C1124 C 0.84894 0.66127 0.47114 0.0
C1125 C 0.85356 0.65904 0.49309 0.0
C1126 C 0.83926 0.6566 0.50872 0.0
C1127 C 0.81984 0.65537 0.50235 0.0
C1128 C 0.79708 0.66043 0.47406 0.0
C1129 C 0.80026 0.68127 0.47312 0.0
C1130 C 0.78517 0.68467 0.46228 0.0
C1131 C 0.76674 0.6673 0.45183 0.0
C1132 C 0.76288 0.64627 0.45408 0.0
C1133 C 0.77802 0.64286 0.46517 0.0
C1134 C 0.82546 0.66448 0.4423 0.0
C1135 C 0.83575 0.68528 0.43534 0.0
C1136 C 0.83086 0.68907 0.41441 0.0
C1137 C 0.81558 0.67208 0.40009 0.0
C1138 C 0.80546 0.6512 0.4071 0.0
C1139 C 0.81038 0.64744 0.42803 0.0
C1140 C 0.86494 0.66614 0.45512 0.0
C1141 C 0.88444 0.68517 0.45833 0.0
C1142 C 0.89981 0.68963 0.44387 0.0
C1143 C 0.89579 0.67542 0.42562 0.0
C1144 C 0.87609 0.65668 0.42196 0.0
C1145 C 0.86081 0.65198 0.43672 0.0
C1146 C 0.8735 0.65936 0.49971 0.0
C1147 C 0.88952 0.67667 0.51301 0.0
C1148 C 0.90816 0.6768 0.51932 0.0
C1149 C 0.91116 0.65966 0.51231 0.0
C1150 C 0.89512 0.64243 0.49884 0.0
C1151 C 0.87646 0.6423 0.4926 0.0
C1152 C 0.84566 0.65783 0.53218 0.0
C1153 C 0.85051 0.67627 0.54551 0.0
C1154 C 0.85844 0.67867 0.5671 0.0
C1155 C 0.86168 0.66265 0.57577 0.0
C1156 C 0.85598 0.64377 0.56258 0.0
C1157 C 0.84806 0.6414 0.54094 0.0
C1158 C 0.80455 0.65156 0.51889 0.0
C1159 C 0.80046 0.66787 0.52611 0.0
C1160 C 0.78885 0.66543 0.54408 0.0
C1161 C 0.78161 0.64687 0.55542 0.0
C1162 C 0.78512 0.63029 0.54782 0.0
C1163 C 0.79627 0.63252 0.52955 0.0
C1164 C 0.81019 0.67621 0.37798 0.0
C1165 C 0.93092 0.65969 0.519 0.0
H1166 H 0.32719 0.13265 0.35867 0.0
H1167 H 0.38674 0.32033 0.54162 0.0
H1168 H 0.3177 0.12738 0.49339 0.0
H1169 H 0.31275 0.09201 0.48176 0.0
H1170 H 0.37472 0.12212 0.45892 0.0
H1171 H 0.38021 0.15758 0.47187 0.0
H1172 H 0.31967 0.1482 0.45059 0.0
H1173 H 0.31675 0.13684 0.41206 0.0
H1174 H 0.38079 0.18713 0.40738 0.0
H1175 H 0.38357 0.19817 0.44601 0.0
H1176 H 0.31866 0.1914 0.46124 0.0
H1177 H 0.31014 0.21482 0.44117 0.0
H1178 H 0.37628 0.26224 0.44405 0.0
H1179 H 0.38452 0.23866 0.46506 0.0
H1180 H 0.32633 0.21629 0.50899 0.0
H1181 H 0.32951 0.25072 0.52146 0.0
H1182 H 0.39726 0.28039 0.52422 0.0
H1183 H 0.3938 0.24584 0.51174 0.0
H1184 H 0.32141 0.18274 0.54058 0.0
H1185 H 0.31971 0.2 0.57481 0.0
H1186 H 0.38747 0.23818 0.58181 0.0
H1187 H 0.38907 0.22031 0.54774 0.0
H1188 H 0.31573 0.14633 0.52853 0.0
H1189 H 0.30938 0.1222 0.55743 0.0
H1190 H 0.37559 0.14205 0.56429 0.0
H1191 H 0.38163 0.16578 0.53485 0.0
O1192 O 0.32869 0.1374 0.37389 0.0
O1193 O 0.36163 0.1636 0.37231 0.0
O1194 O 0.35011 0.29065 0.5344 0.0
O1195 O 0.38501 0.3066 0.53637 0.0
C1196 C 0.35231 0.16659 0.49063 0.0
C1197 C 0.35376 0.18064 0.47456 0.0
C1198 C 0.35603 0.20089 0.48076 0.0
C1199 C 0.35787 0.20756 0.50294 0.0
C1200 C 0.35595 0.19346 0.51894 0.0
C1201 C 0.35277 0.17285 0.5128 0.0
C1202 C 0.34955 0.14508 0.48408 0.0
C1203 C 0.3305 0.12638 0.48657 0.0
C1204 C 0.32759 0.10623 0.47972 0.0
C1205 C 0.34342 0.10449 0.46962 0.0
C1206 C 0.36236 0.12317 0.46677 0.0
C1207 C 0.36549 0.14332 0.47416 0.0
C1208 C 0.35189 0.17387 0.45112 0.0
C1209 C 0.33309 0.15665 0.44124 0.0
C1210 C 0.33144 0.15024 0.41922 0.0
C1211 C 0.34856 0.16104 0.40664 0.0
C1212 C 0.36732 0.17844 0.41659 0.0
C1213 C 0.36895 0.1848 0.43863 0.0
C1214 C 0.35217 0.2133 0.46445 0.0
C1215 C 0.33135 0.20658 0.45698 0.0
C1216 C 0.32655 0.22005 0.44547 0.0
C1217 C 0.34253 0.24051 0.44097 0.0
C1218 C 0.36358 0.24673 0.44749 0.0
C1219 C 0.36836 0.23322 0.45923 0.0
C1220 C 0.35984 0.22868 0.50945 0.0
C1221 C 0.34182 0.2303 0.51218 0.0
C1222 C 0.34369 0.24995 0.51934 0.0
C1223 C 0.36366 0.26831 0.52388 0.0
C1224 C 0.38167 0.26659 0.52089 0.0
C1225 C 0.37975 0.24692 0.51372 0.0
C1226 C 0.35537 0.20001 0.54188 0.0
C1227 C 0.33592 0.19408 0.55 0.0
C1228 C 0.33497 0.20408 0.56945 0.0
C1229 C 0.35346 0.22048 0.58084 0.0
C1230 C 0.373 0.22563 0.57325 0.0
C1231 C 0.37395 0.21534 0.55396 0.0
C1232 C 0.34911 0.15768 0.52964 0.0
C1233 C 0.32882 0.14534 0.53623 0.0
C1234 C 0.32526 0.13169 0.55279 0.0
C1235 C 0.34199 0.13027 0.56319 0.0
C1236 C 0.36233 0.14257 0.55639 0.0
C1237 C 0.36585 0.15618 0.53969 0.0
C1238 C 0.34677 0.15417 0.38326 0.0
C1239 C 0.36576 0.28914 0.53184 0.0
H1240 H 0.79435 0.15587 0.35801 0.0
H1241 H 0.97404 0.29509 0.54475 0.0
H1242 H 0.7828 0.15787 0.48728 0.0
H1243 H 0.75508 0.12091 0.47512 0.0
H1244 H 0.80289 0.10345 0.46573 0.0
H1245 H 0.83005 0.13983 0.47817 0.0
H1246 H 0.80905 0.18841 0.44939 0.0
H1247 H 0.79843 0.1766 0.41078 0.0
H1248 H 0.84445 0.15562 0.40929 0.0
H1249 H 0.85475 0.1673 0.44795 0.0
H1250 H 0.86064 0.23724 0.458 0.0
H1251 H 0.8876 0.25802 0.4334 0.0
H1252 H 0.91614 0.21871 0.44438 0.0
H1253 H 0.8896 0.1985 0.46939 0.0
H1254 H 0.87551 0.25364 0.50039 0.0
H1255 H 0.90988 0.28504 0.51159 0.0
H1256 H 0.93234 0.24324 0.5345 0.0
H1257 H 0.89795 0.21198 0.523 0.0
H1258 H 0.85813 0.23653 0.5431 0.0
H1259 H 0.87392 0.2483 0.58045 0.0
H1260 H 0.87127 0.18717 0.58653 0.0
H1261 H 0.85748 0.17656 0.54865 0.0
H1262 H 0.8078 0.19249 0.53743 0.0
H1263 H 0.78528 0.17301 0.56581 0.0
H1264 H 0.79905 0.12163 0.55382 0.0
H1265 H 0.82134 0.14113 0.52547 0.0
O1266 O 0.79881 0.16044 0.37326 0.0
O1267 O 0.82273 0.14995 0.37334 0.0
O1268 O 0.948 0.30374 0.52812 0.0
O1269 O 0.96032 0.28296 0.54015 0.0
C1270 C 0.82556 0.17349 0.49043 0.0
C1271 C 0.83891 0.18592 0.47483 0.0
C1272 C 0.85798 0.2048 0.48155 0.0
C1273 C 0.8635 0.21157 0.50389 0.0
C1274 C 0.84977 0.1996 0.51953 0.0
C1275 C 0.83058 0.18065 0.51275 0.0
C1276 C 0.80837 0.15144 0.48353 0.0
C1277 C 0.78713 0.14593 0.48269 0.0
C1278 C 0.7714 0.12492 0.4757 0.0
C1279 C 0.77681 0.10923 0.46968 0.0
C1280 C 0.79815 0.11499 0.47067 0.0
C1281 C 0.81372 0.13582 0.47756 0.0
C1282 C 0.83284 0.17896 0.45135 0.0
C1283 C 0.81685 0.18132 0.44066 0.0
C1284 C 0.81081 0.17455 0.41862 0.0
C1285 C 0.82065 0.16524 0.40692 0.0
C1286 C 0.83662 0.16281 0.41778 0.0
C1287 C 0.84262 0.16957 0.43983 0.0
C1288 C 0.8732 0.21639 0.46542 0.0
C1289 C 0.87263 0.23306 0.45493 0.0
C1290 C 0.88798 0.24486 0.44094 0.0
C1291 C 0.90384 0.23984 0.43692 0.0
C1292 C 0.90395 0.22271 0.44698 0.0
C1293 C 0.88888 0.21124 0.46129 0.0
C1294 C 0.88429 0.23058 0.51089 0.0
C1295 C 0.88791 0.25132 0.50776 0.0
C1296 C 0.90753 0.26922 0.51421 0.0
C1297 C 0.92387 0.26665 0.52395 0.0
C1298 C 0.92012 0.24579 0.52706 0.0
C1299 C 0.9005 0.22791 0.52055 0.0
C1300 C 0.85668 0.2057 0.54309 0.0
C1301 C 0.86098 0.22573 0.55256 0.0
C1302 C 0.86983 0.23232 0.57403 0.0
C1303 C 0.87412 0.21879 0.58661 0.0
C1304 C 0.86876 0.1983 0.57728 0.0
C1305 C 0.86046 0.19199 0.55569 0.0
C1306 C 0.81605 0.16816 0.52917 0.0
C1307 C 0.80576 0.17693 0.54082 0.0
C1308 C 0.793 0.16582 0.5571 0.0
C1309 C 0.79027 0.14569 0.56208 0.0
C1310 C 0.80043 0.13687 0.55016 0.0
C1311 C 0.81322 0.148 0.53393 0.0
C1312 C 0.81419 0.15806 0.38351 0.0
C1313 C 0.94474 0.28561 0.53083 0.0
H1314 H 0.98788 0.51741 0.38146 0.0
H1315 H 0.9987 0.3734 0.20305 0.0
H1316 H 0.97154 0.52521 0.26782 0.0
H1317 H 0.98285 0.56124 0.28461 0.0
H1318 H 0.04281 0.58494 0.25757 0.0
H1319 H 0.03182 0.54885 0.24195 0.0
H1320 H 0.9648 0.48141 0.29096 0.0
H1321 H 0.96842 0.49206 0.32982 0.0
H1322 H 0.03334 0.54002 0.32494 0.0
H1323 H 0.02958 0.52903 0.28619 0.0
H1324 H 0.96401 0.43831 0.26823 0.0
H1325 H 0.97164 0.41601 0.29205 0.0
H1326 H 0.03661 0.46654 0.30198 0.0
H1327 H 0.02878 0.48856 0.27862 0.0
H1328 H 0.95547 0.43576 0.21501 0.0
H1329 H 0.95209 0.40114 0.20301 0.0
H1330 H 0.01776 0.42587 0.22372 0.0
H1331 H 0.02095 0.46044 0.23543 0.0
H1332 H 0.96092 0.46871 0.18363 0.0
H1333 H 0.96429 0.45768 0.14633 0.0
H1334 H 0.02993 0.4795 0.16358 0.0
H1335 H 0.02634 0.48985 0.20062 0.0
H1336 H 0.96795 0.5212 0.2118 0.0
H1337 H 0.97387 0.54822 0.18597 0.0
H1338 H 0.03319 0.55232 0.17358 0.0
H1339 H 0.02781 0.52673 0.20042 0.0
O1340 O 0.98681 0.51343 0.36608 0.0
O1341 O 0.02006 0.53792 0.36267 0.0
O1342 O 0.96594 0.37501 0.19713 0.0
O1343 O 0.99959 0.3869 0.20763 0.0
C1344 C 0.99553 0.51216 0.2464 0.0
C1345 C 0.9945 0.498 0.26217 0.0
C1346 C 0.99232 0.47786 0.25559 0.0
C1347 C 0.99034 0.4715 0.23327 0.0
C1348 C 0.99163 0.48568 0.21754 0.0
C1349 C 0.99425 0.50605 0.22405 0.0
C1350 C 0.00082 0.53441 0.2536 0.0
C1351 C 0.98699 0.5383 0.2653 0.0
C1352 C 0.99345 0.55889 0.27479 0.0
C1353 C 0.01382 0.57592 0.27261 0.0
C1354 C 0.02717 0.57212 0.2599 0.0
C1355 C 0.0208 0.55155 0.25066 0.0
C1356 C 0.99684 0.50461 0.28573 0.0
C1357 C 0.97978 0.49422 0.29834 0.0
C1358 C 0.98189 0.50034 0.32051 0.0
C1359 C 0.00115 0.51695 0.33048 0.0
C1360 C 0.01827 0.52723 0.31778 0.0
C1361 C 0.01614 0.52105 0.29562 0.0
C1362 C 0.99581 0.46511 0.2719 0.0
C1363 C 0.97977 0.44462 0.27593 0.0
C1364 C 0.98419 0.43189 0.28939 0.0
C1365 C 0.00473 0.43951 0.29898 0.0
C1366 C 0.02055 0.46031 0.29527 0.0
C1367 C 0.01612 0.47294 0.28189 0.0
C1368 C 0.98839 0.45048 0.22625 0.0
C1369 C 0.96908 0.43363 0.21695 0.0
C1370 C 0.96721 0.41389 0.21012 0.0
C1371 C 0.98466 0.41072 0.21246 0.0
C1372 C 0.00401 0.42774 0.22173 0.0
C1373 C 0.00587 0.44747 0.2285 0.0
C1374 C 0.99347 0.48029 0.19464 0.0
C1375 C 0.97602 0.47125 0.17919 0.0
C1376 C 0.97793 0.46492 0.15805 0.0
C1377 C 0.99742 0.46799 0.15215 0.0
C1378 C 0.01484 0.47728 0.16765 0.0
C1379 C 0.01282 0.48316 0.18876 0.0
C1380 C 0.99723 0.52162 0.20762 0.0
C1381 C 0.98219 0.52798 0.20343 0.0
C1382 C 0.98557 0.54334 0.18859 0.0
C1383 C 0.00402 0.55252 0.17762 0.0
C1384 C 0.01896 0.54595 0.18191 0.0
C1385 C 0.01571 0.53091 0.19693 0.0
C1386 C 0.00333 0.52346 0.35402 0.0
C1387 C 0.98274 0.38978 0.20525 0.0
H1388 H 0.52904 0.53138 0.38561 0.0
H1389 H 0.38434 0.34139 0.20728 0.0
H1390 H 0.51468 0.52865 0.25336 0.0
H1391 H 0.54217 0.56335 0.27067 0.0
H1392 H 0.5791 0.53427 0.29055 0.0
H1393 H 0.55131 0.4994 0.27339 0.0
H1394 H 0.49849 0.51065 0.29357 0.0
H1395 H 0.50972 0.52404 0.33175 0.0
H1396 H 0.52697 0.47512 0.34078 0.0
H1397 H 0.51594 0.4621 0.30244 0.0
H1398 H 0.45832 0.4705 0.28897 0.0
H1399 H 0.43025 0.44874 0.31168 0.0
H1400 H 0.44396 0.39703 0.30237 0.0
H1401 H 0.4721 0.419 0.27967 0.0
H1402 H 0.4362 0.44538 0.24225 0.0
H1403 H 0.40291 0.41245 0.2314 0.0
H1404 H 0.43697 0.37852 0.21993 0.0
H1405 H 0.4701 0.41152 0.23102 0.0
H1406 H 0.46272 0.4729 0.20312 0.0
H1407 H 0.44624 0.45775 0.16638 0.0
H1408 H 0.47863 0.42125 0.16432 0.0
H1409 H 0.49546 0.4369 0.20107 0.0
H1410 H 0.49811 0.50977 0.21077 0.0
H1411 H 0.51607 0.52982 0.1803 0.0
H1412 H 0.55988 0.50615 0.18683 0.0
H1413 H 0.54173 0.48613 0.21747 0.0
O1414 O 0.52468 0.5258 0.37055 0.0
O1415 O 0.53308 0.50022 0.37442 0.0
O1416 O 0.38047 0.37272 0.21812 0.0
O1417 O 0.39725 0.3546 0.21174 0.0
C1418 C 0.51268 0.49022 0.25567 0.0
C1419 C 0.5003 0.4778 0.27193 0.0
C1420 C 0.48164 0.4582 0.26601 0.0
C1421 C 0.47562 0.45081 0.24385 0.0
C1422 C 0.488 0.46319 0.22767 0.0
C1423 C 0.50646 0.48299 0.2335 0.0
C1424 C 0.5311 0.51162 0.26208 0.0
C1425 C 0.52895 0.5299 0.26093 0.0
C1426 C 0.54451 0.54958 0.27098 0.0
C1427 C 0.56256 0.5513 0.28206 0.0
C1428 C 0.56531 0.53328 0.28203 0.0
C1429 C 0.54956 0.51347 0.27222 0.0
C1430 C 0.50661 0.48556 0.29524 0.0
C1431 C 0.50482 0.50295 0.3038 0.0
C1432 C 0.51118 0.51051 0.32563 0.0
C1433 C 0.5193 0.50069 0.33932 0.0
C1434 C 0.52083 0.48308 0.33068 0.0
C1435 C 0.51452 0.47559 0.30882 0.0
C1436 C 0.46722 0.44632 0.28266 0.0
C1437 C 0.45565 0.4547 0.29234 0.0
C1438 C 0.43963 0.44225 0.30532 0.0
C1439 C 0.4348 0.42111 0.30871 0.0
C1440 C 0.44717 0.41317 0.29986 0.0
C1441 C 0.46328 0.4257 0.28699 0.0
C1442 C 0.45549 0.43077 0.23739 0.0
C1443 C 0.43639 0.43078 0.23744 0.0
C1444 C 0.41743 0.41197 0.23121 0.0
C1445 C 0.41728 0.39284 0.22477 0.0
C1446 C 0.43652 0.39295 0.22478 0.0
C1447 C 0.45546 0.41177 0.23107 0.0
C1448 C 0.48037 0.45609 0.20455 0.0
C1449 C 0.46665 0.46205 0.1945 0.0
C1450 C 0.45726 0.45339 0.1736 0.0
C1451 C 0.46119 0.43835 0.16262 0.0
C1452 C 0.47532 0.43276 0.17255 0.0
C1453 C 0.48499 0.44173 0.19337 0.0
C1454 C 0.51858 0.49646 0.21625 0.0
C1455 C 0.51165 0.50901 0.20568 0.0
C1456 C 0.52186 0.52033 0.1882 0.0
C1457 C 0.53929 0.5194 0.18099 0.0
C1458 C 0.54657 0.50727 0.19205 0.0
C1459 C 0.53624 0.49583 0.20951 0.0
C1460 C 0.52611 0.50882 0.36249 0.0
C1461 C 0.39719 0.37284 0.21804 0.0
H1462 H 0.52284 0.0285 0.39304 0.0
H1463 H 0.35788 0.96673 0.2011 0.0
H1464 H 0.54399 0.03556 0.28013 0.0
H1465 H 0.57076 0.03025 0.30019 0.0
H1466 H 0.53877 0.96387 0.27462 0.0
H1467 H 0.51233 0.9693 0.25447 0.0
H1468 H 0.503 0.03681 0.30223 0.0
H1469 H 0.51203 0.03932 0.34137 0.0
H1470 H 0.50446 0.97558 0.33498 0.0
H1471 H 0.49511 0.97315 0.29598 0.0
H1472 H 0.45626 0.0267 0.27384 0.0
H1473 H 0.42841 0.01954 0.29775 0.0
H1474 H 0.42873 0.96197 0.31534 0.0
H1475 H 0.45489 0.96822 0.28988 0.0
H1476 H 0.46108 0.03086 0.22522 0.0
H1477 H 0.42722 0.02565 0.21008 0.0
H1478 H 0.39727 0.9592 0.22504 0.0
H1479 H 0.4313 0.96458 0.23988 0.0
H1480 H 0.49423 0.03516 0.2014 0.0
H1481 H 0.48076 0.03259 0.16343 0.0
H1482 H 0.44751 0.96342 0.16262 0.0
H1483 H 0.46045 0.96611 0.20073 0.0
H1484 H 0.54094 0.03712 0.22622 0.0
H1485 H 0.5645 0.03658 0.19966 0.0
H1486 H 0.52069 0.96929 0.18217 0.0
H1487 H 0.49786 0.96989 0.2091 0.0
O1488 O 0.51915 0.02714 0.37754 0.0
O1489 O 0.51521 0.99438 0.37335 0.0
O1490 O 0.38765 0.00347 0.19951 0.0
O1491 O 0.37146 0.96924 0.20704 0.0
C1492 C 0.50773 0.00433 0.25765 0.0
C1493 C 0.49338 0.00367 0.27247 0.0
C1494 C 0.47392 0.00159 0.2647 0.0
C1495 C 0.46928 0.00112 0.24211 0.0
C1496 C 0.48389 0.00237 0.22738 0.0
C1497 C 0.50305 0.00381 0.2351 0.0
C1498 C 0.5263 0.00282 0.26583 0.0
C1499 C 0.54318 0.02008 0.27836 0.0
C1500 C 0.55835 0.01702 0.28983 0.0
C1501 C 0.55658 0.9966 0.28909 0.0
C1502 C 0.54032 0.9797 0.27557 0.0
C1503 C 0.52537 0.98284 0.26391 0.0
C1504 C 0.49863 0.00492 0.29625 0.0
C1505 C 0.50328 0.02341 0.30934 0.0
C1506 C 0.50845 0.0248 0.33168 0.0
C1507 C 0.50904 0.00768 0.3413 0.0
C1508 C 0.50422 0.98909 0.3281 0.0
C1509 C 0.49898 0.9877 0.30579 0.0
C1510 C 0.4577 0.99803 0.28009 0.0
C1511 C 0.45013 0.01245 0.28273 0.0
C1512 C 0.43436 0.00843 0.29667 0.0
C1513 C 0.42611 0.99009 0.30859 0.0
C1514 C 0.43418 0.97598 0.30616 0.0
C1515 C 0.44949 0.97973 0.29184 0.0
C1516 C 0.4486 0.99809 0.23362 0.0
C1517 C 0.44718 0.01519 0.22518 0.0
C1518 C 0.42783 0.01218 0.21657 0.0
C1519 C 0.40953 0.99199 0.21634 0.0
C1520 C 0.41104 0.97493 0.22496 0.0
C1521 C 0.43043 0.97796 0.2335 0.0
C1522 C 0.47833 0.00082 0.2037 0.0
C1523 C 0.48434 0.01948 0.19287 0.0
C1524 C 0.47665 0.018 0.1713 0.0
C1525 C 0.46321 0.99781 0.1602 0.0
C1526 C 0.45805 0.97913 0.17079 0.0
C1527 C 0.46538 0.98064 0.19248 0.0
C1528 C 0.51764 0.00357 0.21945 0.0
C1529 C 0.53658 0.02228 0.21669 0.0
C1530 C 0.54994 0.02196 0.20144 0.0
C1531 C 0.54456 0.00288 0.1888 0.0
C1532 C 0.52557 0.98419 0.19184 0.0
C1533 C 0.51234 0.98452 0.20706 0.0
C1534 C 0.51464 0.00925 0.36501 0.0
C1535 C 0.38894 0.98867 0.20712 0.0
H1536 H 0.49604 0.04582 0.69548 0.0
H1537 H 0.60433 0.95986 0.84833 0.0
H1538 H 0.49058 0.03958 0.8197 0.0
H1539 H 0.46371 0.04654 0.80305 0.0
H1540 H 0.42391 0.97858 0.78506 0.0
H1541 H 0.45066 0.9718 0.80241 0.0
H1542 H 0.52348 0.04091 0.78468 0.0
H1543 H 0.51665 0.04926 0.74815 0.0
H1544 H 0.46832 0.98294 0.73333 0.0
H1545 H 0.47543 0.97482 0.76986 0.0
H1546 H 0.56208 0.03231 0.80984 0.0
H1547 H 0.58844 0.0377 0.78443 0.0
H1548 H 0.54199 0.98244 0.74356 0.0
H1549 H 0.51577 0.97636 0.76969 0.0
H1550 H 0.56206 0.02353 0.8538 0.0
H1551 H 0.5911 0.01704 0.86357 0.0
H1552 H 0.55731 0.95488 0.82731 0.0
H1553 H 0.52823 0.96146 0.81792 0.0
H1554 H 0.53392 0.0281 0.87765 0.0
H1555 H 0.54597 0.02468 0.91406 0.0
H1556 H 0.51411 0.95568 0.90085 0.0
H1557 H 0.50214 0.95935 0.86423 0.0
H1558 H 0.50465 0.03446 0.86665 0.0
H1559 H 0.48565 0.03774 0.89631 0.0
H1560 H 0.43645 0.97187 0.88058 0.0
H1561 H 0.45658 0.96846 0.85171 0.0
O1562 O 0.49862 0.04213 0.70977 0.0
O1563 O 0.47401 0.00783 0.70292 0.0
O1564 O 0.60969 0.99485 0.86332 0.0
O1565 O 0.59304 0.96281 0.84478 0.0
C1566 C 0.49025 0.00171 0.81822 0.0
C1567 C 0.50368 0.00252 0.80222 0.0
C1568 C 0.52142 0.00038 0.80793 0.0
C1569 C 0.52521 0.99666 0.82957 0.0
C1570 C 0.51207 0.99647 0.84563 0.0
C1571 C 0.49472 0.99928 0.84004 0.0
C1572 C 0.4725 0.00523 0.81213 0.0
C1573 C 0.47579 0.02619 0.8127 0.0
C1574 C 0.46054 0.03011 0.803 0.0
C1575 C 0.44184 0.01313 0.79243 0.0
C1576 C 0.43807 0.99197 0.79318 0.0
C1577 C 0.45331 0.98806 0.80302 0.0
C1578 C 0.49994 0.00729 0.77983 0.0
C1579 C 0.51151 0.02821 0.77345 0.0
C1580 C 0.50754 0.03293 0.75261 0.0
C1581 C 0.49191 0.01677 0.73783 0.0
C1582 C 0.48045 0.99576 0.74431 0.0
C1583 C 0.48446 0.99107 0.76514 0.0
C1584 C 0.53701 0.0038 0.79181 0.0
C1585 C 0.55758 0.0212 0.79554 0.0
C1586 C 0.57257 0.02436 0.78098 0.0
C1587 C 0.56717 0.01048 0.7621 0.0
C1588 C 0.54645 0.9934 0.75797 0.0
C1589 C 0.53152 0.98995 0.77284 0.0
C1590 C 0.54295 0.99285 0.83538 0.0
C1591 C 0.56087 0.00843 0.84818 0.0
C1592 C 0.57748 0.00473 0.85364 0.0
C1593 C 0.5765 0.9854 0.84627 0.0
C1594 C 0.55856 0.96991 0.8333 0.0
C1595 C 0.54194 0.97362 0.8279 0.0
C1596 C 0.51701 0.99396 0.86846 0.0
C1597 C 0.52904 0.01222 0.88286 0.0
C1598 C 0.53589 0.01021 0.90365 0.0
C1599 C 0.53093 0.9899 0.91034 0.0
C1600 C 0.51825 0.97154 0.89608 0.0
C1601 C 0.51133 0.97358 0.87527 0.0
C1602 C 0.48217 0.00116 0.85725 0.0
C1603 C 0.48986 0.02069 0.86975 0.0
C1604 C 0.47875 0.02258 0.88656 0.0
C1605 C 0.45933 0.0051 0.89095 0.0
C1606 C 0.45146 0.98559 0.878 0.0
C1607 C 0.46283 0.98363 0.86136 0.0
C1608 C 0.48759 0.02189 0.71578 0.0
C1609 C 0.59411 0.98139 0.85202 0.0
H1610 H 0.98526 0.47054 0.69142 0.0
H1611 H 0.03255 0.64713 0.87669 0.0
H1612 H 0.9776 0.46295 0.8059 0.0
H1613 H 0.97527 0.42911 0.79284 0.0
H1614 H 0.03961 0.45302 0.81813 0.0
H1615 H 0.042 0.48718 0.83075 0.0
H1616 H 0.97537 0.49227 0.78071 0.0
H1617 H 0.97323 0.48106 0.74228 0.0
H1618 H 0.0401 0.50393 0.74791 0.0
H1619 H 0.04203 0.51528 0.78631 0.0
H1620 H 0.97128 0.5213 0.8017 0.0
H1621 H 0.961 0.54163 0.77822 0.0
H1622 H 0.02647 0.58649 0.77164 0.0
H1623 H 0.03664 0.56573 0.79522 0.0
H1624 H 0.97988 0.5414 0.85002 0.0
H1625 H 0.98012 0.57408 0.86363 0.0
H1626 H 0.04649 0.61114 0.85493 0.0
H1627 H 0.046 0.57828 0.84143 0.0
H1628 H 0.98254 0.51118 0.87998 0.0
H1629 H 0.98217 0.52966 0.91403 0.0
H1630 H 0.04883 0.57351 0.91342 0.0
H1631 H 0.04895 0.55503 0.87922 0.0
H1632 H 0.9782 0.47073 0.8587 0.0
H1633 H 0.97474 0.44798 0.88843 0.0
H1634 H 0.04192 0.48435 0.90449 0.0
H1635 H 0.04523 0.50729 0.8748 0.0
O1636 O 0.9865 0.47526 0.70663 0.0
O1637 O 0.02091 0.48723 0.71038 0.0
O1638 O 0.99774 0.61429 0.87492 0.0
O1639 O 0.03192 0.63403 0.87097 0.0
C1640 C 0.01167 0.49854 0.82557 0.0
C1641 C 0.01022 0.51136 0.80956 0.0
C1642 C 0.01025 0.5305 0.81588 0.0
C1643 C 0.01303 0.53751 0.83805 0.0
C1644 C 0.01467 0.52485 0.85403 0.0
C1645 C 0.01348 0.50513 0.84784 0.0
C1646 C 0.01006 0.47761 0.81896 0.0
C1647 C 0.99124 0.46094 0.80849 0.0
C1648 C 0.98993 0.44167 0.80106 0.0
C1649 C 0.00734 0.43858 0.80429 0.0
C1650 C 0.02598 0.45501 0.81546 0.0
C1651 C 0.02736 0.47447 0.82265 0.0
C1652 C 0.00891 0.50485 0.78617 0.0
C1653 C 0.98958 0.4951 0.77354 0.0
C1654 C 0.98838 0.48859 0.75162 0.0
C1655 C 0.00651 0.49165 0.742 0.0
C1656 C 0.02585 0.50138 0.75479 0.0
C1657 C 0.02701 0.5079 0.7767 0.0
C1658 C 0.00465 0.54184 0.79974 0.0
C1659 C 0.98338 0.53522 0.79475 0.0
C1660 C 0.97757 0.54686 0.78138 0.0
C1661 C 0.99295 0.56554 0.77298 0.0
C1662 C 0.01432 0.57214 0.77792 0.0
C1663 C 0.02014 0.56028 0.79119 0.0
C1664 C 0.01291 0.55756 0.84473 0.0
C1665 C 0.9944 0.55664 0.85092 0.0
C1666 C 0.9946 0.5753 0.85873 0.0
C1667 C 0.01336 0.59523 0.86043 0.0
C1668 C 0.0318 0.59607 0.85386 0.0
C1669 C 0.03156 0.57737 0.84606 0.0
C1670 C 0.01577 0.5318 0.87721 0.0
C1671 C 0.99719 0.52425 0.88767 0.0
C1672 C 0.99701 0.53488 0.90706 0.0
C1673 C 0.01541 0.55324 0.91618 0.0
C1674 C 0.03435 0.55963 0.90655 0.0
C1675 C 0.03451 0.54897 0.88719 0.0
C1676 C 0.01195 0.49053 0.86465 0.0
C1677 C 0.99217 0.47363 0.86853 0.0
C1678 C 0.99021 0.46078 0.88551 0.0
C1679 C 0.00807 0.46451 0.8987 0.0
C1680 C 0.02797 0.48111 0.89442 0.0
C1681 C 0.02987 0.49418 0.87757 0.0
C1682 C 0.00516 0.48462 0.71873 0.0
C1683 C 0.01377 0.61503 0.86919 0.0
H1684 H 0.46875 0.50211 0.6864 0.0
H1685 H 0.63511 0.63246 0.8758 0.0
H1686 H 0.44921 0.49827 0.80014 0.0
H1687 H 0.4247 0.46322 0.78066 0.0
H1688 H 0.46275 0.43741 0.80659 0.0
H1689 H 0.48739 0.47236 0.82496 0.0
H1690 H 0.48658 0.53961 0.77624 0.0
H1691 H 0.47755 0.5285 0.73734 0.0
H1692 H 0.49435 0.47914 0.74537 0.0
H1693 H 0.50359 0.49062 0.78415 0.0
H1694 H 0.53135 0.58045 0.79745 0.0
H1695 H 0.55815 0.59855 0.77187 0.0
H1696 H 0.56979 0.54509 0.76911 0.0
H1697 H 0.54335 0.52738 0.79481 0.0
H1698 H 0.53374 0.58964 0.84078 0.0
H1699 H 0.56761 0.6213 0.85314 0.0
H1700 H 0.59519 0.58055 0.86076 0.0
H1701 H 0.56122 0.54908 0.84832 0.0
H1702 H 0.51423 0.56879 0.87774 0.0
H1703 H 0.53019 0.58017 0.91517 0.0
H1704 H 0.53886 0.52474 0.91572 0.0
H1705 H 0.52494 0.51494 0.87789 0.0
H1706 H 0.4605 0.51918 0.86213 0.0
H1707 H 0.43851 0.49761 0.89016 0.0
H1708 H 0.47082 0.46099 0.89009 0.0
H1709 H 0.49278 0.4827 0.86271 0.0
O1710 O 0.4725 0.5063 0.70179 0.0
O1711 O 0.48121 0.48109 0.70682 0.0
O1712 O 0.60659 0.64047 0.86675 0.0
O1713 O 0.62154 0.62024 0.87088 0.0
C1714 C 0.48728 0.50957 0.82191 0.0
C1715 C 0.50072 0.52251 0.80662 0.0
C1716 C 0.51957 0.54152 0.81374 0.0
C1717 C 0.52463 0.54805 0.83616 0.0
C1718 C 0.51108 0.53536 0.85154 0.0
C1719 C 0.49229 0.51614 0.84436 0.0
C1720 C 0.46987 0.48776 0.81434 0.0
C1721 C 0.45184 0.48482 0.80208 0.0
C1722 C 0.43791 0.46485 0.79096 0.0
C1723 C 0.44197 0.44767 0.79193 0.0
C1724 C 0.45935 0.45041 0.80532 0.0
C1725 C 0.47324 0.47028 0.81622 0.0
C1726 C 0.49549 0.51576 0.78301 0.0
C1727 C 0.4883 0.52642 0.76953 0.0
C1728 C 0.48314 0.52002 0.74734 0.0
C1729 C 0.48514 0.50287 0.73825 0.0
C1730 C 0.49255 0.49235 0.75184 0.0
C1731 C 0.49776 0.49881 0.77401 0.0
C1732 C 0.53545 0.55263 0.798 0.0
C1733 C 0.53976 0.57273 0.79134 0.0
C1734 C 0.55501 0.583 0.77674 0.0
C1735 C 0.56598 0.57317 0.76838 0.0
C1736 C 0.56139 0.55292 0.77497 0.0
C1737 C 0.54637 0.54283 0.78972 0.0
C1738 C 0.54513 0.56717 0.84366 0.0
C1739 C 0.54715 0.58764 0.84511 0.0
C1740 C 0.56649 0.60566 0.85218 0.0
C1741 C 0.58412 0.60346 0.85793 0.0
C1742 C 0.58195 0.58283 0.85645 0.0
C1743 C 0.5626 0.56484 0.84937 0.0
C1744 C 0.51811 0.54084 0.87514 0.0
C1745 C 0.51951 0.55911 0.88606 0.0
C1746 C 0.52853 0.56549 0.90755 0.0
C1747 C 0.53605 0.55352 0.91863 0.0
C1748 C 0.5338 0.53475 0.90774 0.0
C1749 C 0.52534 0.52876 0.88616 0.0
C1750 C 0.47824 0.50251 0.86042 0.0
C1751 C 0.46267 0.50639 0.86814 0.0
C1752 C 0.45008 0.49403 0.88402 0.0
C1753 C 0.45307 0.47774 0.89245 0.0
C1754 C 0.46834 0.47363 0.88417 0.0
C1755 C 0.48081 0.48591 0.86839 0.0
C1756 C 0.47953 0.49604 0.7147 0.0
C1757 C 0.60471 0.62254 0.86544 0.0
H1758 H 0.61612 0.83067 0.70254 0.0
H1759 H 0.6696 0.70431 0.53944 0.0
H1760 H 0.62168 0.8469 0.59066 0.0
H1761 H 0.63348 0.88244 0.60939 0.0
H1762 H 0.69641 0.90367 0.5912 0.0
H1763 H 0.68489 0.86819 0.57381 0.0
H1764 H 0.60966 0.79902 0.61203 0.0
H1765 H 0.60622 0.80759 0.64983 0.0
H1766 H 0.67153 0.85754 0.6564 0.0
H1767 H 0.67482 0.84861 0.6187 0.0
H1768 H 0.61716 0.75699 0.59238 0.0
H1769 H 0.62613 0.73474 0.61462 0.0
H1770 H 0.68591 0.79067 0.63638 0.0
H1771 H 0.67749 0.81223 0.61297 0.0
H1772 H 0.61371 0.75464 0.54442 0.0
H1773 H 0.61555 0.72216 0.53484 0.0
H1774 H 0.68172 0.75588 0.55696 0.0
H1775 H 0.67966 0.78826 0.56631 0.0
H1776 H 0.62074 0.78139 0.51172 0.0
H1777 H 0.62995 0.76862 0.47903 0.0
H1778 H 0.69591 0.81207 0.49853 0.0
H1779 H 0.68646 0.82241 0.53213 0.0
H1780 H 0.62001 0.83626 0.53176 0.0
H1781 H 0.6264 0.86302 0.50541 0.0
H1782 H 0.69183 0.87972 0.50832 0.0
H1783 H 0.68553 0.85427 0.53548 0.0
O1784 O 0.61786 0.82749 0.68766 0.0
O1785 O 0.65148 0.85303 0.69017 0.0
O1786 O 0.63442 0.70036 0.53169 0.0
O1787 O 0.66845 0.71693 0.54299 0.0
C1788 C 0.64699 0.83268 0.57358 0.0
C1789 C 0.64416 0.81807 0.58951 0.0
C1790 C 0.64394 0.79869 0.58376 0.0
C1791 C 0.64535 0.79335 0.56188 0.0
C1792 C 0.6478 0.80768 0.54589 0.0
C1793 C 0.64858 0.82735 0.55169 0.0
C1794 C 0.65238 0.85499 0.58068 0.0
C1795 C 0.63788 0.85943 0.59033 0.0
C1796 C 0.64463 0.8797 0.60098 0.0
C1797 C 0.66594 0.89571 0.60203 0.0
C1798 C 0.67998 0.89156 0.59102 0.0
C1799 C 0.67333 0.87138 0.58068 0.0
C1800 C 0.64239 0.82337 0.61254 0.0
C1801 C 0.6232 0.8118 0.62168 0.0
C1802 C 0.62128 0.81674 0.64326 0.0
C1803 C 0.63858 0.83332 0.65612 0.0
C1804 C 0.65787 0.84474 0.64694 0.0
C1805 C 0.65977 0.83974 0.62537 0.0
C1806 C 0.64669 0.78622 0.60096 0.0
C1807 C 0.63203 0.76444 0.60225 0.0
C1808 C 0.63716 0.75178 0.61504 0.0
C1809 C 0.65693 0.76083 0.62697 0.0
C1810 C 0.6708 0.78304 0.62695 0.0
C1811 C 0.66584 0.79552 0.61389 0.0
C1812 C 0.64654 0.77371 0.55603 0.0
C1813 C 0.62858 0.75495 0.54711 0.0
C1814 C 0.62968 0.73645 0.54169 0.0
C1815 C 0.6488 0.73642 0.54515 0.0
C1816 C 0.66677 0.75534 0.55409 0.0
C1817 C 0.66565 0.77384 0.55945 0.0
C1818 C 0.65291 0.80327 0.52402 0.0
C1819 C 0.63714 0.78832 0.50864 0.0
C1820 C 0.6425 0.7811 0.48989 0.0
C1821 C 0.66377 0.78911 0.48599 0.0
C1822 C 0.6794 0.80498 0.50104 0.0
C1823 C 0.67403 0.8115 0.52007 0.0
C1824 C 0.6522 0.84294 0.53514 0.0
C1825 C 0.63568 0.84573 0.5266 0.0
C1826 C 0.63936 0.86094 0.51148 0.0
C1827 C 0.65965 0.87359 0.50469 0.0
C1828 C 0.67607 0.87058 0.51334 0.0
C1829 C 0.67242 0.85564 0.52857 0.0
C1830 C 0.63645 0.8386 0.679 0.0
C1831 C 0.65003 0.71679 0.53951 0.0
H1832 H 0.20093 0.87366 0.72137 0.0
H1833 H 0.0468 0.69364 0.53734 0.0
H1834 H 0.1959 0.87535 0.58305 0.0
H1835 H 0.22953 0.90733 0.5952 0.0
H1836 H 0.2498 0.86795 0.62799 0.0
H1837 H 0.2165 0.83567 0.61469 0.0
H1838 H 0.17485 0.85868 0.62822 0.0
H1839 H 0.18558 0.87051 0.66678 0.0
H1840 H 0.18863 0.81277 0.67658 0.0
H1841 H 0.17812 0.80125 0.63791 0.0
H1842 H 0.12746 0.81724 0.62422 0.0
H1843 H 0.09837 0.79526 0.64583 0.0
H1844 H 0.10937 0.74196 0.63394 0.0
H1845 H 0.13821 0.76399 0.6121 0.0
H1846 H 0.1052 0.79534 0.57881 0.0
H1847 H 0.0706 0.76441 0.56728 0.0
H1848 H 0.10026 0.72736 0.54951 0.0
H1849 H 0.13471 0.75834 0.56137 0.0
H1850 H 0.13034 0.81901 0.53885 0.0
H1851 H 0.11414 0.80495 0.50179 0.0
H1852 H 0.14956 0.77173 0.49668 0.0
H1853 H 0.16594 0.78615 0.53378 0.0
H1854 H 0.17072 0.85412 0.54246 0.0
H1855 H 0.19314 0.87568 0.51516 0.0
H1856 H 0.23555 0.85136 0.52953 0.0
H1857 H 0.21311 0.83014 0.55722 0.0
O1858 O 0.19669 0.86867 0.70616 0.0
O1859 O 0.19787 0.83865 0.71038 0.0
O1860 O 0.04577 0.72573 0.55177 0.0
O1861 O 0.06027 0.70609 0.54211 0.0
C1862 C 0.18311 0.8339 0.59093 0.0
C1863 C 0.16953 0.82218 0.6068 0.0
C1864 C 0.14969 0.8041 0.60026 0.0
C1865 C 0.14338 0.79783 0.57793 0.0
C1866 C 0.15672 0.80974 0.56215 0.0
C1867 C 0.17659 0.82773 0.56855 0.0
C1868 C 0.20381 0.85314 0.59778 0.0
C1869 C 0.20778 0.87351 0.59235 0.0
C1870 C 0.22691 0.89172 0.59933 0.0
C1871 C 0.24215 0.88992 0.61234 0.0
C1872 C 0.23823 0.8696 0.61786 0.0
C1873 C 0.21927 0.85127 0.61037 0.0
C1874 C 0.17577 0.82915 0.63028 0.0
C1875 C 0.17791 0.84865 0.63872 0.0
C1876 C 0.184 0.85534 0.66076 0.0
C1877 C 0.18797 0.84259 0.67477 0.0
C1878 C 0.18569 0.82298 0.66624 0.0
C1879 C 0.17965 0.81633 0.64418 0.0
C1880 C 0.13484 0.79216 0.61654 0.0
C1881 C 0.12389 0.80098 0.62676 0.0
C1882 C 0.1073 0.7884 0.63912 0.0
C1883 C 0.10141 0.76678 0.64141 0.0
C1884 C 0.1133 0.75845 0.63219 0.0
C1885 C 0.12985 0.77102 0.61985 0.0
C1886 C 0.1224 0.77903 0.57094 0.0
C1887 C 0.10415 0.78049 0.57251 0.0
C1888 C 0.08443 0.76282 0.56587 0.0
C1889 C 0.08266 0.7434 0.55746 0.0
C1890 C 0.10105 0.74206 0.5559 0.0
C1891 C 0.12074 0.75972 0.56262 0.0
C1892 C 0.14928 0.80359 0.53886 0.0
C1893 C 0.13493 0.8091 0.52952 0.0
C1894 C 0.12576 0.80111 0.5084 0.0
C1895 C 0.13061 0.78725 0.49647 0.0
C1896 C 0.14554 0.78233 0.50563 0.0
C1897 C 0.15494 0.79059 0.52668 0.0
C1898 C 0.19022 0.84047 0.55172 0.0
C1899 C 0.18478 0.85334 0.53959 0.0
C1900 C 0.1976 0.8656 0.52395 0.0
C1901 C 0.21613 0.8652 0.52004 0.0
C1902 C 0.22153 0.85224 0.53227 0.0
C1903 C 0.20869 0.84001 0.548 0.0
C1904 C 0.19448 0.84977 0.69818 0.0
C1905 C 0.06176 0.7246 0.55031 0.0
H1906 H 0.20272 0.3548 0.71996 0.0
H1907 H 0.03391 0.3296 0.52922 0.0
H1908 H 0.2154 0.37014 0.58821 0.0
H1909 H 0.24514 0.36748 0.60499 0.0
H1910 H 0.2022 0.30272 0.62004 0.0
H1911 H 0.17277 0.30538 0.60308 0.0
H1912 H 0.19172 0.37218 0.63002 0.0
H1913 H 0.2012 0.37107 0.66832 0.0
H1914 H 0.14979 0.30577 0.66692 0.0
H1915 H 0.14066 0.30701 0.62854 0.0
H1916 H 0.14334 0.36938 0.62864 0.0
H1917 H 0.11722 0.36295 0.65497 0.0
H1918 H 0.07873 0.29802 0.62599 0.0
H1919 H 0.10476 0.30458 0.59986 0.0
H1920 H 0.12928 0.37526 0.58269 0.0
H1921 H 0.09777 0.37695 0.57084 0.0
H1922 H 0.07039 0.313 0.53885 0.0
H1923 H 0.10187 0.31144 0.55104 0.0
H1924 H 0.1528 0.37725 0.53949 0.0
H1925 H 0.13823 0.37719 0.5029 0.0
H1926 H 0.12113 0.31062 0.49005 0.0
H1927 H 0.13607 0.311 0.52655 0.0
H1928 H 0.19347 0.37229 0.53872 0.0
H1929 H 0.21073 0.3676 0.50771 0.0
H1930 H 0.19084 0.30256 0.52328 0.0
H1931 H 0.17311 0.30718 0.55371 0.0
O1932 O 0.19865 0.35491 0.70482 0.0
O1933 O 0.17189 0.32144 0.70331 0.0
O1934 O 0.06119 0.36208 0.5511 0.0
O1935 O 0.04647 0.32931 0.53426 0.0
C1936 C 0.17362 0.34046 0.58753 0.0
C1937 C 0.16015 0.34042 0.60318 0.0
C1938 C 0.14165 0.34082 0.59656 0.0
C1939 C 0.13722 0.34255 0.57449 0.0
C1940 C 0.15092 0.34318 0.55889 0.0
C1941 C 0.16897 0.34175 0.5653 0.0
C1942 C 0.19194 0.33802 0.59463 0.0
C1943 C 0.21253 0.35527 0.59476 0.0
C1944 C 0.22944 0.35375 0.60437 0.0
C1945 C 0.22588 0.33502 0.61411 0.0
C1946 C 0.20533 0.31748 0.61302 0.0
C1947 C 0.18855 0.31893 0.60325 0.0
C1948 C 0.16542 0.33975 0.62658 0.0
C1949 C 0.18251 0.35767 0.63805 0.0
C1950 C 0.18789 0.35699 0.65991 0.0
C1951 C 0.17623 0.33834 0.6707 0.0
C1952 C 0.15907 0.3204 0.65912 0.0
C1953 C 0.15374 0.3211 0.63724 0.0
C1954 C 0.12591 0.33744 0.61237 0.0
C1955 C 0.12923 0.35381 0.62801 0.0
C1956 C 0.11431 0.35013 0.64296 0.0
C1957 C 0.09601 0.32993 0.64262 0.0
C1958 C 0.0928 0.31364 0.62685 0.0
C1959 C 0.10756 0.3174 0.61184 0.0
C1960 C 0.11787 0.34328 0.56763 0.0
C1961 C 0.11641 0.36161 0.5732 0.0
C1962 C 0.09843 0.36254 0.56637 0.0
C1963 C 0.08158 0.34512 0.55383 0.0
C1964 C 0.08308 0.32671 0.54843 0.0
C1965 C 0.10105 0.32579 0.55533 0.0
C1966 C 0.14541 0.34412 0.53565 0.0
C1967 C 0.14632 0.36283 0.52857 0.0
C1968 C 0.13787 0.3627 0.50774 0.0
C1969 C 0.12829 0.34382 0.49367 0.0
C1970 C 0.12854 0.32546 0.50041 0.0
C1971 C 0.13703 0.32562 0.52125 0.0
C1972 C 0.18199 0.34007 0.54848 0.0
C1973 C 0.1931 0.35714 0.53557 0.0
C1974 C 0.20303 0.35445 0.51792 0.0
C1975 C 0.20201 0.33463 0.51288 0.0
C1976 C 0.19164 0.31791 0.52648 0.0
C1977 C 0.18169 0.32059 0.54404 0.0
C1978 C 0.18205 0.33764 0.69391 0.0
C1979 C 0.06251 0.3461 0.54637 0.0
H1980 H 0.02839 0.44943 0.06557 0.0
H1981 H 0.97776 0.38531 0.07251 0.0
H1982 H 0.96721 0.39877 0.10365 0.0
H1983 H 0.97456 0.42827 0.13108 0.0
H1984 H 0.02614 0.49179 0.12461 0.0
H1985 H 0.03402 0.47908 0.09097 0.0
C1986 C 0.01494 0.43835 0.07374 0.0
C1987 C 0.00409 0.41632 0.06683 0.0
C1988 C 0.00915 0.44611 0.09178 0.0
C1989 C 0.98651 0.40233 0.07752 0.0
C1990 C 0.98048 0.41 0.09538 0.0
C1991 C 0.98721 0.43935 0.12198 0.0
C1992 C 0.99981 0.46088 0.13021 0.0
C1993 C 0.99197 0.43179 0.10294 0.0
C1994 C 0.01634 0.47511 0.11854 0.0
C1995 C 0.02087 0.46785 0.09939 0.0
H1996 H 0.568 0.56634 0.09461 0.0
H1997 H 0.62913 0.58954 0.12816 0.0
H1998 H 0.61303 0.56789 0.15851 0.0
H1999 H 0.58131 0.54349 0.17612 0.0
H2000 H 0.5201 0.52084 0.14255 0.0
H2001 H 0.53638 0.54099 0.11161 0.0
C2002 C 0.57772 0.56637 0.10849 0.0
C2003 C 0.59967 0.57882 0.10895 0.0
C2004 C 0.56831 0.55409 0.12591 0.0
C2005 C 0.61219 0.57939 0.12722 0.0
C2006 C 0.60298 0.56719 0.14462 0.0
C2007 C 0.57155 0.54278 0.16194 0.0
C2008 C 0.5495 0.53083 0.16178 0.0
C2009 C 0.58103 0.55454 0.1442 0.0
C2010 C 0.53709 0.53022 0.14329 0.0
C2011 C 0.54638 0.54167 0.12554 0.0
H2012 H 0.41949 0.97818 0.06454 0.0
H2013 H 0.39468 0.01638 0.092 0.0
H2014 H 0.41508 0.02194 0.1266 0.0
H2015 H 0.43968 0.01567 0.14917 0.0
H2016 H 0.46311 0.97568 0.12303 0.0
H2017 H 0.44394 0.97133 0.08766 0.0
C2018 C 0.41876 0.9878 0.07814 0.0
C2019 C 0.40632 0.99756 0.07568 0.0
C2020 C 0.43038 0.99071 0.09809 0.0
C2021 C 0.4048 0.00941 0.09345 0.0
C2022 C 0.41634 0.01247 0.11323 0.0
C2023 C 0.44075 0.00621 0.13561 0.0
C2024 C 0.45288 0.99619 0.13847 0.0
C2025 C 0.42927 0.00332 0.11569 0.0
C2026 C 0.45387 0.98359 0.12103 0.0
C2027 C 0.44289 0.98107 0.1009 0.0
H2028 H 0.42158 0.0324 0.96791 0.0
H2029 H 0.39748 0.96613 0.98088 0.0
H2030 H 0.41293 0.96034 0.94884 0.0
H2031 H 0.43514 0.97485 0.91842 0.0
H2032 H 0.45672 0.0406 0.90428 0.0
H2033 H 0.44065 0.04583 0.93564 0.0
C2034 C 0.41962 0.01665 0.96366 0.0
C2035 C 0.40856 0.99977 0.97685 0.0
C2036 C 0.4283 0.01339 0.94513 0.0
C2037 C 0.40588 0.97938 0.97096 0.0
C2038 C 0.4148 0.9761 0.9527 0.0
C2039 C 0.43605 0.99023 0.9219 0.0
C2040 C 0.44763 0.00741 0.90907 0.0
C2041 C 0.42627 0.99307 0.93979 0.0
C2042 C 0.4486 0.02723 0.91412 0.0
C2043 C 0.43922 0.03023 0.932 0.0
H2044 H 0.98798 0.41345 0.98277 0.0
H2045 H 0.03494 0.39946 0.96069 0.0
H2046 H 0.03882 0.42041 0.92923 0.0
H2047 H 0.02935 0.44356 0.90865 0.0
H2048 H 0.98154 0.45656 0.9304 0.0
H2049 H 0.97757 0.43537 0.96153 0.0
C2050 C 0.99909 0.41514 0.97105 0.0
C2051 C 0.01183 0.40586 0.97431 0.0
C2052 C 0.00111 0.42708 0.95309 0.0
C2053 C 0.02565 0.40733 0.95879 0.0
C2054 C 0.02772 0.41912 0.94079 0.0
C2055 C 0.01812 0.44174 0.92027 0.0
C2056 C 0.00576 0.45155 0.91735 0.0
C2057 C 0.01575 0.42933 0.93795 0.0
C2058 C 0.99109 0.44897 0.93232 0.0
C2059 C 0.98885 0.43692 0.9501 0.0
H2060 H 0.57433 0.59039 0.01585 0.0
H2061 H 0.61256 0.56229 0.99957 0.0
H2062 H 0.59463 0.55087 0.96317 0.0
H2063 H 0.56889 0.54947 0.93574 0.0
H2064 H 0.52816 0.57454 0.95221 0.0
H2065 H 0.54669 0.58703 0.98846 0.0
C2066 C 0.57868 0.58174 0.00432 0.0
C2067 C 0.59478 0.57722 0.01047 0.0
C2068 C 0.56801 0.57483 0.98337 0.0
C2069 C 0.60013 0.56586 0.99538 0.0
C2070 C 0.58995 0.55938 0.97449 0.0
C2071 C 0.56363 0.55723 0.94729 0.0
C2072 C 0.54698 0.56089 0.94104 0.0
C2073 C 0.57389 0.56378 0.96831 0.0
C2074 C 0.54107 0.57169 0.95628 0.0
C2075 C 0.55157 0.57871 0.97714 0.0
H2076 H 0.01763 0.62416 0.98194 0.0
H2077 H 0.97892 0.56872 0.01587 0.0
H2078 H 0.98106 0.54518 0.98725 0.0
H2079 H 0.99489 0.54077 0.95299 0.0
H2080 H 0.03304 0.59667 0.91901 0.0
H2081 H 0.03047 0.61973 0.94737 0.0
C2082 C 0.00985 0.60692 0.98306 0.0
C2083 C 0.9988 0.59808 0.00115 0.0
C2084 C 0.01112 0.59366 0.96662 0.0
C2085 C 0.98793 0.57575 0.00219 0.0
C2086 C 0.98916 0.56237 0.98589 0.0
C2087 C 0.00262 0.558 0.95184 0.0
C2088 C 0.0144 0.56702 0.9341 0.0
C2089 C 0.00091 0.57119 0.96813 0.0
C2090 C 0.02431 0.58937 0.93276 0.0
C2091 C 0.02264 0.60255 0.94882 0.0
H2092 H 0.39144 0.41811 0.95934 0.0
H2093 H 0.45095 0.42832 0.9884 0.0
H2094 H 0.46939 0.45262 0.96145 0.0
H2095 H 0.46911 0.4695 0.92851 0.0
H2096 H 0.41058 0.4591 0.89719 0.0
H2097 H 0.39145 0.43678 0.92615 0.0
C2098 C 0.40844 0.42584 0.95986 0.0
C2099 C 0.41965 0.4212 0.97598 0.0
C2100 C 0.41922 0.43974 0.9438 0.0
C2101 C 0.44173 0.43137 0.9763 0.0
C2102 C 0.45242 0.44535 0.96081 0.0
C2103 C 0.45214 0.46228 0.92794 0.0
C2104 C 0.44126 0.46563 0.91057 0.0
C2105 C 0.44135 0.44932 0.9443 0.0
C2106 C 0.41933 0.4567 0.9104 0.0
C2107 C 0.40839 0.44386 0.9269 0.0
H2108 H 0.58607 0.98212 0.9869 0.0
H2109 H 0.57323 0.02828 0.01913 0.0
H2110 H 0.55012 0.02543 0.98734 0.0
H2111 H 0.53527 0.01105 0.94966 0.0
H2112 H 0.54917 0.9654 0.91759 0.0
H2113 H 0.56957 0.96612 0.9504 0.0
C2114 C 0.57777 0.99114 0.98709 0.0
C2115 C 0.58066 0.00487 0.00537 0.0
C2116 C 0.56474 0.98944 0.96886 0.0
C2117 C 0.57074 0.01729 0.00525 0.0
C2118 C 0.55761 0.01565 0.98714 0.0
C2119 C 0.54266 0.00116 0.94995 0.0
C2120 C 0.54077 0.98825 0.93121 0.0
C2121 C 0.5547 0.00195 0.96875 0.0
C2122 C 0.55018 0.9753 0.93186 0.0
C2123 C 0.56205 0.97588 0.95052 0.0
H2124 H 0.58728 0.97898 0.11533 0.0
H2125 H 0.6007 0.04094 0.0955 0.0
H2126 H 0.58667 0.04743 0.12848 0.0
H2127 H 0.56633 0.03309 0.16041 0.0
H2128 H 0.55391 0.97114 0.17996 0.0
H2129 H 0.57176 0.967 0.1496 0.0
C2130 C 0.58755 0.99411 0.11852 0.0
C2131 C 0.59488 0.00944 0.1031 0.0
C2132 C 0.57929 0.99753 0.13725 0.0
C2133 C 0.59528 0.02902 0.10731 0.0
C2134 C 0.58706 0.03259 0.12603 0.0
C2135 C 0.56793 0.0189 0.15831 0.0
C2136 C 0.55828 0.0022 0.17219 0.0
C2137 C 0.57839 0.01664 0.14077 0.0
C2138 C 0.56057 0.98395 0.16918 0.0
C2139 C 0.57091 0.98161 0.15189 0.0
H2140 H 0.0366 0.6222 0.10917 0.0
H2141 H 0.97048 0.59001 0.08789 0.0
H2142 H 0.96275 0.56704 0.11813 0.0
H2143 H 0.97531 0.55403 0.14855 0.0
H2144 H 0.04138 0.58788 0.17079 0.0
H2145 H 0.04857 0.61208 0.14204 0.0
C2146 C 0.02047 0.6103 0.1113 0.0
C2147 C 0.00416 0.60765 0.09624 0.0
C2148 C 0.01616 0.59724 0.12869 0.0
C2149 C 0.9833 0.59239 0.09933 0.0
C2150 C 0.9789 0.57916 0.11652 0.0
C2151 C 0.99123 0.56695 0.14743 0.0
C2152 C 0.00782 0.56872 0.1616 0.0
C2153 C 0.99527 0.58115 0.13104 0.0
C2154 C 0.02836 0.5856 0.15973 0.0
C2155 C 0.0325 0.59961 0.14339 0.0
H2156 H 0.40256 0.3795 0.08095 0.0
H2157 H 0.4205 0.44124 0.05725 0.0
H2158 H 0.44267 0.45928 0.09104 0.0
H2159 H 0.45673 0.45729 0.12736 0.0
H2160 H 0.43923 0.39546 0.15081 0.0
H2161 H 0.41739 0.37751 0.1169 0.0
C2162 C 0.41169 0.39689 0.08313 0.0
C2163 C 0.41069 0.40914 0.06655 0.0
C2164 C 0.42439 0.40704 0.10248 0.0
C2165 C 0.42159 0.43162 0.06976 0.0
C2166 C 0.4342 0.44188 0.08901 0.0
C2167 C 0.44819 0.43989 0.12493 0.0
C2168 C 0.44953 0.42767 0.14143 0.0
C2169 C 0.43575 0.42974 0.10545 0.0
C2170 C 0.43855 0.40515 0.13817 0.0
C2171 C 0.42594 0.39491 0.11891 0.0
H2172 H 0.70298 0.75616 0.41524 0.0
H2173 H 0.64494 0.74013 0.37834 0.0
H2174 H 0.63456 0.755 0.40871 0.0
H2175 H 0.64248 0.77309 0.44548 0.0
H2176 H 0.69861 0.78437 0.48382 0.0
H2177 H 0.70941 0.77132 0.45302 0.0
C2178 C 0.68808 0.75598 0.41392 0.0
C2179 C 0.67478 0.74731 0.39469 0.0
C2180 C 0.68198 0.76389 0.43161 0.0
C2181 C 0.65536 0.74675 0.39312 0.0
C2182 C 0.64948 0.75528 0.41042 0.0
C2183 C 0.65693 0.77245 0.44733 0.0
C2184 C 0.66984 0.7803 0.46705 0.0
C2185 C 0.66269 0.76392 0.42977 0.0
C2186 C 0.68861 0.77935 0.46876 0.0
C2187 C 0.69476 0.77158 0.45118 0.0
H2188 H 0.28529 0.92451 0.45912 0.0
H2189 H 0.22989 0.90926 0.41764 0.0
H2190 H 0.20747 0.88738 0.44496 0.0
H2191 H 0.20377 0.8719 0.48015 0.0
H2192 H 0.25921 0.88815 0.52239 0.0
H2193 H 0.28151 0.90992 0.4951 0.0
C2194 C 0.2683 0.91616 0.45609 0.0
C2195 C 0.25912 0.91769 0.43621 0.0
C2196 C 0.25559 0.90382 0.47195 0.0
C2197 C 0.23717 0.90775 0.43269 0.0
C2198 C 0.22441 0.89531 0.44828 0.0
C2199 C 0.22072 0.88038 0.48353 0.0
C2200 C 0.22975 0.87833 0.50333 0.0
C2201 C 0.23345 0.8931 0.4679 0.0
C2202 C 0.2518 0.88917 0.5072 0.0
C2203 C 0.26458 0.90181 0.49169 0.0
H2204 H 0.06768 0.34225 0.4164 0.0
H2205 H 0.09154 0.30593 0.38306 0.0
H2206 H 0.11443 0.31044 0.41574 0.0
H2207 H 0.12715 0.32452 0.45403 0.0
H2208 H 0.10208 0.3601 0.48709 0.0
H2209 H 0.08051 0.35654 0.45414 0.0
C2210 C 0.07816 0.33562 0.41627 0.0
C2211 C 0.07858 0.3244 0.39736 0.0
C2212 C 0.09102 0.33819 0.43503 0.0
C2213 C 0.09143 0.31504 0.39745 0.0
C2214 C 0.10444 0.31761 0.41608 0.0
C2215 C 0.11697 0.3315 0.45398 0.0
C2216 C 0.11636 0.34268 0.47299 0.0
C2217 C 0.10433 0.32915 0.435 0.0
C2218 C 0.10318 0.35176 0.47262 0.0
C2219 C 0.09064 0.34953 0.45386 0.0
H2220 H 0.08465 0.30692 0.30891 0.0
H2221 H 0.06362 0.34897 0.28428 0.0
H2222 H 0.07778 0.34818 0.24945 0.0
H2223 H 0.09811 0.3374 0.22693 0.0
H2224 H 0.12171 0.29766 0.2527 0.0
H2225 H 0.10438 0.29537 0.28584 0.0
C2226 C 0.08283 0.3155 0.29568 0.0
C2227 C 0.07288 0.32771 0.29885 0.0
C2228 C 0.09163 0.31551 0.27597 0.0
C2229 C 0.07103 0.33926 0.28195 0.0
C2230 C 0.07922 0.33891 0.26213 0.0
C2231 C 0.09954 0.32828 0.23979 0.0
C2232 C 0.11125 0.31773 0.23717 0.0
C2233 C 0.08993 0.32744 0.2591 0.0
C2234 C 0.11257 0.30569 0.25399 0.0
C2235 C 0.10277 0.30449 0.27309 0.0
H2236 H 0.65691 0.74822 0.30874 0.0
H2237 H 0.69903 0.72813 0.28464 0.0
H2238 H 0.70368 0.74897 0.25299 0.0
H2239 H 0.69665 0.77393 0.23298 0.0
H2240 H 0.65486 0.79448 0.25744 0.0
H2241 H 0.64923 0.77257 0.28824 0.0
C2242 C 0.66711 0.74853 0.29651 0.0
C2243 C 0.67824 0.73746 0.29917 0.0
C2244 C 0.66977 0.76063 0.27853 0.0
C2245 C 0.69092 0.73726 0.28309 0.0
C2246 C 0.69347 0.74902 0.265 0.0
C2247 C 0.68636 0.77363 0.24509 0.0
C2248 C 0.67617 0.78574 0.24295 0.0
C2249 C 0.68323 0.76105 0.26274 0.0
C2250 C 0.66269 0.78506 0.25862 0.0
C2251 C 0.65952 0.77262 0.27626 0.0
H2252 H 0.25513 0.93776 0.33743 0.0
H2253 H 0.25243 0.87658 0.34238 0.0
H2254 H 0.23137 0.86313 0.30764 0.0
H2255 H 0.21465 0.86893 0.2752 0.0
H2256 H 0.2175 0.93001 0.26984 0.0
H2257 H 0.23725 0.94311 0.30552 0.0
C2258 C 0.24991 0.92146 0.33098 0.0
C2259 C 0.25558 0.90833 0.34254 0.0
C2260 C 0.23775 0.91374 0.3109 0.0
C2261 C 0.24846 0.88717 0.33389 0.0
C2262 C 0.23639 0.8794 0.31397 0.0
C2263 C 0.21963 0.88512 0.28184 0.0
C2264 C 0.2147 0.8985 0.26984 0.0
C2265 C 0.23112 0.8926 0.30224 0.0
C2266 C 0.22093 0.91932 0.27882 0.0
C2267 C 0.23235 0.92687 0.29915 0.0
H2268 H 0.65945 0.90562 0.33417 0.0
H2269 H 0.70117 0.96921 0.31584 0.0
H2270 H 0.71029 0.95415 0.28469 0.0
H2271 H 0.7051 0.92281 0.26182 0.0
H2272 H 0.66206 0.85904 0.27898 0.0
H2273 H 0.65492 0.87411 0.31166 0.0
C2274 C 0.6707 0.91606 0.32342 0.0
C2275 C 0.68025 0.93841 0.32755 0.0
C2276 C 0.67561 0.90725 0.30543 0.0
C2277 C 0.69427 0.95194 0.31327 0.0
C2278 C 0.69934 0.94334 0.29542 0.0
C2279 C 0.69445 0.91224 0.27294 0.0
C2280 C 0.68417 0.88989 0.26813 0.0
C2281 C 0.69007 0.92102 0.29132 0.0
C2282 C 0.67009 0.87632 0.2824 0.0
C2283 C 0.66598 0.88492 0.30101 0.0
H2284 H 0.10723 0.7717 0.31504 0.0
H2285 H 0.0431 0.75218 0.29288 0.0
H2286 H 0.05542 0.77307 0.26103 0.0
H2287 H 0.08474 0.7954 0.23858 0.0
H2288 H 0.14851 0.81534 0.26307 0.0
H2289 H 0.13587 0.79566 0.29496 0.0
C2290 C 0.09581 0.77204 0.30342 0.0
C2291 C 0.07422 0.76021 0.30634 0.0
C2292 C 0.10297 0.78405 0.28543 0.0
C2293 C 0.05981 0.76112 0.29107 0.0
C2294 C 0.06687 0.773 0.27282 0.0
C2295 C 0.09585 0.7956 0.25102 0.0
C2296 C 0.11755 0.80644 0.24808 0.0
C2297 C 0.08845 0.78434 0.26969 0.0
C2298 C 0.13171 0.80661 0.26447 0.0
C2299 C 0.12452 0.79549 0.28285 0.0
H2300 H 0.24197 0.3563 0.33831 0.0
H2301 H 0.27412 0.32425 0.31386 0.0
H2302 H 0.25674 0.31918 0.27757 0.0
H2303 H 0.23207 0.32321 0.25303 0.0
H2304 H 0.19796 0.35333 0.27717 0.0
H2305 H 0.21627 0.35972 0.31335 0.0
C2306 C 0.24508 0.34828 0.32493 0.0
C2307 C 0.25888 0.34028 0.3286 0.0
C2308 C 0.23465 0.345 0.30416 0.0
C2309 C 0.26319 0.33016 0.31129 0.0
C2310 C 0.25332 0.32729 0.29059 0.0
C2311 C 0.22839 0.3309 0.26625 0.0
C2312 C 0.21361 0.33769 0.26242 0.0
C2313 C 0.23882 0.33438 0.28691 0.0
C2314 C 0.20941 0.34809 0.27966 0.0
C2315 C 0.21986 0.35174 0.30034 0.0
H2316 H 0.22342 0.30444 0.42505 0.0
H2317 H 0.27899 0.36704 0.43614 0.0
H2318 H 0.26622 0.37369 0.46974 0.0
H2319 H 0.23914 0.36166 0.49608 0.0
H2320 H 0.18364 0.29914 0.48417 0.0
H2321 H 0.19671 0.29254 0.45097 0.0
C2322 C 0.23285 0.31958 0.43476 0.0
C2323 C 0.25219 0.33519 0.42794 0.0
C2324 C 0.22545 0.3233 0.45404 0.0
C2325 C 0.26405 0.35468 0.44088 0.0
C2326 C 0.25675 0.35852 0.46014 0.0
C2327 C 0.22988 0.34664 0.48616 0.0
C2328 C 0.21049 0.33086 0.49278 0.0
C2329 C 0.23744 0.34295 0.46688 0.0
C2330 C 0.19879 0.31141 0.47977 0.0
C2331 C 0.20618 0.30767 0.46065 0.0
H2332 H 0.69572 0.94782 0.4414 0.0
H2333 H 0.63522 0.90745 0.40616 0.0
H2334 H 0.625 0.88251 0.43493 0.0
H2335 H 0.63454 0.87108 0.46883 0.0
H2336 H 0.69448 0.91325 0.50477 0.0
H2337 H 0.70368 0.9385 0.47685 0.0
C2338 C 0.68025 0.93361 0.44009 0.0
C2339 C 0.66632 0.92928 0.42164 0.0
C2340 C 0.67447 0.91959 0.45669 0.0
C2341 C 0.64619 0.91106 0.42026 0.0
C2342 C 0.6404 0.89679 0.43664 0.0
C2343 C 0.64946 0.88595 0.47078 0.0
C2344 C 0.66397 0.88993 0.4887 0.0
C2345 C 0.65457 0.90073 0.45479 0.0
C2346 C 0.68325 0.90935 0.49085 0.0
C2347 C 0.6885 0.92394 0.47496 0.0
H2348 H 0.07156 0.72763 0.41561 0.0
H2349 H 0.08487 0.78861 0.39302 0.0
H2350 H 0.10781 0.80729 0.42634 0.0
H2351 H 0.12367 0.80592 0.46206 0.0
H2352 H 0.11058 0.74463 0.48398 0.0
H2353 H 0.08822 0.7263 0.45053 0.0
C2354 C 0.07985 0.74503 0.41788 0.0
C2355 C 0.0773 0.7569 0.40177 0.0
C2356 C 0.09297 0.7555 0.43688 0.0
C2357 C 0.08713 0.77932 0.40515 0.0
C2358 C 0.10019 0.78993 0.42412 0.0
C2359 C 0.11601 0.78857 0.45936 0.0
C2360 C 0.11876 0.77661 0.47534 0.0
C2361 C 0.10323 0.77816 0.44009 0.0
C2362 C 0.10886 0.75415 0.47175 0.0
C2363 C 0.09594 0.74367 0.45276 0.0
H2364 H 0.36643 0.11564 0.73532 0.0
H2365 H 0.31058 0.05327 0.73375 0.0
H2366 H 0.29842 0.06585 0.76397 0.0
H2367 H 0.30459 0.09379 0.79237 0.0
H2368 H 0.36076 0.15573 0.79473 0.0
H2369 H 0.37177 0.14411 0.76258 0.0
C2370 C 0.35155 0.10479 0.74149 0.0
C2371 C 0.33958 0.08347 0.73231 0.0
C2372 C 0.34468 0.11205 0.75904 0.0
C2373 C 0.32026 0.06973 0.74052 0.0
C2374 C 0.31323 0.0769 0.75783 0.0
C2375 C 0.31903 0.10485 0.78556 0.0
C2376 C 0.33185 0.12555 0.79581 0.0
C2377 C 0.32543 0.09793 0.76737 0.0
C2378 C 0.35071 0.13965 0.78711 0.0
C2379 C 0.357 0.13302 0.76878 0.0
H2380 H 0.95637 0.25848 0.79622 0.0
H2381 H 0.90198 0.24284 0.75282 0.0
H2382 H 0.87877 0.22126 0.77973 0.0
H2383 H 0.87399 0.20687 0.81564 0.0
H2384 H 0.92822 0.2212 0.85871 0.0
H2385 H 0.95155 0.24312 0.83194 0.0
C2386 C 0.93944 0.24996 0.79259 0.0
C2387 C 0.93079 0.25149 0.77237 0.0
C2388 C 0.92623 0.23753 0.80814 0.0
C2389 C 0.90888 0.24135 0.76814 0.0
C2390 C 0.89565 0.22909 0.78351 0.0
C2391 C 0.89093 0.21485 0.81912 0.0
C2392 C 0.89944 0.21262 0.8391 0.0
C2393 C 0.90415 0.22706 0.80355 0.0
C2394 C 0.92138 0.22274 0.84339 0.0
C2395 C 0.93468 0.2353 0.82815 0.0
H2396 H 0.74337 0.6878 0.75468 0.0
H2397 H 0.74897 0.63525 0.72612 0.0
H2398 H 0.77035 0.63657 0.75874 0.0
H2399 H 0.78624 0.652 0.79596 0.0
H2400 H 0.78101 0.70511 0.82391 0.0
H2401 H 0.76113 0.70472 0.7907 0.0
C2402 C 0.74977 0.67704 0.75545 0.0
C2403 C 0.74533 0.66194 0.73791 0.0
C2404 C 0.76201 0.678 0.77411 0.0
C2405 C 0.75268 0.6473 0.73936 0.0
C2406 C 0.76484 0.64806 0.75796 0.0
C2407 C 0.78087 0.66357 0.79463 0.0
C2408 C 0.78499 0.67852 0.8123 0.0
C2409 C 0.76947 0.66325 0.7755 0.0
C2410 C 0.77814 0.69357 0.81043 0.0
C2411 C 0.76663 0.69323 0.79155 0.0
H2412 H 0.76351 0.65346 0.6529 0.0
H2413 H 0.71008 0.65514 0.6228 0.0
H2414 H 0.71985 0.64953 0.5867 0.0
H2415 H 0.74585 0.64771 0.56376 0.0
H2416 H 0.79831 0.64457 0.59449 0.0
H2417 H 0.78678 0.64719 0.63035 0.0
C2418 C 0.75383 0.65223 0.63845 0.0
C2419 C 0.73618 0.65477 0.6404 0.0
C2420 C 0.75954 0.64898 0.6179 0.0
C2421 C 0.72363 0.65299 0.6216 0.0
C2422 C 0.72934 0.65001 0.601 0.0
C2423 C 0.75451 0.64733 0.57836 0.0
C2424 C 0.77292 0.64607 0.57664 0.0
C2425 C 0.74759 0.64854 0.59894 0.0
C2426 C 0.78405 0.64545 0.59554 0.0
C2427 C 0.77751 0.64702 0.616 0.0
H2428 H 0.32021 0.07929 0.64751 0.0
H2429 H 0.36322 0.06047 0.62335 0.0
H2430 H 0.36622 0.07991 0.59092 0.0
H2431 H 0.35842 0.10427 0.57087 0.0
H2432 H 0.31721 0.12513 0.59639 0.0
H2433 H 0.31167 0.10297 0.62687 0.0
C2434 C 0.33014 0.07947 0.63502 0.0
C2435 C 0.34201 0.06922 0.63787 0.0
C2436 C 0.33215 0.09109 0.61679 0.0
C2437 C 0.35446 0.06892 0.62157 0.0
C2438 C 0.35609 0.07992 0.60306 0.0
C2439 C 0.34828 0.10401 0.58313 0.0
C2440 C 0.33827 0.11634 0.58136 0.0
C2441 C 0.34542 0.09151 0.60079 0.0
C2442 C 0.32491 0.11558 0.59722 0.0
C2443 C 0.32178 0.10298 0.6147 0.0
H2444 H 0.91566 0.26084 0.68134 0.0
H2445 H 0.94581 0.22296 0.67089 0.0
H2446 H 0.92679 0.20957 0.63496 0.0
H2447 H 0.90276 0.20968 0.60615 0.0
H2448 H 0.8702 0.24511 0.61755 0.0
H2449 H 0.88944 0.2588 0.6533 0.0
C2450 C 0.91804 0.24964 0.67118 0.0
C2451 C 0.93222 0.24301 0.67869 0.0
C2452 C 0.90679 0.24172 0.65067 0.0
C2453 C 0.93494 0.22827 0.6655 0.0
C2454 C 0.92413 0.22066 0.64493 0.0
C2455 C 0.89943 0.22001 0.61654 0.0
C2456 C 0.88499 0.22633 0.60895 0.0
C2457 C 0.91009 0.22735 0.63732 0.0
C2458 C 0.88146 0.24023 0.62264 0.0
C2459 C 0.89235 0.24796 0.64321 0.0
H2460 H 0.35199 0.28859 0.64766 0.0
H2461 H 0.31112 0.2313 0.67797 0.0
H2462 H 0.3155 0.20919 0.64957 0.0
H2463 H 0.33107 0.20637 0.61604 0.0
H2464 H 0.37234 0.26395 0.58613 0.0
H2465 H 0.368 0.28586 0.61457 0.0
C2466 C 0.34436 0.27128 0.64814 0.0
C2467 C 0.3319 0.26151 0.66513 0.0
C2468 C 0.34703 0.25881 0.63186 0.0
C2469 C 0.3212 0.23906 0.6652 0.0
C2470 C 0.3237 0.22649 0.64902 0.0
C2471 C 0.3392 0.22373 0.61591 0.0
C2472 C 0.35211 0.23358 0.59918 0.0
C2473 C 0.33665 0.2362 0.63232 0.0
C2474 C 0.36258 0.25606 0.59908 0.0
C2475 C 0.35994 0.26856 0.61518 0.0
H2476 H 0.75015 0.11025 0.64992 0.0
H2477 H 0.72586 0.05007 0.61151 0.0
H2478 H 0.74057 0.06912 0.57934 0.0
H2479 H 0.763 0.10278 0.56307 0.0
H2480 H 0.78931 0.16306 0.60208 0.0
H2481 H 0.77097 0.14426 0.63288 0.0
C2482 C 0.74765 0.10144 0.63432 0.0
C2483 C 0.73668 0.07888 0.63283 0.0
C2484 C 0.75674 0.11253 0.61608 0.0
C2485 C 0.73398 0.06748 0.6128 0.0
C2486 C 0.74253 0.07836 0.5945 0.0
C2487 C 0.76471 0.11182 0.57829 0.0
C2488 C 0.77766 0.13432 0.58022 0.0
C2489 C 0.75441 0.10087 0.59609 0.0
C2490 C 0.77934 0.14577 0.6 0.0
C2491 C 0.76894 0.13501 0.61771 0.0
H2492 H 0.90417 0.68991 0.67242 0.0
H2493 H 0.93829 0.66005 0.64794 0.0
H2494 H 0.91861 0.65178 0.61239 0.0
H2495 H 0.89188 0.65309 0.58835 0.0
H2496 H 0.85602 0.68111 0.61281 0.0
H2497 H 0.87599 0.68988 0.64833 0.0
C2498 C 0.90715 0.68158 0.65922 0.0
C2499 C 0.92225 0.67519 0.66268 0.0
C2500 C 0.89545 0.6765 0.63892 0.0
C2501 C 0.92639 0.66471 0.64556 0.0
C2502 C 0.9152 0.66003 0.62528 0.0
C2503 C 0.88815 0.66079 0.60152 0.0
C2504 C 0.87248 0.66643 0.59789 0.0
C2505 C 0.89958 0.66569 0.62183 0.0
C2506 C 0.86818 0.6768 0.61509 0.0
C2507 C 0.87958 0.68182 0.6354 0.0
H2508 H 0.90706 0.64355 0.77127 0.0
H2509 H 0.93193 0.7101 0.75903 0.0
H2510 H 0.91747 0.71607 0.79182 0.0
H2511 H 0.89597 0.70164 0.82287 0.0
H2512 H 0.87315 0.63539 0.83563 0.0
H2513 H 0.88849 0.63007 0.80367 0.0
C2514 C 0.90936 0.65939 0.77579 0.0
C2515 C 0.92034 0.67629 0.76262 0.0
C2516 C 0.90125 0.66273 0.79469 0.0
C2517 C 0.92352 0.69681 0.7689 0.0
C2518 C 0.9152 0.70021 0.78761 0.0
C2519 C 0.89463 0.68614 0.81888 0.0
C2520 C 0.88298 0.66884 0.8315 0.0
C2521 C 0.90382 0.6832 0.80052 0.0
C2522 C 0.88144 0.64885 0.82594 0.0
C2523 C 0.89034 0.64579 0.8077 0.0
H2524 H 0.36191 0.2812 0.7751 0.0
H2525 H 0.29744 0.24565 0.74775 0.0
H2526 H 0.28836 0.22209 0.7775 0.0
H2527 H 0.29931 0.21021 0.80981 0.0
H2528 H 0.36325 0.2476 0.83876 0.0
H2529 H 0.37198 0.27159 0.80963 0.0
C2530 C 0.34585 0.26837 0.77576 0.0
C2531 C 0.33041 0.26505 0.7592 0.0
C2532 C 0.34069 0.25507 0.79303 0.0
C2533 C 0.3096 0.24856 0.76036 0.0
C2534 C 0.30442 0.23503 0.7773 0.0
C2535 C 0.31506 0.22384 0.81012 0.0
C2536 C 0.33064 0.22675 0.82641 0.0
C2537 C 0.31991 0.23797 0.79358 0.0
C2538 C 0.35102 0.24447 0.82618 0.0
C2539 C 0.35603 0.25836 0.80959 0.0
H2540 H 0.76108 0.10966 0.72569 0.0
H2541 H 0.73293 0.04448 0.74364 0.0
H2542 H 0.75435 0.05655 0.77836 0.0
H2543 H 0.77951 0.08567 0.80434 0.0
H2544 H 0.80837 0.15115 0.7869 0.0
H2545 H 0.78846 0.13899 0.7512 0.0
C2546 C 0.75989 0.09821 0.73721 0.0
C2547 C 0.74591 0.07624 0.7321 0.0
C2548 C 0.77233 0.1053 0.75718 0.0
C2549 C 0.74403 0.06145 0.74716 0.0
C2550 C 0.75617 0.06834 0.76701 0.0
C2551 C 0.78184 0.09728 0.79259 0.0
C2552 C 0.79536 0.11929 0.79833 0.0
C2553 C 0.77028 0.09022 0.77224 0.0
C2554 C 0.79785 0.13412 0.78298 0.0
C2555 C 0.78648 0.12719 0.76257 0.0
H2556 H 0.04122 0.34189 0.05198 0.0
H2557 H 0.07192 0.40718 0.08064 0.0
H2558 H 0.09235 0.39902 0.1071 0.0
H2559 H 0.10302 0.37417 0.12063 0.0
H2560 H 0.07563 0.31004 0.0894 0.0
H2561 H 0.05177 0.31659 0.06611 0.0
C2562 C 0.05226 0.35423 0.06416 0.0
C2563 C 0.05518 0.37512 0.06432 0.0
C2564 C 0.06444 0.34959 0.07897 0.0
C2565 C 0.0696 0.39104 0.08007 0.0
C2566 C 0.08122 0.38637 0.09524 0.0
C2567 C 0.09194 0.36161 0.10866 0.0
C2568 C 0.09139 0.34173 0.10667 0.0
C2569 C 0.07905 0.36583 0.09458 0.0
C2570 C 0.07637 0.32545 0.09152 0.0
C2571 C 0.06285 0.32927 0.07797 0.0
H2572 H 0.63107 0.68473 0.07104 0.0
H2573 H 0.67377 0.67645 0.11505 0.0
H2574 H 0.68786 0.713 0.13143 0.0
H2575 H 0.6871 0.74693 0.13429 0.0
H2576 H 0.64337 0.75463 0.09139 0.0
H2577 H 0.63065 0.71879 0.07355 0.0
C2578 C 0.64355 0.69099 0.08412 0.0
C2579 C 0.65134 0.6779 0.09182 0.0
C2580 C 0.65134 0.71191 0.09373 0.0
C2581 C 0.66743 0.68618 0.10887 0.0
C2582 C 0.67552 0.70709 0.11825 0.0
C2583 C 0.67494 0.74078 0.12089 0.0
C2584 C 0.66613 0.75329 0.11416 0.0
C2585 C 0.66747 0.72004 0.11096 0.0
C2586 C 0.65022 0.74514 0.09695 0.0
C2587 C 0.64299 0.7247 0.08672 0.0
H2588 H 0.30487 0.98123 0.04954 0.0
H2589 H 0.31414 0.92659 0.04242 0.0
H2590 H 0.28179 0.90469 0.05982 0.0
H2591 H 0.25313 0.90238 0.07994 0.0
H2592 H 0.24074 0.95549 0.08222 0.0
H2593 H 0.27239 0.97681 0.06427 0.0
C2594 C 0.29951 0.9644 0.05148 0.0
C2595 C 0.31174 0.95544 0.04486 0.0
C2596 C 0.28065 0.95181 0.061 0.0
C2597 C 0.30479 0.93368 0.04729 0.0
C2598 C 0.28641 0.92125 0.05737 0.0
C2599 C 0.2567 0.91832 0.07605 0.0
C2600 C 0.24438 0.92718 0.08319 0.0
C2601 C 0.27443 0.93028 0.06467 0.0
C2602 C 0.25007 0.94822 0.07798 0.0
C2603 C 0.26815 0.96048 0.06738 0.0
H2604 H 0.33926 0.01857 0.98377 0.0
H2605 H 0.3805 0.07117 0.03066 0.0
H2606 H 0.36472 0.09208 0.01825 0.0
H2607 H 0.34059 0.09633 0.99319 0.0
H2608 H 0.30212 0.04592 0.94316 0.0
H2609 H 0.31474 0.02303 0.95825 0.0
C2610 C 0.34467 0.03456 0.99132 0.0
C2611 C 0.36109 0.04328 0.00808 0.0
C2612 C 0.33589 0.04687 0.98367 0.0
C2613 C 0.36802 0.06408 0.01763 0.0
C2614 C 0.35895 0.07607 0.0106 0.0
C2615 C 0.33503 0.0804 0.98542 0.0
C2616 C 0.32056 0.07305 0.96691 0.0
C2617 C 0.34312 0.06776 0.99345 0.0
C2618 C 0.31307 0.05203 0.95757 0.0
C2619 C 0.32049 0.03898 0.96603 0.0
H2620 H 0.94976 0.3035 0.01962 0.0
H2621 H 0.99538 0.31331 0.97368 0.0
H2622 H 0.9711 0.27843 0.95446 0.0
H2623 H 0.93552 0.24685 0.94858 0.0
H2624 H 0.88974 0.23789 0.99401 0.0
H2625 H 0.91544 0.27074 0.01551 0.0
C2626 C 0.95454 0.29788 0.00561 0.0
C2627 C 0.97427 0.31105 0.99799 0.0
C2628 C 0.94034 0.27807 0.99436 0.0
C2629 C 0.98022 0.30351 0.97982 0.0
C2630 C 0.96631 0.2836 0.96876 0.0
C2631 C 0.93133 0.25195 0.96338 0.0
C2632 C 0.91072 0.24018 0.96956 0.0
C2633 C 0.94612 0.271 0.97555 0.0
C2634 C 0.90542 0.24696 0.98871 0.0
C2635 C 0.92011 0.26567 0.00106 0.0
H2636 H 0.69483 0.60754 0.04856 0.0
H2637 H 0.67476 0.65 0.02249 0.0
H2638 H 0.70465 0.66496 1.00043 0.0
H2639 H 0.73523 0.66448 0.98683 0.0
H2640 H 0.75635 0.6233 0.01416 0.0
H2641 H 0.72717 0.60923 0.03714 0.0
C2642 C 0.69704 0.62014 0.03813 0.0
C2643 C 0.68243 0.62747 0.0371 0.0
C2644 C 0.71435 0.62879 0.02552 0.0
C2645 C 0.68572 0.64401 0.02367 0.0
C2646 C 0.7028 0.65255 0.01095 0.0
C2647 C 0.73375 0.65273 0.99808 0.0
C2648 C 0.74792 0.64482 0.99846 0.0
C2649 C 0.71707 0.64489 0.01154 0.0
C2650 C 0.74545 0.62936 0.01305 0.0
C2651 C 0.72882 0.62138 0.02635 0.0
H2652 H 0.97267 0.65854 0.98219 0.0
H2653 H 0.9491 0.66304 0.04355 0.0
H2654 H 0.92441 0.6721 0.02517 0.0
H2655 H 0.90813 0.67658 0.99131 0.0
H2656 H 0.93007 0.66947 0.92984 0.0
H2657 H 0.95689 0.6636 0.94857 0.0
C2658 C 0.9623 0.66175 0.99159 0.0
C2659 C 0.96273 0.66019 0.01421 0.0
C2660 C 0.94781 0.66635 0.98085 0.0
C2661 C 0.94904 0.66414 0.02612 0.0
C2662 C 0.93492 0.66929 0.01562 0.0
C2663 C 0.91902 0.67405 0.98211 0.0
C2664 C 0.91734 0.67358 0.9593 0.0
C2665 C 0.93398 0.67014 0.99296 0.0
C2666 C 0.93118 0.66988 0.94743 0.0
C2667 C 0.94646 0.66653 0.95812 0.0
H2668 H 0.33752 0.31005 0.99253 0.0
H2669 H 0.39555 0.33739 0.96164 0.0
H2670 H 0.38284 0.3039 0.9389 0.0
H2671 H 0.35639 0.26638 0.92964 0.0
H2672 H 0.30025 0.23736 0.96396 0.0
H2673 H 0.31067 0.27211 0.98291 0.0
C2674 C 0.34718 0.30869 0.98057 0.0
C2675 C 0.36737 0.32605 0.97863 0.0
C2676 C 0.3401 0.2891 0.96819 0.0
C2677 C 0.37997 0.32412 0.96338 0.0
C2678 C 0.37272 0.30502 0.95042 0.0
C2679 C 0.34646 0.2675 0.9414 0.0
C2680 C 0.32765 0.24908 0.94546 0.0
C2681 C 0.35302 0.28727 0.95303 0.0
C2682 C 0.31471 0.25119 0.96026 0.0
C2683 C 0.32076 0.27106 0.97131 0.0
H2684 H 0.69728 0.05701 0.03964 0.0
H2685 H 0.65652 0.02119 0.98215 0.0
H2686 H 0.68543 0.03909 0.95957 0.0
H2687 H 0.72199 0.06553 0.95559 0.0
H2688 H 0.7639 0.10073 0.01232 0.0
H2689 H 0.73508 0.08243 0.03569 0.0
C2690 C 0.69481 0.05312 0.02219 0.0
C2691 C 0.67471 0.03783 0.01265 0.0
C2692 C 0.71173 0.06336 0.00911 0.0
C2693 C 0.6718 0.03284 0.99001 0.0
C2694 C 0.68833 0.0431 0.97699 0.0
C2695 C 0.72478 0.06914 0.97309 0.0
C2696 C 0.74489 0.08451 0.98225 0.0
C2697 C 0.70829 0.05847 0.98631 0.0
C2698 C 0.74848 0.08887 0.00495 0.0
C2699 C 0.732 0.07849 0.01827 0.0
H2700 H 0.66049 0.97759 0.05927 0.0
H2701 H 0.59938 0.93372 0.07984 0.0
H2702 H 0.61329 0.91245 0.09578 0.0
H2703 H 0.64245 0.90636 0.10425 0.0
H2704 H 0.7034 0.94829 0.08232 0.0
H2705 H 0.69 0.97061 0.06701 0.0
C2706 C 0.65026 0.96339 0.06727 0.0
C2707 C 0.62891 0.95725 0.06831 0.0
C2708 C 0.65831 0.95096 0.07623 0.0
C2709 C 0.61582 0.93874 0.07862 0.0
C2710 C 0.62376 0.92657 0.08783 0.0
C2711 C 0.65278 0.92011 0.09573 0.0
C2712 C 0.67382 0.92541 0.09416 0.0
C2713 C 0.64491 0.93249 0.08666 0.0
C2714 C 0.68713 0.94383 0.08381 0.0
C2715 C 0.67945 0.95653 0.07496 0.0
H2716 H 0.026 0.70056 0.08066 0.0
H2717 H 0.08033 0.69958 0.05813 0.0
H2718 H 0.10333 0.73481 0.07667 0.0
H2719 H 0.10847 0.76518 0.10047 0.0
H2720 H 0.05508 0.76695 0.12407 0.0
H2721 H 0.03125 0.73233 0.10363 0.0
C2722 C 0.04285 0.70814 0.07967 0.0
C2723 C 0.05137 0.69724 0.06817 0.0
C2724 C 0.05618 0.72852 0.0906 0.0
C2725 C 0.07327 0.70737 0.06705 0.0
C2726 C 0.08651 0.72759 0.07763 0.0
C2727 C 0.09161 0.75792 0.10126 0.0
C2728 C 0.08353 0.76835 0.11404 0.0
C2729 C 0.07818 0.73812 0.0897 0.0
C2730 C 0.06164 0.75913 0.11439 0.0
C2731 C 0.04806 0.73933 0.10278 0.0
H2732 H 0.31312 0.38433 0.02849 0.0
H2733 H 0.31294 0.32607 0.04312 0.0
H2734 H 0.28094 0.31435 0.06171 0.0
H2735 H 0.25541 0.32248 0.07737 0.0
H2736 H 0.25671 0.38177 0.06507 0.0
H2737 H 0.2858 0.39133 0.04217 0.0
C2738 C 0.30572 0.36886 0.03529 0.0
C2739 C 0.31526 0.35603 0.0344 0.0
C2740 C 0.28774 0.36259 0.04674 0.0
C2741 C 0.30581 0.33619 0.04363 0.0
C2742 C 0.28759 0.32953 0.05435 0.0
C2743 C 0.2618 0.33729 0.06934 0.0
C2744 C 0.25399 0.35143 0.073 0.0
C2745 C 0.27877 0.34287 0.05656 0.0
C2746 C 0.26263 0.37073 0.06271 0.0
C2747 C 0.27922 0.37618 0.04956 0.0
H2748 H 0.69825 0.67837 0.396 0.0
H2749 H 0.75465 0.72771 0.37133 0.0
H2750 H 0.77601 0.71787 0.39422 0.0
H2751 H 0.77906 0.69624 0.42183 0.0
H2752 H 0.72352 0.64744 0.44787 0.0
H2753 H 0.70141 0.65583 0.42356 0.0
C2754 C 0.71519 0.68687 0.39555 0.0
C2755 C 0.72478 0.70387 0.38205 0.0
C2756 C 0.72756 0.68128 0.40901 0.0
C2757 C 0.74679 0.71472 0.3817 0.0
C2758 C 0.75908 0.7091 0.39477 0.0
C2759 C 0.76212 0.68758 0.42238 0.0
C2760 C 0.75294 0.67154 0.43689 0.0
C2761 C 0.74967 0.69262 0.40864 0.0
C2762 C 0.73094 0.65994 0.43688 0.0
C2763 C 0.71833 0.66478 0.42306 0.0
H2764 H 0.32041 0.00816 0.45019 0.0
H2765 H 0.32122 0.02561 0.3842 0.0
H2766 H 0.33297 0.06277 0.39744 0.0
H2767 H 0.341 0.08984 0.42791 0.0
H2768 H 0.33715 0.07145 0.49365 0.0
H2769 H 0.3287 0.03513 0.48051 0.0
C2770 C 0.32341 0.02016 0.43872 0.0
C2771 C 0.32004 0.01421 0.41627 0.0
C2772 C 0.32951 0.04129 0.44645 0.0
C2773 C 0.32369 0.02984 0.40157 0.0
C2774 C 0.33039 0.05106 0.40913 0.0
C2775 C 0.33854 0.07787 0.43927 0.0
C2776 C 0.33979 0.08315 0.46165 0.0
C2777 C 0.33306 0.0569 0.43153 0.0
C2778 C 0.33628 0.06759 0.47634 0.0
C2779 C 0.33144 0.04689 0.46884 0.0
H2780 H 0.98479 0.30873 0.39654 0.0
H2781 H 0.9738 0.25301 0.35623 0.0
H2782 H 0.94164 0.23075 0.37388 0.0
H2783 H 0.91799 0.22687 0.40267 0.0
H2784 H 0.92868 0.28316 0.44174 0.0
H2785 H 0.95956 0.30553 0.42261 0.0
C2786 C 0.97525 0.29174 0.39148 0.0
C2787 C 0.98174 0.28245 0.37528 0.0
C2788 C 0.95679 0.27917 0.40155 0.0
C2789 C 0.9691 0.2605 0.36867 0.0
C2790 C 0.95079 0.24778 0.37883 0.0
C2791 C 0.92703 0.24407 0.4068 0.0
C2792 C 0.92118 0.25338 0.42363 0.0
C2793 C 0.94469 0.25687 0.39557 0.0
C2794 C 0.93283 0.27568 0.42875 0.0
C2795 C 0.95053 0.28845 0.4179 0.0
H2796 H 0.04631 0.39695 0.35499 0.0
H2797 H 0.00569 0.34219 0.3102 0.0
H2798 H 0.99056 0.36252 0.29378 0.0
H2799 H 0.99113 0.39685 0.29029 0.0
H2800 H 0.03092 0.45099 0.33621 0.0
H2801 H 0.04414 0.42984 0.35404 0.0
C2802 C 0.03405 0.38941 0.34172 0.0
C2803 C 0.02731 0.36821 0.33363 0.0
C2804 C 0.02537 0.4011 0.33249 0.0
C2805 C 0.01117 0.35852 0.31668 0.0
C2806 C 0.00257 0.37015 0.30725 0.0
C2807 C 0.00232 0.40388 0.3045 0.0
C2808 C 0.01024 0.4256 0.31168 0.0
C2809 C 0.00981 0.39158 0.31479 0.0
C2810 C 0.0249 0.43447 0.33003 0.0
C2811 C 0.03243 0.42237 0.3403 0.0
H2812 H 0.61325 0.63828 0.34043 0.0
H2813 H 0.66398 0.64195 0.30522 0.0
H2814 H 0.64051 0.60614 0.28722 0.0
H2815 H 0.60479 0.57483 0.27964 0.0
H2816 H 0.55386 0.57272 0.31319 0.0
H2817 H 0.57811 0.60689 0.3337 0.0
C2818 C 0.61926 0.63111 0.32907 0.0
C2819 C 0.64029 0.64268 0.32418 0.0
C2820 C 0.60555 0.6109 0.3183 0.0
C2821 C 0.64781 0.63332 0.30922 0.0
C2822 C 0.63439 0.61289 0.29889 0.0
C2823 C 0.59915 0.58186 0.29158 0.0
C2824 C 0.57765 0.57151 0.29486 0.0
C2825 C 0.61312 0.60171 0.30299 0.0
C2826 C 0.57035 0.58066 0.31026 0.0
C2827 C 0.5842 0.6001 0.32203 0.0
H2828 H 0.35852 0.98443 0.37211 0.0
H2829 H 0.33541 0.91668 0.35763 0.0
H2830 H 0.36367 0.92482 0.33431 0.0
H2831 H 0.39396 0.95082 0.31689 0.0
H2832 H 0.41929 0.01871 0.3333 0.0
H2833 H 0.39078 0.01078 0.3564 0.0
C2834 C 0.35974 0.97146 0.36393 0.0
C2835 C 0.34478 0.94997 0.36665 0.0
C2836 C 0.37626 0.97623 0.35062 0.0
C2837 C 0.34671 0.93337 0.35601 0.0
C2838 C 0.36284 0.938 0.34253 0.0
C2839 C 0.39365 0.96399 0.32581 0.0
C2840 C 0.40894 0.98538 0.32317 0.0
C2841 C 0.37761 0.95934 0.33963 0.0
C2842 C 0.40764 0.00208 0.33455 0.0
C2843 C 0.3914 0.99756 0.34798 0.0
H2844 H 0.60272 0.96425 0.3533 0.0
H2845 H 0.65711 0.01386 0.32635 0.0
H2846 H 0.63473 0.02402 0.30509 0.0
H2847 H 0.59934 0.01744 0.29264 0.0
H2848 H 0.54498 0.96623 0.31793 0.0
H2849 H 0.56761 0.95801 0.34133 0.0
C2850 C 0.60968 0.97745 0.34298 0.0
C2851 C 0.6315 0.98833 0.34143 0.0
C2852 C 0.59668 0.98277 0.33034 0.0
C2853 C 0.64032 0.00523 0.32778 0.0
C2854 C 0.62754 0.01102 0.31559 0.0
C2855 C 0.59256 0.0046 0.3034 0.0
C2856 C 0.57062 0.99235 0.30354 0.0
C2857 C 0.60566 0.9997 0.31649 0.0
C2858 C 0.56188 0.97567 0.31743 0.0
C2859 C 0.57478 0.97102 0.33084 0.0
H2860 H 0.06122 0.66533 0.32765 0.0
H2861 H 0.00172 0.6629 0.31368 0.0
H2862 H 0.98799 0.62811 0.29304 0.0
H2863 H 0.99306 0.59842 0.27878 0.0
H2864 H 0.05247 0.60106 0.29413 0.0
H2865 H 0.06608 0.6359 0.31412 0.0
C2866 C 0.04525 0.65731 0.32005 0.0
C2867 C 0.03258 0.66684 0.32219 0.0
C2868 C 0.03744 0.63735 0.30833 0.0
C2869 C 0.01186 0.65599 0.31233 0.0
C2870 C 0.00399 0.63609 0.3005 0.0
C2871 C 0.00893 0.60658 0.28661 0.0
C2872 C 0.02177 0.59721 0.28471 0.0
C2873 C 0.01665 0.6266 0.2984 0.0
C2874 C 0.04237 0.60808 0.29487 0.0
C2875 C 0.05014 0.62795 0.30647 0.0
H2876 H 0.34629 0.35253 0.33598 0.0
H2877 H 0.36097 0.40243 0.38653 0.0
H2878 H 0.39568 0.42435 0.37334 0.0
H2879 H 0.42088 0.43016 0.3458 0.0
H2880 H 0.40542 0.37992 0.2953 0.0
H2881 H 0.37212 0.3572 0.31031 0.0
C2882 C 0.35713 0.36814 0.34424 0.0
C2883 C 0.351 0.37594 0.36207 0.0
C2884 C 0.37693 0.3806 0.33656 0.0
C2885 C 0.36531 0.39608 0.37274 0.0
C2886 C 0.38512 0.40864 0.36515 0.0
C2887 C 0.41025 0.41419 0.33819 0.0
C2888 C 0.41566 0.40676 0.31946 0.0
C2889 C 0.39095 0.40121 0.34682 0.0
C2890 C 0.40182 0.38594 0.3099 0.0
C2891 C 0.38267 0.37299 0.31836 0.0
H2892 H 0.32229 0.31315 0.41565 0.0
H2893 H 0.2716 0.25902 0.3768 0.0
H2894 H 0.28566 0.23618 0.38784 0.0
H2895 H 0.31152 0.23111 0.40915 0.0
H2896 H 0.36052 0.28401 0.45069 0.0
H2897 H 0.34843 0.30791 0.43727 0.0
C2898 C 0.31434 0.29637 0.40959 0.0
C2899 C 0.29584 0.28785 0.39552 0.0
C2900 C 0.32234 0.28312 0.41625 0.0
C2901 C 0.28575 0.26603 0.38782 0.0
C2902 C 0.29382 0.25293 0.39403 0.0
C2903 C 0.31953 0.24783 0.41541 0.0
C2904 C 0.33683 0.25564 0.43102 0.0
C2905 C 0.31197 0.26125 0.40837 0.0
C2906 C 0.34733 0.27755 0.43845 0.0
C2907 C 0.34026 0.2912 0.43099 0.0
H2908 H 0.72709 0.01273 0.433 0.0
H2909 H 0.69337 0.03606 0.39384 0.0
H2910 H 0.71284 0.07131 0.41444 0.0
H2911 H 0.74243 0.09643 0.44084 0.0
H2912 H 0.77501 0.07207 0.48048 0.0
H2913 H 0.75287 0.03619 0.46255 0.0
C2914 C 0.72385 0.02549 0.42917 0.0
C2915 C 0.70914 0.02204 0.4118 0.0
C2916 C 0.73499 0.04552 0.44106 0.0
C2917 C 0.70472 0.03846 0.40717 0.0
C2918 C 0.7159 0.0586 0.41886 0.0
C2919 C 0.74432 0.08316 0.4459 0.0
C2920 C 0.76065 0.087 0.46162 0.0
C2921 C 0.73149 0.06247 0.43548 0.0
C2922 C 0.7629 0.06963 0.46803 0.0
C2923 C 0.75023 0.0491 0.45783 0.0
H2924 H 0.96461 0.70326 0.35777 0.0
H2925 H 0.99592 0.68927 0.41055 0.0
H2926 H 0.9657 0.6782 0.43143 0.0
H2927 H 0.93107 0.67415 0.43595 0.0
H2928 H 0.89829 0.68634 0.38357 0.0
H2929 H 0.92812 0.6963 0.36131 0.0
C2930 C 0.96469 0.6976 0.37374 0.0
C2931 C 0.98266 0.6973 0.38256 0.0
C2932 C 0.94699 0.691 0.38583 0.0
C2933 C 0.98242 0.68979 0.40327 0.0
C2934 C 0.96512 0.68346 0.41535 0.0
C2935 C 0.93047 0.67884 0.41958 0.0
C2936 C 0.91275 0.67969 0.41135 0.0
C2937 C 0.94748 0.68428 0.40696 0.0
C2938 C 0.9119 0.68561 0.39013 0.0
C2939 C 0.92895 0.69134 0.37748 0.0
H2940 H 0.37024 0.01921 0.73703 0.0
H2941 H 0.42468 0.07283 0.71423 0.0
H2942 H 0.44776 0.06596 0.73819 0.0
H2943 H 0.45265 0.04461 0.76508 0.0
H2944 H 0.39867 0.99148 0.78887 0.0
H2945 H 0.37523 0.99817 0.76483 0.0
C2946 C 0.38715 0.02936 0.73725 0.0
C2947 C 0.39567 0.04651 0.72382 0.0
C2948 C 0.40042 0.02544 0.75123 0.0
C2949 C 0.41764 0.05958 0.72444 0.0
C2950 C 0.43089 0.05567 0.73813 0.0
C2951 C 0.43575 0.03472 0.76533 0.0
C2952 C 0.42741 0.0177 0.77889 0.0
C2953 C 0.42246 0.03869 0.7516 0.0
C2954 C 0.40548 0.00465 0.77853 0.0
C2955 C 0.39208 0.00849 0.76483 0.0
H2956 H 1.00033 0.34831 0.78315 0.0
H2957 H 0.97468 0.35504 0.72135 0.0
H2958 H 0.98167 0.39071 0.73426 0.0
H2959 H 0.99299 0.41908 0.76375 0.0
H2960 H 0.01867 0.41277 0.8256 0.0
H2961 H 0.01395 0.37795 0.81199 0.0
C2962 C 0.99648 0.35768 0.77244 0.0
C2963 C 0.98684 0.34894 0.75138 0.0
C2964 C 1.00043 0.3782 0.78002 0.0
C2965 C 0.98203 0.36133 0.73766 0.0
C2966 C 0.98596 0.38173 0.74504 0.0
C2967 C 0.99756 0.41005 0.77422 0.0
C2968 C 0.00593 0.41828 0.79569 0.0
C2969 C 0.99478 0.39013 0.7663 0.0
C2970 C 0.0122 0.40671 0.80899 0.0
C2971 C 0.00942 0.38679 0.80124 0.0
H2972 H 0.63634 0.60462 0.70225 0.0
H2973 H 0.66158 0.66242 0.74519 0.0
H2974 H 0.63047 0.64619 0.76541 0.0
H2975 H 0.5974 0.6147 0.77277 0.0
H2976 H 0.57249 0.55628 0.73099 0.0
H2977 H 0.60205 0.57354 0.70853 0.0
C2978 C 0.63486 0.61373 0.71584 0.0
C2979 C 0.65129 0.63465 0.72224 0.0
C2980 C 0.61705 0.60411 0.72777 0.0
C2981 C 0.64922 0.64622 0.73999 0.0
C2982 C 0.63143 0.63696 0.7516 0.0
C2983 C 0.59825 0.60587 0.75853 0.0
C2984 C 0.58281 0.58425 0.75359 0.0
C2985 C 0.61544 0.61578 0.74591 0.0
C2986 C 0.58431 0.57291 0.73526 0.0
C2987 C 0.60118 0.58277 0.72238 0.0
H2988 H 0.67339 0.69428 0.67615 0.0
H2989 H 0.73554 0.73437 0.65573 0.0
H2990 H 0.72358 0.75666 0.63816 0.0
H2991 H 0.69562 0.76455 0.62824 0.0
H2992 H 0.63381 0.72586 0.64996 0.0
H2993 H 0.64545 0.70295 0.66702 0.0
C2994 C 0.68431 0.70785 0.66779 0.0
C2995 C 0.70533 0.71259 0.66722 0.0
C2996 C 0.6774 0.7208 0.65791 0.0
C2997 C 0.71931 0.73038 0.6565 0.0
C2998 C 0.71248 0.74313 0.6464 0.0
C2999 C 0.68473 0.75136 0.63704 0.0
C3000 C 0.6639 0.74709 0.63795 0.0
C3001 C 0.6916 0.73851 0.64706 0.0
C3002 C 0.64989 0.72947 0.64886 0.0
C3003 C 0.65657 0.71642 0.65871 0.0
H3004 H 0.31911 0.98239 0.63504 0.0
H3005 H 0.29948 0.96696 0.69951 0.0
H3006 H 0.27412 0.93005 0.6857 0.0
H3007 H 0.2547 0.90355 0.65459 0.0
H3008 H 0.27194 0.92029 0.58976 0.0
H3009 H 0.3012 0.95527 0.6043 0.0
C3010 C 0.30959 0.97081 0.64612 0.0
C3011 C 0.3111 0.97731 0.66823 0.0
C3012 C 0.29449 0.94993 0.63792 0.0
C3013 C 0.29851 0.96228 0.6824 0.0
C3014 C 0.28398 0.94122 0.67451 0.0
C3015 C 0.26521 0.91476 0.64378 0.0
C3016 C 0.26141 0.90954 0.62124 0.0
C3017 C 0.28141 0.93506 0.65221 0.0
C3018 C 0.27474 0.92414 0.6072 0.0
C3019 C 0.29137 0.94409 0.6155 0.0
H3020 H 0.02408 0.32104 0.70057 0.0
H3021 H 0.02251 0.26134 0.71219 0.0
H3022 H 0.05215 0.27106 0.69045 0.0
H3023 H 0.07722 0.29536 0.6663 0.0
H3024 H 0.07912 0.35501 0.65442 0.0
H3025 H 0.05087 0.34656 0.67827 0.0
C3026 C 0.03032 0.31022 0.69855 0.0
C3027 C 0.0208 0.29035 0.70791 0.0
C3028 C 0.04742 0.31585 0.68587 0.0
C3029 C 0.0293 0.27666 0.70513 0.0
C3030 C 0.04628 0.28218 0.69263 0.0
C3031 C 0.07145 0.30652 0.66897 0.0
C3032 C 0.08009 0.32568 0.65845 0.0
C3033 C 0.0552 0.30152 0.68261 0.0
C3034 C 0.07276 0.34018 0.66238 0.0
C3035 C 0.05654 0.3353 0.67593 0.0
H3036 H 0.30459 0.32915 0.65148 0.0
H3037 H 0.26556 0.30522 0.70476 0.0
H3038 H 0.23907 0.31155 0.68641 0.0
H3039 H 0.22604 0.32191 0.65441 0.0
H3040 H 0.26467 0.3458 0.60096 0.0
H3041 H 0.29239 0.34167 0.62028 0.0
C3042 C 0.29038 0.32552 0.65917 0.0
C3043 C 0.28701 0.31658 0.6794 0.0
C3044 C 0.2751 0.32908 0.64845 0.0
C3045 C 0.26854 0.31204 0.68917 0.0
C3046 C 0.25334 0.3156 0.67866 0.0
C3047 C 0.24054 0.32618 0.64699 0.0
C3048 C 0.24325 0.33386 0.6262 0.0
C3049 C 0.25629 0.32374 0.65815 0.0
C3050 C 0.26226 0.33982 0.61696 0.0
C3051 C 0.27805 0.33739 0.62796 0.0
H3052 H 0.71623 0.98091 0.66306 0.0
H3053 H 0.66471 0.99003 0.64037 0.0
H3054 H 0.64812 0.95504 0.61932 0.0
H3055 H 0.6493 0.92249 0.60607 0.0
H3056 H 0.701 0.91415 0.63004 0.0
H3057 H 0.71649 0.94829 0.65178 0.0
C3058 C 0.70136 0.97533 0.65353 0.0
C3059 C 0.69186 0.98821 0.65313 0.0
C3060 C 0.69199 0.95535 0.64157 0.0
C3061 C 0.6724 0.98046 0.64094 0.0
C3062 C 0.66294 0.96048 0.62886 0.0
C3063 C 0.66385 0.92812 0.6162 0.0
C3064 C 0.67421 0.916 0.61606 0.0
C3065 C 0.67272 0.94787 0.62887 0.0
C3066 C 0.69301 0.92343 0.62936 0.0
C3067 C 0.70183 0.9429 0.64193 0.0
H3068 H 0.01247 0.69747 0.66728 0.0
H3069 H 0.0268 0.74627 0.71897 0.0
H3070 H 0.06137 0.76885 0.70577 0.0
H3071 H 0.08688 0.77524 0.67843 0.0
H3072 H 0.07153 0.72618 0.62661 0.0
H3073 H 0.03813 0.70311 0.64117 0.0
C3074 C 0.02316 0.71301 0.67576 0.0
C3075 C 0.01701 0.72024 0.69399 0.0
C3076 C 0.04287 0.72585 0.66806 0.0
C3077 C 0.03115 0.74034 0.70487 0.0
C3078 C 0.05088 0.75327 0.69729 0.0
C3079 C 0.07622 0.75948 0.67038 0.0
C3080 C 0.08179 0.75244 0.6515 0.0
C3081 C 0.05681 0.74629 0.67873 0.0
C3082 C 0.06787 0.73189 0.64136 0.0
C3083 C 0.04865 0.71873 0.64957 0.0
H3084 H 0.9475 0.60434 0.71749 0.0
H3085 H 0.99366 0.66262 0.75479 0.0
H3086 H 0.00949 0.64309 0.7716 0.0
H3087 H 0.00862 0.60881 0.77737 0.0
H3088 H 0.96229 0.55094 0.73968 0.0
H3089 H 0.94814 0.57106 0.72126 0.0
C3090 C 0.96104 0.61285 0.72928 0.0
C3091 C 0.9692 0.63486 0.73508 0.0
C3092 C 0.97002 0.60159 0.7388 0.0
C3093 C 0.98699 0.64565 0.7501 0.0
C3094 C 0.99604 0.63449 0.75973 0.0
C3095 C 0.99569 0.60073 0.76482 0.0
C3096 C 0.98639 0.57841 0.75998 0.0
C3097 C 0.9875 0.61238 0.7544 0.0
C3098 C 0.96951 0.56807 0.74386 0.0
C3099 C 0.96143 0.57954 0.73333 0.0
H3100 H 0.40446 0.36206 0.73147 0.0
H3101 H 0.34583 0.35732 0.74753 0.0
H3102 H 0.36517 0.3922 0.76867 0.0
H3103 H 0.39908 0.42334 0.78407 0.0
H3104 H 0.45713 0.42717 0.76723 0.0
H3105 H 0.4376 0.39326 0.74505 0.0
C3106 C 0.3958 0.36857 0.73955 0.0
C3107 C 0.3737 0.35692 0.73806 0.0
C3108 C 0.40696 0.38845 0.7517 0.0
C3109 C 0.36285 0.36589 0.74843 0.0
C3110 C 0.37391 0.38581 0.76058 0.0
C3111 C 0.40738 0.41678 0.77539 0.0
C3112 C 0.42952 0.42755 0.77763 0.0
C3113 C 0.396 0.39714 0.76254 0.0
C3114 C 0.4401 0.41892 0.76623 0.0
C3115 C 0.42896 0.3996 0.75342 0.0
H3116 H 0.63256 0.03122 0.69126 0.0
H3117 H 0.66603 0.02141 0.74518 0.0
H3118 H 0.63711 0.01308 0.76745 0.0
H3119 H 0.60292 0.00993 0.7725 0.0
H3120 H 0.56792 0.01773 0.71894 0.0
H3121 H 0.59658 0.02533 0.69565 0.0
C3122 C 0.63341 0.02712 0.70782 0.0
C3123 C 0.65154 0.02708 0.71651 0.0
C3124 C 0.61644 0.02203 0.72067 0.0
C3125 C 0.65232 0.02157 0.73798 0.0
C3126 C 0.63578 0.01684 0.75084 0.0
C3127 C 0.60159 0.01321 0.75568 0.0
C3128 C 0.58355 0.01349 0.74742 0.0
C3129 C 0.6179 0.01724 0.74246 0.0
C3130 C 0.58175 0.01746 0.72557 0.0
C3131 C 0.59814 0.02186 0.71232 0.0
loop_
_geom_bond_atom_site_label_1
_geom_bond_atom_site_label_2
_geom_bond_distance
_geom_bond_site_symmetry_2
_ccdc_geom_bond_type
Mn0 O5 2.095 1_655 S
Mn0 O15 2.162 . S
Mn0 O16 2.297 1_554 S
Mn0 O24 2.385 1_554 S
Mn0 O25 2.209 1_655 S
Mn0 O26 2.094 . S
Mn1 O6 2.121 . S
Mn1 N8 2.257 . S
Mn1 N17 2.282 . S
Mn1 O25 2.215 . S
Mn1 O27 2.117 . S
C2 O24 1.234 1_455 S
C2 O25 1.283 1_556 S
C3 O15 1.281 . S
C3 O16 1.236 1_554 S
C4 O26 1.240 1_455 S
C4 O27 1.264 . S
O5 Mn0 2.095 1_455 S
O5 C14 1.250 . S
O6 Mn1 2.121 . S
O6 C14 1.258 . S
C7 N8 1.326 . S
C7 C11 1.460 1_554 S
C7 H13 0.929 . S
N8 Mn1 2.257 . S
N8 C7 1.326 . S
N8 C12 1.362 . S
C9 C10 1.258 . S
C9 C12 1.431 1_556 S
C9 C29 1.449 . S
C10 C9 1.258 . S
C10 C11 1.477 . S
C10 H30 0.931 . S
C11 C7 1.460 1_556 S
C11 C10 1.477 . S
C11 H31 0.930 . S
C12 N8 1.362 . S
C12 C9 1.431 1_554 S
C12 C22 1.476 . S
H13 C7 0.929 . S
C14 O5 1.250 . S
C14 O6 1.258 . S
O15 Mn0 2.162 . S
O15 C3 1.281 . S
O16 Mn0 2.297 1_556 S
O16 C3 1.236 1_556 S
N17 Mn1 2.282 . S
N17 C18 1.328 . S
N17 C22 1.318 . S
C18 N17 1.328 . S
C18 C19 1.457 . S
C18 H23 0.929 . S
C19 C18 1.457 . S
C19 C20 1.291 . S
C19 H32 0.931 . S
C20 C19 1.291 . S
C20 C21 1.373 . S
C20 H33 0.906 1_554 S
C21 C20 1.373 . S
C21 C22 1.396 . S
C21 C28 1.403 1_554 S
C22 C12 1.476 . S
C22 N17 1.318 . S
C22 C21 1.396 . S
H23 C18 0.929 . S
O24 Mn0 2.385 1_556 S
O24 C2 1.234 1_655 S
O25 Mn0 2.209 1_455 S
O25 Mn1 2.215 . S
O25 C2 1.283 1_554 S
O26 Mn0 2.094 . S
O26 C4 1.240 1_655 S
O27 Mn1 2.117 . S
O27 C4 1.264 . S
C28 C21 1.403 1_556 S
C28 C29 1.399 . S
C28 H34 0.929 . S
C29 C9 1.449 . S
C29 C28 1.399 . S
C29 H35 0.930 . S
H30 C10 0.931 . S
H31 C11 0.930 . S
H32 C19 0.931 . S
H33 C20 0.906 1_556 S
H34 C28 0.929 . S
H35 C29 0.930 . S
Mn36 O41 2.095 . S
Mn36 O51 2.162 . S
Mn36 O52 2.297 . S
Mn36 O60 2.385 . S
Mn36 O61 2.209 . S
Mn36 O62 2.094 . S
Mn37 O42 2.121 . S
Mn37 N44 2.257 . S
Mn37 N53 2.282 . S
Mn37 O61 2.215 . S
Mn37 O63 2.117 . S
C38 O60 1.234 . S
C38 O61 1.283 . S
C39 O51 1.281 . S
C39 O52 1.236 . S
C40 O62 1.240 . S
C40 O63 1.264 . S
O41 Mn36 2.095 . S
O41 C50 1.250 . S
O42 Mn37 2.121 . S
O42 C50 1.258 . S
C43 N44 1.326 . S
C43 C47 1.460 . S
C43 H49 0.929 . S
N44 Mn37 2.257 . S
N44 C43 1.326 . S
N44 C48 1.362 . S
C45 C46 1.258 . S
C45 C48 1.431 . S
C45 C65 1.449 . S
C46 C45 1.258 . S
C46 C47 1.477 . S
C46 H66 0.931 . S
C47 C43 1.460 . S
C47 C46 1.477 . S
C47 H67 0.930 . S
C48 N44 1.362 . S
C48 C45 1.431 . S
C48 C58 1.476 . S
H49 C43 0.929 . S
C50 O41 1.250 . S
C50 O42 1.258 . S
O51 Mn36 2.162 . S
O51 C39 1.281 . S
O52 Mn36 2.297 . S
O52 C39 1.236 . S
N53 Mn37 2.282 . S
N53 C54 1.328 . S
N53 C58 1.318 . S
C54 N53 1.328 . S
C54 C55 1.457 . S
C54 H59 0.929 . S
C55 C54 1.457 . S
C55 C56 1.291 . S
C55 H68 0.931 . S
C56 C55 1.291 . S
C56 C57 1.373 . S
C56 H69 0.929 . S
C57 C56 1.373 . S
C57 C58 1.396 . S
C57 C64 1.403 . S
C58 C48 1.476 . S
C58 N53 1.318 . S
C58 C57 1.396 . S
H59 C54 0.929 . S
O60 Mn36 2.385 . S
O60 C38 1.234 . S
O61 Mn36 2.209 . S
O61 Mn37 2.215 . S
O61 C38 1.283 . S
O62 Mn36 2.094 . S
O62 C40 1.240 . S
O63 Mn37 2.117 . S
O63 C40 1.264 . S
C64 C57 1.403 . S
C64 C65 1.399 . S
C64 H70 0.929 . S
C65 C45 1.449 . S
C65 C64 1.399 . S
C65 H71 0.930 . S
H66 C46 0.931 . S
H67 C47 0.930 . S
H68 C55 0.931 . S
H69 C56 0.929 . S
H70 C64 0.929 . S
H71 C65 0.930 . S
Mn72 O77 2.095 1_565 S
Mn72 O87 2.162 . S
Mn72 O88 2.297 . S
Mn72 O96 2.385 . S
Mn72 O97 2.209 1_565 S
Mn72 O98 2.094 1_554 S
Mn73 O78 2.121 . S
Mn73 N80 2.257 . S
Mn73 N89 2.282 . S
Mn73 O97 2.215 . S
Mn73 O99 2.086 1_554 S
C74 O96 1.234 1_545 S
C74 O97 1.283 . S
C75 O87 1.281 . S
C75 O88 1.236 . S
C76 O98 1.240 . S
C76 O99 1.280 1_565 S
O77 Mn72 2.095 1_545 S
O77 C86 1.250 . S
O78 Mn73 2.121 . S
O78 C86 1.258 . S
C79 N80 1.326 . S
C79 C83 1.460 . S
C79 H85 0.929 . S
N80 Mn73 2.257 . S
N80 C79 1.326 . S
N80 C84 1.362 . S
C81 C82 1.258 . S
C81 C84 1.431 . S
C81 C101 1.449 . S
C82 C81 1.258 . S
C82 C83 1.477 . S
C82 H102 0.931 . S
C83 C79 1.460 . S
C83 C82 1.477 . S
C83 H103 0.930 . S
C84 N80 1.362 . S
C84 C81 1.431 . S
C84 C94 1.476 . S
H85 C79 0.929 . S
C86 O77 1.250 . S
C86 O78 1.258 . S
O87 Mn72 2.162 . S
O87 C75 1.281 . S
O88 Mn72 2.297 . S
O88 C75 1.236 . S
N89 Mn73 2.282 . S
N89 C90 1.328 . S
N89 C94 1.318 . S
C90 N89 1.328 . S
C90 C91 1.457 . S
C90 H95 0.929 . S
C91 C90 1.457 . S
C91 C92 1.291 . S
C91 H104 0.931 . S
C92 C91 1.291 . S
C92 C93 1.373 . S
C92 H105 0.929 . S
C93 C92 1.373 . S
C93 C94 1.396 . S
C93 C100 1.403 . S
C94 C84 1.476 . S
C94 N89 1.318 . S
C94 C93 1.396 . S
H95 C90 0.929 . S
O96 Mn72 2.385 . S
O96 C74 1.234 1_565 S
O97 Mn72 2.209 1_545 S
O97 Mn73 2.215 . S
O97 C74 1.283 . S
O98 Mn72 2.094 1_556 S
O98 C76 1.240 . S
O99 Mn73 2.086 1_556 S
O99 C76 1.280 1_545 S
C100 C93 1.403 . S
C100 C101 1.399 . S
C100 H106 0.929 . S
C101 C81 1.449 . S
C101 C100 1.399 . S
C101 H107 0.930 . S
H102 C82 0.931 . S
H103 C83 0.930 . S
H104 C91 0.931 . S
H105 C92 0.929 . S
H106 C100 0.929 . S
H107 C101 0.930 . S
Mn108 O113 2.095 1_655 S
Mn108 O123 2.162 . S
Mn108 O124 2.297 . S
Mn108 O132 2.385 . S
Mn108 O133 2.209 1_655 S
Mn108 O134 2.094 . S
Mn109 O114 2.121 . S
Mn109 N116 2.257 . S
Mn109 N125 2.282 . S
Mn109 O133 2.215 . S
Mn109 O135 2.117 . S
C110 O132 1.234 1_455 S
C110 O133 1.283 . S
C111 O123 1.281 . S
C111 O124 1.236 . S
C112 O134 1.240 . S
C112 O135 1.264 1_655 S
O113 Mn108 2.095 1_455 S
O113 C122 1.250 . S
O114 Mn109 2.121 . S
O114 C122 1.258 . S
C115 N116 1.326 . S
C115 C119 1.460 . S
C115 H121 0.929 . S
N116 Mn109 2.257 . S
N116 C115 1.326 . S
N116 C120 1.362 . S
C117 C118 1.258 . S
C117 C120 1.431 . S
C117 C137 1.460 . S
C118 C117 1.258 . S
C118 C119 1.477 . S
C118 H138 0.914 1_554 S
C119 C115 1.460 . S
C119 C118 1.477 . S
C119 H139 0.930 . S
C120 N116 1.362 . S
C120 C117 1.431 . S
C120 C130 1.476 . S
H121 C115 0.929 . S
C122 O113 1.250 . S
C122 O114 1.258 . S
O123 Mn108 2.162 . S
O123 C111 1.281 . S
O124 Mn108 2.297 . S
O124 C111 1.236 . S
N125 Mn109 2.282 . S
N125 C126 1.328 . S
N125 C130 1.318 . S
C126 N125 1.328 . S
C126 C127 1.457 . S
C126 H131 0.929 . S
C127 C126 1.457 . S
C127 C128 1.291 . S
C127 H140 0.931 . S
C128 C127 1.291 . S
C128 C129 1.373 . S
C128 H141 0.929 . S
C129 C128 1.373 . S
C129 C130 1.396 . S
C129 C136 1.403 . S
C130 C120 1.476 . S
C130 N125 1.318 . S
C130 C129 1.396 . S
H131 C126 0.929 . S
O132 Mn108 2.385 . S
O132 C110 1.234 1_655 S
O133 Mn108 2.209 1_455 S
O133 Mn109 2.215 . S
O133 C110 1.283 . S
O134 Mn108 2.094 . S
O134 C112 1.240 . S
O135 Mn109 2.117 . S
O135 C112 1.264 1_455 S
C136 C129 1.403 . S
C136 C137 1.406 . S
C136 H142 0.929 1_554 S
C137 C117 1.460 . S
C137 C136 1.406 . S
C137 H143 0.913 1_554 S
H138 C118 0.914 1_556 S
H139 C119 0.930 . S
H140 C127 0.931 . S
H141 C128 0.929 . S
H142 C136 0.929 1_556 S
H143 C137 0.913 1_556 S
Mn144 O149 2.095 1_554 S
Mn144 O159 2.162 . S
Mn144 O160 2.297 . S
Mn144 O168 2.385 . S
Mn144 O169 2.209 . S
Mn144 O170 2.094 1_554 S
Mn145 O150 2.121 . S
Mn145 N152 2.257 1_556 S
Mn145 N161 2.282 1_556 S
Mn145 O169 2.215 1_556 S
Mn145 O171 2.117 . S
C146 O168 1.234 . S
C146 O169 1.283 . S
C147 O159 1.281 . S
C147 O160 1.236 . S
C148 O170 1.240 . S
C148 O171 1.264 . S
O149 Mn144 2.095 1_556 S
O149 C158 1.250 . S
O150 Mn145 2.121 . S
O150 C158 1.258 . S
C151 N152 1.326 . S
C151 C155 1.460 . S
C151 H157 0.929 . S
N152 Mn145 2.257 1_554 S
N152 C151 1.326 . S
N152 C156 1.362 . S
C153 C154 1.258 . S
C153 C156 1.431 . S
C153 C173 1.449 . S
C154 C153 1.258 . S
C154 C155 1.477 . S
C154 H174 0.931 . S
C155 C151 1.460 . S
C155 C154 1.477 . S
C155 H175 0.930 . S
C156 N152 1.362 . S
C156 C153 1.431 . S
C156 C166 1.476 . S
H157 C151 0.929 . S
C158 O149 1.250 . S
C158 O150 1.258 . S
O159 Mn144 2.162 . S
O159 C147 1.281 . S
O160 Mn144 2.297 . S
O160 C147 1.236 . S
N161 Mn145 2.282 1_554 S
N161 C162 1.328 . S
N161 C166 1.318 . S
C162 N161 1.328 . S
C162 C163 1.457 . S
C162 H167 0.929 . S
C163 C162 1.457 . S
C163 C164 1.291 . S
C163 H176 0.931 . S
C164 C163 1.291 . S
C164 C165 1.373 . S
C164 H177 0.929 . S
C165 C164 1.373 . S
C165 C166 1.396 . S
C165 C172 1.403 . S
C166 C156 1.476 . S
C166 N161 1.318 . S
C166 C165 1.396 . S
H167 C162 0.929 . S
O168 Mn144 2.385 . S
O168 C146 1.234 . S
O169 Mn144 2.209 . S
O169 Mn145 2.215 1_554 S
O169 C146 1.283 . S
O170 Mn144 2.094 1_556 S
O170 C148 1.240 . S
O171 Mn145 2.117 . S
O171 C148 1.264 . S
C172 C165 1.403 . S
C172 C173 1.399 . S
C172 H178 0.929 . S
C173 C153 1.449 . S
C173 C172 1.399 . S
C173 H179 0.930 . S
H174 C154 0.931 . S
H175 C155 0.930 . S
H176 C163 0.931 . S
H177 C164 0.929 . S
H178 C172 0.929 . S
H179 C173 0.930 . S
Mn180 O185 2.095 1_545 S
Mn180 O195 2.162 . S
Mn180 O196 2.297 . S
Mn180 O204 2.385 . S
Mn180 O205 2.209 1_545 S
Mn180 O206 2.094 . S
Mn181 O186 2.121 . S
Mn181 N188 2.257 . S
Mn181 N197 2.282 . S
Mn181 O205 2.215 . S
Mn181 O207 2.117 . S
C182 O204 1.234 . S
C182 O205 1.283 1_545 S
C183 O195 1.281 . S
C183 O196 1.236 . S
C184 O206 1.240 . S
C184 O207 1.264 1_545 S
O185 Mn180 2.095 1_565 S
O185 C194 1.250 . S
O186 Mn181 2.121 . S
O186 C194 1.258 . S
C187 N188 1.326 . S
C187 C191 1.460 . S
C187 H193 0.929 . S
N188 Mn181 2.257 . S
N188 C187 1.326 . S
N188 C192 1.362 . S
C189 C190 1.265 . S
C189 C192 1.431 . S
C189 C209 1.449 1_554 S
C190 C189 1.265 . S
C190 C191 1.492 . S
C190 H210 0.910 1_554 S
C191 C187 1.460 . S
C191 C190 1.492 . S
C191 H211 0.930 . S
C192 N188 1.362 . S
C192 C189 1.431 . S
C192 C202 1.476 . S
H193 C187 0.929 . S
C194 O185 1.250 . S
C194 O186 1.258 . S
O195 Mn180 2.162 . S
O195 C183 1.281 . S
O196 Mn180 2.297 . S
O196 C183 1.236 . S
N197 Mn181 2.282 . S
N197 C198 1.328 . S
N197 C202 1.318 . S
C198 N197 1.328 . S
C198 C199 1.457 . S
C198 H203 0.929 . S
C199 C198 1.457 . S
C199 C200 1.291 . S
C199 H212 0.931 . S
C200 C199 1.291 . S
C200 C201 1.373 . S
C200 H213 0.929 . S
C201 C200 1.373 . S
C201 C202 1.396 . S
C201 C208 1.403 1_554 S
C202 C192 1.476 . S
C202 N197 1.318 . S
C202 C201 1.396 . S
H203 C198 0.929 . S
O204 Mn180 2.385 . S
O204 C182 1.234 . S
O205 Mn180 2.209 1_565 S
O205 Mn181 2.215 . S
O205 C182 1.283 1_565 S
O206 Mn180 2.094 . S
O206 C184 1.240 . S
O207 Mn181 2.117 . S
O207 C184 1.264 1_565 S
C208 C201 1.403 1_556 S
C208 C209 1.399 . S
C208 H214 0.929 . S
C209 C189 1.449 1_556 S
C209 C208 1.399 . S
C209 H215 0.930 . S
H210 C190 0.910 1_556 S
H211 C191 0.930 . S
H212 C199 0.931 . S
H213 C200 0.929 . S
H214 C208 0.929 . S
H215 C209 0.930 . S
Mn216 O221 2.095 . S
Mn216 O231 2.162 . S
Mn216 O232 2.297 . S
Mn216 O240 2.385 . S
Mn216 O241 2.209 . S
Mn216 O242 2.094 . S
Mn217 O222 2.121 . S
Mn217 N224 2.257 . S
Mn217 N233 2.282 . S
Mn217 O241 2.215 . S
Mn217 O243 2.117 . S
C218 O240 1.234 . S
C218 O241 1.283 . S
C219 O231 1.281 . S
C219 O232 1.236 . S
C220 O242 1.240 . S
C220 O243 1.264 . S
O221 Mn216 2.095 . S
O221 C230 1.250 . S
O222 Mn217 2.121 . S
O222 C230 1.258 . S
C223 N224 1.326 . S
C223 C227 1.460 . S
C223 H229 0.929 . S
N224 Mn217 2.257 . S
N224 C223 1.326 . S
N224 C228 1.362 . S
C225 C226 1.258 . S
C225 C228 1.431 . S
C225 C245 1.449 . S
C226 C225 1.258 . S
C226 C227 1.477 . S
C226 H246 0.931 . S
C227 C223 1.460 . S
C227 C226 1.477 . S
C227 H247 0.930 . S
C228 N224 1.362 . S
C228 C225 1.431 . S
C228 C238 1.476 . S
H229 C223 0.929 . S
C230 O221 1.250 . S
C230 O222 1.258 . S
O231 Mn216 2.162 . S
O231 C219 1.281 . S
O232 Mn216 2.297 . S
O232 C219 1.236 . S
N233 Mn217 2.282 . S
N233 C234 1.328 . S
N233 C238 1.318 . S
C234 N233 1.328 . S
C234 C235 1.457 . S
C234 H239 0.929 . S
C235 C234 1.457 . S
C235 C236 1.291 . S
C235 H248 0.931 . S
C236 C235 1.291 . S
C236 C237 1.373 . S
C236 H249 0.929 . S
C237 C236 1.373 . S
C237 C238 1.396 . S
C237 C244 1.403 . S
C238 C228 1.476 . S
C238 N233 1.318 . S
C238 C237 1.396 . S
H239 C234 0.929 . S
O240 Mn216 2.385 . S
O240 C218 1.234 . S
O241 Mn216 2.209 . S
O241 Mn217 2.215 . S
O241 C218 1.283 . S
O242 Mn216 2.094 . S
O242 C220 1.240 . S
O243 Mn217 2.117 . S
O243 C220 1.264 . S
C244 C237 1.403 . S
C244 C245 1.399 . S
C244 H250 0.929 . S
C245 C225 1.449 . S
C245 C244 1.399 . S
C245 H251 0.930 . S
H246 C226 0.931 . S
H247 C227 0.930 . S
H248 C235 0.931 . S
H249 C236 0.929 . S
H250 C244 0.929 . S
H251 C245 0.930 . S
Mn252 O257 2.095 . S
Mn252 O267 2.162 . S
Mn252 O268 2.297 . S
Mn252 O276 2.385 . S
Mn252 O277 2.209 . S
Mn252 O278 2.094 . S
Mn253 O258 2.121 . S
Mn253 N260 2.257 . S
Mn253 N269 2.282 . S
Mn253 O277 2.215 . S
Mn253 O279 2.117 . S
C254 O276 1.234 . S
C254 O277 1.283 . S
C255 O267 1.281 1_545 S
C255 O268 1.236 1_545 S
C256 O278 1.240 . S
C256 O279 1.264 . S
O257 Mn252 2.095 . S
O257 C266 1.250 . S
O258 Mn253 2.121 . S
O258 C266 1.258 . S
C259 N260 1.326 . S
C259 C263 1.460 . S
C259 H265 0.929 . S
N260 Mn253 2.257 . S
N260 C259 1.326 . S
N260 C264 1.362 . S
C261 C262 1.258 . S
C261 C264 1.431 . S
C261 C281 1.449 . S
C262 C261 1.258 . S
C262 C263 1.477 . S
C262 H282 0.931 . S
C263 C259 1.460 . S
C263 C262 1.477 . S
C263 H283 0.930 . S
C264 N260 1.362 . S
C264 C261 1.431 . S
C264 C274 1.476 . S
H265 C259 0.929 . S
C266 O257 1.250 . S
C266 O258 1.258 . S
O267 Mn252 2.162 . S
O267 C255 1.281 1_565 S
O268 Mn252 2.297 . S
O268 C255 1.236 1_565 S
N269 Mn253 2.282 . S
N269 C270 1.328 . S
N269 C274 1.318 . S
C270 N269 1.328 . S
C270 C271 1.457 . S
C270 H275 0.929 . S
C271 C270 1.457 . S
C271 C272 1.291 . S
C271 H284 0.931 . S
C272 C271 1.291 . S
C272 C273 1.373 . S
C272 H285 0.929 . S
C273 C272 1.373 . S
C273 C274 1.396 . S
C273 C280 1.403 . S
C274 C264 1.476 . S
C274 N269 1.318 . S
C274 C273 1.396 . S
H275 C270 0.929 . S
O276 Mn252 2.385 . S
O276 C254 1.234 . S
O277 Mn252 2.209 . S
O277 Mn253 2.215 . S
O277 C254 1.283 . S
O278 Mn252 2.094 . S
O278 C256 1.240 . S
O279 Mn253 2.117 . S
O279 C256 1.264 . S
C280 C273 1.403 . S
C280 C281 1.399 . S
C280 H286 0.929 . S
C281 C261 1.449 . S
C281 C280 1.399 . S
C281 H287 0.930 . S
H282 C262 0.931 . S
H283 C263 0.930 . S
H284 C271 0.931 . S
H285 C272 0.929 . S
H286 C280 0.929 . S
H287 C281 0.930 . S
Mn288 O293 2.095 . S
Mn288 O303 2.162 . S
Mn288 O304 2.297 . S
Mn288 O312 2.385 . S
Mn288 O313 2.209 . S
Mn288 O314 2.094 . S
Mn289 O294 2.121 . S
Mn289 N296 2.257 . S
Mn289 N305 2.282 . S
Mn289 O313 2.215 . S
Mn289 O315 2.117 . S
C290 O312 1.234 . S
C290 O313 1.283 . S
C291 O303 1.281 . S
C291 O304 1.236 . S
C292 O314 1.240 . S
C292 O315 1.264 . S
O293 Mn288 2.095 . S
O293 C302 1.250 . S
O294 Mn289 2.121 . S
O294 C302 1.258 . S
C295 N296 1.326 . S
C295 C299 1.460 . S
C295 H301 0.929 . S
N296 Mn289 2.257 . S
N296 C295 1.326 . S
N296 C300 1.362 . S
C297 C298 1.258 . S
C297 C300 1.431 . S
C297 C317 1.449 . S
C298 C297 1.258 . S
C298 C299 1.477 . S
C298 H318 0.931 . S
C299 C295 1.460 . S
C299 C298 1.477 . S
C299 H319 0.930 . S
C300 N296 1.362 . S
C300 C297 1.431 . S
C300 C310 1.476 . S
H301 C295 0.929 . S
C302 O293 1.250 . S
C302 O294 1.258 . S
O303 Mn288 2.162 . S
O303 C291 1.281 . S
O304 Mn288 2.297 . S
O304 C291 1.236 . S
N305 Mn289 2.282 . S
N305 C306 1.328 . S
N305 C310 1.318 . S
C306 N305 1.328 . S
C306 C307 1.457 . S
C306 H311 0.929 . S
C307 C306 1.457 . S
C307 C308 1.291 . S
C307 H320 0.931 . S
C308 C307 1.291 . S
C308 C309 1.373 . S
C308 H321 0.929 . S
C309 C308 1.373 . S
C309 C310 1.396 . S
C309 C316 1.403 . S
C310 C300 1.476 . S
C310 N305 1.318 . S
C310 C309 1.396 . S
H311 C306 0.929 . S
O312 Mn288 2.385 . S
O312 C290 1.234 . S
O313 Mn288 2.209 . S
O313 Mn289 2.215 . S
O313 C290 1.283 . S
O314 Mn288 2.094 . S
O314 C292 1.240 . S
O315 Mn289 2.117 . S
O315 C292 1.264 . S
C316 C309 1.403 . S
C316 C317 1.399 . S
C316 H322 0.929 . S
C317 C297 1.449 . S
C317 C316 1.399 . S
C317 H323 0.930 . S
H318 C298 0.931 . S
H319 C299 0.930 . S
H320 C307 0.931 . S
H321 C308 0.929 . S
H322 C316 0.929 . S
H323 C317 0.930 . S
Mn324 O329 2.095 . S
Mn324 O339 2.162 . S
Mn324 O340 2.297 . S
Mn324 O348 2.385 . S
Mn324 O349 2.209 . S
Mn324 O350 2.094 . S
Mn325 O330 2.121 . S
Mn325 N332 2.257 . S
Mn325 N341 2.282 . S
Mn325 O349 2.215 . S
Mn325 O351 2.117 . S
C326 O348 1.234 . S
C326 O349 1.283 . S
C327 O339 1.281 . S
C327 O340 1.236 . S
C328 O350 1.240 . S
C328 O351 1.264 . S
O329 Mn324 2.095 . S
O329 C338 1.243 1_565 S
O330 Mn325 2.121 . S
O330 C338 1.236 1_565 S
C331 N332 1.326 . S
C331 C335 1.460 1_565 S
C331 H337 0.929 1_565 S
N332 Mn325 2.257 . S
N332 C331 1.326 . S
N332 C336 1.362 . S
C333 C334 1.258 . S
C333 C336 1.431 . S
C333 C353 1.449 . S
C334 C333 1.258 . S
C334 C335 1.477 1_565 S
C334 H354 0.931 . S
C335 C331 1.460 1_545 S
C335 C334 1.477 1_545 S
C335 H355 0.930 . S
C336 N332 1.362 . S
C336 C333 1.431 . S
C336 C346 1.476 . S
H337 C331 0.929 1_545 S
C338 O329 1.243 1_545 S
C338 O330 1.236 1_545 S
O339 Mn324 2.162 . S
O339 C327 1.281 . S
O340 Mn324 2.297 . S
O340 C327 1.236 . S
N341 Mn325 2.282 . S
N341 C342 1.328 . S
N341 C346 1.318 . S
C342 N341 1.328 . S
C342 C343 1.457 . S
C342 H347 0.929 . S
C343 C342 1.457 . S
C343 C344 1.291 . S
C343 H356 0.931 . S
C344 C343 1.291 . S
C344 C345 1.373 . S
C344 H357 0.929 . S
C345 C344 1.373 . S
C345 C346 1.396 . S
C345 C352 1.403 . S
C346 C336 1.476 . S
C346 N341 1.318 . S
C346 C345 1.396 . S
H347 C342 0.929 . S
O348 Mn324 2.385 . S
O348 C326 1.234 . S
O349 Mn324 2.209 . S
O349 Mn325 2.215 . S
O349 C326 1.283 . S
O350 Mn324 2.094 . S
O350 C328 1.240 . S
O351 Mn325 2.117 . S
O351 C328 1.264 . S
C352 C345 1.403 . S
C352 C353 1.399 . S
C352 H358 0.929 . S
C353 C333 1.449 . S
C353 C352 1.399 . S
C353 H359 0.930 . S
H354 C334 0.931 . S
H355 C335 0.930 . S
H356 C343 0.931 . S
H357 C344 0.929 . S
H358 C352 0.929 . S
H359 C353 0.930 . S
Mn360 O365 2.095 . S
Mn360 O375 2.162 . S
Mn360 O376 2.297 . S
Mn360 O384 2.385 . S
Mn360 O385 2.209 . S
Mn360 O386 2.094 . S
Mn361 O366 2.121 . S
Mn361 N368 2.257 . S
Mn361 N377 2.282 . S
Mn361 O385 2.215 . S
Mn361 O387 2.117 . S
C362 O384 1.234 . S
C362 O385 1.283 . S
C363 O375 1.281 . S
C363 O376 1.236 . S
C364 O386 1.240 . S
C364 O387 1.264 . S
O365 Mn360 2.095 . S
O365 C374 1.250 . S
O366 Mn361 2.121 . S
O366 C374 1.258 . S
C367 N368 1.326 . S
C367 C371 1.460 . S
C367 H373 0.929 . S
N368 Mn361 2.257 . S
N368 C367 1.326 . S
N368 C372 1.362 . S
C369 C370 1.258 . S
C369 C372 1.431 . S
C369 C389 1.449 . S
C370 C369 1.258 . S
C370 C371 1.477 . S
C370 H390 0.931 . S
C371 C367 1.460 . S
C371 C370 1.477 . S
C371 H391 0.930 . S
C372 N368 1.362 . S
C372 C369 1.431 . S
C372 C382 1.476 . S
H373 C367 0.929 . S
C374 O365 1.250 . S
C374 O366 1.258 . S
O375 Mn360 2.162 . S
O375 C363 1.281 . S
O376 Mn360 2.297 . S
O376 C363 1.236 . S
N377 Mn361 2.282 . S
N377 C378 1.328 . S
N377 C382 1.318 . S
C378 N377 1.328 . S
C378 C379 1.457 . S
C378 H383 0.929 . S
C379 C378 1.457 . S
C379 C380 1.291 . S
C379 H392 0.931 . S
C380 C379 1.291 . S
C380 C381 1.373 . S
C380 H393 0.929 . S
C381 C380 1.373 . S
C381 C382 1.396 . S
C381 C388 1.403 . S
C382 C372 1.476 . S
C382 N377 1.318 . S
C382 C381 1.396 . S
H383 C378 0.929 . S
O384 Mn360 2.385 . S
O384 C362 1.234 . S
O385 Mn360 2.209 . S
O385 Mn361 2.215 . S
O385 C362 1.283 . S
O386 Mn360 2.094 . S
O386 C364 1.240 . S
O387 Mn361 2.117 . S
O387 C364 1.264 . S
C388 C381 1.403 . S
C388 C389 1.399 . S
C388 H394 0.929 . S
C389 C369 1.449 . S
C389 C388 1.399 . S
C389 H395 0.930 . S
H390 C370 0.931 . S
H391 C371 0.930 . S
H392 C379 0.931 . S
H393 C380 0.929 . S
H394 C388 0.929 . S
H395 C389 0.930 . S
Mn396 O401 2.095 . S
Mn396 O411 2.162 . S
Mn396 O412 2.297 . S
Mn396 O420 2.385 . S
Mn396 O421 2.209 . S
Mn396 O422 2.094 . S
Mn397 O402 2.121 . S
Mn397 N404 2.257 . S
Mn397 N413 2.282 . S
Mn397 O421 2.215 . S
Mn397 O423 2.117 . S
C398 O420 1.234 . S
C398 O421 1.283 . S
C399 O411 1.281 . S
C399 O412 1.236 . S
C400 O422 1.240 . S
C400 O423 1.264 . S
O401 Mn396 2.095 . S
O401 C410 1.250 . S
O402 Mn397 2.121 . S
O402 C410 1.258 . S
C403 N404 1.326 . S
C403 C407 1.460 . S
C403 H409 0.929 . S
N404 Mn397 2.257 . S
N404 C403 1.326 . S
N404 C408 1.362 . S
C405 C406 1.258 . S
C405 C408 1.431 . S
C405 C425 1.449 . S
C406 C405 1.258 . S
C406 C407 1.477 . S
C406 H426 0.931 . S
C407 C403 1.460 . S
C407 C406 1.477 . S
C407 H427 0.930 . S
C408 N404 1.362 . S
C408 C405 1.431 . S
C408 C418 1.476 . S
H409 C403 0.929 . S
C410 O401 1.250 . S
C410 O402 1.258 . S
O411 Mn396 2.162 . S
O411 C399 1.281 . S
O412 Mn396 2.297 . S
O412 C399 1.236 . S
N413 Mn397 2.282 . S
N413 C414 1.328 . S
N413 C418 1.318 . S
C414 N413 1.328 . S
C414 C415 1.457 . S
C414 H419 0.929 . S
C415 C414 1.457 . S
C415 C416 1.291 . S
C415 H428 0.931 . S
C416 C415 1.291 . S
C416 C417 1.373 . S
C416 H429 0.929 . S
C417 C416 1.373 . S
C417 C418 1.396 . S
C417 C424 1.403 . S
C418 C408 1.476 . S
C418 N413 1.318 . S
C418 C417 1.396 . S
H419 C414 0.929 . S
O420 Mn396 2.385 . S
O420 C398 1.234 . S
O421 Mn396 2.209 . S
O421 Mn397 2.215 . S
O421 C398 1.283 . S
O422 Mn396 2.094 . S
O422 C400 1.240 . S
O423 Mn397 2.117 . S
O423 C400 1.264 . S
C424 C417 1.403 . S
C424 C425 1.399 . S
C424 H430 0.929 . S
C425 C405 1.449 . S
C425 C424 1.399 . S
C425 H431 0.930 . S
H426 C406 0.931 . S
H427 C407 0.930 . S
H428 C415 0.931 . S
H429 C416 0.929 . S
H430 C424 0.929 . S
H431 C425 0.930 . S
Mn432 O437 2.095 . S
Mn432 O447 2.162 . S
Mn432 O448 2.297 . S
Mn432 O456 2.385 . S
Mn432 O457 2.209 . S
Mn432 O458 2.094 . S
Mn433 O438 2.121 . S
Mn433 N440 2.257 . S
Mn433 N449 2.282 . S
Mn433 O457 2.215 . S
Mn433 O459 2.117 . S
C434 O456 1.234 . S
C434 O457 1.283 . S
C435 O447 1.257 1_565 S
C435 O448 1.227 1_565 S
C436 O458 1.240 . S
C436 O459 1.264 . S
O437 Mn432 2.095 . S
O437 C446 1.250 . S
O438 Mn433 2.121 . S
O438 C446 1.258 . S
C439 N440 1.326 . S
C439 C443 1.460 . S
C439 H445 0.929 . S
N440 Mn433 2.257 . S
N440 C439 1.326 . S
N440 C444 1.362 . S
C441 C442 1.258 . S
C441 C444 1.431 . S
C441 C461 1.449 . S
C442 C441 1.258 . S
C442 C443 1.477 . S
C442 H462 0.931 . S
C443 C439 1.460 . S
C443 C442 1.477 . S
C443 H463 0.930 . S
C444 N440 1.362 . S
C444 C441 1.431 . S
C444 C454 1.476 . S
H445 C439 0.929 . S
C446 O437 1.250 . S
C446 O438 1.258 . S
O447 Mn432 2.162 . S
O447 C435 1.257 1_545 S
O448 Mn432 2.297 . S
O448 C435 1.227 1_545 S
N449 Mn433 2.282 . S
N449 C450 1.328 . S
N449 C454 1.318 . S
C450 N449 1.328 . S
C450 C451 1.457 . S
C450 H455 0.929 . S
C451 C450 1.457 . S
C451 C452 1.291 . S
C451 H464 0.931 . S
C452 C451 1.291 . S
C452 C453 1.373 . S
C452 H465 0.929 . S
C453 C452 1.373 . S
C453 C454 1.396 . S
C453 C460 1.403 . S
C454 C444 1.476 . S
C454 N449 1.318 . S
C454 C453 1.396 . S
H455 C450 0.929 . S
O456 Mn432 2.385 . S
O456 C434 1.234 . S
O457 Mn432 2.209 . S
O457 Mn433 2.215 . S
O457 C434 1.283 . S
O458 Mn432 2.094 . S
O458 C436 1.240 . S
O459 Mn433 2.117 . S
O459 C436 1.264 . S
C460 C453 1.403 . S
C460 C461 1.399 . S
C460 H466 0.929 . S
C461 C441 1.449 . S
C461 C460 1.399 . S
C461 H467 0.930 . S
H462 C442 0.931 . S
H463 C443 0.930 . S
H464 C451 0.931 . S
H465 C452 0.929 . S
H466 C460 0.929 . S
H467 C461 0.930 . S
Mn468 O473 2.095 . S
Mn468 O483 2.162 . S
Mn468 O484 2.297 . S
Mn468 O492 2.385 . S
Mn468 O493 2.209 . S
Mn468 O494 2.094 . S
Mn469 O474 2.121 . S
Mn469 N476 2.257 . S
Mn469 N485 2.282 . S
Mn469 O493 2.215 . S
Mn469 O495 2.117 . S
C470 O492 1.234 . S
C470 O493 1.283 . S
C471 O483 1.281 . S
C471 O484 1.236 . S
C472 O494 1.240 . S
C472 O495 1.264 . S
O473 Mn468 2.095 . S
O473 C482 1.250 . S
O474 Mn469 2.121 . S
O474 C482 1.258 . S
C475 N476 1.326 . S
C475 C479 1.460 . S
C475 H481 0.929 1_655 S
N476 Mn469 2.257 . S
N476 C475 1.326 . S
N476 C480 1.362 . S
C477 C478 1.258 . S
C477 C480 1.431 . S
C477 C497 1.449 . S
C478 C477 1.258 . S
C478 C479 1.477 . S
C478 H498 0.931 . S
C479 C475 1.460 . S
C479 C478 1.477 . S
C479 H499 0.930 1_655 S
C480 N476 1.362 . S
C480 C477 1.431 . S
C480 C490 1.476 . S
H481 C475 0.929 1_455 S
C482 O473 1.250 . S
C482 O474 1.258 . S
O483 Mn468 2.162 . S
O483 C471 1.281 . S
O484 Mn468 2.297 . S
O484 C471 1.236 . S
N485 Mn469 2.282 . S
N485 C486 1.328 . S
N485 C490 1.318 . S
C486 N485 1.328 . S
C486 C487 1.457 . S
C486 H491 0.929 . S
C487 C486 1.457 . S
C487 C488 1.291 . S
C487 H500 0.931 . S
C488 C487 1.291 . S
C488 C489 1.373 . S
C488 H501 0.929 . S
C489 C488 1.373 . S
C489 C490 1.396 . S
C489 C496 1.403 . S
C490 C480 1.476 . S
C490 N485 1.318 . S
C490 C489 1.396 . S
H491 C486 0.929 . S
O492 Mn468 2.385 . S
O492 C470 1.234 . S
O493 Mn468 2.209 . S
O493 Mn469 2.215 . S
O493 C470 1.283 . S
O494 Mn468 2.094 . S
O494 C472 1.240 . S
O495 Mn469 2.117 . S
O495 C472 1.264 . S
C496 C489 1.403 . S
C496 C497 1.399 . S
C496 H502 0.929 . S
C497 C477 1.449 . S
C497 C496 1.399 . S
C497 H503 0.930 . S
H498 C478 0.931 . S
H499 C479 0.930 1_455 S
H500 C487 0.931 . S
H501 C488 0.929 . S
H502 C496 0.929 . S
H503 C497 0.930 . S
Mn504 O509 2.095 . S
Mn504 O519 2.162 . S
Mn504 O520 2.297 . S
Mn504 O528 2.385 . S
Mn504 O529 2.209 . S
Mn504 O530 2.094 . S
Mn505 O510 2.121 . S
Mn505 N512 2.257 . S
Mn505 N521 2.282 . S
Mn505 O529 2.215 . S
Mn505 O531 2.117 . S
C506 O528 1.234 . S
C506 O529 1.283 . S
C507 O519 1.281 . S
C507 O520 1.236 . S
C508 O530 1.240 . S
C508 O531 1.264 . S
O509 Mn504 2.095 . S
O509 C518 1.250 . S
O510 Mn505 2.121 . S
O510 C518 1.258 . S
C511 N512 1.326 . S
C511 C515 1.460 . S
C511 H517 0.929 . S
N512 Mn505 2.257 . S
N512 C511 1.326 . S
N512 C516 1.362 . S
C513 C514 1.258 . S
C513 C516 1.431 . S
C513 C533 1.449 . S
C514 C513 1.258 . S
C514 C515 1.477 . S
C514 H534 0.931 . S
C515 C511 1.460 . S
C515 C514 1.477 . S
C515 H535 0.930 . S
C516 N512 1.362 . S
C516 C513 1.431 . S
C516 C526 1.476 . S
H517 C511 0.929 . S
C518 O509 1.250 . S
C518 O510 1.258 . S
O519 Mn504 2.162 . S
O519 C507 1.281 . S
O520 Mn504 2.297 . S
O520 C507 1.236 . S
N521 Mn505 2.282 . S
N521 C522 1.328 . S
N521 C526 1.318 . S
C522 N521 1.328 . S
C522 C523 1.457 . S
C522 H527 0.929 . S
C523 C522 1.457 . S
C523 C524 1.291 . S
C523 H536 0.931 . S
C524 C523 1.291 . S
C524 C525 1.373 . S
C524 H537 0.929 . S
C525 C524 1.373 . S
C525 C526 1.396 . S
C525 C532 1.403 . S
C526 C516 1.476 . S
C526 N521 1.318 . S
C526 C525 1.396 . S
H527 C522 0.929 . S
O528 Mn504 2.385 . S
O528 C506 1.234 . S
O529 Mn504 2.209 . S
O529 Mn505 2.215 . S
O529 C506 1.283 . S
O530 Mn504 2.094 . S
O530 C508 1.240 . S
O531 Mn505 2.117 . S
O531 C508 1.264 . S
C532 C525 1.403 . S
C532 C533 1.399 . S
C532 H538 0.929 . S
C533 C513 1.449 . S
C533 C532 1.399 . S
C533 H539 0.930 . S
H534 C514 0.931 . S
H535 C515 0.930 . S
H536 C523 0.931 . S
H537 C524 0.929 . S
H538 C532 0.929 . S
H539 C533 0.930 . S
Mn540 O545 2.095 . S
Mn540 O555 2.162 . S
Mn540 O556 2.297 . S
Mn540 O564 2.385 . S
Mn540 O565 2.209 . S
Mn540 O566 2.094 . S
Mn541 O546 2.121 . S
Mn541 N548 2.257 . S
Mn541 N557 2.282 . S
Mn541 O565 2.215 . S
Mn541 O567 2.117 . S
C542 O564 1.234 . S
C542 O565 1.283 . S
C543 O555 1.281 . S
C543 O556 1.236 . S
C544 O566 1.240 . S
C544 O567 1.264 . S
O545 Mn540 2.095 . S
O545 C554 1.250 . S
O546 Mn541 2.121 . S
O546 C554 1.258 . S
C547 N548 1.326 . S
C547 C551 1.460 . S
C547 H553 0.929 . S
N548 Mn541 2.257 . S
N548 C547 1.326 . S
N548 C552 1.362 . S
C549 C550 1.258 . S
C549 C552 1.431 . S
C549 C569 1.449 . S
C550 C549 1.258 . S
C550 C551 1.477 . S
C550 H570 0.931 . S
C551 C547 1.460 . S
C551 C550 1.477 . S
C551 H571 0.930 . S
C552 N548 1.362 . S
C552 C549 1.431 . S
C552 C562 1.476 . S
H553 C547 0.929 . S
C554 O545 1.250 . S
C554 O546 1.258 . S
O555 Mn540 2.162 . S
O555 C543 1.281 . S
O556 Mn540 2.297 . S
O556 C543 1.236 . S
N557 Mn541 2.282 . S
N557 C558 1.328 . S
N557 C562 1.318 . S
C558 N557 1.328 . S
C558 C559 1.457 . S
C558 H563 0.929 . S
C559 C558 1.457 . S
C559 C560 1.291 . S
C559 H572 0.931 . S
C560 C559 1.291 . S
C560 C561 1.373 . S
C560 H573 0.929 . S
C561 C560 1.373 . S
C561 C562 1.396 . S
C561 C568 1.403 . S
C562 C552 1.476 . S
C562 N557 1.318 . S
C562 C561 1.396 . S
H563 C558 0.929 . S
O564 Mn540 2.385 . S
O564 C542 1.234 . S
O565 Mn540 2.209 . S
O565 Mn541 2.215 . S
O565 C542 1.283 . S
O566 Mn540 2.094 . S
O566 C544 1.240 . S
O567 Mn541 2.117 . S
O567 C544 1.264 . S
C568 C561 1.403 . S
C568 C569 1.399 . S
C568 H574 0.929 . S
C569 C549 1.449 . S
C569 C568 1.399 . S
C569 H575 0.930 . S
H570 C550 0.931 . S
H571 C551 0.930 . S
H572 C559 0.931 . S
H573 C560 0.929 . S
H574 C568 0.929 . S
H575 C569 0.930 . S
Mn576 O581 2.095 . S
Mn576 O591 2.162 . S
Mn576 O592 2.297 . S
Mn576 O600 2.385 . S
Mn576 O601 2.209 . S
Mn576 O602 2.094 . S
Mn577 O582 2.121 . S
Mn577 N584 2.257 . S
Mn577 N593 2.282 . S
Mn577 O601 2.215 . S
Mn577 O603 2.117 . S
C578 O600 1.234 . S
C578 O601 1.283 . S
C579 O591 1.281 . S
C579 O592 1.236 . S
C580 O602 1.240 . S
C580 O603 1.264 . S
O581 Mn576 2.095 . S
O581 C590 1.250 . S
O582 Mn577 2.121 . S
O582 C590 1.258 . S
C583 N584 1.326 . S
C583 C587 1.460 . S
C583 H589 0.929 1_545 S
N584 Mn577 2.257 . S
N584 C583 1.326 . S
N584 C588 1.362 . S
C585 C586 1.258 . S
C585 C588 1.431 . S
C585 C605 1.449 . S
C586 C585 1.258 . S
C586 C587 1.477 . S
C586 H606 0.931 . S
C587 C583 1.460 . S
C587 C586 1.477 . S
C587 H607 0.930 1_545 S
C588 N584 1.362 . S
C588 C585 1.431 . S
C588 C598 1.476 . S
H589 C583 0.929 1_565 S
C590 O581 1.250 . S
C590 O582 1.258 . S
O591 Mn576 2.162 . S
O591 C579 1.281 . S
O592 Mn576 2.297 . S
O592 C579 1.236 . S
N593 Mn577 2.282 . S
N593 C594 1.328 . S
N593 C598 1.318 . S
C594 N593 1.328 . S
C594 C595 1.457 . S
C594 H599 0.929 . S
C595 C594 1.457 . S
C595 C596 1.291 . S
C595 H608 0.931 . S
C596 C595 1.291 . S
C596 C597 1.373 . S
C596 H609 0.929 . S
C597 C596 1.373 . S
C597 C598 1.396 . S
C597 C604 1.403 . S
C598 C588 1.476 . S
C598 N593 1.318 . S
C598 C597 1.396 . S
H599 C594 0.929 . S
O600 Mn576 2.385 . S
O600 C578 1.234 . S
O601 Mn576 2.209 . S
O601 Mn577 2.215 . S
O601 C578 1.283 . S
O602 Mn576 2.094 . S
O602 C580 1.240 . S
O603 Mn577 2.117 . S
O603 C580 1.264 . S
C604 C597 1.403 . S
C604 C605 1.399 . S
C604 H610 0.929 . S
C605 C585 1.449 . S
C605 C604 1.399 . S
C605 H611 0.930 . S
H606 C586 0.931 . S
H607 C587 0.930 1_565 S
H608 C595 0.931 . S
H609 C596 0.929 . S
H610 C604 0.929 . S
H611 C605 0.930 . S
Mn612 O617 2.095 . S
Mn612 O627 2.162 . S
Mn612 O628 2.297 . S
Mn612 O636 2.385 . S
Mn612 O637 2.209 . S
Mn612 O638 2.094 . S
Mn613 O618 2.121 . S
Mn613 N620 2.257 . S
Mn613 N629 2.282 . S
Mn613 O637 2.215 . S
Mn613 O639 2.117 . S
C614 O636 1.234 . S
C614 O637 1.283 . S
C615 O627 1.281 . S
C615 O628 1.236 . S
C616 O638 1.240 . S
C616 O639 1.264 . S
O617 Mn612 2.095 . S
O617 C626 1.250 . S
O618 Mn613 2.121 . S
O618 C626 1.258 . S
C619 N620 1.326 . S
C619 C623 1.460 . S
C619 H625 0.929 . S
N620 Mn613 2.257 . S
N620 C619 1.326 . S
N620 C624 1.362 . S
C621 C622 1.258 . S
C621 C624 1.431 . S
C621 C641 1.449 . S
C622 C621 1.258 . S
C622 C623 1.477 . S
C622 H642 0.931 . S
C623 C619 1.460 . S
C623 C622 1.477 . S
C623 H643 0.930 . S
C624 N620 1.362 . S
C624 C621 1.431 . S
C624 C634 1.476 . S
H625 C619 0.929 . S
C626 O617 1.250 . S
C626 O618 1.258 . S
O627 Mn612 2.162 . S
O627 C615 1.281 . S
O628 Mn612 2.297 . S
O628 C615 1.236 . S
N629 Mn613 2.282 . S
N629 C630 1.328 . S
N629 C634 1.318 . S
C630 N629 1.328 . S
C630 C631 1.457 . S
C630 H635 0.929 . S
C631 C630 1.457 . S
C631 C632 1.291 . S
C631 H644 0.931 . S
C632 C631 1.291 . S
C632 C633 1.373 . S
C632 H645 0.929 . S
C633 C632 1.373 . S
C633 C634 1.396 . S
C633 C640 1.403 . S
C634 C624 1.476 . S
C634 N629 1.318 . S
C634 C633 1.396 . S
H635 C630 0.929 . S
O636 Mn612 2.385 . S
O636 C614 1.234 . S
O637 Mn612 2.209 . S
O637 Mn613 2.215 . S
O637 C614 1.283 . S
O638 Mn612 2.094 . S
O638 C616 1.240 . S
O639 Mn613 2.117 . S
O639 C616 1.264 . S
C640 C633 1.403 . S
C640 C641 1.399 . S
C640 H646 0.929 . S
C641 C621 1.449 . S
C641 C640 1.399 . S
C641 H647 0.930 . S
H642 C622 0.931 . S
H643 C623 0.930 . S
H644 C631 0.931 . S
H645 C632 0.929 . S
H646 C640 0.929 . S
H647 C641 0.930 . S
H648 O674 0.856 . S
H649 O677 0.854 . S
H650 C685 0.930 . S
H651 C686 0.930 . S
H652 C688 0.930 . S
H653 C689 0.930 . S
H654 C691 0.931 . S
H655 C692 0.930 . S
H656 C694 0.930 . S
H657 C695 0.929 . S
H658 C697 0.930 . S
H659 C698 0.931 . S
H660 C700 0.930 . S
H661 C701 0.929 . S
H662 C703 0.931 . S
H663 C704 0.930 . S
H664 C706 0.930 . S
H665 C707 0.932 . S
H666 C709 0.930 . S
H667 C710 0.929 . S
H668 C712 0.931 . S
H669 C713 0.930 . S
H670 C715 0.929 . S
H671 C716 0.931 . S
H672 C718 0.930 . S
H673 C719 0.929 . S
O674 H648 0.856 . S
O674 C720 1.300 . S
O675 C720 1.209 . S
O676 C721 1.199 . S
O677 H649 0.854 . S
O677 C721 1.297 . S
C678 C679 1.404 . S
C678 C683 1.397 . S
C678 C684 1.492 . S
C679 C678 1.404 . S
C679 C680 1.396 . S
C679 C690 1.492 . S
C680 C679 1.396 . S
C680 C681 1.397 . S
C680 C696 1.509 . S
C681 C680 1.397 . S
C681 C682 1.412 . S
C681 C702 1.485 . S
C682 C681 1.412 . S
C682 C683 1.388 . S
C682 C708 1.490 . S
C683 C678 1.397 . S
C683 C682 1.388 . S
C683 C714 1.519 . S
C684 C678 1.492 . S
C684 C685 1.363 . S
C684 C689 1.390 . S
C685 H650 0.930 . S
C685 C684 1.363 . S
C685 C686 1.372 . S
C686 H651 0.930 . S
C686 C685 1.372 . S
C686 C687 1.383 . S
C687 C686 1.383 . S
C687 C688 1.395 . S
C688 H652 0.930 . S
C688 C687 1.395 . S
C688 C689 1.362 . S
C689 H653 0.930 . S
C689 C684 1.390 . S
C689 C688 1.362 . S
C690 C679 1.492 . S
C690 C691 1.377 . S
C690 C695 1.397 . S
C691 H654 0.931 . S
C691 C690 1.377 . S
C691 C692 1.376 . S
C692 H655 0.930 . S
C692 C691 1.376 . S
C692 C693 1.376 . S
C693 C692 1.376 . S
C693 C694 1.378 . S
C693 C720 1.486 . S
C694 H656 0.930 . S
C694 C693 1.378 . S
C694 C695 1.376 . S
C695 H657 0.929 . S
C695 C690 1.397 . S
C695 C694 1.376 . S
C696 C680 1.509 . S
C696 C697 1.391 . S
C696 C701 1.386 . S
C697 H658 0.930 . S
C697 C696 1.391 . S
C697 C698 1.375 . S
C698 H659 0.931 . S
C698 C697 1.375 . S
C698 C699 1.375 . S
C699 C698 1.375 . S
C699 C700 1.361 . S
C700 H660 0.930 . S
C700 C699 1.361 . S
C700 C701 1.399 . S
C701 H661 0.929 . S
C701 C696 1.386 . S
C701 C700 1.399 . S
C702 C681 1.485 . S
C702 C703 1.394 . S
C702 C707 1.360 . S
C703 H662 0.931 . S
C703 C702 1.394 . S
C703 C704 1.372 . S
C704 H663 0.930 . S
C704 C703 1.372 . S
C704 C705 1.397 . S
C705 C704 1.397 . S
C705 C706 1.390 . S
C705 C721 1.476 . S
C706 H664 0.930 . S
C706 C705 1.390 . S
C706 C707 1.366 . S
C707 H665 0.932 . S
C707 C702 1.360 . S
C707 C706 1.366 . S
C708 C682 1.490 . S
C708 C709 1.380 . S
C708 C713 1.386 . S
C709 H666 0.930 . S
C709 C708 1.380 . S
C709 C710 1.381 . S
C710 H667 0.929 . S
C710 C709 1.381 . S
C710 C711 1.371 . S
C711 C710 1.371 . S
C711 C712 1.380 . S
C712 H668 0.931 . S
C712 C711 1.380 . S
C712 C713 1.387 . S
C713 H669 0.930 . S
C713 C708 1.386 . S
C713 C712 1.387 . S
C714 C683 1.519 . S
C714 C715 1.377 . S
C714 C719 1.361 . S
C715 H670 0.929 . S
C715 C714 1.377 . S
C715 C716 1.386 . S
C716 H671 0.931 . S
C716 C715 1.386 . S
C716 C717 1.363 . S
C717 C716 1.363 . S
C717 C718 1.385 . S
C718 H672 0.930 . S
C718 C717 1.385 . S
C718 C719 1.396 . S
C719 H673 0.929 . S
C719 C714 1.361 . S
C719 C718 1.396 . S
C720 O674 1.300 . S
C720 O675 1.209 . S
C720 C693 1.486 . S
C721 O676 1.199 . S
C721 O677 1.297 . S
C721 C705 1.476 . S
H722 O748 0.856 . S
H723 O751 0.854 . S
H724 C759 0.930 . S
H725 C760 0.930 . S
H726 C762 0.930 . S
H727 C763 0.930 . S
H728 C765 0.931 . S
H729 C766 0.930 . S
H730 C768 0.930 . S
H731 C769 0.929 . S
H732 C771 0.930 . S
H733 C772 0.931 . S
H734 C774 0.930 . S
H735 C775 0.929 . S
H736 C777 0.931 . S
H737 C778 0.930 . S
H738 C780 0.930 . S
H739 C781 0.932 . S
H740 C783 0.930 . S
H741 C784 0.929 . S
H742 C786 0.931 . S
H743 C787 0.930 . S
H744 C789 0.929 . S
H745 C790 0.931 . S
H746 C792 0.930 . S
H747 C793 0.929 . S
O748 H722 0.856 . S
O748 C794 1.300 . S
O749 C794 1.209 . S
O750 C795 1.199 . S
O751 H723 0.854 . S
O751 C795 1.297 . S
C752 C753 1.404 . S
C752 C757 1.397 . S
C752 C758 1.492 . S
C753 C752 1.404 . S
C753 C754 1.396 . S
C753 C764 1.492 . S
C754 C753 1.396 . S
C754 C755 1.397 . S
C754 C770 1.509 . S
C755 C754 1.397 . S
C755 C756 1.412 . S
C755 C776 1.485 . S
C756 C755 1.412 . S
C756 C757 1.388 . S
C756 C782 1.490 . S
C757 C752 1.397 . S
C757 C756 1.388 . S
C757 C788 1.519 . S
C758 C752 1.492 . S
C758 C759 1.363 . S
C758 C763 1.390 . S
C759 H724 0.930 . S
C759 C758 1.363 . S
C759 C760 1.372 . S
C760 H725 0.930 . S
C760 C759 1.372 . S
C760 C761 1.383 . S
C761 C760 1.383 . S
C761 C762 1.395 . S
C762 H726 0.930 . S
C762 C761 1.395 . S
C762 C763 1.362 . S
C763 H727 0.930 . S
C763 C758 1.390 . S
C763 C762 1.362 . S
C764 C753 1.492 . S
C764 C765 1.377 . S
C764 C769 1.397 . S
C765 H728 0.931 . S
C765 C764 1.377 . S
C765 C766 1.376 . S
C766 H729 0.930 . S
C766 C765 1.376 . S
C766 C767 1.376 . S
C767 C766 1.376 . S
C767 C768 1.378 . S
C767 C794 1.486 . S
C768 H730 0.930 . S
C768 C767 1.378 . S
C768 C769 1.376 . S
C769 H731 0.929 . S
C769 C764 1.397 . S
C769 C768 1.376 . S
C770 C754 1.509 . S
C770 C771 1.391 . S
C770 C775 1.386 . S
C771 H732 0.930 . S
C771 C770 1.391 . S
C771 C772 1.375 . S
C772 H733 0.931 . S
C772 C771 1.375 . S
C772 C773 1.375 . S
C773 C772 1.375 . S
C773 C774 1.361 . S
C774 H734 0.930 . S
C774 C773 1.361 . S
C774 C775 1.399 . S
C775 H735 0.929 . S
C775 C770 1.386 . S
C775 C774 1.399 . S
C776 C755 1.485 . S
C776 C777 1.394 . S
C776 C781 1.360 . S
C777 H736 0.931 . S
C777 C776 1.394 . S
C777 C778 1.372 . S
C778 H737 0.930 . S
C778 C777 1.372 . S
C778 C779 1.397 . S
C779 C778 1.397 . S
C779 C780 1.390 . S
C779 C795 1.476 . S
C780 H738 0.930 . S
C780 C779 1.390 . S
C780 C781 1.366 . S
C781 H739 0.932 . S
C781 C776 1.360 . S
C781 C780 1.366 . S
C782 C756 1.490 . S
C782 C783 1.380 . S
C782 C787 1.386 . S
C783 H740 0.930 . S
C783 C782 1.380 . S
C783 C784 1.381 . S
C784 H741 0.929 . S
C784 C783 1.381 . S
C784 C785 1.371 . S
C785 C784 1.371 . S
C785 C786 1.380 . S
C786 H742 0.931 . S
C786 C785 1.380 . S
C786 C787 1.387 . S
C787 H743 0.930 . S
C787 C782 1.386 . S
C787 C786 1.387 . S
C788 C757 1.519 . S
C788 C789 1.377 . S
C788 C793 1.361 . S
C789 H744 0.929 . S
C789 C788 1.377 . S
C789 C790 1.386 . S
C790 H745 0.931 . S
C790 C789 1.386 . S
C790 C791 1.363 . S
C791 C790 1.363 . S
C791 C792 1.385 . S
C792 H746 0.930 . S
C792 C791 1.385 . S
C792 C793 1.396 . S
C793 H747 0.929 . S
C793 C788 1.361 . S
C793 C792 1.396 . S
C794 O748 1.300 . S
C794 O749 1.209 . S
C794 C767 1.486 . S
C795 O750 1.199 . S
C795 O751 1.297 . S
C795 C779 1.476 . S
H796 O822 0.856 . S
H797 O825 0.854 . S
H798 C833 0.930 . S
H799 C834 0.930 . S
H800 C836 0.930 . S
H801 C837 0.930 . S
H802 C839 0.931 . S
H803 C840 0.930 . S
H804 C842 0.930 . S
H805 C843 0.929 . S
H806 C845 0.930 . S
H807 C846 0.931 . S
H808 C848 0.930 . S
H809 C849 0.929 . S
H810 C851 0.931 . S
H811 C852 0.930 . S
H812 C854 0.930 . S
H813 C855 0.932 . S
H814 C857 0.930 . S
H815 C858 0.929 . S
H816 C860 0.931 . S
H817 C861 0.930 . S
H818 C863 0.929 . S
H819 C864 0.931 . S
H820 C866 0.930 . S
H821 C867 0.929 . S
O822 H796 0.856 . S
O822 C868 1.300 . S
O823 C868 1.209 . S
O824 C869 1.199 . S
O825 H797 0.854 . S
O825 C869 1.297 . S
C826 C827 1.404 . S
C826 C831 1.397 . S
C826 C832 1.492 . S
C827 C826 1.404 . S
C827 C828 1.396 . S
C827 C838 1.492 . S
C828 C827 1.396 . S
C828 C829 1.397 . S
C828 C844 1.509 . S
C829 C828 1.397 . S
C829 C830 1.412 . S
C829 C850 1.485 . S
C830 C829 1.412 . S
C830 C831 1.388 . S
C830 C856 1.490 . S
C831 C826 1.397 . S
C831 C830 1.388 . S
C831 C862 1.519 . S
C832 C826 1.492 . S
C832 C833 1.363 . S
C832 C837 1.390 . S
C833 H798 0.930 . S
C833 C832 1.363 . S
C833 C834 1.372 . S
C834 H799 0.930 . S
C834 C833 1.372 . S
C834 C835 1.383 . S
C835 C834 1.383 . S
C835 C836 1.395 . S
C836 H800 0.930 . S
C836 C835 1.395 . S
C836 C837 1.362 . S
C837 H801 0.930 . S
C837 C832 1.390 . S
C837 C836 1.362 . S
C838 C827 1.492 . S
C838 C839 1.377 . S
C838 C843 1.397 . S
C839 H802 0.931 . S
C839 C838 1.377 . S
C839 C840 1.376 . S
C840 H803 0.930 . S
C840 C839 1.376 . S
C840 C841 1.376 . S
C841 C840 1.376 . S
C841 C842 1.378 . S
C841 C868 1.486 . S
C842 H804 0.930 . S
C842 C841 1.378 . S
C842 C843 1.376 . S
C843 H805 0.929 . S
C843 C838 1.397 . S
C843 C842 1.376 . S
C844 C828 1.509 . S
C844 C845 1.391 . S
C844 C849 1.386 . S
C845 H806 0.930 . S
C845 C844 1.391 . S
C845 C846 1.375 . S
C846 H807 0.931 . S
C846 C845 1.375 . S
C846 C847 1.375 . S
C847 C846 1.375 . S
C847 C848 1.361 . S
C848 H808 0.930 . S
C848 C847 1.361 . S
C848 C849 1.399 . S
C849 H809 0.929 . S
C849 C844 1.386 . S
C849 C848 1.399 . S
C850 C829 1.485 . S
C850 C851 1.394 . S
C850 C855 1.360 . S
C851 H810 0.931 . S
C851 C850 1.394 . S
C851 C852 1.372 . S
C852 H811 0.930 . S
C852 C851 1.372 . S
C852 C853 1.397 . S
C853 C852 1.397 . S
C853 C854 1.390 . S
C853 C869 1.476 . S
C854 H812 0.930 . S
C854 C853 1.390 . S
C854 C855 1.366 . S
C855 H813 0.932 . S
C855 C850 1.360 . S
C855 C854 1.366 . S
C856 C830 1.490 . S
C856 C857 1.380 . S
C856 C861 1.386 . S
C857 H814 0.930 . S
C857 C856 1.380 . S
C857 C858 1.381 . S
C858 H815 0.929 . S
C858 C857 1.381 . S
C858 C859 1.371 . S
C859 C858 1.371 . S
C859 C860 1.380 . S
C860 H816 0.931 . S
C860 C859 1.380 . S
C860 C861 1.387 . S
C861 H817 0.930 . S
C861 C856 1.386 . S
C861 C860 1.387 . S
C862 C831 1.519 . S
C862 C863 1.377 . S
C862 C867 1.361 . S
C863 H818 0.929 . S
C863 C862 1.377 . S
C863 C864 1.386 . S
C864 H819 0.931 . S
C864 C863 1.386 . S
C864 C865 1.363 . S
C865 C864 1.363 . S
C865 C866 1.385 . S
C866 H820 0.930 . S
C866 C865 1.385 . S
C866 C867 1.396 . S
C867 H821 0.929 . S
C867 C862 1.361 . S
C867 C866 1.396 . S
C868 O822 1.300 . S
C868 O823 1.209 . S
C868 C841 1.486 . S
C869 O824 1.199 . S
C869 O825 1.297 . S
C869 C853 1.476 . S
H870 O896 0.856 . S
H871 O899 0.854 . S
H872 C907 0.930 . S
H873 C908 0.930 . S
H874 C910 0.930 . S
H875 C911 0.930 . S
H876 C913 0.931 . S
H877 C914 0.930 . S
H878 C916 0.930 . S
H879 C917 0.929 . S
H880 C919 0.930 . S
H881 C920 0.931 . S
H882 C922 0.930 . S
H883 C923 0.929 . S
H884 C925 0.931 . S
H885 C926 0.930 . S
H886 C928 0.930 . S
H887 C929 0.932 . S
H888 C931 0.930 . S
H889 C932 0.929 . S
H890 C934 0.931 . S
H891 C935 0.930 . S
H892 C937 0.929 . S
H893 C938 0.931 . S
H894 C940 0.930 . S
H895 C941 0.929 . S
O896 H870 0.856 . S
O896 C942 1.300 . S
O897 C942 1.209 . S
O898 C943 1.199 . S
O899 H871 0.854 . S
O899 C943 1.297 . S
C900 C901 1.404 . S
C900 C905 1.397 . S
C900 C906 1.492 . S
C901 C900 1.404 . S
C901 C902 1.396 . S
C901 C912 1.492 . S
C902 C901 1.396 . S
C902 C903 1.397 . S
C902 C918 1.509 . S
C903 C902 1.397 . S
C903 C904 1.412 . S
C903 C924 1.485 . S
C904 C903 1.412 . S
C904 C905 1.388 . S
C904 C930 1.490 . S
C905 C900 1.397 . S
C905 C904 1.388 . S
C905 C936 1.519 . S
C906 C900 1.492 . S
C906 C907 1.363 . S
C906 C911 1.390 . S
C907 H872 0.930 . S
C907 C906 1.363 . S
C907 C908 1.372 . S
C908 H873 0.930 . S
C908 C907 1.372 . S
C908 C909 1.383 . S
C909 C908 1.383 . S
C909 C910 1.395 . S
C910 H874 0.930 . S
C910 C909 1.395 . S
C910 C911 1.362 . S
C911 H875 0.930 . S
C911 C906 1.390 . S
C911 C910 1.362 . S
C912 C901 1.492 . S
C912 C913 1.377 . S
C912 C917 1.397 . S
C913 H876 0.931 . S
C913 C912 1.377 . S
C913 C914 1.376 . S
C914 H877 0.930 . S
C914 C913 1.376 . S
C914 C915 1.376 . S
C915 C914 1.376 . S
C915 C916 1.378 . S
C915 C942 1.486 1_556 S
C916 H878 0.930 . S
C916 C915 1.378 . S
C916 C917 1.376 . S
C917 H879 0.929 . S
C917 C912 1.397 . S
C917 C916 1.376 . S
C918 C902 1.509 . S
C918 C919 1.391 . S
C918 C923 1.386 . S
C919 H880 0.930 . S
C919 C918 1.391 . S
C919 C920 1.375 . S
C920 H881 0.931 . S
C920 C919 1.375 . S
C920 C921 1.375 . S
C921 C920 1.375 . S
C921 C922 1.361 . S
C922 H882 0.930 . S
C922 C921 1.361 . S
C922 C923 1.399 . S
C923 H883 0.929 . S
C923 C918 1.386 . S
C923 C922 1.399 . S
C924 C903 1.485 . S
C924 C925 1.394 . S
C924 C929 1.360 . S
C925 H884 0.931 . S
C925 C924 1.394 . S
C925 C926 1.372 . S
C926 H885 0.930 . S
C926 C925 1.372 . S
C926 C927 1.397 . S
C927 C926 1.397 . S
C927 C928 1.390 . S
C927 C943 1.476 . S
C928 H886 0.930 . S
C928 C927 1.390 . S
C928 C929 1.366 . S
C929 H887 0.932 . S
C929 C924 1.360 . S
C929 C928 1.366 . S
C930 C904 1.490 . S
C930 C931 1.380 . S
C930 C935 1.386 . S
C931 H888 0.930 . S
C931 C930 1.380 . S
C931 C932 1.381 . S
C932 H889 0.929 . S
C932 C931 1.381 . S
C932 C933 1.371 . S
C933 C932 1.371 . S
C933 C934 1.380 . S
C934 H890 0.931 . S
C934 C933 1.380 . S
C934 C935 1.387 . S
C935 H891 0.930 . S
C935 C930 1.386 . S
C935 C934 1.387 . S
C936 C905 1.519 . S
C936 C937 1.377 . S
C936 C941 1.361 . S
C937 H892 0.929 . S
C937 C936 1.377 . S
C937 C938 1.386 . S
C938 H893 0.931 . S
C938 C937 1.386 . S
C938 C939 1.363 . S
C939 C938 1.363 . S
C939 C940 1.385 . S
C940 H894 0.930 . S
C940 C939 1.385 . S
C940 C941 1.396 . S
C941 H895 0.929 . S
C941 C936 1.361 . S
C941 C940 1.396 . S
C942 O896 1.300 . S
C942 O897 1.209 . S
C942 C915 1.486 1_554 S
C943 O898 1.199 . S
C943 O899 1.297 . S
C943 C927 1.476 . S
H944 O970 0.856 . S
H945 O973 0.854 . S
H946 C981 0.930 . S
H947 C982 0.930 . S
H948 C984 0.930 . S
H949 C985 0.930 . S
H950 C987 0.931 . S
H951 C988 0.930 . S
H952 C990 0.930 . S
H953 C991 0.929 . S
H954 C993 0.930 . S
H955 C994 0.931 . S
H956 C996 0.930 . S
H957 C997 0.929 . S
H958 C999 0.931 . S
H959 C1000 0.930 . S
H960 C1002 0.930 . S
H961 C1003 0.932 . S
H962 C1005 0.930 . S
H963 C1006 0.929 . S
H964 C1008 0.931 . S
H965 C1009 0.930 . S
H966 C1011 0.929 . S
H967 C1012 0.931 . S
H968 C1014 0.930 . S
H969 C1015 0.929 . S
O970 H944 0.856 . S
O970 C1016 1.300 . S
O971 C1016 1.209 . S
O972 C1017 1.199 . S
O973 H945 0.854 . S
O973 C1017 1.297 . S
C974 C975 1.404 . S
C974 C979 1.397 . S
C974 C980 1.492 . S
C975 C974 1.404 . S
C975 C976 1.396 . S
C975 C986 1.492 . S
C976 C975 1.396 . S
C976 C977 1.397 . S
C976 C992 1.509 . S
C977 C976 1.397 . S
C977 C978 1.412 . S
C977 C998 1.485 . S
C978 C977 1.412 . S
C978 C979 1.388 . S
C978 C1004 1.490 . S
C979 C974 1.397 . S
C979 C978 1.388 . S
C979 C1010 1.519 . S
C980 C974 1.492 . S
C980 C981 1.363 . S
C980 C985 1.390 . S
C981 H946 0.930 . S
C981 C980 1.363 . S
C981 C982 1.372 . S
C982 H947 0.930 . S
C982 C981 1.372 . S
C982 C983 1.383 . S
C983 C982 1.383 . S
C983 C984 1.395 . S
C984 H948 0.930 . S
C984 C983 1.395 . S
C984 C985 1.362 . S
C985 H949 0.930 . S
C985 C980 1.390 . S
C985 C984 1.362 . S
C986 C975 1.492 . S
C986 C987 1.377 . S
C986 C991 1.397 . S
C987 H950 0.931 . S
C987 C986 1.377 . S
C987 C988 1.376 . S
C988 H951 0.930 . S
C988 C987 1.376 . S
C988 C989 1.376 . S
C989 C988 1.376 . S
C989 C990 1.378 . S
C989 C1016 1.486 1_556 S
C990 H952 0.930 . S
C990 C989 1.378 . S
C990 C991 1.376 . S
C991 H953 0.929 . S
C991 C986 1.397 . S
C991 C990 1.376 . S
C992 C976 1.509 . S
C992 C993 1.391 . S
C992 C997 1.386 . S
C993 H954 0.930 . S
C993 C992 1.391 . S
C993 C994 1.375 . S
C994 H955 0.931 . S
C994 C993 1.375 . S
C994 C995 1.375 . S
C995 C994 1.375 . S
C995 C996 1.361 . S
C996 H956 0.930 . S
C996 C995 1.361 . S
C996 C997 1.399 . S
C997 H957 0.929 . S
C997 C992 1.386 . S
C997 C996 1.399 . S
C998 C977 1.485 . S
C998 C999 1.394 . S
C998 C1003 1.360 . S
C999 H958 0.931 . S
C999 C998 1.394 . S
C999 C1000 1.372 . S
C1000 H959 0.930 . S
C1000 C999 1.372 . S
C1000 C1001 1.397 . S
C1001 C1000 1.397 . S
C1001 C1002 1.390 . S
C1001 C1017 1.476 . S
C1002 H960 0.930 . S
C1002 C1001 1.390 . S
C1002 C1003 1.366 . S
C1003 H961 0.932 . S
C1003 C998 1.360 . S
C1003 C1002 1.366 . S
C1004 C978 1.490 . S
C1004 C1005 1.380 . S
C1004 C1009 1.386 . S
C1005 H962 0.930 . S
C1005 C1004 1.380 . S
C1005 C1006 1.381 . S
C1006 H963 0.929 . S
C1006 C1005 1.381 . S
C1006 C1007 1.371 . S
C1007 C1006 1.371 . S
C1007 C1008 1.380 . S
C1008 H964 0.931 . S
C1008 C1007 1.380 . S
C1008 C1009 1.387 . S
C1009 H965 0.930 . S
C1009 C1004 1.386 . S
C1009 C1008 1.387 . S
C1010 C979 1.519 . S
C1010 C1011 1.377 . S
C1010 C1015 1.361 . S
C1011 H966 0.929 . S
C1011 C1010 1.377 . S
C1011 C1012 1.386 . S
C1012 H967 0.931 . S
C1012 C1011 1.386 . S
C1012 C1013 1.363 . S
C1013 C1012 1.363 . S
C1013 C1014 1.385 . S
C1014 H968 0.930 . S
C1014 C1013 1.385 . S
C1014 C1015 1.396 . S
C1015 H969 0.929 . S
C1015 C1010 1.361 . S
C1015 C1014 1.396 . S
C1016 O970 1.300 . S
C1016 O971 1.209 . S
C1016 C989 1.486 1_554 S
C1017 O972 1.199 . S
C1017 O973 1.297 . S
C1017 C1001 1.476 . S
H1018 O1044 0.856 . S
H1019 O1047 0.854 . S
H1020 C1055 0.930 . S
H1021 C1056 0.930 . S
H1022 C1058 0.930 . S
H1023 C1059 0.930 . S
H1024 C1061 0.931 . S
H1025 C1062 0.930 . S
H1026 C1064 0.930 . S
H1027 C1065 0.929 . S
H1028 C1067 0.930 . S
H1029 C1068 0.931 . S
H1030 C1070 0.930 . S
H1031 C1071 0.929 . S
H1032 C1073 0.931 . S
H1033 C1074 0.930 . S
H1034 C1076 0.930 . S
H1035 C1077 0.932 . S
H1036 C1079 0.930 . S
H1037 C1080 0.929 . S
H1038 C1082 0.931 . S
H1039 C1083 0.930 . S
H1040 C1085 0.929 . S
H1041 C1086 0.931 . S
H1042 C1088 0.930 . S
H1043 C1089 0.929 . S
O1044 H1018 0.856 . S
O1044 C1090 1.300 . S
O1045 C1090 1.209 . S
O1046 C1091 1.199 . S
O1047 H1019 0.854 . S
O1047 C1091 1.297 . S
C1048 C1049 1.404 . S
C1048 C1053 1.397 . S
C1048 C1054 1.492 . S
C1049 C1048 1.404 . S
C1049 C1050 1.396 . S
C1049 C1060 1.492 . S
C1050 C1049 1.396 . S
C1050 C1051 1.397 . S
C1050 C1066 1.509 . S
C1051 C1050 1.397 . S
C1051 C1052 1.412 . S
C1051 C1072 1.485 . S
C1052 C1051 1.412 . S
C1052 C1053 1.388 . S
C1052 C1078 1.490 . S
C1053 C1048 1.397 . S
C1053 C1052 1.388 . S
C1053 C1084 1.519 . S
C1054 C1048 1.492 . S
C1054 C1055 1.363 . S
C1054 C1059 1.390 . S
C1055 H1020 0.930 . S
C1055 C1054 1.363 . S
C1055 C1056 1.372 . S
C1056 H1021 0.930 . S
C1056 C1055 1.372 . S
C1056 C1057 1.383 . S
C1057 C1056 1.383 . S
C1057 C1058 1.395 . S
C1058 H1022 0.930 . S
C1058 C1057 1.395 . S
C1058 C1059 1.362 . S
C1059 H1023 0.930 . S
C1059 C1054 1.390 . S
C1059 C1058 1.362 . S
C1060 C1049 1.492 . S
C1060 C1061 1.377 . S
C1060 C1065 1.397 . S
C1061 H1024 0.931 . S
C1061 C1060 1.377 . S
C1061 C1062 1.376 1_556 S
C1062 H1025 0.930 . S
C1062 C1061 1.376 1_554 S
C1062 C1063 1.376 . S
C1063 C1062 1.376 . S
C1063 C1064 1.378 1_554 S
C1063 C1090 1.486 . S
C1064 H1026 0.930 . S
C1064 C1063 1.378 1_556 S
C1064 C1065 1.376 . S
C1065 H1027 0.929 . S
C1065 C1060 1.397 . S
C1065 C1064 1.376 . S
C1066 C1050 1.509 . S
C1066 C1067 1.391 . S
C1066 C1071 1.386 . S
C1067 H1028 0.930 . S
C1067 C1066 1.391 . S
C1067 C1068 1.375 . S
C1068 H1029 0.931 . S
C1068 C1067 1.375 . S
C1068 C1069 1.375 . S
C1069 C1068 1.375 . S
C1069 C1070 1.361 . S
C1070 H1030 0.930 . S
C1070 C1069 1.361 . S
C1070 C1071 1.399 . S
C1071 H1031 0.929 . S
C1071 C1066 1.386 . S
C1071 C1070 1.399 . S
C1072 C1051 1.485 . S
C1072 C1073 1.394 . S
C1072 C1077 1.360 . S
C1073 H1032 0.931 . S
C1073 C1072 1.394 . S
C1073 C1074 1.372 . S
C1074 H1033 0.930 . S
C1074 C1073 1.372 . S
C1074 C1075 1.397 . S
C1075 C1074 1.397 . S
C1075 C1076 1.390 . S
C1075 C1091 1.476 . S
C1076 H1034 0.930 . S
C1076 C1075 1.390 . S
C1076 C1077 1.366 . S
C1077 H1035 0.932 . S
C1077 C1072 1.360 . S
C1077 C1076 1.366 . S
C1078 C1052 1.490 . S
C1078 C1079 1.380 . S
C1078 C1083 1.386 . S
C1079 H1036 0.930 . S
C1079 C1078 1.380 . S
C1079 C1080 1.381 . S
C1080 H1037 0.929 . S
C1080 C1079 1.381 . S
C1080 C1081 1.371 . S
C1081 C1080 1.371 . S
C1081 C1082 1.380 . S
C1082 H1038 0.931 . S
C1082 C1081 1.380 . S
C1082 C1083 1.387 . S
C1083 H1039 0.930 . S
C1083 C1078 1.386 . S
C1083 C1082 1.387 . S
C1084 C1053 1.519 . S
C1084 C1085 1.377 . S
C1084 C1089 1.361 . S
C1085 H1040 0.929 . S
C1085 C1084 1.377 . S
C1085 C1086 1.386 . S
C1086 H1041 0.931 . S
C1086 C1085 1.386 . S
C1086 C1087 1.363 . S
C1087 C1086 1.363 . S
C1087 C1088 1.385 . S
C1088 H1042 0.930 . S
C1088 C1087 1.385 . S
C1088 C1089 1.396 . S
C1089 H1043 0.929 . S
C1089 C1084 1.361 . S
C1089 C1088 1.396 . S
C1090 O1044 1.300 . S
C1090 O1045 1.209 . S
C1090 C1063 1.486 . S
C1091 O1046 1.199 . S
C1091 O1047 1.297 . S
C1091 C1075 1.476 . S
H1092 O1118 0.856 . S
H1093 O1121 0.854 . S
H1094 C1129 0.930 . S
H1095 C1130 0.930 . S
H1096 C1132 0.930 . S
H1097 C1133 0.930 . S
H1098 C1135 0.931 . S
H1099 C1136 0.930 . S
H1100 C1138 0.930 . S
H1101 C1139 0.929 . S
H1102 C1141 0.930 . S
H1103 C1142 0.931 . S
H1104 C1144 0.930 . S
H1105 C1145 0.929 . S
H1106 C1147 0.931 . S
H1107 C1148 0.930 . S
H1108 C1150 0.930 . S
H1109 C1151 0.932 . S
H1110 C1153 0.930 . S
H1111 C1154 0.929 . S
H1112 C1156 0.931 . S
H1113 C1157 0.930 . S
H1114 C1159 0.929 . S
H1115 C1160 0.931 . S
H1116 C1162 0.930 . S
H1117 C1163 0.929 . S
O1118 H1092 0.856 . S
O1118 C1164 1.300 . S
O1119 C1164 1.209 . S
O1120 C1165 1.199 . S
O1121 H1093 0.854 . S
O1121 C1165 1.297 . S
C1122 C1123 1.404 . S
C1122 C1127 1.397 . S
C1122 C1128 1.492 . S
C1123 C1122 1.404 . S
C1123 C1124 1.396 . S
C1123 C1134 1.492 . S
C1124 C1123 1.396 . S
C1124 C1125 1.397 . S
C1124 C1140 1.509 . S
C1125 C1124 1.397 . S
C1125 C1126 1.412 . S
C1125 C1146 1.485 . S
C1126 C1125 1.412 . S
C1126 C1127 1.388 . S
C1126 C1152 1.490 . S
C1127 C1122 1.397 . S
C1127 C1126 1.388 . S
C1127 C1158 1.519 . S
C1128 C1122 1.492 . S
C1128 C1129 1.363 . S
C1128 C1133 1.390 . S
C1129 H1094 0.930 . S
C1129 C1128 1.363 . S
C1129 C1130 1.372 . S
C1130 H1095 0.930 . S
C1130 C1129 1.372 . S
C1130 C1131 1.383 . S
C1131 C1130 1.383 . S
C1131 C1132 1.395 . S
C1132 H1096 0.930 . S
C1132 C1131 1.395 . S
C1132 C1133 1.362 . S
C1133 H1097 0.930 . S
C1133 C1128 1.390 . S
C1133 C1132 1.362 . S
C1134 C1123 1.492 . S
C1134 C1135 1.377 . S
C1134 C1139 1.397 . S
C1135 H1098 0.931 . S
C1135 C1134 1.377 . S
C1135 C1136 1.376 . S
C1136 H1099 0.930 . S
C1136 C1135 1.376 . S
C1136 C1137 1.376 . S
C1137 C1136 1.376 . S
C1137 C1138 1.378 . S
C1137 C1164 1.486 . S
C1138 H1100 0.930 . S
C1138 C1137 1.378 . S
C1138 C1139 1.376 . S
C1139 H1101 0.929 . S
C1139 C1134 1.397 . S
C1139 C1138 1.376 . S
C1140 C1124 1.509 . S
C1140 C1141 1.391 . S
C1140 C1145 1.386 . S
C1141 H1102 0.930 . S
C1141 C1140 1.391 . S
C1141 C1142 1.375 . S
C1142 H1103 0.931 . S
C1142 C1141 1.375 . S
C1142 C1143 1.375 . S
C1143 C1142 1.375 . S
C1143 C1144 1.361 . S
C1144 H1104 0.930 . S
C1144 C1143 1.361 . S
C1144 C1145 1.399 . S
C1145 H1105 0.929 . S
C1145 C1140 1.386 . S
C1145 C1144 1.399 . S
C1146 C1125 1.485 . S
C1146 C1147 1.394 . S
C1146 C1151 1.360 . S
C1147 H1106 0.931 . S
C1147 C1146 1.394 . S
C1147 C1148 1.372 . S
C1148 H1107 0.930 . S
C1148 C1147 1.372 . S
C1148 C1149 1.397 . S
C1149 C1148 1.397 . S
C1149 C1150 1.390 . S
C1149 C1165 1.476 . S
C1150 H1108 0.930 . S
C1150 C1149 1.390 . S
C1150 C1151 1.366 . S
C1151 H1109 0.932 . S
C1151 C1146 1.360 . S
C1151 C1150 1.366 . S
C1152 C1126 1.490 . S
C1152 C1153 1.380 . S
C1152 C1157 1.386 . S
C1153 H1110 0.930 . S
C1153 C1152 1.380 . S
C1153 C1154 1.381 . S
C1154 H1111 0.929 . S
C1154 C1153 1.381 . S
C1154 C1155 1.371 . S
C1155 C1154 1.371 . S
C1155 C1156 1.380 . S
C1156 H1112 0.931 . S
C1156 C1155 1.380 . S
C1156 C1157 1.387 . S
C1157 H1113 0.930 . S
C1157 C1152 1.386 . S
C1157 C1156 1.387 . S
C1158 C1127 1.519 . S
C1158 C1159 1.377 . S
C1158 C1163 1.361 . S
C1159 H1114 0.929 . S
C1159 C1158 1.377 . S
C1159 C1160 1.386 . S
C1160 H1115 0.931 . S
C1160 C1159 1.386 . S
C1160 C1161 1.363 . S
C1161 C1160 1.363 . S
C1161 C1162 1.385 . S
C1162 H1116 0.930 . S
C1162 C1161 1.385 . S
C1162 C1163 1.396 . S
C1163 H1117 0.929 . S
C1163 C1158 1.361 . S
C1163 C1162 1.396 . S
C1164 O1118 1.300 . S
C1164 O1119 1.209 . S
C1164 C1137 1.486 . S
C1165 O1120 1.199 . S
C1165 O1121 1.297 . S
C1165 C1149 1.476 . S
H1166 O1192 0.856 . S
H1167 O1195 0.854 . S
H1168 C1203 0.930 . S
H1169 C1204 0.930 . S
H1170 C1206 0.930 . S
H1171 C1207 0.930 . S
H1172 C1209 0.931 . S
H1173 C1210 0.930 . S
H1174 C1212 0.930 . S
H1175 C1213 0.929 . S
H1176 C1215 0.930 . S
H1177 C1216 0.931 . S
H1178 C1218 0.930 . S
H1179 C1219 0.929 . S
H1180 C1221 0.931 . S
H1181 C1222 0.930 . S
H1182 C1224 0.930 . S
H1183 C1225 0.932 . S
H1184 C1227 0.930 . S
H1185 C1228 0.929 . S
H1186 C1230 0.931 . S
H1187 C1231 0.930 . S
H1188 C1233 0.929 . S
H1189 C1234 0.931 . S
H1190 C1236 0.930 . S
H1191 C1237 0.929 . S
O1192 H1166 0.856 . S
O1192 C1238 1.300 . S
O1193 C1238 1.209 . S
O1194 C1239 1.199 . S
O1195 H1167 0.854 . S
O1195 C1239 1.297 . S
C1196 C1197 1.404 . S
C1196 C1201 1.397 . S
C1196 C1202 1.492 . S
C1197 C1196 1.404 . S
C1197 C1198 1.396 . S
C1197 C1208 1.492 . S
C1198 C1197 1.396 . S
C1198 C1199 1.397 . S
C1198 C1214 1.509 . S
C1199 C1198 1.397 . S
C1199 C1200 1.412 . S
C1199 C1220 1.485 . S
C1200 C1199 1.412 . S
C1200 C1201 1.388 . S
C1200 C1226 1.490 . S
C1201 C1196 1.397 . S
C1201 C1200 1.388 . S
C1201 C1232 1.519 . S
C1202 C1196 1.492 . S
C1202 C1203 1.363 . S
C1202 C1207 1.390 . S
C1203 H1168 0.930 . S
C1203 C1202 1.363 . S
C1203 C1204 1.372 . S
C1204 H1169 0.930 . S
C1204 C1203 1.372 . S
C1204 C1205 1.383 . S
C1205 C1204 1.383 . S
C1205 C1206 1.395 . S
C1206 H1170 0.930 . S
C1206 C1205 1.395 . S
C1206 C1207 1.362 . S
C1207 H1171 0.930 . S
C1207 C1202 1.390 . S
C1207 C1206 1.362 . S
C1208 C1197 1.492 . S
C1208 C1209 1.377 . S
C1208 C1213 1.397 . S
C1209 H1172 0.931 . S
C1209 C1208 1.377 . S
C1209 C1210 1.376 . S
C1210 H1173 0.930 . S
C1210 C1209 1.376 . S
C1210 C1211 1.376 . S
C1211 C1210 1.376 . S
C1211 C1212 1.378 . S
C1211 C1238 1.486 . S
C1212 H1174 0.930 . S
C1212 C1211 1.378 . S
C1212 C1213 1.376 . S
C1213 H1175 0.929 . S
C1213 C1208 1.397 . S
C1213 C1212 1.376 . S
C1214 C1198 1.509 . S
C1214 C1215 1.391 . S
C1214 C1219 1.386 . S
C1215 H1176 0.930 . S
C1215 C1214 1.391 . S
C1215 C1216 1.375 . S
C1216 H1177 0.931 . S
C1216 C1215 1.375 . S
C1216 C1217 1.375 . S
C1217 C1216 1.375 . S
C1217 C1218 1.361 . S
C1218 H1178 0.930 . S
C1218 C1217 1.361 . S
C1218 C1219 1.399 . S
C1219 H1179 0.929 . S
C1219 C1214 1.386 . S
C1219 C1218 1.399 . S
C1220 C1199 1.485 . S
C1220 C1221 1.394 . S
C1220 C1225 1.360 . S
C1221 H1180 0.931 . S
C1221 C1220 1.394 . S
C1221 C1222 1.372 . S
C1222 H1181 0.930 . S
C1222 C1221 1.372 . S
C1222 C1223 1.397 . S
C1223 C1222 1.397 . S
C1223 C1224 1.390 . S
C1223 C1239 1.476 . S
C1224 H1182 0.930 . S
C1224 C1223 1.390 . S
C1224 C1225 1.366 . S
C1225 H1183 0.932 . S
C1225 C1220 1.360 . S
C1225 C1224 1.366 . S
C1226 C1200 1.490 . S
C1226 C1227 1.380 . S
C1226 C1231 1.386 . S
C1227 H1184 0.930 . S
C1227 C1226 1.380 . S
C1227 C1228 1.381 . S
C1228 H1185 0.929 . S
C1228 C1227 1.381 . S
C1228 C1229 1.371 . S
C1229 C1228 1.371 . S
C1229 C1230 1.380 . S
C1230 H1186 0.931 . S
C1230 C1229 1.380 . S
C1230 C1231 1.387 . S
C1231 H1187 0.930 . S
C1231 C1226 1.386 . S
C1231 C1230 1.387 . S
C1232 C1201 1.519 . S
C1232 C1233 1.377 . S
C1232 C1237 1.361 . S
C1233 H1188 0.929 . S
C1233 C1232 1.377 . S
C1233 C1234 1.386 . S
C1234 H1189 0.931 . S
C1234 C1233 1.386 . S
C1234 C1235 1.363 . S
C1235 C1234 1.363 . S
C1235 C1236 1.385 . S
C1236 H1190 0.930 . S
C1236 C1235 1.385 . S
C1236 C1237 1.396 . S
C1237 H1191 0.929 . S
C1237 C1232 1.361 . S
C1237 C1236 1.396 . S
C1238 O1192 1.300 . S
C1238 O1193 1.209 . S
C1238 C1211 1.486 . S
C1239 O1194 1.199 . S
C1239 O1195 1.297 . S
C1239 C1223 1.476 . S
H1240 O1266 0.856 . S
H1241 O1269 0.854 . S
H1242 C1277 0.930 . S
H1243 C1278 0.930 . S
H1244 C1280 0.930 . S
H1245 C1281 0.930 . S
H1246 C1283 0.931 . S
H1247 C1284 0.930 . S
H1248 C1286 0.930 . S
H1249 C1287 0.929 . S
H1250 C1289 0.930 . S
H1251 C1290 0.931 . S
H1252 C1292 0.930 . S
H1253 C1293 0.929 . S
H1254 C1295 0.931 . S
H1255 C1296 0.930 . S
H1256 C1298 0.930 . S
H1257 C1299 0.932 . S
H1258 C1301 0.930 . S
H1259 C1302 0.929 . S
H1260 C1304 0.931 . S
H1261 C1305 0.930 . S
H1262 C1307 0.929 . S
H1263 C1308 0.931 . S
H1264 C1310 0.930 . S
H1265 C1311 0.929 . S
O1266 H1240 0.856 . S
O1266 C1312 1.300 . S
O1267 C1312 1.209 . S
O1268 C1313 1.199 . S
O1269 H1241 0.854 . S
O1269 C1313 1.297 . S
C1270 C1271 1.404 . S
C1270 C1275 1.397 . S
C1270 C1276 1.492 . S
C1271 C1270 1.404 . S
C1271 C1272 1.396 . S
C1271 C1282 1.492 . S
C1272 C1271 1.396 . S
C1272 C1273 1.397 . S
C1272 C1288 1.509 . S
C1273 C1272 1.397 . S
C1273 C1274 1.412 . S
C1273 C1294 1.485 . S
C1274 C1273 1.412 . S
C1274 C1275 1.388 . S
C1274 C1300 1.490 . S
C1275 C1270 1.397 . S
C1275 C1274 1.388 . S
C1275 C1306 1.519 . S
C1276 C1270 1.492 . S
C1276 C1277 1.363 . S
C1276 C1281 1.390 . S
C1277 H1242 0.930 . S
C1277 C1276 1.363 . S
C1277 C1278 1.372 . S
C1278 H1243 0.930 . S
C1278 C1277 1.372 . S
C1278 C1279 1.383 . S
C1279 C1278 1.383 . S
C1279 C1280 1.395 . S
C1280 H1244 0.930 . S
C1280 C1279 1.395 . S
C1280 C1281 1.362 . S
C1281 H1245 0.930 . S
C1281 C1276 1.390 . S
C1281 C1280 1.362 . S
C1282 C1271 1.492 . S
C1282 C1283 1.377 . S
C1282 C1287 1.397 . S
C1283 H1246 0.931 . S
C1283 C1282 1.377 . S
C1283 C1284 1.376 . S
C1284 H1247 0.930 . S
C1284 C1283 1.376 . S
C1284 C1285 1.376 . S
C1285 C1284 1.376 . S
C1285 C1286 1.378 . S
C1285 C1312 1.486 . S
C1286 H1248 0.930 . S
C1286 C1285 1.378 . S
C1286 C1287 1.376 . S
C1287 H1249 0.929 . S
C1287 C1282 1.397 . S
C1287 C1286 1.376 . S
C1288 C1272 1.509 . S
C1288 C1289 1.391 . S
C1288 C1293 1.386 . S
C1289 H1250 0.930 . S
C1289 C1288 1.391 . S
C1289 C1290 1.375 . S
C1290 H1251 0.931 . S
C1290 C1289 1.375 . S
C1290 C1291 1.375 . S
C1291 C1290 1.375 . S
C1291 C1292 1.361 . S
C1292 H1252 0.930 . S
C1292 C1291 1.361 . S
C1292 C1293 1.399 . S
C1293 H1253 0.929 . S
C1293 C1288 1.386 . S
C1293 C1292 1.399 . S
C1294 C1273 1.485 . S
C1294 C1295 1.394 . S
C1294 C1299 1.360 . S
C1295 H1254 0.931 . S
C1295 C1294 1.394 . S
C1295 C1296 1.372 . S
C1296 H1255 0.930 . S
C1296 C1295 1.372 . S
C1296 C1297 1.397 . S
C1297 C1296 1.397 . S
C1297 C1298 1.390 . S
C1297 C1313 1.476 . S
C1298 H1256 0.930 . S
C1298 C1297 1.390 . S
C1298 C1299 1.366 . S
C1299 H1257 0.932 . S
C1299 C1294 1.360 . S
C1299 C1298 1.366 . S
C1300 C1274 1.490 . S
C1300 C1301 1.380 . S
C1300 C1305 1.386 . S
C1301 H1258 0.930 . S
C1301 C1300 1.380 . S
C1301 C1302 1.381 . S
C1302 H1259 0.929 . S
C1302 C1301 1.381 . S
C1302 C1303 1.371 . S
C1303 C1302 1.371 . S
C1303 C1304 1.380 . S
C1304 H1260 0.931 . S
C1304 C1303 1.380 . S
C1304 C1305 1.387 . S
C1305 H1261 0.930 . S
C1305 C1300 1.386 . S
C1305 C1304 1.387 . S
C1306 C1275 1.519 . S
C1306 C1307 1.377 . S
C1306 C1311 1.361 . S
C1307 H1262 0.929 . S
C1307 C1306 1.377 . S
C1307 C1308 1.386 . S
C1308 H1263 0.931 . S
C1308 C1307 1.386 . S
C1308 C1309 1.363 . S
C1309 C1308 1.363 . S
C1309 C1310 1.385 . S
C1310 H1264 0.930 . S
C1310 C1309 1.385 . S
C1310 C1311 1.396 . S
C1311 H1265 0.929 . S
C1311 C1306 1.361 . S
C1311 C1310 1.396 . S
C1312 O1266 1.300 . S
C1312 O1267 1.209 . S
C1312 C1285 1.486 . S
C1313 O1268 1.199 . S
C1313 O1269 1.297 . S
C1313 C1297 1.476 . S
H1314 O1340 0.856 . S
H1315 O1343 0.854 . S
H1316 C1351 0.930 . S
H1317 C1352 0.930 . S
H1318 C1354 0.930 . S
H1319 C1355 0.930 . S
H1320 C1357 0.931 . S
H1321 C1358 0.930 1_655 S
H1322 C1360 0.930 . S
H1323 C1361 0.929 . S
H1324 C1363 0.930 . S
H1325 C1364 0.929 1_655 S
H1326 C1366 0.930 . S
H1327 C1367 0.929 . S
H1328 C1369 0.931 . S
H1329 C1370 0.930 . S
H1330 C1372 0.930 . S
H1331 C1373 0.932 . S
H1332 C1375 0.930 . S
H1333 C1376 0.929 . S
H1334 C1378 0.931 . S
H1335 C1379 0.930 . S
H1336 C1381 0.929 . S
H1337 C1382 0.931 . S
H1338 C1384 0.930 . S
H1339 C1385 0.929 . S
O1340 H1314 0.856 . S
O1340 C1386 1.300 . S
O1341 C1386 1.209 . S
O1342 C1387 1.199 1_655 S
O1343 H1315 0.854 . S
O1343 C1387 1.297 . S
C1344 C1345 1.404 . S
C1344 C1349 1.394 . S
C1344 C1350 1.492 . S
C1345 C1344 1.404 . S
C1345 C1346 1.396 . S
C1345 C1356 1.492 . S
C1346 C1345 1.396 . S
C1346 C1347 1.397 . S
C1346 C1362 1.509 . S
C1347 C1346 1.397 . S
C1347 C1348 1.419 . S
C1347 C1368 1.485 . S
C1348 C1347 1.419 . S
C1348 C1349 1.406 . S
C1348 C1374 1.491 1_455 S
C1349 C1344 1.394 . S
C1349 C1348 1.406 . S
C1349 C1380 1.493 1_455 S
C1350 C1344 1.492 . S
C1350 C1351 1.363 1_455 S
C1350 C1355 1.390 . S
C1351 H1316 0.930 . S
C1351 C1350 1.363 1_655 S
C1351 C1352 1.372 . S
C1352 H1317 0.930 . S
C1352 C1351 1.372 . S
C1352 C1353 1.383 . S
C1353 C1352 1.383 . S
C1353 C1354 1.395 1_655 S
C1354 H1318 0.930 . S
C1354 C1353 1.395 1_455 S
C1354 C1355 1.362 . S
C1355 H1319 0.930 . S
C1355 C1350 1.390 . S
C1355 C1354 1.362 . S
C1356 C1345 1.492 . S
C1356 C1357 1.377 1_455 S
C1356 C1361 1.397 . S
C1357 H1320 0.931 . S
C1357 C1356 1.377 1_655 S
C1357 C1358 1.376 1_655 S
C1358 H1321 0.930 1_455 S
C1358 C1357 1.376 1_455 S
C1358 C1359 1.376 . S
C1359 C1358 1.376 . S
C1359 C1360 1.378 . S
C1359 C1386 1.486 . S
C1360 H1322 0.930 . S
C1360 C1359 1.378 . S
C1360 C1361 1.376 . S
C1361 H1323 0.929 . S
C1361 C1356 1.397 . S
C1361 C1360 1.376 . S
C1362 C1346 1.509 . S
C1362 C1363 1.391 1_455 S
C1362 C1367 1.386 . S
C1363 H1324 0.930 . S
C1363 C1362 1.391 1_655 S
C1363 C1364 1.372 1_655 S
C1364 H1325 0.929 1_455 S
C1364 C1363 1.372 1_455 S
C1364 C1365 1.380 . S
C1365 C1364 1.380 . S
C1365 C1366 1.361 . S
C1366 H1326 0.930 . S
C1366 C1365 1.361 . S
C1366 C1367 1.399 . S
C1367 H1327 0.929 . S
C1367 C1362 1.386 . S
C1367 C1366 1.399 . S
C1368 C1347 1.485 . S
C1368 C1369 1.394 1_455 S
C1368 C1373 1.360 . S
C1369 H1328 0.931 . S
C1369 C1368 1.394 1_655 S
C1369 C1370 1.372 . S
C1370 H1329 0.930 . S
C1370 C1369 1.372 . S
C1370 C1371 1.397 1_655 S
C1371 C1370 1.397 1_455 S
C1371 C1372 1.390 . S
C1371 C1387 1.476 . S
C1372 H1330 0.930 . S
C1372 C1371 1.390 . S
C1372 C1373 1.366 . S
C1373 H1331 0.932 . S
C1373 C1368 1.360 . S
C1373 C1372 1.366 . S
C1374 C1348 1.491 1_655 S
C1374 C1375 1.380 . S
C1374 C1379 1.386 1_655 S
C1375 H1332 0.930 . S
C1375 C1374 1.380 . S
C1375 C1376 1.381 . S
C1376 H1333 0.929 . S
C1376 C1375 1.381 . S
C1376 C1377 1.371 . S
C1377 C1376 1.371 . S
C1377 C1378 1.380 1_655 S
C1378 H1334 0.931 . S
C1378 C1377 1.380 1_455 S
C1378 C1379 1.387 . S
C1379 H1335 0.930 . S
C1379 C1374 1.386 1_455 S
C1379 C1378 1.387 . S
C1380 C1349 1.493 1_655 S
C1380 C1381 1.401 . S
C1380 C1385 1.345 1_655 S
C1381 H1336 0.929 . S
C1381 C1380 1.401 . S
C1381 C1382 1.386 . S
C1382 H1337 0.931 . S
C1382 C1381 1.386 . S
C1382 C1383 1.362 . S
C1383 C1382 1.362 . S
C1383 C1384 1.387 1_655 S
C1384 H1338 0.930 . S
C1384 C1383 1.387 1_455 S
C1384 C1385 1.396 . S
C1385 H1339 0.929 . S
C1385 C1380 1.345 1_455 S
C1385 C1384 1.396 . S
C1386 O1340 1.300 . S
C1386 O1341 1.209 . S
C1386 C1359 1.486 . S
C1387 O1342 1.199 1_455 S
C1387 O1343 1.297 . S
C1387 C1371 1.476 . S
H1388 O1414 0.856 . S
H1389 O1417 0.854 . S
H1390 C1425 0.930 . S
H1391 C1426 0.930 . S
H1392 C1428 0.930 . S
H1393 C1429 0.930 . S
H1394 C1431 0.931 . S
H1395 C1432 0.930 . S
H1396 C1434 0.930 . S
H1397 C1435 0.929 . S
H1398 C1437 0.930 . S
H1399 C1438 0.931 . S
H1400 C1440 0.930 . S
H1401 C1441 0.929 . S
H1402 C1443 0.931 . S
H1403 C1444 0.930 . S
H1404 C1446 0.930 . S
H1405 C1447 0.932 . S
H1406 C1449 0.930 . S
H1407 C1450 0.929 . S
H1408 C1452 0.931 . S
H1409 C1453 0.930 . S
H1410 C1455 0.929 . S
H1411 C1456 0.931 . S
H1412 C1458 0.930 . S
H1413 C1459 0.929 . S
O1414 H1388 0.856 . S
O1414 C1460 1.300 . S
O1415 C1460 1.209 . S
O1416 C1461 1.199 . S
O1417 H1389 0.854 . S
O1417 C1461 1.297 . S
C1418 C1419 1.404 . S
C1418 C1423 1.397 . S
C1418 C1424 1.492 . S
C1419 C1418 1.404 . S
C1419 C1420 1.396 . S
C1419 C1430 1.492 . S
C1420 C1419 1.396 . S
C1420 C1421 1.397 . S
C1420 C1436 1.509 . S
C1421 C1420 1.397 . S
C1421 C1422 1.412 . S
C1421 C1442 1.485 . S
C1422 C1421 1.412 . S
C1422 C1423 1.388 . S
C1422 C1448 1.490 . S
C1423 C1418 1.397 . S
C1423 C1422 1.388 . S
C1423 C1454 1.519 . S
C1424 C1418 1.492 . S
C1424 C1425 1.363 . S
C1424 C1429 1.390 . S
C1425 H1390 0.930 . S
C1425 C1424 1.363 . S
C1425 C1426 1.372 . S
C1426 H1391 0.930 . S
C1426 C1425 1.372 . S
C1426 C1427 1.383 . S
C1427 C1426 1.383 . S
C1427 C1428 1.395 . S
C1428 H1392 0.930 . S
C1428 C1427 1.395 . S
C1428 C1429 1.362 . S
C1429 H1393 0.930 . S
C1429 C1424 1.390 . S
C1429 C1428 1.362 . S
C1430 C1419 1.492 . S
C1430 C1431 1.377 . S
C1430 C1435 1.397 . S
C1431 H1394 0.931 . S
C1431 C1430 1.377 . S
C1431 C1432 1.376 . S
C1432 H1395 0.930 . S
C1432 C1431 1.376 . S
C1432 C1433 1.376 . S
C1433 C1432 1.376 . S
C1433 C1434 1.378 . S
C1433 C1460 1.486 . S
C1434 H1396 0.930 . S
C1434 C1433 1.378 . S
C1434 C1435 1.376 . S
C1435 H1397 0.929 . S
C1435 C1430 1.397 . S
C1435 C1434 1.376 . S
C1436 C1420 1.509 . S
C1436 C1437 1.391 . S
C1436 C1441 1.386 . S
C1437 H1398 0.930 . S
C1437 C1436 1.391 . S
C1437 C1438 1.375 . S
C1438 H1399 0.931 . S
C1438 C1437 1.375 . S
C1438 C1439 1.375 . S
C1439 C1438 1.375 . S
C1439 C1440 1.361 . S
C1440 H1400 0.930 . S
C1440 C1439 1.361 . S
C1440 C1441 1.399 . S
C1441 H1401 0.929 . S
C1441 C1436 1.386 . S
C1441 C1440 1.399 . S
C1442 C1421 1.485 . S
C1442 C1443 1.394 . S
C1442 C1447 1.360 . S
C1443 H1402 0.931 . S
C1443 C1442 1.394 . S
C1443 C1444 1.372 . S
C1444 H1403 0.930 . S
C1444 C1443 1.372 . S
C1444 C1445 1.397 . S
C1445 C1444 1.397 . S
C1445 C1446 1.390 . S
C1445 C1461 1.476 . S
C1446 H1404 0.930 . S
C1446 C1445 1.390 . S
C1446 C1447 1.366 . S
C1447 H1405 0.932 . S
C1447 C1442 1.360 . S
C1447 C1446 1.366 . S
C1448 C1422 1.490 . S
C1448 C1449 1.380 . S
C1448 C1453 1.386 . S
C1449 H1406 0.930 . S
C1449 C1448 1.380 . S
C1449 C1450 1.381 . S
C1450 H1407 0.929 . S
C1450 C1449 1.381 . S
C1450 C1451 1.371 . S
C1451 C1450 1.371 . S
C1451 C1452 1.380 . S
C1452 H1408 0.931 . S
C1452 C1451 1.380 . S
C1452 C1453 1.387 . S
C1453 H1409 0.930 . S
C1453 C1448 1.386 . S
C1453 C1452 1.387 . S
C1454 C1423 1.519 . S
C1454 C1455 1.377 . S
C1454 C1459 1.361 . S
C1455 H1410 0.929 . S
C1455 C1454 1.377 . S
C1455 C1456 1.386 . S
C1456 H1411 0.931 . S
C1456 C1455 1.386 . S
C1456 C1457 1.363 . S
C1457 C1456 1.363 . S
C1457 C1458 1.385 . S
C1458 H1412 0.930 . S
C1458 C1457 1.385 . S
C1458 C1459 1.396 . S
C1459 H1413 0.929 . S
C1459 C1454 1.361 . S
C1459 C1458 1.396 . S
C1460 O1414 1.300 . S
C1460 O1415 1.209 . S
C1460 C1433 1.486 . S
C1461 O1416 1.199 . S
C1461 O1417 1.297 . S
C1461 C1445 1.476 . S
H1462 O1488 0.856 . S
H1463 O1491 0.854 . S
H1464 C1499 0.930 . S
H1465 C1500 0.930 . S
H1466 C1502 0.930 . S
H1467 C1503 0.930 . S
H1468 C1505 0.931 . S
H1469 C1506 0.936 . S
H1470 C1508 0.930 . S
H1471 C1509 0.929 . S
H1472 C1511 0.930 . S
H1473 C1512 0.978 . S
H1474 C1514 0.930 . S
H1475 C1515 0.929 . S
H1476 C1517 0.931 . S
H1477 C1518 0.930 . S
H1478 C1520 0.930 . S
H1479 C1521 0.932 . S
H1480 C1523 0.930 . S
H1481 C1524 0.929 . S
H1482 C1526 0.931 . S
H1483 C1527 0.930 . S
H1484 C1529 0.929 . S
H1485 C1530 0.931 . S
H1486 C1532 0.930 . S
H1487 C1533 0.929 . S
O1488 H1462 0.856 . S
O1488 C1534 1.300 . S
O1489 C1534 1.209 . S
O1490 C1535 1.199 1_545 S
O1491 H1463 0.854 . S
O1491 C1535 1.297 . S
C1492 C1493 1.404 . S
C1492 C1497 1.413 . S
C1492 C1498 1.492 . S
C1493 C1492 1.404 . S
C1493 C1494 1.396 . S
C1493 C1504 1.492 . S
C1494 C1493 1.396 . S
C1494 C1495 1.397 . S
C1494 C1510 1.509 . S
C1495 C1494 1.397 . S
C1495 C1496 1.409 . S
C1495 C1516 1.485 . S
C1496 C1495 1.409 . S
C1496 C1497 1.373 . S
C1496 C1522 1.484 1_565 S
C1497 C1492 1.413 . S
C1497 C1496 1.373 . S
C1497 C1528 1.537 1_565 S
C1498 C1492 1.492 . S
C1498 C1499 1.363 1_565 S
C1498 C1503 1.390 . S
C1499 H1464 0.930 . S
C1499 C1498 1.363 1_545 S
C1499 C1500 1.372 . S
C1500 H1465 0.930 . S
C1500 C1499 1.372 . S
C1500 C1501 1.383 . S
C1501 C1500 1.383 . S
C1501 C1502 1.395 1_545 S
C1502 H1466 0.930 . S
C1502 C1501 1.395 1_565 S
C1502 C1503 1.362 . S
C1503 H1467 0.930 . S
C1503 C1498 1.390 . S
C1503 C1502 1.362 . S
C1504 C1493 1.492 . S
C1504 C1505 1.377 1_565 S
C1504 C1509 1.397 . S
C1505 H1468 0.931 . S
C1505 C1504 1.377 1_545 S
C1505 C1506 1.379 . S
C1506 H1469 0.936 . S
C1506 C1505 1.379 . S
C1506 C1507 1.367 1_545 S
C1507 C1506 1.367 1_565 S
C1507 C1508 1.378 . S
C1507 C1534 1.486 . S
C1508 H1470 0.930 . S
C1508 C1507 1.378 . S
C1508 C1509 1.376 . S
C1509 H1471 0.929 . S
C1509 C1504 1.397 . S
C1509 C1508 1.376 . S
C1510 C1494 1.509 . S
C1510 C1511 1.391 1_565 S
C1510 C1515 1.386 . S
C1511 H1472 0.930 . S
C1511 C1510 1.391 1_545 S
C1511 C1512 1.368 . S
C1512 H1473 0.978 . S
C1512 C1511 1.368 . S
C1512 C1513 1.337 1_545 S
C1513 C1512 1.337 1_565 S
C1513 C1514 1.361 . S
C1514 H1474 0.930 . S
C1514 C1513 1.361 . S
C1514 C1515 1.399 . S
C1515 H1475 0.929 . S
C1515 C1510 1.386 . S
C1515 C1514 1.399 . S
C1516 C1495 1.485 . S
C1516 C1517 1.394 1_565 S
C1516 C1521 1.360 . S
C1517 H1476 0.931 . S
C1517 C1516 1.394 1_545 S
C1517 C1518 1.372 . S
C1518 H1477 0.930 . S
C1518 C1517 1.372 . S
C1518 C1519 1.397 1_545 S
C1519 C1518 1.397 1_565 S
C1519 C1520 1.390 . S
C1519 C1535 1.476 . S
C1520 H1478 0.930 . S
C1520 C1519 1.390 . S
C1520 C1521 1.366 . S
C1521 H1479 0.932 . S
C1521 C1516 1.360 . S
C1521 C1520 1.366 . S
C1522 C1496 1.484 1_545 S
C1522 C1523 1.380 . S
C1522 C1527 1.386 1_545 S
C1523 H1480 0.930 . S
C1523 C1522 1.380 . S
C1523 C1524 1.381 . S
C1524 H1481 0.929 . S
C1524 C1523 1.381 . S
C1524 C1525 1.371 . S
C1525 C1524 1.371 . S
C1525 C1526 1.380 1_545 S
C1526 H1482 0.931 . S
C1526 C1525 1.380 1_565 S
C1526 C1527 1.387 . S
C1527 H1483 0.930 . S
C1527 C1522 1.386 1_565 S
C1527 C1526 1.387 . S
C1528 C1497 1.537 1_545 S
C1528 C1529 1.381 . S
C1528 C1533 1.354 1_545 S
C1529 H1484 0.929 . S
C1529 C1528 1.381 . S
C1529 C1530 1.386 . S
C1530 H1485 0.931 . S
C1530 C1529 1.386 . S
C1530 C1531 1.340 1_545 S
C1531 C1530 1.340 1_565 S
C1531 C1532 1.398 . S
C1532 H1486 0.930 . S
C1532 C1531 1.398 . S
C1532 C1533 1.396 . S
C1533 H1487 0.929 . S
C1533 C1528 1.354 1_565 S
C1533 C1532 1.396 . S
C1534 O1488 1.300 . S
C1534 O1489 1.209 . S
C1534 C1507 1.486 . S
C1535 O1490 1.199 1_565 S
C1535 O1491 1.297 . S
C1535 C1519 1.476 . S
H1536 O1562 0.856 . S
H1537 O1565 0.854 . S
H1538 C1573 0.930 . S
H1539 C1574 0.930 . S
H1540 C1576 0.930 . S
H1541 C1577 0.930 . S
H1542 C1579 0.931 . S
H1543 C1580 0.930 . S
H1544 C1582 0.930 . S
H1545 C1583 0.929 . S
H1546 C1585 0.930 . S
H1547 C1586 0.931 . S
H1548 C1588 0.930 . S
H1549 C1589 0.929 . S
H1550 C1591 0.931 . S
H1551 C1592 0.930 . S
H1552 C1594 0.930 . S
H1553 C1595 0.932 . S
H1554 C1597 0.930 . S
H1555 C1598 0.929 . S
H1556 C1600 0.931 . S
H1557 C1601 0.930 . S
H1558 C1603 0.929 . S
H1559 C1604 0.931 . S
H1560 C1606 0.930 . S
H1561 C1607 0.929 . S
O1562 H1536 0.856 . S
O1562 C1608 1.300 . S
O1563 C1608 1.209 1_565 S
O1564 C1609 1.199 1_545 S
O1565 H1537 0.854 . S
O1565 C1609 1.297 . S
C1566 C1567 1.404 . S
C1566 C1571 1.397 1_545 S
C1566 C1572 1.492 . S
C1567 C1566 1.404 . S
C1567 C1568 1.396 . S
C1567 C1578 1.492 . S
C1568 C1567 1.396 . S
C1568 C1569 1.396 1_545 S
C1568 C1584 1.529 . S
C1569 C1568 1.396 1_565 S
C1569 C1570 1.418 . S
C1569 C1590 1.489 . S
C1570 C1569 1.418 . S
C1570 C1571 1.375 . S
C1570 C1596 1.490 . S
C1571 C1566 1.397 1_565 S
C1571 C1570 1.375 . S
C1571 C1602 1.519 . S
C1572 C1566 1.492 . S
C1572 C1573 1.363 . S
C1572 C1577 1.390 1_545 S
C1573 H1538 0.930 . S
C1573 C1572 1.363 . S
C1573 C1574 1.372 . S
C1574 H1539 0.930 . S
C1574 C1573 1.372 . S
C1574 C1575 1.383 . S
C1575 C1574 1.383 . S
C1575 C1576 1.395 1_545 S
C1576 H1540 0.930 . S
C1576 C1575 1.395 1_565 S
C1576 C1577 1.362 . S
C1577 H1541 0.930 . S
C1577 C1572 1.390 1_565 S
C1577 C1576 1.362 . S
C1578 C1567 1.492 . S
C1578 C1579 1.377 . S
C1578 C1583 1.397 1_545 S
C1579 H1542 0.931 . S
C1579 C1578 1.377 . S
C1579 C1580 1.376 . S
C1580 H1543 0.930 . S
C1580 C1579 1.376 . S
C1580 C1581 1.376 . S
C1581 C1580 1.376 . S
C1581 C1582 1.378 1_545 S
C1581 C1608 1.486 . S
C1582 H1544 0.930 . S
C1582 C1581 1.378 1_565 S
C1582 C1583 1.376 . S
C1583 H1545 0.929 . S
C1583 C1578 1.397 1_565 S
C1583 C1582 1.376 . S
C1584 C1568 1.529 . S
C1584 C1585 1.419 . S
C1584 C1589 1.341 1_545 S
C1585 H1546 0.930 . S
C1585 C1584 1.419 . S
C1585 C1586 1.375 . S
C1586 H1547 0.931 . S
C1586 C1585 1.375 . S
C1586 C1587 1.405 . S
C1587 C1586 1.405 . S
C1587 C1588 1.345 1_545 S
C1588 H1548 0.930 . S
C1588 C1587 1.345 1_565 S
C1588 C1589 1.399 . S
C1589 H1549 0.929 . S
C1589 C1584 1.341 1_565 S
C1589 C1588 1.399 . S
C1590 C1569 1.489 . S
C1590 C1591 1.394 1_565 S
C1590 C1595 1.360 . S
C1591 H1550 0.931 . S
C1591 C1590 1.394 1_545 S
C1591 C1592 1.372 . S
C1592 H1551 0.930 . S
C1592 C1591 1.372 . S
C1592 C1593 1.397 1_545 S
C1593 C1592 1.397 1_565 S
C1593 C1594 1.390 . S
C1593 C1609 1.476 . S
C1594 H1552 0.930 . S
C1594 C1593 1.390 . S
C1594 C1595 1.366 . S
C1595 H1553 0.932 . S
C1595 C1590 1.360 . S
C1595 C1594 1.366 . S
C1596 C1570 1.490 . S
C1596 C1597 1.359 1_565 S
C1596 C1601 1.412 . S
C1597 H1554 0.930 . S
C1597 C1596 1.359 1_545 S
C1597 C1598 1.381 . S
C1598 H1555 0.929 . S
C1598 C1597 1.381 . S
C1598 C1599 1.427 . S
C1599 C1598 1.427 . S
C1599 C1600 1.334 1_545 S
C1600 H1556 0.931 . S
C1600 C1599 1.334 1_565 S
C1600 C1601 1.387 . S
C1601 H1557 0.930 . S
C1601 C1596 1.412 . S
C1601 C1600 1.387 . S
C1602 C1571 1.519 . S
C1602 C1603 1.377 1_565 S
C1602 C1607 1.361 . S
C1603 H1558 0.929 . S
C1603 C1602 1.377 1_545 S
C1603 C1604 1.386 . S
C1604 H1559 0.931 . S
C1604 C1603 1.386 . S
C1604 C1605 1.363 1_545 S
C1605 C1604 1.363 1_565 S
C1605 C1606 1.385 . S
C1606 H1560 0.930 . S
C1606 C1605 1.385 . S
C1606 C1607 1.396 . S
C1607 H1561 0.929 . S
C1607 C1602 1.361 . S
C1607 C1606 1.396 . S
C1608 O1562 1.300 . S
C1608 O1563 1.209 1_545 S
C1608 C1581 1.486 . S
C1609 O1564 1.199 1_565 S
C1609 O1565 1.297 . S
C1609 C1593 1.476 . S
H1610 O1636 0.856 . S
H1611 O1639 0.854 . S
H1612 C1647 0.930 . S
H1613 C1648 0.930 . S
H1614 C1650 0.930 . S
H1615 C1651 0.930 . S
H1616 C1653 0.931 . S
H1617 C1654 0.930 . S
H1618 C1656 0.930 . S
H1619 C1657 0.929 . S
H1620 C1659 0.930 . S
H1621 C1660 0.931 . S
H1622 C1662 0.930 . S
H1623 C1663 0.929 . S
H1624 C1665 0.931 . S
H1625 C1666 0.930 . S
H1626 C1668 0.930 . S
H1627 C1669 0.932 . S
H1628 C1671 0.930 . S
H1629 C1672 0.929 . S
H1630 C1674 0.931 . S
H1631 C1675 0.930 . S
H1632 C1677 0.929 . S
H1633 C1678 0.931 . S
H1634 C1680 0.930 . S
H1635 C1681 0.929 . S
O1636 H1610 0.856 . S
O1636 C1682 1.300 . S
O1637 C1682 1.209 1_455 S
O1638 C1683 1.199 1_655 S
O1639 H1611 0.854 . S
O1639 C1683 1.297 . S
C1640 C1641 1.404 . S
C1640 C1645 1.396 1_655 S
C1640 C1646 1.492 . S
C1641 C1640 1.404 . S
C1641 C1642 1.396 . S
C1641 C1652 1.492 . S
C1642 C1641 1.396 . S
C1642 C1643 1.398 . S
C1642 C1658 1.509 . S
C1643 C1642 1.398 . S
C1643 C1644 1.396 1_655 S
C1643 C1664 1.482 1_655 S
C1644 C1643 1.396 1_455 S
C1644 C1645 1.418 . S
C1644 C1670 1.484 . S
C1645 C1640 1.396 1_455 S
C1645 C1644 1.418 . S
C1645 C1676 1.516 . S
C1646 C1640 1.492 . S
C1646 C1647 1.363 . S
C1646 C1651 1.390 1_655 S
C1647 H1612 0.930 . S
C1647 C1646 1.363 . S
C1647 C1648 1.372 . S
C1648 H1613 0.930 . S
C1648 C1647 1.372 . S
C1648 C1649 1.383 . S
C1649 C1648 1.383 . S
C1649 C1650 1.395 1_655 S
C1650 H1614 0.930 . S
C1650 C1649 1.395 1_455 S
C1650 C1651 1.362 . S
C1651 H1615 0.930 . S
C1651 C1646 1.390 1_455 S
C1651 C1650 1.362 . S
C1652 C1641 1.492 . S
C1652 C1653 1.377 . S
C1652 C1657 1.397 1_655 S
C1653 H1616 0.931 . S
C1653 C1652 1.377 . S
C1653 C1654 1.376 . S
C1654 H1617 0.930 . S
C1654 C1653 1.376 . S
C1654 C1655 1.376 . S
C1655 C1654 1.376 . S
C1655 C1656 1.378 1_655 S
C1655 C1682 1.486 . S
C1656 H1618 0.930 . S
C1656 C1655 1.378 1_455 S
C1656 C1657 1.376 . S
C1657 H1619 0.929 . S
C1657 C1652 1.397 1_455 S
C1657 C1656 1.376 . S
C1658 C1642 1.509 . S
C1658 C1659 1.391 . S
C1658 C1663 1.386 1_655 S
C1659 H1620 0.930 . S
C1659 C1658 1.391 . S
C1659 C1660 1.375 . S
C1660 H1621 0.931 . S
C1660 C1659 1.375 . S
C1660 C1661 1.375 . S
C1661 C1660 1.375 . S
C1661 C1662 1.361 1_655 S
C1662 H1622 0.930 . S
C1662 C1661 1.361 1_455 S
C1662 C1663 1.399 . S
C1663 H1623 0.929 . S
C1663 C1658 1.386 1_455 S
C1663 C1662 1.399 . S
C1664 C1643 1.482 1_455 S
C1664 C1665 1.394 1_455 S
C1664 C1669 1.360 . S
C1665 H1624 0.931 . S
C1665 C1664 1.394 1_655 S
C1665 C1666 1.372 . S
C1666 H1625 0.930 . S
C1666 C1665 1.372 . S
C1666 C1667 1.397 1_655 S
C1667 C1666 1.397 1_455 S
C1667 C1668 1.390 . S
C1667 C1683 1.476 . S
C1668 H1626 0.930 . S
C1668 C1667 1.390 . S
C1668 C1669 1.366 . S
C1669 H1627 0.932 . S
C1669 C1664 1.360 . S
C1669 C1668 1.366 . S
C1670 C1644 1.484 . S
C1670 C1671 1.380 1_455 S
C1670 C1675 1.386 . S
C1671 H1628 0.930 . S
C1671 C1670 1.380 1_655 S
C1671 C1672 1.381 . S
C1672 H1629 0.929 . S
C1672 C1671 1.381 . S
C1672 C1673 1.371 1_655 S
C1673 C1672 1.371 1_455 S
C1673 C1674 1.380 . S
C1674 H1630 0.931 . S
C1674 C1673 1.380 . S
C1674 C1675 1.387 . S
C1675 H1631 0.930 . S
C1675 C1670 1.386 . S
C1675 C1674 1.387 . S
C1676 C1645 1.516 . S
C1676 C1677 1.377 1_455 S
C1676 C1681 1.361 . S
C1677 H1632 0.929 . S
C1677 C1676 1.377 1_655 S
C1677 C1678 1.386 . S
C1678 H1633 0.931 . S
C1678 C1677 1.386 . S
C1678 C1679 1.363 1_655 S
C1679 C1678 1.363 1_455 S
C1679 C1680 1.385 . S
C1680 H1634 0.930 . S
C1680 C1679 1.385 . S
C1680 C1681 1.396 . S
C1681 H1635 0.929 . S
C1681 C1676 1.361 . S
C1681 C1680 1.396 . S
C1682 O1636 1.300 . S
C1682 O1637 1.209 1_655 S
C1682 C1655 1.486 . S
C1683 O1638 1.199 1_455 S
C1683 O1639 1.297 . S
C1683 C1667 1.476 . S
H1684 O1710 0.856 . S
H1685 O1713 0.854 . S
H1686 C1721 0.930 . S
H1687 C1722 0.930 . S
H1688 C1724 0.930 . S
H1689 C1725 0.930 . S
H1690 C1727 0.931 . S
H1691 C1728 0.930 . S
H1692 C1730 0.930 . S
H1693 C1731 0.929 . S
H1694 C1733 0.930 . S
H1695 C1734 0.931 . S
H1696 C1736 0.930 . S
H1697 C1737 0.929 . S
H1698 C1739 0.931 . S
H1699 C1740 0.930 . S
H1700 C1742 0.930 . S
H1701 C1743 0.932 . S
H1702 C1745 0.930 . S
H1703 C1746 0.929 . S
H1704 C1748 0.931 . S
H1705 C1749 0.930 . S
H1706 C1751 0.929 . S
H1707 C1752 0.931 . S
H1708 C1754 0.930 . S
H1709 C1755 0.929 . S
O1710 H1684 0.856 . S
O1710 C1756 1.300 . S
O1711 C1756 1.209 . S
O1712 C1757 1.199 . S
O1713 H1685 0.854 . S
O1713 C1757 1.297 . S
C1714 C1715 1.404 . S
C1714 C1719 1.397 . S
C1714 C1720 1.492 . S
C1715 C1714 1.404 . S
C1715 C1716 1.396 . S
C1715 C1726 1.492 . S
C1716 C1715 1.396 . S
C1716 C1717 1.397 . S
C1716 C1732 1.509 . S
C1717 C1716 1.397 . S
C1717 C1718 1.412 . S
C1717 C1738 1.485 . S
C1718 C1717 1.412 . S
C1718 C1719 1.388 . S
C1718 C1744 1.490 . S
C1719 C1714 1.397 . S
C1719 C1718 1.388 . S
C1719 C1750 1.519 . S
C1720 C1714 1.492 . S
C1720 C1721 1.363 . S
C1720 C1725 1.390 . S
C1721 H1686 0.930 . S
C1721 C1720 1.363 . S
C1721 C1722 1.372 . S
C1722 H1687 0.930 . S
C1722 C1721 1.372 . S
C1722 C1723 1.383 . S
C1723 C1722 1.383 . S
C1723 C1724 1.395 . S
C1724 H1688 0.930 . S
C1724 C1723 1.395 . S
C1724 C1725 1.362 . S
C1725 H1689 0.930 . S
C1725 C1720 1.390 . S
C1725 C1724 1.362 . S
C1726 C1715 1.492 . S
C1726 C1727 1.377 . S
C1726 C1731 1.397 . S
C1727 H1690 0.931 . S
C1727 C1726 1.377 . S
C1727 C1728 1.376 . S
C1728 H1691 0.930 . S
C1728 C1727 1.376 . S
C1728 C1729 1.376 . S
C1729 C1728 1.376 . S
C1729 C1730 1.378 . S
C1729 C1756 1.486 . S
C1730 H1692 0.930 . S
C1730 C1729 1.378 . S
C1730 C1731 1.376 . S
C1731 H1693 0.929 . S
C1731 C1726 1.397 . S
C1731 C1730 1.376 . S
C1732 C1716 1.509 . S
C1732 C1733 1.391 . S
C1732 C1737 1.386 . S
C1733 H1694 0.930 . S
C1733 C1732 1.391 . S
C1733 C1734 1.375 . S
C1734 H1695 0.931 . S
C1734 C1733 1.375 . S
C1734 C1735 1.375 . S
C1735 C1734 1.375 . S
C1735 C1736 1.361 . S
C1736 H1696 0.930 . S
C1736 C1735 1.361 . S
C1736 C1737 1.399 . S
C1737 H1697 0.929 . S
C1737 C1732 1.386 . S
C1737 C1736 1.399 . S
C1738 C1717 1.485 . S
C1738 C1739 1.394 . S
C1738 C1743 1.360 . S
C1739 H1698 0.931 . S
C1739 C1738 1.394 . S
C1739 C1740 1.372 . S
C1740 H1699 0.930 . S
C1740 C1739 1.372 . S
C1740 C1741 1.397 . S
C1741 C1740 1.397 . S
C1741 C1742 1.390 . S
C1741 C1757 1.476 . S
C1742 H1700 0.930 . S
C1742 C1741 1.390 . S
C1742 C1743 1.366 . S
C1743 H1701 0.932 . S
C1743 C1738 1.360 . S
C1743 C1742 1.366 . S
C1744 C1718 1.490 . S
C1744 C1745 1.380 . S
C1744 C1749 1.386 . S
C1745 H1702 0.930 . S
C1745 C1744 1.380 . S
C1745 C1746 1.381 . S
C1746 H1703 0.929 . S
C1746 C1745 1.381 . S
C1746 C1747 1.371 . S
C1747 C1746 1.371 . S
C1747 C1748 1.380 . S
C1748 H1704 0.931 . S
C1748 C1747 1.380 . S
C1748 C1749 1.387 . S
C1749 H1705 0.930 . S
C1749 C1744 1.386 . S
C1749 C1748 1.387 . S
C1750 C1719 1.519 . S
C1750 C1751 1.377 . S
C1750 C1755 1.361 . S
C1751 H1706 0.929 . S
C1751 C1750 1.377 . S
C1751 C1752 1.386 . S
C1752 H1707 0.931 . S
C1752 C1751 1.386 . S
C1752 C1753 1.363 . S
C1753 C1752 1.363 . S
C1753 C1754 1.385 . S
C1754 H1708 0.930 . S
C1754 C1753 1.385 . S
C1754 C1755 1.396 . S
C1755 H1709 0.929 . S
C1755 C1750 1.361 . S
C1755 C1754 1.396 . S
C1756 O1710 1.300 . S
C1756 O1711 1.209 . S
C1756 C1729 1.486 . S
C1757 O1712 1.199 . S
C1757 O1713 1.297 . S
C1757 C1741 1.476 . S
H1758 O1784 0.856 . S
H1759 O1787 0.854 . S
H1760 C1795 0.930 . S
H1761 C1796 0.930 . S
H1762 C1798 0.930 . S
H1763 C1799 0.930 . S
H1764 C1801 0.931 . S
H1765 C1802 0.930 . S
H1766 C1804 0.930 . S
H1767 C1805 0.929 . S
H1768 C1807 0.930 . S
H1769 C1808 0.931 . S
H1770 C1810 0.930 . S
H1771 C1811 0.929 . S
H1772 C1813 0.931 . S
H1773 C1814 0.930 . S
H1774 C1816 0.930 . S
H1775 C1817 0.932 . S
H1776 C1819 0.930 . S
H1777 C1820 0.929 . S
H1778 C1822 0.931 . S
H1779 C1823 0.930 . S
H1780 C1825 0.929 . S
H1781 C1826 0.931 . S
H1782 C1828 0.930 . S
H1783 C1829 0.929 . S
O1784 H1758 0.856 . S
O1784 C1830 1.300 . S
O1785 C1830 1.209 . S
O1786 C1831 1.199 . S
O1787 H1759 0.854 . S
O1787 C1831 1.297 . S
C1788 C1789 1.404 . S
C1788 C1793 1.397 . S
C1788 C1794 1.492 . S
C1789 C1788 1.404 . S
C1789 C1790 1.396 . S
C1789 C1800 1.492 . S
C1790 C1789 1.396 . S
C1790 C1791 1.397 . S
C1790 C1806 1.509 . S
C1791 C1790 1.397 . S
C1791 C1792 1.412 . S
C1791 C1812 1.485 . S
C1792 C1791 1.412 . S
C1792 C1793 1.388 . S
C1792 C1818 1.490 . S
C1793 C1788 1.397 . S
C1793 C1792 1.388 . S
C1793 C1824 1.519 . S
C1794 C1788 1.492 . S
C1794 C1795 1.363 . S
C1794 C1799 1.390 . S
C1795 H1760 0.930 . S
C1795 C1794 1.363 . S
C1795 C1796 1.372 . S
C1796 H1761 0.930 . S
C1796 C1795 1.372 . S
C1796 C1797 1.383 . S
C1797 C1796 1.383 . S
C1797 C1798 1.395 . S
C1798 H1762 0.930 . S
C1798 C1797 1.395 . S
C1798 C1799 1.362 . S
C1799 H1763 0.930 . S
C1799 C1794 1.390 . S
C1799 C1798 1.362 . S
C1800 C1789 1.492 . S
C1800 C1801 1.377 . S
C1800 C1805 1.397 . S
C1801 H1764 0.931 . S
C1801 C1800 1.377 . S
C1801 C1802 1.376 . S
C1802 H1765 0.930 . S
C1802 C1801 1.376 . S
C1802 C1803 1.376 . S
C1803 C1802 1.376 . S
C1803 C1804 1.378 . S
C1803 C1830 1.486 . S
C1804 H1766 0.930 . S
C1804 C1803 1.378 . S
C1804 C1805 1.376 . S
C1805 H1767 0.929 . S
C1805 C1800 1.397 . S
C1805 C1804 1.376 . S
C1806 C1790 1.509 . S
C1806 C1807 1.391 . S
C1806 C1811 1.386 . S
C1807 H1768 0.930 . S
C1807 C1806 1.391 . S
C1807 C1808 1.375 . S
C1808 H1769 0.931 . S
C1808 C1807 1.375 . S
C1808 C1809 1.375 . S
C1809 C1808 1.375 . S
C1809 C1810 1.361 . S
C1810 H1770 0.930 . S
C1810 C1809 1.361 . S
C1810 C1811 1.399 . S
C1811 H1771 0.929 . S
C1811 C1806 1.386 . S
C1811 C1810 1.399 . S
C1812 C1791 1.485 . S
C1812 C1813 1.394 . S
C1812 C1817 1.360 . S
C1813 H1772 0.931 . S
C1813 C1812 1.394 . S
C1813 C1814 1.372 . S
C1814 H1773 0.930 . S
C1814 C1813 1.372 . S
C1814 C1815 1.397 . S
C1815 C1814 1.397 . S
C1815 C1816 1.390 . S
C1815 C1831 1.476 . S
C1816 H1774 0.930 . S
C1816 C1815 1.390 . S
C1816 C1817 1.366 . S
C1817 H1775 0.932 . S
C1817 C1812 1.360 . S
C1817 C1816 1.366 . S
C1818 C1792 1.490 . S
C1818 C1819 1.380 . S
C1818 C1823 1.386 . S
C1819 H1776 0.930 . S
C1819 C1818 1.380 . S
C1819 C1820 1.381 . S
C1820 H1777 0.929 . S
C1820 C1819 1.381 . S
C1820 C1821 1.371 . S
C1821 C1820 1.371 . S
C1821 C1822 1.380 . S
C1822 H1778 0.931 . S
C1822 C1821 1.380 . S
C1822 C1823 1.387 . S
C1823 H1779 0.930 . S
C1823 C1818 1.386 . S
C1823 C1822 1.387 . S
C1824 C1793 1.519 . S
C1824 C1825 1.377 . S
C1824 C1829 1.361 . S
C1825 H1780 0.929 . S
C1825 C1824 1.377 . S
C1825 C1826 1.386 . S
C1826 H1781 0.931 . S
C1826 C1825 1.386 . S
C1826 C1827 1.363 . S
C1827 C1826 1.363 . S
C1827 C1828 1.385 . S
C1828 H1782 0.930 . S
C1828 C1827 1.385 . S
C1828 C1829 1.396 . S
C1829 H1783 0.929 . S
C1829 C1824 1.361 . S
C1829 C1828 1.396 . S
C1830 O1784 1.300 . S
C1830 O1785 1.209 . S
C1830 C1803 1.486 . S
C1831 O1786 1.199 . S
C1831 O1787 1.297 . S
C1831 C1815 1.476 . S
H1832 O1858 0.856 . S
H1833 O1861 0.854 . S
H1834 C1869 0.930 . S
H1835 C1870 0.930 . S
H1836 C1872 0.930 . S
H1837 C1873 0.930 . S
H1838 C1875 0.931 . S
H1839 C1876 0.930 . S
H1840 C1878 0.930 . S
H1841 C1879 0.929 . S
H1842 C1881 0.930 . S
H1843 C1882 0.931 . S
H1844 C1884 0.930 . S
H1845 C1885 0.929 . S
H1846 C1887 0.931 . S
H1847 C1888 0.930 . S
H1848 C1890 0.930 . S
H1849 C1891 0.932 . S
H1850 C1893 0.930 . S
H1851 C1894 0.929 . S
H1852 C1896 0.931 . S
H1853 C1897 0.930 . S
H1854 C1899 0.929 . S
H1855 C1900 0.931 . S
H1856 C1902 0.930 . S
H1857 C1903 0.929 . S
O1858 H1832 0.856 . S
O1858 C1904 1.300 . S
O1859 C1904 1.209 . S
O1860 C1905 1.199 . S
O1861 H1833 0.854 . S
O1861 C1905 1.297 . S
C1862 C1863 1.404 . S
C1862 C1867 1.397 . S
C1862 C1868 1.492 . S
C1863 C1862 1.404 . S
C1863 C1864 1.396 . S
C1863 C1874 1.492 . S
C1864 C1863 1.396 . S
C1864 C1865 1.397 . S
C1864 C1880 1.509 . S
C1865 C1864 1.397 . S
C1865 C1866 1.412 . S
C1865 C1886 1.485 . S
C1866 C1865 1.412 . S
C1866 C1867 1.388 . S
C1866 C1892 1.490 . S
C1867 C1862 1.397 . S
C1867 C1866 1.388 . S
C1867 C1898 1.519 . S
C1868 C1862 1.492 . S
C1868 C1869 1.363 . S
C1868 C1873 1.390 . S
C1869 H1834 0.930 . S
C1869 C1868 1.363 . S
C1869 C1870 1.372 . S
C1870 H1835 0.930 . S
C1870 C1869 1.372 . S
C1870 C1871 1.383 . S
C1871 C1870 1.383 . S
C1871 C1872 1.395 . S
C1872 H1836 0.930 . S
C1872 C1871 1.395 . S
C1872 C1873 1.362 . S
C1873 H1837 0.930 . S
C1873 C1868 1.390 . S
C1873 C1872 1.362 . S
C1874 C1863 1.492 . S
C1874 C1875 1.377 . S
C1874 C1879 1.397 . S
C1875 H1838 0.931 . S
C1875 C1874 1.377 . S
C1875 C1876 1.376 . S
C1876 H1839 0.930 . S
C1876 C1875 1.376 . S
C1876 C1877 1.376 . S
C1877 C1876 1.376 . S
C1877 C1878 1.378 . S
C1877 C1904 1.486 . S
C1878 H1840 0.930 . S
C1878 C1877 1.378 . S
C1878 C1879 1.376 . S
C1879 H1841 0.929 . S
C1879 C1874 1.397 . S
C1879 C1878 1.376 . S
C1880 C1864 1.509 . S
C1880 C1881 1.391 . S
C1880 C1885 1.386 . S
C1881 H1842 0.930 . S
C1881 C1880 1.391 . S
C1881 C1882 1.375 . S
C1882 H1843 0.931 . S
C1882 C1881 1.375 . S
C1882 C1883 1.375 . S
C1883 C1882 1.375 . S
C1883 C1884 1.361 . S
C1884 H1844 0.930 . S
C1884 C1883 1.361 . S
C1884 C1885 1.399 . S
C1885 H1845 0.929 . S
C1885 C1880 1.386 . S
C1885 C1884 1.399 . S
C1886 C1865 1.485 . S
C1886 C1887 1.394 . S
C1886 C1891 1.360 . S
C1887 H1846 0.931 . S
C1887 C1886 1.394 . S
C1887 C1888 1.372 . S
C1888 H1847 0.930 . S
C1888 C1887 1.372 . S
C1888 C1889 1.397 . S
C1889 C1888 1.397 . S
C1889 C1890 1.390 . S
C1889 C1905 1.476 . S
C1890 H1848 0.930 . S
C1890 C1889 1.390 . S
C1890 C1891 1.366 . S
C1891 H1849 0.932 . S
C1891 C1886 1.360 . S
C1891 C1890 1.366 . S
C1892 C1866 1.490 . S
C1892 C1893 1.380 . S
C1892 C1897 1.386 . S
C1893 H1850 0.930 . S
C1893 C1892 1.380 . S
C1893 C1894 1.381 . S
C1894 H1851 0.929 . S
C1894 C1893 1.381 . S
C1894 C1895 1.371 . S
C1895 C1894 1.371 . S
C1895 C1896 1.380 . S
C1896 H1852 0.931 . S
C1896 C1895 1.380 . S
C1896 C1897 1.387 . S
C1897 H1853 0.930 . S
C1897 C1892 1.386 . S
C1897 C1896 1.387 . S
C1898 C1867 1.519 . S
C1898 C1899 1.377 . S
C1898 C1903 1.361 . S
C1899 H1854 0.929 . S
C1899 C1898 1.377 . S
C1899 C1900 1.386 . S
C1900 H1855 0.931 . S
C1900 C1899 1.386 . S
C1900 C1901 1.363 . S
C1901 C1900 1.363 . S
C1901 C1902 1.385 . S
C1902 H1856 0.930 . S
C1902 C1901 1.385 . S
C1902 C1903 1.396 . S
C1903 H1857 0.929 . S
C1903 C1898 1.361 . S
C1903 C1902 1.396 . S
C1904 O1858 1.300 . S
C1904 O1859 1.209 . S
C1904 C1877 1.486 . S
C1905 O1860 1.199 . S
C1905 O1861 1.297 . S
C1905 C1889 1.476 . S
H1906 O1932 0.856 . S
H1907 O1935 0.854 . S
H1908 C1943 0.930 . S
H1909 C1944 0.930 . S
H1910 C1946 0.930 . S
H1911 C1947 0.930 . S
H1912 C1949 0.931 . S
H1913 C1950 0.930 . S
H1914 C1952 0.930 . S
H1915 C1953 0.929 . S
H1916 C1955 0.930 . S
H1917 C1956 0.931 . S
H1918 C1958 0.930 . S
H1919 C1959 0.929 . S
H1920 C1961 0.931 . S
H1921 C1962 0.930 . S
H1922 C1964 0.930 . S
H1923 C1965 0.932 . S
H1924 C1967 0.930 . S
H1925 C1968 0.929 . S
H1926 C1970 0.931 . S
H1927 C1971 0.930 . S
H1928 C1973 0.929 . S
H1929 C1974 0.931 . S
H1930 C1976 0.930 . S
H1931 C1977 0.929 . S
O1932 H1906 0.856 . S
O1932 C1978 1.300 . S
O1933 C1978 1.209 . S
O1934 C1979 1.199 . S
O1935 H1907 0.854 . S
O1935 C1979 1.297 . S
C1936 C1937 1.404 . S
C1936 C1941 1.397 . S
C1936 C1942 1.492 . S
C1937 C1936 1.404 . S
C1937 C1938 1.396 . S
C1937 C1948 1.492 . S
C1938 C1937 1.396 . S
C1938 C1939 1.397 . S
C1938 C1954 1.509 . S
C1939 C1938 1.397 . S
C1939 C1940 1.412 . S
C1939 C1960 1.485 . S
C1940 C1939 1.412 . S
C1940 C1941 1.388 . S
C1940 C1966 1.490 . S
C1941 C1936 1.397 . S
C1941 C1940 1.388 . S
C1941 C1972 1.519 . S
C1942 C1936 1.492 . S
C1942 C1943 1.363 . S
C1942 C1947 1.390 . S
C1943 H1908 0.930 . S
C1943 C1942 1.363 . S
C1943 C1944 1.372 . S
C1944 H1909 0.930 . S
C1944 C1943 1.372 . S
C1944 C1945 1.383 . S
C1945 C1944 1.383 . S
C1945 C1946 1.395 . S
C1946 H1910 0.930 . S
C1946 C1945 1.395 . S
C1946 C1947 1.362 . S
C1947 H1911 0.930 . S
C1947 C1942 1.390 . S
C1947 C1946 1.362 . S
C1948 C1937 1.492 . S
C1948 C1949 1.377 . S
C1948 C1953 1.397 . S
C1949 H1912 0.931 . S
C1949 C1948 1.377 . S
C1949 C1950 1.376 . S
C1950 H1913 0.930 . S
C1950 C1949 1.376 . S
C1950 C1951 1.376 . S
C1951 C1950 1.376 . S
C1951 C1952 1.378 . S
C1951 C1978 1.486 . S
C1952 H1914 0.930 . S
C1952 C1951 1.378 . S
C1952 C1953 1.376 . S
C1953 H1915 0.929 . S
C1953 C1948 1.397 . S
C1953 C1952 1.376 . S
C1954 C1938 1.509 . S
C1954 C1955 1.391 . S
C1954 C1959 1.386 . S
C1955 H1916 0.930 . S
C1955 C1954 1.391 . S
C1955 C1956 1.375 . S
C1956 H1917 0.931 . S
C1956 C1955 1.375 . S
C1956 C1957 1.375 . S
C1957 C1956 1.375 . S
C1957 C1958 1.361 . S
C1958 H1918 0.930 . S
C1958 C1957 1.361 . S
C1958 C1959 1.399 . S
C1959 H1919 0.929 . S
C1959 C1954 1.386 . S
C1959 C1958 1.399 . S
C1960 C1939 1.485 . S
C1960 C1961 1.394 . S
C1960 C1965 1.360 . S
C1961 H1920 0.931 . S
C1961 C1960 1.394 . S
C1961 C1962 1.372 . S
C1962 H1921 0.930 . S
C1962 C1961 1.372 . S
C1962 C1963 1.397 . S
C1963 C1962 1.397 . S
C1963 C1964 1.390 . S
C1963 C1979 1.476 . S
C1964 H1922 0.930 . S
C1964 C1963 1.390 . S
C1964 C1965 1.366 . S
C1965 H1923 0.932 . S
C1965 C1960 1.360 . S
C1965 C1964 1.366 . S
C1966 C1940 1.490 . S
C1966 C1967 1.380 . S
C1966 C1971 1.386 . S
C1967 H1924 0.930 . S
C1967 C1966 1.380 . S
C1967 C1968 1.381 . S
C1968 H1925 0.929 . S
C1968 C1967 1.381 . S
C1968 C1969 1.371 . S
C1969 C1968 1.371 . S
C1969 C1970 1.380 . S
C1970 H1926 0.931 . S
C1970 C1969 1.380 . S
C1970 C1971 1.387 . S
C1971 H1927 0.930 . S
C1971 C1966 1.386 . S
C1971 C1970 1.387 . S
C1972 C1941 1.519 . S
C1972 C1973 1.377 . S
C1972 C1977 1.361 . S
C1973 H1928 0.929 . S
C1973 C1972 1.377 . S
C1973 C1974 1.386 . S
C1974 H1929 0.931 . S
C1974 C1973 1.386 . S
C1974 C1975 1.363 . S
C1975 C1974 1.363 . S
C1975 C1976 1.385 . S
C1976 H1930 0.930 . S
C1976 C1975 1.385 . S
C1976 C1977 1.396 . S
C1977 H1931 0.929 . S
C1977 C1972 1.361 . S
C1977 C1976 1.396 . S
C1978 O1932 1.300 . S
C1978 O1933 1.209 . S
C1978 C1951 1.486 . S
C1979 O1934 1.199 . S
C1979 O1935 1.297 . S
C1979 C1963 1.476 . S
H1980 C1986 0.930 . S
H1981 C1989 0.930 . S
H1982 C1990 0.930 1_455 S
H1983 C1991 0.930 . S
H1984 C1994 0.930 . S
H1985 C1995 0.930 . S
C1986 H1980 0.930 . S
C1986 C1987 1.355 . S
C1986 C1988 1.415 . S
C1987 C1986 1.355 . S
C1987 C1989 1.419 1_655 S
C1988 C1986 1.415 . S
C1988 C1993 1.425 . S
C1988 C1995 1.409 . S
C1989 H1981 0.930 . S
C1989 C1987 1.419 1_455 S
C1989 C1990 1.362 1_455 S
C1990 H1982 0.930 1_655 S
C1990 C1989 1.362 1_655 S
C1990 C1993 1.409 . S
C1991 H1983 0.930 . S
C1991 C1992 1.355 . S
C1991 C1993 1.415 . S
C1992 C1991 1.355 . S
C1992 C1994 1.419 . S
C1993 C1988 1.425 . S
C1993 C1990 1.409 . S
C1993 C1991 1.415 . S
C1994 H1984 0.930 . S
C1994 C1992 1.419 . S
C1994 C1995 1.362 . S
C1995 H1985 0.930 . S
C1995 C1988 1.409 . S
C1995 C1994 1.362 . S
H1996 C2002 0.930 . S
H1997 C2005 0.930 . S
H1998 C2006 0.930 . S
H1999 C2007 0.930 . S
H2000 C2010 0.930 . S
H2001 C2011 0.930 . S
C2002 H1996 0.930 . S
C2002 C2003 1.355 . S
C2002 C2004 1.415 . S
C2003 C2002 1.355 . S
C2003 C2005 1.419 . S
C2004 C2002 1.415 . S
C2004 C2009 1.425 . S
C2004 C2011 1.409 . S
C2005 H1997 0.930 . S
C2005 C2003 1.419 . S
C2005 C2006 1.362 . S
C2006 H1998 0.930 . S
C2006 C2005 1.362 . S
C2006 C2009 1.409 . S
C2007 H1999 0.930 . S
C2007 C2008 1.355 . S
C2007 C2009 1.415 . S
C2008 C2007 1.355 . S
C2008 C2010 1.419 . S
C2009 C2004 1.425 . S
C2009 C2006 1.409 . S
C2009 C2007 1.415 . S
C2010 H2000 0.930 . S
C2010 C2008 1.419 . S
C2010 C2011 1.362 . S
C2011 H2001 0.930 . S
C2011 C2004 1.409 . S
C2011 C2010 1.362 . S
H2012 C2018 0.924 . S
H2013 C2021 0.930 . S
H2014 C2022 0.930 . S
H2015 C2023 0.930 . S
H2016 C2026 0.930 . S
H2017 C2027 0.930 . S
C2018 H2012 0.924 . S
C2018 C2019 1.361 1_565 S
C2018 C2020 1.414 1_565 S
C2019 C2018 1.361 1_545 S
C2019 C2021 1.419 . S
C2020 C2018 1.414 1_545 S
C2020 C2025 1.425 . S
C2020 C2027 1.409 1_545 S
C2021 H2013 0.930 . S
C2021 C2019 1.419 . S
C2021 C2022 1.362 . S
C2022 H2014 0.930 . S
C2022 C2021 1.362 . S
C2022 C2025 1.409 . S
C2023 H2015 0.930 . S
C2023 C2024 1.355 . S
C2023 C2025 1.415 . S
C2024 C2023 1.355 . S
C2024 C2026 1.419 1_545 S
C2025 C2020 1.425 . S
C2025 C2022 1.409 . S
C2025 C2023 1.415 . S
C2026 H2016 0.930 . S
C2026 C2024 1.419 1_565 S
C2026 C2027 1.362 . S
C2027 H2017 0.930 . S
C2027 C2020 1.409 1_565 S
C2027 C2026 1.362 . S
H2028 C2034 0.930 1_545 S
H2029 C2037 0.930 . S
H2030 C2038 0.930 . S
H2031 C2039 0.930 . S
H2032 C2042 0.930 . S
H2033 C2043 0.930 . S
C2034 H2028 0.930 1_565 S
C2034 C2035 1.355 . S
C2034 C2036 1.415 . S
C2035 C2034 1.355 . S
C2035 C2037 1.419 . S
C2036 C2034 1.415 . S
C2036 C2041 1.425 . S
C2036 C2043 1.409 1_565 S
C2037 H2029 0.930 . S
C2037 C2035 1.419 . S
C2037 C2038 1.362 . S
C2038 H2030 0.930 . S
C2038 C2037 1.362 . S
C2038 C2041 1.409 . S
C2039 H2031 0.930 . S
C2039 C2040 1.355 . S
C2039 C2041 1.415 . S
C2040 C2039 1.355 . S
C2040 C2042 1.419 1_565 S
C2041 C2036 1.425 . S
C2041 C2038 1.409 . S
C2041 C2039 1.415 . S
C2042 H2032 0.930 . S
C2042 C2040 1.419 1_545 S
C2042 C2043 1.362 . S
C2043 H2033 0.930 . S
C2043 C2036 1.409 1_545 S
C2043 C2042 1.362 . S
H2044 C2050 0.954 . S
H2045 C2053 0.930 . S
H2046 C2054 0.930 . S
H2047 C2055 0.930 . S
H2048 C2058 0.930 . S
H2049 C2059 0.930 . S
C2050 H2044 0.954 . S
C2050 C2051 1.326 1_655 S
C2050 C2052 1.421 1_655 S
C2051 C2050 1.326 1_455 S
C2051 C2053 1.419 . S
C2052 C2050 1.421 1_455 S
C2052 C2057 1.425 . S
C2052 C2059 1.409 1_455 S
C2053 H2045 0.930 . S
C2053 C2051 1.419 . S
C2053 C2054 1.362 . S
C2054 H2046 0.930 . S
C2054 C2053 1.362 . S
C2054 C2057 1.409 . S
C2055 H2047 0.930 . S
C2055 C2056 1.355 . S
C2055 C2057 1.415 . S
C2056 C2055 1.355 . S
C2056 C2058 1.419 1_455 S
C2057 C2052 1.425 . S
C2057 C2054 1.409 . S
C2057 C2055 1.415 . S
C2058 H2048 0.930 . S
C2058 C2056 1.419 1_655 S
C2058 C2059 1.362 . S
C2059 H2049 0.930 . S
C2059 C2052 1.409 1_655 S
C2059 C2058 1.362 . S
H2060 C2066 0.930 . S
H2061 C2069 0.930 . S
H2062 C2070 0.930 . S
H2063 C2071 0.930 . S
H2064 C2074 0.930 . S
H2065 C2075 0.930 . S
C2066 H2060 0.930 . S
C2066 C2067 1.355 . S
C2066 C2068 1.415 1_554 S
C2067 C2066 1.355 . S
C2067 C2069 1.419 1_554 S
C2068 C2066 1.415 1_556 S
C2068 C2073 1.425 . S
C2068 C2075 1.409 . S
C2069 H2061 0.930 . S
C2069 C2067 1.419 1_556 S
C2069 C2070 1.362 . S
C2070 H2062 0.930 . S
C2070 C2069 1.362 . S
C2070 C2073 1.409 . S
C2071 H2063 0.930 . S
C2071 C2072 1.355 . S
C2071 C2073 1.415 . S
C2072 C2071 1.355 . S
C2072 C2074 1.419 . S
C2073 C2068 1.425 . S
C2073 C2070 1.409 . S
C2073 C2071 1.415 . S
C2074 H2064 0.930 . S
C2074 C2072 1.419 . S
C2074 C2075 1.362 . S
C2075 H2065 0.930 . S
C2075 C2068 1.409 . S
C2075 C2074 1.362 . S
H2076 C2082 0.930 1_554 S
H2077 C2085 0.930 . S
H2078 C2086 0.930 . S
H2079 C2087 0.930 . S
H2080 C2090 0.930 . S
H2081 C2091 0.930 . S
C2082 H2076 0.930 1_556 S
C2082 C2083 1.358 . S
C2082 C2084 1.415 . S
C2083 C2082 1.358 . S
C2083 C2085 1.442 1_455 S
C2084 C2082 1.415 . S
C2084 C2089 1.425 1_455 S
C2084 C2091 1.409 . S
C2085 H2077 0.930 . S
C2085 C2083 1.442 1_655 S
C2085 C2086 1.362 . S
C2086 H2078 0.930 . S
C2086 C2085 1.362 . S
C2086 C2089 1.409 . S
C2087 H2079 0.930 . S
C2087 C2088 1.355 1_655 S
C2087 C2089 1.415 . S
C2088 C2087 1.355 1_455 S
C2088 C2090 1.419 . S
C2089 C2084 1.425 1_655 S
C2089 C2086 1.409 . S
C2089 C2087 1.415 . S
C2090 H2080 0.930 . S
C2090 C2088 1.419 . S
C2090 C2091 1.362 . S
C2091 H2081 0.930 . S
C2091 C2084 1.409 . S
C2091 C2090 1.362 . S
H2092 C2098 0.930 . S
H2093 C2101 0.930 . S
H2094 C2102 0.930 . S
H2095 C2103 0.930 . S
H2096 C2106 0.930 . S
H2097 C2107 0.930 . S
C2098 H2092 0.930 . S
C2098 C2099 1.355 . S
C2098 C2100 1.415 . S
C2099 C2098 1.355 . S
C2099 C2101 1.419 . S
C2100 C2098 1.415 . S
C2100 C2105 1.425 . S
C2100 C2107 1.409 . S
C2101 H2093 0.930 . S
C2101 C2099 1.419 . S
C2101 C2102 1.362 . S
C2102 H2094 0.930 . S
C2102 C2101 1.362 . S
C2102 C2105 1.409 . S
C2103 H2095 0.930 . S
C2103 C2104 1.355 . S
C2103 C2105 1.415 . S
C2104 C2103 1.355 . S
C2104 C2106 1.419 . S
C2105 C2100 1.425 . S
C2105 C2102 1.409 . S
C2105 C2103 1.415 . S
C2106 H2096 0.930 . S
C2106 C2104 1.419 . S
C2106 C2107 1.362 . S
C2107 H2097 0.930 . S
C2107 C2100 1.409 . S
C2107 C2106 1.362 . S
H2108 C2114 0.930 . S
H2109 C2117 0.930 . S
H2110 C2118 0.930 . S
H2111 C2119 0.930 . S
H2112 C2122 0.930 . S
H2113 C2123 0.930 . S
C2114 H2108 0.930 . S
C2114 C2115 1.372 1_565 S
C2114 C2116 1.415 . S
C2115 C2114 1.372 1_545 S
C2115 C2117 1.465 1_556 S
C2116 C2114 1.415 . S
C2116 C2121 1.425 1_565 S
C2116 C2123 1.409 . S
C2117 H2109 0.930 . S
C2117 C2115 1.465 1_554 S
C2117 C2118 1.362 1_554 S
C2118 H2110 0.930 . S
C2118 C2117 1.362 1_556 S
C2118 C2121 1.409 . S
C2119 H2111 0.930 . S
C2119 C2120 1.340 1_545 S
C2119 C2121 1.415 . S
C2120 C2119 1.340 1_565 S
C2120 C2122 1.454 . S
C2121 C2116 1.425 1_545 S
C2121 C2118 1.409 . S
C2121 C2119 1.415 . S
C2122 H2112 0.930 . S
C2122 C2120 1.454 . S
C2122 C2123 1.362 . S
C2123 H2113 0.930 . S
C2123 C2116 1.409 . S
C2123 C2122 1.362 . S
H2124 C2130 0.930 1_565 S
H2125 C2133 0.930 . S
H2126 C2134 0.930 . S
H2127 C2135 0.930 . S
H2128 C2138 0.930 . S
H2129 C2139 0.930 . S
C2130 H2124 0.930 1_545 S
C2130 C2131 1.355 . S
C2130 C2132 1.415 . S
C2131 C2130 1.355 . S
C2131 C2133 1.419 . S
C2132 C2130 1.415 . S
C2132 C2137 1.425 . S
C2132 C2139 1.409 1_545 S
C2133 H2125 0.930 . S
C2133 C2131 1.419 . S
C2133 C2134 1.362 . S
C2134 H2126 0.930 . S
C2134 C2133 1.362 . S
C2134 C2137 1.409 . S
C2135 H2127 0.930 . S
C2135 C2136 1.355 . S
C2135 C2137 1.415 . S
C2136 C2135 1.355 . S
C2136 C2138 1.419 1_545 S
C2137 C2132 1.425 . S
C2137 C2134 1.409 . S
C2137 C2135 1.415 . S
C2138 H2128 0.930 . S
C2138 C2136 1.419 1_565 S
C2138 C2139 1.362 . S
C2139 H2129 0.930 . S
C2139 C2132 1.409 1_565 S
C2139 C2138 1.362 . S
H2140 C2146 0.930 . S
H2141 C2149 0.930 . S
H2142 C2150 0.919 1_455 S
H2143 C2151 0.893 1_455 S
H2144 C2154 0.930 . S
H2145 C2155 0.930 . S
C2146 H2140 0.930 . S
C2146 C2147 1.355 . S
C2146 C2148 1.415 . S
C2147 C2146 1.355 . S
C2147 C2149 1.419 . S
C2148 C2146 1.415 . S
C2148 C2153 1.425 . S
C2148 C2155 1.409 . S
C2149 H2141 0.930 . S
C2149 C2147 1.419 . S
C2149 C2150 1.370 . S
C2150 H2142 0.919 1_655 S
C2150 C2149 1.370 . S
C2150 C2153 1.412 . S
C2151 H2143 0.893 1_655 S
C2151 C2152 1.360 . S
C2151 C2153 1.428 . S
C2152 C2151 1.360 . S
C2152 C2154 1.419 . S
C2153 C2148 1.425 . S
C2153 C2150 1.412 . S
C2153 C2151 1.428 . S
C2154 H2144 0.930 . S
C2154 C2152 1.419 . S
C2154 C2155 1.362 . S
C2155 H2145 0.930 . S
C2155 C2148 1.409 . S
C2155 C2154 1.362 . S
H2156 C2162 0.930 . S
H2157 C2165 0.930 . S
H2158 C2166 0.930 . S
H2159 C2167 0.930 . S
H2160 C2170 0.930 . S
H2161 C2171 0.930 . S
C2162 H2156 0.930 . S
C2162 C2163 1.355 . S
C2162 C2164 1.415 . S
C2163 C2162 1.355 . S
C2163 C2165 1.419 . S
C2164 C2162 1.415 . S
C2164 C2169 1.425 . S
C2164 C2171 1.409 . S
C2165 H2157 0.930 . S
C2165 C2163 1.419 . S
C2165 C2166 1.362 . S
C2166 H2158 0.930 . S
C2166 C2165 1.362 . S
C2166 C2169 1.409 . S
C2167 H2159 0.930 . S
C2167 C2168 1.355 . S
C2167 C2169 1.415 . S
C2168 C2167 1.355 . S
C2168 C2170 1.419 . S
C2169 C2164 1.425 . S
C2169 C2166 1.409 . S
C2169 C2167 1.415 . S
C2170 H2160 0.930 . S
C2170 C2168 1.419 . S
C2170 C2171 1.362 . S
C2171 H2161 0.930 . S
C2171 C2164 1.409 . S
C2171 C2170 1.362 . S
H2172 C2178 0.930 . S
H2173 C2181 0.930 . S
H2174 C2182 0.930 . S
H2175 C2183 0.930 . S
H2176 C2186 0.930 . S
H2177 C2187 0.930 . S
C2178 H2172 0.930 . S
C2178 C2179 1.355 . S
C2178 C2180 1.415 . S
C2179 C2178 1.355 . S
C2179 C2181 1.419 . S
C2180 C2178 1.415 . S
C2180 C2185 1.425 . S
C2180 C2187 1.409 . S
C2181 H2173 0.930 . S
C2181 C2179 1.419 . S
C2181 C2182 1.362 . S
C2182 H2174 0.930 . S
C2182 C2181 1.362 . S
C2182 C2185 1.409 . S
C2183 H2175 0.930 . S
C2183 C2184 1.355 . S
C2183 C2185 1.415 . S
C2184 C2183 1.355 . S
C2184 C2186 1.419 . S
C2185 C2180 1.425 . S
C2185 C2182 1.409 . S
C2185 C2183 1.415 . S
C2186 H2176 0.930 . S
C2186 C2184 1.419 . S
C2186 C2187 1.362 . S
C2187 H2177 0.930 . S
C2187 C2180 1.409 . S
C2187 C2186 1.362 . S
H2188 C2194 0.930 . S
H2189 C2197 0.930 . S
H2190 C2198 0.930 . S
H2191 C2199 0.930 . S
H2192 C2202 0.930 . S
H2193 C2203 0.930 . S
C2194 H2188 0.930 . S
C2194 C2195 1.355 . S
C2194 C2196 1.415 . S
C2195 C2194 1.355 . S
C2195 C2197 1.419 . S
C2196 C2194 1.415 . S
C2196 C2201 1.425 . S
C2196 C2203 1.409 . S
C2197 H2189 0.930 . S
C2197 C2195 1.419 . S
C2197 C2198 1.362 . S
C2198 H2190 0.930 . S
C2198 C2197 1.362 . S
C2198 C2201 1.409 . S
C2199 H2191 0.930 . S
C2199 C2200 1.355 . S
C2199 C2201 1.415 . S
C2200 C2199 1.355 . S
C2200 C2202 1.419 . S
C2201 C2196 1.425 . S
C2201 C2198 1.409 . S
C2201 C2199 1.415 . S
C2202 H2192 0.930 . S
C2202 C2200 1.419 . S
C2202 C2203 1.362 . S
C2203 H2193 0.930 . S
C2203 C2196 1.409 . S
C2203 C2202 1.362 . S
H2204 C2210 0.930 . S
H2205 C2213 0.930 . S
H2206 C2214 0.930 . S
H2207 C2215 0.930 . S
H2208 C2218 0.930 . S
H2209 C2219 0.930 . S
C2210 H2204 0.930 . S
C2210 C2211 1.355 . S
C2210 C2212 1.415 . S
C2211 C2210 1.355 . S
C2211 C2213 1.419 . S
C2212 C2210 1.415 . S
C2212 C2217 1.425 . S
C2212 C2219 1.409 . S
C2213 H2205 0.930 . S
C2213 C2211 1.419 . S
C2213 C2214 1.362 . S
C2214 H2206 0.930 . S
C2214 C2213 1.362 . S
C2214 C2217 1.409 . S
C2215 H2207 0.930 . S
C2215 C2216 1.355 . S
C2215 C2217 1.415 . S
C2216 C2215 1.355 . S
C2216 C2218 1.419 . S
C2217 C2212 1.425 . S
C2217 C2214 1.409 . S
C2217 C2215 1.415 . S
C2218 H2208 0.930 . S
C2218 C2216 1.419 . S
C2218 C2219 1.362 . S
C2219 H2209 0.930 . S
C2219 C2212 1.409 . S
C2219 C2218 1.362 . S
H2220 C2226 0.930 . S
H2221 C2229 0.930 . S
H2222 C2230 0.930 . S
H2223 C2231 0.930 . S
H2224 C2234 0.930 . S
H2225 C2235 0.930 . S
C2226 H2220 0.930 . S
C2226 C2227 1.355 . S
C2226 C2228 1.415 . S
C2227 C2226 1.355 . S
C2227 C2229 1.419 . S
C2228 C2226 1.415 . S
C2228 C2233 1.425 . S
C2228 C2235 1.409 . S
C2229 H2221 0.930 . S
C2229 C2227 1.419 . S
C2229 C2230 1.362 . S
C2230 H2222 0.930 . S
C2230 C2229 1.362 . S
C2230 C2233 1.409 . S
C2231 H2223 0.930 . S
C2231 C2232 1.355 . S
C2231 C2233 1.415 . S
C2232 C2231 1.355 . S
C2232 C2234 1.419 . S
C2233 C2228 1.425 . S
C2233 C2230 1.409 . S
C2233 C2231 1.415 . S
C2234 H2224 0.930 . S
C2234 C2232 1.419 . S
C2234 C2235 1.362 . S
C2235 H2225 0.930 . S
C2235 C2228 1.409 . S
C2235 C2234 1.362 . S
H2236 C2242 0.930 . S
H2237 C2245 0.930 . S
H2238 C2246 0.930 . S
H2239 C2247 0.930 . S
H2240 C2250 0.930 . S
H2241 C2251 0.930 . S
C2242 H2236 0.930 . S
C2242 C2243 1.355 . S
C2242 C2244 1.415 . S
C2243 C2242 1.355 . S
C2243 C2245 1.419 . S
C2244 C2242 1.415 . S
C2244 C2249 1.425 . S
C2244 C2251 1.409 . S
C2245 H2237 0.930 . S
C2245 C2243 1.419 . S
C2245 C2246 1.362 . S
C2246 H2238 0.930 . S
C2246 C2245 1.362 . S
C2246 C2249 1.409 . S
C2247 H2239 0.930 . S
C2247 C2248 1.355 . S
C2247 C2249 1.415 . S
C2248 C2247 1.355 . S
C2248 C2250 1.419 . S
C2249 C2244 1.425 . S
C2249 C2246 1.409 . S
C2249 C2247 1.415 . S
C2250 H2240 0.930 . S
C2250 C2248 1.419 . S
C2250 C2251 1.362 . S
C2251 H2241 0.930 . S
C2251 C2244 1.409 . S
C2251 C2250 1.362 . S
H2252 C2258 0.930 . S
H2253 C2261 0.930 . S
H2254 C2262 0.930 . S
H2255 C2263 0.930 . S
H2256 C2266 0.930 . S
H2257 C2267 0.930 . S
C2258 H2252 0.930 . S
C2258 C2259 1.355 . S
C2258 C2260 1.415 . S
C2259 C2258 1.355 . S
C2259 C2261 1.419 . S
C2260 C2258 1.415 . S
C2260 C2265 1.425 . S
C2260 C2267 1.409 . S
C2261 H2253 0.930 . S
C2261 C2259 1.419 . S
C2261 C2262 1.362 . S
C2262 H2254 0.930 . S
C2262 C2261 1.362 . S
C2262 C2265 1.409 . S
C2263 H2255 0.930 . S
C2263 C2264 1.355 . S
C2263 C2265 1.415 . S
C2264 C2263 1.355 . S
C2264 C2266 1.419 . S
C2265 C2260 1.425 . S
C2265 C2262 1.409 . S
C2265 C2263 1.415 . S
C2266 H2256 0.930 . S
C2266 C2264 1.419 . S
C2266 C2267 1.362 . S
C2267 H2257 0.930 . S
C2267 C2260 1.409 . S
C2267 C2266 1.362 . S
H2268 C2274 0.930 . S
H2269 C2277 0.930 . S
H2270 C2278 0.930 . S
H2271 C2279 0.930 . S
H2272 C2282 0.930 . S
H2273 C2283 0.930 . S
C2274 H2268 0.930 . S
C2274 C2275 1.355 . S
C2274 C2276 1.415 . S
C2275 C2274 1.355 . S
C2275 C2277 1.419 . S
C2276 C2274 1.415 . S
C2276 C2281 1.425 . S
C2276 C2283 1.409 . S
C2277 H2269 0.930 . S
C2277 C2275 1.419 . S
C2277 C2278 1.362 . S
C2278 H2270 0.930 . S
C2278 C2277 1.362 . S
C2278 C2281 1.409 . S
C2279 H2271 0.930 . S
C2279 C2280 1.355 . S
C2279 C2281 1.415 . S
C2280 C2279 1.355 . S
C2280 C2282 1.419 . S
C2281 C2276 1.425 . S
C2281 C2278 1.409 . S
C2281 C2279 1.415 . S
C2282 H2272 0.930 . S
C2282 C2280 1.419 . S
C2282 C2283 1.362 . S
C2283 H2273 0.930 . S
C2283 C2276 1.409 . S
C2283 C2282 1.362 . S
H2284 C2290 0.930 . S
H2285 C2293 0.930 . S
H2286 C2294 0.930 . S
H2287 C2295 0.930 . S
H2288 C2298 0.930 . S
H2289 C2299 0.930 . S
C2290 H2284 0.930 . S
C2290 C2291 1.355 . S
C2290 C2292 1.415 . S
C2291 C2290 1.355 . S
C2291 C2293 1.419 . S
C2292 C2290 1.415 . S
C2292 C2297 1.425 . S
C2292 C2299 1.409 . S
C2293 H2285 0.930 . S
C2293 C2291 1.419 . S
C2293 C2294 1.362 . S
C2294 H2286 0.930 . S
C2294 C2293 1.362 . S
C2294 C2297 1.409 . S
C2295 H2287 0.930 . S
C2295 C2296 1.355 . S
C2295 C2297 1.415 . S
C2296 C2295 1.355 . S
C2296 C2298 1.419 . S
C2297 C2292 1.425 . S
C2297 C2294 1.409 . S
C2297 C2295 1.415 . S
C2298 H2288 0.930 . S
C2298 C2296 1.419 . S
C2298 C2299 1.362 . S
C2299 H2289 0.930 . S
C2299 C2292 1.409 . S
C2299 C2298 1.362 . S
H2300 C2306 0.930 . S
H2301 C2309 0.930 . S
H2302 C2310 0.930 . S
H2303 C2311 0.930 . S
H2304 C2314 0.930 . S
H2305 C2315 0.930 . S
C2306 H2300 0.930 . S
C2306 C2307 1.355 . S
C2306 C2308 1.415 . S
C2307 C2306 1.355 . S
C2307 C2309 1.419 . S
C2308 C2306 1.415 . S
C2308 C2313 1.425 . S
C2308 C2315 1.409 . S
C2309 H2301 0.930 . S
C2309 C2307 1.419 . S
C2309 C2310 1.362 . S
C2310 H2302 0.930 . S
C2310 C2309 1.362 . S
C2310 C2313 1.409 . S
C2311 H2303 0.930 . S
C2311 C2312 1.355 . S
C2311 C2313 1.415 . S
C2312 C2311 1.355 . S
C2312 C2314 1.419 . S
C2313 C2308 1.425 . S
C2313 C2310 1.409 . S
C2313 C2311 1.415 . S
C2314 H2304 0.930 . S
C2314 C2312 1.419 . S
C2314 C2315 1.362 . S
C2315 H2305 0.930 . S
C2315 C2308 1.409 . S
C2315 C2314 1.362 . S
H2316 C2322 0.930 . S
H2317 C2325 0.930 . S
H2318 C2326 0.930 . S
H2319 C2327 0.930 . S
H2320 C2330 0.930 . S
H2321 C2331 0.930 . S
C2322 H2316 0.930 . S
C2322 C2323 1.355 . S
C2322 C2324 1.415 . S
C2323 C2322 1.355 . S
C2323 C2325 1.419 . S
C2324 C2322 1.415 . S
C2324 C2329 1.425 . S
C2324 C2331 1.409 . S
C2325 H2317 0.930 . S
C2325 C2323 1.419 . S
C2325 C2326 1.362 . S
C2326 H2318 0.930 . S
C2326 C2325 1.362 . S
C2326 C2329 1.409 . S
C2327 H2319 0.930 . S
C2327 C2328 1.355 . S
C2327 C2329 1.415 . S
C2328 C2327 1.355 . S
C2328 C2330 1.419 . S
C2329 C2324 1.425 . S
C2329 C2326 1.409 . S
C2329 C2327 1.415 . S
C2330 H2320 0.930 . S
C2330 C2328 1.419 . S
C2330 C2331 1.362 . S
C2331 H2321 0.930 . S
C2331 C2324 1.409 . S
C2331 C2330 1.362 . S
H2332 C2338 0.930 . S
H2333 C2341 0.930 . S
H2334 C2342 0.930 . S
H2335 C2343 0.930 . S
H2336 C2346 0.930 . S
H2337 C2347 0.930 . S
C2338 H2332 0.930 . S
C2338 C2339 1.355 . S
C2338 C2340 1.415 . S
C2339 C2338 1.355 . S
C2339 C2341 1.419 . S
C2340 C2338 1.415 . S
C2340 C2345 1.425 . S
C2340 C2347 1.409 . S
C2341 H2333 0.930 . S
C2341 C2339 1.419 . S
C2341 C2342 1.362 . S
C2342 H2334 0.930 . S
C2342 C2341 1.362 . S
C2342 C2345 1.409 . S
C2343 H2335 0.930 . S
C2343 C2344 1.355 . S
C2343 C2345 1.415 . S
C2344 C2343 1.355 . S
C2344 C2346 1.419 . S
C2345 C2340 1.425 . S
C2345 C2342 1.409 . S
C2345 C2343 1.415 . S
C2346 H2336 0.930 . S
C2346 C2344 1.419 . S
C2346 C2347 1.362 . S
C2347 H2337 0.930 . S
C2347 C2340 1.409 . S
C2347 C2346 1.362 . S
H2348 C2354 0.930 . S
H2349 C2357 0.930 . S
H2350 C2358 0.930 . S
H2351 C2359 0.930 . S
H2352 C2362 0.930 . S
H2353 C2363 0.930 . S
C2354 H2348 0.930 . S
C2354 C2355 1.355 . S
C2354 C2356 1.415 . S
C2355 C2354 1.355 . S
C2355 C2357 1.419 . S
C2356 C2354 1.415 . S
C2356 C2361 1.425 . S
C2356 C2363 1.409 . S
C2357 H2349 0.930 . S
C2357 C2355 1.419 . S
C2357 C2358 1.362 . S
C2358 H2350 0.930 . S
C2358 C2357 1.362 . S
C2358 C2361 1.409 . S
C2359 H2351 0.930 . S
C2359 C2360 1.355 . S
C2359 C2361 1.415 . S
C2360 C2359 1.355 . S
C2360 C2362 1.419 . S
C2361 C2356 1.425 . S
C2361 C2358 1.409 . S
C2361 C2359 1.415 . S
C2362 H2352 0.930 . S
C2362 C2360 1.419 . S
C2362 C2363 1.362 . S
C2363 H2353 0.930 . S
C2363 C2356 1.409 . S
C2363 C2362 1.362 . S
H2364 C2370 0.930 . S
H2365 C2373 0.930 . S
H2366 C2374 0.930 . S
H2367 C2375 0.930 . S
H2368 C2378 0.930 . S
H2369 C2379 0.930 . S
C2370 H2364 0.930 . S
C2370 C2371 1.355 . S
C2370 C2372 1.415 . S
C2371 C2370 1.355 . S
C2371 C2373 1.419 . S
C2372 C2370 1.415 . S
C2372 C2377 1.425 . S
C2372 C2379 1.409 . S
C2373 H2365 0.930 . S
C2373 C2371 1.419 . S
C2373 C2374 1.362 . S
C2374 H2366 0.930 . S
C2374 C2373 1.362 . S
C2374 C2377 1.409 . S
C2375 H2367 0.930 . S
C2375 C2376 1.355 . S
C2375 C2377 1.415 . S
C2376 C2375 1.355 . S
C2376 C2378 1.419 . S
C2377 C2372 1.425 . S
C2377 C2374 1.409 . S
C2377 C2375 1.415 . S
C2378 H2368 0.930 . S
C2378 C2376 1.419 . S
C2378 C2379 1.362 . S
C2379 H2369 0.930 . S
C2379 C2372 1.409 . S
C2379 C2378 1.362 . S
H2380 C2386 0.930 . S
H2381 C2389 0.930 . S
H2382 C2390 0.930 . S
H2383 C2391 0.930 . S
H2384 C2394 0.930 . S
H2385 C2395 0.930 . S
C2386 H2380 0.930 . S
C2386 C2387 1.355 . S
C2386 C2388 1.415 . S
C2387 C2386 1.355 . S
C2387 C2389 1.419 . S
C2388 C2386 1.415 . S
C2388 C2393 1.425 . S
C2388 C2395 1.409 . S
C2389 H2381 0.930 . S
C2389 C2387 1.419 . S
C2389 C2390 1.362 . S
C2390 H2382 0.930 . S
C2390 C2389 1.362 . S
C2390 C2393 1.409 . S
C2391 H2383 0.930 . S
C2391 C2392 1.355 . S
C2391 C2393 1.415 . S
C2392 C2391 1.355 . S
C2392 C2394 1.419 . S
C2393 C2388 1.425 . S
C2393 C2390 1.409 . S
C2393 C2391 1.415 . S
C2394 H2384 0.930 . S
C2394 C2392 1.419 . S
C2394 C2395 1.362 . S
C2395 H2385 0.930 . S
C2395 C2388 1.409 . S
C2395 C2394 1.362 . S
H2396 C2402 0.930 . S
H2397 C2405 0.930 . S
H2398 C2406 0.930 . S
H2399 C2407 0.930 . S
H2400 C2410 0.930 . S
H2401 C2411 0.930 . S
C2402 H2396 0.930 . S
C2402 C2403 1.355 . S
C2402 C2404 1.415 . S
C2403 C2402 1.355 . S
C2403 C2405 1.419 . S
C2404 C2402 1.415 . S
C2404 C2409 1.425 . S
C2404 C2411 1.409 . S
C2405 H2397 0.930 . S
C2405 C2403 1.419 . S
C2405 C2406 1.362 . S
C2406 H2398 0.930 . S
C2406 C2405 1.362 . S
C2406 C2409 1.409 . S
C2407 H2399 0.930 . S
C2407 C2408 1.355 . S
C2407 C2409 1.415 . S
C2408 C2407 1.355 . S
C2408 C2410 1.419 . S
C2409 C2404 1.425 . S
C2409 C2406 1.409 . S
C2409 C2407 1.415 . S
C2410 H2400 0.930 . S
C2410 C2408 1.419 . S
C2410 C2411 1.362 . S
C2411 H2401 0.930 . S
C2411 C2404 1.409 . S
C2411 C2410 1.362 . S
H2412 C2418 0.930 . S
H2413 C2421 0.930 . S
H2414 C2422 0.930 . S
H2415 C2423 0.930 . S
H2416 C2426 0.930 . S
H2417 C2427 0.930 . S
C2418 H2412 0.930 . S
C2418 C2419 1.355 . S
C2418 C2420 1.415 . S
C2419 C2418 1.355 . S
C2419 C2421 1.419 . S
C2420 C2418 1.415 . S
C2420 C2425 1.425 . S
C2420 C2427 1.409 . S
C2421 H2413 0.930 . S
C2421 C2419 1.419 . S
C2421 C2422 1.362 . S
C2422 H2414 0.930 . S
C2422 C2421 1.362 . S
C2422 C2425 1.409 . S
C2423 H2415 0.930 . S
C2423 C2424 1.355 . S
C2423 C2425 1.415 . S
C2424 C2423 1.355 . S
C2424 C2426 1.419 . S
C2425 C2420 1.425 . S
C2425 C2422 1.409 . S
C2425 C2423 1.415 . S
C2426 H2416 0.930 . S
C2426 C2424 1.419 . S
C2426 C2427 1.362 . S
C2427 H2417 0.930 . S
C2427 C2420 1.409 . S
C2427 C2426 1.362 . S
H2428 C2434 0.930 . S
H2429 C2437 0.930 . S
H2430 C2438 0.930 . S
H2431 C2439 0.930 . S
H2432 C2442 0.930 . S
H2433 C2443 0.930 . S
C2434 H2428 0.930 . S
C2434 C2435 1.355 . S
C2434 C2436 1.415 . S
C2435 C2434 1.355 . S
C2435 C2437 1.419 . S
C2436 C2434 1.415 . S
C2436 C2441 1.425 . S
C2436 C2443 1.409 . S
C2437 H2429 0.930 . S
C2437 C2435 1.419 . S
C2437 C2438 1.362 . S
C2438 H2430 0.930 . S
C2438 C2437 1.362 . S
C2438 C2441 1.409 . S
C2439 H2431 0.930 . S
C2439 C2440 1.355 . S
C2439 C2441 1.415 . S
C2440 C2439 1.355 . S
C2440 C2442 1.419 . S
C2441 C2436 1.425 . S
C2441 C2438 1.409 . S
C2441 C2439 1.415 . S
C2442 H2432 0.930 . S
C2442 C2440 1.419 . S
C2442 C2443 1.362 . S
C2443 H2433 0.930 . S
C2443 C2436 1.409 . S
C2443 C2442 1.362 . S
H2444 C2450 0.930 . S
H2445 C2453 0.930 . S
H2446 C2454 0.930 . S
H2447 C2455 0.930 . S
H2448 C2458 0.930 . S
H2449 C2459 0.930 . S
C2450 H2444 0.930 . S
C2450 C2451 1.355 . S
C2450 C2452 1.415 . S
C2451 C2450 1.355 . S
C2451 C2453 1.419 . S
C2452 C2450 1.415 . S
C2452 C2457 1.425 . S
C2452 C2459 1.409 . S
C2453 H2445 0.930 . S
C2453 C2451 1.419 . S
C2453 C2454 1.362 . S
C2454 H2446 0.930 . S
C2454 C2453 1.362 . S
C2454 C2457 1.409 . S
C2455 H2447 0.930 . S
C2455 C2456 1.355 . S
C2455 C2457 1.415 . S
C2456 C2455 1.355 . S
C2456 C2458 1.419 . S
C2457 C2452 1.425 . S
C2457 C2454 1.409 . S
C2457 C2455 1.415 . S
C2458 H2448 0.930 . S
C2458 C2456 1.419 . S
C2458 C2459 1.362 . S
C2459 H2449 0.930 . S
C2459 C2452 1.409 . S
C2459 C2458 1.362 . S
H2460 C2466 0.930 . S
H2461 C2469 0.930 . S
H2462 C2470 0.930 . S
H2463 C2471 0.930 . S
H2464 C2474 0.930 . S
H2465 C2475 0.930 . S
C2466 H2460 0.930 . S
C2466 C2467 1.355 . S
C2466 C2468 1.415 . S
C2467 C2466 1.355 . S
C2467 C2469 1.419 . S
C2468 C2466 1.415 . S
C2468 C2473 1.425 . S
C2468 C2475 1.409 . S
C2469 H2461 0.930 . S
C2469 C2467 1.419 . S
C2469 C2470 1.362 . S
C2470 H2462 0.930 . S
C2470 C2469 1.362 . S
C2470 C2473 1.409 . S
C2471 H2463 0.930 . S
C2471 C2472 1.355 . S
C2471 C2473 1.415 . S
C2472 C2471 1.355 . S
C2472 C2474 1.419 . S
C2473 C2468 1.425 . S
C2473 C2470 1.409 . S
C2473 C2471 1.415 . S
C2474 H2464 0.930 . S
C2474 C2472 1.419 . S
C2474 C2475 1.362 . S
C2475 H2465 0.930 . S
C2475 C2468 1.409 . S
C2475 C2474 1.362 . S
H2476 C2482 0.930 . S
H2477 C2485 0.930 . S
H2478 C2486 0.930 . S
H2479 C2487 0.930 . S
H2480 C2490 0.930 . S
H2481 C2491 0.930 . S
C2482 H2476 0.930 . S
C2482 C2483 1.355 . S
C2482 C2484 1.415 . S
C2483 C2482 1.355 . S
C2483 C2485 1.419 . S
C2484 C2482 1.415 . S
C2484 C2489 1.425 . S
C2484 C2491 1.409 . S
C2485 H2477 0.930 . S
C2485 C2483 1.419 . S
C2485 C2486 1.362 . S
C2486 H2478 0.930 . S
C2486 C2485 1.362 . S
C2486 C2489 1.409 . S
C2487 H2479 0.930 . S
C2487 C2488 1.355 . S
C2487 C2489 1.415 . S
C2488 C2487 1.355 . S
C2488 C2490 1.419 . S
C2489 C2484 1.425 . S
C2489 C2486 1.409 . S
C2489 C2487 1.415 . S
C2490 H2480 0.930 . S
C2490 C2488 1.419 . S
C2490 C2491 1.362 . S
C2491 H2481 0.930 . S
C2491 C2484 1.409 . S
C2491 C2490 1.362 . S
H2492 C2498 0.930 . S
H2493 C2501 0.930 . S
H2494 C2502 0.930 . S
H2495 C2503 0.930 . S
H2496 C2506 0.930 . S
H2497 C2507 0.930 . S
C2498 H2492 0.930 . S
C2498 C2499 1.355 . S
C2498 C2500 1.415 . S
C2499 C2498 1.355 . S
C2499 C2501 1.419 . S
C2500 C2498 1.415 . S
C2500 C2505 1.425 . S
C2500 C2507 1.409 . S
C2501 H2493 0.930 . S
C2501 C2499 1.419 . S
C2501 C2502 1.362 . S
C2502 H2494 0.930 . S
C2502 C2501 1.362 . S
C2502 C2505 1.409 . S
C2503 H2495 0.930 . S
C2503 C2504 1.355 . S
C2503 C2505 1.415 . S
C2504 C2503 1.355 . S
C2504 C2506 1.419 . S
C2505 C2500 1.425 . S
C2505 C2502 1.409 . S
C2505 C2503 1.415 . S
C2506 H2496 0.930 . S
C2506 C2504 1.419 . S
C2506 C2507 1.362 . S
C2507 H2497 0.930 . S
C2507 C2500 1.409 . S
C2507 C2506 1.362 . S
H2508 C2514 0.930 . S
H2509 C2517 0.930 . S
H2510 C2518 0.930 . S
H2511 C2519 0.930 . S
H2512 C2522 0.930 . S
H2513 C2523 0.930 . S
C2514 H2508 0.930 . S
C2514 C2515 1.355 . S
C2514 C2516 1.415 . S
C2515 C2514 1.355 . S
C2515 C2517 1.419 . S
C2516 C2514 1.415 . S
C2516 C2521 1.425 . S
C2516 C2523 1.409 . S
C2517 H2509 0.930 . S
C2517 C2515 1.419 . S
C2517 C2518 1.362 . S
C2518 H2510 0.930 . S
C2518 C2517 1.362 . S
C2518 C2521 1.409 . S
C2519 H2511 0.930 . S
C2519 C2520 1.355 . S
C2519 C2521 1.415 . S
C2520 C2519 1.355 . S
C2520 C2522 1.419 . S
C2521 C2516 1.425 . S
C2521 C2518 1.409 . S
C2521 C2519 1.415 . S
C2522 H2512 0.930 . S
C2522 C2520 1.419 . S
C2522 C2523 1.362 . S
C2523 H2513 0.930 . S
C2523 C2516 1.409 . S
C2523 C2522 1.362 . S
H2524 C2530 0.930 . S
H2525 C2533 0.930 . S
H2526 C2534 0.930 . S
H2527 C2535 0.930 . S
H2528 C2538 0.930 . S
H2529 C2539 0.930 . S
C2530 H2524 0.930 . S
C2530 C2531 1.355 . S
C2530 C2532 1.415 . S
C2531 C2530 1.355 . S
C2531 C2533 1.419 . S
C2532 C2530 1.415 . S
C2532 C2537 1.425 . S
C2532 C2539 1.409 . S
C2533 H2525 0.930 . S
C2533 C2531 1.419 . S
C2533 C2534 1.362 . S
C2534 H2526 0.930 . S
C2534 C2533 1.362 . S
C2534 C2537 1.409 . S
C2535 H2527 0.930 . S
C2535 C2536 1.355 . S
C2535 C2537 1.415 . S
C2536 C2535 1.355 . S
C2536 C2538 1.419 . S
C2537 C2532 1.425 . S
C2537 C2534 1.409 . S
C2537 C2535 1.415 . S
C2538 H2528 0.930 . S
C2538 C2536 1.419 . S
C2538 C2539 1.362 . S
C2539 H2529 0.930 . S
C2539 C2532 1.409 . S
C2539 C2538 1.362 . S
H2540 C2546 0.930 . S
H2541 C2549 0.930 . S
H2542 C2550 0.930 . S
H2543 C2551 0.930 . S
H2544 C2554 0.930 . S
H2545 C2555 0.930 . S
C2546 H2540 0.930 . S
C2546 C2547 1.355 . S
C2546 C2548 1.415 . S
C2547 C2546 1.355 . S
C2547 C2549 1.419 . S
C2548 C2546 1.415 . S
C2548 C2553 1.425 . S
C2548 C2555 1.409 . S
C2549 H2541 0.930 . S
C2549 C2547 1.419 . S
C2549 C2550 1.362 . S
C2550 H2542 0.930 . S
C2550 C2549 1.362 . S
C2550 C2553 1.409 . S
C2551 H2543 0.930 . S
C2551 C2552 1.355 . S
C2551 C2553 1.415 . S
C2552 C2551 1.355 . S
C2552 C2554 1.419 . S
C2553 C2548 1.425 . S
C2553 C2550 1.409 . S
C2553 C2551 1.415 . S
C2554 H2544 0.930 . S
C2554 C2552 1.419 . S
C2554 C2555 1.362 . S
C2555 H2545 0.930 . S
C2555 C2548 1.409 . S
C2555 C2554 1.362 . S
H2556 C2562 0.930 . S
H2557 C2565 0.930 . S
H2558 C2566 0.930 . S
H2559 C2567 0.930 . S
H2560 C2570 0.930 . S
H2561 C2571 0.930 . S
C2562 H2556 0.930 . S
C2562 C2563 1.355 . S
C2562 C2564 1.415 . S
C2563 C2562 1.355 . S
C2563 C2565 1.419 . S
C2564 C2562 1.415 . S
C2564 C2569 1.425 . S
C2564 C2571 1.409 . S
C2565 H2557 0.930 . S
C2565 C2563 1.419 . S
C2565 C2566 1.362 . S
C2566 H2558 0.930 . S
C2566 C2565 1.362 . S
C2566 C2569 1.409 . S
C2567 H2559 0.930 . S
C2567 C2568 1.355 . S
C2567 C2569 1.415 . S
C2568 C2567 1.355 . S
C2568 C2570 1.419 . S
C2569 C2564 1.425 . S
C2569 C2566 1.409 . S
C2569 C2567 1.415 . S
C2570 H2560 0.930 . S
C2570 C2568 1.419 . S
C2570 C2571 1.362 . S
C2571 H2561 0.930 . S
C2571 C2564 1.409 . S
C2571 C2570 1.362 . S
H2572 C2578 0.930 . S
H2573 C2581 0.930 . S
H2574 C2582 0.930 . S
H2575 C2583 0.930 . S
H2576 C2586 0.930 . S
H2577 C2587 0.930 . S
C2578 H2572 0.930 . S
C2578 C2579 1.355 . S
C2578 C2580 1.415 . S
C2579 C2578 1.355 . S
C2579 C2581 1.419 . S
C2580 C2578 1.415 . S
C2580 C2585 1.425 . S
C2580 C2587 1.409 . S
C2581 H2573 0.930 . S
C2581 C2579 1.419 . S
C2581 C2582 1.362 . S
C2582 H2574 0.930 . S
C2582 C2581 1.362 . S
C2582 C2585 1.409 . S
C2583 H2575 0.930 . S
C2583 C2584 1.355 . S
C2583 C2585 1.415 . S
C2584 C2583 1.355 . S
C2584 C2586 1.419 . S
C2585 C2580 1.425 . S
C2585 C2582 1.409 . S
C2585 C2583 1.415 . S
C2586 H2576 0.930 . S
C2586 C2584 1.419 . S
C2586 C2587 1.362 . S
C2587 H2577 0.930 . S
C2587 C2580 1.409 . S
C2587 C2586 1.362 . S
H2588 C2594 0.930 . S
H2589 C2597 0.930 . S
H2590 C2598 0.930 . S
H2591 C2599 0.930 . S
H2592 C2602 0.930 . S
H2593 C2603 0.930 . S
C2594 H2588 0.930 . S
C2594 C2595 1.355 . S
C2594 C2596 1.415 . S
C2595 C2594 1.355 . S
C2595 C2597 1.419 . S
C2596 C2594 1.415 . S
C2596 C2601 1.425 . S
C2596 C2603 1.409 . S
C2597 H2589 0.930 . S
C2597 C2595 1.419 . S
C2597 C2598 1.362 . S
C2598 H2590 0.930 . S
C2598 C2597 1.362 . S
C2598 C2601 1.409 . S
C2599 H2591 0.930 . S
C2599 C2600 1.355 . S
C2599 C2601 1.415 . S
C2600 C2599 1.355 . S
C2600 C2602 1.419 . S
C2601 C2596 1.425 . S
C2601 C2598 1.409 . S
C2601 C2599 1.415 . S
C2602 H2592 0.930 . S
C2602 C2600 1.419 . S
C2602 C2603 1.362 . S
C2603 H2593 0.930 . S
C2603 C2596 1.409 . S
C2603 C2602 1.362 . S
H2604 C2610 0.930 . S
H2605 C2613 0.930 . S
H2606 C2614 0.930 . S
H2607 C2615 0.930 . S
H2608 C2618 0.930 . S
H2609 C2619 0.930 . S
C2610 H2604 0.930 . S
C2610 C2611 1.355 1_556 S
C2610 C2612 1.415 . S
C2611 C2610 1.355 1_554 S
C2611 C2613 1.419 . S
C2612 C2610 1.415 . S
C2612 C2617 1.425 . S
C2612 C2619 1.409 . S
C2613 H2605 0.930 . S
C2613 C2611 1.419 . S
C2613 C2614 1.362 1_554 S
C2614 H2606 0.930 . S
C2614 C2613 1.362 1_556 S
C2614 C2617 1.409 . S
C2615 H2607 0.930 . S
C2615 C2616 1.355 . S
C2615 C2617 1.415 . S
C2616 C2615 1.355 . S
C2616 C2618 1.419 . S
C2617 C2612 1.425 . S
C2617 C2614 1.409 . S
C2617 C2615 1.415 . S
C2618 H2608 0.930 . S
C2618 C2616 1.419 . S
C2618 C2619 1.362 . S
C2619 H2609 0.930 . S
C2619 C2612 1.409 . S
C2619 C2618 1.362 . S
H2620 C2626 0.930 . S
H2621 C2629 0.930 . S
H2622 C2630 0.930 . S
H2623 C2631 0.930 . S
H2624 C2634 0.930 . S
H2625 C2635 0.930 . S
C2626 H2620 0.930 . S
C2626 C2627 1.355 . S
C2626 C2628 1.415 . S
C2627 C2626 1.355 . S
C2627 C2629 1.419 . S
C2628 C2626 1.415 . S
C2628 C2633 1.425 . S
C2628 C2635 1.409 . S
C2629 H2621 0.930 . S
C2629 C2627 1.419 . S
C2629 C2630 1.362 . S
C2630 H2622 0.930 . S
C2630 C2629 1.362 . S
C2630 C2633 1.409 . S
C2631 H2623 0.930 . S
C2631 C2632 1.355 . S
C2631 C2633 1.415 . S
C2632 C2631 1.355 . S
C2632 C2634 1.419 . S
C2633 C2628 1.425 . S
C2633 C2630 1.409 . S
C2633 C2631 1.415 . S
C2634 H2624 0.930 . S
C2634 C2632 1.419 . S
C2634 C2635 1.362 . S
C2635 H2625 0.930 . S
C2635 C2628 1.409 . S
C2635 C2634 1.362 . S
H2636 C2642 0.930 . S
H2637 C2645 0.930 . S
H2638 C2646 0.930 1_556 S
H2639 C2647 0.930 . S
H2640 C2650 0.930 . S
H2641 C2651 0.930 . S
C2642 H2636 0.930 . S
C2642 C2643 1.355 . S
C2642 C2644 1.415 . S
C2643 C2642 1.355 . S
C2643 C2645 1.419 . S
C2644 C2642 1.415 . S
C2644 C2649 1.425 . S
C2644 C2651 1.409 . S
C2645 H2637 0.930 . S
C2645 C2643 1.419 . S
C2645 C2646 1.362 . S
C2646 H2638 0.930 1_554 S
C2646 C2645 1.362 . S
C2646 C2649 1.409 . S
C2647 H2639 0.930 . S
C2647 C2648 1.355 . S
C2647 C2649 1.415 1_556 S
C2648 C2647 1.355 . S
C2648 C2650 1.419 1_556 S
C2649 C2644 1.425 . S
C2649 C2646 1.409 . S
C2649 C2647 1.415 1_554 S
C2650 H2640 0.930 . S
C2650 C2648 1.419 1_554 S
C2650 C2651 1.362 . S
C2651 H2641 0.930 . S
C2651 C2644 1.409 . S
C2651 C2650 1.362 . S
H2652 C2658 0.930 . S
H2653 C2661 0.930 . S
H2654 C2662 0.930 . S
H2655 C2663 0.930 . S
H2656 C2666 0.930 . S
H2657 C2667 0.930 . S
C2658 H2652 0.930 . S
C2658 C2659 1.355 . S
C2658 C2660 1.415 1_554 S
C2659 C2658 1.355 . S
C2659 C2661 1.419 1_554 S
C2660 C2658 1.415 1_556 S
C2660 C2665 1.425 . S
C2660 C2667 1.409 . S
C2661 H2653 0.930 . S
C2661 C2659 1.419 1_556 S
C2661 C2662 1.362 . S
C2662 H2654 0.930 . S
C2662 C2661 1.362 . S
C2662 C2665 1.409 . S
C2663 H2655 0.930 . S
C2663 C2664 1.355 . S
C2663 C2665 1.415 . S
C2664 C2663 1.355 . S
C2664 C2666 1.419 . S
C2665 C2660 1.425 . S
C2665 C2662 1.409 . S
C2665 C2663 1.415 . S
C2666 H2656 0.930 . S
C2666 C2664 1.419 . S
C2666 C2667 1.362 . S
C2667 H2657 0.930 . S
C2667 C2660 1.409 . S
C2667 C2666 1.362 . S
H2668 C2674 0.930 . S
H2669 C2677 0.930 . S
H2670 C2678 0.930 . S
H2671 C2679 0.930 . S
H2672 C2682 0.930 . S
H2673 C2683 0.930 . S
C2674 H2668 0.930 . S
C2674 C2675 1.355 . S
C2674 C2676 1.415 . S
C2675 C2674 1.355 . S
C2675 C2677 1.419 . S
C2676 C2674 1.415 . S
C2676 C2681 1.425 . S
C2676 C2683 1.409 . S
C2677 H2669 0.930 . S
C2677 C2675 1.419 . S
C2677 C2678 1.362 . S
C2678 H2670 0.930 . S
C2678 C2677 1.362 . S
C2678 C2681 1.409 . S
C2679 H2671 0.930 . S
C2679 C2680 1.355 . S
C2679 C2681 1.415 . S
C2680 C2679 1.355 . S
C2680 C2682 1.419 . S
C2681 C2676 1.425 . S
C2681 C2678 1.409 . S
C2681 C2679 1.415 . S
C2682 H2672 0.930 . S
C2682 C2680 1.419 . S
C2682 C2683 1.362 . S
C2683 H2673 0.930 . S
C2683 C2676 1.409 . S
C2683 C2682 1.362 . S
H2684 C2690 0.930 . S
H2685 C2693 0.930 . S
H2686 C2694 0.930 . S
H2687 C2695 0.930 . S
H2688 C2698 0.930 . S
H2689 C2699 0.930 . S
C2690 H2684 0.930 . S
C2690 C2691 1.355 . S
C2690 C2692 1.415 . S
C2691 C2690 1.355 . S
C2691 C2693 1.419 1_554 S
C2692 C2690 1.415 . S
C2692 C2697 1.425 1_554 S
C2692 C2699 1.409 . S
C2693 H2685 0.930 . S
C2693 C2691 1.419 1_556 S
C2693 C2694 1.362 . S
C2694 H2686 0.930 . S
C2694 C2693 1.362 . S
C2694 C2697 1.409 . S
C2695 H2687 0.930 . S
C2695 C2696 1.355 . S
C2695 C2697 1.415 . S
C2696 C2695 1.355 . S
C2696 C2698 1.419 1_556 S
C2697 C2692 1.425 1_556 S
C2697 C2694 1.409 . S
C2697 C2695 1.415 . S
C2698 H2688 0.930 . S
C2698 C2696 1.419 1_554 S
C2698 C2699 1.362 . S
C2699 H2689 0.930 . S
C2699 C2692 1.409 . S
C2699 C2698 1.362 . S
H2700 C2706 0.930 . S
H2701 C2709 0.930 . S
H2702 C2710 0.930 . S
H2703 C2711 0.930 . S
H2704 C2714 0.930 . S
H2705 C2715 0.930 . S
C2706 H2700 0.930 . S
C2706 C2707 1.355 . S
C2706 C2708 1.415 . S
C2707 C2706 1.355 . S
C2707 C2709 1.419 . S
C2708 C2706 1.415 . S
C2708 C2713 1.425 . S
C2708 C2715 1.409 . S
C2709 H2701 0.930 . S
C2709 C2707 1.419 . S
C2709 C2710 1.362 . S
C2710 H2702 0.930 . S
C2710 C2709 1.362 . S
C2710 C2713 1.409 . S
C2711 H2703 0.930 . S
C2711 C2712 1.355 . S
C2711 C2713 1.415 . S
C2712 C2711 1.355 . S
C2712 C2714 1.419 . S
C2713 C2708 1.425 . S
C2713 C2710 1.409 . S
C2713 C2711 1.415 . S
C2714 H2704 0.930 . S
C2714 C2712 1.419 . S
C2714 C2715 1.362 . S
C2715 H2705 0.930 . S
C2715 C2708 1.409 . S
C2715 C2714 1.362 . S
H2716 C2722 0.930 . S
H2717 C2725 0.930 . S
H2718 C2726 0.930 . S
H2719 C2727 0.930 . S
H2720 C2730 0.930 . S
H2721 C2731 0.930 . S
C2722 H2716 0.930 . S
C2722 C2723 1.355 . S
C2722 C2724 1.415 . S
C2723 C2722 1.355 . S
C2723 C2725 1.419 . S
C2724 C2722 1.415 . S
C2724 C2729 1.425 . S
C2724 C2731 1.409 . S
C2725 H2717 0.930 . S
C2725 C2723 1.419 . S
C2725 C2726 1.362 . S
C2726 H2718 0.930 . S
C2726 C2725 1.362 . S
C2726 C2729 1.409 . S
C2727 H2719 0.930 . S
C2727 C2728 1.355 . S
C2727 C2729 1.415 . S
C2728 C2727 1.355 . S
C2728 C2730 1.419 . S
C2729 C2724 1.425 . S
C2729 C2726 1.409 . S
C2729 C2727 1.415 . S
C2730 H2720 0.930 . S
C2730 C2728 1.419 . S
C2730 C2731 1.362 . S
C2731 H2721 0.930 . S
C2731 C2724 1.409 . S
C2731 C2730 1.362 . S
H2732 C2738 0.930 . S
H2733 C2741 0.930 . S
H2734 C2742 0.930 . S
H2735 C2743 0.930 . S
H2736 C2746 0.930 . S
H2737 C2747 0.930 . S
C2738 H2732 0.930 . S
C2738 C2739 1.355 . S
C2738 C2740 1.415 . S
C2739 C2738 1.355 . S
C2739 C2741 1.419 . S
C2740 C2738 1.415 . S
C2740 C2745 1.425 . S
C2740 C2747 1.409 . S
C2741 H2733 0.930 . S
C2741 C2739 1.419 . S
C2741 C2742 1.362 . S
C2742 H2734 0.930 . S
C2742 C2741 1.362 . S
C2742 C2745 1.409 . S
C2743 H2735 0.930 . S
C2743 C2744 1.355 . S
C2743 C2745 1.415 . S
C2744 C2743 1.355 . S
C2744 C2746 1.419 . S
C2745 C2740 1.425 . S
C2745 C2742 1.409 . S
C2745 C2743 1.415 . S
C2746 H2736 0.930 . S
C2746 C2744 1.419 . S
C2746 C2747 1.362 . S
C2747 H2737 0.930 . S
C2747 C2740 1.409 . S
C2747 C2746 1.362 . S
H2748 C2754 0.930 . S
H2749 C2757 0.930 . S
H2750 C2758 0.930 . S
H2751 C2759 0.930 . S
H2752 C2762 0.930 . S
H2753 C2763 0.930 . S
C2754 H2748 0.930 . S
C2754 C2755 1.355 . S
C2754 C2756 1.415 . S
C2755 C2754 1.355 . S
C2755 C2757 1.419 . S
C2756 C2754 1.415 . S
C2756 C2761 1.425 . S
C2756 C2763 1.409 . S
C2757 H2749 0.930 . S
C2757 C2755 1.419 . S
C2757 C2758 1.362 . S
C2758 H2750 0.930 . S
C2758 C2757 1.362 . S
C2758 C2761 1.409 . S
C2759 H2751 0.930 . S
C2759 C2760 1.355 . S
C2759 C2761 1.415 . S
C2760 C2759 1.355 . S
C2760 C2762 1.419 . S
C2761 C2756 1.425 . S
C2761 C2758 1.409 . S
C2761 C2759 1.415 . S
C2762 H2752 0.930 . S
C2762 C2760 1.419 . S
C2762 C2763 1.362 . S
C2763 H2753 0.930 . S
C2763 C2756 1.409 . S
C2763 C2762 1.362 . S
H2764 C2770 0.930 . S
H2765 C2773 0.930 . S
H2766 C2774 0.930 . S
H2767 C2775 0.930 . S
H2768 C2778 0.930 . S
H2769 C2779 0.930 . S
C2770 H2764 0.930 . S
C2770 C2771 1.355 . S
C2770 C2772 1.415 . S
C2771 C2770 1.355 . S
C2771 C2773 1.419 . S
C2772 C2770 1.415 . S
C2772 C2777 1.425 . S
C2772 C2779 1.409 . S
C2773 H2765 0.930 . S
C2773 C2771 1.419 . S
C2773 C2774 1.362 . S
C2774 H2766 0.930 . S
C2774 C2773 1.362 . S
C2774 C2777 1.409 . S
C2775 H2767 0.930 . S
C2775 C2776 1.355 . S
C2775 C2777 1.415 . S
C2776 C2775 1.355 . S
C2776 C2778 1.419 . S
C2777 C2772 1.425 . S
C2777 C2774 1.409 . S
C2777 C2775 1.415 . S
C2778 H2768 0.930 . S
C2778 C2776 1.419 . S
C2778 C2779 1.362 . S
C2779 H2769 0.930 . S
C2779 C2772 1.409 . S
C2779 C2778 1.362 . S
H2780 C2786 0.930 . S
H2781 C2789 0.930 . S
H2782 C2790 0.930 . S
H2783 C2791 0.930 . S
H2784 C2794 0.930 . S
H2785 C2795 0.930 . S
C2786 H2780 0.930 . S
C2786 C2787 1.355 . S
C2786 C2788 1.415 . S
C2787 C2786 1.355 . S
C2787 C2789 1.419 . S
C2788 C2786 1.415 . S
C2788 C2793 1.425 . S
C2788 C2795 1.409 . S
C2789 H2781 0.930 . S
C2789 C2787 1.419 . S
C2789 C2790 1.362 . S
C2790 H2782 0.930 . S
C2790 C2789 1.362 . S
C2790 C2793 1.409 . S
C2791 H2783 0.930 . S
C2791 C2792 1.355 . S
C2791 C2793 1.415 . S
C2792 C2791 1.355 . S
C2792 C2794 1.419 . S
C2793 C2788 1.425 . S
C2793 C2790 1.409 . S
C2793 C2791 1.415 . S
C2794 H2784 0.930 . S
C2794 C2792 1.419 . S
C2794 C2795 1.362 . S
C2795 H2785 0.930 . S
C2795 C2788 1.409 . S
C2795 C2794 1.362 . S
H2796 C2802 0.930 . S
H2797 C2805 0.930 . S
H2798 C2806 0.930 1_655 S
H2799 C2807 0.930 . S
H2800 C2810 0.930 . S
H2801 C2811 0.930 . S
C2802 H2796 0.930 . S
C2802 C2803 1.355 . S
C2802 C2804 1.415 . S
C2803 C2802 1.355 . S
C2803 C2805 1.419 . S
C2804 C2802 1.415 . S
C2804 C2809 1.425 . S
C2804 C2811 1.409 . S
C2805 H2797 0.930 . S
C2805 C2803 1.419 . S
C2805 C2806 1.362 . S
C2806 H2798 0.930 1_455 S
C2806 C2805 1.362 . S
C2806 C2809 1.409 . S
C2807 H2799 0.930 . S
C2807 C2808 1.355 . S
C2807 C2809 1.415 . S
C2808 C2807 1.355 . S
C2808 C2810 1.419 . S
C2809 C2804 1.425 . S
C2809 C2806 1.409 . S
C2809 C2807 1.415 . S
C2810 H2800 0.930 . S
C2810 C2808 1.419 . S
C2810 C2811 1.362 . S
C2811 H2801 0.930 . S
C2811 C2804 1.409 . S
C2811 C2810 1.362 . S
H2812 C2818 0.930 . S
H2813 C2821 0.930 . S
H2814 C2822 0.930 . S
H2815 C2823 0.930 . S
H2816 C2826 0.930 . S
H2817 C2827 0.930 . S
C2818 H2812 0.930 . S
C2818 C2819 1.355 . S
C2818 C2820 1.415 . S
C2819 C2818 1.355 . S
C2819 C2821 1.419 . S
C2820 C2818 1.415 . S
C2820 C2825 1.425 . S
C2820 C2827 1.409 . S
C2821 H2813 0.930 . S
C2821 C2819 1.419 . S
C2821 C2822 1.362 . S
C2822 H2814 0.930 . S
C2822 C2821 1.362 . S
C2822 C2825 1.409 . S
C2823 H2815 0.930 . S
C2823 C2824 1.355 . S
C2823 C2825 1.415 . S
C2824 C2823 1.355 . S
C2824 C2826 1.419 . S
C2825 C2820 1.425 . S
C2825 C2822 1.409 . S
C2825 C2823 1.415 . S
C2826 H2816 0.930 . S
C2826 C2824 1.419 . S
C2826 C2827 1.362 . S
C2827 H2817 0.930 . S
C2827 C2820 1.409 . S
C2827 C2826 1.362 . S
H2828 C2834 0.930 . S
H2829 C2837 0.930 . S
H2830 C2838 0.930 . S
H2831 C2839 0.930 . S
H2832 C2842 0.930 . S
H2833 C2843 0.930 . S
C2834 H2828 0.930 . S
C2834 C2835 1.355 . S
C2834 C2836 1.415 . S
C2835 C2834 1.355 . S
C2835 C2837 1.419 . S
C2836 C2834 1.415 . S
C2836 C2841 1.425 . S
C2836 C2843 1.409 . S
C2837 H2829 0.930 . S
C2837 C2835 1.419 . S
C2837 C2838 1.362 . S
C2838 H2830 0.930 . S
C2838 C2837 1.362 . S
C2838 C2841 1.409 . S
C2839 H2831 0.930 . S
C2839 C2840 1.355 . S
C2839 C2841 1.415 . S
C2840 C2839 1.355 . S
C2840 C2842 1.419 . S
C2841 C2836 1.425 . S
C2841 C2838 1.409 . S
C2841 C2839 1.415 . S
C2842 H2832 0.930 . S
C2842 C2840 1.419 . S
C2842 C2843 1.362 . S
C2843 H2833 0.930 . S
C2843 C2836 1.409 . S
C2843 C2842 1.362 . S
H2844 C2850 0.930 . S
H2845 C2853 0.930 . S
H2846 C2854 0.930 1_545 S
H2847 C2855 0.930 . S
H2848 C2858 0.930 . S
H2849 C2859 0.930 . S
C2850 H2844 0.930 . S
C2850 C2851 1.355 . S
C2850 C2852 1.415 . S
C2851 C2850 1.355 . S
C2851 C2853 1.419 . S
C2852 C2850 1.415 . S
C2852 C2857 1.425 . S
C2852 C2859 1.409 . S
C2853 H2845 0.930 . S
C2853 C2851 1.419 . S
C2853 C2854 1.362 . S
C2854 H2846 0.930 1_565 S
C2854 C2853 1.362 . S
C2854 C2857 1.409 . S
C2855 H2847 0.930 . S
C2855 C2856 1.361 1_545 S
C2855 C2857 1.415 1_545 S
C2856 C2855 1.361 1_565 S
C2856 C2858 1.425 . S
C2857 C2852 1.425 . S
C2857 C2854 1.409 . S
C2857 C2855 1.415 1_565 S
C2858 H2848 0.930 . S
C2858 C2856 1.425 . S
C2858 C2859 1.362 . S
C2859 H2849 0.930 . S
C2859 C2852 1.409 . S
C2859 C2858 1.362 . S
H2860 C2866 0.930 . S
H2861 C2869 0.930 . S
H2862 C2870 0.930 . S
H2863 C2871 0.930 . S
H2864 C2874 0.930 . S
H2865 C2875 0.930 . S
C2866 H2860 0.930 . S
C2866 C2867 1.355 . S
C2866 C2868 1.415 . S
C2867 C2866 1.355 . S
C2867 C2869 1.419 . S
C2868 C2866 1.415 . S
C2868 C2873 1.425 . S
C2868 C2875 1.409 . S
C2869 H2861 0.930 . S
C2869 C2867 1.419 . S
C2869 C2870 1.362 1_455 S
C2870 H2862 0.930 . S
C2870 C2869 1.362 1_655 S
C2870 C2873 1.409 1_655 S
C2871 H2863 0.930 . S
C2871 C2872 1.355 1_655 S
C2871 C2873 1.415 1_655 S
C2872 C2871 1.355 1_455 S
C2872 C2874 1.419 . S
C2873 C2868 1.425 . S
C2873 C2870 1.409 1_455 S
C2873 C2871 1.415 1_455 S
C2874 H2864 0.930 . S
C2874 C2872 1.419 . S
C2874 C2875 1.362 . S
C2875 H2865 0.930 . S
C2875 C2868 1.409 . S
C2875 C2874 1.362 . S
H2876 C2882 0.930 . S
H2877 C2885 0.930 . S
H2878 C2886 0.930 . S
H2879 C2887 0.930 . S
H2880 C2890 0.930 . S
H2881 C2891 0.930 . S
C2882 H2876 0.930 . S
C2882 C2883 1.355 . S
C2882 C2884 1.415 . S
C2883 C2882 1.355 . S
C2883 C2885 1.419 . S
C2884 C2882 1.415 . S
C2884 C2889 1.425 . S
C2884 C2891 1.409 . S
C2885 H2877 0.930 . S
C2885 C2883 1.419 . S
C2885 C2886 1.362 . S
C2886 H2878 0.930 . S
C2886 C2885 1.362 . S
C2886 C2889 1.409 . S
C2887 H2879 0.930 . S
C2887 C2888 1.355 . S
C2887 C2889 1.415 . S
C2888 C2887 1.355 . S
C2888 C2890 1.419 . S
C2889 C2884 1.425 . S
C2889 C2886 1.409 . S
C2889 C2887 1.415 . S
C2890 H2880 0.930 . S
C2890 C2888 1.419 . S
C2890 C2891 1.362 . S
C2891 H2881 0.930 . S
C2891 C2884 1.409 . S
C2891 C2890 1.362 . S
H2892 C2898 0.930 . S
H2893 C2901 0.930 . S
H2894 C2902 0.930 . S
H2895 C2903 0.930 . S
H2896 C2906 0.930 . S
H2897 C2907 0.930 . S
C2898 H2892 0.930 . S
C2898 C2899 1.355 . S
C2898 C2900 1.415 . S
C2899 C2898 1.355 . S
C2899 C2901 1.419 . S
C2900 C2898 1.415 . S
C2900 C2905 1.425 . S
C2900 C2907 1.409 . S
C2901 H2893 0.930 . S
C2901 C2899 1.419 . S
C2901 C2902 1.362 . S
C2902 H2894 0.930 . S
C2902 C2901 1.362 . S
C2902 C2905 1.409 . S
C2903 H2895 0.930 . S
C2903 C2904 1.355 . S
C2903 C2905 1.415 . S
C2904 C2903 1.355 . S
C2904 C2906 1.419 . S
C2905 C2900 1.425 . S
C2905 C2902 1.409 . S
C2905 C2903 1.415 . S
C2906 H2896 0.930 . S
C2906 C2904 1.419 . S
C2906 C2907 1.362 . S
C2907 H2897 0.930 . S
C2907 C2900 1.409 . S
C2907 C2906 1.362 . S
H2908 C2914 0.930 . S
H2909 C2917 0.930 . S
H2910 C2918 0.930 . S
H2911 C2919 0.930 . S
H2912 C2922 0.930 . S
H2913 C2923 0.930 . S
C2914 H2908 0.930 . S
C2914 C2915 1.355 . S
C2914 C2916 1.415 . S
C2915 C2914 1.355 . S
C2915 C2917 1.419 . S
C2916 C2914 1.415 . S
C2916 C2921 1.425 . S
C2916 C2923 1.409 . S
C2917 H2909 0.930 . S
C2917 C2915 1.419 . S
C2917 C2918 1.362 . S
C2918 H2910 0.930 . S
C2918 C2917 1.362 . S
C2918 C2921 1.409 . S
C2919 H2911 0.930 . S
C2919 C2920 1.355 . S
C2919 C2921 1.415 . S
C2920 C2919 1.355 . S
C2920 C2922 1.419 . S
C2921 C2916 1.425 . S
C2921 C2918 1.409 . S
C2921 C2919 1.415 . S
C2922 H2912 0.930 . S
C2922 C2920 1.419 . S
C2922 C2923 1.362 . S
C2923 H2913 0.930 . S
C2923 C2916 1.409 . S
C2923 C2922 1.362 . S
H2924 C2930 0.930 . S
H2925 C2933 0.930 . S
H2926 C2934 0.930 . S
H2927 C2935 0.930 . S
H2928 C2938 0.930 . S
H2929 C2939 0.930 . S
C2930 H2924 0.930 . S
C2930 C2931 1.355 . S
C2930 C2932 1.415 . S
C2931 C2930 1.355 . S
C2931 C2933 1.419 . S
C2932 C2930 1.415 . S
C2932 C2937 1.425 . S
C2932 C2939 1.409 . S
C2933 H2925 0.930 . S
C2933 C2931 1.419 . S
C2933 C2934 1.362 . S
C2934 H2926 0.930 . S
C2934 C2933 1.362 . S
C2934 C2937 1.409 . S
C2935 H2927 0.930 . S
C2935 C2936 1.355 . S
C2935 C2937 1.415 . S
C2936 C2935 1.355 . S
C2936 C2938 1.419 . S
C2937 C2932 1.425 . S
C2937 C2934 1.409 . S
C2937 C2935 1.415 . S
C2938 H2928 0.930 . S
C2938 C2936 1.419 . S
C2938 C2939 1.362 . S
C2939 H2929 0.930 . S
C2939 C2932 1.409 . S
C2939 C2938 1.362 . S
H2940 C2946 0.930 . S
H2941 C2949 0.930 . S
H2942 C2950 0.930 . S
H2943 C2951 0.930 . S
H2944 C2954 0.930 1_565 S
H2945 C2955 0.930 1_565 S
C2946 H2940 0.930 . S
C2946 C2947 1.355 . S
C2946 C2948 1.415 . S
C2947 C2946 1.355 . S
C2947 C2949 1.419 . S
C2948 C2946 1.415 . S
C2948 C2953 1.425 . S
C2948 C2955 1.409 . S
C2949 H2941 0.930 . S
C2949 C2947 1.419 . S
C2949 C2950 1.362 . S
C2950 H2942 0.930 . S
C2950 C2949 1.362 . S
C2950 C2953 1.409 . S
C2951 H2943 0.930 . S
C2951 C2952 1.355 . S
C2951 C2953 1.415 . S
C2952 C2951 1.355 . S
C2952 C2954 1.419 . S
C2953 C2948 1.425 . S
C2953 C2950 1.409 . S
C2953 C2951 1.415 . S
C2954 H2944 0.930 1_545 S
C2954 C2952 1.419 . S
C2954 C2955 1.362 . S
C2955 H2945 0.930 1_545 S
C2955 C2948 1.409 . S
C2955 C2954 1.362 . S
H2956 C2962 0.930 . S
H2957 C2965 0.930 . S
H2958 C2966 0.930 . S
H2959 C2967 0.930 . S
H2960 C2970 0.930 . S
H2961 C2971 0.930 . S
C2962 H2956 0.930 . S
C2962 C2963 1.355 . S
C2962 C2964 1.415 . S
C2963 C2962 1.355 . S
C2963 C2965 1.419 . S
C2964 C2962 1.415 . S
C2964 C2969 1.425 . S
C2964 C2971 1.409 . S
C2965 H2957 0.930 . S
C2965 C2963 1.419 . S
C2965 C2966 1.362 . S
C2966 H2958 0.930 . S
C2966 C2965 1.362 . S
C2966 C2969 1.409 . S
C2967 H2959 0.930 . S
C2967 C2968 1.355 . S
C2967 C2969 1.415 . S
C2968 C2967 1.355 . S
C2968 C2970 1.419 . S
C2969 C2964 1.425 . S
C2969 C2966 1.409 . S
C2969 C2967 1.415 . S
C2970 H2960 0.930 . S
C2970 C2968 1.419 . S
C2970 C2971 1.362 . S
C2971 H2961 0.930 . S
C2971 C2964 1.409 . S
C2971 C2970 1.362 . S
H2972 C2978 0.930 . S
H2973 C2981 0.930 . S
H2974 C2982 0.930 . S
H2975 C2983 0.930 . S
H2976 C2986 0.930 . S
H2977 C2987 0.930 . S
C2978 H2972 0.930 . S
C2978 C2979 1.355 . S
C2978 C2980 1.415 . S
C2979 C2978 1.355 . S
C2979 C2981 1.419 . S
C2980 C2978 1.415 . S
C2980 C2985 1.425 . S
C2980 C2987 1.409 . S
C2981 H2973 0.930 . S
C2981 C2979 1.419 . S
C2981 C2982 1.362 . S
C2982 H2974 0.930 . S
C2982 C2981 1.362 . S
C2982 C2985 1.409 . S
C2983 H2975 0.930 . S
C2983 C2984 1.355 . S
C2983 C2985 1.415 . S
C2984 C2983 1.355 . S
C2984 C2986 1.419 . S
C2985 C2980 1.425 . S
C2985 C2982 1.409 . S
C2985 C2983 1.415 . S
C2986 H2976 0.930 . S
C2986 C2984 1.419 . S
C2986 C2987 1.362 . S
C2987 H2977 0.930 . S
C2987 C2980 1.409 . S
C2987 C2986 1.362 . S
H2988 C2994 0.930 . S
H2989 C2997 0.930 . S
H2990 C2998 0.930 . S
H2991 C2999 0.930 . S
H2992 C3002 0.930 . S
H2993 C3003 0.930 . S
C2994 H2988 0.930 . S
C2994 C2995 1.355 . S
C2994 C2996 1.415 . S
C2995 C2994 1.355 . S
C2995 C2997 1.419 . S
C2996 C2994 1.415 . S
C2996 C3001 1.425 . S
C2996 C3003 1.409 . S
C2997 H2989 0.930 . S
C2997 C2995 1.419 . S
C2997 C2998 1.362 . S
C2998 H2990 0.930 . S
C2998 C2997 1.362 . S
C2998 C3001 1.409 . S
C2999 H2991 0.930 . S
C2999 C3000 1.355 . S
C2999 C3001 1.415 . S
C3000 C2999 1.355 . S
C3000 C3002 1.419 . S
C3001 C2996 1.425 . S
C3001 C2998 1.409 . S
C3001 C2999 1.415 . S
C3002 H2992 0.930 . S
C3002 C3000 1.419 . S
C3002 C3003 1.362 . S
C3003 H2993 0.930 . S
C3003 C2996 1.409 . S
C3003 C3002 1.362 . S
H3004 C3010 0.930 . S
H3005 C3013 0.930 . S
H3006 C3014 0.930 . S
H3007 C3015 0.930 . S
H3008 C3018 0.930 . S
H3009 C3019 0.930 . S
C3010 H3004 0.930 . S
C3010 C3011 1.355 . S
C3010 C3012 1.415 . S
C3011 C3010 1.355 . S
C3011 C3013 1.419 . S
C3012 C3010 1.415 . S
C3012 C3017 1.425 . S
C3012 C3019 1.409 . S
C3013 H3005 0.930 . S
C3013 C3011 1.419 . S
C3013 C3014 1.362 . S
C3014 H3006 0.930 . S
C3014 C3013 1.362 . S
C3014 C3017 1.409 . S
C3015 H3007 0.930 . S
C3015 C3016 1.355 . S
C3015 C3017 1.415 . S
C3016 C3015 1.355 . S
C3016 C3018 1.419 . S
C3017 C3012 1.425 . S
C3017 C3014 1.409 . S
C3017 C3015 1.415 . S
C3018 H3008 0.930 . S
C3018 C3016 1.419 . S
C3018 C3019 1.362 . S
C3019 H3009 0.930 . S
C3019 C3012 1.409 . S
C3019 C3018 1.362 . S
H3020 C3026 0.930 . S
H3021 C3029 0.930 . S
H3022 C3030 0.930 . S
H3023 C3031 0.930 . S
H3024 C3034 0.930 . S
H3025 C3035 0.930 . S
C3026 H3020 0.930 . S
C3026 C3027 1.355 . S
C3026 C3028 1.415 . S
C3027 C3026 1.355 . S
C3027 C3029 1.419 . S
C3028 C3026 1.415 . S
C3028 C3033 1.425 . S
C3028 C3035 1.409 . S
C3029 H3021 0.930 . S
C3029 C3027 1.419 . S
C3029 C3030 1.362 . S
C3030 H3022 0.930 . S
C3030 C3029 1.362 . S
C3030 C3033 1.409 . S
C3031 H3023 0.930 . S
C3031 C3032 1.355 . S
C3031 C3033 1.415 . S
C3032 C3031 1.355 . S
C3032 C3034 1.419 . S
C3033 C3028 1.425 . S
C3033 C3030 1.409 . S
C3033 C3031 1.415 . S
C3034 H3024 0.930 . S
C3034 C3032 1.419 . S
C3034 C3035 1.362 . S
C3035 H3025 0.930 . S
C3035 C3028 1.409 . S
C3035 C3034 1.362 . S
H3036 C3042 0.930 . S
H3037 C3045 0.930 . S
H3038 C3046 0.930 . S
H3039 C3047 0.930 . S
H3040 C3050 0.930 . S
H3041 C3051 0.930 . S
C3042 H3036 0.930 . S
C3042 C3043 1.355 . S
C3042 C3044 1.415 . S
C3043 C3042 1.355 . S
C3043 C3045 1.419 . S
C3044 C3042 1.415 . S
C3044 C3049 1.425 . S
C3044 C3051 1.409 . S
C3045 H3037 0.930 . S
C3045 C3043 1.419 . S
C3045 C3046 1.362 . S
C3046 H3038 0.930 . S
C3046 C3045 1.362 . S
C3046 C3049 1.409 . S
C3047 H3039 0.930 . S
C3047 C3048 1.355 . S
C3047 C3049 1.415 . S
C3048 C3047 1.355 . S
C3048 C3050 1.419 . S
C3049 C3044 1.425 . S
C3049 C3046 1.409 . S
C3049 C3047 1.415 . S
C3050 H3040 0.930 . S
C3050 C3048 1.419 . S
C3050 C3051 1.362 . S
C3051 H3041 0.930 . S
C3051 C3044 1.409 . S
C3051 C3050 1.362 . S
H3052 C3058 0.930 . S
H3053 C3061 0.930 . S
H3054 C3062 0.930 . S
H3055 C3063 0.930 . S
H3056 C3066 0.930 . S
H3057 C3067 0.930 . S
C3058 H3052 0.930 . S
C3058 C3059 1.355 . S
C3058 C3060 1.415 . S
C3059 C3058 1.355 . S
C3059 C3061 1.419 . S
C3060 C3058 1.415 . S
C3060 C3065 1.425 . S
C3060 C3067 1.409 . S
C3061 H3053 0.930 . S
C3061 C3059 1.419 . S
C3061 C3062 1.362 . S
C3062 H3054 0.930 . S
C3062 C3061 1.362 . S
C3062 C3065 1.409 . S
C3063 H3055 0.930 . S
C3063 C3064 1.355 . S
C3063 C3065 1.415 . S
C3064 C3063 1.355 . S
C3064 C3066 1.419 . S
C3065 C3060 1.425 . S
C3065 C3062 1.409 . S
C3065 C3063 1.415 . S
C3066 H3056 0.930 . S
C3066 C3064 1.419 . S
C3066 C3067 1.362 . S
C3067 H3057 0.930 . S
C3067 C3060 1.409 . S
C3067 C3066 1.362 . S
H3068 C3074 0.930 . S
H3069 C3077 0.930 . S
H3070 C3078 0.930 . S
H3071 C3079 0.930 . S
H3072 C3082 0.930 . S
H3073 C3083 0.930 . S
C3074 H3068 0.930 . S
C3074 C3075 1.355 . S
C3074 C3076 1.415 . S
C3075 C3074 1.355 . S
C3075 C3077 1.419 . S
C3076 C3074 1.415 . S
C3076 C3081 1.425 . S
C3076 C3083 1.409 . S
C3077 H3069 0.930 . S
C3077 C3075 1.419 . S
C3077 C3078 1.362 . S
C3078 H3070 0.930 . S
C3078 C3077 1.362 . S
C3078 C3081 1.409 . S
C3079 H3071 0.930 . S
C3079 C3080 1.355 . S
C3079 C3081 1.415 . S
C3080 C3079 1.355 . S
C3080 C3082 1.419 . S
C3081 C3076 1.425 . S
C3081 C3078 1.409 . S
C3081 C3079 1.415 . S
C3082 H3072 0.930 . S
C3082 C3080 1.419 . S
C3082 C3083 1.362 . S
C3083 H3073 0.930 . S
C3083 C3076 1.409 . S
C3083 C3082 1.362 . S
H3084 C3090 0.930 . S
H3085 C3093 0.930 . S
H3086 C3094 0.987 . S
H3087 C3095 0.930 . S
H3088 C3098 0.930 . S
H3089 C3099 0.930 . S
C3090 H3084 0.930 . S
C3090 C3091 1.355 . S
C3090 C3092 1.415 . S
C3091 C3090 1.355 . S
C3091 C3093 1.419 . S
C3092 C3090 1.415 . S
C3092 C3097 1.425 . S
C3092 C3099 1.409 . S
C3093 H3085 0.930 . S
C3093 C3091 1.419 . S
C3093 C3094 1.309 1_655 S
C3094 H3086 0.987 . S
C3094 C3093 1.309 1_455 S
C3094 C3097 1.409 1_455 S
C3095 H3087 0.930 . S
C3095 C3096 1.355 1_455 S
C3095 C3097 1.415 1_455 S
C3096 C3095 1.355 1_655 S
C3096 C3098 1.419 . S
C3097 C3092 1.425 . S
C3097 C3094 1.409 1_655 S
C3097 C3095 1.415 1_655 S
C3098 H3088 0.930 . S
C3098 C3096 1.419 . S
C3098 C3099 1.362 . S
C3099 H3089 0.930 . S
C3099 C3092 1.409 . S
C3099 C3098 1.362 . S
H3100 C3106 0.930 . S
H3101 C3109 0.930 . S
H3102 C3110 0.930 . S
H3103 C3111 0.930 . S
H3104 C3114 0.930 . S
H3105 C3115 0.930 . S
C3106 H3100 0.930 . S
C3106 C3107 1.355 . S
C3106 C3108 1.415 . S
C3107 C3106 1.355 . S
C3107 C3109 1.419 . S
C3108 C3106 1.415 . S
C3108 C3113 1.425 . S
C3108 C3115 1.409 . S
C3109 H3101 0.930 . S
C3109 C3107 1.419 . S
C3109 C3110 1.362 . S
C3110 H3102 0.930 . S
C3110 C3109 1.362 . S
C3110 C3113 1.409 . S
C3111 H3103 0.930 . S
C3111 C3112 1.355 . S
C3111 C3113 1.415 . S
C3112 C3111 1.355 . S
C3112 C3114 1.419 . S
C3113 C3108 1.425 . S
C3113 C3110 1.409 . S
C3113 C3111 1.415 . S
C3114 H3104 0.930 . S
C3114 C3112 1.419 . S
C3114 C3115 1.362 . S
C3115 H3105 0.930 . S
C3115 C3108 1.409 . S
C3115 C3114 1.362 . S
H3116 C3122 0.930 . S
H3117 C3125 0.930 . S
H3118 C3126 0.930 . S
H3119 C3127 0.930 . S
H3120 C3130 0.937 1_565 S
H3121 C3131 0.930 . S
C3122 H3116 0.930 . S
C3122 C3123 1.355 . S
C3122 C3124 1.415 . S
C3123 C3122 1.355 . S
C3123 C3125 1.419 . S
C3124 C3122 1.415 . S
C3124 C3129 1.425 . S
C3124 C3131 1.409 . S
C3125 H3117 0.930 . S
C3125 C3123 1.419 . S
C3125 C3126 1.362 . S
C3126 H3118 0.930 . S
C3126 C3125 1.362 . S
C3126 C3129 1.409 . S
C3127 H3119 0.930 . S
C3127 C3128 1.355 . S
C3127 C3129 1.415 . S
C3128 C3127 1.355 . S
C3128 C3130 1.417 . S
C3129 C3124 1.425 . S
C3129 C3126 1.409 . S
C3129 C3127 1.415 . S
C3130 H3120 0.937 1_545 S
C3130 C3128 1.417 . S
C3130 C3131 1.360 . S
C3131 H3121 0.930 . S
C3131 C3124 1.409 . S
C3131 C3130 1.360 . S
C1987 C4 1.269 1_655 S
C1992 C1377 1.247 . S
C2003 C38 1.771 . S
C2008 C1457 1.679 . S
C2024 C1525 1.322 . S
C2019 C74 1.356 . S
C2035 C76 1.661 . S
C2040 C1605 1.634 . S
C2051 C2 1.573 . S
C2056 C1679 1.545 . S
C2067 C40 1.631 . S
C2072 C1747 1.572 . S
C2083 C110 1.175 1_556 S
C2088 C1673 1.221 . S
C2104 C1753 1.448 . S
C2099 C148 1.417 . S
C2120 C1599 1.320 1_565 S
C2115 C182 1.270 1_556 S
C2131 C184 1.667 . S
C2136 C1531 1.719 1_545 S
C2152 C1383 1.443 . S
C2147 C112 1.403 . S
C2163 C146 1.492 . S
C2168 C1451 1.461 . S
C2179 C220 1.537 . S
C2184 C1821 1.359 . S
C2195 C254 1.814 . S
C2200 C1901 1.768 . S
C2216 C1969 1.542 . S
C2211 C290 1.683 . S
C2227 C292 1.825 . S
C2232 C717 1.757 . S
C2243 C218 1.813 . S
C2248 C791 1.770 . S
C2259 C256 1.658 . S
C2264 C859 1.532 . S
C2275 C326 1.327 . S
C2280 C785 1.287 . S
C2291 C364 1.512 . S
C2296 C865 1.480 . S
C2312 C711 1.501 . S
C2307 C398 1.512 . S
C2328 C1975 1.801 . S
C2323 C400 1.823 . S
C2344 C1827 1.486 . S
C2339 C328 1.472 . S
C2360 C1895 1.518 . S
C2355 C362 1.540 . S
C2371 C436 1.462 . S
C2376 C933 1.298 . S
C2387 C470 1.824 . S
C2392 C1013 1.744 . S
C2403 C506 1.691 . S
C2408 C1081 1.603 . S
C2419 C508 1.910 . S
C2424 C1161 1.868 . S
C2440 C1235 1.697 . S
C2435 C434 1.809 . S
C2456 C1303 1.620 . S
C2451 C472 1.695 . S
C2472 C1229 1.330 . S
C2467 C542 1.405 . S
C2488 C1309 1.476 . S
C2483 C580 1.486 . S
C2499 C614 1.454 . S
C2504 C1155 1.456 . S
C2520 C1087 1.723 . S
C2515 C616 1.735 . S
C2531 C544 1.514 . S
C2536 C939 1.503 . S
C2552 C1007 1.472 . S
C2547 C578 1.522 . S
C2568 C687 1.957 . S
C2563 C14 1.975 . S
C2579 C39 1.494 . S
C2584 C761 1.461 . S
C2600 C847 1.525 . S
C2595 C75 1.531 . S
C2616 C921 1.258 . S
C2611 C86 1.245 . S
C2632 C983 1.591 . S
C2627 C3 1.626 1_556 S
C2648 C1069 1.593 . S
C2643 C50 1.596 . S
C2659 C111 2.135 . S
C2664 C1057 2.045 . S
C2675 C158 1.697 . S
C2680 C909 1.616 . S
C2691 C183 1.890 . S
C2696 C995 1.851 . S
C2707 C194 1.678 . S
C2712 C773 1.603 . S
C2728 C835 1.756 . S
C2723 C122 1.850 . S
C2739 C147 1.725 . S
C2744 C699 1.665 . S
C2760 C1131 1.944 . S
C2755 C230 1.946 . S
C2771 C255 1.617 . S
C2776 C1205 1.616 . S
C2787 C291 1.554 1_655 S
C2792 C1291 1.524 . S
C2808 C1365 1.113 . S
C2803 C302 1.129 . S
C2819 C219 1.560 . S
C2824 C1427 1.517 . S
C2835 C266 1.383 . S
C2840 C1513 1.481 . S
C2851 C327 1.750 . S
C2856 C1501 1.651 1_565 S
C2867 C374 1.396 . S
C2872 C1353 1.335 1_455 S
C2888 C1439 1.775 . S
C2883 C399 1.824 . S
C2899 C410 1.666 . S
C2904 C1217 1.556 . S
C2915 C338 1.888 . S
C2920 C1279 1.716 . S
C2936 C1143 1.795 . S
C2931 C363 1.841 1_655 S
C2952 C1575 1.791 . S
C2947 C446 1.731 . S
C2963 C471 1.318 . S
C2968 C1649 1.335 . S
C2979 C507 1.435 . S
C2984 C1735 1.418 . S
C3000 C1809 1.270 . S
C2995 C518 1.261 . S
C3016 C1871 1.636 . S
C3011 C435 1.697 . S
C3027 C482 1.642 1_455 S
C3032 C1957 1.692 . S
C3043 C543 2.072 . S
C3048 C1945 1.980 . S
C3059 C590 1.803 1_565 S
C3064 C1797 1.686 . S
C3080 C1883 1.805 . S
C3075 C615 1.885 1_455 S
C3096 C1661 1.208 . S
C3091 C626 1.273 . S
C3112 C1723 1.626 . S
C3107 C554 1.767 . S
C3123 C579 1.490 . S
C3128 C1587 1.478 . S
