# Generated by pormake.
# Topology anh, (6,3)-cn, num edge types: 1
# Building blocks:
#     Node 0, Type 0, BuildingBlock: HISSIN_clean_sbu_0, # of connection points: 6
#     Node 1, Type 0, BuildingBlock: HISSIN_clean_sbu_0, # of connection points: 6
#     Node 2, Type 0, BuildingBlock: HISSIN_clean_sbu_0, # of connection points: 6
#     Node 3, Type 1, BuildingBlock: CUQRIR_clean_linker_1, # of connection points: 3
#     Node 4, Type 1, BuildingBlock: CUQRIR_clean_linker_1, # of connection points: 3
#     Node 5, Type 1, BuildingBlock: CUQRIR_clean_linker_1, # of connection points: 3
#     Node 6, Type 1, BuildingBlock: CUQRIR_clean_linker_1, # of connection points: 3
#     Node 7, Type 1, BuildingBlock: CUQRIR_clean_linker_1, # of connection points: 3
#     Node 8, Type 1, BuildingBlock: CUQRIR_clean_linker_1, # of connection points: 3
#     Edge 9, Type (0, 1), BuildingBlock: KIFKEQ_clean_linker_1, # of connection points: 2
#     Edge 10, Type (0, 1), BuildingBlock: KIFKEQ_clean_linker_1, # of connection points: 2
#     Edge 11, Type (0, 1), BuildingBlock: KIFKEQ_clean_linker_1, # of connection points: 2
#     Edge 12, Type (0, 1), BuildingBlock: KIFKEQ_clean_linker_1, # of connection points: 2
#     Edge 13, Type (0, 1), BuildingBlock: KIFKEQ_clean_linker_1, # of connection points: 2
#     Edge 14, Type (0, 1), BuildingBlock: KIFKEQ_clean_linker_1, # of connection points: 2
#     Edge 15, Type (0, 1), BuildingBlock: KIFKEQ_clean_linker_1, # of connection points: 2
#     Edge 16, Type (0, 1), BuildingBlock: KIFKEQ_clean_linker_1, # of connection points: 2
#     Edge 17, Type (0, 1), BuildingBlock: KIFKEQ_clean_linker_1, # of connection points: 2
#     Edge 18, Type (0, 1), BuildingBlock: KIFKEQ_clean_linker_1, # of connection points: 2
#     Edge 19, Type (0, 1), BuildingBlock: KIFKEQ_clean_linker_1, # of connection points: 2
#     Edge 20, Type (0, 1), BuildingBlock: KIFKEQ_clean_linker_1, # of connection points: 2
#     Edge 21, Type (0, 1), BuildingBlock: KIFKEQ_clean_linker_1, # of connection points: 2
#     Edge 22, Type (0, 1), BuildingBlock: KIFKEQ_clean_linker_1, # of connection points: 2
#     Edge 23, Type (0, 1), BuildingBlock: KIFKEQ_clean_linker_1, # of connection points: 2
#     Edge 24, Type (0, 1), BuildingBlock: KIFKEQ_clean_linker_1, # of connection points: 2
#     Edge 25, Type (0, 1), BuildingBlock: KIFKEQ_clean_linker_1, # of connection points: 2
#     Edge 26, Type (0, 1), BuildingBlock: KIFKEQ_clean_linker_1, # of connection points: 2
# Relax obj value: 0.293
# Max RMSD: 0.204
# Mean RMSD: 0.159
data_MOF--net-anh--node1-HISSIN_clean_sbu_0--node2-CUQRIR_clean_linker_1--edge1-KIFKEQ_clean_linker_1
_symmetry_space_group_name_H-M    P1
_symmetry_Int_Tables_number       1
_symmetry_cell_setting            triclinic
loop_
_symmetry_equiv_pos_as_xyz
'x, y, z'
_cell_length_a     28.004862
_cell_length_b     27.824759
_cell_length_c     47.77326
_cell_angle_alpha  89.08517
_cell_angle_beta   91.265446
_cell_angle_gamma 119.73521
loop_
_atom_site_label
_atom_site_type_symbol
_atom_site_fract_x
_atom_site_fract_y
_atom_site_fract_z
_atom_type_partial_charge
Eu0 Eu 1.06761 0.49417 0.15648 0.0
Eu1 Eu 1.1354 0.62831 0.16237 0.0
C2 C 1.08566 0.55179 0.21668 0.0
C3 C 0.95679 0.35356 0.17367 0.0
C4 C 0.95528 0.36882 0.20141 0.0
C5 C 0.85804 0.29191 0.17445 0.0
C6 C 0.90538 0.34719 0.21519 0.0
C7 C 0.90813 0.31349 0.16066 0.0
C8 C 0.856 0.31031 0.20143 0.0
C9 C 1.00593 0.38699 0.15681 0.0
O10 O 0.20166 0.60309 0.168 0.0
O11 O 0.15628 0.51553 0.14933 0.0
C12 C 0.20222 0.55929 0.15794 0.0
O13 O 1.08455 0.52355 0.11168 0.0
O14 O 0.16462 0.70934 0.14321 0.0
O15 O 0.18528 0.70323 0.18672 0.0
O16 O 0.15461 0.61208 0.11954 0.0
C17 C 1.12519 0.57065 0.10267 0.0
O18 O 1.00115 0.51883 0.16009 0.0
O19 O 1.05038 0.60991 0.14714 0.0
O20 O 1.09313 0.59693 0.20384 0.0
O21 O 1.00037 0.41889 0.13831 0.0
O22 O 1.05268 0.41285 0.17051 0.0
O23 O 1.08566 0.51173 0.20265 0.0
C24 C 0.1738 0.77943 0.17307 0.0
C25 C 1.13496 0.77186 0.19329 0.0
C26 C 0.19058 0.87243 0.16435 0.0
C27 C 1.12506 0.81516 0.19951 0.0
C28 C 0.20063 0.82948 0.15833 0.0
C29 C 1.15342 0.86623 0.18534 0.0
C30 C 0.18664 0.73585 0.16639 0.0
C31 C 1.00284 0.56492 0.15144 0.0
H32 H 0.99212 0.40006 0.21192 0.0
H33 H 0.82061 0.26381 0.16323 0.0
H34 H 0.90516 0.36142 0.23614 0.0
H35 H 0.90834 0.30174 0.13917 0.0
H36 H 1.1131 0.733 0.20457 0.0
H37 H 0.21417 0.9115 0.15347 0.0
H38 H 1.09626 0.80919 0.21577 0.0
H39 H 0.23036 0.8358 0.14249 0.0
Eu40 Eu 0.68222 1.05497 0.48841 0.0
Eu41 Eu 0.621 0.12227 0.50633 0.0
C42 C 0.67169 1.07816 0.55321 0.0
C43 C 0.78709 1.00818 0.48662 0.0
C44 C 0.81424 1.04115 0.51001 0.0
C45 C 0.85293 0.97581 0.48656 0.0
C46 C 0.85944 1.03998 0.5222 0.0
C47 C 0.8075 0.97674 0.47451 0.0
C48 C 0.87831 1.0061 0.51104 0.0
C49 C 0.73505 1.003 0.4764 0.0
O50 O 0.71165 0.18972 0.50581 0.0
O51 O 0.74888 0.14482 0.48252 0.0
C52 C 0.75316 0.19051 0.49278 0.0
O53 O 0.63668 1.06066 0.44981 0.0
O54 O 0.61015 0.178 0.53373 0.0
O55 O 0.55884 0.14568 0.4964 0.0
O56 O 0.64911 0.14428 0.46222 0.0
C57 C 0.63829 0.10726 0.44305 0.0
O58 O 0.59431 0.98657 0.49594 0.0
O59 O 0.54952 1.0368 0.49515 0.0
O60 O 0.62791 1.08135 0.54601 0.0
O61 O 0.69643 0.98557 0.49499 0.0
O62 O 0.73863 1.04447 0.46165 0.0
O63 O 0.70494 1.07895 0.53399 0.0
C64 C 0.59971 0.24133 0.50524 0.0
C65 C 0.61963 0.25533 0.47779 0.0
C66 C 0.64718 0.33877 0.51697 0.0
C67 C 0.65491 0.31038 0.4704 0.0
C68 C 0.61178 0.28363 0.52436 0.0
C69 C 0.67109 0.35241 0.49031 0.0
C70 C 0.57811 0.18421 0.51549 0.0
C71 C 0.54841 0.98886 0.4947 0.0
H72 H 0.79901 1.06594 0.51952 0.0
H73 H 0.86594 0.94864 0.47771 0.0
H74 H 0.87832 1.06388 0.54095 0.0
H75 H 0.78691 0.95106 0.45647 0.0
H76 H 0.61127 0.22358 0.46256 0.0
H77 H 0.65918 0.3701 0.53293 0.0
H78 H 0.67196 0.31968 0.44959 0.0
H79 H 0.59745 0.27376 0.54569 0.0
Eu80 Eu 0.71775 0.64611 0.81753 0.0
Eu81 Eu 0.84525 0.72351 0.83609 0.0
C82 C 0.75295 0.66565 0.88391 0.0
C83 C 0.57016 0.53581 0.82059 0.0
C84 C 0.58171 0.51637 0.8457 0.0
C85 C 0.47376 0.48877 0.83193 0.0
C86 C 0.5396 0.48517 0.86445 0.0
C87 C 0.51579 0.51962 0.8132 0.0
C88 C 0.48559 0.47387 0.85851 0.0
C89 C 0.61485 0.57954 0.80448 0.0
O90 O 0.83561 0.64019 0.82212 0.0
O91 O 0.74595 0.58759 0.83405 0.0
C92 C 0.79274 0.59105 0.82735 0.0
O93 O 0.76567 0.65503 0.77845 0.0
O94 O 0.9235 0.73594 0.85317 0.0
O95 O 0.91671 0.80622 0.83848 0.0
O96 O 0.84422 0.73514 0.78969 0.0
C97 C 0.81285 0.69778 0.77139 0.0
O98 O 0.73771 0.73429 0.80655 0.0
O99 O 0.80641 0.77834 0.83901 0.0
O100 O 0.80506 0.68824 0.87741 0.0
O101 O 0.63321 0.62941 0.81408 0.0
O102 O 0.65446 0.57036 0.79779 0.0
O103 O 0.7142 0.65314 0.86465 0.0
C104 C 0.99883 0.80694 0.82982 0.0
C105 C 0.99372 0.7902 0.80183 0.0
C106 C 1.09778 0.8505 0.8269 0.0
C107 C 1.04044 0.80188 0.78675 0.0
C108 C 1.05103 0.83885 0.84193 0.0
C109 C 1.09285 0.83011 0.79955 0.0
C110 C 0.94981 0.78849 0.84678 0.0
C111 C 0.77066 0.77915 0.82089 0.0
H112 H 0.62374 0.52855 0.85168 0.0
H113 H 0.43304 0.48167 0.82652 0.0
H114 H 0.5501 0.47374 0.88446 0.0
H115 H 0.50632 0.53441 0.79391 0.0
H116 H 0.95352 0.76587 0.7921 0.0
H117 H 1.13737 0.87159 0.83758 0.0
H118 H 1.03535 0.78585 0.76572 0.0
H119 H 1.05554 0.85235 0.86346 0.0
C120 C 0.44094 0.22386 0.24584 0.0
N121 N 0.48146 0.22414 0.26186 0.0
N122 N 0.3908 0.19003 0.25695 0.0
C123 C 0.45055 0.25729 0.21939 0.0
C124 C 0.40289 0.17052 0.28077 0.0
N125 N 0.45775 0.19149 0.28369 0.0
C126 C 0.36099 0.12464 0.2988 0.0
H127 H 0.48854 0.29806 0.22168 0.0
H128 H 0.41504 0.26347 0.21444 0.0
H129 H 0.45647 0.23565 0.20166 0.0
H130 H 0.3318 1.08945 0.28554 0.0
H131 H 0.33722 0.14008 0.31016 0.0
H132 H 0.3803 0.10934 0.3144 0.0
C133 C 1.0091 0.74291 0.543 0.0
N134 N 1.00549 0.76197 0.56836 0.0
N135 N 0.9883 0.68728 0.54354 0.0
C136 C 1.02445 0.77707 0.51651 0.0
C137 C 0.97499 0.67389 0.57078 0.0
N138 N 0.98391 0.71864 0.58565 0.0
C139 C 0.94599 0.6154 0.58196 0.0
H140 H 0.99435 0.79126 0.51202 0.0
H141 H 1.02574 0.75321 0.49844 0.0
H142 H 1.0655 0.81434 0.51929 0.0
H143 H 0.96658 0.59277 0.57462 0.0
H144 H 0.90289 0.59359 0.57394 0.0
H145 H 0.94602 0.61439 0.60518 0.0
C146 C 0.31117 0.66135 0.87015 0.0
N147 N 0.29513 0.63183 0.89427 0.0
N148 N 0.28414 0.68992 0.86612 0.0
C149 C 0.35428 0.66345 0.85114 0.0
C150 C 0.2505 0.67594 0.8884 0.0
N151 N 0.257 0.64026 0.90543 0.0
C152 C 0.21336 0.69931 0.89408 0.0
H153 H 0.39551 0.69098 0.86049 0.0
H154 H 0.35255 0.67988 0.8301 0.0
H155 H 0.34947 0.62158 0.84912 0.0
H156 H 0.23734 0.7391 0.90533 0.0
H157 H 0.17824 0.67112 0.90726 0.0
H158 H 0.19731 0.70743 0.87418 0.0
C159 C 1.14288 0.59323 0.46774 0.0
N160 N 1.10452 0.5563 0.44924 0.0
N161 N 0.18604 0.6355 0.45412 0.0
C162 C 1.14078 0.58607 0.49899 0.0
C163 C 0.17245 0.62313 0.42678 0.0
N164 N 1.12386 0.57553 0.42376 0.0
C165 C 0.20629 0.65854 0.40276 0.0
H166 H 1.11703 0.60438 0.5077 0.0
H167 H 0.18276 0.60763 0.50844 0.0
H168 H 1.12022 0.54156 0.5048 0.0
H169 H 0.23424 0.6435 0.39604 0.0
H170 H 0.23148 0.70251 0.40904 0.0
H171 H 0.17972 0.65582 0.38459 0.0
C172 C 0.77834 0.18185 0.79764 0.0
N173 N 0.77241 0.14195 0.77927 0.0
N174 N 0.78173 0.22697 0.78391 0.0
C175 C 0.78341 0.17787 0.8288 0.0
C176 C 0.77701 0.21242 0.75658 0.0
N177 N 0.7722 0.16174 0.75375 0.0
C178 C 0.77226 0.24577 0.7326 0.0
H179 H 0.74162 0.15687 0.83778 0.0
H180 H 0.80727 0.21962 0.8382 0.0
H181 H 0.8034 0.15301 0.83426 0.0
H182 H 0.81362 0.27245 0.72373 0.0
H183 H 0.75583 0.27246 0.73963 0.0
H184 H 0.7449 0.21839 0.71572 0.0
C185 C 0.60869 0.5727 0.12727 0.0
N186 N 0.6475 0.57655 0.10898 0.0
N187 N 0.56534 0.57281 0.11351 0.0
C188 C 0.61133 0.56528 0.15834 0.0
C189 C 0.57972 0.57738 0.08624 0.0
N190 N 0.6286 0.57893 0.08344 0.0
C191 C 0.54788 0.58471 0.0623 0.0
H192 H 0.63323 0.54212 0.16343 0.0
H193 H 0.56946 0.54313 0.16721 0.0
H194 H 0.63432 0.60665 0.16822 0.0
H195 H 0.52306 0.60304 0.06953 0.0
H196 H 0.51979 0.54371 0.05295 0.0
H197 H 0.57594 0.61181 0.04576 0.0
H198 H 0.30882 0.64742 0.16301 0.0
H199 H 0.21941 0.47265 0.14548 0.0
H200 H 0.39544 0.64908 0.15472 0.0
H201 H 0.30551 0.47348 0.13835 0.0
H202 H 0.46174 0.49891 0.09672 0.0
H203 H 0.37631 0.49597 0.10857 0.0
H204 H 0.46532 0.62957 0.16707 0.0
H205 H 0.55161 0.63381 0.15372 0.0
C206 C 0.30746 0.60904 0.15776 0.0
C207 C 0.25633 0.55994 0.15486 0.0
C208 C 0.35762 0.60987 0.15309 0.0
C209 C 0.35881 0.56152 0.14551 0.0
C210 C 0.30747 0.5122 0.14338 0.0
C211 C 0.25746 0.51152 0.14777 0.0
C212 C 0.46304 0.52751 0.11222 0.0
C213 C 0.5139 0.5667 0.12411 0.0
C214 C 0.41358 0.52562 0.11933 0.0
C215 C 0.41252 0.56255 0.13896 0.0
C216 C 0.46354 0.6008 0.15156 0.0
C217 C 0.51332 0.60283 0.14424 0.0
H218 H 0.77251 0.29749 0.49964 0.0
H219 H 0.8531 0.20763 0.47456 0.0
H220 H 0.85548 0.38467 0.4892 0.0
H221 H 0.93651 0.29438 0.46501 0.0
H222 H 1.06754 0.45453 0.42612 0.0
H223 H 0.98331 0.36875 0.43608 0.0
H224 H 0.94402 0.4523 0.49932 0.0
H225 H 1.02574 0.5394 0.48707 0.0
C226 C 0.80811 0.29617 0.49222 0.0
C227 C 0.80544 0.24482 0.48802 0.0
C228 C 0.85625 0.34664 0.4862 0.0
C229 C 0.90383 0.34792 0.47584 0.0
C230 C 0.90113 0.2963 0.47218 0.0
C231 C 0.85296 0.24594 0.47798 0.0
C232 C 1.04028 0.45509 0.44162 0.0
C233 C 1.05387 0.50463 0.45553 0.0
C234 C 0.99199 0.40513 0.44789 0.0
C235 C 0.95556 0.40225 0.46875 0.0
C236 C 0.96952 0.45204 0.48274 0.0
C237 C 1.01735 0.50226 0.47606 0.0
H238 H 0.85301 0.88635 0.83009 0.0
H239 H 0.6856 0.79311 0.79956 0.0
H240 H 0.8528 0.97287 0.8199 0.0
H241 H 0.68491 0.87988 0.79019 0.0
H242 H 0.69496 1.05329 0.8081 0.0
H243 H 0.69277 0.965 0.8182 0.0
H244 H 0.84586 1.02489 0.77509 0.0
H245 H 0.84671 0.11212 0.76434 0.0
C246 C 0.81588 0.88412 0.82147 0.0
C247 C 0.76929 0.8322 0.81576 0.0
C248 C 0.81589 0.93396 0.81545 0.0
C249 C 0.76885 0.93382 0.80417 0.0
C250 C 0.72184 0.88191 0.79898 0.0
C251 C 0.7223 0.832 0.8043 0.0
C252 C 0.72797 1.04735 0.80077 0.0
C253 C 0.77108 1.08975 0.78547 0.0
C254 C 0.72669 0.9967 0.80644 0.0
C255 C 0.76925 0.98748 0.79759 0.0
C256 C 0.81255 1.03033 0.78246 0.0
C257 C 0.81304 1.08032 0.77619 0.0
H258 H 0.89614 0.47741 0.1465 0.0
H259 H 0.98863 0.65578 0.144 0.0
H260 H 0.8113 0.48011 0.13646 0.0
H261 H 0.90386 0.65847 0.13424 0.0
H262 H 0.7315 0.64322 0.14434 0.0
H263 H 0.8163 0.64039 0.15509 0.0
H264 H 0.7634 0.503 0.09866 0.0
H265 H 0.67886 0.50632 0.08803 0.0
C266 C 0.89858 0.51731 0.14395 0.0
C267 C 0.94996 0.56634 0.14613 0.0
C268 C 0.84966 0.51887 0.13797 0.0
C269 C 0.84997 0.56955 0.13441 0.0
C270 C 0.90128 0.61855 0.13701 0.0
C271 C 0.95028 0.61698 0.14252 0.0
C272 C 0.73799 0.61236 0.13431 0.0
C273 C 0.69813 0.57498 0.11533 0.0
C274 C 0.78692 0.61088 0.14031 0.0
C275 C 0.79741 0.57135 0.12787 0.0
C276 C 0.75713 0.53375 0.10897 0.0
C277 C 0.70864 0.53586 0.10265 0.0
H278 H 0.52911 0.88157 0.49488 0.0
H279 H 0.44351 0.97441 0.48803 0.0
H280 H 0.44239 0.79567 0.48881 0.0
H281 H 0.35653 0.88831 0.48124 0.0
H282 H 0.19841 0.71917 0.48783 0.0
H283 H 0.2848 0.80357 0.50014 0.0
H284 H 0.37545 0.74199 0.45521 0.0
H285 H 0.28951 0.65794 0.44387 0.0
C286 C 0.49184 0.8839 0.49206 0.0
C287 C 0.49408 0.93566 0.49192 0.0
C288 C 0.44166 0.83421 0.48836 0.0
C289 C 0.3915 0.8341 0.48427 0.0
C290 C 0.39363 0.8859 0.48462 0.0
C291 C 0.44393 0.9357 0.48836 0.0
C292 C 0.23705 0.72342 0.48121 0.0
C293 C 0.23705 0.68164 0.46501 0.0
C294 C 0.28674 0.77223 0.48788 0.0
C295 C 0.33804 0.78064 0.47865 0.0
C296 C 0.3376 0.7376 0.46317 0.0
C297 C 0.28812 0.68916 0.45651 0.0
H298 H 0.70774 0.48381 0.83067 0.0
H299 H 0.88216 0.57714 0.81617 0.0
H300 H 0.70818 0.39809 0.8228 0.0
H301 H 0.88334 0.4908 0.80935 0.0
H302 H 0.85782 0.33068 0.76812 0.0
H303 H 0.86235 0.41773 0.77995 0.0
H304 H 0.72789 0.33001 0.83696 0.0
H305 H 0.72197 0.24248 0.82359 0.0
C306 C 0.74661 0.48623 0.82618 0.0
C307 C 0.79496 0.53819 0.8241 0.0
C308 C 0.74695 0.43643 0.82182 0.0
C309 C 0.79577 0.43615 0.81537 0.0
C310 C 0.84444 0.4883 0.81376 0.0
C311 C 0.84399 0.53831 0.81792 0.0
C312 C 0.8294 0.3301 0.7833 0.0
C313 C 0.78928 0.27926 0.7947 0.0
C314 C 0.8322 0.38042 0.79036 0.0
C315 C 0.79524 0.38217 0.8094 0.0
C316 C 0.75653 0.33122 0.82176 0.0
C317 C 0.75354 0.2807 0.81448 0.0
H318 H 0.96575 0.99976 0.49074 0.0
H319 H 0.87966 0.98637 0.56695 0.0
H320 H 1.01273 0.95584 0.51421 0.0
H321 H 0.92702 0.94307 0.59036 0.0
H322 H 0.91307 0.76501 0.57753 0.0
H323 H 0.89993 0.84438 0.57278 0.0
H324 H 1.07284 0.94876 0.55641 0.0
H325 H 1.08654 0.86844 0.56341 0.0
C326 C 0.9584 0.98926 0.51275 0.0
C327 C 0.91829 0.99547 0.52685 0.0
C328 C 0.98574 0.96473 0.52627 0.0
C329 C 0.97299 0.94567 0.55399 0.0
C330 C 0.93743 0.9574 0.56895 0.0
C331 C 0.91042 0.98227 0.55552 0.0
C332 C 0.94892 0.80537 0.57489 0.0
C333 C 1.00104 0.81093 0.57163 0.0
C334 C 0.94137 0.85092 0.57183 0.0
C335 C 0.98548 0.90279 0.56443 0.0
C336 C 1.03833 0.90923 0.56238 0.0
C337 C 1.04614 0.86357 0.56633 0.0
H338 H 0.20197 0.9111 0.79777 0.0
H339 H 1.09004 0.74131 0.77518 0.0
H340 H 0.27816 0.89213 0.79815 0.0
H341 H 0.16413 0.72171 0.77661 0.0
H342 H 0.31487 0.79733 0.87 0.0
H343 H 0.29151 0.84863 0.83638 0.0
H344 H 0.24286 0.71668 0.77632 0.0
H345 H 0.26222 0.66376 0.81154 0.0
C346 C 0.19398 0.8703 0.79188 0.0
C347 C 1.13977 0.82708 0.78773 0.0
C348 C 0.23755 0.85924 0.79223 0.0
C349 C 0.22705 0.80453 0.78925 0.0
C350 C 0.17441 0.76423 0.7797 0.0
C351 C 1.1312 0.77548 0.77892 0.0
C352 C 0.30063 0.78033 0.84928 0.0
C353 C 0.28852 0.7263 0.84348 0.0
C354 C 0.28777 0.80994 0.82967 0.0
C355 C 0.26285 0.78593 0.80377 0.0
C356 C 0.25973 0.73555 0.79644 0.0
C357 C 0.27131 0.70536 0.81642 0.0
H358 H 1.1501 0.94724 0.15326 0.0
H359 H 0.15453 0.89833 0.23911 0.0
H360 H 0.18666 1.0428 0.16819 0.0
H361 H 0.18977 0.99308 0.25392 0.0
H362 H 0.29025 0.16581 0.2756 0.0
H363 H 0.20239 1.09259 0.25633 0.0
H364 H 0.28742 1.0819 0.18445 0.0
H365 H 0.37386 0.15005 0.20459 0.0
C366 C 0.15644 0.95639 0.17543 0.0
C367 C 1.15169 0.91583 0.19489 0.0
C368 C 0.17683 1.01099 0.18398 0.0
C369 C 0.19246 1.0255 0.21207 0.0
C370 C 0.17826 0.98319 0.23209 0.0
C371 C 0.1582 0.92865 0.22354 0.0
C372 C 0.28954 0.14865 0.25533 0.0
C373 C 0.33901 0.16295 0.24185 0.0
C374 C 0.23936 0.10733 0.2442 0.0
C375 C 0.2381 1.08143 0.21896 0.0
C376 C 0.28673 1.10152 0.20373 0.0
C377 C 0.33669 0.14111 0.21527 0.0
H378 H 0.76713 0.3794 0.46411 0.0
H379 H 0.68212 0.45196 0.50502 0.0
H380 H 0.85141 0.46885 0.46432 0.0
H381 H 0.76647 0.54037 0.50645 0.0
H382 H 0.91199 0.69433 0.5114 0.0
H383 H 0.83862 0.61933 0.48506 0.0
H384 H 0.91366 0.51845 0.50208 0.0
H385 H 0.99013 0.59601 0.52625 0.0
C386 C 0.76599 0.41476 0.47247 0.0
C387 C 0.71813 0.40849 0.48495 0.0
C388 C 0.81451 0.4659 0.47283 0.0
C389 C 0.81608 0.51172 0.48569 0.0
C390 C 0.76694 0.50629 0.49609 0.0
C391 C 0.71853 0.45532 0.49563 0.0
C392 C 0.91462 0.65734 0.50804 0.0
C393 C 0.95645 0.65065 0.5211 0.0
C394 C 0.87194 0.61389 0.49338 0.0
C395 C 0.86924 0.56222 0.49226 0.0
C396 C 0.91436 0.55761 0.50252 0.0
C397 C 0.95797 0.60179 0.5166 0.0
H398 H 0.50719 0.50834 0.9132 0.0
H399 H 0.37266 0.40922 0.85628 0.0
H400 H 0.44694 0.52799 0.94015 0.0
H401 H 0.31366 0.43276 0.8819 0.0
H402 H 0.23336 0.52292 0.90483 0.0
H403 H 0.26779 0.45852 0.91456 0.0
H404 H 0.43374 0.59767 0.91828 0.0
H405 H 0.39844 0.66047 0.90951 0.0
C406 C 0.46419 0.48846 0.90702 0.0
C407 C 0.44557 0.46027 0.88139 0.0
C408 C 0.42962 0.50032 0.92246 0.0
C409 C 0.37683 0.48551 0.91198 0.0
C410 C 0.35476 0.44671 0.89014 0.0
C411 C 0.38893 0.43363 0.87512 0.0
C412 C 0.27693 0.53914 0.90868 0.0
C413 C 0.31384 0.59588 0.90555 0.0
C414 C 0.29667 0.50256 0.91425 0.0
C415 C 0.35364 0.52253 0.91667 0.0
C416 C 0.3896 0.58027 0.9167 0.0
C417 C 0.36977 0.61651 0.91115 0.0
H418 H 0.82948 0.38015 0.22742 0.0
H419 H 0.76141 0.2096 0.20258 0.0
H420 H 0.73957 0.36052 0.24325 0.0
H421 H 0.67119 0.18979 0.21863 0.0
H422 H 0.51017 0.19237 0.21552 0.0
H423 H 0.6023 0.21309 0.20272 0.0
H424 H 0.66837 0.31041 0.27788 0.0
H425 H 0.57564 0.29105 0.28986 0.0
C426 C 0.79553 0.33812 0.22593 0.0
C427 C 0.80249 0.29635 0.21375 0.0
C428 C 0.74396 0.32694 0.23496 0.0
C429 C 0.69819 0.27376 0.23198 0.0
C430 C 0.70551 0.23149 0.22069 0.0
C431 C 0.75713 0.24271 0.21159 0.0
C432 C 0.54475 0.21953 0.22877 0.0
C433 C 0.5365 0.24144 0.25322 0.0
C434 C 0.59726 0.23041 0.22183 0.0
C435 C 0.64259 0.26303 0.2394 0.0
C436 C 0.63433 0.28553 0.26379 0.0
C437 C 0.58159 0.27466 0.27066 0.0
H438 H 1.086 0.49193 0.06124 0.0
H439 H 0.20005 0.6651 0.07675 0.0
H440 H 1.11707 0.50411 0.01277 0.0
H441 H 0.23 0.67709 0.02875 0.0
H442 H 0.31693 0.67056 0.95269 0.0
H443 H 0.28308 0.64864 0.00056 0.0
H444 H 1.11669 0.55227 0.96831 0.0
H445 H 1.1517 0.57327 0.92031 0.0
C446 C 1.11731 0.53253 0.05431 0.0
C447 C 1.14086 0.57739 0.07293 0.0
C448 C 1.13498 0.5395 0.02659 0.0
C449 C 0.1765 0.59137 0.01712 0.0
C450 C 0.19889 0.63631 0.0356 0.0
C451 C 0.18139 0.62942 0.06313 0.0
C452 C 0.27329 0.64425 0.95606 0.0
C453 C 0.23659 0.62417 0.93325 0.0
C454 C 0.2538 0.63198 0.98329 0.0
C455 C 0.19711 0.59944 0.98816 0.0
C456 C 0.16055 0.57737 0.96519 0.0
C457 C 0.18028 0.58964 0.93787 0.0
H458 H 0.57354 1.03159 0.40298 0.0
H459 H 0.66638 0.20692 0.42001 0.0
H460 H 0.53203 1.05057 0.36143 0.0
H461 H 0.62528 0.22551 0.37895 0.0
H462 H 0.50145 0.12517 0.27726 0.0
H463 H 0.55186 1.10241 0.31318 0.0
H464 H 0.52605 0.20219 0.37279 0.0
H465 H 0.47606 0.22435 0.33686 0.0
C466 C 0.5862 1.0741 0.39742 0.0
C467 C 0.6225 0.11769 0.4149 0.0
C468 C 0.56239 1.08494 0.37376 0.0
C469 C 0.57465 0.13941 0.36743 0.0
C470 C 0.6142 0.18306 0.38373 0.0
C471 C 0.63787 0.17235 0.40716 0.0
C472 C 0.50678 0.14181 0.29815 0.0
C473 C 0.48558 0.17653 0.30466 0.0
C474 C 0.53524 0.1288 0.3186 0.0
C475 C 0.54326 0.151 0.34562 0.0
C476 C 0.52122 0.18521 0.352 0.0
C477 C 0.49247 0.19767 0.33168 0.0
H478 H 0.77953 0.61659 0.73203 0.0
H479 H 0.89526 0.78946 0.74651 0.0
H480 H 0.82162 0.62236 0.68713 0.0
H481 H 0.93588 0.79601 0.70116 0.0
H482 H 0.87628 0.66077 0.59728 0.0
H483 H 0.83278 0.65764 0.64137 0.0
H484 H 0.99249 0.76977 0.67764 0.0
H485 H 1.03518 0.77411 0.63266 0.0
C486 C 0.81323 0.65609 0.72536 0.0
C487 C 0.83401 0.7025 0.74281 0.0
C488 C 0.83741 0.65952 0.69957 0.0
C489 C 0.88246 0.70967 0.69046 0.0
C490 C 0.90211 0.75644 0.70767 0.0
C491 C 0.8784 0.75281 0.73358 0.0
C492 C 0.90186 0.68419 0.61487 0.0
C493 C 0.95902 0.71684 0.612 0.0
C494 C 0.8771 0.68245 0.64014 0.0
C495 C 0.90903 0.71295 0.66328 0.0
C496 C 0.96643 0.74618 0.66021 0.0
C497 C 0.99109 0.74844 0.63467 0.0
H498 H 0.76454 1.08325 0.57692 0.0
H499 H 0.61045 1.07247 0.59836 0.0
H500 H 0.7901 1.09051 0.62657 0.0
H501 H 0.63625 1.08047 0.64772 0.0
H502 H 0.67948 1.07046 0.73708 0.0
H503 H 0.65416 1.03843 0.68857 0.0
H504 H 0.81716 0.16056 0.66243 0.0
H505 H 0.84179 0.19128 0.7109 0.0
C506 C 0.73586 1.08191 0.59218 0.0
C507 C 0.68555 1.07769 0.5835 0.0
C508 C 0.75063 1.08628 0.62069 0.0
C509 C 0.71537 1.0862 0.6413 0.0
C510 C 0.66423 1.07991 0.6326 0.0
C511 C 0.64958 1.07579 0.60415 0.0
C512 C 0.71024 1.08866 0.721 0.0
C513 C 0.76258 0.13296 0.72756 0.0
C514 C 0.69567 1.07107 0.69318 0.0
C515 C 0.73333 1.09743 0.67139 0.0
C516 C 0.78712 0.13891 0.67852 0.0
C517 C 0.80145 0.15652 0.70627 0.0
H518 H 0.64939 0.61006 0.90617 0.0
H519 H 0.82148 0.69065 0.92998 0.0
H520 H 0.62458 0.58667 0.95508 0.0
H521 H 0.79658 0.66629 0.97884 0.0
H522 H 0.72415 0.66633 0.06661 0.0
H523 H 0.75712 0.68713 0.01831 0.0
H524 H 0.62459 0.52743 0.99232 0.0
H525 H 0.59189 0.50787 0.04047 0.0
C526 C 0.68202 0.62288 0.92178 0.0
C527 C 0.73751 0.65248 0.91395 0.0
C528 C 0.66777 0.60893 0.94991 0.0
C529 C 0.70854 0.62418 0.97109 0.0
C530 C 0.76401 0.65417 0.96326 0.0
C531 C 0.77828 0.66798 0.93512 0.0
C532 C 0.70339 0.63527 0.0506 0.0
C533 C 0.65577 0.58547 0.05714 0.0
C534 C 0.72189 0.64714 0.02289 0.0
C535 C 0.69296 0.60939 0.00114 0.0
C536 C 0.64722 0.55811 0.00825 0.0
C537 C 0.6289 0.54641 0.03586 0.0
H538 H 1.08425 0.6261 0.25346 0.0
H539 H 1.07289 0.46565 0.25046 0.0
H540 H 1.08057 0.62011 0.30447 0.0
H541 H 1.06866 0.45952 0.3014 0.0
H542 H 1.15281 0.51871 0.39014 0.0
H543 H 1.13383 0.50538 0.33983 0.0
H544 H 1.0247 0.57273 0.34564 0.0
H545 H 1.04443 0.58585 0.39622 0.0
C546 C 1.08036 0.58926 0.2636 0.0
C547 C 1.07943 0.54664 0.24771 0.0
C548 C 1.07778 0.58561 0.29292 0.0
C549 C 1.07439 0.53933 0.30718 0.0
C550 C 1.07185 0.49603 0.29121 0.0
C551 C 1.07417 0.49955 0.26192 0.0
C552 C 1.12285 0.52816 0.38074 0.0
C553 C 1.09903 0.552 0.39702 0.0
C554 C 1.1122 0.52101 0.35189 0.0
C555 C 1.07804 0.53843 0.3385 0.0
C556 C 1.05165 0.55938 0.35517 0.0
C557 C 1.06202 0.56599 0.38416 0.0
loop_
_geom_bond_atom_site_label_1
_geom_bond_atom_site_label_2
_geom_bond_distance
_geom_bond_site_symmetry_2
_ccdc_geom_bond_type
Eu0 C9 2.828 . S
Eu0 O11 2.392 1_655 S
Eu0 O13 2.418 . S
Eu0 O18 2.373 . S
Eu0 O21 2.488 . S
Eu0 O22 2.471 . S
Eu0 O23 2.349 . S
Eu1 O10 2.373 . S
Eu1 O14 2.488 . S
Eu1 O15 2.471 . S
Eu1 O16 2.349 . S
Eu1 O19 2.392 1_455 S
Eu1 O20 2.418 . S
Eu1 C30 2.828 . S
C2 O20 1.244 . S
C2 O23 1.265 1_455 S
C3 C4 1.379 . S
C3 C7 1.373 . S
C3 C9 1.505 . S
C4 C3 1.379 . S
C4 C6 1.369 . S
C4 H32 0.930 . S
C5 C7 1.383 . S
C5 C8 1.382 . S
C5 H33 0.930 . S
C6 C4 1.369 . S
C6 C8 1.392 . S
C6 H34 0.930 . S
C7 C3 1.373 . S
C7 C5 1.383 . S
C7 H35 0.931 . S
C8 C5 1.382 . S
C8 C6 1.392 . S
C9 Eu0 2.828 . S
C9 C3 1.505 . S
C9 O21 1.249 . S
C9 O22 1.244 . S
O10 Eu1 2.373 . S
O10 C12 1.258 . S
O11 Eu0 2.392 1_455 S
O11 C12 1.242 . S
C12 O10 1.258 . S
C12 O11 1.242 . S
O13 Eu0 2.418 . S
O13 C17 1.244 . S
O14 Eu1 2.488 . S
O14 C30 1.249 . S
O15 Eu1 2.471 . S
O15 C30 1.244 . S
O16 Eu1 2.349 . S
O16 C17 1.265 1_455 S
C17 O13 1.244 . S
C17 O16 1.265 1_655 S
O18 Eu0 2.373 . S
O18 C31 1.258 . S
O19 Eu1 2.392 1_655 S
O19 C31 1.242 . S
O20 Eu1 2.418 . S
O20 C2 1.244 . S
O21 Eu0 2.488 . S
O21 C9 1.249 . S
O22 Eu0 2.471 . S
O22 C9 1.244 . S
O23 Eu0 2.349 . S
O23 C2 1.265 1_655 S
C24 C25 1.379 . S
C24 C28 1.373 . S
C24 C30 1.505 . S
C25 C24 1.379 . S
C25 C27 1.369 . S
C25 H36 0.930 . S
C26 C28 1.383 . S
C26 C29 1.382 . S
C26 H37 0.930 . S
C27 C25 1.369 . S
C27 C29 1.392 . S
C27 H38 0.930 . S
C28 C24 1.373 . S
C28 C26 1.383 . S
C28 H39 0.931 . S
C29 C26 1.382 . S
C29 C27 1.392 . S
C30 Eu1 2.828 . S
C30 O14 1.249 . S
C30 O15 1.244 . S
C30 C24 1.505 . S
C31 O18 1.258 . S
C31 O19 1.242 . S
H32 C4 0.930 . S
H33 C5 0.930 . S
H34 C6 0.930 . S
H35 C7 0.931 . S
H36 C25 0.930 . S
H37 C26 0.930 . S
H38 C27 0.930 . S
H39 C28 0.931 . S
Eu40 C49 2.828 . S
Eu40 O51 2.392 1_565 S
Eu40 O53 2.419 . S
Eu40 O58 2.373 . S
Eu40 O61 2.488 . S
Eu40 O62 2.471 . S
Eu40 O63 2.349 1_565 S
Eu41 O50 2.373 . S
Eu41 O54 2.488 . S
Eu41 O55 2.471 . S
Eu41 O56 2.349 . S
Eu41 O59 2.392 1_545 S
Eu41 O60 2.418 . S
Eu41 C70 2.828 . S
C42 O60 1.244 . S
C42 O63 1.265 . S
C43 C44 1.379 . S
C43 C47 1.373 . S
C43 C49 1.505 . S
C44 C43 1.379 . S
C44 C46 1.369 . S
C44 H72 0.930 . S
C45 C47 1.383 . S
C45 C48 1.382 . S
C45 H73 0.930 . S
C46 C44 1.369 . S
C46 C48 1.392 . S
C46 H74 0.930 . S
C47 C43 1.373 . S
C47 C45 1.383 . S
C47 H75 0.931 . S
C48 C45 1.382 . S
C48 C46 1.392 . S
C49 Eu40 2.828 . S
C49 C43 1.505 . S
C49 O61 1.249 . S
C49 O62 1.244 . S
O50 Eu41 2.373 . S
O50 C52 1.258 . S
O51 Eu40 2.392 1_545 S
O51 C52 1.242 . S
C52 O50 1.258 . S
C52 O51 1.242 . S
O53 Eu40 2.419 . S
O53 C57 1.240 1_565 S
O54 Eu41 2.488 . S
O54 C70 1.249 . S
O55 Eu41 2.471 . S
O55 C70 1.244 . S
O56 Eu41 2.349 . S
O56 C57 1.265 . S
C57 O53 1.240 1_545 S
C57 O56 1.265 . S
O58 Eu40 2.373 . S
O58 C71 1.258 . S
O59 Eu41 2.392 1_565 S
O59 C71 1.242 . S
O60 Eu41 2.418 . S
O60 C42 1.244 . S
O61 Eu40 2.488 . S
O61 C49 1.249 . S
O62 Eu40 2.471 . S
O62 C49 1.244 . S
O63 Eu40 2.349 1_545 S
O63 C42 1.265 . S
C64 C65 1.379 . S
C64 C68 1.373 . S
C64 C70 1.505 . S
C65 C64 1.379 . S
C65 C67 1.369 . S
C65 H76 0.930 . S
C66 C68 1.383 . S
C66 C69 1.382 . S
C66 H77 0.930 . S
C67 C65 1.369 . S
C67 C69 1.392 . S
C67 H78 0.930 . S
C68 C64 1.373 . S
C68 C66 1.383 . S
C68 H79 0.931 . S
C69 C66 1.382 . S
C69 C67 1.392 . S
C70 Eu41 2.828 . S
C70 O54 1.249 . S
C70 O55 1.244 . S
C70 C64 1.505 . S
C71 O58 1.258 . S
C71 O59 1.242 . S
H72 C44 0.930 . S
H73 C45 0.930 . S
H74 C46 0.930 . S
H75 C47 0.931 . S
H76 C65 0.930 . S
H77 C66 0.930 . S
H78 C67 0.930 . S
H79 C68 0.931 . S
Eu80 C89 2.828 . S
Eu80 O91 2.392 . S
Eu80 O93 2.418 . S
Eu80 O98 2.373 . S
Eu80 O101 2.488 . S
Eu80 O102 2.471 . S
Eu80 O103 2.349 . S
Eu81 O90 2.373 . S
Eu81 O94 2.488 . S
Eu81 O95 2.471 . S
Eu81 O96 2.349 . S
Eu81 O99 2.392 . S
Eu81 O100 2.418 . S
Eu81 C110 2.828 . S
C82 O100 1.244 . S
C82 O103 1.265 . S
C83 C84 1.379 . S
C83 C87 1.373 . S
C83 C89 1.505 . S
C84 C83 1.379 . S
C84 C86 1.369 . S
C84 H112 0.930 . S
C85 C87 1.383 . S
C85 C88 1.382 . S
C85 H113 0.930 . S
C86 C84 1.369 . S
C86 C88 1.392 . S
C86 H114 0.930 . S
C87 C83 1.373 . S
C87 C85 1.383 . S
C87 H115 0.931 . S
C88 C85 1.382 . S
C88 C86 1.392 . S
C89 Eu80 2.828 . S
C89 C83 1.505 . S
C89 O101 1.249 . S
C89 O102 1.244 . S
O90 Eu81 2.373 . S
O90 C92 1.258 . S
O91 Eu80 2.392 . S
O91 C92 1.242 . S
C92 O90 1.258 . S
C92 O91 1.242 . S
O93 Eu80 2.418 . S
O93 C97 1.244 . S
O94 Eu81 2.488 . S
O94 C110 1.249 . S
O95 Eu81 2.471 . S
O95 C110 1.244 . S
O96 Eu81 2.349 . S
O96 C97 1.265 . S
C97 O93 1.244 . S
C97 O96 1.265 . S
O98 Eu80 2.373 . S
O98 C111 1.258 . S
O99 Eu81 2.392 . S
O99 C111 1.242 . S
O100 Eu81 2.418 . S
O100 C82 1.244 . S
O101 Eu80 2.488 . S
O101 C89 1.249 . S
O102 Eu80 2.471 . S
O102 C89 1.244 . S
O103 Eu80 2.349 . S
O103 C82 1.265 . S
C104 C105 1.379 . S
C104 C108 1.373 . S
C104 C110 1.505 . S
C105 C104 1.379 . S
C105 C107 1.369 . S
C105 H116 0.930 . S
C106 C108 1.383 . S
C106 C109 1.382 . S
C106 H117 0.930 . S
C107 C105 1.369 . S
C107 C109 1.392 . S
C107 H118 0.930 . S
C108 C104 1.373 . S
C108 C106 1.383 . S
C108 H119 0.931 . S
C109 C106 1.382 . S
C109 C107 1.392 . S
C110 Eu81 2.828 . S
C110 O94 1.249 . S
C110 O95 1.244 . S
C110 C104 1.505 . S
C111 O98 1.258 . S
C111 O99 1.242 . S
H112 C84 0.930 . S
H113 C85 0.930 . S
H114 C86 0.930 . S
H115 C87 0.931 . S
H116 C105 0.930 . S
H117 C106 0.930 . S
H118 C107 0.930 . S
H119 C108 0.931 . S
C120 N121 1.317 . S
C120 N122 1.348 1_545 S
C120 C123 1.485 . S
N121 C120 1.317 . S
N121 N125 1.370 . S
N122 C120 1.348 1_565 S
N122 C124 1.346 . S
C123 C120 1.485 . S
C123 H127 0.960 . S
C123 H128 0.961 1_545 S
C123 H129 0.960 . S
C124 N122 1.346 . S
C124 N125 1.307 1_565 S
C124 C126 1.486 . S
N125 N121 1.370 . S
N125 C124 1.307 1_545 S
C126 C124 1.486 . S
C126 H130 0.960 . S
C126 H131 0.960 . S
C126 H132 0.959 . S
H127 C123 0.960 . S
H128 C123 0.961 1_565 S
H129 C123 0.960 . S
H130 C126 0.960 . S
H131 C126 0.960 . S
H132 C126 0.959 . S
C133 N134 1.317 . S
C133 N135 1.348 . S
C133 C136 1.485 . S
N134 C133 1.317 . S
N134 N138 1.370 . S
N135 C133 1.348 . S
N135 C137 1.346 . S
C136 C133 1.485 . S
C136 H140 0.960 . S
C136 H141 0.961 . S
C136 H142 0.960 . S
C137 N135 1.346 . S
C137 N138 1.307 . S
C137 C139 1.486 . S
N138 N134 1.370 . S
N138 C137 1.307 . S
C139 C137 1.486 . S
C139 H143 0.960 . S
C139 H144 0.960 . S
C139 H145 0.959 . S
H140 C136 0.960 . S
H141 C136 0.961 . S
H142 C136 0.960 . S
H143 C139 0.960 . S
H144 C139 0.960 . S
H145 C139 0.959 . S
C146 N147 1.317 . S
C146 N148 1.348 1_455 S
C146 C149 1.485 . S
N147 C146 1.317 . S
N147 N151 1.370 . S
N148 C146 1.348 1_655 S
N148 C150 1.346 . S
C149 C146 1.485 . S
C149 H153 0.960 . S
C149 H154 0.961 . S
C149 H155 0.960 . S
C150 N148 1.346 . S
C150 N151 1.307 1_655 S
C150 C152 1.486 . S
N151 N147 1.370 . S
N151 C150 1.307 1_455 S
C152 C150 1.486 . S
C152 H156 0.960 . S
C152 H157 0.960 . S
C152 H158 0.959 . S
H153 C149 0.960 . S
H154 C149 0.961 . S
H155 C149 0.960 . S
H156 C152 0.960 . S
H157 C152 0.960 . S
H158 C152 0.959 . S
C159 N160 1.317 . S
C159 N161 1.348 . S
C159 C162 1.485 . S
N160 C159 1.317 . S
N160 N164 1.370 . S
N161 C159 1.348 . S
N161 C163 1.346 . S
C162 C159 1.485 . S
C162 H166 0.960 . S
C162 H167 0.961 . S
C162 H168 0.960 . S
C163 N161 1.346 . S
C163 N164 1.307 . S
C163 C165 1.486 . S
N164 N160 1.370 . S
N164 C163 1.307 . S
C165 C163 1.486 . S
C165 H169 0.960 . S
C165 H170 0.960 . S
C165 H171 0.959 . S
H166 C162 0.960 . S
H167 C162 0.961 . S
H168 C162 0.960 . S
H169 C165 0.960 . S
H170 C165 0.960 . S
H171 C165 0.959 . S
C172 N173 1.317 . S
C172 N174 1.348 . S
C172 C175 1.485 . S
N173 C172 1.317 . S
N173 N177 1.370 . S
N174 C172 1.348 . S
N174 C176 1.346 . S
C175 C172 1.485 . S
C175 H179 0.960 . S
C175 H180 0.961 . S
C175 H181 0.960 . S
C176 N174 1.346 . S
C176 N177 1.307 . S
C176 C178 1.486 . S
N177 N173 1.370 . S
N177 C176 1.307 . S
C178 C176 1.486 . S
C178 H182 0.960 . S
C178 H183 0.960 . S
C178 H184 0.959 . S
H179 C175 0.960 . S
H180 C175 0.961 . S
H181 C175 0.960 . S
H182 C178 0.960 . S
H183 C178 0.960 . S
H184 C178 0.959 . S
C185 N186 1.317 . S
C185 N187 1.348 . S
C185 C188 1.485 . S
N186 C185 1.317 . S
N186 N190 1.370 . S
N187 C185 1.348 . S
N187 C189 1.346 . S
C188 C185 1.485 . S
C188 H192 0.960 . S
C188 H193 0.961 . S
C188 H194 0.960 . S
C189 N187 1.346 . S
C189 N190 1.307 . S
C189 C191 1.486 . S
N190 N186 1.370 . S
N190 C189 1.307 . S
C191 C189 1.486 . S
C191 H195 0.960 . S
C191 H196 0.960 . S
C191 H197 0.959 . S
H192 C188 0.960 . S
H193 C188 0.961 . S
H194 C188 0.960 . S
H195 C191 0.960 . S
H196 C191 0.960 . S
H197 C191 0.959 . S
H198 C206 0.950 . S
H199 C211 0.950 . S
H200 C208 0.950 . S
H201 C210 0.950 . S
H202 C212 0.950 . S
H203 C214 0.950 . S
H204 C216 0.950 . S
H205 C217 0.950 . S
C206 H198 0.950 . S
C206 C207 1.386 . S
C206 C208 1.391 . S
C207 C206 1.386 . S
C207 C211 1.393 . S
C208 H200 0.950 . S
C208 C206 1.391 . S
C208 C209 1.400 . S
C209 C208 1.400 . S
C209 C210 1.398 . S
C209 C215 1.491 . S
C210 H201 0.950 . S
C210 C209 1.398 . S
C210 C211 1.391 . S
C211 H199 0.950 . S
C211 C207 1.393 . S
C211 C210 1.391 . S
C212 H202 0.950 . S
C212 C213 1.386 . S
C212 C214 1.391 . S
C213 C212 1.386 . S
C213 C217 1.393 . S
C214 H203 0.950 . S
C214 C212 1.391 . S
C214 C215 1.400 . S
C215 C209 1.491 . S
C215 C214 1.400 . S
C215 C216 1.398 . S
C216 H204 0.950 . S
C216 C215 1.398 . S
C216 C217 1.391 . S
C217 H205 0.950 . S
C217 C213 1.393 . S
C217 C216 1.391 . S
H218 C226 0.950 . S
H219 C231 0.950 . S
H220 C228 0.950 . S
H221 C230 0.950 . S
H222 C232 0.950 . S
H223 C234 0.950 . S
H224 C236 0.950 . S
H225 C237 0.950 . S
C226 H218 0.950 . S
C226 C227 1.386 . S
C226 C228 1.391 . S
C227 C226 1.386 . S
C227 C231 1.393 . S
C228 H220 0.950 . S
C228 C226 1.391 . S
C228 C229 1.400 . S
C229 C228 1.400 . S
C229 C230 1.398 . S
C229 C235 1.491 . S
C230 H221 0.950 . S
C230 C229 1.398 . S
C230 C231 1.391 . S
C231 H219 0.950 . S
C231 C227 1.393 . S
C231 C230 1.391 . S
C232 H222 0.950 . S
C232 C233 1.386 . S
C232 C234 1.391 . S
C233 C232 1.386 . S
C233 C237 1.393 . S
C234 H223 0.950 . S
C234 C232 1.391 . S
C234 C235 1.400 . S
C235 C229 1.491 . S
C235 C234 1.400 . S
C235 C236 1.398 . S
C236 H224 0.950 . S
C236 C235 1.398 . S
C236 C237 1.391 . S
C237 H225 0.950 . S
C237 C233 1.393 . S
C237 C236 1.391 . S
H238 C246 0.950 . S
H239 C251 0.950 . S
H240 C248 0.950 . S
H241 C250 0.950 . S
H242 C252 0.950 . S
H243 C254 0.950 . S
H244 C256 0.950 . S
H245 C257 0.950 . S
C246 H238 0.950 . S
C246 C247 1.386 . S
C246 C248 1.391 . S
C247 C246 1.386 . S
C247 C251 1.393 . S
C248 H240 0.950 . S
C248 C246 1.391 . S
C248 C249 1.400 . S
C249 C248 1.400 . S
C249 C250 1.398 . S
C249 C255 1.491 . S
C250 H241 0.950 . S
C250 C249 1.398 . S
C250 C251 1.391 . S
C251 H239 0.950 . S
C251 C247 1.393 . S
C251 C250 1.391 . S
C252 H242 0.950 . S
C252 C253 1.386 . S
C252 C254 1.391 . S
C253 C252 1.386 . S
C253 C257 1.393 . S
C254 H243 0.950 . S
C254 C252 1.391 . S
C254 C255 1.400 . S
C255 C249 1.491 . S
C255 C254 1.400 . S
C255 C256 1.398 . S
C256 H244 0.950 . S
C256 C255 1.398 . S
C256 C257 1.391 . S
C257 H245 0.950 . S
C257 C253 1.393 . S
C257 C256 1.391 . S
H258 C266 0.950 . S
H259 C271 0.950 . S
H260 C268 0.950 . S
H261 C270 0.950 . S
H262 C272 0.950 . S
H263 C274 0.950 . S
H264 C276 0.950 . S
H265 C277 0.950 . S
C266 H258 0.950 . S
C266 C267 1.386 . S
C266 C268 1.391 . S
C267 C266 1.386 . S
C267 C271 1.393 . S
C268 H260 0.950 . S
C268 C266 1.391 . S
C268 C269 1.400 . S
C269 C268 1.400 . S
C269 C270 1.398 . S
C269 C275 1.491 . S
C270 H261 0.950 . S
C270 C269 1.398 . S
C270 C271 1.391 . S
C271 H259 0.950 . S
C271 C267 1.393 . S
C271 C270 1.391 . S
C272 H262 0.950 . S
C272 C273 1.386 . S
C272 C274 1.391 . S
C273 C272 1.386 . S
C273 C277 1.393 . S
C274 H263 0.950 . S
C274 C272 1.391 . S
C274 C275 1.400 . S
C275 C269 1.491 . S
C275 C274 1.400 . S
C275 C276 1.398 . S
C276 H264 0.950 . S
C276 C275 1.398 . S
C276 C277 1.391 . S
C277 H265 0.950 . S
C277 C273 1.393 . S
C277 C276 1.391 . S
H278 C286 0.950 . S
H279 C291 0.950 . S
H280 C288 0.950 . S
H281 C290 0.950 . S
H282 C292 0.950 . S
H283 C294 0.950 . S
H284 C296 0.950 . S
H285 C297 0.950 . S
C286 H278 0.950 . S
C286 C287 1.386 . S
C286 C288 1.391 . S
C287 C286 1.386 . S
C287 C291 1.393 . S
C288 H280 0.950 . S
C288 C286 1.391 . S
C288 C289 1.400 . S
C289 C288 1.400 . S
C289 C290 1.398 . S
C289 C295 1.491 . S
C290 H281 0.950 . S
C290 C289 1.398 . S
C290 C291 1.391 . S
C291 H279 0.950 . S
C291 C287 1.393 . S
C291 C290 1.391 . S
C292 H282 0.950 . S
C292 C293 1.386 . S
C292 C294 1.391 . S
C293 C292 1.386 . S
C293 C297 1.393 . S
C294 H283 0.950 . S
C294 C292 1.391 . S
C294 C295 1.400 . S
C295 C289 1.491 . S
C295 C294 1.400 . S
C295 C296 1.398 . S
C296 H284 0.950 . S
C296 C295 1.398 . S
C296 C297 1.391 . S
C297 H285 0.950 . S
C297 C293 1.393 . S
C297 C296 1.391 . S
H298 C306 0.950 . S
H299 C311 0.950 . S
H300 C308 0.950 . S
H301 C310 0.950 . S
H302 C312 0.950 . S
H303 C314 0.950 . S
H304 C316 0.950 . S
H305 C317 0.950 . S
C306 H298 0.950 . S
C306 C307 1.386 . S
C306 C308 1.391 . S
C307 C306 1.386 . S
C307 C311 1.393 . S
C308 H300 0.950 . S
C308 C306 1.391 . S
C308 C309 1.400 . S
C309 C308 1.400 . S
C309 C310 1.398 . S
C309 C315 1.491 . S
C310 H301 0.950 . S
C310 C309 1.398 . S
C310 C311 1.391 . S
C311 H299 0.950 . S
C311 C307 1.393 . S
C311 C310 1.391 . S
C312 H302 0.950 . S
C312 C313 1.386 . S
C312 C314 1.391 . S
C313 C312 1.386 . S
C313 C317 1.393 . S
C314 H303 0.950 . S
C314 C312 1.391 . S
C314 C315 1.400 . S
C315 C309 1.491 . S
C315 C314 1.400 . S
C315 C316 1.398 . S
C316 H304 0.950 . S
C316 C315 1.398 . S
C316 C317 1.391 . S
C317 H305 0.950 . S
C317 C313 1.393 . S
C317 C316 1.391 . S
H318 C326 0.950 . S
H319 C331 0.950 . S
H320 C328 0.950 . S
H321 C330 0.950 . S
H322 C332 0.950 . S
H323 C334 0.950 . S
H324 C336 0.950 . S
H325 C337 0.950 . S
C326 H318 0.950 . S
C326 C327 1.386 . S
C326 C328 1.391 . S
C327 C326 1.386 . S
C327 C331 1.393 . S
C328 H320 0.950 . S
C328 C326 1.391 . S
C328 C329 1.400 . S
C329 C328 1.400 . S
C329 C330 1.398 . S
C329 C335 1.491 . S
C330 H321 0.950 . S
C330 C329 1.398 . S
C330 C331 1.391 . S
C331 H319 0.950 . S
C331 C327 1.393 . S
C331 C330 1.391 . S
C332 H322 0.950 . S
C332 C333 1.386 . S
C332 C334 1.391 . S
C333 C332 1.386 . S
C333 C337 1.393 . S
C334 H323 0.950 . S
C334 C332 1.391 . S
C334 C335 1.400 . S
C335 C329 1.491 . S
C335 C334 1.400 . S
C335 C336 1.398 . S
C336 H324 0.950 . S
C336 C335 1.398 . S
C336 C337 1.391 . S
C337 H325 0.950 . S
C337 C333 1.393 . S
C337 C336 1.391 . S
H338 C346 0.950 . S
H339 C351 0.950 . S
H340 C348 0.950 . S
H341 C350 0.950 . S
H342 C352 0.950 . S
H343 C354 0.950 . S
H344 C356 0.950 . S
H345 C357 0.950 1_455 S
C346 H338 0.950 . S
C346 C347 1.386 . S
C346 C348 1.391 . S
C347 C346 1.386 . S
C347 C351 1.393 . S
C348 H340 0.950 . S
C348 C346 1.391 . S
C348 C349 1.400 . S
C349 C348 1.400 . S
C349 C350 1.398 . S
C349 C355 1.491 . S
C350 H341 0.950 . S
C350 C349 1.398 . S
C350 C351 1.391 . S
C351 H339 0.950 . S
C351 C347 1.393 . S
C351 C350 1.391 . S
C352 H342 0.950 . S
C352 C353 1.386 . S
C352 C354 1.391 . S
C353 C352 1.386 . S
C353 C357 1.393 . S
C354 H343 0.950 . S
C354 C352 1.391 . S
C354 C355 1.400 . S
C355 C349 1.491 . S
C355 C354 1.400 . S
C355 C356 1.398 . S
C356 H344 0.950 . S
C356 C355 1.398 . S
C356 C357 1.391 . S
C357 H345 0.950 1_655 S
C357 C353 1.393 . S
C357 C356 1.391 . S
H358 C366 0.950 . S
H359 C371 0.950 . S
H360 C368 0.950 . S
H361 C370 0.950 . S
H362 C372 0.950 . S
H363 C374 0.950 . S
H364 C376 0.950 . S
H365 C377 0.950 . S
C366 H358 0.950 . S
C366 C367 1.386 . S
C366 C368 1.391 . S
C367 C366 1.386 . S
C367 C371 1.393 . S
C368 H360 0.950 . S
C368 C366 1.391 . S
C368 C369 1.400 . S
C369 C368 1.400 . S
C369 C370 1.398 . S
C369 C375 1.491 . S
C370 H361 0.950 . S
C370 C369 1.398 . S
C370 C371 1.391 . S
C371 H359 0.950 . S
C371 C367 1.393 . S
C371 C370 1.391 . S
C372 H362 0.950 . S
C372 C373 1.386 . S
C372 C374 1.391 . S
C373 C372 1.386 . S
C373 C377 1.393 . S
C374 H363 0.950 . S
C374 C372 1.391 . S
C374 C375 1.400 . S
C375 C369 1.491 . S
C375 C374 1.400 . S
C375 C376 1.398 . S
C376 H364 0.950 . S
C376 C375 1.398 . S
C376 C377 1.391 . S
C377 H365 0.950 . S
C377 C373 1.393 . S
C377 C376 1.391 . S
H378 C386 0.950 . S
H379 C391 0.950 . S
H380 C388 0.950 . S
H381 C390 0.950 . S
H382 C392 0.950 . S
H383 C394 0.950 . S
H384 C396 0.950 . S
H385 C397 0.950 . S
C386 H378 0.950 . S
C386 C387 1.386 . S
C386 C388 1.391 . S
C387 C386 1.386 . S
C387 C391 1.393 . S
C388 H380 0.950 . S
C388 C386 1.391 . S
C388 C389 1.400 . S
C389 C388 1.400 . S
C389 C390 1.398 . S
C389 C395 1.491 . S
C390 H381 0.950 . S
C390 C389 1.398 . S
C390 C391 1.391 . S
C391 H379 0.950 . S
C391 C387 1.393 . S
C391 C390 1.391 . S
C392 H382 0.950 . S
C392 C393 1.386 . S
C392 C394 1.391 . S
C393 C392 1.386 . S
C393 C397 1.393 . S
C394 H383 0.950 . S
C394 C392 1.391 . S
C394 C395 1.400 . S
C395 C389 1.491 . S
C395 C394 1.400 . S
C395 C396 1.398 . S
C396 H384 0.950 . S
C396 C395 1.398 . S
C396 C397 1.391 . S
C397 H385 0.950 . S
C397 C393 1.393 . S
C397 C396 1.391 . S
H398 C406 0.950 . S
H399 C411 0.950 . S
H400 C408 0.950 . S
H401 C410 0.950 . S
H402 C412 0.950 . S
H403 C414 0.950 . S
H404 C416 0.950 . S
H405 C417 0.950 . S
C406 H398 0.950 . S
C406 C407 1.386 . S
C406 C408 1.391 . S
C407 C406 1.386 . S
C407 C411 1.393 . S
C408 H400 0.950 . S
C408 C406 1.391 . S
C408 C409 1.400 . S
C409 C408 1.400 . S
C409 C410 1.398 . S
C409 C415 1.491 . S
C410 H401 0.950 . S
C410 C409 1.398 . S
C410 C411 1.391 . S
C411 H399 0.950 . S
C411 C407 1.393 . S
C411 C410 1.391 . S
C412 H402 0.950 . S
C412 C413 1.386 . S
C412 C414 1.391 . S
C413 C412 1.386 . S
C413 C417 1.393 . S
C414 H403 0.950 . S
C414 C412 1.391 . S
C414 C415 1.400 . S
C415 C409 1.491 . S
C415 C414 1.400 . S
C415 C416 1.398 . S
C416 H404 0.950 . S
C416 C415 1.398 . S
C416 C417 1.391 . S
C417 H405 0.950 . S
C417 C413 1.393 . S
C417 C416 1.391 . S
H418 C426 0.950 . S
H419 C431 0.950 . S
H420 C428 0.950 . S
H421 C430 0.950 . S
H422 C432 0.950 . S
H423 C434 0.950 . S
H424 C436 0.950 . S
H425 C437 0.950 . S
C426 H418 0.950 . S
C426 C427 1.386 . S
C426 C428 1.391 . S
C427 C426 1.386 . S
C427 C431 1.393 . S
C428 H420 0.950 . S
C428 C426 1.391 . S
C428 C429 1.400 . S
C429 C428 1.400 . S
C429 C430 1.398 . S
C429 C435 1.491 . S
C430 H421 0.950 . S
C430 C429 1.398 . S
C430 C431 1.391 . S
C431 H419 0.950 . S
C431 C427 1.393 . S
C431 C430 1.391 . S
C432 H422 0.950 . S
C432 C433 1.386 . S
C432 C434 1.391 . S
C433 C432 1.386 . S
C433 C437 1.393 . S
C434 H423 0.950 . S
C434 C432 1.391 . S
C434 C435 1.400 . S
C435 C429 1.491 . S
C435 C434 1.400 . S
C435 C436 1.398 . S
C436 H424 0.950 . S
C436 C435 1.398 . S
C436 C437 1.391 . S
C437 H425 0.950 . S
C437 C433 1.393 . S
C437 C436 1.391 . S
H438 C446 0.950 . S
H439 C451 0.950 . S
H440 C448 0.950 . S
H441 C450 0.950 . S
H442 C452 0.950 1_655 S
H443 C454 0.950 1_655 S
H444 C456 0.950 . S
H445 C457 0.950 . S
C446 H438 0.950 . S
C446 C447 1.386 . S
C446 C448 1.391 . S
C447 C446 1.386 . S
C447 C451 1.393 1_455 S
C448 H440 0.950 . S
C448 C446 1.391 . S
C448 C449 1.400 . S
C449 C448 1.400 . S
C449 C450 1.398 1_455 S
C449 C455 1.491 1_554 S
C450 H441 0.950 . S
C450 C449 1.398 1_655 S
C450 C451 1.391 . S
C451 H439 0.950 . S
C451 C447 1.393 1_655 S
C451 C450 1.391 . S
C452 H442 0.950 1_455 S
C452 C453 1.386 . S
C452 C454 1.391 . S
C453 C452 1.386 . S
C453 C457 1.393 . S
C454 H443 0.950 1_455 S
C454 C452 1.391 . S
C454 C455 1.400 . S
C455 C449 1.491 1_556 S
C455 C454 1.400 . S
C455 C456 1.398 . S
C456 H444 0.950 . S
C456 C455 1.398 . S
C456 C457 1.391 . S
C457 H445 0.950 . S
C457 C453 1.393 . S
C457 C456 1.391 . S
H458 C466 0.950 . S
H459 C471 0.950 . S
H460 C468 0.950 . S
H461 C470 0.950 . S
H462 C472 0.950 . S
H463 C474 0.950 . S
H464 C476 0.950 . S
H465 C477 0.950 . S
C466 H458 0.950 . S
C466 C467 1.386 . S
C466 C468 1.391 . S
C467 C466 1.386 . S
C467 C471 1.393 . S
C468 H460 0.950 . S
C468 C466 1.391 . S
C468 C469 1.400 . S
C469 C468 1.400 . S
C469 C470 1.398 . S
C469 C475 1.491 . S
C470 H461 0.950 . S
C470 C469 1.398 . S
C470 C471 1.391 . S
C471 H459 0.950 . S
C471 C467 1.393 . S
C471 C470 1.391 . S
C472 H462 0.950 . S
C472 C473 1.386 . S
C472 C474 1.391 . S
C473 C472 1.386 . S
C473 C477 1.393 . S
C474 H463 0.950 . S
C474 C472 1.391 . S
C474 C475 1.400 . S
C475 C469 1.491 . S
C475 C474 1.400 . S
C475 C476 1.398 . S
C476 H464 0.950 . S
C476 C475 1.398 . S
C476 C477 1.391 . S
C477 H465 0.950 . S
C477 C473 1.393 . S
C477 C476 1.391 . S
H478 C486 0.950 . S
H479 C491 0.950 . S
H480 C488 0.950 . S
H481 C490 0.950 . S
H482 C492 0.950 . S
H483 C494 0.950 . S
H484 C496 0.950 . S
H485 C497 0.950 . S
C486 H478 0.950 . S
C486 C487 1.386 . S
C486 C488 1.391 . S
C487 C486 1.386 . S
C487 C491 1.393 . S
C488 H480 0.950 . S
C488 C486 1.391 . S
C488 C489 1.400 . S
C489 C488 1.400 . S
C489 C490 1.398 . S
C489 C495 1.491 . S
C490 H481 0.950 . S
C490 C489 1.398 . S
C490 C491 1.391 . S
C491 H479 0.950 . S
C491 C487 1.393 . S
C491 C490 1.391 . S
C492 H482 0.950 . S
C492 C493 1.386 . S
C492 C494 1.391 . S
C493 C492 1.386 . S
C493 C497 1.393 . S
C494 H483 0.950 . S
C494 C492 1.391 . S
C494 C495 1.400 . S
C495 C489 1.491 . S
C495 C494 1.400 . S
C495 C496 1.398 . S
C496 H484 0.950 . S
C496 C495 1.398 . S
C496 C497 1.391 . S
C497 H485 0.950 . S
C497 C493 1.393 . S
C497 C496 1.391 . S
H498 C506 0.950 1_565 S
H499 C511 0.950 . S
H500 C508 0.950 1_565 S
H501 C510 0.950 . S
H502 C512 0.950 . S
H503 C514 0.950 . S
H504 C516 0.950 1_565 S
H505 C517 0.950 . S
C506 H498 0.950 1_545 S
C506 C507 1.386 . S
C506 C508 1.391 . S
C507 C506 1.386 . S
C507 C511 1.393 . S
C508 H500 0.950 1_545 S
C508 C506 1.391 . S
C508 C509 1.400 . S
C509 C508 1.400 . S
C509 C510 1.398 . S
C509 C515 1.491 . S
C510 H501 0.950 . S
C510 C509 1.398 . S
C510 C511 1.391 . S
C511 H499 0.950 . S
C511 C507 1.393 . S
C511 C510 1.391 . S
C512 H502 0.950 . S
C512 C513 1.386 . S
C512 C514 1.391 . S
C513 C512 1.386 . S
C513 C517 1.393 . S
C514 H503 0.950 . S
C514 C512 1.391 . S
C514 C515 1.400 . S
C515 C509 1.491 . S
C515 C514 1.400 . S
C515 C516 1.398 . S
C516 H504 0.950 1_545 S
C516 C515 1.398 . S
C516 C517 1.391 . S
C517 H505 0.950 . S
C517 C513 1.393 . S
C517 C516 1.391 . S
H518 C526 0.950 . S
H519 C531 0.950 . S
H520 C528 0.950 . S
H521 C530 0.950 . S
H522 C532 0.950 . S
H523 C534 0.950 . S
H524 C536 0.950 . S
H525 C537 0.950 . S
C526 H518 0.950 . S
C526 C527 1.386 . S
C526 C528 1.391 . S
C527 C526 1.386 . S
C527 C531 1.393 . S
C528 H520 0.950 . S
C528 C526 1.391 . S
C528 C529 1.400 . S
C529 C528 1.400 . S
C529 C530 1.398 . S
C529 C535 1.491 1_556 S
C530 H521 0.950 . S
C530 C529 1.398 . S
C530 C531 1.391 . S
C531 H519 0.950 . S
C531 C527 1.393 . S
C531 C530 1.391 . S
C532 H522 0.950 . S
C532 C533 1.386 . S
C532 C534 1.391 . S
C533 C532 1.386 . S
C533 C537 1.393 . S
C534 H523 0.950 . S
C534 C532 1.391 . S
C534 C535 1.400 . S
C535 C529 1.491 1_554 S
C535 C534 1.400 . S
C535 C536 1.398 . S
C536 H524 0.950 . S
C536 C535 1.398 . S
C536 C537 1.391 . S
C537 H525 0.950 . S
C537 C533 1.393 . S
C537 C536 1.391 . S
H538 C546 0.950 . S
H539 C551 0.950 . S
H540 C548 0.950 . S
H541 C550 0.950 . S
H542 C552 0.950 1_655 S
H543 C554 0.959 . S
H544 C556 0.950 . S
H545 C557 0.950 . S
C546 H538 0.950 . S
C546 C547 1.386 . S
C546 C548 1.391 . S
C547 C546 1.386 . S
C547 C551 1.393 1_455 S
C548 H540 0.950 . S
C548 C546 1.391 . S
C548 C549 1.400 . S
C549 C548 1.400 . S
C549 C550 1.398 1_455 S
C549 C555 1.491 . S
C550 H541 0.950 . S
C550 C549 1.398 1_655 S
C550 C551 1.391 . S
C551 H539 0.950 . S
C551 C547 1.393 1_655 S
C551 C550 1.391 . S
C552 H542 0.950 1_455 S
C552 C553 1.386 . S
C552 C554 1.388 1_455 S
C553 C552 1.386 . S
C553 C557 1.393 . S
C554 H543 0.959 . S
C554 C552 1.388 1_655 S
C554 C555 1.395 1_655 S
C555 C549 1.491 . S
C555 C554 1.395 1_455 S
C555 C556 1.398 . S
C556 H544 0.950 . S
C556 C555 1.398 . S
C556 C557 1.391 . S
C557 H545 0.950 . S
C557 C553 1.393 . S
C557 C556 1.391 . S
C207 C12 2.690 . S
C213 N187 2.645 . S
C227 C52 2.859 . S
C233 N160 2.862 1_655 S
C247 C111 2.892 . S
C253 N173 2.892 1_565 S
C267 C31 3.348 . S
C273 N186 3.357 . S
C293 N161 3.107 . S
C287 C71 3.143 . S
C313 N174 3.079 . S
C307 C92 3.106 . S
C327 C48 0.264 . S
C333 N134 0.208 . S
C347 C109 0.391 . S
C353 N148 0.108 . S
C367 C29 0.626 . S
C373 N122 0.545 . S
C393 N135 0.421 . S
C387 C69 0.547 . S
C413 N147 0.564 . S
C407 C88 0.575 . S
C427 C8 0.275 . S
C433 N121 0.333 . S
C453 N151 1.221 . S
C447 C17 1.219 1_455 S
C467 C57 1.281 . S
C473 N125 1.256 . S
C487 C97 1.186 . S
C493 N138 1.229 . S
C513 N177 1.822 . S
C507 C42 1.725 . S
C533 N190 1.738 . S
C527 C82 1.722 . S
C547 C2 1.705 . S
C553 N164 1.770 . S
