# Generated by pormake.
# Topology zzz, (3,6)-cn, num edge types: 1
# Building blocks:
#     Node 0, Type 0, BuildingBlock: BETDAH_clean_linker_0, # of connection points: 3
#     Node 1, Type 0, BuildingBlock: BETDAH_clean_linker_0, # of connection points: 3
#     Node 2, Type 0, BuildingBlock: BETDAH_clean_linker_0, # of connection points: 3
#     Node 3, Type 0, BuildingBlock: BETDAH_clean_linker_0, # of connection points: 3
#     Node 4, Type 0, BuildingBlock: BETDAH_clean_linker_0, # of connection points: 3
#     Node 5, Type 0, BuildingBlock: BETDAH_clean_linker_0, # of connection points: 3
#     Node 6, Type 0, BuildingBlock: BETDAH_clean_linker_0, # of connection points: 3
#     Node 7, Type 0, BuildingBlock: BETDAH_clean_linker_0, # of connection points: 3
#     Node 8, Type 1, BuildingBlock: BETGAK_clean_sbu_0, # of connection points: 6
#     Node 9, Type 1, BuildingBlock: BETGAK_clean_sbu_0, # of connection points: 6
#     Node 10, Type 1, BuildingBlock: BETGAK_clean_sbu_0, # of connection points: 6
#     Node 11, Type 1, BuildingBlock: BETGAK_clean_sbu_0, # of connection points: 6
#     Edge 12, Type (0, 1), BuildingBlock: OJICUG_clean_linker_0, # of connection points: 2
#     Edge 13, Type (0, 1), BuildingBlock: OJICUG_clean_linker_0, # of connection points: 2
#     Edge 14, Type (0, 1), BuildingBlock: OJICUG_clean_linker_0, # of connection points: 2
#     Edge 15, Type (0, 1), BuildingBlock: OJICUG_clean_linker_0, # of connection points: 2
#     Edge 16, Type (0, 1), BuildingBlock: OJICUG_clean_linker_0, # of connection points: 2
#     Edge 17, Type (0, 1), BuildingBlock: OJICUG_clean_linker_0, # of connection points: 2
#     Edge 18, Type (0, 1), BuildingBlock: OJICUG_clean_linker_0, # of connection points: 2
#     Edge 19, Type (0, 1), BuildingBlock: OJICUG_clean_linker_0, # of connection points: 2
#     Edge 20, Type (0, 1), BuildingBlock: OJICUG_clean_linker_0, # of connection points: 2
#     Edge 21, Type (0, 1), BuildingBlock: OJICUG_clean_linker_0, # of connection points: 2
#     Edge 22, Type (0, 1), BuildingBlock: OJICUG_clean_linker_0, # of connection points: 2
#     Edge 23, Type (0, 1), BuildingBlock: OJICUG_clean_linker_0, # of connection points: 2
#     Edge 24, Type (0, 1), BuildingBlock: OJICUG_clean_linker_0, # of connection points: 2
#     Edge 25, Type (0, 1), BuildingBlock: OJICUG_clean_linker_0, # of connection points: 2
#     Edge 26, Type (0, 1), BuildingBlock: OJICUG_clean_linker_0, # of connection points: 2
#     Edge 27, Type (0, 1), BuildingBlock: OJICUG_clean_linker_0, # of connection points: 2
#     Edge 28, Type (0, 1), BuildingBlock: OJICUG_clean_linker_0, # of connection points: 2
#     Edge 29, Type (0, 1), BuildingBlock: OJICUG_clean_linker_0, # of connection points: 2
#     Edge 30, Type (0, 1), BuildingBlock: OJICUG_clean_linker_0, # of connection points: 2
#     Edge 31, Type (0, 1), BuildingBlock: OJICUG_clean_linker_0, # of connection points: 2
#     Edge 32, Type (0, 1), BuildingBlock: OJICUG_clean_linker_0, # of connection points: 2
#     Edge 33, Type (0, 1), BuildingBlock: OJICUG_clean_linker_0, # of connection points: 2
#     Edge 34, Type (0, 1), BuildingBlock: OJICUG_clean_linker_0, # of connection points: 2
#     Edge 35, Type (0, 1), BuildingBlock: OJICUG_clean_linker_0, # of connection points: 2
# Relax obj value: 0.379
# Max RMSD: 0.217
# Mean RMSD: 0.161
data_MOF--net-zzz--node1-BETGAK_clean_sbu_0--node2-BETDAH_clean_linker_0--edge1-OJICUG_clean_linker_0
_symmetry_space_group_name_H-M    P1
_symmetry_Int_Tables_number       1
_symmetry_cell_setting            triclinic
loop_
_symmetry_equiv_pos_as_xyz
'x, y, z'
_cell_length_a     37.534027
_cell_length_b     37.635123
_cell_length_c     10.175786
_cell_angle_alpha  90.006353
_cell_angle_beta   89.781708
_cell_angle_gamma 89.77769
loop_
_atom_site_label
_atom_site_type_symbol
_atom_site_fract_x
_atom_site_fract_y
_atom_site_fract_z
_atom_type_partial_charge
H0 H 0.84071 0.47242 0.52113 0.0
H1 H 0.74178 0.49117 0.32052 0.0
H2 H 0.78876 0.57328 0.56032 0.0
C3 C 0.81749 0.48901 0.50369 0.0
C4 C 0.81771 0.5235 0.55339 0.0
C5 C 0.79072 0.47727 0.41801 0.0
C6 C 0.76195 0.49993 0.389 0.0
C7 C 0.76036 0.53439 0.44324 0.0
C8 C 0.78884 0.54627 0.52355 0.0
N9 N 0.73153 0.55812 0.41473 0.0
C10 C 0.70414 0.55218 0.3238 0.0
H11 H 0.09826 0.83976 0.47028 0.0
H12 H 0.08 0.7365 0.30624 0.0
H13 H 1.00391 0.78252 0.57832 0.0
C14 C 0.08266 0.81554 0.46751 0.0
C15 C 0.05056 0.81451 0.53704 0.0
C16 C 0.09311 0.78775 0.38349 0.0
C17 C 0.07193 0.75736 0.37337 0.0
C18 C 0.03995 0.75463 0.44553 0.0
C19 C 1.0291 0.78369 0.52631 0.0
N20 N 1.0179 0.72374 0.43443 0.0
C21 C 1.02368 0.69586 0.34458 0.0
H22 H 0.72961 0.08977 0.50189 0.0
H23 H 0.83161 0.06626 0.32927 0.0
H24 H 0.78001 0.98993 0.58327 0.0
C25 C 0.75291 0.07272 0.49431 0.0
C26 C 0.75167 0.03959 0.55578 0.0
C27 C 0.78118 0.08232 0.41065 0.0
C28 C 0.81016 0.05903 0.39543 0.0
C29 C 0.81039 1.02579 0.45902 0.0
C30 C 0.78068 1.01596 0.53789 0.0
N31 N 0.83924 1.00134 0.4405 0.0
C32 C 0.86725 1.0058 0.35024 0.0
H33 H 0.47296 0.72727 0.46806 0.0
H34 H 0.49269 0.82928 0.29656 0.0
H35 H 0.56952 0.78241 0.56087 0.0
C36 C 0.48907 0.75112 0.46232 0.0
C37 C 0.52173 0.75157 0.52742 0.0
C38 C 0.47876 0.7788 0.378 0.0
C39 C 0.5006 0.80864 0.3642 0.0
C40 C 0.53312 0.81086 0.43222 0.0
C41 C 0.54389 0.78175 0.51241 0.0
N42 N 0.55589 0.84111 0.41702 0.0
C43 C 0.54906 0.87023 0.33398 0.0
H44 H 0.22274 0.58985 0.13188 0.0
H45 H 0.32278 0.5741 0.32818 0.0
H46 H 0.2774 0.49041 0.09141 0.0
C47 C 0.24644 0.57388 0.1486 0.0
C48 C 0.24703 0.53936 0.09927 0.0
C49 C 0.27321 0.5865 0.23254 0.0
C50 C 0.30265 0.56466 0.26079 0.0
C51 C 0.30504 0.53019 0.20704 0.0
C52 C 0.27666 0.51742 0.12803 0.0
N53 N 0.33469 0.50737 0.2347 0.0
C54 C 0.36221 0.51445 0.32404 0.0
H55 H 0.96901 0.21949 0.17008 0.0
H56 H 0.98232 0.32481 0.32506 0.0
H57 H 0.06444 0.27704 0.08286 0.0
C58 C 0.98392 0.24411 0.17452 0.0
C59 C 1.01735 0.24495 0.11436 0.0
C60 C 0.97125 0.27248 0.25191 0.0
C61 C 0.99191 0.30331 0.26349 0.0
C62 C 1.02544 0.30565 0.20137 0.0
C63 C 0.03819 0.27607 0.12727 0.0
N64 N 0.04721 0.3366 0.21657 0.0
C65 C 0.04039 0.36442 0.30572 0.0
H66 H 0.34753 0.97908 0.15849 0.0
H67 H 0.24782 0.99583 0.35842 0.0
H68 H 0.28813 0.07449 0.08669 0.0
C69 C 0.32329 0.99453 0.17182 0.0
C70 C 0.32078 1.02743 0.1097 0.0
C71 C 0.29745 0.98311 0.26233 0.0
C72 C 0.26725 1.00433 0.28611 0.0
C73 C 0.26299 0.03699 0.21974 0.0
C74 C 0.29033 0.04871 0.13327 0.0
N75 N 0.23242 0.0591 0.24115 0.0
C76 C 0.20516 0.05284 0.33296 0.0
H77 H 0.59514 0.34389 0.15463 0.0
H78 H 0.57468 0.2406 0.31886 0.0
H79 H 0.49614 0.29235 0.07463 0.0
C80 C 0.57873 0.32028 0.16129 0.0
C81 C 0.54527 0.32126 0.10211 0.0
C82 C 0.58942 0.29167 0.2413 0.0
C83 C 0.56673 0.26232 0.25544 0.0
C84 C 0.53318 0.26195 0.19392 0.0
C85 C 0.52242 0.29179 0.11814 0.0
N86 N 0.50923 0.23282 0.21128 0.0
C87 C 0.51375 0.20485 0.30109 0.0
La88 La 0.05876 1.02186 0.93494 0.0
La89 La 1.00991 0.03638 0.73808 0.0
C90 C 0.09463 0.99451 0.1178 0.0
C91 C 0.1155 0.96161 0.12566 0.0
C92 C 0.12565 0.94324 1.01113 0.0
C93 C 0.14038 0.90912 0.01985 0.0
C94 C 0.14539 0.89316 0.14329 0.0
C95 C 0.13772 0.91304 0.2575 0.0
C96 C 0.12257 0.94676 0.24856 0.0
C97 C 0.09144 0.04517 0.71984 0.0
C98 C 0.03417 0.95811 0.74307 0.0
C99 C 0.97156 0.06432 0.56322 0.0
C100 C 0.95819 0.10096 0.54813 0.0
C101 C 0.92139 0.10774 0.53884 0.0
C102 C 0.90863 0.1427 0.52955 0.0
C103 C 0.9325 0.17135 0.53231 0.0
C104 C 0.96921 0.16428 0.54388 0.0
C105 C 0.98188 0.12961 0.55136 0.0
C106 C 0.97889 1.01289 0.95632 0.0
C107 C 0.03526 0.10011 0.92456 0.0
O108 O 0.10695 1.01861 0.03792 0.0
O109 O 0.06026 0.99033 0.10527 0.0
O110 O 0.09831 0.05474 0.83869 0.0
O111 O 0.06583 1.02319 0.72264 0.0
O112 O 0.04861 0.96756 0.85652 0.0
O113 O 1.01995 0.98264 0.66688 0.0
O114 O 0.95882 0.04725 0.66406 0.0
O115 O 1.00594 0.05937 0.55047 0.0
O116 O 0.97227 1.00174 0.83901 0.0
O117 O 1.00354 0.0357 0.94983 0.0
O118 O 1.02379 0.09072 0.80666 0.0
O119 O 0.04598 0.07515 1.00648 0.0
H120 H 0.12037 0.95443 0.91504 0.0
H121 H 0.14564 0.89436 0.93042 0.0
H122 H 0.14027 0.90137 0.35432 0.0
H123 H 0.11449 0.9603 0.33778 0.0
H124 H 0.90255 0.086 0.53796 0.0
H125 H 0.88031 0.14734 0.51808 0.0
H126 H 0.98856 0.18557 0.54167 0.0
H127 H 1.01035 0.1254 0.55943 0.0
La128 La 0.54178 0.06402 0.9111 0.0
La129 La 0.52476 1.01263 0.7212 0.0
C130 C 0.56901 0.10496 0.07859 0.0
C131 C 0.60634 0.11259 0.11009 0.0
C132 C 0.61769 0.14798 0.12269 0.0
C133 C 0.65391 0.15576 0.13706 0.0
C134 C 0.67927 0.12823 0.13628 0.0
C135 C 0.66761 0.09287 0.12388 0.0
C136 C 0.63161 0.08514 0.1108 0.0
C137 C 0.51663 0.09263 0.69089 0.0
C138 C 0.60623 1.03094 0.74736 0.0
C139 C 0.50903 0.97387 0.52911 0.0
C140 C 0.47752 0.95161 0.50677 0.0
C141 C 0.45883 0.9366 0.61316 0.0
C142 C 0.42429 0.92367 0.596 0.0
C143 C 0.4082 0.92509 0.47184 0.0
C144 C 0.42837 0.937 0.36351 0.0
C145 C 0.46252 0.95061 0.3814 0.0
C146 C 0.52491 0.98474 0.96153 0.0
C147 C 0.46226 0.04361 0.89414 0.0
O148 O 0.55997 0.11474 0.96073 0.0
O149 O 0.55689 0.07326 0.10741 0.0
O150 O 0.50619 0.10052 0.80829 0.0
O151 O 0.53904 0.0675 0.69884 0.0
O152 O 0.5961 0.05299 0.84131 0.0
O153 O 0.58237 1.01206 0.68327 0.0
O154 O 0.53044 0.96378 0.62325 0.0
O155 O 0.50234 1.00804 0.53349 0.0
O156 O 0.50142 0.97929 0.87203 0.0
O157 O 0.54754 1.00671 0.91662 0.0
O158 O 0.47111 1.0323 0.77499 0.0
O159 O 0.48753 0.05277 0.97743 0.0
H160 H 0.59855 0.1696 0.11984 0.0
H161 H 0.6621 0.18314 0.14884 0.0
H162 H 0.6863 0.07088 0.12741 0.0
H163 H 0.62366 0.05768 0.09927 0.0
H164 H 0.4698 0.93714 0.71122 0.0
H165 H 0.40924 0.91499 0.68113 0.0
H166 H 0.41648 0.93928 0.26701 0.0
H167 H 0.47605 0.96295 0.29921 0.0
La168 La 0.51001 0.54458 0.92187 0.0
La169 La 0.55787 0.52899 0.72206 0.0
C170 C 0.47511 0.57232 0.10759 0.0
C171 C 0.45441 0.60529 0.1174 0.0
C172 C 0.44452 0.62414 1.00397 0.0
C173 C 0.42993 0.65828 0.01464 0.0
C174 C 0.42489 0.67383 0.13897 0.0
C175 C 0.43221 0.65344 0.25204 0.0
C176 C 0.44715 0.61965 0.24115 0.0
C177 C 0.47606 0.52237 0.70839 0.0
C178 C 0.5359 0.60784 0.73042 0.0
C179 C 0.5947 0.49988 0.54439 0.0
C180 C 0.60704 0.46283 0.52997 0.0
C181 C 0.64368 0.45491 0.52298 0.0
C182 C 0.65543 0.41956 0.51532 0.0
C183 C 0.63068 0.39167 0.51746 0.0
C184 C 0.59412 0.39986 0.5262 0.0
C185 C 0.58247 0.4349 0.53214 0.0
C186 C 0.59046 0.55084 0.93887 0.0
C187 C 0.53148 0.46596 0.90972 0.0
O188 O 0.46229 0.54829 0.02889 0.0
O189 O 0.50943 0.57634 0.09174 0.0
O190 O 0.46925 0.51296 0.82761 0.0
O191 O 0.50227 0.54366 0.7098 0.0
O192 O 0.5215 0.59864 0.84451 0.0
O193 O 0.54922 0.58308 0.65273 0.0
O194 O 0.60834 0.51699 0.64316 0.0
O195 O 0.56041 0.50566 0.53457 0.0
O196 O 0.59696 0.56208 0.82137 0.0
O197 O 0.5649 0.52902 0.93351 0.0
O198 O 0.54283 0.47505 0.79112 0.0
O199 O 0.5217 0.49112 0.9925 0.0
H200 H 0.44989 0.61329 0.90726 0.0
H201 H 0.42484 0.67338 0.926 0.0
H202 H 0.42958 0.66473 0.34953 0.0
H203 H 0.45493 0.60567 0.32955 0.0
H204 H 0.66318 0.47606 0.52292 0.0
H205 H 0.68367 0.41403 0.50587 0.0
H206 H 0.57416 0.37916 0.5234 0.0
H207 H 0.55409 0.43996 0.53858 0.0
La208 La 1.02132 0.50671 0.94874 0.0
La209 La 0.04363 0.5533 0.70261 0.0
C210 C 0.99771 0.48384 0.16289 0.0
C211 C 0.96798 0.45928 0.18482 0.0
C212 C 0.95034 0.4445 0.07637 0.0
C213 C 0.91775 0.42733 0.0927 0.0
C214 C 0.90202 0.42505 0.21774 0.0
C215 C 0.92151 0.43693 0.32768 0.0
C216 C 0.95421 0.45407 0.31113 0.0
C217 C 1.02634 0.46655 0.73002 0.0
C218 C 0.96151 0.53564 0.75141 0.0
C219 C 0.06703 0.57616 0.48816 0.0
C220 C 0.09632 0.60119 0.46582 0.0
C221 C 0.11361 0.61654 0.57398 0.0
C222 C 0.14575 0.63451 0.55725 0.0
C223 C 0.16139 0.63701 0.43213 0.0
C224 C 0.1422 0.62448 0.32246 0.0
C225 C 0.10994 0.60656 0.3394 0.0
C226 C 0.03819 0.59359 0.92063 0.0
C227 C 0.10347 0.52476 0.90072 0.0
O228 O 1.02565 0.47016 0.10354 0.0
O229 O 0.98833 0.51462 0.11276 0.0
O230 O 1.0181 0.45517 0.84579 0.0
O231 O 1.03161 0.49944 0.74384 0.0
O232 O 0.96926 0.52278 0.86971 0.0
O233 O 0.98653 0.54558 0.66619 0.0
O234 O 0.03885 0.58949 0.54696 0.0
O235 O 0.07688 0.54562 0.53912 0.0
O236 O 0.0464 0.60491 0.80474 0.0
O237 O 1.03321 0.56063 0.90741 0.0
O238 O 0.09572 0.53762 0.78241 0.0
O239 O 0.07844 0.51451 0.98547 0.0
H240 H 0.96041 0.44844 0.97778 0.0
H241 H 0.90348 0.4185 1.00637 0.0
H242 H 0.91001 0.43619 0.42543 0.0
H243 H 0.96741 0.46537 0.39584 0.0
H244 H 0.10366 0.61249 0.67265 0.0
H245 H 0.15979 0.64382 0.64338 0.0
H246 H 0.15366 0.62536 0.22467 0.0
H247 H 0.09701 0.59483 0.25493 0.0
C248 C 0.17935 0.06722 0.55093 0.0
C249 C 0.17621 0.0504 0.42886 0.0
H250 H 0.15501 0.07922 0.73616 0.0
C251 C 0.1443 0.03271 0.39944 0.0
H252 H 0.20347 0.08143 0.57562 0.0
C253 C 0.11621 1.03114 0.49195 0.0
C254 C 0.11951 0.04769 0.61533 0.0
H255 H 0.14124 1.02021 0.30472 0.0
H256 H 0.09211 1.01692 0.46727 0.0
C257 C 0.15138 0.06601 0.64261 0.0
C258 C 0.48934 0.17492 0.49838 0.0
C259 C 0.51445 0.17574 0.39611 0.0
H260 H 0.47016 0.14783 0.66988 0.0
C261 C 0.53942 0.14792 0.38648 0.0
H262 H 0.46966 0.19592 0.50777 0.0
C263 C 0.53951 0.1199 0.47851 0.0
C264 C 0.51475 0.11946 0.58286 0.0
H265 H 0.55911 0.14808 0.30884 0.0
H266 H 0.55951 0.0992 0.47008 0.0
C267 C 0.48954 0.14722 0.59073 0.0
C268 C 0.38732 0.50212 0.54415 0.0
C269 C 0.39115 0.51734 0.41939 0.0
H270 H 0.41103 0.49135 0.73077 0.0
C271 C 0.42369 0.53362 0.3871 0.0
H272 H 0.36271 0.48901 0.57128 0.0
C273 C 0.45175 0.53528 0.47915 0.0
C274 C 0.4478 0.52021 0.60497 0.0
H275 H 0.42732 0.54491 0.29044 0.0
H276 H 0.4764 0.54828 0.452 0.0
C277 C 0.41522 0.5034 0.63532 0.0
C278 C 0.04899 0.42652 0.39163 0.0
C279 C 0.03482 0.39203 0.40533 0.0
H280 H 0.05718 0.47787 0.48193 0.0
C281 C 1.01648 0.38363 0.52106 0.0
H282 H 0.06345 0.43364 0.30324 0.0
C283 C 1.01318 0.40859 0.62255 0.0
C284 C 1.02797 0.44288 0.61174 0.0
H285 H 1.00534 0.35735 0.53467 0.0
H286 H 0.9994 0.40063 0.71149 0.0
C287 C 0.04542 0.45187 0.49374 0.0
C288 C 0.92409 1.03198 0.26644 0.0
C289 C 0.89616 1.00746 0.25394 0.0
H290 H 0.97268 0.05279 0.18378 0.0
C291 C 0.89654 0.98398 0.147 0.0
H292 H 0.9243 0.05038 0.34784 0.0
C293 C 0.92399 0.9853 0.05312 0.0
C294 C 0.95188 1.01008 0.06399 0.0
H295 H 0.87541 0.96471 0.13526 0.0
H296 H 0.92312 0.96711 0.97071 0.0
C297 C 0.95181 0.03323 0.17272 0.0
C298 C 0.56725 0.92861 0.23569 0.0
C299 C 0.54281 0.90037 0.24571 0.0
H300 H 0.58106 0.97781 0.13872 0.0
C301 C 0.51238 0.90116 0.16657 0.0
H302 H 0.591 0.92869 0.29581 0.0
C303 C 0.5066 0.92912 0.0782 0.0
C304 C 0.53117 0.9572 0.06533 0.0
H305 H 0.49292 0.88009 0.1719 0.0
H306 H 0.48279 0.92843 0.01846 0.0
C307 C 0.56154 0.95678 0.14613 0.0
C308 C 0.64558 0.52885 0.24475 0.0
C309 C 0.6752 0.55119 0.22805 0.0
H310 H 0.59514 0.5113 0.16799 0.0
C311 C 0.67598 0.57406 0.11935 0.0
H312 H 0.64429 0.5111 0.328 0.0
C313 C 0.64801 0.57435 0.02821 0.0
C314 C 0.61837 0.55182 0.04337 0.0
H315 H 0.69832 0.59179 0.10461 0.0
H316 H 0.64978 0.59213 0.94473 0.0
C317 C 0.61737 0.52915 0.15347 0.0
C318 C 1.016 0.63348 0.25987 0.0
C319 C 1.02888 0.66842 0.24414 0.0
H320 H 1.0091 0.58168 0.17151 0.0
C321 C 0.04586 0.67732 0.12619 0.0
H322 H 1.00255 0.62598 0.34995 0.0
C323 C 0.04934 0.65234 0.02499 0.0
C324 C 0.03601 0.61751 0.03809 0.0
H325 H 0.05592 0.70395 0.11078 0.0
H326 H 0.06217 0.66067 0.93461 0.0
C327 C 1.01971 0.60811 0.15787 0.0
C328 C 0.94973 0.26529 0.47881 0.0
C329 C 0.94153 0.26502 0.34424 0.0
H330 H 0.95137 0.23368 0.65304 0.0
C331 C 0.91379 0.24282 0.30143 0.0
H332 H 0.96977 0.28314 0.51698 0.0
C333 C 0.90416 0.2136 0.37823 0.0
C334 C 0.92123 0.20801 0.49907 0.0
H335 H 0.90562 0.24329 0.19941 0.0
H336 H 0.88884 0.19262 0.33276 0.0
C337 C 0.93935 0.23664 0.55695 0.0
C338 C 0.32293 0.92298 0.29246 0.0
C339 C 0.30774 0.9535 0.34996 0.0
H340 H 0.36887 0.8891 0.28853 0.0
C341 C 0.31763 0.9626 0.47846 0.0
H342 H 0.31516 0.91499 0.19438 0.0
C343 C 0.34839 0.94772 0.53274 0.0
C344 C 0.36896 0.9236 0.45862 0.0
H345 H 0.30592 0.98561 0.52622 0.0
H346 H 0.35898 0.95956 0.62142 0.0
C347 C 0.35392 0.90835 0.34584 0.0
C348 C 0.64804 0.31879 0.29117 0.0
C349 C 0.6192 0.29791 0.33398 0.0
H350 H 0.67469 0.36817 0.3209 0.0
C351 C 0.61058 0.29831 0.46847 0.0
H352 H 0.65662 0.31766 0.18945 0.0
C353 C 0.62175 0.32679 0.54567 0.0
C354 C 0.64106 0.35456 0.48688 0.0
H355 H 0.58973 0.28138 0.50703 0.0
H356 H 0.60948 0.33052 0.64131 0.0
C357 C 0.65844 0.34792 0.3669 0.0
C358 C 0.24661 0.64646 0.25279 0.0
C359 C 0.26404 0.61779 0.31431 0.0
H360 H 0.19744 0.67541 0.24301 0.0
C361 C 0.25565 0.61052 0.44601 0.0
H362 H 0.2536 0.65367 0.15291 0.0
C363 C 0.22343 0.62284 0.49793 0.0
C364 C 0.20031 0.64308 0.41871 0.0
H365 H 0.26954 0.58959 0.49837 0.0
H366 H 0.21426 0.61131 0.58948 0.0
C367 C 0.21408 0.65854 0.30363 0.0
C368 C 0.10984 0.80326 0.15812 0.0
C369 C 0.12125 0.79556 0.28619 0.0
H370 H 0.10989 0.84224 1.00641 0.0
C371 C 0.15313 0.8107 0.33094 0.0
H372 H 0.08582 0.79125 0.11984 0.0
C373 C 0.16722 0.84007 0.26528 0.0
C374 C 0.14914 0.8541 0.15609 0.0
H375 H 0.16297 0.80444 0.42822 0.0
H376 H 0.18788 0.85533 0.31312 0.0
C377 C 0.12372 0.83278 0.09294 0.0
C378 C 0.77241 0.10172 0.18271 0.0
C379 C 0.77458 0.11146 0.31569 0.0
H380 H 0.73849 0.10076 0.01465 0.0
C381 C 0.75488 0.14122 0.35844 0.0
H382 H 0.78834 0.07997 0.14432 0.0
C383 C 0.72536 0.15229 0.28569 0.0
C384 C 0.71714 0.13469 0.16803 0.0
H385 H 0.75728 0.15042 0.45891 0.0
H386 H 0.70617 0.16986 0.33215 0.0
C387 C 0.74346 0.11336 0.10856 0.0
C388 C 0.41844 0.75603 0.32996 0.0
C389 C 0.4502 0.77112 0.28291 0.0
H390 H 0.38338 0.71162 0.31388 0.0
C391 C 0.46102 0.7636 0.15368 0.0
H392 H 0.40901 0.76219 0.42815 0.0
C393 C 0.44677 0.73425 0.08899 0.0
C394 C 0.42151 0.71291 0.15371 0.0
H395 H 0.48492 0.77559 0.11354 0.0
H396 H 0.46019 0.72493 1.00098 0.0
C397 C 0.40395 0.72684 0.26476 0.0
C398 C 0.80825 0.45356 0.20402 0.0
C399 C 0.79951 0.44604 0.33524 0.0
H400 H 0.84981 0.45243 0.06125 0.0
C401 C 0.81636 0.41689 0.39593 0.0
H402 H 0.7948 0.47487 0.15222 0.0
C403 C 0.84878 0.40444 0.34533 0.0
C404 C 0.86296 0.41992 0.23096 0.0
H405 H 0.80909 0.40948 0.49535 0.0
H406 H 0.86504 0.38709 0.40555 0.0
C407 C 0.84032 0.44082 0.1522 0.0
C408 C 1.01647 0.20051 0.9292 0.0
C409 C 1.02999 0.211 0.05199 0.0
H410 H 1.00767 0.15796 0.79287 0.0
C411 C 0.04704 0.18503 0.12933 0.0
H412 H 1.00201 0.21944 0.86926 0.0
C413 C 0.04961 0.14943 0.08684 0.0
C414 C 0.03507 0.13862 0.96567 0.0
H415 H 0.05655 0.19184 0.22648 0.0
H416 H 0.06201 0.13013 0.1512 0.0
C417 C 1.01928 0.16499 0.88622 0.0
C418 C 0.36288 1.02259 0.91779 0.0
C419 C 0.35297 0.03959 0.03573 0.0
H420 H 0.40475 1.01082 0.77964 0.0
C421 C 0.37854 0.06039 0.1003 0.0
H422 H 0.34414 1.00543 0.86809 0.0
C423 C 0.4136 0.06273 0.05183 0.0
C424 C 0.424 0.04451 0.9368 0.0
H425 H 0.3721 0.07282 0.19349 0.0
H426 H 0.43291 0.0778 0.10737 0.0
C427 C 0.39781 1.02536 0.86806 0.0
C428 C 0.55031 0.36587 0.91894 0.0
C429 C 0.53448 0.35548 0.03837 0.0
H430 H 0.56167 0.40836 0.78486 0.0
C431 C 0.51594 0.38137 0.11166 0.0
H432 H 0.56581 0.34688 0.8624 0.0
C433 C 0.51421 0.41692 0.06868 0.0
C434 C 0.53095 0.4276 0.95091 0.0
H435 H 0.50452 0.37452 0.20623 0.0
H436 H 0.50059 0.43625 0.12986 0.0
C437 C 0.54826 0.4013 0.87523 0.0
C438 C 0.18767 0.50885 0.10539 0.0
C439 C 0.21383 0.52699 0.03256 0.0
H440 H 0.13262 0.49402 0.12239 0.0
C441 C 0.20392 0.54199 0.91132 0.0
H442 H 0.19409 0.49813 0.20125 0.0
C443 C 0.16861 0.53992 0.86609 0.0
C444 C 0.1419 0.52336 0.94205 0.0
H445 H 0.2231 0.55718 0.855 0.0
H446 H 0.16197 0.55289 0.77432 0.0
C447 C 0.15221 0.50707 0.06092 0.0
C448 C 1.01818 0.87323 0.54226 0.0
C449 C 0.0396 0.84798 0.60696 0.0
H450 H 0.99984 0.92735 0.53278 0.0
C451 C 0.05771 0.85884 0.72103 0.0
H452 H 1.00487 0.86616 0.45172 0.0
C453 C 0.05499 0.89404 0.76773 0.0
C454 C 0.03474 0.91977 0.69989 0.0
H455 H 0.07537 0.84046 0.7708 0.0
H456 H 0.06994 0.90138 0.85427 0.0
C457 C 1.0158 0.90855 0.58784 0.0
C458 C 0.69341 1.0064 0.5695 0.0
C459 C 0.71772 1.03035 0.6257 0.0
H460 H 0.63929 0.98777 0.56249 0.0
C461 C 0.70564 0.05215 0.72917 0.0
H462 H 0.70154 0.98999 0.48716 0.0
C463 C 0.66999 0.05127 0.7713 0.0
C464 C 0.64504 1.02873 0.71079 0.0
H465 H 0.7234 0.07149 0.77247 0.0
H466 H 0.66168 0.06958 0.8475 0.0
C467 C 0.65753 1.00557 0.61152 0.0
C468 C 0.55341 0.69256 0.53075 0.0
C469 C 0.53244 0.71805 0.5967 0.0
H470 H 0.57077 0.63815 0.51962 0.0
C471 C 0.51431 0.70742 0.71149 0.0
H472 H 0.56672 0.6995 0.4397 0.0
C473 C 0.51646 0.67217 0.75748 0.0
C474 C 0.53615 0.64619 0.6882 0.0
H475 H 0.497 0.72604 0.76224 0.0
H476 H 0.50144 0.66498 0.84447 0.0
C477 C 0.55521 0.65717 0.57564 0.0
C478 C 0.87732 0.5535 0.54931 0.0
C479 C 0.85111 0.53503 0.62068 0.0
H480 H 0.93245 0.56805 0.53309 0.0
C481 C 0.861 0.51913 0.74038 0.0
H482 H 0.87088 0.56497 0.45464 0.0
C483 C 0.89634 0.52064 0.78542 0.0
C484 C 0.92309 0.53751 0.71065 0.0
H485 H 0.84174 0.50372 0.79552 0.0
H486 H 0.90298 0.50701 0.87589 0.0
C487 C 0.91281 0.55469 0.59347 0.0
loop_
_geom_bond_atom_site_label_1
_geom_bond_atom_site_label_2
_geom_bond_distance
_geom_bond_site_symmetry_2
_ccdc_geom_bond_type
H0 C3 0.929 . S
H1 C6 0.929 . S
H2 C8 0.930 . S
C3 H0 0.929 . S
C3 C4 1.398 . S
C3 C5 1.396 . S
C4 C3 1.398 . S
C4 C8 1.407 . S
C5 C3 1.396 . S
C5 C6 1.394 . S
C6 H1 0.929 . S
C6 C5 1.394 . S
C6 C7 1.382 . S
C7 C6 1.382 . S
C7 C8 1.392 . S
C7 N9 1.420 . S
C8 H2 0.930 . S
C8 C4 1.407 . S
C8 C7 1.392 . S
N9 C7 1.420 . S
N9 C10 1.244 . S
C10 N9 1.244 . S
H11 C14 0.929 . S
H12 C17 0.929 . S
H13 C19 0.930 . S
C14 H11 0.929 . S
C14 C15 1.395 1_655 S
C14 C16 1.394 1_655 S
C15 C14 1.395 1_455 S
C15 C19 1.414 . S
C16 C14 1.394 1_455 S
C16 C17 1.397 . S
C17 H12 0.929 . S
C17 C16 1.397 . S
C17 C18 1.382 . S
C18 C17 1.382 . S
C18 C19 1.392 . S
C18 N20 1.420 . S
C19 H13 0.930 . S
C19 C15 1.414 . S
C19 C18 1.392 . S
N20 C18 1.420 . S
N20 C21 1.232 1_455 S
C21 N20 1.232 1_655 S
H22 C25 0.929 . S
H23 C28 0.929 . S
H24 C30 0.930 . S
C25 H22 0.929 . S
C25 C26 1.395 1_565 S
C25 C27 1.395 1_565 S
C26 C25 1.395 1_545 S
C26 C30 1.414 . S
C27 C25 1.395 1_545 S
C27 C28 1.397 . S
C28 H23 0.929 . S
C28 C27 1.397 . S
C28 C29 1.382 . S
C29 C28 1.382 . S
C29 C30 1.392 . S
C29 N31 1.420 . S
C30 H24 0.930 . S
C30 C26 1.414 . S
C30 C29 1.392 . S
N31 C29 1.420 . S
N31 C32 1.231 1_545 S
C32 N31 1.231 1_565 S
H33 C36 0.929 . S
H34 C39 0.929 . S
H35 C41 0.930 . S
C36 H33 0.929 . S
C36 C37 1.398 . S
C36 C38 1.396 . S
C37 C36 1.398 . S
C37 C41 1.407 . S
C38 C36 1.396 . S
C38 C39 1.394 . S
C39 H34 0.929 . S
C39 C38 1.394 . S
C39 C40 1.382 . S
C40 C39 1.382 . S
C40 C41 1.392 . S
C40 N42 1.420 . S
C41 H35 0.930 . S
C41 C37 1.407 . S
C41 C40 1.392 . S
N42 C40 1.420 . S
N42 C43 1.244 . S
C43 N42 1.244 . S
H44 C47 0.929 . S
H45 C50 0.929 . S
H46 C52 0.930 . S
C47 H44 0.929 . S
C47 C48 1.398 1_554 S
C47 C49 1.396 . S
C48 C47 1.398 1_556 S
C48 C52 1.407 . S
C49 C47 1.396 . S
C49 C50 1.394 . S
C50 H45 0.929 . S
C50 C49 1.394 . S
C50 C51 1.382 . S
C51 C50 1.382 . S
C51 C52 1.392 1_554 S
C51 N53 1.420 . S
C52 H46 0.930 . S
C52 C48 1.407 . S
C52 C51 1.392 1_556 S
N53 C51 1.420 . S
N53 C54 1.244 . S
C54 N53 1.244 . S
H55 C58 0.929 . S
H56 C61 0.929 . S
H57 C63 0.930 . S
C58 H55 0.929 . S
C58 C59 1.398 1_654 S
C58 C60 1.394 1_655 S
C59 C58 1.398 1_456 S
C59 C63 1.407 . S
C60 C58 1.394 1_455 S
C60 C61 1.398 . S
C61 H56 0.929 . S
C61 C60 1.398 . S
C61 C62 1.382 . S
C62 C61 1.382 . S
C62 C63 1.392 1_554 S
C62 N64 1.420 . S
C63 H57 0.930 . S
C63 C59 1.407 . S
C63 C62 1.392 1_556 S
N64 C62 1.420 . S
N64 C65 1.235 1_455 S
C65 N64 1.235 1_655 S
H66 C69 0.929 . S
H67 C72 0.929 . S
H68 C74 0.930 . S
C69 H66 0.929 . S
C69 C70 1.398 1_564 S
C69 C71 1.393 1_565 S
C70 C69 1.398 1_546 S
C70 C74 1.407 . S
C71 C69 1.393 1_545 S
C71 C72 1.398 . S
C72 H67 0.929 . S
C72 C71 1.398 . S
C72 C73 1.382 . S
C73 C72 1.382 . S
C73 C74 1.392 1_554 S
C73 N75 1.420 . S
C74 H68 0.930 . S
C74 C70 1.407 . S
C74 C73 1.392 1_556 S
N75 C73 1.420 . S
N75 C76 1.235 1_545 S
C76 N75 1.235 1_565 S
H77 C80 0.929 . S
H78 C83 0.929 . S
H79 C85 0.930 . S
C80 H77 0.929 . S
C80 C81 1.398 1_554 S
C80 C82 1.396 . S
C81 C80 1.398 1_556 S
C81 C85 1.407 . S
C82 C80 1.396 . S
C82 C83 1.394 . S
C83 H78 0.929 . S
C83 C82 1.394 . S
C83 C84 1.382 . S
C84 C83 1.382 . S
C84 C85 1.392 1_554 S
C84 N86 1.420 . S
C85 H79 0.930 . S
C85 C81 1.407 . S
C85 C84 1.392 1_556 S
N86 C84 1.420 . S
N86 C87 1.244 . S
C87 N86 1.244 . S
La88 C90 2.928 1_556 S
La88 O108 2.521 1_556 S
La88 O109 2.628 1_556 S
La88 O110 2.554 . S
La88 O111 2.757 1_565 S
La88 O112 2.470 . S
La88 O117 2.482 1_455 S
La88 O119 2.503 1_565 S
La89 C99 2.928 . S
La89 O111 2.482 1_655 S
La89 O113 2.503 1_545 S
La89 O114 2.521 . S
La89 O115 2.628 . S
La89 O116 2.554 . S
La89 O117 2.757 1_545 S
La89 O118 2.470 . S
C90 La88 2.928 1_554 S
C90 C91 1.503 . S
C90 O108 1.261 . S
C90 O109 1.243 . S
C91 C90 1.503 . S
C91 C92 1.394 . S
C91 C96 1.373 . S
C92 C91 1.394 . S
C92 C93 1.380 . S
C92 H120 0.930 . S
C93 C92 1.380 . S
C93 C94 1.376 . S
C93 H121 0.930 . S
C94 C93 1.376 . S
C94 C95 1.370 . S
C95 C94 1.370 . S
C95 C96 1.396 . S
C95 H122 0.929 . S
C96 C91 1.373 . S
C96 C95 1.396 . S
C96 H123 0.929 1_455 S
C97 O110 1.240 . S
C97 O111 1.289 1_565 S
C98 O112 1.258 1_655 S
C98 O113 1.256 . S
C99 La89 2.928 . S
C99 C100 1.503 . S
C99 O114 1.261 . S
C99 O115 1.243 . S
C100 C99 1.503 . S
C100 C101 1.394 . S
C100 C105 1.373 . S
C101 C100 1.394 . S
C101 C102 1.380 . S
C101 H124 0.930 . S
C102 C101 1.380 . S
C102 C103 1.376 . S
C102 H125 0.930 . S
C103 C102 1.376 . S
C103 C104 1.370 . S
C104 C103 1.370 . S
C104 C105 1.396 . S
C104 H126 0.929 . S
C105 C100 1.373 . S
C105 C104 1.396 . S
C105 H127 0.929 1_655 S
C106 O116 1.240 . S
C106 O117 1.289 1_545 S
C107 O118 1.258 1_455 S
C107 O119 1.256 . S
O108 La88 2.521 1_554 S
O108 C90 1.261 . S
O109 La88 2.628 1_554 S
O109 C90 1.243 . S
O110 La88 2.554 . S
O110 C97 1.240 . S
O111 La88 2.757 1_545 S
O111 La89 2.482 1_455 S
O111 C97 1.289 1_545 S
O112 La88 2.470 . S
O112 C98 1.258 1_455 S
O113 La89 2.503 1_565 S
O113 C98 1.256 . S
O114 La89 2.521 . S
O114 C99 1.261 . S
O115 La89 2.628 . S
O115 C99 1.243 . S
O116 La89 2.554 . S
O116 C106 1.240 . S
O117 La88 2.482 1_655 S
O117 La89 2.757 1_565 S
O117 C106 1.289 1_565 S
O118 La89 2.470 . S
O118 C107 1.258 1_655 S
O119 La88 2.503 1_545 S
O119 C107 1.256 . S
H120 C92 0.930 . S
H121 C93 0.930 . S
H122 C95 0.929 . S
H123 C96 0.929 1_655 S
H124 C101 0.930 . S
H125 C102 0.930 . S
H126 C104 0.929 . S
H127 C105 0.929 1_455 S
La128 C130 2.928 1_556 S
La128 O148 2.521 1_556 S
La128 O149 2.628 1_556 S
La128 O150 2.554 . S
La128 O151 2.757 . S
La128 O152 2.470 . S
La128 O157 2.482 1_545 S
La128 O159 2.503 . S
La129 C139 2.928 . S
La129 O151 2.482 1_565 S
La129 O153 2.503 . S
La129 O154 2.521 . S
La129 O155 2.628 . S
La129 O156 2.554 . S
La129 O157 2.757 . S
La129 O158 2.470 . S
C130 La128 2.928 1_554 S
C130 C131 1.503 . S
C130 O148 1.261 . S
C130 O149 1.243 . S
C131 C130 1.503 . S
C131 C132 1.394 . S
C131 C136 1.373 . S
C132 C131 1.394 . S
C132 C133 1.380 . S
C132 H160 0.930 . S
C133 C132 1.380 . S
C133 C134 1.376 . S
C133 H161 0.930 . S
C134 C133 1.376 . S
C134 C135 1.370 . S
C135 C134 1.370 . S
C135 C136 1.396 . S
C135 H162 0.953 . S
C136 C131 1.373 . S
C136 C135 1.396 . S
C136 H163 0.929 1_545 S
C137 O150 1.240 . S
C137 O151 1.289 . S
C138 O152 1.258 1_565 S
C138 O153 1.256 . S
C139 La129 2.928 . S
C139 C140 1.503 . S
C139 O154 1.261 . S
C139 O155 1.243 . S
C140 C139 1.503 . S
C140 C141 1.394 . S
C140 C145 1.373 . S
C141 C140 1.394 . S
C141 C142 1.380 . S
C141 H164 0.930 . S
C142 C141 1.380 . S
C142 C143 1.376 . S
C142 H165 0.930 . S
C143 C142 1.376 . S
C143 C144 1.370 . S
C144 C143 1.370 . S
C144 C145 1.396 . S
C144 H166 0.946 . S
C145 C140 1.373 . S
C145 C144 1.396 . S
C145 H167 0.929 1_565 S
C146 O156 1.240 . S
C146 O157 1.289 . S
C147 O158 1.258 1_545 S
C147 O159 1.256 . S
O148 La128 2.521 1_554 S
O148 C130 1.261 . S
O149 La128 2.628 1_554 S
O149 C130 1.243 . S
O150 La128 2.554 . S
O150 C137 1.240 . S
O151 La128 2.757 . S
O151 La129 2.482 1_545 S
O151 C137 1.289 . S
O152 La128 2.470 . S
O152 C138 1.258 1_545 S
O153 La129 2.503 . S
O153 C138 1.256 . S
O154 La129 2.521 . S
O154 C139 1.261 . S
O155 La129 2.628 . S
O155 C139 1.243 . S
O156 La129 2.554 . S
O156 C146 1.240 . S
O157 La128 2.482 1_565 S
O157 La129 2.757 . S
O157 C146 1.289 . S
O158 La129 2.470 . S
O158 C147 1.258 1_565 S
O159 La128 2.503 . S
O159 C147 1.256 . S
H160 C132 0.930 . S
H161 C133 0.930 . S
H162 C135 0.953 . S
H163 C136 0.929 1_565 S
H164 C141 0.930 . S
H165 C142 0.930 . S
H166 C144 0.946 . S
H167 C145 0.929 1_545 S
La168 C170 2.928 1_556 S
La168 O188 2.521 1_556 S
La168 O189 2.628 1_556 S
La168 O190 2.554 . S
La168 O191 2.757 . S
La168 O192 2.470 . S
La168 O197 2.482 . S
La168 O199 2.503 . S
La169 C179 2.928 . S
La169 O191 2.482 . S
La169 O193 2.503 . S
La169 O194 2.521 . S
La169 O195 2.628 . S
La169 O196 2.554 . S
La169 O197 2.757 . S
La169 O198 2.470 . S
C170 La168 2.928 1_554 S
C170 C171 1.503 . S
C170 O188 1.261 . S
C170 O189 1.243 . S
C171 C170 1.503 . S
C171 C172 1.394 . S
C171 C176 1.373 . S
C172 C171 1.394 . S
C172 C173 1.380 . S
C172 H200 0.930 . S
C173 C172 1.380 . S
C173 C174 1.376 . S
C173 H201 0.930 . S
C174 C173 1.376 . S
C174 C175 1.370 . S
C175 C174 1.370 . S
C175 C176 1.396 . S
C175 H202 0.929 . S
C176 C171 1.373 . S
C176 C175 1.396 . S
C176 H203 0.929 . S
C177 O190 1.240 . S
C177 O191 1.289 . S
C178 O192 1.258 . S
C178 O193 1.256 . S
C179 La169 2.928 . S
C179 C180 1.503 . S
C179 O194 1.261 . S
C179 O195 1.243 . S
C180 C179 1.503 . S
C180 C181 1.394 . S
C180 C185 1.373 . S
C181 C180 1.394 . S
C181 C182 1.380 . S
C181 H204 0.930 . S
C182 C181 1.380 . S
C182 C183 1.376 . S
C182 H205 0.930 . S
C183 C182 1.376 . S
C183 C184 1.370 . S
C184 C183 1.370 . S
C184 C185 1.396 . S
C184 H206 0.929 . S
C185 C180 1.373 . S
C185 C184 1.396 . S
C185 H207 0.929 . S
C186 O196 1.240 . S
C186 O197 1.289 . S
C187 O198 1.258 . S
C187 O199 1.256 . S
O188 La168 2.521 1_554 S
O188 C170 1.261 . S
O189 La168 2.628 1_554 S
O189 C170 1.243 . S
O190 La168 2.554 . S
O190 C177 1.240 . S
O191 La168 2.757 . S
O191 La169 2.482 . S
O191 C177 1.289 . S
O192 La168 2.470 . S
O192 C178 1.258 . S
O193 La169 2.503 . S
O193 C178 1.256 . S
O194 La169 2.521 . S
O194 C179 1.261 . S
O195 La169 2.628 . S
O195 C179 1.243 . S
O196 La169 2.554 . S
O196 C186 1.240 . S
O197 La168 2.482 . S
O197 La169 2.757 . S
O197 C186 1.289 . S
O198 La169 2.470 . S
O198 C187 1.258 . S
O199 La168 2.503 . S
O199 C187 1.256 . S
H200 C172 0.930 . S
H201 C173 0.930 . S
H202 C175 0.929 . S
H203 C176 0.929 . S
H204 C181 0.930 . S
H205 C182 0.930 . S
H206 C184 0.929 . S
H207 C185 0.929 . S
La208 C210 2.928 1_556 S
La208 O228 2.521 1_556 S
La208 O229 2.628 1_556 S
La208 O230 2.554 . S
La208 O231 2.757 1_655 S
La208 O232 2.470 . S
La208 O237 2.482 . S
La208 O239 2.503 1_655 S
La209 C219 2.928 . S
La209 O231 2.482 . S
La209 O233 2.503 1_455 S
La209 O234 2.521 . S
La209 O235 2.628 . S
La209 O236 2.554 . S
La209 O237 2.757 1_455 S
La209 O238 2.470 . S
C210 La208 2.928 1_554 S
C210 C211 1.503 . S
C210 O228 1.261 . S
C210 O229 1.243 . S
C211 C210 1.503 . S
C211 C212 1.394 . S
C211 C216 1.373 . S
C212 C211 1.394 . S
C212 C213 1.380 . S
C212 H240 0.930 . S
C213 C212 1.380 . S
C213 C214 1.376 . S
C213 H241 0.930 . S
C214 C213 1.376 . S
C214 C215 1.370 . S
C215 C214 1.370 . S
C215 C216 1.396 . S
C215 H242 0.929 . S
C216 C211 1.373 . S
C216 C215 1.396 . S
C216 H243 0.929 . S
C217 O230 1.247 . S
C217 O231 1.285 1_655 S
C218 O232 1.258 . S
C218 O233 1.256 . S
C219 La209 2.928 . S
C219 C220 1.503 . S
C219 O234 1.261 . S
C219 O235 1.243 . S
C220 C219 1.503 . S
C220 C221 1.394 . S
C220 C225 1.373 . S
C221 C220 1.394 . S
C221 C222 1.380 . S
C221 H244 0.930 . S
C222 C221 1.380 . S
C222 C223 1.376 . S
C222 H245 0.930 . S
C223 C222 1.376 . S
C223 C224 1.370 . S
C224 C223 1.370 . S
C224 C225 1.396 . S
C224 H246 0.929 . S
C225 C220 1.373 . S
C225 C224 1.396 . S
C225 H247 0.929 . S
C226 O236 1.251 . S
C226 O237 1.283 1_455 S
C227 O238 1.258 . S
C227 O239 1.256 . S
O228 La208 2.521 1_554 S
O228 C210 1.261 . S
O229 La208 2.628 1_554 S
O229 C210 1.243 . S
O230 La208 2.554 . S
O230 C217 1.247 . S
O231 La208 2.757 1_455 S
O231 La209 2.482 . S
O231 C217 1.285 1_455 S
O232 La208 2.470 . S
O232 C218 1.258 . S
O233 La209 2.503 1_655 S
O233 C218 1.256 . S
O234 La209 2.521 . S
O234 C219 1.261 . S
O235 La209 2.628 . S
O235 C219 1.243 . S
O236 La209 2.554 . S
O236 C226 1.251 . S
O237 La208 2.482 . S
O237 La209 2.757 1_655 S
O237 C226 1.283 1_655 S
O238 La209 2.470 . S
O238 C227 1.258 . S
O239 La208 2.503 1_455 S
O239 C227 1.256 . S
H240 C212 0.930 . S
H241 C213 0.930 . S
H242 C215 0.929 . S
H243 C216 0.929 . S
H244 C221 0.930 . S
H245 C222 0.930 . S
H246 C224 0.929 . S
H247 C225 0.929 . S
C248 C249 1.394 . S
C248 H252 0.950 . S
C248 C257 1.390 . S
C249 C248 1.394 . S
C249 C251 1.381 1_545 S
H250 C257 0.950 . S
C251 C249 1.381 1_565 S
C251 C253 1.390 . S
C251 H255 0.950 . S
H252 C248 0.950 . S
C253 C251 1.390 . S
C253 C254 1.367 1_565 S
C253 H256 0.950 . S
C254 C253 1.367 1_545 S
C254 C257 1.407 . S
H255 C251 0.950 . S
H256 C253 0.950 . S
C257 C248 1.390 . S
C257 H250 0.950 . S
C257 C254 1.407 . S
C258 C259 1.387 . S
C258 H262 0.950 . S
C258 C267 1.390 . S
C259 C258 1.387 . S
C259 C261 1.387 . S
H260 C267 0.950 . S
C261 C259 1.387 . S
C261 C263 1.390 . S
C261 H265 0.950 . S
H262 C258 0.950 . S
C263 C261 1.390 . S
C263 C264 1.387 . S
C263 H266 0.950 . S
C264 C263 1.387 . S
C264 C267 1.387 . S
H265 C261 0.950 . S
H266 C263 0.950 . S
C267 C258 1.390 . S
C267 H260 0.950 . S
C267 C264 1.387 . S
C268 C269 1.387 . S
C268 H272 0.950 . S
C268 C277 1.390 . S
C269 C268 1.387 . S
C269 C271 1.387 . S
H270 C277 0.950 . S
C271 C269 1.387 . S
C271 C273 1.390 . S
C271 H275 0.950 . S
H272 C268 0.950 . S
C273 C271 1.390 . S
C273 C274 1.387 . S
C273 H276 0.950 . S
C274 C273 1.387 . S
C274 C277 1.387 . S
H275 C271 0.950 . S
H276 C273 0.950 . S
C277 C268 1.390 . S
C277 H270 0.950 . S
C277 C274 1.387 . S
C278 C279 1.410 . S
C278 H282 0.950 . S
C278 C287 1.390 . S
C279 C278 1.410 . S
C279 C281 1.366 1_455 S
H280 C287 0.950 . S
C281 C279 1.366 1_655 S
C281 C283 1.390 . S
C281 H285 0.950 . S
H282 C278 0.950 . S
C283 C281 1.390 . S
C283 C284 1.387 1_655 S
C283 H286 0.950 . S
C284 C283 1.387 1_455 S
C284 C287 1.387 . S
H285 C281 0.950 . S
H286 C283 0.950 . S
C287 C278 1.390 . S
C287 H280 0.950 . S
C287 C284 1.387 . S
C288 C289 1.387 1_545 S
C288 H292 0.950 . S
C288 C297 1.390 . S
C289 C288 1.387 1_565 S
C289 C291 1.388 . S
H290 C297 0.950 . S
C291 C289 1.388 . S
C291 C293 1.390 . S
C291 H295 0.950 . S
H292 C288 0.950 . S
C293 C291 1.390 . S
C293 C294 1.400 . S
C293 H296 0.950 . S
C294 C293 1.400 . S
C294 C297 1.375 1_565 S
H295 C291 0.950 . S
H296 C293 0.950 . S
C297 C288 1.390 . S
C297 H290 0.950 . S
C297 C294 1.375 1_545 S
C298 C299 1.387 . S
C298 H302 0.950 . S
C298 C307 1.390 . S
C299 C298 1.387 . S
C299 C301 1.387 . S
H300 C307 0.950 . S
C301 C299 1.387 . S
C301 C303 1.390 . S
C301 H305 0.950 . S
H302 C298 0.950 . S
C303 C301 1.390 . S
C303 C304 1.387 . S
C303 H306 0.950 . S
C304 C303 1.387 . S
C304 C307 1.387 . S
H305 C301 0.950 . S
H306 C303 0.950 . S
C307 C298 1.390 . S
C307 H300 0.950 . S
C307 C304 1.387 . S
C308 C309 1.387 . S
C308 H312 0.950 . S
C308 C317 1.390 . S
C309 C308 1.387 . S
C309 C311 1.387 . S
H310 C317 0.950 . S
C311 C309 1.387 . S
C311 C313 1.390 . S
C311 H315 0.950 . S
H312 C308 0.950 . S
C313 C311 1.390 . S
C313 C314 1.387 . S
C313 H316 0.950 . S
C314 C313 1.387 . S
C314 C317 1.387 . S
H315 C311 0.950 . S
H316 C313 0.950 . S
C317 C308 1.390 . S
C317 H310 0.950 . S
C317 C314 1.387 . S
C318 C319 1.410 . S
C318 H322 0.950 . S
C318 C327 1.390 . S
C319 C318 1.410 . S
C319 C321 1.366 1_655 S
H320 C327 0.950 . S
C321 C319 1.366 1_455 S
C321 C323 1.390 . S
C321 H325 0.950 . S
H322 C318 0.950 . S
C323 C321 1.390 . S
C323 C324 1.387 1_455 S
C323 H326 0.950 . S
C324 C323 1.387 1_655 S
C324 C327 1.387 . S
H325 C321 0.950 . S
H326 C323 0.950 . S
C327 C318 1.390 . S
C327 H320 0.950 . S
C327 C324 1.387 . S
C328 C329 1.387 . S
C328 H332 0.950 . S
C328 C337 1.390 . S
C329 C328 1.387 . S
C329 C331 1.387 . S
H330 C337 0.950 . S
C331 C329 1.387 . S
C331 C333 1.390 . S
C331 H335 0.950 1_655 S
H332 C328 0.950 . S
C333 C331 1.390 . S
C333 C334 1.387 . S
C333 H336 0.950 . S
C334 C333 1.387 . S
C334 C337 1.387 . S
H335 C331 0.950 1_455 S
H336 C333 0.950 . S
C337 C328 1.390 . S
C337 H330 0.950 . S
C337 C334 1.387 . S
C338 C339 1.387 . S
C338 H342 0.950 . S
C338 C347 1.390 . S
C339 C338 1.387 . S
C339 C341 1.387 . S
H340 C347 0.950 . S
C341 C339 1.387 . S
C341 C343 1.390 . S
C341 H345 0.950 1_565 S
H342 C338 0.950 . S
C343 C341 1.390 . S
C343 C344 1.387 . S
C343 H346 0.950 . S
C344 C343 1.387 . S
C344 C347 1.387 . S
H345 C341 0.950 1_545 S
H346 C343 0.950 . S
C347 C338 1.390 . S
C347 H340 0.950 . S
C347 C344 1.387 . S
C348 C349 1.387 . S
C348 H352 0.950 . S
C348 C357 1.390 . S
C349 C348 1.387 . S
C349 C351 1.387 . S
H350 C357 0.950 . S
C351 C349 1.387 . S
C351 C353 1.390 . S
C351 H355 0.950 . S
H352 C348 0.950 . S
C353 C351 1.390 . S
C353 C354 1.387 . S
C353 H356 0.950 . S
C354 C353 1.387 . S
C354 C357 1.387 . S
H355 C351 0.950 . S
H356 C353 0.950 . S
C357 C348 1.390 . S
C357 H350 0.950 . S
C357 C354 1.387 . S
C358 C359 1.387 . S
C358 H362 0.950 . S
C358 C367 1.390 . S
C359 C358 1.387 . S
C359 C361 1.387 . S
H360 C367 0.950 . S
C361 C359 1.387 . S
C361 C363 1.390 . S
C361 H365 0.950 . S
H362 C358 0.950 . S
C363 C361 1.390 . S
C363 C364 1.387 . S
C363 H366 0.950 . S
C364 C363 1.387 . S
C364 C367 1.387 . S
H365 C361 0.950 . S
H366 C363 0.950 . S
C367 C358 1.390 . S
C367 H360 0.950 . S
C367 C364 1.387 . S
C368 C369 1.387 . S
C368 H372 0.950 . S
C368 C377 1.390 . S
C369 C368 1.387 . S
C369 C371 1.387 . S
H370 C377 0.950 . S
C371 C369 1.387 . S
C371 C373 1.390 . S
C371 H375 0.950 . S
H372 C368 0.950 . S
C373 C371 1.390 . S
C373 C374 1.387 . S
C373 H376 0.950 . S
C374 C373 1.387 . S
C374 C377 1.387 . S
H375 C371 0.950 . S
H376 C373 0.950 . S
C377 C368 1.390 . S
C377 H370 0.950 . S
C377 C374 1.387 . S
C378 C379 1.387 1_565 S
C378 H382 0.950 . S
C378 C387 1.390 1_565 S
C379 C378 1.387 1_545 S
C379 C381 1.387 . S
H380 C387 0.950 . S
C381 C379 1.387 . S
C381 C383 1.390 . S
C381 H385 0.950 . S
H382 C378 0.950 . S
C383 C381 1.390 . S
C383 C384 1.387 . S
C383 H386 0.950 . S
C384 C383 1.387 . S
C384 C387 1.387 . S
H385 C381 0.950 . S
H386 C383 0.950 . S
C387 C378 1.390 1_545 S
C387 H380 0.950 . S
C387 C384 1.387 . S
C388 C389 1.387 . S
C388 H392 0.950 . S
C388 C397 1.390 . S
C389 C388 1.387 . S
C389 C391 1.387 . S
H390 C397 0.950 . S
C391 C389 1.387 . S
C391 C393 1.390 . S
C391 H395 0.950 . S
H392 C388 0.950 . S
C393 C391 1.390 . S
C393 C394 1.387 . S
C393 H396 0.950 . S
C394 C393 1.387 . S
C394 C397 1.387 . S
H395 C391 0.950 . S
H396 C393 0.950 . S
C397 C388 1.390 . S
C397 H390 0.950 . S
C397 C394 1.387 . S
C398 C399 1.387 . S
C398 H402 0.950 . S
C398 C407 1.390 . S
C399 C398 1.387 . S
C399 C401 1.387 . S
H400 C407 0.950 . S
C401 C399 1.387 . S
C401 C403 1.390 . S
C401 H405 0.950 . S
H402 C398 0.950 . S
C403 C401 1.390 . S
C403 C404 1.387 . S
C403 H406 0.950 . S
C404 C403 1.387 . S
C404 C407 1.387 . S
H405 C401 0.950 . S
H406 C403 0.950 . S
C407 C398 1.390 . S
C407 H400 0.950 . S
C407 C404 1.387 . S
C408 C409 1.387 . S
C408 H412 0.950 . S
C408 C417 1.390 . S
C409 C408 1.387 . S
C409 C411 1.387 . S
H410 C417 0.950 . S
C411 C409 1.387 . S
C411 C413 1.390 . S
C411 H415 0.950 1_556 S
H412 C408 0.950 . S
C413 C411 1.390 . S
C413 C414 1.387 . S
C413 H416 0.950 1_556 S
C414 C413 1.387 . S
C414 C417 1.387 . S
H415 C411 0.950 1_554 S
H416 C413 0.950 1_554 S
C417 C408 1.390 . S
C417 H410 0.950 . S
C417 C414 1.387 . S
C418 C419 1.387 1_565 S
C418 H422 0.950 1_556 S
C418 C427 1.390 . S
C419 C418 1.387 1_545 S
C419 C421 1.387 . S
H420 C427 0.950 1_554 S
C421 C419 1.387 . S
C421 C423 1.390 . S
C421 H425 0.950 . S
H422 C418 0.950 1_554 S
C423 C421 1.390 . S
C423 C424 1.387 . S
C423 H426 0.950 . S
C424 C423 1.387 . S
C424 C427 1.387 1_545 S
H425 C421 0.950 . S
H426 C423 0.950 . S
C427 C418 1.390 . S
C427 H420 0.950 1_556 S
C427 C424 1.387 1_565 S
C428 C429 1.387 . S
C428 H432 0.950 . S
C428 C437 1.390 . S
C429 C428 1.387 . S
C429 C431 1.387 . S
H430 C437 0.950 . S
C431 C429 1.387 . S
C431 C433 1.390 . S
C431 H435 0.950 1_556 S
H432 C428 0.950 . S
C433 C431 1.390 . S
C433 C434 1.387 . S
C433 H436 0.950 1_556 S
C434 C433 1.387 . S
C434 C437 1.387 . S
H435 C431 0.950 1_554 S
H436 C433 0.950 1_554 S
C437 C428 1.390 . S
C437 H430 0.950 . S
C437 C434 1.387 . S
C438 C439 1.387 . S
C438 H442 0.950 1_556 S
C438 C447 1.390 . S
C439 C438 1.387 . S
C439 C441 1.387 . S
H440 C447 0.950 1_554 S
C441 C439 1.387 . S
C441 C443 1.390 . S
C441 H445 0.950 . S
H442 C438 0.950 1_554 S
C443 C441 1.390 . S
C443 C444 1.387 . S
C443 H446 0.950 . S
C444 C443 1.387 . S
C444 C447 1.387 . S
H445 C441 0.950 . S
H446 C443 0.950 . S
C447 C438 1.390 . S
C447 H440 0.950 1_556 S
C447 C444 1.387 . S
C448 C449 1.387 . S
C448 H452 0.950 . S
C448 C457 1.390 . S
C449 C448 1.387 . S
C449 C451 1.387 1_655 S
H450 C457 0.950 . S
C451 C449 1.387 1_455 S
C451 C453 1.390 1_455 S
C451 H455 0.950 . S
H452 C448 0.950 . S
C453 C451 1.390 1_655 S
C453 C454 1.388 . S
C453 H456 0.949 1_655 S
C454 C453 1.388 . S
C454 C457 1.387 . S
H455 C451 0.950 . S
H456 C453 0.949 1_455 S
C457 C448 1.390 . S
C457 H450 0.950 . S
C457 C454 1.387 . S
C458 C459 1.387 . S
C458 H462 0.950 . S
C458 C467 1.390 . S
C459 C458 1.387 . S
C459 C461 1.387 1_565 S
H460 C467 0.950 . S
C461 C459 1.387 1_545 S
C461 C463 1.390 . S
C461 H465 0.950 . S
H462 C458 0.950 . S
C463 C461 1.390 . S
C463 C464 1.387 1_545 S
C463 H466 0.950 . S
C464 C463 1.387 1_565 S
C464 C467 1.387 . S
H465 C461 0.950 . S
H466 C463 0.950 . S
C467 C458 1.390 . S
C467 H460 0.950 . S
C467 C464 1.387 . S
C468 C469 1.387 . S
C468 H472 0.950 . S
C468 C477 1.390 . S
C469 C468 1.387 . S
C469 C471 1.387 . S
H470 C477 0.950 . S
C471 C469 1.387 . S
C471 C473 1.390 . S
C471 H475 0.950 . S
H472 C468 0.950 . S
C473 C471 1.390 . S
C473 C474 1.387 . S
C473 H476 0.950 . S
C474 C473 1.387 . S
C474 C477 1.387 . S
H475 C471 0.950 . S
H476 C473 0.950 . S
C477 C468 1.390 . S
C477 H470 0.950 . S
C477 C474 1.387 . S
C478 C479 1.387 . S
C478 H482 0.950 . S
C478 C487 1.390 . S
C479 C478 1.387 . S
C479 C481 1.387 . S
H480 C487 0.950 . S
C481 C479 1.387 . S
C481 C483 1.390 . S
C481 H485 0.950 . S
H482 C478 0.950 . S
C483 C481 1.390 . S
C483 C484 1.387 . S
C483 H486 0.950 . S
C484 C483 1.387 . S
C484 C487 1.387 . S
H485 C481 0.950 . S
H486 C483 0.950 . S
C487 C478 1.390 . S
C487 H480 0.950 . S
C487 C484 1.387 . S
C249 C76 1.952 1_545 S
C254 C97 2.214 1_545 S
C264 C137 2.233 . S
C259 C87 1.974 . S
C274 C177 2.243 . S
C269 C54 1.988 . S
C284 C217 2.226 1_455 S
C279 C65 1.966 1_455 S
C294 C106 2.216 1_564 S
C289 C32 1.956 . S
C299 C43 1.974 . S
C304 C146 2.235 1_554 S
C309 C10 1.983 . S
C314 C186 2.243 1_554 S
C319 C21 1.970 . S
C324 C226 2.226 1_654 S
C334 C103 0.845 . S
C329 C60 0.854 1_655 S
C344 C143 0.834 . S
C339 C71 0.845 1_565 S
C354 C183 0.824 . S
C349 C82 0.836 . S
C359 C49 0.842 . S
C364 C223 0.822 . S
C369 C16 0.848 . S
C374 C94 0.839 . S
C384 C134 0.836 . S
C379 C27 0.847 . S
C394 C174 0.832 . S
C389 C38 0.838 . S
C399 C5 0.835 . S
C404 C214 0.828 . S
C409 C59 2.261 . S
C414 C107 2.586 . S
C419 C70 2.220 . S
C424 C147 2.547 . S
C434 C187 2.535 . S
C429 C81 2.208 . S
C444 C227 2.574 . S
C439 C48 2.242 . S
C449 C15 2.264 1_655 S
C454 C98 2.592 . S
C464 C138 2.548 . S
C459 C26 2.223 1_565 S
C474 C178 2.533 . S
C469 C37 2.220 . S
C479 C4 2.258 . S
C484 C218 2.578 . S
