# Generated by pormake.
# Topology zzz, (3,6)-cn, num edge types: 1
# Building blocks:
#     Node 0, Type 0, BuildingBlock: QEWDON_clean_linker_0, # of connection points: 3
#     Node 1, Type 0, BuildingBlock: QEWDON_clean_linker_0, # of connection points: 3
#     Node 2, Type 0, BuildingBlock: QEWDON_clean_linker_0, # of connection points: 3
#     Node 3, Type 0, BuildingBlock: QEWDON_clean_linker_0, # of connection points: 3
#     Node 4, Type 0, BuildingBlock: QEWDON_clean_linker_0, # of connection points: 3
#     Node 5, Type 0, BuildingBlock: QEWDON_clean_linker_0, # of connection points: 3
#     Node 6, Type 0, BuildingBlock: QEWDON_clean_linker_0, # of connection points: 3
#     Node 7, Type 0, BuildingBlock: QEWDON_clean_linker_0, # of connection points: 3
#     Node 8, Type 1, BuildingBlock: BETFEN_clean_sbu_0, # of connection points: 6
#     Node 9, Type 1, BuildingBlock: BETFEN_clean_sbu_0, # of connection points: 6
#     Node 10, Type 1, BuildingBlock: BETFEN_clean_sbu_0, # of connection points: 6
#     Node 11, Type 1, BuildingBlock: BETFEN_clean_sbu_0, # of connection points: 6
#     Edge 12, Type (0, 1), BuildingBlock: CIFDUS_clean_linker_0, # of connection points: 2
#     Edge 13, Type (0, 1), BuildingBlock: CIFDUS_clean_linker_0, # of connection points: 2
#     Edge 14, Type (0, 1), BuildingBlock: CIFDUS_clean_linker_0, # of connection points: 2
#     Edge 15, Type (0, 1), BuildingBlock: CIFDUS_clean_linker_0, # of connection points: 2
#     Edge 16, Type (0, 1), BuildingBlock: CIFDUS_clean_linker_0, # of connection points: 2
#     Edge 17, Type (0, 1), BuildingBlock: CIFDUS_clean_linker_0, # of connection points: 2
#     Edge 18, Type (0, 1), BuildingBlock: CIFDUS_clean_linker_0, # of connection points: 2
#     Edge 19, Type (0, 1), BuildingBlock: CIFDUS_clean_linker_0, # of connection points: 2
#     Edge 20, Type (0, 1), BuildingBlock: CIFDUS_clean_linker_0, # of connection points: 2
#     Edge 21, Type (0, 1), BuildingBlock: CIFDUS_clean_linker_0, # of connection points: 2
#     Edge 22, Type (0, 1), BuildingBlock: CIFDUS_clean_linker_0, # of connection points: 2
#     Edge 23, Type (0, 1), BuildingBlock: CIFDUS_clean_linker_0, # of connection points: 2
#     Edge 24, Type (0, 1), BuildingBlock: CIFDUS_clean_linker_0, # of connection points: 2
#     Edge 25, Type (0, 1), BuildingBlock: CIFDUS_clean_linker_0, # of connection points: 2
#     Edge 26, Type (0, 1), BuildingBlock: CIFDUS_clean_linker_0, # of connection points: 2
#     Edge 27, Type (0, 1), BuildingBlock: CIFDUS_clean_linker_0, # of connection points: 2
#     Edge 28, Type (0, 1), BuildingBlock: CIFDUS_clean_linker_0, # of connection points: 2
#     Edge 29, Type (0, 1), BuildingBlock: CIFDUS_clean_linker_0, # of connection points: 2
#     Edge 30, Type (0, 1), BuildingBlock: CIFDUS_clean_linker_0, # of connection points: 2
#     Edge 31, Type (0, 1), BuildingBlock: CIFDUS_clean_linker_0, # of connection points: 2
#     Edge 32, Type (0, 1), BuildingBlock: CIFDUS_clean_linker_0, # of connection points: 2
#     Edge 33, Type (0, 1), BuildingBlock: CIFDUS_clean_linker_0, # of connection points: 2
#     Edge 34, Type (0, 1), BuildingBlock: CIFDUS_clean_linker_0, # of connection points: 2
#     Edge 35, Type (0, 1), BuildingBlock: CIFDUS_clean_linker_0, # of connection points: 2
# Relax obj value: 0.202
# Max RMSD: 0.182
# Mean RMSD: 0.124
data_MOF--net-zzz--node1-BETFEN_clean_sbu_0--node2-QEWDON_clean_linker_0--edge1-CIFDUS_clean_linker_0
_symmetry_space_group_name_H-M    P1
_symmetry_Int_Tables_number       1
_symmetry_cell_setting            triclinic
loop_
_symmetry_equiv_pos_as_xyz
'x, y, z'
_cell_length_a     49.670052
_cell_length_b     49.66023
_cell_length_c     11.40361
_cell_angle_alpha  89.959014
_cell_angle_beta   89.79422
_cell_angle_gamma 90.019574
loop_
_atom_site_label
_atom_site_type_symbol
_atom_site_fract_x
_atom_site_fract_y
_atom_site_fract_z
_atom_type_partial_charge
H0 H 0.75048 0.47897 0.27373 0.0
C1 C 0.76718 0.48926 0.31491 0.0
C2 C 0.79199 0.47601 0.32306 0.0
C3 C 0.76387 0.51534 0.36214 0.0
H4 H 0.83327 0.47902 0.37879 0.0
C5 C 0.8138 0.48894 0.37641 0.0
C6 C 0.81162 0.51499 0.42069 0.0
C7 C 0.78655 0.52831 0.41381 0.0
C8 C 0.73642 0.52802 0.36328 0.0
H9 H 0.78476 0.54854 0.4484 0.0
C10 C 0.718 0.52467 0.26924 0.0
C11 C 0.69132 0.53471 0.27682 0.0
C12 C 0.72775 0.5421 0.46344 0.0
H13 H 0.74095 0.54468 0.53795 0.0
C14 C 0.70159 0.55221 0.47089 0.0
H15 H 0.72427 0.51406 0.19082 0.0
C16 C 0.6835 0.54846 0.37904 0.0
H17 H 0.66342 0.55678 0.38733 0.0
H18 H 0.69522 0.56287 0.54897 0.0
H19 H 0.05425 0.75095 0.25872 0.0
C20 C 0.04645 0.76693 0.31361 0.0
C21 C 0.05701 0.7928 0.29912 0.0
C22 C 0.02647 0.76175 0.3993 0.0
H23 H 0.05564 0.83405 0.35555 0.0
C24 C 0.0477 0.81391 0.36943 0.0
C25 C 0.02776 0.80999 0.45414 0.0
C26 C 1.01724 0.78372 0.47008 0.0
C27 C 1.016 0.73341 0.41514 0.0
H28 H 1.0015 0.78072 0.53464 0.0
C29 C 1.01512 0.71467 0.32061 0.0
C30 C 1.00697 0.68753 0.33789 0.0
C31 C 1.00802 0.7244 0.5269 0.0
H32 H 1.00892 0.73759 0.60228 0.0
C33 C 0.99944 0.69793 0.54423 0.0
H34 H 1.021 0.72106 0.23356 0.0
C35 C 0.99892 0.67968 0.45123 0.0
H36 H 0.99185 0.65943 0.46834 0.0
H37 H 0.99332 0.69141 0.63094 0.0
H38 H 0.7824 0.06632 0.27478 0.0
C39 C 0.76561 0.05651 0.31774 0.0
C40 C 0.74194 0.07142 0.33578 0.0
C41 C 0.76739 0.02937 0.35537 0.0
H42 H 0.70143 0.07065 0.40391 0.0
C43 C 0.72004 0.05943 0.39324 0.0
C44 C 0.7205 0.03259 0.42807 0.0
C45 C 0.744 1.01735 0.4071 0.0
C46 C 0.79355 1.0139 0.3437 0.0
H47 H 0.74381 0.99629 0.43129 0.0
C48 C 0.81366 1.02034 0.25826 0.0
C49 C 0.83815 1.00566 0.25202 0.0
C50 C 0.79908 0.99279 0.42278 0.0
H51 H 0.78528 0.98771 0.49293 0.0
C52 C 0.82294 0.97814 0.41556 0.0
H53 H 0.81034 0.03626 0.19522 0.0
C54 C 0.84224 0.9844 0.33111 0.0
H55 H 0.8608 0.97295 0.32956 0.0
H56 H 0.8267 0.96201 0.4773 0.0
H57 H 0.47404 0.79056 0.27186 0.0
C58 C 0.48294 0.77421 0.3209 0.0
C59 C 0.47155 0.74855 0.3098 0.0
C60 C 0.50527 0.77852 0.39544 0.0
H61 H 0.47333 0.70707 0.36213 0.0
C62 C 0.48213 0.72694 0.37302 0.0
C63 C 0.50449 0.72994 0.44526 0.0
C64 C 0.51605 0.75582 0.45706 0.0
C65 C 0.51697 0.80651 0.40916 0.0
H66 H 0.53379 0.75783 0.51104 0.0
C67 C 0.51417 0.82684 0.32142 0.0
C68 C 0.52479 0.85308 0.33781 0.0
C69 C 0.53053 0.81346 0.51319 0.0
H70 H 0.53241 0.79934 0.5849 0.0
C71 C 0.54142 0.83911 0.52853 0.0
H72 H 0.50425 0.82244 0.23939 0.0
C73 C 0.53866 0.85871 0.44191 0.0
H74 H 0.54686 0.87859 0.45774 0.0
H75 H 0.55175 0.84397 0.60923 0.0
H76 H 0.28511 0.55503 0.23974 0.0
C77 C 0.26934 0.54802 0.18205 0.0
C78 C 0.24319 0.55745 0.20107 0.0
C79 C 0.27505 0.53029 0.08832 0.0
H80 H 0.20203 0.55646 0.14422 0.0
C81 C 0.22234 0.54934 0.12712 0.0
C82 C 0.22683 0.53164 0.03417 0.0
C83 C 0.25334 0.52217 0.01404 0.0
C84 C 0.30365 0.52108 0.0678 0.0
H85 H 0.25672 0.50808 0.94319 0.0
C86 C 0.32256 0.51884 0.16106 0.0
C87 C 0.34991 0.51211 0.1398 0.0
C88 C 0.31274 0.51575 0.95318 0.0
H89 H 0.29944 0.51779 0.87878 0.0
C90 C 0.33944 0.50844 0.93189 0.0
H91 H 0.31616 0.52262 0.25028 0.0
C92 C 0.35784 0.50667 0.02371 0.0
H93 H 0.37831 0.50076 0.00347 0.0
H94 H 0.34601 0.50435 0.84302 0.0
H95 H 0.06564 0.28837 0.24498 0.0
C96 C 0.05889 0.27224 0.18875 0.0
C97 C 0.06883 0.24658 0.2117 0.0
C98 C 0.03978 0.27665 0.09944 0.0
H99 H 0.06773 0.20499 0.16422 0.0
C100 C 0.06135 0.22506 0.13957 0.0
C101 C 0.04365 0.22821 0.0452 0.0
C102 C 0.03233 0.25421 0.02712 0.0
C103 C 0.02741 0.30442 0.08642 0.0
H104 H 1.01752 0.25669 0.95877 0.0
C105 C 0.02654 0.32305 0.1817 0.0
C106 C 1.01615 0.34955 0.16918 0.0
C107 C 1.01694 0.31292 0.9782 0.0
H108 H 1.0176 0.30003 0.9019 0.0
C109 C 1.00583 0.33859 0.96564 0.0
H110 H 0.03411 0.31708 0.26613 0.0
C111 C 1.00538 0.35665 0.05946 0.0
H112 H 0.99629 0.37613 0.0453 0.0
H113 H 0.99767 0.34465 0.88177 0.0
H114 H 0.24912 1.00203 0.34087 0.0
C115 C 0.26492 1.00878 0.28201 0.0
C116 C 0.29111 1.01047 0.32468 0.0
C117 C 0.25943 1.01385 0.16287 0.0
H118 H 0.33239 1.01846 0.28497 0.0
C119 C 0.31223 1.01731 0.24908 0.0
C120 C 0.3084 1.01963 0.12776 0.0
C121 C 0.28158 1.01888 0.08514 0.0
C122 C 0.23098 1.01025 0.12062 0.0
H123 H 0.27813 1.02127 0.99207 0.0
C124 C 0.20848 1.01663 0.19339 0.0
C125 C 0.1818 1.00951 0.16119 0.0
C126 C 0.22613 0.99785 0.01215 0.0
H127 H 0.24258 0.99213 0.95488 0.0
C128 C 0.20001 0.99121 0.97852 0.0
H129 H 0.21189 0.02705 0.27528 0.0
C130 C 0.1782 0.9965 0.05245 0.0
H131 H 0.15858 0.98964 0.02448 0.0
H132 H 0.1967 0.98111 0.89571 0.0
H133 H 0.55551 0.25417 0.23321 0.0
C134 C 0.5459 0.2708 0.1887 0.0
C135 C 0.56018 0.29504 0.17813 0.0
C136 C 0.51973 0.26823 0.14126 0.0
H137 H 0.55966 0.33574 0.11328 0.0
C138 C 0.54873 0.31683 0.11864 0.0
C139 C 0.52272 0.31558 0.07397 0.0
C140 C 0.508 0.29139 0.08676 0.0
C141 C 0.50518 0.24142 0.14586 0.0
H142 H 0.48754 0.29088 0.05457 0.0
C143 C 0.51082 0.22134 0.2322 0.0
C144 C 0.49741 0.19609 0.23138 0.0
C145 C 0.48602 0.23519 0.05912 0.0
H146 H 0.48166 0.24903 0.9885 0.0
C147 C 0.47257 0.21055 0.05925 0.0
H148 H 0.52513 0.22525 0.30136 0.0
C149 C 0.47812 0.19123 0.1443 0.0
H150 H 0.46768 0.17209 0.14028 0.0
H151 H 0.45797 0.20623 0.99156 0.0
Pr152 Pr 0.03025 1.01149 0.84308 0.0
Pr153 Pr 1.00321 0.02822 0.64653 0.0
C154 C 0.05211 0.98701 0.03038 0.0
C155 C 0.07082 0.96435 0.03863 0.0
C156 C 0.07898 0.95078 0.93656 0.0
C157 C 0.09388 0.92702 0.94462 0.0
C158 C 0.10083 0.91656 0.05495 0.0
C159 C 0.09437 0.93151 0.15635 0.0
C160 C 0.0794 0.95521 0.14814 0.0
C161 C 0.06755 0.02444 0.66411 0.0
C162 C 1.01097 0.96374 0.6511 0.0
C163 C 0.9899 0.05935 0.46663 0.0
C164 C 1.00358 0.08548 0.45322 0.0
C165 C 0.98848 0.10922 0.4466 0.0
C166 C 1.00062 0.13407 0.4696 0.0
C167 C 0.02797 0.13558 0.50251 0.0
C168 C 0.04312 0.11175 0.50553 0.0
C169 C 0.03123 0.08713 0.47903 0.0
C170 C 0.96599 1.01216 0.81742 0.0
C171 C 0.02329 0.07502 0.83247 0.0
O172 O 0.02816 0.98111 0.99073 0.0
O173 O 0.06206 1.00884 0.98392 0.0
O174 O 0.04625 1.01096 0.64976 0.0
O175 O 0.0695 0.03225 0.77183 0.0
O176 O 1.00492 0.9839 0.58095 0.0
O177 O 1.01915 0.96878 0.75916 0.0
O178 O 1.00506 0.03807 0.45229 0.0
O179 O 0.97469 0.05775 0.56 0.0
O180 O 0.98623 0.02705 0.83808 0.0
O181 O 0.96511 1.0047 0.70846 0.0
O182 O 0.0228 0.05552 0.91013 0.0
O183 O 0.02176 0.06866 0.72114 0.0
H184 H 0.07275 0.9579 0.851 0.0
H185 H 0.09865 0.91605 0.86514 0.0
H186 H 0.09902 0.92388 0.24292 0.0
H187 H 0.07342 0.96565 0.22751 0.0
H188 H 0.96708 0.10844 0.42897 0.0
H189 H 0.98843 0.15204 0.46203 0.0
H190 H 0.06406 0.11187 0.53147 0.0
H191 H 0.04337 0.06913 0.48785 0.0
Pr192 Pr 0.52123 0.04342 0.87905 0.0
Pr193 Pr 0.51112 1.00808 0.70021 0.0
C194 C 0.54343 0.0741 0.04835 0.0
C195 C 0.57122 0.08423 0.06125 0.0
C196 C 0.57632 0.11172 0.08122 0.0
C197 C 0.60285 0.12157 0.08035 0.0
C198 C 0.62448 0.10407 0.05747 0.0
C199 C 0.61921 0.07654 0.04102 0.0
C200 C 0.593 0.06676 0.04277 0.0
C201 C 0.50231 0.07134 0.68226 0.0
C202 C 0.57267 0.02526 0.70464 0.0
C203 C 0.48851 0.97654 0.5366 0.0
C204 C 0.46288 0.96208 0.54681 0.0
C205 C 0.45083 0.95932 0.65796 0.0
C206 C 0.42376 0.95221 0.66794 0.0
C207 C 0.40856 0.94724 0.56694 0.0
C208 C 0.4214 0.94745 0.45656 0.0
C209 C 0.4484 0.95507 0.44647 0.0
C210 C 0.5286 0.98017 0.90046 0.0
C211 C 0.45996 0.02388 0.87796 0.0
O212 O 0.54011 0.04809 0.05833 0.0
O213 O 0.52987 0.0842 0.96119 0.0
O214 O 0.52067 0.05359 0.67863 0.0
O215 O 0.49168 0.07306 0.78601 0.0
O216 O 0.55426 1.01768 0.62918 0.0
O217 O 0.56516 0.03245 0.81135 0.0
O218 O 0.48625 1.00274 0.53578 0.0
O219 O 0.5076 0.96816 0.60567 0.0
O220 O 0.51067 0.99826 0.90045 0.0
O221 O 0.53931 0.97757 0.79755 0.0
O222 O 0.4789 0.0314 0.95101 0.0
O223 O 0.46658 1.01771 0.76917 0.0
H224 H 0.5598 0.12559 0.09554 0.0
H225 H 0.60644 0.14279 0.09569 0.0
H226 H 0.6355 0.06236 0.0272 0.0
H227 H 0.58985 0.04548 0.02709 0.0
H228 H 0.46182 0.96453 0.73665 0.0
H229 H 0.41424 0.9524 0.75362 0.0
H230 H 0.40996 0.94414 0.37713 0.0
H231 H 0.45735 0.95724 0.36018 0.0
Pr232 Pr 0.50297 0.52605 0.79625 0.0
Pr233 Pr 0.53956 0.51248 0.62013 0.0
C234 C 0.47427 0.55066 0.96587 0.0
C235 C 0.46054 0.57683 0.96671 0.0
C236 C 0.45661 0.59087 0.86114 0.0
C237 C 0.44774 0.61758 0.86255 0.0
C238 C 0.4426 0.63062 0.96965 0.0
C239 C 0.445 0.61584 0.07468 0.0
C240 C 0.45405 0.58922 0.07316 0.0
C241 C 0.47506 0.51296 0.58983 0.0
C242 C 0.52478 0.57529 0.62028 0.0
C243 C 0.5701 0.48969 0.45182 0.0
C244 C 0.58675 0.46531 0.45223 0.0
C245 C 0.59438 0.45351 0.55902 0.0
C246 C 0.60511 0.4275 0.56115 0.0
C247 C 0.608 0.41275 0.45659 0.0
C248 C 0.60239 0.42568 0.34917 0.0
C249 C 0.59182 0.45172 0.34718 0.0
C250 C 0.56703 0.52573 0.82723 0.0
C251 C 0.51616 0.46235 0.78662 0.0
O252 O 0.5005 0.55191 0.95933 0.0
O253 O 0.46408 0.53243 0.8967 0.0
O254 O 0.49595 0.52762 0.59353 0.0
O255 O 0.46899 0.50379 0.69294 0.0
O256 O 0.53099 0.5555 0.54875 0.0
O257 O 0.51704 0.56947 0.72825 0.0
O258 O 0.54424 0.48541 0.46187 0.0
O259 O 0.57851 0.50952 0.51714 0.0
O260 O 0.54643 0.51069 0.82278 0.0
O261 O 0.57282 0.53539 0.72478 0.0
O262 O 0.50844 0.48124 0.86061 0.0
O263 O 0.52547 0.46937 0.68259 0.0
H264 H 0.46167 0.58161 0.77791 0.0
H265 H 0.44617 0.62842 0.7804 0.0
H266 H 0.44183 0.62542 0.15891 0.0
H267 H 0.45735 0.57889 0.15547 0.0
H268 H 0.59051 0.46374 0.64129 0.0
H269 H 0.60941 0.4183 0.64515 0.0
H270 H 0.60387 0.41493 0.26682 0.0
H271 H 0.58589 0.46049 0.26413 0.0
Pr272 Pr 1.0102 0.49924 0.84278 0.0
Pr273 Pr 0.02324 0.53721 0.66958 0.0
C274 C 0.987 0.46869 0.01037 0.0
C275 C 0.95917 0.45871 0.02322 0.0
C276 C 0.95387 0.43094 0.03145 0.0
C277 C 0.92728 0.42138 0.02964 0.0
C278 C 0.9058 0.43953 0.01738 0.0
C279 C 0.91123 0.46727 0.01277 0.0
C280 C 0.93753 0.47674 0.01602 0.0
C281 C 0.02271 0.47325 0.63033 0.0
C282 C 0.95969 0.52396 0.68534 0.0
C283 C 0.04579 0.56742 0.49953 0.0
C284 C 0.07068 0.58324 0.49493 0.0
C285 C 0.08615 0.58688 0.59658 0.0
C286 C 0.11175 0.59849 0.58923 0.0
C287 C 0.12216 0.60669 0.48008 0.0
C288 C 0.10574 0.60452 0.37999 0.0
C289 C 0.08031 0.59275 0.38737 0.0
C290 C 1.01002 0.56366 0.8793 0.0
C291 C 0.07352 0.51328 0.83704 0.0
O292 O 0.99055 0.49466 0.02096 0.0
O293 O 1.00065 0.45851 0.92325 0.0
O294 O 1.00788 0.49393 0.63898 0.0
O295 O 0.03256 0.46656 0.73135 0.0
O296 O 0.97826 0.53118 0.60869 0.0
O297 O 0.9672 0.51492 0.78884 0.0
O298 O 0.04908 0.54136 0.5068 0.0
O299 O 0.02712 0.57644 0.56998 0.0
O300 O 0.02501 0.54299 0.87272 0.0
O301 O 1.00083 0.57028 0.77719 0.0
O302 O 0.05425 0.50431 0.90591 0.0
O303 O 0.06721 0.52422 0.735 0.0
H304 H 0.97029 0.41671 0.03733 0.0
H305 H 0.92351 0.39995 0.03641 0.0
H306 H 0.89499 0.4818 0.00772 0.0
H307 H 0.94083 0.49826 0.01016 0.0
H308 H 0.07895 0.57961 0.68063 0.0
H309 H 0.1239 0.59983 0.6677 0.0
H310 H 0.11329 0.61 0.294 0.0
H311 H 0.06887 0.58983 0.30789 0.0
H312 H 0.1799 1.01281 0.40414 0.0
H313 H 0.12851 1.01805 0.09957 0.0
H314 H 0.08923 0.02144 0.22544 0.0
H315 H 0.06855 0.02252 0.42366 0.0
H316 H 0.12031 0.02301 0.72624 0.0
H317 H 0.15988 1.01851 0.60002 0.0
C318 C 0.16031 1.01523 0.36416 0.0
C319 C 0.15777 1.01448 0.24067 0.0
C320 C 0.13747 1.01828 0.4375 0.0
C321 C 0.13165 1.01745 0.19333 0.0
C322 C 0.10889 1.01973 0.26565 0.0
C323 C 0.08852 0.02174 0.46167 0.0
C324 C 0.09138 0.02294 0.58444 0.0
C325 C 0.11146 1.01991 0.388 0.0
C326 C 0.11745 0.0222 0.63217 0.0
C327 C 0.14017 1.01955 0.55989 0.0
H328 H 0.4617 0.16664 0.36014 0.0
H329 H 0.5467 0.17553 0.29443 0.0
H330 H 0.55596 0.13631 0.4193 0.0
H331 H 0.53957 0.09899 0.54847 0.0
H332 H 0.45459 0.09263 0.62084 0.0
H333 H 0.4456 0.13074 0.49106 0.0
C334 C 0.48229 0.16008 0.37356 0.0
C335 C 0.50347 0.17414 0.31795 0.0
C336 C 0.48742 0.13759 0.44573 0.0
C337 C 0.53003 0.16539 0.3372 0.0
C338 C 0.5353 0.14276 0.40781 0.0
C339 C 0.51909 0.10575 0.53408 0.0
C340 C 0.49767 0.09264 0.59258 0.0
C341 C 0.51413 0.12853 0.46216 0.0
C342 C 0.47134 0.10213 0.57581 0.0
C343 C 0.4662 0.12406 0.50213 0.0
H344 H 0.40329 0.52721 0.13468 0.0
H345 H 0.34292 0.49359 0.36577 0.0
H346 H 0.37609 0.49055 0.52271 0.0
H347 H 0.42243 0.49705 0.59509 0.0
H348 H 0.48288 0.53022 0.36407 0.0
H349 H 0.44981 0.53246 0.20531 0.0
C350 C 0.39731 0.51889 0.2188 0.0
C351 C 0.37032 0.51066 0.23719 0.0
C352 C 0.41667 0.51685 0.30883 0.0
C353 C 0.36321 0.50052 0.34844 0.0
C354 C 0.38232 0.49853 0.43836 0.0
C355 C 0.42842 0.50477 0.51 0.0
C356 C 0.45521 0.51345 0.49182 0.0
C357 C 0.40911 0.50661 0.41966 0.0
C358 C 0.46246 0.52347 0.38086 0.0
C359 C 0.44349 0.52494 0.29017 0.0
H360 H 1.01818 0.40555 0.15909 0.0
H361 H 1.01496 0.33998 0.40918 0.0
H362 H 1.01862 0.3719 0.569 0.0
H363 H 0.02235 0.41851 0.64121 0.0
H364 H 1.01931 0.48438 0.39555 0.0
H365 H 1.01769 0.4523 0.23182 0.0
C366 C 1.01773 0.39793 0.24805 0.0
C367 C 1.01679 0.36975 0.26912 0.0
C368 C 1.01864 0.41665 0.34157 0.0
C369 C 1.01668 0.36108 0.38709 0.0
C370 C 1.01843 0.37949 0.47987 0.0
C371 C 0.02142 0.42586 0.55173 0.0
C372 C 0.02136 0.45386 0.53058 0.0
C373 C 1.01958 0.40729 0.45835 0.0
C374 C 1.01954 0.46299 0.41424 0.0
C375 C 1.01861 0.44461 0.32064 0.0
H376 H 0.86481 0.9715 0.10568 0.0
H377 H 0.8619 0.05476 0.21037 0.0
H378 H 0.9023 0.06418 0.09238 0.0
H379 H 0.93959 0.04817 0.9619 0.0
H380 H 0.93986 0.96534 0.84953 0.0
H381 H 0.89997 0.95619 0.96914 0.0
C382 C 0.87289 0.99178 0.10192 0.0
C383 C 0.86027 1.01238 0.16703 0.0
C384 C 0.89607 0.997 0.03382 0.0
C385 C 0.87096 0.03858 0.16029 0.0
C386 C 0.89427 0.0439 0.09371 0.0
C387 C 0.93102 0.0281 0.96504 0.0
C388 C 0.943 1.00727 0.8987 0.0
C389 C 0.90726 0.02318 0.03109 0.0
C390 C 0.93123 0.98156 0.90084 0.0
C391 C 0.90831 0.97636 0.96876 0.0
H392 H 0.56289 0.88682 0.24676 0.0
H393 H 0.47793 0.86964 0.23376 0.0
H394 H 0.47094 0.90881 0.10606 0.0
H395 H 0.48921 0.94838 0.9971 0.0
H396 H 0.5747 0.96293 0.99955 0.0
H397 H 0.58125 0.92491 0.13333 0.0
C398 C 0.54285 0.89157 0.21549 0.0
C399 C 0.52097 0.87521 0.24987 0.0
C400 C 0.53906 0.914 0.14125 0.0
C401 C 0.49517 0.88162 0.20771 0.0
C402 C 0.49114 0.9042 0.13546 0.0
C403 C 0.50917 0.94339 0.02865 0.0
C404 C 0.53144 0.95881 0.99082 0.0
C405 C 0.51291 0.92068 0.10206 0.0
C406 C 0.55728 0.95163 0.02908 0.0
C407 C 0.56103 0.92978 0.10493 0.0
H408 H 0.63806 0.5201 0.28889 0.0
H409 H 0.70005 0.54319 0.0426 0.0
H410 H 0.66717 0.54274 0.88344 0.0
H411 H 0.62048 0.53751 0.81488 0.0
H412 H 0.55858 0.51282 0.05829 0.0
H413 H 0.59158 0.51264 0.21802 0.0
C414 C 0.64441 0.525 0.20031 0.0
C415 C 0.67162 0.53181 0.17822 0.0
C416 C 0.6253 0.52469 0.10884 0.0
C417 C 0.67943 0.53766 0.06236 0.0
C418 C 0.66054 0.53762 0.97133 0.0
C419 C 0.61415 0.53212 0.90294 0.0
C420 C 0.58695 0.52547 0.92475 0.0
C421 C 0.63337 0.53148 0.99368 0.0
C422 C 0.57929 0.51814 0.03912 0.0
C423 C 0.5982 0.51798 0.13041 0.0
H424 H 1.01868 0.63315 0.34497 0.0
H425 H 0.99402 0.69599 0.10607 0.0
H426 H 0.99271 0.66349 0.94608 0.0
H427 H 0.99802 0.61714 0.87286 0.0
H428 H 0.02196 0.55401 0.11035 0.0
H429 H 0.02218 0.58636 0.27289 0.0
C430 C 1.01266 0.63984 0.25842 0.0
C431 C 1.00654 0.66737 0.23894 0.0
C432 C 1.0115 0.62083 0.16629 0.0
C433 C 0.99938 0.6753 0.12463 0.0
C434 C 0.99835 0.65658 0.03277 0.0
C435 C 1.00343 0.61042 0.96012 0.0
C436 C 1.01005 0.5831 0.97912 0.0
C437 C 1.00437 0.62931 0.05244 0.0
C438 C 1.01701 0.57488 0.09289 0.0
C439 C 1.01735 0.59346 0.18572 0.0
H440 H 0.04649 0.25442 0.42415 0.0
H441 H 0.11748 0.22233 0.25971 0.0
H442 H 0.11389 0.18154 0.37732 0.0
H443 H 0.07968 0.15028 0.44984 0.0
H444 H 1.00634 0.18104 0.60433 0.0
H445 H 0.02132 0.22697 0.56611 0.0
C446 C 0.06218 0.23924 0.41998 0.0
C447 C 0.08073 0.2399 0.32673 0.0
C448 C 0.05834 0.2149 0.48 0.0
C449 C 0.10212 0.22138 0.32728 0.0
C450 C 0.09958 0.19766 0.3922 0.0
C451 C 0.06737 0.16685 0.48068 0.0
C452 C 0.04104 0.16217 0.52231 0.0
C453 C 0.07594 0.19315 0.45713 0.0
C454 C 0.02594 0.18411 0.5646 0.0
C455 C 0.03462 0.21042 0.54399 0.0
H456 H 0.29549 0.95828 0.3704 0.0
H457 H 0.30626 0.03655 0.52444 0.0
H458 H 0.34164 1.01888 0.65148 0.0
H459 H 0.37836 0.9862 0.66352 0.0
H460 H 0.3728 0.91119 0.47538 0.0
H461 H 0.32663 0.9219 0.41817 0.0
C462 C 0.30456 0.97095 0.43702 0.0
C463 C 0.2987 0.9986 0.43802 0.0
C464 C 0.32667 0.96127 0.50014 0.0
C465 C 0.31055 1.01516 0.52298 0.0
C466 C 0.33115 1.00514 0.59371 0.0
C467 C 0.36653 0.97167 0.61467 0.0
C468 C 0.37888 0.94816 0.57183 0.0
C469 C 0.34087 0.97893 0.57506 0.0
C470 C 0.36361 0.92951 0.50799 0.0
C471 C 0.33733 0.93576 0.47474 0.0
H472 H 0.56454 0.2997 0.41093 0.0
H473 H 0.61038 0.3051 0.09117 0.0
H474 H 0.63771 0.34116 0.17411 0.0
H475 H 0.63621 0.38031 0.30575 0.0
H476 H 0.58543 0.37768 0.61324 0.0
H477 H 0.5733 0.33143 0.57057 0.0
C478 C 0.58168 0.30761 0.36262 0.0
C479 C 0.58502 0.30054 0.24436 0.0
C480 C 0.59576 0.32978 0.40766 0.0
C481 C 0.60735 0.31058 0.18222 0.0
C482 C 0.62257 0.33164 0.22886 0.0
C483 C 0.62321 0.36927 0.36546 0.0
C484 C 0.61075 0.3829 0.45923 0.0
C485 C 0.61508 0.34303 0.33665 0.0
C486 C 0.59489 0.36802 0.53879 0.0
C487 C 0.58768 0.3415 0.51378 0.0
H488 H 0.22623 0.60891 0.20235 0.0
H489 H 0.24164 0.54109 0.42725 0.0
H490 H 0.20722 0.55665 0.5647 0.0
H491 H 0.16385 0.57988 0.57882 0.0
H492 H 0.14603 0.64543 0.34328 0.0
H493 H 0.19047 0.64098 0.25346 0.0
C494 C 0.22306 0.59853 0.28507 0.0
C495 C 0.2358 0.5737 0.30421 0.0
C496 C 0.20208 0.60671 0.35939 0.0
C497 C 0.23185 0.56023 0.41104 0.0
C498 C 0.2118 0.56888 0.48847 0.0
C499 C 0.17013 0.5941 0.51195 0.0
C500 C 0.15132 0.61221 0.46428 0.0
C501 C 0.19528 0.59068 0.45771 0.0
C502 C 0.15991 0.63071 0.37861 0.0
C503 C 0.18528 0.62811 0.32694 0.0
H504 H 0.10786 0.81122 0.31653 0.0
H505 H 0.04606 0.79214 0.06675 0.0
H506 H 0.06183 0.82812 0.9379 0.0
H507 H 0.08101 0.87343 0.93863 0.0
H508 H 0.13902 0.89554 0.2023 0.0
H509 H 0.13748 0.84997 0.2824 0.0
C510 C 0.09905 0.81396 0.23039 0.0
C511 C 0.07541 0.79988 0.20219 0.0
C512 C 0.10688 0.83605 0.16182 0.0
C513 C 0.06411 0.80308 0.09048 0.0
C514 C 0.07281 0.82406 0.01798 0.0
C515 C 0.09439 0.86798 0.00976 0.0
C516 C 0.10929 0.88806 0.06768 0.0
C517 C 0.09236 0.84216 0.05872 0.0
C518 C 0.12672 0.88056 0.15884 0.0
C519 C 0.12576 0.85454 0.2049 0.0
H520 H 0.74214 0.08122 0.1035 0.0
H521 H 0.72801 0.11972 0.43542 0.0
H522 H 0.68814 0.1419 0.35761 0.0
H523 H 0.64963 0.13393 0.22486 0.0
H524 H 0.66336 0.09413 0.89469 0.0
H525 H 0.71101 0.08912 0.94036 0.0
C526 C 0.73143 0.09596 0.15615 0.0
C527 C 0.73666 0.09745 0.27683 0.0
C528 C 0.70758 0.10726 0.11241 0.0
C529 C 0.72359 0.11752 0.34294 0.0
C530 C 0.7003 0.12968 0.29924 0.0
C531 C 0.66332 0.12551 0.16031 0.0
C532 C 0.65295 0.11307 0.05949 0.0
C533 C 0.69067 0.12223 0.18846 0.0
C534 C 0.67092 0.10278 0.9752 0.0
C535 C 0.69816 0.09989 1.00138 0.0
H536 H 0.47915 0.74482 0.07779 0.0
H537 H 0.41922 0.73494 0.34754 0.0
H538 H 0.39873 0.69801 0.23862 0.0
H539 H 0.40828 0.66018 0.1057 0.0
H540 H 0.47136 0.66796 0.84739 0.0
H541 H 0.47978 0.71404 0.90945 0.0
C542 C 0.46056 0.7357 0.10854 0.0
C543 C 0.45104 0.74194 0.22132 0.0
C544 C 0.45016 0.71324 0.04934 0.0
C545 C 0.42692 0.73023 0.26092 0.0
C546 C 0.41559 0.70868 0.19982 0.0
C547 C 0.4232 0.67235 0.06043 0.0
C548 C 0.43989 0.66037 0.97534 0.0
C549 C 0.42864 0.69855 0.0999 0.0
C550 C 0.45857 0.67653 0.9146 0.0
C551 C 0.46355 0.70289 0.9508 0.0
H552 H 0.79077 0.46729 0.0907 0.0
H553 H 0.80787 0.42826 0.41875 0.0
H554 H 0.84504 0.40369 0.32882 0.0
H555 H 0.88161 0.40919 0.18438 0.0
H556 H 0.86616 0.45141 0.86168 0.0
H557 H 0.81934 0.45828 0.9193 0.0
C558 C 0.80148 0.452 0.1401 0.0
C559 C 0.79769 0.45045 0.26184 0.0
C560 C 0.82395 0.4394 0.08935 0.0
C561 C 0.81105 0.43017 0.32505 0.0
C562 C 0.83271 0.41655 0.27411 0.0
C563 C 0.86756 0.41847 0.12393 0.0
C564 C 0.87734 0.43087 0.0217 0.0
C565 C 0.84096 0.42333 0.16016 0.0
C566 C 0.85902 0.44246 0.9427 0.0
C567 C 0.83231 0.44657 0.97607 0.0
H568 H 0.07568 0.185 0.99 0.0
H569 H 0.99443 0.21391 0.94529 0.0
H570 H 0.98124 0.16976 0.8676 0.0
H571 H 0.99192 0.12095 0.8309 0.0
H572 H 0.07172 0.09198 0.90745 0.0
H573 H 0.08597 0.1376 0.95908 0.0
C574 C 0.05488 0.18181 0.96512 0.0
C575 C 0.03603 0.20308 0.9771 0.0
C576 C 0.04701 0.15588 0.92854 0.0
C577 C 1.00957 0.19833 0.93788 0.0
C578 C 1.0019 0.17281 0.8948 0.0
C579 C 1.01236 0.12472 0.85961 0.0
C580 C 0.03072 0.10299 0.86692 0.0
C581 C 1.02024 0.15114 0.89306 0.0
C582 C 0.05717 0.10821 0.9029 0.0
C583 C 0.06535 0.13435 0.93168 0.0
H584 H 0.35502 0.99149 0.15604 0.0
H585 H 0.31815 0.049 0.92297 0.0
H586 H 0.36116 0.05372 0.81686 0.0
H587 H 0.41098 0.04443 0.8027 0.0
H588 H 0.447 0.99121 0.05658 0.0
H589 H 0.40294 0.98253 0.14396 0.0
C590 C 0.35623 1.00547 0.08312 0.0
C591 C 0.33321 1.02047 0.05049 0.0
C592 C 0.38121 1.00906 0.0268 0.0
C593 C 0.33532 0.0373 0.95141 0.0
C594 C 0.36008 0.04017 0.89123 0.0
C595 C 0.40902 0.03084 0.87669 0.0
C596 C 0.43232 1.0185 0.92353 0.0
C597 C 0.38342 0.02665 0.92991 0.0
C598 C 0.4295 1.00107 0.01965 0.0
C599 C 0.40427 0.99604 0.06945 0.0
H600 H 0.53622 0.33741 0.86433 0.0
H601 H 0.48737 0.35154 0.17028 0.0
H602 H 0.48025 0.39844 0.10903 0.0
H603 H 0.4918 0.43688 0.97645 0.0
H604 H 0.54066 0.42132 0.66982 0.0
H605 H 0.54355 0.37397 0.72252 0.0
C606 C 0.52321 0.35053 0.91529 0.0
C607 C 0.51182 0.34078 0.02035 0.0
C608 C 0.51967 0.37759 0.88048 0.0
C609 C 0.49572 0.35828 0.08744 0.0
C610 C 0.49202 0.38526 0.0532 0.0
C611 C 0.50295 0.42312 0.92084 0.0
C612 C 0.51615 0.43306 0.8195 0.0
C613 C 0.50453 0.39542 0.95135 0.0
C614 C 0.5303 0.41462 0.74836 0.0
C615 C 0.53207 0.38737 0.77846 0.0
H616 H 0.18358 0.5043 0.11346 0.0
H617 H 0.21492 0.54253 0.80309 0.0
H618 H 0.17034 0.53947 0.71026 0.0
H619 H 0.12087 0.53014 0.72694 0.0
H620 H 0.09099 0.49248 0.0435 0.0
H621 H 0.13611 0.49141 0.12349 0.0
C622 C 0.18083 0.51125 0.02407 0.0
C623 C 0.20269 0.52328 0.96482 0.0
C624 C 0.15505 0.51015 0.97309 0.0
C625 C 0.19865 0.53267 0.84984 0.0
C626 C 0.173 0.53131 0.79753 0.0
C627 C 0.12427 0.52146 0.81288 0.0
C628 C 0.10213 0.51161 0.87887 0.0
C629 C 0.15077 0.52079 0.85966 0.0
C630 C 0.10724 0.50041 0.99016 0.0
C631 C 0.13322 0.4997 0.03648 0.0
H632 H 1.00502 0.85472 0.36336 0.0
H633 H 0.03229 0.82112 0.68991 0.0
H634 H 0.02871 0.86565 0.78316 0.0
H635 H 0.02203 0.91547 0.76503 0.0
H636 H 0.99581 0.94785 0.43273 0.0
H637 H 0.99497 0.90288 0.34936 0.0
C638 C 1.00941 0.85699 0.45598 0.0
C639 C 1.01854 0.83446 0.51988 0.0
C640 C 1.00805 0.88275 0.50756 0.0
C641 C 0.02464 0.8379 0.63926 0.0
C642 C 0.02297 0.86352 0.69203 0.0
C643 C 1.01588 0.91267 0.67473 0.0
C644 C 1.00916 0.93541 0.60558 0.0
C645 C 1.0154 0.88632 0.62614 0.0
C646 C 1.00123 0.93108 0.48864 0.0
C647 C 1.00068 0.90521 0.44045 0.0
H648 H 0.6972 0.04756 0.63186 0.0
H649 H 0.68586 0.99521 0.33572 0.0
H650 H 0.63876 0.98769 0.39449 0.0
H651 H 0.59938 0.9998 0.52149 0.0
H652 H 0.61209 0.05302 0.81473 0.0
H653 H 0.65971 0.05622 0.76648 0.0
C654 C 0.68464 0.03379 0.58243 0.0
C655 C 0.69519 0.02159 0.48073 0.0
C656 C 0.65749 0.03018 0.61513 0.0
C657 C 0.67847 1.00431 0.4159 0.0
C658 C 0.65138 1.00039 0.44858 0.0
C659 C 0.6126 1.01203 0.57493 0.0
C660 C 0.60191 0.02619 0.67216 0.0
C661 C 0.64039 1.01387 0.54634 0.0
C662 C 0.61955 0.04174 0.74052 0.0
C663 C 0.64689 0.0437 0.71264 0.0
H664 H 0.52141 0.68479 0.33629 0.0
H665 H 0.5098 0.71829 0.68073 0.0
H666 H 0.51634 0.67345 0.76823 0.0
H667 H 0.51966 0.62338 0.74332 0.0
H668 H 0.53083 0.59138 0.39427 0.0
H669 H 0.5293 0.63652 0.31286 0.0
C670 C 0.52087 0.68237 0.43086 0.0
C671 C 0.51524 0.70493 0.50179 0.0
C672 C 0.52362 0.65647 0.47972 0.0
C673 C 0.51445 0.70141 0.62411 0.0
C674 C 0.51768 0.67562 0.6739 0.0
C675 C 0.52199 0.62632 0.64962 0.0
C676 C 0.52518 0.60367 0.57539 0.0
C677 C 0.52134 0.65278 0.60223 0.0
C678 C 0.52829 0.60812 0.45413 0.0
C679 C 0.52745 0.63406 0.40701 0.0
H680 H 0.83434 0.50406 0.62996 0.0
H681 H 0.84636 0.55013 0.3147 0.0
H682 H 0.8936 0.558 0.3682 0.0
H683 H 0.93302 0.54739 0.49631 0.0
H684 H 0.91944 0.50068 0.80992 0.0
H685 H 0.87185 0.49761 0.76633 0.0
C686 C 0.84705 0.51673 0.5754 0.0
C687 C 0.83663 0.52709 0.47007 0.0
C688 C 0.87432 0.52051 0.60533 0.0
C689 C 0.85364 0.54263 0.398 0.0
C690 C 0.88081 0.54673 0.42775 0.0
C691 C 0.9196 0.53673 0.55545 0.0
C692 C 0.9302 0.52414 0.65658 0.0
C693 C 0.89168 0.53505 0.52968 0.0
C694 C 0.91222 0.5106 0.73198 0.0
C695 C 0.88479 0.50876 0.70695 0.0
loop_
_geom_bond_atom_site_label_1
_geom_bond_atom_site_label_2
_geom_bond_distance
_geom_bond_site_symmetry_2
_ccdc_geom_bond_type
H0 C1 0.949 . S
C1 H0 0.949 . S
C1 C2 1.395 . S
C1 C3 1.391 . S
C2 C1 1.395 . S
C2 C5 1.390 . S
C3 C1 1.391 . S
C3 C7 1.387 . S
C3 C8 1.491 . S
H4 C5 0.950 . S
C5 C2 1.390 . S
C5 H4 0.950 . S
C5 C6 1.378 . S
C6 C5 1.378 . S
C6 C7 1.409 . S
C7 C3 1.387 . S
C7 C6 1.409 . S
C7 H9 0.951 . S
C8 C3 1.491 . S
C8 C10 1.382 . S
C8 C12 1.404 . S
H9 C7 0.951 . S
C10 C8 1.382 . S
C10 C11 1.390 . S
C10 H15 0.949 . S
C11 C10 1.390 . S
C11 C16 1.399 . S
C12 C8 1.404 . S
C12 H13 0.950 . S
C12 C14 1.375 . S
H13 C12 0.950 . S
C14 C12 1.375 . S
C14 C16 1.382 . S
C14 H18 0.950 . S
H15 C10 0.949 . S
C16 C11 1.399 . S
C16 C14 1.382 . S
C16 H17 0.952 . S
H17 C16 0.952 . S
H18 C14 0.950 . S
H19 C20 0.949 . S
C20 H19 0.949 . S
C20 C21 1.395 . S
C20 C22 1.391 . S
C21 C20 1.395 . S
C21 C24 1.390 1_655 S
C22 C20 1.391 . S
C22 C26 1.387 . S
C22 C27 1.491 . S
H23 C24 0.950 . S
C24 C21 1.390 1_455 S
C24 H23 0.950 . S
C24 C25 1.377 1_455 S
C25 C24 1.377 1_655 S
C25 C26 1.413 . S
C26 C22 1.387 . S
C26 C25 1.413 . S
C26 H28 0.951 . S
C27 C22 1.491 . S
C27 C29 1.382 . S
C27 C31 1.404 . S
H28 C26 0.951 . S
C29 C27 1.382 . S
C29 C30 1.390 . S
C29 H34 0.949 1_655 S
C30 C29 1.390 . S
C30 C35 1.399 . S
C31 C27 1.404 . S
C31 H32 0.950 . S
C31 C33 1.375 . S
H32 C31 0.950 . S
C33 C31 1.375 . S
C33 C35 1.382 . S
C33 H37 0.950 . S
H34 C29 0.949 1_455 S
C35 C30 1.399 . S
C35 C33 1.382 . S
C35 H36 0.952 . S
H36 C35 0.952 . S
H37 C33 0.950 . S
H38 C39 0.949 . S
C39 H38 0.949 . S
C39 C40 1.395 . S
C39 C41 1.391 . S
C40 C39 1.395 . S
C40 C43 1.390 1_565 S
C41 C39 1.391 . S
C41 C45 1.387 . S
C41 C46 1.491 . S
H42 C43 0.950 . S
C43 C40 1.390 1_545 S
C43 H42 0.950 . S
C43 C44 1.377 1_545 S
C44 C43 1.377 1_565 S
C44 C45 1.413 . S
C45 C41 1.387 . S
C45 C44 1.413 . S
C45 H47 0.951 . S
C46 C41 1.491 . S
C46 C48 1.382 . S
C46 C50 1.404 . S
H47 C45 0.951 . S
C48 C46 1.382 . S
C48 C49 1.390 . S
C48 H53 0.949 1_565 S
C49 C48 1.390 . S
C49 C54 1.399 . S
C50 C46 1.404 . S
C50 H51 0.950 . S
C50 C52 1.375 . S
H51 C50 0.950 . S
C52 C50 1.375 . S
C52 C54 1.382 . S
C52 H56 0.950 . S
H53 C48 0.949 1_545 S
C54 C49 1.399 . S
C54 C52 1.382 . S
C54 H55 0.952 . S
H55 C54 0.952 . S
H56 C52 0.950 . S
H57 C58 0.949 . S
C58 H57 0.949 . S
C58 C59 1.395 . S
C58 C60 1.391 . S
C59 C58 1.395 . S
C59 C62 1.390 . S
C60 C58 1.391 . S
C60 C64 1.387 . S
C60 C65 1.491 . S
H61 C62 0.950 . S
C62 C59 1.390 . S
C62 H61 0.950 . S
C62 C63 1.378 . S
C63 C62 1.378 . S
C63 C64 1.409 . S
C64 C60 1.387 . S
C64 C63 1.409 . S
C64 H66 0.951 . S
C65 C60 1.491 . S
C65 C67 1.382 . S
C65 C69 1.404 . S
H66 C64 0.951 . S
C67 C65 1.382 . S
C67 C68 1.390 . S
C67 H72 0.949 . S
C68 C67 1.390 . S
C68 C73 1.399 . S
C69 C65 1.404 . S
C69 H70 0.950 . S
C69 C71 1.375 . S
H70 C69 0.950 . S
C71 C69 1.375 . S
C71 C73 1.382 . S
C71 H75 0.950 . S
H72 C67 0.949 . S
C73 C68 1.399 . S
C73 C71 1.382 . S
C73 H74 0.952 . S
H74 C73 0.952 . S
H75 C71 0.950 . S
H76 C77 0.949 . S
C77 H76 0.949 . S
C77 C78 1.395 . S
C77 C79 1.391 1_554 S
C78 C77 1.395 . S
C78 C81 1.390 1_554 S
C79 C77 1.391 1_556 S
C79 C83 1.387 . S
C79 C84 1.491 . S
H80 C81 0.950 . S
C81 C78 1.390 1_556 S
C81 H80 0.950 . S
C81 C82 1.378 . S
C82 C81 1.378 . S
C82 C83 1.409 . S
C83 C79 1.387 . S
C83 C82 1.409 . S
C83 H85 0.951 . S
C84 C79 1.491 . S
C84 C86 1.382 1_556 S
C84 C88 1.404 . S
H85 C83 0.951 . S
C86 C84 1.382 1_554 S
C86 C87 1.390 . S
C86 H91 0.949 . S
C87 C86 1.390 . S
C87 C92 1.399 1_554 S
C88 C84 1.404 . S
C88 H89 0.950 . S
C88 C90 1.375 . S
H89 C88 0.950 . S
C90 C88 1.375 . S
C90 C92 1.382 . S
C90 H94 0.950 . S
H91 C86 0.949 . S
C92 C87 1.399 1_556 S
C92 C90 1.382 . S
C92 H93 0.952 . S
H93 C92 0.952 . S
H94 C90 0.950 . S
H95 C96 0.949 . S
C96 H95 0.949 . S
C96 C97 1.394 . S
C96 C98 1.391 1_554 S
C97 C96 1.394 . S
C97 C100 1.391 1_654 S
C98 C96 1.391 1_556 S
C98 C102 1.387 . S
C98 C103 1.491 . S
H99 C100 0.950 . S
C100 C97 1.391 1_456 S
C100 H99 0.950 . S
C100 C101 1.377 1_455 S
C101 C100 1.377 1_655 S
C101 C102 1.411 . S
C102 C98 1.387 . S
C102 C101 1.411 . S
C102 H104 0.951 . S
C103 C98 1.491 . S
C103 C105 1.382 1_556 S
C103 C107 1.404 . S
H104 C102 0.951 . S
C105 C103 1.382 1_554 S
C105 C106 1.390 . S
C105 H110 0.949 1_655 S
C106 C105 1.390 . S
C106 C111 1.399 1_554 S
C107 C103 1.404 . S
C107 H108 0.950 . S
C107 C109 1.375 . S
H108 C107 0.950 . S
C109 C107 1.375 . S
C109 C111 1.382 . S
C109 H113 0.950 . S
H110 C105 0.949 1_455 S
C111 C106 1.399 1_556 S
C111 C109 1.382 . S
C111 H112 0.952 . S
H112 C111 0.952 . S
H113 C109 0.950 . S
H114 C115 0.949 . S
C115 H114 0.949 . S
C115 C116 1.394 . S
C115 C117 1.391 1_554 S
C116 C115 1.394 . S
C116 C119 1.391 1_564 S
C117 C115 1.391 1_556 S
C117 C121 1.387 . S
C117 C122 1.491 . S
H118 C119 0.950 . S
C119 C116 1.391 1_546 S
C119 H118 0.950 . S
C119 C120 1.377 1_545 S
C120 C119 1.377 1_565 S
C120 C121 1.411 . S
C121 C117 1.387 . S
C121 C120 1.411 . S
C121 H123 0.951 . S
C122 C117 1.491 . S
C122 C124 1.382 1_556 S
C122 C126 1.404 . S
H123 C121 0.951 . S
C124 C122 1.382 1_554 S
C124 C125 1.390 . S
C124 H129 0.949 1_565 S
C125 C124 1.390 . S
C125 C130 1.399 1_554 S
C126 C122 1.404 . S
C126 H127 0.950 . S
C126 C128 1.375 . S
H127 C126 0.950 . S
C128 C126 1.375 . S
C128 C130 1.382 . S
C128 H132 0.950 . S
H129 C124 0.949 1_545 S
C130 C125 1.399 1_556 S
C130 C128 1.382 . S
C130 H131 0.952 . S
H131 C130 0.952 . S
H132 C128 0.950 . S
H133 C134 0.949 . S
C134 H133 0.949 . S
C134 C135 1.395 . S
C134 C136 1.391 1_554 S
C135 C134 1.395 . S
C135 C138 1.390 1_554 S
C136 C134 1.391 1_556 S
C136 C140 1.387 . S
C136 C141 1.491 . S
H137 C138 0.950 . S
C138 C135 1.390 1_556 S
C138 H137 0.950 . S
C138 C139 1.378 . S
C139 C138 1.378 . S
C139 C140 1.409 . S
C140 C136 1.387 . S
C140 C139 1.409 . S
C140 H142 0.951 . S
C141 C136 1.491 . S
C141 C143 1.382 1_556 S
C141 C145 1.404 . S
H142 C140 0.951 . S
C143 C141 1.382 1_554 S
C143 C144 1.390 . S
C143 H148 0.949 . S
C144 C143 1.390 . S
C144 C149 1.399 1_554 S
C145 C141 1.404 . S
C145 H146 0.950 . S
C145 C147 1.375 . S
H146 C145 0.950 . S
C147 C145 1.375 . S
C147 C149 1.382 . S
C147 H151 0.950 . S
H148 C143 0.949 . S
C149 C144 1.399 1_556 S
C149 C147 1.382 . S
C149 H150 0.952 . S
H150 C149 0.952 . S
H151 C147 0.950 . S
Pr152 C154 2.880 1_556 S
Pr152 O172 2.562 . S
Pr152 O173 2.490 . S
Pr152 O174 2.695 1_565 S
Pr152 O175 2.512 . S
Pr152 O177 2.437 . S
Pr152 O180 2.436 1_455 S
Pr152 O182 2.438 1_565 S
Pr153 C163 2.880 . S
Pr153 O174 2.436 1_655 S
Pr153 O176 2.438 1_545 S
Pr153 O178 2.577 . S
Pr153 O179 2.490 . S
Pr153 O180 2.695 1_545 S
Pr153 O181 2.512 . S
Pr153 O183 2.437 . S
C154 Pr152 2.880 1_554 S
C154 C155 1.491 . S
C154 O172 1.254 1_554 S
C154 O173 1.225 1_554 S
C155 C154 1.491 . S
C155 C156 1.392 . S
C155 C160 1.356 . S
C156 C155 1.392 . S
C156 C157 1.368 . S
C156 H184 0.929 . S
C157 C156 1.368 . S
C157 C158 1.386 . S
C157 H185 0.929 . S
C158 C157 1.386 . S
C158 C159 1.373 . S
C159 C158 1.373 . S
C159 C160 1.409 . S
C159 H186 0.931 1_455 S
C160 C155 1.356 . S
C160 C159 1.409 . S
C160 H187 0.930 1_455 S
C161 O174 1.270 1_565 S
C161 O175 1.248 . S
C162 O176 1.267 . S
C162 O177 1.278 1_655 S
C163 Pr153 2.880 . S
C163 C164 1.491 . S
C163 O178 1.290 . S
C163 O179 1.225 . S
C164 C163 1.491 . S
C164 C165 1.392 . S
C164 C169 1.356 . S
C165 C164 1.392 . S
C165 C166 1.368 . S
C165 H188 0.929 . S
C166 C165 1.368 . S
C166 C167 1.386 . S
C166 H189 0.929 . S
C167 C166 1.386 . S
C167 C168 1.373 . S
C168 C167 1.373 . S
C168 C169 1.409 . S
C168 H190 0.931 1_655 S
C169 C164 1.356 . S
C169 C168 1.409 . S
C169 H191 0.930 1_655 S
C170 O180 1.270 1_545 S
C170 O181 1.248 . S
C171 O182 1.267 . S
C171 O183 1.278 1_455 S
O172 Pr152 2.562 . S
O172 C154 1.254 1_556 S
O173 Pr152 2.490 . S
O173 C154 1.225 1_556 S
O174 Pr152 2.695 1_545 S
O174 Pr153 2.436 1_455 S
O174 C161 1.270 1_545 S
O175 Pr152 2.512 . S
O175 C161 1.248 . S
O176 Pr153 2.438 1_565 S
O176 C162 1.267 . S
O177 Pr152 2.437 . S
O177 C162 1.278 1_455 S
O178 Pr153 2.577 . S
O178 C163 1.290 . S
O179 Pr153 2.490 . S
O179 C163 1.225 . S
O180 Pr152 2.436 1_655 S
O180 Pr153 2.695 1_565 S
O180 C170 1.270 1_565 S
O181 Pr153 2.512 . S
O181 C170 1.248 . S
O182 Pr152 2.438 1_545 S
O182 C171 1.267 . S
O183 Pr153 2.437 . S
O183 C171 1.278 1_655 S
H184 C156 0.929 . S
H185 C157 0.929 . S
H186 C159 0.931 1_655 S
H187 C160 0.930 1_655 S
H188 C165 0.929 . S
H189 C166 0.929 . S
H190 C168 0.931 1_455 S
H191 C169 0.930 1_455 S
Pr192 C194 2.880 1_556 S
Pr192 O212 2.577 . S
Pr192 O213 2.490 . S
Pr192 O214 2.695 . S
Pr192 O215 2.512 . S
Pr192 O217 2.437 . S
Pr192 O220 2.436 1_545 S
Pr192 O222 2.438 . S
Pr193 C203 2.880 . S
Pr193 O214 2.436 1_565 S
Pr193 O216 2.438 . S
Pr193 O218 2.573 . S
Pr193 O219 2.490 . S
Pr193 O220 2.695 . S
Pr193 O221 2.512 . S
Pr193 O223 2.437 . S
C194 Pr192 2.880 1_554 S
C194 C195 1.491 . S
C194 O212 1.289 1_554 S
C194 O213 1.225 1_554 S
C195 C194 1.491 . S
C195 C196 1.392 . S
C195 C200 1.356 . S
C196 C195 1.392 . S
C196 C197 1.368 . S
C196 H224 0.929 . S
C197 C196 1.368 . S
C197 C198 1.386 . S
C197 H225 0.929 . S
C198 C197 1.386 . S
C198 C199 1.373 . S
C199 C198 1.373 . S
C199 C200 1.409 . S
C199 H226 0.931 1_545 S
C200 C195 1.356 . S
C200 C199 1.409 . S
C200 H227 0.930 1_545 S
C201 O214 1.270 . S
C201 O215 1.248 . S
C202 O216 1.267 . S
C202 O217 1.278 1_565 S
C203 Pr193 2.880 . S
C203 C204 1.491 . S
C203 O218 1.280 . S
C203 O219 1.225 . S
C204 C203 1.491 . S
C204 C205 1.392 . S
C204 C209 1.356 . S
C205 C204 1.392 . S
C205 C206 1.368 . S
C205 H228 0.929 . S
C206 C205 1.368 . S
C206 C207 1.386 . S
C206 H229 0.929 . S
C207 C206 1.386 . S
C207 C208 1.373 . S
C208 C207 1.373 . S
C208 C209 1.409 . S
C208 H230 0.931 1_565 S
C209 C204 1.356 . S
C209 C208 1.409 . S
C209 H231 0.930 1_565 S
C210 O220 1.270 . S
C210 O221 1.248 . S
C211 O222 1.267 . S
C211 O223 1.278 1_545 S
O212 Pr192 2.577 . S
O212 C194 1.289 1_556 S
O213 Pr192 2.490 . S
O213 C194 1.225 1_556 S
O214 Pr192 2.695 . S
O214 Pr193 2.436 1_545 S
O214 C201 1.270 . S
O215 Pr192 2.512 . S
O215 C201 1.248 . S
O216 Pr193 2.438 . S
O216 C202 1.267 . S
O217 Pr192 2.437 . S
O217 C202 1.278 1_545 S
O218 Pr193 2.573 . S
O218 C203 1.280 . S
O219 Pr193 2.490 . S
O219 C203 1.225 . S
O220 Pr192 2.436 1_565 S
O220 Pr193 2.695 . S
O220 C210 1.270 . S
O221 Pr193 2.512 . S
O221 C210 1.248 . S
O222 Pr192 2.438 . S
O222 C211 1.267 . S
O223 Pr193 2.437 . S
O223 C211 1.278 1_565 S
H224 C196 0.929 . S
H225 C197 0.929 . S
H226 C199 0.931 1_565 S
H227 C200 0.930 1_565 S
H228 C205 0.929 . S
H229 C206 0.929 . S
H230 C208 0.931 1_545 S
H231 C209 0.930 1_545 S
Pr232 C234 2.880 1_556 S
Pr232 O252 2.567 . S
Pr232 O253 2.490 . S
Pr232 O254 2.695 . S
Pr232 O255 2.512 . S
Pr232 O257 2.437 . S
Pr232 O260 2.436 . S
Pr232 O262 2.438 . S
Pr233 C243 2.880 . S
Pr233 O254 2.436 . S
Pr233 O256 2.438 . S
Pr233 O258 2.562 . S
Pr233 O259 2.490 . S
Pr233 O260 2.695 . S
Pr233 O261 2.512 . S
Pr233 O263 2.437 . S
C234 Pr232 2.880 1_554 S
C234 C235 1.491 . S
C234 O252 1.253 1_554 S
C234 O253 1.225 1_554 S
C235 C234 1.491 . S
C235 C236 1.392 . S
C235 C240 1.356 . S
C236 C235 1.392 . S
C236 C237 1.368 . S
C236 H264 0.929 . S
C237 C236 1.368 . S
C237 C238 1.386 . S
C237 H265 0.929 . S
C238 C237 1.386 . S
C238 C239 1.373 . S
C239 C238 1.373 . S
C239 C240 1.409 . S
C239 H266 0.931 . S
C240 C235 1.356 . S
C240 C239 1.409 . S
C240 H267 0.930 . S
C241 O254 1.270 . S
C241 O255 1.248 . S
C242 O256 1.267 . S
C242 O257 1.278 . S
C243 Pr233 2.880 . S
C243 C244 1.491 . S
C243 O258 1.254 . S
C243 O259 1.225 . S
C244 C243 1.491 . S
C244 C245 1.392 . S
C244 C249 1.356 . S
C245 C244 1.392 . S
C245 C246 1.368 . S
C245 H268 0.929 . S
C246 C245 1.368 . S
C246 C247 1.386 . S
C246 H269 0.929 . S
C247 C246 1.386 . S
C247 C248 1.373 . S
C248 C247 1.373 . S
C248 C249 1.409 . S
C248 H270 0.931 . S
C249 C244 1.356 . S
C249 C248 1.409 . S
C249 H271 0.930 . S
C250 O260 1.270 . S
C250 O261 1.248 . S
C251 O262 1.267 . S
C251 O263 1.278 . S
O252 Pr232 2.567 . S
O252 C234 1.253 1_556 S
O253 Pr232 2.490 . S
O253 C234 1.225 1_556 S
O254 Pr232 2.695 . S
O254 Pr233 2.436 . S
O254 C241 1.270 . S
O255 Pr232 2.512 . S
O255 C241 1.248 . S
O256 Pr233 2.438 . S
O256 C242 1.267 . S
O257 Pr232 2.437 . S
O257 C242 1.278 . S
O258 Pr233 2.562 . S
O258 C243 1.254 . S
O259 Pr233 2.490 . S
O259 C243 1.225 . S
O260 Pr232 2.436 . S
O260 Pr233 2.695 . S
O260 C250 1.270 . S
O261 Pr233 2.512 . S
O261 C250 1.248 . S
O262 Pr232 2.438 . S
O262 C251 1.267 . S
O263 Pr233 2.437 . S
O263 C251 1.278 . S
H264 C236 0.929 . S
H265 C237 0.929 . S
H266 C239 0.931 . S
H267 C240 0.930 . S
H268 C245 0.929 . S
H269 C246 0.929 . S
H270 C248 0.931 . S
H271 C249 0.930 . S
Pr272 C274 2.880 1_556 S
Pr272 O292 2.562 . S
Pr272 O293 2.490 . S
Pr272 O294 2.695 1_655 S
Pr272 O295 2.512 . S
Pr272 O297 2.437 . S
Pr272 O300 2.436 . S
Pr272 O302 2.438 1_655 S
Pr273 C283 2.880 . S
Pr273 O294 2.436 . S
Pr273 O296 2.438 1_455 S
Pr273 O298 2.562 . S
Pr273 O299 2.490 . S
Pr273 O300 2.695 1_455 S
Pr273 O301 2.512 . S
Pr273 O303 2.437 . S
C274 Pr272 2.880 1_554 S
C274 C275 1.491 . S
C274 O292 1.254 1_554 S
C274 O293 1.225 1_554 S
C275 C274 1.491 . S
C275 C276 1.392 . S
C275 C280 1.356 . S
C276 C275 1.392 . S
C276 C277 1.368 . S
C276 H304 0.929 . S
C277 C276 1.368 . S
C277 C278 1.386 . S
C277 H305 0.929 . S
C278 C277 1.386 . S
C278 C279 1.373 . S
C279 C278 1.373 . S
C279 C280 1.409 . S
C279 H306 0.931 . S
C280 C275 1.356 . S
C280 C279 1.409 . S
C280 H307 0.930 . S
C281 O294 1.259 1_655 S
C281 O295 1.268 . S
C282 O296 1.267 . S
C282 O297 1.278 . S
C283 Pr273 2.880 . S
C283 C284 1.491 . S
C283 O298 1.254 . S
C283 O299 1.225 . S
C284 C283 1.491 . S
C284 C285 1.392 . S
C284 C289 1.356 . S
C285 C284 1.392 . S
C285 C286 1.368 . S
C285 H308 0.929 . S
C286 C285 1.368 . S
C286 C287 1.386 . S
C286 H309 0.929 . S
C287 C286 1.386 . S
C287 C288 1.373 . S
C288 C287 1.373 . S
C288 C289 1.409 . S
C288 H310 0.931 . S
C289 C284 1.356 . S
C289 C288 1.409 . S
C289 H311 0.930 . S
C290 O300 1.270 1_455 S
C290 O301 1.248 . S
C291 O302 1.267 . S
C291 O303 1.278 . S
O292 Pr272 2.562 . S
O292 C274 1.254 1_556 S
O293 Pr272 2.490 . S
O293 C274 1.225 1_556 S
O294 Pr272 2.695 1_455 S
O294 Pr273 2.436 . S
O294 C281 1.259 1_455 S
O295 Pr272 2.512 . S
O295 C281 1.268 . S
O296 Pr273 2.438 1_655 S
O296 C282 1.267 . S
O297 Pr272 2.437 . S
O297 C282 1.278 . S
O298 Pr273 2.562 . S
O298 C283 1.254 . S
O299 Pr273 2.490 . S
O299 C283 1.225 . S
O300 Pr272 2.436 . S
O300 Pr273 2.695 1_655 S
O300 C290 1.270 1_655 S
O301 Pr273 2.512 . S
O301 C290 1.248 . S
O302 Pr272 2.438 1_455 S
O302 C291 1.267 . S
O303 Pr273 2.437 . S
O303 C291 1.278 . S
H304 C276 0.929 . S
H305 C277 0.929 . S
H306 C279 0.931 . S
H307 C280 0.930 . S
H308 C285 0.929 . S
H309 C286 0.929 . S
H310 C288 0.931 . S
H311 C289 0.930 . S
H312 C318 0.930 . S
H313 C321 0.930 . S
H314 C322 0.930 . S
H315 C323 0.930 . S
H316 C326 0.930 . S
H317 C327 0.930 . S
C318 H312 0.930 . S
C318 C319 1.355 1_565 S
C318 C320 1.415 . S
C319 C318 1.355 1_545 S
C319 C321 1.418 . S
C320 C318 1.415 . S
C320 C325 1.425 1_565 S
C320 C327 1.409 . S
C321 H313 0.930 . S
C321 C319 1.418 . S
C321 C322 1.362 . S
C322 H314 0.930 . S
C322 C321 1.362 . S
C322 C325 1.409 . S
C323 H315 0.930 . S
C323 C324 1.355 . S
C323 C325 1.415 . S
C324 C323 1.355 . S
C324 C326 1.419 1_545 S
C325 C320 1.425 1_545 S
C325 C322 1.409 . S
C325 C323 1.415 . S
C326 H316 0.930 . S
C326 C324 1.419 1_565 S
C326 C327 1.362 . S
C327 H317 0.930 . S
C327 C320 1.409 . S
C327 C326 1.362 . S
H328 C334 0.930 . S
H329 C337 0.930 . S
H330 C338 0.930 . S
H331 C339 0.930 . S
H332 C342 0.930 . S
H333 C343 0.930 . S
C334 H328 0.930 . S
C334 C335 1.355 . S
C334 C336 1.415 . S
C335 C334 1.355 . S
C335 C337 1.419 . S
C336 C334 1.415 . S
C336 C341 1.425 . S
C336 C343 1.409 . S
C337 H329 0.930 . S
C337 C335 1.419 . S
C337 C338 1.362 . S
C338 H330 0.930 . S
C338 C337 1.362 . S
C338 C341 1.409 . S
C339 H331 0.930 . S
C339 C340 1.355 . S
C339 C341 1.415 . S
C340 C339 1.355 . S
C340 C342 1.419 . S
C341 C336 1.425 . S
C341 C338 1.409 . S
C341 C339 1.415 . S
C342 H332 0.930 . S
C342 C340 1.419 . S
C342 C343 1.362 . S
C343 H333 0.930 . S
C343 C336 1.409 . S
C343 C342 1.362 . S
H344 C350 0.930 . S
H345 C353 0.930 . S
H346 C354 0.930 . S
H347 C355 0.930 . S
H348 C358 0.930 . S
H349 C359 0.930 . S
C350 H344 0.930 . S
C350 C351 1.355 . S
C350 C352 1.415 . S
C351 C350 1.355 . S
C351 C353 1.419 . S
C352 C350 1.415 . S
C352 C357 1.425 . S
C352 C359 1.409 . S
C353 H345 0.930 . S
C353 C351 1.419 . S
C353 C354 1.362 . S
C354 H346 0.930 . S
C354 C353 1.362 . S
C354 C357 1.409 . S
C355 H347 0.930 . S
C355 C356 1.355 . S
C355 C357 1.415 . S
C356 C355 1.355 . S
C356 C358 1.419 . S
C357 C352 1.425 . S
C357 C354 1.409 . S
C357 C355 1.415 . S
C358 H348 0.930 . S
C358 C356 1.419 . S
C358 C359 1.362 . S
C359 H349 0.930 . S
C359 C352 1.409 . S
C359 C358 1.362 . S
H360 C366 0.930 . S
H361 C369 0.930 . S
H362 C370 0.930 . S
H363 C371 0.930 . S
H364 C374 0.930 . S
H365 C375 0.930 . S
C366 H360 0.930 . S
C366 C367 1.355 1_455 S
C366 C368 1.415 . S
C367 C366 1.355 1_655 S
C367 C369 1.419 . S
C368 C366 1.415 . S
C368 C373 1.425 1_455 S
C368 C375 1.409 . S
C369 H361 0.930 . S
C369 C367 1.419 . S
C369 C370 1.362 . S
C370 H362 0.930 . S
C370 C369 1.362 . S
C370 C373 1.409 . S
C371 H363 0.930 . S
C371 C372 1.355 1_655 S
C371 C373 1.415 . S
C372 C371 1.355 1_455 S
C372 C374 1.419 . S
C373 C368 1.425 1_655 S
C373 C370 1.409 . S
C373 C371 1.415 . S
C374 H364 0.930 . S
C374 C372 1.419 . S
C374 C375 1.362 . S
C375 H365 0.930 . S
C375 C368 1.409 . S
C375 C374 1.362 . S
H376 C382 0.930 . S
H377 C385 0.930 . S
H378 C386 0.930 . S
H379 C387 0.930 . S
H380 C390 0.930 . S
H381 C391 0.930 1_556 S
C382 H376 0.930 . S
C382 C383 1.350 1_565 S
C382 C384 1.415 . S
C383 C382 1.350 1_545 S
C383 C385 1.425 . S
C384 C382 1.415 . S
C384 C389 1.425 1_565 S
C384 C391 1.409 . S
C385 H377 0.930 . S
C385 C383 1.425 . S
C385 C386 1.362 . S
C386 H378 0.930 . S
C386 C385 1.362 . S
C386 C389 1.409 . S
C387 H379 0.930 . S
C387 C388 1.355 1_544 S
C387 C389 1.415 . S
C388 C387 1.355 1_566 S
C388 C390 1.419 . S
C389 C384 1.425 1_545 S
C389 C386 1.409 . S
C389 C387 1.415 . S
C390 H380 0.930 . S
C390 C388 1.419 . S
C390 C391 1.362 1_556 S
C391 H381 0.930 1_554 S
C391 C384 1.409 . S
C391 C390 1.362 1_554 S
H392 C398 0.930 . S
H393 C401 0.930 . S
H394 C402 0.930 . S
H395 C403 0.930 . S
H396 C406 0.930 . S
H397 C407 0.930 1_556 S
C398 H392 0.930 . S
C398 C399 1.355 . S
C398 C400 1.415 . S
C399 C398 1.355 . S
C399 C401 1.419 . S
C400 C398 1.415 . S
C400 C405 1.425 . S
C400 C407 1.409 . S
C401 H393 0.930 . S
C401 C399 1.419 . S
C401 C402 1.362 . S
C402 H394 0.930 . S
C402 C401 1.362 . S
C402 C405 1.409 . S
C403 H395 0.930 . S
C403 C404 1.355 1_554 S
C403 C405 1.415 . S
C404 C403 1.355 1_556 S
C404 C406 1.419 . S
C405 C400 1.425 . S
C405 C402 1.409 . S
C405 C403 1.415 . S
C406 H396 0.930 . S
C406 C404 1.419 . S
C406 C407 1.362 1_556 S
C407 H397 0.930 1_554 S
C407 C400 1.409 . S
C407 C406 1.362 1_554 S
H408 C414 0.930 . S
H409 C417 0.930 . S
H410 C418 0.930 . S
H411 C419 0.930 . S
H412 C422 0.930 . S
H413 C423 0.930 . S
C414 H408 0.930 . S
C414 C415 1.355 . S
C414 C416 1.415 . S
C415 C414 1.355 . S
C415 C417 1.419 . S
C416 C414 1.415 . S
C416 C421 1.425 . S
C416 C423 1.409 . S
C417 H409 0.930 . S
C417 C415 1.419 . S
C417 C418 1.362 . S
C418 H410 0.930 . S
C418 C417 1.362 . S
C418 C421 1.409 . S
C419 H411 0.930 . S
C419 C420 1.355 1_554 S
C419 C421 1.415 . S
C420 C419 1.355 1_556 S
C420 C422 1.419 . S
C421 C416 1.425 . S
C421 C418 1.409 . S
C421 C419 1.415 . S
C422 H412 0.930 . S
C422 C420 1.419 . S
C422 C423 1.362 1_556 S
C423 H413 0.930 . S
C423 C416 1.409 . S
C423 C422 1.362 1_554 S
H424 C430 0.930 . S
H425 C433 0.930 . S
H426 C434 0.930 . S
H427 C435 0.930 . S
H428 C438 0.929 . S
H429 C439 0.930 1_455 S
C430 H424 0.930 . S
C430 C431 1.355 . S
C430 C432 1.415 1_455 S
C431 C430 1.355 . S
C431 C433 1.418 1_455 S
C432 C430 1.415 1_655 S
C432 C437 1.425 . S
C432 C439 1.409 . S
C433 H425 0.930 . S
C433 C431 1.418 1_655 S
C433 C434 1.362 . S
C434 H426 0.930 . S
C434 C433 1.362 . S
C434 C437 1.409 . S
C435 H427 0.930 . S
C435 C436 1.355 . S
C435 C437 1.415 1_556 S
C436 C435 1.355 . S
C436 C438 1.421 1_556 S
C437 C432 1.425 . S
C437 C434 1.409 . S
C437 C435 1.415 1_554 S
C438 H428 0.929 . S
C438 C436 1.421 1_554 S
C438 C439 1.362 . S
C439 H429 0.930 1_655 S
C439 C432 1.409 . S
C439 C438 1.362 . S
H440 C446 0.930 . S
H441 C449 0.930 1_556 S
H442 C450 0.930 . S
H443 C451 0.930 . S
H444 C454 0.930 . S
H445 C455 0.930 . S
C446 H440 0.930 . S
C446 C447 1.355 1_655 S
C446 C448 1.415 . S
C447 C446 1.355 1_455 S
C447 C449 1.419 . S
C448 C446 1.415 . S
C448 C453 1.425 . S
C448 C455 1.409 . S
C449 H441 0.930 1_554 S
C449 C447 1.419 . S
C449 C450 1.362 . S
C450 H442 0.930 . S
C450 C449 1.362 . S
C450 C453 1.409 1_455 S
C451 H443 0.930 . S
C451 C452 1.355 . S
C451 C453 1.415 . S
C452 C451 1.355 . S
C452 C454 1.419 . S
C453 C448 1.425 . S
C453 C450 1.409 1_655 S
C453 C451 1.415 . S
C454 H444 0.930 . S
C454 C452 1.419 . S
C454 C455 1.362 . S
C455 H445 0.930 . S
C455 C448 1.409 . S
C455 C454 1.362 . S
H456 C462 0.930 . S
H457 C465 0.930 . S
H458 C466 0.930 . S
H459 C467 0.930 . S
H460 C470 0.930 . S
H461 C471 0.930 . S
C462 H456 0.930 . S
C462 C463 1.335 1_565 S
C462 C464 1.415 . S
C463 C462 1.335 1_545 S
C463 C465 1.425 . S
C464 C462 1.415 . S
C464 C469 1.425 . S
C464 C471 1.409 . S
C465 H457 0.930 . S
C465 C463 1.425 . S
C465 C466 1.362 1_545 S
C466 H458 0.930 . S
C466 C465 1.362 1_565 S
C466 C469 1.409 . S
C467 H459 0.930 . S
C467 C468 1.355 . S
C467 C469 1.415 . S
C468 C467 1.355 . S
C468 C470 1.419 . S
C469 C464 1.425 . S
C469 C466 1.409 . S
C469 C467 1.415 . S
C470 H460 0.930 . S
C470 C468 1.419 . S
C470 C471 1.362 . S
C471 H461 0.930 . S
C471 C464 1.409 . S
C471 C470 1.362 . S
H472 C478 0.930 . S
H473 C481 0.930 . S
H474 C482 0.930 . S
H475 C483 0.930 . S
H476 C486 0.930 . S
H477 C487 0.930 . S
C478 H472 0.930 . S
C478 C479 1.355 . S
C478 C480 1.415 . S
C479 C478 1.355 . S
C479 C481 1.419 . S
C480 C478 1.415 . S
C480 C485 1.425 . S
C480 C487 1.409 . S
C481 H473 0.930 . S
C481 C479 1.419 . S
C481 C482 1.362 . S
C482 H474 0.930 . S
C482 C481 1.362 . S
C482 C485 1.409 . S
C483 H475 0.930 . S
C483 C484 1.355 . S
C483 C485 1.415 . S
C484 C483 1.355 . S
C484 C486 1.419 . S
C485 C480 1.425 . S
C485 C482 1.409 . S
C485 C483 1.415 . S
C486 H476 0.930 . S
C486 C484 1.419 . S
C486 C487 1.362 . S
C487 H477 0.930 . S
C487 C480 1.409 . S
C487 C486 1.362 . S
H488 C494 0.930 . S
H489 C497 0.930 . S
H490 C498 0.930 . S
H491 C499 0.930 . S
H492 C502 0.930 . S
H493 C503 0.930 . S
C494 H488 0.930 . S
C494 C495 1.355 . S
C494 C496 1.415 . S
C495 C494 1.355 . S
C495 C497 1.419 . S
C496 C494 1.415 . S
C496 C501 1.425 . S
C496 C503 1.409 . S
C497 H489 0.930 . S
C497 C495 1.419 . S
C497 C498 1.362 . S
C498 H490 0.930 . S
C498 C497 1.362 . S
C498 C501 1.409 . S
C499 H491 0.930 . S
C499 C500 1.355 . S
C499 C501 1.415 . S
C500 C499 1.355 . S
C500 C502 1.419 . S
C501 C496 1.425 . S
C501 C498 1.409 . S
C501 C499 1.415 . S
C502 H492 0.930 . S
C502 C500 1.419 . S
C502 C503 1.362 . S
C503 H493 0.930 . S
C503 C496 1.409 . S
C503 C502 1.362 . S
H504 C510 0.930 . S
H505 C513 0.930 . S
H506 C514 0.930 . S
H507 C515 0.930 . S
H508 C518 0.930 . S
H509 C519 0.930 . S
C510 H504 0.930 . S
C510 C511 1.355 1_455 S
C510 C512 1.415 . S
C511 C510 1.355 1_655 S
C511 C513 1.419 . S
C512 C510 1.415 . S
C512 C517 1.425 . S
C512 C519 1.409 . S
C513 H505 0.930 . S
C513 C511 1.419 . S
C513 C514 1.362 . S
C514 H506 0.930 . S
C514 C513 1.362 . S
C514 C517 1.409 1_655 S
C515 H507 0.930 . S
C515 C516 1.355 . S
C515 C517 1.415 . S
C516 C515 1.355 . S
C516 C518 1.419 . S
C517 C512 1.425 . S
C517 C514 1.409 1_455 S
C517 C515 1.415 . S
C518 H508 0.930 . S
C518 C516 1.419 . S
C518 C519 1.362 . S
C519 H509 0.930 . S
C519 C512 1.409 . S
C519 C518 1.362 . S
H520 C526 0.930 . S
H521 C529 0.930 . S
H522 C530 0.930 . S
H523 C531 0.930 . S
H524 C534 0.930 . S
H525 C535 0.930 1_565 S
C526 H520 0.930 . S
C526 C527 1.352 1_565 S
C526 C528 1.415 1_565 S
C527 C526 1.352 1_545 S
C527 C529 1.440 . S
C528 C526 1.415 1_545 S
C528 C533 1.425 . S
C528 C535 1.409 . S
C529 H521 0.930 . S
C529 C527 1.440 . S
C529 C530 1.362 . S
C530 H522 0.930 . S
C530 C529 1.362 . S
C530 C533 1.409 . S
C531 H523 0.930 . S
C531 C532 1.355 . S
C531 C533 1.415 . S
C532 C531 1.355 . S
C532 C534 1.419 . S
C533 C528 1.425 . S
C533 C530 1.409 . S
C533 C531 1.415 . S
C534 H524 0.930 . S
C534 C532 1.419 . S
C534 C535 1.362 . S
C535 H525 0.930 1_545 S
C535 C528 1.409 . S
C535 C534 1.362 . S
H536 C542 0.930 . S
H537 C545 0.930 . S
H538 C546 0.930 . S
H539 C547 0.930 . S
H540 C550 0.930 . S
H541 C551 0.930 . S
C542 H536 0.930 . S
C542 C543 1.355 . S
C542 C544 1.415 . S
C543 C542 1.355 . S
C543 C545 1.419 . S
C544 C542 1.415 . S
C544 C549 1.425 . S
C544 C551 1.409 . S
C545 H537 0.930 . S
C545 C543 1.419 . S
C545 C546 1.362 . S
C546 H538 0.930 . S
C546 C545 1.362 . S
C546 C549 1.409 . S
C547 H539 0.930 . S
C547 C548 1.355 . S
C547 C549 1.415 . S
C548 C547 1.355 . S
C548 C550 1.419 . S
C549 C544 1.425 . S
C549 C546 1.409 . S
C549 C547 1.415 . S
C550 H540 0.930 . S
C550 C548 1.419 . S
C550 C551 1.362 . S
C551 H541 0.930 . S
C551 C544 1.409 . S
C551 C550 1.362 . S
H552 C558 0.930 . S
H553 C561 0.930 . S
H554 C562 0.930 . S
H555 C563 0.930 . S
H556 C566 0.930 . S
H557 C567 0.930 . S
C558 H552 0.930 . S
C558 C559 1.355 . S
C558 C560 1.415 . S
C559 C558 1.355 . S
C559 C561 1.419 . S
C560 C558 1.415 . S
C560 C565 1.425 . S
C560 C567 1.409 . S
C561 H553 0.930 . S
C561 C559 1.419 . S
C561 C562 1.362 . S
C562 H554 0.930 . S
C562 C561 1.362 . S
C562 C565 1.409 . S
C563 H555 0.930 . S
C563 C564 1.355 . S
C563 C565 1.415 . S
C564 C563 1.355 . S
C564 C566 1.419 . S
C565 C560 1.425 . S
C565 C562 1.409 . S
C565 C563 1.415 . S
C566 H556 0.930 . S
C566 C564 1.419 . S
C566 C567 1.362 . S
C567 H557 0.930 . S
C567 C560 1.409 . S
C567 C566 1.362 . S
H568 C574 0.930 . S
H569 C577 0.930 . S
H570 C578 0.930 . S
H571 C579 0.930 . S
H572 C582 0.930 . S
H573 C583 0.930 . S
C574 H568 0.930 . S
C574 C575 1.354 . S
C574 C576 1.415 . S
C575 C574 1.354 . S
C575 C577 1.420 1_455 S
C576 C574 1.415 . S
C576 C581 1.425 1_455 S
C576 C583 1.409 . S
C577 H569 0.930 . S
C577 C575 1.420 1_655 S
C577 C578 1.362 . S
C578 H570 0.930 . S
C578 C577 1.362 . S
C578 C581 1.409 . S
C579 H571 0.930 . S
C579 C580 1.355 1_655 S
C579 C581 1.415 . S
C580 C579 1.355 1_455 S
C580 C582 1.419 . S
C581 C576 1.425 1_655 S
C581 C578 1.409 . S
C581 C579 1.415 . S
C582 H572 0.930 . S
C582 C580 1.419 . S
C582 C583 1.362 . S
C583 H573 0.930 . S
C583 C576 1.409 . S
C583 C582 1.362 . S
H584 C590 0.930 . S
H585 C593 0.930 . S
H586 C594 0.930 . S
H587 C595 0.930 . S
H588 C598 0.930 . S
H589 C599 0.930 . S
C590 H584 0.930 . S
C590 C591 1.355 1_565 S
C590 C592 1.415 . S
C591 C590 1.355 1_545 S
C591 C593 1.419 . S
C592 C590 1.415 . S
C592 C597 1.425 1_565 S
C592 C599 1.409 . S
C593 H585 0.930 . S
C593 C591 1.419 . S
C593 C594 1.362 . S
C594 H586 0.930 . S
C594 C593 1.362 . S
C594 C597 1.409 . S
C595 H587 0.930 . S
C595 C596 1.355 . S
C595 C597 1.415 . S
C596 C595 1.355 . S
C596 C598 1.419 1_545 S
C597 C592 1.425 1_545 S
C597 C594 1.409 . S
C597 C595 1.415 . S
C598 H588 0.930 . S
C598 C596 1.419 1_565 S
C598 C599 1.362 . S
C599 H589 0.930 . S
C599 C592 1.409 . S
C599 C598 1.362 . S
H600 C606 0.930 . S
H601 C609 0.930 . S
H602 C610 0.930 . S
H603 C611 0.930 . S
H604 C614 0.930 . S
H605 C615 0.930 . S
C606 H600 0.930 . S
C606 C607 1.355 . S
C606 C608 1.415 . S
C607 C606 1.355 . S
C607 C609 1.419 . S
C608 C606 1.415 . S
C608 C613 1.425 . S
C608 C615 1.409 . S
C609 H601 0.930 . S
C609 C607 1.419 . S
C609 C610 1.362 . S
C610 H602 0.930 . S
C610 C609 1.362 . S
C610 C613 1.409 . S
C611 H603 0.930 . S
C611 C612 1.355 . S
C611 C613 1.415 . S
C612 C611 1.355 . S
C612 C614 1.419 . S
C613 C608 1.425 . S
C613 C610 1.409 . S
C613 C611 1.415 . S
C614 H604 0.930 . S
C614 C612 1.419 . S
C614 C615 1.362 . S
C615 H605 0.930 . S
C615 C608 1.409 . S
C615 C614 1.362 . S
H616 C622 0.930 . S
H617 C625 0.930 . S
H618 C626 0.930 . S
H619 C627 0.930 . S
H620 C630 0.930 . S
H621 C631 0.930 . S
C622 H616 0.930 . S
C622 C623 1.355 . S
C622 C624 1.415 . S
C623 C622 1.355 . S
C623 C625 1.419 . S
C624 C622 1.415 . S
C624 C629 1.425 . S
C624 C631 1.409 . S
C625 H617 0.930 . S
C625 C623 1.419 . S
C625 C626 1.362 . S
C626 H618 0.930 . S
C626 C625 1.362 . S
C626 C629 1.409 . S
C627 H619 0.930 . S
C627 C628 1.355 . S
C627 C629 1.415 . S
C628 C627 1.355 . S
C628 C630 1.419 . S
C629 C624 1.425 . S
C629 C626 1.409 . S
C629 C627 1.415 . S
C630 H620 0.930 . S
C630 C628 1.419 . S
C630 C631 1.362 . S
C631 H621 0.930 . S
C631 C624 1.409 . S
C631 C630 1.362 . S
H632 C638 0.930 . S
H633 C641 0.930 . S
H634 C642 0.930 . S
H635 C643 0.913 1_455 S
H636 C646 0.930 . S
H637 C647 0.930 . S
C638 H632 0.930 . S
C638 C639 1.355 . S
C638 C640 1.415 . S
C639 C638 1.355 . S
C639 C641 1.419 1_655 S
C640 C638 1.415 . S
C640 C645 1.425 . S
C640 C647 1.409 . S
C641 H633 0.930 . S
C641 C639 1.419 1_455 S
C641 C642 1.362 . S
C642 H634 0.930 . S
C642 C641 1.362 . S
C642 C645 1.409 1_455 S
C643 H635 0.913 1_655 S
C643 C644 1.371 . S
C643 C645 1.416 . S
C644 C643 1.371 . S
C644 C646 1.419 . S
C645 C640 1.425 . S
C645 C642 1.409 1_655 S
C645 C643 1.416 . S
C646 H636 0.930 . S
C646 C644 1.419 . S
C646 C647 1.362 . S
C647 H637 0.930 . S
C647 C640 1.409 . S
C647 C646 1.362 . S
H648 C654 0.930 . S
H649 C657 0.930 . S
H650 C658 0.930 . S
H651 C659 0.930 . S
H652 C662 0.930 . S
H653 C663 0.930 . S
C654 H648 0.930 . S
C654 C655 1.355 1_545 S
C654 C656 1.415 . S
C655 C654 1.355 1_565 S
C655 C657 1.419 . S
C656 C654 1.415 . S
C656 C661 1.425 1_545 S
C656 C663 1.409 . S
C657 H649 0.930 . S
C657 C655 1.419 . S
C657 C658 1.362 . S
C658 H650 0.930 . S
C658 C657 1.362 . S
C658 C661 1.409 . S
C659 H651 0.930 . S
C659 C660 1.355 . S
C659 C661 1.415 . S
C660 C659 1.355 . S
C660 C662 1.419 1_565 S
C661 C656 1.425 1_565 S
C661 C658 1.409 . S
C661 C659 1.415 . S
C662 H652 0.930 . S
C662 C660 1.419 1_545 S
C662 C663 1.362 . S
C663 H653 0.930 . S
C663 C656 1.409 . S
C663 C662 1.362 . S
H664 C670 0.930 . S
H665 C673 0.930 . S
H666 C674 0.930 . S
H667 C675 0.930 . S
H668 C678 0.930 . S
H669 C679 0.930 . S
C670 H664 0.930 . S
C670 C671 1.355 . S
C670 C672 1.415 . S
C671 C670 1.355 . S
C671 C673 1.419 . S
C672 C670 1.415 . S
C672 C677 1.425 . S
C672 C679 1.409 . S
C673 H665 0.930 . S
C673 C671 1.419 . S
C673 C674 1.362 . S
C674 H666 0.930 . S
C674 C673 1.362 . S
C674 C677 1.409 . S
C675 H667 0.930 . S
C675 C676 1.355 . S
C675 C677 1.415 . S
C676 C675 1.355 . S
C676 C678 1.419 . S
C677 C672 1.425 . S
C677 C674 1.409 . S
C677 C675 1.415 . S
C678 H668 0.930 . S
C678 C676 1.419 . S
C678 C679 1.362 . S
C679 H669 0.930 . S
C679 C672 1.409 . S
C679 C678 1.362 . S
H680 C686 0.930 . S
H681 C689 0.930 . S
H682 C690 0.930 . S
H683 C691 0.930 . S
H684 C694 0.930 . S
H685 C695 0.930 . S
C686 H680 0.930 . S
C686 C687 1.355 . S
C686 C688 1.415 . S
C687 C686 1.355 . S
C687 C689 1.419 . S
C688 C686 1.415 . S
C688 C693 1.425 . S
C688 C695 1.409 . S
C689 H681 0.930 . S
C689 C687 1.419 . S
C689 C690 1.362 . S
C690 H682 0.930 . S
C690 C689 1.362 . S
C690 C693 1.409 . S
C691 H683 0.930 . S
C691 C692 1.355 . S
C691 C693 1.415 . S
C692 C691 1.355 . S
C692 C694 1.419 . S
C693 C688 1.425 . S
C693 C690 1.409 . S
C693 C691 1.415 . S
C694 H684 0.930 . S
C694 C692 1.419 . S
C694 C695 1.362 . S
C695 H685 0.930 . S
C695 C688 1.409 . S
C695 C694 1.362 . S
C319 C125 1.972 1_545 S
C324 C161 2.010 1_545 S
C340 C201 2.034 . S
C335 C144 1.963 . S
C356 C241 2.033 . S
C351 C87 1.993 . S
C372 C281 2.026 1_455 S
C367 C106 1.964 . S
C388 C170 2.014 1_565 S
C383 C49 1.977 1_545 S
C399 C68 1.975 . S
C404 C210 2.024 . S
C415 C11 1.952 . S
C420 C250 2.018 . S
C431 C30 1.977 1_455 S
C436 C290 2.028 1_655 S
C452 C167 0.687 . S
C447 C97 0.635 1_455 S
C468 C207 0.665 . S
C463 C116 0.741 1_545 S
C484 C247 0.583 . S
C479 C135 0.654 . S
C495 C78 0.714 . S
C500 C287 0.624 . S
C511 C21 0.740 . S
C516 C158 0.719 . S
C532 C198 0.570 . S
C527 C40 0.559 1_545 S
C548 C238 0.576 . S
C543 C59 0.643 . S
C559 C2 0.653 . S
C564 C278 0.580 . S
C575 C101 2.152 1_455 S
C580 C171 2.406 . S
C591 C120 2.135 1_545 S
C596 C211 2.360 . S
C612 C251 2.351 . S
C607 C139 2.079 . S
C628 C291 2.403 . S
C623 C82 2.138 . S
C639 C25 2.097 . S
C644 C162 2.397 . S
C660 C202 2.358 . S
C655 C44 2.125 . S
C676 C242 2.381 . S
C671 C63 2.139 . S
C687 C6 2.119 . S
C692 C282 2.373 . S
