# Generated by pormake.
# Topology pto, (3,4)-cn, num edge types: 1
# Building blocks:
#     Node 0, Type 0, BuildingBlock: ESEHIV_clean_linker_0, # of connection points: 3
#     Node 1, Type 0, BuildingBlock: ESEHIV_clean_linker_0, # of connection points: 3
#     Node 2, Type 0, BuildingBlock: ESEHIV_clean_linker_0, # of connection points: 3
#     Node 3, Type 0, BuildingBlock: ESEHIV_clean_linker_0, # of connection points: 3
#     Node 4, Type 0, BuildingBlock: ESEHIV_clean_linker_0, # of connection points: 3
#     Node 5, Type 0, BuildingBlock: ESEHIV_clean_linker_0, # of connection points: 3
#     Node 6, Type 0, BuildingBlock: ESEHIV_clean_linker_0, # of connection points: 3
#     Node 7, Type 0, BuildingBlock: ESEHIV_clean_linker_0, # of connection points: 3
#     Node 8, Type 1, BuildingBlock: KOZSID_clean_sbu_0, # of connection points: 4
#     Node 9, Type 1, BuildingBlock: KOZSID_clean_sbu_0, # of connection points: 4
#     Node 10, Type 1, BuildingBlock: KOZSID_clean_sbu_0, # of connection points: 4
#     Node 11, Type 1, BuildingBlock: KOZSID_clean_sbu_0, # of connection points: 4
#     Node 12, Type 1, BuildingBlock: KOZSID_clean_sbu_0, # of connection points: 4
#     Node 13, Type 1, BuildingBlock: KOZSID_clean_sbu_0, # of connection points: 4
#     Edge 14, Type (0, 1), BuildingBlock: EYOCIG_clean_linker_4, # of connection points: 2
#     Edge 15, Type (0, 1), BuildingBlock: EYOCIG_clean_linker_4, # of connection points: 2
#     Edge 16, Type (0, 1), BuildingBlock: EYOCIG_clean_linker_4, # of connection points: 2
#     Edge 17, Type (0, 1), BuildingBlock: EYOCIG_clean_linker_4, # of connection points: 2
#     Edge 18, Type (0, 1), BuildingBlock: EYOCIG_clean_linker_4, # of connection points: 2
#     Edge 19, Type (0, 1), BuildingBlock: EYOCIG_clean_linker_4, # of connection points: 2
#     Edge 20, Type (0, 1), BuildingBlock: EYOCIG_clean_linker_4, # of connection points: 2
#     Edge 21, Type (0, 1), BuildingBlock: EYOCIG_clean_linker_4, # of connection points: 2
#     Edge 22, Type (0, 1), BuildingBlock: EYOCIG_clean_linker_4, # of connection points: 2
#     Edge 23, Type (0, 1), BuildingBlock: EYOCIG_clean_linker_4, # of connection points: 2
#     Edge 24, Type (0, 1), BuildingBlock: EYOCIG_clean_linker_4, # of connection points: 2
#     Edge 25, Type (0, 1), BuildingBlock: EYOCIG_clean_linker_4, # of connection points: 2
#     Edge 26, Type (0, 1), BuildingBlock: EYOCIG_clean_linker_4, # of connection points: 2
#     Edge 27, Type (0, 1), BuildingBlock: EYOCIG_clean_linker_4, # of connection points: 2
#     Edge 28, Type (0, 1), BuildingBlock: EYOCIG_clean_linker_4, # of connection points: 2
#     Edge 29, Type (0, 1), BuildingBlock: EYOCIG_clean_linker_4, # of connection points: 2
#     Edge 30, Type (0, 1), BuildingBlock: EYOCIG_clean_linker_4, # of connection points: 2
#     Edge 31, Type (0, 1), BuildingBlock: EYOCIG_clean_linker_4, # of connection points: 2
#     Edge 32, Type (0, 1), BuildingBlock: EYOCIG_clean_linker_4, # of connection points: 2
#     Edge 33, Type (0, 1), BuildingBlock: EYOCIG_clean_linker_4, # of connection points: 2
#     Edge 34, Type (0, 1), BuildingBlock: EYOCIG_clean_linker_4, # of connection points: 2
#     Edge 35, Type (0, 1), BuildingBlock: EYOCIG_clean_linker_4, # of connection points: 2
#     Edge 36, Type (0, 1), BuildingBlock: EYOCIG_clean_linker_4, # of connection points: 2
#     Edge 37, Type (0, 1), BuildingBlock: EYOCIG_clean_linker_4, # of connection points: 2
# Relax obj value: 0.000
# Max RMSD: 0.036
# Mean RMSD: 0.016
data_MOF--net-pto--node1-KOZSID_clean_sbu_0--node2-ESEHIV_clean_linker_0--edge1-EYOCIG_clean_linker_4
_symmetry_space_group_name_H-M    P1
_symmetry_Int_Tables_number       1
_symmetry_cell_setting            triclinic
loop_
_symmetry_equiv_pos_as_xyz
'x, y, z'
_cell_length_a     29.045946
_cell_length_b     39.093379
_cell_length_c     34.048142
_cell_angle_alpha  87.410075
_cell_angle_beta   86.421437
_cell_angle_gamma 93.378183
loop_
_atom_site_label
_atom_site_type_symbol
_atom_site_fract_x
_atom_site_fract_y
_atom_site_fract_z
_atom_type_partial_charge
H0 H 0.30638 0.3137 0.28948 0.0
H1 H 0.3324 0.20901 0.32165 0.0
H2 H 0.23399 0.26226 0.39174 0.0
C3 C 0.30021 0.2912 0.30936 0.0
C4 C 0.26801 0.29154 0.34189 0.0
C5 C 0.32364 0.26142 0.30208 0.0
C6 C 0.31491 0.23221 0.32748 0.0
C7 C 0.28246 0.23256 0.35964 0.0
C8 C 0.2594 0.26223 0.36697 0.0
H9 H 0.27127 0.72642 0.78588 0.0
H10 H 0.30257 0.83345 0.75309 0.0
H11 H 0.2089 0.77316 0.68705 0.0
C12 C 0.26729 0.74866 0.76646 0.0
C13 C 0.23787 0.74616 0.73536 0.0
C14 C 0.29079 0.78018 0.77287 0.0
C15 C 0.28488 0.80897 0.74802 0.0
C16 C 0.25529 0.80636 0.7172 0.0
C17 C 0.23209 0.77499 0.71078 0.0
H18 H 0.74036 0.8269 0.31542 0.0
H19 H 0.83379 0.7718 0.38434 0.0
H20 H 0.77338 0.7247 0.28609 0.0
C21 C 0.75841 0.80389 0.32135 0.0
C22 C 0.75321 0.77593 0.29718 0.0
C23 C 0.78746 0.80246 0.35274 0.0
C24 C 0.81111 0.77282 0.36022 0.0
C25 C 0.8061 0.74466 0.33635 0.0
C26 C 0.77703 0.74627 0.30484 0.0
H27 H 0.74122 0.23203 0.78737 0.0
H28 H 0.84009 0.29447 0.71191 0.0
H29 H 0.77442 0.33705 0.81397 0.0
C30 C 0.76005 0.25653 0.78009 0.0
C31 C 0.75393 0.28412 0.8044 0.0
C32 C 0.79118 0.2603 0.74686 0.0
C33 C 0.81579 0.29172 0.73757 0.0
C34 C 0.80971 0.31945 0.76153 0.0
C35 C 0.77876 0.31571 0.79507 0.0
H36 H 0.7264 0.8401 0.76653 0.0
H37 H 0.75516 0.73618 0.7997 0.0
H38 H 0.82366 0.78686 0.69524 0.0
C39 C 0.74418 0.81702 0.76073 0.0
C40 C 0.77564 0.81653 0.72791 0.0
C41 C 0.73669 0.7881 0.78671 0.0
C42 C 0.76042 0.75847 0.77942 0.0
C43 C 0.79167 0.75798 0.74624 0.0
C44 C 0.79903 0.787 0.72055 0.0
H45 H 0.75256 0.21928 0.33494 0.0
H46 H 0.79138 0.32512 0.30105 0.0
H47 H 0.84964 0.27647 0.40088 0.0
C48 C 0.77188 0.24316 0.33981 0.0
C49 C 0.80132 0.24483 0.37078 0.0
C50 C 0.7682 0.27205 0.31457 0.0
C51 C 0.79374 0.30278 0.32073 0.0
C52 C 0.82298 0.30435 0.35204 0.0
C53 C 0.82662 0.27538 0.37698 0.0
H54 H 0.22514 0.2787 0.7035 0.0
H55 H 0.31726 0.2222 0.77233 0.0
H56 H 0.28782 0.32527 0.80101 0.0
C57 C 0.24803 0.27741 0.72746 0.0
C58 C 0.25413 0.30561 0.75109 0.0
C59 C 0.2707 0.24733 0.73504 0.0
C60 C 0.29998 0.24555 0.76628 0.0
C61 C 0.3063 0.27359 0.7902 0.0
C62 C 0.2834 0.30366 0.78242 0.0
H63 H 0.21824 0.75679 0.37566 0.0
H64 H 0.28596 0.71423 0.27456 0.0
H65 H 0.31733 0.8196 0.3008 0.0
C66 C 0.24296 0.75959 0.35029 0.0
C67 C 0.2672 0.79115 0.34102 0.0
C68 C 0.24976 0.73182 0.32656 0.0
C69 C 0.28115 0.7356 0.29332 0.0
C70 C 0.30568 0.76732 0.28403 0.0
C71 C 0.29883 0.79499 0.30811 0.0
C72 C 0.0982 0.57271 0.40669 0.0
C73 C 0.10887 0.58615 0.44227 0.0
C74 C 0.08495 0.56579 0.47118 0.0
C75 C 0.06112 0.54119 0.45168 0.0
N76 N 0.06849 0.5445 0.41204 0.0
Co77 Co 0.03667 0.51693 0.37223 0.0
N78 N 0.99746 0.48947 0.41468 0.0
C79 C 0.99764 0.49303 0.45402 0.0
C80 C 0.96936 0.46903 0.4759 0.0
C81 C 0.95035 0.44859 0.44895 0.0
C82 C 0.96828 0.46141 0.41209 0.0
N83 N 0.00528 0.48924 0.33235 0.0
C84 C 0.97625 0.46074 0.33768 0.0
C85 C 0.96627 0.44695 0.30206 0.0
C86 C 0.99005 0.46729 0.27322 0.0
C87 C 0.01311 0.49222 0.2927 0.0
N88 N 0.07558 0.54448 0.3297 0.0
C89 C 0.0751 0.54117 0.2903 0.0
C90 C 0.10446 0.56437 0.26844 0.0
C91 C 0.12434 0.58423 0.29537 0.0
C92 C 0.10583 0.57185 0.33228 0.0
N93 N 0.08398 0.482 0.37451 0.0
C94 C 0.1402 0.42575 0.3743 0.0
C95 C 0.13452 0.44478 0.33976 0.0
C96 C 0.1066 0.47254 0.34049 0.0
C97 C 0.11917 0.43587 0.4095 0.0
C98 C 0.0919 0.46437 0.40904 0.0
N99 N 0.98928 0.55182 0.36965 0.0
C100 C 0.95161 0.59456 0.33147 0.0
C101 C 0.93157 0.6073 0.36555 0.0
C102 C 0.93927 0.59123 0.40175 0.0
C103 C 0.9682 0.56372 0.40316 0.0
C104 C 0.97937 0.56662 0.33411 0.0
H105 H 0.9736 0.55291 0.43168 0.0
H106 H 0.99282 0.55772 0.30692 0.0
H107 H 0.10316 0.48529 0.3128 0.0
H108 H 0.07706 0.47136 0.43679 0.0
C109 C 0.0281 0.51706 0.4695 0.0
C110 C 0.11626 0.58805 0.36858 0.0
C111 C 0.95837 0.44518 0.37566 0.0
C112 C 0.04557 0.51661 0.27474 0.0
H113 H 0.1308 0.60881 0.44676 0.0
H114 H 0.08362 0.56932 0.50258 0.0
H115 H 0.96461 0.46592 0.50768 0.0
H116 H 0.92707 0.42615 0.45567 0.0
H117 H 0.94502 0.42398 0.29743 0.0
H118 H 0.99182 0.46354 0.24187 0.0
H119 H 0.10993 0.56704 0.23668 0.0
H120 H 0.14887 0.60591 0.28851 0.0
H121 H 0.15093 0.43792 0.31198 0.0
H122 H 0.12345 0.42182 0.43707 0.0
H123 H 0.946 0.60616 0.30279 0.0
H124 H 0.92367 0.60012 0.42888 0.0
C125 C 0.08513 0.58958 0.74971 0.0
C126 C 0.09496 0.60349 0.7853 0.0
C127 C 0.07083 0.58336 0.81414 0.0
C128 C 0.0477 0.55846 0.79468 0.0
N129 N 0.05574 0.56128 0.75505 0.0
Co130 Co 0.02433 0.53354 0.71521 0.0
N131 N 0.98551 0.50595 0.75777 0.0
C132 C 0.98611 0.50922 0.79717 0.0
C133 C 0.95672 0.48607 0.81907 0.0
C134 C 0.93662 0.46632 0.79216 0.0
C135 C 0.95503 0.47871 0.75522 0.0
N136 N 0.99247 0.50594 0.67543 0.0
C137 C 0.96242 0.47792 0.68079 0.0
C138 C 0.95159 0.46455 0.64521 0.0
C139 C 0.9757 0.48478 0.6163 0.0
C140 C 0.99977 0.50926 0.63579 0.0
N141 N 0.06348 0.56101 0.67272 0.0
C142 C 0.06314 0.5575 0.63337 0.0
C143 C 0.09162 0.58136 0.61147 0.0
C144 C 0.11105 0.60159 0.63841 0.0
C145 C 0.09316 0.5888 0.67529 0.0
N146 N 0.07181 0.49876 0.71775 0.0
C147 C 0.12988 0.44353 0.72187 0.0
C148 C 0.12192 0.45944 0.68565 0.0
C149 C 0.09281 0.48683 0.68423 0.0
C150 C 0.10991 0.4563 0.75596 0.0
C151 C 0.08197 0.48413 0.75331 0.0
N152 N 0.9769 0.56838 0.71296 0.0
C153 C 0.94127 0.6143 0.678 0.0
C154 C 0.9201 0.62428 0.7132 0.0
C155 C 0.92594 0.60529 0.74772 0.0
C156 C 0.95414 0.5777 0.74698 0.0
C157 C 0.96886 0.58597 0.67844 0.0
H158 H 0.95763 0.56495 0.77465 0.0
H159 H 0.9838 0.57909 0.65069 0.0
H160 H 0.08721 0.49753 0.6557 0.0
H161 H 0.06859 0.49309 0.78048 0.0
C162 C 0.01543 0.53395 0.81269 0.0
C163 C 0.10381 0.60472 0.71175 0.0
C164 C 0.94406 0.46274 0.7189 0.0
C165 C 0.03269 0.53344 0.61793 0.0
H166 H 0.11649 0.62632 0.78991 0.0
H167 H 0.06904 0.58716 0.84548 0.0
H168 H 0.95124 0.48345 0.85082 0.0
H169 H 0.91189 0.44476 0.79904 0.0
H170 H 0.92936 0.44204 0.64073 0.0
H171 H 0.97688 0.48132 0.58489 0.0
H172 H 0.09639 0.58444 0.57969 0.0
H173 H 0.13471 0.62382 0.63167 0.0
H174 H 0.13745 0.4505 0.65852 0.0
H175 H 0.11572 0.44482 0.78466 0.0
H176 H 0.93687 0.62833 0.65044 0.0
H177 H 0.90943 0.61205 0.77551 0.0
C178 C 0.27314 0.9624 0.58862 0.0
C179 C 0.31498 0.94917 0.59698 0.0
C180 C 0.34873 0.96976 0.5768 0.0
C181 C 0.32574 0.99427 0.55735 0.0
N182 N 0.27924 0.99084 0.56418 0.0
Co183 Co 0.23219 0.01771 0.53781 0.0
N184 N 0.28188 0.04551 0.50464 0.0
C185 C 0.32815 0.04275 0.50474 0.0
C186 C 0.35353 0.06606 0.47971 0.0
C187 C 0.32171 0.08547 0.4632 0.0
C188 C 0.27858 0.07272 0.47924 0.0
N189 N 0.18519 0.04443 0.51108 0.0
C190 C 0.19131 0.07261 0.48615 0.0
C191 C 0.1495 0.08544 0.47711 0.0
C192 C 0.11568 0.06472 0.49725 0.0
C193 C 0.13869 0.04054 0.51733 0.0
N194 N 0.18257 0.99003 0.57126 0.0
C195 C 0.13638 0.99305 0.5714 0.0
C196 C 0.11093 0.96892 0.59545 0.0
C197 C 0.14272 0.94893 0.61125 0.0
C198 C 0.18583 0.96213 0.59578 0.0
N199 N 0.23533 0.05287 0.57825 0.0
C200 C 0.24016 0.10934 0.62656 0.0
C201 C 0.19767 0.09273 0.62026 0.0
C202 C 0.19602 0.06469 0.59604 0.0
C203 C 0.28018 0.09658 0.60993 0.0
C204 C 0.27707 0.0681 0.58669 0.0
N205 N 0.22936 0.98255 0.49739 0.0
C206 C 0.18822 0.93549 0.46797 0.0
C207 C 0.2295 0.92551 0.45023 0.0
C208 C 0.27001 0.94517 0.45449 0.0
C209 C 0.2692 0.97336 0.47795 0.0
C210 C 0.18881 0.96444 0.49084 0.0
H211 H 0.30165 0.98659 0.48059 0.0
H212 H 0.15629 0.9713 0.50346 0.0
H213 H 0.16256 0.05347 0.59153 0.0
H214 H 0.30893 0.0592 0.57542 0.0
C215 C 0.34668 0.01863 0.52969 0.0
C216 C 0.22863 0.94627 0.60344 0.0
C217 C 0.23593 0.08866 0.47141 0.0
C218 C 0.11793 0.01652 0.54552 0.0
H219 H 0.3205 0.92636 0.61487 0.0
H220 H 0.38551 0.9664 0.57515 0.0
H221 H 0.39076 0.06915 0.47484 0.0
H222 H 0.3295 0.10717 0.44249 0.0
H223 H 0.14414 0.10799 0.45873 0.0
H224 H 0.07883 0.06783 0.49848 0.0
H225 H 0.07367 0.96538 0.59963 0.0
H226 H 0.13503 0.92648 0.63086 0.0
H227 H 0.16586 0.10164 0.63336 0.0
H228 H 0.31383 0.1086 0.61466 0.0
H229 H 0.15591 0.92094 0.46459 0.0
H230 H 0.30254 0.93839 0.44046 0.0
C231 C 0.45953 0.8232 0.09892 0.0
C232 C 0.44868 0.85428 0.11411 0.0
C233 C 0.47237 0.87932 0.09041 0.0
C234 C 0.49623 0.8622 0.0622 0.0
N235 N 0.48893 0.8277 0.06622 0.0
Co236 Co 0.52092 0.79288 0.03472 0.0
N237 N 0.5604 0.82961 1.00309 0.0
C238 C 0.5602 0.8639 0.00705 0.0
C239 C 0.58866 0.8828 0.97949 0.0
C240 C 0.60773 0.85924 0.95607 0.0
C241 C 0.58963 0.82721 0.97079 0.0
N242 N 0.55264 0.758 1.00312 0.0
C243 C 0.58173 0.76245 0.97029 0.0
C244 C 0.5919 0.73135 0.95471 0.0
C245 C 0.5681 0.70637 0.97828 0.0
C246 C 0.54486 0.7235 0.00679 0.0
N247 N 0.48161 0.75609 0.06636 0.0
C248 C 0.48182 0.72178 0.06247 0.0
C249 C 0.45247 0.7029 0.08931 0.0
C250 C 0.43299 0.72646 0.1124 0.0
C251 C 0.45174 0.75848 0.09816 0.0
N252 N 0.47399 0.795 0.99441 0.0
C253 C 0.41914 0.79566 0.92908 0.0
C254 C 0.42464 0.76527 0.95051 0.0
C255 C 0.45194 0.76549 0.9828 0.0
C256 C 0.43932 0.82612 0.94171 0.0
C257 C 0.46586 0.8253 0.97476 0.0
N258 N 0.56787 0.79064 0.07506 0.0
C259 C 0.60398 0.75793 0.12561 0.0
C260 C 0.62365 0.78782 0.13998 0.0
C261 C 0.61676 0.81907 0.12054 0.0
C262 C 0.58887 0.81992 0.08838 0.0
C263 C 0.57713 0.75984 0.09291 0.0
H264 H 0.58408 0.84461 0.07532 0.0
H265 H 0.56369 0.73607 0.08296 0.0
H266 H 0.45548 0.74122 0.99713 0.0
H267 H 0.48007 0.84937 0.98343 0.0
C268 C 0.52952 0.87753 0.03454 0.0
C269 C 0.44233 0.79009 0.1173 0.0
C270 C 0.59919 0.79545 0.95189 0.0
C271 C 0.51188 0.7081 0.03461 0.0
H272 H 0.42694 0.85833 0.14027 0.0
H273 H 0.47367 0.90668 0.09433 0.0
H274 H 0.59346 0.91046 0.97584 0.0
H275 H 0.63109 0.86499 0.93028 0.0
H276 H 0.61318 0.72721 0.92832 0.0
H277 H 0.56628 0.67905 0.97407 0.0
H278 H 0.44701 0.67526 0.0925 0.0
H279 H 0.40877 0.72065 0.1376 0.0
H280 H 0.40871 0.7412 0.94191 0.0
H281 H 0.43506 0.85036 0.92603 0.0
H282 H 0.60911 0.73313 0.13963 0.0
H283 H 0.63218 0.84281 0.13046 0.0
C284 C 0.85978 0.97754 0.60158 0.0
C285 C 0.90175 0.96488 0.61043 0.0
C286 C 0.93534 0.98584 0.59038 0.0
C287 C 0.91206 0.00999 0.57053 0.0
N288 N 0.86558 0.0059 0.57692 0.0
Co289 Co 0.8182 0.0324 0.55043 0.0
N290 N 0.86747 0.06027 0.51683 0.0
C291 C 0.91374 0.05752 0.51657 0.0
C292 C 0.93886 0.0817 0.49238 0.0
C293 C 0.90679 0.10145 0.47662 0.0
C294 C 0.86384 0.08806 0.49226 0.0
N295 N 0.77075 0.05901 0.52425 0.0
C296 C 0.77651 0.08738 0.49969 0.0
C297 C 0.7345 0.1004 0.49143 0.0
C298 C 0.70099 0.0797 0.51178 0.0
C299 C 0.72428 0.05534 0.53121 0.0
N300 N 0.76888 1.00446 0.58384 0.0
C301 C 0.72257 0.00713 0.58409 0.0
C302 C 0.6975 0.98359 0.60907 0.0
C303 C 0.72957 0.96414 0.62516 0.0
C304 C 0.77252 0.97708 0.60892 0.0
N305 N 0.82105 0.0676 0.59079 0.0
C306 C 0.82151 0.1248 0.63767 0.0
C307 C 0.78074 0.10545 0.63333 0.0
C308 C 0.78126 0.07714 0.60999 0.0
C309 C 0.86265 0.11442 0.62017 0.0
C310 C 0.86177 0.0854 0.59747 0.0
N311 N 0.81514 0.99724 0.51003 0.0
C312 C 0.77079 0.95311 0.47857 0.0
C313 C 0.81102 0.94078 0.46171 0.0
C314 C 0.85326 0.95782 0.46777 0.0
C315 C 0.85456 0.98584 0.49197 0.0
C316 C 0.77355 0.98159 0.50187 0.0
H317 H 0.88789 0.99736 0.49628 0.0
H318 H 0.74158 0.99014 0.51345 0.0
H319 H 0.74868 0.06408 0.60724 0.0
H320 H 0.89422 0.07826 0.58509 0.0
C321 C 0.93253 0.03412 0.54231 0.0
C322 C 0.81532 0.96112 0.61612 0.0
C323 C 0.82085 0.10367 0.48473 0.0
C324 C 0.70369 0.03102 0.55908 0.0
H325 H 0.90736 0.94224 0.62858 0.0
H326 H 0.97223 0.98289 0.58899 0.0
H327 H 0.9761 0.08543 0.48805 0.0
H328 H 0.91421 0.12388 0.45691 0.0
H329 H 0.72874 0.12313 0.47351 0.0
H330 H 0.66417 0.0829 0.51357 0.0
H331 H 0.6603 0.9803 0.61404 0.0
H332 H 0.72208 0.94223 0.64562 0.0
H333 H 0.74828 0.11254 0.64721 0.0
H334 H 0.89515 0.12871 0.62362 0.0
H335 H 0.73731 0.94072 0.47402 0.0
H336 H 0.88519 0.94924 0.45451 0.0
C337 C 0.47763 0.2878 0.11793 0.0
C338 C 0.46741 0.31888 0.13353 0.0
C339 C 0.49064 0.34391 0.10965 0.0
C340 C 0.51363 0.32683 0.08094 0.0
N341 N 0.50614 0.29231 0.08474 0.0
Co342 Co 0.53799 0.25751 0.05314 0.0
N343 N 0.57701 0.29437 0.02136 0.0
C344 C 0.5765 0.32868 0.0251 0.0
C345 C 0.60588 0.3476 0.99833 0.0
C346 C 0.62567 0.32406 0.97542 0.0
C347 C 0.60707 0.29201 0.98969 0.0
N348 N 0.57016 0.22274 0.02169 0.0
C349 C 0.59963 0.22727 0.98905 0.0
C350 C 0.61063 0.19621 0.9739 0.0
C351 C 0.587 0.17113 0.9976 0.0
C352 C 0.56303 0.18823 0.02577 0.0
N353 N 0.49879 0.22071 0.08492 0.0
C354 C 0.49904 0.18643 0.08092 0.0
C355 C 0.47087 0.16748 0.10866 0.0
C356 C 0.45205 0.19101 0.13228 0.0
C357 C 0.46999 0.22305 0.1175 0.0
N358 N 0.49094 0.25949 0.01285 0.0
C359 C 0.43532 0.26198 0.94779 0.0
C360 C 0.44233 0.23081 0.96734 0.0
C361 C 0.47014 0.23012 0.99957 0.0
C362 C 0.45473 0.29196 0.96215 0.0
C363 C 0.48148 0.29021 0.99492 0.0
N364 N 0.58501 0.25566 0.09337 0.0
C365 C 0.61946 0.22503 0.14655 0.0
C366 C 0.63961 0.25565 0.1588 0.0
C367 C 0.63426 0.28583 0.13695 0.0
C368 C 0.60708 0.28529 0.10462 0.0
C369 C 0.59305 0.22552 0.11341 0.0
H370 H 0.60363 0.30943 0.08999 0.0
H371 H 0.57883 0.20136 0.105 0.0
H372 H 0.47504 0.20548 0.01269 0.0
H373 H 0.4947 0.31405 1.00486 0.0
C374 C 0.5464 0.3423 0.05299 0.0
C375 C 0.4609 0.25476 0.13668 0.0
C376 C 0.6168 0.26039 0.97069 0.0
C377 C 0.52979 0.17285 0.05346 0.0
H378 H 0.44654 0.32298 0.16017 0.0
H379 H 0.49239 0.37123 0.11383 0.0
H380 H 0.61123 0.37525 0.99512 0.0
H381 H 0.65003 0.3299 0.95031 0.0
H382 H 0.63244 0.19218 0.94777 0.0
H383 H 0.58583 0.14377 0.99372 0.0
H384 H 0.46624 0.13981 0.11236 0.0
H385 H 0.42906 0.18521 0.15829 0.0
H386 H 0.4271 0.20699 0.95746 0.0
H387 H 0.44949 0.31671 0.94805 0.0
H388 H 0.62366 0.20094 0.16257 0.0
H389 H 0.65019 0.31 0.14525 0.0
C390 C 0.21911 0.34495 0.35747 0.0
C391 C 0.24214 0.32124 0.34927 0.0
C392 C 0.19125 0.37228 0.36691 0.0
C393 C 0.16761 0.39618 0.37267 0.0
C394 C 0.18886 0.68929 0.72192 0.0
C395 C 0.21185 0.71463 0.72911 0.0
C396 C 0.16012 0.66028 0.71445 0.0
C397 C 0.13473 0.63525 0.71098 0.0
C398 C 0.8537 0.68982 0.35071 0.0
C399 C 0.8318 0.71459 0.34379 0.0
C400 C 0.8802 0.66106 0.35811 0.0
C401 C 0.9033 0.63657 0.36284 0.0
C402 C 0.86004 0.37678 0.74097 0.0
C403 C 0.83636 0.35126 0.75156 0.0
C404 C 0.88898 0.40614 0.72888 0.0
C405 C 0.91407 0.4316 0.72157 0.0
C406 C 0.25963 0.17684 0.40494 0.0
C407 C 0.27052 0.20197 0.38396 0.0
C408 C 0.24675 0.14704 0.42871 0.0
C409 C 0.23885 0.12079 0.44841 0.0
C410 C 0.34366 0.78741 0.83305 0.0
C411 C 0.31944 0.78361 0.8058 0.0
C412 C 0.37075 0.7921 0.86576 0.0
C413 C 0.39305 0.79501 0.89434 0.0
C414 C 0.79912 0.85641 0.39651 0.0
C415 C 0.79394 0.83177 0.37667 0.0
C416 C 0.80484 0.88567 0.41921 0.0
C417 C 0.80861 0.91081 0.43843 0.0
C418 C 0.69743 0.27376 0.86853 0.0
C419 C 0.72338 0.27925 0.83954 0.0
C420 C 0.66832 0.26689 0.90319 0.0
C421 C 0.64451 0.26241 0.93354 0.0
C422 C 0.23959 0.86042 0.67196 0.0
C423 C 0.24714 0.83604 0.69285 0.0
C424 C 0.2315 0.8893 0.64783 0.0
C425 C 0.22772 0.91481 0.62751 0.0
C426 C 0.70053 0.78079 0.23613 0.0
C427 C 0.7246 0.77829 0.26383 0.0
C428 C 0.67338 0.78397 0.20296 0.0
C429 C 0.65086 0.78621 0.17426 0.0
C430 C 0.80651 0.208 0.70243 0.0
C431 C 0.79924 0.23166 0.72289 0.0
C432 C 0.81504 0.17987 0.67917 0.0
C433 C 0.82023 0.15512 0.65997 0.0
C434 C 0.38088 0.25783 0.23883 0.0
C435 C 0.3547 0.25994 0.26748 0.0
C436 C 0.40981 0.2551 0.20425 0.0
C437 C 0.43336 0.25387 0.1739 0.0
C438 C 0.84074 0.70474 0.73038 0.0
C439 C 0.81768 0.72839 0.73872 0.0
C440 C 0.86866 0.6775 0.72075 0.0
C441 C 0.89247 0.65372 0.71488 0.0
C442 C 0.87458 0.36 0.36548 0.0
C443 C 0.85054 0.33515 0.35842 0.0
C444 C 0.90359 0.38884 0.37295 0.0
C445 C 0.92854 0.41409 0.37645 0.0
C446 C 0.20763 0.36099 0.73675 0.0
C447 C 0.22908 0.336 0.74372 0.0
C448 C 0.18133 0.38984 0.72933 0.0
C449 C 0.15819 0.4143 0.72458 0.0
C450 C 0.1994 0.67445 0.34675 0.0
C451 C 0.22314 0.69998 0.33631 0.0
C452 C 0.1705 0.64506 0.35869 0.0
C453 C 0.14566 0.61946 0.36592 0.0
C454 C 0.79527 0.87206 0.68158 0.0
C455 C 0.78609 0.84688 0.70287 0.0
C456 C 0.80617 0.90216 0.65782 0.0
C457 C 0.81286 0.92868 0.63846 0.0
C458 C 0.71523 0.2655 0.25444 0.0
C459 C 0.73964 0.26934 0.28153 0.0
C460 C 0.68796 0.26023 0.22199 0.0
C461 C 0.66566 0.25673 0.19351 0.0
C462 C 0.25596 0.19341 0.69177 0.0
C463 C 0.2627 0.21794 0.71149 0.0
C464 C 0.2483 0.16431 0.66913 0.0
C465 C 0.24322 0.13924 0.64994 0.0
C466 C 0.36231 0.77744 0.21991 0.0
C467 C 0.33636 0.77222 0.24894 0.0
C468 C 0.39125 0.78391 0.18508 0.0
C469 C 0.41487 0.78814 0.15459 0.0
C470 C 0.81252 0.19017 0.41656 0.0
C471 C 0.80709 0.2149 0.39548 0.0
C472 C 0.81864 0.16091 0.44069 0.0
C473 C 0.82156 0.13521 0.46087 0.0
C474 C 0.35893 0.26845 0.85127 0.0
C475 C 0.33493 0.27093 0.82351 0.0
C476 C 0.38591 0.26545 0.88457 0.0
C477 C 0.4083 0.2634 0.91338 0.0
C478 C 0.24886 0.84324 0.38497 0.0
C479 C 0.25778 0.81987 0.36453 0.0
C480 C 0.2381 0.87087 0.40837 0.0
C481 C 0.23141 0.89529 0.42779 0.0
C482 C 0.68052 0.792 0.85054 0.0
C483 C 0.70624 0.78969 0.82165 0.0
C484 C 0.65157 0.79492 0.88504 0.0
C485 C 0.62759 0.79627 0.91513 0.0
loop_
_geom_bond_atom_site_label_1
_geom_bond_atom_site_label_2
_geom_bond_distance
_geom_bond_site_symmetry_2
_ccdc_geom_bond_type
H0 C3 0.931 . S
H1 C6 0.928 . S
H2 C8 0.930 . S
C3 H0 0.931 . S
C3 C4 1.413 . S
C3 C5 1.360 . S
C4 C3 1.413 . S
C4 C8 1.429 . S
C5 C3 1.360 . S
C5 C6 1.372 . S
C6 H1 0.928 . S
C6 C5 1.372 . S
C6 C7 1.404 . S
C7 C6 1.404 . S
C7 C8 1.391 . S
C8 H2 0.930 . S
C8 C4 1.429 . S
C8 C7 1.391 . S
H9 C12 0.931 . S
H10 C15 0.928 . S
H11 C17 0.930 . S
C12 H9 0.931 . S
C12 C13 1.413 . S
C12 C14 1.360 . S
C13 C12 1.413 . S
C13 C17 1.429 . S
C14 C12 1.360 . S
C14 C15 1.372 . S
C15 H10 0.928 . S
C15 C14 1.372 . S
C15 C16 1.404 . S
C16 C15 1.404 . S
C16 C17 1.391 . S
C17 H11 0.930 . S
C17 C13 1.429 . S
C17 C16 1.391 . S
H18 C21 0.931 . S
H19 C24 0.928 . S
H20 C26 0.930 . S
C21 H18 0.931 . S
C21 C22 1.413 . S
C21 C23 1.360 . S
C22 C21 1.413 . S
C22 C26 1.429 . S
C23 C21 1.360 . S
C23 C24 1.372 . S
C24 H19 0.928 . S
C24 C23 1.372 . S
C24 C25 1.404 . S
C25 C24 1.404 . S
C25 C26 1.391 . S
C26 H20 0.930 . S
C26 C22 1.429 . S
C26 C25 1.391 . S
H27 C30 0.931 . S
H28 C33 0.928 . S
H29 C35 0.930 . S
C30 H27 0.931 . S
C30 C31 1.413 . S
C30 C32 1.360 . S
C31 C30 1.413 . S
C31 C35 1.429 . S
C32 C30 1.360 . S
C32 C33 1.372 . S
C33 H28 0.928 . S
C33 C32 1.372 . S
C33 C34 1.404 . S
C34 C33 1.404 . S
C34 C35 1.391 . S
C35 H29 0.930 . S
C35 C31 1.429 . S
C35 C34 1.391 . S
H36 C39 0.931 . S
H37 C42 0.928 . S
H38 C44 0.930 . S
C39 H36 0.931 . S
C39 C40 1.413 . S
C39 C41 1.360 . S
C40 C39 1.413 . S
C40 C44 1.429 . S
C41 C39 1.360 . S
C41 C42 1.372 . S
C42 H37 0.928 . S
C42 C41 1.372 . S
C42 C43 1.404 . S
C43 C42 1.404 . S
C43 C44 1.391 . S
C44 H38 0.930 . S
C44 C40 1.429 . S
C44 C43 1.391 . S
H45 C48 0.931 . S
H46 C51 0.928 . S
H47 C53 0.930 . S
C48 H45 0.931 . S
C48 C49 1.413 . S
C48 C50 1.360 . S
C49 C48 1.413 . S
C49 C53 1.429 . S
C50 C48 1.360 . S
C50 C51 1.372 . S
C51 H46 0.928 . S
C51 C50 1.372 . S
C51 C52 1.404 . S
C52 C51 1.404 . S
C52 C53 1.391 . S
C53 H47 0.930 . S
C53 C49 1.429 . S
C53 C52 1.391 . S
H54 C57 0.931 . S
H55 C60 0.928 . S
H56 C62 0.930 . S
C57 H54 0.931 . S
C57 C58 1.413 . S
C57 C59 1.360 . S
C58 C57 1.413 . S
C58 C62 1.429 . S
C59 C57 1.360 . S
C59 C60 1.372 . S
C60 H55 0.928 . S
C60 C59 1.372 . S
C60 C61 1.404 . S
C61 C60 1.404 . S
C61 C62 1.391 . S
C62 H56 0.930 . S
C62 C58 1.429 . S
C62 C61 1.391 . S
H63 C66 0.931 . S
H64 C69 0.928 . S
H65 C71 0.930 . S
C66 H63 0.931 . S
C66 C67 1.413 . S
C66 C68 1.360 . S
C67 C66 1.413 . S
C67 C71 1.429 . S
C68 C66 1.360 . S
C68 C69 1.372 . S
C69 H64 0.928 . S
C69 C68 1.372 . S
C69 C70 1.404 . S
C70 C69 1.404 . S
C70 C71 1.391 . S
C71 H65 0.930 . S
C71 C67 1.429 . S
C71 C70 1.391 . S
C72 C73 1.443 . S
C72 N76 1.376 . S
C72 C110 1.389 . S
C73 C72 1.443 . S
C73 C74 1.340 . S
C73 H113 0.951 . S
C74 C73 1.340 . S
C74 C75 1.439 . S
C74 H114 0.950 . S
C75 C74 1.439 . S
C75 N76 1.374 . S
C75 C109 1.395 . S
N76 C72 1.376 . S
N76 C75 1.374 . S
N76 Co77 2.008 . S
Co77 N76 2.008 . S
Co77 N78 1.995 1_455 S
Co77 N83 2.008 . S
Co77 N88 1.995 . S
Co77 N93 2.282 . S
Co77 N99 2.282 1_455 S
N78 Co77 1.995 1_655 S
N78 C79 1.376 . S
N78 C82 1.383 . S
C79 N78 1.376 . S
C79 C80 1.446 . S
C79 C109 1.391 1_655 S
C80 C79 1.446 . S
C80 C81 1.339 . S
C80 H115 0.949 . S
C81 C80 1.339 . S
C81 C82 1.439 . S
C81 H116 0.950 . S
C82 N78 1.383 . S
C82 C81 1.439 . S
C82 C111 1.392 . S
N83 Co77 2.008 . S
N83 C84 1.376 1_455 S
N83 C87 1.374 . S
C84 N83 1.376 1_655 S
C84 C85 1.443 . S
C84 C111 1.389 . S
C85 C84 1.443 . S
C85 C86 1.340 . S
C85 H117 0.951 . S
C86 C85 1.340 . S
C86 C87 1.439 1_655 S
C86 H118 0.950 . S
C87 N83 1.374 . S
C87 C86 1.439 1_455 S
C87 C112 1.395 . S
N88 Co77 1.995 . S
N88 C89 1.376 . S
N88 C92 1.383 . S
C89 N88 1.376 . S
C89 C90 1.446 . S
C89 C112 1.391 . S
C90 C89 1.446 . S
C90 C91 1.339 . S
C90 H119 0.949 . S
C91 C90 1.339 . S
C91 C92 1.439 . S
C91 H120 0.950 . S
C92 N88 1.383 . S
C92 C91 1.439 . S
C92 C110 1.392 . S
N93 Co77 2.282 . S
N93 C96 1.332 . S
N93 C98 1.332 . S
C94 C95 1.386 . S
C94 C97 1.388 . S
C95 C94 1.386 . S
C95 C96 1.382 . S
C95 H121 0.950 . S
C96 N93 1.332 . S
C96 C95 1.382 . S
C96 H107 0.952 . S
C97 C94 1.388 . S
C97 C98 1.382 . S
C97 H122 0.950 . S
C98 N93 1.332 . S
C98 C97 1.382 . S
C98 H108 0.948 . S
N99 Co77 2.282 1_655 S
N99 C103 1.332 . S
N99 C104 1.332 . S
C100 C101 1.388 . S
C100 C104 1.382 . S
C100 H123 0.950 . S
C101 C100 1.388 . S
C101 C102 1.386 . S
C102 C101 1.386 . S
C102 C103 1.382 . S
C102 H124 0.950 . S
C103 N99 1.332 . S
C103 C102 1.382 . S
C103 H105 0.952 . S
C104 N99 1.332 . S
C104 C100 1.382 . S
C104 H106 0.948 . S
H105 C103 0.952 . S
H106 C104 0.948 . S
H107 C96 0.952 . S
H108 C98 0.948 . S
C109 C75 1.395 . S
C109 C79 1.391 1_455 S
C110 C72 1.389 . S
C110 C92 1.392 . S
C111 C82 1.392 . S
C111 C84 1.389 . S
C112 C87 1.395 . S
C112 C89 1.391 . S
H113 C73 0.951 . S
H114 C74 0.950 . S
H115 C80 0.949 . S
H116 C81 0.950 . S
H117 C85 0.951 . S
H118 C86 0.950 . S
H119 C90 0.949 . S
H120 C91 0.950 . S
H121 C95 0.950 . S
H122 C97 0.950 . S
H123 C100 0.950 . S
H124 C102 0.950 . S
C125 C126 1.443 . S
C125 N129 1.376 . S
C125 C163 1.389 . S
C126 C125 1.443 . S
C126 C127 1.340 . S
C126 H166 0.951 . S
C127 C126 1.340 . S
C127 C128 1.439 . S
C127 H167 0.950 . S
C128 C127 1.439 . S
C128 N129 1.374 . S
C128 C162 1.395 . S
N129 C125 1.376 . S
N129 C128 1.374 . S
N129 Co130 2.008 . S
Co130 N129 2.008 . S
Co130 N131 1.995 1_455 S
Co130 N136 2.008 1_455 S
Co130 N141 1.995 . S
Co130 N146 2.282 . S
Co130 N152 2.282 1_455 S
N131 Co130 1.995 1_655 S
N131 C132 1.376 . S
N131 C135 1.383 . S
C132 N131 1.376 . S
C132 C133 1.446 . S
C132 C162 1.391 1_655 S
C133 C132 1.446 . S
C133 C134 1.339 . S
C133 H168 0.949 . S
C134 C133 1.339 . S
C134 C135 1.439 . S
C134 H169 0.950 . S
C135 N131 1.383 . S
C135 C134 1.439 . S
C135 C164 1.392 . S
N136 Co130 2.008 1_655 S
N136 C137 1.376 . S
N136 C140 1.374 1_655 S
C137 N136 1.376 . S
C137 C138 1.443 . S
C137 C164 1.389 . S
C138 C137 1.443 . S
C138 C139 1.340 . S
C138 H170 0.951 . S
C139 C138 1.340 . S
C139 C140 1.439 1_655 S
C139 H171 0.950 . S
C140 N136 1.374 1_455 S
C140 C139 1.439 1_455 S
C140 C165 1.395 . S
N141 Co130 1.995 . S
N141 C142 1.376 . S
N141 C145 1.383 . S
C142 N141 1.376 . S
C142 C143 1.446 . S
C142 C165 1.391 . S
C143 C142 1.446 . S
C143 C144 1.339 . S
C143 H172 0.949 . S
C144 C143 1.339 . S
C144 C145 1.439 . S
C144 H173 0.950 . S
C145 N141 1.383 . S
C145 C144 1.439 . S
C145 C163 1.392 . S
N146 Co130 2.282 . S
N146 C149 1.332 . S
N146 C151 1.332 . S
C147 C148 1.386 . S
C147 C150 1.388 . S
C148 C147 1.386 . S
C148 C149 1.382 . S
C148 H174 0.950 . S
C149 N146 1.332 . S
C149 C148 1.382 . S
C149 H160 0.952 . S
C150 C147 1.388 . S
C150 C151 1.382 . S
C150 H175 0.950 . S
C151 N146 1.332 . S
C151 C150 1.382 . S
C151 H161 0.948 . S
N152 Co130 2.282 1_655 S
N152 C156 1.332 . S
N152 C157 1.332 . S
C153 C154 1.388 . S
C153 C157 1.382 . S
C153 H176 0.950 . S
C154 C153 1.388 . S
C154 C155 1.386 . S
C155 C154 1.386 . S
C155 C156 1.382 . S
C155 H177 0.950 . S
C156 N152 1.332 . S
C156 C155 1.382 . S
C156 H158 0.952 . S
C157 N152 1.332 . S
C157 C153 1.382 . S
C157 H159 0.948 . S
H158 C156 0.952 . S
H159 C157 0.948 . S
H160 C149 0.952 . S
H161 C151 0.948 . S
C162 C128 1.395 . S
C162 C132 1.391 1_455 S
C163 C125 1.389 . S
C163 C145 1.392 . S
C164 C135 1.392 . S
C164 C137 1.389 . S
C165 C140 1.395 . S
C165 C142 1.391 . S
H166 C126 0.951 . S
H167 C127 0.950 . S
H168 C133 0.949 . S
H169 C134 0.950 . S
H170 C138 0.951 . S
H171 C139 0.950 . S
H172 C143 0.949 . S
H173 C144 0.950 . S
H174 C148 0.950 . S
H175 C150 0.950 . S
H176 C153 0.950 . S
H177 C155 0.950 . S
C178 C179 1.443 . S
C178 N182 1.376 . S
C178 C216 1.389 . S
C179 C178 1.443 . S
C179 C180 1.340 . S
C179 H219 0.951 . S
C180 C179 1.340 . S
C180 C181 1.439 . S
C180 H220 0.950 . S
C181 C180 1.439 . S
C181 N182 1.374 . S
C181 C215 1.395 1_565 S
N182 C178 1.376 . S
N182 C181 1.374 . S
N182 Co183 2.008 1_565 S
Co183 N182 2.008 1_545 S
Co183 N184 1.995 . S
Co183 N189 2.008 . S
Co183 N194 1.995 1_545 S
Co183 N199 2.282 . S
Co183 N205 2.282 1_545 S
N184 Co183 1.995 . S
N184 C185 1.376 . S
N184 C188 1.383 . S
C185 N184 1.376 . S
C185 C186 1.446 . S
C185 C215 1.391 . S
C186 C185 1.446 . S
C186 C187 1.339 . S
C186 H221 0.949 . S
C187 C186 1.339 . S
C187 C188 1.439 . S
C187 H222 0.950 . S
C188 N184 1.383 . S
C188 C187 1.439 . S
C188 C217 1.392 . S
N189 Co183 2.008 . S
N189 C190 1.376 . S
N189 C193 1.374 . S
C190 N189 1.376 . S
C190 C191 1.443 . S
C190 C217 1.389 . S
C191 C190 1.443 . S
C191 C192 1.340 . S
C191 H223 0.951 . S
C192 C191 1.340 . S
C192 C193 1.439 . S
C192 H224 0.950 . S
C193 N189 1.374 . S
C193 C192 1.439 . S
C193 C218 1.395 . S
N194 Co183 1.995 1_565 S
N194 C195 1.376 . S
N194 C198 1.383 . S
C195 N194 1.376 . S
C195 C196 1.446 . S
C195 C218 1.391 1_565 S
C196 C195 1.446 . S
C196 C197 1.339 . S
C196 H225 0.949 . S
C197 C196 1.339 . S
C197 C198 1.439 . S
C197 H226 0.950 . S
C198 N194 1.383 . S
C198 C197 1.439 . S
C198 C216 1.392 . S
N199 Co183 2.282 . S
N199 C202 1.332 . S
N199 C204 1.332 . S
C200 C201 1.386 . S
C200 C203 1.388 . S
C201 C200 1.386 . S
C201 C202 1.382 . S
C201 H227 0.950 . S
C202 N199 1.332 . S
C202 C201 1.382 . S
C202 H213 0.952 . S
C203 C200 1.388 . S
C203 C204 1.382 . S
C203 H228 0.950 . S
C204 N199 1.332 . S
C204 C203 1.382 . S
C204 H214 0.948 . S
N205 Co183 2.282 1_565 S
N205 C209 1.332 . S
N205 C210 1.332 . S
C206 C207 1.388 . S
C206 C210 1.382 . S
C206 H229 0.950 . S
C207 C206 1.388 . S
C207 C208 1.386 . S
C208 C207 1.386 . S
C208 C209 1.382 . S
C208 H230 0.950 . S
C209 N205 1.332 . S
C209 C208 1.382 . S
C209 H211 0.952 . S
C210 N205 1.332 . S
C210 C206 1.382 . S
C210 H212 0.948 . S
H211 C209 0.952 . S
H212 C210 0.948 . S
H213 C202 0.952 . S
H214 C204 0.948 . S
C215 C181 1.395 1_545 S
C215 C185 1.391 . S
C216 C178 1.389 . S
C216 C198 1.392 . S
C217 C188 1.392 . S
C217 C190 1.389 . S
C218 C193 1.395 . S
C218 C195 1.391 1_545 S
H219 C179 0.951 . S
H220 C180 0.950 . S
H221 C186 0.949 . S
H222 C187 0.950 . S
H223 C191 0.951 . S
H224 C192 0.950 . S
H225 C196 0.949 . S
H226 C197 0.950 . S
H227 C201 0.950 . S
H228 C203 0.950 . S
H229 C206 0.950 . S
H230 C208 0.950 . S
C231 C232 1.443 . S
C231 N235 1.376 . S
C231 C269 1.389 . S
C232 C231 1.443 . S
C232 C233 1.340 . S
C232 H272 0.951 . S
C233 C232 1.340 . S
C233 C234 1.439 . S
C233 H273 0.950 . S
C234 C233 1.439 . S
C234 N235 1.374 . S
C234 C268 1.395 . S
N235 C231 1.376 . S
N235 C234 1.374 . S
N235 Co236 2.008 . S
Co236 N235 2.008 . S
Co236 N237 1.995 1_554 S
Co236 N242 2.008 1_554 S
Co236 N247 1.995 . S
Co236 N252 2.282 1_554 S
Co236 N258 2.282 . S
N237 Co236 1.995 1_556 S
N237 C238 1.376 1_556 S
N237 C241 1.383 . S
C238 N237 1.376 1_554 S
C238 C239 1.446 1_554 S
C238 C268 1.391 . S
C239 C238 1.446 1_556 S
C239 C240 1.339 . S
C239 H274 0.949 . S
C240 C239 1.339 . S
C240 C241 1.439 . S
C240 H275 0.950 . S
C241 N237 1.383 . S
C241 C240 1.439 . S
C241 C270 1.392 . S
N242 Co236 2.008 1_556 S
N242 C243 1.376 . S
N242 C246 1.374 . S
C243 N242 1.376 . S
C243 C244 1.443 . S
C243 C270 1.389 . S
C244 C243 1.443 . S
C244 C245 1.340 . S
C244 H276 0.951 . S
C245 C244 1.340 . S
C245 C246 1.439 . S
C245 H277 0.950 . S
C246 N242 1.374 . S
C246 C245 1.439 . S
C246 C271 1.395 1_556 S
N247 Co236 1.995 . S
N247 C248 1.376 . S
N247 C251 1.383 . S
C248 N247 1.376 . S
C248 C249 1.446 . S
C248 C271 1.391 . S
C249 C248 1.446 . S
C249 C250 1.339 . S
C249 H278 0.949 . S
C250 C249 1.339 . S
C250 C251 1.439 . S
C250 H279 0.950 . S
C251 N247 1.383 . S
C251 C250 1.439 . S
C251 C269 1.392 . S
N252 Co236 2.282 1_556 S
N252 C255 1.332 . S
N252 C257 1.332 . S
C253 C254 1.386 . S
C253 C256 1.388 . S
C254 C253 1.386 . S
C254 C255 1.382 . S
C254 H280 0.950 . S
C255 N252 1.332 . S
C255 C254 1.382 . S
C255 H266 0.952 . S
C256 C253 1.388 . S
C256 C257 1.382 . S
C256 H281 0.950 . S
C257 N252 1.332 . S
C257 C256 1.382 . S
C257 H267 0.948 . S
N258 Co236 2.282 . S
N258 C262 1.332 . S
N258 C263 1.332 . S
C259 C260 1.388 . S
C259 C263 1.382 . S
C259 H282 0.950 . S
C260 C259 1.388 . S
C260 C261 1.386 . S
C261 C260 1.386 . S
C261 C262 1.382 . S
C261 H283 0.950 . S
C262 N258 1.332 . S
C262 C261 1.382 . S
C262 H264 0.952 . S
C263 N258 1.332 . S
C263 C259 1.382 . S
C263 H265 0.948 . S
H264 C262 0.952 . S
H265 C263 0.948 . S
H266 C255 0.952 . S
H267 C257 0.948 . S
C268 C234 1.395 . S
C268 C238 1.391 . S
C269 C231 1.389 . S
C269 C251 1.392 . S
C270 C241 1.392 . S
C270 C243 1.389 . S
C271 C246 1.395 1_554 S
C271 C248 1.391 . S
H272 C232 0.951 . S
H273 C233 0.950 . S
H274 C239 0.949 . S
H275 C240 0.950 . S
H276 C244 0.951 . S
H277 C245 0.950 . S
H278 C249 0.949 . S
H279 C250 0.950 . S
H280 C254 0.950 . S
H281 C256 0.950 . S
H282 C259 0.950 . S
H283 C261 0.950 . S
C284 C285 1.443 . S
C284 N288 1.361 1_565 S
C284 C322 1.389 . S
C285 C284 1.443 . S
C285 C286 1.340 . S
C285 H325 0.951 . S
C286 C285 1.340 . S
C286 C287 1.439 1_565 S
C286 H326 0.950 . S
C287 C286 1.439 1_545 S
C287 N288 1.374 . S
C287 C321 1.395 . S
N288 C284 1.361 1_545 S
N288 C287 1.374 . S
N288 Co289 2.019 . S
Co289 N288 2.019 . S
Co289 N290 1.995 . S
Co289 N295 2.008 . S
Co289 N300 2.011 . S
Co289 N305 2.282 . S
Co289 N311 2.282 1_545 S
N290 Co289 1.995 . S
N290 C291 1.376 . S
N290 C294 1.383 . S
C291 N290 1.376 . S
C291 C292 1.446 . S
C291 C321 1.391 . S
C292 C291 1.446 . S
C292 C293 1.339 . S
C292 H327 0.949 . S
C293 C292 1.339 . S
C293 C294 1.439 . S
C293 H328 0.950 . S
C294 N290 1.383 . S
C294 C293 1.439 . S
C294 C323 1.392 . S
N295 Co289 2.008 . S
N295 C296 1.376 . S
N295 C299 1.374 . S
C296 N295 1.376 . S
C296 C297 1.443 . S
C296 C323 1.389 . S
C297 C296 1.443 . S
C297 C298 1.340 . S
C297 H329 0.951 . S
C298 C297 1.340 . S
C298 C299 1.439 . S
C298 H330 0.950 . S
C299 N295 1.374 . S
C299 C298 1.439 . S
C299 C324 1.395 . S
N300 Co289 2.011 . S
N300 C301 1.382 . S
N300 C304 1.355 1_545 S
C301 N300 1.382 . S
C301 C302 1.446 1_545 S
C301 C324 1.391 . S
C302 C301 1.446 1_565 S
C302 C303 1.339 . S
C302 H331 0.949 . S
C303 C302 1.339 . S
C303 C304 1.439 . S
C303 H332 0.950 . S
C304 N300 1.355 1_565 S
C304 C303 1.439 . S
C304 C322 1.392 . S
N305 Co289 2.282 . S
N305 C308 1.332 . S
N305 C310 1.332 . S
C306 C307 1.386 . S
C306 C309 1.388 . S
C307 C306 1.386 . S
C307 C308 1.382 . S
C307 H333 0.950 . S
C308 N305 1.332 . S
C308 C307 1.382 . S
C308 H319 0.952 . S
C309 C306 1.388 . S
C309 C310 1.382 . S
C309 H334 0.950 . S
C310 N305 1.332 . S
C310 C309 1.382 . S
C310 H320 0.948 . S
N311 Co289 2.282 1_565 S
N311 C315 1.332 . S
N311 C316 1.332 . S
C312 C313 1.388 . S
C312 C316 1.382 . S
C312 H335 0.950 . S
C313 C312 1.388 . S
C313 C314 1.386 . S
C314 C313 1.386 . S
C314 C315 1.382 . S
C314 H336 0.950 . S
C315 N311 1.332 . S
C315 C314 1.382 . S
C315 H317 0.952 . S
C316 N311 1.332 . S
C316 C312 1.382 . S
C316 H318 0.948 . S
H317 C315 0.952 . S
H318 C316 0.948 . S
H319 C308 0.952 . S
H320 C310 0.948 . S
C321 C287 1.395 . S
C321 C291 1.391 . S
C322 C284 1.389 . S
C322 C304 1.392 . S
C323 C294 1.392 . S
C323 C296 1.389 . S
C324 C299 1.395 . S
C324 C301 1.391 . S
H325 C285 0.951 . S
H326 C286 0.950 . S
H327 C292 0.949 . S
H328 C293 0.950 . S
H329 C297 0.951 . S
H330 C298 0.950 . S
H331 C302 0.949 . S
H332 C303 0.950 . S
H333 C307 0.950 . S
H334 C309 0.950 . S
H335 C312 0.950 . S
H336 C314 0.950 . S
C337 C338 1.443 . S
C337 N341 1.376 . S
C337 C375 1.389 . S
C338 C337 1.443 . S
C338 C339 1.340 . S
C338 H378 0.951 . S
C339 C338 1.340 . S
C339 C340 1.439 . S
C339 H379 0.950 . S
C340 C339 1.439 . S
C340 N341 1.374 . S
C340 C374 1.395 . S
N341 C337 1.376 . S
N341 C340 1.374 . S
N341 Co342 2.008 . S
Co342 N341 2.008 . S
Co342 N343 1.995 . S
Co342 N348 2.008 . S
Co342 N353 1.995 . S
Co342 N358 2.282 . S
Co342 N364 2.282 . S
N343 Co342 1.995 . S
N343 C344 1.376 . S
N343 C347 1.383 1_554 S
C344 N343 1.376 . S
C344 C345 1.446 1_554 S
C344 C374 1.391 . S
C345 C344 1.446 1_556 S
C345 C346 1.339 . S
C345 H380 0.949 . S
C346 C345 1.339 . S
C346 C347 1.439 . S
C346 H381 0.950 . S
C347 N343 1.383 1_556 S
C347 C346 1.439 . S
C347 C376 1.392 . S
N348 Co342 2.008 . S
N348 C349 1.376 1_554 S
N348 C352 1.374 . S
C349 N348 1.376 1_556 S
C349 C350 1.443 . S
C349 C376 1.389 . S
C350 C349 1.443 . S
C350 C351 1.340 . S
C350 H382 0.951 . S
C351 C350 1.340 . S
C351 C352 1.439 1_556 S
C351 H383 0.950 . S
C352 N348 1.374 . S
C352 C351 1.439 1_554 S
C352 C377 1.395 . S
N353 Co342 1.995 . S
N353 C354 1.376 . S
N353 C357 1.383 . S
C354 N353 1.376 . S
C354 C355 1.446 . S
C354 C377 1.391 . S
C355 C354 1.446 . S
C355 C356 1.339 . S
C355 H384 0.949 . S
C356 C355 1.339 . S
C356 C357 1.439 . S
C356 H385 0.950 . S
C357 N353 1.383 . S
C357 C356 1.439 . S
C357 C375 1.392 . S
N358 Co342 2.282 . S
N358 C361 1.332 1_554 S
N358 C363 1.332 1_554 S
C359 C360 1.386 . S
C359 C362 1.388 . S
C360 C359 1.386 . S
C360 C361 1.382 . S
C360 H386 0.950 . S
C361 N358 1.332 1_556 S
C361 C360 1.382 . S
C361 H372 0.952 1_556 S
C362 C359 1.388 . S
C362 C363 1.382 . S
C362 H387 0.950 . S
C363 N358 1.332 1_556 S
C363 C362 1.382 . S
C363 H373 0.948 . S
N364 Co342 2.282 . S
N364 C368 1.332 . S
N364 C369 1.332 . S
C365 C366 1.388 . S
C365 C369 1.382 . S
C365 H388 0.950 . S
C366 C365 1.388 . S
C366 C367 1.386 . S
C367 C366 1.386 . S
C367 C368 1.382 . S
C367 H389 0.950 . S
C368 N364 1.332 . S
C368 C367 1.382 . S
C368 H370 0.952 . S
C369 N364 1.332 . S
C369 C365 1.382 . S
C369 H371 0.948 . S
H370 C368 0.952 . S
H371 C369 0.948 . S
H372 C361 0.952 1_554 S
H373 C363 0.948 . S
C374 C340 1.395 . S
C374 C344 1.391 . S
C375 C337 1.389 . S
C375 C357 1.392 . S
C376 C347 1.392 . S
C376 C349 1.389 . S
C377 C352 1.395 . S
C377 C354 1.391 . S
H378 C338 0.951 . S
H379 C339 0.950 . S
H380 C345 0.949 . S
H381 C346 0.950 . S
H382 C350 0.951 . S
H383 C351 0.950 . S
H384 C355 0.949 . S
H385 C356 0.950 . S
H386 C360 0.950 . S
H387 C362 0.950 . S
H388 C365 0.950 . S
H389 C367 0.950 . S
C390 C391 1.170 . S
C390 C392 1.380 . S
C391 C390 1.170 . S
C392 C390 1.380 . S
C392 C393 1.170 . S
C393 C392 1.170 . S
C394 C395 1.170 . S
C394 C396 1.380 . S
C395 C394 1.170 . S
C396 C394 1.380 . S
C396 C397 1.170 . S
C397 C396 1.170 . S
C398 C399 1.170 . S
C398 C400 1.380 . S
C399 C398 1.170 . S
C400 C398 1.380 . S
C400 C401 1.170 . S
C401 C400 1.170 . S
C402 C403 1.170 . S
C402 C404 1.380 . S
C403 C402 1.170 . S
C404 C402 1.380 . S
C404 C405 1.170 . S
C405 C404 1.170 . S
C406 C407 1.170 . S
C406 C408 1.380 . S
C407 C406 1.170 . S
C408 C406 1.380 . S
C408 C409 1.170 . S
C409 C408 1.170 . S
C410 C411 1.170 . S
C410 C412 1.380 . S
C411 C410 1.170 . S
C412 C410 1.380 . S
C412 C413 1.170 . S
C413 C412 1.170 . S
C414 C415 1.170 . S
C414 C416 1.380 . S
C415 C414 1.170 . S
C416 C414 1.380 . S
C416 C417 1.170 . S
C417 C416 1.170 . S
C418 C419 1.170 . S
C418 C420 1.380 . S
C419 C418 1.170 . S
C420 C418 1.380 . S
C420 C421 1.170 . S
C421 C420 1.170 . S
C422 C423 1.170 . S
C422 C424 1.380 . S
C423 C422 1.170 . S
C424 C422 1.380 . S
C424 C425 1.170 . S
C425 C424 1.170 . S
C426 C427 1.170 . S
C426 C428 1.380 . S
C427 C426 1.170 . S
C428 C426 1.380 . S
C428 C429 1.170 . S
C429 C428 1.170 . S
C430 C431 1.170 . S
C430 C432 1.380 . S
C431 C430 1.170 . S
C432 C430 1.380 . S
C432 C433 1.170 . S
C433 C432 1.170 . S
C434 C435 1.170 . S
C434 C436 1.380 . S
C435 C434 1.170 . S
C436 C434 1.380 . S
C436 C437 1.170 . S
C437 C436 1.170 . S
C438 C439 1.170 . S
C438 C440 1.380 . S
C439 C438 1.170 . S
C440 C438 1.380 . S
C440 C441 1.170 . S
C441 C440 1.170 . S
C442 C443 1.170 . S
C442 C444 1.380 . S
C443 C442 1.170 . S
C444 C442 1.380 . S
C444 C445 1.170 . S
C445 C444 1.170 . S
C446 C447 1.170 . S
C446 C448 1.380 . S
C447 C446 1.170 . S
C448 C446 1.380 . S
C448 C449 1.170 . S
C449 C448 1.170 . S
C450 C451 1.170 . S
C450 C452 1.380 . S
C451 C450 1.170 . S
C452 C450 1.380 . S
C452 C453 1.170 . S
C453 C452 1.170 . S
C454 C455 1.170 . S
C454 C456 1.380 . S
C455 C454 1.170 . S
C456 C454 1.380 . S
C456 C457 1.170 . S
C457 C456 1.170 . S
C458 C459 1.170 . S
C458 C460 1.380 . S
C459 C458 1.170 . S
C460 C458 1.380 . S
C460 C461 1.170 . S
C461 C460 1.170 . S
C462 C463 1.170 . S
C462 C464 1.380 . S
C463 C462 1.170 . S
C464 C462 1.380 . S
C464 C465 1.170 . S
C465 C464 1.170 . S
C466 C467 1.170 . S
C466 C468 1.380 . S
C467 C466 1.170 . S
C468 C466 1.380 . S
C468 C469 1.170 . S
C469 C468 1.170 . S
C470 C471 1.170 . S
C470 C472 1.380 . S
C471 C470 1.170 . S
C472 C470 1.380 . S
C472 C473 1.170 . S
C473 C472 1.170 . S
C474 C475 1.170 . S
C474 C476 1.380 . S
C475 C474 1.170 . S
C476 C474 1.380 . S
C476 C477 1.170 . S
C477 C476 1.170 . S
C478 C479 1.170 . S
C478 C480 1.380 . S
C479 C478 1.170 . S
C480 C478 1.380 . S
C480 C481 1.170 . S
C481 C480 1.170 . S
C482 C483 1.170 . S
C482 C484 1.380 . S
C483 C482 1.170 . S
C484 C482 1.380 . S
C484 C485 1.170 . S
C485 C484 1.170 . S
C393 C94 1.548 . S
C391 C4 1.545 . S
C397 C163 1.535 . S
C395 C13 1.547 . S
C401 C101 1.545 . S
C399 C25 1.547 . S
C405 C164 1.539 . S
C403 C34 1.544 . S
C409 C217 1.534 . S
C407 C7 1.548 . S
C413 C253 1.521 . S
C411 C14 1.511 . S
C415 C23 1.530 . S
C417 C313 1.529 . S
C421 C376 1.521 . S
C419 C31 1.520 . S
C425 C216 1.542 . S
C423 C16 1.535 . S
C427 C22 1.516 . S
C429 C260 1.523 . S
C433 C306 1.535 . S
C431 C32 1.524 . S
C437 C375 1.524 . S
C435 C5 1.518 . S
C439 C43 1.550 . S
C441 C154 1.545 . S
C445 C111 1.543 . S
C443 C52 1.543 . S
C447 C58 1.552 . S
C449 C147 1.532 . S
C451 C68 1.545 . S
C453 C110 1.538 . S
C457 C322 1.543 . S
C455 C40 1.535 . S
C461 C366 1.510 . S
C459 C50 1.516 . S
C465 C200 1.537 . S
C463 C59 1.548 . S
C467 C70 1.510 . S
C469 C269 1.513 . S
C473 C323 1.522 . S
C471 C49 1.536 . S
C477 C359 1.513 . S
C475 C61 1.506 . S
C481 C207 1.550 . S
C479 C67 1.546 . S
C483 C41 1.510 . S
C485 C270 1.515 . S
