# Generated by pormake.
# Topology zzz, (3,6)-cn, num edge types: 1
# Building blocks:
#     Node 0, Type 0, BuildingBlock: ESEHIV_clean_linker_0, # of connection points: 3
#     Node 1, Type 0, BuildingBlock: ESEHIV_clean_linker_0, # of connection points: 3
#     Node 2, Type 0, BuildingBlock: ESEHIV_clean_linker_0, # of connection points: 3
#     Node 3, Type 0, BuildingBlock: ESEHIV_clean_linker_0, # of connection points: 3
#     Node 4, Type 0, BuildingBlock: ESEHIV_clean_linker_0, # of connection points: 3
#     Node 5, Type 0, BuildingBlock: ESEHIV_clean_linker_0, # of connection points: 3
#     Node 6, Type 0, BuildingBlock: ESEHIV_clean_linker_0, # of connection points: 3
#     Node 7, Type 0, BuildingBlock: ESEHIV_clean_linker_0, # of connection points: 3
#     Node 8, Type 1, BuildingBlock: HISSIN_clean_sbu_0, # of connection points: 6
#     Node 9, Type 1, BuildingBlock: HISSIN_clean_sbu_0, # of connection points: 6
#     Node 10, Type 1, BuildingBlock: HISSIN_clean_sbu_0, # of connection points: 6
#     Node 11, Type 1, BuildingBlock: HISSIN_clean_sbu_0, # of connection points: 6
#     Edge 12, Type (0, 1), BuildingBlock: MIFKUJ_clean_linker_0, # of connection points: 2
#     Edge 13, Type (0, 1), BuildingBlock: MIFKUJ_clean_linker_0, # of connection points: 2
#     Edge 14, Type (0, 1), BuildingBlock: MIFKUJ_clean_linker_0, # of connection points: 2
#     Edge 15, Type (0, 1), BuildingBlock: MIFKUJ_clean_linker_0, # of connection points: 2
#     Edge 16, Type (0, 1), BuildingBlock: MIFKUJ_clean_linker_0, # of connection points: 2
#     Edge 17, Type (0, 1), BuildingBlock: MIFKUJ_clean_linker_0, # of connection points: 2
#     Edge 18, Type (0, 1), BuildingBlock: MIFKUJ_clean_linker_0, # of connection points: 2
#     Edge 19, Type (0, 1), BuildingBlock: MIFKUJ_clean_linker_0, # of connection points: 2
#     Edge 20, Type (0, 1), BuildingBlock: MIFKUJ_clean_linker_0, # of connection points: 2
#     Edge 21, Type (0, 1), BuildingBlock: MIFKUJ_clean_linker_0, # of connection points: 2
#     Edge 22, Type (0, 1), BuildingBlock: MIFKUJ_clean_linker_0, # of connection points: 2
#     Edge 23, Type (0, 1), BuildingBlock: MIFKUJ_clean_linker_0, # of connection points: 2
#     Edge 24, Type (0, 1), BuildingBlock: MIFKUJ_clean_linker_0, # of connection points: 2
#     Edge 25, Type (0, 1), BuildingBlock: MIFKUJ_clean_linker_0, # of connection points: 2
#     Edge 26, Type (0, 1), BuildingBlock: MIFKUJ_clean_linker_0, # of connection points: 2
#     Edge 27, Type (0, 1), BuildingBlock: MIFKUJ_clean_linker_0, # of connection points: 2
#     Edge 28, Type (0, 1), BuildingBlock: MIFKUJ_clean_linker_0, # of connection points: 2
#     Edge 29, Type (0, 1), BuildingBlock: MIFKUJ_clean_linker_0, # of connection points: 2
#     Edge 30, Type (0, 1), BuildingBlock: MIFKUJ_clean_linker_0, # of connection points: 2
#     Edge 31, Type (0, 1), BuildingBlock: MIFKUJ_clean_linker_0, # of connection points: 2
#     Edge 32, Type (0, 1), BuildingBlock: MIFKUJ_clean_linker_0, # of connection points: 2
#     Edge 33, Type (0, 1), BuildingBlock: MIFKUJ_clean_linker_0, # of connection points: 2
#     Edge 34, Type (0, 1), BuildingBlock: MIFKUJ_clean_linker_0, # of connection points: 2
#     Edge 35, Type (0, 1), BuildingBlock: MIFKUJ_clean_linker_0, # of connection points: 2
# Relax obj value: 0.391
# Max RMSD: 0.222
# Mean RMSD: 0.191
data_MOF--net-zzz--node1-HISSIN_clean_sbu_0--node2-ESEHIV_clean_linker_0--edge1-MIFKUJ_clean_linker_0
_symmetry_space_group_name_H-M    P1
_symmetry_Int_Tables_number       1
_symmetry_cell_setting            triclinic
loop_
_symmetry_equiv_pos_as_xyz
'x, y, z'
_cell_length_a     57.310146
_cell_length_b     57.663203
_cell_length_c     22.095338
_cell_angle_alpha  89.713035
_cell_angle_beta   91.797796
_cell_angle_gamma 91.553974
loop_
_atom_site_label
_atom_site_type_symbol
_atom_site_fract_x
_atom_site_fract_y
_atom_site_fract_z
_atom_type_partial_charge
H0 H 0.79451 0.55921 0.26294 0.0
H1 H 0.74561 0.55972 0.11304 0.0
H2 H 0.72245 0.54064 0.29153 0.0
C3 C 0.77659 0.55755 0.24579 0.0
C4 C 0.75922 0.54998 0.28488 0.0
C5 C 0.77187 0.56071 0.18409 0.0
C6 C 0.74899 0.5577 0.16132 0.0
C7 C 0.73067 0.55127 0.19965 0.0
C8 C 0.73604 0.54656 0.26172 0.0
H9 H 0.95614 0.78543 0.22684 0.0
H10 H 0.95187 0.73312 0.08932 0.0
H11 H 1.00724 0.73213 0.22613 0.0
C12 C 0.96207 0.76921 0.20874 0.0
C13 C 0.98224 0.75952 0.23441 0.0
C14 C 0.95137 0.76022 0.15583 0.0
C15 C 0.9599 0.73992 0.1309 0.0
C16 C 0.97973 0.72927 0.15622 0.0
C17 C 0.99117 0.7393 0.20817 0.0
H18 H 0.73536 0.93224 0.20167 0.0
H19 H 0.78972 0.94111 0.07341 0.0
H20 H 0.77796 0.99497 0.20117 0.0
C21 C 0.74968 0.94239 0.18336 0.0
C22 C 0.75445 0.96476 0.20646 0.0
C23 C 0.76103 0.93415 0.1327 0.0
C24 C 0.78061 0.94682 0.11263 0.0
C25 C 0.78758 0.9682 0.13822 0.0
C26 C 0.77402 0.97763 0.18456 0.0
H27 H 0.48839 0.7296 0.19661 0.0
H28 H 0.5375 0.78485 0.24577 0.0
H29 H 0.49731 0.788 0.07793 0.0
C30 C 0.49675 0.74623 0.18664 0.0
C31 C 0.49104 0.75759 0.13219 0.0
C32 C 0.51338 0.75576 0.22812 0.0
C33 C 0.52454 0.7773 0.21445 0.0
C34 C 0.51822 0.78923 0.16049 0.0
C35 C 0.50158 0.77916 0.12008 0.0
H36 H 0.24272 0.4572 0.04824 0.0
H37 H 0.30023 0.45377 0.17705 0.0
H38 H 0.30392 0.50068 0.0248 0.0
C39 C 0.26052 0.46202 0.06209 0.0
C40 C 0.27245 0.47897 0.02854 0.0
C41 C 0.2701 0.45319 0.11627 0.0
C42 C 0.29275 0.46038 0.13487 0.0
C43 C 0.3052 0.47732 0.10226 0.0
C44 C 0.29489 0.48694 0.04902 0.0
H45 H 0.06761 0.23939 0.05185 0.0
H46 H 0.07149 0.29891 0.168 0.0
H47 H 0.01827 0.29367 0.02578 0.0
C48 C 0.06184 0.25653 0.06332 0.0
C49 C 0.04276 0.26549 0.03069 0.0
C50 C 0.07194 0.26811 0.11372 0.0
C51 C 0.06376 0.2899 0.12897 0.0
C52 C 0.04443 0.29936 0.09818 0.0
C53 C 0.03358 0.28691 0.04898 0.0
H54 H 0.30567 0.06464 0.11467 0.0
H55 H 0.24802 0.06682 0.23311 0.0
H56 H 0.24773 0.0158 0.09146 0.0
C57 C 0.28852 0.0583 0.12751 0.0
C58 C 0.27791 0.0396 0.09585 0.0
C59 C 0.27822 0.06779 0.17797 0.0
C60 C 0.25592 0.05974 0.19362 0.0
C61 C 0.24445 0.04114 0.16332 0.0
C62 C 0.25584 0.03062 0.11445 0.0
H63 H 0.55255 0.29085 0.0944 0.0
H64 H 0.49906 0.23682 0.08836 0.0
H65 H 0.55354 0.23649 0.2275 0.0
C66 C 0.54509 0.27486 0.11247 0.0
C67 C 0.55537 0.26488 0.16423 0.0
C68 C 0.52481 0.26509 0.08477 0.0
C69 C 0.5148 0.24447 0.10909 0.0
C70 C 0.52581 0.23355 0.15964 0.0
C71 C 0.54589 0.24408 0.18673 0.0
Eu72 Eu 0.99367 0.01878 0.59104 0.0
Eu73 Eu 0.03007 0.99941 0.69321 0.0
C74 C 0.01919 0.05453 0.68726 0.0
C75 C 0.97176 0.05892 0.47238 0.0
C76 C 0.98132 0.07848 0.50269 0.0
C77 C 0.98049 0.07721 0.37633 0.0
C78 C 0.99132 0.09676 0.4703 0.0
C79 C 0.97055 0.05882 0.40893 0.0
C80 C 0.99195 0.09585 0.40686 0.0
C81 C 0.96745 0.03729 0.50622 0.0
O82 O 0.99432 0.98955 0.7286 0.0
O83 O 0.97138 0.01426 0.67355 0.0
C84 C 0.97457 1.00034 0.72015 0.0
O85 O 0.98747 0.97976 0.58635 0.0
O86 O 0.04373 0.99968 0.7866 0.0
O87 O 0.05636 0.97473 0.72378 0.0
O88 O 0.02295 0.96986 0.6273 0.0
C89 C 1.00381 0.96442 0.59563 0.0
O90 O 0.02806 0.0135 0.54406 0.0
O91 O 0.05455 0.01476 0.62389 0.0
O92 O 0.02547 0.0367 0.72057 0.0
O93 O 0.98209 0.02097 0.49608 0.0
O94 O 0.96375 0.03947 0.56377 0.0
O95 O 0.01061 0.05161 0.63172 0.0
C96 C 0.04168 0.96104 0.81624 0.0
C97 C 0.02628 0.94519 0.78614 0.0
C98 C 0.02391 0.95058 0.91131 0.0
C99 C 0.00927 0.933 0.81777 0.0
C100 C 0.04086 0.96309 0.87939 0.0
C101 C 0.00743 0.93618 0.88019 0.0
C102 C 0.05301 0.9795 0.7805 0.0
C103 C 0.04983 0.0149 0.56517 0.0
H104 H 0.98261 0.07899 0.55164 0.0
H105 H 0.98033 0.07624 0.32738 0.0
H106 H 1.00014 0.11069 0.49541 0.0
H107 H 0.9633 0.04386 0.38471 0.0
H108 H 0.02615 0.94343 0.73735 0.0
H109 H 0.02286 0.95314 0.95967 0.0
H110 H 0.99706 0.9216 0.79306 0.0
H111 H 0.05217 0.97556 0.90333 0.0
Eu112 Eu 0.53513 0.02745 0.70702 0.0
Eu113 Eu 0.50342 0.99349 0.61999 0.0
C114 C 0.53023 0.97415 0.73906 0.0
C115 C 0.58848 0.04487 0.78951 0.0
C116 C 0.60218 0.03797 0.74142 0.0
C117 C 0.61528 0.02594 0.85974 0.0
C118 C 0.62113 0.02369 0.75195 0.0
C119 C 0.59598 0.03987 0.849 0.0
C120 C 0.62707 0.01638 0.81104 0.0
C121 C 0.56403 0.05113 0.77697 0.0
O122 O 0.47821 0.01645 0.6674 0.0
O123 O 0.50029 0.0224 0.75338 0.0
C124 C 0.47967 0.02102 0.72552 0.0
O125 O 0.51635 0.05243 0.64378 0.0
O126 O 0.47644 0.966 0.61664 0.0
O127 O 0.48947 0.98018 0.5332 0.0
O128 O 0.50646 0.02696 0.56722 0.0
C129 C 0.50923 0.04825 0.58754 0.0
O130 O 0.55908 0.01772 0.63176 0.0
O131 O 0.54009 0.98561 0.59051 0.0
O132 O 0.51047 0.97418 0.70763 0.0
O133 O 0.55877 0.05744 0.72149 0.0
O134 O 0.54868 0.03624 0.79775 0.0
O135 O 0.5457 0.99102 0.73233 0.0
C136 C 0.44895 0.97877 0.54607 0.0
C137 C 0.44716 1.00299 0.54406 0.0
C138 C 0.40668 0.97513 0.5501 0.0
C139 C 0.42563 0.01318 0.54701 0.0
C140 C 0.42856 0.96481 0.54858 0.0
C141 C 0.40522 0.99944 0.55132 0.0
C142 C 0.4721 0.96937 0.55913 0.0
C143 C 0.55865 0.99962 0.59556 0.0
H144 H 0.59701 0.04182 0.69502 0.0
H145 H 0.61996 0.02147 0.90611 0.0
H146 H 0.62976 0.01692 0.71321 0.0
H147 H 0.58578 0.04507 0.88687 0.0
H148 H 0.46257 0.01423 0.5432 0.0
H149 H 0.39107 0.96419 0.55202 0.0
H150 H 0.42499 0.03194 0.54622 0.0
H151 H 0.42962 0.94611 0.55153 0.0
Eu152 Eu 0.49171 0.51924 0.70214 0.0
Eu153 Eu 0.53669 0.50331 0.62634 0.0
C154 C 0.54278 0.52118 0.76165 0.0
C155 C 0.44049 0.55306 0.75113 0.0
C156 C 0.44326 0.56785 0.70109 0.0
C157 C 0.41414 0.58016 0.79416 0.0
C158 C 0.43231 0.5892 0.69895 0.0
C159 C 0.42517 0.55886 0.79636 0.0
C160 C 0.41852 0.59603 0.74694 0.0
C161 C 0.45582 0.53335 0.76005 0.0
O162 O 0.52859 0.4727 0.68747 0.0
O163 O 0.49072 0.48006 0.71049 0.0
C164 C 0.50856 0.46616 0.71053 0.0
O165 O 0.47944 0.51896 0.6046 0.0
O166 O 0.57435 0.49906 0.62663 0.0
O167 O 0.55355 0.49026 0.54642 0.0
O168 O 0.50475 0.49304 0.56715 0.0
C169 C 0.48525 0.50461 0.56216 0.0
O170 O 0.50634 0.55296 0.66218 0.0
O171 O 0.5305 0.53913 0.58989 0.0
O172 O 0.54976 0.52494 0.70643 0.0
O173 O 0.45434 0.51734 0.71844 0.0
O174 O 0.47742 0.53898 0.77531 0.0
O175 O 0.52136 0.51368 0.77019 0.0
C176 C 0.58662 0.46812 0.56819 0.0
C177 C 0.58132 0.44923 0.60601 0.0
C178 C 0.6141 0.44477 0.51597 0.0
C179 C 0.59201 0.42804 0.59802 0.0
C180 C 0.6034 0.46596 0.52406 0.0
C181 C 0.60811 0.42544 0.55195 0.0
C182 C 0.57415 0.48984 0.573 0.0
C183 C 0.51945 0.55616 0.6146 0.0
H184 H 0.45502 0.56353 0.66564 0.0
H185 H 0.40383 0.58497 0.83214 0.0
H186 H 0.4359 0.60101 0.66189 0.0
H187 H 0.42291 0.54761 0.83528 0.0
H188 H 0.56847 0.45071 0.64058 0.0
H189 H 0.62609 0.44322 0.47935 0.0
H190 H 0.58712 0.41347 0.62652 0.0
H191 H 0.60768 0.48043 0.49459 0.0
Eu192 Eu 0.02424 0.5301 0.58672 0.0
Eu193 Eu 0.00743 0.49096 0.68323 0.0
C194 C 0.06188 0.50509 0.6752 0.0
C195 C 0.06079 0.55091 0.46509 0.0
C196 C 0.08206 0.54502 0.49389 0.0
C197 C 0.07343 0.53307 0.37268 0.0
C198 C 0.09832 0.53239 0.46326 0.0
C199 C 0.05713 0.5458 0.40339 0.0
C200 C 0.09372 0.5254 0.40317 0.0
C201 C 0.04068 0.55652 0.50189 0.0
O202 O 0.01165 0.52437 0.73745 0.0
O203 O 0.01018 0.55184 0.6619 0.0
C204 C 0.00959 0.54609 0.71964 0.0
O205 O 0.98566 0.52399 0.5654 0.0
O206 O 0.01613 0.46971 0.76211 0.0
O207 O 0.98199 0.4659 0.71876 0.0
O208 O 0.97402 0.50883 0.65581 0.0
C209 C 0.96904 0.51782 0.60234 0.0
O210 O 0.03417 0.49538 0.54834 0.0
O211 O 1.00652 0.47246 0.59273 0.0
O212 O 0.04662 0.4879 0.68093 0.0
O213 O 0.02258 0.5426 0.49342 0.0
O214 O 0.04506 0.56049 0.55933 0.0
O215 O 0.05611 0.5244 0.64758 0.0
C216 C 0.98446 0.46657 0.82452 0.0
C217 C 0.97902 0.48958 0.83638 0.0
C218 C 0.97139 0.45534 0.92408 0.0
C219 C 0.97017 0.49556 0.89166 0.0
C220 C 0.98082 0.44941 0.86863 0.0
C221 C 0.96613 0.47854 0.93595 0.0
C222 C 0.99491 0.46143 0.76682 0.0
C223 C 0.02124 0.47621 0.54907 0.0
H224 H 0.08544 0.54851 0.54154 0.0
H225 H 0.06966 0.52833 0.32595 0.0
H226 H 0.11372 0.52669 0.48819 0.0
H227 H 0.04083 0.55004 0.38026 0.0
H228 H 0.98142 0.50295 0.80247 0.0
H229 H 0.96805 0.4419 0.95738 0.0
H230 H 0.96566 0.51345 0.89882 0.0
H231 H 0.98506 0.43156 0.86004 0.0
H232 H 0.20667 0.06711 0.1842 0.0
H233 H 0.174 0.05778 0.24847 0.0
H234 H 0.19678 0.98731 0.26486 0.0
H235 H 0.23069 0.99722 0.20326 0.0
H236 H 0.13797 0.0324 0.24533 0.0
H237 H 0.18397 0.96487 0.36007 0.0
H238 H 0.222 0.95204 0.40201 0.0
H239 H 0.23698 0.02049 0.47127 0.0
H240 H 0.19904 0.0336 0.42936 0.0
H241 H 0.04805 1.00049 0.4469 0.0
H242 H 0.07949 0.99951 0.3751 0.0
H243 H 0.12744 0.02907 0.5098 0.0
H244 H 0.09612 0.02887 0.58306 0.0
H245 H 0.15046 1.00008 0.45165 0.0
H246 H 0.09964 0.06026 0.38148 0.0
H247 H 0.06301 0.07755 0.34561 0.0
H248 H 0.05867 0.03051 0.19521 0.0
H249 H 0.09513 0.0125 0.23134 0.0
C250 C 0.2046 0.04948 0.20078 0.0
C251 C 0.22146 0.03296 0.18828 0.0
C252 C 0.18584 0.04413 0.2381 0.0
C253 C 0.18299 0.02197 0.26432 0.0
C254 C 0.19891 0.00488 0.24843 0.0
C255 C 0.21802 0.01035 0.21136 0.0
C256 C 0.16318 0.01743 0.30713 0.0
C257 C 0.14077 0.02504 0.29017 0.0
C258 C 0.16631 0.00805 0.36635 0.0
C259 C 0.18923 1.00039 0.38977 0.0
C260 C 0.19556 0.97719 0.38364 0.0
C261 C 0.21703 0.96987 0.40748 0.0
C262 C 0.23203 0.98551 0.43868 0.0
C263 C 0.22547 0.00845 0.44652 0.0
C264 C 0.20407 0.01586 0.42241 0.0
C265 C 0.06525 0.00691 0.4614 0.0
C266 C 0.06932 0.01505 0.52098 0.0
C267 C 0.08335 0.00643 0.41986 0.0
C268 C 0.10608 0.01473 0.43571 0.0
C269 C 0.11024 0.02258 0.4956 0.0
C270 C 0.0922 0.02261 0.53766 0.0
C271 C 0.12533 0.01547 0.39007 0.0
C272 C 0.14755 0.00716 0.40656 0.0
C273 C 0.1221 0.02446 0.33045 0.0
C274 C 0.09994 0.03488 0.3095 0.0
C275 C 0.09074 0.05345 0.34112 0.0
C276 C 0.07 0.0634 0.32061 0.0
C277 C 0.05847 0.05517 0.26796 0.0
C278 C 0.0676 0.03685 0.23598 0.0
C279 C 0.08828 0.02673 0.25653 0.0
H280 H 0.04251 0.06299 0.25165 0.0
H281 H 0.24863 0.97982 0.45719 0.0
H282 H 0.54949 0.19394 0.17685 0.0
H283 H 0.53987 0.16164 0.24399 0.0
H284 H 0.47312 0.19131 0.27634 0.0
H285 H 0.48313 0.22422 0.20959 0.0
H286 H 0.49278 0.17972 0.38025 0.0
H287 H 0.47793 0.13912 0.19677 0.0
H288 H 0.48497 0.12539 0.0936 0.0
H289 H 0.54628 0.09081 0.15885 0.0
H290 H 0.5398 0.10459 0.26231 0.0
H291 H 0.48241 0.04755 0.48291 0.0
H292 H 0.47791 0.07831 0.40751 0.0
H293 H 0.52296 0.12363 0.51669 0.0
H294 H 0.52669 0.09312 0.59357 0.0
H295 H 0.50666 0.09699 0.33745 0.0
H296 H 0.51444 0.17984 0.4866 0.0
H297 H 0.50281 0.19286 0.5872 0.0
H298 H 0.44698 0.14171 0.58595 0.0
H299 H 0.45803 0.1286 0.4849 0.0
C300 C 0.53246 0.19323 0.19685 0.0
C301 C 0.51696 0.2115 0.18738 0.0
C302 C 0.52695 0.17471 0.23541 0.0
C303 C 0.50566 0.17378 0.26536 0.0
C304 C 0.48965 0.19153 0.25388 0.0
C305 C 0.49521 0.21018 0.21506 0.0
C306 C 0.5012 0.15518 0.31165 0.0
C307 C 0.49565 0.16161 0.37069 0.0
C308 C 0.50444 0.13138 0.29946 0.0
C309 C 0.50844 0.12303 0.23729 0.0
C310 C 0.49301 0.12873 0.18907 0.0
C311 C 0.49688 0.12091 0.13054 0.0
C312 C 0.51608 0.10727 0.11966 0.0
C313 C 0.53142 0.10138 0.16734 0.0
C314 C 0.52763 0.10916 0.22596 0.0
C315 C 0.49114 0.06417 0.49134 0.0
C316 C 0.50497 0.0678 0.54444 0.0
C317 C 0.4886 0.08179 0.4479 0.0
C318 C 0.5 0.10352 0.4559 0.0
C319 C 0.51352 0.10731 0.50951 0.0
C320 C 0.51576 0.08976 0.55353 0.0
C321 C 0.49888 0.12157 0.40665 0.0
C322 C 0.5035 0.11504 0.34702 0.0
C323 C 0.49417 0.14516 0.41801 0.0
C324 C 0.48722 0.15309 0.47845 0.0
C325 C 0.49962 0.17143 0.50767 0.0
C326 C 0.49313 0.17882 0.56477 0.0
C327 C 0.47421 0.16806 0.593 0.0
C328 C 0.46168 0.14994 0.56409 0.0
C329 C 0.46806 0.14251 0.50696 0.0
H330 H 0.46922 0.17379 0.63723 0.0
H331 H 0.51905 0.10124 0.07431 0.0
H332 H 0.34892 0.46139 0.0847 0.0
H333 H 0.38362 0.46805 0.15114 0.0
H334 H 0.34579 0.51713 0.25437 0.0
H335 H 0.31149 0.51091 0.18685 0.0
H336 H 0.38945 0.53119 0.2524 0.0
H337 H 0.35023 0.45852 0.29488 0.0
H338 H 0.33378 0.41959 0.27069 0.0
H339 H 0.40164 0.39714 0.22323 0.0
H340 H 0.41843 0.4361 0.24626 0.0
H341 H 0.44298 0.52458 0.54265 0.0
H342 H 0.41658 0.52151 0.45472 0.0
H343 H 0.4641 0.47634 0.36858 0.0
H344 H 0.49078 0.47902 0.45787 0.0
H345 H 0.41943 0.46044 0.35333 0.0
H346 H 0.45862 0.53426 0.32398 0.0
H347 H 0.47298 0.57342 0.35346 0.0
H348 H 0.40285 0.59382 0.38331 0.0
H349 H 0.38801 0.55473 0.35455 0.0
C350 C 0.34842 0.47429 0.12008 0.0
C351 C 0.32772 0.48602 0.12988 0.0
C352 C 0.36812 0.47783 0.15874 0.0
C353 C 0.36731 0.49276 0.2089 0.0
C354 C 0.34702 0.50552 0.21627 0.0
C355 C 0.32743 0.50211 0.17737 0.0
C356 C 0.38671 0.49392 0.25619 0.0
C357 C 0.3959 0.5157 0.27456 0.0
C358 C 0.39554 0.47376 0.28497 0.0
C359 C 0.38553 0.45029 0.27161 0.0
C360 C 0.36161 0.44533 0.27889 0.0
C361 C 0.35223 0.42326 0.26542 0.0
C362 C 0.36665 0.40592 0.24528 0.0
C363 C 0.39049 0.41061 0.23872 0.0
C364 C 0.39995 0.43267 0.25197 0.0
C365 C 0.44801 0.51397 0.50517 0.0
C366 C 0.46923 0.50212 0.50763 0.0
C367 C 0.43283 0.51236 0.45444 0.0
C368 C 0.43842 0.49907 0.40408 0.0
C369 C 0.45939 0.48686 0.40656 0.0
C370 C 0.47467 0.48841 0.45768 0.0
C371 C 0.422 0.49773 0.34989 0.0
C372 C 0.41329 0.47591 0.33044 0.0
C373 C 0.41334 0.51789 0.32076 0.0
C374 C 0.42222 0.54149 0.33744 0.0
C375 C 0.44627 0.54705 0.33714 0.0
C376 C 0.4545 0.56924 0.3537 0.0
C377 C 0.43887 0.58606 0.37043 0.0
C378 C 0.41494 0.58076 0.37038 0.0
C379 C 0.4066 0.55861 0.35383 0.0
H380 H 0.44532 0.60321 0.3833 0.0
H381 H 0.35935 0.38884 0.23489 0.0
H382 H 1.00688 0.30396 0.16979 0.0
H383 H 1.0005 0.33602 0.23938 0.0
H384 H 0.057 0.37526 0.15996 0.0
H385 H 0.06365 0.34293 0.09164 0.0
H386 H 0.06378 0.37502 0.27555 0.0
H387 H 0.99702 0.39151 0.14886 0.0
H388 H 0.95991 0.3832 0.09264 0.0
H389 H 0.92734 0.3633 0.25811 0.0
H390 H 0.96435 0.37122 0.31526 0.0
H391 H 0.05011 0.47765 0.45138 0.0
H392 H 0.0519 0.44979 0.36848 0.0
H393 H 0.99801 0.4075 0.44953 0.0
H394 H 0.99597 0.43535 0.53223 0.0
H395 H 0.98951 0.41022 0.33094 0.0
H396 H 0.05677 0.39518 0.45752 0.0
H397 H 0.09427 0.4031 0.5121 0.0
H398 H 0.12678 0.41916 0.3441 0.0
H399 H 0.0893 0.41255 0.28876 0.0
C400 C 0.01719 0.31986 0.16535 0.0
C401 C 0.03535 0.32113 0.12398 0.0
C402 C 0.01369 0.33821 0.20564 0.0
C403 C 0.02822 0.35835 0.20542 0.0
C404 C 0.04551 0.36006 0.1616 0.0
C405 C 0.04909 0.34169 0.1217 0.0
C406 C 0.02697 0.37653 0.25401 0.0
C407 C 0.04757 0.38305 0.28669 0.0
C408 C 1.00578 0.38661 0.27051 0.0
C409 C 0.98353 0.38174 0.23626 0.0
C410 C 0.982 0.38517 0.1732 0.0
C411 C 0.96097 0.38057 0.14118 0.0
C412 C 0.9413 0.37266 0.17176 0.0
C413 C 0.9426 0.36939 0.23447 0.0
C414 C 0.96359 0.37396 0.26671 0.0
C415 C 0.03868 0.46237 0.4519 0.0
C416 C 0.02298 0.4588 0.49917 0.0
C417 C 0.03976 0.44636 0.40425 0.0
C418 C 0.02523 0.42625 0.40248 0.0
C419 C 0.00944 0.42277 0.4494 0.0
C420 C 0.00838 0.43873 0.49709 0.0
C421 C 0.02639 0.40886 0.35203 0.0
C422 C 1.00576 0.40238 0.31933 0.0
C423 C 0.04761 0.39887 0.33529 0.0
C424 C 0.07004 0.40371 0.36901 0.0
C425 C 0.07179 0.40088 0.43227 0.0
C426 C 0.09308 0.40518 0.4634 0.0
C427 C 0.11287 0.4119 0.43167 0.0
C428 C 0.11141 0.41431 0.36877 0.0
C429 C 0.09011 0.41037 0.33751 0.0
H430 H 0.12938 0.41508 0.45575 0.0
H431 H 0.92503 0.36911 0.14689 0.0
H432 H 0.83399 0.96841 0.17172 0.0
H433 H 0.86685 0.97656 0.10528 0.0
H434 H 0.81886 1.00092 0.96647 0.0
H435 H 0.78616 0.99283 0.03301 0.0
H436 H 0.84645 0.9688 0.92156 0.0
H437 H 0.85927 0.03784 0.03966 0.0
H438 H 0.86585 0.06078 0.13281 0.0
H439 H 0.92869 0.02415 0.17367 0.0
H440 H 0.92231 1.00075 0.08113 0.0
H441 H 0.92835 0.01196 0.70823 0.0
H442 H 0.89798 0.00856 0.78361 0.0
H443 H 0.94741 0.97928 0.91144 0.0
H444 H 0.97786 0.9823 0.83588 0.0
H445 H 0.92024 0.01346 0.9642 0.0
H446 H 0.90877 0.94542 0.8473 0.0
H447 H 0.90307 0.92164 0.75553 0.0
H448 H 0.83816 0.95468 0.71472 0.0
H449 H 0.84378 0.97911 0.80564 0.0
C450 C 0.83061 0.9766 0.12822 0.0
C451 C 0.80747 0.98069 0.10858 0.0
C452 C 0.84942 0.981 0.08974 0.0
C453 C 0.84555 0.98937 0.03028 0.0
C454 C 0.82251 0.99449 0.01183 0.0
C455 C 0.80379 0.99025 0.05039 0.0
C456 C 0.86502 0.99101 0.9858 0.0
C457 C 0.86239 0.97893 0.93065 0.0
C458 C 0.88636 1.00343 0.99796 0.0
C459 C 0.89017 0.01736 0.0538 0.0
C460 C 0.87437 0.03452 0.06881 0.0
C461 C 0.87809 0.04764 0.12143 0.0
C462 C 0.89764 0.04387 0.15923 0.0
C463 C 0.91354 0.02701 0.1444 0.0
C464 C 0.90988 0.01383 0.09185 0.0
C465 C 0.93281 0.00468 0.75222 0.0
C466 C 0.95567 0.99733 0.76548 0.0
C467 C 0.91535 1.00274 0.79548 0.0
C468 C 0.92024 0.99367 0.85365 0.0
C469 C 0.94308 0.98645 0.86722 0.0
C470 C 0.96049 0.98804 0.82361 0.0
C471 C 0.90143 0.9916 0.89971 0.0
C472 C 0.90423 1.00344 0.95512 0.0
C473 C 0.88028 0.97882 0.88806 0.0
C474 C 0.87684 0.96428 0.83305 0.0
C475 C 0.89339 0.94777 0.81851 0.0
C476 C 0.89015 0.93414 0.76668 0.0
C477 C 0.87025 0.93662 0.72931 0.0
C478 C 0.85357 0.95278 0.74369 0.0
C479 C 0.8568 0.96656 0.79536 0.0
H480 H 0.86775 0.92601 0.68924 0.0
H481 H 0.9005 0.05406 0.19993 0.0
H482 H 0.49657 0.83021 0.16155 0.0
H483 H 0.50564 0.86379 0.09758 0.0
H484 H 0.57014 0.83309 0.04918 0.0
H485 H 0.56088 0.79916 0.11304 0.0
H486 H 0.56874 0.88744 0.05979 0.0
H487 H 0.53228 0.82004 0.96094 0.0
H488 H 0.50271 0.78821 0.95604 0.0
H489 H 0.44796 0.8376 0.95112 0.0
H490 H 0.47724 0.86976 0.9578 0.0
H491 H 0.57139 0.95601 0.78445 0.0
H492 H 0.57585 0.92559 0.86197 0.0
H493 H 0.5011 0.92302 0.88235 0.0
H494 H 0.49665 0.95187 0.80258 0.0
H495 H 0.51284 0.88266 0.88402 0.0
H496 H 0.54717 0.95023 0.98549 0.0
H497 H 0.57521 0.98293 1.00268 0.0
H498 H 0.6319 0.93571 0.01063 0.0
H499 H 0.60429 0.90281 0.9918 0.0
C500 C 0.51326 0.83117 0.13981 0.0
C501 C 0.52819 0.81225 0.14302 0.0
C502 C 0.51835 0.85029 0.10283 0.0
C503 C 0.53848 0.8509 0.0682 0.0
C504 C 0.55459 0.83307 0.07581 0.0
C505 C 0.54939 0.81377 0.11267 0.0
C506 C 0.54036 0.86788 0.01731 0.0
C507 C 0.55678 0.88635 0.0208 0.0
C508 C 0.52454 0.86657 0.96694 0.0
C509 C 0.50695 0.8473 0.96046 0.0
C510 C 0.51393 0.82412 0.95921 0.0
C511 C 0.49723 0.80602 0.95604 0.0
C512 C 0.47347 0.81088 0.95336 0.0
C513 C 0.46637 0.83387 0.95339 0.0
C514 C 0.48302 0.85204 0.95687 0.0
C515 C 0.55597 0.94881 0.80549 0.0
C516 C 0.53365 0.95618 0.78689 0.0
C517 C 0.55852 0.93154 0.85034 0.0
C518 C 0.53884 0.92191 0.87916 0.0
C519 C 0.51665 0.92975 0.86095 0.0
C520 C 0.51408 0.94638 0.81515 0.0
C521 C 0.54073 0.90323 0.92673 0.0
C522 C 0.52501 0.88406 0.92251 0.0
C523 C 0.55703 0.9042 0.97669 0.0
C524 C 0.57367 0.92408 0.98645 0.0
C525 C 0.56564 0.94685 0.99014 0.0
C526 C 0.58147 0.96543 1.00021 0.0
C527 C 0.60533 0.96141 1.00757 0.0
C528 C 0.61343 0.93882 1.00466 0.0
C529 C 0.59771 0.92021 0.99414 0.0
H530 H 0.61754 0.9758 0.01559 0.0
H531 H 0.46055 0.79684 0.95103 0.0
H532 H 0.70944 0.5817 0.12301 0.0
H533 H 0.67404 0.57568 0.06133 0.0
H534 H 0.66102 0.51016 0.15101 0.0
H535 H 0.6976 0.51571 0.21133 0.0
H536 H 0.65383 0.50371 0.03735 0.0
H537 H 0.625 0.55959 0.16828 0.0
H538 H 0.62372 0.59543 0.22835 0.0
H539 H 0.62629 0.63635 0.06569 0.0
H540 H 0.62781 0.60077 1.00463 0.0
H541 H 0.54093 0.50108 0.87409 0.0
H542 H 0.56931 0.50538 0.95918 0.0
H543 H 0.61033 0.55356 0.8541 0.0
H544 H 0.58245 0.54881 0.76816 0.0
H545 H 0.59872 0.56629 0.98638 0.0
H546 H 0.63103 0.50628 0.85991 0.0
H547 H 0.62818 0.4688 0.80654 0.0
H548 H 0.61386 0.43372 0.97374 0.0
H549 H 0.61627 0.47108 0.02795 0.0
C550 C 0.69894 0.56609 0.1303 0.0
C551 C 0.70652 0.54912 0.17198 0.0
C552 C 0.67844 0.56274 0.09519 0.0
C553 C 0.66444 0.54255 0.10147 0.0
C554 C 0.67139 0.52593 0.14505 0.0
C555 C 0.69219 0.52922 0.18011 0.0
C556 C 0.6437 0.53838 0.05924 0.0
C557 C 0.64156 0.51731 0.02738 0.0
C558 C 0.62743 0.55596 0.04544 0.0
C559 C 0.62668 0.57748 0.08189 0.0
C560 C 0.62547 0.57624 0.14533 0.0
C561 C 0.62466 0.59651 0.17956 0.0
C562 C 0.62498 0.61815 0.15086 0.0
C563 C 0.62605 0.61957 0.08786 0.0
C564 C 0.62684 0.59935 0.0534 0.0
C565 C 0.55593 0.51268 0.86916 0.0
C566 C 0.5594 0.52462 0.81426 0.0
C567 C 0.57216 0.51507 0.91782 0.0
C568 C 0.59194 0.52981 0.91305 0.0
C569 C 0.59518 0.54214 0.85883 0.0
C570 C 0.57926 0.53935 0.80968 0.0
C571 C 0.60952 0.53208 0.96405 0.0
C572 C 0.61094 0.55274 0.99733 0.0
C573 C 0.62466 0.51394 0.98029 0.0
C574 C 0.62355 0.49149 0.94782 0.0
C575 C 0.62706 0.4906 0.88519 0.0
C576 C 0.62557 0.46937 0.8548 0.0
C577 C 0.62077 0.4489 0.88669 0.0
C578 C 0.61754 0.4496 0.94908 0.0
C579 C 0.61898 0.47079 0.97965 0.0
H580 H 0.61961 0.43248 0.86309 0.0
H581 H 0.62435 0.63383 0.17744 0.0
H582 H 0.9759 0.68262 0.18137 0.0
H583 H 0.98272 0.65052 0.11162 0.0
H584 H 0.00962 0.69947 0.98124 0.0
H585 H 1.00251 0.73136 0.05055 0.0
H586 H 0.97805 0.67186 0.92793 0.0
H587 H 0.04487 0.65936 0.06093 0.0
H588 H 0.06528 0.65227 0.15892 0.0
H589 H 0.02508 0.58905 0.18133 0.0
H590 H 1.0042 0.59593 0.08381 0.0
H591 H 0.01563 0.59339 0.70716 0.0
H592 H 0.0127 0.62329 0.78429 0.0
H593 H 0.99407 0.57086 0.91549 0.0
H594 H 0.99823 0.54085 0.83924 0.0
H595 H 0.02052 0.59958 0.97086 0.0
H596 H 0.95311 0.61149 0.84189 0.0
H597 H 0.93116 0.61795 0.74582 0.0
H598 H 0.97001 0.68166 0.71833 0.0
H599 H 0.9924 0.67537 0.81395 0.0
C600 C 0.98404 0.68636 0.13871 0.0
C601 C 0.98918 0.70947 0.12205 0.0
C602 C 0.98781 0.66801 0.09852 0.0
C603 C 0.99678 0.67237 0.04068 0.0
C604 C 1.00268 0.69545 0.02523 0.0
C605 C 0.99889 0.71371 0.06524 0.0
C606 C 0.99857 0.65336 0.99459 0.0
C607 C 0.98765 0.65621 0.9372 0.0
C608 C 0.01029 0.63241 1.00672 0.0
C609 C 0.02281 0.62829 0.06537 0.0
C610 C 0.04024 0.64405 0.087 0.0
C611 C 0.05192 0.64005 0.14241 0.0
C612 C 0.04644 0.62026 0.17641 0.0
C613 C 0.02929 0.60439 0.155 0.0
C614 C 0.01754 0.60833 0.09964 0.0
C615 C 0.0108 0.58819 0.75233 0.0
C616 C 1.00701 0.56457 0.76644 0.0
C617 C 0.00895 0.60542 0.79666 0.0
C618 C 1.00261 0.59968 0.85617 0.0
C619 C 0.99896 0.57604 0.87032 0.0
C620 C 1.00121 0.55878 0.82629 0.0
C621 C 1.00021 0.61816 0.90371 0.0
C622 C 0.01091 0.6152 0.96146 0.0
C623 C 0.98803 0.63893 0.89222 0.0
C624 C 0.97458 0.6428 0.83476 0.0
C625 C 0.95708 0.62676 0.81512 0.0
C626 C 0.94454 0.63041 0.76079 0.0
C627 C 0.94923 0.65017 0.72588 0.0
C628 C 0.96642 0.66634 0.74536 0.0
C629 C 0.97902 0.66275 0.79965 0.0
H630 H 0.93951 0.65298 0.68382 0.0
H631 H 0.05551 0.61718 0.21929 0.0
H632 H 0.0693 0.26739 0.23658 0.0
H633 H 0.07746 0.23404 0.29845 0.0
H634 H 0.11517 0.20404 0.15347 0.0
H635 H 0.1072 0.23804 0.09058 0.0
H636 H 0.07517 0.18263 0.16514 0.0
H637 H 0.13623 0.19952 0.30384 0.0
H638 H 0.16166 0.22209 0.3751 0.0
H639 H 0.10486 0.22811 0.49567 0.0
H640 H 0.07895 0.20592 0.42485 0.0
H641 H 0.02067 0.08639 0.31521 0.0
H642 H 0.05048 0.11187 0.27176 0.0
H643 H 0.02828 0.1682 0.38217 0.0
H644 H 0.99858 0.14263 0.42626 0.0
H645 H 0.07504 0.16617 0.38542 0.0
H646 H 0.01309 0.16292 0.22795 0.0
H647 H 0.98649 0.1432 0.15353 0.0
H648 H 0.04511 0.11439 0.06698 0.0
H649 H 0.07204 0.13376 0.14138 0.0
C650 C 0.08064 0.25454 0.21874 0.0
C651 C 0.08663 0.25484 0.15752 0.0
C652 C 0.08544 0.23527 0.25472 0.0
C653 C 0.09627 0.2161 0.22997 0.0
C654 C 0.10638 0.21847 0.17309 0.0
C655 C 0.10163 0.23784 0.13699 0.0
C656 C 0.08949 0.19277 0.25298 0.0
C657 C 0.07598 0.17855 0.21315 0.0
C658 C 0.09014 0.18755 0.31558 0.0
C659 C 0.10561 0.20094 0.35884 0.0
C660 C 0.12909 0.20574 0.34538 0.0
C661 C 0.14361 0.21848 0.38576 0.0
C662 C 0.13489 0.22651 0.4399 0.0
C663 C 0.11162 0.22182 0.45379 0.0
C664 C 0.09701 0.20909 0.41358 0.0
C665 C 0.02186 0.1043 0.32938 0.0
C666 C 1.00732 0.11244 0.37423 0.0
C667 C 0.03905 0.1188 0.30492 0.0
C668 C 0.04174 0.14187 0.32409 0.0
C669 C 0.02676 0.15031 0.36747 0.0
C670 C 0.00969 0.13574 0.3923 0.0
C671 C 0.05966 0.15757 0.29794 0.0
C672 C 0.07516 0.16992 0.33728 0.0
C673 C 0.06073 0.16135 0.23485 0.0
C674 C 0.04453 0.14949 0.19068 0.0
C675 C 0.02028 0.1522 0.19338 0.0
C676 C 1.00515 0.14113 0.15115 0.0
C677 C 0.0141 0.12748 0.1057 0.0
C678 C 0.0382 0.12491 0.10232 0.0
C679 C 0.0534 0.13592 0.14449 0.0
H680 H 1.00237 0.11895 0.073 0.0
H681 H 0.14615 0.23638 0.47108 0.0
H682 H 0.32415 0.063 0.21033 0.0
H683 H 0.34155 0.0732 0.30748 0.0
H684 H 0.28233 0.11456 0.34651 0.0
H685 H 0.26452 0.10447 0.24766 0.0
H686 H 0.35209 0.10612 0.39754 0.0
H687 H 0.26319 0.09597 0.4533 0.0
H688 H 0.22404 0.08682 0.40802 0.0
H689 H 0.25136 0.02861 0.31563 0.0
H690 H 0.29069 0.03766 0.35977 0.0
H691 H 0.39343 0.03458 0.62547 0.0
H692 H 0.36302 0.0626 0.60292 0.0
H693 H 0.33674 0.01946 0.45563 0.0
H694 H 0.36679 0.99135 0.4787 0.0
H695 H 0.3024 0.04735 0.50115 0.0
H696 H 0.38517 0.05811 0.41733 0.0
H697 H 0.42751 0.06139 0.44225 0.0
H698 H 0.41473 0.11229 0.57767 0.0
H699 H 0.37242 0.10946 0.55288 0.0
C700 C 0.31522 0.07531 0.2376 0.0
C701 C 0.29239 0.08206 0.22221 0.0
C702 C 0.32533 0.08122 0.29366 0.0
C703 C 0.31277 0.09384 0.33523 0.0
C704 C 0.29197 0.1042 0.31566 0.0
C705 C 0.28178 0.0983 0.25926 0.0
C706 C 0.31803 0.08956 0.40028 0.0
C707 C 0.34083 0.09431 0.42246 0.0
C708 C 0.30345 0.07392 0.43258 0.0
C709 C 0.27969 0.06747 0.40967 0.0
C710 C 0.26072 0.08114 0.42367 0.0
C711 C 0.2386 0.07608 0.39789 0.0
C712 C 0.23531 0.05732 0.35849 0.0
C713 C 0.25401 0.04326 0.34574 0.0
C714 C 0.27619 0.04832 0.37111 0.0
C715 C 0.3805 0.03068 0.58995 0.0
C716 C 0.38272 0.01121 0.55261 0.0
C717 C 0.36315 0.04666 0.57723 0.0
C718 C 0.34813 0.04342 0.52656 0.0
C719 C 0.34827 0.02234 0.49486 0.0
C720 C 0.36547 0.00626 0.50791 0.0
C721 C 0.33669 0.06331 0.49681 0.0
C722 C 0.31292 0.06107 0.4808 0.0
C723 C 0.35042 0.08116 0.47002 0.0
C724 C 0.37581 0.08363 0.48326 0.0
C725 C 0.3915 0.07014 0.45201 0.0
C726 C 0.41545 0.07191 0.4661 0.0
C727 C 0.42382 0.08707 0.51145 0.0
C728 C 0.40826 0.10063 0.54241 0.0
C729 C 0.38432 0.09901 0.52824 0.0
H730 H 0.44233 0.08827 0.52269 0.0
H731 H 0.21824 0.05359 0.33818 0.0
H732 H 0.59481 0.24733 0.22019 0.0
H733 H 0.62209 0.26793 0.29046 0.0
H734 H 0.58529 0.33127 0.25684 0.0
H735 H 0.55818 0.311 0.18804 0.0
H736 H 0.6308 0.34057 0.27219 0.0
H737 H 0.56991 0.2929 0.37193 0.0
H738 H 0.55098 0.25514 0.39587 0.0
H739 H 0.61619 0.23042 0.46827 0.0
H740 H 0.63553 0.268 0.44401 0.0
H741 H 0.58152 0.38591 0.54296 0.0
H742 H 0.59082 0.35086 0.48993 0.0
H743 H 0.66149 0.3767 0.46848 0.0
H744 H 0.652 0.41245 0.52101 0.0
H745 H 0.61837 0.3155 0.48413 0.0
H746 H 0.67537 0.36631 0.32459 0.0
H747 H 0.68652 0.40671 0.29811 0.0
H748 H 0.61826 0.42892 0.34296 0.0
H749 H 0.6067 0.38862 0.36894 0.0
C750 C 0.59285 0.26574 0.2272 0.0
C751 C 0.57428 0.27753 0.19877 0.0
C752 C 0.60851 0.27748 0.26701 0.0
C753 C 0.60565 0.3011 0.27912 0.0
C754 C 0.58803 0.31311 0.24775 0.0
C755 C 0.57249 0.30147 0.20821 0.0
C756 C 0.61836 0.31301 0.3299 0.0
C757 C 0.62882 0.33481 0.31863 0.0
C758 C 0.61581 0.30549 0.39047 0.0
C759 C 0.60419 0.28306 0.40555 0.0
C760 C 0.5802 0.27935 0.39271 0.0
C761 C 0.56941 0.258 0.40631 0.0
C762 C 0.58239 0.24037 0.43341 0.0
C763 C 0.60618 0.24407 0.44712 0.0
C764 C 0.61706 0.26538 0.43343 0.0
C765 C 0.59931 0.38385 0.52914 0.0
C766 C 0.6159 0.40212 0.53508 0.0
C767 C 0.60466 0.36368 0.49882 0.0
C768 C 0.62673 0.36133 0.47401 0.0
C769 C 0.64422 0.37834 0.48629 0.0
C770 C 0.63876 0.39876 0.51608 0.0
C771 C 0.62921 0.3437 0.42618 0.0
C772 C 0.62183 0.32075 0.43796 0.0
C773 C 0.63371 0.35046 0.36581 0.0
C774 C 0.64033 0.3746 0.34935 0.0
C775 C 0.66278 0.37984 0.32862 0.0
C776 C 0.66915 0.4027 0.3137 0.0
C777 C 0.65313 0.42038 0.31905 0.0
C778 C 0.63066 0.41523 0.33895 0.0
C779 C 0.62419 0.39239 0.35369 0.0
H780 H 0.65812 0.43807 0.30763 0.0
H781 H 0.57401 0.22385 0.44392 0.0
H782 H 0.26668 0.46112 0.23661 0.0
H783 H 0.23262 0.4533 0.29518 0.0
H784 H 0.20267 0.4105 0.1513 0.0
H785 H 0.23719 0.41857 0.09148 0.0
H786 H 0.17631 0.44415 0.16597 0.0
H787 H 0.20486 0.39064 0.30514 0.0
H788 H 0.23218 0.37061 0.37462 0.0
H789 H 0.23544 0.42982 0.49188 0.0
H790 H 0.20847 0.4504 0.42276 0.0
H791 H 0.08073 0.48751 0.3346 0.0
H792 H 0.10618 0.45865 0.29248 0.0
H793 H 0.16653 0.49568 0.36845 0.0
H794 H 0.14137 0.52492 0.40898 0.0
H795 H 0.16761 0.44737 0.38823 0.0
H796 H 0.15044 0.50256 0.22096 0.0
H797 H 0.12319 0.52167 0.14915 0.0
H798 H 0.09777 0.45515 0.08528 0.0
H799 H 0.12474 0.43568 0.15725 0.0
C800 C 0.25353 0.44899 0.21847 0.0
C801 C 0.25441 0.44093 0.15874 0.0
C802 C 0.23388 0.4444 0.25242 0.0
C803 C 0.2148 0.43146 0.22761 0.0
C804 C 0.21705 0.4207 0.17124 0.0
C805 C 0.23677 0.42538 0.13704 0.0
C806 C 0.19143 0.43457 0.25312 0.0
C807 C 0.17408 0.44393 0.21455 0.0
C808 C 0.18821 0.43428 0.31638 0.0
C809 C 0.20452 0.42208 0.35858 0.0
C810 C 0.21148 0.39947 0.34556 0.0
C811 C 0.22691 0.388 0.38494 0.0
C812 C 0.23552 0.39893 0.43765 0.0
C813 C 0.2287 0.42135 0.4511 0.0
C814 C 0.21327 0.43291 0.41189 0.0
C815 C 0.09945 0.48969 0.3415 0.0
C816 C 0.10908 0.50861 0.37471 0.0
C817 C 0.11391 0.47301 0.31816 0.0
C818 C 0.13817 0.47493 0.328 0.0
C819 C 0.14779 0.49373 0.36119 0.0
C820 C 0.13341 0.51047 0.38407 0.0
C821 C 0.15405 0.45834 0.30117 0.0
C822 C 0.16964 0.44648 0.33966 0.0
C823 C 0.15551 0.45596 0.23787 0.0
C824 C 0.13935 0.4677 0.19485 0.0
C825 C 0.13891 0.49204 0.19188 0.0
C826 C 0.12355 0.50292 0.15112 0.0
C827 C 0.1087 0.48963 0.11281 0.0
C828 C 0.10924 0.46543 0.11507 0.0
C829 C 0.12455 0.45446 0.15581 0.0
H830 H 0.09683 0.49809 0.08126 0.0
H831 H 0.24748 0.39003 0.46806 0.0
H832 H 0.9542 0.77097 0.03695 0.0
H833 H 0.94005 0.8057 0.98904 0.0
H834 H 0.89877 0.81955 0.14446 0.0
H835 H 0.91395 0.78474 0.19421 0.0
H836 H 0.90757 0.83024 0.95078 0.0
H837 H 0.89859 0.87554 0.16764 0.0
H838 H 0.90854 0.87722 0.27716 0.0
H839 H 0.97221 0.84194 0.24756 0.0
H840 H 0.96241 0.8398 0.13809 0.0
H841 H 0.9609 0.93621 0.84934 0.0
H842 H 0.92939 0.91385 0.89711 0.0
H843 H 0.97945 0.8869 0.02775 0.0
H844 H 0.0105 0.90996 0.98207 0.0
H845 H 0.94082 0.89342 0.08081 0.0
H846 H 0.96016 0.85871 0.87935 0.0
H847 H 0.95991 0.86142 0.7677 0.0
H848 H 0.88657 0.87508 0.76444 0.0
H849 H 0.88651 0.87267 0.8761 0.0
C850 C 0.9413 0.78074 0.06009 0.0
C851 C 0.93561 0.77538 0.11992 0.0
C852 C 0.93315 0.80083 0.03253 0.0
C853 C 0.91893 0.81589 0.0639 0.0
C854 C 0.91039 0.80871 0.12011 0.0
C855 C 0.9189 0.7887 0.1483 0.0
C856 C 0.91746 0.8403 0.04216 0.0
C857 C 0.91432 0.84424 0.97956 0.0
C858 C 0.9253 0.85912 0.0793 0.0
C859 C 0.92957 0.85714 0.14527 0.0
C860 C 0.91445 0.86771 0.18488 0.0
C861 C 0.92011 0.86884 0.24679 0.0
C862 C 0.941 0.85972 0.26928 0.0
C863 C 0.956 0.84891 0.23014 0.0
C864 C 0.95034 0.84761 0.16825 0.0
C865 C 0.96497 0.92578 0.88898 0.0
C866 C 0.98809 0.9246 0.91205 0.0
C867 C 0.94698 0.91303 0.91608 0.0
C868 C 0.95202 0.89847 0.96554 0.0
C869 C 0.97501 0.89813 0.9899 0.0
C870 C 0.99282 0.91121 0.96372 0.0
C871 C 0.93447 0.88173 0.98947 0.0
C872 C 0.93302 0.8798 0.05238 0.0
C873 C 0.92334 0.86449 0.95253 0.0
C874 C 0.92337 0.86569 0.88573 0.0
C875 C 0.94402 0.86232 0.85467 0.0
C876 C 0.94393 0.86383 0.79148 0.0
C877 C 0.92324 0.86846 0.759 0.0
C878 C 0.90258 0.87151 0.78964 0.0
C879 C 0.9026 0.87011 0.85283 0.0
H880 H 0.92321 0.86965 0.7101 0.0
H881 H 0.94562 0.86121 0.31699 0.0
H882 H 0.71391 0.92274 0.12174 0.0
H883 H 0.69441 0.91051 0.03054 0.0
H884 H 0.76012 0.89374 0.9541 0.0
H885 H 0.7803 0.90452 0.04901 0.0
H886 H 0.7443 0.9331 0.90916 0.0
H887 H 0.71042 0.85898 0.91584 0.0
H888 H 0.69168 0.82377 0.95807 0.0
H889 H 0.63054 0.86198 0.99548 0.0
H890 H 0.64897 0.89749 0.95459 0.0
H891 H 0.66606 0.00548 0.74694 0.0
H892 H 0.69056 0.97186 0.76123 0.0
H893 H 0.64985 0.94997 0.91326 0.0
H894 H 0.62406 0.98194 0.89576 0.0
H895 H 0.66122 0.91361 0.86014 0.0
H896 H 0.70706 0.98556 0.91996 0.0
H897 H 0.72621 0.02325 0.89603 0.0
H898 H 0.76363 0.99129 0.75461 0.0
H899 H 0.74456 0.95347 0.77764 0.0
C900 C 0.72454 0.91513 0.08797 0.0
C901 C 0.74916 0.91641 0.09194 0.0
C902 C 0.71303 0.90785 0.0348 0.0
C903 C 0.72583 0.9021 0.98417 0.0
C904 C 0.7499 0.8987 0.99212 0.0
C905 C 0.76147 0.90543 0.04625 0.0
C906 C 0.71581 0.9087 0.92399 0.0
C907 C 0.72638 0.92819 0.89665 0.0
C908 C 0.69254 0.90233 0.90686 0.0
C909 C 0.6811 0.88095 0.93142 0.0
C910 C 0.693 0.85992 0.93316 0.0
C911 C 0.68242 0.83989 0.95695 0.0
C912 C 0.65991 0.84062 0.97926 0.0
C913 C 0.64794 0.8614 0.9779 0.0
C914 C 0.65843 0.88149 0.95417 0.0
C915 C 0.66207 0.99333 0.78289 0.0
C916 C 0.64326 0.99686 0.82109 0.0
C917 C 0.67624 0.97411 0.79115 0.0
C918 C 0.67231 0.95837 0.8387 0.0
C919 C 0.6533 0.96169 0.87599 0.0
C920 C 0.63886 0.98047 0.86694 0.0
C921 C 0.68877 0.9396 0.85444 0.0
C922 C 0.67945 0.91773 0.87087 0.0
C923 C 0.71297 0.9442 0.86412 0.0
C924 C 0.7242 0.96687 0.84989 0.0
C925 C 0.71929 0.98666 0.88358 0.0
C926 C 0.73013 0.00801 0.87023 0.0
C927 C 0.74606 0.00968 0.82367 0.0
C928 C 0.75123 0.98999 0.7905 0.0
C929 C 0.74042 0.9686 0.80366 0.0
H930 H 0.75444 0.02622 0.81341 0.0
H931 H 0.65176 0.82509 0.99771 0.0
H932 H 0.49067 0.71254 0.09679 0.0
H933 H 0.46579 0.69376 0.01943 0.0
H934 H 0.43098 0.75812 0.98445 0.0
H935 H 0.45596 0.77716 0.06287 0.0
H936 H 0.42009 0.68652 0.01199 0.0
H937 H 0.41444 0.75731 0.83204 0.0
H938 H 0.43624 0.79172 0.79437 0.0
H939 H 0.50082 0.76234 0.85636 0.0
H940 H 0.47936 0.72789 0.8947 0.0
H941 H 0.37793 0.61486 0.78554 0.0
H942 H 0.37528 0.65303 0.83268 0.0
H943 H 0.44526 0.67049 0.77809 0.0
H944 H 0.44768 0.63313 0.72984 0.0
H945 H 0.42389 0.70888 0.79539 0.0
H946 H 0.43469 0.63586 0.91 0.0
H947 H 0.42158 0.59685 0.94348 0.0
H948 H 0.35896 0.62519 0.01095 0.0
H949 H 0.37173 0.66436 0.97756 0.0
C950 C 0.47749 0.72266 0.07344 0.0
C951 C 0.47514 0.74627 0.08633 0.0
C952 C 0.46331 0.71192 0.02902 0.0
C953 C 0.44646 0.72451 0.99633 0.0
C954 C 0.44395 0.74812 0.00897 0.0
C955 C 0.45823 0.75894 0.05365 0.0
C956 C 0.43205 0.71244 0.94877 0.0
C957 C 0.42043 0.6917 0.96471 0.0
C958 C 0.43237 0.71921 0.88718 0.0
C959 C 0.44529 0.74025 0.86683 0.0
C960 C 0.43328 0.75831 0.8379 0.0
C961 C 0.44557 0.77778 0.81638 0.0
C962 C 0.4699 0.77921 0.82297 0.0
C963 C 0.48197 0.76123 0.8514 0.0
C964 C 0.46975 0.74181 0.87335 0.0
C965 C 0.39231 0.62729 0.78142 0.0
C966 C 0.41322 0.6208 0.75535 0.0
C967 C 0.39078 0.64909 0.80833 0.0
C968 C 0.41039 0.66428 0.81087 0.0
C969 C 0.42993 0.65905 0.77727 0.0
C970 C 0.43132 0.63752 0.74958 0.0
C971 C 0.41323 0.68231 0.85845 0.0
C972 C 0.42244 0.70429 0.84284 0.0
C973 C 0.41165 0.67628 0.92048 0.0
C974 C 0.40399 0.65288 0.94076 0.0
C975 C 0.4181 0.6337 0.93187 0.0
C976 C 0.41075 0.6116 0.95081 0.0
C977 C 0.38941 0.60853 0.97912 0.0
C978 C 0.37545 0.62759 0.98883 0.0
C979 C 0.38273 0.64974 0.96996 0.0
H980 H 0.38373 0.5914 0.99368 0.0
H981 H 0.47939 0.79428 0.80622 0.0
H982 H 0.78086 0.53251 0.09086 0.0
H983 H 0.81974 0.52518 0.05465 0.0
H984 H 0.84757 0.58462 0.15303 0.0
H985 H 0.80856 0.59199 0.18995 0.0
H986 H 0.86999 0.5682 0.02732 0.0
H987 H 0.85061 0.54688 0.23433 0.0
H988 H 0.82305 0.53104 0.30804 0.0
H989 H 0.82034 0.46573 0.21519 0.0
H990 H 0.84727 0.48154 0.13939 0.0
H991 H 0.97642 0.51461 0.01235 0.0
H992 H 0.94798 0.53392 0.07365 0.0
H993 H 0.89844 0.47744 0.03973 0.0
H994 H 0.92679 0.45809 0.97882 0.0
H995 H 0.89158 0.49874 0.14881 0.0
H996 H 0.90033 0.52003 0.93551 0.0
H997 H 0.92456 0.53269 0.85043 0.0
H998 H 0.94633 0.59411 0.94832 0.0
H999 H 0.9221 0.58178 0.03397 0.0
C1000 C 0.79496 0.54478 0.10202 0.0
C1001 C 0.79187 0.56262 0.14372 0.0
C1002 C 0.81719 0.5405 0.0816 0.0
C1003 C 0.83642 0.55414 0.10224 0.0
C1004 C 0.83285 0.57394 0.13686 0.0
C1005 C 0.81062 0.57812 0.15782 0.0
C1006 C 0.85996 0.54475 0.09861 0.0
C1007 C 0.87506 0.55345 0.05494 0.0
C1008 C 0.86626 0.52527 0.13416 0.0
C1009 C 0.85072 0.51549 0.18081 0.0
C1010 C 0.84392 0.52924 0.22918 0.0
C1011 C 0.82839 0.52026 0.27132 0.0
C1012 C 0.81988 0.49739 0.26627 0.0
C1013 C 0.82691 0.48346 0.219 0.0
C1014 C 0.84227 0.49244 0.17634 0.0
C1015 C 0.95982 0.50587 0.02035 0.0
C1016 C 0.95351 0.48515 0.99004 0.0
C1017 C 0.94361 0.51693 0.05515 0.0
C1018 C 0.92097 0.50738 0.05954 0.0
C1019 C 0.91582 0.48513 0.03643 0.0
C1020 C 0.93205 0.47403 1.00179 0.0
C1021 C 0.90156 0.52196 0.07701 0.0
C1022 C 0.88704 0.51411 0.12295 0.0
C1023 C 0.89569 0.54203 0.04305 0.0
C1024 C 0.90953 0.54997 0.99102 0.0
C1025 C 0.91024 0.53626 0.93872 0.0
C1026 C 0.92394 0.54338 0.89044 0.0
C1027 C 0.93695 0.56419 0.89395 0.0
C1028 C 0.93619 0.57802 0.94562 0.0
C1029 C 0.92241 0.57102 0.99397 0.0
H1030 H 0.9476 0.56955 0.85655 0.0
H1031 H 0.80792 0.4904 0.29904 0.0
H1032 H 0.00825 0.23225 0.03922 0.0
H1033 H 1.0016 0.19891 0.97178 0.0
H1034 H 0.04994 0.22926 0.84632 0.0
H1035 H 0.05683 0.26233 0.91455 0.0
H1036 H 0.06135 0.18666 0.86699 0.0
H1037 H 0.96487 0.15913 0.90136 0.0
H1038 H 0.92711 0.17712 0.91885 0.0
H1039 H 0.95109 0.23975 0.83201 0.0
H1040 H 0.98887 0.22203 0.81331 0.0
H1041 H 0.04072 0.06755 0.79512 0.0
H1042 H 0.04202 0.10558 0.84344 0.0
H1043 H 1.00286 0.13392 0.69209 0.0
H1044 H 1.0015 0.09575 0.64317 0.0
H1045 H 0.98616 0.14905 0.79999 0.0
H1046 H 0.06082 0.1462 0.70934 0.0
H1047 H 0.09864 0.12934 0.68668 0.0
H1048 H 0.11838 0.13014 0.87576 0.0
H1049 H 0.08052 0.14672 0.89966 0.0
C1050 C 0.01655 0.23233 0.99584 0.0
C1051 C 0.03245 0.2504 0.98134 0.0
C1052 C 0.01294 0.21307 0.95737 0.0
C1053 C 0.02518 0.21132 0.90328 0.0
C1054 C 0.04021 0.22997 0.88748 0.0
C1055 C 0.04385 0.24917 0.92602 0.0
C1056 C 0.02392 0.18939 0.8661 0.0
C1057 C 0.04484 0.17857 0.85235 0.0
C1058 C 1.00251 0.17857 0.84609 0.0
C1059 C 0.97977 0.1893 0.85643 0.0
C1060 C 0.96204 0.1767 0.88576 0.0
C1061 C 0.94065 0.18686 0.89594 0.0
C1062 C 0.93673 0.20958 0.8767 0.0
C1063 C 0.95418 0.22217 0.84708 0.0
C1064 C 0.9756 0.2121 0.83676 0.0
C1065 C 0.03248 0.08183 0.77162 0.0
C1066 C 0.02108 0.07836 0.71474 0.0
C1067 C 0.03326 0.10371 0.79951 0.0
C1068 C 0.02264 0.12289 0.77162 0.0
C1069 C 0.01119 0.11952 0.71487 0.0
C1070 C 0.01056 0.09763 0.68663 0.0
C1071 C 0.02355 0.14628 0.8019 0.0
C1072 C 1.00262 0.15727 0.81454 0.0
C1073 C 0.04495 0.1574 0.82052 0.0
C1074 C 0.06776 0.14752 0.80632 0.0
C1075 C 0.07316 0.14262 0.74613 0.0
C1076 C 0.09461 0.13315 0.73306 0.0
C1077 C 0.11088 0.12863 0.77976 0.0
C1078 C 0.10575 0.13363 0.83964 0.0
C1079 C 0.08431 0.14309 0.85297 0.0
H1080 H 0.12748 0.12129 0.76955 0.0
H1081 H 0.92016 0.21742 0.88466 0.0
H1082 H 0.31279 0.00895 0.11053 0.0
H1083 H 0.34496 1.00345 0.04191 0.0
H1084 H 0.30949 0.04428 0.90552 0.0
H1085 H 0.27729 0.0499 0.97463 0.0
H1086 H 0.33477 0.00667 0.85606 0.0
H1087 H 0.34788 0.07013 0.99474 0.0
H1088 H 0.34968 0.08733 0.09678 0.0
H1089 H 0.40425 0.0413 0.15079 0.0
H1090 H 0.40242 0.02345 0.0494 0.0
H1091 H 0.43571 0.03264 0.68342 0.0
H1092 H 0.39975 0.03436 0.74001 0.0
H1093 H 0.43744 0.01345 0.9025 0.0
H1094 H 0.47362 0.01338 0.84685 0.0
H1095 H 0.40939 0.04133 0.93718 0.0
H1096 H 0.39664 0.97688 0.80169 0.0
H1097 H 0.39211 0.95568 0.70514 0.0
H1098 H 0.33638 0.99987 0.64834 0.0
H1099 H 0.34093 0.02171 0.74385 0.0
C1100 C 0.31131 0.0158 0.06486 0.0
C1101 C 0.2921 0.02932 0.04755 0.0
C1102 C 0.32993 0.01296 0.02586 0.0
C1103 C 0.32996 0.02368 0.96847 0.0
C1104 C 0.30998 0.03575 0.94931 0.0
C1105 C 0.29139 0.03874 0.98863 0.0
C1106 C 0.35165 0.02424 0.93154 0.0
C1107 C 0.35106 0.01447 0.8734 0.0
C1108 C 0.37312 0.034 0.95435 0.0
C1109 C 0.37487 0.04531 0.0146 0.0
C1110 C 0.36019 0.06359 0.02845 0.0
C1111 C 0.3612 0.07345 0.08619 0.0
C1112 C 0.37703 0.06538 0.13028 0.0
C1113 C 0.39197 0.04751 0.11661 0.0
C1114 C 0.39095 0.03751 0.05901 0.0
C1115 C 0.43636 0.02858 0.73135 0.0
C1116 C 0.45772 0.02296 0.76044 0.0
C1117 C 0.41559 0.02926 0.76379 0.0
C1118 C 0.41528 0.02345 0.82592 0.0
C1119 C 0.43677 0.01805 0.85491 0.0
C1120 C 0.45763 0.018 0.82288 0.0
C1121 C 0.39294 0.0233 0.86112 0.0
C1122 C 0.39329 0.03337 0.91925 0.0
C1123 C 0.3713 0.01354 0.83837 0.0
C1124 C 0.36925 1.00104 0.77983 0.0
C1125 C 0.38361 0.98225 0.76833 0.0
C1126 C 0.381 0.9701 0.71383 0.0
C1127 C 0.36388 0.97636 0.67085 0.0
C1128 C 0.34954 0.99497 0.68187 0.0
C1129 C 0.35218 0.00729 0.73606 0.0
H1130 H 0.36167 0.96677 0.62902 0.0
H1131 H 0.37774 0.073 0.175 0.0
H1132 H 0.54341 0.27038 0.97429 0.0
H1133 H 0.53574 0.30189 0.90242 0.0
H1134 H 0.47755 0.32244 1.00684 0.0
H1135 H 0.48531 0.29076 0.0792 0.0
H1136 H 0.47116 0.32937 0.87555 0.0
H1137 H 0.52567 0.34831 0.03893 0.0
H1138 H 0.56016 0.34183 0.10573 0.0
H1139 H 0.60428 0.34441 0.95222 0.0
H1140 H 0.56997 0.35067 0.88434 0.0
H1141 H 0.47289 0.44856 0.77937 0.0
H1142 H 0.47137 0.41188 0.83536 0.0
H1143 H 0.53817 0.39424 0.76647 0.0
H1144 H 0.54006 0.43108 0.71171 0.0
H1145 H 0.53844 0.38543 0.88132 0.0
H1146 H 0.48412 0.36741 0.71736 0.0
H1147 H 0.44956 0.37303 0.65008 0.0
H1148 H 0.40506 0.36829 0.80267 0.0
H1149 H 0.4394 0.36295 0.871 0.0
C1150 C 0.52831 0.28093 0.98034 0.0
C1151 C 0.51476 0.27789 0.0319 0.0
C1152 C 0.52408 0.29912 0.93959 0.0
C1153 C 0.50628 0.3148 0.94958 0.0
C1154 C 0.49136 0.31057 0.99805 0.0
C1155 C 0.49566 0.29233 0.03912 0.0
C1156 C 0.50538 0.33699 0.9143 0.0
C1157 C 0.48573 0.34178 0.87725 0.0
C1158 C 0.52451 0.35309 0.91575 0.0
C1159 C 0.54523 0.34973 0.9565 0.0
C1160 C 0.54271 0.34734 0.01937 0.0
C1161 C 0.56222 0.34372 0.05744 0.0
C1162 C 0.58439 0.34259 0.03323 0.0
C1163 C 0.58709 0.34523 0.9709 0.0
C1164 C 0.56762 0.34885 0.93261 0.0
C1165 C 0.48717 0.4368 0.77553 0.0
C1166 C 0.5066 0.44293 0.74073 0.0
C1167 C 0.48623 0.41569 0.80754 0.0
C1168 C 0.50455 0.39997 0.80502 0.0
C1169 C 0.52378 0.40594 0.76951 0.0
C1170 C 0.52481 0.42708 0.73789 0.0
C1171 C 0.50431 0.37787 0.84131 0.0
C1172 C 0.52381 0.3731 0.87911 0.0
C1173 C 0.48502 0.36185 0.84034 0.0
C1174 C 0.46436 0.36502 0.79936 0.0
C1175 C 0.46698 0.36775 0.73663 0.0
C1176 C 0.44743 0.37085 0.6983 0.0
C1177 C 0.42514 0.37108 0.72211 0.0
C1178 C 0.42235 0.36814 0.7843 0.0
C1179 C 0.44184 0.36506 0.82285 0.0
H1180 H 0.41003 0.37348 0.69236 0.0
H1181 H 0.59947 0.33975 0.06278 0.0
H1182 H 0.26631 0.4615 0.91499 0.0
H1183 H 0.23343 0.46932 0.84497 0.0
H1184 H 0.21297 0.52507 0.95963 0.0
H1185 H 0.24626 0.51754 0.02874 0.0
H1186 H 0.20058 0.53517 0.84623 0.0
H1187 H 0.18672 0.43597 0.80588 0.0
H1188 H 0.19587 0.39928 0.85847 0.0
H1189 H 0.19875 0.43455 0.02938 0.0
H1190 H 0.18939 0.47132 0.97794 0.0
H1191 H 0.10333 0.52495 0.63894 0.0
H1192 H 0.1419 0.52265 0.68933 0.0
H1193 H 0.11203 0.48023 0.83032 0.0
H1194 H 0.07403 0.48111 0.77751 0.0
H1195 H 0.15024 0.46451 0.81712 0.0
H1196 H 0.12831 0.54295 0.84145 0.0
H1197 H 0.11539 0.5818 0.81021 0.0
H1198 H 0.17687 0.59169 0.70587 0.0
H1199 H 0.19001 0.55276 0.73592 0.0
C1200 C 0.25552 0.4762 0.92345 0.0
C1201 C 0.25917 0.48924 0.97662 0.0
C1202 C 0.23644 0.48044 0.88396 0.0
C1203 C 0.22028 0.49748 0.89749 0.0
C1204 C 0.22508 0.51183 0.94792 0.0
C1205 C 0.24429 0.50768 0.9872 0.0
C1206 C 0.19725 0.4985 0.86343 0.0
C1207 C 0.18964 0.5197 0.83942 0.0
C1208 C 0.18233 0.4786 0.85666 0.0
C1209 C 0.18763 0.45643 0.8879 0.0
C1210 C 0.18925 0.43585 0.85467 0.0
C1211 C 0.19449 0.41505 0.8843 0.0
C1212 C 0.198 0.4146 0.94719 0.0
C1213 C 0.19616 0.43493 0.98065 0.0
C1214 C 0.19091 0.45575 0.95127 0.0
C1215 C 0.1051 0.51499 0.68045 0.0
C1216 C 0.0856 0.50318 0.70412 0.0
C1217 C 0.12718 0.51386 0.70977 0.0
C1218 C 0.13015 0.50168 0.76489 0.0
C1219 C 0.11058 0.48972 0.788 0.0
C1220 C 0.08872 0.49025 0.75774 0.0
C1221 C 0.15344 0.50123 0.7986 0.0
C1222 C 0.16114 0.48005 0.82299 0.0
C1223 C 0.16781 0.52144 0.80848 0.0
C1224 C 0.16001 0.54486 0.79041 0.0
C1225 C 0.13899 0.55336 0.81153 0.0
C1226 C 0.13164 0.57539 0.79408 0.0
C1227 C 0.14527 0.58917 0.75594 0.0
C1228 C 0.16631 0.58097 0.73532 0.0
C1229 C 0.17373 0.55894 0.75258 0.0
H1230 H 0.13955 0.60623 0.74248 0.0
H1231 H 0.20209 0.3985 0.97001 0.0
H1232 H 0.98096 0.75502 0.3583 0.0
H1233 H 0.98872 0.78658 0.43125 0.0
H1234 H 0.0154 0.82977 0.28769 0.0
H1235 H 0.00905 0.79791 0.21658 0.0
H1236 H 0.03631 0.84326 0.38181 0.0
H1237 H 0.95601 0.8211 0.33783 0.0
H1238 H 0.91959 0.79769 0.33846 0.0
H1239 H 0.92021 0.80028 0.53267 0.0
H1240 H 0.9568 0.82375 0.53316 0.0
H1241 H 0.97014 0.94744 0.51358 0.0
H1242 H 0.96919 0.91001 0.46086 0.0
H1243 H 0.03166 0.89051 0.55994 0.0
H1244 H 0.03289 0.92776 0.61197 0.0
H1245 H 0.96612 0.86481 0.49212 0.0
H1246 H 0.06608 0.85961 0.46992 0.0
H1247 H 0.10053 0.88609 0.46471 0.0
H1248 H 0.05739 0.93992 0.39207 0.0
H1249 H 0.02277 0.91365 0.39595 0.0
C1250 C 0.98968 0.77082 0.3433 0.0
C1251 C 0.99479 0.7738 0.28186 0.0
C1252 C 0.99367 0.78912 0.38474 0.0
C1253 C 1.00188 0.81111 0.365 0.0
C1254 C 0.0089 0.81325 0.30471 0.0
C1255 C 1.00547 0.79487 0.26387 0.0
C1256 C 1.00132 0.83244 0.40423 0.0
C1257 C 0.02095 0.84771 0.40626 0.0
C1258 C 0.9812 0.83883 0.43594 0.0
C1259 C 0.95928 0.82434 0.43542 0.0
C1260 C 0.9484 0.81686 0.38068 0.0
C1261 C 0.92772 0.80347 0.38084 0.0
C1262 C 0.91756 0.79751 0.43559 0.0
C1263 C 0.92809 0.80492 0.49026 0.0
C1264 C 0.94882 0.81829 0.49028 0.0
C1265 C 0.98358 0.93512 0.52455 0.0
C1266 C 1.0017 0.94089 0.56687 0.0
C1267 C 0.98299 0.91363 0.49435 0.0
C1268 C 1.00055 0.89737 0.50544 0.0
C1269 C 0.01811 0.90277 0.5494 0.0
C1270 C 0.01874 0.92419 0.57942 0.0
C1271 C 1.00109 0.87522 0.46974 0.0
C1272 C 0.98149 0.86 0.46821 0.0
C1273 C 0.02101 0.86894 0.43768 0.0
C1274 C 0.04181 0.88472 0.43387 0.0
C1275 C 0.06398 0.87705 0.45257 0.0
C1276 C 0.08352 0.89203 0.44987 0.0
C1277 C 0.08113 0.91469 0.42826 0.0
C1278 C 0.05921 0.92239 0.40899 0.0
C1279 C 0.03962 0.90746 0.41146 0.0
H1280 H 0.09628 0.92627 0.42634 0.0
H1281 H 0.90153 0.78714 0.43567 0.0
H1282 H 0.7078 0.96528 0.18292 0.0
H1283 H 0.67672 0.97317 0.25102 0.0
H1284 H 0.72761 0.99513 0.38847 0.0
H1285 H 0.75931 0.98558 0.32035 0.0
H1286 H 0.69653 0.9707 0.44169 0.0
H1287 H 0.6879 0.03393 0.30579 0.0
H1288 H 0.68454 0.05435 0.20772 0.0
H1289 H 0.62158 0.01528 0.16286 0.0
H1290 H 0.62469 0.99442 0.26038 0.0
H1291 H 0.60371 0.01505 0.61812 0.0
H1292 H 0.63779 0.01126 0.5556 0.0
H1293 H 0.59587 0.97221 0.42455 0.0
H1294 H 0.56159 0.9757 0.48789 0.0
H1295 H 0.62356 0.00835 0.37249 0.0
H1296 H 0.63412 0.94552 0.51488 0.0
H1297 H 0.63862 0.92785 0.61626 0.0
H1298 H 0.69977 0.97077 0.65304 0.0
H1299 H 0.69528 0.98913 0.55257 0.0
C1300 C 0.71252 0.97205 0.22743 0.0
C1301 C 0.73623 0.97466 0.24597 0.0
C1302 C 0.69454 0.97682 0.26651 0.0
C1303 C 0.6994 0.9852 0.32532 0.0
C1304 C 0.72313 0.98873 0.34349 0.0
C1305 C 0.74134 0.98356 0.30424 0.0
C1306 C 0.67961 0.98888 0.36782 0.0
C1307 C 0.68081 0.97938 0.42667 0.0
C1308 C 0.65866 0.9999 0.34894 0.0
C1309 C 0.65663 0.01249 0.29029 0.0
C1310 C 0.67341 0.02959 0.27487 0.0
C1311 C 0.67154 0.04126 0.2194 0.0
C1312 C 0.65288 0.03609 0.17905 0.0
C1313 C 0.63602 0.01927 0.19417 0.0
C1314 C 0.63781 0.00754 0.24959 0.0
C1315 C 0.60167 0.00551 0.5763 0.0
C1316 C 0.57974 0.9957 0.55845 0.0
C1317 C 0.62131 1.00329 0.54046 0.0
C1318 C 0.61962 0.9914 0.48506 0.0
C1319 C 0.59776 0.98148 0.46701 0.0
C1320 C 0.57815 0.98337 0.50352 0.0
C1321 C 0.64046 0.98988 0.44551 0.0
C1322 C 0.6394 0.99984 0.38735 0.0
C1323 C 0.66168 0.9798 0.46561 0.0
C1324 C 0.6642 0.9689 0.52637 0.0
C1325 C 0.64835 0.95141 0.54488 0.0
C1326 C 0.65091 0.94125 0.60221 0.0
C1327 C 0.6694 0.94824 0.64122 0.0
C1328 C 0.68537 0.96543 0.62299 0.0
C1329 C 0.68282 0.97574 0.56585 0.0
H1330 H 0.67141 0.94025 0.68544 0.0
H1331 H 0.65148 0.04514 0.13611 0.0
H1332 H 0.48334 0.7435 0.31595 0.0
H1333 H 0.48811 0.71298 0.39217 0.0
H1334 H 0.55935 0.70494 0.34019 0.0
H1335 H 0.55441 0.73554 0.26314 0.0
H1336 H 0.53647 0.66413 0.33976 0.0
H1337 H 0.54568 0.72591 0.48177 0.0
H1338 H 0.53592 0.7621 0.53307 0.0
H1339 H 0.47116 0.7309 0.58888 0.0
H1340 H 0.48035 0.69462 0.53712 0.0
H1341 H 0.55611 0.57433 0.55256 0.0
H1342 H 0.55867 0.61124 0.49827 0.0
H1343 H 0.48942 0.62733 0.55358 0.0
H1344 H 0.48738 0.59084 0.61102 0.0
H1345 H 0.51403 0.66518 0.55462 0.0
H1346 H 0.50433 0.60376 0.40751 0.0
H1347 H 0.51468 0.56767 0.35624 0.0
H1348 H 0.58041 0.59869 0.30764 0.0
H1349 H 0.57084 0.6347 0.36012 0.0
C1350 C 0.50027 0.73578 0.3223 0.0
C1351 C 0.51861 0.74213 0.28416 0.0
C1352 C 0.50299 0.71825 0.36586 0.0
C1353 C 0.52413 0.70656 0.37244 0.0
C1354 C 0.54286 0.71366 0.33625 0.0
C1355 C 0.54016 0.73136 0.29272 0.0
C1356 C 0.52577 0.68561 0.41268 0.0
C1357 C 0.532 0.66448 0.3871 0.0
C1358 C 0.51927 0.68576 0.47407 0.0
C1359 C 0.51363 0.70759 0.50507 0.0
C1360 C 0.52926 0.72683 0.50451 0.0
C1361 C 0.52385 0.74735 0.53377 0.0
C1362 C 0.50291 0.74882 0.56409 0.0
C1363 C 0.48736 0.72975 0.56531 0.0
C1364 C 0.49267 0.70919 0.53607 0.0
C1365 C 0.54148 0.58582 0.55362 0.0
C1366 C 0.52147 0.57954 0.58586 0.0
C1367 C 0.54289 0.60692 0.52204 0.0
C1368 C 0.52398 0.62199 0.51991 0.0
C1369 C 0.50425 0.61608 0.55387 0.0
C1370 C 0.50307 0.59517 0.5868 0.0
C1371 C 0.5246 0.6436 0.48162 0.0
C1372 C 0.51867 0.66483 0.50743 0.0
C1373 C 0.53133 0.64354 0.42023 0.0
C1374 C 0.53695 0.62187 0.38834 0.0
C1375 C 0.52106 0.60284 0.38631 0.0
C1376 C 0.52678 0.5824 0.35703 0.0
C1377 C 0.54815 0.58092 0.32873 0.0
C1378 C 0.56387 0.59985 0.32967 0.0
C1379 C 0.55834 0.62026 0.35929 0.0
H1380 H 0.5525 0.56509 0.30601 0.0
H1381 H 0.49876 0.76471 0.58675 0.0
H1382 H 0.76404 0.5069 0.33424 0.0
H1383 H 0.79392 0.49714 0.41135 0.0
H1384 H 0.80655 0.56997 0.44663 0.0
H1385 H 0.77622 0.57951 0.3716 0.0
H1386 H 0.83689 0.5066 0.39404 0.0
H1387 H 0.83794 0.5801 0.57522 0.0
H1388 H 0.80983 0.60073 0.63617 0.0
H1389 H 0.76078 0.54341 0.61753 0.0
H1390 H 0.7887 0.52228 0.55722 0.0
H1391 H 0.95211 0.53497 0.49401 0.0
H1392 H 0.91154 0.53716 0.45791 0.0
H1393 H 0.88847 0.50807 0.62662 0.0
H1394 H 0.92916 0.50608 0.66358 0.0
H1395 H 0.86043 0.54235 0.59078 0.0
H1396 H 0.8906 0.47504 0.49696 0.0
H1397 H 0.91739 0.4526 0.43631 0.0
H1398 H 0.90189 0.49519 0.28095 0.0
H1399 H 0.87547 0.51823 0.34105 0.0
C1400 C 0.77208 0.5207 0.36143 0.0
C1401 C 0.7675 0.54396 0.34738 0.0
C1402 C 0.78955 0.51515 0.40481 0.0
C1403 C 0.80288 0.53277 0.43479 0.0
C1404 C 0.79652 0.55592 0.42521 0.0
C1405 C 0.77894 0.56141 0.38242 0.0
C1406 C 0.82553 0.52749 0.46743 0.0
C1407 C 0.8419 0.51453 0.43696 0.0
C1408 C 0.83222 0.53715 0.5245 0.0
C1409 C 0.81539 0.54966 0.56128 0.0
C1410 C 0.82121 0.57183 0.58438 0.0
C1411 C 0.80529 0.58363 0.61877 0.0
C1412 C 0.78352 0.57342 0.63059 0.0
C1413 C 0.77763 0.55134 0.60817 0.0
C1414 C 0.79348 0.53946 0.57378 0.0
C1415 C 0.93848 0.5291 0.52376 0.0
C1416 C 0.94408 0.52022 0.58177 0.0
C1417 C 0.91519 0.53026 0.5028 0.0
C1418 C 0.89679 0.52243 0.53899 0.0
C1419 C 0.90226 0.51415 0.59758 0.0
C1420 C 0.92561 0.51298 0.61866 0.0
C1421 C 0.872 0.52274 0.51522 0.0
C1422 C 0.85529 0.53462 0.54757 0.0
C1423 C 0.86494 0.51213 0.4596 0.0
C1424 C 0.88116 0.49847 0.42371 0.0
C1425 C 0.89308 0.47977 0.45006 0.0
C1426 C 0.9082 0.46693 0.41575 0.0
C1427 C 0.91139 0.47249 0.35486 0.0
C1428 C 0.89946 0.49092 0.32814 0.0
C1429 C 0.88441 0.50387 0.36232 0.0
H1430 H 0.92306 0.4625 0.32837 0.0
H1431 H 0.77122 0.58259 0.6572 0.0
loop_
_geom_bond_atom_site_label_1
_geom_bond_atom_site_label_2
_geom_bond_distance
_geom_bond_site_symmetry_2
_ccdc_geom_bond_type
H0 C3 0.931 . S
H1 C6 0.928 . S
H2 C8 0.930 . S
C3 H0 0.931 . S
C3 C4 1.413 . S
C3 C5 1.360 . S
C4 C3 1.413 . S
C4 C8 1.429 . S
C5 C3 1.360 . S
C5 C6 1.372 . S
C6 H1 0.928 . S
C6 C5 1.372 . S
C6 C7 1.404 . S
C7 C6 1.404 . S
C7 C8 1.391 . S
C8 H2 0.930 . S
C8 C4 1.429 . S
C8 C7 1.391 . S
H9 C12 0.931 . S
H10 C15 0.928 . S
H11 C17 0.930 . S
C12 H9 0.931 . S
C12 C13 1.413 . S
C12 C14 1.360 . S
C13 C12 1.413 . S
C13 C17 1.429 . S
C14 C12 1.360 . S
C14 C15 1.372 . S
C15 H10 0.928 . S
C15 C14 1.372 . S
C15 C16 1.404 . S
C16 C15 1.404 . S
C16 C17 1.391 . S
C17 H11 0.930 . S
C17 C13 1.429 . S
C17 C16 1.391 . S
H18 C21 0.931 . S
H19 C24 0.928 . S
H20 C26 0.930 . S
C21 H18 0.931 . S
C21 C22 1.413 . S
C21 C23 1.360 . S
C22 C21 1.413 . S
C22 C26 1.429 . S
C23 C21 1.360 . S
C23 C24 1.372 . S
C24 H19 0.928 . S
C24 C23 1.372 . S
C24 C25 1.404 . S
C25 C24 1.404 . S
C25 C26 1.391 . S
C26 H20 0.930 . S
C26 C22 1.429 . S
C26 C25 1.391 . S
H27 C30 0.931 . S
H28 C33 0.928 . S
H29 C35 0.930 . S
C30 H27 0.931 . S
C30 C31 1.413 . S
C30 C32 1.360 . S
C31 C30 1.413 . S
C31 C35 1.429 . S
C32 C30 1.360 . S
C32 C33 1.372 . S
C33 H28 0.928 . S
C33 C32 1.372 . S
C33 C34 1.404 . S
C34 C33 1.404 . S
C34 C35 1.391 . S
C35 H29 0.930 . S
C35 C31 1.429 . S
C35 C34 1.391 . S
H36 C39 0.931 . S
H37 C42 0.928 . S
H38 C44 0.930 . S
C39 H36 0.931 . S
C39 C40 1.413 . S
C39 C41 1.360 . S
C40 C39 1.413 . S
C40 C44 1.429 . S
C41 C39 1.360 . S
C41 C42 1.372 . S
C42 H37 0.928 . S
C42 C41 1.372 . S
C42 C43 1.404 . S
C43 C42 1.404 . S
C43 C44 1.391 . S
C44 H38 0.930 . S
C44 C40 1.429 . S
C44 C43 1.391 . S
H45 C48 0.931 . S
H46 C51 0.928 . S
H47 C53 0.930 . S
C48 H45 0.931 . S
C48 C49 1.413 1_554 S
C48 C50 1.360 . S
C49 C48 1.413 1_556 S
C49 C53 1.429 . S
C50 C48 1.360 . S
C50 C51 1.372 . S
C51 H46 0.928 . S
C51 C50 1.372 . S
C51 C52 1.404 . S
C52 C51 1.404 . S
C52 C53 1.391 1_554 S
C53 H47 0.930 . S
C53 C49 1.429 . S
C53 C52 1.391 1_556 S
H54 C57 0.931 1_556 S
H55 C60 0.928 . S
H56 C62 0.930 . S
C57 H54 0.931 1_554 S
C57 C58 1.413 1_554 S
C57 C59 1.360 . S
C58 C57 1.413 1_556 S
C58 C62 1.429 . S
C59 C57 1.360 . S
C59 C60 1.372 . S
C60 H55 0.928 . S
C60 C59 1.372 . S
C60 C61 1.404 . S
C61 C60 1.404 . S
C61 C62 1.391 1_554 S
C62 H56 0.930 . S
C62 C58 1.429 . S
C62 C61 1.391 1_556 S
H63 C66 0.931 . S
H64 C69 0.928 1_556 S
H65 C71 0.930 . S
C66 H63 0.931 . S
C66 C67 1.413 . S
C66 C68 1.360 . S
C67 C66 1.413 . S
C67 C71 1.429 . S
C68 C66 1.360 . S
C68 C69 1.372 . S
C69 H64 0.928 1_554 S
C69 C68 1.372 . S
C69 C70 1.404 . S
C70 C69 1.404 . S
C70 C71 1.391 . S
C71 H65 0.930 . S
C71 C67 1.429 . S
C71 C70 1.391 . S
Eu72 C81 2.828 . S
Eu72 O83 2.392 . S
Eu72 O85 2.418 1_545 S
Eu72 O90 2.373 1_655 S
Eu72 O93 2.488 . S
Eu72 O94 2.471 . S
Eu72 O95 2.349 1_655 S
Eu73 O82 2.373 1_455 S
Eu73 O86 2.488 . S
Eu73 O87 2.471 . S
Eu73 O88 2.349 . S
Eu73 O91 2.392 1_565 S
Eu73 O92 2.418 1_565 S
Eu73 C102 2.828 . S
C74 O92 1.244 . S
C74 O95 1.265 . S
C75 C76 1.379 1_655 S
C75 C79 1.373 . S
C75 C81 1.505 . S
C76 C75 1.379 1_455 S
C76 C78 1.369 . S
C76 H104 0.930 . S
C77 C79 1.383 . S
C77 C80 1.382 1_655 S
C77 H105 0.930 . S
C78 C76 1.369 . S
C78 C80 1.392 . S
C78 H106 0.930 . S
C79 C75 1.373 . S
C79 C77 1.383 . S
C79 H107 0.931 . S
C80 C77 1.382 1_455 S
C80 C78 1.392 . S
C81 Eu72 2.828 . S
C81 C75 1.505 . S
C81 O93 1.249 . S
C81 O94 1.244 . S
O82 Eu73 2.373 1_655 S
O82 C84 1.258 . S
O83 Eu72 2.392 . S
O83 C84 1.242 1_545 S
C84 O82 1.258 . S
C84 O83 1.242 1_565 S
O85 Eu72 2.418 1_565 S
O85 C89 1.244 . S
O86 Eu73 2.488 . S
O86 C102 1.249 . S
O87 Eu73 2.471 . S
O87 C102 1.244 . S
O88 Eu73 2.349 . S
O88 C89 1.265 1_455 S
C89 O85 1.244 . S
C89 O88 1.265 1_655 S
O90 Eu72 2.373 1_455 S
O90 C103 1.258 . S
O91 Eu73 2.392 1_545 S
O91 C103 1.242 . S
O92 Eu73 2.418 1_545 S
O92 C74 1.244 . S
O93 Eu72 2.488 . S
O93 C81 1.249 . S
O94 Eu72 2.471 . S
O94 C81 1.244 . S
O95 Eu72 2.349 1_455 S
O95 C74 1.265 . S
C96 C97 1.379 . S
C96 C100 1.373 . S
C96 C102 1.505 . S
C97 C96 1.379 . S
C97 C99 1.369 . S
C97 H108 0.930 1_455 S
C98 C100 1.383 . S
C98 C101 1.382 . S
C98 H109 0.930 . S
C99 C97 1.369 . S
C99 C101 1.392 . S
C99 H110 0.930 1_455 S
C100 C96 1.373 . S
C100 C98 1.383 . S
C100 H111 0.931 . S
C101 C98 1.382 . S
C101 C99 1.392 . S
C102 Eu73 2.828 . S
C102 O86 1.249 . S
C102 O87 1.244 . S
C102 C96 1.505 . S
C103 O90 1.258 . S
C103 O91 1.242 . S
H104 C76 0.930 . S
H105 C77 0.930 . S
H106 C78 0.930 . S
H107 C79 0.931 . S
H108 C97 0.930 1_655 S
H109 C98 0.930 . S
H110 C99 0.930 1_655 S
H111 C100 0.931 . S
Eu112 C121 2.828 . S
Eu112 O123 2.392 . S
Eu112 O125 2.418 . S
Eu112 O130 2.373 . S
Eu112 O133 2.488 . S
Eu112 O134 2.471 . S
Eu112 O135 2.349 1_545 S
Eu113 O122 2.373 1_565 S
Eu113 O126 2.488 . S
Eu113 O127 2.471 1_565 S
Eu113 O128 2.349 1_565 S
Eu113 O131 2.392 . S
Eu113 O132 2.418 . S
Eu113 C142 2.828 . S
C114 O132 1.244 . S
C114 O135 1.265 . S
C115 C116 1.379 1_545 S
C115 C119 1.373 . S
C115 C121 1.505 . S
C116 C115 1.379 1_565 S
C116 C118 1.369 . S
C116 H144 0.930 . S
C117 C119 1.383 . S
C117 C120 1.382 . S
C117 H145 0.930 . S
C118 C116 1.369 . S
C118 C120 1.392 1_565 S
C118 H146 0.930 . S
C119 C115 1.373 . S
C119 C117 1.383 . S
C119 H147 0.931 . S
C120 C117 1.382 . S
C120 C118 1.392 1_545 S
C121 Eu112 2.828 . S
C121 C115 1.505 . S
C121 O133 1.249 . S
C121 O134 1.244 . S
O122 Eu113 2.373 1_545 S
O122 C124 1.258 . S
O123 Eu112 2.392 . S
O123 C124 1.242 . S
C124 O122 1.258 . S
C124 O123 1.242 . S
O125 Eu112 2.418 . S
O125 C129 1.244 . S
O126 Eu113 2.488 . S
O126 C142 1.249 . S
O127 Eu113 2.471 1_545 S
O127 C142 1.244 1_545 S
O128 Eu113 2.349 1_545 S
O128 C129 1.265 . S
C129 O125 1.244 . S
C129 O128 1.265 . S
O130 Eu112 2.373 . S
O130 C143 1.258 1_545 S
O131 Eu113 2.392 . S
O131 C143 1.242 . S
O132 Eu113 2.418 . S
O132 C114 1.244 . S
O133 Eu112 2.488 . S
O133 C121 1.249 . S
O134 Eu112 2.471 . S
O134 C121 1.244 . S
O135 Eu112 2.349 1_565 S
O135 C114 1.265 . S
C136 C137 1.379 1_565 S
C136 C140 1.373 . S
C136 C142 1.505 . S
C137 C136 1.379 1_545 S
C137 C139 1.369 . S
C137 H148 0.930 . S
C138 C140 1.383 . S
C138 C141 1.382 . S
C138 H149 0.930 . S
C139 C137 1.369 . S
C139 C141 1.392 1_545 S
C139 H150 0.930 . S
C140 C136 1.373 . S
C140 C138 1.383 . S
C140 H151 0.931 . S
C141 C138 1.382 . S
C141 C139 1.392 1_565 S
C142 Eu113 2.828 . S
C142 O126 1.249 . S
C142 O127 1.244 1_565 S
C142 C136 1.505 . S
C143 O130 1.258 1_565 S
C143 O131 1.242 . S
H144 C116 0.930 . S
H145 C117 0.930 . S
H146 C118 0.930 . S
H147 C119 0.931 . S
H148 C137 0.930 . S
H149 C138 0.930 . S
H150 C139 0.930 . S
H151 C140 0.931 . S
Eu152 C161 2.828 . S
Eu152 O163 2.392 . S
Eu152 O165 2.418 . S
Eu152 O170 2.373 . S
Eu152 O173 2.488 . S
Eu152 O174 2.471 . S
Eu152 O175 2.349 . S
Eu153 O162 2.373 . S
Eu153 O166 2.488 . S
Eu153 O167 2.471 . S
Eu153 O168 2.349 . S
Eu153 O171 2.392 . S
Eu153 O172 2.418 . S
Eu153 C182 2.828 . S
C154 O172 1.244 . S
C154 O175 1.265 . S
C155 C156 1.379 . S
C155 C159 1.373 . S
C155 C161 1.505 . S
C156 C155 1.379 . S
C156 C158 1.369 . S
C156 H184 0.930 . S
C157 C159 1.383 . S
C157 C160 1.382 . S
C157 H185 0.930 . S
C158 C156 1.369 . S
C158 C160 1.392 . S
C158 H186 0.930 . S
C159 C155 1.373 . S
C159 C157 1.383 . S
C159 H187 0.931 . S
C160 C157 1.382 . S
C160 C158 1.392 . S
C161 Eu152 2.828 . S
C161 C155 1.505 . S
C161 O173 1.249 . S
C161 O174 1.244 . S
O162 Eu153 2.373 . S
O162 C164 1.258 . S
O163 Eu152 2.392 . S
O163 C164 1.242 . S
C164 O162 1.258 . S
C164 O163 1.242 . S
O165 Eu152 2.418 . S
O165 C169 1.244 . S
O166 Eu153 2.488 . S
O166 C182 1.249 . S
O167 Eu153 2.471 . S
O167 C182 1.244 . S
O168 Eu153 2.349 . S
O168 C169 1.265 . S
C169 O165 1.244 . S
C169 O168 1.265 . S
O170 Eu152 2.373 . S
O170 C183 1.258 . S
O171 Eu153 2.392 . S
O171 C183 1.242 . S
O172 Eu153 2.418 . S
O172 C154 1.244 . S
O173 Eu152 2.488 . S
O173 C161 1.249 . S
O174 Eu152 2.471 . S
O174 C161 1.244 . S
O175 Eu152 2.349 . S
O175 C154 1.265 . S
C176 C177 1.379 . S
C176 C180 1.373 . S
C176 C182 1.505 . S
C177 C176 1.379 . S
C177 C179 1.369 . S
C177 H188 0.930 . S
C178 C180 1.383 . S
C178 C181 1.382 . S
C178 H189 0.930 . S
C179 C177 1.369 . S
C179 C181 1.392 . S
C179 H190 0.930 . S
C180 C176 1.373 . S
C180 C178 1.383 . S
C180 H191 0.931 . S
C181 C178 1.382 . S
C181 C179 1.392 . S
C182 Eu153 2.828 . S
C182 O166 1.249 . S
C182 O167 1.244 . S
C182 C176 1.505 . S
C183 O170 1.258 . S
C183 O171 1.242 . S
H184 C156 0.930 . S
H185 C157 0.930 . S
H186 C158 0.930 . S
H187 C159 0.931 . S
H188 C177 0.930 . S
H189 C178 0.930 . S
H190 C179 0.930 . S
H191 C180 0.931 . S
Eu192 C201 2.828 . S
Eu192 O203 2.392 . S
Eu192 O205 2.418 1_455 S
Eu192 O210 2.373 . S
Eu192 O213 2.488 . S
Eu192 O214 2.471 . S
Eu192 O215 2.349 . S
Eu193 O202 2.373 . S
Eu193 O206 2.488 . S
Eu193 O207 2.471 . S
Eu193 O208 2.349 . S
Eu193 O211 2.392 1_655 S
Eu193 O212 2.418 1_655 S
Eu193 C222 2.828 . S
C194 O212 1.244 . S
C194 O215 1.265 . S
C195 C196 1.379 . S
C195 C199 1.373 . S
C195 C201 1.505 . S
C196 C195 1.379 . S
C196 C198 1.369 . S
C196 H224 0.930 . S
C197 C199 1.383 . S
C197 C200 1.382 . S
C197 H225 0.930 . S
C198 C196 1.369 . S
C198 C200 1.392 . S
C198 H226 0.930 . S
C199 C195 1.373 . S
C199 C197 1.383 . S
C199 H227 0.931 . S
C200 C197 1.382 . S
C200 C198 1.392 . S
C201 Eu192 2.828 . S
C201 C195 1.505 . S
C201 O213 1.249 . S
C201 O214 1.244 . S
O202 Eu193 2.373 . S
O202 C204 1.258 1_655 S
O203 Eu192 2.392 . S
O203 C204 1.242 . S
C204 O202 1.258 1_455 S
C204 O203 1.242 . S
O205 Eu192 2.418 1_655 S
O205 C209 1.244 . S
O206 Eu193 2.488 . S
O206 C222 1.249 . S
O207 Eu193 2.471 . S
O207 C222 1.244 . S
O208 Eu193 2.349 . S
O208 C209 1.265 . S
C209 O205 1.244 . S
C209 O208 1.265 . S
O210 Eu192 2.373 . S
O210 C223 1.258 . S
O211 Eu193 2.392 1_455 S
O211 C223 1.242 . S
O212 Eu193 2.418 1_455 S
O212 C194 1.244 . S
O213 Eu192 2.488 . S
O213 C201 1.249 . S
O214 Eu192 2.471 . S
O214 C201 1.244 . S
O215 Eu192 2.349 . S
O215 C194 1.265 . S
C216 C217 1.379 . S
C216 C220 1.373 . S
C216 C222 1.505 . S
C217 C216 1.379 . S
C217 C219 1.369 . S
C217 H228 0.930 . S
C218 C220 1.383 . S
C218 C221 1.382 . S
C218 H229 0.930 . S
C219 C217 1.369 . S
C219 C221 1.392 . S
C219 H230 0.930 . S
C220 C216 1.373 . S
C220 C218 1.383 . S
C220 H231 0.931 . S
C221 C218 1.382 . S
C221 C219 1.392 . S
C222 Eu193 2.828 . S
C222 O206 1.249 . S
C222 O207 1.244 . S
C222 C216 1.505 . S
C223 O210 1.258 . S
C223 O211 1.242 . S
H224 C196 0.930 . S
H225 C197 0.930 . S
H226 C198 0.930 . S
H227 C199 0.931 . S
H228 C217 0.930 . S
H229 C218 0.930 . S
H230 C219 0.930 . S
H231 C220 0.931 . S
H232 C250 0.951 . S
H233 C252 0.951 . S
H234 C254 0.950 . S
H235 C255 0.950 . S
H236 C257 0.950 . S
H237 C260 0.950 . S
H238 C261 0.950 1_565 S
H239 C263 0.950 . S
H240 C264 0.950 . S
H241 C265 0.964 . S
H242 C267 0.951 . S
H243 C269 0.950 . S
H244 C270 0.950 . S
H245 C272 0.950 . S
H246 C275 0.950 . S
H247 C276 0.950 . S
H248 C278 0.950 . S
H249 C279 0.950 . S
C250 H232 0.951 . S
C250 C251 1.366 . S
C250 C252 1.388 . S
C251 C250 1.366 . S
C251 C255 1.385 . S
C252 H233 0.951 . S
C252 C250 1.388 . S
C252 C253 1.366 . S
C253 C252 1.366 . S
C253 C254 1.414 . S
C253 C256 1.499 . S
C254 H234 0.950 . S
C254 C253 1.414 . S
C254 C255 1.374 . S
C255 H235 0.950 . S
C255 C251 1.385 . S
C255 C254 1.374 . S
C256 C253 1.499 . S
C256 C257 1.373 . S
C256 C258 1.389 . S
C257 H236 0.950 . S
C257 C256 1.373 . S
C257 C273 1.377 . S
C258 C256 1.389 . S
C258 C259 1.524 . S
C258 C272 1.377 . S
C259 C258 1.524 . S
C259 C260 1.397 . S
C259 C264 1.363 . S
C260 H237 0.950 . S
C260 C259 1.397 . S
C260 C261 1.334 . S
C261 H238 0.950 1_545 S
C261 C260 1.334 . S
C261 C262 1.287 . S
C262 C261 1.287 . S
C262 C263 1.524 . S
C262 H281 0.913 . S
C263 H239 0.950 . S
C263 C262 1.524 . S
C263 C264 1.415 . S
C264 H240 0.950 . S
C264 C259 1.363 . S
C264 C263 1.415 . S
C265 H241 0.964 . S
C265 C266 1.366 . S
C265 C267 1.388 . S
C266 C265 1.366 . S
C266 C270 1.385 . S
C267 H242 0.951 . S
C267 C265 1.388 . S
C267 C268 1.366 . S
C268 C267 1.366 . S
C268 C269 1.414 . S
C268 C271 1.499 . S
C269 H243 0.950 . S
C269 C268 1.414 . S
C269 C270 1.374 . S
C270 H244 0.950 . S
C270 C266 1.385 . S
C270 C269 1.374 . S
C271 C268 1.499 . S
C271 C272 1.373 . S
C271 C273 1.389 . S
C272 H245 0.950 . S
C272 C258 1.377 . S
C272 C271 1.373 . S
C273 C257 1.377 . S
C273 C271 1.389 . S
C273 C274 1.524 . S
C274 C273 1.524 . S
C274 C275 1.397 . S
C274 C279 1.363 . S
C275 H246 0.950 . S
C275 C274 1.397 . S
C275 C276 1.334 . S
C276 H247 0.950 . S
C276 C275 1.334 . S
C276 C277 1.287 . S
C277 C276 1.287 . S
C277 C278 1.524 . S
C277 H280 0.999 . S
C278 H248 0.950 . S
C278 C277 1.524 . S
C278 C279 1.415 . S
C279 H249 0.950 . S
C279 C274 1.363 . S
C279 C278 1.415 . S
H280 C277 0.999 . S
H281 C262 0.913 . S
H282 C300 0.951 . S
H283 C302 0.951 . S
H284 C304 0.950 . S
H285 C305 0.950 . S
H286 C307 0.950 . S
H287 C310 0.950 . S
H288 C311 0.950 . S
H289 C313 0.950 . S
H290 C314 0.950 . S
H291 C315 0.951 . S
H292 C317 0.951 . S
H293 C319 0.950 . S
H294 C320 0.950 . S
H295 C322 0.950 . S
H296 C325 0.950 . S
H297 C326 0.950 . S
H298 C328 0.950 . S
H299 C329 0.950 . S
C300 H282 0.951 . S
C300 C301 1.366 . S
C300 C302 1.388 . S
C301 C300 1.366 . S
C301 C305 1.385 . S
C302 H283 0.951 . S
C302 C300 1.388 . S
C302 C303 1.366 . S
C303 C302 1.366 . S
C303 C304 1.414 . S
C303 C306 1.499 . S
C304 H284 0.950 . S
C304 C303 1.414 . S
C304 C305 1.374 . S
C305 H285 0.950 . S
C305 C301 1.385 . S
C305 C304 1.374 . S
C306 C303 1.499 . S
C306 C307 1.373 . S
C306 C308 1.389 . S
C307 H286 0.950 . S
C307 C306 1.373 . S
C307 C323 1.377 . S
C308 C306 1.389 . S
C308 C309 1.524 . S
C308 C322 1.377 . S
C309 C308 1.524 . S
C309 C310 1.397 . S
C309 C314 1.363 . S
C310 H287 0.950 . S
C310 C309 1.397 . S
C310 C311 1.334 . S
C311 H288 0.950 . S
C311 C310 1.334 . S
C311 C312 1.287 . S
C312 C311 1.287 . S
C312 C313 1.524 . S
C312 H331 0.913 . S
C313 H289 0.950 . S
C313 C312 1.524 . S
C313 C314 1.415 . S
C314 H290 0.950 . S
C314 C309 1.363 . S
C314 C313 1.415 . S
C315 H291 0.951 . S
C315 C316 1.366 . S
C315 C317 1.388 . S
C316 C315 1.366 . S
C316 C320 1.385 . S
C317 H292 0.951 . S
C317 C315 1.388 . S
C317 C318 1.366 . S
C318 C317 1.366 . S
C318 C319 1.414 . S
C318 C321 1.499 . S
C319 H293 0.950 . S
C319 C318 1.414 . S
C319 C320 1.374 . S
C320 H294 0.950 . S
C320 C316 1.385 . S
C320 C319 1.374 . S
C321 C318 1.499 . S
C321 C322 1.373 . S
C321 C323 1.389 . S
C322 H295 0.950 . S
C322 C308 1.377 . S
C322 C321 1.373 . S
C323 C307 1.377 . S
C323 C321 1.389 . S
C323 C324 1.524 . S
C324 C323 1.524 . S
C324 C325 1.397 . S
C324 C329 1.363 . S
C325 H296 0.950 . S
C325 C324 1.397 . S
C325 C326 1.334 . S
C326 H297 0.950 . S
C326 C325 1.334 . S
C326 C327 1.287 . S
C327 C326 1.287 . S
C327 C328 1.524 . S
C327 H330 0.999 . S
C328 H298 0.950 . S
C328 C327 1.524 . S
C328 C329 1.415 . S
C329 H299 0.950 . S
C329 C324 1.363 . S
C329 C328 1.415 . S
H330 C327 0.999 . S
H331 C312 0.913 . S
H332 C350 0.951 . S
H333 C352 0.951 . S
H334 C354 0.950 . S
H335 C355 0.950 . S
H336 C357 0.950 . S
H337 C360 0.950 . S
H338 C361 0.950 . S
H339 C363 0.950 . S
H340 C364 0.950 . S
H341 C365 0.951 . S
H342 C367 0.951 . S
H343 C369 0.950 . S
H344 C370 0.950 . S
H345 C372 0.950 . S
H346 C375 0.950 . S
H347 C376 0.950 . S
H348 C378 0.950 . S
H349 C379 0.950 . S
C350 H332 0.951 . S
C350 C351 1.366 . S
C350 C352 1.388 . S
C351 C350 1.366 . S
C351 C355 1.385 . S
C352 H333 0.951 . S
C352 C350 1.388 . S
C352 C353 1.366 . S
C353 C352 1.366 . S
C353 C354 1.414 . S
C353 C356 1.499 . S
C354 H334 0.950 . S
C354 C353 1.414 . S
C354 C355 1.374 . S
C355 H335 0.950 . S
C355 C351 1.385 . S
C355 C354 1.374 . S
C356 C353 1.499 . S
C356 C357 1.373 . S
C356 C358 1.389 . S
C357 H336 0.950 . S
C357 C356 1.373 . S
C357 C373 1.377 . S
C358 C356 1.389 . S
C358 C359 1.524 . S
C358 C372 1.377 . S
C359 C358 1.524 . S
C359 C360 1.397 . S
C359 C364 1.363 . S
C360 H337 0.950 . S
C360 C359 1.397 . S
C360 C361 1.334 . S
C361 H338 0.950 . S
C361 C360 1.334 . S
C361 C362 1.287 . S
C362 C361 1.287 . S
C362 C363 1.524 . S
C362 H381 0.913 . S
C363 H339 0.950 . S
C363 C362 1.524 . S
C363 C364 1.415 . S
C364 H340 0.950 . S
C364 C359 1.363 . S
C364 C363 1.415 . S
C365 H341 0.951 . S
C365 C366 1.366 . S
C365 C367 1.388 . S
C366 C365 1.366 . S
C366 C370 1.385 . S
C367 H342 0.951 . S
C367 C365 1.388 . S
C367 C368 1.366 . S
C368 C367 1.366 . S
C368 C369 1.414 . S
C368 C371 1.499 . S
C369 H343 0.950 . S
C369 C368 1.414 . S
C369 C370 1.374 . S
C370 H344 0.950 . S
C370 C366 1.385 . S
C370 C369 1.374 . S
C371 C368 1.499 . S
C371 C372 1.373 . S
C371 C373 1.389 . S
C372 H345 0.950 . S
C372 C358 1.377 . S
C372 C371 1.373 . S
C373 C357 1.377 . S
C373 C371 1.389 . S
C373 C374 1.524 . S
C374 C373 1.524 . S
C374 C375 1.397 . S
C374 C379 1.363 . S
C375 H346 0.950 . S
C375 C374 1.397 . S
C375 C376 1.334 . S
C376 H347 0.950 . S
C376 C375 1.334 . S
C376 C377 1.287 . S
C377 C376 1.287 . S
C377 C378 1.524 . S
C377 H380 0.999 . S
C378 H348 0.950 . S
C378 C377 1.524 . S
C378 C379 1.415 . S
C379 H349 0.950 . S
C379 C374 1.363 . S
C379 C378 1.415 . S
H380 C377 0.999 . S
H381 C362 0.913 . S
H382 C400 0.951 . S
H383 C402 0.951 . S
H384 C404 0.950 . S
H385 C405 0.950 . S
H386 C407 0.950 . S
H387 C410 0.950 1_455 S
H388 C411 0.950 . S
H389 C413 0.950 . S
H390 C414 0.950 . S
H391 C415 0.951 . S
H392 C417 0.951 . S
H393 C419 0.977 . S
H394 C420 0.950 1_655 S
H395 C422 0.950 1_655 S
H396 C425 0.950 . S
H397 C426 0.950 . S
H398 C428 0.950 . S
H399 C429 0.950 . S
C400 H382 0.951 . S
C400 C401 1.366 . S
C400 C402 1.388 . S
C401 C400 1.366 . S
C401 C405 1.385 . S
C402 H383 0.951 . S
C402 C400 1.388 . S
C402 C403 1.366 . S
C403 C402 1.366 . S
C403 C404 1.414 . S
C403 C406 1.499 . S
C404 H384 0.950 . S
C404 C403 1.414 . S
C404 C405 1.374 . S
C405 H385 0.950 . S
C405 C401 1.385 . S
C405 C404 1.374 . S
C406 C403 1.499 . S
C406 C407 1.373 . S
C406 C408 1.389 . S
C407 H386 0.950 . S
C407 C406 1.373 . S
C407 C423 1.377 . S
C408 C406 1.389 . S
C408 C409 1.524 1_455 S
C408 C422 1.377 . S
C409 C408 1.524 1_655 S
C409 C410 1.397 . S
C409 C414 1.363 . S
C410 H387 0.950 1_655 S
C410 C409 1.397 . S
C410 C411 1.334 . S
C411 H388 0.950 . S
C411 C410 1.334 . S
C411 C412 1.287 . S
C412 C411 1.287 . S
C412 C413 1.524 . S
C412 H431 0.913 . S
C413 H389 0.950 . S
C413 C412 1.524 . S
C413 C414 1.415 . S
C414 H390 0.950 . S
C414 C409 1.363 . S
C414 C413 1.415 . S
C415 H391 0.951 . S
C415 C416 1.366 . S
C415 C417 1.388 . S
C416 C415 1.366 . S
C416 C420 1.385 . S
C417 H392 0.951 . S
C417 C415 1.388 . S
C417 C418 1.366 . S
C418 C417 1.366 . S
C418 C419 1.414 . S
C418 C421 1.499 . S
C419 H393 0.977 . S
C419 C418 1.414 . S
C419 C420 1.374 . S
C420 H394 0.950 1_455 S
C420 C416 1.385 . S
C420 C419 1.374 . S
C421 C418 1.499 . S
C421 C422 1.373 . S
C421 C423 1.389 . S
C422 H395 0.950 1_455 S
C422 C408 1.377 . S
C422 C421 1.373 . S
C423 C407 1.377 . S
C423 C421 1.389 . S
C423 C424 1.524 . S
C424 C423 1.524 . S
C424 C425 1.397 . S
C424 C429 1.363 . S
C425 H396 0.950 . S
C425 C424 1.397 . S
C425 C426 1.334 . S
C426 H397 0.950 . S
C426 C425 1.334 . S
C426 C427 1.287 . S
C427 C426 1.287 . S
C427 C428 1.524 . S
C427 H430 0.999 . S
C428 H398 0.950 . S
C428 C427 1.524 . S
C428 C429 1.415 . S
C429 H399 0.950 . S
C429 C424 1.363 . S
C429 C428 1.415 . S
H430 C427 0.999 . S
H431 C412 0.913 . S
H432 C450 0.951 . S
H433 C452 0.951 . S
H434 C454 0.950 . S
H435 C455 0.950 . S
H436 C457 0.952 . S
H437 C460 0.950 . S
H438 C461 0.950 . S
H439 C463 0.950 . S
H440 C464 0.950 . S
H441 C465 0.951 . S
H442 C467 0.951 . S
H443 C469 0.950 . S
H444 C470 0.950 . S
H445 C472 0.950 1_545 S
H446 C475 0.950 . S
H447 C476 0.950 . S
H448 C478 0.950 . S
H449 C479 0.950 . S
C450 H432 0.951 . S
C450 C451 1.366 . S
C450 C452 1.388 . S
C451 C450 1.366 . S
C451 C455 1.385 . S
C452 H433 0.951 . S
C452 C450 1.388 . S
C452 C453 1.366 . S
C453 C452 1.366 . S
C453 C454 1.414 . S
C453 C456 1.499 . S
C454 H434 0.950 . S
C454 C453 1.414 . S
C454 C455 1.374 . S
C455 H435 0.950 . S
C455 C451 1.385 . S
C455 C454 1.374 . S
C456 C453 1.499 . S
C456 C457 1.388 . S
C456 C458 1.389 . S
C457 H436 0.952 . S
C457 C456 1.388 . S
C457 C473 1.361 1_554 S
C458 C456 1.389 . S
C458 C459 1.524 1_565 S
C458 C472 1.377 1_554 S
C459 C458 1.524 1_545 S
C459 C460 1.397 . S
C459 C464 1.363 . S
C460 H437 0.950 . S
C460 C459 1.397 . S
C460 C461 1.334 . S
C461 H438 0.950 . S
C461 C460 1.334 . S
C461 C462 1.287 . S
C462 C461 1.287 . S
C462 C463 1.524 . S
C462 H481 0.913 . S
C463 H439 0.950 . S
C463 C462 1.524 . S
C463 C464 1.415 . S
C464 H440 0.950 . S
C464 C459 1.363 . S
C464 C463 1.415 . S
C465 H441 0.951 . S
C465 C466 1.366 . S
C465 C467 1.388 . S
C466 C465 1.366 . S
C466 C470 1.385 . S
C467 H442 0.951 . S
C467 C465 1.388 . S
C467 C468 1.366 . S
C468 C467 1.366 . S
C468 C469 1.414 . S
C468 C471 1.499 . S
C469 H443 0.950 . S
C469 C468 1.414 . S
C469 C470 1.374 . S
C470 H444 0.950 . S
C470 C466 1.385 . S
C470 C469 1.374 . S
C471 C468 1.499 . S
C471 C472 1.373 . S
C471 C473 1.389 . S
C472 H445 0.950 1_565 S
C472 C458 1.377 1_556 S
C472 C471 1.373 . S
C473 C457 1.361 1_556 S
C473 C471 1.389 . S
C473 C474 1.524 . S
C474 C473 1.524 . S
C474 C475 1.397 . S
C474 C479 1.363 . S
C475 H446 0.950 . S
C475 C474 1.397 . S
C475 C476 1.334 . S
C476 H447 0.950 . S
C476 C475 1.334 . S
C476 C477 1.287 . S
C477 C476 1.287 . S
C477 C478 1.524 . S
C477 H480 0.999 . S
C478 H448 0.950 . S
C478 C477 1.524 . S
C478 C479 1.415 . S
C479 H449 0.950 . S
C479 C474 1.363 . S
C479 C478 1.415 . S
H480 C477 0.999 . S
H481 C462 0.913 . S
H482 C500 0.951 . S
H483 C502 0.951 . S
H484 C504 0.950 . S
H485 C505 0.950 . S
H486 C507 0.950 . S
H487 C510 0.950 . S
H488 C511 0.950 . S
H489 C513 0.950 . S
H490 C514 0.950 . S
H491 C515 0.951 . S
H492 C517 0.951 . S
H493 C519 0.950 . S
H494 C520 0.950 . S
H495 C522 0.950 . S
H496 C525 0.950 . S
H497 C526 0.950 . S
H498 C528 0.950 . S
H499 C529 0.950 . S
C500 H482 0.951 . S
C500 C501 1.366 . S
C500 C502 1.388 . S
C501 C500 1.366 . S
C501 C505 1.385 . S
C502 H483 0.951 . S
C502 C500 1.388 . S
C502 C503 1.366 . S
C503 C502 1.366 . S
C503 C504 1.414 . S
C503 C506 1.499 . S
C504 H484 0.950 . S
C504 C503 1.414 . S
C504 C505 1.374 . S
C505 H485 0.950 . S
C505 C501 1.385 . S
C505 C504 1.374 . S
C506 C503 1.499 . S
C506 C507 1.373 . S
C506 C508 1.389 1_554 S
C507 H486 0.950 . S
C507 C506 1.373 . S
C507 C523 1.377 1_554 S
C508 C506 1.389 1_556 S
C508 C509 1.524 . S
C508 C522 1.377 . S
C509 C508 1.524 . S
C509 C510 1.397 . S
C509 C514 1.363 . S
C510 H487 0.950 . S
C510 C509 1.397 . S
C510 C511 1.334 . S
C511 H488 0.950 . S
C511 C510 1.334 . S
C511 C512 1.287 . S
C512 C511 1.287 . S
C512 C513 1.524 . S
C512 H531 0.913 . S
C513 H489 0.950 . S
C513 C512 1.524 . S
C513 C514 1.415 . S
C514 H490 0.950 . S
C514 C509 1.363 . S
C514 C513 1.415 . S
C515 H491 0.951 . S
C515 C516 1.366 . S
C515 C517 1.388 . S
C516 C515 1.366 . S
C516 C520 1.385 . S
C517 H492 0.951 . S
C517 C515 1.388 . S
C517 C518 1.366 . S
C518 C517 1.366 . S
C518 C519 1.414 . S
C518 C521 1.499 . S
C519 H493 0.950 . S
C519 C518 1.414 . S
C519 C520 1.374 . S
C520 H494 0.950 . S
C520 C516 1.385 . S
C520 C519 1.374 . S
C521 C518 1.499 . S
C521 C522 1.373 . S
C521 C523 1.389 . S
C522 H495 0.950 . S
C522 C508 1.377 . S
C522 C521 1.373 . S
C523 C507 1.377 1_556 S
C523 C521 1.389 . S
C523 C524 1.524 . S
C524 C523 1.524 . S
C524 C525 1.397 . S
C524 C529 1.363 1_556 S
C525 H496 0.950 . S
C525 C524 1.397 . S
C525 C526 1.334 . S
C526 H497 0.950 . S
C526 C525 1.334 . S
C526 C527 1.287 1_556 S
C527 C526 1.287 1_554 S
C527 C528 1.524 . S
C527 H530 0.998 1_565 S
C528 H498 0.950 . S
C528 C527 1.524 . S
C528 C529 1.415 . S
C529 H499 0.950 . S
C529 C524 1.363 1_554 S
C529 C528 1.415 . S
H530 C527 0.998 1_545 S
H531 C512 0.913 . S
H532 C550 0.951 . S
H533 C552 0.951 . S
H534 C554 0.950 . S
H535 C555 0.950 . S
H536 C557 0.950 1_554 S
H537 C560 0.950 . S
H538 C561 0.950 . S
H539 C563 0.950 . S
H540 C564 0.950 . S
H541 C565 0.951 . S
H542 C567 0.951 . S
H543 C569 0.950 . S
H544 C570 0.950 . S
H545 C572 0.950 . S
H546 C575 0.950 . S
H547 C576 0.950 . S
H548 C578 0.950 1_554 S
H549 C579 0.950 1_554 S
C550 H532 0.951 . S
C550 C551 1.366 . S
C550 C552 1.388 . S
C551 C550 1.366 . S
C551 C555 1.385 . S
C552 H533 0.951 . S
C552 C550 1.388 . S
C552 C553 1.366 . S
C553 C552 1.366 . S
C553 C554 1.414 . S
C553 C556 1.499 . S
C554 H534 0.950 . S
C554 C553 1.414 . S
C554 C555 1.374 . S
C555 H535 0.950 . S
C555 C551 1.385 . S
C555 C554 1.374 . S
C556 C553 1.499 . S
C556 C557 1.373 1_554 S
C556 C558 1.389 1_554 S
C557 H536 0.950 1_556 S
C557 C556 1.373 1_556 S
C557 C573 1.377 . S
C558 C556 1.389 1_556 S
C558 C559 1.524 . S
C558 C572 1.377 . S
C559 C558 1.524 . S
C559 C560 1.397 1_556 S
C559 C564 1.363 . S
C560 H537 0.950 . S
C560 C559 1.397 1_554 S
C560 C561 1.334 . S
C561 H538 0.950 . S
C561 C560 1.334 . S
C561 C562 1.287 1_554 S
C562 C561 1.287 1_556 S
C562 C563 1.524 . S
C562 H581 0.913 1_556 S
C563 H539 0.950 . S
C563 C562 1.524 . S
C563 C564 1.415 . S
C564 H540 0.950 . S
C564 C559 1.363 . S
C564 C563 1.415 . S
C565 H541 0.951 . S
C565 C566 1.366 . S
C565 C567 1.388 . S
C566 C565 1.366 . S
C566 C570 1.385 . S
C567 H542 0.951 . S
C567 C565 1.388 . S
C567 C568 1.366 . S
C568 C567 1.366 . S
C568 C569 1.414 . S
C568 C571 1.499 . S
C569 H543 0.950 . S
C569 C568 1.414 . S
C569 C570 1.374 . S
C570 H544 0.950 . S
C570 C566 1.385 . S
C570 C569 1.374 . S
C571 C568 1.499 . S
C571 C572 1.373 . S
C571 C573 1.389 . S
C572 H545 0.950 . S
C572 C558 1.377 . S
C572 C571 1.373 . S
C573 C557 1.377 . S
C573 C571 1.389 . S
C573 C574 1.524 . S
C574 C573 1.524 . S
C574 C575 1.397 . S
C574 C579 1.363 . S
C575 H546 0.950 . S
C575 C574 1.397 . S
C575 C576 1.334 . S
C576 H547 0.950 . S
C576 C575 1.334 . S
C576 C577 1.287 . S
C577 C576 1.287 . S
C577 C578 1.524 . S
C577 H580 0.999 . S
C578 H548 0.950 1_556 S
C578 C577 1.524 . S
C578 C579 1.415 . S
C579 H549 0.950 1_556 S
C579 C574 1.363 . S
C579 C578 1.415 . S
H580 C577 0.999 . S
H581 C562 0.913 1_554 S
H582 C600 0.951 . S
H583 C602 0.951 . S
H584 C604 0.950 . S
H585 C605 0.950 . S
H586 C607 0.950 . S
H587 C610 0.950 . S
H588 C611 0.950 . S
H589 C613 0.950 . S
H590 C614 0.930 1_655 S
H591 C615 0.936 1_455 S
H592 C617 0.951 . S
H593 C619 0.950 . S
H594 C620 0.950 . S
H595 C622 0.948 1_455 S
H596 C625 0.950 . S
H597 C626 0.950 . S
H598 C628 0.950 . S
H599 C629 0.950 . S
C600 H582 0.951 . S
C600 C601 1.366 . S
C600 C602 1.388 . S
C601 C600 1.366 . S
C601 C605 1.385 . S
C602 H583 0.951 . S
C602 C600 1.388 . S
C602 C603 1.366 . S
C603 C602 1.366 . S
C603 C604 1.414 . S
C603 C606 1.499 . S
C604 H584 0.950 . S
C604 C603 1.414 . S
C604 C605 1.374 . S
C605 H585 0.950 . S
C605 C601 1.385 . S
C605 C604 1.374 . S
C606 C603 1.499 . S
C606 C607 1.373 1_554 S
C606 C608 1.389 . S
C607 H586 0.950 . S
C607 C606 1.373 1_556 S
C607 C623 1.377 . S
C608 C606 1.389 . S
C608 C609 1.524 1_655 S
C608 C622 1.377 1_554 S
C609 C608 1.524 1_455 S
C609 C610 1.397 . S
C609 C614 1.367 . S
C610 H587 0.950 . S
C610 C609 1.397 . S
C610 C611 1.334 . S
C611 H588 0.950 . S
C611 C610 1.334 . S
C611 C612 1.287 . S
C612 C611 1.287 . S
C612 C613 1.524 . S
C612 H631 0.913 . S
C613 H589 0.950 . S
C613 C612 1.524 . S
C613 C614 1.432 . S
C614 H590 0.930 1_455 S
C614 C609 1.367 . S
C614 C613 1.432 . S
C615 H591 0.936 1_655 S
C615 C616 1.372 . S
C615 C617 1.398 . S
C616 C615 1.372 . S
C616 C620 1.385 . S
C617 H592 0.951 . S
C617 C615 1.398 . S
C617 C618 1.366 . S
C618 C617 1.366 . S
C618 C619 1.414 . S
C618 C621 1.499 . S
C619 H593 0.950 . S
C619 C618 1.414 . S
C619 C620 1.374 . S
C620 H594 0.950 . S
C620 C616 1.385 . S
C620 C619 1.374 . S
C621 C618 1.499 . S
C621 C622 1.373 . S
C621 C623 1.389 . S
C622 H595 0.948 1_655 S
C622 C608 1.377 1_556 S
C622 C621 1.373 . S
C623 C607 1.377 . S
C623 C621 1.389 . S
C623 C624 1.524 . S
C624 C623 1.524 . S
C624 C625 1.397 . S
C624 C629 1.363 . S
C625 H596 0.950 . S
C625 C624 1.397 . S
C625 C626 1.334 . S
C626 H597 0.950 . S
C626 C625 1.334 . S
C626 C627 1.287 . S
C627 C626 1.287 . S
C627 C628 1.524 . S
C627 H630 0.999 . S
C628 H598 0.950 . S
C628 C627 1.524 . S
C628 C629 1.415 . S
C629 H599 0.950 . S
C629 C624 1.363 . S
C629 C628 1.415 . S
H630 C627 0.999 . S
H631 C612 0.913 . S
H632 C650 0.951 . S
H633 C652 0.951 . S
H634 C654 0.950 . S
H635 C655 0.950 . S
H636 C657 0.950 . S
H637 C660 0.950 . S
H638 C661 0.950 . S
H639 C663 0.950 . S
H640 C664 0.950 . S
H641 C665 0.951 . S
H642 C667 0.951 . S
H643 C669 0.965 . S
H644 C670 0.950 . S
H645 C672 0.950 . S
H646 C675 0.950 . S
H647 C676 0.950 . S
H648 C678 0.950 . S
H649 C679 0.950 . S
C650 H632 0.951 . S
C650 C651 1.366 . S
C650 C652 1.388 . S
C651 C650 1.366 . S
C651 C655 1.385 . S
C652 H633 0.951 . S
C652 C650 1.388 . S
C652 C653 1.366 . S
C653 C652 1.366 . S
C653 C654 1.414 . S
C653 C656 1.499 . S
C654 H634 0.950 . S
C654 C653 1.414 . S
C654 C655 1.374 . S
C655 H635 0.950 . S
C655 C651 1.385 . S
C655 C654 1.374 . S
C656 C653 1.499 . S
C656 C657 1.373 . S
C656 C658 1.389 . S
C657 H636 0.950 . S
C657 C656 1.373 . S
C657 C673 1.377 . S
C658 C656 1.389 . S
C658 C659 1.524 . S
C658 C672 1.377 . S
C659 C658 1.524 . S
C659 C660 1.397 . S
C659 C664 1.363 . S
C660 H637 0.950 . S
C660 C659 1.397 . S
C660 C661 1.334 . S
C661 H638 0.950 . S
C661 C660 1.334 . S
C661 C662 1.287 . S
C662 C661 1.287 . S
C662 C663 1.524 . S
C662 H681 0.913 . S
C663 H639 0.950 . S
C663 C662 1.524 . S
C663 C664 1.415 . S
C664 H640 0.950 . S
C664 C659 1.363 . S
C664 C663 1.415 . S
C665 H641 0.951 . S
C665 C666 1.346 1_455 S
C665 C667 1.388 . S
C666 C665 1.346 1_655 S
C666 C670 1.395 . S
C667 H642 0.951 . S
C667 C665 1.388 . S
C667 C668 1.366 . S
C668 C667 1.366 . S
C668 C669 1.387 1_455 S
C668 C671 1.499 . S
C669 H643 0.965 . S
C669 C668 1.387 1_655 S
C669 C670 1.387 . S
C670 H644 0.950 . S
C670 C666 1.395 . S
C670 C669 1.387 . S
C671 C668 1.499 . S
C671 C672 1.373 . S
C671 C673 1.389 . S
C672 H645 0.950 . S
C672 C658 1.377 . S
C672 C671 1.373 . S
C673 C657 1.377 . S
C673 C671 1.389 . S
C673 C674 1.524 . S
C674 C673 1.524 . S
C674 C675 1.397 1_455 S
C674 C679 1.363 . S
C675 H646 0.950 . S
C675 C674 1.397 1_655 S
C675 C676 1.334 . S
C676 H647 0.950 . S
C676 C675 1.334 . S
C676 C677 1.287 . S
C677 C676 1.287 . S
C677 C678 1.524 1_655 S
C677 H680 0.999 . S
C678 H648 0.950 . S
C678 C677 1.524 1_455 S
C678 C679 1.415 . S
C679 H649 0.950 . S
C679 C674 1.363 . S
C679 C678 1.415 . S
H680 C677 0.999 . S
H681 C662 0.913 . S
H682 C700 0.951 . S
H683 C702 0.951 . S
H684 C704 0.950 . S
H685 C705 0.950 . S
H686 C707 0.950 . S
H687 C710 0.950 . S
H688 C711 0.950 . S
H689 C713 0.950 . S
H690 C714 0.950 . S
H691 C715 0.951 . S
H692 C717 0.951 . S
H693 C719 0.950 . S
H694 C720 0.950 . S
H695 C722 0.950 1_565 S
H696 C725 0.950 . S
H697 C726 0.950 . S
H698 C728 0.950 . S
H699 C729 0.950 . S
C700 H682 0.951 . S
C700 C701 1.366 . S
C700 C702 1.388 . S
C701 C700 1.366 . S
C701 C705 1.385 . S
C702 H683 0.951 . S
C702 C700 1.388 . S
C702 C703 1.366 . S
C703 C702 1.366 . S
C703 C704 1.414 . S
C703 C706 1.499 . S
C704 H684 0.950 . S
C704 C703 1.414 . S
C704 C705 1.374 . S
C705 H685 0.950 . S
C705 C701 1.385 . S
C705 C704 1.374 . S
C706 C703 1.499 . S
C706 C707 1.373 . S
C706 C708 1.389 . S
C707 H686 0.950 . S
C707 C706 1.373 . S
C707 C723 1.377 . S
C708 C706 1.389 . S
C708 C709 1.524 1_545 S
C708 C722 1.377 . S
C709 C708 1.524 1_565 S
C709 C710 1.397 . S
C709 C714 1.363 . S
C710 H687 0.950 . S
C710 C709 1.397 . S
C710 C711 1.334 . S
C711 H688 0.950 . S
C711 C710 1.334 . S
C711 C712 1.287 . S
C712 C711 1.287 . S
C712 C713 1.524 . S
C712 H731 0.913 . S
C713 H689 0.950 . S
C713 C712 1.524 . S
C713 C714 1.415 . S
C714 H690 0.950 . S
C714 C709 1.363 . S
C714 C713 1.415 . S
C715 H691 0.951 . S
C715 C716 1.366 1_545 S
C715 C717 1.388 . S
C716 C715 1.366 1_565 S
C716 C720 1.385 . S
C717 H692 0.951 . S
C717 C715 1.388 . S
C717 C718 1.366 . S
C718 C717 1.366 . S
C718 C719 1.414 . S
C718 C721 1.499 . S
C719 H693 0.950 . S
C719 C718 1.414 . S
C719 C720 1.374 1_545 S
C720 H694 0.950 . S
C720 C716 1.385 . S
C720 C719 1.374 1_565 S
C721 C718 1.499 . S
C721 C722 1.373 . S
C721 C723 1.389 . S
C722 H695 0.950 1_545 S
C722 C708 1.377 . S
C722 C721 1.373 . S
C723 C707 1.377 . S
C723 C721 1.389 . S
C723 C724 1.524 . S
C724 C723 1.524 . S
C724 C725 1.397 . S
C724 C729 1.363 . S
C725 H696 0.950 . S
C725 C724 1.397 . S
C725 C726 1.334 . S
C726 H697 0.950 . S
C726 C725 1.334 . S
C726 C727 1.287 . S
C727 C726 1.287 . S
C727 C728 1.524 . S
C727 H730 0.999 . S
C728 H698 0.950 . S
C728 C727 1.524 . S
C728 C729 1.415 . S
C729 H699 0.950 . S
C729 C724 1.363 . S
C729 C728 1.415 . S
H730 C727 0.999 . S
H731 C712 0.913 . S
H732 C750 0.951 . S
H733 C752 0.951 . S
H734 C754 0.950 . S
H735 C755 0.950 . S
H736 C757 0.950 . S
H737 C760 0.950 . S
H738 C761 0.950 . S
H739 C763 0.950 . S
H740 C764 0.950 . S
H741 C765 0.951 . S
H742 C767 0.951 . S
H743 C769 0.950 . S
H744 C770 0.950 . S
H745 C772 0.950 . S
H746 C775 0.950 . S
H747 C776 0.950 . S
H748 C778 0.950 . S
H749 C779 0.950 . S
C750 H732 0.951 . S
C750 C751 1.366 . S
C750 C752 1.388 . S
C751 C750 1.366 . S
C751 C755 1.385 . S
C752 H733 0.951 . S
C752 C750 1.388 . S
C752 C753 1.366 . S
C753 C752 1.366 . S
C753 C754 1.414 . S
C753 C756 1.499 . S
C754 H734 0.950 . S
C754 C753 1.414 . S
C754 C755 1.374 . S
C755 H735 0.950 . S
C755 C751 1.385 . S
C755 C754 1.374 . S
C756 C753 1.499 . S
C756 C757 1.373 . S
C756 C758 1.389 . S
C757 H736 0.950 . S
C757 C756 1.373 . S
C757 C773 1.377 . S
C758 C756 1.389 . S
C758 C759 1.524 . S
C758 C772 1.377 . S
C759 C758 1.524 . S
C759 C760 1.397 . S
C759 C764 1.363 . S
C760 H737 0.950 . S
C760 C759 1.397 . S
C760 C761 1.334 . S
C761 H738 0.950 . S
C761 C760 1.334 . S
C761 C762 1.287 . S
C762 C761 1.287 . S
C762 C763 1.524 . S
C762 H781 0.913 . S
C763 H739 0.950 . S
C763 C762 1.524 . S
C763 C764 1.415 . S
C764 H740 0.950 . S
C764 C759 1.363 . S
C764 C763 1.415 . S
C765 H741 0.951 . S
C765 C766 1.366 . S
C765 C767 1.388 . S
C766 C765 1.366 . S
C766 C770 1.385 . S
C767 H742 0.951 . S
C767 C765 1.388 . S
C767 C768 1.366 . S
C768 C767 1.366 . S
C768 C769 1.414 . S
C768 C771 1.499 . S
C769 H743 0.950 . S
C769 C768 1.414 . S
C769 C770 1.374 . S
C770 H744 0.950 . S
C770 C766 1.385 . S
C770 C769 1.374 . S
C771 C768 1.499 . S
C771 C772 1.373 . S
C771 C773 1.389 . S
C772 H745 0.950 . S
C772 C758 1.377 . S
C772 C771 1.373 . S
C773 C757 1.377 . S
C773 C771 1.389 . S
C773 C774 1.524 . S
C774 C773 1.524 . S
C774 C775 1.397 . S
C774 C779 1.363 . S
C775 H746 0.950 . S
C775 C774 1.397 . S
C775 C776 1.334 . S
C776 H747 0.950 . S
C776 C775 1.334 . S
C776 C777 1.287 . S
C777 C776 1.287 . S
C777 C778 1.524 . S
C777 H780 0.999 . S
C778 H748 0.950 . S
C778 C777 1.524 . S
C778 C779 1.415 . S
C779 H749 0.950 . S
C779 C774 1.363 . S
C779 C778 1.415 . S
H780 C777 0.999 . S
H781 C762 0.913 . S
H782 C800 0.951 . S
H783 C802 0.951 . S
H784 C804 0.950 . S
H785 C805 0.950 . S
H786 C807 0.950 . S
H787 C810 0.950 . S
H788 C811 0.950 . S
H789 C813 0.950 . S
H790 C814 0.950 . S
H791 C815 0.951 . S
H792 C817 0.951 . S
H793 C819 0.950 . S
H794 C820 0.950 . S
H795 C822 0.950 . S
H796 C825 0.950 . S
H797 C826 0.950 . S
H798 C828 0.950 . S
H799 C829 0.950 . S
C800 H782 0.951 . S
C800 C801 1.366 . S
C800 C802 1.388 . S
C801 C800 1.366 . S
C801 C805 1.385 . S
C802 H783 0.951 . S
C802 C800 1.388 . S
C802 C803 1.366 . S
C803 C802 1.366 . S
C803 C804 1.414 . S
C803 C806 1.499 . S
C804 H784 0.950 . S
C804 C803 1.414 . S
C804 C805 1.374 . S
C805 H785 0.950 . S
C805 C801 1.385 . S
C805 C804 1.374 . S
C806 C803 1.499 . S
C806 C807 1.373 . S
C806 C808 1.389 . S
C807 H786 0.950 . S
C807 C806 1.373 . S
C807 C823 1.377 . S
C808 C806 1.389 . S
C808 C809 1.524 . S
C808 C822 1.377 . S
C809 C808 1.524 . S
C809 C810 1.397 . S
C809 C814 1.363 . S
C810 H787 0.950 . S
C810 C809 1.397 . S
C810 C811 1.334 . S
C811 H788 0.950 . S
C811 C810 1.334 . S
C811 C812 1.287 . S
C812 C811 1.287 . S
C812 C813 1.524 . S
C812 H831 0.913 . S
C813 H789 0.950 . S
C813 C812 1.524 . S
C813 C814 1.415 . S
C814 H790 0.950 . S
C814 C809 1.363 . S
C814 C813 1.415 . S
C815 H791 0.951 . S
C815 C816 1.366 . S
C815 C817 1.388 . S
C816 C815 1.366 . S
C816 C820 1.385 . S
C817 H792 0.951 . S
C817 C815 1.388 . S
C817 C818 1.366 . S
C818 C817 1.366 . S
C818 C819 1.414 . S
C818 C821 1.499 . S
C819 H793 0.950 . S
C819 C818 1.414 . S
C819 C820 1.374 . S
C820 H794 0.950 . S
C820 C816 1.385 . S
C820 C819 1.374 . S
C821 C818 1.499 . S
C821 C822 1.373 . S
C821 C823 1.389 . S
C822 H795 0.950 . S
C822 C808 1.377 . S
C822 C821 1.373 . S
C823 C807 1.377 . S
C823 C821 1.389 . S
C823 C824 1.524 . S
C824 C823 1.524 . S
C824 C825 1.397 . S
C824 C829 1.363 . S
C825 H796 0.950 . S
C825 C824 1.397 . S
C825 C826 1.334 . S
C826 H797 0.950 . S
C826 C825 1.334 . S
C826 C827 1.287 . S
C827 C826 1.287 . S
C827 C828 1.524 . S
C827 H830 0.999 . S
C828 H798 0.950 . S
C828 C827 1.524 . S
C828 C829 1.415 . S
C829 H799 0.950 . S
C829 C824 1.363 . S
C829 C828 1.415 . S
H830 C827 0.999 . S
H831 C812 0.913 . S
H832 C850 0.951 . S
H833 C852 0.951 1_455 S
H834 C854 0.950 . S
H835 C855 0.950 . S
H836 C857 0.950 . S
H837 C860 0.950 . S
H838 C861 0.950 . S
H839 C863 0.950 . S
H840 C864 0.950 . S
H841 C865 0.951 . S
H842 C867 0.951 . S
H843 C869 0.950 . S
H844 C870 0.950 . S
H845 C872 0.950 . S
H846 C875 0.950 1_455 S
H847 C876 0.950 1_455 S
H848 C878 0.950 . S
H849 C879 0.950 . S
C850 H832 0.951 . S
C850 C851 1.366 . S
C850 C852 1.388 . S
C851 C850 1.366 . S
C851 C855 1.385 . S
C852 H833 0.951 1_655 S
C852 C850 1.388 . S
C852 C853 1.366 . S
C853 C852 1.366 . S
C853 C854 1.414 . S
C853 C856 1.499 . S
C854 H834 0.950 . S
C854 C853 1.414 . S
C854 C855 1.374 . S
C855 H835 0.950 . S
C855 C851 1.385 . S
C855 C854 1.374 . S
C856 C853 1.499 . S
C856 C857 1.373 . S
C856 C858 1.389 . S
C857 H836 0.950 . S
C857 C856 1.373 . S
C857 C873 1.377 . S
C858 C856 1.389 . S
C858 C859 1.529 . S
C858 C872 1.377 1_655 S
C859 C858 1.529 . S
C859 C860 1.417 . S
C859 C864 1.340 1_655 S
C860 H837 0.950 . S
C860 C859 1.417 . S
C860 C861 1.334 . S
C861 H838 0.950 . S
C861 C860 1.334 . S
C861 C862 1.287 1_655 S
C862 C861 1.287 1_455 S
C862 C863 1.524 . S
C862 H881 0.913 . S
C863 H839 0.950 . S
C863 C862 1.524 . S
C863 C864 1.415 . S
C864 H840 0.950 . S
C864 C859 1.340 1_455 S
C864 C863 1.415 . S
C865 H841 0.951 . S
C865 C866 1.366 1_655 S
C865 C867 1.388 . S
C866 C865 1.366 1_455 S
C866 C870 1.385 . S
C867 H842 0.951 . S
C867 C865 1.388 . S
C867 C868 1.366 1_656 S
C868 C867 1.366 1_454 S
C868 C869 1.414 . S
C868 C871 1.499 1_455 S
C869 H843 0.950 . S
C869 C868 1.414 . S
C869 C870 1.374 1_554 S
C870 H844 0.950 . S
C870 C866 1.385 . S
C870 C869 1.374 1_556 S
C871 C868 1.499 1_655 S
C871 C872 1.373 1_655 S
C871 C873 1.389 . S
C872 H845 0.950 . S
C872 C858 1.377 1_455 S
C872 C871 1.373 1_455 S
C873 C857 1.377 . S
C873 C871 1.389 . S
C873 C874 1.524 1_554 S
C874 C873 1.524 1_556 S
C874 C875 1.397 . S
C874 C879 1.363 . S
C875 H846 0.950 1_655 S
C875 C874 1.397 . S
C875 C876 1.334 . S
C876 H847 0.950 1_655 S
C876 C875 1.334 . S
C876 C877 1.287 . S
C877 C876 1.287 . S
C877 C878 1.524 . S
C877 H880 0.999 . S
C878 H848 0.950 . S
C878 C877 1.524 . S
C878 C879 1.415 . S
C879 H849 0.950 . S
C879 C874 1.363 . S
C879 C878 1.415 . S
H880 C877 0.999 . S
H881 C862 0.913 . S
H882 C900 0.951 . S
H883 C902 0.951 . S
H884 C904 0.950 . S
H885 C905 0.950 . S
H886 C907 0.950 . S
H887 C910 0.950 . S
H888 C911 0.950 . S
H889 C913 0.950 . S
H890 C914 0.950 . S
H891 C915 0.951 . S
H892 C917 0.970 . S
H893 C919 0.950 1_554 S
H894 C920 0.950 . S
H895 C922 0.950 . S
H896 C925 0.950 . S
H897 C926 0.950 . S
H898 C928 0.950 . S
H899 C929 0.955 . S
C900 H882 0.951 . S
C900 C901 1.366 . S
C900 C902 1.388 . S
C901 C900 1.366 . S
C901 C905 1.385 . S
C902 H883 0.951 . S
C902 C900 1.388 . S
C902 C903 1.366 . S
C903 C902 1.366 . S
C903 C904 1.414 . S
C903 C906 1.499 . S
C904 H884 0.950 . S
C904 C903 1.414 . S
C904 C905 1.374 . S
C905 H885 0.950 . S
C905 C901 1.385 . S
C905 C904 1.374 . S
C906 C903 1.499 . S
C906 C907 1.373 . S
C906 C908 1.389 . S
C907 H886 0.950 . S
C907 C906 1.373 . S
C907 C923 1.365 1_554 S
C908 C906 1.389 . S
C908 C909 1.524 . S
C908 C922 1.377 . S
C909 C908 1.524 . S
C909 C910 1.397 . S
C909 C914 1.363 . S
C910 H887 0.950 . S
C910 C909 1.397 . S
C910 C911 1.334 . S
C911 H888 0.950 . S
C911 C910 1.334 . S
C911 C912 1.287 . S
C912 C911 1.287 . S
C912 C913 1.524 . S
C912 H931 0.913 . S
C913 H889 0.950 . S
C913 C912 1.524 . S
C913 C914 1.415 . S
C914 H890 0.950 . S
C914 C909 1.363 . S
C914 C913 1.415 . S
C915 H891 0.951 . S
C915 C916 1.366 . S
C915 C917 1.373 1_545 S
C916 C915 1.366 . S
C916 C920 1.385 . S
C917 H892 0.970 . S
C917 C915 1.373 1_565 S
C917 C918 1.364 . S
C918 C917 1.364 . S
C918 C919 1.412 1_565 S
C918 C921 1.500 . S
C919 H893 0.950 1_556 S
C919 C918 1.412 1_545 S
C919 C920 1.374 . S
C920 H894 0.950 . S
C920 C916 1.385 . S
C920 C919 1.374 . S
C921 C918 1.500 . S
C921 C922 1.373 1_556 S
C921 C923 1.389 . S
C922 H895 0.950 . S
C922 C908 1.377 . S
C922 C921 1.373 1_554 S
C923 C907 1.365 1_556 S
C923 C921 1.389 . S
C923 C924 1.536 1_565 S
C924 C923 1.536 1_545 S
C924 C925 1.397 . S
C924 C929 1.363 . S
C925 H896 0.950 . S
C925 C924 1.397 . S
C925 C926 1.334 . S
C926 H897 0.950 . S
C926 C925 1.334 . S
C926 C927 1.287 . S
C927 C926 1.287 . S
C927 C928 1.524 . S
C927 H930 0.999 . S
C928 H898 0.950 . S
C928 C927 1.524 . S
C928 C929 1.415 . S
C929 H899 0.955 . S
C929 C924 1.363 . S
C929 C928 1.415 . S
H930 C927 0.999 . S
H931 C912 0.913 . S
H932 C950 0.951 . S
H933 C952 0.951 . S
H934 C954 0.950 . S
H935 C955 0.950 . S
H936 C957 0.950 . S
H937 C960 0.949 . S
H938 C961 0.950 1_556 S
H939 C963 0.950 . S
H940 C964 0.950 . S
H941 C965 0.951 . S
H942 C967 0.951 . S
H943 C969 0.950 . S
H944 C970 0.950 . S
H945 C972 0.950 . S
H946 C975 0.950 1_554 S
H947 C976 0.950 1_554 S
H948 C978 0.950 . S
H949 C979 0.950 . S
C950 H932 0.951 . S
C950 C951 1.366 . S
C950 C952 1.388 . S
C951 C950 1.366 . S
C951 C955 1.385 . S
C952 H933 0.951 . S
C952 C950 1.388 . S
C952 C953 1.366 . S
C953 C952 1.366 . S
C953 C954 1.414 . S
C953 C956 1.499 . S
C954 H934 0.950 . S
C954 C953 1.414 . S
C954 C955 1.374 . S
C955 H935 0.950 . S
C955 C951 1.385 . S
C955 C954 1.374 . S
C956 C953 1.499 . S
C956 C957 1.373 . S
C956 C958 1.389 . S
C957 H936 0.950 . S
C957 C956 1.373 . S
C957 C973 1.377 1_554 S
C958 C956 1.389 . S
C958 C959 1.524 . S
C958 C972 1.377 1_554 S
C959 C958 1.524 . S
C959 C960 1.397 1_554 S
C959 C964 1.363 . S
C960 H937 0.949 . S
C960 C959 1.397 1_556 S
C960 C961 1.334 1_556 S
C961 H938 0.950 1_554 S
C961 C960 1.334 1_554 S
C961 C962 1.287 . S
C962 C961 1.287 . S
C962 C963 1.524 . S
C962 H981 0.913 . S
C963 H939 0.950 . S
C963 C962 1.524 . S
C963 C964 1.415 . S
C964 H940 0.950 . S
C964 C959 1.363 . S
C964 C963 1.415 . S
C965 H941 0.951 . S
C965 C966 1.366 . S
C965 C967 1.388 . S
C966 C965 1.366 . S
C966 C970 1.385 . S
C967 H942 0.951 . S
C967 C965 1.388 . S
C967 C968 1.366 . S
C968 C967 1.366 . S
C968 C969 1.414 . S
C968 C971 1.499 . S
C969 H943 0.950 . S
C969 C968 1.414 . S
C969 C970 1.374 . S
C970 H944 0.950 . S
C970 C966 1.385 . S
C970 C969 1.374 . S
C971 C968 1.499 . S
C971 C972 1.373 . S
C971 C973 1.389 . S
C972 H945 0.950 . S
C972 C958 1.377 1_556 S
C972 C971 1.373 . S
C973 C957 1.377 1_556 S
C973 C971 1.389 . S
C973 C974 1.524 . S
C974 C973 1.524 . S
C974 C975 1.397 . S
C974 C979 1.363 . S
C975 H946 0.950 1_556 S
C975 C974 1.397 . S
C975 C976 1.334 . S
C976 H947 0.950 1_556 S
C976 C975 1.334 . S
C976 C977 1.287 . S
C977 C976 1.287 . S
C977 C978 1.524 . S
C977 H980 0.999 . S
C978 H948 0.950 . S
C978 C977 1.524 . S
C978 C979 1.415 . S
C979 H949 0.950 . S
C979 C974 1.363 . S
C979 C978 1.415 . S
H980 C977 0.999 . S
H981 C962 0.913 . S
H982 C1000 0.951 . S
H983 C1002 0.951 . S
H984 C1004 0.950 . S
H985 C1005 0.950 . S
H986 C1007 0.950 . S
H987 C1010 0.950 . S
H988 C1011 0.950 . S
H989 C1013 0.950 . S
H990 C1014 0.950 . S
H991 C1015 0.951 . S
H992 C1017 0.951 . S
H993 C1019 0.950 . S
H994 C1020 0.950 . S
H995 C1022 0.950 . S
H996 C1025 0.950 . S
H997 C1026 0.950 . S
H998 C1028 0.950 . S
H999 C1029 0.948 1_554 S
C1000 H982 0.951 . S
C1000 C1001 1.366 . S
C1000 C1002 1.388 . S
C1001 C1000 1.366 . S
C1001 C1005 1.385 . S
C1002 H983 0.951 . S
C1002 C1000 1.388 . S
C1002 C1003 1.366 . S
C1003 C1002 1.366 . S
C1003 C1004 1.414 . S
C1003 C1006 1.499 . S
C1004 H984 0.950 . S
C1004 C1003 1.414 . S
C1004 C1005 1.374 . S
C1005 H985 0.950 . S
C1005 C1001 1.385 . S
C1005 C1004 1.374 . S
C1006 C1003 1.499 . S
C1006 C1007 1.373 . S
C1006 C1008 1.389 . S
C1007 H986 0.950 . S
C1007 C1006 1.373 . S
C1007 C1023 1.377 1_554 S
C1008 C1006 1.389 . S
C1008 C1009 1.524 . S
C1008 C1022 1.377 . S
C1009 C1008 1.524 . S
C1009 C1010 1.397 . S
C1009 C1014 1.363 . S
C1010 H987 0.950 . S
C1010 C1009 1.397 . S
C1010 C1011 1.334 . S
C1011 H988 0.950 . S
C1011 C1010 1.334 . S
C1011 C1012 1.287 . S
C1012 C1011 1.287 . S
C1012 C1013 1.524 . S
C1012 H1031 0.913 . S
C1013 H989 0.950 . S
C1013 C1012 1.524 . S
C1013 C1014 1.415 . S
C1014 H990 0.950 . S
C1014 C1009 1.363 . S
C1014 C1013 1.415 . S
C1015 H991 0.951 . S
C1015 C1016 1.366 . S
C1015 C1017 1.388 . S
C1016 C1015 1.366 . S
C1016 C1020 1.385 . S
C1017 H992 0.951 . S
C1017 C1015 1.388 . S
C1017 C1018 1.366 . S
C1018 C1017 1.366 . S
C1018 C1019 1.414 . S
C1018 C1021 1.499 1_556 S
C1019 H993 0.950 . S
C1019 C1018 1.414 . S
C1019 C1020 1.374 . S
C1020 H994 0.950 . S
C1020 C1016 1.385 . S
C1020 C1019 1.374 . S
C1021 C1018 1.499 1_554 S
C1021 C1022 1.373 . S
C1021 C1023 1.389 1_554 S
C1022 H995 0.950 . S
C1022 C1008 1.377 . S
C1022 C1021 1.373 . S
C1023 C1007 1.377 1_556 S
C1023 C1021 1.389 1_556 S
C1023 C1024 1.524 . S
C1024 C1023 1.524 . S
C1024 C1025 1.397 . S
C1024 C1029 1.363 . S
C1025 H996 0.950 . S
C1025 C1024 1.397 . S
C1025 C1026 1.334 . S
C1026 H997 0.950 . S
C1026 C1025 1.334 . S
C1026 C1027 1.287 . S
C1027 C1026 1.287 . S
C1027 C1028 1.524 . S
C1027 H1030 0.999 . S
C1028 H998 0.950 . S
C1028 C1027 1.524 . S
C1028 C1029 1.415 . S
C1029 H999 0.948 1_556 S
C1029 C1024 1.363 . S
C1029 C1028 1.415 . S
H1030 C1027 0.999 . S
H1031 C1012 0.913 . S
H1032 C1050 0.951 . S
H1033 C1052 0.951 . S
H1034 C1054 0.950 . S
H1035 C1055 0.950 1_554 S
H1036 C1057 0.950 . S
H1037 C1060 0.950 . S
H1038 C1061 0.950 . S
H1039 C1063 0.950 . S
H1040 C1064 0.950 1_455 S
H1041 C1065 0.951 . S
H1042 C1067 0.951 . S
H1043 C1069 0.950 . S
H1044 C1070 0.950 . S
H1045 C1072 0.950 . S
H1046 C1075 0.950 . S
H1047 C1076 0.950 . S
H1048 C1078 0.950 . S
H1049 C1079 0.950 . S
C1050 H1032 0.951 . S
C1050 C1051 1.366 . S
C1050 C1052 1.388 . S
C1051 C1050 1.366 . S
C1051 C1055 1.385 . S
C1052 H1033 0.951 . S
C1052 C1050 1.388 . S
C1052 C1053 1.366 . S
C1053 C1052 1.366 . S
C1053 C1054 1.414 . S
C1053 C1056 1.499 . S
C1054 H1034 0.950 . S
C1054 C1053 1.414 . S
C1054 C1055 1.374 . S
C1055 H1035 0.950 1_556 S
C1055 C1051 1.385 . S
C1055 C1054 1.374 . S
C1056 C1053 1.499 . S
C1056 C1057 1.373 . S
C1056 C1058 1.389 . S
C1057 H1036 0.950 . S
C1057 C1056 1.373 . S
C1057 C1073 1.377 . S
C1058 C1056 1.389 . S
C1058 C1059 1.524 . S
C1058 C1072 1.377 . S
C1059 C1058 1.524 . S
C1059 C1060 1.397 1_455 S
C1059 C1064 1.363 1_455 S
C1060 H1037 0.950 . S
C1060 C1059 1.397 1_655 S
C1060 C1061 1.334 . S
C1061 H1038 0.950 . S
C1061 C1060 1.334 . S
C1061 C1062 1.287 . S
C1062 C1061 1.287 . S
C1062 C1063 1.524 . S
C1062 H1081 0.913 . S
C1063 H1039 0.950 . S
C1063 C1062 1.524 . S
C1063 C1064 1.415 . S
C1064 H1040 0.950 1_655 S
C1064 C1059 1.363 1_655 S
C1064 C1063 1.415 . S
C1065 H1041 0.951 . S
C1065 C1066 1.366 . S
C1065 C1067 1.388 . S
C1066 C1065 1.366 . S
C1066 C1070 1.385 . S
C1067 H1042 0.951 . S
C1067 C1065 1.388 . S
C1067 C1068 1.366 . S
C1068 C1067 1.366 . S
C1068 C1069 1.414 . S
C1068 C1071 1.499 . S
C1069 H1043 0.950 . S
C1069 C1068 1.414 . S
C1069 C1070 1.374 . S
C1070 H1044 0.950 . S
C1070 C1066 1.385 . S
C1070 C1069 1.374 . S
C1071 C1068 1.499 . S
C1071 C1072 1.373 . S
C1071 C1073 1.389 . S
C1072 H1045 0.950 . S
C1072 C1058 1.377 . S
C1072 C1071 1.373 . S
C1073 C1057 1.377 . S
C1073 C1071 1.389 . S
C1073 C1074 1.524 . S
C1074 C1073 1.524 . S
C1074 C1075 1.397 . S
C1074 C1079 1.363 . S
C1075 H1046 0.950 . S
C1075 C1074 1.397 . S
C1075 C1076 1.334 . S
C1076 H1047 0.950 . S
C1076 C1075 1.334 . S
C1076 C1077 1.287 . S
C1077 C1076 1.287 . S
C1077 C1078 1.524 . S
C1077 H1080 0.999 . S
C1078 H1048 0.950 . S
C1078 C1077 1.524 . S
C1078 C1079 1.415 . S
C1079 H1049 0.950 . S
C1079 C1074 1.363 . S
C1079 C1078 1.415 . S
H1080 C1077 0.999 . S
H1081 C1062 0.913 . S
H1082 C1100 0.951 . S
H1083 C1102 0.951 . S
H1084 C1104 0.950 . S
H1085 C1105 0.950 . S
H1086 C1107 0.950 . S
H1087 C1110 0.950 . S
H1088 C1111 0.950 . S
H1089 C1113 0.950 1_554 S
H1090 C1114 0.950 . S
H1091 C1115 0.951 . S
H1092 C1117 0.951 . S
H1093 C1119 0.950 . S
H1094 C1120 0.950 . S
H1095 C1122 0.950 . S
H1096 C1125 0.950 . S
H1097 C1126 0.950 . S
H1098 C1128 0.950 . S
H1099 C1129 0.950 . S
C1100 H1082 0.951 . S
C1100 C1101 1.366 . S
C1100 C1102 1.388 . S
C1101 C1100 1.366 . S
C1101 C1105 1.385 . S
C1102 H1083 0.951 . S
C1102 C1100 1.388 . S
C1102 C1103 1.366 . S
C1103 C1102 1.366 . S
C1103 C1104 1.414 . S
C1103 C1106 1.499 . S
C1104 H1084 0.950 . S
C1104 C1103 1.414 . S
C1104 C1105 1.374 . S
C1105 H1085 0.950 . S
C1105 C1101 1.385 . S
C1105 C1104 1.374 . S
C1106 C1103 1.499 . S
C1106 C1107 1.373 . S
C1106 C1108 1.389 . S
C1107 H1086 0.950 . S
C1107 C1106 1.373 . S
C1107 C1123 1.377 . S
C1108 C1106 1.389 . S
C1108 C1109 1.524 . S
C1108 C1122 1.377 . S
C1109 C1108 1.524 . S
C1109 C1110 1.397 . S
C1109 C1114 1.363 . S
C1110 H1087 0.950 . S
C1110 C1109 1.397 . S
C1110 C1111 1.334 . S
C1111 H1088 0.950 . S
C1111 C1110 1.334 . S
C1111 C1112 1.287 . S
C1112 C1111 1.287 . S
C1112 C1113 1.524 . S
C1112 H1131 0.913 . S
C1113 H1089 0.950 1_556 S
C1113 C1112 1.524 . S
C1113 C1114 1.415 . S
C1114 H1090 0.950 . S
C1114 C1109 1.363 . S
C1114 C1113 1.415 . S
C1115 H1091 0.951 . S
C1115 C1116 1.366 . S
C1115 C1117 1.388 . S
C1116 C1115 1.366 . S
C1116 C1120 1.385 . S
C1117 H1092 0.951 . S
C1117 C1115 1.388 . S
C1117 C1118 1.366 . S
C1118 C1117 1.366 . S
C1118 C1119 1.414 . S
C1118 C1121 1.499 . S
C1119 H1093 0.950 . S
C1119 C1118 1.414 . S
C1119 C1120 1.374 . S
C1120 H1094 0.950 . S
C1120 C1116 1.385 . S
C1120 C1119 1.374 . S
C1121 C1118 1.499 . S
C1121 C1122 1.373 . S
C1121 C1123 1.389 . S
C1122 H1095 0.950 . S
C1122 C1108 1.377 . S
C1122 C1121 1.373 . S
C1123 C1107 1.377 . S
C1123 C1121 1.389 . S
C1123 C1124 1.524 . S
C1124 C1123 1.524 . S
C1124 C1125 1.397 1_545 S
C1124 C1129 1.363 . S
C1125 H1096 0.950 . S
C1125 C1124 1.397 1_565 S
C1125 C1126 1.334 . S
C1126 H1097 0.950 . S
C1126 C1125 1.334 . S
C1126 C1127 1.287 . S
C1127 C1126 1.287 . S
C1127 C1128 1.524 . S
C1127 H1130 0.999 . S
C1128 H1098 0.950 . S
C1128 C1127 1.524 . S
C1128 C1129 1.415 1_565 S
C1129 H1099 0.950 . S
C1129 C1124 1.363 . S
C1129 C1128 1.415 1_545 S
H1130 C1127 0.999 . S
H1131 C1112 0.913 . S
H1132 C1150 0.951 . S
H1133 C1152 0.951 . S
H1134 C1154 0.950 . S
H1135 C1155 0.950 . S
H1136 C1157 0.950 . S
H1137 C1160 0.950 . S
H1138 C1161 0.950 . S
H1139 C1163 0.950 . S
H1140 C1164 0.950 . S
H1141 C1165 0.951 . S
H1142 C1167 0.951 . S
H1143 C1169 0.950 . S
H1144 C1170 0.950 . S
H1145 C1172 0.950 . S
H1146 C1175 0.950 . S
H1147 C1176 0.950 . S
H1148 C1178 0.950 . S
H1149 C1179 0.950 . S
C1150 H1132 0.951 . S
C1150 C1151 1.366 . S
C1150 C1152 1.388 . S
C1151 C1150 1.366 . S
C1151 C1155 1.385 . S
C1152 H1133 0.951 . S
C1152 C1150 1.388 . S
C1152 C1153 1.366 . S
C1153 C1152 1.366 . S
C1153 C1154 1.414 . S
C1153 C1156 1.499 . S
C1154 H1134 0.950 . S
C1154 C1153 1.414 . S
C1154 C1155 1.374 . S
C1155 H1135 0.950 . S
C1155 C1151 1.385 . S
C1155 C1154 1.374 . S
C1156 C1153 1.499 . S
C1156 C1157 1.373 . S
C1156 C1158 1.389 . S
C1157 H1136 0.950 . S
C1157 C1156 1.373 . S
C1157 C1173 1.377 . S
C1158 C1156 1.389 . S
C1158 C1159 1.524 . S
C1158 C1172 1.377 . S
C1159 C1158 1.524 . S
C1159 C1160 1.397 . S
C1159 C1164 1.363 . S
C1160 H1137 0.950 . S
C1160 C1159 1.397 . S
C1160 C1161 1.334 1_556 S
C1161 H1138 0.950 . S
C1161 C1160 1.334 1_554 S
C1161 C1162 1.287 . S
C1162 C1161 1.287 . S
C1162 C1163 1.524 1_554 S
C1162 H1181 0.913 . S
C1163 H1139 0.950 . S
C1163 C1162 1.524 1_556 S
C1163 C1164 1.415 . S
C1164 H1140 0.950 . S
C1164 C1159 1.363 . S
C1164 C1163 1.415 . S
C1165 H1141 0.951 . S
C1165 C1166 1.366 . S
C1165 C1167 1.388 . S
C1166 C1165 1.366 . S
C1166 C1170 1.385 . S
C1167 H1142 0.951 . S
C1167 C1165 1.388 . S
C1167 C1168 1.366 . S
C1168 C1167 1.366 . S
C1168 C1169 1.414 . S
C1168 C1171 1.499 . S
C1169 H1143 0.950 . S
C1169 C1168 1.414 . S
C1169 C1170 1.374 . S
C1170 H1144 0.950 . S
C1170 C1166 1.385 . S
C1170 C1169 1.374 . S
C1171 C1168 1.499 . S
C1171 C1172 1.373 . S
C1171 C1173 1.389 . S
C1172 H1145 0.950 . S
C1172 C1158 1.377 . S
C1172 C1171 1.373 . S
C1173 C1157 1.377 . S
C1173 C1171 1.389 . S
C1173 C1174 1.524 . S
C1174 C1173 1.524 . S
C1174 C1175 1.397 . S
C1174 C1179 1.363 . S
C1175 H1146 0.950 . S
C1175 C1174 1.397 . S
C1175 C1176 1.334 . S
C1176 H1147 0.950 . S
C1176 C1175 1.334 . S
C1176 C1177 1.287 . S
C1177 C1176 1.287 . S
C1177 C1178 1.524 . S
C1177 H1180 0.999 . S
C1178 H1148 0.950 . S
C1178 C1177 1.524 . S
C1178 C1179 1.415 . S
C1179 H1149 0.950 . S
C1179 C1174 1.363 . S
C1179 C1178 1.415 . S
H1180 C1177 0.999 . S
H1181 C1162 0.913 . S
H1182 C1200 0.951 . S
H1183 C1202 0.949 1_554 S
H1184 C1204 0.950 . S
H1185 C1205 0.950 . S
H1186 C1207 0.950 . S
H1187 C1210 0.950 . S
H1188 C1211 0.950 . S
H1189 C1213 0.950 . S
H1190 C1214 0.950 . S
H1191 C1215 0.951 . S
H1192 C1217 0.951 . S
H1193 C1219 0.950 . S
H1194 C1220 0.950 . S
H1195 C1222 0.950 . S
H1196 C1225 0.950 . S
H1197 C1226 0.950 . S
H1198 C1228 0.950 . S
H1199 C1229 0.950 . S
C1200 H1182 0.951 . S
C1200 C1201 1.366 1_554 S
C1200 C1202 1.388 1_554 S
C1201 C1200 1.366 1_556 S
C1201 C1205 1.385 . S
C1202 H1183 0.949 1_556 S
C1202 C1200 1.388 1_556 S
C1202 C1203 1.366 . S
C1203 C1202 1.366 . S
C1203 C1204 1.414 . S
C1203 C1206 1.499 . S
C1204 H1184 0.950 . S
C1204 C1203 1.414 . S
C1204 C1205 1.374 . S
C1205 H1185 0.950 . S
C1205 C1201 1.385 . S
C1205 C1204 1.374 . S
C1206 C1203 1.499 . S
C1206 C1207 1.373 . S
C1206 C1208 1.389 . S
C1207 H1186 0.950 . S
C1207 C1206 1.373 . S
C1207 C1223 1.377 . S
C1208 C1206 1.389 . S
C1208 C1209 1.524 . S
C1208 C1222 1.377 . S
C1209 C1208 1.524 . S
C1209 C1210 1.397 . S
C1209 C1214 1.363 . S
C1210 H1187 0.950 . S
C1210 C1209 1.397 . S
C1210 C1211 1.334 . S
C1211 H1188 0.950 . S
C1211 C1210 1.334 . S
C1211 C1212 1.287 . S
C1212 C1211 1.287 . S
C1212 C1213 1.524 1_556 S
C1212 H1231 0.913 . S
C1213 H1189 0.950 . S
C1213 C1212 1.524 1_554 S
C1213 C1214 1.415 1_554 S
C1214 H1190 0.950 . S
C1214 C1209 1.363 . S
C1214 C1213 1.415 1_556 S
C1215 H1191 0.951 . S
C1215 C1216 1.366 . S
C1215 C1217 1.388 . S
C1216 C1215 1.366 . S
C1216 C1220 1.385 . S
C1217 H1192 0.951 . S
C1217 C1215 1.388 . S
C1217 C1218 1.366 . S
C1218 C1217 1.366 . S
C1218 C1219 1.414 . S
C1218 C1221 1.499 . S
C1219 H1193 0.950 . S
C1219 C1218 1.414 . S
C1219 C1220 1.374 . S
C1220 H1194 0.950 . S
C1220 C1216 1.385 . S
C1220 C1219 1.374 . S
C1221 C1218 1.499 . S
C1221 C1222 1.373 . S
C1221 C1223 1.389 . S
C1222 H1195 0.950 . S
C1222 C1208 1.377 . S
C1222 C1221 1.373 . S
C1223 C1207 1.377 . S
C1223 C1221 1.389 . S
C1223 C1224 1.524 . S
C1224 C1223 1.524 . S
C1224 C1225 1.397 . S
C1224 C1229 1.363 . S
C1225 H1196 0.950 . S
C1225 C1224 1.397 . S
C1225 C1226 1.334 . S
C1226 H1197 0.950 . S
C1226 C1225 1.334 . S
C1226 C1227 1.287 . S
C1227 C1226 1.287 . S
C1227 C1228 1.524 . S
C1227 H1230 0.999 . S
C1228 H1198 0.950 . S
C1228 C1227 1.524 . S
C1228 C1229 1.415 . S
C1229 H1199 0.950 . S
C1229 C1224 1.363 . S
C1229 C1228 1.415 . S
H1230 C1227 0.999 . S
H1231 C1212 0.913 . S
H1232 C1250 0.951 . S
H1233 C1252 0.951 . S
H1234 C1254 0.950 . S
H1235 C1255 0.950 . S
H1236 C1257 0.950 1_455 S
H1237 C1260 0.950 . S
H1238 C1261 0.950 . S
H1239 C1263 0.950 . S
H1240 C1264 0.950 . S
H1241 C1265 0.951 1_455 S
H1242 C1267 0.951 . S
H1243 C1269 0.950 . S
H1244 C1270 0.950 . S
H1245 C1272 0.950 . S
H1246 C1275 0.950 . S
H1247 C1276 0.950 . S
H1248 C1278 0.950 . S
H1249 C1279 0.950 . S
C1250 H1232 0.951 . S
C1250 C1251 1.366 . S
C1250 C1252 1.388 . S
C1251 C1250 1.366 . S
C1251 C1255 1.385 . S
C1252 H1233 0.951 . S
C1252 C1250 1.388 . S
C1252 C1253 1.366 . S
C1253 C1252 1.366 . S
C1253 C1254 1.414 . S
C1253 C1256 1.499 . S
C1254 H1234 0.950 . S
C1254 C1253 1.414 . S
C1254 C1255 1.374 . S
C1255 H1235 0.950 . S
C1255 C1251 1.385 . S
C1255 C1254 1.374 . S
C1256 C1253 1.499 . S
C1256 C1257 1.373 . S
C1256 C1258 1.389 . S
C1257 H1236 0.950 1_655 S
C1257 C1256 1.373 . S
C1257 C1273 1.377 . S
C1258 C1256 1.389 . S
C1258 C1259 1.524 . S
C1258 C1272 1.377 . S
C1259 C1258 1.524 . S
C1259 C1260 1.397 . S
C1259 C1264 1.363 . S
C1260 H1237 0.950 . S
C1260 C1259 1.397 . S
C1260 C1261 1.334 . S
C1261 H1238 0.950 . S
C1261 C1260 1.334 . S
C1261 C1262 1.287 . S
C1262 C1261 1.287 . S
C1262 C1263 1.524 . S
C1262 H1281 0.913 . S
C1263 H1239 0.950 . S
C1263 C1262 1.524 . S
C1263 C1264 1.415 . S
C1264 H1240 0.950 . S
C1264 C1259 1.363 . S
C1264 C1263 1.415 . S
C1265 H1241 0.951 1_655 S
C1265 C1266 1.366 . S
C1265 C1267 1.388 . S
C1266 C1265 1.366 . S
C1266 C1270 1.385 . S
C1267 H1242 0.951 . S
C1267 C1265 1.388 . S
C1267 C1268 1.366 . S
C1268 C1267 1.366 . S
C1268 C1269 1.414 . S
C1268 C1271 1.499 . S
C1269 H1243 0.950 . S
C1269 C1268 1.414 . S
C1269 C1270 1.374 . S
C1270 H1244 0.950 . S
C1270 C1266 1.385 . S
C1270 C1269 1.374 . S
C1271 C1268 1.499 . S
C1271 C1272 1.373 . S
C1271 C1273 1.389 . S
C1272 H1245 0.950 . S
C1272 C1258 1.377 . S
C1272 C1271 1.373 . S
C1273 C1257 1.377 . S
C1273 C1271 1.389 . S
C1273 C1274 1.524 1_655 S
C1274 C1273 1.524 1_455 S
C1274 C1275 1.397 . S
C1274 C1279 1.363 . S
C1275 H1246 0.950 . S
C1275 C1274 1.397 . S
C1275 C1276 1.334 . S
C1276 H1247 0.950 . S
C1276 C1275 1.334 . S
C1276 C1277 1.287 . S
C1277 C1276 1.287 . S
C1277 C1278 1.524 . S
C1277 H1280 0.999 . S
C1278 H1248 0.950 . S
C1278 C1277 1.524 . S
C1278 C1279 1.415 . S
C1279 H1249 0.950 . S
C1279 C1274 1.363 . S
C1279 C1278 1.415 . S
H1280 C1277 0.999 . S
H1281 C1262 0.913 . S
H1282 C1300 0.951 . S
H1283 C1302 0.951 . S
H1284 C1304 0.950 . S
H1285 C1305 0.950 . S
H1286 C1307 0.950 . S
H1287 C1310 0.950 . S
H1288 C1311 0.950 . S
H1289 C1313 0.950 . S
H1290 C1314 0.950 . S
H1291 C1315 0.951 . S
H1292 C1317 0.951 . S
H1293 C1319 0.950 . S
H1294 C1320 0.950 . S
H1295 C1322 0.950 . S
H1296 C1325 0.950 . S
H1297 C1326 0.950 . S
H1298 C1328 0.950 . S
H1299 C1329 0.950 . S
C1300 H1282 0.951 . S
C1300 C1301 1.366 . S
C1300 C1302 1.388 . S
C1301 C1300 1.366 . S
C1301 C1305 1.385 . S
C1302 H1283 0.951 . S
C1302 C1300 1.388 . S
C1302 C1303 1.366 . S
C1303 C1302 1.366 . S
C1303 C1304 1.414 . S
C1303 C1306 1.499 . S
C1304 H1284 0.950 . S
C1304 C1303 1.414 . S
C1304 C1305 1.374 . S
C1305 H1285 0.950 . S
C1305 C1301 1.385 . S
C1305 C1304 1.374 . S
C1306 C1303 1.499 . S
C1306 C1307 1.373 . S
C1306 C1308 1.389 . S
C1307 H1286 0.950 . S
C1307 C1306 1.373 . S
C1307 C1323 1.377 . S
C1308 C1306 1.389 . S
C1308 C1309 1.524 . S
C1308 C1322 1.377 . S
C1309 C1308 1.524 . S
C1309 C1310 1.397 1_565 S
C1309 C1314 1.363 . S
C1310 H1287 0.950 . S
C1310 C1309 1.397 1_545 S
C1310 C1311 1.334 . S
C1311 H1288 0.950 . S
C1311 C1310 1.334 . S
C1311 C1312 1.287 . S
C1312 C1311 1.287 . S
C1312 C1313 1.524 1_545 S
C1312 H1331 0.913 . S
C1313 H1289 0.950 . S
C1313 C1312 1.524 1_565 S
C1313 C1314 1.415 . S
C1314 H1290 0.950 . S
C1314 C1309 1.363 . S
C1314 C1313 1.415 . S
C1315 H1291 0.951 . S
C1315 C1316 1.366 . S
C1315 C1317 1.388 . S
C1316 C1315 1.366 . S
C1316 C1320 1.385 . S
C1317 H1292 0.951 . S
C1317 C1315 1.388 . S
C1317 C1318 1.366 . S
C1318 C1317 1.366 . S
C1318 C1319 1.414 . S
C1318 C1321 1.499 . S
C1319 H1293 0.950 . S
C1319 C1318 1.414 . S
C1319 C1320 1.374 . S
C1320 H1294 0.950 . S
C1320 C1316 1.385 . S
C1320 C1319 1.374 . S
C1321 C1318 1.499 . S
C1321 C1322 1.373 . S
C1321 C1323 1.389 . S
C1322 H1295 0.950 . S
C1322 C1308 1.377 . S
C1322 C1321 1.373 . S
C1323 C1307 1.377 . S
C1323 C1321 1.389 . S
C1323 C1324 1.524 . S
C1324 C1323 1.524 . S
C1324 C1325 1.397 . S
C1324 C1329 1.363 . S
C1325 H1296 0.950 . S
C1325 C1324 1.397 . S
C1325 C1326 1.334 . S
C1326 H1297 0.950 . S
C1326 C1325 1.334 . S
C1326 C1327 1.287 . S
C1327 C1326 1.287 . S
C1327 C1328 1.524 . S
C1327 H1330 0.999 . S
C1328 H1298 0.950 . S
C1328 C1327 1.524 . S
C1328 C1329 1.415 . S
C1329 H1299 0.950 . S
C1329 C1324 1.363 . S
C1329 C1328 1.415 . S
H1330 C1327 0.999 . S
H1331 C1312 0.913 . S
H1332 C1350 0.951 . S
H1333 C1352 0.951 . S
H1334 C1354 0.950 . S
H1335 C1355 0.950 . S
H1336 C1357 0.950 . S
H1337 C1360 0.950 . S
H1338 C1361 0.950 . S
H1339 C1363 0.950 . S
H1340 C1364 0.950 . S
H1341 C1365 0.951 . S
H1342 C1367 0.951 . S
H1343 C1369 0.950 . S
H1344 C1370 0.950 . S
H1345 C1372 0.950 . S
H1346 C1375 0.950 . S
H1347 C1376 0.950 . S
H1348 C1378 0.950 . S
H1349 C1379 0.950 . S
C1350 H1332 0.951 . S
C1350 C1351 1.366 . S
C1350 C1352 1.388 . S
C1351 C1350 1.366 . S
C1351 C1355 1.385 . S
C1352 H1333 0.951 . S
C1352 C1350 1.388 . S
C1352 C1353 1.366 . S
C1353 C1352 1.366 . S
C1353 C1354 1.414 . S
C1353 C1356 1.499 . S
C1354 H1334 0.950 . S
C1354 C1353 1.414 . S
C1354 C1355 1.374 . S
C1355 H1335 0.950 . S
C1355 C1351 1.385 . S
C1355 C1354 1.374 . S
C1356 C1353 1.499 . S
C1356 C1357 1.373 . S
C1356 C1358 1.389 . S
C1357 H1336 0.950 . S
C1357 C1356 1.373 . S
C1357 C1373 1.377 . S
C1358 C1356 1.389 . S
C1358 C1359 1.524 . S
C1358 C1372 1.377 . S
C1359 C1358 1.524 . S
C1359 C1360 1.397 . S
C1359 C1364 1.363 . S
C1360 H1337 0.950 . S
C1360 C1359 1.397 . S
C1360 C1361 1.334 . S
C1361 H1338 0.950 . S
C1361 C1360 1.334 . S
C1361 C1362 1.287 . S
C1362 C1361 1.287 . S
C1362 C1363 1.524 . S
C1362 H1381 0.913 . S
C1363 H1339 0.950 . S
C1363 C1362 1.524 . S
C1363 C1364 1.415 . S
C1364 H1340 0.950 . S
C1364 C1359 1.363 . S
C1364 C1363 1.415 . S
C1365 H1341 0.951 . S
C1365 C1366 1.366 . S
C1365 C1367 1.388 . S
C1366 C1365 1.366 . S
C1366 C1370 1.385 . S
C1367 H1342 0.951 . S
C1367 C1365 1.388 . S
C1367 C1368 1.366 . S
C1368 C1367 1.366 . S
C1368 C1369 1.414 . S
C1368 C1371 1.499 . S
C1369 H1343 0.950 . S
C1369 C1368 1.414 . S
C1369 C1370 1.374 . S
C1370 H1344 0.950 . S
C1370 C1366 1.385 . S
C1370 C1369 1.374 . S
C1371 C1368 1.499 . S
C1371 C1372 1.373 . S
C1371 C1373 1.389 . S
C1372 H1345 0.950 . S
C1372 C1358 1.377 . S
C1372 C1371 1.373 . S
C1373 C1357 1.377 . S
C1373 C1371 1.389 . S
C1373 C1374 1.524 . S
C1374 C1373 1.524 . S
C1374 C1375 1.397 . S
C1374 C1379 1.363 . S
C1375 H1346 0.950 . S
C1375 C1374 1.397 . S
C1375 C1376 1.334 . S
C1376 H1347 0.950 . S
C1376 C1375 1.334 . S
C1376 C1377 1.287 . S
C1377 C1376 1.287 . S
C1377 C1378 1.524 . S
C1377 H1380 0.999 . S
C1378 H1348 0.950 . S
C1378 C1377 1.524 . S
C1378 C1379 1.415 . S
C1379 H1349 0.950 . S
C1379 C1374 1.363 . S
C1379 C1378 1.415 . S
H1380 C1377 0.999 . S
H1381 C1362 0.913 . S
H1382 C1400 0.951 . S
H1383 C1402 0.951 . S
H1384 C1404 0.950 . S
H1385 C1405 0.950 . S
H1386 C1407 0.950 . S
H1387 C1410 0.950 . S
H1388 C1411 0.950 . S
H1389 C1413 0.950 . S
H1390 C1414 0.950 . S
H1391 C1415 0.951 . S
H1392 C1417 0.951 . S
H1393 C1419 0.950 . S
H1394 C1420 0.950 . S
H1395 C1422 0.950 . S
H1396 C1425 0.950 . S
H1397 C1426 0.950 . S
H1398 C1428 0.950 . S
H1399 C1429 0.950 . S
C1400 H1382 0.951 . S
C1400 C1401 1.366 . S
C1400 C1402 1.388 . S
C1401 C1400 1.366 . S
C1401 C1405 1.385 . S
C1402 H1383 0.951 . S
C1402 C1400 1.388 . S
C1402 C1403 1.366 . S
C1403 C1402 1.366 . S
C1403 C1404 1.414 . S
C1403 C1406 1.499 . S
C1404 H1384 0.950 . S
C1404 C1403 1.414 . S
C1404 C1405 1.374 . S
C1405 H1385 0.950 . S
C1405 C1401 1.385 . S
C1405 C1404 1.374 . S
C1406 C1403 1.499 . S
C1406 C1407 1.373 . S
C1406 C1408 1.389 . S
C1407 H1386 0.950 . S
C1407 C1406 1.373 . S
C1407 C1423 1.377 . S
C1408 C1406 1.389 . S
C1408 C1409 1.524 . S
C1408 C1422 1.377 . S
C1409 C1408 1.524 . S
C1409 C1410 1.397 . S
C1409 C1414 1.363 . S
C1410 H1387 0.950 . S
C1410 C1409 1.397 . S
C1410 C1411 1.334 . S
C1411 H1388 0.950 . S
C1411 C1410 1.334 . S
C1411 C1412 1.287 . S
C1412 C1411 1.287 . S
C1412 C1413 1.524 . S
C1412 H1431 0.913 . S
C1413 H1389 0.950 . S
C1413 C1412 1.524 . S
C1413 C1414 1.415 . S
C1414 H1390 0.950 . S
C1414 C1409 1.363 . S
C1414 C1413 1.415 . S
C1415 H1391 0.951 . S
C1415 C1416 1.366 . S
C1415 C1417 1.388 . S
C1416 C1415 1.366 . S
C1416 C1420 1.385 . S
C1417 H1392 0.951 . S
C1417 C1415 1.388 . S
C1417 C1418 1.366 . S
C1418 C1417 1.366 . S
C1418 C1419 1.414 . S
C1418 C1421 1.499 . S
C1419 H1393 0.950 . S
C1419 C1418 1.414 . S
C1419 C1420 1.374 . S
C1420 H1394 0.950 . S
C1420 C1416 1.385 . S
C1420 C1419 1.374 . S
C1421 C1418 1.499 . S
C1421 C1422 1.373 . S
C1421 C1423 1.389 . S
C1422 H1395 0.950 . S
C1422 C1408 1.377 . S
C1422 C1421 1.373 . S
C1423 C1407 1.377 . S
C1423 C1421 1.389 . S
C1423 C1424 1.524 . S
C1424 C1423 1.524 . S
C1424 C1425 1.397 . S
C1424 C1429 1.363 . S
C1425 H1396 0.950 . S
C1425 C1424 1.397 . S
C1425 C1426 1.334 . S
C1426 H1397 0.950 . S
C1426 C1425 1.334 . S
C1426 C1427 1.287 . S
C1427 C1426 1.287 . S
C1427 C1428 1.524 . S
C1427 H1430 0.999 . S
C1428 H1398 0.950 . S
C1428 C1427 1.524 . S
C1428 C1429 1.415 . S
C1429 H1399 0.950 . S
C1429 C1424 1.363 . S
C1429 C1428 1.415 . S
H1430 C1427 0.999 . S
H1431 C1412 0.913 . S
C251 C61 2.068 . S
C266 C103 2.201 . S
C316 C129 1.612 . S
C301 C70 1.518 . S
C366 C169 1.743 . S
C351 C43 1.654 . S
C416 C223 2.257 . S
C401 C52 2.143 . S
C466 C84 2.201 . S
C451 C25 2.071 . S
C501 C34 1.522 . S
C516 C114 1.612 . S
C551 C7 1.656 . S
C566 C154 1.743 . S
C601 C16 2.147 . S
C616 C204 2.257 1_655 S
C666 C80 0.188 1_655 S
C651 C50 0.284 . S
C716 C141 0.479 . S
C701 C59 0.467 . S
C766 C181 0.369 . S
C751 C67 0.300 . S
C801 C41 0.353 . S
C816 C200 0.246 . S
C851 C14 0.255 . S
C866 C101 0.204 . S
C916 C120 0.478 . S
C901 C23 0.457 . S
C966 C160 0.369 . S
C951 C31 0.301 . S
C1001 C5 0.326 . S
C1016 C221 0.249 . S
C1051 C49 1.649 . S
C1066 C74 1.814 . S
C1101 C58 2.305 . S
C1116 C124 2.489 . S
C1166 C164 2.277 . S
C1151 C68 2.110 1_556 S
C1216 C194 1.615 . S
C1201 C40 1.483 1_556 S
C1251 C13 1.651 . S
C1266 C89 1.814 . S
C1316 C143 2.489 . S
C1301 C22 2.307 . S
C1366 C183 2.277 . S
C1351 C32 2.114 . S
C1401 C4 1.485 . S
C1416 C209 1.616 . S
