# Generated by pormake.
# Topology anh, (6,3)-cn, num edge types: 1
# Building blocks:
#     Node 0, Type 0, BuildingBlock: HISSIN_clean_sbu_0, # of connection points: 6
#     Node 1, Type 0, BuildingBlock: HISSIN_clean_sbu_0, # of connection points: 6
#     Node 2, Type 0, BuildingBlock: HISSIN_clean_sbu_0, # of connection points: 6
#     Node 3, Type 1, BuildingBlock: BETDAH_clean_linker_0, # of connection points: 3
#     Node 4, Type 1, BuildingBlock: BETDAH_clean_linker_0, # of connection points: 3
#     Node 5, Type 1, BuildingBlock: BETDAH_clean_linker_0, # of connection points: 3
#     Node 6, Type 1, BuildingBlock: BETDAH_clean_linker_0, # of connection points: 3
#     Node 7, Type 1, BuildingBlock: BETDAH_clean_linker_0, # of connection points: 3
#     Node 8, Type 1, BuildingBlock: BETDAH_clean_linker_0, # of connection points: 3
#     Edge 9, Type (0, 1), BuildingBlock: TEMPAE_clean_linker_10, # of connection points: 2
#     Edge 10, Type (0, 1), BuildingBlock: TEMPAE_clean_linker_10, # of connection points: 2
#     Edge 11, Type (0, 1), BuildingBlock: TEMPAE_clean_linker_10, # of connection points: 2
#     Edge 12, Type (0, 1), BuildingBlock: TEMPAE_clean_linker_10, # of connection points: 2
#     Edge 13, Type (0, 1), BuildingBlock: TEMPAE_clean_linker_10, # of connection points: 2
#     Edge 14, Type (0, 1), BuildingBlock: TEMPAE_clean_linker_10, # of connection points: 2
#     Edge 15, Type (0, 1), BuildingBlock: TEMPAE_clean_linker_10, # of connection points: 2
#     Edge 16, Type (0, 1), BuildingBlock: TEMPAE_clean_linker_10, # of connection points: 2
#     Edge 17, Type (0, 1), BuildingBlock: TEMPAE_clean_linker_10, # of connection points: 2
#     Edge 18, Type (0, 1), BuildingBlock: TEMPAE_clean_linker_10, # of connection points: 2
#     Edge 19, Type (0, 1), BuildingBlock: TEMPAE_clean_linker_10, # of connection points: 2
#     Edge 20, Type (0, 1), BuildingBlock: TEMPAE_clean_linker_10, # of connection points: 2
#     Edge 21, Type (0, 1), BuildingBlock: TEMPAE_clean_linker_10, # of connection points: 2
#     Edge 22, Type (0, 1), BuildingBlock: TEMPAE_clean_linker_10, # of connection points: 2
#     Edge 23, Type (0, 1), BuildingBlock: TEMPAE_clean_linker_10, # of connection points: 2
#     Edge 24, Type (0, 1), BuildingBlock: TEMPAE_clean_linker_10, # of connection points: 2
#     Edge 25, Type (0, 1), BuildingBlock: TEMPAE_clean_linker_10, # of connection points: 2
#     Edge 26, Type (0, 1), BuildingBlock: TEMPAE_clean_linker_10, # of connection points: 2
# Relax obj value: 0.235
# Max RMSD: 0.144
# Mean RMSD: 0.106
data_MOF--net-anh--node1-HISSIN_clean_sbu_0--node2-BETDAH_clean_linker_0--edge1-TEMPAE_clean_linker_10
_symmetry_space_group_name_H-M    P1
_symmetry_Int_Tables_number       1
_symmetry_cell_setting            triclinic
loop_
_symmetry_equiv_pos_as_xyz
'x, y, z'
_cell_length_a     30.68429
_cell_length_b     30.626013
_cell_length_c     50.034396
_cell_angle_alpha  95.552518
_cell_angle_beta   91.267456
_cell_angle_gamma 119.77046
loop_
_atom_site_label
_atom_site_type_symbol
_atom_site_fract_x
_atom_site_fract_y
_atom_site_fract_z
_atom_type_partial_charge
Eu0 Eu 1.06577 0.56836 0.1566 0.0
Eu1 Eu 1.11501 0.69027 0.16327 0.0
C2 C 1.08838 0.62796 0.21552 0.0
C3 C 0.98972 0.41939 0.14881 0.0
C4 C 0.95816 0.40857 0.16998 0.0
C5 C 0.95304 0.3296 0.13428 0.0
C6 C 0.92459 0.35814 0.17352 0.0
C7 C 0.98621 0.37978 0.13072 0.0
C8 C 0.9225 0.31809 0.15602 0.0
C9 C 1.02971 0.47089 0.14616 0.0
O10 O 0.17989 0.67728 0.15231 0.0
O11 O 0.14946 0.59964 0.16692 0.0
C12 C 0.18705 0.6407 0.1592 0.0
O13 O 1.10066 0.5972 0.11871 0.0
O14 O 0.15942 0.76578 0.1857 0.0
O15 O 1.1276 0.75745 0.14538 0.0
O16 O 1.07933 0.65777 0.12073 0.0
C17 C 1.08782 0.62514 0.1064 0.0
O18 O 0.99967 0.58254 0.14993 0.0
O19 O 1.03423 0.66314 0.17209 0.0
O20 O 1.11925 0.66976 0.20535 0.0
O21 O 1.01987 0.49703 0.13046 0.0
O22 O 1.0586 0.49835 0.16776 0.0
O23 O 1.05674 0.58626 0.19996 0.0
C24 C 0.20975 0.82698 0.15794 0.0
C25 C 0.22324 0.82755 0.13121 0.0
C26 C 0.29681 0.88787 0.17303 0.0
C27 C 0.27352 0.85671 0.12561 0.0
C28 C 0.2466 0.85935 0.17854 0.0
C29 C 0.31131 0.88532 0.14664 0.0
C30 C 0.15956 0.78884 0.16509 0.0
C31 C 0.99487 0.62113 0.16051 0.0
H32 H 0.96048 0.43892 0.18411 0.0
H33 H 0.95312 0.29988 0.1207 0.0
H34 H 0.90109 0.35048 0.19025 0.0
H35 H 1.01062 0.38765 0.11436 0.0
H36 H 0.19553 0.80353 0.11475 0.0
H37 H 0.32452 0.90877 0.18994 0.0
H38 H 0.28303 0.85468 0.10499 0.0
H39 H 0.23714 0.85997 0.19926 0.0
Eu40 Eu 0.67909 0.0866 0.50171 0.0
Eu41 Eu 0.61017 0.13782 0.49064 0.0
C42 C 0.64546 0.13267 0.55107 0.0
C43 C 0.74674 1.00917 0.51728 0.0
C44 C 0.76546 1.01539 0.54411 0.0
C45 C 0.76708 0.9426 0.50648 0.0
C46 C 0.78621 0.98648 0.55182 0.0
C47 C 0.74635 0.97144 0.49877 0.0
C48 C 0.78889 0.95114 0.53281 0.0
C49 C 0.73661 1.04719 0.50717 0.0
O50 O 0.68947 0.19915 0.48396 0.0
O51 O 0.73615 0.17119 0.50531 0.0
C52 C 0.73313 0.2067 0.49385 0.0
O53 O 0.68419 0.10457 0.45939 0.0
O54 O 0.55831 0.16428 0.50252 0.0
O55 O 0.58348 0.17078 0.4623 0.0
O56 O 0.6038 0.08712 0.45292 0.0
C57 C 0.64337 0.08733 0.44351 0.0
O58 O 0.59859 1.01915 0.49289 0.0
O59 O 0.55253 1.0594 0.49969 0.0
O60 O 0.63961 0.16114 0.53484 0.0
O61 O 0.70288 1.0329 0.48695 0.0
O62 O 0.73866 1.08332 0.52427 0.0
O63 O 0.64968 0.09368 0.54149 0.0
C64 C 0.57826 0.23969 0.48353 0.0
C65 C 0.58731 0.26527 0.4606 0.0
C66 C 0.6177 0.32075 0.51179 0.0
C67 C 0.61341 0.31827 0.46324 0.0
C68 C 0.59189 0.26796 0.50916 0.0
C69 C 0.63045 0.34654 0.48887 0.0
C70 C 0.56175 0.18505 0.48046 0.0
C71 C 0.55509 1.01759 0.49588 0.0
H72 H 0.76675 1.04451 0.55879 0.0
H73 H 0.76796 0.91506 0.49152 0.0
H74 H 0.80298 0.9941 0.57223 0.0
H75 H 0.73261 0.96614 0.4779 0.0
H76 H 0.57684 0.24433 0.44059 0.0
H77 H 0.63076 0.34124 0.53185 0.0
H78 H 0.62219 0.33708 0.44523 0.0
H79 H 0.58546 0.24958 0.52727 0.0
Eu80 Eu 0.63134 0.67268 0.82466 0.0
Eu81 Eu 0.75069 0.74695 0.84562 0.0
C82 C 0.66562 0.70673 0.88882 0.0
C83 C 0.48608 0.60272 0.80658 0.0
C84 C 0.47232 0.62574 0.8277 0.0
C85 C 0.39813 0.54691 0.79128 0.0
C86 C 0.42138 0.60867 0.83087 0.0
C87 C 0.44889 0.56415 0.78809 0.0
C88 C 0.38371 0.56814 0.81307 0.0
C89 C 0.53799 0.61361 0.80508 0.0
O90 O 0.74324 0.66859 0.83594 0.0
O91 O 0.65703 0.61758 0.83324 0.0
C92 C 0.70244 0.62326 0.83409 0.0
O93 O 0.67666 0.66422 0.79183 0.0
O94 O 0.82017 0.76808 0.86954 0.0
O95 O 0.82063 0.81585 0.84036 0.0
O96 O 0.74169 0.74458 0.80084 0.0
C97 C 0.71771 0.70214 0.78479 0.0
O98 O 0.65087 0.75325 0.81868 0.0
O99 O 0.71671 0.79788 0.85085 0.0
O100 O 0.71305 0.72463 0.8839 0.0
O101 O 0.5696 0.65413 0.7947 0.0
O102 O 0.5581 0.60599 0.82605 0.0
O103 O 0.62944 0.69141 0.86945 0.0
C104 C 0.88814 0.80075 0.84286 0.0
C105 C 0.93777 0.82771 0.85448 0.0
C106 C 0.91073 0.75182 0.81109 0.0
C107 C 0.97341 0.81538 0.84506 0.0
C108 C 0.87549 0.7645 0.82032 0.0
C109 C 0.95942 0.77518 0.82428 0.0
C110 C 0.84787 0.80512 0.85579 0.0
C111 C 0.68225 0.79596 0.83387 0.0
H112 H 0.50078 0.65553 0.8422 0.0
H113 H 0.37022 0.51523 0.77744 0.0
H114 H 0.41147 0.62628 0.84762 0.0
H115 H 0.45905 0.54572 0.77182 0.0
H116 H 0.94817 0.85613 0.87177 0.0
H117 H 0.89807 0.72035 0.79528 0.0
H118 H 1.01083 0.83479 0.85533 0.0
H119 H 0.83724 0.74338 0.81103 0.0
H120 H 0.57496 0.91608 0.24727 0.0
H121 H 0.72073 0.93414 0.2658 0.0
H122 H 0.65818 0.89656 0.18369 0.0
C123 C 0.60685 0.91285 0.24079 0.0
C124 C 0.61082 0.90299 0.21323 0.0
C125 C 0.64624 0.9241 0.25981 0.0
C126 C 0.68906 0.92312 0.25137 0.0
C127 C 0.69299 0.91233 0.22398 0.0
C128 C 0.65384 0.90234 0.20496 0.0
N129 N 0.73996 0.92173 0.21521 0.0
C130 C 0.76638 0.96407 0.20205 0.0
H131 H 0.85221 0.60617 0.60967 0.0
H132 H 0.97328 0.75198 0.64414 0.0
H133 H 0.97057 0.69747 0.56144 0.0
C134 C 0.88855 0.63944 0.60814 0.0
C135 C 0.91009 0.64616 0.58341 0.0
C136 C 0.91075 0.67748 0.63011 0.0
C137 C 0.95698 0.72116 0.62777 0.0
C138 C 0.97908 0.72805 0.60314 0.0
C139 C 0.95533 0.69061 0.58092 0.0
N140 N 1.01773 0.77683 0.59902 0.0
C141 C 1.00285 0.80773 0.58815 0.0
H142 H 0.97571 0.54883 0.89668 0.0
H143 H 0.97863 0.41841 0.91979 0.0
H144 H 0.97177 0.43744 0.83613 0.0
C145 C 0.97356 0.51258 0.89133 0.0
C146 C 0.97138 0.49518 0.86413 0.0
C147 C 0.97667 0.48556 0.91167 0.0
C148 C 0.97423 0.43883 0.9044 0.0
C149 C 0.97229 0.42131 0.87721 0.0
C150 C 0.97098 0.44972 0.85709 0.0
N151 N 0.98123 0.38068 0.87053 0.0
C152 C 1.02469 0.39114 0.85808 0.0
H153 H 0.22172 0.70133 0.41086 0.0
H154 H 1.08262 0.57247 0.42665 0.0
H155 H 0.1923 0.66785 0.49244 0.0
C156 C 0.19756 0.67834 0.42533 0.0
C157 C 0.21351 0.69149 0.453 0.0
C158 C 0.15049 0.63622 0.41573 0.0
C159 C 1.11877 0.60502 0.43404 0.0
C160 C 0.13415 0.61557 0.46177 0.0
C161 C 0.1813 0.65907 0.47103 0.0
N162 N 1.10354 0.58406 0.48101 0.0
C163 C 1.05668 0.53892 0.47612 0.0
H164 H 0.69353 0.29713 0.74973 0.0
H165 H 0.67913 0.15466 0.7645 0.0
H166 H 0.70099 0.26557 0.83122 0.0
C167 C 0.69342 0.27247 0.76391 0.0
C168 C 0.6986 0.28817 0.79176 0.0
C169 C 0.68612 0.22452 0.75394 0.0
C170 C 0.68437 0.19141 0.77215 0.0
C171 C 0.69012 0.20614 0.80014 0.0
C172 C 0.69665 0.25429 0.80969 0.0
N173 N 0.68975 0.17412 0.81933 0.0
C174 C 0.68542 0.12611 0.81413 0.0
H175 H 0.6928 0.64202 0.07806 0.0
H176 H 0.56034 0.65102 0.09441 0.0
H177 H 0.64678 0.63757 0.1589 0.0
C178 C 0.66714 0.64272 0.09239 0.0
C179 C 0.67606 0.63979 0.11971 0.0
C180 C 0.62593 0.64703 0.0831 0.0
C181 C 0.59212 0.64782 0.10149 0.0
C182 C 0.59901 0.64372 0.12886 0.0
C183 C 0.64105 0.63976 0.13775 0.0
N184 N 0.56498 0.64372 0.14807 0.0
C185 C 0.52145 0.64713 0.14331 0.0
C186 C 0.27588 0.68243 0.14406 0.0
C187 C 0.23766 0.64431 0.15701 0.0
C188 C 0.32274 0.68481 0.14094 0.0
C189 C 0.33246 0.64849 0.15112 0.0
C190 C 0.29427 0.61037 0.16454 0.0
C191 C 0.2476 0.60857 0.16717 0.0
C192 C 0.36167 0.72595 0.12636 0.0
C193 C 0.30272 0.57128 0.1762 0.0
C194 C 0.43533 0.62285 0.12383 0.0
C195 C 0.47521 0.65028 0.14382 0.0
C196 C 0.38926 0.6228 0.12562 0.0
C197 C 0.3825 0.65052 0.14804 0.0
C198 C 0.42339 0.67913 0.16796 0.0
C199 C 0.46894 0.67852 0.16563 0.0
C200 C 0.34743 0.59237 0.10366 0.0
C201 C 0.41867 0.70945 0.19218 0.0
H202 H 0.26898 0.7102 0.13594 0.0
H203 H 0.21878 0.57894 0.1773 0.0
H204 H 0.39884 0.74494 0.1381 0.0
H205 H 0.3659 0.70896 0.10668 0.0
H206 H 0.35118 0.75487 0.12268 0.0
H207 H 0.26969 0.54433 0.18626 0.0
H208 H 0.31076 0.54946 0.16002 0.0
H209 H 0.33605 0.59038 0.1911 0.0
H210 H 0.43984 0.60077 0.10698 0.0
H211 H 0.49953 0.69957 0.18125 0.0
H212 H 0.33513 0.61708 0.09523 0.0
H213 H 0.31437 0.5621 0.11216 0.0
H214 H 0.35902 0.57457 0.08703 0.0
H215 H 0.40268 0.7327 0.18592 0.0
H216 H 0.45548 0.73489 0.2039 0.0
H217 H 0.39238 0.68319 0.20558 0.0
C218 C 0.77827 0.29455 0.47891 0.0
C219 C 0.78044 0.25612 0.49119 0.0
C220 C 0.8223 0.34062 0.47568 0.0
C221 C 0.87039 0.34929 0.48484 0.0
C222 C 0.87285 0.3108 0.49737 0.0
C223 C 0.8282 0.26501 0.50036 0.0
C224 C 0.81729 0.38042 0.46265 0.0
C225 C 0.92284 0.31806 0.50775 0.0
C226 C 0.99012 0.45111 0.45659 0.0
C227 C 1.00842 0.492 0.47714 0.0
C228 C 0.94521 0.40484 0.45867 0.0
C229 C 0.91782 0.39896 0.48192 0.0
C230 C 0.93614 0.44072 0.50251 0.0
C231 C 0.98105 0.48637 0.4999 0.0
C232 C 0.92736 0.36194 0.43609 0.0
C233 C 0.90919 0.43697 0.52778 0.0
H234 H 0.74196 0.28871 0.47173 0.0
H235 H 0.83086 0.23601 0.50987 0.0
H236 H 0.83498 0.41631 0.47653 0.0
H237 H 0.83764 0.38814 0.44409 0.0
H238 H 0.77738 0.36896 0.45737 0.0
H239 H 0.91882 0.2844 0.51652 0.0
H240 H 0.94815 0.32584 0.49118 0.0
H241 H 0.94138 0.35142 0.52343 0.0
H242 H 1.01122 0.45505 0.43902 0.0
H243 H 0.99521 0.51764 0.51599 0.0
H244 H 0.88847 0.35012 0.42827 0.0
H245 H 0.92622 0.32862 0.44377 0.0
H246 H 0.95206 0.37251 0.41916 0.0
H247 H 0.86786 0.41749 0.52302 0.0
H248 H 0.92181 0.47484 0.53913 0.0
H249 H 0.91688 0.41417 0.54105 0.0
C250 C 0.64541 0.84329 0.81203 0.0
C251 C 0.68049 0.84356 0.83076 0.0
C252 C 0.64471 0.88812 0.80817 0.0
C253 C 0.6799 0.93498 0.82334 0.0
C254 C 0.71522 0.93546 0.84237 0.0
C255 C 0.7151 0.8901 0.84582 0.0
C256 C 0.60625 0.88533 0.78771 0.0
C257 C 0.75341 0.98413 0.85912 0.0
C258 C 0.70998 1.06169 0.79859 0.0
C259 C 0.68144 1.07641 0.8146 0.0
C260 C 0.7092 1.01554 0.80084 0.0
C261 C 0.67939 0.98327 0.81969 0.0
C262 C 0.64998 0.99799 0.83559 0.0
C263 C 0.65143 1.04419 0.83287 0.0
C264 C 0.74106 1.00173 0.78337 0.0
C265 C 0.61767 0.96535 0.85596 0.0
H266 H 0.61848 0.80792 0.80015 0.0
H267 H 0.74256 0.89129 0.8603 0.0
H268 H 0.58233 0.8987 0.79769 0.0
H269 H 0.62557 0.91075 0.77229 0.0
H270 H 0.58155 0.84627 0.77742 0.0
H271 H 0.77847 0.97846 0.87298 0.0
H272 H 0.77701 1.01241 0.84578 0.0
H273 H 0.73386 1.00042 0.87123 0.0
H274 H 0.73359 0.08665 0.78459 0.0
H275 H 0.62963 1.05562 0.84547 0.0
H276 H 0.71728 0.96371 0.77179 0.0
H277 H 0.76975 0.99967 0.79623 0.0
H278 H 0.76061 1.02961 0.76901 0.0
H279 H 0.59102 0.92658 0.84598 0.0
H280 H 0.59578 0.9811 0.86616 0.0
H281 H 0.64176 0.96181 0.87147 0.0
C282 C 0.93728 0.65587 0.17267 0.0
C283 C 0.94501 0.61938 0.15761 0.0
C284 C 0.89253 0.6578 0.16865 0.0
C285 C 0.85417 0.62287 0.14873 0.0
C286 C 0.86122 0.58519 0.13387 0.0
C287 C 0.90613 0.58369 0.13857 0.0
C288 C 0.88694 0.69827 0.1853 0.0
C289 C 0.82201 0.54746 0.11221 0.0
C290 C 0.72087 0.60641 0.14815 0.0
C291 C 0.72223 0.63723 0.12869 0.0
C292 C 0.7633 0.60165 0.15507 0.0
C293 C 0.80855 0.62802 0.1422 0.0
C294 C 0.81039 0.65983 0.12295 0.0
C295 C 0.76783 0.66436 0.11668 0.0
C296 C 0.7595 0.56783 0.17597 0.0
C297 C 0.8574 0.68891 0.10862 0.0
H298 H 0.96666 0.68363 0.18752 0.0
H299 H 0.91145 0.55549 0.12663 0.0
H300 H 0.88665 0.72528 0.17214 0.0
H301 H 0.85054 0.68103 0.19466 0.0
H302 H 0.91796 0.71983 0.20146 0.0
H303 H 0.83153 0.51881 0.10344 0.0
H304 H 0.7847 0.52756 0.12049 0.0
H305 H 0.81842 0.56771 0.09582 0.0
H306 H 0.68621 0.58495 0.15758 0.0
H307 H 0.77044 0.68946 0.10218 0.0
H308 H 0.78998 0.58958 0.19234 0.0
H309 H 0.76463 0.53644 0.16673 0.0
H310 H 0.72263 0.55136 0.18492 0.0
H311 H 0.88943 0.71497 0.1235 0.0
H312 H 0.85276 0.71149 0.09388 0.0
H313 H 0.86757 0.66226 0.0978 0.0
C314 C 0.50204 0.92444 0.47761 0.0
C315 C 0.50668 0.96749 0.49319 0.0
C316 C 0.45517 0.87872 0.47268 0.0
C317 C 0.41162 0.87503 0.4841 0.0
C318 C 0.41669 0.91776 0.5008 0.0
C319 C 0.46364 0.96334 0.50481 0.0
C320 C 0.45184 0.83496 0.45427 0.0
C321 C 0.3721 0.91578 0.514 0.0
C322 C 0.28105 0.78196 0.44824 0.0
C323 C 0.26339 0.73925 0.46231 0.0
C324 C 0.32886 0.82551 0.45493 0.0
C325 C 0.36027 0.82816 0.47696 0.0
C326 C 0.34222 0.78619 0.49198 0.0
C327 C 0.29449 0.74236 0.4844 0.0
C328 C 0.34599 0.86869 0.43807 0.0
C329 C 0.37355 0.78747 0.51601 0.0
H330 H 0.53469 0.92708 0.4683 0.0
H331 H 0.46655 0.99605 0.51701 0.0
H332 H 0.43511 0.80016 0.46442 0.0
H333 H 0.42668 0.8271 0.436 0.0
H334 H 0.48924 0.84269 0.44794 0.0
H335 H 0.38307 0.95004 0.52854 0.0
H336 H 0.34407 0.91256 0.4984 0.0
H337 H 0.35327 0.8818 0.52476 0.0
H338 H 0.25739 0.78161 0.43174 0.0
H339 H 0.28208 0.71013 0.49555 0.0
H340 H 0.38231 0.87708 0.42989 0.0
H341 H 0.35249 0.90347 0.45075 0.0
H342 H 0.31812 0.86021 0.42099 0.0
H343 H 0.40907 0.79026 0.5095 0.0
H344 H 0.35344 0.75323 0.5265 0.0
H345 H 0.38401 0.82154 0.53056 0.0
C346 C 0.74281 0.57067 0.84392 0.0
C347 C 0.7061 0.57608 0.82975 0.0
C348 C 0.74399 0.52475 0.84029 0.0
C349 C 0.70865 0.48362 0.82137 0.0
C350 C 0.67206 0.48947 0.80681 0.0
C351 C 0.67089 0.53503 0.8114 0.0
C352 C 0.78185 0.51986 0.85759 0.0
C353 C 0.63388 0.44742 0.78627 0.0
C354 C 0.73553 0.38195 0.7883 0.0
C355 C 0.70513 0.33954 0.80151 0.0
C356 C 0.73847 0.42919 0.79526 0.0
C357 C 0.71025 0.43494 0.81598 0.0
C358 C 0.68105 0.39295 0.83014 0.0
C359 C 0.67893 0.34603 0.82282 0.0
C360 C 0.77064 0.47262 0.77972 0.0
C361 C 0.6507 0.39713 0.85251 0.0
H362 H 0.76971 0.60177 0.85844 0.0
H363 H 0.64255 0.53882 0.80019 0.0
H364 H 0.7634 0.50043 0.8751 0.0
H365 H 0.79585 0.49678 0.84644 0.0
H366 H 0.81441 0.55754 0.86544 0.0
H367 H 0.60747 0.4575 0.77685 0.0
H368 H 0.65348 0.43843 0.77015 0.0
H369 H 0.6117 0.4125 0.79591 0.0
H370 H 0.75683 0.37809 0.77217 0.0
H371 H 0.65515 0.31384 0.83318 0.0
H372 H 0.79444 0.50769 0.7937 0.0
H373 H 0.74601 0.48016 0.76666 0.0
H374 H 0.79541 0.46451 0.76681 0.0
H375 H 0.67542 0.42957 0.86787 0.0
H376 H 0.63191 0.36214 0.86251 0.0
H377 H 0.62147 0.40463 0.84433 0.0
C378 C 0.85322 0.92624 0.522 0.0
C379 C 0.81873 0.92716 0.53967 0.0
C380 C 0.88434 0.9069 0.52875 0.0
C381 C 0.88084 0.88797 0.55377 0.0
C382 C 0.84562 0.8881 0.57156 0.0
C383 C 0.81505 0.90787 0.56432 0.0
C384 C 0.92154 0.90749 0.5093 0.0
C385 C 0.84055 0.86774 0.59832 0.0
C386 C 0.92926 0.79763 0.56264 0.0
C387 C 0.97537 0.8297 0.57748 0.0
C388 C 0.89831 0.81622 0.55444 0.0
C389 C 0.91417 0.86816 0.56138 0.0
C390 C 0.96148 0.90091 0.57597 0.0
C391 C 0.99161 0.88109 0.58401 0.0
C392 C 0.84816 0.78008 0.53897 0.0
C393 C 0.97967 0.95653 0.58359 0.0
H394 H 0.85689 0.94198 0.50313 0.0
H395 H 0.78823 0.90828 0.57795 0.0
H396 H 0.96046 0.93101 0.51895 0.0
H397 H 0.91498 0.86856 0.50401 0.0
H398 H 0.91892 0.92274 0.49045 0.0
H399 H 0.81079 0.86986 0.60965 0.0
H400 H 0.83146 0.82764 0.59515 0.0
H401 H 0.87686 0.88951 0.61088 0.0
H402 H 0.91683 0.75764 0.55802 0.0
H403 H 1.0272 0.90544 0.59583 0.0
H404 H 0.84546 0.79401 0.51969 0.0
H405 H 0.81718 0.77816 0.55076 0.0
H406 H 0.84224 0.74116 0.5345 0.0
H407 H 0.97989 0.97447 0.56533 0.0
H408 H 1.01813 0.97717 0.59405 0.0
H409 H 0.9535 0.96102 0.59702 0.0
C410 C 1.01016 0.74112 0.8436 0.0
C411 C 0.98957 0.74943 0.82064 0.0
C412 C 1.01988 0.70099 0.84273 0.0
C413 C 1.00842 0.66838 0.81835 0.0
C414 C 0.99652 0.68214 0.79423 0.0
C415 C 0.98731 0.72284 0.79565 0.0
C416 C 1.03481 0.68908 0.86887 0.0
C417 C 0.98688 0.6503 0.76749 0.0
C418 C 1.02265 0.55814 0.83377 0.0
C419 C 0.97592 0.52864 0.8439 0.0
C420 C 1.03256 0.60141 0.82175 0.0
C421 C 0.99488 0.61509 0.82025 0.0
C422 C 0.94564 0.58132 0.82716 0.0
C423 C 0.93694 0.53871 0.83929 0.0
C424 C 1.08471 0.63481 0.81334 0.0
C425 C 0.90365 0.5933 0.8249 0.0
H426 H 1.01298 0.76173 0.86302 0.0
H427 H 0.97366 0.73059 0.77758 0.0
H428 H 1.00149 0.65649 0.87584 0.0
H429 H 1.06413 0.67836 0.86599 0.0
H430 H 1.04939 0.72175 0.88498 0.0
H431 H 0.99938 0.67461 0.75097 0.0
H432 H 1.00641 0.62798 0.76722 0.0
H433 H 0.94581 0.62362 0.76338 0.0
H434 H 1.05272 0.54999 0.83733 0.0
H435 H 0.90078 0.51548 0.84707 0.0
H436 H 1.10874 0.66231 0.83082 0.0
H437 H 1.08412 0.65645 0.79691 0.0
H438 H 1.10235 0.61199 0.80657 0.0
H439 H 0.9095 0.6229 0.84153 0.0
H440 H 0.86646 0.55936 0.82616 0.0
H441 H 0.90287 0.60782 0.80556 0.0
C442 C 0.40284 0.94714 0.15933 0.0
C443 C 0.36553 0.90501 0.14241 0.0
C444 C 0.45129 0.95407 0.16342 0.0
C445 C 0.46271 0.91896 0.1496 0.0
C446 C 0.42893 0.88347 0.1284 0.0
C447 C 0.38003 0.87598 0.12535 0.0
C448 C 0.48765 0.99452 0.18516 0.0
C449 C 0.44301 0.85015 0.11092 0.0
C450 C 0.58768 0.9316 0.17278 0.0
C451 C 0.57283 0.90026 0.1934 0.0
C452 C 0.5521 0.93636 0.15708 0.0
C453 C 0.50082 0.90957 0.16247 0.0
C454 C 0.48548 0.87547 0.18217 0.0
C455 C 0.52168 0.87106 0.19725 0.0
C456 C 0.57041 0.97239 0.13605 0.0
C457 C 0.43101 0.84549 0.18841 0.0
H458 H 0.39286 0.97172 0.1714 0.0
H459 H 0.35231 0.84428 0.11146 0.0
H460 H 0.48823 0.97674 0.20338 0.0
H461 H 0.52635 1.01345 0.17848 0.0
H462 H 0.47682 1.02363 0.19079 0.0
H463 H 0.41286 0.82483 0.0949 0.0
H464 H 0.47799 0.87421 0.10132 0.0
H465 H 0.45124 0.82673 0.12342 0.0
H466 H 0.62735 0.95453 0.16984 0.0
H467 H 0.51025 0.8463 0.21293 0.0
H468 H 0.58442 1.01153 0.14596 0.0
H469 H 0.54031 0.9634 0.1202 0.0
H470 H 0.60241 0.97185 0.12637 0.0
H471 H 0.41697 0.87163 0.19494 0.0
H472 H 0.4257 0.82124 0.20457 0.0
H473 H 0.4074 0.82091 0.17006 0.0
C474 C 0.70907 0.42106 0.47665 0.0
C475 C 0.6673 0.40175 0.49215 0.0
C476 C 0.75145 0.46893 0.48465 0.0
C477 C 0.75203 0.49731 0.5088 0.0
C478 C 0.70754 0.48096 0.52238 0.0
C479 C 0.66552 0.43337 0.51378 0.0
C480 C 0.79712 0.48744 0.46864 0.0
C481 C 0.70608 0.51107 0.54774 0.0
C482 C 0.86427 0.55863 0.55984 0.0
C483 C 0.88009 0.60995 0.55971 0.0
C484 C 0.825 0.52173 0.54167 0.0
C485 C 0.80074 0.53673 0.52319 0.0
C486 C 0.81955 0.58886 0.52146 0.0
C487 C 0.85924 0.62504 0.53986 0.0
C488 C 0.8067 0.4665 0.54386 0.0
C489 C 0.79529 0.60675 0.50204 0.0
H490 H 0.71047 0.39725 0.4596 0.0
H491 H 0.63262 0.4193 0.52525 0.0
H492 H 0.8076 0.52529 0.46284 0.0
H493 H 0.82975 0.49209 0.48121 0.0
H494 H 0.79055 0.46124 0.45008 0.0
H495 H 0.66704 0.49702 0.55361 0.0
H496 H 0.72848 0.50824 0.56452 0.0
H497 H 0.72311 0.55172 0.54507 0.0
H498 H 0.88055 0.54728 0.57531 0.0
H499 H 0.87125 0.66487 0.54002 0.0
H500 H 0.80327 0.44589 0.52372 0.0
H501 H 0.76877 0.44876 0.55158 0.0
H502 H 0.83227 0.46141 0.55764 0.0
H503 H 0.77801 0.57963 0.48343 0.0
H504 H 0.82314 0.64447 0.49647 0.0
H505 H 0.76519 0.61075 0.51188 0.0
C506 C 0.31525 0.53732 0.84458 0.0
C507 C 0.32972 0.54511 0.81827 0.0
C508 C 0.2643 0.51183 0.84967 0.0
C509 C 0.2269 0.49327 0.82792 0.0
C510 C 0.24111 0.50158 0.80137 0.0
C511 C 0.2924 0.52765 0.79687 0.0
C512 C 0.25052 0.50407 0.87832 0.0
C513 C 0.20216 0.48236 0.77771 0.0
C514 C 1.09798 0.38746 0.8414 0.0
C515 C 1.07353 0.41475 0.84785 0.0
C516 C 0.14768 0.41236 0.83391 0.0
C517 C 0.1729 0.46551 0.83315 0.0
C518 C 0.14738 0.4927 0.83898 0.0
C519 C 1.09786 0.46684 0.84633 0.0
C520 C 0.17372 0.38219 0.82765 0.0
C521 C 0.17294 0.54933 0.8385 0.0
H522 H 0.34377 0.54985 0.86116 0.0
H523 H 0.30332 0.53406 0.77654 0.0
H524 H 0.2262 0.5203 0.88385 0.0
H525 H 0.22864 0.46294 0.88014 0.0
H526 H 0.28418 0.5219 0.89301 0.0
H527 H 0.21948 0.49212 0.75832 0.0
H528 H 0.17815 0.44055 0.77635 0.0
H529 H 0.17708 0.49857 0.78062 0.0
H530 H 1.07875 0.34709 0.84281 0.0
H531 H 1.07862 0.48769 0.85164 0.0
H532 H 0.20551 0.39445 0.84302 0.0
H533 H 0.18974 0.38936 0.80782 0.0
H534 H 0.1478 0.34079 0.82734 0.0
H535 H 0.20454 0.56881 0.85443 0.0
H536 H 0.1467 0.56412 0.84181 0.0
H537 H 0.18915 0.55938 0.81891 0.0
C538 C 0.86766 0.22533 0.14012 0.0
C539 C 0.8921 0.26466 0.16145 0.0
C540 C 0.84445 0.1744 0.1447 0.0
C541 C 0.84519 0.1626 0.17128 0.0
C542 C 0.86779 0.20201 0.19303 0.0
C543 C 0.89122 0.25258 0.18784 0.0
C544 C 0.82053 0.13329 0.12105 0.0
C545 C 0.86868 0.19081 0.22172 0.0
C546 C 0.75417 1.03237 0.18967 0.0
C547 C 0.78542 1.01148 0.19135 0.0
C548 C 0.77262 1.08101 0.1822 0.0
C549 C 0.8236 0.10913 0.17644 0.0
C550 C 0.85483 0.08722 0.17727 0.0
C551 C 0.83527 1.03838 0.18488 0.0
C552 C 0.73817 0.10301 0.18162 0.0
C553 C 0.90927 0.11602 0.17104 0.0
H554 H 0.86748 0.23439 0.11972 0.0
H555 H 0.91059 0.28264 0.2044 0.0
H556 H 0.84068 0.11159 0.1192 0.0
H557 H 0.78083 0.10615 0.1243 0.0
H558 H 0.82133 0.14877 0.10177 0.0
H559 H 0.88534 0.22568 0.23645 0.0
H560 H 0.8299 0.16462 0.22686 0.0
H561 H 0.89095 0.17164 0.22391 0.0
H562 H 0.71562 1.01125 0.19502 0.0
H563 H 0.85918 1.02182 0.18643 0.0
H564 H 0.73962 0.11879 0.16241 0.0
H565 H 0.751 0.13466 0.19817 0.0
H566 H 0.69844 1.07438 0.18402 0.0
H567 H 0.91219 0.13021 0.1512 0.0
H568 H 0.92737 0.09231 0.17076 0.0
H569 H 0.93063 0.14952 0.18641 0.0
C570 C 1.03967 0.62254 0.06472 0.0
C571 C 1.07513 0.6131 0.07702 0.0
C572 C 1.02203 0.60433 0.03753 0.0
C573 C 1.04093 0.57677 0.02236 0.0
C574 C 1.07841 0.56919 0.03443 0.0
C575 C 1.0948 0.58717 0.06166 0.0
C576 C 0.98188 0.61292 0.02533 0.0
C577 C 1.10023 0.54083 0.01881 0.0
C578 C 0.96589 0.48206 0.96117 0.0
C579 C 0.98983 0.50971 0.94006 0.0
C580 C 0.98085 0.50414 0.98811 0.0
C581 C 1.02106 0.55478 0.99399 0.0
C582 C 1.04466 0.58313 0.97273 0.0
C583 C 1.02873 0.56028 0.94604 0.0
C584 C 0.95456 0.47288 0.01031 0.0
C585 C 1.08809 0.63693 0.97816 0.0
H586 H 1.02406 0.64219 0.07662 0.0
H587 H 1.12244 0.58005 0.07109 0.0
H588 H 0.99417 0.63111 0.00669 0.0
H589 H 0.94698 0.57593 0.01958 0.0
H590 H 0.97283 0.63706 0.03945 0.0
H591 H 0.13097 0.54052 0.03079 0.0
H592 H 1.07022 0.50105 0.01249 0.0
H593 H 1.11526 0.55823 0.00024 0.0
H594 H 0.93571 0.44308 0.95658 0.0
H595 H 1.04805 0.58155 0.92981 0.0
H596 H 0.94154 0.49358 0.02433 0.0
H597 H 0.98135 0.46641 0.02217 0.0
H598 H 0.92166 0.43549 0.00237 0.0
H599 H 1.07775 0.66032 0.99196 0.0
H600 H 1.09991 0.65495 0.95939 0.0
H601 H 1.12082 0.63725 0.98827 0.0
C602 C 0.66985 1.03844 0.41237 0.0
C603 C 0.64076 1.06182 0.41649 0.0
C604 C 0.66846 1.01351 0.38715 0.0
C605 C 0.63828 1.01313 0.36528 0.0
C606 C 0.6086 1.03654 0.36928 0.0
C607 C 0.6096 1.06003 0.39506 0.0
C608 C 0.69963 0.98789 0.38391 0.0
C609 C 0.57685 1.03781 0.34622 0.0
C610 C 0.68073 0.99602 0.29644 0.0
C611 C 0.64573 0.94525 0.28747 0.0
C612 C 0.67784 1.01894 0.32145 0.0
C613 C 0.63968 0.98992 0.33807 0.0
C614 C 0.6046 0.93831 0.3292 0.0
C615 C 0.6076 0.91673 0.30373 0.0
C616 C 0.71532 1.07431 0.32996 0.0
C617 C 0.56424 0.90588 0.34667 0.0
H618 H 0.69337 1.03901 0.42905 0.0
H619 H 0.58711 1.0781 0.39829 0.0
H620 H 0.67552 0.9478 0.37498 0.0
H621 H 0.72905 1.00692 0.36991 0.0
H622 H 0.71834 0.98873 0.40337 0.0
H623 H 0.55537 1.05682 0.35277 0.0
H624 H 0.60136 1.05822 0.33048 0.0
H625 H 0.5499 0.99873 0.3368 0.0
H626 H 0.70947 1.0182 0.28346 0.0
H627 H 0.58028 0.87759 0.29649 0.0
H628 H 0.73849 1.07852 0.3484 0.0
H629 H 0.69517 0.09536 0.33495 0.0
H630 H 0.7409 0.09213 0.31405 0.0
H631 H 0.58186 0.90492 0.36605 0.0
H632 H 0.54006 0.86636 0.33684 0.0
H633 H 0.54 0.92249 0.3515 0.0
C634 C 0.73449 0.64705 0.75169 0.0
C635 C 0.74197 0.69514 0.76097 0.0
C636 C 0.76206 0.64091 0.73111 0.0
C637 C 0.79698 0.68376 0.71924 0.0
C638 C 0.80397 0.73223 0.72828 0.0
C639 C 0.77672 0.73739 0.74924 0.0
C640 C 0.75438 0.58882 0.72235 0.0
C641 C 0.84027 0.77869 0.71582 0.0
C642 C 0.90176 0.68458 0.67983 0.0
C643 C 0.88104 0.67556 0.6533 0.0
C644 C 0.87398 0.68529 0.70166 0.0
C645 C 0.825 0.67798 0.69666 0.0
C646 C 0.80384 0.66831 0.66988 0.0
C647 C 0.83204 0.667 0.64854 0.0
C648 C 0.89736 0.69484 0.73 0.0
C649 C 0.75213 0.66119 0.6637 0.0
H650 H 0.7084 0.61446 0.76115 0.0
H651 H 0.78274 0.77464 0.75653 0.0
H652 H 0.74046 0.5772 0.70075 0.0
H653 H 0.79082 0.58955 0.72448 0.0
H654 H 0.72708 0.55975 0.73428 0.0
H655 H 0.84081 0.8135 0.72498 0.0
H656 H 0.87893 0.78463 0.71829 0.0
H657 H 0.82986 0.77319 0.69387 0.0
H658 H 0.93964 0.69114 0.68343 0.0
H659 H 0.81633 0.66089 0.62799 0.0
H660 H 0.87158 0.66497 0.742 0.0
H661 H 0.90357 0.73162 0.74004 0.0
H662 H 0.93399 0.69574 0.73038 0.0
H663 H 0.72378 0.63036 0.67428 0.0
H664 H 0.74036 0.65191 0.64177 0.0
H665 H 0.75187 0.69639 0.67113 0.0
C666 C 0.6316 0.17611 0.59271 0.0
C667 C 0.64989 0.14563 0.58082 0.0
C668 C 0.63583 0.18809 0.62092 0.0
C669 C 0.65995 0.17015 0.63762 0.0
C670 C 0.67882 0.13973 0.62566 0.0
C671 C 0.67312 0.12746 0.59753 0.0
C672 C 0.61438 0.21985 0.63287 0.0
C673 C 0.70577 0.12071 0.64257 0.0
C674 C 0.71537 0.24167 0.70773 0.0
C675 C 0.68008 0.20949 0.72429 0.0
C676 C 0.7094 0.22922 0.67958 0.0
C677 C 0.6665 0.18394 0.66755 0.0
C678 C 0.63061 0.15139 0.68421 0.0
C679 C 0.63812 0.16428 0.71239 0.0
C680 C 0.74921 0.26442 0.66273 0.0
C681 C 0.58397 0.10322 0.67223 0.0
H682 H 0.61342 0.19011 0.57998 0.0
H683 H 0.68782 0.10427 0.58857 0.0
H684 H 0.58706 0.19937 0.64757 0.0
H685 H 0.64491 0.25569 0.644 0.0
H686 H 0.5951 0.22926 0.61727 0.0
H687 H 0.71866 0.09782 0.63016 0.0
H688 H 0.73901 0.15325 0.65435 0.0
H689 H 0.68054 0.09711 0.6572 0.0
H690 H 0.74798 0.27653 0.71689 0.0
H691 H 0.6105 0.13962 0.72511 0.0
H692 H 0.73231 0.27822 0.64828 0.0
H693 H 0.76475 0.24366 0.65073 0.0
H694 H 0.78071 0.29771 0.67519 0.0
H695 H 0.56236 0.11211 0.6578 0.0
H696 H 0.55902 1.08272 0.68784 0.0
H697 H 0.5947 1.07759 0.66079 0.0
C698 C 0.6032 0.67129 0.92387 0.0
C699 C 0.65298 0.70156 0.91736 0.0
C700 C 0.5922 0.66195 0.95064 0.0
C701 C 0.63186 0.68351 0.97142 0.0
C702 C 0.68182 0.71584 0.96509 0.0
C703 C 0.69172 0.72437 0.93826 0.0
C704 C 0.53844 0.62737 0.95653 0.0
C705 C 0.72529 0.73994 0.98656 0.0
C706 C 0.61234 0.69084 0.0464 0.0
C707 C 0.61979 0.652 0.05408 0.0
C708 C 0.6136 0.70009 0.0193 0.0
C709 C 0.62235 0.66967 -0.00058 0.0
C710 C 0.62704 0.62866 0.0069 0.0
C711 C 0.62573 0.62038 0.03407 0.0
C712 C 0.60832 0.74411 0.01222 0.0
C713 C 0.63603 0.59498 0.98642 0.0
H714 H 0.57295 0.65341 0.90794 0.0
H715 H 0.73029 0.74822 0.93361 0.0
H716 H 0.53451 0.5917 0.9625 0.0
H717 H 0.52808 0.64529 0.97365 0.0
H718 H 0.51142 0.61772 0.93881 0.0
H719 H 0.76138 0.76672 0.97868 0.0
H720 H 0.71754 0.76071 0.00345 0.0
H721 H 0.72988 0.71004 -0.00512 0.0
H722 H 0.60796 0.71557 0.06176 0.0
H723 H 0.6307 0.58979 0.0398 0.0
H724 H 0.5812 0.73229 0.99432 0.0
H725 H 0.64521 0.77454 0.00698 0.0
H726 H 0.59555 0.76008 0.02914 0.0
H727 H 0.6077 0.58061 0.96889 0.0
H728 H 0.63438 0.56211 -0.005 0.0
H729 H 0.67369 0.61725 0.97884 0.0
C730 C 1.11841 0.67175 0.26292 0.0
C731 C 1.0915 0.62675 0.24519 0.0
C732 C 1.12404 0.67079 0.29083 0.0
C733 C 1.10293 0.62367 0.30132 0.0
C734 C 1.07499 0.57816 0.28359 0.0
C735 C 1.06934 0.58024 0.25583 0.0
C736 C 0.15352 0.72026 0.30904 0.0
C737 C 1.05241 0.52712 0.29381 0.0
C738 C 0.16736 0.62488 0.36755 0.0
C739 C 0.13489 0.62659 0.38638 0.0
C740 C 0.15652 0.62225 0.33981 0.0
C741 C 1.11244 0.62211 0.33059 0.0
C742 C 1.07874 0.62235 0.34948 0.0
C743 C 1.0902 0.62422 0.37715 0.0
C744 C 0.19306 0.62108 0.32042 0.0
C745 C 1.03163 0.62272 0.34058 0.0
H746 H 0.13545 0.70788 0.25499 0.0
H747 H 1.04866 0.54517 0.24236 0.0
H748 H 0.13083 0.72188 0.32567 0.0
H749 H 0.18806 0.72292 0.31833 0.0
H750 H 0.16474 0.75366 0.29806 0.0
H751 H 1.02978 0.49534 0.27767 0.0
H752 H 1.08291 0.52188 0.30241 0.0
H753 H 1.02799 0.52514 0.31021 0.0
H754 H 0.20184 0.62648 0.37463 0.0
H755 H 1.06531 0.6261 0.39168 0.0
H756 H 0.21013 0.65614 0.31049 0.0
H757 H 0.17296 0.58856 0.30436 0.0
H758 H 0.22381 0.61803 0.33061 0.0
H759 H 1.04206 0.65822 0.33178 0.0
H760 H 1.00793 0.62009 0.3575 0.0
H761 H 1.00884 0.5907 0.32463 0.0
loop_
_geom_bond_atom_site_label_1
_geom_bond_atom_site_label_2
_geom_bond_distance
_geom_bond_site_symmetry_2
_ccdc_geom_bond_type
Eu0 C9 2.828 . S
Eu0 O11 2.392 1_655 S
Eu0 O13 2.418 . S
Eu0 O18 2.373 . S
Eu0 O21 2.488 . S
Eu0 O22 2.471 . S
Eu0 O23 2.349 1_655 S
Eu1 O10 2.373 . S
Eu1 O14 2.488 . S
Eu1 O15 2.471 . S
Eu1 O16 2.349 . S
Eu1 O19 2.392 1_455 S
Eu1 O20 2.418 . S
Eu1 C30 2.828 . S
C2 O20 1.244 . S
C2 O23 1.265 . S
C3 C4 1.379 . S
C3 C7 1.373 . S
C3 C9 1.505 . S
C4 C3 1.379 . S
C4 C6 1.369 . S
C4 H32 0.930 . S
C5 C7 1.383 . S
C5 C8 1.382 . S
C5 H33 0.930 . S
C6 C4 1.369 . S
C6 C8 1.392 . S
C6 H34 0.930 . S
C7 C3 1.373 . S
C7 C5 1.383 . S
C7 H35 0.931 . S
C8 C5 1.382 . S
C8 C6 1.392 . S
C9 Eu0 2.828 . S
C9 C3 1.505 . S
C9 O21 1.249 . S
C9 O22 1.244 . S
O10 Eu1 2.373 . S
O10 C12 1.258 . S
O11 Eu0 2.392 1_455 S
O11 C12 1.242 . S
C12 O10 1.258 . S
C12 O11 1.242 . S
O13 Eu0 2.418 . S
O13 C17 1.244 1_655 S
O14 Eu1 2.488 . S
O14 C30 1.249 . S
O15 Eu1 2.471 . S
O15 C30 1.244 . S
O16 Eu1 2.349 . S
O16 C17 1.265 . S
C17 O13 1.244 1_455 S
C17 O16 1.265 . S
O18 Eu0 2.373 . S
O18 C31 1.258 . S
O19 Eu1 2.392 1_655 S
O19 C31 1.242 . S
O20 Eu1 2.418 . S
O20 C2 1.244 . S
O21 Eu0 2.488 . S
O21 C9 1.249 . S
O22 Eu0 2.471 . S
O22 C9 1.244 . S
O23 Eu0 2.349 1_455 S
O23 C2 1.265 . S
C24 C25 1.379 . S
C24 C28 1.373 . S
C24 C30 1.505 . S
C25 C24 1.379 . S
C25 C27 1.369 . S
C25 H36 0.930 . S
C26 C28 1.383 . S
C26 C29 1.382 . S
C26 H37 0.930 . S
C27 C25 1.369 . S
C27 C29 1.392 . S
C27 H38 0.930 . S
C28 C24 1.373 . S
C28 C26 1.383 . S
C28 H39 0.931 . S
C29 C26 1.382 . S
C29 C27 1.392 . S
C30 Eu1 2.828 . S
C30 O14 1.249 . S
C30 O15 1.244 . S
C30 C24 1.505 . S
C31 O18 1.258 . S
C31 O19 1.242 . S
H32 C4 0.930 . S
H33 C5 0.930 . S
H34 C6 0.930 . S
H35 C7 0.931 . S
H36 C25 0.930 . S
H37 C26 0.930 . S
H38 C27 0.930 . S
H39 C28 0.931 . S
Eu40 C49 2.828 . S
Eu40 O51 2.392 1_565 S
Eu40 O53 2.418 . S
Eu40 O58 2.373 . S
Eu40 O61 2.488 . S
Eu40 O62 2.471 . S
Eu40 O63 2.349 1_565 S
Eu41 O50 2.373 . S
Eu41 O54 2.488 . S
Eu41 O55 2.471 . S
Eu41 O56 2.349 . S
Eu41 O59 2.392 1_545 S
Eu41 O60 2.418 . S
Eu41 C70 2.828 . S
C42 O60 1.244 . S
C42 O63 1.265 . S
C43 C44 1.379 . S
C43 C47 1.373 . S
C43 C49 1.505 . S
C44 C43 1.379 . S
C44 C46 1.369 . S
C44 H72 0.930 . S
C45 C47 1.383 . S
C45 C48 1.382 . S
C45 H73 0.930 . S
C46 C44 1.369 . S
C46 C48 1.392 . S
C46 H74 0.930 . S
C47 C43 1.373 . S
C47 C45 1.383 . S
C47 H75 0.931 . S
C48 C45 1.382 . S
C48 C46 1.392 . S
C49 Eu40 2.828 . S
C49 C43 1.505 . S
C49 O61 1.249 . S
C49 O62 1.244 . S
O50 Eu41 2.373 . S
O50 C52 1.258 . S
O51 Eu40 2.392 1_545 S
O51 C52 1.242 . S
C52 O50 1.258 . S
C52 O51 1.242 . S
O53 Eu40 2.418 . S
O53 C57 1.244 1_565 S
O54 Eu41 2.488 . S
O54 C70 1.249 . S
O55 Eu41 2.471 . S
O55 C70 1.244 . S
O56 Eu41 2.349 . S
O56 C57 1.265 . S
C57 O53 1.244 1_545 S
C57 O56 1.265 . S
O58 Eu40 2.373 . S
O58 C71 1.258 . S
O59 Eu41 2.392 1_565 S
O59 C71 1.242 . S
O60 Eu41 2.418 . S
O60 C42 1.244 . S
O61 Eu40 2.488 . S
O61 C49 1.249 . S
O62 Eu40 2.471 . S
O62 C49 1.244 . S
O63 Eu40 2.349 1_545 S
O63 C42 1.265 . S
C64 C65 1.379 . S
C64 C68 1.373 . S
C64 C70 1.505 . S
C65 C64 1.379 . S
C65 C67 1.369 . S
C65 H76 0.930 . S
C66 C68 1.383 . S
C66 C69 1.382 . S
C66 H77 0.930 . S
C67 C65 1.369 . S
C67 C69 1.392 . S
C67 H78 0.930 . S
C68 C64 1.373 . S
C68 C66 1.383 . S
C68 H79 0.931 . S
C69 C66 1.382 . S
C69 C67 1.392 . S
C70 Eu41 2.828 . S
C70 O54 1.249 . S
C70 O55 1.244 . S
C70 C64 1.505 . S
C71 O58 1.258 . S
C71 O59 1.242 . S
H72 C44 0.930 . S
H73 C45 0.930 . S
H74 C46 0.930 . S
H75 C47 0.931 . S
H76 C65 0.930 . S
H77 C66 0.930 . S
H78 C67 0.930 . S
H79 C68 0.931 . S
Eu80 C89 2.828 . S
Eu80 O91 2.392 . S
Eu80 O93 2.418 . S
Eu80 O98 2.373 . S
Eu80 O101 2.488 . S
Eu80 O102 2.471 . S
Eu80 O103 2.349 . S
Eu81 O90 2.373 . S
Eu81 O94 2.488 . S
Eu81 O95 2.471 . S
Eu81 O96 2.349 . S
Eu81 O99 2.392 . S
Eu81 O100 2.418 . S
Eu81 C110 2.828 . S
C82 O100 1.244 . S
C82 O103 1.265 . S
C83 C84 1.379 . S
C83 C87 1.373 . S
C83 C89 1.505 . S
C84 C83 1.379 . S
C84 C86 1.369 . S
C84 H112 0.930 . S
C85 C87 1.383 . S
C85 C88 1.382 . S
C85 H113 0.930 . S
C86 C84 1.369 . S
C86 C88 1.392 . S
C86 H114 0.930 . S
C87 C83 1.373 . S
C87 C85 1.383 . S
C87 H115 0.931 . S
C88 C85 1.382 . S
C88 C86 1.392 . S
C89 Eu80 2.828 . S
C89 C83 1.505 . S
C89 O101 1.249 . S
C89 O102 1.244 . S
O90 Eu81 2.373 . S
O90 C92 1.258 . S
O91 Eu80 2.392 . S
O91 C92 1.242 . S
C92 O90 1.258 . S
C92 O91 1.242 . S
O93 Eu80 2.418 . S
O93 C97 1.244 . S
O94 Eu81 2.488 . S
O94 C110 1.249 . S
O95 Eu81 2.471 . S
O95 C110 1.244 . S
O96 Eu81 2.349 . S
O96 C97 1.265 . S
C97 O93 1.244 . S
C97 O96 1.265 . S
O98 Eu80 2.373 . S
O98 C111 1.258 . S
O99 Eu81 2.392 . S
O99 C111 1.242 . S
O100 Eu81 2.418 . S
O100 C82 1.244 . S
O101 Eu80 2.488 . S
O101 C89 1.249 . S
O102 Eu80 2.471 . S
O102 C89 1.244 . S
O103 Eu80 2.349 . S
O103 C82 1.265 . S
C104 C105 1.379 . S
C104 C108 1.373 . S
C104 C110 1.505 . S
C105 C104 1.379 . S
C105 C107 1.369 . S
C105 H116 0.930 . S
C106 C108 1.383 . S
C106 C109 1.382 . S
C106 H117 0.930 . S
C107 C105 1.369 . S
C107 C109 1.392 . S
C107 H118 0.930 . S
C108 C104 1.373 . S
C108 C106 1.383 . S
C108 H119 0.931 . S
C109 C106 1.382 . S
C109 C107 1.392 . S
C110 Eu81 2.828 . S
C110 O94 1.249 . S
C110 O95 1.244 . S
C110 C104 1.505 . S
C111 O98 1.258 . S
C111 O99 1.242 . S
H112 C84 0.930 . S
H113 C85 0.930 . S
H114 C86 0.930 . S
H115 C87 0.931 . S
H116 C105 0.930 . S
H117 C106 0.930 . S
H118 C107 0.930 . S
H119 C108 0.931 . S
H120 C123 0.929 1_565 S
H121 C126 0.929 . S
H122 C128 0.930 . S
C123 H120 0.929 1_545 S
C123 C124 1.398 1_545 S
C123 C125 1.396 . S
C124 C123 1.398 1_565 S
C124 C128 1.407 1_565 S
C125 C123 1.396 . S
C125 C126 1.394 . S
C126 H121 0.929 . S
C126 C125 1.394 . S
C126 C127 1.382 . S
C127 C126 1.382 . S
C127 C128 1.392 . S
C127 N129 1.420 . S
C128 H122 0.930 . S
C128 C124 1.407 1_545 S
C128 C127 1.392 . S
N129 C127 1.420 . S
N129 C130 1.244 . S
C130 N129 1.244 . S
H131 C134 0.929 . S
H132 C137 0.929 . S
H133 C139 0.930 . S
C134 H131 0.929 . S
C134 C135 1.398 . S
C134 C136 1.396 . S
C135 C134 1.398 . S
C135 C139 1.407 . S
C136 C134 1.396 . S
C136 C137 1.394 . S
C137 H132 0.929 . S
C137 C136 1.394 . S
C137 C138 1.382 . S
C138 C137 1.382 . S
C138 C139 1.392 . S
C138 N140 1.420 . S
C139 H133 0.930 . S
C139 C135 1.407 . S
C139 C138 1.392 . S
N140 C138 1.420 . S
N140 C141 1.244 . S
C141 N140 1.244 . S
H142 C145 0.929 1_655 S
H143 C148 0.929 . S
H144 C150 0.930 . S
C145 H142 0.929 1_455 S
C145 C146 1.398 . S
C145 C147 1.396 . S
C146 C145 1.398 . S
C146 C150 1.407 . S
C147 C145 1.396 . S
C147 C148 1.394 . S
C148 H143 0.929 . S
C148 C147 1.394 . S
C148 C149 1.382 . S
C149 C148 1.382 . S
C149 C150 1.392 . S
C149 N151 1.420 . S
C150 H144 0.930 . S
C150 C146 1.407 . S
C150 C149 1.392 . S
N151 C149 1.420 . S
N151 C152 1.244 . S
C152 N151 1.244 . S
H153 C156 0.929 . S
H154 C159 0.928 . S
H155 C161 0.930 . S
C156 H153 0.929 . S
C156 C157 1.398 . S
C156 C158 1.396 . S
C157 C156 1.398 . S
C157 C161 1.407 . S
C158 C156 1.396 . S
C158 C159 1.395 1_455 S
C159 H154 0.928 . S
C159 C158 1.395 1_655 S
C159 C160 1.382 1_655 S
C160 C159 1.382 1_455 S
C160 C161 1.392 . S
C160 N162 1.420 1_455 S
C161 H155 0.930 . S
C161 C157 1.407 . S
C161 C160 1.392 . S
N162 C160 1.420 1_655 S
N162 C163 1.244 . S
C163 N162 1.244 . S
H164 C167 0.929 . S
H165 C170 0.929 1_565 S
H166 C172 0.930 . S
C167 H164 0.929 . S
C167 C168 1.398 . S
C167 C169 1.396 . S
C168 C167 1.398 . S
C168 C172 1.407 . S
C169 C167 1.396 . S
C169 C170 1.394 . S
C170 H165 0.929 1_545 S
C170 C169 1.394 . S
C170 C171 1.382 . S
C171 C170 1.382 . S
C171 C172 1.392 . S
C171 N173 1.420 1_545 S
C172 H166 0.930 . S
C172 C168 1.407 . S
C172 C171 1.392 . S
N173 C171 1.420 1_565 S
N173 C174 1.244 . S
C174 N173 1.244 . S
H175 C178 0.929 . S
H176 C181 0.929 . S
H177 C183 0.930 . S
C178 H175 0.929 . S
C178 C179 1.398 . S
C178 C180 1.396 . S
C179 C178 1.398 . S
C179 C183 1.407 . S
C180 C178 1.396 . S
C180 C181 1.394 . S
C181 H176 0.929 . S
C181 C180 1.394 . S
C181 C182 1.382 . S
C182 C181 1.382 . S
C182 C183 1.392 . S
C182 N184 1.420 . S
C183 H177 0.930 . S
C183 C179 1.407 . S
C183 C182 1.392 . S
N184 C182 1.420 . S
N184 C185 1.244 . S
C185 N184 1.244 . S
C186 C187 1.391 . S
C186 C188 1.394 . S
C186 H202 0.931 . S
C187 C186 1.391 . S
C187 C191 1.376 . S
C188 C186 1.394 . S
C188 C189 1.369 . S
C188 C192 1.531 . S
C189 C188 1.369 . S
C189 C190 1.410 . S
C189 C197 1.503 . S
C190 C189 1.410 . S
C190 C191 1.392 . S
C190 C193 1.511 . S
C191 C187 1.376 . S
C191 C190 1.392 . S
C191 H203 0.929 . S
C192 C188 1.531 . S
C192 H204 0.960 . S
C192 H205 0.962 . S
C192 H206 0.960 . S
C193 C190 1.511 . S
C193 H207 0.961 . S
C193 H208 0.961 . S
C193 H209 0.961 . S
C194 C195 1.370 . S
C194 C196 1.363 . S
C194 H210 0.931 . S
C195 C194 1.370 . S
C195 C199 1.408 . S
C196 C194 1.363 . S
C196 C197 1.370 . S
C196 C200 1.524 . S
C197 C189 1.503 . S
C197 C196 1.370 . S
C197 C198 1.403 . S
C198 C197 1.403 . S
C198 C199 1.404 . S
C198 C201 1.539 . S
C199 C195 1.408 . S
C199 C198 1.404 . S
C199 H211 0.930 . S
C200 C196 1.524 . S
C200 H212 0.956 . S
C200 H213 0.961 . S
C200 H214 0.961 . S
C201 C198 1.539 . S
C201 H215 0.958 . S
C201 H216 0.961 . S
C201 H217 0.960 . S
H202 C186 0.931 . S
H203 C191 0.929 . S
H204 C192 0.960 . S
H205 C192 0.962 . S
H206 C192 0.960 . S
H207 C193 0.961 . S
H208 C193 0.961 . S
H209 C193 0.961 . S
H210 C194 0.931 . S
H211 C199 0.930 . S
H212 C200 0.956 . S
H213 C200 0.961 . S
H214 C200 0.961 . S
H215 C201 0.958 . S
H216 C201 0.961 . S
H217 C201 0.960 . S
C218 C219 1.391 . S
C218 C220 1.394 . S
C218 H234 0.931 . S
C219 C218 1.391 . S
C219 C223 1.376 . S
C220 C218 1.394 . S
C220 C221 1.369 . S
C220 C224 1.531 . S
C221 C220 1.369 . S
C221 C222 1.410 . S
C221 C229 1.503 . S
C222 C221 1.410 . S
C222 C223 1.392 . S
C222 C225 1.511 . S
C223 C219 1.376 . S
C223 C222 1.392 . S
C223 H235 0.929 . S
C224 C220 1.531 . S
C224 H236 0.960 . S
C224 H237 0.962 . S
C224 H238 0.960 . S
C225 C222 1.511 . S
C225 H239 0.961 . S
C225 H240 0.961 . S
C225 H241 0.961 . S
C226 C227 1.370 . S
C226 C228 1.363 . S
C226 H242 0.931 . S
C227 C226 1.370 . S
C227 C231 1.408 . S
C228 C226 1.363 . S
C228 C229 1.370 . S
C228 C232 1.524 . S
C229 C221 1.503 . S
C229 C228 1.370 . S
C229 C230 1.403 . S
C230 C229 1.403 . S
C230 C231 1.404 . S
C230 C233 1.539 . S
C231 C227 1.408 . S
C231 C230 1.404 . S
C231 H243 0.930 . S
C232 C228 1.524 . S
C232 H244 0.956 . S
C232 H245 0.961 . S
C232 H246 0.961 . S
C233 C230 1.539 . S
C233 H247 0.958 . S
C233 H248 0.961 . S
C233 H249 0.960 . S
H234 C218 0.931 . S
H235 C223 0.929 . S
H236 C224 0.960 . S
H237 C224 0.962 . S
H238 C224 0.960 . S
H239 C225 0.961 . S
H240 C225 0.961 . S
H241 C225 0.961 . S
H242 C226 0.931 . S
H243 C231 0.930 . S
H244 C232 0.956 . S
H245 C232 0.961 . S
H246 C232 0.961 . S
H247 C233 0.958 . S
H248 C233 0.961 . S
H249 C233 0.960 . S
C250 C251 1.391 . S
C250 C252 1.394 . S
C250 H266 0.931 . S
C251 C250 1.391 . S
C251 C255 1.376 . S
C252 C250 1.394 . S
C252 C253 1.369 . S
C252 C256 1.531 . S
C253 C252 1.369 . S
C253 C254 1.410 . S
C253 C261 1.503 . S
C254 C253 1.410 . S
C254 C255 1.392 . S
C254 C257 1.511 . S
C255 C251 1.376 . S
C255 C254 1.392 . S
C255 H267 0.929 . S
C256 C252 1.531 . S
C256 H268 0.960 . S
C256 H269 0.962 . S
C256 H270 0.960 . S
C257 C254 1.511 . S
C257 H271 0.961 . S
C257 H272 0.961 . S
C257 H273 0.961 . S
C258 C259 1.370 . S
C258 C260 1.363 . S
C258 H274 0.931 . S
C259 C258 1.370 . S
C259 C263 1.408 . S
C260 C258 1.363 . S
C260 C261 1.370 . S
C260 C264 1.524 . S
C261 C253 1.503 . S
C261 C260 1.370 . S
C261 C262 1.403 . S
C262 C261 1.403 . S
C262 C263 1.404 . S
C262 C265 1.539 . S
C263 C259 1.408 . S
C263 C262 1.404 . S
C263 H275 0.930 . S
C264 C260 1.524 . S
C264 H276 0.956 . S
C264 H277 0.961 . S
C264 H278 0.961 . S
C265 C262 1.539 . S
C265 H279 0.958 . S
C265 H280 0.961 . S
C265 H281 0.960 . S
H266 C250 0.931 . S
H267 C255 0.929 . S
H268 C256 0.960 . S
H269 C256 0.962 . S
H270 C256 0.960 . S
H271 C257 0.961 . S
H272 C257 0.961 . S
H273 C257 0.961 . S
H274 C258 0.931 . S
H275 C263 0.930 . S
H276 C264 0.956 . S
H277 C264 0.961 . S
H278 C264 0.961 . S
H279 C265 0.958 . S
H280 C265 0.961 . S
H281 C265 0.960 . S
C282 C283 1.391 . S
C282 C284 1.394 . S
C282 H298 0.931 . S
C283 C282 1.391 . S
C283 C287 1.376 . S
C284 C282 1.394 . S
C284 C285 1.369 . S
C284 C288 1.531 . S
C285 C284 1.369 . S
C285 C286 1.410 . S
C285 C293 1.503 . S
C286 C285 1.410 . S
C286 C287 1.392 . S
C286 C289 1.511 . S
C287 C283 1.376 . S
C287 C286 1.392 . S
C287 H299 0.929 . S
C288 C284 1.531 . S
C288 H300 0.960 . S
C288 H301 0.962 . S
C288 H302 0.960 . S
C289 C286 1.511 . S
C289 H303 0.961 . S
C289 H304 0.961 . S
C289 H305 0.961 . S
C290 C291 1.370 . S
C290 C292 1.363 . S
C290 H306 0.931 . S
C291 C290 1.370 . S
C291 C295 1.408 . S
C292 C290 1.363 . S
C292 C293 1.370 . S
C292 C296 1.524 . S
C293 C285 1.503 . S
C293 C292 1.370 . S
C293 C294 1.403 . S
C294 C293 1.403 . S
C294 C295 1.404 . S
C294 C297 1.539 . S
C295 C291 1.408 . S
C295 C294 1.404 . S
C295 H307 0.930 . S
C296 C292 1.524 . S
C296 H308 0.956 . S
C296 H309 0.961 . S
C296 H310 0.961 . S
C297 C294 1.539 . S
C297 H311 0.958 . S
C297 H312 0.961 . S
C297 H313 0.960 . S
H298 C282 0.931 . S
H299 C287 0.929 . S
H300 C288 0.960 . S
H301 C288 0.962 . S
H302 C288 0.960 . S
H303 C289 0.961 . S
H304 C289 0.961 . S
H305 C289 0.961 . S
H306 C290 0.931 . S
H307 C295 0.930 . S
H308 C296 0.956 . S
H309 C296 0.961 . S
H310 C296 0.961 . S
H311 C297 0.958 . S
H312 C297 0.961 . S
H313 C297 0.960 . S
C314 C315 1.391 . S
C314 C316 1.394 . S
C314 H330 0.931 . S
C315 C314 1.391 . S
C315 C319 1.376 . S
C316 C314 1.394 . S
C316 C317 1.369 . S
C316 C320 1.531 . S
C317 C316 1.369 . S
C317 C318 1.410 . S
C317 C325 1.503 . S
C318 C317 1.410 . S
C318 C319 1.392 . S
C318 C321 1.511 . S
C319 C315 1.376 . S
C319 C318 1.392 . S
C319 H331 0.929 . S
C320 C316 1.531 . S
C320 H332 0.960 . S
C320 H333 0.962 . S
C320 H334 0.960 . S
C321 C318 1.511 . S
C321 H335 0.961 . S
C321 H336 0.961 . S
C321 H337 0.961 . S
C322 C323 1.370 . S
C322 C324 1.363 . S
C322 H338 0.931 . S
C323 C322 1.370 . S
C323 C327 1.408 . S
C324 C322 1.363 . S
C324 C325 1.370 . S
C324 C328 1.524 . S
C325 C317 1.503 . S
C325 C324 1.370 . S
C325 C326 1.403 . S
C326 C325 1.403 . S
C326 C327 1.404 . S
C326 C329 1.539 . S
C327 C323 1.408 . S
C327 C326 1.404 . S
C327 H339 0.930 . S
C328 C324 1.524 . S
C328 H340 0.956 . S
C328 H341 0.961 . S
C328 H342 0.961 . S
C329 C326 1.539 . S
C329 H343 0.958 . S
C329 H344 0.961 . S
C329 H345 0.960 . S
H330 C314 0.931 . S
H331 C319 0.929 . S
H332 C320 0.960 . S
H333 C320 0.962 . S
H334 C320 0.960 . S
H335 C321 0.961 . S
H336 C321 0.961 . S
H337 C321 0.961 . S
H338 C322 0.931 . S
H339 C327 0.930 . S
H340 C328 0.956 . S
H341 C328 0.961 . S
H342 C328 0.961 . S
H343 C329 0.958 . S
H344 C329 0.961 . S
H345 C329 0.960 . S
C346 C347 1.391 . S
C346 C348 1.394 . S
C346 H362 0.931 . S
C347 C346 1.391 . S
C347 C351 1.376 . S
C348 C346 1.394 . S
C348 C349 1.369 . S
C348 C352 1.531 . S
C349 C348 1.369 . S
C349 C350 1.410 . S
C349 C357 1.503 . S
C350 C349 1.410 . S
C350 C351 1.392 . S
C350 C353 1.511 . S
C351 C347 1.376 . S
C351 C350 1.392 . S
C351 H363 0.929 . S
C352 C348 1.531 . S
C352 H364 0.960 . S
C352 H365 0.962 . S
C352 H366 0.960 . S
C353 C350 1.511 . S
C353 H367 0.961 . S
C353 H368 0.961 . S
C353 H369 0.961 . S
C354 C355 1.370 . S
C354 C356 1.363 . S
C354 H370 0.931 . S
C355 C354 1.370 . S
C355 C359 1.408 . S
C356 C354 1.363 . S
C356 C357 1.370 . S
C356 C360 1.524 . S
C357 C349 1.503 . S
C357 C356 1.370 . S
C357 C358 1.403 . S
C358 C357 1.403 . S
C358 C359 1.404 . S
C358 C361 1.539 . S
C359 C355 1.408 . S
C359 C358 1.404 . S
C359 H371 0.930 . S
C360 C356 1.524 . S
C360 H372 0.956 . S
C360 H373 0.961 . S
C360 H374 0.961 . S
C361 C358 1.539 . S
C361 H375 0.958 . S
C361 H376 0.961 . S
C361 H377 0.960 . S
H362 C346 0.931 . S
H363 C351 0.929 . S
H364 C352 0.960 . S
H365 C352 0.962 . S
H366 C352 0.960 . S
H367 C353 0.961 . S
H368 C353 0.961 . S
H369 C353 0.961 . S
H370 C354 0.931 . S
H371 C359 0.930 . S
H372 C360 0.956 . S
H373 C360 0.961 . S
H374 C360 0.961 . S
H375 C361 0.958 . S
H376 C361 0.961 . S
H377 C361 0.960 . S
C378 C379 1.391 . S
C378 C380 1.394 . S
C378 H394 0.931 . S
C379 C378 1.391 . S
C379 C383 1.376 . S
C380 C378 1.394 . S
C380 C381 1.369 . S
C380 C384 1.531 . S
C381 C380 1.369 . S
C381 C382 1.410 . S
C381 C389 1.503 . S
C382 C381 1.410 . S
C382 C383 1.392 . S
C382 C385 1.511 . S
C383 C379 1.376 . S
C383 C382 1.392 . S
C383 H395 0.929 . S
C384 C380 1.531 . S
C384 H396 0.960 . S
C384 H397 0.962 . S
C384 H398 0.960 . S
C385 C382 1.511 . S
C385 H399 0.961 . S
C385 H400 0.961 . S
C385 H401 0.961 . S
C386 C387 1.370 . S
C386 C388 1.363 . S
C386 H402 0.931 . S
C387 C386 1.370 . S
C387 C391 1.408 . S
C388 C386 1.363 . S
C388 C389 1.370 . S
C388 C392 1.524 . S
C389 C381 1.503 . S
C389 C388 1.370 . S
C389 C390 1.403 . S
C390 C389 1.403 . S
C390 C391 1.404 . S
C390 C393 1.539 . S
C391 C387 1.408 . S
C391 C390 1.404 . S
C391 H403 0.930 . S
C392 C388 1.524 . S
C392 H404 0.956 . S
C392 H405 0.961 . S
C392 H406 0.961 . S
C393 C390 1.539 . S
C393 H407 0.958 . S
C393 H408 0.961 . S
C393 H409 0.960 . S
H394 C378 0.931 . S
H395 C383 0.929 . S
H396 C384 0.960 . S
H397 C384 0.962 . S
H398 C384 0.960 . S
H399 C385 0.961 . S
H400 C385 0.961 . S
H401 C385 0.961 . S
H402 C386 0.931 . S
H403 C391 0.930 . S
H404 C392 0.956 . S
H405 C392 0.961 . S
H406 C392 0.961 . S
H407 C393 0.958 . S
H408 C393 0.961 . S
H409 C393 0.960 . S
C410 C411 1.391 . S
C410 C412 1.394 . S
C410 H426 0.931 . S
C411 C410 1.391 . S
C411 C415 1.376 . S
C412 C410 1.394 . S
C412 C413 1.369 . S
C412 C416 1.531 . S
C413 C412 1.369 . S
C413 C414 1.410 . S
C413 C421 1.503 . S
C414 C413 1.410 . S
C414 C415 1.392 . S
C414 C417 1.511 . S
C415 C411 1.376 . S
C415 C414 1.392 . S
C415 H427 0.929 . S
C416 C412 1.531 . S
C416 H428 0.960 . S
C416 H429 0.962 . S
C416 H430 0.960 . S
C417 C414 1.511 . S
C417 H431 0.961 . S
C417 H432 0.961 . S
C417 H433 0.961 . S
C418 C419 1.370 . S
C418 C420 1.363 . S
C418 H434 0.931 . S
C419 C418 1.370 . S
C419 C423 1.408 . S
C420 C418 1.363 . S
C420 C421 1.370 . S
C420 C424 1.524 . S
C421 C413 1.503 . S
C421 C420 1.370 . S
C421 C422 1.403 . S
C422 C421 1.403 . S
C422 C423 1.404 . S
C422 C425 1.539 . S
C423 C419 1.408 . S
C423 C422 1.404 . S
C423 H435 0.930 . S
C424 C420 1.524 . S
C424 H436 0.956 . S
C424 H437 0.961 . S
C424 H438 0.961 . S
C425 C422 1.539 . S
C425 H439 0.958 . S
C425 H440 0.961 . S
C425 H441 0.960 . S
H426 C410 0.931 . S
H427 C415 0.929 . S
H428 C416 0.960 . S
H429 C416 0.962 . S
H430 C416 0.960 . S
H431 C417 0.961 . S
H432 C417 0.961 . S
H433 C417 0.961 . S
H434 C418 0.931 . S
H435 C423 0.930 . S
H436 C424 0.956 . S
H437 C424 0.961 . S
H438 C424 0.961 . S
H439 C425 0.958 . S
H440 C425 0.961 . S
H441 C425 0.960 . S
C442 C443 1.391 . S
C442 C444 1.394 . S
C442 H458 0.931 . S
C443 C442 1.391 . S
C443 C447 1.376 . S
C444 C442 1.394 . S
C444 C445 1.369 . S
C444 C448 1.531 . S
C445 C444 1.369 . S
C445 C446 1.410 . S
C445 C453 1.503 . S
C446 C445 1.410 . S
C446 C447 1.392 . S
C446 C449 1.511 . S
C447 C443 1.376 . S
C447 C446 1.392 . S
C447 H459 0.929 . S
C448 C444 1.531 . S
C448 H460 0.960 . S
C448 H461 0.962 . S
C448 H462 0.960 . S
C449 C446 1.511 . S
C449 H463 0.961 . S
C449 H464 0.961 . S
C449 H465 0.961 . S
C450 C451 1.370 . S
C450 C452 1.363 . S
C450 H466 0.931 1_565 S
C451 C450 1.370 . S
C451 C455 1.408 . S
C452 C450 1.363 . S
C452 C453 1.370 . S
C452 C456 1.524 . S
C453 C445 1.503 . S
C453 C452 1.370 . S
C453 C454 1.403 . S
C454 C453 1.403 . S
C454 C455 1.404 . S
C454 C457 1.539 . S
C455 C451 1.408 . S
C455 C454 1.404 . S
C455 H467 0.930 . S
C456 C452 1.524 . S
C456 H468 0.956 . S
C456 H469 0.961 . S
C456 H470 0.961 . S
C457 C454 1.539 . S
C457 H471 0.958 . S
C457 H472 0.961 . S
C457 H473 0.960 . S
H458 C442 0.931 . S
H459 C447 0.929 . S
H460 C448 0.960 . S
H461 C448 0.962 . S
H462 C448 0.960 . S
H463 C449 0.961 . S
H464 C449 0.961 . S
H465 C449 0.961 . S
H466 C450 0.931 1_545 S
H467 C455 0.930 . S
H468 C456 0.956 . S
H469 C456 0.961 . S
H470 C456 0.961 . S
H471 C457 0.958 . S
H472 C457 0.961 . S
H473 C457 0.960 . S
C474 C475 1.391 . S
C474 C476 1.394 . S
C474 H490 0.931 . S
C475 C474 1.391 . S
C475 C479 1.376 . S
C476 C474 1.394 . S
C476 C477 1.369 . S
C476 C480 1.531 . S
C477 C476 1.369 . S
C477 C478 1.410 . S
C477 C485 1.503 . S
C478 C477 1.410 . S
C478 C479 1.392 . S
C478 C481 1.511 . S
C479 C475 1.376 . S
C479 C478 1.392 . S
C479 H491 0.929 . S
C480 C476 1.531 . S
C480 H492 0.960 . S
C480 H493 0.962 . S
C480 H494 0.960 . S
C481 C478 1.511 . S
C481 H495 0.961 . S
C481 H496 0.961 . S
C481 H497 0.961 . S
C482 C483 1.370 . S
C482 C484 1.363 . S
C482 H498 0.931 . S
C483 C482 1.370 . S
C483 C487 1.408 . S
C484 C482 1.363 . S
C484 C485 1.370 . S
C484 C488 1.524 . S
C485 C477 1.503 . S
C485 C484 1.370 . S
C485 C486 1.403 . S
C486 C485 1.403 . S
C486 C487 1.404 . S
C486 C489 1.539 . S
C487 C483 1.408 . S
C487 C486 1.404 . S
C487 H499 0.930 . S
C488 C484 1.524 . S
C488 H500 0.956 . S
C488 H501 0.961 . S
C488 H502 0.961 . S
C489 C486 1.539 . S
C489 H503 0.958 . S
C489 H504 0.961 . S
C489 H505 0.960 . S
H490 C474 0.931 . S
H491 C479 0.929 . S
H492 C480 0.960 . S
H493 C480 0.962 . S
H494 C480 0.960 . S
H495 C481 0.961 . S
H496 C481 0.961 . S
H497 C481 0.961 . S
H498 C482 0.931 . S
H499 C487 0.930 . S
H500 C488 0.956 . S
H501 C488 0.961 . S
H502 C488 0.961 . S
H503 C489 0.958 . S
H504 C489 0.961 . S
H505 C489 0.960 . S
C506 C507 1.391 . S
C506 C508 1.394 . S
C506 H522 0.931 . S
C507 C506 1.391 . S
C507 C511 1.376 . S
C508 C506 1.394 . S
C508 C509 1.369 . S
C508 C512 1.531 . S
C509 C508 1.369 . S
C509 C510 1.410 . S
C509 C517 1.503 . S
C510 C509 1.410 . S
C510 C511 1.392 . S
C510 C513 1.511 . S
C511 C507 1.376 . S
C511 C510 1.392 . S
C511 H523 0.929 . S
C512 C508 1.531 . S
C512 H524 0.960 . S
C512 H525 0.962 . S
C512 H526 0.960 . S
C513 C510 1.511 . S
C513 H527 0.961 . S
C513 H528 0.961 . S
C513 H529 0.961 . S
C514 C515 1.370 . S
C514 C516 1.363 . S
C514 H530 0.931 . S
C515 C514 1.370 . S
C515 C519 1.408 . S
C516 C514 1.363 . S
C516 C517 1.370 . S
C516 C520 1.524 . S
C517 C509 1.503 . S
C517 C516 1.370 . S
C517 C518 1.403 . S
C518 C517 1.403 . S
C518 C519 1.404 . S
C518 C521 1.539 . S
C519 C515 1.408 . S
C519 C518 1.404 . S
C519 H531 0.930 . S
C520 C516 1.524 . S
C520 H532 0.956 . S
C520 H533 0.961 . S
C520 H534 0.961 . S
C521 C518 1.539 . S
C521 H535 0.958 . S
C521 H536 0.961 . S
C521 H537 0.960 . S
H522 C506 0.931 . S
H523 C511 0.929 . S
H524 C512 0.960 . S
H525 C512 0.962 . S
H526 C512 0.960 . S
H527 C513 0.961 . S
H528 C513 0.961 . S
H529 C513 0.961 . S
H530 C514 0.931 . S
H531 C519 0.930 . S
H532 C520 0.956 . S
H533 C520 0.961 . S
H534 C520 0.961 . S
H535 C521 0.958 . S
H536 C521 0.961 . S
H537 C521 0.960 . S
C538 C539 1.391 . S
C538 C540 1.394 . S
C538 H554 0.931 . S
C539 C538 1.391 . S
C539 C543 1.376 . S
C540 C538 1.394 . S
C540 C541 1.369 . S
C540 C544 1.531 . S
C541 C540 1.369 . S
C541 C542 1.410 . S
C541 C549 1.503 . S
C542 C541 1.410 . S
C542 C543 1.392 . S
C542 C545 1.511 . S
C543 C539 1.376 . S
C543 C542 1.392 . S
C543 H555 0.929 . S
C544 C540 1.531 . S
C544 H556 0.960 . S
C544 H557 0.962 . S
C544 H558 0.960 . S
C545 C542 1.511 . S
C545 H559 0.961 . S
C545 H560 0.961 . S
C545 H561 0.961 . S
C546 C547 1.370 . S
C546 C548 1.363 . S
C546 H562 0.931 . S
C547 C546 1.370 . S
C547 C551 1.408 . S
C548 C546 1.363 . S
C548 C549 1.370 . S
C548 C552 1.524 . S
C549 C541 1.503 . S
C549 C548 1.370 . S
C549 C550 1.403 . S
C550 C549 1.403 . S
C550 C551 1.404 . S
C550 C553 1.539 . S
C551 C547 1.408 . S
C551 C550 1.404 . S
C551 H563 0.930 . S
C552 C548 1.524 . S
C552 H564 0.956 . S
C552 H565 0.961 . S
C552 H566 0.961 . S
C553 C550 1.539 . S
C553 H567 0.958 . S
C553 H568 0.961 . S
C553 H569 0.960 . S
H554 C538 0.931 . S
H555 C543 0.929 . S
H556 C544 0.960 . S
H557 C544 0.962 . S
H558 C544 0.960 . S
H559 C545 0.961 . S
H560 C545 0.961 . S
H561 C545 0.961 . S
H562 C546 0.931 . S
H563 C551 0.930 . S
H564 C552 0.956 . S
H565 C552 0.961 . S
H566 C552 0.961 . S
H567 C553 0.958 . S
H568 C553 0.961 . S
H569 C553 0.960 . S
C570 C571 1.391 . S
C570 C572 1.394 . S
C570 H586 0.931 1_455 S
C571 C570 1.391 . S
C571 C575 1.376 . S
C572 C570 1.394 . S
C572 C573 1.369 . S
C572 C576 1.533 . S
C573 C572 1.369 . S
C573 C574 1.410 . S
C573 C581 1.503 . S
C574 C573 1.410 . S
C574 C575 1.392 . S
C574 C577 1.511 . S
C575 C571 1.376 . S
C575 C574 1.392 . S
C575 H587 0.929 . S
C576 C572 1.533 . S
C576 H588 0.962 . S
C576 H589 0.959 1_455 S
C576 H590 0.959 . S
C577 C574 1.511 . S
C577 H591 0.961 . S
C577 H592 0.961 . S
C577 H593 0.961 . S
C578 C579 1.370 . S
C578 C580 1.363 . S
C578 H594 0.931 1_455 S
C579 C578 1.370 . S
C579 C583 1.408 . S
C580 C578 1.363 . S
C580 C581 1.370 1_556 S
C580 C584 1.508 1_456 S
C581 C573 1.503 . S
C581 C580 1.370 1_554 S
C581 C582 1.403 1_554 S
C582 C581 1.403 1_556 S
C582 C583 1.404 . S
C582 C585 1.539 1_556 S
C583 C579 1.408 . S
C583 C582 1.404 . S
C583 H595 0.930 . S
C584 C580 1.508 1_654 S
C584 H596 0.968 . S
C584 H597 0.987 . S
C584 H598 0.940 1_554 S
C585 C582 1.539 1_554 S
C585 H599 0.958 . S
C585 H600 0.961 . S
C585 H601 0.960 . S
H586 C570 0.931 1_655 S
H587 C575 0.929 . S
H588 C576 0.962 . S
H589 C576 0.959 1_655 S
H590 C576 0.959 . S
H591 C577 0.961 . S
H592 C577 0.961 . S
H593 C577 0.961 . S
H594 C578 0.931 1_655 S
H595 C583 0.930 . S
H596 C584 0.968 . S
H597 C584 0.987 . S
H598 C584 0.940 1_556 S
H599 C585 0.958 . S
H600 C585 0.961 . S
H601 C585 0.960 . S
C602 C603 1.391 1_565 S
C602 C604 1.394 . S
C602 H618 0.931 . S
C603 C602 1.391 1_545 S
C603 C607 1.376 . S
C604 C602 1.394 . S
C604 C605 1.369 1_565 S
C604 C608 1.531 . S
C605 C604 1.369 1_545 S
C605 C606 1.410 . S
C605 C613 1.503 . S
C606 C605 1.410 . S
C606 C607 1.392 . S
C606 C609 1.511 . S
C607 C603 1.376 . S
C607 C606 1.392 . S
C607 H619 0.929 . S
C608 C604 1.531 . S
C608 H620 0.960 . S
C608 H621 0.962 . S
C608 H622 0.960 . S
C609 C606 1.511 . S
C609 H623 0.961 . S
C609 H624 0.961 . S
C609 H625 0.961 . S
C610 C611 1.370 . S
C610 C612 1.363 . S
C610 H626 0.931 . S
C611 C610 1.370 . S
C611 C615 1.408 . S
C612 C610 1.363 . S
C612 C613 1.370 . S
C612 C616 1.524 . S
C613 C605 1.503 . S
C613 C612 1.370 . S
C613 C614 1.403 . S
C614 C613 1.403 . S
C614 C615 1.404 . S
C614 C617 1.539 1_545 S
C615 C611 1.408 . S
C615 C614 1.404 . S
C615 H627 0.930 1_545 S
C616 C612 1.524 . S
C616 H628 0.956 . S
C616 H629 0.961 . S
C616 H630 0.961 . S
C617 C614 1.539 1_565 S
C617 H631 0.958 . S
C617 H632 0.961 . S
C617 H633 0.960 . S
H618 C602 0.931 . S
H619 C607 0.929 . S
H620 C608 0.960 . S
H621 C608 0.962 . S
H622 C608 0.960 . S
H623 C609 0.961 . S
H624 C609 0.961 . S
H625 C609 0.961 . S
H626 C610 0.931 . S
H627 C615 0.930 1_565 S
H628 C616 0.956 . S
H629 C616 0.961 . S
H630 C616 0.961 . S
H631 C617 0.958 . S
H632 C617 0.961 . S
H633 C617 0.960 . S
C634 C635 1.391 . S
C634 C636 1.394 . S
C634 H650 0.931 . S
C635 C634 1.391 . S
C635 C639 1.376 . S
C636 C634 1.394 . S
C636 C637 1.369 . S
C636 C640 1.531 . S
C637 C636 1.369 . S
C637 C638 1.410 . S
C637 C645 1.503 . S
C638 C637 1.410 . S
C638 C639 1.392 . S
C638 C641 1.511 . S
C639 C635 1.376 . S
C639 C638 1.392 . S
C639 H651 0.929 . S
C640 C636 1.531 . S
C640 H652 0.960 . S
C640 H653 0.962 . S
C640 H654 0.960 . S
C641 C638 1.511 . S
C641 H655 0.961 . S
C641 H656 0.961 . S
C641 H657 0.961 . S
C642 C643 1.370 . S
C642 C644 1.363 . S
C642 H658 0.931 . S
C643 C642 1.370 . S
C643 C647 1.408 . S
C644 C642 1.363 . S
C644 C645 1.370 . S
C644 C648 1.524 . S
C645 C637 1.503 . S
C645 C644 1.370 . S
C645 C646 1.403 . S
C646 C645 1.403 . S
C646 C647 1.404 . S
C646 C649 1.539 . S
C647 C643 1.408 . S
C647 C646 1.404 . S
C647 H659 0.930 . S
C648 C644 1.524 . S
C648 H660 0.956 . S
C648 H661 0.961 . S
C648 H662 0.961 . S
C649 C646 1.539 . S
C649 H663 0.958 . S
C649 H664 0.961 . S
C649 H665 0.960 . S
H650 C634 0.931 . S
H651 C639 0.929 . S
H652 C640 0.960 . S
H653 C640 0.962 . S
H654 C640 0.960 . S
H655 C641 0.961 . S
H656 C641 0.961 . S
H657 C641 0.961 . S
H658 C642 0.931 . S
H659 C647 0.930 . S
H660 C648 0.956 . S
H661 C648 0.961 . S
H662 C648 0.961 . S
H663 C649 0.958 . S
H664 C649 0.961 . S
H665 C649 0.960 . S
C666 C667 1.391 . S
C666 C668 1.394 . S
C666 H682 0.935 1_545 S
C667 C666 1.391 . S
C667 C671 1.376 . S
C668 C666 1.394 . S
C668 C669 1.369 . S
C668 C672 1.531 1_545 S
C669 C668 1.369 . S
C669 C670 1.410 . S
C669 C677 1.503 . S
C670 C669 1.410 . S
C670 C671 1.392 . S
C670 C673 1.511 . S
C671 C667 1.376 . S
C671 C670 1.392 . S
C671 H683 0.929 . S
C672 C668 1.531 1_565 S
C672 H684 0.960 . S
C672 H685 0.962 1_565 S
C672 H686 0.960 . S
C673 C670 1.511 . S
C673 H687 0.961 . S
C673 H688 0.961 . S
C673 H689 0.961 . S
C674 C675 1.370 . S
C674 C676 1.363 . S
C674 H690 0.931 . S
C675 C674 1.370 . S
C675 C679 1.408 1_545 S
C676 C674 1.363 . S
C676 C677 1.370 . S
C676 C680 1.524 . S
C677 C669 1.503 . S
C677 C676 1.370 . S
C677 C678 1.403 1_545 S
C678 C677 1.403 1_565 S
C678 C679 1.404 . S
C678 C681 1.539 . S
C679 C675 1.408 1_565 S
C679 C678 1.404 . S
C679 H691 0.930 . S
C680 C676 1.524 . S
C680 H692 0.956 . S
C680 H693 0.961 . S
C680 H694 0.961 . S
C681 C678 1.539 . S
C681 H695 0.958 . S
C681 H696 0.961 . S
C681 H697 0.960 . S
H682 C666 0.935 1_565 S
H683 C671 0.929 . S
H684 C672 0.960 . S
H685 C672 0.962 1_545 S
H686 C672 0.960 . S
H687 C673 0.961 . S
H688 C673 0.961 . S
H689 C673 0.961 . S
H690 C674 0.931 . S
H691 C679 0.930 . S
H692 C680 0.956 . S
H693 C680 0.961 . S
H694 C680 0.961 . S
H695 C681 0.958 . S
H696 C681 0.961 . S
H697 C681 0.960 . S
C698 C699 1.391 . S
C698 C700 1.394 . S
C698 H714 0.931 . S
C699 C698 1.391 . S
C699 C703 1.376 . S
C700 C698 1.394 . S
C700 C701 1.369 . S
C700 C704 1.531 . S
C701 C700 1.369 . S
C701 C702 1.410 . S
C701 C709 1.503 1_556 S
C702 C701 1.410 . S
C702 C703 1.392 . S
C702 C705 1.511 . S
C703 C699 1.376 . S
C703 C702 1.392 . S
C703 H715 0.929 . S
C704 C700 1.531 . S
C704 H716 0.960 . S
C704 H717 0.962 . S
C704 H718 0.960 . S
C705 C702 1.511 . S
C705 H719 0.961 . S
C705 H720 0.966 . S
C705 H721 0.961 . S
C706 C707 1.370 . S
C706 C708 1.363 . S
C706 H722 0.931 . S
C707 C706 1.370 . S
C707 C711 1.408 . S
C708 C706 1.363 . S
C708 C709 1.370 . S
C708 C712 1.524 . S
C709 C701 1.503 1_554 S
C709 C708 1.370 . S
C709 C710 1.403 . S
C710 C709 1.403 . S
C710 C711 1.404 . S
C710 C713 1.539 . S
C711 C707 1.408 . S
C711 C710 1.404 . S
C711 H723 0.930 . S
C712 C708 1.524 . S
C712 H724 0.956 1_554 S
C712 H725 0.961 1_554 S
C712 H726 0.961 . S
C713 C710 1.539 . S
C713 H727 0.958 1_554 S
C713 H728 0.961 . S
C713 H729 0.960 1_554 S
H714 C698 0.931 . S
H715 C703 0.929 . S
H716 C704 0.960 . S
H717 C704 0.962 . S
H718 C704 0.960 . S
H719 C705 0.961 . S
H720 C705 0.966 . S
H721 C705 0.961 . S
H722 C706 0.931 . S
H723 C711 0.930 . S
H724 C712 0.956 1_556 S
H725 C712 0.961 1_556 S
H726 C712 0.961 . S
H727 C713 0.958 1_556 S
H728 C713 0.961 . S
H729 C713 0.960 1_556 S
C730 C731 1.391 . S
C730 C732 1.394 . S
C730 H746 0.931 . S
C731 C730 1.391 . S
C731 C735 1.376 1_455 S
C732 C730 1.394 . S
C732 C733 1.369 . S
C732 C736 1.531 . S
C733 C732 1.369 . S
C733 C734 1.410 1_455 S
C733 C741 1.503 . S
C734 C733 1.410 1_655 S
C734 C735 1.392 . S
C734 C737 1.511 . S
C735 C731 1.376 1_655 S
C735 C734 1.392 . S
C735 H747 0.929 . S
C736 C732 1.531 . S
C736 H748 0.960 . S
C736 H749 0.962 . S
C736 H750 0.960 . S
C737 C734 1.511 . S
C737 H751 0.961 . S
C737 H752 0.961 . S
C737 H753 0.961 . S
C738 C739 1.370 1_655 S
C738 C740 1.363 . S
C738 H754 0.931 . S
C739 C738 1.370 1_455 S
C739 C743 1.408 . S
C740 C738 1.363 . S
C740 C741 1.370 1_655 S
C740 C744 1.524 . S
C741 C733 1.503 . S
C741 C740 1.370 1_455 S
C741 C742 1.403 . S
C742 C741 1.403 . S
C742 C743 1.404 . S
C742 C745 1.539 . S
C743 C739 1.408 . S
C743 C742 1.404 . S
C743 H755 0.930 . S
C744 C740 1.524 . S
C744 H756 0.956 . S
C744 H757 0.961 . S
C744 H758 0.961 . S
C745 C742 1.539 . S
C745 H759 0.958 . S
C745 H760 0.961 . S
C745 H761 0.960 . S
H746 C730 0.931 . S
H747 C735 0.929 . S
H748 C736 0.960 . S
H749 C736 0.962 . S
H750 C736 0.960 . S
H751 C737 0.961 . S
H752 C737 0.961 . S
H753 C737 0.961 . S
H754 C738 0.931 . S
H755 C743 0.930 . S
H756 C744 0.956 . S
H757 C744 0.961 . S
H758 C744 0.961 . S
H759 C745 0.958 . S
H760 C745 0.961 . S
H761 C745 0.960 . S
C187 C12 3.026 . S
C195 C185 2.974 . S
C219 C52 3.026 . S
C227 C163 2.972 . S
C251 C111 3.045 . S
C259 C174 2.988 . S
C283 C31 3.013 . S
C291 C179 2.964 . S
C323 C157 2.970 . S
C315 C71 3.021 . S
C355 C168 2.943 . S
C347 C92 2.982 . S
C379 C48 0.555 . S
C387 C141 0.587 . S
C411 C109 0.317 . S
C419 C146 0.264 1_655 S
C443 C29 0.308 . S
C451 C124 0.178 . S
C483 C135 0.268 . S
C475 C69 0.463 . S
C515 C152 0.313 . S
C507 C88 0.343 . S
C539 C8 0.431 . S
C547 C130 0.408 . S
C579 C147 1.228 . S
C571 C17 1.212 . S
C603 C57 1.192 . S
C611 C125 1.198 . S
C635 C97 1.188 . S
C643 C136 1.228 . S
C675 C169 1.735 . S
C667 C42 1.715 . S
C707 C180 1.748 . S
C699 C82 1.726 . S
C731 C2 1.711 . S
C739 C158 1.749 . S
