# Generated by pormake.
# Topology pyr, (3,6)-cn, num edge types: 1
# Building blocks:
#     Node 0, Type 0, BuildingBlock: BETDIP_clean_linker_0, # of connection points: 3
#     Node 1, Type 0, BuildingBlock: BETDIP_clean_linker_0, # of connection points: 3
#     Node 2, Type 0, BuildingBlock: BETDIP_clean_linker_0, # of connection points: 3
#     Node 3, Type 0, BuildingBlock: BETDIP_clean_linker_0, # of connection points: 3
#     Node 4, Type 0, BuildingBlock: BETDIP_clean_linker_0, # of connection points: 3
#     Node 5, Type 0, BuildingBlock: BETDIP_clean_linker_0, # of connection points: 3
#     Node 6, Type 0, BuildingBlock: BETDIP_clean_linker_0, # of connection points: 3
#     Node 7, Type 0, BuildingBlock: BETDIP_clean_linker_0, # of connection points: 3
#     Node 8, Type 1, BuildingBlock: BETFEN_clean_sbu_0, # of connection points: 6
#     Node 9, Type 1, BuildingBlock: BETFEN_clean_sbu_0, # of connection points: 6
#     Node 10, Type 1, BuildingBlock: BETFEN_clean_sbu_0, # of connection points: 6
#     Node 11, Type 1, BuildingBlock: BETFEN_clean_sbu_0, # of connection points: 6
#     Edge 12, Type (0, 1), BuildingBlock: ZUJKAS_clean_linker_0, # of connection points: 2
#     Edge 13, Type (0, 1), BuildingBlock: ZUJKAS_clean_linker_0, # of connection points: 2
#     Edge 14, Type (0, 1), BuildingBlock: ZUJKAS_clean_linker_0, # of connection points: 2
#     Edge 15, Type (0, 1), BuildingBlock: ZUJKAS_clean_linker_0, # of connection points: 2
#     Edge 16, Type (0, 1), BuildingBlock: ZUJKAS_clean_linker_0, # of connection points: 2
#     Edge 17, Type (0, 1), BuildingBlock: ZUJKAS_clean_linker_0, # of connection points: 2
#     Edge 18, Type (0, 1), BuildingBlock: ZUJKAS_clean_linker_0, # of connection points: 2
#     Edge 19, Type (0, 1), BuildingBlock: ZUJKAS_clean_linker_0, # of connection points: 2
#     Edge 20, Type (0, 1), BuildingBlock: ZUJKAS_clean_linker_0, # of connection points: 2
#     Edge 21, Type (0, 1), BuildingBlock: ZUJKAS_clean_linker_0, # of connection points: 2
#     Edge 22, Type (0, 1), BuildingBlock: ZUJKAS_clean_linker_0, # of connection points: 2
#     Edge 23, Type (0, 1), BuildingBlock: ZUJKAS_clean_linker_0, # of connection points: 2
#     Edge 24, Type (0, 1), BuildingBlock: ZUJKAS_clean_linker_0, # of connection points: 2
#     Edge 25, Type (0, 1), BuildingBlock: ZUJKAS_clean_linker_0, # of connection points: 2
#     Edge 26, Type (0, 1), BuildingBlock: ZUJKAS_clean_linker_0, # of connection points: 2
#     Edge 27, Type (0, 1), BuildingBlock: ZUJKAS_clean_linker_0, # of connection points: 2
#     Edge 28, Type (0, 1), BuildingBlock: ZUJKAS_clean_linker_0, # of connection points: 2
#     Edge 29, Type (0, 1), BuildingBlock: ZUJKAS_clean_linker_0, # of connection points: 2
#     Edge 30, Type (0, 1), BuildingBlock: ZUJKAS_clean_linker_0, # of connection points: 2
#     Edge 31, Type (0, 1), BuildingBlock: ZUJKAS_clean_linker_0, # of connection points: 2
#     Edge 32, Type (0, 1), BuildingBlock: ZUJKAS_clean_linker_0, # of connection points: 2
#     Edge 33, Type (0, 1), BuildingBlock: ZUJKAS_clean_linker_0, # of connection points: 2
#     Edge 34, Type (0, 1), BuildingBlock: ZUJKAS_clean_linker_0, # of connection points: 2
#     Edge 35, Type (0, 1), BuildingBlock: ZUJKAS_clean_linker_0, # of connection points: 2
# Relax obj value: 0.144
# Max RMSD: 0.275
# Mean RMSD: 0.154
data_MOF--net-pyr--node1-BETFEN_clean_sbu_0--node2-BETDIP_clean_linker_0--edge1-ZUJKAS_clean_linker_0
_symmetry_space_group_name_H-M    P1
_symmetry_Int_Tables_number       1
_symmetry_cell_setting            triclinic
loop_
_symmetry_equiv_pos_as_xyz
'x, y, z'
_cell_length_a     47.781341
_cell_length_b     50.183316
_cell_length_c     50.31541
_cell_angle_alpha  92.734137
_cell_angle_beta   96.358295
_cell_angle_gamma 112.83402
loop_
_atom_site_label
_atom_site_type_symbol
_atom_site_fract_x
_atom_site_fract_y
_atom_site_fract_z
_atom_type_partial_charge
H0 H 0.31755 0.36236 0.28529 0.0
H1 H 0.36908 0.35386 0.22306 0.0
H2 H 0.31129 0.27782 0.25673 0.0
H3 H 0.38328 0.42256 0.22847 0.0
C4 C 0.36076 0.40564 0.22901 0.0
C5 C 0.32413 0.34866 0.27221 0.0
C6 C 0.31156 0.31841 0.27293 0.0
C7 C 0.34409 0.36135 0.25375 0.0
C8 C 0.35275 0.34383 0.23662 0.0
C9 C 0.34163 0.31366 0.23808 0.0
C10 C 0.32052 0.30114 0.25587 0.0
N11 N 0.35567 0.39191 0.25309 0.0
H12 H 0.26046 0.85294 0.7263 0.0
H13 H 0.25877 0.80192 0.6545 0.0
H14 H 0.3254 0.81325 0.72351 0.0
H15 H 0.23788 0.83092 0.63493 0.0
C16 C 0.22498 0.83635 0.64918 0.0
C17 C 0.26944 0.83936 0.71572 0.0
C18 C 0.29461 0.83457 0.72814 0.0
C19 C 0.25676 0.82827 0.68908 0.0
C20 C 0.26862 0.81103 0.67495 0.0
C21 C 0.29364 0.80574 0.68724 0.0
C22 C 0.30637 0.81756 0.71381 0.0
N23 N 0.23266 0.83563 0.67717 0.0
H24 H 0.6766 0.37714 0.80453 0.0
H25 H 0.59858 0.29532 0.7952 0.0
H26 H 0.66915 0.31637 0.86324 0.0
H27 H 0.66735 0.36454 0.7564 0.0
C28 C 0.64349 0.3618 0.75477 0.0
C29 C 0.66446 0.35614 0.81143 0.0
C30 C 0.67619 0.34905 0.83562 0.0
C31 C 0.63654 0.33675 0.79668 0.0
C32 C 0.62011 0.31018 0.80653 0.0
C33 C 0.63207 0.30236 0.83035 0.0
C34 C 0.65998 0.32206 0.84472 0.0
N35 N 0.62439 0.34409 0.77233 0.0
H36 H 0.79965 0.63081 0.30584 0.0
H37 H 0.87564 0.71246 0.30347 0.0
H38 H 0.81428 0.70422 0.36155 0.0
H39 H 0.8713 0.69567 0.26072 0.0
C40 C 0.86514 0.67246 0.2608 0.0
C41 C 0.81273 0.65332 0.31359 0.0
C42 C 0.80348 0.66567 0.33488 0.0
C43 C 0.83829 0.67011 0.30162 0.0
C44 C 0.8554 0.69938 0.31187 0.0
C45 C 0.84653 0.71196 0.33322 0.0
C46 C 0.82064 0.69489 0.34453 0.0
N47 N 0.8464 0.65686 0.27967 0.0
H48 H 0.643 0.70051 0.82625 0.0
H49 H 0.69923 0.6837 0.77227 0.0
H50 H 0.71066 0.77151 0.79412 0.0
H51 H 0.65059 0.61725 0.78488 0.0
C52 C 0.66561 0.63723 0.79701 0.0
C53 C 0.66141 0.70862 0.81415 0.0
C54 C 0.67592 0.73857 0.81208 0.0
C55 C 0.67013 0.68884 0.80036 0.0
C56 C 0.69329 0.69901 0.78385 0.0
C57 C 0.70746 0.72882 0.78101 0.0
C58 C 0.69904 0.74841 0.7956 0.0
N59 N 0.6538 0.65868 0.80203 0.0
H60 H 0.75328 0.18968 0.3229 0.0
H61 H 0.7482 0.23269 0.39712 0.0
H62 H 0.68965 0.23091 0.32518 0.0
H63 H 0.76827 0.20299 0.41555 0.0
C64 C 0.78196 0.1984 0.40159 0.0
C65 C 0.74324 0.202 0.33391 0.0
C66 C 0.72014 0.20928 0.32066 0.0
C67 C 0.75325 0.20992 0.36145 0.0
C68 C 0.7405 0.22613 0.3759 0.0
C69 C 0.71741 0.23376 0.3629 0.0
C70 C 0.70757 0.22532 0.33529 0.0
N71 N 0.77593 0.20086 0.37371 0.0
H72 H 0.36468 0.66865 0.23136 0.0
H73 H 0.44511 0.74798 0.23512 0.0
H74 H 0.36408 0.73447 0.18019 0.0
H75 H 0.40368 0.65124 0.23839 0.0
C76 C 0.4169 0.66643 0.25573 0.0
C77 C 0.37645 0.68959 0.22421 0.0
C78 C 0.36062 0.69949 0.20457 0.0
C79 C 0.4071 0.70679 0.23508 0.0
C80 C 0.42162 0.7346 0.22666 0.0
C81 C 0.40595 0.74491 0.2071 0.0
C82 C 0.37566 0.7271 0.19613 0.0
N83 N 0.42333 0.69653 0.25471 0.0
H84 H 0.13713 0.33363 0.73557 0.0
H85 H 0.21357 0.41456 0.73259 0.0
H86 H 0.19839 0.34077 0.67731 0.0
H87 H 0.20663 0.42289 0.77554 0.0
C88 C 0.18215 0.41226 0.7761 0.0
C89 C 0.15712 0.34633 0.72657 0.0
C90 C 0.16599 0.33343 0.70546 0.0
C91 C 0.17427 0.37535 0.73682 0.0
C92 C 0.2004 0.392 0.72527 0.0
C93 C 0.20953 0.37948 0.70398 0.0
C94 C 0.19209 0.35026 0.69427 0.0
N95 N 0.16402 0.387 0.75832 0.0
Pr96 Pr 0.97499 0.99665 0.53373 0.0
Pr97 Pr 0.03489 0.04139 0.51928 0.0
C98 C 0.92672 0.94854 0.54137 0.0
C99 C 0.91794 0.927 0.56095 0.0
C100 C 0.93256 0.93352 0.58761 0.0
C101 C 0.92251 0.91346 0.60642 0.0
C102 C 0.89781 0.88651 0.59879 0.0
C103 C 0.88395 0.87978 0.57181 0.0
C104 C 0.89393 0.8999 0.55307 0.0
C105 C 1.00359 0.04571 0.57088 0.0
C106 C 0.041 0.99041 0.55365 0.0
C107 C 0.08369 0.08917 0.51194 0.0
C108 C 0.09471 0.10954 0.49173 0.0
C109 C 0.08533 0.10068 0.46418 0.0
C110 C 0.09814 0.11964 0.44522 0.0
C111 C 0.12038 0.14779 0.45352 0.0
C112 C 0.1288 0.15687 0.48117 0.0
C113 C 0.11609 0.13785 0.5001 0.0
C114 C 1.00611 0.99256 0.48185 0.0
C115 C 0.9687 0.04774 0.49967 0.0
O116 O 0.94773 0.94793 0.52703 0.0
O117 O 0.92992 0.97486 0.54942 0.0
O118 O 0.01707 0.03219 0.55951 0.0
O119 O 0.97404 0.03279 0.56466 0.0
O120 O 0.05537 0.01792 0.54968 0.0
O121 O 0.01106 0.97668 0.54664 0.0
O122 O 0.06102 0.09035 0.52364 0.0
O123 O 0.08152 0.06268 0.50627 0.0
O124 O 0.99277 1.00607 0.49339 0.0
O125 O 0.03566 1.00545 0.48796 0.0
O126 O 0.95424 0.02029 0.50382 0.0
O127 O 0.99872 0.06138 0.50641 0.0
H128 H 0.95136 0.9543 0.59398 0.0
H129 H 0.93385 0.91913 0.62698 0.0
H130 H 0.86465 0.85938 0.56535 0.0
H131 H 0.88245 0.89453 0.53253 0.0
H132 H 0.06863 0.07893 0.45735 0.0
H133 H 0.09094 0.11217 0.42406 0.0
H134 H 0.14608 0.1783 0.4882 0.0
H135 H 0.12356 0.14502 0.52131 0.0
Pr136 Pr 0.48383 0.0316 0.03097 0.0
Pr137 Pr 0.53747 0.02422 1.01195 0.0
C138 C 0.43992 0.03664 0.05775 0.0
C139 C 0.43562 0.06044 0.07238 0.0
C140 C 0.45535 0.0894 0.07096 0.0
C141 C 0.45038 0.11205 0.08403 0.0
C142 C 0.4257 0.10604 0.09886 0.0
C143 C 0.40631 0.07691 0.10054 0.0
C144 C 0.41122 0.05429 0.08735 0.0
C145 C 0.50628 0.06623 0.98984 0.0
C146 C 0.5519 0.07232 0.06437 0.0
C147 C 0.58746 0.02383 0.99233 0.0
C148 C 0.59448 1.00122 0.97855 0.0
C149 C 0.57527 0.97184 0.97867 0.0
C150 C 0.58176 0.95023 0.96555 0.0
C151 C 0.60748 0.95763 0.95191 0.0
C152 C 0.62655 0.98715 0.95165 0.0
C153 C 0.62009 1.00879 0.96494 0.0
C154 C 0.50351 0.97808 0.0398 0.0
C155 C 0.47025 0.9881 0.97794 0.0
O156 O 0.46146 0.02914 0.06877 0.0
O157 O 0.43958 0.03781 0.03188 0.0
O158 O 0.52272 0.06253 1.00952 0.0
O159 O 0.47735 0.05253 0.99133 0.0
O160 O 0.56339 0.05849 0.04878 0.0
O161 O 0.52251 0.06746 0.06075 0.0
O162 O 0.56722 0.03145 0.97875 0.0
O163 O 0.58341 0.02073 0.01748 0.0
O164 O 0.51045 1.0046 0.04662 0.0
O165 O 0.5143 0.97467 0.01797 0.0
O166 O 0.45996 0.98968 1.00096 0.0
O167 O 0.49885 1.00435 0.97529 0.0
H168 H 0.47442 0.09448 0.05954 0.0
H169 H 0.4659 0.13425 0.08264 0.0
H170 H 0.38693 0.07161 0.11156 0.0
H171 H 0.39577 0.03202 0.08857 0.0
H172 H 0.5552 0.96562 0.98887 0.0
H173 H 0.5664 0.92773 0.96576 0.0
H174 H 0.64664 0.99347 0.94148 0.0
H175 H 0.63509 0.03139 0.96461 0.0
Pr176 Pr 0.51917 0.55886 0.5377 0.0
Pr177 Pr 0.50683 0.49161 0.51607 0.0
C178 C 0.51574 0.61012 0.55058 0.0
C179 C 0.49457 0.62185 0.56085 0.0
C180 C 0.50407 0.64009 0.58497 0.0
C181 C 0.48503 0.65245 0.59458 0.0
C182 C 0.4561 0.64705 0.58013 0.0
C183 C 0.44642 0.6284 0.55612 0.0
C184 C 0.46543 0.6159 0.54659 0.0
C185 C 0.54496 0.52873 0.57038 0.0
C186 C 0.45443 0.5028 0.5479 0.0
C187 C 0.51442 0.44129 0.51561 0.0
C188 C 0.52979 0.42492 0.50251 0.0
C189 C 0.52665 0.41961 0.47444 0.0
C190 C 0.54259 0.4048 0.46292 0.0
C191 C 0.56213 0.39537 0.47927 0.0
C192 C 0.56501 0.40063 0.50732 0.0
C193 C 0.54895 0.41517 0.51878 0.0
C194 C 0.48792 0.51972 0.47526 0.0
C195 C 0.56719 0.54818 0.5005 0.0
O196 O 0.50812 0.59698 0.52616 0.0
O197 O 0.52858 0.59772 0.56745 0.0
O198 O 0.5187 0.51854 0.55676 0.0
O199 O 0.55923 0.55638 0.56816 0.0
O200 O 0.46441 0.48347 0.5385 0.0
O201 O 0.46946 0.53127 0.54756 0.0
O202 O 0.53271 0.46492 0.53082 0.0
O203 O 0.49047 0.44369 0.50205 0.0
O204 O 0.49947 0.52945 0.49915 0.0
O205 O 0.48452 0.49265 0.47154 0.0
O206 O 0.5558 0.56689 0.50864 0.0
O207 O 0.55546 0.52033 0.50483 0.0
H208 H 0.5264 0.64498 0.59634 0.0
H209 H 0.49303 0.66624 0.61338 0.0
H210 H 0.42445 0.62399 0.54432 0.0
H211 H 0.45741 0.6019 0.5279 0.0
H212 H 0.51218 0.42711 0.46144 0.0
H213 H 0.5401 0.40121 0.44124 0.0
H214 H 0.57951 0.39328 0.52046 0.0
H215 H 0.55167 0.41901 0.54048 0.0
Pr216 Pr 0.01776 0.55639 1.00414 0.0
Pr217 Pr 0.01769 0.50789 0.03782 0.0
C218 C 1.00631 0.59547 0.97465 0.0
C219 C 0.98029 0.60262 0.96479 0.0
C220 C 0.98533 0.62698 0.95054 0.0
C221 C 0.9606 0.63299 0.93935 0.0
C222 C 0.93038 0.61468 0.94222 0.0
C223 C 0.92551 0.5906 0.95711 0.0
C224 C 0.95031 0.58459 0.96828 0.0
C225 C 0.0736 0.56849 0.03643 0.0
C226 C 0.98671 0.5497 0.06065 0.0
C227 C 0.03005 0.46891 0.06672 0.0
C228 C 0.05595 0.4604 0.07292 0.0
C229 C 0.0539 0.43947 0.09084 0.0
C230 C 0.07897 0.43226 0.09807 0.0
C231 C 0.10656 0.4459 0.08745 0.0
C232 C 0.10829 0.46664 0.06911 0.0
C233 C 0.08318 0.47386 0.06193 0.0
C234 C 0.96164 0.4959 1.00597 0.0
C235 C 0.04775 0.51399 0.98095 0.0
O236 O 1.00564 0.57084 0.9643 0.0
O237 O 0.01564 0.60045 1.00052 0.0
O238 O 0.04752 0.55643 0.04348 0.0
O239 O 0.07172 0.5767 1.0125 0.0
O240 O 1.00233 0.53408 0.06819 0.0
O241 O 0.98466 0.55658 0.03567 0.0
O242 O 0.03419 0.49482 0.07691 0.0
O243 O 0.01631 0.46267 0.04191 0.0
O244 O 0.98759 0.50765 0.99847 0.0
O245 O 0.96392 0.48837 0.03017 0.0
O246 O 0.03182 0.52935 0.97354 0.0
O247 O 0.05037 0.50751 1.006 0.0
H248 H 0.00838 0.64109 0.9477 0.0
H249 H 0.96512 0.6519 0.92832 0.0
H250 H 0.90251 0.57592 0.95944 0.0
H251 H 0.94607 0.56559 0.97916 0.0
H252 H 0.03307 0.42906 0.09962 0.0
H253 H 0.077 0.4166 0.11259 0.0
H254 H 0.12908 0.47734 0.06038 0.0
H255 H 0.08512 0.49018 0.04809 0.0
H256 H 0.31509 0.33495 0.32626 0.0
H257 H 0.28012 0.30953 0.35758 0.0
H258 H 0.22331 0.24518 0.29302 0.0
H259 H 0.25782 0.27063 0.26157 0.0
H260 H 0.19076 0.26624 0.32968 0.0
H261 H 0.27679 0.22915 0.38075 0.0
H262 H 0.28937 0.26749 0.37771 0.0
H263 H 0.27976 0.2426 0.34808 0.0
C264 C 0.29489 0.31564 0.3187 0.0
C265 C 0.28932 0.30459 0.29155 0.0
C266 C 0.27508 0.30108 0.3366 0.0
C267 C 0.24939 0.27536 0.32759 0.0
C268 C 0.2431 0.26496 0.30033 0.0
H269 H 0.1426 0.1329 0.4101 0.0
H270 H 0.17221 0.16503 0.37917 0.0
C271 C 0.26293 0.27938 0.28247 0.0
C272 C 0.22986 0.25833 0.34671 0.0
H273 H 0.22942 0.21524 0.39724 0.0
C274 C 0.19919 0.25523 0.34461 0.0
C275 C 0.24095 0.24376 0.36585 0.0
C276 C 0.27344 0.24563 0.36825 0.0
C277 C 0.17924 0.23784 0.36126 0.0
C278 C 0.19039 0.22334 0.38042 0.0
C279 C 0.22107 0.22653 0.38255 0.0
C280 C 0.17042 0.2039 0.39793 0.0
C281 C 0.14623 0.23443 0.35785 0.0
C282 C 0.15948 0.21519 0.41858 0.0
C283 C 0.14252 0.19687 0.43629 0.0
C284 C 0.13621 0.16698 0.43358 0.0
C285 C 0.14669 0.15573 0.41248 0.0
C286 C 0.16377 0.17406 0.39491 0.0
H287 H 0.14001 0.24316 0.33926 0.0
H288 H 0.13067 0.21117 0.35723 0.0
H289 H 0.14237 0.24629 0.37532 0.0
H290 H 0.16468 0.23824 0.42136 0.0
H291 H 0.1346 0.20612 0.45227 0.0
H292 H 0.26762 0.83893 0.77266 0.0
H293 H 0.29331 0.86378 0.81729 0.0
H294 H 0.38127 0.88638 0.78988 0.0
H295 H 0.35595 0.86218 0.74532 0.0
H296 H 0.3408 0.85368 0.85316 0.0
H297 H 0.38005 0.96478 0.8202 0.0
H298 H 0.34943 0.93391 0.80093 0.0
H299 H 0.38874 0.9394 0.7998 0.0
C300 C 0.29243 0.84932 0.77617 0.0
C301 C 0.30977 0.84862 0.75549 0.0
C302 C 0.30702 0.86333 0.80165 0.0
C303 C 0.33911 0.87711 0.8067 0.0
C304 C 0.35645 0.8761 0.78624 0.0
H305 H 0.48543 0.97692 0.92925 0.0
H306 H 0.45109 0.94845 0.88934 0.0
C307 C 0.34195 0.86204 0.76088 0.0
C308 C 0.35481 0.89284 0.83323 0.0
H309 H 0.40287 0.95993 0.86319 0.0
C310 C 0.35409 0.87696 0.85555 0.0
C311 C 0.37198 0.92318 0.83615 0.0
C312 C 0.37246 0.94143 0.81308 0.0
C313 C 0.37139 0.89052 0.88051 0.0
C314 C 0.38938 0.92075 0.88316 0.0
C315 C 0.38919 0.93672 0.86104 0.0
C316 C 0.40991 0.9362 0.9082 0.0
C317 C 0.37132 0.87228 0.9035 0.0
C318 C 0.39814 0.93858 0.93214 0.0
C319 C 0.41779 0.95484 0.95514 0.0
C320 C 0.44948 0.96915 0.95443 0.0
C321 C 0.46115 0.96628 0.9305 0.0
C322 C 0.44156 0.95001 0.90764 0.0
H323 H 0.36136 0.84868 0.89665 0.0
H324 H 0.39496 0.8783 0.91397 0.0
H325 H 0.35738 0.87621 0.91825 0.0
H326 H 0.37371 0.92849 0.93286 0.0
H327 H 0.40807 0.95675 0.97323 0.0
H328 H 0.67414 0.39205 0.71672 0.0
H329 H 0.65765 0.42002 0.68454 0.0
H330 H 0.57124 0.39465 0.71531 0.0
H331 H 0.58756 0.36647 0.74753 0.0
H332 H 0.60258 0.4 0.64418 0.0
H333 H 0.60866 0.48613 0.72119 0.0
H334 H 0.62784 0.46187 0.72754 0.0
H335 H 0.58718 0.44922 0.7275 0.0
C336 C 0.65154 0.3923 0.71649 0.0
C337 C 0.63216 0.37713 0.7346 0.0
C338 C 0.64218 0.40826 0.69813 0.0
C339 C 0.61338 0.40962 0.69775 0.0
C340 C 0.5937 0.3941 0.71551 0.0
H341 H 0.51419 0.47284 0.58043 0.0
H342 H 0.53217 0.44419 0.61046 0.0
C343 C 0.60298 0.37791 0.73379 0.0
C344 C 0.60422 0.42759 0.67892 0.0
H345 H 0.5894 0.48885 0.67648 0.0
C346 C 0.59968 0.41943 0.6512 0.0
C347 C 0.60091 0.45312 0.68817 0.0
C348 C 0.60659 0.46337 0.7177 0.0
C349 C 0.59131 0.43586 0.63246 0.0
C350 C 0.58733 0.46103 0.64176 0.0
C351 C 0.59242 0.4695 0.66945 0.0
C352 C 0.57698 0.4784 0.62306 0.0
C353 C 0.58699 0.42631 0.60286 0.0
C354 C 0.59611 0.50732 0.62046 0.0
C355 C 0.58595 0.52377 0.60311 0.0
C356 C 0.55641 0.51157 0.58833 0.0
C357 C 0.53725 0.48272 0.59126 0.0
C358 C 0.54747 0.46628 0.60839 0.0
H359 H 0.59781 0.41081 0.59881 0.0
H360 H 0.5621 0.41532 0.59541 0.0
H361 H 0.59678 0.44528 0.59127 0.0
H362 H 0.61891 0.51711 0.6318 0.0
H363 H 0.6011 0.546 0.60137 0.0
H364 H 0.9008 0.69783 0.22353 0.0
H365 H 0.91896 0.67491 0.18912 0.0
H366 H 0.87138 0.59118 0.21673 0.0
H367 H 0.85295 0.61405 0.25119 0.0
H368 H 0.95507 0.64252 0.19705 0.0
H369 H 0.84306 0.5774 0.13474 0.0
H370 H 0.84818 0.607 0.15923 0.0
H371 H 0.84485 0.5724 0.16994 0.0
C372 C 0.89409 0.67451 0.22218 0.0
C373 C 0.87541 0.65775 0.23999 0.0
C374 C 0.90449 0.66144 0.20253 0.0
C375 C 0.89626 0.63129 0.20012 0.0
C376 C 0.87759 0.61442 0.21791 0.0
H377 H 0.98803 0.54154 0.11412 0.0
H378 H 0.96532 0.56036 0.14766 0.0
C379 C 0.86722 0.62754 0.23769 0.0
C380 C 0.90819 0.61788 0.17952 0.0
H381 H 0.88646 0.57031 0.12278 0.0
C382 C 0.94006 0.62669 0.18084 0.0
C383 C 0.8886 0.5975 0.1582 0.0
C384 C 0.85427 0.58811 0.15517 0.0
C385 C 0.95288 0.61553 0.16157 0.0
C386 C 0.93329 0.59473 0.14053 0.0
C387 C 0.90142 0.5861 0.13903 0.0
C388 C 0.94565 0.58201 0.11979 0.0
C389 C 0.98733 0.62652 0.16359 0.0
C390 C 0.94142 0.58723 0.09277 0.0
C391 C 0.95437 0.57644 0.07343 0.0
C392 C 0.97162 0.56003 0.08074 0.0
C393 C 0.97506 0.5542 0.10773 0.0
C394 C 0.96218 0.56505 0.12701 0.0
H395 H 0.999 0.64711 0.17696 0.0
H396 H 0.99499 0.61003 0.172 0.0
H397 H 0.99477 0.63018 0.14346 0.0
H398 H 0.92862 0.60017 0.08673 0.0
H399 H 0.95114 0.58127 0.05284 0.0
H400 H 0.35119 0.31568 0.18514 0.0
H401 H 0.36733 0.28316 0.15858 0.0
H402 H 0.37278 0.23729 0.22794 0.0
H403 H 0.35745 0.26984 0.25469 0.0
H404 H 0.42374 0.26864 0.17211 0.0
H405 H 0.31096 0.17549 0.16557 0.0
H406 H 0.31561 0.21276 0.17243 0.0
H407 H 0.3271 0.19435 0.19849 0.0
C408 C 0.35617 0.29887 0.19478 0.0
C409 C 0.35261 0.29508 0.22192 0.0
C410 C 0.36528 0.28031 0.17958 0.0
C411 C 0.3708 0.25768 0.19129 0.0
C412 C 0.36815 0.25439 0.2185 0.0
H413 H 0.41065 0.11012 0.14928 0.0
H414 H 0.39861 0.14858 0.17036 0.0
C415 C 0.35921 0.27291 0.23368 0.0
C416 C 0.37873 0.23688 0.17522 0.0
H417 H 0.35198 0.16523 0.15203 0.0
C418 C 0.40802 0.24608 0.16739 0.0
C419 C 0.3581 0.20755 0.16926 0.0
C420 C 0.32607 0.19686 0.17665 0.0
C421 C 0.4177 0.2263 0.15458 0.0
C422 C 0.39724 0.19677 0.14911 0.0
C423 C 0.36767 0.18784 0.15637 0.0
C424 C 0.40616 0.17445 0.13659 0.0
C425 C 0.45007 0.23692 0.148 0.0
C426 C 0.41438 0.17624 0.11061 0.0
C427 C 0.4213 0.1543 0.09853 0.0
C428 C 0.41979 0.13002 0.11212 0.0
C429 C 0.4117 0.1284 0.1382 0.0
C430 C 0.40494 0.15039 0.15029 0.0
H431 H 0.46495 0.25823 0.1593 0.0
H432 H 0.4604 0.221 0.15258 0.0
H433 H 0.44975 0.23963 0.12622 0.0
H434 H 0.41478 0.19428 0.09944 0.0
H435 H 0.42701 0.15593 0.07826 0.0
H436 H 0.21527 0.85197 0.59923 0.0
H437 H 0.18271 0.87741 0.5839 0.0
H438 H 0.15315 0.87555 0.66201 0.0
H439 H 0.18616 0.85083 0.67759 0.0
H440 H 0.12139 0.86295 0.58015 0.0
H441 H 0.18346 0.9612 0.652 0.0
H442 H 0.19824 0.93364 0.64652 0.0
H443 H 0.16922 0.92827 0.66803 0.0
C444 C 0.20175 0.85697 0.61307 0.0
C445 C 0.20352 0.84975 0.63964 0.0
C446 C 0.18318 0.87147 0.60432 0.0
C447 C 0.166 0.87895 0.62198 0.0
C448 C 0.16684 0.87073 0.64825 0.0
H449 H 0.01909 0.93602 0.57086 0.0
H450 H 0.04873 0.90874 0.58814 0.0
C451 C 0.18559 0.85643 0.65707 0.0
C452 C 0.14735 0.89543 0.61291 0.0
H453 H 0.13715 0.95811 0.6267 0.0
C454 C 0.12484 0.88377 0.5903 0.0
C455 C 0.1522 0.92282 0.62593 0.0
C456 C 0.17728 0.93739 0.6493 0.0
C457 C 0.10688 0.89862 0.58047 0.0
C458 C 0.11105 0.92556 0.59403 0.0
C459 C 0.13372 0.93731 0.61652 0.0
C460 C 0.09292 0.94243 0.58467 0.0
C461 C 0.08421 0.88565 0.55524 0.0
C462 C 0.10793 0.9709 0.57803 0.0
C463 C 0.09108 0.98673 0.56854 0.0
C464 C 0.05885 0.97437 0.56546 0.0
C465 C 0.04388 0.9461 0.57275 0.0
C466 C 0.06078 0.93037 0.58245 0.0
H467 H 0.08976 0.86953 0.54341 0.0
H468 H 0.06095 0.87428 0.56079 0.0
H469 H 0.08363 0.90276 0.54224 0.0
H470 H 0.13272 0.98072 0.57972 0.0
H471 H 0.10336 1.00843 0.56311 0.0
H472 H 0.68858 0.36255 0.89003 0.0
H473 H 0.73789 0.39244 0.91671 0.0
H474 H 0.77915 0.41221 0.84425 0.0
H475 H 0.72988 0.38181 0.81727 0.0
H476 H 0.7926 0.38008 0.91242 0.0
H477 H 0.80806 0.49261 0.8916 0.0
H478 H 0.77074 0.46293 0.88736 0.0
H479 H 0.79652 0.46538 0.86338 0.0
C480 C 0.70811 0.3733 0.87972 0.0
C481 C 0.7054 0.36957 0.85153 0.0
C482 C 0.73618 0.39052 0.89499 0.0
C483 C 0.76202 0.40462 0.88241 0.0
C484 C 0.7593 0.40181 0.85427 0.0
H485 H 0.95324 0.50205 0.95236 0.0
H486 H 0.90492 0.48118 0.92141 0.0
C487 C 0.73116 0.38446 0.83892 0.0
C488 C 0.79224 0.42003 0.899 0.0
H489 H 0.84829 0.48724 0.91955 0.0
C490 C 0.80481 0.40351 0.91399 0.0
C491 C 0.80815 0.45051 0.90067 0.0
C492 C 0.79525 0.46908 0.88506 0.0
C493 C 0.83289 0.41667 0.93084 0.0
C494 C 0.8484 0.44727 0.93328 0.0
C495 C 0.83618 0.46381 0.91779 0.0
C496 C 0.87707 0.46229 0.95218 0.0
C497 C 0.84584 0.3976 0.94566 0.0
C498 C 0.87718 0.45939 0.97979 0.0
C499 C 0.90466 0.47105 0.9974 0.0
C500 C 0.93245 0.48602 0.98771 0.0
C501 C 0.93213 0.49031 0.96029 0.0
C502 C 0.9046 0.4785 0.94263 0.0
H503 H 0.83589 0.37492 0.93597 0.0
H504 H 0.87118 0.40616 0.94663 0.0
H505 H 0.84026 0.39703 0.96651 0.0
H506 H 0.85605 0.44753 0.98764 0.0
H507 H 0.90421 0.4678 0.0185 0.0
H508 H 0.78682 0.61052 0.35063 0.0
H509 H 0.74466 0.58507 0.37595 0.0
H510 H 0.71743 0.65754 0.37412 0.0
H511 H 0.75865 0.6825 0.3483 0.0
H512 H 0.73723 0.60389 0.42593 0.0
H513 H 0.63595 0.58981 0.35291 0.0
H514 H 0.67359 0.59893 0.3432 0.0
H515 H 0.66333 0.62677 0.35777 0.0
C516 C 0.77136 0.62066 0.35509 0.0
C517 C 0.77613 0.64855 0.34754 0.0
C518 C 0.74743 0.60621 0.36971 0.0
C519 C 0.72765 0.61925 0.3767 0.0
C520 C 0.73195 0.64675 0.36854 0.0
H521 H 0.59231 0.60106 0.48082 0.0
H522 H 0.63174 0.61627 0.45118 0.0
C523 C 0.75577 0.66115 0.35401 0.0
C524 C 0.70388 0.60534 0.39415 0.0
H525 H 0.62796 0.58635 0.39918 0.0
C526 C 0.71325 0.59959 0.41994 0.0
C527 C 0.67258 0.59977 0.38634 0.0
C528 C 0.6607 0.60386 0.35844 0.0
C529 C 0.69241 0.58968 0.43851 0.0
C530 C 0.66139 0.58516 0.431 0.0
C531 C 0.65184 0.59009 0.40498 0.0
C532 C 0.63856 0.5761 0.45005 0.0
C533 C 0.70393 0.58517 0.46638 0.0
C534 C 0.6294 0.54848 0.45934 0.0
C535 C 0.6068 0.53965 0.47631 0.0
C536 C 0.59292 0.55831 0.48432 0.0
C537 C 0.60258 0.58616 0.47526 0.0
C538 C 0.62504 0.59488 0.4582 0.0
H539 H 0.72938 0.59471 0.47058 0.0
H540 H 0.69484 0.59496 0.48177 0.0
H541 H 0.69572 0.56154 0.46844 0.0
H542 H 0.63927 0.53351 0.45301 0.0
H543 H 0.59988 0.51801 0.48277 0.0
H544 H 0.29895 0.37027 0.22524 0.0
H545 H 0.25686 0.37346 0.19565 0.0
H546 H 0.32092 0.44449 0.16021 0.0
H547 H 0.36358 0.44072 0.18926 0.0
H548 H 0.24137 0.41896 0.19609 0.0
H549 H 0.26545 0.39663 0.094 0.0
H550 H 0.28447 0.38895 0.12389 0.0
H551 H 0.29722 0.42532 0.11403 0.0
C552 C 0.30438 0.3862 0.21086 0.0
C553 C 0.3348 0.40528 0.20962 0.0
C554 C 0.28012 0.38802 0.19392 0.0
C555 C 0.28568 0.40899 0.17549 0.0
C556 C 0.31606 0.42766 0.17379 0.0
H557 H 0.16656 0.48419 0.09939 0.0
H558 H 0.21043 0.47403 0.11829 0.0
C559 C 0.3404 0.42564 0.19055 0.0
C560 C 0.25955 0.413 0.15998 0.0
H561 H 0.22776 0.41679 0.09668 0.0
C562 C 0.2383 0.41822 0.17435 0.0
C563 C 0.25555 0.41205 0.13158 0.0
C564 C 0.27671 0.40515 0.11494 0.0
C565 C 0.21349 0.42296 0.16116 0.0
C566 C 0.20988 0.42259 0.13292 0.0
C567 C 0.23084 0.41718 0.1184 0.0
C568 C 0.18429 0.42795 0.11844 0.0
C569 C 0.19128 0.42859 0.1774 0.0
C570 C 0.15534 0.40522 0.1119 0.0
C571 C 0.13025 0.41087 0.10098 0.0
C572 C 0.13372 0.4394 0.09652 0.0
C573 C 0.16312 0.46194 0.10227 0.0
C574 C 0.18819 0.45623 0.11314 0.0
H575 H 0.19788 0.42913 0.19936 0.0
H576 H 0.19004 0.44964 0.17312 0.0
H577 H 0.16798 0.41132 0.17146 0.0
H578 H 0.15201 0.38326 0.11594 0.0
H579 H 0.10804 0.39296 0.0964 0.0
H580 H 0.65712 0.26568 0.85023 0.0
H581 H 0.6327 0.22289 0.87367 0.0
H582 H 0.54621 0.23137 0.85764 0.0
H583 H 0.57071 0.27484 0.8345 0.0
H584 H 0.59935 0.2276 0.92056 0.0
H585 H 0.52976 0.14154 0.83803 0.0
H586 H 0.56365 0.17226 0.83273 0.0
H587 H 0.52914 0.17716 0.83689 0.0
C588 C 0.63284 0.25838 0.85151 0.0
C589 C 0.61593 0.27391 0.84081 0.0
C590 C 0.61892 0.23384 0.86479 0.0
C591 C 0.58772 0.22402 0.86738 0.0
C592 C 0.57031 0.23852 0.85563 0.0
H593 H 0.47318 0.08437 0.95281 0.0
H594 H 0.49271 0.12246 0.92289 0.0
C595 C 0.5843 0.26327 0.84237 0.0
C596 C 0.57434 0.20024 0.88442 0.0
H597 H 0.52712 0.12857 0.88241 0.0
C598 C 0.58353 0.20593 0.91227 0.0
C599 C 0.55358 0.17216 0.87349 0.0
C600 C 0.5434 0.16513 0.84363 0.0
C601 C 0.57241 0.18425 0.9296 0.0
C602 C 0.55225 0.15583 0.91867 0.0
C603 C 0.54275 0.15027 0.89076 0.0
C604 C 0.54054 0.13176 0.93596 0.0
C605 C 0.5819 0.19226 0.95949 0.0
C606 C 0.56088 0.1238 0.95284 0.0
C607 C 0.54978 0.10225 0.97018 0.0
C608 C 0.51811 0.08797 0.97064 0.0
C609 C 0.49773 0.09514 0.953 0.0
C610 C 0.50885 0.11686 0.93585 0.0
H611 H 0.58965 0.21601 0.96484 0.0
H612 H 0.56274 0.18069 0.9708 0.0
H613 H 0.60132 0.18611 0.96611 0.0
H614 H 0.5854 0.13442 0.95276 0.0
H615 H 0.56598 0.0969 0.98332 0.0
H616 H 0.82399 0.75221 0.34728 0.0
H617 H 0.85246 0.80114 0.36987 0.0
H618 H 0.93746 0.79057 0.36703 0.0
H619 H 0.90905 0.7413 0.34464 0.0
H620 H 0.89101 0.81346 0.42008 0.0
H621 H 0.95411 0.87127 0.33967 0.0
H622 H 0.9208 0.8374 0.33269 0.0
H623 H 0.95729 0.83752 0.34604 0.0
C624 C 0.84877 0.76031 0.35135 0.0
C625 C 0.86425 0.74277 0.34431 0.0
C626 C 0.86499 0.78832 0.36416 0.0
C627 C 0.89705 0.79954 0.36999 0.0
C628 C 0.91273 0.78249 0.36232 0.0
H629 H 0.03173 0.9592 0.45836 0.0
H630 H 1.00518 0.91237 0.43113 0.0
C631 C 0.89648 0.75436 0.34951 0.0
C632 C 0.9137 0.82827 0.38571 0.0
H633 H 0.96651 0.89704 0.38291 0.0
C634 C 0.90745 0.83179 0.41195 0.0
C635 C 0.93526 0.85203 0.37507 0.0
C636 C 0.9422 0.8496 0.34675 0.0
C637 C 0.9224 0.85835 0.428 0.0
C638 C 0.94369 0.88228 0.41727 0.0
C639 C 0.9501 0.87871 0.39106 0.0
C640 C 0.95967 0.91111 0.43304 0.0
C641 C 0.91577 0.86031 0.45651 0.0
C642 C 0.94293 0.9262 0.44275 0.0
C643 C 0.95803 0.95286 0.45841 0.0
C644 C 0.99017 0.96504 0.46437 0.0
C645 C 1.00694 0.95029 0.45408 0.0
C646 C 0.99181 0.92357 0.43851 0.0
H647 H 0.90584 0.83851 0.46388 0.0
H648 H 0.93689 0.87391 0.47034 0.0
H649 H 0.89888 0.8704 0.45731 0.0
H650 H 0.91815 0.91731 0.43829 0.0
H651 H 0.94455 0.96384 0.46599 0.0
H652 H 0.35415 0.81904 0.68479 0.0
H653 H 0.37719 0.78903 0.66403 0.0
H654 H 0.28714 0.72313 0.63598 0.0
H655 H 0.26385 0.75329 0.65672 0.0
H656 H 0.37047 0.73409 0.67715 0.0
H657 H 0.32996 0.73171 0.56872 0.0
H658 H 0.32856 0.75783 0.59394 0.0
H659 H 0.30061 0.72105 0.59021 0.0
C660 C 0.33923 0.79822 0.67408 0.0
C661 C 0.3072 0.78842 0.67251 0.0
C662 C 0.35242 0.78114 0.66217 0.0
C663 C 0.33391 0.75393 0.64834 0.0
C664 C 0.30186 0.74429 0.64616 0.0
H665 H 0.39339 0.62405 0.57871 0.0
H666 H 0.36167 0.64809 0.59487 0.0
C667 C 0.28858 0.76149 0.65803 0.0
C668 C 0.34854 0.73523 0.63769 0.0
H669 H 0.35881 0.70374 0.57987 0.0
C670 C 0.36783 0.72739 0.65588 0.0
C671 C 0.34488 0.72633 0.60996 0.0
C672 C 0.32509 0.73479 0.58947 0.0
C673 C 0.38397 0.71132 0.64708 0.0
C674 C 0.38101 0.70314 0.61932 0.0
C675 C 0.36101 0.71014 0.60115 0.0
C676 C 0.39988 0.68873 0.6088 0.0
C677 C 0.40423 0.70332 0.66753 0.0
C678 C 0.43175 0.70383 0.61092 0.0
C679 C 0.44988 0.69034 0.60151 0.0
C680 C 0.43652 0.66138 0.58981 0.0
C681 C 0.40444 0.64643 0.58739 0.0
C682 C 0.38627 0.66006 0.59671 0.0
H683 H 0.39835 0.70498 0.68813 0.0
H684 H 0.40235 0.68087 0.66238 0.0
H685 H 0.42847 0.71838 0.66763 0.0
H686 H 0.4426 0.72615 0.6198 0.0
H687 H 0.47437 0.70276 0.60315 0.0
H688 H 0.70885 0.76773 0.74491 0.0
H689 H 0.74598 0.78721 0.71394 0.0
H690 H 0.79329 0.73385 0.74179 0.0
H691 H 0.75618 0.71443 0.77343 0.0
H692 H 0.83212 0.79359 0.73902 0.0
H693 H 0.75325 0.74521 0.64432 0.0
H694 H 0.73819 0.7634 0.6668 0.0
H695 H 0.74455 0.7319 0.67643 0.0
C696 C 0.72719 0.76016 0.74454 0.0
C697 C 0.72971 0.73966 0.76169 0.0
C698 C 0.74819 0.77109 0.72663 0.0
C699 C 0.77209 0.76166 0.72533 0.0
C700 C 0.77481 0.74119 0.74239 0.0
H701 H 0.87902 0.82725 0.59436 0.0
H702 H 0.85301 0.7937 0.6261 0.0
C703 C 0.7536 0.73007 0.76032 0.0
C704 C 0.79466 0.77435 0.70674 0.0
H705 H 0.79896 0.78732 0.64111 0.0
C706 C 0.8251 0.79181 0.71753 0.0
C707 C 0.78558 0.7716 0.67869 0.0
C708 C 0.75368 0.75176 0.66582 0.0
C709 C 0.84618 0.80816 0.70115 0.0
C710 C 0.83633 0.80729 0.67341 0.0
C711 C 0.80646 0.78828 0.66241 0.0
C712 C 0.85554 0.82751 0.65579 0.0
C713 C 0.87861 0.82657 0.71381 0.0
C714 C 0.86577 0.85764 0.662 0.0
C715 C 0.88059 0.87681 0.64393 0.0
C716 C 0.88516 0.86622 0.61912 0.0
C717 C 0.87559 0.83605 0.61322 0.0
C718 C 0.86087 0.81688 0.63137 0.0
H719 H 0.88527 0.81736 0.73192 0.0
H720 H 0.8952 0.82857 0.69945 0.0
H721 H 0.88026 0.84865 0.72027 0.0
H722 H 0.86112 0.86636 0.68033 0.0
H723 H 0.88718 0.89988 0.64888 0.0
H724 H 0.70532 0.23918 0.28107 0.0
H725 H 0.67911 0.21978 0.2354 0.0
H726 H 0.68114 0.13645 0.24957 0.0
H727 H 0.70644 0.15534 0.29547 0.0
H728 H 0.69454 0.19258 0.1916 0.0
H729 H 0.58929 0.11894 0.229 0.0
H730 H 0.61946 0.14837 0.25024 0.0
H731 H 0.62365 0.11488 0.24255 0.0
C732 C 0.7002 0.21673 0.27445 0.0
C733 C 0.70766 0.19871 0.29199 0.0
C734 C 0.68542 0.20576 0.24832 0.0
C735 C 0.67776 0.17659 0.23933 0.0
C736 C 0.68645 0.15892 0.25632 0.0
H737 H 0.61226 0.08399 0.08133 0.0
H738 H 0.64355 0.11255 0.12253 0.0
C739 C 0.7012 0.16984 0.28244 0.0
C740 C 0.6595 0.16424 0.21264 0.0
H741 H 0.59125 0.11263 0.18234 0.0
C742 C 0.6719 0.17518 0.1895 0.0
C743 C 0.62975 0.14195 0.21006 0.0
C744 C 0.61456 0.13049 0.23426 0.0
C745 C 0.65561 0.16378 0.16373 0.0
C746 C 0.62639 0.14065 0.16115 0.0
C747 C 0.61373 0.13027 0.18435 0.0
C748 C 0.6087 0.12616 0.13469 0.0
C749 C 0.6697 0.17677 0.13954 0.0
C750 C 0.57864 0.12424 0.12785 0.0
C751 C 0.56054 0.10767 0.10441 0.0
C752 C 0.57214 0.09261 0.08743 0.0
C753 C 0.60263 0.0954 0.09388 0.0
C754 C 0.62067 0.1119 0.11737 0.0
H755 H 0.68728 0.19923 0.1449 0.0
H756 H 0.68113 0.16337 0.13131 0.0
H757 H 0.65196 0.17722 0.12353 0.0
H758 H 0.56893 0.135 0.14101 0.0
H759 H 0.53718 0.10604 0.10006 0.0
H760 H 0.40743 0.61052 0.26073 0.0
H761 H 0.42225 0.58942 0.29988 0.0
H762 H 0.46469 0.67449 0.34377 0.0
H763 H 0.44952 0.69576 0.30455 0.0
H764 H 0.48067 0.60121 0.32679 0.0
H765 H 0.4077 0.62595 0.39465 0.0
H766 H 0.40246 0.62818 0.35886 0.0
H767 H 0.43346 0.65643 0.38015 0.0
C768 C 0.41995 0.62475 0.27873 0.0
C769 C 0.42727 0.65474 0.27962 0.0
C770 C 0.42841 0.61266 0.30107 0.0
C771 C 0.44425 0.63028 0.32487 0.0
C772 C 0.452 0.6604 0.32576 0.0
H773 H 0.50416 0.57838 0.47765 0.0
H774 H 0.49474 0.60661 0.44188 0.0
C775 C 0.44351 0.67255 0.3033 0.0
C776 C 0.45271 0.6168 0.34844 0.0
H777 H 0.43862 0.6023 0.41248 0.0
C778 C 0.47156 0.60154 0.34556 0.0
C779 C 0.4409 0.61733 0.37296 0.0
C780 C 0.41981 0.63264 0.37693 0.0
C781 C 0.4787 0.5866 0.3664 0.0
C782 C 0.46621 0.58645 0.39063 0.0
C783 C 0.44803 0.60234 0.39382 0.0
C784 C 0.47115 0.5693 0.41259 0.0
C785 C 0.49971 0.57122 0.36234 0.0
C786 C 0.46055 0.53892 0.40818 0.0
C787 C 0.4657 0.52279 0.42868 0.0
C788 C 0.48132 0.53671 0.45404 0.0
C789 C 0.49156 0.56706 0.45852 0.0
C790 C 0.48637 0.58321 0.43803 0.0
H791 H 0.51375 0.57983 0.3461 0.0
H792 H 0.51533 0.57337 0.38113 0.0
H793 H 0.48571 0.54776 0.35655 0.0
H794 H 0.44828 0.52768 0.38884 0.0
H795 H 0.45754 0.49942 0.42465 0.0
H796 H 0.12151 0.39347 0.78354 0.0
H797 H 0.10007 0.41141 0.81889 0.0
H798 H 0.19092 0.47193 0.85274 0.0
H799 H 0.21241 0.45453 0.81698 0.0
H800 H 0.10941 0.4116 0.87298 0.0
H801 H 0.14551 0.52493 0.84639 0.0
H802 H 0.14734 0.49626 0.82454 0.0
H803 H 0.1768 0.5137 0.8527 0.0
C804 C 0.13693 0.41068 0.79844 0.0
C805 C 0.16868 0.42273 0.79743 0.0
C806 C 0.12463 0.42089 0.81868 0.0
C807 C 0.14379 0.44336 0.83828 0.0
C808 C 0.17556 0.45509 0.83751 0.0
H809 H 0.08731 0.48648 0.9891 0.0
H810 H 0.11137 0.46943 0.95533 0.0
C811 C 0.18784 0.44501 0.81717 0.0
C812 C 0.1305 0.45414 0.8597 0.0
H813 H 0.12504 0.51515 0.88744 0.0
C814 C 0.11279 0.43424 0.87612 0.0
C815 C 0.13458 0.48363 0.86361 0.0
C816 C 0.15183 0.50583 0.84572 0.0
C817 C 0.09921 0.443 0.89639 0.0
C818 C 0.10403 0.47264 0.9008 0.0
C819 C 0.12161 0.4925 0.88428 0.0
C820 C 0.08999 0.48335 0.92164 0.0
C821 C 0.07915 0.42025 0.91237 0.0
C822 C 0.07071 0.49768 0.91415 0.0
C823 C 0.05725 0.50778 0.93343 0.0
C824 C 0.06274 0.50378 0.96071 0.0
C825 C 0.08237 0.48973 0.96826 0.0
C826 C 0.096 0.47978 0.94893 0.0
H827 H 0.0712 0.39805 0.90187 0.0
H828 H 0.09249 0.42068 0.93201 0.0
H829 H 0.05877 0.42452 0.91624 0.0
H830 H 0.06579 0.50081 0.89327 0.0
H831 H 0.04228 0.51849 0.92685 0.0
H832 H 0.66802 0.78572 0.79319 0.0
H833 H 0.65582 0.82206 0.81781 0.0
H834 H 0.65003 0.77538 0.88812 0.0
H835 H 0.66282 0.73906 0.86377 0.0
H836 H 0.60011 0.79495 0.87311 0.0
H837 H 0.71678 0.88235 0.87948 0.0
H838 H 0.69972 0.86405 0.84652 0.0
H839 H 0.70924 0.84437 0.87244 0.0
C840 C 0.66442 0.78327 0.81396 0.0
C841 C 0.66676 0.75968 0.82664 0.0
C842 C 0.65737 0.80401 0.82795 0.0
C843 C 0.6525 0.80156 0.85484 0.0
C844 C 0.65386 0.77764 0.86737 0.0
H845 H 0.60557 0.90672 0.97041 0.0
H846 H 0.6159 0.86831 0.94713 0.0
C847 C 0.66103 0.75688 0.85341 0.0
C848 C 0.64622 0.8242 0.86985 0.0
H849 H 0.67815 0.89592 0.89366 0.0
C850 C 0.61716 0.81701 0.87779 0.0
C851 C 0.66856 0.8529 0.87575 0.0
C852 C 0.70044 0.86146 0.86833 0.0
C853 C 0.60956 0.83805 0.89098 0.0
C854 C 0.63192 0.86681 0.89687 0.0
C855 C 0.66106 0.87388 0.88907 0.0
C856 C 0.62558 0.88999 0.91101 0.0
C857 C 0.57743 0.82948 0.8978 0.0
C858 C 0.62849 0.9153 0.89875 0.0
C859 C 0.62284 0.93738 0.91208 0.0
C860 C 0.6142 0.93454 0.93795 0.0
C861 C 0.61167 0.9093 0.95031 0.0
C862 C 0.61748 0.88731 0.93701 0.0
H863 H 0.56107 0.80927 0.88561 0.0
H864 H 0.57737 0.82544 0.91928 0.0
H865 H 0.56912 0.84705 0.89454 0.0
H866 H 0.63487 0.91784 0.87873 0.0
H867 H 0.62473 0.95646 0.90197 0.0
H868 H 0.82226 0.18545 0.37388 0.0
H869 H 0.85585 0.16145 0.38983 0.0
H870 H 0.8236 0.15686 0.46692 0.0
H871 H 0.7904 0.18154 0.45123 0.0
H872 H 0.88552 0.17321 0.47193 0.0
H873 H 0.8274 0.07553 0.39868 0.0
H874 H 0.84123 0.10889 0.38326 0.0
H875 H 0.81137 0.10217 0.40407 0.0
C876 C 0.82233 0.17938 0.39424 0.0
C877 C 0.80348 0.1851 0.41129 0.0
C878 C 0.84143 0.1655 0.40327 0.0
C879 C 0.84176 0.15678 0.42937 0.0
C880 C 0.82357 0.16322 0.44664 0.0
H881 H 0.90633 0.02916 0.48926 0.0
H882 H 0.87674 0.05644 0.47216 0.0
C883 C 0.80462 0.17727 0.43768 0.0
C884 C 0.86096 0.14088 0.4387 0.0
H885 H 0.87335 0.07933 0.42505 0.0
C886 C 0.88287 0.15267 0.4617 0.0
C887 C 0.85717 0.11387 0.42554 0.0
C888 C 0.83283 0.09919 0.40168 0.0
C889 C 0.90121 0.13831 0.47183 0.0
C890 C 0.89803 0.11172 0.45822 0.0
C891 C 0.87601 0.09986 0.4353 0.0
C892 C 0.9164 0.0952 0.46803 0.0
C893 C 0.9232 0.15137 0.49744 0.0
C894 C 0.94858 0.1077 0.47093 0.0
C895 C 0.96563 0.0922 0.4809 0.0
C896 C 0.95079 0.06374 0.48781 0.0
C897 C 0.91854 0.05101 0.48414 0.0
C898 C 0.90155 0.06659 0.47437 0.0
H899 H 0.91701 0.16718 0.50905 0.0
H900 H 0.92372 0.13426 0.51045 0.0
H901 H 0.94663 0.16309 0.49238 0.0
H902 H 0.96054 0.12947 0.46552 0.0
H903 H 0.99043 0.10258 0.48327 0.0
H904 H 0.31323 0.71617 0.19057 0.0
H905 H 0.26304 0.68692 0.16542 0.0
H906 H 0.28478 0.61114 0.16585 0.0
H907 H 0.33595 0.64073 0.18971 0.0
H908 H 0.2617 0.61568 0.11711 0.0
H909 H 0.18655 0.62959 0.18743 0.0
H910 H 0.21323 0.66427 0.18053 0.0
H911 H 0.22712 0.63995 0.19737 0.0
C912 C 0.3074 0.69327 0.18536 0.0
C913 C 0.32876 0.68087 0.19204 0.0
C914 C 0.27844 0.67645 0.17133 0.0
C915 C 0.26987 0.64669 0.16414 0.0
C916 C 0.2908 0.63402 0.17137 0.0
H917 H 0.08109 0.5499 0.08563 0.0
H918 H 0.1287 0.56403 0.11682 0.0
C919 C 0.31996 0.65093 0.18521 0.0
C920 C 0.24008 0.62956 0.1472 0.0
H921 H 0.16386 0.61616 0.14077 0.0
C922 C 0.24022 0.61538 0.1225 0.0
C923 C 0.21191 0.62859 0.15438 0.0
C924 C 0.20965 0.64115 0.18152 0.0
C925 C 0.21327 0.60163 0.1042 0.0
C926 C 0.18562 0.60288 0.11043 0.0
C927 C 0.18515 0.61565 0.13574 0.0
C928 C 0.15727 0.59235 0.09064 0.0
C929 C 0.21477 0.586 0.07836 0.0
C930 C 0.15747 0.60347 0.06552 0.0
C931 C 0.13037 0.59514 0.04757 0.0
C932 C 0.10249 0.57601 0.05466 0.0
C933 C 0.10229 0.56472 0.07969 0.0
C934 C 0.12945 0.57279 0.09751 0.0
H935 H 0.23373 0.57833 0.08076 0.0
H936 H 0.19293 0.56704 0.07144 0.0
H937 H 0.21928 0.60121 0.06254 0.0
H938 H 0.17847 0.6192 0.06004 0.0
H939 H 0.13112 0.60427 0.02845 0.0
H940 H 0.25346 0.362 0.68901 0.0
H941 H 0.29525 0.38759 0.66401 0.0
H942 H 0.27023 0.46143 0.6655 0.0
H943 H 0.22735 0.43535 0.68977 0.0
H944 H 0.27909 0.446 0.61531 0.0
H945 H 0.37721 0.45293 0.68884 0.0
H946 H 0.34925 0.41633 0.68166 0.0
H947 H 0.33921 0.44358 0.69775 0.0
C948 C 0.25684 0.38373 0.68411 0.0
C949 C 0.23694 0.39657 0.69131 0.0
C950 C 0.28102 0.39849 0.67007 0.0
C951 C 0.28623 0.42663 0.6632 0.0
C952 C 0.26679 0.4398 0.67075 0.0
H953 H 0.42428 0.5344 0.56808 0.0
H954 H 0.3825 0.51779 0.59544 0.0
C955 C 0.24244 0.42497 0.6848 0.0
C956 C 0.31086 0.44135 0.64676 0.0
H957 H 0.38692 0.45925 0.64317 0.0
C958 C 0.30276 0.44934 0.62158 0.0
C959 C 0.34179 0.44579 0.65496 0.0
C960 C 0.35245 0.43949 0.6824 0.0
C961 C 0.32449 0.46038 0.60392 0.0
C962 C 0.35504 0.46359 0.61171 0.0
C963 C 0.36336 0.45647 0.63717 0.0
C964 C 0.3786 0.47333 0.59341 0.0
C965 C 0.31451 0.46756 0.57666 0.0
C966 C 0.39003 0.45376 0.58303 0.0
C967 C 0.41375 0.46307 0.56728 0.0
C968 C 0.42682 0.49231 0.56184 0.0
C969 C 0.41478 0.51174 0.57179 0.0
C970 C 0.39086 0.5023 0.58742 0.0
H971 H 0.28921 0.46037 0.57233 0.0
H972 H 0.32522 0.49141 0.57576 0.0
H973 H 0.32234 0.45718 0.56072 0.0
H974 H 0.38088 0.43131 0.58749 0.0
H975 H 0.42244 0.44749 0.56011 0.0
H976 H 0.69561 0.60302 0.78629 0.0
H977 H 0.74156 0.60179 0.81221 0.0
H978 H 0.74626 0.67191 0.86793 0.0
H979 H 0.70053 0.67334 0.84216 0.0
H980 H 0.80319 0.67854 0.85363 0.0
H981 H 0.74202 0.56869 0.88496 0.0
H982 H 0.73745 0.57002 0.84921 0.0
H983 H 0.72215 0.58963 0.87008 0.0
C984 C 0.70661 0.61829 0.80397 0.0
C985 C 0.6946 0.63836 0.81203 0.0
C986 C 0.7327 0.61746 0.81883 0.0
C987 C 0.747 0.63646 0.84221 0.0
C988 C 0.73551 0.65704 0.84996 0.0
H989 H 0.87823 0.611 0.96257 0.0
H990 H 0.83419 0.6184 0.93968 0.0
C991 C 0.70944 0.65792 0.83507 0.0
C992 C 0.77371 0.6346 0.85876 0.0
H993 H 0.79652 0.58828 0.8939 0.0
C994 C 0.80174 0.65888 0.86256 0.0
C995 C 0.77157 0.60911 0.87082 0.0
C996 C 0.74162 0.58297 0.86883 0.0
C997 C 0.82798 0.65803 0.87746 0.0
C998 C 0.82618 0.63205 0.88842 0.0
C999 C 0.79792 0.60808 0.88527 0.0
C1000 C 0.85343 0.62894 0.90269 0.0
C1001 C 0.8573 0.68502 0.88152 0.0
C1002 C 0.8787 0.63218 0.88941 0.0
C1003 C 0.90381 0.62794 0.9024 0.0
C1004 C 0.90403 0.6201 0.92887 0.0
C1005 C 0.87865 0.61681 0.94212 0.0
C1006 C 0.85356 0.62116 0.92913 0.0
H1007 H 0.85273 0.70491 0.87899 0.0
H1008 H 0.8703 0.68731 0.90179 0.0
H1009 H 0.87193 0.68358 0.86632 0.0
H1010 H 0.87874 0.63739 0.86877 0.0
H1011 H 0.92273 0.63007 0.89145 0.0
H1012 H 0.38319 0.78657 0.20061 0.0
H1013 H 0.40239 0.8288 0.17515 0.0
H1014 H 0.48108 0.80985 0.16359 0.0
H1015 H 0.46189 0.76738 0.18917 0.0
H1016 H 0.49311 0.87174 0.17414 0.0
H1017 H 0.39702 0.81326 0.09223 0.0
H1018 H 0.38573 0.81613 0.12479 0.0
H1019 H 0.408 0.79516 0.11911 0.0
C1020 C 0.40485 0.79169 0.19302 0.0
C1021 C 0.42089 0.77351 0.1966 0.0
C1022 C 0.41573 0.81575 0.17843 0.0
C1023 C 0.44279 0.82206 0.16702 0.0
C1024 C 0.46003 0.80521 0.17213 0.0
H1025 H 0.49411 0.92108 0.03063 0.0
H1026 H 0.48014 0.88379 0.06208 0.0
C1027 C 0.44916 0.78107 0.18684 0.0
C1028 C 0.4517 0.84485 0.14819 0.0
H1029 H 0.42787 0.86223 0.08737 0.0
C1030 C 0.47892 0.86971 0.15515 0.0
C1031 C 0.43331 0.84192 0.12327 0.0
C1032 C 0.40451 0.81509 0.11419 0.0
C1033 C 0.48794 0.892 0.13802 0.0
C1034 C 0.46907 0.88941 0.11344 0.0
C1035 C 0.44214 0.86431 0.10632 0.0
C1036 C 0.47717 0.91214 0.09444 0.0
C1037 C 0.51783 0.9179 0.14614 0.0
C1038 C 0.47943 0.94029 0.10197 0.0
C1039 C 0.48731 0.96162 0.08399 0.0
C1040 C 0.493 0.95512 0.05815 0.0
C1041 C 0.48996 0.92674 0.05044 0.0
C1042 C 0.48203 0.90544 0.06839 0.0
H1043 H 0.53295 0.91341 0.16213 0.0
H1044 H 0.53032 0.92445 0.12862 0.0
H1045 H 0.51303 0.93649 0.15401 0.0
H1046 H 0.4751 0.94577 0.12176 0.0
H1047 H 0.48933 0.98327 0.09044 0.0
H1048 H 0.10343 0.30399 0.69532 0.0
H1049 H 0.07445 0.25367 0.67581 0.0
H1050 H 0.15913 0.24306 0.67091 0.0
H1051 H 0.18815 0.29284 0.6912 0.0
H1052 H 0.07679 0.22999 0.62589 0.0
H1053 H 0.11023 0.17105 0.70547 0.0
H1054 H 0.11648 0.20887 0.71094 0.0
H1055 H 0.14244 0.19842 0.694 0.0
C1056 C 0.11585 0.29076 0.69057 0.0
C1057 C 0.14812 0.30247 0.69482 0.0
C1058 C 0.09927 0.26208 0.67927 0.0
C1059 C 0.1146 0.24447 0.67222 0.0
C1060 C 0.14677 0.25601 0.67666 0.0
H1061 H 0.06528 0.07624 0.58461 0.0
H1062 H 0.09143 0.12438 0.60979 0.0
C1063 C 0.16334 0.28463 0.68796 0.0
C1064 C 0.09712 0.2146 0.65883 0.0
H1065 H 0.08584 0.14349 0.66326 0.0
C1066 C 0.07851 0.21104 0.63419 0.0
C1067 C 0.0995 0.1899 0.66964 0.0
C1068 C 0.11801 0.19214 0.69659 0.0
C1069 C 0.06284 0.18357 0.61973 0.0
C1070 C 0.06552 0.15896 0.63039 0.0
C1071 C 0.0839 0.16244 0.65512 0.0
C1072 C 0.0496 0.12945 0.61598 0.0
C1073 C 0.04422 0.1812 0.59279 0.0
C1074 C 0.01744 0.11617 0.61154 0.0
C1075 C 1.00249 0.0887 0.59724 0.0
C1076 C 0.01945 0.07401 0.58721 0.0
C1077 C 0.05164 0.08707 0.59213 0.0
C1078 C 0.06659 0.11453 0.60649 0.0
H1079 H 0.05002 0.20267 0.58477 0.0
H1080 H 0.04792 0.16624 0.57792 0.0
H1081 H 0.0195 0.17228 0.59498 0.0
H1082 H 1.00392 0.12713 0.61906 0.0
H1083 H 0.97765 0.07912 0.59379 0.0
H1084 H 0.65656 0.22349 0.35892 0.0
H1085 H 0.6329 0.25241 0.38039 0.0
H1086 H 0.72112 0.30893 0.42334 0.0
H1087 H 0.74529 0.28071 0.40094 0.0
H1088 H 0.62997 0.26456 0.43298 0.0
H1089 H 0.69195 0.3664 0.38789 0.0
H1090 H 0.69227 0.33192 0.37639 0.0
H1091 H 0.71634 0.35219 0.40665 0.0
C1092 C 0.67103 0.24224 0.37273 0.0
C1093 C 0.70291 0.25007 0.37788 0.0
C1094 C 0.65741 0.25863 0.38514 0.0
C1095 C 0.6753 0.28318 0.40305 0.0
C1096 C 0.70697 0.29047 0.40909 0.0
H1097 H 0.62231 0.40455 0.4933 0.0
H1098 H 0.65026 0.3775 0.47531 0.0
C1099 C 0.7207 0.2741 0.39655 0.0
C1100 C 0.66049 0.30095 0.4152 0.0
H1101 H 0.65912 0.36862 0.41907 0.0
C1102 C 0.63637 0.28732 0.42994 0.0
C1103 C 0.66881 0.33064 0.41116 0.0
C1104 C 0.69356 0.34616 0.39447 0.0
C1105 C 0.62037 0.30254 0.44076 0.0
C1106 C 0.62854 0.33209 0.43653 0.0
C1107 C 0.65294 0.34591 0.4222 0.0
C1108 C 0.61179 0.34893 0.44673 0.0
C1109 C 0.59497 0.28698 0.45681 0.0
C1110 C 0.58109 0.34212 0.43622 0.0
C1111 C 0.56508 0.35756 0.44639 0.0
C1112 C 0.57949 0.37999 0.46734 0.0
C1113 C 0.61046 0.38711 0.47742 0.0
C1114 C 0.6265 0.37181 0.4671 0.0
H1115 H 0.59578 0.2663 0.46298 0.0
H1116 H 0.59629 0.30099 0.47508 0.0
H1117 H 0.5725 0.28185 0.44438 0.0
H1118 H 0.56948 0.32474 0.42025 0.0
H1119 H 0.54122 0.3515 0.43832 0.0
loop_
_geom_bond_atom_site_label_1
_geom_bond_atom_site_label_2
_geom_bond_distance
_geom_bond_site_symmetry_2
_ccdc_geom_bond_type
H0 C5 0.930 . S
H1 C8 0.930 . S
H2 C10 0.930 . S
H3 C4 1.016 . S
C4 H3 1.016 . S
C4 N11 1.286 . S
C5 H0 0.930 . S
C5 C6 1.397 . S
C5 C7 1.361 . S
C6 C5 1.397 . S
C6 C10 1.390 . S
C7 C5 1.361 . S
C7 C8 1.393 . S
C7 N11 1.413 . S
C8 H1 0.930 . S
C8 C7 1.393 . S
C8 C9 1.399 . S
C9 C8 1.399 . S
C9 C10 1.381 . S
C10 H2 0.930 . S
C10 C6 1.390 . S
C10 C9 1.381 . S
N11 C4 1.286 . S
N11 C7 1.413 . S
H12 C17 0.930 . S
H13 C20 0.930 . S
H14 C22 0.930 . S
H15 C16 1.016 . S
C16 H15 1.016 . S
C16 N23 1.286 . S
C17 H12 0.930 . S
C17 C18 1.397 . S
C17 C19 1.361 . S
C18 C17 1.397 . S
C18 C22 1.390 . S
C19 C17 1.361 . S
C19 C20 1.393 . S
C19 N23 1.413 . S
C20 H13 0.930 . S
C20 C19 1.393 . S
C20 C21 1.399 . S
C21 C20 1.399 . S
C21 C22 1.381 . S
C22 H14 0.930 . S
C22 C18 1.390 . S
C22 C21 1.381 . S
N23 C16 1.286 . S
N23 C19 1.413 . S
H24 C29 0.930 . S
H25 C32 0.930 . S
H26 C34 0.930 . S
H27 C28 1.016 . S
C28 H27 1.016 . S
C28 N35 1.286 . S
C29 H24 0.930 . S
C29 C30 1.397 . S
C29 C31 1.361 . S
C30 C29 1.397 . S
C30 C34 1.390 . S
C31 C29 1.361 . S
C31 C32 1.393 . S
C31 N35 1.413 . S
C32 H25 0.930 . S
C32 C31 1.393 . S
C32 C33 1.399 . S
C33 C32 1.399 . S
C33 C34 1.381 . S
C34 H26 0.930 . S
C34 C30 1.390 . S
C34 C33 1.381 . S
N35 C28 1.286 . S
N35 C31 1.413 . S
H36 C41 0.930 . S
H37 C44 0.930 . S
H38 C46 0.930 . S
H39 C40 1.016 . S
C40 H39 1.016 . S
C40 N47 1.286 . S
C41 H36 0.930 . S
C41 C42 1.397 . S
C41 C43 1.361 . S
C42 C41 1.397 . S
C42 C46 1.390 . S
C43 C41 1.361 . S
C43 C44 1.393 . S
C43 N47 1.413 . S
C44 H37 0.930 . S
C44 C43 1.393 . S
C44 C45 1.399 . S
C45 C44 1.399 . S
C45 C46 1.381 . S
C46 H38 0.930 . S
C46 C42 1.390 . S
C46 C45 1.381 . S
N47 C40 1.286 . S
N47 C43 1.413 . S
H48 C53 0.930 . S
H49 C56 0.930 . S
H50 C58 0.930 . S
H51 C52 1.016 . S
C52 H51 1.016 . S
C52 N59 1.286 . S
C53 H48 0.930 . S
C53 C54 1.397 . S
C53 C55 1.361 . S
C54 C53 1.397 . S
C54 C58 1.390 . S
C55 C53 1.361 . S
C55 C56 1.393 . S
C55 N59 1.413 . S
C56 H49 0.930 . S
C56 C55 1.393 . S
C56 C57 1.399 . S
C57 C56 1.399 . S
C57 C58 1.381 . S
C58 H50 0.930 . S
C58 C54 1.390 . S
C58 C57 1.381 . S
N59 C52 1.286 . S
N59 C55 1.413 . S
H60 C65 0.930 . S
H61 C68 0.930 . S
H62 C70 0.930 . S
H63 C64 1.016 . S
C64 H63 1.016 . S
C64 N71 1.286 . S
C65 H60 0.930 . S
C65 C66 1.397 . S
C65 C67 1.361 . S
C66 C65 1.397 . S
C66 C70 1.390 . S
C67 C65 1.361 . S
C67 C68 1.393 . S
C67 N71 1.413 . S
C68 H61 0.930 . S
C68 C67 1.393 . S
C68 C69 1.399 . S
C69 C68 1.399 . S
C69 C70 1.381 . S
C70 H62 0.930 . S
C70 C66 1.390 . S
C70 C69 1.381 . S
N71 C64 1.286 . S
N71 C67 1.413 . S
H72 C77 0.930 . S
H73 C80 0.930 . S
H74 C82 0.930 . S
H75 C76 1.016 . S
C76 H75 1.016 . S
C76 N83 1.286 . S
C77 H72 0.930 . S
C77 C78 1.397 . S
C77 C79 1.361 . S
C78 C77 1.397 . S
C78 C82 1.390 . S
C79 C77 1.361 . S
C79 C80 1.393 . S
C79 N83 1.413 . S
C80 H73 0.930 . S
C80 C79 1.393 . S
C80 C81 1.399 . S
C81 C80 1.399 . S
C81 C82 1.381 . S
C82 H74 0.930 . S
C82 C78 1.390 . S
C82 C81 1.381 . S
N83 C76 1.286 . S
N83 C79 1.413 . S
H84 C89 0.930 . S
H85 C92 0.930 . S
H86 C94 0.930 . S
H87 C88 1.016 . S
C88 H87 1.016 . S
C88 N95 1.286 . S
C89 H84 0.930 . S
C89 C90 1.397 . S
C89 C91 1.361 . S
C90 C89 1.397 . S
C90 C94 1.390 . S
C91 C89 1.361 . S
C91 C92 1.393 . S
C91 N95 1.413 . S
C92 H85 0.930 . S
C92 C91 1.393 . S
C92 C93 1.399 . S
C93 C92 1.399 . S
C93 C94 1.381 . S
C94 H86 0.930 . S
C94 C90 1.390 . S
C94 C93 1.381 . S
N95 C88 1.286 . S
N95 C91 1.413 . S
Pr96 C98 2.880 . S
Pr96 O116 2.562 . S
Pr96 O117 2.490 . S
Pr96 O118 2.695 1_665 S
Pr96 O119 2.512 1_665 S
Pr96 O121 2.437 1_655 S
Pr96 O124 2.436 . S
Pr96 O126 2.438 1_565 S
Pr97 C107 2.880 . S
Pr97 O118 2.436 . S
Pr97 O120 2.438 1_545 S
Pr97 O122 2.562 . S
Pr97 O123 2.490 . S
Pr97 O124 2.695 1_445 S
Pr97 O125 2.512 1_445 S
Pr97 O127 2.437 1_455 S
C98 Pr96 2.880 . S
C98 C99 1.491 . S
C98 O116 1.254 . S
C98 O117 1.225 . S
C99 C98 1.491 . S
C99 C100 1.392 . S
C99 C104 1.356 . S
C100 C99 1.392 . S
C100 C101 1.368 . S
C100 H128 0.929 . S
C101 C100 1.368 . S
C101 C102 1.386 . S
C101 H129 0.929 . S
C102 C101 1.386 . S
C102 C103 1.373 . S
C103 C102 1.373 . S
C103 C104 1.409 . S
C103 H130 0.931 . S
C104 C99 1.356 . S
C104 C103 1.409 . S
C104 H131 0.930 . S
C105 O118 1.270 . S
C105 O119 1.248 . S
C106 O120 1.267 . S
C106 O121 1.278 . S
C107 Pr97 2.880 . S
C107 C108 1.491 . S
C107 O122 1.254 . S
C107 O123 1.225 . S
C108 C107 1.491 . S
C108 C109 1.392 . S
C108 C113 1.356 . S
C109 C108 1.392 . S
C109 C110 1.368 . S
C109 H132 0.929 . S
C110 C109 1.368 . S
C110 C111 1.386 . S
C110 H133 0.929 . S
C111 C110 1.386 . S
C111 C112 1.373 . S
C112 C111 1.373 . S
C112 C113 1.409 . S
C112 H134 0.931 . S
C113 C108 1.356 . S
C113 C112 1.409 . S
C113 H135 0.930 . S
C114 O124 1.270 . S
C114 O125 1.248 . S
C115 O126 1.267 . S
C115 O127 1.278 . S
O116 Pr96 2.562 . S
O116 C98 1.254 . S
O117 Pr96 2.490 . S
O117 C98 1.225 . S
O118 Pr96 2.695 1_445 S
O118 Pr97 2.436 . S
O118 C105 1.270 . S
O119 Pr96 2.512 1_445 S
O119 C105 1.248 . S
O120 Pr97 2.438 1_565 S
O120 C106 1.267 . S
O121 Pr96 2.437 1_455 S
O121 C106 1.278 . S
O122 Pr97 2.562 . S
O122 C107 1.254 . S
O123 Pr97 2.490 . S
O123 C107 1.225 . S
O124 Pr96 2.436 . S
O124 Pr97 2.695 1_665 S
O124 C114 1.270 . S
O125 Pr97 2.512 1_665 S
O125 C114 1.248 . S
O126 Pr96 2.438 1_545 S
O126 C115 1.267 . S
O127 Pr97 2.437 1_655 S
O127 C115 1.278 . S
H128 C100 0.929 . S
H129 C101 0.929 . S
H130 C103 0.931 . S
H131 C104 0.930 . S
H132 C109 0.929 . S
H133 C110 0.929 . S
H134 C112 0.931 . S
H135 C113 0.930 . S
Pr136 C138 2.880 . S
Pr136 O156 2.562 . S
Pr136 O157 2.490 . S
Pr136 O158 2.695 1_554 S
Pr136 O159 2.512 1_554 S
Pr136 O161 2.437 . S
Pr136 O164 2.436 1_545 S
Pr136 O166 2.438 1_544 S
Pr137 C147 2.880 1_554 S
Pr137 O158 2.436 1_564 S
Pr137 O160 2.438 1_565 S
Pr137 O162 2.562 1_554 S
Pr137 O163 2.490 1_554 S
Pr137 O164 2.695 . S
Pr137 O165 2.512 . S
Pr137 O167 2.437 1_554 S
C138 Pr136 2.880 . S
C138 C139 1.491 . S
C138 O156 1.254 . S
C138 O157 1.225 . S
C139 C138 1.491 . S
C139 C140 1.392 . S
C139 C144 1.356 . S
C140 C139 1.392 . S
C140 C141 1.368 . S
C140 H168 0.929 . S
C141 C140 1.368 . S
C141 C142 1.386 . S
C141 H169 0.929 . S
C142 C141 1.386 . S
C142 C143 1.373 . S
C143 C142 1.373 . S
C143 C144 1.409 . S
C143 H170 0.931 . S
C144 C139 1.356 . S
C144 C143 1.409 . S
C144 H171 0.930 . S
C145 O158 1.270 . S
C145 O159 1.248 . S
C146 O160 1.267 . S
C146 O161 1.278 . S
C147 Pr137 2.880 1_556 S
C147 C148 1.491 . S
C147 O162 1.254 . S
C147 O163 1.225 . S
C148 C147 1.491 . S
C148 C149 1.392 . S
C148 C153 1.356 . S
C149 C148 1.392 . S
C149 C150 1.368 . S
C149 H172 0.929 . S
C150 C149 1.368 . S
C150 C151 1.386 . S
C150 H173 0.929 . S
C151 C150 1.386 . S
C151 C152 1.373 . S
C152 C151 1.373 . S
C152 C153 1.409 . S
C152 H174 0.931 . S
C153 C148 1.356 . S
C153 C152 1.409 . S
C153 H175 0.930 . S
C154 O164 1.270 . S
C154 O165 1.248 . S
C155 O166 1.267 . S
C155 O167 1.278 . S
O156 Pr136 2.562 . S
O156 C138 1.254 . S
O157 Pr136 2.490 . S
O157 C138 1.225 . S
O158 Pr136 2.695 1_556 S
O158 Pr137 2.436 1_546 S
O158 C145 1.270 . S
O159 Pr136 2.512 1_556 S
O159 C145 1.248 . S
O160 Pr137 2.438 1_545 S
O160 C146 1.267 . S
O161 Pr136 2.437 . S
O161 C146 1.278 . S
O162 Pr137 2.562 1_556 S
O162 C147 1.254 . S
O163 Pr137 2.490 1_556 S
O163 C147 1.225 . S
O164 Pr136 2.436 1_565 S
O164 Pr137 2.695 . S
O164 C154 1.270 . S
O165 Pr137 2.512 . S
O165 C154 1.248 . S
O166 Pr136 2.438 1_566 S
O166 C155 1.267 . S
O167 Pr137 2.437 1_556 S
O167 C155 1.278 . S
H168 C140 0.929 . S
H169 C141 0.929 . S
H170 C143 0.931 . S
H171 C144 0.930 . S
H172 C149 0.929 . S
H173 C150 0.929 . S
H174 C152 0.931 . S
H175 C153 0.930 . S
Pr176 C178 2.880 . S
Pr176 O196 2.562 . S
Pr176 O197 2.490 . S
Pr176 O198 2.695 . S
Pr176 O199 2.512 . S
Pr176 O201 2.437 . S
Pr176 O204 2.436 . S
Pr176 O206 2.438 . S
Pr177 C187 2.880 . S
Pr177 O198 2.436 . S
Pr177 O200 2.438 . S
Pr177 O202 2.562 . S
Pr177 O203 2.490 . S
Pr177 O204 2.695 . S
Pr177 O205 2.512 . S
Pr177 O207 2.437 . S
C178 Pr176 2.880 . S
C178 C179 1.491 . S
C178 O196 1.254 . S
C178 O197 1.225 . S
C179 C178 1.491 . S
C179 C180 1.392 . S
C179 C184 1.356 . S
C180 C179 1.392 . S
C180 C181 1.368 . S
C180 H208 0.929 . S
C181 C180 1.368 . S
C181 C182 1.386 . S
C181 H209 0.929 . S
C182 C181 1.386 . S
C182 C183 1.373 . S
C183 C182 1.373 . S
C183 C184 1.409 . S
C183 H210 0.931 . S
C184 C179 1.356 . S
C184 C183 1.409 . S
C184 H211 0.930 . S
C185 O198 1.270 . S
C185 O199 1.248 . S
C186 O200 1.267 . S
C186 O201 1.278 . S
C187 Pr177 2.880 . S
C187 C188 1.491 . S
C187 O202 1.254 . S
C187 O203 1.225 . S
C188 C187 1.491 . S
C188 C189 1.392 . S
C188 C193 1.356 . S
C189 C188 1.392 . S
C189 C190 1.368 . S
C189 H212 0.929 . S
C190 C189 1.368 . S
C190 C191 1.386 . S
C190 H213 0.929 . S
C191 C190 1.386 . S
C191 C192 1.373 . S
C192 C191 1.373 . S
C192 C193 1.409 . S
C192 H214 0.931 . S
C193 C188 1.356 . S
C193 C192 1.409 . S
C193 H215 0.930 . S
C194 O204 1.270 . S
C194 O205 1.248 . S
C195 O206 1.267 . S
C195 O207 1.278 . S
O196 Pr176 2.562 . S
O196 C178 1.254 . S
O197 Pr176 2.490 . S
O197 C178 1.225 . S
O198 Pr176 2.695 . S
O198 Pr177 2.436 . S
O198 C185 1.270 . S
O199 Pr176 2.512 . S
O199 C185 1.248 . S
O200 Pr177 2.438 . S
O200 C186 1.267 . S
O201 Pr176 2.437 . S
O201 C186 1.278 . S
O202 Pr177 2.562 . S
O202 C187 1.254 . S
O203 Pr177 2.490 . S
O203 C187 1.225 . S
O204 Pr176 2.436 . S
O204 Pr177 2.695 . S
O204 C194 1.270 . S
O205 Pr177 2.512 . S
O205 C194 1.248 . S
O206 Pr176 2.438 . S
O206 C195 1.267 . S
O207 Pr177 2.437 . S
O207 C195 1.278 . S
H208 C180 0.929 . S
H209 C181 0.929 . S
H210 C183 0.931 . S
H211 C184 0.930 . S
H212 C189 0.929 . S
H213 C190 0.929 . S
H214 C192 0.931 . S
H215 C193 0.930 . S
Pr216 C218 2.880 1_455 S
Pr216 O236 2.562 1_455 S
Pr216 O237 2.490 . S
Pr216 O238 2.695 1_556 S
Pr216 O239 2.512 1_556 S
Pr216 O241 2.437 1_456 S
Pr216 O244 2.436 1_455 S
Pr216 O246 2.438 . S
Pr217 C227 2.880 . S
Pr217 O238 2.436 . S
Pr217 O240 2.438 1_455 S
Pr217 O242 2.562 . S
Pr217 O243 2.490 . S
Pr217 O244 2.695 1_454 S
Pr217 O245 2.512 1_454 S
Pr217 O247 2.437 1_554 S
C218 Pr216 2.880 1_655 S
C218 C219 1.491 . S
C218 O236 1.254 . S
C218 O237 1.225 1_655 S
C219 C218 1.491 . S
C219 C220 1.392 . S
C219 C224 1.356 . S
C220 C219 1.392 . S
C220 C221 1.368 . S
C220 H248 0.929 1_655 S
C221 C220 1.368 . S
C221 C222 1.386 . S
C221 H249 0.929 . S
C222 C221 1.386 . S
C222 C223 1.373 . S
C223 C222 1.373 . S
C223 C224 1.409 . S
C223 H250 0.931 . S
C224 C219 1.356 . S
C224 C223 1.409 . S
C224 H251 0.930 . S
C225 O238 1.270 . S
C225 O239 1.248 . S
C226 O240 1.267 . S
C226 O241 1.278 . S
C227 Pr217 2.880 . S
C227 C228 1.491 . S
C227 O242 1.254 . S
C227 O243 1.225 . S
C228 C227 1.491 . S
C228 C229 1.392 . S
C228 C233 1.356 . S
C229 C228 1.392 . S
C229 C230 1.368 . S
C229 H252 0.929 . S
C230 C229 1.368 . S
C230 C231 1.386 . S
C230 H253 0.929 . S
C231 C230 1.386 . S
C231 C232 1.373 . S
C232 C231 1.373 . S
C232 C233 1.409 . S
C232 H254 0.931 . S
C233 C228 1.356 . S
C233 C232 1.409 . S
C233 H255 0.930 . S
C234 O244 1.270 . S
C234 O245 1.248 . S
C235 O246 1.267 . S
C235 O247 1.278 . S
O236 Pr216 2.562 1_655 S
O236 C218 1.254 . S
O237 Pr216 2.490 . S
O237 C218 1.225 1_455 S
O238 Pr216 2.695 1_554 S
O238 Pr217 2.436 . S
O238 C225 1.270 . S
O239 Pr216 2.512 1_554 S
O239 C225 1.248 . S
O240 Pr217 2.438 1_655 S
O240 C226 1.267 . S
O241 Pr216 2.437 1_654 S
O241 C226 1.278 . S
O242 Pr217 2.562 . S
O242 C227 1.254 . S
O243 Pr217 2.490 . S
O243 C227 1.225 . S
O244 Pr216 2.436 1_655 S
O244 Pr217 2.695 1_656 S
O244 C234 1.270 . S
O245 Pr217 2.512 1_656 S
O245 C234 1.248 . S
O246 Pr216 2.438 . S
O246 C235 1.267 . S
O247 Pr217 2.437 1_556 S
O247 C235 1.278 . S
H248 C220 0.929 1_455 S
H249 C221 0.929 . S
H250 C223 0.931 . S
H251 C224 0.930 . S
H252 C229 0.929 . S
H253 C230 0.929 . S
H254 C232 0.931 . S
H255 C233 0.930 . S
H256 C264 0.929 . S
H257 C266 0.930 . S
H258 C268 0.930 . S
H259 C271 0.929 . S
H260 C274 0.930 . S
H261 C276 0.960 . S
H262 C276 0.960 . S
H263 C276 0.960 . S
C264 H256 0.929 . S
C264 C265 1.377 . S
C264 C266 1.384 . S
C265 C264 1.377 . S
C265 C271 1.390 . S
C266 H257 0.930 . S
C266 C264 1.384 . S
C266 C267 1.372 . S
C267 C266 1.372 . S
C267 C268 1.400 . S
C267 C272 1.490 . S
C268 H258 0.930 . S
C268 C267 1.400 . S
C268 C271 1.386 . S
H269 C285 0.930 . S
H270 C286 0.931 . S
C271 H259 0.929 . S
C271 C265 1.390 . S
C271 C268 1.386 . S
C272 C267 1.490 . S
C272 C274 1.395 . S
C272 C275 1.403 . S
H273 C279 0.930 . S
C274 H260 0.930 . S
C274 C272 1.395 . S
C274 C277 1.403 . S
C275 C272 1.403 . S
C275 C276 1.524 . S
C275 C279 1.400 . S
C276 H261 0.960 . S
C276 H262 0.960 . S
C276 H263 0.960 . S
C276 C275 1.524 . S
C277 C274 1.403 . S
C277 C278 1.392 . S
C277 C281 1.495 . S
C278 C277 1.392 . S
C278 C279 1.385 . S
C278 C280 1.478 . S
C279 H273 0.930 . S
C279 C275 1.400 . S
C279 C278 1.385 . S
C280 C278 1.478 . S
C280 C282 1.381 . S
C280 C286 1.383 . S
C281 C277 1.495 . S
C281 H287 0.959 . S
C281 H288 0.961 . S
C281 H289 0.960 . S
C282 C280 1.381 . S
C282 C283 1.394 . S
C282 H290 0.930 . S
C283 C282 1.394 . S
C283 C284 1.383 . S
C283 H291 0.929 . S
C284 C283 1.383 . S
C284 C285 1.377 . S
C285 H269 0.930 . S
C285 C284 1.377 . S
C285 C286 1.379 . S
C286 H270 0.931 . S
C286 C280 1.383 . S
C286 C285 1.379 . S
H287 C281 0.959 . S
H288 C281 0.961 . S
H289 C281 0.960 . S
H290 C282 0.930 . S
H291 C283 0.929 . S
H292 C300 0.929 . S
H293 C302 0.930 . S
H294 C304 0.930 . S
H295 C307 0.929 . S
H296 C310 0.930 . S
H297 C312 0.960 . S
H298 C312 0.960 . S
H299 C312 0.960 . S
C300 H292 0.929 . S
C300 C301 1.377 . S
C300 C302 1.384 . S
C301 C300 1.377 . S
C301 C307 1.390 . S
C302 H293 0.930 . S
C302 C300 1.384 . S
C302 C303 1.372 . S
C303 C302 1.372 . S
C303 C304 1.400 . S
C303 C308 1.490 . S
C304 H294 0.930 . S
C304 C303 1.400 . S
C304 C307 1.386 . S
H305 C321 0.930 . S
H306 C322 0.931 . S
C307 H295 0.929 . S
C307 C301 1.390 . S
C307 C304 1.386 . S
C308 C303 1.490 . S
C308 C310 1.395 . S
C308 C311 1.403 . S
H309 C315 0.930 . S
C310 H296 0.930 . S
C310 C308 1.395 . S
C310 C313 1.403 . S
C311 C308 1.403 . S
C311 C312 1.524 . S
C311 C315 1.400 . S
C312 H297 0.960 . S
C312 H298 0.960 . S
C312 H299 0.960 . S
C312 C311 1.524 . S
C313 C310 1.403 . S
C313 C314 1.392 . S
C313 C317 1.495 . S
C314 C313 1.392 . S
C314 C315 1.385 . S
C314 C316 1.478 . S
C315 H309 0.930 . S
C315 C311 1.400 . S
C315 C314 1.385 . S
C316 C314 1.478 . S
C316 C318 1.381 . S
C316 C322 1.383 . S
C317 C313 1.495 . S
C317 H323 0.959 . S
C317 H324 0.961 . S
C317 H325 0.960 . S
C318 C316 1.381 . S
C318 C319 1.394 . S
C318 H326 0.930 . S
C319 C318 1.394 . S
C319 C320 1.383 . S
C319 H327 0.929 . S
C320 C319 1.383 . S
C320 C321 1.377 . S
C321 H305 0.930 . S
C321 C320 1.377 . S
C321 C322 1.379 . S
C322 H306 0.931 . S
C322 C316 1.383 . S
C322 C321 1.379 . S
H323 C317 0.959 . S
H324 C317 0.961 . S
H325 C317 0.960 . S
H326 C318 0.930 . S
H327 C319 0.929 . S
H328 C336 0.929 . S
H329 C338 0.930 . S
H330 C340 0.930 . S
H331 C343 0.929 . S
H332 C346 0.930 . S
H333 C348 0.960 . S
H334 C348 0.960 . S
H335 C348 0.960 . S
C336 H328 0.929 . S
C336 C337 1.377 . S
C336 C338 1.384 . S
C337 C336 1.377 . S
C337 C343 1.390 . S
C338 H329 0.930 . S
C338 C336 1.384 . S
C338 C339 1.372 . S
C339 C338 1.372 . S
C339 C340 1.400 . S
C339 C344 1.490 . S
C340 H330 0.930 . S
C340 C339 1.400 . S
C340 C343 1.386 . S
H341 C357 0.930 . S
H342 C358 0.931 . S
C343 H331 0.929 . S
C343 C337 1.390 . S
C343 C340 1.386 . S
C344 C339 1.490 . S
C344 C346 1.395 . S
C344 C347 1.403 . S
H345 C351 0.930 . S
C346 H332 0.930 . S
C346 C344 1.395 . S
C346 C349 1.403 . S
C347 C344 1.403 . S
C347 C348 1.524 . S
C347 C351 1.400 . S
C348 H333 0.960 . S
C348 H334 0.960 . S
C348 H335 0.960 . S
C348 C347 1.524 . S
C349 C346 1.403 . S
C349 C350 1.392 . S
C349 C353 1.495 . S
C350 C349 1.392 . S
C350 C351 1.385 . S
C350 C352 1.478 . S
C351 H345 0.930 . S
C351 C347 1.400 . S
C351 C350 1.385 . S
C352 C350 1.478 . S
C352 C354 1.381 . S
C352 C358 1.383 . S
C353 C349 1.495 . S
C353 H359 0.959 . S
C353 H360 0.961 . S
C353 H361 0.960 . S
C354 C352 1.381 . S
C354 C355 1.394 . S
C354 H362 0.930 . S
C355 C354 1.394 . S
C355 C356 1.383 . S
C355 H363 0.929 . S
C356 C355 1.383 . S
C356 C357 1.377 . S
C357 H341 0.930 . S
C357 C356 1.377 . S
C357 C358 1.379 . S
C358 H342 0.931 . S
C358 C352 1.383 . S
C358 C357 1.379 . S
H359 C353 0.959 . S
H360 C353 0.961 . S
H361 C353 0.960 . S
H362 C354 0.930 . S
H363 C355 0.929 . S
H364 C372 0.929 . S
H365 C374 0.930 . S
H366 C376 0.930 . S
H367 C379 0.929 . S
H368 C382 0.930 . S
H369 C384 0.960 . S
H370 C384 0.960 . S
H371 C384 0.960 . S
C372 H364 0.929 . S
C372 C373 1.377 . S
C372 C374 1.384 . S
C373 C372 1.377 . S
C373 C379 1.390 . S
C374 H365 0.930 . S
C374 C372 1.384 . S
C374 C375 1.372 . S
C375 C374 1.372 . S
C375 C376 1.400 . S
C375 C380 1.490 . S
C376 H366 0.930 . S
C376 C375 1.400 . S
C376 C379 1.386 . S
H377 C393 0.930 . S
H378 C394 0.931 . S
C379 H367 0.929 . S
C379 C373 1.390 . S
C379 C376 1.386 . S
C380 C375 1.490 . S
C380 C382 1.395 . S
C380 C383 1.403 . S
H381 C387 0.930 . S
C382 H368 0.930 . S
C382 C380 1.395 . S
C382 C385 1.403 . S
C383 C380 1.403 . S
C383 C384 1.524 . S
C383 C387 1.400 . S
C384 H369 0.960 . S
C384 H370 0.960 . S
C384 H371 0.960 . S
C384 C383 1.524 . S
C385 C382 1.403 . S
C385 C386 1.392 . S
C385 C389 1.495 . S
C386 C385 1.392 . S
C386 C387 1.385 . S
C386 C388 1.478 . S
C387 H381 0.930 . S
C387 C383 1.400 . S
C387 C386 1.385 . S
C388 C386 1.478 . S
C388 C390 1.381 . S
C388 C394 1.383 . S
C389 C385 1.495 . S
C389 H395 0.959 . S
C389 H396 0.961 . S
C389 H397 0.960 . S
C390 C388 1.381 . S
C390 C391 1.394 . S
C390 H398 0.930 . S
C391 C390 1.394 . S
C391 C392 1.383 . S
C391 H399 0.929 . S
C392 C391 1.383 . S
C392 C393 1.377 . S
C393 H377 0.930 . S
C393 C392 1.377 . S
C393 C394 1.379 . S
C394 H378 0.931 . S
C394 C388 1.383 . S
C394 C393 1.379 . S
H395 C389 0.959 . S
H396 C389 0.961 . S
H397 C389 0.960 . S
H398 C390 0.930 . S
H399 C391 0.929 . S
H400 C408 0.929 . S
H401 C410 0.930 . S
H402 C412 0.930 . S
H403 C415 0.929 . S
H404 C418 0.930 . S
H405 C420 0.960 . S
H406 C420 0.960 . S
H407 C420 0.960 . S
C408 H400 0.929 . S
C408 C409 1.377 . S
C408 C410 1.384 . S
C409 C408 1.377 . S
C409 C415 1.390 . S
C410 H401 0.930 . S
C410 C408 1.384 . S
C410 C411 1.372 . S
C411 C410 1.372 . S
C411 C412 1.400 . S
C411 C416 1.490 . S
C412 H402 0.930 . S
C412 C411 1.400 . S
C412 C415 1.386 . S
H413 C429 0.930 . S
H414 C430 0.931 . S
C415 H403 0.929 . S
C415 C409 1.390 . S
C415 C412 1.386 . S
C416 C411 1.490 . S
C416 C418 1.395 . S
C416 C419 1.403 . S
H417 C423 0.930 . S
C418 H404 0.930 . S
C418 C416 1.395 . S
C418 C421 1.403 . S
C419 C416 1.403 . S
C419 C420 1.524 . S
C419 C423 1.400 . S
C420 H405 0.960 . S
C420 H406 0.960 . S
C420 H407 0.960 . S
C420 C419 1.524 . S
C421 C418 1.403 . S
C421 C422 1.392 . S
C421 C425 1.495 . S
C422 C421 1.392 . S
C422 C423 1.385 . S
C422 C424 1.478 . S
C423 H417 0.930 . S
C423 C419 1.400 . S
C423 C422 1.385 . S
C424 C422 1.478 . S
C424 C426 1.381 . S
C424 C430 1.383 . S
C425 C421 1.495 . S
C425 H431 0.959 . S
C425 H432 0.961 . S
C425 H433 0.960 . S
C426 C424 1.381 . S
C426 C427 1.394 . S
C426 H434 0.930 . S
C427 C426 1.394 . S
C427 C428 1.383 . S
C427 H435 0.929 . S
C428 C427 1.383 . S
C428 C429 1.377 . S
C429 H413 0.930 . S
C429 C428 1.377 . S
C429 C430 1.379 . S
C430 H414 0.931 . S
C430 C424 1.383 . S
C430 C429 1.379 . S
H431 C425 0.959 . S
H432 C425 0.961 . S
H433 C425 0.960 . S
H434 C426 0.930 . S
H435 C427 0.929 . S
H436 C444 0.929 . S
H437 C446 0.930 . S
H438 C448 0.930 . S
H439 C451 0.929 . S
H440 C454 0.930 . S
H441 C456 0.960 . S
H442 C456 0.960 . S
H443 C456 0.960 . S
C444 H436 0.929 . S
C444 C445 1.377 . S
C444 C446 1.384 . S
C445 C444 1.377 . S
C445 C451 1.390 . S
C446 H437 0.930 . S
C446 C444 1.384 . S
C446 C447 1.372 . S
C447 C446 1.372 . S
C447 C448 1.400 . S
C447 C452 1.490 . S
C448 H438 0.930 . S
C448 C447 1.400 . S
C448 C451 1.386 . S
H449 C465 0.930 . S
H450 C466 0.931 . S
C451 H439 0.929 . S
C451 C445 1.390 . S
C451 C448 1.386 . S
C452 C447 1.490 . S
C452 C454 1.395 . S
C452 C455 1.403 . S
H453 C459 0.930 . S
C454 H440 0.930 . S
C454 C452 1.395 . S
C454 C457 1.403 . S
C455 C452 1.403 . S
C455 C456 1.524 . S
C455 C459 1.400 . S
C456 H441 0.960 . S
C456 H442 0.960 . S
C456 H443 0.960 . S
C456 C455 1.524 . S
C457 C454 1.403 . S
C457 C458 1.392 . S
C457 C461 1.495 . S
C458 C457 1.392 . S
C458 C459 1.385 . S
C458 C460 1.478 . S
C459 H453 0.930 . S
C459 C455 1.400 . S
C459 C458 1.385 . S
C460 C458 1.478 . S
C460 C462 1.381 . S
C460 C466 1.383 . S
C461 C457 1.495 . S
C461 H467 0.959 . S
C461 H468 0.961 . S
C461 H469 0.960 . S
C462 C460 1.381 . S
C462 C463 1.394 . S
C462 H470 0.930 . S
C463 C462 1.394 . S
C463 C464 1.383 . S
C463 H471 0.929 . S
C464 C463 1.383 . S
C464 C465 1.377 . S
C465 H449 0.930 . S
C465 C464 1.377 . S
C465 C466 1.379 . S
C466 H450 0.931 . S
C466 C460 1.383 . S
C466 C465 1.379 . S
H467 C461 0.959 . S
H468 C461 0.961 . S
H469 C461 0.960 . S
H470 C462 0.930 . S
H471 C463 0.929 . S
H472 C480 0.929 . S
H473 C482 0.930 . S
H474 C484 0.930 . S
H475 C487 0.929 . S
H476 C490 0.930 . S
H477 C492 0.960 . S
H478 C492 0.960 . S
H479 C492 0.960 . S
C480 H472 0.929 . S
C480 C481 1.377 . S
C480 C482 1.384 . S
C481 C480 1.377 . S
C481 C487 1.390 . S
C482 H473 0.930 . S
C482 C480 1.384 . S
C482 C483 1.372 . S
C483 C482 1.372 . S
C483 C484 1.400 . S
C483 C488 1.490 . S
C484 H474 0.930 . S
C484 C483 1.400 . S
C484 C487 1.386 . S
H485 C501 0.930 . S
H486 C502 0.931 . S
C487 H475 0.929 . S
C487 C481 1.390 . S
C487 C484 1.386 . S
C488 C483 1.490 . S
C488 C490 1.395 . S
C488 C491 1.403 . S
H489 C495 0.930 . S
C490 H476 0.930 . S
C490 C488 1.395 . S
C490 C493 1.403 . S
C491 C488 1.403 . S
C491 C492 1.524 . S
C491 C495 1.400 . S
C492 H477 0.960 . S
C492 H478 0.960 . S
C492 H479 0.960 . S
C492 C491 1.524 . S
C493 C490 1.403 . S
C493 C494 1.392 . S
C493 C497 1.495 . S
C494 C493 1.392 . S
C494 C495 1.385 . S
C494 C496 1.478 . S
C495 H489 0.930 . S
C495 C491 1.400 . S
C495 C494 1.385 . S
C496 C494 1.478 . S
C496 C498 1.381 . S
C496 C502 1.383 . S
C497 C493 1.495 . S
C497 H503 0.959 . S
C497 H504 0.961 . S
C497 H505 0.960 . S
C498 C496 1.381 . S
C498 C499 1.394 . S
C498 H506 0.930 . S
C499 C498 1.394 . S
C499 C500 1.383 . S
C499 H507 0.929 . S
C500 C499 1.383 . S
C500 C501 1.377 . S
C501 H485 0.930 . S
C501 C500 1.377 . S
C501 C502 1.379 . S
C502 H486 0.931 . S
C502 C496 1.383 . S
C502 C501 1.379 . S
H503 C497 0.959 . S
H504 C497 0.961 . S
H505 C497 0.960 . S
H506 C498 0.930 . S
H507 C499 0.929 . S
H508 C516 0.929 . S
H509 C518 0.930 . S
H510 C520 0.930 . S
H511 C523 0.929 . S
H512 C526 0.930 . S
H513 C528 0.960 . S
H514 C528 0.960 . S
H515 C528 0.960 . S
C516 H508 0.929 . S
C516 C517 1.377 . S
C516 C518 1.384 . S
C517 C516 1.377 . S
C517 C523 1.390 . S
C518 H509 0.930 . S
C518 C516 1.384 . S
C518 C519 1.372 . S
C519 C518 1.372 . S
C519 C520 1.400 . S
C519 C524 1.490 . S
C520 H510 0.930 . S
C520 C519 1.400 . S
C520 C523 1.386 . S
H521 C537 0.930 . S
H522 C538 0.931 . S
C523 H511 0.929 . S
C523 C517 1.390 . S
C523 C520 1.386 . S
C524 C519 1.490 . S
C524 C526 1.395 . S
C524 C527 1.403 . S
H525 C531 0.930 . S
C526 H512 0.930 . S
C526 C524 1.395 . S
C526 C529 1.403 . S
C527 C524 1.403 . S
C527 C528 1.524 . S
C527 C531 1.400 . S
C528 H513 0.960 . S
C528 H514 0.960 . S
C528 H515 0.960 . S
C528 C527 1.524 . S
C529 C526 1.403 . S
C529 C530 1.392 . S
C529 C533 1.495 . S
C530 C529 1.392 . S
C530 C531 1.385 . S
C530 C532 1.478 . S
C531 H525 0.930 . S
C531 C527 1.400 . S
C531 C530 1.385 . S
C532 C530 1.478 . S
C532 C534 1.381 . S
C532 C538 1.383 . S
C533 C529 1.495 . S
C533 H539 0.959 . S
C533 H540 0.961 . S
C533 H541 0.960 . S
C534 C532 1.381 . S
C534 C535 1.394 . S
C534 H542 0.930 . S
C535 C534 1.394 . S
C535 C536 1.383 . S
C535 H543 0.929 . S
C536 C535 1.383 . S
C536 C537 1.377 . S
C537 H521 0.930 . S
C537 C536 1.377 . S
C537 C538 1.379 . S
C538 H522 0.931 . S
C538 C532 1.383 . S
C538 C537 1.379 . S
H539 C533 0.959 . S
H540 C533 0.961 . S
H541 C533 0.960 . S
H542 C534 0.930 . S
H543 C535 0.929 . S
H544 C552 0.929 . S
H545 C554 0.930 . S
H546 C556 0.930 . S
H547 C559 0.929 . S
H548 C562 0.930 . S
H549 C564 0.960 . S
H550 C564 0.960 . S
H551 C564 0.960 . S
C552 H544 0.929 . S
C552 C553 1.377 . S
C552 C554 1.384 . S
C553 C552 1.377 . S
C553 C559 1.390 . S
C554 H545 0.930 . S
C554 C552 1.384 . S
C554 C555 1.372 . S
C555 C554 1.372 . S
C555 C556 1.400 . S
C555 C560 1.490 . S
C556 H546 0.930 . S
C556 C555 1.400 . S
C556 C559 1.386 . S
H557 C573 0.930 . S
H558 C574 0.931 . S
C559 H547 0.929 . S
C559 C553 1.390 . S
C559 C556 1.386 . S
C560 C555 1.490 . S
C560 C562 1.395 . S
C560 C563 1.403 . S
H561 C567 0.930 . S
C562 H548 0.930 . S
C562 C560 1.395 . S
C562 C565 1.403 . S
C563 C560 1.403 . S
C563 C564 1.524 . S
C563 C567 1.400 . S
C564 H549 0.960 . S
C564 H550 0.960 . S
C564 H551 0.960 . S
C564 C563 1.524 . S
C565 C562 1.403 . S
C565 C566 1.392 . S
C565 C569 1.495 . S
C566 C565 1.392 . S
C566 C567 1.385 . S
C566 C568 1.478 . S
C567 H561 0.930 . S
C567 C563 1.400 . S
C567 C566 1.385 . S
C568 C566 1.478 . S
C568 C570 1.381 . S
C568 C574 1.383 . S
C569 C565 1.495 . S
C569 H575 0.959 . S
C569 H576 0.961 . S
C569 H577 0.960 . S
C570 C568 1.381 . S
C570 C571 1.394 . S
C570 H578 0.930 . S
C571 C570 1.394 . S
C571 C572 1.383 . S
C571 H579 0.929 . S
C572 C571 1.383 . S
C572 C573 1.377 . S
C573 H557 0.930 . S
C573 C572 1.377 . S
C573 C574 1.379 . S
C574 H558 0.931 . S
C574 C568 1.383 . S
C574 C573 1.379 . S
H575 C569 0.959 . S
H576 C569 0.961 . S
H577 C569 0.960 . S
H578 C570 0.930 . S
H579 C571 0.929 . S
H580 C588 0.929 . S
H581 C590 0.930 . S
H582 C592 0.930 . S
H583 C595 0.929 . S
H584 C598 0.930 . S
H585 C600 0.960 . S
H586 C600 0.960 . S
H587 C600 0.960 . S
C588 H580 0.929 . S
C588 C589 1.377 . S
C588 C590 1.384 . S
C589 C588 1.377 . S
C589 C595 1.390 . S
C590 H581 0.930 . S
C590 C588 1.384 . S
C590 C591 1.372 . S
C591 C590 1.372 . S
C591 C592 1.400 . S
C591 C596 1.490 . S
C592 H582 0.930 . S
C592 C591 1.400 . S
C592 C595 1.386 . S
H593 C609 0.930 . S
H594 C610 0.931 . S
C595 H583 0.929 . S
C595 C589 1.390 . S
C595 C592 1.386 . S
C596 C591 1.490 . S
C596 C598 1.395 . S
C596 C599 1.403 . S
H597 C603 0.930 . S
C598 H584 0.930 . S
C598 C596 1.395 . S
C598 C601 1.403 . S
C599 C596 1.403 . S
C599 C600 1.524 . S
C599 C603 1.400 . S
C600 H585 0.960 . S
C600 H586 0.960 . S
C600 H587 0.960 . S
C600 C599 1.524 . S
C601 C598 1.403 . S
C601 C602 1.392 . S
C601 C605 1.495 . S
C602 C601 1.392 . S
C602 C603 1.385 . S
C602 C604 1.478 . S
C603 H597 0.930 . S
C603 C599 1.400 . S
C603 C602 1.385 . S
C604 C602 1.478 . S
C604 C606 1.381 . S
C604 C610 1.383 . S
C605 C601 1.495 . S
C605 H611 0.959 . S
C605 H612 0.961 . S
C605 H613 0.960 . S
C606 C604 1.381 . S
C606 C607 1.394 . S
C606 H614 0.930 . S
C607 C606 1.394 . S
C607 C608 1.383 . S
C607 H615 0.929 . S
C608 C607 1.383 . S
C608 C609 1.377 . S
C609 H593 0.930 . S
C609 C608 1.377 . S
C609 C610 1.379 . S
C610 H594 0.931 . S
C610 C604 1.383 . S
C610 C609 1.379 . S
H611 C605 0.959 . S
H612 C605 0.961 . S
H613 C605 0.960 . S
H614 C606 0.930 . S
H615 C607 0.929 . S
H616 C624 0.929 . S
H617 C626 0.930 . S
H618 C628 0.930 . S
H619 C631 0.929 . S
H620 C634 0.930 . S
H621 C636 0.960 . S
H622 C636 0.960 . S
H623 C636 0.960 . S
C624 H616 0.929 . S
C624 C625 1.377 . S
C624 C626 1.384 . S
C625 C624 1.377 . S
C625 C631 1.390 . S
C626 H617 0.930 . S
C626 C624 1.384 . S
C626 C627 1.372 . S
C627 C626 1.372 . S
C627 C628 1.400 . S
C627 C632 1.490 . S
C628 H618 0.930 . S
C628 C627 1.400 . S
C628 C631 1.386 . S
H629 C645 0.930 . S
H630 C646 0.931 . S
C631 H619 0.929 . S
C631 C625 1.390 . S
C631 C628 1.386 . S
C632 C627 1.490 . S
C632 C634 1.395 . S
C632 C635 1.403 . S
H633 C639 0.930 . S
C634 H620 0.930 . S
C634 C632 1.395 . S
C634 C637 1.403 . S
C635 C632 1.403 . S
C635 C636 1.524 . S
C635 C639 1.400 . S
C636 H621 0.960 . S
C636 H622 0.960 . S
C636 H623 0.960 . S
C636 C635 1.524 . S
C637 C634 1.403 . S
C637 C638 1.392 . S
C637 C641 1.495 . S
C638 C637 1.392 . S
C638 C639 1.385 . S
C638 C640 1.478 . S
C639 H633 0.930 . S
C639 C635 1.400 . S
C639 C638 1.385 . S
C640 C638 1.478 . S
C640 C642 1.381 . S
C640 C646 1.383 . S
C641 C637 1.495 . S
C641 H647 0.959 . S
C641 H648 0.961 . S
C641 H649 0.960 . S
C642 C640 1.381 . S
C642 C643 1.394 . S
C642 H650 0.930 . S
C643 C642 1.394 . S
C643 C644 1.383 . S
C643 H651 0.929 . S
C644 C643 1.383 . S
C644 C645 1.377 . S
C645 H629 0.930 . S
C645 C644 1.377 . S
C645 C646 1.379 . S
C646 H630 0.931 . S
C646 C640 1.383 . S
C646 C645 1.379 . S
H647 C641 0.959 . S
H648 C641 0.961 . S
H649 C641 0.960 . S
H650 C642 0.930 . S
H651 C643 0.929 . S
H652 C660 0.929 . S
H653 C662 0.930 . S
H654 C664 0.930 . S
H655 C667 0.929 . S
H656 C670 0.930 . S
H657 C672 0.960 . S
H658 C672 0.960 . S
H659 C672 0.960 . S
C660 H652 0.929 . S
C660 C661 1.377 . S
C660 C662 1.384 . S
C661 C660 1.377 . S
C661 C667 1.390 . S
C662 H653 0.930 . S
C662 C660 1.384 . S
C662 C663 1.372 . S
C663 C662 1.372 . S
C663 C664 1.400 . S
C663 C668 1.490 . S
C664 H654 0.930 . S
C664 C663 1.400 . S
C664 C667 1.386 . S
H665 C681 0.930 . S
H666 C682 0.931 . S
C667 H655 0.929 . S
C667 C661 1.390 . S
C667 C664 1.386 . S
C668 C663 1.490 . S
C668 C670 1.395 . S
C668 C671 1.403 . S
H669 C675 0.930 . S
C670 H656 0.930 . S
C670 C668 1.395 . S
C670 C673 1.403 . S
C671 C668 1.403 . S
C671 C672 1.524 . S
C671 C675 1.400 . S
C672 H657 0.960 . S
C672 H658 0.960 . S
C672 H659 0.960 . S
C672 C671 1.524 . S
C673 C670 1.403 . S
C673 C674 1.392 . S
C673 C677 1.495 . S
C674 C673 1.392 . S
C674 C675 1.385 . S
C674 C676 1.478 . S
C675 H669 0.930 . S
C675 C671 1.400 . S
C675 C674 1.385 . S
C676 C674 1.478 . S
C676 C678 1.381 . S
C676 C682 1.383 . S
C677 C673 1.495 . S
C677 H683 0.959 . S
C677 H684 0.961 . S
C677 H685 0.960 . S
C678 C676 1.381 . S
C678 C679 1.394 . S
C678 H686 0.930 . S
C679 C678 1.394 . S
C679 C680 1.383 . S
C679 H687 0.929 . S
C680 C679 1.383 . S
C680 C681 1.377 . S
C681 H665 0.930 . S
C681 C680 1.377 . S
C681 C682 1.379 . S
C682 H666 0.931 . S
C682 C676 1.383 . S
C682 C681 1.379 . S
H683 C677 0.959 . S
H684 C677 0.961 . S
H685 C677 0.960 . S
H686 C678 0.930 . S
H687 C679 0.929 . S
H688 C696 0.929 . S
H689 C698 0.930 . S
H690 C700 0.930 . S
H691 C703 0.929 . S
H692 C706 0.930 . S
H693 C708 0.960 . S
H694 C708 0.960 . S
H695 C708 0.960 . S
C696 H688 0.929 . S
C696 C697 1.377 . S
C696 C698 1.384 . S
C697 C696 1.377 . S
C697 C703 1.390 . S
C698 H689 0.930 . S
C698 C696 1.384 . S
C698 C699 1.372 . S
C699 C698 1.372 . S
C699 C700 1.400 . S
C699 C704 1.490 . S
C700 H690 0.930 . S
C700 C699 1.400 . S
C700 C703 1.386 . S
H701 C717 0.930 . S
H702 C718 0.931 . S
C703 H691 0.929 . S
C703 C697 1.390 . S
C703 C700 1.386 . S
C704 C699 1.490 . S
C704 C706 1.395 . S
C704 C707 1.403 . S
H705 C711 0.930 . S
C706 H692 0.930 . S
C706 C704 1.395 . S
C706 C709 1.403 . S
C707 C704 1.403 . S
C707 C708 1.524 . S
C707 C711 1.400 . S
C708 H693 0.960 . S
C708 H694 0.960 . S
C708 H695 0.960 . S
C708 C707 1.524 . S
C709 C706 1.403 . S
C709 C710 1.392 . S
C709 C713 1.495 . S
C710 C709 1.392 . S
C710 C711 1.385 . S
C710 C712 1.478 . S
C711 H705 0.930 . S
C711 C707 1.400 . S
C711 C710 1.385 . S
C712 C710 1.478 . S
C712 C714 1.381 . S
C712 C718 1.383 . S
C713 C709 1.495 . S
C713 H719 0.959 . S
C713 H720 0.961 . S
C713 H721 0.960 . S
C714 C712 1.381 . S
C714 C715 1.394 . S
C714 H722 0.930 . S
C715 C714 1.394 . S
C715 C716 1.383 . S
C715 H723 0.929 . S
C716 C715 1.383 . S
C716 C717 1.377 . S
C717 H701 0.930 . S
C717 C716 1.377 . S
C717 C718 1.379 . S
C718 H702 0.931 . S
C718 C712 1.383 . S
C718 C717 1.379 . S
H719 C713 0.959 . S
H720 C713 0.961 . S
H721 C713 0.960 . S
H722 C714 0.930 . S
H723 C715 0.929 . S
H724 C732 0.929 . S
H725 C734 0.930 . S
H726 C736 0.930 . S
H727 C739 0.929 . S
H728 C742 0.930 . S
H729 C744 0.960 . S
H730 C744 0.960 . S
H731 C744 0.960 . S
C732 H724 0.929 . S
C732 C733 1.377 . S
C732 C734 1.384 . S
C733 C732 1.377 . S
C733 C739 1.390 . S
C734 H725 0.930 . S
C734 C732 1.384 . S
C734 C735 1.372 . S
C735 C734 1.372 . S
C735 C736 1.400 . S
C735 C740 1.490 . S
C736 H726 0.930 . S
C736 C735 1.400 . S
C736 C739 1.386 . S
H737 C753 0.930 . S
H738 C754 0.931 . S
C739 H727 0.929 . S
C739 C733 1.390 . S
C739 C736 1.386 . S
C740 C735 1.490 . S
C740 C742 1.395 . S
C740 C743 1.403 . S
H741 C747 0.930 . S
C742 H728 0.930 . S
C742 C740 1.395 . S
C742 C745 1.403 . S
C743 C740 1.403 . S
C743 C744 1.524 . S
C743 C747 1.400 . S
C744 H729 0.960 . S
C744 H730 0.960 . S
C744 H731 0.960 . S
C744 C743 1.524 . S
C745 C742 1.403 . S
C745 C746 1.392 . S
C745 C749 1.495 . S
C746 C745 1.392 . S
C746 C747 1.385 . S
C746 C748 1.478 . S
C747 H741 0.930 . S
C747 C743 1.400 . S
C747 C746 1.385 . S
C748 C746 1.478 . S
C748 C750 1.381 . S
C748 C754 1.383 . S
C749 C745 1.495 . S
C749 H755 0.959 . S
C749 H756 0.961 . S
C749 H757 0.960 . S
C750 C748 1.381 . S
C750 C751 1.394 . S
C750 H758 0.930 . S
C751 C750 1.394 . S
C751 C752 1.383 . S
C751 H759 0.929 . S
C752 C751 1.383 . S
C752 C753 1.377 . S
C753 H737 0.930 . S
C753 C752 1.377 . S
C753 C754 1.379 . S
C754 H738 0.931 . S
C754 C748 1.383 . S
C754 C753 1.379 . S
H755 C749 0.959 . S
H756 C749 0.961 . S
H757 C749 0.960 . S
H758 C750 0.930 . S
H759 C751 0.929 . S
H760 C768 0.929 . S
H761 C770 0.930 . S
H762 C772 0.930 . S
H763 C775 0.929 . S
H764 C778 0.930 . S
H765 C780 0.960 . S
H766 C780 0.960 . S
H767 C780 0.960 . S
C768 H760 0.929 . S
C768 C769 1.377 . S
C768 C770 1.384 . S
C769 C768 1.377 . S
C769 C775 1.390 . S
C770 H761 0.930 . S
C770 C768 1.384 . S
C770 C771 1.372 . S
C771 C770 1.372 . S
C771 C772 1.400 . S
C771 C776 1.490 . S
C772 H762 0.930 . S
C772 C771 1.400 . S
C772 C775 1.386 . S
H773 C789 0.930 . S
H774 C790 0.931 . S
C775 H763 0.929 . S
C775 C769 1.390 . S
C775 C772 1.386 . S
C776 C771 1.490 . S
C776 C778 1.395 . S
C776 C779 1.403 . S
H777 C783 0.930 . S
C778 H764 0.930 . S
C778 C776 1.395 . S
C778 C781 1.403 . S
C779 C776 1.403 . S
C779 C780 1.524 . S
C779 C783 1.400 . S
C780 H765 0.960 . S
C780 H766 0.960 . S
C780 H767 0.960 . S
C780 C779 1.524 . S
C781 C778 1.403 . S
C781 C782 1.392 . S
C781 C785 1.495 . S
C782 C781 1.392 . S
C782 C783 1.385 . S
C782 C784 1.478 . S
C783 H777 0.930 . S
C783 C779 1.400 . S
C783 C782 1.385 . S
C784 C782 1.478 . S
C784 C786 1.381 . S
C784 C790 1.383 . S
C785 C781 1.495 . S
C785 H791 0.959 . S
C785 H792 0.961 . S
C785 H793 0.960 . S
C786 C784 1.381 . S
C786 C787 1.394 . S
C786 H794 0.930 . S
C787 C786 1.394 . S
C787 C788 1.383 . S
C787 H795 0.929 . S
C788 C787 1.383 . S
C788 C789 1.377 . S
C789 H773 0.930 . S
C789 C788 1.377 . S
C789 C790 1.379 . S
C790 H774 0.931 . S
C790 C784 1.383 . S
C790 C789 1.379 . S
H791 C785 0.959 . S
H792 C785 0.961 . S
H793 C785 0.960 . S
H794 C786 0.930 . S
H795 C787 0.929 . S
H796 C804 0.929 . S
H797 C806 0.930 . S
H798 C808 0.930 . S
H799 C811 0.929 . S
H800 C814 0.930 . S
H801 C816 0.960 . S
H802 C816 0.960 . S
H803 C816 0.960 . S
C804 H796 0.929 . S
C804 C805 1.377 . S
C804 C806 1.384 . S
C805 C804 1.377 . S
C805 C811 1.390 . S
C806 H797 0.930 . S
C806 C804 1.384 . S
C806 C807 1.372 . S
C807 C806 1.372 . S
C807 C808 1.400 . S
C807 C812 1.490 . S
C808 H798 0.930 . S
C808 C807 1.400 . S
C808 C811 1.386 . S
H809 C825 0.930 . S
H810 C826 0.931 . S
C811 H799 0.929 . S
C811 C805 1.390 . S
C811 C808 1.386 . S
C812 C807 1.490 . S
C812 C814 1.395 . S
C812 C815 1.403 . S
H813 C819 0.930 . S
C814 H800 0.930 . S
C814 C812 1.395 . S
C814 C817 1.403 . S
C815 C812 1.403 . S
C815 C816 1.524 . S
C815 C819 1.400 . S
C816 H801 0.960 . S
C816 H802 0.960 . S
C816 H803 0.960 . S
C816 C815 1.524 . S
C817 C814 1.403 . S
C817 C818 1.392 . S
C817 C821 1.495 . S
C818 C817 1.392 . S
C818 C819 1.385 . S
C818 C820 1.478 . S
C819 H813 0.930 . S
C819 C815 1.400 . S
C819 C818 1.385 . S
C820 C818 1.478 . S
C820 C822 1.381 . S
C820 C826 1.383 . S
C821 C817 1.495 . S
C821 H827 0.959 . S
C821 H828 0.961 . S
C821 H829 0.960 . S
C822 C820 1.381 . S
C822 C823 1.394 . S
C822 H830 0.930 . S
C823 C822 1.394 . S
C823 C824 1.383 . S
C823 H831 0.929 . S
C824 C823 1.383 . S
C824 C825 1.377 . S
C825 H809 0.930 . S
C825 C824 1.377 . S
C825 C826 1.379 . S
C826 H810 0.931 . S
C826 C820 1.383 . S
C826 C825 1.379 . S
H827 C821 0.959 . S
H828 C821 0.961 . S
H829 C821 0.960 . S
H830 C822 0.930 . S
H831 C823 0.929 . S
H832 C840 0.929 . S
H833 C842 0.930 . S
H834 C844 0.930 . S
H835 C847 0.929 . S
H836 C850 0.930 . S
H837 C852 0.960 . S
H838 C852 0.960 . S
H839 C852 0.960 . S
C840 H832 0.929 . S
C840 C841 1.377 . S
C840 C842 1.384 . S
C841 C840 1.377 . S
C841 C847 1.390 . S
C842 H833 0.930 . S
C842 C840 1.384 . S
C842 C843 1.372 . S
C843 C842 1.372 . S
C843 C844 1.400 . S
C843 C848 1.490 . S
C844 H834 0.930 . S
C844 C843 1.400 . S
C844 C847 1.386 . S
H845 C861 0.930 . S
H846 C862 0.931 . S
C847 H835 0.929 . S
C847 C841 1.390 . S
C847 C844 1.386 . S
C848 C843 1.490 . S
C848 C850 1.395 . S
C848 C851 1.403 . S
H849 C855 0.930 . S
C850 H836 0.930 . S
C850 C848 1.395 . S
C850 C853 1.403 . S
C851 C848 1.403 . S
C851 C852 1.524 . S
C851 C855 1.400 . S
C852 H837 0.960 . S
C852 H838 0.960 . S
C852 H839 0.960 . S
C852 C851 1.524 . S
C853 C850 1.403 . S
C853 C854 1.392 . S
C853 C857 1.495 . S
C854 C853 1.392 . S
C854 C855 1.385 . S
C854 C856 1.478 . S
C855 H849 0.930 . S
C855 C851 1.400 . S
C855 C854 1.385 . S
C856 C854 1.478 . S
C856 C858 1.381 . S
C856 C862 1.383 . S
C857 C853 1.495 . S
C857 H863 0.959 . S
C857 H864 0.961 . S
C857 H865 0.960 . S
C858 C856 1.381 . S
C858 C859 1.394 . S
C858 H866 0.930 . S
C859 C858 1.394 . S
C859 C860 1.383 . S
C859 H867 0.929 . S
C860 C859 1.383 . S
C860 C861 1.377 . S
C861 H845 0.930 . S
C861 C860 1.377 . S
C861 C862 1.379 . S
C862 H846 0.931 . S
C862 C856 1.383 . S
C862 C861 1.379 . S
H863 C857 0.959 . S
H864 C857 0.961 . S
H865 C857 0.960 . S
H866 C858 0.930 . S
H867 C859 0.929 . S
H868 C876 0.929 . S
H869 C878 0.930 . S
H870 C880 0.930 . S
H871 C883 0.929 . S
H872 C886 0.930 . S
H873 C888 0.960 . S
H874 C888 0.960 . S
H875 C888 0.960 . S
C876 H868 0.929 . S
C876 C877 1.377 . S
C876 C878 1.384 . S
C877 C876 1.377 . S
C877 C883 1.390 . S
C878 H869 0.930 . S
C878 C876 1.384 . S
C878 C879 1.372 . S
C879 C878 1.372 . S
C879 C880 1.400 . S
C879 C884 1.490 . S
C880 H870 0.930 . S
C880 C879 1.400 . S
C880 C883 1.386 . S
H881 C897 0.930 . S
H882 C898 0.931 . S
C883 H871 0.929 . S
C883 C877 1.390 . S
C883 C880 1.386 . S
C884 C879 1.490 . S
C884 C886 1.395 . S
C884 C887 1.403 . S
H885 C891 0.930 . S
C886 H872 0.930 . S
C886 C884 1.395 . S
C886 C889 1.403 . S
C887 C884 1.403 . S
C887 C888 1.524 . S
C887 C891 1.400 . S
C888 H873 0.960 . S
C888 H874 0.960 . S
C888 H875 0.960 . S
C888 C887 1.524 . S
C889 C886 1.403 . S
C889 C890 1.392 . S
C889 C893 1.495 . S
C890 C889 1.392 . S
C890 C891 1.385 . S
C890 C892 1.478 . S
C891 H885 0.930 . S
C891 C887 1.400 . S
C891 C890 1.385 . S
C892 C890 1.478 . S
C892 C894 1.381 . S
C892 C898 1.383 . S
C893 C889 1.495 . S
C893 H899 0.959 . S
C893 H900 0.961 . S
C893 H901 0.960 . S
C894 C892 1.381 . S
C894 C895 1.394 . S
C894 H902 0.930 . S
C895 C894 1.394 . S
C895 C896 1.383 . S
C895 H903 0.929 . S
C896 C895 1.383 . S
C896 C897 1.377 . S
C897 H881 0.930 . S
C897 C896 1.377 . S
C897 C898 1.379 . S
C898 H882 0.931 . S
C898 C892 1.383 . S
C898 C897 1.379 . S
H899 C893 0.959 . S
H900 C893 0.961 . S
H901 C893 0.960 . S
H902 C894 0.930 . S
H903 C895 0.929 . S
H904 C912 0.929 . S
H905 C914 0.930 . S
H906 C916 0.930 . S
H907 C919 0.929 . S
H908 C922 0.930 . S
H909 C924 0.960 . S
H910 C924 0.960 . S
H911 C924 0.960 . S
C912 H904 0.929 . S
C912 C913 1.377 . S
C912 C914 1.384 . S
C913 C912 1.377 . S
C913 C919 1.390 . S
C914 H905 0.930 . S
C914 C912 1.384 . S
C914 C915 1.372 . S
C915 C914 1.372 . S
C915 C916 1.400 . S
C915 C920 1.490 . S
C916 H906 0.930 . S
C916 C915 1.400 . S
C916 C919 1.386 . S
H917 C933 0.930 . S
H918 C934 0.931 . S
C919 H907 0.929 . S
C919 C913 1.390 . S
C919 C916 1.386 . S
C920 C915 1.490 . S
C920 C922 1.395 . S
C920 C923 1.403 . S
H921 C927 0.930 . S
C922 H908 0.930 . S
C922 C920 1.395 . S
C922 C925 1.403 . S
C923 C920 1.403 . S
C923 C924 1.524 . S
C923 C927 1.400 . S
C924 H909 0.960 . S
C924 H910 0.960 . S
C924 H911 0.960 . S
C924 C923 1.524 . S
C925 C922 1.403 . S
C925 C926 1.392 . S
C925 C929 1.495 . S
C926 C925 1.392 . S
C926 C927 1.385 . S
C926 C928 1.478 . S
C927 H921 0.930 . S
C927 C923 1.400 . S
C927 C926 1.385 . S
C928 C926 1.478 . S
C928 C930 1.381 . S
C928 C934 1.383 . S
C929 C925 1.495 . S
C929 H935 0.959 . S
C929 H936 0.961 . S
C929 H937 0.960 . S
C930 C928 1.381 . S
C930 C931 1.394 . S
C930 H938 0.930 . S
C931 C930 1.394 . S
C931 C932 1.383 . S
C931 H939 0.929 . S
C932 C931 1.383 . S
C932 C933 1.377 . S
C933 H917 0.930 . S
C933 C932 1.377 . S
C933 C934 1.379 . S
C934 H918 0.931 . S
C934 C928 1.383 . S
C934 C933 1.379 . S
H935 C929 0.959 . S
H936 C929 0.961 . S
H937 C929 0.960 . S
H938 C930 0.930 . S
H939 C931 0.929 . S
H940 C948 0.929 . S
H941 C950 0.930 . S
H942 C952 0.930 . S
H943 C955 0.929 . S
H944 C958 0.930 . S
H945 C960 0.960 . S
H946 C960 0.960 . S
H947 C960 0.960 . S
C948 H940 0.929 . S
C948 C949 1.377 . S
C948 C950 1.384 . S
C949 C948 1.377 . S
C949 C955 1.390 . S
C950 H941 0.930 . S
C950 C948 1.384 . S
C950 C951 1.372 . S
C951 C950 1.372 . S
C951 C952 1.400 . S
C951 C956 1.490 . S
C952 H942 0.930 . S
C952 C951 1.400 . S
C952 C955 1.386 . S
H953 C969 0.930 . S
H954 C970 0.931 . S
C955 H943 0.929 . S
C955 C949 1.390 . S
C955 C952 1.386 . S
C956 C951 1.490 . S
C956 C958 1.395 . S
C956 C959 1.403 . S
H957 C963 0.930 . S
C958 H944 0.930 . S
C958 C956 1.395 . S
C958 C961 1.403 . S
C959 C956 1.403 . S
C959 C960 1.524 . S
C959 C963 1.400 . S
C960 H945 0.960 . S
C960 H946 0.960 . S
C960 H947 0.960 . S
C960 C959 1.524 . S
C961 C958 1.403 . S
C961 C962 1.392 . S
C961 C965 1.495 . S
C962 C961 1.392 . S
C962 C963 1.385 . S
C962 C964 1.478 . S
C963 H957 0.930 . S
C963 C959 1.400 . S
C963 C962 1.385 . S
C964 C962 1.478 . S
C964 C966 1.381 . S
C964 C970 1.383 . S
C965 C961 1.495 . S
C965 H971 0.959 . S
C965 H972 0.961 . S
C965 H973 0.960 . S
C966 C964 1.381 . S
C966 C967 1.394 . S
C966 H974 0.930 . S
C967 C966 1.394 . S
C967 C968 1.383 . S
C967 H975 0.929 . S
C968 C967 1.383 . S
C968 C969 1.377 . S
C969 H953 0.930 . S
C969 C968 1.377 . S
C969 C970 1.379 . S
C970 H954 0.931 . S
C970 C964 1.383 . S
C970 C969 1.379 . S
H971 C965 0.959 . S
H972 C965 0.961 . S
H973 C965 0.960 . S
H974 C966 0.930 . S
H975 C967 0.929 . S
H976 C984 0.929 . S
H977 C986 0.930 . S
H978 C988 0.930 . S
H979 C991 0.929 . S
H980 C994 0.930 . S
H981 C996 0.960 . S
H982 C996 0.960 . S
H983 C996 0.960 . S
C984 H976 0.929 . S
C984 C985 1.377 . S
C984 C986 1.384 . S
C985 C984 1.377 . S
C985 C991 1.390 . S
C986 H977 0.930 . S
C986 C984 1.384 . S
C986 C987 1.372 . S
C987 C986 1.372 . S
C987 C988 1.400 . S
C987 C992 1.490 . S
C988 H978 0.930 . S
C988 C987 1.400 . S
C988 C991 1.386 . S
H989 C1005 0.930 . S
H990 C1006 0.931 . S
C991 H979 0.929 . S
C991 C985 1.390 . S
C991 C988 1.386 . S
C992 C987 1.490 . S
C992 C994 1.395 . S
C992 C995 1.403 . S
H993 C999 0.930 . S
C994 H980 0.930 . S
C994 C992 1.395 . S
C994 C997 1.403 . S
C995 C992 1.403 . S
C995 C996 1.524 . S
C995 C999 1.400 . S
C996 H981 0.960 . S
C996 H982 0.960 . S
C996 H983 0.960 . S
C996 C995 1.524 . S
C997 C994 1.403 . S
C997 C998 1.392 . S
C997 C1001 1.495 . S
C998 C997 1.392 . S
C998 C999 1.385 . S
C998 C1000 1.478 . S
C999 H993 0.930 . S
C999 C995 1.400 . S
C999 C998 1.385 . S
C1000 C998 1.478 . S
C1000 C1002 1.381 . S
C1000 C1006 1.383 . S
C1001 C997 1.495 . S
C1001 H1007 0.959 . S
C1001 H1008 0.961 . S
C1001 H1009 0.960 . S
C1002 C1000 1.381 . S
C1002 C1003 1.394 . S
C1002 H1010 0.930 . S
C1003 C1002 1.394 . S
C1003 C1004 1.383 . S
C1003 H1011 0.929 . S
C1004 C1003 1.383 . S
C1004 C1005 1.377 . S
C1005 H989 0.930 . S
C1005 C1004 1.377 . S
C1005 C1006 1.379 . S
C1006 H990 0.931 . S
C1006 C1000 1.383 . S
C1006 C1005 1.379 . S
H1007 C1001 0.959 . S
H1008 C1001 0.961 . S
H1009 C1001 0.960 . S
H1010 C1002 0.930 . S
H1011 C1003 0.929 . S
H1012 C1020 0.929 . S
H1013 C1022 0.930 . S
H1014 C1024 0.930 . S
H1015 C1027 0.929 . S
H1016 C1030 0.930 . S
H1017 C1032 0.960 . S
H1018 C1032 0.960 . S
H1019 C1032 0.960 . S
C1020 H1012 0.929 . S
C1020 C1021 1.377 . S
C1020 C1022 1.384 . S
C1021 C1020 1.377 . S
C1021 C1027 1.390 . S
C1022 H1013 0.930 . S
C1022 C1020 1.384 . S
C1022 C1023 1.372 . S
C1023 C1022 1.372 . S
C1023 C1024 1.400 . S
C1023 C1028 1.490 . S
C1024 H1014 0.930 . S
C1024 C1023 1.400 . S
C1024 C1027 1.386 . S
H1025 C1041 0.930 . S
H1026 C1042 0.931 . S
C1027 H1015 0.929 . S
C1027 C1021 1.390 . S
C1027 C1024 1.386 . S
C1028 C1023 1.490 . S
C1028 C1030 1.395 . S
C1028 C1031 1.403 . S
H1029 C1035 0.930 . S
C1030 H1016 0.930 . S
C1030 C1028 1.395 . S
C1030 C1033 1.403 . S
C1031 C1028 1.403 . S
C1031 C1032 1.524 . S
C1031 C1035 1.400 . S
C1032 H1017 0.960 . S
C1032 H1018 0.960 . S
C1032 H1019 0.960 . S
C1032 C1031 1.524 . S
C1033 C1030 1.403 . S
C1033 C1034 1.392 . S
C1033 C1037 1.495 . S
C1034 C1033 1.392 . S
C1034 C1035 1.385 . S
C1034 C1036 1.478 . S
C1035 H1029 0.930 . S
C1035 C1031 1.400 . S
C1035 C1034 1.385 . S
C1036 C1034 1.478 . S
C1036 C1038 1.381 . S
C1036 C1042 1.383 . S
C1037 C1033 1.495 . S
C1037 H1043 0.959 . S
C1037 H1044 0.961 . S
C1037 H1045 0.960 . S
C1038 C1036 1.381 . S
C1038 C1039 1.394 . S
C1038 H1046 0.930 . S
C1039 C1038 1.394 . S
C1039 C1040 1.383 . S
C1039 H1047 0.929 . S
C1040 C1039 1.383 . S
C1040 C1041 1.377 . S
C1041 H1025 0.930 . S
C1041 C1040 1.377 . S
C1041 C1042 1.379 . S
C1042 H1026 0.931 . S
C1042 C1036 1.383 . S
C1042 C1041 1.379 . S
H1043 C1037 0.959 . S
H1044 C1037 0.961 . S
H1045 C1037 0.960 . S
H1046 C1038 0.930 . S
H1047 C1039 0.929 . S
H1048 C1056 0.929 . S
H1049 C1058 0.930 . S
H1050 C1060 0.930 . S
H1051 C1063 0.929 . S
H1052 C1066 0.930 . S
H1053 C1068 0.960 . S
H1054 C1068 0.960 . S
H1055 C1068 0.960 . S
C1056 H1048 0.929 . S
C1056 C1057 1.377 . S
C1056 C1058 1.384 . S
C1057 C1056 1.377 . S
C1057 C1063 1.390 . S
C1058 H1049 0.930 . S
C1058 C1056 1.384 . S
C1058 C1059 1.372 . S
C1059 C1058 1.372 . S
C1059 C1060 1.400 . S
C1059 C1064 1.490 . S
C1060 H1050 0.930 . S
C1060 C1059 1.400 . S
C1060 C1063 1.386 . S
H1061 C1077 0.930 . S
H1062 C1078 0.931 . S
C1063 H1051 0.929 . S
C1063 C1057 1.390 . S
C1063 C1060 1.386 . S
C1064 C1059 1.490 . S
C1064 C1066 1.395 . S
C1064 C1067 1.403 . S
H1065 C1071 0.930 . S
C1066 H1052 0.930 . S
C1066 C1064 1.395 . S
C1066 C1069 1.403 . S
C1067 C1064 1.403 . S
C1067 C1068 1.524 . S
C1067 C1071 1.400 . S
C1068 H1053 0.960 . S
C1068 H1054 0.960 . S
C1068 H1055 0.960 . S
C1068 C1067 1.524 . S
C1069 C1066 1.403 . S
C1069 C1070 1.392 . S
C1069 C1073 1.495 . S
C1070 C1069 1.392 . S
C1070 C1071 1.385 . S
C1070 C1072 1.478 . S
C1071 H1065 0.930 . S
C1071 C1067 1.400 . S
C1071 C1070 1.385 . S
C1072 C1070 1.478 . S
C1072 C1074 1.381 . S
C1072 C1078 1.383 . S
C1073 C1069 1.495 . S
C1073 H1079 0.959 . S
C1073 H1080 0.961 . S
C1073 H1081 0.960 . S
C1074 C1072 1.381 . S
C1074 C1075 1.394 . S
C1074 H1082 0.930 . S
C1075 C1074 1.394 . S
C1075 C1076 1.383 . S
C1075 H1083 0.929 . S
C1076 C1075 1.383 . S
C1076 C1077 1.377 . S
C1077 H1061 0.930 . S
C1077 C1076 1.377 . S
C1077 C1078 1.379 . S
C1078 H1062 0.931 . S
C1078 C1072 1.383 . S
C1078 C1077 1.379 . S
H1079 C1073 0.959 . S
H1080 C1073 0.961 . S
H1081 C1073 0.960 . S
H1082 C1074 0.930 . S
H1083 C1075 0.929 . S
H1084 C1092 0.929 . S
H1085 C1094 0.930 . S
H1086 C1096 0.930 . S
H1087 C1099 0.929 . S
H1088 C1102 0.930 . S
H1089 C1104 0.960 . S
H1090 C1104 0.960 . S
H1091 C1104 0.960 . S
C1092 H1084 0.929 . S
C1092 C1093 1.377 . S
C1092 C1094 1.384 . S
C1093 C1092 1.377 . S
C1093 C1099 1.390 . S
C1094 H1085 0.930 . S
C1094 C1092 1.384 . S
C1094 C1095 1.372 . S
C1095 C1094 1.372 . S
C1095 C1096 1.400 . S
C1095 C1100 1.490 . S
C1096 H1086 0.930 . S
C1096 C1095 1.400 . S
C1096 C1099 1.386 . S
H1097 C1113 0.930 . S
H1098 C1114 0.931 . S
C1099 H1087 0.929 . S
C1099 C1093 1.390 . S
C1099 C1096 1.386 . S
C1100 C1095 1.490 . S
C1100 C1102 1.395 . S
C1100 C1103 1.403 . S
H1101 C1107 0.930 . S
C1102 H1088 0.930 . S
C1102 C1100 1.395 . S
C1102 C1105 1.403 . S
C1103 C1100 1.403 . S
C1103 C1104 1.524 . S
C1103 C1107 1.400 . S
C1104 H1089 0.960 . S
C1104 H1090 0.960 . S
C1104 H1091 0.960 . S
C1104 C1103 1.524 . S
C1105 C1102 1.403 . S
C1105 C1106 1.392 . S
C1105 C1109 1.495 . S
C1106 C1105 1.392 . S
C1106 C1107 1.385 . S
C1106 C1108 1.478 . S
C1107 H1101 0.930 . S
C1107 C1103 1.400 . S
C1107 C1106 1.385 . S
C1108 C1106 1.478 . S
C1108 C1110 1.381 . S
C1108 C1114 1.383 . S
C1109 C1105 1.495 . S
C1109 H1115 0.959 . S
C1109 H1116 0.961 . S
C1109 H1117 0.960 . S
C1110 C1108 1.381 . S
C1110 C1111 1.394 . S
C1110 H1118 0.930 . S
C1111 C1110 1.394 . S
C1111 C1112 1.383 . S
C1111 H1119 0.929 . S
C1112 C1111 1.383 . S
C1112 C1113 1.377 . S
C1113 H1097 0.930 . S
C1113 C1112 1.377 . S
C1113 C1114 1.379 . S
C1114 H1098 0.931 . S
C1114 C1108 1.383 . S
C1114 C1113 1.379 . S
H1115 C1109 0.959 . S
H1116 C1109 0.961 . S
H1117 C1109 0.960 . S
H1118 C1110 0.930 . S
H1119 C1111 0.929 . S
C265 C6 0.979 . S
C284 C111 1.004 . S
C301 C18 1.768 . S
C320 C155 1.753 . S
C356 C185 2.118 . S
C337 C28 2.127 . S
C373 C40 2.035 . S
C392 C226 1.995 . S
C428 C142 1.070 . S
C409 C9 1.067 . S
C464 C106 2.542 . S
C445 C16 2.514 . S
C500 C234 1.014 . S
C481 C30 1.033 . S
C536 C195 1.659 . S
C517 C42 1.687 . S
C553 C4 0.751 . S
C572 C231 0.753 . S
C608 C145 2.099 . S
C589 C33 2.148 . S
C625 C45 1.861 . S
C644 C114 1.846 . S
C661 C21 2.116 . S
C680 C182 2.132 . S
C716 C102 1.023 . S
C697 C57 1.027 . S
C733 C66 1.709 . S
C752 C146 1.706 . S
C769 C76 2.178 . S
C788 C194 2.162 . S
C805 C88 1.922 . S
C824 C235 1.871 . S
C841 C54 1.069 . S
C860 C151 1.080 . S
C896 C115 2.634 . S
C877 C64 2.625 . S
C932 C225 0.904 . S
C913 C78 0.919 . S
C968 C186 1.718 . S
C949 C93 1.728 . S
C985 C52 0.779 . S
C1004 C222 0.837 . S
C1040 C154 2.074 . S
C1021 C81 2.127 . S
C1076 C105 1.785 . S
C1057 C90 1.826 . S
C1093 C69 2.112 . S
C1112 C191 2.131 . S
