# Generated by pormake.
# Topology sit, (3,6)-cn, num edge types: 1
# Building blocks:
#     Node 0, Type 0, BuildingBlock: VETTIZ_charged_linker_0, # of connection points: 3
#     Node 1, Type 0, BuildingBlock: VETTIZ_charged_linker_0, # of connection points: 3
#     Node 2, Type 0, BuildingBlock: VETTIZ_charged_linker_0, # of connection points: 3
#     Node 3, Type 0, BuildingBlock: VETTIZ_charged_linker_0, # of connection points: 3
#     Node 4, Type 1, BuildingBlock: MIDCAF_clean_sbu_0, # of connection points: 6
#     Node 5, Type 1, BuildingBlock: MIDCAF_clean_sbu_0, # of connection points: 6
#     Edge 6, Type (0, 1), BuildingBlock: XIVTED_clean_linker_0, # of connection points: 2
#     Edge 7, Type (0, 1), BuildingBlock: XIVTED_clean_linker_0, # of connection points: 2
#     Edge 8, Type (0, 1), BuildingBlock: XIVTED_clean_linker_0, # of connection points: 2
#     Edge 9, Type (0, 1), BuildingBlock: XIVTED_clean_linker_0, # of connection points: 2
#     Edge 10, Type (0, 1), BuildingBlock: XIVTED_clean_linker_0, # of connection points: 2
#     Edge 11, Type (0, 1), BuildingBlock: XIVTED_clean_linker_0, # of connection points: 2
#     Edge 12, Type (0, 1), BuildingBlock: XIVTED_clean_linker_0, # of connection points: 2
#     Edge 13, Type (0, 1), BuildingBlock: XIVTED_clean_linker_0, # of connection points: 2
#     Edge 14, Type (0, 1), BuildingBlock: XIVTED_clean_linker_0, # of connection points: 2
#     Edge 15, Type (0, 1), BuildingBlock: XIVTED_clean_linker_0, # of connection points: 2
#     Edge 16, Type (0, 1), BuildingBlock: XIVTED_clean_linker_0, # of connection points: 2
#     Edge 17, Type (0, 1), BuildingBlock: XIVTED_clean_linker_0, # of connection points: 2
# Relax obj value: 0.113
# Max RMSD: 0.194
# Mean RMSD: 0.109
data_MOF--net-sit--node1-MIDCAF_clean_sbu_0--node2-VETTIZ_charged_linker_0--edge1-XIVTED_clean_linker_0
_symmetry_space_group_name_H-M    P1
_symmetry_Int_Tables_number       1
_symmetry_cell_setting            triclinic
loop_
_symmetry_equiv_pos_as_xyz
'x, y, z'
_cell_length_a     28.872351
_cell_length_b     37.259509
_cell_length_c     43.135707
_cell_angle_alpha  90.416215
_cell_angle_beta   89.142413
_cell_angle_gamma 84.229902
loop_
_atom_site_label
_atom_site_type_symbol
_atom_site_fract_x
_atom_site_fract_y
_atom_site_fract_z
_atom_type_partial_charge
C0 C 0.04231 0.2778 0.10384 0.0
C1 C 0.08123 0.25249 0.10812 0.0
C2 C 0.12541 0.26125 0.09805 0.0
C3 C 0.09116 0.31916 0.07938 0.0
C4 C 0.04804 0.31069 0.08957 0.0
C5 C 0.00985 0.3399 0.08269 0.0
H6 H 0.94034 0.48862 0.00169 0.0
C7 C 0.08481 0.35534 0.06516 0.0
C8 C 0.03726 0.36774 0.06728 0.0
H9 H 0.85616 0.41648 0.04948 0.0
H10 H 0.92459 0.38665 0.07324 0.0
H11 H 0.00976 0.50189 0.05561 0.0
H12 H 0.01783 0.42858 0.97857 0.0
H13 H 0.06963 0.45 0.98045 0.0
H14 H 0.01536 0.47695 0.97677 0.0
H15 H 0.03808 0.51246 0.02012 0.0
H16 H 0.06999 0.48901 0.05079 0.0
C17 C -0.01246 0.35421 0.11384 0.0
C18 C 0.97552 0.324 0.06018 0.0
C19 C 0.2195 0.40584 0.00871 0.0
C20 C 0.22293 0.43822 -0.00746 0.0
C21 C 0.18525 0.46539 -0.00589 0.0
C22 C 0.14386 0.45952 0.00964 0.0
C23 C 0.13972 0.42596 0.02339 0.0
C24 C 0.17777 0.40044 0.02414 0.0
C25 C 0.16749 0.36735 0.0418 0.0
C26 C 0.11637 0.37672 0.05018 0.0
C27 C 0.1002 0.41076 0.03862 0.0
C28 C 0.19839 0.36444 0.0709 0.0
C29 C 0.17507 0.33441 0.01953 0.0
C30 C 0.9367 0.46723 0.01815 0.0
C31 C 0.89319 0.45447 0.02348 0.0
C32 C 0.88954 0.42645 0.04486 0.0
C33 C 0.92934 0.40894 0.05833 0.0
C34 C 0.97328 0.41918 0.04992 0.0
C35 C 0.97639 0.44894 0.03129 0.0
C36 C 0.0261 0.4549 0.02376 0.0
C37 C 0.05201 0.42282 0.03984 0.0
C38 C 0.02085 0.40175 0.05469 0.0
C39 C 0.03664 0.49145 0.03815 0.0
C40 C 0.03288 0.45264 0.98804 0.0
H41 H 0.165 0.29936 0.07641 0.0
H42 H 0.00795 0.27238 0.11178 0.0
H43 H -0.00679 0.30151 0.04592 0.0
H44 H 0.96108 0.34368 0.04296 0.0
H45 H 0.94641 0.31319 0.07304 0.0
H46 H 0.01463 0.35589 0.13173 0.0
H47 H 0.9622 0.33609 0.12277 0.0
H48 H 0.97001 0.38187 0.11215 0.0
H49 H 0.24782 0.38447 0.0083 0.0
H50 H 0.18744 0.49099 0.98279 0.0
H51 H 0.11612 0.48089 0.00957 0.0
H52 H 0.20519 0.39159 0.07955 0.0
H53 H 0.23262 0.34902 0.06572 0.0
H54 H 0.18155 0.35194 0.0907 0.0
H55 H 0.16057 0.34135 -0.00367 0.0
H56 H 0.1573 0.31119 0.02737 0.0
H57 H 0.21274 0.32553 0.01632 0.0
H58 H 0.15598 0.24228 0.10089 0.0
C59 C 0.13057 0.29441 0.08377 0.0
C60 C 0.196 0.63213 0.02175 0.0
C61 C 0.19992 0.59981 0.00445 0.0
C62 C 0.16063 0.58063 0.00145 0.0
C63 C 0.11269 0.62989 0.0266 0.0
C64 C 0.15212 0.64682 0.0324 0.0
C65 C 0.14082 0.68351 0.04704 0.0
H66 H 0.9806 0.82285 0.08447 0.0
C67 C 0.0718 0.65552 0.03464 0.0
C68 C 0.08797 0.68687 0.04688 0.0
H69 H 0.12868 0.81227 0.10144 0.0
H70 H 0.13622 0.75278 0.07897 0.0
H71 H -0.01155 0.78811 0.0171 0.0
H72 H 0.96282 0.74029 0.10552 0.0
H73 H 0.92281 0.72638 0.07848 0.0
H74 H 0.92266 0.77359 0.08769 0.0
H75 H 0.93203 0.79353 0.03549 0.0
H76 H 0.95006 0.75537 0.01055 0.0
C77 C 0.16086 0.71186 0.02585 0.0
C78 C 0.15997 0.68232 0.08045 0.0
C79 C 0.91387 0.62892 -0.00365 0.0
C80 C 0.87153 0.65052 -0.00714 0.0
C81 C 0.86622 0.68521 0.00667 0.0
C82 C 0.90315 0.69868 0.02234 0.0
C83 C 0.94611 0.67748 0.02393 0.0
C84 C 0.95067 0.64304 0.0114 0.0
C85 C -0.00049 0.62516 0.01318 0.0
C86 C 0.02384 0.65487 0.0283 0.0
C87 C -0.00768 0.6853 0.03497 0.0
C88 C 0.0179 0.61581 0.97967 0.0
C89 C -0.00114 0.59213 0.03465 0.0
C90 C 0.01461 0.80767 0.08333 0.0
C91 C 0.05418 0.82262 0.09448 0.0
C92 C 0.09779 0.80189 0.09243 0.0
C93 C 0.10208 0.76707 0.07969 0.0
C94 C 0.06246 0.75259 0.06853 0.0
C95 C 0.01958 0.77269 0.0705 0.0
C96 C 0.98146 0.75252 0.05739 0.0
C97 C 0.00843 0.71667 0.04837 0.0
C98 C 0.05593 0.71717 0.0546 0.0
C99 C 0.96151 0.77336 0.02876 0.0
C100 C 0.94516 0.748 0.08345 0.0
H101 H 0.08781 0.58055 0.00833 0.0
H102 H 0.22594 0.64712 0.02465 0.0
H103 H 0.16213 0.65454 0.09001 0.0
H104 H 0.13695 0.6988 0.09699 0.0
H105 H 0.19547 0.69132 0.08111 0.0
H106 H 0.15506 0.70566 0.00102 0.0
H107 H 0.19894 0.71206 0.02906 0.0
H108 H 0.14416 0.73949 0.02961 0.0
H109 H 0.9191 0.60197 0.9865 0.0
H110 H 0.83418 0.70266 0.00426 0.0
H111 H 0.89728 0.72551 0.03175 0.0
H112 H -0.0036 0.63064 0.96178 0.0
H113 H 0.0179 0.58657 0.97447 0.0
H114 H 0.05333 0.62377 0.97544 0.0
H115 H 0.97739 0.59925 0.05586 0.0
H116 H 0.03379 0.58225 0.043 0.0
H117 H -0.01641 0.5697 0.02268 0.0
H118 H 0.16288 0.55573 0.98819 0.0
C119 C 0.11697 0.59544 0.01266 0.0
C120 C 0.53027 0.75563 0.58785 0.0
C121 C 0.56957 0.73231 0.59625 0.0
C122 C 0.61423 0.74308 0.58963 0.0
C123 C 0.57987 0.7989 0.56722 0.0
C124 C 0.53623 0.78884 0.57416 0.0
C125 C 0.49806 0.8177 0.56628 0.0
H126 H 0.4325 0.97476 0.49473 0.0
C127 C 0.57392 0.83522 0.55336 0.0
C128 C 0.52608 0.84682 0.55353 0.0
H129 H 0.34517 0.90012 0.5362 0.0
H130 H 0.41276 0.8656 0.55698 0.0
H131 H 0.50646 0.97705 0.55126 0.0
H132 H 0.50307 0.916 0.46672 0.0
H133 H 0.55959 0.92881 0.46983 0.0
H134 H 0.51134 0.9631 0.46802 0.0
H135 H 0.52188 0.99502 0.51452 0.0
H136 H 0.56462 0.96979 0.53816 0.0
C137 C 0.47131 0.83004 0.59657 0.0
C138 C 0.46766 0.8022 0.54115 0.0
C139 C 0.71112 0.88636 0.50047 0.0
C140 C 0.71459 0.91808 0.4834 0.0
C141 C 0.67635 0.94471 0.48331 0.0
C142 C 0.63447 0.93902 0.49824 0.0
C143 C 0.6304 0.90614 0.51316 0.0
C144 C 0.66874 0.88098 0.51516 0.0
C145 C 0.65796 0.84816 0.53303 0.0
C146 C 0.60617 0.85704 0.53972 0.0
C147 C 0.59029 0.89091 0.5277 0.0
C148 C 0.68677 0.84629 0.56312 0.0
C149 C 0.66781 0.81471 0.51154 0.0
C150 C 0.42798 0.95171 0.50924 0.0
C151 C 0.38372 0.94 0.51386 0.0
C152 C 0.37911 0.90947 0.53231 0.0
C153 C 0.41842 0.88929 0.54406 0.0
C154 C 0.46288 0.8994 0.53684 0.0
C155 C 0.46705 0.93082 0.5206 0.0
C156 C 0.51699 0.93627 0.51355 0.0
C157 C 0.54203 0.90285 0.5281 0.0
C158 C 0.51014 0.88113 0.54134 0.0
C159 C 0.52832 0.97142 0.52998 0.0
C160 C 0.52346 0.93632 0.47775 0.0
H161 H 0.65433 0.78266 0.57084 0.0
H162 H 0.49529 0.7486 0.59202 0.0
H163 H 0.4898 0.78585 0.52384 0.0
H164 H 0.44766 0.82317 0.52754 0.0
H165 H 0.44311 0.78443 0.55163 0.0
H166 H 0.49463 0.82754 0.61692 0.0
H167 H 0.44211 0.81347 0.60121 0.0
H168 H 0.45773 0.85886 0.59631 0.0
H169 H 0.73997 0.86546 0.50121 0.0
H170 H 0.67854 0.96969 0.47103 0.0
H171 H 0.60632 0.95995 0.49668 0.0
H172 H 0.69622 0.87337 0.5702 0.0
H173 H 0.71968 0.82837 0.56006 0.0
H174 H 0.66696 0.83704 0.58321 0.0
H175 H 0.65219 0.82013 0.48841 0.0
H176 H 0.65285 0.79065 0.52039 0.0
H177 H 0.70585 0.80771 0.50805 0.0
H178 H 0.64536 0.72658 0.5964 0.0
C179 C 0.61952 0.77604 0.57511 0.0
C180 C 0.67434 0.09149 0.51721 0.0
C181 C 0.67144 0.05972 0.49981 0.0
C182 C 0.62797 0.04605 0.49698 0.0
C183 C 0.59048 0.09822 0.52443 0.0
C184 C 0.63345 0.11045 0.52904 0.0
C185 C 0.62939 0.14716 0.54429 0.0
H186 H 0.49268 0.29179 0.60127 0.0
C187 C 0.55442 0.12679 0.53495 0.0
C188 C 0.57684 0.1555 0.54678 0.0
H189 H 0.64337 0.27444 0.597 0.0
H190 H 0.63935 0.21714 0.57246 0.0
H191 H 0.4824 0.26832 0.53232 0.0
H192 H 0.46896 0.20848 0.61631 0.0
H193 H 0.42093 0.20381 0.59199 0.0
H194 H 0.43151 0.24784 0.60575 0.0
H195 H 0.42828 0.27044 0.55345 0.0
H196 H 0.44362 0.2363 0.52409 0.0
C197 C 0.65178 0.17364 0.52235 0.0
C198 C 0.65198 0.1431 0.57656 0.0
C199 C 0.38758 0.11601 0.50614 0.0
C200 C 0.34826 0.14136 0.50496 0.0
C201 C 0.34896 0.17454 0.5209 0.0
C202 C 0.38946 0.1832 0.53573 0.0
C203 C 0.42979 0.15869 0.53419 0.0
C204 C 0.42801 0.12546 0.52006 0.0
C205 C 0.47481 0.10404 0.51776 0.0
C206 C 0.50534 0.13026 0.53214 0.0
C207 C 0.47884 0.16202 0.54219 0.0
C208 C 0.48682 0.0963 0.48287 0.0
C209 C 0.47313 0.06985 0.53777 0.0
C210 C 0.5249 0.27592 0.59488 0.0
C211 C 0.56844 0.2877 0.60227 0.0
C212 C 0.60924 0.26584 0.59301 0.0
C213 C 0.60695 0.23244 0.57843 0.0
C214 C 0.56342 0.22072 0.57207 0.0
C215 C 0.52327 0.24264 0.57959 0.0
C216 C 0.48027 0.22667 0.56871 0.0
C217 C 0.50131 0.19067 0.55533 0.0
C218 C 0.55005 0.18742 0.55744 0.0
C219 C 0.45707 0.25164 0.54348 0.0
C220 C 0.44839 0.22148 0.59709 0.0
H221 H 0.55541 0.05366 0.50576 0.0
H222 H 0.70716 0.10299 0.51934 0.0
H223 H 0.64372 0.11764 0.58773 0.0
H224 H 0.63887 0.16472 0.59301 0.0
H225 H 0.69048 0.14229 0.5746 0.0
H226 H 0.64758 0.16611 0.49761 0.0
H227 H 0.68964 0.17357 0.52657 0.0
H228 H 0.6351 0.20159 0.52427 0.0
H229 H 0.38805 0.09 0.49467 0.0
H230 H 0.31912 0.1946 0.52049 0.0
H231 H 0.38844 0.20918 0.54676 0.0
H232 H 0.46638 0.11552 0.46743 0.0
H233 H 0.47947 0.06867 0.47599 0.0
H234 H 0.52343 0.09982 0.47684 0.0
H235 H 0.45369 0.07639 0.55989 0.0
H236 H 0.50803 0.05801 0.54471 0.0
H237 H 0.45531 0.049 0.52541 0.0
H238 H 0.62479 1.02178 0.48362 0.0
C239 C 0.5876 0.06486 0.50958 0.0
Zn240 Zn 0.00176 0.09911 0.33333 0.0
Zn241 Zn 0.07871 0.9592 0.32428 0.0
Zn242 Zn 0.04324 0.02951 0.32744 0.0
C243 C 0.06734 0.98573 0.26341 0.0
C244 C -0.00839 0.96162 0.353 0.0
O245 O 0.0903 0.05969 0.35404 0.0
O246 O 0.05276 0.11433 0.36021 0.0
C247 C 0.0234 0.08364 0.26991 0.0
O248 O 0.05181 1.01509 0.27765 0.0
O249 O 0.08183 0.95794 0.27836 0.0
O250 O 0.02593 0.93893 0.34652 0.0
O251 O -0.007 0.99534 0.34711 0.0
O252 O 0.00391 0.10766 0.28791 0.0
O253 O 0.04017 0.05284 0.28045 0.0
O254 O 0.97533 0.03168 0.35229 0.0
O255 O 0.94259 0.08813 0.35318 0.0
C256 C 0.9415 0.05539 0.3601 0.0
O257 O 0.10819 0.02269 0.35473 0.0
O258 O 0.13545 0.96547 0.34764 0.0
C259 C 0.08806 0.09216 0.36481 0.0
C260 C 0.13909 0.996 0.35971 0.0
Zn261 Zn 0.53451 0.58941 0.82291 0.0
Zn262 Zn 0.58991 0.44872 0.82913 0.0
Zn263 Zn 0.56284 0.51939 0.82438 0.0
C264 C 0.58456 0.46547 0.76576 0.0
C265 C 0.50201 0.46058 0.85654 0.0
O266 O 0.61546 0.54887 0.84759 0.0
O267 O 0.58748 0.60641 0.84575 0.0
C268 C 0.54638 0.56503 0.76147 0.0
O269 O 0.57072 0.4973 0.77623 0.0
O270 O 0.59595 0.43996 0.78409 0.0
O271 O 0.53376 0.4352 0.85184 0.0
O272 O 0.50751 0.49296 0.84793 0.0
O273 O 0.53298 0.5927 0.77749 0.0
O274 O 0.55972 0.53487 0.77461 0.0
O275 O 0.49547 0.53055 0.85014 0.0
O276 O 0.4751 0.58913 0.84562 0.0
C277 C 0.46712 0.55883 0.85612 0.0
O278 O 0.62744 0.51171 0.85203 0.0
O279 O 0.64678 0.45268 0.85288 0.0
C280 C 0.6189 0.58241 0.85377 0.0
C281 C 0.65454 0.48415 0.8608 0.0
H282 H 0.01085 0.20877 0.10157 0.0
H283 H 0.95811 0.1143 0.23138 0.0
H284 H 0.13878 0.21664 0.15056 0.0
H285 H 0.10423 0.07799 0.23587 0.0
H286 H 0.97285 0.14709 0.18415 0.0
H287 H -0.00363 0.15668 0.13305 0.0
C288 C 0.03595 0.19956 0.11892 0.0
C289 C 0.07549 0.21781 0.12397 0.0
C290 C 0.00158 0.13088 0.19462 0.0
C291 C 0.059 0.15817 0.16014 0.0
C292 C -0.00691 0.11218 0.22163 0.0
C293 C 0.02999 0.09339 0.23729 0.0
C294 C 0.04756 0.13155 0.18366 0.0
C295 C 0.07486 0.09195 0.22416 0.0
C296 C 0.02764 0.16978 0.13685 0.0
C297 C 0.10767 0.20367 0.14597 0.0
N298 N 0.08267 0.11172 0.19851 0.0
N299 N 0.09843 0.17495 0.1635 0.0
H300 H 0.11304 0.87574 0.08877 0.0
H301 H 0.13845 0.97146 0.22226 0.0
H302 H -0.01327 0.85183 0.13552 0.0
H303 H -0.01107 0.98667 0.22948 0.0
H304 H 0.13254 0.94185 0.17213 0.0
H305 H 0.11427 0.92945 0.12151 0.0
C306 C 0.08541 0.88189 0.10582 0.0
C307 C 0.05045 0.85863 0.11 0.0
C308 C 0.10085 0.95304 0.18378 0.0
C309 C 0.052 0.91985 0.14783 0.0
C310 C 0.10434 0.97009 0.21242 0.0
C311 C 0.06414 0.98178 0.22966 0.0
C312 C 0.05672 0.94676 0.17279 0.0
C313 C 0.02068 0.97843 0.21651 0.0
C314 C 0.08621 0.91253 0.12454 0.0
C315 C 0.01462 0.86872 0.13166 0.0
N316 N 0.01806 0.96023 0.18921 0.0
N317 N 0.0167 0.89828 0.1501 0.0
H318 H 0.62777 0.66811 0.59628 0.0
H319 H 0.47264 0.58329 0.72552 0.0
H320 H 0.4986 0.71802 0.63636 0.0
H321 H 0.62183 0.56061 0.72211 0.0
H322 H 0.47599 0.61605 0.67683 0.0
H323 H 0.62064 0.61542 0.62905 0.0
C324 C 0.59781 0.66817 0.61165 0.0
C325 C 0.56398 0.69821 0.61349 0.0
C326 C 0.50791 0.60294 0.68616 0.0
C327 C 0.55488 0.63706 0.6499 0.0
C328 C 0.50594 0.58384 0.71367 0.0
C329 C 0.54703 0.56942 0.72769 0.0
C330 C 0.55137 0.60808 0.67287 0.0
C331 C 0.58941 0.57127 0.71179 0.0
C332 C 0.59365 0.63781 0.63006 0.0
C333 C 0.52535 0.69576 0.63335 0.0
N334 N 0.59071 0.59113 0.68543 0.0
N335 N 0.52202 0.6659 0.6507 0.0
H336 H 0.50887 0.35134 0.60357 0.0
H337 H 0.65969 0.43891 0.73224 0.0
H338 H 0.63575 0.30181 0.64373 0.0
H339 H 0.51217 0.4684 0.72531 0.0
H340 H 0.65773 0.40212 0.68533 0.0
H341 H 0.51467 0.40469 0.63652 0.0
C342 C 0.53801 0.35151 0.61903 0.0
C343 C 0.57191 0.3216 0.62058 0.0
C344 C 0.62591 0.41736 0.69352 0.0
C345 C 0.5794 0.38325 0.65737 0.0
C346 C 0.62719 0.43874 0.72001 0.0
C347 C 0.58606 0.45656 0.7325 0.0
C348 C 0.58301 0.41323 0.67973 0.0
C349 C 0.54465 0.45515 0.71614 0.0
C350 C 0.54143 0.3822 0.63757 0.0
C351 C 0.60925 0.32411 0.6408 0.0
N352 N 0.54389 0.43306 0.69082 0.0
N353 N 0.61189 0.35422 0.65824 0.0
H354 H 0.22491 0.47061 0.93574 0.0
H355 H 0.4989 0.42217 0.90943 0.0
H356 H 0.31501 0.41584 0.00326 0.0
H357 H 0.41128 0.48346 0.84462 0.0
H358 H 0.43078 0.4165 0.94275 0.0
H359 H 0.29214 0.47473 0.90166 0.0
C360 C 0.25887 0.45975 0.9436 0.0
C361 C 0.26417 0.44277 0.9725 0.0
C362 C 0.42629 0.431 0.92117 0.0
C363 C 0.34124 0.44651 0.93301 0.0
C364 C 0.46505 0.43399 0.90209 0.0
C365 C 0.46042 0.45364 0.87459 0.0
C366 C 0.38259 0.44748 0.91243 0.0
C367 C 0.41606 0.46842 0.86592 0.0
C368 C 0.2972 0.46178 0.92391 0.0
C369 C 0.30903 0.42864 0.98104 0.0
N370 N 0.37873 0.46519 0.88489 0.0
N371 N 0.34579 0.43073 0.96134 0.0
H372 H 0.88236 0.61094 0.93879 0.0
H373 H 0.61103 0.62921 0.90211 0.0
H374 H 0.77639 0.66188 0.00095 0.0
H375 H 0.71213 0.55962 0.84954 0.0
H376 H 0.67243 0.64443 0.93672 0.0
H377 H 0.82162 0.59324 0.90496 0.0
C378 C 0.84635 0.61806 0.94562 0.0
C379 C 0.83461 0.638 0.97293 0.0
C380 C 0.68133 0.62582 0.91766 0.0
C381 C 0.76484 0.61861 0.93358 0.0
C382 C 0.64639 0.61736 0.89779 0.0
C383 C 0.65673 0.59296 0.87322 0.0
C384 C 0.72711 0.61013 0.91265 0.0
C385 C 0.70292 0.57833 0.86849 0.0
C386 C 0.81168 0.60816 0.92606 0.0
C387 C 0.78724 0.64707 0.97998 0.0
N388 N 0.73656 0.58713 0.8881 0.0
N389 N 0.75415 0.63746 0.96036 0.0
H390 H 0.8541 0.52228 0.00661 0.0
H391 H 0.73928 0.4462 0.85908 0.0
H392 H 0.84741 0.4086 0.98986 0.0
H393 H 0.65611 0.52856 0.91174 0.0
H394 H 0.79804 0.44376 0.89946 0.0
H395 H 0.79646 0.53568 0.96527 0.0
C396 C 0.84003 0.50029 -0.00543 0.0
C397 C 0.85479 0.46429 0.0019 0.0
C398 C 0.76735 0.46293 0.90177 0.0
C399 C 0.79139 0.4793 0.95446 0.0
C400 C 0.73401 0.46441 0.87881 0.0
C401 C 0.69323 0.48793 0.882 0.0
C402 C 0.75993 0.48513 0.9281 0.0
C403 C 0.68769 0.51067 0.90819 0.0
C404 C 0.80749 0.50793 0.97111 0.0
C405 C 0.83625 0.43668 0.98538 0.0
N406 N 0.72078 0.50869 0.93048 0.0
N407 N 0.806 0.44477 0.9622 0.0
H408 H 0.23931 0.64461 0.96564 0.0
H409 H 0.46041 0.52141 0.91032 0.0
H410 H 0.25317 0.53417 -0.0035 0.0
H411 H 0.3821 0.59495 0.84927 0.0
H412 H 0.39391 0.52693 0.94724 0.0
H413 H 0.30316 0.62995 0.92883 0.0
C414 C 0.2564 0.61734 0.965 0.0
C415 C 0.2414 0.59064 0.98436 0.0
C416 C 0.39124 0.54124 0.92547 0.0
C417 C 0.31416 0.57363 0.94194 0.0
C418 C 0.42883 0.53797 0.90441 0.0
C419 C 0.42618 0.55731 0.87658 0.0
C420 C 0.35182 0.56493 0.91887 0.0
C421 C 0.38532 0.57942 0.87039 0.0
C422 C 0.29239 0.60892 0.94373 0.0
C423 C 0.26403 0.55549 0.98201 0.0
N424 N 0.34994 0.58293 0.89152 0.0
N425 N 0.29982 0.54795 0.96123 0.0
H426 H 0.80672 0.90006 0.49722 0.0
H427 H 0.90083 0.97605 0.33773 0.0
H428 H 0.71771 0.94585 0.42504 0.0
H429 H -0.00965 0.92133 0.40519 0.0
H430 H 0.83289 0.96282 0.36862 0.0
H431 H 0.87453 0.90645 0.46372 0.0
C432 C 0.80141 0.91134 0.47433 0.0
C433 C 0.75646 0.92257 0.46401 0.0
C434 C 0.86732 0.95335 0.37659 0.0
C435 C 0.83375 0.92998 0.4256 0.0
C436 C 0.90594 0.96087 0.35895 0.0
C437 C 0.95082 0.94996 0.36924 0.0
C438 C 0.87386 0.93526 0.40492 0.0
C439 C 0.95605 0.93021 0.39667 0.0
C440 C 0.84011 0.91502 0.45523 0.0
C441 C 0.7517 0.93737 0.43423 0.0
N442 N 0.91794 0.92386 0.41385 0.0
N443 N 0.78982 0.94066 0.41613 0.0
H444 H 0.354 0.10914 0.44776 0.0
H445 H 0.07993 0.13185 0.41817 0.0
H446 H 0.25379 0.15894 0.51433 0.0
H447 H 0.18145 0.07729 0.35525 0.0
H448 H 0.14292 0.14504 0.45267 0.0
H449 H 0.29097 0.09875 0.41332 0.0
C450 C 0.31864 0.11755 0.45538 0.0
C451 C 0.30926 0.13457 0.4843 0.0
C452 C 0.15146 0.13033 0.43127 0.0
C453 C 0.23659 0.12366 0.44418 0.0
C454 C 0.11562 0.12302 0.41154 0.0
C455 C 0.12576 0.10311 0.38416 0.0
C456 C 0.19767 0.11792 0.42328 0.0
C457 C 0.17235 0.09233 0.37641 0.0
C458 C 0.28261 0.11192 0.43545 0.0
C459 C 0.26272 0.14586 0.49226 0.0
N460 N 0.20662 0.09973 0.39597 0.0
N461 N 0.22806 0.14017 0.4723 0.0
H462 H 0.34798 1.01106 0.50625 0.0
H463 H 0.13797 0.03368 0.41485 0.0
H464 H 0.33294 0.90227 0.476 0.0
H465 H 0.22621 0.96238 0.35481 0.0
H466 H 0.19899 0.02797 0.45442 0.0
H467 H 0.28803 0.03346 0.46865 0.0
C468 C 0.33158 0.99199 0.49206 0.0
C469 C 0.34463 0.95475 0.49449 0.0
C470 C 0.20522 1.01448 0.4322 0.0
C471 C 0.27832 0.97994 0.45138 0.0
C472 C 0.17074 1.0179 0.4096 0.0
C473 C 0.17756 0.99898 0.38135 0.0
C474 C 0.24561 0.99096 0.42666 0.0
C475 C 0.21973 0.97757 0.37621 0.0
C476 C 0.29766 1.00473 0.47077 0.0
C477 C 0.32315 0.93108 0.4753 0.0
N478 N 0.25173 0.97356 0.39888 0.0
N479 N 0.2916 0.94412 0.45426 0.0
H480 H 0.76273 0.04471 0.51672 0.0
H481 H 0.85009 0.06578 0.34602 0.0
H482 H 0.67173 0.0423 0.4385 0.0
H483 H 0.94392 0.02295 0.41643 0.0
H484 H 0.78404 0.05505 0.37975 0.0
H485 H 0.83003 0.0331 0.48135 0.0
C486 C 0.75697 0.04099 0.4922 0.0
C487 C 0.71173 0.04486 0.48044 0.0
C488 C 0.81902 0.04744 0.38771 0.0
C489 C 0.78809 0.03248 0.43998 0.0
C490 C 0.85655 0.0537 0.36852 0.0
C491 C 0.90205 0.04513 0.37863 0.0
C492 C 0.82722 0.03365 0.41759 0.0
C493 C 0.90905 0.02974 0.40796 0.0
C494 C 0.79528 0.03432 0.47206 0.0
C495 C 0.70603 0.03955 0.44854 0.0
N496 N 0.87192 0.02501 0.42673 0.0
N497 N 0.74378 0.03437 0.42934 0.0
loop_
_geom_bond_atom_site_label_1
_geom_bond_atom_site_label_2
_geom_bond_distance
_geom_bond_site_symmetry_2
_ccdc_geom_bond_type
C0 C1 1.391 . S
C0 C4 1.391 . S
C0 H42 0.948 . S
C1 C0 1.391 . S
C1 C2 1.391 . S
C2 C1 1.391 . S
C2 H58 0.947 . S
C2 C59 1.392 . S
C3 C4 1.391 . S
C3 C7 1.397 . S
C3 C59 1.419 . S
C4 C0 1.391 . S
C4 C3 1.391 . S
C4 C5 1.399 . S
C5 C4 1.399 . S
C5 C8 1.396 . S
C5 C17 1.453 . S
C5 C18 1.684 . S
H6 C30 0.948 . S
C7 C3 1.397 . S
C7 C8 1.394 . S
C7 C26 1.723 . S
C8 C5 1.396 . S
C8 C7 1.394 . S
C8 C38 1.723 . S
H9 C32 0.947 1_554 S
H10 C33 0.948 . S
H11 C39 0.982 . S
H12 C40 0.979 . S
H13 C40 0.980 . S
H14 C40 0.983 . S
H15 C39 0.979 . S
H16 C39 0.977 . S
C17 C5 1.453 . S
C17 H46 0.982 . S
C17 H47 0.979 . S
C17 H48 0.977 . S
C18 C5 1.684 . S
C18 H43 0.979 . S
C18 H44 0.980 1_455 S
C18 H45 0.983 . S
C19 C20 1.391 . S
C19 C24 1.391 1_556 S
C19 H49 0.948 1_556 S
C20 C19 1.391 . S
C20 C21 1.391 . S
C21 C20 1.391 . S
C21 C22 1.392 . S
C21 H50 0.947 . S
C22 C21 1.392 . S
C22 C23 1.419 . S
C22 H51 0.948 . S
C23 C22 1.419 . S
C23 C24 1.391 1_556 S
C23 C27 1.397 1_556 S
C24 C19 1.391 1_554 S
C24 C23 1.391 1_554 S
C24 C25 1.399 . S
C25 C24 1.399 . S
C25 C26 1.396 . S
C25 C28 1.453 . S
C25 C29 1.684 . S
C26 C7 1.723 . S
C26 C25 1.396 . S
C26 C27 1.394 . S
C27 C23 1.397 1_554 S
C27 C26 1.394 . S
C27 C37 1.723 1_554 S
C28 C25 1.453 . S
C28 H52 0.982 . S
C28 H53 0.979 . S
C28 H54 0.977 . S
C29 C25 1.684 . S
C29 H55 0.979 . S
C29 H56 0.980 . S
C29 H57 0.983 . S
C30 H6 0.948 . S
C30 C31 1.391 . S
C30 C35 1.391 1_655 S
C31 C30 1.391 . S
C31 C32 1.391 . S
C32 H9 0.947 1_556 S
C32 C31 1.391 . S
C32 C33 1.392 1_556 S
C33 H10 0.948 . S
C33 C32 1.392 1_554 S
C33 C34 1.419 1_655 S
C34 C33 1.419 1_455 S
C34 C35 1.391 1_554 S
C34 C38 1.397 . S
C35 C30 1.391 1_455 S
C35 C34 1.391 1_556 S
C35 C36 1.399 . S
C36 C35 1.399 . S
C36 C37 1.396 . S
C36 C39 1.453 . S
C36 C40 1.684 . S
C37 C27 1.723 1_556 S
C37 C36 1.396 . S
C37 C38 1.394 1_556 S
C38 C8 1.723 . S
C38 C34 1.397 . S
C38 C37 1.394 1_554 S
C39 H11 0.982 . S
C39 H15 0.979 . S
C39 H16 0.977 . S
C39 C36 1.453 . S
C40 H12 0.979 . S
C40 H13 0.980 . S
C40 H14 0.983 . S
C40 C36 1.684 . S
H41 C59 0.948 . S
H42 C0 0.948 . S
H43 C18 0.979 . S
H44 C18 0.980 1_655 S
H45 C18 0.983 . S
H46 C17 0.982 . S
H47 C17 0.979 . S
H48 C17 0.977 . S
H49 C19 0.948 1_554 S
H50 C21 0.947 . S
H51 C22 0.948 . S
H52 C28 0.982 . S
H53 C28 0.979 . S
H54 C28 0.977 . S
H55 C29 0.979 . S
H56 C29 0.980 . S
H57 C29 0.983 . S
H58 C2 0.947 . S
C59 C2 1.392 . S
C59 C3 1.419 . S
C59 H41 0.948 . S
C60 C61 1.391 . S
C60 C64 1.391 1_556 S
C60 H102 0.948 1_556 S
C61 C60 1.391 . S
C61 C62 1.391 . S
C62 C61 1.391 . S
C62 H118 0.947 . S
C62 C119 1.392 . S
C63 C64 1.391 1_556 S
C63 C67 1.397 1_556 S
C63 C119 1.419 . S
C64 C60 1.391 1_554 S
C64 C63 1.391 1_554 S
C64 C65 1.399 . S
C65 C64 1.399 . S
C65 C68 1.396 . S
C65 C77 1.453 . S
C65 C78 1.684 . S
H66 C90 0.948 . S
C67 C63 1.397 1_554 S
C67 C68 1.394 . S
C67 C86 1.723 1_454 S
C68 C65 1.396 . S
C68 C67 1.394 . S
C68 C98 1.723 . S
H69 C92 0.947 . S
H70 C93 0.948 . S
H71 C99 0.982 . S
H72 C100 0.979 . S
H73 C100 0.980 . S
H74 C100 0.983 . S
H75 C99 0.979 . S
H76 C99 0.977 . S
C77 C65 1.453 . S
C77 H106 0.982 . S
C77 H107 0.979 . S
C77 H108 0.977 . S
C78 C65 1.684 . S
C78 H103 0.979 . S
C78 H104 0.980 . S
C78 H105 0.983 . S
C79 C80 1.391 . S
C79 C84 1.391 . S
C79 H109 0.948 . S
C80 C79 1.391 . S
C80 C81 1.391 1_556 S
C81 C80 1.391 1_554 S
C81 C82 1.392 . S
C81 H110 0.947 . S
C82 C81 1.392 . S
C82 C83 1.419 . S
C82 H111 0.948 . S
C83 C82 1.419 . S
C83 C84 1.391 1_554 S
C83 C87 1.397 . S
C84 C79 1.391 . S
C84 C83 1.391 1_556 S
C84 C85 1.399 . S
C85 C84 1.399 . S
C85 C86 1.396 . S
C85 C88 1.453 . S
C85 C89 1.684 . S
C86 C67 1.723 1_656 S
C86 C85 1.396 . S
C86 C87 1.394 1_556 S
C87 C83 1.397 . S
C87 C86 1.394 1_554 S
C87 C97 1.723 . S
C88 C85 1.453 . S
C88 H112 0.982 . S
C88 H113 0.979 . S
C88 H114 0.977 1_655 S
C89 C85 1.684 . S
C89 H115 0.979 . S
C89 H116 0.980 1_655 S
C89 H117 0.983 . S
C90 H66 0.948 . S
C90 C91 1.391 1_655 S
C90 C95 1.391 . S
C91 C90 1.391 1_455 S
C91 C92 1.391 . S
C92 H69 0.947 . S
C92 C91 1.391 . S
C92 C93 1.392 . S
C93 H70 0.948 . S
C93 C92 1.392 . S
C93 C94 1.419 . S
C94 C93 1.419 . S
C94 C95 1.391 1_455 S
C94 C98 1.397 . S
C95 C90 1.391 . S
C95 C94 1.391 1_655 S
C95 C96 1.399 . S
C96 C95 1.399 . S
C96 C97 1.396 . S
C96 C99 1.453 . S
C96 C100 1.684 . S
C97 C87 1.723 . S
C97 C96 1.396 . S
C97 C98 1.394 1_655 S
C98 C68 1.723 . S
C98 C94 1.397 . S
C98 C97 1.394 1_455 S
C99 H71 0.982 . S
C99 H75 0.979 . S
C99 H76 0.977 . S
C99 C96 1.453 . S
C100 H72 0.979 . S
C100 H73 0.980 . S
C100 H74 0.983 . S
C100 C96 1.684 . S
H101 C119 0.948 . S
H102 C60 0.948 1_554 S
H103 C78 0.979 . S
H104 C78 0.980 . S
H105 C78 0.983 . S
H106 C77 0.982 . S
H107 C77 0.979 . S
H108 C77 0.977 . S
H109 C79 0.948 . S
H110 C81 0.947 . S
H111 C82 0.948 . S
H112 C88 0.982 . S
H113 C88 0.979 . S
H114 C88 0.977 1_455 S
H115 C89 0.979 . S
H116 C89 0.980 1_455 S
H117 C89 0.983 . S
H118 C62 0.947 . S
C119 C62 1.392 . S
C119 C63 1.419 . S
C119 H101 0.948 . S
C120 C121 1.391 . S
C120 C124 1.391 . S
C120 H162 0.948 . S
C121 C120 1.391 . S
C121 C122 1.391 . S
C122 C121 1.391 . S
C122 H178 0.947 . S
C122 C179 1.392 . S
C123 C124 1.391 . S
C123 C127 1.397 . S
C123 C179 1.419 . S
C124 C120 1.391 . S
C124 C123 1.391 . S
C124 C125 1.399 . S
C125 C124 1.399 . S
C125 C128 1.396 . S
C125 C137 1.453 . S
C125 C138 1.684 . S
H126 C150 0.948 . S
C127 C123 1.397 . S
C127 C128 1.394 . S
C127 C146 1.723 . S
C128 C125 1.396 . S
C128 C127 1.394 . S
C128 C158 1.723 . S
H129 C152 0.947 . S
H130 C153 0.948 . S
H131 C159 0.982 . S
H132 C160 0.979 . S
H133 C160 0.980 . S
H134 C160 0.983 . S
H135 C159 0.979 . S
H136 C159 0.977 . S
C137 C125 1.453 . S
C137 H166 0.982 . S
C137 H167 0.979 . S
C137 H168 0.977 . S
C138 C125 1.684 . S
C138 H163 0.979 . S
C138 H164 0.980 . S
C138 H165 0.983 . S
C139 C140 1.391 . S
C139 C144 1.391 . S
C139 H169 0.948 . S
C140 C139 1.391 . S
C140 C141 1.391 . S
C141 C140 1.391 . S
C141 C142 1.392 . S
C141 H170 0.947 . S
C142 C141 1.392 . S
C142 C143 1.419 . S
C142 H171 0.948 . S
C143 C142 1.419 . S
C143 C144 1.391 . S
C143 C147 1.397 . S
C144 C139 1.391 . S
C144 C143 1.391 . S
C144 C145 1.399 . S
C145 C144 1.399 . S
C145 C146 1.396 . S
C145 C148 1.453 . S
C145 C149 1.684 . S
C146 C127 1.723 . S
C146 C145 1.396 . S
C146 C147 1.394 . S
C147 C143 1.397 . S
C147 C146 1.394 . S
C147 C157 1.723 . S
C148 C145 1.453 . S
C148 H172 0.982 . S
C148 H173 0.979 . S
C148 H174 0.977 . S
C149 C145 1.684 . S
C149 H175 0.979 . S
C149 H176 0.980 . S
C149 H177 0.983 . S
C150 H126 0.948 . S
C150 C151 1.391 . S
C150 C155 1.391 . S
C151 C150 1.391 . S
C151 C152 1.391 . S
C152 H129 0.947 . S
C152 C151 1.391 . S
C152 C153 1.392 . S
C153 H130 0.948 . S
C153 C152 1.392 . S
C153 C154 1.419 . S
C154 C153 1.419 . S
C154 C155 1.391 . S
C154 C158 1.397 . S
C155 C150 1.391 . S
C155 C154 1.391 . S
C155 C156 1.399 . S
C156 C155 1.399 . S
C156 C157 1.396 . S
C156 C159 1.453 . S
C156 C160 1.684 . S
C157 C147 1.723 . S
C157 C156 1.396 . S
C157 C158 1.394 . S
C158 C128 1.723 . S
C158 C154 1.397 . S
C158 C157 1.394 . S
C159 H131 0.982 . S
C159 H135 0.979 . S
C159 H136 0.977 . S
C159 C156 1.453 . S
C160 H132 0.979 . S
C160 H133 0.980 . S
C160 H134 0.983 . S
C160 C156 1.684 . S
H161 C179 0.948 . S
H162 C120 0.948 . S
H163 C138 0.979 . S
H164 C138 0.980 . S
H165 C138 0.983 . S
H166 C137 0.982 . S
H167 C137 0.979 . S
H168 C137 0.977 . S
H169 C139 0.948 . S
H170 C141 0.947 . S
H171 C142 0.948 . S
H172 C148 0.982 . S
H173 C148 0.979 . S
H174 C148 0.977 . S
H175 C149 0.979 . S
H176 C149 0.980 . S
H177 C149 0.983 . S
H178 C122 0.947 . S
C179 C122 1.392 . S
C179 C123 1.419 . S
C179 H161 0.948 . S
C180 C181 1.391 . S
C180 C184 1.391 . S
C180 H222 0.948 . S
C181 C180 1.391 . S
C181 C182 1.391 . S
C182 C181 1.391 . S
C182 H238 0.947 . S
C182 C239 1.392 . S
C183 C184 1.391 . S
C183 C187 1.397 . S
C183 C239 1.419 . S
C184 C180 1.391 . S
C184 C183 1.391 . S
C184 C185 1.399 . S
C185 C184 1.399 . S
C185 C188 1.396 . S
C185 C197 1.453 . S
C185 C198 1.684 . S
H186 C210 0.948 . S
C187 C183 1.397 . S
C187 C188 1.394 . S
C187 C206 1.723 . S
C188 C185 1.396 . S
C188 C187 1.394 . S
C188 C218 1.723 . S
H189 C212 0.947 . S
H190 C213 0.948 . S
H191 C219 0.982 . S
H192 C220 0.979 . S
H193 C220 0.980 . S
H194 C220 0.983 . S
H195 C219 0.979 . S
H196 C219 0.977 . S
C197 C185 1.453 . S
C197 H226 0.982 . S
C197 H227 0.979 . S
C197 H228 0.977 . S
C198 C185 1.684 . S
C198 H223 0.979 . S
C198 H224 0.980 . S
C198 H225 0.983 . S
C199 C200 1.391 . S
C199 C204 1.391 . S
C199 H229 0.948 . S
C200 C199 1.391 . S
C200 C201 1.391 . S
C201 C200 1.391 . S
C201 C202 1.392 . S
C201 H230 0.947 . S
C202 C201 1.392 . S
C202 C203 1.419 . S
C202 H231 0.948 . S
C203 C202 1.419 . S
C203 C204 1.391 . S
C203 C207 1.397 . S
C204 C199 1.391 . S
C204 C203 1.391 . S
C204 C205 1.399 . S
C205 C204 1.399 . S
C205 C206 1.396 . S
C205 C208 1.453 . S
C205 C209 1.684 . S
C206 C187 1.723 . S
C206 C205 1.396 . S
C206 C207 1.394 . S
C207 C203 1.397 . S
C207 C206 1.394 . S
C207 C217 1.723 . S
C208 C205 1.453 . S
C208 H232 0.982 . S
C208 H233 0.979 . S
C208 H234 0.977 . S
C209 C205 1.684 . S
C209 H235 0.979 . S
C209 H236 0.980 . S
C209 H237 0.983 . S
C210 H186 0.948 . S
C210 C211 1.391 . S
C210 C215 1.391 . S
C211 C210 1.391 . S
C211 C212 1.391 . S
C212 H189 0.947 . S
C212 C211 1.391 . S
C212 C213 1.392 . S
C213 H190 0.948 . S
C213 C212 1.392 . S
C213 C214 1.419 . S
C214 C213 1.419 . S
C214 C215 1.391 . S
C214 C218 1.397 . S
C215 C210 1.391 . S
C215 C214 1.391 . S
C215 C216 1.399 . S
C216 C215 1.399 . S
C216 C217 1.396 . S
C216 C219 1.453 . S
C216 C220 1.684 . S
C217 C207 1.723 . S
C217 C216 1.396 . S
C217 C218 1.394 . S
C218 C188 1.723 . S
C218 C214 1.397 . S
C218 C217 1.394 . S
C219 H191 0.982 . S
C219 H195 0.979 . S
C219 H196 0.977 . S
C219 C216 1.453 . S
C220 H192 0.979 . S
C220 H193 0.980 . S
C220 H194 0.983 . S
C220 C216 1.684 . S
H221 C239 0.948 . S
H222 C180 0.948 . S
H223 C198 0.979 . S
H224 C198 0.980 . S
H225 C198 0.983 . S
H226 C197 0.982 . S
H227 C197 0.979 . S
H228 C197 0.977 . S
H229 C199 0.948 . S
H230 C201 0.947 . S
H231 C202 0.948 . S
H232 C208 0.982 . S
H233 C208 0.979 . S
H234 C208 0.977 . S
H235 C209 0.979 . S
H236 C209 0.980 . S
H237 C209 0.983 . S
H238 C182 0.947 . S
C239 C182 1.392 . S
C239 C183 1.419 . S
C239 H221 0.948 . S
Zn240 O246 1.920 . S
Zn240 O252 1.898 . S
Zn240 O255 1.905 1_455 S
Zn241 O249 1.905 . S
Zn241 O250 1.898 . S
Zn241 O258 1.920 . S
Zn242 O245 2.080 . S
Zn242 O248 2.114 1_545 S
Zn242 O251 2.120 1_545 S
Zn242 O253 2.120 . S
Zn242 O254 2.114 . S
Zn242 O257 2.080 1_545 S
C243 O248 1.166 . S
C243 O249 1.182 . S
C244 O250 1.167 . S
C244 O251 1.299 . S
O245 Zn242 2.080 . S
O245 C259 1.305 . S
O246 Zn240 1.920 . S
O246 C259 1.234 . S
C247 O252 1.167 . S
C247 O253 1.299 . S
O248 Zn242 2.114 1_565 S
O248 C243 1.166 . S
O249 Zn241 1.905 . S
O249 C243 1.182 . S
O250 Zn241 1.898 . S
O250 C244 1.167 . S
O251 Zn242 2.120 1_565 S
O251 C244 1.299 . S
O252 Zn240 1.898 . S
O252 C247 1.167 . S
O253 Zn242 2.120 . S
O253 C247 1.299 . S
O254 Zn242 2.114 . S
O254 C256 1.166 1_455 S
O255 Zn240 1.905 1_655 S
O255 C256 1.182 . S
C256 O254 1.166 1_655 S
C256 O255 1.182 . S
O257 Zn242 2.080 1_565 S
O257 C260 1.305 . S
O258 Zn241 1.920 . S
O258 C260 1.234 . S
C259 O245 1.305 . S
C259 O246 1.234 . S
C260 O257 1.305 . S
C260 O258 1.234 . S
Zn261 O267 1.920 . S
Zn261 O273 1.898 . S
Zn261 O276 1.905 . S
Zn262 O270 1.905 . S
Zn262 O271 1.898 . S
Zn262 O279 1.920 . S
Zn263 O266 2.080 . S
Zn263 O269 2.114 . S
Zn263 O272 2.120 . S
Zn263 O274 2.120 . S
Zn263 O275 2.114 . S
Zn263 O278 2.080 . S
C264 O269 1.166 . S
C264 O270 1.182 . S
C265 O271 1.167 . S
C265 O272 1.299 . S
O266 Zn263 2.080 . S
O266 C280 1.305 . S
O267 Zn261 1.920 . S
O267 C280 1.234 . S
C268 O273 1.167 . S
C268 O274 1.299 . S
O269 Zn263 2.114 . S
O269 C264 1.166 . S
O270 Zn262 1.905 . S
O270 C264 1.182 . S
O271 Zn262 1.898 . S
O271 C265 1.167 . S
O272 Zn263 2.120 . S
O272 C265 1.299 . S
O273 Zn261 1.898 . S
O273 C268 1.167 . S
O274 Zn263 2.120 . S
O274 C268 1.299 . S
O275 Zn263 2.114 . S
O275 C277 1.166 . S
O276 Zn261 1.905 . S
O276 C277 1.182 . S
C277 O275 1.166 . S
C277 O276 1.182 . S
O278 Zn263 2.080 . S
O278 C281 1.305 . S
O279 Zn262 1.920 . S
O279 C281 1.234 . S
C280 O266 1.305 . S
C280 O267 1.234 . S
C281 O278 1.305 . S
C281 O279 1.234 . S
H282 C288 0.930 . S
H283 C292 0.930 . S
H284 C297 0.929 . S
H285 C295 0.929 . S
H286 C290 0.929 . S
H287 C296 0.929 . S
C288 H282 0.930 . S
C288 C289 1.367 . S
C288 C296 1.378 . S
C289 C288 1.367 . S
C289 C297 1.433 . S
C290 H286 0.929 . S
C290 C292 1.378 . S
C290 C294 1.350 . S
C291 C294 1.463 . S
C291 C296 1.350 . S
C291 N299 1.427 . S
C292 H283 0.930 . S
C292 C290 1.378 . S
C292 C293 1.367 . S
C293 C292 1.367 . S
C293 C295 1.433 . S
C294 C290 1.350 . S
C294 C291 1.463 . S
C294 N298 1.427 . S
C295 H285 0.929 . S
C295 C293 1.433 . S
C295 N298 1.384 . S
C296 H287 0.929 . S
C296 C288 1.378 . S
C296 C291 1.350 . S
C297 H284 0.929 . S
C297 C289 1.433 . S
C297 N299 1.384 . S
N298 C294 1.427 . S
N298 C295 1.384 . S
N299 C291 1.427 . S
N299 C297 1.384 . S
H300 C306 0.930 . S
H301 C310 0.930 . S
H302 C315 0.929 . S
H303 C313 0.929 . S
H304 C308 0.929 . S
H305 C314 0.929 . S
C306 H300 0.930 . S
C306 C307 1.367 1_655 S
C306 C314 1.378 . S
C307 C306 1.367 1_455 S
C307 C315 1.433 . S
C308 H304 0.929 . S
C308 C310 1.378 . S
C308 C312 1.350 . S
C309 C312 1.463 . S
C309 C314 1.350 1_455 S
C309 N317 1.427 . S
C310 H301 0.930 . S
C310 C308 1.378 . S
C310 C311 1.367 . S
C311 C310 1.367 . S
C311 C313 1.433 . S
C312 C308 1.350 . S
C312 C309 1.463 . S
C312 N316 1.427 . S
C313 H303 0.929 . S
C313 C311 1.433 . S
C313 N316 1.384 . S
C314 H305 0.929 . S
C314 C306 1.378 . S
C314 C309 1.350 1_655 S
C315 H302 0.929 . S
C315 C307 1.433 . S
C315 N317 1.384 . S
N316 C312 1.427 . S
N316 C313 1.384 . S
N317 C309 1.427 . S
N317 C315 1.384 . S
H318 C324 0.930 . S
H319 C328 0.930 . S
H320 C333 0.929 . S
H321 C331 0.929 . S
H322 C326 0.929 . S
H323 C332 0.929 . S
C324 H318 0.930 . S
C324 C325 1.367 . S
C324 C332 1.378 . S
C325 C324 1.367 . S
C325 C333 1.433 . S
C326 H322 0.929 . S
C326 C328 1.378 . S
C326 C330 1.350 . S
C327 C330 1.463 . S
C327 C332 1.350 . S
C327 N335 1.427 . S
C328 H319 0.930 . S
C328 C326 1.378 . S
C328 C329 1.367 . S
C329 C328 1.367 . S
C329 C331 1.433 . S
C330 C326 1.350 . S
C330 C327 1.463 . S
C330 N334 1.427 . S
C331 H321 0.929 . S
C331 C329 1.433 . S
C331 N334 1.384 . S
C332 H323 0.929 . S
C332 C324 1.378 . S
C332 C327 1.350 . S
C333 H320 0.929 . S
C333 C325 1.433 . S
C333 N335 1.384 . S
N334 C330 1.427 . S
N334 C331 1.384 . S
N335 C327 1.427 . S
N335 C333 1.384 . S
H336 C342 0.930 . S
H337 C346 0.930 . S
H338 C351 0.929 . S
H339 C349 0.929 . S
H340 C344 0.929 . S
H341 C350 0.929 . S
C342 H336 0.930 . S
C342 C343 1.367 . S
C342 C350 1.378 . S
C343 C342 1.367 . S
C343 C351 1.433 . S
C344 H340 0.929 . S
C344 C346 1.378 . S
C344 C348 1.350 . S
C345 C348 1.463 . S
C345 C350 1.350 . S
C345 N353 1.427 . S
C346 H337 0.930 . S
C346 C344 1.378 . S
C346 C347 1.367 . S
C347 C346 1.367 . S
C347 C349 1.433 . S
C348 C344 1.350 . S
C348 C345 1.463 . S
C348 N352 1.427 . S
C349 H339 0.929 . S
C349 C347 1.433 . S
C349 N352 1.384 . S
C350 H341 0.929 . S
C350 C342 1.378 . S
C350 C345 1.350 . S
C351 H338 0.929 . S
C351 C343 1.433 . S
C351 N353 1.384 . S
N352 C348 1.427 . S
N352 C349 1.384 . S
N353 C345 1.427 . S
N353 C351 1.384 . S
H354 C360 0.930 . S
H355 C364 0.930 . S
H356 C369 0.929 1_554 S
H357 C367 0.929 . S
H358 C362 0.929 . S
H359 C368 0.929 . S
C360 H354 0.930 . S
C360 C361 1.367 . S
C360 C368 1.378 . S
C361 C360 1.367 . S
C361 C369 1.433 . S
C362 H358 0.929 . S
C362 C364 1.378 . S
C362 C366 1.350 . S
C363 C366 1.463 . S
C363 C368 1.350 . S
C363 N371 1.427 . S
C364 H355 0.930 . S
C364 C362 1.378 . S
C364 C365 1.367 . S
C365 C364 1.367 . S
C365 C367 1.433 . S
C366 C362 1.350 . S
C366 C363 1.463 . S
C366 N370 1.427 . S
C367 H357 0.929 . S
C367 C365 1.433 . S
C367 N370 1.384 . S
C368 H359 0.929 . S
C368 C360 1.378 . S
C368 C363 1.350 . S
C369 H356 0.929 1_556 S
C369 C361 1.433 . S
C369 N371 1.384 . S
N370 C366 1.427 . S
N370 C367 1.384 . S
N371 C363 1.427 . S
N371 C369 1.384 . S
H372 C378 0.930 . S
H373 C382 0.930 . S
H374 C387 0.929 1_554 S
H375 C385 0.929 . S
H376 C380 0.929 . S
H377 C386 0.929 . S
C378 H372 0.930 . S
C378 C379 1.367 . S
C378 C386 1.378 . S
C379 C378 1.367 . S
C379 C387 1.433 . S
C380 H376 0.929 . S
C380 C382 1.378 . S
C380 C384 1.350 . S
C381 C384 1.463 . S
C381 C386 1.350 . S
C381 N389 1.427 . S
C382 H373 0.930 . S
C382 C380 1.378 . S
C382 C383 1.367 . S
C383 C382 1.367 . S
C383 C385 1.433 . S
C384 C380 1.350 . S
C384 C381 1.463 . S
C384 N388 1.427 . S
C385 H375 0.929 . S
C385 C383 1.433 . S
C385 N388 1.384 . S
C386 H377 0.929 . S
C386 C378 1.378 . S
C386 C381 1.350 . S
C387 H374 0.929 1_556 S
C387 C379 1.433 . S
C387 N389 1.384 . S
N388 C384 1.427 . S
N388 C385 1.384 . S
N389 C381 1.427 . S
N389 C387 1.384 . S
H390 C396 0.930 . S
H391 C400 0.930 . S
H392 C405 0.929 . S
H393 C403 0.929 . S
H394 C398 0.929 . S
H395 C404 0.929 . S
C396 H390 0.930 . S
C396 C397 1.367 . S
C396 C404 1.378 . S
C397 C396 1.367 . S
C397 C405 1.433 . S
C398 H394 0.929 . S
C398 C400 1.378 . S
C398 C402 1.350 . S
C399 C402 1.463 . S
C399 C404 1.350 . S
C399 N407 1.427 . S
C400 H391 0.930 . S
C400 C398 1.378 . S
C400 C401 1.367 . S
C401 C400 1.367 . S
C401 C403 1.433 . S
C402 C398 1.350 . S
C402 C399 1.463 . S
C402 N406 1.427 . S
C403 H393 0.929 . S
C403 C401 1.433 . S
C403 N406 1.384 . S
C404 H395 0.929 . S
C404 C396 1.378 . S
C404 C399 1.350 . S
C405 H392 0.929 . S
C405 C397 1.433 . S
C405 N407 1.384 . S
N406 C402 1.427 . S
N406 C403 1.384 . S
N407 C399 1.427 . S
N407 C405 1.384 . S
H408 C414 0.930 . S
H409 C418 0.930 . S
H410 C423 0.929 . S
H411 C421 0.929 . S
H412 C416 0.929 . S
H413 C422 0.929 . S
C414 H408 0.930 . S
C414 C415 1.367 . S
C414 C422 1.378 . S
C415 C414 1.367 . S
C415 C423 1.433 . S
C416 H412 0.929 . S
C416 C418 1.378 . S
C416 C420 1.350 . S
C417 C420 1.463 . S
C417 C422 1.350 . S
C417 N425 1.427 . S
C418 H409 0.930 . S
C418 C416 1.378 . S
C418 C419 1.367 . S
C419 C418 1.367 . S
C419 C421 1.433 . S
C420 C416 1.350 . S
C420 C417 1.463 . S
C420 N424 1.427 . S
C421 H411 0.929 . S
C421 C419 1.433 . S
C421 N424 1.384 . S
C422 H413 0.929 . S
C422 C414 1.378 . S
C422 C417 1.350 . S
C423 H410 0.929 . S
C423 C415 1.433 . S
C423 N425 1.384 . S
N424 C420 1.427 . S
N424 C421 1.384 . S
N425 C417 1.427 . S
N425 C423 1.384 . S
H426 C432 0.930 . S
H427 C436 0.930 . S
H428 C441 0.929 . S
H429 C439 0.929 . S
H430 C434 0.929 . S
H431 C440 0.929 . S
C432 H426 0.930 . S
C432 C433 1.367 . S
C432 C440 1.378 . S
C433 C432 1.367 . S
C433 C441 1.433 . S
C434 H430 0.929 . S
C434 C436 1.378 . S
C434 C438 1.350 . S
C435 C438 1.463 . S
C435 C440 1.350 . S
C435 N443 1.427 . S
C436 H427 0.930 . S
C436 C434 1.378 . S
C436 C437 1.367 . S
C437 C436 1.367 . S
C437 C439 1.433 1_655 S
C438 C434 1.350 . S
C438 C435 1.463 . S
C438 N442 1.427 . S
C439 H429 0.929 . S
C439 C437 1.433 1_455 S
C439 N442 1.383 1_455 S
C440 H431 0.929 . S
C440 C432 1.378 . S
C440 C435 1.350 . S
C441 H428 0.929 . S
C441 C433 1.433 . S
C441 N443 1.384 . S
N442 C438 1.427 . S
N442 C439 1.383 1_655 S
N443 C435 1.427 . S
N443 C441 1.384 . S
H444 C450 0.930 . S
H445 C454 0.930 . S
H446 C459 0.929 . S
H447 C457 0.929 . S
H448 C452 0.929 . S
H449 C458 0.929 . S
C450 H444 0.930 . S
C450 C451 1.367 . S
C450 C458 1.378 . S
C451 C450 1.367 . S
C451 C459 1.433 . S
C452 H448 0.929 . S
C452 C454 1.378 . S
C452 C456 1.350 . S
C453 C456 1.463 . S
C453 C458 1.350 . S
C453 N461 1.427 . S
C454 H445 0.930 . S
C454 C452 1.378 . S
C454 C455 1.367 . S
C455 C454 1.367 . S
C455 C457 1.433 . S
C456 C452 1.350 . S
C456 C453 1.463 . S
C456 N460 1.427 . S
C457 H447 0.929 . S
C457 C455 1.433 . S
C457 N460 1.384 . S
C458 H449 0.929 . S
C458 C450 1.378 . S
C458 C453 1.350 . S
C459 H446 0.929 . S
C459 C451 1.433 . S
C459 N461 1.384 . S
N460 C456 1.427 . S
N460 C457 1.384 . S
N461 C453 1.427 . S
N461 C459 1.384 . S
H462 C468 0.930 . S
H463 C472 0.930 . S
H464 C477 0.929 . S
H465 C475 0.929 . S
H466 C470 0.929 . S
H467 C476 0.929 . S
C468 H462 0.930 . S
C468 C469 1.367 . S
C468 C476 1.378 . S
C469 C468 1.367 . S
C469 C477 1.433 . S
C470 H466 0.929 . S
C470 C472 1.378 . S
C470 C474 1.350 . S
C471 C474 1.463 . S
C471 C476 1.350 . S
C471 N479 1.427 . S
C472 H463 0.930 . S
C472 C470 1.378 . S
C472 C473 1.367 . S
C473 C472 1.367 . S
C473 C475 1.433 . S
C474 C470 1.350 . S
C474 C471 1.463 . S
C474 N478 1.427 . S
C475 H465 0.929 . S
C475 C473 1.433 . S
C475 N478 1.384 . S
C476 H467 0.929 . S
C476 C468 1.378 . S
C476 C471 1.350 . S
C477 H464 0.929 . S
C477 C469 1.433 . S
C477 N479 1.384 . S
N478 C474 1.427 . S
N478 C475 1.384 . S
N479 C471 1.427 . S
N479 C477 1.384 . S
H480 C486 0.930 . S
H481 C490 0.930 . S
H482 C495 0.929 . S
H483 C493 0.929 . S
H484 C488 0.929 . S
H485 C494 0.929 . S
C486 H480 0.930 . S
C486 C487 1.367 . S
C486 C494 1.378 . S
C487 C486 1.367 . S
C487 C495 1.433 . S
C488 H484 0.929 . S
C488 C490 1.378 . S
C488 C492 1.350 . S
C489 C492 1.463 . S
C489 C494 1.350 . S
C489 N497 1.427 . S
C490 H481 0.930 . S
C490 C488 1.378 . S
C490 C491 1.367 . S
C491 C490 1.367 . S
C491 C493 1.433 . S
C492 C488 1.350 . S
C492 C489 1.463 . S
C492 N496 1.427 . S
C493 H483 0.929 . S
C493 C491 1.433 . S
C493 N496 1.384 . S
C494 H485 0.929 . S
C494 C486 1.378 . S
C494 C489 1.350 . S
C495 H482 0.929 . S
C495 C487 1.433 . S
C495 N497 1.384 . S
N496 C492 1.427 . S
N496 C493 1.384 . S
N497 C489 1.427 . S
N497 C495 1.384 . S
C293 C247 1.426 . S
C289 C1 1.537 . S
C311 C243 1.434 . S
C307 C91 1.472 . S
C329 C268 1.428 . S
C325 C121 1.535 . S
C343 C211 1.473 . S
C347 C264 1.436 . S
C361 C20 1.190 . S
C365 C265 1.077 . S
C383 C280 1.110 . S
C379 C80 1.234 . S
C397 C31 1.710 . S
C401 C281 1.551 . S
C419 C277 1.585 . S
C415 C61 1.656 . S
C437 C244 1.079 1_655 S
C433 C140 1.207 . S
C451 C200 1.234 . S
C455 C259 1.109 . S
C473 C260 1.551 . S
C469 C151 1.710 . S
C491 C256 1.584 . S
C487 C181 1.656 . S
